# Generated by pormake.
# Topology sxc, (6)-cn, num edge types: 1
# Building blocks:
#     Node 0, Type 0, BuildingBlock: PAMTOO_clean_sbu_0, # of connection points: 6
#     Node 1, Type 0, BuildingBlock: PAMTOO_clean_sbu_0, # of connection points: 6
#     Node 2, Type 0, BuildingBlock: PAMTOO_clean_sbu_0, # of connection points: 6
#     Edge 3, Type (0, 0), BuildingBlock: EZIPEK_clean_linker_0, # of connection points: 2
#     Edge 4, Type (0, 0), BuildingBlock: EZIPEK_clean_linker_0, # of connection points: 2
#     Edge 5, Type (0, 0), BuildingBlock: EZIPEK_clean_linker_0, # of connection points: 2
#     Edge 6, Type (0, 0), BuildingBlock: EZIPEK_clean_linker_0, # of connection points: 2
#     Edge 7, Type (0, 0), BuildingBlock: EZIPEK_clean_linker_0, # of connection points: 2
#     Edge 8, Type (0, 0), BuildingBlock: EZIPEK_clean_linker_0, # of connection points: 2
#     Edge 9, Type (0, 0), BuildingBlock: EZIPEK_clean_linker_0, # of connection points: 2
#     Edge 10, Type (0, 0), BuildingBlock: EZIPEK_clean_linker_0, # of connection points: 2
#     Edge 11, Type (0, 0), BuildingBlock: EZIPEK_clean_linker_0, # of connection points: 2
# Relax obj value: 0.551
# Max RMSD: 0.155
# Mean RMSD: 0.118
data_MOF--net-sxc--node1-PAMTOO_clean_sbu_0--edge1-EZIPEK_clean_linker_0
_symmetry_space_group_name_H-M    P1
_symmetry_Int_Tables_number       1
_symmetry_cell_setting            triclinic
loop_
_symmetry_equiv_pos_as_xyz
'x, y, z'
_cell_length_a     13.714335
_cell_length_b     12.137728
_cell_length_c     34.601974
_cell_angle_alpha  90.795807
_cell_angle_beta   100.31852
_cell_angle_gamma 88.269716
loop_
_atom_site_label
_atom_site_type_symbol
_atom_site_fract_x
_atom_site_fract_y
_atom_site_fract_z
_atom_type_partial_charge
Dy0 Dy 1.04793 0.10793 0.95261 0.0
Dy1 Dy 0.28238 0.09902 0.96673 0.0
C2 C 0.17202 0.10725 0.04077 0.0
O3 O 1.08078 0.2942 0.94932 0.0
O4 O 0.24853 0.28776 -0.02911 0.0
O5 O 0.91271 0.0737 -0.02681 0.0
O6 O 0.90638 0.15168 0.91682 0.0
O7 O 0.23566 0.1378 0.90252 0.0
O8 O 1.08277 1.06485 0.89321 0.0
O9 O 0.24982 0.91192 0.96244 0.0
O10 O 1.08148 0.91871 0.95801 0.0
O11 O 0.41629 1.04692 0.94601 0.0
O12 O 0.42501 0.13868 0.00051 0.0
C13 C 0.16501 0.34755 0.96025 0.0
O14 O 1.09354 0.14649 0.01702 0.0
O15 O 0.24877 1.06718 0.02679 0.0
C16 C 0.79605 1.00813 0.92132 0.0
C17 C 0.72375 0.79798 0.90059 0.0
C18 C 0.69507 0.85527 0.93239 0.0
C19 C 0.7309 0.95995 0.94266 0.0
C20 C 0.81735 0.95453 0.88729 0.0
C21 C 0.7807 0.85015 0.87683 0.0
C22 C 0.85764 0.09862 0.9395 0.0
C23 C 0.15801 0.1003 0.87885 0.0
C24 C 0.16541 0.85869 0.96031 0.0
C25 C 0.53246 0.18884 0.95771 0.0
C26 C 0.61602 0.36323 0.92349 0.0
C27 C 0.60334 0.26153 0.90384 0.0
C28 C 0.56126 0.17485 0.92079 0.0
C29 C 0.55185 0.28889 -0.0218 0.0
C30 C 0.59264 0.37535 0.9611 0.0
C31 C 0.47204 0.10568 -0.02739 0.0
H32 H 0.65056 0.81588 0.95083 0.0
H33 H 0.7141 0.99944 -0.03093 0.0
H34 H 0.86825 0.98918 0.87047 0.0
H35 H 0.80317 0.80665 0.85217 0.0
H36 H 0.62271 0.25071 0.875 0.0
H37 H 0.54798 0.09842 0.90442 0.0
H38 H 0.53169 0.30241 0.00679 0.0
H39 H 0.60356 0.45312 -0.02316 0.0
Dy40 Dy 0.25045 0.11831 0.30226 0.0
Dy41 Dy 1.02271 0.12254 0.27774 0.0
C42 C 0.15415 0.11685 0.209 0.0
O43 O 0.22549 0.30673 0.29211 0.0
O44 O 1.05775 0.30976 0.28566 0.0
O45 O 0.38125 1.01164 0.31518 0.0
O46 O 0.39272 0.18732 0.32519 0.0
O47 O 1.04983 0.08638 0.34276 0.0
O48 O 0.20081 0.15993 0.35895 0.0
O49 O 1.05513 0.93629 0.26847 0.0
O50 O 0.20845 0.93416 0.30621 0.0
O51 O 0.8796 1.04928 0.27481 0.0
O52 O 0.88741 0.22087 0.26061 0.0
C53 C 0.14095 0.36564 0.28861 0.0
O54 O 0.23509 0.11609 0.23617 0.0
O55 O 1.06479 0.11895 0.21798 0.0
C56 C 0.47077 0.0696 0.37645 0.0
C57 C 0.57946 1.04333 0.45315 0.0
C58 C 0.56184 0.95155 0.42736 0.0
C59 C 0.50949 0.9653 0.38908 0.0
C60 C 0.46837 0.15334 0.40469 0.0
C61 C 0.51929 0.13899 0.44303 0.0
C62 C 0.43226 0.09009 0.33433 0.0
C63 C 1.12133 0.12337 0.3695 0.0
C64 C 1.13274 0.87792 0.28694 0.0
C65 C 0.80074 0.17507 0.3107 0.0
C66 C 0.78957 0.15953 0.39083 0.0
C67 C 0.8578 0.22911 0.37907 0.0
C68 C 0.8623 0.23803 0.33926 0.0
C69 C 0.72742 0.11236 0.32224 0.0
C70 C 0.72211 0.10483 0.36198 0.0
C71 C 0.83615 0.14629 0.27408 0.0
H72 H 0.59855 0.87253 0.43459 0.0
H73 H 0.50655 0.89674 0.36856 0.0
H74 H 0.43223 0.23247 0.39678 0.0
H75 H 0.5215 0.209 0.4628 0.0
H76 H 0.9119 0.27034 0.4006 0.0
H77 H 0.92133 0.2849 0.33139 0.0
H78 H 0.6811 1.06067 0.30116 0.0
H79 H 0.67089 1.04843 0.37046 0.0
Dy80 Dy 1.11661 0.18715 0.62341 0.0
Dy81 Dy 1.11963 1.02754 0.62159 0.0
C82 C 1.1034 0.11441 0.5382 0.0
O83 O 0.94838 0.1291 0.63066 0.0
O84 O 0.95404 0.12078 0.62738 0.0
O85 O 1.08649 0.35005 0.59863 0.0
O86 O 0.1803 0.32788 0.65551 0.0
O87 O 0.17446 1.02238 0.68724 0.0
O88 O 1.09565 0.18191 0.6867 0.0
O89 O 0.29346 0.07813 0.62088 0.0
O90 O 0.28522 0.09385 0.62221 0.0
O91 O 0.14377 0.8612 0.64366 0.0
O92 O 1.05009 0.89343 0.58731 0.0
C93 C 0.86159 0.0843 0.61017 0.0
O94 O 1.05865 0.18594 0.5578 0.0
O95 O 0.15319 1.03842 0.56002 0.0
C96 C 0.22689 0.4585 0.61535 0.0
C97 C 0.40874 0.5511 0.61239 0.0
C98 C 0.38572 0.44898 0.59435 0.0
C99 C 0.29474 0.4034 0.59552 0.0
C100 C 0.24675 0.56432 0.63088 0.0
C101 C 0.33711 0.61169 0.62875 0.0
C102 C 0.14822 0.39585 0.62695 0.0
C103 C 0.1398 0.10056 0.70755 0.0
C104 C 0.37378 0.14838 0.62764 0.0
C105 C 0.99902 0.76074 0.62568 0.0
C106 C 0.81687 0.66953 0.62924 0.0
C107 C 0.83984 0.77277 0.64638 0.0
C108 C 0.93095 0.81772 0.64492 0.0
C109 C 0.97904 0.65418 0.61092 0.0
C110 C 0.88855 0.60753 0.61338 0.0
C111 C 1.07985 0.82119 0.61475 0.0
H112 H 0.44035 0.40182 0.58145 0.0
H113 H 0.28062 0.32129 0.58371 0.0
H114 H 0.19574 0.60675 0.64694 0.0
H115 H 0.35435 0.69108 0.64257 0.0
H116 H 0.78515 0.82104 0.65886 0.0
H117 H 0.94533 0.90033 0.65621 0.0
H118 H 1.03032 0.61022 0.5954 0.0
H119 H 0.8713 0.52736 0.6002 0.0
C120 C 1.10552 0.54533 -0.01739 0.0
C121 C 0.16574 0.47906 0.96068 0.0
C122 C 0.22067 0.66031 0.93677 0.0
C123 C 0.16504 0.72692 0.96043 0.0
N124 N 1.0659 0.72345 0.0112 0.0
N125 N 0.29332 0.48221 0.9212 0.0
C126 C 1.11006 0.66615 -0.01556 0.0
C127 C 0.22707 0.5397 0.93937 0.0
N128 N 1.04372 0.49263 0.00265 0.0
N129 N 0.2634 0.71162 0.90938 0.0
H130 H 0.29576 0.39655 0.91904 0.0
H131 H 0.35077 0.51945 0.91084 0.0
H132 H 0.25969 0.79664 0.90556 0.0
H133 H 0.29408 0.66974 0.88777 0.0
H134 H 0.98753 0.53254 0.01453 0.0
H135 H 1.04419 0.40723 0.00533 0.0
H136 H 1.03548 0.68666 0.03311 0.0
H137 H 1.06716 0.80886 0.014 0.0
C138 C 0.70948 0.16104 0.488 0.0
C139 C 0.6772 1.05178 0.48163 0.0
C140 C 0.80467 1.01752 0.4433 0.0
C141 C 0.79375 0.13079 0.43264 0.0
N142 N 0.76311 0.31689 0.45556 0.0
N143 N 0.76175 0.87511 0.485 0.0
C144 C 0.75792 0.20589 0.45916 0.0
C145 C 0.7528 0.98069 0.47221 0.0
N146 N 0.67983 0.22567 0.51623 0.0
N147 N 0.85513 0.94333 0.42406 0.0
H148 H 0.71575 0.84679 0.50345 0.0
H149 H 0.81433 0.81932 0.47703 0.0
H150 H 0.89287 0.96564 0.40182 0.0
H151 H 0.89287 0.96564 0.40182 0.0
H152 H 0.63817 0.19495 0.53597 0.0
H153 H 0.63817 0.19495 0.53597 0.0
H154 H 0.73376 0.37182 0.47428 0.0
H155 H 0.79671 0.3525 0.43427 0.0
C156 C 0.6769 0.59895 0.65782 0.0
C157 C 0.71392 0.63334 0.62447 0.0
C158 C 0.54854 0.62256 0.58403 0.0
C159 C 0.51161 0.58755 0.61732 0.0
N160 N 0.54302 0.54042 0.68682 0.0
N161 N 0.68304 0.67764 0.55478 0.0
C162 C 0.57562 0.5759 0.65429 0.0
C163 C 0.65001 0.64436 0.58747 0.0
N164 N 0.73891 0.58586 0.69318 0.0
N165 N 0.48635 0.63705 0.54879 0.0
H166 H 0.75602 0.698 0.55404 0.0
H167 H 0.75602 0.698 0.55404 0.0
H168 H 0.41001 0.6263 0.54499 0.0
H169 H 0.51117 0.66251 0.52361 0.0
H170 H 0.71401 0.56106 0.71842 0.0
H171 H 0.81511 0.59766 0.69705 0.0
H172 H 0.47047 0.51804 0.68742 0.0
H173 H 0.47047 0.51804 0.68742 0.0
C174 C 0.69004 0.19022 0.63763 0.0
C175 C 0.73842 0.10002 0.61872 0.0
C176 C 0.54778 1.03173 0.60515 0.0
C177 C 0.49955 0.12203 0.62407 0.0
N178 N 0.55077 0.27936 0.66485 0.0
N179 N 0.68705 0.94338 0.57764 0.0
C180 C 0.57959 0.19786 0.64148 0.0
C181 C 0.65829 1.02428 0.60122 0.0
N182 N 0.74898 0.27661 0.65027 0.0
N183 N 0.48789 0.94704 0.59138 0.0
H184 H 0.76088 0.92945 0.57483 0.0
H185 H 0.63734 0.89693 0.5583 0.0
H186 H 0.41222 0.95024 0.59217 0.0
H187 H 0.5136 0.87102 0.5825 0.0
H188 H 0.72242 0.35274 0.65871 0.0
H189 H 0.82431 0.2747 0.64885 0.0
H190 H 0.60049 0.32569 0.68427 0.0
H191 H 0.47702 0.29307 0.66783 0.0
C192 C 0.77758 0.60108 0.91432 0.0
C193 C 0.7048 0.67889 0.896 0.0
C194 C 0.58354 0.53372 0.88272 0.0
C195 C 0.65231 0.46008 0.90549 0.0
N196 N 0.82012 0.41598 0.93651 0.0
N197 N 0.5423 0.71662 0.85783 0.0
C198 C 0.75124 0.49107 0.91856 0.0
C199 C 0.60964 0.64387 0.87819 0.0
N200 N 0.87171 0.63029 0.92992 0.0
N201 N 0.49119 0.50197 0.86586 0.0
H202 H 0.55897 0.79828 0.8533 0.0
H203 H 0.47074 0.69415 0.84505 0.0
H204 H 0.46594 0.42214 0.86737 0.0
H205 H 0.46594 0.42214 0.86737 0.0
H206 H 0.89842 0.70961 0.929 0.0
H207 H 0.89842 0.70961 0.929 0.0
H208 H 0.89411 0.4353 0.94613 0.0
H209 H 0.80346 0.33399 0.9403 0.0
C210 C 1.07294 0.56469 0.30769 0.0
C211 C 0.13867 0.49803 0.28809 0.0
C212 C 0.20681 0.68054 0.27105 0.0
C213 C 1.13456 0.74639 0.28717 0.0
N214 N 0.98983 0.74208 0.31729 0.0
N215 N 0.25399 0.50464 0.24322 0.0
C216 C 1.0648 0.68511 0.304 0.0
C217 C 0.202 0.55997 0.26792 0.0
N218 N 1.0219 0.51411 0.33251 0.0
N219 N 0.28176 0.73297 0.25838 0.0
H220 H 0.2495 0.42 0.2382 0.0
H221 H 0.29251 0.54391 0.22426 0.0
H222 H 0.28623 0.8185 0.25833 0.0
H223 H 0.34352 0.6916 0.25094 0.0
H224 H 0.98216 0.55646 0.35128 0.0
H225 H 1.02822 0.43 0.33771 0.0
H226 H 0.92881 0.70439 0.32491 0.0
H227 H 0.98503 0.82793 0.31818 0.0
C228 C 0.18766 1.01469 0.14808 0.0
C229 C 0.16362 0.11504 0.16637 0.0
C230 C 0.15975 0.21205 0.10379 0.0
C231 C 0.17384 0.11 0.08449 0.0
N232 N 0.19096 0.91178 0.08755 0.0
N233 N 1.1174 0.30799 0.16099 0.0
C234 C 0.18601 1.01074 0.10656 0.0
C235 C 0.14678 0.21329 0.14395 0.0
N236 N 0.21229 0.92276 0.17051 0.0
N237 N 0.16381 0.30851 0.08425 0.0
H238 H 1.11145 0.31347 0.1906 0.0
H239 H 1.09263 0.37913 0.14534 0.0
H240 H 0.17675 0.311 0.05549 0.0
H241 H 0.16412 0.386 0.09753 0.0
H242 H 0.24203 0.85042 0.1603 0.0
H243 H 0.20913 0.92104 0.20037 0.0
H244 H 0.18756 0.83586 0.10078 0.0
H245 H 0.19121 0.905 0.05754 0.0
C246 C 1.11956 0.22166 0.43474 0.0
C247 C 1.11354 0.12205 0.41241 0.0
C248 C 1.08537 1.02199 0.4709 0.0
C249 C 1.10119 0.11949 0.49433 0.0
N250 N 0.14997 0.30967 0.49882 0.0
N251 N 1.10971 0.92369 0.41156 0.0
C252 C 1.12204 0.21887 0.47624 0.0
C253 C 1.1018 1.02117 0.43119 0.0
N254 N 1.12014 0.32009 0.41611 0.0
N255 N 1.05007 0.93099 0.48601 0.0
H256 H 1.12233 0.91929 0.38274 0.0
H257 H 1.11273 0.84701 0.42492 0.0
H258 H 1.0298 0.93102 0.51359 0.0
H259 H 1.02987 0.85995 0.46969 0.0
H260 H 1.11118 0.39612 0.42955 0.0
H261 H 1.12104 0.32574 0.38619 0.0
H262 H 0.17838 0.3794 0.48815 0.0
H263 H 0.15332 0.31245 0.52903 0.0
C264 C 0.18506 0.19006 0.77499 0.0
C265 C 0.14849 0.09766 0.75165 0.0
C266 C 1.12983 1.00179 0.81237 0.0
C267 C 0.1547 0.09921 0.83499 0.0
N268 N 0.18545 0.29411 0.83532 0.0
N269 N 1.069 0.9221 0.74827 0.0
C270 C 0.17689 0.19554 0.8156 0.0
C271 C 1.11649 1.00512 0.77042 0.0
N272 N 0.23163 0.27102 0.75887 0.0
N273 N 1.12262 0.90442 0.83088 0.0
H274 H 1.05631 0.92147 0.7177 0.0
H275 H 1.03387 0.85913 0.7601 0.0
H276 H 1.13329 0.89731 0.86132 0.0
H277 H 1.11573 0.82871 0.81624 0.0
H278 H 0.26854 0.33463 0.77535 0.0
H279 H 0.24317 0.26779 0.72991 0.0
H280 H 0.19189 0.36884 0.82166 0.0
H281 H 0.17515 0.3033 0.86433 0.0
loop_
_geom_bond_atom_site_label_1
_geom_bond_atom_site_label_2
_geom_bond_distance
_geom_bond_site_symmetry_2
_ccdc_geom_bond_type
Dy0 O3 2.307 1_565 S
Dy0 O5 2.395 1_556 S
Dy0 O6 2.379 . S
Dy0 O8 2.339 . S
Dy0 O10 2.298 . S
Dy0 O14 2.275 1_656 S
Dy0 C22 2.738 . S
Dy1 O4 2.298 . S
Dy1 O7 2.275 1_554 S
Dy1 O9 2.307 1_545 S
Dy1 O11 2.395 1_554 S
Dy1 O12 2.379 . S
Dy1 O15 2.339 . S
Dy1 C31 2.738 . S
C2 O14 1.254 1_545 S
C2 O15 1.257 . S
O3 Dy0 2.307 1_545 S
O3 C13 1.263 1_656 S
O4 Dy1 2.298 . S
O4 C13 1.242 . S
O5 Dy0 2.395 1_554 S
O5 C22 1.255 1_554 S
O6 Dy0 2.379 . S
O6 C22 1.249 . S
O7 Dy1 2.275 1_556 S
O7 C23 1.254 . S
O8 Dy0 2.339 . S
O8 C23 1.257 1_665 S
O9 Dy1 2.307 1_565 S
O9 C24 1.266 . S
O10 Dy0 2.298 . S
O10 C24 1.236 1_656 S
O11 Dy1 2.395 1_556 S
O11 C31 1.255 1_556 S
O12 Dy1 2.379 . S
O12 C31 1.249 . S
C13 O3 1.263 1_454 S
C13 O4 1.242 . S
O14 Dy0 2.275 1_454 S
O14 C2 1.254 1_565 S
O15 Dy1 2.339 . S
O15 C2 1.257 . S
C16 C19 1.344 1_556 S
C16 C20 1.328 . S
C16 C22 1.516 . S
C17 C18 1.304 1_556 S
C17 C21 1.323 . S
C18 C17 1.304 1_554 S
C18 C19 1.371 . S
C18 H32 0.930 . S
C19 C16 1.344 1_554 S
C19 C18 1.371 . S
C19 H33 0.931 . S
C20 C16 1.328 . S
C20 C21 1.433 . S
C20 H34 0.931 . S
C21 C17 1.323 . S
C21 C20 1.433 . S
C21 H35 0.933 . S
C22 Dy0 2.738 . S
C22 O5 1.255 1_556 S
C22 O6 1.249 . S
C22 C16 1.516 . S
C23 O7 1.254 . S
C23 O8 1.257 1_445 S
C24 O9 1.266 . S
C24 O10 1.236 1_454 S
C25 C28 1.344 1_554 S
C25 C29 1.328 . S
C25 C31 1.516 . S
C26 C27 1.304 1_554 S
C26 C30 1.323 . S
C27 C26 1.304 1_556 S
C27 C28 1.371 . S
C27 H36 0.930 . S
C28 C25 1.344 1_556 S
C28 C27 1.371 . S
C28 H37 0.931 . S
C29 C25 1.328 . S
C29 C30 1.433 . S
C29 H38 0.931 . S
C30 C26 1.323 . S
C30 C29 1.433 . S
C30 H39 0.933 . S
C31 Dy1 2.738 . S
C31 O11 1.255 1_554 S
C31 O12 1.249 . S
C31 C25 1.516 . S
H32 C18 0.930 . S
H33 C19 0.931 . S
H34 C20 0.931 . S
H35 C21 0.933 . S
H36 C27 0.930 . S
H37 C28 0.931 . S
H38 C29 0.931 . S
H39 C30 0.933 . S
Dy40 O43 2.307 . S
Dy40 O45 2.395 . S
Dy40 O46 2.379 . S
Dy40 O48 2.339 . S
Dy40 O50 2.298 1_545 S
Dy40 O54 2.275 . S
Dy40 C62 2.738 . S
Dy41 O44 2.298 1_565 S
Dy41 O47 2.275 1_565 S
Dy41 O49 2.307 . S
Dy41 O51 2.395 1_565 S
Dy41 O52 2.379 1_565 S
Dy41 O55 2.339 . S
Dy41 C71 2.738 1_565 S
C42 O54 1.254 1_655 S
C42 O55 1.257 1_545 S
O43 Dy40 2.307 . S
O43 C53 1.266 1_455 S
O44 Dy41 2.298 1_545 S
O44 C53 1.236 . S
O45 Dy40 2.395 . S
O45 C62 1.255 . S
O46 Dy40 2.379 . S
O46 C62 1.249 . S
O47 Dy41 2.275 1_545 S
O47 C63 1.254 1_655 S
O48 Dy40 2.339 . S
O48 C63 1.257 . S
O49 Dy41 2.307 . S
O49 C64 1.266 1_655 S
O50 Dy40 2.298 1_565 S
O50 C64 1.236 . S
O51 Dy41 2.395 1_545 S
O51 C71 1.255 . S
O52 Dy41 2.379 1_545 S
O52 C71 1.249 . S
C53 O43 1.266 1_655 S
C53 O44 1.236 . S
O54 Dy40 2.275 . S
O54 C42 1.254 1_455 S
O55 Dy41 2.339 . S
O55 C42 1.257 1_565 S
C56 C59 1.344 . S
C56 C60 1.328 . S
C56 C62 1.516 1_565 S
C57 C58 1.304 . S
C57 C61 1.323 . S
C58 C57 1.304 . S
C58 C59 1.371 . S
C58 H72 0.930 . S
C59 C56 1.344 . S
C59 C58 1.371 . S
C59 H73 0.931 . S
C60 C56 1.328 . S
C60 C61 1.433 . S
C60 H74 0.931 1_565 S
C61 C57 1.323 . S
C61 C60 1.433 . S
C61 H75 0.933 . S
C62 Dy40 2.738 . S
C62 O45 1.255 . S
C62 O46 1.249 . S
C62 C56 1.516 1_545 S
C63 O47 1.254 1_455 S
C63 O48 1.257 . S
C64 O49 1.266 1_455 S
C64 O50 1.236 . S
C65 C68 1.344 . S
C65 C69 1.328 . S
C65 C71 1.516 . S
C66 C67 1.304 . S
C66 C70 1.323 . S
C67 C66 1.304 . S
C67 C68 1.371 . S
C67 H76 0.930 . S
C68 C65 1.344 . S
C68 C67 1.371 . S
C68 H77 0.931 . S
C69 C65 1.328 . S
C69 C70 1.433 . S
C69 H78 0.931 . S
C70 C66 1.323 . S
C70 C69 1.433 . S
C70 H79 0.933 . S
C71 Dy41 2.738 1_545 S
C71 O51 1.255 . S
C71 O52 1.249 . S
C71 C65 1.516 . S
H72 C58 0.930 . S
H73 C59 0.931 . S
H74 C60 0.931 1_545 S
H75 C61 0.933 . S
H76 C67 0.930 . S
H77 C68 0.931 . S
H78 C69 0.931 . S
H79 C70 0.933 . S
Dy80 O83 2.307 1_455 S
Dy80 O85 2.395 . S
Dy80 O86 2.379 . S
Dy80 O88 2.339 . S
Dy80 O90 2.298 . S
Dy80 O94 2.275 . S
Dy80 C102 2.738 . S
Dy81 O84 2.298 1_565 S
Dy81 O87 2.275 1_665 S
Dy81 O89 2.307 1_655 S
Dy81 O91 2.395 . S
Dy81 O92 2.379 . S
Dy81 O95 2.339 . S
Dy81 C111 2.738 . S
C82 O94 1.254 1_655 S
C82 O95 1.257 1_545 S
O83 Dy80 2.307 1_655 S
O83 C93 1.266 . S
O84 Dy81 2.298 1_545 S
O84 C93 1.236 . S
O85 Dy80 2.395 . S
O85 C102 1.255 . S
O86 Dy80 2.379 . S
O86 C102 1.249 . S
O87 Dy81 2.275 1_445 S
O87 C103 1.254 . S
O88 Dy80 2.339 . S
O88 C103 1.257 . S
O89 Dy81 2.307 1_455 S
O89 C104 1.266 1_565 S
O90 Dy80 2.298 . S
O90 C104 1.236 . S
O91 Dy81 2.395 . S
O91 C111 1.255 . S
O92 Dy81 2.379 . S
O92 C111 1.249 . S
C93 O83 1.266 . S
C93 O84 1.236 . S
O94 Dy80 2.275 . S
O94 C82 1.254 1_455 S
O95 Dy81 2.339 . S
O95 C82 1.257 1_565 S
C96 C99 1.344 . S
C96 C100 1.328 . S
C96 C102 1.516 . S
C97 C98 1.304 . S
C97 C101 1.323 . S
C98 C97 1.304 . S
C98 C99 1.371 . S
C98 H112 0.930 . S
C99 C96 1.344 . S
C99 C98 1.371 . S
C99 H113 0.931 . S
C100 C96 1.328 . S
C100 C101 1.433 . S
C100 H114 0.931 . S
C101 C97 1.323 . S
C101 C100 1.433 . S
C101 H115 0.933 . S
C102 Dy80 2.738 . S
C102 O85 1.255 . S
C102 O86 1.249 . S
C102 C96 1.516 . S
C103 O87 1.254 . S
C103 O88 1.257 . S
C104 O89 1.266 1_545 S
C104 O90 1.236 . S
C105 C108 1.344 . S
C105 C109 1.328 . S
C105 C111 1.516 . S
C106 C107 1.304 . S
C106 C110 1.323 . S
C107 C106 1.304 . S
C107 C108 1.371 . S
C107 H116 0.930 . S
C108 C105 1.344 . S
C108 C107 1.371 . S
C108 H117 0.931 . S
C109 C105 1.328 . S
C109 C110 1.433 . S
C109 H118 0.931 . S
C110 C106 1.323 . S
C110 C109 1.433 . S
C110 H119 0.933 . S
C111 Dy81 2.738 . S
C111 O91 1.255 . S
C111 O92 1.249 . S
C111 C105 1.516 . S
H112 C98 0.930 . S
H113 C99 0.931 . S
H114 C100 0.931 . S
H115 C101 0.933 . S
H116 C107 0.930 . S
H117 C108 0.931 . S
H118 C109 0.931 . S
H119 C110 0.933 . S
C120 C121 1.360 1_654 S
C120 C126 1.379 . S
C120 N128 1.356 . S
C121 C120 1.360 1_456 S
C121 C127 1.366 . S
C122 C123 1.363 1_556 S
C122 C127 1.379 . S
C122 N129 1.356 . S
C123 C122 1.363 1_554 S
C123 C126 1.363 1_455 S
N124 C126 1.356 . S
N124 H136 0.984 . S
N124 H137 0.985 . S
N125 C127 1.356 . S
N125 H130 0.984 . S
N125 H131 0.985 . S
C126 C120 1.379 . S
C126 C123 1.363 1_655 S
C126 N124 1.356 . S
C127 C121 1.366 . S
C127 C122 1.379 . S
C127 N125 1.356 . S
N128 C120 1.356 . S
N128 H134 0.984 . S
N128 H135 0.984 . S
N129 C122 1.356 . S
N129 H132 0.984 . S
N129 H133 0.985 . S
H130 N125 0.984 . S
H131 N125 0.985 . S
H132 N129 0.984 . S
H133 N129 0.985 . S
H134 N128 0.984 . S
H135 N128 0.984 . S
H136 N124 0.984 . S
H137 N124 0.985 . S
C138 C139 1.363 . S
C138 C144 1.379 1_565 S
C138 N146 1.356 . S
C139 C138 1.363 . S
C139 C145 1.363 . S
C140 C141 1.363 . S
C140 C145 1.379 1_545 S
C140 N147 1.356 . S
C141 C140 1.363 . S
C141 C144 1.363 . S
N142 C144 1.356 . S
N142 H154 0.984 . S
N142 H155 0.985 . S
N143 C145 1.356 . S
N143 H148 0.984 . S
N143 H149 0.985 . S
C144 C138 1.379 1_545 S
C144 C141 1.363 . S
C144 N142 1.356 . S
C145 C139 1.363 . S
C145 C140 1.379 1_565 S
C145 N143 1.356 . S
N146 C138 1.356 . S
N146 H152 0.984 . S
N146 H153 0.984 . S
N147 C140 1.356 . S
N147 H150 0.984 . S
N147 H151 0.985 . S
H148 N143 0.984 . S
H149 N143 0.985 . S
H150 N147 0.984 . S
H151 N147 0.985 . S
H152 N146 0.984 . S
H153 N146 0.984 . S
H154 N142 0.984 . S
H155 N142 0.985 . S
C156 C157 1.363 . S
C156 C162 1.379 . S
C156 N164 1.356 . S
C157 C156 1.363 . S
C157 C163 1.363 . S
C158 C159 1.363 . S
C158 C163 1.379 . S
C158 N165 1.356 . S
C159 C158 1.363 . S
C159 C162 1.363 . S
N160 C162 1.356 . S
N160 H172 0.984 . S
N160 H173 0.985 . S
N161 C163 1.356 . S
N161 H166 0.984 . S
N161 H167 0.985 . S
C162 C156 1.379 . S
C162 C159 1.363 . S
C162 N160 1.356 . S
C163 C157 1.363 . S
C163 C158 1.379 . S
C163 N161 1.356 . S
N164 C156 1.356 . S
N164 H170 0.984 . S
N164 H171 0.984 . S
N165 C158 1.356 . S
N165 H168 0.984 . S
N165 H169 0.985 . S
H166 N161 0.984 . S
H167 N161 0.985 . S
H168 N165 0.984 . S
H169 N165 0.985 . S
H170 N164 0.984 . S
H171 N164 0.984 . S
H172 N160 0.984 . S
H173 N160 0.985 . S
C174 C175 1.363 . S
C174 C180 1.379 . S
C174 N182 1.356 . S
C175 C174 1.363 . S
C175 C181 1.363 . S
C176 C177 1.363 . S
C176 C181 1.379 . S
C176 N183 1.358 . S
C177 C176 1.363 . S
C177 C180 1.363 . S
N178 C180 1.356 . S
N178 H190 0.984 . S
N178 H191 0.985 . S
N179 C181 1.356 . S
N179 H184 0.984 . S
N179 H185 0.985 1_545 S
C180 C174 1.379 . S
C180 C177 1.363 . S
C180 N178 1.356 . S
C181 C175 1.363 . S
C181 C176 1.379 . S
C181 N179 1.356 . S
N182 C174 1.356 . S
N182 H188 0.984 . S
N182 H189 0.984 . S
N183 C176 1.358 . S
N183 H186 0.986 . S
N183 H187 0.982 1_545 S
H184 N179 0.984 . S
H185 N179 0.985 1_565 S
H186 N183 0.986 . S
H187 N183 0.982 1_565 S
H188 N182 0.984 . S
H189 N182 0.984 . S
H190 N178 0.984 . S
H191 N178 0.985 . S
C192 C193 1.363 1_554 S
C192 C198 1.379 . S
C192 N200 1.356 . S
C193 C192 1.363 1_556 S
C193 C199 1.363 . S
C194 C195 1.363 1_556 S
C194 C199 1.379 . S
C194 N201 1.356 . S
C195 C194 1.363 1_554 S
C195 C198 1.363 . S
N196 C198 1.356 . S
N196 H208 0.984 . S
N196 H209 0.985 . S
N197 C199 1.356 . S
N197 H202 0.984 . S
N197 H203 0.985 . S
C198 C192 1.379 . S
C198 C195 1.363 . S
C198 N196 1.356 . S
C199 C193 1.363 . S
C199 C194 1.379 . S
C199 N197 1.356 . S
N200 C192 1.356 . S
N200 H206 0.984 . S
N200 H207 0.984 . S
N201 C194 1.356 . S
N201 H204 0.984 . S
N201 H205 0.985 . S
H202 N197 0.984 . S
H203 N197 0.985 . S
H204 N201 0.984 . S
H205 N201 0.985 . S
H206 N200 0.984 . S
H207 N200 0.984 . S
H208 N196 0.984 . S
H209 N196 0.985 . S
C210 C211 1.363 . S
C210 C216 1.379 . S
C210 N218 1.356 . S
C211 C210 1.363 . S
C211 C217 1.363 1_655 S
C212 C213 1.363 . S
C212 C217 1.379 . S
C212 N219 1.356 . S
C213 C212 1.363 . S
C213 C216 1.363 1_455 S
N214 C216 1.356 . S
N214 H226 0.984 . S
N214 H227 0.985 . S
N215 C217 1.356 . S
N215 H220 0.984 . S
N215 H221 0.985 . S
C216 C210 1.379 . S
C216 C213 1.363 1_655 S
C216 N214 1.356 . S
C217 C211 1.363 1_455 S
C217 C212 1.379 . S
C217 N215 1.356 . S
N218 C210 1.356 . S
N218 H224 0.984 . S
N218 H225 0.984 . S
N219 C212 1.356 . S
N219 H222 0.984 . S
N219 H223 0.985 . S
H220 N215 0.984 . S
H221 N215 0.985 . S
H222 N219 0.984 . S
H223 N219 0.985 . S
H224 N218 0.984 . S
H225 N218 0.984 . S
H226 N214 0.984 . S
H227 N214 0.985 . S
C228 C229 1.363 1_565 S
C228 C234 1.379 . S
C228 N236 1.356 . S
C229 C228 1.363 1_545 S
C229 C235 1.362 1_455 S
C230 C231 1.363 1_545 S
C230 C235 1.376 1_455 S
C230 N237 1.356 . S
C231 C230 1.363 1_565 S
C231 C234 1.363 . S
N232 C234 1.356 . S
N232 H244 0.984 . S
N232 H245 0.985 . S
N233 C235 1.360 . S
N233 H238 0.984 . S
N233 H239 0.985 . S
C234 C228 1.379 . S
C234 C231 1.363 . S
C234 N232 1.356 . S
C235 C229 1.362 1_655 S
C235 C230 1.376 1_655 S
C235 N233 1.360 . S
N236 C228 1.356 . S
N236 H242 0.984 . S
N236 H243 0.984 . S
N237 C230 1.356 . S
N237 H240 0.984 . S
N237 H241 0.985 1_455 S
H238 N233 0.984 . S
H239 N233 0.985 . S
H240 N237 0.984 . S
H241 N237 0.985 1_655 S
H242 N236 0.984 . S
H243 N236 0.984 . S
H244 N232 0.984 . S
H245 N232 0.985 . S
C246 C247 1.363 . S
C246 C252 1.379 . S
C246 N254 1.356 . S
C247 C246 1.363 . S
C247 C253 1.363 1_455 S
C248 C249 1.363 1_655 S
C248 C253 1.379 . S
C248 N255 1.356 1_545 S
C249 C248 1.363 1_455 S
C249 C252 1.363 . S
N250 C252 1.356 . S
N250 H262 0.984 . S
N250 H263 0.985 . S
N251 C253 1.356 1_565 S
N251 H256 0.984 . S
N251 H257 0.985 . S
C252 C246 1.379 . S
C252 C249 1.363 . S
C252 N250 1.356 . S
C253 C247 1.363 1_655 S
C253 C248 1.379 . S
C253 N251 1.356 1_545 S
N254 C246 1.356 . S
N254 H260 0.984 . S
N254 H261 0.984 . S
N255 C248 1.356 1_565 S
N255 H258 0.984 1_565 S
N255 H259 0.985 . S
H256 N251 0.984 . S
H257 N251 0.985 . S
H258 N255 0.984 1_545 S
H259 N255 0.985 . S
H260 N254 0.984 . S
H261 N254 0.984 . S
H262 N250 0.984 . S
H263 N250 0.985 . S
C264 C265 1.363 . S
C264 C270 1.379 . S
C264 N272 1.356 . S
C265 C264 1.363 . S
C265 C271 1.363 1_445 S
C266 C267 1.363 1_665 S
C266 C271 1.379 . S
C266 N273 1.356 . S
C267 C266 1.363 1_445 S
C267 C270 1.363 . S
N268 C270 1.356 . S
N268 H280 0.984 . S
N268 H281 0.985 . S
N269 C271 1.356 . S
N269 H274 0.984 . S
N269 H275 0.985 . S
C270 C264 1.379 . S
C270 C267 1.363 . S
C270 N268 1.356 . S
C271 C265 1.363 1_665 S
C271 C266 1.379 . S
C271 N269 1.356 . S
N272 C264 1.356 . S
N272 H278 0.984 . S
N272 H279 0.984 . S
N273 C266 1.356 . S
N273 H276 0.984 . S
N273 H277 0.985 . S
H274 N269 0.984 . S
H275 N269 0.985 . S
H276 N273 0.984 . S
H277 N273 0.985 . S
H278 N272 0.984 . S
H279 N272 0.984 . S
H280 N268 0.984 . S
H281 N268 0.985 . S
C121 C13 2.915 1_556 S
C123 C24 2.916 . S
C139 C57 0.709 . S
C141 C66 0.709 . S
C157 C106 1.163 . S
C159 C97 1.163 . S
C175 C93 4.919 . S
C177 C104 4.919 . S
C193 C17 0.540 . S
C195 C26 0.540 . S
C211 C53 2.987 . S
C213 C64 2.987 . S
C229 C42 1.508 1_455 S
C231 C2 1.501 1_565 S
C247 C63 1.484 . S
C249 C82 1.465 1_455 S
C265 C103 1.503 . S
C267 C23 1.486 . S
