# Generated by pormake.
# Topology tsi, (8)-cn, num edge types: 1
# Building blocks:
#     Node 0, Type 0, BuildingBlock: TAGTUT_clean_sbu_3, # of connection points: 8
#     Node 1, Type 0, BuildingBlock: TAGTUT_clean_sbu_3, # of connection points: 8
#     Node 2, Type 0, BuildingBlock: TAGTUT_clean_sbu_3, # of connection points: 8
#     Node 3, Type 0, BuildingBlock: TAGTUT_clean_sbu_3, # of connection points: 8
#     Edge 4, Type (0, 0), BuildingBlock: UVAHIK_clean_linker_0, # of connection points: 2
#     Edge 5, Type (0, 0), BuildingBlock: UVAHIK_clean_linker_0, # of connection points: 2
#     Edge 6, Type (0, 0), BuildingBlock: UVAHIK_clean_linker_0, # of connection points: 2
#     Edge 7, Type (0, 0), BuildingBlock: UVAHIK_clean_linker_0, # of connection points: 2
#     Edge 8, Type (0, 0), BuildingBlock: UVAHIK_clean_linker_0, # of connection points: 2
#     Edge 9, Type (0, 0), BuildingBlock: UVAHIK_clean_linker_0, # of connection points: 2
#     Edge 10, Type (0, 0), BuildingBlock: UVAHIK_clean_linker_0, # of connection points: 2
#     Edge 11, Type (0, 0), BuildingBlock: UVAHIK_clean_linker_0, # of connection points: 2
#     Edge 12, Type (0, 0), BuildingBlock: UVAHIK_clean_linker_0, # of connection points: 2
#     Edge 13, Type (0, 0), BuildingBlock: UVAHIK_clean_linker_0, # of connection points: 2
#     Edge 14, Type (0, 0), BuildingBlock: UVAHIK_clean_linker_0, # of connection points: 2
#     Edge 15, Type (0, 0), BuildingBlock: UVAHIK_clean_linker_0, # of connection points: 2
#     Edge 16, Type (0, 0), BuildingBlock: UVAHIK_clean_linker_0, # of connection points: 2
#     Edge 17, Type (0, 0), BuildingBlock: UVAHIK_clean_linker_0, # of connection points: 2
#     Edge 18, Type (0, 0), BuildingBlock: UVAHIK_clean_linker_0, # of connection points: 2
#     Edge 19, Type (0, 0), BuildingBlock: UVAHIK_clean_linker_0, # of connection points: 2
# Relax obj value: 0.143
# Max RMSD: 0.224
# Mean RMSD: 0.224
data_MOF--net-tsi--node1-TAGTUT_clean_sbu_3--edge1-UVAHIK_clean_linker_0
_symmetry_space_group_name_H-M    P1
_symmetry_Int_Tables_number       1
_symmetry_cell_setting            triclinic
loop_
_symmetry_equiv_pos_as_xyz
'x, y, z'
_cell_length_a     20.366305
_cell_length_b     20.347786
_cell_length_c     80.782555
_cell_angle_alpha  89.190703
_cell_angle_beta   90.016135
_cell_angle_gamma 89.970244
loop_
_atom_site_label
_atom_site_type_symbol
_atom_site_fract_x
_atom_site_fract_y
_atom_site_fract_z
_atom_type_partial_charge
C0 C 0.14641 0.19076 0.36327 0.0
C1 C 0.00949 0.15065 0.30897 0.0
C2 C 0.85479 0.24809 0.33568 0.0
Mg3 Mg 0.09916 0.21069 0.40069 0.0
Mg4 Mg 0.96067 0.1484 0.41559 0.0
O5 O 0.00185 0.19609 0.39871 0.0
Mg6 Mg -0.00446 0.17352 0.37482 0.0
O7 O -0.0037 0.15709 0.35049 0.0
Mg8 Mg 0.01962 0.24785 0.3424 0.0
Mg9 Mg 0.92512 0.11724 0.34001 0.0
C10 C 0.84405 0.15984 0.38939 0.0
O11 O 0.98317 0.0608 0.37851 0.0
O12 O 0.07736 0.25609 0.42606 0.0
O13 O 0.91997 0.03292 0.35664 0.0
O14 O 0.11552 0.11132 0.41443 0.0
O15 O 0.97975 0.21786 0.43503 0.0
O16 O 0.01997 0.06346 0.42061 0.0
O17 O 0.00518 0.28377 0.36908 0.0
O18 O 0.08037 0.30896 0.38801 0.0
C19 C 0.04252 0.32575 0.37606 0.0
C20 C 0.03045 0.25463 0.43668 0.0
O21 O 0.88293 0.17751 0.37758 0.0
O22 O 0.03174 0.20107 0.31658 0.0
O23 O 0.86452 0.14241 0.40387 0.0
O24 O 0.91179 0.2746 0.33581 0.0
O25 O 0.96813 0.11076 0.31561 0.0
O26 O 0.84702 0.18698 0.33876 0.0
O27 O 0.10694 0.16844 0.37432 0.0
O28 O 0.12507 0.21966 0.3501 0.0
C29 C 0.08265 0.06399 0.42096 0.0
C30 C 0.94912 0.01872 0.37035 0.0
C31 C 0.13558 0.7822 0.64119 0.0
C32 C -0.00461 0.81493 0.69554 0.0
C33 C 0.84282 0.72263 0.66735 0.0
Mg34 Mg 0.08965 0.76652 0.60351 0.0
Mg35 Mg 0.9509 0.82907 0.58853 0.0
O36 O -0.00779 0.78061 0.6053 0.0
Mg37 Mg 0.9851 0.80072 0.62932 0.0
O38 O 0.98512 0.81456 0.65377 0.0
Mg39 Mg 0.00771 0.72273 0.66123 0.0
Mg40 Mg 0.91409 0.8539 0.6644 0.0
C41 C 0.83356 0.81449 0.61447 0.0
O42 O 0.97261 0.91357 0.62631 0.0
O43 O 0.06933 0.72399 0.57779 0.0
O44 O 0.90973 0.93999 0.64834 0.0
O45 O 0.1057 0.86752 0.59059 0.0
O46 O 0.97146 0.76134 0.56876 0.0
O47 O 0.01 0.91471 0.58411 0.0
O48 O -0.00494 0.6903 0.63427 0.0
O49 O 0.07089 0.66667 0.6154 0.0
C50 C 0.03257 0.64888 0.62715 0.0
C51 C 0.0229 0.72563 0.56704 0.0
O52 O 0.87252 0.79655 0.62626 0.0
O53 O 0.01715 0.76516 0.68758 0.0
O54 O 0.85406 0.83314 0.60008 0.0
O55 O 0.89955 0.69559 0.66705 0.0
O56 O 0.9562 0.85715 0.68895 0.0
O57 O 0.83567 0.78431 0.66496 0.0
O58 O 0.09641 0.8057 0.6302 0.0
O59 O 0.11382 0.75192 0.65413 0.0
C60 C 0.07273 0.91501 0.58415 0.0
C61 C 0.93889 0.95517 0.63469 0.0
C62 C 0.54229 0.82994 0.87388 0.0
C63 C 0.52927 0.76622 0.93475 0.0
C64 C 0.58152 0.57321 0.92068 0.0
Mg65 Mg 0.52051 0.74993 0.84058 0.0
Mg66 Mg 0.42272 0.62208 0.83886 0.0
O67 O 0.49564 0.65978 0.849 0.0
Mg68 Mg 0.49489 0.67712 0.87334 0.0
O69 O 0.50127 0.70149 0.89717 0.0
Mg70 Mg 0.59845 0.71726 0.89922 0.0
Mg71 Mg 0.45973 0.65744 0.91456 0.0
C72 C 0.44723 0.52302 0.86916 0.0
O73 O 0.38158 0.67918 0.87615 0.0
O74 O 0.53157 0.70154 0.81494 0.0
O75 O 0.36383 0.64991 0.90294 0.0
O76 O 0.41396 0.78001 0.83369 0.0
O77 O 0.4645 0.61366 0.81436 0.0
O78 O 0.34707 0.69478 0.83779 0.0
O79 O 0.60658 0.6722 0.87311 0.0
O80 O 0.62526 0.7193 0.84839 0.0
C81 C 0.64622 0.69189 0.86179 0.0
C82 C 0.50722 0.65157 0.80754 0.0
O83 O 0.48245 0.56452 0.8772 0.0
O84 O 0.57651 0.76574 0.92423 0.0
O85 O 0.417 0.53797 0.85564 0.0
O86 O 0.61474 0.61928 0.91369 0.0
O87 O 0.4783 0.72975 0.9333 0.0
O88 O 0.51882 0.57328 0.92047 0.0
O89 O 0.50518 0.78714 0.86715 0.0
O90 O 0.58 0.81435 0.88595 0.0
C91 C 0.35631 0.7552 0.83419 0.0
C92 C 0.3431 0.66337 0.88825 0.0
C93 C 0.63919 0.28604 0.14048 0.0
C94 C 0.50344 0.31983 0.19506 0.0
C95 C 0.34788 0.22611 0.16774 0.0
Mg96 Mg 0.59182 0.27142 0.10291 0.0
Mg97 Mg 0.45349 0.33589 0.08849 0.0
O98 O 0.49446 0.28553 0.10494 0.0
Mg99 Mg 0.48825 0.30501 0.12904 0.0
O100 O 0.48913 0.31839 0.1535 0.0
Mg101 Mg 0.51257 0.22669 0.16088 0.0
Mg102 Mg 0.41842 0.35736 0.16439 0.0
C103 C 0.33676 0.32068 0.11456 0.0
O104 O 0.47578 0.41781 0.12621 0.0
O105 O 0.57057 0.23049 0.07704 0.0
O106 O 0.41332 0.44362 0.14836 0.0
O107 O 0.60825 0.37278 0.0902 0.0
O108 O 0.47307 0.26988 0.0683 0.0
O109 O 0.5128 0.42156 0.08435 0.0
O110 O 0.49802 0.19441 0.1339 0.0
O111 O 0.57271 0.17125 0.11467 0.0
C112 C 0.535 0.15316 0.12653 0.0
C113 C 0.52406 0.23374 0.06633 0.0
O114 O 0.37566 0.30148 0.12623 0.0
O115 O 0.52509 0.27014 0.18705 0.0
O116 O 0.35723 0.34005 0.10023 0.0
O117 O 0.4048 0.19947 0.16729 0.0
O118 O 0.46225 0.36081 0.18876 0.0
O119 O 0.34019 0.28764 0.16523 0.0
O120 O 0.5996 0.3098 0.12963 0.0
O121 O 0.61796 0.25553 0.15342 0.0
C122 C 0.5755 0.42108 0.0841 0.0
C123 C 0.44213 0.45914 0.13469 0.0
C124 C -0.01026 0.2937 0.46412 0.0
C125 C 0.03333 0.30027 0.45072 0.0
C126 C -0.0099 0.33957 0.47683 0.0
C127 C 0.03076 0.51054 0.48492 0.0
H128 H 0.03194 0.45653 0.53115 0.0
C129 C 0.07405 0.63014 0.55287 0.0
C130 C 0.02734 0.68109 0.5528 0.0
C131 C 0.07539 0.58461 0.54015 0.0
C132 C 0.03177 0.4722 0.51828 0.0
H133 H 0.11208 0.35968 0.44025 0.0
H134 H 0.11213 0.43975 0.46237 0.0
H135 H 0.03341 0.37317 0.50964 0.0
H136 H 0.94686 0.72546 0.53902 0.0
H137 H 0.95001 0.64598 0.51659 0.0
H138 H 0.02893 0.6096 0.49358 0.0
C139 C 0.0777 0.39921 0.46299 0.0
C140 C 0.03212 0.42462 0.50602 0.0
C141 C 0.07792 0.35304 0.45041 0.0
C142 C 0.98329 0.68667 0.53945 0.0
C143 C 0.98519 0.64142 0.5266 0.0
C144 C 0.02959 0.55813 0.49719 0.0
C145 C 0.03347 0.39318 0.47623 0.0
C146 C 0.03203 0.44341 0.48924 0.0
C147 C 0.03059 0.58945 0.52701 0.0
C148 C 0.03052 0.53933 0.51397 0.0
H149 H 0.95491 0.25352 0.46473 0.0
H150 H 0.95537 0.33405 0.4869 0.0
H151 H 0.03012 0.52618 0.47204 0.0
H152 H 0.10869 0.62429 0.56296 0.0
H153 H 0.11138 0.5454 0.54062 0.0
C154 C 0.59103 0.66175 0.78516 0.0
C155 C 0.53055 0.6367 0.79068 0.0
C156 C 0.61388 0.64775 0.76934 0.0
C157 C 0.66627 0.57792 0.73932 0.0
H158 H 0.56101 0.6336 0.70165 0.0
C159 C 0.79434 0.61822 0.67866 0.0
C160 C 0.78599 0.68393 0.67347 0.0
C161 C 0.7482 0.58827 0.6891 0.0
C162 C 0.59065 0.6168 0.71201 0.0
H163 H 0.44622 0.57771 0.78389 0.0
H164 H 0.48593 0.55465 0.75587 0.0
H165 H 0.51169 0.62892 0.7293 0.0
H166 H 0.71767 0.76588 0.67293 0.0
H167 H 0.63845 0.71453 0.69132 0.0
H168 H 0.74637 0.57012 0.72254 0.0
C169 C 0.51567 0.58438 0.76398 0.0
C170 C 0.56233 0.61383 0.72779 0.0
C171 C 0.49318 0.59749 0.77998 0.0
C172 C 0.72638 0.71567 0.67699 0.0
C173 C 0.68044 0.68585 0.68748 0.0
C174 C 0.69441 0.58053 0.72361 0.0
C175 C 0.57648 0.60908 0.7586 0.0
C176 C 0.60092 0.59741 0.74166 0.0
C177 C 0.69311 0.6236 0.69456 0.0
C178 C 0.65784 0.60302 0.70988 0.0
H179 H 0.6211 0.69186 0.7931 0.0
H180 H 0.66051 0.66823 0.76539 0.0
H181 H 0.69676 0.56433 0.74982 0.0
H182 H 0.83901 0.5917 0.67584 0.0
H183 H 0.75839 0.53947 0.69399 0.0
C184 C 0.6705 0.55806 0.94157 0.0
C185 C 0.61385 0.53324 0.93384 0.0
C186 C 0.68441 0.54168 0.95807 0.0
C187 C 0.703 0.50077 0.99446 0.0
H188 H 0.53638 0.50203 0.01763 0.0
C189 C 0.66672 0.44204 0.06415 0.0
C190 C 0.60833 0.46402 0.07162 0.0
C191 C 0.68191 0.46076 0.04788 0.0
C192 C 0.58352 0.5029 0.01143 0.0
H193 H 0.53528 0.462 0.93625 0.0
H194 H 0.56148 0.4309 0.96472 0.0
H195 H 0.53763 0.49913 0.98777 0.0
H196 H 0.52806 0.53346 0.0692 0.0
H197 H 0.55636 0.5686 0.04116 0.0
H198 H 0.74854 0.50605 0.01838 0.0
C199 C 0.59291 0.46602 0.95838 0.0
C200 C 0.58425 0.49946 0.99422 0.0
C201 C 0.57841 0.48309 0.94196 0.0
C202 C 0.57244 0.51429 0.06366 0.0
C203 C 0.58819 0.53372 0.04747 0.0
C204 C 0.70226 0.50428 0.0118 0.0
C205 C 0.64271 0.49915 0.96701 0.0
C206 C 0.64386 0.49793 0.98546 0.0
C207 C 0.63978 0.50292 0.03894 0.0
C208 C 0.64237 0.5055 0.0205 0.0
H209 H 0.6995 0.59633 0.93565 0.0
H210 H 0.72372 0.56755 0.96422 0.0
H211 H 0.74981 0.49994 0.98811 0.0
H212 H 0.69633 0.40402 0.06999 0.0
H213 H 0.72264 0.43673 0.04183 0.0
C214 C 0.73821 0.25457 0.32604 0.0
C215 C 0.79852 0.28607 0.32892 0.0
C216 C 0.69238 0.28247 0.31518 0.0
C217 C 0.60159 0.34925 0.29027 0.0
H218 H 0.70436 0.39117 0.25111 0.0
C219 C 0.49557 0.37228 0.223 0.0
C220 C 0.52886 0.33107 0.21193 0.0
C221 C 0.52074 0.38298 0.23887 0.0
C222 C 0.67487 0.38042 0.26198 0.0
H223 H 0.85324 0.37635 0.32481 0.0
H224 H 0.77287 0.42521 0.30599 0.0
H225 H 0.75766 0.38683 0.27798 0.0
H226 H 0.61471 0.26922 0.20882 0.0
H227 H 0.65877 0.28868 0.2363 0.0
H228 H 0.51952 0.33902 0.27381 0.0
C229 C 0.76198 0.37801 0.31172 0.0
C230 C 0.70517 0.37868 0.27744 0.0
C231 C 0.80797 0.35003 0.32255 0.0
C232 C 0.58773 0.30106 0.21703 0.0
C233 C 0.61328 0.31259 0.23273 0.0
C234 C 0.57108 0.35149 0.27473 0.0
C235 C 0.70587 0.34253 0.30706 0.0
C236 C 0.66954 0.36046 0.29169 0.0
C237 C 0.58021 0.35372 0.24377 0.0
C238 C 0.60823 0.36437 0.26041 0.0
H239 H 0.72871 0.20574 0.33099 0.0
H240 H 0.64956 0.25381 0.31195 0.0
H241 H 0.57275 0.33557 0.30104 0.0
H242 H 0.44992 0.39588 0.21944 0.0
H243 H 0.49435 0.41473 0.24722 0.0
C244 C 0.3013 0.12248 0.17999 0.0
C245 C 0.29176 0.18737 0.17426 0.0
C246 C 0.25595 0.0932 0.19077 0.0
C247 C 0.09788 0.12069 0.21343 0.0
H248 H 0.20437 0.07355 0.2516 0.0
C249 C -0.00141 0.09724 0.28123 0.0
C250 C 0.03385 0.13763 0.29209 0.0
C251 C 0.02215 0.08575 0.26524 0.0
C252 C 0.17382 0.08569 0.24101 0.0
H253 H 0.22217 0.26819 0.1732 0.0
H254 H 0.14421 0.21791 0.19216 0.0
H255 H 0.25467 0.07955 0.2244 0.0
H256 H 0.12175 0.19676 0.29479 0.0
H257 H 0.16305 0.1759 0.26711 0.0
H258 H 0.01793 0.13083 0.23052 0.0
C259 C 0.1866 0.18949 0.18848 0.0
C260 C 0.20238 0.08842 0.22535 0.0
C261 C 0.23178 0.21866 0.17766 0.0
C262 C 0.09328 0.16563 0.28673 0.0
C263 C 0.11723 0.15327 0.27092 0.0
C264 C 0.06913 0.1175 0.22917 0.0
C265 C 0.20043 0.12832 0.19602 0.0
C266 C 0.16549 0.10872 0.21146 0.0
C267 C 0.08196 0.11332 0.26002 0.0
C268 C 0.10771 0.10283 0.24315 0.0
H269 H 0.34629 0.09629 0.1773 0.0
H270 H 0.26703 0.04519 0.19602 0.0
H271 H 0.06805 0.13589 0.20295 0.0
H272 H 0.95248 0.07519 0.28501 0.0
H273 H -0.00593 0.05494 0.25701 0.0
C274 C -0.00055 0.87973 0.72185 0.0
C275 C 0.01566 0.82282 0.71301 0.0
C276 C 0.01906 0.88641 0.73836 0.0
C277 C 0.07558 0.78835 0.77452 0.0
H278 H 0.1702 0.94516 0.7871 0.0
C279 C 0.31097 0.84212 0.81538 0.0
C280 C 0.30028 0.7935 0.82759 0.0
C281 C 0.25916 0.86395 0.80539 0.0
C282 C 0.14345 0.90122 0.78385 0.0
H283 H 0.06479 0.7282 0.71469 0.0
H284 H 0.09901 0.74005 0.74323 0.0
H285 H 0.11207 0.94302 0.76065 0.0
H286 H 0.22585 0.73739 0.84065 0.0
H287 H 0.13486 0.77756 0.82377 0.0
H288 H 0.11061 0.74426 0.79684 0.0
C289 C 0.07049 0.7792 0.73752 0.0
C290 C 0.10967 0.90024 0.76876 0.0
C291 C 0.05139 0.77271 0.72107 0.0
C292 C 0.23566 0.77378 0.83109 0.0
C293 C 0.18361 0.79658 0.82133 0.0
C294 C 0.10946 0.78914 0.7895 0.0
C295 C 0.05456 0.836 0.74637 0.0
C296 C 0.07802 0.84265 0.76364 0.0
C297 C 0.19551 0.83831 0.80761 0.0
C298 C 0.14633 0.84454 0.79403 0.0
H299 H 0.97196 0.9193 0.71601 0.0
H300 H 0.00616 0.93072 0.74489 0.0
H301 H 0.05038 0.74374 0.77104 0.0
H302 H 0.36024 0.85856 0.81243 0.0
H303 H 0.27056 0.89607 0.79499 0.0
C304 C 0.57858 0.86465 0.94809 0.0
C305 C 0.53228 0.81345 0.94845 0.0
C306 C 0.57901 0.91191 0.96041 0.0
C307 C 0.4736 0.98368 0.99271 0.0
H308 H 0.63872 0.05251 0.00889 0.0
C309 C 0.48272 0.19762 0.03865 0.0
C310 C 0.5283 0.19144 0.05164 0.0
C311 C 0.48487 0.15477 0.02529 0.0
C312 C 0.59217 0.03353 0.00458 0.0
H313 H 0.45125 0.77067 0.9623 0.0
H314 H 0.45321 0.8522 0.98409 0.0
H315 H 0.63929 0.96796 0.98792 0.0
H316 H 0.61247 0.13593 0.06067 0.0
H317 H 0.61519 0.06073 0.03767 0.0
H318 H 0.42656 0.04735 0.00987 0.0
C319 C 0.4881 0.85675 0.97403 0.0
C320 C 0.59249 0.98558 0.99241 0.0
C321 C 0.48729 0.80974 0.96161 0.0
C322 C 0.57676 0.14238 0.05084 0.0
C323 C 0.57859 0.09936 0.03758 0.0
C324 C 0.4733 0.03129 0.00497 0.0
C325 C 0.53355 0.90875 0.97348 0.0
C326 C 0.53321 0.9599 0.98638 0.0
C327 C 0.53237 0.10466 0.02472 0.0
C328 C 0.5326 0.05652 0.01111 0.0
H329 H 0.61362 0.86931 0.93805 0.0
H330 H 0.61407 0.95179 0.95948 0.0
H331 H 0.42704 0.9657 0.98815 0.0
H332 H 0.44504 0.23519 0.03884 0.0
H333 H 0.4492 0.16081 0.01544 0.0
C334 C 0.07943 0.97286 0.44196 0.0
C335 C 0.11505 0.02311 0.43393 0.0
C336 C 0.09374 0.95543 0.45837 0.0
C337 C 0.08425 -0.01084 0.49416 0.0
H338 H 0.24777 -0.00277 0.51861 0.0
C339 C 0.07005 0.00735 0.56348 0.0
C340 C 0.1059 0.95766 0.57168 0.0
C341 C 0.08632 0.02607 0.54727 0.0
C342 C 0.2017 -0.00498 0.51195 0.0
H343 H 0.20123 0.08545 0.43582 0.0
H344 H 0.22503 0.0562 0.46437 0.0
H345 H 0.25 -0.01034 0.48839 0.0
H346 H 0.19431 0.89811 0.57046 0.0
H347 H 0.2215 0.9295 0.54227 0.0
H348 H 0.03565 -0.00729 0.51745 0.0
C349 C 0.18564 0.03058 0.45818 0.0
C350 C 0.20298 -0.00933 0.49463 0.0
C351 C 0.17194 0.04728 0.44168 0.0
C352 C 0.16473 0.93568 0.56443 0.0
C353 C 0.18042 0.95364 0.54814 0.0
C354 C 0.08298 -0.00662 0.51135 0.0
C355 C 0.14354 0.9883 0.46707 0.0
C356 C 0.14413 0.98739 0.48552 0.0
C357 C 0.13837 -0.00493 0.53896 0.0
C358 C 0.14153 -0.0034 0.52052 0.0
H359 H 0.03619 0.95212 0.43622 0.0
H360 H 0.06207 0.9204 0.46466 0.0
H361 H 0.03782 0.98852 0.48763 0.0
H362 H 0.02534 0.02653 0.56884 0.0
H363 H 0.05456 0.06047 0.54078 0.0
C364 C 0.00254 0.92208 0.3844 0.0
C365 C 0.94925 0.94886 0.37556 0.0
C366 C 0.0102 0.85386 0.38572 0.0
C367 C 0.9273 0.69379 0.37959 0.0
H368 H 0.10036 0.63638 0.36592 0.0
C369 C 0.97971 0.42246 0.36466 0.0
C370 C 0.03667 0.3966 0.3721 0.0
C371 C 0.96917 0.49049 0.36415 0.0
C372 C 0.05191 0.65151 0.36988 0.0
H373 H 0.85884 0.92569 0.36268 0.0
H374 H 0.87197 0.80723 0.3651 0.0
H375 H 0.07938 0.75294 0.3699 0.0
H376 H 0.12942 0.42172 0.38364 0.0
H377 H 0.11102 0.53933 0.38282 0.0
H378 H 0.89991 0.59225 0.37964 0.0
C379 C 0.90817 0.8385 0.37086 0.0
C380 C 0.04004 0.71825 0.37227 0.0
C381 C 0.90082 0.90644 0.36941 0.0
C382 C 0.08477 0.44006 0.37793 0.0
C383 C 0.07436 0.50769 0.37738 0.0
C384 C 0.93927 0.6269 0.37728 0.0
C385 C 0.96428 0.81151 0.37841 0.0
C386 C 0.97763 0.74013 0.37714 0.0
C387 C 0.01563 0.53366 0.37095 0.0
C388 C 0.00175 0.605 0.3724 0.0
H389 H 0.04056 0.95354 0.3893 0.0
H390 H 0.05338 0.83425 0.39187 0.0
H391 H 0.87877 0.70924 0.3834 0.0
H392 H 0.94176 0.3902 0.36006 0.0
H393 H 0.92392 0.50917 0.35884 0.0
C394 C 0.25101 0.75515 0.64952 0.0
C395 C 0.20729 0.7867 0.63852 0.0
C396 C 0.31868 0.75888 0.64696 0.0
C397 C 0.44604 0.85786 0.62622 0.0
H398 H 0.55146 0.70005 0.63125 0.0
C399 C 0.71883 0.84832 0.6071 0.0
C400 C 0.76195 0.81282 0.61746 0.0
C401 C 0.65113 0.84596 0.60979 0.0
C402 C 0.52288 0.74475 0.63 0.0
H403 H 0.20057 0.84732 0.61625 0.0
H404 H 0.31881 0.85357 0.61178 0.0
H405 H 0.43326 0.69451 0.63571 0.0
H406 H 0.76758 0.74554 0.63841 0.0
H407 H 0.64983 0.74304 0.6435 0.0
H408 H 0.53565 0.90826 0.62062 0.0
C409 C 0.30058 0.82632 0.62243 0.0
C410 C 0.45516 0.74152 0.63254 0.0
C411 C 0.23283 0.82237 0.62495 0.0
C412 C 0.73586 0.77469 0.6305 0.0
C413 C 0.66823 0.77245 0.63323 0.0
C414 C 0.51383 0.86118 0.62375 0.0
C415 C 0.34417 0.79445 0.63339 0.0
C416 C 0.41604 0.79802 0.63066 0.0
C417 C 0.62504 0.80795 0.62288 0.0
C418 C 0.55303 0.80463 0.62561 0.0
H419 H 0.23307 0.72736 0.66012 0.0
H420 H 0.35112 0.73447 0.65571 0.0
H421 H 0.41721 0.90239 0.62491 0.0
H422 H 0.73733 0.87803 0.59689 0.0
H423 H 0.61917 0.87311 0.60144 0.0
C424 C 0.39865 0.4108 0.86807 0.0
C425 C 0.44769 0.45282 0.8741 0.0
C426 C 0.40625 0.34275 0.86909 0.0
C427 C 0.53837 0.22229 0.86915 0.0
H428 H 0.39936 0.09574 0.87725 0.0
C429 C 0.58472 0.9444 0.87489 0.0
C430 C 0.53617 0.90046 0.86954 0.0
C431 C 0.57409 0.012 0.87417 0.0
C432 C 0.43838 0.13054 0.87467 0.0
H433 H 0.54056 0.45648 0.88718 0.0
H434 H 0.55378 0.33708 0.88903 0.0
H435 H 0.37825 0.21259 0.88124 0.0
H436 H 0.44017 0.89312 0.85811 0.0
H437 H 0.42189 0.01202 0.85657 0.0
H438 H 0.59835 0.14069 0.86239 0.0
C439 C 0.5099 0.35709 0.88329 0.0
C440 C 0.42643 0.19737 0.87711 0.0
C441 C 0.502 0.42538 0.88239 0.0
C442 C 0.47849 0.92577 0.86234 0.0
C443 C 0.46772 -0.00623 0.86165 0.0
C444 C 0.55022 0.1556 0.86663 0.0
C445 C 0.46323 0.31524 0.87609 0.0
C446 C 0.47642 0.24391 0.87445 0.0
C447 C 0.51465 0.03748 0.86803 0.0
C448 C 0.5005 0.10885 0.86944 0.0
H449 H 0.35594 0.43053 0.86173 0.0
H450 H 0.36944 0.3119 0.86344 0.0
H451 H 0.57742 0.25713 0.86661 0.0
H452 H 0.6299 0.92647 0.88042 0.0
H453 H 0.61116 0.04402 0.87928 0.0
C454 C 0.22257 0.35562 0.10716 0.0
C455 C 0.26522 0.31984 0.11759 0.0
C456 C 0.15487 0.35381 0.10977 0.0
C457 C 0.02983 0.31698 0.14139 0.0
H458 H 0.91483 0.29546 0.10356 0.0
C459 C 0.75471 0.25938 0.14865 0.0
C460 C 0.71076 0.29106 0.13775 0.0
C461 C 0.82232 0.26421 0.14619 0.0
C462 C 0.9462 0.30237 0.11422 0.0
H463 H 0.27005 0.25289 0.13865 0.0
H464 H 0.15188 0.25027 0.14335 0.0
H465 H 0.03319 0.30197 0.09939 0.0
H466 H 0.70347 0.35301 0.11573 0.0
H467 H 0.82161 0.36209 0.11155 0.0
H468 H 0.94292 0.31756 0.15623 0.0
C469 C 0.17099 0.28059 0.13333 0.0
C470 C 0.01396 0.30602 0.11184 0.0
C471 C 0.23869 0.28227 0.13068 0.0
C472 C 0.73595 0.32771 0.12431 0.0
C473 C 0.80366 0.33269 0.12187 0.0
C474 C 0.96204 0.31357 0.14377 0.0
C475 C 0.12839 0.31615 0.12285 0.0
C476 C 0.05646 0.31317 0.12539 0.0
C477 C 0.84757 0.30101 0.1328 0.0
C478 C 0.91949 0.30597 0.13022 0.0
H479 H 0.24144 0.38529 0.09699 0.0
H480 H 0.12326 0.38232 0.10162 0.0
H481 H 0.06137 0.32338 0.15204 0.0
H482 H 0.737 0.23048 0.15909 0.0
H483 H 0.85479 0.23835 0.15467 0.0
C484 C -0.00923 0.05182 0.62029 0.0
C485 C 0.93905 0.02532 0.62975 0.0
C486 C -0.00161 0.11998 0.61882 0.0
C487 C 0.91652 0.28012 0.62549 0.0
H488 H 0.092 0.33862 0.63669 0.0
C489 C 0.97142 0.55208 0.63904 0.0
C490 C 0.02688 0.57784 0.6309 0.0
C491 C 0.96099 0.4841 0.63974 0.0
C492 C 0.04286 0.32316 0.63341 0.0
H493 H 0.8513 0.04904 0.6437 0.0
H494 H 0.86445 0.16739 0.64105 0.0
H495 H 0.07052 0.22176 0.63345 0.0
H496 H 0.11709 0.55249 0.61816 0.0
H497 H 0.09876 0.43491 0.61929 0.0
H498 H 0.88891 0.38162 0.62539 0.0
C499 C 0.89942 0.1359 0.6349 0.0
C500 C 0.03067 0.25625 0.63145 0.0
C501 C 0.89211 0.06801 0.63648 0.0
C502 C 0.0736 0.53429 0.62444 0.0
C503 C 0.06328 0.46668 0.62516 0.0
C504 C 0.92878 0.34716 0.62738 0.0
C505 C 0.95398 0.16258 0.62661 0.0
C506 C 0.9674 0.23401 0.62747 0.0
C507 C 0.00604 0.44083 0.63241 0.0
C508 C -0.00788 0.36942 0.63136 0.0
H509 H 0.0276 0.02018 0.61491 0.0
H510 H 0.04032 0.13935 0.61211 0.0
H511 H 0.86732 0.26437 0.62235 0.0
H512 H 0.93456 0.58438 0.64416 0.0
H513 H 0.91695 0.46551 0.64567 0.0
C514 C 0.76066 0.68831 0.85074 0.0
C515 C 0.71769 0.68489 0.86432 0.0
C516 C 0.82827 0.68177 0.85304 0.0
C517 C 0.9531 0.62624 0.88392 0.0
H518 H 0.0702 0.73088 0.85637 0.0
C519 C 0.22749 0.66963 0.89847 0.0
C520 C 0.27161 0.66083 0.88531 0.0
C521 C 0.15985 0.66842 0.8957 0.0
C522 C 0.03797 0.70103 0.86405 0.0
H523 H 0.71194 0.67211 0.89097 0.0
H524 H 0.82987 0.66362 0.8951 0.0
H525 H 0.952 0.73847 0.8521 0.0
H526 H 0.27936 0.63902 0.85926 0.0
H527 H 0.16097 0.6395 0.85424 0.0
H528 H 0.03968 0.59102 0.89626 0.0
C529 C 0.81145 0.66935 0.88259 0.0
C530 C 0.97026 0.70504 0.86157 0.0
C531 C 0.74371 0.67476 0.88025 0.0
C532 C 0.24668 0.64894 0.86943 0.0
C533 C 0.17904 0.64842 0.86662 0.0
C534 C 0.02078 0.62312 0.88657 0.0
C535 C 0.85465 0.67276 0.869 0.0
C536 C 0.92687 0.66773 0.87149 0.0
C537 C 0.13514 0.65866 0.87971 0.0
C538 C 0.0637 0.66052 0.87666 0.0
H539 H 0.74202 0.69528 0.83828 0.0
H540 H 0.85974 0.68323 0.84224 0.0
H541 H 0.92145 0.59574 0.89157 0.0
H542 H 0.2452 0.67853 0.91089 0.0
H543 H 0.12686 0.6766 0.90599 0.0
C544 C 0.39564 0.57203 0.13681 0.0
C545 C 0.44189 0.52934 0.12979 0.0
C546 C 0.40269 0.63992 0.13514 0.0
C547 C 0.53331 0.76048 0.13067 0.0
H548 H 0.39072 0.8855 0.12551 0.0
C549 C 0.57525 0.03851 0.12332 0.0
C550 C 0.52935 0.08201 0.13016 0.0
C551 C 0.56491 0.97091 0.12404 0.0
C552 C 0.43086 0.85114 0.12724 0.0
H553 H 0.52885 0.52423 0.11436 0.0
H554 H 0.54108 0.64337 0.11139 0.0
H555 H 0.369 0.76816 0.12273 0.0
H556 H 0.43849 0.08844 0.14404 0.0
H557 H 0.42089 0.96956 0.14557 0.0
H558 H 0.59507 0.84303 0.1354 0.0
C559 C 0.49992 0.62399 0.1184 0.0
C560 C 0.41851 0.78405 0.12549 0.0
C561 C 0.49258 0.55585 0.11998 0.0
C562 C 0.47471 0.05619 0.13864 0.0
C563 C 0.46428 0.98821 0.13935 0.0
C564 C 0.5456 0.82744 0.13249 0.0
C565 C 0.45629 0.6666 0.12646 0.0
C566 C 0.46966 0.73807 0.12716 0.0
C567 C 0.50849 0.94501 0.13168 0.0
C568 C 0.49458 0.87357 0.13075 0.0
H569 H 0.35561 0.55308 0.14431 0.0
H570 H 0.36834 0.67142 0.1415 0.0
H571 H 0.57343 0.7261 0.13241 0.0
H572 H 0.6181 0.05675 0.11677 0.0
H573 H 0.59972 0.93919 0.11792 0.0
C574 C 0.74584 0.19662 0.37307 0.0
C575 C 0.77253 0.16019 0.38635 0.0
C576 C 0.67813 0.19785 0.37041 0.0
C577 C 0.52127 0.1739 0.392 0.0
H578 H 0.45025 0.15788 0.3477 0.0
C579 C 0.24329 0.1508 0.37968 0.0
C580 C 0.21801 0.186 0.36601 0.0
C581 C 0.31101 0.14607 0.38214 0.0
C582 C 0.46935 0.16313 0.36012 0.0
H583 H 0.74906 0.09635 0.40728 0.0
H584 H 0.63085 0.09857 0.40263 0.0
H585 H 0.56872 0.15275 0.35193 0.0
H586 H 0.24408 0.24426 0.34426 0.0
H587 H 0.3619 0.2369 0.34872 0.0
H588 H 0.42212 0.18509 0.4002 0.0
C589 C 0.66234 0.1265 0.39434 0.0
C590 C 0.53715 0.16011 0.36254 0.0
C591 C 0.73004 0.12512 0.39696 0.0
C592 C 0.26187 0.21649 0.35488 0.0
C593 C 0.32949 0.21194 0.35737 0.0
C594 C 0.45349 0.17719 0.38958 0.0
C595 C 0.6357 0.16299 0.38106 0.0
C596 C 0.56377 0.16553 0.3785 0.0
C597 C 0.35485 0.17659 0.37101 0.0
C598 C 0.42679 0.17198 0.37361 0.0
H599 H 0.77707 0.2255 0.36497 0.0
H600 H 0.65887 0.2273 0.36024 0.0
H601 H 0.54049 0.17918 0.40441 0.0
H602 H 0.21087 0.12644 0.38843 0.0
H603 H 0.32903 0.11779 0.39265 0.0
loop_
_geom_bond_atom_site_label_1
_geom_bond_atom_site_label_2
_geom_bond_distance
_geom_bond_site_symmetry_2
_ccdc_geom_bond_type
C0 O27 1.312 . S
C0 O28 1.208 . S
C1 O22 1.331 . S
C1 O25 1.244 . S
C2 O24 1.264 . S
C2 O26 1.273 . S
Mg3 O5 1.936 1_455 S
Mg3 O12 2.081 1_455 S
Mg3 O14 2.023 . S
Mg3 O18 2.031 . S
Mg3 O27 2.291 . S
Mg4 O5 1.963 . S
Mg4 O15 1.942 . S
Mg4 O16 1.955 . S
Mg4 O23 1.986 . S
O5 Mg3 1.936 1_655 S
O5 Mg4 1.963 . S
O5 Mg6 1.915 . S
Mg6 O5 1.915 . S
Mg6 O7 1.915 1_655 S
Mg6 O11 2.013 . S
Mg6 O17 2.114 1_655 S
Mg6 O21 2.013 . S
Mg6 O27 2.114 1_655 S
O7 Mg6 1.915 1_455 S
O7 Mg8 1.936 . S
O7 Mg9 1.963 1_455 S
Mg8 O7 1.936 . S
Mg8 O17 2.291 . S
Mg8 O22 2.081 . S
Mg8 O24 2.023 1_455 S
Mg8 O28 2.031 . S
Mg9 O7 1.963 1_655 S
Mg9 O13 1.986 . S
Mg9 O25 1.942 1_655 S
Mg9 O26 1.955 . S
C10 O21 1.191 . S
C10 O23 1.307 . S
O11 Mg6 2.013 . S
O11 C30 1.191 . S
O12 Mg3 2.081 1_655 S
O12 C20 1.331 . S
O13 Mg9 1.986 . S
O13 C30 1.307 . S
O14 Mg3 2.023 . S
O14 C29 1.264 . S
O15 Mg4 1.942 . S
O15 C20 1.244 . S
O16 Mg4 1.955 . S
O16 C29 1.273 1_655 S
O17 Mg6 2.114 1_455 S
O17 Mg8 2.291 . S
O17 C19 1.312 . S
O18 Mg3 2.031 . S
O18 C19 1.208 . S
C19 O17 1.312 . S
C19 O18 1.208 . S
C20 O12 1.331 . S
C20 O15 1.244 . S
O21 Mg6 2.013 . S
O21 C10 1.191 . S
O22 C1 1.331 . S
O22 Mg8 2.081 . S
O23 Mg4 1.986 . S
O23 C10 1.307 . S
O24 C2 1.264 . S
O24 Mg8 2.023 1_655 S
O25 C1 1.244 . S
O25 Mg9 1.942 1_455 S
O26 C2 1.273 . S
O26 Mg9 1.955 . S
O27 C0 1.312 . S
O27 Mg3 2.291 . S
O27 Mg6 2.114 1_455 S
O28 C0 1.208 . S
O28 Mg8 2.031 . S
C29 O14 1.264 . S
C29 O16 1.273 1_455 S
C30 O11 1.191 . S
C30 O13 1.307 . S
C31 O58 1.312 . S
C31 O59 1.208 . S
C32 O53 1.331 . S
C32 O56 1.244 . S
C33 O55 1.264 . S
C33 O57 1.273 . S
Mg34 O36 1.936 1_455 S
Mg34 O43 2.081 1_455 S
Mg34 O45 2.023 . S
Mg34 O49 2.031 . S
Mg34 O58 2.291 . S
Mg35 O36 1.963 . S
Mg35 O46 1.942 . S
Mg35 O47 1.955 . S
Mg35 O54 1.986 . S
O36 Mg34 1.936 1_655 S
O36 Mg35 1.963 . S
O36 Mg37 1.915 . S
Mg37 O36 1.915 . S
Mg37 O38 1.915 1_655 S
Mg37 O42 2.013 . S
Mg37 O48 2.114 1_655 S
Mg37 O52 2.013 . S
Mg37 O58 2.114 1_655 S
O38 Mg37 1.915 1_455 S
O38 Mg39 1.936 . S
O38 Mg40 1.963 1_455 S
Mg39 O38 1.936 . S
Mg39 O48 2.291 . S
Mg39 O53 2.081 . S
Mg39 O55 2.023 1_455 S
Mg39 O59 2.031 . S
Mg40 O38 1.963 1_655 S
Mg40 O44 1.986 . S
Mg40 O56 1.942 1_655 S
Mg40 O57 1.955 . S
C41 O52 1.191 . S
C41 O54 1.307 . S
O42 Mg37 2.013 . S
O42 C61 1.191 . S
O43 Mg34 2.081 1_655 S
O43 C51 1.331 . S
O44 Mg40 1.986 . S
O44 C61 1.307 . S
O45 Mg34 2.023 . S
O45 C60 1.264 . S
O46 Mg35 1.942 . S
O46 C51 1.244 . S
O47 Mg35 1.955 . S
O47 C60 1.273 1_655 S
O48 Mg37 2.114 1_455 S
O48 Mg39 2.291 . S
O48 C50 1.312 . S
O49 Mg34 2.031 . S
O49 C50 1.208 . S
C50 O48 1.312 . S
C50 O49 1.208 . S
C51 O43 1.331 . S
C51 O46 1.244 . S
O52 Mg37 2.013 . S
O52 C41 1.191 . S
O53 C32 1.331 . S
O53 Mg39 2.081 . S
O54 Mg35 1.986 . S
O54 C41 1.307 . S
O55 C33 1.264 . S
O55 Mg39 2.023 1_655 S
O56 C32 1.244 . S
O56 Mg40 1.942 1_455 S
O57 C33 1.273 . S
O57 Mg40 1.955 . S
O58 C31 1.312 . S
O58 Mg34 2.291 . S
O58 Mg37 2.114 1_455 S
O59 C31 1.208 . S
O59 Mg39 2.031 . S
C60 O45 1.264 . S
C60 O47 1.273 1_455 S
C61 O42 1.191 . S
C61 O44 1.307 . S
C62 O89 1.312 . S
C62 O90 1.208 . S
C63 O84 1.331 . S
C63 O87 1.244 . S
C64 O86 1.264 . S
C64 O88 1.273 . S
Mg65 O67 1.936 . S
Mg65 O74 2.081 . S
Mg65 O76 2.023 . S
Mg65 O80 2.031 . S
Mg65 O89 2.291 . S
Mg66 O67 1.963 . S
Mg66 O77 1.942 . S
Mg66 O78 1.955 . S
Mg66 O85 1.986 . S
O67 Mg65 1.936 . S
O67 Mg66 1.963 . S
O67 Mg68 1.915 . S
Mg68 O67 1.915 . S
Mg68 O69 1.915 . S
Mg68 O73 2.013 . S
Mg68 O79 2.114 . S
Mg68 O83 2.013 . S
Mg68 O89 2.114 . S
O69 Mg68 1.915 . S
O69 Mg70 1.936 . S
O69 Mg71 1.963 . S
Mg70 O69 1.936 . S
Mg70 O79 2.291 . S
Mg70 O84 2.081 . S
Mg70 O86 2.023 . S
Mg70 O90 2.031 . S
Mg71 O69 1.963 . S
Mg71 O75 1.986 . S
Mg71 O87 1.942 . S
Mg71 O88 1.955 . S
C72 O83 1.191 . S
C72 O85 1.307 . S
O73 Mg68 2.013 . S
O73 C92 1.191 . S
O74 Mg65 2.081 . S
O74 C82 1.331 . S
O75 Mg71 1.986 . S
O75 C92 1.307 . S
O76 Mg65 2.023 . S
O76 C91 1.264 . S
O77 Mg66 1.942 . S
O77 C82 1.244 . S
O78 Mg66 1.955 . S
O78 C91 1.273 . S
O79 Mg68 2.114 . S
O79 Mg70 2.291 . S
O79 C81 1.312 . S
O80 Mg65 2.031 . S
O80 C81 1.208 . S
C81 O79 1.312 . S
C81 O80 1.208 . S
C82 O74 1.331 . S
C82 O77 1.244 . S
O83 Mg68 2.013 . S
O83 C72 1.191 . S
O84 C63 1.331 . S
O84 Mg70 2.081 . S
O85 Mg66 1.986 . S
O85 C72 1.307 . S
O86 C64 1.264 . S
O86 Mg70 2.023 . S
O87 C63 1.244 . S
O87 Mg71 1.942 . S
O88 C64 1.273 . S
O88 Mg71 1.955 . S
O89 C62 1.312 . S
O89 Mg65 2.291 . S
O89 Mg68 2.114 . S
O90 C62 1.208 . S
O90 Mg70 2.031 . S
C91 O76 1.264 . S
C91 O78 1.273 . S
C92 O73 1.191 . S
C92 O75 1.307 . S
C93 O120 1.312 . S
C93 O121 1.208 . S
C94 O115 1.331 . S
C94 O118 1.244 . S
C95 O117 1.264 . S
C95 O119 1.273 . S
Mg96 O98 1.936 . S
Mg96 O105 2.081 . S
Mg96 O107 2.023 . S
Mg96 O111 2.031 . S
Mg96 O120 2.291 . S
Mg97 O98 1.963 . S
Mg97 O108 1.942 . S
Mg97 O109 1.955 . S
Mg97 O116 1.986 . S
O98 Mg96 1.936 . S
O98 Mg97 1.963 . S
O98 Mg99 1.915 . S
Mg99 O98 1.915 . S
Mg99 O100 1.915 . S
Mg99 O104 2.013 . S
Mg99 O110 2.114 . S
Mg99 O114 2.013 . S
Mg99 O120 2.114 . S
O100 Mg99 1.915 . S
O100 Mg101 1.936 . S
O100 Mg102 1.963 . S
Mg101 O100 1.936 . S
Mg101 O110 2.291 . S
Mg101 O115 2.081 . S
Mg101 O117 2.023 . S
Mg101 O121 2.031 . S
Mg102 O100 1.963 . S
Mg102 O106 1.986 . S
Mg102 O118 1.942 . S
Mg102 O119 1.955 . S
C103 O114 1.191 . S
C103 O116 1.307 . S
O104 Mg99 2.013 . S
O104 C123 1.191 . S
O105 Mg96 2.081 . S
O105 C113 1.331 . S
O106 Mg102 1.986 . S
O106 C123 1.307 . S
O107 Mg96 2.023 . S
O107 C122 1.264 . S
O108 Mg97 1.942 . S
O108 C113 1.244 . S
O109 Mg97 1.955 . S
O109 C122 1.273 . S
O110 Mg99 2.114 . S
O110 Mg101 2.291 . S
O110 C112 1.312 . S
O111 Mg96 2.031 . S
O111 C112 1.208 . S
C112 O110 1.312 . S
C112 O111 1.208 . S
C113 O105 1.331 . S
C113 O108 1.244 . S
O114 Mg99 2.013 . S
O114 C103 1.191 . S
O115 C94 1.331 . S
O115 Mg101 2.081 . S
O116 Mg97 1.986 . S
O116 C103 1.307 . S
O117 C95 1.264 . S
O117 Mg101 2.023 . S
O118 C94 1.244 . S
O118 Mg102 1.942 . S
O119 C95 1.273 . S
O119 Mg102 1.955 . S
O120 C93 1.312 . S
O120 Mg96 2.291 . S
O120 Mg99 2.114 . S
O121 C93 1.208 . S
O121 Mg101 2.031 . S
C122 O107 1.264 . S
C122 O109 1.273 . S
C123 O104 1.191 . S
C123 O106 1.307 . S
C124 C125 1.349 . S
C124 C126 1.327 . S
C124 H149 0.950 . S
C125 C124 1.349 . S
C125 C141 1.349 . S
C126 C124 1.327 . S
C126 C145 1.429 . S
C126 H150 0.950 . S
C127 C144 1.574 . S
C127 C146 1.368 . S
C127 H151 0.949 1_655 S
H128 C132 0.949 . S
C129 C130 1.349 . S
C129 C131 1.327 . S
C129 H152 0.950 1_655 S
C130 C129 1.349 . S
C130 C142 1.349 . S
C131 C129 1.327 . S
C131 C147 1.429 . S
C131 H153 0.950 1_655 S
C132 H128 0.949 . S
C132 C140 1.574 . S
C132 C148 1.368 . S
H133 C141 0.950 1_455 S
H134 C139 0.950 1_455 S
H135 C140 0.949 . S
H136 C142 0.950 . S
H137 C143 0.950 . S
H138 C144 0.949 1_455 S
C139 H134 0.950 1_655 S
C139 C141 1.327 . S
C139 C145 1.429 . S
C140 C132 1.574 . S
C140 H135 0.949 . S
C140 C146 1.368 . S
C141 C125 1.349 . S
C141 H133 0.950 1_655 S
C141 C139 1.327 . S
C142 C130 1.349 . S
C142 H136 0.950 . S
C142 C143 1.327 . S
C143 H137 0.950 . S
C143 C142 1.327 . S
C143 C147 1.429 . S
C144 C127 1.574 . S
C144 H138 0.949 1_655 S
C144 C148 1.368 . S
C145 C126 1.429 . S
C145 C139 1.429 . S
C145 C146 1.523 . S
C146 C127 1.368 . S
C146 C140 1.368 . S
C146 C145 1.523 . S
C147 C131 1.429 . S
C147 C143 1.429 . S
C147 C148 1.523 . S
C148 C132 1.368 . S
C148 C144 1.368 . S
C148 C147 1.523 . S
H149 C124 0.950 . S
H150 C126 0.950 . S
H151 C127 0.949 1_455 S
H152 C129 0.950 1_455 S
H153 C131 0.950 1_455 S
C154 C155 1.349 . S
C154 C156 1.327 . S
C154 H179 0.950 . S
C155 C154 1.349 . S
C155 C171 1.349 . S
C156 C154 1.327 . S
C156 C175 1.429 . S
C156 H180 0.950 . S
C157 C174 1.574 . S
C157 C176 1.368 . S
C157 H181 0.949 . S
H158 C162 0.949 . S
C159 C160 1.349 . S
C159 C161 1.327 . S
C159 H182 0.950 . S
C160 C159 1.349 . S
C160 C172 1.349 . S
C161 C159 1.327 . S
C161 C177 1.429 . S
C161 H183 0.950 . S
C162 H158 0.949 . S
C162 C170 1.574 . S
C162 C178 1.368 . S
H163 C171 0.950 . S
H164 C169 0.950 . S
H165 C170 0.949 . S
H166 C172 0.950 . S
H167 C173 0.950 . S
H168 C174 0.949 . S
C169 H164 0.950 . S
C169 C171 1.327 . S
C169 C175 1.429 . S
C170 C162 1.574 . S
C170 H165 0.949 . S
C170 C176 1.368 . S
C171 C155 1.349 . S
C171 H163 0.950 . S
C171 C169 1.327 . S
C172 C160 1.349 . S
C172 H166 0.950 . S
C172 C173 1.327 . S
C173 H167 0.950 . S
C173 C172 1.327 . S
C173 C177 1.429 . S
C174 C157 1.574 . S
C174 H168 0.949 . S
C174 C178 1.368 . S
C175 C156 1.429 . S
C175 C169 1.429 . S
C175 C176 1.523 . S
C176 C157 1.368 . S
C176 C170 1.368 . S
C176 C175 1.523 . S
C177 C161 1.429 . S
C177 C173 1.429 . S
C177 C178 1.523 . S
C178 C162 1.368 . S
C178 C174 1.368 . S
C178 C177 1.523 . S
H179 C154 0.950 . S
H180 C156 0.950 . S
H181 C157 0.949 . S
H182 C159 0.950 . S
H183 C161 0.950 . S
C184 C185 1.349 . S
C184 C186 1.327 . S
C184 H209 0.950 . S
C185 C184 1.349 . S
C185 C201 1.349 . S
C186 C184 1.327 . S
C186 C205 1.429 . S
C186 H210 0.950 . S
C187 C204 1.574 1_556 S
C187 C206 1.368 . S
C187 H211 0.949 . S
H188 C192 0.949 . S
C189 C190 1.349 . S
C189 C191 1.327 . S
C189 H212 0.950 . S
C190 C189 1.349 . S
C190 C202 1.349 . S
C191 C189 1.327 . S
C191 C207 1.429 . S
C191 H213 0.950 . S
C192 H188 0.949 . S
C192 C200 1.574 1_554 S
C192 C208 1.368 . S
H193 C201 0.950 . S
H194 C199 0.950 . S
H195 C200 0.949 . S
H196 C202 0.950 . S
H197 C203 0.950 . S
H198 C204 0.949 . S
C199 H194 0.950 . S
C199 C201 1.327 . S
C199 C205 1.429 . S
C200 C192 1.574 1_556 S
C200 H195 0.949 . S
C200 C206 1.368 . S
C201 C185 1.349 . S
C201 H193 0.950 . S
C201 C199 1.327 . S
C202 C190 1.349 . S
C202 H196 0.950 . S
C202 C203 1.327 . S
C203 H197 0.950 . S
C203 C202 1.327 . S
C203 C207 1.429 . S
C204 C187 1.574 1_554 S
C204 H198 0.949 . S
C204 C208 1.368 . S
C205 C186 1.429 . S
C205 C199 1.429 . S
C205 C206 1.523 . S
C206 C187 1.368 . S
C206 C200 1.368 . S
C206 C205 1.523 . S
C207 C191 1.429 . S
C207 C203 1.429 . S
C207 C208 1.523 . S
C208 C192 1.368 . S
C208 C204 1.368 . S
C208 C207 1.523 . S
H209 C184 0.950 . S
H210 C186 0.950 . S
H211 C187 0.949 . S
H212 C189 0.950 . S
H213 C191 0.950 . S
C214 C215 1.349 . S
C214 C216 1.327 . S
C214 H239 0.950 . S
C215 C214 1.349 . S
C215 C231 1.349 . S
C216 C214 1.327 . S
C216 C235 1.429 . S
C216 H240 0.950 . S
C217 C234 1.574 . S
C217 C236 1.368 . S
C217 H241 0.949 . S
H218 C222 0.949 . S
C219 C220 1.349 . S
C219 C221 1.327 . S
C219 H242 0.950 . S
C220 C219 1.349 . S
C220 C232 1.349 . S
C221 C219 1.327 . S
C221 C237 1.429 . S
C221 H243 0.950 . S
C222 H218 0.949 . S
C222 C230 1.574 . S
C222 C238 1.368 . S
H223 C231 0.950 . S
H224 C229 0.950 . S
H225 C230 0.949 . S
H226 C232 0.950 . S
H227 C233 0.950 . S
H228 C234 0.949 . S
C229 H224 0.950 . S
C229 C231 1.327 . S
C229 C235 1.429 . S
C230 C222 1.574 . S
C230 H225 0.949 . S
C230 C236 1.368 . S
C231 C215 1.349 . S
C231 H223 0.950 . S
C231 C229 1.327 . S
C232 C220 1.349 . S
C232 H226 0.950 . S
C232 C233 1.327 . S
C233 H227 0.950 . S
C233 C232 1.327 . S
C233 C237 1.429 . S
C234 C217 1.574 . S
C234 H228 0.949 . S
C234 C238 1.368 . S
C235 C216 1.429 . S
C235 C229 1.429 . S
C235 C236 1.523 . S
C236 C217 1.368 . S
C236 C230 1.368 . S
C236 C235 1.523 . S
C237 C221 1.429 . S
C237 C233 1.429 . S
C237 C238 1.523 . S
C238 C222 1.368 . S
C238 C234 1.368 . S
C238 C237 1.523 . S
H239 C214 0.950 . S
H240 C216 0.950 . S
H241 C217 0.949 . S
H242 C219 0.950 . S
H243 C221 0.950 . S
C244 C245 1.349 . S
C244 C246 1.327 . S
C244 H269 0.950 . S
C245 C244 1.349 . S
C245 C261 1.349 . S
C246 C244 1.327 . S
C246 C265 1.429 . S
C246 H270 0.950 . S
C247 C264 1.574 . S
C247 C266 1.368 . S
C247 H271 0.949 . S
H248 C252 0.949 . S
C249 C250 1.349 . S
C249 C251 1.327 . S
C249 H272 0.950 . S
C250 C249 1.349 . S
C250 C262 1.349 . S
C251 C249 1.327 . S
C251 C267 1.429 . S
C251 H273 0.950 . S
C252 H248 0.949 . S
C252 C260 1.574 . S
C252 C268 1.368 . S
H253 C261 0.950 . S
H254 C259 0.950 . S
H255 C260 0.949 . S
H256 C262 0.950 . S
H257 C263 0.950 . S
H258 C264 0.949 . S
C259 H254 0.950 . S
C259 C261 1.327 . S
C259 C265 1.429 . S
C260 C252 1.574 . S
C260 H255 0.949 . S
C260 C266 1.368 . S
C261 C245 1.349 . S
C261 H253 0.950 . S
C261 C259 1.327 . S
C262 C250 1.349 . S
C262 H256 0.950 . S
C262 C263 1.327 . S
C263 H257 0.950 . S
C263 C262 1.327 . S
C263 C267 1.429 . S
C264 C247 1.574 . S
C264 H258 0.949 . S
C264 C268 1.368 . S
C265 C246 1.429 . S
C265 C259 1.429 . S
C265 C266 1.523 . S
C266 C247 1.368 . S
C266 C260 1.368 . S
C266 C265 1.523 . S
C267 C251 1.429 . S
C267 C263 1.429 . S
C267 C268 1.523 . S
C268 C252 1.368 . S
C268 C264 1.368 . S
C268 C267 1.523 . S
H269 C244 0.950 . S
H270 C246 0.950 . S
H271 C247 0.949 . S
H272 C249 0.950 . S
H273 C251 0.950 . S
C274 C275 1.349 . S
C274 C276 1.327 . S
C274 H299 0.950 . S
C275 C274 1.349 . S
C275 C291 1.349 . S
C276 C274 1.327 . S
C276 C295 1.429 . S
C276 H300 0.950 . S
C277 C294 1.574 . S
C277 C296 1.368 . S
C277 H301 0.949 . S
H278 C282 0.949 . S
C279 C280 1.349 . S
C279 C281 1.327 . S
C279 H302 0.950 . S
C280 C279 1.349 . S
C280 C292 1.349 . S
C281 C279 1.327 . S
C281 C297 1.429 . S
C281 H303 0.950 . S
C282 H278 0.949 . S
C282 C290 1.574 . S
C282 C298 1.368 . S
H283 C291 0.950 . S
H284 C289 0.950 . S
H285 C290 0.949 . S
H286 C292 0.950 . S
H287 C293 0.950 . S
H288 C294 0.949 . S
C289 H284 0.950 . S
C289 C291 1.327 . S
C289 C295 1.429 . S
C290 C282 1.574 . S
C290 H285 0.949 . S
C290 C296 1.368 . S
C291 C275 1.349 . S
C291 H283 0.950 . S
C291 C289 1.327 . S
C292 C280 1.349 . S
C292 H286 0.950 . S
C292 C293 1.327 . S
C293 H287 0.950 . S
C293 C292 1.327 . S
C293 C297 1.429 . S
C294 C277 1.574 . S
C294 H288 0.949 . S
C294 C298 1.368 . S
C295 C276 1.429 . S
C295 C289 1.429 . S
C295 C296 1.523 . S
C296 C277 1.368 . S
C296 C290 1.368 . S
C296 C295 1.523 . S
C297 C281 1.429 . S
C297 C293 1.429 . S
C297 C298 1.523 . S
C298 C282 1.368 . S
C298 C294 1.368 . S
C298 C297 1.523 . S
H299 C274 0.950 . S
H300 C276 0.950 . S
H301 C277 0.949 . S
H302 C279 0.950 . S
H303 C281 0.950 . S
C304 C305 1.349 . S
C304 C306 1.327 . S
C304 H329 0.950 . S
C305 C304 1.349 . S
C305 C321 1.349 . S
C306 C304 1.327 . S
C306 C325 1.429 . S
C306 H330 0.950 . S
C307 C324 1.574 1_566 S
C307 C326 1.368 . S
C307 H331 0.949 . S
H308 C312 0.949 . S
C309 C310 1.349 . S
C309 C311 1.327 . S
C309 H332 0.950 . S
C310 C309 1.349 . S
C310 C322 1.349 . S
C311 C309 1.327 . S
C311 C327 1.429 . S
C311 H333 0.950 . S
C312 H308 0.949 . S
C312 C320 1.574 1_544 S
C312 C328 1.368 . S
H313 C321 0.950 . S
H314 C319 0.950 . S
H315 C320 0.949 . S
H316 C322 0.950 . S
H317 C323 0.950 . S
H318 C324 0.949 . S
C319 H314 0.950 . S
C319 C321 1.327 . S
C319 C325 1.429 . S
C320 C312 1.574 1_566 S
C320 H315 0.949 . S
C320 C326 1.368 . S
C321 C305 1.349 . S
C321 H313 0.950 . S
C321 C319 1.327 . S
C322 C310 1.349 . S
C322 H316 0.950 . S
C322 C323 1.327 . S
C323 H317 0.950 . S
C323 C322 1.327 . S
C323 C327 1.429 . S
C324 C307 1.574 1_544 S
C324 H318 0.949 . S
C324 C328 1.368 . S
C325 C306 1.429 . S
C325 C319 1.429 . S
C325 C326 1.523 . S
C326 C307 1.368 . S
C326 C320 1.368 . S
C326 C325 1.523 . S
C327 C311 1.429 . S
C327 C323 1.429 . S
C327 C328 1.523 . S
C328 C312 1.368 . S
C328 C324 1.368 . S
C328 C327 1.523 . S
H329 C304 0.950 . S
H330 C306 0.950 . S
H331 C307 0.949 . S
H332 C309 0.950 . S
H333 C311 0.950 . S
C334 C335 1.349 . S
C334 C336 1.327 . S
C334 H359 0.950 . S
C335 C334 1.349 . S
C335 C351 1.349 . S
C336 C334 1.327 . S
C336 C355 1.429 . S
C336 H360 0.950 1_545 S
C337 C354 1.574 . S
C337 C356 1.368 . S
C337 H361 0.949 . S
H338 C342 0.949 . S
C339 C340 1.349 . S
C339 C341 1.327 . S
C339 H362 0.950 . S
C340 C339 1.349 . S
C340 C352 1.349 . S
C341 C339 1.327 . S
C341 C357 1.429 . S
C341 H363 0.950 1_565 S
C342 H338 0.949 . S
C342 C350 1.574 . S
C342 C358 1.368 . S
H343 C351 0.950 . S
H344 C349 0.950 . S
H345 C350 0.949 . S
H346 C352 0.950 . S
H347 C353 0.950 . S
H348 C354 0.949 . S
C349 H344 0.950 . S
C349 C351 1.327 . S
C349 C355 1.429 . S
C350 C342 1.574 . S
C350 H345 0.949 . S
C350 C356 1.368 1_565 S
C351 C335 1.349 . S
C351 H343 0.950 . S
C351 C349 1.327 . S
C352 C340 1.349 . S
C352 H346 0.950 . S
C352 C353 1.327 . S
C353 H347 0.950 . S
C353 C352 1.327 . S
C353 C357 1.429 . S
C354 C337 1.574 . S
C354 H348 0.949 . S
C354 C358 1.368 1_545 S
C355 C336 1.429 . S
C355 C349 1.429 . S
C355 C356 1.523 . S
C356 C337 1.368 . S
C356 C350 1.368 1_545 S
C356 C355 1.523 . S
C357 C341 1.429 . S
C357 C353 1.429 . S
C357 C358 1.523 . S
C358 C342 1.368 . S
C358 C354 1.368 1_565 S
C358 C357 1.523 . S
H359 C334 0.950 . S
H360 C336 0.950 1_565 S
H361 C337 0.949 . S
H362 C339 0.950 . S
H363 C341 0.950 1_545 S
C364 C365 1.348 1_465 S
C364 C366 1.327 . S
C364 H389 0.950 1_565 S
C365 C364 1.348 1_645 S
C365 C381 1.350 1_545 S
C366 C364 1.327 . S
C366 C385 1.428 1_455 S
C366 H390 0.950 . S
C367 C384 1.574 . S
C367 C386 1.369 . S
C367 H391 0.949 . S
H368 C372 0.949 . S
C369 C370 1.349 . S
C369 C371 1.327 . S
C369 H392 0.950 . S
C370 C369 1.349 . S
C370 C382 1.349 1_655 S
C371 C369 1.327 . S
C371 C387 1.429 . S
C371 H393 0.950 . S
C372 H368 0.949 . S
C372 C380 1.574 . S
C372 C388 1.368 1_455 S
H373 C381 0.950 1_545 S
H374 C379 0.950 . S
H375 C380 0.949 . S
H376 C382 0.950 . S
H377 C383 0.950 . S
H378 C384 0.949 . S
C379 H374 0.950 . S
C379 C381 1.327 . S
C379 C385 1.429 . S
C380 C372 1.574 . S
C380 H375 0.949 . S
C380 C386 1.368 1_455 S
C381 C365 1.350 1_565 S
C381 H373 0.950 1_565 S
C381 C379 1.327 . S
C382 C370 1.349 1_455 S
C382 H376 0.950 . S
C382 C383 1.327 . S
C383 H377 0.950 . S
C383 C382 1.327 . S
C383 C387 1.428 1_455 S
C384 C367 1.574 . S
C384 H378 0.949 . S
C384 C388 1.369 . S
C385 C366 1.428 1_655 S
C385 C379 1.429 . S
C385 C386 1.523 . S
C386 C367 1.369 . S
C386 C380 1.368 1_655 S
C386 C385 1.523 . S
C387 C371 1.429 . S
C387 C383 1.428 1_655 S
C387 C388 1.523 . S
C388 C372 1.368 1_655 S
C388 C384 1.369 . S
C388 C387 1.523 . S
H389 C364 0.950 1_545 S
H390 C366 0.950 . S
H391 C367 0.949 . S
H392 C369 0.950 . S
H393 C371 0.950 . S
C394 C395 1.349 . S
C394 C396 1.327 . S
C394 H419 0.950 . S
C395 C394 1.349 . S
C395 C411 1.349 . S
C396 C394 1.327 . S
C396 C415 1.429 . S
C396 H420 0.950 . S
C397 C414 1.574 . S
C397 C416 1.368 . S
C397 H421 0.949 . S
H398 C402 0.949 . S
C399 C400 1.349 . S
C399 C401 1.327 . S
C399 H422 0.950 . S
C400 C399 1.349 . S
C400 C412 1.349 . S
C401 C399 1.327 . S
C401 C417 1.429 . S
C401 H423 0.950 . S
C402 H398 0.949 . S
C402 C410 1.574 . S
C402 C418 1.368 . S
H403 C411 0.950 . S
H404 C409 0.950 . S
H405 C410 0.949 . S
H406 C412 0.950 . S
H407 C413 0.950 . S
H408 C414 0.949 . S
C409 H404 0.950 . S
C409 C411 1.327 . S
C409 C415 1.429 . S
C410 C402 1.574 . S
C410 H405 0.949 . S
C410 C416 1.368 . S
C411 C395 1.349 . S
C411 H403 0.950 . S
C411 C409 1.327 . S
C412 C400 1.349 . S
C412 H406 0.950 . S
C412 C413 1.327 . S
C413 H407 0.950 . S
C413 C412 1.327 . S
C413 C417 1.429 . S
C414 C397 1.574 . S
C414 H408 0.949 . S
C414 C418 1.368 . S
C415 C396 1.429 . S
C415 C409 1.429 . S
C415 C416 1.523 . S
C416 C397 1.368 . S
C416 C410 1.368 . S
C416 C415 1.523 . S
C417 C401 1.429 . S
C417 C413 1.429 . S
C417 C418 1.523 . S
C418 C402 1.368 . S
C418 C414 1.368 . S
C418 C417 1.523 . S
H419 C394 0.950 . S
H420 C396 0.950 . S
H421 C397 0.949 . S
H422 C399 0.950 . S
H423 C401 0.950 . S
C424 C425 1.349 . S
C424 C426 1.327 . S
C424 H449 0.950 . S
C425 C424 1.349 . S
C425 C441 1.349 . S
C426 C424 1.327 . S
C426 C445 1.429 . S
C426 H450 0.950 . S
C427 C444 1.574 . S
C427 C446 1.368 . S
C427 H451 0.949 . S
H428 C432 0.949 . S
C429 C430 1.349 . S
C429 C431 1.327 1_565 S
C429 H452 0.950 . S
C430 C429 1.349 . S
C430 C442 1.349 . S
C431 C429 1.327 1_545 S
C431 C447 1.429 . S
C431 H453 0.950 . S
C432 H428 0.949 . S
C432 C440 1.574 . S
C432 C448 1.368 . S
H433 C441 0.950 . S
H434 C439 0.950 . S
H435 C440 0.949 . S
H436 C442 0.950 . S
H437 C443 0.950 . S
H438 C444 0.949 . S
C439 H434 0.950 . S
C439 C441 1.327 . S
C439 C445 1.429 . S
C440 C432 1.574 . S
C440 H435 0.949 . S
C440 C446 1.368 . S
C441 C425 1.349 . S
C441 H433 0.950 . S
C441 C439 1.327 . S
C442 C430 1.349 . S
C442 H436 0.950 . S
C442 C443 1.327 1_565 S
C443 H437 0.950 . S
C443 C442 1.327 1_545 S
C443 C447 1.429 . S
C444 C427 1.574 . S
C444 H438 0.949 . S
C444 C448 1.368 . S
C445 C426 1.429 . S
C445 C439 1.429 . S
C445 C446 1.523 . S
C446 C427 1.368 . S
C446 C440 1.368 . S
C446 C445 1.523 . S
C447 C431 1.429 . S
C447 C443 1.429 . S
C447 C448 1.523 . S
C448 C432 1.368 . S
C448 C444 1.368 . S
C448 C447 1.523 . S
H449 C424 0.950 . S
H450 C426 0.950 . S
H451 C427 0.949 . S
H452 C429 0.950 . S
H453 C431 0.950 . S
C454 C455 1.349 . S
C454 C456 1.327 . S
C454 H479 0.950 . S
C455 C454 1.349 . S
C455 C471 1.349 . S
C456 C454 1.327 . S
C456 C475 1.429 . S
C456 H480 0.950 . S
C457 C474 1.574 1_455 S
C457 C476 1.368 . S
C457 H481 0.949 . S
H458 C462 0.949 . S
C459 C460 1.349 . S
C459 C461 1.327 . S
C459 H482 0.950 . S
C460 C459 1.349 . S
C460 C472 1.349 . S
C461 C459 1.327 . S
C461 C477 1.429 . S
C461 H483 0.950 . S
C462 H458 0.949 . S
C462 C470 1.574 1_655 S
C462 C478 1.368 . S
H463 C471 0.950 . S
H464 C469 0.950 . S
H465 C470 0.949 . S
H466 C472 0.950 . S
H467 C473 0.950 . S
H468 C474 0.949 . S
C469 H464 0.950 . S
C469 C471 1.327 . S
C469 C475 1.429 . S
C470 C462 1.574 1_455 S
C470 H465 0.949 . S
C470 C476 1.368 . S
C471 C455 1.349 . S
C471 H463 0.950 . S
C471 C469 1.327 . S
C472 C460 1.349 . S
C472 H466 0.950 . S
C472 C473 1.327 . S
C473 H467 0.950 . S
C473 C472 1.327 . S
C473 C477 1.429 . S
C474 C457 1.574 1_655 S
C474 H468 0.949 . S
C474 C478 1.368 . S
C475 C456 1.429 . S
C475 C469 1.429 . S
C475 C476 1.523 . S
C476 C457 1.368 . S
C476 C470 1.368 . S
C476 C475 1.523 . S
C477 C461 1.429 . S
C477 C473 1.429 . S
C477 C478 1.523 . S
C478 C462 1.368 . S
C478 C474 1.368 . S
C478 C477 1.523 . S
H479 C454 0.950 . S
H480 C456 0.950 . S
H481 C457 0.949 . S
H482 C459 0.950 . S
H483 C461 0.950 . S
C484 C485 1.348 1_445 S
C484 C486 1.327 . S
C484 H509 0.950 1_545 S
C485 C484 1.348 1_665 S
C485 C501 1.350 1_565 S
C486 C484 1.327 . S
C486 C505 1.428 1_455 S
C486 H510 0.950 . S
C487 C504 1.574 . S
C487 C506 1.369 . S
C487 H511 0.949 . S
H488 C492 0.949 . S
C489 C490 1.349 . S
C489 C491 1.327 . S
C489 H512 0.950 . S
C490 C489 1.349 . S
C490 C502 1.349 1_655 S
C491 C489 1.327 . S
C491 C507 1.429 . S
C491 H513 0.950 . S
C492 H488 0.949 . S
C492 C500 1.574 . S
C492 C508 1.368 1_455 S
H493 C501 0.950 1_565 S
H494 C499 0.950 . S
H495 C500 0.949 . S
H496 C502 0.950 . S
H497 C503 0.950 . S
H498 C504 0.949 . S
C499 H494 0.950 . S
C499 C501 1.327 . S
C499 C505 1.429 . S
C500 C492 1.574 . S
C500 H495 0.949 . S
C500 C506 1.368 1_455 S
C501 C485 1.350 1_545 S
C501 H493 0.950 1_545 S
C501 C499 1.327 . S
C502 C490 1.349 1_455 S
C502 H496 0.950 . S
C502 C503 1.327 . S
C503 H497 0.950 . S
C503 C502 1.327 . S
C503 C507 1.428 1_455 S
C504 C487 1.574 . S
C504 H498 0.949 . S
C504 C508 1.369 . S
C505 C486 1.428 1_655 S
C505 C499 1.429 . S
C505 C506 1.523 . S
C506 C487 1.369 . S
C506 C500 1.368 1_655 S
C506 C505 1.523 . S
C507 C491 1.429 . S
C507 C503 1.428 1_655 S
C507 C508 1.523 . S
C508 C492 1.368 1_655 S
C508 C504 1.369 . S
C508 C507 1.523 . S
H509 C484 0.950 1_565 S
H510 C486 0.950 . S
H511 C487 0.949 . S
H512 C489 0.950 . S
H513 C491 0.950 . S
C514 C515 1.349 . S
C514 C516 1.327 . S
C514 H539 0.950 . S
C515 C514 1.349 . S
C515 C531 1.349 . S
C516 C514 1.327 . S
C516 C535 1.429 . S
C516 H540 0.950 . S
C517 C534 1.574 1_655 S
C517 C536 1.368 . S
C517 H541 0.949 . S
H518 C522 0.949 . S
C519 C520 1.349 . S
C519 C521 1.327 . S
C519 H542 0.950 . S
C520 C519 1.349 . S
C520 C532 1.349 . S
C521 C519 1.327 . S
C521 C537 1.429 . S
C521 H543 0.950 . S
C522 H518 0.949 . S
C522 C530 1.574 1_455 S
C522 C538 1.368 . S
H523 C531 0.950 . S
H524 C529 0.950 . S
H525 C530 0.949 . S
H526 C532 0.950 . S
H527 C533 0.950 . S
H528 C534 0.949 . S
C529 H524 0.950 . S
C529 C531 1.327 . S
C529 C535 1.429 . S
C530 C522 1.574 1_655 S
C530 H525 0.949 . S
C530 C536 1.368 . S
C531 C515 1.349 . S
C531 H523 0.950 . S
C531 C529 1.327 . S
C532 C520 1.349 . S
C532 H526 0.950 . S
C532 C533 1.327 . S
C533 H527 0.950 . S
C533 C532 1.327 . S
C533 C537 1.429 . S
C534 C517 1.574 1_455 S
C534 H528 0.949 . S
C534 C538 1.368 . S
C535 C516 1.429 . S
C535 C529 1.429 . S
C535 C536 1.523 . S
C536 C517 1.368 . S
C536 C530 1.368 . S
C536 C535 1.523 . S
C537 C521 1.429 . S
C537 C533 1.429 . S
C537 C538 1.523 . S
C538 C522 1.368 . S
C538 C534 1.368 . S
C538 C537 1.523 . S
H539 C514 0.950 . S
H540 C516 0.950 . S
H541 C517 0.949 . S
H542 C519 0.950 . S
H543 C521 0.950 . S
C544 C545 1.349 . S
C544 C546 1.327 . S
C544 H569 0.950 . S
C545 C544 1.349 . S
C545 C561 1.349 . S
C546 C544 1.327 . S
C546 C565 1.429 . S
C546 H570 0.950 . S
C547 C564 1.574 . S
C547 C566 1.368 . S
C547 H571 0.949 . S
H548 C552 0.949 . S
C549 C550 1.349 . S
C549 C551 1.327 1_545 S
C549 H572 0.950 . S
C550 C549 1.349 . S
C550 C562 1.349 . S
C551 C549 1.327 1_565 S
C551 C567 1.429 . S
C551 H573 0.950 . S
C552 H548 0.949 . S
C552 C560 1.574 . S
C552 C568 1.368 . S
H553 C561 0.950 . S
H554 C559 0.950 . S
H555 C560 0.949 . S
H556 C562 0.950 . S
H557 C563 0.950 . S
H558 C564 0.949 . S
C559 H554 0.950 . S
C559 C561 1.327 . S
C559 C565 1.429 . S
C560 C552 1.574 . S
C560 H555 0.949 . S
C560 C566 1.368 . S
C561 C545 1.349 . S
C561 H553 0.950 . S
C561 C559 1.327 . S
C562 C550 1.349 . S
C562 H556 0.950 . S
C562 C563 1.327 1_545 S
C563 H557 0.950 . S
C563 C562 1.327 1_565 S
C563 C567 1.429 . S
C564 C547 1.574 . S
C564 H558 0.949 . S
C564 C568 1.368 . S
C565 C546 1.429 . S
C565 C559 1.429 . S
C565 C566 1.523 . S
C566 C547 1.368 . S
C566 C560 1.368 . S
C566 C565 1.523 . S
C567 C551 1.429 . S
C567 C563 1.429 . S
C567 C568 1.523 . S
C568 C552 1.368 . S
C568 C564 1.368 . S
C568 C567 1.523 . S
H569 C544 0.950 . S
H570 C546 0.950 . S
H571 C547 0.949 . S
H572 C549 0.950 . S
H573 C551 0.950 . S
C574 C575 1.349 . S
C574 C576 1.327 . S
C574 H599 0.950 . S
C575 C574 1.349 . S
C575 C591 1.349 . S
C576 C574 1.327 . S
C576 C595 1.429 . S
C576 H600 0.950 . S
C577 C594 1.574 . S
C577 C596 1.368 . S
C577 H601 0.949 . S
H578 C582 0.949 . S
C579 C580 1.349 . S
C579 C581 1.327 . S
C579 H602 0.950 . S
C580 C579 1.349 . S
C580 C592 1.349 . S
C581 C579 1.327 . S
C581 C597 1.429 . S
C581 H603 0.950 . S
C582 H578 0.949 . S
C582 C590 1.574 . S
C582 C598 1.368 . S
H583 C591 0.950 . S
H584 C589 0.950 . S
H585 C590 0.949 . S
H586 C592 0.950 . S
H587 C593 0.950 . S
H588 C594 0.949 . S
C589 H584 0.950 . S
C589 C591 1.327 . S
C589 C595 1.429 . S
C590 C582 1.574 . S
C590 H585 0.949 . S
C590 C596 1.368 . S
C591 C575 1.349 . S
C591 H583 0.950 . S
C591 C589 1.327 . S
C592 C580 1.349 . S
C592 H586 0.950 . S
C592 C593 1.327 . S
C593 H587 0.950 . S
C593 C592 1.327 . S
C593 C597 1.429 . S
C594 C577 1.574 . S
C594 H588 0.949 . S
C594 C598 1.368 . S
C595 C576 1.429 . S
C595 C589 1.429 . S
C595 C596 1.523 . S
C596 C577 1.368 . S
C596 C590 1.368 . S
C596 C595 1.523 . S
C597 C581 1.429 . S
C597 C593 1.429 . S
C597 C598 1.523 . S
C598 C582 1.368 . S
C598 C594 1.368 . S
C598 C597 1.523 . S
H599 C574 0.950 . S
H600 C576 0.950 . S
H601 C577 0.949 . S
H602 C579 0.950 . S
H603 C581 0.950 . S
C125 C20 1.248 . S
C130 C51 1.248 . S
C155 C82 1.355 . S
C160 C33 1.353 . S
C185 C64 1.460 . S
C190 C122 1.460 . S
C215 C2 1.352 . S
C220 C94 1.357 . S
C245 C95 1.352 . S
C250 C1 1.354 . S
C275 C32 1.355 . S
C280 C91 1.351 . S
C305 C63 1.248 . S
C310 C113 1.248 . S
C335 C29 1.460 . S
C340 C60 1.460 . S
C365 C30 1.451 . S
C370 C19 1.433 1_655 S
C395 C31 1.434 . S
C400 C41 1.452 . S
C425 C72 1.451 . S
C430 C62 1.433 . S
C455 C103 1.452 . S
C460 C93 1.434 . S
C485 C61 1.451 . S
C490 C50 1.433 1_655 S
C515 C81 1.434 . S
C520 C92 1.452 . S
C545 C123 1.451 . S
C550 C112 1.433 . S
C575 C10 1.452 . S
C580 C0 1.434 . S
