# Generated by pormake.
# Topology wgh, (5)-cn, num edge types: 1
# Building blocks:
#     Node 0, Type 0, BuildingBlock: XOMCOT_clean_sbu_0, # of connection points: 5
#     Node 1, Type 0, BuildingBlock: XOMCOT_clean_sbu_0, # of connection points: 5
#     Node 2, Type 0, BuildingBlock: XOMCOT_clean_sbu_0, # of connection points: 5
#     Node 3, Type 0, BuildingBlock: XOMCOT_clean_sbu_0, # of connection points: 5
#     Node 4, Type 0, BuildingBlock: XOMCOT_clean_sbu_0, # of connection points: 5
#     Node 5, Type 0, BuildingBlock: XOMCOT_clean_sbu_0, # of connection points: 5
#     Node 6, Type 0, BuildingBlock: XOMCOT_clean_sbu_0, # of connection points: 5
#     Node 7, Type 0, BuildingBlock: XOMCOT_clean_sbu_0, # of connection points: 5
#     Node 8, Type 0, BuildingBlock: XOMCOT_clean_sbu_0, # of connection points: 5
#     Node 9, Type 0, BuildingBlock: XOMCOT_clean_sbu_0, # of connection points: 5
#     Node 10, Type 0, BuildingBlock: XOMCOT_clean_sbu_0, # of connection points: 5
#     Node 11, Type 0, BuildingBlock: XOMCOT_clean_sbu_0, # of connection points: 5
#     Node 12, Type 0, BuildingBlock: XOMCOT_clean_sbu_0, # of connection points: 5
#     Node 13, Type 0, BuildingBlock: XOMCOT_clean_sbu_0, # of connection points: 5
#     Node 14, Type 0, BuildingBlock: XOMCOT_clean_sbu_0, # of connection points: 5
#     Node 15, Type 0, BuildingBlock: XOMCOT_clean_sbu_0, # of connection points: 5
#     Node 16, Type 0, BuildingBlock: XOMCOT_clean_sbu_0, # of connection points: 5
#     Node 17, Type 0, BuildingBlock: XOMCOT_clean_sbu_0, # of connection points: 5
#     Node 18, Type 0, BuildingBlock: XOMCOT_clean_sbu_0, # of connection points: 5
#     Node 19, Type 0, BuildingBlock: XOMCOT_clean_sbu_0, # of connection points: 5
#     Node 20, Type 0, BuildingBlock: XOMCOT_clean_sbu_0, # of connection points: 5
#     Node 21, Type 0, BuildingBlock: XOMCOT_clean_sbu_0, # of connection points: 5
#     Node 22, Type 0, BuildingBlock: XOMCOT_clean_sbu_0, # of connection points: 5
#     Node 23, Type 0, BuildingBlock: XOMCOT_clean_sbu_0, # of connection points: 5
#     Node 24, Type 0, BuildingBlock: XOMCOT_clean_sbu_0, # of connection points: 5
#     Node 25, Type 0, BuildingBlock: XOMCOT_clean_sbu_0, # of connection points: 5
#     Node 26, Type 0, BuildingBlock: XOMCOT_clean_sbu_0, # of connection points: 5
#     Node 27, Type 0, BuildingBlock: XOMCOT_clean_sbu_0, # of connection points: 5
#     Node 28, Type 0, BuildingBlock: XOMCOT_clean_sbu_0, # of connection points: 5
#     Node 29, Type 0, BuildingBlock: XOMCOT_clean_sbu_0, # of connection points: 5
#     Node 30, Type 0, BuildingBlock: XOMCOT_clean_sbu_0, # of connection points: 5
#     Node 31, Type 0, BuildingBlock: XOMCOT_clean_sbu_0, # of connection points: 5
#     Edge 32, Type (0, 0), BuildingBlock: OJICUG_clean_linker_0, # of connection points: 2
#     Edge 33, Type (0, 0), BuildingBlock: OJICUG_clean_linker_0, # of connection points: 2
#     Edge 34, Type (0, 0), BuildingBlock: OJICUG_clean_linker_0, # of connection points: 2
#     Edge 35, Type (0, 0), BuildingBlock: OJICUG_clean_linker_0, # of connection points: 2
#     Edge 36, Type (0, 0), BuildingBlock: OJICUG_clean_linker_0, # of connection points: 2
#     Edge 37, Type (0, 0), BuildingBlock: OJICUG_clean_linker_0, # of connection points: 2
#     Edge 38, Type (0, 0), BuildingBlock: OJICUG_clean_linker_0, # of connection points: 2
#     Edge 39, Type (0, 0), BuildingBlock: OJICUG_clean_linker_0, # of connection points: 2
#     Edge 40, Type (0, 0), BuildingBlock: OJICUG_clean_linker_0, # of connection points: 2
#     Edge 41, Type (0, 0), BuildingBlock: OJICUG_clean_linker_0, # of connection points: 2
#     Edge 42, Type (0, 0), BuildingBlock: OJICUG_clean_linker_0, # of connection points: 2
#     Edge 43, Type (0, 0), BuildingBlock: OJICUG_clean_linker_0, # of connection points: 2
#     Edge 44, Type (0, 0), BuildingBlock: OJICUG_clean_linker_0, # of connection points: 2
#     Edge 45, Type (0, 0), BuildingBlock: OJICUG_clean_linker_0, # of connection points: 2
#     Edge 46, Type (0, 0), BuildingBlock: OJICUG_clean_linker_0, # of connection points: 2
#     Edge 47, Type (0, 0), BuildingBlock: OJICUG_clean_linker_0, # of connection points: 2
#     Edge 48, Type (0, 0), BuildingBlock: OJICUG_clean_linker_0, # of connection points: 2
#     Edge 49, Type (0, 0), BuildingBlock: OJICUG_clean_linker_0, # of connection points: 2
#     Edge 50, Type (0, 0), BuildingBlock: OJICUG_clean_linker_0, # of connection points: 2
#     Edge 51, Type (0, 0), BuildingBlock: OJICUG_clean_linker_0, # of connection points: 2
#     Edge 52, Type (0, 0), BuildingBlock: OJICUG_clean_linker_0, # of connection points: 2
#     Edge 53, Type (0, 0), BuildingBlock: OJICUG_clean_linker_0, # of connection points: 2
#     Edge 54, Type (0, 0), BuildingBlock: OJICUG_clean_linker_0, # of connection points: 2
#     Edge 55, Type (0, 0), BuildingBlock: OJICUG_clean_linker_0, # of connection points: 2
#     Edge 56, Type (0, 0), BuildingBlock: OJICUG_clean_linker_0, # of connection points: 2
#     Edge 57, Type (0, 0), BuildingBlock: OJICUG_clean_linker_0, # of connection points: 2
#     Edge 58, Type (0, 0), BuildingBlock: OJICUG_clean_linker_0, # of connection points: 2
#     Edge 59, Type (0, 0), BuildingBlock: OJICUG_clean_linker_0, # of connection points: 2
#     Edge 60, Type (0, 0), BuildingBlock: OJICUG_clean_linker_0, # of connection points: 2
#     Edge 61, Type (0, 0), BuildingBlock: OJICUG_clean_linker_0, # of connection points: 2
#     Edge 62, Type (0, 0), BuildingBlock: OJICUG_clean_linker_0, # of connection points: 2
#     Edge 63, Type (0, 0), BuildingBlock: OJICUG_clean_linker_0, # of connection points: 2
#     Edge 64, Type (0, 0), BuildingBlock: OJICUG_clean_linker_0, # of connection points: 2
#     Edge 65, Type (0, 0), BuildingBlock: OJICUG_clean_linker_0, # of connection points: 2
#     Edge 66, Type (0, 0), BuildingBlock: OJICUG_clean_linker_0, # of connection points: 2
#     Edge 67, Type (0, 0), BuildingBlock: OJICUG_clean_linker_0, # of connection points: 2
#     Edge 68, Type (0, 0), BuildingBlock: OJICUG_clean_linker_0, # of connection points: 2
#     Edge 69, Type (0, 0), BuildingBlock: OJICUG_clean_linker_0, # of connection points: 2
#     Edge 70, Type (0, 0), BuildingBlock: OJICUG_clean_linker_0, # of connection points: 2
#     Edge 71, Type (0, 0), BuildingBlock: OJICUG_clean_linker_0, # of connection points: 2
#     Edge 72, Type (0, 0), BuildingBlock: OJICUG_clean_linker_0, # of connection points: 2
#     Edge 73, Type (0, 0), BuildingBlock: OJICUG_clean_linker_0, # of connection points: 2
#     Edge 74, Type (0, 0), BuildingBlock: OJICUG_clean_linker_0, # of connection points: 2
#     Edge 75, Type (0, 0), BuildingBlock: OJICUG_clean_linker_0, # of connection points: 2
#     Edge 76, Type (0, 0), BuildingBlock: OJICUG_clean_linker_0, # of connection points: 2
#     Edge 77, Type (0, 0), BuildingBlock: OJICUG_clean_linker_0, # of connection points: 2
#     Edge 78, Type (0, 0), BuildingBlock: OJICUG_clean_linker_0, # of connection points: 2
#     Edge 79, Type (0, 0), BuildingBlock: OJICUG_clean_linker_0, # of connection points: 2
#     Edge 80, Type (0, 0), BuildingBlock: OJICUG_clean_linker_0, # of connection points: 2
#     Edge 81, Type (0, 0), BuildingBlock: OJICUG_clean_linker_0, # of connection points: 2
#     Edge 82, Type (0, 0), BuildingBlock: OJICUG_clean_linker_0, # of connection points: 2
#     Edge 83, Type (0, 0), BuildingBlock: OJICUG_clean_linker_0, # of connection points: 2
#     Edge 84, Type (0, 0), BuildingBlock: OJICUG_clean_linker_0, # of connection points: 2
#     Edge 85, Type (0, 0), BuildingBlock: OJICUG_clean_linker_0, # of connection points: 2
#     Edge 86, Type (0, 0), BuildingBlock: OJICUG_clean_linker_0, # of connection points: 2
#     Edge 87, Type (0, 0), BuildingBlock: OJICUG_clean_linker_0, # of connection points: 2
#     Edge 88, Type (0, 0), BuildingBlock: OJICUG_clean_linker_0, # of connection points: 2
#     Edge 89, Type (0, 0), BuildingBlock: OJICUG_clean_linker_0, # of connection points: 2
#     Edge 90, Type (0, 0), BuildingBlock: OJICUG_clean_linker_0, # of connection points: 2
#     Edge 91, Type (0, 0), BuildingBlock: OJICUG_clean_linker_0, # of connection points: 2
#     Edge 92, Type (0, 0), BuildingBlock: OJICUG_clean_linker_0, # of connection points: 2
#     Edge 93, Type (0, 0), BuildingBlock: OJICUG_clean_linker_0, # of connection points: 2
#     Edge 94, Type (0, 0), BuildingBlock: OJICUG_clean_linker_0, # of connection points: 2
#     Edge 95, Type (0, 0), BuildingBlock: OJICUG_clean_linker_0, # of connection points: 2
#     Edge 96, Type (0, 0), BuildingBlock: OJICUG_clean_linker_0, # of connection points: 2
#     Edge 97, Type (0, 0), BuildingBlock: OJICUG_clean_linker_0, # of connection points: 2
#     Edge 98, Type (0, 0), BuildingBlock: OJICUG_clean_linker_0, # of connection points: 2
#     Edge 99, Type (0, 0), BuildingBlock: OJICUG_clean_linker_0, # of connection points: 2
#     Edge 100, Type (0, 0), BuildingBlock: OJICUG_clean_linker_0, # of connection points: 2
#     Edge 101, Type (0, 0), BuildingBlock: OJICUG_clean_linker_0, # of connection points: 2
#     Edge 102, Type (0, 0), BuildingBlock: OJICUG_clean_linker_0, # of connection points: 2
#     Edge 103, Type (0, 0), BuildingBlock: OJICUG_clean_linker_0, # of connection points: 2
#     Edge 104, Type (0, 0), BuildingBlock: OJICUG_clean_linker_0, # of connection points: 2
#     Edge 105, Type (0, 0), BuildingBlock: OJICUG_clean_linker_0, # of connection points: 2
#     Edge 106, Type (0, 0), BuildingBlock: OJICUG_clean_linker_0, # of connection points: 2
#     Edge 107, Type (0, 0), BuildingBlock: OJICUG_clean_linker_0, # of connection points: 2
#     Edge 108, Type (0, 0), BuildingBlock: OJICUG_clean_linker_0, # of connection points: 2
#     Edge 109, Type (0, 0), BuildingBlock: OJICUG_clean_linker_0, # of connection points: 2
#     Edge 110, Type (0, 0), BuildingBlock: OJICUG_clean_linker_0, # of connection points: 2
#     Edge 111, Type (0, 0), BuildingBlock: OJICUG_clean_linker_0, # of connection points: 2
# Relax obj value: 0.217
# Max RMSD: 0.207
# Mean RMSD: 0.207
data_MOF--net-wgh--node1-XOMCOT_clean_sbu_0--edge1-OJICUG_clean_linker_0
_symmetry_space_group_name_H-M    P1
_symmetry_Int_Tables_number       1
_symmetry_cell_setting            triclinic
loop_
_symmetry_equiv_pos_as_xyz
'x, y, z'
_cell_length_a     74.174356
_cell_length_b     74.275
_cell_length_c     15.092571
_cell_angle_alpha  89.724897
_cell_angle_beta   90.129907
_cell_angle_gamma 90.079817
loop_
_atom_site_label
_atom_site_type_symbol
_atom_site_fract_x
_atom_site_fract_y
_atom_site_fract_z
_atom_type_partial_charge
Co0 Co 0.15115 0.19169 0.42442 0.0
C1 C 0.1528 0.22333 0.55198 0.0
C2 C 0.13026 0.20583 0.57065 0.0
C3 C 0.12852 0.21989 0.62793 0.0
N4 N 0.14585 0.20736 0.52493 0.0
N5 N 0.14267 0.23094 0.6165 0.0
H6 H 0.16418 0.22998 0.52168 0.0
H7 H 0.1201 0.19562 0.56032 0.0
C8 C 0.1408 0.16568 0.56502 0.0
O9 O 0.15367 0.17306 0.61261 0.0
N10 N 0.15398 0.176 0.3238 0.0
C11 C 0.16591 0.17645 0.25658 0.0
C12 C 0.16003 0.16469 0.19145 0.0
C13 C 0.14119 0.16417 0.29896 0.0
N14 N 0.14452 0.15696 0.21907 0.0
C15 C 0.18653 0.19561 0.49805 0.0
C16 C 0.19636 0.15974 0.49434 0.0
C17 C 0.20894 0.17257 0.52292 0.0
C18 C 0.20378 0.19065 0.52487 0.0
C19 C 0.1789 0.16529 0.46999 0.0
N20 N 0.17406 0.18309 0.47341 0.0
H21 H 0.18364 0.20969 0.49265 0.0
H22 H 0.1694 0.15532 0.44671 0.0
H23 H 0.17747 0.18532 0.25304 0.0
H24 H 0.12889 0.16187 0.33568 0.0
O25 O 0.16124 0.21135 0.35855 0.0
O26 O 0.13214 0.20446 0.35894 0.0
O27 O 0.13733 0.17169 0.48704 0.0
C28 C 0.14518 0.21482 0.33011 0.0
H29 H 0.11753 0.22186 0.67386 0.0
H30 H 0.16634 0.16243 0.12789 0.0
H31 H 0.2 0.14565 0.4904 0.0
H32 H 0.21333 0.20105 0.54324 0.0
Co33 Co 0.06033 0.90499 0.70319 0.0
C34 C 0.02937 0.90362 0.83226 0.0
C35 C 0.05462 0.89679 0.89234 0.0
C36 C 0.04127 0.89329 0.95235 0.0
N37 N 0.04737 0.90327 0.81612 0.0
N38 N 0.02541 0.89741 0.91463 0.0
H39 H 0.01928 0.90747 0.78396 0.0
H40 H 0.06867 0.89394 0.90428 0.0
C41 C 0.09721 0.89408 0.76772 0.0
O42 O 0.10383 0.9082 0.72612 0.0
N43 N 0.07346 0.90514 0.5907 0.0
C44 C 0.07037 0.91476 0.51586 0.0
C45 C 0.08187 0.90901 0.4504 0.0
C46 C 0.08596 0.89289 0.56665 0.0
N47 N 0.09178 0.89528 0.48276 0.0
C48 C 0.06826 0.94215 0.68098 0.0
C49 C 0.08561 0.94879 0.839 0.0
C50 C 0.08344 0.9629 0.77769 0.0
C51 C 0.0747 0.95933 0.69802 0.0
C52 C 0.0794 0.93141 0.81773 0.0
N53 N 0.07112 0.92811 0.73809 0.0
H54 H 0.06016 0.94055 0.62291 0.0
H55 H 0.08127 0.92081 0.86567 0.0
H56 H 0.05981 0.92453 0.50616 0.0
H57 H 0.08997 0.88168 0.60784 0.0
O58 O 0.03971 0.91525 0.64474 0.0
O59 O 0.04482 0.886 0.65364 0.0
O60 O 0.08044 0.89021 0.75999 0.0
C61 C 0.03488 0.89917 0.62268 0.0
H62 H 0.04307 0.88796 0.01869 0.0
H63 H 0.08249 0.91432 0.38362 0.0
H64 H 0.09186 0.95121 0.90276 0.0
H65 H 0.0719 0.97005 0.65095 0.0
Co66 Co 0.35025 0.81849 0.85522 0.0
C67 C 0.35328 0.78404 0.95932 0.0
C68 C 0.34706 0.80678 0.04039 0.0
C69 C 0.35113 0.79253 0.09487 0.0
N70 N 0.34846 0.80167 0.95484 0.0
N71 N 0.35516 0.77832 0.04399 0.0
H72 H 0.35649 0.77578 0.90284 0.0
H73 H 0.34467 0.82028 0.06303 0.0
C74 C 0.36418 0.85297 0.93853 0.0
O75 O 0.35543 0.86259 0.87937 0.0
N76 N 0.35306 0.83543 0.75704 0.0
C77 C 0.34046 0.84434 0.70915 0.0
C78 C 0.34889 0.85635 0.65354 0.0
C79 C 0.36903 0.84198 0.72783 0.0
N80 N 0.3668 0.85491 0.66567 0.0
C81 C 0.3126 0.82176 0.82544 0.0
C82 C 0.30299 0.84239 0.96861 0.0
C83 C 0.28932 0.83596 0.91172 0.0
C84 C 0.29468 0.82622 0.83748 0.0
C85 C 0.32124 0.83832 0.95137 0.0
N86 N 0.3259 0.8277 0.88109 0.0
H87 H 0.3156 0.81409 0.76713 0.0
H88 H 0.33133 0.84343 0.99608 0.0
H89 H 0.32609 0.84307 0.71495 0.0
H90 H 0.38196 0.83819 0.75563 0.0
O91 O 0.34267 0.80032 0.77355 0.0
O92 O 0.37108 0.80492 0.80927 0.0
O93 O 0.36308 0.83577 0.93849 0.0
C94 C 0.3593 0.79612 0.76155 0.0
H95 H 0.35169 0.79274 0.16657 0.0
H96 H 0.34234 0.86578 0.60906 0.0
H97 H 0.29968 0.85007 0.02708 0.0
H98 H 0.2851 0.8218 0.78793 0.0
Co99 Co 0.43363 0.1048 0.23928 0.0
C100 C 0.46324 0.10736 0.37612 0.0
C101 C 0.43689 0.10743 0.43381 0.0
C102 C 0.44938 0.11025 0.50002 0.0
N103 N 0.4455 0.10556 0.35563 0.0
N104 N 0.46597 0.11028 0.46377 0.0
H105 H 0.474 0.10708 0.32814 0.0
H106 H 0.42242 0.10695 0.44227 0.0
C107 C 0.39774 0.1213 0.29248 0.0
O108 O 0.38905 0.10854 0.25101 0.0
N109 N 0.4221 0.10613 0.12316 0.0
C110 C 0.42378 0.09497 0.05329 0.0
C111 C 0.41395 0.1019 0.98299 0.0
C112 C 0.41203 0.11999 0.09292 0.0
N113 N 0.40645 0.11758 0.00865 0.0
C114 C 0.40644 0.07599 0.21935 0.0
C115 C 0.42408 0.05205 0.32926 0.0
C116 C 0.41076 0.04547 0.27237 0.0
C117 C 0.40146 0.05781 0.21939 0.0
C118 C 0.42889 0.07028 0.32628 0.0
N119 N 0.42042 0.08231 0.27066 0.0
H120 H 0.39977 0.08428 0.17102 0.0
H121 H 0.4408 0.07392 0.3628 0.0
H122 H 0.43138 0.08255 0.05376 0.0
H123 H 0.40916 0.13193 0.131 0.0
O124 O 0.45353 0.09238 0.18831 0.0
O125 O 0.45126 0.12215 0.19359 0.0
O126 O 0.41498 0.12186 0.29153 0.0
C127 C 0.46027 0.10794 0.16813 0.0
H128 H 0.44645 0.11199 0.56968 0.0
H129 H 0.41218 0.09572 0.91878 0.0
H130 H 0.43196 0.04291 0.36986 0.0
H131 H 0.39111 0.05328 0.17387 0.0
Co132 Co 0.15657 0.81971 0.09216 0.0
C133 C 0.15668 0.78647 0.97875 0.0
C134 C 0.14705 0.8097 0.90904 0.0
C135 C 0.14399 0.79494 0.8573 0.0
N136 N 0.15505 0.80462 0.98597 0.0
N137 N 0.14981 0.78031 0.90128 0.0
H138 H 0.16188 0.77777 0.03044 0.0
H139 H 0.14287 0.82314 0.89134 0.0
C140 C 0.14317 0.85438 0.01275 0.0
O141 O 0.1574 0.8624 0.04653 0.0
N142 N 0.15633 0.83466 0.19869 0.0
C143 C 0.16566 0.83253 0.27515 0.0
C144 C 0.15855 0.8436 0.3389 0.0
C145 C 0.14298 0.84624 0.21994 0.0
N146 N 0.1442 0.85221 0.30409 0.0
C147 C 0.19309 0.83125 0.10563 0.0
C148 C 0.1986 0.84144 0.93217 0.0
C149 C 0.21324 0.84135 0.99122 0.0
C150 C 0.21018 0.8367 0.07925 0.0
C151 C 0.18136 0.83655 0.96253 0.0
N152 N 0.17875 0.83123 0.04862 0.0
H153 H 0.19197 0.82568 0.1707 0.0
H154 H 0.17039 0.83654 0.91578 0.0
H155 H 0.17592 0.82253 0.28765 0.0
H156 H 0.13157 0.84896 0.17757 0.0
O157 O 0.16853 0.80084 0.15665 0.0
O158 O 0.13891 0.80412 0.1508 0.0
O159 O 0.14022 0.83773 0.02973 0.0
C160 C 0.15283 0.79532 0.1823 0.0
H161 H 0.13774 0.79496 0.7924 0.0
H162 H 0.16311 0.84442 0.40686 0.0
H163 H 0.20061 0.84457 0.86272 0.0
H164 H 0.22129 0.83569 0.12581 0.0
Co165 Co 0.4413 0.91107 0.24733 0.0
C166 C 0.46916 0.90666 0.10416 0.0
C167 C 0.44332 0.91511 0.05532 0.0
C168 C 0.45466 0.91309 0.98448 0.0
N169 N 0.45237 0.91129 0.13067 0.0
N170 N 0.47089 0.90777 0.01505 0.0
H171 H 0.47998 0.90281 0.14841 0.0
H172 H 0.42932 0.91911 0.0521 0.0
C173 C 0.40558 0.89036 0.20731 0.0
O174 O 0.39792 0.89362 0.28372 0.0
N175 N 0.43029 0.91038 0.3636 0.0
C176 C 0.4276 0.92438 0.41849 0.0
C177 C 0.41902 0.9182 0.49346 0.0
C178 C 0.42451 0.89574 0.40858 0.0
N179 N 0.4169 0.90021 0.48662 0.0
C180 C 0.44012 0.94758 0.19312 0.0
C181 C 0.40498 0.95483 0.24168 0.0
C182 C 0.41639 0.96914 0.21821 0.0
C183 C 0.43392 0.96527 0.19063 0.0
C184 C 0.41157 0.93711 0.2403 0.0
N185 N 0.4292 0.93377 0.2197 0.0
H186 H 0.45414 0.94509 0.17824 0.0
H187 H 0.40294 0.9264 0.263 0.0
H188 H 0.43118 0.9382 0.40401 0.0
H189 H 0.42473 0.88224 0.38186 0.0
O190 O 0.46234 0.92159 0.30042 0.0
O191 O 0.45789 0.8922 0.28764 0.0
O192 O 0.42143 0.89618 0.18933 0.0
C193 C 0.46804 0.90542 0.3159 0.0
H194 H 0.45121 0.9153 0.91555 0.0
H195 H 0.41418 0.92638 0.54755 0.0
H196 H 0.39134 0.95738 0.26379 0.0
H197 H 0.44317 0.976 0.1728 0.0
Co198 Co 0.34363 0.19822 0.61827 0.0
C199 C 0.3558 0.22637 0.48943 0.0
C200 C 0.32972 0.21634 0.45334 0.0
C201 C 0.33533 0.22815 0.38895 0.0
N202 N 0.34253 0.215 0.51704 0.0
N203 N 0.35171 0.23442 0.41133 0.0
H204 H 0.36848 0.22827 0.52365 0.0
H205 H 0.31749 0.20855 0.44903 0.0
C206 C 0.35379 0.175 0.46499 0.0
O207 O 0.339 0.18036 0.42515 0.0
N208 N 0.34547 0.18173 0.71732 0.0
C209 C 0.33316 0.17892 0.7813 0.0
C210 C 0.3403 0.16716 0.84286 0.0
C211 C 0.35992 0.17171 0.7406 0.0
N212 N 0.35714 0.16265 0.81732 0.0
C213 C 0.30569 0.19938 0.60013 0.0
C214 C 0.29921 0.16329 0.56951 0.0
C215 C 0.28455 0.17509 0.57847 0.0
C216 C 0.28805 0.1933 0.59352 0.0
C217 C 0.31692 0.16998 0.57792 0.0
N218 N 0.31998 0.18798 0.59037 0.0
H219 H 0.30786 0.21354 0.61187 0.0
H220 H 0.32808 0.16064 0.57671 0.0
H221 H 0.32003 0.18522 0.78375 0.0
H222 H 0.37243 0.17159 0.70378 0.0
O223 O 0.33495 0.21655 0.69678 0.0
O224 O 0.36375 0.21194 0.66754 0.0
O225 O 0.35748 0.18051 0.54304 0.0
C226 C 0.35155 0.22104 0.71056 0.0
H227 H 0.32798 0.23172 0.32935 0.0
H228 H 0.33361 0.16236 0.9021 0.0
H229 H 0.29698 0.14904 0.55921 0.0
H230 H 0.27714 0.20289 0.60022 0.0
Co231 Co 0.0619 0.09953 0.81544 0.0
C232 C 0.03401 0.0965 0.66893 0.0
C233 C 0.06074 0.09955 0.61922 0.0
C234 C 0.04908 0.10071 0.54926 0.0
N235 N 0.05159 0.0964 0.69547 0.0
N236 N 0.03224 0.09901 0.58021 0.0
H237 H 0.02266 0.09552 0.71306 0.0
H238 H 0.07501 0.10194 0.61343 0.0
C239 C 0.09784 0.11173 0.74319 0.0
O240 O 0.10556 0.09734 0.77695 0.0
N241 N 0.07225 0.10474 0.93351 0.0
C242 C 0.06444 0.10221 0.01366 0.0
C243 C 0.07541 0.10909 0.07886 0.0
C244 C 0.08773 0.11369 0.95262 0.0
N245 N 0.09011 0.11634 0.04037 0.0
C246 C 0.07603 0.06681 0.88609 0.0
C247 C 0.08642 0.05029 0.73199 0.0
C248 C 0.08604 0.04003 0.8106 0.0
C249 C 0.08174 0.04901 0.88882 0.0
C250 C 0.08136 0.06854 0.73284 0.0
N251 N 0.07558 0.07665 0.80911 0.0
H252 H 0.07067 0.07199 0.94654 0.0
H253 H 0.08183 0.07563 0.67116 0.0
H254 H 0.05164 0.09565 0.02511 0.0
H255 H 0.09706 0.11864 0.90431 0.0
O256 O 0.04114 0.08848 0.86817 0.0
O257 O 0.04345 0.11773 0.84054 0.0
O258 O 0.0812 0.11499 0.75821 0.0
C259 C 0.03404 0.10432 0.87306 0.0
H260 H 0.05266 0.10374 0.48127 0.0
H261 H 0.07246 0.10915 0.14902 0.0
H262 H 0.0897 0.04418 0.66914 0.0
H263 H 0.08173 0.04212 0.95216 0.0
Co264 Co 0.83962 0.8131 0.57615 0.0
C265 C 0.85193 0.78831 0.43523 0.0
C266 C 0.82308 0.78793 0.4488 0.0
C267 C 0.82784 0.77614 0.38295 0.0
N268 N 0.83813 0.79581 0.48061 0.0
N269 N 0.84592 0.77635 0.37476 0.0
H270 H 0.866 0.7915 0.44633 0.0
H271 H 0.80956 0.79033 0.47249 0.0
C272 C 0.85233 0.84706 0.48945 0.0
O273 O 0.84004 0.8555 0.53599 0.0
N274 N 0.84189 0.83021 0.67333 0.0
C275 C 0.82958 0.83545 0.73383 0.0
C276 C 0.8378 0.84623 0.7955 0.0
C277 C 0.85754 0.8378 0.70065 0.0
N278 N 0.85539 0.84766 0.77499 0.0
C279 C 0.80181 0.81914 0.59372 0.0
C280 C 0.79539 0.83502 0.43128 0.0
C281 C 0.78084 0.83199 0.48895 0.0
C282 C 0.78433 0.82402 0.57103 0.0
C283 C 0.81298 0.83036 0.45805 0.0
N284 N 0.81614 0.82297 0.54001 0.0
H285 H 0.80353 0.81146 0.65376 0.0
H286 H 0.82381 0.83182 0.4109 0.0
H287 H 0.81567 0.83158 0.73683 0.0
H288 H 0.87034 0.83563 0.66812 0.0
O289 O 0.83078 0.79511 0.65757 0.0
O290 O 0.85958 0.79948 0.62683 0.0
O291 O 0.85378 0.82993 0.49575 0.0
C292 C 0.84738 0.79046 0.67069 0.0
H293 H 0.81876 0.76767 0.34534 0.0
H294 H 0.83127 0.85244 0.8516 0.0
H295 H 0.79313 0.84048 0.36552 0.0
H296 H 0.77342 0.82051 0.61558 0.0
Co297 Co 0.94048 0.09728 0.31271 0.0
C298 C 0.96799 0.09564 0.16574 0.0
C299 C 0.9411 0.09799 0.11637 0.0
C300 C 0.95268 0.09959 0.04628 0.0
N301 N 0.95047 0.09503 0.19226 0.0
N302 N 0.96959 0.09835 0.07725 0.0
H303 H 0.97942 0.09484 0.20977 0.0
H304 H 0.92677 0.10016 0.11121 0.0
C305 C 0.90346 0.10864 0.24784 0.0
O306 O 0.89633 0.09441 0.28605 0.0
N307 N 0.93062 0.10139 0.43205 0.0
C308 C 0.93826 0.09697 0.51081 0.0
C309 C 0.92854 0.10443 0.57855 0.0
C310 C 0.91676 0.1123 0.45443 0.0
N311 N 0.915 0.11415 0.5431 0.0
C312 C 0.92919 0.06313 0.37748 0.0
C313 C 0.91481 0.04842 0.22639 0.0
C314 C 0.91675 0.03734 0.3019 0.0
C315 C 0.92323 0.04542 0.379 0.0
C316 C 0.92018 0.06665 0.22908 0.0
N317 N 0.92768 0.0739 0.30409 0.0
H318 H 0.93615 0.06757 0.43531 0.0
H319 H 0.9184 0.07452 0.17012 0.0
H320 H 0.95036 0.08906 0.51953 0.0
H321 H 0.90878 0.1198 0.40754 0.0
O322 O 0.96191 0.08697 0.36282 0.0
O323 O 0.95818 0.1162 0.33923 0.0
O324 O 0.92024 0.11219 0.25819 0.0
C325 C 0.96821 0.10312 0.37037 0.0
H326 H 0.94899 0.10262 0.97836 0.0
H327 H 0.93147 0.10295 0.64843 0.0
H328 H 0.90986 0.04301 0.1645 0.0
H329 H 0.92459 0.03794 0.44036 0.0
Co330 Co 0.64989 0.19158 0.11711 0.0
C331 C 0.64772 0.22349 0.99331 0.0
C332 C 0.6495 0.19833 0.92543 0.0
C333 C 0.64608 0.21152 0.86409 0.0
N334 N 0.6506 0.20563 0.00714 0.0
N335 N 0.64476 0.22733 0.90649 0.0
H336 H 0.64691 0.23337 0.04544 0.0
H337 H 0.64987 0.18418 0.91047 0.0
C338 C 0.63739 0.15537 0.04713 0.0
O339 O 0.64975 0.14721 0.09512 0.0
N340 N 0.64795 0.17731 0.22525 0.0
C341 C 0.65875 0.1769 0.29747 0.0
C342 C 0.65059 0.16678 0.36266 0.0
C343 C 0.63317 0.16783 0.24914 0.0
N344 N 0.63451 0.16107 0.33206 0.0
C345 C 0.68761 0.18763 0.1446 0.0
C346 C 0.69661 0.16622 1.0031 0.0
C347 C 0.7104 0.17314 0.05709 0.0
C348 C 0.70554 0.18344 0.12988 0.0
C349 C 0.67844 0.17055 0.02134 0.0
N350 N 0.67401 0.1814 0.09144 0.0
H351 H 0.68515 0.19677 0.19783 0.0
H352 H 0.66829 0.16554 0.97691 0.0
H353 H 0.67124 0.18406 0.30575 0.0
H354 H 0.62127 0.16659 0.20798 0.0
O355 O 0.65848 0.21164 0.18516 0.0
O356 O 0.62966 0.20634 0.16055 0.0
O357 O 0.63583 0.1725 0.04971 0.0
C358 C 0.64198 0.21598 0.20031 0.0
H359 H 0.6444 0.20956 0.79352 0.0
H360 H 0.656 0.16407 0.42802 0.0
H361 H 0.69987 0.15835 0.94511 0.0
H362 H 0.71573 0.18917 0.17302 0.0
Co363 Co 0.56349 0.9071 0.75266 0.0
C364 C 0.53506 0.90534 0.60858 0.0
C365 C 0.56193 0.90861 0.55861 0.0
C366 C 0.55032 0.90734 0.4879 0.0
N367 N 0.55245 0.90765 0.63472 0.0
N368 N 0.53344 0.90522 0.51913 0.0
H369 H 0.52378 0.9039 0.65322 0.0
H370 H 0.57641 0.91017 0.55476 0.0
C371 C 0.59909 0.88942 0.69932 0.0
O372 O 0.60869 0.90062 0.7466 0.0
N373 N 0.57452 0.90482 0.86931 0.0
C374 C 0.57351 0.91613 0.93883 0.0
C375 C 0.58354 0.90904 0.00797 0.0
C376 C 0.58443 0.89075 0.89848 0.0
N377 N 0.59055 0.89317 0.98183 0.0
C378 C 0.59201 0.93471 0.77542 0.0
C379 C 0.5742 0.96023 0.67521 0.0
C380 C 0.589 0.96565 0.72598 0.0
C381 C 0.59813 0.95259 0.77552 0.0
C382 C 0.56825 0.94243 0.67877 0.0
N383 N 0.57709 0.92955 0.72758 0.0
H384 H 0.59859 0.92573 0.82098 0.0
H385 H 0.55544 0.93967 0.64799 0.0
H386 H 0.56641 0.92884 0.93845 0.0
H387 H 0.58698 0.87881 0.85991 0.0
O388 O 0.54335 0.91917 0.80381 0.0
O389 O 0.54562 0.88946 0.79149 0.0
O390 O 0.58189 0.89027 0.69849 0.0
C391 C 0.53645 0.90341 0.81863 0.0
H392 H 0.55403 0.90775 0.41859 0.0
H393 H 0.58589 0.91533 0.07151 0.0
H394 H 0.56627 0.97001 0.63866 0.0
H395 H 0.60939 0.95632 0.81747 0.0
Co396 Co 0.84921 0.18936 0.93682 0.0
C397 C 0.85536 0.22104 0.05684 0.0
C398 C 0.84634 0.19748 0.12586 0.0
C399 C 0.85125 0.2101 0.18732 0.0
N400 N 0.84883 0.20417 0.04344 0.0
N401 N 0.8571 0.22486 0.14422 0.0
H402 H 0.85965 0.23005 1.00459 0.0
H403 H 0.84245 0.18387 0.14164 0.0
C404 C 0.86045 0.15276 0.00809 0.0
O405 O 0.84925 0.1449 0.95283 0.0
N406 N 0.8506 0.17424 0.8325 0.0
C407 C 0.83781 0.16947 0.77333 0.0
C408 C 0.84552 0.15862 0.71018 0.0
C409 C 0.86589 0.16647 0.80344 0.0
N410 N 0.8632 0.15669 0.72928 0.0
C411 C 0.81117 0.18936 0.91153 0.0
C412 C 0.80063 0.16505 0.03968 0.0
C413 C 0.78735 0.17403 0.98986 0.0
C414 C 0.793 0.18588 0.92371 0.0
C415 C 0.81907 0.16877 0.0243 0.0
N416 N 0.82427 0.18105 0.96101 0.0
H417 H 0.81437 0.19874 0.85961 0.0
H418 H 0.82882 0.16207 0.06561 0.0
H419 H 0.82386 0.17341 0.77445 0.0
H420 H 0.87874 0.16806 0.83646 0.0
O421 O 0.84271 0.20946 0.86263 0.0
O422 O 0.87082 0.20234 0.89394 0.0
O423 O 0.86151 0.16994 0.01054 0.0
C424 C 0.85958 0.21254 0.84994 0.0
H425 H 0.85085 0.20839 0.25857 0.0
H426 H 0.83849 0.15243 0.65531 0.0
H427 H 0.79683 0.15581 0.09217 0.0
H428 H 0.7833 0.19286 0.88215 0.0
Co429 Co 0.55689 0.10034 0.74104 0.0
C430 C 0.52752 0.10226 0.87815 0.0
C431 C 0.55309 0.0941 0.93116 0.0
C432 C 0.5412 0.09571 0.99985 0.0
N433 N 0.54461 0.09796 0.85427 0.0
N434 N 0.52513 0.10086 0.9669 0.0
H435 H 0.51708 0.10645 0.83243 0.0
H436 H 0.56722 0.09116 0.93836 0.0
C437 C 0.59375 0.11497 0.79664 0.0
O438 O 0.60174 0.10521 0.73591 0.0
N439 N 0.56934 0.10325 0.62904 0.0
C440 C 0.57054 0.09141 0.56184 0.0
C441 C 0.58027 0.09916 0.49408 0.0
C442 C 0.57782 0.11822 0.59993 0.0
N443 N 0.58497 0.11597 0.51852 0.0
C444 C 0.55952 0.06235 0.71668 0.0
C445 C 0.59093 0.0552 0.80784 0.0
C446 C 0.58282 0.04143 0.75862 0.0
C447 C 0.56671 0.04515 0.71482 0.0
C448 C 0.58332 0.0726 0.80693 0.0
N449 N 0.56808 0.07632 0.7583 0.0
H450 H 0.54715 0.06416 0.68086 0.0
H451 H 0.58975 0.08268 0.8467 0.0
H452 H 0.56471 0.0781 0.56098 0.0
H453 H 0.57885 0.13049 0.63804 0.0
O454 O 0.53596 0.0922 0.6772 0.0
O455 O 0.54111 0.12071 0.70711 0.0
O456 O 0.5766 0.11419 0.80634 0.0
C457 C 0.53105 0.1087 0.6678 0.0
H458 H 0.54434 0.09382 0.06936 0.0
H459 H 0.58398 0.09274 0.43254 0.0
H460 H 0.60313 0.05264 0.84541 0.0
H461 H 0.5596 0.03472 0.67878 0.0
Co462 Co 0.6449 0.80863 0.3674 0.0
C463 C 0.64948 0.77759 0.50134 0.0
C464 C 0.62396 0.79096 0.50196 0.0
C465 C 0.62323 0.77713 0.56188 0.0
N466 N 0.64045 0.79166 0.46451 0.0
N467 N 0.63922 0.7686 0.5617 0.0
H468 H 0.66286 0.77345 0.48296 0.0
H469 H 0.6129 0.79984 0.48531 0.0
C470 C 0.63551 0.83153 0.51948 0.0
O471 O 0.64793 0.82248 0.56301 0.0
N472 N 0.64716 0.82561 0.2709 0.0
C473 C 0.6601 0.82713 0.20892 0.0
C474 C 0.65462 0.83981 0.14703 0.0
C475 C 0.6341 0.83719 0.24623 0.0
N476 N 0.63825 0.84611 0.17095 0.0
C477 C 0.68197 0.80342 0.40981 0.0
C478 C 0.69109 0.83919 0.43226 0.0
C479 C 0.70484 0.82627 0.42941 0.0
C480 C 0.70002 0.80819 0.41947 0.0
C481 C 0.67306 0.83384 0.42096 0.0
N482 N 0.66861 0.81604 0.411 0.0
H483 H 0.67901 0.78961 0.39453 0.0
H484 H 0.66282 0.84412 0.4154 0.0
H485 H 0.67234 0.81924 0.2074 0.0
H486 H 0.62135 0.83837 0.28046 0.0
O487 O 0.65349 0.78982 0.29317 0.0
O488 O 0.62466 0.79734 0.30484 0.0
O489 O 0.63216 0.82778 0.43845 0.0
C490 C 0.637 0.78711 0.26941 0.0
H491 H 0.61174 0.7737 0.60269 0.0
H492 H 0.66199 0.84387 0.08841 0.0
H493 H 0.69431 0.85335 0.43865 0.0
H494 H 0.71023 0.79778 0.41667 0.0
Co495 Co 0.93526 0.90175 0.19839 0.0
C496 C 0.96579 0.90286 0.3317 0.0
C497 C 0.94101 0.89366 0.38841 0.0
C498 C 0.95443 0.89123 0.4498 0.0
N499 N 0.9479 0.90098 0.3134 0.0
N500 N 0.97005 0.89682 0.41427 0.0
H501 H 0.97568 0.9076 0.28449 0.0
H502 H 0.92719 0.88961 0.3985 0.0
C503 C 0.89866 0.88997 0.26054 0.0
O504 O 0.89202 0.90435 0.22142 0.0
N505 N 0.92284 0.90079 0.08288 0.0
C506 C 0.92776 0.90882 0.00576 0.0
C507 C 0.91773 0.90197 0.93711 0.0
C508 C 0.91047 0.88839 0.05754 0.0
N509 N 0.90683 0.88909 0.96978 0.0
C510 C 0.92445 0.93797 0.16713 0.0
C511 C 0.91154 0.94627 0.33274 0.0
C512 C 0.9126 0.95991 0.26806 0.0
C513 C 0.91872 0.95539 0.18404 0.0
C514 C 0.9168 0.92858 0.31164 0.0
N515 N 0.92338 0.92457 0.22927 0.0
H516 H 0.93102 0.93585 0.10528 0.0
H517 H 0.91596 0.91837 0.36234 0.0
H518 H 0.93864 0.91832 0.99754 0.0
H519 H 0.90513 0.87806 0.10059 0.0
O520 O 0.95558 0.91288 0.14315 0.0
O521 O 0.95174 0.88335 0.15313 0.0
O522 O 0.91545 0.8863 0.25295 0.0
C523 C 0.96119 0.89695 0.12291 0.0
H524 H 0.95285 0.88553 0.51549 0.0
H525 H 0.91876 0.90589 0.86816 0.0
H526 H 0.90715 0.94936 0.39935 0.0
H527 H 0.9205 0.96563 0.13335 0.0
Co528 Co 0.6672 0.68847 0.89522 0.0
C529 C 0.65677 0.72039 1.00303 0.0
C530 C 0.66997 0.70015 0.08082 0.0
C531 C 0.66296 0.71277 0.13708 0.0
N532 N 0.66619 0.70479 0.99612 0.0
N533 N 0.6545 0.72538 0.08826 0.0
H534 H 0.65062 0.72744 0.94803 0.0
H535 H 0.67615 0.6878 0.10228 0.0
C536 C 0.65461 0.6529 0.97378 0.0
O537 O 0.6661 0.6442 0.92353 0.0
N538 N 0.66708 0.67208 0.79579 0.0
C539 C 0.68011 0.66818 0.73667 0.0
C540 C 0.67309 0.65667 0.67395 0.0
C541 C 0.65232 0.66323 0.76707 0.0
N542 N 0.65564 0.65352 0.69365 0.0
C543 C 0.70566 0.68805 0.88366 0.0
C544 C 0.71359 0.6636 0.01578 0.0
C545 C 0.72773 0.67106 0.96613 0.0
C546 C 0.72352 0.68335 0.89943 0.0
C547 C 0.69564 0.66828 0.99594 0.0
N548 N 0.69169 0.68043 0.92993 0.0
H549 H 0.70337 0.69771 0.83172 0.0
H550 H 0.68522 0.66242 0.03621 0.0
H551 H 0.69364 0.67349 0.73692 0.0
H552 H 0.63929 0.66418 0.79883 0.0
O553 O 0.67461 0.70775 0.81752 0.0
O554 O 0.64625 0.7005 0.84162 0.0
O555 O 0.65398 0.67011 0.97149 0.0
C556 C 0.65785 0.7106 0.79941 0.0
H557 H 0.6636 0.71242 0.20874 0.0
H558 H 0.68029 0.65104 0.6183 0.0
H559 H 0.71639 0.65426 0.06939 0.0
H560 H 0.73406 0.68974 0.86078 0.0
Co561 Co 0.56972 0.41132 0.24221 0.0
C562 C 0.54314 0.40913 0.39325 0.0
C563 C 0.56654 0.42455 0.42703 0.0
C564 C 0.55547 0.42382 0.49939 0.0
N565 N 0.55895 0.41541 0.35944 0.0
N566 N 0.54062 0.41425 0.47852 0.0
H567 H 0.53347 0.40128 0.35625 0.0
H568 H 0.579 0.43195 0.42433 0.0
C569 C 0.60283 0.40212 0.35211 0.0
O570 O 0.60566 0.41929 0.36589 0.0
N571 N 0.58033 0.40649 0.12754 0.0
C572 C 0.5785 0.41632 0.05282 0.0
C573 C 0.58799 0.40805 0.98603 0.0
C574 C 0.59076 0.39235 0.10522 0.0
N575 N 0.59573 0.39299 0.01905 0.0
C576 C 0.59902 0.43713 0.20913 0.0
C577 C 0.57732 0.46646 0.24474 0.0
C578 C 0.59428 0.4694 0.20763 0.0
C579 C 0.60546 0.45459 0.19141 0.0
C580 C 0.57154 0.44901 0.26219 0.0
N581 N 0.58225 0.43449 0.24503 0.0
H582 H 0.60727 0.42571 0.19137 0.0
H583 H 0.55789 0.44711 0.28527 0.0
H584 H 0.57094 0.42872 0.04754 0.0
H585 H 0.59444 0.38169 0.15082 0.0
O586 O 0.54871 0.42077 0.18508 0.0
O587 O 0.55243 0.39192 0.21926 0.0
O588 O 0.58971 0.39697 0.30284 0.0
C589 C 0.5425 0.40452 0.18309 0.0
H590 H 0.55821 0.4301 0.56252 0.0
H591 H 0.58937 0.41298 0.91879 0.0
H592 H 0.56832 0.47763 0.25782 0.0
H593 H 0.61865 0.45645 0.16221 0.0
Co594 Co 0.85501 0.31142 0.42856 0.0
C595 C 0.85755 0.27938 0.5519 0.0
C596 C 0.85063 0.30381 0.61818 0.0
C597 C 0.85385 0.29083 0.68109 0.0
N598 N 0.85294 0.29683 0.53652 0.0
N599 N 0.85835 0.27549 0.63977 0.0
H600 H 0.86107 0.26989 0.50083 0.0
H601 H 0.84786 0.31772 0.6325 0.0
C602 C 0.86918 0.34728 0.49675 0.0
O603 O 0.86035 0.35621 0.43523 0.0
N604 N 0.858 0.32608 0.32233 0.0
C605 C 0.84643 0.32858 0.25424 0.0
C606 C 0.85479 0.33877 0.18979 0.0
C607 C 0.8734 0.33439 0.29687 0.0
N608 N 0.87166 0.34252 0.21719 0.0
C609 C 0.8171 0.31362 0.39975 0.0
C610 C 0.80785 0.33813 0.52826 0.0
C611 C 0.79411 0.32935 0.48088 0.0
C612 C 0.79908 0.31754 0.41393 0.0
C613 C 0.8261 0.33398 0.51079 0.0
N614 N 0.83061 0.32136 0.44852 0.0
H615 H 0.8198 0.30388 0.34924 0.0
H616 H 0.83627 0.34042 0.5505 0.0
H617 H 0.83298 0.32318 0.24964 0.0
H618 H 0.88568 0.33441 0.33581 0.0
O619 O 0.84763 0.29166 0.35567 0.0
O620 O 0.876 0.29714 0.39051 0.0
O621 O 0.86784 0.33016 0.50313 0.0
C622 C 0.86436 0.28757 0.34592 0.0
H623 H 0.85318 0.29262 0.75216 0.0
H624 H 0.84886 0.34322 0.12786 0.0
H625 H 0.80454 0.34738 0.58101 0.0
H626 H 0.78896 0.31066 0.37468 0.0
Co627 Co 0.95405 0.59934 0.70983 0.0
C628 C 0.98612 0.60357 0.83135 0.0
C629 C 0.9613 0.59846 0.89984 0.0
C630 C 0.97447 0.60182 0.96167 0.0
N631 N 0.96847 0.59965 0.81791 0.0
N632 N 0.99002 0.60509 0.91869 0.0
H633 H 0.99583 0.60576 0.7791 0.0
H634 H 0.94727 0.59566 0.91378 0.0
C635 C 0.91849 0.61686 0.76919 0.0
O636 O 0.90962 0.61053 0.70089 0.0
N637 N 0.93959 0.6002 0.60289 0.0
C638 C 0.93398 0.58687 0.54917 0.0
C639 C 0.92346 0.59433 0.48276 0.0
C640 C 0.93336 0.61551 0.56582 0.0
N641 N 0.92288 0.61234 0.49445 0.0
C642 C 0.92607 0.57112 0.73895 0.0
C643 C 0.95138 0.54556 0.78648 0.0
C644 C 0.9334 0.54015 0.77712 0.0
C645 C 0.92061 0.55321 0.75346 0.0
C646 C 0.95627 0.56336 0.76979 0.0
N647 N 0.9438 0.57604 0.74616 0.0
H648 H 0.91608 0.58045 0.71679 0.0
H649 H 0.97041 0.56681 0.77269 0.0
H650 H 0.93694 0.57273 0.55862 0.0
H651 H 0.9358 0.6287 0.59365 0.0
O652 O 0.97335 0.5894 0.6409 0.0
O653 O 0.96903 0.61863 0.65969 0.0
O654 O 0.93543 0.61398 0.77876 0.0
C655 C 0.97821 0.60572 0.62219 0.0
H656 H 0.97281 0.60171 0.03293 0.0
H657 H 0.9162 0.58697 0.43223 0.0
H658 H 0.96184 0.5359 0.80253 0.0
H659 H 0.90658 0.54956 0.74458 0.0
Co660 Co 0.65568 0.31423 0.61665 0.0
C661 C 0.65061 0.28281 0.49264 0.0
C662 C 0.65528 0.30775 0.42485 0.0
C663 C 0.65082 0.295 0.3632 0.0
N664 N 0.65522 0.3003 0.50668 0.0
N665 N 0.64771 0.27933 0.40548 0.0
H666 H 0.64857 0.273 0.54479 0.0
H667 H 0.6573 0.32181 0.41006 0.0
C668 C 0.64614 0.35162 0.55593 0.0
O669 O 0.65848 0.35789 0.61033 0.0
N670 N 0.65489 0.32839 0.72511 0.0
C671 C 0.6671 0.33023 0.79098 0.0
C672 C 0.65981 0.34084 0.85647 0.0
C673 C 0.64024 0.33755 0.75307 0.0
N674 N 0.64294 0.34551 0.83233 0.0
C675 C 0.69379 0.31436 0.64076 0.0
C676 C 0.70401 0.33747 0.50666 0.0
C677 C 0.71743 0.32896 0.55755 0.0
C678 C 0.71196 0.31769 0.62653 0.0
C679 C 0.68563 0.33391 0.52404 0.0
N680 N 0.68058 0.32236 0.59087 0.0
H681 H 0.69067 0.30497 0.69282 0.0
H682 H 0.67577 0.34019 0.48177 0.0
H683 H 0.68027 0.32421 0.79365 0.0
H684 H 0.62774 0.33818 0.7161 0.0
O685 O 0.66229 0.29346 0.68504 0.0
O686 O 0.63409 0.3014 0.65908 0.0
O687 O 0.64363 0.33465 0.54966 0.0
C688 C 0.64541 0.29071 0.69961 0.0
H689 H 0.6497 0.29719 0.29244 0.0
H690 H 0.66654 0.34492 0.91684 0.0
H691 H 0.70766 0.34617 0.45176 0.0
H692 H 0.72176 0.31092 0.66832 0.0
Co693 Co 0.94844 0.40274 0.8093 0.0
C694 C 0.9795 0.39839 0.68299 0.0
C695 C 0.95469 0.4055 0.61857 0.0
C696 C 0.96742 0.40225 0.55457 0.0
N697 N 0.96215 0.40298 0.6993 0.0
N698 N 0.98297 0.39773 0.59505 0.0
H699 H 0.98931 0.39517 0.73355 0.0
H700 H 0.94078 0.40916 0.60687 0.0
C701 C 0.91211 0.38595 0.75323 0.0
O702 O 0.90387 0.39101 0.82565 0.0
N703 N 0.93475 0.40156 0.9185 0.0
C704 C 0.93089 0.41474 0.97658 0.0
C705 C 0.92141 0.4073 0.04662 0.0
C706 C 0.92847 0.38628 0.95607 0.0
N707 N 0.91973 0.38944 0.03262 0.0
C708 C 0.95195 0.43924 0.76361 0.0
C709 C 0.91666 0.45019 0.78511 0.0
C710 C 0.93019 0.4632 0.77391 0.0
C711 C 0.94788 0.45748 0.76031 0.0
C712 C 0.92136 0.43182 0.78816 0.0
N713 N 0.93898 0.42661 0.78013 0.0
H714 H 0.96591 0.43531 0.75783 0.0
H715 H 0.91102 0.42216 0.80274 0.0
H716 H 0.93452 0.42875 0.96833 0.0
H717 H 0.92965 0.37315 0.92577 0.0
O718 O 0.96855 0.41131 0.87722 0.0
O719 O 0.96292 0.38244 0.8532 0.0
O720 O 0.92877 0.38965 0.73969 0.0
C721 C 0.97284 0.3947 0.89185 0.0
H722 H 0.96545 0.40334 0.48364 0.0
H723 H 0.9156 0.41455 0.10164 0.0
H724 H 0.90282 0.45419 0.79624 0.0
H725 H 0.95868 0.46715 0.75107 0.0
Co726 Co 0.86346 0.69244 0.09199 0.0
C727 C 0.85583 0.72071 0.95299 0.0
C728 C 0.8751 0.70113 0.91055 0.0
C729 C 0.8743 0.71445 0.84789 0.0
N730 N 0.86355 0.70488 0.97723 0.0
N731 N 0.86241 0.7269 0.8748 0.0
H732 H 0.84635 0.72802 0.99344 0.0
H733 H 0.88432 0.68994 0.90785 0.0
C734 C 0.87555 0.65696 0.01977 0.0
O735 O 0.86061 0.64978 0.05028 0.0
N736 N 0.8657 0.68044 0.2076 0.0
C737 C 0.85927 0.68611 0.28656 0.0
C738 C 0.86636 0.67555 0.3533 0.0
C739 C 0.87724 0.66698 0.229 0.0
N740 N 0.87767 0.66351 0.31679 0.0
C741 C 0.82996 0.67344 0.12896 0.0
C742 C 0.81656 0.67392 0.95876 0.0
C743 C 0.8048 0.66939 0.0285 0.0
C744 C 0.81222 0.66813 0.11353 0.0
C745 C 0.83462 0.67846 0.97666 0.0
N746 N 0.84099 0.67927 0.06193 0.0
H747 H 0.83413 0.67341 0.19666 0.0
H748 H 0.84307 0.68202 0.92132 0.0
H749 H 0.85013 0.69727 0.29567 0.0
H750 H 0.88624 0.66061 0.18294 0.0
O751 O 0.85147 0.71242 0.14485 0.0
O752 O 0.88119 0.71011 0.13436 0.0
O753 O 0.87949 0.67334 0.03743 0.0
C754 C 0.86716 0.71941 0.1598 0.0
H755 H 0.88227 0.71515 0.78799 0.0
H756 H 0.86357 0.67685 0.42333 0.0
H757 H 0.81177 0.67489 0.89115 0.0
H758 H 0.8042 0.6638 0.16955 0.0
Co759 Co 0.57247 0.60238 0.28563 0.0
C760 C 0.54037 0.60454 0.16427 0.0
C761 C 0.56485 0.61234 0.09972 0.0
C762 C 0.55074 0.61619 0.04405 0.0
N763 N 0.55852 0.60506 0.17596 0.0
N764 N 0.53536 0.61146 0.08478 0.0
H765 H 0.53088 0.60009 0.21409 0.0
H766 H 0.57875 0.61546 0.08531 0.0
C767 C 0.60933 0.61239 0.21758 0.0
O768 O 0.61571 0.59782 0.25608 0.0
N769 N 0.58641 0.60111 0.39587 0.0
C770 C 0.58282 0.59158 0.47049 0.0
C771 C 0.59422 0.59706 0.53719 0.0
C772 C 0.59934 0.61292 0.42087 0.0
N773 N 0.60464 0.61046 0.50559 0.0
C774 C 0.57939 0.56493 0.30135 0.0
C775 C 0.5961 0.55903 0.1411 0.0
C776 C 0.59448 0.54474 0.20178 0.0
C777 C 0.58584 0.54789 0.28208 0.0
C778 C 0.58978 0.57625 0.16439 0.0
N779 N 0.58208 0.57919 0.24557 0.0
H780 H 0.57168 0.56637 0.36073 0.0
H781 H 0.59128 0.5871 0.11734 0.0
H782 H 0.57181 0.58224 0.47939 0.0
H783 H 0.60388 0.62406 0.38046 0.0
O784 O 0.55179 0.59274 0.3462 0.0
O785 O 0.55841 0.62174 0.33957 0.0
O786 O 0.59273 0.61668 0.22741 0.0
C787 C 0.54787 0.60899 0.36988 0.0
H788 H 0.55171 0.62225 0.97882 0.0
H789 H 0.59433 0.59201 0.60456 0.0
H790 H 0.60219 0.55691 0.07684 0.0
H791 H 0.58342 0.537 0.32869 0.0
Co792 Co 0.36332 0.31933 0.13117 0.0
C793 C 0.35792 0.28971 0.99754 0.0
C794 C 0.3746 0.31115 0.94907 0.0
C795 C 0.37474 0.29763 0.88802 0.0
N796 N 0.36404 0.30639 0.01842 0.0
N797 N 0.36448 0.28405 0.91857 0.0
H798 H 0.34963 0.28153 0.04074 0.0
H799 H 0.38242 0.32333 0.94292 0.0
C800 C 0.37208 0.35558 0.05379 0.0
O801 O 0.3568 0.36176 0.08509 0.0
N802 N 0.36474 0.3322 0.24429 0.0
C803 C 0.35876 0.32657 0.32442 0.0
C804 C 0.36584 0.33739 0.38945 0.0
C805 C 0.37615 0.34591 0.26351 0.0
N806 N 0.37688 0.34954 0.35104 0.0
C807 C 0.3275 0.3322 0.16788 0.0
C808 C 0.31585 0.33607 0.99549 0.0
C809 C 0.30314 0.33769 0.06426 0.0
C810 C 0.30959 0.33661 0.15128 0.0
C811 C 0.33406 0.33241 0.01533 0.0
N812 N 0.33969 0.32994 0.1011 0.0
H813 H 0.33096 0.32971 0.23544 0.0
H814 H 0.34339 0.33098 0.96113 0.0
H815 H 0.35026 0.31495 0.33585 0.0
H816 H 0.38502 0.35219 0.21603 0.0
O817 O 0.3537 0.29853 0.18944 0.0
O818 O 0.38298 0.30397 0.17433 0.0
O819 O 0.3772 0.33955 0.07212 0.0
C820 C 0.37013 0.29351 0.20422 0.0
H821 H 0.38211 0.29769 0.82619 0.0
H822 H 0.36342 0.33599 0.4598 0.0
H823 H 0.31176 0.33681 0.92672 0.0
H824 H 0.30076 0.3384 0.20749 0.0
Co825 Co 0.44721 0.6091 0.79134 0.0
C826 C 0.47882 0.60842 0.65886 0.0
C827 C 0.46346 0.63272 0.66173 0.0
C828 C 0.47741 0.63517 0.60393 0.0
N829 N 0.46374 0.61579 0.69496 0.0
N830 N 0.48717 0.61995 0.60178 0.0
H831 H 0.48437 0.59553 0.67709 0.0
H832 H 0.45404 0.64307 0.68091 0.0
C833 C 0.42289 0.62297 0.65103 0.0
O834 O 0.43063 0.61125 0.59845 0.0
N835 N 0.43063 0.60471 0.88816 0.0
C836 C 0.42954 0.59069 0.94489 0.0
C837 C 0.4159 0.59413 0.00504 0.0
C838 C 0.41782 0.61639 0.91444 0.0
N839 N 0.4085 0.61026 0.98498 0.0
C840 C 0.45102 0.57405 0.71738 0.0
C841 C 0.4149 0.56496 0.72189 0.0
C842 C 0.42769 0.55139 0.70762 0.0
C843 C 0.44587 0.5563 0.70211 0.0
C844 C 0.42064 0.58282 0.73405 0.0
N845 N 0.43862 0.58712 0.73414 0.0
H846 H 0.46513 0.5767 0.72506 0.0
H847 H 0.41071 0.59286 0.75092 0.0
H848 H 0.43811 0.57892 0.94312 0.0
H849 H 0.41572 0.62947 0.88432 0.0
O850 O 0.46626 0.59796 0.85725 0.0
O851 O 0.45956 0.627 0.86432 0.0
O852 O 0.42792 0.62413 0.73191 0.0
C853 C 0.46959 0.61356 0.89119 0.0
H854 H 0.48019 0.64736 0.56686 0.0
H855 H 0.41176 0.58547 0.05919 0.0
H856 H 0.40072 0.56168 0.7276 0.0
H857 H 0.45625 0.5462 0.69409 0.0
Co858 Co 0.16265 0.69484 0.60736 0.0
C859 C 0.16124 0.72705 0.47578 0.0
C860 C 0.13818 0.7098 0.48064 0.0
C861 C 0.13443 0.72355 0.42346 0.0
N862 N 0.1551 0.71146 0.51287 0.0
N863 N 0.14881 0.73454 0.42016 0.0
H864 H 0.17393 0.73337 0.49132 0.0
H865 H 0.12874 0.6994 0.49991 0.0
C866 C 0.15374 0.6712 0.45715 0.0
O867 O 0.16528 0.68098 0.41167 0.0
N868 N 0.16736 0.67778 0.70182 0.0
C869 C 0.17978 0.67805 0.76706 0.0
C870 C 0.175 0.66526 0.83012 0.0
C871 C 0.15535 0.66502 0.72586 0.0
N872 N 0.15961 0.65711 0.80361 0.0
C873 C 0.19795 0.70387 0.54755 0.0
C874 C 0.21122 0.66926 0.53334 0.0
C875 C 0.22332 0.6838 0.52726 0.0
C876 C 0.21626 0.70125 0.53189 0.0
C877 C 0.19279 0.67252 0.54886 0.0
N878 N 0.18632 0.68973 0.55594 0.0
H879 H 0.19352 0.71736 0.56033 0.0
H880 H 0.18392 0.66118 0.56016 0.0
H881 H 0.19086 0.68749 0.7711 0.0
H882 H 0.14287 0.6626 0.6906 0.0
O883 O 0.17068 0.71416 0.68057 0.0
O884 O 0.14251 0.70421 0.67727 0.0
O885 O 0.15075 0.67477 0.53857 0.0
C886 C 0.15443 0.71531 0.71044 0.0
H887 H 0.12195 0.72532 0.38722 0.0
H888 H 0.18194 0.66265 0.89199 0.0
H889 H 0.21608 0.65553 0.53118 0.0
H890 H 0.22498 0.71293 0.52727 0.0
Co891 Co 0.0716 0.40361 0.3103 0.0
C892 C 0.04056 0.39875 0.18335 0.0
C893 C 0.06511 0.4068 0.11967 0.0
C894 C 0.05245 0.40329 0.05533 0.0
N895 N 0.05778 0.4039 0.20019 0.0
N896 N 0.03704 0.39816 0.09528 0.0
H897 H 0.03091 0.39498 0.23362 0.0
H898 H 0.07895 0.4108 0.10834 0.0
C899 C 0.10743 0.38583 0.25674 0.0
O900 O 0.11566 0.39054 0.32997 0.0
N901 N 0.08531 0.40257 0.41991 0.0
C902 C 0.08977 0.4161 0.47511 0.0
C903 C 0.09936 0.40901 0.5457 0.0
C904 C 0.09132 0.38744 0.46002 0.0
N905 N 0.10052 0.39102 0.53506 0.0
C906 C 0.06918 0.44044 0.26653 0.0
C907 C 0.10527 0.44949 0.27732 0.0
C908 C 0.0924 0.46318 0.26893 0.0
C909 C 0.07424 0.45846 0.26123 0.0
C910 C 0.09958 0.43147 0.28288 0.0
N911 N 0.08164 0.42718 0.28005 0.0
H912 H 0.05499 0.43716 0.26386 0.0
H913 H 0.10956 0.42133 0.29465 0.0
H914 H 0.08659 0.43014 0.46418 0.0
H915 H 0.08986 0.37412 0.43197 0.0
O916 O 0.05167 0.41252 0.37769 0.0
O917 O 0.05694 0.38354 0.35452 0.0
O918 O 0.09098 0.39014 0.24156 0.0
C919 C 0.04721 0.39594 0.3927 0.0
H920 H 0.05439 0.40453 0.98449 0.0
H921 H 0.10573 0.41657 0.59836 0.0
H922 H 0.11944 0.45275 0.28386 0.0
H923 H 0.06395 0.46872 0.25439 0.0
Co924 Co 0.3581 0.69521 0.34973 0.0
C925 C 0.35886 0.72654 0.48352 0.0
C926 C 0.38435 0.71527 0.44841 0.0
C927 C 0.38741 0.72906 0.50635 0.0
N928 N 0.36649 0.71348 0.43345 0.0
N929 N 0.37143 0.73621 0.52881 0.0
H930 H 0.34461 0.729 0.48821 0.0
H931 H 0.39463 0.70704 0.41815 0.0
C932 C 0.37269 0.67461 0.50321 0.0
O933 O 0.36284 0.68484 0.55482 0.0
N934 N 0.3522 0.6766 0.26537 0.0
C935 C 0.3387 0.67563 0.20568 0.0
C936 C 0.34261 0.66191 0.14669 0.0
C937 C 0.36394 0.66362 0.24226 0.0
N938 N 0.35848 0.65438 0.17049 0.0
C939 C 0.32345 0.70373 0.41763 0.0
C940 C 0.31294 0.66938 0.46582 0.0
C941 C 0.3004 0.68348 0.47182 0.0
C942 C 0.30599 0.70081 0.44805 0.0
C943 C 0.33065 0.67301 0.43694 0.0
N944 N 0.3358 0.69015 0.4143 0.0
H945 H 0.32664 0.71689 0.39174 0.0
H946 H 0.33991 0.66193 0.42867 0.0
H947 H 0.32746 0.68486 0.20197 0.0
H948 H 0.37706 0.66197 0.27265 0.0
O949 O 0.34814 0.71318 0.2724 0.0
O950 O 0.37655 0.7041 0.26752 0.0
O951 O 0.37224 0.67684 0.41929 0.0
C952 C 0.36383 0.71446 0.23602 0.0
H953 H 0.4005 0.7337 0.52833 0.0
H954 H 0.33478 0.65828 0.08885 0.0
H955 H 0.30903 0.6557 0.48193 0.0
H956 H 0.29661 0.71198 0.44844 0.0
Co957 Co 0.07871 0.60053 0.20723 0.0
C958 C 0.04657 0.60474 0.32951 0.0
C959 C 0.07191 0.60339 0.39797 0.0
C960 C 0.05861 0.60656 0.45906 0.0
N961 N 0.06452 0.60238 0.31626 0.0
N962 N 0.0427 0.60744 0.41626 0.0
H963 H 0.03654 0.60468 0.27743 0.0
H964 H 0.0861 0.60187 0.41262 0.0
C965 C 0.115 0.61583 0.26882 0.0
O966 O 0.12407 0.60531 0.21586 0.0
N967 N 0.093 0.60037 0.0991 0.0
C968 C 0.0942 0.5876 0.03618 0.0
C969 C 0.10556 0.59375 0.96999 0.0
C970 C 0.10279 0.61437 0.06795 0.0
N971 N 0.11112 0.61053 0.99094 0.0
C972 C 0.10448 0.56995 0.21869 0.0
C973 C 0.08015 0.5477 0.30368 0.0
C974 C 0.09638 0.54029 0.27442 0.0
C975 C 0.10875 0.55173 0.23239 0.0
C976 C 0.07633 0.56579 0.28779 0.0
N977 N 0.08839 0.57702 0.24659 0.0
H978 H 0.11361 0.57754 0.17847 0.0
H979 H 0.06288 0.57024 0.30307 0.0
H980 H 0.08752 0.57465 0.03884 0.0
H981 H 0.10382 0.6272 0.10128 0.0
O982 O 0.05893 0.59053 0.14209 0.0
O983 O 0.06435 0.61983 0.15456 0.0
O984 O 0.09776 0.61539 0.27091 0.0
C985 C 0.05462 0.60688 0.12061 0.0
H986 H 0.06042 0.60771 0.53002 0.0
H987 H 0.10968 0.58631 0.912 0.0
H988 H 0.0698 0.53931 0.33316 0.0
H989 H 0.12132 0.54651 0.2068 0.0
Co990 Co 0.16682 0.31438 0.92895 0.0
C991 C 0.16062 0.28232 0.04708 0.0
C992 C 0.17292 0.30427 0.11597 0.0
C993 C 0.16806 0.29139 0.17695 0.0
N994 N 0.16836 0.29874 0.03375 0.0
N995 N 0.16017 0.27765 0.13393 0.0
H996 H 0.15436 0.27437 0.99572 0.0
H997 H 0.17818 0.3173 0.13285 0.0
C998 C 0.15127 0.3492 0.99977 0.0
O999 O 0.15999 0.35873 0.94017 0.0
N1000 N 0.16416 0.32983 0.82539 0.0
C1001 C 0.1761 0.33343 0.76026 0.0
C1002 C 0.16766 0.34358 0.69563 0.0
C1003 C 0.14854 0.33743 0.79803 0.0
N1004 N 0.15041 0.34619 0.72018 0.0
C1005 C 0.20504 0.31775 0.90821 0.0
C1006 C 0.21205 0.34309 0.03644 0.0
C1007 C 0.22647 0.33578 0.98876 0.0
C1008 C 0.22272 0.32325 0.92304 0.0
C1009 C 0.19428 0.33766 0.01726 0.0
N1010 N 0.19085 0.32474 0.95481 0.0
H1011 H 0.20308 0.30768 0.85825 0.0
H1012 H 0.18362 0.34333 0.05635 0.0
H1013 H 0.18984 0.32875 0.75787 0.0
H1014 H 0.136 0.33648 0.83432 0.0
O1015 O 0.17493 0.29534 0.85375 0.0
O1016 O 0.14633 0.30037 0.88482 0.0
O1017 O 0.15331 0.33214 0.00522 0.0
C1018 C 0.15826 0.29107 0.84105 0.0
H1019 H 0.16971 0.29233 0.24806 0.0
H1020 H 0.17374 0.34876 0.63555 0.0
H1021 H 0.21452 0.35267 0.08902 0.0
H1022 H 0.23353 0.31708 0.88572 0.0
Co1023 Co 0.44868 0.41639 0.75139 0.0
C1024 C 0.47649 0.41178 0.89563 0.0
C1025 C 0.45083 0.4209 0.94251 0.0
C1026 C 0.46169 0.41759 0.01435 0.0
N1027 N 0.46005 0.41743 0.8677 0.0
N1028 N 0.47787 0.41183 0.98531 0.0
H1029 H 0.48712 0.40747 0.8518 0.0
H1030 H 0.43682 0.42489 0.94481 0.0
C1031 C 0.41283 0.39739 0.7989 0.0
O1032 O 0.40434 0.40313 0.728 0.0
N1033 N 0.43713 0.41413 0.63686 0.0
C1034 C 0.43332 0.42675 0.57522 0.0
C1035 C 0.42391 0.41864 0.50699 0.0
C1036 C 0.43108 0.39851 0.60306 0.0
N1037 N 0.42228 0.40088 0.52551 0.0
C1038 C 0.44777 0.45295 0.80086 0.0
C1039 C 0.41356 0.46152 0.74214 0.0
C1040 C 0.42556 0.4754 0.76323 0.0
C1041 C 0.44258 0.47094 0.796 0.0
C1042 C 0.41928 0.44352 0.74873 0.0
N1043 N 0.43649 0.43937 0.77475 0.0
H1044 H 0.46157 0.45007 0.81902 0.0
H1045 H 0.41036 0.43341 0.72409 0.0
H1046 H 0.43655 0.4409 0.5808 0.0
H1047 H 0.43244 0.38575 0.63727 0.0
O1048 O 0.46909 0.42719 0.69512 0.0
O1049 O 0.46587 0.39778 0.71366 0.0
O1050 O 0.42948 0.40108 0.81217 0.0
C1051 C 0.47548 0.41121 0.68287 0.0
H1052 H 0.45765 0.41879 0.08289 0.0
H1053 H 0.41802 0.42547 0.45049 0.0
H1054 H 0.40036 0.46456 0.71509 0.0
H1055 H 0.45228 0.48136 0.81204 0.0
C1056 C 0.10099 0.1365 0.6306 0.0
C1057 C 0.10886 0.12511 0.6946 0.0
H1058 H 0.1051 0.15803 0.53706 0.0
C1059 C 0.12737 0.12668 0.71231 0.0
H1060 H 0.08675 0.13551 0.61533 0.0
C1061 C 0.13771 0.13973 0.66898 0.0
C1062 C 0.12988 0.15119 0.60537 0.0
H1063 H 0.13379 0.11812 0.76136 0.0
H1064 H 0.15189 0.1409 0.68548 0.0
C1065 C 0.11148 0.14928 0.58541 0.0
C1066 C 0.12588 0.89037 0.85443 0.0
C1067 C 0.10898 0.88352 0.82876 0.0
H1068 H 0.14966 0.88679 0.93301 0.0
C1069 C 0.10328 0.86696 0.86498 0.0
H1070 H 0.13068 0.90313 0.82857 0.0
C1071 C 0.1143 0.85747 0.92485 0.0
C1072 C 0.13114 0.86446 0.95101 0.0
H1073 H 0.09032 0.86132 0.84695 0.0
H1074 H 0.10959 0.84471 0.95099 0.0
C1075 C 0.13674 0.88105 0.91506 0.0
C1076 C 0.38471 0.86543 0.16101 0.0
C1077 C 0.39531 0.88047 0.13848 0.0
H1078 H 0.36697 0.84457 0.11474 0.0
C1079 C 0.39574 0.88622 0.04964 0.0
H1080 H 0.38416 0.8607 0.22896 0.0
C1081 C 0.38546 0.87738 0.98502 0.0
C1082 C 0.37504 0.86221 0.00727 0.0
H1083 H 0.40369 0.89784 0.03048 0.0
H1084 H 0.38583 0.88228 0.9173 0.0
C1085 C 0.37494 0.85618 0.0957 0.0
C1086 C 0.36957 0.13925 0.30548 0.0
C1087 C 0.38715 0.13568 0.33539 0.0
H1088 H 0.34544 0.15447 0.32215 0.0
C1089 C 0.39398 0.14543 0.40769 0.0
H1090 H 0.36395 0.13206 0.24952 0.0
C1091 C 0.38318 0.15821 0.45057 0.0
C1092 C 0.36552 0.16167 0.42063 0.0
H1093 H 0.40747 0.14288 0.43232 0.0
H1094 H 0.38864 0.16537 0.50692 0.0
C1095 C 0.35895 0.15216 0.34706 0.0
C1096 C 0.88061 0.85064 0.39797 0.0
C1097 C 0.86405 0.85752 0.428 0.0
H1098 H 0.90468 0.85552 0.32244 0.0
C1099 C 0.85886 0.87486 0.40032 0.0
H1100 H 0.88503 0.83735 0.41829 0.0
C1101 C 0.86993 0.8851 0.34448 0.0
C1102 C 0.88666 0.87844 0.31588 0.0
H1103 H 0.84618 0.88057 0.42177 0.0
H1104 H 0.86548 0.89845 0.32523 0.0
C1105 C 0.89188 0.86106 0.34322 0.0
C1106 C 0.86603 0.12396 0.09218 0.0
C1107 C 0.87127 0.14167 0.07115 0.0
H1108 H 0.87182 0.09986 0.16553 0.0
C1109 C 0.88699 0.14863 0.11077 0.0
H1110 H 0.85397 0.1182 0.06328 0.0
C1111 C 0.89741 0.13799 0.16846 0.0
C1112 C 0.89213 0.12029 0.18959 0.0
H1113 H 0.89143 0.16221 0.09592 0.0
H1114 H 0.90959 0.14365 0.19665 0.0
C1115 C 0.87622 0.11348 0.15133 0.0
C1116 C 0.62232 0.11958 0.88344 0.0
C1117 C 0.60485 0.12537 0.86077 0.0
H1118 H 0.64607 0.12423 0.96163 0.0
C1119 C 0.59806 0.14099 0.90099 0.0
H1120 H 0.62789 0.10753 0.85415 0.0
C1121 C 0.60864 0.15079 0.96111 0.0
C1122 C 0.62604 0.14487 0.98452 0.0
H1123 H 0.58465 0.14579 0.88488 0.0
H1124 H 0.60315 0.16291 0.99006 0.0
C1125 C 0.63268 0.12907 0.94551 0.0
C1126 C 0.63384 0.85448 0.63906 0.0
C1127 C 0.62606 0.84642 0.56409 0.0
H1128 H 0.6315 0.87449 0.73974 0.0
C1129 C 0.60929 0.85268 0.53327 0.0
H1130 H 0.64678 0.85001 0.66414 0.0
C1131 C 0.60037 0.86657 0.57767 0.0
C1132 C 0.60827 0.87468 0.65228 0.0
H1133 H 0.60298 0.84669 0.4757 0.0
H1134 H 0.5874 0.8711 0.55309 0.0
C1135 C 0.62513 0.86856 0.68214 0.0
C1136 C 0.64769 0.6251 0.06294 0.0
C1137 C 0.64315 0.64277 0.03765 0.0
H1138 H 0.64082 0.60187 0.14043 0.0
C1139 C 0.62755 0.65057 0.07385 0.0
H1140 H 0.65965 0.6187 0.03674 0.0
C1141 C 0.61657 0.6408 0.13258 0.0
C1142 C 0.62116 0.62314 0.15794 0.0
H1143 H 0.62364 0.66415 0.05564 0.0
H1144 H 0.6045 0.64709 0.1582 0.0
C1145 C 0.63694 0.61549 0.12292 0.0
C1146 C 0.61143 0.37021 0.39287 0.0
C1147 C 0.61437 0.38886 0.39971 0.0
H1148 H 0.61913 0.34377 0.43665 0.0
C1149 C 0.62817 0.39499 0.45631 0.0
H1150 H 0.60094 0.36501 0.34996 0.0
C1151 C 0.63849 0.38289 0.50605 0.0
C1152 C 0.63539 0.36428 0.5006 0.0
H1153 H 0.6309 0.40924 0.46343 0.0
H1154 H 0.64883 0.38821 0.54949 0.0
C1155 C 0.62184 0.35804 0.44275 0.0
C1156 C 0.89022 0.36174 0.71382 0.0
C1157 C 0.90173 0.37574 0.68658 0.0
H1158 H 0.87126 0.34146 0.67447 0.0
C1159 C 0.90257 0.38029 0.59623 0.0
H1160 H 0.88935 0.358 0.78317 0.0
C1161 C 0.89171 0.37126 0.53446 0.0
C1162 C 0.88035 0.35712 0.56174 0.0
H1163 H 0.91124 0.39112 0.57378 0.0
H1164 H 0.89237 0.37514 0.46526 0.0
C1165 C 0.8799 0.35229 0.65177 0.0
C1166 C 0.91602 0.64067 0.88728 0.0
C1167 C 0.90821 0.62671 0.83757 0.0
H1168 H 0.91169 0.66155 0.98326 0.0
C1169 C 0.89 0.62238 0.85148 0.0
H1170 H 0.93003 0.6443 0.87777 0.0
C1171 C 0.87971 0.63186 0.9128 0.0
C1172 C 0.88723 0.64623 0.96049 0.0
H1173 H 0.88363 0.61159 0.81472 0.0
H1174 H 0.86565 0.62824 0.92084 0.0
C1175 C 0.90553 0.65054 0.94737 0.0
C1176 C 0.38402 0.38945 0.87527 0.0
C1177 C 0.40269 0.3869 0.86603 0.0
H1178 H 0.35985 0.38187 0.94336 0.0
C1179 C 0.41141 0.37437 0.92146 0.0
H1180 H 0.37694 0.39912 0.83403 0.0
C1181 C 0.40153 0.36421 0.9831 0.0
C1182 C 0.38285 0.36681 0.99224 0.0
H1183 H 0.42579 0.37214 0.91585 0.0
H1184 H 0.40849 0.35436 0.02371 0.0
C1185 C 0.37425 0.37968 0.93841 0.0
C1186 C 0.40015 0.64769 0.66982 0.0
C1187 C 0.40937 0.63565 0.61448 0.0
H1188 H 0.38124 0.6694 0.67823 0.0
C1189 C 0.4059 0.63612 0.52289 0.0
H1190 H 0.40245 0.64762 0.74072 0.0
C1191 C 0.39383 0.64861 0.48712 0.0
C1192 C 0.38484 0.66087 0.54212 0.0
H1193 H 0.41273 0.62701 0.47831 0.0
H1194 H 0.39167 0.64872 0.41613 0.0
C1195 C 0.38797 0.66015 0.63401 0.0
C1196 C 0.11749 0.63739 0.39608 0.0
C1197 C 0.12492 0.6296 0.31974 0.0
H1198 H 0.12102 0.6565 0.50108 0.0
C1199 C 0.14201 0.63526 0.29092 0.0
H1200 H 0.10435 0.63324 0.41987 0.0
C1201 C 0.15134 0.64868 0.33621 0.0
C1202 C 0.14396 0.65651 0.41236 0.0
H1203 H 0.14807 0.62959 0.23208 0.0
H1204 H 0.16439 0.65292 0.3115 0.0
C1205 C 0.12704 0.65061 0.44269 0.0
C1206 C 0.11713 0.38096 0.1 0.0
C1207 C 0.11782 0.37593 0.18973 0.0
H1208 H 0.12774 0.3767 0.96941 0.0
C1209 C 0.12936 0.36193 0.21625 0.0
H1210 H 0.10843 0.39183 0.07827 0.0
C1211 C 0.13997 0.35299 0.15399 0.0
C1212 C 0.1397 0.35836 0.06471 0.0
H1213 H 0.13012 0.35786 0.28521 0.0
H1214 H 0.14871 0.34217 0.17598 0.0
C1215 C 0.12824 0.37244 0.03812 0.0
C1216 C 0.23492 0.17377 0.62727 0.0
C1217 C 0.22783 0.16795 0.54605 0.0
H1218 H 0.25864 0.18006 0.70194 0.0
C1219 C 0.23963 0.16107 0.48175 0.0
H1220 H 0.2261 0.17913 0.67783 0.0
C1221 C 0.25838 0.16168 0.4954 0.0
C1222 C 0.26545 0.16916 0.5735 0.0
H1223 H 0.23447 0.15667 0.41823 0.0
H1224 H 0.26729 0.15776 0.44214 0.0
C1225 C 0.25352 0.17431 0.64096 0.0
C1226 C 0.0784 0.99048 0.86661 0.0
C1227 C 0.08775 0.98187 0.79857 0.0
H1228 H 0.0698 0.01527 0.92154 0.0
C1229 C 0.09815 0.99228 0.7397 0.0
H1230 H 0.06994 0.98279 0.91138 0.0
C1231 C 0.09849 0.0111 0.74629 0.0
C1232 C 0.08809 0.01994 0.81074 0.0
H1233 H 0.10536 0.98589 0.68604 0.0
H1234 H 0.10642 0.01867 0.69894 0.0
C1235 C 0.07839 0.00925 0.87211 0.0
C1236 C 0.23871 0.82732 0.91307 0.0
C1237 C 0.23209 0.84203 0.96017 0.0
H1238 H 0.26157 0.81314 0.86721 0.0
C1239 C 0.24425 0.8551 0.99138 0.0
H1240 H 0.22968 0.81671 0.89157 0.0
C1241 C 0.26281 0.85347 0.97478 0.0
C1242 C 0.26958 0.83844 0.92898 0.0
H1243 H 0.23941 0.86634 0.03009 0.0
H1244 H 0.27179 0.86389 0.99854 0.0
C1245 C 0.25714 0.82537 0.89911 0.0
C1246 C 0.41002 0.01874 0.17192 0.0
C1247 C 0.40878 0.02574 0.25817 0.0
H1248 H 0.41344 0.99519 0.09178 0.0
C1249 C 0.40778 0.01369 0.33014 0.0
H1250 H 0.41108 0.02767 0.11522 0.0
C1251 C 0.40876 0.99506 0.31631 0.0
C1252 C 0.41112 0.98819 0.23051 0.0
H1253 H 0.40687 0.01871 0.39724 0.0
H1254 H 0.40882 0.98607 0.37309 0.0
C1255 C 0.41138 1.00017 0.15835 0.0
C1256 C 0.73651 0.82418 0.37287 0.0
C1257 C 0.72422 0.83122 0.43462 0.0
H1258 H 0.76422 0.81937 0.34058 0.0
C1259 C 0.73085 0.84121 0.5063 0.0
H1260 H 0.73171 0.81656 0.31648 0.0
C1261 C 0.74947 0.84277 0.52017 0.0
C1262 C 0.76176 0.83459 0.46187 0.0
H1263 H 0.72169 0.84676 0.55481 0.0
H1264 H 0.75427 0.84949 0.57926 0.0
C1265 C 0.7551 0.82595 0.38606 0.0
C1266 C 0.90124 0.00938 0.24137 0.0
C1267 C 0.91367 0.01733 0.30009 0.0
H1268 H 0.89091 0.9848 0.18608 0.0
C1269 C 0.92394 0.00582 0.3554 0.0
H1270 H 0.89287 0.0176 0.19857 0.0
C1271 C 0.9222 0.98713 0.35074 0.0
C1272 C 0.91053 0.97929 0.28901 0.0
H1273 H 0.93414 0.01106 0.39965 0.0
H1274 H 0.93099 0.97878 0.39098 0.0
C1275 C 0.89985 0.99057 0.23524 0.0
C1276 C 0.73953 0.15615 0.02875 0.0
C1277 C 0.72983 0.17239 0.0336 0.0
H1278 H 0.76566 0.1438 0.01279 0.0
C1279 C 0.73922 0.18873 0.02561 0.0
H1280 H 0.73261 0.14338 0.03602 0.0
C1281 C 0.75781 0.18898 0.01425 0.0
C1282 C 0.76769 0.17289 0.00933 0.0
H1283 H 0.73214 0.20145 0.02963 0.0
H1284 H 0.76451 0.20192 0.00941 0.0
C1285 C 0.7584 0.1564 0.01704 0.0
C1286 C 0.59188 0.01497 0.66861 0.0
C1287 C 0.59015 0.0229 0.75257 0.0
H1288 H 0.59316 0.99051 0.59444 0.0
C1289 C 0.5917 0.01198 0.82838 0.0
H1290 H 0.5908 0.02313 0.60912 0.0
C1291 C 0.59309 0.99321 0.81991 0.0
C1292 C 0.59288 0.98519 0.73554 0.0
H1293 H 0.59024 0.01775 0.89375 0.0
H1294 H 0.59273 0.98494 0.87919 0.0
C1295 C 0.59318 0.99632 0.66016 0.0
C1296 C 0.75884 0.66201 0.91918 0.0
C1297 C 0.74698 0.6675 0.98639 0.0
H1298 H 0.78618 0.65755 0.8801 0.0
C1299 C 0.75407 0.67222 0.06909 0.0
H1300 H 0.75365 0.65838 0.85453 0.0
C1301 C 0.77271 0.6724 0.08303 0.0
C1302 C 0.78482 0.66745 0.01513 0.0
H1303 H 0.74524 0.67686 0.12132 0.0
H1304 H 0.77753 0.67732 0.14611 0.0
C1305 C 0.77751 0.6618 0.93362 0.0
C1306 C 0.58988 0.4975 0.11978 0.0
C1307 C 0.59952 0.48809 0.18557 0.0
H1308 H 0.58125 0.52332 0.07141 0.0
C1309 C 0.61074 0.49768 0.24341 0.0
H1310 H 0.58095 0.49033 0.07527 0.0
C1311 C 0.61081 0.51652 0.24158 0.0
C1312 C 0.59976 0.526 0.18151 0.0
H1313 H 0.61805 0.49071 0.29542 0.0
H1314 H 0.61821 0.5237 0.29235 0.0
C1315 C 0.5901 0.51635 0.11732 0.0
C1316 C 0.74619 0.34632 0.52231 0.0
C1317 C 0.73701 0.32991 0.53589 0.0
H1318 H 0.77179 0.35919 0.49624 0.0
C1319 C 0.74693 0.31382 0.53375 0.0
H1320 H 0.7389 0.35894 0.5242 0.0
C1321 C 0.76543 0.31399 0.51931 0.0
C1322 C 0.77471 0.33024 0.50545 0.0
H1323 H 0.74032 0.30093 0.54304 0.0
H1324 H 0.77253 0.30125 0.51798 0.0
C1325 C 0.76497 0.34649 0.50769 0.0
C1326 C 0.93629 0.51054 0.85554 0.0
C1327 C 0.92874 0.52072 0.78612 0.0
H1328 H 0.94232 0.48424 0.90615 0.0
C1329 C 0.91895 0.51173 0.71955 0.0
H1330 H 0.94373 0.51707 0.90827 0.0
C1331 C 0.91806 0.49282 0.71871 0.0
C1332 C 0.92688 0.48273 0.78462 0.0
H1333 H 0.91309 0.51921 0.66488 0.0
H1334 H 0.91156 0.48611 0.66363 0.0
C1335 C 0.93541 0.49177 0.85463 0.0
C1336 C 0.25228 0.33183 0.09195 0.0
C1337 C 0.24553 0.33912 0.01303 0.0
H1338 H 0.27535 0.3247 0.16771 0.0
C1339 C 0.25763 0.34677 0.95191 0.0
H1340 H 0.24327 0.32535 0.13876 0.0
C1341 C 0.27624 0.34695 0.96931 0.0
C1342 C 0.2832 0.33903 0.04725 0.0
H1343 H 0.25269 0.35224 0.88977 0.0
H1344 H 0.28512 0.35304 0.92093 0.0
C1345 C 0.27081 0.33155 0.10836 0.0
C1346 C 0.43001 0.50152 0.66264 0.0
C1347 C 0.42192 0.49437 0.73908 0.0
H1348 H 0.43778 0.52531 0.59153 0.0
C1349 C 0.41321 0.50601 0.79808 0.0
H1350 H 0.43692 0.49276 0.61669 0.0
C1351 C 0.41362 0.52469 0.78353 0.0
C1352 C 0.42293 0.53194 0.71035 0.0
H1353 H 0.40711 0.50075 0.85802 0.0
H1354 H 0.40788 0.53349 0.83302 0.0
C1355 C 0.43051 0.52011 0.64838 0.0
C1356 C 0.27001 0.6686 0.45108 0.0
C1357 C 0.28121 0.68065 0.49749 0.0
H1358 H 0.24278 0.66016 0.4234 0.0
C1359 C 0.27337 0.69206 0.56044 0.0
H1360 H 0.27567 0.65975 0.40162 0.0
C1361 C 0.25473 0.69231 0.57281 0.0
C1362 C 0.24329 0.68126 0.52201 0.0
H1363 H 0.28167 0.70137 0.59776 0.0
H1364 H 0.2492 0.70163 0.62055 0.0
C1365 C 0.25119 0.6689 0.46328 0.0
C1366 C 0.09218 0.49192 0.35214 0.0
C1367 C 0.09721 0.48243 0.27603 0.0
H1368 H 0.08859 0.51766 0.41255 0.0
C1369 C 0.10429 0.49191 0.20339 0.0
H1370 H 0.08664 0.48483 0.40883 0.0
C1371 C 0.10524 0.51078 0.20492 0.0
C1372 C 0.09907 0.52041 0.27914 0.0
H1373 H 0.10807 0.48481 0.1437 0.0
H1374 H 0.10966 0.51782 0.14586 0.0
C1375 C 0.0932 0.5107 0.35394 0.0
C1376 C 0.13969 0.24731 0.30639 0.0
C1377 C 0.1428 0.23029 0.26988 0.0
H1378 H 0.14266 0.27585 0.29099 0.0
C1379 C 0.14952 0.22918 0.183 0.0
H1380 H 0.13508 0.24852 0.3742 0.0
C1381 C 0.15401 0.24483 0.13531 0.0
C1382 C 0.1523 0.26183 0.17472 0.0
H1383 H 0.1526 0.21617 0.15463 0.0
H1384 H 0.16012 0.24356 0.07058 0.0
C1385 C 0.14438 0.26293 0.25932 0.0
C1386 C 0.99173 0.8818 0.51623 0.0
C1387 C 0.98744 0.89607 0.45765 0.0
H1388 H 0.01032 0.87126 0.61343 0.0
C1389 C 0.99972 0.91028 0.44851 0.0
H1390 H 0.98257 0.87054 0.52397 0.0
C1391 C 0.01536 0.91079 0.50052 0.0
C1392 C 0.01933 0.8969 0.56159 0.0
H1393 H 0.99678 0.92145 0.40446 0.0
H1394 H 0.02421 0.92234 0.49427 0.0
C1395 C 0.00763 0.88211 0.56708 0.0
C1396 C 0.35047 0.77658 0.63566 0.0
C1397 C 0.36357 0.78149 0.69885 0.0
H1398 H 0.34269 0.75868 0.53215 0.0
C1399 C 0.3795 0.77147 0.70447 0.0
H1400 H 0.33804 0.78412 0.62917 0.0
C1401 C 0.38205 0.75654 0.64915 0.0
C1402 C 0.36876 0.75147 0.58658 0.0
H1403 H 0.38971 0.7748 0.75318 0.0
H1404 H 0.39429 0.7488 0.65684 0.0
C1405 C 0.35303 0.76184 0.58029 0.0
C1406 C 0.49069 0.09563 0.14558 0.0
C1407 C 0.47773 0.10852 0.12189 0.0
H1408 H 0.51561 0.08297 0.11443 0.0
C1409 C 0.48068 0.1194 0.0469 0.0
H1410 H 0.48863 0.0869 0.20247 0.0
C1411 C 0.49622 0.11692 0.9949 0.0
C1412 C 0.50904 0.10374 0.01838 0.0
H1413 H 0.47066 0.12918 0.0264 0.0
H1414 H 0.4982 0.12522 0.93657 0.0
C1415 C 0.50614 0.09334 0.09496 0.0
C1416 C 0.1666 0.75654 0.33272 0.0
C1417 C 0.15 0.75065 0.36623 0.0
H1418 H 0.18043 0.77503 0.24779 0.0
C1419 C 0.13423 0.76 0.34054 0.0
H1420 H 0.17894 0.74961 0.35037 0.0
C1421 C 0.13499 0.77446 0.28074 0.0
C1422 C 0.15155 0.78001 0.24558 0.0
H1423 H 0.12119 0.75609 0.36635 0.0
H1424 H 0.12263 0.78125 0.26203 0.0
C1425 C 0.16737 0.77102 0.27312 0.0
C1426 C 0.50004 0.91385 0.33707 0.0
C1427 C 0.48543 0.90296 0.36218 0.0
H1428 H 0.52667 0.92304 0.3671 0.0
C1429 C 0.48694 0.89226 0.43888 0.0
H1430 H 0.4991 0.92243 0.27895 0.0
C1431 C 0.50268 0.89297 0.49111 0.0
C1432 C 0.51723 0.90409 0.46618 0.0
H1433 H 0.47569 0.88405 0.46058 0.0
H1434 H 0.50348 0.88491 0.55095 0.0
C1435 C 0.5158 0.91424 0.38772 0.0
C1436 C 0.37267 0.24449 0.76995 0.0
C1437 C 0.35578 0.23603 0.77123 0.0
H1438 H 0.38875 0.26637 0.81725 0.0
C1439 C 0.34232 0.24268 0.82813 0.0
H1440 H 0.3833 0.23962 0.72722 0.0
C1441 C 0.34542 0.25795 0.87987 0.0
C1442 C 0.36197 0.267 0.87497 0.0
H1443 H 0.32919 0.23632 0.83124 0.0
H1444 H 0.33463 0.26314 0.92058 0.0
C1445 C 0.3757 0.25986 0.82109 0.0
C1446 C 1.00205 0.09546 0.88843 0.0
C1447 C 0.01648 0.10612 0.91785 0.0
H1448 H 0.97585 0.08474 0.91625 0.0
C1449 C 0.01524 0.1145 1.00096 0.0
H1450 H 1.00287 0.08827 0.82638 0.0
C1451 C 0.99997 0.11178 0.05457 0.0
C1452 C 0.98563 0.10093 0.0249 0.0
H1453 H 0.02646 0.12227 0.02647 0.0
H1454 H 0.99935 0.11809 0.11901 0.0
C1455 C 0.9867 0.09316 0.94054 0.0
C1456 C 0.84179 0.75162 0.83228 0.0
C1457 C 0.85899 0.74383 0.83084 0.0
H1458 H 0.82463 0.77248 0.78222 0.0
C1459 C 0.87272 0.75232 0.78149 0.0
H1460 H 0.83099 0.74538 0.86957 0.0
C1461 C 0.86916 0.76783 0.73169 0.0
C1462 C 0.85176 0.77513 0.72981 0.0
H1463 H 0.88623 0.74685 0.78058 0.0
H1464 H 0.8799 0.77378 0.69283 0.0
C1465 C 0.83818 0.76707 0.78184 0.0
C1466 C 0.01575 0.09393 0.44103 0.0
C1467 C 0.01616 0.10103 0.52709 0.0
H1468 H 1.00031 0.08932 0.32369 0.0
C1469 C 1.00118 0.11083 0.55726 0.0
H1470 H 0.02707 0.08628 0.4162 0.0
C1471 C 0.98597 0.11317 0.50242 0.0
C1472 C 0.98549 0.10555 0.41731 0.0
H1473 H 1.00123 0.11661 0.62297 0.0
H1474 H 0.97425 0.12006 0.52826 0.0
C1475 C 1.00054 0.09594 0.38743 0.0
C1476 C 0.63048 0.24685 0.234 0.0
C1477 C 0.63848 0.23078 0.26279 0.0
H1478 H 0.62704 0.27507 0.25797 0.0
C1479 C 0.64736 0.23045 0.34533 0.0
H1480 H 0.62389 0.24754 0.16995 0.0
C1481 C 0.64924 0.24612 0.39568 0.0
C1482 C 0.64262 0.26259 0.36353 0.0
H1483 H 0.65388 0.21823 0.36826 0.0
H1484 H 0.65705 0.24562 0.45634 0.0
C1485 C 0.63258 0.26263 0.28386 0.0
C1486 C 0.4898 0.91637 0.88818 0.0
C1487 C 0.4869 0.90535 0.9626 0.0
H1488 H 0.50775 0.92415 0.78429 0.0
C1489 C 0.49992 0.89229 0.98492 0.0
H1490 H 0.48014 0.92665 0.86979 0.0
C1491 C 0.51571 0.8906 0.93434 0.0
C1492 C 0.51877 0.90221 0.8622 0.0
H1493 H 0.49793 0.88355 0.04165 0.0
H1494 H 0.52587 0.88091 0.95411 0.0
C1495 C 0.5056 0.91493 0.83917 0.0
C1496 C 0.85696 0.22667 0.70167 0.0
C1497 C 0.86468 0.22691 0.78696 0.0
H1498 H 0.84919 0.24199 0.58678 0.0
C1499 C 0.87276 0.24281 0.81706 0.0
H1500 H 0.85036 0.2146 0.67768 0.0
C1501 C 0.87171 0.25859 0.76579 0.0
C1502 C 0.86274 0.25867 0.68321 0.0
H1503 H 0.87851 0.24345 0.88301 0.0
H1504 H 0.87709 0.27096 0.79273 0.0
C1505 C 0.8562 0.24234 0.64977 0.0
C1506 C 0.50036 0.12214 0.63968 0.0
C1507 C 0.51548 0.11268 0.60955 0.0
H1508 H 0.47255 0.12877 0.61654 0.0
C1509 C 0.5145 0.10384 0.52752 0.0
H1510 H 0.50067 0.12879 0.70338 0.0
C1511 C 0.49855 0.10376 0.47801 0.0
C1512 C 0.483 0.11228 0.50999 0.0
H1513 H 0.52594 0.09627 0.50327 0.0
H1514 H 0.49816 0.09619 0.41696 0.0
C1515 C 0.48421 0.12186 0.59049 0.0
C1516 C 0.64617 0.75751 0.07959 0.0
C1517 C 0.64486 0.74071 0.12202 0.0
H1518 H 0.64383 0.78611 0.0942 0.0
C1519 C 0.63587 0.73957 0.20388 0.0
H1520 H 0.65303 0.75875 0.01661 0.0
C1521 C 0.63015 0.75516 0.24709 0.0
C1522 C 0.63345 0.77211 0.20932 0.0
H1523 H 0.63438 0.72673 0.23728 0.0
H1524 H 0.6251 0.75407 0.31425 0.0
C1525 C 0.64066 0.77313 0.12341 0.0
C1526 C 0.99549 0.90958 0.94907 0.0
C1527 C 0.00812 0.89573 0.95696 0.0
H1528 H 0.97101 0.92088 0.99688 0.0
C1529 C 1.00445 0.88116 0.01459 0.0
H1530 H 0.99806 0.92098 0.9059 0.0
C1531 C 0.98871 0.88084 0.06602 0.0
C1532 C 0.97667 0.89534 0.062 0.0
H1533 H 0.01401 0.87023 0.02132 0.0
H1534 H 0.98642 0.86979 0.1117 0.0
C1535 C 0.98007 0.90951 1.00179 0.0
C1536 C 0.66197 0.74993 0.63956 0.0
C1537 C 0.64395 0.75331 0.61675 0.0
H1538 H 0.68039 0.73395 0.71515 0.0
C1539 C 0.63044 0.74202 0.65271 0.0
H1540 H 0.67269 0.75837 0.61406 0.0
C1541 C 0.63481 0.72809 0.71181 0.0
C1542 C 0.6528 0.72502 0.73587 0.0
H1543 H 0.61641 0.74393 0.63543 0.0
H1544 H 0.62412 0.71978 0.7388 0.0
C1545 C 0.66634 0.73598 0.69828 0.0
C1546 C 0.52321 0.39394 0.05831 0.0
C1547 C 0.52472 0.40157 0.14286 0.0
H1548 H 0.507 0.39112 0.94124 0.0
C1549 C 0.51013 0.41118 0.17736 0.0
H1550 H 0.53456 0.38695 0.02935 0.0
C1551 C 0.49459 0.41391 0.12695 0.0
C1552 C 0.49327 0.40722 0.04002 0.0
H1553 H 0.51122 0.41766 0.24137 0.0
H1554 H 0.4841 0.42222 0.15475 0.0
C1555 C 0.50758 0.39671 0.00724 0.0
C1556 C 0.87483 0.25628 0.31812 0.0
C1557 C 0.86883 0.27285 0.28489 0.0
H1558 H 0.87585 0.22775 0.29816 0.0
C1559 C 0.86177 0.2737 0.19838 0.0
H1560 H 0.88003 0.25522 0.38505 0.0
C1561 C 0.85929 0.25803 0.14866 0.0
C1562 C 0.8635 0.24118 0.18543 0.0
H1563 H 0.85676 0.28635 0.17204 0.0
H1564 H 0.85265 0.25896 0.08485 0.0
C1565 C 0.87213 0.24054 0.26883 0.0
C1566 C 0.00716 0.62114 0.57993 0.0
C1567 C 0.99344 0.60876 0.56068 0.0
H1568 H 0.03392 0.63026 0.54852 0.0
C1569 C 0.99539 0.5974 0.48692 0.0
H1570 H 0.00606 0.62991 0.63681 0.0
C1571 C 0.01107 0.59787 0.43543 0.0
C1572 C 0.02534 0.60934 0.45819 0.0
H1573 H 0.98498 0.5877 0.47075 0.0
H1574 H 0.01251 0.58847 0.38128 0.0
C1575 C 0.02309 0.62126 0.52978 0.0
C1576 C 0.64966 0.26015 0.89602 0.0
C1577 C 0.64123 0.24451 0.86485 0.0
H1578 H 0.65726 0.28737 0.86696 0.0
C1579 C 0.63096 0.24553 0.78604 0.0
H1580 H 0.65765 0.2598 0.95611 0.0
C1581 C 0.63051 0.26141 0.73548 0.0
C1582 C 0.64037 0.27646 0.76293 0.0
H1583 H 0.62402 0.23376 0.76116 0.0
H1584 H 0.62373 0.26143 0.67182 0.0
C1585 C 0.64938 0.27591 0.84506 0.0
C1586 C 1.00421 0.3837 0.91902 0.0
C1587 C 0.98809 0.39085 0.95178 0.0
H1588 H 0.03268 0.38053 0.93972 0.0
C1589 C 0.98794 0.3984 0.03701 0.0
H1590 H 1.00474 0.37808 0.853 0.0
C1591 C 1.00381 0.39967 0.08693 0.0
C1592 C 0.02026 0.39386 0.05147 0.0
H1593 H 0.97568 0.40429 0.06294 0.0
H1594 H 1.00344 0.40636 0.15048 0.0
C1595 C 0.02021 0.38532 0.96822 0.0
C1596 C 0.87421 0.73822 0.29272 0.0
C1597 C 0.86788 0.73696 0.20508 0.0
H1598 H 0.87212 0.75233 0.41684 0.0
C1599 C 0.85704 0.75086 0.17101 0.0
H1600 H 0.88214 0.72741 0.32131 0.0
C1601 C 0.85113 0.76477 0.22548 0.0
C1602 C 0.85604 0.7652 0.31512 0.0
H1603 H 0.85176 0.75013 0.1042 0.0
H1604 H 0.84162 0.7745 0.1994 0.0
C1605 C 0.86837 0.75236 0.34746 0.0
C1606 C 0.52207 0.59738 0.46056 0.0
C1607 C 0.53247 0.61211 0.43066 0.0
H1608 H 0.49966 0.58827 0.53837 0.0
C1609 C 0.52822 0.62936 0.46147 0.0
H1610 H 0.52502 0.58384 0.43866 0.0
C1611 C 0.5137 0.63183 0.51954 0.0
C1612 C 0.50307 0.61712 0.54812 0.0
H1613 H 0.53607 0.64093 0.44074 0.0
H1614 H 0.51084 0.64533 0.54203 0.0
C1615 C 0.5076 0.59984 0.51858 0.0
C1616 C 0.37454 0.2775 0.34756 0.0
C1617 C 0.37302 0.27676 0.25474 0.0
H1618 H 0.36901 0.26413 0.47151 0.0
C1619 C 0.36768 0.26056 0.21523 0.0
H1620 H 0.3781 0.29004 0.37964 0.0
C1621 C 0.36223 0.24596 0.26744 0.0
C1622 C 0.362 0.24726 0.36029 0.0
H1623 H 0.36603 0.25976 0.14401 0.0
H1624 H 0.35687 0.2341 0.23522 0.0
C1625 C 0.36919 0.26276 0.40012 0.0
C1626 C 0.49685 0.62958 0.94932 0.0
C1627 C 0.4846 0.61526 0.95484 0.0
H1628 H 0.52293 0.6395 0.98695 0.0
C1629 C 0.48836 0.60077 0.01239 0.0
H1630 H 0.49433 0.6408 0.90485 0.0
C1631 C 0.50454 0.60008 0.05987 0.0
C1632 C 0.51747 0.61368 0.04904 0.0
H1633 H 0.47908 0.58953 0.01766 0.0
H1634 H 0.50746 0.58838 0.10044 0.0
C1635 C 0.51325 0.62871 0.99548 0.0
C1636 C 0.13532 0.7404 0.76718 0.0
C1637 C 0.15046 0.72932 0.77624 0.0
H1638 H 0.12323 0.76562 0.80127 0.0
C1639 C 0.16394 0.73394 0.8379 0.0
H1640 H 0.12486 0.7372 0.71959 0.0
C1641 C 0.16305 0.75011 0.88455 0.0
C1642 C 0.14882 0.76209 0.86916 0.0
H1643 H 0.17577 0.72554 0.84597 0.0
H1644 H 0.17417 0.75386 0.92729 0.0
C1645 C 0.13456 0.75674 0.81303 0.0
C1646 C 0.01598 0.40114 0.58594 0.0
C1647 C 0.99987 0.39408 0.55179 0.0
H1648 H 0.04379 0.40714 0.56094 0.0
C1649 C 1.00028 0.38496 0.47015 0.0
H1650 H 0.01604 0.4083 0.64825 0.0
C1651 C 0.01628 0.38386 0.42118 0.0
C1652 C 0.032 0.39219 0.45248 0.0
H1653 H 0.98804 0.37927 0.4428 0.0
H1654 H 0.01603 0.37766 0.35638 0.0
C1655 C 0.03183 0.40043 0.53611 0.0
C1656 C 0.37383 0.76002 0.14515 0.0
C1657 C 0.36109 0.76105 0.07607 0.0
H1658 H 0.38541 0.74373 0.24841 0.0
C1659 C 0.3524 0.74529 0.04827 0.0
H1660 H 0.38071 0.77205 0.16738 0.0
C1661 C 0.35495 0.72917 0.09516 0.0
C1662 C 0.36663 0.7285 0.16859 0.0
H1663 H 0.34246 0.74583 0.99566 0.0
H1664 H 0.34673 0.71759 0.07845 0.0
C1665 C 0.37671 0.74381 0.19062 0.0
C1666 C 0.03849 0.59976 0.98112 0.0
C1667 C 0.03941 0.60987 0.05952 0.0
H1668 H 0.02198 0.59074 0.87305 0.0
C1669 C 0.02448 0.62013 0.08511 0.0
H1670 H 0.04984 0.59162 0.9607 0.0
C1671 C 0.00842 0.61923 0.03616 0.0
C1672 C 0.00722 0.6084 0.95997 0.0
H1673 H 0.02482 0.6278 0.14598 0.0
H1674 H 0.9967 0.62646 0.05952 0.0
C1675 C 0.02261 0.59925 0.93099 0.0
C1676 C 0.16774 0.2673 0.73531 0.0
C1677 C 0.15375 0.27626 0.77996 0.0
H1678 H 0.1752 0.24594 0.64848 0.0
C1679 C 0.1359 0.27087 0.76519 0.0
H1680 H 0.18169 0.27121 0.74468 0.0
C1681 C 0.13219 0.25641 0.70881 0.0
C1682 C 0.14628 0.24706 0.66641 0.0
H1683 H 0.12485 0.27765 0.79781 0.0
H1684 H 0.11828 0.25248 0.69915 0.0
C1685 C 0.16405 0.2529 0.67924 0.0
C1686 C 0.51232 0.39786 0.52062 0.0
C1687 C 0.52485 0.41193 0.53416 0.0
H1688 H 0.48681 0.38614 0.55906 0.0
C1689 C 0.5215 0.42424 0.60265 0.0
H1690 H 0.51451 0.38804 0.46903 0.0
C1691 C 0.50596 0.42302 0.65378 0.0
C1692 C 0.49317 0.40946 0.63869 0.0
H1693 H 0.53048 0.43543 0.61497 0.0
H1694 H 0.50364 0.43321 0.70368 0.0
C1695 C 0.49661 0.39658 0.57291 0.0
C1696 C 0.12962 0.14746 0.07979 0.0
C1697 C 0.13235 0.14535 0.1713 0.0
H1698 H 0.11386 0.14036 0.96664 0.0
C1699 C 0.12172 0.1328 0.21768 0.0
H1700 H 0.13747 0.15718 0.04258 0.0
C1701 C 0.10823 0.12304 0.17445 0.0
C1702 C 0.10487 0.12565 0.08355 0.0
H1703 H 0.1237 0.13071 0.28809 0.0
H1704 H 0.10036 0.11355 0.21278 0.0
C1705 C 0.11599 0.13779 0.03642 0.0
C1706 C 0.11771 0.8743 0.48572 0.0
C1707 C 0.10531 0.88482 0.43742 0.0
H1708 H 0.13945 0.85561 0.4823 0.0
C1709 C 0.10642 0.8849 0.34443 0.0
H1710 H 0.11764 0.87416 0.55737 0.0
C1711 C 0.11936 0.87453 0.30105 0.0
C1712 C 0.13143 0.86362 0.34933 0.0
H1713 H 0.09718 0.89277 0.30464 0.0
H1714 H 0.11984 0.8751 0.22948 0.0
C1715 C 0.13051 0.86379 0.44236 0.0
C1716 C 0.3966 0.85934 0.59549 0.0
C1717 C 0.38032 0.86642 0.62734 0.0
H1718 H 0.42113 0.8647 0.52442 0.0
C1719 C 0.37697 0.88492 0.61797 0.0
H1720 H 0.39942 0.84509 0.60206 0.0
C1721 C 0.38937 0.89608 0.57535 0.0
C1722 C 0.40532 0.88896 0.53983 0.0
H1723 H 0.3646 0.8907 0.64289 0.0
H1724 H 0.38609 0.91018 0.56686 0.0
C1725 C 0.40892 0.8705 0.55105 0.0
C1726 C 0.38101 0.13902 1.00437 0.0
C1727 C 0.39418 0.12898 0.95952 0.0
H1728 H 0.35908 0.15757 0.99476 0.0
C1729 C 0.39498 0.13022 0.86657 0.0
H1730 H 0.37983 0.13822 0.07576 0.0
C1731 C 0.38296 0.14137 0.8198 0.0
C1732 C 0.36974 0.15132 0.86491 0.0
H1733 H 0.405 0.12272 0.83013 0.0
H1734 H 0.38386 0.142 0.74828 0.0
C1735 C 0.36893 0.14997 0.95775 0.0
C1736 C 0.89672 0.8748 0.82977 0.0
C1737 C 0.89434 0.87797 0.92094 0.0
H1738 H 0.88619 0.86268 0.71178 0.0
C1739 C 0.87928 0.87041 0.96344 0.0
H1740 H 0.90828 0.88021 0.79507 0.0
C1741 C 0.86674 0.86026 0.91585 0.0
C1742 C 0.86891 0.85738 0.82443 0.0
H1743 H 0.87693 0.87266 0.03326 0.0
H1744 H 0.85531 0.85467 0.95095 0.0
C1745 C 0.88417 0.86458 0.78211 0.0
C1746 C 0.89246 0.14067 0.72328 0.0
C1747 C 0.87634 0.1461 0.6819 0.0
H1748 H 0.91741 0.12669 0.71197 0.0
C1749 C 0.87323 0.14085 0.59373 0.0
H1750 H 0.89531 0.14418 0.79134 0.0
C1751 C 0.88583 0.13039 0.54845 0.0
C1752 C 0.90197 0.125 0.58981 0.0
H1753 H 0.8611 0.14488 0.5591 0.0
H1754 H 0.88276 0.1264 0.48126 0.0
C1755 C 0.90511 0.13034 0.67782 0.0
C1756 C 0.608 0.14005 0.51732 0.0
C1757 C 0.59664 0.12817 0.47109 0.0
H1758 H 0.62889 0.15987 0.50935 0.0
C1759 C 0.59752 0.12778 0.37809 0.0
H1760 H 0.60779 0.14054 0.58897 0.0
C1761 C 0.6097 0.1388 0.33243 0.0
C1762 C 0.62137 0.15035 0.37882 0.0
H1763 H 0.58885 0.11888 0.34059 0.0
H1764 H 0.6103 0.13794 0.26092 0.0
C1765 C 0.62026 0.15096 0.47173 0.0
C1766 C 0.62744 0.8598 0.03052 0.0
C1767 C 0.62677 0.85856 0.12339 0.0
H1768 H 0.61647 0.87173 0.91284 0.0
C1769 C 0.61418 0.86922 0.16903 0.0
H1770 H 0.63686 0.8517 0.99329 0.0
C1771 C 0.60244 0.88068 0.1229 0.0
C1772 C 0.60285 0.88162 0.02994 0.0
H1773 H 0.61344 0.86872 0.24061 0.0
H1774 H 0.5928 0.88856 0.15993 0.0
C1775 C 0.61558 0.87112 0.98436 0.0
C1776 C 0.61615 0.62346 0.64542 0.0
C1777 C 0.61772 0.62101 0.5535 0.0
H1778 H 0.62704 0.63561 0.76207 0.0
C1779 C 0.6322 0.6292 0.5087 0.0
H1780 H 0.6051 0.61746 0.68184 0.0
C1781 C 0.64474 0.6397 0.55466 0.0
C1782 C 0.64301 0.64234 0.64635 0.0
H1783 H 0.6339 0.6274 0.43808 0.0
H1784 H 0.6556 0.646 0.51811 0.0
C1785 C 0.62862 0.63404 0.69125 0.0
C1786 C 0.61746 0.36705 0.83425 0.0
C1787 C 0.63062 0.357 0.87988 0.0
H1788 H 0.596 0.38618 0.84246 0.0
C1789 C 0.63179 0.35871 0.97252 0.0
H1790 H 0.61627 0.36623 0.7629 0.0
C1791 C 0.62023 0.37029 0.0182 0.0
C1792 C 0.60725 0.38054 0.9724 0.0
H1793 H 0.64163 0.35106 0.00993 0.0
H1794 H 0.62174 0.37147 0.08926 0.0
C1795 C 0.60595 0.37868 0.87986 0.0
C1796 C 0.89817 0.36412 0.03421 0.0
C1797 C 0.90848 0.37691 0.08048 0.0
H1798 H 0.87825 0.34323 0.04179 0.0
C1799 C 0.90701 0.37771 0.1732 0.0
H1800 H 0.89886 0.36332 0.9627 0.0
C1801 C 0.89539 0.36598 0.21859 0.0
C1802 C 0.88471 0.35356 0.17178 0.0
H1803 H 0.91483 0.38743 0.21032 0.0
H1804 H 0.89428 0.36698 0.28992 0.0
C1805 C 0.88629 0.35271 0.07926 0.0
C1806 C 0.90613 0.62246 0.36085 0.0
C1807 C 0.91159 0.62526 0.44891 0.0
H1808 H 0.89094 0.63232 0.25005 0.0
C1809 C 0.90547 0.64076 0.49296 0.0
H1810 H 0.9106 0.6107 0.32504 0.0
C1811 C 0.8943 0.65318 0.45002 0.0
C1812 C 0.88895 0.65049 0.36175 0.0
H1813 H 0.90906 0.64322 0.56135 0.0
H1814 H 0.89006 0.66502 0.48586 0.0
C1815 C 0.89498 0.63495 0.31771 0.0
C1816 C 0.39521 0.37756 0.34836 0.0
C1817 C 0.38844 0.36249 0.39457 0.0
H1818 H 0.41147 0.40142 0.35305 0.0
C1819 C 0.39328 0.36021 0.48399 0.0
H1820 H 0.39164 0.37989 0.27972 0.0
C1821 C 0.40445 0.37266 0.52618 0.0
C1822 C 0.41125 0.38774 0.48022 0.0
H1823 H 0.38856 0.34874 0.52174 0.0
H1824 H 0.40745 0.37052 0.59558 0.0
C1825 C 0.40648 0.39002 0.39065 0.0
C1826 C 0.38067 0.62957 0.16914 0.0
C1827 C 0.36928 0.64151 0.1228 0.0
H1828 H 0.40195 0.61009 0.16152 0.0
C1829 C 0.37003 0.64187 0.02983 0.0
H1830 H 0.38032 0.62898 0.24082 0.0
C1831 C 0.38255 0.63122 0.98458 0.0
C1832 C 0.39441 0.61977 0.03117 0.0
H1833 H 0.36155 0.65101 0.9924 0.0
H1834 H 0.38321 0.63218 0.91306 0.0
C1835 C 0.39298 0.61871 0.12382 0.0
C1836 C 0.13508 0.63389 0.99011 0.0
C1837 C 0.12391 0.62175 0.94393 0.0
H1838 H 0.15536 0.65448 0.98197 0.0
C1839 C 0.12548 0.62081 0.85132 0.0
H1840 H 0.13443 0.63476 0.06161 0.0
C1841 C 0.13748 0.63211 0.80581 0.0
C1842 C 0.14841 0.64447 0.85176 0.0
H1843 H 0.11709 0.61165 0.8138 0.0
H1844 H 0.13814 0.63126 0.7343 0.0
C1845 C 0.14726 0.64503 0.94464 0.0
C1846 C 0.13534 0.35566 0.58192 0.0
C1847 C 0.13702 0.35673 0.67434 0.0
H1848 H 0.12203 0.3655 0.46536 0.0
C1849 C 0.12593 0.36872 0.72099 0.0
H1850 H 0.14371 0.34648 0.54471 0.0
C1851 C 0.11378 0.37989 0.67552 0.0
C1852 C 0.11216 0.37887 0.58294 0.0
H1853 H 0.1271 0.36984 0.79228 0.0
H1854 H 0.10569 0.38936 0.71241 0.0
C1855 C 0.12287 0.36644 0.53679 0.0
loop_
_geom_bond_atom_site_label_1
_geom_bond_atom_site_label_2
_geom_bond_distance
_geom_bond_site_symmetry_2
_ccdc_geom_bond_type
Co0 N4 2.148 . S
Co0 N10 2.128 . S
Co0 N20 2.194 . S
Co0 O25 2.351 . S
Co0 O26 2.155 . S
Co0 O27 2.096 . S
C1 N4 1.301 . S
C1 N5 1.328 . S
C1 H6 0.930 . S
C2 C3 1.333 . S
C2 N4 1.317 . S
C2 H7 0.930 . S
C3 C2 1.333 . S
C3 N5 1.350 . S
C3 H29 0.931 . S
N4 Co0 2.148 . S
N4 C1 1.301 . S
N4 C2 1.317 . S
N5 C1 1.328 . S
N5 C3 1.350 . S
H6 C1 0.930 . S
H7 C2 0.930 . S
C8 O9 1.224 . S
C8 O27 1.247 . S
O9 C8 1.224 . S
N10 Co0 2.128 . S
N10 C11 1.355 . S
N10 C13 1.311 . S
C11 N10 1.355 . S
C11 C12 1.363 . S
C11 H23 0.929 . S
C12 C11 1.363 . S
C12 N14 1.375 . S
C12 H30 0.931 . S
C13 N10 1.311 . S
C13 N14 1.347 . S
C13 H24 0.929 . S
N14 C12 1.375 . S
N14 C13 1.347 . S
C15 C18 1.365 . S
C15 N20 1.328 . S
C15 H21 0.929 . S
C16 C17 1.362 . S
C16 C19 1.378 . S
C16 H31 0.929 . S
C17 C16 1.362 . S
C17 C18 1.366 . S
C18 C15 1.365 . S
C18 C17 1.366 . S
C18 H32 0.930 . S
C19 C16 1.378 . S
C19 N20 1.315 . S
C19 H22 0.930 . S
N20 Co0 2.194 . S
N20 C15 1.328 . S
N20 C19 1.315 . S
H21 C15 0.929 . S
H22 C19 0.930 . S
H23 C11 0.929 . S
H24 C13 0.929 . S
O25 Co0 2.351 . S
O25 C28 1.244 . S
O26 Co0 2.155 . S
O26 C28 1.240 . S
O27 Co0 2.096 . S
O27 C8 1.247 . S
C28 O25 1.244 . S
C28 O26 1.240 . S
H29 C3 0.931 . S
H30 C12 0.931 . S
H31 C16 0.929 . S
H32 C18 0.930 . S
Co33 N37 2.148 . S
Co33 N43 2.128 . S
Co33 N53 2.194 . S
Co33 O58 2.351 . S
Co33 O59 2.155 . S
Co33 O60 2.096 . S
C34 N37 1.301 . S
C34 N38 1.328 . S
C34 H39 0.930 . S
C35 C36 1.333 . S
C35 N37 1.317 . S
C35 H40 0.930 . S
C36 C35 1.333 . S
C36 N38 1.350 . S
C36 H62 0.931 1_556 S
N37 Co33 2.148 . S
N37 C34 1.301 . S
N37 C35 1.317 . S
N38 C34 1.328 . S
N38 C36 1.350 . S
H39 C34 0.930 . S
H40 C35 0.930 . S
C41 O42 1.224 . S
C41 O60 1.247 . S
O42 C41 1.224 . S
N43 Co33 2.128 . S
N43 C44 1.355 . S
N43 C46 1.311 . S
C44 N43 1.355 . S
C44 C45 1.363 . S
C44 H56 0.929 . S
C45 C44 1.363 . S
C45 N47 1.375 . S
C45 H63 0.931 . S
C46 N43 1.311 . S
C46 N47 1.347 . S
C46 H57 0.929 . S
N47 C45 1.375 . S
N47 C46 1.347 . S
C48 C51 1.365 . S
C48 N53 1.328 . S
C48 H54 0.929 . S
C49 C50 1.362 . S
C49 C52 1.378 . S
C49 H64 0.929 . S
C50 C49 1.362 . S
C50 C51 1.366 . S
C51 C48 1.365 . S
C51 C50 1.366 . S
C51 H65 0.930 . S
C52 C49 1.378 . S
C52 N53 1.315 . S
C52 H55 0.930 . S
N53 Co33 2.194 . S
N53 C48 1.328 . S
N53 C52 1.315 . S
H54 C48 0.929 . S
H55 C52 0.930 . S
H56 C44 0.929 . S
H57 C46 0.929 . S
O58 Co33 2.351 . S
O58 C61 1.244 . S
O59 Co33 2.155 . S
O59 C61 1.240 . S
O60 Co33 2.096 . S
O60 C41 1.247 . S
C61 O58 1.244 . S
C61 O59 1.240 . S
H62 C36 0.931 1_554 S
H63 C45 0.931 . S
H64 C49 0.929 . S
H65 C51 0.930 . S
Co66 N70 2.148 1_556 S
Co66 N76 2.128 . S
Co66 N86 2.194 . S
Co66 O91 2.351 . S
Co66 O92 2.155 . S
Co66 O93 2.096 1_556 S
C67 N70 1.301 . S
C67 N71 1.328 . S
C67 H72 0.930 . S
C68 C69 1.333 . S
C68 N70 1.317 . S
C68 H73 0.930 . S
C69 C68 1.333 . S
C69 N71 1.350 . S
C69 H95 0.931 . S
N70 Co66 2.148 1_554 S
N70 C67 1.301 . S
N70 C68 1.317 . S
N71 C67 1.328 . S
N71 C69 1.350 . S
H72 C67 0.930 . S
H73 C68 0.930 . S
C74 O75 1.224 . S
C74 O93 1.247 . S
O75 C74 1.224 . S
N76 Co66 2.128 . S
N76 C77 1.355 . S
N76 C79 1.311 . S
C77 N76 1.355 . S
C77 C78 1.363 . S
C77 H89 0.929 . S
C78 C77 1.363 . S
C78 N80 1.375 . S
C78 H96 0.931 . S
C79 N76 1.311 . S
C79 N80 1.347 . S
C79 H90 0.929 . S
N80 C78 1.375 . S
N80 C79 1.347 . S
C81 C84 1.365 . S
C81 N86 1.328 . S
C81 H87 0.929 . S
C82 C83 1.362 . S
C82 C85 1.378 . S
C82 H97 0.929 . S
C83 C82 1.362 . S
C83 C84 1.366 1_554 S
C84 C81 1.365 . S
C84 C83 1.366 1_556 S
C84 H98 0.930 . S
C85 C82 1.378 . S
C85 N86 1.315 1_554 S
C85 H88 0.930 . S
N86 Co66 2.194 . S
N86 C81 1.328 . S
N86 C85 1.315 1_556 S
H87 C81 0.929 . S
H88 C85 0.930 . S
H89 C77 0.929 . S
H90 C79 0.929 . S
O91 Co66 2.351 . S
O91 C94 1.244 . S
O92 Co66 2.155 . S
O92 C94 1.240 . S
O93 Co66 2.096 1_554 S
O93 C74 1.247 . S
C94 O91 1.244 . S
C94 O92 1.240 . S
H95 C69 0.931 . S
H96 C78 0.931 . S
H97 C82 0.929 . S
H98 C84 0.930 . S
Co99 N103 2.148 . S
Co99 N109 2.128 . S
Co99 N119 2.194 . S
Co99 O124 2.351 . S
Co99 O125 2.155 . S
Co99 O126 2.096 . S
C100 N103 1.301 . S
C100 N104 1.328 . S
C100 H105 0.930 . S
C101 C102 1.333 . S
C101 N103 1.317 . S
C101 H106 0.930 . S
C102 C101 1.333 . S
C102 N104 1.350 . S
C102 H128 0.931 . S
N103 Co99 2.148 . S
N103 C100 1.301 . S
N103 C101 1.317 . S
N104 C100 1.328 . S
N104 C102 1.350 . S
H105 C100 0.930 . S
H106 C101 0.930 . S
C107 O108 1.224 . S
C107 O126 1.247 . S
O108 C107 1.224 . S
N109 Co99 2.128 . S
N109 C110 1.355 . S
N109 C112 1.311 . S
C110 N109 1.355 . S
C110 C111 1.363 1_554 S
C110 H122 0.929 . S
C111 C110 1.363 1_556 S
C111 N113 1.375 1_556 S
C111 H129 0.931 . S
C112 N109 1.311 . S
C112 N113 1.347 . S
C112 H123 0.929 . S
N113 C111 1.375 1_554 S
N113 C112 1.347 . S
C114 C117 1.365 . S
C114 N119 1.328 . S
C114 H120 0.929 . S
C115 C116 1.362 . S
C115 C118 1.378 . S
C115 H130 0.929 . S
C116 C115 1.362 . S
C116 C117 1.366 . S
C117 C114 1.365 . S
C117 C116 1.366 . S
C117 H131 0.930 . S
C118 C115 1.378 . S
C118 N119 1.315 . S
C118 H121 0.930 . S
N119 Co99 2.194 . S
N119 C114 1.328 . S
N119 C118 1.315 . S
H120 C114 0.929 . S
H121 C118 0.930 . S
H122 C110 0.929 . S
H123 C112 0.929 . S
O124 Co99 2.351 . S
O124 C127 1.244 . S
O125 Co99 2.155 . S
O125 C127 1.240 . S
O126 Co99 2.096 . S
O126 C107 1.247 . S
C127 O124 1.244 . S
C127 O125 1.240 . S
H128 C102 0.931 . S
H129 C111 0.931 . S
H130 C115 0.929 . S
H131 C117 0.930 . S
Co132 N136 2.148 1_554 S
Co132 N142 2.128 . S
Co132 N152 2.194 . S
Co132 O157 2.351 . S
Co132 O158 2.155 . S
Co132 O159 2.096 1_554 S
C133 N136 1.301 . S
C133 N137 1.328 . S
C133 H138 0.930 . S
C134 C135 1.333 . S
C134 N136 1.317 . S
C134 H139 0.930 . S
C135 C134 1.333 . S
C135 N137 1.350 . S
C135 H161 0.931 . S
N136 Co132 2.148 1_556 S
N136 C133 1.301 . S
N136 C134 1.317 . S
N137 C133 1.328 . S
N137 C135 1.350 . S
H138 C133 0.930 . S
H139 C134 0.930 . S
C140 O141 1.224 . S
C140 O159 1.247 . S
O141 C140 1.224 . S
N142 Co132 2.128 . S
N142 C143 1.355 . S
N142 C145 1.311 . S
C143 N142 1.355 . S
C143 C144 1.363 . S
C143 H155 0.929 . S
C144 C143 1.363 . S
C144 N146 1.375 . S
C144 H162 0.931 . S
C145 N142 1.311 . S
C145 N146 1.347 . S
C145 H156 0.929 . S
N146 C144 1.375 . S
N146 C145 1.347 . S
C147 C150 1.365 . S
C147 N152 1.328 . S
C147 H153 0.929 . S
C148 C149 1.362 . S
C148 C151 1.378 . S
C148 H163 0.929 . S
C149 C148 1.362 . S
C149 C150 1.366 1_556 S
C150 C147 1.365 . S
C150 C149 1.366 1_554 S
C150 H164 0.930 . S
C151 C148 1.378 . S
C151 N152 1.315 1_556 S
C151 H154 0.930 . S
N152 Co132 2.194 . S
N152 C147 1.328 . S
N152 C151 1.315 1_554 S
H153 C147 0.929 . S
H154 C151 0.930 . S
H155 C143 0.929 . S
H156 C145 0.929 . S
O157 Co132 2.351 . S
O157 C160 1.244 . S
O158 Co132 2.155 . S
O158 C160 1.240 . S
O159 Co132 2.096 1_556 S
O159 C140 1.247 . S
C160 O157 1.244 . S
C160 O158 1.240 . S
H161 C135 0.931 . S
H162 C144 0.931 . S
H163 C148 0.929 . S
H164 C150 0.930 . S
Co165 N169 2.148 . S
Co165 N175 2.128 . S
Co165 N185 2.194 . S
Co165 O190 2.351 . S
Co165 O191 2.155 . S
Co165 O192 2.096 . S
C166 N169 1.301 . S
C166 N170 1.328 . S
C166 H171 0.930 . S
C167 C168 1.333 . S
C167 N169 1.317 . S
C167 H172 0.930 . S
C168 C167 1.333 . S
C168 N170 1.350 . S
C168 H194 0.931 1_554 S
N169 Co165 2.148 . S
N169 C166 1.301 . S
N169 C167 1.317 . S
N170 C166 1.328 . S
N170 C168 1.350 . S
H171 C166 0.930 . S
H172 C167 0.930 . S
C173 O174 1.224 . S
C173 O192 1.247 . S
O174 C173 1.224 . S
N175 Co165 2.128 . S
N175 C176 1.355 . S
N175 C178 1.311 . S
C176 N175 1.355 . S
C176 C177 1.363 . S
C176 H188 0.929 . S
C177 C176 1.363 . S
C177 N179 1.375 . S
C177 H195 0.931 . S
C178 N175 1.311 . S
C178 N179 1.347 . S
C178 H189 0.929 . S
N179 C177 1.375 . S
N179 C178 1.347 . S
C180 C183 1.365 . S
C180 N185 1.328 . S
C180 H186 0.929 . S
C181 C182 1.362 . S
C181 C184 1.378 . S
C181 H196 0.929 . S
C182 C181 1.362 . S
C182 C183 1.366 . S
C183 C180 1.365 . S
C183 C182 1.366 . S
C183 H197 0.930 . S
C184 C181 1.378 . S
C184 N185 1.315 . S
C184 H187 0.930 . S
N185 Co165 2.194 . S
N185 C180 1.328 . S
N185 C184 1.315 . S
H186 C180 0.929 . S
H187 C184 0.930 . S
H188 C176 0.929 . S
H189 C178 0.929 . S
O190 Co165 2.351 . S
O190 C193 1.244 . S
O191 Co165 2.155 . S
O191 C193 1.240 . S
O192 Co165 2.096 . S
O192 C173 1.247 . S
C193 O190 1.244 . S
C193 O191 1.240 . S
H194 C168 0.931 1_556 S
H195 C177 0.931 . S
H196 C181 0.929 . S
H197 C183 0.930 . S
Co198 N202 2.148 . S
Co198 N208 2.128 . S
Co198 N218 2.194 . S
Co198 O223 2.351 . S
Co198 O224 2.155 . S
Co198 O225 2.096 . S
C199 N202 1.301 . S
C199 N203 1.328 . S
C199 H204 0.930 . S
C200 C201 1.333 . S
C200 N202 1.317 . S
C200 H205 0.930 . S
C201 C200 1.333 . S
C201 N203 1.350 . S
C201 H227 0.931 . S
N202 Co198 2.148 . S
N202 C199 1.301 . S
N202 C200 1.317 . S
N203 C199 1.328 . S
N203 C201 1.350 . S
H204 C199 0.930 . S
H205 C200 0.930 . S
C206 O207 1.224 . S
C206 O225 1.247 . S
O207 C206 1.224 . S
N208 Co198 2.128 . S
N208 C209 1.355 . S
N208 C211 1.311 . S
C209 N208 1.355 . S
C209 C210 1.363 . S
C209 H221 0.929 . S
C210 C209 1.363 . S
C210 N212 1.375 . S
C210 H228 0.931 . S
C211 N208 1.311 . S
C211 N212 1.347 . S
C211 H222 0.929 . S
N212 C210 1.375 . S
N212 C211 1.347 . S
C213 C216 1.365 . S
C213 N218 1.328 . S
C213 H219 0.929 . S
C214 C215 1.362 . S
C214 C217 1.378 . S
C214 H229 0.929 . S
C215 C214 1.362 . S
C215 C216 1.366 . S
C216 C213 1.365 . S
C216 C215 1.366 . S
C216 H230 0.930 . S
C217 C214 1.378 . S
C217 N218 1.315 . S
C217 H220 0.930 . S
N218 Co198 2.194 . S
N218 C213 1.328 . S
N218 C217 1.315 . S
H219 C213 0.929 . S
H220 C217 0.930 . S
H221 C209 0.929 . S
H222 C211 0.929 . S
O223 Co198 2.351 . S
O223 C226 1.244 . S
O224 Co198 2.155 . S
O224 C226 1.240 . S
O225 Co198 2.096 . S
O225 C206 1.247 . S
C226 O223 1.244 . S
C226 O224 1.240 . S
H227 C201 0.931 . S
H228 C210 0.931 . S
H229 C214 0.929 . S
H230 C216 0.930 . S
Co231 N235 2.148 . S
Co231 N241 2.128 . S
Co231 N251 2.194 . S
Co231 O256 2.351 . S
Co231 O257 2.155 . S
Co231 O258 2.096 . S
C232 N235 1.301 . S
C232 N236 1.328 . S
C232 H237 0.930 . S
C233 C234 1.333 . S
C233 N235 1.317 . S
C233 H238 0.930 . S
C234 C233 1.333 . S
C234 N236 1.350 . S
C234 H260 0.931 . S
N235 Co231 2.148 . S
N235 C232 1.301 . S
N235 C233 1.317 . S
N236 C232 1.328 . S
N236 C234 1.350 . S
H237 C232 0.930 . S
H238 C233 0.930 . S
C239 O240 1.224 . S
C239 O258 1.247 . S
O240 C239 1.224 . S
N241 Co231 2.128 . S
N241 C242 1.355 . S
N241 C244 1.311 . S
C242 N241 1.355 . S
C242 C243 1.363 1_556 S
C242 H254 0.929 . S
C243 C242 1.363 1_554 S
C243 N245 1.375 1_554 S
C243 H261 0.931 . S
C244 N241 1.311 . S
C244 N245 1.347 . S
C244 H255 0.929 . S
N245 C243 1.375 1_556 S
N245 C244 1.347 . S
C246 C249 1.365 . S
C246 N251 1.328 . S
C246 H252 0.929 . S
C247 C248 1.362 . S
C247 C250 1.378 . S
C247 H262 0.929 . S
C248 C247 1.362 . S
C248 C249 1.366 . S
C249 C246 1.365 . S
C249 C248 1.366 . S
C249 H263 0.930 . S
C250 C247 1.378 . S
C250 N251 1.315 . S
C250 H253 0.930 . S
N251 Co231 2.194 . S
N251 C246 1.328 . S
N251 C250 1.315 . S
H252 C246 0.929 . S
H253 C250 0.930 . S
H254 C242 0.929 . S
H255 C244 0.929 . S
O256 Co231 2.351 . S
O256 C259 1.244 . S
O257 Co231 2.155 . S
O257 C259 1.240 . S
O258 Co231 2.096 . S
O258 C239 1.247 . S
C259 O256 1.244 . S
C259 O257 1.240 . S
H260 C234 0.931 . S
H261 C243 0.931 . S
H262 C247 0.929 . S
H263 C249 0.930 . S
Co264 N268 2.148 . S
Co264 N274 2.128 . S
Co264 N284 2.194 . S
Co264 O289 2.351 . S
Co264 O290 2.155 . S
Co264 O291 2.096 . S
C265 N268 1.301 . S
C265 N269 1.328 . S
C265 H270 0.930 . S
C266 C267 1.333 . S
C266 N268 1.317 . S
C266 H271 0.930 . S
C267 C266 1.333 . S
C267 N269 1.350 . S
C267 H293 0.931 . S
N268 Co264 2.148 . S
N268 C265 1.301 . S
N268 C266 1.317 . S
N269 C265 1.328 . S
N269 C267 1.350 . S
H270 C265 0.930 . S
H271 C266 0.930 . S
C272 O273 1.224 . S
C272 O291 1.247 . S
O273 C272 1.224 . S
N274 Co264 2.128 . S
N274 C275 1.355 . S
N274 C277 1.311 . S
C275 N274 1.355 . S
C275 C276 1.363 . S
C275 H287 0.929 . S
C276 C275 1.363 . S
C276 N278 1.375 . S
C276 H294 0.931 . S
C277 N274 1.311 . S
C277 N278 1.347 . S
C277 H288 0.929 . S
N278 C276 1.375 . S
N278 C277 1.347 . S
C279 C282 1.365 . S
C279 N284 1.328 . S
C279 H285 0.929 . S
C280 C281 1.362 . S
C280 C283 1.378 . S
C280 H295 0.929 . S
C281 C280 1.362 . S
C281 C282 1.366 . S
C282 C279 1.365 . S
C282 C281 1.366 . S
C282 H296 0.930 . S
C283 C280 1.378 . S
C283 N284 1.315 . S
C283 H286 0.930 . S
N284 Co264 2.194 . S
N284 C279 1.328 . S
N284 C283 1.315 . S
H285 C279 0.929 . S
H286 C283 0.930 . S
H287 C275 0.929 . S
H288 C277 0.929 . S
O289 Co264 2.351 . S
O289 C292 1.244 . S
O290 Co264 2.155 . S
O290 C292 1.240 . S
O291 Co264 2.096 . S
O291 C272 1.247 . S
C292 O289 1.244 . S
C292 O290 1.240 . S
H293 C267 0.931 . S
H294 C276 0.931 . S
H295 C280 0.929 . S
H296 C282 0.930 . S
Co297 N301 2.148 . S
Co297 N307 2.128 . S
Co297 N317 2.194 . S
Co297 O322 2.351 . S
Co297 O323 2.155 . S
Co297 O324 2.096 . S
C298 N301 1.301 . S
C298 N302 1.328 . S
C298 H303 0.930 . S
C299 C300 1.333 . S
C299 N301 1.317 . S
C299 H304 0.930 . S
C300 C299 1.333 . S
C300 N302 1.350 . S
C300 H326 0.931 1_554 S
N301 Co297 2.148 . S
N301 C298 1.301 . S
N301 C299 1.317 . S
N302 C298 1.328 . S
N302 C300 1.350 . S
H303 C298 0.930 . S
H304 C299 0.930 . S
C305 O306 1.224 . S
C305 O324 1.247 . S
O306 C305 1.224 . S
N307 Co297 2.128 . S
N307 C308 1.355 . S
N307 C310 1.311 . S
C308 N307 1.355 . S
C308 C309 1.363 . S
C308 H320 0.929 . S
C309 C308 1.363 . S
C309 N311 1.375 . S
C309 H327 0.931 . S
C310 N307 1.311 . S
C310 N311 1.347 . S
C310 H321 0.929 . S
N311 C309 1.375 . S
N311 C310 1.347 . S
C312 C315 1.365 . S
C312 N317 1.328 . S
C312 H318 0.929 . S
C313 C314 1.362 . S
C313 C316 1.378 . S
C313 H328 0.929 . S
C314 C313 1.362 . S
C314 C315 1.366 . S
C315 C312 1.365 . S
C315 C314 1.366 . S
C315 H329 0.930 . S
C316 C313 1.378 . S
C316 N317 1.315 . S
C316 H319 0.930 . S
N317 Co297 2.194 . S
N317 C312 1.328 . S
N317 C316 1.315 . S
H318 C312 0.929 . S
H319 C316 0.930 . S
H320 C308 0.929 . S
H321 C310 0.929 . S
O322 Co297 2.351 . S
O322 C325 1.244 . S
O323 Co297 2.155 . S
O323 C325 1.240 . S
O324 Co297 2.096 . S
O324 C305 1.247 . S
C325 O322 1.244 . S
C325 O323 1.240 . S
H326 C300 0.931 1_556 S
H327 C309 0.931 . S
H328 C313 0.929 . S
H329 C315 0.930 . S
Co330 N334 2.148 1_554 S
Co330 N340 2.128 . S
Co330 N350 2.194 . S
Co330 O355 2.351 . S
Co330 O356 2.155 . S
Co330 O357 2.096 1_554 S
C331 N334 1.301 . S
C331 N335 1.328 . S
C331 H336 0.930 . S
C332 C333 1.333 . S
C332 N334 1.317 . S
C332 H337 0.930 . S
C333 C332 1.333 . S
C333 N335 1.350 . S
C333 H359 0.931 . S
N334 Co330 2.148 1_556 S
N334 C331 1.301 . S
N334 C332 1.317 . S
N335 C331 1.328 . S
N335 C333 1.350 . S
H336 C331 0.930 . S
H337 C332 0.930 . S
C338 O339 1.224 . S
C338 O357 1.247 . S
O339 C338 1.224 . S
N340 Co330 2.128 . S
N340 C341 1.355 . S
N340 C343 1.311 . S
C341 N340 1.355 . S
C341 C342 1.363 . S
C341 H353 0.929 . S
C342 C341 1.363 . S
C342 N344 1.375 . S
C342 H360 0.931 . S
C343 N340 1.311 . S
C343 N344 1.347 . S
C343 H354 0.929 . S
N344 C342 1.375 . S
N344 C343 1.347 . S
C345 C348 1.365 . S
C345 N350 1.328 . S
C345 H351 0.929 . S
C346 C347 1.362 . S
C346 C349 1.378 . S
C346 H361 0.929 . S
C347 C346 1.362 . S
C347 C348 1.366 1_556 S
C348 C345 1.365 . S
C348 C347 1.366 1_554 S
C348 H362 0.930 . S
C349 C346 1.378 . S
C349 N350 1.315 1_556 S
C349 H352 0.930 . S
N350 Co330 2.194 . S
N350 C345 1.328 . S
N350 C349 1.315 1_554 S
H351 C345 0.929 . S
H352 C349 0.930 . S
H353 C341 0.929 . S
H354 C343 0.929 . S
O355 Co330 2.351 . S
O355 C358 1.244 . S
O356 Co330 2.155 . S
O356 C358 1.240 . S
O357 Co330 2.096 1_556 S
O357 C338 1.247 . S
C358 O355 1.244 . S
C358 O356 1.240 . S
H359 C333 0.931 . S
H360 C342 0.931 . S
H361 C346 0.929 . S
H362 C348 0.930 . S
Co363 N367 2.148 . S
Co363 N373 2.128 . S
Co363 N383 2.194 . S
Co363 O388 2.351 . S
Co363 O389 2.155 . S
Co363 O390 2.096 . S
C364 N367 1.301 . S
C364 N368 1.328 . S
C364 H369 0.930 . S
C365 C366 1.333 . S
C365 N367 1.317 . S
C365 H370 0.930 . S
C366 C365 1.333 . S
C366 N368 1.350 . S
C366 H392 0.931 . S
N367 Co363 2.148 . S
N367 C364 1.301 . S
N367 C365 1.317 . S
N368 C364 1.328 . S
N368 C366 1.350 . S
H369 C364 0.930 . S
H370 C365 0.930 . S
C371 O372 1.224 . S
C371 O390 1.247 . S
O372 C371 1.224 . S
N373 Co363 2.128 . S
N373 C374 1.355 . S
N373 C376 1.311 . S
C374 N373 1.355 . S
C374 C375 1.363 1_556 S
C374 H386 0.929 . S
C375 C374 1.363 1_554 S
C375 N377 1.375 1_554 S
C375 H393 0.931 . S
C376 N373 1.311 . S
C376 N377 1.347 . S
C376 H387 0.929 . S
N377 C375 1.375 1_556 S
N377 C376 1.347 . S
C378 C381 1.365 . S
C378 N383 1.328 . S
C378 H384 0.929 . S
C379 C380 1.362 . S
C379 C382 1.378 . S
C379 H394 0.929 . S
C380 C379 1.362 . S
C380 C381 1.366 . S
C381 C378 1.365 . S
C381 C380 1.366 . S
C381 H395 0.930 . S
C382 C379 1.378 . S
C382 N383 1.315 . S
C382 H385 0.930 . S
N383 Co363 2.194 . S
N383 C378 1.328 . S
N383 C382 1.315 . S
H384 C378 0.929 . S
H385 C382 0.930 . S
H386 C374 0.929 . S
H387 C376 0.929 . S
O388 Co363 2.351 . S
O388 C391 1.244 . S
O389 Co363 2.155 . S
O389 C391 1.240 . S
O390 Co363 2.096 . S
O390 C371 1.247 . S
C391 O388 1.244 . S
C391 O389 1.240 . S
H392 C366 0.931 . S
H393 C375 0.931 . S
H394 C379 0.929 . S
H395 C381 0.930 . S
Co396 N400 2.148 1_556 S
Co396 N406 2.128 . S
Co396 N416 2.194 . S
Co396 O421 2.351 . S
Co396 O422 2.155 . S
Co396 O423 2.096 1_556 S
C397 N400 1.301 . S
C397 N401 1.328 . S
C397 H402 0.930 . S
C398 C399 1.333 . S
C398 N400 1.317 . S
C398 H403 0.930 . S
C399 C398 1.333 . S
C399 N401 1.350 . S
C399 H425 0.931 . S
N400 Co396 2.148 1_554 S
N400 C397 1.301 . S
N400 C398 1.317 . S
N401 C397 1.328 . S
N401 C399 1.350 . S
H402 C397 0.930 . S
H403 C398 0.930 . S
C404 O405 1.224 . S
C404 O423 1.247 . S
O405 C404 1.224 . S
N406 Co396 2.128 . S
N406 C407 1.355 . S
N406 C409 1.311 . S
C407 N406 1.355 . S
C407 C408 1.363 . S
C407 H419 0.929 . S
C408 C407 1.363 . S
C408 N410 1.375 . S
C408 H426 0.931 . S
C409 N406 1.311 . S
C409 N410 1.347 . S
C409 H420 0.929 . S
N410 C408 1.375 . S
N410 C409 1.347 . S
C411 C414 1.365 . S
C411 N416 1.328 . S
C411 H417 0.929 . S
C412 C413 1.362 . S
C412 C415 1.378 . S
C412 H427 0.929 . S
C413 C412 1.362 . S
C413 C414 1.366 1_554 S
C414 C411 1.365 . S
C414 C413 1.366 1_556 S
C414 H428 0.930 . S
C415 C412 1.378 . S
C415 N416 1.315 1_554 S
C415 H418 0.930 . S
N416 Co396 2.194 . S
N416 C411 1.328 . S
N416 C415 1.315 1_556 S
H417 C411 0.929 . S
H418 C415 0.930 . S
H419 C407 0.929 . S
H420 C409 0.929 . S
O421 Co396 2.351 . S
O421 C424 1.244 . S
O422 Co396 2.155 . S
O422 C424 1.240 . S
O423 Co396 2.096 1_554 S
O423 C404 1.247 . S
C424 O421 1.244 . S
C424 O422 1.240 . S
H425 C399 0.931 . S
H426 C408 0.931 . S
H427 C412 0.929 . S
H428 C414 0.930 . S
Co429 N433 2.148 . S
Co429 N439 2.128 . S
Co429 N449 2.194 . S
Co429 O454 2.351 . S
Co429 O455 2.155 . S
Co429 O456 2.096 . S
C430 N433 1.301 . S
C430 N434 1.328 . S
C430 H435 0.930 . S
C431 C432 1.333 . S
C431 N433 1.317 . S
C431 H436 0.930 . S
C432 C431 1.333 . S
C432 N434 1.350 . S
C432 H458 0.931 1_556 S
N433 Co429 2.148 . S
N433 C430 1.301 . S
N433 C431 1.317 . S
N434 C430 1.328 . S
N434 C432 1.350 . S
H435 C430 0.930 . S
H436 C431 0.930 . S
C437 O438 1.224 . S
C437 O456 1.247 . S
O438 C437 1.224 . S
N439 Co429 2.128 . S
N439 C440 1.355 . S
N439 C442 1.311 . S
C440 N439 1.355 . S
C440 C441 1.363 . S
C440 H452 0.929 . S
C441 C440 1.363 . S
C441 N443 1.375 . S
C441 H459 0.931 . S
C442 N439 1.311 . S
C442 N443 1.347 . S
C442 H453 0.929 . S
N443 C441 1.375 . S
N443 C442 1.347 . S
C444 C447 1.365 . S
C444 N449 1.328 . S
C444 H450 0.929 . S
C445 C446 1.362 . S
C445 C448 1.378 . S
C445 H460 0.929 . S
C446 C445 1.362 . S
C446 C447 1.366 . S
C447 C444 1.365 . S
C447 C446 1.366 . S
C447 H461 0.930 . S
C448 C445 1.378 . S
C448 N449 1.315 . S
C448 H451 0.930 . S
N449 Co429 2.194 . S
N449 C444 1.328 . S
N449 C448 1.315 . S
H450 C444 0.929 . S
H451 C448 0.930 . S
H452 C440 0.929 . S
H453 C442 0.929 . S
O454 Co429 2.351 . S
O454 C457 1.244 . S
O455 Co429 2.155 . S
O455 C457 1.240 . S
O456 Co429 2.096 . S
O456 C437 1.247 . S
C457 O454 1.244 . S
C457 O455 1.240 . S
H458 C432 0.931 1_554 S
H459 C441 0.931 . S
H460 C445 0.929 . S
H461 C447 0.930 . S
Co462 N466 2.148 . S
Co462 N472 2.128 . S
Co462 N482 2.194 . S
Co462 O487 2.351 . S
Co462 O488 2.155 . S
Co462 O489 2.096 . S
C463 N466 1.301 . S
C463 N467 1.328 . S
C463 H468 0.930 . S
C464 C465 1.333 . S
C464 N466 1.317 . S
C464 H469 0.930 . S
C465 C464 1.333 . S
C465 N467 1.350 . S
C465 H491 0.931 . S
N466 Co462 2.148 . S
N466 C463 1.301 . S
N466 C464 1.317 . S
N467 C463 1.328 . S
N467 C465 1.350 . S
H468 C463 0.930 . S
H469 C464 0.930 . S
C470 O471 1.224 . S
C470 O489 1.247 . S
O471 C470 1.224 . S
N472 Co462 2.128 . S
N472 C473 1.355 . S
N472 C475 1.311 . S
C473 N472 1.355 . S
C473 C474 1.363 . S
C473 H485 0.929 . S
C474 C473 1.363 . S
C474 N476 1.375 . S
C474 H492 0.931 . S
C475 N472 1.311 . S
C475 N476 1.347 . S
C475 H486 0.929 . S
N476 C474 1.375 . S
N476 C475 1.347 . S
C477 C480 1.365 . S
C477 N482 1.328 . S
C477 H483 0.929 . S
C478 C479 1.362 . S
C478 C481 1.378 . S
C478 H493 0.929 . S
C479 C478 1.362 . S
C479 C480 1.366 . S
C480 C477 1.365 . S
C480 C479 1.366 . S
C480 H494 0.930 . S
C481 C478 1.378 . S
C481 N482 1.315 . S
C481 H484 0.930 . S
N482 Co462 2.194 . S
N482 C477 1.328 . S
N482 C481 1.315 . S
H483 C477 0.929 . S
H484 C481 0.930 . S
H485 C473 0.929 . S
H486 C475 0.929 . S
O487 Co462 2.351 . S
O487 C490 1.244 . S
O488 Co462 2.155 . S
O488 C490 1.240 . S
O489 Co462 2.096 . S
O489 C470 1.247 . S
C490 O487 1.244 . S
C490 O488 1.240 . S
H491 C465 0.931 . S
H492 C474 0.931 . S
H493 C478 0.929 . S
H494 C480 0.930 . S
Co495 N499 2.148 . S
Co495 N505 2.128 . S
Co495 N515 2.194 . S
Co495 O520 2.351 . S
Co495 O521 2.155 . S
Co495 O522 2.096 . S
C496 N499 1.301 . S
C496 N500 1.328 . S
C496 H501 0.930 . S
C497 C498 1.333 . S
C497 N499 1.317 . S
C497 H502 0.930 . S
C498 C497 1.333 . S
C498 N500 1.350 . S
C498 H524 0.931 . S
N499 Co495 2.148 . S
N499 C496 1.301 . S
N499 C497 1.317 . S
N500 C496 1.328 . S
N500 C498 1.350 . S
H501 C496 0.930 . S
H502 C497 0.930 . S
C503 O504 1.224 . S
C503 O522 1.247 . S
O504 C503 1.224 . S
N505 Co495 2.128 . S
N505 C506 1.355 . S
N505 C508 1.311 . S
C506 N505 1.355 . S
C506 C507 1.363 1_554 S
C506 H518 0.929 . S
C507 C506 1.363 1_556 S
C507 N509 1.375 1_556 S
C507 H525 0.931 . S
C508 N505 1.311 . S
C508 N509 1.347 . S
C508 H519 0.929 . S
N509 C507 1.375 1_554 S
N509 C508 1.347 . S
C510 C513 1.365 . S
C510 N515 1.328 . S
C510 H516 0.929 . S
C511 C512 1.362 . S
C511 C514 1.378 . S
C511 H526 0.929 . S
C512 C511 1.362 . S
C512 C513 1.366 . S
C513 C510 1.365 . S
C513 C512 1.366 . S
C513 H527 0.930 . S
C514 C511 1.378 . S
C514 N515 1.315 . S
C514 H517 0.930 . S
N515 Co495 2.194 . S
N515 C510 1.328 . S
N515 C514 1.315 . S
H516 C510 0.929 . S
H517 C514 0.930 . S
H518 C506 0.929 . S
H519 C508 0.929 . S
O520 Co495 2.351 . S
O520 C523 1.244 . S
O521 Co495 2.155 . S
O521 C523 1.240 . S
O522 Co495 2.096 . S
O522 C503 1.247 . S
C523 O520 1.244 . S
C523 O521 1.240 . S
H524 C498 0.931 . S
H525 C507 0.931 . S
H526 C511 0.929 . S
H527 C513 0.930 . S
Co528 N532 2.148 1_556 S
Co528 N538 2.128 . S
Co528 N548 2.194 . S
Co528 O553 2.351 . S
Co528 O554 2.155 . S
Co528 O555 2.096 1_556 S
C529 N532 1.301 . S
C529 N533 1.328 . S
C529 H534 0.930 . S
C530 C531 1.333 . S
C530 N532 1.317 . S
C530 H535 0.930 . S
C531 C530 1.333 . S
C531 N533 1.350 . S
C531 H557 0.931 . S
N532 Co528 2.148 1_554 S
N532 C529 1.301 . S
N532 C530 1.317 . S
N533 C529 1.328 . S
N533 C531 1.350 . S
H534 C529 0.930 . S
H535 C530 0.930 . S
C536 O537 1.224 . S
C536 O555 1.247 . S
O537 C536 1.224 . S
N538 Co528 2.128 . S
N538 C539 1.355 . S
N538 C541 1.311 . S
C539 N538 1.355 . S
C539 C540 1.363 . S
C539 H551 0.929 . S
C540 C539 1.363 . S
C540 N542 1.375 . S
C540 H558 0.931 . S
C541 N538 1.311 . S
C541 N542 1.347 . S
C541 H552 0.929 . S
N542 C540 1.375 . S
N542 C541 1.347 . S
C543 C546 1.365 . S
C543 N548 1.328 . S
C543 H549 0.929 . S
C544 C545 1.362 . S
C544 C547 1.378 . S
C544 H559 0.929 . S
C545 C544 1.362 . S
C545 C546 1.366 1_554 S
C546 C543 1.365 . S
C546 C545 1.366 1_556 S
C546 H560 0.930 . S
C547 C544 1.378 . S
C547 N548 1.315 1_554 S
C547 H550 0.930 . S
N548 Co528 2.194 . S
N548 C543 1.328 . S
N548 C547 1.315 1_556 S
H549 C543 0.929 . S
H550 C547 0.930 . S
H551 C539 0.929 . S
H552 C541 0.929 . S
O553 Co528 2.351 . S
O553 C556 1.244 . S
O554 Co528 2.155 . S
O554 C556 1.240 . S
O555 Co528 2.096 1_554 S
O555 C536 1.247 . S
C556 O553 1.244 . S
C556 O554 1.240 . S
H557 C531 0.931 . S
H558 C540 0.931 . S
H559 C544 0.929 . S
H560 C546 0.930 . S
Co561 N565 2.148 . S
Co561 N571 2.128 . S
Co561 N581 2.194 . S
Co561 O586 2.351 . S
Co561 O587 2.155 . S
Co561 O588 2.096 . S
C562 N565 1.301 . S
C562 N566 1.328 . S
C562 H567 0.930 . S
C563 C564 1.333 . S
C563 N565 1.317 . S
C563 H568 0.930 . S
C564 C563 1.333 . S
C564 N566 1.350 . S
C564 H590 0.931 . S
N565 Co561 2.148 . S
N565 C562 1.301 . S
N565 C563 1.317 . S
N566 C562 1.328 . S
N566 C564 1.350 . S
H567 C562 0.930 . S
H568 C563 0.930 . S
C569 O570 1.224 . S
C569 O588 1.247 . S
O570 C569 1.224 . S
N571 Co561 2.128 . S
N571 C572 1.355 . S
N571 C574 1.311 . S
C572 N571 1.355 . S
C572 C573 1.363 1_554 S
C572 H584 0.929 . S
C573 C572 1.363 1_556 S
C573 N575 1.375 1_556 S
C573 H591 0.931 . S
C574 N571 1.311 . S
C574 N575 1.347 . S
C574 H585 0.929 . S
N575 C573 1.375 1_554 S
N575 C574 1.347 . S
C576 C579 1.365 . S
C576 N581 1.328 . S
C576 H582 0.929 . S
C577 C578 1.362 . S
C577 C580 1.378 . S
C577 H592 0.929 . S
C578 C577 1.362 . S
C578 C579 1.366 . S
C579 C576 1.365 . S
C579 C578 1.366 . S
C579 H593 0.930 . S
C580 C577 1.378 . S
C580 N581 1.315 . S
C580 H583 0.930 . S
N581 Co561 2.194 . S
N581 C576 1.328 . S
N581 C580 1.315 . S
H582 C576 0.929 . S
H583 C580 0.930 . S
H584 C572 0.929 . S
H585 C574 0.929 . S
O586 Co561 2.351 . S
O586 C589 1.244 . S
O587 Co561 2.155 . S
O587 C589 1.240 . S
O588 Co561 2.096 . S
O588 C569 1.247 . S
C589 O586 1.244 . S
C589 O587 1.240 . S
H590 C564 0.931 . S
H591 C573 0.931 . S
H592 C577 0.929 . S
H593 C579 0.930 . S
Co594 N598 2.148 . S
Co594 N604 2.128 . S
Co594 N614 2.194 . S
Co594 O619 2.351 . S
Co594 O620 2.155 . S
Co594 O621 2.096 . S
C595 N598 1.301 . S
C595 N599 1.328 . S
C595 H600 0.930 . S
C596 C597 1.333 . S
C596 N598 1.317 . S
C596 H601 0.930 . S
C597 C596 1.333 . S
C597 N599 1.350 . S
C597 H623 0.931 . S
N598 Co594 2.148 . S
N598 C595 1.301 . S
N598 C596 1.317 . S
N599 C595 1.328 . S
N599 C597 1.350 . S
H600 C595 0.930 . S
H601 C596 0.930 . S
C602 O603 1.224 . S
C602 O621 1.247 . S
O603 C602 1.224 . S
N604 Co594 2.128 . S
N604 C605 1.355 . S
N604 C607 1.311 . S
C605 N604 1.355 . S
C605 C606 1.363 . S
C605 H617 0.929 . S
C606 C605 1.363 . S
C606 N608 1.375 . S
C606 H624 0.931 . S
C607 N604 1.311 . S
C607 N608 1.347 . S
C607 H618 0.929 . S
N608 C606 1.375 . S
N608 C607 1.347 . S
C609 C612 1.365 . S
C609 N614 1.328 . S
C609 H615 0.929 . S
C610 C611 1.362 . S
C610 C613 1.378 . S
C610 H625 0.929 . S
C611 C610 1.362 . S
C611 C612 1.366 . S
C612 C609 1.365 . S
C612 C611 1.366 . S
C612 H626 0.930 . S
C613 C610 1.378 . S
C613 N614 1.315 . S
C613 H616 0.930 . S
N614 Co594 2.194 . S
N614 C609 1.328 . S
N614 C613 1.315 . S
H615 C609 0.929 . S
H616 C613 0.930 . S
H617 C605 0.929 . S
H618 C607 0.929 . S
O619 Co594 2.351 . S
O619 C622 1.244 . S
O620 Co594 2.155 . S
O620 C622 1.240 . S
O621 Co594 2.096 . S
O621 C602 1.247 . S
C622 O619 1.244 . S
C622 O620 1.240 . S
H623 C597 0.931 . S
H624 C606 0.931 . S
H625 C610 0.929 . S
H626 C612 0.930 . S
Co627 N631 2.148 . S
Co627 N637 2.128 . S
Co627 N647 2.194 . S
Co627 O652 2.351 . S
Co627 O653 2.155 . S
Co627 O654 2.096 . S
C628 N631 1.301 . S
C628 N632 1.328 . S
C628 H633 0.930 . S
C629 C630 1.333 . S
C629 N631 1.317 . S
C629 H634 0.930 . S
C630 C629 1.333 . S
C630 N632 1.350 . S
C630 H656 0.931 1_556 S
N631 Co627 2.148 . S
N631 C628 1.301 . S
N631 C629 1.317 . S
N632 C628 1.328 . S
N632 C630 1.350 . S
H633 C628 0.930 . S
H634 C629 0.930 . S
C635 O636 1.224 . S
C635 O654 1.247 . S
O636 C635 1.224 . S
N637 Co627 2.128 . S
N637 C638 1.355 . S
N637 C640 1.311 . S
C638 N637 1.355 . S
C638 C639 1.363 . S
C638 H650 0.929 . S
C639 C638 1.363 . S
C639 N641 1.375 . S
C639 H657 0.931 . S
C640 N637 1.311 . S
C640 N641 1.347 . S
C640 H651 0.929 . S
N641 C639 1.375 . S
N641 C640 1.347 . S
C642 C645 1.365 . S
C642 N647 1.328 . S
C642 H648 0.929 . S
C643 C644 1.362 . S
C643 C646 1.378 . S
C643 H658 0.929 . S
C644 C643 1.362 . S
C644 C645 1.366 . S
C645 C642 1.365 . S
C645 C644 1.366 . S
C645 H659 0.930 . S
C646 C643 1.378 . S
C646 N647 1.315 . S
C646 H649 0.930 . S
N647 Co627 2.194 . S
N647 C642 1.328 . S
N647 C646 1.315 . S
H648 C642 0.929 . S
H649 C646 0.930 . S
H650 C638 0.929 . S
H651 C640 0.929 . S
O652 Co627 2.351 . S
O652 C655 1.244 . S
O653 Co627 2.155 . S
O653 C655 1.240 . S
O654 Co627 2.096 . S
O654 C635 1.247 . S
C655 O652 1.244 . S
C655 O653 1.240 . S
H656 C630 0.931 1_554 S
H657 C639 0.931 . S
H658 C643 0.929 . S
H659 C645 0.930 . S
Co660 N664 2.148 . S
Co660 N670 2.128 . S
Co660 N680 2.194 . S
Co660 O685 2.351 . S
Co660 O686 2.155 . S
Co660 O687 2.096 . S
C661 N664 1.301 . S
C661 N665 1.328 . S
C661 H666 0.930 . S
C662 C663 1.333 . S
C662 N664 1.317 . S
C662 H667 0.930 . S
C663 C662 1.333 . S
C663 N665 1.350 . S
C663 H689 0.931 . S
N664 Co660 2.148 . S
N664 C661 1.301 . S
N664 C662 1.317 . S
N665 C661 1.328 . S
N665 C663 1.350 . S
H666 C661 0.930 . S
H667 C662 0.930 . S
C668 O669 1.224 . S
C668 O687 1.247 . S
O669 C668 1.224 . S
N670 Co660 2.128 . S
N670 C671 1.355 . S
N670 C673 1.311 . S
C671 N670 1.355 . S
C671 C672 1.363 . S
C671 H683 0.929 . S
C672 C671 1.363 . S
C672 N674 1.375 . S
C672 H690 0.931 . S
C673 N670 1.311 . S
C673 N674 1.347 . S
C673 H684 0.929 . S
N674 C672 1.375 . S
N674 C673 1.347 . S
C675 C678 1.365 . S
C675 N680 1.328 . S
C675 H681 0.929 . S
C676 C677 1.362 . S
C676 C679 1.378 . S
C676 H691 0.929 . S
C677 C676 1.362 . S
C677 C678 1.366 . S
C678 C675 1.365 . S
C678 C677 1.366 . S
C678 H692 0.930 . S
C679 C676 1.378 . S
C679 N680 1.315 . S
C679 H682 0.930 . S
N680 Co660 2.194 . S
N680 C675 1.328 . S
N680 C679 1.315 . S
H681 C675 0.929 . S
H682 C679 0.930 . S
H683 C671 0.929 . S
H684 C673 0.929 . S
O685 Co660 2.351 . S
O685 C688 1.244 . S
O686 Co660 2.155 . S
O686 C688 1.240 . S
O687 Co660 2.096 . S
O687 C668 1.247 . S
C688 O685 1.244 . S
C688 O686 1.240 . S
H689 C663 0.931 . S
H690 C672 0.931 . S
H691 C676 0.929 . S
H692 C678 0.930 . S
Co693 N697 2.148 . S
Co693 N703 2.128 . S
Co693 N713 2.194 . S
Co693 O718 2.351 . S
Co693 O719 2.155 . S
Co693 O720 2.096 . S
C694 N697 1.301 . S
C694 N698 1.328 . S
C694 H699 0.930 . S
C695 C696 1.333 . S
C695 N697 1.317 . S
C695 H700 0.930 . S
C696 C695 1.333 . S
C696 N698 1.350 . S
C696 H722 0.931 . S
N697 Co693 2.148 . S
N697 C694 1.301 . S
N697 C695 1.317 . S
N698 C694 1.328 . S
N698 C696 1.350 . S
H699 C694 0.930 . S
H700 C695 0.930 . S
C701 O702 1.224 . S
C701 O720 1.247 . S
O702 C701 1.224 . S
N703 Co693 2.128 . S
N703 C704 1.355 . S
N703 C706 1.311 . S
C704 N703 1.355 . S
C704 C705 1.363 1_556 S
C704 H716 0.929 . S
C705 C704 1.363 1_554 S
C705 N707 1.375 1_554 S
C705 H723 0.931 . S
C706 N703 1.311 . S
C706 N707 1.347 . S
C706 H717 0.929 . S
N707 C705 1.375 1_556 S
N707 C706 1.347 . S
C708 C711 1.365 . S
C708 N713 1.328 . S
C708 H714 0.929 . S
C709 C710 1.362 . S
C709 C712 1.378 . S
C709 H724 0.929 . S
C710 C709 1.362 . S
C710 C711 1.366 . S
C711 C708 1.365 . S
C711 C710 1.366 . S
C711 H725 0.930 . S
C712 C709 1.378 . S
C712 N713 1.315 . S
C712 H715 0.930 . S
N713 Co693 2.194 . S
N713 C708 1.328 . S
N713 C712 1.315 . S
H714 C708 0.929 . S
H715 C712 0.930 . S
H716 C704 0.929 . S
H717 C706 0.929 . S
O718 Co693 2.351 . S
O718 C721 1.244 . S
O719 Co693 2.155 . S
O719 C721 1.240 . S
O720 Co693 2.096 . S
O720 C701 1.247 . S
C721 O718 1.244 . S
C721 O719 1.240 . S
H722 C696 0.931 . S
H723 C705 0.931 . S
H724 C709 0.929 . S
H725 C711 0.930 . S
Co726 N730 2.148 1_554 S
Co726 N736 2.128 . S
Co726 N746 2.194 . S
Co726 O751 2.351 . S
Co726 O752 2.155 . S
Co726 O753 2.096 1_554 S
C727 N730 1.301 . S
C727 N731 1.328 . S
C727 H732 0.930 . S
C728 C729 1.333 . S
C728 N730 1.317 . S
C728 H733 0.930 . S
C729 C728 1.333 . S
C729 N731 1.350 . S
C729 H755 0.931 . S
N730 Co726 2.148 1_556 S
N730 C727 1.301 . S
N730 C728 1.317 . S
N731 C727 1.328 . S
N731 C729 1.350 . S
H732 C727 0.930 . S
H733 C728 0.930 . S
C734 O735 1.224 . S
C734 O753 1.247 . S
O735 C734 1.224 . S
N736 Co726 2.128 . S
N736 C737 1.355 . S
N736 C739 1.311 . S
C737 N736 1.355 . S
C737 C738 1.363 . S
C737 H749 0.929 . S
C738 C737 1.363 . S
C738 N740 1.375 . S
C738 H756 0.931 . S
C739 N736 1.311 . S
C739 N740 1.347 . S
C739 H750 0.929 . S
N740 C738 1.375 . S
N740 C739 1.347 . S
C741 C744 1.365 . S
C741 N746 1.328 . S
C741 H747 0.929 . S
C742 C743 1.362 . S
C742 C745 1.378 . S
C742 H757 0.929 . S
C743 C742 1.362 . S
C743 C744 1.366 1_556 S
C744 C741 1.365 . S
C744 C743 1.366 1_554 S
C744 H758 0.930 . S
C745 C742 1.378 . S
C745 N746 1.315 1_556 S
C745 H748 0.930 . S
N746 Co726 2.194 . S
N746 C741 1.328 . S
N746 C745 1.315 1_554 S
H747 C741 0.929 . S
H748 C745 0.930 . S
H749 C737 0.929 . S
H750 C739 0.929 . S
O751 Co726 2.351 . S
O751 C754 1.244 . S
O752 Co726 2.155 . S
O752 C754 1.240 . S
O753 Co726 2.096 1_556 S
O753 C734 1.247 . S
C754 O751 1.244 . S
C754 O752 1.240 . S
H755 C729 0.931 . S
H756 C738 0.931 . S
H757 C742 0.929 . S
H758 C744 0.930 . S
Co759 N763 2.148 . S
Co759 N769 2.128 . S
Co759 N779 2.194 . S
Co759 O784 2.351 . S
Co759 O785 2.155 . S
Co759 O786 2.096 . S
C760 N763 1.301 . S
C760 N764 1.328 . S
C760 H765 0.930 . S
C761 C762 1.333 . S
C761 N763 1.317 . S
C761 H766 0.930 . S
C762 C761 1.333 . S
C762 N764 1.350 . S
C762 H788 0.931 1_554 S
N763 Co759 2.148 . S
N763 C760 1.301 . S
N763 C761 1.317 . S
N764 C760 1.328 . S
N764 C762 1.350 . S
H765 C760 0.930 . S
H766 C761 0.930 . S
C767 O768 1.224 . S
C767 O786 1.247 . S
O768 C767 1.224 . S
N769 Co759 2.128 . S
N769 C770 1.355 . S
N769 C772 1.311 . S
C770 N769 1.355 . S
C770 C771 1.363 . S
C770 H782 0.929 . S
C771 C770 1.363 . S
C771 N773 1.375 . S
C771 H789 0.931 . S
C772 N769 1.311 . S
C772 N773 1.347 . S
C772 H783 0.929 . S
N773 C771 1.375 . S
N773 C772 1.347 . S
C774 C777 1.365 . S
C774 N779 1.328 . S
C774 H780 0.929 . S
C775 C776 1.362 . S
C775 C778 1.378 . S
C775 H790 0.929 . S
C776 C775 1.362 . S
C776 C777 1.366 . S
C777 C774 1.365 . S
C777 C776 1.366 . S
C777 H791 0.930 . S
C778 C775 1.378 . S
C778 N779 1.315 . S
C778 H781 0.930 . S
N779 Co759 2.194 . S
N779 C774 1.328 . S
N779 C778 1.315 . S
H780 C774 0.929 . S
H781 C778 0.930 . S
H782 C770 0.929 . S
H783 C772 0.929 . S
O784 Co759 2.351 . S
O784 C787 1.244 . S
O785 Co759 2.155 . S
O785 C787 1.240 . S
O786 Co759 2.096 . S
O786 C767 1.247 . S
C787 O784 1.244 . S
C787 O785 1.240 . S
H788 C762 0.931 1_556 S
H789 C771 0.931 . S
H790 C775 0.929 . S
H791 C777 0.930 . S
Co792 N796 2.148 1_554 S
Co792 N802 2.128 . S
Co792 N812 2.194 . S
Co792 O817 2.351 . S
Co792 O818 2.155 . S
Co792 O819 2.096 1_554 S
C793 N796 1.301 . S
C793 N797 1.328 . S
C793 H798 0.930 . S
C794 C795 1.333 . S
C794 N796 1.317 . S
C794 H799 0.930 . S
C795 C794 1.333 . S
C795 N797 1.350 . S
C795 H821 0.931 . S
N796 Co792 2.148 1_556 S
N796 C793 1.301 . S
N796 C794 1.317 . S
N797 C793 1.328 . S
N797 C795 1.350 . S
H798 C793 0.930 . S
H799 C794 0.930 . S
C800 O801 1.224 . S
C800 O819 1.247 . S
O801 C800 1.224 . S
N802 Co792 2.128 . S
N802 C803 1.355 . S
N802 C805 1.311 . S
C803 N802 1.355 . S
C803 C804 1.363 . S
C803 H815 0.929 . S
C804 C803 1.363 . S
C804 N806 1.375 . S
C804 H822 0.931 . S
C805 N802 1.311 . S
C805 N806 1.347 . S
C805 H816 0.929 . S
N806 C804 1.375 . S
N806 C805 1.347 . S
C807 C810 1.365 . S
C807 N812 1.328 . S
C807 H813 0.929 . S
C808 C809 1.362 . S
C808 C811 1.378 . S
C808 H823 0.929 . S
C809 C808 1.362 . S
C809 C810 1.366 1_556 S
C810 C807 1.365 . S
C810 C809 1.366 1_554 S
C810 H824 0.930 . S
C811 C808 1.378 . S
C811 N812 1.315 1_556 S
C811 H814 0.930 . S
N812 Co792 2.194 . S
N812 C807 1.328 . S
N812 C811 1.315 1_554 S
H813 C807 0.929 . S
H814 C811 0.930 . S
H815 C803 0.929 . S
H816 C805 0.929 . S
O817 Co792 2.351 . S
O817 C820 1.244 . S
O818 Co792 2.155 . S
O818 C820 1.240 . S
O819 Co792 2.096 1_556 S
O819 C800 1.247 . S
C820 O817 1.244 . S
C820 O818 1.240 . S
H821 C795 0.931 . S
H822 C804 0.931 . S
H823 C808 0.929 . S
H824 C810 0.930 . S
Co825 N829 2.148 . S
Co825 N835 2.128 . S
Co825 N845 2.194 . S
Co825 O850 2.351 . S
Co825 O851 2.155 . S
Co825 O852 2.096 . S
C826 N829 1.301 . S
C826 N830 1.328 . S
C826 H831 0.930 . S
C827 C828 1.333 . S
C827 N829 1.317 . S
C827 H832 0.930 . S
C828 C827 1.333 . S
C828 N830 1.350 . S
C828 H854 0.931 . S
N829 Co825 2.148 . S
N829 C826 1.301 . S
N829 C827 1.317 . S
N830 C826 1.328 . S
N830 C828 1.350 . S
H831 C826 0.930 . S
H832 C827 0.930 . S
C833 O834 1.224 . S
C833 O852 1.247 . S
O834 C833 1.224 . S
N835 Co825 2.128 . S
N835 C836 1.355 . S
N835 C838 1.311 . S
C836 N835 1.355 . S
C836 C837 1.363 1_556 S
C836 H848 0.929 . S
C837 C836 1.363 1_554 S
C837 N839 1.375 1_554 S
C837 H855 0.931 . S
C838 N835 1.311 . S
C838 N839 1.347 . S
C838 H849 0.929 . S
N839 C837 1.375 1_556 S
N839 C838 1.347 . S
C840 C843 1.365 . S
C840 N845 1.328 . S
C840 H846 0.929 . S
C841 C842 1.362 . S
C841 C844 1.378 . S
C841 H856 0.929 . S
C842 C841 1.362 . S
C842 C843 1.366 . S
C843 C840 1.365 . S
C843 C842 1.366 . S
C843 H857 0.930 . S
C844 C841 1.378 . S
C844 N845 1.315 . S
C844 H847 0.930 . S
N845 Co825 2.194 . S
N845 C840 1.328 . S
N845 C844 1.315 . S
H846 C840 0.929 . S
H847 C844 0.930 . S
H848 C836 0.929 . S
H849 C838 0.929 . S
O850 Co825 2.351 . S
O850 C853 1.244 . S
O851 Co825 2.155 . S
O851 C853 1.240 . S
O852 Co825 2.096 . S
O852 C833 1.247 . S
C853 O850 1.244 . S
C853 O851 1.240 . S
H854 C828 0.931 . S
H855 C837 0.931 . S
H856 C841 0.929 . S
H857 C843 0.930 . S
Co858 N862 2.148 . S
Co858 N868 2.128 . S
Co858 N878 2.194 . S
Co858 O883 2.351 . S
Co858 O884 2.155 . S
Co858 O885 2.096 . S
C859 N862 1.301 . S
C859 N863 1.328 . S
C859 H864 0.930 . S
C860 C861 1.333 . S
C860 N862 1.317 . S
C860 H865 0.930 . S
C861 C860 1.333 . S
C861 N863 1.350 . S
C861 H887 0.931 . S
N862 Co858 2.148 . S
N862 C859 1.301 . S
N862 C860 1.317 . S
N863 C859 1.328 . S
N863 C861 1.350 . S
H864 C859 0.930 . S
H865 C860 0.930 . S
C866 O867 1.224 . S
C866 O885 1.247 . S
O867 C866 1.224 . S
N868 Co858 2.128 . S
N868 C869 1.355 . S
N868 C871 1.311 . S
C869 N868 1.355 . S
C869 C870 1.363 . S
C869 H881 0.929 . S
C870 C869 1.363 . S
C870 N872 1.375 . S
C870 H888 0.931 . S
C871 N868 1.311 . S
C871 N872 1.347 . S
C871 H882 0.929 . S
N872 C870 1.375 . S
N872 C871 1.347 . S
C873 C876 1.365 . S
C873 N878 1.328 . S
C873 H879 0.929 . S
C874 C875 1.362 . S
C874 C877 1.378 . S
C874 H889 0.929 . S
C875 C874 1.362 . S
C875 C876 1.366 . S
C876 C873 1.365 . S
C876 C875 1.366 . S
C876 H890 0.930 . S
C877 C874 1.378 . S
C877 N878 1.315 . S
C877 H880 0.930 . S
N878 Co858 2.194 . S
N878 C873 1.328 . S
N878 C877 1.315 . S
H879 C873 0.929 . S
H880 C877 0.930 . S
H881 C869 0.929 . S
H882 C871 0.929 . S
O883 Co858 2.351 . S
O883 C886 1.244 . S
O884 Co858 2.155 . S
O884 C886 1.240 . S
O885 Co858 2.096 . S
O885 C866 1.247 . S
C886 O883 1.244 . S
C886 O884 1.240 . S
H887 C861 0.931 . S
H888 C870 0.931 . S
H889 C874 0.929 . S
H890 C876 0.930 . S
Co891 N895 2.148 . S
Co891 N901 2.128 . S
Co891 N911 2.194 . S
Co891 O916 2.351 . S
Co891 O917 2.155 . S
Co891 O918 2.096 . S
C892 N895 1.301 . S
C892 N896 1.328 . S
C892 H897 0.930 . S
C893 C894 1.333 . S
C893 N895 1.317 . S
C893 H898 0.930 . S
C894 C893 1.333 . S
C894 N896 1.350 . S
C894 H920 0.931 1_554 S
N895 Co891 2.148 . S
N895 C892 1.301 . S
N895 C893 1.317 . S
N896 C892 1.328 . S
N896 C894 1.350 . S
H897 C892 0.930 . S
H898 C893 0.930 . S
C899 O900 1.224 . S
C899 O918 1.247 . S
O900 C899 1.224 . S
N901 Co891 2.128 . S
N901 C902 1.355 . S
N901 C904 1.311 . S
C902 N901 1.355 . S
C902 C903 1.363 . S
C902 H914 0.929 . S
C903 C902 1.363 . S
C903 N905 1.375 . S
C903 H921 0.931 . S
C904 N901 1.311 . S
C904 N905 1.347 . S
C904 H915 0.929 . S
N905 C903 1.375 . S
N905 C904 1.347 . S
C906 C909 1.365 . S
C906 N911 1.328 . S
C906 H912 0.929 . S
C907 C908 1.362 . S
C907 C910 1.378 . S
C907 H922 0.929 . S
C908 C907 1.362 . S
C908 C909 1.366 . S
C909 C906 1.365 . S
C909 C908 1.366 . S
C909 H923 0.930 . S
C910 C907 1.378 . S
C910 N911 1.315 . S
C910 H913 0.930 . S
N911 Co891 2.194 . S
N911 C906 1.328 . S
N911 C910 1.315 . S
H912 C906 0.929 . S
H913 C910 0.930 . S
H914 C902 0.929 . S
H915 C904 0.929 . S
O916 Co891 2.351 . S
O916 C919 1.244 . S
O917 Co891 2.155 . S
O917 C919 1.240 . S
O918 Co891 2.096 . S
O918 C899 1.247 . S
C919 O916 1.244 . S
C919 O917 1.240 . S
H920 C894 0.931 1_556 S
H921 C903 0.931 . S
H922 C907 0.929 . S
H923 C909 0.930 . S
Co924 N928 2.148 . S
Co924 N934 2.128 . S
Co924 N944 2.194 . S
Co924 O949 2.351 . S
Co924 O950 2.155 . S
Co924 O951 2.096 . S
C925 N928 1.301 . S
C925 N929 1.328 . S
C925 H930 0.930 . S
C926 C927 1.333 . S
C926 N928 1.317 . S
C926 H931 0.930 . S
C927 C926 1.333 . S
C927 N929 1.350 . S
C927 H953 0.931 . S
N928 Co924 2.148 . S
N928 C925 1.301 . S
N928 C926 1.317 . S
N929 C925 1.328 . S
N929 C927 1.350 . S
H930 C925 0.930 . S
H931 C926 0.930 . S
C932 O933 1.224 . S
C932 O951 1.247 . S
O933 C932 1.224 . S
N934 Co924 2.128 . S
N934 C935 1.355 . S
N934 C937 1.311 . S
C935 N934 1.355 . S
C935 C936 1.363 . S
C935 H947 0.929 . S
C936 C935 1.363 . S
C936 N938 1.375 . S
C936 H954 0.931 . S
C937 N934 1.311 . S
C937 N938 1.347 . S
C937 H948 0.929 . S
N938 C936 1.375 . S
N938 C937 1.347 . S
C939 C942 1.365 . S
C939 N944 1.328 . S
C939 H945 0.929 . S
C940 C941 1.362 . S
C940 C943 1.378 . S
C940 H955 0.929 . S
C941 C940 1.362 . S
C941 C942 1.366 . S
C942 C939 1.365 . S
C942 C941 1.366 . S
C942 H956 0.930 . S
C943 C940 1.378 . S
C943 N944 1.315 . S
C943 H946 0.930 . S
N944 Co924 2.194 . S
N944 C939 1.328 . S
N944 C943 1.315 . S
H945 C939 0.929 . S
H946 C943 0.930 . S
H947 C935 0.929 . S
H948 C937 0.929 . S
O949 Co924 2.351 . S
O949 C952 1.244 . S
O950 Co924 2.155 . S
O950 C952 1.240 . S
O951 Co924 2.096 . S
O951 C932 1.247 . S
C952 O949 1.244 . S
C952 O950 1.240 . S
H953 C927 0.931 . S
H954 C936 0.931 . S
H955 C940 0.929 . S
H956 C942 0.930 . S
Co957 N961 2.148 . S
Co957 N967 2.128 . S
Co957 N977 2.194 . S
Co957 O982 2.351 . S
Co957 O983 2.155 . S
Co957 O984 2.096 . S
C958 N961 1.301 . S
C958 N962 1.328 . S
C958 H963 0.930 . S
C959 C960 1.333 . S
C959 N961 1.317 . S
C959 H964 0.930 . S
C960 C959 1.333 . S
C960 N962 1.350 . S
C960 H986 0.931 . S
N961 Co957 2.148 . S
N961 C958 1.301 . S
N961 C959 1.317 . S
N962 C958 1.328 . S
N962 C960 1.350 . S
H963 C958 0.930 . S
H964 C959 0.930 . S
C965 O966 1.224 . S
C965 O984 1.247 . S
O966 C965 1.224 . S
N967 Co957 2.128 . S
N967 C968 1.355 . S
N967 C970 1.311 . S
C968 N967 1.355 . S
C968 C969 1.363 1_554 S
C968 H980 0.929 . S
C969 C968 1.363 1_556 S
C969 N971 1.375 1_556 S
C969 H987 0.931 . S
C970 N967 1.311 . S
C970 N971 1.347 . S
C970 H981 0.929 . S
N971 C969 1.375 1_554 S
N971 C970 1.347 . S
C972 C975 1.365 . S
C972 N977 1.328 . S
C972 H978 0.929 . S
C973 C974 1.362 . S
C973 C976 1.378 . S
C973 H988 0.929 . S
C974 C973 1.362 . S
C974 C975 1.366 . S
C975 C972 1.365 . S
C975 C974 1.366 . S
C975 H989 0.930 . S
C976 C973 1.378 . S
C976 N977 1.315 . S
C976 H979 0.930 . S
N977 Co957 2.194 . S
N977 C972 1.328 . S
N977 C976 1.315 . S
H978 C972 0.929 . S
H979 C976 0.930 . S
H980 C968 0.929 . S
H981 C970 0.929 . S
O982 Co957 2.351 . S
O982 C985 1.244 . S
O983 Co957 2.155 . S
O983 C985 1.240 . S
O984 Co957 2.096 . S
O984 C965 1.247 . S
C985 O982 1.244 . S
C985 O983 1.240 . S
H986 C960 0.931 . S
H987 C969 0.931 . S
H988 C973 0.929 . S
H989 C975 0.930 . S
Co990 N994 2.148 1_556 S
Co990 N1000 2.128 . S
Co990 N1010 2.194 . S
Co990 O1015 2.351 . S
Co990 O1016 2.155 . S
Co990 O1017 2.096 1_556 S
C991 N994 1.301 . S
C991 N995 1.328 . S
C991 H996 0.930 . S
C992 C993 1.333 . S
C992 N994 1.317 . S
C992 H997 0.930 . S
C993 C992 1.333 . S
C993 N995 1.350 . S
C993 H1019 0.931 . S
N994 Co990 2.148 1_554 S
N994 C991 1.301 . S
N994 C992 1.317 . S
N995 C991 1.328 . S
N995 C993 1.350 . S
H996 C991 0.930 . S
H997 C992 0.930 . S
C998 O999 1.224 . S
C998 O1017 1.247 . S
O999 C998 1.224 . S
N1000 Co990 2.128 . S
N1000 C1001 1.355 . S
N1000 C1003 1.311 . S
C1001 N1000 1.355 . S
C1001 C1002 1.363 . S
C1001 H1013 0.929 . S
C1002 C1001 1.363 . S
C1002 N1004 1.375 . S
C1002 H1020 0.931 . S
C1003 N1000 1.311 . S
C1003 N1004 1.347 . S
C1003 H1014 0.929 . S
N1004 C1002 1.375 . S
N1004 C1003 1.347 . S
C1005 C1008 1.365 . S
C1005 N1010 1.328 . S
C1005 H1011 0.929 . S
C1006 C1007 1.362 . S
C1006 C1009 1.378 . S
C1006 H1021 0.929 . S
C1007 C1006 1.362 . S
C1007 C1008 1.366 1_554 S
C1008 C1005 1.365 . S
C1008 C1007 1.366 1_556 S
C1008 H1022 0.930 . S
C1009 C1006 1.378 . S
C1009 N1010 1.315 1_554 S
C1009 H1012 0.930 . S
N1010 Co990 2.194 . S
N1010 C1005 1.328 . S
N1010 C1009 1.315 1_556 S
H1011 C1005 0.929 . S
H1012 C1009 0.930 . S
H1013 C1001 0.929 . S
H1014 C1003 0.929 . S
O1015 Co990 2.351 . S
O1015 C1018 1.244 . S
O1016 Co990 2.155 . S
O1016 C1018 1.240 . S
O1017 Co990 2.096 1_554 S
O1017 C998 1.247 . S
C1018 O1015 1.244 . S
C1018 O1016 1.240 . S
H1019 C993 0.931 . S
H1020 C1002 0.931 . S
H1021 C1006 0.929 . S
H1022 C1008 0.930 . S
Co1023 N1027 2.148 . S
Co1023 N1033 2.128 . S
Co1023 N1043 2.194 . S
Co1023 O1048 2.351 . S
Co1023 O1049 2.155 . S
Co1023 O1050 2.096 . S
C1024 N1027 1.301 . S
C1024 N1028 1.328 . S
C1024 H1029 0.930 . S
C1025 C1026 1.333 . S
C1025 N1027 1.317 . S
C1025 H1030 0.930 . S
C1026 C1025 1.333 . S
C1026 N1028 1.350 . S
C1026 H1052 0.931 1_556 S
N1027 Co1023 2.148 . S
N1027 C1024 1.301 . S
N1027 C1025 1.317 . S
N1028 C1024 1.328 . S
N1028 C1026 1.350 . S
H1029 C1024 0.930 . S
H1030 C1025 0.930 . S
C1031 O1032 1.224 . S
C1031 O1050 1.247 . S
O1032 C1031 1.224 . S
N1033 Co1023 2.128 . S
N1033 C1034 1.355 . S
N1033 C1036 1.311 . S
C1034 N1033 1.355 . S
C1034 C1035 1.363 . S
C1034 H1046 0.929 . S
C1035 C1034 1.363 . S
C1035 N1037 1.375 . S
C1035 H1053 0.931 . S
C1036 N1033 1.311 . S
C1036 N1037 1.347 . S
C1036 H1047 0.929 . S
N1037 C1035 1.375 . S
N1037 C1036 1.347 . S
C1038 C1041 1.365 . S
C1038 N1043 1.328 . S
C1038 H1044 0.929 . S
C1039 C1040 1.362 . S
C1039 C1042 1.378 . S
C1039 H1054 0.929 . S
C1040 C1039 1.362 . S
C1040 C1041 1.366 . S
C1041 C1038 1.365 . S
C1041 C1040 1.366 . S
C1041 H1055 0.930 . S
C1042 C1039 1.378 . S
C1042 N1043 1.315 . S
C1042 H1045 0.930 . S
N1043 Co1023 2.194 . S
N1043 C1038 1.328 . S
N1043 C1042 1.315 . S
H1044 C1038 0.929 . S
H1045 C1042 0.930 . S
H1046 C1034 0.929 . S
H1047 C1036 0.929 . S
O1048 Co1023 2.351 . S
O1048 C1051 1.244 . S
O1049 Co1023 2.155 . S
O1049 C1051 1.240 . S
O1050 Co1023 2.096 . S
O1050 C1031 1.247 . S
C1051 O1048 1.244 . S
C1051 O1049 1.240 . S
H1052 C1026 0.931 1_554 S
H1053 C1035 0.931 . S
H1054 C1039 0.929 . S
H1055 C1041 0.930 . S
C1056 C1057 1.387 . S
C1056 H1060 0.950 . S
C1056 C1065 1.390 . S
C1057 C1056 1.387 . S
C1057 C1059 1.387 . S
H1058 C1065 0.950 . S
C1059 C1057 1.387 . S
C1059 C1061 1.390 . S
C1059 H1063 0.950 . S
H1060 C1056 0.950 . S
C1061 C1059 1.390 . S
C1061 C1062 1.387 . S
C1061 H1064 0.950 . S
C1062 C1061 1.387 . S
C1062 C1065 1.387 . S
H1063 C1059 0.950 . S
H1064 C1061 0.950 . S
C1065 C1056 1.390 . S
C1065 H1058 0.950 . S
C1065 C1062 1.387 . S
C1066 C1067 1.387 . S
C1066 H1070 0.950 . S
C1066 C1075 1.390 . S
C1067 C1066 1.387 . S
C1067 C1069 1.387 . S
H1068 C1075 0.950 1_554 S
C1069 C1067 1.387 . S
C1069 C1071 1.390 . S
C1069 H1073 0.950 . S
H1070 C1066 0.950 . S
C1071 C1069 1.390 . S
C1071 C1072 1.387 . S
C1071 H1074 0.950 . S
C1072 C1071 1.387 . S
C1072 C1075 1.387 . S
H1073 C1069 0.950 . S
H1074 C1071 0.950 . S
C1075 C1066 1.390 . S
C1075 H1068 0.950 1_556 S
C1075 C1072 1.387 . S
C1076 C1077 1.387 . S
C1076 H1080 0.950 . S
C1076 C1085 1.390 . S
C1077 C1076 1.387 . S
C1077 C1079 1.387 . S
H1078 C1085 0.950 . S
C1079 C1077 1.387 . S
C1079 C1081 1.390 . S
C1079 H1083 0.950 . S
H1080 C1076 0.950 . S
C1081 C1079 1.390 . S
C1081 C1082 1.387 . S
C1081 H1084 0.950 1_554 S
C1082 C1081 1.387 . S
C1082 C1085 1.387 . S
H1083 C1079 0.950 . S
H1084 C1081 0.950 1_556 S
C1085 C1076 1.390 . S
C1085 H1078 0.950 . S
C1085 C1082 1.387 . S
C1086 C1087 1.387 . S
C1086 H1090 0.950 . S
C1086 C1095 1.390 . S
C1087 C1086 1.387 . S
C1087 C1089 1.387 . S
H1088 C1095 0.950 . S
C1089 C1087 1.387 . S
C1089 C1091 1.390 . S
C1089 H1093 0.950 . S
H1090 C1086 0.950 . S
C1091 C1089 1.390 . S
C1091 C1092 1.387 . S
C1091 H1094 0.950 . S
C1092 C1091 1.387 . S
C1092 C1095 1.387 . S
H1093 C1089 0.950 . S
H1094 C1091 0.950 . S
C1095 C1086 1.390 . S
C1095 H1088 0.950 . S
C1095 C1092 1.387 . S
C1096 C1097 1.387 . S
C1096 H1100 0.950 . S
C1096 C1105 1.390 . S
C1097 C1096 1.387 . S
C1097 C1099 1.387 . S
H1098 C1105 0.950 . S
C1099 C1097 1.387 . S
C1099 C1101 1.390 . S
C1099 H1103 0.950 . S
H1100 C1096 0.950 . S
C1101 C1099 1.390 . S
C1101 C1102 1.387 . S
C1101 H1104 0.950 . S
C1102 C1101 1.387 . S
C1102 C1105 1.387 . S
H1103 C1099 0.950 . S
H1104 C1101 0.950 . S
C1105 C1096 1.390 . S
C1105 H1098 0.950 . S
C1105 C1102 1.387 . S
C1106 C1107 1.387 . S
C1106 H1110 0.950 1_554 S
C1106 C1115 1.390 . S
C1107 C1106 1.387 . S
C1107 C1109 1.387 . S
H1108 C1115 0.950 . S
C1109 C1107 1.387 . S
C1109 C1111 1.390 . S
C1109 H1113 0.950 . S
H1110 C1106 0.950 1_556 S
C1111 C1109 1.390 . S
C1111 C1112 1.387 . S
C1111 H1114 0.950 . S
C1112 C1111 1.387 . S
C1112 C1115 1.387 . S
H1113 C1109 0.950 . S
H1114 C1111 0.950 . S
C1115 C1106 1.390 . S
C1115 H1108 0.950 . S
C1115 C1112 1.387 . S
C1116 C1117 1.387 . S
C1116 H1120 0.950 . S
C1116 C1125 1.390 . S
C1117 C1116 1.387 . S
C1117 C1119 1.387 . S
H1118 C1125 0.950 1_554 S
C1119 C1117 1.387 . S
C1119 C1121 1.390 . S
C1119 H1123 0.950 . S
H1120 C1116 0.950 . S
C1121 C1119 1.390 . S
C1121 C1122 1.387 . S
C1121 H1124 0.950 . S
C1122 C1121 1.387 . S
C1122 C1125 1.387 . S
H1123 C1119 0.950 . S
H1124 C1121 0.950 . S
C1125 C1116 1.390 . S
C1125 H1118 0.950 1_556 S
C1125 C1122 1.387 . S
C1126 C1127 1.387 . S
C1126 H1130 0.950 . S
C1126 C1135 1.390 . S
C1127 C1126 1.387 . S
C1127 C1129 1.387 . S
H1128 C1135 0.950 . S
C1129 C1127 1.387 . S
C1129 C1131 1.390 . S
C1129 H1133 0.950 . S
H1130 C1126 0.950 . S
C1131 C1129 1.390 . S
C1131 C1132 1.387 . S
C1131 H1134 0.950 . S
C1132 C1131 1.387 . S
C1132 C1135 1.387 . S
H1133 C1129 0.950 . S
H1134 C1131 0.950 . S
C1135 C1126 1.390 . S
C1135 H1128 0.950 . S
C1135 C1132 1.387 . S
C1136 C1137 1.387 . S
C1136 H1140 0.950 1_554 S
C1136 C1145 1.390 . S
C1137 C1136 1.387 . S
C1137 C1139 1.387 . S
H1138 C1145 0.950 . S
C1139 C1137 1.387 . S
C1139 C1141 1.390 . S
C1139 H1143 0.950 . S
H1140 C1136 0.950 1_556 S
C1141 C1139 1.390 . S
C1141 C1142 1.387 . S
C1141 H1144 0.950 . S
C1142 C1141 1.387 . S
C1142 C1145 1.387 . S
H1143 C1139 0.950 . S
H1144 C1141 0.950 . S
C1145 C1136 1.390 . S
C1145 H1138 0.950 . S
C1145 C1142 1.387 . S
C1146 C1147 1.387 . S
C1146 H1150 0.950 . S
C1146 C1155 1.390 . S
C1147 C1146 1.387 . S
C1147 C1149 1.387 . S
H1148 C1155 0.950 . S
C1149 C1147 1.387 . S
C1149 C1151 1.390 . S
C1149 H1153 0.950 . S
H1150 C1146 0.950 . S
C1151 C1149 1.390 . S
C1151 C1152 1.387 . S
C1151 H1154 0.950 . S
C1152 C1151 1.387 . S
C1152 C1155 1.387 . S
H1153 C1149 0.950 . S
H1154 C1151 0.950 . S
C1155 C1146 1.390 . S
C1155 H1148 0.950 . S
C1155 C1152 1.387 . S
C1156 C1157 1.387 . S
C1156 H1160 0.950 . S
C1156 C1165 1.390 . S
C1157 C1156 1.387 . S
C1157 C1159 1.387 . S
H1158 C1165 0.950 . S
C1159 C1157 1.387 . S
C1159 C1161 1.390 . S
C1159 H1163 0.950 . S
H1160 C1156 0.950 . S
C1161 C1159 1.390 . S
C1161 C1162 1.387 . S
C1161 H1164 0.950 . S
C1162 C1161 1.387 . S
C1162 C1165 1.387 . S
H1163 C1159 0.950 . S
H1164 C1161 0.950 . S
C1165 C1156 1.390 . S
C1165 H1158 0.950 . S
C1165 C1162 1.387 . S
C1166 C1167 1.387 . S
C1166 H1170 0.950 . S
C1166 C1175 1.390 . S
C1167 C1166 1.387 . S
C1167 C1169 1.387 . S
H1168 C1175 0.950 . S
C1169 C1167 1.387 . S
C1169 C1171 1.390 . S
C1169 H1173 0.950 . S
H1170 C1166 0.950 . S
C1171 C1169 1.390 . S
C1171 C1172 1.387 . S
C1171 H1174 0.950 1_556 S
C1172 C1171 1.387 . S
C1172 C1175 1.387 . S
H1173 C1169 0.950 . S
H1174 C1171 0.950 1_554 S
C1175 C1166 1.390 . S
C1175 H1168 0.950 . S
C1175 C1172 1.387 . S
C1176 C1177 1.387 . S
C1176 H1180 0.950 . S
C1176 C1185 1.390 . S
C1177 C1176 1.387 . S
C1177 C1179 1.387 . S
H1178 C1185 0.950 . S
C1179 C1177 1.387 . S
C1179 C1181 1.390 . S
C1179 H1183 0.950 . S
H1180 C1176 0.950 . S
C1181 C1179 1.390 . S
C1181 C1182 1.387 . S
C1181 H1184 0.950 1_556 S
C1182 C1181 1.387 . S
C1182 C1185 1.387 . S
H1183 C1179 0.950 . S
H1184 C1181 0.950 1_554 S
C1185 C1176 1.390 . S
C1185 H1178 0.950 . S
C1185 C1182 1.387 . S
C1186 C1187 1.387 . S
C1186 H1190 0.950 . S
C1186 C1195 1.390 . S
C1187 C1186 1.387 . S
C1187 C1189 1.387 . S
H1188 C1195 0.950 . S
C1189 C1187 1.387 . S
C1189 C1191 1.390 . S
C1189 H1193 0.950 . S
H1190 C1186 0.950 . S
C1191 C1189 1.390 . S
C1191 C1192 1.387 . S
C1191 H1194 0.950 . S
C1192 C1191 1.387 . S
C1192 C1195 1.387 . S
H1193 C1189 0.950 . S
H1194 C1191 0.950 . S
C1195 C1186 1.390 . S
C1195 H1188 0.950 . S
C1195 C1192 1.387 . S
C1196 C1197 1.387 . S
C1196 H1200 0.950 . S
C1196 C1205 1.390 . S
C1197 C1196 1.387 . S
C1197 C1199 1.387 . S
H1198 C1205 0.950 . S
C1199 C1197 1.387 . S
C1199 C1201 1.390 . S
C1199 H1203 0.950 . S
H1200 C1196 0.950 . S
C1201 C1199 1.390 . S
C1201 C1202 1.387 . S
C1201 H1204 0.950 . S
C1202 C1201 1.387 . S
C1202 C1205 1.387 . S
H1203 C1199 0.950 . S
H1204 C1201 0.950 . S
C1205 C1196 1.390 . S
C1205 H1198 0.950 . S
C1205 C1202 1.387 . S
C1206 C1207 1.387 . S
C1206 H1210 0.950 . S
C1206 C1215 1.390 . S
C1207 C1206 1.387 . S
C1207 C1209 1.387 . S
H1208 C1215 0.950 1_556 S
C1209 C1207 1.387 . S
C1209 C1211 1.390 . S
C1209 H1213 0.950 . S
H1210 C1206 0.950 . S
C1211 C1209 1.390 . S
C1211 C1212 1.387 . S
C1211 H1214 0.950 . S
C1212 C1211 1.387 . S
C1212 C1215 1.387 . S
H1213 C1209 0.950 . S
H1214 C1211 0.950 . S
C1215 C1206 1.390 . S
C1215 H1208 0.950 1_554 S
C1215 C1212 1.387 . S
C1216 C1217 1.387 . S
C1216 H1220 0.950 . S
C1216 C1225 1.390 . S
C1217 C1216 1.387 . S
C1217 C1219 1.387 . S
H1218 C1225 0.950 . S
C1219 C1217 1.387 . S
C1219 C1221 1.390 . S
C1219 H1223 0.950 . S
H1220 C1216 0.950 . S
C1221 C1219 1.390 . S
C1221 C1222 1.387 . S
C1221 H1224 0.950 . S
C1222 C1221 1.387 . S
C1222 C1225 1.387 . S
H1223 C1219 0.950 . S
H1224 C1221 0.950 . S
C1225 C1216 1.390 . S
C1225 H1218 0.950 . S
C1225 C1222 1.387 . S
C1226 C1227 1.387 . S
C1226 H1230 0.950 . S
C1226 C1235 1.390 1_565 S
C1227 C1226 1.387 . S
C1227 C1229 1.387 . S
H1228 C1235 0.950 . S
C1229 C1227 1.387 . S
C1229 C1231 1.390 1_565 S
C1229 H1233 0.950 . S
H1230 C1226 0.950 . S
C1231 C1229 1.390 1_545 S
C1231 C1232 1.387 . S
C1231 H1234 0.950 . S
C1232 C1231 1.387 . S
C1232 C1235 1.387 . S
H1233 C1229 0.950 . S
H1234 C1231 0.950 . S
C1235 C1226 1.390 1_545 S
C1235 H1228 0.950 . S
C1235 C1232 1.387 . S
C1236 C1237 1.387 . S
C1236 H1240 0.950 . S
C1236 C1245 1.390 1_556 S
C1237 C1236 1.387 . S
C1237 C1239 1.387 . S
H1238 C1245 0.950 . S
C1239 C1237 1.387 . S
C1239 C1241 1.390 1_556 S
C1239 H1243 0.950 . S
H1240 C1236 0.950 . S
C1241 C1239 1.390 1_554 S
C1241 C1242 1.387 . S
C1241 H1244 0.950 . S
C1242 C1241 1.387 . S
C1242 C1245 1.387 . S
H1243 C1239 0.950 . S
H1244 C1241 0.950 . S
C1245 C1236 1.390 1_554 S
C1245 H1238 0.950 . S
C1245 C1242 1.387 . S
C1246 C1247 1.387 . S
C1246 H1250 0.950 . S
C1246 C1255 1.390 1_545 S
C1247 C1246 1.387 . S
C1247 C1249 1.387 . S
H1248 C1255 0.950 . S
C1249 C1247 1.387 . S
C1249 C1251 1.390 1_545 S
C1249 H1253 0.950 . S
H1250 C1246 0.950 . S
C1251 C1249 1.390 1_565 S
C1251 C1252 1.387 . S
C1251 H1254 0.950 . S
C1252 C1251 1.387 . S
C1252 C1255 1.387 . S
H1253 C1249 0.950 . S
H1254 C1251 0.950 . S
C1255 C1246 1.390 1_565 S
C1255 H1248 0.950 . S
C1255 C1252 1.387 . S
C1256 C1257 1.387 . S
C1256 H1260 0.950 . S
C1256 C1265 1.390 . S
C1257 C1256 1.387 . S
C1257 C1259 1.387 . S
H1258 C1265 0.950 . S
C1259 C1257 1.387 . S
C1259 C1261 1.390 . S
C1259 H1263 0.950 . S
H1260 C1256 0.950 . S
C1261 C1259 1.390 . S
C1261 C1262 1.387 . S
C1261 H1264 0.950 . S
C1262 C1261 1.387 . S
C1262 C1265 1.387 . S
H1263 C1259 0.950 . S
H1264 C1261 0.950 . S
C1265 C1256 1.390 . S
C1265 H1258 0.950 . S
C1265 C1262 1.387 . S
C1266 C1267 1.387 . S
C1266 H1270 0.950 . S
C1266 C1275 1.390 1_545 S
C1267 C1266 1.387 . S
C1267 C1269 1.387 . S
H1268 C1275 0.950 . S
C1269 C1267 1.387 . S
C1269 C1271 1.390 1_545 S
C1269 H1273 0.950 . S
H1270 C1266 0.950 . S
C1271 C1269 1.390 1_565 S
C1271 C1272 1.387 . S
C1271 H1274 0.950 . S
C1272 C1271 1.387 . S
C1272 C1275 1.387 . S
H1273 C1269 0.950 . S
H1274 C1271 0.950 . S
C1275 C1266 1.390 1_565 S
C1275 H1268 0.950 . S
C1275 C1272 1.387 . S
C1276 C1277 1.387 . S
C1276 H1280 0.950 . S
C1276 C1285 1.390 1_556 S
C1277 C1276 1.387 . S
C1277 C1279 1.387 . S
H1278 C1285 0.950 . S
C1279 C1277 1.387 . S
C1279 C1281 1.390 1_556 S
C1279 H1283 0.950 . S
H1280 C1276 0.950 . S
C1281 C1279 1.390 1_554 S
C1281 C1282 1.387 . S
C1281 H1284 0.950 . S
C1282 C1281 1.387 . S
C1282 C1285 1.387 . S
H1283 C1279 0.950 . S
H1284 C1281 0.950 . S
C1285 C1276 1.390 1_554 S
C1285 H1278 0.950 . S
C1285 C1282 1.387 . S
C1286 C1287 1.387 . S
C1286 H1290 0.950 . S
C1286 C1295 1.390 1_545 S
C1287 C1286 1.387 . S
C1287 C1289 1.387 . S
H1288 C1295 0.950 . S
C1289 C1287 1.387 . S
C1289 C1291 1.390 1_545 S
C1289 H1293 0.950 . S
H1290 C1286 0.950 . S
C1291 C1289 1.390 1_565 S
C1291 C1292 1.387 . S
C1291 H1294 0.950 . S
C1292 C1291 1.387 . S
C1292 C1295 1.387 . S
H1293 C1289 0.950 . S
H1294 C1291 0.950 . S
C1295 C1286 1.390 1_565 S
C1295 H1288 0.950 . S
C1295 C1292 1.387 . S
C1296 C1297 1.387 . S
C1296 H1300 0.950 . S
C1296 C1305 1.390 1_554 S
C1297 C1296 1.387 . S
C1297 C1299 1.387 . S
H1298 C1305 0.950 . S
C1299 C1297 1.387 . S
C1299 C1301 1.390 1_554 S
C1299 H1303 0.950 . S
H1300 C1296 0.950 . S
C1301 C1299 1.390 1_556 S
C1301 C1302 1.387 . S
C1301 H1304 0.950 . S
C1302 C1301 1.387 . S
C1302 C1305 1.387 . S
H1303 C1299 0.950 . S
H1304 C1301 0.950 . S
C1305 C1296 1.390 1_556 S
C1305 H1298 0.950 . S
C1305 C1302 1.387 . S
C1306 C1307 1.387 . S
C1306 H1310 0.950 . S
C1306 C1315 1.390 . S
C1307 C1306 1.387 . S
C1307 C1309 1.387 . S
H1308 C1315 0.950 . S
C1309 C1307 1.387 . S
C1309 C1311 1.390 . S
C1309 H1313 0.950 . S
H1310 C1306 0.950 . S
C1311 C1309 1.390 . S
C1311 C1312 1.387 . S
C1311 H1314 0.950 . S
C1312 C1311 1.387 . S
C1312 C1315 1.387 . S
H1313 C1309 0.950 . S
H1314 C1311 0.950 . S
C1315 C1306 1.390 . S
C1315 H1308 0.950 . S
C1315 C1312 1.387 . S
C1316 C1317 1.387 . S
C1316 H1320 0.950 . S
C1316 C1325 1.390 . S
C1317 C1316 1.387 . S
C1317 C1319 1.387 . S
H1318 C1325 0.950 . S
C1319 C1317 1.387 . S
C1319 C1321 1.390 . S
C1319 H1323 0.950 . S
H1320 C1316 0.950 . S
C1321 C1319 1.390 . S
C1321 C1322 1.387 . S
C1321 H1324 0.950 . S
C1322 C1321 1.387 . S
C1322 C1325 1.387 . S
H1323 C1319 0.950 . S
H1324 C1321 0.950 . S
C1325 C1316 1.390 . S
C1325 H1318 0.950 . S
C1325 C1322 1.387 . S
C1326 C1327 1.387 . S
C1326 H1330 0.950 . S
C1326 C1335 1.390 . S
C1327 C1326 1.387 . S
C1327 C1329 1.387 . S
H1328 C1335 0.950 . S
C1329 C1327 1.387 . S
C1329 C1331 1.390 . S
C1329 H1333 0.950 . S
H1330 C1326 0.950 . S
C1331 C1329 1.390 . S
C1331 C1332 1.387 . S
C1331 H1334 0.950 . S
C1332 C1331 1.387 . S
C1332 C1335 1.387 . S
H1333 C1329 0.950 . S
H1334 C1331 0.950 . S
C1335 C1326 1.390 . S
C1335 H1328 0.950 . S
C1335 C1332 1.387 . S
C1336 C1337 1.387 . S
C1336 H1340 0.950 . S
C1336 C1345 1.390 1_554 S
C1337 C1336 1.387 . S
C1337 C1339 1.387 . S
H1338 C1345 0.950 . S
C1339 C1337 1.387 . S
C1339 C1341 1.390 1_554 S
C1339 H1343 0.950 . S
H1340 C1336 0.950 . S
C1341 C1339 1.390 1_556 S
C1341 C1342 1.387 . S
C1341 H1344 0.950 . S
C1342 C1341 1.387 . S
C1342 C1345 1.387 . S
H1343 C1339 0.950 . S
H1344 C1341 0.950 . S
C1345 C1336 1.390 1_556 S
C1345 H1338 0.950 . S
C1345 C1342 1.387 . S
C1346 C1347 1.387 . S
C1346 H1350 0.950 . S
C1346 C1355 1.390 . S
C1347 C1346 1.387 . S
C1347 C1349 1.387 . S
H1348 C1355 0.950 . S
C1349 C1347 1.387 . S
C1349 C1351 1.390 . S
C1349 H1353 0.950 . S
H1350 C1346 0.950 . S
C1351 C1349 1.390 . S
C1351 C1352 1.387 . S
C1351 H1354 0.950 . S
C1352 C1351 1.387 . S
C1352 C1355 1.387 . S
H1353 C1349 0.950 . S
H1354 C1351 0.950 . S
C1355 C1346 1.390 . S
C1355 H1348 0.950 . S
C1355 C1352 1.387 . S
C1356 C1357 1.387 . S
C1356 H1360 0.950 . S
C1356 C1365 1.390 . S
C1357 C1356 1.387 . S
C1357 C1359 1.387 . S
H1358 C1365 0.950 . S
C1359 C1357 1.387 . S
C1359 C1361 1.390 . S
C1359 H1363 0.950 . S
H1360 C1356 0.950 . S
C1361 C1359 1.390 . S
C1361 C1362 1.387 . S
C1361 H1364 0.950 . S
C1362 C1361 1.387 . S
C1362 C1365 1.387 . S
H1363 C1359 0.950 . S
H1364 C1361 0.950 . S
C1365 C1356 1.390 . S
C1365 H1358 0.950 . S
C1365 C1362 1.387 . S
C1366 C1367 1.387 . S
C1366 H1370 0.950 . S
C1366 C1375 1.390 . S
C1367 C1366 1.387 . S
C1367 C1369 1.387 . S
H1368 C1375 0.950 . S
C1369 C1367 1.387 . S
C1369 C1371 1.390 . S
C1369 H1373 0.950 . S
H1370 C1366 0.950 . S
C1371 C1369 1.390 . S
C1371 C1372 1.387 . S
C1371 H1374 0.950 . S
C1372 C1371 1.387 . S
C1372 C1375 1.387 . S
H1373 C1369 0.950 . S
H1374 C1371 0.950 . S
C1375 C1366 1.390 . S
C1375 H1368 0.950 . S
C1375 C1372 1.387 . S
C1376 C1377 1.387 . S
C1376 H1380 0.950 . S
C1376 C1385 1.390 . S
C1377 C1376 1.387 . S
C1377 C1379 1.387 . S
H1378 C1385 0.950 . S
C1379 C1377 1.387 . S
C1379 C1381 1.390 . S
C1379 H1383 0.950 . S
H1380 C1376 0.950 . S
C1381 C1379 1.390 . S
C1381 C1382 1.387 . S
C1381 H1384 0.950 . S
C1382 C1381 1.387 . S
C1382 C1385 1.387 . S
H1383 C1379 0.950 . S
H1384 C1381 0.950 . S
C1385 C1376 1.390 . S
C1385 H1378 0.950 . S
C1385 C1382 1.387 . S
C1386 C1387 1.387 . S
C1386 H1390 0.950 . S
C1386 C1395 1.390 1_655 S
C1387 C1386 1.387 . S
C1387 C1389 1.387 1_655 S
H1388 C1395 0.950 . S
C1389 C1387 1.387 1_455 S
C1389 C1391 1.390 . S
C1389 H1393 0.950 . S
H1390 C1386 0.950 . S
C1391 C1389 1.390 . S
C1391 C1392 1.387 . S
C1391 H1394 0.950 . S
C1392 C1391 1.387 . S
C1392 C1395 1.387 . S
H1393 C1389 0.950 . S
H1394 C1391 0.950 . S
C1395 C1386 1.390 1_455 S
C1395 H1388 0.950 . S
C1395 C1392 1.387 . S
C1396 C1397 1.387 . S
C1396 H1400 0.950 . S
C1396 C1405 1.390 . S
C1397 C1396 1.387 . S
C1397 C1399 1.387 . S
H1398 C1405 0.950 . S
C1399 C1397 1.387 . S
C1399 C1401 1.390 . S
C1399 H1403 0.950 . S
H1400 C1396 0.950 . S
C1401 C1399 1.390 . S
C1401 C1402 1.387 . S
C1401 H1404 0.950 . S
C1402 C1401 1.387 . S
C1402 C1405 1.387 . S
H1403 C1399 0.950 . S
H1404 C1401 0.950 . S
C1405 C1396 1.390 . S
C1405 H1398 0.950 . S
C1405 C1402 1.387 . S
C1406 C1407 1.387 . S
C1406 H1410 0.950 . S
C1406 C1415 1.390 . S
C1407 C1406 1.387 . S
C1407 C1409 1.387 1_554 S
H1408 C1415 0.950 . S
C1409 C1407 1.387 1_556 S
C1409 C1411 1.390 . S
C1409 H1413 0.950 . S
H1410 C1406 0.950 . S
C1411 C1409 1.390 . S
C1411 C1412 1.387 . S
C1411 H1414 0.950 . S
C1412 C1411 1.387 . S
C1412 C1415 1.387 1_556 S
H1413 C1409 0.950 . S
H1414 C1411 0.950 . S
C1415 C1406 1.390 . S
C1415 H1408 0.950 . S
C1415 C1412 1.387 1_554 S
C1416 C1417 1.387 . S
C1416 H1420 0.950 . S
C1416 C1425 1.390 . S
C1417 C1416 1.387 . S
C1417 C1419 1.387 . S
H1418 C1425 0.950 . S
C1419 C1417 1.387 . S
C1419 C1421 1.390 . S
C1419 H1423 0.950 . S
H1420 C1416 0.950 . S
C1421 C1419 1.390 . S
C1421 C1422 1.387 . S
C1421 H1424 0.950 . S
C1422 C1421 1.387 . S
C1422 C1425 1.387 . S
H1423 C1419 0.950 . S
H1424 C1421 0.950 . S
C1425 C1416 1.390 . S
C1425 H1418 0.950 . S
C1425 C1422 1.387 . S
C1426 C1427 1.387 . S
C1426 H1430 0.950 . S
C1426 C1435 1.390 . S
C1427 C1426 1.387 . S
C1427 C1429 1.387 . S
H1428 C1435 0.950 . S
C1429 C1427 1.387 . S
C1429 C1431 1.390 . S
C1429 H1433 0.950 . S
H1430 C1426 0.950 . S
C1431 C1429 1.390 . S
C1431 C1432 1.387 . S
C1431 H1434 0.950 . S
C1432 C1431 1.387 . S
C1432 C1435 1.387 . S
H1433 C1429 0.950 . S
H1434 C1431 0.950 . S
C1435 C1426 1.390 . S
C1435 H1428 0.950 . S
C1435 C1432 1.387 . S
C1436 C1437 1.387 . S
C1436 H1440 0.950 . S
C1436 C1445 1.390 . S
C1437 C1436 1.387 . S
C1437 C1439 1.387 . S
H1438 C1445 0.950 . S
C1439 C1437 1.387 . S
C1439 C1441 1.390 . S
C1439 H1443 0.950 . S
H1440 C1436 0.950 . S
C1441 C1439 1.390 . S
C1441 C1442 1.387 . S
C1441 H1444 0.950 . S
C1442 C1441 1.387 . S
C1442 C1445 1.387 . S
H1443 C1439 0.950 . S
H1444 C1441 0.950 . S
C1445 C1436 1.390 . S
C1445 H1438 0.950 . S
C1445 C1442 1.387 . S
C1446 C1447 1.387 . S
C1446 H1450 0.950 . S
C1446 C1455 1.390 1_455 S
C1447 C1446 1.387 . S
C1447 C1449 1.387 . S
H1448 C1455 0.950 . S
C1449 C1447 1.387 . S
C1449 C1451 1.390 1_456 S
C1449 H1453 0.950 1_556 S
H1450 C1446 0.950 . S
C1451 C1449 1.390 1_654 S
C1451 C1452 1.387 . S
C1451 H1454 0.950 . S
C1452 C1451 1.387 . S
C1452 C1455 1.387 1_554 S
H1453 C1449 0.950 1_554 S
H1454 C1451 0.950 . S
C1455 C1446 1.390 1_655 S
C1455 H1448 0.950 . S
C1455 C1452 1.387 1_556 S
C1456 C1457 1.387 . S
C1456 H1460 0.950 . S
C1456 C1465 1.390 . S
C1457 C1456 1.387 . S
C1457 C1459 1.387 . S
H1458 C1465 0.950 . S
C1459 C1457 1.387 . S
C1459 C1461 1.390 . S
C1459 H1463 0.950 . S
H1460 C1456 0.950 . S
C1461 C1459 1.390 . S
C1461 C1462 1.387 . S
C1461 H1464 0.950 . S
C1462 C1461 1.387 . S
C1462 C1465 1.387 . S
H1463 C1459 0.950 . S
H1464 C1461 0.950 . S
C1465 C1456 1.390 . S
C1465 H1458 0.950 . S
C1465 C1462 1.387 . S
C1466 C1467 1.387 . S
C1466 H1470 0.950 . S
C1466 C1475 1.390 1_455 S
C1467 C1466 1.387 . S
C1467 C1469 1.396 . S
H1468 C1475 0.950 . S
C1469 C1467 1.396 . S
C1469 C1471 1.379 1_455 S
C1469 H1473 0.953 . S
H1470 C1466 0.950 . S
C1471 C1469 1.379 1_655 S
C1471 C1472 1.387 . S
C1471 H1474 0.950 . S
C1472 C1471 1.387 . S
C1472 C1475 1.387 . S
H1473 C1469 0.953 . S
H1474 C1471 0.950 . S
C1475 C1466 1.390 1_655 S
C1475 H1468 0.950 . S
C1475 C1472 1.387 . S
C1476 C1477 1.387 . S
C1476 H1480 0.950 . S
C1476 C1485 1.390 . S
C1477 C1476 1.387 . S
C1477 C1479 1.387 . S
H1478 C1485 0.950 . S
C1479 C1477 1.387 . S
C1479 C1481 1.390 . S
C1479 H1483 0.950 . S
H1480 C1476 0.950 . S
C1481 C1479 1.390 . S
C1481 C1482 1.387 . S
C1481 H1484 0.950 . S
C1482 C1481 1.387 . S
C1482 C1485 1.387 . S
H1483 C1479 0.950 . S
H1484 C1481 0.950 . S
C1485 C1476 1.390 . S
C1485 H1478 0.950 . S
C1485 C1482 1.387 . S
C1486 C1487 1.387 1_556 S
C1486 H1490 0.950 . S
C1486 C1495 1.390 . S
C1487 C1486 1.387 1_554 S
C1487 C1489 1.387 . S
H1488 C1495 0.950 . S
C1489 C1487 1.387 . S
C1489 C1491 1.390 1_554 S
C1489 H1493 0.950 . S
H1490 C1486 0.950 . S
C1491 C1489 1.390 1_556 S
C1491 C1492 1.387 . S
C1491 H1494 0.950 . S
C1492 C1491 1.387 . S
C1492 C1495 1.387 . S
H1493 C1489 0.950 . S
H1494 C1491 0.950 . S
C1495 C1486 1.390 . S
C1495 H1488 0.950 . S
C1495 C1492 1.387 . S
C1496 C1497 1.387 . S
C1496 H1500 0.950 . S
C1496 C1505 1.390 . S
C1497 C1496 1.387 . S
C1497 C1499 1.387 . S
H1498 C1505 0.950 . S
C1499 C1497 1.387 . S
C1499 C1501 1.390 . S
C1499 H1503 0.950 . S
H1500 C1496 0.950 . S
C1501 C1499 1.390 . S
C1501 C1502 1.387 . S
C1501 H1504 0.950 . S
C1502 C1501 1.387 . S
C1502 C1505 1.387 . S
H1503 C1499 0.950 . S
H1504 C1501 0.950 . S
C1505 C1496 1.390 . S
C1505 H1498 0.950 . S
C1505 C1502 1.387 . S
C1506 C1507 1.387 . S
C1506 H1510 0.950 . S
C1506 C1515 1.390 . S
C1507 C1506 1.387 . S
C1507 C1509 1.387 . S
H1508 C1515 0.950 . S
C1509 C1507 1.387 . S
C1509 C1511 1.390 . S
C1509 H1513 0.950 . S
H1510 C1506 0.950 . S
C1511 C1509 1.390 . S
C1511 C1512 1.387 . S
C1511 H1514 0.950 . S
C1512 C1511 1.387 . S
C1512 C1515 1.387 . S
H1513 C1509 0.950 . S
H1514 C1511 0.950 . S
C1515 C1506 1.390 . S
C1515 H1508 0.950 . S
C1515 C1512 1.387 . S
C1516 C1517 1.387 . S
C1516 H1520 0.950 . S
C1516 C1525 1.390 . S
C1517 C1516 1.387 . S
C1517 C1519 1.387 . S
H1518 C1525 0.950 . S
C1519 C1517 1.387 . S
C1519 C1521 1.390 . S
C1519 H1523 0.950 . S
H1520 C1516 0.950 . S
C1521 C1519 1.390 . S
C1521 C1522 1.387 . S
C1521 H1524 0.950 . S
C1522 C1521 1.387 . S
C1522 C1525 1.387 . S
H1523 C1519 0.950 . S
H1524 C1521 0.950 . S
C1525 C1516 1.390 . S
C1525 H1518 0.950 . S
C1525 C1522 1.387 . S
C1526 C1527 1.387 1_654 S
C1526 H1530 0.953 1_554 S
C1526 C1535 1.390 . S
C1527 C1526 1.387 1_456 S
C1527 C1529 1.387 1_556 S
H1528 C1535 0.950 . S
C1529 C1527 1.387 1_554 S
C1529 C1531 1.390 1_455 S
C1529 H1533 0.950 1_554 S
H1530 C1526 0.953 1_556 S
C1531 C1529 1.390 1_655 S
C1531 C1532 1.387 . S
C1531 H1534 0.950 . S
C1532 C1531 1.387 . S
C1532 C1535 1.387 . S
H1533 C1529 0.950 1_556 S
H1534 C1531 0.950 . S
C1535 C1526 1.390 . S
C1535 H1528 0.950 . S
C1535 C1532 1.387 . S
C1536 C1537 1.387 . S
C1536 H1540 0.950 . S
C1536 C1545 1.390 . S
C1537 C1536 1.387 . S
C1537 C1539 1.387 . S
H1538 C1545 0.950 . S
C1539 C1537 1.387 . S
C1539 C1541 1.390 . S
C1539 H1543 0.950 . S
H1540 C1536 0.950 . S
C1541 C1539 1.390 . S
C1541 C1542 1.387 . S
C1541 H1544 0.950 . S
C1542 C1541 1.387 . S
C1542 C1545 1.387 . S
H1543 C1539 0.950 . S
H1544 C1541 0.950 . S
C1545 C1536 1.390 . S
C1545 H1538 0.950 . S
C1545 C1542 1.387 . S
C1546 C1547 1.387 . S
C1546 H1550 0.950 . S
C1546 C1555 1.390 1_554 S
C1547 C1546 1.387 . S
C1547 C1549 1.387 . S
H1548 C1555 0.950 . S
C1549 C1547 1.387 . S
C1549 C1551 1.390 . S
C1549 H1553 0.950 . S
H1550 C1546 0.950 . S
C1551 C1549 1.390 . S
C1551 C1552 1.387 1_554 S
C1551 H1554 0.950 . S
C1552 C1551 1.387 1_556 S
C1552 C1555 1.387 . S
H1553 C1549 0.950 . S
H1554 C1551 0.950 . S
C1555 C1546 1.390 1_556 S
C1555 H1548 0.950 . S
C1555 C1552 1.387 . S
C1556 C1557 1.387 . S
C1556 H1560 0.950 . S
C1556 C1565 1.390 . S
C1557 C1556 1.387 . S
C1557 C1559 1.387 . S
H1558 C1565 0.950 . S
C1559 C1557 1.387 . S
C1559 C1561 1.390 . S
C1559 H1563 0.950 . S
H1560 C1556 0.950 . S
C1561 C1559 1.390 . S
C1561 C1562 1.387 . S
C1561 H1564 0.950 . S
C1562 C1561 1.387 . S
C1562 C1565 1.387 . S
H1563 C1559 0.950 . S
H1564 C1561 0.950 . S
C1565 C1556 1.390 . S
C1565 H1558 0.950 . S
C1565 C1562 1.387 . S
C1566 C1567 1.387 . S
C1566 H1570 0.950 . S
C1566 C1575 1.377 1_655 S
C1567 C1566 1.387 . S
C1567 C1569 1.387 . S
H1568 C1575 0.953 . S
C1569 C1567 1.387 . S
C1569 C1571 1.390 1_655 S
C1569 H1573 0.950 . S
H1570 C1566 0.950 . S
C1571 C1569 1.390 1_455 S
C1571 C1572 1.387 . S
C1571 H1574 0.950 . S
C1572 C1571 1.387 . S
C1572 C1575 1.397 . S
H1573 C1569 0.950 . S
H1574 C1571 0.950 . S
C1575 C1566 1.377 1_455 S
C1575 H1568 0.953 . S
C1575 C1572 1.397 . S
C1576 C1577 1.387 . S
C1576 H1580 0.950 . S
C1576 C1585 1.390 . S
C1577 C1576 1.387 . S
C1577 C1579 1.387 . S
H1578 C1585 0.950 . S
C1579 C1577 1.387 . S
C1579 C1581 1.390 . S
C1579 H1583 0.950 . S
H1580 C1576 0.950 . S
C1581 C1579 1.390 . S
C1581 C1582 1.387 . S
C1581 H1584 0.950 . S
C1582 C1581 1.387 . S
C1582 C1585 1.387 . S
H1583 C1579 0.950 . S
H1584 C1581 0.950 . S
C1585 C1576 1.390 . S
C1585 H1578 0.950 . S
C1585 C1582 1.387 . S
C1586 C1587 1.387 . S
C1586 H1590 0.950 . S
C1586 C1595 1.390 1_655 S
C1587 C1586 1.387 . S
C1587 C1589 1.387 . S
H1588 C1595 0.950 . S
C1589 C1587 1.387 . S
C1589 C1591 1.390 1_556 S
C1589 H1593 0.950 . S
H1590 C1586 0.950 . S
C1591 C1589 1.390 1_554 S
C1591 C1592 1.387 1_655 S
C1591 H1594 0.950 . S
C1592 C1591 1.387 1_455 S
C1592 C1595 1.387 1_554 S
H1593 C1589 0.950 . S
H1594 C1591 0.950 . S
C1595 C1586 1.390 1_455 S
C1595 H1588 0.950 . S
C1595 C1592 1.387 1_556 S
C1596 C1597 1.387 . S
C1596 H1600 0.950 . S
C1596 C1605 1.390 . S
C1597 C1596 1.387 . S
C1597 C1599 1.387 . S
H1598 C1605 0.950 . S
C1599 C1597 1.387 . S
C1599 C1601 1.390 . S
C1599 H1603 0.950 . S
H1600 C1596 0.950 . S
C1601 C1599 1.390 . S
C1601 C1602 1.387 . S
C1601 H1604 0.950 . S
C1602 C1601 1.387 . S
C1602 C1605 1.387 . S
H1603 C1599 0.950 . S
H1604 C1601 0.950 . S
C1605 C1596 1.390 . S
C1605 H1598 0.950 . S
C1605 C1602 1.387 . S
C1606 C1607 1.387 . S
C1606 H1610 0.950 . S
C1606 C1615 1.390 . S
C1607 C1606 1.387 . S
C1607 C1609 1.387 . S
H1608 C1615 0.950 . S
C1609 C1607 1.387 . S
C1609 C1611 1.390 . S
C1609 H1613 0.950 . S
H1610 C1606 0.950 . S
C1611 C1609 1.390 . S
C1611 C1612 1.387 . S
C1611 H1614 0.950 . S
C1612 C1611 1.387 . S
C1612 C1615 1.387 . S
H1613 C1609 0.950 . S
H1614 C1611 0.950 . S
C1615 C1606 1.390 . S
C1615 H1608 0.950 . S
C1615 C1612 1.387 . S
C1616 C1617 1.387 . S
C1616 H1620 0.950 . S
C1616 C1625 1.390 . S
C1617 C1616 1.387 . S
C1617 C1619 1.387 . S
H1618 C1625 0.950 . S
C1619 C1617 1.387 . S
C1619 C1621 1.390 . S
C1619 H1623 0.950 . S
H1620 C1616 0.950 . S
C1621 C1619 1.390 . S
C1621 C1622 1.387 . S
C1621 H1624 0.950 . S
C1622 C1621 1.387 . S
C1622 C1625 1.387 . S
H1623 C1619 0.950 . S
H1624 C1621 0.950 . S
C1625 C1616 1.390 . S
C1625 H1618 0.950 . S
C1625 C1622 1.387 . S
C1626 C1627 1.387 . S
C1626 H1630 0.950 . S
C1626 C1635 1.390 1_556 S
C1627 C1626 1.387 . S
C1627 C1629 1.387 . S
H1628 C1635 0.950 . S
C1629 C1627 1.387 . S
C1629 C1631 1.390 . S
C1629 H1633 0.950 . S
H1630 C1626 0.950 . S
C1631 C1629 1.390 . S
C1631 C1632 1.387 1_556 S
C1631 H1634 0.950 . S
C1632 C1631 1.387 1_554 S
C1632 C1635 1.387 . S
H1633 C1629 0.950 . S
H1634 C1631 0.950 . S
C1635 C1626 1.390 1_554 S
C1635 H1628 0.950 . S
C1635 C1632 1.387 . S
C1636 C1637 1.387 . S
C1636 H1640 0.950 . S
C1636 C1645 1.390 . S
C1637 C1636 1.387 . S
C1637 C1639 1.387 . S
H1638 C1645 0.950 . S
C1639 C1637 1.387 . S
C1639 C1641 1.390 . S
C1639 H1643 0.950 . S
H1640 C1636 0.950 . S
C1641 C1639 1.390 . S
C1641 C1642 1.387 . S
C1641 H1644 0.950 . S
C1642 C1641 1.387 . S
C1642 C1645 1.387 . S
H1643 C1639 0.950 . S
H1644 C1641 0.950 . S
C1645 C1636 1.390 . S
C1645 H1638 0.950 . S
C1645 C1642 1.387 . S
C1646 C1647 1.387 . S
C1646 H1650 0.950 . S
C1646 C1655 1.390 1_655 S
C1647 C1646 1.387 . S
C1647 C1649 1.387 . S
H1648 C1655 0.950 . S
C1649 C1647 1.387 . S
C1649 C1651 1.390 1_655 S
C1649 H1653 0.950 . S
H1650 C1646 0.950 . S
C1651 C1649 1.390 1_455 S
C1651 C1652 1.387 . S
C1651 H1654 0.950 . S
C1652 C1651 1.387 . S
C1652 C1655 1.387 . S
H1653 C1649 0.950 . S
H1654 C1651 0.950 . S
C1655 C1646 1.390 1_455 S
C1655 H1648 0.950 . S
C1655 C1652 1.387 . S
C1656 C1657 1.387 . S
C1656 H1660 0.950 . S
C1656 C1665 1.390 . S
C1657 C1656 1.387 . S
C1657 C1659 1.387 . S
H1658 C1665 0.950 . S
C1659 C1657 1.387 . S
C1659 C1661 1.390 . S
C1659 H1663 0.950 . S
H1660 C1656 0.950 . S
C1661 C1659 1.390 . S
C1661 C1662 1.387 . S
C1661 H1664 0.950 . S
C1662 C1661 1.387 . S
C1662 C1665 1.387 . S
H1663 C1659 0.950 . S
H1664 C1661 0.950 . S
C1665 C1656 1.390 . S
C1665 H1658 0.950 . S
C1665 C1662 1.387 . S
C1666 C1667 1.387 . S
C1666 H1670 0.950 . S
C1666 C1675 1.362 1_455 S
C1667 C1666 1.387 . S
C1667 C1669 1.387 . S
H1668 C1675 0.958 . S
C1669 C1667 1.387 . S
C1669 C1671 1.390 1_454 S
C1669 H1673 0.950 . S
H1670 C1666 0.950 . S
C1671 C1669 1.390 1_656 S
C1671 C1672 1.387 . S
C1671 H1674 0.950 . S
C1672 C1671 1.387 . S
C1672 C1675 1.407 1_556 S
H1673 C1669 0.950 . S
H1674 C1671 0.950 . S
C1675 C1666 1.362 1_655 S
C1675 H1668 0.958 . S
C1675 C1672 1.407 1_554 S
C1676 C1677 1.387 . S
C1676 H1680 0.950 . S
C1676 C1685 1.390 . S
C1677 C1676 1.387 . S
C1677 C1679 1.387 . S
H1678 C1685 0.950 . S
C1679 C1677 1.387 . S
C1679 C1681 1.390 . S
C1679 H1683 0.950 . S
H1680 C1676 0.950 . S
C1681 C1679 1.390 . S
C1681 C1682 1.387 . S
C1681 H1684 0.950 . S
C1682 C1681 1.387 . S
C1682 C1685 1.387 . S
H1683 C1679 0.950 . S
H1684 C1681 0.950 . S
C1685 C1676 1.390 . S
C1685 H1678 0.950 . S
C1685 C1682 1.387 . S
C1686 C1687 1.387 . S
C1686 H1690 0.950 . S
C1686 C1695 1.390 . S
C1687 C1686 1.387 . S
C1687 C1689 1.387 . S
H1688 C1695 0.950 . S
C1689 C1687 1.387 . S
C1689 C1691 1.390 . S
C1689 H1693 0.950 . S
H1690 C1686 0.950 . S
C1691 C1689 1.390 . S
C1691 C1692 1.387 . S
C1691 H1694 0.950 . S
C1692 C1691 1.387 . S
C1692 C1695 1.387 . S
H1693 C1689 0.950 . S
H1694 C1691 0.950 . S
C1695 C1686 1.390 . S
C1695 H1688 0.950 . S
C1695 C1692 1.387 . S
C1696 C1697 1.387 . S
C1696 H1700 0.950 . S
C1696 C1705 1.390 . S
C1697 C1696 1.387 . S
C1697 C1699 1.387 . S
H1698 C1705 0.950 . S
C1699 C1697 1.387 . S
C1699 C1701 1.390 . S
C1699 H1703 0.950 . S
H1700 C1696 0.950 . S
C1701 C1699 1.390 . S
C1701 C1702 1.387 . S
C1701 H1704 0.950 . S
C1702 C1701 1.387 . S
C1702 C1705 1.387 . S
H1703 C1699 0.950 . S
H1704 C1701 0.950 . S
C1705 C1696 1.390 . S
C1705 H1698 0.950 . S
C1705 C1702 1.387 . S
C1706 C1707 1.387 . S
C1706 H1710 0.950 . S
C1706 C1715 1.390 . S
C1707 C1706 1.387 . S
C1707 C1709 1.387 . S
H1708 C1715 0.950 . S
C1709 C1707 1.387 . S
C1709 C1711 1.390 . S
C1709 H1713 0.950 . S
H1710 C1706 0.950 . S
C1711 C1709 1.390 . S
C1711 C1712 1.387 . S
C1711 H1714 0.950 . S
C1712 C1711 1.387 . S
C1712 C1715 1.387 . S
H1713 C1709 0.950 . S
H1714 C1711 0.950 . S
C1715 C1706 1.390 . S
C1715 H1708 0.950 . S
C1715 C1712 1.387 . S
C1716 C1717 1.387 . S
C1716 H1720 0.950 . S
C1716 C1725 1.390 . S
C1717 C1716 1.387 . S
C1717 C1719 1.387 . S
H1718 C1725 0.950 . S
C1719 C1717 1.387 . S
C1719 C1721 1.390 . S
C1719 H1723 0.950 . S
H1720 C1716 0.950 . S
C1721 C1719 1.390 . S
C1721 C1722 1.387 . S
C1721 H1724 0.950 . S
C1722 C1721 1.387 . S
C1722 C1725 1.387 . S
H1723 C1719 0.950 . S
H1724 C1721 0.950 . S
C1725 C1716 1.390 . S
C1725 H1718 0.950 . S
C1725 C1722 1.387 . S
C1726 C1727 1.387 . S
C1726 H1730 0.950 1_556 S
C1726 C1735 1.390 . S
C1727 C1726 1.387 . S
C1727 C1729 1.387 . S
H1728 C1735 0.950 . S
C1729 C1727 1.387 . S
C1729 C1731 1.390 . S
C1729 H1733 0.950 . S
H1730 C1726 0.950 1_554 S
C1731 C1729 1.390 . S
C1731 C1732 1.387 . S
C1731 H1734 0.950 . S
C1732 C1731 1.387 . S
C1732 C1735 1.387 . S
H1733 C1729 0.950 . S
H1734 C1731 0.950 . S
C1735 C1726 1.390 . S
C1735 H1728 0.950 . S
C1735 C1732 1.387 . S
C1736 C1737 1.387 . S
C1736 H1740 0.950 . S
C1736 C1745 1.390 . S
C1737 C1736 1.387 . S
C1737 C1739 1.387 . S
H1738 C1745 0.950 . S
C1739 C1737 1.387 . S
C1739 C1741 1.390 . S
C1739 H1743 0.950 1_556 S
H1740 C1736 0.950 . S
C1741 C1739 1.390 . S
C1741 C1742 1.387 . S
C1741 H1744 0.950 . S
C1742 C1741 1.387 . S
C1742 C1745 1.387 . S
H1743 C1739 0.950 1_554 S
H1744 C1741 0.950 . S
C1745 C1736 1.390 . S
C1745 H1738 0.950 . S
C1745 C1742 1.387 . S
C1746 C1747 1.387 . S
C1746 H1750 0.950 . S
C1746 C1755 1.390 . S
C1747 C1746 1.387 . S
C1747 C1749 1.387 . S
H1748 C1755 0.950 . S
C1749 C1747 1.387 . S
C1749 C1751 1.390 . S
C1749 H1753 0.950 . S
H1750 C1746 0.950 . S
C1751 C1749 1.390 . S
C1751 C1752 1.387 . S
C1751 H1754 0.950 . S
C1752 C1751 1.387 . S
C1752 C1755 1.387 . S
H1753 C1749 0.950 . S
H1754 C1751 0.950 . S
C1755 C1746 1.390 . S
C1755 H1748 0.950 . S
C1755 C1752 1.387 . S
C1756 C1757 1.387 . S
C1756 H1760 0.950 . S
C1756 C1765 1.390 . S
C1757 C1756 1.387 . S
C1757 C1759 1.387 . S
H1758 C1765 0.950 . S
C1759 C1757 1.387 . S
C1759 C1761 1.390 . S
C1759 H1763 0.950 . S
H1760 C1756 0.950 . S
C1761 C1759 1.390 . S
C1761 C1762 1.387 . S
C1761 H1764 0.950 . S
C1762 C1761 1.387 . S
C1762 C1765 1.387 . S
H1763 C1759 0.950 . S
H1764 C1761 0.950 . S
C1765 C1756 1.390 . S
C1765 H1758 0.950 . S
C1765 C1762 1.387 . S
C1766 C1767 1.387 . S
C1766 H1770 0.950 . S
C1766 C1775 1.390 . S
C1767 C1766 1.387 . S
C1767 C1769 1.387 . S
H1768 C1775 0.950 1_556 S
C1769 C1767 1.387 . S
C1769 C1771 1.390 . S
C1769 H1773 0.950 . S
H1770 C1766 0.950 . S
C1771 C1769 1.390 . S
C1771 C1772 1.387 . S
C1771 H1774 0.950 . S
C1772 C1771 1.387 . S
C1772 C1775 1.387 . S
H1773 C1769 0.950 . S
H1774 C1771 0.950 . S
C1775 C1766 1.390 . S
C1775 H1768 0.950 1_554 S
C1775 C1772 1.387 . S
C1776 C1777 1.387 . S
C1776 H1780 0.950 . S
C1776 C1785 1.390 . S
C1777 C1776 1.387 . S
C1777 C1779 1.387 . S
H1778 C1785 0.950 . S
C1779 C1777 1.387 . S
C1779 C1781 1.390 . S
C1779 H1783 0.950 . S
H1780 C1776 0.950 . S
C1781 C1779 1.390 . S
C1781 C1782 1.387 . S
C1781 H1784 0.950 . S
C1782 C1781 1.387 . S
C1782 C1785 1.387 . S
H1783 C1779 0.950 . S
H1784 C1781 0.950 . S
C1785 C1776 1.390 . S
C1785 H1778 0.950 . S
C1785 C1782 1.387 . S
C1786 C1787 1.387 . S
C1786 H1790 0.950 . S
C1786 C1795 1.390 . S
C1787 C1786 1.387 . S
C1787 C1789 1.387 . S
H1788 C1795 0.950 . S
C1789 C1787 1.387 . S
C1789 C1791 1.390 . S
C1789 H1793 0.950 . S
H1790 C1786 0.950 . S
C1791 C1789 1.390 . S
C1791 C1792 1.387 . S
C1791 H1794 0.950 1_556 S
C1792 C1791 1.387 . S
C1792 C1795 1.387 . S
H1793 C1789 0.950 . S
H1794 C1791 0.950 1_554 S
C1795 C1786 1.390 . S
C1795 H1788 0.950 . S
C1795 C1792 1.387 . S
C1796 C1797 1.387 . S
C1796 H1800 0.950 1_554 S
C1796 C1805 1.390 . S
C1797 C1796 1.387 . S
C1797 C1799 1.387 . S
H1798 C1805 0.950 . S
C1799 C1797 1.387 . S
C1799 C1801 1.390 . S
C1799 H1803 0.950 . S
H1800 C1796 0.950 1_556 S
C1801 C1799 1.390 . S
C1801 C1802 1.387 . S
C1801 H1804 0.950 . S
C1802 C1801 1.387 . S
C1802 C1805 1.387 . S
H1803 C1799 0.950 . S
H1804 C1801 0.950 . S
C1805 C1796 1.390 . S
C1805 H1798 0.950 . S
C1805 C1802 1.387 . S
C1806 C1807 1.387 . S
C1806 H1810 0.950 . S
C1806 C1815 1.390 . S
C1807 C1806 1.387 . S
C1807 C1809 1.387 . S
H1808 C1815 0.950 . S
C1809 C1807 1.387 . S
C1809 C1811 1.390 . S
C1809 H1813 0.950 . S
H1810 C1806 0.950 . S
C1811 C1809 1.390 . S
C1811 C1812 1.387 . S
C1811 H1814 0.950 . S
C1812 C1811 1.387 . S
C1812 C1815 1.387 . S
H1813 C1809 0.950 . S
H1814 C1811 0.950 . S
C1815 C1806 1.390 . S
C1815 H1808 0.950 . S
C1815 C1812 1.387 . S
C1816 C1817 1.387 . S
C1816 H1820 0.950 . S
C1816 C1825 1.390 . S
C1817 C1816 1.387 . S
C1817 C1819 1.387 . S
H1818 C1825 0.950 . S
C1819 C1817 1.387 . S
C1819 C1821 1.390 . S
C1819 H1823 0.950 . S
H1820 C1816 0.950 . S
C1821 C1819 1.390 . S
C1821 C1822 1.387 . S
C1821 H1824 0.950 . S
C1822 C1821 1.387 . S
C1822 C1825 1.387 . S
H1823 C1819 0.950 . S
H1824 C1821 0.950 . S
C1825 C1816 1.390 . S
C1825 H1818 0.950 . S
C1825 C1822 1.387 . S
C1826 C1827 1.387 . S
C1826 H1830 0.950 . S
C1826 C1835 1.390 . S
C1827 C1826 1.387 . S
C1827 C1829 1.387 . S
H1828 C1835 0.950 . S
C1829 C1827 1.387 . S
C1829 C1831 1.390 . S
C1829 H1833 0.950 . S
H1830 C1826 0.950 . S
C1831 C1829 1.390 . S
C1831 C1832 1.387 . S
C1831 H1834 0.950 1_554 S
C1832 C1831 1.387 . S
C1832 C1835 1.387 . S
H1833 C1829 0.950 . S
H1834 C1831 0.950 1_556 S
C1835 C1826 1.390 . S
C1835 H1828 0.950 . S
C1835 C1832 1.387 . S
C1836 C1837 1.387 . S
C1836 H1840 0.950 . S
C1836 C1845 1.390 . S
C1837 C1836 1.387 . S
C1837 C1839 1.387 . S
H1838 C1845 0.950 . S
C1839 C1837 1.387 . S
C1839 C1841 1.390 . S
C1839 H1843 0.950 . S
H1840 C1836 0.950 . S
C1841 C1839 1.390 . S
C1841 C1842 1.387 . S
C1841 H1844 0.950 . S
C1842 C1841 1.387 . S
C1842 C1845 1.387 . S
H1843 C1839 0.950 . S
H1844 C1841 0.950 . S
C1845 C1836 1.390 . S
C1845 H1838 0.950 . S
C1845 C1842 1.387 . S
C1846 C1847 1.387 . S
C1846 H1850 0.950 . S
C1846 C1855 1.390 . S
C1847 C1846 1.387 . S
C1847 C1849 1.387 . S
H1848 C1855 0.950 . S
C1849 C1847 1.387 . S
C1849 C1851 1.390 . S
C1849 H1853 0.950 . S
H1850 C1846 0.950 . S
C1851 C1849 1.390 . S
C1851 C1852 1.387 . S
C1851 H1854 0.950 . S
C1852 C1851 1.387 . S
C1852 C1855 1.387 . S
H1853 C1849 0.950 . S
H1854 C1851 0.950 . S
C1855 C1846 1.390 . S
C1855 H1848 0.950 . S
C1855 C1852 1.387 . S
C1057 C239 0.895 . S
C1062 C8 0.894 . S
C1067 C41 0.894 . S
C1072 C140 0.895 . S
C1077 C173 0.895 . S
C1082 C74 0.894 . S
C1087 C107 0.894 . S
C1092 C206 0.895 . S
C1097 C272 0.895 . S
C1102 C503 0.894 . S
C1107 C404 0.894 . S
C1112 C305 0.895 . S
C1117 C437 0.895 . S
C1122 C338 0.894 . S
C1127 C470 0.894 . S
C1132 C371 0.895 . S
C1137 C536 0.895 . S
C1142 C767 0.894 . S
C1147 C569 0.895 . S
C1152 C668 0.894 . S
C1157 C701 0.895 . S
C1162 C602 0.894 . S
C1167 C635 0.895 . S
C1172 C734 0.894 . S
C1177 C1031 0.894 . S
C1182 C800 0.895 . S
C1187 C833 0.895 . S
C1192 C932 0.895 . S
C1197 C965 0.894 . S
C1202 C866 0.895 . S
C1207 C899 0.895 . S
C1212 C998 0.894 . S
C1217 C17 1.365 . S
C1222 C215 1.365 . S
C1227 C50 1.364 . S
C1232 C248 1.364 . S
C1237 C149 1.365 . S
C1242 C83 1.365 . S
C1247 C116 1.364 . S
C1252 C182 1.364 . S
C1257 C479 1.365 . S
C1262 C281 1.365 . S
C1267 C314 1.364 . S
C1272 C512 1.364 . S
C1277 C347 1.365 . S
C1282 C413 1.365 . S
C1287 C446 1.364 . S
C1292 C380 1.364 . S
C1297 C545 1.365 . S
C1302 C743 1.365 . S
C1307 C578 1.364 . S
C1312 C776 1.364 . S
C1317 C677 1.365 . S
C1322 C611 1.365 . S
C1327 C644 1.364 . S
C1332 C710 1.364 . S
C1337 C1007 1.365 . S
C1342 C809 1.365 . S
C1347 C1040 1.364 . S
C1352 C842 1.364 . S
C1357 C941 1.365 . S
C1362 C875 1.365 . S
C1367 C908 1.364 . S
C1372 C974 1.364 . S
C1377 C28 1.603 . S
C1382 N995 1.552 . S
C1387 N500 1.552 . S
C1392 C61 1.603 . S
C1397 C94 1.600 . S
C1402 N929 1.549 . S
C1407 C127 1.602 . S
C1412 N434 1.552 . S
C1417 N863 1.551 . S
C1422 C160 1.602 . S
C1427 C193 1.603 . S
C1432 N368 1.552 . S
C1437 C226 1.603 . S
C1442 N797 1.553 . S
C1447 C259 1.602 . S
C1452 N302 1.552 . S
C1457 N731 1.552 . S
C1462 C292 1.603 . S
C1467 N236 1.550 . S
C1472 C325 1.601 . S
C1477 C358 1.600 . S
C1482 N665 1.549 . S
C1487 N170 1.550 . S
C1492 C391 1.601 . S
C1497 C424 1.603 . S
C1502 N599 1.552 . S
C1507 C457 1.602 . S
C1512 N104 1.552 . S
C1517 N533 1.551 . S
C1522 C490 1.602 . S
C1527 N38 1.551 . S
C1532 C523 1.602 . S
C1537 N467 1.549 . S
C1542 C556 1.600 . S
C1547 C589 1.601 . S
C1552 N1028 1.550 . S
C1557 C622 1.603 . S
C1562 N401 1.553 . S
C1567 C655 1.601 . S
C1572 N962 1.550 . S
C1577 N335 1.550 . S
C1582 C688 1.601 . S
C1587 C721 1.602 . S
C1592 N896 1.551 . S
C1597 C754 1.600 . S
C1602 N269 1.549 . S
C1607 C787 1.602 . S
C1612 N830 1.552 . S
C1617 C820 1.602 . S
C1622 N203 1.551 . S
C1627 C853 1.602 . S
C1632 N764 1.551 . S
C1637 C886 1.601 . S
C1642 N137 1.549 . S
C1647 N698 1.552 . S
C1652 C919 1.603 . S
C1657 N71 1.549 . S
C1662 C952 1.601 . S
C1667 C985 1.601 . S
C1672 N632 1.550 . S
C1677 C1018 1.600 . S
C1682 N5 1.549 . S
C1687 N566 1.553 . S
C1692 C1051 1.603 . S
C1697 N14 1.681 . S
C1702 N245 1.683 1_554 S
C1707 N47 1.682 . S
C1712 N146 1.681 . S
C1717 N80 1.683 . S
C1722 N179 1.682 . S
C1727 N113 1.682 1_556 S
C1732 N212 1.681 . S
C1737 N509 1.682 1_556 S
C1742 N278 1.681 . S
C1747 N410 1.682 . S
C1752 N311 1.683 . S
C1757 N443 1.680 . S
C1762 N344 1.681 . S
C1767 N476 1.682 . S
C1772 N377 1.681 1_554 S
C1777 N773 1.681 . S
C1782 N542 1.682 . S
C1787 N674 1.681 . S
C1792 N575 1.680 1_556 S
C1797 N707 1.682 1_554 S
C1802 N608 1.681 . S
C1807 N641 1.680 . S
C1812 N740 1.682 . S
C1817 N806 1.681 . S
C1822 N1037 1.683 . S
C1827 N938 1.680 . S
C1832 N839 1.682 1_554 S
C1837 N971 1.680 1_556 S
C1842 N872 1.681 . S
C1847 N1004 1.681 . S
C1852 N905 1.680 . S
