# Generated by pormake.
# Topology vby, (6)-cn, num edge types: 1
# Building blocks:
#     Node 0, Type 0, BuildingBlock: KUMJIN_clean_sbu_1, # of connection points: 6
#     Node 1, Type 0, BuildingBlock: KUMJIN_clean_sbu_1, # of connection points: 6
#     Node 2, Type 0, BuildingBlock: KUMJIN_clean_sbu_1, # of connection points: 6
#     Node 3, Type 0, BuildingBlock: KUMJIN_clean_sbu_1, # of connection points: 6
#     Node 4, Type 0, BuildingBlock: KUMJIN_clean_sbu_1, # of connection points: 6
#     Node 5, Type 0, BuildingBlock: KUMJIN_clean_sbu_1, # of connection points: 6
#     Node 6, Type 0, BuildingBlock: KUMJIN_clean_sbu_1, # of connection points: 6
#     Node 7, Type 0, BuildingBlock: KUMJIN_clean_sbu_1, # of connection points: 6
#     Edge 8, Type (0, 0), BuildingBlock: XIVTED_clean_linker_0, # of connection points: 2
#     Edge 9, Type (0, 0), BuildingBlock: XIVTED_clean_linker_0, # of connection points: 2
#     Edge 10, Type (0, 0), BuildingBlock: XIVTED_clean_linker_0, # of connection points: 2
#     Edge 11, Type (0, 0), BuildingBlock: XIVTED_clean_linker_0, # of connection points: 2
#     Edge 12, Type (0, 0), BuildingBlock: XIVTED_clean_linker_0, # of connection points: 2
#     Edge 13, Type (0, 0), BuildingBlock: XIVTED_clean_linker_0, # of connection points: 2
#     Edge 14, Type (0, 0), BuildingBlock: XIVTED_clean_linker_0, # of connection points: 2
#     Edge 15, Type (0, 0), BuildingBlock: XIVTED_clean_linker_0, # of connection points: 2
#     Edge 16, Type (0, 0), BuildingBlock: XIVTED_clean_linker_0, # of connection points: 2
#     Edge 17, Type (0, 0), BuildingBlock: XIVTED_clean_linker_0, # of connection points: 2
#     Edge 18, Type (0, 0), BuildingBlock: XIVTED_clean_linker_0, # of connection points: 2
#     Edge 19, Type (0, 0), BuildingBlock: XIVTED_clean_linker_0, # of connection points: 2
#     Edge 20, Type (0, 0), BuildingBlock: XIVTED_clean_linker_0, # of connection points: 2
#     Edge 21, Type (0, 0), BuildingBlock: XIVTED_clean_linker_0, # of connection points: 2
#     Edge 22, Type (0, 0), BuildingBlock: XIVTED_clean_linker_0, # of connection points: 2
#     Edge 23, Type (0, 0), BuildingBlock: XIVTED_clean_linker_0, # of connection points: 2
#     Edge 24, Type (0, 0), BuildingBlock: XIVTED_clean_linker_0, # of connection points: 2
#     Edge 25, Type (0, 0), BuildingBlock: XIVTED_clean_linker_0, # of connection points: 2
#     Edge 26, Type (0, 0), BuildingBlock: XIVTED_clean_linker_0, # of connection points: 2
#     Edge 27, Type (0, 0), BuildingBlock: XIVTED_clean_linker_0, # of connection points: 2
#     Edge 28, Type (0, 0), BuildingBlock: XIVTED_clean_linker_0, # of connection points: 2
#     Edge 29, Type (0, 0), BuildingBlock: XIVTED_clean_linker_0, # of connection points: 2
#     Edge 30, Type (0, 0), BuildingBlock: XIVTED_clean_linker_0, # of connection points: 2
#     Edge 31, Type (0, 0), BuildingBlock: XIVTED_clean_linker_0, # of connection points: 2
# Relax obj value: 0.190
# Max RMSD: 0.310
# Mean RMSD: 0.217
data_MOF--net-vby--node1-KUMJIN_clean_sbu_1--edge1-XIVTED_clean_linker_0
_symmetry_space_group_name_H-M    P1
_symmetry_Int_Tables_number       1
_symmetry_cell_setting            triclinic
loop_
_symmetry_equiv_pos_as_xyz
'x, y, z'
_cell_length_a     15.222019
_cell_length_b     99.93163
_cell_length_c     29.811805
_cell_angle_alpha  101.91928
_cell_angle_beta   94.641758
_cell_angle_gamma 90.012669
loop_
_atom_site_label
_atom_site_type_symbol
_atom_site_fract_x
_atom_site_fract_y
_atom_site_fract_z
_atom_type_partial_charge
Eu0 Eu 0.06013 0.3575 0.99439 0.0
C1 C 0.28339 0.40891 0.05261 0.0
N2 N 0.21172 0.40533 0.07234 0.0
C3 C 0.28772 0.41168 0.14725 0.0
C4 C 0.36143 0.41375 0.07995 0.0
C5 C 0.21197 0.40682 0.11885 0.0
C6 C 0.36277 0.41515 0.12775 0.0
C7 C 0.35551 0.41001 0.9836 0.0
C8 C 0.28015 0.40704 0.00469 0.0
C9 C 0.43335 0.41476 0.01083 0.0
C10 C 0.43618 0.41669 0.0588 0.0
Eu11 Eu 0.08551 0.39882 0.02206 0.0
N12 N 0.20419 0.40223 0.9788 0.0
C13 C 0.35035 0.40822 0.93566 0.0
C14 C 0.19725 0.40148 0.93243 0.0
C15 C 0.27059 0.40411 0.91006 0.0
H16 H 0.15348 0.40433 0.13393 0.0
H17 H 0.26498 0.40326 0.87315 0.0
H18 H 0.09555 0.34646 0.88278 0.0
H19 H 0.78927 0.34524 0.08919 0.0
H20 H 0.13488 0.39939 0.91253 0.0
H21 H 0.40686 0.41035 0.9182 0.0
H22 H 0.93666 0.35434 0.08002 0.0
H23 H 0.28813 0.41279 0.18416 0.0
H24 H 0.49183 0.41701 0.99509 0.0
H25 H 0.4969 0.42031 0.07924 0.0
H26 H 1.01149 0.33493 0.81076 0.0
H27 H 0.42155 0.41881 0.14986 0.0
H28 H 0.69328 0.33423 0.02045 0.0
N29 N 0.98888 0.34574 0.9241 0.0
C30 C 0.90627 0.34084 0.92626 0.0
C31 C 0.98089 0.33662 0.84294 0.0
C32 C 0.85668 0.33391 0.8862 0.0
C33 C 0.02792 0.3433 0.88365 0.0
C34 C 0.89456 0.33204 0.84412 0.0
N35 N 0.92167 0.34901 0.00703 0.0
C36 C 0.89467 0.34962 0.04997 0.0
C37 C 0.78819 0.33691 0.97251 0.0
C38 C 0.87232 0.34229 0.96893 0.0
C39 C 0.75767 0.33821 0.01628 0.0
C40 C 0.81159 0.34444 0.05519 0.0
H41 H 0.85851 0.32679 0.81255 0.0
H42 H 0.73252 0.32358 0.85902 0.0
H43 H 0.67259 0.32622 0.93452 0.0
O44 O 0.14298 0.34729 0.04033 0.0
O45 O 0.93039 0.36879 0.99983 0.0
O46 O 0.94007 0.39266 0.01455 0.0
O47 O 0.08754 0.33577 0.97473 0.0
O48 O 0.07982 0.36871 0.06943 0.0
O49 O 1.0244 0.39072 0.07798 0.0
O50 O 0.06616 0.41788 0.99735 0.0
O51 O 0.19398 0.38418 0.03964 0.0
O52 O 0.18609 0.36662 0.97752 0.0
O53 O 0.05498 0.41774 0.06901 0.0
O54 O 0.02601 0.38864 0.95055 0.0
O55 O 0.10064 0.36847 0.93997 0.0
C56 C 0.89492 0.38099 0.00615 0.0
C57 C 0.21832 0.32749 0.0052 0.0
C58 C 0.28924 0.30524 0.9988 0.0
C59 C 0.36433 0.31096 0.9846 0.0
C60 C 0.29363 0.33296 0.99116 0.0
C61 C 0.36656 0.32472 0.98127 0.0
C62 C 0.21689 0.31378 0.00967 0.0
C63 C 0.04052 0.37937 0.09287 0.0
C64 C 0.1376 0.33544 0.01186 0.0
C65 C 0.7718 0.32885 0.88949 0.0
C66 C 0.73769 0.33034 0.93251 0.0
C67 C 0.23358 0.3754 0.00884 0.0
C68 C 0.98131 0.43531 0.03916 0.0
C69 C 0.94105 0.45908 0.03926 0.0
C70 C 0.85497 0.45587 0.04852 0.0
C71 C 0.8951 0.43234 0.04774 0.0
C72 C 1.00353 0.44855 0.0342 0.0
C73 C 0.83226 0.4426 0.05225 0.0
C74 C 0.04991 0.37729 0.92378 0.0
C75 C 0.05082 0.42505 0.0375 0.0
H76 H 0.42084 0.30478 0.97497 0.0
H77 H 0.29543 0.34348 0.98717 0.0
H78 H 0.42446 0.32894 0.97006 0.0
H79 H 0.15851 0.30981 0.02129 0.0
H80 H 0.80516 0.46364 0.0538 0.0
H81 H 0.87684 0.42218 0.05154 0.0
H82 H 0.07001 0.45056 0.02652 0.0
H83 H 0.76592 0.44032 0.05939 0.0
Eu84 Eu 0.97947 0.65417 0.03339 0.0
C85 C 0.74994 0.60214 0.99485 0.0
N86 N 0.80905 0.60873 0.02907 0.0
C87 C 0.70575 0.60788 0.085 0.0
C88 C 0.66492 0.59855 0.00456 0.0
C89 C 0.78924 0.61125 0.0738 0.0
C90 C 0.64313 0.60159 0.05024 0.0
C91 C 0.71187 0.59324 0.91331 0.0
C92 C 0.77323 0.59949 0.94958 0.0
C93 C 0.62739 0.58961 0.92303 0.0
C94 C 0.60402 0.59225 0.96848 0.0
Eu95 Eu 0.949 0.61323 0.00595 0.0
N96 N 0.8548 0.60339 0.94088 0.0
C97 C 0.73702 0.5909 0.86823 0.0
C98 C 0.88033 0.6009 0.89715 0.0
C99 C 0.82167 0.59471 0.86016 0.0
H100 H 0.83767 0.61568 0.10103 0.0
H101 H 0.842 0.59279 0.82548 0.0
H102 H 1.01973 0.65862 0.92683 0.0
H103 H 0.17817 0.67218 0.19535 0.0
H104 H 0.94648 0.60341 0.89073 0.0
H105 H 0.69173 0.58612 0.83946 0.0
H106 H 0.04473 0.66307 0.14551 0.0
H107 H 0.68996 0.61006 0.1205 0.0
H108 H 0.57941 0.58481 0.89558 0.0
H109 H 0.53834 0.58948 0.97532 0.0
H110 H 0.14647 0.66315 0.88569 0.0
H111 H 0.57837 0.59906 0.05905 0.0
H112 H 0.31208 0.67769 0.16038 0.0
N113 N 0.0951 0.65954 0.99071 0.0
C114 C 0.17155 0.66434 0.01581 0.0
C115 C 0.15521 0.66318 0.92211 0.0
C116 C 0.2451 0.66778 0.99421 0.0
C117 C 0.08398 0.66011 0.94525 0.0
C118 C 0.23687 0.6667 0.94652 0.0
N119 N 0.10326 0.66314 0.08346 0.0
C120 C 0.1031 0.66532 0.13013 0.0
C121 C 0.25279 0.67171 0.09052 0.0
C122 C 0.17521 0.66646 0.06349 0.0
C123 C 0.25371 0.6737 0.13845 0.0
C124 C 0.17835 0.67056 0.15833 0.0
H125 H 0.29174 0.66924 0.92863 0.0
H126 H 0.3806 0.67519 0.00484 0.0
H127 H 0.38753 0.67853 0.08912 0.0
O128 O 0.95272 0.67447 0.07332 0.0
O129 O 0.09558 0.64135 0.05331 0.0
O130 O 0.0886 0.62092 1.00048 0.0
O131 O 0.91871 0.66986 1.00016 0.0
O132 O 0.93191 0.64592 0.0928 0.0
O133 O 0.98634 0.62385 0.08011 0.0
O134 O 0.9894 0.59261 0.974 0.0
O135 O 0.83272 0.62649 0.98927 0.0
O136 O 0.84471 0.64616 0.04493 0.0
O137 O 0.97638 0.59787 0.04722 0.0
O138 O 1.01422 0.6219 0.95302 0.0
O139 O 0.94074 0.64229 0.95998 0.0
C140 C 0.13426 0.6312 0.02714 0.0
C141 C 0.83409 0.68648 0.04499 0.0
C142 C 0.74869 0.70689 0.03931 0.0
C143 C 0.67863 0.70133 0.05804 0.0
C144 C 0.76335 0.6811 0.06337 0.0
C145 C 0.68601 0.68852 0.06982 0.0
C146 C 0.82641 0.69932 0.03284 0.0
C147 C 0.95917 0.63492 0.10748 0.0
C148 C 0.91648 0.67891 0.03829 0.0
C149 C 0.32326 0.67265 0.02093 0.0
C150 C 0.32704 0.67463 0.06895 0.0
C151 C 0.79637 0.63662 0.0167 0.0
C152 C 0.06647 0.57913 0.02092 0.0
C153 C 0.11027 0.55624 0.03072 0.0
C154 C 0.19645 0.56145 0.04495 0.0
C155 C 0.15252 0.58406 0.03488 0.0
C156 C 0.04608 0.56526 0.0181 0.0
C157 C 0.21731 0.57519 0.04653 0.0
C158 C 0.98314 0.63215 0.93566 0.0
C159 C 0.99469 0.58834 0.0125 0.0
H160 H 0.61755 0.7068 0.06291 0.0
H161 H 0.76806 0.67121 0.07282 0.0
H162 H 0.63148 0.68431 0.08392 0.0
H163 H 0.88152 0.70347 0.01893 0.0
H164 H 0.24767 0.55504 0.05591 0.0
H165 H 0.16904 0.59476 0.03744 0.0
H166 H 0.97945 0.56162 0.00638 0.0
H167 H 0.28366 0.57904 0.05775 0.0
Eu168 Eu 0.08229 0.65259 0.54995 0.0
C169 C 0.29474 0.60175 0.48122 0.0
N170 N 0.21797 0.60511 0.4599 0.0
C171 C 0.27779 0.59961 0.38668 0.0
C172 C 0.36742 0.59746 0.45563 0.0
C173 C 0.20768 0.6039 0.4134 0.0
C174 C 0.35805 0.59641 0.40787 0.0
C175 C 0.38234 0.60017 0.55173 0.0
C176 C 0.30183 0.60312 0.52901 0.0
C177 C 0.455 0.59608 0.5263 0.0
C178 C 0.44746 0.59467 0.47844 0.0
Eu179 Eu 0.10192 0.61084 0.50688 0.0
N180 N 0.23056 0.60723 0.55314 0.0
C181 C 0.3873 0.60123 0.59937 0.0
C182 C 0.23343 0.60709 0.59895 0.0
C183 C 0.31216 0.6045 0.62293 0.0
H184 H 0.14524 0.60622 0.39709 0.0
H185 H 0.31423 0.60468 0.65943 0.0
H186 H 0.15243 0.6597 0.66196 0.0
H187 H 0.77749 0.66767 0.46557 0.0
H188 H 0.17497 0.60839 0.61718 0.0
H189 H 0.44797 0.5991 0.61804 0.0
H190 H 0.93028 0.65914 0.47019 0.0
H191 H 0.26987 0.59875 0.34978 0.0
H192 H 0.51733 0.59388 0.54334 0.0
H193 H 0.50422 0.5915 0.4594 0.0
H194 H 0.09057 0.66757 0.73706 0.0
H195 H 0.41245 0.59318 0.38709 0.0
H196 H 0.70038 0.67457 0.53655 0.0
N197 N 0.03087 0.66107 0.62304 0.0
C198 C 0.94586 0.66519 0.62365 0.0
C199 C 0.04901 0.66689 0.70542 0.0
C200 C 0.90821 0.67001 0.66553 0.0
C201 C 0.08367 0.66236 0.66295 0.0
C202 C 0.96055 0.67056 0.70674 0.0
N203 N 0.93718 0.66084 0.54258 0.0
C204 C 0.89662 0.66215 0.50117 0.0
C205 C 0.81123 0.67023 0.58131 0.0
C206 C 0.89782 0.66527 0.5822 0.0
C207 C 0.76712 0.67085 0.53871 0.0
C208 C 0.81043 0.66696 0.49853 0.0
H209 H 0.934 0.67414 0.73967 0.0
H210 H 0.79024 0.67808 0.69672 0.0
H211 H 0.70539 0.67829 0.62295 0.0
O212 O 0.12404 0.66739 0.51022 0.0
O213 O 0.95202 0.64062 0.53793 0.0
O214 O 0.95806 0.61682 0.51424 0.0
O215 O 0.1458 0.67202 0.58402 0.0
O216 O 0.08026 0.64421 0.47248 0.0
O217 O 0.0335 0.62124 0.45373 0.0
O218 O 0.09844 0.59037 0.52174 0.0
O219 O 0.20268 0.62626 0.4923 0.0
O220 O 0.21485 0.64258 0.55823 0.0
O221 O 0.04695 0.59341 0.45506 0.0
O222 O 0.05611 0.61865 0.57766 0.0
O223 O 0.13694 0.63846 0.59499 0.0
C224 C 0.9149 0.62834 0.52591 0.0
C225 C 0.11221 0.69058 0.54858 0.0
C226 C 0.12497 0.71405 0.53694 0.0
C227 C 0.04319 0.71692 0.55541 0.0
C228 C 0.0316 0.69389 0.56747 0.0
C229 C 0.99705 0.7069 0.57049 0.0
C230 C 0.15921 0.70075 0.53349 0.0
C231 C 0.04428 0.63335 0.44357 0.0
C232 C 0.14821 0.67673 0.54661 0.0
C233 C 0.82057 0.67444 0.66489 0.0
C234 C 0.77226 0.67458 0.62288 0.0
C235 C 0.25175 0.63472 0.52426 0.0
C236 C 0.98938 0.57467 0.48227 0.0
C237 C 0.94806 0.5515 0.48845 0.0
C238 C 0.85879 0.55515 0.48527 0.0
C239 C 0.90018 0.57815 0.47951 0.0
C240 C 1.01289 0.56139 0.48672 0.0
C241 C 0.83527 0.56838 0.48085 0.0
C242 C 0.08411 0.62973 0.60708 0.0
C243 C 0.05986 0.5847 0.48187 0.0
H244 H 1.01578 0.72706 0.55943 0.0
H245 H 0.99599 0.68651 0.58085 0.0
H246 H 0.93489 0.70929 0.58532 0.0
H247 H 0.22202 0.69832 0.51931 0.0
H248 H 0.80715 0.54786 0.487 0.0
H249 H 0.88085 0.58839 0.47651 0.0
H250 H 0.082 0.55876 0.48853 0.0
H251 H 0.76644 0.5711 0.4788 0.0
Eu252 Eu 0.93685 0.39859 0.52561 0.0
C253 C 0.11903 0.34557 0.42773 0.0
N254 N 0.03646 0.34986 0.41735 0.0
C255 C 0.05756 0.34419 0.33691 0.0
C256 C 0.17506 0.34069 0.39274 0.0
C257 C 1.00428 0.3489 0.37276 0.0
C258 C 0.14353 0.34015 0.34694 0.0
C259 C 0.23298 0.34179 0.48544 0.0
C260 C 0.14754 0.3461 0.47365 0.0
C261 C 0.28932 0.33708 0.45069 0.0
C262 C 0.26044 0.33652 0.40449 0.0
Eu263 Eu 0.95183 0.35789 0.48001 0.0
N264 N 0.09227 0.35105 0.50674 0.0
C265 C 0.25925 0.34232 0.53185 0.0
C266 C 0.11587 0.35083 0.55169 0.0
C267 C 0.20003 0.3467 0.56503 0.0
H268 H 0.93703 0.35162 0.36479 0.0
H269 H 0.21879 0.34675 0.60086 0.0
H270 H 0.94308 0.40404 0.64058 0.0
H271 H 0.66805 0.40552 0.3988 0.0
H272 H 0.0697 0.35349 0.57738 0.0
H273 H 0.32439 0.33912 0.54232 0.0
H274 H 0.81787 0.39979 0.42456 0.0
H275 H 0.03212 0.3436 0.30157 0.0
H276 H 0.35532 0.3338 0.45917 0.0
H277 H 0.30458 0.33281 0.37809 0.0
H278 H 0.84422 0.41243 0.70179 0.0
H279 H 0.18462 0.33649 0.31907 0.0
H280 H 0.56112 0.41396 0.45585 0.0
N281 N 0.84789 0.4061 0.5864 0.0
C282 C 0.76589 0.41029 0.57429 0.0
C283 C 0.8213 0.41181 0.66608 0.0
C284 C 0.70754 0.41521 0.60813 0.0
C285 C 0.87677 0.40694 0.63139 0.0
C286 C 0.7363 0.41595 0.65443 0.0
N287 N 0.79496 0.40368 0.49548 0.0
C288 C 0.77143 0.40284 0.44984 0.0
C289 C 0.65255 0.41276 0.51436 0.0
C290 C 0.73865 0.40903 0.52769 0.0
C291 C 0.62675 0.41124 0.46744 0.0
C292 C 0.68671 0.40638 0.43511 0.0
H293 H 0.69336 0.41967 0.68142 0.0
H294 H 0.57633 0.42277 0.62031 0.0
H295 H 0.52828 0.42063 0.53839 0.0
O296 O 0.95724 0.41664 0.4969 0.0
O297 O 0.82482 0.38457 0.53668 0.0
O298 O 0.8168 0.36732 0.47271 0.0
O299 O 0.98973 0.41767 0.5695 0.0
O300 O 0.96536 0.39078 0.45117 0.0
O301 O 0.8887 0.37028 0.43078 0.0
O302 O 0.9131 0.34052 0.5093 0.0
O303 O 0.07078 0.37112 0.47257 0.0
O304 O 0.07623 0.39031 0.53129 0.0
O305 O 0.89039 0.33948 0.43639 0.0
O306 O 0.93651 0.36612 0.55663 0.0
O307 O 1.0084 0.38725 0.57519 0.0
C308 C 0.77857 0.37551 0.50545 0.0
C309 C 0.06072 0.43364 0.5347 0.0
C310 C 0.10861 0.45628 0.52615 0.0
C311 C 0.19677 0.45217 0.53068 0.0
C312 C 0.14877 0.42967 0.53879 0.0
C313 C 0.21647 0.43895 0.5369 0.0
C314 C 0.04106 0.44689 0.52842 0.0
C315 C 0.92991 0.38056 0.41988 0.0
C316 C 0.98729 0.42424 0.536 0.0
C317 C 0.62209 0.41899 0.59478 0.0
C318 C 0.59469 0.41776 0.54809 0.0
C319 C 0.11516 0.38086 0.50221 0.0
C320 C 0.92358 0.31871 0.46004 0.0
C321 C 0.91799 0.2949 0.46913 0.0
C322 C 0.98859 0.29199 0.44116 0.0
C323 C 0.99303 0.3154 0.43167 0.0
C324 C 0.88589 0.30838 0.47859 0.0
C325 C 1.02563 0.30218 0.42265 0.0
C326 C 0.97856 0.37615 0.58652 0.0
C327 C 0.88897 0.33278 0.46939 0.0
H328 H 0.25045 0.45908 0.52869 0.0
H329 H 0.16496 0.41945 0.54332 0.0
H330 H 0.28449 0.43587 0.54001 0.0
H331 H 0.9727 0.44989 0.52574 0.0
H332 H 1.01389 0.28173 0.43255 0.0
H333 H 1.02143 0.32292 0.41575 0.0
H334 H 0.8319 0.31085 0.50028 0.0
H335 H 0.0791 0.29977 0.40064 0.0
Eu336 Eu 0.59469 0.85691 0.00399 0.0
C337 C 0.79629 0.90795 0.05892 0.0
N338 N 0.71883 0.90416 0.0733 0.0
C339 C 0.78113 0.90947 0.15166 0.0
C340 C 0.87045 0.91196 0.09052 0.0
C341 C 0.70908 0.90577 0.11927 0.0
C342 C 0.86258 0.91234 0.13717 0.0
C343 C 0.87989 0.91242 0.99707 0.0
C344 C 0.80137 0.90819 0.01254 0.0
C345 C 0.95404 0.91609 0.0284 0.0
C346 C 0.94945 0.9158 0.07491 0.0
Eu347 Eu 0.60312 0.89807 0.01396 0.0
N348 N 0.73028 0.90392 0.98226 0.0
C349 C 0.88187 0.91266 0.95032 0.0
C350 C 0.73078 0.90443 0.9369 0.0
C351 C 0.80682 0.90873 0.92018 0.0
H352 H 0.64562 0.90473 0.13176 0.0
H353 H 0.80763 0.90897 0.88409 0.0
H354 H 0.46968 0.84815 0.90427 0.0
H355 H 0.56232 0.84223 0.16856 0.0
H356 H 0.6725 0.9014 0.91375 0.0
H357 H 0.94098 0.91585 0.93716 0.0
H358 H 0.63793 0.8518 0.11154 0.0
H359 H 0.77323 0.91042 0.18793 0.0
H360 H 1.01527 0.91919 0.01703 0.0
H361 H 1.00707 0.9188 0.09872 0.0
H362 H 0.32848 0.83596 0.87489 0.0
H363 H 0.91801 0.91535 0.16246 0.0
H364 H 0.41479 0.83129 0.14715 0.0
N365 N 0.4607 0.84561 0.97279 0.0
C366 C 0.41637 0.83974 0.00176 0.0
C367 C 0.35214 0.83705 0.91071 0.0
C368 C 0.33561 0.83274 0.98656 0.0
C369 C 0.43178 0.84397 0.92739 0.0
C370 C 0.30335 0.83153 0.94051 0.0
N371 N 0.53125 0.8473 0.05998 0.0
C372 C 0.57234 0.84743 0.10247 0.0
C373 C 0.40746 0.83489 0.07774 0.0
C374 C 0.45198 0.84082 0.0468 0.0
C375 C 0.44701 0.83568 0.12231 0.0
C376 C 0.53025 0.84186 0.13456 0.0
H377 H 0.24156 0.82621 0.9275 0.0
H378 H 0.22766 0.82173 0.00662 0.0
H379 H 0.29048 0.82362 0.08641 0.0
O380 O 0.64796 0.83726 0.01376 0.0
O381 O 0.45904 0.86649 0.99926 0.0
O382 O 0.46235 0.89047 0.01508 0.0
O383 O 0.67374 0.84476 0.95306 0.0
O384 O 0.63353 0.87162 0.07133 0.0
O385 O 0.54978 0.89067 0.07376 0.0
O386 O 0.55338 0.91336 0.97579 0.0
O387 O 0.71147 0.88348 0.98557 0.0
O388 O 0.71816 0.86901 0.03481 0.0
O389 O 0.58569 0.91928 0.04905 0.0
O390 O 0.54102 0.88627 0.9458 0.0
O391 O 0.60231 0.86457 0.93709 0.0
C392 C 0.42048 0.87849 0.00653 0.0
C393 C 0.65411 0.82072 0.94496 0.0
C394 C 0.65361 0.79575 0.93484 0.0
C395 C 0.60788 0.79475 0.89132 0.0
C396 C 0.60809 0.8194 0.9014 0.0
C397 C 0.58521 0.80649 0.87489 0.0
C398 C 0.67626 0.80884 0.96162 0.0
C399 C 0.57723 0.8803 0.09167 0.0
C400 C 0.67842 0.83437 0.97343 0.0
C401 C 0.29012 0.82708 0.01757 0.0
C402 C 0.32587 0.82817 0.06305 0.0
C403 C 0.75832 0.87601 0.0098 0.0
C404 C 0.48604 0.93322 0.01518 0.0
C405 C 0.4407 0.9568 0.01768 0.0
C406 C 0.35302 0.95273 0.02021 0.0
C407 C 0.39856 0.92932 0.01792 0.0
C408 C 0.50677 0.94689 0.01515 0.0
C409 C 0.33234 0.93909 0.02043 0.0
C410 C 0.56377 0.87458 0.92044 0.0
C411 C 0.55747 0.9233 0.01175 0.0
H412 H 0.58842 0.78486 0.87018 0.0
H413 H 0.58958 0.82833 0.88776 0.0
H414 H 0.54954 0.80558 0.84145 0.0
H415 H 0.71195 0.80978 0.99513 0.0
H416 H 0.3006 0.96011 0.02258 0.0
H417 H 0.38165 0.9188 0.01799 0.0
H418 H 0.57453 0.94975 0.01233 0.0
H419 H 0.26474 0.93608 0.02256 0.0
Eu420 Eu 0.49627 0.15399 0.03689 0.0
C421 C 0.27261 0.10425 0.02377 0.0
N422 N 0.34616 0.10942 0.05122 0.0
C423 C 0.27291 0.10806 0.11842 0.0
C424 C 0.1951 0.10132 0.04318 0.0
C425 C 0.34851 0.11066 0.09774 0.0
C426 C 0.19559 0.10353 0.0911 0.0
C427 C 0.19807 0.09698 0.94702 0.0
C428 C 0.27384 0.10208 0.97593 0.0
C429 C 0.12127 0.09404 0.9665 0.0
C430 C 0.11968 0.09625 0.01436 0.0
Eu431 Eu 0.46922 0.11263 0.01075 0.0
N432 N 0.34748 0.10564 0.95774 0.0
C433 C 0.20102 0.09535 0.89934 0.0
C434 C 0.35138 0.10393 0.91139 0.0
C435 C 0.27798 0.09882 0.88148 0.0
H436 H 0.40898 0.11311 0.11909 0.0
H437 H 0.28087 0.09752 0.84468 0.0
H438 H 0.62453 0.15598 0.95233 0.0
H439 H 0.54003 0.17749 0.21989 0.0
H440 H 0.41136 0.1064 0.89757 0.0
H441 H 0.1441 0.09148 0.87604 0.0
H442 H 0.45842 0.16544 0.14785 0.0
H443 H 0.27488 0.10928 0.15542 0.0
H444 H 0.06229 0.0902 0.94482 0.0
H445 H 0.0596 0.09402 0.02878 0.0
H446 H 0.77278 0.16486 0.9436 0.0
H447 H 0.13729 0.10145 0.10728 0.0
H448 H 0.69276 0.18582 0.21872 0.0
N449 N 0.63644 0.1621 0.02515 0.0
C450 C 0.68435 0.1692 0.06309 0.0
C451 C 0.74896 0.16605 0.97741 0.0
C452 C 0.76887 0.17449 0.05979 0.0
C453 C 0.66543 0.16098 0.98238 0.0
C454 C 0.80134 0.17269 0.01633 0.0
N455 N 0.56605 0.16612 0.10712 0.0
C456 C 0.52595 0.16869 0.14726 0.0
C457 C 0.69698 0.17826 0.14542 0.0
C458 C 0.6487 0.17105 0.10535 0.0
C459 C 0.65776 0.18036 0.18715 0.0
C460 C 0.57159 0.17565 0.18798 0.0
H461 H 0.86609 0.17658 0.01237 0.0
H462 H 0.88321 0.18549 0.098 0.0
H463 H 0.82032 0.18879 0.17293 0.0
O464 O 0.45479 0.17521 0.05753 0.0
O465 O 0.62595 0.14267 0.03549 0.0
O466 O 0.61463 0.11881 0.01756 0.0
O467 O 0.4343 0.16471 0.98627 0.0
O468 O 0.45138 0.1433 0.0912 0.0
O469 O 0.52545 0.1231 0.08251 0.0
O470 O 0.50423 0.09337 0.96673 0.0
O471 O 0.36034 0.12699 0.99151 0.0
O472 O 0.36768 0.14517 0.05185 0.0
O473 O 0.48491 0.09403 0.03812 0.0
O474 O 0.53337 0.12048 0.95528 0.0
O475 O 0.47393 0.1421 0.96266 0.0
C476 C 0.66055 0.13042 0.02799 0.0
C477 C 0.34079 0.18323 0.01143 0.0
C478 C 0.26715 0.20466 0.00523 0.0
C479 C 0.18606 0.19738 0.99605 0.0
C480 C 0.25943 0.17624 0.00275 0.0
C481 C 0.1824 0.18334 0.99528 0.0
C482 C 0.34418 0.19739 0.01345 0.0
C483 C 0.50058 0.13452 0.1085 0.0
C484 C 0.42393 0.17599 0.0162 0.0
C485 C 0.81788 0.18143 0.09977 0.0
C486 C 0.78207 0.18329 0.14247 0.0
C487 C 0.32069 0.13612 0.02121 0.0
C488 C 0.57523 0.07659 0.0019 0.0
C489 C 0.61724 0.05327 0.0067 0.0
C490 C 0.70634 0.05718 0.00749 0.0
C491 C 0.66421 0.0803 0.00282 0.0
C492 C 0.55213 0.06314 0.00396 0.0
C493 C 0.72942 0.0706 0.00557 0.0
C494 C 0.51744 0.13178 0.94013 0.0
C495 C 0.50474 0.08649 0.99936 0.0
H496 H 0.12535 0.20241 0.98853 0.0
H497 H 0.25568 0.16533 0.00116 0.0
H498 H 0.11968 0.17789 0.98812 0.0
H499 H 0.40749 0.20265 0.0213 0.0
H500 H 0.75822 0.04983 0.00903 0.0
H501 H 0.68306 0.09066 0.00144 0.0
H502 H 0.48315 0.06045 0.00409 0.0
H503 H 0.79813 0.07347 0.00612 0.0
Eu504 Eu 0.59938 0.15228 0.55218 0.0
C505 C 0.78145 0.09985 0.45516 0.0
N506 N 0.69964 0.1042 0.44348 0.0
C507 C 0.72539 0.09872 0.36366 0.0
C508 C 0.83926 0.09496 0.42103 0.0
C509 C 0.67043 0.10355 0.39863 0.0
C510 C 0.81019 0.09442 0.37488 0.0
C511 C 0.89497 0.09702 0.51454 0.0
C512 C 0.80908 0.10094 0.50165 0.0
C513 C 0.95224 0.09202 0.48051 0.0
C514 C 0.92449 0.09099 0.43395 0.0
Eu515 Eu 0.61145 0.11159 0.5047 0.0
N516 N 0.75334 0.10628 0.53417 0.0
C517 C 0.92118 0.09835 0.56134 0.0
C518 C 0.77724 0.10693 0.57968 0.0
C519 C 0.86179 0.1032 0.59398 0.0
H520 H 0.60422 0.10656 0.38975 0.0
H521 H 0.88074 0.10391 0.63019 0.0
H522 H 0.61527 0.15823 0.66734 0.0
H523 H 0.33238 0.16415 0.43264 0.0
H524 H 0.73118 0.10996 0.60517 0.0
H525 H 0.98667 0.09548 0.5726 0.0
H526 H 0.48118 0.15714 0.45542 0.0
H527 H 0.70221 0.09825 0.32807 0.0
H528 H 1.01849 0.08902 0.48988 0.0
H529 H 0.96982 0.08723 0.40819 0.0
H530 H 0.52097 0.16617 0.73098 0.0
H531 H 0.85272 0.09073 0.34769 0.0
H532 H 0.22755 0.17172 0.49161 0.0
N533 N 0.51556 0.16023 0.61521 0.0
C534 C 0.43318 0.16465 0.60521 0.0
C535 C 0.49527 0.1657 0.69575 0.0
C536 C 0.3776 0.16949 0.64045 0.0
C537 C 0.54809 0.16104 0.65967 0.0
C538 C 0.40942 0.16986 0.68611 0.0
N539 N 0.45919 0.15938 0.52608 0.0
C540 C 0.43534 0.15977 0.48129 0.0
C541 C 0.31911 0.16875 0.54804 0.0
C542 C 0.40438 0.1643 0.55943 0.0
C543 C 0.29256 0.1684 0.50178 0.0
C544 C 0.35134 0.16405 0.46835 0.0
H545 H 0.36868 0.17348 0.71415 0.0
H546 H 0.24856 0.17747 0.65569 0.0
H547 H 0.19734 0.1768 0.57486 0.0
O548 O 0.63869 0.16977 0.52369 0.0
O549 O 0.47998 0.13913 0.55937 0.0
O550 O 0.47247 0.12008 0.50001 0.0
O551 O 0.66225 0.17047 0.59638 0.0
O552 O 0.61381 0.14431 0.4754 0.0
O553 O 0.54068 0.12327 0.45571 0.0
O554 O 0.59122 0.09337 0.53246 0.0
O555 O 0.72396 0.12556 0.49386 0.0
O556 O 0.73394 0.14262 0.55841 0.0
O557 O 0.55741 0.09268 0.46017 0.0
O558 O 0.58389 0.11918 0.57947 0.0
O559 O 0.66199 0.13954 0.60044 0.0
C560 C 0.43464 0.12953 0.5296 0.0
C561 C 0.62971 0.19144 0.57395 0.0
C562 C 0.63567 0.21532 0.56561 0.0
C563 C 0.56591 0.21822 0.59414 0.0
C564 C 0.56114 0.19475 0.60291 0.0
C565 C 0.52912 0.208 0.61258 0.0
C566 C 0.66716 0.20181 0.5555 0.0
C567 C 0.57138 0.13442 0.44504 0.0
C568 C 0.66359 0.17734 0.56381 0.0
C569 C 0.29237 0.17379 0.62909 0.0
C570 C 0.26321 0.17342 0.58304 0.0
C571 C 0.7711 0.13449 0.52511 0.0
C572 C 0.48892 0.07622 0.49403 0.0
C573 C 0.44396 0.05317 0.49985 0.0
C574 C 0.35545 0.05725 0.49784 0.0
C575 C 0.40055 0.08012 0.49216 0.0
C576 C 0.51025 0.06281 0.4979 0.0
C577 C 0.33413 0.07062 0.49399 0.0
C578 C 0.61995 0.12929 0.61104 0.0
C579 C 0.56107 0.08589 0.49314 0.0
H580 H 0.5411 0.2285 0.60323 0.0
H581 H 0.53296 0.18719 0.61876 0.0
H582 H 0.47632 0.2104 0.63502 0.0
H583 H 0.72049 0.19935 0.53335 0.0
H584 H 0.30258 0.05008 0.49874 0.0
H585 H 0.38313 0.09045 0.48947 0.0
H586 H 0.57899 0.05999 0.50026 0.0
H587 H 0.26583 0.07363 0.49243 0.0
Eu588 Eu 0.45922 0.89912 0.52478 0.0
C589 C 0.63845 0.84655 0.4195 0.0
N590 N 0.55413 0.8505 0.41141 0.0
C591 C 0.56701 0.84488 0.33013 0.0
C592 C 0.69109 0.84183 0.38286 0.0
C593 C 0.51713 0.84938 0.36757 0.0
C594 C 0.65457 0.84117 0.3378 0.0
C595 C 0.75859 0.84291 0.47423 0.0
C596 C 0.67172 0.84703 0.46473 0.0
C597 C 0.81162 0.83839 0.43783 0.0
C598 C 0.77799 0.83785 0.3923 0.0
Eu599 Eu 0.47617 0.85855 0.47674 0.0
N600 N 0.61954 0.85185 0.4994 0.0
C601 C 0.78966 0.84349 0.52009 0.0
C602 C 0.64813 0.85183 0.54392 0.0
C603 C 0.73386 0.84784 0.55501 0.0
H604 H 0.44876 0.85187 0.36149 0.0
H605 H 0.75664 0.84803 0.59048 0.0
H606 H 0.45552 0.90365 0.63912 0.0
H607 H 0.19941 0.9063 0.39346 0.0
H608 H 0.60496 0.85467 0.571 0.0
H609 H 0.85609 0.84044 0.52884 0.0
H610 H 0.34806 0.90093 0.42195 0.0
H611 H 0.53774 0.84419 0.29539 0.0
H612 H 0.87871 0.83525 0.44452 0.0
H613 H 0.81958 0.83426 0.3646 0.0
H614 H 0.35089 0.91132 0.69808 0.0
H615 H 0.69296 0.83764 0.3087 0.0
H616 H 0.08675 0.91383 0.4481 0.0
N617 N 0.36435 0.90585 0.58341 0.0
C618 C 0.28285 0.9099 0.56982 0.0
C619 C 0.33086 0.91091 0.66214 0.0
C620 C 0.22127 0.9144 0.60235 0.0
C621 C 0.38962 0.90644 0.6287 0.0
C622 C 0.24631 0.91489 0.64893 0.0
N623 N 0.31886 0.90395 0.4919 0.0
C624 C 0.29908 0.90349 0.44614 0.0
C625 C 0.1738 0.91243 0.50803 0.0
C626 C 0.25936 0.90886 0.52292 0.0
C627 C 0.15183 0.91122 0.46087 0.0
C628 C 0.21502 0.90687 0.42989 0.0
H629 H 0.20081 0.91828 0.67494 0.0
H630 H 0.08814 0.92145 0.61195 0.0
H631 H 0.04666 0.91973 0.52955 0.0
O632 O 0.47716 0.91772 0.49878 0.0
O633 O 0.34926 0.88458 0.5349 0.0
O634 O 0.34119 0.86802 0.4692 0.0
O635 O 0.50924 0.91804 0.57092 0.0
O636 O 0.49176 0.8917 0.45064 0.0
O637 O 0.41431 0.87134 0.4285 0.0
O638 O 0.43666 0.84172 0.50832 0.0
O639 O 0.59664 0.87187 0.47248 0.0
O640 O 0.59993 0.89132 0.53037 0.0
O641 O 0.41698 0.83967 0.43485 0.0
O642 O 0.46257 0.8663 0.55375 0.0
O643 O 0.53004 0.88779 0.57493 0.0
C644 C 0.30278 0.87584 0.50275 0.0
C645 C 0.57697 0.93496 0.53884 0.0
C646 C 0.62033 0.95813 0.53356 0.0
C647 C 0.70923 0.95427 0.5365 0.0
C648 C 0.66573 0.93129 0.54161 0.0
C649 C 0.73153 0.94095 0.54055 0.0
C650 C 0.55465 0.94833 0.53482 0.0
C651 C 0.45776 0.88155 0.41849 0.0
C652 C 0.50554 0.92506 0.53861 0.0
C653 C 0.13636 0.918 0.58744 0.0
C654 C 0.1127 0.91701 0.54047 0.0
C655 C 0.63971 0.88185 0.50176 0.0
C656 C 0.44912 0.81949 0.46241 0.0
C657 C 0.43729 0.79557 0.46962 0.0
C658 C 0.51708 0.79295 0.44893 0.0
C659 C 0.52792 0.81646 0.44139 0.0
C660 C 0.40358 0.80896 0.47636 0.0
C661 C 0.56186 0.80333 0.43496 0.0
C662 C 0.50273 0.87629 0.58466 0.0
C663 C 0.41382 0.8335 0.46911 0.0
H664 H 0.76162 0.96157 0.53615 0.0
H665 H 0.68393 0.92099 0.54438 0.0
H666 H 0.80012 0.93811 0.5428 0.0
H667 H 0.48567 0.95098 0.53173 0.0
H668 H 0.54401 0.78277 0.44248 0.0
H669 H 0.5629 0.82417 0.42931 0.0
H670 H 0.34245 0.81121 0.49247 0.0
H671 H 0.62264 0.80116 0.41855 0.0
H672 H 0.33162 0.36712 0.93529 0.0
H673 H 0.7916 0.39746 0.06559 0.0
H674 H 0.35879 0.38411 0.08092 0.0
H675 H 0.77579 0.3651 0.94463 0.0
H676 H 0.63006 0.39598 0.0668 0.0
H677 H 0.49203 0.36897 0.93371 0.0
C678 C 0.37132 0.37121 0.96699 0.0
C679 C 0.33141 0.3757 0.00819 0.0
C680 C 0.66214 0.38922 0.04001 0.0
C681 C 0.51527 0.37804 0.00646 0.0
C682 C 0.75405 0.39015 0.03906 0.0
C683 C 0.79714 0.38131 0.00516 0.0
C684 C 0.6129 0.37956 0.00628 0.0
C685 C 0.74535 0.37196 0.97178 0.0
C686 C 0.46287 0.37231 0.96602 0.0
C687 C 0.38649 0.38085 0.0482 0.0
N688 N 0.65622 0.37136 0.97305 0.0
N689 N 0.47534 0.38203 0.0463 0.0
H690 H 0.2566 0.64258 0.09757 0.0
H691 H 0.67318 0.62507 0.94726 0.0
H692 H 0.23606 0.62036 0.95693 0.0
H693 H 0.69515 0.64815 0.08693 0.0
H694 H 0.51358 0.62333 0.95027 0.0
H695 H 0.41655 0.64466 0.0948 0.0
C696 C 0.28575 0.63816 0.06604 0.0
C697 C 0.23239 0.63147 0.02722 0.0
C698 C 0.55298 0.62884 0.98026 0.0
C699 C 0.41649 0.63362 0.0239 0.0
C700 C 0.64441 0.62983 0.97858 0.0
C701 C 0.69819 0.63668 0.01703 0.0
C702 C 0.51403 0.63479 0.02069 0.0
C703 C 0.65657 0.6428 0.0564 0.0
C704 C 0.37727 0.6393 0.06452 0.0
C705 C 0.27432 0.62563 0.98769 0.0
N706 N 0.56732 0.64166 0.05729 0.0
N707 N 0.36347 0.62689 0.98698 0.0
H708 H 0.79229 0.61504 0.45835 0.0
H709 H 0.37375 0.64056 0.59879 0.0
H710 H 0.815 0.64056 0.59423 0.0
H711 H 0.35421 0.62797 0.45106 0.0
H712 H 0.53426 0.6383 0.59974 0.0
H713 H 0.63036 0.61668 0.45735 0.0
C714 C 0.76315 0.62086 0.48812 0.0
C715 C 0.81716 0.62779 0.52626 0.0
C716 C 0.49498 0.63605 0.56706 0.0
C717 C 0.63232 0.62978 0.52538 0.0
C718 C 0.40323 0.63742 0.56647 0.0
C719 C 0.35003 0.63432 0.52479 0.0
C720 C 0.5345 0.6315 0.52567 0.0
C721 C 0.39238 0.63026 0.48404 0.0
C722 C 0.67089 0.62192 0.48738 0.0
C723 C 0.77592 0.63526 0.56382 0.0
N724 N 0.48176 0.62886 0.4855 0.0
N725 N 0.68639 0.63604 0.56248 0.0
H726 H 0.65654 0.36694 0.43201 0.0
H727 H 0.23705 0.3912 0.57426 0.0
H728 H 0.67674 0.38439 0.5774 0.0
H729 H 0.217 0.37083 0.4314 0.0
H730 H 0.39822 0.38975 0.57549 0.0
H731 H 0.49579 0.36865 0.43085 0.0
C732 C 0.62718 0.37104 0.46379 0.0
C733 C 0.68051 0.37561 0.50481 0.0
C734 C 0.35858 0.38558 0.54386 0.0
C735 C 0.49587 0.37775 0.50368 0.0
C736 C 0.2665 0.3865 0.54307 0.0
C737 C 0.21317 0.381 0.50279 0.0
C738 C 0.39798 0.37919 0.50399 0.0
C739 C 0.25523 0.37498 0.46346 0.0
C740 C 0.53528 0.3721 0.46306 0.0
C741 C 0.63846 0.38092 0.54485 0.0
N742 N 0.34475 0.37421 0.46508 0.0
N743 N 0.54897 0.38189 0.54326 0.0
H744 H 0.88089 0.86874 0.07298 0.0
H745 H 0.30065 0.89446 0.96885 0.0
H746 H 0.85892 0.88202 0.94395 0.0
H747 H 0.31847 0.86255 0.04658 0.0
H748 H 0.13883 0.89354 0.96893 0.0
H749 H 0.04223 0.86937 0.07253 0.0
C750 C 0.90986 0.87177 0.04452 0.0
C751 C 0.85609 0.87558 0.00883 0.0
C752 C 0.17835 0.8867 0.98576 0.0
C753 C 0.04076 0.87657 0.00858 0.0
C754 C 0.2705 0.88727 0.98593 0.0
C755 C 0.32292 0.8784 0.00707 0.0
C756 C 0.13849 0.87744 0.00793 0.0
C757 C 0.28046 0.86932 0.02889 0.0
C758 C 1.00192 0.87217 0.04438 0.0
C759 C 0.89765 0.87937 0.97278 0.0
N760 N 0.19098 0.86913 0.02903 0.0
N761 N 0.98727 0.87994 0.97383 0.0
H762 H 0.22405 0.14486 0.09489 0.0
H763 H 0.76272 0.1136 0.96894 0.0
H764 H 0.19451 0.12662 0.95019 0.0
H765 H 0.78082 0.14642 0.0886 0.0
H766 H 0.92396 0.11502 0.96669 0.0
H767 H 0.06414 0.14289 0.09765 0.0
C768 C 0.1839 0.14048 0.06362 0.0
C769 C 0.22304 0.13569 0.02237 0.0
C770 C 0.89246 0.12189 0.99345 0.0
C771 C 0.03966 0.1332 0.02548 0.0
C772 C 0.80071 0.12098 0.99502 0.0
C773 C 0.7583 0.12997 0.02884 0.0
C774 C 0.94225 0.13167 0.02645 0.0
C775 C 0.81068 0.13943 0.06157 0.0
C776 C 0.09262 0.1393 0.06528 0.0
C777 C 0.16742 0.13012 0.98296 0.0
N778 N 0.89965 0.14001 0.05966 0.0
N779 N 0.07878 0.1289 0.98554 0.0
H780 H 0.33592 0.13942 0.6017 0.0
H781 H 0.86973 0.12568 0.45194 0.0
H782 H 0.30998 0.1196 0.45831 0.0
H783 H 0.89599 0.14292 0.59747 0.0
H784 H 0.03021 0.12378 0.45305 0.0
H785 H 0.1756 0.14114 0.6004 0.0
C786 C 0.29646 0.13543 0.56985 0.0
C787 C 0.3368 0.1295 0.5299 0.0
C788 C 1.00108 0.12801 0.48476 0.0
C789 C 0.152 0.13127 0.52826 0.0
C790 C 0.90927 0.12908 0.48418 0.0
C791 C 0.86899 0.13435 0.52477 0.0
C792 C 0.05371 0.13237 0.52621 0.0
C793 C 0.92394 0.13883 0.56531 0.0
C794 C 0.20467 0.13636 0.56919 0.0
C795 C 0.28189 0.12424 0.48995 0.0
N796 N 1.01319 0.1377 0.56502 0.0
N797 N 0.19252 0.12531 0.49008 0.0
H798 H 0.76255 0.89192 0.57388 0.0
H799 H 0.18011 0.86861 0.4287 0.0
H800 H 0.74057 0.87237 0.43023 0.0
H801 H 0.20151 0.88349 0.57561 0.0
H802 H 1.01949 0.87065 0.42811 0.0
H803 H 0.92379 0.89031 0.57448 0.0
C804 C 0.7916 0.8874 0.54238 0.0
C805 C 0.73772 0.88217 0.50206 0.0
C806 C 0.05921 0.87346 0.46053 0.0
C807 C 0.92246 0.88016 0.50252 0.0
C808 C 0.15102 0.8722 0.46091 0.0
C809 C 0.20466 0.87597 0.50222 0.0
C810 C 1.02022 0.87851 0.5018 0.0
C811 C 0.16297 0.88064 0.54285 0.0
C812 C 0.88367 0.88637 0.54281 0.0
C813 C 0.77925 0.87636 0.46231 0.0
N814 N 0.07361 0.88184 0.54161 0.0
N815 N 0.86869 0.87548 0.46357 0.0
H816 H 0.21542 0.53337 0.01473 0.0
H817 H 0.83664 0.47858 0.00856 0.0
H818 H 0.9507 0.54542 0.04611 0.0
H819 H 0.10286 0.4725 0.06226 0.0
H820 H 0.87762 0.50204 0.00637 0.0
H821 H 0.17559 0.50981 0.01659 0.0
C822 C 0.14915 0.53119 0.02219 0.0
C823 C 0.08666 0.54162 0.03031 0.0
C824 C 0.92682 0.49549 0.0185 0.0
C825 C 0.04021 0.51442 0.03073 0.0
C826 C 0.9035 0.48209 0.02014 0.0
C827 C 0.96593 0.47335 0.03592 0.0
C828 C 1.01372 0.50021 0.03167 0.0
C829 C 0.05235 0.47859 0.04899 0.0
C830 C 0.1265 0.51767 0.02291 0.0
C831 C 1.0011 0.53785 0.03854 0.0
N832 N 0.07369 0.49162 0.04633 0.0
N833 N 0.98038 0.52459 0.03822 0.0
H834 H 0.97555 0.46372 0.46882 0.0
H835 H 0.08575 0.54409 0.54329 0.0
H836 H 0.19122 0.4808 0.56694 0.0
H837 H 0.86893 0.52687 0.44617 0.0
H838 H 0.12719 0.52103 0.55133 0.0
H839 H 0.93696 0.48675 0.45943 0.0
C840 C 1.01466 0.47231 0.48859 0.0
C841 C 0.08654 0.47027 0.51897 0.0
C842 C 0.07058 0.52228 0.52823 0.0
C843 C 0.04304 0.49677 0.50794 0.0
C844 C 0.04709 0.53546 0.5234 0.0
C845 C 0.9737 0.53748 0.4939 0.0
C846 C 1.02046 0.51096 0.5034 0.0
C847 C 0.92533 0.52587 0.46971 0.0
C848 C 0.9928 0.48548 0.483 0.0
C849 C 0.13577 0.48183 0.54286 0.0
N850 N 0.94959 0.51314 0.47496 0.0
N851 N 0.11295 0.49456 0.53695 0.0
H852 H 0.35082 0.9744 0.97149 0.0
H853 H 0.69932 0.03638 0.0586 0.0
H854 H 0.58317 0.97221 0.06258 0.0
H855 H 0.47722 0.03756 0.95989 0.0
H856 H 0.65585 0.01309 0.06198 0.0
H857 H 0.39254 0.99789 0.96935 0.0
C858 C 0.41026 0.97888 0.99132 0.0
C859 C 0.46363 0.97127 0.01715 0.0
C860 C 0.61659 0.01845 0.03958 0.0
C861 C 0.51239 0.99817 0.0145 0.0
C862 C 0.64173 0.03173 0.03739 0.0
C863 C 0.59198 0.03901 0.0089 0.0
C864 C 0.54099 0.01232 0.01312 0.0
C865 C 0.51702 0.03247 0.98286 0.0
C866 C 0.43439 0.99228 0.98984 0.0
C867 C 0.5406 0.97759 0.04166 0.0
N868 N 0.4939 0.01953 0.98559 0.0
N869 N 0.56259 0.99064 0.03973 0.0
H870 H 0.37064 0.03714 0.55234 0.0
H871 H 0.69383 0.97423 0.48143 0.0
H872 H 0.57154 0.03677 0.4579 0.0
H873 H 0.49048 0.97429 0.5743 0.0
H874 H 0.65095 0.99721 0.47303 0.0
H875 H 0.41274 0.01409 0.56042 0.0
C876 C 0.42318 0.03219 0.53302 0.0
C877 C 0.46759 0.03898 0.50443 0.0
C878 C 0.61568 0.99221 0.49527 0.0
C879 C 0.51703 0.01256 0.51401 0.0
C880 C 0.64056 0.9791 0.50033 0.0
C881 C 0.5958 0.97226 0.52863 0.0
C882 C 0.5455 0.99861 0.51872 0.0
C883 C 0.52624 0.97905 0.55163 0.0
C884 C 0.44761 0.01905 0.5379 0.0
C885 C 0.53616 0.03207 0.48086 0.0
N886 N 0.50336 0.99182 0.5462 0.0
N887 N 0.5587 0.01928 0.48619 0.0
H888 H 0.14383 0.28778 0.98304 0.0
H889 H 0.40249 0.21941 0.9804 0.0
H890 H 0.4251 0.28843 0.01886 0.0
H891 H 0.14242 0.22444 0.02957 0.0
H892 H 0.40904 0.24385 0.98148 0.0
H893 H 0.13869 0.26369 0.98717 0.0
C894 C 0.20455 0.28301 0.99228 0.0
C895 C 0.28512 0.29039 0.00096 0.0
C896 C 0.35079 0.23955 0.99213 0.0
C897 C 0.27934 0.26248 0.00377 0.0
C898 C 0.34696 0.22557 0.99191 0.0
C899 C 0.27186 0.21965 0.00526 0.0
C900 C 0.27831 0.24771 0.00461 0.0
C901 C 0.2012 0.22832 0.01819 0.0
C902 C 0.20133 0.26917 0.99424 0.0
C903 C 0.36156 0.28327 0.0111 0.0
N904 N 0.20591 0.24185 0.01718 0.0
N905 N 0.35687 0.26971 0.01185 0.0
H906 H 0.72245 0.77218 0.88772 0.0
H907 H 0.67751 0.73035 0.0868 0.0
H908 H 0.63634 0.79043 0.02065 0.0
H909 H 0.80025 0.71438 0.96171 0.0
H910 H 0.66007 0.75232 0.0632 0.0
H911 H 0.75033 0.7509 0.91426 0.0
C912 C 0.70948 0.77171 0.92256 0.0
C913 C 0.67651 0.78309 0.95192 0.0
C914 C 0.69119 0.74403 0.04101 0.0
C915 C 0.70835 0.75869 0.98265 0.0
C916 C 0.70068 0.73145 0.05433 0.0
C917 C 0.7402 0.72046 0.02614 0.0
C918 C 0.72072 0.74565 0.99897 0.0
C919 C 0.77012 0.72258 0.98475 0.0
C920 C 0.72578 0.75956 0.93777 0.0
C921 C 0.66222 0.78194 0.99694 0.0
N922 N 0.75931 0.73487 0.97233 0.0
N923 N 0.67756 0.76993 0.01081 0.0
H924 H 0.3023 0.72029 0.55273 0.0
H925 H 0.25968 0.78959 0.45671 0.0
H926 H 0.06023 0.73353 0.49102 0.0
H927 H 0.50539 0.7753 0.51093 0.0
H928 H 0.18454 0.76947 0.47153 0.0
H929 H 0.37843 0.74027 0.53745 0.0
C930 C 0.26539 0.72729 0.53543 0.0
C931 C 0.17457 0.72525 0.52342 0.0
C932 C 0.25491 0.77075 0.48028 0.0
C933 C 0.2609 0.74831 0.50661 0.0
C934 C 0.29767 0.78231 0.47223 0.0
C935 C 0.38908 0.78412 0.48236 0.0
C936 C 0.30377 0.76092 0.49875 0.0
C937 C 0.43505 0.77423 0.50192 0.0
C938 C 0.3087 0.73877 0.5271 0.0
C939 C 0.12998 0.73479 0.50159 0.0
N940 N 0.39203 0.76307 0.50935 0.0
N941 N 0.17339 0.7459 0.49411 0.0
H942 H 1.00074 0.27447 0.50427 0.0
H943 H 0.55269 0.23591 0.53145 0.0
H944 H 0.74195 0.28954 0.47341 0.0
H945 H 0.81153 0.2206 0.56062 0.0
H946 H 0.62067 0.25554 0.50988 0.0
H947 H 0.93266 0.25485 0.52589 0.0
C948 C 0.92949 0.27367 0.50209 0.0
C949 C 0.87704 0.28366 0.48668 0.0
C950 C 0.6627 0.24788 0.52085 0.0
C951 C 0.79843 0.26115 0.51159 0.0
C952 C 0.62392 0.23666 0.53325 0.0
C953 C 0.67644 0.22659 0.54816 0.0
C954 C 0.75493 0.24912 0.52335 0.0
C955 C 0.76837 0.22802 0.54901 0.0
C956 C 0.89065 0.26246 0.51453 0.0
C957 C 0.78507 0.28217 0.48541 0.0
N958 N 0.80464 0.23911 0.53703 0.0
N959 N 0.74875 0.2711 0.49746 0.0
H960 H 0.1456 0.36941 0.15643 0.0
H961 H 0.80706 0.37494 0.34592 0.0
H962 H 0.89672 0.38895 0.13769 0.0
H963 H 0.08149 0.38546 0.38392 0.0
H964 H 0.83214 0.37458 0.26488 0.0
H965 H 0.11684 0.3696 0.23653 0.0
C966 C 0.08475 0.37366 0.16919 0.0
C967 C 1.02359 0.37926 0.14079 0.0
C968 C 0.88653 0.37698 0.29114 0.0
C969 C 0.98971 0.37921 0.2314 0.0
C970 C 0.87239 0.37715 0.33706 0.0
C971 C 0.94225 0.38036 0.37128 0.0
C972 C 0.97159 0.37958 0.27958 0.0
C973 C 1.02585 0.38312 0.35839 0.0
C974 C 0.06865 0.37381 0.21473 0.0
C975 C 0.94578 0.38468 0.15885 0.0
N976 N 0.03854 0.3825 0.31342 0.0
N977 N 0.93049 0.3844 0.20302 0.0
H978 H 1.00389 0.61376 0.14947 0.0
H979 H 0.04378 0.65627 0.40531 0.0
H980 H 0.92198 0.65585 0.17977 0.0
H981 H 0.99311 0.61265 0.37045 0.0
H982 H 1.01449 0.65707 0.32369 0.0
H983 H 1.01655 0.61382 0.23125 0.0
C984 C 0.98869 0.62306 0.17321 0.0
C985 C 0.96309 0.6349 0.15743 0.0
C986 C 1.00937 0.64738 0.33422 0.0
C987 C 0.97841 0.635 0.25175 0.0
C988 C 0.02636 0.64688 0.38072 0.0
C989 C 1.02205 0.63434 0.39494 0.0
C990 C 0.98948 0.63523 0.30173 0.0
C991 C 0.99838 0.62254 0.36138 0.0
C992 C 0.9957 0.62304 0.22003 0.0
C993 C 0.9435 0.64656 0.19025 0.0
N994 N 0.98409 0.62326 0.31643 0.0
N995 N 0.95261 0.64637 0.23599 0.0
H996 H 0.86892 0.64091 0.87241 0.0
H997 H 0.20747 0.63407 0.68032 0.0
H998 H 0.12456 0.62313 0.88879 0.0
H999 H 0.92878 0.62749 0.64372 0.0
H1000 H 0.18177 0.63496 0.76127 0.0
H1001 H 0.89286 0.64076 0.7916 0.0
C1002 C 0.92994 0.63699 0.85892 0.0
C1003 C 0.99477 0.63195 0.88693 0.0
C1004 C 0.12637 0.63334 0.73545 0.0
C1005 C 1.02306 0.63202 0.79567 0.0
C1006 C 0.14093 0.63289 0.68955 0.0
C1007 C 0.07 0.63066 0.65578 0.0
C1008 C 0.04016 0.63185 0.74751 0.0
C1009 C 0.98496 0.62914 0.66905 0.0
C1010 C 0.94342 0.63688 0.81302 0.0
C1011 C 0.07273 0.62697 0.86804 0.0
N1012 N 0.97212 0.62987 0.71409 0.0
N1013 N 0.08515 0.62725 0.82364 0.0
H1014 H 0.12456 0.38308 0.64568 0.0
H1015 H 0.90023 0.38224 0.87352 0.0
H1016 H 0.85873 0.36741 0.63811 0.0
H1017 H 0.16968 0.36981 0.86044 0.0
H1018 H 0.88122 0.38087 0.78979 0.0
H1019 H 0.14153 0.38238 0.72785 0.0
C1020 C 0.06993 0.37948 0.66144 0.0
C1021 C 0.99035 0.37523 0.63535 0.0
C1022 C 0.94421 0.37838 0.80538 0.0
C1023 C 1.00848 0.37473 0.72895 0.0
C1024 C 0.95516 0.37922 0.85292 0.0
C1025 C 0.03647 0.3761 0.87355 0.0
C1026 C 1.01597 0.37482 0.7788 0.0
C1027 C 0.10578 0.3722 0.8456 0.0
C1028 C 0.07972 0.37904 0.70807 0.0
C1029 C 0.92139 0.37064 0.65715 0.0
N1030 N 0.09438 0.37186 0.79966 0.0
N1031 N 0.93155 0.37068 0.70298 0.0
H1032 H 0.41802 0.88344 0.12761 0.0
H1033 H 0.6101 0.88823 0.38648 0.0
H1034 H 0.69226 0.8769 0.16348 0.0
H1035 H 0.34338 0.87432 0.34116 0.0
H1036 H 0.63935 0.88742 0.30629 0.0
H1037 H 0.3865 0.88328 0.2072 0.0
C1038 C 0.47147 0.88201 0.1524 0.0
C1039 C 0.55771 0.88016 0.13926 0.0
C1040 C 0.57441 0.88455 0.31387 0.0
C1041 C 0.52271 0.88018 0.22996 0.0
C1042 C 0.55751 0.88512 0.35955 0.0
C1043 C 0.47415 0.88139 0.37023 0.0
C1044 C 0.50683 0.88054 0.27868 0.0
C1045 C 0.40852 0.87727 0.33414 0.0
C1046 C 0.45346 0.88184 0.19756 0.0
C1047 C 0.62481 0.87828 0.17236 0.0
N1048 N 0.42598 0.87706 0.2899 0.0
N1049 N 0.60606 0.87846 0.21634 0.0
H1050 H 0.37857 0.14256 0.17042 0.0
H1051 H 0.69439 0.14321 0.39553 0.0
H1052 H 0.64695 0.12925 0.16055 0.0
H1053 H 0.42672 0.12803 0.38411 0.0
H1054 H 0.67862 0.14399 0.31323 0.0
H1055 H 0.39561 0.14324 0.25363 0.0
C1056 C 0.44135 0.13995 0.18596 0.0
C1057 C 0.51154 0.13582 0.15887 0.0
C1058 C 0.6234 0.14056 0.32895 0.0
C1059 C 0.53164 0.13678 0.25347 0.0
C1060 C 0.6321 0.1402 0.37573 0.0
C1061 C 0.56168 0.13554 0.39631 0.0
C1062 C 0.54289 0.13665 0.30314 0.0
C1063 C 0.48257 0.13161 0.36926 0.0
C1064 C 0.45076 0.14026 0.23317 0.0
C1065 C 0.59128 0.13241 0.18041 0.0
N1066 N 0.47492 0.13237 0.32407 0.0
N1067 N 0.59954 0.13307 0.22663 0.0
H1068 H 0.66281 0.12226 0.89687 0.0
H1069 H 0.46668 0.12487 0.64636 0.0
H1070 H 0.41313 0.14125 0.87488 0.0
H1071 H 0.74189 0.13447 0.6855 0.0
H1072 H 0.44237 0.1261 0.72758 0.0
H1073 H 0.69098 0.12203 0.81652 0.0
C1074 C 0.61398 0.12633 0.87502 0.0
C1075 C 0.53562 0.13178 0.89226 0.0
C1076 C 0.50804 0.12789 0.71829 0.0
C1077 C 0.56644 0.13129 0.80081 0.0
C1078 C 0.52207 0.12708 0.67213 0.0
C1079 C 0.60643 0.12952 0.65956 0.0
C1080 C 0.57944 0.13072 0.75182 0.0
C1081 C 0.67594 0.13254 0.69409 0.0
C1082 C 0.63026 0.12627 0.82949 0.0
C1083 C 0.47455 0.13703 0.86284 0.0
N1084 N 0.66118 0.1329 0.73878 0.0
N1085 N 0.49067 0.13648 0.81828 0.0
H1086 H 0.37753 0.86764 0.63305 0.0
H1087 H 0.68455 0.86556 0.85867 0.0
H1088 H 0.64692 0.88216 0.64648 0.0
H1089 H 0.42121 0.88114 0.86824 0.0
H1090 H 0.67067 0.86545 0.77566 0.0
H1091 H 0.39102 0.86648 0.71503 0.0
C1092 C 0.43973 0.87043 0.65321 0.0
C1093 C 0.51131 0.87499 0.63326 0.0
C1094 C 0.61587 0.86878 0.79601 0.0
C1095 C 0.52755 0.87343 0.72615 0.0
C1096 C 0.62342 0.86875 0.84309 0.0
C1097 C 0.55377 0.87334 0.87006 0.0
C1098 C 0.5372 0.87303 0.77571 0.0
C1099 C 0.47634 0.87755 0.84849 0.0
C1100 C 0.44716 0.86984 0.69983 0.0
C1101 C 0.59024 0.87864 0.66083 0.0
N1102 N 0.46972 0.87717 0.80242 0.0
N1103 N 0.59666 0.87764 0.70585 0.0
loop_
_geom_bond_atom_site_label_1
_geom_bond_atom_site_label_2
_geom_bond_distance
_geom_bond_site_symmetry_2
_ccdc_geom_bond_type
Eu0 N29 2.600 1_455 S
Eu0 N35 2.562 1_456 S
Eu0 O44 2.462 1_556 S
Eu0 O45 2.373 1_455 S
Eu0 O47 2.432 . S
Eu0 O48 2.291 1_556 S
Eu0 O52 2.335 1_556 S
Eu0 O55 2.372 . S
Eu0 C64 2.787 . S
C1 N2 1.365 . S
C1 C4 1.405 . S
C1 C8 1.448 . S
N2 C1 1.365 . S
N2 C5 1.319 . S
N2 Eu11 2.600 . S
C3 C5 1.397 . S
C3 C6 1.367 . S
C3 H23 0.931 . S
C4 C1 1.405 . S
C4 C6 1.403 . S
C4 C10 1.439 . S
C5 N2 1.319 . S
C5 C3 1.397 . S
C5 H16 0.930 . S
C6 C3 1.367 . S
C6 C4 1.403 . S
C6 H27 0.929 . S
C7 C8 1.430 . S
C7 C9 1.387 . S
C7 C13 1.404 1_554 S
C8 C1 1.448 . S
C8 C7 1.430 . S
C8 N12 1.351 . S
C9 C7 1.387 . S
C9 C10 1.374 . S
C9 H24 0.931 . S
C10 C4 1.439 . S
C10 C9 1.374 . S
C10 H25 0.931 . S
Eu11 N2 2.600 . S
Eu11 N12 2.562 . S
Eu11 O46 2.335 1_455 S
Eu11 O49 2.372 . S
Eu11 O50 2.462 . S
Eu11 O51 2.373 . S
Eu11 O53 2.432 . S
Eu11 O54 2.291 1_554 S
Eu11 C75 2.787 . S
N12 C8 1.351 . S
N12 Eu11 2.562 . S
N12 C14 1.325 1_554 S
C13 C7 1.404 1_556 S
C13 C15 1.366 . S
C13 H21 0.930 . S
C14 N12 1.325 1_556 S
C14 C15 1.416 . S
C14 H20 0.929 . S
C15 C13 1.366 . S
C15 C14 1.416 . S
C15 H17 0.930 . S
H16 C5 0.930 . S
H17 C15 0.930 . S
H18 C33 0.930 . S
H19 C40 0.930 . S
H20 C14 0.929 . S
H21 C13 0.930 . S
H22 C36 0.929 . S
H23 C3 0.931 . S
H24 C9 0.931 . S
H25 C10 0.931 . S
H26 C31 0.931 . S
H27 C6 0.929 . S
H28 C39 0.930 . S
N29 Eu0 2.600 1_655 S
N29 C30 1.365 . S
N29 C33 1.319 . S
C30 N29 1.365 . S
C30 C32 1.405 . S
C30 C38 1.448 . S
C31 H26 0.931 . S
C31 C33 1.397 . S
C31 C34 1.367 . S
C32 C30 1.405 . S
C32 C34 1.403 . S
C32 C65 1.439 . S
C33 H18 0.930 . S
C33 N29 1.319 . S
C33 C31 1.397 . S
C34 C31 1.367 . S
C34 C32 1.403 . S
C34 H41 0.929 . S
N35 Eu0 2.562 1_654 S
N35 C36 1.325 . S
N35 C38 1.351 1_554 S
C36 H22 0.929 . S
C36 N35 1.325 . S
C36 C40 1.416 . S
C37 C38 1.430 . S
C37 C39 1.404 1_556 S
C37 C66 1.387 . S
C38 C30 1.448 . S
C38 N35 1.351 1_556 S
C38 C37 1.430 . S
C39 H28 0.930 . S
C39 C37 1.404 1_554 S
C39 C40 1.366 . S
C40 H19 0.930 . S
C40 C36 1.416 . S
C40 C39 1.366 . S
H41 C34 0.929 . S
H42 C65 0.931 . S
H43 C66 0.931 . S
O44 Eu0 2.462 1_554 S
O44 C64 1.252 1_554 S
O45 Eu0 2.373 1_655 S
O45 C56 1.249 1_556 S
O46 Eu11 2.335 1_655 S
O46 C56 1.264 . S
O47 Eu0 2.432 . S
O47 C64 1.268 . S
O48 Eu0 2.291 1_554 S
O48 C63 1.255 . S
O49 Eu11 2.372 . S
O49 C63 1.257 . S
O50 Eu11 2.462 . S
O50 C75 1.252 . S
O51 Eu11 2.373 . S
O51 C67 1.249 . S
O52 Eu0 2.335 1_554 S
O52 C67 1.264 . S
O53 Eu11 2.432 . S
O53 C75 1.268 . S
O54 Eu11 2.291 1_556 S
O54 C74 1.255 . S
O55 Eu0 2.372 . S
O55 C74 1.257 . S
C56 O45 1.249 1_554 S
C56 O46 1.264 . S
C57 C60 1.382 . S
C57 C62 1.390 1_556 S
C57 C64 1.506 . S
C58 C59 1.398 1_554 S
C58 C62 1.392 . S
C59 C58 1.398 1_556 S
C59 C61 1.372 . S
C59 H76 0.931 . S
C60 C57 1.382 . S
C60 C61 1.390 . S
C60 H77 0.931 . S
C61 C59 1.372 . S
C61 C60 1.390 . S
C61 H78 0.929 . S
C62 C57 1.390 1_554 S
C62 C58 1.392 . S
C62 H79 0.930 . S
C63 O48 1.255 . S
C63 O49 1.257 . S
C64 Eu0 2.787 . S
C64 O44 1.252 1_556 S
C64 O47 1.268 . S
C64 C57 1.506 . S
C65 C32 1.439 . S
C65 H42 0.931 . S
C65 C66 1.374 . S
C66 C37 1.387 . S
C66 H43 0.931 . S
C66 C65 1.374 . S
C67 O51 1.249 . S
C67 O52 1.264 . S
C68 C71 1.382 . S
C68 C72 1.390 1_554 S
C68 C75 1.506 1_655 S
C69 C70 1.398 1_556 S
C69 C72 1.392 . S
C70 C69 1.398 1_554 S
C70 C73 1.372 . S
C70 H80 0.931 . S
C71 C68 1.382 . S
C71 C73 1.390 . S
C71 H81 0.931 . S
C72 C68 1.390 1_556 S
C72 C69 1.392 . S
C72 H82 0.930 . S
C73 C70 1.372 . S
C73 C71 1.390 . S
C73 H83 0.929 . S
C74 O54 1.255 . S
C74 O55 1.257 . S
C75 Eu11 2.787 . S
C75 O50 1.252 . S
C75 O53 1.268 . S
C75 C68 1.506 1_455 S
H76 C59 0.931 . S
H77 C60 0.931 . S
H78 C61 0.929 . S
H79 C62 0.930 . S
H80 C70 0.931 . S
H81 C71 0.931 . S
H82 C72 0.930 . S
H83 C73 0.929 . S
Eu84 N113 2.600 1_654 S
Eu84 N119 2.562 1_655 S
Eu84 O128 2.462 . S
Eu84 O129 2.373 1_655 S
Eu84 O131 2.432 1_554 S
Eu84 O132 2.291 . S
Eu84 O136 2.335 . S
Eu84 O139 2.372 1_554 S
Eu84 C148 2.787 . S
C85 N86 1.365 . S
C85 C88 1.405 . S
C85 C92 1.448 . S
N86 C85 1.365 . S
N86 C89 1.319 . S
N86 Eu95 2.600 . S
C87 C89 1.397 . S
C87 C90 1.367 . S
C87 H107 0.931 . S
C88 C85 1.405 . S
C88 C90 1.403 . S
C88 C94 1.439 . S
C89 N86 1.319 . S
C89 C87 1.397 . S
C89 H100 0.930 . S
C90 C87 1.367 . S
C90 C88 1.403 . S
C90 H111 0.929 . S
C91 C92 1.430 1_556 S
C91 C93 1.387 1_556 S
C91 C97 1.404 . S
C92 C85 1.448 . S
C92 C91 1.430 1_554 S
C92 N96 1.351 1_554 S
C93 C91 1.387 1_554 S
C93 C94 1.374 . S
C93 H108 0.931 . S
C94 C88 1.439 . S
C94 C93 1.374 . S
C94 H109 0.931 . S
Eu95 N86 2.600 . S
Eu95 N96 2.562 1_554 S
Eu95 O130 2.335 1_655 S
Eu95 O133 2.372 . S
Eu95 O134 2.462 1_554 S
Eu95 O135 2.373 . S
Eu95 O137 2.432 . S
Eu95 O138 2.291 1_554 S
Eu95 C159 2.787 . S
N96 C92 1.351 1_556 S
N96 Eu95 2.562 1_556 S
N96 C98 1.325 . S
C97 C91 1.404 . S
C97 C99 1.366 . S
C97 H105 0.930 . S
C98 N96 1.325 . S
C98 C99 1.416 . S
C98 H104 0.929 . S
C99 C97 1.366 . S
C99 C98 1.416 . S
C99 H101 0.930 . S
H100 C89 0.930 . S
H101 C99 0.930 . S
H102 C117 0.930 1_655 S
H103 C124 0.930 . S
H104 C98 0.929 . S
H105 C97 0.930 . S
H106 C120 0.929 . S
H107 C87 0.931 . S
H108 C93 0.931 . S
H109 C94 0.931 . S
H110 C115 0.931 . S
H111 C90 0.929 . S
H112 C123 0.930 . S
N113 Eu84 2.600 1_456 S
N113 C114 1.365 . S
N113 C117 1.319 . S
C114 N113 1.365 . S
C114 C116 1.405 . S
C114 C122 1.448 1_556 S
C115 H110 0.931 . S
C115 C117 1.397 . S
C115 C118 1.367 . S
C116 C114 1.405 . S
C116 C118 1.403 . S
C116 C149 1.439 . S
C117 H102 0.930 1_455 S
C117 N113 1.319 . S
C117 C115 1.397 . S
C118 C115 1.367 . S
C118 C116 1.403 . S
C118 H125 0.929 . S
N119 Eu84 2.562 1_455 S
N119 C120 1.325 . S
N119 C122 1.351 . S
C120 H106 0.929 . S
C120 N119 1.325 . S
C120 C124 1.416 . S
C121 C122 1.430 . S
C121 C123 1.404 . S
C121 C150 1.387 . S
C122 C114 1.448 1_554 S
C122 N119 1.351 . S
C122 C121 1.430 . S
C123 H112 0.930 . S
C123 C121 1.404 . S
C123 C124 1.366 . S
C124 H103 0.930 . S
C124 C120 1.416 . S
C124 C123 1.366 . S
H125 C118 0.929 . S
H126 C149 0.931 . S
H127 C150 0.931 . S
O128 Eu84 2.462 . S
O128 C148 1.252 . S
O129 Eu84 2.373 1_455 S
O129 C140 1.249 . S
O130 Eu95 2.335 1_455 S
O130 C140 1.264 . S
O131 Eu84 2.432 1_556 S
O131 C148 1.268 1_556 S
O132 Eu84 2.291 . S
O132 C147 1.255 . S
O133 Eu95 2.372 . S
O133 C147 1.257 . S
O134 Eu95 2.462 1_556 S
O134 C159 1.252 1_556 S
O135 Eu95 2.373 . S
O135 C151 1.249 . S
O136 Eu84 2.335 . S
O136 C151 1.264 . S
O137 Eu95 2.432 . S
O137 C159 1.268 . S
O138 Eu95 2.291 1_556 S
O138 C158 1.255 . S
O139 Eu84 2.372 1_556 S
O139 C158 1.257 . S
C140 O129 1.249 . S
C140 O130 1.264 . S
C141 C144 1.382 1_554 S
C141 C146 1.390 . S
C141 C148 1.506 . S
C142 C143 1.398 . S
C142 C146 1.392 . S
C143 C142 1.398 . S
C143 C145 1.372 . S
C143 H160 0.931 . S
C144 C141 1.382 1_556 S
C144 C145 1.390 1_556 S
C144 H161 0.931 . S
C145 C143 1.372 . S
C145 C144 1.390 1_554 S
C145 H162 0.929 1_554 S
C146 C141 1.390 . S
C146 C142 1.392 . S
C146 H163 0.930 . S
C147 O132 1.255 . S
C147 O133 1.257 . S
C148 Eu84 2.787 . S
C148 O128 1.252 . S
C148 O131 1.268 1_554 S
C148 C141 1.506 . S
C149 C116 1.439 . S
C149 H126 0.931 . S
C149 C150 1.374 1_556 S
C150 C121 1.387 . S
C150 H127 0.931 . S
C150 C149 1.374 1_554 S
C151 O135 1.249 . S
C151 O136 1.264 . S
C152 C155 1.382 1_556 S
C152 C156 1.390 . S
C152 C159 1.506 1_456 S
C153 C154 1.398 . S
C153 C156 1.392 . S
C154 C153 1.398 . S
C154 C157 1.372 1_556 S
C154 H164 0.931 . S
C155 C152 1.382 1_554 S
C155 C157 1.390 . S
C155 H165 0.931 . S
C156 C152 1.390 . S
C156 C153 1.392 . S
C156 H166 0.930 . S
C157 C154 1.372 1_554 S
C157 C155 1.390 . S
C157 H167 0.929 . S
C158 O138 1.255 . S
C158 O139 1.257 . S
C159 Eu95 2.787 . S
C159 O134 1.252 1_554 S
C159 O137 1.268 . S
C159 C152 1.506 1_654 S
H160 C143 0.931 . S
H161 C144 0.931 . S
H162 C145 0.929 1_556 S
H163 C146 0.930 . S
H164 C154 0.931 . S
H165 C155 0.931 . S
H166 C156 0.930 . S
H167 C157 0.929 . S
Eu168 N197 2.600 1_455 S
Eu168 N203 2.562 1_455 S
Eu168 O212 2.462 . S
Eu168 O213 2.373 1_455 S
Eu168 O215 2.432 . S
Eu168 O216 2.291 . S
Eu168 O220 2.335 . S
Eu168 O223 2.372 . S
Eu168 C232 2.787 . S
C169 N170 1.365 . S
C169 C172 1.405 . S
C169 C176 1.448 . S
N170 C169 1.365 . S
N170 C173 1.319 . S
N170 Eu179 2.600 . S
C171 C173 1.397 . S
C171 C174 1.367 . S
C171 H191 0.931 . S
C172 C169 1.405 . S
C172 C174 1.403 . S
C172 C178 1.439 . S
C173 N170 1.319 . S
C173 C171 1.397 . S
C173 H184 0.930 . S
C174 C171 1.367 . S
C174 C172 1.403 . S
C174 H195 0.929 . S
C175 C176 1.430 . S
C175 C177 1.387 . S
C175 C181 1.404 . S
C176 C169 1.448 . S
C176 C175 1.430 . S
C176 N180 1.351 . S
C177 C175 1.387 . S
C177 C178 1.374 . S
C177 H192 0.931 . S
C178 C172 1.439 . S
C178 C177 1.374 . S
C178 H193 0.931 . S
Eu179 N170 2.600 . S
Eu179 N180 2.562 . S
Eu179 O214 2.335 1_455 S
Eu179 O217 2.372 . S
Eu179 O218 2.462 . S
Eu179 O219 2.373 . S
Eu179 O221 2.432 . S
Eu179 O222 2.291 . S
Eu179 C243 2.787 1_455 S
N180 C176 1.351 . S
N180 Eu179 2.562 . S
N180 C182 1.325 . S
C181 C175 1.404 . S
C181 C183 1.366 . S
C181 H189 0.930 . S
C182 N180 1.325 . S
C182 C183 1.416 . S
C182 H188 0.929 . S
C183 C181 1.366 . S
C183 C182 1.416 . S
C183 H185 0.930 . S
H184 C173 0.930 . S
H185 C183 0.930 . S
H186 C201 0.930 1_455 S
H187 C208 0.930 . S
H188 C182 0.929 . S
H189 C181 0.930 . S
H190 C204 0.929 . S
H191 C171 0.931 . S
H192 C177 0.931 . S
H193 C178 0.931 . S
H194 C199 0.931 . S
H195 C174 0.929 . S
H196 C207 0.930 . S
N197 Eu168 2.600 1_655 S
N197 C198 1.365 . S
N197 C201 1.319 . S
C198 N197 1.365 . S
C198 C200 1.405 . S
C198 C206 1.448 . S
C199 H194 0.931 . S
C199 C201 1.397 . S
C199 C202 1.367 . S
C200 C198 1.405 . S
C200 C202 1.403 . S
C200 C233 1.439 . S
C201 H186 0.930 1_655 S
C201 N197 1.319 . S
C201 C199 1.397 . S
C202 C199 1.367 . S
C202 C200 1.403 . S
C202 H209 0.929 . S
N203 Eu168 2.562 1_655 S
N203 C204 1.325 . S
N203 C206 1.351 . S
C204 H190 0.929 . S
C204 N203 1.325 . S
C204 C208 1.416 . S
C205 C206 1.430 . S
C205 C207 1.404 . S
C205 C234 1.387 . S
C206 C198 1.448 . S
C206 N203 1.351 . S
C206 C205 1.430 . S
C207 H196 0.930 . S
C207 C205 1.404 . S
C207 C208 1.366 . S
C208 H187 0.930 . S
C208 C204 1.416 . S
C208 C207 1.366 . S
H209 C202 0.929 . S
H210 C233 0.931 . S
H211 C234 0.931 . S
O212 Eu168 2.462 . S
O212 C232 1.252 . S
O213 Eu168 2.373 1_655 S
O213 C224 1.249 . S
O214 Eu179 2.335 1_655 S
O214 C224 1.264 . S
O215 Eu168 2.432 . S
O215 C232 1.268 . S
O216 Eu168 2.291 . S
O216 C231 1.255 . S
O217 Eu179 2.372 . S
O217 C231 1.257 . S
O218 Eu179 2.462 . S
O218 C243 1.252 1_455 S
O219 Eu179 2.373 . S
O219 C235 1.249 . S
O220 Eu168 2.335 . S
O220 C235 1.264 . S
O221 Eu179 2.432 . S
O221 C243 1.268 1_455 S
O222 Eu179 2.291 . S
O222 C242 1.255 . S
O223 Eu168 2.372 . S
O223 C242 1.257 . S
C224 O213 1.249 . S
C224 O214 1.264 . S
C225 C228 1.382 . S
C225 C230 1.390 . S
C225 C232 1.506 . S
C226 C227 1.398 . S
C226 C230 1.392 . S
C227 C226 1.398 . S
C227 C229 1.372 . S
C227 H244 0.931 . S
C228 C225 1.382 . S
C228 C229 1.390 . S
C228 H245 0.931 . S
C229 C227 1.372 . S
C229 C228 1.390 . S
C229 H246 0.929 . S
C230 C225 1.390 . S
C230 C226 1.392 . S
C230 H247 0.930 . S
C231 O216 1.255 . S
C231 O217 1.257 . S
C232 Eu168 2.787 . S
C232 O212 1.252 . S
C232 O215 1.268 . S
C232 C225 1.506 . S
C233 C200 1.439 . S
C233 H210 0.931 . S
C233 C234 1.374 . S
C234 C205 1.387 . S
C234 H211 0.931 . S
C234 C233 1.374 . S
C235 O219 1.249 . S
C235 O220 1.264 . S
C236 C239 1.382 . S
C236 C240 1.390 . S
C236 C243 1.506 . S
C237 C238 1.398 . S
C237 C240 1.392 . S
C238 C237 1.398 . S
C238 C241 1.372 . S
C238 H248 0.931 . S
C239 C236 1.382 . S
C239 C241 1.390 . S
C239 H249 0.931 . S
C240 C236 1.390 . S
C240 C237 1.392 . S
C240 H250 0.930 . S
C241 C238 1.372 . S
C241 C239 1.390 . S
C241 H251 0.929 . S
C242 O222 1.255 . S
C242 O223 1.257 . S
C243 Eu179 2.787 1_655 S
C243 O218 1.252 1_655 S
C243 O221 1.268 1_655 S
C243 C236 1.506 . S
H244 C227 0.931 . S
H245 C228 0.931 . S
H246 C229 0.929 . S
H247 C230 0.930 . S
H248 C238 0.931 . S
H249 C239 0.931 . S
H250 C240 0.930 . S
H251 C241 0.929 . S
Eu252 N281 2.600 . S
Eu252 N287 2.562 . S
Eu252 O296 2.462 . S
Eu252 O297 2.373 . S
Eu252 O299 2.432 . S
Eu252 O300 2.291 . S
Eu252 O304 2.335 1_655 S
Eu252 O307 2.372 . S
Eu252 C316 2.787 1_655 S
C253 N254 1.365 . S
C253 C256 1.405 . S
C253 C260 1.448 . S
N254 C253 1.365 . S
N254 C257 1.319 . S
N254 Eu263 2.600 1_455 S
C255 C257 1.397 . S
C255 C258 1.367 . S
C255 H275 0.931 . S
C256 C253 1.405 . S
C256 C258 1.403 . S
C256 C262 1.439 . S
C257 N254 1.319 . S
C257 C255 1.397 . S
C257 H268 0.930 1_455 S
C258 C255 1.367 . S
C258 C256 1.403 . S
C258 H279 0.929 . S
C259 C260 1.430 . S
C259 C261 1.387 . S
C259 C265 1.404 . S
C260 C253 1.448 . S
C260 C259 1.430 . S
C260 N264 1.351 . S
C261 C259 1.387 . S
C261 C262 1.374 . S
C261 H276 0.931 . S
C262 C256 1.439 . S
C262 C261 1.374 . S
C262 H277 0.931 . S
Eu263 N254 2.600 1_655 S
Eu263 N264 2.562 1_655 S
Eu263 O298 2.335 . S
Eu263 O301 2.372 . S
Eu263 O302 2.462 . S
Eu263 O303 2.373 1_655 S
Eu263 O305 2.432 . S
Eu263 O306 2.291 . S
Eu263 C327 2.787 . S
N264 C260 1.351 . S
N264 Eu263 2.562 1_455 S
N264 C266 1.325 . S
C265 C259 1.404 . S
C265 C267 1.366 . S
C265 H273 0.930 . S
C266 N264 1.325 . S
C266 C267 1.416 . S
C266 H272 0.929 . S
C267 C265 1.366 . S
C267 C266 1.416 . S
C267 H269 0.930 . S
H268 C257 0.930 1_655 S
H269 C267 0.930 . S
H270 C285 0.930 . S
H271 C292 0.930 . S
H272 C266 0.929 . S
H273 C265 0.930 . S
H274 C288 0.929 . S
H275 C255 0.931 . S
H276 C261 0.931 . S
H277 C262 0.931 . S
H278 C283 0.931 . S
H279 C258 0.929 . S
H280 C291 0.930 . S
N281 Eu252 2.600 . S
N281 C282 1.365 . S
N281 C285 1.319 . S
C282 N281 1.365 . S
C282 C284 1.405 . S
C282 C290 1.448 . S
C283 H278 0.931 . S
C283 C285 1.397 . S
C283 C286 1.367 . S
C284 C282 1.405 . S
C284 C286 1.403 . S
C284 C317 1.439 . S
C285 H270 0.930 . S
C285 N281 1.319 . S
C285 C283 1.397 . S
C286 C283 1.367 . S
C286 C284 1.403 . S
C286 H293 0.929 . S
N287 Eu252 2.562 . S
N287 C288 1.325 . S
N287 C290 1.351 . S
C288 H274 0.929 . S
C288 N287 1.325 . S
C288 C292 1.416 . S
C289 C290 1.430 . S
C289 C291 1.404 . S
C289 C318 1.387 . S
C290 C282 1.448 . S
C290 N287 1.351 . S
C290 C289 1.430 . S
C291 H280 0.930 . S
C291 C289 1.404 . S
C291 C292 1.366 . S
C292 H271 0.930 . S
C292 C288 1.416 . S
C292 C291 1.366 . S
H293 C286 0.929 . S
H294 C317 0.931 . S
H295 C318 0.931 . S
O296 Eu252 2.462 . S
O296 C316 1.252 1_655 S
O297 Eu252 2.373 . S
O297 C308 1.249 . S
O298 Eu263 2.335 . S
O298 C308 1.264 . S
O299 Eu252 2.432 . S
O299 C316 1.268 1_655 S
O300 Eu252 2.291 . S
O300 C315 1.255 . S
O301 Eu263 2.372 . S
O301 C315 1.257 . S
O302 Eu263 2.462 . S
O302 C327 1.252 . S
O303 Eu263 2.373 1_455 S
O303 C319 1.249 . S
O304 Eu252 2.335 1_455 S
O304 C319 1.264 . S
O305 Eu263 2.432 . S
O305 C327 1.268 . S
O306 Eu263 2.291 . S
O306 C326 1.255 . S
O307 Eu252 2.372 . S
O307 C326 1.257 . S
C308 O297 1.249 . S
C308 O298 1.264 . S
C309 C312 1.382 . S
C309 C314 1.390 . S
C309 C316 1.506 . S
C310 C311 1.398 . S
C310 C314 1.392 . S
C311 C310 1.398 . S
C311 C313 1.372 . S
C311 H328 0.931 . S
C312 C309 1.382 . S
C312 C313 1.390 . S
C312 H329 0.931 . S
C313 C311 1.372 . S
C313 C312 1.390 . S
C313 H330 0.929 . S
C314 C309 1.390 . S
C314 C310 1.392 . S
C314 H331 0.930 . S
C315 O300 1.255 . S
C315 O301 1.257 . S
C316 Eu252 2.787 1_455 S
C316 O296 1.252 1_455 S
C316 O299 1.268 1_455 S
C316 C309 1.506 . S
C317 C284 1.439 . S
C317 H294 0.931 . S
C317 C318 1.374 . S
C318 C289 1.387 . S
C318 H295 0.931 . S
C318 C317 1.374 . S
C319 O303 1.249 . S
C319 O304 1.264 . S
C320 C323 1.382 . S
C320 C324 1.390 . S
C320 C327 1.506 . S
C321 C322 1.398 . S
C321 C324 1.392 . S
C322 C321 1.398 . S
C322 C325 1.372 . S
C322 H332 0.931 . S
C323 C320 1.382 . S
C323 C325 1.390 . S
C323 H333 0.931 . S
C324 C320 1.390 . S
C324 C321 1.392 . S
C324 H334 0.930 . S
C325 C322 1.372 . S
C325 C323 1.390 . S
C325 H335 0.929 . S
C326 O306 1.255 . S
C326 O307 1.257 . S
C327 Eu263 2.787 . S
C327 O302 1.252 . S
C327 O305 1.268 . S
C327 C320 1.506 . S
H328 C311 0.931 . S
H329 C312 0.931 . S
H330 C313 0.929 . S
H331 C314 0.930 . S
H332 C322 0.931 . S
H333 C323 0.931 . S
H334 C324 0.930 . S
H335 C325 0.929 . S
Eu336 N365 2.600 . S
Eu336 N371 2.562 1_556 S
Eu336 O380 2.462 1_556 S
Eu336 O381 2.373 . S
Eu336 O383 2.432 . S
Eu336 O384 2.291 1_556 S
Eu336 O388 2.335 1_556 S
Eu336 O391 2.372 . S
Eu336 C400 2.787 . S
C337 N338 1.365 . S
C337 C340 1.405 . S
C337 C344 1.448 . S
N338 C337 1.365 . S
N338 C341 1.319 . S
N338 Eu347 2.600 . S
C339 C341 1.397 . S
C339 C342 1.367 . S
C339 H359 0.931 . S
C340 C337 1.405 . S
C340 C342 1.403 . S
C340 C346 1.439 . S
C341 N338 1.319 . S
C341 C339 1.397 . S
C341 H352 0.930 . S
C342 C339 1.367 . S
C342 C340 1.403 . S
C342 H363 0.929 . S
C343 C344 1.430 . S
C343 C345 1.387 . S
C343 C349 1.404 1_554 S
C344 C337 1.448 . S
C344 C343 1.430 . S
C344 N348 1.351 . S
C345 C343 1.387 . S
C345 C346 1.374 . S
C345 H360 0.931 . S
C346 C340 1.439 . S
C346 C345 1.374 . S
C346 H361 0.931 . S
Eu347 N338 2.600 . S
Eu347 N348 2.562 . S
Eu347 O382 2.335 . S
Eu347 O385 2.372 . S
Eu347 O386 2.462 . S
Eu347 O387 2.373 . S
Eu347 O389 2.432 . S
Eu347 O390 2.291 1_554 S
Eu347 C411 2.787 . S
N348 C344 1.351 . S
N348 Eu347 2.562 . S
N348 C350 1.325 1_554 S
C349 C343 1.404 1_556 S
C349 C351 1.366 . S
C349 H357 0.930 . S
C350 N348 1.325 1_556 S
C350 C351 1.416 . S
C350 H356 0.929 . S
C351 C349 1.366 . S
C351 C350 1.416 . S
C351 H353 0.930 . S
H352 C341 0.930 . S
H353 C351 0.930 . S
H354 C369 0.930 . S
H355 C376 0.930 . S
H356 C350 0.929 . S
H357 C349 0.930 . S
H358 C372 0.929 . S
H359 C339 0.931 . S
H360 C345 0.931 . S
H361 C346 0.931 . S
H362 C367 0.931 . S
H363 C342 0.929 . S
H364 C375 0.930 . S
N365 Eu336 2.600 . S
N365 C366 1.365 . S
N365 C369 1.319 . S
C366 N365 1.365 . S
C366 C368 1.405 . S
C366 C374 1.448 . S
C367 H362 0.931 . S
C367 C369 1.397 . S
C367 C370 1.367 . S
C368 C366 1.405 . S
C368 C370 1.403 . S
C368 C401 1.439 . S
C369 H354 0.930 . S
C369 N365 1.319 . S
C369 C367 1.397 . S
C370 C367 1.367 . S
C370 C368 1.403 . S
C370 H377 0.929 . S
N371 Eu336 2.562 1_554 S
N371 C372 1.325 . S
N371 C374 1.351 1_554 S
C372 H358 0.929 . S
C372 N371 1.325 . S
C372 C376 1.416 . S
C373 C374 1.430 . S
C373 C375 1.404 1_556 S
C373 C402 1.387 . S
C374 C366 1.448 . S
C374 N371 1.351 1_556 S
C374 C373 1.430 . S
C375 H364 0.930 . S
C375 C373 1.404 1_554 S
C375 C376 1.366 . S
C376 H355 0.930 . S
C376 C372 1.416 . S
C376 C375 1.366 . S
H377 C370 0.929 . S
H378 C401 0.931 . S
H379 C402 0.931 . S
O380 Eu336 2.462 1_554 S
O380 C400 1.252 1_554 S
O381 Eu336 2.373 . S
O381 C392 1.249 1_556 S
O382 Eu347 2.335 . S
O382 C392 1.264 . S
O383 Eu336 2.432 . S
O383 C400 1.268 . S
O384 Eu336 2.291 1_554 S
O384 C399 1.255 . S
O385 Eu347 2.372 . S
O385 C399 1.257 . S
O386 Eu347 2.462 . S
O386 C411 1.252 . S
O387 Eu347 2.373 . S
O387 C403 1.249 . S
O388 Eu336 2.335 1_554 S
O388 C403 1.264 . S
O389 Eu347 2.432 . S
O389 C411 1.268 . S
O390 Eu347 2.291 1_556 S
O390 C410 1.255 . S
O391 Eu336 2.372 . S
O391 C410 1.257 . S
C392 O381 1.249 1_554 S
C392 O382 1.264 . S
C393 C396 1.382 . S
C393 C398 1.390 1_556 S
C393 C400 1.506 . S
C394 C395 1.398 1_554 S
C394 C398 1.392 . S
C395 C394 1.398 1_556 S
C395 C397 1.372 . S
C395 H412 0.931 . S
C396 C393 1.382 . S
C396 C397 1.390 . S
C396 H413 0.931 . S
C397 C395 1.372 . S
C397 C396 1.390 . S
C397 H414 0.929 . S
C398 C393 1.390 1_554 S
C398 C394 1.392 . S
C398 H415 0.930 . S
C399 O384 1.255 . S
C399 O385 1.257 . S
C400 Eu336 2.787 . S
C400 O380 1.252 1_556 S
C400 O383 1.268 . S
C400 C393 1.506 . S
C401 C368 1.439 . S
C401 H378 0.931 . S
C401 C402 1.374 . S
C402 C373 1.387 . S
C402 H379 0.931 . S
C402 C401 1.374 . S
C403 O387 1.249 . S
C403 O388 1.264 . S
C404 C407 1.382 . S
C404 C408 1.390 1_554 S
C404 C411 1.506 . S
C405 C406 1.398 1_556 S
C405 C408 1.392 . S
C406 C405 1.398 1_554 S
C406 C409 1.372 . S
C406 H416 0.931 . S
C407 C404 1.382 . S
C407 C409 1.390 . S
C407 H417 0.931 . S
C408 C404 1.390 1_556 S
C408 C405 1.392 . S
C408 H418 0.930 . S
C409 C406 1.372 . S
C409 C407 1.390 . S
C409 H419 0.929 . S
C410 O390 1.255 . S
C410 O391 1.257 . S
C411 Eu347 2.787 . S
C411 O386 1.252 . S
C411 O389 1.268 . S
C411 C404 1.506 . S
H412 C395 0.931 . S
H413 C396 0.931 . S
H414 C397 0.929 . S
H415 C398 0.930 . S
H416 C406 0.931 . S
H417 C407 0.931 . S
H418 C408 0.930 . S
H419 C409 0.929 . S
Eu420 N449 2.600 1_554 S
Eu420 N455 2.562 . S
Eu420 O464 2.462 . S
Eu420 O465 2.373 . S
Eu420 O467 2.432 1_554 S
Eu420 O468 2.291 . S
Eu420 O472 2.335 . S
Eu420 O475 2.372 1_554 S
Eu420 C484 2.787 . S
C421 N422 1.365 . S
C421 C424 1.405 . S
C421 C428 1.448 . S
N422 C421 1.365 . S
N422 C425 1.319 . S
N422 Eu431 2.600 . S
C423 C425 1.397 . S
C423 C426 1.367 . S
C423 H443 0.931 . S
C424 C421 1.405 . S
C424 C426 1.403 . S
C424 C430 1.439 . S
C425 N422 1.319 . S
C425 C423 1.397 . S
C425 H436 0.930 . S
C426 C423 1.367 . S
C426 C424 1.403 . S
C426 H447 0.929 . S
C427 C428 1.430 1_556 S
C427 C429 1.387 1_556 S
C427 C433 1.404 . S
C428 C421 1.448 . S
C428 C427 1.430 1_554 S
C428 N432 1.351 1_554 S
C429 C427 1.387 1_554 S
C429 C430 1.374 . S
C429 H444 0.931 . S
C430 C424 1.439 . S
C430 C429 1.374 . S
C430 H445 0.931 . S
Eu431 N422 2.600 . S
Eu431 N432 2.562 1_554 S
Eu431 O466 2.335 . S
Eu431 O469 2.372 . S
Eu431 O470 2.462 1_554 S
Eu431 O471 2.373 . S
Eu431 O473 2.432 . S
Eu431 O474 2.291 1_554 S
Eu431 C495 2.787 . S
N432 C428 1.351 1_556 S
N432 Eu431 2.562 1_556 S
N432 C434 1.325 . S
C433 C427 1.404 . S
C433 C435 1.366 . S
C433 H441 0.930 . S
C434 N432 1.325 . S
C434 C435 1.416 . S
C434 H440 0.929 . S
C435 C433 1.366 . S
C435 C434 1.416 . S
C435 H437 0.930 . S
H436 C425 0.930 . S
H437 C435 0.930 . S
H438 C453 0.930 . S
H439 C460 0.930 . S
H440 C434 0.929 . S
H441 C433 0.930 . S
H442 C456 0.929 . S
H443 C423 0.931 . S
H444 C429 0.931 . S
H445 C430 0.931 . S
H446 C451 0.931 . S
H447 C426 0.929 . S
H448 C459 0.930 . S
N449 Eu420 2.600 1_556 S
N449 C450 1.365 . S
N449 C453 1.319 . S
C450 N449 1.365 . S
C450 C452 1.405 . S
C450 C458 1.448 1_556 S
C451 H446 0.931 . S
C451 C453 1.397 . S
C451 C454 1.367 . S
C452 C450 1.405 . S
C452 C454 1.403 . S
C452 C485 1.439 . S
C453 H438 0.930 . S
C453 N449 1.319 . S
C453 C451 1.397 . S
C454 C451 1.367 . S
C454 C452 1.403 . S
C454 H461 0.929 . S
N455 Eu420 2.562 . S
N455 C456 1.325 . S
N455 C458 1.351 . S
C456 H442 0.929 . S
C456 N455 1.325 . S
C456 C460 1.416 . S
C457 C458 1.430 . S
C457 C459 1.404 . S
C457 C486 1.387 . S
C458 C450 1.448 1_554 S
C458 N455 1.351 . S
C458 C457 1.430 . S
C459 H448 0.930 . S
C459 C457 1.404 . S
C459 C460 1.366 . S
C460 H439 0.930 . S
C460 C456 1.416 . S
C460 C459 1.366 . S
H461 C454 0.929 . S
H462 C485 0.931 . S
H463 C486 0.931 . S
O464 Eu420 2.462 . S
O464 C484 1.252 . S
O465 Eu420 2.373 . S
O465 C476 1.249 . S
O466 Eu431 2.335 . S
O466 C476 1.264 . S
O467 Eu420 2.432 1_556 S
O467 C484 1.268 1_556 S
O468 Eu420 2.291 . S
O468 C483 1.255 . S
O469 Eu431 2.372 . S
O469 C483 1.257 . S
O470 Eu431 2.462 1_556 S
O470 C495 1.252 1_556 S
O471 Eu431 2.373 . S
O471 C487 1.249 . S
O472 Eu420 2.335 . S
O472 C487 1.264 . S
O473 Eu431 2.432 . S
O473 C495 1.268 . S
O474 Eu431 2.291 1_556 S
O474 C494 1.255 . S
O475 Eu420 2.372 1_556 S
O475 C494 1.257 . S
C476 O465 1.249 . S
C476 O466 1.264 . S
C477 C480 1.382 1_554 S
C477 C482 1.390 . S
C477 C484 1.506 . S
C478 C479 1.398 . S
C478 C482 1.392 . S
C479 C478 1.398 . S
C479 C481 1.372 . S
C479 H496 0.931 . S
C480 C477 1.382 1_556 S
C480 C481 1.390 1_556 S
C480 H497 0.931 . S
C481 C479 1.372 . S
C481 C480 1.390 1_554 S
C481 H498 0.929 1_554 S
C482 C477 1.390 . S
C482 C478 1.392 . S
C482 H499 0.930 . S
C483 O468 1.255 . S
C483 O469 1.257 . S
C484 Eu420 2.787 . S
C484 O464 1.252 . S
C484 O467 1.268 1_554 S
C484 C477 1.506 . S
C485 C452 1.439 . S
C485 H462 0.931 . S
C485 C486 1.374 1_556 S
C486 C457 1.387 . S
C486 H463 0.931 . S
C486 C485 1.374 1_554 S
C487 O471 1.249 . S
C487 O472 1.264 . S
C488 C491 1.382 1_556 S
C488 C492 1.390 . S
C488 C495 1.506 1_556 S
C489 C490 1.398 . S
C489 C492 1.392 . S
C490 C489 1.398 . S
C490 C493 1.372 1_556 S
C490 H500 0.931 . S
C491 C488 1.382 1_554 S
C491 C493 1.390 . S
C491 H501 0.931 . S
C492 C488 1.390 . S
C492 C489 1.392 . S
C492 H502 0.930 . S
C493 C490 1.372 1_554 S
C493 C491 1.390 . S
C493 H503 0.929 . S
C494 O474 1.255 . S
C494 O475 1.257 . S
C495 Eu431 2.787 . S
C495 O470 1.252 1_554 S
C495 O473 1.268 . S
C495 C488 1.506 1_554 S
H496 C479 0.931 . S
H497 C480 0.931 . S
H498 C481 0.929 1_556 S
H499 C482 0.930 . S
H500 C490 0.931 . S
H501 C491 0.931 . S
H502 C492 0.930 . S
H503 C493 0.929 . S
Eu504 N533 2.600 . S
Eu504 N539 2.562 . S
Eu504 O548 2.462 . S
Eu504 O549 2.373 . S
Eu504 O551 2.432 . S
Eu504 O552 2.291 . S
Eu504 O556 2.335 . S
Eu504 O559 2.372 . S
Eu504 C568 2.787 . S
C505 N506 1.365 . S
C505 C508 1.405 . S
C505 C512 1.448 . S
N506 C505 1.365 . S
N506 C509 1.319 . S
N506 Eu515 2.600 . S
C507 C509 1.397 . S
C507 C510 1.367 . S
C507 H527 0.931 . S
C508 C505 1.405 . S
C508 C510 1.403 . S
C508 C514 1.439 . S
C509 N506 1.319 . S
C509 C507 1.397 . S
C509 H520 0.930 . S
C510 C507 1.367 . S
C510 C508 1.403 . S
C510 H531 0.929 . S
C511 C512 1.430 . S
C511 C513 1.387 . S
C511 C517 1.404 . S
C512 C505 1.448 . S
C512 C511 1.430 . S
C512 N516 1.351 . S
C513 C511 1.387 . S
C513 C514 1.374 . S
C513 H528 0.931 . S
C514 C508 1.439 . S
C514 C513 1.374 . S
C514 H529 0.931 . S
Eu515 N506 2.600 . S
Eu515 N516 2.562 . S
Eu515 O550 2.335 . S
Eu515 O553 2.372 . S
Eu515 O554 2.462 . S
Eu515 O555 2.373 . S
Eu515 O557 2.432 . S
Eu515 O558 2.291 . S
Eu515 C579 2.787 . S
N516 C512 1.351 . S
N516 Eu515 2.562 . S
N516 C518 1.325 . S
C517 C511 1.404 . S
C517 C519 1.366 . S
C517 H525 0.930 . S
C518 N516 1.325 . S
C518 C519 1.416 . S
C518 H524 0.929 . S
C519 C517 1.366 . S
C519 C518 1.416 . S
C519 H521 0.930 . S
H520 C509 0.930 . S
H521 C519 0.930 . S
H522 C537 0.930 . S
H523 C544 0.930 . S
H524 C518 0.929 . S
H525 C517 0.930 . S
H526 C540 0.929 . S
H527 C507 0.931 . S
H528 C513 0.931 . S
H529 C514 0.931 . S
H530 C535 0.931 . S
H531 C510 0.929 . S
H532 C543 0.930 . S
N533 Eu504 2.600 . S
N533 C534 1.365 . S
N533 C537 1.319 . S
C534 N533 1.365 . S
C534 C536 1.405 . S
C534 C542 1.448 . S
C535 H530 0.931 . S
C535 C537 1.397 . S
C535 C538 1.367 . S
C536 C534 1.405 . S
C536 C538 1.403 . S
C536 C569 1.439 . S
C537 H522 0.930 . S
C537 N533 1.319 . S
C537 C535 1.397 . S
C538 C535 1.367 . S
C538 C536 1.403 . S
C538 H545 0.929 . S
N539 Eu504 2.562 . S
N539 C540 1.325 . S
N539 C542 1.351 . S
C540 H526 0.929 . S
C540 N539 1.325 . S
C540 C544 1.416 . S
C541 C542 1.430 . S
C541 C543 1.404 . S
C541 C570 1.387 . S
C542 C534 1.448 . S
C542 N539 1.351 . S
C542 C541 1.430 . S
C543 H532 0.930 . S
C543 C541 1.404 . S
C543 C544 1.366 . S
C544 H523 0.930 . S
C544 C540 1.416 . S
C544 C543 1.366 . S
H545 C538 0.929 . S
H546 C569 0.931 . S
H547 C570 0.931 . S
O548 Eu504 2.462 . S
O548 C568 1.252 . S
O549 Eu504 2.373 . S
O549 C560 1.249 . S
O550 Eu515 2.335 . S
O550 C560 1.264 . S
O551 Eu504 2.432 . S
O551 C568 1.268 . S
O552 Eu504 2.291 . S
O552 C567 1.255 . S
O553 Eu515 2.372 . S
O553 C567 1.257 . S
O554 Eu515 2.462 . S
O554 C579 1.252 . S
O555 Eu515 2.373 . S
O555 C571 1.249 . S
O556 Eu504 2.335 . S
O556 C571 1.264 . S
O557 Eu515 2.432 . S
O557 C579 1.268 . S
O558 Eu515 2.291 . S
O558 C578 1.255 . S
O559 Eu504 2.372 . S
O559 C578 1.257 . S
C560 O549 1.249 . S
C560 O550 1.264 . S
C561 C564 1.382 . S
C561 C566 1.390 . S
C561 C568 1.506 . S
C562 C563 1.398 . S
C562 C566 1.392 . S
C563 C562 1.398 . S
C563 C565 1.372 . S
C563 H580 0.931 . S
C564 C561 1.382 . S
C564 C565 1.390 . S
C564 H581 0.931 . S
C565 C563 1.372 . S
C565 C564 1.390 . S
C565 H582 0.929 . S
C566 C561 1.390 . S
C566 C562 1.392 . S
C566 H583 0.930 . S
C567 O552 1.255 . S
C567 O553 1.257 . S
C568 Eu504 2.787 . S
C568 O548 1.252 . S
C568 O551 1.268 . S
C568 C561 1.506 . S
C569 C536 1.439 . S
C569 H546 0.931 . S
C569 C570 1.374 . S
C570 C541 1.387 . S
C570 H547 0.931 . S
C570 C569 1.374 . S
C571 O555 1.249 . S
C571 O556 1.264 . S
C572 C575 1.382 . S
C572 C576 1.390 . S
C572 C579 1.506 . S
C573 C574 1.398 . S
C573 C576 1.392 . S
C574 C573 1.398 . S
C574 C577 1.372 . S
C574 H584 0.931 . S
C575 C572 1.382 . S
C575 C577 1.390 . S
C575 H585 0.931 . S
C576 C572 1.390 . S
C576 C573 1.392 . S
C576 H586 0.930 . S
C577 C574 1.372 . S
C577 C575 1.390 . S
C577 H587 0.929 . S
C578 O558 1.255 . S
C578 O559 1.257 . S
C579 Eu515 2.787 . S
C579 O554 1.252 . S
C579 O557 1.268 . S
C579 C572 1.506 . S
H580 C563 0.931 . S
H581 C564 0.931 . S
H582 C565 0.929 . S
H583 C566 0.930 . S
H584 C574 0.931 . S
H585 C575 0.931 . S
H586 C576 0.930 . S
H587 C577 0.929 . S
Eu588 N617 2.600 . S
Eu588 N623 2.562 . S
Eu588 O632 2.462 . S
Eu588 O633 2.373 . S
Eu588 O635 2.432 . S
Eu588 O636 2.291 . S
Eu588 O640 2.335 . S
Eu588 O643 2.372 . S
Eu588 C652 2.787 . S
C589 N590 1.365 . S
C589 C592 1.405 . S
C589 C596 1.448 . S
N590 C589 1.365 . S
N590 C593 1.319 . S
N590 Eu599 2.600 . S
C591 C593 1.397 . S
C591 C594 1.367 . S
C591 H611 0.931 . S
C592 C589 1.405 . S
C592 C594 1.403 . S
C592 C598 1.439 . S
C593 N590 1.319 . S
C593 C591 1.397 . S
C593 H604 0.930 . S
C594 C591 1.367 . S
C594 C592 1.403 . S
C594 H615 0.929 . S
C595 C596 1.430 . S
C595 C597 1.387 . S
C595 C601 1.404 . S
C596 C589 1.448 . S
C596 C595 1.430 . S
C596 N600 1.351 . S
C597 C595 1.387 . S
C597 C598 1.374 . S
C597 H612 0.931 . S
C598 C592 1.439 . S
C598 C597 1.374 . S
C598 H613 0.931 . S
Eu599 N590 2.600 . S
Eu599 N600 2.562 . S
Eu599 O634 2.335 . S
Eu599 O637 2.372 . S
Eu599 O638 2.462 . S
Eu599 O639 2.373 . S
Eu599 O641 2.432 . S
Eu599 O642 2.291 . S
Eu599 C663 2.787 . S
N600 C596 1.351 . S
N600 Eu599 2.562 . S
N600 C602 1.325 . S
C601 C595 1.404 . S
C601 C603 1.366 . S
C601 H609 0.930 . S
C602 N600 1.325 . S
C602 C603 1.416 . S
C602 H608 0.929 . S
C603 C601 1.366 . S
C603 C602 1.416 . S
C603 H605 0.930 . S
H604 C593 0.930 . S
H605 C603 0.930 . S
H606 C621 0.930 . S
H607 C628 0.930 . S
H608 C602 0.929 . S
H609 C601 0.930 . S
H610 C624 0.929 . S
H611 C591 0.931 . S
H612 C597 0.931 . S
H613 C598 0.931 . S
H614 C619 0.931 . S
H615 C594 0.929 . S
H616 C627 0.930 . S
N617 Eu588 2.600 . S
N617 C618 1.365 . S
N617 C621 1.319 . S
C618 N617 1.365 . S
C618 C620 1.405 . S
C618 C626 1.448 . S
C619 H614 0.931 . S
C619 C621 1.397 . S
C619 C622 1.367 . S
C620 C618 1.405 . S
C620 C622 1.403 . S
C620 C653 1.439 . S
C621 H606 0.930 . S
C621 N617 1.319 . S
C621 C619 1.397 . S
C622 C619 1.367 . S
C622 C620 1.403 . S
C622 H629 0.929 . S
N623 Eu588 2.562 . S
N623 C624 1.325 . S
N623 C626 1.351 . S
C624 H610 0.929 . S
C624 N623 1.325 . S
C624 C628 1.416 . S
C625 C626 1.430 . S
C625 C627 1.404 . S
C625 C654 1.387 . S
C626 C618 1.448 . S
C626 N623 1.351 . S
C626 C625 1.430 . S
C627 H616 0.930 . S
C627 C625 1.404 . S
C627 C628 1.366 . S
C628 H607 0.930 . S
C628 C624 1.416 . S
C628 C627 1.366 . S
H629 C622 0.929 . S
H630 C653 0.931 . S
H631 C654 0.931 . S
O632 Eu588 2.462 . S
O632 C652 1.252 . S
O633 Eu588 2.373 . S
O633 C644 1.249 . S
O634 Eu599 2.335 . S
O634 C644 1.264 . S
O635 Eu588 2.432 . S
O635 C652 1.268 . S
O636 Eu588 2.291 . S
O636 C651 1.255 . S
O637 Eu599 2.372 . S
O637 C651 1.257 . S
O638 Eu599 2.462 . S
O638 C663 1.252 . S
O639 Eu599 2.373 . S
O639 C655 1.249 . S
O640 Eu588 2.335 . S
O640 C655 1.264 . S
O641 Eu599 2.432 . S
O641 C663 1.268 . S
O642 Eu599 2.291 . S
O642 C662 1.255 . S
O643 Eu588 2.372 . S
O643 C662 1.257 . S
C644 O633 1.249 . S
C644 O634 1.264 . S
C645 C648 1.382 . S
C645 C650 1.390 . S
C645 C652 1.506 . S
C646 C647 1.398 . S
C646 C650 1.392 . S
C647 C646 1.398 . S
C647 C649 1.372 . S
C647 H664 0.931 . S
C648 C645 1.382 . S
C648 C649 1.390 . S
C648 H665 0.931 . S
C649 C647 1.372 . S
C649 C648 1.390 . S
C649 H666 0.929 . S
C650 C645 1.390 . S
C650 C646 1.392 . S
C650 H667 0.930 . S
C651 O636 1.255 . S
C651 O637 1.257 . S
C652 Eu588 2.787 . S
C652 O632 1.252 . S
C652 O635 1.268 . S
C652 C645 1.506 . S
C653 C620 1.439 . S
C653 H630 0.931 . S
C653 C654 1.374 . S
C654 C625 1.387 . S
C654 H631 0.931 . S
C654 C653 1.374 . S
C655 O639 1.249 . S
C655 O640 1.264 . S
C656 C659 1.382 . S
C656 C660 1.390 . S
C656 C663 1.506 . S
C657 C658 1.398 . S
C657 C660 1.392 . S
C658 C657 1.398 . S
C658 C661 1.372 . S
C658 H668 0.931 . S
C659 C656 1.382 . S
C659 C661 1.390 . S
C659 H669 0.931 . S
C660 C656 1.390 . S
C660 C657 1.392 . S
C660 H670 0.930 . S
C661 C658 1.372 . S
C661 C659 1.390 . S
C661 H671 0.929 . S
C662 O642 1.255 . S
C662 O643 1.257 . S
C663 Eu599 2.787 . S
C663 O638 1.252 . S
C663 O641 1.268 . S
C663 C656 1.506 . S
H664 C647 0.931 . S
H665 C648 0.931 . S
H666 C649 0.929 . S
H667 C650 0.930 . S
H668 C658 0.931 . S
H669 C659 0.931 . S
H670 C660 0.930 . S
H671 C661 0.929 . S
H672 C678 0.930 . S
H673 C682 0.930 . S
H674 C687 0.929 . S
H675 C685 0.929 . S
H676 C680 0.929 . S
H677 C686 0.929 . S
C678 H672 0.930 . S
C678 C679 1.367 1_556 S
C678 C686 1.378 . S
C679 C678 1.367 1_554 S
C679 C687 1.433 . S
C680 H676 0.929 . S
C680 C682 1.378 . S
C680 C684 1.350 . S
C681 C684 1.463 . S
C681 C686 1.350 1_554 S
C681 N689 1.427 . S
C682 H673 0.930 . S
C682 C680 1.378 . S
C682 C683 1.367 . S
C683 C682 1.367 . S
C683 C685 1.433 1_554 S
C684 C680 1.350 . S
C684 C681 1.463 . S
C684 N688 1.427 1_554 S
C685 H675 0.929 . S
C685 C683 1.433 1_556 S
C685 N688 1.384 . S
C686 H677 0.929 . S
C686 C678 1.378 . S
C686 C681 1.350 1_556 S
C687 H674 0.929 . S
C687 C679 1.433 . S
C687 N689 1.384 . S
N688 C684 1.427 1_556 S
N688 C685 1.384 . S
N689 C681 1.427 . S
N689 C687 1.384 . S
H690 C696 0.930 . S
H691 C700 0.930 . S
H692 C705 0.929 . S
H693 C703 0.929 . S
H694 C698 0.929 . S
H695 C704 0.929 . S
C696 H690 0.930 . S
C696 C697 1.367 . S
C696 C704 1.378 . S
C697 C696 1.367 . S
C697 C705 1.433 1_554 S
C698 H694 0.929 . S
C698 C700 1.378 . S
C698 C702 1.350 1_556 S
C699 C702 1.463 . S
C699 C704 1.350 . S
C699 N707 1.427 1_554 S
C700 H691 0.930 . S
C700 C698 1.378 . S
C700 C701 1.367 1_556 S
C701 C700 1.367 1_554 S
C701 C703 1.433 . S
C702 C698 1.350 1_554 S
C702 C699 1.463 . S
C702 N706 1.427 . S
C703 H693 0.929 . S
C703 C701 1.433 . S
C703 N706 1.384 . S
C704 H695 0.929 . S
C704 C696 1.378 . S
C704 C699 1.350 . S
C705 H692 0.929 . S
C705 C697 1.433 1_556 S
C705 N707 1.384 . S
N706 C702 1.427 . S
N706 C703 1.384 . S
N707 C699 1.427 1_556 S
N707 C705 1.384 . S
H708 C714 0.930 . S
H709 C718 0.930 . S
H710 C723 0.929 . S
H711 C721 0.929 . S
H712 C716 0.929 . S
H713 C722 0.929 . S
C714 H708 0.930 . S
C714 C715 1.367 . S
C714 C722 1.378 . S
C715 C714 1.367 . S
C715 C723 1.433 . S
C716 H712 0.929 . S
C716 C718 1.378 . S
C716 C720 1.350 . S
C717 C720 1.463 . S
C717 C722 1.350 . S
C717 N725 1.427 . S
C718 H709 0.930 . S
C718 C716 1.378 . S
C718 C719 1.367 . S
C719 C718 1.367 . S
C719 C721 1.433 . S
C720 C716 1.350 . S
C720 C717 1.463 . S
C720 N724 1.427 . S
C721 H711 0.929 . S
C721 C719 1.433 . S
C721 N724 1.384 . S
C722 H713 0.929 . S
C722 C714 1.378 . S
C722 C717 1.350 . S
C723 H710 0.929 . S
C723 C715 1.433 . S
C723 N725 1.384 . S
N724 C720 1.427 . S
N724 C721 1.384 . S
N725 C717 1.427 . S
N725 C723 1.384 . S
H726 C732 0.930 . S
H727 C736 0.930 . S
H728 C741 0.929 . S
H729 C739 0.929 . S
H730 C734 0.929 . S
H731 C740 0.929 . S
C732 H726 0.930 . S
C732 C733 1.367 . S
C732 C740 1.378 . S
C733 C732 1.367 . S
C733 C741 1.433 . S
C734 H730 0.929 . S
C734 C736 1.378 . S
C734 C738 1.350 . S
C735 C738 1.463 . S
C735 C740 1.350 . S
C735 N743 1.427 . S
C736 H727 0.930 . S
C736 C734 1.378 . S
C736 C737 1.367 . S
C737 C736 1.367 . S
C737 C739 1.433 . S
C738 C734 1.350 . S
C738 C735 1.463 . S
C738 N742 1.427 . S
C739 H729 0.929 . S
C739 C737 1.433 . S
C739 N742 1.384 . S
C740 H731 0.929 . S
C740 C732 1.378 . S
C740 C735 1.350 . S
C741 H728 0.929 . S
C741 C733 1.433 . S
C741 N743 1.384 . S
N742 C738 1.427 . S
N742 C739 1.384 . S
N743 C735 1.427 . S
N743 C741 1.384 . S
H744 C750 0.930 . S
H745 C754 0.930 . S
H746 C759 0.929 . S
H747 C757 0.929 . S
H748 C752 0.929 . S
H749 C758 0.929 1_455 S
C750 H744 0.930 . S
C750 C751 1.367 . S
C750 C758 1.378 . S
C751 C750 1.367 . S
C751 C759 1.433 . S
C752 H748 0.929 . S
C752 C754 1.378 . S
C752 C756 1.350 . S
C753 C756 1.463 . S
C753 C758 1.350 1_455 S
C753 N761 1.427 1_455 S
C754 H745 0.930 . S
C754 C752 1.378 . S
C754 C755 1.367 . S
C755 C754 1.367 . S
C755 C757 1.433 . S
C756 C752 1.350 . S
C756 C753 1.463 . S
C756 N760 1.427 . S
C757 H747 0.929 . S
C757 C755 1.433 . S
C757 N760 1.384 . S
C758 H749 0.929 1_655 S
C758 C750 1.378 . S
C758 C753 1.350 1_655 S
C759 H746 0.929 . S
C759 C751 1.433 . S
C759 N761 1.384 . S
N760 C756 1.427 . S
N760 C757 1.384 . S
N761 C753 1.427 1_655 S
N761 C759 1.384 . S
H762 C768 0.930 . S
H763 C772 0.930 . S
H764 C777 0.929 . S
H765 C775 0.929 . S
H766 C770 0.929 . S
H767 C776 0.929 . S
C768 H762 0.930 . S
C768 C769 1.367 . S
C768 C776 1.378 . S
C769 C768 1.367 . S
C769 C777 1.433 1_554 S
C770 H766 0.929 . S
C770 C772 1.378 . S
C770 C774 1.350 1_556 S
C771 C774 1.463 . S
C771 C776 1.350 1_655 S
C771 N779 1.427 1_654 S
C772 H763 0.930 . S
C772 C770 1.378 . S
C772 C773 1.367 1_556 S
C773 C772 1.367 1_554 S
C773 C775 1.433 . S
C774 C770 1.350 1_554 S
C774 C771 1.463 . S
C774 N778 1.427 . S
C775 H765 0.929 . S
C775 C773 1.433 . S
C775 N778 1.384 . S
C776 H767 0.929 . S
C776 C768 1.378 . S
C776 C771 1.350 1_455 S
C777 H764 0.929 . S
C777 C769 1.433 1_556 S
C777 N779 1.384 . S
N778 C774 1.427 . S
N778 C775 1.384 . S
N779 C771 1.427 1_456 S
N779 C777 1.384 . S
H780 C786 0.930 . S
H781 C790 0.930 . S
H782 C795 0.929 . S
H783 C793 0.929 . S
H784 C788 0.929 . S
H785 C794 0.929 . S
C786 H780 0.930 . S
C786 C787 1.367 . S
C786 C794 1.378 . S
C787 C786 1.367 . S
C787 C795 1.433 . S
C788 H784 0.929 . S
C788 C790 1.378 . S
C788 C792 1.350 1_655 S
C789 C792 1.463 . S
C789 C794 1.350 . S
C789 N797 1.427 . S
C790 H781 0.930 . S
C790 C788 1.378 . S
C790 C791 1.367 . S
C791 C790 1.367 . S
C791 C793 1.433 . S
C792 C788 1.350 1_455 S
C792 C789 1.463 . S
C792 N796 1.427 1_455 S
C793 H783 0.929 . S
C793 C791 1.433 . S
C793 N796 1.384 . S
C794 H785 0.929 . S
C794 C786 1.378 . S
C794 C789 1.350 . S
C795 H782 0.929 . S
C795 C787 1.433 . S
C795 N797 1.384 . S
N796 C792 1.427 1_655 S
N796 C793 1.384 . S
N797 C789 1.427 . S
N797 C795 1.384 . S
H798 C804 0.930 . S
H799 C808 0.930 . S
H800 C813 0.929 . S
H801 C811 0.929 . S
H802 C806 0.929 1_655 S
H803 C812 0.929 . S
C804 H798 0.930 . S
C804 C805 1.367 . S
C804 C812 1.378 . S
C805 C804 1.367 . S
C805 C813 1.433 . S
C806 H802 0.929 1_455 S
C806 C808 1.378 . S
C806 C810 1.350 1_455 S
C807 C810 1.463 . S
C807 C812 1.350 . S
C807 N815 1.427 . S
C808 H799 0.930 . S
C808 C806 1.378 . S
C808 C809 1.367 . S
C809 C808 1.367 . S
C809 C811 1.433 . S
C810 C806 1.350 1_655 S
C810 C807 1.463 . S
C810 N814 1.427 1_655 S
C811 H801 0.929 . S
C811 C809 1.433 . S
C811 N814 1.384 . S
C812 H803 0.929 . S
C812 C804 1.378 . S
C812 C807 1.350 . S
C813 H800 0.929 . S
C813 C805 1.433 . S
C813 N815 1.384 . S
N814 C810 1.427 1_455 S
N814 C811 1.384 . S
N815 C807 1.427 . S
N815 C813 1.384 . S
H816 C822 0.930 . S
H817 C826 0.930 . S
H818 C831 0.929 . S
H819 C829 0.929 . S
H820 C824 0.929 . S
H821 C830 0.929 . S
C822 H816 0.930 . S
C822 C823 1.367 . S
C822 C830 1.378 . S
C823 C822 1.367 . S
C823 C831 1.433 1_455 S
C824 H820 0.929 . S
C824 C826 1.378 . S
C824 C828 1.350 . S
C825 C828 1.463 1_455 S
C825 C830 1.350 . S
C825 N833 1.427 1_455 S
C826 H817 0.930 . S
C826 C824 1.378 . S
C826 C827 1.367 . S
C827 C826 1.367 . S
C827 C829 1.433 1_655 S
C828 C824 1.350 . S
C828 C825 1.463 1_655 S
C828 N832 1.427 1_655 S
C829 H819 0.929 . S
C829 C827 1.433 1_455 S
C829 N832 1.384 . S
C830 H821 0.929 . S
C830 C822 1.378 . S
C830 C825 1.350 . S
C831 H818 0.929 . S
C831 C823 1.433 1_655 S
C831 N833 1.384 . S
N832 C828 1.427 1_455 S
N832 C829 1.384 . S
N833 C825 1.427 1_655 S
N833 C831 1.384 . S
H834 C840 0.930 1_655 S
H835 C844 0.930 1_455 S
H836 C849 0.929 . S
H837 C847 0.929 . S
H838 C842 0.929 . S
H839 C848 0.929 . S
C840 H834 0.930 1_455 S
C840 C841 1.367 . S
C840 C848 1.378 1_455 S
C841 C840 1.367 . S
C841 C849 1.433 . S
C842 H838 0.929 . S
C842 C844 1.378 1_455 S
C842 C846 1.350 1_455 S
C843 C846 1.463 1_455 S
C843 C848 1.350 1_455 S
C843 N851 1.427 . S
C844 H835 0.930 1_655 S
C844 C842 1.378 1_655 S
C844 C845 1.367 . S
C845 C844 1.367 . S
C845 C847 1.433 . S
C846 C842 1.350 1_655 S
C846 C843 1.463 1_655 S
C846 N850 1.427 . S
C847 H837 0.929 . S
C847 C845 1.433 . S
C847 N850 1.384 . S
C848 H839 0.929 . S
C848 C840 1.378 1_655 S
C848 C843 1.350 1_655 S
C849 H836 0.929 . S
C849 C841 1.433 . S
C849 N851 1.384 . S
N850 C846 1.427 . S
N850 C847 1.384 . S
N851 C843 1.427 . S
N851 C849 1.384 . S
H852 C858 0.930 . S
H853 C862 0.930 . S
H854 C867 0.925 1_554 S
H855 C865 0.929 . S
H856 C860 0.929 1_554 S
H857 C866 0.929 . S
C858 H852 0.930 . S
C858 C859 1.367 . S
C858 C866 1.378 . S
C859 C858 1.367 . S
C859 C867 1.436 . S
C860 H856 0.929 1_556 S
C860 C862 1.378 . S
C860 C864 1.350 . S
C861 C864 1.463 1_565 S
C861 C866 1.350 . S
C861 N869 1.427 . S
C862 H853 0.930 . S
C862 C860 1.378 . S
C862 C863 1.367 . S
C863 C862 1.367 . S
C863 C865 1.433 . S
C864 C860 1.350 . S
C864 C861 1.463 1_545 S
C864 N868 1.427 . S
C865 H855 0.929 . S
C865 C863 1.433 . S
C865 N868 1.384 . S
C866 H857 0.929 . S
C866 C858 1.378 . S
C866 C861 1.350 . S
C867 H854 0.925 1_556 S
C867 C859 1.436 . S
C867 N869 1.386 . S
N868 C864 1.427 . S
N868 C865 1.384 . S
N869 C861 1.427 . S
N869 C867 1.386 . S
H870 C876 0.930 . S
H871 C880 0.930 . S
H872 C885 0.929 . S
H873 C883 0.929 . S
H874 C878 0.929 . S
H875 C884 0.929 . S
C876 H870 0.930 . S
C876 C877 1.367 . S
C876 C884 1.378 . S
C877 C876 1.367 . S
C877 C885 1.433 . S
C878 H874 0.929 . S
C878 C880 1.378 . S
C878 C882 1.350 . S
C879 C882 1.463 1_545 S
C879 C884 1.350 . S
C879 N887 1.427 . S
C880 H871 0.930 . S
C880 C878 1.378 . S
C880 C881 1.367 . S
C881 C880 1.367 . S
C881 C883 1.433 . S
C882 C878 1.350 . S
C882 C879 1.463 1_565 S
C882 N886 1.427 . S
C883 H873 0.929 . S
C883 C881 1.433 . S
C883 N886 1.384 . S
C884 H875 0.929 . S
C884 C876 1.378 . S
C884 C879 1.350 . S
C885 H872 0.929 . S
C885 C877 1.433 . S
C885 N887 1.384 . S
N886 C882 1.427 . S
N886 C883 1.384 . S
N887 C879 1.427 . S
N887 C885 1.384 . S
H888 C894 0.930 . S
H889 C898 0.930 . S
H890 C903 0.929 . S
H891 C901 0.929 . S
H892 C896 0.929 . S
H893 C902 0.929 . S
C894 H888 0.930 . S
C894 C895 1.367 . S
C894 C902 1.378 . S
C895 C894 1.367 . S
C895 C903 1.433 . S
C896 H892 0.929 . S
C896 C898 1.378 . S
C896 C900 1.350 . S
C897 C900 1.463 . S
C897 C902 1.350 . S
C897 N905 1.427 . S
C898 H889 0.930 . S
C898 C896 1.378 . S
C898 C899 1.367 . S
C899 C898 1.367 . S
C899 C901 1.433 . S
C900 C896 1.350 . S
C900 C897 1.463 . S
C900 N904 1.427 . S
C901 H891 0.929 . S
C901 C899 1.433 . S
C901 N904 1.384 . S
C902 H893 0.929 . S
C902 C894 1.378 . S
C902 C897 1.350 . S
C903 H890 0.929 . S
C903 C895 1.433 . S
C903 N905 1.384 . S
N904 C900 1.427 . S
N904 C901 1.384 . S
N905 C897 1.427 . S
N905 C903 1.384 . S
H906 C912 0.930 . S
H907 C916 0.930 . S
H908 C921 0.929 . S
H909 C919 0.929 . S
H910 C914 0.929 . S
H911 C920 0.929 . S
C912 H906 0.930 . S
C912 C913 1.367 . S
C912 C920 1.378 . S
C913 C912 1.367 . S
C913 C921 1.433 . S
C914 H910 0.929 . S
C914 C916 1.378 . S
C914 C918 1.350 . S
C915 C918 1.463 . S
C915 C920 1.350 . S
C915 N923 1.427 . S
C916 H907 0.930 . S
C916 C914 1.378 . S
C916 C917 1.367 . S
C917 C916 1.367 . S
C917 C919 1.433 . S
C918 C914 1.350 . S
C918 C915 1.463 . S
C918 N922 1.427 . S
C919 H909 0.929 . S
C919 C917 1.433 . S
C919 N922 1.384 . S
C920 H911 0.929 . S
C920 C912 1.378 . S
C920 C915 1.350 . S
C921 H908 0.929 . S
C921 C913 1.433 . S
C921 N923 1.384 . S
N922 C918 1.427 . S
N922 C919 1.384 . S
N923 C915 1.427 . S
N923 C921 1.384 . S
H924 C930 0.930 . S
H925 C934 0.930 . S
H926 C939 0.929 . S
H927 C937 0.929 . S
H928 C932 0.929 . S
H929 C938 0.929 . S
C930 H924 0.930 . S
C930 C931 1.367 . S
C930 C938 1.378 . S
C931 C930 1.367 . S
C931 C939 1.433 . S
C932 H928 0.929 . S
C932 C934 1.378 . S
C932 C936 1.350 . S
C933 C936 1.463 . S
C933 C938 1.350 . S
C933 N941 1.427 . S
C934 H925 0.930 . S
C934 C932 1.378 . S
C934 C935 1.367 . S
C935 C934 1.367 . S
C935 C937 1.433 . S
C936 C932 1.350 . S
C936 C933 1.463 . S
C936 N940 1.427 . S
C937 H927 0.929 . S
C937 C935 1.433 . S
C937 N940 1.384 . S
C938 H929 0.929 . S
C938 C930 1.378 . S
C938 C933 1.350 . S
C939 H926 0.929 . S
C939 C931 1.433 . S
C939 N941 1.384 . S
N940 C936 1.427 . S
N940 C937 1.384 . S
N941 C933 1.427 . S
N941 C939 1.384 . S
H942 C948 0.930 . S
H943 C952 0.930 . S
H944 C957 0.929 . S
H945 C955 0.929 . S
H946 C950 0.929 . S
H947 C956 0.929 . S
C948 H942 0.930 . S
C948 C949 1.367 . S
C948 C956 1.378 . S
C949 C948 1.367 . S
C949 C957 1.433 . S
C950 H946 0.929 . S
C950 C952 1.378 . S
C950 C954 1.350 . S
C951 C954 1.463 . S
C951 C956 1.350 . S
C951 N959 1.427 . S
C952 H943 0.930 . S
C952 C950 1.378 . S
C952 C953 1.367 . S
C953 C952 1.367 . S
C953 C955 1.433 . S
C954 C950 1.350 . S
C954 C951 1.463 . S
C954 N958 1.427 . S
C955 H945 0.929 . S
C955 C953 1.433 . S
C955 N958 1.384 . S
C956 H947 0.929 . S
C956 C948 1.378 . S
C956 C951 1.350 . S
C957 H944 0.929 . S
C957 C949 1.433 . S
C957 N959 1.384 . S
N958 C954 1.427 . S
N958 C955 1.384 . S
N959 C951 1.427 . S
N959 C957 1.384 . S
H960 C966 0.930 . S
H961 C970 0.930 . S
H962 C975 0.929 . S
H963 C973 0.929 . S
H964 C968 0.929 . S
H965 C974 0.929 . S
C966 H960 0.930 . S
C966 C967 1.367 . S
C966 C974 1.378 . S
C967 C966 1.367 . S
C967 C975 1.433 1_455 S
C968 H964 0.929 . S
C968 C970 1.378 . S
C968 C972 1.350 . S
C969 C972 1.463 1_455 S
C969 C974 1.350 . S
C969 N977 1.427 1_455 S
C970 H961 0.930 . S
C970 C968 1.378 . S
C970 C971 1.367 . S
C971 C970 1.367 . S
C971 C973 1.433 1_655 S
C972 C968 1.350 . S
C972 C969 1.463 1_655 S
C972 N976 1.427 1_655 S
C973 H963 0.929 . S
C973 C971 1.433 1_455 S
C973 N976 1.384 . S
C974 H965 0.929 . S
C974 C966 1.378 . S
C974 C969 1.350 . S
C975 H962 0.929 . S
C975 C967 1.433 1_655 S
C975 N977 1.384 . S
N976 C972 1.427 1_455 S
N976 C973 1.384 . S
N977 C969 1.427 1_655 S
N977 C975 1.384 . S
H978 C984 0.930 1_455 S
H979 C988 0.930 . S
H980 C993 0.929 . S
H981 C991 0.929 . S
H982 C986 0.929 . S
H983 C992 0.929 . S
C984 H978 0.930 1_655 S
C984 C985 1.367 . S
C984 C992 1.378 1_655 S
C985 C984 1.367 . S
C985 C993 1.433 . S
C986 H982 0.929 . S
C986 C988 1.378 . S
C986 C990 1.350 1_655 S
C987 C990 1.463 1_655 S
C987 C992 1.350 1_655 S
C987 N995 1.427 . S
C988 H979 0.930 . S
C988 C986 1.378 . S
C988 C989 1.367 1_655 S
C989 C988 1.367 1_455 S
C989 C991 1.433 . S
C990 C986 1.350 1_455 S
C990 C987 1.463 1_455 S
C990 N994 1.427 . S
C991 H981 0.929 . S
C991 C989 1.433 . S
C991 N994 1.384 . S
C992 H983 0.929 . S
C992 C984 1.378 1_455 S
C992 C987 1.350 1_455 S
C993 H980 0.929 . S
C993 C985 1.433 . S
C993 N995 1.384 . S
N994 C990 1.427 . S
N994 C991 1.384 . S
N995 C987 1.427 . S
N995 C993 1.384 . S
H996 C1002 0.930 . S
H997 C1006 0.930 . S
H998 C1011 0.929 . S
H999 C1009 0.929 1_655 S
H1000 C1004 0.929 . S
H1001 C1010 0.929 . S
C1002 H996 0.930 . S
C1002 C1003 1.367 . S
C1002 C1010 1.378 . S
C1003 C1002 1.367 . S
C1003 C1011 1.433 1_655 S
C1004 H1000 0.929 . S
C1004 C1006 1.378 . S
C1004 C1008 1.350 . S
C1005 C1008 1.463 1_655 S
C1005 C1010 1.350 . S
C1005 N1013 1.427 1_655 S
C1006 H997 0.930 . S
C1006 C1004 1.378 . S
C1006 C1007 1.367 . S
C1007 C1006 1.367 . S
C1007 C1009 1.433 . S
C1008 C1004 1.350 . S
C1008 C1005 1.463 1_455 S
C1008 N1012 1.427 1_455 S
C1009 H999 0.929 1_455 S
C1009 C1007 1.433 . S
C1009 N1012 1.384 1_455 S
C1010 H1001 0.929 . S
C1010 C1002 1.378 . S
C1010 C1005 1.350 . S
C1011 H998 0.929 . S
C1011 C1003 1.433 1_455 S
C1011 N1013 1.384 . S
N1012 C1008 1.427 1_655 S
N1012 C1009 1.384 1_655 S
N1013 C1005 1.427 1_455 S
N1013 C1011 1.384 . S
H1014 C1020 0.930 . S
H1015 C1024 0.930 . S
H1016 C1029 0.929 . S
H1017 C1027 0.929 . S
H1018 C1022 0.929 . S
H1019 C1028 0.929 . S
C1020 H1014 0.930 . S
C1020 C1021 1.367 1_455 S
C1020 C1028 1.378 . S
C1021 C1020 1.367 1_655 S
C1021 C1029 1.433 . S
C1022 H1018 0.929 . S
C1022 C1024 1.378 . S
C1022 C1026 1.350 1_655 S
C1023 C1026 1.463 1_655 S
C1023 C1028 1.350 1_655 S
C1023 N1031 1.427 . S
C1024 H1015 0.930 . S
C1024 C1022 1.378 . S
C1024 C1025 1.367 1_655 S
C1025 C1024 1.367 1_455 S
C1025 C1027 1.433 . S
C1026 C1022 1.350 1_455 S
C1026 C1023 1.463 1_455 S
C1026 N1030 1.427 . S
C1027 H1017 0.929 . S
C1027 C1025 1.433 . S
C1027 N1030 1.384 . S
C1028 H1019 0.929 . S
C1028 C1020 1.378 . S
C1028 C1023 1.350 1_455 S
C1029 H1016 0.929 . S
C1029 C1021 1.433 . S
C1029 N1031 1.384 . S
N1030 C1026 1.427 . S
N1030 C1027 1.384 . S
N1031 C1023 1.427 . S
N1031 C1029 1.384 . S
H1032 C1038 0.930 . S
H1033 C1042 0.930 . S
H1034 C1047 0.929 . S
H1035 C1045 0.929 . S
H1036 C1040 0.929 . S
H1037 C1046 0.929 . S
C1038 H1032 0.930 . S
C1038 C1039 1.367 . S
C1038 C1046 1.378 . S
C1039 C1038 1.367 . S
C1039 C1047 1.433 . S
C1040 H1036 0.929 . S
C1040 C1042 1.378 . S
C1040 C1044 1.350 . S
C1041 C1044 1.463 . S
C1041 C1046 1.350 . S
C1041 N1049 1.427 . S
C1042 H1033 0.930 . S
C1042 C1040 1.378 . S
C1042 C1043 1.367 . S
C1043 C1042 1.367 . S
C1043 C1045 1.433 . S
C1044 C1040 1.350 . S
C1044 C1041 1.463 . S
C1044 N1048 1.427 . S
C1045 H1035 0.929 . S
C1045 C1043 1.433 . S
C1045 N1048 1.384 . S
C1046 H1037 0.929 . S
C1046 C1038 1.378 . S
C1046 C1041 1.350 . S
C1047 H1034 0.929 . S
C1047 C1039 1.433 . S
C1047 N1049 1.384 . S
N1048 C1044 1.427 . S
N1048 C1045 1.384 . S
N1049 C1041 1.427 . S
N1049 C1047 1.384 . S
H1050 C1056 0.930 . S
H1051 C1060 0.930 . S
H1052 C1065 0.929 . S
H1053 C1063 0.929 . S
H1054 C1058 0.929 . S
H1055 C1064 0.929 . S
C1056 H1050 0.930 . S
C1056 C1057 1.367 . S
C1056 C1064 1.378 . S
C1057 C1056 1.367 . S
C1057 C1065 1.433 . S
C1058 H1054 0.929 . S
C1058 C1060 1.378 . S
C1058 C1062 1.350 . S
C1059 C1062 1.463 . S
C1059 C1064 1.350 . S
C1059 N1067 1.427 . S
C1060 H1051 0.930 . S
C1060 C1058 1.378 . S
C1060 C1061 1.367 . S
C1061 C1060 1.367 . S
C1061 C1063 1.433 . S
C1062 C1058 1.350 . S
C1062 C1059 1.463 . S
C1062 N1066 1.427 . S
C1063 H1053 0.929 . S
C1063 C1061 1.433 . S
C1063 N1066 1.384 . S
C1064 H1055 0.929 . S
C1064 C1056 1.378 . S
C1064 C1059 1.350 . S
C1065 H1052 0.929 . S
C1065 C1057 1.433 . S
C1065 N1067 1.384 . S
N1066 C1062 1.427 . S
N1066 C1063 1.384 . S
N1067 C1059 1.427 . S
N1067 C1065 1.384 . S
H1068 C1074 0.930 . S
H1069 C1078 0.930 . S
H1070 C1083 0.929 . S
H1071 C1081 0.929 . S
H1072 C1076 0.929 . S
H1073 C1082 0.929 . S
C1074 H1068 0.930 . S
C1074 C1075 1.367 . S
C1074 C1082 1.378 . S
C1075 C1074 1.367 . S
C1075 C1083 1.433 . S
C1076 H1072 0.929 . S
C1076 C1078 1.378 . S
C1076 C1080 1.350 . S
C1077 C1080 1.463 . S
C1077 C1082 1.350 . S
C1077 N1085 1.427 . S
C1078 H1069 0.930 . S
C1078 C1076 1.378 . S
C1078 C1079 1.367 . S
C1079 C1078 1.367 . S
C1079 C1081 1.433 . S
C1080 C1076 1.350 . S
C1080 C1077 1.463 . S
C1080 N1084 1.427 . S
C1081 H1071 0.929 . S
C1081 C1079 1.433 . S
C1081 N1084 1.384 . S
C1082 H1073 0.929 . S
C1082 C1074 1.378 . S
C1082 C1077 1.350 . S
C1083 H1070 0.929 . S
C1083 C1075 1.433 . S
C1083 N1085 1.384 . S
N1084 C1080 1.427 . S
N1084 C1081 1.384 . S
N1085 C1077 1.427 . S
N1085 C1083 1.384 . S
H1086 C1092 0.930 . S
H1087 C1096 0.930 . S
H1088 C1101 0.929 . S
H1089 C1099 0.929 . S
H1090 C1094 0.929 . S
H1091 C1100 0.929 . S
C1092 H1086 0.930 . S
C1092 C1093 1.367 . S
C1092 C1100 1.378 . S
C1093 C1092 1.367 . S
C1093 C1101 1.433 . S
C1094 H1090 0.929 . S
C1094 C1096 1.378 . S
C1094 C1098 1.350 . S
C1095 C1098 1.463 . S
C1095 C1100 1.350 . S
C1095 N1103 1.427 . S
C1096 H1087 0.930 . S
C1096 C1094 1.378 . S
C1096 C1097 1.367 . S
C1097 C1096 1.367 . S
C1097 C1099 1.433 . S
C1098 C1094 1.350 . S
C1098 C1095 1.463 . S
C1098 N1102 1.427 . S
C1099 H1089 0.929 . S
C1099 C1097 1.433 . S
C1099 N1102 1.384 . S
C1100 H1091 0.929 . S
C1100 C1092 1.378 . S
C1100 C1095 1.350 . S
C1101 H1088 0.929 . S
C1101 C1093 1.433 . S
C1101 N1103 1.384 . S
N1102 C1098 1.427 . S
N1102 C1099 1.384 . S
N1103 C1095 1.427 . S
N1103 C1101 1.384 . S
C679 C67 1.962 . S
C683 C56 1.962 . S
C697 C140 1.955 . S
C701 C151 1.955 . S
C715 C224 1.952 . S
C719 C235 1.952 . S
C733 C308 1.953 . S
C737 C319 1.953 . S
C751 C403 1.963 . S
C755 C392 1.963 . S
C769 C487 1.951 . S
C773 C476 1.951 . S
C787 C560 1.946 . S
C791 C571 1.946 . S
C805 C655 1.952 . S
C809 C644 1.952 . S
C823 C153 1.973 . S
C827 C69 2.280 . S
C841 C310 1.972 . S
C845 C237 1.972 . S
C859 C405 2.289 . S
C863 C489 1.959 . S
C877 C573 1.960 . S
C881 C646 1.960 . S
C895 C58 1.786 . S
C899 C478 1.491 . S
C913 C394 1.776 . S
C917 C142 1.514 . S
C931 C226 1.446 . S
C935 C657 1.446 . S
C949 C321 1.466 . S
C953 C562 1.466 . S
C967 C63 1.637 . S
C971 C315 1.686 . S
C985 C147 1.495 . S
C989 C231 1.577 . S
C1003 C158 1.697 . S
C1007 C242 1.755 . S
C1021 C326 1.486 . S
C1025 C74 1.510 . S
C1039 C399 1.621 . S
C1043 C651 1.675 . S
C1057 C483 1.513 . S
C1061 C567 1.579 . S
C1075 C494 1.682 . S
C1079 C578 1.759 . S
C1093 C662 1.492 . S
C1097 C410 1.508 . S
