# Generated by pormake.
# Topology wme, (6)-cn, num edge types: 1
# Building blocks:
#     Node 0, Type 0, BuildingBlock: KUMJIN_clean_sbu_0, # of connection points: 6
#     Node 1, Type 0, BuildingBlock: KUMJIN_clean_sbu_0, # of connection points: 6
#     Node 2, Type 0, BuildingBlock: KUMJIN_clean_sbu_0, # of connection points: 6
#     Node 3, Type 0, BuildingBlock: KUMJIN_clean_sbu_0, # of connection points: 6
#     Node 4, Type 0, BuildingBlock: KUMJIN_clean_sbu_0, # of connection points: 6
#     Node 5, Type 0, BuildingBlock: KUMJIN_clean_sbu_0, # of connection points: 6
#     Node 6, Type 0, BuildingBlock: KUMJIN_clean_sbu_0, # of connection points: 6
#     Node 7, Type 0, BuildingBlock: KUMJIN_clean_sbu_0, # of connection points: 6
#     Node 8, Type 0, BuildingBlock: KUMJIN_clean_sbu_0, # of connection points: 6
#     Node 9, Type 0, BuildingBlock: KUMJIN_clean_sbu_0, # of connection points: 6
#     Node 10, Type 0, BuildingBlock: KUMJIN_clean_sbu_0, # of connection points: 6
#     Node 11, Type 0, BuildingBlock: KUMJIN_clean_sbu_0, # of connection points: 6
#     Edge 12, Type (0, 0), BuildingBlock: TEMPAE_clean_linker_10, # of connection points: 2
#     Edge 13, Type (0, 0), BuildingBlock: TEMPAE_clean_linker_10, # of connection points: 2
#     Edge 14, Type (0, 0), BuildingBlock: TEMPAE_clean_linker_10, # of connection points: 2
#     Edge 15, Type (0, 0), BuildingBlock: TEMPAE_clean_linker_10, # of connection points: 2
#     Edge 16, Type (0, 0), BuildingBlock: TEMPAE_clean_linker_10, # of connection points: 2
#     Edge 17, Type (0, 0), BuildingBlock: TEMPAE_clean_linker_10, # of connection points: 2
#     Edge 18, Type (0, 0), BuildingBlock: TEMPAE_clean_linker_10, # of connection points: 2
#     Edge 19, Type (0, 0), BuildingBlock: TEMPAE_clean_linker_10, # of connection points: 2
#     Edge 20, Type (0, 0), BuildingBlock: TEMPAE_clean_linker_10, # of connection points: 2
#     Edge 21, Type (0, 0), BuildingBlock: TEMPAE_clean_linker_10, # of connection points: 2
#     Edge 22, Type (0, 0), BuildingBlock: TEMPAE_clean_linker_10, # of connection points: 2
#     Edge 23, Type (0, 0), BuildingBlock: TEMPAE_clean_linker_10, # of connection points: 2
#     Edge 24, Type (0, 0), BuildingBlock: TEMPAE_clean_linker_10, # of connection points: 2
#     Edge 25, Type (0, 0), BuildingBlock: TEMPAE_clean_linker_10, # of connection points: 2
#     Edge 26, Type (0, 0), BuildingBlock: TEMPAE_clean_linker_10, # of connection points: 2
#     Edge 27, Type (0, 0), BuildingBlock: TEMPAE_clean_linker_10, # of connection points: 2
#     Edge 28, Type (0, 0), BuildingBlock: TEMPAE_clean_linker_10, # of connection points: 2
#     Edge 29, Type (0, 0), BuildingBlock: TEMPAE_clean_linker_10, # of connection points: 2
#     Edge 30, Type (0, 0), BuildingBlock: TEMPAE_clean_linker_10, # of connection points: 2
#     Edge 31, Type (0, 0), BuildingBlock: TEMPAE_clean_linker_10, # of connection points: 2
#     Edge 32, Type (0, 0), BuildingBlock: TEMPAE_clean_linker_10, # of connection points: 2
#     Edge 33, Type (0, 0), BuildingBlock: TEMPAE_clean_linker_10, # of connection points: 2
#     Edge 34, Type (0, 0), BuildingBlock: TEMPAE_clean_linker_10, # of connection points: 2
#     Edge 35, Type (0, 0), BuildingBlock: TEMPAE_clean_linker_10, # of connection points: 2
#     Edge 36, Type (0, 0), BuildingBlock: TEMPAE_clean_linker_10, # of connection points: 2
#     Edge 37, Type (0, 0), BuildingBlock: TEMPAE_clean_linker_10, # of connection points: 2
#     Edge 38, Type (0, 0), BuildingBlock: TEMPAE_clean_linker_10, # of connection points: 2
#     Edge 39, Type (0, 0), BuildingBlock: TEMPAE_clean_linker_10, # of connection points: 2
#     Edge 40, Type (0, 0), BuildingBlock: TEMPAE_clean_linker_10, # of connection points: 2
#     Edge 41, Type (0, 0), BuildingBlock: TEMPAE_clean_linker_10, # of connection points: 2
#     Edge 42, Type (0, 0), BuildingBlock: TEMPAE_clean_linker_10, # of connection points: 2
#     Edge 43, Type (0, 0), BuildingBlock: TEMPAE_clean_linker_10, # of connection points: 2
#     Edge 44, Type (0, 0), BuildingBlock: TEMPAE_clean_linker_10, # of connection points: 2
#     Edge 45, Type (0, 0), BuildingBlock: TEMPAE_clean_linker_10, # of connection points: 2
#     Edge 46, Type (0, 0), BuildingBlock: TEMPAE_clean_linker_10, # of connection points: 2
#     Edge 47, Type (0, 0), BuildingBlock: TEMPAE_clean_linker_10, # of connection points: 2
# Relax obj value: 0.094
# Max RMSD: 0.208
# Mean RMSD: 0.208
data_MOF--net-wme--node1-KUMJIN_clean_sbu_0--edge1-TEMPAE_clean_linker_10
_symmetry_space_group_name_H-M    P1
_symmetry_Int_Tables_number       1
_symmetry_cell_setting            triclinic
loop_
_symmetry_equiv_pos_as_xyz
'x, y, z'
_cell_length_a     39.229519
_cell_length_b     39.191913
_cell_length_c     55.495778
_cell_angle_alpha  90.007568
_cell_angle_beta   90.030509
_cell_angle_gamma 119.97866
loop_
_atom_site_label
_atom_site_type_symbol
_atom_site_fract_x
_atom_site_fract_y
_atom_site_fract_z
_atom_type_partial_charge
Eu0 Eu 0.19956 0.37177 0.10262 0.0
C1 C 0.31736 0.36018 0.17327 0.0
C2 C 0.38041 0.39965 0.15382 0.0
C3 C 0.37659 0.39556 0.19753 0.0
C4 C 0.33923 0.3749 0.1525 0.0
C5 C 0.33586 0.36949 0.19602 0.0
C6 C 0.39883 0.41068 0.17646 0.0
C7 C 0.27307 0.3239 0.21379 0.0
N8 N 0.27812 0.33515 0.17115 0.0
C9 C 0.25599 0.31602 0.19088 0.0
C10 C 0.31302 0.35136 0.21646 0.0
Eu11 Eu 0.25074 0.32473 0.132 0.0
N12 N 0.32049 0.36335 0.13097 0.0
C13 C 0.34162 0.37325 0.11003 0.0
C14 C 0.40194 0.41165 0.13237 0.0
C15 C 0.3825 0.39794 0.11039 0.0
H16 H 0.225 0.2951 0.18903 0.0
H17 H 0.39895 0.40651 0.0937 0.0
H18 H 0.43038 0.43004 0.17784 0.0
H19 H 0.25545 0.30859 0.22932 0.0
H20 H 0.32715 0.36322 0.09286 0.0
H21 H 0.05212 0.32093 0.13628 0.0
H22 H 0.43361 0.4306 0.1326 0.0
H23 H 0.23034 0.39401 0.04519 0.0
H24 H 0.12325 0.34607 0.13923 0.0
H25 H 0.20264 0.3785 0.0041 0.0
H26 H 0.3913 0.40343 0.21486 0.0
H27 H 0.01806 0.29777 0.09698 0.0
H28 H 0.02205 0.28779 0.05281 0.0
H29 H 0.32613 0.35749 0.23426 0.0
H30 H 0.06331 0.30246 0.01666 0.0
N31 N 0.13009 0.3387 0.1019 0.0
C32 C 0.10886 0.33606 0.122 0.0
C33 C 0.04934 0.30854 0.09828 0.0
C34 C 0.07121 0.31158 0.07772 0.0
C35 C 0.06838 0.32143 0.12044 0.0
C36 C 0.11227 0.32802 0.08002 0.0
H37 H 0.13077 0.33688 0.99828 0.0
N38 N 0.17512 0.35877 0.06247 0.0
C39 C 0.18342 0.36654 0.01955 0.0
C40 C 0.13552 0.33744 0.05968 0.0
C41 C 0.19901 0.37522 0.04286 0.0
C42 C 0.14287 0.34286 0.01635 0.0
C43 C 0.11826 0.32909 0.03652 0.0
O44 O 0.21848 0.43165 0.08973 0.0
O45 O 0.25642 0.3812 0.11794 0.0
O46 O 0.25018 0.36769 0.15857 0.0
O47 O 0.19523 0.37023 0.14464 0.0
O48 O 0.25984 0.41039 0.08644 0.0
O49 O 0.18141 0.41007 0.12089 0.0
O50 O 0.22492 0.26264 0.14205 0.0
O51 O 0.19291 0.31603 0.11797 0.0
O52 O 0.20289 0.32794 0.076 0.0
O53 O 0.25678 0.32535 0.09144 0.0
O54 O 0.19121 0.28767 0.14976 0.0
O55 O 0.27169 0.28736 0.11591 0.0
C56 C 0.28033 0.40546 0.10273 0.0
C57 C 0.17229 0.45371 0.09534 0.0
C58 C 0.14635 0.49977 0.09556 0.0
C59 C 0.17184 0.48704 0.1052 0.0
C60 C 0.12204 0.47882 0.07599 0.0
C61 C 0.14783 0.43429 0.07564 0.0
C62 C 0.12289 0.44657 0.06615 0.0
C63 C 0.22073 0.37439 0.162 0.0
C64 C 0.19764 0.43854 0.10524 0.0
C65 C 0.07713 0.30944 0.03427 0.0
C66 C 0.05364 0.30108 0.05484 0.0
C67 C 0.17003 0.29293 0.1341 0.0
C68 C 0.26514 0.23385 0.1397 0.0
C69 C 0.24907 0.19308 0.13511 0.0
C70 C 0.26504 0.17167 0.14632 0.0
C71 C 0.29671 0.19183 0.16246 0.0
C72 C 0.29685 0.25292 0.15568 0.0
C73 C 0.3124 0.23197 0.16701 0.0
C74 C 0.23127 0.31879 0.07409 0.0
C75 C 0.24809 0.25617 0.12844 0.0
H76 H 0.19076 0.50261 0.12031 0.0
H77 H 0.10274 0.48792 0.06785 0.0
H78 H 0.14818 0.40968 0.06734 0.0
H79 H 0.10426 0.43112 0.05093 0.0
H80 H 0.22466 0.17831 0.12267 0.0
H81 H 0.30926 0.17643 0.17181 0.0
H82 H 0.30947 0.28401 0.15949 0.0
H83 H 0.33673 0.2469 0.17946 0.0
Eu84 Eu 0.83444 0.18659 0.59869 0.0
C85 C 0.97093 0.3095 0.66254 0.0
C86 C 0.99499 0.37032 0.6403 0.0
C87 C 0.99657 0.37159 0.68407 0.0
C88 C 0.97775 0.32892 0.64079 0.0
C89 C 0.98104 0.33063 0.68443 0.0
C90 C 1.00349 0.3914 0.66204 0.0
C91 C 0.96219 0.2696 0.70524 0.0
N92 N 0.95573 0.26997 0.66227 0.0
C93 C 0.95227 0.24992 0.68312 0.0
C94 C 0.97602 0.31005 0.70596 0.0
Eu95 Eu 0.93493 0.23757 0.62464 0.0
N96 N 0.9691 0.30757 0.62013 0.0
C97 C 0.97989 0.32649 0.59836 0.0
C98 C 1.00403 0.38941 0.61801 0.0
C99 C 0.99698 0.36744 0.59698 0.0
H100 H 0.9407 0.21846 0.68272 0.0
H101 H 1.00462 0.38202 0.57964 0.0
H102 H 1.01625 0.42313 0.66199 0.0
H103 H 0.95909 0.25355 0.72169 0.0
H104 H 0.97513 0.31066 0.58173 0.0
H105 H 0.73966 0.03873 0.63238 0.0
H106 H 1.0174 0.42114 0.61686 0.0
H107 H 0.84232 0.2186 0.54141 0.0
H108 H 0.78607 0.1099 0.63531 0.0
H109 H 0.82767 0.19125 0.50024 0.0
H110 H 1.0041 0.3883 0.7007 0.0
H111 H 0.72608 1.00517 0.59274 0.0
H112 H 0.73732 1.00972 0.54822 0.0
H113 H 0.98352 0.3252 0.72315 0.0
H114 H 0.76222 0.05145 0.51212 0.0
N115 N 0.79776 0.11714 0.59769 0.0
C116 C 0.78048 0.09568 0.61794 0.0
C117 C 0.74677 0.03645 0.59402 0.0
C118 C 0.76436 0.05858 0.57333 0.0
C119 C 0.75441 0.0552 0.61638 0.0
C120 C 0.78922 0.09962 0.57569 0.0
H121 H 0.79535 0.11922 0.49405 0.0
N122 N 0.82084 0.16282 0.55839 0.0
C123 C 0.82039 0.17177 0.51558 0.0
C124 C 0.80192 0.12317 0.55539 0.0
C125 C 0.82855 0.18714 0.53895 0.0
C126 C 0.80235 0.13112 0.51215 0.0
C127 C 0.79187 0.1062 0.53219 0.0
O128 O 0.79189 0.20433 0.58729 0.0
O129 O 0.88353 0.24384 0.61279 0.0
O130 O 0.89289 0.23834 0.65198 0.0
O131 O 0.83428 0.18275 0.64049 0.0
O132 O 0.85489 0.24698 0.58261 0.0
O133 O 0.78024 0.16934 0.61923 0.0
O134 O 0.98047 0.22621 0.63942 0.0
O135 O 0.88382 0.17927 0.61291 0.0
O136 O 0.87915 0.18709 0.57133 0.0
O137 O 0.93558 0.24347 0.5841 0.0
O138 O 0.91295 0.17853 0.64357 0.0
O139 O 0.97948 0.23683 0.60144 0.0
C140 C 0.88207 0.26765 0.59796 0.0
C141 C 0.72462 0.15874 0.59621 0.0
C142 C 0.65317 0.1339 0.59962 0.0
C143 C 0.69253 0.16024 0.60709 0.0
C144 C 0.6469 0.10672 0.58119 0.0
C145 C 0.71677 0.13161 0.57761 0.0
C146 C 0.67837 0.10575 0.57029 0.0
C147 C 0.85719 0.20927 0.65688 0.0
C148 C 0.76621 0.18464 0.6041 0.0
C149 C 0.76997 0.06506 0.52978 0.0
C150 C 0.75586 0.04129 0.55033 0.0
C151 C 0.88505 0.15678 0.62888 0.0
C152 C 0.04096 0.25112 0.61791 0.0
C153 C 0.06219 0.23101 0.62138 0.0
C154 C 0.10373 0.25097 0.61896 0.0
C155 C 0.12306 0.29121 0.61261 0.0
C156 C 0.0614 0.29132 0.61224 0.0
C157 C 0.10215 0.3111 0.60952 0.0
C158 C 0.9156 0.21657 0.56765 0.0
C159 C 0.99743 0.22954 0.61871 0.0
H160 H 0.69808 0.18133 0.62131 0.0
H161 H 0.61744 0.08659 0.57475 0.0
H162 H 0.74044 0.13052 0.56856 0.0
H163 H 0.67296 0.08495 0.55592 0.0
H164 H 0.04632 0.20003 0.62603 0.0
H165 H 0.15456 0.30752 0.60972 0.0
H166 H 0.04575 0.30726 0.60948 0.0
H167 H 0.11763 0.34201 0.60473 0.0
Eu168 Eu 0.65982 0.84383 0.10523 0.0
C169 C 0.68447 0.96121 0.17786 0.0
C170 C 0.64185 0.98481 0.16309 0.0
C171 C 0.64679 0.97694 0.20608 0.0
C172 C 0.66812 0.97068 0.15876 0.0
C173 C 0.67546 0.96623 0.20177 0.0
C174 C 0.62987 0.98607 0.18674 0.0
C175 C 0.72819 0.95615 0.21534 0.0
N176 N 0.71257 0.95162 0.17311 0.0
C177 C 0.73602 0.95141 0.19139 0.0
C178 C 0.69726 0.96281 0.22058 0.0
Eu179 Eu 0.72108 0.94059 0.13174 0.0
N180 N 0.68113 0.97017 0.13619 0.0
C181 C 0.6727 0.98784 0.11769 0.0
C182 C 0.63018 0.99939 0.1437 0.0
C183 C 0.64658 1.00196 0.12104 0.0
H184 H 0.7599 0.94594 0.1876 0.0
H185 H 0.63893 0.01455 0.10607 0.0
H186 H 0.60915 0.9961 0.19033 0.0
H187 H 0.7461 0.95473 0.22971 0.0
H188 H 0.68485 0.99012 0.10005 0.0
H189 H 0.70517 0.75538 0.15658 0.0
H190 H 0.61003 1.01043 0.14626 0.0
H191 H 0.64641 0.84407 0.04536 0.0
H192 H 0.68153 0.80221 0.15046 0.0
H193 H 0.66314 0.82111 0.00813 0.0
H194 H 0.63892 0.98011 0.22432 0.0
H195 H 0.72404 0.72968 0.12158 0.0
H196 H 0.73161 0.72802 0.07676 0.0
H197 H 0.69174 0.96731 0.2391 0.0
H198 H 0.72368 0.74888 0.03645 0.0
N199 N 0.69039 0.80607 0.11256 0.0
C200 C 0.69142 0.79274 0.13512 0.0
C201 C 0.71544 0.75168 0.11883 0.0
C202 C 0.71363 0.76483 0.09568 0.0
C203 C 0.70443 0.76582 0.13864 0.0
C204 C 0.70074 0.79241 0.09305 0.0
H205 H 0.69872 0.78402 0.01065 0.0
N206 N 0.67712 0.82512 0.06846 0.0
C207 C 0.67266 0.81621 0.02545 0.0
C208 C 0.6949 0.8031 0.07031 0.0
C209 C 0.66363 0.82952 0.04653 0.0
C210 C 0.69287 0.79544 0.02695 0.0
C211 C 0.70284 0.78729 0.04959 0.0
O212 O 0.60195 0.80481 0.08894 0.0
O213 O 0.65756 0.89537 0.12139 0.0
O214 O 0.70873 0.89399 0.15948 0.0
O215 O 0.64842 0.84432 0.14623 0.0
O216 O 0.62897 0.87269 0.08849 0.0
O217 O 0.6164 0.78814 0.1224 0.0
O218 O 0.78139 0.97299 0.14548 0.0
O219 O 0.71776 0.88254 0.12272 0.0
O220 O 0.69749 0.8898 0.07544 0.0
O221 O 0.71219 0.9494 0.09294 0.0
O222 O 0.76627 0.9328 0.1104 0.0
O223 O 0.76046 1.00225 0.12175 0.0
C224 C 0.63514 0.89763 0.10548 0.0
C225 C 0.5755 0.73588 0.09581 0.0
C226 C 0.53043 0.66396 0.0983 0.0
C227 C 0.54321 0.70273 0.10688 0.0
C228 C 0.55027 0.65921 0.07863 0.0
C229 C 0.59359 0.72952 0.07587 0.0
C230 C 0.58134 0.69166 0.06751 0.0
C231 C 0.67398 0.86322 0.16383 0.0
C232 C 0.59101 0.77693 0.10493 0.0
C233 C 0.71763 0.76146 0.05214 0.0
C234 C 0.7222 0.74962 0.07511 0.0
C235 C 0.7502 0.89522 0.11187 0.0
C236 C 0.81357 0.04254 0.14799 0.0
C237 C 0.85379 0.06747 0.1424 0.0
C238 C 0.87667 0.10302 0.15517 0.0
C239 C 0.8586 0.1125 0.17392 0.0
C240 C 0.79639 0.05302 0.16654 0.0
C241 C 0.81891 0.08773 0.17949 0.0
C242 C 0.7103 0.92837 0.07401 0.0
C243 C 0.79005 1.00564 0.13442 0.0
H244 H 0.52845 0.70701 0.1221 0.0
H245 H 0.54106 0.63019 0.0714 0.0
H246 H 0.61711 0.75385 0.06648 0.0
H247 H 0.59586 0.68746 0.05215 0.0
H248 H 0.86696 0.05954 0.12787 0.0
H249 H 0.87528 0.13908 0.18444 0.0
H250 H 0.76561 0.03439 0.17102 0.0
H251 H 0.80552 0.09555 0.19391 0.0
Eu252 Eu 0.83256 0.65395 0.60342 0.0
C253 C 0.72624 0.67419 0.68007 0.0
C254 C 0.66019 0.63317 0.66474 0.0
C255 C 0.67116 0.64296 0.70791 0.0
C256 C 0.70101 0.65713 0.66083 0.0
C257 C 0.71153 0.66814 0.70381 0.0
C258 C 0.64553 0.62541 0.6884 0.0
C259 C 0.77711 0.71486 0.71739 0.0
N260 N 0.76507 0.69824 0.67546 0.0
C261 C 0.79042 0.71938 0.69362 0.0
C262 C 0.73765 0.68854 0.7226 0.0
Eu263 Eu 0.78576 0.7033 0.63483 0.0
N264 N 0.71614 0.66565 0.63824 0.0
C265 C 0.69164 0.65339 0.6187 0.0
C266 C 0.63522 0.61865 0.64475 0.0
C267 C 0.65099 0.62927 0.62163 0.0
H268 H 0.82102 0.73968 0.68995 0.0
H269 H 0.63188 0.61875 0.60603 0.0
H270 H 0.61432 0.60676 0.69177 0.0
H271 H 0.79729 0.73188 0.73164 0.0
H272 H 0.70324 0.66098 0.6007 0.0
H273 H 0.98319 0.70467 0.63035 0.0
H274 H 0.60371 0.60011 0.64697 0.0
H275 H 0.79464 0.63152 0.54722 0.0
H276 H 0.91262 0.68043 0.63651 0.0
H277 H 0.81762 0.64578 0.50513 0.0
H278 H 0.65935 0.63761 0.72604 0.0
H279 H 1.0125 0.72574 0.58968 0.0
H280 H 1.00352 0.73456 0.54597 0.0
H281 H 0.72748 0.685 0.74107 0.0
H282 H 0.95822 0.71944 0.5118 0.0
N283 N 0.90165 0.68644 0.59968 0.0
C284 C 0.92505 0.68961 0.61872 0.0
C285 C 0.98155 0.71551 0.59242 0.0
C286 C 0.95744 0.71208 0.57297 0.0
C287 C 0.96517 0.70371 0.61535 0.0
C288 C 0.91682 0.69613 0.57709 0.0
H289 H 0.88878 0.68579 0.49636 0.0
N290 N 0.85203 0.66534 0.56228 0.0
C291 C 0.83865 0.65742 0.51976 0.0
C292 C 0.89123 0.68614 0.55782 0.0
C293 C 0.82575 0.64933 0.54365 0.0
C294 C 0.87881 0.68021 0.5149 0.0
C295 C 0.90573 0.69386 0.53399 0.0
O296 O 0.81376 0.59406 0.59054 0.0
O297 O 0.77728 0.64551 0.62064 0.0
O298 O 0.78724 0.66097 0.6613 0.0
O299 O 0.83979 0.65589 0.64537 0.0
O300 O 0.77089 0.61447 0.5894 0.0
O301 O 0.85171 0.61624 0.62138 0.0
O302 O 0.81553 0.76721 0.64027 0.0
O303 O 0.84198 0.7106 0.61877 0.0
O304 O 0.82777 0.69834 0.57779 0.0
O305 O 0.77331 0.69671 0.59494 0.0
O306 O 0.8471 0.73985 0.65067 0.0
O307 O 0.76159 0.7389 0.62011 0.0
C308 C 0.75197 0.62039 0.60627 0.0
C309 C 0.85994 0.57187 0.59601 0.0
C310 C 0.88503 0.52511 0.59613 0.0
C311 C 0.85964 0.53802 0.60566 0.0
C312 C 0.90999 0.5464 0.57689 0.0
C313 C 0.88491 0.59153 0.57657 0.0
C314 C 0.90978 0.57907 0.56722 0.0
C315 C 0.81571 0.65255 0.66348 0.0
C316 C 0.83496 0.58744 0.60595 0.0
C317 C 0.94649 0.713 0.52995 0.0
C318 C 0.97229 0.72167 0.54941 0.0
C319 C 0.86657 0.73366 0.63427 0.0
C320 C 0.77657 0.79743 0.64162 0.0
C321 C 0.79254 0.83763 0.63522 0.0
C322 C 0.78103 0.86187 0.64767 0.0
C323 C 0.75413 0.84515 0.66687 0.0
C324 C 0.74954 0.78188 0.66061 0.0
C325 C 0.73857 0.80565 0.67317 0.0
C326 C 0.7978 0.70528 0.57677 0.0
C327 C 0.78907 0.77204 0.62919 0.0
H328 H 0.84024 0.52221 0.62052 0.0
H329 H 0.9293 0.53721 0.56888 0.0
H330 H 0.88503 0.6165 0.56843 0.0
H331 H 0.92888 0.59475 0.55222 0.0
H332 H 0.81334 0.84973 0.62048 0.0
H333 H 0.74523 0.86278 0.67725 0.0
H334 H 0.73709 0.75134 0.66585 0.0
H335 H 0.71792 0.79342 0.68796 0.0
Eu336 Eu 0.20205 0.83467 0.10609 0.0
C337 C 0.06013 0.72472 0.16323 0.0
C338 C 0.03867 0.66572 0.13927 0.0
C339 C 0.02884 0.66055 0.18266 0.0
C340 C 0.05691 0.70708 0.14107 0.0
C341 C 0.04516 0.70158 0.18418 0.0
C342 C 0.02564 0.64266 0.16025 0.0
C343 C 0.06012 0.76081 0.2061 0.0
N344 N 0.07605 0.76441 0.1641 0.0
C345 C 0.07438 0.78247 0.18481 0.0
C346 C 0.04606 0.72027 0.20587 0.0
Eu347 Eu 0.10319 0.79905 0.12772 0.0
N348 N 0.06983 0.73018 0.12113 0.0
C349 C 0.06259 0.71371 0.09872 0.0
C350 C 0.03318 0.64875 0.11638 0.0
C351 C 0.04448 0.67283 0.09599 0.0
H352 H 0.08573 0.81392 0.18504 0.0
H353 H 0.03962 0.65997 0.07817 0.0
H354 H 1.01208 0.61089 0.15926 0.0
H355 H 0.06014 0.77539 0.22267 0.0
H356 H 0.07131 0.73201 0.08295 0.0
H357 H 0.31228 0.95653 0.1608 0.0
H358 H 0.01937 0.61711 0.11423 0.0
H359 H 0.19041 0.83697 0.04447 0.0
H360 H 0.26508 0.88836 0.15129 0.0
H361 H 0.20224 0.88476 0.0132 0.0
H362 H 0.01766 0.6423 0.19861 0.0
H363 H 0.32765 1.00863 0.13086 0.0
H364 H 0.31907 0.02707 0.0893 0.0
H365 H 0.03499 0.70355 0.22239 0.0
H366 H 0.28616 1.00825 0.05019 0.0
N367 N 0.24658 0.90106 0.11777 0.0
C368 C 0.26785 0.91057 0.13877 0.0
C369 C 0.30471 0.97873 0.12706 0.0
C370 C 0.28524 0.96879 0.1049 0.0
C371 C 0.29607 0.94945 0.14402 0.0
C372 C 0.25594 0.92918 0.10062 0.0
H373 H 0.24171 0.95575 0.02196 0.0
N374 N 0.21443 0.87918 0.07325 0.0
C375 C 0.21187 0.89467 0.03145 0.0
C376 C 0.2387 0.91809 0.078 0.0
C377 C 0.20374 0.86736 0.04982 0.0
C378 C 0.23425 0.93464 0.03644 0.0
C379 C 0.2495 0.94673 0.05958 0.0
O380 O 0.23662 0.82517 0.07848 0.0
O381 O 0.14343 0.77891 0.11128 0.0
O382 O 0.13702 0.79518 0.15924 0.0
O383 O 0.20192 0.83771 0.14782 0.0
O384 O 0.19356 0.78044 0.12502 0.0
O385 O 0.25591 0.83381 0.11539 0.0
O386 O 0.06676 0.82463 0.13793 0.0
O387 O 0.15873 0.8539 0.11594 0.0
O388 O 0.15452 0.80032 0.07648 0.0
O389 O 0.11051 0.81845 0.08911 0.0
O390 O 0.13283 0.85676 0.14811 0.0
O391 O 0.04828 0.78296 0.1087 0.0
C392 C 0.1562 0.75871 0.12211 0.0
C393 C 0.30627 0.86088 0.0861 0.0
C394 C 0.37811 0.89062 0.09121 0.0
C395 C 0.33914 0.86061 0.09667 0.0
C396 C 0.38341 0.92042 0.07496 0.0
C397 C 0.31303 0.89086 0.06967 0.0
C398 C 0.35122 0.92037 0.06426 0.0
C399 C 0.17474 0.81655 0.16423 0.0
C400 C 0.2652 0.83147 0.09322 0.0
C401 C 0.2773 0.98616 0.06421 0.0
C402 C 0.29577 0.99696 0.0866 0.0
C403 C 0.16123 0.87653 0.13314 0.0
C404 C 0.99845 0.78749 0.13012 0.0
C405 C 0.97649 0.80607 0.12458 0.0
C406 C 0.93663 0.78872 0.13146 0.0
C407 C 0.91949 0.75305 0.14435 0.0
C408 C 0.98065 0.75199 0.143 0.0
C409 C 0.94142 0.73501 0.15015 0.0
C410 C 0.12394 0.80544 0.07201 0.0
C411 C 0.03958 0.80497 0.12198 0.0
H412 H 0.33441 0.83765 0.10936 0.0
H413 H 0.41271 0.94352 0.0701 0.0
H414 H 0.28882 0.89174 0.061 0.0
H415 H 0.35591 0.94338 0.05164 0.0
H416 H 0.99006 0.83337 0.11445 0.0
H417 H 0.88902 0.73914 0.15002 0.0
H418 H 0.99696 0.73727 0.14737 0.0
H419 H 0.92784 0.70758 0.16009 0.0
Eu420 Eu 0.3668 0.18477 0.60595 0.0
C421 C 0.34756 0.05569 0.68041 0.0
C422 C 0.38838 0.03078 0.66452 0.0
C423 C 0.3786 0.03087 0.70775 0.0
C424 C 0.36455 0.04791 0.66096 0.0
C425 C 0.35364 0.04644 0.704 0.0
C426 C 0.39602 0.02313 0.68804 0.0
C427 C 0.3076 0.06585 0.71817 0.0
N428 N 0.32374 0.07089 0.67615 0.0
C429 C 0.30295 0.0751 0.69452 0.0
C430 C 0.33359 0.05213 0.72302 0.0
Eu431 Eu 0.31841 0.08724 0.63573 0.0
N432 N 0.35621 0.05531 0.63849 0.0
C433 C 0.36862 0.04374 0.61874 0.0
C434 C 0.40296 0.0209 0.64432 0.0
C435 C 0.39261 0.02696 0.62132 0.0
H436 H 0.28298 0.08592 0.69109 0.0
H437 H 0.40324 0.01889 0.60556 0.0
H438 H 0.41455 1.01033 0.69114 0.0
H439 H 0.29098 0.06916 0.7326 0.0
H440 H 0.36124 0.04846 0.60083 0.0
H441 H 0.31413 0.27918 0.64149 0.0
H442 H 0.42139 1.00773 0.64628 0.0
H443 H 0.38725 0.17506 0.54842 0.0
H444 H 0.33942 0.23325 0.64352 0.0
H445 H 0.37313 0.18951 0.50748 0.0
H446 H 0.38395 0.02393 0.72577 0.0
H447 H 0.29321 0.29312 0.60235 0.0
H448 H 0.28734 0.28373 0.55757 0.0
H449 H 0.33721 0.04511 0.74139 0.0
H450 H 0.30233 0.25816 0.52103 0.0
N451 N 0.33439 0.22193 0.60581 0.0
C452 C 0.33052 0.23895 0.6263 0.0
C453 C 0.30446 0.27292 0.60314 0.0
C454 C 0.30916 0.25601 0.58214 0.0
C455 C 0.31594 0.26492 0.62525 0.0
C456 C 0.32507 0.23083 0.58403 0.0
H457 H 0.33453 0.22319 0.50216 0.0
N458 N 0.35442 0.19761 0.56601 0.0
C459 C 0.36192 0.19736 0.52306 0.0
C460 C 0.33445 0.21734 0.56349 0.0
C461 C 0.36985 0.18923 0.54626 0.0
C462 C 0.33995 0.21618 0.52013 0.0
C463 C 0.32693 0.22748 0.54048 0.0
O464 O 0.42618 0.22654 0.59277 0.0
O465 O 0.37582 0.13745 0.62187 0.0
O466 O 0.36097 0.13003 0.66248 0.0
O467 O 0.36442 0.18763 0.64798 0.0
O468 O 0.40601 0.16331 0.5905 0.0
O469 O 0.40579 0.23966 0.62545 0.0
O470 O 0.25494 0.05185 0.64208 0.0
O471 O 0.3102 0.1357 0.61988 0.0
O472 O 0.32428 0.13638 0.5791 0.0
O473 O 0.32493 0.08251 0.59576 0.0
O474 O 0.28087 0.111 0.65157 0.0
O475 O 0.28322 0.02829 0.61989 0.0
C476 C 0.40062 0.13794 0.60695 0.0
C477 C 0.44949 0.29443 0.60129 0.0
C478 C 0.49641 0.36605 0.60396 0.0
C479 C 0.48353 0.32679 0.61169 0.0
C480 C 0.47491 0.37193 0.58575 0.0
C481 C 0.42969 0.30194 0.58287 0.0
C482 C 0.44209 0.34023 0.5753 0.0
C483 C 0.36855 0.16651 0.6655 0.0
C484 C 0.43386 0.2529 0.60947 0.0
C485 C 0.30857 0.25028 0.53853 0.0
C486 C 0.30008 0.26487 0.55933 0.0
C487 C 0.28652 0.13645 0.63512 0.0
C488 C 0.22581 0.98274 0.64148 0.0
C489 C 0.18542 0.95885 0.63558 0.0
C490 C 0.16199 0.92212 0.64717 0.0
C491 C 0.17971 0.91052 0.66502 0.0
C492 C 0.2424 0.96998 0.65917 0.0
C493 C 0.21943 0.93417 0.67088 0.0
C494 C 0.31733 0.09941 0.57766 0.0
C495 C 0.25028 0.02152 0.62986 0.0
H496 H 0.49951 0.32154 0.62576 0.0
H497 H 0.48408 0.40128 0.57913 0.0
H498 H 0.40463 0.27811 0.57413 0.0
H499 H 0.42627 0.34535 0.56108 0.0
H500 H 0.17251 0.9686 0.62187 0.0
H501 H 0.16271 0.8831 0.67471 0.0
H502 H 0.27312 0.98785 0.66404 0.0
H503 H 0.23245 0.9247 0.68465 0.0
Eu504 Eu 0.658 0.83059 0.40185 0.0
C505 C 0.68126 0.72563 0.32527 0.0
C506 C 0.64086 0.65908 0.34002 0.0
C507 C 0.65131 0.67097 0.29697 0.0
C508 C 0.66418 0.69993 0.34427 0.0
C509 C 0.67574 0.7114 0.30141 0.0
C510 C 0.63384 0.64485 0.31626 0.0
C511 C 0.72079 0.77773 0.28826 0.0
N512 N 0.7045 0.76451 0.33021 0.0
C513 C 0.72503 0.79051 0.31217 0.0
C514 C 0.69562 0.7381 0.2828 0.0
Eu515 Eu 0.70848 0.78432 0.37107 0.0
N516 N 0.67187 0.71468 0.36698 0.0
C517 C 0.65936 0.68981 0.38632 0.0
C518 C 0.62611 0.63369 0.35981 0.0
C519 C 0.63587 0.64911 0.38306 0.0
H520 H 0.74442 0.82127 0.31601 0.0
H521 H 0.62513 0.6297 0.39851 0.0
H522 H 0.6157 0.61362 0.31263 0.0
H523 H 0.73698 0.79844 0.27406 0.0
H524 H 0.66623 0.70115 0.4044 0.0
H525 H 0.71084 0.98266 0.37734 0.0
H526 H 0.60798 0.60215 0.35732 0.0
H527 H 0.63284 0.7901 0.45741 0.0
H528 H 0.68615 0.91212 0.37008 0.0
H529 H 0.64554 0.81121 0.49986 0.0
H530 H 0.6464 0.65953 0.27875 0.0
H531 H 0.73059 1.01016 0.41855 0.0
H532 H 0.73758 0.99912 0.46222 0.0
H533 H 0.6923 0.72834 0.26424 0.0
H534 H 0.72046 0.95216 0.49566 0.0
N535 N 0.69079 0.89952 0.40678 0.0
C536 C 0.69478 0.92382 0.38809 0.0
C537 C 0.72023 0.97926 0.41532 0.0
C538 C 0.71582 0.95419 0.43443 0.0
C539 C 0.70913 0.96389 0.3921 0.0
C540 C 0.69962 0.91368 0.42965 0.0
H541 H 0.68553 0.88198 0.5099 0.0
N542 N 0.66728 0.84817 0.44335 0.0
C543 C 0.6578 0.83289 0.48561 0.0
C544 C 0.68826 0.88718 0.44851 0.0
C545 C 0.65056 0.82107 0.46149 0.0
C546 C 0.68058 0.87284 0.49119 0.0
C547 C 0.69517 0.90062 0.47258 0.0
O548 O 0.59804 0.81301 0.41383 0.0
O549 O 0.65061 0.77556 0.38492 0.0
O550 O 0.66555 0.78487 0.34478 0.0
O551 O 0.66039 0.83777 0.35989 0.0
O552 O 0.61756 0.76866 0.41523 0.0
O553 O 0.62162 0.84997 0.38262 0.0
O554 O 0.77207 0.81298 0.36507 0.0
O555 O 0.71497 0.84032 0.38707 0.0
O556 O 0.70177 0.82566 0.4279 0.0
O557 O 0.70093 0.77131 0.41093 0.0
O558 O 0.74535 0.84601 0.35566 0.0
O559 O 0.74396 0.76163 0.38771 0.0
C560 C 0.62489 0.75002 0.39885 0.0
C561 C 0.57683 0.85955 0.40648 0.0
C562 C 0.53046 0.88485 0.40417 0.0
C563 C 0.54321 0.8586 0.39605 0.0
C564 C 0.55172 0.91145 0.42278 0.0
C565 C 0.59646 0.88604 0.42532 0.0
C566 C 0.58419 0.91186 0.43327 0.0
C567 C 0.65699 0.8132 0.34204 0.0
C568 C 0.5923 0.83391 0.39771 0.0
C569 C 0.71465 0.94124 0.47731 0.0
C570 C 0.7245 0.96798 0.45827 0.0
C571 C 0.73834 0.86516 0.37187 0.0
C572 C 0.8014 0.77322 0.36647 0.0
C573 C 0.84143 0.78914 0.37302 0.0
C574 C 0.86488 0.77545 0.36193 0.0
C575 C 0.84758 0.74633 0.34392 0.0
C576 C 0.78517 0.74406 0.34864 0.0
C577 C 0.80819 0.73084 0.33742 0.0
C578 C 0.70841 0.79549 0.4292 0.0
C579 C 0.77686 0.78773 0.37768 0.0
H580 H 0.52744 0.83802 0.38165 0.0
H581 H 0.54262 0.93153 0.42968 0.0
H582 H 0.6213 0.88669 0.43403 0.0
H583 H 0.59984 0.93219 0.44779 0.0
H584 H 0.85402 0.8116 0.38687 0.0
H585 H 0.86468 0.73565 0.33461 0.0
H586 H 0.7547 0.73164 0.34331 0.0
H587 H 0.79547 0.70848 0.32355 0.0
Eu588 Eu 0.84695 0.65405 0.90167 0.0
C589 C 0.97485 0.6762 0.82609 0.0
C590 C 1.00055 0.63601 0.84195 0.0
C591 C 0.99943 0.64503 0.79869 0.0
C592 C 0.98324 0.65968 0.84555 0.0
C593 C 0.98377 0.66992 0.80247 0.0
C594 C 1.0077 0.628 0.8184 0.0
C595 C 0.96409 0.71582 0.78835 0.0
N596 N 0.95945 0.69985 0.83037 0.0
C597 C 0.95499 0.72052 0.81201 0.0
C598 C 0.97777 0.68979 0.78346 0.0
Eu599 Eu 0.94343 0.7053 0.87081 0.0
N600 N 0.97635 0.6684 0.86804 0.0
C601 C 0.98888 0.6568 0.88776 0.0
C602 C 1.01114 0.622 0.86213 0.0
C603 C 1.00582 0.63295 0.88513 0.0
H604 H 0.94421 0.74053 0.8155 0.0
H605 H 1.01459 0.6229 0.90086 0.0
H606 H 0.02059 0.60955 0.81528 0.0
H607 H 0.96075 0.73248 0.77394 0.0
H608 H 0.98484 0.66471 0.90569 0.0
H609 H 0.74716 0.70043 0.86725 0.0
H610 H 0.02436 0.60362 0.86015 0.0
H611 H 0.85334 0.63035 0.95884 0.0
H612 H 0.79531 0.67802 0.86469 0.0
H613 H 0.83952 0.64451 0.99996 0.0
H614 H 1.00609 0.6395 0.78065 0.0
H615 H 0.73281 0.72017 0.90663 0.0
H616 H 0.74749 0.73246 0.95067 0.0
H617 H 0.9846 0.68608 0.76507 0.0
H618 H 0.77478 0.71913 0.98702 0.0
N619 N 0.80926 0.6859 0.90209 0.0
C620 C 0.79029 0.68758 0.88188 0.0
C621 C 0.75535 0.71203 0.90538 0.0
C622 C 0.77507 0.71068 0.92599 0.0
C623 C 0.76296 0.70039 0.88323 0.0
C624 C 0.8013 0.69609 0.92387 0.0
H625 H 0.80857 0.68558 0.00565 0.0
N626 N 0.83412 0.66629 0.94164 0.0
C627 C 0.83283 0.65697 0.98449 0.0
C628 C 0.81529 0.68711 0.94432 0.0
C629 C 0.8407 0.6491 0.96122 0.0
C630 C 0.81561 0.68037 0.98763 0.0
C631 C 0.80519 0.69445 0.9674 0.0
O632 O 0.80641 0.59448 0.91524 0.0
O633 O 0.89491 0.64722 0.88492 0.0
O634 O 0.90106 0.66188 0.84426 0.0
O635 O 0.84269 0.65542 0.85961 0.0
O636 O 0.87072 0.61627 0.91626 0.0
O637 O 0.7918 0.61382 0.88277 0.0
O638 O 0.97654 0.76893 0.86414 0.0
O639 O 0.89407 0.71179 0.88729 0.0
O640 O 0.89531 0.69392 0.92934 0.0
O641 O 0.9518 0.70147 0.91064 0.0
O642 O 0.91675 0.74001 0.85484 0.0
O643 O 1.00327 0.74219 0.88488 0.0
C644 C 0.89588 0.62274 0.89947 0.0
C645 C 0.73819 0.57089 0.9079 0.0
C646 C 0.66631 0.52499 0.90607 0.0
C647 C 0.70508 0.53741 0.89759 0.0
C648 C 0.66168 0.54636 0.9249 0.0
C649 C 0.73187 0.59059 0.92693 0.0
C650 C 0.6941 0.57864 0.93523 0.0
C651 C 0.86404 0.65263 0.84171 0.0
C652 C 0.7793 0.58621 0.899 0.0
C653 C 0.78252 0.71291 0.96948 0.0
C654 C 0.767 0.72051 0.94878 0.0
C655 C 0.89163 0.73405 0.87156 0.0
C656 C 0.04581 0.80014 0.86275 0.0
C657 C 0.07004 0.84022 0.86932 0.0
C658 C 0.10581 0.86443 0.85698 0.0
C659 C 0.11607 0.84785 0.83772 0.0
C660 C 0.05731 0.78465 0.84371 0.0
C661 C 0.09211 0.80844 0.83125 0.0
C662 C 0.9334 0.70453 0.92962 0.0
C663 C 1.00815 0.77473 0.87529 0.0
H664 H 0.70936 0.52152 0.88303 0.0
H665 H 0.63277 0.53753 0.9321 0.0
H666 H 0.75625 0.61523 0.93559 0.0
H667 H 0.68994 0.59438 0.94991 0.0
H668 H 0.06137 0.85224 0.88413 0.0
H669 H 0.1427 0.86552 0.82746 0.0
H670 H 0.03929 0.75416 0.83841 0.0
H671 H 0.10057 0.79627 0.81644 0.0
Eu672 Eu 0.19368 0.8339 0.40336 0.0
C673 C 0.2986 0.96122 0.32633 0.0
C674 C 0.3651 0.98738 0.34117 0.0
C675 C 0.35333 0.9868 0.29814 0.0
C676 C 0.32426 0.96965 0.34536 0.0
C677 C 0.3129 0.97059 0.30254 0.0
C678 C 0.37938 0.99506 0.31743 0.0
C679 C 0.24662 0.94977 0.28942 0.0
N680 N 0.25974 0.94554 0.33122 0.0
C681 C 0.23382 0.94064 0.31326 0.0
C682 C 0.28627 0.9644 0.28397 0.0
Eu683 Eu 0.23996 0.93003 0.372 0.0
N684 N 0.3095 0.96246 0.36806 0.0
C685 C 0.33431 0.97483 0.38744 0.0
C686 C 0.39043 0.99792 0.36098 0.0
C687 C 0.37498 0.99208 0.38423 0.0
H688 H 0.20311 0.92938 0.31715 0.0
H689 H 0.39436 1.00074 0.3997 0.0
H690 H 0.41061 1.00834 0.31384 0.0
H691 H 0.22586 0.94563 0.27531 0.0
H692 H 0.32294 0.97039 0.40551 0.0
H693 H 0.04367 0.7332 0.37553 0.0
H694 H 0.42196 1.01148 0.35854 0.0
H695 H 0.2312 0.84983 0.45963 0.0
H696 H 0.11402 0.78079 0.36977 0.0
H697 H 0.2078 0.83983 0.50167 0.0
H698 H 0.36483 0.99383 0.27996 0.0
H699 H 1.0142 0.72225 0.41629 0.0
H700 H 0.02242 0.7389 0.46018 0.0
H701 H 0.29614 0.97158 0.26548 0.0
H702 H 0.06721 0.76922 0.49456 0.0
N703 N 0.12457 0.79641 0.40683 0.0
C704 C 0.10145 0.77665 0.38757 0.0
C705 C 0.04494 0.74383 0.4137 0.0
C706 C 0.06868 0.76428 0.43334 0.0
C707 C 0.06147 0.74982 0.39074 0.0
C708 C 0.10919 0.78987 0.42939 0.0
H709 H 0.13644 0.8065 0.51023 0.0
N710 N 0.17379 0.82488 0.44442 0.0
C711 C 0.18686 0.83011 0.48697 0.0
C712 C 0.13453 0.80547 0.44877 0.0
C713 C 0.19999 0.83564 0.46312 0.0
C714 C 0.14659 0.8115 0.49173 0.0
C715 C 0.11983 0.79787 0.47255 0.0
O716 O 0.21244 0.79276 0.41613 0.0
O717 O 0.24885 0.88093 0.38611 0.0
O718 O 0.23799 0.8862 0.3453 0.0
O719 O 0.18573 0.82872 0.36156 0.0
O720 O 0.25529 0.85647 0.41746 0.0
O721 O 0.17606 0.77807 0.38456 0.0
O722 O 0.21084 0.96462 0.36606 0.0
O723 O 0.18417 0.88125 0.38848 0.0
O724 O 0.19837 0.88297 0.42902 0.0
O725 O 0.25271 0.93619 0.4119 0.0
O726 O 0.17813 0.90542 0.35692 0.0
O727 O 0.26375 0.9893 0.38731 0.0
C728 C 0.27414 0.88135 0.40059 0.0
C729 C 0.16721 0.72455 0.40916 0.0
C730 C 0.14221 0.65284 0.40713 0.0
C731 C 0.16783 0.69174 0.3986 0.0
C732 C 0.11662 0.64776 0.42628 0.0
C733 C 0.1417 0.71791 0.42851 0.0
C734 C 0.11654 0.67994 0.43688 0.0
C735 C 0.20955 0.84925 0.34336 0.0
C736 C 0.19229 0.76561 0.4001 0.0
C737 C 0.07909 0.77519 0.47645 0.0
C738 C 0.05359 0.75798 0.45688 0.0
C739 C 0.15913 0.87979 0.37342 0.0
C740 C 0.25061 0.03369 0.36541 0.0
C741 C 0.23428 0.05778 0.37119 0.0
C742 C 0.24719 0.09406 0.35915 0.0
C743 C 0.27582 0.105 0.34094 0.0
C744 C 0.27928 0.04575 0.34735 0.0
C745 C 0.29163 0.08109 0.33516 0.0
C746 C 0.22843 0.91984 0.43015 0.0
C747 C 0.23699 0.99551 0.37764 0.0
H748 H 0.18767 0.69637 0.38379 0.0
H749 H 0.09706 0.61869 0.4335 0.0
H750 H 0.14133 0.74219 0.43733 0.0
H751 H 0.09698 0.67545 0.45181 0.0
H752 H 0.21221 0.04865 0.38521 0.0
H753 H 0.28596 0.13218 0.33101 0.0
H754 H 0.29203 0.02775 0.3426 0.0
H755 H 0.31363 0.09004 0.32113 0.0
Eu756 Eu 0.37684 0.19094 0.9037 0.0
C757 C 0.35807 0.30529 0.83424 0.0
C758 C 0.39799 0.36904 0.85292 0.0
C759 C 0.39108 0.36403 0.80933 0.0
C760 C 0.37383 0.3278 0.85471 0.0
C761 C 0.36566 0.3232 0.81134 0.0
C762 C 0.4073 0.38691 0.83009 0.0
C763 C 0.31987 0.25962 0.79448 0.0
N764 N 0.33378 0.26595 0.83683 0.0
C765 C 0.31372 0.24313 0.8175 0.0
C766 C 0.34656 0.29968 0.79128 0.0
Eu767 Eu 0.32645 0.23968 0.87612 0.0
N768 N 0.3639 0.30958 0.87646 0.0
C769 C 0.37486 0.33128 0.8972 0.0
C770 C 0.41117 0.39117 0.87413 0.0
C771 C 0.39907 0.37225 0.89636 0.0
H772 H 0.29336 0.21206 0.81974 0.0
H773 H 0.40853 0.38916 0.91289 0.0
H774 H 0.42616 0.4185 0.82834 0.0
H775 H 0.30383 0.24143 0.77927 0.0
H776 H 0.3661 0.31721 0.91456 0.0
H777 H 0.32609 0.04333 0.87011 0.0
H778 H 0.42982 0.4229 0.87354 0.0
H779 H 0.40143 0.22307 0.96088 0.0
H780 H 0.34971 0.11429 0.86713 0.0
H781 H 0.389 0.19593 0.00208 0.0
H782 H 0.39763 0.3783 0.79187 0.0
H783 H 0.30707 1.00999 0.90982 0.0
H784 H 0.29965 0.01435 0.95425 0.0
H785 H 0.35137 0.31232 0.77339 0.0
H786 H 0.31577 0.05609 0.99033 0.0
N787 N 0.3449 0.1215 0.90473 0.0
C788 C 0.34122 0.10011 0.88451 0.0
C789 C 0.31677 0.04107 0.90847 0.0
C790 C 0.32069 0.06309 0.92913 0.0
C791 C 0.32752 0.05976 0.88609 0.0
C792 C 0.33612 0.10403 0.92674 0.0
H793 H 0.34971 0.1239 0.00836 0.0
N794 N 0.36703 0.16722 0.94399 0.0
C795 C 0.37676 0.17636 0.98678 0.0
C796 C 0.34664 0.12761 0.94702 0.0
C797 C 0.38375 0.19163 0.96339 0.0
C798 C 0.35438 0.13573 0.99024 0.0
C799 C 0.34004 0.11073 0.97023 0.0
O800 O 0.43704 0.20892 0.91542 0.0
O801 O 0.38441 0.24742 0.88893 0.0
O802 O 0.36891 0.24076 0.84867 0.0
O803 O 0.37309 0.18633 0.86173 0.0
O804 O 0.41552 0.25148 0.91964 0.0
O805 O 0.41467 0.17493 0.88304 0.0
O806 O 0.26354 0.21145 0.86789 0.0
O807 O 0.31949 0.18238 0.89011 0.0
O808 O 0.33382 0.19336 0.93131 0.0
O809 O 0.32959 0.24676 0.91664 0.0
O810 O 0.2901 0.1796 0.85861 0.0
O811 O 0.28914 0.26047 0.89248 0.0
C812 C 0.40919 0.27168 0.90384 0.0
C813 C 0.45932 0.16382 0.90607 0.0
C814 C 0.50522 0.1382 0.90187 0.0
C815 C 0.49238 0.16485 0.89474 0.0
C816 C 0.48467 0.11115 0.9204 0.0
C817 C 0.44043 0.13686 0.92479 0.0
C818 C 0.4528 0.11067 0.93177 0.0
C819 C 0.37634 0.21194 0.8447 0.0
C820 C 0.4436 0.18986 0.89843 0.0
C821 C 0.32137 0.06963 0.97266 0.0
C822 C 0.31214 0.04586 0.95213 0.0
C823 C 0.29625 0.15895 0.87422 0.0
C824 C 0.23351 0.25048 0.86958 0.0
C825 C 0.19268 0.23305 0.87435 0.0
C826 C 0.16996 0.24728 0.86289 0.0
C827 C 0.18878 0.27842 0.84626 0.0
C828 C 0.25124 0.28168 0.85313 0.0
C829 C 0.22894 0.29539 0.8415 0.0
C830 C 0.32456 0.22158 0.93387 0.0
C831 C 0.25732 0.23527 0.88101 0.0
H832 H 0.50763 0.1858 0.88042 0.0
H833 H 0.49388 0.09077 0.92655 0.0
H834 H 0.41612 0.13614 0.93421 0.0
H835 H 0.4377 0.09 0.94623 0.0
H836 H 0.17889 0.20902 0.88713 0.0
H837 H 0.17232 0.28965 0.83675 0.0
H838 H 0.28234 0.29531 0.84918 0.0
H839 H 0.24285 0.31932 0.82869 0.0
Eu840 Eu 0.19209 0.36646 0.40041 0.0
C841 C 0.06147 0.34785 0.32851 0.0
C842 C 0.03592 0.38671 0.34662 0.0
C843 C 0.036 0.3805 0.30304 0.0
C844 C 0.05353 0.36307 0.34881 0.0
C845 C 0.05202 0.35564 0.30541 0.0
C846 C 0.02803 0.39607 0.32361 0.0
C847 C 0.07215 0.31136 0.28896 0.0
N848 N 0.07711 0.32411 0.33145 0.0
C849 C 0.08147 0.30489 0.3122 0.0
C850 C 0.05802 0.3374 0.28547 0.0
Eu851 Eu 0.09433 0.31638 0.37115 0.0
N852 N 0.06128 0.35319 0.37073 0.0
C853 C 0.04946 0.36361 0.39124 0.0
C854 C 0.02586 0.39938 0.36762 0.0
C855 C 0.03216 0.38731 0.39002 0.0
H856 H 0.09274 0.28504 0.31467 0.0
H857 H 0.02387 0.39638 0.40637 0.0
H858 H 1.0149 0.41453 0.32157 0.0
H859 H 0.07573 0.29613 0.27379 0.0
H860 H 0.05431 0.35477 0.40871 0.0
H861 H 0.29137 0.3214 0.36331 0.0
H862 H 1.01234 0.41762 0.36672 0.0
H863 H 0.18459 0.38719 0.45816 0.0
H864 H 0.24191 0.34223 0.36195 0.0
H865 H 0.20046 0.3733 0.49876 0.0
H866 H 0.0289 0.38717 0.28542 0.0
H867 H 0.3091 0.30371 0.40228 0.0
H868 H 0.29714 0.29219 0.4466 0.0
H869 H 0.05096 0.34244 0.26742 0.0
H870 H 0.27035 0.30429 0.48361 0.0
N871 N 0.23068 0.3356 0.39968 0.0
C872 C 0.2484 0.33354 0.379 0.0
C873 C 0.28607 0.31122 0.40161 0.0
C874 C 0.26733 0.31257 0.42268 0.0
C875 C 0.27652 0.32168 0.37967 0.0
C876 C 0.24025 0.32621 0.42123 0.0
H877 H 0.23473 0.33513 0.50328 0.0
N878 N 0.2063 0.3541 0.44 0.0
C879 C 0.20776 0.362 0.48299 0.0
C880 C 0.22654 0.33457 0.44205 0.0
C881 C 0.19875 0.36973 0.45998 0.0
C882 C 0.22687 0.34024 0.48546 0.0
C883 C 0.23777 0.32745 0.46484 0.0
O884 O 0.2329 0.426 0.41386 0.0
O885 O 0.14352 0.37418 0.38522 0.0
O886 O 0.13626 0.36026 0.34451 0.0
O887 O 0.19455 0.36485 0.35838 0.0
O888 O 0.16863 0.40333 0.41691 0.0
O889 O 0.24621 0.40682 0.38076 0.0
O890 O 0.05948 0.25355 0.36243 0.0
O891 O 0.1441 0.30949 0.38604 0.0
O892 O 0.14566 0.32264 0.42747 0.0
O893 O 0.08879 0.31846 0.41156 0.0
O894 O 0.11933 0.28062 0.35415 0.0
O895 O 0.03597 0.27904 0.38703 0.0
C896 C 0.14301 0.39786 0.40063 0.0
C897 C 0.30075 0.4499 0.40519 0.0
C898 C 0.37236 0.49552 0.40168 0.0
C899 C 0.33315 0.48288 0.39409 0.0
C900 C 0.37823 0.4748 0.4204 0.0
C901 C 0.30819 0.43094 0.42418 0.0
C902 C 0.34647 0.44302 0.43156 0.0
C903 C 0.17281 0.36845 0.3411 0.0
C904 C 0.25925 0.43437 0.39709 0.0
C905 C 0.26167 0.31026 0.46628 0.0
C906 C 0.2769 0.30336 0.44522 0.0
C907 C 0.1454 0.28674 0.37029 0.0
C908 C 0.99025 0.22314 0.36443 0.0
C909 C 0.96608 0.18287 0.37055 0.0
C910 C 0.9287 0.15992 0.35962 0.0
C911 C 0.91667 0.17796 0.34224 0.0
C912 C 0.97711 0.2401 0.34722 0.0
C913 C 0.94061 0.21757 0.33617 0.0
C914 C 0.10775 0.31228 0.42908 0.0
C915 C 0.02944 0.24722 0.37559 0.0
H916 H 0.32797 0.49827 0.37961 0.0
H917 H 0.4076 0.48387 0.42689 0.0
H918 H 0.28433 0.40681 0.43353 0.0
H919 H 0.35154 0.42783 0.4462 0.0
H920 H 0.97607 0.16973 0.38395 0.0
H921 H 0.88867 0.16128 0.3331 0.0
H922 H 0.99515 0.27076 0.34227 0.0
H923 H 0.93081 0.23087 0.32278 0.0
Eu924 Eu 0.83909 0.18599 0.89614 0.0
C925 C 0.7354 0.05651 0.81973 0.0
C926 C 0.66882 0.03115 0.83414 0.0
C927 C 0.68096 0.03053 0.79126 0.0
C928 C 0.70959 0.04872 0.83856 0.0
C929 C 0.72132 0.0466 0.79591 0.0
C930 C 0.65476 0.02294 0.81035 0.0
C931 C 0.78759 0.06653 0.78333 0.0
N932 N 0.77421 0.07228 0.82486 0.0
C933 C 0.80025 0.07657 0.80715 0.0
C934 C 0.74807 0.0521 0.77759 0.0
Eu935 Eu 0.79374 0.08938 0.86559 0.0
N936 N 0.72416 0.05646 0.86132 0.0
C937 C 0.69914 0.04468 0.88056 0.0
C938 C 0.64331 0.02136 0.8538 0.0
C939 C 0.65853 0.02764 0.87713 0.0
H940 H 0.83089 0.08779 0.81123 0.0
H941 H 0.63903 0.01954 0.8925 0.0
H942 H 0.62359 1.00978 0.80658 0.0
H943 H 0.80833 0.06977 0.76945 0.0
H944 H 0.7103 0.04953 0.89868 0.0
H945 H 0.98476 0.28875 0.8627 0.0
H946 H 0.61184 1.00804 0.85118 0.0
H947 H 0.80726 0.17298 0.95351 0.0
H948 H 0.91502 0.23812 0.85952 0.0
H949 H 0.83477 0.18616 0.99471 0.0
H950 H 0.66963 0.02309 0.77304 0.0
H951 H 0.01761 0.3052 0.90249 0.0
H952 H 1.01492 0.29035 0.94657 0.0
H953 H 0.73838 0.04445 0.75909 0.0
H954 H 0.97422 0.2602 0.98253 0.0
N955 N 0.90835 0.22499 0.89702 0.0
C956 C 0.92918 0.24403 0.8769 0.0
C957 C 0.98738 0.28165 0.90102 0.0
C958 C 0.96633 0.26125 0.92147 0.0
C959 C 0.9688 0.27283 0.87861 0.0
C960 C 0.92595 0.23358 0.91899 0.0
H961 H 0.90689 0.22163 1.0007 0.0
N962 N 0.86315 0.1974 0.93637 0.0
C963 C 0.85424 0.19516 0.9793 0.0
C964 C 0.90275 0.21813 0.93927 0.0
C965 C 0.83879 0.18773 0.95595 0.0
C966 C 0.89495 0.21495 0.98259 0.0
C967 C 0.91975 0.22796 0.96248 0.0
O968 O 0.81998 0.2262 0.91005 0.0
O969 O 0.7839 0.13827 0.87931 0.0
O970 O 0.79349 0.13159 0.83862 0.0
O971 O 0.84518 0.19015 0.85414 0.0
O972 O 0.77792 0.16252 0.91099 0.0
O973 O 0.85375 0.24115 0.87739 0.0
O974 O 0.82362 0.05537 0.86017 0.0
O975 O 0.84919 0.13878 0.88203 0.0
O976 O 0.83376 0.13745 0.92246 0.0
O977 O 0.78034 0.08316 0.9053 0.0
O978 O 0.85578 0.11548 0.85031 0.0
O979 O 0.77097 0.03072 0.88161 0.0
C980 C 0.75887 0.13763 0.89413 0.0
C981 C 0.86432 0.29448 0.90277 0.0
C982 C 0.89097 0.36634 0.90029 0.0
C983 C 0.86475 0.32755 0.89186 0.0
C984 C 0.91624 0.37117 0.9196 0.0
C985 C 0.88931 0.30084 0.92241 0.0
C986 C 0.91522 0.33874 0.93058 0.0
C987 C 0.8212 0.16869 0.8362 0.0
C988 C 0.83868 0.25341 0.89383 0.0
C989 C 0.9606 0.25252 0.96488 0.0
C990 C 0.98378 0.26967 0.94441 0.0
C991 C 0.87443 0.14103 0.86693 0.0
C992 C 0.78514 0.98606 0.86087 0.0
C993 C 0.80186 0.9627 0.86772 0.0
C994 C 0.78924 0.92567 0.8567 0.0
C995 C 0.7605 0.91319 0.83844 0.0
C996 C 0.75649 0.97254 0.84271 0.0
C997 C 0.7444 0.93642 0.83154 0.0
C998 C 0.80365 0.10067 0.92379 0.0
C999 C 0.79809 0.0248 0.87224 0.0
H1000 H 0.84521 0.3232 0.87692 0.0
H1001 H 0.93626 0.40023 0.92668 0.0
H1002 H 0.88864 0.27641 0.93166 0.0
H1003 H 0.93441 0.34298 0.94569 0.0
H1004 H 0.82394 0.97294 0.8818 0.0
H1005 H 0.75048 0.8853 0.82936 0.0
H1006 H 0.74348 0.98998 0.83714 0.0
H1007 H 0.72235 0.9263 0.81747 0.0
C1008 C 0.19157 0.94066 0.15502 0.0
C1009 C 0.18141 0.92045 0.13297 0.0
C1010 C 0.20476 0.98132 0.15636 0.0
C1011 C 0.20856 1.0029 0.13504 0.0
C1012 C 0.19907 0.98273 0.11259 0.0
C1013 C 0.18472 0.94167 0.11189 0.0
C1014 C 0.21366 1.00095 0.18077 0.0
C1015 C 0.2036 1.00444 0.08931 0.0
C1016 C 0.20926 0.10117 0.14076 0.0
C1017 C 0.24976 0.12868 0.14147 0.0
C1018 C 0.19539 0.06032 0.13836 0.0
C1019 C 0.22254 0.04645 0.1364 0.0
C1020 C 0.26333 0.07434 0.13672 0.0
C1021 C 0.2763 0.11474 0.139 0.0
C1022 C 0.15166 0.03187 0.13884 0.0
C1023 C 0.29354 0.06163 0.1345 0.0
H1024 H 0.18814 0.92427 0.17146 0.0
H1025 H 0.17528 0.92602 0.09491 0.0
H1026 H 0.2447 0.02516 0.1815 0.0
H1027 H 0.19483 0.01425 0.18383 0.0
H1028 H 0.20868 0.98002 0.19566 0.0
H1029 H 0.19679 0.98504 0.07331 0.0
H1030 H 0.18376 0.01698 0.08928 0.0
H1031 H 0.23417 0.02942 0.08766 0.0
H1032 H 0.1884 0.11142 0.14291 0.0
H1033 H 0.30763 0.13562 0.139 0.0
H1034 H 0.14425 1.01195 0.15459 0.0
H1035 H 0.14259 0.01316 0.12245 0.0
H1036 H 0.13431 0.04716 0.13993 0.0
H1037 H 0.28814 0.03859 0.14797 0.0
H1038 H 0.32413 0.08644 0.13672 0.0
H1039 H 0.29067 0.04881 0.11643 0.0
C1040 C 0.24841 0.16028 0.6099 0.0
C1041 C 0.25941 0.15271 0.63244 0.0
C1042 C 0.22172 0.17455 0.60796 0.0
C1043 C 0.2035 0.179 0.62897 0.0
C1044 C 0.21203 0.16792 0.65153 0.0
C1045 C 0.24048 0.15608 0.65303 0.0
C1046 C 0.21309 0.1848 0.58337 0.0
C1047 C 0.19135 0.16872 0.67428 0.0
C1048 C 0.16535 0.25193 0.63303 0.0
C1049 C 0.12755 0.23088 0.62291 0.0
C1050 C 0.1899 0.23552 0.63533 0.0
C1051 C 0.17659 0.19625 0.62758 0.0
C1052 C 0.13733 0.17381 0.61877 0.0
C1053 C 0.11369 0.19151 0.6162 0.0
C1054 C 0.23008 0.26162 0.64607 0.0
C1055 C 0.11921 0.13084 0.61217 0.0
H1056 H 0.26086 0.15529 0.59378 0.0
H1057 H 0.24752 0.1488 0.6705 0.0
H1058 H 0.18245 0.16329 0.57815 0.0
H1059 H 0.21595 0.21446 0.58367 0.0
H1060 H 0.23294 0.18421 0.56933 0.0
H1061 H 0.19305 0.14971 0.68853 0.0
H1062 H 0.20549 0.19925 0.68135 0.0
H1063 H 0.1599 0.1588 0.67071 0.0
H1064 H 0.1762 0.2818 0.63932 0.0
H1065 H 0.08448 0.17443 0.60855 0.0
H1066 H 0.24692 0.24647 0.64937 0.0
H1067 H 0.22707 0.27389 0.66346 0.0
H1068 H 0.24723 0.28705 0.63392 0.0
H1069 H 0.11513 0.12757 0.59234 0.0
H1070 H 0.08947 0.11385 0.62034 0.0
H1071 H 0.13694 0.11748 0.61807 0.0
C1072 C 0.94572 0.11759 0.14479 0.0
C1073 C 0.91899 0.13088 0.14908 0.0
C1074 C 0.98617 0.14441 0.14096 0.0
C1075 C 1.0004 0.18564 0.14111 0.0
C1076 C 0.97322 0.1989 0.14524 0.0
C1077 C 0.93315 0.17156 0.14879 0.0
C1078 C 1.014 0.12862 0.13798 0.0
C1079 C 0.98582 0.24198 0.14596 0.0
C1080 C 0.10786 0.25717 0.15739 0.0
C1081 C 0.1262 0.26903 0.1348 0.0
C1082 C 0.06738 0.23012 0.15961 0.0
C1083 C 0.04383 0.21469 0.13868 0.0
C1084 C 0.06205 0.2269 0.11571 0.0
C1085 C 0.10317 0.25303 0.11404 0.0
C1086 C 0.04993 0.21759 0.18449 0.0
C1087 C 0.03808 0.21235 0.09291 0.0
H1088 H 0.93526 0.08625 0.14528 0.0
H1089 H 0.91274 0.18224 0.15158 0.0
H1090 H 0.03095 0.13973 0.12102 0.0
H1091 H 0.03554 0.13925 0.15303 0.0
H1092 H 0.99837 0.09591 0.13773 0.0
H1093 H 0.96457 0.24744 0.15607 0.0
H1094 H 1.01517 0.25966 0.15435 0.0
H1095 H 0.98695 0.25215 0.12725 0.0
H1096 H 0.1256 0.26845 0.17355 0.0
H1097 H 0.11732 0.26068 0.09655 0.0
H1098 H 0.03486 0.18503 0.18607 0.0
H1099 H 0.02752 0.22649 0.18757 0.0
H1100 H 0.07252 0.23077 0.19891 0.0
H1101 H 0.02479 0.17995 0.09143 0.0
H1102 H 0.05604 0.22618 0.07655 0.0
H1103 H 1.01354 0.21877 0.09348 0.0
C1104 C 0.76995 0.91914 0.64144 0.0
C1105 C 0.79593 0.9043 0.64111 0.0
C1106 C 0.78316 0.95948 0.63847 0.0
C1107 C 0.82355 0.98641 0.63406 0.0
C1108 C 0.84996 0.97149 0.63295 0.0
C1109 C 0.83589 0.93074 0.63641 0.0
C1110 C 0.75324 0.97268 0.64019 0.0
C1111 C 0.89346 0.99889 0.6293 0.0
C1112 C 0.85735 0.09004 0.60837 0.0
C1113 C 0.86575 0.1128 0.6294 0.0
C1114 C 0.84277 0.04888 0.60954 0.0
C1115 C 0.83836 0.03018 0.63221 0.0
C1116 C 0.84776 0.05343 0.6534 0.0
C1117 C 0.86094 0.09405 0.65172 0.0
C1118 C 0.83198 0.02535 0.5865 0.0
C1119 C 0.84417 0.03543 0.67798 0.0
H1120 H 0.73888 0.89904 0.64447 0.0
H1121 H 0.85643 0.91986 0.63636 0.0
H1122 H 0.76557 1.00182 0.64901 0.0
H1123 H 0.74379 0.97461 0.62173 0.0
H1124 H 0.7267 0.95135 0.6504 0.0
H1125 H 0.91 0.98279 0.62799 0.0
H1126 H 0.89866 0.01651 0.61268 0.0
H1127 H 0.90544 0.01989 0.6446 0.0
H1128 H 0.86247 0.10445 0.59101 0.0
H1129 H 0.86824 0.1115 0.66807 0.0
H1130 H 0.80101 1.00093 0.58747 0.0
H1131 H 0.85078 1.01188 0.58414 0.0
H1132 H 0.83536 0.0437 0.57044 0.0
H1133 H 0.81304 0.01294 0.68149 0.0
H1134 H 0.85436 0.05773 0.69263 0.0
H1135 H 0.86167 0.02029 0.67864 0.0
C1136 C 0.87541 0.78301 0.11375 0.0
C1137 C 0.912 0.80646 0.12478 0.0
C1138 C 0.84972 0.79745 0.10917 0.0
C1139 C 0.86009 0.83617 0.11636 0.0
C1140 C 0.89791 0.86069 0.12654 0.0
C1141 C 0.9235 0.84563 0.13053 0.0
C1142 C 0.81077 0.7701 0.09765 0.0
C1143 C 0.91092 0.90252 0.13384 0.0
C1144 C 0.79946 0.88118 0.09242 0.0
C1145 C 0.77526 0.87667 0.11215 0.0
C1146 C 0.82711 0.86815 0.09343 0.0
C1147 C 0.83063 0.85003 0.1147 0.0
C1148 C 0.80587 0.84517 0.13458 0.0
C1149 C 0.77933 0.85945 0.13327 0.0
C1150 C 0.8528 0.87408 0.07183 0.0
C1151 C 0.80746 0.82492 0.15732 0.0
H1152 H 0.86656 0.75288 0.10892 0.0
H1153 H 0.95185 0.86398 0.13899 0.0
H1154 H 0.78942 0.75342 0.11208 0.0
H1155 H 0.7997 0.78639 0.08699 0.0
H1156 H 0.81277 0.74846 0.08566 0.0
H1157 H 0.94227 0.91885 0.1395 0.0
H1158 H 0.90673 0.91849 0.11865 0.0
H1159 H 0.89251 0.90249 0.14902 0.0
H1160 H 0.79714 0.89547 0.07628 0.0
H1161 H 0.7621 0.85769 0.14897 0.0
H1162 H 0.84748 0.84515 0.06512 0.0
H1163 H 0.88428 0.89143 0.07706 0.0
H1164 H 0.84724 0.88955 0.05689 0.0
H1165 H 0.80174 0.79486 0.15296 0.0
H1166 H 0.78556 0.82249 0.17091 0.0
H1167 H 0.83727 0.84136 0.16542 0.0
C1168 C 0.93129 0.77318 0.61168 0.0
C1169 C 0.91049 0.75768 0.63324 0.0
C1170 C 0.97254 0.79943 0.61179 0.0
C1171 C 0.99329 0.81218 0.634 0.0
C1172 C 0.97204 0.79707 0.65575 0.0
C1173 C 0.93132 0.77003 0.65506 0.0
C1174 C 0.99395 0.81352 0.58813 0.0
C1175 C 0.99224 0.80982 0.67993 0.0
C1176 C 0.10473 0.85436 0.6396 0.0
C1177 C 0.11936 0.89509 0.64104 0.0
C1178 C 0.06432 0.82741 0.63698 0.0
C1179 C 0.03709 0.84106 0.63485 0.0
C1180 C 0.0518 0.88239 0.63544 0.0
C1181 C 0.09264 0.90885 0.63845 0.0
C1182 C 0.05126 0.78423 0.63664 0.0
C1183 C 0.02415 0.89861 0.63415 0.0
H1184 H 0.91529 0.7651 0.59478 0.0
H1185 H 0.9154 0.75905 0.67186 0.0
H1186 H 1.00745 0.84595 0.58672 0.0
H1187 H 0.01818 0.80668 0.58725 0.0
H1188 H 0.97413 0.79967 0.57244 0.0
H1189 H 0.97138 0.79653 0.6952 0.0
H1190 H 1.01516 0.80124 0.68151 0.0
H1191 H 1.00722 0.84238 0.68154 0.0
H1192 H 0.12507 0.8433 0.64099 0.0
H1193 H 0.10341 0.9402 0.63975 0.0
H1194 H 0.04614 0.77426 0.61769 0.0
H1195 H 0.02368 0.76688 0.64694 0.0
H1196 H 0.07393 0.77816 0.6442 0.0
H1197 H 1.00527 0.88728 0.61789 0.0
H1198 H 0.04009 0.93132 0.63369 0.0
H1199 H 1.00438 0.88852 0.65006 0.0
C1200 C 0.0937 0.85235 0.35366 0.0
C1201 C 0.1153 0.86016 0.37513 0.0
C1202 C 0.05303 0.83872 0.35367 0.0
C1203 C 0.03266 0.83236 0.37578 0.0
C1204 C 0.05417 0.83976 0.39766 0.0
C1205 C 0.09535 0.85442 0.39708 0.0
C1206 C 0.03188 0.83144 0.32983 0.0
C1207 C 0.03369 0.83229 0.42165 0.0
C1208 C 0.93408 0.83091 0.37147 0.0
C1209 C 0.90712 0.79052 0.36871 0.0
C1210 C 0.97474 0.84485 0.37486 0.0
C1211 C 0.98899 0.81787 0.37554 0.0
C1212 C 0.96144 0.77706 0.37351 0.0
C1213 C 0.9212 0.76403 0.37055 0.0
C1214 C 1.00274 0.88864 0.3764 0.0
C1215 C 0.97411 0.74668 0.37423 0.0
H1216 H 0.10892 0.85778 0.3366 0.0
H1217 H 0.11196 0.86185 0.41374 0.0
H1218 H 1.00853 0.80006 0.32848 0.0
H1219 H 1.01732 0.84945 0.32864 0.0
H1220 H 0.05203 0.83862 0.31421 0.0
H1221 H 0.05413 0.83833 0.437 0.0
H1222 H 0.02007 0.85107 0.42351 0.0
H1223 H 1.00963 0.80116 0.42267 0.0
H1224 H 0.92369 0.85177 0.36996 0.0
H1225 H 0.9006 0.73269 0.36913 0.0
H1226 H 0.02207 0.8985 0.36029 0.0
H1227 H 0.02201 0.89569 0.39244 0.0
H1228 H 0.98705 0.90561 0.37742 0.0
H1229 H 1.00118 0.7562 0.36351 0.0
H1230 H 0.95096 0.71759 0.36736 0.0
H1231 H 0.98007 0.74294 0.39321 0.0
C1232 C 0.11991 0.9333 0.8682 0.0
C1233 C 0.13331 0.90667 0.86376 0.0
C1234 C 0.14667 0.97397 0.87176 0.0
C1235 C 0.18793 0.98857 0.87102 0.0
C1236 C 0.20125 0.96139 0.86701 0.0
C1237 C 0.17403 0.92114 0.8639 0.0
C1238 C 0.13076 1.00164 0.87505 0.0
C1239 C 0.2443 0.97426 0.86586 0.0
C1240 C 0.25803 0.09542 0.85227 0.0
C1241 C 0.27183 0.11498 0.87439 0.0
C1242 C 0.23076 0.05478 0.85102 0.0
C1243 C 0.21695 0.0323 0.87247 0.0
C1244 C 0.23124 0.05174 0.89496 0.0
C1245 C 0.25765 0.09297 0.89568 0.0
C1246 C 0.21648 0.03594 0.82661 0.0
C1247 C 0.21872 0.02895 0.91824 0.0
H1248 H 0.08855 0.92265 0.86792 0.0
H1249 H 0.18484 0.90083 0.86108 0.0
H1250 H 0.14318 0.01956 0.89158 0.0
H1251 H 0.1399 0.02235 0.85959 0.0
H1252 H 0.09814 0.98574 0.8763 0.0
H1253 H 0.24965 0.95265 0.85605 0.0
H1254 H 0.26144 1.00324 0.85694 0.0
H1255 H 0.25508 0.97639 0.8845 0.0
H1256 H 0.26812 0.11227 0.83571 0.0
H1257 H 0.26693 0.10798 0.91287 0.0
H1258 H 0.18387 0.02083 0.82585 0.0
H1259 H 0.22511 0.01329 0.82361 0.0
H1260 H 0.22866 0.0577 0.8117 0.0
H1261 H 0.18642 0.01522 0.92053 0.0
H1262 H 0.23352 0.04788 0.93414 0.0
H1263 H 0.22568 1.00477 0.91771 0.0
C1264 C 0.17232 0.24856 0.34992 0.0
C1265 C 0.16456 0.26203 0.37153 0.0
C1266 C 0.18579 0.2213 0.34972 0.0
C1267 C 0.19185 0.2067 0.37172 0.0
C1268 C 0.18487 0.22085 0.39371 0.0
C1269 C 0.17058 0.24769 0.39335 0.0
C1270 C 0.19346 0.20801 0.32581 0.0
C1271 C 0.19243 0.20757 0.4176 0.0
C1272 C 0.19197 0.10867 0.36758 0.0
C1273 C 0.2323 0.12158 0.36535 0.0
C1274 C 0.17845 0.13587 0.37053 0.0
C1275 C 0.20579 0.177 0.37136 0.0
C1276 C 0.24649 0.18965 0.36986 0.0
C1277 C 0.25909 0.16203 0.36722 0.0
C1278 C 0.13479 0.12068 0.37171 0.0
C1279 C 0.27739 0.23239 0.37124 0.0
H1280 H 0.1673 0.25908 0.33295 0.0
H1281 H 0.16365 0.25706 0.41012 0.0
H1282 H 0.2248 0.21585 0.32472 0.0
H1283 H 0.17532 0.17549 0.32425 0.0
H1284 H 0.18679 0.22159 0.31028 0.0
H1285 H 0.18671 0.22204 0.43306 0.0
H1286 H 0.1735 0.17518 0.41939 0.0
H1287 H 0.22348 0.21441 0.41849 0.0
H1288 H 0.17093 0.07748 0.36606 0.0
H1289 H 0.29035 0.17232 0.36619 0.0
H1290 H 0.12555 0.131 0.35569 0.0
H1291 H 0.12768 0.13259 0.38788 0.0
H1292 H 0.1174 0.08799 0.3723 0.0
H1293 H 0.26775 0.25121 0.36209 0.0
H1294 H 0.30567 0.23821 0.36309 0.0
H1295 H 0.28279 0.24042 0.39053 0.0
C1296 C 0.11269 0.25726 0.87085 0.0
C1297 C 0.12703 0.23114 0.8681 0.0
C1298 C 0.07223 0.24388 0.8726 0.0
C1299 C 0.04454 0.20297 0.87231 0.0
C1300 C 0.05894 0.17617 0.87069 0.0
C1301 C 0.09992 0.19051 0.86861 0.0
C1302 C 0.05963 0.2741 0.87496 0.0
C1303 C 0.03092 0.13233 0.8702 0.0
C1304 C 0.93694 0.16509 0.89162 0.0
C1305 C 0.91818 0.16052 0.86933 0.0
C1306 C 0.97802 0.17956 0.89302 0.0
C1307 C 1.00082 0.18853 0.8716 0.0
C1308 C 0.98179 0.18409 0.84913 0.0
C1309 C 0.94101 0.17012 0.8483 0.0
C1310 C 0.99696 0.185 0.91741 0.0
C1311 C 1.00457 0.19407 0.82581 0.0
H1312 H 0.13334 0.28868 0.87122 0.0
H1313 H 0.11056 0.16995 0.86646 0.0
H1314 H 0.03276 0.26573 0.86427 0.0
H1315 H 0.0536 0.27586 0.89425 0.0
H1316 H 0.08292 0.30381 0.86908 0.0
H1317 H 0.04656 0.11527 0.8706 0.0
H1318 H 1.01056 0.12346 0.8858 0.0
H1319 H 1.01272 0.12441 0.85361 0.0
H1320 H 0.91941 0.15677 0.90792 0.0
H1321 H 0.92671 0.16624 0.83097 0.0
H1322 H 0.02067 0.21607 0.91962 0.0
H1323 H 1.01077 0.16632 0.91883 0.0
H1324 H 0.97551 0.17741 0.93235 0.0
H1325 H 0.02807 0.22549 0.82595 0.0
H1326 H 0.98554 0.18886 0.80981 0.0
H1327 H 0.0191 0.17611 0.82396 0.0
C1328 C 0.86102 0.10373 0.36857 0.0
C1329 C 0.9014 0.11747 0.36601 0.0
C1330 C 0.8336 0.06347 0.37139 0.0
C1331 C 0.84644 0.03549 0.37242 0.0
C1332 C 0.88749 0.04933 0.37081 0.0
C1333 C 0.91443 0.09005 0.3677 0.0
C1334 C 0.79075 0.05119 0.37306 0.0
C1335 C 0.90282 0.02089 0.37119 0.0
C1336 C 0.77801 0.92936 0.3949 0.0
C1337 C 0.76206 0.90908 0.37323 0.0
C1338 C 0.80453 0.97058 0.39509 0.0
C1339 C 0.81687 0.99183 0.37302 0.0
C1340 C 0.80091 0.97116 0.35117 0.0
C1341 C 0.77379 0.93042 0.35159 0.0
C1342 C 0.81953 0.99135 0.41887 0.0
C1343 C 0.813 0.99198 0.32716 0.0
H1344 H 0.8506 0.12466 0.3679 0.0
H1345 H 0.94552 0.10018 0.36558 0.0
H1346 H 0.77282 0.02547 0.36132 0.0
H1347 H 0.78136 0.04292 0.39193 0.0
H1348 H 0.78497 0.07525 0.36797 0.0
H1349 H 0.93549 0.03621 0.3711 0.0
H1350 H 0.89188 1.00182 0.38738 0.0
H1351 H 0.89166 1.00134 0.35518 0.0
H1352 H 0.77018 0.91296 0.41165 0.0
H1353 H 0.76223 0.91487 0.33472 0.0
H1354 H 0.81346 0.01606 0.42033 0.0
H1355 H 0.85189 1.00413 0.41993 0.0
H1356 H 0.80572 0.97125 0.43444 0.0
H1357 H 0.80546 0.01573 0.32645 0.0
H1358 H 0.79847 0.97167 0.31177 0.0
H1359 H 0.84536 1.00604 0.32494 0.0
C1360 C 0.86789 0.77462 0.89455 0.0
C1361 C 0.87215 0.75852 0.87292 0.0
C1362 C 0.85363 0.80153 0.89465 0.0
C1363 C 0.84473 0.81385 0.87256 0.0
C1364 C 0.84886 0.79734 0.85078 0.0
C1365 C 0.86244 0.77018 0.85125 0.0
C1366 C 0.84825 0.81693 0.91838 0.0
C1367 C 0.83912 0.80857 0.8268 0.0
C1368 C 0.77764 0.85874 0.8677 0.0
C1369 C 0.8044 0.89882 0.86407 0.0
C1370 C 0.79024 0.83127 0.87128 0.0
C1371 C 0.83098 0.84375 0.8718 0.0
C1372 C 0.85836 0.88467 0.86924 0.0
C1373 C 0.8448 0.9117 0.86548 0.0
C1374 C 0.75939 0.78886 0.87459 0.0
C1375 C 0.90203 0.89968 0.86935 0.0
H1376 H 0.87626 0.76665 0.91133 0.0
H1377 H 0.86609 0.75833 0.83441 0.0
H1378 H 0.86722 0.84944 0.91902 0.0
H1379 H 0.8173 0.81013 0.92014 0.0
H1380 H 0.85547 0.80391 0.93398 0.0
H1381 H 0.80781 0.80096 0.82658 0.0
H1382 H 0.85731 0.84086 0.82408 0.0
H1383 H 0.84417 0.79342 0.81145 0.0
H1384 H 0.74636 0.84857 0.86724 0.0
H1385 H 0.8658 0.94261 0.86261 0.0
H1386 H 0.75683 0.78258 0.89414 0.0
H1387 H 0.76759 0.76913 0.86517 0.0
H1388 H 0.73009 0.78252 0.86791 0.0
H1389 H 0.91031 0.88905 0.88563 0.0
H1390 H 0.91956 0.93237 0.8689 0.0
H1391 H 0.90993 0.88795 0.85342 0.0
C1392 C 0.13825 0.69887 0.09731 0.0
C1393 C 0.14076 0.71567 0.12001 0.0
C1394 C 0.13622 0.66202 0.09495 0.0
C1395 C 0.13733 0.64153 0.11579 0.0
C1396 C 0.13782 0.65757 0.1388 0.0
C1397 C 0.14001 0.69454 0.14059 0.0
C1398 C 0.13523 0.64615 0.07003 0.0
C1399 C 0.13834 0.63682 0.16157 0.0
C1400 C 0.10811 0.53316 0.10766 0.0
C1401 C 0.14472 0.53512 0.10468 0.0
C1402 C 0.10529 0.56715 0.11199 0.0
C1403 C 0.1399 0.60449 0.11339 0.0
C1404 C 0.17703 0.60651 0.11153 0.0
C1405 C 0.179 0.57191 0.10729 0.0
C1406 C 0.06511 0.56322 0.11413 0.0
C1407 C 0.21477 0.64554 0.11305 0.0
H1408 H 0.14022 0.71567 0.08132 0.0
H1409 H 0.14313 0.70794 0.15816 0.0
H1410 H 0.16316 0.64628 0.06661 0.0
H1411 H 0.11095 0.6152 0.0686 0.0
H1412 H 0.1313 0.66383 0.0558 0.0
H1413 H 0.13402 0.6506 0.17791 0.0
H1414 H 0.11503 0.60536 0.16101 0.0
H1415 H 0.16702 0.63781 0.16313 0.0
H1416 H 0.08137 0.50491 0.1059 0.0
H1417 H 0.20737 0.57396 0.10481 0.0
H1418 H 0.05996 0.57782 0.09855 0.0
H1419 H 0.06339 0.57824 0.13065 0.0
H1420 H 0.04118 0.53196 0.11465 0.0
H1421 H 0.21627 0.66459 0.09781 0.0
H1422 H 0.24122 0.64214 0.11248 0.0
H1423 H 0.21544 0.66101 0.12994 0.0
C1424 C 0.58384 0.09868 0.61571 0.0
C1425 C 0.61783 0.13437 0.6097 0.0
C1426 C 0.54737 0.09662 0.61978 0.0
C1427 C 0.54437 0.13106 0.6178 0.0
C1428 C 0.57921 0.16768 0.61361 0.0
C1429 C 0.61545 0.16892 0.60965 0.0
C1430 C 0.51148 0.05708 0.62467 0.0
C1431 C 0.57769 0.20527 0.61159 0.0
C1432 C 0.45059 0.12258 0.59137 0.0
C1433 C 0.43235 0.12836 0.61143 0.0
C1434 C 0.48606 0.12212 0.59346 0.0
C1435 C 0.50446 0.1279 0.61627 0.0
C1436 C 0.4851 0.13171 0.63691 0.0
C1437 C 0.44937 0.13212 0.63424 0.0
C1438 C 0.50471 0.11707 0.57093 0.0
C1439 C 0.50302 0.13742 0.66165 0.0
H1440 H 0.58539 0.07183 0.61608 0.0
H1441 H 0.64134 0.19658 0.60493 0.0
H1442 H 0.49571 0.05887 0.64077 0.0
H1443 H 0.49085 0.04845 0.6092 0.0
H1444 H 0.51906 0.03362 0.62763 0.0
H1445 H 0.60754 0.23175 0.61131 0.0
H1446 H 0.56219 0.20472 0.59473 0.0
H1447 H 0.56086 0.20785 0.62685 0.0
H1448 H 0.43769 0.11989 0.57368 0.0
H1449 H 0.43586 0.13728 0.6498 0.0
H1450 H 0.51055 0.09233 0.57323 0.0
H1451 H 0.5334 0.14411 0.56766 0.0
H1452 H 0.48588 0.11119 0.55475 0.0
H1453 H 0.515 0.11741 0.66455 0.0
H1454 H 0.4813 0.13224 0.67607 0.0
H1455 H 0.52784 0.16808 0.66332 0.0
C1456 C 0.45822 0.62367 0.10877 0.0
C1457 C 0.49579 0.62764 0.10838 0.0
C1458 C 0.42415 0.58648 0.11224 0.0
C1459 C 0.42758 0.55233 0.11548 0.0
C1460 C 0.46567 0.55688 0.11711 0.0
C1461 C 0.49913 0.59426 0.1135 0.0
C1462 C 0.38428 0.58329 0.11064 0.0
C1463 C 0.47104 0.52175 0.12107 0.0
C1464 C 0.33369 0.45453 0.13053 0.0
C1465 C 0.32099 0.43839 0.10746 0.0
C1466 C 0.36904 0.49084 0.13371 0.0
C1467 C 0.39189 0.51178 0.11333 0.0
C1468 C 0.37988 0.49442 0.09021 0.0
C1469 C 0.34477 0.45824 0.08761 0.0
C1470 C 0.38069 0.50755 0.15877 0.0
C1471 C 0.40332 0.51485 0.06792 0.0
H1472 H 0.45524 0.6491 0.10469 0.0
H1473 H 0.52806 0.59706 0.11342 0.0
H1474 H 0.36971 0.56831 0.09358 0.0
H1475 H 0.36524 0.56519 0.1257 0.0
H1476 H 0.38637 0.61262 0.11107 0.0
H1477 H 0.50238 0.53045 0.12392 0.0
H1478 H 0.45375 0.50466 0.13694 0.0
H1479 H 0.45981 0.50189 0.10521 0.0
H1480 H 0.3152 0.4398 0.14595 0.0
H1481 H 0.33501 0.44603 0.06973 0.0
H1482 H 0.37336 0.53125 0.16123 0.0
H1483 H 0.41284 0.52077 0.16157 0.0
H1484 H 0.36495 0.48472 0.17278 0.0
H1485 H 0.40384 0.5432 0.06537 0.0
H1486 H 0.39092 0.49675 0.05141 0.0
H1487 H 0.43423 0.5217 0.07003 0.0
C1488 C 0.92225 0.49093 0.60866 0.0
C1489 C 0.8859 0.48918 0.60489 0.0
C1490 C 0.92493 0.45657 0.61152 0.0
C1491 C 0.89045 0.41904 0.61056 0.0
C1492 C 0.8534 0.41717 0.60855 0.0
C1493 C 0.85155 0.45215 0.60578 0.0
C1494 C 0.96501 0.46039 0.61403 0.0
C1495 C 0.81576 0.378 0.60773 0.0
C1496 C 0.89563 0.33268 0.58242 0.0
C1497 C 0.89243 0.30931 0.60239 0.0
C1498 C 0.89635 0.36876 0.58501 0.0
C1499 C 0.89348 0.38219 0.60825 0.0
C1500 C 0.89233 0.3597 0.62867 0.0
C1501 C 0.89156 0.32342 0.6255 0.0
C1502 C 0.89852 0.39171 0.56265 0.0
C1503 C 0.88988 0.37279 0.65383 0.0
H1504 H 0.94901 0.51937 0.60828 0.0
H1505 H 0.82337 0.45028 0.60277 0.0
H1506 H 0.96526 0.44239 0.62937 0.0
H1507 H 0.97191 0.44905 0.59751 0.0
H1508 H 0.98858 0.49142 0.61684 0.0
H1509 H 0.78929 0.38131 0.60892 0.0
H1510 H 0.8144 0.36274 0.5906 0.0
H1511 H 0.81502 0.35889 0.62271 0.0
H1512 H 0.89603 0.32184 0.5645 0.0
H1513 H 0.88831 0.30529 0.64104 0.0
H1514 H 0.92334 0.4224 0.5641 0.0
H1515 H 0.87109 0.39314 0.56083 0.0
H1516 H 0.9025 0.37829 0.54602 0.0
H1517 H 0.91057 0.40478 0.65616 0.0
H1518 H 0.89647 0.35641 0.66769 0.0
H1519 H 0.85972 0.36754 0.65702 0.0
C1520 C 0.58189 0.8971 0.13147 0.0
C1521 C 0.60291 0.90646 0.10974 0.0
C1522 C 0.5453 0.89597 0.13295 0.0
C1523 C 0.52909 0.90363 0.1121 0.0
C1524 C 0.55146 0.91511 0.09056 0.0
C1525 C 0.58783 0.91632 0.08968 0.0
C1526 C 0.52316 0.88448 0.15646 0.0
C1527 C 0.53602 0.92403 0.06789 0.0
C1528 C 0.41895 0.85842 0.09951 0.0
C1529 C 0.41393 0.89134 0.10141 0.0
C1530 C 0.45562 0.86131 0.10454 0.0
C1531 C 0.48813 0.89789 0.1119 0.0
C1532 C 0.48226 0.93034 0.11563 0.0
C1533 C 0.44547 0.92676 0.11023 0.0
C1534 C 0.46031 0.82583 0.10037 0.0
C1535 C 0.51556 0.9696 0.12396 0.0
H1536 H 0.59296 0.88867 0.14692 0.0
H1537 H 0.60382 0.9232 0.07279 0.0
H1538 H 0.50954 0.90287 0.16011 0.0
H1539 H 0.49911 0.85337 0.15539 0.0
H1540 H 0.5426 0.88734 0.17183 0.0
H1541 H 0.55778 0.93429 0.05297 0.0
H1542 H 0.50892 0.89718 0.06186 0.0
H1543 H 0.52807 0.94702 0.07149 0.0
H1544 H 0.39493 0.83102 0.09263 0.0
H1545 H 0.44178 0.95227 0.11208 0.0
H1546 H 0.47491 0.82101 0.11607 0.0
H1547 H 0.4794 0.8311 0.08443 0.0
H1548 H 0.43163 0.79864 0.09719 0.0
H1549 H 0.53051 0.96565 0.1398 0.0
H1550 H 0.50524 0.99045 0.12881 0.0
H1551 H 0.5378 0.98302 0.10942 0.0
C1552 C 0.69936 0.57188 0.63473 0.0
C1553 C 0.71104 0.58852 0.6117 0.0
C1554 C 0.66361 0.53594 0.63812 0.0
C1555 C 0.63921 0.51597 0.61799 0.0
C1556 C 0.65024 0.53399 0.59499 0.0
C1557 C 0.6858 0.56968 0.59218 0.0
C1558 C 0.65313 0.51848 0.66304 0.0
C1559 C 0.62522 0.51472 0.57299 0.0
C1560 C 0.56963 0.4045 0.61251 0.0
C1561 C 0.53258 0.40173 0.61349 0.0
C1562 C 0.60466 0.44106 0.61578 0.0
C1563 C 0.6028 0.47584 0.62023 0.0
C1564 C 0.56536 0.47246 0.62316 0.0
C1565 C 0.53093 0.4357 0.61973 0.0
C1566 C 0.64376 0.44294 0.61274 0.0
C1567 C 0.56162 0.50826 0.62835 0.0
H1568 H 0.71896 0.58582 0.64986 0.0
H1569 H 0.69477 0.58226 0.57432 0.0
H1570 H 0.62136 0.50642 0.66674 0.0
H1571 H 0.65919 0.49376 0.66437 0.0
H1572 H 0.67052 0.54052 0.67715 0.0
H1573 H 0.637 0.53327 0.5566 0.0
H1574 H 0.62366 0.48607 0.56958 0.0
H1575 H 0.59474 0.50863 0.57604 0.0
H1576 H 0.57138 0.37866 0.60757 0.0
H1577 H 0.50247 0.43388 0.62077 0.0
H1578 H 0.66404 0.46022 0.62758 0.0
H1579 H 0.65752 0.45817 0.59559 0.0
H1580 H 0.64066 0.41317 0.61236 0.0
H1581 H 0.58034 0.5247 0.64395 0.0
H1582 H 0.53077 0.5004 0.63225 0.0
H1583 H 0.57217 0.52842 0.61262 0.0
C1584 C 0.32771 0.88714 0.37236 0.0
C1585 C 0.3153 0.89109 0.39539 0.0
C1586 C 0.36387 0.88778 0.36911 0.0
C1587 C 0.38783 0.89182 0.3894 0.0
C1588 C 0.37604 0.89776 0.41242 0.0
C1589 C 0.34017 0.89727 0.41508 0.0
C1590 C 0.3753 0.88212 0.34414 0.0
C1591 C 0.40049 0.90289 0.43461 0.0
C1592 C 0.45762 0.85032 0.39471 0.0
C1593 C 0.49457 0.88478 0.39458 0.0
C1594 C 0.42263 0.85177 0.39119 0.0
C1595 C 0.42444 0.88851 0.38731 0.0
C1596 C 0.46187 0.92287 0.38519 0.0
C1597 C 0.49627 0.92062 0.38892 0.0
C1598 C 0.38354 0.81427 0.3934 0.0
C1599 C 0.46554 0.96251 0.38054 0.0
H1600 H 0.30841 0.88172 0.35709 0.0
H1601 H 0.33065 0.90014 0.43294 0.0
H1602 H 0.4072 0.90201 0.34095 0.0
H1603 H 0.36923 0.8514 0.34224 0.0
H1604 H 0.35843 0.88755 0.33004 0.0
H1605 H 0.38803 0.9087 0.45104 0.0
H1606 H 0.40239 0.8759 0.43764 0.0
H1607 H 0.43091 0.92769 0.43204 0.0
H1608 H 0.45585 0.82256 0.39916 0.0
H1609 H 0.52468 0.94741 0.38851 0.0
H1610 H 0.36386 0.81179 0.37831 0.0
H1611 H 0.36898 0.81489 0.41041 0.0
H1612 H 0.38682 0.78771 0.3935 0.0
H1613 H 0.44702 0.96072 0.36494 0.0
H1614 H 0.49642 0.9857 0.37692 0.0
H1615 H 0.45473 0.97152 0.39642 0.0
C1616 C 0.62635 0.452 0.89678 0.0
C1617 C 0.62986 0.48944 0.89668 0.0
C1618 C 0.58932 0.41745 0.89373 0.0
C1619 C 0.5548 0.42019 0.89044 0.0
C1620 C 0.5588 0.45805 0.88841 0.0
C1621 C 0.59604 0.49199 0.89156 0.0
C1622 C 0.58676 0.37786 0.89572 0.0
C1623 C 0.52328 0.46275 0.88452 0.0
C1624 C 0.45734 0.3253 0.87578 0.0
C1625 C 0.44146 0.31268 0.89889 0.0
C1626 C 0.49348 0.36082 0.87247 0.0
C1627 C 0.51447 0.38409 0.89276 0.0
C1628 C 0.49727 0.3722 0.91592 0.0
C1629 C 0.46134 0.33683 0.91865 0.0
C1630 C 0.51006 0.37224 0.84738 0.0
C1631 C 0.51764 0.39606 0.9381 0.0
H1632 H 0.65207 0.44955 0.90085 0.0
H1633 H 0.59839 0.52075 0.89121 0.0
H1634 H 0.57213 0.36362 0.91291 0.0
H1635 H 0.56864 0.35827 0.88084 0.0
H1636 H 0.61625 0.38038 0.89528 0.0
H1637 H 0.53154 0.49387 0.88108 0.0
H1638 H 0.50566 0.44447 0.86907 0.0
H1639 H 0.5041 0.45226 0.90069 0.0
H1640 H 0.44261 0.30654 0.86043 0.0
H1641 H 0.44937 0.32713 0.93657 0.0
H1642 H 0.53443 0.36586 0.84517 0.0
H1643 H 0.52235 0.40425 0.84432 0.0
H1644 H 0.48745 0.35566 0.83339 0.0
H1645 H 0.54606 0.39683 0.94073 0.0
H1646 H 0.49961 0.38382 0.95464 0.0
H1647 H 0.52428 0.42691 0.93581 0.0
C1648 C 0.10567 0.5827 0.39224 0.0
C1649 C 0.14178 0.61682 0.39737 0.0
C1650 C 0.1031 0.5459 0.38839 0.0
C1651 C 0.13743 0.54264 0.38979 0.0
C1652 C 0.17436 0.57751 0.39318 0.0
C1653 C 0.17611 0.61411 0.39687 0.0
C1654 C 0.06323 0.51 0.38431 0.0
C1655 C 0.21183 0.57572 0.39461 0.0
C1656 C 0.12921 0.44895 0.41643 0.0
C1657 C 0.13392 0.43006 0.39629 0.0
C1658 C 0.12914 0.48467 0.41433 0.0
C1659 C 0.13405 0.50258 0.39142 0.0
C1660 C 0.13675 0.48257 0.37075 0.0
C1661 C 0.13694 0.44669 0.37344 0.0
C1662 C 0.12541 0.50408 0.43691 0.0
C1663 C 0.14139 0.49988 0.34591 0.0
H1664 H 0.07897 0.58448 0.39234 0.0
H1665 H 0.20409 0.64008 0.40093 0.0
H1666 H 0.06407 0.49343 0.36833 0.0
H1667 H 0.0552 0.48999 0.40006 0.0
H1668 H 0.03985 0.51774 0.3816 0.0
H1669 H 0.23842 0.60551 0.39443 0.0
H1670 H 0.21192 0.56057 0.41148 0.0
H1671 H 0.21355 0.5584 0.37933 0.0
H1672 H 0.12708 0.43638 0.43415 0.0
H1673 H 0.14128 0.43272 0.3578 0.0
H1674 H 0.1007 0.51003 0.43507 0.0
H1675 H 0.15268 0.53282 0.43965 0.0
H1676 H 0.1203 0.48569 0.45321 0.0
H1677 H 0.12132 0.51185 0.34332 0.0
H1678 H 0.13552 0.47776 0.3316 0.0
H1679 H 0.17195 0.52463 0.34373 0.0
C1680 C 0.69305 0.12135 0.90909 0.0
C1681 C 0.71771 0.12816 0.88922 0.0
C1682 C 0.65751 0.12165 0.90695 0.0
C1683 C 0.64589 0.12912 0.88428 0.0
C1684 C 0.66957 0.13373 0.86376 0.0
C1685 C 0.70535 0.13341 0.86648 0.0
C1686 C 0.63331 0.11583 0.92935 0.0
C1687 C 0.65828 0.14107 0.83915 0.0
C1688 C 0.53805 0.10238 0.88465 0.0
C1689 C 0.54054 0.1382 0.89137 0.0
C1690 C 0.572 0.0996 0.88028 0.0
C1691 C 0.60976 0.13338 0.88282 0.0
C1692 C 0.61237 0.17023 0.88776 0.0
C1693 C 0.57781 0.17222 0.8919 0.0
C1694 C 0.56746 0.05985 0.87466 0.0
C1695 C 0.65185 0.20713 0.89047 0.0
H1696 H 0.70256 0.11747 0.92673 0.0
H1697 H 0.72451 0.1393 0.85109 0.0
H1698 H 0.63222 0.14306 0.93321 0.0
H1699 H 0.60262 0.09171 0.92652 0.0
H1700 H 0.64547 0.10863 0.94539 0.0
H1701 H 0.67543 0.13694 0.82465 0.0
H1702 H 0.62645 0.12114 0.83571 0.0
H1703 H 0.66397 0.17175 0.83824 0.0
H1704 H 0.50938 0.07593 0.884 0.0
H1705 H 0.58017 0.19994 0.89721 0.0
H1706 H 0.57653 0.04907 0.89054 0.0
H1707 H 0.58684 0.06214 0.85945 0.0
H1708 H 0.53661 0.03768 0.87004 0.0
H1709 H 0.66615 0.20532 0.90731 0.0
H1710 H 0.64919 0.23403 0.89127 0.0
H1711 H 0.67144 0.20999 0.87526 0.0
C1712 C 0.41119 0.56824 0.39209 0.0
C1713 C 0.40798 0.53096 0.39159 0.0
C1714 C 0.44787 0.60289 0.38856 0.0
C1715 C 0.48229 0.60038 0.38431 0.0
C1716 C 0.47844 0.56265 0.38171 0.0
C1717 C 0.44155 0.52858 0.38545 0.0
C1718 C 0.45031 0.64235 0.39122 0.0
C1719 C 0.51386 0.55826 0.37668 0.0
C1720 C 0.57813 0.6969 0.37011 0.0
C1721 C 0.59425 0.70875 0.39325 0.0
C1722 C 0.54259 0.66088 0.36655 0.0
C1723 C 0.52251 0.63648 0.38663 0.0
C1724 C 0.54018 0.64755 0.40972 0.0
C1725 C 0.57552 0.68335 0.41269 0.0
C1726 C 0.52559 0.65021 0.34151 0.0
C1727 C 0.52072 0.62251 0.43167 0.0
H1728 H 0.38563 0.57049 0.39695 0.0
H1729 H 0.43935 0.49989 0.3848 0.0
H1730 H 0.46569 0.65639 0.4083 0.0
H1731 H 0.46768 0.6622 0.37625 0.0
H1732 H 0.42075 0.63967 0.3915 0.0
H1733 H 0.50548 0.52736 0.37237 0.0
H1734 H 0.53108 0.57744 0.36143 0.0
H1735 H 0.53346 0.5678 0.39268 0.0
H1736 H 0.59203 0.71664 0.35503 0.0
H1737 H 0.58775 0.69249 0.43063 0.0
H1738 H 0.50157 0.6572 0.33969 0.0
H1739 H 0.51279 0.61824 0.33807 0.0
H1740 H 0.54813 0.66694 0.32753 0.0
H1741 H 0.49217 0.62113 0.435 0.0
H1742 H 0.53919 0.6342 0.4481 0.0
H1743 H 0.51447 0.59194 0.42861 0.0
C1744 C 0.90027 0.57504 0.87052 0.0
C1745 C 0.90479 0.59088 0.89376 0.0
C1746 C 0.89977 0.53905 0.8667 0.0
C1747 C 0.90325 0.51817 0.88663 0.0
C1748 C 0.90989 0.53538 0.90987 0.0
C1749 C 0.91052 0.57126 0.91308 0.0
C1750 C 0.89341 0.52253 0.84153 0.0
C1751 C 0.91445 0.51496 0.93169 0.0
C1752 C 0.85838 0.40639 0.89091 0.0
C1753 C 0.89205 0.40255 0.89048 0.0
C1754 C 0.86115 0.44351 0.88776 0.0
C1755 C 0.89844 0.47769 0.88396 0.0
C1756 C 0.93195 0.47326 0.88144 0.0
C1757 C 0.9284 0.43595 0.88483 0.0
C1758 C 0.82452 0.4466 0.89039 0.0
C1759 C 0.97212 0.50845 0.87687 0.0
H1760 H 0.89517 0.58963 0.85552 0.0
H1761 H 0.91382 0.58327 0.9311 0.0
H1762 H 0.91249 0.50967 0.83793 0.0
H1763 H 0.8624 0.49859 0.83959 0.0
H1764 H 0.89937 0.54538 0.82772 0.0
H1765 H 0.92108 0.53299 0.94832 0.0
H1766 H 0.88693 0.48653 0.93463 0.0
H1767 H 0.93847 0.50828 0.92872 0.0
H1768 H 0.83027 0.38094 0.89542 0.0
H1769 H 0.95458 0.43325 0.88431 0.0
H1770 H 0.82266 0.46467 0.87561 0.0
H1771 H 0.82582 0.46156 0.90763 0.0
H1772 H 0.79735 0.41724 0.89029 0.0
H1773 H 0.97082 0.52631 0.86177 0.0
H1774 H 0.99434 0.49969 0.87255 0.0
H1775 H 0.98211 0.52759 0.89308 0.0
C1776 C 0.20111 0.35389 0.30474 0.0
C1777 C 0.18661 0.37619 0.31576 0.0
C1778 C 0.2064 0.35498 0.27955 0.0
C1779 C 0.19861 0.38026 0.26509 0.0
C1780 C 0.18563 0.40416 0.27644 0.0
C1781 C 0.17893 0.40113 0.30148 0.0
C1782 C 0.2194 0.32824 0.26846 0.0
C1783 C 0.17825 0.43258 0.26213 0.0
C1784 C 0.24573 0.40419 0.20251 0.0
C1785 C 0.21364 0.38077 0.18744 0.0
C1786 C 0.24102 0.40546 0.22758 0.0
C1787 C 0.20355 0.3814 0.23815 0.0
C1788 C 0.17097 0.35783 0.2229 0.0
C1789 C 0.17626 0.35845 0.19772 0.0
C1790 C 0.27649 0.43186 0.24277 0.0
C1791 C 0.13086 0.33043 0.23326 0.0
H1792 H 0.20615 0.33386 0.31564 0.0
H1793 H 0.16712 0.41798 0.30993 0.0
H1794 H 0.20204 0.31383 0.252 0.0
H1795 H 0.25077 0.34598 0.26322 0.0
H1796 H 0.21641 0.30502 0.28119 0.0
H1797 H 0.17277 0.45224 0.27393 0.0
H1798 H 0.20384 0.451 0.25036 0.0
H1799 H 0.15227 0.41601 0.25031 0.0
H1800 H 0.27484 0.42107 0.19466 0.0
H1801 H 0.15158 0.33961 0.18622 0.0
H1802 H 0.28597 0.41369 0.25295 0.0
H1803 H 0.26915 0.44836 0.25607 0.0
H1804 H 0.30167 0.45328 0.23163 0.0
H1805 H 0.13303 0.31069 0.24676 0.0
H1806 H 0.10924 0.31203 0.21921 0.0
H1807 H 0.11955 0.34772 0.24264 0.0
C1808 C 0.85667 0.23796 0.69691 0.0
C1809 C 0.84576 0.20447 0.68263 0.0
C1810 C 0.8523 0.23518 0.72211 0.0
C1811 C 0.83791 0.19817 0.73353 0.0
C1812 C 0.82663 0.16422 0.71909 0.0
C1813 C 0.83006 0.16767 0.69381 0.0
C1814 C 0.86411 0.27211 0.7365 0.0
C1815 C 0.81299 0.12455 0.73042 0.0
C1816 C 0.8641 0.1964 0.79993 0.0
C1817 C 0.82784 0.18377 0.8112 0.0
C1818 C 0.86794 0.20131 0.77471 0.0
C1819 C 0.83506 0.19491 0.76053 0.0
C1820 C 0.79894 0.18421 0.77218 0.0
C1821 C 0.79556 0.17792 0.79723 0.0
C1822 C 0.90702 0.21235 0.76334 0.0
C1823 C 0.76346 0.17834 0.75811 0.0
H1824 H 0.86942 0.26661 0.68832 0.0
H1825 H 0.82267 0.14193 0.6829 0.0
H1826 H 0.84116 0.26696 0.75001 0.0
H1827 H 0.89175 0.28051 0.74642 0.0
H1828 H 0.86909 0.29723 0.72484 0.0
H1829 H 0.80546 0.10103 0.71682 0.0
H1830 H 0.83659 0.12629 0.74228 0.0
H1831 H 0.78679 0.11625 0.7418 0.0
H1832 H 0.88883 0.20001 0.81064 0.0
H1833 H 0.76728 0.16747 0.8059 0.0
H1834 H 0.92269 0.24425 0.75909 0.0
H1835 H 0.90305 0.19592 0.74631 0.0
H1836 H 0.92599 0.20665 0.77563 0.0
H1837 H 0.77158 0.20406 0.74622 0.0
H1838 H 0.739 0.17425 0.77007 0.0
H1839 H 0.75268 0.152 0.7464 0.0
C1840 C 0.69507 0.85564 0.20481 0.0
C1841 C 0.66465 0.85093 0.18943 0.0
C1842 C 0.6895 0.85002 0.22978 0.0
C1843 C 0.6523 0.83928 0.23995 0.0
C1844 C 0.62122 0.83416 0.22446 0.0
C1845 C 0.62768 0.8398 0.19934 0.0
C1846 C 0.72449 0.85682 0.24479 0.0
C1847 C 0.58149 0.82378 0.23451 0.0
C1848 C 0.63446 0.78769 0.30044 0.0
C1849 C 0.64786 0.81918 0.31685 0.0
C1850 C 0.63376 0.79348 0.27553 0.0
C1851 C 0.6458 0.83162 0.26654 0.0
C1852 C 0.65661 0.86304 0.28313 0.0
C1853 C 0.65762 0.85651 0.3081 0.0
C1854 C 0.6232 0.7593 0.25872 0.0
C1855 C 0.66995 0.90416 0.27439 0.0
H1856 H 0.72388 0.8646 0.19732 0.0
H1857 H 0.60433 0.83706 0.18762 0.0
H1858 H 0.71762 0.84886 0.26403 0.0
H1859 H 0.73755 0.83974 0.23715 0.0
H1860 H 0.7474 0.88842 0.24372 0.0
H1861 H 0.56052 0.82128 0.22021 0.0
H1862 H 0.56871 0.79545 0.24441 0.0
H1863 H 0.58481 0.84666 0.24761 0.0
H1864 H 0.62642 0.75856 0.307 0.0
H1865 H 0.66828 0.88107 0.32055 0.0
H1866 H 0.64964 0.76496 0.24826 0.0
H1867 H 0.60048 0.75626 0.24563 0.0
H1868 H 0.61212 0.73099 0.26853 0.0
H1869 H 0.69955 0.91642 0.26616 0.0
H1870 H 0.67172 0.92398 0.28925 0.0
H1871 H 0.64956 0.90368 0.26035 0.0
C1872 C 0.86014 0.66745 0.69906 0.0
C1873 C 0.82313 0.64453 0.68846 0.0
C1874 C 0.86513 0.6668 0.72421 0.0
C1875 C 0.83265 0.64156 0.73904 0.0
C1876 C 0.79564 0.61688 0.72808 0.0
C1877 C 0.79118 0.6193 0.70308 0.0
C1878 C 0.90479 0.6945 0.735 0.0
C1879 C 0.7604 0.58862 0.74282 0.0
C1880 C 0.85746 0.62042 0.80193 0.0
C1881 C 0.84915 0.64453 0.81661 0.0
C1882 C 0.85085 0.61802 0.7769 0.0
C1883 C 0.83712 0.6416 0.76598 0.0
C1884 C 0.82831 0.66572 0.78085 0.0
C1885 C 0.83379 0.66637 0.80601 0.0
C1886 C 0.85958 0.59098 0.76211 0.0
C1887 C 0.81488 0.6923 0.77009 0.0
H1888 H 0.88462 0.68774 0.68791 0.0
H1889 H 0.76232 0.60201 0.69495 0.0
H1890 H 0.90171 0.71316 0.74889 0.0
H1891 H 0.91661 0.67735 0.74398 0.0
H1892 H 0.9264 0.71398 0.72129 0.0
H1893 H 0.73523 0.56815 0.73131 0.0
H1894 H 0.76826 0.57106 0.75493 0.0
H1895 H 0.75074 0.60535 0.75432 0.0
H1896 H 0.87002 0.60399 0.81005 0.0
H1897 H 0.82842 0.68588 0.81721 0.0
H1898 H 0.88601 0.60869 0.75084 0.0
H1899 H 0.83469 0.57289 0.74977 0.0
H1900 H 0.8651 0.57099 0.77358 0.0
H1901 H 0.83671 0.71208 0.75661 0.0
H1902 H 0.811 0.71063 0.78389 0.0
H1903 H 0.78651 0.67438 0.7606 0.0
C1904 C 0.16393 0.78397 0.20428 0.0
C1905 C 0.18553 0.81757 0.18994 0.0
C1906 C 0.16861 0.78539 0.22943 0.0
C1907 C 0.19516 0.82149 0.24072 0.0
C1908 C 0.21841 0.85511 0.22615 0.0
C1909 C 0.21334 0.85271 0.20094 0.0
C1910 C 0.14396 0.74851 0.24396 0.0
C1911 C 0.2467 0.89457 0.23699 0.0
C1912 C 0.17202 0.83687 0.30531 0.0
C1913 C 0.20088 0.83394 0.31847 0.0
C1914 C 0.16974 0.83272 0.28007 0.0
C1915 C 0.19648 0.82452 0.2677 0.0
C1916 C 0.22478 0.82004 0.28112 0.0
C1917 C 0.22713 0.82559 0.30629 0.0
C1918 C 0.14015 0.83933 0.26654 0.0
C1919 C 0.25364 0.81108 0.26876 0.0
H1920 H 0.14244 0.7566 0.19583 0.0
H1921 H 0.22952 0.87896 0.19005 0.0
H1922 H 0.16271 0.74372 0.25693 0.0
H1923 H 0.12182 0.75185 0.25455 0.0
H1924 H 0.12818 0.72198 0.23237 0.0
H1925 H 0.27098 0.9128 0.2243 0.0
H1926 H 0.23052 0.91048 0.24068 0.0
H1927 H 0.25961 0.89174 0.25413 0.0
H1928 H 0.15282 0.84493 0.31461 0.0
H1929 H 0.25034 0.82467 0.31639 0.0
H1930 H 0.12134 0.8135 0.25504 0.0
H1931 H 0.15587 0.86518 0.25446 0.0
H1932 H 0.12092 0.84465 0.27882 0.0
H1933 H 0.23776 0.78497 0.25688 0.0
H1934 H 0.2717 0.80541 0.28183 0.0
H1935 H 0.27364 0.83632 0.25718 0.0
C1936 C 0.40571 0.23829 0.80437 0.0
C1937 C 0.38251 0.20566 0.8191 0.0
C1938 C 0.40677 0.23439 0.77922 0.0
C1939 C 0.38276 0.19718 0.76828 0.0
C1940 C 0.35943 0.16407 0.78319 0.0
C1941 C 0.36014 0.16858 0.80843 0.0
C1942 C 0.43294 0.27037 0.76435 0.0
C1943 C 0.33227 0.12419 0.77243 0.0
C1944 C 0.35424 0.1949 0.70193 0.0
C1945 C 0.37689 0.18104 0.69066 0.0
C1946 C 0.35581 0.20028 0.72713 0.0
C1947 C 0.38166 0.19295 0.74132 0.0
C1948 C 0.40593 0.18073 0.72969 0.0
C1949 C 0.40265 0.17417 0.70466 0.0
C1950 C 0.32877 0.21251 0.73862 0.0
C1951 C 0.43479 0.17368 0.74375 0.0
H1952 H 0.42257 0.26718 0.81257 0.0
H1953 H 0.34135 0.14352 0.8197 0.0
H1954 H 0.45005 0.26367 0.75116 0.0
H1955 H 0.41461 0.27949 0.75403 0.0
H1956 H 0.45377 0.29559 0.77572 0.0
H1957 H 0.31479 0.10179 0.78632 0.0
H1958 H 0.31171 0.12647 0.75965 0.0
H1959 H 0.34959 0.11387 0.76212 0.0
H1960 H 0.33355 0.19921 0.69124 0.0
H1961 H 0.41976 0.16283 0.69601 0.0
H1962 H 0.34642 0.24282 0.74581 0.0
H1963 H 0.31272 0.19275 0.75394 0.0
H1964 H 0.30695 0.21203 0.72565 0.0
H1965 H 0.45449 0.16855 0.73178 0.0
H1966 H 0.4186 0.14755 0.75553 0.0
H1967 H 0.45311 0.19928 0.75557 0.0
C1968 C 0.33092 0.24795 0.9759 0.0
C1969 C 0.30693 0.22621 0.95653 0.0
C1970 C 0.3161 0.26088 0.99492 0.0
C1971 C 0.27623 0.252 0.99464 0.0
C1972 C 0.25166 0.22892 0.97541 0.0
C1973 C 0.26739 0.21679 0.95654 0.0
C1974 C 0.34367 0.28564 0.01479 0.0
C1975 C 0.20901 0.21818 0.97428 0.0
C1976 C 0.23315 0.26245 0.05447 0.0
C1977 C 0.2357 0.29934 0.05214 0.0
C1978 C 0.24491 0.24619 0.03574 0.0
C1979 C 0.2606 0.26762 0.01409 0.0
C1980 C 0.26242 0.30461 0.01144 0.0
C1981 C 0.24998 0.31997 0.03044 0.0
C1982 C 0.24173 0.20656 0.03948 0.0
C1983 C 0.27925 0.32889 0.98893 0.0
H1984 H 0.36183 0.25658 0.97557 0.0
H1985 H 0.24901 0.20103 0.94124 0.0
H1986 H 0.34706 0.3155 0.01444 0.0
H1987 H 0.33124 0.27254 0.03261 0.0
H1988 H 0.37324 0.28859 0.01305 0.0
H1989 H 0.19311 0.19788 0.9591 0.0
H1990 H 0.19393 0.20402 0.99138 0.0
H1991 H 0.20699 0.24524 0.97207 0.0
H1992 H 0.22295 0.2467 0.07139 0.0
H1993 H 0.2535 0.34909 0.02879 0.0
H1994 H 0.27156 0.20999 0.03976 0.0
H1995 H 0.22541 0.18657 0.0243 0.0
H1996 H 0.22659 0.19246 0.05661 0.0
H1997 H 0.31078 0.33767 0.98725 0.0
H1998 H 0.27676 0.35591 0.98901 0.0
H1999 H 0.26394 0.3112 0.97275 0.0
C2000 C 0.04608 0.25821 0.44698 0.0
C2001 C 0.08323 0.29168 0.45066 0.0
C2002 C 0.01789 0.24211 0.46553 0.0
C2003 C 0.02668 0.2598 0.48865 0.0
C2004 C 0.0649 0.29254 0.49286 0.0
C2005 C 0.09264 0.30815 0.47383 0.0
C2006 C 0.97794 0.20718 0.45998 0.0
C2007 C 0.07587 0.31235 0.51718 0.0
C2008 C 0.94184 0.24983 0.52816 0.0
C2009 C 0.937 0.22079 0.54476 0.0
C2010 C 0.9702 0.26209 0.50961 0.0
C2011 C 0.9951 0.24554 0.50779 0.0
C2012 C 0.98965 0.21552 0.52428 0.0
C2013 C 0.96082 0.20364 0.54255 0.0
C2014 C 0.97448 0.2939 0.49249 0.0
C2015 C 1.01544 0.19711 0.52329 0.0
H2016 H 0.03849 0.24522 0.42917 0.0
H2017 H 0.12069 0.33451 0.4768 0.0
H2018 H 0.97042 0.18338 0.47332 0.0
H2019 H 0.95518 0.216 0.46138 0.0
H2020 H 0.97652 0.19521 0.44162 0.0
H2021 H 0.10761 0.33483 0.51832 0.0
H2022 H 0.05835 0.32695 0.52074 0.0
H2023 H 0.06881 0.29022 0.53162 0.0
H2024 H 0.92449 0.26416 0.53032 0.0
H2025 H 0.95826 0.1823 0.55592 0.0
H2026 H 0.97201 0.28368 0.47358 0.0
H2027 H 1.00406 0.3203 0.4946 0.0
H2028 H 0.95191 0.30264 0.49562 0.0
H2029 H 1.01499 0.18574 0.50491 0.0
H2030 H 1.00606 0.17259 0.53638 0.0
H2031 H 0.04633 0.21978 0.5273 0.0
C2032 C 0.72696 0.98821 0.04938 0.0
C2033 C 0.72411 0.95098 0.05083 0.0
C2034 C 0.74285 0.01276 0.02922 0.0
C2035 C 0.75659 1.00026 0.00947 0.0
C2036 C 0.75373 0.9626 0.01052 0.0
C2037 C 0.73748 0.93836 0.03115 0.0
C2038 C 0.7443 0.05205 0.02899 0.0
C2039 C 0.76794 0.94803 0.98984 0.0
C2040 C 0.75393 0.04636 0.9496 0.0
C2041 C 0.79298 0.07708 0.94659 0.0
C2042 C 0.74229 0.02072 0.96941 0.0
C2043 C 0.77026 0.02538 0.9871 0.0
C2044 C 0.80984 0.05648 0.98441 0.0
C2045 C 0.82072 0.08213 0.96426 0.0
C2046 C 0.69959 0.98901 0.97161 0.0
C2047 C 0.84066 0.0626 0.00283 0.0
H2048 H 0.71676 0.99864 0.0642 0.0
H2049 H 0.73602 0.91004 0.03206 0.0
H2050 H 0.77479 0.07617 0.02558 0.0
H2051 H 0.72561 0.05264 0.01417 0.0
H2052 H 0.73396 0.05822 0.0462 0.0
H2053 H 0.76515 0.91891 0.99367 0.0
H2054 H 0.7508 0.94546 0.97336 0.0
H2055 H 0.79922 0.96959 0.98591 0.0
H2056 H 0.73193 0.04226 0.93638 0.0
H2057 H 0.85097 0.10547 0.9621 0.0
H2058 H 0.68655 0.99428 0.98793 0.0
H2059 H 0.69718 0.95974 0.97371 0.0
H2060 H 0.68186 0.988 0.95572 0.0
H2061 H 0.83297 0.07015 0.02051 0.0
H2062 H 0.87045 0.08648 0.99757 0.0
H2063 H 0.84147 0.03492 0.00528 0.0
C2064 C 0.81461 0.73759 0.53507 0.0
C2065 C 0.78873 0.72164 0.55468 0.0
C2066 C 0.80509 0.75363 0.51493 0.0
C2067 C 0.76875 0.75354 0.51422 0.0
C2068 C 0.74284 0.73769 0.53404 0.0
C2069 C 0.75311 0.72227 0.55381 0.0
C2070 C 0.83376 0.77036 0.49428 0.0
C2071 C 0.70341 0.73583 0.53414 0.0
C2072 C 0.74437 0.81402 0.46967 0.0
C2073 C 0.72344 0.78604 0.45168 0.0
C2074 C 0.76065 0.80453 0.48969 0.0
C2075 C 0.75547 0.76603 0.49202 0.0
C2076 C 0.73401 0.73778 0.47401 0.0
C2077 C 0.71858 0.7481 0.45426 0.0
C2078 C 0.78342 0.83569 0.50837 0.0
C2079 C 0.72646 0.69608 0.47579 0.0
H2080 H 0.84231 0.73776 0.53549 0.0
H2081 H 0.73253 0.71023 0.56863 0.0
H2082 H 0.8204 0.75262 0.47779 0.0
H2083 H 0.84044 0.80086 0.49037 0.0
H2084 H 0.86173 0.77069 0.49811 0.0
H2085 H 0.68736 0.72433 0.5514 0.0
H2086 H 0.7073 0.7655 0.53093 0.0
H2087 H 0.68481 0.71645 0.51931 0.0
H2088 H 0.74864 0.84345 0.4679 0.0
H2089 H 0.70227 0.72587 0.44078 0.0
H2090 H 0.81306 0.8391 0.51074 0.0
H2091 H 0.76822 0.82652 0.52602 0.0
H2092 H 0.78679 0.86468 0.50342 0.0
H2093 H 0.75467 0.69619 0.47762 0.0
H2094 H 0.7105 0.67797 0.45984 0.0
H2095 H 0.70875 0.68169 0.49212 0.0
C2096 C 0.99803 0.75186 0.94828 0.0
C2097 C 0.95893 0.72139 0.95152 0.0
C2098 C 0.02578 0.76514 0.96713 0.0
C2099 C 1.01463 0.74776 0.99025 0.0
C2100 C 0.97491 0.71753 0.99392 0.0
C2101 C 0.9476 0.70468 0.97455 0.0
C2102 C 0.0673 0.79772 0.96216 0.0
C2103 C 0.96146 0.69822 0.01823 0.0
C2104 C 0.09704 0.7624 0.03447 0.0
C2105 C 0.10031 0.7931 0.04912 0.0
C2106 C 0.0692 0.74708 0.01539 0.0
C2107 C 0.04413 0.7629 0.01069 0.0
C2108 C 0.04832 0.79464 0.02503 0.0
C2109 C 0.0761 0.8092 0.04384 0.0
C2110 C 0.06598 0.71334 1.00058 0.0
C2111 C 0.02294 0.81302 0.02076 0.0
H2112 H 1.00726 0.7652 0.93065 0.0
H2113 H 0.91801 0.68057 0.97726 0.0
H2114 H 0.07477 0.82328 0.97405 0.0
H2115 H 0.08841 0.78748 0.96627 0.0
H2116 H 0.07151 0.80783 0.94313 0.0
H2117 H 0.92974 0.67551 0.01835 0.0
H2118 H 0.97888 0.68418 0.02352 0.0
H2119 H 0.9667 0.72074 0.03209 0.0
H2120 H 0.11502 0.74927 0.03853 0.0
H2121 H 0.07827 0.83302 0.05489 0.0
H2122 H 0.07085 0.72171 0.98126 0.0
H2123 H 0.03587 0.68759 0.00222 0.0
H2124 H 0.08753 0.70439 0.00627 0.0
H2125 H 0.02722 0.82468 0.00212 0.0
H2126 H 0.02965 0.83742 0.03353 0.0
H2127 H 0.99142 0.79038 0.02265 0.0
C2128 C 0.2096 0.93789 0.47029 0.0
C2129 C 0.23762 0.94481 0.45239 0.0
C2130 C 0.21889 0.96397 0.49013 0.0
C2131 C 0.25724 0.99748 0.49238 0.0
C2132 C 0.28548 1.00424 0.4744 0.0
C2133 C 0.27535 0.97819 0.45482 0.0
C2134 C 0.18774 0.95561 0.50877 0.0
C2135 C 0.32703 0.03858 0.4761 0.0
C2136 C 0.28552 0.08474 0.53576 0.0
C2137 C 0.3015 0.0746 0.55529 0.0
C2138 C 0.26955 0.05938 0.51551 0.0
C2139 C 0.26975 0.02314 0.51461 0.0
C2140 C 0.2857 0.01293 0.53432 0.0
C2141 C 0.30107 0.03842 0.55417 0.0
C2142 C 0.25268 0.07143 0.49498 0.0
C2143 C 0.28764 0.97535 0.53425 0.0
H2144 H 0.18032 0.91253 0.46862 0.0
H2145 H 0.2976 0.98406 0.44138 0.0
H2146 H 0.19672 0.94919 0.52638 0.0
H2147 H 0.18454 0.98197 0.5113 0.0
H2148 H 0.1587 0.93021 0.5037 0.0
H2149 H 0.34502 0.0409 0.46008 0.0
H2150 H 0.32669 0.06658 0.47805 0.0
H2151 H 0.34165 0.03531 0.49235 0.0
H2152 H 0.28521 0.11222 0.53635 0.0
H2153 H 0.31315 0.02969 0.56889 0.0
H2154 H 0.2222 0.04763 0.49107 0.0
H2155 H 0.2703 0.0759 0.47844 0.0
H2156 H 0.25231 0.09905 0.49892 0.0
H2157 H 0.25797 0.94958 0.53111 0.0
H2158 H 0.29933 0.97074 0.55143 0.0
H2159 H 0.30684 0.97617 0.51933 0.0
loop_
_geom_bond_atom_site_label_1
_geom_bond_atom_site_label_2
_geom_bond_distance
_geom_bond_site_symmetry_2
_ccdc_geom_bond_type
Eu0 N31 2.657 . S
Eu0 N38 2.609 . S
Eu0 O44 2.558 . S
Eu0 O45 2.612 . S
Eu0 O47 2.339 . S
Eu0 O48 2.563 . S
Eu0 O49 2.419 . S
Eu0 O51 2.380 . S
Eu0 O52 2.432 . S
Eu0 C64 2.848 . S
C1 C4 1.429 . S
C1 C5 1.411 . S
C1 N8 1.377 . S
C2 C4 1.420 . S
C2 C6 1.423 . S
C2 C14 1.392 . S
C3 C5 1.420 . S
C3 C6 1.351 . S
C3 H26 0.931 . S
C4 C1 1.429 . S
C4 C2 1.420 . S
C4 N12 1.362 . S
C5 C1 1.411 . S
C5 C3 1.420 . S
C5 C10 1.395 . S
C6 C2 1.423 . S
C6 C3 1.351 . S
C6 H18 0.930 . S
C7 C9 1.400 . S
C7 C10 1.386 . S
C7 H19 0.930 . S
N8 C1 1.377 . S
N8 C9 1.321 . S
N8 Eu11 2.609 . S
C9 C7 1.400 . S
C9 N8 1.321 . S
C9 H16 0.930 . S
C10 C5 1.395 . S
C10 C7 1.386 . S
C10 H29 0.930 . S
Eu11 N8 2.609 . S
Eu11 N12 2.657 . S
Eu11 O45 2.380 . S
Eu11 O46 2.432 . S
Eu11 O50 2.558 . S
Eu11 O51 2.612 . S
Eu11 O53 2.339 . S
Eu11 O54 2.563 . S
Eu11 O55 2.419 . S
Eu11 C75 2.848 . S
N12 C4 1.362 . S
N12 Eu11 2.657 . S
N12 C13 1.334 . S
C13 N12 1.334 . S
C13 C15 1.413 . S
C13 H20 0.929 . S
C14 C2 1.392 . S
C14 C15 1.367 . S
C14 H22 0.930 . S
C15 C13 1.413 . S
C15 C14 1.367 . S
C15 H17 0.930 . S
H16 C9 0.930 . S
H17 C15 0.930 . S
H18 C6 0.930 . S
H19 C7 0.930 . S
H20 C13 0.929 . S
H21 C35 0.930 . S
H22 C14 0.930 . S
H23 C41 0.930 . S
H24 C32 0.929 . S
H25 C39 0.930 . S
H26 C3 0.931 . S
H27 C33 0.930 1_655 S
H28 C66 0.930 . S
H29 C10 0.930 . S
H30 C65 0.931 1_655 S
N31 Eu0 2.657 . S
N31 C32 1.334 . S
N31 C36 1.362 . S
C32 H24 0.929 . S
C32 N31 1.334 . S
C32 C35 1.413 . S
C33 H27 0.930 1_455 S
C33 C34 1.392 . S
C33 C35 1.367 . S
C34 C33 1.392 . S
C34 C36 1.420 . S
C34 C66 1.423 1_455 S
C35 H21 0.930 . S
C35 C32 1.413 . S
C35 C33 1.367 . S
C36 N31 1.362 . S
C36 C34 1.420 . S
C36 C40 1.429 . S
H37 C42 0.930 . S
N38 Eu0 2.609 . S
N38 C40 1.377 . S
N38 C41 1.321 . S
C39 H25 0.930 . S
C39 C41 1.400 . S
C39 C42 1.386 . S
C40 C36 1.429 . S
C40 N38 1.377 . S
C40 C43 1.411 . S
C41 H23 0.930 . S
C41 N38 1.321 . S
C41 C39 1.400 . S
C42 H37 0.930 . S
C42 C39 1.386 . S
C42 C43 1.395 . S
C43 C40 1.411 . S
C43 C42 1.395 . S
C43 C65 1.420 . S
O44 Eu0 2.558 . S
O44 C64 1.257 . S
O45 Eu0 2.612 . S
O45 Eu11 2.380 . S
O45 C56 1.276 . S
O46 Eu11 2.432 . S
O46 C63 1.264 . S
O47 Eu0 2.339 . S
O47 C63 1.254 . S
O48 Eu0 2.563 . S
O48 C56 1.235 . S
O49 Eu0 2.419 . S
O49 C64 1.249 . S
O50 Eu11 2.558 . S
O50 C75 1.257 . S
O51 Eu0 2.380 . S
O51 Eu11 2.612 . S
O51 C67 1.276 . S
O52 Eu0 2.432 . S
O52 C74 1.264 . S
O53 Eu11 2.339 . S
O53 C74 1.254 . S
O54 Eu11 2.563 . S
O54 C67 1.235 . S
O55 Eu11 2.419 . S
O55 C75 1.249 . S
C56 O45 1.276 . S
C56 O48 1.235 . S
C57 C59 1.393 . S
C57 C61 1.395 . S
C57 C64 1.492 . S
C58 C59 1.392 . S
C58 C60 1.386 . S
C59 C57 1.393 . S
C59 C58 1.392 . S
C59 H76 0.930 . S
C60 C58 1.386 . S
C60 C62 1.395 . S
C60 H77 0.930 . S
C61 C57 1.395 . S
C61 C62 1.379 . S
C61 H78 0.930 . S
C62 C60 1.395 . S
C62 C61 1.379 . S
C62 H79 0.930 . S
C63 O46 1.264 . S
C63 O47 1.254 . S
C64 Eu0 2.848 . S
C64 O44 1.257 . S
C64 O49 1.249 . S
C64 C57 1.492 . S
C65 H30 0.931 1_455 S
C65 C43 1.420 . S
C65 C66 1.351 1_455 S
C66 H28 0.930 . S
C66 C34 1.423 1_655 S
C66 C65 1.351 1_655 S
C67 O51 1.276 . S
C67 O54 1.235 . S
C68 C69 1.393 . S
C68 C72 1.395 . S
C68 C75 1.492 . S
C69 C68 1.393 . S
C69 C70 1.392 . S
C69 H80 0.930 . S
C70 C69 1.392 . S
C70 C71 1.386 . S
C71 C70 1.386 . S
C71 C73 1.395 . S
C71 H81 0.930 . S
C72 C68 1.395 . S
C72 C73 1.379 . S
C72 H82 0.930 . S
C73 C71 1.395 . S
C73 C72 1.379 . S
C73 H83 0.930 . S
C74 O52 1.264 . S
C74 O53 1.254 . S
C75 Eu11 2.848 . S
C75 O50 1.257 . S
C75 O55 1.249 . S
C75 C68 1.492 . S
H76 C59 0.930 . S
H77 C60 0.930 . S
H78 C61 0.930 . S
H79 C62 0.930 . S
H80 C69 0.930 . S
H81 C71 0.930 . S
H82 C72 0.930 . S
H83 C73 0.930 . S
Eu84 N115 2.657 . S
Eu84 N122 2.609 . S
Eu84 O128 2.558 . S
Eu84 O129 2.612 . S
Eu84 O131 2.339 . S
Eu84 O132 2.563 . S
Eu84 O133 2.419 . S
Eu84 O135 2.380 . S
Eu84 O136 2.432 . S
Eu84 C148 2.848 . S
C85 C88 1.429 . S
C85 C89 1.411 . S
C85 N92 1.377 . S
C86 C88 1.420 . S
C86 C90 1.423 . S
C86 C98 1.392 . S
C87 C89 1.420 . S
C87 C90 1.351 . S
C87 H110 0.931 1_655 S
C88 C85 1.429 . S
C88 C86 1.420 . S
C88 N96 1.362 . S
C89 C85 1.411 . S
C89 C87 1.420 . S
C89 C94 1.395 . S
C90 C86 1.423 . S
C90 C87 1.351 . S
C90 H102 0.930 1_655 S
C91 C93 1.400 . S
C91 C94 1.386 . S
C91 H103 0.930 . S
N92 C85 1.377 . S
N92 C93 1.321 . S
N92 Eu95 2.609 . S
C93 C91 1.400 . S
C93 N92 1.321 . S
C93 H100 0.930 . S
C94 C89 1.395 . S
C94 C91 1.386 . S
C94 H113 0.930 . S
Eu95 N92 2.609 . S
Eu95 N96 2.657 . S
Eu95 O129 2.380 . S
Eu95 O130 2.432 . S
Eu95 O134 2.558 . S
Eu95 O135 2.612 . S
Eu95 O137 2.339 . S
Eu95 O138 2.563 . S
Eu95 O139 2.419 . S
Eu95 C159 2.848 . S
N96 C88 1.362 . S
N96 Eu95 2.657 . S
N96 C97 1.334 . S
C97 N96 1.334 . S
C97 C99 1.413 . S
C97 H104 0.929 . S
C98 C86 1.392 . S
C98 C99 1.367 . S
C98 H106 0.930 . S
C99 C97 1.413 . S
C99 C98 1.367 . S
C99 H101 0.930 . S
H100 C93 0.930 . S
H101 C99 0.930 . S
H102 C90 0.930 1_455 S
H103 C91 0.930 . S
H104 C97 0.929 . S
H105 C119 0.930 . S
H106 C98 0.930 . S
H107 C125 0.930 . S
H108 C116 0.929 . S
H109 C123 0.930 . S
H110 C87 0.931 1_455 S
H111 C117 0.930 1_565 S
H112 C150 0.930 . S
H113 C94 0.930 . S
H114 C149 0.931 1_565 S
N115 Eu84 2.657 . S
N115 C116 1.334 . S
N115 C120 1.362 . S
C116 H108 0.929 . S
C116 N115 1.334 . S
C116 C119 1.413 . S
C117 H111 0.930 1_545 S
C117 C118 1.392 . S
C117 C119 1.367 . S
C118 C117 1.392 . S
C118 C120 1.420 . S
C118 C150 1.423 1_545 S
C119 H105 0.930 . S
C119 C116 1.413 . S
C119 C117 1.367 . S
C120 N115 1.362 . S
C120 C118 1.420 . S
C120 C124 1.429 . S
H121 C126 0.930 . S
N122 Eu84 2.609 . S
N122 C124 1.377 . S
N122 C125 1.321 . S
C123 H109 0.930 . S
C123 C125 1.400 . S
C123 C126 1.386 . S
C124 C120 1.429 . S
C124 N122 1.377 . S
C124 C127 1.411 . S
C125 H107 0.930 . S
C125 N122 1.321 . S
C125 C123 1.400 . S
C126 H121 0.930 . S
C126 C123 1.386 . S
C126 C127 1.395 . S
C127 C124 1.411 . S
C127 C126 1.395 . S
C127 C149 1.420 . S
O128 Eu84 2.558 . S
O128 C148 1.257 . S
O129 Eu84 2.612 . S
O129 Eu95 2.380 . S
O129 C140 1.276 . S
O130 Eu95 2.432 . S
O130 C147 1.264 . S
O131 Eu84 2.339 . S
O131 C147 1.254 . S
O132 Eu84 2.563 . S
O132 C140 1.235 . S
O133 Eu84 2.419 . S
O133 C148 1.249 . S
O134 Eu95 2.558 . S
O134 C159 1.257 . S
O135 Eu84 2.380 . S
O135 Eu95 2.612 . S
O135 C151 1.276 . S
O136 Eu84 2.432 . S
O136 C158 1.264 . S
O137 Eu95 2.339 . S
O137 C158 1.254 . S
O138 Eu95 2.563 . S
O138 C151 1.235 . S
O139 Eu95 2.419 . S
O139 C159 1.249 . S
C140 O129 1.276 . S
C140 O132 1.235 . S
C141 C143 1.393 . S
C141 C145 1.395 . S
C141 C148 1.492 . S
C142 C143 1.392 . S
C142 C144 1.386 . S
C143 C141 1.393 . S
C143 C142 1.392 . S
C143 H160 0.930 . S
C144 C142 1.386 . S
C144 C146 1.395 . S
C144 H161 0.930 . S
C145 C141 1.395 . S
C145 C146 1.379 . S
C145 H162 0.930 . S
C146 C144 1.395 . S
C146 C145 1.379 . S
C146 H163 0.930 . S
C147 O130 1.264 . S
C147 O131 1.254 . S
C148 Eu84 2.848 . S
C148 O128 1.257 . S
C148 O133 1.249 . S
C148 C141 1.492 . S
C149 H114 0.931 1_545 S
C149 C127 1.420 . S
C149 C150 1.351 1_545 S
C150 H112 0.930 . S
C150 C118 1.423 1_565 S
C150 C149 1.351 1_565 S
C151 O135 1.276 . S
C151 O138 1.235 . S
C152 C153 1.393 . S
C152 C156 1.395 . S
C152 C159 1.492 1_455 S
C153 C152 1.393 . S
C153 C154 1.392 . S
C153 H164 0.930 . S
C154 C153 1.392 . S
C154 C155 1.386 . S
C155 C154 1.386 . S
C155 C157 1.395 . S
C155 H165 0.930 . S
C156 C152 1.395 . S
C156 C157 1.379 . S
C156 H166 0.930 . S
C157 C155 1.395 . S
C157 C156 1.379 . S
C157 H167 0.930 . S
C158 O136 1.264 . S
C158 O137 1.254 . S
C159 Eu95 2.848 . S
C159 O134 1.257 . S
C159 O139 1.249 . S
C159 C152 1.492 1_655 S
H160 C143 0.930 . S
H161 C144 0.930 . S
H162 C145 0.930 . S
H163 C146 0.930 . S
H164 C153 0.930 . S
H165 C155 0.930 . S
H166 C156 0.930 . S
H167 C157 0.930 . S
Eu168 N199 2.657 . S
Eu168 N206 2.609 . S
Eu168 O212 2.558 . S
Eu168 O213 2.612 . S
Eu168 O215 2.339 . S
Eu168 O216 2.563 . S
Eu168 O217 2.419 . S
Eu168 O219 2.380 . S
Eu168 O220 2.432 . S
Eu168 C232 2.848 . S
C169 C172 1.429 . S
C169 C173 1.411 . S
C169 N176 1.377 . S
C170 C172 1.420 . S
C170 C174 1.423 . S
C170 C182 1.392 . S
C171 C173 1.420 . S
C171 C174 1.351 . S
C171 H194 0.931 1_565 S
C172 C169 1.429 . S
C172 C170 1.420 . S
C172 N180 1.362 . S
C173 C169 1.411 . S
C173 C171 1.420 . S
C173 C178 1.395 . S
C174 C170 1.423 . S
C174 C171 1.351 . S
C174 H186 0.930 1_565 S
C175 C177 1.400 . S
C175 C178 1.386 . S
C175 H187 0.930 . S
N176 C169 1.377 . S
N176 C177 1.321 . S
N176 Eu179 2.609 . S
C177 C175 1.400 . S
C177 N176 1.321 . S
C177 H184 0.930 . S
C178 C173 1.395 . S
C178 C175 1.386 . S
C178 H197 0.930 . S
Eu179 N176 2.609 . S
Eu179 N180 2.657 . S
Eu179 O213 2.380 . S
Eu179 O214 2.432 . S
Eu179 O218 2.558 . S
Eu179 O219 2.612 . S
Eu179 O221 2.339 . S
Eu179 O222 2.563 . S
Eu179 O223 2.419 . S
Eu179 C243 2.848 . S
N180 C172 1.362 . S
N180 Eu179 2.657 . S
N180 C181 1.334 . S
C181 N180 1.334 . S
C181 C183 1.413 . S
C181 H188 0.929 . S
C182 C170 1.392 . S
C182 C183 1.367 . S
C182 H190 0.930 . S
C183 C181 1.413 . S
C183 C182 1.367 . S
C183 H185 0.930 . S
H184 C177 0.930 . S
H185 C183 0.930 . S
H186 C174 0.930 1_545 S
H187 C175 0.930 . S
H188 C181 0.929 . S
H189 C203 0.930 . S
H190 C182 0.930 . S
H191 C209 0.930 . S
H192 C200 0.929 . S
H193 C207 0.930 . S
H194 C171 0.931 1_545 S
H195 C201 0.930 . S
H196 C234 0.930 . S
H197 C178 0.930 . S
H198 C233 0.931 . S
N199 Eu168 2.657 . S
N199 C200 1.334 . S
N199 C204 1.362 . S
C200 H192 0.929 . S
C200 N199 1.334 . S
C200 C203 1.413 . S
C201 H195 0.930 . S
C201 C202 1.392 . S
C201 C203 1.367 . S
C202 C201 1.392 . S
C202 C204 1.420 . S
C202 C234 1.423 . S
C203 H189 0.930 . S
C203 C200 1.413 . S
C203 C201 1.367 . S
C204 N199 1.362 . S
C204 C202 1.420 . S
C204 C208 1.429 . S
H205 C210 0.930 . S
N206 Eu168 2.609 . S
N206 C208 1.377 . S
N206 C209 1.321 . S
C207 H193 0.930 . S
C207 C209 1.400 . S
C207 C210 1.386 . S
C208 C204 1.429 . S
C208 N206 1.377 . S
C208 C211 1.411 . S
C209 H191 0.930 . S
C209 N206 1.321 . S
C209 C207 1.400 . S
C210 H205 0.930 . S
C210 C207 1.386 . S
C210 C211 1.395 . S
C211 C208 1.411 . S
C211 C210 1.395 . S
C211 C233 1.420 . S
O212 Eu168 2.558 . S
O212 C232 1.257 . S
O213 Eu168 2.612 . S
O213 Eu179 2.380 . S
O213 C224 1.276 . S
O214 Eu179 2.432 . S
O214 C231 1.264 . S
O215 Eu168 2.339 . S
O215 C231 1.254 . S
O216 Eu168 2.563 . S
O216 C224 1.235 . S
O217 Eu168 2.419 . S
O217 C232 1.249 . S
O218 Eu179 2.558 . S
O218 C243 1.257 . S
O219 Eu168 2.380 . S
O219 Eu179 2.612 . S
O219 C235 1.276 . S
O220 Eu168 2.432 . S
O220 C242 1.264 . S
O221 Eu179 2.339 . S
O221 C242 1.254 . S
O222 Eu179 2.563 . S
O222 C235 1.235 . S
O223 Eu179 2.419 . S
O223 C243 1.249 . S
C224 O213 1.276 . S
C224 O216 1.235 . S
C225 C227 1.393 . S
C225 C229 1.395 . S
C225 C232 1.492 . S
C226 C227 1.392 . S
C226 C228 1.386 . S
C227 C225 1.393 . S
C227 C226 1.392 . S
C227 H244 0.930 . S
C228 C226 1.386 . S
C228 C230 1.395 . S
C228 H245 0.930 . S
C229 C225 1.395 . S
C229 C230 1.379 . S
C229 H246 0.930 . S
C230 C228 1.395 . S
C230 C229 1.379 . S
C230 H247 0.930 . S
C231 O214 1.264 . S
C231 O215 1.254 . S
C232 Eu168 2.848 . S
C232 O212 1.257 . S
C232 O217 1.249 . S
C232 C225 1.492 . S
C233 H198 0.931 . S
C233 C211 1.420 . S
C233 C234 1.351 . S
C234 H196 0.930 . S
C234 C202 1.423 . S
C234 C233 1.351 . S
C235 O219 1.276 . S
C235 O222 1.235 . S
C236 C237 1.393 . S
C236 C240 1.395 . S
C236 C243 1.492 1_545 S
C237 C236 1.393 . S
C237 C238 1.392 . S
C237 H248 0.930 . S
C238 C237 1.392 . S
C238 C239 1.386 . S
C239 C238 1.386 . S
C239 C241 1.395 . S
C239 H249 0.930 . S
C240 C236 1.395 . S
C240 C241 1.379 . S
C240 H250 0.930 . S
C241 C239 1.395 . S
C241 C240 1.379 . S
C241 H251 0.930 . S
C242 O220 1.264 . S
C242 O221 1.254 . S
C243 Eu179 2.848 . S
C243 O218 1.257 . S
C243 O223 1.249 . S
C243 C236 1.492 1_565 S
H244 C227 0.930 . S
H245 C228 0.930 . S
H246 C229 0.930 . S
H247 C230 0.930 . S
H248 C237 0.930 . S
H249 C239 0.930 . S
H250 C240 0.930 . S
H251 C241 0.930 . S
Eu252 N283 2.657 . S
Eu252 N290 2.609 . S
Eu252 O296 2.558 . S
Eu252 O297 2.612 . S
Eu252 O299 2.339 . S
Eu252 O300 2.563 . S
Eu252 O301 2.419 . S
Eu252 O303 2.380 . S
Eu252 O304 2.432 . S
Eu252 C316 2.848 . S
C253 C256 1.429 . S
C253 C257 1.411 . S
C253 N260 1.377 . S
C254 C256 1.420 . S
C254 C258 1.423 . S
C254 C266 1.392 . S
C255 C257 1.420 . S
C255 C258 1.351 . S
C255 H278 0.931 . S
C256 C253 1.429 . S
C256 C254 1.420 . S
C256 N264 1.362 . S
C257 C253 1.411 . S
C257 C255 1.420 . S
C257 C262 1.395 . S
C258 C254 1.423 . S
C258 C255 1.351 . S
C258 H270 0.930 . S
C259 C261 1.400 . S
C259 C262 1.386 . S
C259 H271 0.930 . S
N260 C253 1.377 . S
N260 C261 1.321 . S
N260 Eu263 2.609 . S
C261 C259 1.400 . S
C261 N260 1.321 . S
C261 H268 0.930 . S
C262 C257 1.395 . S
C262 C259 1.386 . S
C262 H281 0.930 . S
Eu263 N260 2.609 . S
Eu263 N264 2.657 . S
Eu263 O297 2.380 . S
Eu263 O298 2.432 . S
Eu263 O302 2.558 . S
Eu263 O303 2.612 . S
Eu263 O305 2.339 . S
Eu263 O306 2.563 . S
Eu263 O307 2.419 . S
Eu263 C327 2.848 . S
N264 C256 1.362 . S
N264 Eu263 2.657 . S
N264 C265 1.334 . S
C265 N264 1.334 . S
C265 C267 1.413 . S
C265 H272 0.929 . S
C266 C254 1.392 . S
C266 C267 1.367 . S
C266 H274 0.930 . S
C267 C265 1.413 . S
C267 C266 1.367 . S
C267 H269 0.930 . S
H268 C261 0.930 . S
H269 C267 0.930 . S
H270 C258 0.930 . S
H271 C259 0.930 . S
H272 C265 0.929 . S
H273 C287 0.930 . S
H274 C266 0.930 . S
H275 C293 0.930 . S
H276 C284 0.929 . S
H277 C291 0.930 . S
H278 C255 0.931 . S
H279 C285 0.930 1_455 S
H280 C318 0.930 . S
H281 C262 0.930 . S
H282 C317 0.931 1_455 S
N283 Eu252 2.657 . S
N283 C284 1.334 . S
N283 C288 1.362 . S
C284 H276 0.929 . S
C284 N283 1.334 . S
C284 C287 1.413 . S
C285 H279 0.930 1_655 S
C285 C286 1.392 . S
C285 C287 1.367 . S
C286 C285 1.392 . S
C286 C288 1.420 . S
C286 C318 1.423 1_655 S
C287 H273 0.930 . S
C287 C284 1.413 . S
C287 C285 1.367 . S
C288 N283 1.362 . S
C288 C286 1.420 . S
C288 C292 1.429 . S
H289 C294 0.930 . S
N290 Eu252 2.609 . S
N290 C292 1.377 . S
N290 C293 1.321 . S
C291 H277 0.930 . S
C291 C293 1.400 . S
C291 C294 1.386 . S
C292 C288 1.429 . S
C292 N290 1.377 . S
C292 C295 1.411 . S
C293 H275 0.930 . S
C293 N290 1.321 . S
C293 C291 1.400 . S
C294 H289 0.930 . S
C294 C291 1.386 . S
C294 C295 1.395 . S
C295 C292 1.411 . S
C295 C294 1.395 . S
C295 C317 1.420 . S
O296 Eu252 2.558 . S
O296 C316 1.257 . S
O297 Eu252 2.612 . S
O297 Eu263 2.380 . S
O297 C308 1.276 . S
O298 Eu263 2.432 . S
O298 C315 1.264 . S
O299 Eu252 2.339 . S
O299 C315 1.254 . S
O300 Eu252 2.563 . S
O300 C308 1.235 . S
O301 Eu252 2.419 . S
O301 C316 1.249 . S
O302 Eu263 2.558 . S
O302 C327 1.257 . S
O303 Eu252 2.380 . S
O303 Eu263 2.612 . S
O303 C319 1.276 . S
O304 Eu252 2.432 . S
O304 C326 1.264 . S
O305 Eu263 2.339 . S
O305 C326 1.254 . S
O306 Eu263 2.563 . S
O306 C319 1.235 . S
O307 Eu263 2.419 . S
O307 C327 1.249 . S
C308 O297 1.276 . S
C308 O300 1.235 . S
C309 C311 1.393 . S
C309 C313 1.395 . S
C309 C316 1.492 . S
C310 C311 1.392 . S
C310 C312 1.386 . S
C311 C309 1.393 . S
C311 C310 1.392 . S
C311 H328 0.930 . S
C312 C310 1.386 . S
C312 C314 1.395 . S
C312 H329 0.930 . S
C313 C309 1.395 . S
C313 C314 1.379 . S
C313 H330 0.930 . S
C314 C312 1.395 . S
C314 C313 1.379 . S
C314 H331 0.930 . S
C315 O298 1.264 . S
C315 O299 1.254 . S
C316 Eu252 2.848 . S
C316 O296 1.257 . S
C316 O301 1.249 . S
C316 C309 1.492 . S
C317 H282 0.931 1_655 S
C317 C295 1.420 . S
C317 C318 1.351 1_655 S
C318 H280 0.930 . S
C318 C286 1.423 1_455 S
C318 C317 1.351 1_455 S
C319 O303 1.276 . S
C319 O306 1.235 . S
C320 C321 1.393 . S
C320 C324 1.395 . S
C320 C327 1.492 . S
C321 C320 1.393 . S
C321 C322 1.392 . S
C321 H332 0.930 . S
C322 C321 1.392 . S
C322 C323 1.386 . S
C323 C322 1.386 . S
C323 C325 1.395 . S
C323 H333 0.930 . S
C324 C320 1.395 . S
C324 C325 1.379 . S
C324 H334 0.930 . S
C325 C323 1.395 . S
C325 C324 1.379 . S
C325 H335 0.930 . S
C326 O304 1.264 . S
C326 O305 1.254 . S
C327 Eu263 2.848 . S
C327 O302 1.257 . S
C327 O307 1.249 . S
C327 C320 1.492 . S
H328 C311 0.930 . S
H329 C312 0.930 . S
H330 C313 0.930 . S
H331 C314 0.930 . S
H332 C321 0.930 . S
H333 C323 0.930 . S
H334 C324 0.930 . S
H335 C325 0.930 . S
Eu336 N367 2.657 . S
Eu336 N374 2.609 . S
Eu336 O380 2.558 . S
Eu336 O381 2.612 . S
Eu336 O383 2.339 . S
Eu336 O384 2.563 . S
Eu336 O385 2.419 . S
Eu336 O387 2.380 . S
Eu336 O388 2.432 . S
Eu336 C400 2.848 . S
C337 C340 1.429 . S
C337 C341 1.411 . S
C337 N344 1.377 . S
C338 C340 1.420 . S
C338 C342 1.423 . S
C338 C350 1.392 . S
C339 C341 1.420 . S
C339 C342 1.351 . S
C339 H362 0.931 1_455 S
C340 C337 1.429 . S
C340 C338 1.420 . S
C340 N348 1.362 . S
C341 C337 1.411 . S
C341 C339 1.420 . S
C341 C346 1.395 . S
C342 C338 1.423 . S
C342 C339 1.351 . S
C342 H354 0.930 1_455 S
C343 C345 1.400 . S
C343 C346 1.386 . S
C343 H355 0.930 . S
N344 C337 1.377 . S
N344 C345 1.321 . S
N344 Eu347 2.609 . S
C345 C343 1.400 . S
C345 N344 1.321 . S
C345 H352 0.930 . S
C346 C341 1.395 . S
C346 C343 1.386 . S
C346 H365 0.930 . S
Eu347 N344 2.609 . S
Eu347 N348 2.657 . S
Eu347 O381 2.380 . S
Eu347 O382 2.432 . S
Eu347 O386 2.558 . S
Eu347 O387 2.612 . S
Eu347 O389 2.339 . S
Eu347 O390 2.563 . S
Eu347 O391 2.419 . S
Eu347 C411 2.848 . S
N348 C340 1.362 . S
N348 Eu347 2.657 . S
N348 C349 1.334 . S
C349 N348 1.334 . S
C349 C351 1.413 . S
C349 H356 0.929 . S
C350 C338 1.392 . S
C350 C351 1.367 . S
C350 H358 0.930 . S
C351 C349 1.413 . S
C351 C350 1.367 . S
C351 H353 0.930 . S
H352 C345 0.930 . S
H353 C351 0.930 . S
H354 C342 0.930 1_655 S
H355 C343 0.930 . S
H356 C349 0.929 . S
H357 C371 0.930 . S
H358 C350 0.930 . S
H359 C377 0.930 . S
H360 C368 0.929 . S
H361 C375 0.930 . S
H362 C339 0.931 1_655 S
H363 C369 0.930 1_545 S
H364 C402 0.930 . S
H365 C346 0.930 . S
H366 C401 0.931 1_545 S
N367 Eu336 2.657 . S
N367 C368 1.334 . S
N367 C372 1.362 . S
C368 H360 0.929 . S
C368 N367 1.334 . S
C368 C371 1.413 . S
C369 H363 0.930 1_565 S
C369 C370 1.392 . S
C369 C371 1.367 . S
C370 C369 1.392 . S
C370 C372 1.420 . S
C370 C402 1.423 1_565 S
C371 H357 0.930 . S
C371 C368 1.413 . S
C371 C369 1.367 . S
C372 N367 1.362 . S
C372 C370 1.420 . S
C372 C376 1.429 . S
H373 C378 0.930 . S
N374 Eu336 2.609 . S
N374 C376 1.377 . S
N374 C377 1.321 . S
C375 H361 0.930 . S
C375 C377 1.400 . S
C375 C378 1.386 . S
C376 C372 1.429 . S
C376 N374 1.377 . S
C376 C379 1.411 . S
C377 H359 0.930 . S
C377 N374 1.321 . S
C377 C375 1.400 . S
C378 H373 0.930 . S
C378 C375 1.386 . S
C378 C379 1.395 . S
C379 C376 1.411 . S
C379 C378 1.395 . S
C379 C401 1.420 . S
O380 Eu336 2.558 . S
O380 C400 1.257 . S
O381 Eu336 2.612 . S
O381 Eu347 2.380 . S
O381 C392 1.276 . S
O382 Eu347 2.432 . S
O382 C399 1.264 . S
O383 Eu336 2.339 . S
O383 C399 1.254 . S
O384 Eu336 2.563 . S
O384 C392 1.235 . S
O385 Eu336 2.419 . S
O385 C400 1.249 . S
O386 Eu347 2.558 . S
O386 C411 1.257 . S
O387 Eu336 2.380 . S
O387 Eu347 2.612 . S
O387 C403 1.276 . S
O388 Eu336 2.432 . S
O388 C410 1.264 . S
O389 Eu347 2.339 . S
O389 C410 1.254 . S
O390 Eu347 2.563 . S
O390 C403 1.235 . S
O391 Eu347 2.419 . S
O391 C411 1.249 . S
C392 O381 1.276 . S
C392 O384 1.235 . S
C393 C395 1.393 . S
C393 C397 1.395 . S
C393 C400 1.492 . S
C394 C395 1.392 . S
C394 C396 1.386 . S
C395 C393 1.393 . S
C395 C394 1.392 . S
C395 H412 0.930 . S
C396 C394 1.386 . S
C396 C398 1.395 . S
C396 H413 0.930 . S
C397 C393 1.395 . S
C397 C398 1.379 . S
C397 H414 0.930 . S
C398 C396 1.395 . S
C398 C397 1.379 . S
C398 H415 0.930 . S
C399 O382 1.264 . S
C399 O383 1.254 . S
C400 Eu336 2.848 . S
C400 O380 1.257 . S
C400 O385 1.249 . S
C400 C393 1.492 . S
C401 H366 0.931 1_565 S
C401 C379 1.420 . S
C401 C402 1.351 1_565 S
C402 H364 0.930 . S
C402 C370 1.423 1_545 S
C402 C401 1.351 1_545 S
C403 O387 1.276 . S
C403 O390 1.235 . S
C404 C405 1.393 . S
C404 C408 1.395 . S
C404 C411 1.492 1_655 S
C405 C404 1.393 . S
C405 C406 1.392 . S
C405 H416 0.930 . S
C406 C405 1.392 . S
C406 C407 1.386 . S
C407 C406 1.386 . S
C407 C409 1.395 . S
C407 H417 0.930 . S
C408 C404 1.395 . S
C408 C409 1.379 . S
C408 H418 0.930 . S
C409 C407 1.395 . S
C409 C408 1.379 . S
C409 H419 0.930 . S
C410 O388 1.264 . S
C410 O389 1.254 . S
C411 Eu347 2.848 . S
C411 O386 1.257 . S
C411 O391 1.249 . S
C411 C404 1.492 1_455 S
H412 C395 0.930 . S
H413 C396 0.930 . S
H414 C397 0.930 . S
H415 C398 0.930 . S
H416 C405 0.930 . S
H417 C407 0.930 . S
H418 C408 0.930 . S
H419 C409 0.930 . S
Eu420 N451 2.657 . S
Eu420 N458 2.609 . S
Eu420 O464 2.558 . S
Eu420 O465 2.612 . S
Eu420 O467 2.339 . S
Eu420 O468 2.563 . S
Eu420 O469 2.419 . S
Eu420 O471 2.380 . S
Eu420 O472 2.432 . S
Eu420 C484 2.848 . S
C421 C424 1.429 . S
C421 C425 1.411 . S
C421 N428 1.377 . S
C422 C424 1.420 . S
C422 C426 1.423 . S
C422 C434 1.392 . S
C423 C425 1.420 . S
C423 C426 1.351 . S
C423 H446 0.931 1_545 S
C424 C421 1.429 . S
C424 C422 1.420 . S
C424 N432 1.362 . S
C425 C421 1.411 . S
C425 C423 1.420 . S
C425 C430 1.395 . S
C426 C422 1.423 . S
C426 C423 1.351 . S
C426 H438 0.930 1_545 S
C427 C429 1.400 . S
C427 C430 1.386 . S
C427 H439 0.930 . S
N428 C421 1.377 . S
N428 C429 1.321 . S
N428 Eu431 2.609 . S
C429 C427 1.400 . S
C429 N428 1.321 . S
C429 H436 0.930 . S
C430 C425 1.395 . S
C430 C427 1.386 . S
C430 H449 0.930 . S
Eu431 N428 2.609 . S
Eu431 N432 2.657 . S
Eu431 O465 2.380 . S
Eu431 O466 2.432 . S
Eu431 O470 2.558 . S
Eu431 O471 2.612 . S
Eu431 O473 2.339 . S
Eu431 O474 2.563 . S
Eu431 O475 2.419 . S
Eu431 C495 2.848 . S
N432 C424 1.362 . S
N432 Eu431 2.657 . S
N432 C433 1.334 . S
C433 N432 1.334 . S
C433 C435 1.413 . S
C433 H440 0.929 . S
C434 C422 1.392 . S
C434 C435 1.367 . S
C434 H442 0.930 . S
C435 C433 1.413 . S
C435 C434 1.367 . S
C435 H437 0.930 . S
H436 C429 0.930 . S
H437 C435 0.930 . S
H438 C426 0.930 1_565 S
H439 C427 0.930 . S
H440 C433 0.929 . S
H441 C455 0.930 . S
H442 C434 0.930 . S
H443 C461 0.930 . S
H444 C452 0.929 . S
H445 C459 0.930 . S
H446 C423 0.931 1_565 S
H447 C453 0.930 . S
H448 C486 0.930 . S
H449 C430 0.930 . S
H450 C485 0.931 . S
N451 Eu420 2.657 . S
N451 C452 1.334 . S
N451 C456 1.362 . S
C452 H444 0.929 . S
C452 N451 1.334 . S
C452 C455 1.413 . S
C453 H447 0.930 . S
C453 C454 1.392 . S
C453 C455 1.367 . S
C454 C453 1.392 . S
C454 C456 1.420 . S
C454 C486 1.423 . S
C455 H441 0.930 . S
C455 C452 1.413 . S
C455 C453 1.367 . S
C456 N451 1.362 . S
C456 C454 1.420 . S
C456 C460 1.429 . S
H457 C462 0.930 . S
N458 Eu420 2.609 . S
N458 C460 1.377 . S
N458 C461 1.321 . S
C459 H445 0.930 . S
C459 C461 1.400 . S
C459 C462 1.386 . S
C460 C456 1.429 . S
C460 N458 1.377 . S
C460 C463 1.411 . S
C461 H443 0.930 . S
C461 N458 1.321 . S
C461 C459 1.400 . S
C462 H457 0.930 . S
C462 C459 1.386 . S
C462 C463 1.395 . S
C463 C460 1.411 . S
C463 C462 1.395 . S
C463 C485 1.420 . S
O464 Eu420 2.558 . S
O464 C484 1.257 . S
O465 Eu420 2.612 . S
O465 Eu431 2.380 . S
O465 C476 1.276 . S
O466 Eu431 2.432 . S
O466 C483 1.264 . S
O467 Eu420 2.339 . S
O467 C483 1.254 . S
O468 Eu420 2.563 . S
O468 C476 1.235 . S
O469 Eu420 2.419 . S
O469 C484 1.249 . S
O470 Eu431 2.558 . S
O470 C495 1.257 . S
O471 Eu420 2.380 . S
O471 Eu431 2.612 . S
O471 C487 1.276 . S
O472 Eu420 2.432 . S
O472 C494 1.264 . S
O473 Eu431 2.339 . S
O473 C494 1.254 . S
O474 Eu431 2.563 . S
O474 C487 1.235 . S
O475 Eu431 2.419 . S
O475 C495 1.249 . S
C476 O465 1.276 . S
C476 O468 1.235 . S
C477 C479 1.393 . S
C477 C481 1.395 . S
C477 C484 1.492 . S
C478 C479 1.392 . S
C478 C480 1.386 . S
C479 C477 1.393 . S
C479 C478 1.392 . S
C479 H496 0.930 . S
C480 C478 1.386 . S
C480 C482 1.395 . S
C480 H497 0.930 . S
C481 C477 1.395 . S
C481 C482 1.379 . S
C481 H498 0.930 . S
C482 C480 1.395 . S
C482 C481 1.379 . S
C482 H499 0.930 . S
C483 O466 1.264 . S
C483 O467 1.254 . S
C484 Eu420 2.848 . S
C484 O464 1.257 . S
C484 O469 1.249 . S
C484 C477 1.492 . S
C485 H450 0.931 . S
C485 C463 1.420 . S
C485 C486 1.351 . S
C486 H448 0.930 . S
C486 C454 1.423 . S
C486 C485 1.351 . S
C487 O471 1.276 . S
C487 O474 1.235 . S
C488 C489 1.393 . S
C488 C492 1.395 . S
C488 C495 1.492 1_565 S
C489 C488 1.393 . S
C489 C490 1.392 . S
C489 H500 0.930 . S
C490 C489 1.392 . S
C490 C491 1.386 . S
C491 C490 1.386 . S
C491 C493 1.395 . S
C491 H501 0.930 . S
C492 C488 1.395 . S
C492 C493 1.379 . S
C492 H502 0.930 . S
C493 C491 1.395 . S
C493 C492 1.379 . S
C493 H503 0.930 . S
C494 O472 1.264 . S
C494 O473 1.254 . S
C495 Eu431 2.848 . S
C495 O470 1.257 . S
C495 O475 1.249 . S
C495 C488 1.492 1_545 S
H496 C479 0.930 . S
H497 C480 0.930 . S
H498 C481 0.930 . S
H499 C482 0.930 . S
H500 C489 0.930 . S
H501 C491 0.930 . S
H502 C492 0.930 . S
H503 C493 0.930 . S
Eu504 N535 2.657 . S
Eu504 N542 2.609 . S
Eu504 O548 2.558 . S
Eu504 O549 2.612 . S
Eu504 O551 2.339 . S
Eu504 O552 2.563 . S
Eu504 O553 2.419 . S
Eu504 O555 2.380 . S
Eu504 O556 2.432 . S
Eu504 C568 2.848 . S
C505 C508 1.429 . S
C505 C509 1.411 . S
C505 N512 1.377 . S
C506 C508 1.420 . S
C506 C510 1.423 . S
C506 C518 1.392 . S
C507 C509 1.420 . S
C507 C510 1.351 . S
C507 H530 0.931 . S
C508 C505 1.429 . S
C508 C506 1.420 . S
C508 N516 1.362 . S
C509 C505 1.411 . S
C509 C507 1.420 . S
C509 C514 1.395 . S
C510 C506 1.423 . S
C510 C507 1.351 . S
C510 H522 0.930 . S
C511 C513 1.400 . S
C511 C514 1.386 . S
C511 H523 0.930 . S
N512 C505 1.377 . S
N512 C513 1.321 . S
N512 Eu515 2.609 . S
C513 C511 1.400 . S
C513 N512 1.321 . S
C513 H520 0.930 . S
C514 C509 1.395 . S
C514 C511 1.386 . S
C514 H533 0.930 . S
Eu515 N512 2.609 . S
Eu515 N516 2.657 . S
Eu515 O549 2.380 . S
Eu515 O550 2.432 . S
Eu515 O554 2.558 . S
Eu515 O555 2.612 . S
Eu515 O557 2.339 . S
Eu515 O558 2.563 . S
Eu515 O559 2.419 . S
Eu515 C579 2.848 . S
N516 C508 1.362 . S
N516 Eu515 2.657 . S
N516 C517 1.334 . S
C517 N516 1.334 . S
C517 C519 1.413 . S
C517 H524 0.929 . S
C518 C506 1.392 . S
C518 C519 1.367 . S
C518 H526 0.930 . S
C519 C517 1.413 . S
C519 C518 1.367 . S
C519 H521 0.930 . S
H520 C513 0.930 . S
H521 C519 0.930 . S
H522 C510 0.930 . S
H523 C511 0.930 . S
H524 C517 0.929 . S
H525 C539 0.930 . S
H526 C518 0.930 . S
H527 C545 0.930 . S
H528 C536 0.929 . S
H529 C543 0.930 . S
H530 C507 0.931 . S
H531 C537 0.930 1_545 S
H532 C570 0.930 . S
H533 C514 0.930 . S
H534 C569 0.931 1_545 S
N535 Eu504 2.657 . S
N535 C536 1.334 . S
N535 C540 1.362 . S
C536 H528 0.929 . S
C536 N535 1.334 . S
C536 C539 1.413 . S
C537 H531 0.930 1_565 S
C537 C538 1.392 . S
C537 C539 1.367 . S
C538 C537 1.392 . S
C538 C540 1.420 . S
C538 C570 1.423 1_565 S
C539 H525 0.930 . S
C539 C536 1.413 . S
C539 C537 1.367 . S
C540 N535 1.362 . S
C540 C538 1.420 . S
C540 C544 1.429 . S
H541 C546 0.930 . S
N542 Eu504 2.609 . S
N542 C544 1.377 . S
N542 C545 1.321 . S
C543 H529 0.930 . S
C543 C545 1.400 . S
C543 C546 1.386 . S
C544 C540 1.429 . S
C544 N542 1.377 . S
C544 C547 1.411 . S
C545 H527 0.930 . S
C545 N542 1.321 . S
C545 C543 1.400 . S
C546 H541 0.930 . S
C546 C543 1.386 . S
C546 C547 1.395 . S
C547 C544 1.411 . S
C547 C546 1.395 . S
C547 C569 1.420 . S
O548 Eu504 2.558 . S
O548 C568 1.257 . S
O549 Eu504 2.612 . S
O549 Eu515 2.380 . S
O549 C560 1.276 . S
O550 Eu515 2.432 . S
O550 C567 1.264 . S
O551 Eu504 2.339 . S
O551 C567 1.254 . S
O552 Eu504 2.563 . S
O552 C560 1.235 . S
O553 Eu504 2.419 . S
O553 C568 1.249 . S
O554 Eu515 2.558 . S
O554 C579 1.257 . S
O555 Eu504 2.380 . S
O555 Eu515 2.612 . S
O555 C571 1.276 . S
O556 Eu504 2.432 . S
O556 C578 1.264 . S
O557 Eu515 2.339 . S
O557 C578 1.254 . S
O558 Eu515 2.563 . S
O558 C571 1.235 . S
O559 Eu515 2.419 . S
O559 C579 1.249 . S
C560 O549 1.276 . S
C560 O552 1.235 . S
C561 C563 1.393 . S
C561 C565 1.395 . S
C561 C568 1.492 . S
C562 C563 1.392 . S
C562 C564 1.386 . S
C563 C561 1.393 . S
C563 C562 1.392 . S
C563 H580 0.930 . S
C564 C562 1.386 . S
C564 C566 1.395 . S
C564 H581 0.930 . S
C565 C561 1.395 . S
C565 C566 1.379 . S
C565 H582 0.930 . S
C566 C564 1.395 . S
C566 C565 1.379 . S
C566 H583 0.930 . S
C567 O550 1.264 . S
C567 O551 1.254 . S
C568 Eu504 2.848 . S
C568 O548 1.257 . S
C568 O553 1.249 . S
C568 C561 1.492 . S
C569 H534 0.931 1_565 S
C569 C547 1.420 . S
C569 C570 1.351 1_565 S
C570 H532 0.930 . S
C570 C538 1.423 1_545 S
C570 C569 1.351 1_545 S
C571 O555 1.276 . S
C571 O558 1.235 . S
C572 C573 1.393 . S
C572 C576 1.395 . S
C572 C579 1.492 . S
C573 C572 1.393 . S
C573 C574 1.392 . S
C573 H584 0.930 . S
C574 C573 1.392 . S
C574 C575 1.386 . S
C575 C574 1.386 . S
C575 C577 1.395 . S
C575 H585 0.930 . S
C576 C572 1.395 . S
C576 C577 1.379 . S
C576 H586 0.930 . S
C577 C575 1.395 . S
C577 C576 1.379 . S
C577 H587 0.930 . S
C578 O556 1.264 . S
C578 O557 1.254 . S
C579 Eu515 2.848 . S
C579 O554 1.257 . S
C579 O559 1.249 . S
C579 C572 1.492 . S
H580 C563 0.930 . S
H581 C564 0.930 . S
H582 C565 0.930 . S
H583 C566 0.930 . S
H584 C573 0.930 . S
H585 C575 0.930 . S
H586 C576 0.930 . S
H587 C577 0.930 . S
Eu588 N619 2.657 . S
Eu588 N626 2.609 . S
Eu588 O632 2.558 . S
Eu588 O633 2.612 . S
Eu588 O635 2.339 . S
Eu588 O636 2.563 . S
Eu588 O637 2.419 . S
Eu588 O639 2.380 . S
Eu588 O640 2.432 . S
Eu588 C652 2.848 . S
C589 C592 1.429 . S
C589 C593 1.411 . S
C589 N596 1.377 . S
C590 C592 1.420 . S
C590 C594 1.423 . S
C590 C602 1.392 . S
C591 C593 1.420 . S
C591 C594 1.351 . S
C591 H614 0.931 1_655 S
C592 C589 1.429 . S
C592 C590 1.420 . S
C592 N600 1.362 . S
C593 C589 1.411 . S
C593 C591 1.420 . S
C593 C598 1.395 . S
C594 C590 1.423 . S
C594 C591 1.351 . S
C594 H606 0.930 1_655 S
C595 C597 1.400 . S
C595 C598 1.386 . S
C595 H607 0.930 . S
N596 C589 1.377 . S
N596 C597 1.321 . S
N596 Eu599 2.609 . S
C597 C595 1.400 . S
C597 N596 1.321 . S
C597 H604 0.930 . S
C598 C593 1.395 . S
C598 C595 1.386 . S
C598 H617 0.930 . S
Eu599 N596 2.609 . S
Eu599 N600 2.657 . S
Eu599 O633 2.380 . S
Eu599 O634 2.432 . S
Eu599 O638 2.558 . S
Eu599 O639 2.612 . S
Eu599 O641 2.339 . S
Eu599 O642 2.563 . S
Eu599 O643 2.419 . S
Eu599 C663 2.848 . S
N600 C592 1.362 . S
N600 Eu599 2.657 . S
N600 C601 1.334 . S
C601 N600 1.334 . S
C601 C603 1.413 . S
C601 H608 0.929 . S
C602 C590 1.392 . S
C602 C603 1.367 . S
C602 H610 0.930 . S
C603 C601 1.413 . S
C603 C602 1.367 . S
C603 H605 0.930 . S
H604 C597 0.930 . S
H605 C603 0.930 . S
H606 C594 0.930 1_455 S
H607 C595 0.930 . S
H608 C601 0.929 . S
H609 C623 0.930 . S
H610 C602 0.930 . S
H611 C629 0.930 . S
H612 C620 0.929 . S
H613 C627 0.930 . S
H614 C591 0.931 1_455 S
H615 C621 0.930 . S
H616 C654 0.930 . S
H617 C598 0.930 . S
H618 C653 0.931 . S
N619 Eu588 2.657 . S
N619 C620 1.334 . S
N619 C624 1.362 . S
C620 H612 0.929 . S
C620 N619 1.334 . S
C620 C623 1.413 . S
C621 H615 0.930 . S
C621 C622 1.392 . S
C621 C623 1.367 . S
C622 C621 1.392 . S
C622 C624 1.420 . S
C622 C654 1.423 . S
C623 H609 0.930 . S
C623 C620 1.413 . S
C623 C621 1.367 . S
C624 N619 1.362 . S
C624 C622 1.420 . S
C624 C628 1.429 . S
H625 C630 0.930 . S
N626 Eu588 2.609 . S
N626 C628 1.377 . S
N626 C629 1.321 . S
C627 H613 0.930 . S
C627 C629 1.400 . S
C627 C630 1.386 . S
C628 C624 1.429 . S
C628 N626 1.377 . S
C628 C631 1.411 . S
C629 H611 0.930 . S
C629 N626 1.321 . S
C629 C627 1.400 . S
C630 H625 0.930 . S
C630 C627 1.386 . S
C630 C631 1.395 . S
C631 C628 1.411 . S
C631 C630 1.395 . S
C631 C653 1.420 . S
O632 Eu588 2.558 . S
O632 C652 1.257 . S
O633 Eu588 2.612 . S
O633 Eu599 2.380 . S
O633 C644 1.276 . S
O634 Eu599 2.432 . S
O634 C651 1.264 . S
O635 Eu588 2.339 . S
O635 C651 1.254 . S
O636 Eu588 2.563 . S
O636 C644 1.235 . S
O637 Eu588 2.419 . S
O637 C652 1.249 . S
O638 Eu599 2.558 . S
O638 C663 1.257 . S
O639 Eu588 2.380 . S
O639 Eu599 2.612 . S
O639 C655 1.276 . S
O640 Eu588 2.432 . S
O640 C662 1.264 . S
O641 Eu599 2.339 . S
O641 C662 1.254 . S
O642 Eu599 2.563 . S
O642 C655 1.235 . S
O643 Eu599 2.419 . S
O643 C663 1.249 . S
C644 O633 1.276 . S
C644 O636 1.235 . S
C645 C647 1.393 . S
C645 C649 1.395 . S
C645 C652 1.492 . S
C646 C647 1.392 . S
C646 C648 1.386 . S
C647 C645 1.393 . S
C647 C646 1.392 . S
C647 H664 0.930 . S
C648 C646 1.386 . S
C648 C650 1.395 . S
C648 H665 0.930 . S
C649 C645 1.395 . S
C649 C650 1.379 . S
C649 H666 0.930 . S
C650 C648 1.395 . S
C650 C649 1.379 . S
C650 H667 0.930 . S
C651 O634 1.264 . S
C651 O635 1.254 . S
C652 Eu588 2.848 . S
C652 O632 1.257 . S
C652 O637 1.249 . S
C652 C645 1.492 . S
C653 H618 0.931 . S
C653 C631 1.420 . S
C653 C654 1.351 . S
C654 H616 0.930 . S
C654 C622 1.423 . S
C654 C653 1.351 . S
C655 O639 1.276 . S
C655 O642 1.235 . S
C656 C657 1.393 . S
C656 C660 1.395 . S
C656 C663 1.492 1_455 S
C657 C656 1.393 . S
C657 C658 1.392 . S
C657 H668 0.930 . S
C658 C657 1.392 . S
C658 C659 1.386 . S
C659 C658 1.386 . S
C659 C661 1.395 . S
C659 H669 0.930 . S
C660 C656 1.395 . S
C660 C661 1.379 . S
C660 H670 0.930 . S
C661 C659 1.395 . S
C661 C660 1.379 . S
C661 H671 0.930 . S
C662 O640 1.264 . S
C662 O641 1.254 . S
C663 Eu599 2.848 . S
C663 O638 1.257 . S
C663 O643 1.249 . S
C663 C656 1.492 1_655 S
H664 C647 0.930 . S
H665 C648 0.930 . S
H666 C649 0.930 . S
H667 C650 0.930 . S
H668 C657 0.930 . S
H669 C659 0.930 . S
H670 C660 0.930 . S
H671 C661 0.930 . S
Eu672 N703 2.657 . S
Eu672 N710 2.609 . S
Eu672 O716 2.558 . S
Eu672 O717 2.612 . S
Eu672 O719 2.339 . S
Eu672 O720 2.563 . S
Eu672 O721 2.419 . S
Eu672 O723 2.380 . S
Eu672 O724 2.432 . S
Eu672 C736 2.848 . S
C673 C676 1.429 . S
C673 C677 1.411 . S
C673 N680 1.377 . S
C674 C676 1.420 . S
C674 C678 1.423 . S
C674 C686 1.392 . S
C675 C677 1.420 . S
C675 C678 1.351 . S
C675 H698 0.931 1_565 S
C676 C673 1.429 . S
C676 C674 1.420 . S
C676 N684 1.362 . S
C677 C673 1.411 . S
C677 C675 1.420 . S
C677 C682 1.395 . S
C678 C674 1.423 . S
C678 C675 1.351 . S
C678 H690 0.930 1_565 S
C679 C681 1.400 . S
C679 C682 1.386 . S
C679 H691 0.930 . S
N680 C673 1.377 . S
N680 C681 1.321 . S
N680 Eu683 2.609 . S
C681 C679 1.400 . S
C681 N680 1.321 . S
C681 H688 0.930 . S
C682 C677 1.395 . S
C682 C679 1.386 . S
C682 H701 0.930 . S
Eu683 N680 2.609 . S
Eu683 N684 2.657 . S
Eu683 O717 2.380 . S
Eu683 O718 2.432 . S
Eu683 O722 2.558 . S
Eu683 O723 2.612 . S
Eu683 O725 2.339 . S
Eu683 O726 2.563 . S
Eu683 O727 2.419 . S
Eu683 C747 2.848 . S
N684 C676 1.362 . S
N684 Eu683 2.657 . S
N684 C685 1.334 . S
C685 N684 1.334 . S
C685 C687 1.413 . S
C685 H692 0.929 . S
C686 C674 1.392 . S
C686 C687 1.367 . S
C686 H694 0.930 . S
C687 C685 1.413 . S
C687 C686 1.367 . S
C687 H689 0.930 . S
H688 C681 0.930 . S
H689 C687 0.930 . S
H690 C678 0.930 1_545 S
H691 C679 0.930 . S
H692 C685 0.929 . S
H693 C707 0.930 . S
H694 C686 0.930 . S
H695 C713 0.930 . S
H696 C704 0.929 . S
H697 C711 0.930 . S
H698 C675 0.931 1_545 S
H699 C705 0.930 1_655 S
H700 C738 0.930 . S
H701 C682 0.930 . S
H702 C737 0.931 1_655 S
N703 Eu672 2.657 . S
N703 C704 1.334 . S
N703 C708 1.362 . S
C704 H696 0.929 . S
C704 N703 1.334 . S
C704 C707 1.413 . S
C705 H699 0.930 1_455 S
C705 C706 1.392 . S
C705 C707 1.367 . S
C706 C705 1.392 . S
C706 C708 1.420 . S
C706 C738 1.423 1_455 S
C707 H693 0.930 . S
C707 C704 1.413 . S
C707 C705 1.367 . S
C708 N703 1.362 . S
C708 C706 1.420 . S
C708 C712 1.429 . S
H709 C714 0.930 . S
N710 Eu672 2.609 . S
N710 C712 1.377 . S
N710 C713 1.321 . S
C711 H697 0.930 . S
C711 C713 1.400 . S
C711 C714 1.386 . S
C712 C708 1.429 . S
C712 N710 1.377 . S
C712 C715 1.411 . S
C713 H695 0.930 . S
C713 N710 1.321 . S
C713 C711 1.400 . S
C714 H709 0.930 . S
C714 C711 1.386 . S
C714 C715 1.395 . S
C715 C712 1.411 . S
C715 C714 1.395 . S
C715 C737 1.420 . S
O716 Eu672 2.558 . S
O716 C736 1.257 . S
O717 Eu672 2.612 . S
O717 Eu683 2.380 . S
O717 C728 1.276 . S
O718 Eu683 2.432 . S
O718 C735 1.264 . S
O719 Eu672 2.339 . S
O719 C735 1.254 . S
O720 Eu672 2.563 . S
O720 C728 1.235 . S
O721 Eu672 2.419 . S
O721 C736 1.249 . S
O722 Eu683 2.558 . S
O722 C747 1.257 . S
O723 Eu672 2.380 . S
O723 Eu683 2.612 . S
O723 C739 1.276 . S
O724 Eu672 2.432 . S
O724 C746 1.264 . S
O725 Eu683 2.339 . S
O725 C746 1.254 . S
O726 Eu683 2.563 . S
O726 C739 1.235 . S
O727 Eu683 2.419 . S
O727 C747 1.249 . S
C728 O717 1.276 . S
C728 O720 1.235 . S
C729 C731 1.393 . S
C729 C733 1.395 . S
C729 C736 1.492 . S
C730 C731 1.392 . S
C730 C732 1.386 . S
C731 C729 1.393 . S
C731 C730 1.392 . S
C731 H748 0.930 . S
C732 C730 1.386 . S
C732 C734 1.395 . S
C732 H749 0.930 . S
C733 C729 1.395 . S
C733 C734 1.379 . S
C733 H750 0.930 . S
C734 C732 1.395 . S
C734 C733 1.379 . S
C734 H751 0.930 . S
C735 O718 1.264 . S
C735 O719 1.254 . S
C736 Eu672 2.848 . S
C736 O716 1.257 . S
C736 O721 1.249 . S
C736 C729 1.492 . S
C737 H702 0.931 1_455 S
C737 C715 1.420 . S
C737 C738 1.351 1_455 S
C738 H700 0.930 . S
C738 C706 1.423 1_655 S
C738 C737 1.351 1_655 S
C739 O723 1.276 . S
C739 O726 1.235 . S
C740 C741 1.393 . S
C740 C744 1.395 . S
C740 C747 1.492 1_545 S
C741 C740 1.393 . S
C741 C742 1.392 . S
C741 H752 0.930 . S
C742 C741 1.392 . S
C742 C743 1.386 . S
C743 C742 1.386 . S
C743 C745 1.395 . S
C743 H753 0.930 . S
C744 C740 1.395 . S
C744 C745 1.379 . S
C744 H754 0.930 . S
C745 C743 1.395 . S
C745 C744 1.379 . S
C745 H755 0.930 . S
C746 O724 1.264 . S
C746 O725 1.254 . S
C747 Eu683 2.848 . S
C747 O722 1.257 . S
C747 O727 1.249 . S
C747 C740 1.492 1_565 S
H748 C731 0.930 . S
H749 C732 0.930 . S
H750 C733 0.930 . S
H751 C734 0.930 . S
H752 C741 0.930 . S
H753 C743 0.930 . S
H754 C744 0.930 . S
H755 C745 0.930 . S
Eu756 N787 2.657 . S
Eu756 N794 2.609 . S
Eu756 O800 2.558 . S
Eu756 O801 2.612 . S
Eu756 O803 2.339 . S
Eu756 O804 2.563 . S
Eu756 O805 2.419 . S
Eu756 O807 2.380 . S
Eu756 O808 2.432 . S
Eu756 C820 2.848 . S
C757 C760 1.429 . S
C757 C761 1.411 . S
C757 N764 1.377 . S
C758 C760 1.420 . S
C758 C762 1.423 . S
C758 C770 1.392 . S
C759 C761 1.420 . S
C759 C762 1.351 . S
C759 H782 0.931 . S
C760 C757 1.429 . S
C760 C758 1.420 . S
C760 N768 1.362 . S
C761 C757 1.411 . S
C761 C759 1.420 . S
C761 C766 1.395 . S
C762 C758 1.423 . S
C762 C759 1.351 . S
C762 H774 0.930 . S
C763 C765 1.400 . S
C763 C766 1.386 . S
C763 H775 0.930 . S
N764 C757 1.377 . S
N764 C765 1.321 . S
N764 Eu767 2.609 . S
C765 C763 1.400 . S
C765 N764 1.321 . S
C765 H772 0.930 . S
C766 C761 1.395 . S
C766 C763 1.386 . S
C766 H785 0.930 . S
Eu767 N764 2.609 . S
Eu767 N768 2.657 . S
Eu767 O801 2.380 . S
Eu767 O802 2.432 . S
Eu767 O806 2.558 . S
Eu767 O807 2.612 . S
Eu767 O809 2.339 . S
Eu767 O810 2.563 . S
Eu767 O811 2.419 . S
Eu767 C831 2.848 . S
N768 C760 1.362 . S
N768 Eu767 2.657 . S
N768 C769 1.334 . S
C769 N768 1.334 . S
C769 C771 1.413 . S
C769 H776 0.929 . S
C770 C758 1.392 . S
C770 C771 1.367 . S
C770 H778 0.930 . S
C771 C769 1.413 . S
C771 C770 1.367 . S
C771 H773 0.930 . S
H772 C765 0.930 . S
H773 C771 0.930 . S
H774 C762 0.930 . S
H775 C763 0.930 . S
H776 C769 0.929 . S
H777 C791 0.930 . S
H778 C770 0.930 . S
H779 C797 0.930 . S
H780 C788 0.929 . S
H781 C795 0.930 . S
H782 C759 0.931 . S
H783 C789 0.930 1_565 S
H784 C822 0.930 . S
H785 C766 0.930 . S
H786 C821 0.931 1_565 S
N787 Eu756 2.657 . S
N787 C788 1.334 . S
N787 C792 1.362 . S
C788 H780 0.929 . S
C788 N787 1.334 . S
C788 C791 1.413 . S
C789 H783 0.930 1_545 S
C789 C790 1.392 . S
C789 C791 1.367 . S
C790 C789 1.392 . S
C790 C792 1.420 . S
C790 C822 1.423 1_545 S
C791 H777 0.930 . S
C791 C788 1.413 . S
C791 C789 1.367 . S
C792 N787 1.362 . S
C792 C790 1.420 . S
C792 C796 1.429 . S
H793 C798 0.930 . S
N794 Eu756 2.609 . S
N794 C796 1.377 . S
N794 C797 1.321 . S
C795 H781 0.930 . S
C795 C797 1.400 . S
C795 C798 1.386 . S
C796 C792 1.429 . S
C796 N794 1.377 . S
C796 C799 1.411 . S
C797 H779 0.930 . S
C797 N794 1.321 . S
C797 C795 1.400 . S
C798 H793 0.930 . S
C798 C795 1.386 . S
C798 C799 1.395 . S
C799 C796 1.411 . S
C799 C798 1.395 . S
C799 C821 1.420 . S
O800 Eu756 2.558 . S
O800 C820 1.257 . S
O801 Eu756 2.612 . S
O801 Eu767 2.380 . S
O801 C812 1.276 . S
O802 Eu767 2.432 . S
O802 C819 1.264 . S
O803 Eu756 2.339 . S
O803 C819 1.254 . S
O804 Eu756 2.563 . S
O804 C812 1.235 . S
O805 Eu756 2.419 . S
O805 C820 1.249 . S
O806 Eu767 2.558 . S
O806 C831 1.257 . S
O807 Eu756 2.380 . S
O807 Eu767 2.612 . S
O807 C823 1.276 . S
O808 Eu756 2.432 . S
O808 C830 1.264 . S
O809 Eu767 2.339 . S
O809 C830 1.254 . S
O810 Eu767 2.563 . S
O810 C823 1.235 . S
O811 Eu767 2.419 . S
O811 C831 1.249 . S
C812 O801 1.276 . S
C812 O804 1.235 . S
C813 C815 1.393 . S
C813 C817 1.395 . S
C813 C820 1.492 . S
C814 C815 1.392 . S
C814 C816 1.386 . S
C815 C813 1.393 . S
C815 C814 1.392 . S
C815 H832 0.930 . S
C816 C814 1.386 . S
C816 C818 1.395 . S
C816 H833 0.930 . S
C817 C813 1.395 . S
C817 C818 1.379 . S
C817 H834 0.930 . S
C818 C816 1.395 . S
C818 C817 1.379 . S
C818 H835 0.930 . S
C819 O802 1.264 . S
C819 O803 1.254 . S
C820 Eu756 2.848 . S
C820 O800 1.257 . S
C820 O805 1.249 . S
C820 C813 1.492 . S
C821 H786 0.931 1_545 S
C821 C799 1.420 . S
C821 C822 1.351 1_545 S
C822 H784 0.930 . S
C822 C790 1.423 1_565 S
C822 C821 1.351 1_565 S
C823 O807 1.276 . S
C823 O810 1.235 . S
C824 C825 1.393 . S
C824 C828 1.395 . S
C824 C831 1.492 . S
C825 C824 1.393 . S
C825 C826 1.392 . S
C825 H836 0.930 . S
C826 C825 1.392 . S
C826 C827 1.386 . S
C827 C826 1.386 . S
C827 C829 1.395 . S
C827 H837 0.930 . S
C828 C824 1.395 . S
C828 C829 1.379 . S
C828 H838 0.930 . S
C829 C827 1.395 . S
C829 C828 1.379 . S
C829 H839 0.930 . S
C830 O808 1.264 . S
C830 O809 1.254 . S
C831 Eu767 2.848 . S
C831 O806 1.257 . S
C831 O811 1.249 . S
C831 C824 1.492 . S
H832 C815 0.930 . S
H833 C816 0.930 . S
H834 C817 0.930 . S
H835 C818 0.930 . S
H836 C825 0.930 . S
H837 C827 0.930 . S
H838 C828 0.930 . S
H839 C829 0.930 . S
Eu840 N871 2.657 . S
Eu840 N878 2.609 . S
Eu840 O884 2.558 . S
Eu840 O885 2.612 . S
Eu840 O887 2.339 . S
Eu840 O888 2.563 . S
Eu840 O889 2.419 . S
Eu840 O891 2.380 . S
Eu840 O892 2.432 . S
Eu840 C904 2.848 . S
C841 C844 1.429 . S
C841 C845 1.411 . S
C841 N848 1.377 . S
C842 C844 1.420 . S
C842 C846 1.423 . S
C842 C854 1.392 . S
C843 C845 1.420 . S
C843 C846 1.351 . S
C843 H866 0.931 1_455 S
C844 C841 1.429 . S
C844 C842 1.420 . S
C844 N852 1.362 . S
C845 C841 1.411 . S
C845 C843 1.420 . S
C845 C850 1.395 . S
C846 C842 1.423 . S
C846 C843 1.351 . S
C846 H858 0.930 1_455 S
C847 C849 1.400 . S
C847 C850 1.386 . S
C847 H859 0.930 . S
N848 C841 1.377 . S
N848 C849 1.321 . S
N848 Eu851 2.609 . S
C849 C847 1.400 . S
C849 N848 1.321 . S
C849 H856 0.930 . S
C850 C845 1.395 . S
C850 C847 1.386 . S
C850 H869 0.930 . S
Eu851 N848 2.609 . S
Eu851 N852 2.657 . S
Eu851 O885 2.380 . S
Eu851 O886 2.432 . S
Eu851 O890 2.558 . S
Eu851 O891 2.612 . S
Eu851 O893 2.339 . S
Eu851 O894 2.563 . S
Eu851 O895 2.419 . S
Eu851 C915 2.848 . S
N852 C844 1.362 . S
N852 Eu851 2.657 . S
N852 C853 1.334 . S
C853 N852 1.334 . S
C853 C855 1.413 . S
C853 H860 0.929 . S
C854 C842 1.392 . S
C854 C855 1.367 . S
C854 H862 0.930 . S
C855 C853 1.413 . S
C855 C854 1.367 . S
C855 H857 0.930 . S
H856 C849 0.930 . S
H857 C855 0.930 . S
H858 C846 0.930 1_655 S
H859 C847 0.930 . S
H860 C853 0.929 . S
H861 C875 0.930 . S
H862 C854 0.930 . S
H863 C881 0.930 . S
H864 C872 0.929 . S
H865 C879 0.930 . S
H866 C843 0.931 1_655 S
H867 C873 0.930 . S
H868 C906 0.930 . S
H869 C850 0.930 . S
H870 C905 0.931 . S
N871 Eu840 2.657 . S
N871 C872 1.334 . S
N871 C876 1.362 . S
C872 H864 0.929 . S
C872 N871 1.334 . S
C872 C875 1.413 . S
C873 H867 0.930 . S
C873 C874 1.392 . S
C873 C875 1.367 . S
C874 C873 1.392 . S
C874 C876 1.420 . S
C874 C906 1.423 . S
C875 H861 0.930 . S
C875 C872 1.413 . S
C875 C873 1.367 . S
C876 N871 1.362 . S
C876 C874 1.420 . S
C876 C880 1.429 . S
H877 C882 0.930 . S
N878 Eu840 2.609 . S
N878 C880 1.377 . S
N878 C881 1.321 . S
C879 H865 0.930 . S
C879 C881 1.400 . S
C879 C882 1.386 . S
C880 C876 1.429 . S
C880 N878 1.377 . S
C880 C883 1.411 . S
C881 H863 0.930 . S
C881 N878 1.321 . S
C881 C879 1.400 . S
C882 H877 0.930 . S
C882 C879 1.386 . S
C882 C883 1.395 . S
C883 C880 1.411 . S
C883 C882 1.395 . S
C883 C905 1.420 . S
O884 Eu840 2.558 . S
O884 C904 1.257 . S
O885 Eu840 2.612 . S
O885 Eu851 2.380 . S
O885 C896 1.276 . S
O886 Eu851 2.432 . S
O886 C903 1.264 . S
O887 Eu840 2.339 . S
O887 C903 1.254 . S
O888 Eu840 2.563 . S
O888 C896 1.235 . S
O889 Eu840 2.419 . S
O889 C904 1.249 . S
O890 Eu851 2.558 . S
O890 C915 1.257 . S
O891 Eu840 2.380 . S
O891 Eu851 2.612 . S
O891 C907 1.276 . S
O892 Eu840 2.432 . S
O892 C914 1.264 . S
O893 Eu851 2.339 . S
O893 C914 1.254 . S
O894 Eu851 2.563 . S
O894 C907 1.235 . S
O895 Eu851 2.419 . S
O895 C915 1.249 . S
C896 O885 1.276 . S
C896 O888 1.235 . S
C897 C899 1.393 . S
C897 C901 1.395 . S
C897 C904 1.492 . S
C898 C899 1.392 . S
C898 C900 1.386 . S
C899 C897 1.393 . S
C899 C898 1.392 . S
C899 H916 0.930 . S
C900 C898 1.386 . S
C900 C902 1.395 . S
C900 H917 0.930 . S
C901 C897 1.395 . S
C901 C902 1.379 . S
C901 H918 0.930 . S
C902 C900 1.395 . S
C902 C901 1.379 . S
C902 H919 0.930 . S
C903 O886 1.264 . S
C903 O887 1.254 . S
C904 Eu840 2.848 . S
C904 O884 1.257 . S
C904 O889 1.249 . S
C904 C897 1.492 . S
C905 H870 0.931 . S
C905 C883 1.420 . S
C905 C906 1.351 . S
C906 H868 0.930 . S
C906 C874 1.423 . S
C906 C905 1.351 . S
C907 O891 1.276 . S
C907 O894 1.235 . S
C908 C909 1.393 . S
C908 C912 1.395 . S
C908 C915 1.492 1_655 S
C909 C908 1.393 . S
C909 C910 1.392 . S
C909 H920 0.930 . S
C910 C909 1.392 . S
C910 C911 1.386 . S
C911 C910 1.386 . S
C911 C913 1.395 . S
C911 H921 0.930 . S
C912 C908 1.395 . S
C912 C913 1.379 . S
C912 H922 0.930 . S
C913 C911 1.395 . S
C913 C912 1.379 . S
C913 H923 0.930 . S
C914 O892 1.264 . S
C914 O893 1.254 . S
C915 Eu851 2.848 . S
C915 O890 1.257 . S
C915 O895 1.249 . S
C915 C908 1.492 1_455 S
H916 C899 0.930 . S
H917 C900 0.930 . S
H918 C901 0.930 . S
H919 C902 0.930 . S
H920 C909 0.930 . S
H921 C911 0.930 . S
H922 C912 0.930 . S
H923 C913 0.930 . S
Eu924 N955 2.657 . S
Eu924 N962 2.609 . S
Eu924 O968 2.558 . S
Eu924 O969 2.612 . S
Eu924 O971 2.339 . S
Eu924 O972 2.563 . S
Eu924 O973 2.419 . S
Eu924 O975 2.380 . S
Eu924 O976 2.432 . S
Eu924 C988 2.848 . S
C925 C928 1.429 . S
C925 C929 1.411 . S
C925 N932 1.377 . S
C926 C928 1.420 . S
C926 C930 1.423 . S
C926 C938 1.392 . S
C927 C929 1.420 . S
C927 C930 1.351 . S
C927 H950 0.931 1_545 S
C928 C925 1.429 . S
C928 C926 1.420 . S
C928 N936 1.362 . S
C929 C925 1.411 . S
C929 C927 1.420 . S
C929 C934 1.395 . S
C930 C926 1.423 . S
C930 C927 1.351 . S
C930 H942 0.930 1_545 S
C931 C933 1.400 . S
C931 C934 1.386 . S
C931 H943 0.930 . S
N932 C925 1.377 . S
N932 C933 1.321 . S
N932 Eu935 2.609 . S
C933 C931 1.400 . S
C933 N932 1.321 . S
C933 H940 0.930 . S
C934 C929 1.395 . S
C934 C931 1.386 . S
C934 H953 0.930 . S
Eu935 N932 2.609 . S
Eu935 N936 2.657 . S
Eu935 O969 2.380 . S
Eu935 O970 2.432 . S
Eu935 O974 2.558 . S
Eu935 O975 2.612 . S
Eu935 O977 2.339 . S
Eu935 O978 2.563 . S
Eu935 O979 2.419 . S
Eu935 C999 2.848 . S
N936 C928 1.362 . S
N936 Eu935 2.657 . S
N936 C937 1.334 . S
C937 N936 1.334 . S
C937 C939 1.413 . S
C937 H944 0.929 . S
C938 C926 1.392 . S
C938 C939 1.367 . S
C938 H946 0.930 . S
C939 C937 1.413 . S
C939 C938 1.367 . S
C939 H941 0.930 . S
H940 C933 0.930 . S
H941 C939 0.930 . S
H942 C930 0.930 1_565 S
H943 C931 0.930 . S
H944 C937 0.929 . S
H945 C959 0.930 . S
H946 C938 0.930 . S
H947 C965 0.930 . S
H948 C956 0.929 . S
H949 C963 0.930 . S
H950 C927 0.931 1_565 S
H951 C957 0.930 1_455 S
H952 C990 0.930 . S
H953 C934 0.930 . S
H954 C989 0.931 1_455 S
N955 Eu924 2.657 . S
N955 C956 1.334 . S
N955 C960 1.362 . S
C956 H948 0.929 . S
C956 N955 1.334 . S
C956 C959 1.413 . S
C957 H951 0.930 1_655 S
C957 C958 1.392 . S
C957 C959 1.367 . S
C958 C957 1.392 . S
C958 C960 1.420 . S
C958 C990 1.423 1_655 S
C959 H945 0.930 . S
C959 C956 1.413 . S
C959 C957 1.367 . S
C960 N955 1.362 . S
C960 C958 1.420 . S
C960 C964 1.429 . S
H961 C966 0.930 . S
N962 Eu924 2.609 . S
N962 C964 1.377 . S
N962 C965 1.321 . S
C963 H949 0.930 . S
C963 C965 1.400 . S
C963 C966 1.386 . S
C964 C960 1.429 . S
C964 N962 1.377 . S
C964 C967 1.411 . S
C965 H947 0.930 . S
C965 N962 1.321 . S
C965 C963 1.400 . S
C966 H961 0.930 . S
C966 C963 1.386 . S
C966 C967 1.395 . S
C967 C964 1.411 . S
C967 C966 1.395 . S
C967 C989 1.420 . S
O968 Eu924 2.558 . S
O968 C988 1.257 . S
O969 Eu924 2.612 . S
O969 Eu935 2.380 . S
O969 C980 1.276 . S
O970 Eu935 2.432 . S
O970 C987 1.264 . S
O971 Eu924 2.339 . S
O971 C987 1.254 . S
O972 Eu924 2.563 . S
O972 C980 1.235 . S
O973 Eu924 2.419 . S
O973 C988 1.249 . S
O974 Eu935 2.558 . S
O974 C999 1.257 . S
O975 Eu924 2.380 . S
O975 Eu935 2.612 . S
O975 C991 1.276 . S
O976 Eu924 2.432 . S
O976 C998 1.264 . S
O977 Eu935 2.339 . S
O977 C998 1.254 . S
O978 Eu935 2.563 . S
O978 C991 1.235 . S
O979 Eu935 2.419 . S
O979 C999 1.249 . S
C980 O969 1.276 . S
C980 O972 1.235 . S
C981 C983 1.393 . S
C981 C985 1.395 . S
C981 C988 1.492 . S
C982 C983 1.392 . S
C982 C984 1.386 . S
C983 C981 1.393 . S
C983 C982 1.392 . S
C983 H1000 0.930 . S
C984 C982 1.386 . S
C984 C986 1.395 . S
C984 H1001 0.930 . S
C985 C981 1.395 . S
C985 C986 1.379 . S
C985 H1002 0.930 . S
C986 C984 1.395 . S
C986 C985 1.379 . S
C986 H1003 0.930 . S
C987 O970 1.264 . S
C987 O971 1.254 . S
C988 Eu924 2.848 . S
C988 O968 1.257 . S
C988 O973 1.249 . S
C988 C981 1.492 . S
C989 H954 0.931 1_655 S
C989 C967 1.420 . S
C989 C990 1.351 1_655 S
C990 H952 0.930 . S
C990 C958 1.423 1_455 S
C990 C989 1.351 1_455 S
C991 O975 1.276 . S
C991 O978 1.235 . S
C992 C993 1.393 . S
C992 C996 1.395 . S
C992 C999 1.492 1_565 S
C993 C992 1.393 . S
C993 C994 1.392 . S
C993 H1004 0.930 . S
C994 C993 1.392 . S
C994 C995 1.386 . S
C995 C994 1.386 . S
C995 C997 1.395 . S
C995 H1005 0.930 . S
C996 C992 1.395 . S
C996 C997 1.379 . S
C996 H1006 0.930 . S
C997 C995 1.395 . S
C997 C996 1.379 . S
C997 H1007 0.930 . S
C998 O976 1.264 . S
C998 O977 1.254 . S
C999 Eu935 2.848 . S
C999 O974 1.257 . S
C999 O979 1.249 . S
C999 C992 1.492 1_545 S
H1000 C983 0.930 . S
H1001 C984 0.930 . S
H1002 C985 0.930 . S
H1003 C986 0.930 . S
H1004 C993 0.930 . S
H1005 C995 0.930 . S
H1006 C996 0.930 . S
H1007 C997 0.930 . S
C1008 C1009 1.391 . S
C1008 C1010 1.394 . S
C1008 H1024 0.931 . S
C1009 C1008 1.391 . S
C1009 C1013 1.376 . S
C1010 C1008 1.394 . S
C1010 C1011 1.369 . S
C1010 C1014 1.531 . S
C1011 C1010 1.369 . S
C1011 C1012 1.410 . S
C1011 C1019 1.503 1_565 S
C1012 C1011 1.410 . S
C1012 C1013 1.392 . S
C1012 C1015 1.511 1_565 S
C1013 C1009 1.376 . S
C1013 C1012 1.392 . S
C1013 H1025 0.929 . S
C1014 C1010 1.531 . S
C1014 H1026 0.960 . S
C1014 H1027 0.962 . S
C1014 H1028 0.960 . S
C1015 C1012 1.511 1_545 S
C1015 H1029 0.961 . S
C1015 H1030 0.961 . S
C1015 H1031 0.961 . S
C1016 C1017 1.370 . S
C1016 C1018 1.363 . S
C1016 H1032 0.931 . S
C1017 C1016 1.370 . S
C1017 C1021 1.408 . S
C1018 C1016 1.363 . S
C1018 C1019 1.370 . S
C1018 C1022 1.524 . S
C1019 C1011 1.503 1_545 S
C1019 C1018 1.370 . S
C1019 C1020 1.403 . S
C1020 C1019 1.403 . S
C1020 C1021 1.404 . S
C1020 C1023 1.539 . S
C1021 C1017 1.408 . S
C1021 C1020 1.404 . S
C1021 H1033 0.930 . S
C1022 C1018 1.524 . S
C1022 H1034 0.956 1_545 S
C1022 H1035 0.961 . S
C1022 H1036 0.961 . S
C1023 C1020 1.539 . S
C1023 H1037 0.958 . S
C1023 H1038 0.961 . S
C1023 H1039 0.960 . S
H1024 C1008 0.931 . S
H1025 C1013 0.929 . S
H1026 C1014 0.960 . S
H1027 C1014 0.962 . S
H1028 C1014 0.960 . S
H1029 C1015 0.961 . S
H1030 C1015 0.961 . S
H1031 C1015 0.961 . S
H1032 C1016 0.931 . S
H1033 C1021 0.930 . S
H1034 C1022 0.956 1_565 S
H1035 C1022 0.961 . S
H1036 C1022 0.961 . S
H1037 C1023 0.958 . S
H1038 C1023 0.961 . S
H1039 C1023 0.960 . S
C1040 C1041 1.391 . S
C1040 C1042 1.394 . S
C1040 H1056 0.931 . S
C1041 C1040 1.391 . S
C1041 C1045 1.376 . S
C1042 C1040 1.394 . S
C1042 C1043 1.369 . S
C1042 C1046 1.531 . S
C1043 C1042 1.369 . S
C1043 C1044 1.410 . S
C1043 C1051 1.503 . S
C1044 C1043 1.410 . S
C1044 C1045 1.392 . S
C1044 C1047 1.511 . S
C1045 C1041 1.376 . S
C1045 C1044 1.392 . S
C1045 H1057 0.929 . S
C1046 C1042 1.531 . S
C1046 H1058 0.960 . S
C1046 H1059 0.962 . S
C1046 H1060 0.960 . S
C1047 C1044 1.511 . S
C1047 H1061 0.961 . S
C1047 H1062 0.961 . S
C1047 H1063 0.961 . S
C1048 C1049 1.370 . S
C1048 C1050 1.363 . S
C1048 H1064 0.931 . S
C1049 C1048 1.370 . S
C1049 C1053 1.408 . S
C1050 C1048 1.363 . S
C1050 C1051 1.370 . S
C1050 C1054 1.524 . S
C1051 C1043 1.503 . S
C1051 C1050 1.370 . S
C1051 C1052 1.403 . S
C1052 C1051 1.403 . S
C1052 C1053 1.404 . S
C1052 C1055 1.539 . S
C1053 C1049 1.408 . S
C1053 C1052 1.404 . S
C1053 H1065 0.930 . S
C1054 C1050 1.524 . S
C1054 H1066 0.956 . S
C1054 H1067 0.961 . S
C1054 H1068 0.961 . S
C1055 C1052 1.539 . S
C1055 H1069 0.958 . S
C1055 H1070 0.961 . S
C1055 H1071 0.960 . S
H1056 C1040 0.931 . S
H1057 C1045 0.929 . S
H1058 C1046 0.960 . S
H1059 C1046 0.962 . S
H1060 C1046 0.960 . S
H1061 C1047 0.961 . S
H1062 C1047 0.961 . S
H1063 C1047 0.961 . S
H1064 C1048 0.931 . S
H1065 C1053 0.930 . S
H1066 C1054 0.956 . S
H1067 C1054 0.961 . S
H1068 C1054 0.961 . S
H1069 C1055 0.958 . S
H1070 C1055 0.961 . S
H1071 C1055 0.960 . S
C1072 C1073 1.391 . S
C1072 C1074 1.394 . S
C1072 H1088 0.931 . S
C1073 C1072 1.391 . S
C1073 C1077 1.376 . S
C1074 C1072 1.394 . S
C1074 C1075 1.369 . S
C1074 C1078 1.531 . S
C1075 C1074 1.369 . S
C1075 C1076 1.410 . S
C1075 C1083 1.503 1_655 S
C1076 C1075 1.410 . S
C1076 C1077 1.392 . S
C1076 C1079 1.511 . S
C1077 C1073 1.376 . S
C1077 C1076 1.392 . S
C1077 H1089 0.929 . S
C1078 C1074 1.531 . S
C1078 H1090 0.960 1_655 S
C1078 H1091 0.962 1_655 S
C1078 H1092 0.960 . S
C1079 C1076 1.511 . S
C1079 H1093 0.961 . S
C1079 H1094 0.961 . S
C1079 H1095 0.961 . S
C1080 C1081 1.370 . S
C1080 C1082 1.363 . S
C1080 H1096 0.931 . S
C1081 C1080 1.370 . S
C1081 C1085 1.408 . S
C1082 C1080 1.363 . S
C1082 C1083 1.370 . S
C1082 C1086 1.524 . S
C1083 C1075 1.503 1_455 S
C1083 C1082 1.370 . S
C1083 C1084 1.403 . S
C1084 C1083 1.403 . S
C1084 C1085 1.404 . S
C1084 C1087 1.539 1_455 S
C1085 C1081 1.408 . S
C1085 C1084 1.404 . S
C1085 H1097 0.930 . S
C1086 C1082 1.524 . S
C1086 H1098 0.956 . S
C1086 H1099 0.961 1_455 S
C1086 H1100 0.961 . S
C1087 C1084 1.539 1_655 S
C1087 H1101 0.958 . S
C1087 H1102 0.961 1_655 S
C1087 H1103 0.960 . S
H1088 C1072 0.931 . S
H1089 C1077 0.929 . S
H1090 C1078 0.960 1_455 S
H1091 C1078 0.962 1_455 S
H1092 C1078 0.960 . S
H1093 C1079 0.961 . S
H1094 C1079 0.961 . S
H1095 C1079 0.961 . S
H1096 C1080 0.931 . S
H1097 C1085 0.930 . S
H1098 C1086 0.956 . S
H1099 C1086 0.961 1_655 S
H1100 C1086 0.961 . S
H1101 C1087 0.958 . S
H1102 C1087 0.961 1_455 S
H1103 C1087 0.960 . S
C1104 C1105 1.391 . S
C1104 C1106 1.394 . S
C1104 H1120 0.931 . S
C1105 C1104 1.391 . S
C1105 C1109 1.376 . S
C1106 C1104 1.394 . S
C1106 C1107 1.369 . S
C1106 C1110 1.531 . S
C1107 C1106 1.369 . S
C1107 C1108 1.410 . S
C1107 C1115 1.503 1_565 S
C1108 C1107 1.410 . S
C1108 C1109 1.392 . S
C1108 C1111 1.511 . S
C1109 C1105 1.376 . S
C1109 C1108 1.392 . S
C1109 H1121 0.929 . S
C1110 C1106 1.531 . S
C1110 H1122 0.960 . S
C1110 H1123 0.962 . S
C1110 H1124 0.960 . S
C1111 C1108 1.511 . S
C1111 H1125 0.961 . S
C1111 H1126 0.961 1_565 S
C1111 H1127 0.961 . S
C1112 C1113 1.370 . S
C1112 C1114 1.363 . S
C1112 H1128 0.931 . S
C1113 C1112 1.370 . S
C1113 C1117 1.408 . S
C1114 C1112 1.363 . S
C1114 C1115 1.370 . S
C1114 C1118 1.524 . S
C1115 C1107 1.503 1_545 S
C1115 C1114 1.370 . S
C1115 C1116 1.403 . S
C1116 C1115 1.403 . S
C1116 C1117 1.404 . S
C1116 C1119 1.539 1_545 S
C1117 C1113 1.408 . S
C1117 C1116 1.404 . S
C1117 H1129 0.930 . S
C1118 C1114 1.524 . S
C1118 H1130 0.956 . S
C1118 H1131 0.961 . S
C1118 H1132 0.961 . S
C1119 C1116 1.539 1_565 S
C1119 H1133 0.958 . S
C1119 H1134 0.977 . S
C1119 H1135 0.960 . S
H1120 C1104 0.931 . S
H1121 C1109 0.929 . S
H1122 C1110 0.960 . S
H1123 C1110 0.962 . S
H1124 C1110 0.960 . S
H1125 C1111 0.961 . S
H1126 C1111 0.961 1_545 S
H1127 C1111 0.961 . S
H1128 C1112 0.931 . S
H1129 C1117 0.930 . S
H1130 C1118 0.956 . S
H1131 C1118 0.961 . S
H1132 C1118 0.961 . S
H1133 C1119 0.958 . S
H1134 C1119 0.977 . S
H1135 C1119 0.960 . S
C1136 C1137 1.391 . S
C1136 C1138 1.394 . S
C1136 H1152 0.931 . S
C1137 C1136 1.391 . S
C1137 C1141 1.376 . S
C1138 C1136 1.394 . S
C1138 C1139 1.369 . S
C1138 C1142 1.531 . S
C1139 C1138 1.369 . S
C1139 C1140 1.410 . S
C1139 C1147 1.503 . S
C1140 C1139 1.410 . S
C1140 C1141 1.392 . S
C1140 C1143 1.511 . S
C1141 C1137 1.376 . S
C1141 C1140 1.392 . S
C1141 H1153 0.929 . S
C1142 C1138 1.531 . S
C1142 H1154 0.960 . S
C1142 H1155 0.962 . S
C1142 H1156 0.960 . S
C1143 C1140 1.511 . S
C1143 H1157 0.961 . S
C1143 H1158 0.961 . S
C1143 H1159 0.961 . S
C1144 C1145 1.370 . S
C1144 C1146 1.363 . S
C1144 H1160 0.931 . S
C1145 C1144 1.370 . S
C1145 C1149 1.408 . S
C1146 C1144 1.363 . S
C1146 C1147 1.370 . S
C1146 C1150 1.524 . S
C1147 C1139 1.503 . S
C1147 C1146 1.370 . S
C1147 C1148 1.403 . S
C1148 C1147 1.403 . S
C1148 C1149 1.404 . S
C1148 C1151 1.539 . S
C1149 C1145 1.408 . S
C1149 C1148 1.404 . S
C1149 H1161 0.930 . S
C1150 C1146 1.524 . S
C1150 H1162 0.956 . S
C1150 H1163 0.961 . S
C1150 H1164 0.961 . S
C1151 C1148 1.539 . S
C1151 H1165 0.958 . S
C1151 H1166 0.961 . S
C1151 H1167 0.960 . S
H1152 C1136 0.931 . S
H1153 C1141 0.929 . S
H1154 C1142 0.960 . S
H1155 C1142 0.962 . S
H1156 C1142 0.960 . S
H1157 C1143 0.961 . S
H1158 C1143 0.961 . S
H1159 C1143 0.961 . S
H1160 C1144 0.931 . S
H1161 C1149 0.930 . S
H1162 C1150 0.956 . S
H1163 C1150 0.961 . S
H1164 C1150 0.961 . S
H1165 C1151 0.958 . S
H1166 C1151 0.961 . S
H1167 C1151 0.960 . S
C1168 C1169 1.391 . S
C1168 C1170 1.394 . S
C1168 H1184 0.931 . S
C1169 C1168 1.391 . S
C1169 C1173 1.376 . S
C1170 C1168 1.394 . S
C1170 C1171 1.369 . S
C1170 C1174 1.531 1_655 S
C1171 C1170 1.369 . S
C1171 C1172 1.410 . S
C1171 C1179 1.503 1_655 S
C1172 C1171 1.410 . S
C1172 C1173 1.392 . S
C1172 C1175 1.511 . S
C1173 C1169 1.376 . S
C1173 C1172 1.392 . S
C1173 H1185 0.929 . S
C1174 C1170 1.531 1_455 S
C1174 H1186 0.960 . S
C1174 H1187 0.962 . S
C1174 H1188 0.960 1_455 S
C1175 C1172 1.511 . S
C1175 H1189 0.961 . S
C1175 H1190 0.968 . S
C1175 H1191 0.961 . S
C1176 C1177 1.370 . S
C1176 C1178 1.363 . S
C1176 H1192 0.931 . S
C1177 C1176 1.370 . S
C1177 C1181 1.408 . S
C1178 C1176 1.363 . S
C1178 C1179 1.370 . S
C1178 C1182 1.524 . S
C1179 C1171 1.503 1_455 S
C1179 C1178 1.370 . S
C1179 C1180 1.403 . S
C1180 C1179 1.403 . S
C1180 C1181 1.404 . S
C1180 C1183 1.539 . S
C1181 C1177 1.408 . S
C1181 C1180 1.404 . S
C1181 H1193 0.930 . S
C1182 C1178 1.524 . S
C1182 H1194 0.956 . S
C1182 H1195 0.961 . S
C1182 H1196 0.961 . S
C1183 C1180 1.539 . S
C1183 H1197 0.958 . S
C1183 H1198 0.961 . S
C1183 H1199 0.960 1_455 S
H1184 C1168 0.931 . S
H1185 C1173 0.929 . S
H1186 C1174 0.960 . S
H1187 C1174 0.962 . S
H1188 C1174 0.960 1_655 S
H1189 C1175 0.961 . S
H1190 C1175 0.968 . S
H1191 C1175 0.961 . S
H1192 C1176 0.931 . S
H1193 C1181 0.930 . S
H1194 C1182 0.956 . S
H1195 C1182 0.961 . S
H1196 C1182 0.961 . S
H1197 C1183 0.958 . S
H1198 C1183 0.961 . S
H1199 C1183 0.960 1_655 S
C1200 C1201 1.391 . S
C1200 C1202 1.394 . S
C1200 H1216 0.931 . S
C1201 C1200 1.391 . S
C1201 C1205 1.376 . S
C1202 C1200 1.394 . S
C1202 C1203 1.369 . S
C1202 C1206 1.531 . S
C1203 C1202 1.369 . S
C1203 C1204 1.410 . S
C1203 C1211 1.503 1_455 S
C1204 C1203 1.410 . S
C1204 C1205 1.392 . S
C1204 C1207 1.511 1_455 S
C1205 C1201 1.376 . S
C1205 C1204 1.392 . S
C1205 H1217 0.929 . S
C1206 C1202 1.531 . S
C1206 H1218 0.960 . S
C1206 H1219 0.962 . S
C1206 H1220 0.960 . S
C1207 C1204 1.511 1_655 S
C1207 H1221 0.961 . S
C1207 H1222 0.961 . S
C1207 H1223 0.961 . S
C1208 C1209 1.370 . S
C1208 C1210 1.363 . S
C1208 H1224 0.931 . S
C1209 C1208 1.370 . S
C1209 C1213 1.408 . S
C1210 C1208 1.363 . S
C1210 C1211 1.370 . S
C1210 C1214 1.524 . S
C1211 C1203 1.503 1_655 S
C1211 C1210 1.370 . S
C1211 C1212 1.403 . S
C1212 C1211 1.403 . S
C1212 C1213 1.404 . S
C1212 C1215 1.539 . S
C1213 C1209 1.408 . S
C1213 C1212 1.404 . S
C1213 H1225 0.930 . S
C1214 C1210 1.524 . S
C1214 H1226 0.956 1_655 S
C1214 H1227 0.961 . S
C1214 H1228 0.961 . S
C1215 C1212 1.539 . S
C1215 H1229 0.958 . S
C1215 H1230 0.961 . S
C1215 H1231 0.960 . S
H1216 C1200 0.931 . S
H1217 C1205 0.929 . S
H1218 C1206 0.960 . S
H1219 C1206 0.962 . S
H1220 C1206 0.960 . S
H1221 C1207 0.961 . S
H1222 C1207 0.961 . S
H1223 C1207 0.961 . S
H1224 C1208 0.931 . S
H1225 C1213 0.930 . S
H1226 C1214 0.956 1_455 S
H1227 C1214 0.961 . S
H1228 C1214 0.961 . S
H1229 C1215 0.958 . S
H1230 C1215 0.961 . S
H1231 C1215 0.960 . S
C1232 C1233 1.391 . S
C1232 C1234 1.394 . S
C1232 H1248 0.931 . S
C1233 C1232 1.391 . S
C1233 C1237 1.376 . S
C1234 C1232 1.394 . S
C1234 C1235 1.369 . S
C1234 C1238 1.531 . S
C1235 C1234 1.369 . S
C1235 C1236 1.410 . S
C1235 C1243 1.503 1_565 S
C1236 C1235 1.410 . S
C1236 C1237 1.392 . S
C1236 C1239 1.511 . S
C1237 C1233 1.376 . S
C1237 C1236 1.392 . S
C1237 H1249 0.929 . S
C1238 C1234 1.531 . S
C1238 H1250 0.960 1_565 S
C1238 H1251 0.962 1_565 S
C1238 H1252 0.960 . S
C1239 C1236 1.511 . S
C1239 H1253 0.961 . S
C1239 H1254 0.961 . S
C1239 H1255 0.961 . S
C1240 C1241 1.370 . S
C1240 C1242 1.363 . S
C1240 H1256 0.931 . S
C1241 C1240 1.370 . S
C1241 C1245 1.408 . S
C1242 C1240 1.363 . S
C1242 C1243 1.370 . S
C1242 C1246 1.524 . S
C1243 C1235 1.503 1_545 S
C1243 C1242 1.370 . S
C1243 C1244 1.403 . S
C1244 C1243 1.403 . S
C1244 C1245 1.404 . S
C1244 C1247 1.539 1_545 S
C1245 C1241 1.408 . S
C1245 C1244 1.404 . S
C1245 H1257 0.930 . S
C1246 C1242 1.524 . S
C1246 H1258 0.956 . S
C1246 H1259 0.961 1_545 S
C1246 H1260 0.961 . S
C1247 C1244 1.539 1_565 S
C1247 H1261 0.958 . S
C1247 H1262 0.961 1_565 S
C1247 H1263 0.960 . S
H1248 C1232 0.931 . S
H1249 C1237 0.929 . S
H1250 C1238 0.960 1_545 S
H1251 C1238 0.962 1_545 S
H1252 C1238 0.960 . S
H1253 C1239 0.961 . S
H1254 C1239 0.961 . S
H1255 C1239 0.961 . S
H1256 C1240 0.931 . S
H1257 C1245 0.930 . S
H1258 C1246 0.956 . S
H1259 C1246 0.961 1_565 S
H1260 C1246 0.961 . S
H1261 C1247 0.958 . S
H1262 C1247 0.961 1_545 S
H1263 C1247 0.960 . S
C1264 C1265 1.391 . S
C1264 C1266 1.394 . S
C1264 H1280 0.931 . S
C1265 C1264 1.391 . S
C1265 C1269 1.376 . S
C1266 C1264 1.394 . S
C1266 C1267 1.369 . S
C1266 C1270 1.531 . S
C1267 C1266 1.369 . S
C1267 C1268 1.410 . S
C1267 C1275 1.503 . S
C1268 C1267 1.410 . S
C1268 C1269 1.392 . S
C1268 C1271 1.511 . S
C1269 C1265 1.376 . S
C1269 C1268 1.392 . S
C1269 H1281 0.929 . S
C1270 C1266 1.531 . S
C1270 H1282 0.960 . S
C1270 H1283 0.962 . S
C1270 H1284 0.960 . S
C1271 C1268 1.511 . S
C1271 H1285 0.961 . S
C1271 H1286 0.961 . S
C1271 H1287 0.961 . S
C1272 C1273 1.370 . S
C1272 C1274 1.363 . S
C1272 H1288 0.931 . S
C1273 C1272 1.370 . S
C1273 C1277 1.408 . S
C1274 C1272 1.363 . S
C1274 C1275 1.370 . S
C1274 C1278 1.524 . S
C1275 C1267 1.503 . S
C1275 C1274 1.370 . S
C1275 C1276 1.403 . S
C1276 C1275 1.403 . S
C1276 C1277 1.404 . S
C1276 C1279 1.539 . S
C1277 C1273 1.408 . S
C1277 C1276 1.404 . S
C1277 H1289 0.930 . S
C1278 C1274 1.524 . S
C1278 H1290 0.956 . S
C1278 H1291 0.961 . S
C1278 H1292 0.961 . S
C1279 C1276 1.539 . S
C1279 H1293 0.958 . S
C1279 H1294 0.961 . S
C1279 H1295 0.960 . S
H1280 C1264 0.931 . S
H1281 C1269 0.929 . S
H1282 C1270 0.960 . S
H1283 C1270 0.962 . S
H1284 C1270 0.960 . S
H1285 C1271 0.961 . S
H1286 C1271 0.961 . S
H1287 C1271 0.961 . S
H1288 C1272 0.931 . S
H1289 C1277 0.930 . S
H1290 C1278 0.956 . S
H1291 C1278 0.961 . S
H1292 C1278 0.961 . S
H1293 C1279 0.958 . S
H1294 C1279 0.961 . S
H1295 C1279 0.960 . S
C1296 C1297 1.391 . S
C1296 C1298 1.394 . S
C1296 H1312 0.931 . S
C1297 C1296 1.391 . S
C1297 C1301 1.376 . S
C1298 C1296 1.394 . S
C1298 C1299 1.369 . S
C1298 C1302 1.531 . S
C1299 C1298 1.369 . S
C1299 C1300 1.410 . S
C1299 C1307 1.503 1_455 S
C1300 C1299 1.410 . S
C1300 C1301 1.392 . S
C1300 C1303 1.511 . S
C1301 C1297 1.376 . S
C1301 C1300 1.392 . S
C1301 H1313 0.929 . S
C1302 C1298 1.531 . S
C1302 H1314 0.960 . S
C1302 H1315 0.962 . S
C1302 H1316 0.960 . S
C1303 C1300 1.511 . S
C1303 H1317 0.961 . S
C1303 H1318 0.961 1_455 S
C1303 H1319 0.961 1_455 S
C1304 C1305 1.370 . S
C1304 C1306 1.363 . S
C1304 H1320 0.931 . S
C1305 C1304 1.370 . S
C1305 C1309 1.408 . S
C1306 C1304 1.363 . S
C1306 C1307 1.370 . S
C1306 C1310 1.524 1_655 S
C1307 C1299 1.503 1_655 S
C1307 C1306 1.370 . S
C1307 C1308 1.403 . S
C1308 C1307 1.403 . S
C1308 C1309 1.404 . S
C1308 C1311 1.539 . S
C1309 C1305 1.408 . S
C1309 C1308 1.404 . S
C1309 H1321 0.930 . S
C1310 C1306 1.524 1_455 S
C1310 H1322 0.956 . S
C1310 H1323 0.961 . S
C1310 H1324 0.961 . S
C1311 C1308 1.539 . S
C1311 H1325 0.958 . S
C1311 H1326 0.961 . S
C1311 H1327 0.960 . S
H1312 C1296 0.931 . S
H1313 C1301 0.929 . S
H1314 C1302 0.960 . S
H1315 C1302 0.962 . S
H1316 C1302 0.960 . S
H1317 C1303 0.961 . S
H1318 C1303 0.961 1_655 S
H1319 C1303 0.961 1_655 S
H1320 C1304 0.931 . S
H1321 C1309 0.930 . S
H1322 C1310 0.956 . S
H1323 C1310 0.961 . S
H1324 C1310 0.961 . S
H1325 C1311 0.958 . S
H1326 C1311 0.961 . S
H1327 C1311 0.960 . S
C1328 C1329 1.391 . S
C1328 C1330 1.394 . S
C1328 H1344 0.931 . S
C1329 C1328 1.391 . S
C1329 C1333 1.376 . S
C1330 C1328 1.394 . S
C1330 C1331 1.369 . S
C1330 C1334 1.531 . S
C1331 C1330 1.369 . S
C1331 C1332 1.410 . S
C1331 C1339 1.503 1_545 S
C1332 C1331 1.410 . S
C1332 C1333 1.392 . S
C1332 C1335 1.511 . S
C1333 C1329 1.376 . S
C1333 C1332 1.392 . S
C1333 H1345 0.929 . S
C1334 C1330 1.531 . S
C1334 H1346 0.960 . S
C1334 H1347 0.962 . S
C1334 H1348 0.960 . S
C1335 C1332 1.511 . S
C1335 H1349 0.961 . S
C1335 H1350 0.961 1_545 S
C1335 H1351 0.961 1_545 S
C1336 C1337 1.370 . S
C1336 C1338 1.363 . S
C1336 H1352 0.931 . S
C1337 C1336 1.370 . S
C1337 C1341 1.408 . S
C1338 C1336 1.363 . S
C1338 C1339 1.370 . S
C1338 C1342 1.524 1_565 S
C1339 C1331 1.503 1_565 S
C1339 C1338 1.370 . S
C1339 C1340 1.403 . S
C1340 C1339 1.403 . S
C1340 C1341 1.404 . S
C1340 C1343 1.539 . S
C1341 C1337 1.408 . S
C1341 C1340 1.404 . S
C1341 H1353 0.930 . S
C1342 C1338 1.524 1_545 S
C1342 H1354 0.956 . S
C1342 H1355 0.961 . S
C1342 H1356 0.961 . S
C1343 C1340 1.539 . S
C1343 H1357 0.958 . S
C1343 H1358 0.961 . S
C1343 H1359 0.960 . S
H1344 C1328 0.931 . S
H1345 C1333 0.929 . S
H1346 C1334 0.960 . S
H1347 C1334 0.962 . S
H1348 C1334 0.960 . S
H1349 C1335 0.961 . S
H1350 C1335 0.961 1_565 S
H1351 C1335 0.961 1_565 S
H1352 C1336 0.931 . S
H1353 C1341 0.930 . S
H1354 C1342 0.956 . S
H1355 C1342 0.961 . S
H1356 C1342 0.961 . S
H1357 C1343 0.958 . S
H1358 C1343 0.961 . S
H1359 C1343 0.960 . S
C1360 C1361 1.391 . S
C1360 C1362 1.394 . S
C1360 H1376 0.931 . S
C1361 C1360 1.391 . S
C1361 C1365 1.376 . S
C1362 C1360 1.394 . S
C1362 C1363 1.369 . S
C1362 C1366 1.531 . S
C1363 C1362 1.369 . S
C1363 C1364 1.410 . S
C1363 C1371 1.503 . S
C1364 C1363 1.410 . S
C1364 C1365 1.392 . S
C1364 C1367 1.511 . S
C1365 C1361 1.376 . S
C1365 C1364 1.392 . S
C1365 H1377 0.929 . S
C1366 C1362 1.531 . S
C1366 H1378 0.960 . S
C1366 H1379 0.962 . S
C1366 H1380 0.960 . S
C1367 C1364 1.511 . S
C1367 H1381 0.961 . S
C1367 H1382 0.961 . S
C1367 H1383 0.961 . S
C1368 C1369 1.370 . S
C1368 C1370 1.363 . S
C1368 H1384 0.931 . S
C1369 C1368 1.370 . S
C1369 C1373 1.408 . S
C1370 C1368 1.363 . S
C1370 C1371 1.370 . S
C1370 C1374 1.524 . S
C1371 C1363 1.503 . S
C1371 C1370 1.370 . S
C1371 C1372 1.403 . S
C1372 C1371 1.403 . S
C1372 C1373 1.404 . S
C1372 C1375 1.539 . S
C1373 C1369 1.408 . S
C1373 C1372 1.404 . S
C1373 H1385 0.930 . S
C1374 C1370 1.524 . S
C1374 H1386 0.956 . S
C1374 H1387 0.961 . S
C1374 H1388 0.961 . S
C1375 C1372 1.539 . S
C1375 H1389 0.958 . S
C1375 H1390 0.961 . S
C1375 H1391 0.960 . S
H1376 C1360 0.931 . S
H1377 C1365 0.929 . S
H1378 C1366 0.960 . S
H1379 C1366 0.962 . S
H1380 C1366 0.960 . S
H1381 C1367 0.961 . S
H1382 C1367 0.961 . S
H1383 C1367 0.961 . S
H1384 C1368 0.931 . S
H1385 C1373 0.930 . S
H1386 C1374 0.956 . S
H1387 C1374 0.961 . S
H1388 C1374 0.961 . S
H1389 C1375 0.958 . S
H1390 C1375 0.961 . S
H1391 C1375 0.960 . S
C1392 C1393 1.391 . S
C1392 C1394 1.394 . S
C1392 H1408 0.931 . S
C1393 C1392 1.391 . S
C1393 C1397 1.376 . S
C1394 C1392 1.394 . S
C1394 C1395 1.369 . S
C1394 C1398 1.531 . S
C1395 C1394 1.369 . S
C1395 C1396 1.410 . S
C1395 C1403 1.503 . S
C1396 C1395 1.410 . S
C1396 C1397 1.392 . S
C1396 C1399 1.511 . S
C1397 C1393 1.376 . S
C1397 C1396 1.392 . S
C1397 H1409 0.929 . S
C1398 C1394 1.531 . S
C1398 H1410 0.960 . S
C1398 H1411 0.962 . S
C1398 H1412 0.960 . S
C1399 C1396 1.511 . S
C1399 H1413 0.961 . S
C1399 H1414 0.961 . S
C1399 H1415 0.961 . S
C1400 C1401 1.370 . S
C1400 C1402 1.363 . S
C1400 H1416 0.931 . S
C1401 C1400 1.370 . S
C1401 C1405 1.408 . S
C1402 C1400 1.363 . S
C1402 C1403 1.370 . S
C1402 C1406 1.524 . S
C1403 C1395 1.503 . S
C1403 C1402 1.370 . S
C1403 C1404 1.403 . S
C1404 C1403 1.403 . S
C1404 C1405 1.404 . S
C1404 C1407 1.539 . S
C1405 C1401 1.408 . S
C1405 C1404 1.404 . S
C1405 H1417 0.930 . S
C1406 C1402 1.524 . S
C1406 H1418 0.956 . S
C1406 H1419 0.961 . S
C1406 H1420 0.961 . S
C1407 C1404 1.539 . S
C1407 H1421 0.958 . S
C1407 H1422 0.961 . S
C1407 H1423 0.960 . S
H1408 C1392 0.931 . S
H1409 C1397 0.929 . S
H1410 C1398 0.960 . S
H1411 C1398 0.962 . S
H1412 C1398 0.960 . S
H1413 C1399 0.961 . S
H1414 C1399 0.961 . S
H1415 C1399 0.961 . S
H1416 C1400 0.931 . S
H1417 C1405 0.930 . S
H1418 C1406 0.956 . S
H1419 C1406 0.961 . S
H1420 C1406 0.961 . S
H1421 C1407 0.958 . S
H1422 C1407 0.961 . S
H1423 C1407 0.960 . S
C1424 C1425 1.391 . S
C1424 C1426 1.394 . S
C1424 H1440 0.931 . S
C1425 C1424 1.391 . S
C1425 C1429 1.376 . S
C1426 C1424 1.394 . S
C1426 C1427 1.369 . S
C1426 C1430 1.531 . S
C1427 C1426 1.369 . S
C1427 C1428 1.410 . S
C1427 C1435 1.503 . S
C1428 C1427 1.410 . S
C1428 C1429 1.392 . S
C1428 C1431 1.511 . S
C1429 C1425 1.376 . S
C1429 C1428 1.392 . S
C1429 H1441 0.929 . S
C1430 C1426 1.531 . S
C1430 H1442 0.960 . S
C1430 H1443 0.962 . S
C1430 H1444 0.960 . S
C1431 C1428 1.511 . S
C1431 H1445 0.961 . S
C1431 H1446 0.961 . S
C1431 H1447 0.961 . S
C1432 C1433 1.370 . S
C1432 C1434 1.363 . S
C1432 H1448 0.931 . S
C1433 C1432 1.370 . S
C1433 C1437 1.408 . S
C1434 C1432 1.363 . S
C1434 C1435 1.370 . S
C1434 C1438 1.524 . S
C1435 C1427 1.503 . S
C1435 C1434 1.370 . S
C1435 C1436 1.403 . S
C1436 C1435 1.403 . S
C1436 C1437 1.404 . S
C1436 C1439 1.539 . S
C1437 C1433 1.408 . S
C1437 C1436 1.404 . S
C1437 H1449 0.930 . S
C1438 C1434 1.524 . S
C1438 H1450 0.956 . S
C1438 H1451 0.961 . S
C1438 H1452 0.961 . S
C1439 C1436 1.539 . S
C1439 H1453 0.958 . S
C1439 H1454 0.961 . S
C1439 H1455 0.960 . S
H1440 C1424 0.931 . S
H1441 C1429 0.929 . S
H1442 C1430 0.960 . S
H1443 C1430 0.962 . S
H1444 C1430 0.960 . S
H1445 C1431 0.961 . S
H1446 C1431 0.961 . S
H1447 C1431 0.961 . S
H1448 C1432 0.931 . S
H1449 C1437 0.930 . S
H1450 C1438 0.956 . S
H1451 C1438 0.961 . S
H1452 C1438 0.961 . S
H1453 C1439 0.958 . S
H1454 C1439 0.961 . S
H1455 C1439 0.960 . S
C1456 C1457 1.391 . S
C1456 C1458 1.394 . S
C1456 H1472 0.931 . S
C1457 C1456 1.391 . S
C1457 C1461 1.376 . S
C1458 C1456 1.394 . S
C1458 C1459 1.369 . S
C1458 C1462 1.531 . S
C1459 C1458 1.369 . S
C1459 C1460 1.410 . S
C1459 C1467 1.503 . S
C1460 C1459 1.410 . S
C1460 C1461 1.392 . S
C1460 C1463 1.511 . S
C1461 C1457 1.376 . S
C1461 C1460 1.392 . S
C1461 H1473 0.929 . S
C1462 C1458 1.531 . S
C1462 H1474 0.960 . S
C1462 H1475 0.962 . S
C1462 H1476 0.960 . S
C1463 C1460 1.511 . S
C1463 H1477 0.961 . S
C1463 H1478 0.961 . S
C1463 H1479 0.961 . S
C1464 C1465 1.370 . S
C1464 C1466 1.363 . S
C1464 H1480 0.931 . S
C1465 C1464 1.370 . S
C1465 C1469 1.408 . S
C1466 C1464 1.363 . S
C1466 C1467 1.370 . S
C1466 C1470 1.524 . S
C1467 C1459 1.503 . S
C1467 C1466 1.370 . S
C1467 C1468 1.403 . S
C1468 C1467 1.403 . S
C1468 C1469 1.404 . S
C1468 C1471 1.539 . S
C1469 C1465 1.408 . S
C1469 C1468 1.404 . S
C1469 H1481 0.930 . S
C1470 C1466 1.524 . S
C1470 H1482 0.956 . S
C1470 H1483 0.961 . S
C1470 H1484 0.961 . S
C1471 C1468 1.539 . S
C1471 H1485 0.958 . S
C1471 H1486 0.961 . S
C1471 H1487 0.960 . S
H1472 C1456 0.931 . S
H1473 C1461 0.929 . S
H1474 C1462 0.960 . S
H1475 C1462 0.962 . S
H1476 C1462 0.960 . S
H1477 C1463 0.961 . S
H1478 C1463 0.961 . S
H1479 C1463 0.961 . S
H1480 C1464 0.931 . S
H1481 C1469 0.930 . S
H1482 C1470 0.956 . S
H1483 C1470 0.961 . S
H1484 C1470 0.961 . S
H1485 C1471 0.958 . S
H1486 C1471 0.961 . S
H1487 C1471 0.960 . S
C1488 C1489 1.391 . S
C1488 C1490 1.394 . S
C1488 H1504 0.931 . S
C1489 C1488 1.391 . S
C1489 C1493 1.376 . S
C1490 C1488 1.394 . S
C1490 C1491 1.369 . S
C1490 C1494 1.531 . S
C1491 C1490 1.369 . S
C1491 C1492 1.410 . S
C1491 C1499 1.503 . S
C1492 C1491 1.410 . S
C1492 C1493 1.392 . S
C1492 C1495 1.511 . S
C1493 C1489 1.376 . S
C1493 C1492 1.392 . S
C1493 H1505 0.929 . S
C1494 C1490 1.531 . S
C1494 H1506 0.960 . S
C1494 H1507 0.962 . S
C1494 H1508 0.960 . S
C1495 C1492 1.511 . S
C1495 H1509 0.961 . S
C1495 H1510 0.961 . S
C1495 H1511 0.961 . S
C1496 C1497 1.370 . S
C1496 C1498 1.363 . S
C1496 H1512 0.931 . S
C1497 C1496 1.370 . S
C1497 C1501 1.408 . S
C1498 C1496 1.363 . S
C1498 C1499 1.370 . S
C1498 C1502 1.524 . S
C1499 C1491 1.503 . S
C1499 C1498 1.370 . S
C1499 C1500 1.403 . S
C1500 C1499 1.403 . S
C1500 C1501 1.404 . S
C1500 C1503 1.539 . S
C1501 C1497 1.408 . S
C1501 C1500 1.404 . S
C1501 H1513 0.930 . S
C1502 C1498 1.524 . S
C1502 H1514 0.956 . S
C1502 H1515 0.961 . S
C1502 H1516 0.961 . S
C1503 C1500 1.539 . S
C1503 H1517 0.958 . S
C1503 H1518 0.961 . S
C1503 H1519 0.960 . S
H1504 C1488 0.931 . S
H1505 C1493 0.929 . S
H1506 C1494 0.960 . S
H1507 C1494 0.962 . S
H1508 C1494 0.960 . S
H1509 C1495 0.961 . S
H1510 C1495 0.961 . S
H1511 C1495 0.961 . S
H1512 C1496 0.931 . S
H1513 C1501 0.930 . S
H1514 C1502 0.956 . S
H1515 C1502 0.961 . S
H1516 C1502 0.961 . S
H1517 C1503 0.958 . S
H1518 C1503 0.961 . S
H1519 C1503 0.960 . S
C1520 C1521 1.391 . S
C1520 C1522 1.394 . S
C1520 H1536 0.931 . S
C1521 C1520 1.391 . S
C1521 C1525 1.376 . S
C1522 C1520 1.394 . S
C1522 C1523 1.369 . S
C1522 C1526 1.531 . S
C1523 C1522 1.369 . S
C1523 C1524 1.410 . S
C1523 C1531 1.503 . S
C1524 C1523 1.410 . S
C1524 C1525 1.392 . S
C1524 C1527 1.511 . S
C1525 C1521 1.376 . S
C1525 C1524 1.392 . S
C1525 H1537 0.929 . S
C1526 C1522 1.531 . S
C1526 H1538 0.960 . S
C1526 H1539 0.962 . S
C1526 H1540 0.960 . S
C1527 C1524 1.511 . S
C1527 H1541 0.961 . S
C1527 H1542 0.961 . S
C1527 H1543 0.961 . S
C1528 C1529 1.370 . S
C1528 C1530 1.363 . S
C1528 H1544 0.931 . S
C1529 C1528 1.370 . S
C1529 C1533 1.408 . S
C1530 C1528 1.363 . S
C1530 C1531 1.370 . S
C1530 C1534 1.524 . S
C1531 C1523 1.503 . S
C1531 C1530 1.370 . S
C1531 C1532 1.403 . S
C1532 C1531 1.403 . S
C1532 C1533 1.404 . S
C1532 C1535 1.539 . S
C1533 C1529 1.408 . S
C1533 C1532 1.404 . S
C1533 H1545 0.930 . S
C1534 C1530 1.524 . S
C1534 H1546 0.956 . S
C1534 H1547 0.961 . S
C1534 H1548 0.961 . S
C1535 C1532 1.539 . S
C1535 H1549 0.958 . S
C1535 H1550 0.961 . S
C1535 H1551 0.960 . S
H1536 C1520 0.931 . S
H1537 C1525 0.929 . S
H1538 C1526 0.960 . S
H1539 C1526 0.962 . S
H1540 C1526 0.960 . S
H1541 C1527 0.961 . S
H1542 C1527 0.961 . S
H1543 C1527 0.961 . S
H1544 C1528 0.931 . S
H1545 C1533 0.930 . S
H1546 C1534 0.956 . S
H1547 C1534 0.961 . S
H1548 C1534 0.961 . S
H1549 C1535 0.958 . S
H1550 C1535 0.961 . S
H1551 C1535 0.960 . S
C1552 C1553 1.391 . S
C1552 C1554 1.394 . S
C1552 H1568 0.931 . S
C1553 C1552 1.391 . S
C1553 C1557 1.376 . S
C1554 C1552 1.394 . S
C1554 C1555 1.369 . S
C1554 C1558 1.531 . S
C1555 C1554 1.369 . S
C1555 C1556 1.410 . S
C1555 C1563 1.503 . S
C1556 C1555 1.410 . S
C1556 C1557 1.392 . S
C1556 C1559 1.511 . S
C1557 C1553 1.376 . S
C1557 C1556 1.392 . S
C1557 H1569 0.929 . S
C1558 C1554 1.531 . S
C1558 H1570 0.960 . S
C1558 H1571 0.962 . S
C1558 H1572 0.960 . S
C1559 C1556 1.511 . S
C1559 H1573 0.961 . S
C1559 H1574 0.961 . S
C1559 H1575 0.961 . S
C1560 C1561 1.370 . S
C1560 C1562 1.363 . S
C1560 H1576 0.931 . S
C1561 C1560 1.370 . S
C1561 C1565 1.408 . S
C1562 C1560 1.363 . S
C1562 C1563 1.370 . S
C1562 C1566 1.524 . S
C1563 C1555 1.503 . S
C1563 C1562 1.370 . S
C1563 C1564 1.403 . S
C1564 C1563 1.403 . S
C1564 C1565 1.404 . S
C1564 C1567 1.539 . S
C1565 C1561 1.408 . S
C1565 C1564 1.404 . S
C1565 H1577 0.930 . S
C1566 C1562 1.524 . S
C1566 H1578 0.956 . S
C1566 H1579 0.961 . S
C1566 H1580 0.961 . S
C1567 C1564 1.539 . S
C1567 H1581 0.958 . S
C1567 H1582 0.961 . S
C1567 H1583 0.960 . S
H1568 C1552 0.931 . S
H1569 C1557 0.929 . S
H1570 C1558 0.960 . S
H1571 C1558 0.962 . S
H1572 C1558 0.960 . S
H1573 C1559 0.961 . S
H1574 C1559 0.961 . S
H1575 C1559 0.961 . S
H1576 C1560 0.931 . S
H1577 C1565 0.930 . S
H1578 C1566 0.956 . S
H1579 C1566 0.961 . S
H1580 C1566 0.961 . S
H1581 C1567 0.958 . S
H1582 C1567 0.961 . S
H1583 C1567 0.960 . S
C1584 C1585 1.391 . S
C1584 C1586 1.394 . S
C1584 H1600 0.931 . S
C1585 C1584 1.391 . S
C1585 C1589 1.376 . S
C1586 C1584 1.394 . S
C1586 C1587 1.369 . S
C1586 C1590 1.531 . S
C1587 C1586 1.369 . S
C1587 C1588 1.410 . S
C1587 C1595 1.503 . S
C1588 C1587 1.410 . S
C1588 C1589 1.392 . S
C1588 C1591 1.511 . S
C1589 C1585 1.376 . S
C1589 C1588 1.392 . S
C1589 H1601 0.929 . S
C1590 C1586 1.531 . S
C1590 H1602 0.960 . S
C1590 H1603 0.962 . S
C1590 H1604 0.960 . S
C1591 C1588 1.511 . S
C1591 H1605 0.961 . S
C1591 H1606 0.961 . S
C1591 H1607 0.961 . S
C1592 C1593 1.370 . S
C1592 C1594 1.363 . S
C1592 H1608 0.931 . S
C1593 C1592 1.370 . S
C1593 C1597 1.408 . S
C1594 C1592 1.363 . S
C1594 C1595 1.370 . S
C1594 C1598 1.524 . S
C1595 C1587 1.503 . S
C1595 C1594 1.370 . S
C1595 C1596 1.403 . S
C1596 C1595 1.403 . S
C1596 C1597 1.404 . S
C1596 C1599 1.539 . S
C1597 C1593 1.408 . S
C1597 C1596 1.404 . S
C1597 H1609 0.930 . S
C1598 C1594 1.524 . S
C1598 H1610 0.956 . S
C1598 H1611 0.961 . S
C1598 H1612 0.961 . S
C1599 C1596 1.539 . S
C1599 H1613 0.958 . S
C1599 H1614 0.961 . S
C1599 H1615 0.960 . S
H1600 C1584 0.931 . S
H1601 C1589 0.929 . S
H1602 C1590 0.960 . S
H1603 C1590 0.962 . S
H1604 C1590 0.960 . S
H1605 C1591 0.961 . S
H1606 C1591 0.961 . S
H1607 C1591 0.961 . S
H1608 C1592 0.931 . S
H1609 C1597 0.930 . S
H1610 C1598 0.956 . S
H1611 C1598 0.961 . S
H1612 C1598 0.961 . S
H1613 C1599 0.958 . S
H1614 C1599 0.961 . S
H1615 C1599 0.960 . S
C1616 C1617 1.391 . S
C1616 C1618 1.394 . S
C1616 H1632 0.931 . S
C1617 C1616 1.391 . S
C1617 C1621 1.376 . S
C1618 C1616 1.394 . S
C1618 C1619 1.369 . S
C1618 C1622 1.531 . S
C1619 C1618 1.369 . S
C1619 C1620 1.410 . S
C1619 C1627 1.503 . S
C1620 C1619 1.410 . S
C1620 C1621 1.392 . S
C1620 C1623 1.511 . S
C1621 C1617 1.376 . S
C1621 C1620 1.392 . S
C1621 H1633 0.929 . S
C1622 C1618 1.531 . S
C1622 H1634 0.960 . S
C1622 H1635 0.962 . S
C1622 H1636 0.960 . S
C1623 C1620 1.511 . S
C1623 H1637 0.961 . S
C1623 H1638 0.961 . S
C1623 H1639 0.961 . S
C1624 C1625 1.370 . S
C1624 C1626 1.363 . S
C1624 H1640 0.931 . S
C1625 C1624 1.370 . S
C1625 C1629 1.408 . S
C1626 C1624 1.363 . S
C1626 C1627 1.370 . S
C1626 C1630 1.524 . S
C1627 C1619 1.503 . S
C1627 C1626 1.370 . S
C1627 C1628 1.403 . S
C1628 C1627 1.403 . S
C1628 C1629 1.404 . S
C1628 C1631 1.539 . S
C1629 C1625 1.408 . S
C1629 C1628 1.404 . S
C1629 H1641 0.930 . S
C1630 C1626 1.524 . S
C1630 H1642 0.956 . S
C1630 H1643 0.961 . S
C1630 H1644 0.961 . S
C1631 C1628 1.539 . S
C1631 H1645 0.958 . S
C1631 H1646 0.961 . S
C1631 H1647 0.960 . S
H1632 C1616 0.931 . S
H1633 C1621 0.929 . S
H1634 C1622 0.960 . S
H1635 C1622 0.962 . S
H1636 C1622 0.960 . S
H1637 C1623 0.961 . S
H1638 C1623 0.961 . S
H1639 C1623 0.961 . S
H1640 C1624 0.931 . S
H1641 C1629 0.930 . S
H1642 C1630 0.956 . S
H1643 C1630 0.961 . S
H1644 C1630 0.961 . S
H1645 C1631 0.958 . S
H1646 C1631 0.961 . S
H1647 C1631 0.960 . S
C1648 C1649 1.391 . S
C1648 C1650 1.394 . S
C1648 H1664 0.931 . S
C1649 C1648 1.391 . S
C1649 C1653 1.376 . S
C1650 C1648 1.394 . S
C1650 C1651 1.369 . S
C1650 C1654 1.531 . S
C1651 C1650 1.369 . S
C1651 C1652 1.410 . S
C1651 C1659 1.503 . S
C1652 C1651 1.410 . S
C1652 C1653 1.392 . S
C1652 C1655 1.511 . S
C1653 C1649 1.376 . S
C1653 C1652 1.392 . S
C1653 H1665 0.929 . S
C1654 C1650 1.531 . S
C1654 H1666 0.960 . S
C1654 H1667 0.962 . S
C1654 H1668 0.960 . S
C1655 C1652 1.511 . S
C1655 H1669 0.961 . S
C1655 H1670 0.961 . S
C1655 H1671 0.961 . S
C1656 C1657 1.370 . S
C1656 C1658 1.363 . S
C1656 H1672 0.931 . S
C1657 C1656 1.370 . S
C1657 C1661 1.408 . S
C1658 C1656 1.363 . S
C1658 C1659 1.370 . S
C1658 C1662 1.524 . S
C1659 C1651 1.503 . S
C1659 C1658 1.370 . S
C1659 C1660 1.403 . S
C1660 C1659 1.403 . S
C1660 C1661 1.404 . S
C1660 C1663 1.539 . S
C1661 C1657 1.408 . S
C1661 C1660 1.404 . S
C1661 H1673 0.930 . S
C1662 C1658 1.524 . S
C1662 H1674 0.956 . S
C1662 H1675 0.961 . S
C1662 H1676 0.961 . S
C1663 C1660 1.539 . S
C1663 H1677 0.958 . S
C1663 H1678 0.961 . S
C1663 H1679 0.960 . S
H1664 C1648 0.931 . S
H1665 C1653 0.929 . S
H1666 C1654 0.960 . S
H1667 C1654 0.962 . S
H1668 C1654 0.960 . S
H1669 C1655 0.961 . S
H1670 C1655 0.961 . S
H1671 C1655 0.961 . S
H1672 C1656 0.931 . S
H1673 C1661 0.930 . S
H1674 C1662 0.956 . S
H1675 C1662 0.961 . S
H1676 C1662 0.961 . S
H1677 C1663 0.958 . S
H1678 C1663 0.961 . S
H1679 C1663 0.960 . S
C1680 C1681 1.391 . S
C1680 C1682 1.394 . S
C1680 H1696 0.931 . S
C1681 C1680 1.391 . S
C1681 C1685 1.376 . S
C1682 C1680 1.394 . S
C1682 C1683 1.369 . S
C1682 C1686 1.531 . S
C1683 C1682 1.369 . S
C1683 C1684 1.410 . S
C1683 C1691 1.503 . S
C1684 C1683 1.410 . S
C1684 C1685 1.392 . S
C1684 C1687 1.511 . S
C1685 C1681 1.376 . S
C1685 C1684 1.392 . S
C1685 H1697 0.929 . S
C1686 C1682 1.531 . S
C1686 H1698 0.960 . S
C1686 H1699 0.962 . S
C1686 H1700 0.960 . S
C1687 C1684 1.511 . S
C1687 H1701 0.961 . S
C1687 H1702 0.961 . S
C1687 H1703 0.961 . S
C1688 C1689 1.370 . S
C1688 C1690 1.363 . S
C1688 H1704 0.931 . S
C1689 C1688 1.370 . S
C1689 C1693 1.408 . S
C1690 C1688 1.363 . S
C1690 C1691 1.370 . S
C1690 C1694 1.524 . S
C1691 C1683 1.503 . S
C1691 C1690 1.370 . S
C1691 C1692 1.403 . S
C1692 C1691 1.403 . S
C1692 C1693 1.404 . S
C1692 C1695 1.539 . S
C1693 C1689 1.408 . S
C1693 C1692 1.404 . S
C1693 H1705 0.930 . S
C1694 C1690 1.524 . S
C1694 H1706 0.956 . S
C1694 H1707 0.961 . S
C1694 H1708 0.961 . S
C1695 C1692 1.539 . S
C1695 H1709 0.958 . S
C1695 H1710 0.961 . S
C1695 H1711 0.960 . S
H1696 C1680 0.931 . S
H1697 C1685 0.929 . S
H1698 C1686 0.960 . S
H1699 C1686 0.962 . S
H1700 C1686 0.960 . S
H1701 C1687 0.961 . S
H1702 C1687 0.961 . S
H1703 C1687 0.961 . S
H1704 C1688 0.931 . S
H1705 C1693 0.930 . S
H1706 C1694 0.956 . S
H1707 C1694 0.961 . S
H1708 C1694 0.961 . S
H1709 C1695 0.958 . S
H1710 C1695 0.961 . S
H1711 C1695 0.960 . S
C1712 C1713 1.391 . S
C1712 C1714 1.394 . S
C1712 H1728 0.931 . S
C1713 C1712 1.391 . S
C1713 C1717 1.376 . S
C1714 C1712 1.394 . S
C1714 C1715 1.369 . S
C1714 C1718 1.531 . S
C1715 C1714 1.369 . S
C1715 C1716 1.410 . S
C1715 C1723 1.503 . S
C1716 C1715 1.410 . S
C1716 C1717 1.392 . S
C1716 C1719 1.511 . S
C1717 C1713 1.376 . S
C1717 C1716 1.392 . S
C1717 H1729 0.929 . S
C1718 C1714 1.531 . S
C1718 H1730 0.960 . S
C1718 H1731 0.962 . S
C1718 H1732 0.960 . S
C1719 C1716 1.511 . S
C1719 H1733 0.961 . S
C1719 H1734 0.961 . S
C1719 H1735 0.961 . S
C1720 C1721 1.370 . S
C1720 C1722 1.363 . S
C1720 H1736 0.931 . S
C1721 C1720 1.370 . S
C1721 C1725 1.408 . S
C1722 C1720 1.363 . S
C1722 C1723 1.370 . S
C1722 C1726 1.524 . S
C1723 C1715 1.503 . S
C1723 C1722 1.370 . S
C1723 C1724 1.403 . S
C1724 C1723 1.403 . S
C1724 C1725 1.404 . S
C1724 C1727 1.539 . S
C1725 C1721 1.408 . S
C1725 C1724 1.404 . S
C1725 H1737 0.930 . S
C1726 C1722 1.524 . S
C1726 H1738 0.956 . S
C1726 H1739 0.961 . S
C1726 H1740 0.961 . S
C1727 C1724 1.539 . S
C1727 H1741 0.958 . S
C1727 H1742 0.961 . S
C1727 H1743 0.960 . S
H1728 C1712 0.931 . S
H1729 C1717 0.929 . S
H1730 C1718 0.960 . S
H1731 C1718 0.962 . S
H1732 C1718 0.960 . S
H1733 C1719 0.961 . S
H1734 C1719 0.961 . S
H1735 C1719 0.961 . S
H1736 C1720 0.931 . S
H1737 C1725 0.930 . S
H1738 C1726 0.956 . S
H1739 C1726 0.961 . S
H1740 C1726 0.961 . S
H1741 C1727 0.958 . S
H1742 C1727 0.961 . S
H1743 C1727 0.960 . S
C1744 C1745 1.391 . S
C1744 C1746 1.394 . S
C1744 H1760 0.931 . S
C1745 C1744 1.391 . S
C1745 C1749 1.376 . S
C1746 C1744 1.394 . S
C1746 C1747 1.369 . S
C1746 C1750 1.531 . S
C1747 C1746 1.369 . S
C1747 C1748 1.410 . S
C1747 C1755 1.503 . S
C1748 C1747 1.410 . S
C1748 C1749 1.392 . S
C1748 C1751 1.511 . S
C1749 C1745 1.376 . S
C1749 C1748 1.392 . S
C1749 H1761 0.929 . S
C1750 C1746 1.531 . S
C1750 H1762 0.960 . S
C1750 H1763 0.962 . S
C1750 H1764 0.960 . S
C1751 C1748 1.511 . S
C1751 H1765 0.961 . S
C1751 H1766 0.961 . S
C1751 H1767 0.961 . S
C1752 C1753 1.370 . S
C1752 C1754 1.363 . S
C1752 H1768 0.931 . S
C1753 C1752 1.370 . S
C1753 C1757 1.408 . S
C1754 C1752 1.363 . S
C1754 C1755 1.370 . S
C1754 C1758 1.524 . S
C1755 C1747 1.503 . S
C1755 C1754 1.370 . S
C1755 C1756 1.403 . S
C1756 C1755 1.403 . S
C1756 C1757 1.404 . S
C1756 C1759 1.539 . S
C1757 C1753 1.408 . S
C1757 C1756 1.404 . S
C1757 H1769 0.930 . S
C1758 C1754 1.524 . S
C1758 H1770 0.956 . S
C1758 H1771 0.961 . S
C1758 H1772 0.961 . S
C1759 C1756 1.539 . S
C1759 H1773 0.958 . S
C1759 H1774 0.961 . S
C1759 H1775 0.960 . S
H1760 C1744 0.931 . S
H1761 C1749 0.929 . S
H1762 C1750 0.960 . S
H1763 C1750 0.962 . S
H1764 C1750 0.960 . S
H1765 C1751 0.961 . S
H1766 C1751 0.961 . S
H1767 C1751 0.961 . S
H1768 C1752 0.931 . S
H1769 C1757 0.930 . S
H1770 C1758 0.956 . S
H1771 C1758 0.961 . S
H1772 C1758 0.961 . S
H1773 C1759 0.958 . S
H1774 C1759 0.961 . S
H1775 C1759 0.960 . S
C1776 C1777 1.391 . S
C1776 C1778 1.394 . S
C1776 H1792 0.931 . S
C1777 C1776 1.391 . S
C1777 C1781 1.376 . S
C1778 C1776 1.394 . S
C1778 C1779 1.369 . S
C1778 C1782 1.531 . S
C1779 C1778 1.369 . S
C1779 C1780 1.410 . S
C1779 C1787 1.503 . S
C1780 C1779 1.410 . S
C1780 C1781 1.392 . S
C1780 C1783 1.511 . S
C1781 C1777 1.376 . S
C1781 C1780 1.392 . S
C1781 H1793 0.929 . S
C1782 C1778 1.531 . S
C1782 H1794 0.960 . S
C1782 H1795 0.962 . S
C1782 H1796 0.960 . S
C1783 C1780 1.511 . S
C1783 H1797 0.961 . S
C1783 H1798 0.961 . S
C1783 H1799 0.961 . S
C1784 C1785 1.370 . S
C1784 C1786 1.363 . S
C1784 H1800 0.931 . S
C1785 C1784 1.370 . S
C1785 C1789 1.408 . S
C1786 C1784 1.363 . S
C1786 C1787 1.370 . S
C1786 C1790 1.524 . S
C1787 C1779 1.503 . S
C1787 C1786 1.370 . S
C1787 C1788 1.403 . S
C1788 C1787 1.403 . S
C1788 C1789 1.404 . S
C1788 C1791 1.539 . S
C1789 C1785 1.408 . S
C1789 C1788 1.404 . S
C1789 H1801 0.930 . S
C1790 C1786 1.524 . S
C1790 H1802 0.956 . S
C1790 H1803 0.961 . S
C1790 H1804 0.961 . S
C1791 C1788 1.539 . S
C1791 H1805 0.958 . S
C1791 H1806 0.961 . S
C1791 H1807 0.960 . S
H1792 C1776 0.931 . S
H1793 C1781 0.929 . S
H1794 C1782 0.960 . S
H1795 C1782 0.962 . S
H1796 C1782 0.960 . S
H1797 C1783 0.961 . S
H1798 C1783 0.961 . S
H1799 C1783 0.961 . S
H1800 C1784 0.931 . S
H1801 C1789 0.930 . S
H1802 C1790 0.956 . S
H1803 C1790 0.961 . S
H1804 C1790 0.961 . S
H1805 C1791 0.958 . S
H1806 C1791 0.961 . S
H1807 C1791 0.960 . S
C1808 C1809 1.391 . S
C1808 C1810 1.394 . S
C1808 H1824 0.931 . S
C1809 C1808 1.391 . S
C1809 C1813 1.376 . S
C1810 C1808 1.394 . S
C1810 C1811 1.369 . S
C1810 C1814 1.531 . S
C1811 C1810 1.369 . S
C1811 C1812 1.410 . S
C1811 C1819 1.503 . S
C1812 C1811 1.410 . S
C1812 C1813 1.392 . S
C1812 C1815 1.511 . S
C1813 C1809 1.376 . S
C1813 C1812 1.392 . S
C1813 H1825 0.929 . S
C1814 C1810 1.531 . S
C1814 H1826 0.960 . S
C1814 H1827 0.962 . S
C1814 H1828 0.960 . S
C1815 C1812 1.511 . S
C1815 H1829 0.961 . S
C1815 H1830 0.961 . S
C1815 H1831 0.961 . S
C1816 C1817 1.370 . S
C1816 C1818 1.363 . S
C1816 H1832 0.931 . S
C1817 C1816 1.370 . S
C1817 C1821 1.408 . S
C1818 C1816 1.363 . S
C1818 C1819 1.370 . S
C1818 C1822 1.524 . S
C1819 C1811 1.503 . S
C1819 C1818 1.370 . S
C1819 C1820 1.403 . S
C1820 C1819 1.403 . S
C1820 C1821 1.404 . S
C1820 C1823 1.539 . S
C1821 C1817 1.408 . S
C1821 C1820 1.404 . S
C1821 H1833 0.930 . S
C1822 C1818 1.524 . S
C1822 H1834 0.956 . S
C1822 H1835 0.961 . S
C1822 H1836 0.961 . S
C1823 C1820 1.539 . S
C1823 H1837 0.958 . S
C1823 H1838 0.961 . S
C1823 H1839 0.960 . S
H1824 C1808 0.931 . S
H1825 C1813 0.929 . S
H1826 C1814 0.960 . S
H1827 C1814 0.962 . S
H1828 C1814 0.960 . S
H1829 C1815 0.961 . S
H1830 C1815 0.961 . S
H1831 C1815 0.961 . S
H1832 C1816 0.931 . S
H1833 C1821 0.930 . S
H1834 C1822 0.956 . S
H1835 C1822 0.961 . S
H1836 C1822 0.961 . S
H1837 C1823 0.958 . S
H1838 C1823 0.961 . S
H1839 C1823 0.960 . S
C1840 C1841 1.391 . S
C1840 C1842 1.394 . S
C1840 H1856 0.931 . S
C1841 C1840 1.391 . S
C1841 C1845 1.376 . S
C1842 C1840 1.394 . S
C1842 C1843 1.369 . S
C1842 C1846 1.531 . S
C1843 C1842 1.369 . S
C1843 C1844 1.410 . S
C1843 C1851 1.503 . S
C1844 C1843 1.410 . S
C1844 C1845 1.392 . S
C1844 C1847 1.511 . S
C1845 C1841 1.376 . S
C1845 C1844 1.392 . S
C1845 H1857 0.929 . S
C1846 C1842 1.531 . S
C1846 H1858 0.960 . S
C1846 H1859 0.962 . S
C1846 H1860 0.960 . S
C1847 C1844 1.511 . S
C1847 H1861 0.961 . S
C1847 H1862 0.961 . S
C1847 H1863 0.961 . S
C1848 C1849 1.370 . S
C1848 C1850 1.363 . S
C1848 H1864 0.931 . S
C1849 C1848 1.370 . S
C1849 C1853 1.408 . S
C1850 C1848 1.363 . S
C1850 C1851 1.370 . S
C1850 C1854 1.524 . S
C1851 C1843 1.503 . S
C1851 C1850 1.370 . S
C1851 C1852 1.403 . S
C1852 C1851 1.403 . S
C1852 C1853 1.404 . S
C1852 C1855 1.539 . S
C1853 C1849 1.408 . S
C1853 C1852 1.404 . S
C1853 H1865 0.930 . S
C1854 C1850 1.524 . S
C1854 H1866 0.956 . S
C1854 H1867 0.961 . S
C1854 H1868 0.961 . S
C1855 C1852 1.539 . S
C1855 H1869 0.958 . S
C1855 H1870 0.961 . S
C1855 H1871 0.960 . S
H1856 C1840 0.931 . S
H1857 C1845 0.929 . S
H1858 C1846 0.960 . S
H1859 C1846 0.962 . S
H1860 C1846 0.960 . S
H1861 C1847 0.961 . S
H1862 C1847 0.961 . S
H1863 C1847 0.961 . S
H1864 C1848 0.931 . S
H1865 C1853 0.930 . S
H1866 C1854 0.956 . S
H1867 C1854 0.961 . S
H1868 C1854 0.961 . S
H1869 C1855 0.958 . S
H1870 C1855 0.961 . S
H1871 C1855 0.960 . S
C1872 C1873 1.391 . S
C1872 C1874 1.394 . S
C1872 H1888 0.931 . S
C1873 C1872 1.391 . S
C1873 C1877 1.376 . S
C1874 C1872 1.394 . S
C1874 C1875 1.369 . S
C1874 C1878 1.531 . S
C1875 C1874 1.369 . S
C1875 C1876 1.410 . S
C1875 C1883 1.503 . S
C1876 C1875 1.410 . S
C1876 C1877 1.392 . S
C1876 C1879 1.511 . S
C1877 C1873 1.376 . S
C1877 C1876 1.392 . S
C1877 H1889 0.929 . S
C1878 C1874 1.531 . S
C1878 H1890 0.960 . S
C1878 H1891 0.962 . S
C1878 H1892 0.960 . S
C1879 C1876 1.511 . S
C1879 H1893 0.961 . S
C1879 H1894 0.961 . S
C1879 H1895 0.961 . S
C1880 C1881 1.370 . S
C1880 C1882 1.363 . S
C1880 H1896 0.931 . S
C1881 C1880 1.370 . S
C1881 C1885 1.408 . S
C1882 C1880 1.363 . S
C1882 C1883 1.370 . S
C1882 C1886 1.524 . S
C1883 C1875 1.503 . S
C1883 C1882 1.370 . S
C1883 C1884 1.403 . S
C1884 C1883 1.403 . S
C1884 C1885 1.404 . S
C1884 C1887 1.539 . S
C1885 C1881 1.408 . S
C1885 C1884 1.404 . S
C1885 H1897 0.930 . S
C1886 C1882 1.524 . S
C1886 H1898 0.956 . S
C1886 H1899 0.961 . S
C1886 H1900 0.961 . S
C1887 C1884 1.539 . S
C1887 H1901 0.958 . S
C1887 H1902 0.961 . S
C1887 H1903 0.960 . S
H1888 C1872 0.931 . S
H1889 C1877 0.929 . S
H1890 C1878 0.960 . S
H1891 C1878 0.962 . S
H1892 C1878 0.960 . S
H1893 C1879 0.961 . S
H1894 C1879 0.961 . S
H1895 C1879 0.961 . S
H1896 C1880 0.931 . S
H1897 C1885 0.930 . S
H1898 C1886 0.956 . S
H1899 C1886 0.961 . S
H1900 C1886 0.961 . S
H1901 C1887 0.958 . S
H1902 C1887 0.961 . S
H1903 C1887 0.960 . S
C1904 C1905 1.391 . S
C1904 C1906 1.394 . S
C1904 H1920 0.931 . S
C1905 C1904 1.391 . S
C1905 C1909 1.376 . S
C1906 C1904 1.394 . S
C1906 C1907 1.369 . S
C1906 C1910 1.531 . S
C1907 C1906 1.369 . S
C1907 C1908 1.410 . S
C1907 C1915 1.503 . S
C1908 C1907 1.410 . S
C1908 C1909 1.392 . S
C1908 C1911 1.511 . S
C1909 C1905 1.376 . S
C1909 C1908 1.392 . S
C1909 H1921 0.929 . S
C1910 C1906 1.531 . S
C1910 H1922 0.960 . S
C1910 H1923 0.962 . S
C1910 H1924 0.960 . S
C1911 C1908 1.511 . S
C1911 H1925 0.961 . S
C1911 H1926 0.961 . S
C1911 H1927 0.961 . S
C1912 C1913 1.370 . S
C1912 C1914 1.363 . S
C1912 H1928 0.931 . S
C1913 C1912 1.370 . S
C1913 C1917 1.408 . S
C1914 C1912 1.363 . S
C1914 C1915 1.370 . S
C1914 C1918 1.524 . S
C1915 C1907 1.503 . S
C1915 C1914 1.370 . S
C1915 C1916 1.403 . S
C1916 C1915 1.403 . S
C1916 C1917 1.404 . S
C1916 C1919 1.539 . S
C1917 C1913 1.408 . S
C1917 C1916 1.404 . S
C1917 H1929 0.930 . S
C1918 C1914 1.524 . S
C1918 H1930 0.956 . S
C1918 H1931 0.961 . S
C1918 H1932 0.961 . S
C1919 C1916 1.539 . S
C1919 H1933 0.958 . S
C1919 H1934 0.961 . S
C1919 H1935 0.960 . S
H1920 C1904 0.931 . S
H1921 C1909 0.929 . S
H1922 C1910 0.960 . S
H1923 C1910 0.962 . S
H1924 C1910 0.960 . S
H1925 C1911 0.961 . S
H1926 C1911 0.961 . S
H1927 C1911 0.961 . S
H1928 C1912 0.931 . S
H1929 C1917 0.930 . S
H1930 C1918 0.956 . S
H1931 C1918 0.961 . S
H1932 C1918 0.961 . S
H1933 C1919 0.958 . S
H1934 C1919 0.961 . S
H1935 C1919 0.960 . S
C1936 C1937 1.391 . S
C1936 C1938 1.394 . S
C1936 H1952 0.931 . S
C1937 C1936 1.391 . S
C1937 C1941 1.376 . S
C1938 C1936 1.394 . S
C1938 C1939 1.369 . S
C1938 C1942 1.531 . S
C1939 C1938 1.369 . S
C1939 C1940 1.410 . S
C1939 C1947 1.503 . S
C1940 C1939 1.410 . S
C1940 C1941 1.392 . S
C1940 C1943 1.511 . S
C1941 C1937 1.376 . S
C1941 C1940 1.392 . S
C1941 H1953 0.929 . S
C1942 C1938 1.531 . S
C1942 H1954 0.960 . S
C1942 H1955 0.962 . S
C1942 H1956 0.960 . S
C1943 C1940 1.511 . S
C1943 H1957 0.961 . S
C1943 H1958 0.961 . S
C1943 H1959 0.961 . S
C1944 C1945 1.370 . S
C1944 C1946 1.363 . S
C1944 H1960 0.931 . S
C1945 C1944 1.370 . S
C1945 C1949 1.408 . S
C1946 C1944 1.363 . S
C1946 C1947 1.370 . S
C1946 C1950 1.524 . S
C1947 C1939 1.503 . S
C1947 C1946 1.370 . S
C1947 C1948 1.403 . S
C1948 C1947 1.403 . S
C1948 C1949 1.404 . S
C1948 C1951 1.539 . S
C1949 C1945 1.408 . S
C1949 C1948 1.404 . S
C1949 H1961 0.930 . S
C1950 C1946 1.524 . S
C1950 H1962 0.956 . S
C1950 H1963 0.961 . S
C1950 H1964 0.961 . S
C1951 C1948 1.539 . S
C1951 H1965 0.958 . S
C1951 H1966 0.961 . S
C1951 H1967 0.960 . S
H1952 C1936 0.931 . S
H1953 C1941 0.929 . S
H1954 C1942 0.960 . S
H1955 C1942 0.962 . S
H1956 C1942 0.960 . S
H1957 C1943 0.961 . S
H1958 C1943 0.961 . S
H1959 C1943 0.961 . S
H1960 C1944 0.931 . S
H1961 C1949 0.930 . S
H1962 C1950 0.956 . S
H1963 C1950 0.961 . S
H1964 C1950 0.961 . S
H1965 C1951 0.958 . S
H1966 C1951 0.961 . S
H1967 C1951 0.960 . S
C1968 C1969 1.391 . S
C1968 C1970 1.394 . S
C1968 H1984 0.931 . S
C1969 C1968 1.391 . S
C1969 C1973 1.376 . S
C1970 C1968 1.394 . S
C1970 C1971 1.369 . S
C1970 C1974 1.531 1_556 S
C1971 C1970 1.369 . S
C1971 C1972 1.410 . S
C1971 C1979 1.503 1_556 S
C1972 C1971 1.410 . S
C1972 C1973 1.392 . S
C1972 C1975 1.511 . S
C1973 C1969 1.376 . S
C1973 C1972 1.392 . S
C1973 H1985 0.929 . S
C1974 C1970 1.531 1_554 S
C1974 H1986 0.960 . S
C1974 H1987 0.962 . S
C1974 H1988 0.960 . S
C1975 C1972 1.511 . S
C1975 H1989 0.961 . S
C1975 H1990 0.961 . S
C1975 H1991 0.961 . S
C1976 C1977 1.370 . S
C1976 C1978 1.363 . S
C1976 H1992 0.931 . S
C1977 C1976 1.370 . S
C1977 C1981 1.408 . S
C1978 C1976 1.363 . S
C1978 C1979 1.370 . S
C1978 C1982 1.524 . S
C1979 C1971 1.503 1_554 S
C1979 C1978 1.370 . S
C1979 C1980 1.406 . S
C1980 C1979 1.406 . S
C1980 C1981 1.415 . S
C1980 C1983 1.524 1_554 S
C1981 C1977 1.408 . S
C1981 C1980 1.415 . S
C1981 H1993 0.930 . S
C1982 C1978 1.524 . S
C1982 H1994 0.956 . S
C1982 H1995 0.961 . S
C1982 H1996 0.961 . S
C1983 C1980 1.524 1_556 S
C1983 H1997 0.958 . S
C1983 H1998 0.961 . S
C1983 H1999 0.960 . S
H1984 C1968 0.931 . S
H1985 C1973 0.929 . S
H1986 C1974 0.960 . S
H1987 C1974 0.962 . S
H1988 C1974 0.960 . S
H1989 C1975 0.961 . S
H1990 C1975 0.961 . S
H1991 C1975 0.961 . S
H1992 C1976 0.931 . S
H1993 C1981 0.930 . S
H1994 C1982 0.956 . S
H1995 C1982 0.961 . S
H1996 C1982 0.961 . S
H1997 C1983 0.958 . S
H1998 C1983 0.961 . S
H1999 C1983 0.960 . S
C2000 C2001 1.391 . S
C2000 C2002 1.394 . S
C2000 H2016 0.931 . S
C2001 C2000 1.391 . S
C2001 C2005 1.376 . S
C2002 C2000 1.394 . S
C2002 C2003 1.369 . S
C2002 C2006 1.531 1_455 S
C2003 C2002 1.369 . S
C2003 C2004 1.410 . S
C2003 C2011 1.503 1_455 S
C2004 C2003 1.410 . S
C2004 C2005 1.392 . S
C2004 C2007 1.511 . S
C2005 C2001 1.376 . S
C2005 C2004 1.392 . S
C2005 H2017 0.929 . S
C2006 C2002 1.531 1_655 S
C2006 H2018 0.960 . S
C2006 H2019 0.962 . S
C2006 H2020 0.960 . S
C2007 C2004 1.511 . S
C2007 H2021 0.961 . S
C2007 H2022 0.961 . S
C2007 H2023 0.961 . S
C2008 C2009 1.370 . S
C2008 C2010 1.363 . S
C2008 H2024 0.931 . S
C2009 C2008 1.370 . S
C2009 C2013 1.408 . S
C2010 C2008 1.363 . S
C2010 C2011 1.370 . S
C2010 C2014 1.524 . S
C2011 C2003 1.503 1_655 S
C2011 C2010 1.370 . S
C2011 C2012 1.403 . S
C2012 C2011 1.403 . S
C2012 C2013 1.404 . S
C2012 C2015 1.539 1_655 S
C2013 C2009 1.408 . S
C2013 C2012 1.404 . S
C2013 H2025 0.930 . S
C2014 C2010 1.524 . S
C2014 H2026 0.956 . S
C2014 H2027 0.961 . S
C2014 H2028 0.961 . S
C2015 C2012 1.539 1_455 S
C2015 H2029 0.958 . S
C2015 H2030 0.961 . S
C2015 H2031 0.960 . S
H2016 C2000 0.931 . S
H2017 C2005 0.929 . S
H2018 C2006 0.960 . S
H2019 C2006 0.962 . S
H2020 C2006 0.960 . S
H2021 C2007 0.961 . S
H2022 C2007 0.961 . S
H2023 C2007 0.961 . S
H2024 C2008 0.931 . S
H2025 C2013 0.930 . S
H2026 C2014 0.956 . S
H2027 C2014 0.961 . S
H2028 C2014 0.961 . S
H2029 C2015 0.958 . S
H2030 C2015 0.961 . S
H2031 C2015 0.960 . S
C2032 C2033 1.391 . S
C2032 C2034 1.394 . S
C2032 H2048 0.931 . S
C2033 C2032 1.391 . S
C2033 C2037 1.376 . S
C2034 C2032 1.394 . S
C2034 C2035 1.369 . S
C2034 C2038 1.531 1_565 S
C2035 C2034 1.369 . S
C2035 C2036 1.410 . S
C2035 C2043 1.503 1_564 S
C2036 C2035 1.410 . S
C2036 C2037 1.392 . S
C2036 C2039 1.511 1_554 S
C2037 C2033 1.376 . S
C2037 C2036 1.392 . S
C2037 H2049 0.929 . S
C2038 C2034 1.531 1_545 S
C2038 H2050 0.960 . S
C2038 H2051 0.962 . S
C2038 H2052 0.960 . S
C2039 C2036 1.511 1_556 S
C2039 H2053 0.961 . S
C2039 H2054 0.961 . S
C2039 H2055 0.961 . S
C2040 C2041 1.370 . S
C2040 C2042 1.363 . S
C2040 H2056 0.931 . S
C2041 C2040 1.370 . S
C2041 C2045 1.408 . S
C2042 C2040 1.363 . S
C2042 C2043 1.370 . S
C2042 C2046 1.524 1_545 S
C2043 C2035 1.503 1_546 S
C2043 C2042 1.370 . S
C2043 C2044 1.403 . S
C2044 C2043 1.403 . S
C2044 C2045 1.404 . S
C2044 C2047 1.539 1_556 S
C2045 C2041 1.408 . S
C2045 C2044 1.404 . S
C2045 H2057 0.930 . S
C2046 C2042 1.524 1_565 S
C2046 H2058 0.956 . S
C2046 H2059 0.961 . S
C2046 H2060 0.961 . S
C2047 C2044 1.539 1_554 S
C2047 H2061 0.958 . S
C2047 H2062 0.961 . S
C2047 H2063 0.960 . S
H2048 C2032 0.931 . S
H2049 C2037 0.929 . S
H2050 C2038 0.960 . S
H2051 C2038 0.962 . S
H2052 C2038 0.960 . S
H2053 C2039 0.961 . S
H2054 C2039 0.961 . S
H2055 C2039 0.961 . S
H2056 C2040 0.931 . S
H2057 C2045 0.930 . S
H2058 C2046 0.956 . S
H2059 C2046 0.961 . S
H2060 C2046 0.961 . S
H2061 C2047 0.958 . S
H2062 C2047 0.961 . S
H2063 C2047 0.960 . S
C2064 C2065 1.391 . S
C2064 C2066 1.394 . S
C2064 H2080 0.931 . S
C2065 C2064 1.391 . S
C2065 C2069 1.376 . S
C2066 C2064 1.394 . S
C2066 C2067 1.369 . S
C2066 C2070 1.531 . S
C2067 C2066 1.369 . S
C2067 C2068 1.410 . S
C2067 C2075 1.503 . S
C2068 C2067 1.410 . S
C2068 C2069 1.392 . S
C2068 C2071 1.511 . S
C2069 C2065 1.376 . S
C2069 C2068 1.392 . S
C2069 H2081 0.929 . S
C2070 C2066 1.531 . S
C2070 H2082 0.960 . S
C2070 H2083 0.962 . S
C2070 H2084 0.960 . S
C2071 C2068 1.511 . S
C2071 H2085 0.961 . S
C2071 H2086 0.961 . S
C2071 H2087 0.961 . S
C2072 C2073 1.370 . S
C2072 C2074 1.363 . S
C2072 H2088 0.931 . S
C2073 C2072 1.370 . S
C2073 C2077 1.408 . S
C2074 C2072 1.363 . S
C2074 C2075 1.370 . S
C2074 C2078 1.524 . S
C2075 C2067 1.503 . S
C2075 C2074 1.370 . S
C2075 C2076 1.403 . S
C2076 C2075 1.403 . S
C2076 C2077 1.404 . S
C2076 C2079 1.539 . S
C2077 C2073 1.408 . S
C2077 C2076 1.404 . S
C2077 H2089 0.930 . S
C2078 C2074 1.524 . S
C2078 H2090 0.956 . S
C2078 H2091 0.961 . S
C2078 H2092 0.961 . S
C2079 C2076 1.539 . S
C2079 H2093 0.958 . S
C2079 H2094 0.961 . S
C2079 H2095 0.960 . S
H2080 C2064 0.931 . S
H2081 C2069 0.929 . S
H2082 C2070 0.960 . S
H2083 C2070 0.962 . S
H2084 C2070 0.960 . S
H2085 C2071 0.961 . S
H2086 C2071 0.961 . S
H2087 C2071 0.961 . S
H2088 C2072 0.931 . S
H2089 C2077 0.930 . S
H2090 C2078 0.956 . S
H2091 C2078 0.961 . S
H2092 C2078 0.961 . S
H2093 C2079 0.958 . S
H2094 C2079 0.961 . S
H2095 C2079 0.960 . S
C2096 C2097 1.391 . S
C2096 C2098 1.394 . S
C2096 H2112 0.931 . S
C2097 C2096 1.391 . S
C2097 C2101 1.376 . S
C2098 C2096 1.394 . S
C2098 C2099 1.369 . S
C2098 C2102 1.531 1_655 S
C2099 C2098 1.369 . S
C2099 C2100 1.410 1_556 S
C2099 C2107 1.503 1_656 S
C2100 C2099 1.410 1_554 S
C2100 C2101 1.392 1_554 S
C2100 C2103 1.511 . S
C2101 C2097 1.376 . S
C2101 C2100 1.392 1_556 S
C2101 H2113 0.929 . S
C2102 C2098 1.531 1_455 S
C2102 H2114 0.960 . S
C2102 H2115 0.962 . S
C2102 H2116 0.960 . S
C2103 C2100 1.511 . S
C2103 H2117 0.961 . S
C2103 H2118 0.961 . S
C2103 H2119 0.961 . S
C2104 C2105 1.370 . S
C2104 C2106 1.363 . S
C2104 H2120 0.931 . S
C2105 C2104 1.370 . S
C2105 C2109 1.408 . S
C2106 C2104 1.363 . S
C2106 C2107 1.370 . S
C2106 C2110 1.524 1_554 S
C2107 C2099 1.503 1_454 S
C2107 C2106 1.370 . S
C2107 C2108 1.403 . S
C2108 C2107 1.403 . S
C2108 C2109 1.404 . S
C2108 C2111 1.521 1_455 S
C2109 C2105 1.408 . S
C2109 C2108 1.404 . S
C2109 H2121 0.930 . S
C2110 C2106 1.524 1_556 S
C2110 H2122 0.956 . S
C2110 H2123 0.961 . S
C2110 H2124 0.961 . S
C2111 C2108 1.521 1_655 S
C2111 H2125 0.960 1_655 S
C2111 H2126 0.966 1_655 S
C2111 H2127 0.973 . S
H2112 C2096 0.931 . S
H2113 C2101 0.929 . S
H2114 C2102 0.960 . S
H2115 C2102 0.962 . S
H2116 C2102 0.960 . S
H2117 C2103 0.961 . S
H2118 C2103 0.961 . S
H2119 C2103 0.961 . S
H2120 C2104 0.931 . S
H2121 C2109 0.930 . S
H2122 C2110 0.956 . S
H2123 C2110 0.961 . S
H2124 C2110 0.961 . S
H2125 C2111 0.960 1_455 S
H2126 C2111 0.966 1_455 S
H2127 C2111 0.973 . S
C2128 C2129 1.391 . S
C2128 C2130 1.394 . S
C2128 H2144 0.931 . S
C2129 C2128 1.391 . S
C2129 C2133 1.376 . S
C2130 C2128 1.394 . S
C2130 C2131 1.369 . S
C2130 C2134 1.531 . S
C2131 C2130 1.369 . S
C2131 C2132 1.410 . S
C2131 C2139 1.503 1_565 S
C2132 C2131 1.410 . S
C2132 C2133 1.392 . S
C2132 C2135 1.511 1_565 S
C2133 C2129 1.376 . S
C2133 C2132 1.392 . S
C2133 H2145 0.929 . S
C2134 C2130 1.531 . S
C2134 H2146 0.960 . S
C2134 H2147 0.962 . S
C2134 H2148 0.960 . S
C2135 C2132 1.511 1_545 S
C2135 H2149 0.961 . S
C2135 H2150 0.961 . S
C2135 H2151 0.961 1_545 S
C2136 C2137 1.370 . S
C2136 C2138 1.363 . S
C2136 H2152 0.931 . S
C2137 C2136 1.370 . S
C2137 C2141 1.408 . S
C2138 C2136 1.363 . S
C2138 C2139 1.370 . S
C2138 C2142 1.524 . S
C2139 C2131 1.503 1_545 S
C2139 C2138 1.370 . S
C2139 C2140 1.403 . S
C2140 C2139 1.403 . S
C2140 C2141 1.404 . S
C2140 C2143 1.539 1_545 S
C2141 C2137 1.408 . S
C2141 C2140 1.404 . S
C2141 H2153 0.930 . S
C2142 C2138 1.524 . S
C2142 H2154 0.956 . S
C2142 H2155 0.961 . S
C2142 H2156 0.961 . S
C2143 C2140 1.539 1_565 S
C2143 H2157 0.958 . S
C2143 H2158 0.961 . S
C2143 H2159 0.960 . S
H2144 C2128 0.931 . S
H2145 C2133 0.929 . S
H2146 C2134 0.960 . S
H2147 C2134 0.962 . S
H2148 C2134 0.960 . S
H2149 C2135 0.961 . S
H2150 C2135 0.961 . S
H2151 C2135 0.961 1_565 S
H2152 C2136 0.931 . S
H2153 C2141 0.930 . S
H2154 C2142 0.956 . S
H2155 C2142 0.961 . S
H2156 C2142 0.961 . S
H2157 C2143 0.958 . S
H2158 C2143 0.961 . S
H2159 C2143 0.960 . S
C1009 C403 1.319 . S
C1017 C70 1.237 . S
C1041 C487 1.369 . S
C1049 C154 1.283 . S
C1073 C238 1.293 . S
C1081 C67 1.359 . S
C1105 C322 1.231 . S
C1113 C151 1.346 . S
C1137 C406 1.222 . S
C1145 C235 1.330 . S
C1169 C319 1.340 . S
C1177 C490 1.272 . S
C1201 C739 1.321 . S
C1209 C574 1.238 . S
C1233 C658 1.294 . S
C1241 C823 1.359 . S
C1265 C907 1.332 . S
C1273 C742 1.242 . S
C1297 C826 1.230 . S
C1305 C991 1.331 . S
C1329 C910 1.224 . S
C1337 C571 1.330 . S
C1361 C655 1.307 . S
C1369 C994 1.237 . S
C1393 C392 1.389 . S
C1401 C58 1.347 . S
C1425 C142 1.363 . S
C1433 C476 1.422 . S
C1457 C226 1.284 . S
C1465 C56 1.416 . S
C1489 C310 1.380 . S
C1497 C140 1.409 . S
C1521 C224 1.443 . S
C1529 C394 1.339 . S
C1553 C308 1.437 . S
C1561 C478 1.318 . S
C1585 C728 1.438 . S
C1593 C562 1.318 . S
C1617 C646 1.268 . S
C1625 C812 1.404 . S
C1649 C730 1.341 . S
C1657 C896 1.424 . S
C1681 C980 1.410 . S
C1689 C814 1.351 . S
C1713 C898 1.301 . S
C1721 C560 1.390 . S
C1745 C644 1.444 . S
C1753 C982 1.338 . S
C1777 C903 1.854 . S
C1785 C63 1.879 . S
C1809 C147 1.911 . S
C1817 C987 1.895 . S
C1841 C231 1.877 . S
C1849 C567 1.891 . S
C1873 C315 1.854 . S
C1881 C651 1.880 . S
C1905 C399 1.912 . S
C1913 C735 1.896 . S
C1937 C819 1.865 . S
C1945 C483 1.875 . S
C1969 C830 1.998 . S
C1977 C74 2.032 . S
C2001 C914 2.053 . S
C2009 C158 2.031 . S
C2033 C242 2.031 . S
C2041 C998 2.041 . S
C2065 C326 2.008 . S
C2073 C578 2.020 . S
C2097 C662 2.052 . S
C2105 C410 2.034 . S
C2129 C746 2.026 . S
C2137 C494 2.018 . S
