# Generated by pormake.
# Topology ukk, (4)-cn, num edge types: 1
# Building blocks:
#     Node 0, Type 0, BuildingBlock: NAWXER_clean_sbu_0, # of connection points: 4
#     Node 1, Type 0, BuildingBlock: NAWXER_clean_sbu_0, # of connection points: 4
#     Node 2, Type 0, BuildingBlock: NAWXER_clean_sbu_0, # of connection points: 4
#     Node 3, Type 0, BuildingBlock: NAWXER_clean_sbu_0, # of connection points: 4
#     Node 4, Type 0, BuildingBlock: NAWXER_clean_sbu_0, # of connection points: 4
#     Node 5, Type 0, BuildingBlock: NAWXER_clean_sbu_0, # of connection points: 4
#     Node 6, Type 0, BuildingBlock: NAWXER_clean_sbu_0, # of connection points: 4
#     Node 7, Type 0, BuildingBlock: NAWXER_clean_sbu_0, # of connection points: 4
#     Node 8, Type 0, BuildingBlock: NAWXER_clean_sbu_0, # of connection points: 4
#     Node 9, Type 0, BuildingBlock: NAWXER_clean_sbu_0, # of connection points: 4
#     Node 10, Type 0, BuildingBlock: NAWXER_clean_sbu_0, # of connection points: 4
#     Node 11, Type 0, BuildingBlock: NAWXER_clean_sbu_0, # of connection points: 4
#     Node 12, Type 0, BuildingBlock: NAWXER_clean_sbu_0, # of connection points: 4
#     Node 13, Type 0, BuildingBlock: NAWXER_clean_sbu_0, # of connection points: 4
#     Node 14, Type 0, BuildingBlock: NAWXER_clean_sbu_0, # of connection points: 4
#     Node 15, Type 0, BuildingBlock: NAWXER_clean_sbu_0, # of connection points: 4
#     Edge 16, Type (0, 0), BuildingBlock: EZIPEK_clean_linker_0, # of connection points: 2
#     Edge 17, Type (0, 0), BuildingBlock: EZIPEK_clean_linker_0, # of connection points: 2
#     Edge 18, Type (0, 0), BuildingBlock: EZIPEK_clean_linker_0, # of connection points: 2
#     Edge 19, Type (0, 0), BuildingBlock: EZIPEK_clean_linker_0, # of connection points: 2
#     Edge 20, Type (0, 0), BuildingBlock: EZIPEK_clean_linker_0, # of connection points: 2
#     Edge 21, Type (0, 0), BuildingBlock: EZIPEK_clean_linker_0, # of connection points: 2
#     Edge 22, Type (0, 0), BuildingBlock: EZIPEK_clean_linker_0, # of connection points: 2
#     Edge 23, Type (0, 0), BuildingBlock: EZIPEK_clean_linker_0, # of connection points: 2
#     Edge 24, Type (0, 0), BuildingBlock: EZIPEK_clean_linker_0, # of connection points: 2
#     Edge 25, Type (0, 0), BuildingBlock: EZIPEK_clean_linker_0, # of connection points: 2
#     Edge 26, Type (0, 0), BuildingBlock: EZIPEK_clean_linker_0, # of connection points: 2
#     Edge 27, Type (0, 0), BuildingBlock: EZIPEK_clean_linker_0, # of connection points: 2
#     Edge 28, Type (0, 0), BuildingBlock: EZIPEK_clean_linker_0, # of connection points: 2
#     Edge 29, Type (0, 0), BuildingBlock: EZIPEK_clean_linker_0, # of connection points: 2
#     Edge 30, Type (0, 0), BuildingBlock: EZIPEK_clean_linker_0, # of connection points: 2
#     Edge 31, Type (0, 0), BuildingBlock: EZIPEK_clean_linker_0, # of connection points: 2
#     Edge 32, Type (0, 0), BuildingBlock: EZIPEK_clean_linker_0, # of connection points: 2
#     Edge 33, Type (0, 0), BuildingBlock: EZIPEK_clean_linker_0, # of connection points: 2
#     Edge 34, Type (0, 0), BuildingBlock: EZIPEK_clean_linker_0, # of connection points: 2
#     Edge 35, Type (0, 0), BuildingBlock: EZIPEK_clean_linker_0, # of connection points: 2
#     Edge 36, Type (0, 0), BuildingBlock: EZIPEK_clean_linker_0, # of connection points: 2
#     Edge 37, Type (0, 0), BuildingBlock: EZIPEK_clean_linker_0, # of connection points: 2
#     Edge 38, Type (0, 0), BuildingBlock: EZIPEK_clean_linker_0, # of connection points: 2
#     Edge 39, Type (0, 0), BuildingBlock: EZIPEK_clean_linker_0, # of connection points: 2
#     Edge 40, Type (0, 0), BuildingBlock: EZIPEK_clean_linker_0, # of connection points: 2
#     Edge 41, Type (0, 0), BuildingBlock: EZIPEK_clean_linker_0, # of connection points: 2
#     Edge 42, Type (0, 0), BuildingBlock: EZIPEK_clean_linker_0, # of connection points: 2
#     Edge 43, Type (0, 0), BuildingBlock: EZIPEK_clean_linker_0, # of connection points: 2
#     Edge 44, Type (0, 0), BuildingBlock: EZIPEK_clean_linker_0, # of connection points: 2
#     Edge 45, Type (0, 0), BuildingBlock: EZIPEK_clean_linker_0, # of connection points: 2
#     Edge 46, Type (0, 0), BuildingBlock: EZIPEK_clean_linker_0, # of connection points: 2
#     Edge 47, Type (0, 0), BuildingBlock: EZIPEK_clean_linker_0, # of connection points: 2
# Relax obj value: 0.021
# Max RMSD: 0.113
# Mean RMSD: 0.113
data_MOF--net-ukk--node1-NAWXER_clean_sbu_0--edge1-EZIPEK_clean_linker_0
_symmetry_space_group_name_H-M    P1
_symmetry_Int_Tables_number       1
_symmetry_cell_setting            triclinic
loop_
_symmetry_equiv_pos_as_xyz
'x, y, z'
_cell_length_a     41.603105
_cell_length_b     41.594192
_cell_length_c     8.9753999
_cell_angle_alpha  90.239903
_cell_angle_beta   90.114266
_cell_angle_gamma 90.148167
loop_
_atom_site_label
_atom_site_type_symbol
_atom_site_fract_x
_atom_site_fract_y
_atom_site_fract_z
_atom_type_partial_charge
C0 C 0.37302 0.1897 0.13553 0.0
C1 C 0.37923 0.07776 0.29533 0.0
O2 O 0.37924 0.17056 0.0269 0.0
Zn3 Zn 0.38534 0.11926 0.99504 0.0
O4 O 0.36876 0.17857 0.26566 0.0
Zn5 Zn 0.375 0.13379 0.21576 0.0
O6 O 0.42554 0.13303 0.1571 0.0
O7 O 0.42909 0.1168 0.92272 0.0
O8 O 0.37235 0.10222 0.37407 0.0
O9 O 0.38455 0.08096 0.15553 0.0
O10 O 0.35067 0.10817 0.85996 0.0
O11 O 0.33317 0.12374 0.08071 0.0
C12 C 0.44262 0.12599 0.04266 0.0
C13 C 0.32744 0.11412 0.94733 0.0
C14 C 0.13766 0.58213 0.95808 0.0
C15 C 0.12825 0.69858 0.03387 0.0
O16 O 0.13185 0.59616 0.08145 0.0
Zn17 Zn 0.13284 0.63963 0.00278 0.0
O18 O 0.14179 0.59867 0.83942 0.0
Zn19 Zn 0.14264 0.64821 0.77221 0.0
O20 O 0.18683 0.6529 0.70577 0.0
O21 O 0.18267 0.64484 0.94837 0.0
O22 O 0.13583 0.69104 0.90013 0.0
O23 O 0.12406 0.67652 0.12964 0.0
O24 O 0.0917 0.63828 0.86129 0.0
O25 O 0.1067 0.64984 0.6321 0.0
C26 C 0.20006 0.6496 0.83278 0.0
C27 C 0.08458 0.64283 0.72429 0.0
C28 C 0.57587 0.89319 0.06787 0.0
C29 C 0.69085 0.90228 0.94928 0.0
O30 O 0.59435 0.88833 0.17956 0.0
Zn31 Zn 0.6445 0.8861 0.22657 0.0
O32 O 0.58807 0.90029 0.94225 0.0
Zn33 Zn 0.63313 0.89965 0.00349 0.0
O34 O 0.64062 0.84938 0.03394 0.0
O35 O 0.64873 0.8406 0.27265 0.0
O36 O 0.66739 0.90854 0.86291 0.0
O37 O 0.68535 0.89435 0.08488 0.0
O38 O 0.64915 0.91876 0.38045 0.0
O39 O 0.63625 0.93879 0.16029 0.0
C40 C 0.64558 0.82971 0.14056 0.0
C41 C 0.64239 0.9428 0.29921 0.0
C42 C 0.88318 0.4439 0.9382 0.0
C43 C 0.89493 0.33014 0.06996 0.0
O44 O 0.88926 0.43252 0.06654 0.0
Zn45 Zn 0.88885 0.38696 0.01221 0.0
O46 O 0.87918 0.4247 0.82799 0.0
Zn47 Zn 0.88201 0.37442 0.78277 0.0
O48 O 0.83911 0.36524 0.70888 0.0
O49 O 0.84002 0.37863 0.9479 0.0
O50 O 0.89006 0.33465 0.93054 0.0
O51 O 0.8957 0.35391 0.1597 0.0
O52 O 0.93186 0.38288 0.88607 0.0
O53 O 0.91939 0.37359 0.65148 0.0
C54 C 0.82439 0.37034 0.8308 0.0
C55 C 0.94066 0.37894 0.75079 0.0
C56 C 0.43711 0.3891 0.16645 0.0
C57 C 0.32087 0.39634 0.24009 0.0
O58 O 0.42081 0.38505 0.04638 0.0
Zn59 Zn 0.37128 0.38451 0.97608 0.0
O60 O 0.42288 0.39561 0.28826 0.0
Zn61 Zn 0.37972 0.39465 0.20551 0.0
O62 O 0.37561 0.34439 0.14886 0.0
O63 O 0.36718 0.34038 0.90602 0.0
O64 O 0.34309 0.40181 0.33426 0.0
O65 O 0.32821 0.38946 0.10515 0.0
O66 O 0.37001 0.42036 0.83563 0.0
O67 O 0.38068 0.43636 0.06497 0.0
C68 C 0.37097 0.32705 0.03228 0.0
C69 C 0.3768 0.44288 0.92669 0.0
C70 C 0.3973 0.57786 0.80051 0.0
C71 C 0.40781 0.69438 0.71776 0.0
O72 O 0.40496 0.59164 0.67927 0.0
Zn73 Zn 0.40535 0.63549 0.7578 0.0
O74 O 0.39299 0.59485 0.9186 0.0
Zn75 Zn 0.3947 0.64491 0.98475 0.0
O76 O 0.35118 0.65122 0.05305 0.0
O77 O 0.35496 0.64202 0.8105 0.0
O78 O 0.40021 0.68748 0.8521 0.0
O79 O 0.41408 0.67171 0.62685 0.0
O80 O 0.44652 0.63507 0.9013 0.0
O81 O 0.42983 0.64693 0.1279 0.0
C82 C 0.33781 0.64778 0.92627 0.0
C83 C 0.45259 0.63999 0.03951 0.0
C84 C 0.7042 0.6193 0.23625 0.0
C85 C 0.5875 0.62964 0.17822 0.0
O86 O 0.69552 0.6238 0.10116 0.0
Zn87 Zn 0.65247 0.63395 0.98239 0.0
O88 O 0.68299 0.61786 0.33785 0.0
Zn89 Zn 0.64532 0.62441 0.21386 0.0
O90 O 0.64435 0.58335 0.06768 0.0
O91 O 0.65105 0.5997 0.83543 0.0
O92 O 0.60229 0.62309 0.29865 0.0
O93 O 0.60343 0.63422 0.05786 0.0
O94 O 0.65937 0.67814 0.92147 0.0
O95 O 0.64887 0.67417 0.16133 0.0
C96 C 0.64648 0.57704 0.92787 0.0
C97 C 0.65462 0.69153 0.04714 0.0
C98 C 0.62857 0.44115 0.81268 0.0
C99 C 0.61414 0.32769 0.68008 0.0
O100 O 0.61993 0.42993 0.68665 0.0
Zn101 Zn 0.61978 0.38469 0.74138 0.0
O102 O 0.63325 0.42192 0.92143 0.0
Zn103 Zn 0.62953 0.3716 0.96661 0.0
O104 O 0.6732 0.36268 0.0304 0.0
O105 O 0.66956 0.37692 0.79354 0.0
O106 O 0.6206 0.33194 0.81845 0.0
O107 O 0.61148 0.35174 0.5939 0.0
O108 O 0.57818 0.38193 0.87873 0.0
O109 O 0.59382 0.37061 0.1071 0.0
C110 C 0.6866 0.36868 0.90611 0.0
C111 C 0.57139 0.37743 0.01609 0.0
C112 C 0.87696 0.69112 0.62052 0.0
C113 C 0.87985 0.57919 0.79163 0.0
O114 O 0.88375 0.67104 0.51705 0.0
Zn115 Zn 0.89284 0.62083 0.49501 0.0
O116 O 0.8721 0.68091 0.75211 0.0
Zn117 Zn 0.87845 0.63527 0.71372 0.0
O118 O 0.92917 0.63332 0.68071 0.0
O119 O 0.9385 0.62056 0.44653 0.0
O120 O 0.8728 0.60361 0.8709 0.0
O121 O 0.88747 0.58294 0.65429 0.0
O122 O 0.86146 0.60884 0.34682 0.0
O123 O 0.83996 0.62403 0.56158 0.0
C124 C 0.94911 0.62827 0.57478 0.0
C125 C 0.8368 0.61425 0.42665 0.0
C126 C 0.62954 0.07725 0.4306 0.0
C127 C 0.61837 0.19414 0.4926 0.0
O128 O 0.6213 0.09192 0.54926 0.0
Zn129 Zn 0.62297 0.13507 0.46737 0.0
O130 O 0.63508 0.09315 0.31124 0.0
Zn131 Zn 0.63454 0.14248 0.239 0.0
O132 O 0.67912 0.15004 0.18484 0.0
O133 O 0.67334 0.1396 0.42384 0.0
O134 O 0.62394 0.18552 0.35822 0.0
O135 O 0.61552 0.17274 0.59262 0.0
O136 O 0.5826 0.13437 0.31641 0.0
O137 O 0.60111 0.14206 0.08824 0.0
C138 C 0.69156 0.14589 0.31296 0.0
C139 C 0.57766 0.13717 0.17598 0.0
C140 C 0.07741 0.39111 0.61904 0.0
C141 C 0.19026 0.39803 0.46575 0.0
O142 O 0.0976 0.38623 0.72397 0.0
Zn143 Zn 0.14812 0.38864 0.76195 0.0
O144 O 0.08764 0.39879 0.49038 0.0
Zn145 Zn 0.13346 0.39721 0.53767 0.0
O146 O 0.13944 0.34765 0.5983 0.0
O147 O 0.15481 0.34554 0.8345 0.0
O148 O 0.16559 0.40171 0.38364 0.0
O149 O 0.18685 0.39361 0.60619 0.0
O150 O 0.15181 0.42532 0.89616 0.0
O151 O 0.13891 0.43987 0.66809 0.0
C152 C 0.14737 0.33128 0.71333 0.0
C153 C 0.14486 0.44735 0.8039 0.0
C154 C 0.39056 0.94464 0.45006 0.0
C155 C 0.39966 0.82793 0.52316 0.0
O156 O 0.39807 0.93057 0.57083 0.0
Zn157 Zn 0.39546 0.88701 0.49249 0.0
O158 O 0.38487 0.92818 0.33191 0.0
Zn159 Zn 0.38386 0.87847 0.26451 0.0
O160 O 0.33936 0.87235 0.20881 0.0
O161 O 0.34526 0.88309 0.44835 0.0
O162 O 0.39383 0.83565 0.38785 0.0
O163 O 0.40255 0.85008 0.62053 0.0
O164 O 0.43551 0.88633 0.34132 0.0
O165 O 0.41689 0.87767 0.11327 0.0
C166 C 0.32708 0.87687 0.33677 0.0
C167 C 0.44036 0.88301 0.20098 0.0
C168 C 0.8244 0.89859 0.75992 0.0
C169 C 0.941 0.88723 0.70124 0.0
O170 O 0.8325 0.89264 0.62513 0.0
Zn171 Zn 0.87616 0.88679 0.50216 0.0
O172 O 0.8461 0.90158 0.85893 0.0
Zn173 Zn 0.88349 0.89357 0.73458 0.0
O174 O 0.88718 0.93632 0.60466 0.0
O175 O 0.87628 0.92377 0.37085 0.0
O176 O 0.92596 0.89213 0.82253 0.0
O177 O 0.92556 0.88484 0.57779 0.0
O178 O 0.87015 0.84428 0.42003 0.0
O179 O 0.87758 0.84445 0.66429 0.0
C180 C 0.88351 0.94477 0.46869 0.0
C181 C 0.87282 0.82908 0.54209 0.0
C182 C 0.8962 0.0813 0.34878 0.0
C183 C 0.90324 0.19715 0.25066 0.0
O184 O 0.90388 0.09421 0.22539 0.0
Zn185 Zn 0.90163 0.1389 0.29361 0.0
O186 O 0.89005 0.09922 0.46125 0.0
Zn187 Zn 0.88552 0.14874 0.5156 0.0
O188 O 0.83939 0.1508 0.55207 0.0
O189 O 0.85069 0.14389 0.31469 0.0
O190 O 0.89351 0.19046 0.38231 0.0
O191 O 0.91153 0.17464 0.16233 0.0
O192 O 0.93899 0.14121 0.45949 0.0
O193 O 0.9167 0.15309 0.67643 0.0
C194 C 0.82984 0.14734 0.41796 0.0
C195 C 0.94158 0.14671 0.59968 0.0
C196 C 0.1924 0.11907 0.77764 0.0
C197 C 0.07478 0.13176 0.74025 0.0
O198 O 0.18245 0.12559 0.64618 0.0
Zn199 Zn 0.13827 0.138 0.53818 0.0
O200 O 0.17184 0.11579 0.88141 0.0
Zn201 Zn 0.13299 0.12435 0.76574 0.0
O202 O 0.13073 0.08575 0.60539 0.0
O203 O 0.13554 0.10665 0.37973 0.0
O204 O 0.09022 0.12241 0.85474 0.0
O205 O 0.08986 0.13817 0.61969 0.0
O206 O 0.1451 0.18281 0.49073 0.0
O207 O 0.13805 0.17473 0.73154 0.0
C208 C 0.13156 0.08238 0.46331 0.0
C209 C 0.14298 0.19383 0.62268 0.0
C210 C 0.12229 0.94755 0.32814 0.0
C211 C 0.11863 0.83176 0.22716 0.0
O212 O 0.1156 0.9339 0.20486 0.0
Zn213 Zn 0.11845 0.88966 0.27446 0.0
O214 O 0.12813 0.93047 0.44321 0.0
Zn215 Zn 0.13222 0.88092 0.49918 0.0
O216 O 0.17757 0.87948 0.54982 0.0
O217 O 0.16897 0.88459 0.30935 0.0
O218 O 0.12599 0.83847 0.3628 0.0
O219 O 0.1115 0.85435 0.13787 0.0
O220 O 0.07931 0.88581 0.42969 0.0
O221 O 0.09988 0.87617 0.65258 0.0
C222 C 0.18862 0.88181 0.41812 0.0
C223 C 0.07556 0.88065 0.56938 0.0
C224 C 0.41638 0.9979 0.39944 0.0
C225 C 0.38873 0.98013 0.4413 0.0
C226 C 0.35489 0.02782 0.40609 0.0
C227 C 0.38259 0.04553 0.3636 0.0
N228 N 0.44024 0.05028 0.35477 0.0
N229 N 0.333 0.9787 0.5123 0.0
C230 C 0.41355 0.03141 0.37138 0.0
C231 C 0.35839 0.99538 0.45423 0.0
N232 N 0.44507 0.98245 0.38019 0.0
N233 N 0.32517 0.0415 0.39323 0.0
H234 H 0.33486 0.95483 0.5466 0.0
H235 H 0.3109 0.98902 0.53749 0.0
H236 H 0.32183 0.0654 0.36214 0.0
H237 H 0.3037 0.02889 0.40518 0.0
H238 H 0.46512 0.99308 0.33144 0.0
H239 H 0.44832 0.95819 0.40515 0.0
H240 H 0.46358 0.0422 0.37303 0.0
H241 H 0.43891 0.07498 0.33562 0.0
C242 C 0.02691 0.66024 0.74411 0.0
C243 C 0.05035 0.64004 0.67733 0.0
C244 C 1.00709 0.60986 0.55184 0.0
C245 C 0.98422 0.63268 0.60384 0.0
N246 N 0.97465 0.68431 0.72255 0.0
N247 N 0.06302 0.5974 0.50355 0.0
C248 C 0.9948 0.65923 0.69183 0.0
C249 C 0.04055 0.6157 0.57506 0.0
N250 N 0.03474 0.67997 0.86095 0.0
N251 N 0.99695 0.58139 0.49099 0.0
H252 H 0.08757 0.59894 0.5258 0.0
H253 H 0.0574 0.58204 0.41521 0.0
H254 H 0.9728 0.57504 0.48071 0.0
H255 H 0.01242 0.56249 0.4659 0.0
H256 H 0.0176 0.69203 0.9245 0.0
H257 H 0.05774 0.68205 0.90496 0.0
H258 H 0.98258 0.70592 0.76911 0.0
H259 H 0.95077 0.68518 0.68911 0.0
C260 C 0.66785 0.99588 0.36233 0.0
C261 C 0.64039 0.97564 0.36317 0.0
C262 C 0.60603 0.02147 0.4286 0.0
C263 C 0.63348 0.0418 0.4272 0.0
N264 N 0.69106 0.04794 0.42444 0.0
N265 N 0.58488 0.96694 0.42705 0.0
C266 C 0.66462 0.02879 0.40421 0.0
C267 C 0.60997 0.98776 0.40674 0.0
N268 N 0.69674 0.98387 0.31602 0.0
N269 N 0.57605 0.03459 0.44184 0.0
H270 H 0.58699 0.94219 0.41016 0.0
H271 H 0.56289 0.97366 0.47247 0.0
H272 H 0.57223 0.05907 0.45993 0.0
H273 H 0.55486 0.0217 0.42544 0.0
H274 H 0.7169 0.99802 0.29538 0.0
H275 H 0.70016 0.95961 0.29061 0.0
H276 H 0.71458 0.03951 0.4224 0.0
H277 H 0.68942 0.07205 0.45604 0.0
C278 C 0.02851 0.40513 0.7714 0.0
C279 C 0.0424 0.38776 0.65085 0.0
C280 C 0.9903 0.36089 0.60883 0.0
C281 C 0.97553 0.38205 0.71316 0.0
N282 N 0.98101 0.42968 0.87017 0.0
N283 N 0.03566 0.34985 0.44783 0.0
C284 C 0.9947 0.40564 0.78752 0.0
C285 C 0.02291 0.36623 0.56595 0.0
N286 N 0.04714 0.42079 0.87464 0.0
N287 N 0.97421 0.33417 0.55942 0.0
H288 H 0.06005 0.34998 0.42195 0.0
H289 H 0.02162 0.33728 0.37082 0.0
H290 H 0.95136 0.32779 0.59644 0.0
H291 H 0.98487 0.31623 0.49522 0.0
H292 H 0.03788 0.4298 0.97424 0.0
H293 H 0.072 0.42245 0.87124 0.0
H294 H 0.99385 0.44978 0.90675 0.0
H295 H 0.95663 0.43175 0.89142 0.0
C296 C 0.40792 0.48612 0.79095 0.0
C297 C 0.38059 0.47678 0.87569 0.0
C298 C 0.36102 0.53225 0.86685 0.0
C299 C 0.39073 0.54261 0.80691 0.0
N300 N 0.44418 0.52949 0.72294 0.0
N301 N 0.33372 0.49273 0.01621 0.0
C302 C 0.41457 0.51954 0.76974 0.0
C303 C 0.35785 0.50034 0.9197 0.0
N304 N 0.42781 0.4632 0.73295 0.0
N305 N 0.33537 0.55266 0.86893 0.0
H306 H 0.33107 0.46992 0.06134 0.0
H307 H 0.31846 0.50985 0.06287 0.0
H308 H 0.33648 0.57582 0.82495 0.0
H309 H 0.31223 0.54529 0.89755 0.0
H310 H 0.44609 0.46836 0.65755 0.0
H311 H 0.42468 0.43869 0.75203 0.0
H312 H 0.46369 0.51407 0.71082 0.0
H313 H 0.45005 0.55361 0.70713 0.0
C314 C 0.49692 0.61292 0.1845 0.0
C315 C 0.4864 0.63867 0.09293 0.0
C316 C 0.54026 0.66235 0.10473 0.0
C317 C 0.55208 0.63413 0.17317 0.0
N318 N 0.54208 0.58082 0.26827 0.0
N319 N 0.49988 0.68513 0.94435 0.0
C320 C 0.53048 0.60906 0.21283 0.0
C321 C 0.50856 0.66267 0.04724 0.0
N322 N 0.47501 0.59177 0.24147 0.0
N323 N 0.55928 0.68914 0.09695 0.0
H324 H 0.47725 0.68565 0.89524 0.0
H325 H 0.51615 0.70112 0.89641 0.0
H326 H 0.58227 0.69007 0.14342 0.0
H327 H 0.55094 0.71135 0.06014 0.0
H328 H 0.48076 0.57467 0.32158 0.0
H329 H 0.45054 0.59276 0.21657 0.0
H330 H 0.52799 0.56033 0.28221 0.0
H331 H 0.56635 0.57697 0.29032 0.0
C332 C 0.61413 0.493 0.94144 0.0
C333 C 0.63333 0.47629 0.83585 0.0
C334 C 0.66261 0.52662 0.78551 0.0
C335 C 0.64058 0.54346 0.8779 0.0
N336 N 0.58898 0.54357 6e-05 0.0
N337 N 0.67452 0.47795 0.64624 0.0
C338 C 0.6143 0.5269 0.94165 0.0
C339 C 0.65688 0.49344 0.75268 0.0
N340 N 0.59673 0.47701 0.04674 0.0
N341 N 0.68995 0.54152 0.73702 0.0
H342 H 0.67327 0.4532 0.62812 0.0
H343 H 0.68923 0.48994 0.57077 0.0
H344 H 0.6953 0.5655 0.76041 0.0
H345 H 0.70862 0.52944 0.68395 0.0
H346 H 0.5847 0.48884 0.13272 0.0
H347 H 0.59736 0.45226 0.06086 0.0
H348 H 0.56797 0.53236 0.03637 0.0
H349 H 0.58738 0.56857 0.99485 0.0
C350 C 0.49031 0.36205 0.20538 0.0
C351 C 0.47262 0.389 0.15547 0.0
C352 C 0.52051 0.41034 0.03078 0.0
C353 C 0.53753 0.38164 0.06738 0.0
N354 N 0.53703 0.32809 0.17071 0.0
N355 N 0.46995 0.43936 0.02578 0.0
C356 C 0.52218 0.3571 0.15174 0.0
C357 C 0.48762 0.41343 0.07093 0.0
N358 N 0.47649 0.34105 0.30303 0.0
N359 N 0.53581 0.43505 0.95987 0.0
H360 H 0.44682 0.44398 0.06489 0.0
H361 H 0.47751 0.45587 0.94641 0.0
H362 H 0.55867 0.43336 0.91482 0.0
H363 H 0.52658 0.45818 0.95099 0.0
H364 H 0.48902 0.32271 0.35598 0.0
H365 H 0.45295 0.3436 0.34092 0.0
H366 H 0.52585 0.30808 0.21692 0.0
H367 H 0.55966 0.32284 0.12746 0.0
C368 C 0.90612 0.49345 0.81831 0.0
C369 C 0.88255 0.47922 0.91179 0.0
C370 C 0.85633 0.532 0.93656 0.0
C371 C 0.88195 0.54625 0.85515 0.0
N372 N 0.93662 0.54156 0.76871 0.0
N373 N 0.83724 0.48591 0.07687 0.0
C374 C 0.90859 0.52727 0.81267 0.0
C375 C 0.85853 0.49891 0.97818 0.0
N376 N 0.92538 0.47515 0.72898 0.0
N377 N 0.82908 0.54917 0.96577 0.0
H378 H 0.83656 0.46145 0.10165 0.0
H379 H 0.8216 0.49973 0.14093 0.0
H380 H 0.82614 0.57309 0.93503 0.0
H381 H 0.80832 0.53898 0.01008 0.0
H382 H 0.94082 0.48511 0.65015 0.0
H383 H 0.92347 0.45032 0.7197 0.0
H384 H 0.95761 0.52863 0.74828 0.0
H385 H 0.93993 0.56644 0.77068 0.0
C386 C 0.53096 0.1037 0.09063 0.0
C387 C 0.54434 0.13457 0.11843 0.0
C388 C 0.49245 0.15966 0.06153 0.0
C389 C 0.47814 0.12871 0.05264 0.0
N390 N 0.48279 0.07102 0.06296 0.0
N391 N 0.5382 0.19199 0.13962 0.0
C392 C 0.49721 0.1006 0.06643 0.0
C393 C 0.52525 0.16263 0.10514 0.0
N394 N 0.55066 0.07743 0.0868 0.0
N395 N 0.47476 0.18613 0.02461 0.0
H396 H 0.56239 0.19518 0.16696 0.0
H397 H 0.5247 0.21292 0.14992 0.0
H398 H 0.4508 0.18463 0.99063 0.0
H399 H 0.48439 0.20915 0.015 0.0
H400 H 0.54319 0.05461 0.05345 0.0
H401 H 0.57535 0.07891 0.10641 0.0
H402 H 0.49447 0.04971 0.08974 0.0
H403 H 0.45834 0.06781 0.0416 0.0
C404 C 0.16337 0.52815 0.99097 0.0
C405 C 0.13678 0.54665 0.94358 0.0
C406 C 0.1135 0.49922 0.82007 0.0
C407 C 0.14197 0.48152 0.85314 0.0
N408 N 0.19655 0.48151 0.9448 0.0
N409 N 0.08666 0.55085 0.8105 0.0
C410 C 0.16746 0.49647 0.93353 0.0
C411 C 0.11181 0.53238 0.85814 0.0
N412 N 0.18484 0.5409 0.09041 0.0
N413 N 0.0876 0.4843 0.75576 0.0
H414 H 0.08283 0.57425 0.84839 0.0
H415 H 0.0703 0.5436 0.72904 0.0
H416 H 0.08791 0.46085 0.71595 0.0
H417 H 0.06482 0.49452 0.74945 0.0
H418 H 0.20295 0.52748 0.14073 0.0
H419 H 0.18279 0.5642 0.13265 0.0
H420 H 0.21715 0.49311 0.98371 0.0
H421 H 0.20109 0.45878 0.90033 0.0
C422 C 0.49498 0.85868 0.18969 0.0
C423 C 0.47385 0.88356 0.14573 0.0
C424 C 0.51929 0.91485 0.04844 0.0
C425 C 0.54048 0.88944 0.0876 0.0
N426 N 0.54784 0.83505 0.17694 0.0
N427 N 0.46429 0.93277 0.01242 0.0
C428 C 0.52811 0.86077 0.15297 0.0
C429 C 0.4855 0.9107 0.06715 0.0
N430 N 0.48341 0.83329 0.27029 0.0
N431 N 0.53153 0.94384 0.00434 0.0
H432 H 0.43955 0.93125 0.02971 0.0
H433 H 0.47083 0.95118 0.94025 0.0
H434 H 0.55608 0.94839 0.99457 0.0
H435 H 0.51766 0.9644 0.99053 0.0
H436 H 0.49798 0.81692 0.32582 0.0
H437 H 0.45896 0.82933 0.28824 0.0
H438 H 0.53958 0.81213 0.20322 0.0
H439 H 0.57255 0.83577 0.16182 0.0
C440 C 0.86501 1.00178 0.4958 0.0
C441 C 0.88628 0.97931 0.42952 0.0
C442 C 0.91571 0.02388 0.31213 0.0
C443 C 0.89216 0.04584 0.36541 0.0
N444 N 0.83958 0.05336 0.47687 0.0
N445 N 0.92994 0.96843 0.25972 0.0
C446 C 0.86541 0.03408 0.44774 0.0
C447 C 0.91076 0.99016 0.33132 0.0
N448 N 0.84471 0.99278 0.60789 0.0
N449 N 0.94389 0.03508 0.25356 0.0
H450 H 0.92887 0.94376 0.27931 0.0
H451 H 0.94552 0.97472 0.17385 0.0
H452 H 0.94935 0.05943 0.24433 0.0
H453 H 0.96329 0.02029 0.22792 0.0
H454 H 0.83181 1.00925 0.67184 0.0
H455 H 0.84283 0.96946 0.64777 0.0
H456 H 0.81793 0.04464 0.51902 0.0
H457 H 0.83822 0.0773 0.44567 0.0
C458 C 0.99374 0.17112 0.68575 0.0
C459 C 0.97367 0.14369 0.67052 0.0
C460 C 0.01911 0.10827 0.72876 0.0
C461 C 0.03933 0.13567 0.74172 0.0
N462 N 0.04523 0.19302 0.76591 0.0
N463 N 0.96472 0.08716 0.70951 0.0
C464 C 0.02631 0.1671 0.73131 0.0
C465 C 0.98558 0.11256 0.70319 0.0
N466 N 0.98199 0.20079 0.65015 0.0
N467 N 0.03226 0.07818 0.73202 0.0
H468 H 0.9401 0.0896 0.69035 0.0
H469 H 0.97118 0.06434 0.746 0.0
H470 H 0.05654 0.07412 0.754 0.0
H471 H 0.01965 0.05734 0.70449 0.0
H472 H 0.9962 0.22132 0.64132 0.0
H473 H 0.95797 0.20461 0.6217 0.0
H474 H 0.03677 0.2165 0.77284 0.0
H475 H 0.0691 0.19066 0.8002 0.0
C476 C 0.15521 0.99727 0.37597 0.0
C477 C 0.12492 0.98307 0.34089 0.0
C478 C 0.09887 0.03566 0.37041 0.0
C479 C 0.12936 0.04966 0.39978 0.0
N480 N 0.18703 0.04603 0.39545 0.0
N481 N 0.06845 0.98911 0.2853 0.0
C482 C 0.15769 0.03115 0.39036 0.0
C483 C 0.09694 1.00249 0.3303 0.0
N484 N 0.18141 0.97838 0.40277 0.0
N485 N 0.07173 0.05379 0.38726 0.0
H486 H 0.06564 0.96462 0.26378 0.0
H487 H 0.04802 1.00247 0.2606 0.0
H488 H 0.07248 0.07837 0.411 0.0
H489 H 0.04854 0.04436 0.38571 0.0
H490 H 0.20304 0.98716 0.4453 0.0
H491 H 0.18087 0.95346 0.39546 0.0
H492 H 0.20858 0.03429 0.37301 0.0
H493 H 0.18963 0.07086 0.40794 0.0
C494 C 0.9947 0.91416 0.69044 0.0
C495 C 0.97652 0.88533 0.6984 0.0
C496 C 0.02552 0.85348 0.66126 0.0
C497 C 0.04275 0.88227 0.63282 0.0
N498 N 0.04463 0.9401 0.61817 0.0
N499 N 0.97346 0.82752 0.68833 0.0
C500 C 0.02764 0.91269 0.64843 0.0
C501 C 0.99169 0.85492 0.68464 0.0
N502 N 0.98034 0.9429 0.7227 0.0
N503 N 0.04157 0.82485 0.66541 0.0
H504 H 0.9489 0.82769 0.71182 0.0
H505 H 0.98215 0.80481 0.66108 0.0
H506 H 0.06621 0.82302 0.6458 0.0
H507 H 0.03115 0.80333 0.69932 0.0
H508 H 0.99275 0.96455 0.73304 0.0
H509 H 0.95609 0.94484 0.75055 0.0
H510 H 0.03427 0.96275 0.6083 0.0
H511 H 0.06923 0.94008 0.59595 0.0
C512 C 0.34332 0.27302 0.0239 0.0
C513 C 0.37166 0.2915 0.04713 0.0
C514 C 0.39961 0.24378 0.14156 0.0
C515 C 0.37207 0.22485 0.10896 0.0
N516 N 0.31882 0.22005 0.00495 0.0
N517 N 0.42851 0.29358 0.0991 0.0
C518 C 0.34428 0.23907 0.04512 0.0
C519 C 0.4003 0.27661 0.09813 0.0
N520 N 0.31517 0.28812 0.98865 0.0
N521 N 0.42497 0.23051 0.21631 0.0
H522 H 0.43008 0.31743 0.06441 0.0
H523 H 0.45083 0.28328 0.12019 0.0
H524 H 0.42573 0.20635 0.24675 0.0
H525 H 0.44419 0.24387 0.2581 0.0
H526 H 0.29292 0.27662 0.98633 0.0
H527 H 0.31359 0.31285 0.97162 0.0
H528 H 0.29942 0.22815 0.94214 0.0
H529 H 0.31792 0.19548 0.02733 0.0
C530 C 0.25441 0.67635 0.80867 0.0
C531 C 0.23559 0.64929 0.8497 0.0
C532 C 0.28292 0.62436 0.9642 0.0
C533 C 0.3024 0.64971 0.90984 0.0
N534 N 0.30765 0.69857 0.76759 0.0
N535 N 0.23349 0.59434 0.93423 0.0
C536 C 0.28843 0.67526 0.82741 0.0
C537 C 0.25026 0.62244 0.91911 0.0
N538 N 0.23972 0.70366 0.75904 0.0
N539 N 0.29548 0.60203 0.05912 0.0
H540 H 0.21001 0.59141 0.8955 0.0
H541 H 0.24395 0.57295 0.96954 0.0
H542 H 0.31957 0.60173 0.09105 0.0
H543 H 0.28142 0.58522 0.11512 0.0
H544 H 0.25177 0.72533 0.74272 0.0
H545 H 0.21489 0.70555 0.74562 0.0
H546 H 0.2995 0.71547 0.69111 0.0
H547 H 0.33229 0.7 0.78829 0.0
C548 C 0.67438 0.77709 0.17447 0.0
C549 C 0.64896 0.79463 0.10742 0.0
C550 C 0.63077 0.74506 0.98037 0.0
C551 C 0.65368 0.72712 0.06267 0.0
N552 N 0.69437 0.72562 0.25577 0.0
N553 N 0.60098 0.79436 0.95242 0.0
C554 C 0.6745 0.74298 0.16531 0.0
C555 C 0.62687 0.77848 0.01038 0.0
N556 N 0.69962 0.79303 0.23934 0.0
N557 N 0.61217 0.73018 0.87452 0.0
H558 H 0.59748 0.81898 0.96006 0.0
H559 H 0.58142 0.78277 0.90327 0.0
H560 H 0.61095 0.70536 0.86035 0.0
H561 H 0.59895 0.7426 0.79479 0.0
H562 H 0.72049 0.78159 0.27507 0.0
H563 H 0.70161 0.818 0.24175 0.0
H564 H 0.70684 0.73573 0.34528 0.0
H565 H 0.69663 0.70077 0.24978 0.0
C566 C 0.73815 0.3981 0.86234 0.0
C567 C 0.72205 0.36861 0.89089 0.0
C568 C 0.77337 0.33976 0.87812 0.0
C569 C 0.78894 0.3689 0.83875 0.0
N570 N 0.78612 0.42485 0.77164 0.0
N571 N 0.72298 0.31075 0.90436 0.0
C572 C 0.77126 0.39779 0.824 0.0
C573 C 0.73929 0.33921 0.89328 0.0
N574 N 0.72205 0.42655 0.87826 0.0
N575 N 0.79127 0.31284 0.9044 0.0
H576 H 0.69808 0.30948 0.91683 0.0
H577 H 0.73373 0.28837 0.89034 0.0
H578 H 0.81611 0.31211 0.88869 0.0
H579 H 0.7819 0.2919 0.95056 0.0
H580 H 0.73311 0.449 0.87388 0.0
H581 H 0.69799 0.42781 0.90969 0.0
H582 H 0.77392 0.44576 0.74315 0.0
H583 H 0.81049 0.42559 0.74454 0.0
C584 C 0.84676 0.74338 0.63069 0.0
C585 C 0.87446 0.72604 0.5852 0.0
C586 C 0.89762 0.7758 0.48213 0.0
C587 C 0.8719 0.79349 0.54518 0.0
N588 N 0.82241 0.79508 0.68416 0.0
N589 N 0.92711 0.72592 0.46922 0.0
C590 C 0.8466 0.77753 0.62095 0.0
C591 C 0.8999 0.74218 0.50916 0.0
N592 N 0.81987 0.72705 0.67512 0.0
N593 N 0.92011 0.79118 0.39679 0.0
H594 H 0.92956 0.70114 0.47482 0.0
H595 H 0.94837 0.73715 0.43709 0.0
H596 H 0.921 0.81604 0.38375 0.0
H597 H 0.9368 0.77926 0.33049 0.0
H598 H 0.79786 0.73801 0.69583 0.0
H599 H 0.81848 0.70201 0.67649 0.0
H600 H 0.80567 0.78548 0.75786 0.0
H601 H 0.81995 0.81979 0.66875 0.0
C602 C 0.7807 0.12451 0.2833 0.0
C603 C 0.7948 0.1481 0.37981 0.0
C604 C 0.74109 0.16911 0.43707 0.0
C605 C 0.72708 0.14687 0.33477 0.0
N606 N 0.73367 0.10497 0.15045 0.0
N607 N 0.78881 0.19881 0.50797 0.0
C608 C 0.74699 0.12528 0.25401 0.0
C609 C 0.77508 0.17205 0.44534 0.0
N610 N 0.79894 0.10024 0.2248 0.0
N611 N 0.72215 0.18731 0.52852 0.0
H612 H 0.81354 0.20297 0.5082 0.0
H613 H 0.77561 0.21868 0.54317 0.0
H614 H 0.69718 0.18678 0.52607 0.0
H615 H 0.73129 0.20095 0.61661 0.0
H616 H 0.78926 0.07966 0.17576 0.0
H617 H 0.82381 0.09922 0.23111 0.0
H618 H 0.74706 0.09251 0.07123 0.0
H619 H 0.709 0.10147 0.13824 0.0
C620 C 0.17277 0.27667 0.74083 0.0
C621 C 0.14574 0.29576 0.70383 0.0
C622 C 0.11765 0.24814 0.60683 0.0
C623 C 0.14393 0.22882 0.65164 0.0
N624 N 0.19246 0.22349 0.79807 0.0
N625 N 0.08932 0.29832 0.64133 0.0
C626 C 0.17023 0.24267 0.73049 0.0
C627 C 0.11726 0.28112 0.64771 0.0
N628 N 0.20132 0.29085 0.77898 0.0
N629 N 0.09284 0.23499 0.52687 0.0
H630 H 0.0876 0.32198 0.67896 0.0
H631 H 0.06709 0.28819 0.61493 0.0
H632 H 0.091 0.21049 0.50315 0.0
H633 H 0.07501 0.2487 0.47615 0.0
H634 H 0.2227 0.27809 0.79011 0.0
H635 H 0.20443 0.31567 0.7865 0.0
H636 H 0.21033 0.23234 0.86878 0.0
H637 H 0.19111 0.19851 0.79628 0.0
C638 C 0.23962 0.90136 0.28922 0.0
C639 C 0.22394 0.87974 0.38941 0.0
C640 C 0.27624 0.85602 0.45427 0.0
C641 C 0.2917 0.87772 0.35576 0.0
N642 N 0.2895 0.92606 0.20948 0.0
N643 N 0.22674 0.83025 0.52924 0.0
C644 C 0.27375 0.9015 0.28004 0.0
C645 C 0.24212 0.85549 0.46239 0.0
N646 N 0.22231 0.92122 0.19829 0.0
N647 N 0.2941 0.83654 0.54447 0.0
H648 H 0.20184 0.82753 0.53052 0.0
H649 H 0.23851 0.80989 0.56818 0.0
H650 H 0.31906 0.8356 0.54161 0.0
H651 H 0.28443 0.8234 0.63217 0.0
H652 H 0.23232 0.93331 0.10818 0.0
H653 H 0.19761 0.92418 0.20203 0.0
H654 H 0.27818 0.94672 0.17093 0.0
H655 H 0.31447 0.92768 0.20278 0.0
C656 C 0.23925 0.09025 0.89724 0.0
C657 C 0.22779 0.11621 0.8089 0.0
C658 C 0.2831 0.13796 0.7948 0.0
C659 C 0.29376 0.11331 0.89166 0.0
N660 N 0.28234 0.06764 0.04665 0.0
N661 N 0.24044 0.16191 0.65052 0.0
C662 C 0.27192 0.08991 0.94594 0.0
C663 C 0.25018 0.13912 0.75034 0.0
N664 N 0.21952 0.06459 0.92498 0.0
N665 N 0.30403 0.16188 0.75455 0.0
H666 H 0.21669 0.16728 0.62621 0.0
H667 H 0.25616 0.17502 0.58419 0.0
H668 H 0.32841 0.16177 0.78151 0.0
H669 H 0.29719 0.18323 0.7038 0.0
H670 H 0.22711 0.04352 0.97612 0.0
H671 H 0.19626 0.06269 0.88241 0.0
H672 H 0.26702 0.05274 0.10675 0.0
H673 H 0.30644 0.06527 0.07706 0.0
C674 C 0.14882 0.77942 0.21153 0.0
C675 C 0.12132 0.79794 0.1731 0.0
C676 C 0.10235 0.75337 0.01671 0.0
C677 C 0.12643 0.73305 0.07778 0.0
N678 N 0.17192 0.72656 0.2428 0.0
N679 N 0.06867 0.7998 0.05911 0.0
C680 C 0.14921 0.74594 0.17965 0.0
C681 C 0.09715 0.7842 0.08096 0.0
N682 N 0.17567 0.79416 0.26761 0.0
N683 N 0.085 0.74388 0.89495 0.0
H684 H 0.0632 0.82173 0.10948 0.0
H685 H 0.04919 0.78929 0.0041 0.0
H686 H 0.08932 0.72247 0.83835 0.0
H687 H 0.06914 0.75905 0.83933 0.0
H688 H 0.19736 0.78227 0.28481 0.0
H689 H 0.17766 0.81901 0.27874 0.0
H690 H 0.18647 0.73402 0.33116 0.0
H691 H 0.17504 0.70251 0.21319 0.0
C692 C 0.73757 0.92658 0.8078 0.0
C693 C 0.72447 0.90098 0.8923 0.0
C694 C 0.77727 0.87459 0.89492 0.0
C695 C 0.78976 0.89905 0.8015 0.0
N696 N 0.77847 0.94279 0.63244 0.0
N697 N 0.72968 0.84584 0.97246 0.0
C698 C 0.7689 0.92332 0.74614 0.0
C699 C 0.74374 0.87364 0.92422 0.0
N700 N 0.72085 0.95459 0.79133 0.0
N701 N 0.79713 0.85171 0.95329 0.0
H702 H 0.7049 0.84319 0.98283 0.0
H703 H 0.74208 0.82426 0.98394 0.0
H704 H 0.82136 0.84966 0.92556 0.0
H705 H 0.78987 0.83585 0.03635 0.0
H706 H 0.73075 0.97512 0.74333 0.0
H707 H 0.69834 0.95845 0.83883 0.0
H708 H 0.76308 0.95888 0.57966 0.0
H709 H 0.80046 0.94022 0.57898 0.0
C710 C 0.87147 0.24698 0.20097 0.0
C711 C 0.90165 0.23102 0.19981 0.0
C712 C 0.92769 0.2803 0.11029 0.0
C713 C 0.89801 0.29682 0.12474 0.0
N714 N 0.84267 0.29757 0.2034 0.0
N715 N 0.95928 0.23327 0.17382 0.0
C716 C 0.87025 0.28067 0.17679 0.0
C717 C 0.93003 0.24785 0.15941 0.0
N718 N 0.84375 0.2296 0.21724 0.0
N719 N 0.95347 0.29552 0.0476 0.0
H720 H 0.96188 0.20957 0.20927 0.0
H721 H 0.98109 0.24531 0.16167 0.0
H722 H 0.95303 0.31967 0.01661 0.0
H723 H 0.97459 0.28378 0.01777 0.0
H724 H 0.82087 0.23926 0.20402 0.0
H725 H 0.8435 0.2047 0.22889 0.0
H726 H 0.82272 0.28787 0.25699 0.0
H727 H 0.84054 0.32213 0.18271 0.0
C728 C 0.23409 0.42164 0.30574 0.0
C729 C 0.22301 0.39672 0.39997 0.0
C730 C 0.27637 0.37156 0.39073 0.0
C731 C 0.28669 0.39539 0.28849 0.0
N732 N 0.27171 0.43679 0.11385 0.0
N733 N 0.23106 0.34332 0.49789 0.0
C734 C 0.26442 0.41846 0.23485 0.0
C735 C 0.24347 0.37036 0.43342 0.0
N736 N 0.21652 0.44911 0.28913 0.0
N737 N 0.29777 0.34964 0.44519 0.0
H738 H 0.20671 0.34065 0.52205 0.0
H739 H 0.24407 0.3222 0.51208 0.0
H740 H 0.32136 0.34772 0.40713 0.0
H741 H 0.29257 0.33445 0.53399 0.0
H742 H 0.2255 0.46948 0.2362 0.0
H743 H 0.19451 0.45287 0.34164 0.0
H744 H 0.25524 0.45211 0.06346 0.0
H745 H 0.29264 0.43369 0.05261 0.0
C746 C 0.42707 0.78369 0.66613 0.0
C747 C 0.40255 0.79326 0.56564 0.0
C748 C 0.38391 0.73694 0.55178 0.0
C749 C 0.406 0.72844 0.66604 0.0
N750 N 0.44288 0.74655 0.85812 0.0
N751 N 0.35376 0.77909 0.43156 0.0
C752 C 0.42578 0.75265 0.73147 0.0
C753 C 0.38008 0.76988 0.51218 0.0
N754 N 0.45259 0.8036 0.6941 0.0
N755 N 0.36576 0.71373 0.48308 0.0
H756 H 0.34931 0.80255 0.39859 0.0
H757 H 0.33451 0.76383 0.40796 0.0
H758 H 0.36446 0.69001 0.51939 0.0
H759 H 0.35305 0.71771 0.38476 0.0
H760 H 0.47263 0.7965 0.7555 0.0
H761 H 0.45567 0.82566 0.64115 0.0
H762 H 0.45513 0.76439 0.91737 0.0
H763 H 0.44191 0.72474 0.91375 0.0
C764 C 0.76127 0.64024 0.22326 0.0
C765 C 0.739 0.61645 0.27326 0.0
C766 C 0.78247 0.58859 0.40623 0.0
C767 C 0.80422 0.61296 0.36108 0.0
N768 N 0.81474 0.66351 0.24034 0.0
N769 N 0.7299 0.56388 0.37815 0.0
C770 C 0.79388 0.63885 0.27078 0.0
C771 C 0.74999 0.58952 0.35599 0.0
N772 N 0.7515 0.66416 0.12931 0.0
N773 N 0.79273 0.56508 0.50116 0.0
H774 H 0.7064 0.56299 0.33775 0.0
H775 H 0.73721 0.54214 0.42384 0.0
H776 H 0.81673 0.56258 0.53315 0.0
H777 H 0.77739 0.5491 0.55488 0.0
H778 H 0.7672 0.67885 0.07037 0.0
H779 H 0.72768 0.66874 0.10227 0.0
H780 H 0.80791 0.68543 0.19492 0.0
H781 H 0.83901 0.66315 0.26919 0.0
C782 C 0.64088 0.25083 0.4865 0.0
C783 C 0.61606 0.22907 0.53069 0.0
C784 C 0.58802 0.27334 0.65883 0.0
C785 C 0.61342 0.2945 0.61963 0.0
N786 N 0.66629 0.30296 0.51776 0.0
N787 N 0.5625 0.22117 0.62658 0.0
C788 C 0.6402 0.28326 0.53732 0.0
C789 C 0.58873 0.24072 0.60904 0.0
N790 N 0.66503 0.24092 0.39387 0.0
N791 N 0.5636 0.28436 0.74717 0.0
H792 H 0.56144 0.19772 0.58534 0.0
H793 H 0.5406 0.2288 0.66955 0.0
H794 H 0.56133 0.30845 0.77814 0.0
H795 H 0.54652 0.26957 0.79674 0.0
H796 H 0.68047 0.25665 0.33922 0.0
H797 H 0.66889 0.21723 0.36217 0.0
H798 H 0.68852 0.29505 0.47946 0.0
H799 H 0.66686 0.327 0.55109 0.0
loop_
_geom_bond_atom_site_label_1
_geom_bond_atom_site_label_2
_geom_bond_distance
_geom_bond_site_symmetry_2
_ccdc_geom_bond_type
C0 O2 1.247 . S
C0 O4 1.258 . S
C1 O8 1.247 . S
C1 O9 1.258 . S
O2 C0 1.247 . S
O2 Zn3 2.028 1_554 S
Zn3 O2 2.028 1_556 S
Zn3 O7 2.035 1_556 S
Zn3 O9 2.035 1_556 S
Zn3 O10 2.028 . S
O4 C0 1.258 . S
O4 Zn5 2.035 . S
Zn5 O4 2.035 . S
Zn5 O6 2.028 . S
Zn5 O8 2.028 . S
Zn5 O11 2.035 . S
O6 Zn5 2.028 . S
O6 C12 1.247 . S
O7 Zn3 2.035 1_554 S
O7 C12 1.258 . S
O8 C1 1.247 . S
O8 Zn5 2.028 . S
O9 C1 1.258 . S
O9 Zn3 2.035 1_554 S
O10 Zn3 2.028 . S
O10 C13 1.247 1_556 S
O11 Zn5 2.035 . S
O11 C13 1.258 . S
C12 O6 1.247 . S
C12 O7 1.258 . S
C13 O10 1.247 1_554 S
C13 O11 1.258 . S
C14 O16 1.247 . S
C14 O18 1.258 . S
C15 O22 1.247 . S
C15 O23 1.258 1_556 S
O16 C14 1.247 . S
O16 Zn17 2.028 1_556 S
Zn17 O16 2.028 1_554 S
Zn17 O21 2.035 1_554 S
Zn17 O23 2.035 . S
Zn17 O24 2.028 1_554 S
O18 C14 1.258 . S
O18 Zn19 2.035 . S
Zn19 O18 2.035 . S
Zn19 O20 2.028 . S
Zn19 O22 2.028 . S
Zn19 O25 2.035 . S
O20 Zn19 2.028 . S
O20 C26 1.247 . S
O21 Zn17 2.035 1_556 S
O21 C26 1.258 . S
O22 C15 1.247 . S
O22 Zn19 2.028 . S
O23 C15 1.258 1_554 S
O23 Zn17 2.035 . S
O24 Zn17 2.028 1_556 S
O24 C27 1.247 . S
O25 Zn19 2.035 . S
O25 C27 1.258 . S
C26 O20 1.247 . S
C26 O21 1.258 . S
C27 O24 1.247 . S
C27 O25 1.258 . S
C28 O30 1.247 . S
C28 O32 1.258 . S
C29 O36 1.247 1_554 S
C29 O37 1.258 . S
O30 C28 1.247 . S
O30 Zn31 2.028 . S
Zn31 O30 2.028 . S
Zn31 O35 2.035 . S
Zn31 O37 2.035 . S
Zn31 O38 2.028 . S
O32 C28 1.258 . S
O32 Zn33 2.035 1_554 S
Zn33 O32 2.035 1_556 S
Zn33 O34 2.028 1_556 S
Zn33 O36 2.028 . S
Zn33 O39 2.035 1_556 S
O34 Zn33 2.028 1_554 S
O34 C40 1.247 . S
O35 Zn31 2.035 . S
O35 C40 1.258 . S
O36 C29 1.247 1_556 S
O36 Zn33 2.028 . S
O37 C29 1.258 . S
O37 Zn31 2.035 . S
O38 Zn31 2.028 . S
O38 C41 1.247 . S
O39 Zn33 2.035 1_554 S
O39 C41 1.258 . S
C40 O34 1.247 . S
C40 O35 1.258 . S
C41 O38 1.247 . S
C41 O39 1.258 . S
C42 O44 1.247 . S
C42 O46 1.258 . S
C43 O50 1.247 . S
C43 O51 1.258 1_556 S
O44 C42 1.247 . S
O44 Zn45 2.028 1_556 S
Zn45 O44 2.028 1_554 S
Zn45 O49 2.035 1_554 S
Zn45 O51 2.035 . S
Zn45 O52 2.028 1_554 S
O46 C42 1.258 . S
O46 Zn47 2.035 . S
Zn47 O46 2.035 . S
Zn47 O48 2.028 . S
Zn47 O50 2.028 . S
Zn47 O53 2.035 . S
O48 Zn47 2.028 . S
O48 C54 1.247 . S
O49 Zn45 2.035 1_556 S
O49 C54 1.258 . S
O50 C43 1.247 . S
O50 Zn47 2.028 . S
O51 C43 1.258 1_554 S
O51 Zn45 2.035 . S
O52 Zn45 2.028 1_556 S
O52 C55 1.247 . S
O53 Zn47 2.035 . S
O53 C55 1.258 . S
C54 O48 1.247 . S
C54 O49 1.258 . S
C55 O52 1.247 . S
C55 O53 1.258 . S
C56 O58 1.247 1_554 S
C56 O60 1.258 . S
C57 O64 1.247 . S
C57 O65 1.258 . S
O58 C56 1.247 1_556 S
O58 Zn59 2.028 . S
Zn59 O58 2.028 . S
Zn59 O63 2.035 1_556 S
Zn59 O65 2.035 1_556 S
Zn59 O66 2.028 . S
O60 C56 1.258 . S
O60 Zn61 2.035 . S
Zn61 O60 2.035 . S
Zn61 O62 2.028 . S
Zn61 O64 2.028 . S
Zn61 O67 2.035 . S
O62 Zn61 2.028 . S
O62 C68 1.247 . S
O63 Zn59 2.035 1_554 S
O63 C68 1.258 . S
O64 C57 1.247 . S
O64 Zn61 2.028 . S
O65 C57 1.258 . S
O65 Zn59 2.035 1_554 S
O66 Zn59 2.028 . S
O66 C69 1.247 1_556 S
O67 Zn61 2.035 . S
O67 C69 1.258 . S
C68 O62 1.247 . S
C68 O63 1.258 . S
C69 O66 1.247 1_554 S
C69 O67 1.258 . S
C70 O72 1.247 . S
C70 O74 1.258 1_556 S
C71 O78 1.247 . S
C71 O79 1.258 . S
O72 C70 1.247 . S
O72 Zn73 2.028 . S
Zn73 O72 2.028 . S
Zn73 O77 2.035 . S
Zn73 O79 2.035 . S
Zn73 O80 2.028 . S
O74 C70 1.258 1_554 S
O74 Zn75 2.035 . S
Zn75 O74 2.035 . S
Zn75 O76 2.028 1_554 S
Zn75 O78 2.028 1_554 S
Zn75 O81 2.035 . S
O76 Zn75 2.028 1_556 S
O76 C82 1.247 . S
O77 Zn73 2.035 . S
O77 C82 1.258 . S
O78 C71 1.247 . S
O78 Zn75 2.028 1_556 S
O79 C71 1.258 . S
O79 Zn73 2.035 . S
O80 Zn73 2.028 . S
O80 C83 1.247 . S
O81 Zn75 2.035 . S
O81 C83 1.258 1_554 S
C82 O76 1.247 . S
C82 O77 1.258 . S
C83 O80 1.247 . S
C83 O81 1.258 1_556 S
C84 O86 1.247 . S
C84 O88 1.258 . S
C85 O92 1.247 . S
C85 O93 1.258 1_554 S
O86 C84 1.247 . S
O86 Zn87 2.028 1_554 S
Zn87 O86 2.028 1_556 S
Zn87 O91 2.035 . S
Zn87 O93 2.035 . S
Zn87 O94 2.028 1_556 S
O88 C84 1.258 . S
O88 Zn89 2.035 . S
Zn89 O88 2.035 . S
Zn89 O90 2.028 . S
Zn89 O92 2.028 . S
Zn89 O95 2.035 . S
O90 Zn89 2.028 . S
O90 C96 1.247 . S
O91 Zn87 2.035 . S
O91 C96 1.258 1_556 S
O92 C85 1.247 . S
O92 Zn89 2.028 . S
O93 C85 1.258 1_556 S
O93 Zn87 2.035 . S
O94 Zn87 2.028 1_554 S
O94 C97 1.247 . S
O95 Zn89 2.035 . S
O95 C97 1.258 . S
C96 O90 1.247 . S
C96 O91 1.258 1_554 S
C97 O94 1.247 . S
C97 O95 1.258 . S
C98 O100 1.247 . S
C98 O102 1.258 1_556 S
C99 O106 1.247 . S
C99 O107 1.258 . S
O100 C98 1.247 . S
O100 Zn101 2.028 . S
Zn101 O100 2.028 . S
Zn101 O105 2.035 . S
Zn101 O107 2.035 . S
Zn101 O108 2.028 . S
O102 C98 1.258 1_554 S
O102 Zn103 2.035 . S
Zn103 O102 2.035 . S
Zn103 O104 2.028 1_554 S
Zn103 O106 2.028 1_554 S
Zn103 O109 2.035 . S
O104 Zn103 2.028 1_556 S
O104 C110 1.247 . S
O105 Zn101 2.035 . S
O105 C110 1.258 . S
O106 C99 1.247 . S
O106 Zn103 2.028 1_556 S
O107 C99 1.258 . S
O107 Zn101 2.035 . S
O108 Zn101 2.028 . S
O108 C111 1.247 . S
O109 Zn103 2.035 . S
O109 C111 1.258 1_554 S
C110 O104 1.247 . S
C110 O105 1.258 . S
C111 O108 1.247 . S
C111 O109 1.258 1_556 S
C112 O114 1.247 . S
C112 O116 1.258 . S
C113 O120 1.247 . S
C113 O121 1.258 . S
O114 C112 1.247 . S
O114 Zn115 2.028 . S
Zn115 O114 2.028 . S
Zn115 O119 2.035 . S
Zn115 O121 2.035 . S
Zn115 O122 2.028 . S
O116 C112 1.258 . S
O116 Zn117 2.035 . S
Zn117 O116 2.035 . S
Zn117 O118 2.028 . S
Zn117 O120 2.028 . S
Zn117 O123 2.035 . S
O118 Zn117 2.028 . S
O118 C124 1.247 . S
O119 Zn115 2.035 . S
O119 C124 1.258 . S
O120 C113 1.247 . S
O120 Zn117 2.028 . S
O121 C113 1.258 . S
O121 Zn115 2.035 . S
O122 Zn115 2.028 . S
O122 C125 1.247 . S
O123 Zn117 2.035 . S
O123 C125 1.258 . S
C124 O118 1.247 . S
C124 O119 1.258 . S
C125 O122 1.247 . S
C125 O123 1.258 . S
C126 O128 1.247 . S
C126 O130 1.258 . S
C127 O134 1.247 . S
C127 O135 1.258 . S
O128 C126 1.247 . S
O128 Zn129 2.028 . S
Zn129 O128 2.028 . S
Zn129 O133 2.035 . S
Zn129 O135 2.035 . S
Zn129 O136 2.028 . S
O130 C126 1.258 . S
O130 Zn131 2.035 . S
Zn131 O130 2.035 . S
Zn131 O132 2.028 . S
Zn131 O134 2.028 . S
Zn131 O137 2.035 . S
O132 Zn131 2.028 . S
O132 C138 1.247 . S
O133 Zn129 2.035 . S
O133 C138 1.258 . S
O134 C127 1.247 . S
O134 Zn131 2.028 . S
O135 C127 1.258 . S
O135 Zn129 2.035 . S
O136 Zn129 2.028 . S
O136 C139 1.247 . S
O137 Zn131 2.035 . S
O137 C139 1.258 . S
C138 O132 1.247 . S
C138 O133 1.258 . S
C139 O136 1.247 . S
C139 O137 1.258 . S
C140 O142 1.247 . S
C140 O144 1.258 . S
C141 O148 1.247 . S
C141 O149 1.258 . S
O142 C140 1.247 . S
O142 Zn143 2.028 . S
Zn143 O142 2.028 . S
Zn143 O147 2.035 . S
Zn143 O149 2.035 . S
Zn143 O150 2.028 . S
O144 C140 1.258 . S
O144 Zn145 2.035 . S
Zn145 O144 2.035 . S
Zn145 O146 2.028 . S
Zn145 O148 2.028 . S
Zn145 O151 2.035 . S
O146 Zn145 2.028 . S
O146 C152 1.247 . S
O147 Zn143 2.035 . S
O147 C152 1.258 . S
O148 C141 1.247 . S
O148 Zn145 2.028 . S
O149 C141 1.258 . S
O149 Zn143 2.035 . S
O150 Zn143 2.028 . S
O150 C153 1.247 . S
O151 Zn145 2.035 . S
O151 C153 1.258 . S
C152 O146 1.247 . S
C152 O147 1.258 . S
C153 O150 1.247 . S
C153 O151 1.258 . S
C154 O156 1.247 . S
C154 O158 1.258 . S
C155 O162 1.247 . S
C155 O163 1.258 . S
O156 C154 1.247 . S
O156 Zn157 2.028 . S
Zn157 O156 2.028 . S
Zn157 O161 2.035 . S
Zn157 O163 2.035 . S
Zn157 O164 2.028 . S
O158 C154 1.258 . S
O158 Zn159 2.035 . S
Zn159 O158 2.035 . S
Zn159 O160 2.028 . S
Zn159 O162 2.028 . S
Zn159 O165 2.035 . S
O160 Zn159 2.028 . S
O160 C166 1.247 . S
O161 Zn157 2.035 . S
O161 C166 1.258 . S
O162 C155 1.247 . S
O162 Zn159 2.028 . S
O163 C155 1.258 . S
O163 Zn157 2.035 . S
O164 Zn157 2.028 . S
O164 C167 1.247 . S
O165 Zn159 2.035 . S
O165 C167 1.258 . S
C166 O160 1.247 . S
C166 O161 1.258 . S
C167 O164 1.247 . S
C167 O165 1.258 . S
C168 O170 1.247 . S
C168 O172 1.258 . S
C169 O176 1.247 . S
C169 O177 1.258 . S
O170 C168 1.247 . S
O170 Zn171 2.028 . S
Zn171 O170 2.028 . S
Zn171 O175 2.035 . S
Zn171 O177 2.035 . S
Zn171 O178 2.028 . S
O172 C168 1.258 . S
O172 Zn173 2.035 . S
Zn173 O172 2.035 . S
Zn173 O174 2.028 . S
Zn173 O176 2.028 . S
Zn173 O179 2.035 . S
O174 Zn173 2.028 . S
O174 C180 1.247 . S
O175 Zn171 2.035 . S
O175 C180 1.258 . S
O176 C169 1.247 . S
O176 Zn173 2.028 . S
O177 C169 1.258 . S
O177 Zn171 2.035 . S
O178 Zn171 2.028 . S
O178 C181 1.247 . S
O179 Zn173 2.035 . S
O179 C181 1.258 . S
C180 O174 1.247 . S
C180 O175 1.258 . S
C181 O178 1.247 . S
C181 O179 1.258 . S
C182 O184 1.247 . S
C182 O186 1.258 . S
C183 O190 1.247 . S
C183 O191 1.258 . S
O184 C182 1.247 . S
O184 Zn185 2.028 . S
Zn185 O184 2.028 . S
Zn185 O189 2.035 . S
Zn185 O191 2.035 . S
Zn185 O192 2.028 . S
O186 C182 1.258 . S
O186 Zn187 2.035 . S
Zn187 O186 2.035 . S
Zn187 O188 2.028 . S
Zn187 O190 2.028 . S
Zn187 O193 2.035 . S
O188 Zn187 2.028 . S
O188 C194 1.247 . S
O189 Zn185 2.035 . S
O189 C194 1.258 . S
O190 C183 1.247 . S
O190 Zn187 2.028 . S
O191 C183 1.258 . S
O191 Zn185 2.035 . S
O192 Zn185 2.028 . S
O192 C195 1.247 . S
O193 Zn187 2.035 . S
O193 C195 1.258 . S
C194 O188 1.247 . S
C194 O189 1.258 . S
C195 O192 1.247 . S
C195 O193 1.258 . S
C196 O198 1.247 . S
C196 O200 1.258 . S
C197 O204 1.247 . S
C197 O205 1.258 . S
O198 C196 1.247 . S
O198 Zn199 2.028 . S
Zn199 O198 2.028 . S
Zn199 O203 2.035 . S
Zn199 O205 2.035 . S
Zn199 O206 2.028 . S
O200 C196 1.258 . S
O200 Zn201 2.035 . S
Zn201 O200 2.035 . S
Zn201 O202 2.028 . S
Zn201 O204 2.028 . S
Zn201 O207 2.035 . S
O202 Zn201 2.028 . S
O202 C208 1.247 . S
O203 Zn199 2.035 . S
O203 C208 1.258 . S
O204 C197 1.247 . S
O204 Zn201 2.028 . S
O205 C197 1.258 . S
O205 Zn199 2.035 . S
O206 Zn199 2.028 . S
O206 C209 1.247 . S
O207 Zn201 2.035 . S
O207 C209 1.258 . S
C208 O202 1.247 . S
C208 O203 1.258 . S
C209 O206 1.247 . S
C209 O207 1.258 . S
C210 O212 1.247 . S
C210 O214 1.258 . S
C211 O218 1.247 . S
C211 O219 1.258 . S
O212 C210 1.247 . S
O212 Zn213 2.028 . S
Zn213 O212 2.028 . S
Zn213 O217 2.035 . S
Zn213 O219 2.035 . S
Zn213 O220 2.028 . S
O214 C210 1.258 . S
O214 Zn215 2.035 . S
Zn215 O214 2.035 . S
Zn215 O216 2.028 . S
Zn215 O218 2.028 . S
Zn215 O221 2.035 . S
O216 Zn215 2.028 . S
O216 C222 1.247 . S
O217 Zn213 2.035 . S
O217 C222 1.258 . S
O218 C211 1.247 . S
O218 Zn215 2.028 . S
O219 C211 1.258 . S
O219 Zn213 2.035 . S
O220 Zn213 2.028 . S
O220 C223 1.247 . S
O221 Zn215 2.035 . S
O221 C223 1.258 . S
C222 O216 1.247 . S
C222 O217 1.258 . S
C223 O220 1.247 . S
C223 O221 1.258 . S
C224 C225 1.363 . S
C224 C230 1.379 1_565 S
C224 N232 1.356 . S
C225 C224 1.363 . S
C225 C231 1.363 . S
C226 C227 1.363 . S
C226 C231 1.379 1_545 S
C226 N233 1.356 . S
C227 C226 1.363 . S
C227 C230 1.363 . S
N228 C230 1.356 . S
N228 H240 0.984 1_554 S
N228 H241 0.985 . S
N229 C231 1.356 . S
N229 H234 0.984 . S
N229 H235 0.985 . S
C230 C224 1.379 1_545 S
C230 C227 1.363 . S
C230 N228 1.356 . S
C231 C225 1.363 . S
C231 C226 1.379 1_565 S
C231 N229 1.356 . S
N232 C224 1.356 . S
N232 H238 0.984 1_554 S
N232 H239 0.984 . S
N233 C226 1.356 . S
N233 H236 0.984 . S
N233 H237 0.985 . S
H234 N229 0.984 . S
H235 N229 0.985 . S
H236 N233 0.984 . S
H237 N233 0.985 . S
H238 N232 0.984 1_556 S
H239 N232 0.984 . S
H240 N228 0.984 1_556 S
H241 N228 0.985 . S
C242 C243 1.363 . S
C242 C248 1.379 1_455 S
C242 N250 1.356 . S
C243 C242 1.363 . S
C243 C249 1.363 . S
C244 C245 1.363 . S
C244 C249 1.379 1_655 S
C244 N251 1.356 . S
C245 C244 1.363 . S
C245 C248 1.363 . S
N246 C248 1.356 . S
N246 H258 0.984 . S
N246 H259 0.985 . S
N247 C249 1.356 . S
N247 H252 0.984 . S
N247 H253 0.985 . S
C248 C242 1.379 1_655 S
C248 C245 1.363 . S
C248 N246 1.356 . S
C249 C243 1.363 . S
C249 C244 1.379 1_455 S
C249 N247 1.356 . S
N250 C242 1.356 . S
N250 H256 0.984 . S
N250 H257 0.984 . S
N251 C244 1.356 . S
N251 H254 0.984 . S
N251 H255 0.985 . S
H252 N247 0.984 . S
H253 N247 0.985 . S
H254 N251 0.984 . S
H255 N251 0.985 . S
H256 N250 0.984 . S
H257 N250 0.984 . S
H258 N246 0.984 . S
H259 N246 0.985 . S
C260 C261 1.363 . S
C260 C266 1.379 1_565 S
C260 N268 1.356 . S
C261 C260 1.363 . S
C261 C267 1.363 . S
C262 C263 1.363 . S
C262 C267 1.379 1_545 S
C262 N269 1.356 . S
C263 C262 1.363 . S
C263 C266 1.363 . S
N264 C266 1.356 . S
N264 H276 0.984 1_554 S
N264 H277 0.985 . S
N265 C267 1.356 . S
N265 H270 0.984 . S
N265 H271 0.985 . S
C266 C260 1.379 1_545 S
C266 C263 1.363 . S
C266 N264 1.356 . S
C267 C261 1.363 . S
C267 C262 1.379 1_565 S
C267 N265 1.356 . S
N268 C260 1.356 . S
N268 H274 0.984 1_554 S
N268 H275 0.984 . S
N269 C262 1.356 . S
N269 H272 0.984 . S
N269 H273 0.985 . S
H270 N265 0.984 . S
H271 N265 0.985 . S
H272 N269 0.984 . S
H273 N269 0.985 . S
H274 N268 0.984 1_556 S
H275 N268 0.984 . S
H276 N264 0.984 1_556 S
H277 N264 0.985 . S
C278 C279 1.363 . S
C278 C284 1.379 1_455 S
C278 N286 1.356 . S
C279 C278 1.363 . S
C279 C285 1.363 . S
C280 C281 1.363 . S
C280 C285 1.379 1_655 S
C280 N287 1.356 . S
C281 C280 1.363 . S
C281 C284 1.363 . S
N282 C284 1.356 . S
N282 H294 0.984 1_556 S
N282 H295 0.985 . S
N283 C285 1.356 . S
N283 H288 0.984 . S
N283 H289 0.985 . S
C284 C278 1.379 1_655 S
C284 C281 1.363 . S
C284 N282 1.356 . S
C285 C279 1.363 . S
C285 C280 1.379 1_455 S
C285 N283 1.356 . S
N286 C278 1.356 . S
N286 H292 0.984 1_556 S
N286 H293 0.984 . S
N287 C280 1.356 . S
N287 H290 0.984 . S
N287 H291 0.985 . S
H288 N283 0.984 . S
H289 N283 0.985 . S
H290 N287 0.984 . S
H291 N287 0.985 . S
H292 N286 0.984 1_554 S
H293 N286 0.984 . S
H294 N282 0.984 1_554 S
H295 N282 0.985 . S
C296 C297 1.363 1_556 S
C296 C302 1.379 . S
C296 N304 1.356 . S
C297 C296 1.363 1_554 S
C297 C303 1.363 . S
C298 C299 1.363 . S
C298 C303 1.379 . S
C298 N305 1.356 . S
C299 C298 1.363 . S
C299 C302 1.363 1_554 S
N300 C302 1.356 . S
N300 H312 0.984 . S
N300 H313 0.985 . S
N301 C303 1.356 . S
N301 H306 0.984 . S
N301 H307 0.985 . S
C302 C296 1.379 . S
C302 C299 1.363 1_556 S
C302 N300 1.356 . S
C303 C297 1.363 . S
C303 C298 1.379 . S
C303 N301 1.356 . S
N304 C296 1.356 . S
N304 H310 0.984 . S
N304 H311 0.984 . S
N305 C298 1.356 . S
N305 H308 0.984 . S
N305 H309 0.985 . S
H306 N301 0.984 . S
H307 N301 0.985 . S
H308 N305 0.984 . S
H309 N305 0.985 . S
H310 N304 0.984 . S
H311 N304 0.984 . S
H312 N300 0.984 . S
H313 N300 0.985 . S
C314 C315 1.363 . S
C314 C320 1.379 . S
C314 N322 1.356 . S
C315 C314 1.363 . S
C315 C321 1.363 . S
C316 C317 1.363 . S
C316 C321 1.379 . S
C316 N323 1.356 . S
C317 C316 1.363 . S
C317 C320 1.363 . S
N318 C320 1.356 1_554 S
N318 H330 0.984 . S
N318 H331 0.985 . S
N319 C321 1.356 . S
N319 H324 0.984 . S
N319 H325 0.985 . S
C320 C314 1.379 . S
C320 C317 1.363 . S
C320 N318 1.356 1_556 S
C321 C315 1.363 . S
C321 C316 1.379 . S
C321 N319 1.356 . S
N322 C314 1.356 . S
N322 H328 0.984 1_556 S
N322 H329 0.984 . S
N323 C316 1.356 . S
N323 H326 0.984 . S
N323 H327 0.985 . S
H324 N319 0.984 . S
H325 N319 0.985 . S
H326 N323 0.984 . S
H327 N323 0.985 . S
H328 N322 0.984 1_554 S
H329 N322 0.984 . S
H330 N318 0.984 . S
H331 N318 0.985 . S
C332 C333 1.363 . S
C332 C338 1.379 . S
C332 N340 1.356 . S
C333 C332 1.363 . S
C333 C339 1.363 1_554 S
C334 C335 1.363 1_556 S
C334 C339 1.379 . S
C334 N341 1.356 . S
C335 C334 1.363 1_554 S
C335 C338 1.363 . S
N336 C338 1.356 . S
N336 H348 0.984 . S
N336 H349 0.985 . S
N337 C339 1.356 . S
N337 H342 0.984 . S
N337 H343 0.985 . S
C338 C332 1.379 . S
C338 C335 1.363 . S
C338 N336 1.356 . S
C339 C333 1.363 1_556 S
C339 C334 1.379 . S
C339 N337 1.356 . S
N340 C332 1.356 . S
N340 H346 0.984 . S
N340 H347 0.984 . S
N341 C334 1.356 . S
N341 H344 0.984 . S
N341 H345 0.985 . S
H342 N337 0.984 . S
H343 N337 0.985 . S
H344 N341 0.984 . S
H345 N341 0.985 . S
H346 N340 0.984 . S
H347 N340 0.984 . S
H348 N336 0.984 . S
H349 N336 0.985 . S
C350 C351 1.363 1_554 S
C350 C356 1.379 . S
C350 N358 1.356 . S
C351 C350 1.363 1_556 S
C351 C357 1.363 . S
C352 C353 1.363 . S
C352 C357 1.379 . S
C352 N359 1.356 . S
C353 C352 1.363 . S
C353 C356 1.363 1_556 S
N354 C356 1.356 . S
N354 H366 0.984 . S
N354 H367 0.985 . S
N355 C357 1.356 . S
N355 H360 0.984 . S
N355 H361 0.985 . S
C356 C350 1.379 . S
C356 C353 1.363 1_554 S
C356 N354 1.356 . S
C357 C351 1.363 . S
C357 C352 1.379 . S
C357 N355 1.356 . S
N358 C350 1.356 . S
N358 H364 0.984 . S
N358 H365 0.984 . S
N359 C352 1.356 . S
N359 H362 0.984 . S
N359 H363 0.985 . S
H360 N355 0.984 . S
H361 N355 0.985 . S
H362 N359 0.984 . S
H363 N359 0.985 . S
H364 N358 0.984 . S
H365 N358 0.984 . S
H366 N354 0.984 . S
H367 N354 0.985 . S
C368 C369 1.363 . S
C368 C374 1.379 . S
C368 N376 1.356 . S
C369 C368 1.363 . S
C369 C375 1.363 . S
C370 C371 1.363 . S
C370 C375 1.379 . S
C370 N377 1.356 . S
C371 C370 1.363 . S
C371 C374 1.363 . S
N372 C374 1.356 . S
N372 H384 0.984 . S
N372 H385 0.985 . S
N373 C375 1.356 . S
N373 H378 0.984 . S
N373 H379 0.985 1_556 S
C374 C368 1.379 . S
C374 C371 1.363 . S
C374 N372 1.356 . S
C375 C369 1.363 . S
C375 C370 1.379 . S
C375 N373 1.356 . S
N376 C368 1.356 . S
N376 H382 0.984 . S
N376 H383 0.984 . S
N377 C370 1.356 . S
N377 H380 0.984 . S
N377 H381 0.985 . S
H378 N373 0.984 . S
H379 N373 0.985 1_554 S
H380 N377 0.984 . S
H381 N377 0.985 . S
H382 N376 0.984 . S
H383 N376 0.984 . S
H384 N372 0.984 . S
H385 N372 0.985 . S
C386 C387 1.363 . S
C386 C392 1.379 . S
C386 N394 1.356 . S
C387 C386 1.363 . S
C387 C393 1.363 . S
C388 C389 1.363 . S
C388 C393 1.379 . S
C388 N395 1.356 . S
C389 C388 1.363 . S
C389 C392 1.363 . S
N390 C392 1.356 . S
N390 H402 0.984 . S
N390 H403 0.985 . S
N391 C393 1.356 . S
N391 H396 0.984 . S
N391 H397 0.985 . S
C392 C386 1.379 . S
C392 C389 1.363 . S
C392 N390 1.356 . S
C393 C387 1.363 . S
C393 C388 1.379 . S
C393 N391 1.356 . S
N394 C386 1.356 . S
N394 H400 0.984 . S
N394 H401 0.984 . S
N395 C388 1.356 . S
N395 H398 0.984 . S
N395 H399 0.985 . S
H396 N391 0.984 . S
H397 N391 0.985 . S
H398 N395 0.984 . S
H399 N395 0.985 . S
H400 N394 0.984 . S
H401 N394 0.984 . S
H402 N390 0.984 . S
H403 N390 0.985 . S
C404 C405 1.363 . S
C404 C410 1.379 . S
C404 N412 1.356 . S
C405 C404 1.363 . S
C405 C411 1.363 . S
C406 C407 1.363 . S
C406 C411 1.379 . S
C406 N413 1.356 . S
C407 C406 1.363 . S
C407 C410 1.363 . S
N408 C410 1.356 . S
N408 H420 0.984 . S
N408 H421 0.985 . S
N409 C411 1.356 . S
N409 H414 0.984 . S
N409 H415 0.985 . S
C410 C404 1.379 . S
C410 C407 1.363 . S
C410 N408 1.356 . S
C411 C405 1.363 . S
C411 C406 1.379 . S
C411 N409 1.356 . S
N412 C404 1.356 . S
N412 H418 0.984 1_556 S
N412 H419 0.984 . S
N413 C406 1.356 . S
N413 H416 0.984 . S
N413 H417 0.985 . S
H414 N409 0.984 . S
H415 N409 0.985 . S
H416 N413 0.984 . S
H417 N413 0.985 . S
H418 N412 0.984 1_554 S
H419 N412 0.984 . S
H420 N408 0.984 . S
H421 N408 0.985 . S
C422 C423 1.363 . S
C422 C428 1.379 . S
C422 N430 1.356 . S
C423 C422 1.363 . S
C423 C429 1.363 . S
C424 C425 1.363 . S
C424 C429 1.379 . S
C424 N431 1.356 . S
C425 C424 1.363 . S
C425 C428 1.363 . S
N426 C428 1.356 . S
N426 H438 0.984 . S
N426 H439 0.985 . S
N427 C429 1.356 . S
N427 H432 0.984 . S
N427 H433 0.985 1_554 S
C428 C422 1.379 . S
C428 C425 1.363 . S
C428 N426 1.356 . S
C429 C423 1.363 . S
C429 C424 1.379 . S
C429 N427 1.356 . S
N430 C422 1.356 . S
N430 H436 0.984 . S
N430 H437 0.984 . S
N431 C424 1.356 . S
N431 H434 0.984 . S
N431 H435 0.985 1_554 S
H432 N427 0.984 . S
H433 N427 0.985 1_556 S
H434 N431 0.984 . S
H435 N431 0.985 1_556 S
H436 N430 0.984 . S
H437 N430 0.984 . S
H438 N426 0.984 . S
H439 N426 0.985 . S
C440 C441 1.363 . S
C440 C446 1.379 1_565 S
C440 N448 1.356 . S
C441 C440 1.363 . S
C441 C447 1.363 . S
C442 C443 1.363 . S
C442 C447 1.379 1_545 S
C442 N449 1.356 . S
C443 C442 1.363 . S
C443 C446 1.363 . S
N444 C446 1.356 . S
N444 H456 0.984 . S
N444 H457 0.985 . S
N445 C447 1.356 . S
N445 H450 0.984 . S
N445 H451 0.985 . S
C446 C440 1.379 1_545 S
C446 C443 1.363 . S
C446 N444 1.356 . S
C447 C441 1.363 . S
C447 C442 1.379 1_565 S
C447 N445 1.356 . S
N448 C440 1.356 . S
N448 H454 0.984 . S
N448 H455 0.984 . S
N449 C442 1.356 . S
N449 H452 0.984 . S
N449 H453 0.985 . S
H450 N445 0.984 . S
H451 N445 0.985 . S
H452 N449 0.984 . S
H453 N449 0.985 . S
H454 N448 0.984 . S
H455 N448 0.984 . S
H456 N444 0.984 . S
H457 N444 0.985 . S
C458 C459 1.363 . S
C458 C464 1.379 1_655 S
C458 N466 1.356 . S
C459 C458 1.363 . S
C459 C465 1.363 . S
C460 C461 1.363 . S
C460 C465 1.379 1_455 S
C460 N467 1.356 . S
C461 C460 1.363 . S
C461 C464 1.363 . S
N462 C464 1.356 . S
N462 H474 0.984 . S
N462 H475 0.985 . S
N463 C465 1.356 . S
N463 H468 0.984 . S
N463 H469 0.985 . S
C464 C458 1.379 1_455 S
C464 C461 1.363 . S
C464 N462 1.356 . S
C465 C459 1.363 . S
C465 C460 1.379 1_655 S
C465 N463 1.356 . S
N466 C458 1.356 . S
N466 H472 0.984 . S
N466 H473 0.984 . S
N467 C460 1.356 . S
N467 H470 0.984 . S
N467 H471 0.985 . S
H468 N463 0.984 . S
H469 N463 0.985 . S
H470 N467 0.984 . S
H471 N467 0.985 . S
H472 N466 0.984 . S
H473 N466 0.984 . S
H474 N462 0.984 . S
H475 N462 0.985 . S
C476 C477 1.363 . S
C476 C482 1.379 1_565 S
C476 N484 1.356 . S
C477 C476 1.363 . S
C477 C483 1.363 . S
C478 C479 1.363 . S
C478 C483 1.379 1_545 S
C478 N485 1.356 . S
C479 C478 1.363 . S
C479 C482 1.363 . S
N480 C482 1.356 . S
N480 H492 0.984 . S
N480 H493 0.985 . S
N481 C483 1.356 . S
N481 H486 0.984 . S
N481 H487 0.985 . S
C482 C476 1.379 1_545 S
C482 C479 1.363 . S
C482 N480 1.356 . S
C483 C477 1.363 . S
C483 C478 1.379 1_565 S
C483 N481 1.356 . S
N484 C476 1.356 . S
N484 H490 0.984 . S
N484 H491 0.984 . S
N485 C478 1.356 . S
N485 H488 0.984 . S
N485 H489 0.985 . S
H486 N481 0.984 . S
H487 N481 0.985 . S
H488 N485 0.984 . S
H489 N485 0.985 . S
H490 N484 0.984 . S
H491 N484 0.984 . S
H492 N480 0.984 . S
H493 N480 0.985 . S
C494 C495 1.363 . S
C494 C500 1.379 1_655 S
C494 N502 1.356 . S
C495 C494 1.363 . S
C495 C501 1.363 . S
C496 C497 1.363 . S
C496 C501 1.379 1_455 S
C496 N503 1.356 . S
C497 C496 1.363 . S
C497 C500 1.363 . S
N498 C500 1.356 . S
N498 H510 0.984 . S
N498 H511 0.985 . S
N499 C501 1.356 . S
N499 H504 0.984 . S
N499 H505 0.985 . S
C500 C494 1.379 1_455 S
C500 C497 1.363 . S
C500 N498 1.356 . S
C501 C495 1.363 . S
C501 C496 1.379 1_655 S
C501 N499 1.356 . S
N502 C494 1.356 . S
N502 H508 0.984 . S
N502 H509 0.984 . S
N503 C496 1.356 . S
N503 H506 0.984 . S
N503 H507 0.985 . S
H504 N499 0.984 . S
H505 N499 0.985 . S
H506 N503 0.984 . S
H507 N503 0.985 . S
H508 N502 0.984 . S
H509 N502 0.984 . S
H510 N498 0.984 . S
H511 N498 0.985 . S
C512 C513 1.363 . S
C512 C518 1.379 . S
C512 N520 1.356 1_554 S
C513 C512 1.363 . S
C513 C519 1.363 . S
C514 C515 1.363 . S
C514 C519 1.379 . S
C514 N521 1.356 . S
C515 C514 1.363 . S
C515 C518 1.363 . S
N516 C518 1.356 1_556 S
N516 H528 0.984 . S
N516 H529 0.985 . S
N517 C519 1.356 . S
N517 H522 0.984 . S
N517 H523 0.985 . S
C518 C512 1.379 . S
C518 C515 1.363 . S
C518 N516 1.356 1_554 S
C519 C513 1.363 . S
C519 C514 1.379 . S
C519 N517 1.356 . S
N520 C512 1.356 1_556 S
N520 H526 0.984 . S
N520 H527 0.984 . S
N521 C514 1.356 . S
N521 H524 0.984 . S
N521 H525 0.985 . S
H522 N517 0.984 . S
H523 N517 0.985 . S
H524 N521 0.984 . S
H525 N521 0.985 . S
H526 N520 0.984 . S
H527 N520 0.984 . S
H528 N516 0.984 . S
H529 N516 0.985 . S
C530 C531 1.363 . S
C530 C536 1.379 . S
C530 N538 1.356 . S
C531 C530 1.363 . S
C531 C537 1.363 . S
C532 C533 1.363 . S
C532 C537 1.379 . S
C532 N539 1.356 . S
C533 C532 1.363 . S
C533 C536 1.363 . S
N534 C536 1.356 . S
N534 H546 0.984 . S
N534 H547 0.985 . S
N535 C537 1.356 1_554 S
N535 H540 0.984 . S
N535 H541 0.985 . S
C536 C530 1.379 . S
C536 C533 1.363 . S
C536 N534 1.356 . S
C537 C531 1.363 . S
C537 C532 1.379 . S
C537 N535 1.356 1_556 S
N538 C530 1.356 . S
N538 H544 0.984 . S
N538 H545 0.984 . S
N539 C532 1.356 . S
N539 H542 0.984 . S
N539 H543 0.985 1_556 S
H540 N535 0.984 . S
H541 N535 0.985 . S
H542 N539 0.984 . S
H543 N539 0.985 1_554 S
H544 N538 0.984 . S
H545 N538 0.984 . S
H546 N534 0.984 . S
H547 N534 0.985 . S
C548 C549 1.363 . S
C548 C554 1.379 . S
C548 N556 1.356 . S
C549 C548 1.363 . S
C549 C555 1.363 . S
C550 C551 1.363 . S
C550 C555 1.379 . S
C550 N557 1.356 1_554 S
C551 C550 1.363 . S
C551 C554 1.363 . S
N552 C554 1.356 . S
N552 H564 0.984 . S
N552 H565 0.985 . S
N553 C555 1.356 1_556 S
N553 H558 0.984 . S
N553 H559 0.985 . S
C554 C548 1.379 . S
C554 C551 1.363 . S
C554 N552 1.356 . S
C555 C549 1.363 . S
C555 C550 1.379 . S
C555 N553 1.356 1_554 S
N556 C548 1.356 . S
N556 H562 0.984 . S
N556 H563 0.984 . S
N557 C550 1.356 1_556 S
N557 H560 0.984 . S
N557 H561 0.985 . S
H558 N553 0.984 . S
H559 N553 0.985 . S
H560 N557 0.984 . S
H561 N557 0.985 . S
H562 N556 0.984 . S
H563 N556 0.984 . S
H564 N552 0.984 . S
H565 N552 0.985 . S
C566 C567 1.363 . S
C566 C572 1.379 . S
C566 N574 1.356 . S
C567 C566 1.363 . S
C567 C573 1.363 . S
C568 C569 1.363 . S
C568 C573 1.379 . S
C568 N575 1.356 1_556 S
C569 C568 1.363 . S
C569 C572 1.363 . S
N570 C572 1.356 . S
N570 H582 0.984 . S
N570 H583 0.985 . S
N571 C573 1.356 . S
N571 H576 0.984 . S
N571 H577 0.985 1_556 S
C572 C566 1.379 . S
C572 C569 1.363 . S
C572 N570 1.356 . S
C573 C567 1.363 . S
C573 C568 1.379 . S
C573 N571 1.356 . S
N574 C566 1.356 . S
N574 H580 0.984 . S
N574 H581 0.984 . S
N575 C568 1.356 1_554 S
N575 H578 0.984 . S
N575 H579 0.985 . S
H576 N571 0.984 . S
H577 N571 0.985 1_554 S
H578 N575 0.984 . S
H579 N575 0.985 . S
H580 N574 0.984 . S
H581 N574 0.984 . S
H582 N570 0.984 . S
H583 N570 0.985 . S
C584 C585 1.363 . S
C584 C590 1.379 . S
C584 N592 1.356 . S
C585 C584 1.363 . S
C585 C591 1.363 . S
C586 C587 1.363 . S
C586 C591 1.379 . S
C586 N593 1.356 . S
C587 C586 1.363 . S
C587 C590 1.363 . S
N588 C590 1.356 . S
N588 H600 0.984 . S
N588 H601 0.985 . S
N589 C591 1.356 . S
N589 H594 0.984 . S
N589 H595 0.985 . S
C590 C584 1.379 . S
C590 C587 1.363 . S
C590 N588 1.356 . S
C591 C585 1.363 . S
C591 C586 1.379 . S
C591 N589 1.356 . S
N592 C584 1.356 . S
N592 H598 0.984 . S
N592 H599 0.984 . S
N593 C586 1.356 . S
N593 H596 0.984 . S
N593 H597 0.985 . S
H594 N589 0.984 . S
H595 N589 0.985 . S
H596 N593 0.984 . S
H597 N593 0.985 . S
H598 N592 0.984 . S
H599 N592 0.984 . S
H600 N588 0.984 . S
H601 N588 0.985 . S
C602 C603 1.363 . S
C602 C608 1.379 . S
C602 N610 1.356 . S
C603 C602 1.363 . S
C603 C609 1.363 . S
C604 C605 1.363 . S
C604 C609 1.379 . S
C604 N611 1.356 . S
C605 C604 1.363 . S
C605 C608 1.363 . S
N606 C608 1.356 . S
N606 H618 0.984 . S
N606 H619 0.985 . S
N607 C609 1.356 . S
N607 H612 0.984 . S
N607 H613 0.985 . S
C608 C602 1.379 . S
C608 C605 1.363 . S
C608 N606 1.356 . S
C609 C603 1.363 . S
C609 C604 1.379 . S
C609 N607 1.356 . S
N610 C602 1.356 . S
N610 H616 0.984 . S
N610 H617 0.984 . S
N611 C604 1.356 . S
N611 H614 0.984 . S
N611 H615 0.985 . S
H612 N607 0.984 . S
H613 N607 0.985 . S
H614 N611 0.984 . S
H615 N611 0.985 . S
H616 N610 0.984 . S
H617 N610 0.984 . S
H618 N606 0.984 . S
H619 N606 0.985 . S
C620 C621 1.363 . S
C620 C626 1.379 . S
C620 N628 1.356 . S
C621 C620 1.363 . S
C621 C627 1.363 . S
C622 C623 1.363 . S
C622 C627 1.379 . S
C622 N629 1.356 . S
C623 C622 1.363 . S
C623 C626 1.363 . S
N624 C626 1.356 . S
N624 H636 0.984 . S
N624 H637 0.985 . S
N625 C627 1.356 . S
N625 H630 0.984 . S
N625 H631 0.985 . S
C626 C620 1.379 . S
C626 C623 1.363 . S
C626 N624 1.356 . S
C627 C621 1.363 . S
C627 C622 1.379 . S
C627 N625 1.356 . S
N628 C620 1.356 . S
N628 H634 0.984 . S
N628 H635 0.984 . S
N629 C622 1.356 . S
N629 H632 0.984 . S
N629 H633 0.985 . S
H630 N625 0.984 . S
H631 N625 0.985 . S
H632 N629 0.984 . S
H633 N629 0.985 . S
H634 N628 0.984 . S
H635 N628 0.984 . S
H636 N624 0.984 . S
H637 N624 0.985 . S
C638 C639 1.363 . S
C638 C644 1.379 . S
C638 N646 1.356 . S
C639 C638 1.363 . S
C639 C645 1.363 . S
C640 C641 1.363 . S
C640 C645 1.379 . S
C640 N647 1.356 . S
C641 C640 1.363 . S
C641 C644 1.363 . S
N642 C644 1.356 . S
N642 H654 0.984 . S
N642 H655 0.985 . S
N643 C645 1.356 . S
N643 H648 0.984 . S
N643 H649 0.985 . S
C644 C638 1.379 . S
C644 C641 1.363 . S
C644 N642 1.356 . S
C645 C639 1.363 . S
C645 C640 1.379 . S
C645 N643 1.356 . S
N646 C638 1.356 . S
N646 H652 0.984 . S
N646 H653 0.984 . S
N647 C640 1.356 . S
N647 H650 0.984 . S
N647 H651 0.985 . S
H648 N643 0.984 . S
H649 N643 0.985 . S
H650 N647 0.984 . S
H651 N647 0.985 . S
H652 N646 0.984 . S
H653 N646 0.984 . S
H654 N642 0.984 . S
H655 N642 0.985 . S
C656 C657 1.363 . S
C656 C662 1.379 . S
C656 N664 1.356 . S
C657 C656 1.363 . S
C657 C663 1.363 . S
C658 C659 1.363 . S
C658 C663 1.379 . S
C658 N665 1.356 . S
C659 C658 1.363 . S
C659 C662 1.363 . S
N660 C662 1.356 1_554 S
N660 H672 0.984 . S
N660 H673 0.985 . S
N661 C663 1.356 . S
N661 H666 0.984 . S
N661 H667 0.985 . S
C662 C656 1.379 . S
C662 C659 1.363 . S
C662 N660 1.356 1_556 S
C663 C657 1.363 . S
C663 C658 1.379 . S
C663 N661 1.356 . S
N664 C656 1.356 . S
N664 H670 0.984 . S
N664 H671 0.984 . S
N665 C658 1.356 . S
N665 H668 0.984 . S
N665 H669 0.985 . S
H666 N661 0.984 . S
H667 N661 0.985 . S
H668 N665 0.984 . S
H669 N665 0.985 . S
H670 N664 0.984 . S
H671 N664 0.984 . S
H672 N660 0.984 . S
H673 N660 0.985 . S
C674 C675 1.363 . S
C674 C680 1.379 . S
C674 N682 1.356 . S
C675 C674 1.363 . S
C675 C681 1.363 . S
C676 C677 1.363 1_556 S
C676 C681 1.379 1_556 S
C676 N683 1.356 . S
C677 C676 1.363 1_554 S
C677 C680 1.363 . S
N678 C680 1.356 . S
N678 H690 0.984 . S
N678 H691 0.985 . S
N679 C681 1.356 . S
N679 H684 0.984 . S
N679 H685 0.985 1_554 S
C680 C674 1.379 . S
C680 C677 1.363 . S
C680 N678 1.356 . S
C681 C675 1.363 . S
C681 C676 1.379 1_554 S
C681 N679 1.356 . S
N682 C674 1.356 . S
N682 H688 0.984 . S
N682 H689 0.984 . S
N683 C676 1.356 . S
N683 H686 0.984 . S
N683 H687 0.985 . S
H684 N679 0.984 . S
H685 N679 0.985 1_556 S
H686 N683 0.984 . S
H687 N683 0.985 . S
H688 N682 0.984 . S
H689 N682 0.984 . S
H690 N678 0.984 . S
H691 N678 0.985 . S
C692 C693 1.363 . S
C692 C698 1.379 . S
C692 N700 1.356 . S
C693 C692 1.363 . S
C693 C699 1.363 . S
C694 C695 1.363 . S
C694 C699 1.379 . S
C694 N701 1.356 . S
C695 C694 1.363 . S
C695 C698 1.363 . S
N696 C698 1.356 . S
N696 H708 0.984 . S
N696 H709 0.985 . S
N697 C699 1.356 1_554 S
N697 H702 0.984 . S
N697 H703 0.985 . S
C698 C692 1.379 . S
C698 C695 1.363 . S
C698 N696 1.356 . S
C699 C693 1.363 . S
C699 C694 1.379 . S
C699 N697 1.356 1_556 S
N700 C692 1.356 . S
N700 H706 0.984 . S
N700 H707 0.984 . S
N701 C694 1.356 . S
N701 H704 0.984 . S
N701 H705 0.985 . S
H702 N697 0.984 . S
H703 N697 0.985 . S
H704 N701 0.984 . S
H705 N701 0.985 . S
H706 N700 0.984 . S
H707 N700 0.984 . S
H708 N696 0.984 . S
H709 N696 0.985 . S
C710 C711 1.363 . S
C710 C716 1.379 . S
C710 N718 1.356 . S
C711 C710 1.363 . S
C711 C717 1.363 . S
C712 C713 1.363 . S
C712 C717 1.379 . S
C712 N719 1.356 1_554 S
C713 C712 1.363 . S
C713 C716 1.363 . S
N714 C716 1.356 . S
N714 H726 0.984 . S
N714 H727 0.985 . S
N715 C717 1.356 . S
N715 H720 0.984 . S
N715 H721 0.985 . S
C716 C710 1.379 . S
C716 C713 1.363 . S
C716 N714 1.356 . S
C717 C711 1.363 . S
C717 C712 1.379 . S
C717 N715 1.356 . S
N718 C710 1.356 . S
N718 H724 0.984 . S
N718 H725 0.984 . S
N719 C712 1.356 1_556 S
N719 H722 0.984 . S
N719 H723 0.985 . S
H720 N715 0.984 . S
H721 N715 0.985 . S
H722 N719 0.984 . S
H723 N719 0.985 . S
H724 N718 0.984 . S
H725 N718 0.984 . S
H726 N714 0.984 . S
H727 N714 0.985 . S
C728 C729 1.363 . S
C728 C734 1.379 . S
C728 N736 1.356 . S
C729 C728 1.363 . S
C729 C735 1.363 . S
C730 C731 1.363 . S
C730 C735 1.379 . S
C730 N737 1.356 . S
C731 C730 1.363 . S
C731 C734 1.363 . S
N732 C734 1.356 . S
N732 H744 0.984 . S
N732 H745 0.985 . S
N733 C735 1.356 . S
N733 H738 0.984 . S
N733 H739 0.985 . S
C734 C728 1.379 . S
C734 C731 1.363 . S
C734 N732 1.356 . S
C735 C729 1.363 . S
C735 C730 1.379 . S
C735 N733 1.356 . S
N736 C728 1.356 . S
N736 H742 0.984 . S
N736 H743 0.984 . S
N737 C730 1.356 . S
N737 H740 0.984 . S
N737 H741 0.985 . S
H738 N733 0.984 . S
H739 N733 0.985 . S
H740 N737 0.984 . S
H741 N737 0.985 . S
H742 N736 0.984 . S
H743 N736 0.984 . S
H744 N732 0.984 . S
H745 N732 0.985 . S
C746 C747 1.363 . S
C746 C752 1.379 . S
C746 N754 1.356 . S
C747 C746 1.363 . S
C747 C753 1.363 . S
C748 C749 1.363 . S
C748 C753 1.379 . S
C748 N755 1.356 . S
C749 C748 1.363 . S
C749 C752 1.363 . S
N750 C752 1.356 . S
N750 H762 0.984 . S
N750 H763 0.985 . S
N751 C753 1.356 . S
N751 H756 0.984 . S
N751 H757 0.985 . S
C752 C746 1.379 . S
C752 C749 1.363 . S
C752 N750 1.356 . S
C753 C747 1.363 . S
C753 C748 1.379 . S
C753 N751 1.356 . S
N754 C746 1.356 . S
N754 H760 0.984 . S
N754 H761 0.984 . S
N755 C748 1.356 . S
N755 H758 0.984 . S
N755 H759 0.985 . S
H756 N751 0.984 . S
H757 N751 0.985 . S
H758 N755 0.984 . S
H759 N755 0.985 . S
H760 N754 0.984 . S
H761 N754 0.984 . S
H762 N750 0.984 . S
H763 N750 0.985 . S
C764 C765 1.363 . S
C764 C770 1.379 . S
C764 N772 1.356 . S
C765 C764 1.363 . S
C765 C771 1.363 . S
C766 C767 1.363 . S
C766 C771 1.379 . S
C766 N773 1.356 . S
C767 C766 1.363 . S
C767 C770 1.363 . S
N768 C770 1.356 . S
N768 H780 0.984 . S
N768 H781 0.985 . S
N769 C771 1.356 . S
N769 H774 0.984 . S
N769 H775 0.985 . S
C770 C764 1.379 . S
C770 C767 1.363 . S
C770 N768 1.356 . S
C771 C765 1.363 . S
C771 C766 1.379 . S
C771 N769 1.356 . S
N772 C764 1.356 . S
N772 H778 0.984 . S
N772 H779 0.984 . S
N773 C766 1.356 . S
N773 H776 0.984 . S
N773 H777 0.985 . S
H774 N769 0.984 . S
H775 N769 0.985 . S
H776 N773 0.984 . S
H777 N773 0.985 . S
H778 N772 0.984 . S
H779 N772 0.984 . S
H780 N768 0.984 . S
H781 N768 0.985 . S
C782 C783 1.363 . S
C782 C788 1.379 . S
C782 N790 1.356 . S
C783 C782 1.363 . S
C783 C789 1.363 . S
C784 C785 1.363 . S
C784 C789 1.379 . S
C784 N791 1.356 . S
C785 C784 1.363 . S
C785 C788 1.363 . S
N786 C788 1.356 . S
N786 H798 0.984 . S
N786 H799 0.985 . S
N787 C789 1.356 . S
N787 H792 0.984 . S
N787 H793 0.985 . S
C788 C782 1.379 . S
C788 C785 1.363 . S
C788 N786 1.356 . S
C789 C783 1.363 . S
C789 C784 1.379 . S
C789 N787 1.356 . S
N790 C782 1.356 . S
N790 H796 0.984 . S
N790 H797 0.984 . S
N791 C784 1.356 . S
N791 H794 0.984 . S
N791 H795 0.985 . S
H792 N787 0.984 . S
H793 N787 0.985 . S
H794 N791 0.984 . S
H795 N791 0.985 . S
H796 N790 0.984 . S
H797 N790 0.984 . S
H798 N786 0.984 . S
H799 N786 0.985 . S
C225 C154 1.536 . S
C227 C1 1.550 . S
C243 C27 1.550 . S
C245 C124 1.537 . S
C261 C41 1.550 . S
C263 C126 1.536 . S
C279 C140 1.537 . S
C281 C55 1.550 . S
C297 C69 1.550 . S
C299 C70 1.536 1_554 S
C315 C83 1.550 . S
C317 C85 1.536 1_556 S
C333 C98 1.536 1_554 S
C335 C96 1.550 . S
C351 C56 1.537 1_556 S
C353 C111 1.550 . S
C369 C42 1.536 . S
C371 C113 1.550 . S
C387 C139 1.550 . S
C389 C12 1.537 . S
C405 C14 1.536 . S
C407 C153 1.550 . S
C423 C167 1.550 . S
C425 C28 1.537 . S
C441 C180 1.550 . S
C443 C182 1.536 . S
C459 C195 1.550 . S
C461 C197 1.536 . S
C477 C210 1.536 . S
C479 C208 1.550 . S
C495 C169 1.536 . S
C497 C223 1.550 . S
C513 C68 1.447 . S
C515 C0 1.447 . S
C531 C26 1.446 . S
C533 C82 1.446 . S
C549 C40 1.447 . S
C551 C97 1.446 . S
C567 C110 1.446 . S
C569 C54 1.446 . S
C585 C112 1.447 . S
C587 C181 1.446 . S
C603 C194 1.446 . S
C605 C138 1.446 . S
C621 C152 1.447 . S
C623 C209 1.446 . S
C639 C222 1.446 . S
C641 C166 1.446 . S
C657 C196 1.674 . S
C659 C13 1.672 1_556 S
C675 C211 1.674 . S
C677 C15 1.674 1_554 S
C693 C29 1.672 1_556 S
C695 C168 1.674 . S
C711 C183 1.674 . S
C713 C43 1.674 1_554 S
C729 C141 1.672 . S
C731 C57 1.672 . S
C747 C155 1.674 . S
C749 C71 1.674 . S
C765 C84 1.674 . S
C767 C125 1.672 . S
C783 C127 1.674 . S
C785 C99 1.674 . S
