# Generated by pormake.
# Topology vbe, (5)-cn, num edge types: 1
# Building blocks:
#     Node 0, Type 0, BuildingBlock: XOMCOT_clean_sbu_0, # of connection points: 5
#     Node 1, Type 0, BuildingBlock: XOMCOT_clean_sbu_0, # of connection points: 5
#     Node 2, Type 0, BuildingBlock: XOMCOT_clean_sbu_0, # of connection points: 5
#     Node 3, Type 0, BuildingBlock: XOMCOT_clean_sbu_0, # of connection points: 5
#     Node 4, Type 0, BuildingBlock: XOMCOT_clean_sbu_0, # of connection points: 5
#     Node 5, Type 0, BuildingBlock: XOMCOT_clean_sbu_0, # of connection points: 5
#     Node 6, Type 0, BuildingBlock: XOMCOT_clean_sbu_0, # of connection points: 5
#     Node 7, Type 0, BuildingBlock: XOMCOT_clean_sbu_0, # of connection points: 5
#     Node 8, Type 0, BuildingBlock: XOMCOT_clean_sbu_0, # of connection points: 5
#     Node 9, Type 0, BuildingBlock: XOMCOT_clean_sbu_0, # of connection points: 5
#     Node 10, Type 0, BuildingBlock: XOMCOT_clean_sbu_0, # of connection points: 5
#     Node 11, Type 0, BuildingBlock: XOMCOT_clean_sbu_0, # of connection points: 5
#     Node 12, Type 0, BuildingBlock: XOMCOT_clean_sbu_0, # of connection points: 5
#     Node 13, Type 0, BuildingBlock: XOMCOT_clean_sbu_0, # of connection points: 5
#     Node 14, Type 0, BuildingBlock: XOMCOT_clean_sbu_0, # of connection points: 5
#     Node 15, Type 0, BuildingBlock: XOMCOT_clean_sbu_0, # of connection points: 5
#     Edge 16, Type (0, 0), BuildingBlock: XIVTED_clean_linker_0, # of connection points: 2
#     Edge 17, Type (0, 0), BuildingBlock: XIVTED_clean_linker_0, # of connection points: 2
#     Edge 18, Type (0, 0), BuildingBlock: XIVTED_clean_linker_0, # of connection points: 2
#     Edge 19, Type (0, 0), BuildingBlock: XIVTED_clean_linker_0, # of connection points: 2
#     Edge 20, Type (0, 0), BuildingBlock: XIVTED_clean_linker_0, # of connection points: 2
#     Edge 21, Type (0, 0), BuildingBlock: XIVTED_clean_linker_0, # of connection points: 2
#     Edge 22, Type (0, 0), BuildingBlock: XIVTED_clean_linker_0, # of connection points: 2
#     Edge 23, Type (0, 0), BuildingBlock: XIVTED_clean_linker_0, # of connection points: 2
#     Edge 24, Type (0, 0), BuildingBlock: XIVTED_clean_linker_0, # of connection points: 2
#     Edge 25, Type (0, 0), BuildingBlock: XIVTED_clean_linker_0, # of connection points: 2
#     Edge 26, Type (0, 0), BuildingBlock: XIVTED_clean_linker_0, # of connection points: 2
#     Edge 27, Type (0, 0), BuildingBlock: XIVTED_clean_linker_0, # of connection points: 2
#     Edge 28, Type (0, 0), BuildingBlock: XIVTED_clean_linker_0, # of connection points: 2
#     Edge 29, Type (0, 0), BuildingBlock: XIVTED_clean_linker_0, # of connection points: 2
#     Edge 30, Type (0, 0), BuildingBlock: XIVTED_clean_linker_0, # of connection points: 2
#     Edge 31, Type (0, 0), BuildingBlock: XIVTED_clean_linker_0, # of connection points: 2
#     Edge 32, Type (0, 0), BuildingBlock: XIVTED_clean_linker_0, # of connection points: 2
#     Edge 33, Type (0, 0), BuildingBlock: XIVTED_clean_linker_0, # of connection points: 2
#     Edge 34, Type (0, 0), BuildingBlock: XIVTED_clean_linker_0, # of connection points: 2
#     Edge 35, Type (0, 0), BuildingBlock: XIVTED_clean_linker_0, # of connection points: 2
#     Edge 36, Type (0, 0), BuildingBlock: XIVTED_clean_linker_0, # of connection points: 2
#     Edge 37, Type (0, 0), BuildingBlock: XIVTED_clean_linker_0, # of connection points: 2
#     Edge 38, Type (0, 0), BuildingBlock: XIVTED_clean_linker_0, # of connection points: 2
#     Edge 39, Type (0, 0), BuildingBlock: XIVTED_clean_linker_0, # of connection points: 2
#     Edge 40, Type (0, 0), BuildingBlock: XIVTED_clean_linker_0, # of connection points: 2
#     Edge 41, Type (0, 0), BuildingBlock: XIVTED_clean_linker_0, # of connection points: 2
#     Edge 42, Type (0, 0), BuildingBlock: XIVTED_clean_linker_0, # of connection points: 2
#     Edge 43, Type (0, 0), BuildingBlock: XIVTED_clean_linker_0, # of connection points: 2
#     Edge 44, Type (0, 0), BuildingBlock: XIVTED_clean_linker_0, # of connection points: 2
#     Edge 45, Type (0, 0), BuildingBlock: XIVTED_clean_linker_0, # of connection points: 2
#     Edge 46, Type (0, 0), BuildingBlock: XIVTED_clean_linker_0, # of connection points: 2
#     Edge 47, Type (0, 0), BuildingBlock: XIVTED_clean_linker_0, # of connection points: 2
#     Edge 48, Type (0, 0), BuildingBlock: XIVTED_clean_linker_0, # of connection points: 2
#     Edge 49, Type (0, 0), BuildingBlock: XIVTED_clean_linker_0, # of connection points: 2
#     Edge 50, Type (0, 0), BuildingBlock: XIVTED_clean_linker_0, # of connection points: 2
#     Edge 51, Type (0, 0), BuildingBlock: XIVTED_clean_linker_0, # of connection points: 2
#     Edge 52, Type (0, 0), BuildingBlock: XIVTED_clean_linker_0, # of connection points: 2
#     Edge 53, Type (0, 0), BuildingBlock: XIVTED_clean_linker_0, # of connection points: 2
#     Edge 54, Type (0, 0), BuildingBlock: XIVTED_clean_linker_0, # of connection points: 2
#     Edge 55, Type (0, 0), BuildingBlock: XIVTED_clean_linker_0, # of connection points: 2
# Relax obj value: 0.347
# Max RMSD: 0.243
# Mean RMSD: 0.243
data_MOF--net-vbe--node1-XOMCOT_clean_sbu_0--edge1-XIVTED_clean_linker_0
_symmetry_space_group_name_H-M    P1
_symmetry_Int_Tables_number       1
_symmetry_cell_setting            triclinic
loop_
_symmetry_equiv_pos_as_xyz
'x, y, z'
_cell_length_a     49.038629
_cell_length_b     36.125882
_cell_length_c     55.179455
_cell_angle_alpha  89.961827
_cell_angle_beta   89.978059
_cell_angle_gamma 90.042485
loop_
_atom_site_label
_atom_site_type_symbol
_atom_site_fract_x
_atom_site_fract_y
_atom_site_fract_z
_atom_type_partial_charge
Co0 Co 0.05907 0.07944 0.35965 0.0
C1 C 0.0419 0.02577 0.39674 0.0
C2 C 0.01654 0.02317 0.36528 0.0
C3 C 0.00478 0.00201 0.38318 0.0
N4 N 0.04011 0.03765 0.37366 0.0
N5 N 0.02076 0.00393 0.40298 0.0
H6 H 0.05614 0.03667 0.40977 0.0
H7 H 0.00718 0.03023 0.34815 0.0
C8 C 0.05216 0.02685 0.31759 0.0
O9 O 0.0587 -0.00166 0.33118 0.0
N10 N 0.07722 0.12162 0.34581 0.0
C11 C 0.097 0.14214 0.35614 0.0
C12 C 0.10394 0.1703 0.34046 0.0
C13 C 0.07233 0.13729 0.32414 0.0
N14 N 0.08847 0.16694 0.32038 0.0
C15 C 0.10609 0.05031 0.38413 0.0
C16 C 0.13614 0.03643 0.34277 0.0
C17 C 0.14826 0.03062 0.36542 0.0
C18 C 0.13282 0.03746 0.3863 0.0
C19 C 0.10939 0.04926 0.34142 0.0
N20 N 0.09435 0.05513 0.36193 0.0
H21 H 0.09558 0.05852 0.40036 0.0
H22 H 0.10148 0.05634 0.3238 0.0
H23 H 0.10573 0.13696 0.37382 0.0
H24 H 0.05695 0.1277 0.31159 0.0
O25 O 0.05831 0.10492 0.39059 0.0
O26 O 0.02605 0.10763 0.36242 0.0
O27 O 0.05221 0.05963 0.32622 0.0
C28 C 0.03492 0.11812 0.38352 0.0
H29 H 0.985 0.98877 0.38231 0.0
H30 H 0.11938 0.19125 0.34339 0.0
H31 H 0.14742 0.03198 0.32615 0.0
H32 H 0.14173 0.03473 0.40417 0.0
Co33 Co 0.42829 0.88767 0.36363 0.0
C34 C 0.44859 0.93312 0.4043 0.0
C35 C 0.47318 0.93963 0.37256 0.0
C36 C 0.48569 0.95783 0.39136 0.0
N37 N 0.44947 0.92491 0.38047 0.0
N38 N 0.47028 0.9534 0.41133 0.0
H39 H 0.43374 0.92208 0.41674 0.0
H40 H 0.48212 0.93483 0.35495 0.0
C41 C 0.44031 0.943 0.32395 0.0
O42 O 0.4319 0.97058 0.33754 0.0
N43 N 0.40809 0.84992 0.34688 0.0
C44 C 0.38439 0.83437 0.35385 0.0
C45 C 0.3769 0.80858 0.33673 0.0
C46 C 0.41494 0.83331 0.32595 0.0
N47 N 0.39616 0.80798 0.31925 0.0
C48 C 0.38334 0.92321 0.38754 0.0
C49 C 0.35572 0.94257 0.34577 0.0
C50 C 0.34368 0.94996 0.36828 0.0
C51 C 0.35787 0.94019 0.38935 0.0
C52 C 0.38117 0.92548 0.34479 0.0
N53 N 0.39506 0.91686 0.3655 0.0
H54 H 0.3928 0.91336 0.40387 0.0
H55 H 0.38898 0.91748 0.32728 0.0
H56 H 0.37335 0.84137 0.37019 0.0
H57 H 0.4331 0.84004 0.31571 0.0
O58 O 0.42488 0.85891 0.39322 0.0
O59 O 0.45873 0.85483 0.36653 0.0
O60 O 0.43898 0.9097 0.33162 0.0
C61 C 0.44773 0.8435 0.38663 0.0
H62 H 0.50568 0.97055 0.39084 0.0
H63 H 0.35886 0.79133 0.33728 0.0
H64 H 0.34501 0.94826 0.32902 0.0
H65 H 0.34911 0.94478 0.40712 0.0
Co66 Co 0.55514 0.90637 0.12797 0.0
C67 C 0.53941 0.95749 0.08911 0.0
C68 C 0.50878 0.95409 0.11667 0.0
C69 C 0.49825 0.97344 0.09735 0.0
N70 N 0.53472 0.94446 0.11157 0.0
N71 N 0.51748 0.97508 0.07992 0.0
H72 H 0.55758 0.95162 0.07886 0.0
H73 H 0.49755 0.945 0.13247 0.0
C74 C 0.54041 0.96092 0.1677 0.0
O75 O 0.54215 0.98954 0.15308 0.0
N76 N 0.575 0.86776 0.14413 0.0
C77 C 0.59814 0.85142 0.13651 0.0
C78 C 0.60557 0.82506 0.15324 0.0
C79 C 0.5684 0.85098 0.1651 0.0
N80 N 0.58683 0.82485 0.17116 0.0
C81 C 0.6032 0.93199 0.10362 0.0
C82 C 0.62787 0.96346 0.14355 0.0
C83 C 0.64286 0.96054 0.12199 0.0
C84 C 0.62992 0.94505 0.10172 0.0
C85 C 0.60151 0.94915 0.14487 0.0
N86 N 0.5892 0.93397 0.12499 0.0
H87 H 0.59454 0.91799 0.08819 0.0
H88 H 0.59207 0.94846 0.16243 0.0
H89 H 0.60874 0.85795 0.11987 0.0
H90 H 0.55059 0.85796 0.17574 0.0
O91 O 0.55639 0.87755 0.09826 0.0
O92 O 0.5237 0.87481 0.12601 0.0
O93 O 0.54605 0.9283 0.16037 0.0
C94 C 0.53346 0.86314 0.10553 0.0
H95 H 0.47731 0.98242 0.09542 0.0
H96 H 0.62311 0.80699 0.15208 0.0
H97 H 0.63667 0.97547 0.15972 0.0
H98 H 0.64071 0.94107 0.08481 0.0
Co99 Co 0.92899 0.0818 0.12537 0.0
C100 C 0.94617 0.03334 0.0855 0.0
C101 C 0.97559 0.03453 0.11413 0.0
C102 C 0.98684 0.01633 0.0947 0.0
N103 N 0.94993 0.04477 0.10846 0.0
N104 N 0.96839 0.01608 0.07661 0.0
H105 H 0.92859 0.04035 0.07474 0.0
H106 H 0.98632 0.0427 0.13039 0.0
C107 C 0.94543 0.02736 0.16445 0.0
O108 O 0.94006 -0.00122 0.15052 0.0
N109 N 0.9086 0.11931 0.14203 0.0
C110 C 0.8851 0.13492 0.13465 0.0
C111 C 0.87743 0.16099 0.15146 0.0
C112 C 0.91516 0.13617 0.16293 0.0
N113 N 0.89637 0.16171 0.16919 0.0
C114 C 0.88145 0.05251 0.10214 0.0
C115 C 0.85761 0.02376 0.14339 0.0
C116 C 0.84233 0.02466 0.1219 0.0
C117 C 0.85487 0.03874 0.10098 0.0
C118 C 0.88377 0.03879 0.14392 0.0
N119 N 0.89567 0.05256 0.12341 0.0
H120 H 0.88966 0.06577 0.08624 0.0
H121 H 0.89342 0.04139 0.16134 0.0
H122 H 0.87442 0.12807 0.11811 0.0
H123 H 0.93319 0.12967 0.17339 0.0
O124 O 0.92585 0.11082 0.09578 0.0
O125 O 0.95944 0.11482 0.1226 0.0
O126 O 0.94017 0.06023 0.15736 0.0
C127 C 0.9486 0.12632 0.10252 0.0
H128 H 0.00783 0.0074 0.09318 0.0
H129 H 0.85955 0.17848 0.15049 0.0
H130 H 0.84912 0.01296 0.16006 0.0
H131 H 0.84382 0.04125 0.08408 0.0
Co132 Co 0.93431 0.90058 0.62223 0.0
C133 C 0.95162 0.95074 0.58319 0.0
C134 C 0.9773 0.95583 0.61431 0.0
C135 C 0.989 0.97524 0.59555 0.0
N136 N 0.95353 0.94094 0.60668 0.0
N137 N 0.97282 0.97174 0.57598 0.0
H138 H 0.93722 0.9388 0.57068 0.0
H139 H 0.98697 0.95001 0.63149 0.0
C140 C 0.94517 0.95314 0.66362 0.0
O141 O 0.93612 0.98136 0.65091 0.0
N142 N 0.91582 0.85983 0.63747 0.0
C143 C 0.89322 0.84274 0.62928 0.0
C144 C 0.88603 0.81562 0.64558 0.0
C145 C 0.92233 0.84283 0.65837 0.0
N146 N 0.90434 0.81578 0.66383 0.0
C147 C 0.88722 0.93417 0.60035 0.0
C148 C 0.85984 0.94724 0.64328 0.0
C149 C 0.84671 0.955 0.62133 0.0
C150 C 0.86083 0.94862 0.59965 0.0
C151 C 0.88617 0.93281 0.64315 0.0
N152 N 0.89986 0.92717 0.62189 0.0
H153 H 0.89666 0.9265 0.58351 0.0
H154 H 0.89489 0.92439 0.66022 0.0
H155 H 0.88261 0.84979 0.61273 0.0
H156 H 0.93951 0.85062 0.66956 0.0
O157 O 0.93185 0.87427 0.5916 0.0
O158 O 0.96608 0.87052 0.61786 0.0
O159 O 0.94452 0.92042 0.65492 0.0
C160 C 0.95537 0.86006 0.59746 0.0
H161 H 0.00887 0.9883 0.59578 0.0
H162 H 0.86873 0.79715 0.64405 0.0
H163 H 0.84962 0.95137 0.66047 0.0
H164 H 0.8511 0.95293 0.58226 0.0
Co165 Co 0.5646 0.09546 0.62343 0.0
C166 C 0.54727 0.04419 0.58492 0.0
C167 C 0.52225 0.03899 0.61647 0.0
C168 C 0.51068 0.01854 0.59815 0.0
N169 N 0.54558 0.05453 0.60833 0.0
N170 N 0.52633 0.02225 0.57826 0.0
H171 H 0.56197 0.05513 0.57232 0.0
H172 H 0.51278 0.04489 0.63373 0.0
C173 C 0.55524 0.04284 0.66526 0.0
O174 O 0.56452 0.01465 0.65269 0.0
N175 N 0.58279 0.13679 0.63833 0.0
C176 C 0.6032 0.157 0.6287 0.0
C177 C 0.60972 0.18496 0.64463 0.0
C178 C 0.57717 0.1524 0.65989 0.0
N179 N 0.59339 0.18183 0.66419 0.0
C180 C 0.61161 0.06387 0.60044 0.0
C181 C 0.63986 0.04872 0.64261 0.0
C182 C 0.65227 0.04123 0.62028 0.0
C183 C 0.63781 0.04901 0.599 0.0
C184 C 0.61365 0.06365 0.64321 0.0
N185 N 0.59943 0.06991 0.62232 0.0
H186 H 0.60183 0.07223 0.5839 0.0
H187 H 0.6054 0.07172 0.66054 0.0
H188 H 0.61256 0.15184 0.61128 0.0
H189 H 0.5612 0.14299 0.67195 0.0
O190 O 0.56588 0.12157 0.59267 0.0
O191 O 0.53227 0.12467 0.61959 0.0
O192 O 0.55541 0.07544 0.65635 0.0
C193 C 0.54231 0.13518 0.59891 0.0
H194 H 0.49098 0.00504 0.59878 0.0
H195 H 0.62541 0.20572 0.64217 0.0
H196 H 0.65072 0.04459 0.65948 0.0
H197 H 0.64681 0.04432 0.58134 0.0
Co198 Co 0.43491 0.092 0.85699 0.0
C199 C 0.45416 0.0481 0.89849 0.0
C200 C 0.4837 0.05024 0.86992 0.0
C201 C 0.49563 0.03413 0.88982 0.0
N202 N 0.45754 0.05846 0.87524 0.0
N203 N 0.47708 0.03323 0.90783 0.0
H204 H 0.43609 0.05375 0.90895 0.0
H205 H 0.49399 0.05803 0.85334 0.0
C206 C 0.45226 0.03404 0.82027 0.0
O207 O 0.45142 0.00719 0.83632 0.0
N208 N 0.41296 0.12616 0.83882 0.0
C209 C 0.38869 0.14057 0.84525 0.0
C210 C 0.38036 0.16452 0.82733 0.0
C211 C 0.41927 0.14166 0.81738 0.0
N212 N 0.39965 0.16518 0.80988 0.0
C213 C 0.38867 0.0641 0.883 0.0
C214 C 0.36508 0.02743 0.84448 0.0
C215 C 0.34996 0.03161 0.86588 0.0
C216 C 0.36243 0.0495 0.88552 0.0
C217 C 0.39085 0.04335 0.84248 0.0
N218 N 0.40256 0.06135 0.86161 0.0
H219 H 0.39681 0.08014 0.89778 0.0
H220 H 0.40015 0.04317 0.82485 0.0
H221 H 0.378 0.13453 0.86192 0.0
H222 H 0.43785 0.13577 0.80753 0.0
O223 O 0.4319 0.12427 0.88503 0.0
O224 O 0.46444 0.12688 0.85709 0.0
O225 O 0.4453 0.067 0.82586 0.0
C226 C 0.45401 0.13996 0.87694 0.0
H227 H 0.51692 0.02665 0.89154 0.0
H228 H 0.36187 0.18088 0.82743 0.0
H229 H 0.35666 0.01345 0.82883 0.0
H230 H 0.3515 0.05434 0.90227 0.0
Co231 Co 0.06349 0.91319 0.85637 0.0
C232 C 0.04421 0.95886 0.89682 0.0
C233 C 0.01652 0.95994 0.86686 0.0
C234 C 0.00398 0.97621 0.8864 0.0
N235 N 0.04192 0.94952 0.8733 0.0
N236 N 0.02133 0.97497 0.9053 0.0
H237 H 0.06113 0.95094 0.90813 0.0
H238 H 0.00677 0.95295 0.84989 0.0
C239 C 0.04945 0.96976 0.81766 0.0
O240 O 0.05204 -0.00232 0.83273 0.0
N241 N 0.0843 0.87632 0.83951 0.0
C242 C 0.108 0.86082 0.84649 0.0
C243 C 0.11569 0.83538 0.82922 0.0
C244 C 0.07767 0.86005 0.81843 0.0
N245 N 0.09654 0.83496 0.81166 0.0
C246 C 0.11011 0.9408 0.882 0.0
C247 C 0.13611 0.97061 0.84213 0.0
C248 C 0.15049 0.96814 0.86402 0.0
C249 C 0.13685 0.95377 0.88431 0.0
C250 C 0.10979 0.95641 0.84044 0.0
N251 N 0.09687 0.94189 0.86023 0.0
H252 H 0.101 0.92716 0.89737 0.0
H253 H 0.10095 0.95486 0.82265 0.0
H254 H 0.11879 0.8673 0.86303 0.0
H255 H 0.05945 0.86663 0.80825 0.0
O256 O 0.06503 0.88274 0.88541 0.0
O257 O 0.03269 0.88045 0.85731 0.0
O258 O 0.05435 0.93663 0.82443 0.0
C259 C 0.0424 0.86807 0.87764 0.0
H260 H 0.98284 0.98469 0.88728 0.0
H261 H 0.13365 0.81803 0.82982 0.0
H262 H 0.14548 0.98184 0.82595 0.0
H263 H 0.14719 0.95034 0.90149 0.0
Co264 Co 0.55519 0.57239 0.35483 0.0
C265 C 0.53882 0.51889 0.39215 0.0
C266 C 0.51193 0.51757 0.36164 0.0
C267 C 0.50061 0.4967 0.37989 0.0
N268 N 0.5361 0.53113 0.36924 0.0
N269 N 0.51749 0.49792 0.39912 0.0
H270 H 0.55403 0.52904 0.40459 0.0
H271 H 0.5019 0.52522 0.34493 0.0
C272 C 0.54526 0.52034 0.31291 0.0
O273 O 0.55241 0.49147 0.32593 0.0
N274 N 0.57362 0.61399 0.34059 0.0
C275 C 0.59599 0.63111 0.34923 0.0
C276 C 0.60279 0.65942 0.33368 0.0
C277 C 0.56683 0.63219 0.3202 0.0
N278 N 0.58443 0.66002 0.31547 0.0
C279 C 0.6029 0.54456 0.3785 0.0
C280 C 0.6306 0.52477 0.33692 0.0
C281 C 0.64423 0.52251 0.35923 0.0
C282 C 0.62983 0.53239 0.38023 0.0
C283 C 0.604 0.53817 0.33594 0.0
N284 N 0.59011 0.54703 0.35659 0.0
H285 H 0.59312 0.55443 0.39471 0.0
H286 H 0.5954 0.54328 0.31831 0.0
H287 H 0.6066 0.62352 0.36567 0.0
H288 H 0.54961 0.62487 0.30893 0.0
O289 O 0.55552 0.59803 0.38575 0.0
O290 O 0.52262 0.60139 0.35822 0.0
O291 O 0.54686 0.553 0.32161 0.0
C292 C 0.53208 0.61161 0.37916 0.0
H293 H 0.48049 0.48436 0.37972 0.0
H294 H 0.61976 0.67833 0.33575 0.0
H295 H 0.64055 0.51741 0.3201 0.0
H296 H 0.63956 0.53262 0.39783 0.0
Co297 Co 0.92833 0.39293 0.36487 0.0
C298 C 0.94303 0.44248 0.40523 0.0
C299 C 0.97345 0.44219 0.37736 0.0
C300 C 0.98315 0.46251 0.39653 0.0
N301 N 0.94807 0.43022 0.38265 0.0
N302 N 0.96405 0.46234 0.41408 0.0
H303 H 0.92535 0.43496 0.41571 0.0
H304 H 0.98492 0.43445 0.36141 0.0
C305 C 0.94453 0.44908 0.32696 0.0
O306 O 0.93659 0.47665 0.34079 0.0
N307 N 0.90913 0.35528 0.34726 0.0
C308 C 0.88569 0.33876 0.35397 0.0
C309 C 0.87848 0.3137 0.33636 0.0
C310 C 0.91609 0.34002 0.32593 0.0
N311 N 0.89761 0.31458 0.31878 0.0
C312 C 0.87986 0.42191 0.38671 0.0
C313 C 0.85742 0.45032 0.34478 0.0
C314 C 0.84176 0.45072 0.36607 0.0
C315 C 0.85351 0.43643 0.38729 0.0
C316 C 0.88327 0.43441 0.34484 0.0
N317 N 0.89466 0.42138 0.36576 0.0
H318 H 0.88751 0.40874 0.40285 0.0
H319 H 0.89324 0.43084 0.32762 0.0
H320 H 0.87465 0.34454 0.3705 0.0
H321 H 0.93406 0.34777 0.31573 0.0
O322 O 0.92403 0.36361 0.39418 0.0
O323 O 0.95896 0.36047 0.36866 0.0
O324 O 0.94078 0.41555 0.33352 0.0
C325 C 0.94723 0.3486 0.38827 0.0
H326 H 0.00352 0.4738 0.39823 0.0
H327 H 0.86071 0.29591 0.33664 0.0
H328 H 0.84957 0.46101 0.32785 0.0
H329 H 0.84207 0.43458 0.40402 0.0
Co330 Co 0.05504 0.40605 0.13114 0.0
C331 C 0.03635 0.45475 0.0921 0.0
C332 C 0.008 0.45335 0.1216 0.0
C333 C -0.00413 0.47117 0.1024 0.0
N334 N 0.03352 0.44342 0.11519 0.0
N335 N 0.01365 0.47148 0.08379 0.0
H336 H 0.05361 0.44799 0.08088 0.0
H337 H -0.00197 0.44523 0.13826 0.0
C338 C 0.04286 0.4623 0.17041 0.0
O339 O 0.04434 0.49015 0.15515 0.0
N340 N 0.07595 0.36813 0.14691 0.0
C341 C 0.09696 0.34897 0.13744 0.0
C342 C 0.10523 0.32294 0.15413 0.0
C343 C 0.07167 0.35379 0.16908 0.0
N344 N 0.08934 0.32622 0.17396 0.0
C345 C 0.10157 0.4315 0.10441 0.0
C346 C 0.12838 0.46343 0.14306 0.0
C347 C 0.14218 0.46028 0.12089 0.0
C348 C 0.12815 0.44461 0.10126 0.0
C349 C 0.10222 0.44899 0.14561 0.0
N350 N 0.08878 0.43369 0.12637 0.0
H351 H 0.09207 0.41731 0.08945 0.0
H352 H 0.09388 0.44824 0.16361 0.0
H353 H 0.10537 0.35321 0.11954 0.0
H354 H 0.0554 0.36243 0.18105 0.0
O355 O 0.05482 0.37645 0.10176 0.0
O356 O 0.02366 0.37411 0.13088 0.0
O357 O 0.0476 0.42917 0.16355 0.0
C358 C 0.03236 0.36206 0.1101 0.0
H359 H 0.97476 0.47983 0.10145 0.0
H360 H 0.12159 0.30314 0.15187 0.0
H361 H 0.13804 0.47561 0.15878 0.0
H362 H 0.13802 0.44053 0.08392 0.0
Co363 Co 0.42787 0.58219 0.12143 0.0
C364 C 0.44688 0.53785 0.08002 0.0
C365 C 0.47387 0.53381 0.11038 0.0
C366 C 0.48622 0.51749 0.09078 0.0
N367 N 0.44897 0.54606 0.10375 0.0
N368 N 0.4693 0.52042 0.07166 0.0
H369 H 0.43096 0.54825 0.0684 0.0
H370 H 0.48345 0.53925 0.12766 0.0
C371 C 0.44082 0.52377 0.15906 0.0
O372 O 0.43655 0.4967 0.14362 0.0
N373 N 0.40754 0.61884 0.13904 0.0
C374 C 0.38407 0.63507 0.13216 0.0
C375 C 0.37625 0.65953 0.14995 0.0
C376 C 0.41391 0.63377 0.16063 0.0
N377 N 0.39504 0.65865 0.16781 0.0
C378 C 0.3811 0.55418 0.09599 0.0
C379 C 0.35497 0.52623 0.13638 0.0
C380 C 0.34068 0.52757 0.1144 0.0
C381 C 0.35435 0.54109 0.09387 0.0
C382 C 0.38122 0.5406 0.13785 0.0
N383 N 0.39428 0.55396 0.11779 0.0
H384 H 0.39029 0.56713 0.08041 0.0
H385 H 0.38996 0.54322 0.15564 0.0
H386 H 0.37345 0.62955 0.11537 0.0
H387 H 0.43184 0.62626 0.17094 0.0
O388 O 0.42585 0.61344 0.09282 0.0
O389 O 0.4588 0.61464 0.12042 0.0
O390 O 0.43738 0.5575 0.15286 0.0
C391 C 0.44866 0.62778 0.10046 0.0
H392 H 0.50681 0.50676 0.09027 0.0
H393 H 0.35833 0.67701 0.14958 0.0
H394 H 0.3456 0.51571 0.15276 0.0
H395 H 0.34405 0.54365 0.0766 0.0
Co396 Co 0.43255 0.40599 0.61985 0.0
C397 C 0.45088 0.45504 0.58054 0.0
C398 C 0.47695 0.45879 0.61149 0.0
C399 C 0.48908 0.47748 0.59264 0.0
N400 N 0.45272 0.44516 0.60401 0.0
N401 N 0.47263 0.47485 0.5732 0.0
H402 H 0.43605 0.44389 0.56813 0.0
H403 H 0.48649 0.45256 0.62867 0.0
C404 C 0.44344 0.4606 0.65987 0.0
O405 O 0.43505 0.48813 0.6462 0.0
N406 N 0.4132 0.36641 0.63552 0.0
C407 C 0.39032 0.34976 0.62757 0.0
C408 C 0.38305 0.3228 0.64396 0.0
C409 C 0.41979 0.34934 0.65636 0.0
N410 N 0.40162 0.3226 0.66202 0.0
C411 C 0.38618 0.43804 0.59602 0.0
C412 C 0.35825 0.45616 0.63785 0.0
C413 C 0.34564 0.46194 0.6154 0.0
C414 C 0.35999 0.45286 0.59428 0.0
C415 C 0.3844 0.4412 0.63876 0.0
N416 N 0.39842 0.43317 0.61801 0.0
H417 H 0.3958 0.42841 0.5797 0.0
H418 H 0.39261 0.4341 0.65628 0.0
H419 H 0.37971 0.35677 0.61101 0.0
H420 H 0.43731 0.35668 0.66727 0.0
O421 O 0.43073 0.37835 0.5897 0.0
O422 O 0.46411 0.37511 0.61684 0.0
O423 O 0.44208 0.42729 0.65229 0.0
C424 C 0.45395 0.36408 0.59635 0.0
H425 H 0.50934 0.48939 0.59269 0.0
H426 H 0.36567 0.30446 0.64253 0.0
H427 H 0.34747 0.46132 0.65465 0.0
H428 H 0.35081 0.45621 0.57657 0.0
Co429 Co 0.06162 0.58886 0.62656 0.0
C430 C 0.03989 0.54056 0.58849 0.0
C431 C 0.01638 0.53648 0.62099 0.0
C432 C 0.00239 0.51888 0.60274 0.0
N433 N 0.04021 0.5496 0.61216 0.0
N434 N 0.01709 0.52207 0.58227 0.0
H435 H 0.05443 0.55073 0.57544 0.0
H436 H 0.00813 0.54281 0.63867 0.0
C437 C 0.05146 0.53744 0.66866 0.0
O438 O 0.05888 0.50867 0.65568 0.0
N439 N 0.08211 0.62863 0.64076 0.0
C440 C 0.10529 0.64376 0.63217 0.0
C441 C 0.11344 0.67125 0.64784 0.0
C442 C 0.07621 0.64715 0.66121 0.0
N443 N 0.0951 0.6733 0.66603 0.0
C444 C 0.10646 0.5525 0.60301 0.0
C445 C 0.13625 0.5405 0.64477 0.0
C446 C 0.14831 0.53299 0.62231 0.0
C447 C 0.13288 0.53839 0.60125 0.0
C448 C 0.10987 0.55461 0.64571 0.0
N449 N 0.09512 0.56023 0.62502 0.0
H450 H 0.09608 0.55976 0.58653 0.0
H451 H 0.10215 0.56339 0.66308 0.0
H452 H 0.11555 0.63526 0.61574 0.0
H453 H 0.05868 0.64121 0.67246 0.0
O454 O 0.06346 0.61452 0.59565 0.0
O455 O 0.03067 0.62079 0.62314 0.0
O456 O 0.05252 0.57004 0.65978 0.0
C457 C 0.04066 0.63009 0.6022 0.0
H458 H 0.98177 0.50826 0.60385 0.0
H459 H 0.1313 0.68862 0.64585 0.0
H460 H 0.1475 0.53695 0.66151 0.0
H461 H 0.14171 0.53403 0.58349 0.0
Co462 Co 0.93416 0.58759 0.86115 0.0
C463 C 0.94999 0.53976 0.90188 0.0
C464 C 0.98012 0.54004 0.87376 0.0
C465 C 0.99057 0.52142 0.89338 0.0
N466 N 0.9545 0.55103 0.87899 0.0
N467 N 0.97167 0.52168 0.91111 0.0
H468 H 0.93216 0.54697 0.91225 0.0
H469 H 0.99117 0.54746 0.8575 0.0
C470 C 0.94854 0.52929 0.82367 0.0
O471 O 0.94567 0.50199 0.8392 0.0
N472 N 0.91447 0.62465 0.84339 0.0
C473 C 0.89113 0.6415 0.84997 0.0
C474 C 0.88405 0.66634 0.83214 0.0
C475 C 0.92153 0.6396 0.82196 0.0
N476 N 0.90322 0.66507 0.81459 0.0
C477 C 0.88604 0.56367 0.88628 0.0
C478 C 0.8614 0.53005 0.8471 0.0
C479 C 0.84627 0.53455 0.86846 0.0
C480 C 0.8592 0.55101 0.88841 0.0
C481 C 0.88778 0.54408 0.84551 0.0
N482 N 0.90009 0.56032 0.865 0.0
H483 H 0.89474 0.57854 0.90134 0.0
H484 H 0.89721 0.5438 0.82794 0.0
H485 H 0.88014 0.63632 0.86662 0.0
H486 H 0.93959 0.63176 0.81194 0.0
O487 O 0.9328 0.6191 0.88966 0.0
O488 O 0.96559 0.61924 0.86197 0.0
O489 O 0.94349 0.56269 0.82975 0.0
C490 C 0.95573 0.6329 0.88187 0.0
H491 H 0.01127 0.51142 0.8952 0.0
H492 H 0.86644 0.68436 0.83228 0.0
H493 H 0.85264 0.51715 0.8312 0.0
H494 H 0.8483 0.55607 0.90514 0.0
Co495 Co 0.55859 0.42183 0.85286 0.0
C496 C 0.53919 0.47191 0.89119 0.0
C497 C 0.51274 0.47202 0.86034 0.0
C498 C 0.50022 0.49126 0.87869 0.0
N499 N 0.53738 0.46034 0.86806 0.0
N500 N 0.51682 0.49083 0.89814 0.0
H501 H 0.55486 0.46302 0.90358 0.0
H502 H 0.5035 0.46445 0.84325 0.0
C503 C 0.5485 0.47723 0.81269 0.0
O504 O 0.55166 0.50548 0.82741 0.0
N505 N 0.57905 0.3828 0.83774 0.0
C506 C 0.59966 0.3633 0.84762 0.0
C507 C 0.60742 0.3362 0.83149 0.0
C508 C 0.57452 0.36758 0.81587 0.0
N509 N 0.59162 0.33913 0.81158 0.0
C510 C 0.60479 0.4487 0.87947 0.0
C511 C 0.63346 0.4743 0.8398 0.0
C512 C 0.64663 0.47314 0.86233 0.0
C513 C 0.63168 0.46079 0.88246 0.0
C514 C 0.60696 0.46098 0.83749 0.0
N515 N 0.59265 0.44881 0.85719 0.0
H516 H 0.59457 0.43672 0.89488 0.0
H517 H 0.59901 0.45827 0.81942 0.0
H518 H 0.60812 0.36807 0.86545 0.0
H519 H 0.55846 0.37629 0.80369 0.0
O520 O 0.55799 0.39328 0.88267 0.0
O521 O 0.52689 0.39059 0.85353 0.0
O522 O 0.55162 0.44403 0.82012 0.0
C523 C 0.53553 0.37878 0.8744 0.0
H524 H 0.47972 0.50232 0.87828 0.0
H525 H 0.6234 0.31596 0.83415 0.0
H526 H 0.64386 0.48391 0.82367 0.0
H527 H 0.64104 0.45836 0.90015 0.0
H528 H 0.96248 0.96292 0.18709 0.0
H529 H 0.05267 0.07708 0.28121 0.0
H530 H 0.96399 0.08207 0.19384 0.0
H531 H 0.0274 0.96542 0.29771 0.0
H532 H 0.02787 0.07385 0.24319 0.0
H533 H 0.99181 0.95865 0.22331 0.0
C534 C 0.96875 0.98806 0.1962 0.0
C535 C 0.96076 0.0229 0.18735 0.0
C536 C 0.02783 0.04989 0.25501 0.0
C537 C 0.99458 0.01817 0.22803 0.0
C538 C 0.04208 0.05168 0.27669 0.0
C539 C 0.04164 0.02172 0.29281 0.0
C540 C 0.01288 0.01795 0.24931 0.0
C541 C 0.02808 0.98919 0.28577 0.0
C542 C 0.98551 0.98557 0.21674 0.0
C543 C 0.96954 0.05457 0.19984 0.0
N544 N 0.01385 0.98825 0.26455 0.0
N545 N 0.98606 0.0514 0.21933 0.0
H546 H 0.54963 0.91462 0.20537 0.0
H547 H 0.44717 0.00896 0.29909 0.0
H548 H 0.50778 0.01582 0.18682 0.0
H549 H 0.46711 0.89254 0.29641 0.0
H550 H 0.47445 0.01842 0.26201 0.0
H551 H 0.52645 0.91406 0.24424 0.0
C552 C 0.53572 0.93699 0.2096 0.0
C553 C 0.53022 0.96496 0.19269 0.0
C554 C 0.47267 0.99092 0.26968 0.0
C555 C 0.5033 0.96425 0.23721 0.0
C556 C 0.45713 0.98547 0.29072 0.0
C557 C 0.45484 0.94992 0.3009 0.0
C558 C 0.48626 0.96069 0.25919 0.0
C559 C 0.46817 0.92046 0.28934 0.0
C560 C 0.5224 0.93658 0.23178 0.0
C561 C 0.51243 0.99366 0.19937 0.0
N562 N 0.48337 0.92659 0.26928 0.0
N563 N 0.49924 0.99237 0.22111 0.0
H564 H 0.96864 0.90045 0.69179 0.0
H565 H 0.01701 0.02639 0.80045 0.0
H566 H 0.95482 0.01847 0.68843 0.0
H567 H 0.05586 0.92427 0.77919 0.0
H568 H 0.99143 0.02597 0.76196 0.0
H569 H -0.00396 0.90918 0.72771 0.0
C570 C 0.97121 0.92831 0.69865 0.0
C571 C 0.95952 0.95884 0.68688 0.0
C572 C 0.00592 0.00409 0.76569 0.0
C573 C 0.99132 0.96901 0.7283 0.0
C574 C 0.02059 0.00441 0.7875 0.0
C575 C 0.0382 0.97498 0.79313 0.0
C576 C 0.0089 0.97401 0.7498 0.0
C577 C 0.04209 0.94711 0.77582 0.0
C578 C 0.98711 0.93328 0.71915 0.0
C579 C 0.96356 0.9942 0.6969 0.0
N580 N 0.0273 0.94708 0.75514 0.0
N581 N 0.97919 -0.0016 0.71717 0.0
H582 H 0.54958 0.97855 0.69225 0.0
H583 H 0.44219 0.07508 0.78024 0.0
H584 H 0.52747 0.09432 0.69116 0.0
H585 H 0.48745 0.97954 0.80447 0.0
H586 H 0.46644 0.07304 0.74191 0.0
H587 H 0.5219 0.97081 0.7293 0.0
C588 C 0.53911 0.00228 0.6998 0.0
C589 C 0.54085 0.03711 0.68853 0.0
C590 C 0.47099 0.0523 0.75551 0.0
C591 C 0.50894 0.02822 0.73015 0.0
C592 C 0.45707 0.05336 0.77738 0.0
C593 C 0.46319 0.02784 0.79571 0.0
C594 C 0.49134 0.02562 0.75183 0.0
C595 C 0.48228 -0.00016 0.79079 0.0
C596 C 0.52333 -0.00221 0.72082 0.0
C597 C 0.52684 0.0669 0.69907 0.0
N598 N 0.49604 -0.0003 0.7693 0.0
N599 N 0.5114 0.06166 0.71908 0.0
H600 H 0.53034 0.45579 0.28931 0.0
H601 H 0.43727 0.5685 0.19816 0.0
H602 H 0.52939 0.57493 0.28226 0.0
H603 H 0.46995 0.46322 0.17527 0.0
H604 H 0.46276 0.56348 0.23571 0.0
H605 H 0.50249 0.45147 0.25214 0.0
C606 C 0.52459 0.4809 0.27988 0.0
C607 C 0.53196 0.5158 0.28908 0.0
C608 C 0.46424 0.54131 0.22256 0.0
C609 C 0.49988 0.51096 0.24741 0.0
C610 C 0.44962 0.54407 0.20116 0.0
C611 C 0.45197 0.51658 0.18339 0.0
C612 C 0.48139 0.51084 0.22636 0.0
C613 C 0.4678 0.48512 0.18851 0.0
C614 C 0.50868 0.47837 0.25883 0.0
C615 C 0.52399 0.54743 0.27615 0.0
N616 N 0.48229 0.48322 0.20956 0.0
N617 N 0.50817 0.54422 0.25621 0.0
H618 H 0.95018 0.51405 0.3009 0.0
H619 H 0.05503 0.41932 0.2091 0.0
H620 H 0.97543 0.39955 0.30244 0.0
H621 H 0.01024 0.51742 0.18901 0.0
H622 H 0.03351 0.42066 0.24875 0.0
H623 H 0.97803 0.5231 0.26411 0.0
C624 C 0.96152 0.49092 0.29355 0.0
C625 C 0.96031 0.45594 0.30462 0.0
C626 C 0.02849 0.44213 0.23579 0.0
C627 C 0.9924 0.46629 0.26329 0.0
C628 C 0.04084 0.44144 0.21317 0.0
C629 C 0.03398 0.4679 0.19564 0.0
C630 C 0.00893 0.46933 0.24097 0.0
C631 C 0.01591 0.4964 0.20205 0.0
C632 C 0.97738 0.49613 0.27266 0.0
C633 C 0.97546 0.42693 0.29444 0.0
N634 N 0.00361 0.4961 0.2242 0.0
N635 N 0.99087 0.43282 0.27448 0.0
H636 H 0.55741 0.43223 0.77441 0.0
H637 H 0.45237 0.5271 0.68347 0.0
H638 H 0.51641 0.53329 0.79454 0.0
H639 H 0.46938 0.40993 0.6879 0.0
H640 H 0.48142 0.53683 0.71942 0.0
H641 H 0.533 0.43236 0.73609 0.0
C642 C 0.54351 0.45479 0.77058 0.0
C643 C 0.5385 0.48243 0.78779 0.0
C644 C 0.47859 0.50912 0.71238 0.0
C645 C 0.51016 0.48245 0.74407 0.0
C646 C 0.462 0.5035 0.69202 0.0
C647 C 0.45845 0.46766 0.68262 0.0
C648 C 0.49195 0.47875 0.72292 0.0
C649 C 0.47144 0.43808 0.69436 0.0
C650 C 0.52948 0.45475 0.74876 0.0
C651 C 0.52068 0.5114 0.78171 0.0
N652 N 0.4877 0.44436 0.7137 0.0
N653 N 0.50673 0.51043 0.76036 0.0
H654 H 0.97953 0.47059 0.80726 0.0
H655 H 0.03365 0.59173 0.69869 0.0
H656 H 0.94387 0.57426 0.78467 0.0
H657 H 0.03873 0.47262 0.69301 0.0
H658 H 0.00693 0.58502 0.73528 0.0
H659 H 0.00532 0.46872 0.76885 0.0
C660 C 0.97671 0.49248 0.79408 0.0
C661 C 0.95995 0.52299 0.7993 0.0
C662 C 0.01385 0.56028 0.72606 0.0
C663 C 0.98952 0.52133 0.75612 0.0
C664 C 0.02932 0.56405 0.70519 0.0
C665 C 0.0382 0.53265 0.69251 0.0
C666 C 0.00728 0.52488 0.73466 0.0
C667 C 0.03212 0.49755 0.70216 0.0
C668 C 0.99149 0.49146 0.77232 0.0
C669 C 0.95701 0.55063 0.78167 0.0
N670 N 0.01691 0.49452 0.72277 0.0
N671 N 0.97193 0.54939 0.76108 0.0
H672 H 0.08177 0.14486 0.27405 0.0
H673 H 0.07939 0.34848 0.21987 0.0
H674 H 0.09683 0.2409 0.31841 0.0
H675 H 0.10094 0.25324 0.1769 0.0
H676 H 0.07981 0.30948 0.25628 0.0
H677 H 0.0827 0.18429 0.23793 0.0
C678 C 0.08516 0.1743 0.27612 0.0
C679 C 0.08922 0.18979 0.29912 0.0
C680 C 0.08457 0.29722 0.23888 0.0
C681 C 0.09021 0.23488 0.25813 0.0
C682 C 0.08417 0.31934 0.21816 0.0
C683 C 0.09016 0.30392 0.19547 0.0
C684 C 0.09049 0.25937 0.23673 0.0
C685 C 0.09647 0.26614 0.19414 0.0
C686 C 0.08588 0.19669 0.25557 0.0
C687 C 0.09385 0.22799 0.30092 0.0
N688 N 0.09625 0.24502 0.21449 0.0
N689 N 0.09401 0.24938 0.28066 0.0
H690 H 0.35096 0.68541 0.19174 0.0
H691 H 0.44044 0.7843 0.29416 0.0
H692 H 0.43881 0.68009 0.19447 0.0
H693 H 0.3525 0.7804 0.29508 0.0
H694 H 0.44035 0.74738 0.25711 0.0
H695 H 0.35116 0.72161 0.22906 0.0
C696 C 0.37031 0.69201 0.20012 0.0
C697 C 0.39491 0.67975 0.18992 0.0
C698 C 0.42107 0.75453 0.26545 0.0
C699 C 0.39531 0.72096 0.23279 0.0
C700 C 0.42111 0.7758 0.28652 0.0
C701 C 0.39643 0.78553 0.29772 0.0
C702 C 0.39616 0.74305 0.25539 0.0
C703 C 0.372 0.77322 0.28722 0.0
C704 C 0.37041 0.71248 0.22153 0.0
C705 C 0.41936 0.68861 0.20182 0.0
N706 N 0.37248 0.75273 0.2666 0.0
N707 N 0.41894 0.70878 0.22258 0.0
H708 H 0.54037 0.68278 0.28973 0.0
H709 H 0.63054 0.79582 0.19429 0.0
H710 H 0.62787 0.69315 0.29426 0.0
H711 H 0.54267 0.80076 0.19631 0.0
H712 H 0.62986 0.7557 0.22988 0.0
H713 H 0.54062 0.72365 0.25438 0.0
C714 C 0.55963 0.69357 0.28324 0.0
C715 C 0.58414 0.68456 0.29494 0.0
C716 C 0.61071 0.76561 0.22258 0.0
C717 C 0.58459 0.73138 0.25463 0.0
C718 C 0.61109 0.78831 0.20217 0.0
C719 C 0.58663 0.80157 0.1923 0.0
C720 C 0.58566 0.75585 0.23313 0.0
C721 C 0.56201 0.79145 0.20348 0.0
C722 C 0.55975 0.71706 0.26317 0.0
C723 C 0.60849 0.69971 0.28598 0.0
N724 N 0.56214 0.76904 0.22326 0.0
N725 N 0.6081 0.72226 0.2663 0.0
H726 H 0.94196 0.29286 0.29306 0.0
H727 H 0.85242 0.19021 0.19231 0.0
H728 H 0.85406 0.28749 0.29437 0.0
H729 H 0.94032 0.18566 0.19464 0.0
H730 H 0.85276 0.22875 0.22858 0.0
H731 H 0.94195 0.2563 0.25581 0.0
C732 C 0.92266 0.28416 0.28544 0.0
C733 C 0.89797 0.29315 0.29685 0.0
C734 C 0.87199 0.21932 0.22117 0.0
C735 C 0.89779 0.25117 0.25439 0.0
C736 C 0.8718 0.19752 0.20037 0.0
C737 C 0.89637 0.18468 0.19045 0.0
C738 C 0.89694 0.2285 0.2321 0.0
C739 C 0.92089 0.19455 0.20186 0.0
C740 C 0.92267 0.26311 0.26427 0.0
C741 C 0.87356 0.28074 0.28637 0.0
N742 N 0.92056 0.21593 0.22209 0.0
N743 N 0.87409 0.26042 0.26571 0.0
H744 H 0.94796 0.68641 0.78921 0.0
H745 H 0.86022 0.7853 0.68568 0.0
H746 H 0.86008 0.69216 0.78961 0.0
H747 H 0.94778 0.79419 0.6908 0.0
H748 H 0.86002 0.74738 0.72226 0.0
H749 H 0.94856 0.72236 0.75168 0.0
C750 C 0.92879 0.69508 0.78134 0.0
C751 C 0.90392 0.68633 0.79256 0.0
C752 C 0.8793 0.75761 0.7154 0.0
C753 C 0.90445 0.7276 0.74974 0.0
C754 C 0.87944 0.77904 0.6944 0.0
C755 C 0.90406 0.79292 0.68518 0.0
C756 C 0.90398 0.74981 0.72721 0.0
C757 C 0.92832 0.78441 0.69746 0.0
C758 C 0.92915 0.71578 0.76001 0.0
C759 C 0.8797 0.6987 0.78175 0.0
N760 N 0.92768 0.76334 0.71784 0.0
N761 N 0.88057 0.71864 0.76091 0.0
H762 H 0.60184 0.26564 0.80984 0.0
H763 H 0.60221 0.25567 0.66585 0.0
H764 H 0.58281 0.36016 0.76523 0.0
H765 H 0.58438 0.16072 0.71051 0.0
H766 H 0.60199 0.29476 0.70218 0.0
H767 H 0.60241 0.22667 0.77347 0.0
C768 C 0.59795 0.27815 0.79235 0.0
C769 C 0.59226 0.31605 0.79042 0.0
C770 C 0.59808 0.26537 0.70398 0.0
C771 C 0.59299 0.27195 0.74896 0.0
C772 C 0.59838 0.24311 0.68334 0.0
C773 C 0.59327 0.20504 0.68529 0.0
C774 C 0.59316 0.24925 0.72672 0.0
C775 C 0.58815 0.19005 0.7083 0.0
C776 C 0.59809 0.25594 0.77169 0.0
C777 C 0.58704 0.33096 0.76741 0.0
N778 N 0.58841 0.21217 0.72819 0.0
N779 N 0.58771 0.30889 0.7475 0.0
H780 H 0.44563 0.30041 0.68801 0.0
H781 H 0.35564 0.18979 0.78494 0.0
H782 H 0.358 0.29114 0.68415 0.0
H783 H 0.44363 0.1908 0.78513 0.0
H784 H 0.35604 0.22799 0.74842 0.0
H785 H 0.44532 0.2613 0.72412 0.0
C786 C 0.42632 0.29027 0.69481 0.0
C787 C 0.4018 0.2991 0.68307 0.0
C788 C 0.37527 0.21978 0.75642 0.0
C789 C 0.40128 0.25412 0.72427 0.0
C790 C 0.37504 0.19816 0.77735 0.0
C791 C 0.39963 0.18714 0.78813 0.0
C792 C 0.40028 0.23064 0.74625 0.0
C793 C 0.4242 0.1983 0.77729 0.0
C794 C 0.42616 0.26776 0.71534 0.0
C795 C 0.3774 0.2847 0.69246 0.0
N796 N 0.4239 0.21955 0.75699 0.0
N797 N 0.37775 0.26302 0.71256 0.0
H798 H 0.13971 0.70344 0.68733 0.0
H799 H 0.05202 0.81112 0.78707 0.0
H800 H 0.05191 0.69899 0.69163 0.0
H801 H 0.13995 0.80672 0.78748 0.0
H802 H 0.05163 0.77266 0.75078 0.0
H803 H 0.14029 0.74409 0.72269 0.0
C804 C 0.12055 0.71122 0.69562 0.0
C805 C 0.09573 0.69776 0.68656 0.0
C806 C 0.07103 0.78009 0.7588 0.0
C807 C 0.09623 0.74396 0.72711 0.0
C808 C 0.07126 0.80225 0.77944 0.0
C809 C 0.09607 0.81217 0.79031 0.0
C810 C 0.09579 0.76784 0.74887 0.0
C811 C 0.12038 0.79936 0.77985 0.0
C812 C 0.1209 0.73422 0.71589 0.0
C813 C 0.07152 0.70831 0.69821 0.0
N814 N 0.11963 0.77789 0.75967 0.0
N815 N 0.07237 0.73081 0.71787 0.0
H816 H 0.05538 0.98589 0.43905 0.0
H817 H 0.93785 0.98662 0.53951 0.0
H818 H 0.9701 0.00092 0.42272 0.0
H819 H 0.02332 0.97342 0.55582 0.0
H820 H 0.94916 0.99163 0.49651 0.0
H821 H 0.04385 0.97897 0.48189 0.0
C822 C 0.0342 0.98734 0.44452 0.0
C823 C 0.01369 0.99413 0.4274 0.0
C824 C 0.96547 0.98784 0.5095 0.0
C825 C 0.00031 0.98661 0.47626 0.0
C826 C 0.95902 0.98508 0.53401 0.0
C827 C 0.97966 0.97957 0.5512 0.0
C828 C 0.99278 0.98495 0.50215 0.0
C829 C 0.0068 0.97809 0.54322 0.0
C830 C 0.02762 0.98351 0.46892 0.0
C831 C 0.98652 -0.00461 0.43528 0.0
N832 N 0.01256 0.98055 0.51923 0.0
N833 N 0.98063 0.99196 0.45921 0.0
H834 H 0.45679 0.91707 0.45283 0.0
H835 H 0.53944 0.05803 0.5365 0.0
H836 H 0.50111 0.01155 0.42548 0.0
H837 H 0.49638 0.96286 0.56446 0.0
H838 H 0.52595 0.04079 0.49573 0.0
H839 H 0.47064 0.93348 0.49383 0.0
C840 C 0.46918 0.94153 0.45544 0.0
C841 C 0.47769 0.96317 0.43569 0.0
C842 C 0.51952 0.02353 0.51074 0.0
C843 C 0.49401 0.98168 0.48259 0.0
C844 C 0.52746 0.03316 0.53408 0.0
C845 C 0.51923 0.01161 0.55397 0.0
C846 C 0.50314 0.99218 0.50716 0.0
C847 C 0.50302 0.98031 0.54964 0.0
C848 C 0.47729 0.95068 0.47888 0.0
C849 C 0.49429 0.994 0.44018 0.0
N850 N 0.49548 0.97151 0.52668 0.0
N851 N 0.5019 0.00236 0.46317 0.0
H852 H 0.45281 0.06377 0.94732 0.0
H853 H 0.5426 0.94648 0.0402 0.0
H854 H 0.51366 0.98417 0.92553 0.0
H855 H 0.48234 0.02657 0.0626 0.0
H856 H 0.53313 0.96144 -0.00182 0.0
H857 H 0.46332 0.05077 0.98959 0.0
C858 C 0.46815 0.04319 0.9514 0.0
C859 C 0.48228 0.02477 0.93284 0.0
C860 C 0.52206 0.97593 0.01226 0.0
C861 C 0.49478 0.01035 0.98126 0.0
C862 C 0.52766 0.96768 0.03636 0.0
C863 C 0.51332 0.98548 0.05504 0.0
C864 C 0.50189 0.00208 0.0067 0.0
C865 C 0.49368 0.012 0.04876 0.0
C866 C 0.47433 0.03606 0.97558 0.0
C867 C 0.50244 -0.00088 0.93927 0.0
N868 N 0.48848 0.01946 0.02509 0.0
N869 N 0.50808 0.99264 0.96297 0.0
H870 H 0.94614 0.04896 0.03696 0.0
H871 H 0.04096 0.93834 0.94461 0.0
H872 H 0.0036 0.965 0.0591 0.0
H873 H 0.98518 0.02461 0.92296 0.0
H874 H 0.02698 0.94687 0.98651 0.0
H875 H 0.95856 0.03814 -0.00504 0.0
C876 C 0.96105 0.02776 0.03301 0.0
C877 C 0.97382 0.00771 0.05162 0.0
C878 C 0.01786 0.96406 0.97263 0.0
C879 C 0.98863 -0.00412 0.00345 0.0
C880 C 0.02606 0.95951 0.94868 0.0
C881 C 0.01439 0.98113 0.93026 0.0
C882 C -0.00219 0.99035 0.97822 0.0
C883 C 0.99458 0.00732 0.93661 0.0
C884 C 0.96836 0.0219 0.00896 0.0
C885 C 0.99347 0.98126 0.04531 0.0
N886 N 0.9869 0.01123 0.96009 0.0
N887 N 0.00036 0.97617 0.02173 0.0
H888 H 0.5527 0.47953 0.43475 0.0
H889 H 0.43789 0.49266 0.53724 0.0
H890 H 0.4674 0.49804 0.42 0.0
H891 H 0.52279 0.47205 0.55247 0.0
H892 H 0.44854 0.49558 0.49406 0.0
H893 H 0.5422 0.4753 0.47798 0.0
C894 C 0.53173 0.48225 0.44063 0.0
C895 C 0.51092 0.48925 0.42383 0.0
C896 C 0.46489 0.49063 0.50684 0.0
C897 C 0.49877 0.48488 0.47309 0.0
C898 C 0.45882 0.48912 0.53144 0.0
C899 C 0.47946 0.48204 0.54836 0.0
C900 C 0.49184 0.48494 0.49912 0.0
C901 C 0.50632 0.47796 0.54004 0.0
C902 C 0.52576 0.47998 0.46526 0.0
C903 C 0.48404 0.49224 0.43228 0.0
N904 N 0.51172 0.47923 0.51593 0.0
N905 N 0.47877 0.49034 0.45637 0.0
H906 H 0.02799 0.56303 0.54224 0.0
H907 H 0.9427 0.43114 0.45467 0.0
H908 H 0.98368 0.46707 0.56725 0.0
H909 H 0.99433 0.52009 0.42963 0.0
H910 H 0.95298 0.44822 0.49638 0.0
H911 H 0.0121 0.5512 0.5013 0.0
C912 C 0.01518 0.53913 0.53906 0.0
C913 C 0.0076 0.51543 0.55807 0.0
C914 C 0.96189 0.46418 0.48177 0.0
C915 C 0.9888 0.50224 0.51123 0.0
C916 C 0.95583 0.45468 0.45793 0.0
C917 C 0.96778 0.47423 0.43866 0.0
C918 C 0.98001 0.49341 0.48633 0.0
C919 C 0.98502 0.50406 0.44399 0.0
C920 C 0.00586 0.53263 0.51569 0.0
C921 C 0.99006 0.48581 0.55302 0.0
N922 N 0.99073 0.51264 0.46735 0.0
N923 N 0.98134 0.47988 0.53 0.0
H924 H 0.97823 0.5228 0.06691 0.0
H925 H 0.00457 0.46776 0.92836 0.0
H926 H 0.03418 0.43758 0.0439 0.0
H927 H 0.94914 0.55395 0.95078 0.0
H928 H 0.01462 0.45496 0.97092 0.0
H929 H 0.96624 0.5338 0.02444 0.0
C930 C 0.98803 0.50656 0.05292 0.0
C931 C 0.00741 0.47958 0.05892 0.0
C932 C 0.00013 0.47654 0.96651 0.0
C933 C 0.99385 0.49176 0.01049 0.0
C934 C 0.99444 0.48384 0.94225 0.0
C935 C 0.97601 0.51188 0.93603 0.0
C936 C 0.98736 0.49759 0.98465 0.0
C937 C 0.96318 0.5317 0.95471 0.0
C938 C 0.98123 0.5128 0.02873 0.0
C939 C 0.01961 0.45927 0.04014 0.0
N940 N 0.96921 0.52429 0.97819 0.0
N941 N 0.01259 0.46577 0.01678 0.0
H942 H 0.55125 0.51064 0.93412 0.0
H943 H 0.43429 0.50515 0.03514 0.0
H944 H 0.46632 0.49058 0.91838 0.0
H945 H 0.51945 0.52339 0.05086 0.0
H946 H 0.44542 0.50094 -0.00793 0.0
H947 H 0.53971 0.5179 0.97692 0.0
C948 C 0.53016 0.50804 0.93967 0.0
C949 C 0.50976 0.49984 0.92271 0.0
C950 C 0.46168 0.50574 0.00496 0.0
C951 C 0.49637 0.50792 0.97155 0.0
C952 C 0.45533 0.50812 0.02951 0.0
C953 C 0.47595 0.51457 0.04659 0.0
C954 C 0.48887 0.50993 -0.00255 0.0
C955 C 0.50294 0.51786 0.03839 0.0
C956 C 0.52357 0.51215 0.96407 0.0
C957 C 0.48268 0.49723 0.93077 0.0
N958 N 0.5086 0.51562 0.01438 0.0
N959 N 0.4768 0.501 0.95466 0.0
H960 H 0.17164 0.98087 0.39671 0.0
H961 H 0.32134 0.00545 0.34091 0.0
H962 H 0.19116 0.05623 0.33847 0.0
H963 H 0.30206 0.92854 0.39833 0.0
H964 H 0.27406 0.02665 0.34121 0.0
H965 H 0.21978 0.96356 0.39913 0.0
C966 C 0.18607 0.99386 0.3845 0.0
C967 C 0.17733 0.01978 0.36722 0.0
C968 C 0.2802 0.00527 0.35385 0.0
C969 C 0.23237 5e-05 0.36982 0.0
C970 C 0.30716 0.9931 0.35363 0.0
C971 C 0.31564 0.96512 0.36956 0.0
C972 C 0.2615 0.98925 0.37006 0.0
C973 C 0.2965 0.95046 0.3859 0.0
C974 C 0.21352 0.9839 0.38583 0.0
C975 C 0.19688 0.03557 0.35174 0.0
N976 N 0.27029 0.96256 0.38563 0.0
N977 N 0.22344 0.02542 0.35339 0.0
H978 H 0.80509 0.0318 0.15895 0.0
H979 H 0.67294 0.98786 0.08347 0.0
H980 H 0.8117 0.99449 0.08469 0.0
H981 H 0.68062 0.95596 0.15874 0.0
H982 H 0.7218 0.00186 0.08279 0.0
H983 H 0.75702 0.01552 0.15855 0.0
C984 C 0.79673 0.01971 0.14262 0.0
C985 C 0.81291 0.0141 0.1219 0.0
C986 C 0.71256 0.99183 0.09939 0.0
C987 C 0.75726 -0.00294 0.12117 0.0
C988 C 0.68471 0.9837 0.09984 0.0
C989 C 0.6723 0.97084 0.12125 0.0
C990 C 0.72798 0.98784 0.1206 0.0
C991 C 0.68879 0.96675 0.14196 0.0
C992 C 0.76912 0.01081 0.14241 0.0
C993 C 0.80018 -0.00025 0.10104 0.0
N994 N 0.71567 0.9755 0.14114 0.0
N995 N 0.77304 0.99195 0.10116 0.0
H996 H 0.69326 0.06323 0.58969 0.0
H997 H 0.80473 0.93012 0.64967 0.0
H998 H 0.67616 0.98826 0.64873 0.0
H999 H 0.82288 0.00726 0.59208 0.0
H1000 H 0.75733 0.95031 0.64896 0.0
H1001 H 0.74042 0.04161 0.58924 0.0
C1002 C 0.69935 0.04194 0.6024 0.0
C1003 C 0.68072 0.02747 0.61926 0.0
C1004 C 0.77166 0.96289 0.63649 0.0
C1005 C 0.73479 0.00301 0.61908 0.0
C1006 C 0.7988 0.95157 0.63701 0.0
C1007 C 0.81787 0.96727 0.62104 0.0
C1008 C 0.76343 0.99009 0.61987 0.0
C1009 C 0.80883 0.99428 0.60461 0.0
C1010 C 0.72634 0.02981 0.60225 0.0
C1011 C 0.6899 0.00045 0.6356 0.0
N1012 N 0.78226 0.0049 0.60448 0.0
N1013 N 0.71629 0.98911 0.63511 0.0
H1014 H 0.31975 0.00646 0.90504 0.0
H1015 H 0.18867 0.95874 0.82819 0.0
H1016 H 0.31262 0.03284 0.82883 0.0
H1017 H 0.18056 -0.00312 0.90212 0.0
H1018 H 0.23686 0.97391 0.82947 0.0
H1019 H 0.27095 0.99151 0.90568 0.0
C1020 C 0.30812 0.00912 0.88846 0.0
C1021 C 0.32066 0.02064 0.86677 0.0
C1022 C 0.22445 0.97905 0.84537 0.0
C1023 C 0.26512 0.00272 0.86743 0.0
C1024 C 0.19678 0.97079 0.84463 0.0
C1025 C 0.18012 0.97725 0.86493 0.0
C1026 C 0.2359 0.99311 0.86669 0.0
C1027 C 0.19248 0.99129 0.88604 0.0
C1028 C 0.28031 0.00048 0.88889 0.0
C1029 C 0.30438 0.02303 0.84584 0.0
N1030 N 0.21971 -0.00132 0.88641 0.0
N1031 N 0.27759 0.01391 0.84668 0.0
H1032 H 0.81157 0.4825 0.40298 0.0
H1033 H 0.68419 0.53537 0.32508 0.0
H1034 H 0.80505 0.4469 0.32832 0.0
H1035 H 0.67219 0.48736 0.39618 0.0
H1036 H 0.73206 0.51808 0.32707 0.0
H1037 H 0.76327 0.49942 0.40205 0.0
C1038 C 0.80021 0.47814 0.38642 0.0
C1039 C 0.81277 0.46319 0.36567 0.0
C1040 C 0.71879 0.51144 0.34217 0.0
C1041 C 0.75787 0.48388 0.36445 0.0
C1042 C 0.69132 0.52087 0.34102 0.0
C1043 C 0.67367 0.51238 0.36036 0.0
C1044 C 0.72899 0.49441 0.36304 0.0
C1045 C 0.68485 0.49495 0.38091 0.0
C1046 C 0.7727 0.48801 0.38595 0.0
C1047 C 0.79683 0.45917 0.34462 0.0
N1048 N 0.71188 0.48674 0.38179 0.0
N1049 N 0.77031 0.46975 0.34451 0.0
H1050 H 0.3109 0.49651 0.07687 0.0
H1051 H 0.18156 0.45508 0.15608 0.0
H1052 H 0.30242 0.53781 0.15003 0.0
H1053 H 0.17059 0.48733 0.0812 0.0
H1054 H 0.22924 0.47251 0.15325 0.0
H1055 H 0.26208 0.48119 0.07696 0.0
C1056 C 0.29896 0.50243 0.0929 0.0
C1057 C 0.31114 0.51791 0.11364 0.0
C1058 C 0.21629 0.47583 0.13749 0.0
C1059 C 0.25571 0.49963 0.1139 0.0
C1060 C 0.18891 0.46628 0.1391 0.0
C1061 C 0.17157 0.47044 0.11899 0.0
C1062 C 0.22682 0.48878 0.11549 0.0
C1063 C 0.18304 0.48345 0.09718 0.0
C1064 C 0.27117 0.49359 0.09289 0.0
C1065 C 0.29446 0.52467 0.13391 0.0
N1066 N 0.21005 0.49206 0.09596 0.0
N1067 N 0.26776 0.5151 0.1336 0.0
H1068 H 0.30467 0.43599 0.5862 0.0
H1069 H 0.19052 0.56236 0.6482 0.0
H1070 H 0.32116 0.51612 0.64233 0.0
H1071 H 0.17283 0.48181 0.59262 0.0
H1072 H 0.23867 0.54669 0.64536 0.0
H1073 H 0.25671 0.45423 0.58675 0.0
C1074 C 0.29827 0.45777 0.59841 0.0
C1075 C 0.31694 0.47456 0.61427 0.0
C1076 C 0.22431 0.53235 0.63379 0.0
C1077 C 0.26202 0.49508 0.61527 0.0
C1078 C 0.19674 0.54105 0.63556 0.0
C1079 C 0.17757 0.52303 0.62082 0.0
C1080 C 0.23288 0.50542 0.61714 0.0
C1081 C 0.18694 0.49642 0.60428 0.0
C1082 C 0.27085 0.46795 0.59885 0.0
C1083 C 0.3074 0.50215 0.63 0.0
N1084 N 0.21396 0.48832 0.60294 0.0
N1085 N 0.2806 0.51146 0.63015 0.0
H1086 H 0.68653 0.46066 0.82842 0.0
H1087 H 0.8151 0.50984 0.90717 0.0
H1088 H 0.67506 0.5039 0.90078 0.0
H1089 H 0.80927 0.53852 0.83122 0.0
H1090 H 0.76614 0.49556 0.90706 0.0
H1091 H 0.73462 0.47604 0.83098 0.0
C1092 C 0.69388 0.47384 0.84477 0.0
C1093 C 0.67629 0.48178 0.8642 0.0
C1094 C 0.77584 0.50493 0.89051 0.0
C1095 C 0.73195 0.49781 0.86751 0.0
C1096 C 0.80372 0.5132 0.8905 0.0
C1097 C 0.81669 0.52497 0.86907 0.0
C1098 C 0.76105 0.50775 0.86886 0.0
C1099 C 0.80071 0.52835 0.84802 0.0
C1100 C 0.72149 0.48222 0.84625 0.0
C1101 C 0.68771 0.49719 0.88533 0.0
N1102 N 0.77388 0.51944 0.84842 0.0
N1103 N 0.7149 0.50464 0.88647 0.0
H1104 H 0.05691 0.17158 0.4124 0.0
H1105 H 0.91978 0.28964 0.40712 0.0
H1106 H 0.98036 0.13115 0.38452 0.0
H1107 H 0.00049 0.33462 0.39748 0.0
H1108 H 0.94014 0.22948 0.41745 0.0
H1109 H 0.0339 0.22854 0.42546 0.0
C1110 C 0.0351 0.17417 0.40982 0.0
C1111 C 0.02049 0.14715 0.39704 0.0
C1112 C 0.95333 0.25292 0.41387 0.0
C1113 C 0.99426 0.21158 0.41195 0.0
C1114 C 0.94177 0.28718 0.40814 0.0
C1115 C 0.95861 0.31667 0.4012 0.0
C1116 C 0.98179 0.24869 0.41297 0.0
C1117 C 0.98693 0.3122 0.40249 0.0
C1118 C 0.02205 0.20664 0.41717 0.0
C1119 C 0.99233 0.15177 0.394 0.0
N1120 N -0.00231 0.27863 0.40796 0.0
N1121 N 0.98014 0.18367 0.40113 0.0
H1122 H 0.50123 0.83025 0.39487 0.0
H1123 H 0.47759 0.62415 0.38152 0.0
H1124 H 0.42109 0.78448 0.40626 0.0
H1125 H 0.55473 0.66498 0.40774 0.0
H1126 H 0.45559 0.68064 0.39592 0.0
H1127 H 0.52125 0.77046 0.40535 0.0
C1128 C 0.48793 0.80776 0.40033 0.0
C1129 C 0.45957 0.81188 0.39952 0.0
C1130 C 0.47718 0.67686 0.39922 0.0
C1131 C 0.48212 0.74329 0.41064 0.0
C1132 C 0.48973 0.6447 0.39091 0.0
C1133 C 0.518 0.64039 0.39315 0.0
C1134 C 0.49323 0.70532 0.40907 0.0
C1135 C 0.53287 0.66752 0.40557 0.0
C1136 C 0.49932 0.77368 0.40635 0.0
C1137 C 0.4431 0.78216 0.4067 0.0
N1138 N 0.52043 0.69944 0.41246 0.0
N1139 N 0.4546 0.74864 0.41128 0.0
H1140 H 0.47922 0.84949 0.10245 0.0
H1141 H 0.50272 0.64167 0.09617 0.0
H1142 H 0.55746 0.80692 0.08037 0.0
H1143 H 0.4237 0.68685 0.07913 0.0
H1144 H 0.52357 0.70118 0.08609 0.0
H1145 H 0.45793 0.79147 0.08977 0.0
C1146 C 0.49178 0.82814 0.09435 0.0
C1147 C 0.52009 0.83256 0.09268 0.0
C1148 C 0.50176 0.69786 0.08384 0.0
C1149 C 0.49612 0.76599 0.07877 0.0
C1150 C 0.48988 0.66397 0.08967 0.0
C1151 C 0.46152 0.65975 0.08869 0.0
C1152 C 0.48499 0.72797 0.07784 0.0
C1153 C 0.44569 0.68923 0.08013 0.0
C1154 C 0.47964 0.79513 0.08702 0.0
C1155 C 0.53553 0.80435 0.08199 0.0
N1156 N 0.45757 0.72257 0.07567 0.0
N1157 N 0.52344 0.77172 0.07603 0.0
H1158 H 0.00202 0.14026 0.09424 0.0
H1159 H 0.9782 0.34668 0.11094 0.0
H1160 H 0.9217 0.18606 0.08431 0.0
H1161 H 0.05461 0.30782 0.08191 0.0
H1162 H 0.95634 0.28948 0.09747 0.0
H1163 H 0.02183 0.20083 0.08519 0.0
C1164 C 0.98864 0.16294 0.08935 0.0
C1165 C 0.96029 0.15852 0.09012 0.0
C1166 C 0.97772 0.2938 0.09345 0.0
C1167 C 0.98259 0.22792 0.0807 0.0
C1168 C 0.99021 0.32632 0.10126 0.0
C1169 C 0.01824 0.33153 0.09778 0.0
C1170 C 0.99361 0.2659 0.0828 0.0
C1171 C 0.03293 0.30461 0.085 0.0
C1172 C -9e-05 0.19746 0.08419 0.0
C1173 C 0.9437 0.18854 0.0838 0.0
N1174 N 0.02058 0.27239 0.07852 0.0
N1175 N 0.95509 0.2224 0.08004 0.0
H1176 H 0.00938 0.84888 0.59021 0.0
H1177 H 0.98651 0.64171 0.59654 0.0
H1178 H 0.93036 0.80241 0.57465 0.0
H1179 H 0.06512 0.68544 0.57648 0.0
H1180 H 0.96511 0.6987 0.58228 0.0
H1181 H 0.03057 0.79037 0.57862 0.0
C1182 C -0.00341 0.82659 0.58358 0.0
C1183 C 0.96816 0.83005 0.58364 0.0
C1184 C 0.98695 0.69553 0.58027 0.0
C1185 C 0.99204 0.76281 0.57119 0.0
C1186 C -0.00086 0.66306 0.58848 0.0
C1187 C 0.02755 0.65936 0.58793 0.0
C1188 C 0.00344 0.72491 0.57229 0.0
C1189 C 0.04311 0.68751 0.57726 0.0
C1190 C 0.00866 0.79321 0.57694 0.0
C1191 C 0.9524 0.80061 0.57489 0.0
N1192 N 0.03091 0.71969 0.57048 0.0
N1193 N 0.96451 0.7677 0.56969 0.0
H1194 H 0.50815 0.35331 0.59028 0.0
H1195 H 0.48791 0.14556 0.59361 0.0
H1196 H 0.42979 0.30605 0.57319 0.0
H1197 H 0.56582 0.19164 0.5736 0.0
H1198 H 0.46572 0.20256 0.58031 0.0
H1199 H 0.53002 0.29544 0.57828 0.0
C1200 C 0.49566 0.33096 0.5833 0.0
C1201 C 0.46721 0.33401 0.58296 0.0
C1202 C 0.48758 0.19988 0.57809 0.0
C1203 C 0.49186 0.26753 0.56997 0.0
C1204 C 0.50022 0.16741 0.58574 0.0
C1205 C 0.52867 0.16435 0.58495 0.0
C1206 C 0.50366 0.22987 0.57043 0.0
C1207 C 0.54379 0.19317 0.57455 0.0
C1208 C 0.50812 0.29799 0.57639 0.0
C1209 C 0.45183 0.30454 0.57375 0.0
N1210 N 0.53116 0.2253 0.56833 0.0
N1211 N 0.4643 0.27199 0.56827 0.0
H1212 H 0.50766 0.1551 0.88239 0.0
H1213 H 0.55804 0.32806 0.90524 0.0
H1214 H 0.42762 0.19952 0.89614 0.0
H1215 H 0.48251 0.35777 0.87026 0.0
H1216 H 0.53786 0.26835 0.91673 0.0
H1217 H 0.5276 0.21504 0.8926 0.0
C1218 C 0.4944 0.17733 0.88828 0.0
C1219 C 0.46606 0.17271 0.8884 0.0
C1220 C 0.52561 0.28828 0.90691 0.0
C1221 C 0.48853 0.24131 0.89978 0.0
C1222 C 0.537 0.32239 0.90054 0.0
C1223 C 0.52203 0.34734 0.88636 0.0
C1224 C 0.49912 0.27949 0.89909 0.0
C1225 C 0.49486 0.33883 0.88079 0.0
C1226 C 0.50576 0.21143 0.89431 0.0
C1227 C 0.44961 0.20218 0.89599 0.0
N1228 N 0.48433 0.30537 0.88695 0.0
N1229 N 0.46106 0.23573 0.90069 0.0
H1230 H 0.9319 0.68782 0.90865 0.0
H1231 H 0.98814 0.85605 0.88164 0.0
H1232 H 0.00936 0.65126 0.88046 0.0
H1233 H 0.06612 0.80939 0.90058 0.0
H1234 H 0.96605 0.79835 0.89365 0.0
H1235 H 0.95259 0.7479 0.91856 0.0
C1236 C 0.9534 0.69215 0.90514 0.0
C1237 C 0.96888 0.66507 0.89326 0.0
C1238 C 0.98786 0.80106 0.8961 0.0
C1239 C 0.99239 0.73329 0.90412 0.0
C1240 C 0.00047 0.83388 0.88903 0.0
C1241 C 0.0289 0.83714 0.89004 0.0
C1242 C 0.00394 0.77101 0.9036 0.0
C1243 C 0.0441 0.80779 0.89964 0.0
C1244 C 0.9651 0.72645 0.91057 0.0
C1245 C -0.00335 0.67185 0.88916 0.0
N1246 N 0.03147 0.7754 0.90539 0.0
N1247 N 0.00748 0.70549 0.89434 0.0
loop_
_geom_bond_atom_site_label_1
_geom_bond_atom_site_label_2
_geom_bond_distance
_geom_bond_site_symmetry_2
_ccdc_geom_bond_type
Co0 N4 2.148 . S
Co0 N10 2.128 . S
Co0 N20 2.194 . S
Co0 O25 2.351 . S
Co0 O26 2.155 . S
Co0 O27 2.096 . S
C1 N4 1.301 . S
C1 N5 1.328 . S
C1 H6 0.930 . S
C2 C3 1.333 . S
C2 N4 1.317 . S
C2 H7 0.930 . S
C3 C2 1.333 . S
C3 N5 1.350 . S
C3 H29 0.931 . S
N4 Co0 2.148 . S
N4 C1 1.301 . S
N4 C2 1.317 . S
N5 C1 1.328 . S
N5 C3 1.350 . S
H6 C1 0.930 . S
H7 C2 0.930 . S
C8 O9 1.224 . S
C8 O27 1.247 . S
O9 C8 1.224 . S
N10 Co0 2.128 . S
N10 C11 1.355 . S
N10 C13 1.311 . S
C11 N10 1.355 . S
C11 C12 1.363 . S
C11 H23 0.929 . S
C12 C11 1.363 . S
C12 N14 1.375 . S
C12 H30 0.931 . S
C13 N10 1.311 . S
C13 N14 1.347 . S
C13 H24 0.929 . S
N14 C12 1.375 . S
N14 C13 1.347 . S
C15 C18 1.365 . S
C15 N20 1.328 . S
C15 H21 0.929 . S
C16 C17 1.362 . S
C16 C19 1.378 . S
C16 H31 0.929 . S
C17 C16 1.362 . S
C17 C18 1.366 . S
C18 C15 1.365 . S
C18 C17 1.366 . S
C18 H32 0.930 . S
C19 C16 1.378 . S
C19 N20 1.315 . S
C19 H22 0.930 . S
N20 Co0 2.194 . S
N20 C15 1.328 . S
N20 C19 1.315 . S
H21 C15 0.929 . S
H22 C19 0.930 . S
H23 C11 0.929 . S
H24 C13 0.929 . S
O25 Co0 2.351 . S
O25 C28 1.244 . S
O26 Co0 2.155 . S
O26 C28 1.240 . S
O27 Co0 2.096 . S
O27 C8 1.247 . S
C28 O25 1.244 . S
C28 O26 1.240 . S
H29 C3 0.931 . S
H30 C12 0.931 . S
H31 C16 0.929 . S
H32 C18 0.930 . S
Co33 N37 2.148 . S
Co33 N43 2.128 . S
Co33 N53 2.194 . S
Co33 O58 2.351 . S
Co33 O59 2.155 . S
Co33 O60 2.096 . S
C34 N37 1.301 . S
C34 N38 1.328 . S
C34 H39 0.930 . S
C35 C36 1.333 . S
C35 N37 1.317 . S
C35 H40 0.930 . S
C36 C35 1.333 . S
C36 N38 1.350 . S
C36 H62 0.931 . S
N37 Co33 2.148 . S
N37 C34 1.301 . S
N37 C35 1.317 . S
N38 C34 1.328 . S
N38 C36 1.350 . S
H39 C34 0.930 . S
H40 C35 0.930 . S
C41 O42 1.224 . S
C41 O60 1.247 . S
O42 C41 1.224 . S
N43 Co33 2.128 . S
N43 C44 1.355 . S
N43 C46 1.311 . S
C44 N43 1.355 . S
C44 C45 1.363 . S
C44 H56 0.929 . S
C45 C44 1.363 . S
C45 N47 1.375 . S
C45 H63 0.931 . S
C46 N43 1.311 . S
C46 N47 1.347 . S
C46 H57 0.929 . S
N47 C45 1.375 . S
N47 C46 1.347 . S
C48 C51 1.365 . S
C48 N53 1.328 . S
C48 H54 0.929 . S
C49 C50 1.362 . S
C49 C52 1.378 . S
C49 H64 0.929 . S
C50 C49 1.362 . S
C50 C51 1.366 . S
C51 C48 1.365 . S
C51 C50 1.366 . S
C51 H65 0.930 . S
C52 C49 1.378 . S
C52 N53 1.315 . S
C52 H55 0.930 . S
N53 Co33 2.194 . S
N53 C48 1.328 . S
N53 C52 1.315 . S
H54 C48 0.929 . S
H55 C52 0.930 . S
H56 C44 0.929 . S
H57 C46 0.929 . S
O58 Co33 2.351 . S
O58 C61 1.244 . S
O59 Co33 2.155 . S
O59 C61 1.240 . S
O60 Co33 2.096 . S
O60 C41 1.247 . S
C61 O58 1.244 . S
C61 O59 1.240 . S
H62 C36 0.931 . S
H63 C45 0.931 . S
H64 C49 0.929 . S
H65 C51 0.930 . S
Co66 N70 2.148 . S
Co66 N76 2.128 . S
Co66 N86 2.194 . S
Co66 O91 2.351 . S
Co66 O92 2.155 . S
Co66 O93 2.096 . S
C67 N70 1.301 . S
C67 N71 1.328 . S
C67 H72 0.930 . S
C68 C69 1.333 . S
C68 N70 1.317 . S
C68 H73 0.930 . S
C69 C68 1.333 . S
C69 N71 1.350 . S
C69 H95 0.931 . S
N70 Co66 2.148 . S
N70 C67 1.301 . S
N70 C68 1.317 . S
N71 C67 1.328 . S
N71 C69 1.350 . S
H72 C67 0.930 . S
H73 C68 0.930 . S
C74 O75 1.224 . S
C74 O93 1.247 . S
O75 C74 1.224 . S
N76 Co66 2.128 . S
N76 C77 1.355 . S
N76 C79 1.311 . S
C77 N76 1.355 . S
C77 C78 1.363 . S
C77 H89 0.929 . S
C78 C77 1.363 . S
C78 N80 1.375 . S
C78 H96 0.931 . S
C79 N76 1.311 . S
C79 N80 1.347 . S
C79 H90 0.929 . S
N80 C78 1.375 . S
N80 C79 1.347 . S
C81 C84 1.365 . S
C81 N86 1.328 . S
C81 H87 0.929 . S
C82 C83 1.362 . S
C82 C85 1.378 . S
C82 H97 0.929 . S
C83 C82 1.362 . S
C83 C84 1.366 . S
C84 C81 1.365 . S
C84 C83 1.366 . S
C84 H98 0.930 . S
C85 C82 1.378 . S
C85 N86 1.315 . S
C85 H88 0.930 . S
N86 Co66 2.194 . S
N86 C81 1.328 . S
N86 C85 1.315 . S
H87 C81 0.929 . S
H88 C85 0.930 . S
H89 C77 0.929 . S
H90 C79 0.929 . S
O91 Co66 2.351 . S
O91 C94 1.244 . S
O92 Co66 2.155 . S
O92 C94 1.240 . S
O93 Co66 2.096 . S
O93 C74 1.247 . S
C94 O91 1.244 . S
C94 O92 1.240 . S
H95 C69 0.931 . S
H96 C78 0.931 . S
H97 C82 0.929 . S
H98 C84 0.930 . S
Co99 N103 2.148 . S
Co99 N109 2.128 . S
Co99 N119 2.194 . S
Co99 O124 2.351 . S
Co99 O125 2.155 . S
Co99 O126 2.096 . S
C100 N103 1.301 . S
C100 N104 1.328 . S
C100 H105 0.930 . S
C101 C102 1.333 . S
C101 N103 1.317 . S
C101 H106 0.930 . S
C102 C101 1.333 . S
C102 N104 1.350 . S
C102 H128 0.931 . S
N103 Co99 2.148 . S
N103 C100 1.301 . S
N103 C101 1.317 . S
N104 C100 1.328 . S
N104 C102 1.350 . S
H105 C100 0.930 . S
H106 C101 0.930 . S
C107 O108 1.224 . S
C107 O126 1.247 . S
O108 C107 1.224 . S
N109 Co99 2.128 . S
N109 C110 1.355 . S
N109 C112 1.311 . S
C110 N109 1.355 . S
C110 C111 1.363 . S
C110 H122 0.929 . S
C111 C110 1.363 . S
C111 N113 1.375 . S
C111 H129 0.931 . S
C112 N109 1.311 . S
C112 N113 1.347 . S
C112 H123 0.929 . S
N113 C111 1.375 . S
N113 C112 1.347 . S
C114 C117 1.365 . S
C114 N119 1.328 . S
C114 H120 0.929 . S
C115 C116 1.362 . S
C115 C118 1.378 . S
C115 H130 0.929 . S
C116 C115 1.362 . S
C116 C117 1.366 . S
C117 C114 1.365 . S
C117 C116 1.366 . S
C117 H131 0.930 . S
C118 C115 1.378 . S
C118 N119 1.315 . S
C118 H121 0.930 . S
N119 Co99 2.194 . S
N119 C114 1.328 . S
N119 C118 1.315 . S
H120 C114 0.929 . S
H121 C118 0.930 . S
H122 C110 0.929 . S
H123 C112 0.929 . S
O124 Co99 2.351 . S
O124 C127 1.244 . S
O125 Co99 2.155 . S
O125 C127 1.240 . S
O126 Co99 2.096 . S
O126 C107 1.247 . S
C127 O124 1.244 . S
C127 O125 1.240 . S
H128 C102 0.931 . S
H129 C111 0.931 . S
H130 C115 0.929 . S
H131 C117 0.930 . S
Co132 N136 2.148 . S
Co132 N142 2.128 . S
Co132 N152 2.194 . S
Co132 O157 2.351 . S
Co132 O158 2.155 . S
Co132 O159 2.096 . S
C133 N136 1.301 . S
C133 N137 1.328 . S
C133 H138 0.930 . S
C134 C135 1.333 . S
C134 N136 1.317 . S
C134 H139 0.930 . S
C135 C134 1.333 . S
C135 N137 1.350 . S
C135 H161 0.931 . S
N136 Co132 2.148 . S
N136 C133 1.301 . S
N136 C134 1.317 . S
N137 C133 1.328 . S
N137 C135 1.350 . S
H138 C133 0.930 . S
H139 C134 0.930 . S
C140 O141 1.224 . S
C140 O159 1.247 . S
O141 C140 1.224 . S
N142 Co132 2.128 . S
N142 C143 1.355 . S
N142 C145 1.311 . S
C143 N142 1.355 . S
C143 C144 1.363 . S
C143 H155 0.929 . S
C144 C143 1.363 . S
C144 N146 1.375 . S
C144 H162 0.931 . S
C145 N142 1.311 . S
C145 N146 1.347 . S
C145 H156 0.929 . S
N146 C144 1.375 . S
N146 C145 1.347 . S
C147 C150 1.365 . S
C147 N152 1.328 . S
C147 H153 0.929 . S
C148 C149 1.362 . S
C148 C151 1.378 . S
C148 H163 0.929 . S
C149 C148 1.362 . S
C149 C150 1.366 . S
C150 C147 1.365 . S
C150 C149 1.366 . S
C150 H164 0.930 . S
C151 C148 1.378 . S
C151 N152 1.315 . S
C151 H154 0.930 . S
N152 Co132 2.194 . S
N152 C147 1.328 . S
N152 C151 1.315 . S
H153 C147 0.929 . S
H154 C151 0.930 . S
H155 C143 0.929 . S
H156 C145 0.929 . S
O157 Co132 2.351 . S
O157 C160 1.244 . S
O158 Co132 2.155 . S
O158 C160 1.240 . S
O159 Co132 2.096 . S
O159 C140 1.247 . S
C160 O157 1.244 . S
C160 O158 1.240 . S
H161 C135 0.931 . S
H162 C144 0.931 . S
H163 C148 0.929 . S
H164 C150 0.930 . S
Co165 N169 2.148 . S
Co165 N175 2.128 . S
Co165 N185 2.194 . S
Co165 O190 2.351 . S
Co165 O191 2.155 . S
Co165 O192 2.096 . S
C166 N169 1.301 . S
C166 N170 1.328 . S
C166 H171 0.930 . S
C167 C168 1.333 . S
C167 N169 1.317 . S
C167 H172 0.930 . S
C168 C167 1.333 . S
C168 N170 1.350 . S
C168 H194 0.931 . S
N169 Co165 2.148 . S
N169 C166 1.301 . S
N169 C167 1.317 . S
N170 C166 1.328 . S
N170 C168 1.350 . S
H171 C166 0.930 . S
H172 C167 0.930 . S
C173 O174 1.224 . S
C173 O192 1.247 . S
O174 C173 1.224 . S
N175 Co165 2.128 . S
N175 C176 1.355 . S
N175 C178 1.311 . S
C176 N175 1.355 . S
C176 C177 1.363 . S
C176 H188 0.929 . S
C177 C176 1.363 . S
C177 N179 1.375 . S
C177 H195 0.931 . S
C178 N175 1.311 . S
C178 N179 1.347 . S
C178 H189 0.929 . S
N179 C177 1.375 . S
N179 C178 1.347 . S
C180 C183 1.365 . S
C180 N185 1.328 . S
C180 H186 0.929 . S
C181 C182 1.362 . S
C181 C184 1.378 . S
C181 H196 0.929 . S
C182 C181 1.362 . S
C182 C183 1.366 . S
C183 C180 1.365 . S
C183 C182 1.366 . S
C183 H197 0.930 . S
C184 C181 1.378 . S
C184 N185 1.315 . S
C184 H187 0.930 . S
N185 Co165 2.194 . S
N185 C180 1.328 . S
N185 C184 1.315 . S
H186 C180 0.929 . S
H187 C184 0.930 . S
H188 C176 0.929 . S
H189 C178 0.929 . S
O190 Co165 2.351 . S
O190 C193 1.244 . S
O191 Co165 2.155 . S
O191 C193 1.240 . S
O192 Co165 2.096 . S
O192 C173 1.247 . S
C193 O190 1.244 . S
C193 O191 1.240 . S
H194 C168 0.931 . S
H195 C177 0.931 . S
H196 C181 0.929 . S
H197 C183 0.930 . S
Co198 N202 2.148 . S
Co198 N208 2.128 . S
Co198 N218 2.194 . S
Co198 O223 2.351 . S
Co198 O224 2.155 . S
Co198 O225 2.096 . S
C199 N202 1.301 . S
C199 N203 1.328 . S
C199 H204 0.930 . S
C200 C201 1.333 . S
C200 N202 1.317 . S
C200 H205 0.930 . S
C201 C200 1.333 . S
C201 N203 1.350 . S
C201 H227 0.931 . S
N202 Co198 2.148 . S
N202 C199 1.301 . S
N202 C200 1.317 . S
N203 C199 1.328 . S
N203 C201 1.350 . S
H204 C199 0.930 . S
H205 C200 0.930 . S
C206 O207 1.224 . S
C206 O225 1.247 . S
O207 C206 1.224 . S
N208 Co198 2.128 . S
N208 C209 1.355 . S
N208 C211 1.311 . S
C209 N208 1.355 . S
C209 C210 1.363 . S
C209 H221 0.929 . S
C210 C209 1.363 . S
C210 N212 1.375 . S
C210 H228 0.931 . S
C211 N208 1.311 . S
C211 N212 1.347 . S
C211 H222 0.929 . S
N212 C210 1.375 . S
N212 C211 1.347 . S
C213 C216 1.365 . S
C213 N218 1.328 . S
C213 H219 0.929 . S
C214 C215 1.362 . S
C214 C217 1.378 . S
C214 H229 0.929 . S
C215 C214 1.362 . S
C215 C216 1.366 . S
C216 C213 1.365 . S
C216 C215 1.366 . S
C216 H230 0.930 . S
C217 C214 1.378 . S
C217 N218 1.315 . S
C217 H220 0.930 . S
N218 Co198 2.194 . S
N218 C213 1.328 . S
N218 C217 1.315 . S
H219 C213 0.929 . S
H220 C217 0.930 . S
H221 C209 0.929 . S
H222 C211 0.929 . S
O223 Co198 2.351 . S
O223 C226 1.244 . S
O224 Co198 2.155 . S
O224 C226 1.240 . S
O225 Co198 2.096 . S
O225 C206 1.247 . S
C226 O223 1.244 . S
C226 O224 1.240 . S
H227 C201 0.931 . S
H228 C210 0.931 . S
H229 C214 0.929 . S
H230 C216 0.930 . S
Co231 N235 2.148 . S
Co231 N241 2.128 . S
Co231 N251 2.194 . S
Co231 O256 2.351 . S
Co231 O257 2.155 . S
Co231 O258 2.096 . S
C232 N235 1.301 . S
C232 N236 1.328 . S
C232 H237 0.930 . S
C233 C234 1.333 . S
C233 N235 1.317 . S
C233 H238 0.930 . S
C234 C233 1.333 . S
C234 N236 1.350 . S
C234 H260 0.931 . S
N235 Co231 2.148 . S
N235 C232 1.301 . S
N235 C233 1.317 . S
N236 C232 1.328 . S
N236 C234 1.350 . S
H237 C232 0.930 . S
H238 C233 0.930 . S
C239 O240 1.224 . S
C239 O258 1.247 . S
O240 C239 1.224 . S
N241 Co231 2.128 . S
N241 C242 1.355 . S
N241 C244 1.311 . S
C242 N241 1.355 . S
C242 C243 1.363 . S
C242 H254 0.929 . S
C243 C242 1.363 . S
C243 N245 1.375 . S
C243 H261 0.931 . S
C244 N241 1.311 . S
C244 N245 1.347 . S
C244 H255 0.929 . S
N245 C243 1.375 . S
N245 C244 1.347 . S
C246 C249 1.365 . S
C246 N251 1.328 . S
C246 H252 0.929 . S
C247 C248 1.362 . S
C247 C250 1.378 . S
C247 H262 0.929 . S
C248 C247 1.362 . S
C248 C249 1.366 . S
C249 C246 1.365 . S
C249 C248 1.366 . S
C249 H263 0.930 . S
C250 C247 1.378 . S
C250 N251 1.315 . S
C250 H253 0.930 . S
N251 Co231 2.194 . S
N251 C246 1.328 . S
N251 C250 1.315 . S
H252 C246 0.929 . S
H253 C250 0.930 . S
H254 C242 0.929 . S
H255 C244 0.929 . S
O256 Co231 2.351 . S
O256 C259 1.244 . S
O257 Co231 2.155 . S
O257 C259 1.240 . S
O258 Co231 2.096 . S
O258 C239 1.247 . S
C259 O256 1.244 . S
C259 O257 1.240 . S
H260 C234 0.931 . S
H261 C243 0.931 . S
H262 C247 0.929 . S
H263 C249 0.930 . S
Co264 N268 2.148 . S
Co264 N274 2.128 . S
Co264 N284 2.194 . S
Co264 O289 2.351 . S
Co264 O290 2.155 . S
Co264 O291 2.096 . S
C265 N268 1.301 . S
C265 N269 1.328 . S
C265 H270 0.930 . S
C266 C267 1.333 . S
C266 N268 1.317 . S
C266 H271 0.930 . S
C267 C266 1.333 . S
C267 N269 1.350 . S
C267 H293 0.931 . S
N268 Co264 2.148 . S
N268 C265 1.301 . S
N268 C266 1.317 . S
N269 C265 1.328 . S
N269 C267 1.350 . S
H270 C265 0.930 . S
H271 C266 0.930 . S
C272 O273 1.224 . S
C272 O291 1.247 . S
O273 C272 1.224 . S
N274 Co264 2.128 . S
N274 C275 1.355 . S
N274 C277 1.311 . S
C275 N274 1.355 . S
C275 C276 1.363 . S
C275 H287 0.929 . S
C276 C275 1.363 . S
C276 N278 1.375 . S
C276 H294 0.931 . S
C277 N274 1.311 . S
C277 N278 1.347 . S
C277 H288 0.929 . S
N278 C276 1.375 . S
N278 C277 1.347 . S
C279 C282 1.365 . S
C279 N284 1.328 . S
C279 H285 0.929 . S
C280 C281 1.362 . S
C280 C283 1.378 . S
C280 H295 0.929 . S
C281 C280 1.362 . S
C281 C282 1.366 . S
C282 C279 1.365 . S
C282 C281 1.366 . S
C282 H296 0.930 . S
C283 C280 1.378 . S
C283 N284 1.315 . S
C283 H286 0.930 . S
N284 Co264 2.194 . S
N284 C279 1.328 . S
N284 C283 1.315 . S
H285 C279 0.929 . S
H286 C283 0.930 . S
H287 C275 0.929 . S
H288 C277 0.929 . S
O289 Co264 2.351 . S
O289 C292 1.244 . S
O290 Co264 2.155 . S
O290 C292 1.240 . S
O291 Co264 2.096 . S
O291 C272 1.247 . S
C292 O289 1.244 . S
C292 O290 1.240 . S
H293 C267 0.931 . S
H294 C276 0.931 . S
H295 C280 0.929 . S
H296 C282 0.930 . S
Co297 N301 2.148 . S
Co297 N307 2.128 . S
Co297 N317 2.194 . S
Co297 O322 2.351 . S
Co297 O323 2.155 . S
Co297 O324 2.096 . S
C298 N301 1.301 . S
C298 N302 1.328 . S
C298 H303 0.930 . S
C299 C300 1.333 . S
C299 N301 1.317 . S
C299 H304 0.930 . S
C300 C299 1.333 . S
C300 N302 1.350 . S
C300 H326 0.931 . S
N301 Co297 2.148 . S
N301 C298 1.301 . S
N301 C299 1.317 . S
N302 C298 1.328 . S
N302 C300 1.350 . S
H303 C298 0.930 . S
H304 C299 0.930 . S
C305 O306 1.224 . S
C305 O324 1.247 . S
O306 C305 1.224 . S
N307 Co297 2.128 . S
N307 C308 1.355 . S
N307 C310 1.311 . S
C308 N307 1.355 . S
C308 C309 1.363 . S
C308 H320 0.929 . S
C309 C308 1.363 . S
C309 N311 1.375 . S
C309 H327 0.931 . S
C310 N307 1.311 . S
C310 N311 1.347 . S
C310 H321 0.929 . S
N311 C309 1.375 . S
N311 C310 1.347 . S
C312 C315 1.365 . S
C312 N317 1.328 . S
C312 H318 0.929 . S
C313 C314 1.362 . S
C313 C316 1.378 . S
C313 H328 0.929 . S
C314 C313 1.362 . S
C314 C315 1.366 . S
C315 C312 1.365 . S
C315 C314 1.366 . S
C315 H329 0.930 . S
C316 C313 1.378 . S
C316 N317 1.315 . S
C316 H319 0.930 . S
N317 Co297 2.194 . S
N317 C312 1.328 . S
N317 C316 1.315 . S
H318 C312 0.929 . S
H319 C316 0.930 . S
H320 C308 0.929 . S
H321 C310 0.929 . S
O322 Co297 2.351 . S
O322 C325 1.244 . S
O323 Co297 2.155 . S
O323 C325 1.240 . S
O324 Co297 2.096 . S
O324 C305 1.247 . S
C325 O322 1.244 . S
C325 O323 1.240 . S
H326 C300 0.931 . S
H327 C309 0.931 . S
H328 C313 0.929 . S
H329 C315 0.930 . S
Co330 N334 2.148 . S
Co330 N340 2.128 . S
Co330 N350 2.194 . S
Co330 O355 2.351 . S
Co330 O356 2.155 . S
Co330 O357 2.096 . S
C331 N334 1.301 . S
C331 N335 1.328 . S
C331 H336 0.930 . S
C332 C333 1.333 . S
C332 N334 1.317 . S
C332 H337 0.930 . S
C333 C332 1.333 . S
C333 N335 1.350 . S
C333 H359 0.931 . S
N334 Co330 2.148 . S
N334 C331 1.301 . S
N334 C332 1.317 . S
N335 C331 1.328 . S
N335 C333 1.350 . S
H336 C331 0.930 . S
H337 C332 0.930 . S
C338 O339 1.224 . S
C338 O357 1.247 . S
O339 C338 1.224 . S
N340 Co330 2.128 . S
N340 C341 1.355 . S
N340 C343 1.311 . S
C341 N340 1.355 . S
C341 C342 1.363 . S
C341 H353 0.929 . S
C342 C341 1.363 . S
C342 N344 1.375 . S
C342 H360 0.931 . S
C343 N340 1.311 . S
C343 N344 1.347 . S
C343 H354 0.929 . S
N344 C342 1.375 . S
N344 C343 1.347 . S
C345 C348 1.365 . S
C345 N350 1.328 . S
C345 H351 0.929 . S
C346 C347 1.362 . S
C346 C349 1.378 . S
C346 H361 0.929 . S
C347 C346 1.362 . S
C347 C348 1.366 . S
C348 C345 1.365 . S
C348 C347 1.366 . S
C348 H362 0.930 . S
C349 C346 1.378 . S
C349 N350 1.315 . S
C349 H352 0.930 . S
N350 Co330 2.194 . S
N350 C345 1.328 . S
N350 C349 1.315 . S
H351 C345 0.929 . S
H352 C349 0.930 . S
H353 C341 0.929 . S
H354 C343 0.929 . S
O355 Co330 2.351 . S
O355 C358 1.244 . S
O356 Co330 2.155 . S
O356 C358 1.240 . S
O357 Co330 2.096 . S
O357 C338 1.247 . S
C358 O355 1.244 . S
C358 O356 1.240 . S
H359 C333 0.931 . S
H360 C342 0.931 . S
H361 C346 0.929 . S
H362 C348 0.930 . S
Co363 N367 2.148 . S
Co363 N373 2.128 . S
Co363 N383 2.194 . S
Co363 O388 2.351 . S
Co363 O389 2.155 . S
Co363 O390 2.096 . S
C364 N367 1.301 . S
C364 N368 1.328 . S
C364 H369 0.930 . S
C365 C366 1.333 . S
C365 N367 1.317 . S
C365 H370 0.930 . S
C366 C365 1.333 . S
C366 N368 1.350 . S
C366 H392 0.931 . S
N367 Co363 2.148 . S
N367 C364 1.301 . S
N367 C365 1.317 . S
N368 C364 1.328 . S
N368 C366 1.350 . S
H369 C364 0.930 . S
H370 C365 0.930 . S
C371 O372 1.224 . S
C371 O390 1.247 . S
O372 C371 1.224 . S
N373 Co363 2.128 . S
N373 C374 1.355 . S
N373 C376 1.311 . S
C374 N373 1.355 . S
C374 C375 1.363 . S
C374 H386 0.929 . S
C375 C374 1.363 . S
C375 N377 1.375 . S
C375 H393 0.931 . S
C376 N373 1.311 . S
C376 N377 1.347 . S
C376 H387 0.929 . S
N377 C375 1.375 . S
N377 C376 1.347 . S
C378 C381 1.365 . S
C378 N383 1.328 . S
C378 H384 0.929 . S
C379 C380 1.362 . S
C379 C382 1.378 . S
C379 H394 0.929 . S
C380 C379 1.362 . S
C380 C381 1.366 . S
C381 C378 1.365 . S
C381 C380 1.366 . S
C381 H395 0.930 . S
C382 C379 1.378 . S
C382 N383 1.315 . S
C382 H385 0.930 . S
N383 Co363 2.194 . S
N383 C378 1.328 . S
N383 C382 1.315 . S
H384 C378 0.929 . S
H385 C382 0.930 . S
H386 C374 0.929 . S
H387 C376 0.929 . S
O388 Co363 2.351 . S
O388 C391 1.244 . S
O389 Co363 2.155 . S
O389 C391 1.240 . S
O390 Co363 2.096 . S
O390 C371 1.247 . S
C391 O388 1.244 . S
C391 O389 1.240 . S
H392 C366 0.931 . S
H393 C375 0.931 . S
H394 C379 0.929 . S
H395 C381 0.930 . S
Co396 N400 2.148 . S
Co396 N406 2.128 . S
Co396 N416 2.194 . S
Co396 O421 2.351 . S
Co396 O422 2.155 . S
Co396 O423 2.096 . S
C397 N400 1.301 . S
C397 N401 1.328 . S
C397 H402 0.930 . S
C398 C399 1.333 . S
C398 N400 1.317 . S
C398 H403 0.930 . S
C399 C398 1.333 . S
C399 N401 1.350 . S
C399 H425 0.931 . S
N400 Co396 2.148 . S
N400 C397 1.301 . S
N400 C398 1.317 . S
N401 C397 1.328 . S
N401 C399 1.350 . S
H402 C397 0.930 . S
H403 C398 0.930 . S
C404 O405 1.224 . S
C404 O423 1.247 . S
O405 C404 1.224 . S
N406 Co396 2.128 . S
N406 C407 1.355 . S
N406 C409 1.311 . S
C407 N406 1.355 . S
C407 C408 1.363 . S
C407 H419 0.929 . S
C408 C407 1.363 . S
C408 N410 1.375 . S
C408 H426 0.931 . S
C409 N406 1.311 . S
C409 N410 1.347 . S
C409 H420 0.929 . S
N410 C408 1.375 . S
N410 C409 1.347 . S
C411 C414 1.365 . S
C411 N416 1.328 . S
C411 H417 0.929 . S
C412 C413 1.362 . S
C412 C415 1.378 . S
C412 H427 0.929 . S
C413 C412 1.362 . S
C413 C414 1.366 . S
C414 C411 1.365 . S
C414 C413 1.366 . S
C414 H428 0.930 . S
C415 C412 1.378 . S
C415 N416 1.315 . S
C415 H418 0.930 . S
N416 Co396 2.194 . S
N416 C411 1.328 . S
N416 C415 1.315 . S
H417 C411 0.929 . S
H418 C415 0.930 . S
H419 C407 0.929 . S
H420 C409 0.929 . S
O421 Co396 2.351 . S
O421 C424 1.244 . S
O422 Co396 2.155 . S
O422 C424 1.240 . S
O423 Co396 2.096 . S
O423 C404 1.247 . S
C424 O421 1.244 . S
C424 O422 1.240 . S
H425 C399 0.931 . S
H426 C408 0.931 . S
H427 C412 0.929 . S
H428 C414 0.930 . S
Co429 N433 2.148 . S
Co429 N439 2.128 . S
Co429 N449 2.194 . S
Co429 O454 2.351 . S
Co429 O455 2.155 . S
Co429 O456 2.096 . S
C430 N433 1.301 . S
C430 N434 1.328 . S
C430 H435 0.930 . S
C431 C432 1.333 . S
C431 N433 1.317 . S
C431 H436 0.930 . S
C432 C431 1.333 . S
C432 N434 1.350 . S
C432 H458 0.931 . S
N433 Co429 2.148 . S
N433 C430 1.301 . S
N433 C431 1.317 . S
N434 C430 1.328 . S
N434 C432 1.350 . S
H435 C430 0.930 . S
H436 C431 0.930 . S
C437 O438 1.224 . S
C437 O456 1.247 . S
O438 C437 1.224 . S
N439 Co429 2.128 . S
N439 C440 1.355 . S
N439 C442 1.311 . S
C440 N439 1.355 . S
C440 C441 1.363 . S
C440 H452 0.929 . S
C441 C440 1.363 . S
C441 N443 1.375 . S
C441 H459 0.931 . S
C442 N439 1.311 . S
C442 N443 1.347 . S
C442 H453 0.929 . S
N443 C441 1.375 . S
N443 C442 1.347 . S
C444 C447 1.365 . S
C444 N449 1.328 . S
C444 H450 0.929 . S
C445 C446 1.362 . S
C445 C448 1.378 . S
C445 H460 0.929 . S
C446 C445 1.362 . S
C446 C447 1.366 . S
C447 C444 1.365 . S
C447 C446 1.366 . S
C447 H461 0.930 . S
C448 C445 1.378 . S
C448 N449 1.315 . S
C448 H451 0.930 . S
N449 Co429 2.194 . S
N449 C444 1.328 . S
N449 C448 1.315 . S
H450 C444 0.929 . S
H451 C448 0.930 . S
H452 C440 0.929 . S
H453 C442 0.929 . S
O454 Co429 2.351 . S
O454 C457 1.244 . S
O455 Co429 2.155 . S
O455 C457 1.240 . S
O456 Co429 2.096 . S
O456 C437 1.247 . S
C457 O454 1.244 . S
C457 O455 1.240 . S
H458 C432 0.931 . S
H459 C441 0.931 . S
H460 C445 0.929 . S
H461 C447 0.930 . S
Co462 N466 2.148 . S
Co462 N472 2.128 . S
Co462 N482 2.194 . S
Co462 O487 2.351 . S
Co462 O488 2.155 . S
Co462 O489 2.096 . S
C463 N466 1.301 . S
C463 N467 1.328 . S
C463 H468 0.930 . S
C464 C465 1.333 . S
C464 N466 1.317 . S
C464 H469 0.930 . S
C465 C464 1.333 . S
C465 N467 1.350 . S
C465 H491 0.931 . S
N466 Co462 2.148 . S
N466 C463 1.301 . S
N466 C464 1.317 . S
N467 C463 1.328 . S
N467 C465 1.350 . S
H468 C463 0.930 . S
H469 C464 0.930 . S
C470 O471 1.224 . S
C470 O489 1.247 . S
O471 C470 1.224 . S
N472 Co462 2.128 . S
N472 C473 1.355 . S
N472 C475 1.311 . S
C473 N472 1.355 . S
C473 C474 1.363 . S
C473 H485 0.929 . S
C474 C473 1.363 . S
C474 N476 1.375 . S
C474 H492 0.931 . S
C475 N472 1.311 . S
C475 N476 1.347 . S
C475 H486 0.929 . S
N476 C474 1.375 . S
N476 C475 1.347 . S
C477 C480 1.365 . S
C477 N482 1.328 . S
C477 H483 0.929 . S
C478 C479 1.362 . S
C478 C481 1.378 . S
C478 H493 0.929 . S
C479 C478 1.362 . S
C479 C480 1.366 . S
C480 C477 1.365 . S
C480 C479 1.366 . S
C480 H494 0.930 . S
C481 C478 1.378 . S
C481 N482 1.315 . S
C481 H484 0.930 . S
N482 Co462 2.194 . S
N482 C477 1.328 . S
N482 C481 1.315 . S
H483 C477 0.929 . S
H484 C481 0.930 . S
H485 C473 0.929 . S
H486 C475 0.929 . S
O487 Co462 2.351 . S
O487 C490 1.244 . S
O488 Co462 2.155 . S
O488 C490 1.240 . S
O489 Co462 2.096 . S
O489 C470 1.247 . S
C490 O487 1.244 . S
C490 O488 1.240 . S
H491 C465 0.931 . S
H492 C474 0.931 . S
H493 C478 0.929 . S
H494 C480 0.930 . S
Co495 N499 2.148 . S
Co495 N505 2.128 . S
Co495 N515 2.194 . S
Co495 O520 2.351 . S
Co495 O521 2.155 . S
Co495 O522 2.096 . S
C496 N499 1.301 . S
C496 N500 1.328 . S
C496 H501 0.930 . S
C497 C498 1.333 . S
C497 N499 1.317 . S
C497 H502 0.930 . S
C498 C497 1.333 . S
C498 N500 1.350 . S
C498 H524 0.931 . S
N499 Co495 2.148 . S
N499 C496 1.301 . S
N499 C497 1.317 . S
N500 C496 1.328 . S
N500 C498 1.350 . S
H501 C496 0.930 . S
H502 C497 0.930 . S
C503 O504 1.224 . S
C503 O522 1.247 . S
O504 C503 1.224 . S
N505 Co495 2.128 . S
N505 C506 1.355 . S
N505 C508 1.311 . S
C506 N505 1.355 . S
C506 C507 1.363 . S
C506 H518 0.929 . S
C507 C506 1.363 . S
C507 N509 1.375 . S
C507 H525 0.931 . S
C508 N505 1.311 . S
C508 N509 1.347 . S
C508 H519 0.929 . S
N509 C507 1.375 . S
N509 C508 1.347 . S
C510 C513 1.365 . S
C510 N515 1.328 . S
C510 H516 0.929 . S
C511 C512 1.362 . S
C511 C514 1.378 . S
C511 H526 0.929 . S
C512 C511 1.362 . S
C512 C513 1.366 . S
C513 C510 1.365 . S
C513 C512 1.366 . S
C513 H527 0.930 . S
C514 C511 1.378 . S
C514 N515 1.315 . S
C514 H517 0.930 . S
N515 Co495 2.194 . S
N515 C510 1.328 . S
N515 C514 1.315 . S
H516 C510 0.929 . S
H517 C514 0.930 . S
H518 C506 0.929 . S
H519 C508 0.929 . S
O520 Co495 2.351 . S
O520 C523 1.244 . S
O521 Co495 2.155 . S
O521 C523 1.240 . S
O522 Co495 2.096 . S
O522 C503 1.247 . S
C523 O520 1.244 . S
C523 O521 1.240 . S
H524 C498 0.931 . S
H525 C507 0.931 . S
H526 C511 0.929 . S
H527 C513 0.930 . S
H528 C534 0.930 . S
H529 C538 0.930 . S
H530 C543 0.929 . S
H531 C541 0.929 . S
H532 C536 0.929 1_655 S
H533 C542 0.929 1_455 S
C534 H528 0.930 . S
C534 C535 1.367 . S
C534 C542 1.378 . S
C535 C534 1.367 . S
C535 C543 1.433 . S
C536 H532 0.929 1_455 S
C536 C538 1.378 . S
C536 C540 1.350 . S
C537 C540 1.463 1_655 S
C537 C542 1.350 . S
C537 N545 1.427 . S
C538 H529 0.930 . S
C538 C536 1.378 . S
C538 C539 1.367 . S
C539 C538 1.367 . S
C539 C541 1.433 . S
C540 C536 1.350 . S
C540 C537 1.463 1_455 S
C540 N544 1.427 . S
C541 H531 0.929 . S
C541 C539 1.433 . S
C541 N544 1.384 . S
C542 H533 0.929 1_655 S
C542 C534 1.378 . S
C542 C537 1.350 . S
C543 H530 0.929 . S
C543 C535 1.433 . S
C543 N545 1.384 . S
N544 C540 1.427 . S
N544 C541 1.384 . S
N545 C537 1.427 . S
N545 C543 1.384 . S
H546 C552 0.930 . S
H547 C556 0.930 . S
H548 C561 0.929 . S
H549 C559 0.929 . S
H550 C554 0.929 . S
H551 C560 0.929 . S
C552 H546 0.930 . S
C552 C553 1.367 . S
C552 C560 1.378 . S
C553 C552 1.367 . S
C553 C561 1.433 . S
C554 H550 0.929 . S
C554 C556 1.378 . S
C554 C558 1.350 . S
C555 C558 1.463 . S
C555 C560 1.350 . S
C555 N563 1.427 . S
C556 H547 0.930 . S
C556 C554 1.378 . S
C556 C557 1.367 . S
C557 C556 1.367 . S
C557 C559 1.433 . S
C558 C554 1.350 . S
C558 C555 1.463 . S
C558 N562 1.427 . S
C559 H549 0.929 . S
C559 C557 1.433 . S
C559 N562 1.384 . S
C560 H551 0.929 . S
C560 C552 1.378 . S
C560 C555 1.350 . S
C561 H548 0.929 . S
C561 C553 1.433 . S
C561 N563 1.384 . S
N562 C558 1.427 . S
N562 C559 1.384 . S
N563 C555 1.427 . S
N563 C561 1.384 . S
H564 C570 0.930 . S
H565 C574 0.930 . S
H566 C579 0.929 . S
H567 C577 0.929 . S
H568 C572 0.929 1_655 S
H569 C578 0.929 1_455 S
C570 H564 0.930 . S
C570 C571 1.367 . S
C570 C578 1.378 . S
C571 C570 1.367 . S
C571 C579 1.433 . S
C572 H568 0.929 1_455 S
C572 C574 1.378 . S
C572 C576 1.350 . S
C573 C576 1.463 1_655 S
C573 C578 1.350 . S
C573 N581 1.427 . S
C574 H565 0.930 . S
C574 C572 1.378 . S
C574 C575 1.367 . S
C575 C574 1.367 . S
C575 C577 1.433 . S
C576 C572 1.350 . S
C576 C573 1.463 1_455 S
C576 N580 1.427 . S
C577 H567 0.929 . S
C577 C575 1.433 . S
C577 N580 1.384 . S
C578 H569 0.929 1_655 S
C578 C570 1.378 . S
C578 C573 1.350 . S
C579 H566 0.929 . S
C579 C571 1.433 . S
C579 N581 1.384 . S
N580 C576 1.427 . S
N580 C577 1.384 . S
N581 C573 1.427 . S
N581 C579 1.384 . S
H582 C588 0.930 . S
H583 C592 0.930 . S
H584 C597 0.929 . S
H585 C595 0.929 . S
H586 C590 0.929 . S
H587 C596 0.929 . S
C588 H582 0.930 . S
C588 C589 1.367 . S
C588 C596 1.378 . S
C589 C588 1.367 . S
C589 C597 1.433 . S
C590 H586 0.929 . S
C590 C592 1.378 . S
C590 C594 1.350 . S
C591 C594 1.463 . S
C591 C596 1.350 . S
C591 N599 1.427 . S
C592 H583 0.930 . S
C592 C590 1.378 . S
C592 C593 1.367 . S
C593 C592 1.367 . S
C593 C595 1.433 . S
C594 C590 1.350 . S
C594 C591 1.463 . S
C594 N598 1.427 . S
C595 H585 0.929 . S
C595 C593 1.433 . S
C595 N598 1.384 . S
C596 H587 0.929 . S
C596 C588 1.378 . S
C596 C591 1.350 . S
C597 H584 0.929 . S
C597 C589 1.433 . S
C597 N599 1.384 . S
N598 C594 1.427 . S
N598 C595 1.384 . S
N599 C591 1.427 . S
N599 C597 1.384 . S
H600 C606 0.930 . S
H601 C610 0.930 . S
H602 C615 0.929 . S
H603 C613 0.929 . S
H604 C608 0.929 . S
H605 C614 0.929 . S
C606 H600 0.930 . S
C606 C607 1.367 . S
C606 C614 1.378 . S
C607 C606 1.367 . S
C607 C615 1.433 . S
C608 H604 0.929 . S
C608 C610 1.378 . S
C608 C612 1.350 . S
C609 C612 1.463 . S
C609 C614 1.350 . S
C609 N617 1.427 . S
C610 H601 0.930 . S
C610 C608 1.378 . S
C610 C611 1.367 . S
C611 C610 1.367 . S
C611 C613 1.433 . S
C612 C608 1.350 . S
C612 C609 1.463 . S
C612 N616 1.427 . S
C613 H603 0.929 . S
C613 C611 1.433 . S
C613 N616 1.384 . S
C614 H605 0.929 . S
C614 C606 1.378 . S
C614 C609 1.350 . S
C615 H602 0.929 . S
C615 C607 1.433 . S
C615 N617 1.384 . S
N616 C612 1.427 . S
N616 C613 1.384 . S
N617 C609 1.427 . S
N617 C615 1.384 . S
H618 C624 0.930 . S
H619 C628 0.930 . S
H620 C633 0.929 . S
H621 C631 0.929 . S
H622 C626 0.929 1_655 S
H623 C632 0.929 1_455 S
C624 H618 0.930 . S
C624 C625 1.367 . S
C624 C632 1.378 . S
C625 C624 1.367 . S
C625 C633 1.433 . S
C626 H622 0.929 1_455 S
C626 C628 1.378 . S
C626 C630 1.350 . S
C627 C630 1.463 1_655 S
C627 C632 1.350 . S
C627 N635 1.427 . S
C628 H619 0.930 . S
C628 C626 1.378 . S
C628 C629 1.367 . S
C629 C628 1.367 . S
C629 C631 1.433 . S
C630 C626 1.350 . S
C630 C627 1.463 1_455 S
C630 N634 1.427 . S
C631 H621 0.929 . S
C631 C629 1.433 . S
C631 N634 1.384 . S
C632 H623 0.929 1_655 S
C632 C624 1.378 . S
C632 C627 1.350 . S
C633 H620 0.929 . S
C633 C625 1.433 . S
C633 N635 1.384 . S
N634 C630 1.427 . S
N634 C631 1.384 . S
N635 C627 1.427 . S
N635 C633 1.384 . S
H636 C642 0.930 . S
H637 C646 0.930 . S
H638 C651 0.929 . S
H639 C649 0.929 . S
H640 C644 0.929 . S
H641 C650 0.929 . S
C642 H636 0.930 . S
C642 C643 1.367 . S
C642 C650 1.378 . S
C643 C642 1.367 . S
C643 C651 1.433 . S
C644 H640 0.929 . S
C644 C646 1.378 . S
C644 C648 1.350 . S
C645 C648 1.463 . S
C645 C650 1.350 . S
C645 N653 1.427 . S
C646 H637 0.930 . S
C646 C644 1.378 . S
C646 C647 1.367 . S
C647 C646 1.367 . S
C647 C649 1.433 . S
C648 C644 1.350 . S
C648 C645 1.463 . S
C648 N652 1.427 . S
C649 H639 0.929 . S
C649 C647 1.433 . S
C649 N652 1.384 . S
C650 H641 0.929 . S
C650 C642 1.378 . S
C650 C645 1.350 . S
C651 H638 0.929 . S
C651 C643 1.433 . S
C651 N653 1.384 . S
N652 C648 1.427 . S
N652 C649 1.384 . S
N653 C645 1.427 . S
N653 C651 1.384 . S
H654 C660 0.930 1_455 S
H655 C664 0.930 1_655 S
H656 C669 0.929 . S
H657 C667 0.929 . S
H658 C662 0.929 . S
H659 C668 0.929 . S
C660 H654 0.930 1_655 S
C660 C661 1.367 . S
C660 C668 1.378 1_655 S
C661 C660 1.367 . S
C661 C669 1.433 . S
C662 H658 0.929 . S
C662 C664 1.378 1_655 S
C662 C666 1.350 1_655 S
C663 C666 1.463 1_655 S
C663 C668 1.350 1_655 S
C663 N671 1.427 . S
C664 H655 0.930 1_455 S
C664 C662 1.378 1_455 S
C664 C665 1.367 . S
C665 C664 1.367 . S
C665 C667 1.433 . S
C666 C662 1.350 1_455 S
C666 C663 1.463 1_455 S
C666 N670 1.427 . S
C667 H657 0.929 . S
C667 C665 1.433 . S
C667 N670 1.384 . S
C668 H659 0.929 . S
C668 C660 1.378 1_455 S
C668 C663 1.350 1_455 S
C669 H656 0.929 . S
C669 C661 1.433 . S
C669 N671 1.384 . S
N670 C666 1.427 . S
N670 C667 1.384 . S
N671 C663 1.427 . S
N671 C669 1.384 . S
H672 C678 0.930 . S
H673 C682 0.930 . S
H674 C687 0.929 . S
H675 C685 0.929 . S
H676 C680 0.929 . S
H677 C686 0.929 . S
C678 H672 0.930 . S
C678 C679 1.367 . S
C678 C686 1.378 . S
C679 C678 1.367 . S
C679 C687 1.433 . S
C680 H676 0.929 . S
C680 C682 1.378 . S
C680 C684 1.350 . S
C681 C684 1.463 . S
C681 C686 1.350 . S
C681 N689 1.427 . S
C682 H673 0.930 . S
C682 C680 1.378 . S
C682 C683 1.367 . S
C683 C682 1.367 . S
C683 C685 1.433 . S
C684 C680 1.350 . S
C684 C681 1.463 . S
C684 N688 1.427 . S
C685 H675 0.929 . S
C685 C683 1.433 . S
C685 N688 1.384 . S
C686 H677 0.929 . S
C686 C678 1.378 . S
C686 C681 1.350 . S
C687 H674 0.929 . S
C687 C679 1.433 . S
C687 N689 1.384 . S
N688 C684 1.427 . S
N688 C685 1.384 . S
N689 C681 1.427 . S
N689 C687 1.384 . S
H690 C696 0.930 . S
H691 C700 0.930 . S
H692 C705 0.929 . S
H693 C703 0.929 . S
H694 C698 0.929 . S
H695 C704 0.929 . S
C696 H690 0.930 . S
C696 C697 1.367 . S
C696 C704 1.378 . S
C697 C696 1.367 . S
C697 C705 1.433 . S
C698 H694 0.929 . S
C698 C700 1.378 . S
C698 C702 1.350 . S
C699 C702 1.463 . S
C699 C704 1.350 . S
C699 N707 1.427 . S
C700 H691 0.930 . S
C700 C698 1.378 . S
C700 C701 1.367 . S
C701 C700 1.367 . S
C701 C703 1.433 . S
C702 C698 1.350 . S
C702 C699 1.463 . S
C702 N706 1.427 . S
C703 H693 0.929 . S
C703 C701 1.433 . S
C703 N706 1.384 . S
C704 H695 0.929 . S
C704 C696 1.378 . S
C704 C699 1.350 . S
C705 H692 0.929 . S
C705 C697 1.433 . S
C705 N707 1.384 . S
N706 C702 1.427 . S
N706 C703 1.384 . S
N707 C699 1.427 . S
N707 C705 1.384 . S
H708 C714 0.930 . S
H709 C718 0.930 . S
H710 C723 0.929 . S
H711 C721 0.929 . S
H712 C716 0.929 . S
H713 C722 0.929 . S
C714 H708 0.930 . S
C714 C715 1.367 . S
C714 C722 1.378 . S
C715 C714 1.367 . S
C715 C723 1.433 . S
C716 H712 0.929 . S
C716 C718 1.378 . S
C716 C720 1.350 . S
C717 C720 1.463 . S
C717 C722 1.350 . S
C717 N725 1.427 . S
C718 H709 0.930 . S
C718 C716 1.378 . S
C718 C719 1.367 . S
C719 C718 1.367 . S
C719 C721 1.433 . S
C720 C716 1.350 . S
C720 C717 1.463 . S
C720 N724 1.427 . S
C721 H711 0.929 . S
C721 C719 1.433 . S
C721 N724 1.384 . S
C722 H713 0.929 . S
C722 C714 1.378 . S
C722 C717 1.350 . S
C723 H710 0.929 . S
C723 C715 1.433 . S
C723 N725 1.384 . S
N724 C720 1.427 . S
N724 C721 1.384 . S
N725 C717 1.427 . S
N725 C723 1.384 . S
H726 C732 0.930 . S
H727 C736 0.930 . S
H728 C741 0.929 . S
H729 C739 0.929 . S
H730 C734 0.929 . S
H731 C740 0.929 . S
C732 H726 0.930 . S
C732 C733 1.367 . S
C732 C740 1.378 . S
C733 C732 1.367 . S
C733 C741 1.433 . S
C734 H730 0.929 . S
C734 C736 1.378 . S
C734 C738 1.350 . S
C735 C738 1.463 . S
C735 C740 1.350 . S
C735 N743 1.427 . S
C736 H727 0.930 . S
C736 C734 1.378 . S
C736 C737 1.367 . S
C737 C736 1.367 . S
C737 C739 1.433 . S
C738 C734 1.350 . S
C738 C735 1.463 . S
C738 N742 1.427 . S
C739 H729 0.929 . S
C739 C737 1.433 . S
C739 N742 1.384 . S
C740 H731 0.929 . S
C740 C732 1.378 . S
C740 C735 1.350 . S
C741 H728 0.929 . S
C741 C733 1.433 . S
C741 N743 1.384 . S
N742 C738 1.427 . S
N742 C739 1.384 . S
N743 C735 1.427 . S
N743 C741 1.384 . S
H744 C750 0.930 . S
H745 C754 0.930 . S
H746 C759 0.929 . S
H747 C757 0.929 . S
H748 C752 0.929 . S
H749 C758 0.929 . S
C750 H744 0.930 . S
C750 C751 1.367 . S
C750 C758 1.378 . S
C751 C750 1.367 . S
C751 C759 1.433 . S
C752 H748 0.929 . S
C752 C754 1.378 . S
C752 C756 1.350 . S
C753 C756 1.463 . S
C753 C758 1.350 . S
C753 N761 1.427 . S
C754 H745 0.930 . S
C754 C752 1.378 . S
C754 C755 1.367 . S
C755 C754 1.367 . S
C755 C757 1.433 . S
C756 C752 1.350 . S
C756 C753 1.463 . S
C756 N760 1.427 . S
C757 H747 0.929 . S
C757 C755 1.433 . S
C757 N760 1.384 . S
C758 H749 0.929 . S
C758 C750 1.378 . S
C758 C753 1.350 . S
C759 H746 0.929 . S
C759 C751 1.433 . S
C759 N761 1.384 . S
N760 C756 1.427 . S
N760 C757 1.384 . S
N761 C753 1.427 . S
N761 C759 1.384 . S
H762 C768 0.930 . S
H763 C772 0.930 . S
H764 C777 0.929 . S
H765 C775 0.929 . S
H766 C770 0.929 . S
H767 C776 0.929 . S
C768 H762 0.930 . S
C768 C769 1.367 . S
C768 C776 1.378 . S
C769 C768 1.367 . S
C769 C777 1.433 . S
C770 H766 0.929 . S
C770 C772 1.378 . S
C770 C774 1.350 . S
C771 C774 1.463 . S
C771 C776 1.350 . S
C771 N779 1.427 . S
C772 H763 0.930 . S
C772 C770 1.378 . S
C772 C773 1.367 . S
C773 C772 1.367 . S
C773 C775 1.433 . S
C774 C770 1.350 . S
C774 C771 1.463 . S
C774 N778 1.427 . S
C775 H765 0.929 . S
C775 C773 1.433 . S
C775 N778 1.384 . S
C776 H767 0.929 . S
C776 C768 1.378 . S
C776 C771 1.350 . S
C777 H764 0.929 . S
C777 C769 1.433 . S
C777 N779 1.384 . S
N778 C774 1.427 . S
N778 C775 1.384 . S
N779 C771 1.427 . S
N779 C777 1.384 . S
H780 C786 0.930 . S
H781 C790 0.930 . S
H782 C795 0.929 . S
H783 C793 0.929 . S
H784 C788 0.929 . S
H785 C794 0.929 . S
C786 H780 0.930 . S
C786 C787 1.367 . S
C786 C794 1.378 . S
C787 C786 1.367 . S
C787 C795 1.433 . S
C788 H784 0.929 . S
C788 C790 1.378 . S
C788 C792 1.350 . S
C789 C792 1.463 . S
C789 C794 1.350 . S
C789 N797 1.427 . S
C790 H781 0.930 . S
C790 C788 1.378 . S
C790 C791 1.367 . S
C791 C790 1.367 . S
C791 C793 1.433 . S
C792 C788 1.350 . S
C792 C789 1.463 . S
C792 N796 1.427 . S
C793 H783 0.929 . S
C793 C791 1.433 . S
C793 N796 1.384 . S
C794 H785 0.929 . S
C794 C786 1.378 . S
C794 C789 1.350 . S
C795 H782 0.929 . S
C795 C787 1.433 . S
C795 N797 1.384 . S
N796 C792 1.427 . S
N796 C793 1.384 . S
N797 C789 1.427 . S
N797 C795 1.384 . S
H798 C804 0.930 . S
H799 C808 0.930 . S
H800 C813 0.929 . S
H801 C811 0.929 . S
H802 C806 0.929 . S
H803 C812 0.929 . S
C804 H798 0.930 . S
C804 C805 1.367 . S
C804 C812 1.378 . S
C805 C804 1.367 . S
C805 C813 1.433 . S
C806 H802 0.929 . S
C806 C808 1.378 . S
C806 C810 1.350 . S
C807 C810 1.463 . S
C807 C812 1.350 . S
C807 N815 1.427 . S
C808 H799 0.930 . S
C808 C806 1.378 . S
C808 C809 1.367 . S
C809 C808 1.367 . S
C809 C811 1.433 . S
C810 C806 1.350 . S
C810 C807 1.463 . S
C810 N814 1.427 . S
C811 H801 0.929 . S
C811 C809 1.433 . S
C811 N814 1.384 . S
C812 H803 0.929 . S
C812 C804 1.378 . S
C812 C807 1.350 . S
C813 H800 0.929 . S
C813 C805 1.433 . S
C813 N815 1.384 . S
N814 C810 1.427 . S
N814 C811 1.384 . S
N815 C807 1.427 . S
N815 C813 1.384 . S
H816 C822 0.930 . S
H817 C826 0.930 . S
H818 C831 0.929 1_655 S
H819 C829 0.929 1_455 S
H820 C824 0.929 . S
H821 C830 0.929 . S
C822 H816 0.930 . S
C822 C823 1.367 . S
C822 C830 1.378 . S
C823 C822 1.367 . S
C823 C831 1.433 . S
C824 H820 0.929 . S
C824 C826 1.378 . S
C824 C828 1.350 . S
C825 C828 1.463 1_445 S
C825 C830 1.350 . S
C825 N833 1.427 1_455 S
C826 H817 0.930 . S
C826 C824 1.378 . S
C826 C827 1.367 . S
C827 C826 1.367 . S
C827 C829 1.433 . S
C828 C824 1.350 . S
C828 C825 1.463 1_665 S
C828 N832 1.427 1_655 S
C829 H819 0.929 1_655 S
C829 C827 1.433 . S
C829 N832 1.384 1_655 S
C830 H821 0.929 . S
C830 C822 1.378 . S
C830 C825 1.350 . S
C831 H818 0.929 1_455 S
C831 C823 1.433 . S
C831 N833 1.384 1_455 S
N832 C828 1.427 1_455 S
N832 C829 1.384 1_455 S
N833 C825 1.427 1_655 S
N833 C831 1.384 1_655 S
H834 C840 0.930 . S
H835 C844 0.930 . S
H836 C849 0.929 . S
H837 C847 0.929 . S
H838 C842 0.929 . S
H839 C848 0.929 . S
C840 H834 0.930 . S
C840 C841 1.367 . S
C840 C848 1.378 . S
C841 C840 1.367 . S
C841 C849 1.433 1_565 S
C842 H838 0.929 . S
C842 C844 1.378 . S
C842 C846 1.350 . S
C843 C846 1.463 1_565 S
C843 C848 1.350 . S
C843 N851 1.427 1_565 S
C844 H835 0.930 . S
C844 C842 1.378 . S
C844 C845 1.367 . S
C845 C844 1.367 . S
C845 C847 1.433 1_545 S
C846 C842 1.350 . S
C846 C843 1.463 1_545 S
C846 N850 1.427 1_545 S
C847 H837 0.929 . S
C847 C845 1.433 1_565 S
C847 N850 1.384 . S
C848 H839 0.929 . S
C848 C840 1.378 . S
C848 C843 1.350 . S
C849 H836 0.929 . S
C849 C841 1.433 1_545 S
C849 N851 1.384 . S
N850 C846 1.427 1_565 S
N850 C847 1.384 . S
N851 C843 1.427 1_545 S
N851 C849 1.384 . S
H852 C858 0.930 . S
H853 C862 0.930 . S
H854 C867 0.929 . S
H855 C865 0.929 . S
H856 C860 0.929 . S
H857 C866 0.929 . S
C858 H852 0.930 . S
C858 C859 1.367 . S
C858 C866 1.378 . S
C859 C858 1.367 . S
C859 C867 1.433 1_545 S
C860 H856 0.929 . S
C860 C862 1.378 . S
C860 C864 1.350 . S
C861 C864 1.463 1_546 S
C861 C866 1.350 . S
C861 N869 1.427 1_545 S
C862 H853 0.930 . S
C862 C860 1.378 . S
C862 C863 1.367 . S
C863 C862 1.367 . S
C863 C865 1.433 1_565 S
C864 C860 1.350 . S
C864 C861 1.463 1_564 S
C864 N868 1.427 1_565 S
C865 H855 0.929 . S
C865 C863 1.433 1_545 S
C865 N868 1.384 . S
C866 H857 0.929 . S
C866 C858 1.378 . S
C866 C861 1.350 . S
C867 H854 0.929 . S
C867 C859 1.433 1_565 S
C867 N869 1.384 . S
N868 C864 1.427 1_545 S
N868 C865 1.384 . S
N869 C861 1.427 1_565 S
N869 C867 1.384 . S
H870 C876 0.930 . S
H871 C880 0.930 . S
H872 C885 0.929 . S
H873 C883 0.929 . S
H874 C878 0.929 1_554 S
H875 C884 0.929 1_556 S
C876 H870 0.930 . S
C876 C877 1.367 . S
C876 C884 1.378 . S
C877 C876 1.367 . S
C877 C885 1.433 . S
C878 H874 0.929 1_556 S
C878 C880 1.378 . S
C878 C882 1.350 . S
C879 C882 1.463 1_644 S
C879 C884 1.350 . S
C879 N887 1.427 1_645 S
C880 H871 0.930 . S
C880 C878 1.378 . S
C880 C881 1.367 . S
C881 C880 1.367 . S
C881 C883 1.433 . S
C882 C878 1.350 . S
C882 C879 1.463 1_466 S
C882 N886 1.427 1_465 S
C883 H873 0.929 . S
C883 C881 1.433 . S
C883 N886 1.384 1_465 S
C884 H875 0.929 1_554 S
C884 C876 1.378 . S
C884 C879 1.350 . S
C885 H872 0.929 . S
C885 C877 1.433 . S
C885 N887 1.384 1_645 S
N886 C882 1.427 1_645 S
N886 C883 1.384 1_645 S
N887 C879 1.427 1_465 S
N887 C885 1.384 1_465 S
H888 C894 0.930 . S
H889 C898 0.930 . S
H890 C903 0.929 . S
H891 C901 0.929 . S
H892 C896 0.929 . S
H893 C902 0.929 . S
C894 H888 0.930 . S
C894 C895 1.367 . S
C894 C902 1.378 . S
C895 C894 1.367 . S
C895 C903 1.433 . S
C896 H892 0.929 . S
C896 C898 1.378 . S
C896 C900 1.350 . S
C897 C900 1.463 . S
C897 C902 1.350 . S
C897 N905 1.427 . S
C898 H889 0.930 . S
C898 C896 1.378 . S
C898 C899 1.367 . S
C899 C898 1.367 . S
C899 C901 1.433 . S
C900 C896 1.350 . S
C900 C897 1.463 . S
C900 N904 1.427 . S
C901 H891 0.929 . S
C901 C899 1.433 . S
C901 N904 1.384 . S
C902 H893 0.929 . S
C902 C894 1.378 . S
C902 C897 1.350 . S
C903 H890 0.929 . S
C903 C895 1.433 . S
C903 N905 1.384 . S
N904 C900 1.427 . S
N904 C901 1.384 . S
N905 C897 1.427 . S
N905 C903 1.384 . S
H906 C912 0.930 . S
H907 C916 0.930 . S
H908 C921 0.929 . S
H909 C919 0.929 . S
H910 C914 0.929 1_455 S
H911 C920 0.929 1_655 S
C912 H906 0.930 . S
C912 C913 1.367 . S
C912 C920 1.378 . S
C913 C912 1.367 . S
C913 C921 1.433 . S
C914 H910 0.929 1_655 S
C914 C916 1.378 . S
C914 C918 1.350 . S
C915 C918 1.463 1_455 S
C915 C920 1.350 . S
C915 N923 1.427 . S
C916 H907 0.930 . S
C916 C914 1.378 . S
C916 C917 1.367 . S
C917 C916 1.367 . S
C917 C919 1.433 . S
C918 C914 1.350 . S
C918 C915 1.463 1_655 S
C918 N922 1.427 . S
C919 H909 0.929 . S
C919 C917 1.433 . S
C919 N922 1.384 . S
C920 H911 0.929 1_455 S
C920 C912 1.378 . S
C920 C915 1.350 . S
C921 H908 0.929 . S
C921 C913 1.433 . S
C921 N923 1.384 . S
N922 C918 1.427 . S
N922 C919 1.384 . S
N923 C915 1.427 . S
N923 C921 1.384 . S
H924 C930 0.930 . S
H925 C934 0.930 . S
H926 C939 0.929 . S
H927 C937 0.929 . S
H928 C932 0.929 . S
H929 C938 0.929 . S
C930 H924 0.930 . S
C930 C931 1.367 . S
C930 C938 1.378 . S
C931 C930 1.367 . S
C931 C939 1.433 . S
C932 H928 0.929 . S
C932 C934 1.378 . S
C932 C936 1.350 . S
C933 C936 1.463 1_454 S
C933 C938 1.350 . S
C933 N941 1.426 1_455 S
C934 H925 0.930 . S
C934 C932 1.378 . S
C934 C935 1.367 . S
C935 C934 1.367 . S
C935 C937 1.433 . S
C936 C932 1.350 . S
C936 C933 1.463 1_656 S
C936 N940 1.426 1_655 S
C937 H927 0.929 . S
C937 C935 1.433 . S
C937 N940 1.381 1_655 S
C938 H929 0.929 . S
C938 C930 1.378 . S
C938 C933 1.350 . S
C939 H926 0.929 . S
C939 C931 1.433 . S
C939 N941 1.381 1_455 S
N940 C936 1.426 1_455 S
N940 C937 1.381 1_455 S
N941 C933 1.426 1_655 S
N941 C939 1.381 1_655 S
H942 C948 0.930 . S
H943 C952 0.930 . S
H944 C957 0.929 . S
H945 C955 0.929 . S
H946 C950 0.929 1_556 S
H947 C956 0.929 1_554 S
C948 H942 0.930 . S
C948 C949 1.367 . S
C948 C956 1.378 . S
C949 C948 1.367 . S
C949 C957 1.433 . S
C950 H946 0.929 1_554 S
C950 C952 1.378 . S
C950 C954 1.350 . S
C951 C954 1.463 1_556 S
C951 C956 1.350 . S
C951 N959 1.427 . S
C952 H943 0.930 . S
C952 C950 1.378 . S
C952 C953 1.367 . S
C953 C952 1.367 . S
C953 C955 1.433 . S
C954 C950 1.350 . S
C954 C951 1.463 1_554 S
C954 N958 1.427 . S
C955 H945 0.929 . S
C955 C953 1.433 . S
C955 N958 1.384 . S
C956 H947 0.929 1_556 S
C956 C948 1.378 . S
C956 C951 1.350 . S
C957 H944 0.929 . S
C957 C949 1.433 . S
C957 N959 1.384 . S
N958 C954 1.427 . S
N958 C955 1.384 . S
N959 C951 1.427 . S
N959 C957 1.384 . S
H960 C966 0.930 . S
H961 C970 0.930 . S
H962 C975 0.929 . S
H963 C973 0.929 . S
H964 C968 0.929 1_545 S
H965 C974 0.929 1_565 S
C966 H960 0.930 . S
C966 C967 1.367 . S
C966 C974 1.378 . S
C967 C966 1.367 . S
C967 C975 1.433 . S
C968 H964 0.929 1_565 S
C968 C970 1.378 . S
C968 C972 1.350 . S
C969 C972 1.463 1_545 S
C969 C974 1.350 . S
C969 N977 1.427 . S
C970 H961 0.930 . S
C970 C968 1.378 . S
C970 C971 1.367 . S
C971 C970 1.367 . S
C971 C973 1.433 . S
C972 C968 1.350 . S
C972 C969 1.463 1_565 S
C972 N976 1.427 . S
C973 H963 0.929 . S
C973 C971 1.433 . S
C973 N976 1.384 . S
C974 H965 0.929 1_545 S
C974 C966 1.378 . S
C974 C969 1.350 . S
C975 H962 0.929 . S
C975 C967 1.433 . S
C975 N977 1.384 . S
N976 C972 1.427 . S
N976 C973 1.384 . S
N977 C969 1.427 . S
N977 C975 1.384 . S
H978 C984 0.930 . S
H979 C988 0.930 . S
H980 C993 0.929 . S
H981 C991 0.929 . S
H982 C986 0.929 . S
H983 C992 0.929 . S
C984 H978 0.930 . S
C984 C985 1.367 . S
C984 C992 1.378 . S
C985 C984 1.367 . S
C985 C993 1.433 . S
C986 H982 0.929 . S
C986 C988 1.378 . S
C986 C990 1.350 . S
C987 C990 1.463 1_545 S
C987 C992 1.350 . S
C987 N995 1.427 . S
C988 H979 0.930 . S
C988 C986 1.378 . S
C988 C989 1.367 . S
C989 C988 1.367 . S
C989 C991 1.433 . S
C990 C986 1.350 . S
C990 C987 1.463 1_565 S
C990 N994 1.427 . S
C991 H981 0.929 . S
C991 C989 1.433 . S
C991 N994 1.384 . S
C992 H983 0.929 . S
C992 C984 1.378 . S
C992 C987 1.350 . S
C993 H980 0.929 . S
C993 C985 1.433 . S
C993 N995 1.384 . S
N994 C990 1.427 . S
N994 C991 1.384 . S
N995 C987 1.427 . S
N995 C993 1.384 . S
H996 C1002 0.930 . S
H997 C1006 0.930 . S
H998 C1011 0.929 . S
H999 C1009 0.929 . S
H1000 C1004 0.929 . S
H1001 C1010 0.929 . S
C1002 H996 0.930 . S
C1002 C1003 1.367 . S
C1002 C1010 1.378 . S
C1003 C1002 1.367 . S
C1003 C1011 1.433 . S
C1004 H1000 0.929 . S
C1004 C1006 1.378 . S
C1004 C1008 1.350 . S
C1005 C1008 1.463 1_545 S
C1005 C1010 1.350 . S
C1005 N1013 1.427 1_545 S
C1006 H997 0.930 . S
C1006 C1004 1.378 . S
C1006 C1007 1.367 . S
C1007 C1006 1.367 . S
C1007 C1009 1.433 . S
C1008 C1004 1.350 . S
C1008 C1005 1.463 1_565 S
C1008 N1012 1.427 1_565 S
C1009 H999 0.929 . S
C1009 C1007 1.433 . S
C1009 N1012 1.384 1_565 S
C1010 H1001 0.929 . S
C1010 C1002 1.378 . S
C1010 C1005 1.350 . S
C1011 H998 0.929 . S
C1011 C1003 1.433 . S
C1011 N1013 1.384 1_545 S
N1012 C1008 1.427 1_545 S
N1012 C1009 1.384 1_545 S
N1013 C1005 1.427 1_565 S
N1013 C1011 1.384 1_565 S
H1014 C1020 0.930 . S
H1015 C1024 0.930 . S
H1016 C1029 0.929 . S
H1017 C1027 0.929 . S
H1018 C1022 0.929 . S
H1019 C1028 0.929 . S
C1020 H1014 0.930 . S
C1020 C1021 1.367 . S
C1020 C1028 1.378 . S
C1021 C1020 1.367 . S
C1021 C1029 1.433 . S
C1022 H1018 0.929 . S
C1022 C1024 1.378 . S
C1022 C1026 1.350 . S
C1023 C1026 1.463 1_545 S
C1023 C1028 1.350 . S
C1023 N1031 1.427 . S
C1024 H1015 0.930 . S
C1024 C1022 1.378 . S
C1024 C1025 1.367 . S
C1025 C1024 1.367 . S
C1025 C1027 1.433 . S
C1026 C1022 1.350 . S
C1026 C1023 1.463 1_565 S
C1026 N1030 1.427 . S
C1027 H1017 0.929 . S
C1027 C1025 1.433 . S
C1027 N1030 1.384 . S
C1028 H1019 0.929 . S
C1028 C1020 1.378 . S
C1028 C1023 1.350 . S
C1029 H1016 0.929 . S
C1029 C1021 1.433 . S
C1029 N1031 1.384 . S
N1030 C1026 1.427 . S
N1030 C1027 1.384 . S
N1031 C1023 1.427 . S
N1031 C1029 1.384 . S
H1032 C1038 0.930 . S
H1033 C1042 0.930 . S
H1034 C1047 0.929 . S
H1035 C1045 0.929 . S
H1036 C1040 0.929 . S
H1037 C1046 0.929 . S
C1038 H1032 0.930 . S
C1038 C1039 1.367 . S
C1038 C1046 1.378 . S
C1039 C1038 1.367 . S
C1039 C1047 1.433 . S
C1040 H1036 0.929 . S
C1040 C1042 1.378 . S
C1040 C1044 1.350 . S
C1041 C1044 1.463 . S
C1041 C1046 1.350 . S
C1041 N1049 1.427 . S
C1042 H1033 0.930 . S
C1042 C1040 1.378 . S
C1042 C1043 1.367 . S
C1043 C1042 1.367 . S
C1043 C1045 1.433 . S
C1044 C1040 1.350 . S
C1044 C1041 1.463 . S
C1044 N1048 1.427 . S
C1045 H1035 0.929 . S
C1045 C1043 1.433 . S
C1045 N1048 1.384 . S
C1046 H1037 0.929 . S
C1046 C1038 1.378 . S
C1046 C1041 1.350 . S
C1047 H1034 0.929 . S
C1047 C1039 1.433 . S
C1047 N1049 1.384 . S
N1048 C1044 1.427 . S
N1048 C1045 1.384 . S
N1049 C1041 1.427 . S
N1049 C1047 1.384 . S
H1050 C1056 0.930 . S
H1051 C1060 0.930 . S
H1052 C1065 0.929 . S
H1053 C1063 0.929 . S
H1054 C1058 0.929 . S
H1055 C1064 0.929 . S
C1056 H1050 0.930 . S
C1056 C1057 1.367 . S
C1056 C1064 1.378 . S
C1057 C1056 1.367 . S
C1057 C1065 1.433 . S
C1058 H1054 0.929 . S
C1058 C1060 1.378 . S
C1058 C1062 1.350 . S
C1059 C1062 1.463 . S
C1059 C1064 1.350 . S
C1059 N1067 1.427 . S
C1060 H1051 0.930 . S
C1060 C1058 1.378 . S
C1060 C1061 1.367 . S
C1061 C1060 1.367 . S
C1061 C1063 1.433 . S
C1062 C1058 1.350 . S
C1062 C1059 1.463 . S
C1062 N1066 1.427 . S
C1063 H1053 0.929 . S
C1063 C1061 1.433 . S
C1063 N1066 1.384 . S
C1064 H1055 0.929 . S
C1064 C1056 1.378 . S
C1064 C1059 1.350 . S
C1065 H1052 0.929 . S
C1065 C1057 1.433 . S
C1065 N1067 1.384 . S
N1066 C1062 1.427 . S
N1066 C1063 1.384 . S
N1067 C1059 1.427 . S
N1067 C1065 1.384 . S
H1068 C1074 0.930 . S
H1069 C1078 0.930 . S
H1070 C1083 0.929 . S
H1071 C1081 0.929 . S
H1072 C1076 0.929 . S
H1073 C1082 0.929 . S
C1074 H1068 0.930 . S
C1074 C1075 1.367 . S
C1074 C1082 1.378 . S
C1075 C1074 1.367 . S
C1075 C1083 1.433 . S
C1076 H1072 0.929 . S
C1076 C1078 1.378 . S
C1076 C1080 1.350 . S
C1077 C1080 1.463 . S
C1077 C1082 1.350 . S
C1077 N1085 1.427 . S
C1078 H1069 0.930 . S
C1078 C1076 1.378 . S
C1078 C1079 1.367 . S
C1079 C1078 1.367 . S
C1079 C1081 1.433 . S
C1080 C1076 1.350 . S
C1080 C1077 1.463 . S
C1080 N1084 1.427 . S
C1081 H1071 0.929 . S
C1081 C1079 1.433 . S
C1081 N1084 1.384 . S
C1082 H1073 0.929 . S
C1082 C1074 1.378 . S
C1082 C1077 1.350 . S
C1083 H1070 0.929 . S
C1083 C1075 1.433 . S
C1083 N1085 1.384 . S
N1084 C1080 1.427 . S
N1084 C1081 1.384 . S
N1085 C1077 1.427 . S
N1085 C1083 1.384 . S
H1086 C1092 0.930 . S
H1087 C1096 0.930 . S
H1088 C1101 0.929 . S
H1089 C1099 0.929 . S
H1090 C1094 0.929 . S
H1091 C1100 0.929 . S
C1092 H1086 0.930 . S
C1092 C1093 1.367 . S
C1092 C1100 1.378 . S
C1093 C1092 1.367 . S
C1093 C1101 1.433 . S
C1094 H1090 0.929 . S
C1094 C1096 1.378 . S
C1094 C1098 1.350 . S
C1095 C1098 1.463 . S
C1095 C1100 1.350 . S
C1095 N1103 1.427 . S
C1096 H1087 0.930 . S
C1096 C1094 1.378 . S
C1096 C1097 1.367 . S
C1097 C1096 1.367 . S
C1097 C1099 1.433 . S
C1098 C1094 1.350 . S
C1098 C1095 1.463 . S
C1098 N1102 1.427 . S
C1099 H1089 0.929 . S
C1099 C1097 1.433 . S
C1099 N1102 1.384 . S
C1100 H1091 0.929 . S
C1100 C1092 1.378 . S
C1100 C1095 1.350 . S
C1101 H1088 0.929 . S
C1101 C1093 1.433 . S
C1101 N1103 1.384 . S
N1102 C1098 1.427 . S
N1102 C1099 1.384 . S
N1103 C1095 1.427 . S
N1103 C1101 1.384 . S
H1104 C1110 0.930 . S
H1105 C1114 0.930 . S
H1106 C1119 0.929 . S
H1107 C1117 0.929 . S
H1108 C1112 0.929 . S
H1109 C1118 0.929 . S
C1110 H1104 0.930 . S
C1110 C1111 1.367 . S
C1110 C1118 1.378 . S
C1111 C1110 1.367 . S
C1111 C1119 1.433 . S
C1112 H1108 0.929 . S
C1112 C1114 1.378 . S
C1112 C1116 1.350 . S
C1113 C1116 1.463 1_455 S
C1113 C1118 1.350 . S
C1113 N1121 1.427 . S
C1114 H1105 0.930 . S
C1114 C1112 1.378 . S
C1114 C1115 1.367 . S
C1115 C1114 1.367 . S
C1115 C1117 1.433 . S
C1116 C1112 1.350 . S
C1116 C1113 1.463 1_655 S
C1116 N1120 1.427 . S
C1117 H1107 0.929 . S
C1117 C1115 1.433 . S
C1117 N1120 1.384 . S
C1118 H1109 0.929 . S
C1118 C1110 1.378 . S
C1118 C1113 1.350 . S
C1119 H1106 0.929 . S
C1119 C1111 1.433 . S
C1119 N1121 1.384 . S
N1120 C1116 1.427 . S
N1120 C1117 1.384 . S
N1121 C1113 1.427 . S
N1121 C1119 1.384 . S
H1122 C1128 0.930 . S
H1123 C1132 0.930 . S
H1124 C1137 0.929 . S
H1125 C1135 0.929 . S
H1126 C1130 0.929 . S
H1127 C1136 0.929 . S
C1128 H1122 0.930 . S
C1128 C1129 1.367 . S
C1128 C1136 1.378 . S
C1129 C1128 1.367 . S
C1129 C1137 1.433 . S
C1130 H1126 0.929 . S
C1130 C1132 1.378 . S
C1130 C1134 1.350 . S
C1131 C1134 1.463 . S
C1131 C1136 1.350 . S
C1131 N1139 1.427 . S
C1132 H1123 0.930 . S
C1132 C1130 1.378 . S
C1132 C1133 1.367 . S
C1133 C1132 1.367 . S
C1133 C1135 1.433 . S
C1134 C1130 1.350 . S
C1134 C1131 1.463 . S
C1134 N1138 1.427 . S
C1135 H1125 0.929 . S
C1135 C1133 1.433 . S
C1135 N1138 1.384 . S
C1136 H1127 0.929 . S
C1136 C1128 1.378 . S
C1136 C1131 1.350 . S
C1137 H1124 0.929 . S
C1137 C1129 1.433 . S
C1137 N1139 1.384 . S
N1138 C1134 1.427 . S
N1138 C1135 1.384 . S
N1139 C1131 1.427 . S
N1139 C1137 1.384 . S
H1140 C1146 0.930 . S
H1141 C1150 0.930 . S
H1142 C1155 0.929 . S
H1143 C1153 0.929 . S
H1144 C1148 0.929 . S
H1145 C1154 0.929 . S
C1146 H1140 0.930 . S
C1146 C1147 1.367 . S
C1146 C1154 1.378 . S
C1147 C1146 1.367 . S
C1147 C1155 1.433 . S
C1148 H1144 0.929 . S
C1148 C1150 1.378 . S
C1148 C1152 1.350 . S
C1149 C1152 1.463 . S
C1149 C1154 1.350 . S
C1149 N1157 1.427 . S
C1150 H1141 0.930 . S
C1150 C1148 1.378 . S
C1150 C1151 1.367 . S
C1151 C1150 1.367 . S
C1151 C1153 1.433 . S
C1152 C1148 1.350 . S
C1152 C1149 1.463 . S
C1152 N1156 1.427 . S
C1153 H1143 0.929 . S
C1153 C1151 1.433 . S
C1153 N1156 1.384 . S
C1154 H1145 0.929 . S
C1154 C1146 1.378 . S
C1154 C1149 1.350 . S
C1155 H1142 0.929 . S
C1155 C1147 1.433 . S
C1155 N1157 1.384 . S
N1156 C1152 1.427 . S
N1156 C1153 1.384 . S
N1157 C1149 1.427 . S
N1157 C1155 1.384 . S
H1158 C1164 0.930 . S
H1159 C1168 0.930 . S
H1160 C1173 0.929 . S
H1161 C1171 0.929 . S
H1162 C1166 0.929 1_655 S
H1163 C1172 0.929 1_455 S
C1164 H1158 0.930 . S
C1164 C1165 1.367 . S
C1164 C1172 1.378 . S
C1165 C1164 1.367 . S
C1165 C1173 1.433 . S
C1166 H1162 0.929 1_455 S
C1166 C1168 1.378 . S
C1166 C1170 1.350 . S
C1167 C1170 1.463 1_655 S
C1167 C1172 1.350 . S
C1167 N1175 1.427 . S
C1168 H1159 0.930 . S
C1168 C1166 1.378 . S
C1168 C1169 1.367 . S
C1169 C1168 1.367 . S
C1169 C1171 1.433 . S
C1170 C1166 1.350 . S
C1170 C1167 1.463 1_455 S
C1170 N1174 1.427 . S
C1171 H1161 0.929 . S
C1171 C1169 1.433 . S
C1171 N1174 1.384 . S
C1172 H1163 0.929 1_655 S
C1172 C1164 1.378 . S
C1172 C1167 1.350 . S
C1173 H1160 0.929 . S
C1173 C1165 1.433 . S
C1173 N1175 1.384 . S
N1174 C1170 1.427 . S
N1174 C1171 1.384 . S
N1175 C1167 1.427 . S
N1175 C1173 1.384 . S
H1176 C1182 0.930 . S
H1177 C1186 0.930 . S
H1178 C1191 0.929 . S
H1179 C1189 0.929 . S
H1180 C1184 0.929 1_655 S
H1181 C1190 0.929 1_455 S
C1182 H1176 0.930 . S
C1182 C1183 1.367 . S
C1182 C1190 1.378 . S
C1183 C1182 1.367 . S
C1183 C1191 1.433 . S
C1184 H1180 0.929 1_455 S
C1184 C1186 1.378 . S
C1184 C1188 1.350 . S
C1185 C1188 1.463 1_655 S
C1185 C1190 1.350 . S
C1185 N1193 1.427 . S
C1186 H1177 0.930 . S
C1186 C1184 1.378 . S
C1186 C1187 1.367 . S
C1187 C1186 1.367 . S
C1187 C1189 1.433 . S
C1188 C1184 1.350 . S
C1188 C1185 1.463 1_455 S
C1188 N1192 1.427 . S
C1189 H1179 0.929 . S
C1189 C1187 1.433 . S
C1189 N1192 1.384 . S
C1190 H1181 0.929 1_655 S
C1190 C1182 1.378 . S
C1190 C1185 1.350 . S
C1191 H1178 0.929 . S
C1191 C1183 1.433 . S
C1191 N1193 1.384 . S
N1192 C1188 1.427 . S
N1192 C1189 1.384 . S
N1193 C1185 1.427 . S
N1193 C1191 1.384 . S
H1194 C1200 0.930 . S
H1195 C1204 0.930 . S
H1196 C1209 0.929 . S
H1197 C1207 0.929 . S
H1198 C1202 0.929 . S
H1199 C1208 0.929 . S
C1200 H1194 0.930 . S
C1200 C1201 1.367 . S
C1200 C1208 1.378 . S
C1201 C1200 1.367 . S
C1201 C1209 1.433 . S
C1202 H1198 0.929 . S
C1202 C1204 1.378 . S
C1202 C1206 1.350 . S
C1203 C1206 1.463 . S
C1203 C1208 1.350 . S
C1203 N1211 1.427 . S
C1204 H1195 0.930 . S
C1204 C1202 1.378 . S
C1204 C1205 1.367 . S
C1205 C1204 1.367 . S
C1205 C1207 1.433 . S
C1206 C1202 1.350 . S
C1206 C1203 1.463 . S
C1206 N1210 1.427 . S
C1207 H1197 0.929 . S
C1207 C1205 1.433 . S
C1207 N1210 1.384 . S
C1208 H1199 0.929 . S
C1208 C1200 1.378 . S
C1208 C1203 1.350 . S
C1209 H1196 0.929 . S
C1209 C1201 1.433 . S
C1209 N1211 1.384 . S
N1210 C1206 1.427 . S
N1210 C1207 1.384 . S
N1211 C1203 1.427 . S
N1211 C1209 1.384 . S
H1212 C1218 0.930 . S
H1213 C1222 0.930 . S
H1214 C1227 0.929 . S
H1215 C1225 0.929 . S
H1216 C1220 0.929 . S
H1217 C1226 0.929 . S
C1218 H1212 0.930 . S
C1218 C1219 1.367 . S
C1218 C1226 1.378 . S
C1219 C1218 1.367 . S
C1219 C1227 1.433 . S
C1220 H1216 0.929 . S
C1220 C1222 1.378 . S
C1220 C1224 1.350 . S
C1221 C1224 1.463 . S
C1221 C1226 1.350 . S
C1221 N1229 1.427 . S
C1222 H1213 0.930 . S
C1222 C1220 1.378 . S
C1222 C1223 1.367 . S
C1223 C1222 1.367 . S
C1223 C1225 1.433 . S
C1224 C1220 1.350 . S
C1224 C1221 1.463 . S
C1224 N1228 1.427 . S
C1225 H1215 0.929 . S
C1225 C1223 1.433 . S
C1225 N1228 1.384 . S
C1226 H1217 0.929 . S
C1226 C1218 1.378 . S
C1226 C1221 1.350 . S
C1227 H1214 0.929 . S
C1227 C1219 1.433 . S
C1227 N1229 1.384 . S
N1228 C1224 1.427 . S
N1228 C1225 1.384 . S
N1229 C1221 1.427 . S
N1229 C1227 1.384 . S
H1230 C1236 0.930 . S
H1231 C1240 0.930 . S
H1232 C1245 0.929 . S
H1233 C1243 0.929 . S
H1234 C1238 0.929 . S
H1235 C1244 0.929 . S
C1236 H1230 0.930 . S
C1236 C1237 1.367 . S
C1236 C1244 1.378 . S
C1237 C1236 1.367 . S
C1237 C1245 1.433 . S
C1238 H1234 0.929 . S
C1238 C1240 1.378 . S
C1238 C1242 1.350 . S
C1239 C1242 1.463 1_655 S
C1239 C1244 1.350 . S
C1239 N1247 1.427 . S
C1240 H1231 0.930 . S
C1240 C1238 1.378 . S
C1240 C1241 1.367 . S
C1241 C1240 1.367 . S
C1241 C1243 1.433 . S
C1242 C1238 1.350 . S
C1242 C1239 1.463 1_455 S
C1242 N1246 1.427 . S
C1243 H1233 0.929 . S
C1243 C1241 1.433 . S
C1243 N1246 1.384 . S
C1244 H1235 0.929 . S
C1244 C1236 1.378 . S
C1244 C1239 1.350 . S
C1245 H1232 0.929 . S
C1245 C1237 1.433 . S
C1245 N1247 1.384 . S
N1246 C1242 1.427 . S
N1246 C1243 1.384 . S
N1247 C1239 1.427 . S
N1247 C1245 1.384 . S
C535 C107 1.483 . S
C539 C8 1.474 . S
C553 C74 1.472 . S
C557 C41 1.482 . S
C571 C140 1.473 . S
C575 C239 1.483 . S
C589 C173 1.479 . S
C593 C206 1.474 . S
C607 C272 1.482 . S
C611 C371 1.475 . S
C625 C305 1.483 . S
C629 C338 1.474 . S
C643 C503 1.473 . S
C647 C404 1.483 . S
C661 C470 1.480 . S
C665 C437 1.478 . S
C679 N14 0.594 . S
C683 N344 0.595 . S
C697 N377 0.573 . S
C701 N47 0.571 . S
C715 N278 0.588 . S
C719 N80 0.591 . S
C733 N311 0.578 . S
C737 N113 0.582 . S
C751 N476 0.592 . S
C755 N146 0.594 . S
C769 N509 0.569 . S
C773 N179 0.570 . S
C787 N410 0.573 . S
C791 N212 0.576 . S
C805 N443 0.593 . S
C809 N245 0.590 . S
C823 N5 1.481 . S
C827 N137 1.481 . S
C841 N38 1.476 . S
C845 N170 1.476 . S
C859 N203 1.477 . S
C863 N71 1.477 . S
C877 N104 1.480 . S
C881 N236 1.480 . S
C895 N269 1.480 . S
C899 N401 1.480 . S
C913 N434 1.475 . S
C917 N302 1.475 . S
C931 N335 1.477 . S
C935 N467 1.477 . S
C949 N500 1.481 . S
C953 N368 1.481 . S
C967 C17 1.361 . S
C971 C50 1.358 . S
C985 C116 1.360 . S
C989 C83 1.363 . S
C1003 C182 1.365 . S
C1007 C149 1.363 . S
C1021 C215 1.363 . S
C1025 C248 1.360 . S
C1039 C314 1.361 . S
C1043 C281 1.358 . S
C1057 C380 1.362 . S
C1061 C347 1.359 . S
C1075 C413 1.365 . S
C1079 C446 1.364 . S
C1093 C512 1.358 . S
C1097 C479 1.361 . S
C1111 C28 0.704 . S
C1115 C325 0.672 . S
C1129 C61 0.686 . S
C1133 C292 0.662 . S
C1147 C94 0.660 . S
C1151 C391 0.691 . S
C1165 C127 0.666 . S
C1169 C358 0.679 . S
C1183 C160 0.682 . S
C1187 C457 0.664 . S
C1201 C424 0.675 . S
C1205 C193 0.669 . S
C1219 C226 0.703 . S
C1223 C523 0.664 . S
C1237 C490 0.666 . S
C1241 C259 0.704 . S
