# Generated by pormake.
# Topology crr, (4)-cn, num edge types: 1
# Building blocks:
#     Node 0, Type 0, BuildingBlock: ESEHIV_clean_sbu_0, # of connection points: 4
#     Node 1, Type 0, BuildingBlock: ESEHIV_clean_sbu_0, # of connection points: 4
#     Node 2, Type 0, BuildingBlock: ESEHIV_clean_sbu_0, # of connection points: 4
#     Node 3, Type 0, BuildingBlock: ESEHIV_clean_sbu_0, # of connection points: 4
#     Node 4, Type 0, BuildingBlock: ESEHIV_clean_sbu_0, # of connection points: 4
#     Node 5, Type 0, BuildingBlock: ESEHIV_clean_sbu_0, # of connection points: 4
#     Node 6, Type 0, BuildingBlock: ESEHIV_clean_sbu_0, # of connection points: 4
#     Node 7, Type 0, BuildingBlock: ESEHIV_clean_sbu_0, # of connection points: 4
#     Node 8, Type 0, BuildingBlock: ESEHIV_clean_sbu_0, # of connection points: 4
#     Node 9, Type 0, BuildingBlock: ESEHIV_clean_sbu_0, # of connection points: 4
#     Node 10, Type 0, BuildingBlock: ESEHIV_clean_sbu_0, # of connection points: 4
#     Node 11, Type 0, BuildingBlock: ESEHIV_clean_sbu_0, # of connection points: 4
#     Edge 12, Type (0, 0), BuildingBlock: KIFKEQ_clean_linker_1, # of connection points: 2
#     Edge 13, Type (0, 0), BuildingBlock: KIFKEQ_clean_linker_1, # of connection points: 2
#     Edge 14, Type (0, 0), BuildingBlock: KIFKEQ_clean_linker_1, # of connection points: 2
#     Edge 15, Type (0, 0), BuildingBlock: KIFKEQ_clean_linker_1, # of connection points: 2
#     Edge 16, Type (0, 0), BuildingBlock: KIFKEQ_clean_linker_1, # of connection points: 2
#     Edge 17, Type (0, 0), BuildingBlock: KIFKEQ_clean_linker_1, # of connection points: 2
#     Edge 18, Type (0, 0), BuildingBlock: KIFKEQ_clean_linker_1, # of connection points: 2
#     Edge 19, Type (0, 0), BuildingBlock: KIFKEQ_clean_linker_1, # of connection points: 2
#     Edge 20, Type (0, 0), BuildingBlock: KIFKEQ_clean_linker_1, # of connection points: 2
#     Edge 21, Type (0, 0), BuildingBlock: KIFKEQ_clean_linker_1, # of connection points: 2
#     Edge 22, Type (0, 0), BuildingBlock: KIFKEQ_clean_linker_1, # of connection points: 2
#     Edge 23, Type (0, 0), BuildingBlock: KIFKEQ_clean_linker_1, # of connection points: 2
#     Edge 24, Type (0, 0), BuildingBlock: KIFKEQ_clean_linker_1, # of connection points: 2
#     Edge 25, Type (0, 0), BuildingBlock: KIFKEQ_clean_linker_1, # of connection points: 2
#     Edge 26, Type (0, 0), BuildingBlock: KIFKEQ_clean_linker_1, # of connection points: 2
#     Edge 27, Type (0, 0), BuildingBlock: KIFKEQ_clean_linker_1, # of connection points: 2
#     Edge 28, Type (0, 0), BuildingBlock: KIFKEQ_clean_linker_1, # of connection points: 2
#     Edge 29, Type (0, 0), BuildingBlock: KIFKEQ_clean_linker_1, # of connection points: 2
#     Edge 30, Type (0, 0), BuildingBlock: KIFKEQ_clean_linker_1, # of connection points: 2
#     Edge 31, Type (0, 0), BuildingBlock: KIFKEQ_clean_linker_1, # of connection points: 2
#     Edge 32, Type (0, 0), BuildingBlock: KIFKEQ_clean_linker_1, # of connection points: 2
#     Edge 33, Type (0, 0), BuildingBlock: KIFKEQ_clean_linker_1, # of connection points: 2
#     Edge 34, Type (0, 0), BuildingBlock: KIFKEQ_clean_linker_1, # of connection points: 2
#     Edge 35, Type (0, 0), BuildingBlock: KIFKEQ_clean_linker_1, # of connection points: 2
# Relax obj value: 0.030
# Max RMSD: 0.140
# Mean RMSD: 0.117
data_MOF--net-crr--node1-ESEHIV_clean_sbu_0--edge1-KIFKEQ_clean_linker_1
_symmetry_space_group_name_H-M    P1
_symmetry_Int_Tables_number       1
_symmetry_cell_setting            triclinic
loop_
_symmetry_equiv_pos_as_xyz
'x, y, z'
_cell_length_a     42.837424
_cell_length_b     48.212518
_cell_length_c     43.165951
_cell_angle_alpha  91.771504
_cell_angle_beta   85.855135
_cell_angle_gamma 88.008919
loop_
_atom_site_label
_atom_site_type_symbol
_atom_site_fract_x
_atom_site_fract_y
_atom_site_fract_z
_atom_type_partial_charge
Cu0 Cu 0.1456 0.36649 0.38264 0.0
N1 N 0.1373 0.40504 0.38268 0.0
N2 N 0.11139 0.44626 0.38137 0.0
C3 C 0.10898 0.41839 0.38319 0.0
C4 C 0.14256 0.45033 0.37965 0.0
C5 C 0.15835 0.42501 0.38046 0.0
O6 O 0.11245 0.35004 0.40883 0.0
C7 C 0.1555 0.36602 0.31631 0.0
O8 O 0.14337 0.39145 0.31853 0.0
H9 H 0.08714 0.40773 0.38458 0.0
H10 H 0.18348 0.42133 0.37872 0.0
N11 N 0.18287 0.3574 0.40071 0.0
N12 N 0.22197 0.3299 0.41517 0.0
C13 C 0.19728 0.33208 0.39759 0.0
C14 C 0.1992 0.37193 0.42074 0.0
C15 C 0.22328 0.35493 0.42985 0.0
C16 C 0.11202 0.35818 0.43728 0.0
O17 O 0.13171 0.37703 0.44504 0.0
H18 H 0.18898 0.31521 0.38362 0.0
H19 H 0.19345 0.39305 0.42891 0.0
O20 O 0.15393 0.35111 0.34023 0.0
H21 H 0.15346 0.47009 0.37692 0.0
H22 H 0.24023 0.36045 0.44619 0.0
Cu23 Cu 0.3669 0.88546 0.64964 0.0
N24 N 0.32885 0.87122 0.63908 0.0
N25 N 0.29427 0.83922 0.62831 0.0
C26 C 0.32363 0.84391 0.6361 0.0
C27 C 0.28045 0.86466 0.62643 0.0
C28 C 0.30178 0.88437 0.63325 0.0
O29 O 0.38267 0.86086 0.68044 0.0
C30 C 0.38359 0.89901 0.58812 0.0
O31 O 0.35431 0.89368 0.58404 0.0
H32 H 0.34118 0.8278 0.63946 0.0
H33 H 0.29777 0.90663 0.63392 0.0
N34 N 0.36382 0.92093 0.6682 0.0
N35 N 0.38924 0.95778 0.68457 0.0
C36 C 0.38759 0.92989 0.68406 0.0
C37 C 0.34929 0.94402 0.65874 0.0
C38 C 0.36473 0.96684 0.66915 0.0
C39 C 0.36684 0.86318 0.70664 0.0
O40 O 0.34282 0.881 0.70986 0.0
H41 H 0.40556 0.91591 0.69171 0.0
H42 H 0.33163 0.94426 0.64208 0.0
O43 O 0.39509 0.89172 0.6132 0.0
H44 H 0.25642 0.86874 0.6212 0.0
H45 H 0.36059 0.98805 0.66252 0.0
Cu46 Cu 0.9187 0.64892 0.3543 0.0
N47 N 0.9148 0.65703 0.31245 0.0
N48 N 0.88972 0.66398 0.2694 0.0
C49 C 0.8869 0.65854 0.29992 0.0
C50 C 0.92075 0.66597 0.2623 0.0
C51 C 0.93618 0.66189 0.28898 0.0
O52 O 0.87773 0.66137 0.37431 0.0
C53 C 0.95989 0.60437 0.34555 0.0
O54 O 0.974 0.6241 0.33031 0.0
H55 H 0.86488 0.65512 0.3129 0.0
H56 H 0.96116 0.66243 0.29098 0.0
N57 N 0.94937 0.66877 0.37336 0.0
N58 N 0.97723 0.68317 0.41238 0.0
C59 C 0.95508 0.666 0.40336 0.0
C60 C 0.96872 0.68824 0.36263 0.0
C61 C 0.98596 0.69717 0.38667 0.0
C62 C 0.87452 0.68743 0.38074 0.0
O63 O 0.89894 0.70293 0.37669 0.0
H64 H 0.9431 0.65143 0.41815 0.0
H65 H 0.96982 0.69574 0.33923 0.0
O66 O 0.93225 0.60979 0.35793 0.0
H67 H 0.93146 0.67037 0.23959 0.0
H68 H 1.00313 0.7131 0.38533 0.0
Cu69 Cu 0.63514 0.10895 0.62171 0.0
N70 N 0.67739 0.11783 0.62244 0.0
N71 N 0.71831 0.14548 0.61857 0.0
C72 C 0.68763 0.1429 0.6145 0.0
C73 C 0.72799 0.12081 0.6292 0.0
C74 C 0.70261 0.1038 0.63172 0.0
O75 O 0.6125 0.14459 0.62988 0.0
C76 C 0.6447 0.06532 0.58026 0.0
O77 O 0.66279 0.05868 0.6024 0.0
H78 H 0.67258 0.15915 0.60626 0.0
H79 H 0.70249 0.083 0.64037 0.0
N80 N 0.62065 0.08614 0.65335 0.0
N81 N 0.58497 0.06217 0.68051 0.0
C82 C 0.59077 0.07852 0.65613 0.0
C83 C 0.6346 0.07424 0.6768 0.0
C84 C 0.61258 0.05927 0.69358 0.0
C85 C 0.61879 0.15486 0.65621 0.0
O86 O 0.63676 0.1402 0.67349 0.0
H87 H 0.5738 0.08446 0.63993 0.0
H88 H 0.6589 0.07628 0.6814 0.0
O89 O 0.62915 0.08844 0.58293 0.0
H90 H 0.75138 0.11579 0.63575 0.0
H91 H 0.61659 0.04732 0.71383 0.0
Cu92 Cu 0.1321 0.62986 0.66311 0.0
N93 N 0.14027 0.63011 0.70531 0.0
N94 N 0.16845 0.62777 0.74698 0.0
C95 C 0.16924 0.62834 0.71568 0.0
C96 C 0.13774 0.62934 0.7567 0.0
C97 C 0.12043 0.63092 0.73098 0.0
O98 O 0.16784 0.647 0.64154 0.0
C99 C 0.09288 0.58688 0.66119 0.0
O100 O 0.07864 0.60427 0.68203 0.0
H101 H 0.1905 0.62699 0.70046 0.0
H102 H 0.09518 0.63246 0.73109 0.0
N103 N 0.09828 0.65267 0.653 0.0
N104 N 0.06677 0.67213 0.61995 0.0
C105 C 0.09193 0.65517 0.62318 0.0
C106 C 0.07629 0.6686 0.66966 0.0
C107 C 0.05666 0.68059 0.64924 0.0
C108 C 0.16884 0.67239 0.65073 0.0
O109 O 0.14848 0.68188 0.6731 0.0
H110 H 0.10537 0.64409 0.60422 0.0
H111 H 0.07458 0.67124 0.6947 0.0
O112 O 0.12011 0.59264 0.64959 0.0
H113 H 0.12845 0.62966 0.78071 0.0
H114 H 0.03671 0.69454 0.65548 0.0
Cu115 Cu 0.62954 0.87729 0.36708 0.0
N116 N 0.67121 0.86464 0.35871 0.0
N117 N 0.71347 0.83593 0.35847 0.0
C118 C 0.68261 0.83972 0.36694 0.0
C119 C 0.72176 0.85942 0.34425 0.0
C120 C 0.69564 0.87703 0.34432 0.0
O121 O 0.60621 0.84327 0.36553 0.0
C122 C 0.64194 0.92052 0.40629 0.0
O123 O 0.65964 0.92547 0.3811 0.0
H124 H 0.66859 0.82491 0.3795 0.0
H125 H 0.69466 0.89746 0.3347 0.0
N126 N 0.61622 0.90177 0.33751 0.0
N127 N 0.58654 0.93514 0.31829 0.0
C128 C 0.59033 0.91839 0.34223 0.0
C129 C 0.6295 0.90835 0.30958 0.0
C130 C 0.61126 0.92918 0.29773 0.0
C131 C 0.58429 0.83942 0.34761 0.0
O132 O 0.57088 0.86094 0.33536 0.0
H133 H 0.57485 0.91855 0.36321 0.0
H134 H 0.65104 0.89898 0.29879 0.0
O135 O 0.6258 0.89875 0.40649 0.0
H136 H 0.74498 0.86356 0.33431 0.0
H137 H 0.61574 0.93911 0.27577 0.0
Cu138 Cu 0.90553 0.3626 0.64079 0.0
N139 N 0.87658 0.34782 0.61496 0.0
N140 N 0.84256 0.31715 0.59938 0.0
C141 C 0.85702 0.32773 0.62354 0.0
C142 C 0.85336 0.33119 0.57447 0.0
C143 C 0.87431 0.35026 0.58421 0.0
O144 O 0.88729 0.35887 0.68344 0.0
C145 C 0.95008 0.32379 0.60986 0.0
O146 O 0.92615 0.30873 0.60389 0.0
H147 H 0.85515 0.31964 0.64669 0.0
H148 H 0.88822 0.36375 0.56967 0.0
N149 N 0.91287 0.39991 0.6331 0.0
N150 N 0.93988 0.43869 0.62715 0.0
C151 C 0.94045 0.41204 0.63609 0.0
C152 C 0.89406 0.41944 0.62181 0.0
C153 C 0.91057 0.44338 0.61823 0.0
C154 C 0.85946 0.36926 0.68813 0.0
O155 O 0.84758 0.38315 0.66577 0.0
H156 H 0.96078 0.40115 0.64394 0.0
H157 H 0.87019 0.41638 0.6162 0.0
O158 O 0.94613 0.34399 0.6297 0.0
H159 H 0.84732 0.32733 0.55084 0.0
H160 H 0.9015 0.46274 0.60983 0.0
Cu161 Cu 0.41426 0.12607 0.41187 0.0
N162 N 0.44204 0.15342 0.39986 0.0
N163 N 0.45808 0.19125 0.37556 0.0
C164 C 0.43384 0.17495 0.38275 0.0
C165 C 0.48269 0.17939 0.38874 0.0
C166 C 0.47267 0.15602 0.40384 0.0
O167 O 0.37319 0.14521 0.41596 0.0
C168 C 0.43539 0.09511 0.35609 0.0
O169 O 0.44506 0.11872 0.34526 0.0
H170 H 0.41064 0.1779 0.37472 0.0
H171 H 0.48676 0.14172 0.4163 0.0
N172 N 0.42374 0.10997 0.44914 0.0
N173 N 0.42971 0.07615 0.48294 0.0
C174 C 0.41908 0.08316 0.45542 0.0
C175 C 0.43793 0.12042 0.4735 0.0
C176 C 0.44146 0.09965 0.4945 0.0
C177 C 0.371 0.16604 0.43504 0.0
O178 O 0.39436 0.17027 0.45253 0.0
H179 H 0.40809 0.06906 0.43992 0.0
H180 H 0.44572 0.14146 0.47556 0.0
O181 O 0.41851 0.09518 0.38163 0.0
H182 H 0.50624 0.18691 0.38745 0.0
H183 H 0.45252 0.10155 0.51619 0.0
Cu184 Cu 0.40309 0.37915 0.15134 0.0
N185 N 0.42892 0.36495 0.18067 0.0
N186 N 0.44684 0.3399 0.21892 0.0
C187 C 0.42146 0.34789 0.204 0.0
C188 C 0.47107 0.35276 0.20447 0.0
C189 C 0.45994 0.36813 0.18097 0.0
O190 O 0.35926 0.37197 0.16302 0.0
C191 C 0.4346 0.34283 0.10431 0.0
O192 O 0.4356 0.32468 0.12634 0.0
H193 H 0.39795 0.3413 0.2097 0.0
H194 H 0.47364 0.38015 0.16456 0.0
N195 N 0.40549 0.4177 0.15163 0.0
N196 N 0.4008 0.46153 0.13633 0.0
C197 C 0.3989 0.43431 0.12828 0.0
C198 C 0.41185 0.4348 0.17534 0.0
C199 C 0.40904 0.46182 0.166 0.0
C200 C 0.34696 0.34879 0.1685 0.0
O201 O 0.36394 0.32567 0.16337 0.0
H202 H 0.39267 0.42642 0.10591 0.0
H203 H 0.41747 0.42808 0.19803 0.0
O204 O 0.41951 0.3659 0.10993 0.0
H205 H 0.49534 0.35044 0.20965 0.0
H206 H 0.412 0.48019 0.18036 0.0
Cu207 Cu 0.38283 0.66715 0.92773 0.0
N208 N 0.37299 0.70429 0.91982 0.0
N209 N 0.36975 0.74206 0.89127 0.0
C210 C 0.37924 0.71513 0.89178 0.0
C211 C 0.357 0.74846 0.92024 0.0
C212 C 0.35914 0.72513 0.93786 0.0
O213 O 0.36402 0.64637 0.89437 0.0
C214 C 0.43517 0.68077 0.95451 0.0
O215 O 0.41245 0.69601 0.96928 0.0
H216 H 0.39003 0.70321 0.87194 0.0
H217 H 0.35142 0.72371 0.9621 0.0
N218 N 0.36535 0.65439 0.96558 0.0
N219 N 0.35971 0.62563 1.00516 0.0
C220 C 0.37468 0.63017 0.9773 0.0
C221 C 0.34351 0.66562 0.98675 0.0
C222 C 0.34007 0.64794 1.01127 0.0
C223 C 0.33417 0.64961 0.89697 0.0
O224 O 0.32131 0.66455 0.92079 0.0
H225 H 0.39272 0.61644 0.96577 0.0
H226 H 0.33078 0.6851 0.98458 0.0
O227 O 0.42818 0.66472 0.93209 0.0
H228 H 0.34717 0.76862 0.92825 0.0
H229 H 0.32411 0.65112 0.03178 0.0
Cu230 Cu 0.6474 0.63859 0.12636 0.0
N231 N 0.64269 0.60081 0.11904 0.0
N232 N 0.63534 0.56188 0.09151 0.0
C233 C 0.64112 0.58916 0.09054 0.0
C234 C 0.63349 0.55607 0.12201 0.0
C235 C 0.63791 0.58024 0.13899 0.0
O236 O 0.63547 0.65439 0.08771 0.0
C237 C 0.7022 0.66737 0.14199 0.0
O238 O 0.68564 0.69023 0.1378 0.0
H239 H 0.64409 0.60064 0.06946 0.0
H240 H 0.637 0.58277 0.16403 0.0
N241 N 0.6194 0.65095 0.15966 0.0
N242 N 0.59808 0.67463 0.20192 0.0
C243 C 0.62373 0.67038 0.18192 0.0
C244 C 0.5901 0.64247 0.16582 0.0
C245 C 0.57688 0.657 0.1918 0.0
C246 C 0.61758 0.67573 0.08554 0.0
O247 O 0.61092 0.69227 0.11005 0.0
H248 H 0.645 0.68162 0.18301 0.0
H249 H 0.57906 0.62692 0.15218 0.0
O250 O 0.69049 0.64394 0.13661 0.0
H251 H 0.62841 0.53605 0.13144 0.0
H252 H 0.55347 0.65467 0.20235 0.0
Cu253 Cu 0.62554 0.35561 0.87112 0.0
N254 N 0.62246 0.39386 0.87839 0.0
N255 N 0.62014 0.43388 0.9061 0.0
C256 C 0.62109 0.40594 0.90695 0.0
C257 C 0.62097 0.43961 0.87559 0.0
C258 C 0.62233 0.41479 0.85851 0.0
O259 O 0.6086 0.34047 0.91015 0.0
C260 C 0.69264 0.35907 0.86145 0.0
O261 O 0.68935 0.38145 0.87969 0.0
H262 H 0.62185 0.39429 0.92792 0.0
H263 H 0.62353 0.41217 0.83347 0.0
N264 N 0.60182 0.34506 0.83842 0.0
N265 N 0.58777 0.31931 0.79807 0.0
C266 C 0.60894 0.32276 0.81947 0.0
C267 C 0.5753 0.35647 0.82867 0.0
C268 C 0.56658 0.34062 0.80366 0.0
C269 C 0.58507 0.32498 0.91264 0.0
O270 O 0.57465 0.31373 0.88748 0.0
H271 H 0.62953 0.30946 0.82137 0.0
H272 H 0.56308 0.37482 0.83913 0.0
O273 O 0.66892 0.34438 0.85766 0.0
H274 H 0.62063 0.46018 0.86626 0.0
H275 H 0.54599 0.34424 0.79103 0.0
H276 H 0.24079 0.29062 0.37101 0.0
H277 H 0.24682 0.31345 0.46767 0.0
H278 H 0.27448 0.24949 0.37685 0.0
H279 H 0.27928 0.27186 0.47416 0.0
H280 H 0.36654 0.21561 0.467 0.0
H281 H 0.32964 0.25397 0.46231 0.0
H282 H 0.28047 0.20494 0.39727 0.0
H283 H 0.31887 0.16659 0.40091 0.0
C284 C 0.24907 0.28661 0.39361 0.0
C285 C 0.24147 0.30539 0.41881 0.0
C286 C 0.26822 0.26291 0.39708 0.0
C287 C 0.27989 0.2572 0.42598 0.0
C288 C 0.27151 0.27576 0.45134 0.0
C289 C 0.25282 0.29965 0.44771 0.0
C290 C 0.34774 0.21277 0.45185 0.0
C291 C 0.34576 0.18791 0.43431 0.0
C292 C 0.32629 0.23488 0.44931 0.0
C293 C 0.3018 0.23278 0.42945 0.0
C294 C 0.29925 0.20758 0.41246 0.0
C295 C 0.32107 0.18543 0.41476 0.0
H296 H 0.30796 0.79149 0.65699 0.0
H297 H 0.24873 0.82664 0.59046 0.0
H298 H 0.28084 0.74797 0.6539 0.0
H299 H 0.22198 0.78296 0.58673 0.0
H300 H 0.15193 0.72289 0.63264 0.0
H301 H 0.18546 0.76118 0.62096 0.0
H302 H 0.26713 0.70651 0.62503 0.0
H303 H 0.2328 0.66785 0.63746 0.0
C304 C 0.28958 0.78972 0.64118 0.0
C305 C 0.28019 0.81268 0.62431 0.0
C306 C 0.27412 0.76467 0.63925 0.0
C307 C 0.249 0.76192 0.62024 0.0
C308 C 0.24079 0.78446 0.6021 0.0
C309 C 0.25605 0.80956 0.60426 0.0
C310 C 0.17706 0.71886 0.63017 0.0
C311 C 0.18983 0.69248 0.63589 0.0
C312 C 0.19637 0.74083 0.62333 0.0
C313 C 0.22912 0.7371 0.6222 0.0
C314 C 0.24199 0.71018 0.62606 0.0
C315 C 0.22244 0.68795 0.63274 0.0
H316 H 0.69715 0.78213 0.36378 0.0
H317 H 0.77543 0.83592 0.36677 0.0
H318 H 0.73143 0.74229 0.37453 0.0
H319 H 0.80954 0.79638 0.37691 0.0
H320 H 0.86004 0.73005 0.42151 0.0
H321 H 0.81723 0.76433 0.4193 0.0
H322 H 0.77791 0.7141 0.34838 0.0
H323 H 0.82081 0.67934 0.35113 0.0
C324 C 0.7216 0.78549 0.36687 0.0
C325 C 0.73354 0.81226 0.36445 0.0
C326 C 0.74124 0.76264 0.37282 0.0
C327 C 0.77313 0.76618 0.37693 0.0
C328 C 0.78497 0.79296 0.37443 0.0
C329 C 0.76549 0.81563 0.36821 0.0
C330 C 0.84158 0.7258 0.40633 0.0
C331 C 0.84369 0.70204 0.38656 0.0
C332 C 0.81728 0.74562 0.40475 0.0
C333 C 0.79462 0.74231 0.38309 0.0
C334 C 0.79503 0.71727 0.3653 0.0
C335 C 0.81944 0.69724 0.36703 0.0
H336 H 0.79976 0.30475 0.64518 0.0
H337 H 0.84167 0.27564 0.55568 0.0
H338 H 0.76938 0.2628 0.64883 0.0
H339 H 0.81133 0.23345 0.55935 0.0
H340 H 0.78033 0.14856 0.60168 0.0
H341 H 0.81 0.1909 0.59525 0.0
H342 H 0.72577 0.24072 0.62022 0.0
H343 H 0.69628 0.1987 0.62645 0.0
C344 C 0.80231 0.2894 0.62624 0.0
C345 C 0.82298 0.29345 0.60013 0.0
C346 C 0.78488 0.26547 0.62826 0.0
C347 C 0.7881 0.24483 0.60442 0.0
C348 C 0.80858 0.24894 0.57815 0.0
C349 C 0.82565 0.27317 0.5759 0.0
C350 C 0.76825 0.16856 0.60582 0.0
C351 C 0.73597 0.17024 0.6146 0.0
C352 C 0.78513 0.19276 0.60189 0.0
C353 C 0.77016 0.21909 0.60723 0.0
C354 C 0.73795 0.22073 0.61609 0.0
C355 C 0.72103 0.19663 0.6195 0.0
H356 H 0.49196 0.33432 0.25982 0.0
H357 H 0.40521 0.30021 0.23383 0.0
H358 H 0.49545 0.29978 0.29963 0.0
H359 H 0.4086 0.26607 0.27378 0.0
H360 H 0.40819 0.2255 0.36699 0.0
H361 H 0.40565 0.26285 0.33052 0.0
H362 H 0.50409 0.24892 0.30335 0.0
H363 H 0.5066 0.21125 0.3398 0.0
C364 C 0.47366 0.31948 0.26245 0.0
C365 C 0.4483 0.32019 0.24343 0.0
C366 C 0.47569 0.29968 0.28533 0.0
C367 C 0.4523 0.28019 0.28993 0.0
C368 C 0.42678 0.28106 0.2712 0.0
C369 C 0.42482 0.30075 0.24824 0.0
C370 C 0.42931 0.23028 0.35319 0.0
C371 C 0.45752 0.21506 0.35606 0.0
C372 C 0.42784 0.25174 0.33228 0.0
C373 C 0.45457 0.25867 0.31376 0.0
C374 C 0.4831 0.24421 0.31743 0.0
C375 C 0.48456 0.22263 0.33835 0.0
H376 H 0.2726 0.64064 0.90667 0.0
H377 H 0.34778 0.63597 0.83432 0.0
H378 H 0.23504 0.63193 0.86888 0.0
H379 H 0.30968 0.62608 0.79576 0.0
H380 H 0.22553 0.64978 0.73608 0.0
H381 H 0.26839 0.6498 0.77058 0.0
H382 H 0.21418 0.60029 0.83499 0.0
H383 H 0.17118 0.60132 0.80104 0.0
C384 C 0.28124 0.63715 0.8826 0.0
C385 C 0.31325 0.63916 0.87355 0.0
C386 C 0.25956 0.63188 0.86079 0.0
C387 C 0.26907 0.62824 0.82904 0.0
C388 C 0.30138 0.62908 0.81996 0.0
C389 C 0.32331 0.63439 0.84205 0.0
C390 C 0.22299 0.63871 0.7575 0.0
C391 C 0.19476 0.62594 0.7661 0.0
C392 C 0.24765 0.63856 0.77724 0.0
C393 C 0.24479 0.62535 0.80592 0.0
C394 C 0.21707 0.61135 0.81358 0.0
C395 C 0.19233 0.61188 0.79411 0.0
H396 H 0.64331 0.69857 0.2336 0.0
H397 H 0.54298 0.69681 0.22882 0.0
H398 H 0.63631 0.73529 0.27355 0.0
H399 H 0.53594 0.73265 0.26989 0.0
H400 H 0.54253 0.82413 0.30591 0.0
H401 H 0.54391 0.78141 0.27444 0.0
H402 H 0.61829 0.74791 0.32631 0.0
H403 H 0.61751 0.7911 0.35735 0.0
C404 C 0.61973 0.70582 0.24115 0.0
C405 C 0.59377 0.69482 0.22753 0.0
C406 C 0.61567 0.72666 0.26451 0.0
C407 C 0.58553 0.73704 0.27501 0.0
C408 C 0.55952 0.72541 0.26215 0.0
C409 C 0.56357 0.70459 0.23873 0.0
C410 C 0.55875 0.80747 0.31111 0.0
C411 C 0.58016 0.81125 0.33394 0.0
C412 C 0.55947 0.78283 0.29306 0.0
C413 C 0.58155 0.76129 0.29746 0.0
C414 C 0.60143 0.7643 0.32183 0.0
C415 C 0.60073 0.78898 0.33989 0.0
H416 H 0.74803 0.38598 0.86291 0.0
H417 H 0.7033 0.32142 0.81262 0.0
H418 H 0.79187 0.38388 0.82321 0.0
H419 H 0.74706 0.31946 0.77308 0.0
H420 H 0.79697 0.36371 0.68996 0.0
H421 H 0.76064 0.35631 0.73446 0.0
H422 H 0.83738 0.35361 0.79396 0.0
H423 H 0.87439 0.36071 0.74861 0.0
C424 C 0.74782 0.37091 0.8438 0.0
C425 C 0.72187 0.35411 0.84083 0.0
C426 C 0.77306 0.36964 0.82111 0.0
C427 C 0.77277 0.35174 0.79482 0.0
C428 C 0.7478 0.33371 0.7929 0.0
C429 C 0.72275 0.33478 0.81567 0.0
C430 C 0.80627 0.36138 0.71245 0.0
C431 C 0.83856 0.363 0.71579 0.0
C432 C 0.7854 0.35687 0.73796 0.0
C433 C 0.79608 0.35424 0.76776 0.0
C434 C 0.82848 0.35557 0.77125 0.0
C435 C 0.84963 0.35953 0.74536 0.0
H436 H 0.35773 0.87857 0.76726 0.0
H437 H 0.39111 0.80957 0.70633 0.0
H438 H 0.36173 0.84982 0.81208 0.0
H439 H 0.39391 0.78003 0.75138 0.0
H440 H 0.41439 0.73952 0.84325 0.0
H441 H 0.41782 0.76923 0.7984 0.0
H442 H 0.33303 0.8139 0.8345 0.0
H443 H 0.33019 0.78467 0.87942 0.0
C444 C 0.36608 0.85717 0.76352 0.0
C445 C 0.3739 0.84621 0.73334 0.0
C446 C 0.3681 0.84058 0.78922 0.0
C447 C 0.37742 0.81236 0.78543 0.0
C448 C 0.38672 0.80168 0.75524 0.0
C449 C 0.38514 0.81855 0.7294 0.0
C450 C 0.39649 0.75569 0.84151 0.0
C451 C 0.37206 0.75983 0.86498 0.0
C452 C 0.39842 0.77269 0.81576 0.0
C453 C 0.37585 0.79415 0.8128 0.0
C454 C 0.35133 0.79808 0.83626 0.0
C455 C 0.34958 0.78127 0.86207 0.0
H456 H 0.72541 0.71159 0.17301 0.0
H457 H 0.74717 0.6259 0.14506 0.0
H458 H 0.77233 0.71228 0.20202 0.0
H459 H 0.79427 0.62676 0.17385 0.0
H460 H 0.89098 0.6479 0.20854 0.0
H461 H 0.84723 0.65011 0.17489 0.0
H462 H 0.78779 0.6881 0.25063 0.0
H463 H 0.83136 0.68578 0.28413 0.0
C464 C 0.74042 0.69303 0.17264 0.0
C465 C 0.73245 0.66866 0.15674 0.0
C466 C 0.7672 0.69339 0.18944 0.0
C467 C 0.78694 0.66955 0.19034 0.0
C468 C 0.77965 0.64551 0.17345 0.0
C469 C 0.75259 0.645 0.15705 0.0
C470 C 0.86865 0.65696 0.21783 0.0
C471 C 0.86458 0.66658 0.249 0.0
C472 C 0.84357 0.65805 0.19867 0.0
C473 C 0.81406 0.66929 0.2101 0.0
C474 C 0.81027 0.67952 0.24105 0.0
C475 C 0.83514 0.67799 0.26032 0.0
H476 H 0.66009 0.19189 0.67213 0.0
H477 H 0.56113 0.1823 0.66497 0.0
H478 H 0.64934 0.23468 0.70292 0.0
H479 H 0.55013 0.22555 0.69664 0.0
H480 H 0.56016 0.31949 0.74292 0.0
H481 H 0.56441 0.28248 0.70215 0.0
H482 H 0.62055 0.23228 0.7595 0.0
H483 H 0.61571 0.26827 0.80015 0.0
C484 C 0.63603 0.19958 0.67621 0.0
C485 C 0.61143 0.18396 0.66613 0.0
C486 C 0.62987 0.22394 0.69403 0.0
C487 C 0.59893 0.23311 0.70252 0.0
C488 C 0.5742 0.21887 0.69027 0.0
C489 C 0.58045 0.19429 0.6721 0.0
C490 C 0.57303 0.3004 0.74696 0.0
C491 C 0.58814 0.29717 0.77466 0.0
C492 C 0.57546 0.2793 0.72361 0.0
C493 C 0.59324 0.25482 0.72755 0.0
C494 C 0.60723 0.25122 0.75563 0.0
C495 C 0.60461 0.272 0.77888 0.0
H496 H 0.30696 0.39315 0.18455 0.0
H497 H 0.31455 0.30385 0.18937 0.0
H498 H 0.25769 0.39373 0.21603 0.0
H499 H 0.26444 0.30432 0.22036 0.0
H500 H 0.20058 0.3239 0.31161 0.0
H501 H 0.24384 0.31739 0.27194 0.0
H502 H 0.20407 0.38311 0.2196 0.0
H503 H 0.16138 0.39019 0.25981 0.0
C504 C 0.29785 0.37353 0.19185 0.0
C505 C 0.31495 0.34846 0.18448 0.0
C506 C 0.26932 0.37383 0.20982 0.0
C507 C 0.25686 0.34906 0.22092 0.0
C508 C 0.27342 0.32385 0.21263 0.0
C509 C 0.3021 0.32356 0.19463 0.0
C510 C 0.20064 0.33654 0.29129 0.0
C511 C 0.1776 0.35778 0.28911 0.0
C512 C 0.22554 0.33278 0.26843 0.0
C513 C 0.22792 0.35004 0.24267 0.0
C514 C 0.20356 0.36989 0.23944 0.0
C515 C 0.17884 0.37379 0.2624 0.0
H516 H 0.96344 0.28803 0.55957 0.0
H517 H 0.9999 0.35783 0.60875 0.0
H518 H 1.00447 0.29192 0.51779 0.0
H519 H 0.04013 0.36216 0.56688 0.0
H520 H 0.12204 0.35586 0.49819 0.0
H521 H 0.08631 0.34247 0.5408 0.0
H522 H 0.01756 0.32264 0.47581 0.0
H523 H 0.05428 0.33523 0.43266 0.0
C524 C 0.9805 0.30391 0.56177 0.0
C525 C 0.97829 0.32263 0.5876 0.0
C526 C 1.00382 0.30633 0.5376 0.0
C527 C 0.02554 0.32749 0.5387 0.0
C528 C 0.02414 0.34535 0.56526 0.0
C529 C 1.00094 0.3429 0.5894 0.0
C530 C 0.09939 0.3484 0.49288 0.0
C531 C 0.0908 0.34695 0.46208 0.0
C532 C 0.0788 0.34084 0.51741 0.0
C533 C 0.04875 0.33195 0.51196 0.0
C534 C 0.04059 0.32925 0.48093 0.0
C535 C 0.06152 0.33654 0.45617 0.0
H536 H 0.42944 0.02587 0.45284 0.0
H537 H 0.42811 0.06489 0.54432 0.0
H538 H 0.42466 0.98064 0.47594 0.0
H539 H 0.42307 0.01962 0.56753 0.0
H540 H 0.43113 0.93293 0.60257 0.0
H541 H 0.44733 0.97452 0.57566 0.0
H542 H 0.38472 0.95626 0.50421 0.0
H543 H 0.36917 0.9146 0.53065 0.0
C544 C 0.42801 0.02485 0.4779 0.0
C545 C 0.42877 0.04916 0.4967 0.0
C546 C 0.42534 0.99884 0.49118 0.0
C547 C 0.42328 0.99636 0.52366 0.0
C548 C 0.42503 0.02059 0.54244 0.0
C549 C 0.42781 0.04664 0.52912 0.0
C550 C 0.42158 0.93734 0.58061 0.0
C551 C 0.39884 0.92038 0.56875 0.0
C552 C 0.43052 0.96143 0.56539 0.0
C553 C 0.41709 0.96902 0.5379 0.0
C554 C 0.39582 0.95107 0.52515 0.0
C555 C 0.38681 0.92712 0.54038 0.0
H556 H 0.09724 0.67146 0.56268 0.0
H557 H 1.00636 0.68756 0.61113 0.0
H558 H 0.0746 0.67692 0.51335 0.0
H559 H 0.98375 0.69462 0.56146 0.0
H560 H 0.9491 0.66691 0.46718 0.0
H561 H 0.97039 0.66761 0.51766 0.0
H562 H 0.05234 0.70763 0.47891 0.0
H563 H 0.03187 0.70542 0.42784 0.0
C564 C 0.07239 0.67635 0.56287 0.0
C565 C 0.05356 0.67856 0.591 0.0
C566 C 0.05943 0.67993 0.53444 0.0
C567 C 0.02724 0.68611 0.5332 0.0
C568 C 1.00855 0.68943 0.56142 0.0
C569 C 0.02156 0.6857 0.58998 0.0
C570 C 0.9718 0.67565 0.46916 0.0
C571 C 0.98891 0.68566 0.44299 0.0
C572 C 0.98382 0.67648 0.49844 0.0
C573 C 1.01323 0.68755 0.50254 0.0
C574 C 0.02986 0.69849 0.47663 0.0
C575 C 0.01792 0.69749 0.44726 0.0
H576 H 0.68822 0.02581 0.5599 0.0
H577 H 0.59687 0.05912 0.54111 0.0
H578 H 0.68545 0.99055 0.51886 0.0
H579 H 0.59401 0.02312 0.49964 0.0
H580 H 0.5955 0.93022 0.45371 0.0
H581 H 0.59397 0.9666 0.49529 0.0
H582 H 0.68439 0.99311 0.45955 0.0
H583 H 0.68587 0.95744 0.41841 0.0
C584 C 0.66751 0.02565 0.54691 0.0
C585 C 0.64283 0.04539 0.55366 0.0
C586 C 0.66596 1.0054 0.52338 0.0
C587 C 0.6395 1.00403 0.50612 0.0
C588 C 0.61459 0.02362 0.51279 0.0
C589 C 0.61637 0.04435 0.53622 0.0
C590 C 0.61506 0.94374 0.45497 0.0
C591 C 0.64088 0.94085 0.43289 0.0
C592 C 0.61403 0.96471 0.47848 0.0
C593 C 0.63905 0.98269 0.48056 0.0
C594 C 0.66483 0.97952 0.45861 0.0
C595 C 0.66565 0.95903 0.43503 0.0
H596 H 0.47128 0.0858 0.30131 0.0
H597 H 0.43521 0.04467 0.38317 0.0
H598 H 0.50458 0.04486 0.28609 0.0
H599 H 0.46932 1.00459 0.36899 0.0
H600 H 0.59175 0.9872 0.29758 0.0
H601 H 0.551 0.0241 0.30147 0.0
H602 H 0.48409 0.96587 0.3377 0.0
H603 H 0.52546 0.92969 0.33523 0.0
C604 C 0.47011 0.06788 0.31582 0.0
C605 C 0.4507 0.06863 0.34355 0.0
C606 C 0.48949 0.04448 0.30729 0.0
C607 C 0.49018 0.0214 0.32648 0.0
C608 C 0.46934 0.02165 0.35328 0.0
C609 C 0.44971 0.04484 0.36155 0.0
C610 C 0.56818 0.98236 0.30592 0.0
C611 C 0.56175 0.9558 0.31647 0.0
C612 C 0.54469 1.00343 0.30804 0.0
C613 C 0.51411 0.9982 0.32027 0.0
C614 C 0.50744 0.97101 0.32898 0.0
C615 C 0.53105 0.95018 0.32743 0.0
H616 H 0.11152 0.53217 0.64615 0.0
H617 H 0.03219 0.59009 0.64983 0.0
H618 H 0.07696 0.49411 0.63358 0.0
H619 H 0.99816 0.5528 0.63739 0.0
H620 H 0.94614 0.48529 0.59356 0.0
H621 H 0.98652 0.51937 0.59618 0.0
H622 H 0.03224 0.47026 0.66277 0.0
H623 H 0.99164 0.43617 0.66049 0.0
C624 C 0.08693 0.53681 0.64363 0.0
C625 C 0.0745 0.56402 0.64902 0.0
C626 C 0.0671 0.51509 0.63673 0.0
C627 C 0.03474 0.52041 0.63448 0.0
C628 C 0.02291 0.5479 0.63855 0.0
C629 C 0.04244 0.5693 0.64587 0.0
C630 C 0.96466 0.48166 0.60885 0.0
C631 C 0.96512 0.458 0.62715 0.0
C632 C 0.988 0.50118 0.6102 0.0
C633 C 1.01258 0.49765 0.62982 0.0
C634 C 1.01386 0.47348 0.64715 0.0
C635 C 0.99042 0.45395 0.6459 0.0
H636 H 0.52675 0.08112 0.66911 0.0
H637 H 0.57643 0.01431 0.71119 0.0
H638 H 0.47843 0.05649 0.67587 0.0
H639 H 0.52755 0.9902 0.71954 0.0
H640 H 0.44988 0.93895 0.6798 0.0
H641 H 0.49586 0.96559 0.68568 0.0
H642 H 0.43723 0.03904 0.70932 0.0
H643 H 0.39059 0.01199 0.70298 0.0
C644 C 0.52732 0.06128 0.68013 0.0
C645 C 0.5557 0.0494 0.68891 0.0
C646 C 0.49941 0.04732 0.68448 0.0
C647 C 0.49905 0.02117 0.69795 0.0
C648 C 0.52707 0.01007 0.70854 0.0
C649 C 0.55508 0.02402 0.70404 0.0
C650 C 0.44653 0.96057 0.68709 0.0
C651 C 0.41637 0.97328 0.69114 0.0
C652 C 0.47311 0.97594 0.69049 0.0
C653 C 0.4704 1.0045 0.69809 0.0
C654 C 0.44021 0.01713 0.7031 0.0
C655 C 0.41349 1.00169 0.69955 0.0
H656 H 0.94334 0.55912 0.38105 0.0
H657 H 0.01853 0.59026 0.32118 0.0
H658 H 0.97752 0.51882 0.39194 0.0
H659 H 0.05202 0.55096 0.33239 0.0
H660 H 0.11476 0.50191 0.39229 0.0
H661 H 0.07521 0.53777 0.38449 0.0
H662 H 1.01071 0.47539 0.36023 0.0
H663 H 0.05077 0.43902 0.3671 0.0
C664 C 0.96686 0.5573 0.37001 0.0
C665 C 0.97816 0.57815 0.35045 0.0
C666 C 0.9864 0.53428 0.37624 0.0
C667 C 0.0176 0.532 0.36337 0.0
C668 C 0.0283 0.55234 0.34308 0.0
C669 C 1.00891 0.57491 0.3366 0.0
C670 C 0.09235 0.49556 0.38513 0.0
C671 C 0.08651 0.46733 0.37973 0.0
C672 C 0.06952 0.51624 0.38088 0.0
C673 C 0.03995 0.50942 0.37148 0.0
C674 C 0.03327 0.48125 0.3676 0.0
C675 C 0.05634 0.46041 0.37154 0.0
H676 H 0.41875 0.51469 0.14533 0.0
H677 H 0.36789 0.4627 0.08459 0.0
H678 H 0.40753 0.5545 0.11407 0.0
H679 H 0.35729 0.50245 0.05318 0.0
H680 H 0.37696 0.57306 0.98561 0.0
H681 H 0.38669 0.53341 0.01775 0.0
H682 H 0.36227 0.58464 0.10036 0.0
H683 H 0.35305 0.62453 0.06809 0.0
C684 C 0.40502 0.51165 0.12552 0.0
C685 C 0.39434 0.48522 0.11765 0.0
C686 C 0.3986 0.53456 0.10757 0.0
C687 C 0.38154 0.53165 0.08113 0.0
C688 C 0.37086 0.50532 0.07319 0.0
C689 C 0.37706 0.48245 0.09124 0.0
C690 C 0.37381 0.57592 1.01062 0.0
C691 C 0.36433 0.602 0.02428 0.0
C692 C 0.3791 0.55312 0.02904 0.0
C693 C 0.37528 0.55587 0.06162 0.0
C694 C 0.36568 0.58191 0.07532 0.0
C695 C 0.3601 0.60469 0.05685 0.0
H696 H 0.45364 0.71658 0.99828 0.0
H697 H 0.48855 0.6473 0.9383 0.0
H698 H 0.50156 0.71626 0.02368 0.0
H699 H 0.5384 0.64784 0.96314 0.0
H700 H 0.60021 0.63387 0.04702 0.0
H701 H 0.56042 0.63628 1.00963 0.0
H702 H 0.55339 0.72557 0.02364 0.0
H703 H 0.59154 0.7227 0.06271 0.0
C704 C 0.47189 0.70147 0.99 0.0
C705 C 0.46694 0.68175 0.96632 0.0
C706 C 0.49988 0.70155 1.00448 0.0
C707 C 0.52438 0.68216 0.99558 0.0
C708 C 0.52003 0.66296 0.97097 0.0
C709 C 0.49155 0.66274 0.9565 0.0
C710 C 0.59055 0.65408 0.04168 0.0
C711 C 0.5987 0.6781 0.05816 0.0
C712 C 0.56771 0.65549 0.02003 0.0
C713 C 0.55286 0.68105 1.0139 0.0
C714 C 0.56327 0.70533 0.02846 0.0
C715 C 0.58546 0.70381 0.05068 0.0
H716 H 0.59778 0.42527 0.96526 0.0
H717 H 0.642 0.48609 0.90702 0.0
H718 H 0.60034 0.45629 1.01049 0.0
H719 H 0.6444 0.51724 0.95235 0.0
H720 H 0.61567 0.57586 0.03551 0.0
H721 H 0.61067 0.5452 0.99051 0.0
H722 H 0.64009 0.47512 0.04263 0.0
H723 H 0.6453 0.50592 0.08779 0.0
C724 C 0.6082 0.4452 0.96209 0.0
C725 C 0.61992 0.45307 0.93246 0.0
C726 C 0.60966 0.46299 0.98806 0.0
C727 C 0.62276 0.48916 0.98508 0.0
C728 C 0.63387 0.49732 0.95539 0.0
C729 C 0.63246 0.47948 0.92937 0.0
C730 C 0.62139 0.55397 0.03738 0.0
C731 C 0.63122 0.54341 0.06527 0.0
C732 C 0.61846 0.53638 1.01153 0.0
C733 C 0.62515 0.50775 1.01289 0.0
C734 C 0.63444 0.49706 0.04092 0.0
C735 C 0.63743 0.5147 0.06682 0.0
H736 H 0.46352 0.29427 0.08063 0.0
H737 H 0.45248 0.38146 0.06205 0.0
H738 H 0.50114 0.28809 0.03522 0.0
H739 H 0.49028 0.37526 0.01705 0.0
H740 H 0.58615 0.36024 0.9635 0.0
H741 H 0.5492 0.36333 1.00939 0.0
H742 H 0.50272 0.29168 0.97556 0.0
H743 H 0.53947 0.2887 0.92933 0.0
C744 C 0.46888 0.31205 0.06674 0.0
C745 C 0.4549 0.33835 0.075 0.0
C746 C 0.49043 0.30849 0.04074 0.0
C747 C 0.49893 0.33124 0.02276 0.0
C748 C 0.48453 0.35741 0.0307 0.0
C749 C 0.46263 0.36088 0.05633 0.0
C750 C 0.56841 0.34483 0.96602 0.0
C751 C 0.56581 0.3242 0.94267 0.0
C752 C 0.54704 0.34679 0.9922 0.0
C753 C 0.52284 0.32793 0.99593 0.0
C754 C 0.52112 0.3065 0.97335 0.0
C755 C 0.54219 0.3048 0.94688 0.0
loop_
_geom_bond_atom_site_label_1
_geom_bond_atom_site_label_2
_geom_bond_distance
_geom_bond_site_symmetry_2
_ccdc_geom_bond_type
Cu0 N1 1.999 . S
Cu0 O6 1.974 . S
Cu0 N11 1.985 . S
Cu0 O20 1.959 . S
N1 Cu0 1.999 . S
N1 C3 1.263 . S
N1 C5 1.389 . S
N2 C3 1.358 . S
N2 C4 1.400 . S
C3 N1 1.263 . S
C3 N2 1.358 . S
C3 H9 0.930 . S
C4 N2 1.400 . S
C4 C5 1.351 . S
C4 H21 0.930 . S
C5 N1 1.389 . S
C5 C4 1.351 . S
C5 H10 0.930 . S
O6 Cu0 1.974 . S
O6 C16 1.282 . S
C7 O8 1.261 . S
C7 O20 1.251 . S
O8 C7 1.261 . S
H9 C3 0.930 . S
H10 C5 0.930 . S
N11 Cu0 1.985 . S
N11 C13 1.335 . S
N11 C14 1.390 . S
N12 C13 1.345 . S
N12 C15 1.336 . S
C13 N11 1.335 . S
C13 N12 1.345 . S
C13 H18 0.930 . S
C14 N11 1.390 . S
C14 C15 1.346 . S
C14 H19 0.930 . S
C15 N12 1.336 . S
C15 C14 1.346 . S
C15 H22 0.929 . S
C16 O6 1.282 . S
C16 O17 1.216 . S
O17 C16 1.216 . S
H18 C13 0.930 . S
H19 C14 0.930 . S
O20 Cu0 1.959 . S
O20 C7 1.251 . S
H21 C4 0.930 . S
H22 C15 0.929 . S
Cu23 N24 1.999 . S
Cu23 O29 1.974 . S
Cu23 N34 1.985 . S
Cu23 O43 1.959 . S
N24 Cu23 1.999 . S
N24 C26 1.263 . S
N24 C28 1.389 . S
N25 C26 1.358 . S
N25 C27 1.400 . S
C26 N24 1.263 . S
C26 N25 1.358 . S
C26 H32 0.930 . S
C27 N25 1.400 . S
C27 C28 1.351 . S
C27 H44 0.930 . S
C28 N24 1.389 . S
C28 C27 1.351 . S
C28 H33 0.930 . S
O29 Cu23 1.974 . S
O29 C39 1.282 . S
C30 O31 1.261 . S
C30 O43 1.251 . S
O31 C30 1.261 . S
H32 C26 0.930 . S
H33 C28 0.930 . S
N34 Cu23 1.985 . S
N34 C36 1.335 . S
N34 C37 1.390 . S
N35 C36 1.345 . S
N35 C38 1.336 . S
C36 N34 1.335 . S
C36 N35 1.345 . S
C36 H41 0.930 . S
C37 N34 1.390 . S
C37 C38 1.346 . S
C37 H42 0.930 . S
C38 N35 1.336 . S
C38 C37 1.346 . S
C38 H45 0.929 . S
C39 O29 1.282 . S
C39 O40 1.216 . S
O40 C39 1.216 . S
H41 C36 0.930 . S
H42 C37 0.930 . S
O43 Cu23 1.959 . S
O43 C30 1.251 . S
H44 C27 0.930 . S
H45 C38 0.929 . S
Cu46 N47 1.999 . S
Cu46 O52 1.974 . S
Cu46 N57 1.985 . S
Cu46 O66 1.959 . S
N47 Cu46 1.999 . S
N47 C49 1.263 . S
N47 C51 1.389 . S
N48 C49 1.358 . S
N48 C50 1.400 . S
C49 N47 1.263 . S
C49 N48 1.358 . S
C49 H55 0.930 . S
C50 N48 1.400 . S
C50 C51 1.351 . S
C50 H67 0.930 . S
C51 N47 1.389 . S
C51 C50 1.351 . S
C51 H56 0.930 . S
O52 Cu46 1.974 . S
O52 C62 1.282 . S
C53 O54 1.261 . S
C53 O66 1.251 . S
O54 C53 1.261 . S
H55 C49 0.930 . S
H56 C51 0.930 . S
N57 Cu46 1.985 . S
N57 C59 1.335 . S
N57 C60 1.390 . S
N58 C59 1.345 . S
N58 C61 1.336 . S
C59 N57 1.335 . S
C59 N58 1.345 . S
C59 H64 0.930 . S
C60 N57 1.390 . S
C60 C61 1.346 . S
C60 H65 0.930 . S
C61 N58 1.336 . S
C61 C60 1.346 . S
C61 H68 0.929 . S
C62 O52 1.282 . S
C62 O63 1.216 . S
O63 C62 1.216 . S
H64 C59 0.930 . S
H65 C60 0.930 . S
O66 Cu46 1.959 . S
O66 C53 1.251 . S
H67 C50 0.930 . S
H68 C61 0.929 . S
Cu69 N70 1.999 . S
Cu69 O75 1.974 . S
Cu69 N80 1.985 . S
Cu69 O89 1.959 . S
N70 Cu69 1.999 . S
N70 C72 1.263 . S
N70 C74 1.389 . S
N71 C72 1.358 . S
N71 C73 1.400 . S
C72 N70 1.263 . S
C72 N71 1.358 . S
C72 H78 0.930 . S
C73 N71 1.400 . S
C73 C74 1.351 . S
C73 H90 0.930 . S
C74 N70 1.389 . S
C74 C73 1.351 . S
C74 H79 0.930 . S
O75 Cu69 1.974 . S
O75 C85 1.282 . S
C76 O77 1.261 . S
C76 O89 1.251 . S
O77 C76 1.261 . S
H78 C72 0.930 . S
H79 C74 0.930 . S
N80 Cu69 1.985 . S
N80 C82 1.335 . S
N80 C83 1.390 . S
N81 C82 1.345 . S
N81 C84 1.336 . S
C82 N80 1.335 . S
C82 N81 1.345 . S
C82 H87 0.930 . S
C83 N80 1.390 . S
C83 C84 1.346 . S
C83 H88 0.930 . S
C84 N81 1.336 . S
C84 C83 1.346 . S
C84 H91 0.929 . S
C85 O75 1.282 . S
C85 O86 1.216 . S
O86 C85 1.216 . S
H87 C82 0.930 . S
H88 C83 0.930 . S
O89 Cu69 1.959 . S
O89 C76 1.251 . S
H90 C73 0.930 . S
H91 C84 0.929 . S
Cu92 N93 1.999 . S
Cu92 O98 1.974 . S
Cu92 N103 1.985 . S
Cu92 O112 1.959 . S
N93 Cu92 1.999 . S
N93 C95 1.263 . S
N93 C97 1.389 . S
N94 C95 1.358 . S
N94 C96 1.400 . S
C95 N93 1.263 . S
C95 N94 1.358 . S
C95 H101 0.930 . S
C96 N94 1.400 . S
C96 C97 1.351 . S
C96 H113 0.930 . S
C97 N93 1.389 . S
C97 C96 1.351 . S
C97 H102 0.930 . S
O98 Cu92 1.974 . S
O98 C108 1.282 . S
C99 O100 1.261 . S
C99 O112 1.251 . S
O100 C99 1.261 . S
H101 C95 0.930 . S
H102 C97 0.930 . S
N103 Cu92 1.985 . S
N103 C105 1.335 . S
N103 C106 1.390 . S
N104 C105 1.345 . S
N104 C107 1.336 . S
C105 N103 1.335 . S
C105 N104 1.345 . S
C105 H110 0.930 . S
C106 N103 1.390 . S
C106 C107 1.346 . S
C106 H111 0.930 . S
C107 N104 1.336 . S
C107 C106 1.346 . S
C107 H114 0.929 . S
C108 O98 1.282 . S
C108 O109 1.216 . S
O109 C108 1.216 . S
H110 C105 0.930 . S
H111 C106 0.930 . S
O112 Cu92 1.959 . S
O112 C99 1.251 . S
H113 C96 0.930 . S
H114 C107 0.929 . S
Cu115 N116 1.999 . S
Cu115 O121 1.974 . S
Cu115 N126 1.985 . S
Cu115 O135 1.959 . S
N116 Cu115 1.999 . S
N116 C118 1.263 . S
N116 C120 1.389 . S
N117 C118 1.358 . S
N117 C119 1.400 . S
C118 N116 1.263 . S
C118 N117 1.358 . S
C118 H124 0.930 . S
C119 N117 1.400 . S
C119 C120 1.351 . S
C119 H136 0.930 . S
C120 N116 1.389 . S
C120 C119 1.351 . S
C120 H125 0.930 . S
O121 Cu115 1.974 . S
O121 C131 1.282 . S
C122 O123 1.261 . S
C122 O135 1.251 . S
O123 C122 1.261 . S
H124 C118 0.930 . S
H125 C120 0.930 . S
N126 Cu115 1.985 . S
N126 C128 1.335 . S
N126 C129 1.390 . S
N127 C128 1.345 . S
N127 C130 1.336 . S
C128 N126 1.335 . S
C128 N127 1.345 . S
C128 H133 0.930 . S
C129 N126 1.390 . S
C129 C130 1.346 . S
C129 H134 0.930 . S
C130 N127 1.336 . S
C130 C129 1.346 . S
C130 H137 0.929 . S
C131 O121 1.282 . S
C131 O132 1.216 . S
O132 C131 1.216 . S
H133 C128 0.930 . S
H134 C129 0.930 . S
O135 Cu115 1.959 . S
O135 C122 1.251 . S
H136 C119 0.930 . S
H137 C130 0.929 . S
Cu138 N139 1.999 . S
Cu138 O144 1.974 . S
Cu138 N149 1.985 . S
Cu138 O158 1.959 . S
N139 Cu138 1.999 . S
N139 C141 1.263 . S
N139 C143 1.389 . S
N140 C141 1.358 . S
N140 C142 1.400 . S
C141 N139 1.263 . S
C141 N140 1.358 . S
C141 H147 0.930 . S
C142 N140 1.400 . S
C142 C143 1.351 . S
C142 H159 0.930 . S
C143 N139 1.389 . S
C143 C142 1.351 . S
C143 H148 0.930 . S
O144 Cu138 1.974 . S
O144 C154 1.282 . S
C145 O146 1.261 . S
C145 O158 1.251 . S
O146 C145 1.261 . S
H147 C141 0.930 . S
H148 C143 0.930 . S
N149 Cu138 1.985 . S
N149 C151 1.335 . S
N149 C152 1.390 . S
N150 C151 1.345 . S
N150 C153 1.336 . S
C151 N149 1.335 . S
C151 N150 1.345 . S
C151 H156 0.930 . S
C152 N149 1.390 . S
C152 C153 1.346 . S
C152 H157 0.930 . S
C153 N150 1.336 . S
C153 C152 1.346 . S
C153 H160 0.929 . S
C154 O144 1.282 . S
C154 O155 1.216 . S
O155 C154 1.216 . S
H156 C151 0.930 . S
H157 C152 0.930 . S
O158 Cu138 1.959 . S
O158 C145 1.251 . S
H159 C142 0.930 . S
H160 C153 0.929 . S
Cu161 N162 1.999 . S
Cu161 O167 1.974 . S
Cu161 N172 1.985 . S
Cu161 O181 1.959 . S
N162 Cu161 1.999 . S
N162 C164 1.263 . S
N162 C166 1.389 . S
N163 C164 1.358 . S
N163 C165 1.400 . S
C164 N162 1.263 . S
C164 N163 1.358 . S
C164 H170 0.930 . S
C165 N163 1.400 . S
C165 C166 1.351 . S
C165 H182 0.930 . S
C166 N162 1.389 . S
C166 C165 1.351 . S
C166 H171 0.930 . S
O167 Cu161 1.974 . S
O167 C177 1.282 . S
C168 O169 1.261 . S
C168 O181 1.251 . S
O169 C168 1.261 . S
H170 C164 0.930 . S
H171 C166 0.930 . S
N172 Cu161 1.985 . S
N172 C174 1.335 . S
N172 C175 1.390 . S
N173 C174 1.345 . S
N173 C176 1.336 . S
C174 N172 1.335 . S
C174 N173 1.345 . S
C174 H179 0.930 . S
C175 N172 1.390 . S
C175 C176 1.346 . S
C175 H180 0.930 . S
C176 N173 1.336 . S
C176 C175 1.346 . S
C176 H183 0.929 . S
C177 O167 1.282 . S
C177 O178 1.216 . S
O178 C177 1.216 . S
H179 C174 0.930 . S
H180 C175 0.930 . S
O181 Cu161 1.959 . S
O181 C168 1.251 . S
H182 C165 0.930 . S
H183 C176 0.929 . S
Cu184 N185 1.999 . S
Cu184 O190 1.974 . S
Cu184 N195 1.985 . S
Cu184 O204 1.959 . S
N185 Cu184 1.999 . S
N185 C187 1.263 . S
N185 C189 1.389 . S
N186 C187 1.358 . S
N186 C188 1.400 . S
C187 N185 1.263 . S
C187 N186 1.358 . S
C187 H193 0.930 . S
C188 N186 1.400 . S
C188 C189 1.351 . S
C188 H205 0.930 . S
C189 N185 1.389 . S
C189 C188 1.351 . S
C189 H194 0.930 . S
O190 Cu184 1.974 . S
O190 C200 1.282 . S
C191 O192 1.261 . S
C191 O204 1.251 . S
O192 C191 1.261 . S
H193 C187 0.930 . S
H194 C189 0.930 . S
N195 Cu184 1.985 . S
N195 C197 1.335 . S
N195 C198 1.390 . S
N196 C197 1.345 . S
N196 C199 1.336 . S
C197 N195 1.335 . S
C197 N196 1.345 . S
C197 H202 0.930 . S
C198 N195 1.390 . S
C198 C199 1.346 . S
C198 H203 0.930 . S
C199 N196 1.336 . S
C199 C198 1.346 . S
C199 H206 0.929 . S
C200 O190 1.282 . S
C200 O201 1.216 . S
O201 C200 1.216 . S
H202 C197 0.930 . S
H203 C198 0.930 . S
O204 Cu184 1.959 . S
O204 C191 1.251 . S
H205 C188 0.930 . S
H206 C199 0.929 . S
Cu207 N208 1.999 . S
Cu207 O213 1.974 . S
Cu207 N218 1.985 . S
Cu207 O227 1.959 . S
N208 Cu207 1.999 . S
N208 C210 1.263 . S
N208 C212 1.389 . S
N209 C210 1.358 . S
N209 C211 1.400 . S
C210 N208 1.263 . S
C210 N209 1.358 . S
C210 H216 0.930 . S
C211 N209 1.400 . S
C211 C212 1.351 . S
C211 H228 0.930 . S
C212 N208 1.389 . S
C212 C211 1.351 . S
C212 H217 0.930 . S
O213 Cu207 1.974 . S
O213 C223 1.282 . S
C214 O215 1.261 . S
C214 O227 1.251 . S
O215 C214 1.261 . S
H216 C210 0.930 . S
H217 C212 0.930 . S
N218 Cu207 1.985 . S
N218 C220 1.335 . S
N218 C221 1.390 . S
N219 C220 1.345 . S
N219 C222 1.336 . S
C220 N218 1.335 . S
C220 N219 1.345 . S
C220 H225 0.930 . S
C221 N218 1.390 . S
C221 C222 1.346 . S
C221 H226 0.930 . S
C222 N219 1.336 . S
C222 C221 1.346 . S
C222 H229 0.929 . S
C223 O213 1.282 . S
C223 O224 1.216 . S
O224 C223 1.216 . S
H225 C220 0.930 . S
H226 C221 0.930 . S
O227 Cu207 1.959 . S
O227 C214 1.251 . S
H228 C211 0.930 . S
H229 C222 0.929 . S
Cu230 N231 1.999 . S
Cu230 O236 1.974 . S
Cu230 N241 1.985 . S
Cu230 O250 1.959 . S
N231 Cu230 1.999 . S
N231 C233 1.263 . S
N231 C235 1.389 . S
N232 C233 1.358 . S
N232 C234 1.400 . S
C233 N231 1.263 . S
C233 N232 1.358 . S
C233 H239 0.930 . S
C234 N232 1.400 . S
C234 C235 1.351 . S
C234 H251 0.930 . S
C235 N231 1.389 . S
C235 C234 1.351 . S
C235 H240 0.930 . S
O236 Cu230 1.974 . S
O236 C246 1.282 . S
C237 O238 1.261 . S
C237 O250 1.251 . S
O238 C237 1.261 . S
H239 C233 0.930 . S
H240 C235 0.930 . S
N241 Cu230 1.985 . S
N241 C243 1.335 . S
N241 C244 1.390 . S
N242 C243 1.345 . S
N242 C245 1.336 . S
C243 N241 1.335 . S
C243 N242 1.345 . S
C243 H248 0.930 . S
C244 N241 1.390 . S
C244 C245 1.346 . S
C244 H249 0.930 . S
C245 N242 1.336 . S
C245 C244 1.346 . S
C245 H252 0.929 . S
C246 O236 1.282 . S
C246 O247 1.216 . S
O247 C246 1.216 . S
H248 C243 0.930 . S
H249 C244 0.930 . S
O250 Cu230 1.959 . S
O250 C237 1.251 . S
H251 C234 0.930 . S
H252 C245 0.929 . S
Cu253 N254 1.999 . S
Cu253 O259 1.974 . S
Cu253 N264 1.985 . S
Cu253 O273 1.959 . S
N254 Cu253 1.999 . S
N254 C256 1.263 . S
N254 C258 1.389 . S
N255 C256 1.358 . S
N255 C257 1.400 . S
C256 N254 1.263 . S
C256 N255 1.358 . S
C256 H262 0.930 . S
C257 N255 1.400 . S
C257 C258 1.351 . S
C257 H274 0.930 . S
C258 N254 1.389 . S
C258 C257 1.351 . S
C258 H263 0.930 . S
O259 Cu253 1.974 . S
O259 C269 1.282 . S
C260 O261 1.261 . S
C260 O273 1.251 . S
O261 C260 1.261 . S
H262 C256 0.930 . S
H263 C258 0.930 . S
N264 Cu253 1.985 . S
N264 C266 1.335 . S
N264 C267 1.390 . S
N265 C266 1.345 . S
N265 C268 1.336 . S
C266 N264 1.335 . S
C266 N265 1.345 . S
C266 H271 0.930 . S
C267 N264 1.390 . S
C267 C268 1.346 . S
C267 H272 0.930 . S
C268 N265 1.336 . S
C268 C267 1.346 . S
C268 H275 0.929 . S
C269 O259 1.282 . S
C269 O270 1.216 . S
O270 C269 1.216 . S
H271 C266 0.930 . S
H272 C267 0.930 . S
O273 Cu253 1.959 . S
O273 C260 1.251 . S
H274 C257 0.930 . S
H275 C268 0.929 . S
H276 C284 0.950 . S
H277 C289 0.950 . S
H278 C286 0.950 . S
H279 C288 0.950 . S
H280 C290 0.950 . S
H281 C292 0.950 . S
H282 C294 0.950 . S
H283 C295 0.950 . S
C284 H276 0.950 . S
C284 C285 1.386 . S
C284 C286 1.391 . S
C285 C284 1.386 . S
C285 C289 1.393 . S
C286 H278 0.950 . S
C286 C284 1.391 . S
C286 C287 1.400 . S
C287 C286 1.400 . S
C287 C288 1.398 . S
C287 C293 1.491 . S
C288 H279 0.950 . S
C288 C287 1.398 . S
C288 C289 1.391 . S
C289 H277 0.950 . S
C289 C285 1.393 . S
C289 C288 1.391 . S
C290 H280 0.950 . S
C290 C291 1.386 . S
C290 C292 1.391 . S
C291 C290 1.386 . S
C291 C295 1.393 . S
C292 H281 0.950 . S
C292 C290 1.391 . S
C292 C293 1.400 . S
C293 C287 1.491 . S
C293 C292 1.400 . S
C293 C294 1.398 . S
C294 H282 0.950 . S
C294 C293 1.398 . S
C294 C295 1.391 . S
C295 H283 0.950 . S
C295 C291 1.393 . S
C295 C294 1.391 . S
H296 C304 0.950 . S
H297 C309 0.950 . S
H298 C306 0.950 . S
H299 C308 0.950 . S
H300 C310 0.950 . S
H301 C312 0.950 . S
H302 C314 0.950 . S
H303 C315 0.950 . S
C304 H296 0.950 . S
C304 C305 1.386 . S
C304 C306 1.391 . S
C305 C304 1.386 . S
C305 C309 1.393 . S
C306 H298 0.950 . S
C306 C304 1.391 . S
C306 C307 1.400 . S
C307 C306 1.400 . S
C307 C308 1.398 . S
C307 C313 1.491 . S
C308 H299 0.950 . S
C308 C307 1.398 . S
C308 C309 1.391 . S
C309 H297 0.950 . S
C309 C305 1.393 . S
C309 C308 1.391 . S
C310 H300 0.950 . S
C310 C311 1.386 . S
C310 C312 1.391 . S
C311 C310 1.386 . S
C311 C315 1.393 . S
C312 H301 0.950 . S
C312 C310 1.391 . S
C312 C313 1.400 . S
C313 C307 1.491 . S
C313 C312 1.400 . S
C313 C314 1.398 . S
C314 H302 0.950 . S
C314 C313 1.398 . S
C314 C315 1.391 . S
C315 H303 0.950 . S
C315 C311 1.393 . S
C315 C314 1.391 . S
H316 C324 0.950 . S
H317 C329 0.950 . S
H318 C326 0.950 . S
H319 C328 0.950 . S
H320 C330 0.950 . S
H321 C332 0.950 . S
H322 C334 0.950 . S
H323 C335 0.950 . S
C324 H316 0.950 . S
C324 C325 1.386 . S
C324 C326 1.391 . S
C325 C324 1.386 . S
C325 C329 1.393 . S
C326 H318 0.950 . S
C326 C324 1.391 . S
C326 C327 1.400 . S
C327 C326 1.400 . S
C327 C328 1.398 . S
C327 C333 1.491 . S
C328 H319 0.950 . S
C328 C327 1.398 . S
C328 C329 1.391 . S
C329 H317 0.950 . S
C329 C325 1.393 . S
C329 C328 1.391 . S
C330 H320 0.950 . S
C330 C331 1.386 . S
C330 C332 1.391 . S
C331 C330 1.386 . S
C331 C335 1.393 . S
C332 H321 0.950 . S
C332 C330 1.391 . S
C332 C333 1.400 . S
C333 C327 1.491 . S
C333 C332 1.400 . S
C333 C334 1.398 . S
C334 H322 0.950 . S
C334 C333 1.398 . S
C334 C335 1.391 . S
C335 H323 0.950 . S
C335 C331 1.393 . S
C335 C334 1.391 . S
H336 C344 0.950 . S
H337 C349 0.950 . S
H338 C346 0.950 . S
H339 C348 0.950 . S
H340 C350 0.950 . S
H341 C352 0.950 . S
H342 C354 0.950 . S
H343 C355 0.950 . S
C344 H336 0.950 . S
C344 C345 1.386 . S
C344 C346 1.391 . S
C345 C344 1.386 . S
C345 C349 1.393 . S
C346 H338 0.950 . S
C346 C344 1.391 . S
C346 C347 1.400 . S
C347 C346 1.400 . S
C347 C348 1.398 . S
C347 C353 1.491 . S
C348 H339 0.950 . S
C348 C347 1.398 . S
C348 C349 1.391 . S
C349 H337 0.950 . S
C349 C345 1.393 . S
C349 C348 1.391 . S
C350 H340 0.950 . S
C350 C351 1.386 . S
C350 C352 1.391 . S
C351 C350 1.386 . S
C351 C355 1.393 . S
C352 H341 0.950 . S
C352 C350 1.391 . S
C352 C353 1.400 . S
C353 C347 1.491 . S
C353 C352 1.400 . S
C353 C354 1.398 . S
C354 H342 0.950 . S
C354 C353 1.398 . S
C354 C355 1.391 . S
C355 H343 0.950 . S
C355 C351 1.393 . S
C355 C354 1.391 . S
H356 C364 0.950 . S
H357 C369 0.950 . S
H358 C366 0.950 . S
H359 C368 0.950 . S
H360 C370 0.950 . S
H361 C372 0.950 . S
H362 C374 0.950 . S
H363 C375 0.950 . S
C364 H356 0.950 . S
C364 C365 1.386 . S
C364 C366 1.391 . S
C365 C364 1.386 . S
C365 C369 1.393 . S
C366 H358 0.950 . S
C366 C364 1.391 . S
C366 C367 1.400 . S
C367 C366 1.400 . S
C367 C368 1.398 . S
C367 C373 1.491 . S
C368 H359 0.950 . S
C368 C367 1.398 . S
C368 C369 1.391 . S
C369 H357 0.950 . S
C369 C365 1.393 . S
C369 C368 1.391 . S
C370 H360 0.950 . S
C370 C371 1.386 . S
C370 C372 1.391 . S
C371 C370 1.386 . S
C371 C375 1.393 . S
C372 H361 0.950 . S
C372 C370 1.391 . S
C372 C373 1.400 . S
C373 C367 1.491 . S
C373 C372 1.400 . S
C373 C374 1.398 . S
C374 H362 0.950 . S
C374 C373 1.398 . S
C374 C375 1.391 . S
C375 H363 0.950 . S
C375 C371 1.393 . S
C375 C374 1.391 . S
H376 C384 0.950 . S
H377 C389 0.950 . S
H378 C386 0.950 . S
H379 C388 0.950 . S
H380 C390 0.950 . S
H381 C392 0.950 . S
H382 C394 0.950 . S
H383 C395 0.950 . S
C384 H376 0.950 . S
C384 C385 1.386 . S
C384 C386 1.391 . S
C385 C384 1.386 . S
C385 C389 1.393 . S
C386 H378 0.950 . S
C386 C384 1.391 . S
C386 C387 1.400 . S
C387 C386 1.400 . S
C387 C388 1.398 . S
C387 C393 1.491 . S
C388 H379 0.950 . S
C388 C387 1.398 . S
C388 C389 1.391 . S
C389 H377 0.950 . S
C389 C385 1.393 . S
C389 C388 1.391 . S
C390 H380 0.950 . S
C390 C391 1.386 . S
C390 C392 1.391 . S
C391 C390 1.386 . S
C391 C395 1.393 . S
C392 H381 0.950 . S
C392 C390 1.391 . S
C392 C393 1.400 . S
C393 C387 1.491 . S
C393 C392 1.400 . S
C393 C394 1.398 . S
C394 H382 0.950 . S
C394 C393 1.398 . S
C394 C395 1.391 . S
C395 H383 0.950 . S
C395 C391 1.393 . S
C395 C394 1.391 . S
H396 C404 0.950 . S
H397 C409 0.950 . S
H398 C406 0.950 . S
H399 C408 0.950 . S
H400 C410 0.950 . S
H401 C412 0.950 . S
H402 C414 0.950 . S
H403 C415 0.950 . S
C404 H396 0.950 . S
C404 C405 1.386 . S
C404 C406 1.391 . S
C405 C404 1.386 . S
C405 C409 1.393 . S
C406 H398 0.950 . S
C406 C404 1.391 . S
C406 C407 1.400 . S
C407 C406 1.400 . S
C407 C408 1.398 . S
C407 C413 1.491 . S
C408 H399 0.950 . S
C408 C407 1.398 . S
C408 C409 1.391 . S
C409 H397 0.950 . S
C409 C405 1.393 . S
C409 C408 1.391 . S
C410 H400 0.950 . S
C410 C411 1.386 . S
C410 C412 1.391 . S
C411 C410 1.386 . S
C411 C415 1.393 . S
C412 H401 0.950 . S
C412 C410 1.391 . S
C412 C413 1.400 . S
C413 C407 1.491 . S
C413 C412 1.400 . S
C413 C414 1.398 . S
C414 H402 0.950 . S
C414 C413 1.398 . S
C414 C415 1.391 . S
C415 H403 0.950 . S
C415 C411 1.393 . S
C415 C414 1.391 . S
H416 C424 0.950 . S
H417 C429 0.950 . S
H418 C426 0.950 . S
H419 C428 0.950 . S
H420 C430 0.950 . S
H421 C432 0.950 . S
H422 C434 0.950 . S
H423 C435 0.950 . S
C424 H416 0.950 . S
C424 C425 1.386 . S
C424 C426 1.391 . S
C425 C424 1.386 . S
C425 C429 1.393 . S
C426 H418 0.950 . S
C426 C424 1.391 . S
C426 C427 1.400 . S
C427 C426 1.400 . S
C427 C428 1.398 . S
C427 C433 1.491 . S
C428 H419 0.950 . S
C428 C427 1.398 . S
C428 C429 1.391 . S
C429 H417 0.950 . S
C429 C425 1.393 . S
C429 C428 1.391 . S
C430 H420 0.950 . S
C430 C431 1.386 . S
C430 C432 1.391 . S
C431 C430 1.386 . S
C431 C435 1.393 . S
C432 H421 0.950 . S
C432 C430 1.391 . S
C432 C433 1.400 . S
C433 C427 1.491 . S
C433 C432 1.400 . S
C433 C434 1.398 . S
C434 H422 0.950 . S
C434 C433 1.398 . S
C434 C435 1.391 . S
C435 H423 0.950 . S
C435 C431 1.393 . S
C435 C434 1.391 . S
H436 C444 0.950 . S
H437 C449 0.950 . S
H438 C446 0.950 . S
H439 C448 0.950 . S
H440 C450 0.950 . S
H441 C452 0.950 . S
H442 C454 0.950 . S
H443 C455 0.950 . S
C444 H436 0.950 . S
C444 C445 1.386 . S
C444 C446 1.391 . S
C445 C444 1.386 . S
C445 C449 1.393 . S
C446 H438 0.950 . S
C446 C444 1.391 . S
C446 C447 1.400 . S
C447 C446 1.400 . S
C447 C448 1.398 . S
C447 C453 1.491 . S
C448 H439 0.950 . S
C448 C447 1.398 . S
C448 C449 1.391 . S
C449 H437 0.950 . S
C449 C445 1.393 . S
C449 C448 1.391 . S
C450 H440 0.950 . S
C450 C451 1.386 . S
C450 C452 1.391 . S
C451 C450 1.386 . S
C451 C455 1.393 . S
C452 H441 0.950 . S
C452 C450 1.391 . S
C452 C453 1.400 . S
C453 C447 1.491 . S
C453 C452 1.400 . S
C453 C454 1.398 . S
C454 H442 0.950 . S
C454 C453 1.398 . S
C454 C455 1.391 . S
C455 H443 0.950 . S
C455 C451 1.393 . S
C455 C454 1.391 . S
H456 C464 0.950 . S
H457 C469 0.950 . S
H458 C466 0.950 . S
H459 C468 0.950 . S
H460 C470 0.950 . S
H461 C472 0.950 . S
H462 C474 0.950 . S
H463 C475 0.950 . S
C464 H456 0.950 . S
C464 C465 1.386 . S
C464 C466 1.391 . S
C465 C464 1.386 . S
C465 C469 1.393 . S
C466 H458 0.950 . S
C466 C464 1.391 . S
C466 C467 1.400 . S
C467 C466 1.400 . S
C467 C468 1.398 . S
C467 C473 1.491 . S
C468 H459 0.950 . S
C468 C467 1.398 . S
C468 C469 1.391 . S
C469 H457 0.950 . S
C469 C465 1.393 . S
C469 C468 1.391 . S
C470 H460 0.950 . S
C470 C471 1.386 . S
C470 C472 1.391 . S
C471 C470 1.386 . S
C471 C475 1.393 . S
C472 H461 0.950 . S
C472 C470 1.391 . S
C472 C473 1.400 . S
C473 C467 1.491 . S
C473 C472 1.400 . S
C473 C474 1.398 . S
C474 H462 0.950 . S
C474 C473 1.398 . S
C474 C475 1.391 . S
C475 H463 0.950 . S
C475 C471 1.393 . S
C475 C474 1.391 . S
H476 C484 0.950 . S
H477 C489 0.950 . S
H478 C486 0.950 . S
H479 C488 0.950 . S
H480 C490 0.950 . S
H481 C492 0.950 . S
H482 C494 0.950 . S
H483 C495 0.950 . S
C484 H476 0.950 . S
C484 C485 1.386 . S
C484 C486 1.391 . S
C485 C484 1.386 . S
C485 C489 1.393 . S
C486 H478 0.950 . S
C486 C484 1.391 . S
C486 C487 1.400 . S
C487 C486 1.400 . S
C487 C488 1.398 . S
C487 C493 1.491 . S
C488 H479 0.950 . S
C488 C487 1.398 . S
C488 C489 1.391 . S
C489 H477 0.950 . S
C489 C485 1.393 . S
C489 C488 1.391 . S
C490 H480 0.950 . S
C490 C491 1.386 . S
C490 C492 1.391 . S
C491 C490 1.386 . S
C491 C495 1.393 . S
C492 H481 0.950 . S
C492 C490 1.391 . S
C492 C493 1.400 . S
C493 C487 1.491 . S
C493 C492 1.400 . S
C493 C494 1.398 . S
C494 H482 0.950 . S
C494 C493 1.398 . S
C494 C495 1.391 . S
C495 H483 0.950 . S
C495 C491 1.393 . S
C495 C494 1.391 . S
H496 C504 0.950 . S
H497 C509 0.950 . S
H498 C506 0.950 . S
H499 C508 0.950 . S
H500 C510 0.950 . S
H501 C512 0.950 . S
H502 C514 0.950 . S
H503 C515 0.950 . S
C504 H496 0.950 . S
C504 C505 1.386 . S
C504 C506 1.391 . S
C505 C504 1.386 . S
C505 C509 1.393 . S
C506 H498 0.950 . S
C506 C504 1.391 . S
C506 C507 1.400 . S
C507 C506 1.400 . S
C507 C508 1.398 . S
C507 C513 1.491 . S
C508 H499 0.950 . S
C508 C507 1.398 . S
C508 C509 1.391 . S
C509 H497 0.950 . S
C509 C505 1.393 . S
C509 C508 1.391 . S
C510 H500 0.950 . S
C510 C511 1.386 . S
C510 C512 1.391 . S
C511 C510 1.386 . S
C511 C515 1.393 . S
C512 H501 0.950 . S
C512 C510 1.391 . S
C512 C513 1.400 . S
C513 C507 1.491 . S
C513 C512 1.400 . S
C513 C514 1.398 . S
C514 H502 0.950 . S
C514 C513 1.398 . S
C514 C515 1.391 . S
C515 H503 0.950 . S
C515 C511 1.393 . S
C515 C514 1.391 . S
H516 C524 0.950 . S
H517 C529 0.950 . S
H518 C526 0.950 . S
H519 C528 0.950 . S
H520 C530 0.950 . S
H521 C532 0.950 . S
H522 C534 0.950 . S
H523 C535 0.950 . S
C524 H516 0.950 . S
C524 C525 1.386 . S
C524 C526 1.391 . S
C525 C524 1.386 . S
C525 C529 1.393 . S
C526 H518 0.950 . S
C526 C524 1.391 . S
C526 C527 1.400 . S
C527 C526 1.400 . S
C527 C528 1.398 1_655 S
C527 C533 1.491 1_655 S
C528 H519 0.950 . S
C528 C527 1.398 1_455 S
C528 C529 1.391 1_455 S
C529 H517 0.950 . S
C529 C525 1.393 . S
C529 C528 1.391 1_655 S
C530 H520 0.950 . S
C530 C531 1.386 . S
C530 C532 1.391 . S
C531 C530 1.386 . S
C531 C535 1.393 . S
C532 H521 0.950 . S
C532 C530 1.391 . S
C532 C533 1.400 . S
C533 C527 1.491 1_455 S
C533 C532 1.400 . S
C533 C534 1.398 1_455 S
C534 H522 0.950 . S
C534 C533 1.398 1_655 S
C534 C535 1.391 1_655 S
C535 H523 0.950 . S
C535 C531 1.393 . S
C535 C534 1.391 1_455 S
H536 C544 0.950 . S
H537 C549 0.950 . S
H538 C546 0.950 . S
H539 C548 0.950 . S
H540 C550 0.950 . S
H541 C552 0.950 . S
H542 C554 0.950 1_545 S
H543 C555 0.950 . S
C544 H536 0.950 . S
C544 C545 1.386 . S
C544 C546 1.391 . S
C545 C544 1.386 . S
C545 C549 1.393 1_545 S
C546 H538 0.950 . S
C546 C544 1.391 . S
C546 C547 1.400 1_545 S
C547 C546 1.400 1_565 S
C547 C548 1.398 . S
C547 C553 1.491 . S
C548 H539 0.950 . S
C548 C547 1.398 . S
C548 C549 1.391 . S
C549 H537 0.950 . S
C549 C545 1.393 1_565 S
C549 C548 1.391 . S
C550 H540 0.950 . S
C550 C551 1.386 . S
C550 C552 1.391 . S
C551 C550 1.386 . S
C551 C555 1.393 . S
C552 H541 0.950 . S
C552 C550 1.391 . S
C552 C553 1.400 . S
C553 C547 1.491 . S
C553 C552 1.400 . S
C553 C554 1.398 . S
C554 H542 0.950 1_565 S
C554 C553 1.398 . S
C554 C555 1.391 . S
C555 H543 0.950 . S
C555 C551 1.393 . S
C555 C554 1.391 . S
H556 C564 0.950 . S
H557 C569 0.950 . S
H558 C566 0.950 . S
H559 C568 0.950 . S
H560 C570 0.950 . S
H561 C572 0.950 . S
H562 C574 0.950 . S
H563 C575 0.951 . S
C564 H556 0.950 . S
C564 C565 1.386 . S
C564 C566 1.391 . S
C565 C564 1.386 . S
C565 C569 1.393 1_455 S
C566 H558 0.950 . S
C566 C564 1.391 . S
C566 C567 1.400 . S
C567 C566 1.400 . S
C567 C568 1.398 1_455 S
C567 C573 1.491 1_455 S
C568 H559 0.950 . S
C568 C567 1.398 1_655 S
C568 C569 1.391 . S
C569 H557 0.950 . S
C569 C565 1.393 1_655 S
C569 C568 1.391 . S
C570 H560 0.950 . S
C570 C571 1.386 . S
C570 C572 1.391 . S
C571 C570 1.386 . S
C571 C575 1.390 1_655 S
C572 H561 0.950 . S
C572 C570 1.391 . S
C572 C573 1.400 . S
C573 C567 1.491 1_655 S
C573 C572 1.400 . S
C573 C574 1.398 1_655 S
C574 H562 0.950 . S
C574 C573 1.398 1_455 S
C574 C575 1.392 . S
C575 H563 0.951 . S
C575 C571 1.390 1_455 S
C575 C574 1.392 . S
H576 C584 0.950 . S
H577 C589 0.950 . S
H578 C586 0.950 . S
H579 C588 0.950 . S
H580 C590 0.950 . S
H581 C592 0.950 . S
H582 C594 0.950 . S
H583 C595 0.950 . S
C584 H576 0.950 . S
C584 C585 1.386 . S
C584 C586 1.391 . S
C585 C584 1.386 . S
C585 C589 1.393 . S
C586 H578 0.950 . S
C586 C584 1.391 . S
C586 C587 1.400 . S
C587 C586 1.400 . S
C587 C588 1.398 . S
C587 C593 1.491 1_545 S
C588 H579 0.950 . S
C588 C587 1.398 . S
C588 C589 1.391 . S
C589 H577 0.950 . S
C589 C585 1.393 . S
C589 C588 1.391 . S
C590 H580 0.950 . S
C590 C591 1.386 . S
C590 C592 1.391 . S
C591 C590 1.386 . S
C591 C595 1.393 . S
C592 H581 0.950 . S
C592 C590 1.391 . S
C592 C593 1.400 . S
C593 C587 1.491 1_565 S
C593 C592 1.400 . S
C593 C594 1.398 . S
C594 H582 0.950 . S
C594 C593 1.398 . S
C594 C595 1.391 . S
C595 H583 0.950 . S
C595 C591 1.393 . S
C595 C594 1.391 . S
H596 C604 0.950 . S
H597 C609 0.950 . S
H598 C606 0.950 1_565 S
H599 C608 0.950 . S
H600 C610 0.950 . S
H601 C612 0.950 . S
H602 C614 0.950 . S
H603 C615 0.950 . S
C604 H596 0.950 . S
C604 C605 1.386 . S
C604 C606 1.391 . S
C605 C604 1.386 . S
C605 C609 1.393 . S
C606 H598 0.950 1_545 S
C606 C604 1.391 . S
C606 C607 1.400 . S
C607 C606 1.400 . S
C607 C608 1.398 . S
C607 C613 1.491 . S
C608 H599 0.950 . S
C608 C607 1.398 . S
C608 C609 1.391 . S
C609 H597 0.950 . S
C609 C605 1.393 . S
C609 C608 1.391 . S
C610 H600 0.950 . S
C610 C611 1.386 1_545 S
C610 C612 1.391 . S
C611 C610 1.386 1_565 S
C611 C615 1.393 . S
C612 H601 0.950 . S
C612 C610 1.391 . S
C612 C613 1.400 . S
C613 C607 1.491 . S
C613 C612 1.400 . S
C613 C614 1.398 1_545 S
C614 H602 0.950 . S
C614 C613 1.398 1_565 S
C614 C615 1.391 . S
C615 H603 0.950 . S
C615 C611 1.393 . S
C615 C614 1.391 . S
H616 C624 0.950 . S
H617 C629 0.950 1_655 S
H618 C626 0.950 . S
H619 C628 0.950 . S
H620 C630 0.950 . S
H621 C632 0.950 . S
H622 C634 0.950 . S
H623 C635 0.950 . S
C624 H616 0.950 . S
C624 C625 1.386 . S
C624 C626 1.391 . S
C625 C624 1.386 . S
C625 C629 1.393 . S
C626 H618 0.950 . S
C626 C624 1.391 . S
C626 C627 1.400 . S
C627 C626 1.400 . S
C627 C628 1.398 1_455 S
C627 C633 1.491 . S
C628 H619 0.950 . S
C628 C627 1.398 1_655 S
C628 C629 1.391 1_655 S
C629 H617 0.950 1_455 S
C629 C625 1.393 . S
C629 C628 1.391 1_455 S
C630 H620 0.950 . S
C630 C631 1.386 . S
C630 C632 1.391 . S
C631 C630 1.386 . S
C631 C635 1.393 1_655 S
C632 H621 0.950 . S
C632 C630 1.391 . S
C632 C633 1.400 1_655 S
C633 C627 1.491 . S
C633 C632 1.400 1_455 S
C633 C634 1.398 . S
C634 H622 0.950 . S
C634 C633 1.398 . S
C634 C635 1.391 . S
C635 H623 0.950 . S
C635 C631 1.393 1_455 S
C635 C634 1.391 . S
H636 C644 0.950 . S
H637 C649 0.950 . S
H638 C646 0.950 . S
H639 C648 0.950 . S
H640 C650 0.950 . S
H641 C652 0.950 . S
H642 C654 0.950 . S
H643 C655 0.950 1_545 S
C644 H636 0.950 . S
C644 C645 1.386 . S
C644 C646 1.391 . S
C645 C644 1.386 . S
C645 C649 1.393 1_545 S
C646 H638 0.950 . S
C646 C644 1.391 . S
C646 C647 1.400 1_545 S
C647 C646 1.400 1_565 S
C647 C648 1.398 . S
C647 C653 1.491 . S
C648 H639 0.950 . S
C648 C647 1.398 . S
C648 C649 1.391 . S
C649 H637 0.950 . S
C649 C645 1.393 1_565 S
C649 C648 1.391 . S
C650 H640 0.950 . S
C650 C651 1.386 . S
C650 C652 1.391 . S
C651 C650 1.386 . S
C651 C655 1.393 . S
C652 H641 0.950 . S
C652 C650 1.391 . S
C652 C653 1.400 . S
C653 C647 1.491 . S
C653 C652 1.400 . S
C653 C654 1.398 1_565 S
C654 H642 0.950 . S
C654 C653 1.398 1_545 S
C654 C655 1.391 1_545 S
C655 H643 0.950 1_565 S
C655 C651 1.393 . S
C655 C654 1.391 1_565 S
H656 C664 0.950 . S
H657 C669 0.950 1_455 S
H658 C666 0.950 . S
H659 C668 0.950 . S
H660 C670 0.950 . S
H661 C672 0.950 . S
H662 C674 0.950 . S
H663 C675 0.950 . S
C664 H656 0.950 . S
C664 C665 1.386 . S
C664 C666 1.391 . S
C665 C664 1.386 . S
C665 C669 1.393 . S
C666 H658 0.950 . S
C666 C664 1.391 . S
C666 C667 1.400 . S
C667 C666 1.400 . S
C667 C668 1.398 1_655 S
C667 C673 1.491 . S
C668 H659 0.950 . S
C668 C667 1.398 1_455 S
C668 C669 1.391 1_455 S
C669 H657 0.950 1_655 S
C669 C665 1.393 . S
C669 C668 1.391 1_655 S
C670 H660 0.950 . S
C670 C671 1.386 . S
C670 C672 1.391 . S
C671 C670 1.386 . S
C671 C675 1.393 1_455 S
C672 H661 0.950 . S
C672 C670 1.391 . S
C672 C673 1.400 1_455 S
C673 C667 1.491 . S
C673 C672 1.400 1_655 S
C673 C674 1.398 . S
C674 H662 0.950 . S
C674 C673 1.398 . S
C674 C675 1.391 . S
C675 H663 0.950 . S
C675 C671 1.393 1_655 S
C675 C674 1.391 . S
H676 C684 0.950 . S
H677 C689 0.950 1_556 S
H678 C686 0.950 . S
H679 C688 0.950 . S
H680 C690 0.950 . S
H681 C692 0.950 . S
H682 C694 0.950 . S
H683 C695 0.950 . S
C684 H676 0.950 . S
C684 C685 1.386 . S
C684 C686 1.391 . S
C685 C684 1.386 . S
C685 C689 1.393 . S
C686 H678 0.950 . S
C686 C684 1.391 . S
C686 C687 1.400 . S
C687 C686 1.400 . S
C687 C688 1.398 1_554 S
C687 C693 1.491 . S
C688 H679 0.950 . S
C688 C687 1.398 1_556 S
C688 C689 1.391 1_556 S
C689 H677 0.950 1_554 S
C689 C685 1.393 . S
C689 C688 1.391 1_554 S
C690 H680 0.950 . S
C690 C691 1.386 . S
C690 C692 1.391 . S
C691 C690 1.386 . S
C691 C695 1.393 1_556 S
C692 H681 0.950 . S
C692 C690 1.391 . S
C692 C693 1.400 1_556 S
C693 C687 1.491 . S
C693 C692 1.400 1_554 S
C693 C694 1.398 . S
C694 H682 0.950 . S
C694 C693 1.398 . S
C694 C695 1.391 . S
C695 H683 0.950 . S
C695 C691 1.393 1_554 S
C695 C694 1.391 . S
H696 C704 0.950 . S
H697 C709 0.950 . S
H698 C706 0.950 . S
H699 C708 0.950 . S
H700 C710 0.950 . S
H701 C712 0.950 . S
H702 C714 0.950 . S
H703 C715 0.950 . S
C704 H696 0.950 . S
C704 C705 1.386 . S
C704 C706 1.391 . S
C705 C704 1.386 . S
C705 C709 1.393 . S
C706 H698 0.950 . S
C706 C704 1.391 . S
C706 C707 1.400 . S
C707 C706 1.400 . S
C707 C708 1.398 . S
C707 C713 1.491 1_556 S
C708 H699 0.950 . S
C708 C707 1.398 . S
C708 C709 1.391 . S
C709 H697 0.950 . S
C709 C705 1.393 . S
C709 C708 1.391 . S
C710 H700 0.950 . S
C710 C711 1.386 . S
C710 C712 1.391 . S
C711 C710 1.386 . S
C711 C715 1.393 . S
C712 H701 0.950 . S
C712 C710 1.391 . S
C712 C713 1.400 . S
C713 C707 1.491 1_554 S
C713 C712 1.400 . S
C713 C714 1.398 . S
C714 H702 0.950 . S
C714 C713 1.398 . S
C714 C715 1.391 . S
C715 H703 0.950 . S
C715 C711 1.393 . S
C715 C714 1.391 . S
H716 C724 0.950 1_554 S
H717 C729 0.950 . S
H718 C726 0.950 . S
H719 C728 0.950 . S
H720 C730 0.950 . S
H721 C732 0.950 . S
H722 C734 0.950 . S
H723 C735 0.950 . S
C724 H716 0.950 1_556 S
C724 C725 1.386 . S
C724 C726 1.391 1_556 S
C725 C724 1.386 . S
C725 C729 1.393 . S
C726 H718 0.950 . S
C726 C724 1.391 1_554 S
C726 C727 1.400 1_554 S
C727 C726 1.400 1_556 S
C727 C728 1.398 . S
C727 C733 1.491 . S
C728 H719 0.950 . S
C728 C727 1.398 . S
C728 C729 1.391 . S
C729 H717 0.950 . S
C729 C725 1.393 . S
C729 C728 1.391 . S
C730 H720 0.950 . S
C730 C731 1.386 1_556 S
C730 C732 1.391 . S
C731 C730 1.386 1_554 S
C731 C735 1.393 . S
C732 H721 0.950 . S
C732 C730 1.391 . S
C732 C733 1.400 . S
C733 C727 1.491 . S
C733 C732 1.400 . S
C733 C734 1.398 1_556 S
C734 H722 0.950 . S
C734 C733 1.398 1_554 S
C734 C735 1.391 . S
C735 H723 0.950 . S
C735 C731 1.393 . S
C735 C734 1.391 . S
H736 C744 0.950 . S
H737 C749 0.950 . S
H738 C746 0.950 . S
H739 C748 0.950 . S
H740 C750 0.950 . S
H741 C752 0.950 . S
H742 C754 0.950 . S
H743 C755 0.950 . S
C744 H736 0.950 . S
C744 C745 1.386 . S
C744 C746 1.391 . S
C745 C744 1.386 . S
C745 C749 1.393 . S
C746 H738 0.950 . S
C746 C744 1.391 . S
C746 C747 1.400 . S
C747 C746 1.400 . S
C747 C748 1.398 . S
C747 C753 1.491 1_554 S
C748 H739 0.950 . S
C748 C747 1.398 . S
C748 C749 1.391 . S
C749 H737 0.950 . S
C749 C745 1.393 . S
C749 C748 1.391 . S
C750 H740 0.950 . S
C750 C751 1.386 . S
C750 C752 1.391 . S
C751 C750 1.386 . S
C751 C755 1.393 . S
C752 H741 0.950 . S
C752 C750 1.391 . S
C752 C753 1.400 . S
C753 C747 1.491 1_556 S
C753 C752 1.400 . S
C753 C754 1.398 . S
C754 H742 0.950 . S
C754 C753 1.398 . S
C754 C755 1.391 . S
C755 H743 0.950 . S
C755 C751 1.393 . S
C755 C754 1.391 . S
C285 N12 1.399 . S
C291 C177 1.442 . S
C305 N25 1.363 . S
C311 C108 1.390 . S
C325 N117 1.384 . S
C331 C62 1.419 . S
C345 N140 1.287 . S
C351 N71 1.280 . S
C365 N186 1.236 . S
C371 N163 1.256 . S
C385 C223 1.412 . S
C391 N94 1.376 . S
C405 N242 1.458 . S
C411 C131 1.461 . S
C425 C260 1.626 . S
C431 C154 1.622 . S
C445 C39 1.450 . S
C451 N209 1.426 . S
C465 C237 1.411 . S
C471 N48 1.389 . S
C485 C85 1.402 . S
C491 N265 1.381 . S
C505 C200 1.606 . S
C511 C7 1.603 . S
C525 C145 1.581 . S
C531 C16 1.557 . S
C545 N173 1.754 . S
C551 C30 1.822 . S
C565 N104 1.345 . S
C571 N58 1.321 . S
C585 C76 1.949 . S
C591 C122 1.946 . S
C605 C168 1.585 . S
C611 N127 1.549 . S
C625 C99 1.790 . S
C631 N150 1.724 . S
C645 N81 1.442 . S
C651 N35 1.441 . S
C665 C53 1.809 . S
C671 N2 1.782 . S
C685 N196 1.431 . S
C691 N219 1.416 . S
C705 C214 1.829 . S
C711 C246 1.839 . S
C725 N255 1.428 . S
C731 N232 1.433 . S
C745 C191 1.785 . S
C751 C269 1.790 . S
