# Generated by pormake.
# Topology ulh, (4)-cn, num edge types: 1
# Building blocks:
#     Node 0, Type 0, BuildingBlock: GALJAG_clean_sbu_0, # of connection points: 4
#     Node 1, Type 0, BuildingBlock: GALJAG_clean_sbu_0, # of connection points: 4
#     Node 2, Type 0, BuildingBlock: GALJAG_clean_sbu_0, # of connection points: 4
#     Node 3, Type 0, BuildingBlock: GALJAG_clean_sbu_0, # of connection points: 4
#     Node 4, Type 0, BuildingBlock: GALJAG_clean_sbu_0, # of connection points: 4
#     Node 5, Type 0, BuildingBlock: GALJAG_clean_sbu_0, # of connection points: 4
#     Node 6, Type 0, BuildingBlock: GALJAG_clean_sbu_0, # of connection points: 4
#     Node 7, Type 0, BuildingBlock: GALJAG_clean_sbu_0, # of connection points: 4
#     Node 8, Type 0, BuildingBlock: GALJAG_clean_sbu_0, # of connection points: 4
#     Node 9, Type 0, BuildingBlock: GALJAG_clean_sbu_0, # of connection points: 4
#     Node 10, Type 0, BuildingBlock: GALJAG_clean_sbu_0, # of connection points: 4
#     Node 11, Type 0, BuildingBlock: GALJAG_clean_sbu_0, # of connection points: 4
#     Node 12, Type 0, BuildingBlock: GALJAG_clean_sbu_0, # of connection points: 4
#     Node 13, Type 0, BuildingBlock: GALJAG_clean_sbu_0, # of connection points: 4
#     Node 14, Type 0, BuildingBlock: GALJAG_clean_sbu_0, # of connection points: 4
#     Node 15, Type 0, BuildingBlock: GALJAG_clean_sbu_0, # of connection points: 4
#     Node 16, Type 0, BuildingBlock: GALJAG_clean_sbu_0, # of connection points: 4
#     Node 17, Type 0, BuildingBlock: GALJAG_clean_sbu_0, # of connection points: 4
#     Node 18, Type 0, BuildingBlock: GALJAG_clean_sbu_0, # of connection points: 4
#     Node 19, Type 0, BuildingBlock: GALJAG_clean_sbu_0, # of connection points: 4
#     Node 20, Type 0, BuildingBlock: GALJAG_clean_sbu_0, # of connection points: 4
#     Node 21, Type 0, BuildingBlock: GALJAG_clean_sbu_0, # of connection points: 4
#     Node 22, Type 0, BuildingBlock: GALJAG_clean_sbu_0, # of connection points: 4
#     Node 23, Type 0, BuildingBlock: GALJAG_clean_sbu_0, # of connection points: 4
#     Node 24, Type 0, BuildingBlock: GALJAG_clean_sbu_0, # of connection points: 4
#     Node 25, Type 0, BuildingBlock: GALJAG_clean_sbu_0, # of connection points: 4
#     Node 26, Type 0, BuildingBlock: GALJAG_clean_sbu_0, # of connection points: 4
#     Node 27, Type 0, BuildingBlock: GALJAG_clean_sbu_0, # of connection points: 4
#     Node 28, Type 0, BuildingBlock: GALJAG_clean_sbu_0, # of connection points: 4
#     Node 29, Type 0, BuildingBlock: GALJAG_clean_sbu_0, # of connection points: 4
#     Node 30, Type 0, BuildingBlock: GALJAG_clean_sbu_0, # of connection points: 4
#     Node 31, Type 0, BuildingBlock: GALJAG_clean_sbu_0, # of connection points: 4
#     Node 32, Type 0, BuildingBlock: GALJAG_clean_sbu_0, # of connection points: 4
#     Node 33, Type 0, BuildingBlock: GALJAG_clean_sbu_0, # of connection points: 4
#     Node 34, Type 0, BuildingBlock: GALJAG_clean_sbu_0, # of connection points: 4
#     Node 35, Type 0, BuildingBlock: GALJAG_clean_sbu_0, # of connection points: 4
#     Node 36, Type 0, BuildingBlock: GALJAG_clean_sbu_0, # of connection points: 4
#     Node 37, Type 0, BuildingBlock: GALJAG_clean_sbu_0, # of connection points: 4
#     Node 38, Type 0, BuildingBlock: GALJAG_clean_sbu_0, # of connection points: 4
#     Node 39, Type 0, BuildingBlock: GALJAG_clean_sbu_0, # of connection points: 4
#     Node 40, Type 0, BuildingBlock: GALJAG_clean_sbu_0, # of connection points: 4
#     Node 41, Type 0, BuildingBlock: GALJAG_clean_sbu_0, # of connection points: 4
#     Node 42, Type 0, BuildingBlock: GALJAG_clean_sbu_0, # of connection points: 4
#     Node 43, Type 0, BuildingBlock: GALJAG_clean_sbu_0, # of connection points: 4
#     Node 44, Type 0, BuildingBlock: GALJAG_clean_sbu_0, # of connection points: 4
#     Node 45, Type 0, BuildingBlock: GALJAG_clean_sbu_0, # of connection points: 4
#     Node 46, Type 0, BuildingBlock: GALJAG_clean_sbu_0, # of connection points: 4
#     Node 47, Type 0, BuildingBlock: GALJAG_clean_sbu_0, # of connection points: 4
#     Node 48, Type 0, BuildingBlock: GALJAG_clean_sbu_0, # of connection points: 4
#     Node 49, Type 0, BuildingBlock: GALJAG_clean_sbu_0, # of connection points: 4
#     Node 50, Type 0, BuildingBlock: GALJAG_clean_sbu_0, # of connection points: 4
#     Node 51, Type 0, BuildingBlock: GALJAG_clean_sbu_0, # of connection points: 4
#     Node 52, Type 0, BuildingBlock: GALJAG_clean_sbu_0, # of connection points: 4
#     Node 53, Type 0, BuildingBlock: GALJAG_clean_sbu_0, # of connection points: 4
#     Node 54, Type 0, BuildingBlock: GALJAG_clean_sbu_0, # of connection points: 4
#     Node 55, Type 0, BuildingBlock: GALJAG_clean_sbu_0, # of connection points: 4
#     Node 56, Type 0, BuildingBlock: GALJAG_clean_sbu_0, # of connection points: 4
#     Node 57, Type 0, BuildingBlock: GALJAG_clean_sbu_0, # of connection points: 4
#     Node 58, Type 0, BuildingBlock: GALJAG_clean_sbu_0, # of connection points: 4
#     Node 59, Type 0, BuildingBlock: GALJAG_clean_sbu_0, # of connection points: 4
#     Node 60, Type 0, BuildingBlock: GALJAG_clean_sbu_0, # of connection points: 4
#     Node 61, Type 0, BuildingBlock: GALJAG_clean_sbu_0, # of connection points: 4
#     Node 62, Type 0, BuildingBlock: GALJAG_clean_sbu_0, # of connection points: 4
#     Node 63, Type 0, BuildingBlock: GALJAG_clean_sbu_0, # of connection points: 4
#     Node 64, Type 0, BuildingBlock: GALJAG_clean_sbu_0, # of connection points: 4
#     Node 65, Type 0, BuildingBlock: GALJAG_clean_sbu_0, # of connection points: 4
#     Node 66, Type 0, BuildingBlock: GALJAG_clean_sbu_0, # of connection points: 4
#     Node 67, Type 0, BuildingBlock: GALJAG_clean_sbu_0, # of connection points: 4
#     Node 68, Type 0, BuildingBlock: GALJAG_clean_sbu_0, # of connection points: 4
#     Node 69, Type 0, BuildingBlock: GALJAG_clean_sbu_0, # of connection points: 4
#     Node 70, Type 0, BuildingBlock: GALJAG_clean_sbu_0, # of connection points: 4
#     Node 71, Type 0, BuildingBlock: GALJAG_clean_sbu_0, # of connection points: 4
#     Node 72, Type 0, BuildingBlock: GALJAG_clean_sbu_0, # of connection points: 4
#     Node 73, Type 0, BuildingBlock: GALJAG_clean_sbu_0, # of connection points: 4
#     Node 74, Type 0, BuildingBlock: GALJAG_clean_sbu_0, # of connection points: 4
#     Node 75, Type 0, BuildingBlock: GALJAG_clean_sbu_0, # of connection points: 4
#     Node 76, Type 0, BuildingBlock: GALJAG_clean_sbu_0, # of connection points: 4
#     Node 77, Type 0, BuildingBlock: GALJAG_clean_sbu_0, # of connection points: 4
#     Node 78, Type 0, BuildingBlock: GALJAG_clean_sbu_0, # of connection points: 4
#     Node 79, Type 0, BuildingBlock: GALJAG_clean_sbu_0, # of connection points: 4
#     Node 80, Type 0, BuildingBlock: GALJAG_clean_sbu_0, # of connection points: 4
#     Node 81, Type 0, BuildingBlock: GALJAG_clean_sbu_0, # of connection points: 4
#     Node 82, Type 0, BuildingBlock: GALJAG_clean_sbu_0, # of connection points: 4
#     Node 83, Type 0, BuildingBlock: GALJAG_clean_sbu_0, # of connection points: 4
#     Node 84, Type 0, BuildingBlock: GALJAG_clean_sbu_0, # of connection points: 4
#     Node 85, Type 0, BuildingBlock: GALJAG_clean_sbu_0, # of connection points: 4
#     Node 86, Type 0, BuildingBlock: GALJAG_clean_sbu_0, # of connection points: 4
#     Node 87, Type 0, BuildingBlock: GALJAG_clean_sbu_0, # of connection points: 4
#     Node 88, Type 0, BuildingBlock: GALJAG_clean_sbu_0, # of connection points: 4
#     Node 89, Type 0, BuildingBlock: GALJAG_clean_sbu_0, # of connection points: 4
#     Node 90, Type 0, BuildingBlock: GALJAG_clean_sbu_0, # of connection points: 4
#     Node 91, Type 0, BuildingBlock: GALJAG_clean_sbu_0, # of connection points: 4
#     Node 92, Type 0, BuildingBlock: GALJAG_clean_sbu_0, # of connection points: 4
#     Node 93, Type 0, BuildingBlock: GALJAG_clean_sbu_0, # of connection points: 4
#     Node 94, Type 0, BuildingBlock: GALJAG_clean_sbu_0, # of connection points: 4
#     Node 95, Type 0, BuildingBlock: GALJAG_clean_sbu_0, # of connection points: 4
#     Edge 96, Type (0, 0), BuildingBlock: UVAHIK_clean_linker_0, # of connection points: 2
#     Edge 97, Type (0, 0), BuildingBlock: UVAHIK_clean_linker_0, # of connection points: 2
#     Edge 98, Type (0, 0), BuildingBlock: UVAHIK_clean_linker_0, # of connection points: 2
#     Edge 99, Type (0, 0), BuildingBlock: UVAHIK_clean_linker_0, # of connection points: 2
#     Edge 100, Type (0, 0), BuildingBlock: UVAHIK_clean_linker_0, # of connection points: 2
#     Edge 101, Type (0, 0), BuildingBlock: UVAHIK_clean_linker_0, # of connection points: 2
#     Edge 102, Type (0, 0), BuildingBlock: UVAHIK_clean_linker_0, # of connection points: 2
#     Edge 103, Type (0, 0), BuildingBlock: UVAHIK_clean_linker_0, # of connection points: 2
#     Edge 104, Type (0, 0), BuildingBlock: UVAHIK_clean_linker_0, # of connection points: 2
#     Edge 105, Type (0, 0), BuildingBlock: UVAHIK_clean_linker_0, # of connection points: 2
#     Edge 106, Type (0, 0), BuildingBlock: UVAHIK_clean_linker_0, # of connection points: 2
#     Edge 107, Type (0, 0), BuildingBlock: UVAHIK_clean_linker_0, # of connection points: 2
#     Edge 108, Type (0, 0), BuildingBlock: UVAHIK_clean_linker_0, # of connection points: 2
#     Edge 109, Type (0, 0), BuildingBlock: UVAHIK_clean_linker_0, # of connection points: 2
#     Edge 110, Type (0, 0), BuildingBlock: UVAHIK_clean_linker_0, # of connection points: 2
#     Edge 111, Type (0, 0), BuildingBlock: UVAHIK_clean_linker_0, # of connection points: 2
#     Edge 112, Type (0, 0), BuildingBlock: UVAHIK_clean_linker_0, # of connection points: 2
#     Edge 113, Type (0, 0), BuildingBlock: UVAHIK_clean_linker_0, # of connection points: 2
#     Edge 114, Type (0, 0), BuildingBlock: UVAHIK_clean_linker_0, # of connection points: 2
#     Edge 115, Type (0, 0), BuildingBlock: UVAHIK_clean_linker_0, # of connection points: 2
#     Edge 116, Type (0, 0), BuildingBlock: UVAHIK_clean_linker_0, # of connection points: 2
#     Edge 117, Type (0, 0), BuildingBlock: UVAHIK_clean_linker_0, # of connection points: 2
#     Edge 118, Type (0, 0), BuildingBlock: UVAHIK_clean_linker_0, # of connection points: 2
#     Edge 119, Type (0, 0), BuildingBlock: UVAHIK_clean_linker_0, # of connection points: 2
#     Edge 120, Type (0, 0), BuildingBlock: UVAHIK_clean_linker_0, # of connection points: 2
#     Edge 121, Type (0, 0), BuildingBlock: UVAHIK_clean_linker_0, # of connection points: 2
#     Edge 122, Type (0, 0), BuildingBlock: UVAHIK_clean_linker_0, # of connection points: 2
#     Edge 123, Type (0, 0), BuildingBlock: UVAHIK_clean_linker_0, # of connection points: 2
#     Edge 124, Type (0, 0), BuildingBlock: UVAHIK_clean_linker_0, # of connection points: 2
#     Edge 125, Type (0, 0), BuildingBlock: UVAHIK_clean_linker_0, # of connection points: 2
#     Edge 126, Type (0, 0), BuildingBlock: UVAHIK_clean_linker_0, # of connection points: 2
#     Edge 127, Type (0, 0), BuildingBlock: UVAHIK_clean_linker_0, # of connection points: 2
#     Edge 128, Type (0, 0), BuildingBlock: UVAHIK_clean_linker_0, # of connection points: 2
#     Edge 129, Type (0, 0), BuildingBlock: UVAHIK_clean_linker_0, # of connection points: 2
#     Edge 130, Type (0, 0), BuildingBlock: UVAHIK_clean_linker_0, # of connection points: 2
#     Edge 131, Type (0, 0), BuildingBlock: UVAHIK_clean_linker_0, # of connection points: 2
#     Edge 132, Type (0, 0), BuildingBlock: UVAHIK_clean_linker_0, # of connection points: 2
#     Edge 133, Type (0, 0), BuildingBlock: UVAHIK_clean_linker_0, # of connection points: 2
#     Edge 134, Type (0, 0), BuildingBlock: UVAHIK_clean_linker_0, # of connection points: 2
#     Edge 135, Type (0, 0), BuildingBlock: UVAHIK_clean_linker_0, # of connection points: 2
#     Edge 136, Type (0, 0), BuildingBlock: UVAHIK_clean_linker_0, # of connection points: 2
#     Edge 137, Type (0, 0), BuildingBlock: UVAHIK_clean_linker_0, # of connection points: 2
#     Edge 138, Type (0, 0), BuildingBlock: UVAHIK_clean_linker_0, # of connection points: 2
#     Edge 139, Type (0, 0), BuildingBlock: UVAHIK_clean_linker_0, # of connection points: 2
#     Edge 140, Type (0, 0), BuildingBlock: UVAHIK_clean_linker_0, # of connection points: 2
#     Edge 141, Type (0, 0), BuildingBlock: UVAHIK_clean_linker_0, # of connection points: 2
#     Edge 142, Type (0, 0), BuildingBlock: UVAHIK_clean_linker_0, # of connection points: 2
#     Edge 143, Type (0, 0), BuildingBlock: UVAHIK_clean_linker_0, # of connection points: 2
#     Edge 144, Type (0, 0), BuildingBlock: UVAHIK_clean_linker_0, # of connection points: 2
#     Edge 145, Type (0, 0), BuildingBlock: UVAHIK_clean_linker_0, # of connection points: 2
#     Edge 146, Type (0, 0), BuildingBlock: UVAHIK_clean_linker_0, # of connection points: 2
#     Edge 147, Type (0, 0), BuildingBlock: UVAHIK_clean_linker_0, # of connection points: 2
#     Edge 148, Type (0, 0), BuildingBlock: UVAHIK_clean_linker_0, # of connection points: 2
#     Edge 149, Type (0, 0), BuildingBlock: UVAHIK_clean_linker_0, # of connection points: 2
#     Edge 150, Type (0, 0), BuildingBlock: UVAHIK_clean_linker_0, # of connection points: 2
#     Edge 151, Type (0, 0), BuildingBlock: UVAHIK_clean_linker_0, # of connection points: 2
#     Edge 152, Type (0, 0), BuildingBlock: UVAHIK_clean_linker_0, # of connection points: 2
#     Edge 153, Type (0, 0), BuildingBlock: UVAHIK_clean_linker_0, # of connection points: 2
#     Edge 154, Type (0, 0), BuildingBlock: UVAHIK_clean_linker_0, # of connection points: 2
#     Edge 155, Type (0, 0), BuildingBlock: UVAHIK_clean_linker_0, # of connection points: 2
#     Edge 156, Type (0, 0), BuildingBlock: UVAHIK_clean_linker_0, # of connection points: 2
#     Edge 157, Type (0, 0), BuildingBlock: UVAHIK_clean_linker_0, # of connection points: 2
#     Edge 158, Type (0, 0), BuildingBlock: UVAHIK_clean_linker_0, # of connection points: 2
#     Edge 159, Type (0, 0), BuildingBlock: UVAHIK_clean_linker_0, # of connection points: 2
#     Edge 160, Type (0, 0), BuildingBlock: UVAHIK_clean_linker_0, # of connection points: 2
#     Edge 161, Type (0, 0), BuildingBlock: UVAHIK_clean_linker_0, # of connection points: 2
#     Edge 162, Type (0, 0), BuildingBlock: UVAHIK_clean_linker_0, # of connection points: 2
#     Edge 163, Type (0, 0), BuildingBlock: UVAHIK_clean_linker_0, # of connection points: 2
#     Edge 164, Type (0, 0), BuildingBlock: UVAHIK_clean_linker_0, # of connection points: 2
#     Edge 165, Type (0, 0), BuildingBlock: UVAHIK_clean_linker_0, # of connection points: 2
#     Edge 166, Type (0, 0), BuildingBlock: UVAHIK_clean_linker_0, # of connection points: 2
#     Edge 167, Type (0, 0), BuildingBlock: UVAHIK_clean_linker_0, # of connection points: 2
#     Edge 168, Type (0, 0), BuildingBlock: UVAHIK_clean_linker_0, # of connection points: 2
#     Edge 169, Type (0, 0), BuildingBlock: UVAHIK_clean_linker_0, # of connection points: 2
#     Edge 170, Type (0, 0), BuildingBlock: UVAHIK_clean_linker_0, # of connection points: 2
#     Edge 171, Type (0, 0), BuildingBlock: UVAHIK_clean_linker_0, # of connection points: 2
#     Edge 172, Type (0, 0), BuildingBlock: UVAHIK_clean_linker_0, # of connection points: 2
#     Edge 173, Type (0, 0), BuildingBlock: UVAHIK_clean_linker_0, # of connection points: 2
#     Edge 174, Type (0, 0), BuildingBlock: UVAHIK_clean_linker_0, # of connection points: 2
#     Edge 175, Type (0, 0), BuildingBlock: UVAHIK_clean_linker_0, # of connection points: 2
#     Edge 176, Type (0, 0), BuildingBlock: UVAHIK_clean_linker_0, # of connection points: 2
#     Edge 177, Type (0, 0), BuildingBlock: UVAHIK_clean_linker_0, # of connection points: 2
#     Edge 178, Type (0, 0), BuildingBlock: UVAHIK_clean_linker_0, # of connection points: 2
#     Edge 179, Type (0, 0), BuildingBlock: UVAHIK_clean_linker_0, # of connection points: 2
#     Edge 180, Type (0, 0), BuildingBlock: UVAHIK_clean_linker_0, # of connection points: 2
#     Edge 181, Type (0, 0), BuildingBlock: UVAHIK_clean_linker_0, # of connection points: 2
#     Edge 182, Type (0, 0), BuildingBlock: UVAHIK_clean_linker_0, # of connection points: 2
#     Edge 183, Type (0, 0), BuildingBlock: UVAHIK_clean_linker_0, # of connection points: 2
#     Edge 184, Type (0, 0), BuildingBlock: UVAHIK_clean_linker_0, # of connection points: 2
#     Edge 185, Type (0, 0), BuildingBlock: UVAHIK_clean_linker_0, # of connection points: 2
#     Edge 186, Type (0, 0), BuildingBlock: UVAHIK_clean_linker_0, # of connection points: 2
#     Edge 187, Type (0, 0), BuildingBlock: UVAHIK_clean_linker_0, # of connection points: 2
#     Edge 188, Type (0, 0), BuildingBlock: UVAHIK_clean_linker_0, # of connection points: 2
#     Edge 189, Type (0, 0), BuildingBlock: UVAHIK_clean_linker_0, # of connection points: 2
#     Edge 190, Type (0, 0), BuildingBlock: UVAHIK_clean_linker_0, # of connection points: 2
#     Edge 191, Type (0, 0), BuildingBlock: UVAHIK_clean_linker_0, # of connection points: 2
#     Edge 192, Type (0, 0), BuildingBlock: UVAHIK_clean_linker_0, # of connection points: 2
#     Edge 193, Type (0, 0), BuildingBlock: UVAHIK_clean_linker_0, # of connection points: 2
#     Edge 194, Type (0, 0), BuildingBlock: UVAHIK_clean_linker_0, # of connection points: 2
#     Edge 195, Type (0, 0), BuildingBlock: UVAHIK_clean_linker_0, # of connection points: 2
#     Edge 196, Type (0, 0), BuildingBlock: UVAHIK_clean_linker_0, # of connection points: 2
#     Edge 197, Type (0, 0), BuildingBlock: UVAHIK_clean_linker_0, # of connection points: 2
#     Edge 198, Type (0, 0), BuildingBlock: UVAHIK_clean_linker_0, # of connection points: 2
#     Edge 199, Type (0, 0), BuildingBlock: UVAHIK_clean_linker_0, # of connection points: 2
#     Edge 200, Type (0, 0), BuildingBlock: UVAHIK_clean_linker_0, # of connection points: 2
#     Edge 201, Type (0, 0), BuildingBlock: UVAHIK_clean_linker_0, # of connection points: 2
#     Edge 202, Type (0, 0), BuildingBlock: UVAHIK_clean_linker_0, # of connection points: 2
#     Edge 203, Type (0, 0), BuildingBlock: UVAHIK_clean_linker_0, # of connection points: 2
#     Edge 204, Type (0, 0), BuildingBlock: UVAHIK_clean_linker_0, # of connection points: 2
#     Edge 205, Type (0, 0), BuildingBlock: UVAHIK_clean_linker_0, # of connection points: 2
#     Edge 206, Type (0, 0), BuildingBlock: UVAHIK_clean_linker_0, # of connection points: 2
#     Edge 207, Type (0, 0), BuildingBlock: UVAHIK_clean_linker_0, # of connection points: 2
#     Edge 208, Type (0, 0), BuildingBlock: UVAHIK_clean_linker_0, # of connection points: 2
#     Edge 209, Type (0, 0), BuildingBlock: UVAHIK_clean_linker_0, # of connection points: 2
#     Edge 210, Type (0, 0), BuildingBlock: UVAHIK_clean_linker_0, # of connection points: 2
#     Edge 211, Type (0, 0), BuildingBlock: UVAHIK_clean_linker_0, # of connection points: 2
#     Edge 212, Type (0, 0), BuildingBlock: UVAHIK_clean_linker_0, # of connection points: 2
#     Edge 213, Type (0, 0), BuildingBlock: UVAHIK_clean_linker_0, # of connection points: 2
#     Edge 214, Type (0, 0), BuildingBlock: UVAHIK_clean_linker_0, # of connection points: 2
#     Edge 215, Type (0, 0), BuildingBlock: UVAHIK_clean_linker_0, # of connection points: 2
#     Edge 216, Type (0, 0), BuildingBlock: UVAHIK_clean_linker_0, # of connection points: 2
#     Edge 217, Type (0, 0), BuildingBlock: UVAHIK_clean_linker_0, # of connection points: 2
#     Edge 218, Type (0, 0), BuildingBlock: UVAHIK_clean_linker_0, # of connection points: 2
#     Edge 219, Type (0, 0), BuildingBlock: UVAHIK_clean_linker_0, # of connection points: 2
#     Edge 220, Type (0, 0), BuildingBlock: UVAHIK_clean_linker_0, # of connection points: 2
#     Edge 221, Type (0, 0), BuildingBlock: UVAHIK_clean_linker_0, # of connection points: 2
#     Edge 222, Type (0, 0), BuildingBlock: UVAHIK_clean_linker_0, # of connection points: 2
#     Edge 223, Type (0, 0), BuildingBlock: UVAHIK_clean_linker_0, # of connection points: 2
#     Edge 224, Type (0, 0), BuildingBlock: UVAHIK_clean_linker_0, # of connection points: 2
#     Edge 225, Type (0, 0), BuildingBlock: UVAHIK_clean_linker_0, # of connection points: 2
#     Edge 226, Type (0, 0), BuildingBlock: UVAHIK_clean_linker_0, # of connection points: 2
#     Edge 227, Type (0, 0), BuildingBlock: UVAHIK_clean_linker_0, # of connection points: 2
#     Edge 228, Type (0, 0), BuildingBlock: UVAHIK_clean_linker_0, # of connection points: 2
#     Edge 229, Type (0, 0), BuildingBlock: UVAHIK_clean_linker_0, # of connection points: 2
#     Edge 230, Type (0, 0), BuildingBlock: UVAHIK_clean_linker_0, # of connection points: 2
#     Edge 231, Type (0, 0), BuildingBlock: UVAHIK_clean_linker_0, # of connection points: 2
#     Edge 232, Type (0, 0), BuildingBlock: UVAHIK_clean_linker_0, # of connection points: 2
#     Edge 233, Type (0, 0), BuildingBlock: UVAHIK_clean_linker_0, # of connection points: 2
#     Edge 234, Type (0, 0), BuildingBlock: UVAHIK_clean_linker_0, # of connection points: 2
#     Edge 235, Type (0, 0), BuildingBlock: UVAHIK_clean_linker_0, # of connection points: 2
#     Edge 236, Type (0, 0), BuildingBlock: UVAHIK_clean_linker_0, # of connection points: 2
#     Edge 237, Type (0, 0), BuildingBlock: UVAHIK_clean_linker_0, # of connection points: 2
#     Edge 238, Type (0, 0), BuildingBlock: UVAHIK_clean_linker_0, # of connection points: 2
#     Edge 239, Type (0, 0), BuildingBlock: UVAHIK_clean_linker_0, # of connection points: 2
#     Edge 240, Type (0, 0), BuildingBlock: UVAHIK_clean_linker_0, # of connection points: 2
#     Edge 241, Type (0, 0), BuildingBlock: UVAHIK_clean_linker_0, # of connection points: 2
#     Edge 242, Type (0, 0), BuildingBlock: UVAHIK_clean_linker_0, # of connection points: 2
#     Edge 243, Type (0, 0), BuildingBlock: UVAHIK_clean_linker_0, # of connection points: 2
#     Edge 244, Type (0, 0), BuildingBlock: UVAHIK_clean_linker_0, # of connection points: 2
#     Edge 245, Type (0, 0), BuildingBlock: UVAHIK_clean_linker_0, # of connection points: 2
#     Edge 246, Type (0, 0), BuildingBlock: UVAHIK_clean_linker_0, # of connection points: 2
#     Edge 247, Type (0, 0), BuildingBlock: UVAHIK_clean_linker_0, # of connection points: 2
#     Edge 248, Type (0, 0), BuildingBlock: UVAHIK_clean_linker_0, # of connection points: 2
#     Edge 249, Type (0, 0), BuildingBlock: UVAHIK_clean_linker_0, # of connection points: 2
#     Edge 250, Type (0, 0), BuildingBlock: UVAHIK_clean_linker_0, # of connection points: 2
#     Edge 251, Type (0, 0), BuildingBlock: UVAHIK_clean_linker_0, # of connection points: 2
#     Edge 252, Type (0, 0), BuildingBlock: UVAHIK_clean_linker_0, # of connection points: 2
#     Edge 253, Type (0, 0), BuildingBlock: UVAHIK_clean_linker_0, # of connection points: 2
#     Edge 254, Type (0, 0), BuildingBlock: UVAHIK_clean_linker_0, # of connection points: 2
#     Edge 255, Type (0, 0), BuildingBlock: UVAHIK_clean_linker_0, # of connection points: 2
#     Edge 256, Type (0, 0), BuildingBlock: UVAHIK_clean_linker_0, # of connection points: 2
#     Edge 257, Type (0, 0), BuildingBlock: UVAHIK_clean_linker_0, # of connection points: 2
#     Edge 258, Type (0, 0), BuildingBlock: UVAHIK_clean_linker_0, # of connection points: 2
#     Edge 259, Type (0, 0), BuildingBlock: UVAHIK_clean_linker_0, # of connection points: 2
#     Edge 260, Type (0, 0), BuildingBlock: UVAHIK_clean_linker_0, # of connection points: 2
#     Edge 261, Type (0, 0), BuildingBlock: UVAHIK_clean_linker_0, # of connection points: 2
#     Edge 262, Type (0, 0), BuildingBlock: UVAHIK_clean_linker_0, # of connection points: 2
#     Edge 263, Type (0, 0), BuildingBlock: UVAHIK_clean_linker_0, # of connection points: 2
#     Edge 264, Type (0, 0), BuildingBlock: UVAHIK_clean_linker_0, # of connection points: 2
#     Edge 265, Type (0, 0), BuildingBlock: UVAHIK_clean_linker_0, # of connection points: 2
#     Edge 266, Type (0, 0), BuildingBlock: UVAHIK_clean_linker_0, # of connection points: 2
#     Edge 267, Type (0, 0), BuildingBlock: UVAHIK_clean_linker_0, # of connection points: 2
#     Edge 268, Type (0, 0), BuildingBlock: UVAHIK_clean_linker_0, # of connection points: 2
#     Edge 269, Type (0, 0), BuildingBlock: UVAHIK_clean_linker_0, # of connection points: 2
#     Edge 270, Type (0, 0), BuildingBlock: UVAHIK_clean_linker_0, # of connection points: 2
#     Edge 271, Type (0, 0), BuildingBlock: UVAHIK_clean_linker_0, # of connection points: 2
#     Edge 272, Type (0, 0), BuildingBlock: UVAHIK_clean_linker_0, # of connection points: 2
#     Edge 273, Type (0, 0), BuildingBlock: UVAHIK_clean_linker_0, # of connection points: 2
#     Edge 274, Type (0, 0), BuildingBlock: UVAHIK_clean_linker_0, # of connection points: 2
#     Edge 275, Type (0, 0), BuildingBlock: UVAHIK_clean_linker_0, # of connection points: 2
#     Edge 276, Type (0, 0), BuildingBlock: UVAHIK_clean_linker_0, # of connection points: 2
#     Edge 277, Type (0, 0), BuildingBlock: UVAHIK_clean_linker_0, # of connection points: 2
#     Edge 278, Type (0, 0), BuildingBlock: UVAHIK_clean_linker_0, # of connection points: 2
#     Edge 279, Type (0, 0), BuildingBlock: UVAHIK_clean_linker_0, # of connection points: 2
#     Edge 280, Type (0, 0), BuildingBlock: UVAHIK_clean_linker_0, # of connection points: 2
#     Edge 281, Type (0, 0), BuildingBlock: UVAHIK_clean_linker_0, # of connection points: 2
#     Edge 282, Type (0, 0), BuildingBlock: UVAHIK_clean_linker_0, # of connection points: 2
#     Edge 283, Type (0, 0), BuildingBlock: UVAHIK_clean_linker_0, # of connection points: 2
#     Edge 284, Type (0, 0), BuildingBlock: UVAHIK_clean_linker_0, # of connection points: 2
#     Edge 285, Type (0, 0), BuildingBlock: UVAHIK_clean_linker_0, # of connection points: 2
#     Edge 286, Type (0, 0), BuildingBlock: UVAHIK_clean_linker_0, # of connection points: 2
#     Edge 287, Type (0, 0), BuildingBlock: UVAHIK_clean_linker_0, # of connection points: 2
# Relax obj value: 0.113
# Max RMSD: 0.164
# Mean RMSD: 0.164
data_MOF--net-ulh--node1-GALJAG_clean_sbu_0--edge1-UVAHIK_clean_linker_0
_symmetry_space_group_name_H-M    P1
_symmetry_Int_Tables_number       1
_symmetry_cell_setting            triclinic
loop_
_symmetry_equiv_pos_as_xyz
'x, y, z'
_cell_length_a     103.59875
_cell_length_b     103.58481
_cell_length_c     103.58698
_cell_angle_alpha  90.003123
_cell_angle_beta   90.008556
_cell_angle_gamma 90.007156
loop_
_atom_site_label
_atom_site_type_symbol
_atom_site_fract_x
_atom_site_fract_y
_atom_site_fract_z
_atom_type_partial_charge
In0 In 0.05375 0.30607 0.08126 0.0
O1 O 0.0574 0.28511 0.08778 0.0
O2 O 0.03863 0.29322 0.09007 0.0
C3 C 0.07589 0.314 0.07012 0.0
C4 C 0.03884 0.30589 0.06005 0.0
C5 C 0.05289 0.32159 0.1022 0.0
O6 O 0.07553 0.30405 0.07721 0.0
O7 O 0.06519 0.31958 0.0686 0.0
O8 O 0.04428 0.32186 0.09358 0.0
O9 O 0.0618 0.31355 0.10023 0.0
C10 C 0.04585 0.28352 0.09145 0.0
O11 O 0.03857 0.31505 0.06814 0.0
O12 O 0.04663 0.29687 0.06269 0.0
In13 In 0.94514 0.30625 0.32729 0.0
O14 O 0.96698 0.30783 0.33169 0.0
O15 O 0.95499 0.29681 0.34419 0.0
C16 C 0.93963 0.32878 0.31527 0.0
C17 C 0.94601 0.28845 0.30831 0.0
C18 C 0.92653 0.30555 0.34547 0.0
O19 O 0.94736 0.32821 0.32468 0.0
O20 O 0.93518 0.31804 0.31176 0.0
O21 O 0.9284 0.29631 0.33771 0.0
O22 O 0.93385 0.31515 0.34384 0.0
C23 C 0.96614 0.30095 0.34174 0.0
O24 O 0.93596 0.29058 0.31488 0.0
O25 O 0.9557 0.29513 0.31147 0.0
In26 In 0.94809 0.19505 0.57868 0.0
O27 O 0.94376 0.21586 0.58518 0.0
O28 O 0.96291 0.20859 0.58706 0.0
C29 C 0.92566 0.18691 0.56818 0.0
C30 C 0.96294 0.19517 0.55743 0.0
C31 C 0.95022 0.17926 0.59936 0.0
O32 O 0.92607 0.19649 0.57573 0.0
O33 O 0.93643 0.18182 0.56583 0.0
O34 O 0.95805 0.1789 0.59005 0.0
O35 O 0.94143 0.18758 0.59826 0.0
C36 C 0.9553 0.21795 0.58861 0.0
O37 O 0.9633 0.18614 0.56564 0.0
O38 O 0.95507 0.20416 0.55995 0.0
In39 In 0.0538 0.19495 0.82799 0.0
O40 O 0.03417 0.18934 0.83667 0.0
O41 O 0.03829 0.20925 0.83362 0.0
C42 C 0.0583 0.17048 0.81986 0.0
C43 C 0.05439 0.21042 0.80712 0.0
C44 C 0.07181 0.19917 0.84659 0.0
O45 O 0.05368 0.17293 0.83085 0.0
O46 O 0.06007 0.18026 0.8129 0.0
O47 O 0.07474 0.19678 0.83503 0.0
O48 O 0.05988 0.19984 0.84867 0.0
C49 C 0.03038 0.20091 0.83762 0.0
O50 O 0.06288 0.211 0.81588 0.0
O51 O 0.04566 0.20211 0.80895 0.0
In52 In 0.05188 0.69381 0.9217 0.0
O53 O 0.03666 0.68444 0.93452 0.0
O54 O 0.04425 0.70274 0.94021 0.0
C55 C 0.05133 0.67812 0.90083 0.0
C56 C 0.04451 0.71656 0.91154 0.0
C57 C 0.07415 0.68645 0.93295 0.0
O58 O 0.04248 0.67806 0.9092 0.0
O59 O 0.06028 0.68605 0.903 0.0
O60 O 0.07361 0.69614 0.92555 0.0
O61 O 0.06354 0.68081 0.93478 0.0
C62 C 0.0366 0.69355 0.94267 0.0
O63 O 0.05594 0.71473 0.91544 0.0
O64 O 0.03709 0.70699 0.91271 0.0
In65 In 0.55547 0.30157 0.17471 0.0
O66 O 0.53413 0.30409 0.16897 0.0
O67 O 0.54476 0.28831 0.16121 0.0
C68 C 0.5623 0.32457 0.18487 0.0
C69 C 0.55429 0.28642 0.19581 0.0
C70 C 0.57318 0.30041 0.15565 0.0
O71 O 0.55358 0.32365 0.17638 0.0
O72 O 0.5671 0.31398 0.18839 0.0
O73 O 0.57275 0.29213 0.1646 0.0
O74 O 0.5648 0.3092 0.15643 0.0
C75 C 0.5342 0.29433 0.16162 0.0
O76 O 0.56377 0.28626 0.18813 0.0
O77 O 0.54528 0.29402 0.19267 0.0
In78 In 0.94751 0.80507 0.42105 0.0
O79 O 0.96264 0.81355 0.43448 0.0
O80 O 0.95372 0.79582 0.44001 0.0
C81 C 0.95019 0.82157 0.40098 0.0
C82 C 0.955 0.7823 0.41102 0.0
C83 C 0.9246 0.81279 0.43082 0.0
O84 O 0.95744 0.82195 0.41076 0.0
O85 O 0.94175 0.81283 0.40129 0.0
O86 O 0.92538 0.80368 0.42274 0.0
O87 O 0.93526 0.81762 0.43406 0.0
C88 C 0.96179 0.80459 0.44272 0.0
O89 O 0.94345 0.78427 0.41441 0.0
O90 O 0.96252 0.79173 0.41264 0.0
In91 In 0.44503 0.19646 0.66999 0.0
O92 O 0.43698 0.21293 0.68216 0.0
O93 O 0.45212 0.20143 0.69009 0.0
C94 C 0.43053 0.19683 0.64834 0.0
C95 C 0.46788 0.20472 0.66083 0.0
C96 C 0.4365 0.17411 0.68005 0.0
O97 O 0.42878 0.20479 0.65743 0.0
O98 O 0.43959 0.18893 0.65019 0.0
O99 O 0.44742 0.17492 0.67464 0.0
O100 O 0.43017 0.18449 0.68047 0.0
C101 C 0.44444 0.21079 0.6916 0.0
O102 O 0.46609 0.193 0.66378 0.0
O103 O 0.45827 0.21198 0.66251 0.0
In104 In 0.08049 0.05222 0.3085 0.0
O105 O 0.089 0.05697 0.28848 0.0
O106 O 0.08481 0.03741 0.29328 0.0
C107 C 0.07119 0.0744 0.3184 0.0
C108 C 0.0582 0.03901 0.30926 0.0
C109 C 0.10238 0.04821 0.32206 0.0
O110 O 0.07463 0.07362 0.30669 0.0
O111 O 0.07259 0.06417 0.32482 0.0
O112 O 0.09286 0.04061 0.32267 0.0
O113 O 0.10083 0.05772 0.31463 0.0
C114 C 0.08906 0.04525 0.28501 0.0
O115 O 0.06705 0.03734 0.31751 0.0
O116 O 0.06063 0.04733 0.30067 0.0
In117 In 0.19728 0.32952 0.55663 0.0
O118 O 0.21268 0.31735 0.5665 0.0
O119 O 0.20528 0.31086 0.54838 0.0
C120 C 0.19735 0.35077 0.57178 0.0
C121 C 0.20534 0.33909 0.53387 0.0
C122 C 0.17505 0.31811 0.56394 0.0
O123 O 0.2056 0.34189 0.57301 0.0
O124 O 0.18921 0.34892 0.56294 0.0
O125 O 0.17553 0.32552 0.55426 0.0
O126 O 0.18567 0.31639 0.56957 0.0
C127 C 0.2129 0.30887 0.5577 0.0
O128 O 0.1939 0.33508 0.53539 0.0
O129 O 0.21243 0.33829 0.54373 0.0
In130 In 0.92219 0.44571 0.80694 0.0
O131 O 0.91553 0.44191 0.78608 0.0
O132 O 0.91373 0.46087 0.79383 0.0
C133 C 0.9328 0.42304 0.81423 0.0
C134 C 0.94355 0.46042 0.80697 0.0
C135 C 0.90172 0.44762 0.82302 0.0
O136 O 0.92505 0.42373 0.80483 0.0
O137 O 0.93521 0.43365 0.81962 0.0
O138 O 0.91106 0.45542 0.8234 0.0
O139 O 0.90271 0.43895 0.81455 0.0
C140 C 0.9121 0.45349 0.78428 0.0
O141 O 0.93543 0.46063 0.81609 0.0
O142 O 0.94087 0.45279 0.79782 0.0
In143 In 0.8026 0.17065 0.05538 0.0
O144 O 0.78694 0.18349 0.06393 0.0
O145 O 0.79614 0.18963 0.04652 0.0
C146 C 0.80074 0.15041 0.07178 0.0
C147 C 0.79386 0.16097 0.03294 0.0
C148 C 0.82599 0.1802 0.06202 0.0
O149 O 0.79581 0.16126 0.07429 0.0
O150 O 0.80638 0.14978 0.06104 0.0
O151 O 0.82482 0.17144 0.05362 0.0
O152 O 0.8155 0.18423 0.06659 0.0
C153 C 0.78785 0.19197 0.05517 0.0
O154 O 0.80553 0.16436 0.0343 0.0
O155 O 0.78686 0.16249 0.0428 0.0
In156 In 0.07906 0.94679 0.69558 0.0
O157 O 0.06735 0.96295 0.68627 0.0
O158 O 0.06239 0.95718 0.70538 0.0
C159 C 0.09874 0.94529 0.67862 0.0
C160 C 0.09232 0.9528 0.71711 0.0
C161 C 0.06647 0.92498 0.68892 0.0
O162 O 0.09125 0.95493 0.67897 0.0
O163 O 0.09617 0.93653 0.68667 0.0
O164 O 0.07473 0.92514 0.6979 0.0
O165 O 0.06431 0.93579 0.68381 0.0
C166 C 0.05997 0.96443 0.69588 0.0
O167 O 0.0836 0.94424 0.71721 0.0
O168 O 0.09405 0.95825 0.70637 0.0
In169 In 0.30294 0.32855 0.94353 0.0
O170 O 0.30531 0.33436 0.96488 0.0
O171 O 0.29053 0.34321 0.95368 0.0
C172 C 0.32556 0.317 0.93759 0.0
C173 C 0.28636 0.30858 0.94489 0.0
C174 C 0.30259 0.34728 0.92545 0.0
O175 O 0.32488 0.32588 0.94593 0.0
O176 O 0.3149 0.31381 0.93271 0.0
O177 O 0.29381 0.33884 0.92622 0.0
O178 O 0.31152 0.34612 0.93364 0.0
C179 C 0.29614 0.34242 0.96444 0.0
O180 O 0.28751 0.31547 0.93489 0.0
O181 O 0.29345 0.31186 0.95425 0.0
In182 In 0.92212 0.55184 0.19203 0.0
O183 O 0.93429 0.53546 0.18384 0.0
O184 O 0.94167 0.54594 0.19999 0.0
C185 C 0.90008 0.54974 0.17823 0.0
C186 C 0.91312 0.54614 0.21571 0.0
C187 C 0.93283 0.57315 0.1816 0.0
O188 O 0.90922 0.54174 0.17713 0.0
O189 O 0.90205 0.55861 0.1863 0.0
O190 O 0.92825 0.57324 0.19292 0.0
O191 O 0.93195 0.56249 0.17583 0.0
C192 C 0.94339 0.53701 0.19185 0.0
O193 O 0.91527 0.55767 0.21229 0.0
O194 O 0.91557 0.53771 0.20727 0.0
In195 In 0.69545 0.17206 0.44476 0.0
O196 O 0.69261 0.16511 0.46569 0.0
O197 O 0.71104 0.16292 0.45688 0.0
C198 C 0.67214 0.18199 0.43862 0.0
C199 C 0.70964 0.19377 0.44516 0.0
C200 C 0.69751 0.1524 0.42768 0.0
O201 O 0.67338 0.17334 0.44712 0.0
O202 O 0.68255 0.18569 0.43357 0.0
O203 O 0.70504 0.16198 0.42755 0.0
O204 O 0.68903 0.15278 0.43638 0.0
C205 C 0.70417 0.16134 0.46679 0.0
O206 O 0.7097 0.18607 0.43569 0.0
O207 O 0.7024 0.19051 0.45444 0.0
In208 In 0.30325 0.07976 0.05147 0.0
O209 O 0.2832 0.08692 0.05778 0.0
O210 O 0.28759 0.08621 0.03773 0.0
C211 C 0.31414 0.07015 0.07304 0.0
C212 C 0.30226 0.05785 0.03761 0.0
C213 C 0.31832 0.10082 0.04811 0.0
O214 O 0.30336 0.07588 0.07333 0.0
O215 O 0.31915 0.06923 0.06201 0.0
O216 O 0.31903 0.09108 0.04082 0.0
O217 O 0.30991 0.09999 0.05684 0.0
C218 C 0.27944 0.08889 0.04634 0.0
O219 O 0.30895 0.06748 0.03419 0.0
O220 O 0.296 0.05934 0.04799 0.0
In221 In 0.80348 0.92095 0.4449 0.0
O222 O 0.81252 0.93378 0.4603 0.0
O223 O 0.7932 0.93784 0.45463 0.0
C224 C 0.82147 0.90214 0.44526 0.0
C225 C 0.7824 0.9072 0.45144 0.0
C226 C 0.80926 0.93219 0.42208 0.0
O227 O 0.81339 0.9034 0.43624 0.0
O228 O 0.82058 0.91049 0.45412 0.0
O229 O 0.80051 0.92375 0.42307 0.0
O230 O 0.81465 0.93514 0.43256 0.0
C231 C 0.80272 0.94089 0.46162 0.0
O232 O 0.78196 0.91574 0.44273 0.0
O233 O 0.79324 0.90588 0.45679 0.0
In234 In 0.3279 0.05482 0.69563 0.0
O235 O 0.31565 0.06436 0.71123 0.0
O236 O 0.31088 0.04515 0.70568 0.0
C237 C 0.34774 0.07167 0.69598 0.0
C238 C 0.34025 0.03284 0.70194 0.0
C239 C 0.31661 0.06138 0.67301 0.0
O240 O 0.3389 0.0719 0.70438 0.0
O241 O 0.34646 0.06308 0.68744 0.0
O242 O 0.32509 0.05266 0.67369 0.0
O243 O 0.31362 0.06635 0.68368 0.0
C244 C 0.30824 0.05478 0.71267 0.0
O245 O 0.33178 0.03311 0.69314 0.0
O246 O 0.34219 0.04349 0.70752 0.0
In247 In 0.19543 0.57948 0.9455 0.0
O248 O 0.18624 0.56739 0.96139 0.0
O249 O 0.20575 0.56332 0.95636 0.0
C250 C 0.17752 0.59832 0.94695 0.0
C251 C 0.21756 0.59243 0.95009 0.0
C252 C 0.18857 0.56751 0.92328 0.0
O253 O 0.17904 0.59009 0.95581 0.0
O254 O 0.18491 0.59694 0.93738 0.0
O255 O 0.19585 0.57727 0.92338 0.0
O256 O 0.18523 0.56362 0.93428 0.0
C257 C 0.19612 0.5605 0.9633 0.0
O258 O 0.21715 0.58305 0.94229 0.0
O259 O 0.20697 0.59505 0.95547 0.0
In260 In 0.17228 0.94423 0.19324 0.0
O261 O 0.16749 0.96601 0.19236 0.0
O262 O 0.15637 0.95373 0.20451 0.0
C263 C 0.18362 0.93903 0.17032 0.0
C264 C 0.19192 0.94472 0.2103 0.0
C265 C 0.15365 0.92608 0.19352 0.0
O266 O 0.17496 0.94755 0.17142 0.0
O267 O 0.18674 0.93364 0.18075 0.0
O268 O 0.15496 0.93408 0.18442 0.0
O269 O 0.16191 0.92707 0.20244 0.0
C270 C 0.15826 0.96498 0.20029 0.0
O271 O 0.18521 0.93474 0.2083 0.0
O272 O 0.18863 0.95449 0.20381 0.0
In273 In 0.6975 0.91815 0.0561 0.0
O274 O 0.71971 0.91778 0.05632 0.0
O275 O 0.70974 0.90035 0.05225 0.0
C276 C 0.69144 0.93097 0.07812 0.0
C277 C 0.69686 0.93589 0.03699 0.0
C278 C 0.67993 0.89903 0.05407 0.0
O279 O 0.69905 0.92147 0.07807 0.0
O280 O 0.68733 0.93414 0.06715 0.0
O281 O 0.68348 0.90563 0.04443 0.0
O282 O 0.68512 0.90221 0.06462 0.0
C283 C 0.72044 0.90594 0.05355 0.0
O284 O 0.68693 0.92985 0.04066 0.0
O285 O 0.70715 0.93268 0.04266 0.0
In286 In 0.33028 0.44565 0.8027 0.0
O287 O 0.31766 0.43658 0.78715 0.0
O288 O 0.31364 0.45598 0.79266 0.0
C289 C 0.34909 0.42769 0.80169 0.0
C290 C 0.3433 0.46747 0.7971 0.0
C291 C 0.31885 0.43905 0.82524 0.0
O292 O 0.3406 0.42871 0.79298 0.0
O293 O 0.34802 0.43566 0.81082 0.0
O294 O 0.32818 0.44687 0.8248 0.0
O295 O 0.31509 0.43507 0.8144 0.0
C296 C 0.31061 0.44643 0.7857 0.0
O297 O 0.33452 0.46726 0.80558 0.0
O298 O 0.34528 0.45683 0.79153 0.0
In299 In 0.67182 0.05749 0.30163 0.0
O300 O 0.68436 0.0668 0.28616 0.0
O301 O 0.68855 0.0474 0.2915 0.0
C302 C 0.65252 0.07493 0.30078 0.0
C303 C 0.6588 0.03575 0.29583 0.0
C304 C 0.68311 0.06402 0.32425 0.0
O305 O 0.66088 0.07407 0.29194 0.0
O306 O 0.65405 0.06716 0.31002 0.0
O307 O 0.67429 0.05562 0.32363 0.0
O308 O 0.68643 0.06864 0.31352 0.0
C309 C 0.69146 0.05702 0.28459 0.0
O310 O 0.66761 0.03581 0.30429 0.0
O311 O 0.65687 0.04644 0.29036 0.0
In312 In 0.05445 0.80617 0.57912 0.0
O313 O 0.0569 0.78455 0.58377 0.0
O314 O 0.04266 0.79536 0.59388 0.0
C315 C 0.07761 0.81227 0.56869 0.0
C316 C 0.03809 0.80529 0.5589 0.0
C317 C 0.05282 0.82417 0.59788 0.0
O318 O 0.07655 0.80443 0.57796 0.0
O319 O 0.06705 0.81652 0.56445 0.0
O320 O 0.04438 0.82313 0.58914 0.0
O321 O 0.06204 0.81629 0.59702 0.0
C322 C 0.04816 0.78462 0.59228 0.0
O323 O 0.03952 0.81526 0.56578 0.0
O324 O 0.04481 0.7957 0.56232 0.0
In325 In 0.94324 0.80153 0.82919 0.0
O326 O 0.96453 0.80507 0.83471 0.0
O327 O 0.95435 0.78955 0.84349 0.0
C328 C 0.93502 0.82373 0.81836 0.0
C329 C 0.9456 0.78541 0.80894 0.0
C330 C 0.92538 0.80046 0.84805 0.0
O331 O 0.94416 0.82353 0.82645 0.0
O332 O 0.93044 0.81282 0.81556 0.0
O333 O 0.92571 0.79231 0.83897 0.0
O334 O 0.93395 0.8091 0.84749 0.0
C335 C 0.96474 0.7958 0.84265 0.0
O336 O 0.93709 0.7839 0.81755 0.0
O337 O 0.953 0.79494 0.81065 0.0
In338 In 0.94495 0.69673 0.07975 0.0
O339 O 0.93968 0.71701 0.08723 0.0
O340 O 0.95949 0.71182 0.08574 0.0
C341 C 0.92018 0.6897 0.07472 0.0
C342 C 0.95843 0.69526 0.05758 0.0
C343 C 0.95253 0.6797 0.098 0.0
O344 O 0.92486 0.69009 0.0859 0.0
O345 O 0.92772 0.69364 0.06605 0.0
O346 O 0.95377 0.6775 0.08607 0.0
O347 O 0.94789 0.69062 0.10067 0.0
C348 C 0.95133 0.72032 0.08874 0.0
O349 O 0.95808 0.68608 0.06563 0.0
O350 O 0.95189 0.70507 0.06068 0.0
In351 In 0.05498 0.69545 0.32761 0.0
O352 O 0.03363 0.69279 0.33325 0.0
O353 O 0.04461 0.7076 0.34233 0.0
C354 C 0.06143 0.67281 0.31638 0.0
C355 C 0.05334 0.71193 0.30758 0.0
C356 C 0.07308 0.69613 0.34631 0.0
O357 O 0.05307 0.67345 0.32523 0.0
O358 O 0.06605 0.68353 0.31299 0.0
O359 O 0.07233 0.70475 0.3377 0.0
O360 O 0.06484 0.68722 0.34535 0.0
C361 C 0.03393 0.70187 0.34142 0.0
O362 O 0.06324 0.71118 0.31467 0.0
O363 O 0.0442 0.70449 0.31071 0.0
In364 In 0.05527 0.19648 0.42087 0.0
O365 O 0.04047 0.18715 0.43414 0.0
O366 O 0.04948 0.20462 0.4404 0.0
C367 C 0.04953 0.17955 0.40175 0.0
C368 C 0.04762 0.21994 0.41278 0.0
C369 C 0.07995 0.19024 0.42707 0.0
O370 O 0.04866 0.17665 0.41354 0.0
O371 O 0.05297 0.191 0.39966 0.0
O372 O 0.07704 0.19568 0.41659 0.0
O373 O 0.07058 0.18862 0.43459 0.0
C374 C 0.04146 0.19572 0.44279 0.0
O375 O 0.05946 0.21711 0.41369 0.0
O376 O 0.03993 0.21107 0.41593 0.0
In377 In 0.55322 0.80425 0.67125 0.0
O378 O 0.56291 0.79064 0.68548 0.0
O379 O 0.54337 0.79609 0.68911 0.0
C380 C 0.57161 0.80299 0.65285 0.0
C381 C 0.53277 0.79434 0.65861 0.0
C382 C 0.5574 0.82867 0.6796 0.0
O383 O 0.57239 0.79654 0.66317 0.0
O384 O 0.56172 0.81001 0.65197 0.0
O385 O 0.55085 0.82627 0.66962 0.0
O386 O 0.5612 0.81884 0.68562 0.0
C387 C 0.55315 0.78976 0.69277 0.0
O388 O 0.53183 0.80463 0.66514 0.0
O389 O 0.54376 0.78912 0.65886 0.0
In390 In 0.94895 0.30366 0.92182 0.0
O391 O 0.96413 0.31251 0.93495 0.0
O392 O 0.95541 0.29481 0.94088 0.0
C393 C 0.95143 0.31924 0.90101 0.0
C394 C 0.95571 0.28051 0.91208 0.0
C395 C 0.92649 0.31218 0.93194 0.0
O396 O 0.95934 0.31941 0.91027 0.0
O397 O 0.94242 0.31117 0.90222 0.0
O398 O 0.92694 0.30229 0.92482 0.0
O399 O 0.93724 0.31743 0.93405 0.0
C400 C 0.9634 0.3037 0.94337 0.0
O401 O 0.94421 0.28297 0.91534 0.0
O402 O 0.96359 0.28964 0.91377 0.0
In403 In 0.44181 0.69854 0.17268 0.0
O404 O 0.43343 0.71343 0.18648 0.0
O405 O 0.45123 0.7044 0.19163 0.0
C406 C 0.42569 0.70046 0.15226 0.0
C407 C 0.46413 0.70672 0.16222 0.0
C408 C 0.43403 0.67579 0.18267 0.0
O409 O 0.42519 0.7082 0.16167 0.0
O410 O 0.43428 0.69191 0.15318 0.0
O411 O 0.44377 0.67654 0.17533 0.0
O412 O 0.42859 0.6864 0.18501 0.0
C413 C 0.44249 0.71238 0.19462 0.0
O414 O 0.46256 0.69506 0.16553 0.0
O415 O 0.45456 0.71397 0.1642 0.0
In416 In 0.07942 0.55388 0.80535 0.0
O417 O 0.06671 0.5388 0.81526 0.0
O418 O 0.06082 0.54597 0.79691 0.0
C419 C 0.09706 0.54815 0.82384 0.0
C420 C 0.0898 0.54903 0.78195 0.0
C421 C 0.07164 0.5785 0.80966 0.0
O422 O 0.08601 0.55253 0.82639 0.0
O423 O 0.09908 0.54623 0.812 0.0
O424 O 0.08332 0.57553 0.80799 0.0
O425 O 0.0639 0.56921 0.80844 0.0
C426 C 0.05847 0.53852 0.80626 0.0
O427 O 0.08982 0.56024 0.78677 0.0
O428 O 0.08453 0.54052 0.78886 0.0
In429 In 0.19762 0.82753 0.05585 0.0
O430 O 0.19273 0.83383 0.03516 0.0
O431 O 0.21229 0.83476 0.04153 0.0
C432 C 0.17551 0.81769 0.06539 0.0
C433 C 0.21177 0.8058 0.05542 0.0
C434 C 0.20008 0.8492 0.07019 0.0
O435 O 0.17573 0.82385 0.05485 0.0
O436 O 0.1863 0.81646 0.07083 0.0
O437 O 0.20755 0.83965 0.07157 0.0
O438 O 0.19156 0.84776 0.06165 0.0
C439 C 0.20433 0.83658 0.03249 0.0
O440 O 0.21336 0.81446 0.0639 0.0
O441 O 0.20309 0.80816 0.04717 0.0
In442 In 0.9202 0.94916 0.30707 0.0
O443 O 0.91483 0.94462 0.28605 0.0
O444 O 0.91224 0.9638 0.29302 0.0
C445 C 0.93099 0.92703 0.31564 0.0
C446 C 0.94109 0.96452 0.30778 0.0
C447 C 0.8985 0.95059 0.32151 0.0
O448 O 0.92433 0.92735 0.30542 0.0
O449 O 0.93225 0.93774 0.32123 0.0
O450 O 0.90772 0.95844 0.32284 0.0
O451 O 0.90024 0.94216 0.31293 0.0
C452 C 0.91128 0.95607 0.28367 0.0
O453 O 0.93247 0.96481 0.31643 0.0
O454 O 0.93913 0.95651 0.29878 0.0
In455 In 0.80363 0.67004 0.55612 0.0
O456 O 0.80705 0.66333 0.53521 0.0
O457 O 0.78821 0.66167 0.54328 0.0
C458 C 0.82645 0.6806 0.56298 0.0
C459 C 0.78914 0.69155 0.5563 0.0
C460 C 0.80165 0.64962 0.57228 0.0
O461 O 0.8256 0.67274 0.55369 0.0
O462 O 0.81593 0.68312 0.56849 0.0
O463 O 0.79378 0.65891 0.5725 0.0
O464 O 0.81045 0.65065 0.56396 0.0
C465 C 0.79541 0.66 0.53361 0.0
O466 O 0.78927 0.68366 0.56561 0.0
O467 O 0.79632 0.68858 0.54689 0.0
In468 In 0.07972 0.44481 0.1971 0.0
O469 O 0.08955 0.4392 0.21627 0.0
O470 O 0.08477 0.45888 0.21297 0.0
C471 C 0.07136 0.42022 0.19426 0.0
C472 C 0.05903 0.46038 0.19457 0.0
C473 C 0.0979 0.44875 0.17868 0.0
O474 O 0.08304 0.42295 0.19635 0.0
O475 O 0.06387 0.42979 0.19444 0.0
O476 O 0.0874 0.44302 0.17653 0.0
O477 O 0.09907 0.45299 0.19001 0.0
C478 C 0.08961 0.45065 0.22049 0.0
O479 O 0.06733 0.45918 0.18571 0.0
O480 O 0.06117 0.45373 0.20455 0.0
In481 In 0.30379 0.82813 0.44626 0.0
O482 O 0.30582 0.83347 0.46776 0.0
O483 O 0.29178 0.84319 0.45635 0.0
C484 C 0.32676 0.81696 0.44086 0.0
C485 C 0.28712 0.8082 0.4471 0.0
C486 C 0.30316 0.84649 0.42781 0.0
O487 O 0.32582 0.82639 0.44852 0.0
O488 O 0.31617 0.81297 0.43644 0.0
O489 O 0.2945 0.83795 0.42878 0.0
O490 O 0.31212 0.84562 0.43601 0.0
C491 C 0.29707 0.84197 0.46723 0.0
O492 O 0.28872 0.81502 0.43712 0.0
O493 O 0.2938 0.81156 0.45674 0.0
In494 In 0.92149 0.05381 0.69536 0.0
O495 O 0.93474 0.03859 0.68667 0.0
O496 O 0.94055 0.04762 0.70427 0.0
C497 C 0.90049 0.052 0.67995 0.0
C498 C 0.9118 0.04591 0.71811 0.0
C499 C 0.93183 0.07634 0.68741 0.0
O500 O 0.91002 0.04449 0.67884 0.0
O501 O 0.90158 0.06029 0.68878 0.0
O502 O 0.92477 0.07574 0.69735 0.0
O503 O 0.93365 0.06573 0.68179 0.0
C504 C 0.94314 0.03953 0.6955 0.0
O505 O 0.9148 0.0576 0.71618 0.0
O506 O 0.91368 0.03847 0.70865 0.0
In507 In 0.69643 0.67205 0.94422 0.0
O508 O 0.70985 0.68649 0.93418 0.0
O509 O 0.70175 0.69172 0.95231 0.0
C510 C 0.70226 0.65518 0.92513 0.0
C511 C 0.70421 0.66212 0.967 0.0
C512 C 0.67083 0.67581 0.94054 0.0
O513 O 0.69763 0.66623 0.92295 0.0
O514 O 0.70458 0.65292 0.93685 0.0
O515 O 0.67579 0.66475 0.94157 0.0
O516 O 0.67863 0.68498 0.94227 0.0
C517 C 0.70897 0.69485 0.94302 0.0
O518 O 0.6924 0.66277 0.96402 0.0
O519 O 0.71184 0.66647 0.95858 0.0
In520 In 0.30079 0.57827 0.55545 0.0
O521 O 0.28281 0.5897 0.56184 0.0
O522 O 0.28288 0.58129 0.54319 0.0
C523 C 0.30552 0.57066 0.57998 0.0
C524 C 0.30245 0.55716 0.54038 0.0
C525 C 0.31957 0.59575 0.55023 0.0
O526 O 0.30251 0.58212 0.57718 0.0
O527 O 0.30541 0.56299 0.57056 0.0
O528 O 0.32162 0.58535 0.55618 0.0
O529 O 0.30813 0.59712 0.54633 0.0
C530 C 0.27688 0.58801 0.55134 0.0
O531 O 0.3092 0.56713 0.53834 0.0
O532 O 0.29492 0.55793 0.54995 0.0
In533 In 0.80336 0.41804 0.94636 0.0
O534 O 0.80938 0.42923 0.96439 0.0
O535 O 0.79406 0.4368 0.95299 0.0
C536 C 0.82141 0.39934 0.94746 0.0
C537 C 0.78144 0.40494 0.95151 0.0
C538 C 0.81161 0.42912 0.92429 0.0
O539 O 0.82087 0.40835 0.95569 0.0
O540 O 0.8129 0.39985 0.93875 0.0
O541 O 0.80268 0.4208 0.92435 0.0
O542 O 0.81602 0.43194 0.93526 0.0
C543 C 0.80126 0.43818 0.96273 0.0
O544 O 0.78188 0.41345 0.94277 0.0
O545 O 0.79186 0.40327 0.95753 0.0
In546 In 0.32709 0.55365 0.19604 0.0
O547 O 0.33273 0.53229 0.19351 0.0
O548 O 0.3418 0.54334 0.20828 0.0
C549 C 0.31605 0.55962 0.17318 0.0
C550 C 0.30683 0.55228 0.21227 0.0
C551 C 0.34559 0.57197 0.19688 0.0
O552 O 0.32517 0.55157 0.17402 0.0
O553 O 0.31233 0.56418 0.18381 0.0
O554 O 0.33705 0.57096 0.20553 0.0
O555 O 0.34465 0.56387 0.18784 0.0
C556 C 0.3409 0.53263 0.20257 0.0
O557 O 0.31384 0.56222 0.21134 0.0
O558 O 0.31018 0.54295 0.20518 0.0
In559 In 0.19676 0.07678 0.44175 0.0
O560 O 0.21867 0.08097 0.44216 0.0
O561 O 0.20589 0.09354 0.45216 0.0
C562 C 0.19368 0.06368 0.41939 0.0
C563 C 0.1953 0.05846 0.46015 0.0
C564 C 0.17843 0.0951 0.43938 0.0
O565 O 0.20084 0.07352 0.42015 0.0
O566 O 0.18865 0.06028 0.4299 0.0
O567 O 0.17934 0.08807 0.44932 0.0
O568 O 0.18657 0.09268 0.43066 0.0
C569 C 0.21735 0.09094 0.44909 0.0
O570 O 0.18557 0.06481 0.45645 0.0
O571 O 0.20578 0.06151 0.45473 0.0
In572 In 0.17097 0.44582 0.69803 0.0
O573 O 0.16467 0.46664 0.69402 0.0
O574 O 0.16381 0.4596 0.71335 0.0
C575 C 0.17922 0.43902 0.67418 0.0
C576 C 0.19268 0.44624 0.71226 0.0
C577 C 0.15096 0.42931 0.70158 0.0
O578 O 0.17068 0.44755 0.67582 0.0
O579 O 0.18365 0.4343 0.68444 0.0
O580 O 0.16238 0.42651 0.70471 0.0
O581 O 0.14963 0.44043 0.69688 0.0
C582 C 0.16197 0.46892 0.70571 0.0
O583 O 0.18392 0.4379 0.71395 0.0
O584 O 0.19044 0.45438 0.70346 0.0
In585 In 0.69559 0.42044 0.55434 0.0
O586 O 0.71648 0.41399 0.55829 0.0
O587 O 0.70906 0.41272 0.53914 0.0
C588 C 0.68746 0.43105 0.57671 0.0
C589 C 0.69554 0.4418 0.53965 0.0
C590 C 0.68036 0.39932 0.55248 0.0
O591 O 0.69737 0.42395 0.57627 0.0
O592 O 0.68195 0.43277 0.56602 0.0
O593 O 0.67925 0.40884 0.54495 0.0
O594 O 0.6891 0.4005 0.56086 0.0
C595 C 0.7185 0.41099 0.54663 0.0
O596 O 0.68678 0.43332 0.5389 0.0
O597 O 0.70433 0.43947 0.54779 0.0
In598 In 0.32877 0.94368 0.30214 0.0
O599 O 0.31582 0.93545 0.28642 0.0
O600 O 0.30967 0.95258 0.29611 0.0
C601 C 0.34975 0.92827 0.30035 0.0
C602 C 0.33844 0.96654 0.2946 0.0
C603 C 0.31846 0.93532 0.32453 0.0
O604 O 0.3401 0.92695 0.29302 0.0
O605 O 0.34879 0.93733 0.30841 0.0
O606 O 0.32556 0.94524 0.32409 0.0
O607 O 0.31652 0.92995 0.31381 0.0
C608 C 0.30731 0.94413 0.28762 0.0
O609 O 0.33525 0.9645 0.30621 0.0
O610 O 0.33678 0.95713 0.28705 0.0
In611 In 0.67097 0.55547 0.80419 0.0
O612 O 0.66546 0.53405 0.80685 0.0
O613 O 0.65643 0.54493 0.79194 0.0
C614 C 0.68187 0.56224 0.82692 0.0
C615 C 0.69131 0.55397 0.78808 0.0
C616 C 0.65221 0.57346 0.80293 0.0
O617 O 0.67294 0.55395 0.82628 0.0
O618 O 0.68548 0.56661 0.81618 0.0
O619 O 0.66087 0.57252 0.79438 0.0
O620 O 0.65317 0.56549 0.81208 0.0
C621 C 0.65737 0.53426 0.7977 0.0
O622 O 0.68416 0.56383 0.78873 0.0
O623 O 0.68807 0.54478 0.79542 0.0
In624 In 0.55423 0.30553 0.57534 0.0
O625 O 0.53945 0.31401 0.5614 0.0
O626 O 0.54624 0.29496 0.55777 0.0
C627 C 0.55335 0.32335 0.59431 0.0
C628 C 0.54649 0.28476 0.58889 0.0
C629 C 0.57753 0.31147 0.5653 0.0
O630 O 0.5451 0.32302 0.58532 0.0
O631 O 0.56199 0.3148 0.59361 0.0
O632 O 0.57608 0.30226 0.57317 0.0
O633 O 0.56727 0.31726 0.56232 0.0
C634 C 0.5391 0.30418 0.55419 0.0
O635 O 0.55635 0.28435 0.58169 0.0
O636 O 0.5406 0.29541 0.58892 0.0
In637 In 0.44488 0.30062 0.83003 0.0
O638 O 0.46533 0.30595 0.83696 0.0
O639 O 0.45969 0.28621 0.83697 0.0
C640 C 0.43556 0.3227 0.8199 0.0
C641 C 0.44511 0.28624 0.80842 0.0
C642 C 0.42929 0.29809 0.85084 0.0
O643 O 0.44591 0.3225 0.82636 0.0
O644 O 0.43017 0.31189 0.81853 0.0
O645 O 0.42865 0.29061 0.84125 0.0
O646 O 0.43787 0.30666 0.84999 0.0
C647 C 0.46839 0.29438 0.83929 0.0
O648 O 0.43799 0.28362 0.81799 0.0
O649 O 0.45218 0.2961 0.8098 0.0
In650 In 0.44483 0.19486 0.07893 0.0
O651 O 0.45975 0.18631 0.06532 0.0
O652 O 0.4513 0.20441 0.06024 0.0
C653 C 0.44696 0.17871 0.09932 0.0
C654 C 0.45289 0.21723 0.08944 0.0
C655 C 0.42231 0.18718 0.06831 0.0
O656 O 0.45482 0.17855 0.09001 0.0
O657 O 0.43809 0.18696 0.0983 0.0
O658 O 0.42288 0.19691 0.07567 0.0
O659 O 0.43295 0.18165 0.06634 0.0
C660 C 0.45915 0.19552 0.05732 0.0
O661 O 0.44119 0.21554 0.08633 0.0
O662 O 0.46019 0.20774 0.08728 0.0
In663 In 0.55185 0.19405 0.33132 0.0
O664 O 0.56224 0.20985 0.31995 0.0
O665 O 0.54211 0.20742 0.31681 0.0
C666 C 0.56898 0.19604 0.35082 0.0
C667 C 0.52864 0.19583 0.34306 0.0
C668 C 0.5588 0.17231 0.31852 0.0
O669 O 0.56554 0.20572 0.34423 0.0
O670 O 0.56389 0.1855 0.34747 0.0
O671 O 0.55099 0.17211 0.32785 0.0
O672 O 0.56262 0.1834 0.31543 0.0
C673 C 0.55231 0.21336 0.31381 0.0
O674 O 0.52969 0.19291 0.33128 0.0
O675 O 0.53917 0.19772 0.34882 0.0
In676 In 0.55456 0.69731 0.41881 0.0
O677 O 0.55464 0.71951 0.41931 0.0
O678 O 0.5514 0.71019 0.40135 0.0
C679 C 0.57643 0.69072 0.43162 0.0
C680 C 0.53503 0.69595 0.43602 0.0
C681 C 0.55257 0.68037 0.39915 0.0
O682 O 0.5765 0.69851 0.42227 0.0
O683 O 0.5654 0.68678 0.43475 0.0
O684 O 0.54289 0.68379 0.40575 0.0
O685 O 0.56312 0.68539 0.40257 0.0
C686 C 0.55238 0.72068 0.4074 0.0
O687 O 0.53909 0.6862 0.42993 0.0
O688 O 0.54058 0.70642 0.43317 0.0
In689 In 0.05515 0.30551 0.67237 0.0
O690 O 0.03348 0.30722 0.66746 0.0
O691 O 0.04488 0.29326 0.65763 0.0
C692 C 0.05997 0.32902 0.68277 0.0
C693 C 0.05514 0.28909 0.69252 0.0
C694 C 0.07357 0.30423 0.654 0.0
O695 O 0.05349 0.32764 0.67254 0.0
O696 O 0.06344 0.31861 0.68797 0.0
O697 O 0.07252 0.29577 0.66272 0.0
O698 O 0.06554 0.31333 0.65475 0.0
C699 C 0.03396 0.29842 0.65901 0.0
O700 O 0.06515 0.29144 0.68596 0.0
O701 O 0.04508 0.29495 0.68883 0.0
In702 In 0.44637 0.80562 0.91865 0.0
O703 O 0.4606 0.81566 0.93225 0.0
O704 O 0.45254 0.7977 0.93814 0.0
C705 C 0.45266 0.82417 0.90139 0.0
C706 C 0.45238 0.78225 0.90888 0.0
C707 C 0.42115 0.81022 0.92367 0.0
O708 O 0.44812 0.82666 0.9124 0.0
O709 O 0.45462 0.81235 0.8993 0.0
O710 O 0.42558 0.80934 0.91238 0.0
O711 O 0.42926 0.80792 0.93244 0.0
C712 C 0.46005 0.80694 0.94076 0.0
O713 O 0.44088 0.7863 0.90912 0.0
O714 O 0.4606 0.78994 0.91349 0.0
In715 In 0.94442 0.19419 0.17298 0.0
O716 O 0.96584 0.19215 0.16722 0.0
O717 O 0.95461 0.2072 0.15886 0.0
C718 C 0.93828 0.1714 0.18403 0.0
C719 C 0.94539 0.21026 0.1934 0.0
C720 C 0.9267 0.19438 0.1539 0.0
O721 O 0.94701 0.17228 0.17555 0.0
O722 O 0.93311 0.18196 0.18712 0.0
O723 O 0.92719 0.20313 0.1624 0.0
O724 O 0.935 0.18556 0.15517 0.0
C725 C 0.96539 0.20162 0.1595 0.0
O726 O 0.93568 0.20957 0.18604 0.0
O727 O 0.95468 0.20296 0.19034 0.0
In728 In 0.57641 0.05224 0.80602 0.0
O729 O 0.58332 0.05582 0.78521 0.0
O730 O 0.585 0.03694 0.7932 0.0
C731 C 0.56661 0.07514 0.81358 0.0
C732 C 0.55451 0.03835 0.80534 0.0
C733 C 0.59654 0.04978 0.82246 0.0
O734 O 0.57448 0.07433 0.80429 0.0
O735 O 0.56363 0.06453 0.81869 0.0
O736 O 0.58699 0.04222 0.82267 0.0
O737 O 0.59592 0.05847 0.81397 0.0
C738 C 0.58675 0.04421 0.78359 0.0
O739 O 0.56255 0.03749 0.8145 0.0
O740 O 0.55756 0.04621 0.7965 0.0
In741 In 0.69575 0.32852 0.05608 0.0
O742 O 0.71205 0.31655 0.0648 0.0
O743 O 0.70521 0.31138 0.0461 0.0
C744 C 0.6962 0.34873 0.07245 0.0
C745 C 0.70109 0.3408 0.03381 0.0
C746 C 0.67384 0.31686 0.06411 0.0
O747 O 0.70498 0.34025 0.07241 0.0
O748 O 0.68725 0.34686 0.0644 0.0
O749 O 0.67382 0.325 0.05503 0.0
O750 O 0.68482 0.31441 0.06869 0.0
C751 C 0.71286 0.30895 0.05528 0.0
O752 O 0.69233 0.3323 0.03445 0.0
O753 O 0.70707 0.34281 0.04422 0.0
In754 In 0.42142 0.44588 0.30469 0.0
O755 O 0.41438 0.44183 0.28404 0.0
O756 O 0.41384 0.46113 0.29111 0.0
C757 C 0.43102 0.42286 0.31223 0.0
C758 C 0.44326 0.45992 0.30492 0.0
C759 C 0.40073 0.44863 0.32039 0.0
O760 O 0.42439 0.42404 0.30206 0.0
O761 O 0.43291 0.43322 0.3183 0.0
O762 O 0.4102 0.45629 0.32064 0.0
O763 O 0.4017 0.43969 0.3122 0.0
C764 C 0.41166 0.45353 0.28186 0.0
O765 O 0.43503 0.46042 0.31392 0.0
O766 O 0.44049 0.45228 0.2958 0.0
In767 In 0.30476 0.17214 0.55619 0.0
O768 O 0.29038 0.18517 0.56679 0.0
O769 O 0.29779 0.19142 0.54863 0.0
C770 C 0.3001 0.15448 0.57499 0.0
C771 C 0.29776 0.16226 0.53308 0.0
C772 C 0.32974 0.17945 0.55856 0.0
O773 O 0.30689 0.1644 0.57673 0.0
O774 O 0.29518 0.15369 0.56391 0.0
O775 O 0.32658 0.16831 0.55478 0.0
O776 O 0.32038 0.18696 0.56036 0.0
C777 C 0.29048 0.19376 0.55811 0.0
O778 O 0.30887 0.16032 0.53772 0.0
O779 O 0.29052 0.16917 0.53997 0.0
In780 In 0.58094 0.94897 0.19327 0.0
O781 O 0.58835 0.94412 0.21361 0.0
O782 O 0.58792 0.96379 0.2076 0.0
C783 C 0.57137 0.92654 0.18419 0.0
C784 C 0.55886 0.96258 0.19385 0.0
C785 C 0.60201 0.95201 0.17819 0.0
O786 O 0.57718 0.92715 0.19492 0.0
O787 O 0.57034 0.93715 0.17834 0.0
O788 O 0.59251 0.95964 0.1777 0.0
O789 O 0.60087 0.94303 0.1863 0.0
C790 C 0.59054 0.95581 0.2164 0.0
O791 O 0.5673 0.96419 0.18518 0.0
O792 O 0.56158 0.95412 0.20222 0.0
In793 In 0.80364 0.32912 0.4438 0.0
O794 O 0.80622 0.33413 0.46531 0.0
O795 O 0.79178 0.34391 0.45444 0.0
C796 C 0.8263 0.31782 0.43751 0.0
C797 C 0.78679 0.30935 0.44486 0.0
C798 C 0.80314 0.3479 0.42576 0.0
O799 O 0.82566 0.32692 0.4456 0.0
O800 O 0.81558 0.31419 0.43312 0.0
O801 O 0.79451 0.33929 0.42642 0.0
O802 O 0.81196 0.34692 0.43409 0.0
C803 C 0.79738 0.34255 0.46516 0.0
O804 O 0.78787 0.31654 0.43506 0.0
O805 O 0.7941 0.31224 0.45418 0.0
In806 In 0.42031 0.55459 0.69372 0.0
O807 O 0.43256 0.53869 0.68458 0.0
O808 O 0.43693 0.54434 0.70384 0.0
C809 C 0.40046 0.55458 0.67691 0.0
C810 C 0.40741 0.54952 0.71572 0.0
C811 C 0.43218 0.57664 0.68646 0.0
O812 O 0.40793 0.545 0.67811 0.0
O813 O 0.40314 0.56408 0.68404 0.0
O814 O 0.42443 0.57629 0.69588 0.0
O815 O 0.43419 0.56588 0.68116 0.0
C816 C 0.43969 0.5372 0.69436 0.0
O817 O 0.41644 0.55774 0.71537 0.0
O818 O 0.40511 0.54397 0.70514 0.0
In819 In 0.19457 0.17165 0.94697 0.0
O820 O 0.18993 0.16531 0.96775 0.0
O821 O 0.20916 0.1632 0.96083 0.0
C822 C 0.17116 0.18088 0.93964 0.0
C823 C 0.20947 0.19285 0.94742 0.0
C824 C 0.19843 0.15237 0.92972 0.0
O825 O 0.17234 0.17063 0.94609 0.0
O826 O 0.18162 0.18659 0.93739 0.0
O827 O 0.20388 0.1632 0.92874 0.0
O828 O 0.19122 0.15123 0.93943 0.0
C829 C 0.20137 0.16176 0.97007 0.0
O830 O 0.20994 0.18467 0.93835 0.0
O831 O 0.20148 0.19029 0.95631 0.0
In832 In 0.80598 0.07737 0.55425 0.0
O833 O 0.81442 0.06388 0.53907 0.0
O834 O 0.79552 0.05981 0.54606 0.0
C835 C 0.82372 0.0964 0.5534 0.0
C836 C 0.78513 0.09087 0.54661 0.0
C837 C 0.81225 0.06698 0.57732 0.0
O838 O 0.8234 0.08743 0.54513 0.0
O839 O 0.81521 0.09565 0.56207 0.0
O840 O 0.80304 0.0749 0.57613 0.0
O841 O 0.81785 0.06413 0.56692 0.0
C842 C 0.80467 0.05656 0.53868 0.0
O843 O 0.78474 0.08359 0.55641 0.0
O844 O 0.79581 0.09105 0.54078 0.0
In845 In 0.3036 0.92046 0.94674 0.0
O846 O 0.28226 0.915 0.94382 0.0
O847 O 0.29263 0.90692 0.95966 0.0
C848 C 0.3107 0.93109 0.92405 0.0
C849 C 0.30168 0.94054 0.96311 0.0
C850 C 0.32126 0.90137 0.947 0.0
O851 O 0.30186 0.92271 0.92471 0.0
O852 O 0.31553 0.93426 0.93474 0.0
O853 O 0.32277 0.91162 0.95345 0.0
O854 O 0.31098 0.90085 0.94052 0.0
C855 C 0.28216 0.9075 0.95347 0.0
O856 O 0.30998 0.93171 0.96457 0.0
O857 O 0.29428 0.93909 0.95353 0.0
In858 In 0.82967 0.05318 0.19479 0.0
O859 O 0.81602 0.06345 0.20879 0.0
O860 O 0.81016 0.04534 0.20103 0.0
C861 C 0.84672 0.07197 0.20111 0.0
C862 C 0.83995 0.02995 0.20061 0.0
C863 C 0.82446 0.05738 0.16952 0.0
O864 O 0.83612 0.07423 0.19559 0.0
O865 O 0.84847 0.0603 0.20406 0.0
O866 O 0.83578 0.05664 0.1739 0.0
O867 O 0.81576 0.05513 0.17772 0.0
C868 C 0.80749 0.05473 0.20832 0.0
O869 O 0.84028 0.03446 0.18929 0.0
O870 O 0.8344 0.03706 0.20877 0.0
In871 In 0.69224 0.57842 0.44733 0.0
O872 O 0.68339 0.56498 0.46234 0.0
O873 O 0.70263 0.56117 0.45621 0.0
C874 C 0.67481 0.59773 0.44841 0.0
C875 C 0.7135 0.59166 0.45428 0.0
C876 C 0.68588 0.568 0.42429 0.0
O877 O 0.67532 0.58896 0.45688 0.0
O878 O 0.68295 0.59662 0.43942 0.0
O879 O 0.6951 0.57591 0.42546 0.0
O880 O 0.6803 0.56515 0.4347 0.0
C881 C 0.69324 0.55785 0.46324 0.0
O882 O 0.71364 0.58388 0.44486 0.0
O883 O 0.70285 0.59245 0.46011 0.0
In884 In 0.67097 0.94475 0.69382 0.0
O885 O 0.68355 0.93622 0.70974 0.0
O886 O 0.6888 0.95458 0.7021 0.0
C887 C 0.65136 0.92761 0.6936 0.0
C888 C 0.65815 0.96552 0.70257 0.0
C889 C 0.68166 0.93942 0.67064 0.0
O890 O 0.66158 0.92568 0.69999 0.0
O891 O 0.65116 0.93801 0.68729 0.0
O892 O 0.67368 0.94853 0.67206 0.0
O893 O 0.68433 0.9334 0.68084 0.0
C894 C 0.69137 0.94559 0.70993 0.0
O895 O 0.6649 0.96605 0.69239 0.0
O896 O 0.65822 0.95475 0.70826 0.0
In897 In 0.19476 0.92284 0.5536 0.0
O898 O 0.21491 0.91466 0.55817 0.0
O899 O 0.20945 0.91728 0.53852 0.0
C900 C 0.19085 0.92942 0.57858 0.0
C901 C 0.19349 0.94447 0.53923 0.0
C902 C 0.17648 0.90458 0.54933 0.0
O903 O 0.19478 0.91837 0.57532 0.0
O904 O 0.18965 0.93724 0.56936 0.0
O905 O 0.17377 0.91593 0.55276 0.0
O906 O 0.18833 0.90258 0.54756 0.0
C907 C 0.218 0.91366 0.54639 0.0
O908 O 0.18506 0.93567 0.53846 0.0
O909 O 0.20246 0.94231 0.5472 0.0
In910 In 0.83058 0.44642 0.30069 0.0
O911 O 0.81722 0.43835 0.28528 0.0
O912 O 0.81146 0.45559 0.29502 0.0
C913 C 0.85132 0.43083 0.29777 0.0
C914 C 0.84046 0.46956 0.29416 0.0
C915 C 0.82043 0.43733 0.3229 0.0
O916 O 0.84198 0.43076 0.28995 0.0
O917 O 0.8502 0.43877 0.30691 0.0
O918 O 0.8274 0.44735 0.32269 0.0
O919 O 0.81853 0.43222 0.31204 0.0
C920 C 0.80883 0.44712 0.28661 0.0
O921 O 0.83772 0.46682 0.30574 0.0
O922 O 0.83821 0.4607 0.28612 0.0
In923 In 0.1703 0.05608 0.80288 0.0
O924 O 0.16396 0.03541 0.80788 0.0
O925 O 0.16303 0.04171 0.78829 0.0
C926 C 0.18099 0.06617 0.82433 0.0
C927 C 0.19165 0.05603 0.78819 0.0
C928 C 0.14827 0.06995 0.80166 0.0
O929 O 0.17579 0.0551 0.82441 0.0
O930 O 0.18081 0.07182 0.81357 0.0
O931 O 0.15713 0.07117 0.79335 0.0
O932 O 0.15055 0.06176 0.81036 0.0
C933 C 0.1612 0.0327 0.79628 0.0
O934 O 0.18278 0.06432 0.78674 0.0
O935 O 0.18968 0.0478 0.79698 0.0
In936 In 0.55367 0.80593 0.07643 0.0
O937 O 0.55449 0.7844 0.08199 0.0
O938 O 0.53988 0.79632 0.09018 0.0
C939 C 0.57698 0.8106 0.06564 0.0
C940 C 0.53736 0.80609 0.05623 0.0
C941 C 0.55419 0.82361 0.09553 0.0
O942 O 0.57558 0.80261 0.07474 0.0
O943 O 0.56667 0.8157 0.06177 0.0
O944 O 0.54624 0.82429 0.0863 0.0
O945 O 0.56186 0.81418 0.09497 0.0
C946 C 0.54495 0.78528 0.08958 0.0
O947 O 0.53884 0.81575 0.06354 0.0
O948 O 0.54403 0.79631 0.0592 0.0
In949 In 0.44528 0.80381 0.33151 0.0
O950 O 0.43542 0.78823 0.31939 0.0
O951 O 0.45499 0.79268 0.31516 0.0
C952 C 0.42845 0.80225 0.35131 0.0
C953 C 0.46811 0.7998 0.34338 0.0
C954 C 0.43812 0.82623 0.32015 0.0
O955 O 0.43026 0.79299 0.34355 0.0
O956 O 0.43507 0.81221 0.349 0.0
O957 O 0.44701 0.82574 0.32847 0.0
O958 O 0.43323 0.81547 0.31738 0.0
C959 C 0.44514 0.78609 0.31236 0.0
O960 O 0.46724 0.80643 0.33318 0.0
O961 O 0.45759 0.79527 0.34745 0.0
In962 In 0.44519 0.69177 0.57389 0.0
O963 O 0.44248 0.71264 0.58097 0.0
O964 O 0.46123 0.70421 0.5817 0.0
C965 C 0.42196 0.68441 0.56471 0.0
C966 C 0.4586 0.69191 0.55168 0.0
C967 C 0.44728 0.67624 0.59475 0.0
O968 O 0.42329 0.69459 0.57132 0.0
O969 O 0.43225 0.67825 0.56271 0.0
O970 O 0.45421 0.67473 0.58483 0.0
O971 O 0.43941 0.68548 0.59407 0.0
C972 C 0.45427 0.71395 0.58391 0.0
O973 O 0.45989 0.68311 0.56005 0.0
O974 O 0.45059 0.70065 0.55457 0.0
In975 In 0.55461 0.6969 0.82855 0.0
O976 O 0.53293 0.6943 0.83243 0.0
O977 O 0.54326 0.7088 0.84278 0.0
C978 C 0.56133 0.6745 0.81694 0.0
C979 C 0.55383 0.71461 0.80954 0.0
C980 C 0.57164 0.69656 0.84825 0.0
O981 O 0.55295 0.67491 0.82578 0.0
O982 O 0.56583 0.68531 0.81376 0.0
O983 O 0.5732 0.70371 0.83848 0.0
O984 O 0.56161 0.68968 0.848 0.0
C985 C 0.53264 0.70315 0.84086 0.0
O986 O 0.56302 0.71404 0.81755 0.0
O987 O 0.545 0.70639 0.81126 0.0
In988 In 0.55393 0.19517 0.92259 0.0
O989 O 0.5379 0.18657 0.93488 0.0
O990 O 0.5442 0.20563 0.93935 0.0
C991 C 0.55307 0.17734 0.90366 0.0
C992 C 0.54845 0.21669 0.90904 0.0
C993 C 0.57618 0.18803 0.93421 0.0
O994 O 0.54418 0.17846 0.91194 0.0
O995 O 0.56236 0.18508 0.90506 0.0
O996 O 0.57597 0.1963 0.92525 0.0
O997 O 0.56525 0.18391 0.93754 0.0
C998 C 0.53679 0.19634 0.9421 0.0
O999 O 0.55691 0.21674 0.91785 0.0
O1000 O 0.54285 0.20602 0.90737 0.0
In1001 In 0.05245 0.80464 0.17136 0.0
O1002 O 0.06096 0.7889 0.18409 0.0
O1003 O 0.04202 0.79556 0.1885 0.0
C1004 C 0.07061 0.80307 0.15278 0.0
C1005 C 0.03084 0.7989 0.15807 0.0
C1006 C 0.05934 0.82745 0.18204 0.0
O1007 O 0.0696 0.7947 0.1616 0.0
O1008 O 0.06253 0.81216 0.15342 0.0
O1009 O 0.05139 0.82678 0.17282 0.0
O1010 O 0.06326 0.8167 0.1861 0.0
C1011 C 0.05125 0.78814 0.19142 0.0
O1012 O 0.0309 0.80753 0.1667 0.0
O1013 O 0.04147 0.79321 0.15645 0.0
In1014 In 0.44585 0.30187 0.41868 0.0
O1015 O 0.4628 0.31062 0.42977 0.0
O1016 O 0.4562 0.29199 0.43537 0.0
C1017 C 0.4467 0.31836 0.39859 0.0
C1018 C 0.44957 0.27893 0.40704 0.0
C1019 C 0.42417 0.31023 0.43059 0.0
O1020 O 0.45556 0.31792 0.40697 0.0
O1021 O 0.43752 0.31057 0.40042 0.0
O1022 O 0.4239 0.30152 0.42208 0.0
O1023 O 0.43528 0.31428 0.43331 0.0
C1024 C 0.46397 0.30116 0.43738 0.0
O1025 O 0.44235 0.28006 0.4168 0.0
O1026 O 0.45487 0.28924 0.40333 0.0
In1027 In 0.94579 0.69676 0.66994 0.0
O1028 O 0.93902 0.71335 0.68261 0.0
O1029 O 0.95301 0.70037 0.69036 0.0
C1030 C 0.9306 0.69978 0.64895 0.0
C1031 C 0.96914 0.70372 0.66086 0.0
C1032 C 0.93617 0.67441 0.67909 0.0
O1033 O 0.92965 0.70692 0.65878 0.0
O1034 O 0.93929 0.6913 0.64967 0.0
O1035 O 0.94709 0.67491 0.67364 0.0
O1036 O 0.93039 0.68507 0.67997 0.0
C1037 C 0.94609 0.71028 0.69209 0.0
O1038 O 0.96625 0.69199 0.66263 0.0
O1039 O 0.96035 0.71165 0.66364 0.0
In1040 In 0.57795 0.55498 0.30457 0.0
O1041 O 0.565 0.53999 0.31405 0.0
O1042 O 0.55956 0.54716 0.29551 0.0
C1043 C 0.59844 0.55364 0.32072 0.0
C1044 C 0.5879 0.54667 0.28208 0.0
C1045 C 0.56737 0.57797 0.31091 0.0
O1046 O 0.58873 0.54638 0.32191 0.0
O1047 O 0.59776 0.56148 0.31147 0.0
O1048 O 0.57588 0.57698 0.30224 0.0
O1049 O 0.56412 0.56746 0.31605 0.0
C1050 C 0.55701 0.5397 0.30482 0.0
O1051 O 0.58395 0.55814 0.28344 0.0
O1052 O 0.58687 0.53966 0.29197 0.0
In1053 In 0.69863 0.82935 0.55645 0.0
O1054 O 0.71463 0.81686 0.56495 0.0
O1055 O 0.70446 0.80979 0.54848 0.0
C1056 C 0.7007 0.85153 0.56999 0.0
C1057 C 0.70513 0.83798 0.53288 0.0
C1058 C 0.67675 0.81937 0.56636 0.0
O1059 O 0.70839 0.84221 0.57162 0.0
O1060 O 0.69215 0.84965 0.56155 0.0
O1061 O 0.6771 0.82408 0.5551 0.0
O1062 O 0.68733 0.81965 0.57234 0.0
C1063 C 0.71321 0.8079 0.55677 0.0
O1064 O 0.69351 0.83559 0.53581 0.0
O1065 O 0.71322 0.836 0.54177 0.0
In1066 In 0.41909 0.94472 0.8035 0.0
O1067 O 0.41521 0.94227 0.78175 0.0
O1068 O 0.40341 0.95515 0.79253 0.0
C1069 C 0.43089 0.92218 0.80944 0.0
C1070 C 0.4383 0.96228 0.80317 0.0
C1071 C 0.40031 0.94544 0.82152 0.0
O1072 O 0.42148 0.92272 0.80172 0.0
O1073 O 0.43454 0.93295 0.81369 0.0
O1074 O 0.40835 0.95451 0.82012 0.0
O1075 O 0.40188 0.93603 0.81396 0.0
C1076 C 0.40586 0.95011 0.78174 0.0
O1077 O 0.43146 0.96019 0.81305 0.0
O1078 O 0.43531 0.95566 0.79338 0.0
In1079 In 0.30331 0.66893 0.05417 0.0
O1080 O 0.30663 0.66521 0.03249 0.0
O1081 O 0.29282 0.6538 0.04253 0.0
C1082 C 0.32551 0.68073 0.0613 0.0
C1083 C 0.28602 0.68837 0.05365 0.0
C1084 C 0.30209 0.64966 0.07164 0.0
O1085 O 0.32538 0.67161 0.05321 0.0
O1086 O 0.31454 0.68404 0.06532 0.0
O1087 O 0.29303 0.65771 0.07017 0.0
O1088 O 0.31173 0.65147 0.06442 0.0
C1089 C 0.29844 0.65616 0.03201 0.0
O1090 O 0.28767 0.6813 0.06344 0.0
O1091 O 0.2929 0.68548 0.04401 0.0
In1092 In 0.57801 0.44755 0.69437 0.0
O1093 O 0.5646 0.46285 0.68612 0.0
O1094 O 0.55874 0.4531 0.70331 0.0
C1095 C 0.59887 0.45017 0.67892 0.0
C1096 C 0.58765 0.45487 0.71737 0.0
C1097 C 0.56813 0.42521 0.68534 0.0
O1098 O 0.58939 0.45782 0.67841 0.0
O1099 O 0.59783 0.44137 0.68725 0.0
O1100 O 0.57505 0.4255 0.6954 0.0
O1101 O 0.56614 0.43604 0.6802 0.0
C1102 C 0.55613 0.46147 0.6948 0.0
O1103 O 0.58477 0.44321 0.7151 0.0
O1104 O 0.58568 0.46255 0.70813 0.0
In1105 In 0.80174 0.83064 0.94506 0.0
O1106 O 0.80467 0.83164 0.96704 0.0
O1107 O 0.79414 0.84668 0.95785 0.0
C1108 C 0.82376 0.8186 0.93777 0.0
C1109 C 0.78338 0.81214 0.94468 0.0
C1110 C 0.80024 0.85049 0.92828 0.0
O1111 O 0.82375 0.82773 0.94583 0.0
O1112 O 0.81275 0.81536 0.93383 0.0
O1113 O 0.7908 0.84306 0.93042 0.0
O1114 O 0.81035 0.84781 0.93451 0.0
C1115 C 0.79855 0.84212 0.96823 0.0
O1116 O 0.78616 0.81881 0.93486 0.0
O1117 O 0.78964 0.81501 0.95473 0.0
In1118 In 0.42213 0.05435 0.1948 0.0
O1119 O 0.43507 0.03918 0.1856 0.0
O1120 O 0.43879 0.04435 0.20516 0.0
C1121 C 0.40379 0.05389 0.17632 0.0
C1122 C 0.40842 0.04727 0.21573 0.0
C1123 C 0.43327 0.07738 0.18952 0.0
O1124 O 0.41268 0.04556 0.17687 0.0
O1125 O 0.40427 0.06243 0.18499 0.0
O1126 O 0.42381 0.07639 0.19715 0.0
O1127 O 0.4373 0.0668 0.18512 0.0
C1128 C 0.442 0.0376 0.19552 0.0
O1129 O 0.41676 0.05619 0.21631 0.0
O1130 O 0.4073 0.04201 0.20483 0.0
In1131 In 0.19748 0.66987 0.44529 0.0
O1132 O 0.19273 0.66367 0.46605 0.0
O1133 O 0.21188 0.66103 0.45904 0.0
C1134 C 0.17518 0.68015 0.43658 0.0
C1135 C 0.21197 0.69137 0.44619 0.0
C1136 C 0.19994 0.64937 0.42931 0.0
O1137 O 0.17543 0.67253 0.44611 0.0
O1138 O 0.18606 0.68265 0.43179 0.0
O1139 O 0.20773 0.65874 0.42912 0.0
O1140 O 0.19108 0.65033 0.43759 0.0
C1141 C 0.20411 0.65985 0.46833 0.0
O1142 O 0.21305 0.68311 0.43726 0.0
O1143 O 0.20362 0.68874 0.45469 0.0
In1144 In 0.80507 0.57603 0.05325 0.0
O1145 O 0.8115 0.5639 0.03599 0.0
O1146 O 0.79607 0.55684 0.04759 0.0
C1147 C 0.82256 0.59528 0.05273 0.0
C1148 C 0.78393 0.58884 0.04529 0.0
C1149 C 0.81181 0.56637 0.07647 0.0
O1150 O 0.82418 0.58492 0.04647 0.0
O1151 O 0.81225 0.59582 0.05917 0.0
O1152 O 0.80221 0.57381 0.07516 0.0
O1153 O 0.81763 0.56371 0.06614 0.0
C1154 C 0.80339 0.55501 0.03802 0.0
O1155 O 0.78379 0.58204 0.05545 0.0
O1156 O 0.79448 0.58883 0.03924 0.0
In1157 In 0.30656 0.42167 0.44656 0.0
O1158 O 0.31384 0.43353 0.46358 0.0
O1159 O 0.2972 0.44028 0.45356 0.0
C1160 C 0.32453 0.40287 0.44703 0.0
C1161 C 0.28538 0.4083 0.45362 0.0
C1162 C 0.31338 0.43253 0.4239 0.0
O1163 O 0.3245 0.41203 0.45509 0.0
O1164 O 0.31564 0.40334 0.43872 0.0
O1165 O 0.3045 0.42418 0.4246 0.0
O1166 O 0.31845 0.43548 0.43455 0.0
C1167 C 0.30525 0.44213 0.46254 0.0
O1168 O 0.28518 0.4159 0.44407 0.0
O1169 O 0.29601 0.40779 0.4595 0.0
In1170 In 0.82821 0.55363 0.69649 0.0
O1171 O 0.8157 0.56225 0.71238 0.0
O1172 O 0.81097 0.54343 0.70552 0.0
C1173 C 0.84737 0.57125 0.69622 0.0
C1174 C 0.84162 0.53266 0.70388 0.0
C1175 C 0.81678 0.55972 0.67386 0.0
O1176 O 0.83833 0.57165 0.7044 0.0
O1177 O 0.84661 0.56211 0.68821 0.0
O1178 O 0.82542 0.55115 0.67457 0.0
O1179 O 0.81374 0.56474 0.68449 0.0
C1180 C 0.80823 0.55262 0.71306 0.0
O1181 O 0.83386 0.53223 0.69445 0.0
O1182 O 0.84228 0.54343 0.7095 0.0
In1183 In 0.69212 0.07476 0.94833 0.0
O1184 O 0.7133 0.08106 0.94566 0.0
O1185 O 0.70265 0.08827 0.96169 0.0
C1186 C 0.68522 0.06408 0.9256 0.0
C1187 C 0.69365 0.0538 0.96365 0.0
C1188 C 0.67453 0.09394 0.94917 0.0
O1189 O 0.69424 0.07228 0.92634 0.0
O1190 O 0.68012 0.06116 0.93624 0.0
O1191 O 0.67496 0.08517 0.95765 0.0
O1192 O 0.6828 0.09287 0.9403 0.0
C1193 C 0.71315 0.08825 0.95554 0.0
O1194 O 0.68407 0.06135 0.9638 0.0
O1195 O 0.70257 0.05698 0.95597 0.0
In1196 In 0.67128 0.44509 0.19593 0.0
O1197 O 0.68479 0.43621 0.21082 0.0
O1198 O 0.68814 0.45572 0.20528 0.0
C1199 C 0.65255 0.42702 0.19675 0.0
C1200 C 0.65752 0.46602 0.2028 0.0
C1201 C 0.68207 0.43936 0.1729 0.0
O1202 O 0.66107 0.42796 0.20543 0.0
O1203 O 0.6536 0.43506 0.18767 0.0
O1204 O 0.67359 0.44805 0.17406 0.0
O1205 O 0.68531 0.43402 0.18333 0.0
C1206 C 0.69164 0.44622 0.21207 0.0
O1207 O 0.66549 0.46641 0.19355 0.0
O1208 O 0.6568 0.4553 0.2085 0.0
In1209 In 0.19472 0.4231 0.05442 0.0
O1210 O 0.21548 0.41582 0.05751 0.0
O1211 O 0.20735 0.41502 0.03864 0.0
C1212 C 0.18773 0.43266 0.07762 0.0
C1213 C 0.19503 0.44514 0.04071 0.0
C1214 C 0.1784 0.40283 0.05216 0.0
O1215 O 0.19743 0.42536 0.07637 0.0
O1216 O 0.1819 0.4352 0.06727 0.0
O1217 O 0.17783 0.41252 0.04478 0.0
O1218 O 0.18719 0.40338 0.06054 0.0
C1219 C 0.21697 0.41285 0.04576 0.0
O1220 O 0.18591 0.43706 0.03994 0.0
O1221 O 0.20401 0.44209 0.0484 0.0
In1222 In 0.82691 0.94504 0.80381 0.0
O1223 O 0.81374 0.93587 0.78879 0.0
O1224 O 0.81032 0.95552 0.79382 0.0
C1225 C 0.8452 0.92649 0.8033 0.0
C1226 C 0.84076 0.96599 0.79701 0.0
C1227 C 0.81571 0.93989 0.82682 0.0
O1228 O 0.83669 0.92746 0.79461 0.0
O1229 O 0.84434 0.93473 0.81221 0.0
O1230 O 0.82526 0.94741 0.82582 0.0
O1231 O 0.81164 0.93547 0.81627 0.0
C1232 C 0.80693 0.94586 0.78717 0.0
O1233 O 0.83237 0.9665 0.80587 0.0
O1234 O 0.84186 0.95513 0.79164 0.0
In1235 In 0.17042 0.55311 0.30458 0.0
O1236 O 0.16648 0.53145 0.30778 0.0
O1237 O 0.15513 0.54169 0.29406 0.0
C1238 C 0.1818 0.56042 0.32692 0.0
C1239 C 0.19008 0.55183 0.28757 0.0
C1240 C 0.15136 0.57078 0.30305 0.0
O1241 O 0.1729 0.55209 0.32664 0.0
O1242 O 0.18511 0.56463 0.31602 0.0
O1243 O 0.1597 0.56943 0.29424 0.0
O1244 O 0.15276 0.56333 0.31258 0.0
C1245 C 0.15742 0.53111 0.29961 0.0
O1246 O 0.18288 0.56162 0.28855 0.0
O1247 O 0.18723 0.54261 0.29502 0.0
C1248 C 0.02536 0.31724 0.04354 0.0
C1249 C 0.03077 0.30576 0.04832 0.0
C1250 C 0.01801 0.31712 0.03222 0.0
C1251 C 0.99745 0.29689 0.0124 0.0
H1252 H 0.00703 0.31933 0.98402 0.0
C1253 C 0.97288 0.29264 0.9626 0.0
C1254 C 0.97114 0.30392 0.95532 0.0
C1255 C 0.98019 0.29288 0.97394 0.0
C1256 C 0.00404 0.31316 0.9919 0.0
H1257 H 0.03255 0.28514 0.04521 0.0
H1258 H 0.01936 0.28489 0.02561 0.0
H1259 H 0.01933 0.31999 0.00407 0.0
H1260 H 0.97546 0.32435 0.95424 0.0
H1261 H 0.9877 0.32496 0.97428 0.0
H1262 H 0.9819 0.29033 0.00056 0.0
C1263 C 0.02095 0.29397 0.03055 0.0
C1264 C 0.01116 0.31351 0.00336 0.0
C1265 C 0.02852 0.29413 0.04171 0.0
C1266 C 0.97675 0.31548 0.95962 0.0
C1267 C 0.98385 0.31578 0.97108 0.0
C1268 C 0.99016 0.29671 0.00105 0.0
C1269 C 0.01571 0.30548 0.02566 0.0
C1270 C 0.00797 0.30532 0.01366 0.0
C1271 C 0.98573 0.30447 0.9784 0.0
C1272 C 0.9934 0.30478 0.99059 0.0
H1273 H 0.02698 0.32634 0.04844 0.0
H1274 H 0.01401 0.3261 0.02865 0.0
H1275 H 0.99475 0.29057 0.02028 0.0
H1276 H 0.96872 0.28357 0.95944 0.0
H1277 H 0.98162 0.28391 0.97911 0.0
C1278 C 0.93426 0.22409 0.20974 0.0
C1279 C 0.94567 0.21854 0.205 0.0
C1280 C 0.93441 0.23145 0.22105 0.0
C1281 C 0.95442 0.23807 0.2502 0.0
H1282 H 0.93151 0.26747 0.25359 0.0
C1283 C 0.95785 0.27604 0.29128 0.0
C1284 C 0.94615 0.27945 0.29724 0.0
C1285 C 0.95789 0.26815 0.28033 0.0
C1286 C 0.93788 0.25922 0.2528 0.0
H1287 H 0.96625 0.21655 0.20819 0.0
H1288 H 0.96664 0.22979 0.22764 0.0
H1289 H 0.93159 0.25506 0.23361 0.0
H1290 H 0.92536 0.27716 0.29655 0.0
H1291 H 0.92544 0.26353 0.27729 0.0
H1292 H 0.96093 0.24255 0.26934 0.0
C1293 C 0.95747 0.22817 0.22288 0.0
C1294 C 0.93792 0.25206 0.24137 0.0
C1295 C 0.95728 0.22066 0.21167 0.0
C1296 C 0.93452 0.27468 0.29216 0.0
C1297 C 0.93455 0.26694 0.28111 0.0
C1298 C 0.95451 0.24534 0.26157 0.0
C1299 C 0.94602 0.23359 0.22779 0.0
C1300 C 0.94614 0.24134 0.23992 0.0
C1301 C 0.94623 0.26368 0.27503 0.0
C1302 C 0.94619 0.25594 0.263 0.0
H1303 H 0.92515 0.22253 0.20486 0.0
H1304 H 0.92535 0.23525 0.22462 0.0
H1305 H 0.96072 0.22975 0.24956 0.0
H1306 H 0.96696 0.27958 0.295 0.0
H1307 H 0.96702 0.26582 0.27579 0.0
C1308 C 0.97344 0.20671 0.53902 0.0
C1309 C 0.97106 0.19517 0.54573 0.0
C1310 C 0.98125 0.20671 0.52801 0.0
C1311 C 0.99181 0.18689 0.50132 0.0
H1312 H 0.02162 0.20946 0.49958 0.0
C1313 C 0.02774 0.18405 0.45885 0.0
C1314 C 0.03365 0.19551 0.4547 0.0
C1315 C 0.02031 0.18388 0.47011 0.0
C1316 C 0.01322 0.20325 0.49976 0.0
H1317 H 0.9748 0.17458 0.54616 0.0
H1318 H 0.98815 0.17455 0.52665 0.0
H1319 H 0.00795 0.20966 0.51873 0.0
H1320 H 0.03631 0.21582 0.45891 0.0
H1321 H 0.02288 0.21573 0.47818 0.0
H1322 H 0.99663 0.1808 0.48223 0.0
C1323 C 0.98409 0.18358 0.53002 0.0
C1324 C 0.00545 0.20333 0.51079 0.0
C1325 C 0.97651 0.18362 0.54118 0.0
C1326 C 0.03194 0.20682 0.46196 0.0
C1327 C 0.02431 0.20672 0.47308 0.0
C1328 C 0.99941 0.18699 0.49017 0.0
C1329 C 0.98658 0.19514 0.52339 0.0
C1330 C 0.99472 0.19512 0.51168 0.0
C1331 C 0.0184 0.19524 0.47735 0.0
C1332 C 0.01026 0.19514 0.48924 0.0
H1333 H 0.96938 0.21575 0.54235 0.0
H1334 H 0.983 0.21573 0.52301 0.0
H1335 H 0.9835 0.18056 0.50176 0.0
H1336 H 0.02898 0.17517 0.45347 0.0
H1337 H 0.01618 0.17479 0.47319 0.0
C1338 C 0.04365 0.21976 0.78769 0.0
C1339 C 0.05465 0.21868 0.79551 0.0
C1340 C 0.04387 0.22737 0.77656 0.0
C1341 C 0.0627 0.25328 0.76015 0.0
H1342 H 0.0429 0.24219 0.73036 0.0
C1343 C 0.06703 0.27692 0.70964 0.0
C1344 C 0.05527 0.28054 0.70392 0.0
C1345 C 0.06715 0.26925 0.72075 0.0
C1346 C 0.04842 0.24542 0.73863 0.0
H1347 H 0.07456 0.22464 0.79784 0.0
H1348 H 0.07516 0.23755 0.77815 0.0
H1349 H 0.04297 0.229 0.74983 0.0
H1350 H 0.03446 0.2788 0.70515 0.0
H1351 H 0.0347 0.26513 0.72442 0.0
H1352 H 0.0684 0.26955 0.74868 0.0
C1353 C 0.06621 0.23283 0.78076 0.0
C1354 C 0.04842 0.23791 0.74984 0.0
C1355 C 0.06591 0.22537 0.79201 0.0
C1356 C 0.04366 0.27616 0.70937 0.0
C1357 C 0.04379 0.26832 0.72035 0.0
C1358 C 0.06286 0.26068 0.74886 0.0
C1359 C 0.05519 0.23392 0.77286 0.0
C1360 C 0.05547 0.24179 0.7608 0.0
C1361 C 0.05553 0.26488 0.7262 0.0
C1362 C 0.05564 0.25686 0.73804 0.0
H1363 H 0.0348 0.2148 0.79021 0.0
H1364 H 0.03511 0.22818 0.77093 0.0
H1365 H 0.06807 0.25672 0.76843 0.0
H1366 H 0.07613 0.28018 0.70566 0.0
H1367 H 0.07633 0.26666 0.72503 0.0
C1368 C 0.97092 0.68289 0.04099 0.0
C1369 C 0.96612 0.69471 0.0456 0.0
C1370 C 0.97834 0.68246 0.02971 0.0
C1371 C 7e-05 0.70183 0.01012 0.0
H1372 H 0.99141 0.67854 0.98213 0.0
C1373 C 0.02609 0.70491 0.96113 0.0
C1374 C 0.02833 0.69345 0.95426 0.0
C1375 C 0.01835 0.70488 0.97217 0.0
C1376 C 0.99413 0.68496 0.98992 0.0
H1377 H 0.96533 0.71533 0.0421 0.0
H1378 H 0.97854 0.7146 0.02256 0.0
H1379 H 0.97836 0.67859 0.00174 0.0
H1380 H 0.02435 0.67294 0.95358 0.0
H1381 H 0.01127 0.67272 0.97315 0.0
H1382 H 0.01604 0.70797 0.99865 0.0
C1383 C 0.97648 0.70568 0.02762 0.0
C1384 C 0.98659 0.68501 0.00112 0.0
C1385 C 0.96889 0.70608 0.03875 0.0
C1386 C 0.02271 0.68194 0.95865 0.0
C1387 C 0.01514 0.68184 0.96983 0.0
C1388 C 0.00774 0.70164 0.99904 0.0
C1389 C 0.98128 0.69387 0.023 0.0
C1390 C 0.98943 0.69353 0.01127 0.0
C1391 C 0.01285 0.69332 0.97676 0.0
C1392 C 0.00482 0.69328 0.98872 0.0
H1393 H 0.96892 0.67397 0.04607 0.0
H1394 H 0.98198 0.67325 0.02636 0.0
H1395 H 0.00256 0.70838 0.0179 0.0
H1396 H 0.03022 0.71396 0.95789 0.0
H1397 H 0.0166 0.71397 0.97702 0.0
C1398 C 0.54269 0.27791 0.21522 0.0
C1399 C 0.55406 0.27886 0.2079 0.0
C1400 C 0.54263 0.27124 0.22695 0.0
C1401 C 0.56159 0.24751 0.24622 0.0
H1402 H 0.54044 0.26026 0.27436 0.0
C1403 C 0.56467 0.2264 0.29767 0.0
C1404 C 0.55278 0.22273 0.30306 0.0
C1405 C 0.56506 0.23402 0.28654 0.0
C1406 C 0.54636 0.25658 0.26656 0.0
H1407 H 0.5743 0.27363 0.20713 0.0
H1408 H 0.57433 0.26234 0.22775 0.0
H1409 H 0.54069 0.2718 0.25383 0.0
H1410 H 0.53201 0.22459 0.30137 0.0
H1411 H 0.53271 0.23812 0.28205 0.0
H1412 H 0.5674 0.23242 0.2591 0.0
C1413 C 0.56535 0.26643 0.22432 0.0
C1414 C 0.54646 0.26313 0.25476 0.0
C1415 C 0.56536 0.27296 0.21251 0.0
C1416 C 0.54131 0.22727 0.29743 0.0
C1417 C 0.54171 0.23504 0.2864 0.0
C1418 C 0.56161 0.24107 0.25807 0.0
C1419 C 0.55399 0.26551 0.23173 0.0
C1420 C 0.55401 0.25864 0.24439 0.0
C1421 C 0.55358 0.23827 0.28069 0.0
C1422 C 0.55395 0.24549 0.26833 0.0
H1423 H 0.53382 0.28232 0.21187 0.0
H1424 H 0.53364 0.27053 0.23223 0.0
H1425 H 0.56735 0.2436 0.23842 0.0
H1426 H 0.57367 0.22302 0.30179 0.0
H1427 H 0.57435 0.23648 0.2824 0.0
C1428 C 0.02519 0.81661 0.54195 0.0
C1429 C 0.02964 0.80503 0.54743 0.0
C1430 C 0.01772 0.81642 0.53072 0.0
C1431 C 0.9957 0.79664 0.51176 0.0
H1432 H 0.00649 0.81786 0.48288 0.0
C1433 C 0.97073 0.79312 0.462 0.0
C1434 C 0.96952 0.80446 0.45469 0.0
C1435 C 0.9781 0.79303 0.47331 0.0
C1436 C 0.00318 0.81203 0.49089 0.0
H1437 H 0.02953 0.78418 0.54567 0.0
H1438 H 0.01617 0.78385 0.52617 0.0
H1439 H 0.01889 0.8182 0.50285 0.0
H1440 H 0.97485 0.82465 0.45354 0.0
H1441 H 0.98724 0.82469 0.47349 0.0
H1442 H 0.97976 0.79074 0.50006 0.0
C1443 C 0.01858 0.79305 0.53052 0.0
C1444 C 0.01035 0.81219 0.50232 0.0
C1445 C 0.02624 0.79325 0.54164 0.0
C1446 C 0.97571 0.81574 0.45893 0.0
C1447 C 0.9829 0.81571 0.47035 0.0
C1448 C 0.98839 0.79663 0.50041 0.0
C1449 C 0.01437 0.80465 0.52489 0.0
C1450 C 0.00669 0.80449 0.51284 0.0
C1451 C 0.98425 0.80434 0.47768 0.0
C1452 C 0.99204 0.80431 0.4898 0.0
H1453 H 0.02769 0.82583 0.5462 0.0
H1454 H 0.01451 0.82549 0.5266 0.0
H1455 H 0.99263 0.79069 0.51979 0.0
H1456 H 0.96611 0.78427 0.4589 0.0
H1457 H 0.97909 0.78403 0.47853 0.0
C1458 C 0.43603 0.22932 0.7047 0.0
C1459 C 0.44426 0.2186 0.70354 0.0
C1460 C 0.43596 0.23671 0.71601 0.0
C1461 C 0.44442 0.23519 0.75058 0.0
H1462 H 0.4436 0.27256 0.74855 0.0
C1463 C 0.43723 0.26741 0.79551 0.0
C1464 C 0.445 0.27848 0.79645 0.0
C1465 C 0.43702 0.26013 0.78415 0.0
C1466 C 0.4439 0.26213 0.74927 0.0
H1467 H 0.45885 0.20721 0.7133 0.0
H1468 H 0.45876 0.22009 0.73299 0.0
H1469 H 0.44353 0.2598 0.72873 0.0
H1470 H 0.45866 0.29062 0.78624 0.0
H1471 H 0.45835 0.27787 0.76641 0.0
H1472 H 0.44498 0.23751 0.7711 0.0
C1473 C 0.45228 0.22274 0.72522 0.0
C1474 C 0.44372 0.25482 0.73792 0.0
C1475 C 0.45238 0.2154 0.71391 0.0
C1476 C 0.45256 0.28214 0.7858 0.0
C1477 C 0.45232 0.27489 0.77442 0.0
C1478 C 0.44454 0.24249 0.76192 0.0
C1479 C 0.44408 0.23348 0.72641 0.0
C1480 C 0.44402 0.24127 0.73845 0.0
C1481 C 0.44455 0.2638 0.77347 0.0
C1482 C 0.44432 0.25605 0.7614 0.0
H1483 H 0.42965 0.23202 0.69686 0.0
H1484 H 0.42944 0.24485 0.71667 0.0
H1485 H 0.44453 0.22476 0.75132 0.0
H1486 H 0.43126 0.26438 0.80354 0.0
H1487 H 0.43082 0.25173 0.78367 0.0
C1488 C 0.95976 0.97522 0.29695 0.0
C1489 C 0.95268 0.97275 0.30825 0.0
C1490 C 0.97083 0.98291 0.29739 0.0
C1491 C 0.99731 0.9922 0.31776 0.0
H1492 H 0.00031 0.02258 0.29612 0.0
C1493 C 0.04176 0.02571 0.32089 0.0
C1494 C 0.04598 0.03172 0.30951 0.0
C1495 C 0.0301 0.01891 0.3211 0.0
C1496 C 0.99977 0.01401 0.30207 0.0
H1497 H 0.95163 0.97624 0.32885 0.0
H1498 H 0.97131 0.98938 0.32967 0.0
H1499 H 0.98057 0.00978 0.29557 0.0
H1500 H 0.04153 0.03516 0.28938 0.0
H1501 H 0.02158 0.0228 0.28951 0.0
H1502 H 0.01664 0.99592 0.32385 0.0
C1503 C 0.96814 0.98549 0.32049 0.0
C1504 C 0.9884 0.00676 0.30181 0.0
C1505 C 0.9569 0.97805 0.32 0.0
C1506 C 0.03843 0.03071 0.29832 0.0
C1507 C 0.02692 0.0237 0.29845 0.0
C1508 C 0.00879 0.99928 0.31782 0.0
C1509 C 0.97516 0.98801 0.30918 0.0
C1510 C 0.98709 0.99581 0.30965 0.0
C1511 C 0.02253 0.01775 0.30986 0.0
C1512 C 0.0102 0.01029 0.30997 0.0
H1513 H 0.9567 0.97127 0.28777 0.0
H1514 H 0.97615 0.98469 0.28856 0.0
H1515 H 0.99652 0.9837 0.3238 0.0
H1516 H 0.04737 0.02643 0.32969 0.0
H1517 H 0.02698 0.01471 0.33015 0.0
C1518 C 0.22401 0.2903 0.54711 0.0
C1519 C 0.2213 0.29739 0.55834 0.0
C1520 C 0.2319 0.27938 0.54767 0.0
C1521 C 0.24228 0.25342 0.56856 0.0
H1522 H 0.2717 0.25072 0.5456 0.0
C1523 C 0.27732 0.20985 0.5705 0.0
C1524 C 0.28263 0.20562 0.55878 0.0
C1525 C 0.27015 0.2213 0.57102 0.0
C1526 C 0.26341 0.25119 0.55195 0.0
H1527 H 0.22455 0.29858 0.57898 0.0
H1528 H 0.23811 0.2792 0.58 0.0
H1529 H 0.25843 0.27012 0.54526 0.0
H1530 H 0.28432 0.20978 0.53835 0.0
H1531 H 0.2714 0.22931 0.53908 0.0
H1532 H 0.24684 0.23432 0.57489 0.0
C1533 C 0.23422 0.28222 0.57077 0.0
C1534 C 0.25588 0.26236 0.55179 0.0
C1535 C 0.22653 0.29331 0.57017 0.0
C1536 C 0.28046 0.21289 0.54756 0.0
C1537 C 0.27312 0.22417 0.54802 0.0
C1538 C 0.24968 0.24213 0.56855 0.0
C1539 C 0.23701 0.27521 0.55951 0.0
C1540 C 0.24522 0.26355 0.56005 0.0
C1541 C 0.26796 0.22862 0.55977 0.0
C1542 C 0.26031 0.24082 0.56018 0.0
H1543 H 0.2201 0.29324 0.53786 0.0
H1544 H 0.23387 0.27408 0.53887 0.0
H1545 H 0.23403 0.25411 0.57495 0.0
H1546 H 0.27891 0.20445 0.57931 0.0
H1547 H 0.26649 0.22447 0.58028 0.0
C1548 C 0.95985 0.47385 0.81864 0.0
C1549 C 0.95534 0.4684 0.80707 0.0
C1550 C 0.97112 0.48127 0.81876 0.0
C1551 C 0.99098 0.50199 0.79873 0.0
H1552 H 0.01884 0.49377 0.82234 0.0
C1553 C 0.04006 0.52769 0.79515 0.0
C1554 C 0.04691 0.53021 0.80657 0.0
C1555 C 0.02902 0.51997 0.79536 0.0
C1556 C 0.01109 0.49637 0.81583 0.0
H1557 H 0.95894 0.46653 0.78654 0.0
H1558 H 0.97848 0.47984 0.7867 0.0
H1559 H 0.99912 0.48088 0.8226 0.0
H1560 H 0.04758 0.52672 0.82717 0.0
H1561 H 0.02797 0.51369 0.82768 0.0
H1562 H 0.00258 0.51772 0.79221 0.0
C1563 C 0.97335 0.47824 0.79568 0.0
C1564 C -0.00017 0.48892 0.81595 0.0
C1565 C 0.96222 0.47061 0.7956 0.0
C1566 C 0.04251 0.52486 0.81821 0.0
C1567 C 0.03131 0.51732 0.81847 0.0
C1568 C 0.00211 0.50959 0.79876 0.0
C1569 C 0.97792 0.48358 0.80727 0.0
C1570 C 0.98973 0.49161 0.80733 0.0
C1571 C 0.02439 0.51478 0.80703 0.0
C1572 C 0.01239 0.50682 0.80724 0.0
H1573 H 0.95475 0.47227 0.82763 0.0
H1574 H 0.97443 0.48536 0.8278 0.0
H1575 H 0.98324 0.50434 0.7921 0.0
H1576 H 0.04332 0.53159 0.78601 0.0
H1577 H 0.02418 0.51801 0.7863 0.0
C1578 C 0.7787 0.21118 0.04381 0.0
C1579 C 0.78002 0.20387 0.05516 0.0
C1580 C 0.77146 0.22256 0.04381 0.0
C1581 C 0.76096 0.24887 0.06429 0.0
H1582 H 0.73358 0.2538 0.03926 0.0
C1583 C 0.72648 0.29267 0.06675 0.0
C1584 C 0.7215 0.29762 0.05517 0.0
C1585 C 0.73386 0.28137 0.06675 0.0
C1586 C 0.74135 0.25274 0.04617 0.0
H1587 H 0.7749 0.20275 0.07542 0.0
H1588 H 0.7625 0.22289 0.07548 0.0
H1589 H 0.746 0.23382 0.03916 0.0
H1590 H 0.72067 0.29495 0.03445 0.0
H1591 H 0.73406 0.27563 0.03431 0.0
H1592 H 0.75673 0.26789 0.07107 0.0
C1593 C 0.76698 0.21971 0.06658 0.0
C1594 C 0.74838 0.24123 0.04616 0.0
C1595 C 0.774 0.20818 0.06652 0.0
C1596 C 0.72433 0.29128 0.04354 0.0
C1597 C 0.73191 0.28013 0.0435 0.0
C1598 C 0.75409 0.2605 0.06417 0.0
C1599 C 0.76563 0.22697 0.05522 0.0
C1600 C 0.7582 0.23918 0.05525 0.0
C1601 C 0.73662 0.27488 0.05512 0.0
C1602 C 0.74414 0.26259 0.05514 0.0
H1603 H 0.78322 0.20806 0.03491 0.0
H1604 H 0.7706 0.22804 0.03494 0.0
H1605 H 0.7686 0.24755 0.07132 0.0
H1606 H 0.72435 0.29731 0.07588 0.0
H1607 H 0.7371 0.27757 0.07593 0.0
C1608 C 0.04261 0.97668 0.70732 0.0
C1609 C 0.04886 0.97334 0.69575 0.0
C1610 C 0.03161 0.98449 0.70714 0.0
C1611 C 0.00415 0.99275 0.68716 0.0
H1612 H 0.0008 0.02292 0.70905 0.0
C1613 C 0.95958 0.02606 0.68407 0.0
C1614 C 0.95521 0.03197 0.69545 0.0
C1615 C 0.97122 0.01923 0.68394 0.0
C1616 C 0.00145 0.01441 0.70303 0.0
H1617 H 0.04858 0.97561 0.67495 0.0
H1618 H 0.02913 0.98905 0.67463 0.0
H1619 H 0.02081 0.01051 0.70928 0.0
H1620 H 0.95939 0.03514 0.71569 0.0
H1621 H 0.97935 0.02275 0.71567 0.0
H1622 H 0.98471 0.99621 0.68124 0.0
C1623 C 0.03284 0.98569 0.68382 0.0
C1624 C 0.01297 0.00737 0.70311 0.0
C1625 C 0.04398 0.97808 0.68401 0.0
C1626 C 0.96258 0.03076 0.70675 0.0
C1627 C 0.9741 0.02373 0.70669 0.0
C1628 C 0.99255 0.99964 0.68724 0.0
C1629 C 0.02652 0.9889 0.69538 0.0
C1630 C 0.01442 0.9965 0.69515 0.0
C1631 C 0.97864 0.01794 0.69526 0.0
C1632 C 0.99103 0.01059 0.69516 0.0
H1633 H 0.04617 0.97316 0.7165 0.0
H1634 H 0.02687 0.98678 0.71617 0.0
H1635 H 0.00499 0.9843 0.68106 0.0
H1636 H 0.95413 0.02694 0.67519 0.0
H1637 H 0.97446 0.01514 0.67489 0.0
C1638 C 0.21896 0.21192 0.95881 0.0
C1639 C 0.21742 0.20467 0.94745 0.0
C1640 C 0.22636 0.2232 0.95877 0.0
C1641 C 0.23725 0.24919 0.93786 0.0
H1642 H 0.26462 0.25416 0.96289 0.0
C1643 C 0.27293 0.29177 0.93398 0.0
C1644 C 0.2778 0.29719 0.9454 0.0
C1645 C 0.26536 0.28061 0.9344 0.0
C1646 C 0.25687 0.25307 0.95597 0.0
H1647 H 0.22234 0.20354 0.92714 0.0
H1648 H 0.23504 0.22345 0.92701 0.0
H1649 H 0.25173 0.23447 0.96346 0.0
H1650 H 0.27831 0.29545 0.96623 0.0
H1651 H 0.26465 0.27632 0.96705 0.0
H1652 H 0.24202 0.26788 0.93056 0.0
C1653 C 0.23059 0.22033 0.93594 0.0
C1654 C 0.24955 0.24174 0.95627 0.0
C1655 C 0.22339 0.20893 0.93604 0.0
C1656 C 0.27475 0.29141 0.95727 0.0
C1657 C 0.267 0.28037 0.95771 0.0
C1658 C 0.24441 0.26062 0.93769 0.0
C1659 C 0.23215 0.22756 0.94731 0.0
C1660 C 0.23974 0.23967 0.94716 0.0
C1661 C 0.26229 0.27473 0.94627 0.0
C1662 C 0.2544 0.26269 0.94668 0.0
H1663 H 0.21448 0.20884 0.96775 0.0
H1664 H 0.22738 0.22865 0.96764 0.0
H1665 H 0.22962 0.24787 0.93083 0.0
H1666 H 0.27522 0.29596 0.92468 0.0
H1667 H 0.26215 0.27646 0.92536 0.0
C1668 C 0.04307 0.47288 0.18136 0.0
C1669 C 0.04764 0.46886 0.19348 0.0
C1670 C 0.03199 0.48057 0.18047 0.0
C1671 C 0.01292 0.50417 0.19791 0.0
H1672 H 0.98355 0.49204 0.17813 0.0
C1673 C 0.96332 0.52865 0.20247 0.0
C1674 C 0.95527 0.52918 0.19159 0.0
C1675 C 0.9747 0.52143 0.20221 0.0
C1676 C 0.99171 0.49573 0.1835 0.0
H1677 H 0.04445 0.4699 0.21414 0.0
H1678 H 0.02535 0.48365 0.21257 0.0
H1679 H 0.00356 0.47961 0.17813 0.0
H1680 H 0.95282 0.52272 0.17186 0.0
H1681 H 0.97296 0.51056 0.17115 0.0
H1682 H 0.00139 0.52045 0.20305 0.0
C1683 C 0.03023 0.48074 0.20379 0.0
C1684 C 0.00315 0.48856 0.18353 0.0
C1685 C 0.04111 0.47284 0.20467 0.0
C1686 C 0.95882 0.52238 0.18042 0.0
C1687 C 0.97034 0.51535 0.18006 0.0
C1688 C 0.00159 0.51147 0.19769 0.0
C1689 C 0.02553 0.48459 0.19169 0.0
C1690 C 0.01377 0.49263 0.19088 0.0
C1691 C 0.97845 0.51477 0.19096 0.0
C1692 C 0.99074 0.50727 0.19065 0.0
H1693 H 0.04792 0.46991 0.17259 0.0
H1694 H 0.02853 0.48347 0.17103 0.0
H1695 H 0.02105 0.50755 0.20355 0.0
H1696 H 0.96076 0.53371 0.21125 0.0
H1697 H 0.98047 0.52098 0.2109 0.0
C1698 C 0.71939 0.21246 0.45694 0.0
C1699 C 0.71733 0.20577 0.44532 0.0
C1700 C 0.7267 0.22381 0.45709 0.0
C1701 C 0.73676 0.25082 0.43696 0.0
H1702 H 0.76506 0.25448 0.46117 0.0
C1703 C 0.77278 0.29319 0.4337 0.0
C1704 C 0.77807 0.29808 0.44517 0.0
C1705 C 0.76507 0.28212 0.43388 0.0
C1706 C 0.75706 0.25376 0.45449 0.0
H1707 H 0.72116 0.20573 0.42475 0.0
H1708 H 0.73371 0.22574 0.42498 0.0
H1709 H 0.75208 0.23485 0.4613 0.0
H1710 H 0.7792 0.29546 0.46589 0.0
H1711 H 0.76533 0.27646 0.46634 0.0
H1712 H 0.74142 0.26979 0.43033 0.0
C1713 C 0.72974 0.22214 0.43396 0.0
C1714 C 0.74967 0.24246 0.45454 0.0
C1715 C 0.72262 0.21068 0.43384 0.0
C1716 C 0.7753 0.29185 0.45688 0.0
C1717 C 0.76743 0.28089 0.4571 0.0
C1718 C 0.74401 0.26221 0.43704 0.0
C1719 C 0.73188 0.22878 0.44559 0.0
C1720 C 0.73952 0.24086 0.44571 0.0
C1721 C 0.76231 0.27578 0.44559 0.0
C1722 C 0.75432 0.2638 0.44575 0.0
H1723 H 0.71544 0.20888 0.46593 0.0
H1724 H 0.72815 0.22879 0.46616 0.0
H1725 H 0.72887 0.24987 0.43015 0.0
H1726 H 0.77484 0.29774 0.42451 0.0
H1727 H 0.76152 0.27839 0.42479 0.0
C1728 C 0.29209 0.96188 0.96897 0.0
C1729 C 0.30104 0.95203 0.97155 0.0
C1730 C 0.29191 0.9731 0.97645 0.0
C1731 C 0.30217 0.98666 0.00776 0.0
H1732 H 0.29891 0.01942 0.98992 0.0
C1733 C 0.29485 0.03504 0.03466 0.0
C1734 C 0.30192 0.0457 0.03015 0.0
C1735 C 0.29465 0.02349 0.02768 0.0
C1736 C 0.29991 0.01036 0.99504 0.0
H1737 H 0.31666 0.94607 0.98413 0.0
H1738 H 0.31638 0.96571 0.9972 0.0
H1739 H 0.29877 0.99938 0.97759 0.0
H1740 H 0.31435 0.05263 0.0148 0.0
H1741 H 0.31404 0.03246 0.00262 0.0
H1742 H 0.30349 0.99767 0.02521 0.0
C1743 C 0.30944 0.96472 0.98944 0.0
C1744 C 0.29968 0.99887 0.98799 0.0
C1745 C 0.30964 0.9535 0.98193 0.0
C1746 C 0.30877 0.04459 0.0185 0.0
C1747 C 0.30854 0.03306 0.0115 0.0
C1748 C 0.30234 0.99816 0.01483 0.0
C1749 C 0.30066 0.9747 0.98669 0.0
C1750 C 0.30081 0.98688 0.99426 0.0
C1751 C 0.30149 0.02238 0.01601 0.0
C1752 C 0.30124 0.01014 0.00854 0.0
H1753 H 0.28531 0.96101 0.96106 0.0
H1754 H 0.2849 0.98053 0.9742 0.0
H1755 H 0.30297 0.97757 0.01288 0.0
H1756 H 0.28946 0.03561 0.04361 0.0
H1757 H 0.28901 0.01549 0.03134 0.0
C1758 C 0.81551 0.03992 0.525 0.0
C1759 C 0.80418 0.04487 0.53054 0.0
C1760 C 0.81516 0.0286 0.51766 0.0
C1761 C 0.79458 0.99985 0.51094 0.0
H1762 H 0.8177 0.996 0.48175 0.0
C1763 C 0.79098 0.95861 0.47312 0.0
C1764 C 0.80261 0.95228 0.47019 0.0
C1765 C 0.79098 0.96971 0.4808 0.0
C1766 C 0.81125 0.99693 0.48993 0.0
H1767 H 0.78356 0.04204 0.53257 0.0
H1768 H 0.78282 0.02259 0.51935 0.0
H1769 H 0.81785 0.01601 0.49411 0.0
H1770 H 0.82334 0.95253 0.47305 0.0
H1771 H 0.82336 0.97208 0.48628 0.0
H1772 H 0.78777 0.98083 0.50641 0.0
C1773 C 0.79207 0.02718 0.52096 0.0
C1774 C 0.81136 0.00837 0.49707 0.0
C1775 C 0.79246 0.0384 0.52846 0.0
C1776 C 0.81423 0.9572 0.47517 0.0
C1777 C 0.81425 0.96841 0.48267 0.0
C1778 C 0.79435 0.98848 0.50366 0.0
C1779 C 0.80343 0.02207 0.51552 0.0
C1780 C 0.80309 0.00997 0.50773 0.0
C1781 C 0.80264 0.9748 0.48551 0.0
C1782 C 0.80274 0.98689 0.49315 0.0
H1783 H 0.82471 0.04465 0.52654 0.0
H1784 H 0.82415 0.02487 0.51387 0.0
H1785 H 0.78824 0.0006 0.5192 0.0
H1786 H 0.78188 0.95502 0.46942 0.0
H1787 H 0.78191 0.97451 0.48281 0.0
C1788 C 0.29083 0.04352 0.72502 0.0
C1789 C 0.29694 0.05505 0.72133 0.0
C1790 C 0.27976 0.04382 0.73274 0.0
C1791 C 0.25188 0.06345 0.74016 0.0
H1792 H 0.24939 0.04336 0.77163 0.0
C1793 C 0.20742 0.06715 0.77366 0.0
C1794 C 0.20356 0.05603 0.78037 0.0
C1795 C 0.21896 0.06724 0.76666 0.0
C1796 C 0.2498 0.04886 0.76276 0.0
H1797 H 0.29631 0.07592 0.7228 0.0
H1798 H 0.27672 0.07644 0.73603 0.0
H1799 H 0.26929 0.04293 0.75908 0.0
H1800 H 0.20849 0.0362 0.78476 0.0
H1801 H 0.22824 0.03609 0.77208 0.0
H1802 H 0.2323 0.06901 0.74342 0.0
C1803 C 0.2806 0.06719 0.73304 0.0
C1804 C 0.26125 0.04867 0.75564 0.0
C1805 C 0.29182 0.06689 0.72555 0.0
C1806 C 0.2113 0.04494 0.77977 0.0
C1807 C 0.22271 0.04494 0.77257 0.0
C1808 C 0.24033 0.06346 0.74714 0.0
C1809 C 0.27447 0.05566 0.73667 0.0
C1810 C 0.2624 0.05598 0.7443 0.0
C1811 C 0.22678 0.05612 0.766 0.0
C1812 C 0.23912 0.05617 0.75856 0.0
H1813 H 0.29458 0.03427 0.7219 0.0
H1814 H 0.27515 0.03481 0.73537 0.0
H1815 H 0.2525 0.06906 0.73136 0.0
H1816 H 0.20167 0.07587 0.77405 0.0
H1817 H 0.22184 0.07611 0.76195 0.0
C1818 C 0.18382 0.46186 0.02742 0.0
C1819 C 0.19516 0.45727 0.03322 0.0
C1820 C 0.18391 0.47337 0.02038 0.0
C1821 C 0.20362 0.50298 0.01448 0.0
H1822 H 0.18153 0.50593 0.9844 0.0
C1823 C 0.20778 0.54347 0.97587 0.0
C1824 C 0.19615 0.5495 0.97236 0.0
C1825 C 0.2077 0.53262 0.9839 0.0
C1826 C 0.18768 0.50526 0.99283 0.0
H1827 H 0.21553 0.46099 0.03613 0.0
H1828 H 0.21586 0.48078 0.02341 0.0
H1829 H 0.18148 0.48603 0.99691 0.0
H1830 H 0.17534 0.54902 0.9746 0.0
H1831 H 0.17521 0.5299 0.98843 0.0
H1832 H 0.2101 0.52214 0.00999 0.0
C1833 C 0.20677 0.47577 0.02459 0.0
C1834 C 0.18762 0.49388 7e-05 0.0
C1835 C 0.20662 0.46436 0.03181 0.0
C1836 C 0.18446 0.54458 0.97716 0.0
C1837 C 0.18436 0.53362 0.98501 0.0
C1838 C 0.20382 0.51429 0.0071 0.0
C1839 C 0.19541 0.48045 0.01879 0.0
C1840 C 0.19554 0.49259 0.01104 0.0
C1841 C 0.19597 0.52749 0.98839 0.0
C1842 C 0.19581 0.51555 0.99625 0.0
H1843 H 0.17482 0.45664 0.02844 0.0
H1844 H 0.1749 0.47676 0.01631 0.0
H1845 H 0.20968 0.50248 0.02297 0.0
H1846 H 0.21693 0.54706 0.97231 0.0
H1847 H 0.21677 0.52802 0.98632 0.0
C1848 C 0.28786 0.95557 0.2791 0.0
C1849 C 0.29539 0.94431 0.27982 0.0
C1850 C 0.27653 0.95574 0.27177 0.0
C1851 C 0.25096 0.93514 0.25943 0.0
H1852 H 0.24566 0.96194 0.23384 0.0
C1853 C 0.20865 0.93314 0.22324 0.0
C1854 C 0.20312 0.94479 0.2191 0.0
C1855 C 0.2197 0.93318 0.23098 0.0
C1856 C 0.24683 0.95452 0.2411 0.0
H1857 H 0.29697 0.9244 0.27359 0.0
H1858 H 0.27696 0.92463 0.261 0.0
H1859 H 0.2653 0.96192 0.24679 0.0
H1860 H 0.20453 0.96563 0.2201 0.0
H1861 H 0.22346 0.96577 0.23406 0.0
H1862 H 0.23239 0.92791 0.2541 0.0
C1863 C 0.2799 0.93332 0.26603 0.0
C1864 C 0.25814 0.95448 0.24845 0.0
C1865 C 0.29136 0.93321 0.27316 0.0
C1866 C 0.20866 0.9565 0.22308 0.0
C1867 C 0.21958 0.95656 0.231 0.0
C1868 C 0.23954 0.9353 0.25224 0.0
C1869 C 0.27241 0.9446 0.26524 0.0
C1870 C 0.26034 0.94475 0.25761 0.0
C1871 C 0.22536 0.94489 0.23494 0.0
C1872 C 0.23735 0.94494 0.2429 0.0
H1873 H 0.29076 0.96427 0.28412 0.0
H1874 H 0.27088 0.96453 0.27136 0.0
H1875 H 0.25237 0.92762 0.26655 0.0
H1876 H 0.20463 0.92396 0.22023 0.0
H1877 H 0.22395 0.924 0.23359 0.0
C1878 C 0.70777 0.95234 0.02307 0.0
C1879 C 0.69633 0.94674 0.02774 0.0
C1880 C 0.70732 0.96343 0.01538 0.0
C1881 C 0.6874 0.99186 0.00963 0.0
H1882 H 0.70791 0.99604 0.97861 0.0
C1883 C 0.68291 0.03713 0.97743 0.0
C1884 C 0.69409 0.04178 0.97133 0.0
C1885 C 0.68312 0.02539 0.98409 0.0
C1886 C 0.70226 0.99512 0.98736 0.0
H1887 H 0.67545 0.94814 0.02777 0.0
H1888 H 0.67468 0.96761 0.01443 0.0
H1889 H 0.70836 0.97555 0.99023 0.0
H1890 H 0.71431 0.03795 0.96764 0.0
H1891 H 0.71483 0.01771 0.97963 0.0
H1892 H 0.68156 0.01148 0.00708 0.0
C1893 C 0.68398 0.96341 0.01674 0.0
C1894 C 0.70248 0.98334 0.99396 0.0
C1895 C 0.68442 0.95223 0.02429 0.0
C1896 C 0.70553 0.03458 0.97221 0.0
C1897 C 0.70578 0.02291 0.97899 0.0
C1898 C 0.6873 0.00368 0.00313 0.0
C1899 C 0.69543 0.96922 0.01235 0.0
C1900 C 0.69502 0.98159 0.00514 0.0
C1901 C 0.69455 0.01809 0.98493 0.0
C1902 C 0.69472 0.00549 0.99189 0.0
H1903 H 0.71708 0.94832 0.02558 0.0
H1904 H 0.7163 0.96773 0.01219 0.0
H1905 H 0.68171 0.99084 0.01835 0.0
H1906 H 0.67392 0.04243 0.97683 0.0
H1907 H 0.67422 0.02193 0.98833 0.0
C1908 C 0.29329 0.45818 0.77366 0.0
C1909 C 0.2992 0.44649 0.77718 0.0
C1910 C 0.28206 0.45817 0.76616 0.0
C1911 C 0.25363 0.4391 0.75933 0.0
H1912 H 0.25073 0.45918 0.72789 0.0
C1913 C 0.20875 0.43531 0.72656 0.0
C1914 C 0.20475 0.44636 0.71983 0.0
C1915 C 0.22039 0.4353 0.73339 0.0
C1916 C 0.25126 0.45369 0.73676 0.0
H1917 H 0.29806 0.42565 0.77561 0.0
H1918 H 0.27823 0.42565 0.76277 0.0
H1919 H 0.27088 0.45942 0.74007 0.0
H1920 H 0.20956 0.46617 0.71519 0.0
H1921 H 0.22953 0.46642 0.72758 0.0
H1922 H 0.23395 0.43371 0.75645 0.0
C1923 C 0.28238 0.43479 0.76572 0.0
C1924 C 0.26285 0.45377 0.74367 0.0
C1925 C 0.29374 0.4348 0.77299 0.0
C1926 C 0.21248 0.45748 0.72022 0.0
C1927 C 0.224 0.45756 0.72725 0.0
C1928 C 0.24196 0.43919 0.75257 0.0
C1929 C 0.27642 0.44647 0.76229 0.0
C1930 C 0.26415 0.44643 0.75497 0.0
C1931 C 0.22818 0.44644 0.73386 0.0
C1932 C 0.24061 0.44644 0.74115 0.0
H1933 H 0.2973 0.46733 0.77676 0.0
H1934 H 0.2776 0.4673 0.76367 0.0
H1935 H 0.25437 0.43347 0.76812 0.0
H1936 H 0.20301 0.42657 0.72633 0.0
H1937 H 0.22335 0.42646 0.73811 0.0
C1938 C 0.70775 0.06871 0.27116 0.0
C1939 C 0.70268 0.05702 0.27581 0.0
C1940 C 0.71881 0.06877 0.26344 0.0
C1941 C 0.73785 0.04918 0.24127 0.0
H1942 H 0.76663 0.07081 0.25155 0.0
C1943 C 0.78777 0.04424 0.21732 0.0
C1944 C 0.79536 0.05536 0.21576 0.0
C1945 C 0.77631 0.04471 0.22441 0.0
C1946 C 0.75863 0.06488 0.24837 0.0
H1947 H 0.70499 0.03622 0.27579 0.0
H1948 H 0.72417 0.03632 0.262 0.0
H1949 H 0.74666 0.07129 0.26398 0.0
H1950 H 0.79686 0.07573 0.2202 0.0
H1951 H 0.77661 0.07673 0.23216 0.0
H1952 H 0.74956 0.04298 0.22548 0.0
C1953 C 0.71963 0.04542 0.26444 0.0
C1954 C 0.74721 0.06512 0.25555 0.0
C1955 C 0.7087 0.04537 0.27235 0.0
C1956 C 0.79123 0.06699 0.22133 0.0
C1957 C 0.77965 0.06753 0.22826 0.0
C1958 C 0.74918 0.04908 0.23395 0.0
C1959 C 0.72486 0.05713 0.26003 0.0
C1960 C 0.73677 0.0572 0.25213 0.0
C1961 C 0.77204 0.05637 0.22993 0.0
C1962 C 0.75979 0.05684 0.23747 0.0
H1963 H 0.70332 0.07783 0.27371 0.0
H1964 H 0.72262 0.07792 0.26009 0.0
H1965 H 0.72986 0.04309 0.23836 0.0
H1966 H 0.79077 0.03511 0.21321 0.0
H1967 H 0.77091 0.03586 0.2257 0.0
C1968 C 0.93813 0.76641 0.79599 0.0
C1969 C 0.94646 0.77702 0.79743 0.0
C1970 C 0.93855 0.75885 0.78482 0.0
C1971 C 0.94809 0.76033 0.75067 0.0
H1972 H 0.9455 0.72301 0.75223 0.0
C1973 C 0.93898 0.72909 0.70545 0.0
C1974 C 0.94628 0.71773 0.70425 0.0
C1975 C 0.93922 0.73619 0.71692 0.0
C1976 C 0.94631 0.73342 0.75165 0.0
H1977 H 0.96188 0.78792 0.78841 0.0
H1978 H 0.96263 0.77471 0.76892 0.0
H1979 H 0.9459 0.73553 0.77222 0.0
H1980 H 0.95952 0.70486 0.7141 0.0
H1981 H 0.95996 0.71728 0.73414 0.0
H1982 H 0.94858 0.75823 0.73012 0.0
C1983 C 0.9557 0.7723 0.77637 0.0
C1984 C 0.94642 0.74059 0.76308 0.0
C1985 C 0.95533 0.77982 0.78757 0.0
C1986 C 0.95378 0.71357 0.71475 0.0
C1987 C 0.95398 0.72065 0.72625 0.0
C1988 C 0.94791 0.75317 0.73925 0.0
C1989 C 0.94725 0.7618 0.77483 0.0
C1990 C 0.94731 0.75413 0.76272 0.0
C1991 C 0.94672 0.73205 0.72744 0.0
C1992 C 0.947 0.73964 0.7396 0.0
H1993 H 0.93118 0.76403 0.80343 0.0
H1994 H 0.93183 0.7509 0.78386 0.0
H1995 H 0.94865 0.77075 0.75007 0.0
H1996 H 0.93308 0.73251 0.69752 0.0
H1997 H 0.9334 0.74485 0.7176 0.0
C1998 C 0.0409 0.7228 0.28997 0.0
C1999 C 0.05273 0.72041 0.29614 0.0
C2000 C 0.0404 0.73042 0.27884 0.0
C2001 C 0.05983 0.7538 0.25946 0.0
H2002 H 0.03554 0.74467 0.23246 0.0
C2003 C 0.06253 0.77449 0.20778 0.0
C2004 C 0.05102 0.77979 0.20297 0.0
C2005 C 0.06249 0.76725 0.21917 0.0
C2006 C 0.04231 0.74736 0.23997 0.0
H2007 H 0.07331 0.72405 0.29552 0.0
H2008 H 0.07256 0.73691 0.27588 0.0
H2009 H 0.03603 0.73215 0.2524 0.0
H2010 H 0.03039 0.78142 0.20607 0.0
H2011 H 0.03029 0.76847 0.22585 0.0
H2012 H 0.06636 0.76876 0.24675 0.0
C2013 C 0.06358 0.73327 0.27978 0.0
C2014 C 0.04256 0.74025 0.25144 0.0
C2015 C 0.06404 0.72582 0.29102 0.0
C2016 C 0.03941 0.77745 0.20957 0.0
C2017 C 0.03934 0.77003 0.22085 0.0
C2018 C 0.05971 0.76077 0.24792 0.0
C2019 C 0.05176 0.73565 0.2735 0.0
C2020 C 0.05133 0.74337 0.26135 0.0
C2021 C 0.05091 0.765 0.22583 0.0
C2022 C 0.05095 0.75761 0.23807 0.0
H2023 H 0.03201 0.7188 0.29376 0.0
H2024 H 0.03109 0.73223 0.27446 0.0
H2025 H 0.06653 0.75669 0.26694 0.0
H2026 H 0.07163 0.77616 0.20291 0.0
H2027 H 0.07152 0.76339 0.22276 0.0
C2028 C 0.56504 0.77823 0.71032 0.0
C2029 C 0.5533 0.78225 0.70489 0.0
C2030 C 0.56524 0.77151 0.72201 0.0
C2031 C 0.54473 0.76384 0.75063 0.0
H2032 H 0.57044 0.73721 0.75617 0.0
C2033 C 0.54232 0.72572 0.79149 0.0
C2034 C 0.55372 0.72367 0.79854 0.0
C2035 C 0.54236 0.73366 0.78058 0.0
C2036 C 0.56329 0.74471 0.75479 0.0
H2037 H 0.53253 0.78221 0.70728 0.0
H2038 H 0.53278 0.77002 0.72739 0.0
H2039 H 0.57019 0.74906 0.73585 0.0
H2040 H 0.57406 0.72842 0.79984 0.0
H2041 H 0.57417 0.74212 0.78056 0.0
H2042 H 0.53757 0.75903 0.76945 0.0
C2043 C 0.5419 0.77239 0.72289 0.0
C2044 C 0.56315 0.75155 0.74316 0.0
C2045 C 0.54173 0.77929 0.71129 0.0
C2046 C 0.56513 0.72986 0.7946 0.0
C2047 C 0.56521 0.73763 0.78355 0.0
C2048 C 0.54475 0.75684 0.76217 0.0
C2049 C 0.55367 0.76847 0.72846 0.0
C2050 C 0.55386 0.76122 0.74091 0.0
C2051 C 0.55384 0.73953 0.7764 0.0
C2052 C 0.55403 0.74722 0.76435 0.0
H2053 H 0.57412 0.78049 0.70564 0.0
H2054 H 0.5745 0.76889 0.72608 0.0
H2055 H 0.53759 0.77138 0.7494 0.0
H2056 H 0.53339 0.72108 0.79432 0.0
H2057 H 0.53349 0.73491 0.77519 0.0
C2058 C 0.43148 0.7257 0.21146 0.0
C2059 C 0.44271 0.71972 0.20684 0.0
C2060 C 0.43161 0.73237 0.22319 0.0
C2061 C 0.45108 0.73653 0.25326 0.0
H2062 H 0.42976 0.76703 0.25729 0.0
C2063 C 0.45629 0.77347 0.29506 0.0
C2064 C 0.4448 0.77723 0.3012 0.0
C2065 C 0.45593 0.76576 0.28398 0.0
C2066 C 0.43568 0.75846 0.25632 0.0
H2067 H 0.46296 0.71619 0.2107 0.0
H2068 H 0.46338 0.72827 0.23086 0.0
H2069 H 0.42955 0.75534 0.23689 0.0
H2070 H 0.42393 0.77577 0.30068 0.0
H2071 H 0.42329 0.7625 0.28114 0.0
H2072 H 0.45751 0.74005 0.27263 0.0
C2073 C 0.45432 0.7275 0.22571 0.0
C2074 C 0.43553 0.75171 0.24465 0.0
C2075 C 0.45412 0.72065 0.21408 0.0
C2076 C 0.43294 0.77299 0.29617 0.0
C2077 C 0.43257 0.76547 0.28496 0.0
C2078 C 0.45137 0.74342 0.26487 0.0
C2079 C 0.44304 0.7334 0.23048 0.0
C2080 C 0.44321 0.74062 0.24295 0.0
C2081 C 0.44405 0.76186 0.27872 0.0
C2082 C 0.44364 0.75442 0.26651 0.0
H2083 H 0.42251 0.72505 0.20612 0.0
H2084 H 0.42266 0.73655 0.22662 0.0
H2085 H 0.45693 0.72791 0.25246 0.0
H2086 H 0.46557 0.7766 0.29874 0.0
H2087 H 0.46491 0.76317 0.27931 0.0
C2088 C 0.27316 0.70495 0.06553 0.0
C2089 C 0.27736 0.69969 0.05376 0.0
C2090 C 0.26577 0.71624 0.06572 0.0
C2091 C 0.24354 0.73587 0.04701 0.0
H2092 H 0.25601 0.76452 0.06764 0.0
C2093 C 0.21985 0.78618 0.04398 0.0
C2094 C 0.21936 0.79374 0.05521 0.0
C2095 C 0.22692 0.77469 0.04378 0.0
C2096 C 0.25222 0.75657 0.062 0.0
H2097 H 0.27684 0.70186 0.03295 0.0
H2098 H 0.26356 0.72143 0.03329 0.0
H2099 H 0.26784 0.74419 0.06756 0.0
H2100 H 0.22569 0.7952 0.07508 0.0
H2101 H 0.23755 0.77489 0.07496 0.0
H2102 H 0.2277 0.74797 0.04174 0.0
C2103 C 0.26612 0.71687 0.04235 0.0
C2104 C 0.25907 0.74495 0.06192 0.0
C2105 C 0.27373 0.70571 0.04216 0.0
C2106 C 0.226 0.78959 0.06626 0.0
C2107 C 0.23288 0.77797 0.06614 0.0
C2108 C 0.23655 0.74742 0.04727 0.0
C2109 C 0.26225 0.72232 0.05414 0.0
C2110 C 0.25482 0.73453 0.05438 0.0
C2111 C 0.23346 0.77036 0.05488 0.0
C2112 C 0.24083 0.75797 0.05472 0.0
H2113 H 0.27586 0.70054 0.07462 0.0
H2114 H 0.26282 0.72023 0.07493 0.0
H2115 H 0.24002 0.72792 0.0412 0.0
H2116 H 0.21489 0.78921 0.03529 0.0
H2117 H 0.22734 0.76929 0.03484 0.0
C2118 C 0.77831 0.70983 0.54488 0.0
C2119 C 0.78129 0.70343 0.55646 0.0
C2120 C 0.77083 0.72105 0.54502 0.0
C2121 C 0.76242 0.74872 0.56451 0.0
H2122 H 0.73124 0.75058 0.54391 0.0
C2123 C 0.7278 0.7923 0.56801 0.0
C2124 C 0.72115 0.79608 0.55684 0.0
C2125 C 0.73507 0.78093 0.56812 0.0
C2126 C 0.74003 0.75037 0.54955 0.0
H2127 H 0.77898 0.70379 0.57725 0.0
H2128 H 0.76619 0.72369 0.57751 0.0
H2129 H 0.74427 0.73101 0.54356 0.0
H2130 H 0.7171 0.79118 0.53692 0.0
H2131 H 0.73025 0.77173 0.53684 0.0
H2132 H 0.75859 0.76818 0.57014 0.0
C2133 C 0.76953 0.7199 0.56835 0.0
C2134 C 0.74743 0.73909 0.5494 0.0
C2135 C 0.77678 0.70852 0.56819 0.0
C2136 C 0.72204 0.78841 0.54571 0.0
C2137 C 0.72952 0.77719 0.54572 0.0
C2138 C 0.75517 0.7601 0.56447 0.0
C2139 C 0.76644 0.72622 0.55676 0.0
C2140 C 0.75865 0.73817 0.55691 0.0
C2141 C 0.73606 0.77321 0.55696 0.0
C2142 C 0.74384 0.76109 0.55701 0.0
H2143 H 0.78165 0.70609 0.5357 0.0
H2144 H 0.7686 0.72581 0.53597 0.0
H2145 H 0.77112 0.74825 0.57029 0.0
H2146 H 0.72718 0.798 0.57676 0.0
H2147 H 0.73974 0.77811 0.57703 0.0
C2148 C 0.22056 0.71061 0.45796 0.0
C2149 C 0.21968 0.70334 0.44654 0.0
C2150 C 0.22772 0.72204 0.45825 0.0
C2151 C 0.23902 0.74829 0.43793 0.0
H2152 H 0.26521 0.75361 0.46413 0.0
C2153 C 0.27423 0.79134 0.43566 0.0
C2154 C 0.27859 0.79679 0.44728 0.0
C2155 C 0.26675 0.78012 0.43575 0.0
C2156 C 0.25778 0.75243 0.45688 0.0
H2157 H 0.22551 0.70232 0.42647 0.0
H2158 H 0.2378 0.7225 0.42691 0.0
H2159 H 0.25267 0.7337 0.46406 0.0
H2160 H 0.27826 0.79503 0.46811 0.0
H2161 H 0.26474 0.77577 0.46834 0.0
H2162 H 0.24375 0.7671 0.43093 0.0
C2163 C 0.23302 0.71928 0.43563 0.0
C2164 C 0.25066 0.74097 0.45682 0.0
C2165 C 0.22606 0.70772 0.43541 0.0
C2166 C 0.27509 0.79098 0.459 0.0
C2167 C 0.26743 0.77987 0.45911 0.0
C2168 C 0.24597 0.75985 0.43812 0.0
C2169 C 0.23393 0.72652 0.44706 0.0
C2170 C 0.2413 0.73876 0.44728 0.0
C2171 C 0.26326 0.77419 0.44748 0.0
C2172 C 0.25553 0.76205 0.44754 0.0
H2173 H 0.21575 0.70744 0.46668 0.0
H2174 H 0.22824 0.7275 0.46715 0.0
H2175 H 0.23172 0.74687 0.43057 0.0
H2176 H 0.27688 0.79556 0.42647 0.0
H2177 H 0.26397 0.77595 0.42658 0.0
C2178 C 0.72202 0.71161 0.93139 0.0
C2179 C 0.71599 0.70727 0.94273 0.0
C2180 C 0.72873 0.72335 0.93128 0.0
C2181 C 0.74617 0.74542 0.95248 0.0
H2182 H 0.74014 0.7712 0.92602 0.0
C2183 C 0.7699 0.79548 0.95574 0.0
C2184 C 0.77427 0.80117 0.94425 0.0
C2185 C 0.76212 0.78447 0.95539 0.0
C2186 C 0.74209 0.76405 0.93339 0.0
H2187 H 0.71224 0.71175 0.96284 0.0
H2188 H 0.72414 0.73209 0.96269 0.0
H2189 H 0.72822 0.75086 0.92546 0.0
H2190 H 0.7738 0.79995 0.92338 0.0
H2191 H 0.76059 0.7805 0.92272 0.0
H2192 H 0.76028 0.75827 0.96025 0.0
C2193 C 0.72364 0.72646 0.95389 0.0
C2194 C 0.73522 0.75242 0.93307 0.0
C2195 C 0.71679 0.71485 0.95395 0.0
C2196 C 0.7705 0.79581 0.93239 0.0
C2197 C 0.76286 0.78467 0.93203 0.0
C2198 C 0.75317 0.75694 0.95271 0.0
C2199 C 0.72969 0.73082 0.94257 0.0
C2200 C 0.73714 0.74304 0.94266 0.0
C2201 C 0.75869 0.77875 0.94354 0.0
C2202 C 0.75117 0.76647 0.94322 0.0
H2203 H 0.72154 0.70596 0.9226 0.0
H2204 H 0.73337 0.72647 0.92245 0.0
H2205 H 0.74796 0.73827 0.9599 0.0
H2206 H 0.77259 0.79947 0.96503 0.0
H2207 H 0.75885 0.7804 0.96445 0.0
C2208 C 0.29628 0.53432 0.53583 0.0
C2209 C 0.30323 0.54543 0.53232 0.0
C2210 C 0.29695 0.52316 0.52831 0.0
C2211 C 0.30405 0.51174 0.49554 0.0
H2212 H 0.30725 0.47836 0.51222 0.0
C2213 C 0.29609 0.46369 0.4684 0.0
C2214 C 0.30499 0.45374 0.47081 0.0
C2215 C 0.29618 0.47491 0.47589 0.0
C2216 C 0.30644 0.48761 0.50741 0.0
H2217 H 0.3163 0.55359 0.51817 0.0
H2218 H 0.31743 0.53404 0.50494 0.0
H2219 H 0.30723 0.49797 0.52528 0.0
H2220 H 0.32088 0.44768 0.48301 0.0
H2221 H 0.321 0.46726 0.49614 0.0
H2222 H 0.30329 0.50137 0.47767 0.0
C2223 C 0.31144 0.53401 0.51351 0.0
C2224 C 0.30631 0.49883 0.5149 0.0
C2225 C 0.31084 0.54517 0.5211 0.0
C2226 C 0.31388 0.45517 0.48095 0.0
C2227 C 0.31392 0.46636 0.48849 0.0
C2228 C 0.30409 0.50051 0.48806 0.0
C2229 C 0.30452 0.52288 0.51706 0.0
C2230 C 0.30506 0.51101 0.50905 0.0
C2231 C 0.30512 0.47638 0.486 0.0
C2232 C 0.30524 0.48832 0.49392 0.0
H2233 H 0.29032 0.53423 0.54442 0.0
H2234 H 0.29138 0.5148 0.5312 0.0
H2235 H 0.30297 0.52098 0.49077 0.0
H2236 H 0.28913 0.46286 0.46065 0.0
H2237 H 0.28918 0.48239 0.47385 0.0
C2238 C 0.79249 0.46007 0.96787 0.0
C2239 C 0.8007 0.44976 0.97105 0.0
C2240 C 0.79251 0.47137 0.97524 0.0
C2241 C 0.80122 0.48446 0.00713 0.0
H2242 H 0.80149 0.51735 0.98922 0.0
C2243 C 0.7944 0.53304 0.0336 0.0
C2244 C 0.80273 0.54316 0.03009 0.0
C2245 C 0.79404 0.52165 0.02639 0.0
C2246 C 0.80148 0.50824 0.99436 0.0
H2247 H 0.8152 0.44308 0.98459 0.0
H2248 H 0.81519 0.46282 0.99752 0.0
H2249 H 0.80108 0.49731 0.97682 0.0
H2250 H 0.81712 0.54933 0.01621 0.0
H2251 H 0.81645 0.52941 0.00356 0.0
H2252 H 0.80174 0.4954 0.02467 0.0
C2253 C 0.8087 0.46214 0.98934 0.0
C2254 C 0.80111 0.49677 0.98726 0.0
C2255 C 0.80874 0.45086 0.98192 0.0
C2256 C 0.81059 0.54171 0.01913 0.0
C2257 C 0.81017 0.53033 0.01187 0.0
C2258 C 0.80149 0.49594 0.01423 0.0
C2259 C 0.80068 0.47257 0.986 0.0
C2260 C 0.80099 0.48475 0.99357 0.0
C2261 C 0.80194 0.52014 0.01547 0.0
C2262 C 0.80164 0.50796 0.00792 0.0
H2263 H 0.78617 0.4595 0.95955 0.0
H2264 H 0.7861 0.47917 0.97252 0.0
H2265 H 0.80104 0.47535 0.01227 0.0
H2266 H 0.78822 0.53388 0.04199 0.0
H2267 H 0.78749 0.51404 0.02932 0.0
C2268 C 0.28889 0.5401 0.22292 0.0
C2269 C 0.29517 0.55187 0.22046 0.0
C2270 C 0.27751 0.53981 0.23018 0.0
C2271 C 0.24973 0.55955 0.23885 0.0
H2272 H 0.24555 0.53589 0.26754 0.0
C2273 C 0.20626 0.56288 0.2735 0.0
C2274 C 0.20143 0.55146 0.27895 0.0
C2275 C 0.2175 0.56269 0.26605 0.0
C2276 C 0.24643 0.54241 0.25941 0.0
H2277 H 0.29453 0.57254 0.22368 0.0
H2278 H 0.27451 0.57205 0.23618 0.0
H2279 H 0.26564 0.5359 0.25527 0.0
H2280 H 0.2043 0.53081 0.28057 0.0
H2281 H 0.22362 0.53034 0.26715 0.0
H2282 H 0.23048 0.56588 0.24268 0.0
C2283 C 0.27843 0.56306 0.23253 0.0
C2284 C 0.25799 0.54245 0.25245 0.0
C2285 C 0.28991 0.56333 0.22546 0.0
C2286 C 0.20786 0.53978 0.27654 0.0
C2287 C 0.219 0.53954 0.26894 0.0
C2288 C 0.2381 0.55939 0.24568 0.0
C2289 C 0.2721 0.55131 0.23492 0.0
C2290 C 0.25978 0.55109 0.24217 0.0
C2291 C 0.22408 0.55102 0.26372 0.0
C2292 C 0.23632 0.55089 0.25613 0.0
H2293 H 0.29273 0.53112 0.21918 0.0
H2294 H 0.27277 0.53064 0.23184 0.0
H2295 H 0.25081 0.56619 0.23084 0.0
H2296 H 0.20155 0.57205 0.27527 0.0
H2297 H 0.2212 0.57176 0.2624 0.0
C2298 C 0.18177 0.9599 0.52475 0.0
C2299 C 0.19301 0.95641 0.53146 0.0
C2300 C 0.18135 0.97137 0.51762 0.0
C2301 C 0.19866 0.00269 0.51348 0.0
H2302 H 0.18005 0.00376 0.48102 0.0
C2303 C 0.20564 0.04246 0.47495 0.0
C2304 C 0.19441 0.04775 0.46951 0.0
C2305 C 0.20487 0.03183 0.48323 0.0
C2306 C 0.18517 0.00362 0.49013 0.0
H2307 H 0.2127 0.962 0.5358 0.0
H2308 H 0.21217 0.98168 0.52304 0.0
H2309 H 0.17995 0.984 0.49383 0.0
H2310 H 0.17356 0.04617 0.46852 0.0
H2311 H 0.17226 0.02741 0.48284 0.0
H2312 H 0.20425 0.02221 0.50946 0.0
C2313 C 0.2035 0.97586 0.52356 0.0
C2314 C 0.18509 0.99232 0.49751 0.0
C2315 C 0.20386 0.9645 0.53081 0.0
C2316 C 0.18237 0.04231 0.47261 0.0
C2317 C 0.18163 0.03155 0.48073 0.0
C2318 C 0.19889 0.01392 0.50601 0.0
C2319 C 0.19222 0.9795 0.51692 0.0
C2320 C 0.19191 0.99167 0.50925 0.0
C2321 C 0.19288 0.02618 0.48606 0.0
C2322 C 0.19219 0.01447 0.49424 0.0
H2323 H 0.17324 0.95386 0.52515 0.0
H2324 H 0.17243 0.97392 0.5128 0.0
H2325 H 0.20378 0.00269 0.52259 0.0
H2326 H 0.21504 0.04646 0.47273 0.0
H2327 H 0.2137 0.02782 0.48714 0.0
C2328 C 0.70541 0.54037 0.47457 0.0
C2329 C 0.69361 0.54629 0.47154 0.0
C2330 C 0.70573 0.52924 0.4822 0.0
C2331 C 0.68546 0.50948 0.50454 0.0
H2332 H 0.71129 0.48334 0.4974 0.0
C2333 C 0.68402 0.45772 0.52564 0.0
C2334 C 0.69542 0.45365 0.53174 0.0
C2335 C 0.68383 0.46911 0.51841 0.0
C2336 C 0.70407 0.49061 0.49952 0.0
H2337 H 0.67287 0.54519 0.474 0.0
H2338 H 0.67333 0.52552 0.48683 0.0
H2339 H 0.71079 0.50302 0.48449 0.0
H2340 H 0.71562 0.45812 0.53491 0.0
H2341 H 0.71536 0.47789 0.52195 0.0
H2342 H 0.67852 0.49673 0.5193 0.0
C2343 C 0.68241 0.52963 0.48372 0.0
C2344 C 0.70381 0.50193 0.49219 0.0
C2345 C 0.68213 0.54088 0.47628 0.0
C2346 C 0.70669 0.46106 0.53033 0.0
C2347 C 0.70656 0.47232 0.52289 0.0
C2348 C 0.68559 0.49805 0.51171 0.0
C2349 C 0.69423 0.52364 0.48679 0.0
C2350 C 0.69452 0.51156 0.49462 0.0
C2351 C 0.69511 0.47649 0.51695 0.0
C2352 C 0.69492 0.48854 0.50929 0.0
H2353 H 0.71443 0.54439 0.47111 0.0
H2354 H 0.71503 0.52511 0.48456 0.0
H2355 H 0.67832 0.51674 0.50691 0.0
H2356 H 0.67519 0.45219 0.5266 0.0
H2357 H 0.67491 0.4721 0.51385 0.0
C2358 C 0.70819 0.5649 0.77476 0.0
C2359 C 0.70297 0.55349 0.77991 0.0
C2360 C 0.71966 0.56457 0.76767 0.0
C2361 C 0.74001 0.54387 0.74785 0.0
H2362 H 0.76769 0.56712 0.7576 0.0
C2363 C 0.79015 0.54078 0.72382 0.0
C2364 C 0.79676 0.55238 0.72152 0.0
C2365 C 0.77895 0.54066 0.73135 0.0
C2366 C 0.76002 0.56069 0.75459 0.0
H2367 H 0.70546 0.53276 0.78143 0.0
H2368 H 0.72538 0.53217 0.76872 0.0
H2369 H 0.74736 0.56758 0.76944 0.0
H2370 H 0.79688 0.57296 0.72526 0.0
H2371 H 0.77713 0.57288 0.73797 0.0
H2372 H 0.75238 0.53724 0.73274 0.0
C2373 C 0.72063 0.54135 0.77029 0.0
C2374 C 0.7484 0.56093 0.76143 0.0
C2375 C 0.70927 0.5417 0.77758 0.0
C2376 C 0.79203 0.56385 0.72696 0.0
C2377 C 0.78073 0.56378 0.73432 0.0
C2378 C 0.75156 0.54377 0.74086 0.0
C2379 C 0.726 0.55281 0.76541 0.0
C2380 C 0.7383 0.55252 0.75813 0.0
C2381 C 0.77399 0.55219 0.73658 0.0
C2382 C 0.76174 0.55217 0.74414 0.0
H2383 H 0.70356 0.57412 0.77644 0.0
H2384 H 0.72356 0.57352 0.76392 0.0
H2385 H 0.73232 0.53737 0.74504 0.0
H2386 H 0.79364 0.53178 0.7198 0.0
H2387 H 0.77422 0.53151 0.73308 0.0
C2388 C 0.52631 0.31503 0.53683 0.0
C2389 C 0.53136 0.30366 0.54223 0.0
C2390 C 0.51946 0.31461 0.5252 0.0
C2391 C 0.49999 0.29354 0.50485 0.0
H2392 H 0.50939 0.31677 0.47705 0.0
C2393 C 0.47573 0.28963 0.45499 0.0
C2394 C 0.47304 0.30114 0.44838 0.0
C2395 C 0.48353 0.28973 0.466 0.0
C2396 C 0.50649 0.31033 0.48475 0.0
H2397 H 0.53304 0.28294 0.53986 0.0
H2398 H 0.52079 0.28218 0.51968 0.0
H2399 H 0.52119 0.31756 0.49741 0.0
H2400 H 0.47648 0.32177 0.44796 0.0
H2401 H 0.48968 0.32206 0.46742 0.0
H2402 H 0.48503 0.28657 0.49251 0.0
C2403 C 0.52223 0.29141 0.5244 0.0
C2404 C 0.5133 0.31077 0.4964 0.0
C2405 C 0.52925 0.29185 0.53591 0.0
C2406 C 0.47848 0.31273 0.45283 0.0
C2407 C 0.48611 0.31287 0.46397 0.0
C2408 C 0.49304 0.29323 0.49329 0.0
C2409 C 0.51736 0.3028 0.51888 0.0
C2410 C 0.51013 0.30236 0.50654 0.0
C2411 C 0.48863 0.30138 0.4708 0.0
C2412 C 0.49621 0.3016 0.48305 0.0
H2413 H 0.52781 0.32428 0.54147 0.0
H2414 H 0.51572 0.32352 0.52119 0.0
H2415 H 0.49726 0.28704 0.51258 0.0
H2416 H 0.47174 0.28054 0.45171 0.0
H2417 H 0.48549 0.28064 0.47078 0.0
C2418 C 0.52285 0.18503 0.95819 0.0
C2419 C 0.52802 0.19658 0.95333 0.0
C2420 C 0.5152 0.18511 0.96929 0.0
C2421 C 0.49394 0.20499 0.98891 0.0
H2422 H 0.5036 0.18217 0.01696 0.0
C2423 C 0.46861 0.20738 0.03854 0.0
C2424 C 0.46695 0.19581 0.0454 0.0
C2425 C 0.47607 0.20765 0.0273 0.0
C2426 C 0.50059 0.18845 0.00917 0.0
H2427 H 0.52901 0.21731 0.95605 0.0
H2428 H 0.5153 0.21747 0.97533 0.0
H2429 H 0.51616 0.18216 0.99709 0.0
H2430 H 0.47153 0.17541 0.04579 0.0
H2431 H 0.48406 0.17572 0.02592 0.0
H2432 H 0.47813 0.21102 0.0007 0.0
C2433 C 0.51729 0.20837 0.97058 0.0
C2434 C 0.50786 0.18848 0.99781 0.0
C2435 C 0.52514 0.20826 0.95959 0.0
C2436 C 0.47276 0.18449 0.04075 0.0
C2437 C 0.48003 0.18471 0.02939 0.0
C2438 C 0.48652 0.20481 0.00018 0.0
C2439 C 0.51239 0.19677 0.97561 0.0
C2440 C 0.50462 0.19676 0.9876 0.0
C2441 C 0.48185 0.19631 0.02253 0.0
C2442 C 0.48975 0.19654 0.01049 0.0
H2443 H 0.52494 0.17588 0.95357 0.0
H2444 H 0.51145 0.17605 0.97294 0.0
H2445 H 0.4912 0.21139 0.98111 0.0
H2446 H 0.4643 0.21627 0.04197 0.0
H2447 H 0.47743 0.21681 0.02246 0.0
C2448 C 0.5221 0.68298 0.45174 0.0
C2449 C 0.52537 0.69504 0.44647 0.0
C2450 C 0.51402 0.6822 0.46252 0.0
C2451 C 0.48949 0.6996 0.48119 0.0
H2452 H 0.50236 0.67978 0.51022 0.0
C2453 C 0.46613 0.70307 0.53164 0.0
C2454 C 0.46581 0.69194 0.53938 0.0
C2455 C 0.47296 0.70312 0.52001 0.0
C2456 C 0.49847 0.68517 0.50216 0.0
H2457 H 0.52239 0.71569 0.448 0.0
H2458 H 0.50805 0.71431 0.4667 0.0
H2459 H 0.5145 0.68018 0.4901 0.0
H2460 H 0.4722 0.67209 0.54094 0.0
H2461 H 0.48374 0.672 0.52044 0.0
H2462 H 0.47334 0.70445 0.4931 0.0
C2463 C 0.51179 0.70548 0.46253 0.0
C2464 C 0.50547 0.68543 0.49063 0.0
C2465 C 0.52002 0.70627 0.45187 0.0
C2466 C 0.47236 0.68084 0.53521 0.0
C2467 C 0.47905 0.68083 0.52349 0.0
C2468 C 0.48238 0.69921 0.49266 0.0
C2469 C 0.50891 0.69345 0.46811 0.0
C2470 C 0.5011 0.69272 0.48008 0.0
C2471 C 0.47949 0.69199 0.51574 0.0
C2472 C 0.48683 0.69208 0.50335 0.0
H2473 H 0.5261 0.67416 0.44779 0.0
H2474 H 0.51186 0.6728 0.46657 0.0
H2475 H 0.48585 0.70521 0.47315 0.0
H2476 H 0.46123 0.7118 0.53466 0.0
H2477 H 0.47326 0.71198 0.51447 0.0
C2478 C 0.4693 0.79601 0.96012 0.0
C2479 C 0.46776 0.80728 0.95274 0.0
C2480 C 0.4768 0.79614 0.97131 0.0
C2481 C 0.48863 0.81685 0.99702 0.0
H2482 H 0.51542 0.79103 0.00112 0.0
C2483 C 0.52449 0.81817 0.03977 0.0
C2484 C 0.52888 0.80637 0.04478 0.0
C2485 C 0.51696 0.81847 0.02857 0.0
C2486 C 0.50784 0.79818 0.00028 0.0
H2487 H 0.47268 0.82757 0.95134 0.0
H2488 H 0.4856 0.82787 0.97117 0.0
H2489 H 0.5023 0.7912 0.98161 0.0
H2490 H 0.52858 0.78561 0.04226 0.0
H2491 H 0.515 0.78604 0.02307 0.0
H2492 H 0.49379 0.82361 0.01582 0.0
C2493 C 0.48106 0.81893 0.96819 0.0
C2494 C 0.5004 0.79831 0.98904 0.0
C2495 C 0.47373 0.81874 0.95685 0.0
C2496 C 0.5254 0.79486 0.03855 0.0
C2497 C 0.5177 0.79513 0.02747 0.0
C2498 C 0.49593 0.8166 0.00837 0.0
C2499 C 0.48274 0.8076 0.97546 0.0
C2500 C 0.49073 0.80764 0.98731 0.0
C2501 C 0.51349 0.80695 0.02224 0.0
C2502 C 0.50565 0.80725 0.01016 0.0
H2503 H 0.46482 0.78703 0.95717 0.0
H2504 H 0.47788 0.78731 0.97681 0.0
H2505 H 0.48113 0.82406 0.99595 0.0
H2506 H 0.52712 0.8272 0.04433 0.0
H2507 H 0.51411 0.82777 0.02475 0.0
C2508 C 0.4554 0.97492 0.79171 0.0
C2509 C 0.44941 0.97121 0.8033 0.0
C2510 C 0.46636 0.98281 0.79191 0.0
C2511 C 0.49397 0.99088 0.81196 0.0
H2512 H 0.49705 0.02144 0.79058 0.0
C2513 C 0.53779 0.02488 0.81631 0.0
C2514 C 0.54239 0.03087 0.80507 0.0
C2515 C 0.52623 0.01794 0.81613 0.0
C2516 C 0.49646 0.01282 0.79647 0.0
H2517 H 0.45007 0.97291 0.82415 0.0
H2518 H 0.46938 0.98648 0.82449 0.0
H2519 H 0.4772 0.00875 0.79002 0.0
H2520 H 0.53863 0.03419 0.78477 0.0
H2521 H 0.51873 0.02165 0.78426 0.0
H2522 H 0.5133 0.99456 0.81811 0.0
C2523 C 0.46555 0.98334 0.81527 0.0
C2524 C 0.48505 0.00562 0.79618 0.0
C2525 C 0.45448 0.97564 0.81507 0.0
C2526 C 0.53526 0.02973 0.7936 0.0
C2527 C 0.5238 0.02261 0.79335 0.0
C2528 C 0.50545 0.99795 0.81209 0.0
C2529 C 0.47164 0.98693 0.8037 0.0
C2530 C 0.48369 0.99462 0.80397 0.0
C2531 C 0.51909 0.01664 0.80463 0.0
C2532 C 0.50685 0.00906 0.80439 0.0
H2533 H 0.45169 0.97165 0.7825 0.0
H2534 H 0.47092 0.98539 0.78286 0.0
H2535 H 0.49323 0.98232 0.81792 0.0
H2536 H 0.54304 0.0257 0.82532 0.0
H2537 H 0.52282 0.01373 0.82506 0.0
C2538 C 0.53893 0.52856 0.29338 0.0
C2539 C 0.54551 0.5313 0.30492 0.0
C2540 C 0.52808 0.52055 0.29344 0.0
C2541 C 0.50157 0.50976 0.31354 0.0
H2542 H 0.49975 0.48027 0.29057 0.0
C2543 C 0.45955 0.47339 0.31651 0.0
C2544 C 0.45515 0.46776 0.30501 0.0
C2545 C 0.47077 0.48087 0.31661 0.0
C2546 C 0.49997 0.48857 0.2969 0.0
H2547 H 0.54587 0.52795 0.32557 0.0
H2548 H 0.52664 0.51419 0.32572 0.0
H2549 H 0.51882 0.49407 0.29035 0.0
H2550 H 0.45889 0.46561 0.28455 0.0
H2551 H 0.47813 0.47911 0.28454 0.0
H2552 H 0.4826 0.50469 0.3198 0.0
C2553 C 0.52999 0.51815 0.31663 0.0
C2554 C 0.51095 0.49642 0.29681 0.0
C2555 C 0.54099 0.52596 0.31654 0.0
C2556 C 0.46213 0.46977 0.29358 0.0
C2557 C 0.47323 0.47745 0.29361 0.0
C2558 C 0.49049 0.50207 0.31348 0.0
C2559 C 0.52348 0.51534 0.30508 0.0
C2560 C 0.51185 0.50704 0.30516 0.0
C2561 C 0.47773 0.4831 0.30514 0.0
C2562 C 0.48954 0.49133 0.30519 0.0
H2563 H 0.54223 0.53252 0.28429 0.0
H2564 H 0.52317 0.51856 0.28443 0.0
H2565 H 0.50201 0.518 0.31998 0.0
H2566 H 0.4544 0.4719 0.32549 0.0
H2567 H 0.47404 0.4848 0.32572 0.0
C2568 C 0.54233 0.97653 0.18314 0.0
C2569 C 0.54669 0.96997 0.19418 0.0
C2570 C 0.5307 0.98336 0.18341 0.0
C2571 C 0.50897 0.00057 0.20481 0.0
H2572 H 0.48283 0.99415 0.1788 0.0
C2573 C 0.45916 0.02535 0.20729 0.0
C2574 C 0.45335 0.02899 0.1956 0.0
C2575 C 0.4702 0.01759 0.2073 0.0
C2576 C 0.49008 0.99624 0.18603 0.0
H2577 H 0.54245 0.96554 0.21419 0.0
H2578 H 0.52227 0.97781 0.21475 0.0
H2579 H 0.50301 0.98206 0.17827 0.0
H2580 H 0.45451 0.02745 0.17478 0.0
H2581 H 0.47402 0.01439 0.17473 0.0
H2582 H 0.49639 0.01507 0.21232 0.0
C2583 C 0.52779 0.97753 0.20588 0.0
C2584 C 0.50161 0.98924 0.18574 0.0
C2585 C 0.53929 0.97049 0.20553 0.0
C2586 C 0.45873 0.02469 0.18394 0.0
C2587 C 0.46989 0.01712 0.18394 0.0
C2588 C 0.49754 0.00774 0.20497 0.0
C2589 C 0.52337 0.98397 0.1948 0.0
C2590 C 0.51114 0.99134 0.19513 0.0
C2591 C 0.47582 0.01349 0.19562 0.0
C2592 C 0.48792 0.00567 0.19558 0.0
H2593 H 0.54783 0.97626 0.17425 0.0
H2594 H 0.52751 0.98832 0.17478 0.0
H2595 H 0.51624 0.00244 0.21209 0.0
H2596 H 0.45515 0.02848 0.21643 0.0
H2597 H 0.47429 0.01479 0.2165 0.0
C2598 C 0.53646 0.46965 0.70615 0.0
C2599 C 0.54398 0.46891 0.69489 0.0
C2600 C 0.52495 0.4767 0.70623 0.0
C2601 C 0.49898 0.4881 0.68558 0.0
H2602 H 0.4936 0.51442 0.71164 0.0
C2603 C 0.45613 0.5237 0.68295 0.0
C2604 C 0.45082 0.5283 0.69454 0.0
C2605 C 0.46722 0.51601 0.68309 0.0
C2606 C 0.49478 0.50695 0.70443 0.0
H2607 H 0.54532 0.4748 0.67486 0.0
H2608 H 0.525 0.48687 0.67492 0.0
H2609 H 0.51339 0.50173 0.71183 0.0
H2610 H 0.4526 0.5281 0.71537 0.0
H2611 H 0.47155 0.51421 0.7157 0.0
H2612 H 0.48028 0.49295 0.67836 0.0
C2613 C 0.52809 0.48208 0.68369 0.0
C2614 C 0.50618 0.49974 0.70451 0.0
C2615 C 0.53973 0.47525 0.68368 0.0
C2616 C 0.45657 0.52477 0.70628 0.0
C2617 C 0.46751 0.51689 0.70645 0.0
C2618 C 0.48746 0.49514 0.68563 0.0
C2619 C 0.52064 0.48292 0.69498 0.0
C2620 C 0.50842 0.49033 0.69504 0.0
C2621 C 0.47312 0.51255 0.69485 0.0
C2622 C 0.48523 0.50474 0.695 0.0
H2623 H 0.53952 0.46487 0.71494 0.0
H2624 H 0.51933 0.47716 0.71504 0.0
H2625 H 0.50044 0.48079 0.67825 0.0
H2626 H 0.45194 0.52637 0.67375 0.0
H2627 H 0.47133 0.51308 0.67395 0.0
C2628 C 0.70986 0.95735 0.72005 0.0
C2629 C 0.70291 0.94584 0.71829 0.0
C2630 C 0.72104 0.95751 0.72761 0.0
C2631 C 0.74732 0.93697 0.73863 0.0
H2632 H 0.75212 0.9626 0.76548 0.0
C2633 C 0.79016 0.93445 0.77414 0.0
C2634 C 0.7955 0.94605 0.77866 0.0
C2635 C 0.77894 0.93454 0.76664 0.0
C2636 C 0.75107 0.95551 0.75788 0.0
H2637 H 0.70215 0.92547 0.72305 0.0
H2638 H 0.72186 0.92571 0.73609 0.0
H2639 H 0.73233 0.96263 0.75273 0.0
H2640 H 0.79354 0.96687 0.77862 0.0
H2641 H 0.77428 0.96711 0.7651 0.0
H2642 H 0.76614 0.93003 0.74342 0.0
C2643 C 0.7186 0.93461 0.73166 0.0
C2644 C 0.73968 0.9555 0.75064 0.0
C2645 C 0.70731 0.93449 0.72427 0.0
C2646 C 0.78958 0.95777 0.77532 0.0
C2647 C 0.77847 0.95788 0.76766 0.0
C2648 C 0.7588 0.9371 0.74573 0.0
C2649 C 0.72558 0.94611 0.73337 0.0
C2650 C 0.73768 0.94618 0.741 0.0
C2651 C 0.77291 0.94625 0.76331 0.0
C2652 C 0.76081 0.94632 0.75551 0.0
H2653 H 0.70668 0.96624 0.71555 0.0
H2654 H 0.72628 0.96649 0.72872 0.0
H2655 H 0.74608 0.92979 0.73113 0.0
H2656 H 0.79446 0.92525 0.77665 0.0
H2657 H 0.77487 0.92537 0.7637 0.0
C2658 C 0.79245 0.43615 0.27273 0.0
C2659 C 0.79674 0.44733 0.27909 0.0
C2660 C 0.78084 0.43623 0.26586 0.0
C2661 C 0.75888 0.45707 0.24828 0.0
H2662 H 0.73304 0.43093 0.25537 0.0
C2663 C 0.70887 0.45843 0.22377 0.0
C2664 C 0.70316 0.4466 0.22045 0.0
C2665 C 0.72 0.45874 0.2314 0.0
C2666 C 0.74021 0.43819 0.2531 0.0
H2667 H 0.79241 0.4674 0.28312 0.0
H2668 H 0.77224 0.46763 0.27079 0.0
H2669 H 0.75326 0.43091 0.26742 0.0
H2670 H 0.70461 0.42583 0.22238 0.0
H2671 H 0.72427 0.4263 0.23522 0.0
H2672 H 0.74617 0.46411 0.23365 0.0
C2673 C 0.77782 0.45879 0.27125 0.0
C2674 C 0.75176 0.4382 0.26007 0.0
C2675 C 0.78931 0.45864 0.27832 0.0
C2676 C 0.70875 0.4351 0.2249 0.0
C2677 C 0.71999 0.43539 0.23234 0.0
C2678 C 0.74743 0.45694 0.24115 0.0
C2679 C 0.77344 0.44756 0.26504 0.0
C2680 C 0.76118 0.44764 0.25772 0.0
C2681 C 0.72579 0.44722 0.2357 0.0
C2682 C 0.73792 0.4475 0.24345 0.0
H2683 H 0.79798 0.42729 0.27319 0.0
H2684 H 0.7777 0.42748 0.26108 0.0
H2685 H 0.76607 0.46438 0.24623 0.0
H2686 H 0.7047 0.46746 0.22053 0.0
H2687 H 0.724 0.46805 0.23398 0.0
C2688 C 0.02748 0.26891 0.09608 0.0
C2689 C 0.04079 0.27131 0.09676 0.0
C2690 C 0.02224 0.25785 0.1016 0.0
C2691 C 0.026 0.23601 0.12812 0.0
H2692 H 0.9988 0.21742 0.11031 0.0
C2693 C 0.98917 0.20229 0.15432 0.0
C2694 C 0.9764 0.20594 0.15153 0.0
C2695 C 0.99943 0.20713 0.14691 0.0
C2696 C 0.00646 0.22241 0.11539 0.0
H2697 H 0.05914 0.26396 0.10361 0.0
H2698 H 0.04979 0.24456 0.11374 0.0
H2699 H 0.01297 0.2318 0.09818 0.0
H2700 H 0.96431 0.21717 0.13864 0.0
H2701 H 0.98201 0.22544 0.12576 0.0
H2702 H 0.01889 0.22724 0.14549 0.0
C2703 C 0.04351 0.25125 0.10873 0.0
C2704 C 0.01457 0.23061 0.10845 0.0
C2705 C 0.04884 0.26229 0.10293 0.0
C2706 C 0.97405 0.2142 0.14106 0.0
C2707 C 0.98419 0.21885 0.13359 0.0
C2708 C 0.01782 0.2278 0.1351 0.0
C2709 C 0.03014 0.24897 0.1081 0.0
C2710 C 0.02402 0.23794 0.11484 0.0
C2711 C 0.997 0.21546 0.13645 0.0
C2712 C 0.00759 0.22142 0.12887 0.0
H2713 H 0.02105 0.27568 0.09135 0.0
H2714 H 0.01188 0.25645 0.10113 0.0
H2715 H 0.03318 0.2416 0.13327 0.0
H2716 H 0.99123 0.19595 0.16238 0.0
H2717 H 0.00923 0.20441 0.14933 0.0
C2718 C 0.98964 0.29579 0.34493 0.0
C2719 C 0.97716 0.29741 0.34999 0.0
C2720 C 0.99933 0.29005 0.35248 0.0
C2721 C 0.00075 0.26642 0.37837 0.0
H2722 H 0.03707 0.2748 0.38182 0.0
C2723 C 0.03111 0.23714 0.41264 0.0
C2724 C 0.04278 0.23232 0.40781 0.0
C2725 C 0.0249 0.24733 0.40648 0.0
C2726 C 0.02695 0.27234 0.38086 0.0
H2727 H 0.96531 0.29559 0.36712 0.0
H2728 H 0.98215 0.28595 0.38029 0.0
H2729 H 0.02286 0.28889 0.36896 0.0
H2730 H 0.05764 0.23481 0.39334 0.0
H2731 H 0.04647 0.25249 0.38214 0.0
H2732 H 0.00462 0.24985 0.38987 0.0
C2733 C 0.98443 0.2887 0.37045 0.0
C2734 C 0.01886 0.28038 0.37353 0.0
C2735 C 0.9748 0.29424 0.36293 0.0
C2736 C 0.04864 0.23844 0.39723 0.0
C2737 C 0.04226 0.24854 0.39085 0.0
C2738 C 0.00876 0.25845 0.38558 0.0
C2739 C 0.9966 0.28598 0.36515 0.0
C2740 C 0.00562 0.27757 0.37242 0.0
C2741 C 0.03005 0.2527 0.39512 0.0
C2742 C 0.0219 0.26139 0.38713 0.0
H2743 H 0.99167 0.29819 0.33496 0.0
H2744 H 0.00864 0.28807 0.34817 0.0
H2745 H 0.99068 0.26376 0.37736 0.0
H2746 H 0.02651 0.23267 0.42091 0.0
H2747 H 0.0157 0.25058 0.41025 0.0
C2748 C 0.95151 0.23853 0.60092 0.0
C2749 C 0.95982 0.23029 0.59406 0.0
C2750 C 0.95641 0.24956 0.60707 0.0
C2751 C 0.98423 0.27173 0.60727 0.0
H2752 H 0.98102 0.27221 0.64458 0.0
C2753 C 0.02514 0.28717 0.6398 0.0
C2754 C 0.02285 0.29441 0.65102 0.0
C2755 C 0.01492 0.28283 0.63226 0.0
C2756 C 0.98175 0.27247 0.63415 0.0
H2757 H 0.97953 0.22736 0.58769 0.0
H2758 H 0.98796 0.24664 0.59808 0.0
H2759 H 0.96699 0.25812 0.63178 0.0
H2760 H 0.00806 0.30293 0.66311 0.0
H2761 H 0.98995 0.29496 0.64992 0.0
H2762 H 0.99946 0.28547 0.60963 0.0
C2763 C 0.97773 0.24462 0.59883 0.0
C2764 C 0.97373 0.26441 0.62683 0.0
C2765 C 0.97292 0.23353 0.59296 0.0
C2766 C 0.01007 0.29737 0.65448 0.0
C2767 C 0.99974 0.29282 0.64698 0.0
C2768 C 0.99219 0.27979 0.61455 0.0
C2769 C 0.96959 0.25265 0.60611 0.0
C2770 C 0.97536 0.26352 0.61339 0.0
C2771 C 0.00211 0.28549 0.63578 0.0
C2772 C 0.99149 0.27974 0.6281 0.0
H2773 H 0.94137 0.23618 0.60194 0.0
H2774 H 0.94997 0.25559 0.61268 0.0
H2775 H 0.98555 0.27135 0.5969 0.0
H2776 H 0.03488 0.28476 0.63686 0.0
H2777 H 0.01706 0.277 0.62384 0.0
C2778 C 0.95101 0.26022 0.89969 0.0
C2779 C 0.9598 0.26816 0.9063 0.0
C2780 C 0.95539 0.24934 0.89295 0.0
C2781 C 0.98312 0.22713 0.88938 0.0
H2782 H 0.97572 0.22824 0.8527 0.0
C2783 C 0.01303 0.21702 0.84151 0.0
C2784 C 0.01815 0.2047 0.84385 0.0
C2785 C 0.00258 0.22154 0.84869 0.0
C2786 C 0.97771 0.22766 0.86295 0.0
H2787 H 0.97986 0.27061 0.9117 0.0
H2788 H 0.98744 0.25158 0.90021 0.0
H2789 H 0.96355 0.24203 0.8675 0.0
H2790 H 0.01604 0.18718 0.85508 0.0
H2791 H 0.99785 0.19526 0.86794 0.0
H2792 H 0.99779 0.21333 0.88476 0.0
C2793 C 0.97721 0.25373 0.90014 0.0
C2794 C 0.9707 0.23548 0.87142 0.0
C2795 C 0.97288 0.26469 0.90664 0.0
C2796 C 0.01223 0.19671 0.85307 0.0
C2797 C 0.00188 0.20134 0.86044 0.0
C2798 C 0.99004 0.21921 0.88093 0.0
C2799 C 0.96858 0.2461 0.89299 0.0
C2800 C 0.97373 0.23569 0.88464 0.0
C2801 C 0.99714 0.21392 0.85849 0.0
C2802 C 0.98778 0.21982 0.86757 0.0
H2803 H 0.94087 0.26273 0.89927 0.0
H2804 H 0.94855 0.24361 0.88749 0.0
H2805 H 0.98558 0.22705 0.89954 0.0
H2806 H 0.01739 0.22335 0.83442 0.0
H2807 H 0.99926 0.23133 0.84706 0.0
C2808 C 0.02666 0.73176 0.90687 0.0
C2809 C 0.03987 0.72889 0.9062 0.0
C2810 C 0.02182 0.74298 0.90129 0.0
C2811 C 0.02599 0.76391 0.87437 0.0
H2812 H 0.9998 0.78397 0.89207 0.0
C2813 C 0.98859 0.79619 0.84741 0.0
C2814 C 0.97598 0.79245 0.85073 0.0
C2815 C 0.99911 0.79205 0.8549 0.0
C2816 C 0.00721 0.7786 0.88702 0.0
H2817 H 0.05846 0.73552 0.89929 0.0
H2818 H 0.04981 0.75515 0.88898 0.0
H2819 H 0.01391 0.76973 0.90443 0.0
H2820 H 0.9644 0.78194 0.86464 0.0
H2821 H 0.98254 0.77492 0.87764 0.0
H2822 H 0.01858 0.77205 0.85682 0.0
C2823 C 0.04331 0.74874 0.89408 0.0
C2824 C 0.01529 0.77048 0.89409 0.0
C2825 C 0.04824 0.73758 0.89997 0.0
C2826 C 0.97402 0.78493 0.86182 0.0
C2827 C 0.98441 0.78102 0.86935 0.0
C2828 C 0.01784 0.77202 0.86726 0.0
C2829 C 0.03004 0.75149 0.89469 0.0
C2830 C 0.0243 0.76258 0.88776 0.0
C2831 C 0.99708 0.78439 0.86593 0.0
C2832 C 0.00793 0.7789 0.87347 0.0
H2833 H 0.02 0.72526 0.91165 0.0
H2834 H 0.01152 0.74476 0.90174 0.0
H2835 H 0.03284 0.75787 0.86927 0.0
H2836 H 0.99034 0.80197 0.83888 0.0
H2837 H 0.0088 0.79474 0.85203 0.0
C2838 C 0.51048 0.2946 0.15617 0.0
C2839 C 0.52311 0.29034 0.1536 0.0
C2840 C 0.50014 0.2903 0.14853 0.0
C2841 C 0.49295 0.27654 0.11657 0.0
H2842 H 0.46566 0.25696 0.13309 0.0
C2843 C 0.47123 0.23182 0.0942 0.0
C2844 C 0.45797 0.22924 0.09514 0.0
C2845 C 0.47656 0.24256 0.10026 0.0
C2846 C 0.473 0.26268 0.12832 0.0
H2847 H 0.53487 0.27855 0.14091 0.0
H2848 H 0.51702 0.27131 0.12758 0.0
H2849 H 0.48013 0.27031 0.14623 0.0
H2850 H 0.43979 0.23598 0.10296 0.0
H2851 H 0.44928 0.25482 0.11398 0.0
H2852 H 0.48638 0.26836 0.09878 0.0
C2853 C 0.51504 0.27791 0.13545 0.0
C2854 C 0.48127 0.27031 0.13583 0.0
C2855 C 0.52525 0.28197 0.14316 0.0
C2856 C 0.45004 0.23781 0.10206 0.0
C2857 C 0.45546 0.24852 0.10838 0.0
C2858 C 0.48471 0.26897 0.10909 0.0
C2859 C 0.50238 0.28196 0.13805 0.0
C2860 C 0.4917 0.27678 0.13007 0.0
C2861 C 0.46879 0.25093 0.10756 0.0
C2862 C 0.47506 0.26146 0.11496 0.0
H2863 H 0.50858 0.30104 0.16419 0.0
H2864 H 0.49044 0.29351 0.15075 0.0
H2865 H 0.50081 0.2816 0.11187 0.0
H2866 H 0.47757 0.22541 0.0889 0.0
H2867 H 0.48689 0.24403 0.09962 0.0
C2868 C 0.97282 0.76696 0.40658 0.0
C2869 C 0.95966 0.76998 0.40564 0.0
C2870 C 0.97768 0.75579 0.40092 0.0
C2871 C 0.97354 0.73516 0.37358 0.0
H2872 H 0.99966 0.71484 0.3911 0.0
C2873 C 0.01012 0.70224 0.34634 0.0
C2874 C 0.02286 0.70559 0.34958 0.0
C2875 C 0.99978 0.70667 0.3539 0.0
C2876 C 0.99228 0.7203 0.3861 0.0
H2877 H 0.94116 0.76364 0.39821 0.0
H2878 H 0.94984 0.74409 0.38781 0.0
H2879 H 0.98572 0.72916 0.40357 0.0
H2880 H 0.03484 0.71573 0.36343 0.0
H2881 H 0.01701 0.72327 0.37656 0.0
H2882 H 0.98076 0.72697 0.35599 0.0
C2883 C 0.95629 0.75035 0.39315 0.0
C2884 C 0.9843 0.72847 0.39323 0.0
C2885 C 0.95135 0.76147 0.39909 0.0
C2886 C 0.02512 0.71303 0.36066 0.0
C2887 C 0.0149 0.71725 0.36827 0.0
C2888 C 0.98158 0.72699 0.36641 0.0
C2889 C 0.96953 0.74746 0.394 0.0
C2890 C 0.9753 0.73644 0.38697 0.0
C2891 C 0.00211 0.71425 0.36493 0.0
C2892 C 0.99145 0.72 0.37256 0.0
H2893 H 0.97943 0.77333 0.4116 0.0
H2894 H 0.98795 0.75391 0.40156 0.0
H2895 H 0.9667 0.74124 0.36853 0.0
H2896 H 0.00813 0.69652 0.33782 0.0
H2897 H 0.99 0.70426 0.3511 0.0
C2898 C 0.53361 0.27638 0.60725 0.0
C2899 C 0.54225 0.27393 0.59712 0.0
C2900 C 0.52937 0.2664 0.61519 0.0
C2901 C 0.52205 0.23254 0.61566 0.0
H2902 H 0.51898 0.23878 0.65247 0.0
C2903 C 0.48894 0.20185 0.6491 0.0
C2904 C 0.48011 0.20981 0.65562 0.0
C2905 C 0.49981 0.20725 0.64307 0.0
C2906 C 0.5199 0.2368 0.64224 0.0
H2907 H 0.55326 0.2591 0.58729 0.0
H2908 H 0.54546 0.24138 0.60111 0.0
H2909 H 0.53238 0.25299 0.63931 0.0
H2910 H 0.47594 0.22945 0.6615 0.0
H2911 H 0.49483 0.23877 0.65125 0.0
H2912 H 0.50886 0.21683 0.61851 0.0
C2913 C 0.54215 0.25114 0.60293 0.0
C2914 C 0.52755 0.24492 0.63472 0.0
C2915 C 0.54661 0.26124 0.59507 0.0
C2916 C 0.48257 0.22309 0.65651 0.0
C2917 C 0.49346 0.22842 0.65072 0.0
C2918 C 0.51433 0.2244 0.62321 0.0
C2919 C 0.53354 0.25368 0.6131 0.0
C2920 C 0.52821 0.24324 0.62128 0.0
C2921 C 0.50209 0.22062 0.64376 0.0
C2922 C 0.51271 0.22686 0.63647 0.0
H2923 H 0.5301 0.28606 0.6091 0.0
H2924 H 0.52256 0.26862 0.62281 0.0
H2925 H 0.52238 0.23106 0.60532 0.0
H2926 H 0.48721 0.19157 0.64825 0.0
H2927 H 0.50631 0.20104 0.63774 0.0
C2928 C 0.10472 0.0469 0.26656 0.0
C2929 C 0.09438 0.04059 0.27268 0.0
C2930 C 0.11137 0.0408 0.25644 0.0
C2931 C 0.11875 0.0078 0.24715 0.0
H2932 H 0.13112 0.02116 0.21443 0.0
C2933 C 0.13813 0.97327 0.21005 0.0
C2934 C 0.15038 0.97588 0.20492 0.0
C2935 C 0.13123 0.98286 0.21642 0.0
C2936 C 0.12781 0.01739 0.2236 0.0
H2937 H 0.08203 0.02372 0.27228 0.0
H2938 H 0.09333 0.0133 0.25457 0.0
H2939 H 0.11878 0.0353 0.22908 0.0
H2940 H 0.16471 0.99075 0.20163 0.0
H2941 H 0.1526 0.00768 0.21314 0.0
H2942 H 0.12763 0.99001 0.24191 0.0
C2943 C 0.09659 0.02272 0.25774 0.0
C2944 C 0.12077 0.02545 0.23194 0.0
C2945 C 0.0901 0.0287 0.26785 0.0
C2946 C 0.15527 0.98853 0.20553 0.0
C2947 C 0.14835 0.99818 0.21208 0.0
C2948 C 0.12572 0.99984 0.23891 0.0
C2949 C 0.10765 0.02839 0.25234 0.0
C2950 C 0.11591 0.02058 0.24365 0.0
C2951 C 0.13648 0.99525 0.21799 0.0
C2952 C 0.13004 0.00441 0.22691 0.0
H2953 H 0.1082 0.05609 0.27014 0.0
H2954 H 0.11985 0.04539 0.2524 0.0
H2955 H 0.11549 0.00389 0.25629 0.0
H2956 H 0.13404 0.96366 0.20952 0.0
H2957 H 0.12196 0.98041 0.2206 0.0
C2958 C 0.22368 0.34389 0.51929 0.0
C2959 C 0.21034 0.34426 0.5216 0.0
C2960 C 0.22883 0.34939 0.50817 0.0
C2961 C 0.22458 0.37569 0.48629 0.0
H2962 H 0.25232 0.35851 0.46793 0.0
C2963 C 0.26168 0.40278 0.45356 0.0
C2964 C 0.27437 0.40021 0.45763 0.0
C2965 C 0.2514 0.39515 0.45803 0.0
C2966 C 0.24449 0.36341 0.47284 0.0
H2967 H 0.19187 0.35052 0.51407 0.0
H2968 H 0.20105 0.36066 0.49459 0.0
H2969 H 0.23821 0.34603 0.48206 0.0
H2970 H 0.28631 0.38748 0.4692 0.0
H2971 H 0.2686 0.37423 0.4768 0.0
H2972 H 0.23149 0.39325 0.47774 0.0
C2973 C 0.20741 0.35588 0.50137 0.0
C2974 C 0.23642 0.35627 0.48089 0.0
C2975 C 0.20219 0.35008 0.51245 0.0
C2976 C 0.27664 0.38974 0.46592 0.0
C2977 C 0.26649 0.38206 0.47018 0.0
C2978 C 0.23272 0.38288 0.47822 0.0
C2979 C 0.2208 0.35559 0.49919 0.0
C2980 C 0.22681 0.36244 0.48818 0.0
C2981 C 0.25376 0.38469 0.46637 0.0
C2982 C 0.24315 0.37688 0.47195 0.0
H2983 H 0.23018 0.33943 0.52616 0.0
H2984 H 0.2392 0.3492 0.50683 0.0
H2985 H 0.21726 0.38068 0.49185 0.0
H2986 H 0.25968 0.41082 0.44718 0.0
H2987 H 0.24165 0.39741 0.455 0.0
C2988 C 0.86037 0.52409 0.71603 0.0
C2989 C 0.84971 0.52169 0.70803 0.0
C2990 C 0.86805 0.51398 0.7204 0.0
C2991 C 0.86707 0.48044 0.72937 0.0
H2992 H 0.90408 0.48549 0.73203 0.0
C2993 C 0.90019 0.45013 0.76339 0.0
C2994 C 0.90664 0.45833 0.77207 0.0
C2995 C 0.89415 0.45524 0.75239 0.0
C2996 C 0.89379 0.48383 0.73122 0.0
H2997 H 0.83873 0.50682 0.69822 0.0
H2998 H 0.85213 0.48889 0.70625 0.0
H2999 H 0.89139 0.49946 0.71795 0.0
H3000 H 0.91233 0.47811 0.77584 0.0
H3001 H 0.90211 0.48692 0.75665 0.0
H3002 H 0.86944 0.46527 0.74329 0.0
C3003 C 0.85455 0.49869 0.70896 0.0
C3004 C 0.88653 0.49182 0.72318 0.0
C3005 C 0.84692 0.50892 0.70437 0.0
C3006 C 0.90739 0.47157 0.76934 0.0
C3007 C 0.90162 0.4766 0.7583 0.0
C3008 C 0.87437 0.4724 0.73743 0.0
C3009 C 0.86521 0.50117 0.717 0.0
C3010 C 0.87303 0.49063 0.72268 0.0
C3011 C 0.8948 0.46854 0.74979 0.0
C3012 C 0.8877 0.47446 0.73889 0.0
H3013 H 0.86279 0.53383 0.71898 0.0
H3014 H 0.87604 0.51618 0.72678 0.0
H3015 H 0.85667 0.47934 0.72919 0.0
H3016 H 0.89946 0.43988 0.76533 0.0
H3017 H 0.8889 0.44885 0.74599 0.0
C3018 C 0.77519 0.15598 0.01882 0.0
C3019 C 0.78856 0.1555 0.02091 0.0
C3020 C 0.76975 0.15007 0.00804 0.0
C3021 C 0.77379 0.12288 0.98685 0.0
H3022 H 0.74489 0.13883 0.96918 0.0
C3023 C 0.73667 0.09451 0.95501 0.0
C3024 C 0.72403 0.09654 0.95953 0.0
C3025 C 0.74681 0.10243 0.95931 0.0
C3026 C 0.75304 0.13428 0.9739 0.0
H3027 H 0.8068 0.14869 0.01329 0.0
H3028 H 0.79714 0.13794 0.99441 0.0
H3029 H 0.7591 0.15203 0.98255 0.0
H3030 H 0.71204 0.10855 0.9718 0.0
H3031 H 0.72952 0.12231 0.97907 0.0
H3032 H 0.76719 0.10497 0.97876 0.0
C3033 C 0.79095 0.14306 0.00111 0.0
C3034 C 0.76116 0.14182 0.98154 0.0
C3035 C 0.79646 0.14922 0.01185 0.0
C3036 C 0.72167 0.10671 0.96817 0.0
C3037 C 0.73168 0.11468 0.97225 0.0
C3038 C 0.76563 0.1153 0.97916 0.0
C3039 C 0.77752 0.14339 0.99917 0.0
C3040 C 0.77123 0.1361 0.98858 0.0
C3041 C 0.74435 0.11263 0.96793 0.0
C3042 C 0.75482 0.12086 0.97314 0.0
H3043 H 0.76887 0.16078 0.02563 0.0
H3044 H 0.75935 0.15033 0.00693 0.0
H3045 H 0.78146 0.11822 0.99221 0.0
H3046 H 0.73873 0.08672 0.94835 0.0
H3047 H 0.75652 0.10062 0.95589 0.0
C3048 C 0.15795 0.01618 0.77929 0.0
C3049 C 0.15604 0.02012 0.7921 0.0
C3050 C 0.15217 0.00496 0.77467 0.0
C3051 C 0.1233 0.98625 0.77795 0.0
H3052 H 0.14097 0.96386 0.7537 0.0
C3053 C 0.09606 0.95365 0.74113 0.0
C3054 C 0.10017 0.9563 0.72847 0.0
C3055 C 0.10335 0.95797 0.75171 0.0
C3056 C 0.1359 0.96991 0.76056 0.0
H3057 H 0.14683 0.01535 0.81026 0.0
H3058 H 0.13626 0.99572 0.80196 0.0
H3059 H 0.15349 0.97797 0.7678 0.0
H3060 H 0.11531 0.96501 0.71693 0.0
H3061 H 0.12797 0.97234 0.7352 0.0
H3062 H 0.10567 0.97882 0.77003 0.0
C3063 C 0.14243 0.00128 0.79561 0.0
C3064 C 0.14307 0.97797 0.76863 0.0
C3065 C 0.14849 0.01244 0.80035 0.0
C3066 C 0.11186 0.96287 0.72657 0.0
C3067 C 0.11919 0.96697 0.73706 0.0
C3068 C 0.1161 0.97819 0.76982 0.0
C3069 C 0.14416 0.99753 0.78268 0.0
C3070 C 0.13682 0.98667 0.77694 0.0
C3071 C 0.11497 0.96471 0.74974 0.0
C3072 C 0.12235 0.97044 0.7606 0.0
H3073 H 0.16375 0.02191 0.77274 0.0
H3074 H 0.15352 0.00243 0.76461 0.0
H3075 H 0.11824 0.99291 0.78423 0.0
H3076 H 0.08706 0.94861 0.74284 0.0
H3077 H 0.09987 0.95614 0.7614 0.0
C3078 C 0.23134 0.40819 0.02718 0.0
C3079 C 0.22896 0.40726 0.04048 0.0
C3080 C 0.24216 0.40236 0.02177 0.0
C3081 C 0.26301 0.37487 0.02511 0.0
H3082 H 0.28206 0.39216 0.9979 0.0
C3083 C 0.29573 0.34764 0.9882 0.0
C3084 C 0.29216 0.35057 0.97544 0.0
C3085 C 0.29117 0.35523 0.99847 0.0
C3086 C 0.27693 0.38722 0.00556 0.0
H3087 H 0.23608 0.39966 0.05862 0.0
H3088 H 0.25503 0.38903 0.04897 0.0
H3089 H 0.26814 0.4047 0.01217 0.0
H3090 H 0.2814 0.36387 0.96336 0.0
H3091 H 0.27363 0.37703 0.98108 0.0
H3092 H 0.2712 0.35725 0.01793 0.0
C3093 C 0.24853 0.39445 0.04284 0.0
C3094 C 0.26899 0.39439 0.01372 0.0
C3095 C 0.23775 0.40054 0.04834 0.0
C3096 C 0.28429 0.36134 0.97309 0.0
C3097 C 0.27993 0.36897 0.98325 0.0
C3098 C 0.27096 0.36766 0.01689 0.0
C3099 C 0.25079 0.3953 0.02948 0.0
C3100 C 0.2615 0.38822 0.02318 0.0
C3101 C 0.28321 0.36597 0.99605 0.0
C3102 C 0.27751 0.37371 0.00666 0.0
H3103 H 0.22475 0.41333 0.0209 0.0
H3104 H 0.24355 0.40301 0.01142 0.0
H3105 H 0.2573 0.36987 0.0323 0.0
H3106 H 0.30177 0.33936 0.99026 0.0
H3107 H 0.2938 0.3527 0.00826 0.0
C3108 C 0.89948 0.55115 0.23508 0.0
C3109 C 0.90748 0.54257 0.22828 0.0
C3110 C 0.89263 0.5469 0.24595 0.0
C3111 C 0.87186 0.53033 0.25928 0.0
H3112 H 0.88585 0.50608 0.28417 0.0
C3113 C 0.84506 0.48589 0.27724 0.0
C3114 C 0.84629 0.48189 0.29012 0.0
C3115 C 0.85168 0.49672 0.27278 0.0
C3116 C 0.8818 0.51305 0.2775 0.0
H3117 H 0.9153 0.52317 0.22792 0.0
H3118 H 0.90361 0.51586 0.24694 0.0
H3119 H 0.90049 0.51912 0.27104 0.0
H3120 H 0.85502 0.48629 0.30861 0.0
H3121 H 0.86702 0.50517 0.30066 0.0
H3122 H 0.85319 0.52362 0.26513 0.0
C3123 C 0.90254 0.52582 0.24392 0.0
C3124 C 0.89017 0.52044 0.26994 0.0
C3125 C 0.90915 0.52997 0.23297 0.0
C3126 C 0.85389 0.48922 0.29863 0.0
C3127 C 0.86076 0.49996 0.29409 0.0
C3128 C 0.86349 0.52284 0.26675 0.0
C3129 C 0.89393 0.53411 0.25032 0.0
C3130 C 0.88529 0.52877 0.2604 0.0
C3131 C 0.85986 0.50368 0.28106 0.0
C3132 C 0.8684 0.51375 0.27556 0.0
H3133 H 0.898 0.56091 0.23162 0.0
H3134 H 0.88604 0.55348 0.25071 0.0
H3135 H 0.86782 0.53661 0.25196 0.0
H3136 H 0.83922 0.48044 0.27049 0.0
H3137 H 0.85093 0.49923 0.26266 0.0
C3138 C 0.77664 0.10899 0.53347 0.0
C3139 C 0.77424 0.09898 0.54227 0.0
C3140 C 0.76661 0.11671 0.529 0.0
C3141 C 0.73265 0.11662 0.5216 0.0
H3142 H 0.73892 0.15325 0.51688 0.0
C3143 C 0.70165 0.14985 0.48806 0.0
C3144 C 0.70956 0.15567 0.47868 0.0
C3145 C 0.70719 0.14384 0.49887 0.0
C3146 C 0.73692 0.14307 0.51827 0.0
H3147 H 0.75944 0.08917 0.55334 0.0
H3148 H 0.74163 0.10264 0.54516 0.0
H3149 H 0.75312 0.14069 0.53084 0.0
H3150 H 0.72931 0.16016 0.47342 0.0
H3151 H 0.73887 0.14998 0.49225 0.0
H3152 H 0.71685 0.11894 0.50838 0.0
C3153 C 0.75138 0.10452 0.5419 0.0
C3154 C 0.74505 0.13589 0.52624 0.0
C3155 C 0.76154 0.09685 0.54657 0.0
C3156 C 0.72298 0.15572 0.48047 0.0
C3157 C 0.72845 0.14998 0.49131 0.0
C3158 C 0.72446 0.12385 0.5136 0.0
C3159 C 0.75387 0.11456 0.5331 0.0
C3160 C 0.74338 0.12249 0.52747 0.0
C3161 C 0.72066 0.14387 0.50056 0.0
C3162 C 0.72694 0.13701 0.51141 0.0
H3163 H 0.78631 0.11089 0.52999 0.0
H3164 H 0.7688 0.12421 0.52204 0.0
H3165 H 0.73117 0.1063 0.52236 0.0
H3166 H 0.69127 0.14966 0.48686 0.0
H3167 H 0.701 0.13914 0.50586 0.0
C3168 C 0.21855 0.15668 0.98598 0.0
C3169 C 0.20551 0.15599 0.9824 0.0
C3170 C 0.22299 0.15015 0.99688 0.0
C3171 C 0.22903 0.139 0.02331 0.0
H3172 H 0.22354 0.10207 0.02058 0.0
C3173 C 0.2604 0.10287 0.05165 0.0
C3174 C 0.26682 0.09459 0.04305 0.0
C3175 C 0.24954 0.10983 0.04757 0.0
C3176 C 0.22497 0.11237 0.02163 0.0
H3177 H 0.18676 0.14831 0.98756 0.0
H3178 H 0.19468 0.13642 0.00653 0.0
H3179 H 0.2106 0.1168 0.00744 0.0
H3180 H 0.26648 0.08635 0.02383 0.0
H3181 H 0.24747 0.09823 0.01681 0.0
H3182 H 0.24395 0.13454 0.03689 0.0
C3183 C 0.20138 0.14221 0.00097 0.0
C3184 C 0.21752 0.1208 0.01418 0.0
C3185 C 0.19686 0.14901 0.99017 0.0
C3186 C 0.26174 0.09272 0.03063 0.0
C3187 C 0.25079 0.09945 0.02665 0.0
C3188 C 0.23638 0.13058 0.03086 0.0
C3189 C 0.21453 0.1426 0.00431 0.0
C3190 C 0.21991 0.13415 0.01451 0.0
C3191 C 0.2448 0.10836 0.03493 0.0
C3192 C 0.23483 0.11716 0.02964 0.0
H3193 H 0.22541 0.16203 0.98018 0.0
H3194 H 0.2332 0.15049 0.99911 0.0
H3195 H 0.23099 0.14926 0.02379 0.0
H3196 H 0.26418 0.1045 0.06127 0.0
H3197 H 0.2451 0.11665 0.05413 0.0
C3198 C 0.70081 0.85026 0.51242 0.0
C3199 C 0.7092 0.84296 0.52019 0.0
C3200 C 0.7054 0.85614 0.50112 0.0
C3201 C 0.73239 0.85555 0.47776 0.0
H3202 H 0.72995 0.89291 0.4778 0.0
C3203 C 0.77355 0.88765 0.46205 0.0
C3204 C 0.77129 0.8991 0.45518 0.0
C3205 C 0.76329 0.8801 0.4663 0.0
C3206 C 0.73045 0.88247 0.4774 0.0
H3207 H 0.72865 0.83549 0.52199 0.0
H3208 H 0.73654 0.84546 0.50228 0.0
H3209 H 0.71609 0.88027 0.49214 0.0
H3210 H 0.75654 0.91157 0.44714 0.0
H3211 H 0.73838 0.89838 0.45496 0.0
H3212 H 0.74728 0.85775 0.46363 0.0
C3213 C 0.72648 0.84673 0.50485 0.0
C3214 C 0.72252 0.87523 0.4856 0.0
C3215 C 0.722 0.8411 0.5162 0.0
C3216 C 0.75852 0.90276 0.45242 0.0
C3217 C 0.74817 0.89525 0.45689 0.0
C3218 C 0.74027 0.86275 0.46957 0.0
C3219 C 0.71832 0.85451 0.49731 0.0
C3220 C 0.7239 0.86175 0.48632 0.0
C3221 C 0.75049 0.88386 0.46392 0.0
C3222 C 0.73985 0.87631 0.4698 0.0
H3223 H 0.6909 0.85185 0.51535 0.0
H3224 H 0.69894 0.86212 0.49548 0.0
H3225 H 0.73349 0.84515 0.47799 0.0
H3226 H 0.78329 0.88456 0.46429 0.0
H3227 H 0.7654 0.87152 0.47189 0.0
C3228 C 0.34295 0.00873 0.70247 0.0
C3229 C 0.34746 0.02113 0.70562 0.0
C3230 C 0.34949 0.99776 0.70697 0.0
C3231 C 0.38054 0.98687 0.72113 0.0
H3232 H 0.35955 0.96381 0.74182 0.0
C3233 C 0.40352 0.95169 0.75765 0.0
C3234 C 0.39846 0.95362 0.77008 0.0
C3235 C 0.39697 0.95648 0.74682 0.0
C3236 C 0.36553 0.97004 0.73593 0.0
H3237 H 0.3626 0.03182 0.71536 0.0
H3238 H 0.37397 0.01283 0.72306 0.0
H3239 H 0.34912 0.97933 0.72745 0.0
H3240 H 0.3823 0.96131 0.78092 0.0
H3241 H 0.3709 0.96954 0.76217 0.0
H3242 H 0.39692 0.9782 0.73024 0.0
C3243 C 0.36545 0.01149 0.71715 0.0
C3244 C 0.35957 0.97885 0.72763 0.0
C3245 C 0.35886 0.02238 0.71284 0.0
C3246 C 0.38646 0.95975 0.77146 0.0
C3247 C 0.37986 0.96436 0.76068 0.0
C3248 C 0.3865 0.97801 0.72937 0.0
C3249 C 0.36075 0.99906 0.71446 0.0
C3250 C 0.36701 0.98775 0.72061 0.0
C3251 C 0.38517 0.96306 0.74827 0.0
C3252 C 0.37904 0.96993 0.7373 0.0
H3253 H 0.33419 0.00752 0.6969 0.0
H3254 H 0.34565 0.98828 0.70478 0.0
H3255 H 0.38651 0.99352 0.7157 0.0
H3256 H 0.41276 0.94697 0.75634 0.0
H3257 H 0.40126 0.95534 0.73736 0.0
C3258 C 0.24173 0.59441 0.95093 0.0
C3259 C 0.22943 0.59964 0.95324 0.0
C3260 C 0.25279 0.60077 0.95545 0.0
C3261 C 0.26443 0.63194 0.96917 0.0
H3262 H 0.28522 0.61034 0.99156 0.0
C3263 C 0.29807 0.65391 0.00784 0.0
C3264 C 0.29525 0.64895 0.02015 0.0
C3265 C 0.29365 0.64753 0.99675 0.0
C3266 C 0.27963 0.61649 0.98521 0.0
H3267 H 0.21908 0.61592 0.96135 0.0
H3268 H 0.23822 0.62695 0.96914 0.0
H3269 H 0.2702 0.60035 0.97644 0.0
H3270 H 0.2863 0.63312 0.03051 0.0
H3271 H 0.27872 0.62203 0.01132 0.0
H3272 H 0.27319 0.6481 0.97861 0.0
C3273 C 0.23943 0.61802 0.96384 0.0
C3274 C 0.27111 0.61076 0.97646 0.0
C3275 C 0.22843 0.61162 0.95949 0.0
C3276 C 0.28856 0.63721 0.02115 0.0
C3277 C 0.28433 0.63078 0.01013 0.0
C3278 C 0.27298 0.63767 0.9779 0.0
C3279 C 0.25172 0.61254 0.96216 0.0
C3280 C 0.26297 0.61844 0.9688 0.0
C3281 C 0.28657 0.63598 0.99781 0.0
C3282 C 0.2802 0.63 0.98644 0.0
H3283 H 0.24275 0.58518 0.94612 0.0
H3284 H 0.26215 0.59633 0.954 0.0
H3285 H 0.25841 0.6381 0.96324 0.0
H3286 H 0.30322 0.66296 0.00682 0.0
H3287 H 0.29553 0.65175 0.98737 0.0
C3288 C 0.73382 0.88603 0.05262 0.0
C3289 C 0.73265 0.89935 0.05052 0.0
C3290 C 0.74438 0.87924 0.0477 0.0
C3291 C 0.77547 0.88329 0.02916 0.0
H3292 H 0.76505 0.85035 0.01473 0.0
C3293 C 0.79311 0.86154 0.98126 0.0
C3294 C 0.79585 0.84827 0.98076 0.0
C3295 C 0.78877 0.86719 0.99268 0.0
C3296 C 0.76822 0.8594 0.01891 0.0
H3297 H 0.74179 0.91619 0.04223 0.0
H3298 H 0.7598 0.90435 0.03293 0.0
H3299 H 0.75085 0.86137 0.02965 0.0
H3300 H 0.79677 0.83059 0.99188 0.0
H3301 H 0.78865 0.84044 0.01187 0.0
H3302 H 0.79239 0.88163 0.0173 0.0
C3303 C 0.75292 0.89908 0.03877 0.0
C3304 C 0.76009 0.86576 0.02756 0.0
C3305 C 0.74254 0.90592 0.04404 0.0
C3306 C 0.79476 0.84085 0.99205 0.0
C3307 C 0.79011 0.84646 0.00344 0.0
C3308 C 0.78348 0.87703 0.02026 0.0
C3309 C 0.75377 0.88555 0.04015 0.0
C3310 C 0.76342 0.87797 0.03257 0.0
C3311 C 0.78684 0.85963 0.00376 0.0
C3312 C 0.77977 0.86517 0.01485 0.0
H3313 H 0.72635 0.88079 0.05774 0.0
H3314 H 0.74487 0.86895 0.04941 0.0
H3315 H 0.77856 0.89249 0.03302 0.0
H3316 H 0.79393 0.86747 0.97268 0.0
H3317 H 0.78618 0.87732 0.99264 0.0
C3318 C 0.36211 0.47791 0.78652 0.0
C3319 C 0.35061 0.47917 0.79356 0.0
C3320 C 0.36865 0.4888 0.78209 0.0
C3321 C 0.36221 0.52114 0.77091 0.0
H3322 H 0.39952 0.52222 0.76786 0.0
C3323 C 0.40537 0.54841 0.73987 0.0
C3324 C 0.40021 0.54614 0.72753 0.0
C3325 C 0.39904 0.54369 0.75086 0.0
C3326 C 0.38911 0.52229 0.76884 0.0
H3327 H 0.33712 0.4928 0.80191 0.0
H3328 H 0.34849 0.512 0.79386 0.0
H3329 H 0.38947 0.50706 0.78283 0.0
H3330 H 0.38409 0.5379 0.71703 0.0
H3331 H 0.37307 0.52982 0.73607 0.0
H3332 H 0.36184 0.53589 0.75643 0.0
C3333 C 0.35245 0.50253 0.79188 0.0
C3334 C 0.38336 0.51352 0.77733 0.0
C3335 C 0.34598 0.49157 0.79649 0.0
C3336 C 0.38833 0.53973 0.72642 0.0
C3337 C 0.38194 0.53521 0.73735 0.0
C3338 C 0.36797 0.52985 0.76237 0.0
C3339 C 0.36377 0.50122 0.78448 0.0
C3340 C 0.36984 0.51248 0.77803 0.0
C3341 C 0.38736 0.53686 0.74967 0.0
C3342 C 0.38146 0.53011 0.76085 0.0
H3343 H 0.36595 0.46847 0.78417 0.0
H3344 H 0.37722 0.48744 0.77626 0.0
H3345 H 0.35178 0.52054 0.77121 0.0
H3346 H 0.41453 0.55333 0.74097 0.0
H3347 H 0.40342 0.5451 0.76025 0.0
C3348 C 0.60367 0.9519 0.23642 0.0
C3349 C 0.59588 0.96006 0.22888 0.0
C3350 C 0.60973 0.95666 0.24756 0.0
C3351 C 0.60873 0.9834 0.27112 0.0
H3352 H 0.64615 0.98271 0.26998 0.0
C3353 C 0.63929 0.02596 0.28602 0.0
C3354 C 0.65109 0.02426 0.29246 0.0
C3355 C 0.63209 0.01535 0.28203 0.0
C3356 C 0.63571 0.98272 0.27069 0.0
H3357 H 0.58777 0.97928 0.22732 0.0
H3358 H 0.59804 0.98745 0.24677 0.0
H3359 H 0.63374 0.96838 0.25588 0.0
H3360 H 0.66452 0.01013 0.30002 0.0
H3361 H 0.65195 0.99135 0.29265 0.0
H3362 H 0.61066 0.99827 0.28532 0.0
C3363 C 0.59956 0.97745 0.24413 0.0
C3364 C 0.62862 0.97452 0.26262 0.0
C3365 C 0.59376 0.9728 0.23294 0.0
C3366 C 0.65544 0.01168 0.29508 0.0
C3367 C 0.64828 0.00097 0.29087 0.0
C3368 C 0.6158 0.99154 0.27918 0.0
C3369 C 0.60778 0.96952 0.25144 0.0
C3370 C 0.61508 0.97529 0.2623 0.0
C3371 C 0.63656 0.00274 0.28424 0.0
C3372 C 0.62935 0.99176 0.27855 0.0
H3373 H 0.60547 0.94204 0.23344 0.0
H3374 H 0.61606 0.95038 0.25302 0.0
H3375 H 0.59829 0.98404 0.27118 0.0
H3376 H 0.63566 0.03554 0.28391 0.0
H3377 H 0.62323 0.01705 0.27674 0.0
C3378 C 0.04746 0.76061 0.59601 0.0
C3379 C 0.04453 0.77324 0.60004 0.0
C3380 C 0.04315 0.74998 0.60322 0.0
C3381 C 0.03107 0.74093 0.63557 0.0
H3382 H 0.00851 0.71691 0.61779 0.0
C3383 C 0.98558 0.72087 0.65803 0.0
C3384 C 0.98163 0.70813 0.65567 0.0
C3385 C 0.99665 0.72577 0.65222 0.0
C3386 C 0.01505 0.72329 0.62288 0.0
H3387 H 0.03526 0.78468 0.61491 0.0
H3388 H 0.02795 0.7663 0.62747 0.0
H3389 H 0.02231 0.73144 0.60529 0.0
H3390 H 0.98632 0.69037 0.64568 0.0
H3391 H 0.00573 0.69914 0.63513 0.0
H3392 H 0.02326 0.73338 0.65313 0.0
C3393 C 0.03354 0.76453 0.61881 0.0
C3394 C 0.02294 0.73161 0.61572 0.0
C3395 C 0.03762 0.77506 0.61154 0.0
C3396 C 0.98921 0.70022 0.64768 0.0
C3397 C 0.00025 0.70523 0.64163 0.0
C3398 C 0.02322 0.73263 0.6427 0.0
C3399 C 0.03612 0.75188 0.61468 0.0
C3400 C 0.03053 0.74093 0.62201 0.0
C3401 C 0.00398 0.71811 0.64376 0.0
C3402 C 0.01466 0.72419 0.63642 0.0
H3403 H 0.05276 0.75897 0.58715 0.0
H3404 H 0.04522 0.74031 0.59982 0.0
H3405 H 0.037 0.74788 0.64065 0.0
H3406 H 0.97993 0.72717 0.66418 0.0
H3407 H 0.99915 0.73579 0.6539 0.0
C3408 C 0.00683 0.79842 0.15438 0.0
C3409 C 0.01943 0.79561 0.15021 0.0
C3410 C 0.99617 0.79433 0.14708 0.0
C3411 C 0.98693 0.78299 0.11449 0.0
H3412 H 0.96356 0.75956 0.13198 0.0
C3413 C 0.96793 0.73735 0.09144 0.0
C3414 C 0.95537 0.73293 0.09393 0.0
C3415 C 0.97252 0.74854 0.0973 0.0
C3416 C 0.96974 0.76634 0.12697 0.0
H3417 H 0.03082 0.78688 0.13497 0.0
H3418 H 0.01239 0.77998 0.12226 0.0
H3419 H 0.97788 0.77339 0.14465 0.0
H3420 H 0.93759 0.73692 0.10418 0.0
H3421 H 0.94581 0.75652 0.1148 0.0
H3422 H 0.97941 0.77536 0.09682 0.0
C3423 C 0.01065 0.78528 0.1311 0.0
C3424 C 0.97794 0.77426 0.13423 0.0
C3425 C 0.02122 0.78913 0.13846 0.0
C3426 C 0.9473 0.74018 0.10208 0.0
C3427 C 0.952 0.75132 0.10817 0.0
C3428 C 0.97875 0.7751 0.10726 0.0
C3429 C 0.99802 0.78768 0.13539 0.0
C3430 C 0.98707 0.78215 0.12803 0.0
C3431 C 0.96473 0.75551 0.10594 0.0
C3432 C 0.97056 0.76622 0.11342 0.0
H3433 H 0.00522 0.8034 0.16343 0.0
H3434 H 0.98652 0.79625 0.1506 0.0
H3435 H 0.99373 0.78915 0.10948 0.0
H3436 H 0.97434 0.73197 0.08517 0.0
H3437 H 0.98243 0.75138 0.09553 0.0
C3438 C 0.45185 0.7349 0.59599 0.0
C3439 C 0.45971 0.72575 0.58978 0.0
C3440 C 0.45743 0.74543 0.60245 0.0
C3441 C 0.48776 0.76416 0.60476 0.0
H3442 H 0.47954 0.76831 0.64106 0.0
C3443 C 0.52516 0.77938 0.64151 0.0
C3444 C 0.52225 0.78901 0.65059 0.0
C3445 C 0.51561 0.77442 0.63348 0.0
C3446 C 0.48174 0.76748 0.63087 0.0
H3447 H 0.47945 0.72063 0.58505 0.0
H3448 H 0.48908 0.7389 0.59609 0.0
H3449 H 0.46585 0.75464 0.62741 0.0
H3450 H 0.50696 0.80089 0.65853 0.0
H3451 H 0.48998 0.79184 0.64453 0.0
H3452 H 0.50404 0.77634 0.60835 0.0
C3453 C 0.47866 0.73805 0.59601 0.0
C3454 C 0.47391 0.75968 0.62306 0.0
C3455 C 0.47314 0.72752 0.58976 0.0
C3456 C 0.50947 0.79347 0.6516 0.0
C3457 C 0.49978 0.78832 0.64362 0.0
C3458 C 0.49556 0.77189 0.61254 0.0
C3459 C 0.47091 0.74705 0.60256 0.0
C3460 C 0.4772 0.75751 0.61006 0.0
C3461 C 0.50285 0.77886 0.63439 0.0
C3462 C 0.49295 0.77317 0.62578 0.0
H3463 H 0.44147 0.73372 0.59618 0.0
H3464 H 0.45124 0.75222 0.60743 0.0
H3465 H 0.49038 0.76286 0.59472 0.0
H3466 H 0.53491 0.77573 0.64048 0.0
H3467 H 0.5182 0.76697 0.6266 0.0
C3468 C 0.48488 0.70365 0.14995 0.0
C3469 C 0.47612 0.71176 0.15641 0.0
C3470 C 0.49563 0.70891 0.14361 0.0
C3471 C 0.51603 0.73808 0.14239 0.0
H3472 H 0.51849 0.73225 0.10548 0.0
C3473 C 0.53165 0.77726 0.10781 0.0
C3474 C 0.54014 0.77452 0.09761 0.0
C3475 C 0.5269 0.7674 0.11559 0.0
C3476 C 0.51816 0.73375 0.11583 0.0
H3477 H 0.47194 0.73156 0.16173 0.0
H3478 H 0.49067 0.74064 0.15096 0.0
H3479 H 0.50454 0.71839 0.11865 0.0
H3480 H 0.55033 0.75928 0.08753 0.0
H3481 H 0.54165 0.74179 0.10112 0.0
H3482 H 0.52903 0.75386 0.13953 0.0
C3483 C 0.4893 0.73027 0.15072 0.0
C3484 C 0.51019 0.72582 0.12335 0.0
C3485 C 0.47851 0.72508 0.15681 0.0
C3486 C 0.5438 0.76165 0.09534 0.0
C3487 C 0.53885 0.75167 0.10308 0.0
C3488 C 0.52396 0.74596 0.13491 0.0
C3489 C 0.4979 0.72229 0.14392 0.0
C3490 C 0.5086 0.72833 0.1366 0.0
C3491 C 0.53041 0.75451 0.11334 0.0
C3492 C 0.52463 0.74426 0.12147 0.0
H3493 H 0.4832 0.69334 0.14947 0.0
H3494 H 0.50211 0.70257 0.1384 0.0
H3495 H 0.51513 0.74008 0.15262 0.0
H3496 H 0.52866 0.78708 0.10983 0.0
H3497 H 0.52023 0.76987 0.12326 0.0
C3498 C 0.09313 0.53403 0.76354 0.0
C3499 C 0.09626 0.54567 0.76972 0.0
C3500 C 0.1004 0.52968 0.75309 0.0
C3501 C 0.11536 0.52386 0.72865 0.0
H3502 H 0.15153 0.52138 0.73792 0.0
C3503 C 0.15059 0.48993 0.70169 0.0
C3504 C 0.15662 0.48131 0.71025 0.0
C3505 C 0.14439 0.501 0.70639 0.0
C3506 C 0.1415 0.52216 0.73509 0.0
H3507 H 0.109 0.56226 0.76945 0.0
H3508 H 0.12197 0.55447 0.75121 0.0
H3509 H 0.13728 0.53547 0.75031 0.0
H3510 H 0.1615 0.4778 0.7303 0.0
H3511 H 0.15088 0.49709 0.73845 0.0
H3512 H 0.11943 0.50992 0.71393 0.0
C3513 C 0.11382 0.54878 0.75445 0.0
C3514 C 0.13335 0.5303 0.7421 0.0
C3515 C 0.10639 0.55325 0.76483 0.0
C3516 C 0.15688 0.48425 0.72348 0.0
C3517 C 0.1509 0.49536 0.72813 0.0
C3518 C 0.12352 0.51578 0.72156 0.0
C3519 C 0.11107 0.53679 0.74868 0.0
C3520 C 0.12009 0.53079 0.73931 0.0
C3521 C 0.14436 0.50372 0.71969 0.0
C3522 C 0.13655 0.51443 0.72509 0.0
H3523 H 0.08534 0.52802 0.76709 0.0
H3524 H 0.09812 0.52033 0.74897 0.0
H3525 H 0.10519 0.52415 0.72622 0.0
H3526 H 0.15025 0.48787 0.69144 0.0
H3527 H 0.13942 0.5073 0.69968 0.0
C3528 C 0.20008 0.84884 0.012 0.0
C3529 C 0.20852 0.84178 0.01993 0.0
C3530 C 0.20472 0.8549 0.00081 0.0
C3531 C 0.23228 0.85514 0.9781 0.0
H3532 H 0.22881 0.89243 0.9781 0.0
C3533 C 0.27313 0.88848 0.96479 0.0
C3534 C 0.27101 0.89944 0.95712 0.0
C3535 C 0.26284 0.88078 0.96868 0.0
C3536 C 0.2296 0.882 0.97771 0.0
H3537 H 0.22815 0.83492 0.02215 0.0
H3538 H 0.23615 0.8452 0.00265 0.0
H3539 H 0.21484 0.87936 0.99199 0.0
H3540 H 0.2565 0.91095 0.94741 0.0
H3541 H 0.23822 0.89755 0.95468 0.0
H3542 H 0.24763 0.85782 0.96455 0.0
C3543 C 0.226 0.84615 0.00499 0.0
C3544 C 0.22161 0.87453 0.98565 0.0
C3545 C 0.22145 0.84035 0.01622 0.0
C3546 C 0.25836 0.90252 0.95331 0.0
C3547 C 0.24795 0.89489 0.95745 0.0
C3548 C 0.24024 0.86259 0.97021 0.0
C3549 C 0.21777 0.85368 0.99729 0.0
C3550 C 0.22337 0.86109 0.98641 0.0
C3551 C 0.25015 0.88393 0.96515 0.0
C3552 C 0.23942 0.87612 0.97046 0.0
H3553 H 0.19006 0.85011 0.01471 0.0
H3554 H 0.1982 0.86069 0.99504 0.0
H3555 H 0.23369 0.84478 0.97836 0.0
H3556 H 0.28278 0.88583 0.96783 0.0
H3557 H 0.26481 0.87253 0.9748 0.0
C3558 C 0.90608 0.97343 0.26797 0.0
C3559 C 0.90609 0.96025 0.27109 0.0
C3560 C 0.90023 0.97777 0.25667 0.0
C3561 C 0.87338 0.97053 0.23596 0.0
H3562 H 0.88728 0.99883 0.21576 0.0
C3563 C 0.8566 0.01273 0.19715 0.0
C3564 C 0.84639 0.01785 0.20446 0.0
C3565 C 0.86398 0.00249 0.20201 0.0
C3566 C 0.88332 0.99075 0.22107 0.0
H3567 H 0.90031 0.94119 0.26471 0.0
H3568 H 0.88965 0.94888 0.24495 0.0
H3569 H 0.9014 0.98684 0.23031 0.0
H3570 H 0.83529 0.01576 0.22207 0.0
H3571 H 0.848 0.99788 0.23044 0.0
H3572 H 0.85512 0.97495 0.2273 0.0
C3573 C 0.89435 0.95579 0.25124 0.0
C3574 C 0.89139 0.98395 0.22947 0.0
C3575 C 0.90045 0.9514 0.26249 0.0
C3576 C 0.84315 0.01203 0.21626 0.0
C3577 C 0.85037 0.00172 0.22101 0.0
C3578 C 0.86528 0.97741 0.22764 0.0
C3579 C 0.89407 0.96905 0.24831 0.0
C3580 C 0.88638 0.97412 0.23737 0.0
C3581 C 0.86111 0.99709 0.21414 0.0
C3582 C 0.87007 0.98791 0.2205 0.0
H3583 H 0.91041 0.98045 0.27441 0.0
H3584 H 0.90001 0.98805 0.25477 0.0
H3585 H 0.86925 0.96303 0.24197 0.0
H3586 H 0.8593 0.01706 0.18803 0.0
H3587 H 0.87219 0.99908 0.19651 0.0
C3588 C 0.79822 0.64826 0.51254 0.0
C3589 C 0.79027 0.65471 0.52144 0.0
C3590 C 0.79281 0.64243 0.50156 0.0
C3591 C 0.76383 0.64277 0.48093 0.0
H3592 H 0.76758 0.6056 0.47846 0.0
C3593 C 0.72264 0.61022 0.46632 0.0
C3594 C 0.72468 0.59956 0.45821 0.0
C3595 C 0.73297 0.61769 0.47053 0.0
C3596 C 0.76668 0.61601 0.47876 0.0
H3597 H 0.77065 0.66061 0.52566 0.0
H3598 H 0.76133 0.65076 0.50653 0.0
H3599 H 0.78218 0.61796 0.49237 0.0
H3600 H 0.73913 0.5884 0.44802 0.0
H3601 H 0.75746 0.60143 0.45573 0.0
H3602 H 0.74787 0.64079 0.46798 0.0
C3603 C 0.77167 0.65011 0.50797 0.0
C3604 C 0.77503 0.62308 0.48672 0.0
C3605 C 0.77699 0.65566 0.51898 0.0
C3606 C 0.73731 0.59658 0.45426 0.0
C3607 C 0.74777 0.604 0.45867 0.0
C3608 C 0.75553 0.63574 0.473 0.0
C3609 C 0.77947 0.64329 0.49923 0.0
C3610 C 0.77323 0.63643 0.48835 0.0
C3611 C 0.74565 0.61464 0.46683 0.0
C3612 C 0.75646 0.62222 0.47235 0.0
H3613 H 0.80849 0.64737 0.51427 0.0
H3614 H 0.799 0.63717 0.49497 0.0
H3615 H 0.76237 0.65308 0.48189 0.0
H3616 H 0.71301 0.61278 0.46951 0.0
H3617 H 0.73105 0.62568 0.477 0.0
C3618 C 0.09178 0.4664 0.2384 0.0
C3619 C 0.09525 0.45448 0.23299 0.0
C3620 C 0.0979 0.47092 0.24948 0.0
C3621 C 0.12887 0.46993 0.26542 0.0
H3622 H 0.11077 0.49104 0.29049 0.0
C3623 C 0.15514 0.50698 0.29834 0.0
C3624 C 0.14998 0.51939 0.29649 0.0
C3625 C 0.14835 0.49606 0.29406 0.0
C3626 C 0.11597 0.48505 0.28367 0.0
H3627 H 0.10753 0.43769 0.23514 0.0
H3628 H 0.11854 0.44579 0.25456 0.0
H3629 H 0.09858 0.47655 0.27648 0.0
H3630 H 0.13351 0.53013 0.28934 0.0
H3631 H 0.12165 0.51123 0.28212 0.0
H3632 H 0.1462 0.47904 0.27214 0.0
C3633 C 0.11098 0.45156 0.25021 0.0
C3634 C 0.109 0.47677 0.27565 0.0
C3635 C 0.10467 0.44691 0.23916 0.0
C3636 C 0.13773 0.52068 0.29085 0.0
C3637 C 0.13089 0.50984 0.28682 0.0
C3638 C 0.13586 0.47822 0.27349 0.0
C3639 C 0.10775 0.4637 0.25537 0.0
C3640 C 0.11531 0.46962 0.266 0.0
C3641 C 0.13619 0.49743 0.28816 0.0
C3642 C 0.12939 0.48632 0.28223 0.0
H3643 H 0.08452 0.47242 0.23388 0.0
H3644 H 0.09531 0.4804 0.25307 0.0
H3645 H 0.13399 0.46458 0.25804 0.0
H3646 H 0.16459 0.50575 0.30264 0.0
H3647 H 0.15265 0.4866 0.29517 0.0
C3648 C 0.23426 0.91042 0.5291 0.0
C3649 C 0.23036 0.90822 0.54188 0.0
C3650 C 0.2452 0.90439 0.52416 0.0
C3651 C 0.26347 0.87483 0.52718 0.0
H3652 H 0.28517 0.89173 0.50178 0.0
C3653 C 0.29613 0.84668 0.49106 0.0
C3654 C 0.29325 0.85013 0.47826 0.0
C3655 C 0.29168 0.85429 0.50134 0.0
C3656 C 0.27929 0.88689 0.50896 0.0
H3657 H 0.23505 0.8983 0.55969 0.0
H3658 H 0.25424 0.88744 0.55089 0.0
H3659 H 0.27148 0.9047 0.51589 0.0
H3660 H 0.2839 0.86442 0.46614 0.0
H3661 H 0.27635 0.87767 0.48392 0.0
H3662 H 0.2708 0.85696 0.51971 0.0
C3663 C 0.2488 0.89394 0.54477 0.0
C3664 C 0.27146 0.8943 0.51702 0.0
C3665 C 0.23788 0.90017 0.5498 0.0
C3666 C 0.28623 0.86148 0.4759 0.0
C3667 C 0.28201 0.86914 0.48609 0.0
C3668 C 0.27135 0.86739 0.51911 0.0
C3669 C 0.25246 0.89589 0.53183 0.0
C3670 C 0.26301 0.88832 0.52578 0.0
C3671 C 0.28456 0.86559 0.49892 0.0
C3672 C 0.27886 0.87334 0.50951 0.0
H3673 H 0.22867 0.91661 0.52279 0.0
H3674 H 0.24762 0.90594 0.5141 0.0
H3675 H 0.25702 0.86995 0.53381 0.0
H3676 H 0.30151 0.83795 0.49312 0.0
H3677 H 0.29374 0.85134 0.51116 0.0
C3678 C 0.86001 0.97467 0.78573 0.0
C3679 C 0.84893 0.977 0.79316 0.0
C3680 C 0.86772 0.98485 0.78156 0.0
C3681 C 0.86636 0.01832 0.77213 0.0
H3682 H 0.90352 0.01395 0.77054 0.0
C3683 C 0.89951 0.04914 0.73878 0.0
C3684 C 0.90641 0.04105 0.73034 0.0
C3685 C 0.89341 0.04395 0.74971 0.0
C3686 C 0.89317 0.01542 0.77105 0.0
H3687 H 0.83727 0.99182 0.80221 0.0
H3688 H 0.85073 0.00986 0.79457 0.0
H3689 H 0.89069 0.99981 0.78434 0.0
H3690 H 0.91286 0.02144 0.72694 0.0
H3691 H 0.90251 0.0125 0.746 0.0
H3692 H 0.86883 0.03348 0.75823 0.0
C3693 C 0.85345 6e-05 0.79213 0.0
C3694 C 0.88584 0.00733 0.77892 0.0
C3695 C 0.84578 0.98977 0.7965 0.0
C3696 C 0.90757 0.02788 0.73326 0.0
C3697 C 0.90173 0.02279 0.74423 0.0
C3698 C 0.87373 0.02647 0.76425 0.0
C3699 C 0.86449 0.99765 0.7846 0.0
C3700 C 0.87231 0.00827 0.77904 0.0
C3701 C 0.89442 0.0307 0.75246 0.0
C3702 C 0.88713 0.02465 0.76318 0.0
H3703 H 0.86272 0.96493 0.78304 0.0
H3704 H 0.87602 0.98269 0.77558 0.0
H3705 H 0.85595 0.01925 0.77201 0.0
H3706 H 0.89845 0.05932 0.73669 0.0
H3707 H 0.88779 0.05023 0.75589 0.0
C3708 C 0.76025 0.59438 0.045 0.0
C3709 C 0.77297 0.59685 0.04097 0.0
C3710 C 0.75004 0.60202 0.04041 0.0
C3711 C 0.74309 0.63392 0.02679 0.0
H3712 H 0.71689 0.61758 0.00563 0.0
C3713 C 0.72196 0.65823 0.98264 0.0
C3714 C 0.70904 0.65628 0.97907 0.0
C3715 C 0.72713 0.65194 0.99332 0.0
C3716 C 0.7239 0.62231 0.01178 0.0
H3717 H 0.78505 0.60938 0.02934 0.0
H3718 H 0.76741 0.62278 0.02164 0.0
H3719 H 0.73099 0.60429 0.01918 0.0
H3720 H 0.69125 0.64649 0.9841 0.0
H3721 H 0.70042 0.63524 0.00287 0.0
H3722 H 0.73649 0.65187 0.01903 0.0
C3723 C 0.76526 0.61495 0.02823 0.0
C3724 C 0.73197 0.6147 0.01952 0.0
C3725 C 0.77535 0.6072 0.03256 0.0
C3726 C 0.70125 0.64817 0.98666 0.0
C3727 C 0.7065 0.64171 0.99735 0.0
C3728 C 0.73501 0.64152 0.01916 0.0
C3729 C 0.75251 0.61242 0.03204 0.0
C3730 C 0.74201 0.62042 0.0266 0.0
C3731 C 0.71955 0.64344 0.0007 0.0
C3732 C 0.72576 0.63575 0.01108 0.0
H3733 H 0.75818 0.58643 0.05147 0.0
H3734 H 0.74026 0.59987 0.04342 0.0
H3735 H 0.75067 0.63856 0.03231 0.0
H3736 H 0.7282 0.66444 0.97699 0.0
H3737 H 0.73727 0.65332 0.99547 0.0
C3738 C 0.19926 0.64925 0.48962 0.0
C3739 C 0.20823 0.65433 0.4808 0.0
C3740 C 0.20352 0.64314 0.50093 0.0
C3741 C 0.2319 0.63968 0.52234 0.0
H3742 H 0.22106 0.60409 0.52644 0.0
C3743 C 0.25777 0.59064 0.53703 0.0
C3744 C 0.26461 0.59448 0.54808 0.0
C3745 C 0.24749 0.59803 0.53245 0.0
C3746 C 0.22405 0.61407 0.52555 0.0
H3747 H 0.22857 0.65754 0.4771 0.0
H3748 H 0.23596 0.64712 0.49678 0.0
H3749 H 0.20959 0.61813 0.51132 0.0
H3750 H 0.26554 0.60854 0.56354 0.0
H3751 H 0.24757 0.62161 0.55542 0.0
H3752 H 0.24688 0.63545 0.53588 0.0
C3753 C 0.22567 0.64779 0.49503 0.0
C3754 C 0.21743 0.62213 0.51697 0.0
C3755 C 0.22144 0.65366 0.4837 0.0
C3756 C 0.26044 0.60538 0.55498 0.0
C3757 C 0.2502 0.61287 0.5503 0.0
C3758 C 0.23847 0.63166 0.53096 0.0
C3759 C 0.21679 0.6423 0.50368 0.0
C3760 C 0.22167 0.63483 0.51487 0.0
C3761 C 0.24389 0.60948 0.53876 0.0
C3762 C 0.23498 0.61861 0.53222 0.0
H3763 H 0.18901 0.64963 0.48759 0.0
H3764 H 0.19649 0.63896 0.50744 0.0
H3765 H 0.23528 0.64949 0.521 0.0
H3766 H 0.26075 0.58224 0.53155 0.0
H3767 H 0.24295 0.5952 0.52346 0.0
C3768 C 0.75733 0.40229 0.95204 0.0
C3769 C 0.76973 0.39756 0.95482 0.0
C3770 C 0.74638 0.39581 0.95666 0.0
C3771 C 0.72821 0.386 0.97802 0.0
H3772 H 0.72671 0.34867 0.98059 0.0
C3773 C 0.71128 0.35954 0.0229 0.0
C3774 C 0.70439 0.34791 0.02193 0.0
C3775 C 0.7155 0.36594 0.01186 0.0
C3776 C 0.72676 0.35909 0.97975 0.0
H3777 H 0.78042 0.382 0.96385 0.0
H3778 H 0.76145 0.37069 0.97172 0.0
H3779 H 0.74147 0.35874 0.96522 0.0
H3780 H 0.69612 0.33404 0.00865 0.0
H3781 H 0.70386 0.34515 0.98914 0.0
H3782 H 0.71406 0.38636 0.99308 0.0
C3783 C 0.7601 0.37936 0.96603 0.0
C3784 C 0.73528 0.36485 0.97102 0.0
C3785 C 0.77098 0.38591 0.96163 0.0
C3786 C 0.70141 0.343 0.00964 0.0
C3787 C 0.70585 0.34933 0.99852 0.0
C3788 C 0.71975 0.38024 0.9868 0.0
C3789 C 0.74769 0.38437 0.96387 0.0
C3790 C 0.7365 0.37836 0.97049 0.0
C3791 C 0.71307 0.36079 0.99956 0.0
C3792 C 0.71938 0.36674 0.98816 0.0
H3793 H 0.75613 0.41127 0.94681 0.0
H3794 H 0.73692 0.39989 0.95486 0.0
H3795 H 0.72896 0.39643 0.97786 0.0
H3796 H 0.71365 0.36359 0.03225 0.0
H3797 H 0.72121 0.37463 0.013 0.0
C3798 C 0.34596 0.50885 0.20284 0.0
C3799 C 0.34911 0.5216 0.20627 0.0
C3800 C 0.35362 0.49854 0.20715 0.0
C3801 C 0.38597 0.49114 0.22034 0.0
H3802 H 0.36883 0.46539 0.24142 0.0
C3803 C 0.40754 0.47131 0.26637 0.0
C3804 C 0.40627 0.45821 0.26955 0.0
C3805 C 0.40176 0.47622 0.25528 0.0
C3806 C 0.37377 0.47228 0.23529 0.0
H3807 H 0.36292 0.53362 0.21643 0.0
H3808 H 0.37624 0.51582 0.22375 0.0
H3809 H 0.35602 0.47948 0.22744 0.0
H3810 H 0.39819 0.43987 0.26356 0.0
H3811 H 0.38764 0.44864 0.24415 0.0
H3812 H 0.40362 0.48456 0.22882 0.0
C3813 C 0.36793 0.51369 0.21777 0.0
C3814 C 0.36644 0.48034 0.22729 0.0
C3815 C 0.36022 0.5239 0.21368 0.0
C3816 C 0.39933 0.45001 0.26126 0.0
C3817 C 0.39329 0.45501 0.25022 0.0
C3818 C 0.39327 0.48313 0.22832 0.0
C3819 C 0.36467 0.50091 0.21467 0.0
C3820 C 0.37244 0.49027 0.22025 0.0
C3821 C 0.39441 0.46819 0.24719 0.0
C3822 C 0.38718 0.47406 0.23635 0.0
H3823 H 0.33742 0.50685 0.19714 0.0
H3824 H 0.35089 0.48876 0.20468 0.0
H3825 H 0.39085 0.49857 0.21483 0.0
H3826 H 0.41287 0.47783 0.27256 0.0
H3827 H 0.40263 0.48645 0.2533 0.0
C3828 C 0.24057 0.0936 0.45572 0.0
C3829 C 0.22817 0.0988 0.45397 0.0
C3830 C 0.25003 0.10066 0.46239 0.0
C3831 C 0.25117 0.12572 0.48729 0.0
H3832 H 0.28769 0.12876 0.47963 0.0
C3833 C 0.28162 0.16104 0.51546 0.0
C3834 C 0.29289 0.15617 0.52116 0.0
C3835 C 0.27546 0.15425 0.50564 0.0
C3836 C 0.27752 0.12789 0.48189 0.0
H3837 H 0.21625 0.11578 0.45671 0.0
H3838 H 0.2327 0.12812 0.46794 0.0
H3839 H 0.27358 0.11628 0.46512 0.0
H3840 H 0.30711 0.14085 0.52048 0.0
H3841 H 0.29614 0.12876 0.50325 0.0
H3842 H 0.25492 0.1372 0.50396 0.0
C3843 C 0.23508 0.11849 0.46461 0.0
C3844 C 0.26947 0.12076 0.47362 0.0
C3845 C 0.22566 0.11145 0.45812 0.0
C3846 C 0.29841 0.1448 0.51623 0.0
C3847 C 0.29216 0.1379 0.50638 0.0
C3848 C 0.25913 0.13279 0.49546 0.0
C3849 C 0.24719 0.11301 0.46729 0.0
C3850 C 0.25615 0.11985 0.47614 0.0
C3851 C 0.28035 0.14235 0.50136 0.0
C3852 C 0.27233 0.13419 0.49274 0.0
H3853 H 0.24272 0.08386 0.45259 0.0
H3854 H 0.25929 0.0962 0.4643 0.0
H3855 H 0.24104 0.12486 0.48974 0.0
H3856 H 0.27724 0.16988 0.51894 0.0
H3857 H 0.26653 0.15806 0.50174 0.0
C3858 C 0.78642 0.36168 0.4745 0.0
C3859 C 0.79375 0.35046 0.47644 0.0
C3860 C 0.78237 0.36909 0.48494 0.0
C3861 C 0.77291 0.3666 0.51832 0.0
H3862 H 0.77143 0.40389 0.51519 0.0
C3863 C 0.73925 0.39881 0.54982 0.0
C3864 C 0.73084 0.40582 0.5418 0.0
C3865 C 0.75028 0.39291 0.5446 0.0
C3866 C 0.77192 0.39351 0.51632 0.0
H3867 H 0.80275 0.33823 0.49083 0.0
H3868 H 0.7953 0.35116 0.50933 0.0
H3869 H 0.78529 0.39152 0.50071 0.0
H3870 H 0.72759 0.4127 0.52232 0.0
H3871 H 0.74682 0.40273 0.51334 0.0
H3872 H 0.75892 0.3686 0.53346 0.0
C3873 C 0.79286 0.35423 0.49964 0.0
C3874 C 0.77983 0.38643 0.50804 0.0
C3875 C 0.79712 0.34687 0.48909 0.0
C3876 C 0.73389 0.40731 0.5287 0.0
C3877 C 0.74496 0.40169 0.52358 0.0
C3878 C 0.765 0.37372 0.52666 0.0
C3879 C 0.78542 0.36541 0.49763 0.0
C3880 C 0.77989 0.37287 0.50852 0.0
C3881 C 0.75316 0.39425 0.5314 0.0
C3882 C 0.76396 0.38717 0.52528 0.0
H3883 H 0.7837 0.36472 0.46487 0.0
H3884 H 0.77645 0.37751 0.48308 0.0
H3885 H 0.77275 0.35616 0.51888 0.0
H3886 H 0.73706 0.39749 0.55995 0.0
H3887 H 0.75644 0.38718 0.55081 0.0
C3888 C 0.38928 0.03577 0.22436 0.0
C3889 C 0.40032 0.04325 0.22674 0.0
C3890 C 0.38167 0.0314 0.23452 0.0
C3891 C 0.3833 0.0215 0.26785 0.0
H3892 H 0.34614 0.01956 0.26356 0.0
C3893 C 0.35046 0.98732 0.29816 0.0
C3894 C 0.34376 0.97888 0.28992 0.0
C3895 C 0.35646 0.99839 0.29316 0.0
C3896 C 0.35648 0.02017 0.26501 0.0
H3897 H 0.41201 0.05218 0.24162 0.0
H3898 H 0.3987 0.04419 0.25962 0.0
H3899 H 0.35876 0.03374 0.24962 0.0
H3900 H 0.33754 0.97561 0.27021 0.0
H3901 H 0.34767 0.99493 0.2616 0.0
H3902 H 0.38103 0.00732 0.28278 0.0
C3903 C 0.39595 0.04187 0.2498 0.0
C3904 C 0.3637 0.02826 0.25704 0.0
C3905 C 0.40352 0.04643 0.23954 0.0
C3906 C 0.34268 0.98193 0.27678 0.0
C3907 C 0.3484 0.99305 0.27186 0.0
C3908 C 0.37604 0.0134 0.27589 0.0
C3909 C 0.38494 0.03429 0.24735 0.0
C3910 C 0.37723 0.0285 0.25793 0.0
C3911 C 0.35551 0.0013 0.27994 0.0
C3912 C 0.36265 0.01221 0.27408 0.0
H3913 H 0.38654 0.03318 0.2146 0.0
H3914 H 0.3734 0.02539 0.23232 0.0
H3915 H 0.39371 0.02148 0.26873 0.0
H3916 H 0.35146 0.98513 0.30834 0.0
H3917 H 0.36193 0.00459 0.29956 0.0
C3918 C 0.59154 0.47251 0.73306 0.0
C3919 C 0.59298 0.45946 0.72974 0.0
C3920 C 0.59732 0.47742 0.74415 0.0
C3921 C 0.62549 0.47381 0.76399 0.0
H3922 H 0.60799 0.49952 0.78484 0.0
C3923 C 0.6527 0.51038 0.79709 0.0
C3924 C 0.64931 0.52313 0.79391 0.0
C3925 C 0.64523 0.50001 0.79257 0.0
C3926 C 0.613 0.49225 0.77922 0.0
H3927 H 0.6014 0.44121 0.7355 0.0
H3928 H 0.61196 0.44998 0.75493 0.0
H3929 H 0.59545 0.48546 0.77069 0.0
H3930 H 0.63526 0.53507 0.78399 0.0
H3931 H 0.62228 0.51717 0.77632 0.0
H3932 H 0.64313 0.48123 0.77193 0.0
C3933 C 0.60616 0.4563 0.74895 0.0
C3934 C 0.60582 0.48422 0.77114 0.0
C3935 C 0.60011 0.4513 0.7379 0.0
C3936 C 0.63815 0.52535 0.78655 0.0
C3937 C 0.63063 0.51509 0.78226 0.0
C3938 C 0.6327 0.4819 0.77209 0.0
C3939 C 0.60486 0.46945 0.75212 0.0
C3940 C 0.61205 0.47535 0.76299 0.0
C3941 C 0.63413 0.5023 0.78508 0.0
C3942 C 0.62654 0.49162 0.77929 0.0
H3943 H 0.58607 0.47901 0.72696 0.0
H3944 H 0.5963 0.48762 0.74622 0.0
H3945 H 0.63053 0.46709 0.75777 0.0
H3946 H 0.66128 0.50843 0.80274 0.0
H3947 H 0.64815 0.49023 0.79484 0.0
C3948 C 0.48843 0.29882 0.85223 0.0
C3949 C 0.481 0.29043 0.84458 0.0
C3950 C 0.49965 0.29432 0.85835 0.0
C3951 C 0.52355 0.26784 0.85784 0.0
H3952 H 0.52237 0.26923 0.89523 0.0
C3953 C 0.53889 0.22603 0.88921 0.0
C3954 C 0.54518 0.22801 0.90104 0.0
C3955 C 0.53485 0.23647 0.88178 0.0
C3956 C 0.52309 0.26903 0.8848 0.0
H3957 H 0.47974 0.27108 0.83673 0.0
H3958 H 0.49932 0.26335 0.8471 0.0
H3959 H 0.50811 0.28314 0.88254 0.0
H3960 H 0.55248 0.24244 0.91429 0.0
H3961 H 0.54504 0.26093 0.90131 0.0
H3962 H 0.53794 0.25319 0.86006 0.0
C3963 C 0.49654 0.27334 0.84848 0.0
C3964 C 0.51493 0.27699 0.87754 0.0
C3965 C 0.48527 0.27774 0.84262 0.0
C3966 C 0.54765 0.24069 0.90518 0.0
C3967 C 0.54339 0.25122 0.89779 0.0
C3968 C 0.53171 0.25994 0.86507 0.0
C3969 C 0.50372 0.28149 0.8566 0.0
C3970 C 0.51464 0.27597 0.86401 0.0
C3971 C 0.53688 0.24918 0.88605 0.0
C3972 C 0.53107 0.25996 0.87862 0.0
H3973 H 0.48529 0.30865 0.85392 0.0
H3974 H 0.50501 0.30076 0.8646 0.0
H3975 H 0.52365 0.26701 0.84741 0.0
H3976 H 0.53689 0.21637 0.88574 0.0
H3977 H 0.52966 0.23455 0.87291 0.0
C3978 C 0.51478 0.19574 0.36263 0.0
C3979 C 0.51621 0.19832 0.34943 0.0
C3980 C 0.50396 0.2002 0.36932 0.0
C3981 C 0.4728 0.21865 0.36514 0.0
H3982 H 0.48241 0.23211 0.39873 0.0
C3983 C 0.45575 0.26637 0.38757 0.0
C3984 C 0.45228 0.26652 0.40067 0.0
C3985 C 0.45999 0.25498 0.38178 0.0
C3986 C 0.47946 0.22819 0.38949 0.0
H3987 H 0.50733 0.20699 0.33265 0.0
H3988 H 0.48888 0.21557 0.34436 0.0
H3989 H 0.49684 0.21745 0.38768 0.0
H3990 H 0.45 0.25489 0.41789 0.0
H3991 H 0.45802 0.23495 0.40783 0.0
H3992 H 0.45593 0.23061 0.36666 0.0
C3993 C 0.49572 0.20967 0.3496 0.0
C3994 C 0.48772 0.21968 0.38311 0.0
C3995 C 0.50635 0.20482 0.34284 0.0
C3996 C 0.45258 0.25497 0.40776 0.0
C3997 C 0.45716 0.24362 0.40203 0.0
C3998 C 0.46468 0.22743 0.37143 0.0
C3999 C 0.4946 0.20782 0.36305 0.0
C4000 C 0.48471 0.21506 0.37066 0.0
C4001 C 0.46111 0.24361 0.38905 0.0
C4002 C 0.46812 0.2325 0.38351 0.0
H4003 H 0.52223 0.1906 0.36788 0.0
H4004 H 0.50327 0.19813 0.37954 0.0
H4005 H 0.46993 0.21508 0.35575 0.0
H4006 H 0.45554 0.27516 0.3819 0.0
H4007 H 0.46313 0.25526 0.3718 0.0
C4008 C 0.48052 0.79353 0.36294 0.0
C4009 C 0.48045 0.79683 0.3498 0.0
C4010 C 0.49181 0.78911 0.36881 0.0
C4011 C 0.51873 0.76939 0.36126 0.0
H4012 H 0.53146 0.77893 0.39514 0.0
C4013 C 0.55213 0.73478 0.38798 0.0
C4014 C 0.5495 0.7331 0.40115 0.0
C4015 C 0.5473 0.74549 0.38137 0.0
C4016 C 0.52799 0.77606 0.38571 0.0
H4017 H 0.49215 0.79862 0.33256 0.0
H4018 H 0.5119 0.79036 0.34276 0.0
H4019 H 0.51583 0.79277 0.38418 0.0
H4020 H 0.54038 0.74149 0.41795 0.0
H4021 H 0.53126 0.75977 0.40636 0.0
H4022 H 0.52978 0.75218 0.36305 0.0
C4023 C 0.50325 0.79144 0.34853 0.0
C4024 C 0.51914 0.78408 0.3794 0.0
C4025 C 0.49199 0.79617 0.34273 0.0
C4026 C 0.5426 0.74265 0.40779 0.0
C4027 C 0.53743 0.75318 0.4011 0.0
C4028 C 0.52733 0.76124 0.36765 0.0
C4029 C 0.50317 0.78766 0.36157 0.0
C4030 C 0.51422 0.78065 0.36725 0.0
C4031 C 0.53933 0.75451 0.38768 0.0
C4032 C 0.53185 0.76426 0.38013 0.0
H4033 H 0.47174 0.79401 0.36861 0.0
H4034 H 0.49146 0.78612 0.37882 0.0
H4035 H 0.51493 0.76643 0.35197 0.0
H4036 H 0.55757 0.72758 0.38269 0.0
H4037 H 0.5494 0.74637 0.37117 0.0
C4038 C 0.50853 0.70421 0.84344 0.0
C4039 C 0.52099 0.70666 0.84822 0.0
C4040 C 0.49765 0.70849 0.85028 0.0
C4041 C 0.48705 0.71932 0.88251 0.0
H4042 H 0.46568 0.74432 0.86464 0.0
C4043 C 0.46835 0.76457 0.90651 0.0
C4044 C 0.45626 0.76975 0.90329 0.0
C4045 C 0.47285 0.75347 0.90042 0.0
C4046 C 0.47128 0.7371 0.86973 0.0
H4047 H 0.53188 0.71495 0.86405 0.0
H4048 H 0.51304 0.72215 0.87601 0.0
H4049 H 0.48015 0.73035 0.85228 0.0
H4050 H 0.43918 0.76719 0.89149 0.0
H4051 H 0.44725 0.74774 0.88054 0.0
H4052 H 0.4788 0.72655 0.9 0.0
C4053 C 0.5116 0.717 0.86702 0.0
C4054 C 0.47957 0.72912 0.86265 0.0
C4055 C 0.52239 0.71298 0.86011 0.0
C4056 C 0.44853 0.76335 0.89415 0.0
C4057 C 0.45315 0.75228 0.88788 0.0
C4058 C 0.47876 0.72724 0.88956 0.0
C4059 C 0.49913 0.71496 0.86212 0.0
C4060 C 0.48799 0.72064 0.86905 0.0
C4061 C 0.46544 0.74733 0.89086 0.0
C4062 C 0.47131 0.73668 0.8833 0.0
H4063 H 0.50722 0.69936 0.83427 0.0
H4064 H 0.48812 0.70686 0.84629 0.0
H4065 H 0.49332 0.71271 0.88765 0.0
H4066 H 0.47449 0.76928 0.91354 0.0
H4067 H 0.48245 0.75005 0.9028 0.0
C4068 C 0.65198 0.98905 0.70297 0.0
C4069 C 0.65017 0.97632 0.70734 0.0
C4070 C 0.64426 0.99908 0.70782 0.0
C4071 C 0.61295 0.00489 0.72343 0.0
H4072 H 0.6293 0.03298 0.74202 0.0
C4073 C 0.59205 0.02587 0.76918 0.0
C4074 C 0.59234 0.0392 0.7715 0.0
C4075 C 0.59788 0.02071 0.75823 0.0
C4076 C 0.62455 0.02541 0.73658 0.0
H4077 H 0.63882 0.96407 0.71997 0.0
H4078 H 0.62536 0.98139 0.72818 0.0
H4079 H 0.64231 0.01904 0.72799 0.0
H4080 H 0.59881 0.05769 0.76414 0.0
H4081 H 0.60943 0.04852 0.74494 0.0
H4082 H 0.59537 0.0107 0.73256 0.0
C4083 C 0.63268 0.98368 0.72107 0.0
C4084 C 0.632 0.01744 0.72858 0.0
C4085 C 0.64047 0.97377 0.71644 0.0
C4086 C 0.59842 0.04736 0.76252 0.0
C4087 C 0.60451 0.04214 0.7516 0.0
C4088 C 0.60555 0.01282 0.73138 0.0
C4089 C 0.63447 0.99642 0.71683 0.0
C4090 C 0.62634 0.00674 0.72245 0.0
C4091 C 0.60429 0.02874 0.7494 0.0
C4092 C 0.61139 0.02275 0.73853 0.0
H4093 H 0.65942 0.99126 0.69597 0.0
H4094 H 0.64585 0.00886 0.70447 0.0
H4095 H 0.60834 0.99681 0.71865 0.0
H4096 H 0.5874 0.01935 0.77591 0.0
H4097 H 0.59773 0.01034 0.75692 0.0
C4098 C 0.63873 0.47474 0.21479 0.0
C4099 C 0.64934 0.47702 0.20669 0.0
C4100 C 0.63101 0.4849 0.21894 0.0
C4101 C 0.63191 0.51874 0.22692 0.0
H4102 H 0.59503 0.51335 0.23061 0.0
C4103 C 0.59903 0.54961 0.26071 0.0
C4104 C 0.59318 0.54153 0.26991 0.0
C4105 C 0.60486 0.54428 0.24971 0.0
C4106 C 0.60528 0.51511 0.22948 0.0
H4107 H 0.66016 0.49171 0.19645 0.0
H4108 H 0.64666 0.50973 0.20405 0.0
H4109 H 0.60755 0.49912 0.21663 0.0
H4110 H 0.58832 0.52173 0.27464 0.0
H4111 H 0.59815 0.51253 0.25543 0.0
H4112 H 0.62968 0.53431 0.24041 0.0
C4113 C 0.64433 0.49998 0.20703 0.0
C4114 C 0.61244 0.50697 0.22152 0.0
C4115 C 0.65201 0.48971 0.20269 0.0
C4116 C 0.59281 0.52817 0.26773 0.0
C4117 C 0.59834 0.52292 0.25668 0.0
C4118 C 0.6247 0.52695 0.23489 0.0
C4119 C 0.63374 0.49764 0.2152 0.0
C4120 C 0.62591 0.50828 0.22069 0.0
C4121 C 0.60456 0.53087 0.24764 0.0
C4122 C 0.61144 0.52477 0.23672 0.0
H4123 H 0.6364 0.46506 0.21801 0.0
H4124 H 0.62308 0.4828 0.22543 0.0
H4125 H 0.64228 0.51995 0.22648 0.0
H4126 H 0.59946 0.55994 0.26223 0.0
H4127 H 0.60966 0.55058 0.24288 0.0
C4128 C 0.08714 0.32841 0.05461 0.0
C4129 C 0.08788 0.31964 0.06491 0.0
C4130 C 0.0979 0.33563 0.05099 0.0
C4131 C 0.13331 0.33985 0.05579 0.0
H4132 H 0.1248 0.37589 0.0502 0.0
C4133 C 0.17032 0.3815 0.06005 0.0
C4134 C 0.16923 0.39192 0.05143 0.0
C4135 C 0.16119 0.37157 0.05999 0.0
C4136 C 0.12736 0.36583 0.05151 0.0
H4137 H 0.10059 0.31097 0.07905 0.0
H4138 H 0.11943 0.32387 0.07296 0.0
H4139 H 0.10761 0.36025 0.053 0.0
H4140 H 0.158 0.3999 0.03569 0.0
H4141 H 0.14205 0.38254 0.03555 0.0
H4142 H 0.15315 0.34565 0.05468 0.0
C4143 C 0.11058 0.32502 0.06753 0.0
C4144 C 0.11748 0.35683 0.0531 0.0
C4145 C 0.09979 0.31764 0.07104 0.0
C4146 C 0.15905 0.39203 0.04249 0.0
C4147 C 0.14989 0.38211 0.04246 0.0
C4148 C 0.14323 0.34891 0.05424 0.0
C4149 C 0.10962 0.33442 0.05774 0.0
C4150 C 0.1203 0.34373 0.05533 0.0
C4151 C 0.15075 0.37187 0.05134 0.0
C4152 C 0.14035 0.36202 0.05216 0.0
H4153 H 0.07809 0.33002 0.04962 0.0
H4154 H 0.09691 0.3425 0.04317 0.0
H4155 H 0.13582 0.32982 0.05736 0.0
H4156 H 0.17809 0.38114 0.06704 0.0
H4157 H 0.16206 0.36391 0.06705 0.0
C4158 C 0.93566 0.35256 0.31692 0.0
C4159 C 0.93461 0.34099 0.30993 0.0
C4160 C 0.9286 0.36345 0.31316 0.0
C4161 C 0.89845 0.37082 0.29599 0.0
H4162 H 0.90873 0.40642 0.30125 0.0
C4163 C 0.86299 0.41261 0.28694 0.0
C4164 C 0.86244 0.42196 0.29675 0.0
C4165 C 0.87308 0.40365 0.2866 0.0
C4166 C 0.90572 0.39651 0.29976 0.0
H4167 H 0.9263 0.33203 0.29294 0.0
H4168 H 0.91431 0.35108 0.28618 0.0
H4169 H 0.92462 0.38917 0.30388 0.0
H4170 H 0.87225 0.42954 0.31363 0.0
H4171 H 0.88975 0.41385 0.31312 0.0
H4172 H 0.87952 0.37806 0.2922 0.0
C4173 C 0.92024 0.35168 0.29477 0.0
C4174 C 0.91482 0.38664 0.30127 0.0
C4175 C 0.92719 0.34079 0.29859 0.0
C4176 C 0.8724 0.42244 0.30595 0.0
C4177 C 0.88249 0.4135 0.30561 0.0
C4178 C 0.88939 0.38066 0.29446 0.0
C4179 C 0.92045 0.36298 0.30229 0.0
C4180 C 0.91125 0.37366 0.29956 0.0
C4181 C 0.88284 0.40388 0.29605 0.0
C4182 C 0.89286 0.39361 0.29651 0.0
H4183 H 0.94128 0.35296 0.32573 0.0
H4184 H 0.92895 0.37197 0.31921 0.0
H4185 H 0.89527 0.36093 0.29486 0.0
H4186 H 0.85548 0.41205 0.27968 0.0
H4187 H 0.87317 0.39645 0.27902 0.0
C4188 C 0.83265 0.11704 0.56213 0.0
C4189 C 0.83321 0.10704 0.55299 0.0
C4190 C 0.84173 0.12701 0.56196 0.0
C4191 C 0.87479 0.13384 0.55152 0.0
H4192 H 0.86566 0.16949 0.5585 0.0
C4193 C 0.914 0.17246 0.55298 0.0
C4194 C 0.91358 0.18101 0.56348 0.0
C4195 C 0.90328 0.16496 0.54984 0.0
C4196 C 0.86837 0.15957 0.55661 0.0
H4197 H 0.84355 0.09974 0.53633 0.0
H4198 H 0.85947 0.11716 0.53603 0.0
H4199 H 0.84868 0.1532 0.55663 0.0
H4200 H 0.90142 0.18902 0.57848 0.0
H4201 H 0.8827 0.17564 0.57321 0.0
H4202 H 0.89443 0.13999 0.55188 0.0
C4203 C 0.85205 0.11723 0.5434 0.0
C4204 C 0.85864 0.15025 0.55552 0.0
C4205 C 0.84293 0.10729 0.54354 0.0
C4206 C 0.90197 0.18253 0.5703 0.0
C4207 C 0.89125 0.17487 0.56726 0.0
C4208 C 0.88448 0.14311 0.55265 0.0
C4209 C 0.85161 0.12715 0.55267 0.0
C4210 C 0.86177 0.13726 0.55306 0.0
C4211 C 0.89194 0.16567 0.55726 0.0
C4212 C 0.88142 0.15609 0.55528 0.0
H4213 H 0.82525 0.11712 0.56952 0.0
H4214 H 0.84122 0.13441 0.56933 0.0
H4215 H 0.87754 0.12389 0.54986 0.0
H4216 H 0.9228 0.17122 0.54747 0.0
H4217 H 0.90404 0.15825 0.54185 0.0
C4218 C 0.13452 0.08775 0.79264 0.0
C4219 C 0.13643 0.0779 0.80176 0.0
C4220 C 0.12377 0.09589 0.79353 0.0
C4221 C 0.10143 0.1086 0.81781 0.0
H4222 H 0.08239 0.12154 0.78831 0.0
C4223 C 0.06235 0.14713 0.8247 0.0
C4224 C 0.06311 0.15758 0.81611 0.0
C4225 C 0.06893 0.13564 0.82206 0.0
C4226 C 0.08764 0.11805 0.79664 0.0
H4227 H 0.12829 0.06846 0.8186 0.0
H4228 H 0.10957 0.0826 0.8201 0.0
H4229 H 0.09879 0.10485 0.78522 0.0
H4230 H 0.07063 0.16392 0.79763 0.0
H4231 H 0.08226 0.14407 0.79315 0.0
H4232 H 0.09076 0.12204 0.82919 0.0
C4233 C 0.11645 0.08416 0.81238 0.0
C4234 C 0.09703 0.1085 0.79486 0.0
C4235 C 0.12715 0.07604 0.81148 0.0
C4236 C 0.06987 0.15604 0.80446 0.0
C4237 C 0.0765 0.1446 0.80185 0.0
C4238 C 0.09213 0.11817 0.81958 0.0
C4239 C 0.11476 0.09434 0.80357 0.0
C4240 C 0.10413 0.10379 0.80542 0.0
C4241 C 0.07645 0.1344 0.81081 0.0
C4242 C 0.08523 0.12316 0.809 0.0
H4243 H 0.14151 0.0894 0.78504 0.0
H4244 H 0.12279 0.10371 0.78666 0.0
H4245 H 0.10687 0.10532 0.82612 0.0
H4246 H 0.05714 0.14802 0.83373 0.0
H4247 H 0.06846 0.12787 0.82905 0.0
C4248 C 0.08601 0.67261 0.94855 0.0
C4249 C 0.08631 0.68102 0.93794 0.0
C4250 C 0.09693 0.6655 0.95194 0.0
C4251 C 0.13203 0.66084 0.94501 0.0
H4252 H 0.12376 0.62514 0.95274 0.0
C4253 C 0.16774 0.61855 0.93821 0.0
C4254 C 0.16798 0.60888 0.94771 0.0
C4255 C 0.1586 0.62844 0.93875 0.0
C4256 C 0.12625 0.63511 0.95079 0.0
H4257 H 0.09839 0.68918 0.92297 0.0
H4258 H 0.1174 0.67644 0.92858 0.0
H4259 H 0.1065 0.64086 0.95086 0.0
H4260 H 0.15901 0.60207 0.96535 0.0
H4261 H 0.1429 0.61931 0.96621 0.0
H4262 H 0.15183 0.6548 0.94441 0.0
C4263 C 0.10884 0.6755 0.93449 0.0
C4264 C 0.11635 0.64417 0.94976 0.0
C4265 C 0.09794 0.6828 0.93124 0.0
C4266 C 0.15901 0.60937 0.95786 0.0
C4267 C 0.14979 0.61922 0.95834 0.0
C4268 C 0.14195 0.65172 0.94593 0.0
C4269 C 0.10832 0.66643 0.94462 0.0
C4270 C 0.11908 0.65714 0.94674 0.0
C4271 C 0.14944 0.62881 0.94874 0.0
C4272 C 0.13913 0.63873 0.94871 0.0
H4273 H 0.07718 0.67118 0.95397 0.0
H4274 H 0.09628 0.65892 0.96004 0.0
H4275 H 0.13451 0.67076 0.94285 0.0
H4276 H 0.17456 0.61844 0.93029 0.0
H4277 H 0.15846 0.63561 0.93113 0.0
C4278 C 0.5758 0.33726 0.20013 0.0
C4279 C 0.56788 0.33696 0.18914 0.0
C4280 C 0.58324 0.34814 0.20289 0.0
C4281 C 0.58943 0.38239 0.19381 0.0
H4282 H 0.62466 0.37341 0.2028 0.0
C4283 C 0.63245 0.41734 0.18758 0.0
C4284 C 0.64199 0.41744 0.19722 0.0
C4285 C 0.62247 0.40827 0.18791 0.0
C4286 C 0.61483 0.37612 0.2005 0.0
H4287 H 0.56086 0.34804 0.17286 0.0
H4288 H 0.57408 0.36702 0.17751 0.0
H4289 H 0.60842 0.35657 0.20139 0.0
H4290 H 0.64849 0.40828 0.21487 0.0
H4291 H 0.63105 0.3924 0.21546 0.0
H4292 H 0.59606 0.40196 0.19257 0.0
C4293 C 0.57443 0.35892 0.18411 0.0
C4294 C 0.60548 0.36646 0.19971 0.0
C4295 C 0.56686 0.34805 0.18143 0.0
C4296 C 0.6413 0.40838 0.20728 0.0
C4297 C 0.63134 0.39928 0.20759 0.0
C4298 C 0.59883 0.39207 0.19455 0.0
C4299 C 0.58306 0.3589 0.19462 0.0
C4300 C 0.59267 0.36944 0.19628 0.0
C4301 C 0.62185 0.39909 0.19787 0.0
C4302 C 0.61165 0.38901 0.1978 0.0
H4303 H 0.57667 0.32887 0.20631 0.0
H4304 H 0.5895 0.34792 0.21126 0.0
H4305 H 0.57964 0.38504 0.19128 0.0
H4306 H 0.63272 0.42422 0.17971 0.0
H4307 H 0.61542 0.40827 0.1802 0.0
C4308 C 0.83109 0.8822 0.43567 0.0
C4309 C 0.83108 0.89161 0.44545 0.0
C4310 C 0.84025 0.87231 0.4357 0.0
C4311 C 0.87277 0.86501 0.4474 0.0
H4312 H 0.8642 0.82974 0.43814 0.0
C4313 C 0.91218 0.82657 0.44603 0.0
C4314 C 0.91231 0.81852 0.43514 0.0
C4315 C 0.9013 0.83392 0.44897 0.0
C4316 C 0.86675 0.83956 0.44067 0.0
H4317 H 0.8405 0.89793 0.46303 0.0
H4318 H 0.85656 0.88066 0.46306 0.0
H4319 H 0.84705 0.84587 0.43996 0.0
H4320 H 0.90095 0.81124 0.41916 0.0
H4321 H 0.88196 0.82436 0.42408 0.0
H4322 H 0.89244 0.85894 0.44774 0.0
C4323 C 0.84952 0.88099 0.45533 0.0
C4324 C 0.85694 0.84879 0.44172 0.0
C4325 C 0.84032 0.89085 0.45534 0.0
C4326 C 0.90107 0.81735 0.42765 0.0
C4327 C 0.8902 0.82486 0.4305 0.0
C4328 C 0.88256 0.85583 0.44629 0.0
C4329 C 0.84964 0.87166 0.44547 0.0
C4330 C 0.85987 0.86163 0.44502 0.0
C4331 C 0.89035 0.83355 0.44095 0.0
C4332 C 0.8797 0.843 0.44285 0.0
H4333 H 0.82406 0.88253 0.42793 0.0
H4334 H 0.84018 0.86537 0.42788 0.0
H4335 H 0.87537 0.87487 0.44972 0.0
H4336 H 0.92068 0.82754 0.45206 0.0
H4337 H 0.90163 0.84023 0.4573 0.0
C4338 C 0.35888 0.09152 0.70412 0.0
C4339 C 0.35883 0.08062 0.69608 0.0
C4340 C 0.36922 0.10019 0.7038 0.0
C4341 C 0.39604 0.11055 0.68255 0.0
H4342 H 0.40667 0.12969 0.71292 0.0
C4343 C 0.43521 0.14995 0.67986 0.0
C4344 C 0.43088 0.16187 0.68466 0.0
C4345 C 0.42845 0.1386 0.68275 0.0
C4346 C 0.40384 0.12436 0.70438 0.0
H4347 H 0.36975 0.06994 0.68177 0.0
H4348 H 0.38793 0.08481 0.68147 0.0
H4349 H 0.39077 0.1124 0.71501 0.0
H4350 H 0.4167 0.17121 0.69689 0.0
H4351 H 0.40506 0.15145 0.70206 0.0
H4352 H 0.40902 0.12261 0.67193 0.0
C4353 C 0.37986 0.08692 0.68777 0.0
C4354 C 0.39466 0.11452 0.70554 0.0
C4355 C 0.36945 0.07835 0.68798 0.0
C4356 C 0.42021 0.16215 0.69302 0.0
C4357 C 0.41359 0.15083 0.69604 0.0
C4358 C 0.4053 0.12029 0.68142 0.0
C4359 C 0.37981 0.09805 0.69554 0.0
C4360 C 0.39044 0.10769 0.69459 0.0
C4361 C 0.41741 0.139 0.69065 0.0
C4362 C 0.40908 0.12747 0.69227 0.0
H4363 H 0.35079 0.09351 0.71045 0.0
H4364 H 0.36874 0.10875 0.70979 0.0
H4365 H 0.39291 0.10566 0.67386 0.0
H4366 H 0.4434 0.14948 0.67338 0.0
H4367 H 0.43163 0.12958 0.67853 0.0
C4368 C 0.04981 0.1737 0.37834 0.0
C4369 C 0.04779 0.17006 0.39126 0.0
C4370 C 0.04965 0.16446 0.36851 0.0
C4371 C 0.04035 0.13068 0.36097 0.0
H4372 H 0.06985 0.13177 0.33793 0.0
C4373 C 0.06097 0.08556 0.33701 0.0
C4374 C 0.06599 0.08622 0.32443 0.0
C4375 C 0.05657 0.09663 0.34323 0.0
C4376 C 0.0614 0.13145 0.34408 0.0
H4377 H 0.04348 0.154 0.40395 0.0
H4378 H 0.04328 0.13785 0.38684 0.0
H4379 H 0.06583 0.14976 0.35254 0.0
H4380 H 0.07006 0.09897 0.30835 0.0
H4381 H 0.06239 0.11852 0.31934 0.0
H4382 H 0.0362 0.11216 0.35282 0.0
C4383 C 0.04487 0.14786 0.38426 0.0
C4384 C 0.05909 0.14176 0.35248 0.0
C4385 C 0.04505 0.1571 0.39409 0.0
C4386 C 0.06626 0.09819 0.31806 0.0
C4387 C 0.06191 0.10936 0.32436 0.0
C4388 C 0.04265 0.12039 0.35258 0.0
C4389 C 0.04743 0.15139 0.3714 0.0
C4390 C 0.04876 0.14132 0.36127 0.0
C4391 C 0.0571 0.10869 0.33705 0.0
C4392 C 0.05343 0.12048 0.34432 0.0
H4393 H 0.05189 0.18365 0.37586 0.0
H4394 H 0.05149 0.16751 0.35868 0.0
H4395 H 0.03217 0.13017 0.36746 0.0
H4396 H 0.0606 0.07647 0.34217 0.0
H4397 H 0.05314 0.09579 0.35307 0.0
C4398 C 0.15128 0.3196 0.56787 0.0
C4399 C 0.16298 0.31295 0.5694 0.0
C4400 C 0.14055 0.31625 0.57538 0.0
C4401 C 0.13398 0.30116 0.60692 0.0
H4402 H 0.09817 0.30598 0.59721 0.0
C4403 C 0.09238 0.29356 0.64317 0.0
C4404 C 0.08314 0.30346 0.64347 0.0
C4405 C 0.10143 0.29296 0.63317 0.0
C4406 C 0.10814 0.30462 0.60005 0.0
H4407 H 0.17237 0.29688 0.57892 0.0
H4408 H 0.15356 0.29068 0.59157 0.0
H4409 H 0.11502 0.30752 0.58075 0.0
H4410 H 0.07593 0.32037 0.63342 0.0
H4411 H 0.09174 0.31937 0.61604 0.0
H4412 H 0.12716 0.29846 0.62621 0.0
C4413 C 0.15274 0.29879 0.58502 0.0
C4414 C 0.11779 0.30551 0.59063 0.0
C4415 C 0.16348 0.30226 0.5777 0.0
C4416 C 0.08297 0.31264 0.63348 0.0
C4417 C 0.09195 0.312 0.62345 0.0
C4418 C 0.12435 0.3002 0.61628 0.0
C4419 C 0.14132 0.3061 0.58439 0.0
C4420 C 0.13085 0.30397 0.594 0.0
C4421 C 0.10133 0.30222 0.62322 0.0
C4422 C 0.11136 0.30211 0.613 0.0
H4423 H 0.15068 0.32793 0.56157 0.0
H4424 H 0.13194 0.32214 0.57467 0.0
H4425 H 0.14393 0.30021 0.60996 0.0
H4426 H 0.09269 0.28631 0.65071 0.0
H4427 H 0.10849 0.28526 0.63319 0.0
C4428 C 0.94868 0.41105 0.82761 0.0
C4429 C 0.93783 0.41081 0.8195 0.0
C4430 C 0.95234 0.40005 0.83445 0.0
C4431 C 0.94647 0.36479 0.83848 0.0
H4432 H 0.95468 0.37251 0.87419 0.0
C4433 C 0.94292 0.32762 0.88004 0.0
C4434 C 0.95217 0.32822 0.88995 0.0
C4435 C 0.94291 0.33676 0.87012 0.0
C4436 C 0.95264 0.37016 0.86421 0.0
H4437 H 0.92271 0.39874 0.81158 0.0
H4438 H 0.92887 0.37952 0.82384 0.0
H4439 H 0.9516 0.39004 0.859 0.0
H4440 H 0.96897 0.33851 0.89699 0.0
H4441 H 0.96899 0.35448 0.87963 0.0
H4442 H 0.94711 0.34482 0.84395 0.0
C4443 C 0.9347 0.38815 0.82476 0.0
C4444 C 0.95088 0.38023 0.85546 0.0
C4445 C 0.93114 0.39916 0.81775 0.0
C4446 C 0.96169 0.33785 0.88951 0.0
C4447 C 0.96166 0.34702 0.87961 0.0
C4448 C 0.94818 0.35467 0.84729 0.0
C4449 C 0.9451 0.38861 0.83352 0.0
C4450 C 0.94771 0.3777 0.84249 0.0
C4451 C 0.95212 0.34672 0.86994 0.0
C4452 C 0.9512 0.35727 0.86027 0.0
H4453 H 0.95411 0.41988 0.829 0.0
H4454 H 0.96061 0.40066 0.84081 0.0
H4455 H 0.94416 0.36249 0.82855 0.0
H4456 H 0.93547 0.32028 0.88011 0.0
H4457 H 0.93537 0.33634 0.8629 0.0
C4458 C 0.84926 0.17622 0.06723 0.0
C4459 C 0.83844 0.18437 0.06751 0.0
C4460 C 0.86007 0.17899 0.07488 0.0
C4461 C 0.86734 0.19607 0.10516 0.0
H4462 H 0.90288 0.18763 0.09709 0.0
C4463 C 0.90835 0.20452 0.14182 0.0
C4464 C 0.91735 0.19447 0.14313 0.0
C4465 C 0.89951 0.20449 0.13162 0.0
C4466 C 0.89298 0.18997 0.0995 0.0
H4467 H 0.83084 0.20236 0.075 0.0
H4468 H 0.84977 0.20741 0.08796 0.0
H4469 H 0.88635 0.18579 0.08033 0.0
H4470 H 0.92425 0.17658 0.13471 0.0
H4471 H 0.90873 0.17644 0.11704 0.0
H4472 H 0.87384 0.20002 0.12433 0.0
C4473 C 0.84981 0.19867 0.08223 0.0
C4474 C 0.88352 0.18892 0.0899 0.0
C4475 C 0.839 0.19583 0.07472 0.0
C4476 C 0.91742 0.18447 0.13397 0.0
C4477 C 0.9086 0.18444 0.12377 0.0
C4478 C 0.87676 0.19713 0.11472 0.0
C4479 C 0.86024 0.19001 0.08284 0.0
C4480 C 0.87057 0.19188 0.09265 0.0
C4481 C 0.89949 0.19441 0.12251 0.0
C4482 C 0.88967 0.19399 0.11205 0.0
H4483 H 0.84904 0.16729 0.06179 0.0
H4484 H 0.86792 0.1721 0.07515 0.0
H4485 H 0.85742 0.19814 0.10773 0.0
H4486 H 0.90813 0.2124 0.1487 0.0
H4487 H 0.89271 0.21239 0.13084 0.0
C4488 C 0.04209 0.84297 0.60873 0.0
C4489 C 0.05195 0.83367 0.60849 0.0
C4490 C 0.04146 0.852 0.61875 0.0
C4491 C 0.05281 0.85852 0.65201 0.0
H4492 H 0.04861 0.8944 0.64233 0.0
C4493 C 0.06774 0.90124 0.6847 0.0
C4494 C 0.06117 0.91301 0.68331 0.0
C4495 C 0.06439 0.89063 0.67703 0.0
C4496 C 0.04951 0.88442 0.6453 0.0
H4497 H 0.06874 0.82637 0.61866 0.0
H4498 H 0.06766 0.84213 0.63609 0.0
H4499 H 0.04697 0.87773 0.62593 0.0
H4500 H 0.04523 0.92262 0.67377 0.0
H4501 H 0.03905 0.90402 0.66078 0.0
H4502 H 0.05553 0.86525 0.67138 0.0
C4503 C 0.06036 0.8424 0.62861 0.0
C4504 C 0.0486 0.87485 0.63585 0.0
C4505 C 0.06104 0.83344 0.61856 0.0
C4506 C 0.05054 0.91368 0.67493 0.0
C4507 C 0.04709 0.90305 0.6674 0.0
C4508 C 0.05364 0.8681 0.6615 0.0
C4509 C 0.05062 0.85184 0.62877 0.0
C4510 C 0.05045 0.86182 0.63906 0.0
C4511 C 0.05431 0.89158 0.66794 0.0
C4512 C 0.05218 0.88119 0.65823 0.0
H4513 H 0.03492 0.84333 0.60112 0.0
H4514 H 0.03379 0.85911 0.61867 0.0
H4515 H 0.05411 0.84852 0.6548 0.0
H4516 H 0.07602 0.90049 0.69104 0.0
H4517 H 0.07022 0.88198 0.67767 0.0
C4518 C 0.34941 0.31871 0.934 0.0
C4519 C 0.33783 0.31182 0.93253 0.0
C4520 C 0.36042 0.31509 0.92702 0.0
C4521 C 0.36827 0.29859 0.89658 0.0
H4522 H 0.40373 0.30261 0.90784 0.0
C4523 C 0.41046 0.28804 0.86217 0.0
C4524 C 0.42027 0.29739 0.86187 0.0
C4525 C 0.40128 0.2881 0.87206 0.0
C4526 C 0.39386 0.30149 0.90455 0.0
H4527 H 0.32892 0.29516 0.92355 0.0
H4528 H 0.34814 0.28863 0.91172 0.0
H4529 H 0.38615 0.30557 0.92333 0.0
H4530 H 0.42846 0.31383 0.87192 0.0
H4531 H 0.41237 0.31403 0.88908 0.0
H4532 H 0.37587 0.29481 0.87779 0.0
C4533 C 0.34868 0.29705 0.91789 0.0
C4534 C 0.3838 0.30318 0.91342 0.0
C4535 C 0.33769 0.30073 0.92475 0.0
C4536 C 0.421 0.3065 0.87189 0.0
C4537 C 0.41182 0.30656 0.88178 0.0
C4538 C 0.37829 0.29689 0.88775 0.0
C4539 C 0.36002 0.30447 0.91854 0.0
C4540 C 0.37088 0.30184 0.90951 0.0
C4541 C 0.40172 0.29751 0.88186 0.0
C4542 C 0.3912 0.29843 0.89158 0.0
H4543 H 0.34977 0.32733 0.9399 0.0
H4544 H 0.36897 0.32106 0.9277 0.0
H4545 H 0.35843 0.29778 0.89313 0.0
H4546 H 0.40969 0.28085 0.85461 0.0
H4547 H 0.39373 0.28087 0.87195 0.0
C4548 C 0.95956 0.65755 0.10447 0.0
C4549 C 0.95477 0.66973 0.10794 0.0
C4550 C 0.95982 0.64751 0.11347 0.0
C4551 C 0.95602 0.63944 0.14834 0.0
H4552 H 0.94261 0.60735 0.13452 0.0
C4553 C 0.93593 0.59715 0.17964 0.0
C4554 C 0.93829 0.58459 0.1751 0.0
C4555 C 0.93986 0.60787 0.17236 0.0
C4556 C 0.94657 0.61616 0.13853 0.0
H4557 H 0.94718 0.6812 0.12373 0.0
H4558 H 0.94741 0.66363 0.13937 0.0
H4559 H 0.94648 0.62537 0.12012 0.0
H4560 H 0.94739 0.57337 0.15995 0.0
H4561 H 0.95442 0.59194 0.14748 0.0
H4562 H 0.95576 0.63015 0.16687 0.0
C4563 C 0.95111 0.66183 0.12976 0.0
C4564 C 0.94882 0.62651 0.13025 0.0
C4565 C 0.95092 0.67189 0.12077 0.0
C4566 C 0.94526 0.58294 0.16359 0.0
C4567 C 0.94924 0.59358 0.15641 0.0
C4568 C 0.95373 0.62903 0.15667 0.0
C4569 C 0.9552 0.64942 0.12611 0.0
C4570 C 0.95356 0.63829 0.13502 0.0
C4571 C 0.94625 0.60616 0.16049 0.0
C4572 C 0.94899 0.61727 0.15184 0.0
H4573 H 0.96269 0.65563 0.09468 0.0
H4574 H 0.96329 0.63813 0.11042 0.0
H4575 H 0.95973 0.64837 0.15231 0.0
H4576 H 0.93058 0.59868 0.18849 0.0
H4577 H 0.93738 0.61745 0.17573 0.0
C4578 C 0.65884 0.19825 0.42699 0.0
C4579 C 0.65957 0.18651 0.43371 0.0
C4580 C 0.64766 0.20158 0.42026 0.0
C4581 C 0.61346 0.1918 0.4139 0.0
H4582 H 0.62088 0.20584 0.37998 0.0
C4583 C 0.57976 0.1862 0.36998 0.0
C4584 C 0.5781 0.19686 0.36175 0.0
C4585 C 0.58855 0.18672 0.38017 0.0
C4586 C 0.6186 0.20213 0.38949 0.0
H4587 H 0.64902 0.16935 0.43928 0.0
H4588 H 0.62961 0.1749 0.42714 0.0
H4589 H 0.63818 0.20365 0.39563 0.0
H4590 H 0.58416 0.2165 0.35786 0.0
H4591 H 0.59978 0.21733 0.37561 0.0
H4592 H 0.59393 0.1897 0.40734 0.0
C4593 C 0.63753 0.18172 0.42727 0.0
C4594 C 0.62852 0.2009 0.39852 0.0
C4595 C 0.64866 0.1785 0.43422 0.0
C4596 C 0.58528 0.20813 0.36403 0.0
C4597 C 0.59421 0.2086 0.37416 0.0
C4598 C 0.60355 0.1929 0.40478 0.0
C4599 C 0.63705 0.19312 0.41985 0.0
C4600 C 0.62614 0.19556 0.4108 0.0
C4601 C 0.59598 0.19787 0.38228 0.0
C4602 C 0.60608 0.1979 0.39243 0.0
H4603 H 0.66709 0.20466 0.42657 0.0
H4604 H 0.64753 0.21061 0.41499 0.0
H4605 H 0.6112 0.18785 0.42331 0.0
H4606 H 0.57432 0.17739 0.36849 0.0
H4607 H 0.58982 0.17825 0.38617 0.0
C4608 C 0.331 0.05658 0.08337 0.0
C4609 C 0.321 0.06562 0.08466 0.0
C4610 C 0.33877 0.05343 0.0939 0.0
C4611 C 0.34226 0.05695 0.12956 0.0
H4612 H 0.37871 0.05439 0.12132 0.0
C4613 C 0.3831 0.0623 0.16726 0.0
C4614 C 0.39357 0.05372 0.1664 0.0
C4615 C 0.37351 0.06238 0.15778 0.0
C4616 C 0.36855 0.0549 0.12377 0.0
H4617 H 0.31088 0.07808 0.09804 0.0
H4618 H 0.32473 0.07292 0.11644 0.0
H4619 H 0.36308 0.05691 0.10402 0.0
H4620 H 0.40213 0.03835 0.15507 0.0
H4621 H 0.38542 0.03859 0.13838 0.0
H4622 H 0.34795 0.05539 0.14941 0.0
C4623 C 0.32643 0.06804 0.10736 0.0
C4624 C 0.35956 0.05631 0.11385 0.0
C4625 C 0.31851 0.07104 0.09682 0.0
C4626 C 0.39419 0.0451 0.15595 0.0
C4627 C 0.38466 0.04526 0.1464 0.0
C4628 C 0.35131 0.05565 0.13951 0.0
C4629 C 0.33688 0.05944 0.10593 0.0
C4630 C 0.34629 0.05739 0.11659 0.0
C4631 C 0.37426 0.05395 0.14719 0.0
C4632 C 0.36455 0.05467 0.1367 0.0
H4633 H 0.33303 0.05213 0.07413 0.0
H4634 H 0.34647 0.0465 0.09252 0.0
H4635 H 0.33213 0.05759 0.13202 0.0
H4636 H 0.38235 0.06903 0.17523 0.0
H4637 H 0.36569 0.06927 0.15857 0.0
C4638 C 0.87651 0.94238 0.32701 0.0
C4639 C 0.88678 0.95084 0.32963 0.0
C4640 C 0.86577 0.94193 0.33514 0.0
C4641 C 0.84905 0.95926 0.36181 0.0
H4642 H 0.83742 0.92489 0.371 0.0
C4643 C 0.82332 0.94701 0.4094 0.0
C4644 C 0.81411 0.93705 0.40959 0.0
C4645 C 0.82971 0.95019 0.39798 0.0
C4646 C 0.84033 0.93458 0.36835 0.0
H4647 H 0.89371 0.96573 0.34259 0.0
H4648 H 0.87508 0.96476 0.35698 0.0
H4649 H 0.85356 0.92754 0.35421 0.0
H4650 H 0.80376 0.92318 0.39784 0.0
H4651 H 0.81496 0.92877 0.3778 0.0
H4652 H 0.83611 0.96621 0.37638 0.0
C4653 C 0.87521 0.95861 0.34852 0.0
C4654 C 0.84962 0.93611 0.35872 0.0
C4655 C 0.88593 0.95912 0.34033 0.0
C4656 C 0.81083 0.93088 0.39798 0.0
C4657 C 0.8173 0.93402 0.38654 0.0
C4658 C 0.83977 0.95772 0.3715 0.0
C4659 C 0.86508 0.94986 0.34613 0.0
C4660 C 0.85429 0.94845 0.35549 0.0
C4661 C 0.82709 0.94345 0.38651 0.0
C4662 C 0.83549 0.94534 0.37505 0.0
H4663 H 0.87684 0.93597 0.31876 0.0
H4664 H 0.85806 0.93524 0.33289 0.0
H4665 H 0.85226 0.96892 0.35941 0.0
H4666 H 0.82602 0.95196 0.41821 0.0
H4667 H 0.83726 0.95742 0.39834 0.0
C4668 C 0.31861 0.06474 0.64917 0.0
C4669 C 0.31183 0.06679 0.66072 0.0
C4670 C 0.31567 0.07203 0.63818 0.0
C4671 C 0.31518 0.097 0.62275 0.0
H4672 H 0.28098 0.10781 0.61197 0.0
C4673 C 0.30685 0.1445 0.59583 0.0
C4674 C 0.29925 0.14399 0.58461 0.0
C4675 C 0.30736 0.13396 0.60421 0.0
C4676 C 0.29058 0.10479 0.61481 0.0
H4677 H 0.296 0.07722 0.66959 0.0
H4678 H 0.29081 0.08981 0.65043 0.0
H4679 H 0.28335 0.09005 0.62745 0.0
H4680 H 0.2858 0.13228 0.57365 0.0
H4681 H 0.28654 0.11388 0.5885 0.0
H4682 H 0.32242 0.11192 0.61044 0.0
C4683 C 0.2984 0.08265 0.64981 0.0
C4684 C 0.29194 0.09468 0.62368 0.0
C4685 C 0.30142 0.07548 0.66081 0.0
C4686 C 0.29174 0.13294 0.58223 0.0
C4687 C 0.29215 0.12242 0.59071 0.0
C4688 C 0.31382 0.10716 0.61402 0.0
C4689 C 0.30581 0.08136 0.63853 0.0
C4690 C 0.30426 0.09081 0.62788 0.0
C4691 C 0.3002 0.12274 0.60162 0.0
C4692 C 0.30151 0.11132 0.61015 0.0
H4693 H 0.32669 0.05811 0.64883 0.0
H4694 H 0.32145 0.07074 0.62956 0.0
H4695 H 0.3248 0.09436 0.62591 0.0
H4696 H 0.31274 0.15288 0.59794 0.0
H4697 H 0.31348 0.13455 0.61267 0.0
C4698 C 0.1196 0.54223 0.83032 0.0
C4699 C 0.1072 0.54656 0.83374 0.0
C4700 C 0.12954 0.54201 0.83945 0.0
C4701 C 0.1359 0.54378 0.87475 0.0
H4702 H 0.16926 0.55702 0.8641 0.0
C4703 C 0.18237 0.5694 0.90001 0.0
C4704 C 0.18281 0.5621 0.91141 0.0
C4705 C 0.1747 0.56538 0.88963 0.0
C4706 C 0.16 0.55332 0.86724 0.0
H4707 H 0.09541 0.55371 0.84948 0.0
H4708 H 0.11273 0.55349 0.86534 0.0
H4709 H 0.15225 0.55405 0.8481 0.0
H4710 H 0.17651 0.54437 0.92055 0.0
H4711 H 0.16353 0.53712 0.90233 0.0
H4712 H 0.14333 0.54371 0.89396 0.0
C4713 C 0.11478 0.55008 0.85567 0.0
C4714 C 0.15029 0.55146 0.85803 0.0
C4715 C 0.10485 0.55027 0.84656 0.0
C4716 C 0.17623 0.55026 0.91191 0.0
C4717 C 0.16871 0.54616 0.9015 0.0
C4718 C 0.14557 0.5457 0.88395 0.0
C4719 C 0.1273 0.54612 0.8522 0.0
C4720 C 0.13804 0.54689 0.86172 0.0
C4721 C 0.16743 0.55391 0.89043 0.0
C4722 C 0.15769 0.55068 0.88035 0.0
H4723 H 0.12169 0.53929 0.82051 0.0
H4724 H 0.13902 0.53873 0.8365 0.0
H4725 H 0.12665 0.54007 0.87791 0.0
H4726 H 0.18729 0.5786 0.89939 0.0
H4727 H 0.1739 0.57165 0.88131 0.0
C4728 C 0.18223 0.93751 0.14621 0.0
C4729 C 0.1885 0.9343 0.15779 0.0
C4730 C 0.18531 0.93101 0.13476 0.0
C4731 C 0.20879 0.90815 0.11977 0.0
H4732 H 0.17835 0.89473 0.10264 0.0
C4733 C 0.20905 0.86161 0.08896 0.0
C4734 C 0.20079 0.86096 0.07823 0.0
C4735 C 0.20886 0.8724 0.09708 0.0
C4736 C 0.18699 0.89856 0.10712 0.0
H4737 H 0.20356 0.92253 0.16631 0.0
H4738 H 0.20888 0.9112 0.14647 0.0
H4739 H 0.176 0.91105 0.1193 0.0
H4740 H 0.1863 0.87133 0.06724 0.0
H4741 H 0.18611 0.89019 0.08126 0.0
H4742 H 0.21974 0.89531 0.10781 0.0
C4743 C 0.20163 0.91872 0.14613 0.0
C4744 C 0.18564 0.90796 0.11667 0.0
C4745 C 0.19852 0.92517 0.15753 0.0
C4746 C 0.1927 0.8715 0.07551 0.0
C4747 C 0.19254 0.88229 0.08358 0.0
C4748 C 0.21015 0.89873 0.11019 0.0
C4749 C 0.19476 0.92124 0.1347 0.0
C4750 C 0.19649 0.91269 0.1233 0.0
C4751 C 0.20043 0.88278 0.09461 0.0
C4752 C 0.19924 0.89364 0.10392 0.0
H4753 H 0.17448 0.94452 0.14612 0.0
H4754 H 0.17997 0.93329 0.12607 0.0
H4755 H 0.21736 0.91171 0.1246 0.0
H4756 H 0.21539 0.85362 0.09129 0.0
H4757 H 0.21497 0.8724 0.10557 0.0
C4758 C 0.62339 0.944 0.17049 0.0
C4759 C 0.6133 0.95301 0.16954 0.0
C4760 C 0.63362 0.94421 0.16171 0.0
C4761 C 0.64074 0.95422 0.12858 0.0
H4762 H 0.67591 0.94522 0.13775 0.0
C4763 C 0.67884 0.94818 0.08921 0.0
C4764 C 0.68622 0.93684 0.09 0.0
C4765 C 0.67182 0.95253 0.09984 0.0
C4766 C 0.66613 0.94772 0.13504 0.0
H4767 H 0.60625 0.96964 0.15897 0.0
H4768 H 0.62418 0.97006 0.14364 0.0
H4769 H 0.65988 0.94856 0.15474 0.0
H4770 H 0.69273 0.9216 0.10276 0.0
H4771 H 0.68025 0.92905 0.12133 0.0
H4772 H 0.64677 0.95299 0.10892 0.0
C4773 C 0.62409 0.96273 0.15109 0.0
C4774 C 0.65695 0.94964 0.14476 0.0
C4775 C 0.61386 0.96253 0.1599 0.0
C4776 C 0.68713 0.93039 0.10189 0.0
C4777 C 0.68 0.93469 0.11254 0.0
C4778 C 0.64989 0.9523 0.11888 0.0
C4779 C 0.63398 0.95344 0.15177 0.0
C4780 C 0.6441 0.95271 0.14162 0.0
C4781 C 0.67191 0.94556 0.11149 0.0
C4782 C 0.66265 0.94884 0.12196 0.0
H4783 H 0.62324 0.93656 0.17783 0.0
H4784 H 0.64097 0.93682 0.16242 0.0
H4785 H 0.63089 0.95635 0.1258 0.0
H4786 H 0.67806 0.95342 0.08019 0.0
H4787 H 0.66593 0.96111 0.0988 0.0
C4788 C 0.29244 0.35884 0.90676 0.0
C4789 C 0.30236 0.35793 0.91597 0.0
C4790 C 0.29233 0.36897 0.89783 0.0
C4791 C 0.30577 0.40154 0.89154 0.0
H4792 H 0.2996 0.39284 0.85568 0.0
C4793 C 0.32126 0.43384 0.8487 0.0
C4794 C 0.31391 0.43335 0.83732 0.0
C4795 C 0.31791 0.42616 0.8593 0.0
C4796 C 0.30108 0.39554 0.86568 0.0
H4797 H 0.31984 0.36696 0.92314 0.0
H4798 H 0.3197 0.38453 0.90751 0.0
H4799 H 0.29746 0.37627 0.87214 0.0
H4800 H 0.29672 0.42537 0.82846 0.0
H4801 H 0.29066 0.4123 0.84704 0.0
H4802 H 0.30962 0.42079 0.88501 0.0
C4803 C 0.31194 0.37753 0.90727 0.0
C4804 C 0.29988 0.386 0.87511 0.0
C4805 C 0.31207 0.3674 0.91615 0.0
C4806 C 0.30263 0.42584 0.83707 0.0
C4807 C 0.29923 0.41827 0.84768 0.0
C4808 C 0.30693 0.41111 0.88209 0.0
C4809 C 0.3021 0.37841 0.89796 0.0
C4810 C 0.30239 0.38883 0.88813 0.0
C4811 C 0.3071 0.41793 0.85873 0.0
C4812 C 0.30476 0.40818 0.86901 0.0
H4813 H 0.2848 0.35172 0.90644 0.0
H4814 H 0.28457 0.36944 0.89084 0.0
H4815 H 0.30759 0.40406 0.90152 0.0
H4816 H 0.33003 0.43952 0.84913 0.0
H4817 H 0.32424 0.4261 0.86762 0.0
C4818 C 0.70775 0.14176 0.40855 0.0
C4819 C 0.69832 0.14172 0.41828 0.0
C4820 C 0.7081 0.1319 0.39933 0.0
C4821 C 0.69615 0.09885 0.39213 0.0
H4822 H 0.70018 0.10976 0.35657 0.0
C4823 C 0.68093 0.06798 0.348 0.0
C4824 C 0.68794 0.06947 0.3365 0.0
C4825 C 0.68411 0.07529 0.35891 0.0
C4826 C 0.69929 0.10647 0.36645 0.0
H4827 H 0.68204 0.13119 0.42618 0.0
H4828 H 0.68253 0.1141 0.41002 0.0
H4829 H 0.70212 0.12553 0.37379 0.0
H4830 H 0.70442 0.07888 0.32767 0.0
H4831 H 0.71019 0.09132 0.34676 0.0
H4832 H 0.69304 0.07978 0.38469 0.0
C4833 C 0.68977 0.12164 0.40958 0.0
C4834 C 0.7004 0.11554 0.37634 0.0
C4835 C 0.68943 0.13148 0.41879 0.0
C4836 C 0.69876 0.07764 0.33638 0.0
C4837 C 0.702 0.08484 0.34729 0.0
C4838 C 0.69506 0.08973 0.38221 0.0
C4839 C 0.69901 0.1218 0.39965 0.0
C4840 C 0.69871 0.11188 0.38929 0.0
C4841 C 0.69442 0.08414 0.35852 0.0
C4842 C 0.69651 0.09347 0.36924 0.0
H4843 H 0.71478 0.14948 0.40796 0.0
H4844 H 0.71545 0.13222 0.3919 0.0
H4845 H 0.69495 0.0957 0.40203 0.0
H4846 H 0.67252 0.06177 0.34834 0.0
H4847 H 0.67803 0.07455 0.36738 0.0
C4848 C 0.15442 0.89609 0.55404 0.0
C4849 C 0.16679 0.89413 0.54885 0.0
C4850 C 0.14577 0.8858 0.55511 0.0
C4851 C 0.13733 0.85389 0.54277 0.0
H4852 H 0.12152 0.84932 0.57642 0.0
C4853 C 0.0907 0.82489 0.55293 0.0
C4854 C 0.09007 0.81766 0.56439 0.0
C4855 C 0.10167 0.83217 0.55003 0.0
C4856 C 0.12598 0.85036 0.56702 0.0
H4857 H 0.17961 0.88004 0.54018 0.0
H4858 H 0.16431 0.86208 0.54181 0.0
H4859 H 0.13703 0.86674 0.57309 0.0
H4860 H 0.10068 0.81175 0.58142 0.0
H4861 H 0.11983 0.82467 0.57644 0.0
H4862 H 0.12593 0.83769 0.53663 0.0
C4863 C 0.16139 0.87156 0.54514 0.0
C4864 C 0.13473 0.86042 0.56508 0.0
C4865 C 0.17013 0.88182 0.54422 0.0
C4866 C 0.10092 0.81721 0.57251 0.0
C4867 C 0.11183 0.82466 0.5697 0.0
C4868 C 0.1284 0.84392 0.54467 0.0
C4869 C 0.14925 0.8734 0.55086 0.0
C4870 C 0.14037 0.86237 0.55291 0.0
C4871 C 0.11214 0.83251 0.55863 0.0
C4872 C 0.12257 0.84213 0.5568 0.0
H4873 H 0.15158 0.90546 0.5577 0.0
H4874 H 0.13639 0.88751 0.55942 0.0
H4875 H 0.14156 0.8552 0.5333 0.0
H4876 H 0.08247 0.82539 0.54649 0.0
H4877 H 0.10162 0.83818 0.54147 0.0
C4878 C 0.93034 0.84735 0.8205 0.0
C4879 C 0.92893 0.83573 0.81367 0.0
C4880 C 0.92264 0.85802 0.81744 0.0
C4881 C 0.89102 0.8649 0.80255 0.0
H4882 H 0.90127 0.90062 0.80691 0.0
C4883 C 0.85577 0.90709 0.79343 0.0
C4884 C 0.85553 0.91667 0.80302 0.0
C4885 C 0.86553 0.89776 0.79334 0.0
C4886 C 0.89828 0.89067 0.80569 0.0
H4887 H 0.91921 0.82644 0.79765 0.0
H4888 H 0.90615 0.84514 0.792 0.0
H4889 H 0.91745 0.88354 0.80874 0.0
H4890 H 0.8654 0.92412 0.81992 0.0
H4891 H 0.88238 0.90782 0.81979 0.0
H4892 H 0.87186 0.872 0.79963 0.0
C4893 C 0.91282 0.84593 0.80001 0.0
C4894 C 0.90753 0.88089 0.80676 0.0
C4895 C 0.92038 0.83524 0.80317 0.0
C4896 C 0.86532 0.91684 0.81241 0.0
C4897 C 0.87511 0.90757 0.81228 0.0
C4898 C 0.88181 0.87466 0.80141 0.0
C4899 C 0.9135 0.85729 0.8074 0.0
C4900 C 0.90398 0.86786 0.80533 0.0
C4901 C 0.87528 0.89788 0.80279 0.0
C4902 C 0.8853 0.88764 0.80312 0.0
H4903 H 0.93682 0.84795 0.82869 0.0
H4904 H 0.92338 0.86658 0.82339 0.0
H4905 H 0.88785 0.85497 0.80167 0.0
H4906 H 0.84838 0.90676 0.78604 0.0
H4907 H 0.86547 0.89047 0.78585 0.0
C4908 C 0.8283 0.61824 0.05717 0.0
C4909 C 0.83202 0.60594 0.05283 0.0
C4910 C 0.83732 0.62822 0.05804 0.0
C4911 C 0.8712 0.63348 0.06413 0.0
H4912 H 0.86523 0.66833 0.05171 0.0
C4913 C 0.90161 0.6761 0.08169 0.0
C4914 C 0.9079 0.68302 0.07186 0.0
C4915 C 0.89153 0.66767 0.07871 0.0
C4916 C 0.86699 0.65864 0.0552 0.0
H4917 H 0.848 0.59446 0.04575 0.0
H4918 H 0.86392 0.61189 0.04759 0.0
H4919 H 0.84947 0.65125 0.04694 0.0
H4920 H 0.908 0.68723 0.05136 0.0
H4921 H 0.89008 0.67265 0.04622 0.0
H4922 H 0.88852 0.64086 0.07265 0.0
C4923 C 0.85398 0.61379 0.05021 0.0
C4924 C 0.858 0.6489 0.05251 0.0
C4925 C 0.84488 0.60385 0.04912 0.0
C4926 C 0.90332 0.68202 0.05913 0.0
C4927 C 0.89309 0.67369 0.05618 0.0
C4928 C 0.88004 0.64323 0.06702 0.0
C4929 C 0.85029 0.62602 0.05478 0.0
C4930 C 0.86004 0.63624 0.05697 0.0
C4931 C 0.88743 0.66612 0.0659 0.0
C4932 C 0.87799 0.6559 0.06264 0.0
H4933 H 0.81842 0.62013 0.06005 0.0
H4934 H 0.83426 0.63753 0.06169 0.0
H4935 H 0.87293 0.62384 0.06779 0.0
H4936 H 0.9049 0.67667 0.0916 0.0
H4937 H 0.8872 0.66205 0.0864 0.0
C4938 C 0.07471 0.66058 0.30052 0.0
C4939 C 0.06691 0.66057 0.3116 0.0
C4940 C 0.08203 0.64975 0.29729 0.0
C4941 C 0.08808 0.61516 0.30541 0.0
H4942 H 0.12326 0.62406 0.29618 0.0
C4943 C 0.13115 0.58045 0.31193 0.0
C4944 C 0.14069 0.5802 0.30229 0.0
C4945 C 0.12111 0.58943 0.3114 0.0
C4946 C 0.11344 0.62138 0.29854 0.0
H4947 H 0.06002 0.64897 0.32758 0.0
H4948 H 0.07304 0.63011 0.32215 0.0
H4949 H 0.10712 0.64097 0.29791 0.0
H4950 H 0.1471 0.58901 0.28443 0.0
H4951 H 0.12957 0.6048 0.28354 0.0
H4952 H 0.09464 0.59557 0.30648 0.0
C4953 C 0.07337 0.6384 0.3158 0.0
C4954 C 0.10414 0.63108 0.2995 0.0
C4955 C 0.06591 0.64922 0.31894 0.0
C4956 C 0.13991 0.58902 0.29202 0.0
C4957 C 0.1299 0.59807 0.29153 0.0
C4958 C 0.09742 0.60545 0.30451 0.0
C4959 C 0.08187 0.63871 0.30519 0.0
C4960 C 0.09137 0.62813 0.30308 0.0
C4961 C 0.12043 0.59841 0.30126 0.0
C4962 C 0.11024 0.60849 0.30122 0.0
H4963 H 0.07556 0.66917 0.29461 0.0
H4964 H 0.08819 0.6502 0.28886 0.0
H4965 H 0.07831 0.61252 0.30802 0.0
H4966 H 0.13147 0.57376 0.31996 0.0
H4967 H 0.11407 0.58957 0.31913 0.0
C4968 C 0.16063 0.10877 0.44843 0.0
C4969 C 0.16906 0.1058 0.43824 0.0
C4970 C 0.15216 0.11924 0.44745 0.0
C4971 C 0.13625 0.14026 0.4235 0.0
H4972 H 0.13019 0.16252 0.45299 0.0
C4973 C 0.10193 0.18356 0.41961 0.0
C4974 C 0.09266 0.18426 0.42948 0.0
C4975 C 0.1128 0.17568 0.42103 0.0
C4976 C 0.13176 0.15637 0.44468 0.0
H4977 H 0.17524 0.11142 0.41904 0.0
H4978 H 0.16053 0.12968 0.41736 0.0
H4979 H 0.14573 0.14487 0.45469 0.0
H4980 H 0.08795 0.17805 0.44891 0.0
H4981 H 0.10684 0.16432 0.45136 0.0
H4982 H 0.12214 0.15155 0.41356 0.0
C4983 C 0.16035 0.12388 0.42605 0.0
C4984 C 0.14062 0.14623 0.44567 0.0
C4985 C 0.16881 0.11343 0.42704 0.0
C4986 C 0.09492 0.17768 0.44112 0.0
C4987 C 0.10579 0.16984 0.44255 0.0
C4988 C 0.12741 0.15038 0.42251 0.0
C4989 C 0.15194 0.12693 0.43625 0.0
C4990 C 0.14287 0.13798 0.43513 0.0
C4991 C 0.11463 0.1684 0.43236 0.0
C4992 C 0.12495 0.15848 0.43313 0.0
H4993 H 0.16062 0.10305 0.45719 0.0
H4994 H 0.14568 0.12122 0.45541 0.0
H4995 H 0.13762 0.13398 0.41525 0.0
H4996 H 0.10046 0.18855 0.41055 0.0
H4997 H 0.11957 0.17496 0.41309 0.0
C4998 C 0.64212 0.90548 0.69649 0.0
C4999 C 0.64036 0.91858 0.69357 0.0
C5000 C 0.63169 0.89692 0.69601 0.0
C5001 C 0.59804 0.89405 0.68318 0.0
H5002 H 0.59808 0.86354 0.70476 0.0
C5003 C 0.56532 0.85029 0.67268 0.0
C5004 C 0.56248 0.8416 0.68267 0.0
C5005 C 0.57304 0.8611 0.67505 0.0
C5006 C 0.59767 0.87213 0.69882 0.0
H5007 H 0.6263 0.93314 0.68832 0.0
H5008 H 0.608 0.91844 0.68817 0.0
H5009 H 0.61492 0.87945 0.70736 0.0
H5010 H 0.56442 0.83792 0.70314 0.0
H5011 H 0.57709 0.85724 0.70752 0.0
H5012 H 0.58042 0.88703 0.67508 0.0
C5013 C 0.61746 0.91455 0.69029 0.0
C5014 C 0.60758 0.88118 0.70013 0.0
C5015 C 0.62795 0.92304 0.69047 0.0
C5016 C 0.56656 0.84446 0.69526 0.0
C5017 C 0.57399 0.85545 0.69771 0.0
C5018 C 0.58796 0.88514 0.68207 0.0
C5019 C 0.61919 0.90133 0.69291 0.0
C5020 C 0.60809 0.89214 0.69214 0.0
C5021 C 0.57786 0.86361 0.68754 0.0
C5022 C 0.58776 0.8739 0.68968 0.0
H5023 H 0.65163 0.9018 0.69882 0.0
H5024 H 0.63354 0.8868 0.69781 0.0
H5025 H 0.59808 0.90227 0.67672 0.0
H5026 H 0.56241 0.84821 0.66285 0.0
H5027 H 0.57586 0.86699 0.6669 0.0
C5028 C 0.90268 0.31599 0.93003 0.0
C5029 C 0.91438 0.31812 0.93651 0.0
C5030 C 0.89179 0.32342 0.93303 0.0
C5031 C 0.88407 0.35533 0.94694 0.0
H5032 H 0.84865 0.34354 0.94441 0.0
C5033 C 0.84121 0.3893 0.95703 0.0
C5034 C 0.83125 0.38903 0.94784 0.0
C5035 C 0.85076 0.37976 0.95701 0.0
C5036 C 0.8585 0.34696 0.94511 0.0
H5037 H 0.92367 0.32887 0.95187 0.0
H5038 H 0.90464 0.34144 0.95744 0.0
H5039 H 0.86629 0.328 0.94229 0.0
H5040 H 0.82328 0.37843 0.93164 0.0
H5041 H 0.83997 0.36184 0.93158 0.0
H5042 H 0.87633 0.37427 0.94964 0.0
C5043 C 0.90391 0.33442 0.94972 0.0
C5044 C 0.8686 0.33807 0.94387 0.0
C5045 C 0.91479 0.32714 0.94661 0.0
C5046 C 0.83086 0.3789 0.93883 0.0
C5047 C 0.84036 0.36934 0.93885 0.0
C5048 C 0.87399 0.36417 0.94824 0.0
C5049 C 0.8924 0.333 0.94267 0.0
C5050 C 0.88152 0.34217 0.94469 0.0
C5051 C 0.8505 0.36974 0.94785 0.0
C5052 C 0.8611 0.36012 0.94724 0.0
H5053 H 0.90213 0.30912 0.92216 0.0
H5054 H 0.88311 0.3221 0.92735 0.0
H5055 H 0.89388 0.35892 0.94732 0.0
H5056 H 0.84172 0.39696 0.96413 0.0
H5057 H 0.85839 0.38026 0.96415 0.0
C5058 C 0.43001 0.65209 0.18013 0.0
C5059 C 0.42842 0.66353 0.1872 0.0
C5060 C 0.42258 0.64118 0.18307 0.0
C5061 C 0.39121 0.63357 0.19818 0.0
H5062 H 0.40175 0.59805 0.193 0.0
C5063 C 0.35637 0.59108 0.20705 0.0
C5064 C 0.356 0.5817 0.19728 0.0
C5065 C 0.36615 0.6004 0.20721 0.0
C5066 C 0.39867 0.60794 0.19445 0.0
H5067 H 0.41873 0.67228 0.20353 0.0
H5068 H 0.40619 0.65319 0.209 0.0
H5069 H 0.41773 0.61534 0.19122 0.0
H5070 H 0.36569 0.57453 0.18015 0.0
H5071 H 0.38269 0.59081 0.18039 0.0
H5072 H 0.37217 0.62623 0.20126 0.0
C5073 C 0.41276 0.6527 0.20089 0.0
C5074 C 0.40782 0.61784 0.19341 0.0
C5075 C 0.42002 0.66361 0.19783 0.0
C5076 C 0.36571 0.58167 0.1878 0.0
C5077 C 0.37551 0.59092 0.18799 0.0
C5078 C 0.38212 0.6237 0.19928 0.0
C5079 C 0.41354 0.64152 0.19323 0.0
C5080 C 0.40417 0.6308 0.19516 0.0
C5081 C 0.37578 0.60046 0.19763 0.0
C5082 C 0.38571 0.61079 0.1973 0.0
H5083 H 0.43639 0.65181 0.17184 0.0
H5084 H 0.4234 0.63276 0.17693 0.0
H5085 H 0.38795 0.64344 0.19928 0.0
H5086 H 0.34906 0.5913 0.21452 0.0
H5087 H 0.36617 0.60756 0.21482 0.0
C5088 C 0.07671 0.6008 0.81746 0.0
C5089 C 0.06754 0.59117 0.81476 0.0
C5090 C 0.07323 0.61174 0.82456 0.0
C5091 C 0.05046 0.62073 0.84977 0.0
H5092 H 0.06376 0.6553 0.84447 0.0
C5093 C 0.04098 0.66137 0.88672 0.0
C5094 C 0.05151 0.66943 0.88952 0.0
C5095 C 0.04147 0.6529 0.8762 0.0
C5096 C 0.06004 0.64568 0.84614 0.0
H5097 H 0.04737 0.58587 0.81659 0.0
H5098 H 0.04132 0.60498 0.82896 0.0
H5099 H 0.06727 0.63879 0.828 0.0
H5100 H 0.07074 0.67506 0.88346 0.0
H5101 H 0.07175 0.66011 0.86542 0.0
H5102 H 0.0437 0.62735 0.86809 0.0
C5103 C 0.05121 0.604 0.82572 0.0
C5104 C 0.06201 0.63625 0.83667 0.0
C5105 C 0.05466 0.5931 0.81857 0.0
C5106 C 0.06245 0.66899 0.88152 0.0
C5107 C 0.06298 0.66048 0.87109 0.0
C5108 C 0.04858 0.63011 0.85927 0.0
C5109 C 0.06054 0.61322 0.82914 0.0
C5110 C 0.05739 0.62363 0.83847 0.0
C5111 C 0.05254 0.65226 0.86833 0.0
C5112 C 0.05351 0.64265 0.85768 0.0
H5113 H 0.08671 0.59957 0.81466 0.0
H5114 H 0.08065 0.61866 0.82709 0.0
H5115 H 0.04696 0.61104 0.85154 0.0
H5116 H 0.0324 0.66157 0.89268 0.0
H5117 H 0.03318 0.64684 0.87426 0.0
C5118 C 0.16433 0.8035 0.08116 0.0
C5119 C 0.16358 0.81307 0.07161 0.0
C5120 C 0.15353 0.80032 0.08853 0.0
C5121 C 0.11797 0.80509 0.09164 0.0
H5122 H 0.12554 0.80084 0.12807 0.0
C5123 C 0.08014 0.81123 0.1322 0.0
C5124 C 0.08046 0.80242 0.14251 0.0
C5125 C 0.08966 0.81096 0.12266 0.0
C5126 C 0.12327 0.80181 0.11791 0.0
H5127 H 0.15084 0.82644 0.06182 0.0
H5128 H 0.13197 0.82122 0.07499 0.0
H5129 H 0.14316 0.80311 0.11278 0.0
H5130 H 0.09083 0.78625 0.1508 0.0
H5131 H 0.10759 0.78586 0.13417 0.0
H5132 H 0.09799 0.80428 0.097 0.0
C5133 C 0.14084 0.81595 0.07664 0.0
C5134 C 0.13337 0.80308 0.1091 0.0
C5135 C 0.15165 0.81898 0.0691 0.0
C5136 C 0.09037 0.79318 0.14299 0.0
C5137 C 0.09997 0.79299 0.1335 0.0
C5138 C 0.10784 0.80393 0.1005 0.0
C5139 C 0.14176 0.80683 0.08669 0.0
C5140 C 0.13088 0.80479 0.09585 0.0
C5141 C 0.09976 0.80194 0.12329 0.0
C5142 C 0.1104 0.80236 0.11373 0.0
H5143 H 0.17339 0.79868 0.08318 0.0
H5144 H 0.15451 0.79299 0.09591 0.0
H5145 H 0.11569 0.80623 0.0815 0.0
H5146 H 0.0726 0.81844 0.13156 0.0
H5147 H 0.08933 0.81807 0.115 0.0
C5148 C 0.94259 0.8301 0.37972 0.0
C5149 C 0.95097 0.83104 0.39035 0.0
C5150 C 0.94253 0.83964 0.37017 0.0
C5151 C 0.94962 0.87396 0.36629 0.0
H5152 H 0.9452 0.86714 0.32973 0.0
C5153 C 0.94592 0.91586 0.33073 0.0
C5154 C 0.93615 0.91506 0.32139 0.0
C5155 C 0.94963 0.90496 0.33769 0.0
C5156 C 0.94635 0.8692 0.33992 0.0
H5157 H 0.96622 0.84242 0.39907 0.0
H5158 H 0.96612 0.85909 0.38239 0.0
H5159 H 0.94825 0.84914 0.34472 0.0
H5160 H 0.92299 0.90216 0.31151 0.0
H5161 H 0.9292 0.88307 0.32397 0.0
H5162 H 0.94729 0.89389 0.3617 0.0
C5163 C 0.95951 0.85104 0.3815 0.0
C5164 C 0.94812 0.8589 0.34849 0.0
C5165 C 0.95961 0.84147 0.39102 0.0
C5166 C 0.93059 0.90301 0.31865 0.0
C5167 C 0.93418 0.89209 0.32577 0.0
C5168 C 0.94777 0.88421 0.35777 0.0
C5169 C 0.95081 0.85034 0.3711 0.0
C5170 C 0.94972 0.86118 0.36178 0.0
C5171 C 0.94348 0.89303 0.33565 0.0
C5172 C 0.94607 0.88199 0.34448 0.0
H5173 H 0.93584 0.82215 0.37892 0.0
H5174 H 0.93563 0.83888 0.36235 0.0
H5175 H 0.95054 0.87604 0.3765 0.0
H5176 H 0.95049 0.92501 0.33292 0.0
H5177 H 0.95708 0.90597 0.34496 0.0
C5178 C 0.83862 0.69665 0.57598 0.0
C5179 C 0.83876 0.6857 0.568 0.0
C5180 C 0.84968 0.70038 0.58267 0.0
C5181 C 0.88495 0.69472 0.58647 0.0
H5182 H 0.87738 0.7026 0.62228 0.0
C5183 C 0.92259 0.69169 0.62767 0.0
C5184 C 0.9217 0.70063 0.63784 0.0
C5185 C 0.91343 0.69164 0.61777 0.0
C5186 C 0.87969 0.70067 0.61227 0.0
H5187 H 0.85073 0.6705 0.5601 0.0
H5188 H 0.8701 0.67682 0.57209 0.0
H5189 H 0.85979 0.6994 0.6072 0.0
H5190 H 0.91092 0.71693 0.6453 0.0
H5191 H 0.89498 0.71694 0.62794 0.0
H5192 H 0.90494 0.69566 0.59177 0.0
C5193 C 0.86148 0.68264 0.57303 0.0
C5194 C 0.86958 0.69883 0.60359 0.0
C5195 C 0.85039 0.679 0.56618 0.0
C5196 C 0.9118 0.70987 0.63763 0.0
C5197 C 0.90264 0.70983 0.62773 0.0
C5198 C 0.89511 0.69655 0.59521 0.0
C5199 C 0.8611 0.69312 0.58169 0.0
C5200 C 0.87206 0.69577 0.59059 0.0
C5201 C 0.90318 0.70053 0.61784 0.0
C5202 C 0.89257 0.69946 0.60823 0.0
H5203 H 0.82981 0.70209 0.57742 0.0
H5204 H 0.84915 0.7087 0.58897 0.0
H5205 H 0.88718 0.69248 0.5765 0.0
H5206 H 0.93014 0.68446 0.62756 0.0
H5207 H 0.91406 0.68427 0.61038 0.0
C5208 C 0.04227 0.33824 0.1162 0.0
C5209 C 0.05282 0.33013 0.11362 0.0
C5210 C 0.04248 0.34654 0.12686 0.0
C5211 C 0.06006 0.35316 0.15764 0.0
H5212 H 0.04747 0.38798 0.15228 0.0
C5213 C 0.07623 0.39763 0.18724 0.0
C5214 C 0.06715 0.40744 0.18951 0.0
C5215 C 0.07281 0.38668 0.18011 0.0
C5216 C 0.05082 0.37823 0.15404 0.0
H5217 H 0.07179 0.32425 0.12022 0.0
H5218 H 0.07233 0.33891 0.13853 0.0
H5219 H 0.04467 0.37194 0.13539 0.0
H5220 H 0.04713 0.41302 0.18701 0.0
H5221 H 0.04117 0.3939 0.17463 0.0
H5222 H 0.06671 0.35972 0.17613 0.0
C5223 C 0.06375 0.3387 0.13256 0.0
C5224 C 0.0492 0.36901 0.14434 0.0
C5225 C 0.06349 0.33036 0.12198 0.0
C5226 C 0.05436 0.40565 0.18536 0.0
C5227 C 0.05096 0.39475 0.17819 0.0
C5228 C 0.06177 0.36243 0.16731 0.0
C5229 C 0.05328 0.34696 0.1351 0.0
C5230 C 0.05398 0.3564 0.14593 0.0
C5231 C 0.06027 0.38539 0.17509 0.0
C5232 C 0.05732 0.37511 0.16554 0.0
H5233 H 0.03388 0.3382 0.10997 0.0
H5234 H 0.03417 0.35264 0.12862 0.0
H5235 H 0.06365 0.34348 0.1593 0.0
H5236 H 0.08617 0.39874 0.19031 0.0
H5237 H 0.08021 0.37966 0.17784 0.0
C5238 C 0.35027 0.81992 0.43629 0.0
C5239 C 0.33918 0.81216 0.43579 0.0
C5240 C 0.36121 0.81662 0.42908 0.0
C5241 C 0.3691 0.79845 0.39951 0.0
H5242 H 0.40429 0.80771 0.40827 0.0
C5243 C 0.41123 0.79083 0.36387 0.0
C5244 C 0.41937 0.80155 0.36227 0.0
C5245 C 0.40237 0.79044 0.37406 0.0
C5246 C 0.3945 0.80509 0.4057 0.0
H5247 H 0.33116 0.79432 0.42837 0.0
H5248 H 0.35035 0.78831 0.41621 0.0
H5249 H 0.38735 0.80956 0.42458 0.0
H5250 H 0.42487 0.82012 0.37023 0.0
H5251 H 0.4094 0.81946 0.38795 0.0
H5252 H 0.3762 0.79417 0.38061 0.0
C5253 C 0.35051 0.79717 0.42175 0.0
C5254 C 0.38479 0.80616 0.41503 0.0
C5255 C 0.33955 0.80055 0.42881 0.0
C5256 C 0.41869 0.81174 0.3712 0.0
C5257 C 0.40991 0.81132 0.38142 0.0
C5258 C 0.37881 0.7973 0.39024 0.0
C5259 C 0.36128 0.80543 0.42135 0.0
C5260 C 0.37193 0.80305 0.41199 0.0
C5261 C 0.40155 0.80073 0.38288 0.0
C5262 C 0.39156 0.80081 0.39315 0.0
H5263 H 0.35022 0.82896 0.44154 0.0
H5264 H 0.36928 0.82326 0.42896 0.0
H5265 H 0.35929 0.79622 0.3967 0.0
H5266 H 0.41158 0.78281 0.35717 0.0
H5267 H 0.39612 0.78211 0.375 0.0
C5268 C 0.96016 0.16044 0.61077 0.0
C5269 C 0.95085 0.17027 0.61041 0.0
C5270 C 0.96009 0.15133 0.62073 0.0
C5271 C 0.9471 0.14423 0.65334 0.0
H5272 H 0.9496 0.10871 0.64187 0.0
C5273 C 0.93036 0.10022 0.68381 0.0
C5274 C 0.93684 0.08847 0.68192 0.0
C5275 C 0.93383 0.11113 0.6766 0.0
C5276 C 0.94914 0.11856 0.64534 0.0
H5277 H 0.93447 0.17861 0.62043 0.0
H5278 H 0.93427 0.16266 0.63775 0.0
H5279 H 0.95259 0.12605 0.62644 0.0
H5280 H 0.95269 0.07913 0.67199 0.0
H5281 H 0.95906 0.09818 0.65984 0.0
H5282 H 0.94346 0.13665 0.67225 0.0
C5283 C 0.9417 0.16203 0.63041 0.0
C5284 C 0.95084 0.12852 0.63645 0.0
C5285 C 0.94175 0.17111 0.62044 0.0
C5286 C 0.94741 0.08804 0.67348 0.0
C5287 C 0.951 0.09894 0.66646 0.0
C5288 C 0.94546 0.13423 0.66228 0.0
C5289 C 0.95071 0.1519 0.63054 0.0
C5290 C 0.94975 0.14146 0.64031 0.0
C5291 C 0.94393 0.11047 0.66752 0.0
C5292 C 0.94639 0.12126 0.65836 0.0
H5293 H 0.96734 0.15959 0.60321 0.0
H5294 H 0.96726 0.14373 0.62066 0.0
H5295 H 0.9463 0.15413 0.65661 0.0
H5296 H 0.92213 0.10077 0.69024 0.0
H5297 H 0.92814 0.11984 0.67763 0.0
C5298 C 0.57698 0.69086 0.87103 0.0
C5299 C 0.58087 0.69598 0.85908 0.0
C5300 C 0.58581 0.6896 0.88114 0.0
C5301 C 0.61949 0.68358 0.88692 0.0
H5302 H 0.61354 0.69605 0.92176 0.0
C5303 C 0.65137 0.66755 0.92905 0.0
C5304 C 0.65783 0.67785 0.93507 0.0
C5305 C 0.64069 0.66988 0.92117 0.0
C5306 C 0.61526 0.6925 0.91208 0.0
H5307 H 0.59695 0.70396 0.84835 0.0
H5308 H 0.61255 0.70137 0.86598 0.0
H5309 H 0.59767 0.70064 0.90471 0.0
H5310 H 0.65752 0.6985 0.93847 0.0
H5311 H 0.63855 0.70251 0.92493 0.0
H5312 H 0.63691 0.67524 0.89425 0.0
C5313 C 0.60261 0.69849 0.86751 0.0
C5314 C 0.60623 0.6951 0.90236 0.0
C5315 C 0.59371 0.7 0.85747 0.0
C5316 C 0.65273 0.69038 0.93394 0.0
C5317 C 0.6419 0.69268 0.92621 0.0
C5318 C 0.62836 0.68075 0.89665 0.0
C5319 C 0.59875 0.6932 0.87939 0.0
C5320 C 0.60832 0.69072 0.88969 0.0
C5321 C 0.63613 0.68251 0.91935 0.0
C5322 C 0.62634 0.6852 0.9093 0.0
H5323 H 0.56711 0.68773 0.87253 0.0
H5324 H 0.58263 0.68542 0.89018 0.0
H5325 H 0.62125 0.68001 0.87725 0.0
H5326 H 0.65508 0.65779 0.92971 0.0
H5327 H 0.6363 0.66187 0.91606 0.0
C5328 C 0.31363 0.57641 0.60199 0.0
C5329 C 0.31098 0.56696 0.59263 0.0
C5330 C 0.32126 0.57342 0.61272 0.0
C5331 C 0.34748 0.55138 0.62117 0.0
H5332 H 0.34391 0.56639 0.65526 0.0
C5333 C 0.38593 0.5437 0.66089 0.0
C5334 C 0.38924 0.55469 0.66811 0.0
C5335 C 0.3752 0.5439 0.65268 0.0
C5336 C 0.34508 0.56218 0.64576 0.0
H5337 H 0.31332 0.54676 0.58766 0.0
H5338 H 0.32649 0.54152 0.60646 0.0
H5339 H 0.32651 0.56887 0.63955 0.0
H5340 H 0.38393 0.57447 0.67245 0.0
H5341 H 0.36543 0.57491 0.658 0.0
H5342 H 0.36618 0.54504 0.62717 0.0
C5343 C 0.3229 0.55128 0.60539 0.0
C5344 C 0.33509 0.56358 0.63678 0.0
C5345 C 0.31528 0.55427 0.59468 0.0
C5346 C 0.38161 0.56584 0.66702 0.0
C5347 C 0.37092 0.56605 0.65882 0.0
C5348 C 0.35747 0.55002 0.63012 0.0
C5349 C 0.32637 0.56093 0.61428 0.0
C5350 C 0.33627 0.55835 0.62432 0.0
C5351 C 0.36758 0.5551 0.65154 0.0
C5352 C 0.35648 0.55559 0.64245 0.0
H5353 H 0.31046 0.58628 0.60065 0.0
H5354 H 0.3238 0.58109 0.61935 0.0
H5355 H 0.3488 0.54743 0.61158 0.0
H5356 H 0.3916 0.53495 0.66159 0.0
H5357 H 0.37282 0.53526 0.6473 0.0
C5358 C 0.81619 0.42772 0.90058 0.0
C5359 C 0.81756 0.43422 0.91239 0.0
C5360 C 0.82368 0.43132 0.88992 0.0
C5361 C 0.8549 0.44698 0.8833 0.0
H5362 H 0.84438 0.44408 0.84751 0.0
C5363 C 0.89038 0.45751 0.84193 0.0
C5364 C 0.8907 0.44824 0.83205 0.0
C5365 C 0.88034 0.45752 0.85095 0.0
C5366 C 0.84745 0.4449 0.85747 0.0
H5367 H 0.82698 0.4502 0.92208 0.0
H5368 H 0.83971 0.45673 0.90344 0.0
H5369 H 0.82838 0.44127 0.86464 0.0
H5370 H 0.88058 0.43198 0.82358 0.0
H5371 H 0.86314 0.43192 0.83938 0.0
H5372 H 0.87396 0.45037 0.87621 0.0
C5373 C 0.83321 0.44859 0.90247 0.0
C5374 C 0.8383 0.44328 0.86727 0.0
C5375 C 0.82585 0.44492 0.91312 0.0
C5376 C 0.8806 0.43923 0.83111 0.0
C5377 C 0.87055 0.43926 0.84011 0.0
C5378 C 0.864 0.44864 0.87353 0.0
C5379 C 0.83258 0.44156 0.89088 0.0
C5380 C 0.84195 0.44418 0.88032 0.0
C5381 C 0.87042 0.44827 0.85025 0.0
C5382 C 0.86043 0.44748 0.86051 0.0
H5383 H 0.80989 0.41941 0.89978 0.0
H5384 H 0.82299 0.42564 0.88117 0.0
H5385 H 0.85814 0.44746 0.89323 0.0
H5386 H 0.898 0.46461 0.84284 0.0
H5387 H 0.88042 0.46469 0.85856 0.0
C5388 C 0.31141 0.62966 0.08134 0.0
C5389 C 0.30146 0.63886 0.08091 0.0
C5390 C 0.31097 0.6195 0.09018 0.0
C5391 C 0.29747 0.61103 0.12163 0.0
H5392 H 0.30843 0.57635 0.11273 0.0
C5393 C 0.2999 0.57217 0.16059 0.0
C5394 C 0.3113 0.56486 0.16083 0.0
C5395 C 0.29662 0.57937 0.14969 0.0
C5396 C 0.30539 0.58599 0.11538 0.0
H5397 H 0.28312 0.64452 0.08924 0.0
H5398 H 0.28239 0.62678 0.10479 0.0
H5399 H 0.30678 0.59279 0.09588 0.0
H5400 H 0.32782 0.55866 0.14961 0.0
H5401 H 0.3223 0.57149 0.13064 0.0
H5402 H 0.29653 0.60451 0.14114 0.0
C5403 C 0.29056 0.62748 0.0983 0.0
C5404 C 0.30444 0.5954 0.10573 0.0
C5405 C 0.29096 0.63761 0.0894 0.0
C5406 C 0.31894 0.56418 0.14966 0.0
C5407 C 0.31575 0.57152 0.13878 0.0
C5408 C 0.29849 0.60168 0.13127 0.0
C5409 C 0.3006 0.61835 0.09883 0.0
C5410 C 0.30063 0.60806 0.1088 0.0
C5411 C 0.30479 0.57957 0.13885 0.0
C5412 C 0.3026 0.58907 0.1283 0.0
H5413 H 0.31962 0.63036 0.07489 0.0
H5414 H 0.31894 0.61273 0.09046 0.0
H5415 H 0.2947 0.62075 0.12434 0.0
H5416 H 0.29376 0.57275 0.16905 0.0
H5417 H 0.28793 0.58517 0.14996 0.0
C5418 C 0.19002 0.06512 0.39557 0.0
C5419 C 0.18952 0.05792 0.40704 0.0
C5420 C 0.1831 0.06108 0.38469 0.0
C5421 C 0.15363 0.04268 0.37807 0.0
H5422 H 0.16165 0.05027 0.34232 0.0
C5423 C 0.11546 0.03605 0.33837 0.0
C5424 C 0.11422 0.0465 0.32983 0.0
C5425 C 0.12625 0.03505 0.34642 0.0
C5426 C 0.15928 0.0481 0.35227 0.0
H5427 H 0.18259 0.04022 0.41577 0.0
H5428 H 0.17089 0.03295 0.3967 0.0
H5429 H 0.17844 0.05245 0.35878 0.0
H5430 H 0.12352 0.06383 0.32265 0.0
H5431 H 0.1422 0.06222 0.33681 0.0
H5432 H 0.13441 0.03877 0.37173 0.0
C5433 C 0.17624 0.04192 0.39619 0.0
C5434 C 0.1689 0.04934 0.36169 0.0
C5435 C 0.18302 0.04603 0.40708 0.0
C5436 C 0.12419 0.05567 0.32916 0.0
C5437 C 0.13496 0.05469 0.33721 0.0
C5438 C 0.14405 0.04143 0.36868 0.0
C5439 C 0.17566 0.0497 0.38509 0.0
C5440 C 0.16611 0.04686 0.37474 0.0
C5441 C 0.13601 0.0445 0.34611 0.0
C5442 C 0.14668 0.04437 0.35571 0.0
H5443 H 0.19492 0.07436 0.3953 0.0
H5444 H 0.18285 0.06734 0.37633 0.0
H5445 H 0.15103 0.04095 0.38804 0.0
H5446 H 0.10797 0.02879 0.33903 0.0
H5447 H 0.12685 0.02699 0.35305 0.0
C5448 C 0.18751 0.37183 0.57818 0.0
C5449 C 0.19689 0.36225 0.58023 0.0
C5450 C 0.18654 0.38236 0.58655 0.0
C5451 C 0.20396 0.40028 0.61223 0.0
H5452 H 0.16947 0.40905 0.62382 0.0
C5453 C 0.19346 0.42536 0.66047 0.0
C5454 C 0.18298 0.43391 0.66141 0.0
C5455 C 0.19606 0.41897 0.64892 0.0
C5456 C 0.17915 0.40694 0.6205 0.0
H5457 H 0.21279 0.3563 0.59245 0.0
H5458 H 0.21099 0.3746 0.6072 0.0
H5459 H 0.17229 0.39314 0.60677 0.0
H5460 H 0.16738 0.44299 0.65084 0.0
H5461 H 0.17194 0.43176 0.63053 0.0
H5462 H 0.21082 0.41381 0.62629 0.0
C5463 C 0.20449 0.37408 0.59902 0.0
C5464 C 0.18078 0.39779 0.61073 0.0
C5465 C 0.20548 0.36355 0.59063 0.0
C5466 C 0.17552 0.43644 0.65038 0.0
C5467 C 0.17808 0.42996 0.63879 0.0
C5468 C 0.20234 0.40943 0.62201 0.0
C5469 C 0.19491 0.38353 0.59717 0.0
C5470 C 0.19321 0.39416 0.60666 0.0
C5471 C 0.1882 0.42093 0.63804 0.0
C5472 C 0.18992 0.41266 0.62645 0.0
H5473 H 0.1808 0.37113 0.5702 0.0
H5474 H 0.17917 0.38955 0.58474 0.0
H5475 H 0.21366 0.39787 0.60915 0.0
H5476 H 0.1994 0.42324 0.66881 0.0
H5477 H 0.20384 0.41199 0.64872 0.0
C5478 C 0.68372 0.42992 0.60059 0.0
C5479 C 0.68187 0.43621 0.58873 0.0
C5480 C 0.67646 0.43356 0.61142 0.0
C5481 C 0.64516 0.44897 0.61852 0.0
H5482 H 0.65634 0.44667 0.65415 0.0
C5483 C 0.6103 0.46016 0.66012 0.0
C5484 C 0.61 0.45095 0.67005 0.0
C5485 C 0.62032 0.46013 0.65107 0.0
C5486 C 0.65309 0.44733 0.64423 0.0
H5487 H 0.67194 0.45189 0.5791 0.0
H5488 H 0.65971 0.45855 0.59799 0.0
H5489 H 0.67204 0.44361 0.63676 0.0
H5490 H 0.62021 0.43481 0.67864 0.0
H5491 H 0.63762 0.43468 0.6628 0.0
H5492 H 0.62624 0.45247 0.6259 0.0
C5493 C 0.66633 0.45051 0.5989 0.0
C5494 C 0.66207 0.44555 0.63428 0.0
C5495 C 0.67341 0.44676 0.5881 0.0
C5496 C 0.62017 0.44202 0.67106 0.0
C5497 C 0.63019 0.442 0.66205 0.0
C5498 C 0.63624 0.45079 0.62843 0.0
C5499 C 0.66736 0.44363 0.61056 0.0
C5500 C 0.65818 0.44627 0.62129 0.0
C5501 C 0.63025 0.45089 0.6518 0.0
C5502 C 0.64006 0.44989 0.6414 0.0
H5503 H 0.69017 0.42172 0.60131 0.0
H5504 H 0.67747 0.42801 0.62022 0.0
H5505 H 0.64171 0.44927 0.60865 0.0
H5506 H 0.60264 0.46721 0.65914 0.0
H5507 H 0.62018 0.46721 0.64338 0.0
C5508 C 0.31215 0.8667 0.41825 0.0
C5509 C 0.30283 0.85685 0.41804 0.0
C5510 C 0.31198 0.87649 0.40899 0.0
C5511 C 0.30138 0.88289 0.37599 0.0
H5512 H 0.30836 0.91867 0.38459 0.0
C5513 C 0.30329 0.92084 0.33614 0.0
C5514 C 0.3137 0.92949 0.3366 0.0
C5515 C 0.30004 0.91348 0.34693 0.0
C5516 C 0.30648 0.90871 0.38203 0.0
H5517 H 0.2859 0.84961 0.4081 0.0
H5518 H 0.28566 0.86669 0.3918 0.0
H5519 H 0.30645 0.90264 0.40182 0.0
H5520 H 0.32846 0.93782 0.34885 0.0
H5521 H 0.32305 0.92466 0.36768 0.0
H5522 H 0.30184 0.88872 0.35626 0.0
C5523 C 0.29313 0.8668 0.39913 0.0
C5524 C 0.30537 0.89955 0.39189 0.0
C5525 C 0.29324 0.85705 0.40846 0.0
C5526 C 0.32035 0.93124 0.34828 0.0
C5527 C 0.31722 0.92371 0.35906 0.0
C5528 C 0.30257 0.892 0.36616 0.0
C5529 C 0.30254 0.87659 0.39926 0.0
C5530 C 0.30291 0.88652 0.38895 0.0
C5531 C 0.30729 0.91443 0.35837 0.0
C5532 C 0.30522 0.90502 0.36902 0.0
H5533 H 0.31964 0.86683 0.42555 0.0
H5534 H 0.31946 0.8838 0.40925 0.0
H5535 H 0.2997 0.8729 0.37341 0.0
H5536 H 0.29791 0.91943 0.32728 0.0
H5537 H 0.2921 0.90673 0.34616 0.0
C5538 C 0.6789 0.56736 0.85034 0.0
C5539 C 0.68651 0.56791 0.83914 0.0
C5540 C 0.68199 0.57502 0.86104 0.0
C5541 C 0.70732 0.59525 0.8761 0.0
H5542 H 0.67861 0.61694 0.88648 0.0
C5543 C 0.70877 0.63306 0.91789 0.0
C5544 C 0.70314 0.64509 0.91509 0.0
C5545 C 0.70792 0.62287 0.90904 0.0
C5546 C 0.68672 0.61095 0.88367 0.0
H5547 H 0.70382 0.57606 0.83067 0.0
H5548 H 0.70932 0.58923 0.8494 0.0
H5549 H 0.67501 0.59935 0.87123 0.0
H5550 H 0.69264 0.65604 0.90067 0.0
H5551 H 0.69107 0.63824 0.8853 0.0
H5552 H 0.71904 0.60704 0.88849 0.0
C5553 C 0.70095 0.58298 0.84992 0.0
C5554 C 0.68463 0.60078 0.87508 0.0
C5555 C 0.69777 0.57548 0.83918 0.0
C5556 C 0.69709 0.64689 0.90309 0.0
C5557 C 0.6961 0.63668 0.89434 0.0
C5558 C 0.70938 0.60533 0.88487 0.0
C5559 C 0.69283 0.58319 0.86078 0.0
C5560 C 0.69493 0.59294 0.87106 0.0
C5561 C 0.70127 0.6245 0.89734 0.0
C5562 C 0.69913 0.61342 0.88854 0.0
H5563 H 0.67015 0.56164 0.85056 0.0
H5564 H 0.67563 0.57492 0.86935 0.0
H5565 H 0.71542 0.58934 0.87317 0.0
H5566 H 0.71348 0.63138 0.92707 0.0
H5567 H 0.71197 0.61358 0.9116 0.0
C5568 C 0.67411 0.37732 0.56013 0.0
C5569 C 0.6719 0.38786 0.55188 0.0
C5570 C 0.66573 0.36675 0.56013 0.0
C5571 C 0.63932 0.35101 0.54158 0.0
H5572 H 0.62889 0.33849 0.57528 0.0
C5573 C 0.59095 0.32585 0.55149 0.0
C5574 C 0.59026 0.31629 0.56108 0.0
C5575 C 0.60257 0.33213 0.54891 0.0
C5576 C 0.63188 0.34165 0.56577 0.0
H5577 H 0.65939 0.39548 0.53695 0.0
H5578 H 0.6446 0.37715 0.53712 0.0
H5579 H 0.64602 0.35443 0.57364 0.0
H5580 H 0.60134 0.30524 0.57496 0.0
H5581 H 0.62176 0.31626 0.57045 0.0
H5582 H 0.62478 0.33853 0.53379 0.0
C5583 C 0.65292 0.37693 0.54344 0.0
C5584 C 0.64171 0.35083 0.56483 0.0
C5585 C 0.66133 0.38749 0.54341 0.0
C5586 C 0.6016 0.31258 0.56752 0.0
C5587 C 0.61325 0.31895 0.565 0.0
C5588 C 0.62945 0.34185 0.54253 0.0
C5589 C 0.65492 0.36651 0.55193 0.0
C5590 C 0.64537 0.35582 0.55274 0.0
C5591 C 0.61377 0.32904 0.55592 0.0
C5592 C 0.62544 0.33727 0.55467 0.0
H5593 H 0.68224 0.3773 0.56671 0.0
H5594 H 0.66768 0.35881 0.56664 0.0
H5595 H 0.64208 0.35447 0.53211 0.0
H5596 H 0.58236 0.32888 0.54634 0.0
H5597 H 0.6026 0.33993 0.54195 0.0
C5598 C 0.43185 0.34657 0.82097 0.0
C5599 C 0.42953 0.33462 0.81501 0.0
C5600 C 0.42451 0.3574 0.81757 0.0
C5601 C 0.39269 0.36498 0.80321 0.0
H5602 H 0.40487 0.40032 0.80504 0.0
C5603 C 0.35939 0.40808 0.79201 0.0
C5604 C 0.35944 0.4179 0.80135 0.0
C5605 C 0.3689 0.3985 0.79214 0.0
C5606 C 0.40135 0.39048 0.8045 0.0
H5607 H 0.41856 0.32479 0.80017 0.0
H5608 H 0.40619 0.34372 0.79384 0.0
H5609 H 0.42019 0.38255 0.80765 0.0
H5610 H 0.36967 0.42566 0.8179 0.0
H5611 H 0.38627 0.40895 0.81809 0.0
H5612 H 0.37388 0.37289 0.80012 0.0
C5613 C 0.41325 0.3447 0.80149 0.0
C5614 C 0.41011 0.38031 0.80604 0.0
C5615 C 0.4204 0.33387 0.80504 0.0
C5616 C 0.36936 0.41817 0.8106 0.0
C5617 C 0.37893 0.40867 0.81065 0.0
C5618 C 0.384 0.37512 0.80155 0.0
C5619 C 0.41486 0.35649 0.80802 0.0
C5620 C 0.40586 0.36742 0.80554 0.0
C5621 C 0.37869 0.39865 0.80153 0.0
C5622 C 0.3882 0.38797 0.80233 0.0
H5623 H 0.43881 0.34737 0.82873 0.0
H5624 H 0.42598 0.36629 0.82287 0.0
H5625 H 0.38897 0.35521 0.80306 0.0
H5626 H 0.35188 0.40766 0.78474 0.0
H5627 H 0.36855 0.39093 0.78493 0.0
C5628 C 0.39834 0.18385 0.06937 0.0
C5629 C 0.41019 0.1818 0.06312 0.0
C5630 C 0.38738 0.17684 0.06563 0.0
C5631 C 0.3796 0.14579 0.05001 0.0
H5632 H 0.34426 0.15794 0.05177 0.0
C5633 C 0.33736 0.11193 0.03818 0.0
C5634 C 0.32726 0.11191 0.04721 0.0
C5635 C 0.34661 0.12177 0.03831 0.0
C5636 C 0.35408 0.15442 0.05127 0.0
H5637 H 0.41968 0.1717 0.04745 0.0
H5638 H 0.40057 0.15988 0.04067 0.0
H5639 H 0.36202 0.17313 0.05521 0.0
H5640 H 0.31856 0.12246 0.06307 0.0
H5641 H 0.33475 0.13954 0.06337 0.0
H5642 H 0.37176 0.12709 0.0463 0.0
C5643 C 0.39976 0.16649 0.04872 0.0
C5644 C 0.36426 0.16311 0.05326 0.0
C5645 C 0.41069 0.17334 0.05255 0.0
C5646 C 0.32626 0.12221 0.05599 0.0
C5647 C 0.33549 0.13204 0.05612 0.0
C5648 C 0.36947 0.13715 0.04798 0.0
C5649 C 0.38809 0.16777 0.05552 0.0
C5650 C 0.37714 0.15887 0.05273 0.0
C5651 C 0.34594 0.13178 0.04747 0.0
C5652 C 0.3566 0.14132 0.04868 0.0
H5653 H 0.39771 0.19029 0.07758 0.0
H5654 H 0.37856 0.17803 0.07112 0.0
H5655 H 0.38937 0.14209 0.04983 0.0
H5656 H 0.33834 0.10416 0.03125 0.0
H5657 H 0.35444 0.1214 0.0314 0.0
C5658 C 0.57229 0.16154 0.30178 0.0
C5659 C 0.56467 0.1606 0.31295 0.0
C5660 C 0.57999 0.1512 0.29787 0.0
C5661 C 0.58753 0.11652 0.30408 0.0
H5662 H 0.62234 0.12737 0.29552 0.0
C5663 C 0.63196 0.08361 0.30984 0.0
C5664 C 0.64158 0.08405 0.30029 0.0
C5665 C 0.62158 0.09219 0.3095 0.0
C5666 C 0.61262 0.12416 0.29767 0.0
H5667 H 0.55845 0.14785 0.32831 0.0
H5668 H 0.5721 0.12986 0.32168 0.0
H5669 H 0.60545 0.14346 0.29789 0.0
H5670 H 0.64781 0.0937 0.2828 0.0
H5671 H 0.62967 0.10882 0.28226 0.0
H5672 H 0.59495 0.09721 0.30434 0.0
C5673 C 0.57202 0.1385 0.3158 0.0
C5674 C 0.6029 0.13338 0.299 0.0
C5675 C 0.5642 0.14882 0.31964 0.0
C5676 C 0.64056 0.09318 0.29032 0.0
C5677 C 0.6302 0.10183 0.29002 0.0
C5678 C 0.5973 0.10729 0.30282 0.0
C5679 C 0.58035 0.13974 0.30513 0.0
C5680 C 0.59027 0.12971 0.30241 0.0
C5681 C 0.62062 0.10145 0.29964 0.0
C5682 C 0.60999 0.11104 0.2998 0.0
H5683 H 0.57274 0.17048 0.29637 0.0
H5684 H 0.58603 0.15238 0.28942 0.0
H5685 H 0.57788 0.11334 0.30652 0.0
H5686 H 0.63247 0.07666 0.31764 0.0
H5687 H 0.61446 0.09177 0.31715 0.0
C5688 C 0.59999 0.68561 0.43041 0.0
C5689 C 0.58824 0.68494 0.43711 0.0
C5690 C 0.6104 0.67784 0.43412 0.0
C5691 C 0.61582 0.64675 0.45038 0.0
H5692 H 0.65194 0.65519 0.44547 0.0
C5693 C 0.65625 0.60928 0.45877 0.0
C5694 C 0.66561 0.6086 0.44899 0.0
C5695 C 0.64749 0.61955 0.45913 0.0
C5696 C 0.64188 0.65269 0.44686 0.0
H5697 H 0.57847 0.67654 0.4536 0.0
H5698 H 0.59672 0.66331 0.46032 0.0
H5699 H 0.63564 0.67211 0.44343 0.0
H5700 H 0.6733 0.61823 0.43205 0.0
H5701 H 0.65798 0.63606 0.43263 0.0
H5702 H 0.62201 0.62731 0.45356 0.0
C5703 C 0.59781 0.66949 0.45196 0.0
C5704 C 0.63255 0.66238 0.44569 0.0
C5705 C 0.58739 0.67715 0.44818 0.0
C5706 C 0.66617 0.61847 0.4397 0.0
C5707 C 0.65747 0.62875 0.4401 0.0
C5708 C 0.62514 0.6371 0.4516 0.0
C5709 C 0.60926 0.66934 0.44467 0.0
C5710 C 0.61938 0.65948 0.44724 0.0
C5711 C 0.64797 0.62937 0.44976 0.0
C5712 C 0.63825 0.63991 0.44964 0.0
H5713 H 0.60089 0.69149 0.42181 0.0
H5714 H 0.61903 0.67793 0.42824 0.0
H5715 H 0.60577 0.64408 0.45139 0.0
H5716 H 0.65563 0.60184 0.46609 0.0
H5717 H 0.64034 0.61982 0.46675 0.0
C5718 C 0.12733 0.42447 0.70173 0.0
C5719 C 0.14013 0.4201 0.70254 0.0
C5720 C 0.11708 0.4157 0.7017 0.0
C5721 C 0.10914 0.38089 0.70751 0.0
H5722 H 0.08009 0.38859 0.68523 0.0
C5723 C 0.06703 0.3516 0.67828 0.0
C5724 C 0.06501 0.34158 0.68717 0.0
C5725 C 0.07437 0.3624 0.68173 0.0
C5726 C 0.08816 0.38621 0.69144 0.0
H5727 H 0.15228 0.40317 0.70409 0.0
H5728 H 0.13453 0.38781 0.70347 0.0
H5729 H 0.09704 0.40449 0.68803 0.0
H5730 H 0.06807 0.33543 0.70691 0.0
H5731 H 0.08016 0.3546 0.71321 0.0
H5732 H 0.10082 0.36226 0.71014 0.0
C5733 C 0.13227 0.39801 0.70328 0.0
C5734 C 0.09783 0.39546 0.69323 0.0
C5735 C 0.14249 0.40681 0.70356 0.0
C5736 C 0.06958 0.343 0.69984 0.0
C5737 C 0.07666 0.35392 0.70339 0.0
C5738 C 0.09961 0.37156 0.70554 0.0
C5739 C 0.1194 0.40232 0.70224 0.0
C5740 C 0.10857 0.39286 0.70114 0.0
C5741 C 0.07963 0.36353 0.69423 0.0
C5742 C 0.08905 0.374 0.69732 0.0
H5743 H 0.12523 0.4347 0.70103 0.0
H5744 H 0.10733 0.41944 0.70118 0.0
H5745 H 0.11708 0.37859 0.71391 0.0
H5746 H 0.06372 0.35069 0.66841 0.0
H5747 H 0.07651 0.36945 0.67433 0.0
C5748 C 0.34375 0.89306 0.95011 0.0
C5749 C 0.33083 0.89083 0.94666 0.0
C5750 C 0.35294 0.88327 0.94869 0.0
C5751 C 0.3575 0.84832 0.94609 0.0
H5752 H 0.3872 0.85692 0.92497 0.0
C5753 C 0.40391 0.81701 0.93917 0.0
C5754 C 0.4084 0.81596 0.92641 0.0
C5755 C 0.39326 0.8248 0.94205 0.0
C5756 C 0.37893 0.85439 0.93086 0.0
H5757 H 0.31726 0.87654 0.9396 0.0
H5758 H 0.33328 0.85937 0.93741 0.0
H5759 H 0.37138 0.87362 0.9302 0.0
H5760 H 0.40478 0.82155 0.90655 0.0
H5761 H 0.38632 0.83528 0.91163 0.0
H5762 H 0.36522 0.82908 0.94684 0.0
C5763 C 0.3363 0.86869 0.94109 0.0
C5764 C 0.36997 0.86395 0.93395 0.0
C5765 C 0.32717 0.87853 0.94227 0.0
C5766 C 0.40155 0.82217 0.91648 0.0
C5767 C 0.39105 0.83009 0.91938 0.0
C5768 C 0.36662 0.83878 0.94319 0.0
C5769 C 0.3493 0.87104 0.94405 0.0
C5770 C 0.35913 0.861 0.94151 0.0
C5771 C 0.38707 0.83179 0.93222 0.0
C5772 C 0.37733 0.84172 0.93542 0.0
H5773 H 0.34681 0.90246 0.9535 0.0
H5774 H 0.36292 0.88528 0.95108 0.0
H5775 H 0.3492 0.84583 0.95195 0.0
H5776 H 0.40901 0.81233 0.94701 0.0
H5777 H 0.39036 0.82597 0.95203 0.0
C5778 C 0.92485 0.15881 0.19951 0.0
C5779 C 0.93306 0.15899 0.18871 0.0
C5780 C 0.91777 0.14775 0.20255 0.0
C5781 C 0.90228 0.12147 0.18573 0.0
H5782 H 0.89391 0.10888 0.22001 0.0
C5783 C 0.85561 0.09376 0.196 0.0
C5784 C 0.85695 0.08185 0.20234 0.0
C5785 C 0.86593 0.1024 0.19544 0.0
C5786 C 0.89624 0.11225 0.21039 0.0
H5787 H 0.94095 0.14752 0.17311 0.0
H5788 H 0.92842 0.12816 0.17834 0.0
H5789 H 0.91144 0.12458 0.2172 0.0
H5790 H 0.86992 0.06991 0.21362 0.0
H5791 H 0.88794 0.08524 0.21289 0.0
H5792 H 0.88685 0.10952 0.17895 0.0
C5793 C 0.92749 0.1366 0.18444 0.0
C5794 C 0.90622 0.12123 0.20878 0.0
C5795 C 0.93471 0.14763 0.1815 0.0
C5796 C 0.86862 0.07903 0.20867 0.0
C5797 C 0.87892 0.08778 0.20826 0.0
C5798 C 0.89222 0.11267 0.18736 0.0
C5799 C 0.91865 0.1367 0.19475 0.0
C5800 C 0.90923 0.12604 0.19644 0.0
C5801 C 0.87776 0.09938 0.20134 0.0
C5802 C 0.88896 0.10812 0.19971 0.0
H5803 H 0.92342 0.16744 0.20526 0.0
H5804 H 0.91099 0.14815 0.21049 0.0
H5805 H 0.90426 0.12512 0.17613 0.0
H5806 H 0.84674 0.09621 0.19102 0.0
H5807 H 0.86474 0.11137 0.1902 0.0
C5808 C 0.56239 0.16778 0.88359 0.0
C5809 C 0.55262 0.16789 0.893 0.0
C5810 C 0.56213 0.15879 0.87355 0.0
C5811 C 0.54976 0.12668 0.86578 0.0
H5812 H 0.55929 0.13556 0.83066 0.0
C5813 C 0.5512 0.08758 0.82709 0.0
C5814 C 0.56219 0.08745 0.81917 0.0
C5815 C 0.54819 0.09846 0.83442 0.0
C5816 C 0.55667 0.13292 0.84044 0.0
H5817 H 0.5348 0.15883 0.89917 0.0
H5818 H 0.53437 0.14304 0.88164 0.0
H5819 H 0.55764 0.15253 0.847 0.0
H5820 H 0.57825 0.09879 0.81208 0.0
H5821 H 0.57323 0.11777 0.82519 0.0
H5822 H 0.54921 0.10709 0.85948 0.0
C5823 C 0.54227 0.14988 0.88208 0.0
C5824 C 0.55571 0.14263 0.84978 0.0
C5825 C 0.5425 0.15893 0.89209 0.0
C5826 C 0.56968 0.09868 0.81808 0.0
C5827 C 0.56678 0.10955 0.82559 0.0
C5828 C 0.55078 0.11699 0.85649 0.0
C5829 C 0.55213 0.14967 0.87274 0.0
C5830 C 0.55235 0.13958 0.86258 0.0
C5831 C 0.55624 0.10938 0.83418 0.0
C5832 C 0.55433 0.11995 0.84372 0.0
H5833 H 0.57031 0.1746 0.88402 0.0
H5834 H 0.56995 0.15877 0.86661 0.0
H5835 H 0.54737 0.12399 0.8756 0.0
H5836 H 0.54517 0.07908 0.82798 0.0
H5837 H 0.5398 0.09812 0.84064 0.0
C5838 C 0.59243 0.29056 0.14477 0.0
C5839 C 0.58264 0.29994 0.14499 0.0
C5840 C 0.60152 0.29042 0.13478 0.0
C5841 C 0.60771 0.30236 0.10162 0.0
H5842 H 0.64366 0.29936 0.11149 0.0
C5843 C 0.65019 0.31828 0.06893 0.0
C5844 C 0.66201 0.31177 0.0702 0.0
C5845 C 0.63969 0.31491 0.07674 0.0
C5846 C 0.63367 0.29995 0.10848 0.0
H5847 H 0.57454 0.31636 0.13482 0.0
H5848 H 0.59041 0.31614 0.11747 0.0
H5849 H 0.62696 0.29704 0.12778 0.0
H5850 H 0.67182 0.29597 0.07978 0.0
H5851 H 0.65343 0.2898 0.09304 0.0
H5852 H 0.61446 0.30546 0.08231 0.0
C5853 C 0.59102 0.30883 0.12493 0.0
C5854 C 0.62409 0.29864 0.11786 0.0
C5855 C 0.58198 0.30901 0.13493 0.0
C5856 C 0.66285 0.30125 0.0787 0.0
C5857 C 0.65234 0.29779 0.08638 0.0
C5858 C 0.61731 0.30361 0.0922 0.0
C5859 C 0.60095 0.2996 0.12479 0.0
C5860 C 0.61101 0.3 0.11458 0.0
C5861 C 0.64079 0.30488 0.08586 0.0
C5862 C 0.63043 0.30256 0.09554 0.0
H5863 H 0.59314 0.28342 0.15237 0.0
H5864 H 0.609 0.28312 0.13488 0.0
H5865 H 0.59769 0.3033 0.09876 0.0
H5866 H 0.6493 0.32647 0.06249 0.0
H5867 H 0.63096 0.32063 0.07612 0.0
C5868 C 0.43804 0.32571 0.37735 0.0
C5869 C 0.44687 0.32733 0.38752 0.0
C5870 C 0.43772 0.33445 0.3671 0.0
C5871 C 0.45598 0.36139 0.35167 0.0
H5872 H 0.42197 0.37156 0.33981 0.0
C5873 C 0.44448 0.41002 0.32743 0.0
C5874 C 0.43532 0.41033 0.31744 0.0
C5875 C 0.44732 0.39847 0.33375 0.0
C5876 C 0.43155 0.36866 0.34282 0.0
H5877 H 0.46245 0.3392 0.39483 0.0
H5878 H 0.46164 0.35475 0.37716 0.0
H5879 H 0.42406 0.35421 0.35545 0.0
H5880 H 0.42239 0.39874 0.30577 0.0
H5881 H 0.42724 0.37847 0.31699 0.0
H5882 H 0.46335 0.37637 0.33943 0.0
C5883 C 0.45514 0.34656 0.37691 0.0
C5884 C 0.43277 0.35869 0.35181 0.0
C5885 C 0.45556 0.33771 0.38711 0.0
C5886 C 0.4295 0.39876 0.31345 0.0
C5887 C 0.43221 0.3872 0.3199 0.0
C5888 C 0.45474 0.37146 0.34277 0.0
C5889 C 0.44611 0.34512 0.36685 0.0
C5890 C 0.44499 0.35505 0.35651 0.0
C5891 C 0.44094 0.38701 0.3303 0.0
C5892 C 0.44249 0.37532 0.33841 0.0
H5893 H 0.43131 0.3177 0.37734 0.0
H5894 H 0.43083 0.33287 0.35941 0.0
H5895 H 0.46556 0.35868 0.35488 0.0
H5896 H 0.44915 0.41879 0.33067 0.0
H5897 H 0.454 0.39865 0.3418 0.0
C5898 C 0.3452 0.1947 0.56891 0.0
C5899 C 0.34293 0.18277 0.56286 0.0
C5900 C 0.35673 0.19695 0.57552 0.0
C5901 C 0.3818 0.17838 0.59248 0.0
H5902 H 0.39665 0.21228 0.59819 0.0
C5903 C 0.42406 0.18629 0.62766 0.0
C5904 C 0.42235 0.19631 0.63666 0.0
C5905 C 0.41589 0.18518 0.61701 0.0
C5906 C 0.39258 0.20276 0.59669 0.0
H5907 H 0.35138 0.16426 0.55803 0.0
H5908 H 0.37173 0.16832 0.56924 0.0
H5909 H 0.38027 0.20937 0.58147 0.0
H5910 H 0.41102 0.21325 0.64133 0.0
H5911 H 0.3967 0.21133 0.62262 0.0
H5912 H 0.39403 0.17181 0.60777 0.0
C5913 C 0.36443 0.17581 0.56922 0.0
C5914 C 0.38319 0.20108 0.58712 0.0
C5915 C 0.35283 0.17352 0.56268 0.0
C5916 C 0.41254 0.20543 0.63457 0.0
C5917 C 0.40441 0.20437 0.62382 0.0
C5918 C 0.39126 0.18004 0.60194 0.0
C5919 C 0.36631 0.18736 0.57615 0.0
C5920 C 0.3775 0.18891 0.58506 0.0
C5921 C 0.40588 0.19411 0.61505 0.0
C5922 C 0.39658 0.19229 0.6043 0.0
H5923 H 0.33776 0.20204 0.56923 0.0
H5924 H 0.35773 0.20591 0.5808 0.0
H5925 H 0.37749 0.16892 0.5914 0.0
H5926 H 0.43157 0.17913 0.62898 0.0
H5927 H 0.41734 0.17725 0.61034 0.0
C5928 C 0.56229 0.83053 0.11713 0.0
C5929 C 0.55446 0.83292 0.10632 0.0
C5930 C 0.56276 0.83932 0.12733 0.0
C5931 C 0.54577 0.8676 0.14149 0.0
H5932 H 0.57942 0.87494 0.15618 0.0
C5933 C 0.55856 0.91481 0.16762 0.0
C5934 C 0.56692 0.91438 0.17828 0.0
C5935 C 0.55556 0.90359 0.16082 0.0
C5936 C 0.56991 0.87283 0.15236 0.0
H5937 H 0.54088 0.8463 0.09773 0.0
H5938 H 0.54196 0.86188 0.11538 0.0
H5939 H 0.57723 0.85796 0.1401 0.0
H5940 H 0.57826 0.90182 0.19058 0.0
H5941 H 0.5731 0.8821 0.17853 0.0
H5942 H 0.53861 0.88291 0.15343 0.0
C5943 C 0.54754 0.85308 0.11612 0.0
C5944 C 0.56865 0.8631 0.14313 0.0
C5945 C 0.54699 0.84421 0.10595 0.0
C5946 C 0.57178 0.90241 0.18239 0.0
C5947 C 0.56889 0.89116 0.17547 0.0
C5948 C 0.54706 0.87741 0.15067 0.0
C5949 C 0.55549 0.85077 0.1269 0.0
C5950 C 0.5566 0.8605 0.13742 0.0
C5951 C 0.56095 0.8917 0.16446 0.0
C5952 C 0.55919 0.88026 0.15604 0.0
H5953 H 0.56807 0.82183 0.11773 0.0
H5954 H 0.56881 0.83712 0.13556 0.0
H5955 H 0.5363 0.86568 0.13749 0.0
H5956 H 0.55464 0.92391 0.16427 0.0
H5957 H 0.54952 0.90435 0.15231 0.0
C5958 C 0.83862 0.30187 0.42441 0.0
C5959 C 0.83854 0.31314 0.43194 0.0
C5960 C 0.84934 0.29877 0.41687 0.0
C5961 C 0.88343 0.30792 0.40949 0.0
H5962 H 0.87368 0.29767 0.37481 0.0
C5963 C 0.91643 0.31496 0.36522 0.0
C5964 C 0.91699 0.30499 0.35604 0.0
C5965 C 0.90765 0.31439 0.37543 0.0
C5966 C 0.8766 0.30033 0.38449 0.0
H5967 H 0.84989 0.32957 0.43816 0.0
H5968 H 0.86851 0.32436 0.42475 0.0
H5969 H 0.85729 0.29903 0.39152 0.0
H5970 H 0.90884 0.28657 0.35037 0.0
H5971 H 0.89335 0.28563 0.36818 0.0
H5972 H 0.90271 0.30968 0.4022 0.0
C5973 C 0.8604 0.31777 0.42479 0.0
C5974 C 0.86721 0.30107 0.39412 0.0
C5975 C 0.84972 0.32078 0.43248 0.0
C5976 C 0.90858 0.29442 0.35727 0.0
C5977 C 0.89972 0.29389 0.36745 0.0
C5978 C 0.89282 0.30726 0.39981 0.0
C5979 C 0.86015 0.30698 0.41653 0.0
C5980 C 0.87046 0.30502 0.40671 0.0
C5981 C 0.89917 0.30388 0.37664 0.0
C5982 C 0.88947 0.30362 0.38717 0.0
H5983 H 0.83016 0.29573 0.42392 0.0
H5984 H 0.84894 0.29019 0.4109 0.0
H5985 H 0.88632 0.31082 0.41911 0.0
H5986 H 0.92281 0.32322 0.36455 0.0
H5987 H 0.90733 0.32232 0.38225 0.0
C5988 C 0.45562 0.65654 0.6061 0.0
C5989 C 0.448 0.66775 0.60619 0.0
C5990 C 0.45563 0.6482 0.61673 0.0
C5991 C 0.43525 0.63903 0.64444 0.0
H5992 H 0.46559 0.61988 0.6551 0.0
C5993 C 0.43194 0.60074 0.68438 0.0
C5994 C 0.43718 0.58875 0.68084 0.0
C5995 C 0.43498 0.61185 0.67732 0.0
C5996 C 0.45704 0.62518 0.65224 0.0
H5997 H 0.43483 0.6793 0.61766 0.0
H5998 H 0.43501 0.6649 0.63623 0.0
H5999 H 0.46754 0.63655 0.63853 0.0
H6000 H 0.45041 0.57913 0.66779 0.0
H6001 H 0.45569 0.59843 0.65552 0.0
H6002 H 0.42469 0.62748 0.65788 0.0
C6003 C 0.44077 0.66238 0.62788 0.0
C6004 C 0.45814 0.63469 0.64271 0.0
C6005 C 0.44071 0.67066 0.61725 0.0
C6006 C 0.44618 0.58823 0.67071 0.0
C6007 C 0.44927 0.59932 0.66372 0.0
C6008 C 0.43416 0.62956 0.65397 0.0
C6009 C 0.44806 0.65094 0.62768 0.0
C6010 C 0.44721 0.64157 0.63854 0.0
C6011 C 0.44338 0.61118 0.66667 0.0
C6012 C 0.44499 0.62236 0.65782 0.0
H6013 H 0.46133 0.65406 0.5977 0.0
H6014 H 0.46124 0.6394 0.61618 0.0
H6015 H 0.42659 0.64399 0.64133 0.0
H6016 H 0.42498 0.60142 0.69216 0.0
H6017 H 0.43042 0.62089 0.67994 0.0
C6018 C 0.0776 0.20235 0.86983 0.0
C6019 C 0.08149 0.20001 0.85705 0.0
C6020 C 0.08658 0.202 0.87991 0.0
C6021 C 0.12175 0.20276 0.88674 0.0
H6022 H 0.11198 0.18508 0.91826 0.0
C6023 C 0.14873 0.17631 0.93189 0.0
C6024 C 0.15894 0.18505 0.9336 0.0
C6025 C 0.13823 0.17954 0.92401 0.0
C6026 C 0.11487 0.19002 0.90952 0.0
H6027 H 0.09785 0.19572 0.84474 0.0
H6028 H 0.11349 0.19495 0.86229 0.0
H6029 H 0.09609 0.18802 0.90114 0.0
H6030 H 0.16575 0.20436 0.92929 0.0
H6031 H 0.14729 0.21016 0.91594 0.0
H6032 H 0.14066 0.20424 0.89479 0.0
C6033 C 0.10355 0.19725 0.86456 0.0
C6034 C 0.10572 0.19185 0.89975 0.0
C6035 C 0.09458 0.19764 0.85449 0.0
C6036 C 0.15806 0.19738 0.92804 0.0
C6037 C 0.14753 0.20066 0.92029 0.0
C6038 C 0.1309 0.2009 0.89646 0.0
C6039 C 0.09964 0.19927 0.87742 0.0
C6040 C 0.1091 0.1981 0.88817 0.0
C6041 C 0.13772 0.19162 0.91779 0.0
C6042 C 0.12762 0.19439 0.90793 0.0
H6043 H 0.06757 0.20424 0.87209 0.0
H6044 H 0.08327 0.2038 0.88966 0.0
H6045 H 0.12465 0.20776 0.87803 0.0
H6046 H 0.1492 0.16671 0.93601 0.0
H6047 H 0.1309 0.1723 0.92225 0.0
C6048 C 0.88882 0.0433 0.66061 0.0
C6049 C 0.88909 0.05153 0.67138 0.0
C6050 C 0.87834 0.04353 0.6521 0.0
C6051 C 0.85227 0.06517 0.64122 0.0
H6052 H 0.84001 0.03455 0.62351 0.0
C6053 C 0.81373 0.06877 0.60142 0.0
C6054 C 0.81727 0.06255 0.58991 0.0
C6055 C 0.82025 0.06603 0.61293 0.0
C6056 C 0.84332 0.04319 0.6284 0.0
H6057 H 0.8784 0.06608 0.68197 0.0
H6058 H 0.86005 0.06633 0.66726 0.0
H6059 H 0.85598 0.03246 0.64074 0.0
H6060 H 0.82977 0.04798 0.58156 0.0
H6061 H 0.8411 0.0432 0.60155 0.0
H6062 H 0.83989 0.07593 0.62869 0.0
C6063 C 0.86802 0.05988 0.66522 0.0
C6064 C 0.8525 0.042 0.63823 0.0
C6065 C 0.87851 0.05969 0.67369 0.0
C6066 C 0.82685 0.05296 0.59028 0.0
C6067 C 0.8333 0.05016 0.60177 0.0
C6068 C 0.84308 0.06635 0.63143 0.0
C6069 C 0.86789 0.05196 0.65421 0.0
C6070 C 0.85727 0.053 0.64459 0.0
C6071 C 0.83036 0.05694 0.61315 0.0
C6072 C 0.83869 0.05541 0.62472 0.0
H6073 H 0.89685 0.03691 0.65859 0.0
H6074 H 0.87864 0.0374 0.64363 0.0
H6075 H 0.85585 0.07388 0.64577 0.0
H6076 H 0.80637 0.0762 0.6014 0.0
H6077 H 0.81767 0.07129 0.62159 0.0
C6078 C 0.32417 0.94672 0.91177 0.0
C6079 C 0.31629 0.9357 0.91179 0.0
C6080 C 0.33151 0.94985 0.90092 0.0
C6081 C 0.33744 0.94163 0.86636 0.0
H6082 H 0.3726 0.95108 0.87515 0.0
C6083 C 0.38046 0.93594 0.83136 0.0
C6084 C 0.38975 0.94581 0.83109 0.0
C6085 C 0.37049 0.93617 0.84043 0.0
C6086 C 0.36278 0.94865 0.8725 0.0
H6087 H 0.30928 0.91971 0.90028 0.0
H6088 H 0.32235 0.92496 0.88139 0.0
H6089 H 0.35655 0.94917 0.89212 0.0
H6090 H 0.39583 0.96376 0.83997 0.0
H6091 H 0.37844 0.96412 0.85593 0.0
H6092 H 0.34394 0.94067 0.84673 0.0
C6093 C 0.32273 0.93134 0.88966 0.0
C6094 C 0.35353 0.94758 0.88223 0.0
C6095 C 0.31524 0.9283 0.90049 0.0
C6096 C 0.38883 0.956 0.83999 0.0
C6097 C 0.3789 0.95618 0.84913 0.0
C6098 C 0.34675 0.94261 0.85661 0.0
C6099 C 0.33129 0.94191 0.88992 0.0
C6100 C 0.34077 0.94396 0.87932 0.0
C6101 C 0.36966 0.94624 0.84948 0.0
C6102 C 0.35954 0.94602 0.85961 0.0
H6103 H 0.32505 0.95266 0.92033 0.0
H6104 H 0.3377 0.95826 0.90134 0.0
H6105 H 0.32768 0.93897 0.86374 0.0
H6106 H 0.38091 0.92798 0.82459 0.0
H6107 H 0.36362 0.92829 0.84057 0.0
C6108 C 0.80877 0.06443 0.15255 0.0
C6109 C 0.8216 0.06299 0.15673 0.0
C6110 C 0.80589 0.07225 0.14191 0.0
C6111 C 0.81796 0.10137 0.12716 0.0
H6112 H 0.79455 0.09421 0.09882 0.0
C6113 C 0.79845 0.14156 0.09414 0.0
C6114 C 0.80077 0.1395 0.08094 0.0
C6115 C 0.79994 0.13146 0.10297 0.0
C6116 C 0.80108 0.09631 0.10672 0.0
H6117 H 0.84153 0.06785 0.15253 0.0
H6118 H 0.83646 0.08159 0.13407 0.0
H6119 H 0.79983 0.07706 0.11435 0.0
H6120 H 0.80582 0.12517 0.06654 0.0
H6121 H 0.80813 0.10746 0.08197 0.0
H6122 H 0.81911 0.12062 0.11973 0.0
C6123 C 0.82865 0.07671 0.13905 0.0
C6124 C 0.80408 0.08654 0.11557 0.0
C6125 C 0.83155 0.06878 0.14955 0.0
C6126 C 0.80401 0.12703 0.07667 0.0
C6127 C 0.80527 0.11689 0.08547 0.0
C6128 C 0.8148 0.11117 0.11849 0.0
C6129 C 0.81577 0.07886 0.13541 0.0
C6130 C 0.81264 0.08897 0.12581 0.0
C6131 C 0.80354 0.11908 0.09873 0.0
C6132 C 0.80637 0.10873 0.10816 0.0
H6133 H 0.80091 0.06008 0.1579 0.0
H6134 H 0.79587 0.07377 0.1393 0.0
H6135 H 0.82446 0.10354 0.13507 0.0
H6136 H 0.79596 0.15108 0.09769 0.0
H6137 H 0.79848 0.13336 0.11315 0.0
C6138 C 0.62035 0.56124 0.32733 0.0
C6139 C 0.60961 0.55326 0.32958 0.0
C6140 C 0.6307 0.56139 0.33596 0.0
C6141 C 0.64558 0.54346 0.36323 0.0
H6142 H 0.65873 0.5772 0.37271 0.0
C6143 C 0.67109 0.55418 0.41131 0.0
C6144 C 0.68084 0.5636 0.4117 0.0
C6145 C 0.66466 0.55145 0.3998 0.0
C6146 C 0.65539 0.56768 0.37 0.0
H6147 H 0.6014 0.53899 0.34247 0.0
H6148 H 0.61938 0.53941 0.35771 0.0
H6149 H 0.64289 0.57535 0.35549 0.0
H6150 H 0.69205 0.577 0.40021 0.0
H6151 H 0.6808 0.5722 0.37998 0.0
H6152 H 0.65781 0.53587 0.37809 0.0
C6153 C 0.6199 0.5454 0.34916 0.0
C6154 C 0.64627 0.56661 0.36013 0.0
C6155 C 0.60955 0.54523 0.34049 0.0
C6156 C 0.68456 0.5697 0.40019 0.0
C6157 C 0.67806 0.56702 0.38865 0.0
C6158 C 0.6547 0.54453 0.37314 0.0
C6159 C 0.63054 0.5536 0.34707 0.0
C6160 C 0.64107 0.55452 0.35678 0.0
C6161 C 0.6678 0.55812 0.38841 0.0
C6162 C 0.65952 0.55669 0.37679 0.0
H6163 H 0.62071 0.56748 0.31894 0.0
H6164 H 0.63882 0.56767 0.33395 0.0
H6165 H 0.64195 0.53398 0.36074 0.0
H6166 H 0.66803 0.54929 0.42004 0.0
H6167 H 0.65674 0.54463 0.4 0.0
C6168 C 0.68036 0.93866 0.64648 0.0
C6169 C 0.68654 0.93504 0.65799 0.0
C6170 C 0.68362 0.93263 0.63482 0.0
C6171 C 0.70766 0.91088 0.61922 0.0
H6172 H 0.67772 0.89691 0.60167 0.0
C6173 C 0.69276 0.87376 0.57487 0.0
C6174 C 0.70114 0.86349 0.57775 0.0
C6175 C 0.69231 0.88465 0.5828 0.0
C6176 C 0.68622 0.90092 0.60624 0.0
H6177 H 0.70156 0.92302 0.66623 0.0
H6178 H 0.70722 0.91256 0.64602 0.0
H6179 H 0.67481 0.91287 0.6186 0.0
H6180 H 0.71594 0.85675 0.5909 0.0
H6181 H 0.71499 0.87567 0.60492 0.0
H6182 H 0.71904 0.89859 0.6071 0.0
C6183 C 0.6999 0.92003 0.64589 0.0
C6184 C 0.68454 0.91011 0.61596 0.0
C6185 C 0.69659 0.92596 0.65751 0.0
C6186 C 0.7094 0.86453 0.58845 0.0
C6187 C 0.7089 0.87541 0.59642 0.0
C6188 C 0.70935 0.9017 0.60946 0.0
C6189 C 0.69318 0.92298 0.63449 0.0
C6190 C 0.69521 0.91495 0.62278 0.0
C6191 C 0.70017 0.8855 0.59382 0.0
C6192 C 0.69862 0.89637 0.60308 0.0
H6193 H 0.67258 0.94564 0.64658 0.0
H6194 H 0.67837 0.9352 0.62615 0.0
H6195 H 0.71609 0.91456 0.6242 0.0
H6196 H 0.68636 0.87328 0.56662 0.0
H6197 H 0.68564 0.89234 0.58039 0.0
C6198 C 0.11272 0.95422 0.66096 0.0
C6199 C 0.10984 0.94429 0.66973 0.0
C6200 C 0.12326 0.95309 0.65257 0.0
C6201 C 0.14387 0.92854 0.63728 0.0
H6202 H 0.16617 0.95755 0.62938 0.0
C6203 C 0.18524 0.9227 0.60111 0.0
C6204 C 0.18582 0.93235 0.5916 0.0
C6205 C 0.17806 0.92465 0.61237 0.0
C6206 C 0.16001 0.94936 0.63146 0.0
H6207 H 0.11585 0.92549 0.67676 0.0
H6208 H 0.13419 0.92356 0.66221 0.0
H6209 H 0.149 0.96003 0.64536 0.0
H6210 H 0.18017 0.95194 0.58686 0.0
H6211 H 0.16753 0.95528 0.60633 0.0
H6212 H 0.15454 0.91795 0.62319 0.0
C6213 C 0.12826 0.93215 0.66168 0.0
C6214 C 0.15015 0.9508 0.64059 0.0
C6215 C 0.11776 0.93328 0.67005 0.0
C6216 C 0.17988 0.94431 0.594 0.0
C6217 C 0.17267 0.94624 0.60522 0.0
C6218 C 0.15367 0.92712 0.62815 0.0
C6219 C 0.13109 0.94199 0.65279 0.0
C6220 C 0.1419 0.94043 0.64351 0.0
C6221 C 0.17128 0.93627 0.61432 0.0
C6222 C 0.16178 0.93754 0.62502 0.0
H6223 H 0.10679 0.96282 0.66052 0.0
H6224 H 0.12511 0.96078 0.64574 0.0
H6225 H 0.13756 0.92041 0.63916 0.0
H6226 H 0.18978 0.91341 0.59956 0.0
H6227 H 0.17741 0.91688 0.61932 0.0
C6228 C 0.79371 0.35859 0.40623 0.0
C6229 C 0.80301 0.35836 0.41608 0.0
C6230 C 0.79389 0.36835 0.39689 0.0
C6231 C 0.80651 0.40102 0.38991 0.0
H6232 H 0.80389 0.3901 0.35423 0.0
C6233 C 0.82217 0.4329 0.34661 0.0
C6234 C 0.81571 0.43118 0.33483 0.0
C6235 C 0.81899 0.42524 0.3573 0.0
C6236 C 0.80438 0.39341 0.36413 0.0
H6237 H 0.81963 0.36829 0.42407 0.0
H6238 H 0.81997 0.38527 0.40778 0.0
H6239 H 0.80127 0.37433 0.37137 0.0
H6240 H 0.8002 0.42096 0.32521 0.0
H6241 H 0.79431 0.40802 0.34389 0.0
H6242 H 0.80972 0.42012 0.38264 0.0
C6243 C 0.81248 0.37798 0.4073 0.0
C6244 C 0.80291 0.38433 0.37397 0.0
C6245 C 0.81234 0.3682 0.41657 0.0
C6246 C 0.80545 0.42236 0.33415 0.0
C6247 C 0.80215 0.41487 0.34483 0.0
C6248 C 0.8079 0.41016 0.38005 0.0
C6249 C 0.80334 0.3781 0.39729 0.0
C6250 C 0.80408 0.38799 0.38695 0.0
C6251 C 0.80919 0.41585 0.3564 0.0
C6252 C 0.80695 0.40644 0.36703 0.0
H6253 H 0.78637 0.35116 0.40564 0.0
H6254 H 0.78666 0.36825 0.38934 0.0
H6255 H 0.80733 0.40415 0.39986 0.0
H6256 H 0.83016 0.43961 0.34736 0.0
H6257 H 0.82466 0.42623 0.36602 0.0
C6258 C 0.19417 0.08344 0.83446 0.0
C6259 C 0.18614 0.07263 0.83593 0.0
C6260 C 0.19774 0.09082 0.84513 0.0
C6261 C 0.19811 0.09204 0.88099 0.0
H6262 H 0.19548 0.1289 0.87491 0.0
C6263 C 0.19336 0.13021 0.9216 0.0
C6264 C 0.19968 0.14209 0.91991 0.0
C6265 C 0.19353 0.1209 0.91184 0.0
C6266 C 0.19648 0.11866 0.87674 0.0
H6267 H 0.17603 0.06065 0.84976 0.0
H6268 H 0.18202 0.07377 0.8685 0.0
H6269 H 0.19246 0.114 0.8571 0.0
H6270 H 0.21161 0.15334 0.90691 0.0
H6271 H 0.21195 0.13707 0.88986 0.0
H6272 H 0.20178 0.09684 0.9008 0.0
C6273 C 0.18572 0.07644 0.8591 0.0
C6274 C 0.19475 0.11008 0.86652 0.0
C6275 C 0.18226 0.06894 0.84838 0.0
C6276 C 0.20659 0.1443 0.90846 0.0
C6277 C 0.20673 0.13501 0.89868 0.0
C6278 C 0.1998 0.10066 0.89127 0.0
C6279 C 0.19321 0.08769 0.85752 0.0
C6280 C 0.19552 0.09667 0.86849 0.0
C6281 C 0.2 0.12331 0.90016 0.0
C6282 C 0.19896 0.11406 0.88925 0.0
H6283 H 0.19746 0.08642 0.82499 0.0
H6284 H 0.2038 0.09921 0.8436 0.0
H6285 H 0.19889 0.08178 0.88282 0.0
H6286 H 0.18797 0.12823 0.93034 0.0
H6287 H 0.18816 0.11204 0.91324 0.0
C6288 C 0.60043 0.81482 0.06938 0.0
C6289 C 0.58966 0.81531 0.06119 0.0
C6290 C 0.61156 0.82188 0.06642 0.0
C6291 C 0.62054 0.851 0.04781 0.0
H6292 H 0.65499 0.8426 0.05974 0.0
C6293 C 0.66359 0.88605 0.04178 0.0
C6294 C 0.67067 0.88822 0.05315 0.0
C6295 C 0.65466 0.87593 0.04113 0.0
C6296 C 0.64541 0.84505 0.05634 0.0
H6297 H 0.58243 0.82251 0.04294 0.0
H6298 H 0.60201 0.83431 0.03745 0.0
H6299 H 0.63796 0.82633 0.06094 0.0
H6300 H 0.67418 0.88136 0.07262 0.0
H6301 H 0.65867 0.86369 0.07144 0.0
H6302 H 0.62799 0.86973 0.04331 0.0
C6303 C 0.60175 0.82895 0.04642 0.0
C6304 C 0.63564 0.83575 0.05707 0.0
C6305 C 0.59057 0.82208 0.04949 0.0
C6306 C 0.66884 0.87995 0.06374 0.0
C6307 C 0.66004 0.86976 0.06304 0.0
C6308 C 0.63033 0.86022 0.04696 0.0
C6309 C 0.61218 0.82942 0.05511 0.0
C6310 C 0.623 0.83868 0.05303 0.0
C6311 C 0.65278 0.86771 0.05177 0.0
C6312 C 0.6428 0.85743 0.05145 0.0
H6313 H 0.59995 0.80974 0.07851 0.0
H6314 H 0.61933 0.82205 0.07341 0.0
H6315 H 0.61091 0.85376 0.04485 0.0
H6316 H 0.66484 0.89226 0.03346 0.0
H6317 H 0.64923 0.87452 0.03231 0.0
C6318 C 0.36106 0.9084 0.29242 0.0
C6319 C 0.36107 0.9196 0.30005 0.0
C6320 C 0.37141 0.89974 0.29299 0.0
C6321 C 0.39748 0.88971 0.31503 0.0
H6322 H 0.40928 0.87004 0.28546 0.0
C6323 C 0.43613 0.85033 0.32067 0.0
C6324 C 0.4327 0.83843 0.31515 0.0
C6325 C 0.42943 0.86158 0.31732 0.0
C6326 C 0.40609 0.87547 0.2938 0.0
H6327 H 0.37214 0.93084 0.31381 0.0
H6328 H 0.39026 0.91589 0.31464 0.0
H6329 H 0.39346 0.88727 0.28244 0.0
H6330 H 0.42017 0.82908 0.30123 0.0
H6331 H 0.40851 0.84862 0.29543 0.0
H6332 H 0.40983 0.87776 0.32643 0.0
C6333 C 0.38217 0.91362 0.30842 0.0
C6334 C 0.397 0.88531 0.29208 0.0
C6335 C 0.37181 0.92222 0.3079 0.0
C6336 C 0.42301 0.83811 0.30567 0.0
C6337 C 0.41636 0.84934 0.30229 0.0
C6338 C 0.40657 0.87992 0.31674 0.0
C6339 C 0.38199 0.90215 0.30116 0.0
C6340 C 0.39243 0.89241 0.30271 0.0
C6341 C 0.41924 0.86113 0.30835 0.0
C6342 C 0.41082 0.87253 0.30618 0.0
H6343 H 0.35289 0.90613 0.28629 0.0
H6344 H 0.37088 0.89094 0.28737 0.0
H6345 H 0.39403 0.89483 0.32347 0.0
H6346 H 0.44358 0.85087 0.32799 0.0
H6347 H 0.43198 0.87056 0.32203 0.0
C6348 C 0.34081 0.60512 0.55655 0.0
C6349 C 0.32938 0.60607 0.54932 0.0
C6350 C 0.34946 0.61544 0.55703 0.0
C6351 C 0.36092 0.64401 0.54029 0.0
H6352 H 0.37274 0.65429 0.57433 0.0
C6353 C 0.40893 0.66991 0.55068 0.0
C6354 C 0.40937 0.67926 0.5605 0.0
C6355 C 0.39747 0.66339 0.54794 0.0
C6356 C 0.36939 0.65169 0.56477 0.0
H6357 H 0.31826 0.61835 0.53653 0.0
H6358 H 0.33367 0.63635 0.53712 0.0
H6359 H 0.35624 0.6376 0.57224 0.0
H6360 H 0.39806 0.68961 0.57472 0.0
H6361 H 0.37796 0.67796 0.57008 0.0
H6362 H 0.37448 0.65778 0.53282 0.0
C6363 C 0.33579 0.62764 0.5425 0.0
C6364 C 0.36005 0.64205 0.56357 0.0
C6365 C 0.32701 0.61736 0.54217 0.0
C6366 C 0.39796 0.68246 0.56708 0.0
C6367 C 0.3865 0.67577 0.56448 0.0
C6368 C 0.37041 0.65356 0.54148 0.0
C6369 C 0.34695 0.62686 0.55018 0.0
C6370 C 0.35592 0.63793 0.55133 0.0
C6371 C 0.38624 0.66595 0.55509 0.0
C6372 C 0.37489 0.65733 0.55374 0.0
H6373 H 0.3429 0.59656 0.56218 0.0
H6374 H 0.35809 0.61452 0.56287 0.0
H6375 H 0.35789 0.641 0.53074 0.0
H6376 H 0.41758 0.66729 0.54543 0.0
H6377 H 0.3976 0.6558 0.54074 0.0
C6378 C 0.57486 0.66271 0.80097 0.0
C6379 C 0.56695 0.6624 0.81197 0.0
C6380 C 0.58232 0.65201 0.79762 0.0
C6381 C 0.58863 0.61735 0.80505 0.0
H6382 H 0.6239 0.62687 0.79683 0.0
C6383 C 0.6318 0.58285 0.81163 0.0
C6384 C 0.64158 0.58294 0.80224 0.0
C6385 C 0.62173 0.59179 0.81112 0.0
C6386 C 0.61406 0.62401 0.7989 0.0
H6387 H 0.55997 0.65042 0.82762 0.0
H6388 H 0.57322 0.63178 0.82196 0.0
H6389 H 0.60752 0.64354 0.7986 0.0
H6390 H 0.64843 0.59235 0.78485 0.0
H6391 H 0.63082 0.60806 0.78398 0.0
H6392 H 0.59538 0.59781 0.80578 0.0
C6393 C 0.57355 0.64021 0.81579 0.0
C6394 C 0.60463 0.63358 0.79988 0.0
C6395 C 0.56596 0.65089 0.81906 0.0
C6396 C 0.64105 0.59209 0.79225 0.0
C6397 C 0.63099 0.60109 0.79177 0.0
C6398 C 0.5981 0.60777 0.80412 0.0
C6399 C 0.58217 0.64081 0.80529 0.0
C6400 C 0.59182 0.6304 0.80312 0.0
C6401 C 0.62125 0.60106 0.80123 0.0
C6402 C 0.61095 0.61103 0.8012 0.0
H6403 H 0.5757 0.67142 0.79525 0.0
H6404 H 0.58859 0.65269 0.78928 0.0
H6405 H 0.57883 0.61454 0.8074 0.0
H6406 H 0.63194 0.5759 0.81944 0.0
H6407 H 0.61448 0.59163 0.81865 0.0
C6408 C 0.58763 0.17414 0.95014 0.0
C6409 C 0.58814 0.18202 0.93912 0.0
C6410 C 0.59806 0.16627 0.95342 0.0
C6411 C 0.63242 0.15872 0.94588 0.0
H6412 H 0.62173 0.12383 0.95429 0.0
C6413 C 0.66582 0.11454 0.94016 0.0
C6414 C 0.66528 0.1048 0.94959 0.0
C6415 C 0.65713 0.12483 0.94043 0.0
C6416 C 0.62491 0.13356 0.95217 0.0
H6417 H 0.60023 0.18848 0.92334 0.0
H6418 H 0.61842 0.17455 0.9289 0.0
H6419 H 0.60561 0.14074 0.95237 0.0
H6420 H 0.65533 0.09828 0.9668 0.0
H6421 H 0.64007 0.1163 0.96726 0.0
H6422 H 0.65174 0.15134 0.94531 0.0
C6423 C 0.61003 0.17456 0.93513 0.0
C6424 C 0.61566 0.14329 0.95109 0.0
C6425 C 0.59961 0.18254 0.93192 0.0
C6426 C 0.65593 0.10562 0.95937 0.0
C6427 C 0.64719 0.11591 0.95961 0.0
C6428 C 0.64169 0.14895 0.94692 0.0
C6429 C 0.60919 0.16599 0.94565 0.0
C6430 C 0.61927 0.15598 0.94781 0.0
C6431 C 0.64767 0.12561 0.95011 0.0
C6432 C 0.63801 0.13622 0.94993 0.0
H6433 H 0.57894 0.17363 0.95594 0.0
H6434 H 0.59721 0.16005 0.96178 0.0
H6435 H 0.63555 0.16841 0.9435 0.0
H6436 H 0.67294 0.11419 0.93251 0.0
H6437 H 0.65764 0.13204 0.93287 0.0
C6438 C 0.14177 0.90789 0.20414 0.0
C6439 C 0.14292 0.9167 0.19389 0.0
C6440 C 0.13147 0.89918 0.20454 0.0
C6441 C 0.09876 0.89323 0.19144 0.0
H6442 H 0.10643 0.85747 0.19929 0.0
C6443 C 0.06498 0.85066 0.17854 0.0
C6444 C 0.06529 0.83963 0.1864 0.0
C6445 C 0.07298 0.8612 0.18127 0.0
C6446 C 0.10403 0.86746 0.19734 0.0
H6447 H 0.13414 0.92337 0.17609 0.0
H6448 H 0.11624 0.9081 0.17673 0.0
H6449 H 0.12351 0.87349 0.20046 0.0
H6450 H 0.07327 0.83138 0.2039 0.0
H6451 H 0.08688 0.84989 0.2089 0.0
H6452 H 0.07928 0.88712 0.18813 0.0
C6453 C 0.12321 0.90801 0.18453 0.0
C6454 C 0.11386 0.87664 0.19797 0.0
C6455 C 0.13353 0.91668 0.1841 0.0
C6456 C 0.07294 0.83972 0.19759 0.0
C6457 C 0.08082 0.85028 0.20039 0.0
C6458 C 0.08889 0.88403 0.19085 0.0
C6459 C 0.12208 0.89914 0.19473 0.0
C6460 C 0.11138 0.8896 0.19487 0.0
C6461 C 0.08135 0.86092 0.19198 0.0
C6462 C 0.09144 0.871 0.19366 0.0
H6463 H 0.14883 0.90774 0.21186 0.0
H6464 H 0.1308 0.89254 0.21259 0.0
H6465 H 0.09652 0.90319 0.18917 0.0
H6466 H 0.05921 0.85082 0.16981 0.0
H6467 H 0.07317 0.8692 0.17454 0.0
C6468 C 0.33314 0.38205 0.43847 0.0
C6469 C 0.33406 0.39227 0.44733 0.0
C6470 C 0.34213 0.37201 0.43863 0.0
C6471 C 0.37534 0.36484 0.44841 0.0
H6472 H 0.36521 0.32926 0.44258 0.0
C6473 C 0.41355 0.32513 0.44618 0.0
C6474 C 0.41249 0.31655 0.43574 0.0
C6475 C 0.40318 0.33298 0.44965 0.0
C6476 C 0.36819 0.33915 0.44416 0.0
H6477 H 0.345 0.39994 0.46343 0.0
H6478 H 0.36077 0.38239 0.46371 0.0
H6479 H 0.34866 0.34595 0.44459 0.0
H6480 H 0.39954 0.30887 0.42122 0.0
H6481 H 0.38144 0.32278 0.42711 0.0
H6482 H 0.39483 0.35822 0.4476 0.0
C6483 C 0.35313 0.38219 0.45658 0.0
C6484 C 0.35872 0.34871 0.44531 0.0
C6485 C 0.34409 0.39222 0.45644 0.0
C6486 C 0.4006 0.31538 0.42934 0.0
C6487 C 0.39023 0.32334 0.43275 0.0
C6488 C 0.38479 0.35532 0.44721 0.0
C6489 C 0.35227 0.372 0.44764 0.0
C6490 C 0.36221 0.36168 0.44731 0.0
C6491 C 0.39155 0.33253 0.44267 0.0
C6492 C 0.38135 0.34238 0.44495 0.0
H6493 H 0.32549 0.38182 0.43133 0.0
H6494 H 0.34131 0.36441 0.4315 0.0
H6495 H 0.37836 0.37477 0.44974 0.0
H6496 H 0.42258 0.32614 0.45137 0.0
H6497 H 0.40442 0.33972 0.45755 0.0
C6498 C 0.85779 0.5918 0.70358 0.0
C6499 C 0.85813 0.58059 0.69598 0.0
C6500 C 0.86788 0.60076 0.70299 0.0
C6501 C 0.89464 0.61109 0.68162 0.0
H6502 H 0.90498 0.63097 0.7116 0.0
C6503 C 0.9341 0.65029 0.67859 0.0
C6504 C 0.93004 0.66229 0.68339 0.0
C6505 C 0.92706 0.6391 0.68141 0.0
C6506 C 0.90221 0.62546 0.70316 0.0
H6507 H 0.86945 0.56973 0.68212 0.0
H6508 H 0.88716 0.58514 0.68132 0.0
H6509 H 0.88915 0.61366 0.71399 0.0
H6510 H 0.91594 0.67195 0.69549 0.0
H6511 H 0.9038 0.65247 0.70051 0.0
H6512 H 0.90761 0.62298 0.67079 0.0
C6513 C 0.87899 0.58723 0.6875 0.0
C6514 C 0.89308 0.6156 0.7045 0.0
C6515 C 0.86886 0.57836 0.688 0.0
C6516 C 0.91927 0.66282 0.69161 0.0
C6517 C 0.91236 0.65165 0.69455 0.0
C6518 C 0.90383 0.62087 0.68031 0.0
C6519 C 0.87858 0.59862 0.69486 0.0
C6520 C 0.889 0.60845 0.6937 0.0
C6521 C 0.91598 0.63972 0.68924 0.0
C6522 C 0.90753 0.62831 0.69102 0.0
H6523 H 0.84963 0.59377 0.70981 0.0
H6524 H 0.86713 0.60951 0.70866 0.0
H6525 H 0.8916 0.60595 0.67304 0.0
H6526 H 0.94237 0.64963 0.67222 0.0
H6527 H 0.93011 0.63 0.67725 0.0
C6528 C 0.54047 0.6641 0.38594 0.0
C6529 C 0.55171 0.67135 0.38815 0.0
C6530 C 0.53997 0.65523 0.37576 0.0
C6531 C 0.55531 0.64622 0.34492 0.0
H6532 H 0.54542 0.61136 0.35416 0.0
C6533 C 0.57025 0.60153 0.3152 0.0
C6534 C 0.56257 0.5904 0.31587 0.0
C6535 C 0.56684 0.61258 0.32218 0.0
C6536 C 0.54792 0.62108 0.35124 0.0
H6537 H 0.57108 0.67533 0.38126 0.0
H6538 H 0.57016 0.65994 0.36348 0.0
H6539 H 0.54314 0.62858 0.36989 0.0
H6540 H 0.54477 0.58238 0.32333 0.0
H6541 H 0.53845 0.6018 0.33496 0.0
H6542 H 0.56018 0.63873 0.32628 0.0
C6543 C 0.56174 0.6611 0.36957 0.0
C6544 C 0.54665 0.63095 0.36032 0.0
C6545 C 0.5623 0.66983 0.37982 0.0
C6546 C 0.55093 0.59081 0.32278 0.0
C6547 C 0.54739 0.60191 0.32954 0.0
C6548 C 0.55644 0.63637 0.33575 0.0
C6549 C 0.55064 0.65361 0.36752 0.0
C6550 C 0.55058 0.64356 0.35735 0.0
C6551 C 0.55556 0.61275 0.32979 0.0
C6552 C 0.553 0.6236 0.33889 0.0
H6553 H 0.53216 0.66511 0.3922 0.0
H6554 H 0.53127 0.6496 0.37436 0.0
H6555 H 0.55829 0.65591 0.34234 0.0
H6556 H 0.57932 0.60142 0.30998 0.0
H6557 H 0.57344 0.62068 0.32218 0.0
C6558 C 0.6657 0.80775 0.58425 0.0
C6559 C 0.66485 0.81465 0.5726 0.0
C6560 C 0.65459 0.8045 0.59111 0.0
C6561 C 0.62211 0.81639 0.59676 0.0
H6562 H 0.61785 0.78428 0.61556 0.0
C6563 C 0.57886 0.80848 0.63058 0.0
C6564 C 0.58139 0.80252 0.64249 0.0
C6565 C 0.58815 0.80854 0.62084 0.0
C6566 C 0.61895 0.79334 0.61045 0.0
H6567 H 0.6517 0.82308 0.5587 0.0
H6568 H 0.63215 0.81748 0.57082 0.0
H6569 H 0.63555 0.78655 0.60015 0.0
H6570 H 0.59552 0.79176 0.65351 0.0
H6571 H 0.61197 0.79215 0.6366 0.0
H6572 H 0.60588 0.82341 0.60734 0.0
C6573 C 0.64147 0.81463 0.57462 0.0
C6574 C 0.62904 0.7946 0.60158 0.0
C6575 C 0.65262 0.81777 0.56766 0.0
C6576 C 0.59332 0.79641 0.64441 0.0
C6577 C 0.60269 0.79656 0.63468 0.0
C6578 C 0.61208 0.81517 0.60568 0.0
C6579 C 0.64237 0.80817 0.58654 0.0
C6580 C 0.63083 0.80621 0.59478 0.0
C6581 C 0.60026 0.80275 0.62282 0.0
C6582 C 0.61047 0.80368 0.61276 0.0
H6583 H 0.675 0.80517 0.58827 0.0
H6584 H 0.65563 0.79965 0.60032 0.0
H6585 H 0.62337 0.82553 0.59184 0.0
H6586 H 0.56968 0.81316 0.62877 0.0
H6587 H 0.58584 0.81317 0.61175 0.0
C6588 C 0.42878 0.89855 0.81388 0.0
C6589 C 0.43602 0.90997 0.81471 0.0
C6590 C 0.43224 0.88775 0.82121 0.0
C6591 C 0.45787 0.87293 0.84121 0.0
H6592 H 0.42936 0.86207 0.86292 0.0
C6593 C 0.45914 0.83096 0.87909 0.0
C6594 C 0.45377 0.83405 0.89117 0.0
C6595 C 0.45841 0.83973 0.86883 0.0
C6596 C 0.4374 0.865 0.85691 0.0
H6597 H 0.45314 0.91875 0.82294 0.0
H6598 H 0.45929 0.89985 0.83558 0.0
H6599 H 0.4255 0.87732 0.84541 0.0
H6600 H 0.44394 0.84893 0.90214 0.0
H6601 H 0.44254 0.86413 0.88421 0.0
H6602 H 0.46977 0.86063 0.85292 0.0
C6603 C 0.45091 0.89924 0.82935 0.0
C6604 C 0.43517 0.87359 0.84679 0.0
C6605 C 0.44736 0.91008 0.82216 0.0
C6606 C 0.44817 0.84627 0.89296 0.0
C6607 C 0.44729 0.85493 0.88268 0.0
C6608 C 0.46007 0.86413 0.85124 0.0
C6609 C 0.44311 0.88816 0.82934 0.0
C6610 C 0.4454 0.87781 0.83896 0.0
C6611 C 0.45213 0.85163 0.87046 0.0
C6612 C 0.44988 0.86031 0.85933 0.0
H6613 H 0.41999 0.8982 0.80822 0.0
H6614 H 0.42613 0.87927 0.82094 0.0
H6615 H 0.46592 0.87604 0.8353 0.0
H6616 H 0.46351 0.8216 0.87744 0.0
H6617 H 0.46222 0.83698 0.85949 0.0
C6618 C 0.34915 0.67931 0.06619 0.0
C6619 C 0.33742 0.68604 0.06704 0.0
C6620 C 0.35973 0.68308 0.07372 0.0
C6621 C 0.36594 0.69968 0.10448 0.0
H6622 H 0.40189 0.69609 0.0948 0.0
C6623 C 0.40679 0.71022 0.14071 0.0
C6624 C 0.41669 0.70098 0.1412 0.0
C6625 C 0.39787 0.71015 0.13057 0.0
C6626 C 0.39189 0.69709 0.09765 0.0
H6627 H 0.32785 0.70259 0.07555 0.0
H6628 H 0.34634 0.70935 0.08838 0.0
H6629 H 0.38507 0.69304 0.07853 0.0
H6630 H 0.42525 0.68465 0.13128 0.0
H6631 H 0.40965 0.68442 0.11371 0.0
H6632 H 0.37266 0.70342 0.12361 0.0
C6633 C 0.3473 0.70095 0.08223 0.0
C6634 C 0.38226 0.69535 0.08833 0.0
C6635 C 0.33674 0.69713 0.07481 0.0
C6636 C 0.41772 0.6919 0.13118 0.0
C6637 C 0.40883 0.69183 0.12104 0.0
C6638 C 0.37554 0.70143 0.11376 0.0
C6639 C 0.35877 0.69369 0.08216 0.0
C6640 C 0.36916 0.6965 0.09167 0.0
C6641 C 0.3987 0.70084 0.1207 0.0
C6642 C 0.38862 0.70001 0.11051 0.0
H6643 H 0.34993 0.67069 0.06031 0.0
H6644 H 0.36839 0.67723 0.07347 0.0
H6645 H 0.35595 0.70037 0.10748 0.0
H6646 H 0.4058 0.71738 0.14827 0.0
H6647 H 0.39027 0.71732 0.1305 0.0
C6648 C 0.54376 0.34281 0.605 0.0
C6649 C 0.55299 0.33289 0.6049 0.0
C6650 C 0.54372 0.352 0.61491 0.0
C6651 C 0.55554 0.35844 0.64804 0.0
H6652 H 0.55292 0.39427 0.63763 0.0
C6653 C 0.57022 0.40153 0.68079 0.0
C6654 C 0.5636 0.41323 0.67912 0.0
C6655 C 0.5673 0.39088 0.67297 0.0
C6656 C 0.55341 0.38432 0.64079 0.0
H6657 H 0.56923 0.32462 0.61522 0.0
H6658 H 0.56919 0.34067 0.63243 0.0
H6659 H 0.55078 0.37738 0.62154 0.0
H6660 H 0.54805 0.42271 0.66883 0.0
H6661 H 0.54263 0.40409 0.65558 0.0
H6662 H 0.55831 0.36545 0.66732 0.0
C6663 C 0.56192 0.34131 0.62494 0.0
C6664 C 0.55221 0.37462 0.63153 0.0
C6665 C 0.56201 0.33218 0.61502 0.0
C6666 C 0.55342 0.41384 0.67019 0.0
C6667 C 0.55039 0.4032 0.66253 0.0
C6668 C 0.55668 0.36817 0.65736 0.0
C6669 C 0.55286 0.35139 0.62493 0.0
C6670 C 0.55337 0.36158 0.63501 0.0
C6671 C 0.55762 0.39175 0.66345 0.0
C6672 C 0.55571 0.38124 0.65383 0.0
H6673 H 0.53665 0.34357 0.59737 0.0
H6674 H 0.53653 0.35959 0.61471 0.0
H6675 H 0.55635 0.34846 0.65104 0.0
H6676 H 0.57815 0.40084 0.68757 0.0
H6677 H 0.5731 0.38224 0.67391 0.0
C6678 C 0.83487 0.80238 0.92392 0.0
C6679 C 0.83562 0.81327 0.93196 0.0
C6680 C 0.84546 0.7986 0.91651 0.0
C6681 C 0.88054 0.80412 0.91092 0.0
H6682 H 0.87133 0.79692 0.87534 0.0
C6683 C 0.91637 0.8091 0.86865 0.0
C6684 C 0.9158 0.80002 0.8586 0.0
C6685 C 0.90723 0.80894 0.87855 0.0
C6686 C 0.87409 0.79868 0.88527 0.0
H6687 H 0.84827 0.82829 0.93917 0.0
H6688 H 0.86675 0.82186 0.92604 0.0
H6689 H 0.85443 0.79949 0.89139 0.0
H6690 H 0.90539 0.78348 0.85114 0.0
H6691 H 0.88936 0.78319 0.86847 0.0
H6692 H 0.90024 0.80369 0.90462 0.0
C6693 C 0.85802 0.81611 0.92556 0.0
C6694 C 0.86439 0.80014 0.89451 0.0
C6695 C 0.84743 0.81983 0.93307 0.0
C6696 C 0.90602 0.79064 0.85873 0.0
C6697 C 0.89683 0.7905 0.86863 0.0
C6698 C 0.89026 0.8027 0.90165 0.0
C6699 C 0.85701 0.80571 0.91687 0.0
C6700 C 0.86748 0.80303 0.90742 0.0
C6701 C 0.8973 0.7997 0.87861 0.0
C6702 C 0.88712 0.80013 0.88869 0.0
H6703 H 0.82591 0.79706 0.92296 0.0
H6704 H 0.84445 0.79036 0.91015 0.0
H6705 H 0.88326 0.80618 0.9208 0.0
H6706 H 0.92381 0.81645 0.86882 0.0
H6707 H 0.90775 0.81628 0.88598 0.0
C6708 C 0.43037 0.10097 0.1852 0.0
C6709 C 0.43802 0.0898 0.18443 0.0
C6710 C 0.43353 0.11191 0.1779 0.0
C6711 C 0.45023 0.11939 0.14756 0.0
H6712 H 0.44321 0.15495 0.15683 0.0
C6713 C 0.45783 0.16065 0.11116 0.0
C6714 C 0.44784 0.16978 0.11041 0.0
C6715 C 0.45829 0.15185 0.12138 0.0
C6716 C 0.44517 0.14506 0.1541 0.0
H6717 H 0.45556 0.08168 0.17643 0.0
H6718 H 0.46127 0.10082 0.16404 0.0
H6719 H 0.44141 0.13804 0.17321 0.0
H6720 H 0.43068 0.17708 0.11991 0.0
H6721 H 0.43136 0.16161 0.13762 0.0
H6722 H 0.45366 0.12626 0.12843 0.0
C6723 C 0.45263 0.10104 0.16992 0.0
C6724 C 0.44415 0.13538 0.16348 0.0
C6725 C 0.44941 0.09011 0.1771 0.0
C6726 C 0.4385 0.17014 0.12023 0.0
C6727 C 0.43894 0.16134 0.13044 0.0
C6728 C 0.45125 0.12903 0.13822 0.0
C6729 C 0.44444 0.11187 0.1698 0.0
C6730 C 0.44655 0.12241 0.16028 0.0
C6731 C 0.44875 0.15199 0.13105 0.0
C6732 C 0.44859 0.14196 0.14132 0.0
H6733 H 0.4215 0.10098 0.19073 0.0
H6734 H 0.42699 0.12006 0.178 0.0
H6735 H 0.45186 0.10948 0.14466 0.0
H6736 H 0.46522 0.1602 0.10377 0.0
H6737 H 0.46607 0.14488 0.12166 0.0
C6738 C 0.16373 0.6954 0.42203 0.0
C6739 C 0.1632 0.68484 0.4305 0.0
C6740 C 0.15305 0.69867 0.41451 0.0
C6741 C 0.11808 0.69216 0.4091 0.0
H6742 H 0.12712 0.69958 0.37352 0.0
C6743 C 0.08235 0.68704 0.36662 0.0
C6744 C 0.08269 0.69643 0.35684 0.0
C6745 C 0.09149 0.68713 0.37652 0.0
C6746 C 0.12442 0.69772 0.38345 0.0
H6747 H 0.15093 0.66983 0.4383 0.0
H6748 H 0.1323 0.6753 0.42488 0.0
H6749 H 0.14408 0.69724 0.38954 0.0
H6750 H 0.09274 0.7134 0.34985 0.0
H6751 H 0.10881 0.71351 0.36715 0.0
H6752 H 0.09837 0.69222 0.40279 0.0
C6753 C 0.14089 0.68122 0.42419 0.0
C6754 C 0.13415 0.69641 0.39267 0.0
C6755 C 0.15156 0.67805 0.43187 0.0
C6756 C 0.09228 0.70601 0.35723 0.0
C6757 C 0.10148 0.70605 0.36711 0.0
C6758 C 0.10833 0.6934 0.39983 0.0
C6759 C 0.14166 0.69132 0.41512 0.0
C6760 C 0.13112 0.69352 0.4056 0.0
C6761 C 0.10122 0.69656 0.37682 0.0
C6762 C 0.11142 0.69609 0.38689 0.0
H6763 H 0.17255 0.7009 0.4209 0.0
H6764 H 0.15388 0.70674 0.4079 0.0
H6765 H 0.1154 0.69009 0.41899 0.0
H6766 H 0.07505 0.67955 0.36659 0.0
H6767 H 0.09113 0.67959 0.38377 0.0
C6768 C 0.88736 0.54074 0.15973 0.0
C6769 C 0.88827 0.54926 0.17023 0.0
C6770 C 0.87665 0.54116 0.15151 0.0
C6771 C 0.85132 0.56375 0.14075 0.0
H6772 H 0.83806 0.53351 0.12312 0.0
C6773 C 0.81314 0.56827 0.10058 0.0
C6774 C 0.81677 0.56202 0.08911 0.0
C6775 C 0.81947 0.56542 0.11218 0.0
C6776 C 0.84164 0.54203 0.12801 0.0
H6777 H 0.87845 0.56445 0.18076 0.0
H6778 H 0.85967 0.56501 0.1666 0.0
H6779 H 0.85383 0.53092 0.14046 0.0
H6780 H 0.82923 0.54735 0.08089 0.0
H6781 H 0.84017 0.54234 0.10105 0.0
H6782 H 0.83937 0.57487 0.12811 0.0
C6783 C 0.86733 0.5582 0.16451 0.0
C6784 C 0.85071 0.54056 0.1379 0.0
C6785 C 0.87806 0.55784 0.17266 0.0
C6786 C 0.82626 0.55235 0.08958 0.0
C6787 C 0.83247 0.54942 0.10116 0.0
C6788 C 0.84221 0.56521 0.13092 0.0
C6789 C 0.8666 0.55006 0.15367 0.0
C6790 C 0.85589 0.55142 0.14419 0.0
C6791 C 0.82941 0.55616 0.11252 0.0
C6792 C 0.8375 0.55439 0.12423 0.0
H6793 H 0.8951 0.53404 0.15762 0.0
H6794 H 0.87651 0.53485 0.14318 0.0
H6795 H 0.85521 0.57235 0.14523 0.0
H6796 H 0.80586 0.57577 0.10048 0.0
H6797 H 0.81683 0.57069 0.12082 0.0
C6798 C 0.31702 0.43055 0.40008 0.0
C6799 C 0.31862 0.43747 0.41162 0.0
C6800 C 0.32406 0.43398 0.38906 0.0
C6801 C 0.35473 0.45003 0.38109 0.0
H6802 H 0.34354 0.44545 0.34568 0.0
C6803 C 0.38934 0.45932 0.33881 0.0
C6804 C 0.38969 0.44962 0.32935 0.0
C6805 C 0.37938 0.45962 0.3479 0.0
C6806 C 0.3468 0.44674 0.35553 0.0
H6807 H 0.32789 0.45402 0.42044 0.0
H6808 H 0.3398 0.46026 0.40117 0.0
H6809 H 0.32796 0.44303 0.36326 0.0
H6810 H 0.37965 0.43294 0.32166 0.0
H6811 H 0.36234 0.43338 0.3376 0.0
H6812 H 0.37357 0.45348 0.37348 0.0
C6813 C 0.33349 0.45193 0.40068 0.0
C6814 C 0.33788 0.44535 0.36559 0.0
C6815 C 0.3266 0.44842 0.4117 0.0
C6816 C 0.37965 0.44052 0.32886 0.0
C6817 C 0.36968 0.44083 0.33794 0.0
C6818 C 0.3636 0.45146 0.37107 0.0
C6819 C 0.33271 0.44446 0.38938 0.0
C6820 C 0.34178 0.44686 0.37851 0.0
C6821 C 0.36956 0.45024 0.34771 0.0
C6822 C 0.35978 0.4497 0.35818 0.0
H6823 H 0.31095 0.42204 0.39978 0.0
H6824 H 0.32326 0.42797 0.38054 0.0
H6825 H 0.35817 0.45097 0.39092 0.0
H6826 H 0.39691 0.46651 0.33937 0.0
H6827 H 0.37946 0.46711 0.35521 0.0
C6828 C 0.81898 0.56375 0.65013 0.0
C6829 C 0.81183 0.56496 0.66158 0.0
C6830 C 0.81571 0.57109 0.63925 0.0
C6831 C 0.79981 0.60201 0.63207 0.0
H6832 H 0.80512 0.59215 0.59637 0.0
C6833 C 0.79117 0.63801 0.5907 0.0
C6834 C 0.80087 0.63856 0.58126 0.0
C6835 C 0.79087 0.62787 0.5996 0.0
C6836 C 0.80364 0.59504 0.6063 0.0
H6837 H 0.79502 0.57382 0.67032 0.0
H6838 H 0.78907 0.58625 0.65129 0.0
H6839 H 0.80715 0.57591 0.61339 0.0
H6840 H 0.81766 0.62877 0.57348 0.0
H6841 H 0.81724 0.61117 0.5891 0.0
H6842 H 0.79658 0.62114 0.6251 0.0
C6843 C 0.79744 0.58001 0.65078 0.0
C6844 C 0.8048 0.58574 0.61605 0.0
C6845 C 0.80078 0.57281 0.66165 0.0
C6846 C 0.81007 0.62861 0.58067 0.0
C6847 C 0.80977 0.61847 0.58956 0.0
C6848 C 0.79863 0.61126 0.62236 0.0
C6849 C 0.80517 0.57967 0.63964 0.0
C6850 C 0.803 0.58915 0.62906 0.0
C6851 C 0.80027 0.61808 0.59924 0.0
C6852 C 0.80066 0.60793 0.60938 0.0
H6853 H 0.82758 0.55781 0.64983 0.0
H6854 H 0.8219 0.57062 0.63085 0.0
H6855 H 0.79867 0.60507 0.642 0.0
H6856 H 0.7839 0.6455 0.59134 0.0
H6857 H 0.78333 0.62776 0.60685 0.0
C6858 C 0.67156 0.0486 0.91337 0.0
C6859 C 0.67979 0.05937 0.91331 0.0
C6860 C 0.66438 0.04542 0.90243 0.0
C6861 C 0.65954 0.05246 0.86753 0.0
H6862 H 0.62377 0.04523 0.87595 0.0
C6863 C 0.6176 0.05782 0.83105 0.0
C6864 C 0.60741 0.04888 0.83165 0.0
C6865 C 0.62754 0.0575 0.84017 0.0
C6866 C 0.63376 0.04701 0.8734 0.0
H6867 H 0.68761 0.07479 0.90156 0.0
H6868 H 0.67483 0.06941 0.88244 0.0
H6869 H 0.63952 0.04731 0.89316 0.0
H6870 H 0.59983 0.03235 0.84198 0.0
H6871 H 0.61724 0.03173 0.85788 0.0
H6872 H 0.65357 0.05249 0.8477 0.0
C6873 C 0.67405 0.0633 0.89089 0.0
C6874 C 0.64282 0.04819 0.88328 0.0
C6875 C 0.68136 0.06641 0.90184 0.0
C6876 C 0.60752 0.0394 0.84133 0.0
C6877 C 0.61746 0.03908 0.85046 0.0
C6878 C 0.65043 0.0513 0.8576 0.0
C6879 C 0.66513 0.05304 0.89123 0.0
C6880 C 0.65581 0.051 0.8805 0.0
C6881 C 0.62749 0.04824 0.85009 0.0
C6882 C 0.63741 0.04865 0.86045 0.0
H6883 H 0.67028 0.04291 0.92205 0.0
H6884 H 0.65787 0.03725 0.90292 0.0
H6885 H 0.66948 0.05451 0.86505 0.0
H6886 H 0.61778 0.06524 0.82369 0.0
H6887 H 0.63502 0.06478 0.8397 0.0
C6888 C 0.69659 0.4253 0.15989 0.0
C6889 C 0.68655 0.4344 0.16032 0.0
C6890 C 0.69926 0.4186 0.14851 0.0
C6891 C 0.68193 0.40674 0.12047 0.0
H6892 H 0.71569 0.39494 0.1094 0.0
C6893 C 0.68729 0.37003 0.07923 0.0
C6894 C 0.69633 0.36009 0.08104 0.0
C6895 C 0.68711 0.3807 0.08745 0.0
C6896 C 0.70619 0.39809 0.11243 0.0
H6897 H 0.67203 0.44432 0.14899 0.0
H6898 H 0.6767 0.43257 0.12903 0.0
H6899 H 0.714 0.4116 0.12603 0.0
H6900 H 0.71242 0.35361 0.09272 0.0
H6901 H 0.71189 0.3721 0.10736 0.0
H6902 H 0.67406 0.39294 0.10734 0.0
C6903 C 0.68242 0.43055 0.13755 0.0
C6904 C 0.70523 0.40767 0.12189 0.0
C6905 C 0.67981 0.43733 0.14893 0.0
C6906 C 0.70534 0.36113 0.09111 0.0
C6907 C 0.7051 0.37178 0.09942 0.0
C6908 C 0.68288 0.39713 0.11108 0.0
C6909 C 0.69189 0.42081 0.13735 0.0
C6910 C 0.69308 0.41196 0.12615 0.0
C6911 C 0.69589 0.38164 0.09775 0.0
C6912 C 0.69501 0.39254 0.10707 0.0
H6913 H 0.70198 0.42288 0.16852 0.0
H6914 H 0.70655 0.41111 0.14871 0.0
H6915 H 0.67242 0.40964 0.12371 0.0
H6916 H 0.68031 0.36957 0.07146 0.0
H6917 H 0.68005 0.38821 0.08572 0.0
C6918 C 0.11982 0.4562 0.17159 0.0
C6919 C 0.10844 0.44924 0.16909 0.0
C6920 C 0.13023 0.4556 0.16298 0.0
C6921 C 0.1445 0.43425 0.1388 0.0
H6922 H 0.16132 0.46477 0.12511 0.0
C6923 C 0.18537 0.43004 0.10155 0.0
C6924 C 0.18262 0.43694 0.09021 0.0
C6925 C 0.17858 0.43271 0.11293 0.0
C6926 C 0.15679 0.45617 0.12897 0.0
H6927 H 0.0989 0.43644 0.15553 0.0
H6928 H 0.11707 0.43532 0.14062 0.0
H6929 H 0.1443 0.46706 0.1414 0.0
H6930 H 0.17141 0.45262 0.08206 0.0
H6931 H 0.15975 0.45738 0.10191 0.0
H6932 H 0.15667 0.42335 0.12618 0.0
C6933 C 0.11797 0.44119 0.14923 0.0
C6934 C 0.1471 0.45748 0.13829 0.0
C6935 C 0.10754 0.44192 0.15772 0.0
C6936 C 0.17368 0.44712 0.09066 0.0
C6937 C 0.16706 0.4499 0.10205 0.0
C6938 C 0.15427 0.43292 0.12962 0.0
C6939 C 0.12947 0.44787 0.15186 0.0
C6940 C 0.14064 0.44654 0.14303 0.0
C6941 C 0.16911 0.44245 0.11318 0.0
C6942 C 0.16031 0.44388 0.12438 0.0
H6943 H 0.12077 0.46191 0.18029 0.0
H6944 H 0.13899 0.46085 0.16521 0.0
H6945 H 0.13977 0.42565 0.14242 0.0
H6946 H 0.1922 0.42213 0.10144 0.0
H6947 H 0.18041 0.42687 0.12141 0.0
C6948 C 0.7887 0.86347 0.91144 0.0
C6949 C 0.79959 0.86152 0.91927 0.0
C6950 C 0.78836 0.87372 0.90265 0.0
C6951 C 0.80361 0.90502 0.89462 0.0
H6952 H 0.79395 0.8964 0.85952 0.0
C6953 C 0.8187 0.93531 0.85032 0.0
C6954 C 0.81086 0.93499 0.83927 0.0
C6955 C 0.81529 0.9282 0.86129 0.0
C6956 C 0.7964 0.89912 0.86932 0.0
H6957 H 0.81852 0.86893 0.92431 0.0
H6958 H 0.81792 0.88678 0.90899 0.0
H6959 H 0.79174 0.8803 0.87641 0.0
H6960 H 0.79278 0.92804 0.83139 0.0
H6961 H 0.78656 0.91609 0.85066 0.0
H6962 H 0.80845 0.92381 0.88748 0.0
C6963 C 0.80962 0.88046 0.90968 0.0
C6964 C 0.79516 0.88984 0.879 0.0
C6965 C 0.81 0.87017 0.91837 0.0
C6966 C 0.79907 0.92833 0.83974 0.0
C6967 C 0.79557 0.92139 0.85074 0.0
C6968 C 0.80476 0.91437 0.88494 0.0
C6969 C 0.79886 0.88228 0.90163 0.0
C6970 C 0.79897 0.8926 0.8917 0.0
C6971 C 0.8039 0.92078 0.86145 0.0
C6972 C 0.80138 0.91146 0.87211 0.0
H6973 H 0.78052 0.85698 0.91197 0.0
H6974 H 0.7799 0.87494 0.89663 0.0
H6975 H 0.80647 0.90747 0.90438 0.0
H6976 H 0.82788 0.94032 0.85019 0.0
H6977 H 0.82199 0.92791 0.86931 0.0
C6978 C 0.21008 0.63812 0.41045 0.0
C6979 C 0.20069 0.6384 0.42022 0.0
C6980 C 0.21014 0.62818 0.40131 0.0
C6981 C 0.19723 0.59545 0.39428 0.0
H6982 H 0.20061 0.60636 0.35865 0.0
C6983 C 0.18014 0.56487 0.35064 0.0
C6984 C 0.18688 0.56613 0.33895 0.0
C6985 C 0.18372 0.57222 0.36141 0.0
C6986 C 0.1999 0.60305 0.36855 0.0
H6987 H 0.18425 0.62829 0.42834 0.0
H6988 H 0.18427 0.61104 0.41235 0.0
H6989 H 0.20348 0.62201 0.37586 0.0
H6990 H 0.20324 0.57525 0.32962 0.0
H6991 H 0.2097 0.58775 0.34844 0.0
H6992 H 0.19339 0.5765 0.38688 0.0
C6993 C 0.19168 0.6184 0.4118 0.0
C6994 C 0.20153 0.61206 0.37843 0.0
C6995 C 0.19161 0.62834 0.42091 0.0
C6996 C 0.19778 0.57418 0.33847 0.0
C6997 C 0.20142 0.58142 0.34923 0.0
C6998 C 0.19562 0.5864 0.38437 0.0
C6999 C 0.20082 0.61831 0.40177 0.0
C7000 C 0.20008 0.60841 0.3914 0.0
C7001 C 0.19416 0.58089 0.36069 0.0
C7002 C 0.19681 0.59013 0.37137 0.0
H7003 H 0.21724 0.64571 0.40971 0.0
H7004 H 0.2174 0.62829 0.3938 0.0
H7005 H 0.19619 0.5923 0.4042 0.0
H7006 H 0.17167 0.55876 0.35126 0.0
H7007 H 0.17787 0.57161 0.37005 0.0
loop_
_geom_bond_atom_site_label_1
_geom_bond_atom_site_label_2
_geom_bond_distance
_geom_bond_site_symmetry_2
_ccdc_geom_bond_type
In0 O1 2.294 . S
In0 O2 2.326 . S
In0 O6 2.266 . S
In0 O7 2.326 . S
In0 O8 2.266 . S
In0 O9 2.326 . S
In0 O11 2.294 . S
In0 O12 2.326 . S
O1 In0 2.294 . S
O1 C10 1.240 . S
O2 In0 2.326 . S
O2 C10 1.252 . S
C3 O6 1.252 . S
C3 O7 1.260 . S
C4 O11 1.240 . S
C4 O12 1.252 . S
C5 O8 1.252 . S
C5 O9 1.260 . S
O6 In0 2.266 . S
O6 C3 1.252 . S
O7 In0 2.326 . S
O7 C3 1.260 . S
O8 In0 2.266 . S
O8 C5 1.252 . S
O9 In0 2.326 . S
O9 C5 1.260 . S
C10 O1 1.240 . S
C10 O2 1.252 . S
O11 In0 2.294 . S
O11 C4 1.240 . S
O12 In0 2.326 . S
O12 C4 1.252 . S
In13 O14 2.294 . S
In13 O15 2.326 . S
In13 O19 2.266 . S
In13 O20 2.326 . S
In13 O21 2.266 . S
In13 O22 2.326 . S
In13 O24 2.294 . S
In13 O25 2.326 . S
O14 In13 2.294 . S
O14 C23 1.240 . S
O15 In13 2.326 . S
O15 C23 1.252 . S
C16 O19 1.252 . S
C16 O20 1.260 . S
C17 O24 1.240 . S
C17 O25 1.252 . S
C18 O21 1.252 . S
C18 O22 1.260 . S
O19 In13 2.266 . S
O19 C16 1.252 . S
O20 In13 2.326 . S
O20 C16 1.260 . S
O21 In13 2.266 . S
O21 C18 1.252 . S
O22 In13 2.326 . S
O22 C18 1.260 . S
C23 O14 1.240 . S
C23 O15 1.252 . S
O24 In13 2.294 . S
O24 C17 1.240 . S
O25 In13 2.326 . S
O25 C17 1.252 . S
In26 O27 2.294 . S
In26 O28 2.326 . S
In26 O32 2.266 . S
In26 O33 2.326 . S
In26 O34 2.266 . S
In26 O35 2.326 . S
In26 O37 2.294 . S
In26 O38 2.326 . S
O27 In26 2.294 . S
O27 C36 1.240 . S
O28 In26 2.326 . S
O28 C36 1.252 . S
C29 O32 1.252 . S
C29 O33 1.260 . S
C30 O37 1.240 . S
C30 O38 1.252 . S
C31 O34 1.252 . S
C31 O35 1.260 . S
O32 In26 2.266 . S
O32 C29 1.252 . S
O33 In26 2.326 . S
O33 C29 1.260 . S
O34 In26 2.266 . S
O34 C31 1.252 . S
O35 In26 2.326 . S
O35 C31 1.260 . S
C36 O27 1.240 . S
C36 O28 1.252 . S
O37 In26 2.294 . S
O37 C30 1.240 . S
O38 In26 2.326 . S
O38 C30 1.252 . S
In39 O40 2.294 . S
In39 O41 2.326 . S
In39 O45 2.266 . S
In39 O46 2.326 . S
In39 O47 2.266 . S
In39 O48 2.326 . S
In39 O50 2.294 . S
In39 O51 2.326 . S
O40 In39 2.294 . S
O40 C49 1.240 . S
O41 In39 2.326 . S
O41 C49 1.252 . S
C42 O45 1.252 . S
C42 O46 1.260 . S
C43 O50 1.240 . S
C43 O51 1.252 . S
C44 O47 1.252 . S
C44 O48 1.260 . S
O45 In39 2.266 . S
O45 C42 1.252 . S
O46 In39 2.326 . S
O46 C42 1.260 . S
O47 In39 2.266 . S
O47 C44 1.252 . S
O48 In39 2.326 . S
O48 C44 1.260 . S
C49 O40 1.240 . S
C49 O41 1.252 . S
O50 In39 2.294 . S
O50 C43 1.240 . S
O51 In39 2.326 . S
O51 C43 1.252 . S
In52 O53 2.294 . S
In52 O54 2.326 . S
In52 O58 2.266 . S
In52 O59 2.326 . S
In52 O60 2.266 . S
In52 O61 2.326 . S
In52 O63 2.294 . S
In52 O64 2.326 . S
O53 In52 2.294 . S
O53 C62 1.240 . S
O54 In52 2.326 . S
O54 C62 1.252 . S
C55 O58 1.252 . S
C55 O59 1.260 . S
C56 O63 1.240 . S
C56 O64 1.252 . S
C57 O60 1.252 . S
C57 O61 1.260 . S
O58 In52 2.266 . S
O58 C55 1.252 . S
O59 In52 2.326 . S
O59 C55 1.260 . S
O60 In52 2.266 . S
O60 C57 1.252 . S
O61 In52 2.326 . S
O61 C57 1.260 . S
C62 O53 1.240 . S
C62 O54 1.252 . S
O63 In52 2.294 . S
O63 C56 1.240 . S
O64 In52 2.326 . S
O64 C56 1.252 . S
In65 O66 2.294 . S
In65 O67 2.326 . S
In65 O71 2.266 . S
In65 O72 2.326 . S
In65 O73 2.266 . S
In65 O74 2.326 . S
In65 O76 2.294 . S
In65 O77 2.326 . S
O66 In65 2.294 . S
O66 C75 1.240 . S
O67 In65 2.326 . S
O67 C75 1.252 . S
C68 O71 1.252 . S
C68 O72 1.260 . S
C69 O76 1.240 . S
C69 O77 1.252 . S
C70 O73 1.252 . S
C70 O74 1.260 . S
O71 In65 2.266 . S
O71 C68 1.252 . S
O72 In65 2.326 . S
O72 C68 1.260 . S
O73 In65 2.266 . S
O73 C70 1.252 . S
O74 In65 2.326 . S
O74 C70 1.260 . S
C75 O66 1.240 . S
C75 O67 1.252 . S
O76 In65 2.294 . S
O76 C69 1.240 . S
O77 In65 2.326 . S
O77 C69 1.252 . S
In78 O79 2.294 . S
In78 O80 2.326 . S
In78 O84 2.266 . S
In78 O85 2.326 . S
In78 O86 2.266 . S
In78 O87 2.326 . S
In78 O89 2.294 . S
In78 O90 2.326 . S
O79 In78 2.294 . S
O79 C88 1.240 . S
O80 In78 2.326 . S
O80 C88 1.252 . S
C81 O84 1.252 . S
C81 O85 1.260 . S
C82 O89 1.240 . S
C82 O90 1.252 . S
C83 O86 1.252 . S
C83 O87 1.260 . S
O84 In78 2.266 . S
O84 C81 1.252 . S
O85 In78 2.326 . S
O85 C81 1.260 . S
O86 In78 2.266 . S
O86 C83 1.252 . S
O87 In78 2.326 . S
O87 C83 1.260 . S
C88 O79 1.240 . S
C88 O80 1.252 . S
O89 In78 2.294 . S
O89 C82 1.240 . S
O90 In78 2.326 . S
O90 C82 1.252 . S
In91 O92 2.294 . S
In91 O93 2.326 . S
In91 O97 2.266 . S
In91 O98 2.326 . S
In91 O99 2.266 . S
In91 O100 2.326 . S
In91 O102 2.294 . S
In91 O103 2.326 . S
O92 In91 2.294 . S
O92 C101 1.240 . S
O93 In91 2.326 . S
O93 C101 1.252 . S
C94 O97 1.252 . S
C94 O98 1.260 . S
C95 O102 1.240 . S
C95 O103 1.252 . S
C96 O99 1.252 . S
C96 O100 1.260 . S
O97 In91 2.266 . S
O97 C94 1.252 . S
O98 In91 2.326 . S
O98 C94 1.260 . S
O99 In91 2.266 . S
O99 C96 1.252 . S
O100 In91 2.326 . S
O100 C96 1.260 . S
C101 O92 1.240 . S
C101 O93 1.252 . S
O102 In91 2.294 . S
O102 C95 1.240 . S
O103 In91 2.326 . S
O103 C95 1.252 . S
In104 O105 2.294 . S
In104 O106 2.326 . S
In104 O110 2.266 . S
In104 O111 2.326 . S
In104 O112 2.266 . S
In104 O113 2.326 . S
In104 O115 2.294 . S
In104 O116 2.326 . S
O105 In104 2.294 . S
O105 C114 1.240 . S
O106 In104 2.326 . S
O106 C114 1.252 . S
C107 O110 1.252 . S
C107 O111 1.260 . S
C108 O115 1.240 . S
C108 O116 1.252 . S
C109 O112 1.252 . S
C109 O113 1.260 . S
O110 In104 2.266 . S
O110 C107 1.252 . S
O111 In104 2.326 . S
O111 C107 1.260 . S
O112 In104 2.266 . S
O112 C109 1.252 . S
O113 In104 2.326 . S
O113 C109 1.260 . S
C114 O105 1.240 . S
C114 O106 1.252 . S
O115 In104 2.294 . S
O115 C108 1.240 . S
O116 In104 2.326 . S
O116 C108 1.252 . S
In117 O118 2.294 . S
In117 O119 2.326 . S
In117 O123 2.266 . S
In117 O124 2.326 . S
In117 O125 2.266 . S
In117 O126 2.326 . S
In117 O128 2.294 . S
In117 O129 2.326 . S
O118 In117 2.294 . S
O118 C127 1.240 . S
O119 In117 2.326 . S
O119 C127 1.252 . S
C120 O123 1.252 . S
C120 O124 1.260 . S
C121 O128 1.240 . S
C121 O129 1.252 . S
C122 O125 1.252 . S
C122 O126 1.260 . S
O123 In117 2.266 . S
O123 C120 1.252 . S
O124 In117 2.326 . S
O124 C120 1.260 . S
O125 In117 2.266 . S
O125 C122 1.252 . S
O126 In117 2.326 . S
O126 C122 1.260 . S
C127 O118 1.240 . S
C127 O119 1.252 . S
O128 In117 2.294 . S
O128 C121 1.240 . S
O129 In117 2.326 . S
O129 C121 1.252 . S
In130 O131 2.294 . S
In130 O132 2.326 . S
In130 O136 2.266 . S
In130 O137 2.326 . S
In130 O138 2.266 . S
In130 O139 2.326 . S
In130 O141 2.294 . S
In130 O142 2.326 . S
O131 In130 2.294 . S
O131 C140 1.240 . S
O132 In130 2.326 . S
O132 C140 1.252 . S
C133 O136 1.252 . S
C133 O137 1.260 . S
C134 O141 1.240 . S
C134 O142 1.252 . S
C135 O138 1.252 . S
C135 O139 1.260 . S
O136 In130 2.266 . S
O136 C133 1.252 . S
O137 In130 2.326 . S
O137 C133 1.260 . S
O138 In130 2.266 . S
O138 C135 1.252 . S
O139 In130 2.326 . S
O139 C135 1.260 . S
C140 O131 1.240 . S
C140 O132 1.252 . S
O141 In130 2.294 . S
O141 C134 1.240 . S
O142 In130 2.326 . S
O142 C134 1.252 . S
In143 O144 2.294 . S
In143 O145 2.326 . S
In143 O149 2.266 . S
In143 O150 2.326 . S
In143 O151 2.266 . S
In143 O152 2.326 . S
In143 O154 2.294 . S
In143 O155 2.326 . S
O144 In143 2.294 . S
O144 C153 1.240 . S
O145 In143 2.326 . S
O145 C153 1.252 . S
C146 O149 1.252 . S
C146 O150 1.260 . S
C147 O154 1.240 . S
C147 O155 1.252 . S
C148 O151 1.252 . S
C148 O152 1.260 . S
O149 In143 2.266 . S
O149 C146 1.252 . S
O150 In143 2.326 . S
O150 C146 1.260 . S
O151 In143 2.266 . S
O151 C148 1.252 . S
O152 In143 2.326 . S
O152 C148 1.260 . S
C153 O144 1.240 . S
C153 O145 1.252 . S
O154 In143 2.294 . S
O154 C147 1.240 . S
O155 In143 2.326 . S
O155 C147 1.252 . S
In156 O157 2.294 . S
In156 O158 2.326 . S
In156 O162 2.266 . S
In156 O163 2.326 . S
In156 O164 2.266 . S
In156 O165 2.326 . S
In156 O167 2.294 . S
In156 O168 2.326 . S
O157 In156 2.294 . S
O157 C166 1.240 . S
O158 In156 2.326 . S
O158 C166 1.252 . S
C159 O162 1.252 . S
C159 O163 1.260 . S
C160 O167 1.240 . S
C160 O168 1.252 . S
C161 O164 1.252 . S
C161 O165 1.260 . S
O162 In156 2.266 . S
O162 C159 1.252 . S
O163 In156 2.326 . S
O163 C159 1.260 . S
O164 In156 2.266 . S
O164 C161 1.252 . S
O165 In156 2.326 . S
O165 C161 1.260 . S
C166 O157 1.240 . S
C166 O158 1.252 . S
O167 In156 2.294 . S
O167 C160 1.240 . S
O168 In156 2.326 . S
O168 C160 1.252 . S
In169 O170 2.294 . S
In169 O171 2.326 . S
In169 O175 2.266 . S
In169 O176 2.326 . S
In169 O177 2.266 . S
In169 O178 2.326 . S
In169 O180 2.294 . S
In169 O181 2.326 . S
O170 In169 2.294 . S
O170 C179 1.240 . S
O171 In169 2.326 . S
O171 C179 1.252 . S
C172 O175 1.252 . S
C172 O176 1.260 . S
C173 O180 1.240 . S
C173 O181 1.252 . S
C174 O177 1.252 . S
C174 O178 1.260 . S
O175 In169 2.266 . S
O175 C172 1.252 . S
O176 In169 2.326 . S
O176 C172 1.260 . S
O177 In169 2.266 . S
O177 C174 1.252 . S
O178 In169 2.326 . S
O178 C174 1.260 . S
C179 O170 1.240 . S
C179 O171 1.252 . S
O180 In169 2.294 . S
O180 C173 1.240 . S
O181 In169 2.326 . S
O181 C173 1.252 . S
In182 O183 2.294 . S
In182 O184 2.326 . S
In182 O188 2.266 . S
In182 O189 2.326 . S
In182 O190 2.266 . S
In182 O191 2.326 . S
In182 O193 2.294 . S
In182 O194 2.326 . S
O183 In182 2.294 . S
O183 C192 1.240 . S
O184 In182 2.326 . S
O184 C192 1.252 . S
C185 O188 1.252 . S
C185 O189 1.260 . S
C186 O193 1.240 . S
C186 O194 1.252 . S
C187 O190 1.252 . S
C187 O191 1.260 . S
O188 In182 2.266 . S
O188 C185 1.252 . S
O189 In182 2.326 . S
O189 C185 1.260 . S
O190 In182 2.266 . S
O190 C187 1.252 . S
O191 In182 2.326 . S
O191 C187 1.260 . S
C192 O183 1.240 . S
C192 O184 1.252 . S
O193 In182 2.294 . S
O193 C186 1.240 . S
O194 In182 2.326 . S
O194 C186 1.252 . S
In195 O196 2.294 . S
In195 O197 2.326 . S
In195 O201 2.266 . S
In195 O202 2.326 . S
In195 O203 2.266 . S
In195 O204 2.326 . S
In195 O206 2.294 . S
In195 O207 2.326 . S
O196 In195 2.294 . S
O196 C205 1.240 . S
O197 In195 2.326 . S
O197 C205 1.252 . S
C198 O201 1.252 . S
C198 O202 1.260 . S
C199 O206 1.240 . S
C199 O207 1.252 . S
C200 O203 1.252 . S
C200 O204 1.260 . S
O201 In195 2.266 . S
O201 C198 1.252 . S
O202 In195 2.326 . S
O202 C198 1.260 . S
O203 In195 2.266 . S
O203 C200 1.252 . S
O204 In195 2.326 . S
O204 C200 1.260 . S
C205 O196 1.240 . S
C205 O197 1.252 . S
O206 In195 2.294 . S
O206 C199 1.240 . S
O207 In195 2.326 . S
O207 C199 1.252 . S
In208 O209 2.294 . S
In208 O210 2.326 . S
In208 O214 2.266 . S
In208 O215 2.326 . S
In208 O216 2.266 . S
In208 O217 2.326 . S
In208 O219 2.294 . S
In208 O220 2.326 . S
O209 In208 2.294 . S
O209 C218 1.240 . S
O210 In208 2.326 . S
O210 C218 1.252 . S
C211 O214 1.252 . S
C211 O215 1.260 . S
C212 O219 1.240 . S
C212 O220 1.252 . S
C213 O216 1.252 . S
C213 O217 1.260 . S
O214 In208 2.266 . S
O214 C211 1.252 . S
O215 In208 2.326 . S
O215 C211 1.260 . S
O216 In208 2.266 . S
O216 C213 1.252 . S
O217 In208 2.326 . S
O217 C213 1.260 . S
C218 O209 1.240 . S
C218 O210 1.252 . S
O219 In208 2.294 . S
O219 C212 1.240 . S
O220 In208 2.326 . S
O220 C212 1.252 . S
In221 O222 2.294 . S
In221 O223 2.326 . S
In221 O227 2.266 . S
In221 O228 2.326 . S
In221 O229 2.266 . S
In221 O230 2.326 . S
In221 O232 2.294 . S
In221 O233 2.326 . S
O222 In221 2.294 . S
O222 C231 1.240 . S
O223 In221 2.326 . S
O223 C231 1.252 . S
C224 O227 1.252 . S
C224 O228 1.260 . S
C225 O232 1.240 . S
C225 O233 1.252 . S
C226 O229 1.252 . S
C226 O230 1.260 . S
O227 In221 2.266 . S
O227 C224 1.252 . S
O228 In221 2.326 . S
O228 C224 1.260 . S
O229 In221 2.266 . S
O229 C226 1.252 . S
O230 In221 2.326 . S
O230 C226 1.260 . S
C231 O222 1.240 . S
C231 O223 1.252 . S
O232 In221 2.294 . S
O232 C225 1.240 . S
O233 In221 2.326 . S
O233 C225 1.252 . S
In234 O235 2.294 . S
In234 O236 2.326 . S
In234 O240 2.266 . S
In234 O241 2.326 . S
In234 O242 2.266 . S
In234 O243 2.326 . S
In234 O245 2.294 . S
In234 O246 2.326 . S
O235 In234 2.294 . S
O235 C244 1.240 . S
O236 In234 2.326 . S
O236 C244 1.252 . S
C237 O240 1.252 . S
C237 O241 1.260 . S
C238 O245 1.240 . S
C238 O246 1.252 . S
C239 O242 1.252 . S
C239 O243 1.260 . S
O240 In234 2.266 . S
O240 C237 1.252 . S
O241 In234 2.326 . S
O241 C237 1.260 . S
O242 In234 2.266 . S
O242 C239 1.252 . S
O243 In234 2.326 . S
O243 C239 1.260 . S
C244 O235 1.240 . S
C244 O236 1.252 . S
O245 In234 2.294 . S
O245 C238 1.240 . S
O246 In234 2.326 . S
O246 C238 1.252 . S
In247 O248 2.294 . S
In247 O249 2.326 . S
In247 O253 2.266 . S
In247 O254 2.326 . S
In247 O255 2.266 . S
In247 O256 2.326 . S
In247 O258 2.294 . S
In247 O259 2.326 . S
O248 In247 2.294 . S
O248 C257 1.240 . S
O249 In247 2.326 . S
O249 C257 1.252 . S
C250 O253 1.252 . S
C250 O254 1.260 . S
C251 O258 1.240 . S
C251 O259 1.252 . S
C252 O255 1.252 . S
C252 O256 1.260 . S
O253 In247 2.266 . S
O253 C250 1.252 . S
O254 In247 2.326 . S
O254 C250 1.260 . S
O255 In247 2.266 . S
O255 C252 1.252 . S
O256 In247 2.326 . S
O256 C252 1.260 . S
C257 O248 1.240 . S
C257 O249 1.252 . S
O258 In247 2.294 . S
O258 C251 1.240 . S
O259 In247 2.326 . S
O259 C251 1.252 . S
In260 O261 2.294 . S
In260 O262 2.326 . S
In260 O266 2.266 . S
In260 O267 2.326 . S
In260 O268 2.266 . S
In260 O269 2.326 . S
In260 O271 2.294 . S
In260 O272 2.326 . S
O261 In260 2.294 . S
O261 C270 1.240 . S
O262 In260 2.326 . S
O262 C270 1.252 . S
C263 O266 1.252 . S
C263 O267 1.260 . S
C264 O271 1.240 . S
C264 O272 1.252 . S
C265 O268 1.252 . S
C265 O269 1.260 . S
O266 In260 2.266 . S
O266 C263 1.252 . S
O267 In260 2.326 . S
O267 C263 1.260 . S
O268 In260 2.266 . S
O268 C265 1.252 . S
O269 In260 2.326 . S
O269 C265 1.260 . S
C270 O261 1.240 . S
C270 O262 1.252 . S
O271 In260 2.294 . S
O271 C264 1.240 . S
O272 In260 2.326 . S
O272 C264 1.252 . S
In273 O274 2.294 . S
In273 O275 2.326 . S
In273 O279 2.266 . S
In273 O280 2.326 . S
In273 O281 2.266 . S
In273 O282 2.326 . S
In273 O284 2.294 . S
In273 O285 2.326 . S
O274 In273 2.294 . S
O274 C283 1.240 . S
O275 In273 2.326 . S
O275 C283 1.252 . S
C276 O279 1.252 . S
C276 O280 1.260 . S
C277 O284 1.240 . S
C277 O285 1.252 . S
C278 O281 1.252 . S
C278 O282 1.260 . S
O279 In273 2.266 . S
O279 C276 1.252 . S
O280 In273 2.326 . S
O280 C276 1.260 . S
O281 In273 2.266 . S
O281 C278 1.252 . S
O282 In273 2.326 . S
O282 C278 1.260 . S
C283 O274 1.240 . S
C283 O275 1.252 . S
O284 In273 2.294 . S
O284 C277 1.240 . S
O285 In273 2.326 . S
O285 C277 1.252 . S
In286 O287 2.294 . S
In286 O288 2.326 . S
In286 O292 2.266 . S
In286 O293 2.326 . S
In286 O294 2.266 . S
In286 O295 2.326 . S
In286 O297 2.294 . S
In286 O298 2.326 . S
O287 In286 2.294 . S
O287 C296 1.240 . S
O288 In286 2.326 . S
O288 C296 1.252 . S
C289 O292 1.252 . S
C289 O293 1.260 . S
C290 O297 1.240 . S
C290 O298 1.252 . S
C291 O294 1.252 . S
C291 O295 1.260 . S
O292 In286 2.266 . S
O292 C289 1.252 . S
O293 In286 2.326 . S
O293 C289 1.260 . S
O294 In286 2.266 . S
O294 C291 1.252 . S
O295 In286 2.326 . S
O295 C291 1.260 . S
C296 O287 1.240 . S
C296 O288 1.252 . S
O297 In286 2.294 . S
O297 C290 1.240 . S
O298 In286 2.326 . S
O298 C290 1.252 . S
In299 O300 2.294 . S
In299 O301 2.326 . S
In299 O305 2.266 . S
In299 O306 2.326 . S
In299 O307 2.266 . S
In299 O308 2.326 . S
In299 O310 2.294 . S
In299 O311 2.326 . S
O300 In299 2.294 . S
O300 C309 1.240 . S
O301 In299 2.326 . S
O301 C309 1.252 . S
C302 O305 1.252 . S
C302 O306 1.260 . S
C303 O310 1.240 . S
C303 O311 1.252 . S
C304 O307 1.252 . S
C304 O308 1.260 . S
O305 In299 2.266 . S
O305 C302 1.252 . S
O306 In299 2.326 . S
O306 C302 1.260 . S
O307 In299 2.266 . S
O307 C304 1.252 . S
O308 In299 2.326 . S
O308 C304 1.260 . S
C309 O300 1.240 . S
C309 O301 1.252 . S
O310 In299 2.294 . S
O310 C303 1.240 . S
O311 In299 2.326 . S
O311 C303 1.252 . S
In312 O313 2.294 . S
In312 O314 2.326 . S
In312 O318 2.266 . S
In312 O319 2.326 . S
In312 O320 2.266 . S
In312 O321 2.326 . S
In312 O323 2.294 . S
In312 O324 2.326 . S
O313 In312 2.294 . S
O313 C322 1.240 . S
O314 In312 2.326 . S
O314 C322 1.252 . S
C315 O318 1.252 . S
C315 O319 1.260 . S
C316 O323 1.240 . S
C316 O324 1.252 . S
C317 O320 1.252 . S
C317 O321 1.260 . S
O318 In312 2.266 . S
O318 C315 1.252 . S
O319 In312 2.326 . S
O319 C315 1.260 . S
O320 In312 2.266 . S
O320 C317 1.252 . S
O321 In312 2.326 . S
O321 C317 1.260 . S
C322 O313 1.240 . S
C322 O314 1.252 . S
O323 In312 2.294 . S
O323 C316 1.240 . S
O324 In312 2.326 . S
O324 C316 1.252 . S
In325 O326 2.294 . S
In325 O327 2.326 . S
In325 O331 2.266 . S
In325 O332 2.326 . S
In325 O333 2.266 . S
In325 O334 2.326 . S
In325 O336 2.294 . S
In325 O337 2.326 . S
O326 In325 2.294 . S
O326 C335 1.240 . S
O327 In325 2.326 . S
O327 C335 1.252 . S
C328 O331 1.252 . S
C328 O332 1.260 . S
C329 O336 1.240 . S
C329 O337 1.252 . S
C330 O333 1.252 . S
C330 O334 1.260 . S
O331 In325 2.266 . S
O331 C328 1.252 . S
O332 In325 2.326 . S
O332 C328 1.260 . S
O333 In325 2.266 . S
O333 C330 1.252 . S
O334 In325 2.326 . S
O334 C330 1.260 . S
C335 O326 1.240 . S
C335 O327 1.252 . S
O336 In325 2.294 . S
O336 C329 1.240 . S
O337 In325 2.326 . S
O337 C329 1.252 . S
In338 O339 2.294 . S
In338 O340 2.326 . S
In338 O344 2.266 . S
In338 O345 2.326 . S
In338 O346 2.266 . S
In338 O347 2.326 . S
In338 O349 2.294 . S
In338 O350 2.326 . S
O339 In338 2.294 . S
O339 C348 1.240 . S
O340 In338 2.326 . S
O340 C348 1.252 . S
C341 O344 1.252 . S
C341 O345 1.260 . S
C342 O349 1.240 . S
C342 O350 1.252 . S
C343 O346 1.252 . S
C343 O347 1.260 . S
O344 In338 2.266 . S
O344 C341 1.252 . S
O345 In338 2.326 . S
O345 C341 1.260 . S
O346 In338 2.266 . S
O346 C343 1.252 . S
O347 In338 2.326 . S
O347 C343 1.260 . S
C348 O339 1.240 . S
C348 O340 1.252 . S
O349 In338 2.294 . S
O349 C342 1.240 . S
O350 In338 2.326 . S
O350 C342 1.252 . S
In351 O352 2.294 . S
In351 O353 2.326 . S
In351 O357 2.266 . S
In351 O358 2.326 . S
In351 O359 2.266 . S
In351 O360 2.326 . S
In351 O362 2.294 . S
In351 O363 2.326 . S
O352 In351 2.294 . S
O352 C361 1.240 . S
O353 In351 2.326 . S
O353 C361 1.252 . S
C354 O357 1.252 . S
C354 O358 1.260 . S
C355 O362 1.240 . S
C355 O363 1.252 . S
C356 O359 1.252 . S
C356 O360 1.260 . S
O357 In351 2.266 . S
O357 C354 1.252 . S
O358 In351 2.326 . S
O358 C354 1.260 . S
O359 In351 2.266 . S
O359 C356 1.252 . S
O360 In351 2.326 . S
O360 C356 1.260 . S
C361 O352 1.240 . S
C361 O353 1.252 . S
O362 In351 2.294 . S
O362 C355 1.240 . S
O363 In351 2.326 . S
O363 C355 1.252 . S
In364 O365 2.294 . S
In364 O366 2.326 . S
In364 O370 2.266 . S
In364 O371 2.326 . S
In364 O372 2.266 . S
In364 O373 2.326 . S
In364 O375 2.294 . S
In364 O376 2.326 . S
O365 In364 2.294 . S
O365 C374 1.240 . S
O366 In364 2.326 . S
O366 C374 1.252 . S
C367 O370 1.252 . S
C367 O371 1.260 . S
C368 O375 1.240 . S
C368 O376 1.252 . S
C369 O372 1.252 . S
C369 O373 1.260 . S
O370 In364 2.266 . S
O370 C367 1.252 . S
O371 In364 2.326 . S
O371 C367 1.260 . S
O372 In364 2.266 . S
O372 C369 1.252 . S
O373 In364 2.326 . S
O373 C369 1.260 . S
C374 O365 1.240 . S
C374 O366 1.252 . S
O375 In364 2.294 . S
O375 C368 1.240 . S
O376 In364 2.326 . S
O376 C368 1.252 . S
In377 O378 2.294 . S
In377 O379 2.326 . S
In377 O383 2.266 . S
In377 O384 2.326 . S
In377 O385 2.266 . S
In377 O386 2.326 . S
In377 O388 2.294 . S
In377 O389 2.326 . S
O378 In377 2.294 . S
O378 C387 1.240 . S
O379 In377 2.326 . S
O379 C387 1.252 . S
C380 O383 1.252 . S
C380 O384 1.260 . S
C381 O388 1.240 . S
C381 O389 1.252 . S
C382 O385 1.252 . S
C382 O386 1.260 . S
O383 In377 2.266 . S
O383 C380 1.252 . S
O384 In377 2.326 . S
O384 C380 1.260 . S
O385 In377 2.266 . S
O385 C382 1.252 . S
O386 In377 2.326 . S
O386 C382 1.260 . S
C387 O378 1.240 . S
C387 O379 1.252 . S
O388 In377 2.294 . S
O388 C381 1.240 . S
O389 In377 2.326 . S
O389 C381 1.252 . S
In390 O391 2.294 . S
In390 O392 2.326 . S
In390 O396 2.266 . S
In390 O397 2.326 . S
In390 O398 2.266 . S
In390 O399 2.326 . S
In390 O401 2.294 . S
In390 O402 2.326 . S
O391 In390 2.294 . S
O391 C400 1.240 . S
O392 In390 2.326 . S
O392 C400 1.252 . S
C393 O396 1.252 . S
C393 O397 1.260 . S
C394 O401 1.240 . S
C394 O402 1.252 . S
C395 O398 1.252 . S
C395 O399 1.260 . S
O396 In390 2.266 . S
O396 C393 1.252 . S
O397 In390 2.326 . S
O397 C393 1.260 . S
O398 In390 2.266 . S
O398 C395 1.252 . S
O399 In390 2.326 . S
O399 C395 1.260 . S
C400 O391 1.240 . S
C400 O392 1.252 . S
O401 In390 2.294 . S
O401 C394 1.240 . S
O402 In390 2.326 . S
O402 C394 1.252 . S
In403 O404 2.294 . S
In403 O405 2.326 . S
In403 O409 2.266 . S
In403 O410 2.326 . S
In403 O411 2.266 . S
In403 O412 2.326 . S
In403 O414 2.294 . S
In403 O415 2.326 . S
O404 In403 2.294 . S
O404 C413 1.240 . S
O405 In403 2.326 . S
O405 C413 1.252 . S
C406 O409 1.252 . S
C406 O410 1.260 . S
C407 O414 1.240 . S
C407 O415 1.252 . S
C408 O411 1.252 . S
C408 O412 1.260 . S
O409 In403 2.266 . S
O409 C406 1.252 . S
O410 In403 2.326 . S
O410 C406 1.260 . S
O411 In403 2.266 . S
O411 C408 1.252 . S
O412 In403 2.326 . S
O412 C408 1.260 . S
C413 O404 1.240 . S
C413 O405 1.252 . S
O414 In403 2.294 . S
O414 C407 1.240 . S
O415 In403 2.326 . S
O415 C407 1.252 . S
In416 O417 2.294 . S
In416 O418 2.326 . S
In416 O422 2.266 . S
In416 O423 2.326 . S
In416 O424 2.266 . S
In416 O425 2.326 . S
In416 O427 2.294 . S
In416 O428 2.326 . S
O417 In416 2.294 . S
O417 C426 1.240 . S
O418 In416 2.326 . S
O418 C426 1.252 . S
C419 O422 1.252 . S
C419 O423 1.260 . S
C420 O427 1.240 . S
C420 O428 1.252 . S
C421 O424 1.252 . S
C421 O425 1.260 . S
O422 In416 2.266 . S
O422 C419 1.252 . S
O423 In416 2.326 . S
O423 C419 1.260 . S
O424 In416 2.266 . S
O424 C421 1.252 . S
O425 In416 2.326 . S
O425 C421 1.260 . S
C426 O417 1.240 . S
C426 O418 1.252 . S
O427 In416 2.294 . S
O427 C420 1.240 . S
O428 In416 2.326 . S
O428 C420 1.252 . S
In429 O430 2.294 . S
In429 O431 2.326 . S
In429 O435 2.266 . S
In429 O436 2.326 . S
In429 O437 2.266 . S
In429 O438 2.326 . S
In429 O440 2.294 . S
In429 O441 2.326 . S
O430 In429 2.294 . S
O430 C439 1.240 . S
O431 In429 2.326 . S
O431 C439 1.252 . S
C432 O435 1.252 . S
C432 O436 1.260 . S
C433 O440 1.240 . S
C433 O441 1.252 . S
C434 O437 1.252 . S
C434 O438 1.260 . S
O435 In429 2.266 . S
O435 C432 1.252 . S
O436 In429 2.326 . S
O436 C432 1.260 . S
O437 In429 2.266 . S
O437 C434 1.252 . S
O438 In429 2.326 . S
O438 C434 1.260 . S
C439 O430 1.240 . S
C439 O431 1.252 . S
O440 In429 2.294 . S
O440 C433 1.240 . S
O441 In429 2.326 . S
O441 C433 1.252 . S
In442 O443 2.294 . S
In442 O444 2.326 . S
In442 O448 2.266 . S
In442 O449 2.326 . S
In442 O450 2.266 . S
In442 O451 2.326 . S
In442 O453 2.294 . S
In442 O454 2.326 . S
O443 In442 2.294 . S
O443 C452 1.240 . S
O444 In442 2.326 . S
O444 C452 1.252 . S
C445 O448 1.252 . S
C445 O449 1.260 . S
C446 O453 1.240 . S
C446 O454 1.252 . S
C447 O450 1.252 . S
C447 O451 1.260 . S
O448 In442 2.266 . S
O448 C445 1.252 . S
O449 In442 2.326 . S
O449 C445 1.260 . S
O450 In442 2.266 . S
O450 C447 1.252 . S
O451 In442 2.326 . S
O451 C447 1.260 . S
C452 O443 1.240 . S
C452 O444 1.252 . S
O453 In442 2.294 . S
O453 C446 1.240 . S
O454 In442 2.326 . S
O454 C446 1.252 . S
In455 O456 2.294 . S
In455 O457 2.326 . S
In455 O461 2.266 . S
In455 O462 2.326 . S
In455 O463 2.266 . S
In455 O464 2.326 . S
In455 O466 2.294 . S
In455 O467 2.326 . S
O456 In455 2.294 . S
O456 C465 1.240 . S
O457 In455 2.326 . S
O457 C465 1.252 . S
C458 O461 1.252 . S
C458 O462 1.260 . S
C459 O466 1.240 . S
C459 O467 1.252 . S
C460 O463 1.252 . S
C460 O464 1.260 . S
O461 In455 2.266 . S
O461 C458 1.252 . S
O462 In455 2.326 . S
O462 C458 1.260 . S
O463 In455 2.266 . S
O463 C460 1.252 . S
O464 In455 2.326 . S
O464 C460 1.260 . S
C465 O456 1.240 . S
C465 O457 1.252 . S
O466 In455 2.294 . S
O466 C459 1.240 . S
O467 In455 2.326 . S
O467 C459 1.252 . S
In468 O469 2.294 . S
In468 O470 2.326 . S
In468 O474 2.266 . S
In468 O475 2.326 . S
In468 O476 2.266 . S
In468 O477 2.326 . S
In468 O479 2.294 . S
In468 O480 2.326 . S
O469 In468 2.294 . S
O469 C478 1.240 . S
O470 In468 2.326 . S
O470 C478 1.252 . S
C471 O474 1.252 . S
C471 O475 1.260 . S
C472 O479 1.240 . S
C472 O480 1.252 . S
C473 O476 1.252 . S
C473 O477 1.260 . S
O474 In468 2.266 . S
O474 C471 1.252 . S
O475 In468 2.326 . S
O475 C471 1.260 . S
O476 In468 2.266 . S
O476 C473 1.252 . S
O477 In468 2.326 . S
O477 C473 1.260 . S
C478 O469 1.240 . S
C478 O470 1.252 . S
O479 In468 2.294 . S
O479 C472 1.240 . S
O480 In468 2.326 . S
O480 C472 1.252 . S
In481 O482 2.294 . S
In481 O483 2.326 . S
In481 O487 2.266 . S
In481 O488 2.326 . S
In481 O489 2.266 . S
In481 O490 2.326 . S
In481 O492 2.294 . S
In481 O493 2.326 . S
O482 In481 2.294 . S
O482 C491 1.240 . S
O483 In481 2.326 . S
O483 C491 1.252 . S
C484 O487 1.252 . S
C484 O488 1.260 . S
C485 O492 1.240 . S
C485 O493 1.252 . S
C486 O489 1.252 . S
C486 O490 1.260 . S
O487 In481 2.266 . S
O487 C484 1.252 . S
O488 In481 2.326 . S
O488 C484 1.260 . S
O489 In481 2.266 . S
O489 C486 1.252 . S
O490 In481 2.326 . S
O490 C486 1.260 . S
C491 O482 1.240 . S
C491 O483 1.252 . S
O492 In481 2.294 . S
O492 C485 1.240 . S
O493 In481 2.326 . S
O493 C485 1.252 . S
In494 O495 2.294 . S
In494 O496 2.326 . S
In494 O500 2.266 . S
In494 O501 2.326 . S
In494 O502 2.266 . S
In494 O503 2.326 . S
In494 O505 2.294 . S
In494 O506 2.326 . S
O495 In494 2.294 . S
O495 C504 1.240 . S
O496 In494 2.326 . S
O496 C504 1.252 . S
C497 O500 1.252 . S
C497 O501 1.260 . S
C498 O505 1.240 . S
C498 O506 1.252 . S
C499 O502 1.252 . S
C499 O503 1.260 . S
O500 In494 2.266 . S
O500 C497 1.252 . S
O501 In494 2.326 . S
O501 C497 1.260 . S
O502 In494 2.266 . S
O502 C499 1.252 . S
O503 In494 2.326 . S
O503 C499 1.260 . S
C504 O495 1.240 . S
C504 O496 1.252 . S
O505 In494 2.294 . S
O505 C498 1.240 . S
O506 In494 2.326 . S
O506 C498 1.252 . S
In507 O508 2.294 . S
In507 O509 2.326 . S
In507 O513 2.266 . S
In507 O514 2.326 . S
In507 O515 2.266 . S
In507 O516 2.326 . S
In507 O518 2.294 . S
In507 O519 2.326 . S
O508 In507 2.294 . S
O508 C517 1.240 . S
O509 In507 2.326 . S
O509 C517 1.252 . S
C510 O513 1.252 . S
C510 O514 1.260 . S
C511 O518 1.240 . S
C511 O519 1.252 . S
C512 O515 1.252 . S
C512 O516 1.260 . S
O513 In507 2.266 . S
O513 C510 1.252 . S
O514 In507 2.326 . S
O514 C510 1.260 . S
O515 In507 2.266 . S
O515 C512 1.252 . S
O516 In507 2.326 . S
O516 C512 1.260 . S
C517 O508 1.240 . S
C517 O509 1.252 . S
O518 In507 2.294 . S
O518 C511 1.240 . S
O519 In507 2.326 . S
O519 C511 1.252 . S
In520 O521 2.294 . S
In520 O522 2.326 . S
In520 O526 2.266 . S
In520 O527 2.326 . S
In520 O528 2.266 . S
In520 O529 2.326 . S
In520 O531 2.294 . S
In520 O532 2.326 . S
O521 In520 2.294 . S
O521 C530 1.240 . S
O522 In520 2.326 . S
O522 C530 1.252 . S
C523 O526 1.252 . S
C523 O527 1.260 . S
C524 O531 1.240 . S
C524 O532 1.252 . S
C525 O528 1.252 . S
C525 O529 1.260 . S
O526 In520 2.266 . S
O526 C523 1.252 . S
O527 In520 2.326 . S
O527 C523 1.260 . S
O528 In520 2.266 . S
O528 C525 1.252 . S
O529 In520 2.326 . S
O529 C525 1.260 . S
C530 O521 1.240 . S
C530 O522 1.252 . S
O531 In520 2.294 . S
O531 C524 1.240 . S
O532 In520 2.326 . S
O532 C524 1.252 . S
In533 O534 2.294 . S
In533 O535 2.326 . S
In533 O539 2.266 . S
In533 O540 2.326 . S
In533 O541 2.266 . S
In533 O542 2.326 . S
In533 O544 2.294 . S
In533 O545 2.326 . S
O534 In533 2.294 . S
O534 C543 1.240 . S
O535 In533 2.326 . S
O535 C543 1.252 . S
C536 O539 1.252 . S
C536 O540 1.260 . S
C537 O544 1.240 . S
C537 O545 1.252 . S
C538 O541 1.252 . S
C538 O542 1.260 . S
O539 In533 2.266 . S
O539 C536 1.252 . S
O540 In533 2.326 . S
O540 C536 1.260 . S
O541 In533 2.266 . S
O541 C538 1.252 . S
O542 In533 2.326 . S
O542 C538 1.260 . S
C543 O534 1.240 . S
C543 O535 1.252 . S
O544 In533 2.294 . S
O544 C537 1.240 . S
O545 In533 2.326 . S
O545 C537 1.252 . S
In546 O547 2.294 . S
In546 O548 2.326 . S
In546 O552 2.266 . S
In546 O553 2.326 . S
In546 O554 2.266 . S
In546 O555 2.326 . S
In546 O557 2.294 . S
In546 O558 2.326 . S
O547 In546 2.294 . S
O547 C556 1.240 . S
O548 In546 2.326 . S
O548 C556 1.252 . S
C549 O552 1.252 . S
C549 O553 1.260 . S
C550 O557 1.240 . S
C550 O558 1.252 . S
C551 O554 1.252 . S
C551 O555 1.260 . S
O552 In546 2.266 . S
O552 C549 1.252 . S
O553 In546 2.326 . S
O553 C549 1.260 . S
O554 In546 2.266 . S
O554 C551 1.252 . S
O555 In546 2.326 . S
O555 C551 1.260 . S
C556 O547 1.240 . S
C556 O548 1.252 . S
O557 In546 2.294 . S
O557 C550 1.240 . S
O558 In546 2.326 . S
O558 C550 1.252 . S
In559 O560 2.294 . S
In559 O561 2.326 . S
In559 O565 2.266 . S
In559 O566 2.326 . S
In559 O567 2.266 . S
In559 O568 2.326 . S
In559 O570 2.294 . S
In559 O571 2.326 . S
O560 In559 2.294 . S
O560 C569 1.240 . S
O561 In559 2.326 . S
O561 C569 1.252 . S
C562 O565 1.252 . S
C562 O566 1.260 . S
C563 O570 1.240 . S
C563 O571 1.252 . S
C564 O567 1.252 . S
C564 O568 1.260 . S
O565 In559 2.266 . S
O565 C562 1.252 . S
O566 In559 2.326 . S
O566 C562 1.260 . S
O567 In559 2.266 . S
O567 C564 1.252 . S
O568 In559 2.326 . S
O568 C564 1.260 . S
C569 O560 1.240 . S
C569 O561 1.252 . S
O570 In559 2.294 . S
O570 C563 1.240 . S
O571 In559 2.326 . S
O571 C563 1.252 . S
In572 O573 2.294 . S
In572 O574 2.326 . S
In572 O578 2.266 . S
In572 O579 2.326 . S
In572 O580 2.266 . S
In572 O581 2.326 . S
In572 O583 2.294 . S
In572 O584 2.326 . S
O573 In572 2.294 . S
O573 C582 1.240 . S
O574 In572 2.326 . S
O574 C582 1.252 . S
C575 O578 1.252 . S
C575 O579 1.260 . S
C576 O583 1.240 . S
C576 O584 1.252 . S
C577 O580 1.252 . S
C577 O581 1.260 . S
O578 In572 2.266 . S
O578 C575 1.252 . S
O579 In572 2.326 . S
O579 C575 1.260 . S
O580 In572 2.266 . S
O580 C577 1.252 . S
O581 In572 2.326 . S
O581 C577 1.260 . S
C582 O573 1.240 . S
C582 O574 1.252 . S
O583 In572 2.294 . S
O583 C576 1.240 . S
O584 In572 2.326 . S
O584 C576 1.252 . S
In585 O586 2.294 . S
In585 O587 2.326 . S
In585 O591 2.266 . S
In585 O592 2.326 . S
In585 O593 2.266 . S
In585 O594 2.326 . S
In585 O596 2.294 . S
In585 O597 2.326 . S
O586 In585 2.294 . S
O586 C595 1.240 . S
O587 In585 2.326 . S
O587 C595 1.252 . S
C588 O591 1.252 . S
C588 O592 1.260 . S
C589 O596 1.240 . S
C589 O597 1.252 . S
C590 O593 1.252 . S
C590 O594 1.260 . S
O591 In585 2.266 . S
O591 C588 1.252 . S
O592 In585 2.326 . S
O592 C588 1.260 . S
O593 In585 2.266 . S
O593 C590 1.252 . S
O594 In585 2.326 . S
O594 C590 1.260 . S
C595 O586 1.240 . S
C595 O587 1.252 . S
O596 In585 2.294 . S
O596 C589 1.240 . S
O597 In585 2.326 . S
O597 C589 1.252 . S
In598 O599 2.294 . S
In598 O600 2.326 . S
In598 O604 2.266 . S
In598 O605 2.326 . S
In598 O606 2.266 . S
In598 O607 2.326 . S
In598 O609 2.294 . S
In598 O610 2.326 . S
O599 In598 2.294 . S
O599 C608 1.240 . S
O600 In598 2.326 . S
O600 C608 1.252 . S
C601 O604 1.252 . S
C601 O605 1.260 . S
C602 O609 1.240 . S
C602 O610 1.252 . S
C603 O606 1.252 . S
C603 O607 1.260 . S
O604 In598 2.266 . S
O604 C601 1.252 . S
O605 In598 2.326 . S
O605 C601 1.260 . S
O606 In598 2.266 . S
O606 C603 1.252 . S
O607 In598 2.326 . S
O607 C603 1.260 . S
C608 O599 1.240 . S
C608 O600 1.252 . S
O609 In598 2.294 . S
O609 C602 1.240 . S
O610 In598 2.326 . S
O610 C602 1.252 . S
In611 O612 2.294 . S
In611 O613 2.326 . S
In611 O617 2.266 . S
In611 O618 2.326 . S
In611 O619 2.266 . S
In611 O620 2.326 . S
In611 O622 2.294 . S
In611 O623 2.326 . S
O612 In611 2.294 . S
O612 C621 1.240 . S
O613 In611 2.326 . S
O613 C621 1.252 . S
C614 O617 1.252 . S
C614 O618 1.260 . S
C615 O622 1.240 . S
C615 O623 1.252 . S
C616 O619 1.252 . S
C616 O620 1.260 . S
O617 In611 2.266 . S
O617 C614 1.252 . S
O618 In611 2.326 . S
O618 C614 1.260 . S
O619 In611 2.266 . S
O619 C616 1.252 . S
O620 In611 2.326 . S
O620 C616 1.260 . S
C621 O612 1.240 . S
C621 O613 1.252 . S
O622 In611 2.294 . S
O622 C615 1.240 . S
O623 In611 2.326 . S
O623 C615 1.252 . S
In624 O625 2.294 . S
In624 O626 2.326 . S
In624 O630 2.266 . S
In624 O631 2.326 . S
In624 O632 2.266 . S
In624 O633 2.326 . S
In624 O635 2.294 . S
In624 O636 2.326 . S
O625 In624 2.294 . S
O625 C634 1.240 . S
O626 In624 2.326 . S
O626 C634 1.252 . S
C627 O630 1.252 . S
C627 O631 1.260 . S
C628 O635 1.240 . S
C628 O636 1.252 . S
C629 O632 1.252 . S
C629 O633 1.260 . S
O630 In624 2.266 . S
O630 C627 1.252 . S
O631 In624 2.326 . S
O631 C627 1.260 . S
O632 In624 2.266 . S
O632 C629 1.252 . S
O633 In624 2.326 . S
O633 C629 1.260 . S
C634 O625 1.240 . S
C634 O626 1.252 . S
O635 In624 2.294 . S
O635 C628 1.240 . S
O636 In624 2.326 . S
O636 C628 1.252 . S
In637 O638 2.294 . S
In637 O639 2.326 . S
In637 O643 2.266 . S
In637 O644 2.326 . S
In637 O645 2.266 . S
In637 O646 2.326 . S
In637 O648 2.294 . S
In637 O649 2.326 . S
O638 In637 2.294 . S
O638 C647 1.240 . S
O639 In637 2.326 . S
O639 C647 1.252 . S
C640 O643 1.252 . S
C640 O644 1.260 . S
C641 O648 1.240 . S
C641 O649 1.252 . S
C642 O645 1.252 . S
C642 O646 1.260 . S
O643 In637 2.266 . S
O643 C640 1.252 . S
O644 In637 2.326 . S
O644 C640 1.260 . S
O645 In637 2.266 . S
O645 C642 1.252 . S
O646 In637 2.326 . S
O646 C642 1.260 . S
C647 O638 1.240 . S
C647 O639 1.252 . S
O648 In637 2.294 . S
O648 C641 1.240 . S
O649 In637 2.326 . S
O649 C641 1.252 . S
In650 O651 2.294 . S
In650 O652 2.326 . S
In650 O656 2.266 . S
In650 O657 2.326 . S
In650 O658 2.266 . S
In650 O659 2.326 . S
In650 O661 2.294 . S
In650 O662 2.326 . S
O651 In650 2.294 . S
O651 C660 1.240 . S
O652 In650 2.326 . S
O652 C660 1.252 . S
C653 O656 1.252 . S
C653 O657 1.260 . S
C654 O661 1.240 . S
C654 O662 1.252 . S
C655 O658 1.252 . S
C655 O659 1.260 . S
O656 In650 2.266 . S
O656 C653 1.252 . S
O657 In650 2.326 . S
O657 C653 1.260 . S
O658 In650 2.266 . S
O658 C655 1.252 . S
O659 In650 2.326 . S
O659 C655 1.260 . S
C660 O651 1.240 . S
C660 O652 1.252 . S
O661 In650 2.294 . S
O661 C654 1.240 . S
O662 In650 2.326 . S
O662 C654 1.252 . S
In663 O664 2.294 . S
In663 O665 2.326 . S
In663 O669 2.266 . S
In663 O670 2.326 . S
In663 O671 2.266 . S
In663 O672 2.326 . S
In663 O674 2.294 . S
In663 O675 2.326 . S
O664 In663 2.294 . S
O664 C673 1.240 . S
O665 In663 2.326 . S
O665 C673 1.252 . S
C666 O669 1.252 . S
C666 O670 1.260 . S
C667 O674 1.240 . S
C667 O675 1.252 . S
C668 O671 1.252 . S
C668 O672 1.260 . S
O669 In663 2.266 . S
O669 C666 1.252 . S
O670 In663 2.326 . S
O670 C666 1.260 . S
O671 In663 2.266 . S
O671 C668 1.252 . S
O672 In663 2.326 . S
O672 C668 1.260 . S
C673 O664 1.240 . S
C673 O665 1.252 . S
O674 In663 2.294 . S
O674 C667 1.240 . S
O675 In663 2.326 . S
O675 C667 1.252 . S
In676 O677 2.294 . S
In676 O678 2.326 . S
In676 O682 2.266 . S
In676 O683 2.326 . S
In676 O684 2.266 . S
In676 O685 2.326 . S
In676 O687 2.294 . S
In676 O688 2.326 . S
O677 In676 2.294 . S
O677 C686 1.240 . S
O678 In676 2.326 . S
O678 C686 1.252 . S
C679 O682 1.252 . S
C679 O683 1.260 . S
C680 O687 1.240 . S
C680 O688 1.252 . S
C681 O684 1.252 . S
C681 O685 1.260 . S
O682 In676 2.266 . S
O682 C679 1.252 . S
O683 In676 2.326 . S
O683 C679 1.260 . S
O684 In676 2.266 . S
O684 C681 1.252 . S
O685 In676 2.326 . S
O685 C681 1.260 . S
C686 O677 1.240 . S
C686 O678 1.252 . S
O687 In676 2.294 . S
O687 C680 1.240 . S
O688 In676 2.326 . S
O688 C680 1.252 . S
In689 O690 2.294 . S
In689 O691 2.326 . S
In689 O695 2.266 . S
In689 O696 2.326 . S
In689 O697 2.266 . S
In689 O698 2.326 . S
In689 O700 2.294 . S
In689 O701 2.326 . S
O690 In689 2.294 . S
O690 C699 1.240 . S
O691 In689 2.326 . S
O691 C699 1.252 . S
C692 O695 1.252 . S
C692 O696 1.260 . S
C693 O700 1.240 . S
C693 O701 1.252 . S
C694 O697 1.252 . S
C694 O698 1.260 . S
O695 In689 2.266 . S
O695 C692 1.252 . S
O696 In689 2.326 . S
O696 C692 1.260 . S
O697 In689 2.266 . S
O697 C694 1.252 . S
O698 In689 2.326 . S
O698 C694 1.260 . S
C699 O690 1.240 . S
C699 O691 1.252 . S
O700 In689 2.294 . S
O700 C693 1.240 . S
O701 In689 2.326 . S
O701 C693 1.252 . S
In702 O703 2.294 . S
In702 O704 2.326 . S
In702 O708 2.266 . S
In702 O709 2.326 . S
In702 O710 2.266 . S
In702 O711 2.326 . S
In702 O713 2.294 . S
In702 O714 2.326 . S
O703 In702 2.294 . S
O703 C712 1.240 . S
O704 In702 2.326 . S
O704 C712 1.252 . S
C705 O708 1.252 . S
C705 O709 1.260 . S
C706 O713 1.240 . S
C706 O714 1.252 . S
C707 O710 1.252 . S
C707 O711 1.260 . S
O708 In702 2.266 . S
O708 C705 1.252 . S
O709 In702 2.326 . S
O709 C705 1.260 . S
O710 In702 2.266 . S
O710 C707 1.252 . S
O711 In702 2.326 . S
O711 C707 1.260 . S
C712 O703 1.240 . S
C712 O704 1.252 . S
O713 In702 2.294 . S
O713 C706 1.240 . S
O714 In702 2.326 . S
O714 C706 1.252 . S
In715 O716 2.294 . S
In715 O717 2.326 . S
In715 O721 2.266 . S
In715 O722 2.326 . S
In715 O723 2.266 . S
In715 O724 2.326 . S
In715 O726 2.294 . S
In715 O727 2.326 . S
O716 In715 2.294 . S
O716 C725 1.240 . S
O717 In715 2.326 . S
O717 C725 1.252 . S
C718 O721 1.252 . S
C718 O722 1.260 . S
C719 O726 1.240 . S
C719 O727 1.252 . S
C720 O723 1.252 . S
C720 O724 1.260 . S
O721 In715 2.266 . S
O721 C718 1.252 . S
O722 In715 2.326 . S
O722 C718 1.260 . S
O723 In715 2.266 . S
O723 C720 1.252 . S
O724 In715 2.326 . S
O724 C720 1.260 . S
C725 O716 1.240 . S
C725 O717 1.252 . S
O726 In715 2.294 . S
O726 C719 1.240 . S
O727 In715 2.326 . S
O727 C719 1.252 . S
In728 O729 2.294 . S
In728 O730 2.326 . S
In728 O734 2.266 . S
In728 O735 2.326 . S
In728 O736 2.266 . S
In728 O737 2.326 . S
In728 O739 2.294 . S
In728 O740 2.326 . S
O729 In728 2.294 . S
O729 C738 1.240 . S
O730 In728 2.326 . S
O730 C738 1.252 . S
C731 O734 1.252 . S
C731 O735 1.260 . S
C732 O739 1.240 . S
C732 O740 1.252 . S
C733 O736 1.252 . S
C733 O737 1.260 . S
O734 In728 2.266 . S
O734 C731 1.252 . S
O735 In728 2.326 . S
O735 C731 1.260 . S
O736 In728 2.266 . S
O736 C733 1.252 . S
O737 In728 2.326 . S
O737 C733 1.260 . S
C738 O729 1.240 . S
C738 O730 1.252 . S
O739 In728 2.294 . S
O739 C732 1.240 . S
O740 In728 2.326 . S
O740 C732 1.252 . S
In741 O742 2.294 . S
In741 O743 2.326 . S
In741 O747 2.266 . S
In741 O748 2.326 . S
In741 O749 2.266 . S
In741 O750 2.326 . S
In741 O752 2.294 . S
In741 O753 2.326 . S
O742 In741 2.294 . S
O742 C751 1.240 . S
O743 In741 2.326 . S
O743 C751 1.252 . S
C744 O747 1.252 . S
C744 O748 1.260 . S
C745 O752 1.240 . S
C745 O753 1.252 . S
C746 O749 1.252 . S
C746 O750 1.260 . S
O747 In741 2.266 . S
O747 C744 1.252 . S
O748 In741 2.326 . S
O748 C744 1.260 . S
O749 In741 2.266 . S
O749 C746 1.252 . S
O750 In741 2.326 . S
O750 C746 1.260 . S
C751 O742 1.240 . S
C751 O743 1.252 . S
O752 In741 2.294 . S
O752 C745 1.240 . S
O753 In741 2.326 . S
O753 C745 1.252 . S
In754 O755 2.294 . S
In754 O756 2.326 . S
In754 O760 2.266 . S
In754 O761 2.326 . S
In754 O762 2.266 . S
In754 O763 2.326 . S
In754 O765 2.294 . S
In754 O766 2.326 . S
O755 In754 2.294 . S
O755 C764 1.240 . S
O756 In754 2.326 . S
O756 C764 1.252 . S
C757 O760 1.252 . S
C757 O761 1.260 . S
C758 O765 1.240 . S
C758 O766 1.252 . S
C759 O762 1.252 . S
C759 O763 1.260 . S
O760 In754 2.266 . S
O760 C757 1.252 . S
O761 In754 2.326 . S
O761 C757 1.260 . S
O762 In754 2.266 . S
O762 C759 1.252 . S
O763 In754 2.326 . S
O763 C759 1.260 . S
C764 O755 1.240 . S
C764 O756 1.252 . S
O765 In754 2.294 . S
O765 C758 1.240 . S
O766 In754 2.326 . S
O766 C758 1.252 . S
In767 O768 2.294 . S
In767 O769 2.326 . S
In767 O773 2.266 . S
In767 O774 2.326 . S
In767 O775 2.266 . S
In767 O776 2.326 . S
In767 O778 2.294 . S
In767 O779 2.326 . S
O768 In767 2.294 . S
O768 C777 1.240 . S
O769 In767 2.326 . S
O769 C777 1.252 . S
C770 O773 1.252 . S
C770 O774 1.260 . S
C771 O778 1.240 . S
C771 O779 1.252 . S
C772 O775 1.252 . S
C772 O776 1.260 . S
O773 In767 2.266 . S
O773 C770 1.252 . S
O774 In767 2.326 . S
O774 C770 1.260 . S
O775 In767 2.266 . S
O775 C772 1.252 . S
O776 In767 2.326 . S
O776 C772 1.260 . S
C777 O768 1.240 . S
C777 O769 1.252 . S
O778 In767 2.294 . S
O778 C771 1.240 . S
O779 In767 2.326 . S
O779 C771 1.252 . S
In780 O781 2.294 . S
In780 O782 2.326 . S
In780 O786 2.266 . S
In780 O787 2.326 . S
In780 O788 2.266 . S
In780 O789 2.326 . S
In780 O791 2.294 . S
In780 O792 2.326 . S
O781 In780 2.294 . S
O781 C790 1.240 . S
O782 In780 2.326 . S
O782 C790 1.252 . S
C783 O786 1.252 . S
C783 O787 1.260 . S
C784 O791 1.240 . S
C784 O792 1.252 . S
C785 O788 1.252 . S
C785 O789 1.260 . S
O786 In780 2.266 . S
O786 C783 1.252 . S
O787 In780 2.326 . S
O787 C783 1.260 . S
O788 In780 2.266 . S
O788 C785 1.252 . S
O789 In780 2.326 . S
O789 C785 1.260 . S
C790 O781 1.240 . S
C790 O782 1.252 . S
O791 In780 2.294 . S
O791 C784 1.240 . S
O792 In780 2.326 . S
O792 C784 1.252 . S
In793 O794 2.294 . S
In793 O795 2.326 . S
In793 O799 2.266 . S
In793 O800 2.326 . S
In793 O801 2.266 . S
In793 O802 2.326 . S
In793 O804 2.294 . S
In793 O805 2.326 . S
O794 In793 2.294 . S
O794 C803 1.240 . S
O795 In793 2.326 . S
O795 C803 1.252 . S
C796 O799 1.252 . S
C796 O800 1.260 . S
C797 O804 1.240 . S
C797 O805 1.252 . S
C798 O801 1.252 . S
C798 O802 1.260 . S
O799 In793 2.266 . S
O799 C796 1.252 . S
O800 In793 2.326 . S
O800 C796 1.260 . S
O801 In793 2.266 . S
O801 C798 1.252 . S
O802 In793 2.326 . S
O802 C798 1.260 . S
C803 O794 1.240 . S
C803 O795 1.252 . S
O804 In793 2.294 . S
O804 C797 1.240 . S
O805 In793 2.326 . S
O805 C797 1.252 . S
In806 O807 2.294 . S
In806 O808 2.326 . S
In806 O812 2.266 . S
In806 O813 2.326 . S
In806 O814 2.266 . S
In806 O815 2.326 . S
In806 O817 2.294 . S
In806 O818 2.326 . S
O807 In806 2.294 . S
O807 C816 1.240 . S
O808 In806 2.326 . S
O808 C816 1.252 . S
C809 O812 1.252 . S
C809 O813 1.260 . S
C810 O817 1.240 . S
C810 O818 1.252 . S
C811 O814 1.252 . S
C811 O815 1.260 . S
O812 In806 2.266 . S
O812 C809 1.252 . S
O813 In806 2.326 . S
O813 C809 1.260 . S
O814 In806 2.266 . S
O814 C811 1.252 . S
O815 In806 2.326 . S
O815 C811 1.260 . S
C816 O807 1.240 . S
C816 O808 1.252 . S
O817 In806 2.294 . S
O817 C810 1.240 . S
O818 In806 2.326 . S
O818 C810 1.252 . S
In819 O820 2.294 . S
In819 O821 2.326 . S
In819 O825 2.266 . S
In819 O826 2.326 . S
In819 O827 2.266 . S
In819 O828 2.326 . S
In819 O830 2.294 . S
In819 O831 2.326 . S
O820 In819 2.294 . S
O820 C829 1.240 . S
O821 In819 2.326 . S
O821 C829 1.252 . S
C822 O825 1.252 . S
C822 O826 1.260 . S
C823 O830 1.240 . S
C823 O831 1.252 . S
C824 O827 1.252 . S
C824 O828 1.260 . S
O825 In819 2.266 . S
O825 C822 1.252 . S
O826 In819 2.326 . S
O826 C822 1.260 . S
O827 In819 2.266 . S
O827 C824 1.252 . S
O828 In819 2.326 . S
O828 C824 1.260 . S
C829 O820 1.240 . S
C829 O821 1.252 . S
O830 In819 2.294 . S
O830 C823 1.240 . S
O831 In819 2.326 . S
O831 C823 1.252 . S
In832 O833 2.294 . S
In832 O834 2.326 . S
In832 O838 2.266 . S
In832 O839 2.326 . S
In832 O840 2.266 . S
In832 O841 2.326 . S
In832 O843 2.294 . S
In832 O844 2.326 . S
O833 In832 2.294 . S
O833 C842 1.240 . S
O834 In832 2.326 . S
O834 C842 1.252 . S
C835 O838 1.252 . S
C835 O839 1.260 . S
C836 O843 1.240 . S
C836 O844 1.252 . S
C837 O840 1.252 . S
C837 O841 1.260 . S
O838 In832 2.266 . S
O838 C835 1.252 . S
O839 In832 2.326 . S
O839 C835 1.260 . S
O840 In832 2.266 . S
O840 C837 1.252 . S
O841 In832 2.326 . S
O841 C837 1.260 . S
C842 O833 1.240 . S
C842 O834 1.252 . S
O843 In832 2.294 . S
O843 C836 1.240 . S
O844 In832 2.326 . S
O844 C836 1.252 . S
In845 O846 2.294 . S
In845 O847 2.326 . S
In845 O851 2.266 . S
In845 O852 2.326 . S
In845 O853 2.266 . S
In845 O854 2.326 . S
In845 O856 2.294 . S
In845 O857 2.326 . S
O846 In845 2.294 . S
O846 C855 1.240 . S
O847 In845 2.326 . S
O847 C855 1.252 . S
C848 O851 1.252 . S
C848 O852 1.260 . S
C849 O856 1.240 . S
C849 O857 1.252 . S
C850 O853 1.252 . S
C850 O854 1.260 . S
O851 In845 2.266 . S
O851 C848 1.252 . S
O852 In845 2.326 . S
O852 C848 1.260 . S
O853 In845 2.266 . S
O853 C850 1.252 . S
O854 In845 2.326 . S
O854 C850 1.260 . S
C855 O846 1.240 . S
C855 O847 1.252 . S
O856 In845 2.294 . S
O856 C849 1.240 . S
O857 In845 2.326 . S
O857 C849 1.252 . S
In858 O859 2.294 . S
In858 O860 2.326 . S
In858 O864 2.266 . S
In858 O865 2.326 . S
In858 O866 2.266 . S
In858 O867 2.326 . S
In858 O869 2.294 . S
In858 O870 2.326 . S
O859 In858 2.294 . S
O859 C868 1.240 . S
O860 In858 2.326 . S
O860 C868 1.252 . S
C861 O864 1.252 . S
C861 O865 1.260 . S
C862 O869 1.240 . S
C862 O870 1.252 . S
C863 O866 1.252 . S
C863 O867 1.260 . S
O864 In858 2.266 . S
O864 C861 1.252 . S
O865 In858 2.326 . S
O865 C861 1.260 . S
O866 In858 2.266 . S
O866 C863 1.252 . S
O867 In858 2.326 . S
O867 C863 1.260 . S
C868 O859 1.240 . S
C868 O860 1.252 . S
O869 In858 2.294 . S
O869 C862 1.240 . S
O870 In858 2.326 . S
O870 C862 1.252 . S
In871 O872 2.294 . S
In871 O873 2.326 . S
In871 O877 2.266 . S
In871 O878 2.326 . S
In871 O879 2.266 . S
In871 O880 2.326 . S
In871 O882 2.294 . S
In871 O883 2.326 . S
O872 In871 2.294 . S
O872 C881 1.240 . S
O873 In871 2.326 . S
O873 C881 1.252 . S
C874 O877 1.252 . S
C874 O878 1.260 . S
C875 O882 1.240 . S
C875 O883 1.252 . S
C876 O879 1.252 . S
C876 O880 1.260 . S
O877 In871 2.266 . S
O877 C874 1.252 . S
O878 In871 2.326 . S
O878 C874 1.260 . S
O879 In871 2.266 . S
O879 C876 1.252 . S
O880 In871 2.326 . S
O880 C876 1.260 . S
C881 O872 1.240 . S
C881 O873 1.252 . S
O882 In871 2.294 . S
O882 C875 1.240 . S
O883 In871 2.326 . S
O883 C875 1.252 . S
In884 O885 2.294 . S
In884 O886 2.326 . S
In884 O890 2.266 . S
In884 O891 2.326 . S
In884 O892 2.266 . S
In884 O893 2.326 . S
In884 O895 2.294 . S
In884 O896 2.326 . S
O885 In884 2.294 . S
O885 C894 1.240 . S
O886 In884 2.326 . S
O886 C894 1.252 . S
C887 O890 1.252 . S
C887 O891 1.260 . S
C888 O895 1.240 . S
C888 O896 1.252 . S
C889 O892 1.252 . S
C889 O893 1.260 . S
O890 In884 2.266 . S
O890 C887 1.252 . S
O891 In884 2.326 . S
O891 C887 1.260 . S
O892 In884 2.266 . S
O892 C889 1.252 . S
O893 In884 2.326 . S
O893 C889 1.260 . S
C894 O885 1.240 . S
C894 O886 1.252 . S
O895 In884 2.294 . S
O895 C888 1.240 . S
O896 In884 2.326 . S
O896 C888 1.252 . S
In897 O898 2.294 . S
In897 O899 2.326 . S
In897 O903 2.266 . S
In897 O904 2.326 . S
In897 O905 2.266 . S
In897 O906 2.326 . S
In897 O908 2.294 . S
In897 O909 2.326 . S
O898 In897 2.294 . S
O898 C907 1.240 . S
O899 In897 2.326 . S
O899 C907 1.252 . S
C900 O903 1.252 . S
C900 O904 1.260 . S
C901 O908 1.240 . S
C901 O909 1.252 . S
C902 O905 1.252 . S
C902 O906 1.260 . S
O903 In897 2.266 . S
O903 C900 1.252 . S
O904 In897 2.326 . S
O904 C900 1.260 . S
O905 In897 2.266 . S
O905 C902 1.252 . S
O906 In897 2.326 . S
O906 C902 1.260 . S
C907 O898 1.240 . S
C907 O899 1.252 . S
O908 In897 2.294 . S
O908 C901 1.240 . S
O909 In897 2.326 . S
O909 C901 1.252 . S
In910 O911 2.294 . S
In910 O912 2.326 . S
In910 O916 2.266 . S
In910 O917 2.326 . S
In910 O918 2.266 . S
In910 O919 2.326 . S
In910 O921 2.294 . S
In910 O922 2.326 . S
O911 In910 2.294 . S
O911 C920 1.240 . S
O912 In910 2.326 . S
O912 C920 1.252 . S
C913 O916 1.252 . S
C913 O917 1.260 . S
C914 O921 1.240 . S
C914 O922 1.252 . S
C915 O918 1.252 . S
C915 O919 1.260 . S
O916 In910 2.266 . S
O916 C913 1.252 . S
O917 In910 2.326 . S
O917 C913 1.260 . S
O918 In910 2.266 . S
O918 C915 1.252 . S
O919 In910 2.326 . S
O919 C915 1.260 . S
C920 O911 1.240 . S
C920 O912 1.252 . S
O921 In910 2.294 . S
O921 C914 1.240 . S
O922 In910 2.326 . S
O922 C914 1.252 . S
In923 O924 2.294 . S
In923 O925 2.326 . S
In923 O929 2.266 . S
In923 O930 2.326 . S
In923 O931 2.266 . S
In923 O932 2.326 . S
In923 O934 2.294 . S
In923 O935 2.326 . S
O924 In923 2.294 . S
O924 C933 1.240 . S
O925 In923 2.326 . S
O925 C933 1.252 . S
C926 O929 1.252 . S
C926 O930 1.260 . S
C927 O934 1.240 . S
C927 O935 1.252 . S
C928 O931 1.252 . S
C928 O932 1.260 . S
O929 In923 2.266 . S
O929 C926 1.252 . S
O930 In923 2.326 . S
O930 C926 1.260 . S
O931 In923 2.266 . S
O931 C928 1.252 . S
O932 In923 2.326 . S
O932 C928 1.260 . S
C933 O924 1.240 . S
C933 O925 1.252 . S
O934 In923 2.294 . S
O934 C927 1.240 . S
O935 In923 2.326 . S
O935 C927 1.252 . S
In936 O937 2.294 . S
In936 O938 2.326 . S
In936 O942 2.266 . S
In936 O943 2.326 . S
In936 O944 2.266 . S
In936 O945 2.326 . S
In936 O947 2.294 . S
In936 O948 2.326 . S
O937 In936 2.294 . S
O937 C946 1.240 . S
O938 In936 2.326 . S
O938 C946 1.252 . S
C939 O942 1.252 . S
C939 O943 1.260 . S
C940 O947 1.240 . S
C940 O948 1.252 . S
C941 O944 1.252 . S
C941 O945 1.260 . S
O942 In936 2.266 . S
O942 C939 1.252 . S
O943 In936 2.326 . S
O943 C939 1.260 . S
O944 In936 2.266 . S
O944 C941 1.252 . S
O945 In936 2.326 . S
O945 C941 1.260 . S
C946 O937 1.240 . S
C946 O938 1.252 . S
O947 In936 2.294 . S
O947 C940 1.240 . S
O948 In936 2.326 . S
O948 C940 1.252 . S
In949 O950 2.294 . S
In949 O951 2.326 . S
In949 O955 2.266 . S
In949 O956 2.326 . S
In949 O957 2.266 . S
In949 O958 2.326 . S
In949 O960 2.294 . S
In949 O961 2.326 . S
O950 In949 2.294 . S
O950 C959 1.240 . S
O951 In949 2.326 . S
O951 C959 1.252 . S
C952 O955 1.252 . S
C952 O956 1.260 . S
C953 O960 1.240 . S
C953 O961 1.252 . S
C954 O957 1.252 . S
C954 O958 1.260 . S
O955 In949 2.266 . S
O955 C952 1.252 . S
O956 In949 2.326 . S
O956 C952 1.260 . S
O957 In949 2.266 . S
O957 C954 1.252 . S
O958 In949 2.326 . S
O958 C954 1.260 . S
C959 O950 1.240 . S
C959 O951 1.252 . S
O960 In949 2.294 . S
O960 C953 1.240 . S
O961 In949 2.326 . S
O961 C953 1.252 . S
In962 O963 2.294 . S
In962 O964 2.326 . S
In962 O968 2.266 . S
In962 O969 2.326 . S
In962 O970 2.266 . S
In962 O971 2.326 . S
In962 O973 2.294 . S
In962 O974 2.326 . S
O963 In962 2.294 . S
O963 C972 1.240 . S
O964 In962 2.326 . S
O964 C972 1.252 . S
C965 O968 1.252 . S
C965 O969 1.260 . S
C966 O973 1.240 . S
C966 O974 1.252 . S
C967 O970 1.252 . S
C967 O971 1.260 . S
O968 In962 2.266 . S
O968 C965 1.252 . S
O969 In962 2.326 . S
O969 C965 1.260 . S
O970 In962 2.266 . S
O970 C967 1.252 . S
O971 In962 2.326 . S
O971 C967 1.260 . S
C972 O963 1.240 . S
C972 O964 1.252 . S
O973 In962 2.294 . S
O973 C966 1.240 . S
O974 In962 2.326 . S
O974 C966 1.252 . S
In975 O976 2.294 . S
In975 O977 2.326 . S
In975 O981 2.266 . S
In975 O982 2.326 . S
In975 O983 2.266 . S
In975 O984 2.326 . S
In975 O986 2.294 . S
In975 O987 2.326 . S
O976 In975 2.294 . S
O976 C985 1.240 . S
O977 In975 2.326 . S
O977 C985 1.252 . S
C978 O981 1.252 . S
C978 O982 1.260 . S
C979 O986 1.240 . S
C979 O987 1.252 . S
C980 O983 1.252 . S
C980 O984 1.260 . S
O981 In975 2.266 . S
O981 C978 1.252 . S
O982 In975 2.326 . S
O982 C978 1.260 . S
O983 In975 2.266 . S
O983 C980 1.252 . S
O984 In975 2.326 . S
O984 C980 1.260 . S
C985 O976 1.240 . S
C985 O977 1.252 . S
O986 In975 2.294 . S
O986 C979 1.240 . S
O987 In975 2.326 . S
O987 C979 1.252 . S
In988 O989 2.294 . S
In988 O990 2.326 . S
In988 O994 2.266 . S
In988 O995 2.326 . S
In988 O996 2.266 . S
In988 O997 2.326 . S
In988 O999 2.294 . S
In988 O1000 2.326 . S
O989 In988 2.294 . S
O989 C998 1.240 . S
O990 In988 2.326 . S
O990 C998 1.252 . S
C991 O994 1.252 . S
C991 O995 1.260 . S
C992 O999 1.240 . S
C992 O1000 1.252 . S
C993 O996 1.252 . S
C993 O997 1.260 . S
O994 In988 2.266 . S
O994 C991 1.252 . S
O995 In988 2.326 . S
O995 C991 1.260 . S
O996 In988 2.266 . S
O996 C993 1.252 . S
O997 In988 2.326 . S
O997 C993 1.260 . S
C998 O989 1.240 . S
C998 O990 1.252 . S
O999 In988 2.294 . S
O999 C992 1.240 . S
O1000 In988 2.326 . S
O1000 C992 1.252 . S
In1001 O1002 2.294 . S
In1001 O1003 2.326 . S
In1001 O1007 2.266 . S
In1001 O1008 2.326 . S
In1001 O1009 2.266 . S
In1001 O1010 2.326 . S
In1001 O1012 2.294 . S
In1001 O1013 2.326 . S
O1002 In1001 2.294 . S
O1002 C1011 1.240 . S
O1003 In1001 2.326 . S
O1003 C1011 1.252 . S
C1004 O1007 1.252 . S
C1004 O1008 1.260 . S
C1005 O1012 1.240 . S
C1005 O1013 1.252 . S
C1006 O1009 1.252 . S
C1006 O1010 1.260 . S
O1007 In1001 2.266 . S
O1007 C1004 1.252 . S
O1008 In1001 2.326 . S
O1008 C1004 1.260 . S
O1009 In1001 2.266 . S
O1009 C1006 1.252 . S
O1010 In1001 2.326 . S
O1010 C1006 1.260 . S
C1011 O1002 1.240 . S
C1011 O1003 1.252 . S
O1012 In1001 2.294 . S
O1012 C1005 1.240 . S
O1013 In1001 2.326 . S
O1013 C1005 1.252 . S
In1014 O1015 2.294 . S
In1014 O1016 2.326 . S
In1014 O1020 2.266 . S
In1014 O1021 2.326 . S
In1014 O1022 2.266 . S
In1014 O1023 2.326 . S
In1014 O1025 2.294 . S
In1014 O1026 2.326 . S
O1015 In1014 2.294 . S
O1015 C1024 1.240 . S
O1016 In1014 2.326 . S
O1016 C1024 1.252 . S
C1017 O1020 1.252 . S
C1017 O1021 1.260 . S
C1018 O1025 1.240 . S
C1018 O1026 1.252 . S
C1019 O1022 1.252 . S
C1019 O1023 1.260 . S
O1020 In1014 2.266 . S
O1020 C1017 1.252 . S
O1021 In1014 2.326 . S
O1021 C1017 1.260 . S
O1022 In1014 2.266 . S
O1022 C1019 1.252 . S
O1023 In1014 2.326 . S
O1023 C1019 1.260 . S
C1024 O1015 1.240 . S
C1024 O1016 1.252 . S
O1025 In1014 2.294 . S
O1025 C1018 1.240 . S
O1026 In1014 2.326 . S
O1026 C1018 1.252 . S
In1027 O1028 2.294 . S
In1027 O1029 2.326 . S
In1027 O1033 2.266 . S
In1027 O1034 2.326 . S
In1027 O1035 2.266 . S
In1027 O1036 2.326 . S
In1027 O1038 2.294 . S
In1027 O1039 2.326 . S
O1028 In1027 2.294 . S
O1028 C1037 1.240 . S
O1029 In1027 2.326 . S
O1029 C1037 1.252 . S
C1030 O1033 1.252 . S
C1030 O1034 1.260 . S
C1031 O1038 1.240 . S
C1031 O1039 1.252 . S
C1032 O1035 1.252 . S
C1032 O1036 1.260 . S
O1033 In1027 2.266 . S
O1033 C1030 1.252 . S
O1034 In1027 2.326 . S
O1034 C1030 1.260 . S
O1035 In1027 2.266 . S
O1035 C1032 1.252 . S
O1036 In1027 2.326 . S
O1036 C1032 1.260 . S
C1037 O1028 1.240 . S
C1037 O1029 1.252 . S
O1038 In1027 2.294 . S
O1038 C1031 1.240 . S
O1039 In1027 2.326 . S
O1039 C1031 1.252 . S
In1040 O1041 2.294 . S
In1040 O1042 2.326 . S
In1040 O1046 2.266 . S
In1040 O1047 2.326 . S
In1040 O1048 2.266 . S
In1040 O1049 2.326 . S
In1040 O1051 2.294 . S
In1040 O1052 2.326 . S
O1041 In1040 2.294 . S
O1041 C1050 1.240 . S
O1042 In1040 2.326 . S
O1042 C1050 1.252 . S
C1043 O1046 1.252 . S
C1043 O1047 1.260 . S
C1044 O1051 1.240 . S
C1044 O1052 1.252 . S
C1045 O1048 1.252 . S
C1045 O1049 1.260 . S
O1046 In1040 2.266 . S
O1046 C1043 1.252 . S
O1047 In1040 2.326 . S
O1047 C1043 1.260 . S
O1048 In1040 2.266 . S
O1048 C1045 1.252 . S
O1049 In1040 2.326 . S
O1049 C1045 1.260 . S
C1050 O1041 1.240 . S
C1050 O1042 1.252 . S
O1051 In1040 2.294 . S
O1051 C1044 1.240 . S
O1052 In1040 2.326 . S
O1052 C1044 1.252 . S
In1053 O1054 2.294 . S
In1053 O1055 2.326 . S
In1053 O1059 2.266 . S
In1053 O1060 2.326 . S
In1053 O1061 2.266 . S
In1053 O1062 2.326 . S
In1053 O1064 2.294 . S
In1053 O1065 2.326 . S
O1054 In1053 2.294 . S
O1054 C1063 1.240 . S
O1055 In1053 2.326 . S
O1055 C1063 1.252 . S
C1056 O1059 1.252 . S
C1056 O1060 1.260 . S
C1057 O1064 1.240 . S
C1057 O1065 1.252 . S
C1058 O1061 1.252 . S
C1058 O1062 1.260 . S
O1059 In1053 2.266 . S
O1059 C1056 1.252 . S
O1060 In1053 2.326 . S
O1060 C1056 1.260 . S
O1061 In1053 2.266 . S
O1061 C1058 1.252 . S
O1062 In1053 2.326 . S
O1062 C1058 1.260 . S
C1063 O1054 1.240 . S
C1063 O1055 1.252 . S
O1064 In1053 2.294 . S
O1064 C1057 1.240 . S
O1065 In1053 2.326 . S
O1065 C1057 1.252 . S
In1066 O1067 2.294 . S
In1066 O1068 2.326 . S
In1066 O1072 2.266 . S
In1066 O1073 2.326 . S
In1066 O1074 2.266 . S
In1066 O1075 2.326 . S
In1066 O1077 2.294 . S
In1066 O1078 2.326 . S
O1067 In1066 2.294 . S
O1067 C1076 1.240 . S
O1068 In1066 2.326 . S
O1068 C1076 1.252 . S
C1069 O1072 1.252 . S
C1069 O1073 1.260 . S
C1070 O1077 1.240 . S
C1070 O1078 1.252 . S
C1071 O1074 1.252 . S
C1071 O1075 1.260 . S
O1072 In1066 2.266 . S
O1072 C1069 1.252 . S
O1073 In1066 2.326 . S
O1073 C1069 1.260 . S
O1074 In1066 2.266 . S
O1074 C1071 1.252 . S
O1075 In1066 2.326 . S
O1075 C1071 1.260 . S
C1076 O1067 1.240 . S
C1076 O1068 1.252 . S
O1077 In1066 2.294 . S
O1077 C1070 1.240 . S
O1078 In1066 2.326 . S
O1078 C1070 1.252 . S
In1079 O1080 2.294 . S
In1079 O1081 2.326 . S
In1079 O1085 2.266 . S
In1079 O1086 2.326 . S
In1079 O1087 2.266 . S
In1079 O1088 2.326 . S
In1079 O1090 2.294 . S
In1079 O1091 2.326 . S
O1080 In1079 2.294 . S
O1080 C1089 1.240 . S
O1081 In1079 2.326 . S
O1081 C1089 1.252 . S
C1082 O1085 1.252 . S
C1082 O1086 1.260 . S
C1083 O1090 1.240 . S
C1083 O1091 1.252 . S
C1084 O1087 1.252 . S
C1084 O1088 1.260 . S
O1085 In1079 2.266 . S
O1085 C1082 1.252 . S
O1086 In1079 2.326 . S
O1086 C1082 1.260 . S
O1087 In1079 2.266 . S
O1087 C1084 1.252 . S
O1088 In1079 2.326 . S
O1088 C1084 1.260 . S
C1089 O1080 1.240 . S
C1089 O1081 1.252 . S
O1090 In1079 2.294 . S
O1090 C1083 1.240 . S
O1091 In1079 2.326 . S
O1091 C1083 1.252 . S
In1092 O1093 2.294 . S
In1092 O1094 2.326 . S
In1092 O1098 2.266 . S
In1092 O1099 2.326 . S
In1092 O1100 2.266 . S
In1092 O1101 2.326 . S
In1092 O1103 2.294 . S
In1092 O1104 2.326 . S
O1093 In1092 2.294 . S
O1093 C1102 1.240 . S
O1094 In1092 2.326 . S
O1094 C1102 1.252 . S
C1095 O1098 1.252 . S
C1095 O1099 1.260 . S
C1096 O1103 1.240 . S
C1096 O1104 1.252 . S
C1097 O1100 1.252 . S
C1097 O1101 1.260 . S
O1098 In1092 2.266 . S
O1098 C1095 1.252 . S
O1099 In1092 2.326 . S
O1099 C1095 1.260 . S
O1100 In1092 2.266 . S
O1100 C1097 1.252 . S
O1101 In1092 2.326 . S
O1101 C1097 1.260 . S
C1102 O1093 1.240 . S
C1102 O1094 1.252 . S
O1103 In1092 2.294 . S
O1103 C1096 1.240 . S
O1104 In1092 2.326 . S
O1104 C1096 1.252 . S
In1105 O1106 2.294 . S
In1105 O1107 2.326 . S
In1105 O1111 2.266 . S
In1105 O1112 2.326 . S
In1105 O1113 2.266 . S
In1105 O1114 2.326 . S
In1105 O1116 2.294 . S
In1105 O1117 2.326 . S
O1106 In1105 2.294 . S
O1106 C1115 1.240 . S
O1107 In1105 2.326 . S
O1107 C1115 1.252 . S
C1108 O1111 1.252 . S
C1108 O1112 1.260 . S
C1109 O1116 1.240 . S
C1109 O1117 1.252 . S
C1110 O1113 1.252 . S
C1110 O1114 1.260 . S
O1111 In1105 2.266 . S
O1111 C1108 1.252 . S
O1112 In1105 2.326 . S
O1112 C1108 1.260 . S
O1113 In1105 2.266 . S
O1113 C1110 1.252 . S
O1114 In1105 2.326 . S
O1114 C1110 1.260 . S
C1115 O1106 1.240 . S
C1115 O1107 1.252 . S
O1116 In1105 2.294 . S
O1116 C1109 1.240 . S
O1117 In1105 2.326 . S
O1117 C1109 1.252 . S
In1118 O1119 2.294 . S
In1118 O1120 2.326 . S
In1118 O1124 2.266 . S
In1118 O1125 2.326 . S
In1118 O1126 2.266 . S
In1118 O1127 2.326 . S
In1118 O1129 2.294 . S
In1118 O1130 2.326 . S
O1119 In1118 2.294 . S
O1119 C1128 1.240 . S
O1120 In1118 2.326 . S
O1120 C1128 1.252 . S
C1121 O1124 1.252 . S
C1121 O1125 1.260 . S
C1122 O1129 1.240 . S
C1122 O1130 1.252 . S
C1123 O1126 1.252 . S
C1123 O1127 1.260 . S
O1124 In1118 2.266 . S
O1124 C1121 1.252 . S
O1125 In1118 2.326 . S
O1125 C1121 1.260 . S
O1126 In1118 2.266 . S
O1126 C1123 1.252 . S
O1127 In1118 2.326 . S
O1127 C1123 1.260 . S
C1128 O1119 1.240 . S
C1128 O1120 1.252 . S
O1129 In1118 2.294 . S
O1129 C1122 1.240 . S
O1130 In1118 2.326 . S
O1130 C1122 1.252 . S
In1131 O1132 2.294 . S
In1131 O1133 2.326 . S
In1131 O1137 2.266 . S
In1131 O1138 2.326 . S
In1131 O1139 2.266 . S
In1131 O1140 2.326 . S
In1131 O1142 2.294 . S
In1131 O1143 2.326 . S
O1132 In1131 2.294 . S
O1132 C1141 1.240 . S
O1133 In1131 2.326 . S
O1133 C1141 1.252 . S
C1134 O1137 1.252 . S
C1134 O1138 1.260 . S
C1135 O1142 1.240 . S
C1135 O1143 1.252 . S
C1136 O1139 1.252 . S
C1136 O1140 1.260 . S
O1137 In1131 2.266 . S
O1137 C1134 1.252 . S
O1138 In1131 2.326 . S
O1138 C1134 1.260 . S
O1139 In1131 2.266 . S
O1139 C1136 1.252 . S
O1140 In1131 2.326 . S
O1140 C1136 1.260 . S
C1141 O1132 1.240 . S
C1141 O1133 1.252 . S
O1142 In1131 2.294 . S
O1142 C1135 1.240 . S
O1143 In1131 2.326 . S
O1143 C1135 1.252 . S
In1144 O1145 2.294 . S
In1144 O1146 2.326 . S
In1144 O1150 2.266 . S
In1144 O1151 2.326 . S
In1144 O1152 2.266 . S
In1144 O1153 2.326 . S
In1144 O1155 2.294 . S
In1144 O1156 2.326 . S
O1145 In1144 2.294 . S
O1145 C1154 1.240 . S
O1146 In1144 2.326 . S
O1146 C1154 1.252 . S
C1147 O1150 1.252 . S
C1147 O1151 1.260 . S
C1148 O1155 1.240 . S
C1148 O1156 1.252 . S
C1149 O1152 1.252 . S
C1149 O1153 1.260 . S
O1150 In1144 2.266 . S
O1150 C1147 1.252 . S
O1151 In1144 2.326 . S
O1151 C1147 1.260 . S
O1152 In1144 2.266 . S
O1152 C1149 1.252 . S
O1153 In1144 2.326 . S
O1153 C1149 1.260 . S
C1154 O1145 1.240 . S
C1154 O1146 1.252 . S
O1155 In1144 2.294 . S
O1155 C1148 1.240 . S
O1156 In1144 2.326 . S
O1156 C1148 1.252 . S
In1157 O1158 2.294 . S
In1157 O1159 2.326 . S
In1157 O1163 2.266 . S
In1157 O1164 2.326 . S
In1157 O1165 2.266 . S
In1157 O1166 2.326 . S
In1157 O1168 2.294 . S
In1157 O1169 2.326 . S
O1158 In1157 2.294 . S
O1158 C1167 1.240 . S
O1159 In1157 2.326 . S
O1159 C1167 1.252 . S
C1160 O1163 1.252 . S
C1160 O1164 1.260 . S
C1161 O1168 1.240 . S
C1161 O1169 1.252 . S
C1162 O1165 1.252 . S
C1162 O1166 1.260 . S
O1163 In1157 2.266 . S
O1163 C1160 1.252 . S
O1164 In1157 2.326 . S
O1164 C1160 1.260 . S
O1165 In1157 2.266 . S
O1165 C1162 1.252 . S
O1166 In1157 2.326 . S
O1166 C1162 1.260 . S
C1167 O1158 1.240 . S
C1167 O1159 1.252 . S
O1168 In1157 2.294 . S
O1168 C1161 1.240 . S
O1169 In1157 2.326 . S
O1169 C1161 1.252 . S
In1170 O1171 2.294 . S
In1170 O1172 2.326 . S
In1170 O1176 2.266 . S
In1170 O1177 2.326 . S
In1170 O1178 2.266 . S
In1170 O1179 2.326 . S
In1170 O1181 2.294 . S
In1170 O1182 2.326 . S
O1171 In1170 2.294 . S
O1171 C1180 1.240 . S
O1172 In1170 2.326 . S
O1172 C1180 1.252 . S
C1173 O1176 1.252 . S
C1173 O1177 1.260 . S
C1174 O1181 1.240 . S
C1174 O1182 1.252 . S
C1175 O1178 1.252 . S
C1175 O1179 1.260 . S
O1176 In1170 2.266 . S
O1176 C1173 1.252 . S
O1177 In1170 2.326 . S
O1177 C1173 1.260 . S
O1178 In1170 2.266 . S
O1178 C1175 1.252 . S
O1179 In1170 2.326 . S
O1179 C1175 1.260 . S
C1180 O1171 1.240 . S
C1180 O1172 1.252 . S
O1181 In1170 2.294 . S
O1181 C1174 1.240 . S
O1182 In1170 2.326 . S
O1182 C1174 1.252 . S
In1183 O1184 2.294 . S
In1183 O1185 2.326 . S
In1183 O1189 2.266 . S
In1183 O1190 2.326 . S
In1183 O1191 2.266 . S
In1183 O1192 2.326 . S
In1183 O1194 2.294 . S
In1183 O1195 2.326 . S
O1184 In1183 2.294 . S
O1184 C1193 1.240 . S
O1185 In1183 2.326 . S
O1185 C1193 1.252 . S
C1186 O1189 1.252 . S
C1186 O1190 1.260 . S
C1187 O1194 1.240 . S
C1187 O1195 1.252 . S
C1188 O1191 1.252 . S
C1188 O1192 1.260 . S
O1189 In1183 2.266 . S
O1189 C1186 1.252 . S
O1190 In1183 2.326 . S
O1190 C1186 1.260 . S
O1191 In1183 2.266 . S
O1191 C1188 1.252 . S
O1192 In1183 2.326 . S
O1192 C1188 1.260 . S
C1193 O1184 1.240 . S
C1193 O1185 1.252 . S
O1194 In1183 2.294 . S
O1194 C1187 1.240 . S
O1195 In1183 2.326 . S
O1195 C1187 1.252 . S
In1196 O1197 2.294 . S
In1196 O1198 2.326 . S
In1196 O1202 2.266 . S
In1196 O1203 2.326 . S
In1196 O1204 2.266 . S
In1196 O1205 2.326 . S
In1196 O1207 2.294 . S
In1196 O1208 2.326 . S
O1197 In1196 2.294 . S
O1197 C1206 1.240 . S
O1198 In1196 2.326 . S
O1198 C1206 1.252 . S
C1199 O1202 1.252 . S
C1199 O1203 1.260 . S
C1200 O1207 1.240 . S
C1200 O1208 1.252 . S
C1201 O1204 1.252 . S
C1201 O1205 1.260 . S
O1202 In1196 2.266 . S
O1202 C1199 1.252 . S
O1203 In1196 2.326 . S
O1203 C1199 1.260 . S
O1204 In1196 2.266 . S
O1204 C1201 1.252 . S
O1205 In1196 2.326 . S
O1205 C1201 1.260 . S
C1206 O1197 1.240 . S
C1206 O1198 1.252 . S
O1207 In1196 2.294 . S
O1207 C1200 1.240 . S
O1208 In1196 2.326 . S
O1208 C1200 1.252 . S
In1209 O1210 2.294 . S
In1209 O1211 2.326 . S
In1209 O1215 2.266 . S
In1209 O1216 2.326 . S
In1209 O1217 2.266 . S
In1209 O1218 2.326 . S
In1209 O1220 2.294 . S
In1209 O1221 2.326 . S
O1210 In1209 2.294 . S
O1210 C1219 1.240 . S
O1211 In1209 2.326 . S
O1211 C1219 1.252 . S
C1212 O1215 1.252 . S
C1212 O1216 1.260 . S
C1213 O1220 1.240 . S
C1213 O1221 1.252 . S
C1214 O1217 1.252 . S
C1214 O1218 1.260 . S
O1215 In1209 2.266 . S
O1215 C1212 1.252 . S
O1216 In1209 2.326 . S
O1216 C1212 1.260 . S
O1217 In1209 2.266 . S
O1217 C1214 1.252 . S
O1218 In1209 2.326 . S
O1218 C1214 1.260 . S
C1219 O1210 1.240 . S
C1219 O1211 1.252 . S
O1220 In1209 2.294 . S
O1220 C1213 1.240 . S
O1221 In1209 2.326 . S
O1221 C1213 1.252 . S
In1222 O1223 2.294 . S
In1222 O1224 2.326 . S
In1222 O1228 2.266 . S
In1222 O1229 2.326 . S
In1222 O1230 2.266 . S
In1222 O1231 2.326 . S
In1222 O1233 2.294 . S
In1222 O1234 2.326 . S
O1223 In1222 2.294 . S
O1223 C1232 1.240 . S
O1224 In1222 2.326 . S
O1224 C1232 1.252 . S
C1225 O1228 1.252 . S
C1225 O1229 1.260 . S
C1226 O1233 1.240 . S
C1226 O1234 1.252 . S
C1227 O1230 1.252 . S
C1227 O1231 1.260 . S
O1228 In1222 2.266 . S
O1228 C1225 1.252 . S
O1229 In1222 2.326 . S
O1229 C1225 1.260 . S
O1230 In1222 2.266 . S
O1230 C1227 1.252 . S
O1231 In1222 2.326 . S
O1231 C1227 1.260 . S
C1232 O1223 1.240 . S
C1232 O1224 1.252 . S
O1233 In1222 2.294 . S
O1233 C1226 1.240 . S
O1234 In1222 2.326 . S
O1234 C1226 1.252 . S
In1235 O1236 2.294 . S
In1235 O1237 2.326 . S
In1235 O1241 2.266 . S
In1235 O1242 2.326 . S
In1235 O1243 2.266 . S
In1235 O1244 2.326 . S
In1235 O1246 2.294 . S
In1235 O1247 2.326 . S
O1236 In1235 2.294 . S
O1236 C1245 1.240 . S
O1237 In1235 2.326 . S
O1237 C1245 1.252 . S
C1238 O1241 1.252 . S
C1238 O1242 1.260 . S
C1239 O1246 1.240 . S
C1239 O1247 1.252 . S
C1240 O1243 1.252 . S
C1240 O1244 1.260 . S
O1241 In1235 2.266 . S
O1241 C1238 1.252 . S
O1242 In1235 2.326 . S
O1242 C1238 1.260 . S
O1243 In1235 2.266 . S
O1243 C1240 1.252 . S
O1244 In1235 2.326 . S
O1244 C1240 1.260 . S
C1245 O1236 1.240 . S
C1245 O1237 1.252 . S
O1246 In1235 2.294 . S
O1246 C1239 1.240 . S
O1247 In1235 2.326 . S
O1247 C1239 1.252 . S
C1248 C1249 1.349 . S
C1248 C1250 1.327 . S
C1248 H1273 0.950 . S
C1249 C1248 1.349 . S
C1249 C1265 1.349 . S
C1250 C1248 1.327 . S
C1250 C1269 1.429 . S
C1250 H1274 0.950 . S
C1251 C1268 1.574 1_554 S
C1251 C1270 1.368 1_655 S
C1251 H1275 0.949 . S
H1252 C1256 0.949 . S
C1253 C1254 1.349 . S
C1253 C1255 1.327 . S
C1253 H1276 0.950 . S
C1254 C1253 1.349 . S
C1254 C1266 1.349 . S
C1255 C1253 1.327 . S
C1255 C1271 1.429 . S
C1255 H1277 0.950 . S
C1256 H1252 0.949 . S
C1256 C1264 1.574 1_556 S
C1256 C1272 1.368 1_455 S
H1257 C1265 0.950 . S
H1258 C1263 0.950 . S
H1259 C1264 0.949 . S
H1260 C1266 0.950 . S
H1261 C1267 0.950 . S
H1262 C1268 0.949 . S
C1263 H1258 0.950 . S
C1263 C1265 1.327 . S
C1263 C1269 1.429 . S
C1264 C1256 1.574 1_554 S
C1264 H1259 0.949 . S
C1264 C1270 1.368 . S
C1265 C1249 1.349 . S
C1265 H1257 0.950 . S
C1265 C1263 1.327 . S
C1266 C1254 1.349 . S
C1266 H1260 0.950 . S
C1266 C1267 1.327 . S
C1267 H1261 0.950 . S
C1267 C1266 1.327 . S
C1267 C1271 1.429 . S
C1268 C1251 1.574 1_556 S
C1268 H1262 0.949 . S
C1268 C1272 1.368 . S
C1269 C1250 1.429 . S
C1269 C1263 1.429 . S
C1269 C1270 1.523 . S
C1270 C1251 1.368 1_455 S
C1270 C1264 1.368 . S
C1270 C1269 1.523 . S
C1271 C1255 1.429 . S
C1271 C1267 1.429 . S
C1271 C1272 1.523 . S
C1272 C1256 1.368 1_655 S
C1272 C1268 1.368 . S
C1272 C1271 1.523 . S
H1273 C1248 0.950 . S
H1274 C1250 0.950 . S
H1275 C1251 0.949 . S
H1276 C1253 0.950 . S
H1277 C1255 0.950 . S
C1278 C1279 1.349 . S
C1278 C1280 1.327 . S
C1278 H1303 0.950 . S
C1279 C1278 1.349 . S
C1279 C1295 1.349 . S
C1280 C1278 1.327 . S
C1280 C1299 1.429 . S
C1280 H1304 0.950 . S
C1281 C1298 1.574 . S
C1281 C1300 1.368 . S
C1281 H1305 0.949 . S
H1282 C1286 0.949 . S
C1283 C1284 1.349 . S
C1283 C1285 1.327 . S
C1283 H1306 0.950 . S
C1284 C1283 1.349 . S
C1284 C1296 1.349 . S
C1285 C1283 1.327 . S
C1285 C1301 1.429 . S
C1285 H1307 0.950 . S
C1286 H1282 0.949 . S
C1286 C1294 1.574 . S
C1286 C1302 1.368 . S
H1287 C1295 0.950 . S
H1288 C1293 0.950 . S
H1289 C1294 0.949 . S
H1290 C1296 0.950 . S
H1291 C1297 0.950 . S
H1292 C1298 0.949 . S
C1293 H1288 0.950 . S
C1293 C1295 1.327 . S
C1293 C1299 1.429 . S
C1294 C1286 1.574 . S
C1294 H1289 0.949 . S
C1294 C1300 1.368 . S
C1295 C1279 1.349 . S
C1295 H1287 0.950 . S
C1295 C1293 1.327 . S
C1296 C1284 1.349 . S
C1296 H1290 0.950 . S
C1296 C1297 1.327 . S
C1297 H1291 0.950 . S
C1297 C1296 1.327 . S
C1297 C1301 1.429 . S
C1298 C1281 1.574 . S
C1298 H1292 0.949 . S
C1298 C1302 1.368 . S
C1299 C1280 1.429 . S
C1299 C1293 1.429 . S
C1299 C1300 1.523 . S
C1300 C1281 1.368 . S
C1300 C1294 1.368 . S
C1300 C1299 1.523 . S
C1301 C1285 1.429 . S
C1301 C1297 1.429 . S
C1301 C1302 1.523 . S
C1302 C1286 1.368 . S
C1302 C1298 1.368 . S
C1302 C1301 1.523 . S
H1303 C1278 0.950 . S
H1304 C1280 0.950 . S
H1305 C1281 0.949 . S
H1306 C1283 0.950 . S
H1307 C1285 0.950 . S
C1308 C1309 1.349 . S
C1308 C1310 1.327 . S
C1308 H1333 0.950 . S
C1309 C1308 1.349 . S
C1309 C1325 1.349 . S
C1310 C1308 1.327 . S
C1310 C1329 1.429 . S
C1310 H1334 0.950 . S
C1311 C1328 1.574 . S
C1311 C1330 1.368 . S
C1311 H1335 0.949 . S
H1312 C1316 0.949 . S
C1313 C1314 1.349 . S
C1313 C1315 1.327 . S
C1313 H1336 0.950 . S
C1314 C1313 1.349 . S
C1314 C1326 1.349 . S
C1315 C1313 1.327 . S
C1315 C1331 1.429 . S
C1315 H1337 0.950 . S
C1316 H1312 0.949 . S
C1316 C1324 1.574 . S
C1316 C1332 1.368 . S
H1317 C1325 0.950 . S
H1318 C1323 0.950 . S
H1319 C1324 0.949 . S
H1320 C1326 0.950 . S
H1321 C1327 0.950 . S
H1322 C1328 0.949 . S
C1323 H1318 0.950 . S
C1323 C1325 1.327 . S
C1323 C1329 1.429 . S
C1324 C1316 1.574 . S
C1324 H1319 0.949 . S
C1324 C1330 1.368 1_455 S
C1325 C1309 1.349 . S
C1325 H1317 0.950 . S
C1325 C1323 1.327 . S
C1326 C1314 1.349 . S
C1326 H1320 0.950 . S
C1326 C1327 1.327 . S
C1327 H1321 0.950 . S
C1327 C1326 1.327 . S
C1327 C1331 1.429 . S
C1328 C1311 1.574 . S
C1328 H1322 0.949 . S
C1328 C1332 1.368 1_655 S
C1329 C1310 1.429 . S
C1329 C1323 1.429 . S
C1329 C1330 1.523 . S
C1330 C1311 1.368 . S
C1330 C1324 1.368 1_655 S
C1330 C1329 1.523 . S
C1331 C1315 1.429 . S
C1331 C1327 1.429 . S
C1331 C1332 1.523 . S
C1332 C1316 1.368 . S
C1332 C1328 1.368 1_455 S
C1332 C1331 1.523 . S
H1333 C1308 0.950 . S
H1334 C1310 0.950 . S
H1335 C1311 0.949 . S
H1336 C1313 0.950 . S
H1337 C1315 0.950 . S
C1338 C1339 1.349 . S
C1338 C1340 1.327 . S
C1338 H1363 0.950 . S
C1339 C1338 1.349 . S
C1339 C1355 1.349 . S
C1340 C1338 1.327 . S
C1340 C1359 1.429 . S
C1340 H1364 0.950 . S
C1341 C1358 1.574 . S
C1341 C1360 1.368 . S
C1341 H1365 0.949 . S
H1342 C1346 0.949 . S
C1343 C1344 1.349 . S
C1343 C1345 1.327 . S
C1343 H1366 0.950 . S
C1344 C1343 1.349 . S
C1344 C1356 1.349 . S
C1345 C1343 1.327 . S
C1345 C1361 1.429 . S
C1345 H1367 0.950 . S
C1346 H1342 0.949 . S
C1346 C1354 1.574 . S
C1346 C1362 1.368 . S
H1347 C1355 0.950 . S
H1348 C1353 0.950 . S
H1349 C1354 0.949 . S
H1350 C1356 0.950 . S
H1351 C1357 0.950 . S
H1352 C1358 0.949 . S
C1353 H1348 0.950 . S
C1353 C1355 1.327 . S
C1353 C1359 1.429 . S
C1354 C1346 1.574 . S
C1354 H1349 0.949 . S
C1354 C1360 1.368 . S
C1355 C1339 1.349 . S
C1355 H1347 0.950 . S
C1355 C1353 1.327 . S
C1356 C1344 1.349 . S
C1356 H1350 0.950 . S
C1356 C1357 1.327 . S
C1357 H1351 0.950 . S
C1357 C1356 1.327 . S
C1357 C1361 1.429 . S
C1358 C1341 1.574 . S
C1358 H1352 0.949 . S
C1358 C1362 1.368 . S
C1359 C1340 1.429 . S
C1359 C1353 1.429 . S
C1359 C1360 1.523 . S
C1360 C1341 1.368 . S
C1360 C1354 1.368 . S
C1360 C1359 1.523 . S
C1361 C1345 1.429 . S
C1361 C1357 1.429 . S
C1361 C1362 1.523 . S
C1362 C1346 1.368 . S
C1362 C1358 1.368 . S
C1362 C1361 1.523 . S
H1363 C1338 0.950 . S
H1364 C1340 0.950 . S
H1365 C1341 0.949 . S
H1366 C1343 0.950 . S
H1367 C1345 0.950 . S
C1368 C1369 1.349 . S
C1368 C1370 1.327 . S
C1368 H1393 0.950 . S
C1369 C1368 1.349 . S
C1369 C1385 1.349 . S
C1370 C1368 1.327 . S
C1370 C1389 1.429 . S
C1370 H1394 0.950 . S
C1371 C1388 1.574 1_554 S
C1371 C1390 1.368 1_455 S
C1371 H1395 0.949 . S
H1372 C1376 0.949 . S
C1373 C1374 1.349 . S
C1373 C1375 1.327 . S
C1373 H1396 0.950 . S
C1374 C1373 1.349 . S
C1374 C1386 1.349 . S
C1375 C1373 1.327 . S
C1375 C1391 1.429 . S
C1375 H1397 0.950 . S
C1376 H1372 0.949 . S
C1376 C1384 1.574 1_556 S
C1376 C1392 1.368 1_655 S
H1377 C1385 0.950 . S
H1378 C1383 0.950 . S
H1379 C1384 0.949 . S
H1380 C1386 0.950 . S
H1381 C1387 0.950 . S
H1382 C1388 0.949 . S
C1383 H1378 0.950 . S
C1383 C1385 1.327 . S
C1383 C1389 1.429 . S
C1384 C1376 1.574 1_554 S
C1384 H1379 0.949 . S
C1384 C1390 1.368 . S
C1385 C1369 1.349 . S
C1385 H1377 0.950 . S
C1385 C1383 1.327 . S
C1386 C1374 1.349 . S
C1386 H1380 0.950 . S
C1386 C1387 1.327 . S
C1387 H1381 0.950 . S
C1387 C1386 1.327 . S
C1387 C1391 1.429 . S
C1388 C1371 1.574 1_556 S
C1388 H1382 0.949 . S
C1388 C1392 1.368 . S
C1389 C1370 1.429 . S
C1389 C1383 1.429 . S
C1389 C1390 1.523 . S
C1390 C1371 1.368 1_655 S
C1390 C1384 1.368 . S
C1390 C1389 1.523 . S
C1391 C1375 1.429 . S
C1391 C1387 1.429 . S
C1391 C1392 1.523 . S
C1392 C1376 1.368 1_455 S
C1392 C1388 1.368 . S
C1392 C1391 1.523 . S
H1393 C1368 0.950 . S
H1394 C1370 0.950 . S
H1395 C1371 0.949 . S
H1396 C1373 0.950 . S
H1397 C1375 0.950 . S
C1398 C1399 1.349 . S
C1398 C1400 1.327 . S
C1398 H1423 0.950 . S
C1399 C1398 1.349 . S
C1399 C1415 1.349 . S
C1400 C1398 1.327 . S
C1400 C1419 1.429 . S
C1400 H1424 0.950 . S
C1401 C1418 1.574 . S
C1401 C1420 1.368 . S
C1401 H1425 0.949 . S
H1402 C1406 0.949 . S
C1403 C1404 1.349 . S
C1403 C1405 1.327 . S
C1403 H1426 0.950 . S
C1404 C1403 1.349 . S
C1404 C1416 1.349 . S
C1405 C1403 1.327 . S
C1405 C1421 1.429 . S
C1405 H1427 0.950 . S
C1406 H1402 0.949 . S
C1406 C1414 1.574 . S
C1406 C1422 1.368 . S
H1407 C1415 0.950 . S
H1408 C1413 0.950 . S
H1409 C1414 0.949 . S
H1410 C1416 0.950 . S
H1411 C1417 0.950 . S
H1412 C1418 0.949 . S
C1413 H1408 0.950 . S
C1413 C1415 1.327 . S
C1413 C1419 1.429 . S
C1414 C1406 1.574 . S
C1414 H1409 0.949 . S
C1414 C1420 1.368 . S
C1415 C1399 1.349 . S
C1415 H1407 0.950 . S
C1415 C1413 1.327 . S
C1416 C1404 1.349 . S
C1416 H1410 0.950 . S
C1416 C1417 1.327 . S
C1417 H1411 0.950 . S
C1417 C1416 1.327 . S
C1417 C1421 1.429 . S
C1418 C1401 1.574 . S
C1418 H1412 0.949 . S
C1418 C1422 1.368 . S
C1419 C1400 1.429 . S
C1419 C1413 1.429 . S
C1419 C1420 1.523 . S
C1420 C1401 1.368 . S
C1420 C1414 1.368 . S
C1420 C1419 1.523 . S
C1421 C1405 1.429 . S
C1421 C1417 1.429 . S
C1421 C1422 1.523 . S
C1422 C1406 1.368 . S
C1422 C1418 1.368 . S
C1422 C1421 1.523 . S
H1423 C1398 0.950 . S
H1424 C1400 0.950 . S
H1425 C1401 0.949 . S
H1426 C1403 0.950 . S
H1427 C1405 0.950 . S
C1428 C1429 1.349 . S
C1428 C1430 1.327 . S
C1428 H1453 0.950 . S
C1429 C1428 1.349 . S
C1429 C1445 1.349 . S
C1430 C1428 1.327 . S
C1430 C1449 1.429 . S
C1430 H1454 0.950 . S
C1431 C1448 1.574 . S
C1431 C1450 1.368 1_655 S
C1431 H1455 0.949 . S
H1432 C1436 0.949 . S
C1433 C1434 1.349 . S
C1433 C1435 1.327 . S
C1433 H1456 0.950 . S
C1434 C1433 1.349 . S
C1434 C1446 1.349 . S
C1435 C1433 1.327 . S
C1435 C1451 1.429 . S
C1435 H1457 0.950 . S
C1436 H1432 0.949 . S
C1436 C1444 1.574 . S
C1436 C1452 1.368 1_455 S
H1437 C1445 0.950 . S
H1438 C1443 0.950 . S
H1439 C1444 0.949 . S
H1440 C1446 0.950 . S
H1441 C1447 0.950 . S
H1442 C1448 0.949 . S
C1443 H1438 0.950 . S
C1443 C1445 1.327 . S
C1443 C1449 1.429 . S
C1444 C1436 1.574 . S
C1444 H1439 0.949 . S
C1444 C1450 1.368 . S
C1445 C1429 1.349 . S
C1445 H1437 0.950 . S
C1445 C1443 1.327 . S
C1446 C1434 1.349 . S
C1446 H1440 0.950 . S
C1446 C1447 1.327 . S
C1447 H1441 0.950 . S
C1447 C1446 1.327 . S
C1447 C1451 1.429 . S
C1448 C1431 1.574 . S
C1448 H1442 0.949 . S
C1448 C1452 1.368 . S
C1449 C1430 1.429 . S
C1449 C1443 1.429 . S
C1449 C1450 1.523 . S
C1450 C1431 1.368 1_455 S
C1450 C1444 1.368 . S
C1450 C1449 1.523 . S
C1451 C1435 1.429 . S
C1451 C1447 1.429 . S
C1451 C1452 1.523 . S
C1452 C1436 1.368 1_655 S
C1452 C1448 1.368 . S
C1452 C1451 1.523 . S
H1453 C1428 0.950 . S
H1454 C1430 0.950 . S
H1455 C1431 0.949 . S
H1456 C1433 0.950 . S
H1457 C1435 0.950 . S
C1458 C1459 1.349 . S
C1458 C1460 1.327 . S
C1458 H1483 0.950 . S
C1459 C1458 1.349 . S
C1459 C1475 1.349 . S
C1460 C1458 1.327 . S
C1460 C1479 1.429 . S
C1460 H1484 0.950 . S
C1461 C1478 1.574 . S
C1461 C1480 1.368 . S
C1461 H1485 0.949 . S
H1462 C1466 0.949 . S
C1463 C1464 1.349 . S
C1463 C1465 1.327 . S
C1463 H1486 0.950 . S
C1464 C1463 1.349 . S
C1464 C1476 1.349 . S
C1465 C1463 1.327 . S
C1465 C1481 1.429 . S
C1465 H1487 0.950 . S
C1466 H1462 0.949 . S
C1466 C1474 1.574 . S
C1466 C1482 1.368 . S
H1467 C1475 0.950 . S
H1468 C1473 0.950 . S
H1469 C1474 0.949 . S
H1470 C1476 0.950 . S
H1471 C1477 0.950 . S
H1472 C1478 0.949 . S
C1473 H1468 0.950 . S
C1473 C1475 1.327 . S
C1473 C1479 1.429 . S
C1474 C1466 1.574 . S
C1474 H1469 0.949 . S
C1474 C1480 1.368 . S
C1475 C1459 1.349 . S
C1475 H1467 0.950 . S
C1475 C1473 1.327 . S
C1476 C1464 1.349 . S
C1476 H1470 0.950 . S
C1476 C1477 1.327 . S
C1477 H1471 0.950 . S
C1477 C1476 1.327 . S
C1477 C1481 1.429 . S
C1478 C1461 1.574 . S
C1478 H1472 0.949 . S
C1478 C1482 1.368 . S
C1479 C1460 1.429 . S
C1479 C1473 1.429 . S
C1479 C1480 1.523 . S
C1480 C1461 1.368 . S
C1480 C1474 1.368 . S
C1480 C1479 1.523 . S
C1481 C1465 1.429 . S
C1481 C1477 1.429 . S
C1481 C1482 1.523 . S
C1482 C1466 1.368 . S
C1482 C1478 1.368 . S
C1482 C1481 1.523 . S
H1483 C1458 0.950 . S
H1484 C1460 0.950 . S
H1485 C1461 0.949 . S
H1486 C1463 0.950 . S
H1487 C1465 0.950 . S
C1488 C1489 1.349 . S
C1488 C1490 1.327 . S
C1488 H1513 0.950 . S
C1489 C1488 1.349 . S
C1489 C1505 1.349 . S
C1490 C1488 1.327 . S
C1490 C1509 1.429 . S
C1490 H1514 0.950 . S
C1491 C1508 1.574 1_655 S
C1491 C1510 1.368 . S
C1491 H1515 0.949 . S
H1492 C1496 0.949 . S
C1493 C1494 1.349 . S
C1493 C1495 1.327 . S
C1493 H1516 0.950 . S
C1494 C1493 1.349 . S
C1494 C1506 1.349 . S
C1495 C1493 1.327 . S
C1495 C1511 1.429 . S
C1495 H1517 0.950 . S
C1496 H1492 0.949 . S
C1496 C1504 1.574 1_455 S
C1496 C1512 1.368 . S
H1497 C1505 0.950 . S
H1498 C1503 0.950 . S
H1499 C1504 0.949 . S
H1500 C1506 0.950 . S
H1501 C1507 0.950 . S
H1502 C1508 0.949 . S
C1503 H1498 0.950 . S
C1503 C1505 1.327 . S
C1503 C1509 1.429 . S
C1504 C1496 1.574 1_655 S
C1504 H1499 0.949 . S
C1504 C1510 1.368 1_545 S
C1505 C1489 1.349 . S
C1505 H1497 0.950 . S
C1505 C1503 1.327 . S
C1506 C1494 1.349 . S
C1506 H1500 0.950 . S
C1506 C1507 1.327 . S
C1507 H1501 0.950 . S
C1507 C1506 1.327 . S
C1507 C1511 1.429 . S
C1508 C1491 1.574 1_455 S
C1508 H1502 0.949 . S
C1508 C1512 1.368 1_565 S
C1509 C1490 1.429 . S
C1509 C1503 1.429 . S
C1509 C1510 1.523 . S
C1510 C1491 1.368 . S
C1510 C1504 1.368 1_565 S
C1510 C1509 1.523 . S
C1511 C1495 1.429 . S
C1511 C1507 1.429 . S
C1511 C1512 1.523 . S
C1512 C1496 1.368 . S
C1512 C1508 1.368 1_545 S
C1512 C1511 1.523 . S
H1513 C1488 0.950 . S
H1514 C1490 0.950 . S
H1515 C1491 0.949 . S
H1516 C1493 0.950 . S
H1517 C1495 0.950 . S
C1518 C1519 1.349 . S
C1518 C1520 1.327 . S
C1518 H1543 0.950 . S
C1519 C1518 1.349 . S
C1519 C1535 1.349 . S
C1520 C1518 1.327 . S
C1520 C1539 1.429 . S
C1520 H1544 0.950 . S
C1521 C1538 1.574 . S
C1521 C1540 1.368 . S
C1521 H1545 0.949 . S
H1522 C1526 0.949 . S
C1523 C1524 1.349 . S
C1523 C1525 1.327 . S
C1523 H1546 0.950 . S
C1524 C1523 1.349 . S
C1524 C1536 1.349 . S
C1525 C1523 1.327 . S
C1525 C1541 1.429 . S
C1525 H1547 0.950 . S
C1526 H1522 0.949 . S
C1526 C1534 1.574 . S
C1526 C1542 1.368 . S
H1527 C1535 0.950 . S
H1528 C1533 0.950 . S
H1529 C1534 0.949 . S
H1530 C1536 0.950 . S
H1531 C1537 0.950 . S
H1532 C1538 0.949 . S
C1533 H1528 0.950 . S
C1533 C1535 1.327 . S
C1533 C1539 1.429 . S
C1534 C1526 1.574 . S
C1534 H1529 0.949 . S
C1534 C1540 1.368 . S
C1535 C1519 1.349 . S
C1535 H1527 0.950 . S
C1535 C1533 1.327 . S
C1536 C1524 1.349 . S
C1536 H1530 0.950 . S
C1536 C1537 1.327 . S
C1537 H1531 0.950 . S
C1537 C1536 1.327 . S
C1537 C1541 1.429 . S
C1538 C1521 1.574 . S
C1538 H1532 0.949 . S
C1538 C1542 1.368 . S
C1539 C1520 1.429 . S
C1539 C1533 1.429 . S
C1539 C1540 1.523 . S
C1540 C1521 1.368 . S
C1540 C1534 1.368 . S
C1540 C1539 1.523 . S
C1541 C1525 1.429 . S
C1541 C1537 1.429 . S
C1541 C1542 1.523 . S
C1542 C1526 1.368 . S
C1542 C1538 1.368 . S
C1542 C1541 1.523 . S
H1543 C1518 0.950 . S
H1544 C1520 0.950 . S
H1545 C1521 0.949 . S
H1546 C1523 0.950 . S
H1547 C1525 0.950 . S
C1548 C1549 1.349 . S
C1548 C1550 1.327 . S
C1548 H1573 0.950 . S
C1549 C1548 1.349 . S
C1549 C1565 1.349 . S
C1550 C1548 1.327 . S
C1550 C1569 1.429 . S
C1550 H1574 0.950 . S
C1551 C1568 1.574 1_655 S
C1551 C1570 1.368 . S
C1551 H1575 0.949 . S
H1552 C1556 0.949 . S
C1553 C1554 1.349 . S
C1553 C1555 1.327 . S
C1553 H1576 0.950 . S
C1554 C1553 1.349 . S
C1554 C1566 1.349 . S
C1555 C1553 1.327 . S
C1555 C1571 1.429 . S
C1555 H1577 0.950 . S
C1556 H1552 0.949 . S
C1556 C1564 1.574 1_455 S
C1556 C1572 1.368 . S
H1557 C1565 0.950 . S
H1558 C1563 0.950 . S
H1559 C1564 0.949 . S
H1560 C1566 0.950 . S
H1561 C1567 0.950 . S
H1562 C1568 0.949 . S
C1563 H1558 0.950 . S
C1563 C1565 1.327 . S
C1563 C1569 1.429 . S
C1564 C1556 1.574 1_655 S
C1564 H1559 0.949 . S
C1564 C1570 1.368 . S
C1565 C1549 1.349 . S
C1565 H1557 0.950 . S
C1565 C1563 1.327 . S
C1566 C1554 1.349 . S
C1566 H1560 0.950 . S
C1566 C1567 1.327 . S
C1567 H1561 0.950 . S
C1567 C1566 1.327 . S
C1567 C1571 1.429 . S
C1568 C1551 1.574 1_455 S
C1568 H1562 0.949 . S
C1568 C1572 1.368 . S
C1569 C1550 1.429 . S
C1569 C1563 1.429 . S
C1569 C1570 1.523 . S
C1570 C1551 1.368 . S
C1570 C1564 1.368 . S
C1570 C1569 1.523 . S
C1571 C1555 1.429 . S
C1571 C1567 1.429 . S
C1571 C1572 1.523 . S
C1572 C1556 1.368 . S
C1572 C1568 1.368 . S
C1572 C1571 1.523 . S
H1573 C1548 0.950 . S
H1574 C1550 0.950 . S
H1575 C1551 0.949 . S
H1576 C1553 0.950 . S
H1577 C1555 0.950 . S
C1578 C1579 1.349 . S
C1578 C1580 1.327 . S
C1578 H1603 0.950 . S
C1579 C1578 1.349 . S
C1579 C1595 1.349 . S
C1580 C1578 1.327 . S
C1580 C1599 1.429 . S
C1580 H1604 0.950 . S
C1581 C1598 1.574 . S
C1581 C1600 1.368 . S
C1581 H1605 0.949 . S
H1582 C1586 0.949 . S
C1583 C1584 1.349 . S
C1583 C1585 1.327 . S
C1583 H1606 0.950 . S
C1584 C1583 1.349 . S
C1584 C1596 1.349 . S
C1585 C1583 1.327 . S
C1585 C1601 1.429 . S
C1585 H1607 0.950 . S
C1586 H1582 0.949 . S
C1586 C1594 1.574 . S
C1586 C1602 1.368 . S
H1587 C1595 0.950 . S
H1588 C1593 0.950 . S
H1589 C1594 0.949 . S
H1590 C1596 0.950 . S
H1591 C1597 0.950 . S
H1592 C1598 0.949 . S
C1593 H1588 0.950 . S
C1593 C1595 1.327 . S
C1593 C1599 1.429 . S
C1594 C1586 1.574 . S
C1594 H1589 0.949 . S
C1594 C1600 1.368 . S
C1595 C1579 1.349 . S
C1595 H1587 0.950 . S
C1595 C1593 1.327 . S
C1596 C1584 1.349 . S
C1596 H1590 0.950 . S
C1596 C1597 1.327 . S
C1597 H1591 0.950 . S
C1597 C1596 1.327 . S
C1597 C1601 1.429 . S
C1598 C1581 1.574 . S
C1598 H1592 0.949 . S
C1598 C1602 1.368 . S
C1599 C1580 1.429 . S
C1599 C1593 1.429 . S
C1599 C1600 1.523 . S
C1600 C1581 1.368 . S
C1600 C1594 1.368 . S
C1600 C1599 1.523 . S
C1601 C1585 1.429 . S
C1601 C1597 1.429 . S
C1601 C1602 1.523 . S
C1602 C1586 1.368 . S
C1602 C1598 1.368 . S
C1602 C1601 1.523 . S
H1603 C1578 0.950 . S
H1604 C1580 0.950 . S
H1605 C1581 0.949 . S
H1606 C1583 0.950 . S
H1607 C1585 0.950 . S
C1608 C1609 1.349 . S
C1608 C1610 1.327 . S
C1608 H1633 0.950 . S
C1609 C1608 1.349 . S
C1609 C1625 1.349 . S
C1610 C1608 1.327 . S
C1610 C1629 1.429 . S
C1610 H1634 0.950 . S
C1611 C1628 1.574 1_455 S
C1611 C1630 1.368 . S
C1611 H1635 0.949 . S
H1612 C1616 0.949 . S
C1613 C1614 1.349 . S
C1613 C1615 1.327 . S
C1613 H1636 0.950 . S
C1614 C1613 1.349 . S
C1614 C1626 1.349 . S
C1615 C1613 1.327 . S
C1615 C1631 1.429 . S
C1615 H1637 0.950 . S
C1616 H1612 0.949 . S
C1616 C1624 1.574 1_655 S
C1616 C1632 1.368 . S
H1617 C1625 0.950 . S
H1618 C1623 0.950 . S
H1619 C1624 0.949 . S
H1620 C1626 0.950 . S
H1621 C1627 0.950 . S
H1622 C1628 0.949 . S
C1623 H1618 0.950 . S
C1623 C1625 1.327 . S
C1623 C1629 1.429 . S
C1624 C1616 1.574 1_455 S
C1624 H1619 0.949 . S
C1624 C1630 1.368 1_545 S
C1625 C1609 1.349 . S
C1625 H1617 0.950 . S
C1625 C1623 1.327 . S
C1626 C1614 1.349 . S
C1626 H1620 0.950 . S
C1626 C1627 1.327 . S
C1627 H1621 0.950 . S
C1627 C1626 1.327 . S
C1627 C1631 1.429 . S
C1628 C1611 1.574 1_655 S
C1628 H1622 0.949 . S
C1628 C1632 1.368 1_565 S
C1629 C1610 1.429 . S
C1629 C1623 1.429 . S
C1629 C1630 1.523 . S
C1630 C1611 1.368 . S
C1630 C1624 1.368 1_565 S
C1630 C1629 1.523 . S
C1631 C1615 1.429 . S
C1631 C1627 1.429 . S
C1631 C1632 1.523 . S
C1632 C1616 1.368 . S
C1632 C1628 1.368 1_545 S
C1632 C1631 1.523 . S
H1633 C1608 0.950 . S
H1634 C1610 0.950 . S
H1635 C1611 0.949 . S
H1636 C1613 0.950 . S
H1637 C1615 0.950 . S
C1638 C1639 1.349 . S
C1638 C1640 1.327 . S
C1638 H1663 0.950 . S
C1639 C1638 1.349 . S
C1639 C1655 1.349 . S
C1640 C1638 1.327 . S
C1640 C1659 1.429 . S
C1640 H1664 0.950 . S
C1641 C1658 1.574 . S
C1641 C1660 1.368 . S
C1641 H1665 0.949 . S
H1642 C1646 0.949 . S
C1643 C1644 1.349 . S
C1643 C1645 1.327 . S
C1643 H1666 0.950 . S
C1644 C1643 1.349 . S
C1644 C1656 1.349 . S
C1645 C1643 1.327 . S
C1645 C1661 1.429 . S
C1645 H1667 0.950 . S
C1646 H1642 0.949 . S
C1646 C1654 1.574 . S
C1646 C1662 1.368 . S
H1647 C1655 0.950 . S
H1648 C1653 0.950 . S
H1649 C1654 0.949 . S
H1650 C1656 0.950 . S
H1651 C1657 0.950 . S
H1652 C1658 0.949 . S
C1653 H1648 0.950 . S
C1653 C1655 1.327 . S
C1653 C1659 1.429 . S
C1654 C1646 1.574 . S
C1654 H1649 0.949 . S
C1654 C1660 1.368 . S
C1655 C1639 1.349 . S
C1655 H1647 0.950 . S
C1655 C1653 1.327 . S
C1656 C1644 1.349 . S
C1656 H1650 0.950 . S
C1656 C1657 1.327 . S
C1657 H1651 0.950 . S
C1657 C1656 1.327 . S
C1657 C1661 1.429 . S
C1658 C1641 1.574 . S
C1658 H1652 0.949 . S
C1658 C1662 1.368 . S
C1659 C1640 1.429 . S
C1659 C1653 1.429 . S
C1659 C1660 1.523 . S
C1660 C1641 1.368 . S
C1660 C1654 1.368 . S
C1660 C1659 1.523 . S
C1661 C1645 1.429 . S
C1661 C1657 1.429 . S
C1661 C1662 1.523 . S
C1662 C1646 1.368 . S
C1662 C1658 1.368 . S
C1662 C1661 1.523 . S
H1663 C1638 0.950 . S
H1664 C1640 0.950 . S
H1665 C1641 0.949 . S
H1666 C1643 0.950 . S
H1667 C1645 0.950 . S
C1668 C1669 1.349 . S
C1668 C1670 1.327 . S
C1668 H1693 0.950 . S
C1669 C1668 1.349 . S
C1669 C1685 1.349 . S
C1670 C1668 1.327 . S
C1670 C1689 1.429 . S
C1670 H1694 0.950 . S
C1671 C1688 1.574 1_455 S
C1671 C1690 1.368 . S
C1671 H1695 0.949 . S
H1672 C1676 0.949 . S
C1673 C1674 1.349 . S
C1673 C1675 1.327 . S
C1673 H1696 0.950 . S
C1674 C1673 1.349 . S
C1674 C1686 1.349 . S
C1675 C1673 1.327 . S
C1675 C1691 1.429 . S
C1675 H1697 0.950 . S
C1676 H1672 0.949 . S
C1676 C1684 1.574 1_655 S
C1676 C1692 1.368 . S
H1677 C1685 0.950 . S
H1678 C1683 0.950 . S
H1679 C1684 0.949 . S
H1680 C1686 0.950 . S
H1681 C1687 0.950 . S
H1682 C1688 0.949 . S
C1683 H1678 0.950 . S
C1683 C1685 1.327 . S
C1683 C1689 1.429 . S
C1684 C1676 1.574 1_455 S
C1684 H1679 0.949 . S
C1684 C1690 1.368 . S
C1685 C1669 1.349 . S
C1685 H1677 0.950 . S
C1685 C1683 1.327 . S
C1686 C1674 1.349 . S
C1686 H1680 0.950 . S
C1686 C1687 1.327 . S
C1687 H1681 0.950 . S
C1687 C1686 1.327 . S
C1687 C1691 1.429 . S
C1688 C1671 1.574 1_655 S
C1688 H1682 0.949 . S
C1688 C1692 1.368 . S
C1689 C1670 1.429 . S
C1689 C1683 1.429 . S
C1689 C1690 1.523 . S
C1690 C1671 1.368 . S
C1690 C1684 1.368 . S
C1690 C1689 1.523 . S
C1691 C1675 1.429 . S
C1691 C1687 1.429 . S
C1691 C1692 1.523 . S
C1692 C1676 1.368 . S
C1692 C1688 1.368 . S
C1692 C1691 1.523 . S
H1693 C1668 0.950 . S
H1694 C1670 0.950 . S
H1695 C1671 0.949 . S
H1696 C1673 0.950 . S
H1697 C1675 0.950 . S
C1698 C1699 1.349 . S
C1698 C1700 1.327 . S
C1698 H1723 0.950 . S
C1699 C1698 1.349 . S
C1699 C1715 1.349 . S
C1700 C1698 1.327 . S
C1700 C1719 1.429 . S
C1700 H1724 0.950 . S
C1701 C1718 1.574 . S
C1701 C1720 1.368 . S
C1701 H1725 0.949 . S
H1702 C1706 0.949 . S
C1703 C1704 1.349 . S
C1703 C1705 1.327 . S
C1703 H1726 0.950 . S
C1704 C1703 1.349 . S
C1704 C1716 1.349 . S
C1705 C1703 1.327 . S
C1705 C1721 1.429 . S
C1705 H1727 0.950 . S
C1706 H1702 0.949 . S
C1706 C1714 1.574 . S
C1706 C1722 1.368 . S
H1707 C1715 0.950 . S
H1708 C1713 0.950 . S
H1709 C1714 0.949 . S
H1710 C1716 0.950 . S
H1711 C1717 0.950 . S
H1712 C1718 0.949 . S
C1713 H1708 0.950 . S
C1713 C1715 1.327 . S
C1713 C1719 1.429 . S
C1714 C1706 1.574 . S
C1714 H1709 0.949 . S
C1714 C1720 1.368 . S
C1715 C1699 1.349 . S
C1715 H1707 0.950 . S
C1715 C1713 1.327 . S
C1716 C1704 1.349 . S
C1716 H1710 0.950 . S
C1716 C1717 1.327 . S
C1717 H1711 0.950 . S
C1717 C1716 1.327 . S
C1717 C1721 1.429 . S
C1718 C1701 1.574 . S
C1718 H1712 0.949 . S
C1718 C1722 1.368 . S
C1719 C1700 1.429 . S
C1719 C1713 1.429 . S
C1719 C1720 1.523 . S
C1720 C1701 1.368 . S
C1720 C1714 1.368 . S
C1720 C1719 1.523 . S
C1721 C1705 1.429 . S
C1721 C1717 1.429 . S
C1721 C1722 1.523 . S
C1722 C1706 1.368 . S
C1722 C1718 1.368 . S
C1722 C1721 1.523 . S
H1723 C1698 0.950 . S
H1724 C1700 0.950 . S
H1725 C1701 0.949 . S
H1726 C1703 0.950 . S
H1727 C1705 0.950 . S
C1728 C1729 1.349 . S
C1728 C1730 1.327 . S
C1728 H1753 0.950 . S
C1729 C1728 1.349 . S
C1729 C1745 1.349 . S
C1730 C1728 1.327 . S
C1730 C1749 1.429 . S
C1730 H1754 0.950 . S
C1731 C1748 1.566 1_565 S
C1731 C1750 1.368 1_554 S
C1731 H1755 0.949 . S
H1732 C1736 0.949 . S
C1733 C1734 1.349 . S
C1733 C1735 1.327 . S
C1733 H1756 0.950 . S
C1734 C1733 1.349 . S
C1734 C1746 1.349 . S
C1735 C1733 1.327 . S
C1735 C1751 1.429 . S
C1735 H1757 0.950 . S
C1736 H1732 0.949 . S
C1736 C1744 1.566 1_545 S
C1736 C1752 1.368 1_556 S
H1737 C1745 0.950 . S
H1738 C1743 0.950 . S
H1739 C1744 0.948 . S
H1740 C1746 0.950 . S
H1741 C1747 0.950 . S
H1742 C1748 0.948 . S
C1743 H1738 0.950 . S
C1743 C1745 1.327 . S
C1743 C1749 1.429 . S
C1744 C1736 1.566 1_565 S
C1744 H1739 0.948 . S
C1744 C1750 1.376 . S
C1745 C1729 1.349 . S
C1745 H1737 0.950 . S
C1745 C1743 1.327 . S
C1746 C1734 1.349 . S
C1746 H1740 0.950 . S
C1746 C1747 1.327 . S
C1747 H1741 0.950 . S
C1747 C1746 1.327 . S
C1747 C1751 1.429 . S
C1748 C1731 1.566 1_545 S
C1748 H1742 0.948 . S
C1748 C1752 1.376 . S
C1749 C1730 1.429 . S
C1749 C1743 1.429 . S
C1749 C1750 1.523 . S
C1750 C1731 1.368 1_556 S
C1750 C1744 1.376 . S
C1750 C1749 1.523 . S
C1751 C1735 1.429 . S
C1751 C1747 1.429 . S
C1751 C1752 1.523 . S
C1752 C1736 1.368 1_554 S
C1752 C1748 1.376 . S
C1752 C1751 1.523 . S
H1753 C1728 0.950 . S
H1754 C1730 0.950 . S
H1755 C1731 0.949 . S
H1756 C1733 0.950 . S
H1757 C1735 0.950 . S
C1758 C1759 1.349 . S
C1758 C1760 1.327 . S
C1758 H1783 0.950 . S
C1759 C1758 1.349 . S
C1759 C1775 1.349 . S
C1760 C1758 1.327 . S
C1760 C1779 1.429 . S
C1760 H1784 0.950 . S
C1761 C1778 1.574 1_545 S
C1761 C1780 1.368 . S
C1761 H1785 0.949 . S
H1762 C1766 0.949 . S
C1763 C1764 1.349 . S
C1763 C1765 1.327 . S
C1763 H1786 0.950 . S
C1764 C1763 1.349 . S
C1764 C1776 1.349 . S
C1765 C1763 1.327 . S
C1765 C1781 1.429 . S
C1765 H1787 0.950 . S
C1766 H1762 0.949 . S
C1766 C1774 1.574 1_565 S
C1766 C1782 1.368 . S
H1767 C1775 0.950 . S
H1768 C1773 0.950 . S
H1769 C1774 0.949 . S
H1770 C1776 0.950 . S
H1771 C1777 0.950 . S
H1772 C1778 0.949 . S
C1773 H1768 0.950 . S
C1773 C1775 1.327 . S
C1773 C1779 1.429 . S
C1774 C1766 1.574 1_545 S
C1774 H1769 0.949 . S
C1774 C1780 1.368 . S
C1775 C1759 1.349 . S
C1775 H1767 0.950 . S
C1775 C1773 1.327 . S
C1776 C1764 1.349 . S
C1776 H1770 0.950 . S
C1776 C1777 1.327 . S
C1777 H1771 0.950 . S
C1777 C1776 1.327 . S
C1777 C1781 1.429 . S
C1778 C1761 1.574 1_565 S
C1778 H1772 0.949 . S
C1778 C1782 1.368 . S
C1779 C1760 1.429 . S
C1779 C1773 1.429 . S
C1779 C1780 1.523 . S
C1780 C1761 1.368 . S
C1780 C1774 1.368 . S
C1780 C1779 1.523 . S
C1781 C1765 1.429 . S
C1781 C1777 1.429 . S
C1781 C1782 1.523 . S
C1782 C1766 1.368 . S
C1782 C1778 1.368 . S
C1782 C1781 1.523 . S
H1783 C1758 0.950 . S
H1784 C1760 0.950 . S
H1785 C1761 0.949 . S
H1786 C1763 0.950 . S
H1787 C1765 0.950 . S
C1788 C1789 1.349 . S
C1788 C1790 1.327 . S
C1788 H1813 0.950 . S
C1789 C1788 1.349 . S
C1789 C1805 1.349 . S
C1790 C1788 1.327 . S
C1790 C1809 1.429 . S
C1790 H1814 0.950 . S
C1791 C1808 1.574 . S
C1791 C1810 1.368 . S
C1791 H1815 0.949 . S
H1792 C1796 0.949 . S
C1793 C1794 1.349 . S
C1793 C1795 1.327 . S
C1793 H1816 0.950 . S
C1794 C1793 1.349 . S
C1794 C1806 1.349 . S
C1795 C1793 1.327 . S
C1795 C1811 1.429 . S
C1795 H1817 0.950 . S
C1796 H1792 0.949 . S
C1796 C1804 1.574 . S
C1796 C1812 1.368 . S
H1797 C1805 0.950 . S
H1798 C1803 0.950 . S
H1799 C1804 0.949 . S
H1800 C1806 0.950 . S
H1801 C1807 0.950 . S
H1802 C1808 0.949 . S
C1803 H1798 0.950 . S
C1803 C1805 1.327 . S
C1803 C1809 1.429 . S
C1804 C1796 1.574 . S
C1804 H1799 0.949 . S
C1804 C1810 1.368 . S
C1805 C1789 1.349 . S
C1805 H1797 0.950 . S
C1805 C1803 1.327 . S
C1806 C1794 1.349 . S
C1806 H1800 0.950 . S
C1806 C1807 1.327 . S
C1807 H1801 0.950 . S
C1807 C1806 1.327 . S
C1807 C1811 1.429 . S
C1808 C1791 1.574 . S
C1808 H1802 0.949 . S
C1808 C1812 1.368 . S
C1809 C1790 1.429 . S
C1809 C1803 1.429 . S
C1809 C1810 1.523 . S
C1810 C1791 1.368 . S
C1810 C1804 1.368 . S
C1810 C1809 1.523 . S
C1811 C1795 1.429 . S
C1811 C1807 1.429 . S
C1811 C1812 1.523 . S
C1812 C1796 1.368 . S
C1812 C1808 1.368 . S
C1812 C1811 1.523 . S
H1813 C1788 0.950 . S
H1814 C1790 0.950 . S
H1815 C1791 0.949 . S
H1816 C1793 0.950 . S
H1817 C1795 0.950 . S
C1818 C1819 1.349 . S
C1818 C1820 1.327 . S
C1818 H1843 0.950 . S
C1819 C1818 1.349 . S
C1819 C1835 1.349 . S
C1820 C1818 1.327 . S
C1820 C1839 1.429 . S
C1820 H1844 0.950 . S
C1821 C1838 1.611 . S
C1821 C1840 1.368 . S
C1821 H1845 0.949 . S
H1822 C1826 0.949 . S
C1823 C1824 1.349 . S
C1823 C1825 1.327 . S
C1823 H1846 0.950 . S
C1824 C1823 1.349 . S
C1824 C1836 1.349 . S
C1825 C1823 1.327 . S
C1825 C1841 1.429 . S
C1825 H1847 0.950 . S
C1826 H1822 0.949 . S
C1826 C1834 1.611 . S
C1826 C1842 1.368 . S
H1827 C1835 0.950 . S
H1828 C1833 0.950 . S
H1829 C1834 0.953 . S
H1830 C1836 0.950 . S
H1831 C1837 0.950 . S
H1832 C1838 0.953 . S
C1833 H1828 0.950 . S
C1833 C1835 1.327 . S
C1833 C1839 1.429 . S
C1834 C1826 1.611 . S
C1834 H1829 0.953 . S
C1834 C1840 1.331 1_556 S
C1835 C1819 1.349 . S
C1835 H1827 0.950 . S
C1835 C1833 1.327 . S
C1836 C1824 1.349 . S
C1836 H1830 0.950 . S
C1836 C1837 1.327 . S
C1837 H1831 0.950 . S
C1837 C1836 1.327 . S
C1837 C1841 1.429 . S
C1838 C1821 1.611 . S
C1838 H1832 0.953 . S
C1838 C1842 1.331 1_554 S
C1839 C1820 1.429 . S
C1839 C1833 1.429 . S
C1839 C1840 1.523 . S
C1840 C1821 1.368 . S
C1840 C1834 1.331 1_554 S
C1840 C1839 1.523 . S
C1841 C1825 1.429 . S
C1841 C1837 1.429 . S
C1841 C1842 1.523 . S
C1842 C1826 1.368 . S
C1842 C1838 1.331 1_556 S
C1842 C1841 1.523 . S
H1843 C1818 0.950 . S
H1844 C1820 0.950 . S
H1845 C1821 0.949 . S
H1846 C1823 0.950 . S
H1847 C1825 0.950 . S
C1848 C1849 1.349 . S
C1848 C1850 1.327 . S
C1848 H1873 0.950 . S
C1849 C1848 1.349 . S
C1849 C1865 1.349 . S
C1850 C1848 1.327 . S
C1850 C1869 1.429 . S
C1850 H1874 0.950 . S
C1851 C1868 1.574 . S
C1851 C1870 1.368 . S
C1851 H1875 0.949 . S
H1852 C1856 0.949 . S
C1853 C1854 1.349 . S
C1853 C1855 1.327 . S
C1853 H1876 0.950 . S
C1854 C1853 1.349 . S
C1854 C1866 1.349 . S
C1855 C1853 1.327 . S
C1855 C1871 1.429 . S
C1855 H1877 0.950 . S
C1856 H1852 0.949 . S
C1856 C1864 1.574 . S
C1856 C1872 1.368 . S
H1857 C1865 0.950 . S
H1858 C1863 0.950 . S
H1859 C1864 0.949 . S
H1860 C1866 0.950 . S
H1861 C1867 0.950 . S
H1862 C1868 0.949 . S
C1863 H1858 0.950 . S
C1863 C1865 1.327 . S
C1863 C1869 1.429 . S
C1864 C1856 1.574 . S
C1864 H1859 0.949 . S
C1864 C1870 1.368 . S
C1865 C1849 1.349 . S
C1865 H1857 0.950 . S
C1865 C1863 1.327 . S
C1866 C1854 1.349 . S
C1866 H1860 0.950 . S
C1866 C1867 1.327 . S
C1867 H1861 0.950 . S
C1867 C1866 1.327 . S
C1867 C1871 1.429 . S
C1868 C1851 1.574 . S
C1868 H1862 0.949 . S
C1868 C1872 1.368 . S
C1869 C1850 1.429 . S
C1869 C1863 1.429 . S
C1869 C1870 1.523 . S
C1870 C1851 1.368 . S
C1870 C1864 1.368 . S
C1870 C1869 1.523 . S
C1871 C1855 1.429 . S
C1871 C1867 1.429 . S
C1871 C1872 1.523 . S
C1872 C1856 1.368 . S
C1872 C1868 1.368 . S
C1872 C1871 1.523 . S
H1873 C1848 0.950 . S
H1874 C1850 0.950 . S
H1875 C1851 0.949 . S
H1876 C1853 0.950 . S
H1877 C1855 0.950 . S
C1878 C1879 1.349 . S
C1878 C1880 1.327 . S
C1878 H1903 0.950 . S
C1879 C1878 1.349 . S
C1879 C1895 1.349 . S
C1880 C1878 1.327 . S
C1880 C1899 1.429 . S
C1880 H1904 0.950 . S
C1881 C1898 1.574 1_565 S
C1881 C1900 1.368 . S
C1881 H1905 0.949 . S
H1882 C1886 0.949 . S
C1883 C1884 1.349 . S
C1883 C1885 1.327 . S
C1883 H1906 0.950 . S
C1884 C1883 1.349 . S
C1884 C1896 1.349 . S
C1885 C1883 1.327 . S
C1885 C1901 1.429 . S
C1885 H1907 0.950 . S
C1886 H1882 0.949 . S
C1886 C1894 1.574 1_545 S
C1886 C1902 1.368 . S
H1887 C1895 0.950 . S
H1888 C1893 0.950 . S
H1889 C1894 0.949 . S
H1890 C1896 0.950 . S
H1891 C1897 0.950 . S
H1892 C1898 0.949 . S
C1893 H1888 0.950 . S
C1893 C1895 1.327 . S
C1893 C1899 1.429 . S
C1894 C1886 1.574 1_565 S
C1894 H1889 0.949 . S
C1894 C1900 1.368 1_556 S
C1895 C1879 1.349 . S
C1895 H1887 0.950 . S
C1895 C1893 1.327 . S
C1896 C1884 1.349 . S
C1896 H1890 0.950 . S
C1896 C1897 1.327 . S
C1897 H1891 0.950 . S
C1897 C1896 1.327 . S
C1897 C1901 1.429 . S
C1898 C1881 1.574 1_545 S
C1898 H1892 0.949 . S
C1898 C1902 1.368 1_554 S
C1899 C1880 1.429 . S
C1899 C1893 1.429 . S
C1899 C1900 1.523 . S
C1900 C1881 1.368 . S
C1900 C1894 1.368 1_554 S
C1900 C1899 1.523 . S
C1901 C1885 1.429 . S
C1901 C1897 1.429 . S
C1901 C1902 1.523 . S
C1902 C1886 1.368 . S
C1902 C1898 1.368 1_556 S
C1902 C1901 1.523 . S
H1903 C1878 0.950 . S
H1904 C1880 0.950 . S
H1905 C1881 0.949 . S
H1906 C1883 0.950 . S
H1907 C1885 0.950 . S
C1908 C1909 1.349 . S
C1908 C1910 1.327 . S
C1908 H1933 0.950 . S
C1909 C1908 1.349 . S
C1909 C1925 1.349 . S
C1910 C1908 1.327 . S
C1910 C1929 1.429 . S
C1910 H1934 0.950 . S
C1911 C1928 1.574 . S
C1911 C1930 1.368 . S
C1911 H1935 0.949 . S
H1912 C1916 0.949 . S
C1913 C1914 1.349 . S
C1913 C1915 1.327 . S
C1913 H1936 0.950 . S
C1914 C1913 1.349 . S
C1914 C1926 1.349 . S
C1915 C1913 1.327 . S
C1915 C1931 1.429 . S
C1915 H1937 0.950 . S
C1916 H1912 0.949 . S
C1916 C1924 1.574 . S
C1916 C1932 1.368 . S
H1917 C1925 0.950 . S
H1918 C1923 0.950 . S
H1919 C1924 0.949 . S
H1920 C1926 0.950 . S
H1921 C1927 0.950 . S
H1922 C1928 0.949 . S
C1923 H1918 0.950 . S
C1923 C1925 1.327 . S
C1923 C1929 1.429 . S
C1924 C1916 1.574 . S
C1924 H1919 0.949 . S
C1924 C1930 1.368 . S
C1925 C1909 1.349 . S
C1925 H1917 0.950 . S
C1925 C1923 1.327 . S
C1926 C1914 1.349 . S
C1926 H1920 0.950 . S
C1926 C1927 1.327 . S
C1927 H1921 0.950 . S
C1927 C1926 1.327 . S
C1927 C1931 1.429 . S
C1928 C1911 1.574 . S
C1928 H1922 0.949 . S
C1928 C1932 1.368 . S
C1929 C1910 1.429 . S
C1929 C1923 1.429 . S
C1929 C1930 1.523 . S
C1930 C1911 1.368 . S
C1930 C1924 1.368 . S
C1930 C1929 1.523 . S
C1931 C1915 1.429 . S
C1931 C1927 1.429 . S
C1931 C1932 1.523 . S
C1932 C1916 1.368 . S
C1932 C1928 1.368 . S
C1932 C1931 1.523 . S
H1933 C1908 0.950 . S
H1934 C1910 0.950 . S
H1935 C1911 0.949 . S
H1936 C1913 0.950 . S
H1937 C1915 0.950 . S
C1938 C1939 1.349 . S
C1938 C1940 1.327 . S
C1938 H1963 0.950 . S
C1939 C1938 1.349 . S
C1939 C1955 1.349 . S
C1940 C1938 1.327 . S
C1940 C1959 1.429 . S
C1940 H1964 0.950 . S
C1941 C1958 1.574 . S
C1941 C1960 1.368 . S
C1941 H1965 0.949 . S
H1942 C1946 0.949 . S
C1943 C1944 1.349 . S
C1943 C1945 1.327 . S
C1943 H1966 0.950 . S
C1944 C1943 1.349 . S
C1944 C1956 1.349 . S
C1945 C1943 1.327 . S
C1945 C1961 1.429 . S
C1945 H1967 0.950 . S
C1946 H1942 0.949 . S
C1946 C1954 1.574 . S
C1946 C1962 1.368 . S
H1947 C1955 0.950 . S
H1948 C1953 0.950 . S
H1949 C1954 0.949 . S
H1950 C1956 0.950 . S
H1951 C1957 0.950 . S
H1952 C1958 0.949 . S
C1953 H1948 0.950 . S
C1953 C1955 1.327 . S
C1953 C1959 1.429 . S
C1954 C1946 1.574 . S
C1954 H1949 0.949 . S
C1954 C1960 1.368 . S
C1955 C1939 1.349 . S
C1955 H1947 0.950 . S
C1955 C1953 1.327 . S
C1956 C1944 1.349 . S
C1956 H1950 0.950 . S
C1956 C1957 1.327 . S
C1957 H1951 0.950 . S
C1957 C1956 1.327 . S
C1957 C1961 1.429 . S
C1958 C1941 1.574 . S
C1958 H1952 0.949 . S
C1958 C1962 1.368 . S
C1959 C1940 1.429 . S
C1959 C1953 1.429 . S
C1959 C1960 1.523 . S
C1960 C1941 1.368 . S
C1960 C1954 1.368 . S
C1960 C1959 1.523 . S
C1961 C1945 1.429 . S
C1961 C1957 1.429 . S
C1961 C1962 1.523 . S
C1962 C1946 1.368 . S
C1962 C1958 1.368 . S
C1962 C1961 1.523 . S
H1963 C1938 0.950 . S
H1964 C1940 0.950 . S
H1965 C1941 0.949 . S
H1966 C1943 0.950 . S
H1967 C1945 0.950 . S
C1968 C1969 1.349 . S
C1968 C1970 1.327 . S
C1968 H1993 0.950 . S
C1969 C1968 1.349 . S
C1969 C1985 1.349 . S
C1970 C1968 1.327 . S
C1970 C1989 1.429 . S
C1970 H1994 0.950 . S
C1971 C1988 1.574 . S
C1971 C1990 1.368 . S
C1971 H1995 0.949 . S
H1972 C1976 0.949 . S
C1973 C1974 1.349 . S
C1973 C1975 1.327 . S
C1973 H1996 0.950 . S
C1974 C1973 1.349 . S
C1974 C1986 1.349 . S
C1975 C1973 1.327 . S
C1975 C1991 1.429 . S
C1975 H1997 0.950 . S
C1976 H1972 0.949 . S
C1976 C1984 1.574 . S
C1976 C1992 1.368 . S
H1977 C1985 0.950 . S
H1978 C1983 0.950 . S
H1979 C1984 0.949 . S
H1980 C1986 0.950 . S
H1981 C1987 0.950 . S
H1982 C1988 0.949 . S
C1983 H1978 0.950 . S
C1983 C1985 1.327 . S
C1983 C1989 1.429 . S
C1984 C1976 1.574 . S
C1984 H1979 0.949 . S
C1984 C1990 1.368 . S
C1985 C1969 1.349 . S
C1985 H1977 0.950 . S
C1985 C1983 1.327 . S
C1986 C1974 1.349 . S
C1986 H1980 0.950 . S
C1986 C1987 1.327 . S
C1987 H1981 0.950 . S
C1987 C1986 1.327 . S
C1987 C1991 1.429 . S
C1988 C1971 1.574 . S
C1988 H1982 0.949 . S
C1988 C1992 1.368 . S
C1989 C1970 1.429 . S
C1989 C1983 1.429 . S
C1989 C1990 1.523 . S
C1990 C1971 1.368 . S
C1990 C1984 1.368 . S
C1990 C1989 1.523 . S
C1991 C1975 1.429 . S
C1991 C1987 1.429 . S
C1991 C1992 1.523 . S
C1992 C1976 1.368 . S
C1992 C1988 1.368 . S
C1992 C1991 1.523 . S
H1993 C1968 0.950 . S
H1994 C1970 0.950 . S
H1995 C1971 0.949 . S
H1996 C1973 0.950 . S
H1997 C1975 0.950 . S
C1998 C1999 1.349 . S
C1998 C2000 1.327 . S
C1998 H2023 0.950 . S
C1999 C1998 1.349 . S
C1999 C2015 1.349 . S
C2000 C1998 1.327 . S
C2000 C2019 1.429 . S
C2000 H2024 0.950 . S
C2001 C2018 1.574 . S
C2001 C2020 1.368 . S
C2001 H2025 0.949 . S
H2002 C2006 0.949 . S
C2003 C2004 1.349 . S
C2003 C2005 1.327 . S
C2003 H2026 0.950 . S
C2004 C2003 1.349 . S
C2004 C2016 1.349 . S
C2005 C2003 1.327 . S
C2005 C2021 1.429 . S
C2005 H2027 0.950 . S
C2006 H2002 0.949 . S
C2006 C2014 1.574 . S
C2006 C2022 1.368 . S
H2007 C2015 0.950 . S
H2008 C2013 0.950 . S
H2009 C2014 0.949 . S
H2010 C2016 0.950 . S
H2011 C2017 0.950 . S
H2012 C2018 0.949 . S
C2013 H2008 0.950 . S
C2013 C2015 1.327 . S
C2013 C2019 1.429 . S
C2014 C2006 1.574 . S
C2014 H2009 0.949 . S
C2014 C2020 1.368 . S
C2015 C1999 1.349 . S
C2015 H2007 0.950 . S
C2015 C2013 1.327 . S
C2016 C2004 1.349 . S
C2016 H2010 0.950 . S
C2016 C2017 1.327 . S
C2017 H2011 0.950 . S
C2017 C2016 1.327 . S
C2017 C2021 1.429 . S
C2018 C2001 1.574 . S
C2018 H2012 0.949 . S
C2018 C2022 1.368 . S
C2019 C2000 1.429 . S
C2019 C2013 1.429 . S
C2019 C2020 1.523 . S
C2020 C2001 1.368 . S
C2020 C2014 1.368 . S
C2020 C2019 1.523 . S
C2021 C2005 1.429 . S
C2021 C2017 1.429 . S
C2021 C2022 1.523 . S
C2022 C2006 1.368 . S
C2022 C2018 1.368 . S
C2022 C2021 1.523 . S
H2023 C1998 0.950 . S
H2024 C2000 0.950 . S
H2025 C2001 0.949 . S
H2026 C2003 0.950 . S
H2027 C2005 0.950 . S
C2028 C2029 1.349 . S
C2028 C2030 1.327 . S
C2028 H2053 0.950 . S
C2029 C2028 1.349 . S
C2029 C2045 1.349 . S
C2030 C2028 1.327 . S
C2030 C2049 1.429 . S
C2030 H2054 0.950 . S
C2031 C2048 1.574 . S
C2031 C2050 1.368 . S
C2031 H2055 0.949 . S
H2032 C2036 0.949 . S
C2033 C2034 1.349 . S
C2033 C2035 1.327 . S
C2033 H2056 0.950 . S
C2034 C2033 1.349 . S
C2034 C2046 1.349 . S
C2035 C2033 1.327 . S
C2035 C2051 1.429 . S
C2035 H2057 0.950 . S
C2036 H2032 0.949 . S
C2036 C2044 1.574 . S
C2036 C2052 1.368 . S
H2037 C2045 0.950 . S
H2038 C2043 0.950 . S
H2039 C2044 0.949 . S
H2040 C2046 0.950 . S
H2041 C2047 0.950 . S
H2042 C2048 0.949 . S
C2043 H2038 0.950 . S
C2043 C2045 1.327 . S
C2043 C2049 1.429 . S
C2044 C2036 1.574 . S
C2044 H2039 0.949 . S
C2044 C2050 1.368 . S
C2045 C2029 1.349 . S
C2045 H2037 0.950 . S
C2045 C2043 1.327 . S
C2046 C2034 1.349 . S
C2046 H2040 0.950 . S
C2046 C2047 1.327 . S
C2047 H2041 0.950 . S
C2047 C2046 1.327 . S
C2047 C2051 1.429 . S
C2048 C2031 1.574 . S
C2048 H2042 0.949 . S
C2048 C2052 1.368 . S
C2049 C2030 1.429 . S
C2049 C2043 1.429 . S
C2049 C2050 1.523 . S
C2050 C2031 1.368 . S
C2050 C2044 1.368 . S
C2050 C2049 1.523 . S
C2051 C2035 1.429 . S
C2051 C2047 1.429 . S
C2051 C2052 1.523 . S
C2052 C2036 1.368 . S
C2052 C2048 1.368 . S
C2052 C2051 1.523 . S
H2053 C2028 0.950 . S
H2054 C2030 0.950 . S
H2055 C2031 0.949 . S
H2056 C2033 0.950 . S
H2057 C2035 0.950 . S
C2058 C2059 1.349 . S
C2058 C2060 1.327 . S
C2058 H2083 0.950 . S
C2059 C2058 1.349 . S
C2059 C2075 1.349 . S
C2060 C2058 1.327 . S
C2060 C2079 1.429 . S
C2060 H2084 0.950 . S
C2061 C2078 1.574 . S
C2061 C2080 1.368 . S
C2061 H2085 0.949 . S
H2062 C2066 0.949 . S
C2063 C2064 1.349 . S
C2063 C2065 1.327 . S
C2063 H2086 0.950 . S
C2064 C2063 1.349 . S
C2064 C2076 1.349 . S
C2065 C2063 1.327 . S
C2065 C2081 1.429 . S
C2065 H2087 0.950 . S
C2066 H2062 0.949 . S
C2066 C2074 1.574 . S
C2066 C2082 1.368 . S
H2067 C2075 0.950 . S
H2068 C2073 0.950 . S
H2069 C2074 0.949 . S
H2070 C2076 0.950 . S
H2071 C2077 0.950 . S
H2072 C2078 0.949 . S
C2073 H2068 0.950 . S
C2073 C2075 1.327 . S
C2073 C2079 1.429 . S
C2074 C2066 1.574 . S
C2074 H2069 0.949 . S
C2074 C2080 1.368 . S
C2075 C2059 1.349 . S
C2075 H2067 0.950 . S
C2075 C2073 1.327 . S
C2076 C2064 1.349 . S
C2076 H2070 0.950 . S
C2076 C2077 1.327 . S
C2077 H2071 0.950 . S
C2077 C2076 1.327 . S
C2077 C2081 1.429 . S
C2078 C2061 1.574 . S
C2078 H2072 0.949 . S
C2078 C2082 1.368 . S
C2079 C2060 1.429 . S
C2079 C2073 1.429 . S
C2079 C2080 1.523 . S
C2080 C2061 1.368 . S
C2080 C2074 1.368 . S
C2080 C2079 1.523 . S
C2081 C2065 1.429 . S
C2081 C2077 1.429 . S
C2081 C2082 1.523 . S
C2082 C2066 1.368 . S
C2082 C2078 1.368 . S
C2082 C2081 1.523 . S
H2083 C2058 0.950 . S
H2084 C2060 0.950 . S
H2085 C2061 0.949 . S
H2086 C2063 0.950 . S
H2087 C2065 0.950 . S
C2088 C2089 1.349 . S
C2088 C2090 1.327 . S
C2088 H2113 0.950 . S
C2089 C2088 1.349 . S
C2089 C2105 1.349 . S
C2090 C2088 1.327 . S
C2090 C2109 1.429 . S
C2090 H2114 0.950 . S
C2091 C2108 1.574 . S
C2091 C2110 1.368 . S
C2091 H2115 0.949 . S
H2092 C2096 0.949 . S
C2093 C2094 1.349 . S
C2093 C2095 1.327 . S
C2093 H2116 0.950 . S
C2094 C2093 1.349 . S
C2094 C2106 1.349 . S
C2095 C2093 1.327 . S
C2095 C2111 1.429 . S
C2095 H2117 0.950 . S
C2096 H2092 0.949 . S
C2096 C2104 1.574 . S
C2096 C2112 1.368 . S
H2097 C2105 0.950 . S
H2098 C2103 0.950 . S
H2099 C2104 0.949 . S
H2100 C2106 0.950 . S
H2101 C2107 0.950 . S
H2102 C2108 0.949 . S
C2103 H2098 0.950 . S
C2103 C2105 1.327 . S
C2103 C2109 1.429 . S
C2104 C2096 1.574 . S
C2104 H2099 0.949 . S
C2104 C2110 1.368 . S
C2105 C2089 1.349 . S
C2105 H2097 0.950 . S
C2105 C2103 1.327 . S
C2106 C2094 1.349 . S
C2106 H2100 0.950 . S
C2106 C2107 1.327 . S
C2107 H2101 0.950 . S
C2107 C2106 1.327 . S
C2107 C2111 1.429 . S
C2108 C2091 1.574 . S
C2108 H2102 0.949 . S
C2108 C2112 1.368 . S
C2109 C2090 1.429 . S
C2109 C2103 1.429 . S
C2109 C2110 1.523 . S
C2110 C2091 1.368 . S
C2110 C2104 1.368 . S
C2110 C2109 1.523 . S
C2111 C2095 1.429 . S
C2111 C2107 1.429 . S
C2111 C2112 1.523 . S
C2112 C2096 1.368 . S
C2112 C2108 1.368 . S
C2112 C2111 1.523 . S
H2113 C2088 0.950 . S
H2114 C2090 0.950 . S
H2115 C2091 0.949 . S
H2116 C2093 0.950 . S
H2117 C2095 0.950 . S
C2118 C2119 1.349 . S
C2118 C2120 1.327 . S
C2118 H2143 0.950 . S
C2119 C2118 1.349 . S
C2119 C2135 1.349 . S
C2120 C2118 1.327 . S
C2120 C2139 1.429 . S
C2120 H2144 0.950 . S
C2121 C2138 1.574 . S
C2121 C2140 1.368 . S
C2121 H2145 0.949 . S
H2122 C2126 0.949 . S
C2123 C2124 1.349 . S
C2123 C2125 1.327 . S
C2123 H2146 0.950 . S
C2124 C2123 1.349 . S
C2124 C2136 1.349 . S
C2125 C2123 1.327 . S
C2125 C2141 1.429 . S
C2125 H2147 0.950 . S
C2126 H2122 0.949 . S
C2126 C2134 1.574 . S
C2126 C2142 1.368 . S
H2127 C2135 0.950 . S
H2128 C2133 0.950 . S
H2129 C2134 0.949 . S
H2130 C2136 0.950 . S
H2131 C2137 0.950 . S
H2132 C2138 0.949 . S
C2133 H2128 0.950 . S
C2133 C2135 1.327 . S
C2133 C2139 1.429 . S
C2134 C2126 1.574 . S
C2134 H2129 0.949 . S
C2134 C2140 1.368 . S
C2135 C2119 1.349 . S
C2135 H2127 0.950 . S
C2135 C2133 1.327 . S
C2136 C2124 1.349 . S
C2136 H2130 0.950 . S
C2136 C2137 1.327 . S
C2137 H2131 0.950 . S
C2137 C2136 1.327 . S
C2137 C2141 1.429 . S
C2138 C2121 1.574 . S
C2138 H2132 0.949 . S
C2138 C2142 1.368 . S
C2139 C2120 1.429 . S
C2139 C2133 1.429 . S
C2139 C2140 1.523 . S
C2140 C2121 1.368 . S
C2140 C2134 1.368 . S
C2140 C2139 1.523 . S
C2141 C2125 1.429 . S
C2141 C2137 1.429 . S
C2141 C2142 1.523 . S
C2142 C2126 1.368 . S
C2142 C2138 1.368 . S
C2142 C2141 1.523 . S
H2143 C2118 0.950 . S
H2144 C2120 0.950 . S
H2145 C2121 0.949 . S
H2146 C2123 0.950 . S
H2147 C2125 0.950 . S
C2148 C2149 1.349 . S
C2148 C2150 1.327 . S
C2148 H2173 0.950 . S
C2149 C2148 1.349 . S
C2149 C2165 1.349 . S
C2150 C2148 1.327 . S
C2150 C2169 1.429 . S
C2150 H2174 0.950 . S
C2151 C2168 1.574 . S
C2151 C2170 1.368 . S
C2151 H2175 0.949 . S
H2152 C2156 0.949 . S
C2153 C2154 1.349 . S
C2153 C2155 1.327 . S
C2153 H2176 0.950 . S
C2154 C2153 1.349 . S
C2154 C2166 1.349 . S
C2155 C2153 1.327 . S
C2155 C2171 1.429 . S
C2155 H2177 0.950 . S
C2156 H2152 0.949 . S
C2156 C2164 1.574 . S
C2156 C2172 1.368 . S
H2157 C2165 0.950 . S
H2158 C2163 0.950 . S
H2159 C2164 0.949 . S
H2160 C2166 0.950 . S
H2161 C2167 0.950 . S
H2162 C2168 0.949 . S
C2163 H2158 0.950 . S
C2163 C2165 1.327 . S
C2163 C2169 1.429 . S
C2164 C2156 1.574 . S
C2164 H2159 0.949 . S
C2164 C2170 1.368 . S
C2165 C2149 1.349 . S
C2165 H2157 0.950 . S
C2165 C2163 1.327 . S
C2166 C2154 1.349 . S
C2166 H2160 0.950 . S
C2166 C2167 1.327 . S
C2167 H2161 0.950 . S
C2167 C2166 1.327 . S
C2167 C2171 1.429 . S
C2168 C2151 1.574 . S
C2168 H2162 0.949 . S
C2168 C2172 1.368 . S
C2169 C2150 1.429 . S
C2169 C2163 1.429 . S
C2169 C2170 1.523 . S
C2170 C2151 1.368 . S
C2170 C2164 1.368 . S
C2170 C2169 1.523 . S
C2171 C2155 1.429 . S
C2171 C2167 1.429 . S
C2171 C2172 1.523 . S
C2172 C2156 1.368 . S
C2172 C2168 1.368 . S
C2172 C2171 1.523 . S
H2173 C2148 0.950 . S
H2174 C2150 0.950 . S
H2175 C2151 0.949 . S
H2176 C2153 0.950 . S
H2177 C2155 0.950 . S
C2178 C2179 1.349 . S
C2178 C2180 1.327 . S
C2178 H2203 0.950 . S
C2179 C2178 1.349 . S
C2179 C2195 1.349 . S
C2180 C2178 1.327 . S
C2180 C2199 1.429 . S
C2180 H2204 0.950 . S
C2181 C2198 1.574 . S
C2181 C2200 1.368 . S
C2181 H2205 0.949 . S
H2182 C2186 0.949 . S
C2183 C2184 1.349 . S
C2183 C2185 1.327 . S
C2183 H2206 0.950 . S
C2184 C2183 1.349 . S
C2184 C2196 1.349 . S
C2185 C2183 1.327 . S
C2185 C2201 1.429 . S
C2185 H2207 0.950 . S
C2186 H2182 0.949 . S
C2186 C2194 1.574 . S
C2186 C2202 1.368 . S
H2187 C2195 0.950 . S
H2188 C2193 0.950 . S
H2189 C2194 0.949 . S
H2190 C2196 0.950 . S
H2191 C2197 0.950 . S
H2192 C2198 0.949 . S
C2193 H2188 0.950 . S
C2193 C2195 1.327 . S
C2193 C2199 1.429 . S
C2194 C2186 1.574 . S
C2194 H2189 0.949 . S
C2194 C2200 1.368 . S
C2195 C2179 1.349 . S
C2195 H2187 0.950 . S
C2195 C2193 1.327 . S
C2196 C2184 1.349 . S
C2196 H2190 0.950 . S
C2196 C2197 1.327 . S
C2197 H2191 0.950 . S
C2197 C2196 1.327 . S
C2197 C2201 1.429 . S
C2198 C2181 1.574 . S
C2198 H2192 0.949 . S
C2198 C2202 1.368 . S
C2199 C2180 1.429 . S
C2199 C2193 1.429 . S
C2199 C2200 1.523 . S
C2200 C2181 1.368 . S
C2200 C2194 1.368 . S
C2200 C2199 1.523 . S
C2201 C2185 1.429 . S
C2201 C2197 1.429 . S
C2201 C2202 1.523 . S
C2202 C2186 1.368 . S
C2202 C2198 1.368 . S
C2202 C2201 1.523 . S
H2203 C2178 0.950 . S
H2204 C2180 0.950 . S
H2205 C2181 0.949 . S
H2206 C2183 0.950 . S
H2207 C2185 0.950 . S
C2208 C2209 1.349 . S
C2208 C2210 1.327 . S
C2208 H2233 0.950 . S
C2209 C2208 1.349 . S
C2209 C2225 1.349 . S
C2210 C2208 1.327 . S
C2210 C2229 1.429 . S
C2210 H2234 0.950 . S
C2211 C2228 1.574 . S
C2211 C2230 1.368 . S
C2211 H2235 0.949 . S
H2212 C2216 0.949 . S
C2213 C2214 1.349 . S
C2213 C2215 1.327 . S
C2213 H2236 0.950 . S
C2214 C2213 1.349 . S
C2214 C2226 1.349 . S
C2215 C2213 1.327 . S
C2215 C2231 1.429 . S
C2215 H2237 0.950 . S
C2216 H2212 0.949 . S
C2216 C2224 1.574 . S
C2216 C2232 1.368 . S
H2217 C2225 0.950 . S
H2218 C2223 0.950 . S
H2219 C2224 0.949 . S
H2220 C2226 0.950 . S
H2221 C2227 0.950 . S
H2222 C2228 0.949 . S
C2223 H2218 0.950 . S
C2223 C2225 1.327 . S
C2223 C2229 1.429 . S
C2224 C2216 1.574 . S
C2224 H2219 0.949 . S
C2224 C2230 1.368 . S
C2225 C2209 1.349 . S
C2225 H2217 0.950 . S
C2225 C2223 1.327 . S
C2226 C2214 1.349 . S
C2226 H2220 0.950 . S
C2226 C2227 1.327 . S
C2227 H2221 0.950 . S
C2227 C2226 1.327 . S
C2227 C2231 1.429 . S
C2228 C2211 1.574 . S
C2228 H2222 0.949 . S
C2228 C2232 1.368 . S
C2229 C2210 1.429 . S
C2229 C2223 1.429 . S
C2229 C2230 1.523 . S
C2230 C2211 1.368 . S
C2230 C2224 1.368 . S
C2230 C2229 1.523 . S
C2231 C2215 1.429 . S
C2231 C2227 1.429 . S
C2231 C2232 1.523 . S
C2232 C2216 1.368 . S
C2232 C2228 1.368 . S
C2232 C2231 1.523 . S
H2233 C2208 0.950 . S
H2234 C2210 0.950 . S
H2235 C2211 0.949 . S
H2236 C2213 0.950 . S
H2237 C2215 0.950 . S
C2238 C2239 1.349 . S
C2238 C2240 1.327 . S
C2238 H2263 0.950 . S
C2239 C2238 1.349 . S
C2239 C2255 1.349 . S
C2240 C2238 1.327 . S
C2240 C2259 1.429 . S
C2240 H2264 0.950 . S
C2241 C2258 1.574 . S
C2241 C2260 1.368 1_554 S
C2241 H2265 0.949 . S
H2242 C2246 0.949 . S
C2243 C2244 1.349 . S
C2243 C2245 1.327 . S
C2243 H2266 0.950 . S
C2244 C2243 1.349 . S
C2244 C2256 1.349 . S
C2245 C2243 1.327 . S
C2245 C2261 1.429 . S
C2245 H2267 0.950 . S
C2246 H2242 0.949 . S
C2246 C2254 1.574 . S
C2246 C2262 1.368 1_556 S
H2247 C2255 0.950 . S
H2248 C2253 0.950 . S
H2249 C2254 0.949 . S
H2250 C2256 0.950 . S
H2251 C2257 0.950 . S
H2252 C2258 0.949 . S
C2253 H2248 0.950 . S
C2253 C2255 1.327 . S
C2253 C2259 1.429 . S
C2254 C2246 1.574 . S
C2254 H2249 0.949 . S
C2254 C2260 1.368 . S
C2255 C2239 1.349 . S
C2255 H2247 0.950 . S
C2255 C2253 1.327 . S
C2256 C2244 1.349 . S
C2256 H2250 0.950 . S
C2256 C2257 1.327 . S
C2257 H2251 0.950 . S
C2257 C2256 1.327 . S
C2257 C2261 1.429 . S
C2258 C2241 1.574 . S
C2258 H2252 0.949 . S
C2258 C2262 1.368 . S
C2259 C2240 1.429 . S
C2259 C2253 1.429 . S
C2259 C2260 1.523 . S
C2260 C2241 1.368 1_556 S
C2260 C2254 1.368 . S
C2260 C2259 1.523 . S
C2261 C2245 1.429 . S
C2261 C2257 1.429 . S
C2261 C2262 1.523 . S
C2262 C2246 1.368 1_554 S
C2262 C2258 1.368 . S
C2262 C2261 1.523 . S
H2263 C2238 0.950 . S
H2264 C2240 0.950 . S
H2265 C2241 0.949 . S
H2266 C2243 0.950 . S
H2267 C2245 0.950 . S
C2268 C2269 1.349 . S
C2268 C2270 1.327 . S
C2268 H2293 0.950 . S
C2269 C2268 1.349 . S
C2269 C2285 1.349 . S
C2270 C2268 1.327 . S
C2270 C2289 1.429 . S
C2270 H2294 0.950 . S
C2271 C2288 1.574 . S
C2271 C2290 1.368 . S
C2271 H2295 0.949 . S
H2272 C2276 0.949 . S
C2273 C2274 1.349 . S
C2273 C2275 1.327 . S
C2273 H2296 0.950 . S
C2274 C2273 1.349 . S
C2274 C2286 1.349 . S
C2275 C2273 1.327 . S
C2275 C2291 1.429 . S
C2275 H2297 0.950 . S
C2276 H2272 0.949 . S
C2276 C2284 1.574 . S
C2276 C2292 1.368 . S
H2277 C2285 0.950 . S
H2278 C2283 0.950 . S
H2279 C2284 0.949 . S
H2280 C2286 0.950 . S
H2281 C2287 0.950 . S
H2282 C2288 0.949 . S
C2283 H2278 0.950 . S
C2283 C2285 1.327 . S
C2283 C2289 1.429 . S
C2284 C2276 1.574 . S
C2284 H2279 0.949 . S
C2284 C2290 1.368 . S
C2285 C2269 1.349 . S
C2285 H2277 0.950 . S
C2285 C2283 1.327 . S
C2286 C2274 1.349 . S
C2286 H2280 0.950 . S
C2286 C2287 1.327 . S
C2287 H2281 0.950 . S
C2287 C2286 1.327 . S
C2287 C2291 1.429 . S
C2288 C2271 1.574 . S
C2288 H2282 0.949 . S
C2288 C2292 1.368 . S
C2289 C2270 1.429 . S
C2289 C2283 1.429 . S
C2289 C2290 1.523 . S
C2290 C2271 1.368 . S
C2290 C2284 1.368 . S
C2290 C2289 1.523 . S
C2291 C2275 1.429 . S
C2291 C2287 1.429 . S
C2291 C2292 1.523 . S
C2292 C2276 1.368 . S
C2292 C2288 1.368 . S
C2292 C2291 1.523 . S
H2293 C2268 0.950 . S
H2294 C2270 0.950 . S
H2295 C2271 0.949 . S
H2296 C2273 0.950 . S
H2297 C2275 0.950 . S
C2298 C2299 1.349 . S
C2298 C2300 1.327 . S
C2298 H2323 0.950 . S
C2299 C2298 1.349 . S
C2299 C2315 1.349 . S
C2300 C2298 1.327 . S
C2300 C2319 1.429 . S
C2300 H2324 0.950 . S
C2301 C2318 1.574 1_565 S
C2301 C2320 1.368 . S
C2301 H2325 0.949 . S
H2302 C2306 0.949 . S
C2303 C2304 1.349 . S
C2303 C2305 1.327 . S
C2303 H2326 0.950 . S
C2304 C2303 1.349 . S
C2304 C2316 1.349 . S
C2305 C2303 1.327 . S
C2305 C2321 1.429 . S
C2305 H2327 0.950 . S
C2306 H2302 0.949 . S
C2306 C2314 1.574 1_545 S
C2306 C2322 1.368 . S
H2307 C2315 0.950 . S
H2308 C2313 0.950 . S
H2309 C2314 0.949 . S
H2310 C2316 0.950 . S
H2311 C2317 0.950 . S
H2312 C2318 0.949 . S
C2313 H2308 0.950 . S
C2313 C2315 1.327 . S
C2313 C2319 1.429 . S
C2314 C2306 1.574 1_565 S
C2314 H2309 0.949 . S
C2314 C2320 1.368 . S
C2315 C2299 1.349 . S
C2315 H2307 0.950 . S
C2315 C2313 1.327 . S
C2316 C2304 1.349 . S
C2316 H2310 0.950 . S
C2316 C2317 1.327 . S
C2317 H2311 0.950 . S
C2317 C2316 1.327 . S
C2317 C2321 1.429 . S
C2318 C2301 1.574 1_545 S
C2318 H2312 0.949 . S
C2318 C2322 1.368 . S
C2319 C2300 1.429 . S
C2319 C2313 1.429 . S
C2319 C2320 1.523 . S
C2320 C2301 1.368 . S
C2320 C2314 1.368 . S
C2320 C2319 1.523 . S
C2321 C2305 1.429 . S
C2321 C2317 1.429 . S
C2321 C2322 1.523 . S
C2322 C2306 1.368 . S
C2322 C2318 1.368 . S
C2322 C2321 1.523 . S
H2323 C2298 0.950 . S
H2324 C2300 0.950 . S
H2325 C2301 0.949 . S
H2326 C2303 0.950 . S
H2327 C2305 0.950 . S
C2328 C2329 1.349 . S
C2328 C2330 1.327 . S
C2328 H2353 0.950 . S
C2329 C2328 1.349 . S
C2329 C2345 1.349 . S
C2330 C2328 1.327 . S
C2330 C2349 1.429 . S
C2330 H2354 0.950 . S
C2331 C2348 1.574 . S
C2331 C2350 1.368 . S
C2331 H2355 0.949 . S
H2332 C2336 0.949 . S
C2333 C2334 1.349 . S
C2333 C2335 1.327 . S
C2333 H2356 0.950 . S
C2334 C2333 1.349 . S
C2334 C2346 1.349 . S
C2335 C2333 1.327 . S
C2335 C2351 1.429 . S
C2335 H2357 0.950 . S
C2336 H2332 0.949 . S
C2336 C2344 1.574 . S
C2336 C2352 1.368 . S
H2337 C2345 0.950 . S
H2338 C2343 0.950 . S
H2339 C2344 0.949 . S
H2340 C2346 0.950 . S
H2341 C2347 0.950 . S
H2342 C2348 0.949 . S
C2343 H2338 0.950 . S
C2343 C2345 1.327 . S
C2343 C2349 1.429 . S
C2344 C2336 1.574 . S
C2344 H2339 0.949 . S
C2344 C2350 1.368 . S
C2345 C2329 1.349 . S
C2345 H2337 0.950 . S
C2345 C2343 1.327 . S
C2346 C2334 1.349 . S
C2346 H2340 0.950 . S
C2346 C2347 1.327 . S
C2347 H2341 0.950 . S
C2347 C2346 1.327 . S
C2347 C2351 1.429 . S
C2348 C2331 1.574 . S
C2348 H2342 0.949 . S
C2348 C2352 1.368 . S
C2349 C2330 1.429 . S
C2349 C2343 1.429 . S
C2349 C2350 1.523 . S
C2350 C2331 1.368 . S
C2350 C2344 1.368 . S
C2350 C2349 1.523 . S
C2351 C2335 1.429 . S
C2351 C2347 1.429 . S
C2351 C2352 1.523 . S
C2352 C2336 1.368 . S
C2352 C2348 1.368 . S
C2352 C2351 1.523 . S
H2353 C2328 0.950 . S
H2354 C2330 0.950 . S
H2355 C2331 0.949 . S
H2356 C2333 0.950 . S
H2357 C2335 0.950 . S
C2358 C2359 1.349 . S
C2358 C2360 1.327 . S
C2358 H2383 0.950 . S
C2359 C2358 1.349 . S
C2359 C2375 1.349 . S
C2360 C2358 1.327 . S
C2360 C2379 1.429 . S
C2360 H2384 0.950 . S
C2361 C2378 1.574 . S
C2361 C2380 1.368 . S
C2361 H2385 0.949 . S
H2362 C2366 0.949 . S
C2363 C2364 1.349 . S
C2363 C2365 1.327 . S
C2363 H2386 0.950 . S
C2364 C2363 1.349 . S
C2364 C2376 1.349 . S
C2365 C2363 1.327 . S
C2365 C2381 1.429 . S
C2365 H2387 0.950 . S
C2366 H2362 0.949 . S
C2366 C2374 1.574 . S
C2366 C2382 1.368 . S
H2367 C2375 0.950 . S
H2368 C2373 0.950 . S
H2369 C2374 0.949 . S
H2370 C2376 0.950 . S
H2371 C2377 0.950 . S
H2372 C2378 0.949 . S
C2373 H2368 0.950 . S
C2373 C2375 1.327 . S
C2373 C2379 1.429 . S
C2374 C2366 1.574 . S
C2374 H2369 0.949 . S
C2374 C2380 1.368 . S
C2375 C2359 1.349 . S
C2375 H2367 0.950 . S
C2375 C2373 1.327 . S
C2376 C2364 1.349 . S
C2376 H2370 0.950 . S
C2376 C2377 1.327 . S
C2377 H2371 0.950 . S
C2377 C2376 1.327 . S
C2377 C2381 1.429 . S
C2378 C2361 1.574 . S
C2378 H2372 0.949 . S
C2378 C2382 1.368 . S
C2379 C2360 1.429 . S
C2379 C2373 1.429 . S
C2379 C2380 1.523 . S
C2380 C2361 1.368 . S
C2380 C2374 1.368 . S
C2380 C2379 1.523 . S
C2381 C2365 1.429 . S
C2381 C2377 1.429 . S
C2381 C2382 1.523 . S
C2382 C2366 1.368 . S
C2382 C2378 1.368 . S
C2382 C2381 1.523 . S
H2383 C2358 0.950 . S
H2384 C2360 0.950 . S
H2385 C2361 0.949 . S
H2386 C2363 0.950 . S
H2387 C2365 0.950 . S
C2388 C2389 1.349 . S
C2388 C2390 1.327 . S
C2388 H2413 0.950 . S
C2389 C2388 1.349 . S
C2389 C2405 1.349 . S
C2390 C2388 1.327 . S
C2390 C2409 1.429 . S
C2390 H2414 0.950 . S
C2391 C2408 1.574 . S
C2391 C2410 1.368 . S
C2391 H2415 0.949 . S
H2392 C2396 0.949 . S
C2393 C2394 1.349 . S
C2393 C2395 1.327 . S
C2393 H2416 0.950 . S
C2394 C2393 1.349 . S
C2394 C2406 1.349 . S
C2395 C2393 1.327 . S
C2395 C2411 1.429 . S
C2395 H2417 0.950 . S
C2396 H2392 0.949 . S
C2396 C2404 1.574 . S
C2396 C2412 1.368 . S
H2397 C2405 0.950 . S
H2398 C2403 0.950 . S
H2399 C2404 0.949 . S
H2400 C2406 0.950 . S
H2401 C2407 0.950 . S
H2402 C2408 0.949 . S
C2403 H2398 0.950 . S
C2403 C2405 1.327 . S
C2403 C2409 1.429 . S
C2404 C2396 1.574 . S
C2404 H2399 0.949 . S
C2404 C2410 1.368 . S
C2405 C2389 1.349 . S
C2405 H2397 0.950 . S
C2405 C2403 1.327 . S
C2406 C2394 1.349 . S
C2406 H2400 0.950 . S
C2406 C2407 1.327 . S
C2407 H2401 0.950 . S
C2407 C2406 1.327 . S
C2407 C2411 1.429 . S
C2408 C2391 1.574 . S
C2408 H2402 0.949 . S
C2408 C2412 1.368 . S
C2409 C2390 1.429 . S
C2409 C2403 1.429 . S
C2409 C2410 1.523 . S
C2410 C2391 1.368 . S
C2410 C2404 1.368 . S
C2410 C2409 1.523 . S
C2411 C2395 1.429 . S
C2411 C2407 1.429 . S
C2411 C2412 1.523 . S
C2412 C2396 1.368 . S
C2412 C2408 1.368 . S
C2412 C2411 1.523 . S
H2413 C2388 0.950 . S
H2414 C2390 0.950 . S
H2415 C2391 0.949 . S
H2416 C2393 0.950 . S
H2417 C2395 0.950 . S
C2418 C2419 1.349 . S
C2418 C2420 1.327 . S
C2418 H2443 0.950 . S
C2419 C2418 1.349 . S
C2419 C2435 1.349 . S
C2420 C2418 1.327 . S
C2420 C2439 1.429 . S
C2420 H2444 0.950 . S
C2421 C2438 1.574 1_556 S
C2421 C2440 1.368 . S
C2421 H2445 0.949 . S
H2422 C2426 0.949 . S
C2423 C2424 1.349 . S
C2423 C2425 1.327 . S
C2423 H2446 0.950 . S
C2424 C2423 1.349 . S
C2424 C2436 1.349 . S
C2425 C2423 1.327 . S
C2425 C2441 1.429 . S
C2425 H2447 0.950 . S
C2426 H2422 0.949 . S
C2426 C2434 1.574 1_554 S
C2426 C2442 1.368 . S
H2427 C2435 0.950 . S
H2428 C2433 0.950 . S
H2429 C2434 0.949 . S
H2430 C2436 0.950 . S
H2431 C2437 0.950 . S
H2432 C2438 0.949 . S
C2433 H2428 0.950 . S
C2433 C2435 1.327 . S
C2433 C2439 1.429 . S
C2434 C2426 1.574 1_556 S
C2434 H2429 0.949 . S
C2434 C2440 1.368 . S
C2435 C2419 1.349 . S
C2435 H2427 0.950 . S
C2435 C2433 1.327 . S
C2436 C2424 1.349 . S
C2436 H2430 0.950 . S
C2436 C2437 1.327 . S
C2437 H2431 0.950 . S
C2437 C2436 1.327 . S
C2437 C2441 1.429 . S
C2438 C2421 1.574 1_554 S
C2438 H2432 0.949 . S
C2438 C2442 1.368 . S
C2439 C2420 1.429 . S
C2439 C2433 1.429 . S
C2439 C2440 1.523 . S
C2440 C2421 1.368 . S
C2440 C2434 1.368 . S
C2440 C2439 1.523 . S
C2441 C2425 1.429 . S
C2441 C2437 1.429 . S
C2441 C2442 1.523 . S
C2442 C2426 1.368 . S
C2442 C2438 1.368 . S
C2442 C2441 1.523 . S
H2443 C2418 0.950 . S
H2444 C2420 0.950 . S
H2445 C2421 0.949 . S
H2446 C2423 0.950 . S
H2447 C2425 0.950 . S
C2448 C2449 1.349 . S
C2448 C2450 1.327 . S
C2448 H2473 0.950 . S
C2449 C2448 1.349 . S
C2449 C2465 1.349 . S
C2450 C2448 1.327 . S
C2450 C2469 1.429 . S
C2450 H2474 0.950 . S
C2451 C2468 1.574 . S
C2451 C2470 1.368 . S
C2451 H2475 0.949 . S
H2452 C2456 0.949 . S
C2453 C2454 1.349 . S
C2453 C2455 1.327 . S
C2453 H2476 0.950 . S
C2454 C2453 1.349 . S
C2454 C2466 1.349 . S
C2455 C2453 1.327 . S
C2455 C2471 1.429 . S
C2455 H2477 0.950 . S
C2456 H2452 0.949 . S
C2456 C2464 1.574 . S
C2456 C2472 1.368 . S
H2457 C2465 0.950 . S
H2458 C2463 0.950 . S
H2459 C2464 0.949 . S
H2460 C2466 0.950 . S
H2461 C2467 0.950 . S
H2462 C2468 0.949 . S
C2463 H2458 0.950 . S
C2463 C2465 1.327 . S
C2463 C2469 1.429 . S
C2464 C2456 1.574 . S
C2464 H2459 0.949 . S
C2464 C2470 1.368 . S
C2465 C2449 1.349 . S
C2465 H2457 0.950 . S
C2465 C2463 1.327 . S
C2466 C2454 1.349 . S
C2466 H2460 0.950 . S
C2466 C2467 1.327 . S
C2467 H2461 0.950 . S
C2467 C2466 1.327 . S
C2467 C2471 1.429 . S
C2468 C2451 1.574 . S
C2468 H2462 0.949 . S
C2468 C2472 1.368 . S
C2469 C2450 1.429 . S
C2469 C2463 1.429 . S
C2469 C2470 1.523 . S
C2470 C2451 1.368 . S
C2470 C2464 1.368 . S
C2470 C2469 1.523 . S
C2471 C2455 1.429 . S
C2471 C2467 1.429 . S
C2471 C2472 1.523 . S
C2472 C2456 1.368 . S
C2472 C2468 1.368 . S
C2472 C2471 1.523 . S
H2473 C2448 0.950 . S
H2474 C2450 0.950 . S
H2475 C2451 0.949 . S
H2476 C2453 0.950 . S
H2477 C2455 0.950 . S
C2478 C2479 1.349 . S
C2478 C2480 1.327 . S
C2478 H2503 0.950 . S
C2479 C2478 1.349 . S
C2479 C2495 1.349 . S
C2480 C2478 1.327 . S
C2480 C2499 1.429 . S
C2480 H2504 0.950 . S
C2481 C2498 1.574 1_556 S
C2481 C2500 1.368 . S
C2481 H2505 0.949 . S
H2482 C2486 0.949 . S
C2483 C2484 1.349 . S
C2483 C2485 1.327 . S
C2483 H2506 0.950 . S
C2484 C2483 1.349 . S
C2484 C2496 1.349 . S
C2485 C2483 1.327 . S
C2485 C2501 1.429 . S
C2485 H2507 0.950 . S
C2486 H2482 0.949 . S
C2486 C2494 1.574 1_554 S
C2486 C2502 1.368 . S
H2487 C2495 0.950 . S
H2488 C2493 0.950 . S
H2489 C2494 0.949 . S
H2490 C2496 0.950 . S
H2491 C2497 0.950 . S
H2492 C2498 0.949 . S
C2493 H2488 0.950 . S
C2493 C2495 1.327 . S
C2493 C2499 1.429 . S
C2494 C2486 1.574 1_556 S
C2494 H2489 0.949 . S
C2494 C2500 1.368 . S
C2495 C2479 1.349 . S
C2495 H2487 0.950 . S
C2495 C2493 1.327 . S
C2496 C2484 1.349 . S
C2496 H2490 0.950 . S
C2496 C2497 1.327 . S
C2497 H2491 0.950 . S
C2497 C2496 1.327 . S
C2497 C2501 1.429 . S
C2498 C2481 1.574 1_554 S
C2498 H2492 0.949 . S
C2498 C2502 1.368 . S
C2499 C2480 1.429 . S
C2499 C2493 1.429 . S
C2499 C2500 1.523 . S
C2500 C2481 1.368 . S
C2500 C2494 1.368 . S
C2500 C2499 1.523 . S
C2501 C2485 1.429 . S
C2501 C2497 1.429 . S
C2501 C2502 1.523 . S
C2502 C2486 1.368 . S
C2502 C2498 1.368 . S
C2502 C2501 1.523 . S
H2503 C2478 0.950 . S
H2504 C2480 0.950 . S
H2505 C2481 0.949 . S
H2506 C2483 0.950 . S
H2507 C2485 0.950 . S
C2508 C2509 1.349 . S
C2508 C2510 1.327 . S
C2508 H2533 0.950 . S
C2509 C2508 1.349 . S
C2509 C2525 1.349 . S
C2510 C2508 1.327 . S
C2510 C2529 1.429 . S
C2510 H2534 0.950 . S
C2511 C2528 1.574 . S
C2511 C2530 1.368 . S
C2511 H2535 0.949 . S
H2512 C2516 0.949 . S
C2513 C2514 1.349 . S
C2513 C2515 1.327 . S
C2513 H2536 0.950 . S
C2514 C2513 1.349 . S
C2514 C2526 1.349 . S
C2515 C2513 1.327 . S
C2515 C2531 1.429 . S
C2515 H2537 0.950 . S
C2516 H2512 0.949 . S
C2516 C2524 1.574 . S
C2516 C2532 1.368 . S
H2517 C2525 0.950 . S
H2518 C2523 0.950 . S
H2519 C2524 0.949 . S
H2520 C2526 0.950 . S
H2521 C2527 0.950 . S
H2522 C2528 0.949 . S
C2523 H2518 0.950 . S
C2523 C2525 1.327 . S
C2523 C2529 1.429 . S
C2524 C2516 1.574 . S
C2524 H2519 0.949 . S
C2524 C2530 1.368 1_545 S
C2525 C2509 1.349 . S
C2525 H2517 0.950 . S
C2525 C2523 1.327 . S
C2526 C2514 1.349 . S
C2526 H2520 0.950 . S
C2526 C2527 1.327 . S
C2527 H2521 0.950 . S
C2527 C2526 1.327 . S
C2527 C2531 1.429 . S
C2528 C2511 1.574 . S
C2528 H2522 0.949 . S
C2528 C2532 1.368 1_565 S
C2529 C2510 1.429 . S
C2529 C2523 1.429 . S
C2529 C2530 1.523 . S
C2530 C2511 1.368 . S
C2530 C2524 1.368 1_565 S
C2530 C2529 1.523 . S
C2531 C2515 1.429 . S
C2531 C2527 1.429 . S
C2531 C2532 1.523 . S
C2532 C2516 1.368 . S
C2532 C2528 1.368 1_545 S
C2532 C2531 1.523 . S
H2533 C2508 0.950 . S
H2534 C2510 0.950 . S
H2535 C2511 0.949 . S
H2536 C2513 0.950 . S
H2537 C2515 0.950 . S
C2538 C2539 1.349 . S
C2538 C2540 1.327 . S
C2538 H2563 0.950 . S
C2539 C2538 1.349 . S
C2539 C2555 1.349 . S
C2540 C2538 1.327 . S
C2540 C2559 1.429 . S
C2540 H2564 0.950 . S
C2541 C2558 1.574 . S
C2541 C2560 1.368 . S
C2541 H2565 0.949 . S
H2542 C2546 0.949 . S
C2543 C2544 1.349 . S
C2543 C2545 1.327 . S
C2543 H2566 0.950 . S
C2544 C2543 1.349 . S
C2544 C2556 1.349 . S
C2545 C2543 1.327 . S
C2545 C2561 1.429 . S
C2545 H2567 0.950 . S
C2546 H2542 0.949 . S
C2546 C2554 1.574 . S
C2546 C2562 1.368 . S
H2547 C2555 0.950 . S
H2548 C2553 0.950 . S
H2549 C2554 0.949 . S
H2550 C2556 0.950 . S
H2551 C2557 0.950 . S
H2552 C2558 0.949 . S
C2553 H2548 0.950 . S
C2553 C2555 1.327 . S
C2553 C2559 1.429 . S
C2554 C2546 1.574 . S
C2554 H2549 0.949 . S
C2554 C2560 1.368 . S
C2555 C2539 1.349 . S
C2555 H2547 0.950 . S
C2555 C2553 1.327 . S
C2556 C2544 1.349 . S
C2556 H2550 0.950 . S
C2556 C2557 1.327 . S
C2557 H2551 0.950 . S
C2557 C2556 1.327 . S
C2557 C2561 1.429 . S
C2558 C2541 1.574 . S
C2558 H2552 0.949 . S
C2558 C2562 1.368 . S
C2559 C2540 1.429 . S
C2559 C2553 1.429 . S
C2559 C2560 1.523 . S
C2560 C2541 1.368 . S
C2560 C2554 1.368 . S
C2560 C2559 1.523 . S
C2561 C2545 1.429 . S
C2561 C2557 1.429 . S
C2561 C2562 1.523 . S
C2562 C2546 1.368 . S
C2562 C2558 1.368 . S
C2562 C2561 1.523 . S
H2563 C2538 0.950 . S
H2564 C2540 0.950 . S
H2565 C2541 0.949 . S
H2566 C2543 0.950 . S
H2567 C2545 0.950 . S
C2568 C2569 1.349 . S
C2568 C2570 1.327 . S
C2568 H2593 0.950 . S
C2569 C2568 1.349 . S
C2569 C2585 1.349 . S
C2570 C2568 1.327 . S
C2570 C2589 1.429 . S
C2570 H2594 0.950 . S
C2571 C2588 1.574 . S
C2571 C2590 1.368 1_545 S
C2571 H2595 0.949 . S
H2572 C2576 0.949 . S
C2573 C2574 1.349 . S
C2573 C2575 1.327 . S
C2573 H2596 0.950 . S
C2574 C2573 1.349 . S
C2574 C2586 1.349 . S
C2575 C2573 1.327 . S
C2575 C2591 1.429 . S
C2575 H2597 0.950 . S
C2576 H2572 0.949 . S
C2576 C2584 1.574 . S
C2576 C2592 1.368 1_565 S
H2577 C2585 0.950 . S
H2578 C2583 0.950 . S
H2579 C2584 0.949 . S
H2580 C2586 0.950 . S
H2581 C2587 0.950 . S
H2582 C2588 0.949 . S
C2583 H2578 0.950 . S
C2583 C2585 1.327 . S
C2583 C2589 1.429 . S
C2584 C2576 1.574 . S
C2584 H2579 0.949 . S
C2584 C2590 1.368 . S
C2585 C2569 1.349 . S
C2585 H2577 0.950 . S
C2585 C2583 1.327 . S
C2586 C2574 1.349 . S
C2586 H2580 0.950 . S
C2586 C2587 1.327 . S
C2587 H2581 0.950 . S
C2587 C2586 1.327 . S
C2587 C2591 1.429 . S
C2588 C2571 1.574 . S
C2588 H2582 0.949 . S
C2588 C2592 1.368 . S
C2589 C2570 1.429 . S
C2589 C2583 1.429 . S
C2589 C2590 1.523 . S
C2590 C2571 1.368 1_565 S
C2590 C2584 1.368 . S
C2590 C2589 1.523 . S
C2591 C2575 1.429 . S
C2591 C2587 1.429 . S
C2591 C2592 1.523 . S
C2592 C2576 1.368 1_545 S
C2592 C2588 1.368 . S
C2592 C2591 1.523 . S
H2593 C2568 0.950 . S
H2594 C2570 0.950 . S
H2595 C2571 0.949 . S
H2596 C2573 0.950 . S
H2597 C2575 0.950 . S
C2598 C2599 1.349 . S
C2598 C2600 1.327 . S
C2598 H2623 0.950 . S
C2599 C2598 1.349 . S
C2599 C2615 1.349 . S
C2600 C2598 1.327 . S
C2600 C2619 1.429 . S
C2600 H2624 0.950 . S
C2601 C2618 1.574 . S
C2601 C2620 1.368 . S
C2601 H2625 0.949 . S
H2602 C2606 0.949 . S
C2603 C2604 1.349 . S
C2603 C2605 1.327 . S
C2603 H2626 0.950 . S
C2604 C2603 1.349 . S
C2604 C2616 1.349 . S
C2605 C2603 1.327 . S
C2605 C2621 1.429 . S
C2605 H2627 0.950 . S
C2606 H2602 0.949 . S
C2606 C2614 1.574 . S
C2606 C2622 1.368 . S
H2607 C2615 0.950 . S
H2608 C2613 0.950 . S
H2609 C2614 0.949 . S
H2610 C2616 0.950 . S
H2611 C2617 0.950 . S
H2612 C2618 0.949 . S
C2613 H2608 0.950 . S
C2613 C2615 1.327 . S
C2613 C2619 1.429 . S
C2614 C2606 1.574 . S
C2614 H2609 0.949 . S
C2614 C2620 1.368 . S
C2615 C2599 1.349 . S
C2615 H2607 0.950 . S
C2615 C2613 1.327 . S
C2616 C2604 1.349 . S
C2616 H2610 0.950 . S
C2616 C2617 1.327 . S
C2617 H2611 0.950 . S
C2617 C2616 1.327 . S
C2617 C2621 1.429 . S
C2618 C2601 1.574 . S
C2618 H2612 0.949 . S
C2618 C2622 1.368 . S
C2619 C2600 1.429 . S
C2619 C2613 1.429 . S
C2619 C2620 1.523 . S
C2620 C2601 1.368 . S
C2620 C2614 1.368 . S
C2620 C2619 1.523 . S
C2621 C2605 1.429 . S
C2621 C2617 1.429 . S
C2621 C2622 1.523 . S
C2622 C2606 1.368 . S
C2622 C2618 1.368 . S
C2622 C2621 1.523 . S
H2623 C2598 0.950 . S
H2624 C2600 0.950 . S
H2625 C2601 0.949 . S
H2626 C2603 0.950 . S
H2627 C2605 0.950 . S
C2628 C2629 1.349 . S
C2628 C2630 1.327 . S
C2628 H2653 0.950 . S
C2629 C2628 1.349 . S
C2629 C2645 1.349 . S
C2630 C2628 1.327 . S
C2630 C2649 1.429 . S
C2630 H2654 0.950 . S
C2631 C2648 1.574 . S
C2631 C2650 1.368 . S
C2631 H2655 0.949 . S
H2632 C2636 0.949 . S
C2633 C2634 1.349 . S
C2633 C2635 1.327 . S
C2633 H2656 0.950 . S
C2634 C2633 1.349 . S
C2634 C2646 1.349 . S
C2635 C2633 1.327 . S
C2635 C2651 1.429 . S
C2635 H2657 0.950 . S
C2636 H2632 0.949 . S
C2636 C2644 1.574 . S
C2636 C2652 1.368 . S
H2637 C2645 0.950 . S
H2638 C2643 0.950 . S
H2639 C2644 0.949 . S
H2640 C2646 0.950 . S
H2641 C2647 0.950 . S
H2642 C2648 0.949 . S
C2643 H2638 0.950 . S
C2643 C2645 1.327 . S
C2643 C2649 1.429 . S
C2644 C2636 1.574 . S
C2644 H2639 0.949 . S
C2644 C2650 1.368 . S
C2645 C2629 1.349 . S
C2645 H2637 0.950 . S
C2645 C2643 1.327 . S
C2646 C2634 1.349 . S
C2646 H2640 0.950 . S
C2646 C2647 1.327 . S
C2647 H2641 0.950 . S
C2647 C2646 1.327 . S
C2647 C2651 1.429 . S
C2648 C2631 1.574 . S
C2648 H2642 0.949 . S
C2648 C2652 1.368 . S
C2649 C2630 1.429 . S
C2649 C2643 1.429 . S
C2649 C2650 1.523 . S
C2650 C2631 1.368 . S
C2650 C2644 1.368 . S
C2650 C2649 1.523 . S
C2651 C2635 1.429 . S
C2651 C2647 1.429 . S
C2651 C2652 1.523 . S
C2652 C2636 1.368 . S
C2652 C2648 1.368 . S
C2652 C2651 1.523 . S
H2653 C2628 0.950 . S
H2654 C2630 0.950 . S
H2655 C2631 0.949 . S
H2656 C2633 0.950 . S
H2657 C2635 0.950 . S
C2658 C2659 1.349 . S
C2658 C2660 1.327 . S
C2658 H2683 0.950 . S
C2659 C2658 1.349 . S
C2659 C2675 1.349 . S
C2660 C2658 1.327 . S
C2660 C2679 1.429 . S
C2660 H2684 0.950 . S
C2661 C2678 1.574 . S
C2661 C2680 1.368 . S
C2661 H2685 0.949 . S
H2662 C2666 0.949 . S
C2663 C2664 1.349 . S
C2663 C2665 1.327 . S
C2663 H2686 0.950 . S
C2664 C2663 1.349 . S
C2664 C2676 1.349 . S
C2665 C2663 1.327 . S
C2665 C2681 1.429 . S
C2665 H2687 0.950 . S
C2666 H2662 0.949 . S
C2666 C2674 1.574 . S
C2666 C2682 1.368 . S
H2667 C2675 0.950 . S
H2668 C2673 0.950 . S
H2669 C2674 0.949 . S
H2670 C2676 0.950 . S
H2671 C2677 0.950 . S
H2672 C2678 0.949 . S
C2673 H2668 0.950 . S
C2673 C2675 1.327 . S
C2673 C2679 1.429 . S
C2674 C2666 1.574 . S
C2674 H2669 0.949 . S
C2674 C2680 1.368 . S
C2675 C2659 1.349 . S
C2675 H2667 0.950 . S
C2675 C2673 1.327 . S
C2676 C2664 1.349 . S
C2676 H2670 0.950 . S
C2676 C2677 1.327 . S
C2677 H2671 0.950 . S
C2677 C2676 1.327 . S
C2677 C2681 1.429 . S
C2678 C2661 1.574 . S
C2678 H2672 0.949 . S
C2678 C2682 1.368 . S
C2679 C2660 1.429 . S
C2679 C2673 1.429 . S
C2679 C2680 1.523 . S
C2680 C2661 1.368 . S
C2680 C2674 1.368 . S
C2680 C2679 1.523 . S
C2681 C2665 1.429 . S
C2681 C2677 1.429 . S
C2681 C2682 1.523 . S
C2682 C2666 1.368 . S
C2682 C2678 1.368 . S
C2682 C2681 1.523 . S
H2683 C2658 0.950 . S
H2684 C2660 0.950 . S
H2685 C2661 0.949 . S
H2686 C2663 0.950 . S
H2687 C2665 0.950 . S
C2688 C2689 1.349 . S
C2688 C2690 1.327 . S
C2688 H2713 0.950 . S
C2689 C2688 1.349 . S
C2689 C2705 1.349 . S
C2690 C2688 1.327 . S
C2690 C2709 1.429 . S
C2690 H2714 0.950 . S
C2691 C2708 1.574 . S
C2691 C2710 1.368 . S
C2691 H2715 0.949 . S
H2692 C2696 0.949 . S
C2693 C2694 1.349 . S
C2693 C2695 1.327 . S
C2693 H2716 0.950 . S
C2694 C2693 1.349 . S
C2694 C2706 1.349 . S
C2695 C2693 1.327 . S
C2695 C2711 1.429 . S
C2695 H2717 0.950 . S
C2696 H2692 0.949 . S
C2696 C2704 1.574 1_655 S
C2696 C2712 1.368 . S
H2697 C2705 0.950 . S
H2698 C2703 0.950 . S
H2699 C2704 0.949 . S
H2700 C2706 0.950 . S
H2701 C2707 0.950 . S
H2702 C2708 0.949 . S
C2703 H2698 0.950 . S
C2703 C2705 1.327 . S
C2703 C2709 1.429 . S
C2704 C2696 1.574 1_455 S
C2704 H2699 0.949 . S
C2704 C2710 1.368 . S
C2705 C2689 1.349 . S
C2705 H2697 0.950 . S
C2705 C2703 1.327 . S
C2706 C2694 1.349 . S
C2706 H2700 0.950 . S
C2706 C2707 1.327 . S
C2707 H2701 0.950 . S
C2707 C2706 1.327 . S
C2707 C2711 1.429 . S
C2708 C2691 1.574 . S
C2708 H2702 0.949 . S
C2708 C2712 1.368 1_455 S
C2709 C2690 1.429 . S
C2709 C2703 1.429 . S
C2709 C2710 1.523 . S
C2710 C2691 1.368 . S
C2710 C2704 1.368 . S
C2710 C2709 1.523 . S
C2711 C2695 1.429 . S
C2711 C2707 1.429 . S
C2711 C2712 1.523 . S
C2712 C2696 1.368 . S
C2712 C2708 1.368 1_655 S
C2712 C2711 1.523 . S
H2713 C2688 0.950 . S
H2714 C2690 0.950 . S
H2715 C2691 0.949 . S
H2716 C2693 0.950 . S
H2717 C2695 0.950 . S
C2718 C2719 1.349 . S
C2718 C2720 1.327 . S
C2718 H2743 0.950 . S
C2719 C2718 1.349 . S
C2719 C2735 1.349 . S
C2720 C2718 1.327 . S
C2720 C2739 1.429 . S
C2720 H2744 0.950 . S
C2721 C2738 1.574 1_655 S
C2721 C2740 1.368 . S
C2721 H2745 0.949 . S
H2722 C2726 0.949 . S
C2723 C2724 1.349 . S
C2723 C2725 1.327 . S
C2723 H2746 0.950 . S
C2724 C2723 1.349 . S
C2724 C2736 1.349 . S
C2725 C2723 1.327 . S
C2725 C2741 1.429 . S
C2725 H2747 0.950 . S
C2726 H2722 0.949 . S
C2726 C2734 1.574 . S
C2726 C2742 1.368 . S
H2727 C2735 0.950 . S
H2728 C2733 0.950 . S
H2729 C2734 0.949 . S
H2730 C2736 0.950 . S
H2731 C2737 0.950 . S
H2732 C2738 0.949 . S
C2733 H2728 0.950 . S
C2733 C2735 1.327 . S
C2733 C2739 1.429 . S
C2734 C2726 1.574 . S
C2734 H2729 0.949 . S
C2734 C2740 1.368 1_455 S
C2735 C2719 1.349 . S
C2735 H2727 0.950 . S
C2735 C2733 1.327 . S
C2736 C2724 1.349 . S
C2736 H2730 0.950 . S
C2736 C2737 1.327 . S
C2737 H2731 0.950 . S
C2737 C2736 1.327 . S
C2737 C2741 1.429 . S
C2738 C2721 1.574 1_455 S
C2738 H2732 0.949 . S
C2738 C2742 1.368 . S
C2739 C2720 1.429 . S
C2739 C2733 1.429 . S
C2739 C2740 1.523 . S
C2740 C2721 1.368 . S
C2740 C2734 1.368 1_655 S
C2740 C2739 1.523 . S
C2741 C2725 1.429 . S
C2741 C2737 1.429 . S
C2741 C2742 1.523 . S
C2742 C2726 1.368 . S
C2742 C2738 1.368 . S
C2742 C2741 1.523 . S
H2743 C2718 0.950 . S
H2744 C2720 0.950 . S
H2745 C2721 0.949 . S
H2746 C2723 0.950 . S
H2747 C2725 0.950 . S
C2748 C2749 1.349 . S
C2748 C2750 1.327 . S
C2748 H2773 0.950 . S
C2749 C2748 1.349 . S
C2749 C2765 1.349 . S
C2750 C2748 1.327 . S
C2750 C2769 1.429 . S
C2750 H2774 0.950 . S
C2751 C2768 1.554 1_655 S
C2751 C2770 1.396 . S
C2751 H2775 0.943 1_655 S
H2752 C2756 0.949 . S
C2753 C2754 1.349 . S
C2753 C2755 1.327 . S
C2753 H2776 0.950 . S
C2754 C2753 1.349 . S
C2754 C2766 1.349 . S
C2755 C2753 1.327 . S
C2755 C2771 1.429 . S
C2755 H2777 0.950 . S
C2756 H2752 0.949 . S
C2756 C2764 1.574 . S
C2756 C2772 1.368 1_655 S
H2757 C2765 0.950 . S
H2758 C2763 0.950 . S
H2759 C2764 0.949 . S
H2760 C2766 0.950 . S
H2761 C2767 0.950 . S
H2762 C2768 0.949 . S
C2763 H2758 0.950 . S
C2763 C2765 1.327 . S
C2763 C2769 1.429 . S
C2764 C2756 1.574 . S
C2764 H2759 0.949 . S
C2764 C2770 1.368 . S
C2765 C2749 1.349 . S
C2765 H2757 0.950 . S
C2765 C2763 1.327 . S
C2766 C2754 1.349 . S
C2766 H2760 0.950 . S
C2766 C2767 1.327 . S
C2767 H2761 0.950 . S
C2767 C2766 1.327 . S
C2767 C2771 1.429 . S
C2768 C2751 1.554 1_455 S
C2768 H2762 0.949 . S
C2768 C2772 1.368 . S
C2769 C2750 1.429 . S
C2769 C2763 1.429 . S
C2769 C2770 1.523 . S
C2770 C2751 1.396 . S
C2770 C2764 1.368 . S
C2770 C2769 1.523 . S
C2771 C2755 1.429 . S
C2771 C2767 1.429 . S
C2771 C2772 1.523 . S
C2772 C2756 1.368 1_455 S
C2772 C2768 1.368 . S
C2772 C2771 1.523 . S
H2773 C2748 0.950 . S
H2774 C2750 0.950 . S
H2775 C2751 0.943 1_455 S
H2776 C2753 0.950 . S
H2777 C2755 0.950 . S
C2778 C2779 1.349 . S
C2778 C2780 1.327 . S
C2778 H2803 0.950 . S
C2779 C2778 1.349 . S
C2779 C2795 1.349 . S
C2780 C2778 1.327 . S
C2780 C2799 1.429 . S
C2780 H2804 0.950 . S
C2781 C2798 1.544 1_655 S
C2781 C2800 1.409 . S
C2781 H2805 0.940 1_655 S
H2782 C2786 0.949 . S
C2783 C2784 1.349 . S
C2783 C2785 1.327 . S
C2783 H2806 0.950 . S
C2784 C2783 1.349 . S
C2784 C2796 1.349 . S
C2785 C2783 1.327 . S
C2785 C2801 1.429 . S
C2785 H2807 0.950 . S
C2786 H2782 0.949 . S
C2786 C2794 1.574 . S
C2786 C2802 1.368 1_655 S
H2787 C2795 0.950 . S
H2788 C2793 0.950 . S
H2789 C2794 0.949 . S
H2790 C2796 0.950 . S
H2791 C2797 0.950 . S
H2792 C2798 0.949 . S
C2793 H2788 0.950 . S
C2793 C2795 1.327 . S
C2793 C2799 1.429 . S
C2794 C2786 1.574 . S
C2794 H2789 0.949 . S
C2794 C2800 1.368 . S
C2795 C2779 1.349 . S
C2795 H2787 0.950 . S
C2795 C2793 1.327 . S
C2796 C2784 1.349 . S
C2796 H2790 0.950 . S
C2796 C2797 1.327 . S
C2797 H2791 0.950 . S
C2797 C2796 1.327 . S
C2797 C2801 1.429 . S
C2798 C2781 1.544 1_455 S
C2798 H2792 0.949 . S
C2798 C2802 1.368 . S
C2799 C2780 1.429 . S
C2799 C2793 1.429 . S
C2799 C2800 1.523 . S
C2800 C2781 1.409 . S
C2800 C2794 1.368 . S
C2800 C2799 1.523 . S
C2801 C2785 1.429 . S
C2801 C2797 1.429 . S
C2801 C2802 1.523 . S
C2802 C2786 1.368 1_455 S
C2802 C2798 1.368 . S
C2802 C2801 1.523 . S
H2803 C2778 0.950 . S
H2804 C2780 0.950 . S
H2805 C2781 0.940 1_455 S
H2806 C2783 0.950 . S
H2807 C2785 0.950 . S
C2808 C2809 1.349 . S
C2808 C2810 1.327 . S
C2808 H2833 0.950 . S
C2809 C2808 1.349 . S
C2809 C2825 1.349 . S
C2810 C2808 1.327 . S
C2810 C2829 1.429 . S
C2810 H2834 0.950 . S
C2811 C2828 1.574 . S
C2811 C2830 1.368 . S
C2811 H2835 0.949 . S
H2812 C2816 0.949 . S
C2813 C2814 1.349 . S
C2813 C2815 1.327 . S
C2813 H2836 0.950 . S
C2814 C2813 1.349 . S
C2814 C2826 1.349 . S
C2815 C2813 1.327 . S
C2815 C2831 1.429 . S
C2815 H2837 0.950 . S
C2816 H2812 0.949 . S
C2816 C2824 1.574 1_655 S
C2816 C2832 1.368 . S
H2817 C2825 0.950 . S
H2818 C2823 0.950 . S
H2819 C2824 0.949 . S
H2820 C2826 0.950 . S
H2821 C2827 0.950 . S
H2822 C2828 0.949 . S
C2823 H2818 0.950 . S
C2823 C2825 1.327 . S
C2823 C2829 1.429 . S
C2824 C2816 1.574 1_455 S
C2824 H2819 0.949 . S
C2824 C2830 1.368 . S
C2825 C2809 1.349 . S
C2825 H2817 0.950 . S
C2825 C2823 1.327 . S
C2826 C2814 1.349 . S
C2826 H2820 0.950 . S
C2826 C2827 1.327 . S
C2827 H2821 0.950 . S
C2827 C2826 1.327 . S
C2827 C2831 1.429 . S
C2828 C2811 1.574 . S
C2828 H2822 0.949 . S
C2828 C2832 1.368 1_455 S
C2829 C2810 1.429 . S
C2829 C2823 1.429 . S
C2829 C2830 1.523 . S
C2830 C2811 1.368 . S
C2830 C2824 1.368 . S
C2830 C2829 1.523 . S
C2831 C2815 1.429 . S
C2831 C2827 1.429 . S
C2831 C2832 1.523 . S
C2832 C2816 1.368 . S
C2832 C2828 1.368 1_655 S
C2832 C2831 1.523 . S
H2833 C2808 0.950 . S
H2834 C2810 0.950 . S
H2835 C2811 0.949 . S
H2836 C2813 0.950 . S
H2837 C2815 0.950 . S
C2838 C2839 1.349 . S
C2838 C2840 1.327 . S
C2838 H2863 0.950 . S
C2839 C2838 1.349 . S
C2839 C2855 1.349 . S
C2840 C2838 1.327 . S
C2840 C2859 1.429 . S
C2840 H2864 0.950 . S
C2841 C2858 1.574 . S
C2841 C2860 1.368 . S
C2841 H2865 0.949 . S
H2842 C2846 0.949 . S
C2843 C2844 1.349 . S
C2843 C2845 1.327 . S
C2843 H2866 0.950 . S
C2844 C2843 1.349 . S
C2844 C2856 1.349 . S
C2845 C2843 1.327 . S
C2845 C2861 1.429 . S
C2845 H2867 0.950 . S
C2846 H2842 0.949 . S
C2846 C2854 1.574 . S
C2846 C2862 1.368 . S
H2847 C2855 0.950 . S
H2848 C2853 0.950 . S
H2849 C2854 0.949 . S
H2850 C2856 0.950 . S
H2851 C2857 0.950 . S
H2852 C2858 0.949 . S
C2853 H2848 0.950 . S
C2853 C2855 1.327 . S
C2853 C2859 1.429 . S
C2854 C2846 1.574 . S
C2854 H2849 0.949 . S
C2854 C2860 1.368 . S
C2855 C2839 1.349 . S
C2855 H2847 0.950 . S
C2855 C2853 1.327 . S
C2856 C2844 1.349 . S
C2856 H2850 0.950 . S
C2856 C2857 1.327 . S
C2857 H2851 0.950 . S
C2857 C2856 1.327 . S
C2857 C2861 1.429 . S
C2858 C2841 1.574 . S
C2858 H2852 0.949 . S
C2858 C2862 1.368 . S
C2859 C2840 1.429 . S
C2859 C2853 1.429 . S
C2859 C2860 1.523 . S
C2860 C2841 1.368 . S
C2860 C2854 1.368 . S
C2860 C2859 1.523 . S
C2861 C2845 1.429 . S
C2861 C2857 1.429 . S
C2861 C2862 1.523 . S
C2862 C2846 1.368 . S
C2862 C2858 1.368 . S
C2862 C2861 1.523 . S
H2863 C2838 0.950 . S
H2864 C2840 0.950 . S
H2865 C2841 0.949 . S
H2866 C2843 0.950 . S
H2867 C2845 0.950 . S
C2868 C2869 1.349 . S
C2868 C2870 1.327 . S
C2868 H2893 0.950 . S
C2869 C2868 1.349 . S
C2869 C2885 1.349 . S
C2870 C2868 1.327 . S
C2870 C2889 1.429 . S
C2870 H2894 0.950 . S
C2871 C2888 1.574 . S
C2871 C2890 1.368 . S
C2871 H2895 0.949 . S
H2872 C2876 0.949 . S
C2873 C2874 1.349 . S
C2873 C2875 1.327 . S
C2873 H2896 0.950 . S
C2874 C2873 1.349 . S
C2874 C2886 1.349 . S
C2875 C2873 1.327 . S
C2875 C2891 1.429 . S
C2875 H2897 0.950 . S
C2876 H2872 0.949 . S
C2876 C2884 1.524 1_455 S
C2876 C2892 1.368 . S
H2877 C2885 0.950 . S
H2878 C2883 0.950 . S
H2879 C2884 0.935 1_455 S
H2880 C2886 0.950 . S
H2881 C2887 0.950 . S
H2882 C2888 0.949 . S
C2883 H2878 0.950 . S
C2883 C2885 1.327 . S
C2883 C2889 1.429 . S
C2884 C2876 1.524 1_655 S
C2884 H2879 0.935 1_655 S
C2884 C2890 1.437 . S
C2885 C2869 1.349 . S
C2885 H2877 0.950 . S
C2885 C2883 1.327 . S
C2886 C2874 1.349 . S
C2886 H2880 0.950 . S
C2886 C2887 1.327 . S
C2887 H2881 0.950 . S
C2887 C2886 1.327 . S
C2887 C2891 1.429 . S
C2888 C2871 1.574 . S
C2888 H2882 0.949 . S
C2888 C2892 1.368 1_655 S
C2889 C2870 1.429 . S
C2889 C2883 1.429 . S
C2889 C2890 1.523 . S
C2890 C2871 1.368 . S
C2890 C2884 1.437 . S
C2890 C2889 1.523 . S
C2891 C2875 1.429 . S
C2891 C2887 1.429 . S
C2891 C2892 1.523 . S
C2892 C2876 1.368 . S
C2892 C2888 1.368 1_455 S
C2892 C2891 1.523 . S
H2893 C2868 0.950 . S
H2894 C2870 0.950 . S
H2895 C2871 0.949 . S
H2896 C2873 0.950 . S
H2897 C2875 0.950 . S
C2898 C2899 1.349 . S
C2898 C2900 1.327 . S
C2898 H2923 0.950 . S
C2899 C2898 1.349 . S
C2899 C2915 1.349 . S
C2900 C2898 1.327 . S
C2900 C2919 1.429 . S
C2900 H2924 0.950 . S
C2901 C2918 1.574 . S
C2901 C2920 1.368 . S
C2901 H2925 0.949 . S
H2902 C2906 0.949 . S
C2903 C2904 1.349 . S
C2903 C2905 1.327 . S
C2903 H2926 0.950 . S
C2904 C2903 1.349 . S
C2904 C2916 1.349 . S
C2905 C2903 1.327 . S
C2905 C2921 1.429 . S
C2905 H2927 0.950 . S
C2906 H2902 0.949 . S
C2906 C2914 1.574 . S
C2906 C2922 1.368 . S
H2907 C2915 0.950 . S
H2908 C2913 0.950 . S
H2909 C2914 0.949 . S
H2910 C2916 0.950 . S
H2911 C2917 0.950 . S
H2912 C2918 0.949 . S
C2913 H2908 0.950 . S
C2913 C2915 1.327 . S
C2913 C2919 1.429 . S
C2914 C2906 1.574 . S
C2914 H2909 0.949 . S
C2914 C2920 1.368 . S
C2915 C2899 1.349 . S
C2915 H2907 0.950 . S
C2915 C2913 1.327 . S
C2916 C2904 1.349 . S
C2916 H2910 0.950 . S
C2916 C2917 1.327 . S
C2917 H2911 0.950 . S
C2917 C2916 1.327 . S
C2917 C2921 1.429 . S
C2918 C2901 1.574 . S
C2918 H2912 0.949 . S
C2918 C2922 1.368 . S
C2919 C2900 1.429 . S
C2919 C2913 1.429 . S
C2919 C2920 1.523 . S
C2920 C2901 1.368 . S
C2920 C2914 1.368 . S
C2920 C2919 1.523 . S
C2921 C2905 1.429 . S
C2921 C2917 1.429 . S
C2921 C2922 1.523 . S
C2922 C2906 1.368 . S
C2922 C2918 1.368 . S
C2922 C2921 1.523 . S
H2923 C2898 0.950 . S
H2924 C2900 0.950 . S
H2925 C2901 0.949 . S
H2926 C2903 0.950 . S
H2927 C2905 0.950 . S
C2928 C2929 1.349 . S
C2928 C2930 1.327 . S
C2928 H2953 0.950 . S
C2929 C2928 1.349 . S
C2929 C2945 1.349 . S
C2930 C2928 1.327 . S
C2930 C2949 1.429 . S
C2930 H2954 0.950 . S
C2931 C2948 1.539 1_545 S
C2931 C2950 1.416 . S
C2931 H2955 0.940 1_545 S
H2932 C2936 0.949 . S
C2933 C2934 1.349 . S
C2933 C2935 1.327 . S
C2933 H2956 0.950 . S
C2934 C2933 1.349 . S
C2934 C2946 1.349 . S
C2935 C2933 1.327 . S
C2935 C2951 1.429 . S
C2935 H2957 0.950 . S
C2936 H2932 0.949 . S
C2936 C2944 1.574 . S
C2936 C2952 1.368 1_545 S
H2937 C2945 0.950 . S
H2938 C2943 0.950 . S
H2939 C2944 0.949 . S
H2940 C2946 0.950 . S
H2941 C2947 0.950 . S
H2942 C2948 0.949 . S
C2943 H2938 0.950 . S
C2943 C2945 1.327 . S
C2943 C2949 1.429 . S
C2944 C2936 1.574 . S
C2944 H2939 0.949 . S
C2944 C2950 1.368 . S
C2945 C2929 1.349 . S
C2945 H2937 0.950 . S
C2945 C2943 1.327 . S
C2946 C2934 1.349 . S
C2946 H2940 0.950 . S
C2946 C2947 1.327 . S
C2947 H2941 0.950 . S
C2947 C2946 1.327 . S
C2947 C2951 1.429 . S
C2948 C2931 1.539 1_565 S
C2948 H2942 0.949 . S
C2948 C2952 1.368 . S
C2949 C2930 1.429 . S
C2949 C2943 1.429 . S
C2949 C2950 1.523 . S
C2950 C2931 1.416 . S
C2950 C2944 1.368 . S
C2950 C2949 1.523 . S
C2951 C2935 1.429 . S
C2951 C2947 1.429 . S
C2951 C2952 1.523 . S
C2952 C2936 1.368 1_565 S
C2952 C2948 1.368 . S
C2952 C2951 1.523 . S
H2953 C2928 0.950 . S
H2954 C2930 0.950 . S
H2955 C2931 0.940 1_565 S
H2956 C2933 0.950 . S
H2957 C2935 0.950 . S
C2958 C2959 1.349 . S
C2958 C2960 1.327 . S
C2958 H2983 0.950 . S
C2959 C2958 1.349 . S
C2959 C2975 1.349 . S
C2960 C2958 1.327 . S
C2960 C2979 1.429 . S
C2960 H2984 0.950 . S
C2961 C2978 1.574 . S
C2961 C2980 1.368 . S
C2961 H2985 0.949 . S
H2962 C2966 0.949 . S
C2963 C2964 1.349 . S
C2963 C2965 1.327 . S
C2963 H2986 0.950 . S
C2964 C2963 1.349 . S
C2964 C2976 1.349 . S
C2965 C2963 1.327 . S
C2965 C2981 1.429 . S
C2965 H2987 0.950 . S
C2966 H2962 0.949 . S
C2966 C2974 1.574 . S
C2966 C2982 1.368 . S
H2967 C2975 0.950 . S
H2968 C2973 0.950 . S
H2969 C2974 0.949 . S
H2970 C2976 0.950 . S
H2971 C2977 0.950 . S
H2972 C2978 0.949 . S
C2973 H2968 0.950 . S
C2973 C2975 1.327 . S
C2973 C2979 1.429 . S
C2974 C2966 1.574 . S
C2974 H2969 0.949 . S
C2974 C2980 1.368 . S
C2975 C2959 1.349 . S
C2975 H2967 0.950 . S
C2975 C2973 1.327 . S
C2976 C2964 1.349 . S
C2976 H2970 0.950 . S
C2976 C2977 1.327 . S
C2977 H2971 0.950 . S
C2977 C2976 1.327 . S
C2977 C2981 1.429 . S
C2978 C2961 1.574 . S
C2978 H2972 0.949 . S
C2978 C2982 1.368 . S
C2979 C2960 1.429 . S
C2979 C2973 1.429 . S
C2979 C2980 1.523 . S
C2980 C2961 1.368 . S
C2980 C2974 1.368 . S
C2980 C2979 1.523 . S
C2981 C2965 1.429 . S
C2981 C2977 1.429 . S
C2981 C2982 1.523 . S
C2982 C2966 1.368 . S
C2982 C2978 1.368 . S
C2982 C2981 1.523 . S
H2983 C2958 0.950 . S
H2984 C2960 0.950 . S
H2985 C2961 0.949 . S
H2986 C2963 0.950 . S
H2987 C2965 0.950 . S
C2988 C2989 1.349 . S
C2988 C2990 1.327 . S
C2988 H3013 0.950 . S
C2989 C2988 1.349 . S
C2989 C3005 1.349 . S
C2990 C2988 1.327 . S
C2990 C3009 1.429 . S
C2990 H3014 0.950 . S
C2991 C3008 1.574 . S
C2991 C3010 1.368 . S
C2991 H3015 0.949 . S
H2992 C2996 0.949 . S
C2993 C2994 1.349 . S
C2993 C2995 1.327 . S
C2993 H3016 0.950 . S
C2994 C2993 1.349 . S
C2994 C3006 1.349 . S
C2995 C2993 1.327 . S
C2995 C3011 1.429 . S
C2995 H3017 0.950 . S
C2996 H2992 0.949 . S
C2996 C3004 1.574 . S
C2996 C3012 1.368 . S
H2997 C3005 0.950 . S
H2998 C3003 0.950 . S
H2999 C3004 0.949 . S
H3000 C3006 0.950 . S
H3001 C3007 0.950 . S
H3002 C3008 0.949 . S
C3003 H2998 0.950 . S
C3003 C3005 1.327 . S
C3003 C3009 1.429 . S
C3004 C2996 1.574 . S
C3004 H2999 0.949 . S
C3004 C3010 1.368 . S
C3005 C2989 1.349 . S
C3005 H2997 0.950 . S
C3005 C3003 1.327 . S
C3006 C2994 1.349 . S
C3006 H3000 0.950 . S
C3006 C3007 1.327 . S
C3007 H3001 0.950 . S
C3007 C3006 1.327 . S
C3007 C3011 1.429 . S
C3008 C2991 1.574 . S
C3008 H3002 0.949 . S
C3008 C3012 1.368 . S
C3009 C2990 1.429 . S
C3009 C3003 1.429 . S
C3009 C3010 1.523 . S
C3010 C2991 1.368 . S
C3010 C3004 1.368 . S
C3010 C3009 1.523 . S
C3011 C2995 1.429 . S
C3011 C3007 1.429 . S
C3011 C3012 1.523 . S
C3012 C2996 1.368 . S
C3012 C3008 1.368 . S
C3012 C3011 1.523 . S
H3013 C2988 0.950 . S
H3014 C2990 0.950 . S
H3015 C2991 0.949 . S
H3016 C2993 0.950 . S
H3017 C2995 0.950 . S
C3018 C3019 1.349 . S
C3018 C3020 1.327 . S
C3018 H3043 0.950 . S
C3019 C3018 1.349 . S
C3019 C3035 1.349 . S
C3020 C3018 1.327 . S
C3020 C3039 1.429 . S
C3020 H3044 0.950 . S
C3021 C3038 1.574 . S
C3021 C3040 1.368 1_556 S
C3021 H3045 0.949 . S
H3022 C3026 0.949 . S
C3023 C3024 1.349 . S
C3023 C3025 1.327 . S
C3023 H3046 0.950 . S
C3024 C3023 1.349 . S
C3024 C3036 1.349 . S
C3025 C3023 1.327 . S
C3025 C3041 1.429 . S
C3025 H3047 0.950 . S
C3026 H3022 0.949 . S
C3026 C3034 1.574 . S
C3026 C3042 1.368 1_554 S
H3027 C3035 0.950 . S
H3028 C3033 0.881 1_556 S
H3029 C3034 0.949 . S
H3030 C3036 0.950 . S
H3031 C3037 0.950 . S
H3032 C3038 0.949 . S
C3033 H3028 0.881 1_554 S
C3033 C3035 1.327 . S
C3033 C3039 1.429 . S
C3034 C3026 1.574 . S
C3034 H3029 0.949 . S
C3034 C3040 1.368 . S
C3035 C3019 1.349 . S
C3035 H3027 0.950 . S
C3035 C3033 1.327 . S
C3036 C3024 1.349 . S
C3036 H3030 0.950 . S
C3036 C3037 1.327 . S
C3037 H3031 0.950 . S
C3037 C3036 1.327 . S
C3037 C3041 1.429 . S
C3038 C3021 1.574 . S
C3038 H3032 0.949 . S
C3038 C3042 1.368 . S
C3039 C3020 1.429 . S
C3039 C3033 1.429 . S
C3039 C3040 1.523 . S
C3040 C3021 1.368 1_554 S
C3040 C3034 1.368 . S
C3040 C3039 1.523 . S
C3041 C3025 1.429 . S
C3041 C3037 1.429 . S
C3041 C3042 1.523 . S
C3042 C3026 1.368 1_556 S
C3042 C3038 1.368 . S
C3042 C3041 1.523 . S
H3043 C3018 0.950 . S
H3044 C3020 0.950 . S
H3045 C3021 0.949 . S
H3046 C3023 0.950 . S
H3047 C3025 0.950 . S
C3048 C3049 1.349 . S
C3048 C3050 1.327 . S
C3048 H3073 0.950 . S
C3049 C3048 1.349 . S
C3049 C3065 1.349 . S
C3050 C3048 1.327 . S
C3050 C3069 1.429 . S
C3050 H3074 0.950 . S
C3051 C3068 1.574 . S
C3051 C3070 1.368 1_565 S
C3051 H3075 0.949 . S
H3052 C3056 0.949 . S
C3053 C3054 1.349 . S
C3053 C3055 1.327 . S
C3053 H3076 0.950 . S
C3054 C3053 1.349 . S
C3054 C3066 1.349 . S
C3055 C3053 1.327 . S
C3055 C3071 1.429 . S
C3055 H3077 0.950 . S
C3056 H3052 0.949 . S
C3056 C3064 1.574 . S
C3056 C3072 1.368 1_545 S
H3057 C3065 0.950 . S
H3058 C3063 0.909 1_565 S
H3059 C3064 0.949 . S
H3060 C3066 0.950 . S
H3061 C3067 0.950 . S
H3062 C3068 0.949 . S
C3063 H3058 0.909 1_545 S
C3063 C3065 1.327 . S
C3063 C3069 1.429 . S
C3064 C3056 1.574 . S
C3064 H3059 0.949 . S
C3064 C3070 1.368 . S
C3065 C3049 1.349 . S
C3065 H3057 0.950 . S
C3065 C3063 1.327 . S
C3066 C3054 1.349 . S
C3066 H3060 0.950 . S
C3066 C3067 1.327 . S
C3067 H3061 0.950 . S
C3067 C3066 1.327 . S
C3067 C3071 1.429 . S
C3068 C3051 1.574 . S
C3068 H3062 0.949 . S
C3068 C3072 1.368 . S
C3069 C3050 1.429 . S
C3069 C3063 1.429 . S
C3069 C3070 1.523 . S
C3070 C3051 1.368 1_545 S
C3070 C3064 1.368 . S
C3070 C3069 1.523 . S
C3071 C3055 1.429 . S
C3071 C3067 1.429 . S
C3071 C3072 1.523 . S
C3072 C3056 1.368 1_565 S
C3072 C3068 1.368 . S
C3072 C3071 1.523 . S
H3073 C3048 0.950 . S
H3074 C3050 0.950 . S
H3075 C3051 0.949 . S
H3076 C3053 0.950 . S
H3077 C3055 0.950 . S
C3078 C3079 1.349 . S
C3078 C3080 1.327 . S
C3078 H3103 0.950 . S
C3079 C3078 1.349 . S
C3079 C3095 1.349 . S
C3080 C3078 1.327 . S
C3080 C3099 1.429 . S
C3080 H3104 0.950 . S
C3081 C3098 1.574 . S
C3081 C3100 1.368 . S
C3081 H3105 0.949 . S
H3082 C3086 0.949 . S
C3083 C3084 1.349 . S
C3083 C3085 1.327 . S
C3083 H3106 0.950 . S
C3084 C3083 1.349 . S
C3084 C3096 1.349 . S
C3085 C3083 1.327 . S
C3085 C3101 1.429 . S
C3085 H3107 0.950 . S
C3086 H3082 0.949 . S
C3086 C3094 1.574 1_556 S
C3086 C3102 1.368 . S
H3087 C3095 0.950 . S
H3088 C3093 0.950 . S
H3089 C3094 0.949 . S
H3090 C3096 0.950 . S
H3091 C3097 0.950 . S
H3092 C3098 0.949 . S
C3093 H3088 0.950 . S
C3093 C3095 1.327 . S
C3093 C3099 1.429 . S
C3094 C3086 1.574 1_554 S
C3094 H3089 0.949 . S
C3094 C3100 1.368 . S
C3095 C3079 1.349 . S
C3095 H3087 0.950 . S
C3095 C3093 1.327 . S
C3096 C3084 1.349 . S
C3096 H3090 0.950 . S
C3096 C3097 1.327 . S
C3097 H3091 0.950 . S
C3097 C3096 1.327 . S
C3097 C3101 1.429 . S
C3098 C3081 1.574 . S
C3098 H3092 0.949 . S
C3098 C3102 1.368 1_554 S
C3099 C3080 1.429 . S
C3099 C3093 1.429 . S
C3099 C3100 1.523 . S
C3100 C3081 1.368 . S
C3100 C3094 1.368 . S
C3100 C3099 1.523 . S
C3101 C3085 1.429 . S
C3101 C3097 1.429 . S
C3101 C3102 1.523 . S
C3102 C3086 1.368 . S
C3102 C3098 1.368 1_556 S
C3102 C3101 1.523 . S
H3103 C3078 0.950 . S
H3104 C3080 0.950 . S
H3105 C3081 0.949 . S
H3106 C3083 0.950 . S
H3107 C3085 0.950 . S
C3108 C3109 1.349 . S
C3108 C3110 1.327 . S
C3108 H3133 0.950 . S
C3109 C3108 1.349 . S
C3109 C3125 1.349 . S
C3110 C3108 1.327 . S
C3110 C3129 1.429 . S
C3110 H3134 0.950 . S
C3111 C3128 1.574 . S
C3111 C3130 1.368 . S
C3111 H3135 0.949 . S
H3112 C3116 0.949 . S
C3113 C3114 1.349 . S
C3113 C3115 1.327 . S
C3113 H3136 0.950 . S
C3114 C3113 1.349 . S
C3114 C3126 1.349 . S
C3115 C3113 1.327 . S
C3115 C3131 1.429 . S
C3115 H3137 0.950 . S
C3116 H3112 0.949 . S
C3116 C3124 1.574 . S
C3116 C3132 1.368 . S
H3117 C3125 0.950 . S
H3118 C3123 0.950 . S
H3119 C3124 0.949 . S
H3120 C3126 0.950 . S
H3121 C3127 0.950 . S
H3122 C3128 0.949 . S
C3123 H3118 0.950 . S
C3123 C3125 1.327 . S
C3123 C3129 1.429 . S
C3124 C3116 1.574 . S
C3124 H3119 0.949 . S
C3124 C3130 1.368 . S
C3125 C3109 1.349 . S
C3125 H3117 0.950 . S
C3125 C3123 1.327 . S
C3126 C3114 1.349 . S
C3126 H3120 0.950 . S
C3126 C3127 1.327 . S
C3127 H3121 0.950 . S
C3127 C3126 1.327 . S
C3127 C3131 1.429 . S
C3128 C3111 1.574 . S
C3128 H3122 0.949 . S
C3128 C3132 1.368 . S
C3129 C3110 1.429 . S
C3129 C3123 1.429 . S
C3129 C3130 1.523 . S
C3130 C3111 1.368 . S
C3130 C3124 1.368 . S
C3130 C3129 1.523 . S
C3131 C3115 1.429 . S
C3131 C3127 1.429 . S
C3131 C3132 1.523 . S
C3132 C3116 1.368 . S
C3132 C3128 1.368 . S
C3132 C3131 1.523 . S
H3133 C3108 0.950 . S
H3134 C3110 0.950 . S
H3135 C3111 0.949 . S
H3136 C3113 0.950 . S
H3137 C3115 0.950 . S
C3138 C3139 1.349 . S
C3138 C3140 1.327 . S
C3138 H3163 0.950 . S
C3139 C3138 1.349 . S
C3139 C3155 1.349 . S
C3140 C3138 1.327 . S
C3140 C3159 1.429 . S
C3140 H3164 0.950 . S
C3141 C3158 1.574 . S
C3141 C3160 1.368 . S
C3141 H3165 0.949 . S
H3142 C3146 0.949 . S
C3143 C3144 1.349 . S
C3143 C3145 1.327 . S
C3143 H3166 0.950 . S
C3144 C3143 1.349 . S
C3144 C3156 1.349 . S
C3145 C3143 1.327 . S
C3145 C3161 1.429 . S
C3145 H3167 0.950 . S
C3146 H3142 0.949 . S
C3146 C3154 1.574 . S
C3146 C3162 1.368 . S
H3147 C3155 0.950 . S
H3148 C3153 0.950 . S
H3149 C3154 0.949 . S
H3150 C3156 0.950 . S
H3151 C3157 0.950 . S
H3152 C3158 0.949 . S
C3153 H3148 0.950 . S
C3153 C3155 1.327 . S
C3153 C3159 1.429 . S
C3154 C3146 1.574 . S
C3154 H3149 0.949 . S
C3154 C3160 1.368 . S
C3155 C3139 1.349 . S
C3155 H3147 0.950 . S
C3155 C3153 1.327 . S
C3156 C3144 1.349 . S
C3156 H3150 0.950 . S
C3156 C3157 1.327 . S
C3157 H3151 0.950 . S
C3157 C3156 1.327 . S
C3157 C3161 1.429 . S
C3158 C3141 1.574 . S
C3158 H3152 0.949 . S
C3158 C3162 1.368 . S
C3159 C3140 1.429 . S
C3159 C3153 1.429 . S
C3159 C3160 1.523 . S
C3160 C3141 1.368 . S
C3160 C3154 1.368 . S
C3160 C3159 1.523 . S
C3161 C3145 1.429 . S
C3161 C3157 1.429 . S
C3161 C3162 1.523 . S
C3162 C3146 1.368 . S
C3162 C3158 1.368 . S
C3162 C3161 1.523 . S
H3163 C3138 0.950 . S
H3164 C3140 0.950 . S
H3165 C3141 0.949 . S
H3166 C3143 0.950 . S
H3167 C3145 0.950 . S
C3168 C3169 1.349 . S
C3168 C3170 1.327 . S
C3168 H3193 0.950 . S
C3169 C3168 1.349 . S
C3169 C3185 1.349 . S
C3170 C3168 1.327 . S
C3170 C3189 1.429 . S
C3170 H3194 0.950 . S
C3171 C3188 1.574 . S
C3171 C3190 1.368 1_554 S
C3171 H3195 0.949 . S
H3172 C3176 0.943 1_556 S
C3173 C3174 1.349 . S
C3173 C3175 1.327 . S
C3173 H3196 0.950 . S
C3174 C3173 1.349 . S
C3174 C3186 1.349 . S
C3175 C3173 1.327 . S
C3175 C3191 1.429 . S
C3175 H3197 0.950 . S
C3176 H3172 0.943 1_554 S
C3176 C3184 1.556 1_554 S
C3176 C3192 1.393 . S
H3177 C3185 0.950 . S
H3178 C3183 0.950 . S
H3179 C3184 0.949 . S
H3180 C3186 0.950 . S
H3181 C3187 0.950 . S
H3182 C3188 0.949 . S
C3183 H3178 0.950 . S
C3183 C3185 1.327 . S
C3183 C3189 1.429 . S
C3184 C3176 1.556 1_556 S
C3184 H3179 0.949 . S
C3184 C3190 1.368 . S
C3185 C3169 1.349 . S
C3185 H3177 0.950 . S
C3185 C3183 1.327 . S
C3186 C3174 1.349 . S
C3186 H3180 0.950 . S
C3186 C3187 1.327 . S
C3187 H3181 0.950 . S
C3187 C3186 1.327 . S
C3187 C3191 1.429 . S
C3188 C3171 1.574 . S
C3188 H3182 0.949 . S
C3188 C3192 1.368 . S
C3189 C3170 1.429 . S
C3189 C3183 1.429 . S
C3189 C3190 1.523 . S
C3190 C3171 1.368 1_556 S
C3190 C3184 1.368 . S
C3190 C3189 1.523 . S
C3191 C3175 1.429 . S
C3191 C3187 1.429 . S
C3191 C3192 1.523 . S
C3192 C3176 1.393 . S
C3192 C3188 1.368 . S
C3192 C3191 1.523 . S
H3193 C3168 0.950 . S
H3194 C3170 0.950 . S
H3195 C3171 0.949 . S
H3196 C3173 0.950 . S
H3197 C3175 0.950 . S
C3198 C3199 1.349 . S
C3198 C3200 1.327 . S
C3198 H3223 0.950 . S
C3199 C3198 1.349 . S
C3199 C3215 1.349 . S
C3200 C3198 1.327 . S
C3200 C3219 1.429 . S
C3200 H3224 0.950 . S
C3201 C3218 1.574 . S
C3201 C3220 1.368 . S
C3201 H3225 0.949 . S
H3202 C3206 0.949 . S
C3203 C3204 1.349 . S
C3203 C3205 1.327 . S
C3203 H3226 0.950 . S
C3204 C3203 1.349 . S
C3204 C3216 1.349 . S
C3205 C3203 1.327 . S
C3205 C3221 1.429 . S
C3205 H3227 0.950 . S
C3206 H3202 0.949 . S
C3206 C3214 1.574 . S
C3206 C3222 1.368 . S
H3207 C3215 0.950 . S
H3208 C3213 0.950 . S
H3209 C3214 0.949 . S
H3210 C3216 0.950 . S
H3211 C3217 0.950 . S
H3212 C3218 0.949 . S
C3213 H3208 0.950 . S
C3213 C3215 1.327 . S
C3213 C3219 1.429 . S
C3214 C3206 1.574 . S
C3214 H3209 0.949 . S
C3214 C3220 1.368 . S
C3215 C3199 1.349 . S
C3215 H3207 0.950 . S
C3215 C3213 1.327 . S
C3216 C3204 1.349 . S
C3216 H3210 0.950 . S
C3216 C3217 1.327 . S
C3217 H3211 0.950 . S
C3217 C3216 1.327 . S
C3217 C3221 1.429 . S
C3218 C3201 1.574 . S
C3218 H3212 0.949 . S
C3218 C3222 1.368 . S
C3219 C3200 1.429 . S
C3219 C3213 1.429 . S
C3219 C3220 1.523 . S
C3220 C3201 1.368 . S
C3220 C3214 1.368 . S
C3220 C3219 1.523 . S
C3221 C3205 1.429 . S
C3221 C3217 1.429 . S
C3221 C3222 1.523 . S
C3222 C3206 1.368 . S
C3222 C3218 1.368 . S
C3222 C3221 1.523 . S
H3223 C3198 0.950 . S
H3224 C3200 0.950 . S
H3225 C3201 0.949 . S
H3226 C3203 0.950 . S
H3227 C3205 0.950 . S
C3228 C3229 1.349 . S
C3228 C3230 1.327 . S
C3228 H3253 0.950 . S
C3229 C3228 1.349 . S
C3229 C3245 1.349 . S
C3230 C3228 1.327 . S
C3230 C3249 1.429 . S
C3230 H3254 0.950 . S
C3231 C3248 1.574 1_545 S
C3231 C3250 1.368 . S
C3231 H3255 0.949 . S
H3232 C3236 0.949 . S
C3233 C3234 1.349 . S
C3233 C3235 1.327 . S
C3233 H3256 0.950 . S
C3234 C3233 1.349 . S
C3234 C3246 1.349 . S
C3235 C3233 1.327 . S
C3235 C3251 1.429 . S
C3235 H3257 0.950 . S
C3236 H3232 0.949 . S
C3236 C3244 1.574 . S
C3236 C3252 1.368 . S
H3237 C3245 0.950 . S
H3238 C3243 0.950 . S
H3239 C3244 0.949 . S
H3240 C3246 0.950 . S
H3241 C3247 0.950 . S
H3242 C3248 0.949 . S
C3243 H3238 0.950 . S
C3243 C3245 1.327 . S
C3243 C3249 1.429 . S
C3244 C3236 1.574 . S
C3244 H3239 0.949 . S
C3244 C3250 1.368 1_565 S
C3245 C3229 1.349 . S
C3245 H3237 0.950 . S
C3245 C3243 1.327 . S
C3246 C3234 1.349 . S
C3246 H3240 0.950 . S
C3246 C3247 1.327 . S
C3247 H3241 0.950 . S
C3247 C3246 1.327 . S
C3247 C3251 1.429 . S
C3248 C3231 1.574 1_565 S
C3248 H3242 0.949 . S
C3248 C3252 1.368 . S
C3249 C3230 1.429 . S
C3249 C3243 1.429 . S
C3249 C3250 1.523 . S
C3250 C3231 1.368 . S
C3250 C3244 1.368 1_545 S
C3250 C3249 1.523 . S
C3251 C3235 1.429 . S
C3251 C3247 1.429 . S
C3251 C3252 1.523 . S
C3252 C3236 1.368 . S
C3252 C3248 1.368 . S
C3252 C3251 1.523 . S
H3253 C3228 0.950 . S
H3254 C3230 0.950 . S
H3255 C3231 0.949 . S
H3256 C3233 0.950 . S
H3257 C3235 0.950 . S
C3258 C3259 1.349 . S
C3258 C3260 1.327 . S
C3258 H3283 0.950 . S
C3259 C3258 1.349 . S
C3259 C3275 1.349 . S
C3260 C3258 1.327 . S
C3260 C3279 1.429 . S
C3260 H3284 0.950 . S
C3261 C3278 1.574 . S
C3261 C3280 1.368 . S
C3261 H3285 0.949 . S
H3262 C3266 0.949 . S
C3263 C3264 1.349 . S
C3263 C3265 1.327 . S
C3263 H3286 0.950 . S
C3264 C3263 1.349 . S
C3264 C3276 1.349 . S
C3265 C3263 1.327 . S
C3265 C3281 1.429 . S
C3265 H3287 0.950 . S
C3266 H3262 0.949 . S
C3266 C3274 1.574 1_554 S
C3266 C3282 1.368 . S
H3267 C3275 0.950 . S
H3268 C3273 0.950 . S
H3269 C3274 0.949 . S
H3270 C3276 0.950 . S
H3271 C3277 0.950 . S
H3272 C3278 0.949 . S
C3273 H3268 0.950 . S
C3273 C3275 1.327 . S
C3273 C3279 1.429 . S
C3274 C3266 1.574 1_556 S
C3274 H3269 0.949 . S
C3274 C3280 1.368 . S
C3275 C3259 1.349 . S
C3275 H3267 0.950 . S
C3275 C3273 1.327 . S
C3276 C3264 1.349 . S
C3276 H3270 0.950 . S
C3276 C3277 1.327 . S
C3277 H3271 0.950 . S
C3277 C3276 1.327 . S
C3277 C3281 1.429 . S
C3278 C3261 1.574 . S
C3278 H3272 0.949 . S
C3278 C3282 1.368 1_556 S
C3279 C3260 1.429 . S
C3279 C3273 1.429 . S
C3279 C3280 1.523 . S
C3280 C3261 1.368 . S
C3280 C3274 1.368 . S
C3280 C3279 1.523 . S
C3281 C3265 1.429 . S
C3281 C3277 1.429 . S
C3281 C3282 1.523 . S
C3282 C3266 1.368 . S
C3282 C3278 1.368 1_554 S
C3282 C3281 1.523 . S
H3283 C3258 0.950 . S
H3284 C3260 0.950 . S
H3285 C3261 0.949 . S
H3286 C3263 0.950 . S
H3287 C3265 0.950 . S
C3288 C3289 1.349 . S
C3288 C3290 1.327 . S
C3288 H3313 0.950 . S
C3289 C3288 1.349 . S
C3289 C3305 1.349 . S
C3290 C3288 1.327 . S
C3290 C3309 1.429 . S
C3290 H3314 0.950 . S
C3291 C3308 1.574 1_554 S
C3291 C3310 1.368 . S
C3291 H3315 0.949 . S
H3292 C3296 0.949 . S
C3293 C3294 1.349 . S
C3293 C3295 1.327 . S
C3293 H3316 0.950 . S
C3294 C3293 1.349 . S
C3294 C3306 1.349 . S
C3295 C3293 1.327 . S
C3295 C3311 1.429 . S
C3295 H3317 0.950 . S
C3296 H3292 0.949 . S
C3296 C3304 1.574 . S
C3296 C3312 1.368 1_554 S
H3297 C3305 0.950 . S
H3298 C3303 0.950 . S
H3299 C3304 0.949 . S
H3300 C3306 0.950 . S
H3301 C3307 0.950 . S
H3302 C3308 0.949 . S
C3303 H3298 0.950 . S
C3303 C3305 1.327 . S
C3303 C3309 1.429 . S
C3304 C3296 1.574 . S
C3304 H3299 0.949 . S
C3304 C3310 1.368 . S
C3305 C3289 1.349 . S
C3305 H3297 0.950 . S
C3305 C3303 1.327 . S
C3306 C3294 1.349 . S
C3306 H3300 0.950 . S
C3306 C3307 1.327 . S
C3307 H3301 0.950 . S
C3307 C3306 1.327 . S
C3307 C3311 1.429 . S
C3308 C3291 1.574 1_556 S
C3308 H3302 0.949 . S
C3308 C3312 1.368 . S
C3309 C3290 1.429 . S
C3309 C3303 1.429 . S
C3309 C3310 1.523 . S
C3310 C3291 1.368 . S
C3310 C3304 1.368 . S
C3310 C3309 1.523 . S
C3311 C3295 1.429 . S
C3311 C3307 1.429 . S
C3311 C3312 1.523 . S
C3312 C3296 1.368 1_556 S
C3312 C3308 1.368 . S
C3312 C3311 1.523 . S
H3313 C3288 0.950 . S
H3314 C3290 0.950 . S
H3315 C3291 0.949 . S
H3316 C3293 0.950 . S
H3317 C3295 0.950 . S
C3318 C3319 1.349 . S
C3318 C3320 1.327 . S
C3318 H3343 0.950 . S
C3319 C3318 1.349 . S
C3319 C3335 1.349 . S
C3320 C3318 1.327 . S
C3320 C3339 1.429 . S
C3320 H3344 0.950 . S
C3321 C3338 1.574 . S
C3321 C3340 1.368 . S
C3321 H3345 0.949 . S
H3322 C3326 0.949 . S
C3323 C3324 1.349 . S
C3323 C3325 1.327 . S
C3323 H3346 0.950 . S
C3324 C3323 1.349 . S
C3324 C3336 1.349 . S
C3325 C3323 1.327 . S
C3325 C3341 1.429 . S
C3325 H3347 0.950 . S
C3326 H3322 0.949 . S
C3326 C3334 1.574 . S
C3326 C3342 1.368 . S
H3327 C3335 0.950 . S
H3328 C3333 0.950 . S
H3329 C3334 0.949 . S
H3330 C3336 0.950 . S
H3331 C3337 0.950 . S
H3332 C3338 0.949 . S
C3333 H3328 0.950 . S
C3333 C3335 1.327 . S
C3333 C3339 1.429 . S
C3334 C3326 1.574 . S
C3334 H3329 0.949 . S
C3334 C3340 1.368 . S
C3335 C3319 1.349 . S
C3335 H3327 0.950 . S
C3335 C3333 1.327 . S
C3336 C3324 1.349 . S
C3336 H3330 0.950 . S
C3336 C3337 1.327 . S
C3337 H3331 0.950 . S
C3337 C3336 1.327 . S
C3337 C3341 1.429 . S
C3338 C3321 1.574 . S
C3338 H3332 0.949 . S
C3338 C3342 1.368 . S
C3339 C3320 1.429 . S
C3339 C3333 1.429 . S
C3339 C3340 1.523 . S
C3340 C3321 1.368 . S
C3340 C3334 1.368 . S
C3340 C3339 1.523 . S
C3341 C3325 1.429 . S
C3341 C3337 1.429 . S
C3341 C3342 1.523 . S
C3342 C3326 1.368 . S
C3342 C3338 1.368 . S
C3342 C3341 1.523 . S
H3343 C3318 0.950 . S
H3344 C3320 0.950 . S
H3345 C3321 0.949 . S
H3346 C3323 0.950 . S
H3347 C3325 0.950 . S
C3348 C3349 1.349 . S
C3348 C3350 1.327 . S
C3348 H3373 0.950 . S
C3349 C3348 1.349 . S
C3349 C3365 1.349 . S
C3350 C3348 1.327 . S
C3350 C3369 1.429 . S
C3350 H3374 0.950 . S
C3351 C3368 1.574 1_565 S
C3351 C3370 1.368 . S
C3351 H3375 0.949 . S
H3352 C3356 0.949 . S
C3353 C3354 1.349 . S
C3353 C3355 1.327 . S
C3353 H3376 0.950 . S
C3354 C3353 1.349 . S
C3354 C3366 1.349 . S
C3355 C3353 1.327 . S
C3355 C3371 1.429 . S
C3355 H3377 0.950 . S
C3356 H3352 0.949 . S
C3356 C3364 1.574 . S
C3356 C3372 1.368 1_565 S
H3357 C3365 0.950 . S
H3358 C3363 0.950 . S
H3359 C3364 0.949 . S
H3360 C3366 0.950 . S
H3361 C3367 0.950 . S
H3362 C3368 0.949 . S
C3363 H3358 0.950 . S
C3363 C3365 1.327 . S
C3363 C3369 1.429 . S
C3364 C3356 1.574 . S
C3364 H3359 0.949 . S
C3364 C3370 1.368 . S
C3365 C3349 1.349 . S
C3365 H3357 0.950 . S
C3365 C3363 1.327 . S
C3366 C3354 1.349 . S
C3366 H3360 0.950 . S
C3366 C3367 1.327 . S
C3367 H3361 0.950 . S
C3367 C3366 1.327 . S
C3367 C3371 1.429 . S
C3368 C3351 1.574 1_545 S
C3368 H3362 0.949 . S
C3368 C3372 1.368 . S
C3369 C3350 1.429 . S
C3369 C3363 1.429 . S
C3369 C3370 1.523 . S
C3370 C3351 1.368 . S
C3370 C3364 1.368 . S
C3370 C3369 1.523 . S
C3371 C3355 1.429 . S
C3371 C3367 1.429 . S
C3371 C3372 1.523 . S
C3372 C3356 1.368 1_545 S
C3372 C3368 1.368 . S
C3372 C3371 1.523 . S
H3373 C3348 0.950 . S
H3374 C3350 0.950 . S
H3375 C3351 0.949 . S
H3376 C3353 0.950 . S
H3377 C3355 0.950 . S
C3378 C3379 1.349 . S
C3378 C3380 1.327 . S
C3378 H3403 0.950 . S
C3379 C3378 1.349 . S
C3379 C3395 1.349 . S
C3380 C3378 1.327 . S
C3380 C3399 1.429 . S
C3380 H3404 0.950 . S
C3381 C3398 1.594 . S
C3381 C3400 1.339 1_655 S
C3381 H3405 0.958 . S
H3382 C3386 0.949 . S
C3383 C3384 1.349 . S
C3383 C3385 1.327 . S
C3383 H3406 0.950 . S
C3384 C3383 1.349 . S
C3384 C3396 1.349 . S
C3385 C3383 1.327 . S
C3385 C3401 1.429 . S
C3385 H3407 0.950 . S
C3386 H3382 0.949 . S
C3386 C3394 1.574 . S
C3386 C3402 1.368 1_455 S
H3387 C3395 0.950 . S
H3388 C3393 0.950 . S
H3389 C3394 0.949 . S
H3390 C3396 0.950 . S
H3391 C3397 0.992 . S
H3392 C3398 0.949 . S
C3393 H3388 0.950 . S
C3393 C3395 1.327 . S
C3393 C3399 1.429 . S
C3394 C3386 1.574 . S
C3394 H3389 0.949 . S
C3394 C3400 1.368 . S
C3395 C3379 1.349 . S
C3395 H3387 0.950 . S
C3395 C3393 1.327 . S
C3396 C3384 1.349 . S
C3396 H3390 0.950 . S
C3396 C3397 1.327 . S
C3397 H3391 0.992 . S
C3397 C3396 1.327 . S
C3397 C3401 1.429 . S
C3398 C3381 1.594 . S
C3398 H3392 0.949 . S
C3398 C3402 1.368 . S
C3399 C3380 1.429 . S
C3399 C3393 1.429 . S
C3399 C3400 1.523 . S
C3400 C3381 1.339 1_455 S
C3400 C3394 1.368 . S
C3400 C3399 1.523 . S
C3401 C3385 1.429 . S
C3401 C3397 1.429 . S
C3401 C3402 1.523 . S
C3402 C3386 1.368 1_655 S
C3402 C3398 1.368 . S
C3402 C3401 1.523 . S
H3403 C3378 0.950 . S
H3404 C3380 0.950 . S
H3405 C3381 0.958 . S
H3406 C3383 0.950 . S
H3407 C3385 0.950 . S
C3408 C3409 1.349 . S
C3408 C3410 1.327 . S
C3408 H3433 0.950 . S
C3409 C3408 1.349 . S
C3409 C3425 1.349 . S
C3410 C3408 1.327 . S
C3410 C3429 1.429 . S
C3410 H3434 0.950 . S
C3411 C3428 1.574 1_455 S
C3411 C3430 1.368 . S
C3411 H3435 0.949 . S
H3412 C3416 0.949 . S
C3413 C3414 1.349 . S
C3413 C3415 1.327 . S
C3413 H3436 0.950 . S
C3414 C3413 1.349 . S
C3414 C3426 1.349 . S
C3415 C3413 1.327 . S
C3415 C3431 1.429 . S
C3415 H3437 0.950 . S
C3416 H3412 0.949 . S
C3416 C3424 1.574 . S
C3416 C3432 1.368 . S
H3417 C3425 0.950 . S
H3418 C3423 0.950 . S
H3419 C3424 0.949 . S
H3420 C3426 0.950 . S
H3421 C3427 0.950 . S
H3422 C3428 0.949 . S
C3423 H3418 0.950 . S
C3423 C3425 1.327 . S
C3423 C3429 1.429 . S
C3424 C3416 1.574 . S
C3424 H3419 0.949 . S
C3424 C3430 1.368 1_655 S
C3425 C3409 1.349 . S
C3425 H3417 0.950 . S
C3425 C3423 1.327 . S
C3426 C3414 1.349 . S
C3426 H3420 0.950 . S
C3426 C3427 1.327 . S
C3427 H3421 0.950 . S
C3427 C3426 1.327 . S
C3427 C3431 1.429 . S
C3428 C3411 1.574 1_655 S
C3428 H3422 0.949 . S
C3428 C3432 1.368 . S
C3429 C3410 1.429 . S
C3429 C3423 1.429 . S
C3429 C3430 1.523 . S
C3430 C3411 1.368 . S
C3430 C3424 1.368 1_455 S
C3430 C3429 1.523 . S
C3431 C3415 1.429 . S
C3431 C3427 1.429 . S
C3431 C3432 1.523 . S
C3432 C3416 1.368 . S
C3432 C3428 1.368 . S
C3432 C3431 1.523 . S
H3433 C3408 0.950 . S
H3434 C3410 0.950 . S
H3435 C3411 0.949 . S
H3436 C3413 0.950 . S
H3437 C3415 0.950 . S
C3438 C3439 1.349 . S
C3438 C3440 1.327 . S
C3438 H3463 0.950 . S
C3439 C3438 1.349 . S
C3439 C3455 1.349 . S
C3440 C3438 1.327 . S
C3440 C3459 1.429 . S
C3440 H3464 0.950 . S
C3441 C3458 1.574 . S
C3441 C3460 1.368 . S
C3441 H3465 0.949 . S
H3442 C3446 0.949 . S
C3443 C3444 1.349 . S
C3443 C3445 1.327 . S
C3443 H3466 0.950 . S
C3444 C3443 1.349 . S
C3444 C3456 1.349 . S
C3445 C3443 1.327 . S
C3445 C3461 1.429 . S
C3445 H3467 0.950 . S
C3446 H3442 0.949 . S
C3446 C3454 1.574 . S
C3446 C3462 1.368 . S
H3447 C3455 0.950 . S
H3448 C3453 0.950 . S
H3449 C3454 0.949 . S
H3450 C3456 0.950 . S
H3451 C3457 0.950 . S
H3452 C3458 0.949 . S
C3453 H3448 0.950 . S
C3453 C3455 1.327 . S
C3453 C3459 1.429 . S
C3454 C3446 1.574 . S
C3454 H3449 0.949 . S
C3454 C3460 1.368 . S
C3455 C3439 1.349 . S
C3455 H3447 0.950 . S
C3455 C3453 1.327 . S
C3456 C3444 1.349 . S
C3456 H3450 0.950 . S
C3456 C3457 1.327 . S
C3457 H3451 0.950 . S
C3457 C3456 1.327 . S
C3457 C3461 1.429 . S
C3458 C3441 1.574 . S
C3458 H3452 0.949 . S
C3458 C3462 1.368 . S
C3459 C3440 1.429 . S
C3459 C3453 1.429 . S
C3459 C3460 1.523 . S
C3460 C3441 1.368 . S
C3460 C3454 1.368 . S
C3460 C3459 1.523 . S
C3461 C3445 1.429 . S
C3461 C3457 1.429 . S
C3461 C3462 1.523 . S
C3462 C3446 1.368 . S
C3462 C3458 1.368 . S
C3462 C3461 1.523 . S
H3463 C3438 0.950 . S
H3464 C3440 0.950 . S
H3465 C3441 0.949 . S
H3466 C3443 0.950 . S
H3467 C3445 0.950 . S
C3468 C3469 1.349 . S
C3468 C3470 1.327 . S
C3468 H3493 0.950 . S
C3469 C3468 1.349 . S
C3469 C3485 1.349 . S
C3470 C3468 1.327 . S
C3470 C3489 1.429 . S
C3470 H3494 0.950 . S
C3471 C3488 1.574 . S
C3471 C3490 1.368 . S
C3471 H3495 0.949 . S
H3472 C3476 0.949 . S
C3473 C3474 1.349 . S
C3473 C3475 1.327 . S
C3473 H3496 0.950 . S
C3474 C3473 1.349 . S
C3474 C3486 1.349 . S
C3475 C3473 1.327 . S
C3475 C3491 1.429 . S
C3475 H3497 0.950 . S
C3476 H3472 0.949 . S
C3476 C3484 1.574 . S
C3476 C3492 1.368 . S
H3477 C3485 0.950 . S
H3478 C3483 0.950 . S
H3479 C3484 0.949 . S
H3480 C3486 0.950 . S
H3481 C3487 0.950 . S
H3482 C3488 0.949 . S
C3483 H3478 0.950 . S
C3483 C3485 1.327 . S
C3483 C3489 1.429 . S
C3484 C3476 1.574 . S
C3484 H3479 0.949 . S
C3484 C3490 1.368 . S
C3485 C3469 1.349 . S
C3485 H3477 0.950 . S
C3485 C3483 1.327 . S
C3486 C3474 1.349 . S
C3486 H3480 0.950 . S
C3486 C3487 1.327 . S
C3487 H3481 0.950 . S
C3487 C3486 1.327 . S
C3487 C3491 1.429 . S
C3488 C3471 1.574 . S
C3488 H3482 0.949 . S
C3488 C3492 1.368 . S
C3489 C3470 1.429 . S
C3489 C3483 1.429 . S
C3489 C3490 1.523 . S
C3490 C3471 1.368 . S
C3490 C3484 1.368 . S
C3490 C3489 1.523 . S
C3491 C3475 1.429 . S
C3491 C3487 1.429 . S
C3491 C3492 1.523 . S
C3492 C3476 1.368 . S
C3492 C3488 1.368 . S
C3492 C3491 1.523 . S
H3493 C3468 0.950 . S
H3494 C3470 0.950 . S
H3495 C3471 0.949 . S
H3496 C3473 0.950 . S
H3497 C3475 0.950 . S
C3498 C3499 1.349 . S
C3498 C3500 1.327 . S
C3498 H3523 0.950 . S
C3499 C3498 1.349 . S
C3499 C3515 1.349 . S
C3500 C3498 1.327 . S
C3500 C3519 1.429 . S
C3500 H3524 0.950 . S
C3501 C3518 1.574 . S
C3501 C3520 1.368 . S
C3501 H3525 0.949 . S
H3502 C3506 0.949 . S
C3503 C3504 1.349 . S
C3503 C3505 1.327 . S
C3503 H3526 0.950 . S
C3504 C3503 1.349 . S
C3504 C3516 1.349 . S
C3505 C3503 1.327 . S
C3505 C3521 1.429 . S
C3505 H3527 0.950 . S
C3506 H3502 0.949 . S
C3506 C3514 1.574 . S
C3506 C3522 1.368 . S
H3507 C3515 0.950 . S
H3508 C3513 0.950 . S
H3509 C3514 0.949 . S
H3510 C3516 0.950 . S
H3511 C3517 0.950 . S
H3512 C3518 0.949 . S
C3513 H3508 0.950 . S
C3513 C3515 1.327 . S
C3513 C3519 1.429 . S
C3514 C3506 1.574 . S
C3514 H3509 0.949 . S
C3514 C3520 1.368 . S
C3515 C3499 1.349 . S
C3515 H3507 0.950 . S
C3515 C3513 1.327 . S
C3516 C3504 1.349 . S
C3516 H3510 0.950 . S
C3516 C3517 1.327 . S
C3517 H3511 0.950 . S
C3517 C3516 1.327 . S
C3517 C3521 1.429 . S
C3518 C3501 1.574 . S
C3518 H3512 0.949 . S
C3518 C3522 1.368 . S
C3519 C3500 1.429 . S
C3519 C3513 1.429 . S
C3519 C3520 1.523 . S
C3520 C3501 1.368 . S
C3520 C3514 1.368 . S
C3520 C3519 1.523 . S
C3521 C3505 1.429 . S
C3521 C3517 1.429 . S
C3521 C3522 1.523 . S
C3522 C3506 1.368 . S
C3522 C3518 1.368 . S
C3522 C3521 1.523 . S
H3523 C3498 0.950 . S
H3524 C3500 0.950 . S
H3525 C3501 0.949 . S
H3526 C3503 0.950 . S
H3527 C3505 0.950 . S
C3528 C3529 1.349 . S
C3528 C3530 1.327 . S
C3528 H3553 0.950 . S
C3529 C3528 1.349 . S
C3529 C3545 1.349 . S
C3530 C3528 1.327 . S
C3530 C3549 1.429 . S
C3530 H3554 0.950 . S
C3531 C3548 1.573 1_554 S
C3531 C3550 1.368 . S
C3531 H3555 0.949 . S
H3532 C3536 0.949 . S
C3533 C3534 1.349 . S
C3533 C3535 1.327 . S
C3533 H3556 0.950 . S
C3534 C3533 1.349 . S
C3534 C3546 1.349 . S
C3535 C3533 1.327 . S
C3535 C3551 1.429 . S
C3535 H3557 0.950 . S
C3536 H3532 0.949 . S
C3536 C3544 1.574 1_556 S
C3536 C3552 1.368 . S
H3537 C3545 0.950 . S
H3538 C3543 0.950 . S
H3539 C3544 0.949 . S
H3540 C3546 0.950 . S
H3541 C3547 0.950 . S
H3542 C3548 0.949 . S
C3543 H3538 0.950 . S
C3543 C3545 1.327 . S
C3543 C3549 1.429 . S
C3544 C3536 1.574 1_554 S
C3544 H3539 0.949 . S
C3544 C3550 1.368 . S
C3545 C3529 1.349 . S
C3545 H3537 0.950 . S
C3545 C3543 1.327 . S
C3546 C3534 1.349 . S
C3546 H3540 0.950 . S
C3546 C3547 1.327 . S
C3547 H3541 0.950 . S
C3547 C3546 1.327 . S
C3547 C3551 1.429 . S
C3548 C3531 1.573 1_556 S
C3548 H3542 0.949 . S
C3548 C3552 1.368 . S
C3549 C3530 1.429 . S
C3549 C3543 1.429 . S
C3549 C3550 1.523 . S
C3550 C3531 1.368 . S
C3550 C3544 1.368 . S
C3550 C3549 1.523 . S
C3551 C3535 1.429 . S
C3551 C3547 1.429 . S
C3551 C3552 1.523 . S
C3552 C3536 1.368 . S
C3552 C3548 1.368 . S
C3552 C3551 1.523 . S
H3553 C3528 0.950 . S
H3554 C3530 0.950 . S
H3555 C3531 0.949 . S
H3556 C3533 0.950 . S
H3557 C3535 0.950 . S
C3558 C3559 1.349 . S
C3558 C3560 1.327 . S
C3558 H3583 0.950 . S
C3559 C3558 1.349 . S
C3559 C3575 1.349 . S
C3560 C3558 1.327 . S
C3560 C3579 1.429 . S
C3560 H3584 0.950 . S
C3561 C3578 1.574 . S
C3561 C3580 1.368 . S
C3561 H3585 0.949 . S
H3562 C3566 0.949 . S
C3563 C3564 1.349 . S
C3563 C3565 1.327 . S
C3563 H3586 0.950 . S
C3564 C3563 1.349 . S
C3564 C3576 1.349 . S
C3565 C3563 1.327 . S
C3565 C3581 1.429 . S
C3565 H3587 0.950 . S
C3566 H3562 0.949 . S
C3566 C3574 1.574 1_545 S
C3566 C3582 1.368 . S
H3567 C3575 0.950 . S
H3568 C3573 0.950 . S
H3569 C3574 0.949 . S
H3570 C3576 0.950 . S
H3571 C3577 0.950 . S
H3572 C3578 0.949 . S
C3573 H3568 0.950 . S
C3573 C3575 1.327 . S
C3573 C3579 1.429 . S
C3574 C3566 1.574 1_565 S
C3574 H3569 0.949 . S
C3574 C3580 1.368 . S
C3575 C3559 1.349 . S
C3575 H3567 0.950 . S
C3575 C3573 1.327 . S
C3576 C3564 1.349 . S
C3576 H3570 0.950 . S
C3576 C3577 1.327 . S
C3577 H3571 0.950 . S
C3577 C3576 1.327 . S
C3577 C3581 1.429 . S
C3578 C3561 1.574 . S
C3578 H3572 0.949 . S
C3578 C3582 1.368 1_565 S
C3579 C3560 1.429 . S
C3579 C3573 1.429 . S
C3579 C3580 1.523 . S
C3580 C3561 1.368 . S
C3580 C3574 1.368 . S
C3580 C3579 1.523 . S
C3581 C3565 1.429 . S
C3581 C3577 1.429 . S
C3581 C3582 1.523 . S
C3582 C3566 1.368 . S
C3582 C3578 1.368 1_545 S
C3582 C3581 1.523 . S
H3583 C3558 0.950 . S
H3584 C3560 0.950 . S
H3585 C3561 0.949 . S
H3586 C3563 0.950 . S
H3587 C3565 0.950 . S
C3588 C3589 1.349 . S
C3588 C3590 1.327 . S
C3588 H3613 0.950 . S
C3589 C3588 1.349 . S
C3589 C3605 1.349 . S
C3590 C3588 1.327 . S
C3590 C3609 1.429 . S
C3590 H3614 0.950 . S
C3591 C3608 1.574 . S
C3591 C3610 1.368 . S
C3591 H3615 0.949 . S
H3592 C3596 0.949 . S
C3593 C3594 1.349 . S
C3593 C3595 1.327 . S
C3593 H3616 0.950 . S
C3594 C3593 1.349 . S
C3594 C3606 1.349 . S
C3595 C3593 1.327 . S
C3595 C3611 1.429 . S
C3595 H3617 0.950 . S
C3596 H3592 0.949 . S
C3596 C3604 1.574 . S
C3596 C3612 1.368 . S
H3597 C3605 0.950 . S
H3598 C3603 0.950 . S
H3599 C3604 0.949 . S
H3600 C3606 0.950 . S
H3601 C3607 0.950 . S
H3602 C3608 0.949 . S
C3603 H3598 0.950 . S
C3603 C3605 1.327 . S
C3603 C3609 1.429 . S
C3604 C3596 1.574 . S
C3604 H3599 0.949 . S
C3604 C3610 1.368 . S
C3605 C3589 1.349 . S
C3605 H3597 0.950 . S
C3605 C3603 1.327 . S
C3606 C3594 1.349 . S
C3606 H3600 0.950 . S
C3606 C3607 1.327 . S
C3607 H3601 0.950 . S
C3607 C3606 1.327 . S
C3607 C3611 1.429 . S
C3608 C3591 1.574 . S
C3608 H3602 0.949 . S
C3608 C3612 1.368 . S
C3609 C3590 1.429 . S
C3609 C3603 1.429 . S
C3609 C3610 1.523 . S
C3610 C3591 1.368 . S
C3610 C3604 1.368 . S
C3610 C3609 1.523 . S
C3611 C3595 1.429 . S
C3611 C3607 1.429 . S
C3611 C3612 1.523 . S
C3612 C3596 1.368 . S
C3612 C3608 1.368 . S
C3612 C3611 1.523 . S
H3613 C3588 0.950 . S
H3614 C3590 0.950 . S
H3615 C3591 0.949 . S
H3616 C3593 0.950 . S
H3617 C3595 0.950 . S
C3618 C3619 1.349 . S
C3618 C3620 1.327 . S
C3618 H3643 0.950 . S
C3619 C3618 1.349 . S
C3619 C3635 1.349 . S
C3620 C3618 1.327 . S
C3620 C3639 1.429 . S
C3620 H3644 0.950 . S
C3621 C3638 1.574 . S
C3621 C3640 1.368 . S
C3621 H3645 0.949 . S
H3622 C3626 0.949 . S
C3623 C3624 1.349 . S
C3623 C3625 1.327 . S
C3623 H3646 0.950 . S
C3624 C3623 1.349 . S
C3624 C3636 1.349 . S
C3625 C3623 1.327 . S
C3625 C3641 1.429 . S
C3625 H3647 0.950 . S
C3626 H3622 0.949 . S
C3626 C3634 1.574 . S
C3626 C3642 1.368 . S
H3627 C3635 0.950 . S
H3628 C3633 0.950 . S
H3629 C3634 0.949 . S
H3630 C3636 0.950 . S
H3631 C3637 0.950 . S
H3632 C3638 0.949 . S
C3633 H3628 0.950 . S
C3633 C3635 1.327 . S
C3633 C3639 1.429 . S
C3634 C3626 1.574 . S
C3634 H3629 0.949 . S
C3634 C3640 1.368 . S
C3635 C3619 1.349 . S
C3635 H3627 0.950 . S
C3635 C3633 1.327 . S
C3636 C3624 1.349 . S
C3636 H3630 0.950 . S
C3636 C3637 1.327 . S
C3637 H3631 0.950 . S
C3637 C3636 1.327 . S
C3637 C3641 1.429 . S
C3638 C3621 1.574 . S
C3638 H3632 0.949 . S
C3638 C3642 1.368 . S
C3639 C3620 1.429 . S
C3639 C3633 1.429 . S
C3639 C3640 1.523 . S
C3640 C3621 1.368 . S
C3640 C3634 1.368 . S
C3640 C3639 1.523 . S
C3641 C3625 1.429 . S
C3641 C3637 1.429 . S
C3641 C3642 1.523 . S
C3642 C3626 1.368 . S
C3642 C3638 1.368 . S
C3642 C3641 1.523 . S
H3643 C3618 0.950 . S
H3644 C3620 0.950 . S
H3645 C3621 0.949 . S
H3646 C3623 0.950 . S
H3647 C3625 0.950 . S
C3648 C3649 1.349 . S
C3648 C3650 1.327 . S
C3648 H3673 0.950 . S
C3649 C3648 1.349 . S
C3649 C3665 1.349 . S
C3650 C3648 1.327 . S
C3650 C3669 1.429 . S
C3650 H3674 0.950 . S
C3651 C3668 1.574 . S
C3651 C3670 1.368 . S
C3651 H3675 0.949 . S
H3652 C3656 0.949 . S
C3653 C3654 1.349 . S
C3653 C3655 1.327 . S
C3653 H3676 0.950 . S
C3654 C3653 1.349 . S
C3654 C3666 1.349 . S
C3655 C3653 1.327 . S
C3655 C3671 1.429 . S
C3655 H3677 0.950 . S
C3656 H3652 0.949 . S
C3656 C3664 1.574 . S
C3656 C3672 1.368 . S
H3657 C3665 0.950 . S
H3658 C3663 0.950 . S
H3659 C3664 0.949 . S
H3660 C3666 0.950 . S
H3661 C3667 0.950 . S
H3662 C3668 0.949 . S
C3663 H3658 0.950 . S
C3663 C3665 1.327 . S
C3663 C3669 1.429 . S
C3664 C3656 1.574 . S
C3664 H3659 0.949 . S
C3664 C3670 1.368 . S
C3665 C3649 1.349 . S
C3665 H3657 0.950 . S
C3665 C3663 1.327 . S
C3666 C3654 1.349 . S
C3666 H3660 0.950 . S
C3666 C3667 1.327 . S
C3667 H3661 0.950 . S
C3667 C3666 1.327 . S
C3667 C3671 1.429 . S
C3668 C3651 1.574 . S
C3668 H3662 0.949 . S
C3668 C3672 1.368 . S
C3669 C3650 1.429 . S
C3669 C3663 1.429 . S
C3669 C3670 1.523 . S
C3670 C3651 1.368 . S
C3670 C3664 1.368 . S
C3670 C3669 1.523 . S
C3671 C3655 1.429 . S
C3671 C3667 1.429 . S
C3671 C3672 1.523 . S
C3672 C3656 1.368 . S
C3672 C3668 1.368 . S
C3672 C3671 1.523 . S
H3673 C3648 0.950 . S
H3674 C3650 0.950 . S
H3675 C3651 0.949 . S
H3676 C3653 0.950 . S
H3677 C3655 0.950 . S
C3678 C3679 1.349 . S
C3678 C3680 1.327 . S
C3678 H3703 0.950 . S
C3679 C3678 1.349 . S
C3679 C3695 1.349 . S
C3680 C3678 1.327 . S
C3680 C3699 1.429 . S
C3680 H3704 0.950 . S
C3681 C3698 1.574 . S
C3681 C3700 1.368 1_545 S
C3681 H3705 0.949 . S
H3682 C3686 0.949 . S
C3683 C3684 1.349 . S
C3683 C3685 1.327 . S
C3683 H3706 0.950 . S
C3684 C3683 1.349 . S
C3684 C3696 1.349 . S
C3685 C3683 1.327 . S
C3685 C3701 1.429 . S
C3685 H3707 0.950 . S
C3686 H3682 0.949 . S
C3686 C3694 1.574 1_545 S
C3686 C3702 1.368 . S
H3687 C3695 0.950 . S
H3688 C3693 0.950 . S
H3689 C3694 0.949 . S
H3690 C3696 0.950 . S
H3691 C3697 0.950 . S
H3692 C3698 0.949 . S
C3693 H3688 0.950 . S
C3693 C3695 1.327 . S
C3693 C3699 1.429 . S
C3694 C3686 1.574 1_565 S
C3694 H3689 0.949 . S
C3694 C3700 1.368 . S
C3695 C3679 1.349 . S
C3695 H3687 0.950 . S
C3695 C3693 1.327 . S
C3696 C3684 1.349 . S
C3696 H3690 0.950 . S
C3696 C3697 1.327 . S
C3697 H3691 0.950 . S
C3697 C3696 1.327 . S
C3697 C3701 1.429 . S
C3698 C3681 1.574 . S
C3698 H3692 0.949 . S
C3698 C3702 1.368 . S
C3699 C3680 1.429 . S
C3699 C3693 1.429 . S
C3699 C3700 1.523 . S
C3700 C3681 1.368 1_565 S
C3700 C3694 1.368 . S
C3700 C3699 1.523 . S
C3701 C3685 1.429 . S
C3701 C3697 1.429 . S
C3701 C3702 1.523 . S
C3702 C3686 1.368 . S
C3702 C3698 1.368 . S
C3702 C3701 1.523 . S
H3703 C3678 0.950 . S
H3704 C3680 0.950 . S
H3705 C3681 0.949 . S
H3706 C3683 0.950 . S
H3707 C3685 0.950 . S
C3708 C3709 1.349 . S
C3708 C3710 1.327 . S
C3708 H3733 0.950 . S
C3709 C3708 1.349 . S
C3709 C3725 1.349 . S
C3710 C3708 1.327 . S
C3710 C3729 1.429 . S
C3710 H3734 0.950 . S
C3711 C3728 1.594 . S
C3711 C3730 1.339 1_556 S
C3711 H3735 0.958 . S
H3712 C3716 0.949 . S
C3713 C3714 1.349 . S
C3713 C3715 1.327 . S
C3713 H3736 0.950 . S
C3714 C3713 1.349 . S
C3714 C3726 1.349 . S
C3715 C3713 1.327 . S
C3715 C3731 1.429 . S
C3715 H3737 0.950 . S
C3716 H3712 0.949 . S
C3716 C3724 1.574 . S
C3716 C3732 1.368 1_554 S
H3717 C3725 0.950 . S
H3718 C3723 0.950 . S
H3719 C3724 0.949 . S
H3720 C3726 0.950 . S
H3721 C3727 0.992 . S
H3722 C3728 0.949 . S
C3723 H3718 0.950 . S
C3723 C3725 1.327 . S
C3723 C3729 1.429 . S
C3724 C3716 1.574 . S
C3724 H3719 0.949 . S
C3724 C3730 1.368 . S
C3725 C3709 1.349 . S
C3725 H3717 0.950 . S
C3725 C3723 1.327 . S
C3726 C3714 1.349 . S
C3726 H3720 0.950 . S
C3726 C3727 1.327 . S
C3727 H3721 0.992 . S
C3727 C3726 1.327 . S
C3727 C3731 1.429 . S
C3728 C3711 1.594 . S
C3728 H3722 0.949 . S
C3728 C3732 1.368 . S
C3729 C3710 1.429 . S
C3729 C3723 1.429 . S
C3729 C3730 1.523 . S
C3730 C3711 1.339 1_554 S
C3730 C3724 1.368 . S
C3730 C3729 1.523 . S
C3731 C3715 1.429 . S
C3731 C3727 1.429 . S
C3731 C3732 1.523 . S
C3732 C3716 1.368 1_556 S
C3732 C3728 1.368 . S
C3732 C3731 1.523 . S
H3733 C3708 0.950 . S
H3734 C3710 0.950 . S
H3735 C3711 0.958 . S
H3736 C3713 0.950 . S
H3737 C3715 0.950 . S
C3738 C3739 1.349 . S
C3738 C3740 1.327 . S
C3738 H3763 0.950 . S
C3739 C3738 1.349 . S
C3739 C3755 1.349 . S
C3740 C3738 1.327 . S
C3740 C3759 1.429 . S
C3740 H3764 0.950 . S
C3741 C3758 1.574 . S
C3741 C3760 1.368 . S
C3741 H3765 0.949 . S
H3742 C3746 0.949 . S
C3743 C3744 1.349 . S
C3743 C3745 1.327 . S
C3743 H3766 0.950 . S
C3744 C3743 1.349 . S
C3744 C3756 1.349 . S
C3745 C3743 1.327 . S
C3745 C3761 1.429 . S
C3745 H3767 0.950 . S
C3746 H3742 0.949 . S
C3746 C3754 1.574 . S
C3746 C3762 1.368 . S
H3747 C3755 0.950 . S
H3748 C3753 0.950 . S
H3749 C3754 0.949 . S
H3750 C3756 0.950 . S
H3751 C3757 0.950 . S
H3752 C3758 0.949 . S
C3753 H3748 0.950 . S
C3753 C3755 1.327 . S
C3753 C3759 1.429 . S
C3754 C3746 1.574 . S
C3754 H3749 0.949 . S
C3754 C3760 1.368 . S
C3755 C3739 1.349 . S
C3755 H3747 0.950 . S
C3755 C3753 1.327 . S
C3756 C3744 1.349 . S
C3756 H3750 0.950 . S
C3756 C3757 1.327 . S
C3757 H3751 0.950 . S
C3757 C3756 1.327 . S
C3757 C3761 1.429 . S
C3758 C3741 1.574 . S
C3758 H3752 0.949 . S
C3758 C3762 1.368 . S
C3759 C3740 1.429 . S
C3759 C3753 1.429 . S
C3759 C3760 1.523 . S
C3760 C3741 1.368 . S
C3760 C3754 1.368 . S
C3760 C3759 1.523 . S
C3761 C3745 1.429 . S
C3761 C3757 1.429 . S
C3761 C3762 1.523 . S
C3762 C3746 1.368 . S
C3762 C3758 1.368 . S
C3762 C3761 1.523 . S
H3763 C3738 0.950 . S
H3764 C3740 0.950 . S
H3765 C3741 0.949 . S
H3766 C3743 0.950 . S
H3767 C3745 0.950 . S
C3768 C3769 1.349 . S
C3768 C3770 1.327 . S
C3768 H3793 0.950 . S
C3769 C3768 1.349 . S
C3769 C3785 1.349 . S
C3770 C3768 1.327 . S
C3770 C3789 1.429 . S
C3770 H3794 0.950 . S
C3771 C3788 1.574 1_556 S
C3771 C3790 1.368 . S
C3771 H3795 0.949 . S
H3772 C3776 0.957 . S
C3773 C3774 1.349 . S
C3773 C3775 1.327 . S
C3773 H3796 0.950 . S
C3774 C3773 1.349 . S
C3774 C3786 1.349 . S
C3775 C3773 1.327 . S
C3775 C3791 1.429 . S
C3775 H3797 0.950 . S
C3776 H3772 0.957 . S
C3776 C3784 1.558 1_554 S
C3776 C3792 1.376 . S
H3777 C3785 0.950 . S
H3778 C3783 0.950 . S
H3779 C3784 0.949 . S
H3780 C3786 0.950 . S
H3781 C3787 0.950 . S
H3782 C3788 0.949 . S
C3783 H3778 0.950 . S
C3783 C3785 1.327 . S
C3783 C3789 1.429 . S
C3784 C3776 1.558 1_556 S
C3784 H3779 0.949 . S
C3784 C3790 1.368 . S
C3785 C3769 1.349 . S
C3785 H3777 0.950 . S
C3785 C3783 1.327 . S
C3786 C3774 1.349 . S
C3786 H3780 0.950 . S
C3786 C3787 1.327 . S
C3787 H3781 0.950 . S
C3787 C3786 1.327 . S
C3787 C3791 1.429 . S
C3788 C3771 1.574 1_554 S
C3788 H3782 0.949 . S
C3788 C3792 1.368 . S
C3789 C3770 1.429 . S
C3789 C3783 1.429 . S
C3789 C3790 1.523 . S
C3790 C3771 1.368 . S
C3790 C3784 1.368 . S
C3790 C3789 1.523 . S
C3791 C3775 1.429 . S
C3791 C3787 1.429 . S
C3791 C3792 1.523 . S
C3792 C3776 1.376 . S
C3792 C3788 1.368 . S
C3792 C3791 1.523 . S
H3793 C3768 0.950 . S
H3794 C3770 0.950 . S
H3795 C3771 0.949 . S
H3796 C3773 0.950 . S
H3797 C3775 0.950 . S
C3798 C3799 1.349 . S
C3798 C3800 1.327 . S
C3798 H3823 0.950 . S
C3799 C3798 1.349 . S
C3799 C3815 1.349 . S
C3800 C3798 1.327 . S
C3800 C3819 1.429 . S
C3800 H3824 0.950 . S
C3801 C3818 1.574 . S
C3801 C3820 1.368 . S
C3801 H3825 0.949 . S
H3802 C3806 0.949 . S
C3803 C3804 1.349 . S
C3803 C3805 1.327 . S
C3803 H3826 0.950 . S
C3804 C3803 1.349 . S
C3804 C3816 1.349 . S
C3805 C3803 1.327 . S
C3805 C3821 1.429 . S
C3805 H3827 0.950 . S
C3806 H3802 0.949 . S
C3806 C3814 1.574 . S
C3806 C3822 1.368 . S
H3807 C3815 0.950 . S
H3808 C3813 0.950 . S
H3809 C3814 0.949 . S
H3810 C3816 0.950 . S
H3811 C3817 0.950 . S
H3812 C3818 0.949 . S
C3813 H3808 0.950 . S
C3813 C3815 1.327 . S
C3813 C3819 1.429 . S
C3814 C3806 1.574 . S
C3814 H3809 0.949 . S
C3814 C3820 1.368 . S
C3815 C3799 1.349 . S
C3815 H3807 0.950 . S
C3815 C3813 1.327 . S
C3816 C3804 1.349 . S
C3816 H3810 0.950 . S
C3816 C3817 1.327 . S
C3817 H3811 0.950 . S
C3817 C3816 1.327 . S
C3817 C3821 1.429 . S
C3818 C3801 1.574 . S
C3818 H3812 0.949 . S
C3818 C3822 1.368 . S
C3819 C3800 1.429 . S
C3819 C3813 1.429 . S
C3819 C3820 1.523 . S
C3820 C3801 1.368 . S
C3820 C3814 1.368 . S
C3820 C3819 1.523 . S
C3821 C3805 1.429 . S
C3821 C3817 1.429 . S
C3821 C3822 1.523 . S
C3822 C3806 1.368 . S
C3822 C3818 1.368 . S
C3822 C3821 1.523 . S
H3823 C3798 0.950 . S
H3824 C3800 0.950 . S
H3825 C3801 0.949 . S
H3826 C3803 0.950 . S
H3827 C3805 0.950 . S
C3828 C3829 1.349 . S
C3828 C3830 1.327 . S
C3828 H3853 0.950 . S
C3829 C3828 1.349 . S
C3829 C3845 1.349 . S
C3830 C3828 1.327 . S
C3830 C3849 1.429 . S
C3830 H3854 0.950 . S
C3831 C3848 1.574 . S
C3831 C3850 1.368 . S
C3831 H3855 0.949 . S
H3832 C3836 0.949 . S
C3833 C3834 1.349 . S
C3833 C3835 1.327 . S
C3833 H3856 0.950 . S
C3834 C3833 1.349 . S
C3834 C3846 1.349 . S
C3835 C3833 1.327 . S
C3835 C3851 1.429 . S
C3835 H3857 0.950 . S
C3836 H3832 0.949 . S
C3836 C3844 1.574 . S
C3836 C3852 1.368 . S
H3837 C3845 0.950 . S
H3838 C3843 0.950 . S
H3839 C3844 0.949 . S
H3840 C3846 0.950 . S
H3841 C3847 0.950 . S
H3842 C3848 0.949 . S
C3843 H3838 0.950 . S
C3843 C3845 1.327 . S
C3843 C3849 1.429 . S
C3844 C3836 1.574 . S
C3844 H3839 0.949 . S
C3844 C3850 1.368 . S
C3845 C3829 1.349 . S
C3845 H3837 0.950 . S
C3845 C3843 1.327 . S
C3846 C3834 1.349 . S
C3846 H3840 0.950 . S
C3846 C3847 1.327 . S
C3847 H3841 0.950 . S
C3847 C3846 1.327 . S
C3847 C3851 1.429 . S
C3848 C3831 1.574 . S
C3848 H3842 0.949 . S
C3848 C3852 1.368 . S
C3849 C3830 1.429 . S
C3849 C3843 1.429 . S
C3849 C3850 1.523 . S
C3850 C3831 1.368 . S
C3850 C3844 1.368 . S
C3850 C3849 1.523 . S
C3851 C3835 1.429 . S
C3851 C3847 1.429 . S
C3851 C3852 1.523 . S
C3852 C3836 1.368 . S
C3852 C3848 1.368 . S
C3852 C3851 1.523 . S
H3853 C3828 0.950 . S
H3854 C3830 0.950 . S
H3855 C3831 0.949 . S
H3856 C3833 0.950 . S
H3857 C3835 0.950 . S
C3858 C3859 1.349 . S
C3858 C3860 1.327 . S
C3858 H3883 0.950 . S
C3859 C3858 1.349 . S
C3859 C3875 1.349 . S
C3860 C3858 1.327 . S
C3860 C3879 1.429 . S
C3860 H3884 0.950 . S
C3861 C3878 1.574 . S
C3861 C3880 1.368 . S
C3861 H3885 0.949 . S
H3862 C3866 0.949 . S
C3863 C3864 1.349 . S
C3863 C3865 1.327 . S
C3863 H3886 0.950 . S
C3864 C3863 1.349 . S
C3864 C3876 1.349 . S
C3865 C3863 1.327 . S
C3865 C3881 1.429 . S
C3865 H3887 0.950 . S
C3866 H3862 0.949 . S
C3866 C3874 1.574 . S
C3866 C3882 1.368 . S
H3867 C3875 0.950 . S
H3868 C3873 0.950 . S
H3869 C3874 0.949 . S
H3870 C3876 0.950 . S
H3871 C3877 0.950 . S
H3872 C3878 0.949 . S
C3873 H3868 0.950 . S
C3873 C3875 1.327 . S
C3873 C3879 1.429 . S
C3874 C3866 1.574 . S
C3874 H3869 0.949 . S
C3874 C3880 1.368 . S
C3875 C3859 1.349 . S
C3875 H3867 0.950 . S
C3875 C3873 1.327 . S
C3876 C3864 1.349 . S
C3876 H3870 0.950 . S
C3876 C3877 1.327 . S
C3877 H3871 0.950 . S
C3877 C3876 1.327 . S
C3877 C3881 1.429 . S
C3878 C3861 1.574 . S
C3878 H3872 0.949 . S
C3878 C3882 1.368 . S
C3879 C3860 1.429 . S
C3879 C3873 1.429 . S
C3879 C3880 1.523 . S
C3880 C3861 1.368 . S
C3880 C3874 1.368 . S
C3880 C3879 1.523 . S
C3881 C3865 1.429 . S
C3881 C3877 1.429 . S
C3881 C3882 1.523 . S
C3882 C3866 1.368 . S
C3882 C3878 1.368 . S
C3882 C3881 1.523 . S
H3883 C3858 0.950 . S
H3884 C3860 0.950 . S
H3885 C3861 0.949 . S
H3886 C3863 0.950 . S
H3887 C3865 0.950 . S
C3888 C3889 1.349 . S
C3888 C3890 1.327 . S
C3888 H3913 0.950 . S
C3889 C3888 1.349 . S
C3889 C3905 1.349 . S
C3890 C3888 1.327 . S
C3890 C3909 1.429 . S
C3890 H3914 0.950 . S
C3891 C3908 1.574 . S
C3891 C3910 1.368 . S
C3891 H3915 0.949 . S
H3892 C3896 0.949 . S
C3893 C3894 1.349 . S
C3893 C3895 1.327 . S
C3893 H3916 0.950 . S
C3894 C3893 1.349 . S
C3894 C3906 1.349 . S
C3895 C3893 1.327 . S
C3895 C3911 1.429 . S
C3895 H3917 0.890 1_565 S
C3896 H3892 0.949 . S
C3896 C3904 1.574 . S
C3896 C3912 1.368 . S
H3897 C3905 0.950 . S
H3898 C3903 0.950 . S
H3899 C3904 0.949 . S
H3900 C3906 0.950 . S
H3901 C3907 0.950 . S
H3902 C3908 0.949 . S
C3903 H3898 0.950 . S
C3903 C3905 1.327 . S
C3903 C3909 1.429 . S
C3904 C3896 1.574 . S
C3904 H3899 0.949 . S
C3904 C3910 1.368 1_565 S
C3905 C3889 1.349 . S
C3905 H3897 0.950 . S
C3905 C3903 1.327 . S
C3906 C3894 1.349 . S
C3906 H3900 0.950 . S
C3906 C3907 1.327 . S
C3907 H3901 0.950 . S
C3907 C3906 1.327 . S
C3907 C3911 1.429 . S
C3908 C3891 1.574 . S
C3908 H3902 0.949 . S
C3908 C3912 1.368 1_545 S
C3909 C3890 1.429 . S
C3909 C3903 1.429 . S
C3909 C3910 1.523 . S
C3910 C3891 1.368 . S
C3910 C3904 1.368 1_545 S
C3910 C3909 1.523 . S
C3911 C3895 1.429 . S
C3911 C3907 1.429 . S
C3911 C3912 1.523 . S
C3912 C3896 1.368 . S
C3912 C3908 1.368 1_565 S
C3912 C3911 1.523 . S
H3913 C3888 0.950 . S
H3914 C3890 0.950 . S
H3915 C3891 0.949 . S
H3916 C3893 0.950 . S
H3917 C3895 0.890 1_545 S
C3918 C3919 1.349 . S
C3918 C3920 1.327 . S
C3918 H3943 0.950 . S
C3919 C3918 1.349 . S
C3919 C3935 1.349 . S
C3920 C3918 1.327 . S
C3920 C3939 1.429 . S
C3920 H3944 0.950 . S
C3921 C3938 1.574 . S
C3921 C3940 1.368 . S
C3921 H3945 0.949 . S
H3922 C3926 0.949 . S
C3923 C3924 1.349 . S
C3923 C3925 1.327 . S
C3923 H3946 0.950 . S
C3924 C3923 1.349 . S
C3924 C3936 1.349 . S
C3925 C3923 1.327 . S
C3925 C3941 1.429 . S
C3925 H3947 0.950 . S
C3926 H3922 0.949 . S
C3926 C3934 1.574 . S
C3926 C3942 1.368 . S
H3927 C3935 0.950 . S
H3928 C3933 0.950 . S
H3929 C3934 0.949 . S
H3930 C3936 0.950 . S
H3931 C3937 0.950 . S
H3932 C3938 0.949 . S
C3933 H3928 0.950 . S
C3933 C3935 1.327 . S
C3933 C3939 1.429 . S
C3934 C3926 1.574 . S
C3934 H3929 0.949 . S
C3934 C3940 1.368 . S
C3935 C3919 1.349 . S
C3935 H3927 0.950 . S
C3935 C3933 1.327 . S
C3936 C3924 1.349 . S
C3936 H3930 0.950 . S
C3936 C3937 1.327 . S
C3937 H3931 0.950 . S
C3937 C3936 1.327 . S
C3937 C3941 1.429 . S
C3938 C3921 1.574 . S
C3938 H3932 0.949 . S
C3938 C3942 1.368 . S
C3939 C3920 1.429 . S
C3939 C3933 1.429 . S
C3939 C3940 1.523 . S
C3940 C3921 1.368 . S
C3940 C3934 1.368 . S
C3940 C3939 1.523 . S
C3941 C3925 1.429 . S
C3941 C3937 1.429 . S
C3941 C3942 1.523 . S
C3942 C3926 1.368 . S
C3942 C3938 1.368 . S
C3942 C3941 1.523 . S
H3943 C3918 0.950 . S
H3944 C3920 0.950 . S
H3945 C3921 0.949 . S
H3946 C3923 0.950 . S
H3947 C3925 0.950 . S
C3948 C3949 1.349 . S
C3948 C3950 1.327 . S
C3948 H3973 0.950 . S
C3949 C3948 1.349 . S
C3949 C3965 1.349 . S
C3950 C3948 1.327 . S
C3950 C3969 1.429 . S
C3950 H3974 0.950 . S
C3951 C3968 1.574 . S
C3951 C3970 1.368 . S
C3951 H3975 0.949 . S
H3952 C3956 0.949 . S
C3953 C3954 1.349 . S
C3953 C3955 1.327 . S
C3953 H3976 0.950 . S
C3954 C3953 1.349 . S
C3954 C3966 1.349 . S
C3955 C3953 1.327 . S
C3955 C3971 1.429 . S
C3955 H3977 0.950 . S
C3956 H3952 0.949 . S
C3956 C3964 1.574 . S
C3956 C3972 1.368 . S
H3957 C3965 0.950 . S
H3958 C3963 0.950 . S
H3959 C3964 0.949 . S
H3960 C3966 0.950 . S
H3961 C3967 0.950 . S
H3962 C3968 0.949 . S
C3963 H3958 0.950 . S
C3963 C3965 1.327 . S
C3963 C3969 1.429 . S
C3964 C3956 1.574 . S
C3964 H3959 0.949 . S
C3964 C3970 1.368 . S
C3965 C3949 1.349 . S
C3965 H3957 0.950 . S
C3965 C3963 1.327 . S
C3966 C3954 1.349 . S
C3966 H3960 0.950 . S
C3966 C3967 1.327 . S
C3967 H3961 0.950 . S
C3967 C3966 1.327 . S
C3967 C3971 1.429 . S
C3968 C3951 1.574 . S
C3968 H3962 0.949 . S
C3968 C3972 1.368 . S
C3969 C3950 1.429 . S
C3969 C3963 1.429 . S
C3969 C3970 1.523 . S
C3970 C3951 1.368 . S
C3970 C3964 1.368 . S
C3970 C3969 1.523 . S
C3971 C3955 1.429 . S
C3971 C3967 1.429 . S
C3971 C3972 1.523 . S
C3972 C3956 1.368 . S
C3972 C3968 1.368 . S
C3972 C3971 1.523 . S
H3973 C3948 0.950 . S
H3974 C3950 0.950 . S
H3975 C3951 0.949 . S
H3976 C3953 0.950 . S
H3977 C3955 0.950 . S
C3978 C3979 1.349 . S
C3978 C3980 1.327 . S
C3978 H4003 0.950 . S
C3979 C3978 1.349 . S
C3979 C3995 1.349 . S
C3980 C3978 1.327 . S
C3980 C3999 1.429 . S
C3980 H4004 0.950 . S
C3981 C3998 1.574 . S
C3981 C4000 1.368 . S
C3981 H4005 0.949 . S
H3982 C3986 0.949 . S
C3983 C3984 1.349 . S
C3983 C3985 1.327 . S
C3983 H4006 0.950 . S
C3984 C3983 1.349 . S
C3984 C3996 1.349 . S
C3985 C3983 1.327 . S
C3985 C4001 1.429 . S
C3985 H4007 0.950 . S
C3986 H3982 0.949 . S
C3986 C3994 1.574 . S
C3986 C4002 1.368 . S
H3987 C3995 0.950 . S
H3988 C3993 0.950 . S
H3989 C3994 0.949 . S
H3990 C3996 0.950 . S
H3991 C3997 0.950 . S
H3992 C3998 0.949 . S
C3993 H3988 0.950 . S
C3993 C3995 1.327 . S
C3993 C3999 1.429 . S
C3994 C3986 1.574 . S
C3994 H3989 0.949 . S
C3994 C4000 1.368 . S
C3995 C3979 1.349 . S
C3995 H3987 0.950 . S
C3995 C3993 1.327 . S
C3996 C3984 1.349 . S
C3996 H3990 0.950 . S
C3996 C3997 1.327 . S
C3997 H3991 0.950 . S
C3997 C3996 1.327 . S
C3997 C4001 1.429 . S
C3998 C3981 1.574 . S
C3998 H3992 0.949 . S
C3998 C4002 1.368 . S
C3999 C3980 1.429 . S
C3999 C3993 1.429 . S
C3999 C4000 1.523 . S
C4000 C3981 1.368 . S
C4000 C3994 1.368 . S
C4000 C3999 1.523 . S
C4001 C3985 1.429 . S
C4001 C3997 1.429 . S
C4001 C4002 1.523 . S
C4002 C3986 1.368 . S
C4002 C3998 1.368 . S
C4002 C4001 1.523 . S
H4003 C3978 0.950 . S
H4004 C3980 0.950 . S
H4005 C3981 0.949 . S
H4006 C3983 0.950 . S
H4007 C3985 0.950 . S
C4008 C4009 1.349 . S
C4008 C4010 1.327 . S
C4008 H4033 0.950 . S
C4009 C4008 1.349 . S
C4009 C4025 1.349 . S
C4010 C4008 1.327 . S
C4010 C4029 1.429 . S
C4010 H4034 0.950 . S
C4011 C4028 1.574 . S
C4011 C4030 1.368 . S
C4011 H4035 0.949 . S
H4012 C4016 0.949 . S
C4013 C4014 1.349 . S
C4013 C4015 1.327 . S
C4013 H4036 0.950 . S
C4014 C4013 1.349 . S
C4014 C4026 1.349 . S
C4015 C4013 1.327 . S
C4015 C4031 1.429 . S
C4015 H4037 0.950 . S
C4016 H4012 0.949 . S
C4016 C4024 1.574 . S
C4016 C4032 1.368 . S
H4017 C4025 0.950 . S
H4018 C4023 0.950 . S
H4019 C4024 0.949 . S
H4020 C4026 0.950 . S
H4021 C4027 0.950 . S
H4022 C4028 0.949 . S
C4023 H4018 0.950 . S
C4023 C4025 1.327 . S
C4023 C4029 1.429 . S
C4024 C4016 1.574 . S
C4024 H4019 0.949 . S
C4024 C4030 1.368 . S
C4025 C4009 1.349 . S
C4025 H4017 0.950 . S
C4025 C4023 1.327 . S
C4026 C4014 1.349 . S
C4026 H4020 0.950 . S
C4026 C4027 1.327 . S
C4027 H4021 0.950 . S
C4027 C4026 1.327 . S
C4027 C4031 1.429 . S
C4028 C4011 1.574 . S
C4028 H4022 0.949 . S
C4028 C4032 1.368 . S
C4029 C4010 1.429 . S
C4029 C4023 1.429 . S
C4029 C4030 1.523 . S
C4030 C4011 1.368 . S
C4030 C4024 1.368 . S
C4030 C4029 1.523 . S
C4031 C4015 1.429 . S
C4031 C4027 1.429 . S
C4031 C4032 1.523 . S
C4032 C4016 1.368 . S
C4032 C4028 1.368 . S
C4032 C4031 1.523 . S
H4033 C4008 0.950 . S
H4034 C4010 0.950 . S
H4035 C4011 0.949 . S
H4036 C4013 0.950 . S
H4037 C4015 0.950 . S
C4038 C4039 1.349 . S
C4038 C4040 1.327 . S
C4038 H4063 0.950 . S
C4039 C4038 1.349 . S
C4039 C4055 1.349 . S
C4040 C4038 1.327 . S
C4040 C4059 1.429 . S
C4040 H4064 0.950 . S
C4041 C4058 1.574 . S
C4041 C4060 1.368 . S
C4041 H4065 0.949 . S
H4042 C4046 0.949 . S
C4043 C4044 1.349 . S
C4043 C4045 1.327 . S
C4043 H4066 0.950 . S
C4044 C4043 1.349 . S
C4044 C4056 1.349 . S
C4045 C4043 1.327 . S
C4045 C4061 1.429 . S
C4045 H4067 0.950 . S
C4046 H4042 0.949 . S
C4046 C4054 1.574 . S
C4046 C4062 1.368 . S
H4047 C4055 0.950 . S
H4048 C4053 0.950 . S
H4049 C4054 0.949 . S
H4050 C4056 0.950 . S
H4051 C4057 0.950 . S
H4052 C4058 0.949 . S
C4053 H4048 0.950 . S
C4053 C4055 1.327 . S
C4053 C4059 1.429 . S
C4054 C4046 1.574 . S
C4054 H4049 0.949 . S
C4054 C4060 1.368 . S
C4055 C4039 1.349 . S
C4055 H4047 0.950 . S
C4055 C4053 1.327 . S
C4056 C4044 1.349 . S
C4056 H4050 0.950 . S
C4056 C4057 1.327 . S
C4057 H4051 0.950 . S
C4057 C4056 1.327 . S
C4057 C4061 1.429 . S
C4058 C4041 1.574 . S
C4058 H4052 0.949 . S
C4058 C4062 1.368 . S
C4059 C4040 1.429 . S
C4059 C4053 1.429 . S
C4059 C4060 1.523 . S
C4060 C4041 1.368 . S
C4060 C4054 1.368 . S
C4060 C4059 1.523 . S
C4061 C4045 1.429 . S
C4061 C4057 1.429 . S
C4061 C4062 1.523 . S
C4062 C4046 1.368 . S
C4062 C4058 1.368 . S
C4062 C4061 1.523 . S
H4063 C4038 0.950 . S
H4064 C4040 0.950 . S
H4065 C4041 0.949 . S
H4066 C4043 0.950 . S
H4067 C4045 0.950 . S
C4068 C4069 1.349 . S
C4068 C4070 1.327 . S
C4068 H4093 0.950 . S
C4069 C4068 1.349 . S
C4069 C4085 1.349 . S
C4070 C4068 1.327 . S
C4070 C4089 1.429 . S
C4070 H4094 0.950 . S
C4071 C4088 1.574 1_565 S
C4071 C4090 1.368 . S
C4071 H4095 0.949 . S
H4072 C4076 0.949 . S
C4073 C4074 1.349 . S
C4073 C4075 1.327 . S
C4073 H4096 0.950 . S
C4074 C4073 1.349 . S
C4074 C4086 1.349 . S
C4075 C4073 1.327 . S
C4075 C4091 1.429 . S
C4075 H4097 0.950 . S
C4076 H4072 0.949 . S
C4076 C4084 1.574 . S
C4076 C4092 1.368 . S
H4077 C4085 0.950 . S
H4078 C4083 0.950 . S
H4079 C4084 0.949 . S
H4080 C4086 0.950 . S
H4081 C4087 0.950 . S
H4082 C4088 0.960 . S
C4083 H4078 0.950 . S
C4083 C4085 1.327 . S
C4083 C4089 1.429 . S
C4084 C4076 1.574 . S
C4084 H4079 0.949 . S
C4084 C4090 1.368 1_545 S
C4085 C4069 1.349 . S
C4085 H4077 0.950 . S
C4085 C4083 1.327 . S
C4086 C4074 1.349 . S
C4086 H4080 0.950 . S
C4086 C4087 1.327 . S
C4087 H4081 0.950 . S
C4087 C4086 1.327 . S
C4087 C4091 1.429 . S
C4088 C4071 1.574 1_545 S
C4088 H4082 0.960 . S
C4088 C4092 1.368 . S
C4089 C4070 1.429 . S
C4089 C4083 1.429 . S
C4089 C4090 1.523 . S
C4090 C4071 1.368 . S
C4090 C4084 1.368 1_565 S
C4090 C4089 1.523 . S
C4091 C4075 1.429 . S
C4091 C4087 1.429 . S
C4091 C4092 1.523 . S
C4092 C4076 1.368 . S
C4092 C4088 1.368 . S
C4092 C4091 1.523 . S
H4093 C4068 0.950 . S
H4094 C4070 0.950 . S
H4095 C4071 0.949 . S
H4096 C4073 0.950 . S
H4097 C4075 0.950 . S
C4098 C4099 1.349 . S
C4098 C4100 1.327 . S
C4098 H4123 0.950 . S
C4099 C4098 1.349 . S
C4099 C4115 1.349 . S
C4100 C4098 1.327 . S
C4100 C4119 1.429 . S
C4100 H4124 0.950 . S
C4101 C4118 1.574 . S
C4101 C4120 1.368 . S
C4101 H4125 0.949 . S
H4102 C4106 0.949 . S
C4103 C4104 1.349 . S
C4103 C4105 1.327 . S
C4103 H4126 0.950 . S
C4104 C4103 1.349 . S
C4104 C4116 1.349 . S
C4105 C4103 1.327 . S
C4105 C4121 1.429 . S
C4105 H4127 0.950 . S
C4106 H4102 0.949 . S
C4106 C4114 1.574 . S
C4106 C4122 1.368 . S
H4107 C4115 0.950 . S
H4108 C4113 0.950 . S
H4109 C4114 0.949 . S
H4110 C4116 0.950 . S
H4111 C4117 0.950 . S
H4112 C4118 0.949 . S
C4113 H4108 0.950 . S
C4113 C4115 1.327 . S
C4113 C4119 1.429 . S
C4114 C4106 1.574 . S
C4114 H4109 0.949 . S
C4114 C4120 1.368 . S
C4115 C4099 1.349 . S
C4115 H4107 0.950 . S
C4115 C4113 1.327 . S
C4116 C4104 1.349 . S
C4116 H4110 0.950 . S
C4116 C4117 1.327 . S
C4117 H4111 0.950 . S
C4117 C4116 1.327 . S
C4117 C4121 1.429 . S
C4118 C4101 1.574 . S
C4118 H4112 0.949 . S
C4118 C4122 1.368 . S
C4119 C4100 1.429 . S
C4119 C4113 1.429 . S
C4119 C4120 1.523 . S
C4120 C4101 1.368 . S
C4120 C4114 1.368 . S
C4120 C4119 1.523 . S
C4121 C4105 1.429 . S
C4121 C4117 1.429 . S
C4121 C4122 1.523 . S
C4122 C4106 1.368 . S
C4122 C4118 1.368 . S
C4122 C4121 1.523 . S
H4123 C4098 0.950 . S
H4124 C4100 0.950 . S
H4125 C4101 0.949 . S
H4126 C4103 0.950 . S
H4127 C4105 0.950 . S
C4128 C4129 1.349 . S
C4128 C4130 1.327 . S
C4128 H4153 0.950 . S
C4129 C4128 1.349 . S
C4129 C4145 1.349 . S
C4130 C4128 1.327 . S
C4130 C4149 1.429 . S
C4130 H4154 0.950 . S
C4131 C4148 1.574 . S
C4131 C4150 1.368 . S
C4131 H4155 0.949 . S
H4132 C4136 0.949 . S
C4133 C4134 1.349 . S
C4133 C4135 1.327 . S
C4133 H4156 0.950 . S
C4134 C4133 1.349 . S
C4134 C4146 1.349 . S
C4135 C4133 1.327 . S
C4135 C4151 1.429 . S
C4135 H4157 0.950 . S
C4136 H4132 0.949 . S
C4136 C4144 1.574 . S
C4136 C4152 1.368 . S
H4137 C4145 0.950 . S
H4138 C4143 0.950 . S
H4139 C4144 0.949 . S
H4140 C4146 0.950 . S
H4141 C4147 0.950 . S
H4142 C4148 0.949 . S
C4143 H4138 0.950 . S
C4143 C4145 1.327 . S
C4143 C4149 1.429 . S
C4144 C4136 1.574 . S
C4144 H4139 0.949 . S
C4144 C4150 1.368 . S
C4145 C4129 1.349 . S
C4145 H4137 0.950 . S
C4145 C4143 1.327 . S
C4146 C4134 1.349 . S
C4146 H4140 0.950 . S
C4146 C4147 1.327 . S
C4147 H4141 0.950 . S
C4147 C4146 1.327 . S
C4147 C4151 1.429 . S
C4148 C4131 1.574 . S
C4148 H4142 0.949 . S
C4148 C4152 1.368 . S
C4149 C4130 1.429 . S
C4149 C4143 1.429 . S
C4149 C4150 1.523 . S
C4150 C4131 1.368 . S
C4150 C4144 1.368 . S
C4150 C4149 1.523 . S
C4151 C4135 1.429 . S
C4151 C4147 1.429 . S
C4151 C4152 1.523 . S
C4152 C4136 1.368 . S
C4152 C4148 1.368 . S
C4152 C4151 1.523 . S
H4153 C4128 0.950 . S
H4154 C4130 0.950 . S
H4155 C4131 0.949 . S
H4156 C4133 0.950 . S
H4157 C4135 0.950 . S
C4158 C4159 1.349 . S
C4158 C4160 1.327 . S
C4158 H4183 0.950 . S
C4159 C4158 1.349 . S
C4159 C4175 1.349 . S
C4160 C4158 1.327 . S
C4160 C4179 1.429 . S
C4160 H4184 0.950 . S
C4161 C4178 1.574 . S
C4161 C4180 1.368 . S
C4161 H4185 0.949 . S
H4162 C4166 0.949 . S
C4163 C4164 1.349 . S
C4163 C4165 1.327 . S
C4163 H4186 0.950 . S
C4164 C4163 1.349 . S
C4164 C4176 1.349 . S
C4165 C4163 1.327 . S
C4165 C4181 1.429 . S
C4165 H4187 0.950 . S
C4166 H4162 0.949 . S
C4166 C4174 1.574 . S
C4166 C4182 1.368 . S
H4167 C4175 0.950 . S
H4168 C4173 0.950 . S
H4169 C4174 0.949 . S
H4170 C4176 0.950 . S
H4171 C4177 0.950 . S
H4172 C4178 0.949 . S
C4173 H4168 0.950 . S
C4173 C4175 1.327 . S
C4173 C4179 1.429 . S
C4174 C4166 1.574 . S
C4174 H4169 0.949 . S
C4174 C4180 1.368 . S
C4175 C4159 1.349 . S
C4175 H4167 0.950 . S
C4175 C4173 1.327 . S
C4176 C4164 1.349 . S
C4176 H4170 0.950 . S
C4176 C4177 1.327 . S
C4177 H4171 0.950 . S
C4177 C4176 1.327 . S
C4177 C4181 1.429 . S
C4178 C4161 1.574 . S
C4178 H4172 0.949 . S
C4178 C4182 1.368 . S
C4179 C4160 1.429 . S
C4179 C4173 1.429 . S
C4179 C4180 1.523 . S
C4180 C4161 1.368 . S
C4180 C4174 1.368 . S
C4180 C4179 1.523 . S
C4181 C4165 1.429 . S
C4181 C4177 1.429 . S
C4181 C4182 1.523 . S
C4182 C4166 1.368 . S
C4182 C4178 1.368 . S
C4182 C4181 1.523 . S
H4183 C4158 0.950 . S
H4184 C4160 0.950 . S
H4185 C4161 0.949 . S
H4186 C4163 0.950 . S
H4187 C4165 0.950 . S
C4188 C4189 1.349 . S
C4188 C4190 1.327 . S
C4188 H4213 0.950 . S
C4189 C4188 1.349 . S
C4189 C4205 1.349 . S
C4190 C4188 1.327 . S
C4190 C4209 1.429 . S
C4190 H4214 0.950 . S
C4191 C4208 1.574 . S
C4191 C4210 1.368 . S
C4191 H4215 0.949 . S
H4192 C4196 0.949 . S
C4193 C4194 1.349 . S
C4193 C4195 1.327 . S
C4193 H4216 0.950 . S
C4194 C4193 1.349 . S
C4194 C4206 1.349 . S
C4195 C4193 1.327 . S
C4195 C4211 1.429 . S
C4195 H4217 0.950 . S
C4196 H4192 0.949 . S
C4196 C4204 1.574 . S
C4196 C4212 1.368 . S
H4197 C4205 0.950 . S
H4198 C4203 0.950 . S
H4199 C4204 0.949 . S
H4200 C4206 0.950 . S
H4201 C4207 0.950 . S
H4202 C4208 0.949 . S
C4203 H4198 0.950 . S
C4203 C4205 1.327 . S
C4203 C4209 1.429 . S
C4204 C4196 1.574 . S
C4204 H4199 0.949 . S
C4204 C4210 1.368 . S
C4205 C4189 1.349 . S
C4205 H4197 0.950 . S
C4205 C4203 1.327 . S
C4206 C4194 1.349 . S
C4206 H4200 0.950 . S
C4206 C4207 1.327 . S
C4207 H4201 0.950 . S
C4207 C4206 1.327 . S
C4207 C4211 1.429 . S
C4208 C4191 1.574 . S
C4208 H4202 0.949 . S
C4208 C4212 1.368 . S
C4209 C4190 1.429 . S
C4209 C4203 1.429 . S
C4209 C4210 1.523 . S
C4210 C4191 1.368 . S
C4210 C4204 1.368 . S
C4210 C4209 1.523 . S
C4211 C4195 1.429 . S
C4211 C4207 1.429 . S
C4211 C4212 1.523 . S
C4212 C4196 1.368 . S
C4212 C4208 1.368 . S
C4212 C4211 1.523 . S
H4213 C4188 0.950 . S
H4214 C4190 0.950 . S
H4215 C4191 0.949 . S
H4216 C4193 0.950 . S
H4217 C4195 0.950 . S
C4218 C4219 1.349 . S
C4218 C4220 1.327 . S
C4218 H4243 0.950 . S
C4219 C4218 1.349 . S
C4219 C4235 1.349 . S
C4220 C4218 1.327 . S
C4220 C4239 1.429 . S
C4220 H4244 0.950 . S
C4221 C4238 1.574 . S
C4221 C4240 1.368 . S
C4221 H4245 0.949 . S
H4222 C4226 0.949 . S
C4223 C4224 1.349 . S
C4223 C4225 1.327 . S
C4223 H4246 0.950 . S
C4224 C4223 1.349 . S
C4224 C4236 1.349 . S
C4225 C4223 1.327 . S
C4225 C4241 1.429 . S
C4225 H4247 0.950 . S
C4226 H4222 0.949 . S
C4226 C4234 1.574 . S
C4226 C4242 1.368 . S
H4227 C4235 0.950 . S
H4228 C4233 0.950 . S
H4229 C4234 0.949 . S
H4230 C4236 0.950 . S
H4231 C4237 0.950 . S
H4232 C4238 0.949 . S
C4233 H4228 0.950 . S
C4233 C4235 1.327 . S
C4233 C4239 1.429 . S
C4234 C4226 1.574 . S
C4234 H4229 0.949 . S
C4234 C4240 1.368 . S
C4235 C4219 1.349 . S
C4235 H4227 0.950 . S
C4235 C4233 1.327 . S
C4236 C4224 1.349 . S
C4236 H4230 0.950 . S
C4236 C4237 1.327 . S
C4237 H4231 0.950 . S
C4237 C4236 1.327 . S
C4237 C4241 1.429 . S
C4238 C4221 1.574 . S
C4238 H4232 0.949 . S
C4238 C4242 1.368 . S
C4239 C4220 1.429 . S
C4239 C4233 1.429 . S
C4239 C4240 1.523 . S
C4240 C4221 1.368 . S
C4240 C4234 1.368 . S
C4240 C4239 1.523 . S
C4241 C4225 1.429 . S
C4241 C4237 1.429 . S
C4241 C4242 1.523 . S
C4242 C4226 1.368 . S
C4242 C4238 1.368 . S
C4242 C4241 1.523 . S
H4243 C4218 0.950 . S
H4244 C4220 0.950 . S
H4245 C4221 0.949 . S
H4246 C4223 0.950 . S
H4247 C4225 0.950 . S
C4248 C4249 1.349 . S
C4248 C4250 1.327 . S
C4248 H4273 0.950 . S
C4249 C4248 1.349 . S
C4249 C4265 1.349 . S
C4250 C4248 1.327 . S
C4250 C4269 1.429 . S
C4250 H4274 0.950 . S
C4251 C4268 1.574 . S
C4251 C4270 1.368 . S
C4251 H4275 0.949 . S
H4252 C4256 0.949 . S
C4253 C4254 1.349 . S
C4253 C4255 1.327 . S
C4253 H4276 0.950 . S
C4254 C4253 1.349 . S
C4254 C4266 1.349 . S
C4255 C4253 1.327 . S
C4255 C4271 1.429 . S
C4255 H4277 0.950 . S
C4256 H4252 0.949 . S
C4256 C4264 1.574 . S
C4256 C4272 1.368 . S
H4257 C4265 0.950 . S
H4258 C4263 0.950 . S
H4259 C4264 0.949 . S
H4260 C4266 0.950 . S
H4261 C4267 0.950 . S
H4262 C4268 0.949 . S
C4263 H4258 0.950 . S
C4263 C4265 1.327 . S
C4263 C4269 1.429 . S
C4264 C4256 1.574 . S
C4264 H4259 0.949 . S
C4264 C4270 1.368 . S
C4265 C4249 1.349 . S
C4265 H4257 0.950 . S
C4265 C4263 1.327 . S
C4266 C4254 1.349 . S
C4266 H4260 0.950 . S
C4266 C4267 1.327 . S
C4267 H4261 0.950 . S
C4267 C4266 1.327 . S
C4267 C4271 1.429 . S
C4268 C4251 1.574 . S
C4268 H4262 0.949 . S
C4268 C4272 1.368 . S
C4269 C4250 1.429 . S
C4269 C4263 1.429 . S
C4269 C4270 1.523 . S
C4270 C4251 1.368 . S
C4270 C4264 1.368 . S
C4270 C4269 1.523 . S
C4271 C4255 1.429 . S
C4271 C4267 1.429 . S
C4271 C4272 1.523 . S
C4272 C4256 1.368 . S
C4272 C4268 1.368 . S
C4272 C4271 1.523 . S
H4273 C4248 0.950 . S
H4274 C4250 0.950 . S
H4275 C4251 0.949 . S
H4276 C4253 0.950 . S
H4277 C4255 0.950 . S
C4278 C4279 1.349 . S
C4278 C4280 1.327 . S
C4278 H4303 0.950 . S
C4279 C4278 1.349 . S
C4279 C4295 1.349 . S
C4280 C4278 1.327 . S
C4280 C4299 1.429 . S
C4280 H4304 0.950 . S
C4281 C4298 1.574 . S
C4281 C4300 1.368 . S
C4281 H4305 0.949 . S
H4282 C4286 0.949 . S
C4283 C4284 1.349 . S
C4283 C4285 1.327 . S
C4283 H4306 0.950 . S
C4284 C4283 1.349 . S
C4284 C4296 1.349 . S
C4285 C4283 1.327 . S
C4285 C4301 1.429 . S
C4285 H4307 0.950 . S
C4286 H4282 0.949 . S
C4286 C4294 1.574 . S
C4286 C4302 1.368 . S
H4287 C4295 0.950 . S
H4288 C4293 0.950 . S
H4289 C4294 0.949 . S
H4290 C4296 0.950 . S
H4291 C4297 0.950 . S
H4292 C4298 0.949 . S
C4293 H4288 0.950 . S
C4293 C4295 1.327 . S
C4293 C4299 1.429 . S
C4294 C4286 1.574 . S
C4294 H4289 0.949 . S
C4294 C4300 1.368 . S
C4295 C4279 1.349 . S
C4295 H4287 0.950 . S
C4295 C4293 1.327 . S
C4296 C4284 1.349 . S
C4296 H4290 0.950 . S
C4296 C4297 1.327 . S
C4297 H4291 0.950 . S
C4297 C4296 1.327 . S
C4297 C4301 1.429 . S
C4298 C4281 1.574 . S
C4298 H4292 0.949 . S
C4298 C4302 1.368 . S
C4299 C4280 1.429 . S
C4299 C4293 1.429 . S
C4299 C4300 1.523 . S
C4300 C4281 1.368 . S
C4300 C4294 1.368 . S
C4300 C4299 1.523 . S
C4301 C4285 1.429 . S
C4301 C4297 1.429 . S
C4301 C4302 1.523 . S
C4302 C4286 1.368 . S
C4302 C4298 1.368 . S
C4302 C4301 1.523 . S
H4303 C4278 0.950 . S
H4304 C4280 0.950 . S
H4305 C4281 0.949 . S
H4306 C4283 0.950 . S
H4307 C4285 0.950 . S
C4308 C4309 1.349 . S
C4308 C4310 1.327 . S
C4308 H4333 0.950 . S
C4309 C4308 1.349 . S
C4309 C4325 1.349 . S
C4310 C4308 1.327 . S
C4310 C4329 1.429 . S
C4310 H4334 0.950 . S
C4311 C4328 1.574 . S
C4311 C4330 1.368 . S
C4311 H4335 0.949 . S
H4312 C4316 0.949 . S
C4313 C4314 1.349 . S
C4313 C4315 1.327 . S
C4313 H4336 0.950 . S
C4314 C4313 1.349 . S
C4314 C4326 1.349 . S
C4315 C4313 1.327 . S
C4315 C4331 1.429 . S
C4315 H4337 0.950 . S
C4316 H4312 0.949 . S
C4316 C4324 1.574 . S
C4316 C4332 1.368 . S
H4317 C4325 0.950 . S
H4318 C4323 0.950 . S
H4319 C4324 0.949 . S
H4320 C4326 0.950 . S
H4321 C4327 0.950 . S
H4322 C4328 0.949 . S
C4323 H4318 0.950 . S
C4323 C4325 1.327 . S
C4323 C4329 1.429 . S
C4324 C4316 1.574 . S
C4324 H4319 0.949 . S
C4324 C4330 1.368 . S
C4325 C4309 1.349 . S
C4325 H4317 0.950 . S
C4325 C4323 1.327 . S
C4326 C4314 1.349 . S
C4326 H4320 0.950 . S
C4326 C4327 1.327 . S
C4327 H4321 0.950 . S
C4327 C4326 1.327 . S
C4327 C4331 1.429 . S
C4328 C4311 1.574 . S
C4328 H4322 0.949 . S
C4328 C4332 1.368 . S
C4329 C4310 1.429 . S
C4329 C4323 1.429 . S
C4329 C4330 1.523 . S
C4330 C4311 1.368 . S
C4330 C4324 1.368 . S
C4330 C4329 1.523 . S
C4331 C4315 1.429 . S
C4331 C4327 1.429 . S
C4331 C4332 1.523 . S
C4332 C4316 1.368 . S
C4332 C4328 1.368 . S
C4332 C4331 1.523 . S
H4333 C4308 0.950 . S
H4334 C4310 0.950 . S
H4335 C4311 0.949 . S
H4336 C4313 0.950 . S
H4337 C4315 0.950 . S
C4338 C4339 1.349 . S
C4338 C4340 1.327 . S
C4338 H4363 0.950 . S
C4339 C4338 1.349 . S
C4339 C4355 1.349 . S
C4340 C4338 1.327 . S
C4340 C4359 1.429 . S
C4340 H4364 0.950 . S
C4341 C4358 1.574 . S
C4341 C4360 1.368 . S
C4341 H4365 0.949 . S
H4342 C4346 0.949 . S
C4343 C4344 1.349 . S
C4343 C4345 1.327 . S
C4343 H4366 0.950 . S
C4344 C4343 1.349 . S
C4344 C4356 1.349 . S
C4345 C4343 1.327 . S
C4345 C4361 1.429 . S
C4345 H4367 0.950 . S
C4346 H4342 0.949 . S
C4346 C4354 1.574 . S
C4346 C4362 1.368 . S
H4347 C4355 0.950 . S
H4348 C4353 0.950 . S
H4349 C4354 0.949 . S
H4350 C4356 0.950 . S
H4351 C4357 0.950 . S
H4352 C4358 0.949 . S
C4353 H4348 0.950 . S
C4353 C4355 1.327 . S
C4353 C4359 1.429 . S
C4354 C4346 1.574 . S
C4354 H4349 0.949 . S
C4354 C4360 1.368 . S
C4355 C4339 1.349 . S
C4355 H4347 0.950 . S
C4355 C4353 1.327 . S
C4356 C4344 1.349 . S
C4356 H4350 0.950 . S
C4356 C4357 1.327 . S
C4357 H4351 0.950 . S
C4357 C4356 1.327 . S
C4357 C4361 1.429 . S
C4358 C4341 1.574 . S
C4358 H4352 0.949 . S
C4358 C4362 1.368 . S
C4359 C4340 1.429 . S
C4359 C4353 1.429 . S
C4359 C4360 1.523 . S
C4360 C4341 1.368 . S
C4360 C4354 1.368 . S
C4360 C4359 1.523 . S
C4361 C4345 1.429 . S
C4361 C4357 1.429 . S
C4361 C4362 1.523 . S
C4362 C4346 1.368 . S
C4362 C4358 1.368 . S
C4362 C4361 1.523 . S
H4363 C4338 0.950 . S
H4364 C4340 0.950 . S
H4365 C4341 0.949 . S
H4366 C4343 0.950 . S
H4367 C4345 0.950 . S
C4368 C4369 1.349 . S
C4368 C4370 1.327 . S
C4368 H4393 0.950 . S
C4369 C4368 1.349 . S
C4369 C4385 1.349 . S
C4370 C4368 1.327 . S
C4370 C4389 1.429 . S
C4370 H4394 0.950 . S
C4371 C4388 1.574 . S
C4371 C4390 1.368 . S
C4371 H4395 0.949 . S
H4372 C4376 0.949 . S
C4373 C4374 1.349 . S
C4373 C4375 1.327 . S
C4373 H4396 0.950 . S
C4374 C4373 1.349 . S
C4374 C4386 1.349 . S
C4375 C4373 1.327 . S
C4375 C4391 1.429 . S
C4375 H4397 0.950 . S
C4376 H4372 0.949 . S
C4376 C4384 1.574 . S
C4376 C4392 1.368 . S
H4377 C4385 0.950 . S
H4378 C4383 0.950 . S
H4379 C4384 0.949 . S
H4380 C4386 0.950 . S
H4381 C4387 0.950 . S
H4382 C4388 0.949 . S
C4383 H4378 0.950 . S
C4383 C4385 1.327 . S
C4383 C4389 1.429 . S
C4384 C4376 1.574 . S
C4384 H4379 0.949 . S
C4384 C4390 1.368 . S
C4385 C4369 1.349 . S
C4385 H4377 0.950 . S
C4385 C4383 1.327 . S
C4386 C4374 1.349 . S
C4386 H4380 0.950 . S
C4386 C4387 1.327 . S
C4387 H4381 0.950 . S
C4387 C4386 1.327 . S
C4387 C4391 1.429 . S
C4388 C4371 1.574 . S
C4388 H4382 0.949 . S
C4388 C4392 1.368 . S
C4389 C4370 1.429 . S
C4389 C4383 1.429 . S
C4389 C4390 1.523 . S
C4390 C4371 1.368 . S
C4390 C4384 1.368 . S
C4390 C4389 1.523 . S
C4391 C4375 1.429 . S
C4391 C4387 1.429 . S
C4391 C4392 1.523 . S
C4392 C4376 1.368 . S
C4392 C4388 1.368 . S
C4392 C4391 1.523 . S
H4393 C4368 0.950 . S
H4394 C4370 0.950 . S
H4395 C4371 0.949 . S
H4396 C4373 0.950 . S
H4397 C4375 0.950 . S
C4398 C4399 1.349 . S
C4398 C4400 1.327 . S
C4398 H4423 0.950 . S
C4399 C4398 1.349 . S
C4399 C4415 1.349 . S
C4400 C4398 1.327 . S
C4400 C4419 1.429 . S
C4400 H4424 0.950 . S
C4401 C4418 1.574 . S
C4401 C4420 1.368 . S
C4401 H4425 0.949 . S
H4402 C4406 0.949 . S
C4403 C4404 1.349 . S
C4403 C4405 1.327 . S
C4403 H4426 0.950 . S
C4404 C4403 1.349 . S
C4404 C4416 1.349 . S
C4405 C4403 1.327 . S
C4405 C4421 1.429 . S
C4405 H4427 0.950 . S
C4406 H4402 0.949 . S
C4406 C4414 1.574 . S
C4406 C4422 1.368 . S
H4407 C4415 0.950 . S
H4408 C4413 0.950 . S
H4409 C4414 0.949 . S
H4410 C4416 0.950 . S
H4411 C4417 0.950 . S
H4412 C4418 0.949 . S
C4413 H4408 0.950 . S
C4413 C4415 1.327 . S
C4413 C4419 1.429 . S
C4414 C4406 1.574 . S
C4414 H4409 0.949 . S
C4414 C4420 1.368 . S
C4415 C4399 1.349 . S
C4415 H4407 0.950 . S
C4415 C4413 1.327 . S
C4416 C4404 1.349 . S
C4416 H4410 0.950 . S
C4416 C4417 1.327 . S
C4417 H4411 0.950 . S
C4417 C4416 1.327 . S
C4417 C4421 1.429 . S
C4418 C4401 1.574 . S
C4418 H4412 0.949 . S
C4418 C4422 1.368 . S
C4419 C4400 1.429 . S
C4419 C4413 1.429 . S
C4419 C4420 1.523 . S
C4420 C4401 1.368 . S
C4420 C4414 1.368 . S
C4420 C4419 1.523 . S
C4421 C4405 1.429 . S
C4421 C4417 1.429 . S
C4421 C4422 1.523 . S
C4422 C4406 1.368 . S
C4422 C4418 1.368 . S
C4422 C4421 1.523 . S
H4423 C4398 0.950 . S
H4424 C4400 0.950 . S
H4425 C4401 0.949 . S
H4426 C4403 0.950 . S
H4427 C4405 0.950 . S
C4428 C4429 1.349 . S
C4428 C4430 1.327 . S
C4428 H4453 0.950 . S
C4429 C4428 1.349 . S
C4429 C4445 1.349 . S
C4430 C4428 1.327 . S
C4430 C4449 1.429 . S
C4430 H4454 0.950 . S
C4431 C4448 1.574 . S
C4431 C4450 1.368 . S
C4431 H4455 0.949 . S
H4432 C4436 0.949 . S
C4433 C4434 1.349 . S
C4433 C4435 1.327 . S
C4433 H4456 0.950 . S
C4434 C4433 1.349 . S
C4434 C4446 1.349 . S
C4435 C4433 1.327 . S
C4435 C4451 1.429 . S
C4435 H4457 0.950 . S
C4436 H4432 0.949 . S
C4436 C4444 1.574 . S
C4436 C4452 1.368 . S
H4437 C4445 0.950 . S
H4438 C4443 0.950 . S
H4439 C4444 0.949 . S
H4440 C4446 0.950 . S
H4441 C4447 0.950 . S
H4442 C4448 0.949 . S
C4443 H4438 0.950 . S
C4443 C4445 1.327 . S
C4443 C4449 1.429 . S
C4444 C4436 1.574 . S
C4444 H4439 0.949 . S
C4444 C4450 1.368 . S
C4445 C4429 1.349 . S
C4445 H4437 0.950 . S
C4445 C4443 1.327 . S
C4446 C4434 1.349 . S
C4446 H4440 0.950 . S
C4446 C4447 1.327 . S
C4447 H4441 0.950 . S
C4447 C4446 1.327 . S
C4447 C4451 1.429 . S
C4448 C4431 1.574 . S
C4448 H4442 0.949 . S
C4448 C4452 1.368 . S
C4449 C4430 1.429 . S
C4449 C4443 1.429 . S
C4449 C4450 1.523 . S
C4450 C4431 1.368 . S
C4450 C4444 1.368 . S
C4450 C4449 1.523 . S
C4451 C4435 1.429 . S
C4451 C4447 1.429 . S
C4451 C4452 1.523 . S
C4452 C4436 1.368 . S
C4452 C4448 1.368 . S
C4452 C4451 1.523 . S
H4453 C4428 0.950 . S
H4454 C4430 0.950 . S
H4455 C4431 0.949 . S
H4456 C4433 0.950 . S
H4457 C4435 0.950 . S
C4458 C4459 1.349 . S
C4458 C4460 1.327 . S
C4458 H4483 0.950 . S
C4459 C4458 1.349 . S
C4459 C4475 1.349 . S
C4460 C4458 1.327 . S
C4460 C4479 1.429 . S
C4460 H4484 0.950 . S
C4461 C4478 1.574 . S
C4461 C4480 1.368 . S
C4461 H4485 0.949 . S
H4462 C4466 0.949 . S
C4463 C4464 1.349 . S
C4463 C4465 1.327 . S
C4463 H4486 0.950 . S
C4464 C4463 1.349 . S
C4464 C4476 1.349 . S
C4465 C4463 1.327 . S
C4465 C4481 1.429 . S
C4465 H4487 0.950 . S
C4466 H4462 0.949 . S
C4466 C4474 1.574 . S
C4466 C4482 1.368 . S
H4467 C4475 0.950 . S
H4468 C4473 0.950 . S
H4469 C4474 0.949 . S
H4470 C4476 0.950 . S
H4471 C4477 0.950 . S
H4472 C4478 0.949 . S
C4473 H4468 0.950 . S
C4473 C4475 1.327 . S
C4473 C4479 1.429 . S
C4474 C4466 1.574 . S
C4474 H4469 0.949 . S
C4474 C4480 1.368 . S
C4475 C4459 1.349 . S
C4475 H4467 0.950 . S
C4475 C4473 1.327 . S
C4476 C4464 1.349 . S
C4476 H4470 0.950 . S
C4476 C4477 1.327 . S
C4477 H4471 0.950 . S
C4477 C4476 1.327 . S
C4477 C4481 1.429 . S
C4478 C4461 1.574 . S
C4478 H4472 0.949 . S
C4478 C4482 1.368 . S
C4479 C4460 1.429 . S
C4479 C4473 1.429 . S
C4479 C4480 1.523 . S
C4480 C4461 1.368 . S
C4480 C4474 1.368 . S
C4480 C4479 1.523 . S
C4481 C4465 1.429 . S
C4481 C4477 1.429 . S
C4481 C4482 1.523 . S
C4482 C4466 1.368 . S
C4482 C4478 1.368 . S
C4482 C4481 1.523 . S
H4483 C4458 0.950 . S
H4484 C4460 0.950 . S
H4485 C4461 0.949 . S
H4486 C4463 0.950 . S
H4487 C4465 0.950 . S
C4488 C4489 1.349 . S
C4488 C4490 1.327 . S
C4488 H4513 0.950 . S
C4489 C4488 1.349 . S
C4489 C4505 1.349 . S
C4490 C4488 1.327 . S
C4490 C4509 1.429 . S
C4490 H4514 0.950 . S
C4491 C4508 1.574 . S
C4491 C4510 1.368 . S
C4491 H4515 0.949 . S
H4492 C4496 0.949 . S
C4493 C4494 1.349 . S
C4493 C4495 1.327 . S
C4493 H4516 0.950 . S
C4494 C4493 1.349 . S
C4494 C4506 1.349 . S
C4495 C4493 1.327 . S
C4495 C4511 1.429 . S
C4495 H4517 0.950 . S
C4496 H4492 0.949 . S
C4496 C4504 1.574 . S
C4496 C4512 1.368 . S
H4497 C4505 0.950 . S
H4498 C4503 0.950 . S
H4499 C4504 0.949 . S
H4500 C4506 0.950 . S
H4501 C4507 0.950 . S
H4502 C4508 0.949 . S
C4503 H4498 0.950 . S
C4503 C4505 1.327 . S
C4503 C4509 1.429 . S
C4504 C4496 1.574 . S
C4504 H4499 0.949 . S
C4504 C4510 1.368 . S
C4505 C4489 1.349 . S
C4505 H4497 0.950 . S
C4505 C4503 1.327 . S
C4506 C4494 1.349 . S
C4506 H4500 0.950 . S
C4506 C4507 1.327 . S
C4507 H4501 0.950 . S
C4507 C4506 1.327 . S
C4507 C4511 1.429 . S
C4508 C4491 1.574 . S
C4508 H4502 0.949 . S
C4508 C4512 1.368 . S
C4509 C4490 1.429 . S
C4509 C4503 1.429 . S
C4509 C4510 1.523 . S
C4510 C4491 1.368 . S
C4510 C4504 1.368 . S
C4510 C4509 1.523 . S
C4511 C4495 1.429 . S
C4511 C4507 1.429 . S
C4511 C4512 1.523 . S
C4512 C4496 1.368 . S
C4512 C4508 1.368 . S
C4512 C4511 1.523 . S
H4513 C4488 0.950 . S
H4514 C4490 0.950 . S
H4515 C4491 0.949 . S
H4516 C4493 0.950 . S
H4517 C4495 0.950 . S
C4518 C4519 1.349 . S
C4518 C4520 1.327 . S
C4518 H4543 0.950 . S
C4519 C4518 1.349 . S
C4519 C4535 1.349 . S
C4520 C4518 1.327 . S
C4520 C4539 1.429 . S
C4520 H4544 0.950 . S
C4521 C4538 1.574 . S
C4521 C4540 1.368 . S
C4521 H4545 0.949 . S
H4522 C4526 0.949 . S
C4523 C4524 1.349 . S
C4523 C4525 1.327 . S
C4523 H4546 0.950 . S
C4524 C4523 1.349 . S
C4524 C4536 1.349 . S
C4525 C4523 1.327 . S
C4525 C4541 1.429 . S
C4525 H4547 0.950 . S
C4526 H4522 0.949 . S
C4526 C4534 1.574 . S
C4526 C4542 1.368 . S
H4527 C4535 0.950 . S
H4528 C4533 0.950 . S
H4529 C4534 0.949 . S
H4530 C4536 0.950 . S
H4531 C4537 0.950 . S
H4532 C4538 0.949 . S
C4533 H4528 0.950 . S
C4533 C4535 1.327 . S
C4533 C4539 1.429 . S
C4534 C4526 1.574 . S
C4534 H4529 0.949 . S
C4534 C4540 1.368 . S
C4535 C4519 1.349 . S
C4535 H4527 0.950 . S
C4535 C4533 1.327 . S
C4536 C4524 1.349 . S
C4536 H4530 0.950 . S
C4536 C4537 1.327 . S
C4537 H4531 0.950 . S
C4537 C4536 1.327 . S
C4537 C4541 1.429 . S
C4538 C4521 1.574 . S
C4538 H4532 0.949 . S
C4538 C4542 1.368 . S
C4539 C4520 1.429 . S
C4539 C4533 1.429 . S
C4539 C4540 1.523 . S
C4540 C4521 1.368 . S
C4540 C4534 1.368 . S
C4540 C4539 1.523 . S
C4541 C4525 1.429 . S
C4541 C4537 1.429 . S
C4541 C4542 1.523 . S
C4542 C4526 1.368 . S
C4542 C4538 1.368 . S
C4542 C4541 1.523 . S
H4543 C4518 0.950 . S
H4544 C4520 0.950 . S
H4545 C4521 0.949 . S
H4546 C4523 0.950 . S
H4547 C4525 0.950 . S
C4548 C4549 1.349 . S
C4548 C4550 1.327 . S
C4548 H4573 0.950 . S
C4549 C4548 1.349 . S
C4549 C4565 1.349 . S
C4550 C4548 1.327 . S
C4550 C4569 1.429 . S
C4550 H4574 0.950 . S
C4551 C4568 1.574 . S
C4551 C4570 1.368 . S
C4551 H4575 0.949 . S
H4552 C4556 0.949 . S
C4553 C4554 1.349 . S
C4553 C4555 1.327 . S
C4553 H4576 0.950 . S
C4554 C4553 1.349 . S
C4554 C4566 1.349 . S
C4555 C4553 1.327 . S
C4555 C4571 1.429 . S
C4555 H4577 0.950 . S
C4556 H4552 0.949 . S
C4556 C4564 1.574 . S
C4556 C4572 1.368 . S
H4557 C4565 0.950 . S
H4558 C4563 0.950 . S
H4559 C4564 0.949 . S
H4560 C4566 0.950 . S
H4561 C4567 0.950 . S
H4562 C4568 0.949 . S
C4563 H4558 0.950 . S
C4563 C4565 1.327 . S
C4563 C4569 1.429 . S
C4564 C4556 1.574 . S
C4564 H4559 0.949 . S
C4564 C4570 1.368 . S
C4565 C4549 1.349 . S
C4565 H4557 0.950 . S
C4565 C4563 1.327 . S
C4566 C4554 1.349 . S
C4566 H4560 0.950 . S
C4566 C4567 1.327 . S
C4567 H4561 0.950 . S
C4567 C4566 1.327 . S
C4567 C4571 1.429 . S
C4568 C4551 1.574 . S
C4568 H4562 0.949 . S
C4568 C4572 1.368 . S
C4569 C4550 1.429 . S
C4569 C4563 1.429 . S
C4569 C4570 1.523 . S
C4570 C4551 1.368 . S
C4570 C4564 1.368 . S
C4570 C4569 1.523 . S
C4571 C4555 1.429 . S
C4571 C4567 1.429 . S
C4571 C4572 1.523 . S
C4572 C4556 1.368 . S
C4572 C4568 1.368 . S
C4572 C4571 1.523 . S
H4573 C4548 0.950 . S
H4574 C4550 0.950 . S
H4575 C4551 0.949 . S
H4576 C4553 0.950 . S
H4577 C4555 0.950 . S
C4578 C4579 1.349 . S
C4578 C4580 1.327 . S
C4578 H4603 0.950 . S
C4579 C4578 1.349 . S
C4579 C4595 1.349 . S
C4580 C4578 1.327 . S
C4580 C4599 1.429 . S
C4580 H4604 0.950 . S
C4581 C4598 1.574 . S
C4581 C4600 1.368 . S
C4581 H4605 0.949 . S
H4582 C4586 0.949 . S
C4583 C4584 1.349 . S
C4583 C4585 1.327 . S
C4583 H4606 0.950 . S
C4584 C4583 1.349 . S
C4584 C4596 1.349 . S
C4585 C4583 1.327 . S
C4585 C4601 1.429 . S
C4585 H4607 0.950 . S
C4586 H4582 0.949 . S
C4586 C4594 1.574 . S
C4586 C4602 1.368 . S
H4587 C4595 0.950 . S
H4588 C4593 0.950 . S
H4589 C4594 0.949 . S
H4590 C4596 0.950 . S
H4591 C4597 0.950 . S
H4592 C4598 0.949 . S
C4593 H4588 0.950 . S
C4593 C4595 1.327 . S
C4593 C4599 1.429 . S
C4594 C4586 1.574 . S
C4594 H4589 0.949 . S
C4594 C4600 1.368 . S
C4595 C4579 1.349 . S
C4595 H4587 0.950 . S
C4595 C4593 1.327 . S
C4596 C4584 1.349 . S
C4596 H4590 0.950 . S
C4596 C4597 1.327 . S
C4597 H4591 0.950 . S
C4597 C4596 1.327 . S
C4597 C4601 1.429 . S
C4598 C4581 1.574 . S
C4598 H4592 0.949 . S
C4598 C4602 1.368 . S
C4599 C4580 1.429 . S
C4599 C4593 1.429 . S
C4599 C4600 1.523 . S
C4600 C4581 1.368 . S
C4600 C4594 1.368 . S
C4600 C4599 1.523 . S
C4601 C4585 1.429 . S
C4601 C4597 1.429 . S
C4601 C4602 1.523 . S
C4602 C4586 1.368 . S
C4602 C4598 1.368 . S
C4602 C4601 1.523 . S
H4603 C4578 0.950 . S
H4604 C4580 0.950 . S
H4605 C4581 0.949 . S
H4606 C4583 0.950 . S
H4607 C4585 0.950 . S
C4608 C4609 1.349 . S
C4608 C4610 1.327 . S
C4608 H4633 0.950 . S
C4609 C4608 1.349 . S
C4609 C4625 1.349 . S
C4610 C4608 1.327 . S
C4610 C4629 1.429 . S
C4610 H4634 0.950 . S
C4611 C4628 1.574 . S
C4611 C4630 1.368 . S
C4611 H4635 0.949 . S
H4612 C4616 0.949 . S
C4613 C4614 1.349 . S
C4613 C4615 1.327 . S
C4613 H4636 0.950 . S
C4614 C4613 1.349 . S
C4614 C4626 1.349 . S
C4615 C4613 1.327 . S
C4615 C4631 1.429 . S
C4615 H4637 0.950 . S
C4616 H4612 0.949 . S
C4616 C4624 1.574 . S
C4616 C4632 1.368 . S
H4617 C4625 0.950 . S
H4618 C4623 0.950 . S
H4619 C4624 0.949 . S
H4620 C4626 0.950 . S
H4621 C4627 0.950 . S
H4622 C4628 0.949 . S
C4623 H4618 0.950 . S
C4623 C4625 1.327 . S
C4623 C4629 1.429 . S
C4624 C4616 1.574 . S
C4624 H4619 0.949 . S
C4624 C4630 1.368 . S
C4625 C4609 1.349 . S
C4625 H4617 0.950 . S
C4625 C4623 1.327 . S
C4626 C4614 1.349 . S
C4626 H4620 0.950 . S
C4626 C4627 1.327 . S
C4627 H4621 0.950 . S
C4627 C4626 1.327 . S
C4627 C4631 1.429 . S
C4628 C4611 1.574 . S
C4628 H4622 0.949 . S
C4628 C4632 1.368 . S
C4629 C4610 1.429 . S
C4629 C4623 1.429 . S
C4629 C4630 1.523 . S
C4630 C4611 1.368 . S
C4630 C4624 1.368 . S
C4630 C4629 1.523 . S
C4631 C4615 1.429 . S
C4631 C4627 1.429 . S
C4631 C4632 1.523 . S
C4632 C4616 1.368 . S
C4632 C4628 1.368 . S
C4632 C4631 1.523 . S
H4633 C4608 0.950 . S
H4634 C4610 0.950 . S
H4635 C4611 0.949 . S
H4636 C4613 0.950 . S
H4637 C4615 0.950 . S
C4638 C4639 1.349 . S
C4638 C4640 1.327 . S
C4638 H4663 0.950 . S
C4639 C4638 1.349 . S
C4639 C4655 1.349 . S
C4640 C4638 1.327 . S
C4640 C4659 1.429 . S
C4640 H4664 0.950 . S
C4641 C4658 1.574 . S
C4641 C4660 1.368 . S
C4641 H4665 0.949 . S
H4642 C4646 0.949 . S
C4643 C4644 1.349 . S
C4643 C4645 1.327 . S
C4643 H4666 0.950 . S
C4644 C4643 1.349 . S
C4644 C4656 1.349 . S
C4645 C4643 1.327 . S
C4645 C4661 1.429 . S
C4645 H4667 0.950 . S
C4646 H4642 0.949 . S
C4646 C4654 1.574 . S
C4646 C4662 1.368 . S
H4647 C4655 0.950 . S
H4648 C4653 0.950 . S
H4649 C4654 0.949 . S
H4650 C4656 0.950 . S
H4651 C4657 0.950 . S
H4652 C4658 0.949 . S
C4653 H4648 0.950 . S
C4653 C4655 1.327 . S
C4653 C4659 1.429 . S
C4654 C4646 1.574 . S
C4654 H4649 0.949 . S
C4654 C4660 1.368 . S
C4655 C4639 1.349 . S
C4655 H4647 0.950 . S
C4655 C4653 1.327 . S
C4656 C4644 1.349 . S
C4656 H4650 0.950 . S
C4656 C4657 1.327 . S
C4657 H4651 0.950 . S
C4657 C4656 1.327 . S
C4657 C4661 1.429 . S
C4658 C4641 1.574 . S
C4658 H4652 0.949 . S
C4658 C4662 1.368 . S
C4659 C4640 1.429 . S
C4659 C4653 1.429 . S
C4659 C4660 1.523 . S
C4660 C4641 1.368 . S
C4660 C4654 1.368 . S
C4660 C4659 1.523 . S
C4661 C4645 1.429 . S
C4661 C4657 1.429 . S
C4661 C4662 1.523 . S
C4662 C4646 1.368 . S
C4662 C4658 1.368 . S
C4662 C4661 1.523 . S
H4663 C4638 0.950 . S
H4664 C4640 0.950 . S
H4665 C4641 0.949 . S
H4666 C4643 0.950 . S
H4667 C4645 0.950 . S
C4668 C4669 1.349 . S
C4668 C4670 1.327 . S
C4668 H4693 0.950 . S
C4669 C4668 1.349 . S
C4669 C4685 1.349 . S
C4670 C4668 1.327 . S
C4670 C4689 1.429 . S
C4670 H4694 0.950 . S
C4671 C4688 1.574 . S
C4671 C4690 1.368 . S
C4671 H4695 0.949 . S
H4672 C4676 0.949 . S
C4673 C4674 1.349 . S
C4673 C4675 1.327 . S
C4673 H4696 0.950 . S
C4674 C4673 1.349 . S
C4674 C4686 1.349 . S
C4675 C4673 1.327 . S
C4675 C4691 1.429 . S
C4675 H4697 0.950 . S
C4676 H4672 0.949 . S
C4676 C4684 1.574 . S
C4676 C4692 1.368 . S
H4677 C4685 0.950 . S
H4678 C4683 0.950 . S
H4679 C4684 0.949 . S
H4680 C4686 0.950 . S
H4681 C4687 0.950 . S
H4682 C4688 0.949 . S
C4683 H4678 0.950 . S
C4683 C4685 1.327 . S
C4683 C4689 1.429 . S
C4684 C4676 1.574 . S
C4684 H4679 0.949 . S
C4684 C4690 1.368 . S
C4685 C4669 1.349 . S
C4685 H4677 0.950 . S
C4685 C4683 1.327 . S
C4686 C4674 1.349 . S
C4686 H4680 0.950 . S
C4686 C4687 1.327 . S
C4687 H4681 0.950 . S
C4687 C4686 1.327 . S
C4687 C4691 1.429 . S
C4688 C4671 1.574 . S
C4688 H4682 0.949 . S
C4688 C4692 1.368 . S
C4689 C4670 1.429 . S
C4689 C4683 1.429 . S
C4689 C4690 1.523 . S
C4690 C4671 1.368 . S
C4690 C4684 1.368 . S
C4690 C4689 1.523 . S
C4691 C4675 1.429 . S
C4691 C4687 1.429 . S
C4691 C4692 1.523 . S
C4692 C4676 1.368 . S
C4692 C4688 1.368 . S
C4692 C4691 1.523 . S
H4693 C4668 0.950 . S
H4694 C4670 0.950 . S
H4695 C4671 0.949 . S
H4696 C4673 0.950 . S
H4697 C4675 0.950 . S
C4698 C4699 1.349 . S
C4698 C4700 1.327 . S
C4698 H4723 0.950 . S
C4699 C4698 1.349 . S
C4699 C4715 1.349 . S
C4700 C4698 1.327 . S
C4700 C4719 1.429 . S
C4700 H4724 0.950 . S
C4701 C4718 1.574 . S
C4701 C4720 1.368 . S
C4701 H4725 0.949 . S
H4702 C4706 0.949 . S
C4703 C4704 1.349 . S
C4703 C4705 1.327 . S
C4703 H4726 0.950 . S
C4704 C4703 1.349 . S
C4704 C4716 1.349 . S
C4705 C4703 1.327 . S
C4705 C4721 1.429 . S
C4705 H4727 0.950 . S
C4706 H4702 0.949 . S
C4706 C4714 1.574 . S
C4706 C4722 1.368 . S
H4707 C4715 0.950 . S
H4708 C4713 0.950 . S
H4709 C4714 0.949 . S
H4710 C4716 0.950 . S
H4711 C4717 0.950 . S
H4712 C4718 0.949 . S
C4713 H4708 0.950 . S
C4713 C4715 1.327 . S
C4713 C4719 1.429 . S
C4714 C4706 1.574 . S
C4714 H4709 0.949 . S
C4714 C4720 1.368 . S
C4715 C4699 1.349 . S
C4715 H4707 0.950 . S
C4715 C4713 1.327 . S
C4716 C4704 1.349 . S
C4716 H4710 0.950 . S
C4716 C4717 1.327 . S
C4717 H4711 0.950 . S
C4717 C4716 1.327 . S
C4717 C4721 1.429 . S
C4718 C4701 1.574 . S
C4718 H4712 0.949 . S
C4718 C4722 1.368 . S
C4719 C4700 1.429 . S
C4719 C4713 1.429 . S
C4719 C4720 1.523 . S
C4720 C4701 1.368 . S
C4720 C4714 1.368 . S
C4720 C4719 1.523 . S
C4721 C4705 1.429 . S
C4721 C4717 1.429 . S
C4721 C4722 1.523 . S
C4722 C4706 1.368 . S
C4722 C4718 1.368 . S
C4722 C4721 1.523 . S
H4723 C4698 0.950 . S
H4724 C4700 0.950 . S
H4725 C4701 0.949 . S
H4726 C4703 0.950 . S
H4727 C4705 0.950 . S
C4728 C4729 1.349 . S
C4728 C4730 1.327 . S
C4728 H4753 0.950 . S
C4729 C4728 1.349 . S
C4729 C4745 1.349 . S
C4730 C4728 1.327 . S
C4730 C4749 1.429 . S
C4730 H4754 0.950 . S
C4731 C4748 1.574 . S
C4731 C4750 1.368 . S
C4731 H4755 0.949 . S
H4732 C4736 0.949 . S
C4733 C4734 1.349 . S
C4733 C4735 1.327 . S
C4733 H4756 0.950 . S
C4734 C4733 1.349 . S
C4734 C4746 1.349 . S
C4735 C4733 1.327 . S
C4735 C4751 1.429 . S
C4735 H4757 0.950 . S
C4736 H4732 0.949 . S
C4736 C4744 1.574 . S
C4736 C4752 1.368 . S
H4737 C4745 0.950 . S
H4738 C4743 0.950 . S
H4739 C4744 0.949 . S
H4740 C4746 0.950 . S
H4741 C4747 0.950 . S
H4742 C4748 0.949 . S
C4743 H4738 0.950 . S
C4743 C4745 1.327 . S
C4743 C4749 1.429 . S
C4744 C4736 1.574 . S
C4744 H4739 0.949 . S
C4744 C4750 1.368 . S
C4745 C4729 1.349 . S
C4745 H4737 0.950 . S
C4745 C4743 1.327 . S
C4746 C4734 1.349 . S
C4746 H4740 0.950 . S
C4746 C4747 1.327 . S
C4747 H4741 0.950 . S
C4747 C4746 1.327 . S
C4747 C4751 1.429 . S
C4748 C4731 1.574 . S
C4748 H4742 0.949 . S
C4748 C4752 1.368 . S
C4749 C4730 1.429 . S
C4749 C4743 1.429 . S
C4749 C4750 1.523 . S
C4750 C4731 1.368 . S
C4750 C4744 1.368 . S
C4750 C4749 1.523 . S
C4751 C4735 1.429 . S
C4751 C4747 1.429 . S
C4751 C4752 1.523 . S
C4752 C4736 1.368 . S
C4752 C4748 1.368 . S
C4752 C4751 1.523 . S
H4753 C4728 0.950 . S
H4754 C4730 0.950 . S
H4755 C4731 0.949 . S
H4756 C4733 0.950 . S
H4757 C4735 0.950 . S
C4758 C4759 1.349 . S
C4758 C4760 1.327 . S
C4758 H4783 0.950 . S
C4759 C4758 1.349 . S
C4759 C4775 1.349 . S
C4760 C4758 1.327 . S
C4760 C4779 1.429 . S
C4760 H4784 0.950 . S
C4761 C4778 1.574 . S
C4761 C4780 1.368 . S
C4761 H4785 0.949 . S
H4762 C4766 0.949 . S
C4763 C4764 1.349 . S
C4763 C4765 1.327 . S
C4763 H4786 0.950 . S
C4764 C4763 1.349 . S
C4764 C4776 1.349 . S
C4765 C4763 1.327 . S
C4765 C4781 1.429 . S
C4765 H4787 0.950 . S
C4766 H4762 0.949 . S
C4766 C4774 1.574 . S
C4766 C4782 1.368 . S
H4767 C4775 0.950 . S
H4768 C4773 0.950 . S
H4769 C4774 0.949 . S
H4770 C4776 0.950 . S
H4771 C4777 0.950 . S
H4772 C4778 0.949 . S
C4773 H4768 0.950 . S
C4773 C4775 1.327 . S
C4773 C4779 1.429 . S
C4774 C4766 1.574 . S
C4774 H4769 0.949 . S
C4774 C4780 1.368 . S
C4775 C4759 1.349 . S
C4775 H4767 0.950 . S
C4775 C4773 1.327 . S
C4776 C4764 1.349 . S
C4776 H4770 0.950 . S
C4776 C4777 1.327 . S
C4777 H4771 0.950 . S
C4777 C4776 1.327 . S
C4777 C4781 1.429 . S
C4778 C4761 1.574 . S
C4778 H4772 0.949 . S
C4778 C4782 1.368 . S
C4779 C4760 1.429 . S
C4779 C4773 1.429 . S
C4779 C4780 1.523 . S
C4780 C4761 1.368 . S
C4780 C4774 1.368 . S
C4780 C4779 1.523 . S
C4781 C4765 1.429 . S
C4781 C4777 1.429 . S
C4781 C4782 1.523 . S
C4782 C4766 1.368 . S
C4782 C4778 1.368 . S
C4782 C4781 1.523 . S
H4783 C4758 0.950 . S
H4784 C4760 0.950 . S
H4785 C4761 0.949 . S
H4786 C4763 0.950 . S
H4787 C4765 0.950 . S
C4788 C4789 1.349 . S
C4788 C4790 1.327 . S
C4788 H4813 0.950 . S
C4789 C4788 1.349 . S
C4789 C4805 1.349 . S
C4790 C4788 1.327 . S
C4790 C4809 1.429 . S
C4790 H4814 0.950 . S
C4791 C4808 1.574 . S
C4791 C4810 1.368 . S
C4791 H4815 0.949 . S
H4792 C4796 0.949 . S
C4793 C4794 1.349 . S
C4793 C4795 1.327 . S
C4793 H4816 0.950 . S
C4794 C4793 1.349 . S
C4794 C4806 1.349 . S
C4795 C4793 1.327 . S
C4795 C4811 1.429 . S
C4795 H4817 0.950 . S
C4796 H4792 0.949 . S
C4796 C4804 1.574 . S
C4796 C4812 1.368 . S
H4797 C4805 0.950 . S
H4798 C4803 0.950 . S
H4799 C4804 0.949 . S
H4800 C4806 0.950 . S
H4801 C4807 0.950 . S
H4802 C4808 0.949 . S
C4803 H4798 0.950 . S
C4803 C4805 1.327 . S
C4803 C4809 1.429 . S
C4804 C4796 1.574 . S
C4804 H4799 0.949 . S
C4804 C4810 1.368 . S
C4805 C4789 1.349 . S
C4805 H4797 0.950 . S
C4805 C4803 1.327 . S
C4806 C4794 1.349 . S
C4806 H4800 0.950 . S
C4806 C4807 1.327 . S
C4807 H4801 0.950 . S
C4807 C4806 1.327 . S
C4807 C4811 1.429 . S
C4808 C4791 1.574 . S
C4808 H4802 0.949 . S
C4808 C4812 1.368 . S
C4809 C4790 1.429 . S
C4809 C4803 1.429 . S
C4809 C4810 1.523 . S
C4810 C4791 1.368 . S
C4810 C4804 1.368 . S
C4810 C4809 1.523 . S
C4811 C4795 1.429 . S
C4811 C4807 1.429 . S
C4811 C4812 1.523 . S
C4812 C4796 1.368 . S
C4812 C4808 1.368 . S
C4812 C4811 1.523 . S
H4813 C4788 0.950 . S
H4814 C4790 0.950 . S
H4815 C4791 0.949 . S
H4816 C4793 0.950 . S
H4817 C4795 0.950 . S
C4818 C4819 1.349 . S
C4818 C4820 1.327 . S
C4818 H4843 0.950 . S
C4819 C4818 1.349 . S
C4819 C4835 1.349 . S
C4820 C4818 1.327 . S
C4820 C4839 1.429 . S
C4820 H4844 0.950 . S
C4821 C4838 1.574 . S
C4821 C4840 1.368 . S
C4821 H4845 0.949 . S
H4822 C4826 0.949 . S
C4823 C4824 1.349 . S
C4823 C4825 1.327 . S
C4823 H4846 0.950 . S
C4824 C4823 1.349 . S
C4824 C4836 1.349 . S
C4825 C4823 1.327 . S
C4825 C4841 1.429 . S
C4825 H4847 0.950 . S
C4826 H4822 0.949 . S
C4826 C4834 1.574 . S
C4826 C4842 1.368 . S
H4827 C4835 0.950 . S
H4828 C4833 0.950 . S
H4829 C4834 0.949 . S
H4830 C4836 0.950 . S
H4831 C4837 0.950 . S
H4832 C4838 0.949 . S
C4833 H4828 0.950 . S
C4833 C4835 1.327 . S
C4833 C4839 1.429 . S
C4834 C4826 1.574 . S
C4834 H4829 0.949 . S
C4834 C4840 1.368 . S
C4835 C4819 1.349 . S
C4835 H4827 0.950 . S
C4835 C4833 1.327 . S
C4836 C4824 1.349 . S
C4836 H4830 0.950 . S
C4836 C4837 1.327 . S
C4837 H4831 0.950 . S
C4837 C4836 1.327 . S
C4837 C4841 1.429 . S
C4838 C4821 1.574 . S
C4838 H4832 0.949 . S
C4838 C4842 1.368 . S
C4839 C4820 1.429 . S
C4839 C4833 1.429 . S
C4839 C4840 1.523 . S
C4840 C4821 1.368 . S
C4840 C4834 1.368 . S
C4840 C4839 1.523 . S
C4841 C4825 1.429 . S
C4841 C4837 1.429 . S
C4841 C4842 1.523 . S
C4842 C4826 1.368 . S
C4842 C4838 1.368 . S
C4842 C4841 1.523 . S
H4843 C4818 0.950 . S
H4844 C4820 0.950 . S
H4845 C4821 0.949 . S
H4846 C4823 0.950 . S
H4847 C4825 0.950 . S
C4848 C4849 1.349 . S
C4848 C4850 1.327 . S
C4848 H4873 0.950 . S
C4849 C4848 1.349 . S
C4849 C4865 1.349 . S
C4850 C4848 1.327 . S
C4850 C4869 1.429 . S
C4850 H4874 0.950 . S
C4851 C4868 1.574 . S
C4851 C4870 1.368 . S
C4851 H4875 0.949 . S
H4852 C4856 0.949 . S
C4853 C4854 1.349 . S
C4853 C4855 1.327 . S
C4853 H4876 0.950 . S
C4854 C4853 1.349 . S
C4854 C4866 1.349 . S
C4855 C4853 1.327 . S
C4855 C4871 1.429 . S
C4855 H4877 0.950 . S
C4856 H4852 0.949 . S
C4856 C4864 1.574 . S
C4856 C4872 1.368 . S
H4857 C4865 0.950 . S
H4858 C4863 0.950 . S
H4859 C4864 0.949 . S
H4860 C4866 0.950 . S
H4861 C4867 0.950 . S
H4862 C4868 0.949 . S
C4863 H4858 0.950 . S
C4863 C4865 1.327 . S
C4863 C4869 1.429 . S
C4864 C4856 1.574 . S
C4864 H4859 0.949 . S
C4864 C4870 1.368 . S
C4865 C4849 1.349 . S
C4865 H4857 0.950 . S
C4865 C4863 1.327 . S
C4866 C4854 1.349 . S
C4866 H4860 0.950 . S
C4866 C4867 1.327 . S
C4867 H4861 0.950 . S
C4867 C4866 1.327 . S
C4867 C4871 1.429 . S
C4868 C4851 1.574 . S
C4868 H4862 0.949 . S
C4868 C4872 1.368 . S
C4869 C4850 1.429 . S
C4869 C4863 1.429 . S
C4869 C4870 1.523 . S
C4870 C4851 1.368 . S
C4870 C4864 1.368 . S
C4870 C4869 1.523 . S
C4871 C4855 1.429 . S
C4871 C4867 1.429 . S
C4871 C4872 1.523 . S
C4872 C4856 1.368 . S
C4872 C4868 1.368 . S
C4872 C4871 1.523 . S
H4873 C4848 0.950 . S
H4874 C4850 0.950 . S
H4875 C4851 0.949 . S
H4876 C4853 0.950 . S
H4877 C4855 0.950 . S
C4878 C4879 1.349 . S
C4878 C4880 1.327 . S
C4878 H4903 0.950 . S
C4879 C4878 1.349 . S
C4879 C4895 1.349 . S
C4880 C4878 1.327 . S
C4880 C4899 1.429 . S
C4880 H4904 0.950 . S
C4881 C4898 1.574 . S
C4881 C4900 1.368 . S
C4881 H4905 0.949 . S
H4882 C4886 0.949 . S
C4883 C4884 1.349 . S
C4883 C4885 1.327 . S
C4883 H4906 0.950 . S
C4884 C4883 1.349 . S
C4884 C4896 1.349 . S
C4885 C4883 1.327 . S
C4885 C4901 1.429 . S
C4885 H4907 0.950 . S
C4886 H4882 0.949 . S
C4886 C4894 1.574 . S
C4886 C4902 1.368 . S
H4887 C4895 0.950 . S
H4888 C4893 0.950 . S
H4889 C4894 0.949 . S
H4890 C4896 0.950 . S
H4891 C4897 0.950 . S
H4892 C4898 0.949 . S
C4893 H4888 0.950 . S
C4893 C4895 1.327 . S
C4893 C4899 1.429 . S
C4894 C4886 1.574 . S
C4894 H4889 0.949 . S
C4894 C4900 1.368 . S
C4895 C4879 1.349 . S
C4895 H4887 0.950 . S
C4895 C4893 1.327 . S
C4896 C4884 1.349 . S
C4896 H4890 0.950 . S
C4896 C4897 1.327 . S
C4897 H4891 0.950 . S
C4897 C4896 1.327 . S
C4897 C4901 1.429 . S
C4898 C4881 1.574 . S
C4898 H4892 0.949 . S
C4898 C4902 1.368 . S
C4899 C4880 1.429 . S
C4899 C4893 1.429 . S
C4899 C4900 1.523 . S
C4900 C4881 1.368 . S
C4900 C4894 1.368 . S
C4900 C4899 1.523 . S
C4901 C4885 1.429 . S
C4901 C4897 1.429 . S
C4901 C4902 1.523 . S
C4902 C4886 1.368 . S
C4902 C4898 1.368 . S
C4902 C4901 1.523 . S
H4903 C4878 0.950 . S
H4904 C4880 0.950 . S
H4905 C4881 0.949 . S
H4906 C4883 0.950 . S
H4907 C4885 0.950 . S
C4908 C4909 1.349 . S
C4908 C4910 1.327 . S
C4908 H4933 0.950 . S
C4909 C4908 1.349 . S
C4909 C4925 1.349 . S
C4910 C4908 1.327 . S
C4910 C4929 1.429 . S
C4910 H4934 0.950 . S
C4911 C4928 1.574 . S
C4911 C4930 1.368 . S
C4911 H4935 0.949 . S
H4912 C4916 0.949 . S
C4913 C4914 1.349 . S
C4913 C4915 1.327 . S
C4913 H4936 0.950 . S
C4914 C4913 1.349 . S
C4914 C4926 1.349 . S
C4915 C4913 1.327 . S
C4915 C4931 1.429 . S
C4915 H4937 0.950 . S
C4916 H4912 0.949 . S
C4916 C4924 1.574 . S
C4916 C4932 1.368 . S
H4917 C4925 0.950 . S
H4918 C4923 0.950 . S
H4919 C4924 0.949 . S
H4920 C4926 0.950 . S
H4921 C4927 0.950 . S
H4922 C4928 0.949 . S
C4923 H4918 0.950 . S
C4923 C4925 1.327 . S
C4923 C4929 1.429 . S
C4924 C4916 1.574 . S
C4924 H4919 0.949 . S
C4924 C4930 1.368 . S
C4925 C4909 1.349 . S
C4925 H4917 0.950 . S
C4925 C4923 1.327 . S
C4926 C4914 1.349 . S
C4926 H4920 0.950 . S
C4926 C4927 1.327 . S
C4927 H4921 0.950 . S
C4927 C4926 1.327 . S
C4927 C4931 1.429 . S
C4928 C4911 1.574 . S
C4928 H4922 0.949 . S
C4928 C4932 1.368 . S
C4929 C4910 1.429 . S
C4929 C4923 1.429 . S
C4929 C4930 1.523 . S
C4930 C4911 1.368 . S
C4930 C4924 1.368 . S
C4930 C4929 1.523 . S
C4931 C4915 1.429 . S
C4931 C4927 1.429 . S
C4931 C4932 1.523 . S
C4932 C4916 1.368 . S
C4932 C4928 1.368 . S
C4932 C4931 1.523 . S
H4933 C4908 0.950 . S
H4934 C4910 0.950 . S
H4935 C4911 0.949 . S
H4936 C4913 0.950 . S
H4937 C4915 0.950 . S
C4938 C4939 1.349 . S
C4938 C4940 1.327 . S
C4938 H4963 0.950 . S
C4939 C4938 1.349 . S
C4939 C4955 1.349 . S
C4940 C4938 1.327 . S
C4940 C4959 1.429 . S
C4940 H4964 0.950 . S
C4941 C4958 1.574 . S
C4941 C4960 1.368 . S
C4941 H4965 0.949 . S
H4942 C4946 0.949 . S
C4943 C4944 1.349 . S
C4943 C4945 1.327 . S
C4943 H4966 0.950 . S
C4944 C4943 1.349 . S
C4944 C4956 1.349 . S
C4945 C4943 1.327 . S
C4945 C4961 1.429 . S
C4945 H4967 0.950 . S
C4946 H4942 0.949 . S
C4946 C4954 1.574 . S
C4946 C4962 1.368 . S
H4947 C4955 0.950 . S
H4948 C4953 0.950 . S
H4949 C4954 0.949 . S
H4950 C4956 0.950 . S
H4951 C4957 0.950 . S
H4952 C4958 0.949 . S
C4953 H4948 0.950 . S
C4953 C4955 1.327 . S
C4953 C4959 1.429 . S
C4954 C4946 1.574 . S
C4954 H4949 0.949 . S
C4954 C4960 1.368 . S
C4955 C4939 1.349 . S
C4955 H4947 0.950 . S
C4955 C4953 1.327 . S
C4956 C4944 1.349 . S
C4956 H4950 0.950 . S
C4956 C4957 1.327 . S
C4957 H4951 0.950 . S
C4957 C4956 1.327 . S
C4957 C4961 1.429 . S
C4958 C4941 1.574 . S
C4958 H4952 0.949 . S
C4958 C4962 1.368 . S
C4959 C4940 1.429 . S
C4959 C4953 1.429 . S
C4959 C4960 1.523 . S
C4960 C4941 1.368 . S
C4960 C4954 1.368 . S
C4960 C4959 1.523 . S
C4961 C4945 1.429 . S
C4961 C4957 1.429 . S
C4961 C4962 1.523 . S
C4962 C4946 1.368 . S
C4962 C4958 1.368 . S
C4962 C4961 1.523 . S
H4963 C4938 0.950 . S
H4964 C4940 0.950 . S
H4965 C4941 0.949 . S
H4966 C4943 0.950 . S
H4967 C4945 0.950 . S
C4968 C4969 1.349 . S
C4968 C4970 1.327 . S
C4968 H4993 0.950 . S
C4969 C4968 1.349 . S
C4969 C4985 1.349 . S
C4970 C4968 1.327 . S
C4970 C4989 1.429 . S
C4970 H4994 0.950 . S
C4971 C4988 1.574 . S
C4971 C4990 1.368 . S
C4971 H4995 0.949 . S
H4972 C4976 0.949 . S
C4973 C4974 1.349 . S
C4973 C4975 1.327 . S
C4973 H4996 0.950 . S
C4974 C4973 1.349 . S
C4974 C4986 1.349 . S
C4975 C4973 1.327 . S
C4975 C4991 1.429 . S
C4975 H4997 0.950 . S
C4976 H4972 0.949 . S
C4976 C4984 1.574 . S
C4976 C4992 1.368 . S
H4977 C4985 0.950 . S
H4978 C4983 0.950 . S
H4979 C4984 0.949 . S
H4980 C4986 0.950 . S
H4981 C4987 0.950 . S
H4982 C4988 0.949 . S
C4983 H4978 0.950 . S
C4983 C4985 1.327 . S
C4983 C4989 1.429 . S
C4984 C4976 1.574 . S
C4984 H4979 0.949 . S
C4984 C4990 1.368 . S
C4985 C4969 1.349 . S
C4985 H4977 0.950 . S
C4985 C4983 1.327 . S
C4986 C4974 1.349 . S
C4986 H4980 0.950 . S
C4986 C4987 1.327 . S
C4987 H4981 0.950 . S
C4987 C4986 1.327 . S
C4987 C4991 1.429 . S
C4988 C4971 1.574 . S
C4988 H4982 0.949 . S
C4988 C4992 1.368 . S
C4989 C4970 1.429 . S
C4989 C4983 1.429 . S
C4989 C4990 1.523 . S
C4990 C4971 1.368 . S
C4990 C4984 1.368 . S
C4990 C4989 1.523 . S
C4991 C4975 1.429 . S
C4991 C4987 1.429 . S
C4991 C4992 1.523 . S
C4992 C4976 1.368 . S
C4992 C4988 1.368 . S
C4992 C4991 1.523 . S
H4993 C4968 0.950 . S
H4994 C4970 0.950 . S
H4995 C4971 0.949 . S
H4996 C4973 0.950 . S
H4997 C4975 0.950 . S
C4998 C4999 1.349 . S
C4998 C5000 1.327 . S
C4998 H5023 0.950 . S
C4999 C4998 1.349 . S
C4999 C5015 1.349 . S
C5000 C4998 1.327 . S
C5000 C5019 1.429 . S
C5000 H5024 0.950 . S
C5001 C5018 1.574 . S
C5001 C5020 1.368 . S
C5001 H5025 0.949 . S
H5002 C5006 0.949 . S
C5003 C5004 1.349 . S
C5003 C5005 1.327 . S
C5003 H5026 0.950 . S
C5004 C5003 1.349 . S
C5004 C5016 1.349 . S
C5005 C5003 1.327 . S
C5005 C5021 1.429 . S
C5005 H5027 0.950 . S
C5006 H5002 0.949 . S
C5006 C5014 1.574 . S
C5006 C5022 1.368 . S
H5007 C5015 0.950 . S
H5008 C5013 0.950 . S
H5009 C5014 0.949 . S
H5010 C5016 0.950 . S
H5011 C5017 0.950 . S
H5012 C5018 0.949 . S
C5013 H5008 0.950 . S
C5013 C5015 1.327 . S
C5013 C5019 1.429 . S
C5014 C5006 1.574 . S
C5014 H5009 0.949 . S
C5014 C5020 1.368 . S
C5015 C4999 1.349 . S
C5015 H5007 0.950 . S
C5015 C5013 1.327 . S
C5016 C5004 1.349 . S
C5016 H5010 0.950 . S
C5016 C5017 1.327 . S
C5017 H5011 0.950 . S
C5017 C5016 1.327 . S
C5017 C5021 1.429 . S
C5018 C5001 1.574 . S
C5018 H5012 0.949 . S
C5018 C5022 1.368 . S
C5019 C5000 1.429 . S
C5019 C5013 1.429 . S
C5019 C5020 1.523 . S
C5020 C5001 1.368 . S
C5020 C5014 1.368 . S
C5020 C5019 1.523 . S
C5021 C5005 1.429 . S
C5021 C5017 1.429 . S
C5021 C5022 1.523 . S
C5022 C5006 1.368 . S
C5022 C5018 1.368 . S
C5022 C5021 1.523 . S
H5023 C4998 0.950 . S
H5024 C5000 0.950 . S
H5025 C5001 0.949 . S
H5026 C5003 0.950 . S
H5027 C5005 0.950 . S
C5028 C5029 1.349 . S
C5028 C5030 1.327 . S
C5028 H5053 0.950 . S
C5029 C5028 1.349 . S
C5029 C5045 1.349 . S
C5030 C5028 1.327 . S
C5030 C5049 1.429 . S
C5030 H5054 0.950 . S
C5031 C5048 1.574 . S
C5031 C5050 1.368 . S
C5031 H5055 0.949 . S
H5032 C5036 0.949 . S
C5033 C5034 1.349 . S
C5033 C5035 1.327 . S
C5033 H5056 0.950 . S
C5034 C5033 1.349 . S
C5034 C5046 1.349 . S
C5035 C5033 1.327 . S
C5035 C5051 1.429 . S
C5035 H5057 0.950 . S
C5036 H5032 0.949 . S
C5036 C5044 1.574 . S
C5036 C5052 1.368 . S
H5037 C5045 0.950 . S
H5038 C5043 0.950 . S
H5039 C5044 0.949 . S
H5040 C5046 0.950 . S
H5041 C5047 0.950 . S
H5042 C5048 0.949 . S
C5043 H5038 0.950 . S
C5043 C5045 1.327 . S
C5043 C5049 1.429 . S
C5044 C5036 1.574 . S
C5044 H5039 0.949 . S
C5044 C5050 1.368 . S
C5045 C5029 1.349 . S
C5045 H5037 0.950 . S
C5045 C5043 1.327 . S
C5046 C5034 1.349 . S
C5046 H5040 0.950 . S
C5046 C5047 1.327 . S
C5047 H5041 0.950 . S
C5047 C5046 1.327 . S
C5047 C5051 1.429 . S
C5048 C5031 1.574 . S
C5048 H5042 0.949 . S
C5048 C5052 1.368 . S
C5049 C5030 1.429 . S
C5049 C5043 1.429 . S
C5049 C5050 1.523 . S
C5050 C5031 1.368 . S
C5050 C5044 1.368 . S
C5050 C5049 1.523 . S
C5051 C5035 1.429 . S
C5051 C5047 1.429 . S
C5051 C5052 1.523 . S
C5052 C5036 1.368 . S
C5052 C5048 1.368 . S
C5052 C5051 1.523 . S
H5053 C5028 0.950 . S
H5054 C5030 0.950 . S
H5055 C5031 0.949 . S
H5056 C5033 0.950 . S
H5057 C5035 0.950 . S
C5058 C5059 1.349 . S
C5058 C5060 1.327 . S
C5058 H5083 0.950 . S
C5059 C5058 1.349 . S
C5059 C5075 1.349 . S
C5060 C5058 1.327 . S
C5060 C5079 1.429 . S
C5060 H5084 0.950 . S
C5061 C5078 1.574 . S
C5061 C5080 1.368 . S
C5061 H5085 0.949 . S
H5062 C5066 0.949 . S
C5063 C5064 1.349 . S
C5063 C5065 1.327 . S
C5063 H5086 0.950 . S
C5064 C5063 1.349 . S
C5064 C5076 1.349 . S
C5065 C5063 1.327 . S
C5065 C5081 1.429 . S
C5065 H5087 0.950 . S
C5066 H5062 0.949 . S
C5066 C5074 1.574 . S
C5066 C5082 1.368 . S
H5067 C5075 0.950 . S
H5068 C5073 0.950 . S
H5069 C5074 0.949 . S
H5070 C5076 0.950 . S
H5071 C5077 0.950 . S
H5072 C5078 0.949 . S
C5073 H5068 0.950 . S
C5073 C5075 1.327 . S
C5073 C5079 1.429 . S
C5074 C5066 1.574 . S
C5074 H5069 0.949 . S
C5074 C5080 1.368 . S
C5075 C5059 1.349 . S
C5075 H5067 0.950 . S
C5075 C5073 1.327 . S
C5076 C5064 1.349 . S
C5076 H5070 0.950 . S
C5076 C5077 1.327 . S
C5077 H5071 0.950 . S
C5077 C5076 1.327 . S
C5077 C5081 1.429 . S
C5078 C5061 1.574 . S
C5078 H5072 0.949 . S
C5078 C5082 1.368 . S
C5079 C5060 1.429 . S
C5079 C5073 1.429 . S
C5079 C5080 1.523 . S
C5080 C5061 1.368 . S
C5080 C5074 1.368 . S
C5080 C5079 1.523 . S
C5081 C5065 1.429 . S
C5081 C5077 1.429 . S
C5081 C5082 1.523 . S
C5082 C5066 1.368 . S
C5082 C5078 1.368 . S
C5082 C5081 1.523 . S
H5083 C5058 0.950 . S
H5084 C5060 0.950 . S
H5085 C5061 0.949 . S
H5086 C5063 0.950 . S
H5087 C5065 0.950 . S
C5088 C5089 1.349 . S
C5088 C5090 1.327 . S
C5088 H5113 0.950 . S
C5089 C5088 1.349 . S
C5089 C5105 1.349 . S
C5090 C5088 1.327 . S
C5090 C5109 1.429 . S
C5090 H5114 0.950 . S
C5091 C5108 1.574 . S
C5091 C5110 1.368 . S
C5091 H5115 0.949 . S
H5092 C5096 0.949 . S
C5093 C5094 1.349 . S
C5093 C5095 1.327 . S
C5093 H5116 0.950 . S
C5094 C5093 1.349 . S
C5094 C5106 1.349 . S
C5095 C5093 1.327 . S
C5095 C5111 1.429 . S
C5095 H5117 0.950 . S
C5096 H5092 0.949 . S
C5096 C5104 1.574 . S
C5096 C5112 1.368 . S
H5097 C5105 0.950 . S
H5098 C5103 0.950 . S
H5099 C5104 0.949 . S
H5100 C5106 0.950 . S
H5101 C5107 0.950 . S
H5102 C5108 0.949 . S
C5103 H5098 0.950 . S
C5103 C5105 1.327 . S
C5103 C5109 1.429 . S
C5104 C5096 1.574 . S
C5104 H5099 0.949 . S
C5104 C5110 1.368 . S
C5105 C5089 1.349 . S
C5105 H5097 0.950 . S
C5105 C5103 1.327 . S
C5106 C5094 1.349 . S
C5106 H5100 0.950 . S
C5106 C5107 1.327 . S
C5107 H5101 0.950 . S
C5107 C5106 1.327 . S
C5107 C5111 1.429 . S
C5108 C5091 1.574 . S
C5108 H5102 0.949 . S
C5108 C5112 1.368 . S
C5109 C5090 1.429 . S
C5109 C5103 1.429 . S
C5109 C5110 1.523 . S
C5110 C5091 1.368 . S
C5110 C5104 1.368 . S
C5110 C5109 1.523 . S
C5111 C5095 1.429 . S
C5111 C5107 1.429 . S
C5111 C5112 1.523 . S
C5112 C5096 1.368 . S
C5112 C5108 1.368 . S
C5112 C5111 1.523 . S
H5113 C5088 0.950 . S
H5114 C5090 0.950 . S
H5115 C5091 0.949 . S
H5116 C5093 0.950 . S
H5117 C5095 0.950 . S
C5118 C5119 1.349 . S
C5118 C5120 1.327 . S
C5118 H5143 0.950 . S
C5119 C5118 1.349 . S
C5119 C5135 1.349 . S
C5120 C5118 1.327 . S
C5120 C5139 1.429 . S
C5120 H5144 0.950 . S
C5121 C5138 1.574 . S
C5121 C5140 1.368 . S
C5121 H5145 0.949 . S
H5122 C5126 0.949 . S
C5123 C5124 1.349 . S
C5123 C5125 1.327 . S
C5123 H5146 0.950 . S
C5124 C5123 1.349 . S
C5124 C5136 1.349 . S
C5125 C5123 1.327 . S
C5125 C5141 1.429 . S
C5125 H5147 0.950 . S
C5126 H5122 0.949 . S
C5126 C5134 1.574 . S
C5126 C5142 1.368 . S
H5127 C5135 0.950 . S
H5128 C5133 0.950 . S
H5129 C5134 0.949 . S
H5130 C5136 0.950 . S
H5131 C5137 0.950 . S
H5132 C5138 0.949 . S
C5133 H5128 0.950 . S
C5133 C5135 1.327 . S
C5133 C5139 1.429 . S
C5134 C5126 1.574 . S
C5134 H5129 0.949 . S
C5134 C5140 1.368 . S
C5135 C5119 1.349 . S
C5135 H5127 0.950 . S
C5135 C5133 1.327 . S
C5136 C5124 1.349 . S
C5136 H5130 0.950 . S
C5136 C5137 1.327 . S
C5137 H5131 0.950 . S
C5137 C5136 1.327 . S
C5137 C5141 1.429 . S
C5138 C5121 1.574 . S
C5138 H5132 0.949 . S
C5138 C5142 1.368 . S
C5139 C5120 1.429 . S
C5139 C5133 1.429 . S
C5139 C5140 1.523 . S
C5140 C5121 1.368 . S
C5140 C5134 1.368 . S
C5140 C5139 1.523 . S
C5141 C5125 1.429 . S
C5141 C5137 1.429 . S
C5141 C5142 1.523 . S
C5142 C5126 1.368 . S
C5142 C5138 1.368 . S
C5142 C5141 1.523 . S
H5143 C5118 0.950 . S
H5144 C5120 0.950 . S
H5145 C5121 0.949 . S
H5146 C5123 0.950 . S
H5147 C5125 0.950 . S
C5148 C5149 1.349 . S
C5148 C5150 1.327 . S
C5148 H5173 0.950 . S
C5149 C5148 1.349 . S
C5149 C5165 1.349 . S
C5150 C5148 1.327 . S
C5150 C5169 1.429 . S
C5150 H5174 0.950 . S
C5151 C5168 1.574 . S
C5151 C5170 1.368 . S
C5151 H5175 0.949 . S
H5152 C5156 0.949 . S
C5153 C5154 1.349 . S
C5153 C5155 1.327 . S
C5153 H5176 0.950 . S
C5154 C5153 1.349 . S
C5154 C5166 1.349 . S
C5155 C5153 1.327 . S
C5155 C5171 1.429 . S
C5155 H5177 0.950 . S
C5156 H5152 0.949 . S
C5156 C5164 1.574 . S
C5156 C5172 1.368 . S
H5157 C5165 0.950 . S
H5158 C5163 0.950 . S
H5159 C5164 0.949 . S
H5160 C5166 0.950 . S
H5161 C5167 0.950 . S
H5162 C5168 0.949 . S
C5163 H5158 0.950 . S
C5163 C5165 1.327 . S
C5163 C5169 1.429 . S
C5164 C5156 1.574 . S
C5164 H5159 0.949 . S
C5164 C5170 1.368 . S
C5165 C5149 1.349 . S
C5165 H5157 0.950 . S
C5165 C5163 1.327 . S
C5166 C5154 1.349 . S
C5166 H5160 0.950 . S
C5166 C5167 1.327 . S
C5167 H5161 0.950 . S
C5167 C5166 1.327 . S
C5167 C5171 1.429 . S
C5168 C5151 1.574 . S
C5168 H5162 0.949 . S
C5168 C5172 1.368 . S
C5169 C5150 1.429 . S
C5169 C5163 1.429 . S
C5169 C5170 1.523 . S
C5170 C5151 1.368 . S
C5170 C5164 1.368 . S
C5170 C5169 1.523 . S
C5171 C5155 1.429 . S
C5171 C5167 1.429 . S
C5171 C5172 1.523 . S
C5172 C5156 1.368 . S
C5172 C5168 1.368 . S
C5172 C5171 1.523 . S
H5173 C5148 0.950 . S
H5174 C5150 0.950 . S
H5175 C5151 0.949 . S
H5176 C5153 0.950 . S
H5177 C5155 0.950 . S
C5178 C5179 1.349 . S
C5178 C5180 1.327 . S
C5178 H5203 0.950 . S
C5179 C5178 1.349 . S
C5179 C5195 1.349 . S
C5180 C5178 1.327 . S
C5180 C5199 1.429 . S
C5180 H5204 0.950 . S
C5181 C5198 1.574 . S
C5181 C5200 1.368 . S
C5181 H5205 0.949 . S
H5182 C5186 0.949 . S
C5183 C5184 1.349 . S
C5183 C5185 1.327 . S
C5183 H5206 0.950 . S
C5184 C5183 1.349 . S
C5184 C5196 1.349 . S
C5185 C5183 1.327 . S
C5185 C5201 1.429 . S
C5185 H5207 0.950 . S
C5186 H5182 0.949 . S
C5186 C5194 1.574 . S
C5186 C5202 1.368 . S
H5187 C5195 0.950 . S
H5188 C5193 0.950 . S
H5189 C5194 0.949 . S
H5190 C5196 0.950 . S
H5191 C5197 0.950 . S
H5192 C5198 0.949 . S
C5193 H5188 0.950 . S
C5193 C5195 1.327 . S
C5193 C5199 1.429 . S
C5194 C5186 1.574 . S
C5194 H5189 0.949 . S
C5194 C5200 1.368 . S
C5195 C5179 1.349 . S
C5195 H5187 0.950 . S
C5195 C5193 1.327 . S
C5196 C5184 1.349 . S
C5196 H5190 0.950 . S
C5196 C5197 1.327 . S
C5197 H5191 0.950 . S
C5197 C5196 1.327 . S
C5197 C5201 1.429 . S
C5198 C5181 1.574 . S
C5198 H5192 0.949 . S
C5198 C5202 1.368 . S
C5199 C5180 1.429 . S
C5199 C5193 1.429 . S
C5199 C5200 1.523 . S
C5200 C5181 1.368 . S
C5200 C5194 1.368 . S
C5200 C5199 1.523 . S
C5201 C5185 1.429 . S
C5201 C5197 1.429 . S
C5201 C5202 1.523 . S
C5202 C5186 1.368 . S
C5202 C5198 1.368 . S
C5202 C5201 1.523 . S
H5203 C5178 0.950 . S
H5204 C5180 0.950 . S
H5205 C5181 0.949 . S
H5206 C5183 0.950 . S
H5207 C5185 0.950 . S
C5208 C5209 1.349 . S
C5208 C5210 1.327 . S
C5208 H5233 0.950 . S
C5209 C5208 1.349 . S
C5209 C5225 1.349 . S
C5210 C5208 1.327 . S
C5210 C5229 1.429 . S
C5210 H5234 0.950 . S
C5211 C5228 1.574 . S
C5211 C5230 1.368 . S
C5211 H5235 0.949 . S
H5212 C5216 0.949 . S
C5213 C5214 1.349 . S
C5213 C5215 1.327 . S
C5213 H5236 0.950 . S
C5214 C5213 1.349 . S
C5214 C5226 1.349 . S
C5215 C5213 1.327 . S
C5215 C5231 1.429 . S
C5215 H5237 0.950 . S
C5216 H5212 0.949 . S
C5216 C5224 1.574 . S
C5216 C5232 1.368 . S
H5217 C5225 0.950 . S
H5218 C5223 0.950 . S
H5219 C5224 0.949 . S
H5220 C5226 0.950 . S
H5221 C5227 0.950 . S
H5222 C5228 0.949 . S
C5223 H5218 0.950 . S
C5223 C5225 1.327 . S
C5223 C5229 1.429 . S
C5224 C5216 1.574 . S
C5224 H5219 0.949 . S
C5224 C5230 1.368 . S
C5225 C5209 1.349 . S
C5225 H5217 0.950 . S
C5225 C5223 1.327 . S
C5226 C5214 1.349 . S
C5226 H5220 0.950 . S
C5226 C5227 1.327 . S
C5227 H5221 0.950 . S
C5227 C5226 1.327 . S
C5227 C5231 1.429 . S
C5228 C5211 1.574 . S
C5228 H5222 0.949 . S
C5228 C5232 1.368 . S
C5229 C5210 1.429 . S
C5229 C5223 1.429 . S
C5229 C5230 1.523 . S
C5230 C5211 1.368 . S
C5230 C5224 1.368 . S
C5230 C5229 1.523 . S
C5231 C5215 1.429 . S
C5231 C5227 1.429 . S
C5231 C5232 1.523 . S
C5232 C5216 1.368 . S
C5232 C5228 1.368 . S
C5232 C5231 1.523 . S
H5233 C5208 0.950 . S
H5234 C5210 0.950 . S
H5235 C5211 0.949 . S
H5236 C5213 0.950 . S
H5237 C5215 0.950 . S
C5238 C5239 1.349 . S
C5238 C5240 1.327 . S
C5238 H5263 0.950 . S
C5239 C5238 1.349 . S
C5239 C5255 1.349 . S
C5240 C5238 1.327 . S
C5240 C5259 1.429 . S
C5240 H5264 0.950 . S
C5241 C5258 1.574 . S
C5241 C5260 1.368 . S
C5241 H5265 0.949 . S
H5242 C5246 0.949 . S
C5243 C5244 1.349 . S
C5243 C5245 1.327 . S
C5243 H5266 0.950 . S
C5244 C5243 1.349 . S
C5244 C5256 1.349 . S
C5245 C5243 1.327 . S
C5245 C5261 1.429 . S
C5245 H5267 0.950 . S
C5246 H5242 0.949 . S
C5246 C5254 1.574 . S
C5246 C5262 1.368 . S
H5247 C5255 0.950 . S
H5248 C5253 0.950 . S
H5249 C5254 0.949 . S
H5250 C5256 0.950 . S
H5251 C5257 0.950 . S
H5252 C5258 0.949 . S
C5253 H5248 0.950 . S
C5253 C5255 1.327 . S
C5253 C5259 1.429 . S
C5254 C5246 1.574 . S
C5254 H5249 0.949 . S
C5254 C5260 1.368 . S
C5255 C5239 1.349 . S
C5255 H5247 0.950 . S
C5255 C5253 1.327 . S
C5256 C5244 1.349 . S
C5256 H5250 0.950 . S
C5256 C5257 1.327 . S
C5257 H5251 0.950 . S
C5257 C5256 1.327 . S
C5257 C5261 1.429 . S
C5258 C5241 1.574 . S
C5258 H5252 0.949 . S
C5258 C5262 1.368 . S
C5259 C5240 1.429 . S
C5259 C5253 1.429 . S
C5259 C5260 1.523 . S
C5260 C5241 1.368 . S
C5260 C5254 1.368 . S
C5260 C5259 1.523 . S
C5261 C5245 1.429 . S
C5261 C5257 1.429 . S
C5261 C5262 1.523 . S
C5262 C5246 1.368 . S
C5262 C5258 1.368 . S
C5262 C5261 1.523 . S
H5263 C5238 0.950 . S
H5264 C5240 0.950 . S
H5265 C5241 0.949 . S
H5266 C5243 0.950 . S
H5267 C5245 0.950 . S
C5268 C5269 1.349 . S
C5268 C5270 1.327 . S
C5268 H5293 0.950 . S
C5269 C5268 1.349 . S
C5269 C5285 1.349 . S
C5270 C5268 1.327 . S
C5270 C5289 1.429 . S
C5270 H5294 0.950 . S
C5271 C5288 1.574 . S
C5271 C5290 1.368 . S
C5271 H5295 0.949 . S
H5272 C5276 0.949 . S
C5273 C5274 1.349 . S
C5273 C5275 1.327 . S
C5273 H5296 0.950 . S
C5274 C5273 1.349 . S
C5274 C5286 1.349 . S
C5275 C5273 1.327 . S
C5275 C5291 1.429 . S
C5275 H5297 0.950 . S
C5276 H5272 0.949 . S
C5276 C5284 1.574 . S
C5276 C5292 1.368 . S
H5277 C5285 0.950 . S
H5278 C5283 0.950 . S
H5279 C5284 0.949 . S
H5280 C5286 0.950 . S
H5281 C5287 0.950 . S
H5282 C5288 0.949 . S
C5283 H5278 0.950 . S
C5283 C5285 1.327 . S
C5283 C5289 1.429 . S
C5284 C5276 1.574 . S
C5284 H5279 0.949 . S
C5284 C5290 1.368 . S
C5285 C5269 1.349 . S
C5285 H5277 0.950 . S
C5285 C5283 1.327 . S
C5286 C5274 1.349 . S
C5286 H5280 0.950 . S
C5286 C5287 1.327 . S
C5287 H5281 0.950 . S
C5287 C5286 1.327 . S
C5287 C5291 1.429 . S
C5288 C5271 1.574 . S
C5288 H5282 0.949 . S
C5288 C5292 1.368 . S
C5289 C5270 1.429 . S
C5289 C5283 1.429 . S
C5289 C5290 1.523 . S
C5290 C5271 1.368 . S
C5290 C5284 1.368 . S
C5290 C5289 1.523 . S
C5291 C5275 1.429 . S
C5291 C5287 1.429 . S
C5291 C5292 1.523 . S
C5292 C5276 1.368 . S
C5292 C5288 1.368 . S
C5292 C5291 1.523 . S
H5293 C5268 0.950 . S
H5294 C5270 0.950 . S
H5295 C5271 0.949 . S
H5296 C5273 0.950 . S
H5297 C5275 0.950 . S
C5298 C5299 1.349 . S
C5298 C5300 1.327 . S
C5298 H5323 0.950 . S
C5299 C5298 1.349 . S
C5299 C5315 1.349 . S
C5300 C5298 1.327 . S
C5300 C5319 1.429 . S
C5300 H5324 0.950 . S
C5301 C5318 1.574 . S
C5301 C5320 1.368 . S
C5301 H5325 0.949 . S
H5302 C5306 0.949 . S
C5303 C5304 1.349 . S
C5303 C5305 1.327 . S
C5303 H5326 0.950 . S
C5304 C5303 1.349 . S
C5304 C5316 1.349 . S
C5305 C5303 1.327 . S
C5305 C5321 1.429 . S
C5305 H5327 0.950 . S
C5306 H5302 0.949 . S
C5306 C5314 1.574 . S
C5306 C5322 1.368 . S
H5307 C5315 0.950 . S
H5308 C5313 0.950 . S
H5309 C5314 0.949 . S
H5310 C5316 0.950 . S
H5311 C5317 0.950 . S
H5312 C5318 0.949 . S
C5313 H5308 0.950 . S
C5313 C5315 1.327 . S
C5313 C5319 1.429 . S
C5314 C5306 1.574 . S
C5314 H5309 0.949 . S
C5314 C5320 1.368 . S
C5315 C5299 1.349 . S
C5315 H5307 0.950 . S
C5315 C5313 1.327 . S
C5316 C5304 1.349 . S
C5316 H5310 0.950 . S
C5316 C5317 1.327 . S
C5317 H5311 0.950 . S
C5317 C5316 1.327 . S
C5317 C5321 1.429 . S
C5318 C5301 1.574 . S
C5318 H5312 0.949 . S
C5318 C5322 1.368 . S
C5319 C5300 1.429 . S
C5319 C5313 1.429 . S
C5319 C5320 1.523 . S
C5320 C5301 1.368 . S
C5320 C5314 1.368 . S
C5320 C5319 1.523 . S
C5321 C5305 1.429 . S
C5321 C5317 1.429 . S
C5321 C5322 1.523 . S
C5322 C5306 1.368 . S
C5322 C5318 1.368 . S
C5322 C5321 1.523 . S
H5323 C5298 0.950 . S
H5324 C5300 0.950 . S
H5325 C5301 0.949 . S
H5326 C5303 0.950 . S
H5327 C5305 0.950 . S
C5328 C5329 1.349 . S
C5328 C5330 1.327 . S
C5328 H5353 0.950 . S
C5329 C5328 1.349 . S
C5329 C5345 1.349 . S
C5330 C5328 1.327 . S
C5330 C5349 1.429 . S
C5330 H5354 0.950 . S
C5331 C5348 1.574 . S
C5331 C5350 1.368 . S
C5331 H5355 0.949 . S
H5332 C5336 0.949 . S
C5333 C5334 1.349 . S
C5333 C5335 1.327 . S
C5333 H5356 0.950 . S
C5334 C5333 1.349 . S
C5334 C5346 1.349 . S
C5335 C5333 1.327 . S
C5335 C5351 1.429 . S
C5335 H5357 0.950 . S
C5336 H5332 0.949 . S
C5336 C5344 1.574 . S
C5336 C5352 1.368 . S
H5337 C5345 0.950 . S
H5338 C5343 0.950 . S
H5339 C5344 0.949 . S
H5340 C5346 0.950 . S
H5341 C5347 0.950 . S
H5342 C5348 0.949 . S
C5343 H5338 0.950 . S
C5343 C5345 1.327 . S
C5343 C5349 1.429 . S
C5344 C5336 1.574 . S
C5344 H5339 0.949 . S
C5344 C5350 1.368 . S
C5345 C5329 1.349 . S
C5345 H5337 0.950 . S
C5345 C5343 1.327 . S
C5346 C5334 1.349 . S
C5346 H5340 0.950 . S
C5346 C5347 1.327 . S
C5347 H5341 0.950 . S
C5347 C5346 1.327 . S
C5347 C5351 1.429 . S
C5348 C5331 1.574 . S
C5348 H5342 0.949 . S
C5348 C5352 1.368 . S
C5349 C5330 1.429 . S
C5349 C5343 1.429 . S
C5349 C5350 1.523 . S
C5350 C5331 1.368 . S
C5350 C5344 1.368 . S
C5350 C5349 1.523 . S
C5351 C5335 1.429 . S
C5351 C5347 1.429 . S
C5351 C5352 1.523 . S
C5352 C5336 1.368 . S
C5352 C5348 1.368 . S
C5352 C5351 1.523 . S
H5353 C5328 0.950 . S
H5354 C5330 0.950 . S
H5355 C5331 0.949 . S
H5356 C5333 0.950 . S
H5357 C5335 0.950 . S
C5358 C5359 1.349 . S
C5358 C5360 1.327 . S
C5358 H5383 0.950 . S
C5359 C5358 1.349 . S
C5359 C5375 1.349 . S
C5360 C5358 1.327 . S
C5360 C5379 1.429 . S
C5360 H5384 0.950 . S
C5361 C5378 1.574 . S
C5361 C5380 1.368 . S
C5361 H5385 0.949 . S
H5362 C5366 0.949 . S
C5363 C5364 1.349 . S
C5363 C5365 1.327 . S
C5363 H5386 0.950 . S
C5364 C5363 1.349 . S
C5364 C5376 1.349 . S
C5365 C5363 1.327 . S
C5365 C5381 1.429 . S
C5365 H5387 0.950 . S
C5366 H5362 0.949 . S
C5366 C5374 1.574 . S
C5366 C5382 1.368 . S
H5367 C5375 0.950 . S
H5368 C5373 0.950 . S
H5369 C5374 0.949 . S
H5370 C5376 0.950 . S
H5371 C5377 0.950 . S
H5372 C5378 0.949 . S
C5373 H5368 0.950 . S
C5373 C5375 1.327 . S
C5373 C5379 1.429 . S
C5374 C5366 1.574 . S
C5374 H5369 0.949 . S
C5374 C5380 1.368 . S
C5375 C5359 1.349 . S
C5375 H5367 0.950 . S
C5375 C5373 1.327 . S
C5376 C5364 1.349 . S
C5376 H5370 0.950 . S
C5376 C5377 1.327 . S
C5377 H5371 0.950 . S
C5377 C5376 1.327 . S
C5377 C5381 1.429 . S
C5378 C5361 1.574 . S
C5378 H5372 0.949 . S
C5378 C5382 1.368 . S
C5379 C5360 1.429 . S
C5379 C5373 1.429 . S
C5379 C5380 1.523 . S
C5380 C5361 1.368 . S
C5380 C5374 1.368 . S
C5380 C5379 1.523 . S
C5381 C5365 1.429 . S
C5381 C5377 1.429 . S
C5381 C5382 1.523 . S
C5382 C5366 1.368 . S
C5382 C5378 1.368 . S
C5382 C5381 1.523 . S
H5383 C5358 0.950 . S
H5384 C5360 0.950 . S
H5385 C5361 0.949 . S
H5386 C5363 0.950 . S
H5387 C5365 0.950 . S
C5388 C5389 1.349 . S
C5388 C5390 1.327 . S
C5388 H5413 0.950 . S
C5389 C5388 1.349 . S
C5389 C5405 1.349 . S
C5390 C5388 1.327 . S
C5390 C5409 1.429 . S
C5390 H5414 0.950 . S
C5391 C5408 1.574 . S
C5391 C5410 1.368 . S
C5391 H5415 0.949 . S
H5392 C5396 0.949 . S
C5393 C5394 1.349 . S
C5393 C5395 1.327 . S
C5393 H5416 0.950 . S
C5394 C5393 1.349 . S
C5394 C5406 1.349 . S
C5395 C5393 1.327 . S
C5395 C5411 1.429 . S
C5395 H5417 0.950 . S
C5396 H5392 0.949 . S
C5396 C5404 1.574 . S
C5396 C5412 1.368 . S
H5397 C5405 0.950 . S
H5398 C5403 0.950 . S
H5399 C5404 0.949 . S
H5400 C5406 0.950 . S
H5401 C5407 0.950 . S
H5402 C5408 0.949 . S
C5403 H5398 0.950 . S
C5403 C5405 1.327 . S
C5403 C5409 1.429 . S
C5404 C5396 1.574 . S
C5404 H5399 0.949 . S
C5404 C5410 1.368 . S
C5405 C5389 1.349 . S
C5405 H5397 0.950 . S
C5405 C5403 1.327 . S
C5406 C5394 1.349 . S
C5406 H5400 0.950 . S
C5406 C5407 1.327 . S
C5407 H5401 0.950 . S
C5407 C5406 1.327 . S
C5407 C5411 1.429 . S
C5408 C5391 1.574 . S
C5408 H5402 0.949 . S
C5408 C5412 1.368 . S
C5409 C5390 1.429 . S
C5409 C5403 1.429 . S
C5409 C5410 1.523 . S
C5410 C5391 1.368 . S
C5410 C5404 1.368 . S
C5410 C5409 1.523 . S
C5411 C5395 1.429 . S
C5411 C5407 1.429 . S
C5411 C5412 1.523 . S
C5412 C5396 1.368 . S
C5412 C5408 1.368 . S
C5412 C5411 1.523 . S
H5413 C5388 0.950 . S
H5414 C5390 0.950 . S
H5415 C5391 0.949 . S
H5416 C5393 0.950 . S
H5417 C5395 0.950 . S
C5418 C5419 1.349 . S
C5418 C5420 1.327 . S
C5418 H5443 0.950 . S
C5419 C5418 1.349 . S
C5419 C5435 1.349 . S
C5420 C5418 1.327 . S
C5420 C5439 1.429 . S
C5420 H5444 0.950 . S
C5421 C5438 1.574 . S
C5421 C5440 1.368 . S
C5421 H5445 0.949 . S
H5422 C5426 0.949 . S
C5423 C5424 1.349 . S
C5423 C5425 1.327 . S
C5423 H5446 0.950 . S
C5424 C5423 1.349 . S
C5424 C5436 1.349 . S
C5425 C5423 1.327 . S
C5425 C5441 1.429 . S
C5425 H5447 0.950 . S
C5426 H5422 0.949 . S
C5426 C5434 1.574 . S
C5426 C5442 1.368 . S
H5427 C5435 0.950 . S
H5428 C5433 0.950 . S
H5429 C5434 0.949 . S
H5430 C5436 0.950 . S
H5431 C5437 0.950 . S
H5432 C5438 0.949 . S
C5433 H5428 0.950 . S
C5433 C5435 1.327 . S
C5433 C5439 1.429 . S
C5434 C5426 1.574 . S
C5434 H5429 0.949 . S
C5434 C5440 1.368 . S
C5435 C5419 1.349 . S
C5435 H5427 0.950 . S
C5435 C5433 1.327 . S
C5436 C5424 1.349 . S
C5436 H5430 0.950 . S
C5436 C5437 1.327 . S
C5437 H5431 0.950 . S
C5437 C5436 1.327 . S
C5437 C5441 1.429 . S
C5438 C5421 1.574 . S
C5438 H5432 0.949 . S
C5438 C5442 1.368 . S
C5439 C5420 1.429 . S
C5439 C5433 1.429 . S
C5439 C5440 1.523 . S
C5440 C5421 1.368 . S
C5440 C5434 1.368 . S
C5440 C5439 1.523 . S
C5441 C5425 1.429 . S
C5441 C5437 1.429 . S
C5441 C5442 1.523 . S
C5442 C5426 1.368 . S
C5442 C5438 1.368 . S
C5442 C5441 1.523 . S
H5443 C5418 0.950 . S
H5444 C5420 0.950 . S
H5445 C5421 0.949 . S
H5446 C5423 0.950 . S
H5447 C5425 0.950 . S
C5448 C5449 1.349 . S
C5448 C5450 1.327 . S
C5448 H5473 0.950 . S
C5449 C5448 1.349 . S
C5449 C5465 1.349 . S
C5450 C5448 1.327 . S
C5450 C5469 1.429 . S
C5450 H5474 0.950 . S
C5451 C5468 1.574 . S
C5451 C5470 1.368 . S
C5451 H5475 0.949 . S
H5452 C5456 0.949 . S
C5453 C5454 1.349 . S
C5453 C5455 1.327 . S
C5453 H5476 0.950 . S
C5454 C5453 1.349 . S
C5454 C5466 1.349 . S
C5455 C5453 1.327 . S
C5455 C5471 1.429 . S
C5455 H5477 0.950 . S
C5456 H5452 0.949 . S
C5456 C5464 1.574 . S
C5456 C5472 1.368 . S
H5457 C5465 0.950 . S
H5458 C5463 0.950 . S
H5459 C5464 0.949 . S
H5460 C5466 0.950 . S
H5461 C5467 0.950 . S
H5462 C5468 0.949 . S
C5463 H5458 0.950 . S
C5463 C5465 1.327 . S
C5463 C5469 1.429 . S
C5464 C5456 1.574 . S
C5464 H5459 0.949 . S
C5464 C5470 1.368 . S
C5465 C5449 1.349 . S
C5465 H5457 0.950 . S
C5465 C5463 1.327 . S
C5466 C5454 1.349 . S
C5466 H5460 0.950 . S
C5466 C5467 1.327 . S
C5467 H5461 0.950 . S
C5467 C5466 1.327 . S
C5467 C5471 1.429 . S
C5468 C5451 1.574 . S
C5468 H5462 0.949 . S
C5468 C5472 1.368 . S
C5469 C5450 1.429 . S
C5469 C5463 1.429 . S
C5469 C5470 1.523 . S
C5470 C5451 1.368 . S
C5470 C5464 1.368 . S
C5470 C5469 1.523 . S
C5471 C5455 1.429 . S
C5471 C5467 1.429 . S
C5471 C5472 1.523 . S
C5472 C5456 1.368 . S
C5472 C5468 1.368 . S
C5472 C5471 1.523 . S
H5473 C5448 0.950 . S
H5474 C5450 0.950 . S
H5475 C5451 0.949 . S
H5476 C5453 0.950 . S
H5477 C5455 0.950 . S
C5478 C5479 1.349 . S
C5478 C5480 1.327 . S
C5478 H5503 0.950 . S
C5479 C5478 1.349 . S
C5479 C5495 1.349 . S
C5480 C5478 1.327 . S
C5480 C5499 1.429 . S
C5480 H5504 0.950 . S
C5481 C5498 1.574 . S
C5481 C5500 1.368 . S
C5481 H5505 0.949 . S
H5482 C5486 0.949 . S
C5483 C5484 1.349 . S
C5483 C5485 1.327 . S
C5483 H5506 0.950 . S
C5484 C5483 1.349 . S
C5484 C5496 1.349 . S
C5485 C5483 1.327 . S
C5485 C5501 1.429 . S
C5485 H5507 0.950 . S
C5486 H5482 0.949 . S
C5486 C5494 1.574 . S
C5486 C5502 1.368 . S
H5487 C5495 0.950 . S
H5488 C5493 0.950 . S
H5489 C5494 0.949 . S
H5490 C5496 0.950 . S
H5491 C5497 0.950 . S
H5492 C5498 0.949 . S
C5493 H5488 0.950 . S
C5493 C5495 1.327 . S
C5493 C5499 1.429 . S
C5494 C5486 1.574 . S
C5494 H5489 0.949 . S
C5494 C5500 1.368 . S
C5495 C5479 1.349 . S
C5495 H5487 0.950 . S
C5495 C5493 1.327 . S
C5496 C5484 1.349 . S
C5496 H5490 0.950 . S
C5496 C5497 1.327 . S
C5497 H5491 0.950 . S
C5497 C5496 1.327 . S
C5497 C5501 1.429 . S
C5498 C5481 1.574 . S
C5498 H5492 0.949 . S
C5498 C5502 1.368 . S
C5499 C5480 1.429 . S
C5499 C5493 1.429 . S
C5499 C5500 1.523 . S
C5500 C5481 1.368 . S
C5500 C5494 1.368 . S
C5500 C5499 1.523 . S
C5501 C5485 1.429 . S
C5501 C5497 1.429 . S
C5501 C5502 1.523 . S
C5502 C5486 1.368 . S
C5502 C5498 1.368 . S
C5502 C5501 1.523 . S
H5503 C5478 0.950 . S
H5504 C5480 0.950 . S
H5505 C5481 0.949 . S
H5506 C5483 0.950 . S
H5507 C5485 0.950 . S
C5508 C5509 1.349 . S
C5508 C5510 1.327 . S
C5508 H5533 0.950 . S
C5509 C5508 1.349 . S
C5509 C5525 1.349 . S
C5510 C5508 1.327 . S
C5510 C5529 1.429 . S
C5510 H5534 0.950 . S
C5511 C5528 1.574 . S
C5511 C5530 1.368 . S
C5511 H5535 0.949 . S
H5512 C5516 0.949 . S
C5513 C5514 1.349 . S
C5513 C5515 1.327 . S
C5513 H5536 0.950 . S
C5514 C5513 1.349 . S
C5514 C5526 1.349 . S
C5515 C5513 1.327 . S
C5515 C5531 1.429 . S
C5515 H5537 0.950 . S
C5516 H5512 0.949 . S
C5516 C5524 1.574 . S
C5516 C5532 1.368 . S
H5517 C5525 0.950 . S
H5518 C5523 0.950 . S
H5519 C5524 0.949 . S
H5520 C5526 0.950 . S
H5521 C5527 0.950 . S
H5522 C5528 0.949 . S
C5523 H5518 0.950 . S
C5523 C5525 1.327 . S
C5523 C5529 1.429 . S
C5524 C5516 1.574 . S
C5524 H5519 0.949 . S
C5524 C5530 1.368 . S
C5525 C5509 1.349 . S
C5525 H5517 0.950 . S
C5525 C5523 1.327 . S
C5526 C5514 1.349 . S
C5526 H5520 0.950 . S
C5526 C5527 1.327 . S
C5527 H5521 0.950 . S
C5527 C5526 1.327 . S
C5527 C5531 1.429 . S
C5528 C5511 1.574 . S
C5528 H5522 0.949 . S
C5528 C5532 1.368 . S
C5529 C5510 1.429 . S
C5529 C5523 1.429 . S
C5529 C5530 1.523 . S
C5530 C5511 1.368 . S
C5530 C5524 1.368 . S
C5530 C5529 1.523 . S
C5531 C5515 1.429 . S
C5531 C5527 1.429 . S
C5531 C5532 1.523 . S
C5532 C5516 1.368 . S
C5532 C5528 1.368 . S
C5532 C5531 1.523 . S
H5533 C5508 0.950 . S
H5534 C5510 0.950 . S
H5535 C5511 0.949 . S
H5536 C5513 0.950 . S
H5537 C5515 0.950 . S
C5538 C5539 1.349 . S
C5538 C5540 1.327 . S
C5538 H5563 0.950 . S
C5539 C5538 1.349 . S
C5539 C5555 1.349 . S
C5540 C5538 1.327 . S
C5540 C5559 1.429 . S
C5540 H5564 0.950 . S
C5541 C5558 1.574 . S
C5541 C5560 1.368 . S
C5541 H5565 0.949 . S
H5542 C5546 0.949 . S
C5543 C5544 1.349 . S
C5543 C5545 1.327 . S
C5543 H5566 0.950 . S
C5544 C5543 1.349 . S
C5544 C5556 1.349 . S
C5545 C5543 1.327 . S
C5545 C5561 1.429 . S
C5545 H5567 0.950 . S
C5546 H5542 0.949 . S
C5546 C5554 1.574 . S
C5546 C5562 1.368 . S
H5547 C5555 0.950 . S
H5548 C5553 0.950 . S
H5549 C5554 0.949 . S
H5550 C5556 0.950 . S
H5551 C5557 0.950 . S
H5552 C5558 0.949 . S
C5553 H5548 0.950 . S
C5553 C5555 1.327 . S
C5553 C5559 1.429 . S
C5554 C5546 1.574 . S
C5554 H5549 0.949 . S
C5554 C5560 1.368 . S
C5555 C5539 1.349 . S
C5555 H5547 0.950 . S
C5555 C5553 1.327 . S
C5556 C5544 1.349 . S
C5556 H5550 0.950 . S
C5556 C5557 1.327 . S
C5557 H5551 0.950 . S
C5557 C5556 1.327 . S
C5557 C5561 1.429 . S
C5558 C5541 1.574 . S
C5558 H5552 0.949 . S
C5558 C5562 1.368 . S
C5559 C5540 1.429 . S
C5559 C5553 1.429 . S
C5559 C5560 1.523 . S
C5560 C5541 1.368 . S
C5560 C5554 1.368 . S
C5560 C5559 1.523 . S
C5561 C5545 1.429 . S
C5561 C5557 1.429 . S
C5561 C5562 1.523 . S
C5562 C5546 1.368 . S
C5562 C5558 1.368 . S
C5562 C5561 1.523 . S
H5563 C5538 0.950 . S
H5564 C5540 0.950 . S
H5565 C5541 0.949 . S
H5566 C5543 0.950 . S
H5567 C5545 0.950 . S
C5568 C5569 1.349 . S
C5568 C5570 1.327 . S
C5568 H5593 0.950 . S
C5569 C5568 1.349 . S
C5569 C5585 1.349 . S
C5570 C5568 1.327 . S
C5570 C5589 1.429 . S
C5570 H5594 0.950 . S
C5571 C5588 1.574 . S
C5571 C5590 1.368 . S
C5571 H5595 0.949 . S
H5572 C5576 0.949 . S
C5573 C5574 1.349 . S
C5573 C5575 1.327 . S
C5573 H5596 0.950 . S
C5574 C5573 1.349 . S
C5574 C5586 1.349 . S
C5575 C5573 1.327 . S
C5575 C5591 1.429 . S
C5575 H5597 0.950 . S
C5576 H5572 0.949 . S
C5576 C5584 1.574 . S
C5576 C5592 1.368 . S
H5577 C5585 0.950 . S
H5578 C5583 0.950 . S
H5579 C5584 0.949 . S
H5580 C5586 0.950 . S
H5581 C5587 0.950 . S
H5582 C5588 0.949 . S
C5583 H5578 0.950 . S
C5583 C5585 1.327 . S
C5583 C5589 1.429 . S
C5584 C5576 1.574 . S
C5584 H5579 0.949 . S
C5584 C5590 1.368 . S
C5585 C5569 1.349 . S
C5585 H5577 0.950 . S
C5585 C5583 1.327 . S
C5586 C5574 1.349 . S
C5586 H5580 0.950 . S
C5586 C5587 1.327 . S
C5587 H5581 0.950 . S
C5587 C5586 1.327 . S
C5587 C5591 1.429 . S
C5588 C5571 1.574 . S
C5588 H5582 0.949 . S
C5588 C5592 1.368 . S
C5589 C5570 1.429 . S
C5589 C5583 1.429 . S
C5589 C5590 1.523 . S
C5590 C5571 1.368 . S
C5590 C5584 1.368 . S
C5590 C5589 1.523 . S
C5591 C5575 1.429 . S
C5591 C5587 1.429 . S
C5591 C5592 1.523 . S
C5592 C5576 1.368 . S
C5592 C5588 1.368 . S
C5592 C5591 1.523 . S
H5593 C5568 0.950 . S
H5594 C5570 0.950 . S
H5595 C5571 0.949 . S
H5596 C5573 0.950 . S
H5597 C5575 0.950 . S
C5598 C5599 1.349 . S
C5598 C5600 1.327 . S
C5598 H5623 0.950 . S
C5599 C5598 1.349 . S
C5599 C5615 1.349 . S
C5600 C5598 1.327 . S
C5600 C5619 1.429 . S
C5600 H5624 0.950 . S
C5601 C5618 1.574 . S
C5601 C5620 1.368 . S
C5601 H5625 0.949 . S
H5602 C5606 0.949 . S
C5603 C5604 1.349 . S
C5603 C5605 1.327 . S
C5603 H5626 0.950 . S
C5604 C5603 1.349 . S
C5604 C5616 1.349 . S
C5605 C5603 1.327 . S
C5605 C5621 1.429 . S
C5605 H5627 0.950 . S
C5606 H5602 0.949 . S
C5606 C5614 1.574 . S
C5606 C5622 1.368 . S
H5607 C5615 0.950 . S
H5608 C5613 0.950 . S
H5609 C5614 0.949 . S
H5610 C5616 0.950 . S
H5611 C5617 0.950 . S
H5612 C5618 0.949 . S
C5613 H5608 0.950 . S
C5613 C5615 1.327 . S
C5613 C5619 1.429 . S
C5614 C5606 1.574 . S
C5614 H5609 0.949 . S
C5614 C5620 1.368 . S
C5615 C5599 1.349 . S
C5615 H5607 0.950 . S
C5615 C5613 1.327 . S
C5616 C5604 1.349 . S
C5616 H5610 0.950 . S
C5616 C5617 1.327 . S
C5617 H5611 0.950 . S
C5617 C5616 1.327 . S
C5617 C5621 1.429 . S
C5618 C5601 1.574 . S
C5618 H5612 0.949 . S
C5618 C5622 1.368 . S
C5619 C5600 1.429 . S
C5619 C5613 1.429 . S
C5619 C5620 1.523 . S
C5620 C5601 1.368 . S
C5620 C5614 1.368 . S
C5620 C5619 1.523 . S
C5621 C5605 1.429 . S
C5621 C5617 1.429 . S
C5621 C5622 1.523 . S
C5622 C5606 1.368 . S
C5622 C5618 1.368 . S
C5622 C5621 1.523 . S
H5623 C5598 0.950 . S
H5624 C5600 0.950 . S
H5625 C5601 0.949 . S
H5626 C5603 0.950 . S
H5627 C5605 0.950 . S
C5628 C5629 1.349 . S
C5628 C5630 1.327 . S
C5628 H5653 0.950 . S
C5629 C5628 1.349 . S
C5629 C5645 1.349 . S
C5630 C5628 1.327 . S
C5630 C5649 1.429 . S
C5630 H5654 0.950 . S
C5631 C5648 1.574 . S
C5631 C5650 1.368 . S
C5631 H5655 0.949 . S
H5632 C5636 0.949 . S
C5633 C5634 1.349 . S
C5633 C5635 1.327 . S
C5633 H5656 0.950 . S
C5634 C5633 1.349 . S
C5634 C5646 1.349 . S
C5635 C5633 1.327 . S
C5635 C5651 1.429 . S
C5635 H5657 0.950 . S
C5636 H5632 0.949 . S
C5636 C5644 1.574 . S
C5636 C5652 1.368 . S
H5637 C5645 0.950 . S
H5638 C5643 0.950 . S
H5639 C5644 0.949 . S
H5640 C5646 0.950 . S
H5641 C5647 0.950 . S
H5642 C5648 0.949 . S
C5643 H5638 0.950 . S
C5643 C5645 1.327 . S
C5643 C5649 1.429 . S
C5644 C5636 1.574 . S
C5644 H5639 0.949 . S
C5644 C5650 1.368 . S
C5645 C5629 1.349 . S
C5645 H5637 0.950 . S
C5645 C5643 1.327 . S
C5646 C5634 1.349 . S
C5646 H5640 0.950 . S
C5646 C5647 1.327 . S
C5647 H5641 0.950 . S
C5647 C5646 1.327 . S
C5647 C5651 1.429 . S
C5648 C5631 1.574 . S
C5648 H5642 0.949 . S
C5648 C5652 1.368 . S
C5649 C5630 1.429 . S
C5649 C5643 1.429 . S
C5649 C5650 1.523 . S
C5650 C5631 1.368 . S
C5650 C5644 1.368 . S
C5650 C5649 1.523 . S
C5651 C5635 1.429 . S
C5651 C5647 1.429 . S
C5651 C5652 1.523 . S
C5652 C5636 1.368 . S
C5652 C5648 1.368 . S
C5652 C5651 1.523 . S
H5653 C5628 0.950 . S
H5654 C5630 0.950 . S
H5655 C5631 0.949 . S
H5656 C5633 0.950 . S
H5657 C5635 0.950 . S
C5658 C5659 1.349 . S
C5658 C5660 1.327 . S
C5658 H5683 0.950 . S
C5659 C5658 1.349 . S
C5659 C5675 1.349 . S
C5660 C5658 1.327 . S
C5660 C5679 1.429 . S
C5660 H5684 0.950 . S
C5661 C5678 1.574 . S
C5661 C5680 1.368 . S
C5661 H5685 0.949 . S
H5662 C5666 0.949 . S
C5663 C5664 1.349 . S
C5663 C5665 1.327 . S
C5663 H5686 0.950 . S
C5664 C5663 1.349 . S
C5664 C5676 1.349 . S
C5665 C5663 1.327 . S
C5665 C5681 1.429 . S
C5665 H5687 0.950 . S
C5666 H5662 0.949 . S
C5666 C5674 1.574 . S
C5666 C5682 1.368 . S
H5667 C5675 0.950 . S
H5668 C5673 0.950 . S
H5669 C5674 0.949 . S
H5670 C5676 0.950 . S
H5671 C5677 0.950 . S
H5672 C5678 0.949 . S
C5673 H5668 0.950 . S
C5673 C5675 1.327 . S
C5673 C5679 1.429 . S
C5674 C5666 1.574 . S
C5674 H5669 0.949 . S
C5674 C5680 1.368 . S
C5675 C5659 1.349 . S
C5675 H5667 0.950 . S
C5675 C5673 1.327 . S
C5676 C5664 1.349 . S
C5676 H5670 0.950 . S
C5676 C5677 1.327 . S
C5677 H5671 0.950 . S
C5677 C5676 1.327 . S
C5677 C5681 1.429 . S
C5678 C5661 1.574 . S
C5678 H5672 0.949 . S
C5678 C5682 1.368 . S
C5679 C5660 1.429 . S
C5679 C5673 1.429 . S
C5679 C5680 1.523 . S
C5680 C5661 1.368 . S
C5680 C5674 1.368 . S
C5680 C5679 1.523 . S
C5681 C5665 1.429 . S
C5681 C5677 1.429 . S
C5681 C5682 1.523 . S
C5682 C5666 1.368 . S
C5682 C5678 1.368 . S
C5682 C5681 1.523 . S
H5683 C5658 0.950 . S
H5684 C5660 0.950 . S
H5685 C5661 0.949 . S
H5686 C5663 0.950 . S
H5687 C5665 0.950 . S
C5688 C5689 1.349 . S
C5688 C5690 1.327 . S
C5688 H5713 0.950 . S
C5689 C5688 1.349 . S
C5689 C5705 1.349 . S
C5690 C5688 1.327 . S
C5690 C5709 1.429 . S
C5690 H5714 0.950 . S
C5691 C5708 1.574 . S
C5691 C5710 1.368 . S
C5691 H5715 0.949 . S
H5692 C5696 0.949 . S
C5693 C5694 1.349 . S
C5693 C5695 1.327 . S
C5693 H5716 0.950 . S
C5694 C5693 1.349 . S
C5694 C5706 1.349 . S
C5695 C5693 1.327 . S
C5695 C5711 1.429 . S
C5695 H5717 0.950 . S
C5696 H5692 0.949 . S
C5696 C5704 1.574 . S
C5696 C5712 1.368 . S
H5697 C5705 0.950 . S
H5698 C5703 0.950 . S
H5699 C5704 0.949 . S
H5700 C5706 0.950 . S
H5701 C5707 0.950 . S
H5702 C5708 0.949 . S
C5703 H5698 0.950 . S
C5703 C5705 1.327 . S
C5703 C5709 1.429 . S
C5704 C5696 1.574 . S
C5704 H5699 0.949 . S
C5704 C5710 1.368 . S
C5705 C5689 1.349 . S
C5705 H5697 0.950 . S
C5705 C5703 1.327 . S
C5706 C5694 1.349 . S
C5706 H5700 0.950 . S
C5706 C5707 1.327 . S
C5707 H5701 0.950 . S
C5707 C5706 1.327 . S
C5707 C5711 1.429 . S
C5708 C5691 1.574 . S
C5708 H5702 0.949 . S
C5708 C5712 1.368 . S
C5709 C5690 1.429 . S
C5709 C5703 1.429 . S
C5709 C5710 1.523 . S
C5710 C5691 1.368 . S
C5710 C5704 1.368 . S
C5710 C5709 1.523 . S
C5711 C5695 1.429 . S
C5711 C5707 1.429 . S
C5711 C5712 1.523 . S
C5712 C5696 1.368 . S
C5712 C5708 1.368 . S
C5712 C5711 1.523 . S
H5713 C5688 0.950 . S
H5714 C5690 0.950 . S
H5715 C5691 0.949 . S
H5716 C5693 0.950 . S
H5717 C5695 0.950 . S
C5718 C5719 1.349 . S
C5718 C5720 1.327 . S
C5718 H5743 0.950 . S
C5719 C5718 1.349 . S
C5719 C5735 1.349 . S
C5720 C5718 1.327 . S
C5720 C5739 1.429 . S
C5720 H5744 0.950 . S
C5721 C5738 1.574 . S
C5721 C5740 1.368 . S
C5721 H5745 0.949 . S
H5722 C5726 0.949 . S
C5723 C5724 1.349 . S
C5723 C5725 1.327 . S
C5723 H5746 0.950 . S
C5724 C5723 1.349 . S
C5724 C5736 1.349 . S
C5725 C5723 1.327 . S
C5725 C5741 1.429 . S
C5725 H5747 0.950 . S
C5726 H5722 0.949 . S
C5726 C5734 1.574 . S
C5726 C5742 1.368 . S
H5727 C5735 0.950 . S
H5728 C5733 0.950 . S
H5729 C5734 0.949 . S
H5730 C5736 0.950 . S
H5731 C5737 0.950 . S
H5732 C5738 0.949 . S
C5733 H5728 0.950 . S
C5733 C5735 1.327 . S
C5733 C5739 1.429 . S
C5734 C5726 1.574 . S
C5734 H5729 0.949 . S
C5734 C5740 1.368 . S
C5735 C5719 1.349 . S
C5735 H5727 0.950 . S
C5735 C5733 1.327 . S
C5736 C5724 1.349 . S
C5736 H5730 0.950 . S
C5736 C5737 1.327 . S
C5737 H5731 0.950 . S
C5737 C5736 1.327 . S
C5737 C5741 1.429 . S
C5738 C5721 1.574 . S
C5738 H5732 0.949 . S
C5738 C5742 1.368 . S
C5739 C5720 1.429 . S
C5739 C5733 1.429 . S
C5739 C5740 1.523 . S
C5740 C5721 1.368 . S
C5740 C5734 1.368 . S
C5740 C5739 1.523 . S
C5741 C5725 1.429 . S
C5741 C5737 1.429 . S
C5741 C5742 1.523 . S
C5742 C5726 1.368 . S
C5742 C5738 1.368 . S
C5742 C5741 1.523 . S
H5743 C5718 0.950 . S
H5744 C5720 0.950 . S
H5745 C5721 0.949 . S
H5746 C5723 0.950 . S
H5747 C5725 0.950 . S
C5748 C5749 1.349 . S
C5748 C5750 1.327 . S
C5748 H5773 0.950 . S
C5749 C5748 1.349 . S
C5749 C5765 1.349 . S
C5750 C5748 1.327 . S
C5750 C5769 1.429 . S
C5750 H5774 0.950 . S
C5751 C5768 1.574 . S
C5751 C5770 1.368 . S
C5751 H5775 0.949 . S
H5752 C5756 0.949 . S
C5753 C5754 1.349 . S
C5753 C5755 1.327 . S
C5753 H5776 0.950 . S
C5754 C5753 1.349 . S
C5754 C5766 1.349 . S
C5755 C5753 1.327 . S
C5755 C5771 1.429 . S
C5755 H5777 0.950 . S
C5756 H5752 0.949 . S
C5756 C5764 1.574 . S
C5756 C5772 1.368 . S
H5757 C5765 0.950 . S
H5758 C5763 0.950 . S
H5759 C5764 0.949 . S
H5760 C5766 0.950 . S
H5761 C5767 0.950 . S
H5762 C5768 0.949 . S
C5763 H5758 0.950 . S
C5763 C5765 1.327 . S
C5763 C5769 1.429 . S
C5764 C5756 1.574 . S
C5764 H5759 0.949 . S
C5764 C5770 1.368 . S
C5765 C5749 1.349 . S
C5765 H5757 0.950 . S
C5765 C5763 1.327 . S
C5766 C5754 1.349 . S
C5766 H5760 0.950 . S
C5766 C5767 1.327 . S
C5767 H5761 0.950 . S
C5767 C5766 1.327 . S
C5767 C5771 1.429 . S
C5768 C5751 1.574 . S
C5768 H5762 0.949 . S
C5768 C5772 1.368 . S
C5769 C5750 1.429 . S
C5769 C5763 1.429 . S
C5769 C5770 1.523 . S
C5770 C5751 1.368 . S
C5770 C5764 1.368 . S
C5770 C5769 1.523 . S
C5771 C5755 1.429 . S
C5771 C5767 1.429 . S
C5771 C5772 1.523 . S
C5772 C5756 1.368 . S
C5772 C5768 1.368 . S
C5772 C5771 1.523 . S
H5773 C5748 0.950 . S
H5774 C5750 0.950 . S
H5775 C5751 0.949 . S
H5776 C5753 0.950 . S
H5777 C5755 0.950 . S
C5778 C5779 1.349 . S
C5778 C5780 1.327 . S
C5778 H5803 0.950 . S
C5779 C5778 1.349 . S
C5779 C5795 1.349 . S
C5780 C5778 1.327 . S
C5780 C5799 1.429 . S
C5780 H5804 0.950 . S
C5781 C5798 1.574 . S
C5781 C5800 1.368 . S
C5781 H5805 0.949 . S
H5782 C5786 0.949 . S
C5783 C5784 1.349 . S
C5783 C5785 1.327 . S
C5783 H5806 0.950 . S
C5784 C5783 1.349 . S
C5784 C5796 1.349 . S
C5785 C5783 1.327 . S
C5785 C5801 1.429 . S
C5785 H5807 0.950 . S
C5786 H5782 0.949 . S
C5786 C5794 1.574 . S
C5786 C5802 1.368 . S
H5787 C5795 0.950 . S
H5788 C5793 0.950 . S
H5789 C5794 0.949 . S
H5790 C5796 0.950 . S
H5791 C5797 0.950 . S
H5792 C5798 0.949 . S
C5793 H5788 0.950 . S
C5793 C5795 1.327 . S
C5793 C5799 1.429 . S
C5794 C5786 1.574 . S
C5794 H5789 0.949 . S
C5794 C5800 1.368 . S
C5795 C5779 1.349 . S
C5795 H5787 0.950 . S
C5795 C5793 1.327 . S
C5796 C5784 1.349 . S
C5796 H5790 0.950 . S
C5796 C5797 1.327 . S
C5797 H5791 0.950 . S
C5797 C5796 1.327 . S
C5797 C5801 1.429 . S
C5798 C5781 1.574 . S
C5798 H5792 0.949 . S
C5798 C5802 1.368 . S
C5799 C5780 1.429 . S
C5799 C5793 1.429 . S
C5799 C5800 1.523 . S
C5800 C5781 1.368 . S
C5800 C5794 1.368 . S
C5800 C5799 1.523 . S
C5801 C5785 1.429 . S
C5801 C5797 1.429 . S
C5801 C5802 1.523 . S
C5802 C5786 1.368 . S
C5802 C5798 1.368 . S
C5802 C5801 1.523 . S
H5803 C5778 0.950 . S
H5804 C5780 0.950 . S
H5805 C5781 0.949 . S
H5806 C5783 0.950 . S
H5807 C5785 0.950 . S
C5808 C5809 1.349 . S
C5808 C5810 1.327 . S
C5808 H5833 0.950 . S
C5809 C5808 1.349 . S
C5809 C5825 1.349 . S
C5810 C5808 1.327 . S
C5810 C5829 1.429 . S
C5810 H5834 0.950 . S
C5811 C5828 1.574 . S
C5811 C5830 1.368 . S
C5811 H5835 0.949 . S
H5812 C5816 0.949 . S
C5813 C5814 1.349 . S
C5813 C5815 1.327 . S
C5813 H5836 0.950 . S
C5814 C5813 1.349 . S
C5814 C5826 1.349 . S
C5815 C5813 1.327 . S
C5815 C5831 1.429 . S
C5815 H5837 0.950 . S
C5816 H5812 0.949 . S
C5816 C5824 1.574 . S
C5816 C5832 1.368 . S
H5817 C5825 0.950 . S
H5818 C5823 0.950 . S
H5819 C5824 0.949 . S
H5820 C5826 0.950 . S
H5821 C5827 0.950 . S
H5822 C5828 0.949 . S
C5823 H5818 0.950 . S
C5823 C5825 1.327 . S
C5823 C5829 1.429 . S
C5824 C5816 1.574 . S
C5824 H5819 0.949 . S
C5824 C5830 1.368 . S
C5825 C5809 1.349 . S
C5825 H5817 0.950 . S
C5825 C5823 1.327 . S
C5826 C5814 1.349 . S
C5826 H5820 0.950 . S
C5826 C5827 1.327 . S
C5827 H5821 0.950 . S
C5827 C5826 1.327 . S
C5827 C5831 1.429 . S
C5828 C5811 1.574 . S
C5828 H5822 0.949 . S
C5828 C5832 1.368 . S
C5829 C5810 1.429 . S
C5829 C5823 1.429 . S
C5829 C5830 1.523 . S
C5830 C5811 1.368 . S
C5830 C5824 1.368 . S
C5830 C5829 1.523 . S
C5831 C5815 1.429 . S
C5831 C5827 1.429 . S
C5831 C5832 1.523 . S
C5832 C5816 1.368 . S
C5832 C5828 1.368 . S
C5832 C5831 1.523 . S
H5833 C5808 0.950 . S
H5834 C5810 0.950 . S
H5835 C5811 0.949 . S
H5836 C5813 0.950 . S
H5837 C5815 0.950 . S
C5838 C5839 1.349 . S
C5838 C5840 1.327 . S
C5838 H5863 0.950 . S
C5839 C5838 1.349 . S
C5839 C5855 1.349 . S
C5840 C5838 1.327 . S
C5840 C5859 1.429 . S
C5840 H5864 0.950 . S
C5841 C5858 1.574 . S
C5841 C5860 1.368 . S
C5841 H5865 0.949 . S
H5842 C5846 0.949 . S
C5843 C5844 1.349 . S
C5843 C5845 1.327 . S
C5843 H5866 0.950 . S
C5844 C5843 1.349 . S
C5844 C5856 1.349 . S
C5845 C5843 1.327 . S
C5845 C5861 1.429 . S
C5845 H5867 0.950 . S
C5846 H5842 0.949 . S
C5846 C5854 1.574 . S
C5846 C5862 1.368 . S
H5847 C5855 0.950 . S
H5848 C5853 0.950 . S
H5849 C5854 0.949 . S
H5850 C5856 0.950 . S
H5851 C5857 0.950 . S
H5852 C5858 0.949 . S
C5853 H5848 0.950 . S
C5853 C5855 1.327 . S
C5853 C5859 1.429 . S
C5854 C5846 1.574 . S
C5854 H5849 0.949 . S
C5854 C5860 1.368 . S
C5855 C5839 1.349 . S
C5855 H5847 0.950 . S
C5855 C5853 1.327 . S
C5856 C5844 1.349 . S
C5856 H5850 0.950 . S
C5856 C5857 1.327 . S
C5857 H5851 0.950 . S
C5857 C5856 1.327 . S
C5857 C5861 1.429 . S
C5858 C5841 1.574 . S
C5858 H5852 0.949 . S
C5858 C5862 1.368 . S
C5859 C5840 1.429 . S
C5859 C5853 1.429 . S
C5859 C5860 1.523 . S
C5860 C5841 1.368 . S
C5860 C5854 1.368 . S
C5860 C5859 1.523 . S
C5861 C5845 1.429 . S
C5861 C5857 1.429 . S
C5861 C5862 1.523 . S
C5862 C5846 1.368 . S
C5862 C5858 1.368 . S
C5862 C5861 1.523 . S
H5863 C5838 0.950 . S
H5864 C5840 0.950 . S
H5865 C5841 0.949 . S
H5866 C5843 0.950 . S
H5867 C5845 0.950 . S
C5868 C5869 1.349 . S
C5868 C5870 1.327 . S
C5868 H5893 0.950 . S
C5869 C5868 1.349 . S
C5869 C5885 1.349 . S
C5870 C5868 1.327 . S
C5870 C5889 1.429 . S
C5870 H5894 0.950 . S
C5871 C5888 1.574 . S
C5871 C5890 1.368 . S
C5871 H5895 0.949 . S
H5872 C5876 0.949 . S
C5873 C5874 1.349 . S
C5873 C5875 1.327 . S
C5873 H5896 0.950 . S
C5874 C5873 1.349 . S
C5874 C5886 1.349 . S
C5875 C5873 1.327 . S
C5875 C5891 1.429 . S
C5875 H5897 0.950 . S
C5876 H5872 0.949 . S
C5876 C5884 1.574 . S
C5876 C5892 1.368 . S
H5877 C5885 0.950 . S
H5878 C5883 0.950 . S
H5879 C5884 0.949 . S
H5880 C5886 0.950 . S
H5881 C5887 0.950 . S
H5882 C5888 0.949 . S
C5883 H5878 0.950 . S
C5883 C5885 1.327 . S
C5883 C5889 1.429 . S
C5884 C5876 1.574 . S
C5884 H5879 0.949 . S
C5884 C5890 1.368 . S
C5885 C5869 1.349 . S
C5885 H5877 0.950 . S
C5885 C5883 1.327 . S
C5886 C5874 1.349 . S
C5886 H5880 0.950 . S
C5886 C5887 1.327 . S
C5887 H5881 0.950 . S
C5887 C5886 1.327 . S
C5887 C5891 1.429 . S
C5888 C5871 1.574 . S
C5888 H5882 0.949 . S
C5888 C5892 1.368 . S
C5889 C5870 1.429 . S
C5889 C5883 1.429 . S
C5889 C5890 1.523 . S
C5890 C5871 1.368 . S
C5890 C5884 1.368 . S
C5890 C5889 1.523 . S
C5891 C5875 1.429 . S
C5891 C5887 1.429 . S
C5891 C5892 1.523 . S
C5892 C5876 1.368 . S
C5892 C5888 1.368 . S
C5892 C5891 1.523 . S
H5893 C5868 0.950 . S
H5894 C5870 0.950 . S
H5895 C5871 0.949 . S
H5896 C5873 0.950 . S
H5897 C5875 0.950 . S
C5898 C5899 1.349 . S
C5898 C5900 1.327 . S
C5898 H5923 0.950 . S
C5899 C5898 1.349 . S
C5899 C5915 1.349 . S
C5900 C5898 1.327 . S
C5900 C5919 1.429 . S
C5900 H5924 0.950 . S
C5901 C5918 1.574 . S
C5901 C5920 1.368 . S
C5901 H5925 0.949 . S
H5902 C5906 0.949 . S
C5903 C5904 1.349 . S
C5903 C5905 1.327 . S
C5903 H5926 0.950 . S
C5904 C5903 1.349 . S
C5904 C5916 1.349 . S
C5905 C5903 1.327 . S
C5905 C5921 1.429 . S
C5905 H5927 0.950 . S
C5906 H5902 0.949 . S
C5906 C5914 1.574 . S
C5906 C5922 1.368 . S
H5907 C5915 0.950 . S
H5908 C5913 0.950 . S
H5909 C5914 0.949 . S
H5910 C5916 0.950 . S
H5911 C5917 0.950 . S
H5912 C5918 0.949 . S
C5913 H5908 0.950 . S
C5913 C5915 1.327 . S
C5913 C5919 1.429 . S
C5914 C5906 1.574 . S
C5914 H5909 0.949 . S
C5914 C5920 1.368 . S
C5915 C5899 1.349 . S
C5915 H5907 0.950 . S
C5915 C5913 1.327 . S
C5916 C5904 1.349 . S
C5916 H5910 0.950 . S
C5916 C5917 1.327 . S
C5917 H5911 0.950 . S
C5917 C5916 1.327 . S
C5917 C5921 1.429 . S
C5918 C5901 1.574 . S
C5918 H5912 0.949 . S
C5918 C5922 1.368 . S
C5919 C5900 1.429 . S
C5919 C5913 1.429 . S
C5919 C5920 1.523 . S
C5920 C5901 1.368 . S
C5920 C5914 1.368 . S
C5920 C5919 1.523 . S
C5921 C5905 1.429 . S
C5921 C5917 1.429 . S
C5921 C5922 1.523 . S
C5922 C5906 1.368 . S
C5922 C5918 1.368 . S
C5922 C5921 1.523 . S
H5923 C5898 0.950 . S
H5924 C5900 0.950 . S
H5925 C5901 0.949 . S
H5926 C5903 0.950 . S
H5927 C5905 0.950 . S
C5928 C5929 1.349 . S
C5928 C5930 1.327 . S
C5928 H5953 0.950 . S
C5929 C5928 1.349 . S
C5929 C5945 1.349 . S
C5930 C5928 1.327 . S
C5930 C5949 1.429 . S
C5930 H5954 0.950 . S
C5931 C5948 1.574 . S
C5931 C5950 1.368 . S
C5931 H5955 0.949 . S
H5932 C5936 0.949 . S
C5933 C5934 1.349 . S
C5933 C5935 1.327 . S
C5933 H5956 0.950 . S
C5934 C5933 1.349 . S
C5934 C5946 1.349 . S
C5935 C5933 1.327 . S
C5935 C5951 1.429 . S
C5935 H5957 0.950 . S
C5936 H5932 0.949 . S
C5936 C5944 1.574 . S
C5936 C5952 1.368 . S
H5937 C5945 0.950 . S
H5938 C5943 0.950 . S
H5939 C5944 0.949 . S
H5940 C5946 0.950 . S
H5941 C5947 0.950 . S
H5942 C5948 0.949 . S
C5943 H5938 0.950 . S
C5943 C5945 1.327 . S
C5943 C5949 1.429 . S
C5944 C5936 1.574 . S
C5944 H5939 0.949 . S
C5944 C5950 1.368 . S
C5945 C5929 1.349 . S
C5945 H5937 0.950 . S
C5945 C5943 1.327 . S
C5946 C5934 1.349 . S
C5946 H5940 0.950 . S
C5946 C5947 1.327 . S
C5947 H5941 0.950 . S
C5947 C5946 1.327 . S
C5947 C5951 1.429 . S
C5948 C5931 1.574 . S
C5948 H5942 0.949 . S
C5948 C5952 1.368 . S
C5949 C5930 1.429 . S
C5949 C5943 1.429 . S
C5949 C5950 1.523 . S
C5950 C5931 1.368 . S
C5950 C5944 1.368 . S
C5950 C5949 1.523 . S
C5951 C5935 1.429 . S
C5951 C5947 1.429 . S
C5951 C5952 1.523 . S
C5952 C5936 1.368 . S
C5952 C5948 1.368 . S
C5952 C5951 1.523 . S
H5953 C5928 0.950 . S
H5954 C5930 0.950 . S
H5955 C5931 0.949 . S
H5956 C5933 0.950 . S
H5957 C5935 0.950 . S
C5958 C5959 1.349 . S
C5958 C5960 1.327 . S
C5958 H5983 0.950 . S
C5959 C5958 1.349 . S
C5959 C5975 1.349 . S
C5960 C5958 1.327 . S
C5960 C5979 1.429 . S
C5960 H5984 0.950 . S
C5961 C5978 1.574 . S
C5961 C5980 1.368 . S
C5961 H5985 0.949 . S
H5962 C5966 0.949 . S
C5963 C5964 1.349 . S
C5963 C5965 1.327 . S
C5963 H5986 0.950 . S
C5964 C5963 1.349 . S
C5964 C5976 1.349 . S
C5965 C5963 1.327 . S
C5965 C5981 1.429 . S
C5965 H5987 0.950 . S
C5966 H5962 0.949 . S
C5966 C5974 1.574 . S
C5966 C5982 1.368 . S
H5967 C5975 0.950 . S
H5968 C5973 0.950 . S
H5969 C5974 0.949 . S
H5970 C5976 0.950 . S
H5971 C5977 0.950 . S
H5972 C5978 0.949 . S
C5973 H5968 0.950 . S
C5973 C5975 1.327 . S
C5973 C5979 1.429 . S
C5974 C5966 1.574 . S
C5974 H5969 0.949 . S
C5974 C5980 1.368 . S
C5975 C5959 1.349 . S
C5975 H5967 0.950 . S
C5975 C5973 1.327 . S
C5976 C5964 1.349 . S
C5976 H5970 0.950 . S
C5976 C5977 1.327 . S
C5977 H5971 0.950 . S
C5977 C5976 1.327 . S
C5977 C5981 1.429 . S
C5978 C5961 1.574 . S
C5978 H5972 0.949 . S
C5978 C5982 1.368 . S
C5979 C5960 1.429 . S
C5979 C5973 1.429 . S
C5979 C5980 1.523 . S
C5980 C5961 1.368 . S
C5980 C5974 1.368 . S
C5980 C5979 1.523 . S
C5981 C5965 1.429 . S
C5981 C5977 1.429 . S
C5981 C5982 1.523 . S
C5982 C5966 1.368 . S
C5982 C5978 1.368 . S
C5982 C5981 1.523 . S
H5983 C5958 0.950 . S
H5984 C5960 0.950 . S
H5985 C5961 0.949 . S
H5986 C5963 0.950 . S
H5987 C5965 0.950 . S
C5988 C5989 1.349 . S
C5988 C5990 1.327 . S
C5988 H6013 0.950 . S
C5989 C5988 1.349 . S
C5989 C6005 1.349 . S
C5990 C5988 1.327 . S
C5990 C6009 1.429 . S
C5990 H6014 0.950 . S
C5991 C6008 1.574 . S
C5991 C6010 1.368 . S
C5991 H6015 0.949 . S
H5992 C5996 0.949 . S
C5993 C5994 1.349 . S
C5993 C5995 1.327 . S
C5993 H6016 0.950 . S
C5994 C5993 1.349 . S
C5994 C6006 1.349 . S
C5995 C5993 1.327 . S
C5995 C6011 1.429 . S
C5995 H6017 0.950 . S
C5996 H5992 0.949 . S
C5996 C6004 1.574 . S
C5996 C6012 1.368 . S
H5997 C6005 0.950 . S
H5998 C6003 0.950 . S
H5999 C6004 0.949 . S
H6000 C6006 0.950 . S
H6001 C6007 0.950 . S
H6002 C6008 0.949 . S
C6003 H5998 0.950 . S
C6003 C6005 1.327 . S
C6003 C6009 1.429 . S
C6004 C5996 1.574 . S
C6004 H5999 0.949 . S
C6004 C6010 1.368 . S
C6005 C5989 1.349 . S
C6005 H5997 0.950 . S
C6005 C6003 1.327 . S
C6006 C5994 1.349 . S
C6006 H6000 0.950 . S
C6006 C6007 1.327 . S
C6007 H6001 0.950 . S
C6007 C6006 1.327 . S
C6007 C6011 1.429 . S
C6008 C5991 1.574 . S
C6008 H6002 0.949 . S
C6008 C6012 1.368 . S
C6009 C5990 1.429 . S
C6009 C6003 1.429 . S
C6009 C6010 1.523 . S
C6010 C5991 1.368 . S
C6010 C6004 1.368 . S
C6010 C6009 1.523 . S
C6011 C5995 1.429 . S
C6011 C6007 1.429 . S
C6011 C6012 1.523 . S
C6012 C5996 1.368 . S
C6012 C6008 1.368 . S
C6012 C6011 1.523 . S
H6013 C5988 0.950 . S
H6014 C5990 0.950 . S
H6015 C5991 0.949 . S
H6016 C5993 0.950 . S
H6017 C5995 0.950 . S
C6018 C6019 1.349 . S
C6018 C6020 1.327 . S
C6018 H6043 0.950 . S
C6019 C6018 1.349 . S
C6019 C6035 1.349 . S
C6020 C6018 1.327 . S
C6020 C6039 1.429 . S
C6020 H6044 0.950 . S
C6021 C6038 1.574 . S
C6021 C6040 1.368 . S
C6021 H6045 0.949 . S
H6022 C6026 0.949 . S
C6023 C6024 1.349 . S
C6023 C6025 1.327 . S
C6023 H6046 0.950 . S
C6024 C6023 1.349 . S
C6024 C6036 1.349 . S
C6025 C6023 1.327 . S
C6025 C6041 1.429 . S
C6025 H6047 0.950 . S
C6026 H6022 0.949 . S
C6026 C6034 1.574 . S
C6026 C6042 1.368 . S
H6027 C6035 0.950 . S
H6028 C6033 0.950 . S
H6029 C6034 0.949 . S
H6030 C6036 0.950 . S
H6031 C6037 0.950 . S
H6032 C6038 0.949 . S
C6033 H6028 0.950 . S
C6033 C6035 1.327 . S
C6033 C6039 1.429 . S
C6034 C6026 1.574 . S
C6034 H6029 0.949 . S
C6034 C6040 1.368 . S
C6035 C6019 1.349 . S
C6035 H6027 0.950 . S
C6035 C6033 1.327 . S
C6036 C6024 1.349 . S
C6036 H6030 0.950 . S
C6036 C6037 1.327 . S
C6037 H6031 0.950 . S
C6037 C6036 1.327 . S
C6037 C6041 1.429 . S
C6038 C6021 1.574 . S
C6038 H6032 0.949 . S
C6038 C6042 1.368 . S
C6039 C6020 1.429 . S
C6039 C6033 1.429 . S
C6039 C6040 1.523 . S
C6040 C6021 1.368 . S
C6040 C6034 1.368 . S
C6040 C6039 1.523 . S
C6041 C6025 1.429 . S
C6041 C6037 1.429 . S
C6041 C6042 1.523 . S
C6042 C6026 1.368 . S
C6042 C6038 1.368 . S
C6042 C6041 1.523 . S
H6043 C6018 0.950 . S
H6044 C6020 0.950 . S
H6045 C6021 0.949 . S
H6046 C6023 0.950 . S
H6047 C6025 0.950 . S
C6048 C6049 1.349 . S
C6048 C6050 1.327 . S
C6048 H6073 0.950 . S
C6049 C6048 1.349 . S
C6049 C6065 1.349 . S
C6050 C6048 1.327 . S
C6050 C6069 1.429 . S
C6050 H6074 0.950 . S
C6051 C6068 1.574 . S
C6051 C6070 1.368 . S
C6051 H6075 0.949 . S
H6052 C6056 0.949 . S
C6053 C6054 1.349 . S
C6053 C6055 1.327 . S
C6053 H6076 0.950 . S
C6054 C6053 1.349 . S
C6054 C6066 1.349 . S
C6055 C6053 1.327 . S
C6055 C6071 1.429 . S
C6055 H6077 0.950 . S
C6056 H6052 0.949 . S
C6056 C6064 1.574 . S
C6056 C6072 1.368 . S
H6057 C6065 0.950 . S
H6058 C6063 0.950 . S
H6059 C6064 0.949 . S
H6060 C6066 0.950 . S
H6061 C6067 0.950 . S
H6062 C6068 0.949 . S
C6063 H6058 0.950 . S
C6063 C6065 1.327 . S
C6063 C6069 1.429 . S
C6064 C6056 1.574 . S
C6064 H6059 0.949 . S
C6064 C6070 1.368 . S
C6065 C6049 1.349 . S
C6065 H6057 0.950 . S
C6065 C6063 1.327 . S
C6066 C6054 1.349 . S
C6066 H6060 0.950 . S
C6066 C6067 1.327 . S
C6067 H6061 0.950 . S
C6067 C6066 1.327 . S
C6067 C6071 1.429 . S
C6068 C6051 1.574 . S
C6068 H6062 0.949 . S
C6068 C6072 1.368 . S
C6069 C6050 1.429 . S
C6069 C6063 1.429 . S
C6069 C6070 1.523 . S
C6070 C6051 1.368 . S
C6070 C6064 1.368 . S
C6070 C6069 1.523 . S
C6071 C6055 1.429 . S
C6071 C6067 1.429 . S
C6071 C6072 1.523 . S
C6072 C6056 1.368 . S
C6072 C6068 1.368 . S
C6072 C6071 1.523 . S
H6073 C6048 0.950 . S
H6074 C6050 0.950 . S
H6075 C6051 0.949 . S
H6076 C6053 0.950 . S
H6077 C6055 0.950 . S
C6078 C6079 1.349 . S
C6078 C6080 1.327 . S
C6078 H6103 0.950 . S
C6079 C6078 1.349 . S
C6079 C6095 1.349 . S
C6080 C6078 1.327 . S
C6080 C6099 1.429 . S
C6080 H6104 0.950 . S
C6081 C6098 1.574 . S
C6081 C6100 1.368 . S
C6081 H6105 0.949 . S
H6082 C6086 0.949 . S
C6083 C6084 1.349 . S
C6083 C6085 1.327 . S
C6083 H6106 0.950 . S
C6084 C6083 1.349 . S
C6084 C6096 1.349 . S
C6085 C6083 1.327 . S
C6085 C6101 1.429 . S
C6085 H6107 0.950 . S
C6086 H6082 0.949 . S
C6086 C6094 1.574 . S
C6086 C6102 1.368 . S
H6087 C6095 0.950 . S
H6088 C6093 0.950 . S
H6089 C6094 0.949 . S
H6090 C6096 0.950 . S
H6091 C6097 0.950 . S
H6092 C6098 0.949 . S
C6093 H6088 0.950 . S
C6093 C6095 1.327 . S
C6093 C6099 1.429 . S
C6094 C6086 1.574 . S
C6094 H6089 0.949 . S
C6094 C6100 1.368 . S
C6095 C6079 1.349 . S
C6095 H6087 0.950 . S
C6095 C6093 1.327 . S
C6096 C6084 1.349 . S
C6096 H6090 0.950 . S
C6096 C6097 1.327 . S
C6097 H6091 0.950 . S
C6097 C6096 1.327 . S
C6097 C6101 1.429 . S
C6098 C6081 1.574 . S
C6098 H6092 0.949 . S
C6098 C6102 1.368 . S
C6099 C6080 1.429 . S
C6099 C6093 1.429 . S
C6099 C6100 1.523 . S
C6100 C6081 1.368 . S
C6100 C6094 1.368 . S
C6100 C6099 1.523 . S
C6101 C6085 1.429 . S
C6101 C6097 1.429 . S
C6101 C6102 1.523 . S
C6102 C6086 1.368 . S
C6102 C6098 1.368 . S
C6102 C6101 1.523 . S
H6103 C6078 0.950 . S
H6104 C6080 0.950 . S
H6105 C6081 0.949 . S
H6106 C6083 0.950 . S
H6107 C6085 0.950 . S
C6108 C6109 1.349 . S
C6108 C6110 1.327 . S
C6108 H6133 0.950 . S
C6109 C6108 1.349 . S
C6109 C6125 1.349 . S
C6110 C6108 1.327 . S
C6110 C6129 1.429 . S
C6110 H6134 0.950 . S
C6111 C6128 1.574 . S
C6111 C6130 1.368 . S
C6111 H6135 0.949 . S
H6112 C6116 0.949 . S
C6113 C6114 1.349 . S
C6113 C6115 1.327 . S
C6113 H6136 0.950 . S
C6114 C6113 1.349 . S
C6114 C6126 1.349 . S
C6115 C6113 1.327 . S
C6115 C6131 1.429 . S
C6115 H6137 0.950 . S
C6116 H6112 0.949 . S
C6116 C6124 1.574 . S
C6116 C6132 1.368 . S
H6117 C6125 0.950 . S
H6118 C6123 0.950 . S
H6119 C6124 0.949 . S
H6120 C6126 0.950 . S
H6121 C6127 0.950 . S
H6122 C6128 0.949 . S
C6123 H6118 0.950 . S
C6123 C6125 1.327 . S
C6123 C6129 1.429 . S
C6124 C6116 1.574 . S
C6124 H6119 0.949 . S
C6124 C6130 1.368 . S
C6125 C6109 1.349 . S
C6125 H6117 0.950 . S
C6125 C6123 1.327 . S
C6126 C6114 1.349 . S
C6126 H6120 0.950 . S
C6126 C6127 1.327 . S
C6127 H6121 0.950 . S
C6127 C6126 1.327 . S
C6127 C6131 1.429 . S
C6128 C6111 1.574 . S
C6128 H6122 0.949 . S
C6128 C6132 1.368 . S
C6129 C6110 1.429 . S
C6129 C6123 1.429 . S
C6129 C6130 1.523 . S
C6130 C6111 1.368 . S
C6130 C6124 1.368 . S
C6130 C6129 1.523 . S
C6131 C6115 1.429 . S
C6131 C6127 1.429 . S
C6131 C6132 1.523 . S
C6132 C6116 1.368 . S
C6132 C6128 1.368 . S
C6132 C6131 1.523 . S
H6133 C6108 0.950 . S
H6134 C6110 0.950 . S
H6135 C6111 0.949 . S
H6136 C6113 0.950 . S
H6137 C6115 0.950 . S
C6138 C6139 1.349 . S
C6138 C6140 1.327 . S
C6138 H6163 0.950 . S
C6139 C6138 1.349 . S
C6139 C6155 1.349 . S
C6140 C6138 1.327 . S
C6140 C6159 1.429 . S
C6140 H6164 0.950 . S
C6141 C6158 1.574 . S
C6141 C6160 1.368 . S
C6141 H6165 0.949 . S
H6142 C6146 0.949 . S
C6143 C6144 1.349 . S
C6143 C6145 1.327 . S
C6143 H6166 0.950 . S
C6144 C6143 1.349 . S
C6144 C6156 1.349 . S
C6145 C6143 1.327 . S
C6145 C6161 1.429 . S
C6145 H6167 0.950 . S
C6146 H6142 0.949 . S
C6146 C6154 1.574 . S
C6146 C6162 1.368 . S
H6147 C6155 0.950 . S
H6148 C6153 0.950 . S
H6149 C6154 0.949 . S
H6150 C6156 0.950 . S
H6151 C6157 0.950 . S
H6152 C6158 0.949 . S
C6153 H6148 0.950 . S
C6153 C6155 1.327 . S
C6153 C6159 1.429 . S
C6154 C6146 1.574 . S
C6154 H6149 0.949 . S
C6154 C6160 1.368 . S
C6155 C6139 1.349 . S
C6155 H6147 0.950 . S
C6155 C6153 1.327 . S
C6156 C6144 1.349 . S
C6156 H6150 0.950 . S
C6156 C6157 1.327 . S
C6157 H6151 0.950 . S
C6157 C6156 1.327 . S
C6157 C6161 1.429 . S
C6158 C6141 1.574 . S
C6158 H6152 0.949 . S
C6158 C6162 1.368 . S
C6159 C6140 1.429 . S
C6159 C6153 1.429 . S
C6159 C6160 1.523 . S
C6160 C6141 1.368 . S
C6160 C6154 1.368 . S
C6160 C6159 1.523 . S
C6161 C6145 1.429 . S
C6161 C6157 1.429 . S
C6161 C6162 1.523 . S
C6162 C6146 1.368 . S
C6162 C6158 1.368 . S
C6162 C6161 1.523 . S
H6163 C6138 0.950 . S
H6164 C6140 0.950 . S
H6165 C6141 0.949 . S
H6166 C6143 0.950 . S
H6167 C6145 0.950 . S
C6168 C6169 1.349 . S
C6168 C6170 1.327 . S
C6168 H6193 0.950 . S
C6169 C6168 1.349 . S
C6169 C6185 1.349 . S
C6170 C6168 1.327 . S
C6170 C6189 1.429 . S
C6170 H6194 0.950 . S
C6171 C6188 1.574 . S
C6171 C6190 1.368 . S
C6171 H6195 0.949 . S
H6172 C6176 0.949 . S
C6173 C6174 1.349 . S
C6173 C6175 1.327 . S
C6173 H6196 0.950 . S
C6174 C6173 1.349 . S
C6174 C6186 1.349 . S
C6175 C6173 1.327 . S
C6175 C6191 1.429 . S
C6175 H6197 0.950 . S
C6176 H6172 0.949 . S
C6176 C6184 1.574 . S
C6176 C6192 1.368 . S
H6177 C6185 0.950 . S
H6178 C6183 0.950 . S
H6179 C6184 0.949 . S
H6180 C6186 0.950 . S
H6181 C6187 0.950 . S
H6182 C6188 0.949 . S
C6183 H6178 0.950 . S
C6183 C6185 1.327 . S
C6183 C6189 1.429 . S
C6184 C6176 1.574 . S
C6184 H6179 0.949 . S
C6184 C6190 1.368 . S
C6185 C6169 1.349 . S
C6185 H6177 0.950 . S
C6185 C6183 1.327 . S
C6186 C6174 1.349 . S
C6186 H6180 0.950 . S
C6186 C6187 1.327 . S
C6187 H6181 0.950 . S
C6187 C6186 1.327 . S
C6187 C6191 1.429 . S
C6188 C6171 1.574 . S
C6188 H6182 0.949 . S
C6188 C6192 1.368 . S
C6189 C6170 1.429 . S
C6189 C6183 1.429 . S
C6189 C6190 1.523 . S
C6190 C6171 1.368 . S
C6190 C6184 1.368 . S
C6190 C6189 1.523 . S
C6191 C6175 1.429 . S
C6191 C6187 1.429 . S
C6191 C6192 1.523 . S
C6192 C6176 1.368 . S
C6192 C6188 1.368 . S
C6192 C6191 1.523 . S
H6193 C6168 0.950 . S
H6194 C6170 0.950 . S
H6195 C6171 0.949 . S
H6196 C6173 0.950 . S
H6197 C6175 0.950 . S
C6198 C6199 1.349 . S
C6198 C6200 1.327 . S
C6198 H6223 0.950 . S
C6199 C6198 1.349 . S
C6199 C6215 1.349 . S
C6200 C6198 1.327 . S
C6200 C6219 1.429 . S
C6200 H6224 0.950 . S
C6201 C6218 1.574 . S
C6201 C6220 1.368 . S
C6201 H6225 0.949 . S
H6202 C6206 0.949 . S
C6203 C6204 1.349 . S
C6203 C6205 1.327 . S
C6203 H6226 0.950 . S
C6204 C6203 1.349 . S
C6204 C6216 1.349 . S
C6205 C6203 1.327 . S
C6205 C6221 1.429 . S
C6205 H6227 0.950 . S
C6206 H6202 0.949 . S
C6206 C6214 1.574 . S
C6206 C6222 1.368 . S
H6207 C6215 0.950 . S
H6208 C6213 0.950 . S
H6209 C6214 0.949 . S
H6210 C6216 0.950 . S
H6211 C6217 0.950 . S
H6212 C6218 0.949 . S
C6213 H6208 0.950 . S
C6213 C6215 1.327 . S
C6213 C6219 1.429 . S
C6214 C6206 1.574 . S
C6214 H6209 0.949 . S
C6214 C6220 1.368 . S
C6215 C6199 1.349 . S
C6215 H6207 0.950 . S
C6215 C6213 1.327 . S
C6216 C6204 1.349 . S
C6216 H6210 0.950 . S
C6216 C6217 1.327 . S
C6217 H6211 0.950 . S
C6217 C6216 1.327 . S
C6217 C6221 1.429 . S
C6218 C6201 1.574 . S
C6218 H6212 0.949 . S
C6218 C6222 1.368 . S
C6219 C6200 1.429 . S
C6219 C6213 1.429 . S
C6219 C6220 1.523 . S
C6220 C6201 1.368 . S
C6220 C6214 1.368 . S
C6220 C6219 1.523 . S
C6221 C6205 1.429 . S
C6221 C6217 1.429 . S
C6221 C6222 1.523 . S
C6222 C6206 1.368 . S
C6222 C6218 1.368 . S
C6222 C6221 1.523 . S
H6223 C6198 0.950 . S
H6224 C6200 0.950 . S
H6225 C6201 0.949 . S
H6226 C6203 0.950 . S
H6227 C6205 0.950 . S
C6228 C6229 1.349 . S
C6228 C6230 1.327 . S
C6228 H6253 0.950 . S
C6229 C6228 1.349 . S
C6229 C6245 1.349 . S
C6230 C6228 1.327 . S
C6230 C6249 1.429 . S
C6230 H6254 0.950 . S
C6231 C6248 1.574 . S
C6231 C6250 1.368 . S
C6231 H6255 0.949 . S
H6232 C6236 0.949 . S
C6233 C6234 1.349 . S
C6233 C6235 1.327 . S
C6233 H6256 0.950 . S
C6234 C6233 1.349 . S
C6234 C6246 1.349 . S
C6235 C6233 1.327 . S
C6235 C6251 1.429 . S
C6235 H6257 0.950 . S
C6236 H6232 0.949 . S
C6236 C6244 1.574 . S
C6236 C6252 1.368 . S
H6237 C6245 0.950 . S
H6238 C6243 0.950 . S
H6239 C6244 0.949 . S
H6240 C6246 0.950 . S
H6241 C6247 0.950 . S
H6242 C6248 0.949 . S
C6243 H6238 0.950 . S
C6243 C6245 1.327 . S
C6243 C6249 1.429 . S
C6244 C6236 1.574 . S
C6244 H6239 0.949 . S
C6244 C6250 1.368 . S
C6245 C6229 1.349 . S
C6245 H6237 0.950 . S
C6245 C6243 1.327 . S
C6246 C6234 1.349 . S
C6246 H6240 0.950 . S
C6246 C6247 1.327 . S
C6247 H6241 0.950 . S
C6247 C6246 1.327 . S
C6247 C6251 1.429 . S
C6248 C6231 1.574 . S
C6248 H6242 0.949 . S
C6248 C6252 1.368 . S
C6249 C6230 1.429 . S
C6249 C6243 1.429 . S
C6249 C6250 1.523 . S
C6250 C6231 1.368 . S
C6250 C6244 1.368 . S
C6250 C6249 1.523 . S
C6251 C6235 1.429 . S
C6251 C6247 1.429 . S
C6251 C6252 1.523 . S
C6252 C6236 1.368 . S
C6252 C6248 1.368 . S
C6252 C6251 1.523 . S
H6253 C6228 0.950 . S
H6254 C6230 0.950 . S
H6255 C6231 0.949 . S
H6256 C6233 0.950 . S
H6257 C6235 0.950 . S
C6258 C6259 1.349 . S
C6258 C6260 1.327 . S
C6258 H6283 0.950 . S
C6259 C6258 1.349 . S
C6259 C6275 1.349 . S
C6260 C6258 1.327 . S
C6260 C6279 1.429 . S
C6260 H6284 0.950 . S
C6261 C6278 1.574 . S
C6261 C6280 1.368 . S
C6261 H6285 0.949 . S
H6262 C6266 0.949 . S
C6263 C6264 1.349 . S
C6263 C6265 1.327 . S
C6263 H6286 0.950 . S
C6264 C6263 1.349 . S
C6264 C6276 1.349 . S
C6265 C6263 1.327 . S
C6265 C6281 1.429 . S
C6265 H6287 0.950 . S
C6266 H6262 0.949 . S
C6266 C6274 1.574 . S
C6266 C6282 1.368 . S
H6267 C6275 0.950 . S
H6268 C6273 0.950 . S
H6269 C6274 0.949 . S
H6270 C6276 0.950 . S
H6271 C6277 0.950 . S
H6272 C6278 0.949 . S
C6273 H6268 0.950 . S
C6273 C6275 1.327 . S
C6273 C6279 1.429 . S
C6274 C6266 1.574 . S
C6274 H6269 0.949 . S
C6274 C6280 1.368 . S
C6275 C6259 1.349 . S
C6275 H6267 0.950 . S
C6275 C6273 1.327 . S
C6276 C6264 1.349 . S
C6276 H6270 0.950 . S
C6276 C6277 1.327 . S
C6277 H6271 0.950 . S
C6277 C6276 1.327 . S
C6277 C6281 1.429 . S
C6278 C6261 1.574 . S
C6278 H6272 0.949 . S
C6278 C6282 1.368 . S
C6279 C6260 1.429 . S
C6279 C6273 1.429 . S
C6279 C6280 1.523 . S
C6280 C6261 1.368 . S
C6280 C6274 1.368 . S
C6280 C6279 1.523 . S
C6281 C6265 1.429 . S
C6281 C6277 1.429 . S
C6281 C6282 1.523 . S
C6282 C6266 1.368 . S
C6282 C6278 1.368 . S
C6282 C6281 1.523 . S
H6283 C6258 0.950 . S
H6284 C6260 0.950 . S
H6285 C6261 0.949 . S
H6286 C6263 0.950 . S
H6287 C6265 0.950 . S
C6288 C6289 1.349 . S
C6288 C6290 1.327 . S
C6288 H6313 0.950 . S
C6289 C6288 1.349 . S
C6289 C6305 1.349 . S
C6290 C6288 1.327 . S
C6290 C6309 1.429 . S
C6290 H6314 0.950 . S
C6291 C6308 1.574 . S
C6291 C6310 1.368 . S
C6291 H6315 0.949 . S
H6292 C6296 0.949 . S
C6293 C6294 1.349 . S
C6293 C6295 1.327 . S
C6293 H6316 0.950 . S
C6294 C6293 1.349 . S
C6294 C6306 1.349 . S
C6295 C6293 1.327 . S
C6295 C6311 1.429 . S
C6295 H6317 0.950 . S
C6296 H6292 0.949 . S
C6296 C6304 1.574 . S
C6296 C6312 1.368 . S
H6297 C6305 0.950 . S
H6298 C6303 0.950 . S
H6299 C6304 0.949 . S
H6300 C6306 0.950 . S
H6301 C6307 0.950 . S
H6302 C6308 0.949 . S
C6303 H6298 0.950 . S
C6303 C6305 1.327 . S
C6303 C6309 1.429 . S
C6304 C6296 1.574 . S
C6304 H6299 0.949 . S
C6304 C6310 1.368 . S
C6305 C6289 1.349 . S
C6305 H6297 0.950 . S
C6305 C6303 1.327 . S
C6306 C6294 1.349 . S
C6306 H6300 0.950 . S
C6306 C6307 1.327 . S
C6307 H6301 0.950 . S
C6307 C6306 1.327 . S
C6307 C6311 1.429 . S
C6308 C6291 1.574 . S
C6308 H6302 0.949 . S
C6308 C6312 1.368 . S
C6309 C6290 1.429 . S
C6309 C6303 1.429 . S
C6309 C6310 1.523 . S
C6310 C6291 1.368 . S
C6310 C6304 1.368 . S
C6310 C6309 1.523 . S
C6311 C6295 1.429 . S
C6311 C6307 1.429 . S
C6311 C6312 1.523 . S
C6312 C6296 1.368 . S
C6312 C6308 1.368 . S
C6312 C6311 1.523 . S
H6313 C6288 0.950 . S
H6314 C6290 0.950 . S
H6315 C6291 0.949 . S
H6316 C6293 0.950 . S
H6317 C6295 0.950 . S
C6318 C6319 1.349 . S
C6318 C6320 1.327 . S
C6318 H6343 0.950 . S
C6319 C6318 1.349 . S
C6319 C6335 1.349 . S
C6320 C6318 1.327 . S
C6320 C6339 1.429 . S
C6320 H6344 0.950 . S
C6321 C6338 1.574 . S
C6321 C6340 1.368 . S
C6321 H6345 0.949 . S
H6322 C6326 0.949 . S
C6323 C6324 1.349 . S
C6323 C6325 1.327 . S
C6323 H6346 0.950 . S
C6324 C6323 1.349 . S
C6324 C6336 1.349 . S
C6325 C6323 1.327 . S
C6325 C6341 1.429 . S
C6325 H6347 0.950 . S
C6326 H6322 0.949 . S
C6326 C6334 1.574 . S
C6326 C6342 1.368 . S
H6327 C6335 0.950 . S
H6328 C6333 0.950 . S
H6329 C6334 0.949 . S
H6330 C6336 0.950 . S
H6331 C6337 0.950 . S
H6332 C6338 0.949 . S
C6333 H6328 0.950 . S
C6333 C6335 1.327 . S
C6333 C6339 1.429 . S
C6334 C6326 1.574 . S
C6334 H6329 0.949 . S
C6334 C6340 1.368 . S
C6335 C6319 1.349 . S
C6335 H6327 0.950 . S
C6335 C6333 1.327 . S
C6336 C6324 1.349 . S
C6336 H6330 0.950 . S
C6336 C6337 1.327 . S
C6337 H6331 0.950 . S
C6337 C6336 1.327 . S
C6337 C6341 1.429 . S
C6338 C6321 1.574 . S
C6338 H6332 0.949 . S
C6338 C6342 1.368 . S
C6339 C6320 1.429 . S
C6339 C6333 1.429 . S
C6339 C6340 1.523 . S
C6340 C6321 1.368 . S
C6340 C6334 1.368 . S
C6340 C6339 1.523 . S
C6341 C6325 1.429 . S
C6341 C6337 1.429 . S
C6341 C6342 1.523 . S
C6342 C6326 1.368 . S
C6342 C6338 1.368 . S
C6342 C6341 1.523 . S
H6343 C6318 0.950 . S
H6344 C6320 0.950 . S
H6345 C6321 0.949 . S
H6346 C6323 0.950 . S
H6347 C6325 0.950 . S
C6348 C6349 1.349 . S
C6348 C6350 1.327 . S
C6348 H6373 0.950 . S
C6349 C6348 1.349 . S
C6349 C6365 1.349 . S
C6350 C6348 1.327 . S
C6350 C6369 1.429 . S
C6350 H6374 0.950 . S
C6351 C6368 1.574 . S
C6351 C6370 1.368 . S
C6351 H6375 0.949 . S
H6352 C6356 0.949 . S
C6353 C6354 1.349 . S
C6353 C6355 1.327 . S
C6353 H6376 0.950 . S
C6354 C6353 1.349 . S
C6354 C6366 1.349 . S
C6355 C6353 1.327 . S
C6355 C6371 1.429 . S
C6355 H6377 0.950 . S
C6356 H6352 0.949 . S
C6356 C6364 1.574 . S
C6356 C6372 1.368 . S
H6357 C6365 0.950 . S
H6358 C6363 0.950 . S
H6359 C6364 0.949 . S
H6360 C6366 0.950 . S
H6361 C6367 0.950 . S
H6362 C6368 0.949 . S
C6363 H6358 0.950 . S
C6363 C6365 1.327 . S
C6363 C6369 1.429 . S
C6364 C6356 1.574 . S
C6364 H6359 0.949 . S
C6364 C6370 1.368 . S
C6365 C6349 1.349 . S
C6365 H6357 0.950 . S
C6365 C6363 1.327 . S
C6366 C6354 1.349 . S
C6366 H6360 0.950 . S
C6366 C6367 1.327 . S
C6367 H6361 0.950 . S
C6367 C6366 1.327 . S
C6367 C6371 1.429 . S
C6368 C6351 1.574 . S
C6368 H6362 0.949 . S
C6368 C6372 1.368 . S
C6369 C6350 1.429 . S
C6369 C6363 1.429 . S
C6369 C6370 1.523 . S
C6370 C6351 1.368 . S
C6370 C6364 1.368 . S
C6370 C6369 1.523 . S
C6371 C6355 1.429 . S
C6371 C6367 1.429 . S
C6371 C6372 1.523 . S
C6372 C6356 1.368 . S
C6372 C6368 1.368 . S
C6372 C6371 1.523 . S
H6373 C6348 0.950 . S
H6374 C6350 0.950 . S
H6375 C6351 0.949 . S
H6376 C6353 0.950 . S
H6377 C6355 0.950 . S
C6378 C6379 1.349 . S
C6378 C6380 1.327 . S
C6378 H6403 0.950 . S
C6379 C6378 1.349 . S
C6379 C6395 1.349 . S
C6380 C6378 1.327 . S
C6380 C6399 1.429 . S
C6380 H6404 0.950 . S
C6381 C6398 1.574 . S
C6381 C6400 1.368 . S
C6381 H6405 0.949 . S
H6382 C6386 0.949 . S
C6383 C6384 1.349 . S
C6383 C6385 1.327 . S
C6383 H6406 0.950 . S
C6384 C6383 1.349 . S
C6384 C6396 1.349 . S
C6385 C6383 1.327 . S
C6385 C6401 1.429 . S
C6385 H6407 0.950 . S
C6386 H6382 0.949 . S
C6386 C6394 1.574 . S
C6386 C6402 1.368 . S
H6387 C6395 0.950 . S
H6388 C6393 0.950 . S
H6389 C6394 0.949 . S
H6390 C6396 0.950 . S
H6391 C6397 0.950 . S
H6392 C6398 0.949 . S
C6393 H6388 0.950 . S
C6393 C6395 1.327 . S
C6393 C6399 1.429 . S
C6394 C6386 1.574 . S
C6394 H6389 0.949 . S
C6394 C6400 1.368 . S
C6395 C6379 1.349 . S
C6395 H6387 0.950 . S
C6395 C6393 1.327 . S
C6396 C6384 1.349 . S
C6396 H6390 0.950 . S
C6396 C6397 1.327 . S
C6397 H6391 0.950 . S
C6397 C6396 1.327 . S
C6397 C6401 1.429 . S
C6398 C6381 1.574 . S
C6398 H6392 0.949 . S
C6398 C6402 1.368 . S
C6399 C6380 1.429 . S
C6399 C6393 1.429 . S
C6399 C6400 1.523 . S
C6400 C6381 1.368 . S
C6400 C6394 1.368 . S
C6400 C6399 1.523 . S
C6401 C6385 1.429 . S
C6401 C6397 1.429 . S
C6401 C6402 1.523 . S
C6402 C6386 1.368 . S
C6402 C6398 1.368 . S
C6402 C6401 1.523 . S
H6403 C6378 0.950 . S
H6404 C6380 0.950 . S
H6405 C6381 0.949 . S
H6406 C6383 0.950 . S
H6407 C6385 0.950 . S
C6408 C6409 1.349 . S
C6408 C6410 1.327 . S
C6408 H6433 0.950 . S
C6409 C6408 1.349 . S
C6409 C6425 1.349 . S
C6410 C6408 1.327 . S
C6410 C6429 1.429 . S
C6410 H6434 0.950 . S
C6411 C6428 1.574 . S
C6411 C6430 1.368 . S
C6411 H6435 0.949 . S
H6412 C6416 0.949 . S
C6413 C6414 1.349 . S
C6413 C6415 1.327 . S
C6413 H6436 0.950 . S
C6414 C6413 1.349 . S
C6414 C6426 1.349 . S
C6415 C6413 1.327 . S
C6415 C6431 1.429 . S
C6415 H6437 0.950 . S
C6416 H6412 0.949 . S
C6416 C6424 1.574 . S
C6416 C6432 1.368 . S
H6417 C6425 0.950 . S
H6418 C6423 0.950 . S
H6419 C6424 0.949 . S
H6420 C6426 0.950 . S
H6421 C6427 0.950 . S
H6422 C6428 0.949 . S
C6423 H6418 0.950 . S
C6423 C6425 1.327 . S
C6423 C6429 1.429 . S
C6424 C6416 1.574 . S
C6424 H6419 0.949 . S
C6424 C6430 1.368 . S
C6425 C6409 1.349 . S
C6425 H6417 0.950 . S
C6425 C6423 1.327 . S
C6426 C6414 1.349 . S
C6426 H6420 0.950 . S
C6426 C6427 1.327 . S
C6427 H6421 0.950 . S
C6427 C6426 1.327 . S
C6427 C6431 1.429 . S
C6428 C6411 1.574 . S
C6428 H6422 0.949 . S
C6428 C6432 1.368 . S
C6429 C6410 1.429 . S
C6429 C6423 1.429 . S
C6429 C6430 1.523 . S
C6430 C6411 1.368 . S
C6430 C6424 1.368 . S
C6430 C6429 1.523 . S
C6431 C6415 1.429 . S
C6431 C6427 1.429 . S
C6431 C6432 1.523 . S
C6432 C6416 1.368 . S
C6432 C6428 1.368 . S
C6432 C6431 1.523 . S
H6433 C6408 0.950 . S
H6434 C6410 0.950 . S
H6435 C6411 0.949 . S
H6436 C6413 0.950 . S
H6437 C6415 0.950 . S
C6438 C6439 1.349 . S
C6438 C6440 1.327 . S
C6438 H6463 0.950 . S
C6439 C6438 1.349 . S
C6439 C6455 1.349 . S
C6440 C6438 1.327 . S
C6440 C6459 1.429 . S
C6440 H6464 0.950 . S
C6441 C6458 1.574 . S
C6441 C6460 1.368 . S
C6441 H6465 0.949 . S
H6442 C6446 0.949 . S
C6443 C6444 1.349 . S
C6443 C6445 1.327 . S
C6443 H6466 0.950 . S
C6444 C6443 1.349 . S
C6444 C6456 1.349 . S
C6445 C6443 1.327 . S
C6445 C6461 1.429 . S
C6445 H6467 0.950 . S
C6446 H6442 0.949 . S
C6446 C6454 1.574 . S
C6446 C6462 1.368 . S
H6447 C6455 0.950 . S
H6448 C6453 0.950 . S
H6449 C6454 0.949 . S
H6450 C6456 0.950 . S
H6451 C6457 0.950 . S
H6452 C6458 0.949 . S
C6453 H6448 0.950 . S
C6453 C6455 1.327 . S
C6453 C6459 1.429 . S
C6454 C6446 1.574 . S
C6454 H6449 0.949 . S
C6454 C6460 1.368 . S
C6455 C6439 1.349 . S
C6455 H6447 0.950 . S
C6455 C6453 1.327 . S
C6456 C6444 1.349 . S
C6456 H6450 0.950 . S
C6456 C6457 1.327 . S
C6457 H6451 0.950 . S
C6457 C6456 1.327 . S
C6457 C6461 1.429 . S
C6458 C6441 1.574 . S
C6458 H6452 0.949 . S
C6458 C6462 1.368 . S
C6459 C6440 1.429 . S
C6459 C6453 1.429 . S
C6459 C6460 1.523 . S
C6460 C6441 1.368 . S
C6460 C6454 1.368 . S
C6460 C6459 1.523 . S
C6461 C6445 1.429 . S
C6461 C6457 1.429 . S
C6461 C6462 1.523 . S
C6462 C6446 1.368 . S
C6462 C6458 1.368 . S
C6462 C6461 1.523 . S
H6463 C6438 0.950 . S
H6464 C6440 0.950 . S
H6465 C6441 0.949 . S
H6466 C6443 0.950 . S
H6467 C6445 0.950 . S
C6468 C6469 1.349 . S
C6468 C6470 1.327 . S
C6468 H6493 0.950 . S
C6469 C6468 1.349 . S
C6469 C6485 1.349 . S
C6470 C6468 1.327 . S
C6470 C6489 1.429 . S
C6470 H6494 0.950 . S
C6471 C6488 1.574 . S
C6471 C6490 1.368 . S
C6471 H6495 0.949 . S
H6472 C6476 0.949 . S
C6473 C6474 1.349 . S
C6473 C6475 1.327 . S
C6473 H6496 0.950 . S
C6474 C6473 1.349 . S
C6474 C6486 1.349 . S
C6475 C6473 1.327 . S
C6475 C6491 1.429 . S
C6475 H6497 0.950 . S
C6476 H6472 0.949 . S
C6476 C6484 1.574 . S
C6476 C6492 1.368 . S
H6477 C6485 0.950 . S
H6478 C6483 0.950 . S
H6479 C6484 0.949 . S
H6480 C6486 0.950 . S
H6481 C6487 0.950 . S
H6482 C6488 0.949 . S
C6483 H6478 0.950 . S
C6483 C6485 1.327 . S
C6483 C6489 1.429 . S
C6484 C6476 1.574 . S
C6484 H6479 0.949 . S
C6484 C6490 1.368 . S
C6485 C6469 1.349 . S
C6485 H6477 0.950 . S
C6485 C6483 1.327 . S
C6486 C6474 1.349 . S
C6486 H6480 0.950 . S
C6486 C6487 1.327 . S
C6487 H6481 0.950 . S
C6487 C6486 1.327 . S
C6487 C6491 1.429 . S
C6488 C6471 1.574 . S
C6488 H6482 0.949 . S
C6488 C6492 1.368 . S
C6489 C6470 1.429 . S
C6489 C6483 1.429 . S
C6489 C6490 1.523 . S
C6490 C6471 1.368 . S
C6490 C6484 1.368 . S
C6490 C6489 1.523 . S
C6491 C6475 1.429 . S
C6491 C6487 1.429 . S
C6491 C6492 1.523 . S
C6492 C6476 1.368 . S
C6492 C6488 1.368 . S
C6492 C6491 1.523 . S
H6493 C6468 0.950 . S
H6494 C6470 0.950 . S
H6495 C6471 0.949 . S
H6496 C6473 0.950 . S
H6497 C6475 0.950 . S
C6498 C6499 1.349 . S
C6498 C6500 1.327 . S
C6498 H6523 0.950 . S
C6499 C6498 1.349 . S
C6499 C6515 1.349 . S
C6500 C6498 1.327 . S
C6500 C6519 1.429 . S
C6500 H6524 0.950 . S
C6501 C6518 1.574 . S
C6501 C6520 1.368 . S
C6501 H6525 0.949 . S
H6502 C6506 0.949 . S
C6503 C6504 1.349 . S
C6503 C6505 1.327 . S
C6503 H6526 0.950 . S
C6504 C6503 1.349 . S
C6504 C6516 1.349 . S
C6505 C6503 1.327 . S
C6505 C6521 1.429 . S
C6505 H6527 0.950 . S
C6506 H6502 0.949 . S
C6506 C6514 1.574 . S
C6506 C6522 1.368 . S
H6507 C6515 0.950 . S
H6508 C6513 0.950 . S
H6509 C6514 0.949 . S
H6510 C6516 0.950 . S
H6511 C6517 0.950 . S
H6512 C6518 0.949 . S
C6513 H6508 0.950 . S
C6513 C6515 1.327 . S
C6513 C6519 1.429 . S
C6514 C6506 1.574 . S
C6514 H6509 0.949 . S
C6514 C6520 1.368 . S
C6515 C6499 1.349 . S
C6515 H6507 0.950 . S
C6515 C6513 1.327 . S
C6516 C6504 1.349 . S
C6516 H6510 0.950 . S
C6516 C6517 1.327 . S
C6517 H6511 0.950 . S
C6517 C6516 1.327 . S
C6517 C6521 1.429 . S
C6518 C6501 1.574 . S
C6518 H6512 0.949 . S
C6518 C6522 1.368 . S
C6519 C6500 1.429 . S
C6519 C6513 1.429 . S
C6519 C6520 1.523 . S
C6520 C6501 1.368 . S
C6520 C6514 1.368 . S
C6520 C6519 1.523 . S
C6521 C6505 1.429 . S
C6521 C6517 1.429 . S
C6521 C6522 1.523 . S
C6522 C6506 1.368 . S
C6522 C6518 1.368 . S
C6522 C6521 1.523 . S
H6523 C6498 0.950 . S
H6524 C6500 0.950 . S
H6525 C6501 0.949 . S
H6526 C6503 0.950 . S
H6527 C6505 0.950 . S
C6528 C6529 1.349 . S
C6528 C6530 1.327 . S
C6528 H6553 0.950 . S
C6529 C6528 1.349 . S
C6529 C6545 1.349 . S
C6530 C6528 1.327 . S
C6530 C6549 1.429 . S
C6530 H6554 0.950 . S
C6531 C6548 1.574 . S
C6531 C6550 1.368 . S
C6531 H6555 0.949 . S
H6532 C6536 0.949 . S
C6533 C6534 1.349 . S
C6533 C6535 1.327 . S
C6533 H6556 0.950 . S
C6534 C6533 1.349 . S
C6534 C6546 1.349 . S
C6535 C6533 1.327 . S
C6535 C6551 1.429 . S
C6535 H6557 0.950 . S
C6536 H6532 0.949 . S
C6536 C6544 1.574 . S
C6536 C6552 1.368 . S
H6537 C6545 0.950 . S
H6538 C6543 0.950 . S
H6539 C6544 0.949 . S
H6540 C6546 0.950 . S
H6541 C6547 0.950 . S
H6542 C6548 0.949 . S
C6543 H6538 0.950 . S
C6543 C6545 1.327 . S
C6543 C6549 1.429 . S
C6544 C6536 1.574 . S
C6544 H6539 0.949 . S
C6544 C6550 1.368 . S
C6545 C6529 1.349 . S
C6545 H6537 0.950 . S
C6545 C6543 1.327 . S
C6546 C6534 1.349 . S
C6546 H6540 0.950 . S
C6546 C6547 1.327 . S
C6547 H6541 0.950 . S
C6547 C6546 1.327 . S
C6547 C6551 1.429 . S
C6548 C6531 1.574 . S
C6548 H6542 0.949 . S
C6548 C6552 1.368 . S
C6549 C6530 1.429 . S
C6549 C6543 1.429 . S
C6549 C6550 1.523 . S
C6550 C6531 1.368 . S
C6550 C6544 1.368 . S
C6550 C6549 1.523 . S
C6551 C6535 1.429 . S
C6551 C6547 1.429 . S
C6551 C6552 1.523 . S
C6552 C6536 1.368 . S
C6552 C6548 1.368 . S
C6552 C6551 1.523 . S
H6553 C6528 0.950 . S
H6554 C6530 0.950 . S
H6555 C6531 0.949 . S
H6556 C6533 0.950 . S
H6557 C6535 0.950 . S
C6558 C6559 1.349 . S
C6558 C6560 1.327 . S
C6558 H6583 0.950 . S
C6559 C6558 1.349 . S
C6559 C6575 1.349 . S
C6560 C6558 1.327 . S
C6560 C6579 1.429 . S
C6560 H6584 0.950 . S
C6561 C6578 1.574 . S
C6561 C6580 1.368 . S
C6561 H6585 0.949 . S
H6562 C6566 0.949 . S
C6563 C6564 1.349 . S
C6563 C6565 1.327 . S
C6563 H6586 0.950 . S
C6564 C6563 1.349 . S
C6564 C6576 1.349 . S
C6565 C6563 1.327 . S
C6565 C6581 1.429 . S
C6565 H6587 0.950 . S
C6566 H6562 0.949 . S
C6566 C6574 1.574 . S
C6566 C6582 1.368 . S
H6567 C6575 0.950 . S
H6568 C6573 0.950 . S
H6569 C6574 0.949 . S
H6570 C6576 0.950 . S
H6571 C6577 0.950 . S
H6572 C6578 0.949 . S
C6573 H6568 0.950 . S
C6573 C6575 1.327 . S
C6573 C6579 1.429 . S
C6574 C6566 1.574 . S
C6574 H6569 0.949 . S
C6574 C6580 1.368 . S
C6575 C6559 1.349 . S
C6575 H6567 0.950 . S
C6575 C6573 1.327 . S
C6576 C6564 1.349 . S
C6576 H6570 0.950 . S
C6576 C6577 1.327 . S
C6577 H6571 0.950 . S
C6577 C6576 1.327 . S
C6577 C6581 1.429 . S
C6578 C6561 1.574 . S
C6578 H6572 0.949 . S
C6578 C6582 1.368 . S
C6579 C6560 1.429 . S
C6579 C6573 1.429 . S
C6579 C6580 1.523 . S
C6580 C6561 1.368 . S
C6580 C6574 1.368 . S
C6580 C6579 1.523 . S
C6581 C6565 1.429 . S
C6581 C6577 1.429 . S
C6581 C6582 1.523 . S
C6582 C6566 1.368 . S
C6582 C6578 1.368 . S
C6582 C6581 1.523 . S
H6583 C6558 0.950 . S
H6584 C6560 0.950 . S
H6585 C6561 0.949 . S
H6586 C6563 0.950 . S
H6587 C6565 0.950 . S
C6588 C6589 1.349 . S
C6588 C6590 1.327 . S
C6588 H6613 0.950 . S
C6589 C6588 1.349 . S
C6589 C6605 1.349 . S
C6590 C6588 1.327 . S
C6590 C6609 1.429 . S
C6590 H6614 0.950 . S
C6591 C6608 1.574 . S
C6591 C6610 1.368 . S
C6591 H6615 0.949 . S
H6592 C6596 0.949 . S
C6593 C6594 1.349 . S
C6593 C6595 1.327 . S
C6593 H6616 0.950 . S
C6594 C6593 1.349 . S
C6594 C6606 1.349 . S
C6595 C6593 1.327 . S
C6595 C6611 1.429 . S
C6595 H6617 0.950 . S
C6596 H6592 0.949 . S
C6596 C6604 1.574 . S
C6596 C6612 1.368 . S
H6597 C6605 0.950 . S
H6598 C6603 0.950 . S
H6599 C6604 0.949 . S
H6600 C6606 0.950 . S
H6601 C6607 0.950 . S
H6602 C6608 0.949 . S
C6603 H6598 0.950 . S
C6603 C6605 1.327 . S
C6603 C6609 1.429 . S
C6604 C6596 1.574 . S
C6604 H6599 0.949 . S
C6604 C6610 1.368 . S
C6605 C6589 1.349 . S
C6605 H6597 0.950 . S
C6605 C6603 1.327 . S
C6606 C6594 1.349 . S
C6606 H6600 0.950 . S
C6606 C6607 1.327 . S
C6607 H6601 0.950 . S
C6607 C6606 1.327 . S
C6607 C6611 1.429 . S
C6608 C6591 1.574 . S
C6608 H6602 0.949 . S
C6608 C6612 1.368 . S
C6609 C6590 1.429 . S
C6609 C6603 1.429 . S
C6609 C6610 1.523 . S
C6610 C6591 1.368 . S
C6610 C6604 1.368 . S
C6610 C6609 1.523 . S
C6611 C6595 1.429 . S
C6611 C6607 1.429 . S
C6611 C6612 1.523 . S
C6612 C6596 1.368 . S
C6612 C6608 1.368 . S
C6612 C6611 1.523 . S
H6613 C6588 0.950 . S
H6614 C6590 0.950 . S
H6615 C6591 0.949 . S
H6616 C6593 0.950 . S
H6617 C6595 0.950 . S
C6618 C6619 1.349 . S
C6618 C6620 1.327 . S
C6618 H6643 0.950 . S
C6619 C6618 1.349 . S
C6619 C6635 1.349 . S
C6620 C6618 1.327 . S
C6620 C6639 1.429 . S
C6620 H6644 0.950 . S
C6621 C6638 1.574 . S
C6621 C6640 1.368 . S
C6621 H6645 0.949 . S
H6622 C6626 0.949 . S
C6623 C6624 1.349 . S
C6623 C6625 1.327 . S
C6623 H6646 0.950 . S
C6624 C6623 1.349 . S
C6624 C6636 1.349 . S
C6625 C6623 1.327 . S
C6625 C6641 1.429 . S
C6625 H6647 0.950 . S
C6626 H6622 0.949 . S
C6626 C6634 1.574 . S
C6626 C6642 1.368 . S
H6627 C6635 0.950 . S
H6628 C6633 0.950 . S
H6629 C6634 0.949 . S
H6630 C6636 0.950 . S
H6631 C6637 0.950 . S
H6632 C6638 0.949 . S
C6633 H6628 0.950 . S
C6633 C6635 1.327 . S
C6633 C6639 1.429 . S
C6634 C6626 1.574 . S
C6634 H6629 0.949 . S
C6634 C6640 1.368 . S
C6635 C6619 1.349 . S
C6635 H6627 0.950 . S
C6635 C6633 1.327 . S
C6636 C6624 1.349 . S
C6636 H6630 0.950 . S
C6636 C6637 1.327 . S
C6637 H6631 0.950 . S
C6637 C6636 1.327 . S
C6637 C6641 1.429 . S
C6638 C6621 1.574 . S
C6638 H6632 0.949 . S
C6638 C6642 1.368 . S
C6639 C6620 1.429 . S
C6639 C6633 1.429 . S
C6639 C6640 1.523 . S
C6640 C6621 1.368 . S
C6640 C6634 1.368 . S
C6640 C6639 1.523 . S
C6641 C6625 1.429 . S
C6641 C6637 1.429 . S
C6641 C6642 1.523 . S
C6642 C6626 1.368 . S
C6642 C6638 1.368 . S
C6642 C6641 1.523 . S
H6643 C6618 0.950 . S
H6644 C6620 0.950 . S
H6645 C6621 0.949 . S
H6646 C6623 0.950 . S
H6647 C6625 0.950 . S
C6648 C6649 1.349 . S
C6648 C6650 1.327 . S
C6648 H6673 0.950 . S
C6649 C6648 1.349 . S
C6649 C6665 1.349 . S
C6650 C6648 1.327 . S
C6650 C6669 1.429 . S
C6650 H6674 0.950 . S
C6651 C6668 1.574 . S
C6651 C6670 1.368 . S
C6651 H6675 0.949 . S
H6652 C6656 0.949 . S
C6653 C6654 1.349 . S
C6653 C6655 1.327 . S
C6653 H6676 0.950 . S
C6654 C6653 1.349 . S
C6654 C6666 1.349 . S
C6655 C6653 1.327 . S
C6655 C6671 1.429 . S
C6655 H6677 0.950 . S
C6656 H6652 0.949 . S
C6656 C6664 1.574 . S
C6656 C6672 1.368 . S
H6657 C6665 0.950 . S
H6658 C6663 0.950 . S
H6659 C6664 0.949 . S
H6660 C6666 0.950 . S
H6661 C6667 0.950 . S
H6662 C6668 0.949 . S
C6663 H6658 0.950 . S
C6663 C6665 1.327 . S
C6663 C6669 1.429 . S
C6664 C6656 1.574 . S
C6664 H6659 0.949 . S
C6664 C6670 1.368 . S
C6665 C6649 1.349 . S
C6665 H6657 0.950 . S
C6665 C6663 1.327 . S
C6666 C6654 1.349 . S
C6666 H6660 0.950 . S
C6666 C6667 1.327 . S
C6667 H6661 0.950 . S
C6667 C6666 1.327 . S
C6667 C6671 1.429 . S
C6668 C6651 1.574 . S
C6668 H6662 0.949 . S
C6668 C6672 1.368 . S
C6669 C6650 1.429 . S
C6669 C6663 1.429 . S
C6669 C6670 1.523 . S
C6670 C6651 1.368 . S
C6670 C6664 1.368 . S
C6670 C6669 1.523 . S
C6671 C6655 1.429 . S
C6671 C6667 1.429 . S
C6671 C6672 1.523 . S
C6672 C6656 1.368 . S
C6672 C6668 1.368 . S
C6672 C6671 1.523 . S
H6673 C6648 0.950 . S
H6674 C6650 0.950 . S
H6675 C6651 0.949 . S
H6676 C6653 0.950 . S
H6677 C6655 0.950 . S
C6678 C6679 1.349 . S
C6678 C6680 1.327 . S
C6678 H6703 0.950 . S
C6679 C6678 1.349 . S
C6679 C6695 1.349 . S
C6680 C6678 1.327 . S
C6680 C6699 1.429 . S
C6680 H6704 0.950 . S
C6681 C6698 1.574 . S
C6681 C6700 1.368 . S
C6681 H6705 0.949 . S
H6682 C6686 0.949 . S
C6683 C6684 1.349 . S
C6683 C6685 1.327 . S
C6683 H6706 0.950 . S
C6684 C6683 1.349 . S
C6684 C6696 1.349 . S
C6685 C6683 1.327 . S
C6685 C6701 1.429 . S
C6685 H6707 0.950 . S
C6686 H6682 0.949 . S
C6686 C6694 1.574 . S
C6686 C6702 1.368 . S
H6687 C6695 0.950 . S
H6688 C6693 0.950 . S
H6689 C6694 0.949 . S
H6690 C6696 0.950 . S
H6691 C6697 0.950 . S
H6692 C6698 0.949 . S
C6693 H6688 0.950 . S
C6693 C6695 1.327 . S
C6693 C6699 1.429 . S
C6694 C6686 1.574 . S
C6694 H6689 0.949 . S
C6694 C6700 1.368 . S
C6695 C6679 1.349 . S
C6695 H6687 0.950 . S
C6695 C6693 1.327 . S
C6696 C6684 1.349 . S
C6696 H6690 0.950 . S
C6696 C6697 1.327 . S
C6697 H6691 0.950 . S
C6697 C6696 1.327 . S
C6697 C6701 1.429 . S
C6698 C6681 1.574 . S
C6698 H6692 0.949 . S
C6698 C6702 1.368 . S
C6699 C6680 1.429 . S
C6699 C6693 1.429 . S
C6699 C6700 1.523 . S
C6700 C6681 1.368 . S
C6700 C6694 1.368 . S
C6700 C6699 1.523 . S
C6701 C6685 1.429 . S
C6701 C6697 1.429 . S
C6701 C6702 1.523 . S
C6702 C6686 1.368 . S
C6702 C6698 1.368 . S
C6702 C6701 1.523 . S
H6703 C6678 0.950 . S
H6704 C6680 0.950 . S
H6705 C6681 0.949 . S
H6706 C6683 0.950 . S
H6707 C6685 0.950 . S
C6708 C6709 1.349 . S
C6708 C6710 1.327 . S
C6708 H6733 0.950 . S
C6709 C6708 1.349 . S
C6709 C6725 1.349 . S
C6710 C6708 1.327 . S
C6710 C6729 1.429 . S
C6710 H6734 0.950 . S
C6711 C6728 1.574 . S
C6711 C6730 1.368 . S
C6711 H6735 0.949 . S
H6712 C6716 0.949 . S
C6713 C6714 1.349 . S
C6713 C6715 1.327 . S
C6713 H6736 0.950 . S
C6714 C6713 1.349 . S
C6714 C6726 1.349 . S
C6715 C6713 1.327 . S
C6715 C6731 1.429 . S
C6715 H6737 0.950 . S
C6716 H6712 0.949 . S
C6716 C6724 1.574 . S
C6716 C6732 1.368 . S
H6717 C6725 0.950 . S
H6718 C6723 0.950 . S
H6719 C6724 0.949 . S
H6720 C6726 0.950 . S
H6721 C6727 0.950 . S
H6722 C6728 0.949 . S
C6723 H6718 0.950 . S
C6723 C6725 1.327 . S
C6723 C6729 1.429 . S
C6724 C6716 1.574 . S
C6724 H6719 0.949 . S
C6724 C6730 1.368 . S
C6725 C6709 1.349 . S
C6725 H6717 0.950 . S
C6725 C6723 1.327 . S
C6726 C6714 1.349 . S
C6726 H6720 0.950 . S
C6726 C6727 1.327 . S
C6727 H6721 0.950 . S
C6727 C6726 1.327 . S
C6727 C6731 1.429 . S
C6728 C6711 1.574 . S
C6728 H6722 0.949 . S
C6728 C6732 1.368 . S
C6729 C6710 1.429 . S
C6729 C6723 1.429 . S
C6729 C6730 1.523 . S
C6730 C6711 1.368 . S
C6730 C6724 1.368 . S
C6730 C6729 1.523 . S
C6731 C6715 1.429 . S
C6731 C6727 1.429 . S
C6731 C6732 1.523 . S
C6732 C6716 1.368 . S
C6732 C6728 1.368 . S
C6732 C6731 1.523 . S
H6733 C6708 0.950 . S
H6734 C6710 0.950 . S
H6735 C6711 0.949 . S
H6736 C6713 0.950 . S
H6737 C6715 0.950 . S
C6738 C6739 1.349 . S
C6738 C6740 1.327 . S
C6738 H6763 0.950 . S
C6739 C6738 1.349 . S
C6739 C6755 1.349 . S
C6740 C6738 1.327 . S
C6740 C6759 1.429 . S
C6740 H6764 0.950 . S
C6741 C6758 1.574 . S
C6741 C6760 1.368 . S
C6741 H6765 0.949 . S
H6742 C6746 0.949 . S
C6743 C6744 1.349 . S
C6743 C6745 1.327 . S
C6743 H6766 0.950 . S
C6744 C6743 1.349 . S
C6744 C6756 1.349 . S
C6745 C6743 1.327 . S
C6745 C6761 1.429 . S
C6745 H6767 0.950 . S
C6746 H6742 0.949 . S
C6746 C6754 1.574 . S
C6746 C6762 1.368 . S
H6747 C6755 0.950 . S
H6748 C6753 0.950 . S
H6749 C6754 0.949 . S
H6750 C6756 0.950 . S
H6751 C6757 0.950 . S
H6752 C6758 0.949 . S
C6753 H6748 0.950 . S
C6753 C6755 1.327 . S
C6753 C6759 1.429 . S
C6754 C6746 1.574 . S
C6754 H6749 0.949 . S
C6754 C6760 1.368 . S
C6755 C6739 1.349 . S
C6755 H6747 0.950 . S
C6755 C6753 1.327 . S
C6756 C6744 1.349 . S
C6756 H6750 0.950 . S
C6756 C6757 1.327 . S
C6757 H6751 0.950 . S
C6757 C6756 1.327 . S
C6757 C6761 1.429 . S
C6758 C6741 1.574 . S
C6758 H6752 0.949 . S
C6758 C6762 1.368 . S
C6759 C6740 1.429 . S
C6759 C6753 1.429 . S
C6759 C6760 1.523 . S
C6760 C6741 1.368 . S
C6760 C6754 1.368 . S
C6760 C6759 1.523 . S
C6761 C6745 1.429 . S
C6761 C6757 1.429 . S
C6761 C6762 1.523 . S
C6762 C6746 1.368 . S
C6762 C6758 1.368 . S
C6762 C6761 1.523 . S
H6763 C6738 0.950 . S
H6764 C6740 0.950 . S
H6765 C6741 0.949 . S
H6766 C6743 0.950 . S
H6767 C6745 0.950 . S
C6768 C6769 1.349 . S
C6768 C6770 1.327 . S
C6768 H6793 0.950 . S
C6769 C6768 1.349 . S
C6769 C6785 1.349 . S
C6770 C6768 1.327 . S
C6770 C6789 1.429 . S
C6770 H6794 0.950 . S
C6771 C6788 1.574 . S
C6771 C6790 1.368 . S
C6771 H6795 0.949 . S
H6772 C6776 0.949 . S
C6773 C6774 1.349 . S
C6773 C6775 1.327 . S
C6773 H6796 0.950 . S
C6774 C6773 1.349 . S
C6774 C6786 1.349 . S
C6775 C6773 1.327 . S
C6775 C6791 1.429 . S
C6775 H6797 0.950 . S
C6776 H6772 0.949 . S
C6776 C6784 1.574 . S
C6776 C6792 1.368 . S
H6777 C6785 0.950 . S
H6778 C6783 0.950 . S
H6779 C6784 0.949 . S
H6780 C6786 0.950 . S
H6781 C6787 0.950 . S
H6782 C6788 0.949 . S
C6783 H6778 0.950 . S
C6783 C6785 1.327 . S
C6783 C6789 1.429 . S
C6784 C6776 1.574 . S
C6784 H6779 0.949 . S
C6784 C6790 1.368 . S
C6785 C6769 1.349 . S
C6785 H6777 0.950 . S
C6785 C6783 1.327 . S
C6786 C6774 1.349 . S
C6786 H6780 0.950 . S
C6786 C6787 1.327 . S
C6787 H6781 0.950 . S
C6787 C6786 1.327 . S
C6787 C6791 1.429 . S
C6788 C6771 1.574 . S
C6788 H6782 0.949 . S
C6788 C6792 1.368 . S
C6789 C6770 1.429 . S
C6789 C6783 1.429 . S
C6789 C6790 1.523 . S
C6790 C6771 1.368 . S
C6790 C6784 1.368 . S
C6790 C6789 1.523 . S
C6791 C6775 1.429 . S
C6791 C6787 1.429 . S
C6791 C6792 1.523 . S
C6792 C6776 1.368 . S
C6792 C6788 1.368 . S
C6792 C6791 1.523 . S
H6793 C6768 0.950 . S
H6794 C6770 0.950 . S
H6795 C6771 0.949 . S
H6796 C6773 0.950 . S
H6797 C6775 0.950 . S
C6798 C6799 1.349 . S
C6798 C6800 1.327 . S
C6798 H6823 0.950 . S
C6799 C6798 1.349 . S
C6799 C6815 1.349 . S
C6800 C6798 1.327 . S
C6800 C6819 1.429 . S
C6800 H6824 0.950 . S
C6801 C6818 1.574 . S
C6801 C6820 1.368 . S
C6801 H6825 0.949 . S
H6802 C6806 0.949 . S
C6803 C6804 1.349 . S
C6803 C6805 1.327 . S
C6803 H6826 0.950 . S
C6804 C6803 1.349 . S
C6804 C6816 1.349 . S
C6805 C6803 1.327 . S
C6805 C6821 1.429 . S
C6805 H6827 0.950 . S
C6806 H6802 0.949 . S
C6806 C6814 1.574 . S
C6806 C6822 1.368 . S
H6807 C6815 0.950 . S
H6808 C6813 0.950 . S
H6809 C6814 0.949 . S
H6810 C6816 0.950 . S
H6811 C6817 0.950 . S
H6812 C6818 0.949 . S
C6813 H6808 0.950 . S
C6813 C6815 1.327 . S
C6813 C6819 1.429 . S
C6814 C6806 1.574 . S
C6814 H6809 0.949 . S
C6814 C6820 1.368 . S
C6815 C6799 1.349 . S
C6815 H6807 0.950 . S
C6815 C6813 1.327 . S
C6816 C6804 1.349 . S
C6816 H6810 0.950 . S
C6816 C6817 1.327 . S
C6817 H6811 0.950 . S
C6817 C6816 1.327 . S
C6817 C6821 1.429 . S
C6818 C6801 1.574 . S
C6818 H6812 0.949 . S
C6818 C6822 1.368 . S
C6819 C6800 1.429 . S
C6819 C6813 1.429 . S
C6819 C6820 1.523 . S
C6820 C6801 1.368 . S
C6820 C6814 1.368 . S
C6820 C6819 1.523 . S
C6821 C6805 1.429 . S
C6821 C6817 1.429 . S
C6821 C6822 1.523 . S
C6822 C6806 1.368 . S
C6822 C6818 1.368 . S
C6822 C6821 1.523 . S
H6823 C6798 0.950 . S
H6824 C6800 0.950 . S
H6825 C6801 0.949 . S
H6826 C6803 0.950 . S
H6827 C6805 0.950 . S
C6828 C6829 1.349 . S
C6828 C6830 1.327 . S
C6828 H6853 0.950 . S
C6829 C6828 1.349 . S
C6829 C6845 1.349 . S
C6830 C6828 1.327 . S
C6830 C6849 1.429 . S
C6830 H6854 0.950 . S
C6831 C6848 1.574 . S
C6831 C6850 1.368 . S
C6831 H6855 0.949 . S
H6832 C6836 0.949 . S
C6833 C6834 1.349 . S
C6833 C6835 1.327 . S
C6833 H6856 0.950 . S
C6834 C6833 1.349 . S
C6834 C6846 1.349 . S
C6835 C6833 1.327 . S
C6835 C6851 1.429 . S
C6835 H6857 0.950 . S
C6836 H6832 0.949 . S
C6836 C6844 1.574 . S
C6836 C6852 1.368 . S
H6837 C6845 0.950 . S
H6838 C6843 0.950 . S
H6839 C6844 0.949 . S
H6840 C6846 0.950 . S
H6841 C6847 0.950 . S
H6842 C6848 0.949 . S
C6843 H6838 0.950 . S
C6843 C6845 1.327 . S
C6843 C6849 1.429 . S
C6844 C6836 1.574 . S
C6844 H6839 0.949 . S
C6844 C6850 1.368 . S
C6845 C6829 1.349 . S
C6845 H6837 0.950 . S
C6845 C6843 1.327 . S
C6846 C6834 1.349 . S
C6846 H6840 0.950 . S
C6846 C6847 1.327 . S
C6847 H6841 0.950 . S
C6847 C6846 1.327 . S
C6847 C6851 1.429 . S
C6848 C6831 1.574 . S
C6848 H6842 0.949 . S
C6848 C6852 1.368 . S
C6849 C6830 1.429 . S
C6849 C6843 1.429 . S
C6849 C6850 1.523 . S
C6850 C6831 1.368 . S
C6850 C6844 1.368 . S
C6850 C6849 1.523 . S
C6851 C6835 1.429 . S
C6851 C6847 1.429 . S
C6851 C6852 1.523 . S
C6852 C6836 1.368 . S
C6852 C6848 1.368 . S
C6852 C6851 1.523 . S
H6853 C6828 0.950 . S
H6854 C6830 0.950 . S
H6855 C6831 0.949 . S
H6856 C6833 0.950 . S
H6857 C6835 0.950 . S
C6858 C6859 1.349 . S
C6858 C6860 1.327 . S
C6858 H6883 0.950 . S
C6859 C6858 1.349 . S
C6859 C6875 1.349 . S
C6860 C6858 1.327 . S
C6860 C6879 1.429 . S
C6860 H6884 0.950 . S
C6861 C6878 1.574 . S
C6861 C6880 1.368 . S
C6861 H6885 0.949 . S
H6862 C6866 0.949 . S
C6863 C6864 1.349 . S
C6863 C6865 1.327 . S
C6863 H6886 0.950 . S
C6864 C6863 1.349 . S
C6864 C6876 1.349 . S
C6865 C6863 1.327 . S
C6865 C6881 1.429 . S
C6865 H6887 0.950 . S
C6866 H6862 0.949 . S
C6866 C6874 1.574 . S
C6866 C6882 1.368 . S
H6867 C6875 0.950 . S
H6868 C6873 0.950 . S
H6869 C6874 0.949 . S
H6870 C6876 0.950 . S
H6871 C6877 0.950 . S
H6872 C6878 0.949 . S
C6873 H6868 0.950 . S
C6873 C6875 1.327 . S
C6873 C6879 1.429 . S
C6874 C6866 1.574 . S
C6874 H6869 0.949 . S
C6874 C6880 1.368 . S
C6875 C6859 1.349 . S
C6875 H6867 0.950 . S
C6875 C6873 1.327 . S
C6876 C6864 1.349 . S
C6876 H6870 0.950 . S
C6876 C6877 1.327 . S
C6877 H6871 0.950 . S
C6877 C6876 1.327 . S
C6877 C6881 1.429 . S
C6878 C6861 1.574 . S
C6878 H6872 0.949 . S
C6878 C6882 1.368 . S
C6879 C6860 1.429 . S
C6879 C6873 1.429 . S
C6879 C6880 1.523 . S
C6880 C6861 1.368 . S
C6880 C6874 1.368 . S
C6880 C6879 1.523 . S
C6881 C6865 1.429 . S
C6881 C6877 1.429 . S
C6881 C6882 1.523 . S
C6882 C6866 1.368 . S
C6882 C6878 1.368 . S
C6882 C6881 1.523 . S
H6883 C6858 0.950 . S
H6884 C6860 0.950 . S
H6885 C6861 0.949 . S
H6886 C6863 0.950 . S
H6887 C6865 0.950 . S
C6888 C6889 1.349 . S
C6888 C6890 1.327 . S
C6888 H6913 0.950 . S
C6889 C6888 1.349 . S
C6889 C6905 1.349 . S
C6890 C6888 1.327 . S
C6890 C6909 1.429 . S
C6890 H6914 0.950 . S
C6891 C6908 1.574 . S
C6891 C6910 1.368 . S
C6891 H6915 0.949 . S
H6892 C6896 0.949 . S
C6893 C6894 1.349 . S
C6893 C6895 1.327 . S
C6893 H6916 0.950 . S
C6894 C6893 1.349 . S
C6894 C6906 1.349 . S
C6895 C6893 1.327 . S
C6895 C6911 1.429 . S
C6895 H6917 0.950 . S
C6896 H6892 0.949 . S
C6896 C6904 1.574 . S
C6896 C6912 1.368 . S
H6897 C6905 0.950 . S
H6898 C6903 0.950 . S
H6899 C6904 0.949 . S
H6900 C6906 0.950 . S
H6901 C6907 0.950 . S
H6902 C6908 0.949 . S
C6903 H6898 0.950 . S
C6903 C6905 1.327 . S
C6903 C6909 1.429 . S
C6904 C6896 1.574 . S
C6904 H6899 0.949 . S
C6904 C6910 1.368 . S
C6905 C6889 1.349 . S
C6905 H6897 0.950 . S
C6905 C6903 1.327 . S
C6906 C6894 1.349 . S
C6906 H6900 0.950 . S
C6906 C6907 1.327 . S
C6907 H6901 0.950 . S
C6907 C6906 1.327 . S
C6907 C6911 1.429 . S
C6908 C6891 1.574 . S
C6908 H6902 0.949 . S
C6908 C6912 1.368 . S
C6909 C6890 1.429 . S
C6909 C6903 1.429 . S
C6909 C6910 1.523 . S
C6910 C6891 1.368 . S
C6910 C6904 1.368 . S
C6910 C6909 1.523 . S
C6911 C6895 1.429 . S
C6911 C6907 1.429 . S
C6911 C6912 1.523 . S
C6912 C6896 1.368 . S
C6912 C6908 1.368 . S
C6912 C6911 1.523 . S
H6913 C6888 0.950 . S
H6914 C6890 0.950 . S
H6915 C6891 0.949 . S
H6916 C6893 0.950 . S
H6917 C6895 0.950 . S
C6918 C6919 1.349 . S
C6918 C6920 1.327 . S
C6918 H6943 0.950 . S
C6919 C6918 1.349 . S
C6919 C6935 1.349 . S
C6920 C6918 1.327 . S
C6920 C6939 1.429 . S
C6920 H6944 0.950 . S
C6921 C6938 1.574 . S
C6921 C6940 1.368 . S
C6921 H6945 0.949 . S
H6922 C6926 0.949 . S
C6923 C6924 1.349 . S
C6923 C6925 1.327 . S
C6923 H6946 0.950 . S
C6924 C6923 1.349 . S
C6924 C6936 1.349 . S
C6925 C6923 1.327 . S
C6925 C6941 1.429 . S
C6925 H6947 0.950 . S
C6926 H6922 0.949 . S
C6926 C6934 1.574 . S
C6926 C6942 1.368 . S
H6927 C6935 0.950 . S
H6928 C6933 0.950 . S
H6929 C6934 0.949 . S
H6930 C6936 0.950 . S
H6931 C6937 0.950 . S
H6932 C6938 0.949 . S
C6933 H6928 0.950 . S
C6933 C6935 1.327 . S
C6933 C6939 1.429 . S
C6934 C6926 1.574 . S
C6934 H6929 0.949 . S
C6934 C6940 1.368 . S
C6935 C6919 1.349 . S
C6935 H6927 0.950 . S
C6935 C6933 1.327 . S
C6936 C6924 1.349 . S
C6936 H6930 0.950 . S
C6936 C6937 1.327 . S
C6937 H6931 0.950 . S
C6937 C6936 1.327 . S
C6937 C6941 1.429 . S
C6938 C6921 1.574 . S
C6938 H6932 0.949 . S
C6938 C6942 1.368 . S
C6939 C6920 1.429 . S
C6939 C6933 1.429 . S
C6939 C6940 1.523 . S
C6940 C6921 1.368 . S
C6940 C6934 1.368 . S
C6940 C6939 1.523 . S
C6941 C6925 1.429 . S
C6941 C6937 1.429 . S
C6941 C6942 1.523 . S
C6942 C6926 1.368 . S
C6942 C6938 1.368 . S
C6942 C6941 1.523 . S
H6943 C6918 0.950 . S
H6944 C6920 0.950 . S
H6945 C6921 0.949 . S
H6946 C6923 0.950 . S
H6947 C6925 0.950 . S
C6948 C6949 1.349 . S
C6948 C6950 1.327 . S
C6948 H6973 0.950 . S
C6949 C6948 1.349 . S
C6949 C6965 1.349 . S
C6950 C6948 1.327 . S
C6950 C6969 1.429 . S
C6950 H6974 0.950 . S
C6951 C6968 1.574 . S
C6951 C6970 1.368 . S
C6951 H6975 0.949 . S
H6952 C6956 0.949 . S
C6953 C6954 1.349 . S
C6953 C6955 1.327 . S
C6953 H6976 0.950 . S
C6954 C6953 1.349 . S
C6954 C6966 1.349 . S
C6955 C6953 1.327 . S
C6955 C6971 1.429 . S
C6955 H6977 0.950 . S
C6956 H6952 0.949 . S
C6956 C6964 1.574 . S
C6956 C6972 1.368 . S
H6957 C6965 0.950 . S
H6958 C6963 0.950 . S
H6959 C6964 0.949 . S
H6960 C6966 0.950 . S
H6961 C6967 0.950 . S
H6962 C6968 0.949 . S
C6963 H6958 0.950 . S
C6963 C6965 1.327 . S
C6963 C6969 1.429 . S
C6964 C6956 1.574 . S
C6964 H6959 0.949 . S
C6964 C6970 1.368 . S
C6965 C6949 1.349 . S
C6965 H6957 0.950 . S
C6965 C6963 1.327 . S
C6966 C6954 1.349 . S
C6966 H6960 0.950 . S
C6966 C6967 1.327 . S
C6967 H6961 0.950 . S
C6967 C6966 1.327 . S
C6967 C6971 1.429 . S
C6968 C6951 1.574 . S
C6968 H6962 0.949 . S
C6968 C6972 1.368 . S
C6969 C6950 1.429 . S
C6969 C6963 1.429 . S
C6969 C6970 1.523 . S
C6970 C6951 1.368 . S
C6970 C6964 1.368 . S
C6970 C6969 1.523 . S
C6971 C6955 1.429 . S
C6971 C6967 1.429 . S
C6971 C6972 1.523 . S
C6972 C6956 1.368 . S
C6972 C6968 1.368 . S
C6972 C6971 1.523 . S
H6973 C6948 0.950 . S
H6974 C6950 0.950 . S
H6975 C6951 0.949 . S
H6976 C6953 0.950 . S
H6977 C6955 0.950 . S
C6978 C6979 1.349 . S
C6978 C6980 1.327 . S
C6978 H7003 0.950 . S
C6979 C6978 1.349 . S
C6979 C6995 1.349 . S
C6980 C6978 1.327 . S
C6980 C6999 1.429 . S
C6980 H7004 0.950 . S
C6981 C6998 1.574 . S
C6981 C7000 1.368 . S
C6981 H7005 0.949 . S
H6982 C6986 0.949 . S
C6983 C6984 1.349 . S
C6983 C6985 1.327 . S
C6983 H7006 0.950 . S
C6984 C6983 1.349 . S
C6984 C6996 1.349 . S
C6985 C6983 1.327 . S
C6985 C7001 1.429 . S
C6985 H7007 0.950 . S
C6986 H6982 0.949 . S
C6986 C6994 1.574 . S
C6986 C7002 1.368 . S
H6987 C6995 0.950 . S
H6988 C6993 0.950 . S
H6989 C6994 0.949 . S
H6990 C6996 0.950 . S
H6991 C6997 0.950 . S
H6992 C6998 0.949 . S
C6993 H6988 0.950 . S
C6993 C6995 1.327 . S
C6993 C6999 1.429 . S
C6994 C6986 1.574 . S
C6994 H6989 0.949 . S
C6994 C7000 1.368 . S
C6995 C6979 1.349 . S
C6995 H6987 0.950 . S
C6995 C6993 1.327 . S
C6996 C6984 1.349 . S
C6996 H6990 0.950 . S
C6996 C6997 1.327 . S
C6997 H6991 0.950 . S
C6997 C6996 1.327 . S
C6997 C7001 1.429 . S
C6998 C6981 1.574 . S
C6998 H6992 0.949 . S
C6998 C7002 1.368 . S
C6999 C6980 1.429 . S
C6999 C6993 1.429 . S
C6999 C7000 1.523 . S
C7000 C6981 1.368 . S
C7000 C6994 1.368 . S
C7000 C6999 1.523 . S
C7001 C6985 1.429 . S
C7001 C6997 1.429 . S
C7001 C7002 1.523 . S
C7002 C6986 1.368 . S
C7002 C6998 1.368 . S
C7002 C7001 1.523 . S
H7003 C6978 0.950 . S
H7004 C6980 0.950 . S
H7005 C6981 0.949 . S
H7006 C6983 0.950 . S
H7007 C6985 0.950 . S
C1249 C4 1.860 . S
C1254 C400 1.860 . S
C1279 C719 1.859 . S
C1284 C17 1.859 . S
C1309 C30 1.859 . S
C1314 C374 1.859 . S
C1339 C43 1.859 . S
C1344 C693 1.859 . S
C1369 C342 1.860 . S
C1374 C62 1.860 . S
C1399 C69 1.860 . S
C1404 C673 1.860 . S
C1429 C316 1.859 . S
C1434 C88 1.859 . S
C1459 C101 1.860 . S
C1464 C641 1.860 . S
C1489 C446 1.860 . S
C1494 C108 1.860 . S
C1519 C127 1.860 . S
C1524 C777 1.860 . S
C1549 C134 1.859 . S
C1554 C426 1.859 . S
C1579 C153 1.859 . S
C1584 C751 1.859 . S
C1609 C166 1.860 . S
C1614 C504 1.860 . S
C1639 C823 1.859 . S
C1644 C173 1.859 . S
C1669 C472 1.859 . S
C1674 C192 1.859 . S
C1699 C199 1.860 . S
C1704 C797 1.860 . S
C1729 C849 1.860 . S
C1734 C212 1.860 . S
C1759 C842 1.859 . S
C1764 C231 1.859 . S
C1789 C244 1.859 . S
C1794 C927 1.859 . S
C1819 C1213 1.859 . S
C1824 C257 1.859 . S
C1849 C608 1.859 . S
C1854 C264 1.859 . S
C1879 C277 1.860 . S
C1884 C1187 1.860 . S
C1909 C296 1.860 . S
C1914 C576 1.860 . S
C1939 C309 1.859 . S
C1944 C868 1.859 . S
C1969 C329 1.859 . S
C1974 C1037 1.859 . S
C1999 C355 1.859 . S
C2004 C1011 1.859 . S
C2029 C387 1.860 . S
C2034 C979 1.860 . S
C2059 C413 1.860 . S
C2064 C959 1.860 . S
C2089 C1083 1.859 . S
C2094 C433 1.859 . S
C2119 C459 1.860 . S
C2124 C1063 1.860 . S
C2149 C1135 1.860 . S
C2154 C485 1.860 . S
C2179 C517 1.859 . S
C2184 C1109 1.859 . S
C2209 C524 1.859 . S
C2214 C1167 1.859 . S
C2239 C543 1.859 . S
C2244 C1154 1.859 . S
C2269 C550 1.860 . S
C2274 C1239 1.860 . S
C2299 C901 1.859 . S
C2304 C563 1.859 . S
C2329 C881 1.859 . S
C2334 C589 1.859 . S
C2359 C615 1.860 . S
C2364 C1180 1.860 . S
C2389 C634 1.859 . S
C2394 C1024 1.859 . S
C2419 C998 1.859 . S
C2424 C660 1.859 . S
C2449 C680 1.859 . S
C2454 C966 1.859 . S
C2479 C712 1.859 . S
C2484 C940 1.859 . S
C2509 C1070 1.859 . S
C2514 C732 1.859 . S
C2539 C1050 1.859 . S
C2544 C758 1.859 . S
C2569 C784 1.859 . S
C2574 C1128 1.859 . S
C2599 C1102 1.859 . S
C2604 C816 1.859 . S
C2629 C894 1.859 . S
C2634 C1232 1.859 . S
C2659 C920 1.860 . S
C2664 C1206 1.860 . S
C2689 C10 1.336 . S
C2694 C725 1.336 . S
C2719 C23 1.336 . S
C2724 C368 1.336 . S
C2749 C36 1.336 . S
C2754 C699 1.336 . S
C2779 C394 1.336 . S
C2784 C49 1.336 . S
C2809 C56 1.336 . S
C2814 C335 1.336 . S
C2839 C75 1.336 . S
C2844 C654 1.336 . S
C2869 C82 1.336 . S
C2874 C361 1.336 . S
C2899 C628 1.336 . S
C2904 C95 1.336 . S
C2929 C114 1.336 . S
C2934 C270 1.336 . S
C2959 C121 1.336 . S
C2964 C1161 1.336 . S
C2989 C1174 1.336 . S
C2994 C140 1.336 . S
C3019 C147 1.336 . S
C3024 C1193 1.336 . S
C3049 C933 1.336 . S
C3054 C160 1.336 . S
C3079 C1219 1.336 . S
C3084 C179 1.336 . S
C3109 C186 1.336 . S
C3114 C914 1.336 . S
C3139 C836 1.336 . S
C3144 C205 1.336 . S
C3169 C829 1.336 . S
C3174 C218 1.336 . S
C3199 C1057 1.336 . S
C3204 C225 1.336 . S
C3229 C238 1.336 . S
C3234 C1076 1.336 . S
C3259 C251 1.336 . S
C3264 C1089 1.336 . S
C3289 C283 1.336 . S
C3294 C1115 1.336 . S
C3319 C290 1.336 . S
C3324 C810 1.336 . S
C3349 C790 1.336 . S
C3354 C303 1.336 . S
C3379 C322 1.336 . S
C3384 C1031 1.336 . S
C3409 C1005 1.336 . S
C3414 C348 1.336 . S
C3439 C972 1.336 . S
C3444 C381 1.336 . S
C3469 C407 1.336 . S
C3474 C946 1.336 . S
C3499 C420 1.336 . S
C3504 C582 1.336 . S
C3529 C439 1.336 . S
C3534 C855 1.336 . S
C3559 C452 1.336 . S
C3564 C862 1.336 . S
C3589 C465 1.336 . S
C3594 C875 1.336 . S
C3619 C478 1.336 . S
C3624 C1245 1.336 . S
C3649 C907 1.336 . S
C3654 C491 1.336 . S
C3679 C1226 1.336 . S
C3684 C498 1.336 . S
C3709 C1148 1.336 . S
C3714 C511 1.336 . S
C3739 C1141 1.336 . S
C3744 C530 1.336 . S
C3769 C537 1.336 . S
C3774 C745 1.336 . S
C3799 C556 1.336 . S
C3804 C764 1.336 . S
C3829 C569 1.336 . S
C3834 C771 1.336 . S
C3859 C803 1.336 . S
C3864 C595 1.336 . S
C3889 C1122 1.336 . S
C3894 C602 1.336 . S
C3919 C1096 1.336 . S
C3924 C621 1.336 . S
C3949 C647 1.336 . S
C3954 C992 1.336 . S
C3979 C667 1.336 . S
C3984 C1018 1.336 . S
C4009 C953 1.336 . S
C4014 C686 1.336 . S
C4039 C985 1.336 . S
C4044 C706 1.336 . S
C4069 C888 1.336 . S
C4074 C738 1.336 . S
C4099 C1200 1.336 . S
C4104 C1044 1.336 . S
C4129 C3 1.059 . S
C4134 C1214 1.092 . S
C4159 C16 1.059 . S
C4164 C913 1.092 . S
C4189 C835 1.092 . S
C4194 C29 1.059 . S
C4219 C928 1.092 . S
C4224 C42 1.059 . S
C4249 C57 1.059 . S
C4254 C250 1.092 . S
C4279 C68 1.059 . S
C4284 C1199 1.092 . S
C4309 C224 1.092 . S
C4314 C83 1.059 . S
C4339 C237 1.092 . S
C4344 C96 1.059 . S
C4369 C367 1.092 . S
C4374 C107 1.059 . S
C4399 C122 1.059 . S
C4404 C694 1.092 . S
C4429 C133 1.059 . S
C4434 C393 1.092 . S
C4459 C148 1.059 . S
C4464 C720 1.092 . S
C4489 C317 1.092 . S
C4494 C161 1.059 . S
C4519 C172 1.059 . S
C4524 C642 1.092 . S
C4549 C343 1.092 . S
C4554 C187 1.059 . S
C4579 C198 1.059 . S
C4584 C666 1.092 . S
C4609 C211 1.059 . S
C4614 C1121 1.092 . S
C4639 C447 1.092 . S
C4644 C226 1.059 . S
C4669 C239 1.059 . S
C4674 C770 1.092 . S
C4699 C419 1.092 . S
C4704 C252 1.059 . S
C4729 C263 1.059 . S
C4734 C434 1.092 . S
C4759 C785 1.092 . S
C4764 C276 1.059 . S
C4789 C174 1.092 . S
C4794 C291 1.059 . S
C4819 C200 1.092 . S
C4824 C304 1.059 . S
C4849 C902 1.092 . S
C4854 C315 1.059 . S
C4879 C328 1.059 . S
C4884 C1225 1.092 . S
C4909 C1147 1.092 . S
C4914 C341 1.059 . S
C4939 C354 1.059 . S
C4944 C1240 1.092 . S
C4969 C564 1.092 . S
C4974 C369 1.059 . S
C4999 C887 1.092 . S
C5004 C382 1.059 . S
C5029 C395 1.059 . S
C5034 C536 1.092 . S
C5059 C408 1.059 . S
C5064 C551 1.092 . S
C5089 C421 1.059 . S
C5094 C55 1.092 . S
C5119 C432 1.059 . S
C5124 C1004 1.092 . S
C5149 C81 1.092 . S
C5154 C445 1.059 . S
C5179 C458 1.059 . S
C5184 C1030 1.092 . S
C5209 C5 1.092 . S
C5214 C471 1.059 . S
C5239 C484 1.059 . S
C5244 C952 1.092 . S
C5269 C31 1.092 . S
C5274 C499 1.059 . S
C5299 C980 1.092 . S
C5304 C512 1.059 . S
C5329 C523 1.059 . S
C5334 C809 1.092 . S
C5359 C538 1.059 . S
C5364 C135 1.092 . S
C5389 C1084 1.092 . S
C5394 C549 1.059 . S
C5419 C562 1.059 . S
C5424 C109 1.092 . S
C5449 C120 1.092 . S
C5454 C575 1.059 . S
C5479 C588 1.059 . S
C5484 C1095 1.092 . S
C5509 C486 1.092 . S
C5514 C603 1.059 . S
C5539 C614 1.059 . S
C5544 C510 1.092 . S
C5569 C590 1.092 . S
C5574 C629 1.059 . S
C5599 C640 1.059 . S
C5604 C289 1.092 . S
C5629 C655 1.059 . S
C5634 C213 1.092 . S
C5659 C668 1.059 . S
C5664 C302 1.092 . S
C5689 C679 1.059 . S
C5694 C874 1.092 . S
C5719 C577 1.092 . S
C5724 C692 1.059 . S
C5749 C850 1.092 . S
C5754 C707 1.059 . S
C5779 C718 1.059 . S
C5784 C861 1.092 . S
C5809 C991 1.092 . S
C5814 C731 1.059 . S
C5839 C70 1.092 . S
C5844 C746 1.059 . S
C5869 C1017 1.092 . S
C5874 C757 1.059 . S
C5899 C772 1.059 . S
C5904 C94 1.092 . S
C5929 C941 1.092 . S
C5934 C783 1.059 . S
C5959 C796 1.059 . S
C5964 C18 1.092 . S
C5989 C967 1.092 . S
C5994 C811 1.059 . S
C6019 C44 1.092 . S
C6024 C822 1.059 . S
C6049 C497 1.092 . S
C6054 C837 1.059 . S
C6079 C848 1.059 . S
C6084 C1071 1.092 . S
C6109 C863 1.059 . S
C6114 C146 1.092 . S
C6139 C1043 1.092 . S
C6144 C876 1.059 . S
C6169 C889 1.059 . S
C6174 C1056 1.092 . S
C6199 C159 1.092 . S
C6204 C900 1.059 . S
C6229 C798 1.092 . S
C6234 C915 1.059 . S
C6259 C926 1.059 . S
C6264 C824 1.092 . S
C6289 C939 1.059 . S
C6294 C278 1.092 . S
C6319 C601 1.092 . S
C6324 C954 1.059 . S
C6349 C525 1.092 . S
C6354 C965 1.059 . S
C6379 C978 1.059 . S
C6384 C616 1.092 . S
C6409 C993 1.059 . S
C6414 C1188 1.092 . S
C6439 C265 1.092 . S
C6444 C1006 1.059 . S
C6469 C1160 1.092 . S
C6474 C1019 1.059 . S
C6499 C1173 1.092 . S
C6504 C1032 1.059 . S
C6529 C681 1.092 . S
C6534 C1045 1.059 . S
C6559 C1058 1.059 . S
C6564 C380 1.092 . S
C6589 C1069 1.059 . S
C6594 C705 1.092 . S
C6619 C1082 1.059 . S
C6624 C406 1.092 . S
C6649 C627 1.092 . S
C6654 C1097 1.059 . S
C6679 C1108 1.059 . S
C6684 C330 1.092 . S
C6709 C1123 1.059 . S
C6714 C653 1.092 . S
C6739 C1134 1.059 . S
C6744 C356 1.092 . S
C6769 C185 1.092 . S
C6774 C1149 1.059 . S
C6799 C1162 1.059 . S
C6804 C759 1.092 . S
C6829 C1175 1.059 . S
C6834 C460 1.092 . S
C6859 C1186 1.059 . S
C6864 C733 1.092 . S
C6889 C1201 1.059 . S
C6894 C744 1.092 . S
C6919 C473 1.092 . S
C6924 C1212 1.059 . S
C6949 C1110 1.092 . S
C6954 C1227 1.059 . S
C6979 C1136 1.092 . S
C6984 C1238 1.059 . S
