# Generated by pormake.
# Topology rob, (6)-cn, num edge types: 1
# Building blocks:
#     Node 0, Type 0, BuildingBlock: BETFEN_clean_sbu_0, # of connection points: 6
#     Node 1, Type 0, BuildingBlock: BETFEN_clean_sbu_0, # of connection points: 6
#     Node 2, Type 0, BuildingBlock: BETFEN_clean_sbu_0, # of connection points: 6
#     Node 3, Type 0, BuildingBlock: BETFEN_clean_sbu_0, # of connection points: 6
#     Edge 4, Type (0, 0), BuildingBlock: CIFDUS_clean_linker_0, # of connection points: 2
#     Edge 5, Type (0, 0), BuildingBlock: CIFDUS_clean_linker_0, # of connection points: 2
#     Edge 6, Type (0, 0), BuildingBlock: CIFDUS_clean_linker_0, # of connection points: 2
#     Edge 7, Type (0, 0), BuildingBlock: CIFDUS_clean_linker_0, # of connection points: 2
#     Edge 8, Type (0, 0), BuildingBlock: CIFDUS_clean_linker_0, # of connection points: 2
#     Edge 9, Type (0, 0), BuildingBlock: CIFDUS_clean_linker_0, # of connection points: 2
#     Edge 10, Type (0, 0), BuildingBlock: CIFDUS_clean_linker_0, # of connection points: 2
#     Edge 11, Type (0, 0), BuildingBlock: CIFDUS_clean_linker_0, # of connection points: 2
#     Edge 12, Type (0, 0), BuildingBlock: CIFDUS_clean_linker_0, # of connection points: 2
#     Edge 13, Type (0, 0), BuildingBlock: CIFDUS_clean_linker_0, # of connection points: 2
#     Edge 14, Type (0, 0), BuildingBlock: CIFDUS_clean_linker_0, # of connection points: 2
#     Edge 15, Type (0, 0), BuildingBlock: CIFDUS_clean_linker_0, # of connection points: 2
# Relax obj value: 0.052
# Max RMSD: 0.169
# Mean RMSD: 0.169
data_MOF--net-rob--node1-BETFEN_clean_sbu_0--edge1-CIFDUS_clean_linker_0
_symmetry_space_group_name_H-M    P1
_symmetry_Int_Tables_number       1
_symmetry_cell_setting            triclinic
loop_
_symmetry_equiv_pos_as_xyz
'x, y, z'
_cell_length_a     13.790401
_cell_length_b     20.996806
_cell_length_c     33.405017
_cell_angle_alpha  99.938794
_cell_angle_beta   89.576804
_cell_angle_gamma 89.678712
loop_
_atom_site_label
_atom_site_type_symbol
_atom_site_fract_x
_atom_site_fract_y
_atom_site_fract_z
_atom_type_partial_charge
Pr0 Pr 0.10779 0.3439 0.05303 0.0
Pr1 Pr 0.29261 0.28345 1.01402 0.0
C2 C 0.95135 0.37735 0.10118 0.0
C3 C 0.92396 0.37159 0.14315 0.0
C4 C 0.86627 0.41961 0.16637 0.0
C5 C 0.84266 0.41595 0.20672 0.0
C6 C 0.8765 0.36414 0.22467 0.0
C7 C 0.93488 0.31625 0.20126 0.0
C8 C 0.95833 0.31995 0.16091 0.0
C9 C 0.25093 0.4325 0.04132 0.0
C10 C 0.27136 0.2818 0.10959 0.0
C11 C 0.44736 0.25533 0.96433 0.0
C12 C 0.46195 0.25435 0.92024 0.0
C13 C 0.5006 0.199 0.89557 0.0
C14 C 0.50847 0.19569 0.85341 0.0
C15 C 0.47775 0.24775 0.835 0.0
C16 C 0.43998 0.30338 0.8599 0.0
C17 C 0.43186 0.3066 0.90197 0.0
C18 C 0.15051 0.19361 1.02374 0.0
C19 C 0.11865 0.33564 0.95649 0.0
O20 O 0.95703 0.32362 0.07476 0.0
O21 O 0.02203 0.41713 0.09753 0.0
O22 O 0.26565 0.38081 0.05495 0.0
O23 O 0.15973 0.44047 0.03389 0.0
O24 O 0.33861 0.2848 0.08161 0.0
O25 O 0.17925 0.29292 0.10271 0.0
O26 O 0.43413 0.31189 0.98734 0.0
O27 O 0.38982 0.21103 0.97398 0.0
O28 O 0.13506 0.24642 1.01145 0.0
O29 O 0.24211 0.18474 1.03006 0.0
O30 O 0.05584 0.33741 0.98655 0.0
O31 O 0.21195 0.32489 0.96163 0.0
H32 H 0.83997 0.46021 0.15335 0.0
H33 H 0.79874 0.45415 0.22399 0.0
H34 H 0.96125 0.2753 0.21388 0.0
H35 H 0.00322 0.28242 0.14356 0.0
H36 H 0.52344 0.15786 0.90886 0.0
H37 H 0.53724 0.15191 0.83516 0.0
H38 H 0.4178 0.34489 0.84692 0.0
H39 H 0.4013 0.34989 0.92012 0.0
Pr40 Pr 0.67622 0.79813 0.04761 0.0
Pr41 Pr 0.86123 0.73784 1.00866 0.0
C42 C 0.52127 0.82574 0.09724 0.0
C43 C 0.50672 0.82664 0.14132 0.0
C44 C 0.46791 0.88192 0.16603 0.0
C45 C 0.46007 0.88517 0.20818 0.0
C46 C 0.49096 0.83312 0.22656 0.0
C47 C 0.52888 0.77756 0.20164 0.0
C48 C 0.53698 0.77441 0.15957 0.0
C49 C 0.81789 0.88826 0.03813 0.0
C50 C 0.85035 0.74625 0.10521 0.0
C51 C 0.01773 0.70418 0.96056 0.0
C52 C 0.04523 0.70988 0.9186 0.0
C53 C 0.10311 0.66189 0.89546 0.0
C54 C 0.12679 0.66546 0.85511 0.0
C55 C 0.09281 0.71715 0.83707 0.0
C56 C 0.03427 0.76502 0.86041 0.0
C57 C 0.01076 0.7614 0.90077 0.0
C58 C 0.71789 0.64932 1.02047 0.0
C59 C 0.69778 0.79996 0.95207 0.0
O60 O 0.5349 0.76923 0.07423 0.0
O61 O 0.57846 0.87024 0.08761 0.0
O62 O 0.83371 0.83527 0.05016 0.0
O63 O 0.72625 0.8971 0.0319 0.0
O64 O 0.91316 0.74451 0.07515 0.0
O65 O 0.75703 0.75689 0.10005 0.0
O66 O 0.0121 0.75795 0.98696 0.0
O67 O 0.94693 0.66449 0.96421 0.0
O68 O 0.70345 0.70081 1.00659 0.0
O69 O 0.80904 0.64143 1.02804 0.0
O70 O 0.63046 0.79687 0.98 0.0
O71 O 0.78989 0.78891 0.95899 0.0
H72 H 0.44493 0.92305 0.15275 0.0
H73 H 0.43118 0.9289 0.22644 0.0
H74 H 0.55121 0.73605 0.21459 0.0
H75 H 0.56767 0.73117 0.14141 0.0
H76 H 0.1295 0.62137 0.90854 0.0
H77 H 0.17085 0.62728 0.83789 0.0
H78 H 0.0078 0.80588 0.84773 0.0
H79 H 0.96573 0.79891 0.91805 0.0
Pr80 Pr 0.15846 0.77676 0.51356 0.0
Pr81 Pr 0.34664 0.83154 0.55228 0.0
C82 C -0.00015 0.74939 0.46713 0.0
C83 C 0.9766 0.74345 0.4236 0.0
C84 C 0.91445 0.69436 0.40554 0.0
C85 C 0.89222 0.6876 0.36424 0.0
C86 C 0.93153 0.73003 0.3401 0.0
C87 C -0.00517 0.7788 0.3583 0.0
C88 C 0.0173 0.78533 0.39958 0.0
C89 C 0.30293 0.68506 0.51949 0.0
C90 C 0.32765 0.83399 0.45636 0.0
C91 C 0.5014 0.85294 0.60136 0.0
C92 C 0.51723 0.84538 0.64411 0.0
C93 C 0.56013 0.89537 0.67143 0.0
C94 C 0.56933 0.89065 0.71259 0.0
C95 C 0.53553 0.8358 0.72732 0.0
C96 C 0.49331 0.78559 0.69975 0.0
C97 C 0.48405 0.79035 0.65867 0.0
C98 C 0.20928 0.92514 0.54341 0.0
C99 C 0.17176 0.77854 0.60911 0.0
O100 O 0.01919 0.80736 0.48671 0.0
O101 O 0.05688 0.70482 0.47702 0.0
O102 O 0.31585 0.73862 0.50824 0.0
O103 O 0.21218 0.67633 0.52761 0.0
O104 O 0.39361 0.83123 0.48459 0.0
O105 O 0.23507 0.82325 0.46282 0.0
O106 O 0.49075 0.79991 0.57471 0.0
O107 O 0.44083 0.89876 0.59598 0.0
O108 O 0.19053 0.87262 0.55561 0.0
O109 O 0.30164 0.93192 0.53743 0.0
O110 O 0.10811 0.78341 0.5806 0.0
O111 O 0.2656 0.78481 0.60261 0.0
H112 H 0.8831 0.66112 0.42343 0.0
H113 H 0.84453 0.64884 0.35118 0.0
H114 H 0.02556 0.81285 0.34089 0.0
H115 H 0.06598 0.82339 0.41276 0.0
H116 H 0.58532 0.93856 0.66104 0.0
H117 H 0.60152 0.93047 0.733 0.0
H118 H 0.46848 0.74213 0.70982 0.0
H119 H 0.4502 0.75108 0.63839 0.0
Pr120 Pr 0.6221 0.24933 0.50931 0.0
Pr121 Pr 0.81044 0.30401 0.54806 0.0
C122 C 0.46727 0.2284 0.46025 0.0
C123 C 0.45159 0.236 0.41749 0.0
C124 C 0.40873 0.18603 0.39013 0.0
C125 C 0.39965 0.19079 0.34898 0.0
C126 C 0.43351 0.24566 0.33428 0.0
C127 C 0.47571 0.29584 0.36189 0.0
C128 C 0.48486 0.29104 0.40296 0.0
C129 C 0.75913 0.15551 0.51797 0.0
C130 C 0.79726 0.30212 0.45249 0.0
C131 C 0.96899 0.33159 0.5945 0.0
C132 C -0.00774 0.33765 0.63804 0.0
C133 C 0.05471 0.38663 0.65599 0.0
C134 C 0.07699 0.3935 0.6973 0.0
C135 C 0.0374 0.3513 0.72153 0.0
C136 C 0.9738 0.30266 0.70343 0.0
C137 C 0.95129 0.29602 0.66214 0.0
C138 C 0.6657 0.39557 0.54198 0.0
C139 C 0.64122 0.24666 0.60521 0.0
O140 O 0.47825 0.2814 0.4869 0.0
O141 O 0.52747 0.18239 0.46564 0.0
O142 O 0.77819 0.20822 0.50605 0.0
O143 O 0.66672 0.14872 0.52383 0.0
O144 O 0.86086 0.29724 0.48102 0.0
O145 O 0.70339 0.2959 0.45897 0.0
O146 O 0.94975 0.27357 0.57497 0.0
O147 O 0.91187 0.37609 0.58457 0.0
O148 O 0.65313 0.34216 0.55345 0.0
O149 O 0.75641 0.4043 0.53378 0.0
O150 O 0.57524 0.24952 0.577 0.0
O151 O 0.73382 0.25739 0.59875 0.0
H152 H 0.38347 0.14284 0.4005 0.0
H153 H 0.36749 0.15099 0.32855 0.0
H154 H 0.50059 0.33931 0.35185 0.0
H155 H 0.51869 0.33029 0.42327 0.0
H156 H 0.08628 0.41968 0.63803 0.0
H157 H 0.12492 0.43216 0.71028 0.0
H158 H 0.94285 0.26878 0.72092 0.0
H159 H 0.90236 0.25805 0.64904 0.0
H160 H 0.52487 0.65659 1.00485 0.0
H161 H 0.73957 0.53725 0.04998 0.0
H162 H 0.61469 0.45954 0.06046 0.0
H163 H 0.44394 0.42524 0.05689 0.0
H164 H 0.22917 0.54461 1.01183 0.0
H165 H 0.35406 0.62232 1.00132 0.0
C166 C 0.54418 0.61356 1.01697 0.0
C167 C 0.64133 0.60266 1.02656 0.0
C168 C 0.47185 0.56902 1.02298 0.0
C169 C 0.66532 0.54672 0.04228 0.0
C170 C 0.59392 0.50223 0.04831 0.0
C171 C 0.4246 0.46829 0.04478 0.0
C172 C 0.32744 0.47919 0.03522 0.0
C173 C 0.49691 0.51283 0.03878 0.0
C174 C 0.30343 0.53514 1.01951 0.0
C175 C 0.37484 0.57963 1.01347 0.0
H176 H 0.28802 0.5675 0.54255 0.0
H177 H 0.49399 0.69631 0.50121 0.0
H178 H 0.62458 0.61828 0.50446 0.0
H179 H 0.68048 0.51305 0.51888 0.0
H180 H 0.47462 0.38426 0.56029 0.0
H181 H 0.34396 0.46226 0.557 0.0
C182 C 0.36151 0.57838 0.53424 0.0
C183 C 0.38134 0.63751 0.52165 0.0
C184 C 0.4363 0.53319 0.53612 0.0
C185 C 0.47688 0.65109 0.51103 0.0
C186 C 0.55162 0.60648 0.51285 0.0
C187 C 0.607 0.50217 0.52719 0.0
C188 C 0.5872 0.44306 0.53981 0.0
C189 C 0.53221 0.54735 0.52532 0.0
C190 C 0.49168 0.42947 0.55045 0.0
C191 C 0.41692 0.47406 0.54861 0.0
H192 H 0.17728 0.07422 0.0424 0.0
H193 H 0.95724 0.20088 1.00806 0.0
H194 H 0.83498 0.11714 1.00913 0.0
H195 H 0.79099 1.00772 1.01952 0.0
H196 H 0.01113 0.88106 0.0538 0.0
H197 H 0.13333 0.96483 0.05277 0.0
C198 C 0.10253 0.08347 0.03517 0.0
C199 C 0.07624 0.14355 1.02509 0.0
C200 C 0.03287 1.03504 0.0357 0.0
C201 C 0.97919 0.15496 1.01587 0.0
C202 C 0.90934 0.10709 1.01643 0.0
C203 C 0.86576 0.99848 1.02674 0.0
C204 C 0.89208 0.93839 0.0368 0.0
C205 C 0.93541 0.04692 1.02621 0.0
C206 C -0.01085 0.92699 0.04601 0.0
C207 C 0.05896 0.97487 0.04547 0.0
H208 H 0.95483 0.15935 0.50711 0.0
H209 H 0.72604 0.0413 0.54312 0.0
H210 H 0.84438 0.95951 0.55445 0.0
H211 H 0.01352 0.92126 0.55432 0.0
H212 H 0.24224 1.0393 0.51824 0.0
H213 H 0.1239 0.12108 0.50694 0.0
C214 C 0.93107 0.11567 0.51739 0.0
C215 C 0.83195 0.10632 0.52417 0.0
C216 C -0.00038 0.06878 0.52396 0.0
C217 C 0.80204 0.04957 0.53757 0.0
C218 C 0.86966 1.00275 0.54412 0.0
C219 C 0.03726 0.96493 0.54403 0.0
C220 C 0.13637 0.97428 0.53723 0.0
C221 C 0.96869 1.01181 0.53745 0.0
C222 C 0.16625 1.03102 0.52381 0.0
C223 C 0.09863 0.07784 0.51728 0.0
H224 H 0.27776 0.21317 0.28573 0.0
H225 H 0.56619 0.29069 0.28439 0.0
H226 H 0.54545 0.30573 0.21392 0.0
H227 H 0.44111 0.30089 0.15299 0.0
H228 H 0.15312 0.22236 0.15608 0.0
H229 H 0.17857 0.20264 0.22477 0.0
C230 C 0.33672 0.23246 0.26989 0.0
C231 C 0.4231 0.2513 0.29057 0.0
C232 C 0.32429 0.2408 0.22939 0.0
C233 C 0.49815 0.27704 0.26954 0.0
C234 C 0.48657 0.28519 0.22907 0.0
C235 C 0.38472 0.27864 0.16857 0.0
C236 C 0.29501 0.2638 0.14947 0.0
C237 C 0.39939 0.26788 0.20872 0.0
C238 C 0.22235 0.23528 0.1702 0.0
C239 C 0.2368 0.22377 0.20957 0.0
H240 H 0.33973 0.88077 0.2757 0.0
H241 H 0.62157 0.79203 0.27836 0.0
H242 H 0.60088 0.78871 0.35074 0.0
H243 H 0.49687 0.80519 0.4128 0.0
H244 H 0.21543 0.8945 0.40854 0.0
H245 H 0.24272 0.90492 0.33796 0.0
C246 C 0.39743 0.8617 0.29219 0.0
C247 C 0.48158 0.83587 0.27137 0.0
C248 C 0.38505 0.86017 0.33381 0.0
C249 C 0.55503 0.81073 0.29335 0.0
C250 C 0.54354 0.80932 0.33488 0.0
C251 C 0.44258 0.82801 0.39657 0.0
C252 C 0.35396 0.8485 0.41582 0.0
C253 C 0.45806 0.83301 0.35539 0.0
C254 C 0.28382 0.87755 0.39429 0.0
C255 C 0.29925 0.88357 0.35386 0.0
H256 H 0.52803 0.78087 0.90868 0.0
H257 H 0.81609 0.85926 0.9055 0.0
H258 H 0.79062 0.87888 0.83679 0.0
H259 H 0.69136 0.86831 0.77584 0.0
H260 H 0.40289 0.79088 0.77728 0.0
H261 H 0.42366 0.77596 0.84776 0.0
C262 C 0.58444 0.80306 0.89308 0.0
C263 C 0.67416 0.81791 0.91216 0.0
C264 C 0.56975 0.81376 0.85292 0.0
C265 C 0.74684 0.84635 0.8914 0.0
C266 C 0.73238 0.85781 0.85202 0.0
C267 C 0.6324 0.84906 0.7917 0.0
C268 C 0.546 0.83022 0.77105 0.0
C269 C 0.64486 0.84078 0.83221 0.0
C270 C 0.47094 0.80454 0.79211 0.0
C271 C 0.48255 0.79645 0.83258 0.0
H272 H 0.47201 0.27553 0.64874 0.0
H273 H 0.75336 0.18611 0.65304 0.0
H274 H 0.72597 0.1757 0.72362 0.0
H275 H 0.62892 0.19993 0.78588 0.0
H276 H 0.34723 0.28886 0.78318 0.0
H277 H 0.36798 0.2921 0.71079 0.0
C278 C 0.52626 0.25269 0.66499 0.0
C279 C 0.61487 0.23215 0.64574 0.0
C280 C 0.51073 0.24771 0.70616 0.0
C281 C 0.68496 0.20309 0.66728 0.0
C282 C 0.66948 0.19708 0.70772 0.0
C283 C 0.57127 0.21903 0.76938 0.0
C284 C 0.48715 0.24493 0.79019 0.0
C285 C 0.58369 0.22052 0.72776 0.0
C286 C 0.41375 0.2701 0.7682 0.0
C287 C 0.42528 0.27146 0.72666 0.0
H288 H 0.74217 0.71503 0.16708 0.0
H289 H 0.03461 0.76014 0.13535 0.0
H290 H 0.08673 0.75677 0.20483 0.0
H291 H 0.04713 0.74597 0.27549 0.0
H292 H 0.75321 0.70212 0.30649 0.0
H293 H 0.70529 0.69735 0.23608 0.0
C294 C 0.8174 0.72397 0.17527 0.0
C295 C 0.88409 0.73857 0.14615 0.0
C296 C 0.84684 0.7219 0.21518 0.0
C297 C 0.98169 0.74888 0.15716 0.0
C298 C 0.01147 0.74722 0.19695 0.0
C299 C 0.97231 0.73603 0.26697 0.0
C300 C 0.90395 0.72487 0.29656 0.0
C301 C 0.94428 0.73481 0.22641 0.0
C302 C 0.80786 0.71036 0.28454 0.0
C303 C 0.77989 0.70838 0.24427 0.0
H304 H 0.6898 0.34826 0.39598 0.0
H305 H 0.97901 0.28432 0.41854 0.0
H306 H 0.0299 0.29895 0.35036 0.0
H307 H -0.00953 0.327 0.28351 0.0
H308 H 0.70022 0.39067 0.26185 0.0
H309 H 0.65288 0.38118 0.33093 0.0
C310 C 0.76399 0.33744 0.38603 0.0
C311 C 0.83018 0.31455 0.4122 0.0
C312 C 0.79279 0.34624 0.34696 0.0
C313 C 0.92652 0.30193 0.39902 0.0
C314 C 0.95559 0.31009 0.35997 0.0
C315 C 0.91654 0.33815 0.29376 0.0
C316 C 0.84902 0.35928 0.26728 0.0
C317 C 0.88899 0.33155 0.3335 0.0
C318 C 0.75413 0.37492 0.28151 0.0
C319 C 0.72654 0.36884 0.32096 0.0
H320 H 0.92172 0.33595 0.78624 0.0
H321 H 0.21592 0.37884 0.75505 0.0
H322 H 0.2639 0.38375 0.82546 0.0
H323 H 0.22696 0.36642 0.89452 0.0
H324 H 0.93425 0.32223 0.92645 0.0
H325 H 0.8821 0.32553 0.85696 0.0
C326 C -0.00339 0.34572 0.79472 0.0
C327 C 0.06503 0.35656 0.76507 0.0
C328 C 0.02468 0.34702 0.83529 0.0
C329 C 0.16122 0.37085 0.77704 0.0
C330 C 0.18922 0.3729 0.81731 0.0
C331 C 0.15166 0.35767 0.88637 0.0
C332 C 0.0849 0.34334 0.91555 0.0
C333 C 0.12221 0.35969 0.84646 0.0
C334 C -0.01277 0.33327 0.90459 0.0
C335 C 0.95742 0.3349 0.8648 0.0
H336 H 0.2794 0.7327 0.6657 0.0
H337 H -0.01004 0.79611 0.64303 0.0
H338 H 0.93915 0.78162 0.71124 0.0
H339 H 0.97871 0.75388 0.77814 0.0
H340 H 0.26918 0.69076 0.79994 0.0
H341 H 0.31647 0.70007 0.73082 0.0
C342 C 0.20517 0.74343 0.67562 0.0
C343 C 0.1389 0.76614 0.64942 0.0
C344 C 0.17643 0.73472 0.71472 0.0
C345 C 0.04252 0.77864 0.66258 0.0
C346 C 0.0135 0.77056 0.70165 0.0
C347 C 0.05268 0.74281 0.76792 0.0
C348 C 0.12028 0.72189 0.79444 0.0
C349 C 0.08018 0.74931 0.72816 0.0
C350 C 0.21522 0.70635 0.78024 0.0
C351 C 0.24277 0.71233 0.74077 0.0
loop_
_geom_bond_atom_site_label_1
_geom_bond_atom_site_label_2
_geom_bond_distance
_geom_bond_site_symmetry_2
_ccdc_geom_bond_type
Pr0 C2 2.880 . S
Pr0 O20 2.562 . S
Pr0 O21 2.490 . S
Pr0 O22 2.695 1_554 S
Pr0 O23 2.512 . S
Pr0 O25 2.437 . S
Pr0 O28 2.436 . S
Pr0 O30 2.438 1_554 S
Pr1 C11 2.880 . S
Pr1 O22 2.436 . S
Pr1 O24 2.438 1_556 S
Pr1 O26 2.562 . S
Pr1 O27 2.490 . S
Pr1 O28 2.695 1_556 S
Pr1 O29 2.512 . S
Pr1 O31 2.437 . S
C2 Pr0 2.880 . S
C2 C3 1.491 . S
C2 O20 1.254 . S
C2 O21 1.225 . S
C3 C2 1.491 . S
C3 C4 1.392 . S
C3 C8 1.356 . S
C4 C3 1.392 . S
C4 C5 1.368 1_455 S
C4 H32 0.929 . S
C5 C4 1.368 1_655 S
C5 C6 1.386 . S
C5 H33 0.929 . S
C6 C5 1.386 . S
C6 C7 1.373 . S
C7 C6 1.373 . S
C7 C8 1.409 1_655 S
C7 H34 0.931 . S
C8 C3 1.356 . S
C8 C7 1.409 1_455 S
C8 H35 0.930 . S
C9 O22 1.270 1_554 S
C9 O23 1.248 . S
C10 O24 1.267 . S
C10 O25 1.278 . S
C11 Pr1 2.880 . S
C11 C12 1.491 . S
C11 O26 1.254 . S
C11 O27 1.225 . S
C12 C11 1.491 . S
C12 C13 1.392 . S
C12 C17 1.356 . S
C13 C12 1.392 . S
C13 C14 1.368 . S
C13 H36 0.929 . S
C14 C13 1.368 . S
C14 C15 1.386 . S
C14 H37 0.929 . S
C15 C14 1.386 . S
C15 C16 1.373 . S
C16 C15 1.373 . S
C16 C17 1.409 . S
C16 H38 0.931 . S
C17 C12 1.356 . S
C17 C16 1.409 . S
C17 H39 0.930 . S
C18 O28 1.270 1_556 S
C18 O29 1.248 . S
C19 O30 1.267 . S
C19 O31 1.278 . S
O20 Pr0 2.562 . S
O20 C2 1.254 . S
O21 Pr0 2.490 . S
O21 C2 1.225 . S
O22 Pr0 2.695 1_556 S
O22 Pr1 2.436 . S
O22 C9 1.270 1_556 S
O23 Pr0 2.512 . S
O23 C9 1.248 . S
O24 Pr1 2.438 1_554 S
O24 C10 1.267 . S
O25 Pr0 2.437 . S
O25 C10 1.278 . S
O26 Pr1 2.562 . S
O26 C11 1.254 . S
O27 Pr1 2.490 . S
O27 C11 1.225 . S
O28 Pr0 2.436 . S
O28 Pr1 2.695 1_554 S
O28 C18 1.270 1_554 S
O29 Pr1 2.512 . S
O29 C18 1.248 . S
O30 Pr0 2.438 1_556 S
O30 C19 1.267 . S
O31 Pr1 2.437 . S
O31 C19 1.278 . S
H32 C4 0.929 . S
H33 C5 0.929 . S
H34 C7 0.931 . S
H35 C8 0.930 . S
H36 C13 0.929 . S
H37 C14 0.929 . S
H38 C16 0.931 . S
H39 C17 0.930 . S
Pr40 C42 2.880 . S
Pr40 O60 2.562 . S
Pr40 O61 2.490 . S
Pr40 O62 2.695 1_554 S
Pr40 O63 2.512 . S
Pr40 O65 2.437 . S
Pr40 O68 2.436 . S
Pr40 O70 2.438 1_554 S
Pr41 C51 2.880 . S
Pr41 O62 2.436 . S
Pr41 O64 2.438 1_556 S
Pr41 O66 2.562 . S
Pr41 O67 2.490 . S
Pr41 O68 2.695 1_556 S
Pr41 O69 2.512 . S
Pr41 O71 2.437 . S
C42 Pr40 2.880 . S
C42 C43 1.491 . S
C42 O60 1.254 . S
C42 O61 1.225 . S
C43 C42 1.491 . S
C43 C44 1.392 . S
C43 C48 1.356 . S
C44 C43 1.392 . S
C44 C45 1.368 . S
C44 H72 0.929 . S
C45 C44 1.368 . S
C45 C46 1.386 . S
C45 H73 0.929 . S
C46 C45 1.386 . S
C46 C47 1.373 . S
C47 C46 1.373 . S
C47 C48 1.409 . S
C47 H74 0.931 . S
C48 C43 1.356 . S
C48 C47 1.409 . S
C48 H75 0.930 . S
C49 O62 1.270 1_554 S
C49 O63 1.248 . S
C50 O64 1.267 . S
C50 O65 1.278 . S
C51 Pr41 2.880 . S
C51 C52 1.491 . S
C51 O66 1.254 . S
C51 O67 1.225 . S
C52 C51 1.491 . S
C52 C53 1.392 . S
C52 C57 1.356 . S
C53 C52 1.392 . S
C53 C54 1.368 1_655 S
C53 H76 0.929 . S
C54 C53 1.368 1_455 S
C54 C55 1.386 . S
C54 H77 0.929 . S
C55 C54 1.386 . S
C55 C56 1.373 . S
C56 C55 1.373 . S
C56 C57 1.409 1_455 S
C56 H78 0.931 . S
C57 C52 1.356 . S
C57 C56 1.409 1_655 S
C57 H79 0.930 . S
C58 O68 1.270 1_556 S
C58 O69 1.248 . S
C59 O70 1.267 . S
C59 O71 1.278 . S
O60 Pr40 2.562 . S
O60 C42 1.254 . S
O61 Pr40 2.490 . S
O61 C42 1.225 . S
O62 Pr40 2.695 1_556 S
O62 Pr41 2.436 . S
O62 C49 1.270 1_556 S
O63 Pr40 2.512 . S
O63 C49 1.248 . S
O64 Pr41 2.438 1_554 S
O64 C50 1.267 . S
O65 Pr40 2.437 . S
O65 C50 1.278 . S
O66 Pr41 2.562 . S
O66 C51 1.254 . S
O67 Pr41 2.490 . S
O67 C51 1.225 . S
O68 Pr40 2.436 . S
O68 Pr41 2.695 1_554 S
O68 C58 1.270 1_554 S
O69 Pr41 2.512 . S
O69 C58 1.248 . S
O70 Pr40 2.438 1_556 S
O70 C59 1.267 . S
O71 Pr41 2.437 . S
O71 C59 1.278 . S
H72 C44 0.929 . S
H73 C45 0.929 . S
H74 C47 0.931 . S
H75 C48 0.930 . S
H76 C53 0.929 . S
H77 C54 0.929 . S
H78 C56 0.931 . S
H79 C57 0.930 . S
Pr80 C82 2.880 . S
Pr80 O100 2.562 . S
Pr80 O101 2.490 . S
Pr80 O102 2.695 . S
Pr80 O103 2.512 . S
Pr80 O105 2.437 . S
Pr80 O108 2.436 . S
Pr80 O110 2.438 . S
Pr81 C91 2.880 . S
Pr81 O102 2.436 . S
Pr81 O104 2.438 . S
Pr81 O106 2.562 . S
Pr81 O107 2.490 . S
Pr81 O108 2.695 . S
Pr81 O109 2.512 . S
Pr81 O111 2.437 . S
C82 Pr80 2.880 . S
C82 C83 1.491 . S
C82 O100 1.254 . S
C82 O101 1.225 . S
C83 C82 1.491 . S
C83 C84 1.392 . S
C83 C88 1.356 . S
C84 C83 1.392 . S
C84 C85 1.368 1_455 S
C84 H112 0.929 . S
C85 C84 1.368 1_655 S
C85 C86 1.386 . S
C85 H113 0.929 . S
C86 C85 1.386 . S
C86 C87 1.373 . S
C87 C86 1.373 . S
C87 C88 1.409 1_655 S
C87 H114 0.931 . S
C88 C83 1.356 . S
C88 C87 1.409 1_455 S
C88 H115 0.930 . S
C89 O102 1.270 . S
C89 O103 1.248 . S
C90 O104 1.267 . S
C90 O105 1.278 . S
C91 Pr81 2.880 . S
C91 C92 1.491 . S
C91 O106 1.254 . S
C91 O107 1.225 . S
C92 C91 1.491 . S
C92 C93 1.392 . S
C92 C97 1.356 . S
C93 C92 1.392 . S
C93 C94 1.368 . S
C93 H116 0.929 . S
C94 C93 1.368 . S
C94 C95 1.386 . S
C94 H117 0.929 . S
C95 C94 1.386 . S
C95 C96 1.373 . S
C96 C95 1.373 . S
C96 C97 1.409 . S
C96 H118 0.931 . S
C97 C92 1.356 . S
C97 C96 1.409 . S
C97 H119 0.930 . S
C98 O108 1.270 . S
C98 O109 1.248 . S
C99 O110 1.267 . S
C99 O111 1.278 . S
O100 Pr80 2.562 . S
O100 C82 1.254 . S
O101 Pr80 2.490 . S
O101 C82 1.225 . S
O102 Pr80 2.695 . S
O102 Pr81 2.436 . S
O102 C89 1.270 . S
O103 Pr80 2.512 . S
O103 C89 1.248 . S
O104 Pr81 2.438 . S
O104 C90 1.267 . S
O105 Pr80 2.437 . S
O105 C90 1.278 . S
O106 Pr81 2.562 . S
O106 C91 1.254 . S
O107 Pr81 2.490 . S
O107 C91 1.225 . S
O108 Pr80 2.436 . S
O108 Pr81 2.695 . S
O108 C98 1.270 . S
O109 Pr81 2.512 . S
O109 C98 1.248 . S
O110 Pr80 2.438 . S
O110 C99 1.267 . S
O111 Pr81 2.437 . S
O111 C99 1.278 . S
H112 C84 0.929 . S
H113 C85 0.929 . S
H114 C87 0.931 . S
H115 C88 0.930 . S
H116 C93 0.929 . S
H117 C94 0.929 . S
H118 C96 0.931 . S
H119 C97 0.930 . S
Pr120 C122 2.880 . S
Pr120 O140 2.562 . S
Pr120 O141 2.490 . S
Pr120 O142 2.695 . S
Pr120 O143 2.512 . S
Pr120 O145 2.437 . S
Pr120 O148 2.436 . S
Pr120 O150 2.438 . S
Pr121 C131 2.880 . S
Pr121 O142 2.436 . S
Pr121 O144 2.438 . S
Pr121 O146 2.562 . S
Pr121 O147 2.490 . S
Pr121 O148 2.695 . S
Pr121 O149 2.512 . S
Pr121 O151 2.437 . S
C122 Pr120 2.880 . S
C122 C123 1.491 . S
C122 O140 1.254 . S
C122 O141 1.225 . S
C123 C122 1.491 . S
C123 C124 1.392 . S
C123 C128 1.356 . S
C124 C123 1.392 . S
C124 C125 1.368 . S
C124 H152 0.929 . S
C125 C124 1.368 . S
C125 C126 1.386 . S
C125 H153 0.929 . S
C126 C125 1.386 . S
C126 C127 1.373 . S
C127 C126 1.373 . S
C127 C128 1.409 . S
C127 H154 0.931 . S
C128 C123 1.356 . S
C128 C127 1.409 . S
C128 H155 0.930 . S
C129 O142 1.270 . S
C129 O143 1.248 . S
C130 O144 1.267 . S
C130 O145 1.278 . S
C131 Pr121 2.880 . S
C131 C132 1.491 . S
C131 O146 1.254 . S
C131 O147 1.225 . S
C132 C131 1.491 . S
C132 C133 1.392 . S
C132 C137 1.356 . S
C133 C132 1.392 . S
C133 C134 1.368 1_655 S
C133 H156 0.929 . S
C134 C133 1.368 1_455 S
C134 C135 1.386 . S
C134 H157 0.929 . S
C135 C134 1.386 . S
C135 C136 1.373 . S
C136 C135 1.373 . S
C136 C137 1.409 1_455 S
C136 H158 0.931 . S
C137 C132 1.356 . S
C137 C136 1.409 1_655 S
C137 H159 0.930 . S
C138 O148 1.270 . S
C138 O149 1.248 . S
C139 O150 1.267 . S
C139 O151 1.278 . S
O140 Pr120 2.562 . S
O140 C122 1.254 . S
O141 Pr120 2.490 . S
O141 C122 1.225 . S
O142 Pr120 2.695 . S
O142 Pr121 2.436 . S
O142 C129 1.270 . S
O143 Pr120 2.512 . S
O143 C129 1.248 . S
O144 Pr121 2.438 . S
O144 C130 1.267 . S
O145 Pr120 2.437 . S
O145 C130 1.278 . S
O146 Pr121 2.562 . S
O146 C131 1.254 . S
O147 Pr121 2.490 . S
O147 C131 1.225 . S
O148 Pr120 2.436 . S
O148 Pr121 2.695 . S
O148 C138 1.270 . S
O149 Pr121 2.512 . S
O149 C138 1.248 . S
O150 Pr120 2.438 . S
O150 C139 1.267 . S
O151 Pr121 2.437 . S
O151 C139 1.278 . S
H152 C124 0.929 . S
H153 C125 0.929 . S
H154 C127 0.931 . S
H155 C128 0.930 . S
H156 C133 0.929 . S
H157 C134 0.929 . S
H158 C136 0.931 . S
H159 C137 0.930 . S
H160 C166 0.930 . S
H161 C169 0.930 . S
H162 C170 0.930 . S
H163 C171 0.930 . S
H164 C174 0.930 . S
H165 C175 0.930 . S
C166 H160 0.930 . S
C166 C167 1.355 1_556 S
C166 C168 1.415 . S
C167 C166 1.355 1_554 S
C167 C169 1.419 . S
C168 C166 1.415 . S
C168 C173 1.425 1_556 S
C168 C175 1.409 . S
C169 H161 0.930 . S
C169 C167 1.419 . S
C169 C170 1.362 . S
C170 H162 0.930 . S
C170 C169 1.362 . S
C170 C173 1.409 . S
C171 H163 0.930 . S
C171 C172 1.355 1_554 S
C171 C173 1.415 . S
C172 C171 1.355 1_556 S
C172 C174 1.419 . S
C173 C168 1.425 1_554 S
C173 C170 1.409 . S
C173 C171 1.415 . S
C174 H164 0.930 . S
C174 C172 1.419 . S
C174 C175 1.362 . S
C175 H165 0.930 . S
C175 C168 1.409 . S
C175 C174 1.362 . S
H176 C182 0.930 . S
H177 C185 0.930 . S
H178 C186 0.930 . S
H179 C187 0.930 . S
H180 C190 0.930 . S
H181 C191 0.930 . S
C182 H176 0.930 . S
C182 C183 1.355 . S
C182 C184 1.415 . S
C183 C182 1.355 . S
C183 C185 1.419 . S
C184 C182 1.415 . S
C184 C189 1.425 . S
C184 C191 1.409 . S
C185 H177 0.930 . S
C185 C183 1.419 . S
C185 C186 1.362 . S
C186 H178 0.930 . S
C186 C185 1.362 . S
C186 C189 1.409 . S
C187 H179 0.930 . S
C187 C188 1.355 . S
C187 C189 1.415 . S
C188 C187 1.355 . S
C188 C190 1.419 . S
C189 C184 1.425 . S
C189 C186 1.409 . S
C189 C187 1.415 . S
C190 H180 0.930 . S
C190 C188 1.419 . S
C190 C191 1.362 . S
C191 H181 0.930 . S
C191 C184 1.409 . S
C191 C190 1.362 . S
H192 C198 0.930 . S
H193 C201 0.930 . S
H194 C202 0.930 . S
H195 C203 0.930 . S
H196 C206 0.930 . S
H197 C207 0.930 . S
C198 H192 0.930 . S
C198 C199 1.355 1_554 S
C198 C200 1.415 . S
C199 C198 1.355 1_556 S
C199 C201 1.419 . S
C200 C198 1.415 . S
C200 C205 1.425 1_444 S
C200 C207 1.409 1_545 S
C201 H193 0.930 . S
C201 C199 1.419 . S
C201 C202 1.362 1_455 S
C202 H194 0.930 . S
C202 C201 1.362 1_655 S
C202 C205 1.409 1_545 S
C203 H195 0.930 . S
C203 C204 1.355 1_556 S
C203 C205 1.415 . S
C204 C203 1.355 1_554 S
C204 C206 1.419 . S
C205 C200 1.425 1_666 S
C205 C202 1.409 1_565 S
C205 C203 1.415 . S
C206 H196 0.930 . S
C206 C204 1.419 . S
C206 C207 1.362 1_655 S
C207 H197 0.930 . S
C207 C200 1.409 1_565 S
C207 C206 1.362 1_455 S
H208 C214 0.930 1_455 S
H209 C217 0.930 . S
H210 C218 0.930 . S
H211 C219 0.930 1_655 S
H212 C222 0.930 . S
H213 C223 0.930 . S
C214 H208 0.930 1_655 S
C214 C215 1.355 . S
C214 C216 1.415 1_655 S
C215 C214 1.355 . S
C215 C217 1.419 . S
C216 C214 1.415 1_455 S
C216 C221 1.425 1_445 S
C216 C223 1.409 . S
C217 H209 0.930 . S
C217 C215 1.419 . S
C217 C218 1.362 1_545 S
C218 H210 0.930 . S
C218 C217 1.362 1_565 S
C218 C221 1.409 . S
C219 H211 0.930 1_455 S
C219 C220 1.355 . S
C219 C221 1.415 1_455 S
C220 C219 1.355 . S
C220 C222 1.419 . S
C221 C216 1.425 1_665 S
C221 C218 1.409 . S
C221 C219 1.415 1_655 S
C222 H212 0.930 . S
C222 C220 1.419 . S
C222 C223 1.362 1_565 S
C223 H213 0.930 . S
C223 C216 1.409 . S
C223 C222 1.362 1_545 S
H224 C230 0.930 . S
H225 C233 0.930 . S
H226 C234 0.930 . S
H227 C235 0.930 . S
H228 C238 0.930 . S
H229 C239 0.930 . S
C230 H224 0.930 . S
C230 C231 1.355 . S
C230 C232 1.415 . S
C231 C230 1.355 . S
C231 C233 1.419 . S
C232 C230 1.415 . S
C232 C237 1.425 . S
C232 C239 1.409 . S
C233 H225 0.930 . S
C233 C231 1.419 . S
C233 C234 1.362 . S
C234 H226 0.930 . S
C234 C233 1.362 . S
C234 C237 1.409 . S
C235 H227 0.930 . S
C235 C236 1.355 . S
C235 C237 1.415 . S
C236 C235 1.355 . S
C236 C238 1.419 . S
C237 C232 1.425 . S
C237 C234 1.409 . S
C237 C235 1.415 . S
C238 H228 0.930 . S
C238 C236 1.419 . S
C238 C239 1.362 . S
C239 H229 0.930 . S
C239 C232 1.409 . S
C239 C238 1.362 . S
H240 C246 0.930 . S
H241 C249 0.930 . S
H242 C250 0.930 . S
H243 C251 0.930 . S
H244 C254 0.930 . S
H245 C255 0.930 . S
C246 H240 0.930 . S
C246 C247 1.355 . S
C246 C248 1.415 . S
C247 C246 1.355 . S
C247 C249 1.419 . S
C248 C246 1.415 . S
C248 C253 1.425 . S
C248 C255 1.409 . S
C249 H241 0.930 . S
C249 C247 1.419 . S
C249 C250 1.362 . S
C250 H242 0.930 . S
C250 C249 1.362 . S
C250 C253 1.409 . S
C251 H243 0.930 . S
C251 C252 1.355 . S
C251 C253 1.415 . S
C252 C251 1.355 . S
C252 C254 1.419 . S
C253 C248 1.425 . S
C253 C250 1.409 . S
C253 C251 1.415 . S
C254 H244 0.930 . S
C254 C252 1.419 . S
C254 C255 1.362 . S
C255 H245 0.930 . S
C255 C248 1.409 . S
C255 C254 1.362 . S
H256 C262 0.930 . S
H257 C265 0.930 . S
H258 C266 0.930 . S
H259 C267 0.930 . S
H260 C270 0.930 . S
H261 C271 0.930 . S
C262 H256 0.930 . S
C262 C263 1.355 . S
C262 C264 1.415 . S
C263 C262 1.355 . S
C263 C265 1.419 . S
C264 C262 1.415 . S
C264 C269 1.425 . S
C264 C271 1.409 . S
C265 H257 0.930 . S
C265 C263 1.419 . S
C265 C266 1.362 . S
C266 H258 0.930 . S
C266 C265 1.362 . S
C266 C269 1.409 . S
C267 H259 0.930 . S
C267 C268 1.355 . S
C267 C269 1.415 . S
C268 C267 1.355 . S
C268 C270 1.419 . S
C269 C264 1.425 . S
C269 C266 1.409 . S
C269 C267 1.415 . S
C270 H260 0.930 . S
C270 C268 1.419 . S
C270 C271 1.362 . S
C271 H261 0.930 . S
C271 C264 1.409 . S
C271 C270 1.362 . S
H272 C278 0.930 . S
H273 C281 0.930 . S
H274 C282 0.930 . S
H275 C283 0.930 . S
H276 C286 0.930 . S
H277 C287 0.930 . S
C278 H272 0.930 . S
C278 C279 1.355 . S
C278 C280 1.415 . S
C279 C278 1.355 . S
C279 C281 1.419 . S
C280 C278 1.415 . S
C280 C285 1.425 . S
C280 C287 1.409 . S
C281 H273 0.930 . S
C281 C279 1.419 . S
C281 C282 1.362 . S
C282 H274 0.930 . S
C282 C281 1.362 . S
C282 C285 1.409 . S
C283 H275 0.930 . S
C283 C284 1.355 . S
C283 C285 1.415 . S
C284 C283 1.355 . S
C284 C286 1.419 . S
C285 C280 1.425 . S
C285 C282 1.409 . S
C285 C283 1.415 . S
C286 H276 0.930 . S
C286 C284 1.419 . S
C286 C287 1.362 . S
C287 H277 0.930 . S
C287 C280 1.409 . S
C287 C286 1.362 . S
H288 C294 0.930 . S
H289 C297 0.930 . S
H290 C298 0.930 . S
H291 C299 0.930 . S
H292 C302 0.930 . S
H293 C303 0.930 . S
C294 H288 0.930 . S
C294 C295 1.355 . S
C294 C296 1.415 . S
C295 C294 1.355 . S
C295 C297 1.419 . S
C296 C294 1.415 . S
C296 C301 1.425 . S
C296 C303 1.409 . S
C297 H289 0.930 . S
C297 C295 1.419 . S
C297 C298 1.362 . S
C298 H290 0.930 . S
C298 C297 1.362 . S
C298 C301 1.409 . S
C299 H291 0.930 . S
C299 C300 1.355 . S
C299 C301 1.415 . S
C300 C299 1.355 . S
C300 C302 1.419 . S
C301 C296 1.425 . S
C301 C298 1.409 . S
C301 C299 1.415 . S
C302 H292 0.930 . S
C302 C300 1.419 . S
C302 C303 1.362 . S
C303 H293 0.930 . S
C303 C296 1.409 . S
C303 C302 1.362 . S
H304 C310 0.930 . S
H305 C313 0.930 . S
H306 C314 0.935 . S
H307 C315 0.930 1_455 S
H308 C318 0.930 . S
H309 C319 0.930 . S
C310 H304 0.930 . S
C310 C311 1.355 . S
C310 C312 1.415 . S
C311 C310 1.355 . S
C311 C313 1.419 . S
C312 C310 1.415 . S
C312 C317 1.425 . S
C312 C319 1.409 . S
C313 H305 0.930 . S
C313 C311 1.419 . S
C313 C314 1.362 . S
C314 H306 0.935 . S
C314 C313 1.362 . S
C314 C317 1.409 . S
C315 H307 0.930 1_655 S
C315 C316 1.355 . S
C315 C317 1.415 . S
C316 C315 1.355 . S
C316 C318 1.419 . S
C317 C312 1.425 . S
C317 C314 1.409 . S
C317 C315 1.415 . S
C318 H308 0.930 . S
C318 C316 1.419 . S
C318 C319 1.362 . S
C319 H309 0.930 . S
C319 C312 1.409 . S
C319 C318 1.362 . S
H320 C326 0.930 1_655 S
H321 C329 0.930 . S
H322 C330 0.930 . S
H323 C331 0.930 . S
H324 C334 0.930 . S
H325 C335 0.930 1_655 S
C326 H320 0.930 1_455 S
C326 C327 1.355 . S
C326 C328 1.415 . S
C327 C326 1.355 . S
C327 C329 1.419 . S
C328 C326 1.415 . S
C328 C333 1.425 . S
C328 C335 1.409 . S
C329 H321 0.930 . S
C329 C327 1.419 . S
C329 C330 1.362 . S
C330 H322 0.930 . S
C330 C329 1.362 . S
C330 C333 1.409 . S
C331 H323 0.930 . S
C331 C332 1.355 . S
C331 C333 1.415 . S
C332 C331 1.355 . S
C332 C334 1.419 . S
C333 C328 1.425 . S
C333 C330 1.409 . S
C333 C331 1.415 . S
C334 H324 0.930 . S
C334 C332 1.419 . S
C334 C335 1.362 . S
C335 H325 0.930 1_455 S
C335 C328 1.409 . S
C335 C334 1.362 . S
H336 C342 0.930 . S
H337 C345 0.930 1_655 S
H338 C346 0.930 . S
H339 C347 0.930 1_655 S
H340 C350 0.930 . S
H341 C351 0.930 . S
C342 H336 0.930 . S
C342 C343 1.355 . S
C342 C344 1.415 . S
C343 C342 1.355 . S
C343 C345 1.419 . S
C344 C342 1.415 . S
C344 C349 1.425 . S
C344 C351 1.409 . S
C345 H337 0.930 1_455 S
C345 C343 1.419 . S
C345 C346 1.362 1_455 S
C346 H338 0.930 . S
C346 C345 1.362 1_655 S
C346 C349 1.409 1_655 S
C347 H339 0.930 1_455 S
C347 C348 1.355 . S
C347 C349 1.415 . S
C348 C347 1.355 . S
C348 C350 1.419 . S
C349 C344 1.425 . S
C349 C346 1.409 1_455 S
C349 C347 1.415 . S
C350 H340 0.930 . S
C350 C348 1.419 . S
C350 C351 1.362 . S
C351 H341 0.930 . S
C351 C344 1.409 . S
C351 C350 1.362 . S
C167 C58 1.531 1_554 S
C172 C9 1.531 1_556 S
C183 C89 1.541 . S
C188 C138 1.541 . S
C199 C18 1.512 . S
C204 C49 1.512 . S
C215 C129 1.504 . S
C220 C98 1.504 . S
C231 C126 1.295 . S
C236 C10 1.342 . S
C247 C46 1.298 . S
C252 C90 1.338 . S
C263 C59 1.332 . S
C268 C95 1.319 . S
C279 C139 1.337 . S
C284 C15 1.307 . S
C295 C50 1.328 . S
C300 C86 1.336 . S
C311 C130 1.330 . S
C316 C6 1.344 . S
C327 C135 1.349 . S
C332 C19 1.335 . S
C343 C99 1.347 . S
C348 C55 1.336 . S
