# Generated by pormake.
# Topology sxb, (6)-cn, num edge types: 1
# Building blocks:
#     Node 0, Type 0, BuildingBlock: KUMJIN_clean_sbu_1, # of connection points: 6
#     Node 1, Type 0, BuildingBlock: KUMJIN_clean_sbu_1, # of connection points: 6
#     Node 2, Type 0, BuildingBlock: KUMJIN_clean_sbu_1, # of connection points: 6
#     Node 3, Type 0, BuildingBlock: KUMJIN_clean_sbu_1, # of connection points: 6
#     Edge 4, Type (0, 0), BuildingBlock: EZIPEK_clean_linker_0, # of connection points: 2
#     Edge 5, Type (0, 0), BuildingBlock: EZIPEK_clean_linker_0, # of connection points: 2
#     Edge 6, Type (0, 0), BuildingBlock: EZIPEK_clean_linker_0, # of connection points: 2
#     Edge 7, Type (0, 0), BuildingBlock: EZIPEK_clean_linker_0, # of connection points: 2
#     Edge 8, Type (0, 0), BuildingBlock: EZIPEK_clean_linker_0, # of connection points: 2
#     Edge 9, Type (0, 0), BuildingBlock: EZIPEK_clean_linker_0, # of connection points: 2
#     Edge 10, Type (0, 0), BuildingBlock: EZIPEK_clean_linker_0, # of connection points: 2
#     Edge 11, Type (0, 0), BuildingBlock: EZIPEK_clean_linker_0, # of connection points: 2
#     Edge 12, Type (0, 0), BuildingBlock: EZIPEK_clean_linker_0, # of connection points: 2
#     Edge 13, Type (0, 0), BuildingBlock: EZIPEK_clean_linker_0, # of connection points: 2
#     Edge 14, Type (0, 0), BuildingBlock: EZIPEK_clean_linker_0, # of connection points: 2
#     Edge 15, Type (0, 0), BuildingBlock: EZIPEK_clean_linker_0, # of connection points: 2
# Relax obj value: 0.021
# Max RMSD: 0.072
# Mean RMSD: 0.072
data_MOF--net-sxb--node1-KUMJIN_clean_sbu_1--edge1-EZIPEK_clean_linker_0
_symmetry_space_group_name_H-M    P1
_symmetry_Int_Tables_number       1
_symmetry_cell_setting            triclinic
loop_
_symmetry_equiv_pos_as_xyz
'x, y, z'
_cell_length_a     11.160554
_cell_length_b     40.638644
_cell_length_c     21.47406
_cell_angle_alpha  114.91214
_cell_angle_beta   90.109661
_cell_angle_gamma 89.836541
loop_
_atom_site_label
_atom_site_type_symbol
_atom_site_fract_x
_atom_site_fract_y
_atom_site_fract_z
_atom_type_partial_charge
Eu0 Eu 0.04405 0.94319 0.92634 0.0
C1 C 0.15762 0.0826 0.19021 0.0
N2 N 0.04814 0.0749 0.15973 0.0
C3 C 0.95513 0.08995 0.26896 0.0
C4 C 0.17061 0.09211 0.26108 0.0
C5 C 0.9469 0.08105 0.19871 0.0
C6 C 0.06773 0.09452 0.29998 0.0
C7 C 0.36712 0.09662 0.18368 0.0
C8 C 0.25491 0.08484 0.152 0.0
C9 C 0.3827 0.10312 0.25283 0.0
C10 C 0.28458 0.10083 0.29148 0.0
Eu11 Eu 0.04881 0.05396 0.03857 0.0
N12 N 0.23719 0.07855 0.08535 0.0
C13 C 0.45887 0.10289 0.14562 0.0
C14 C 0.32242 0.08792 0.05007 0.0
C15 C 0.43567 0.09925 0.07901 0.0
H16 H 0.85999 0.07837 0.17528 0.0
H17 H 0.50511 0.10483 0.04973 0.0
H18 H 0.07698 0.92616 0.75865 0.0
H19 H 0.73053 0.88469 0.04563 0.0
H20 H 0.30454 0.08454 0.9982 0.0
H21 H 0.54672 0.11154 0.16796 0.0
H22 H 0.91065 0.9188 0.03946 0.0
H23 H 0.87465 0.09344 0.29906 0.0
H24 H 0.46899 0.11144 0.27767 0.0
H25 H 0.29666 0.10749 0.34555 0.0
H26 H 0.96165 0.89689 0.6508 0.0
H27 H 0.07394 0.10169 0.35452 0.0
H28 H 0.5987 0.85643 0.94401 0.0
N29 N 0.94832 0.91381 0.81867 0.0
C30 C 0.84587 0.89575 0.81874 0.0
C31 C 0.92779 0.89658 0.69776 0.0
C32 C 0.77916 0.8778 0.75789 0.0
C33 C 0.9923 0.91334 0.75896 0.0
C34 C 0.82039 0.87891 0.69727 0.0
N35 N 0.87581 0.91134 0.9372 0.0
C36 C 0.8521 0.90689 0.99547 0.0
C37 C 0.70645 0.87432 0.8803 0.0
C38 C 0.80909 0.89426 0.87944 0.0
C39 C 0.67685 0.87154 0.94131 0.0
C40 C 0.75095 0.88749 0.99885 0.0
H41 H 0.77143 0.86556 0.64954 0.0
H42 H 0.62134 0.84553 0.71313 0.0
H43 H 0.5586 0.842 0.81994 0.0
O44 O 0.13436 0.90837 0.96656 0.0
O45 O 0.86077 0.9674 0.96797 0.0
O46 O 0.86325 0.02982 0.99804 0.0
O47 O 0.13567 0.89362 0.85727 0.0
O48 O 0.09492 0.97206 0.0383 0.0
O49 O 0.96444 0.01848 0.0844 0.0
O50 O 0.96983 0.08507 0.98619 0.0
O51 O 0.22822 0.02305 0.01366 0.0
O52 O 0.2213 0.96772 0.91824 0.0
O53 O 1.0252 0.11272 0.0915 0.0
O54 O 0.11896 0.03499 0.93102 0.0
O55 O 1.02969 0.97906 0.86844 0.0
C56 C 0.80726 0.99825 0.97805 0.0
C57 C 0.13654 0.8457 0.89346 0.0
C58 C 0.18033 0.79313 0.91718 0.0
C59 C 0.08505 0.77439 0.87433 0.0
C60 C 0.0424 0.82631 0.85006 0.0
C61 C 1.0168 0.79091 0.84083 0.0
C62 C 0.20591 0.82882 0.92659 0.0
C63 C 1.0198 0.9906 0.08702 0.0
C64 C 0.1623 0.88362 0.90596 0.0
C65 C 0.6743 0.85909 0.75924 0.0
C66 C 0.63833 0.8572 0.82015 0.0
C67 C 0.28119 0.99434 0.9658 0.0
C68 C 0.87188 0.1406 0.05439 0.0
C69 C 0.77622 0.19332 0.04808 0.0
C70 C 0.68346 0.1912 0.09018 0.0
C71 C 0.77766 0.13868 0.09593 0.0
C72 C 0.87029 0.16782 0.03003 0.0
C73 C 0.68436 0.16403 0.11387 0.0
C74 C 0.07451 0.01022 0.87405 0.0
C75 C 0.97601 0.11606 0.03961 0.0
H76 H 0.06406 0.74693 0.86664 0.0
H77 H 0.98854 0.83841 0.8233 0.0
H78 H 0.94363 0.77626 0.80772 0.0
H79 H 0.27895 0.84346 0.9601 0.0
H80 H 0.61097 0.2108 0.10513 0.0
H81 H 0.77738 0.11802 0.11534 0.0
H82 H 0.94332 0.16975 0.99851 0.0
H83 H 0.61309 0.16301 0.14702 0.0
Eu84 Eu 0.04673 0.06696 0.52861 0.0
C85 C 0.23112 0.90939 0.33187 0.0
N86 N 0.12059 0.92443 0.33612 0.0
C87 C 0.11211 0.90166 0.21329 0.0
C88 C 0.28854 0.89121 0.26778 0.0
C89 C 0.05801 0.91889 0.27774 0.0
C90 C 0.22872 0.88834 0.20838 0.0
C91 C 0.39793 0.8942 0.38805 0.0
C92 C 0.28595 0.91106 0.39146 0.0
C93 C 0.45695 0.87731 0.32466 0.0
C94 C 0.40251 0.87586 0.26474 0.0
Eu95 Eu 1.04089 0.95408 0.44851 0.0
N96 N 0.22756 0.92771 0.45232 0.0
C97 C 0.44573 0.8939 0.44819 0.0
C98 C 0.2689 0.925 0.50997 0.0
C99 C 0.37995 0.90883 0.50915 0.0
H100 H 0.96578 0.92754 0.28044 0.0
H101 H 0.41454 0.90777 0.55539 0.0
H102 H 0.0749 0.09065 0.70048 0.0
H103 H 0.71143 0.10835 0.39082 0.0
H104 H 0.21734 0.93649 0.55695 0.0
H105 H 0.53158 0.88126 0.44762 0.0
H106 H 0.89888 0.07914 0.40437 0.0
H107 H 0.06331 0.8983 0.16739 0.0
H108 H 0.54364 0.86458 0.3212 0.0
H109 H 0.44816 0.86207 0.21603 0.0
H110 H 0.95639 0.12229 0.80525 0.0
H111 H 0.27016 0.87482 0.15831 0.0
H112 H 0.58162 0.14099 0.49153 0.0
N113 N 0.94386 0.09714 0.63405 0.0
C114 C 0.84104 0.11448 0.63047 0.0
C115 C 0.92204 0.11981 0.75629 0.0
C116 C 0.77204 0.13385 0.68986 0.0
C117 C 0.98777 0.10107 0.69625 0.0
C118 C 0.81304 0.1359 0.75301 0.0
N119 N 0.87152 0.09403 0.5105 0.0
C120 C 0.84163 0.09303 0.44816 0.0
C121 C 0.69724 0.13026 0.56203 0.0
C122 C 0.80422 0.11305 0.56727 0.0
C123 C 0.66333 0.12817 0.49763 0.0
C124 C 0.73629 0.10969 0.44057 0.0
H125 H 0.76267 0.15053 0.79971 0.0
H126 H 0.61031 0.16536 0.72955 0.0
H127 H 0.54473 0.16213 0.6178 0.0
O128 O 0.10212 0.11048 0.50051 0.0
O129 O 0.85882 0.04115 0.50613 0.0
O130 O 0.85368 0.97786 0.46159 0.0
O131 O 0.16303 0.11076 0.59619 0.0
O132 O 0.07272 0.03814 0.41424 0.0
O133 O 0.97632 0.98305 0.38336 0.0
O134 O 0.97633 0.92172 0.5013 0.0
O135 O 0.21858 0.98385 0.49074 0.0
O136 O 0.21263 0.0358 0.47268 0.0
O137 O 0.95956 0.90076 0.39142 0.0
O138 O 0.99996 0.98549 0.56051 0.0
O139 O 0.10786 0.03864 0.59472 0.0
C140 C 0.80079 0.00985 0.48368 0.0
C141 C 0.14706 0.16769 0.58963 0.0
C142 C 0.19575 0.22658 0.59139 0.0
C143 C 0.12627 0.24368 0.65086 0.0
C144 C 0.07725 0.18513 0.64896 0.0
C145 C 0.06699 0.22296 0.67928 0.0
C146 C 0.20565 0.18858 0.56088 0.0
C147 C 1.02949 1.00763 0.36794 0.0
C148 C 0.16175 0.12796 0.55689 0.0
C149 C 0.66486 0.15071 0.68458 0.0
C150 C 0.62751 0.14889 0.62091 0.0
C151 C 0.27253 0.01046 0.48217 0.0
C152 C 0.98473 0.85805 0.43931 0.0
C153 C 0.95636 0.80698 0.46957 0.0
C154 C 0.05695 0.78982 0.43004 0.0
C155 C 0.08466 0.84031 0.39955 0.0
C156 C 0.92069 0.84121 0.47434 0.0
C157 C 0.12062 0.80646 0.39522 0.0
C158 C 0.05133 0.01393 0.60804 0.0
C159 C 0.94638 0.89403 0.44515 0.0
H160 H 0.11789 0.27296 0.67504 0.0
H161 H 1.03133 0.16964 0.67205 0.0
H162 H 1.01325 0.23627 0.72509 0.0
H163 H 0.25975 0.17534 0.51505 0.0
H164 H 0.08553 0.76347 0.42586 0.0
H165 H 0.13464 0.85247 0.37161 0.0
H166 H 0.84323 0.85459 0.50507 0.0
H167 H 0.19783 0.793 0.36454 0.0
Eu168 Eu 0.52653 0.45139 0.95818 0.0
C169 C 0.59129 0.60527 0.21421 0.0
N170 N 0.49673 0.5885 0.1732 0.0
C171 C 0.37581 0.59914 0.27195 0.0
C172 C 0.58216 0.61891 0.2863 0.0
C173 C 0.38868 0.58651 0.20085 0.0
C174 C 0.47332 0.61509 0.31487 0.0
C175 C 0.79404 0.62855 0.22556 0.0
C176 C 0.69643 0.60973 0.18408 0.0
C177 C 0.78624 0.64139 0.29727 0.0
C178 C 0.68073 0.63649 0.32755 0.0
Eu179 Eu 0.53154 0.56451 0.05385 0.0
N180 N 0.70171 0.59702 0.11456 0.0
C181 C 0.89574 0.63464 0.19385 0.0
C182 C 0.79787 0.60479 0.08378 0.0
C183 C 0.89694 0.62313 0.12275 0.0
H184 H 0.31235 0.57535 0.16821 0.0
H185 H 0.97395 0.62851 0.09794 0.0
H186 H 0.77013 0.42945 0.85489 0.0
H187 H 0.07743 0.3928 0.89613 0.0
H188 H 0.79893 0.59662 0.02892 0.0
H189 H 0.97253 0.64895 0.22392 0.0
H190 H 0.24895 0.42201 0.97208 0.0
H191 H 0.29044 0.59683 0.29354 0.0
H192 H 0.8606 0.6557 0.32985 0.0
H193 H 0.67546 0.64703 0.383 0.0
H194 H 0.81435 0.40243 0.73037 0.0
H195 H 0.46287 0.62519 0.36998 0.0
H196 H 0.09808 0.37077 0.77015 0.0
N197 N 0.58213 0.422 0.84089 0.0
C198 C 0.49133 0.40664 0.7958 0.0
C199 C 0.72297 0.40372 0.74803 0.0
C200 C 0.51203 0.39117 0.72441 0.0
C201 C 0.69795 0.41876 0.81836 0.0
C202 C 0.6292 0.39064 0.70077 0.0
N203 N 0.36249 0.41878 0.8902 0.0
C204 C 0.2583 0.41276 0.91712 0.0
C205 C 0.28354 0.38745 0.77575 0.0
C206 C 0.37838 0.40485 0.82117 0.0
C207 C 0.17333 0.38379 0.80327 0.0
C208 C 0.16133 0.39604 0.87426 0.0
H209 H 0.6487 0.37917 0.6463 0.0
H210 H 0.42963 0.36483 0.62422 0.0
H211 H 0.23013 0.36081 0.66883 0.0
O212 O 0.63345 0.43015 0.01887 0.0
O213 O 0.34148 0.48025 0.98132 0.0
O214 O 0.34063 0.54369 0.0422 0.0
O215 O 0.51616 0.39427 0.94087 0.0
O216 O 0.44628 0.48198 0.06294 0.0
O217 O 0.56873 0.531 0.1148 0.0
O218 O 0.56309 0.60136 0.00508 0.0
O219 O 0.7058 0.53741 1.00321 0.0
O220 O 0.71039 0.47811 0.99439 0.0
O221 O 0.42032 0.61278 0.0795 0.0
O222 O 0.47113 0.5294 0.94526 0.0
O223 O 0.593 0.48103 0.89579 0.0
C224 C 0.28606 0.51218 0.01081 0.0
C225 C 0.68968 0.36818 0.96472 0.0
C226 C 0.77044 0.31206 0.96441 0.0
C227 C 0.86446 0.31313 0.92206 0.0
C228 C 0.78541 0.36891 0.9231 0.0
C229 C 0.87147 0.34134 0.90137 0.0
C230 C 0.68239 0.33958 0.98537 0.0
C231 C 0.50958 0.50318 0.11577 0.0
C232 C 0.59697 0.39686 0.98622 0.0
C233 C 0.41603 0.37591 0.67909 0.0
C234 C 0.30228 0.37377 0.70459 0.0
C235 C 0.76305 0.50879 1.0022 0.0
C236 C 0.49682 0.66247 0.0616 0.0
C237 C 0.45078 0.71864 0.05097 0.0
C238 C 0.53014 0.73734 0.10517 0.0
C239 C 0.5751 0.68151 0.11602 0.0
C240 C 0.43476 0.68113 0.02927 0.0
C241 C 0.5918 0.7188 0.13749 0.0
C242 C 0.54514 0.5105 0.89607 0.0
C243 C 0.47631 0.62333 0.03792 0.0
H244 H 0.93256 0.29213 0.90522 0.0
H245 H 0.79379 0.39083 0.90759 0.0
H246 H 0.94404 0.34182 0.86846 0.0
H247 H 0.60929 0.33881 0.01789 0.0
H248 H 0.54362 0.76626 0.1226 0.0
H249 H 0.62271 0.66768 0.14197 0.0
H250 H 0.37353 0.66657 0.98741 0.0
H251 H 0.65234 0.73342 0.1795 0.0
Eu252 Eu 0.53603 0.57473 0.55527 0.0
C253 C 0.75846 0.42002 0.39118 0.0
N254 N 0.65396 0.43421 0.37997 0.0
C255 C 0.69862 0.41093 0.25969 0.0
C256 C 0.8389 0.40172 0.33672 0.0
C257 C 0.62059 0.42823 0.31479 0.0
C258 C 0.8089 0.3981 0.27085 0.0
C259 C 0.89139 0.40807 0.46943 0.0
C260 C 0.78479 0.42304 0.45697 0.0
C261 C 0.97265 0.39077 0.41556 0.0
C262 C 0.94647 0.38759 0.34947 0.0
Eu263 Eu 0.53168 0.46276 0.47815 0.0
N264 N 0.70593 0.44046 0.50883 0.0
C265 C 0.9125 0.41053 0.53561 0.0
C266 C 0.72244 0.44115 0.57239 0.0
C267 C 0.82703 0.42678 0.58708 0.0
H268 H 0.533 0.436 0.30435 0.0
H269 H 0.84148 0.42813 0.63793 0.0
H270 H 0.56076 0.59998 0.72792 0.0
H271 H 0.20799 0.61569 0.41283 0.0
H272 H 0.65539 0.45325 0.61176 0.0
H273 H 0.99341 0.39936 0.54715 0.0
H274 H 0.38985 0.58478 0.42782 0.0
H275 H 0.67292 0.40708 0.20843 0.0
H276 H 0.05545 0.37936 0.42431 0.0
H277 H 1.0096 0.37381 0.30831 0.0
H278 H 0.44506 0.63496 0.83221 0.0
H279 H 0.86927 0.38486 0.22809 0.0
H280 H 0.08189 0.65174 0.51323 0.0
N281 N 0.43355 0.60706 0.66017 0.0
C282 C 0.33336 0.62517 0.65546 0.0
C283 C 0.4117 0.63195 0.78273 0.0
C284 C 0.26621 0.6464 0.71459 0.0
C285 C 0.47586 0.61141 0.72297 0.0
C286 C 0.30577 0.64918 0.77848 0.0
N287 N 0.36368 0.60229 0.53501 0.0
C288 C 0.3345 0.60021 0.47171 0.0
C289 C 0.19397 0.64112 0.58522 0.0
C290 C 0.29783 0.62287 0.59144 0.0
C291 C 0.16118 0.63816 0.52006 0.0
C292 C 0.23207 0.61777 0.46318 0.0
H293 H 0.25684 0.66529 0.82503 0.0
H294 H 0.1101 0.68086 0.75328 0.0
H295 H 0.04636 0.67599 0.6401 0.0
O296 O 0.59761 0.6166 0.52436 0.0
O297 O 0.3476 0.54971 0.53042 0.0
O298 O 0.34411 0.48675 0.49271 0.0
O299 O 0.65269 0.61875 0.62239 0.0
O300 O 0.56037 0.54544 0.44077 0.0
O301 O 0.47753 0.48771 0.40484 0.0
O302 O 0.46127 0.42571 0.51933 0.0
O303 O 0.70676 0.49359 0.52389 0.0
O304 O 0.70197 0.54352 0.50011 0.0
O305 O 0.45386 0.41056 0.4103 0.0
O306 O 0.46859 0.49639 0.58514 0.0
O307 O 0.58774 0.54697 0.62445 0.0
C308 C 0.29045 0.5184 0.51048 0.0
C309 C 0.64477 0.67444 0.61009 0.0
C310 C 0.69723 0.73135 0.6042 0.0
C311 C 0.62449 0.75021 0.66154 0.0
C312 C 0.57245 0.69369 0.66751 0.0
C313 C 0.56262 0.73144 0.69298 0.0
C314 C 0.70711 0.69344 0.57871 0.0
C315 C 0.52172 0.51465 0.39291 0.0
C316 C 0.65611 0.63464 0.58088 0.0
C317 C 0.1626 0.6645 0.70839 0.0
C318 C 0.12642 0.66179 0.64393 0.0
C319 C 0.76177 0.51868 0.51103 0.0
C320 C 0.47464 0.36311 0.44677 0.0
C321 C 0.4473 0.30887 0.46736 0.0
C322 C 0.54439 0.29242 0.42376 0.0
C323 C 0.57171 0.3462 0.4034 0.0
C324 C 0.41267 0.34428 0.47864 0.0
C325 C 0.60631 0.31108 0.39217 0.0
C326 C 0.52911 0.52143 0.63436 0.0
C327 C 0.43632 0.40017 0.45927 0.0
H328 H 0.61556 0.77939 0.68175 0.0
H329 H 0.52371 0.67967 0.69255 0.0
H330 H 0.5067 0.74624 0.73711 0.0
H331 H 0.76297 0.67877 0.53423 0.0
H332 H 0.57208 0.26514 0.41429 0.0
H333 H 0.6203 0.35993 0.37783 0.0
H334 H 0.33719 0.35702 0.5119 0.0
H335 H 0.68113 0.29822 0.35862 0.0
C336 C 0.28503 0.76108 0.05185 0.0
C337 C 0.38315 0.73842 0.01724 0.0
C338 C 0.34558 0.75063 0.91613 0.0
C339 C 0.2527 0.77515 0.95242 0.0
N340 N 0.14129 0.80714 0.05687 0.0
N341 N 0.51877 0.71551 0.921 0.0
C342 C 0.22494 0.78148 0.02107 0.0
C343 C 0.41659 0.73421 0.95051 0.0
N344 N 0.2463 0.76188 0.11289 0.0
N345 N 0.36445 0.74256 0.84833 0.0
H346 H 0.57286 0.70305 0.94449 0.0
H347 H 0.55538 0.71459 0.87574 0.0
H348 H 0.31842 0.75527 0.82218 0.0
H349 H 0.42 0.72162 0.81664 0.0
H350 H 0.16785 0.77467 0.13741 0.0
H351 H 0.28776 0.74729 0.13693 0.0
H352 H 0.12551 0.81589 0.10916 0.0
H353 H 0.0922 0.82163 0.03531 0.0
C354 C 0.7115 0.24863 0.94499 0.0
C355 C 0.76696 0.28209 0.9872 0.0
C356 C 0.83782 0.25617 0.0656 0.0
C357 C 0.77633 0.22343 0.02561 0.0
N358 N 0.64466 0.18914 0.93166 0.0
N359 N 0.87299 0.31952 0.09059 0.0
C360 C 0.71034 0.21985 0.96647 0.0
C361 C 0.82735 0.28635 0.0484 0.0
N362 N 0.66275 0.24411 0.88343 0.0
N363 N 0.90778 0.25809 0.11944 0.0
H364 H 0.86866 0.34203 0.07916 0.0
H365 H 0.90865 0.32562 0.13895 0.0
H366 H 0.9142 0.23706 0.13502 0.0
H367 H 0.96567 0.27942 0.14629 0.0
H368 H 0.63361 0.21928 0.84635 0.0
H369 H 0.65771 0.26497 0.86731 0.0
H370 H 0.58359 0.18629 0.89305 0.0
H371 H 0.64604 0.1669 0.94396 0.0
C372 C 0.19934 0.25789 0.51237 0.0
C373 C 0.25913 0.24851 0.56103 0.0
C374 C 0.43786 0.28172 0.55332 0.0
C375 C 0.38144 0.28866 0.50063 0.0
N376 N 0.21636 0.27861 0.42206 0.0
N377 N 0.43872 0.24756 0.62277 0.0
C378 C 0.26397 0.2756 0.47819 0.0
C379 C 0.37947 0.25934 0.5801 0.0
N380 N 0.08022 0.25018 0.49938 0.0
N381 N 0.54566 0.29752 0.57928 0.0
H382 H 0.3977 0.23227 0.64538 0.0
H383 H 0.53042 0.25075 0.63223 0.0
H384 H 0.59127 0.31401 0.56097 0.0
H385 H 0.58515 0.29706 0.62286 0.0
H386 H 1.02788 0.26 0.47072 0.0
H387 H 1.031 0.23605 0.52145 0.0
H388 H 0.13704 0.26612 0.39837 0.0
H389 H 0.26105 0.29111 0.39525 0.0
C390 C 0.78726 0.7668 0.47221 0.0
C391 C 0.88777 0.78855 0.50518 0.0
C392 C 0.86811 0.77098 0.6011 0.0
C393 C 0.76262 0.75131 0.57036 0.0
N394 N 0.61151 0.73425 0.48197 0.0
N395 N 1.01868 0.81452 0.60319 0.0
C396 C 0.7194 0.75023 0.50729 0.0
C397 C 0.92661 0.79158 0.57039 0.0
N398 N 0.75898 0.76108 0.40643 0.0
N399 N 0.91459 0.76884 0.65828 0.0
H400 H 0.06511 0.82938 0.58155 0.0
H401 H 0.04368 0.82105 0.65372 0.0
H402 H 0.87407 0.75409 0.68213 0.0
H403 H 0.99751 0.77933 0.67944 0.0
H404 H 0.69648 0.74202 0.37633 0.0
H405 H 0.8044 0.77354 0.37974 0.0
H406 H 0.5686 0.73586 0.44026 0.0
H407 H 0.55968 0.72158 0.50586 0.0
C408 C 0.48633 0.98239 0.90515 0.0
C409 C 0.41661 0.99319 0.96643 0.0
C410 C 0.60272 0.01135 0.03453 0.0
C411 C 0.67275 0.99791 0.97385 0.0
N412 N 0.68156 0.96617 0.85071 0.0
N413 N 0.41648 1.00762 0.08782 0.0
C414 C 0.61443 0.98189 0.90903 0.0
C415 C 0.47727 1.00478 0.0306 0.0
N416 N 0.43185 0.97421 0.84335 0.0
N417 N 0.65549 0.03082 0.09651 0.0
H418 H 0.32592 1.00168 0.08731 0.0
H419 H 0.45825 0.01198 0.13407 0.0
H420 H 0.74672 0.03585 0.10146 0.0
H421 H 0.60798 0.04425 0.142 0.0
H422 H 0.47818 0.97104 0.79914 0.0
H423 H 0.33969 0.97349 0.8364 0.0
H424 H 0.64576 0.9499 0.80274 0.0
H425 H 0.77474 0.96739 0.851 0.0
C426 C 0.47186 0.98995 0.421 0.0
C427 C 0.40761 0.01138 0.48166 0.0
C428 C 0.59957 0.03266 0.54268 0.0
C429 C 0.66496 0.01063 0.48224 0.0
N430 N 0.65933 0.96424 0.36514 0.0
N431 N 0.41091 0.06016 0.59495 0.0
C432 C 0.59988 0.98818 0.42181 0.0
C433 C 0.47179 0.03473 0.54088 0.0
N434 N 0.41043 0.97335 0.36079 0.0
N435 N 0.65849 0.04943 0.60378 0.0
H436 H 0.31796 0.06211 0.59631 0.0
H437 H 0.45235 0.08134 0.6356 0.0
H438 H 0.75085 0.04843 0.60842 0.0
H439 H 0.6156 0.06163 0.65111 0.0
H440 H 0.45052 0.96162 0.3126 0.0
H441 H 0.31746 0.97404 0.35856 0.0
H442 H 0.61732 0.94318 0.32458 0.0
H443 H 0.75169 0.96381 0.35922 0.0
C444 C 0.96422 0.50389 0.94434 0.0
C445 C 0.89698 0.51036 0.00448 0.0
C446 C 0.08481 0.51788 0.06908 0.0
C447 C 0.15184 0.51268 0.0096 0.0
N448 N 0.1512 0.51479 0.89945 0.0
N449 N 0.89492 0.53548 0.12804 0.0
C450 C 0.09048 0.50945 0.94942 0.0
C451 C 0.95773 0.52075 0.06808 0.0
N452 N 0.90799 0.49278 0.88239 0.0
N453 N 0.1422 0.51995 0.12666 0.0
H454 H 0.8027 0.53944 0.12918 0.0
H455 H 0.93528 0.54721 0.17625 0.0
H456 H 0.23506 0.51933 0.1297 0.0
H457 H 0.09775 0.51972 0.16911 0.0
H458 H 0.95401 0.48382 0.83594 0.0
H459 H 0.81541 0.49017 0.87717 0.0
H460 H 0.10996 0.51567 0.8566 0.0
H461 H 0.24001 0.5234 0.90605 0.0
C462 C 0.08873 0.4963 0.45022 0.0
C463 C 0.15451 0.51897 0.51002 0.0
C464 C 0.96154 0.54307 0.56944 0.0
C465 C 0.89699 0.51966 0.51037 0.0
N466 N 0.90039 0.48389 0.38853 0.0
N467 N 0.15017 0.55935 0.6308 0.0
C468 C 0.96105 0.4989 0.44926 0.0
C469 C 0.08979 0.54148 0.57049 0.0
N470 N 0.14689 0.47125 0.39432 0.0
N471 N 0.90037 0.56834 0.62363 0.0
H472 H 0.24282 0.55867 0.63475 0.0
H473 H 0.10874 0.57229 0.6784 0.0
H474 H 0.8073 0.57015 0.62493 0.0
H475 H 0.94119 0.58955 0.66447 0.0
H476 H 0.10274 0.45071 0.35382 0.0
H477 H 0.23951 0.46909 0.38956 0.0
H478 H 0.94207 0.47314 0.34069 0.0
H479 H 0.80757 0.48515 0.38573 0.0
C480 C 0.13207 0.99931 0.25834 0.0
C481 C 1.02435 1.00351 0.29571 0.0
C482 C 0.90978 0.99224 0.19065 0.0
C483 C 1.01897 0.98721 0.15382 0.0
N484 N 0.22468 0.96692 0.14874 0.0
N485 N 0.80988 0.01032 0.30077 0.0
C486 C 0.12768 0.98509 0.18609 0.0
C487 C 0.91238 1.00116 0.26249 0.0
N488 N 0.23909 0.01031 0.29123 0.0
N489 N 0.80402 0.98605 0.1555 0.0
H490 H 0.81019 0.01865 0.35375 0.0
H491 H 0.72602 0.01268 0.28187 0.0
H492 H 0.80106 0.97729 0.1024 0.0
H493 H 0.72043 0.98615 0.17688 0.0
H494 H 0.31772 0.01067 0.26532 0.0
H495 H 0.247 0.02323 0.34433 0.0
H496 H 0.30233 0.96273 0.17158 0.0
H497 H 0.22175 0.95107 0.09614 0.0
C498 C 0.95681 0.01689 0.78138 0.0
C499 C 0.06973 0.0176 0.81191 0.0
C500 C 0.17054 0.01842 0.71125 0.0
C501 C 0.05745 0.0155 0.67859 0.0
N502 N 0.84272 1.00675 0.67946 0.0
N503 N 0.28014 0.03207 0.81658 0.0
C504 C 0.95043 0.01345 0.71288 0.0
C505 C 0.17551 0.02247 0.78031 0.0
N506 N 0.85543 0.0223 0.82014 0.0
N507 N 0.27383 0.0138 0.67431 0.0
H508 H 0.28829 0.03551 0.8672 0.0
H509 H 0.35638 0.04014 0.79884 0.0
H510 H 0.27476 0.00804 0.6223 0.0
H511 H 0.35823 0.01141 0.69277 0.0
H512 H 0.77065 0.02629 0.8042 0.0
H513 H 0.85803 0.027 0.87173 0.0
H514 H 0.76529 1.0 0.69838 0.0
H515 H 0.83137 1.00487 0.63012 0.0
C516 C 0.40881 0.50331 0.28445 0.0
C517 C 0.5187 0.51123 0.32104 0.0
C518 C 0.62412 0.5027 0.21531 0.0
C519 C 0.51371 0.49747 0.18027 0.0
N520 N 0.31241 0.47438 0.17408 0.0
N521 N 0.7292 0.52633 0.32315 0.0
C522 C 0.40876 0.49235 0.2123 0.0
C523 C 0.6261 0.51303 0.28709 0.0
N524 N 0.30317 0.50928 0.31948 0.0
N525 N 0.72777 0.49421 0.17833 0.0
H526 H 0.73605 0.53525 0.37593 0.0
H527 H 0.80536 0.53202 0.30147 0.0
H528 H 0.72758 0.48382 0.1249 0.0
H529 H 0.81104 0.49303 0.19934 0.0
H530 H 0.21991 0.50765 0.29629 0.0
H531 H 0.2998 0.52035 0.37294 0.0
H532 H 0.23835 0.46722 0.19516 0.0
H533 H 0.3124 0.46232 0.12072 0.0
C534 C 0.43003 0.50829 0.72762 0.0
C535 C 0.53289 0.51963 0.70252 0.0
C536 C 0.63736 0.53004 0.80974 0.0
C537 C 0.54084 0.51419 0.83012 0.0
N538 N 0.35767 0.4798 0.79855 0.0
N539 N 0.74735 0.52944 0.71286 0.0
C540 C 0.44109 0.50069 0.78599 0.0
C541 C 0.64039 0.52737 0.7417 0.0
N542 N 0.31997 0.50623 0.69832 0.0
N543 N 0.72544 0.5482 0.85517 0.0
H544 H 0.75638 0.52334 0.66095 0.0
H545 H 0.82909 0.53208 0.73809 0.0
H546 H 0.72439 0.55168 0.90592 0.0
H547 H 0.79201 0.56289 0.84412 0.0
H548 H 0.24142 0.50171 0.71973 0.0
H549 H 0.30426 0.51291 0.65743 0.0
H550 H 0.29122 0.46561 0.76333 0.0
H551 H 0.36074 0.47449 0.84188 0.0
loop_
_geom_bond_atom_site_label_1
_geom_bond_atom_site_label_2
_geom_bond_distance
_geom_bond_site_symmetry_2
_ccdc_geom_bond_type
Eu0 N29 2.600 . S
Eu0 N35 2.562 . S
Eu0 O44 2.462 1_655 S
Eu0 O45 2.373 . S
Eu0 O47 2.432 1_655 S
Eu0 O48 2.291 1_556 S
Eu0 O52 2.335 1_655 S
Eu0 O55 2.372 1_655 S
Eu0 C64 2.787 1_655 S
C1 N2 1.365 . S
C1 C4 1.405 . S
C1 C8 1.448 . S
N2 C1 1.365 . S
N2 C5 1.319 . S
N2 Eu11 2.600 . S
C3 C5 1.397 . S
C3 C6 1.367 . S
C3 H23 0.931 . S
C4 C1 1.405 . S
C4 C6 1.403 . S
C4 C10 1.439 . S
C5 N2 1.319 . S
C5 C3 1.397 . S
C5 H16 0.930 . S
C6 C3 1.367 . S
C6 C4 1.403 . S
C6 H27 0.929 . S
C7 C8 1.430 . S
C7 C9 1.387 . S
C7 C13 1.414 . S
C8 C1 1.448 . S
C8 C7 1.430 . S
C8 N12 1.351 . S
C9 C7 1.387 . S
C9 C10 1.374 . S
C9 H24 0.931 . S
C10 C4 1.439 . S
C10 C9 1.374 . S
C10 H25 0.931 . S
Eu11 N2 2.600 . S
Eu11 N12 2.562 . S
Eu11 O46 2.335 1_455 S
Eu11 O49 2.372 1_455 S
Eu11 O50 2.462 1_455 S
Eu11 O51 2.373 . S
Eu11 O53 2.432 1_455 S
Eu11 O54 2.291 1_554 S
Eu11 C75 2.787 1_455 S
N12 C8 1.351 . S
N12 Eu11 2.562 . S
N12 C14 1.325 1_554 S
C13 C7 1.414 . S
C13 C15 1.360 1_554 S
C13 H21 0.926 1_554 S
C14 N12 1.325 1_556 S
C14 C15 1.416 . S
C14 H20 0.929 . S
C15 C13 1.360 1_556 S
C15 C14 1.416 . S
C15 H17 0.930 . S
H16 C5 0.930 . S
H17 C15 0.930 . S
H18 C33 0.930 . S
H19 C40 0.930 . S
H20 C14 0.929 . S
H21 C13 0.926 1_556 S
H22 C36 0.929 . S
H23 C3 0.931 . S
H24 C9 0.931 . S
H25 C10 0.931 . S
H26 C31 0.931 . S
H27 C6 0.929 . S
H28 C39 0.931 1_554 S
N29 Eu0 2.600 . S
N29 C30 1.365 . S
N29 C33 1.319 . S
C30 N29 1.365 . S
C30 C32 1.405 . S
C30 C38 1.448 . S
C31 H26 0.931 . S
C31 C33 1.397 . S
C31 C34 1.367 . S
C32 C30 1.405 . S
C32 C34 1.403 . S
C32 C65 1.439 . S
C33 H18 0.930 . S
C33 N29 1.319 . S
C33 C31 1.397 . S
C34 C31 1.367 . S
C34 C32 1.403 . S
C34 H41 0.929 . S
N35 Eu0 2.562 . S
N35 C36 1.325 1_556 S
N35 C38 1.351 . S
C36 H22 0.929 . S
C36 N35 1.325 1_554 S
C36 C40 1.416 . S
C37 C38 1.430 . S
C37 C39 1.403 . S
C37 C66 1.387 . S
C38 C30 1.448 . S
C38 N35 1.351 . S
C38 C37 1.430 . S
C39 H28 0.931 1_556 S
C39 C37 1.403 . S
C39 C40 1.366 1_556 S
C40 H19 0.930 . S
C40 C36 1.416 . S
C40 C39 1.366 1_554 S
H41 C34 0.929 . S
H42 C65 0.931 . S
H43 C66 0.931 . S
O44 Eu0 2.462 1_455 S
O44 C64 1.252 . S
O45 Eu0 2.373 . S
O45 C56 1.249 1_565 S
O46 Eu11 2.335 1_655 S
O46 C56 1.264 1_554 S
O47 Eu0 2.432 1_455 S
O47 C64 1.268 . S
O48 Eu0 2.291 1_554 S
O48 C63 1.255 1_565 S
O49 Eu11 2.372 1_655 S
O49 C63 1.257 . S
O50 Eu11 2.462 1_655 S
O50 C75 1.252 . S
O51 Eu11 2.373 . S
O51 C67 1.249 1_545 S
O52 Eu0 2.335 1_455 S
O52 C67 1.264 1_556 S
O53 Eu11 2.432 1_655 S
O53 C75 1.268 . S
O54 Eu11 2.291 1_556 S
O54 C74 1.255 1_545 S
O55 Eu0 2.372 1_455 S
O55 C74 1.257 . S
C56 O45 1.249 1_545 S
C56 O46 1.264 1_556 S
C57 C60 1.382 . S
C57 C62 1.390 . S
C57 C64 1.506 . S
C58 C59 1.398 . S
C58 C62 1.392 . S
C59 C58 1.398 . S
C59 C61 1.372 . S
C59 H76 0.931 . S
C60 C57 1.382 . S
C60 C61 1.390 . S
C60 H77 0.931 . S
C61 C59 1.372 . S
C61 C60 1.390 . S
C61 H78 0.929 . S
C62 C57 1.390 . S
C62 C58 1.392 . S
C62 H79 0.930 1_556 S
C63 O48 1.255 1_545 S
C63 O49 1.257 . S
C64 Eu0 2.787 1_455 S
C64 O44 1.252 . S
C64 O47 1.268 . S
C64 C57 1.506 . S
C65 C32 1.439 . S
C65 H42 0.931 . S
C65 C66 1.374 . S
C66 C37 1.387 . S
C66 H43 0.931 . S
C66 C65 1.374 . S
C67 O51 1.249 1_565 S
C67 O52 1.264 1_554 S
C68 C71 1.382 . S
C68 C72 1.390 . S
C68 C75 1.506 . S
C69 C70 1.398 . S
C69 C72 1.392 . S
C70 C69 1.398 . S
C70 C73 1.372 . S
C70 H80 0.931 . S
C71 C68 1.382 . S
C71 C73 1.390 . S
C71 H81 0.931 . S
C72 C68 1.390 . S
C72 C69 1.392 . S
C72 H82 0.930 1_554 S
C73 C70 1.372 . S
C73 C71 1.390 . S
C73 H83 0.929 . S
C74 O54 1.255 1_565 S
C74 O55 1.257 . S
C75 Eu11 2.787 1_655 S
C75 O50 1.252 . S
C75 O53 1.268 . S
C75 C68 1.506 . S
H76 C59 0.931 . S
H77 C60 0.931 . S
H78 C61 0.929 . S
H79 C62 0.930 1_554 S
H80 C70 0.931 . S
H81 C71 0.931 . S
H82 C72 0.930 1_556 S
H83 C73 0.929 . S
Eu84 N113 2.600 . S
Eu84 N119 2.562 . S
Eu84 O128 2.462 1_655 S
Eu84 O129 2.373 . S
Eu84 O131 2.432 1_655 S
Eu84 O132 2.291 . S
Eu84 O136 2.335 1_655 S
Eu84 O139 2.372 1_655 S
Eu84 C148 2.787 1_655 S
C85 N86 1.365 . S
C85 C88 1.405 . S
C85 C92 1.448 . S
N86 C85 1.365 . S
N86 C89 1.319 . S
N86 Eu95 2.600 . S
C87 C89 1.397 . S
C87 C90 1.367 . S
C87 H107 0.931 . S
C88 C85 1.405 . S
C88 C90 1.403 . S
C88 C94 1.439 . S
C89 N86 1.319 . S
C89 C87 1.397 . S
C89 H100 0.930 . S
C90 C87 1.367 . S
C90 C88 1.403 . S
C90 H111 0.929 . S
C91 C92 1.430 . S
C91 C93 1.387 . S
C91 C97 1.404 . S
C92 C85 1.448 . S
C92 C91 1.430 . S
C92 N96 1.351 . S
C93 C91 1.387 . S
C93 C94 1.374 . S
C93 H108 0.931 . S
C94 C88 1.439 . S
C94 C93 1.374 . S
C94 H109 0.931 . S
Eu95 N86 2.600 . S
Eu95 N96 2.562 . S
Eu95 O130 2.335 1_455 S
Eu95 O133 2.372 1_455 S
Eu95 O134 2.462 1_455 S
Eu95 O135 2.373 . S
Eu95 O137 2.432 1_455 S
Eu95 O138 2.291 . S
Eu95 C159 2.787 1_455 S
N96 C92 1.351 . S
N96 Eu95 2.562 . S
N96 C98 1.325 . S
C97 C91 1.404 . S
C97 C99 1.366 . S
C97 H105 0.930 . S
C98 N96 1.325 . S
C98 C99 1.416 . S
C98 H104 0.929 . S
C99 C97 1.366 . S
C99 C98 1.416 . S
C99 H101 0.930 . S
H100 C89 0.930 . S
H101 C99 0.930 . S
H102 C117 0.930 . S
H103 C124 0.930 . S
H104 C98 0.929 . S
H105 C97 0.930 . S
H106 C120 0.929 . S
H107 C87 0.931 . S
H108 C93 0.931 . S
H109 C94 0.931 . S
H110 C115 0.931 . S
H111 C90 0.929 . S
H112 C123 0.930 . S
N113 Eu84 2.600 . S
N113 C114 1.365 . S
N113 C117 1.319 . S
C114 N113 1.365 . S
C114 C116 1.405 . S
C114 C122 1.448 . S
C115 H110 0.931 . S
C115 C117 1.397 . S
C115 C118 1.367 . S
C116 C114 1.405 . S
C116 C118 1.403 . S
C116 C149 1.439 . S
C117 H102 0.930 . S
C117 N113 1.319 . S
C117 C115 1.397 . S
C118 C115 1.367 . S
C118 C116 1.403 . S
C118 H125 0.929 . S
N119 Eu84 2.562 . S
N119 C120 1.325 . S
N119 C122 1.351 . S
C120 H106 0.929 . S
C120 N119 1.325 . S
C120 C124 1.416 . S
C121 C122 1.430 . S
C121 C123 1.404 . S
C121 C150 1.387 . S
C122 C114 1.448 . S
C122 N119 1.351 . S
C122 C121 1.430 . S
C123 H112 0.930 . S
C123 C121 1.404 . S
C123 C124 1.366 . S
C124 H103 0.930 . S
C124 C120 1.416 . S
C124 C123 1.366 . S
H125 C118 0.929 . S
H126 C149 0.931 . S
H127 C150 0.931 . S
O128 Eu84 2.462 1_455 S
O128 C148 1.252 . S
O129 Eu84 2.373 . S
O129 C140 1.249 1_545 S
O130 Eu95 2.335 1_655 S
O130 C140 1.264 . S
O131 Eu84 2.432 1_455 S
O131 C148 1.268 . S
O132 Eu84 2.291 . S
O132 C147 1.255 1_545 S
O133 Eu95 2.372 1_655 S
O133 C147 1.257 . S
O134 Eu95 2.462 1_655 S
O134 C159 1.252 . S
O135 Eu95 2.373 . S
O135 C151 1.249 1_565 S
O136 Eu84 2.335 1_455 S
O136 C151 1.264 . S
O137 Eu95 2.432 1_655 S
O137 C159 1.268 . S
O138 Eu95 2.291 . S
O138 C158 1.255 1_565 S
O139 Eu84 2.372 1_455 S
O139 C158 1.257 . S
C140 O129 1.249 1_565 S
C140 O130 1.264 . S
C141 C144 1.382 . S
C141 C146 1.390 . S
C141 C148 1.506 . S
C142 C143 1.398 . S
C142 C146 1.392 . S
C143 C142 1.398 . S
C143 C145 1.372 . S
C143 H160 0.931 . S
C144 C141 1.382 . S
C144 C145 1.390 . S
C144 H161 0.931 . S
C145 C143 1.372 . S
C145 C144 1.390 . S
C145 H162 0.929 . S
C146 C141 1.390 . S
C146 C142 1.392 . S
C146 H163 0.930 . S
C147 O132 1.255 1_565 S
C147 O133 1.257 . S
C148 Eu84 2.787 1_455 S
C148 O128 1.252 . S
C148 O131 1.268 . S
C148 C141 1.506 . S
C149 C116 1.439 . S
C149 H126 0.931 . S
C149 C150 1.374 . S
C150 C121 1.387 . S
C150 H127 0.931 . S
C150 C149 1.374 . S
C151 O135 1.249 1_545 S
C151 O136 1.264 . S
C152 C155 1.382 . S
C152 C156 1.390 . S
C152 C159 1.506 . S
C153 C154 1.398 . S
C153 C156 1.392 . S
C154 C153 1.398 . S
C154 C157 1.372 . S
C154 H164 0.931 . S
C155 C152 1.382 . S
C155 C157 1.390 . S
C155 H165 0.931 . S
C156 C152 1.390 . S
C156 C153 1.392 . S
C156 H166 0.930 . S
C157 C154 1.372 . S
C157 C155 1.390 . S
C157 H167 0.929 . S
C158 O138 1.255 1_545 S
C158 O139 1.257 . S
C159 Eu95 2.787 1_655 S
C159 O134 1.252 . S
C159 O137 1.268 . S
C159 C152 1.506 . S
H160 C143 0.931 . S
H161 C144 0.931 . S
H162 C145 0.929 . S
H163 C146 0.930 . S
H164 C154 0.931 . S
H165 C155 0.931 . S
H166 C156 0.930 . S
H167 C157 0.929 . S
Eu168 N197 2.600 . S
Eu168 N203 2.562 . S
Eu168 O212 2.462 . S
Eu168 O213 2.373 . S
Eu168 O215 2.432 . S
Eu168 O216 2.291 1_556 S
Eu168 O220 2.335 . S
Eu168 O223 2.372 . S
Eu168 C232 2.787 . S
C169 N170 1.365 . S
C169 C172 1.405 . S
C169 C176 1.448 . S
N170 C169 1.365 . S
N170 C173 1.319 . S
N170 Eu179 2.600 . S
C171 C173 1.397 . S
C171 C174 1.367 . S
C171 H191 0.931 . S
C172 C169 1.405 . S
C172 C174 1.403 . S
C172 C178 1.439 . S
C173 N170 1.319 . S
C173 C171 1.397 . S
C173 H184 0.930 . S
C174 C171 1.367 . S
C174 C172 1.403 . S
C174 H195 0.929 . S
C175 C176 1.430 . S
C175 C177 1.387 . S
C175 C181 1.414 . S
C176 C169 1.448 . S
C176 C175 1.430 . S
C176 N180 1.351 . S
C177 C175 1.387 . S
C177 C178 1.374 . S
C177 H192 0.931 . S
C178 C172 1.439 . S
C178 C177 1.374 . S
C178 H193 0.931 . S
Eu179 N170 2.600 . S
Eu179 N180 2.562 . S
Eu179 O214 2.335 . S
Eu179 O217 2.372 . S
Eu179 O218 2.462 . S
Eu179 O219 2.373 . S
Eu179 O221 2.432 . S
Eu179 O222 2.291 1_554 S
Eu179 C243 2.787 . S
N180 C176 1.351 . S
N180 Eu179 2.562 . S
N180 C182 1.325 1_554 S
C181 C175 1.414 . S
C181 C183 1.360 1_554 S
C181 H189 0.926 1_554 S
C182 N180 1.325 1_556 S
C182 C183 1.416 . S
C182 H188 0.929 . S
C183 C181 1.360 1_556 S
C183 C182 1.416 . S
C183 H185 0.930 . S
H184 C173 0.930 . S
H185 C183 0.930 . S
H186 C201 0.930 . S
H187 C208 0.930 . S
H188 C182 0.929 . S
H189 C181 0.926 1_556 S
H190 C204 0.929 . S
H191 C171 0.931 . S
H192 C177 0.931 . S
H193 C178 0.931 . S
H194 C199 0.931 . S
H195 C174 0.929 . S
H196 C207 0.931 1_554 S
N197 Eu168 2.600 . S
N197 C198 1.365 . S
N197 C201 1.319 . S
C198 N197 1.365 . S
C198 C200 1.405 . S
C198 C206 1.448 . S
C199 H194 0.931 . S
C199 C201 1.397 . S
C199 C202 1.367 . S
C200 C198 1.405 . S
C200 C202 1.403 . S
C200 C233 1.439 . S
C201 H186 0.930 . S
C201 N197 1.319 . S
C201 C199 1.397 . S
C202 C199 1.367 . S
C202 C200 1.403 . S
C202 H209 0.929 . S
N203 Eu168 2.562 . S
N203 C204 1.325 1_556 S
N203 C206 1.351 . S
C204 H190 0.929 . S
C204 N203 1.325 1_554 S
C204 C208 1.416 . S
C205 C206 1.430 . S
C205 C207 1.404 . S
C205 C234 1.387 . S
C206 C198 1.448 . S
C206 N203 1.351 . S
C206 C205 1.430 . S
C207 H196 0.931 1_556 S
C207 C205 1.404 . S
C207 C208 1.366 1_556 S
C208 H187 0.930 . S
C208 C204 1.416 . S
C208 C207 1.366 1_554 S
H209 C202 0.929 . S
H210 C233 0.931 . S
H211 C234 0.931 . S
O212 Eu168 2.462 . S
O212 C232 1.252 . S
O213 Eu168 2.373 . S
O213 C224 1.249 . S
O214 Eu179 2.335 . S
O214 C224 1.264 1_554 S
O215 Eu168 2.432 . S
O215 C232 1.268 . S
O216 Eu168 2.291 1_554 S
O216 C231 1.255 . S
O217 Eu179 2.372 . S
O217 C231 1.257 . S
O218 Eu179 2.462 . S
O218 C243 1.252 . S
O219 Eu179 2.373 . S
O219 C235 1.249 . S
O220 Eu168 2.335 . S
O220 C235 1.264 1_556 S
O221 Eu179 2.432 . S
O221 C243 1.268 . S
O222 Eu179 2.291 1_556 S
O222 C242 1.255 . S
O223 Eu168 2.372 . S
O223 C242 1.257 . S
C224 O213 1.249 . S
C224 O214 1.264 1_556 S
C225 C228 1.382 . S
C225 C230 1.390 . S
C225 C232 1.506 . S
C226 C227 1.398 . S
C226 C230 1.392 . S
C227 C226 1.398 . S
C227 C229 1.372 . S
C227 H244 0.931 . S
C228 C225 1.382 . S
C228 C229 1.390 . S
C228 H245 0.931 . S
C229 C227 1.372 . S
C229 C228 1.390 . S
C229 H246 0.929 . S
C230 C225 1.390 . S
C230 C226 1.392 . S
C230 H247 0.930 1_556 S
C231 O216 1.255 . S
C231 O217 1.257 . S
C232 Eu168 2.787 . S
C232 O212 1.252 . S
C232 O215 1.268 . S
C232 C225 1.506 . S
C233 C200 1.439 . S
C233 H210 0.931 . S
C233 C234 1.374 . S
C234 C205 1.387 . S
C234 H211 0.931 . S
C234 C233 1.374 . S
C235 O219 1.249 . S
C235 O220 1.264 1_554 S
C236 C239 1.382 . S
C236 C240 1.390 . S
C236 C243 1.506 . S
C237 C238 1.398 . S
C237 C240 1.392 . S
C238 C237 1.398 . S
C238 C241 1.372 . S
C238 H248 0.931 . S
C239 C236 1.382 . S
C239 C241 1.390 . S
C239 H249 0.931 . S
C240 C236 1.390 . S
C240 C237 1.392 . S
C240 H250 0.930 1_554 S
C241 C238 1.372 . S
C241 C239 1.390 . S
C241 H251 0.929 . S
C242 O222 1.255 . S
C242 O223 1.257 . S
C243 Eu179 2.787 . S
C243 O218 1.252 . S
C243 O221 1.268 . S
C243 C236 1.506 . S
H244 C227 0.931 . S
H245 C228 0.931 . S
H246 C229 0.929 . S
H247 C230 0.930 1_554 S
H248 C238 0.931 . S
H249 C239 0.931 . S
H250 C240 0.930 1_556 S
H251 C241 0.929 . S
Eu252 N281 2.600 . S
Eu252 N287 2.562 . S
Eu252 O296 2.462 . S
Eu252 O297 2.373 . S
Eu252 O299 2.432 . S
Eu252 O300 2.291 . S
Eu252 O304 2.335 . S
Eu252 O307 2.372 . S
Eu252 C316 2.787 . S
C253 N254 1.365 . S
C253 C256 1.405 . S
C253 C260 1.448 . S
N254 C253 1.365 . S
N254 C257 1.319 . S
N254 Eu263 2.600 . S
C255 C257 1.397 . S
C255 C258 1.367 . S
C255 H275 0.931 . S
C256 C253 1.405 . S
C256 C258 1.403 . S
C256 C262 1.439 . S
C257 N254 1.319 . S
C257 C255 1.397 . S
C257 H268 0.930 . S
C258 C255 1.367 . S
C258 C256 1.403 . S
C258 H279 0.929 . S
C259 C260 1.430 . S
C259 C261 1.387 . S
C259 C265 1.404 . S
C260 C253 1.448 . S
C260 C259 1.430 . S
C260 N264 1.351 . S
C261 C259 1.387 . S
C261 C262 1.374 . S
C261 H276 0.931 . S
C262 C256 1.439 . S
C262 C261 1.374 . S
C262 H277 0.931 . S
Eu263 N254 2.600 . S
Eu263 N264 2.562 . S
Eu263 O298 2.335 . S
Eu263 O301 2.372 . S
Eu263 O302 2.462 . S
Eu263 O303 2.373 . S
Eu263 O305 2.432 . S
Eu263 O306 2.291 . S
Eu263 C327 2.787 . S
N264 C260 1.351 . S
N264 Eu263 2.562 . S
N264 C266 1.325 . S
C265 C259 1.404 . S
C265 C267 1.366 . S
C265 H273 0.930 . S
C266 N264 1.325 . S
C266 C267 1.416 . S
C266 H272 0.929 . S
C267 C265 1.366 . S
C267 C266 1.416 . S
C267 H269 0.930 . S
H268 C257 0.930 . S
H269 C267 0.930 . S
H270 C285 0.930 . S
H271 C292 0.930 . S
H272 C266 0.929 . S
H273 C265 0.930 . S
H274 C288 0.929 . S
H275 C255 0.931 . S
H276 C261 0.931 . S
H277 C262 0.931 . S
H278 C283 0.931 . S
H279 C258 0.929 . S
H280 C291 0.930 . S
N281 Eu252 2.600 . S
N281 C282 1.365 . S
N281 C285 1.319 . S
C282 N281 1.365 . S
C282 C284 1.405 . S
C282 C290 1.448 . S
C283 H278 0.931 . S
C283 C285 1.397 . S
C283 C286 1.367 . S
C284 C282 1.405 . S
C284 C286 1.403 . S
C284 C317 1.439 . S
C285 H270 0.930 . S
C285 N281 1.319 . S
C285 C283 1.397 . S
C286 C283 1.367 . S
C286 C284 1.403 . S
C286 H293 0.929 . S
N287 Eu252 2.562 . S
N287 C288 1.325 . S
N287 C290 1.351 . S
C288 H274 0.929 . S
C288 N287 1.325 . S
C288 C292 1.416 . S
C289 C290 1.430 . S
C289 C291 1.404 . S
C289 C318 1.387 . S
C290 C282 1.448 . S
C290 N287 1.351 . S
C290 C289 1.430 . S
C291 H280 0.930 . S
C291 C289 1.404 . S
C291 C292 1.366 . S
C292 H271 0.930 . S
C292 C288 1.416 . S
C292 C291 1.366 . S
H293 C286 0.929 . S
H294 C317 0.931 . S
H295 C318 0.931 . S
O296 Eu252 2.462 . S
O296 C316 1.252 . S
O297 Eu252 2.373 . S
O297 C308 1.249 . S
O298 Eu263 2.335 . S
O298 C308 1.264 . S
O299 Eu252 2.432 . S
O299 C316 1.268 . S
O300 Eu252 2.291 . S
O300 C315 1.255 . S
O301 Eu263 2.372 . S
O301 C315 1.257 . S
O302 Eu263 2.462 . S
O302 C327 1.252 . S
O303 Eu263 2.373 . S
O303 C319 1.249 . S
O304 Eu252 2.335 . S
O304 C319 1.264 . S
O305 Eu263 2.432 . S
O305 C327 1.268 . S
O306 Eu263 2.291 . S
O306 C326 1.255 . S
O307 Eu252 2.372 . S
O307 C326 1.257 . S
C308 O297 1.249 . S
C308 O298 1.264 . S
C309 C312 1.382 . S
C309 C314 1.390 . S
C309 C316 1.506 . S
C310 C311 1.398 . S
C310 C314 1.392 . S
C311 C310 1.398 . S
C311 C313 1.372 . S
C311 H328 0.931 . S
C312 C309 1.382 . S
C312 C313 1.390 . S
C312 H329 0.931 . S
C313 C311 1.372 . S
C313 C312 1.390 . S
C313 H330 0.929 . S
C314 C309 1.390 . S
C314 C310 1.392 . S
C314 H331 0.930 . S
C315 O300 1.255 . S
C315 O301 1.257 . S
C316 Eu252 2.787 . S
C316 O296 1.252 . S
C316 O299 1.268 . S
C316 C309 1.506 . S
C317 C284 1.439 . S
C317 H294 0.931 . S
C317 C318 1.374 . S
C318 C289 1.387 . S
C318 H295 0.931 . S
C318 C317 1.374 . S
C319 O303 1.249 . S
C319 O304 1.264 . S
C320 C323 1.382 . S
C320 C324 1.390 . S
C320 C327 1.506 . S
C321 C322 1.398 . S
C321 C324 1.392 . S
C322 C321 1.398 . S
C322 C325 1.372 . S
C322 H332 0.931 . S
C323 C320 1.382 . S
C323 C325 1.390 . S
C323 H333 0.931 . S
C324 C320 1.390 . S
C324 C321 1.392 . S
C324 H334 0.930 . S
C325 C322 1.372 . S
C325 C323 1.390 . S
C325 H335 0.929 . S
C326 O306 1.255 . S
C326 O307 1.257 . S
C327 Eu263 2.787 . S
C327 O302 1.252 . S
C327 O305 1.268 . S
C327 C320 1.506 . S
H328 C311 0.931 . S
H329 C312 0.931 . S
H330 C313 0.929 . S
H331 C314 0.930 . S
H332 C322 0.931 . S
H333 C323 0.931 . S
H334 C324 0.930 . S
H335 C325 0.929 . S
C336 C337 1.363 1_554 S
C336 C342 1.379 . S
C336 N344 1.356 . S
C337 C336 1.363 1_556 S
C337 C343 1.363 . S
C338 C339 1.363 1_556 S
C338 C343 1.379 . S
C338 N345 1.356 . S
C339 C338 1.363 1_554 S
C339 C342 1.363 . S
N340 C342 1.356 . S
N340 H352 0.984 . S
N340 H353 0.985 . S
N341 C343 1.356 . S
N341 H346 0.984 . S
N341 H347 0.985 . S
C342 C336 1.379 . S
C342 C339 1.363 . S
C342 N340 1.356 . S
C343 C337 1.363 . S
C343 C338 1.379 . S
C343 N341 1.356 . S
N344 C336 1.356 . S
N344 H350 0.984 . S
N344 H351 0.984 . S
N345 C338 1.356 . S
N345 H348 0.984 . S
N345 H349 0.985 . S
H346 N341 0.984 . S
H347 N341 0.985 . S
H348 N345 0.984 . S
H349 N345 0.985 . S
H350 N344 0.984 . S
H351 N344 0.984 . S
H352 N340 0.984 . S
H353 N340 0.985 . S
C354 C355 1.363 1_556 S
C354 C360 1.379 . S
C354 N362 1.356 . S
C355 C354 1.363 1_554 S
C355 C361 1.363 . S
C356 C357 1.363 1_554 S
C356 C361 1.379 . S
C356 N363 1.356 . S
C357 C356 1.363 1_556 S
C357 C360 1.363 . S
N358 C360 1.356 . S
N358 H370 0.984 . S
N358 H371 0.985 . S
N359 C361 1.356 . S
N359 H364 0.984 . S
N359 H365 0.985 . S
C360 C354 1.379 . S
C360 C357 1.363 . S
C360 N358 1.356 . S
C361 C355 1.363 . S
C361 C356 1.379 . S
C361 N359 1.356 . S
N362 C354 1.356 . S
N362 H368 0.984 . S
N362 H369 0.984 . S
N363 C356 1.356 . S
N363 H366 0.984 . S
N363 H367 0.985 . S
H364 N359 0.984 . S
H365 N359 0.985 . S
H366 N363 0.984 . S
H367 N363 0.985 . S
H368 N362 0.984 . S
H369 N362 0.984 . S
H370 N358 0.984 . S
H371 N358 0.985 . S
C372 C373 1.363 . S
C372 C378 1.379 . S
C372 N380 1.356 . S
C373 C372 1.363 . S
C373 C379 1.363 . S
C374 C375 1.363 . S
C374 C379 1.379 . S
C374 N381 1.356 . S
C375 C374 1.363 . S
C375 C378 1.363 . S
N376 C378 1.356 . S
N376 H388 0.984 . S
N376 H389 0.985 . S
N377 C379 1.356 . S
N377 H382 0.984 . S
N377 H383 0.985 . S
C378 C372 1.379 . S
C378 C375 1.363 . S
C378 N376 1.356 . S
C379 C373 1.363 . S
C379 C374 1.379 . S
C379 N377 1.356 . S
N380 C372 1.356 . S
N380 H386 0.984 . S
N380 H387 0.984 . S
N381 C374 1.356 . S
N381 H384 0.984 . S
N381 H385 0.985 . S
H382 N377 0.984 . S
H383 N377 0.985 . S
H384 N381 0.984 . S
H385 N381 0.985 . S
H386 N380 0.984 . S
H387 N380 0.984 . S
H388 N376 0.984 . S
H389 N376 0.985 . S
C390 C391 1.363 . S
C390 C396 1.379 . S
C390 N398 1.356 . S
C391 C390 1.363 . S
C391 C397 1.363 . S
C392 C393 1.363 . S
C392 C397 1.379 . S
C392 N399 1.356 . S
C393 C392 1.363 . S
C393 C396 1.363 . S
N394 C396 1.356 . S
N394 H406 0.984 . S
N394 H407 0.985 . S
N395 C397 1.356 . S
N395 H400 0.984 . S
N395 H401 0.985 . S
C396 C390 1.379 . S
C396 C393 1.363 . S
C396 N394 1.356 . S
C397 C391 1.363 . S
C397 C392 1.379 . S
C397 N395 1.356 . S
N398 C390 1.356 . S
N398 H404 0.984 . S
N398 H405 0.984 . S
N399 C392 1.356 . S
N399 H402 0.984 . S
N399 H403 0.985 . S
H400 N395 0.984 . S
H401 N395 0.985 . S
H402 N399 0.984 . S
H403 N399 0.985 . S
H404 N398 0.984 . S
H405 N398 0.984 . S
H406 N394 0.984 . S
H407 N394 0.985 . S
C408 C409 1.370 . S
C408 C414 1.379 . S
C408 N416 1.356 . S
C409 C408 1.370 . S
C409 C415 1.357 1_566 S
C410 C411 1.363 . S
C410 C415 1.379 . S
C410 N417 1.356 . S
C411 C410 1.363 . S
C411 C414 1.363 1_544 S
N412 C414 1.356 . S
N412 H424 0.984 . S
N412 H425 0.985 . S
N413 C415 1.356 . S
N413 H418 0.984 . S
N413 H419 0.985 . S
C414 C408 1.379 . S
C414 C411 1.363 1_566 S
C414 N412 1.356 . S
C415 C409 1.357 1_544 S
C415 C410 1.379 . S
C415 N413 1.356 . S
N416 C408 1.356 . S
N416 H422 0.984 . S
N416 H423 0.984 . S
N417 C410 1.356 . S
N417 H420 0.984 . S
N417 H421 0.985 . S
H418 N413 0.984 . S
H419 N413 0.985 . S
H420 N417 0.984 . S
H421 N417 0.985 . S
H422 N416 0.984 . S
H423 N416 0.984 . S
H424 N412 0.984 . S
H425 N412 0.985 . S
C426 C427 1.363 1_565 S
C426 C432 1.379 . S
C426 N434 1.356 . S
C427 C426 1.363 1_545 S
C427 C433 1.363 . S
C428 C429 1.363 1_545 S
C428 C433 1.379 . S
C428 N435 1.356 . S
C429 C428 1.363 1_565 S
C429 C432 1.363 . S
N430 C432 1.356 . S
N430 H442 0.984 . S
N430 H443 0.985 . S
N431 C433 1.356 . S
N431 H436 0.984 . S
N431 H437 0.985 . S
C432 C426 1.379 . S
C432 C429 1.363 . S
C432 N430 1.356 . S
C433 C427 1.363 . S
C433 C428 1.379 . S
C433 N431 1.356 . S
N434 C426 1.356 . S
N434 H440 0.984 . S
N434 H441 0.984 . S
N435 C428 1.356 . S
N435 H438 0.984 . S
N435 H439 0.985 . S
H436 N431 0.984 . S
H437 N431 0.985 . S
H438 N435 0.984 . S
H439 N435 0.985 . S
H440 N434 0.984 . S
H441 N434 0.984 . S
H442 N430 0.984 . S
H443 N430 0.985 . S
C444 C445 1.370 . S
C444 C450 1.379 1_655 S
C444 N452 1.356 . S
C445 C444 1.370 . S
C445 C451 1.357 1_556 S
C446 C447 1.363 . S
C446 C451 1.379 1_455 S
C446 N453 1.356 . S
C447 C446 1.363 . S
C447 C450 1.363 1_554 S
N448 C450 1.356 . S
N448 H460 0.984 . S
N448 H461 0.985 . S
N449 C451 1.356 . S
N449 H454 0.984 . S
N449 H455 0.985 . S
C450 C444 1.379 1_455 S
C450 C447 1.363 1_556 S
C450 N448 1.356 . S
C451 C445 1.357 1_554 S
C451 C446 1.379 1_655 S
C451 N449 1.356 . S
N452 C444 1.356 . S
N452 H458 0.984 . S
N452 H459 0.984 . S
N453 C446 1.356 . S
N453 H456 0.984 . S
N453 H457 0.985 . S
H454 N449 0.984 . S
H455 N449 0.985 . S
H456 N453 0.984 . S
H457 N453 0.985 . S
H458 N452 0.984 . S
H459 N452 0.984 . S
H460 N448 0.984 . S
H461 N448 0.985 . S
C462 C463 1.363 . S
C462 C468 1.379 1_455 S
C462 N470 1.356 . S
C463 C462 1.363 . S
C463 C469 1.363 . S
C464 C465 1.363 . S
C464 C469 1.379 1_655 S
C464 N471 1.356 . S
C465 C464 1.363 . S
C465 C468 1.363 . S
N466 C468 1.356 . S
N466 H478 0.984 . S
N466 H479 0.985 . S
N467 C469 1.356 . S
N467 H472 0.984 . S
N467 H473 0.985 . S
C468 C462 1.379 1_655 S
C468 C465 1.363 . S
C468 N466 1.356 . S
C469 C463 1.363 . S
C469 C464 1.379 1_455 S
C469 N467 1.356 . S
N470 C462 1.356 . S
N470 H476 0.984 . S
N470 H477 0.984 . S
N471 C464 1.356 . S
N471 H474 0.984 . S
N471 H475 0.985 . S
H472 N467 0.984 . S
H473 N467 0.985 . S
H474 N471 0.984 . S
H475 N471 0.985 . S
H476 N470 0.984 . S
H477 N470 0.984 . S
H478 N466 0.984 . S
H479 N466 0.985 . S
C480 C481 1.363 1_465 S
C480 C486 1.379 . S
C480 N488 1.356 . S
C481 C480 1.363 1_645 S
C481 C487 1.363 . S
C482 C483 1.376 . S
C482 C487 1.379 . S
C482 N489 1.356 . S
C483 C482 1.376 . S
C483 C486 1.339 1_645 S
N484 C486 1.356 . S
N484 H496 0.984 . S
N484 H497 0.985 . S
N485 C487 1.356 . S
N485 H490 0.984 . S
N485 H491 0.985 . S
C486 C480 1.379 . S
C486 C483 1.339 1_465 S
C486 N484 1.356 . S
C487 C481 1.363 . S
C487 C482 1.379 . S
C487 N485 1.356 . S
N488 C480 1.356 . S
N488 H494 0.984 . S
N488 H495 0.984 . S
N489 C482 1.356 . S
N489 H492 0.984 . S
N489 H493 0.985 . S
H490 N485 0.984 . S
H491 N485 0.985 . S
H492 N489 0.984 . S
H493 N489 0.985 . S
H494 N488 0.984 . S
H495 N488 0.984 . S
H496 N484 0.984 . S
H497 N484 0.985 . S
C498 C499 1.363 1_655 S
C498 C504 1.379 . S
C498 N506 1.356 . S
C499 C498 1.363 1_455 S
C499 C505 1.363 1_545 S
C500 C501 1.342 1_565 S
C500 C505 1.379 . S
C500 N507 1.356 . S
C501 C500 1.342 1_545 S
C501 C504 1.373 1_455 S
N502 C504 1.356 . S
N502 H514 0.984 . S
N502 H515 0.985 . S
N503 C505 1.356 . S
N503 H508 0.984 . S
N503 H509 0.985 . S
C504 C498 1.379 . S
C504 C501 1.373 1_655 S
C504 N502 1.356 . S
C505 C499 1.363 1_565 S
C505 C500 1.379 . S
C505 N503 1.356 . S
N506 C498 1.356 . S
N506 H512 0.984 . S
N506 H513 0.984 . S
N507 C500 1.356 . S
N507 H510 0.984 . S
N507 H511 0.985 . S
H508 N503 0.984 . S
H509 N503 0.985 . S
H510 N507 0.984 . S
H511 N507 0.985 . S
H512 N506 0.984 . S
H513 N506 0.984 . S
H514 N502 0.984 . S
H515 N502 0.985 . S
C516 C517 1.363 . S
C516 C522 1.379 . S
C516 N524 1.356 . S
C517 C516 1.363 . S
C517 C523 1.363 . S
C518 C519 1.363 . S
C518 C523 1.379 . S
C518 N525 1.356 . S
C519 C518 1.363 . S
C519 C522 1.363 . S
N520 C522 1.356 . S
N520 H532 0.984 . S
N520 H533 0.985 . S
N521 C523 1.356 . S
N521 H526 0.984 . S
N521 H527 0.985 . S
C522 C516 1.379 . S
C522 C519 1.363 . S
C522 N520 1.356 . S
C523 C517 1.363 . S
C523 C518 1.379 . S
C523 N521 1.356 . S
N524 C516 1.356 . S
N524 H530 0.984 . S
N524 H531 0.984 . S
N525 C518 1.356 . S
N525 H528 0.984 . S
N525 H529 0.985 . S
H526 N521 0.984 . S
H527 N521 0.985 . S
H528 N525 0.984 . S
H529 N525 0.985 . S
H530 N524 0.984 . S
H531 N524 0.984 . S
H532 N520 0.984 . S
H533 N520 0.985 . S
C534 C535 1.363 . S
C534 C540 1.379 . S
C534 N542 1.356 . S
C535 C534 1.363 . S
C535 C541 1.363 . S
C536 C537 1.363 . S
C536 C541 1.379 . S
C536 N543 1.356 . S
C537 C536 1.363 . S
C537 C540 1.363 . S
N538 C540 1.356 . S
N538 H550 0.984 . S
N538 H551 0.985 . S
N539 C541 1.356 . S
N539 H544 0.984 . S
N539 H545 0.985 . S
C540 C534 1.379 . S
C540 C537 1.363 . S
C540 N538 1.356 . S
C541 C535 1.363 . S
C541 C536 1.379 . S
C541 N539 1.356 . S
N542 C534 1.356 . S
N542 H548 0.984 . S
N542 H549 0.984 . S
N543 C536 1.356 . S
N543 H546 0.984 . S
N543 H547 0.985 . S
H544 N539 0.984 . S
H545 N539 0.985 . S
H546 N543 0.984 . S
H547 N543 0.985 . S
H548 N542 0.984 . S
H549 N542 0.984 . S
H550 N538 0.984 . S
H551 N538 0.985 . S
C337 C237 1.473 1_556 S
C339 C58 1.473 1_554 S
C355 C226 1.473 1_554 S
C357 C69 1.473 1_556 S
C373 C142 1.473 . S
C375 C321 1.473 . S
C391 C153 1.473 . S
C393 C310 1.473 . S
C409 C67 1.994 1_556 S
C411 C56 1.995 1_554 S
C427 C151 1.995 . S
C429 C140 1.995 . S
C445 C235 1.994 1_556 S
C447 C224 1.995 1_554 S
C463 C308 1.995 . S
C465 C319 1.995 . S
C481 C147 1.480 1_545 S
C483 C63 1.493 . S
C499 C74 1.480 1_545 S
C501 C158 1.493 . S
C517 C315 1.480 . S
C519 C231 1.480 . S
C535 C326 1.480 . S
C537 C242 1.480 . S
