# Generated by pormake.
# Topology gsi, (4)-cn, num edge types: 1
# Building blocks:
#     Node 0, Type 0, BuildingBlock: GALJAG_clean_sbu_0, # of connection points: 4
#     Node 1, Type 0, BuildingBlock: GALJAG_clean_sbu_0, # of connection points: 4
#     Node 2, Type 0, BuildingBlock: GALJAG_clean_sbu_0, # of connection points: 4
#     Node 3, Type 0, BuildingBlock: GALJAG_clean_sbu_0, # of connection points: 4
#     Node 4, Type 0, BuildingBlock: GALJAG_clean_sbu_0, # of connection points: 4
#     Node 5, Type 0, BuildingBlock: GALJAG_clean_sbu_0, # of connection points: 4
#     Node 6, Type 0, BuildingBlock: GALJAG_clean_sbu_0, # of connection points: 4
#     Node 7, Type 0, BuildingBlock: GALJAG_clean_sbu_0, # of connection points: 4
#     Node 8, Type 0, BuildingBlock: GALJAG_clean_sbu_0, # of connection points: 4
#     Node 9, Type 0, BuildingBlock: GALJAG_clean_sbu_0, # of connection points: 4
#     Node 10, Type 0, BuildingBlock: GALJAG_clean_sbu_0, # of connection points: 4
#     Node 11, Type 0, BuildingBlock: GALJAG_clean_sbu_0, # of connection points: 4
#     Node 12, Type 0, BuildingBlock: GALJAG_clean_sbu_0, # of connection points: 4
#     Node 13, Type 0, BuildingBlock: GALJAG_clean_sbu_0, # of connection points: 4
#     Node 14, Type 0, BuildingBlock: GALJAG_clean_sbu_0, # of connection points: 4
#     Node 15, Type 0, BuildingBlock: GALJAG_clean_sbu_0, # of connection points: 4
#     Edge 16, Type (0, 0), BuildingBlock: AJUNOK_clean_linker_0, # of connection points: 2
#     Edge 17, Type (0, 0), BuildingBlock: AJUNOK_clean_linker_0, # of connection points: 2
#     Edge 18, Type (0, 0), BuildingBlock: AJUNOK_clean_linker_0, # of connection points: 2
#     Edge 19, Type (0, 0), BuildingBlock: AJUNOK_clean_linker_0, # of connection points: 2
#     Edge 20, Type (0, 0), BuildingBlock: AJUNOK_clean_linker_0, # of connection points: 2
#     Edge 21, Type (0, 0), BuildingBlock: AJUNOK_clean_linker_0, # of connection points: 2
#     Edge 22, Type (0, 0), BuildingBlock: AJUNOK_clean_linker_0, # of connection points: 2
#     Edge 23, Type (0, 0), BuildingBlock: AJUNOK_clean_linker_0, # of connection points: 2
#     Edge 24, Type (0, 0), BuildingBlock: AJUNOK_clean_linker_0, # of connection points: 2
#     Edge 25, Type (0, 0), BuildingBlock: AJUNOK_clean_linker_0, # of connection points: 2
#     Edge 26, Type (0, 0), BuildingBlock: AJUNOK_clean_linker_0, # of connection points: 2
#     Edge 27, Type (0, 0), BuildingBlock: AJUNOK_clean_linker_0, # of connection points: 2
#     Edge 28, Type (0, 0), BuildingBlock: AJUNOK_clean_linker_0, # of connection points: 2
#     Edge 29, Type (0, 0), BuildingBlock: AJUNOK_clean_linker_0, # of connection points: 2
#     Edge 30, Type (0, 0), BuildingBlock: AJUNOK_clean_linker_0, # of connection points: 2
#     Edge 31, Type (0, 0), BuildingBlock: AJUNOK_clean_linker_0, # of connection points: 2
#     Edge 32, Type (0, 0), BuildingBlock: AJUNOK_clean_linker_0, # of connection points: 2
#     Edge 33, Type (0, 0), BuildingBlock: AJUNOK_clean_linker_0, # of connection points: 2
#     Edge 34, Type (0, 0), BuildingBlock: AJUNOK_clean_linker_0, # of connection points: 2
#     Edge 35, Type (0, 0), BuildingBlock: AJUNOK_clean_linker_0, # of connection points: 2
#     Edge 36, Type (0, 0), BuildingBlock: AJUNOK_clean_linker_0, # of connection points: 2
#     Edge 37, Type (0, 0), BuildingBlock: AJUNOK_clean_linker_0, # of connection points: 2
#     Edge 38, Type (0, 0), BuildingBlock: AJUNOK_clean_linker_0, # of connection points: 2
#     Edge 39, Type (0, 0), BuildingBlock: AJUNOK_clean_linker_0, # of connection points: 2
#     Edge 40, Type (0, 0), BuildingBlock: AJUNOK_clean_linker_0, # of connection points: 2
#     Edge 41, Type (0, 0), BuildingBlock: AJUNOK_clean_linker_0, # of connection points: 2
#     Edge 42, Type (0, 0), BuildingBlock: AJUNOK_clean_linker_0, # of connection points: 2
#     Edge 43, Type (0, 0), BuildingBlock: AJUNOK_clean_linker_0, # of connection points: 2
#     Edge 44, Type (0, 0), BuildingBlock: AJUNOK_clean_linker_0, # of connection points: 2
#     Edge 45, Type (0, 0), BuildingBlock: AJUNOK_clean_linker_0, # of connection points: 2
#     Edge 46, Type (0, 0), BuildingBlock: AJUNOK_clean_linker_0, # of connection points: 2
#     Edge 47, Type (0, 0), BuildingBlock: AJUNOK_clean_linker_0, # of connection points: 2
# Relax obj value: 0.227
# Max RMSD: 0.210
# Mean RMSD: 0.172
data_MOF--net-gsi--node1-GALJAG_clean_sbu_0--edge1-AJUNOK_clean_linker_0
_symmetry_space_group_name_H-M    P1
_symmetry_Int_Tables_number       1
_symmetry_cell_setting            triclinic
loop_
_symmetry_equiv_pos_as_xyz
'x, y, z'
_cell_length_a     29.959827
_cell_length_b     29.252857
_cell_length_c     33.11962
_cell_angle_alpha  89.9227
_cell_angle_beta   89.896018
_cell_angle_gamma 104.22215
loop_
_atom_site_label
_atom_site_type_symbol
_atom_site_fract_x
_atom_site_fract_y
_atom_site_fract_z
_atom_type_partial_charge
In0 In 0.14446 0.15237 0.1298 0.0
O1 O 0.20335 0.16662 0.08513 0.0
O2 O 0.14429 0.11289 0.0694 0.0
C3 C 0.18977 0.20643 0.18903 0.0
C4 C 0.07677 0.1967 0.1133 0.0
C5 C 0.14459 0.07626 0.17572 0.0
O6 O 0.20509 0.20856 0.15329 0.0
O7 O 0.15003 0.17986 0.19382 0.0
O8 O 0.10713 0.08479 0.16428 0.0
O9 O 0.18027 0.10325 0.16119 0.0
C10 C 0.18494 0.13491 0.06046 0.0
O11 O 0.06852 0.15287 0.12019 0.0
O12 O 0.11898 0.21737 0.11326 0.0
In13 In 0.87349 0.35411 0.13448 0.0
O14 O 0.94765 0.34935 0.11979 0.0
O15 O 0.89479 0.28627 0.12023 0.0
C16 C 0.88493 0.43585 0.17614 0.0
C17 C 0.83325 0.36989 0.06474 0.0
C18 C 0.81954 0.30499 0.19259 0.0
O19 O 0.90883 0.40673 0.18315 0.0
O20 O 0.85869 0.42561 0.14613 0.0
O21 O 0.80621 0.30524 0.15646 0.0
O22 O 0.86041 0.32776 0.19864 0.0
C23 C 0.93711 0.30496 0.11605 0.0
O24 O 0.81274 0.34247 0.09208 0.0
O25 O 0.87531 0.3886 0.07185 0.0
In26 In 0.18095 0.87216 0.34708 0.0
O27 O 0.13082 0.80095 0.35202 0.0
O28 O 0.10767 0.86025 0.37195 0.0
C29 C 0.22123 0.81793 0.30113 0.0
C30 C 0.16462 0.94139 0.29915 0.0
C31 C 0.2321 0.89441 0.41493 0.0
O32 O 0.20447 0.80564 0.3355 0.0
O33 O 0.219 0.85864 0.2902 0.0
O34 O 0.24993 0.89451 0.38044 0.0
O35 O 0.1888 0.88638 0.41471 0.0
C36 C 0.09837 0.81614 0.36654 0.0
O37 O 0.19544 0.94915 0.32606 0.0
O38 O 0.14172 0.89916 0.29723 0.0
In39 In 0.8345 0.63377 0.34878 0.0
O40 O 0.88089 0.70422 0.36611 0.0
O41 O 0.91152 0.64618 0.36044 0.0
C42 C 0.79138 0.68927 0.30768 0.0
C43 C 0.84873 0.56866 0.29492 0.0
C44 C 0.78764 0.61396 0.41952 0.0
O45 O 0.83418 0.70007 0.3139 0.0
O46 O 0.77004 0.65003 0.32227 0.0
O47 O 0.76846 0.60282 0.38586 0.0
O48 O 0.83042 0.63076 0.41719 0.0
C49 C 0.9171 0.68964 0.36777 0.0
O50 O 0.84917 0.56167 0.33257 0.0
O51 O 0.83999 0.60704 0.28525 0.0
In52 In 0.36524 0.84661 0.63131 0.0
O53 O 0.4403 0.84201 0.62275 0.0
O54 O 0.38733 0.77962 0.61513 0.0
C55 C 0.36725 0.92327 0.67713 0.0
C56 C 0.32925 0.86658 0.56061 0.0
C57 C 0.31644 0.79342 0.68958 0.0
O58 O 0.40415 0.91262 0.66675 0.0
O59 O 0.33128 0.89806 0.66164 0.0
O60 O 0.30206 0.79247 0.65364 0.0
O61 O 0.35674 0.81836 0.69508 0.0
C62 C 0.42999 0.79817 0.61562 0.0
O63 O 0.30813 0.83587 0.58517 0.0
O64 O 0.36996 0.88672 0.57081 0.0
In65 In 0.86255 0.84309 0.87587 0.0
O66 O 0.89644 0.9024 0.83146 0.0
O67 O 0.83342 0.90514 0.85922 0.0
C68 C 0.93256 0.80073 0.8894 0.0
C69 C 0.82381 0.84933 0.94874 0.0
C70 C 0.80781 0.79164 0.81995 0.0
O71 O 0.93863 0.84509 0.89063 0.0
O72 O 0.89168 0.77873 0.88234 0.0
O73 O 0.79496 0.79462 0.85591 0.0
O74 O 0.84896 0.81308 0.81274 0.0
C75 C 0.86377 0.92268 0.83346 0.0
O76 O 0.811 0.81506 0.92493 0.0
O77 O 0.85828 0.88073 0.93655 0.0
In78 In 0.14415 0.65238 0.87473 0.0
O79 O 0.20134 0.66131 0.92079 0.0
O80 O 0.13884 0.61157 0.93497 0.0
C81 C 0.19318 0.71039 0.81937 0.0
C82 C 0.14439 0.57695 0.8278 0.0
C83 C 0.07687 0.69792 0.88979 0.0
O84 O 0.20596 0.7102 0.8557 0.0
O85 O 0.15427 0.68342 0.81181 0.0
O86 O 0.06814 0.65493 0.87974 0.0
O87 O 0.11918 0.71702 0.89361 0.0
C88 C 0.17976 0.63075 0.9452 0.0
O89 O 0.10699 0.58481 0.84028 0.0
O90 O 0.18011 0.60469 0.84131 0.0
In91 In 0.82521 0.12484 0.66002 0.0
O92 O 0.87076 0.19759 0.64589 0.0
O93 O 0.90242 0.14016 0.64881 0.0
C94 C 0.79262 0.18338 0.70789 0.0
C95 C 0.77973 0.10433 0.58865 0.0
C96 C 0.83003 0.05115 0.7087 0.0
O97 O 0.82965 0.17174 0.71511 0.0
O98 O 0.77199 0.16539 0.67635 0.0
O99 O 0.85717 0.06407 0.67944 0.0
O100 O 0.79856 0.07265 0.71102 0.0
C101 C 0.90744 0.18391 0.64354 0.0
O102 O 0.75951 0.09613 0.62225 0.0
O103 O 0.82272 0.11895 0.59144 0.0
In104 In 0.1736 0.36471 0.66111 0.0
O105 O 0.18013 0.37518 0.59284 0.0
O106 O 0.24183 0.38939 0.62671 0.0
C107 C 0.16077 0.43573 0.70883 0.0
C108 C 0.08928 0.3103 0.64486 0.0
C109 C 0.21584 0.30899 0.70361 0.0
O110 O 0.18969 0.44238 0.68028 0.0
O111 O 0.138 0.39363 0.71269 0.0
O112 O 0.19839 0.29824 0.66934 0.0
O113 O 0.2129 0.34878 0.7164 0.0
C114 C 0.22355 0.38603 0.59226 0.0
O115 O 0.12126 0.29471 0.65973 0.0
O116 O 0.09978 0.35409 0.63753 0.0
In117 In 0.64376 0.15596 0.37422 0.0
O118 O 0.60728 0.10061 0.32776 0.0
O119 O 0.67029 0.09389 0.35291 0.0
C120 C 0.57667 0.20047 0.39283 0.0
C121 C 0.68247 0.13585 0.44357 0.0
C122 C 0.69659 0.21303 0.31989 0.0
O123 O 0.56819 0.15635 0.38752 0.0
O124 O 0.61873 0.22114 0.39029 0.0
O125 O 0.70807 0.21167 0.35643 0.0
O126 O 0.65749 0.18725 0.31139 0.0
C127 C 0.63897 0.07898 0.32747 0.0
O128 O 0.70268 0.16617 0.41827 0.0
O129 O 0.64091 0.11655 0.43514 0.0
In130 In 0.63956 0.64849 0.63238 0.0
O131 O 0.56363 0.64711 0.6184 0.0
O132 O 0.61264 0.7131 0.6192 0.0
C133 C 0.63938 0.56912 0.67476 0.0
C134 C 0.68162 0.63745 0.56226 0.0
C135 C 0.68793 0.70174 0.69084 0.0
O136 O 0.60571 0.58804 0.67597 0.0
O137 O 0.67028 0.58794 0.64992 0.0
O138 O 0.70263 0.70228 0.65507 0.0
O139 O 0.64802 0.67602 0.69643 0.0
C140 C 0.57102 0.69148 0.61524 0.0
O141 O 0.69787 0.66895 0.58788 0.0
O142 O 0.64189 0.61226 0.57075 0.0
In143 In 0.68371 0.37145 0.8503 0.0
O144 O 0.63728 0.29912 0.86345 0.0
O145 O 0.60662 0.35735 0.8625 0.0
C146 C 0.72048 0.31294 0.80603 0.0
C147 C 0.67644 0.44247 0.79952 0.0
C148 C 0.73047 0.39387 0.92071 0.0
O149 O 0.74049 0.33455 0.83646 0.0
O150 O 0.68203 0.3211 0.79796 0.0
O151 O 0.74813 0.40783 0.88692 0.0
O152 O 0.68865 0.37237 0.9189 0.0
C153 C 0.60104 0.31338 0.86686 0.0
O154 O 0.65299 0.43346 0.83151 0.0
O155 O 0.70539 0.41818 0.79511 0.0
In156 In 0.3362 0.13078 0.84722 0.0
O157 O 0.38705 0.20185 0.85002 0.0
O158 O 0.40983 0.14272 0.871 0.0
C159 C 0.29394 0.1837 0.80162 0.0
C160 C 0.35067 0.0603 0.79973 0.0
C161 C 0.28657 0.10973 0.91636 0.0
O162 O 0.31201 0.19714 0.83524 0.0
O163 O 0.29643 0.14293 0.79123 0.0
O164 O 0.26802 0.10976 0.88227 0.0
O165 O 0.32978 0.11696 0.91509 0.0
C166 C 0.41948 0.18667 0.86458 0.0
O167 O 0.32016 0.05347 0.827 0.0
O168 O 0.37431 0.10223 0.79725 0.0
In169 In 0.36109 0.34246 0.37652 0.0
O170 O 0.30468 0.32762 0.42361 0.0
O171 O 0.36369 0.38281 0.43661 0.0
C172 C 0.3108 0.28654 0.32067 0.0
C173 C 0.35944 0.41808 0.33003 0.0
C174 C 0.43075 0.3008 0.3929 0.0
O175 O 0.29812 0.28612 0.35709 0.0
O176 O 0.35016 0.3127 0.31335 0.0
O177 O 0.4374 0.34487 0.38804 0.0
O178 O 0.38912 0.27844 0.39066 0.0
C179 C 0.324 0.35988 0.44753 0.0
O180 O 0.39565 0.40347 0.33362 0.0
O181 O 0.32687 0.39753 0.35264 0.0
In182 In 0.32361 0.62394 0.16095 0.0
O183 O 0.38349 0.67752 0.18735 0.0
O184 O 0.38815 0.66061 0.12529 0.0
C185 C 0.28514 0.68403 0.20157 0.0
C186 C 0.27426 0.60234 0.09212 0.0
C187 C 0.33308 0.54712 0.20309 0.0
O188 O 0.29986 0.69179 0.16593 0.0
O189 O 0.28854 0.64519 0.21619 0.0
O190 O 0.29497 0.55699 0.19741 0.0
O191 O 0.36627 0.57407 0.18487 0.0
C192 C 0.40635 0.68533 0.155 0.0
O193 O 0.31736 0.60794 0.09329 0.0
O194 O 0.25589 0.60474 0.12601 0.0
In195 In 0.67153 0.86736 0.1639 0.0
O196 O 0.71767 0.90466 0.11107 0.0
O197 O 0.69441 0.83021 0.1112 0.0
C198 C 0.66824 0.94626 0.20517 0.0
C199 C 0.58267 0.82186 0.15584 0.0
C200 C 0.70845 0.81212 0.21174 0.0
O201 O 0.69754 0.92281 0.21183 0.0
O202 O 0.64289 0.93246 0.17496 0.0
O203 O 0.66669 0.80204 0.2018 0.0
O204 O 0.73205 0.8506 0.19753 0.0
C205 C 0.71781 0.86626 0.09357 0.0
O206 O 0.60316 0.82861 0.18932 0.0
O207 O 0.60666 0.84003 0.12577 0.0
C208 C 0.2624 0.25779 0.21591 0.0
C209 C 0.21877 0.22784 0.22334 0.0
C210 C 0.29238 0.27541 0.24763 0.0
C211 C 0.27989 0.26373 0.28801 0.0
H212 H 0.27371 0.26757 0.18531 0.0
H213 H 0.32538 0.29893 0.24035 0.0
S214 S 0.17024 0.18488 0.32362 0.0
N215 N 0.16492 0.18606 0.27407 0.0
N216 N 0.22142 0.21938 0.33373 0.0
C217 C 0.23651 0.23349 0.29592 0.0
C218 C 0.20587 0.21557 0.26358 0.0
C219 C 0.74371 0.25695 0.2171 0.0
C220 C 0.78898 0.28212 0.22567 0.0
C221 C 0.71373 0.23577 0.24796 0.0
C222 C 0.72788 0.23905 0.28857 0.0
H223 H 0.73127 0.25338 0.18629 0.0
H224 H 0.67937 0.21618 0.23977 0.0
S225 S 0.84262 0.30227 0.32723 0.0
N226 N 0.84633 0.3101 0.27787 0.0
N227 N 0.78991 0.27024 0.33585 0.0
C228 C 0.77288 0.26466 0.29767 0.0
C229 C 0.80347 0.28616 0.26622 0.0
C230 C 0.25083 0.70671 0.26452 0.0
C231 C 0.26834 0.71886 0.22554 0.0
C232 C 0.23637 0.73934 0.28881 0.0
C233 C 0.2389 0.78543 0.2751 0.0
H234 H 0.24828 0.67168 0.27652 0.0
H235 H 0.22284 0.72809 0.31853 0.0
S236 S 0.28301 0.83533 0.17557 0.0
N237 N 0.28808 0.78041 0.17437 0.0
N238 N 0.26074 0.84188 0.22019 0.0
C239 C 0.25653 0.79823 0.23623 0.0
C240 C 0.27124 0.76488 0.21139 0.0
C241 C 0.79564 0.76262 0.26819 0.0
C242 C 0.76879 0.7202 0.28437 0.0
C243 C 0.77573 0.79236 0.24509 0.0
C244 C 0.72823 0.78079 0.23729 0.0
H245 H 0.8325 0.77291 0.27311 0.0
H246 H 0.79789 0.82444 0.23299 0.0
S247 S 0.64242 0.67443 0.27383 0.0
N248 N 0.69206 0.66857 0.29181 0.0
N249 N 0.65447 0.7245 0.24834 0.0
C250 C 0.7008 0.73875 0.25371 0.0
C251 C 0.72112 0.70844 0.27728 0.0
C252 C 0.24389 0.74023 0.71528 0.0
C253 C 0.28632 0.772 0.72333 0.0
C254 C 0.21332 0.72171 0.74653 0.0
C255 C 0.22401 0.73441 0.78699 0.0
H256 H 0.23418 0.72945 0.68459 0.0
H257 H 0.18146 0.69652 0.73891 0.0
S258 S 0.32939 0.8189 0.82389 0.0
N259 N 0.33669 0.81711 0.77456 0.0
N260 N 0.27906 0.78222 0.83332 0.0
C261 C 0.26598 0.76678 0.79544 0.0
C262 C 0.29722 0.78554 0.76361 0.0
C263 C 0.76262 0.7503 0.71639 0.0
C264 C 0.71682 0.72592 0.72418 0.0
C265 C 0.7919 0.77084 0.74771 0.0
C266 C 0.77647 0.76785 0.78797 0.0
H267 H 0.77622 0.75318 0.68591 0.0
H268 H 0.82688 0.78937 0.74018 0.0
S269 S 0.65941 0.70819 0.82444 0.0
N270 N 0.65719 0.70008 0.77511 0.0
N271 N 0.71233 0.73889 0.83402 0.0
C272 C 0.73067 0.7438 0.79622 0.0
C273 C 0.7008 0.72282 0.76429 0.0
C274 C 0.71691 0.25988 0.7468 0.0
C275 C 0.73994 0.28016 0.78182 0.0
C276 C 0.7342 0.22853 0.72319 0.0
C277 C 0.77514 0.2162 0.73375 0.0
H278 H 0.68525 0.26831 0.73738 0.0
H279 H 0.71528 0.21397 0.69641 0.0
S280 S 0.84824 0.25896 0.82302 0.0
N281 N 0.80562 0.28539 0.82623 0.0
N282 N 0.83816 0.22633 0.78185 0.0
C283 C 0.79849 0.23605 0.76881 0.0
C284 C 0.78088 0.26809 0.79285 0.0
C285 C 0.25502 0.29052 0.76569 0.0
C286 C 0.23611 0.27657 0.72755 0.0
C287 C 0.2733 0.26002 0.78948 0.0
C288 C 0.2733 0.2144 0.77606 0.0
H289 H 0.25566 0.32524 0.77738 0.0
H290 H 0.28763 0.27246 0.81862 0.0
S291 S 0.22762 0.16063 0.67845 0.0
N292 N 0.21834 0.21394 0.67736 0.0
N293 N 0.2527 0.15665 0.72219 0.0
C294 C 0.25447 0.19993 0.73798 0.0
C295 C 0.2359 0.23102 0.71368 0.0
C296 C 0.1217 0.96638 0.24153 0.0
C297 C 0.1578 0.9776 0.26997 0.0
C298 C 0.11658 0.99869 0.21148 0.0
C299 C 0.14795 0.04288 0.2084 0.0
H300 H 0.09753 0.93211 0.24208 0.0
H301 H 0.08879 0.98854 0.18989 0.0
S302 S 0.24534 0.09164 0.27761 0.0
N303 N 0.22303 0.03784 0.29479 0.0
N304 N 0.21396 0.09793 0.23806 0.0
C305 C 0.18321 0.05513 0.23735 0.0
C306 C 0.188 0.02267 0.26821 0.0
C307 C 0.89218 0.46996 0.24589 0.0
C308 C 0.88072 0.47332 0.20494 0.0
C309 C 0.88139 0.50056 0.275 0.0
C310 C 0.85925 0.53596 0.26412 0.0
H311 H 0.90804 0.44238 0.25584 0.0
H312 H 0.89037 0.49635 0.30621 0.0
S313 S 0.82357 0.56064 0.16056 0.0
N314 N 0.8471 0.51561 0.15491 0.0
N315 N 0.82736 0.57328 0.20917 0.0
C316 C 0.84871 0.54039 0.22307 0.0
C317 C 0.85933 0.50907 0.19361 0.0
C318 C 0.2122 0.1002 0.95433 0.0
C319 C 0.26066 0.10933 0.95466 0.0
C320 C 0.18745 0.10678 0.98907 0.0
C321 C 0.21043 0.1237 0.02503 0.0
H322 H 0.19329 0.0892 0.92672 0.0
H323 H 0.15033 0.10045 0.98728 0.0
S324 S 0.33631 0.14839 0.04316 0.0
N325 N 0.33013 0.1323 0.99535 0.0
N326 N 0.28384 0.14562 0.06001 0.0
C327 C 0.25859 0.13103 0.02626 0.0
C328 C 0.28365 0.12355 0.99126 0.0
C329 C 0.76025 0.36458 0.02704 0.0
C330 C 0.80855 0.38013 0.02829 0.0
C331 C 0.73534 0.37177 0.99293 0.0
C332 C 0.75759 0.39453 0.95831 0.0
H333 H 0.7413 0.34603 0.05251 0.0
H334 H 0.69833 0.35784 0.99334 0.0
S335 S 0.88341 0.44477 0.9468 0.0
N336 N 0.87768 0.42178 0.99266 0.0
N337 N 0.83082 0.43477 0.92809 0.0
C338 C 0.8058 0.41181 0.95954 0.0
C339 C 0.83126 0.40471 0.99459 0.0
C340 C 0.25806 0.86851 0.52294 0.0
C341 C 0.30643 0.87868 0.52391 0.0
C342 C 0.23458 0.87667 0.48825 0.0
C343 C 0.25846 0.89455 0.45278 0.0
H344 H 0.23797 0.85348 0.54911 0.0
H345 H 0.19728 0.86687 0.48883 0.0
S346 S 0.38547 0.92994 0.4403 0.0
N347 N 0.37767 0.91045 0.48727 0.0
N348 N 0.33346 0.92468 0.4214 0.0
C349 C 0.30695 0.90646 0.45369 0.0
C350 C 0.33095 0.89883 0.48942 0.0
C351 C 0.68789 0.6024 0.49361 0.0
C352 C 0.70894 0.62932 0.52672 0.0
C353 C 0.71371 0.59594 0.45945 0.0
C354 C 0.76162 0.6154 0.45755 0.0
H355 H 0.65107 0.58717 0.49365 0.0
H356 H 0.69587 0.57634 0.43407 0.0
S357 S 0.83369 0.68604 0.53767 0.0
N358 N 0.78093 0.67374 0.55615 0.0
N359 N 0.82922 0.66098 0.4928 0.0
C360 C 0.78321 0.64089 0.49118 0.0
C361 C 0.75695 0.64804 0.5255 0.0
C362 C 0.01899 0.29893 0.10911 0.0
C363 C 0.97175 0.27655 0.1108 0.0
C364 C 0.05251 0.27274 0.10835 0.0
C365 C 0.04026 0.22302 0.10943 0.0
H366 H 0.03033 0.33706 0.10943 0.0
H367 H 0.08842 0.29179 0.10816 0.0
S368 S 0.92118 0.14707 0.1108 0.0
N369 N 0.91439 0.20138 0.11102 0.0
N370 N 0.97732 0.15244 0.10987 0.0
C371 C 0.99313 0.20015 0.10959 0.0
C372 C 0.95895 0.22681 0.1102 0.0
C373 C 1.00255 0.70483 0.36891 0.0
C374 C 0.96295 0.72189 0.37367 0.0
C375 C 0.04638 0.73558 0.36855 0.0
C376 C 0.0523 0.78454 0.37308 0.0
H377 H 0.99969 0.66765 0.36382 0.0
H378 H 0.07574 0.72089 0.36332 0.0
S379 S 0.95999 0.84656 0.39096 0.0
N380 N 0.93256 0.79051 0.38644 0.0
N381 N 0.0152 0.84832 0.38577 0.0
C382 C 0.01323 0.80184 0.38023 0.0
C383 C 0.96847 0.77049 0.3805 0.0
C384 C 0.54597 0.76702 0.61186 0.0
C385 C 0.53416 0.71729 0.61099 0.0
C386 C 0.51218 0.79282 0.61213 0.0
C387 C 0.46503 0.77009 0.61134 0.0
H388 H 0.58173 0.78638 0.61346 0.0
H389 H 0.5232 0.83091 0.61387 0.0
S390 S 0.41559 0.64057 0.60625 0.0
N391 N 0.4718 0.64638 0.6074 0.0
N392 N 0.40826 0.69468 0.60762 0.0
C393 C 0.45267 0.7204 0.60897 0.0
C394 C 0.48719 0.69409 0.60886 0.0
C395 C 0.8755 0.99739 0.73798 0.0
C396 C 0.83772 0.01796 0.74051 0.0
C397 C 0.88494 0.96816 0.76891 0.0
C398 C 0.85704 0.95845 0.80367 0.0
H399 H 0.89804 0.00388 0.71189 0.0
H400 H 0.91376 0.9523 0.76512 0.0
S401 S 0.75501 0.00519 0.82596 0.0
N402 N 0.77299 0.02748 0.78132 0.0
N403 N 0.79078 0.97305 0.83925 0.0
C404 C 0.81963 0.97947 0.80686 0.0
C405 C 0.80992 0.009 0.77536 0.0
C406 C 0.11423 0.49875 0.79375 0.0
C407 C 0.14734 0.5419 0.79639 0.0
C408 C 0.11852 0.46482 0.76493 0.0
C409 C 0.1555 0.47331 0.73721 0.0
H410 H 0.08555 0.49069 0.81471 0.0
H411 H 0.09281 0.43153 0.76459 0.0
S412 S 0.24878 0.58309 0.72926 0.0
N413 N 0.21671 0.59266 0.76737 0.0
N414 N 0.22425 0.52951 0.71298 0.0
C415 C 0.18781 0.51716 0.73867 0.0
C416 C 0.18386 0.55127 0.76833 0.0
C417 C 0.77962 0.90034 0.04247 0.0
C418 C 0.74419 0.86243 0.05622 0.0
C419 C 0.80614 0.89573 0.00822 0.0
C420 C 0.7979 0.85316 0.98639 0.0
H421 H 0.78727 0.9336 0.05849 0.0
H422 H 0.83287 0.92588 0.99855 0.0
S423 S 0.70847 0.74355 0.00957 0.0
N424 N 0.70201 0.7811 0.04489 0.0
N425 N 0.75145 0.77249 0.98113 0.0
C426 C 0.76244 0.81513 0.99987 0.0
C427 C 0.73569 0.81976 0.03458 0.0
C428 C 0.25043 0.62814 0.98357 0.0
C429 C 0.20206 0.61818 0.98203 0.0
C430 C 0.27333 0.61984 0.01859 0.0
C431 C 0.24882 0.60206 0.05377 0.0
H432 H 0.27095 0.64322 0.95763 0.0
H433 H 0.31064 0.6296 0.01857 0.0
S434 S 0.12162 0.56691 0.0647 0.0
N435 N 0.13021 0.5865 0.01781 0.0
N436 N 0.17331 0.57199 0.08422 0.0
C437 C 0.20036 0.59025 0.05224 0.0
C438 C 0.17696 0.598 0.01622 0.0
C439 C 0.68284 0.10376 0.51416 0.0
C440 C 0.70695 0.1232 0.4792 0.0
C441 C 0.70647 0.09534 0.54902 0.0
C442 C 0.75497 0.10537 0.54991 0.0
H443 H 0.64563 0.0967 0.51511 0.0
H444 H 0.68663 0.08242 0.57586 0.0
S445 S 0.83364 0.15075 0.46419 0.0
N446 N 0.7817 0.14823 0.4464 0.0
N447 N 0.82582 0.13175 0.51121 0.0
C448 C 0.77916 0.12218 0.51425 0.0
C449 C 0.75523 0.13131 0.47912 0.0
C450 C 0.22721 0.36418 0.51995 0.0
C451 C 0.25017 0.38599 0.55448 0.0
C452 C 0.25162 0.35643 0.48563 0.0
C453 C 0.29998 0.3709 0.48403 0.0
H454 H 0.1901 0.35114 0.51991 0.0
H455 H 0.23228 0.33846 0.4602 0.0
S456 S 0.37645 0.43315 0.56503 0.0
N457 N 0.32408 0.42418 0.58427 0.0
N458 N 0.36993 0.41068 0.51905 0.0
C459 C 0.32338 0.39475 0.51755 0.0
C460 C 0.29849 0.40199 0.55294 0.0
C461 C 0.9941 0.70137 0.88856 0.0
C462 C 0.0407 0.72472 0.89359 0.0
C463 C 0.95956 0.72624 0.88845 0.0
C464 C 0.97004 0.77563 0.89319 0.0
H465 H 0.98415 0.66359 0.88386 0.0
H466 H 0.92435 0.70648 0.88368 0.0
S467 S 0.08652 0.85349 0.90955 0.0
N468 N 0.09537 0.80018 0.90522 0.0
N469 N 0.03043 0.84676 0.90476 0.0
C470 C 0.01635 0.79935 0.8994 0.0
C471 C 0.05163 0.77396 0.89967 0.0
C472 C 0.03676 0.23016 0.64178 0.0
C473 C 0.04277 0.27931 0.63915 0.0
C474 C 0.99288 0.19955 0.64138 0.0
C475 C 0.95321 0.21686 0.63861 0.0
H476 H 0.06618 0.21513 0.64522 0.0
H477 H 0.9901 0.16209 0.64465 0.0
S478 S 0.95029 0.3425 0.62794 0.0
N479 N 0.0056 0.34387 0.63115 0.0
N480 N 0.92277 0.28626 0.6306 0.0
C481 C 0.95872 0.26584 0.63418 0.0
C482 C 1.0036 0.29709 0.63436 0.0
C483 C 0.4934 0.20231 0.39662 0.0
C484 C 0.54014 0.22663 0.39763 0.0
C485 C 0.45837 0.22661 0.39658 0.0
C486 C 0.46855 0.27629 0.39741 0.0
H487 H 0.48371 0.16419 0.3947 0.0
H488 H 0.423 0.20617 0.39467 0.0
S489 S 0.58529 0.35672 0.40358 0.0
N490 N 0.59462 0.30342 0.40212 0.0
N491 N 0.52885 0.34883 0.4018 0.0
C492 C 0.51506 0.30101 0.40002 0.0
C493 C 0.55078 0.27628 0.4002 0.0
C494 C 0.61966 0.52443 0.73988 0.0
C495 C 0.64655 0.53352 0.7045 0.0
C496 C 0.62999 0.4957 0.77083 0.0
C497 C 0.66758 0.47492 0.76758 0.0
H498 H 0.59108 0.54053 0.74418 0.0
H499 H 0.60829 0.48972 0.79747 0.0
S500 S 0.74787 0.48638 0.68043 0.0
N501 N 0.71171 0.5183 0.66766 0.0
N502 N 0.73112 0.46475 0.72553 0.0
C503 C 0.6943 0.48324 0.73208 0.0
C504 C 0.68376 0.51233 0.70064 0.0
C505 C 0.39384 0.03252 0.74357 0.0
C506 C 0.35632 0.02343 0.77077 0.0
C507 C 0.39813 -0.00032 0.71374 0.0
C508 C 0.36447 0.95716 0.70954 0.0
H509 H 0.41989 0.06552 0.74501 0.0
H510 H 0.42718 0.00818 0.6932 0.0
S511 S 0.26192 0.91426 0.77505 0.0
N512 N 0.28679 0.96692 0.79308 0.0
N513 N 0.29427 0.90596 0.73671 0.0
C514 C 0.32755 0.94704 0.73717 0.0
C515 C 0.32362 0.97996 0.76788 0.0
C516 C 0.47168 0.26714 0.86673 0.0
C517 C 0.46572 0.2181 0.87063 0.0
C518 C 0.51553 0.29788 0.86743 0.0
C519 C 0.55514 0.28074 0.87177 0.0
H520 H 0.44232 0.28196 0.86199 0.0
H521 H 0.51838 0.3352 0.86303 0.0
S522 S 0.55803 0.15566 0.88679 0.0
N523 N 0.50283 0.15402 0.88192 0.0
N524 N 0.58549 0.21182 0.88302 0.0
C525 C 0.5496 0.23197 0.87761 0.0
C526 C 0.5048 0.20063 0.87713 0.0
C527 C 0.38367 0.50842 0.24466 0.0
C528 C 0.33919 0.51149 0.23321 0.0
C529 C 0.39025 0.47856 0.27625 0.0
C530 C 0.35261 0.45109 0.29784 0.0
H531 H 0.41374 0.52987 0.22961 0.0
H532 H 0.42503 0.47732 0.28403 0.0
S533 S 0.22893 0.44353 0.2777 0.0
N534 N 0.25689 0.48232 0.24455 0.0
N535 N 0.26905 0.42689 0.30383 0.0
C536 C 0.30794 0.45315 0.28608 0.0
C537 C 0.30128 0.48311 0.25379 0.0
C538 C 0.68152 0.02358 0.29819 0.0
C539 C 0.64352 0.04381 0.29644 0.0
C540 C 0.68983 0.99349 0.26784 0.0
C541 C 0.66055 0.98218 0.23425 0.0
H542 H 0.70549 0.03127 0.32317 0.0
H543 H 0.71937 0.97862 0.27105 0.0
S544 S 0.55615 0.02579 0.21488 0.0
N545 N 0.57628 0.05059 0.25808 0.0
N546 N 0.59173 0.99358 0.20098 0.0
C547 C 0.62237 0.00216 0.23191 0.0
C548 C 0.61385 0.03295 0.26302 0.0
C549 C 0.50952 0.77994 0.18821 0.0
C550 C 0.53589 0.79087 0.15281 0.0
C551 C 0.46761 0.74614 0.18821 0.0
C552 C 0.45037 0.72159 0.15284 0.0
H553 H 0.52175 0.797 0.21651 0.0
H554 H 0.44899 0.73877 0.2165 0.0
S555 S 0.50526 0.73853 0.05159 0.0
N556 N 0.54127 0.77582 0.08097 0.0
N557 N 0.46202 0.71183 0.08093 0.0
C558 C 0.4757 0.733 0.11685 0.0
C559 C 0.51854 0.76784 0.11682 0.0
loop_
_geom_bond_atom_site_label_1
_geom_bond_atom_site_label_2
_geom_bond_distance
_geom_bond_site_symmetry_2
_ccdc_geom_bond_type
In0 O1 2.294 . S
In0 O2 2.326 . S
In0 O6 2.266 . S
In0 O7 2.326 . S
In0 O8 2.266 . S
In0 O9 2.326 . S
In0 O11 2.294 . S
In0 O12 2.326 . S
O1 In0 2.294 . S
O1 C10 1.240 . S
O2 In0 2.326 . S
O2 C10 1.252 . S
C3 O6 1.252 . S
C3 O7 1.260 . S
C4 O11 1.240 . S
C4 O12 1.252 . S
C5 O8 1.252 . S
C5 O9 1.260 . S
O6 In0 2.266 . S
O6 C3 1.252 . S
O7 In0 2.326 . S
O7 C3 1.260 . S
O8 In0 2.266 . S
O8 C5 1.252 . S
O9 In0 2.326 . S
O9 C5 1.260 . S
C10 O1 1.240 . S
C10 O2 1.252 . S
O11 In0 2.294 . S
O11 C4 1.240 . S
O12 In0 2.326 . S
O12 C4 1.252 . S
In13 O14 2.294 . S
In13 O15 2.326 . S
In13 O19 2.266 . S
In13 O20 2.326 . S
In13 O21 2.266 . S
In13 O22 2.326 . S
In13 O24 2.294 . S
In13 O25 2.326 . S
O14 In13 2.294 . S
O14 C23 1.240 . S
O15 In13 2.326 . S
O15 C23 1.252 . S
C16 O19 1.252 . S
C16 O20 1.260 . S
C17 O24 1.240 . S
C17 O25 1.252 . S
C18 O21 1.252 . S
C18 O22 1.260 . S
O19 In13 2.266 . S
O19 C16 1.252 . S
O20 In13 2.326 . S
O20 C16 1.260 . S
O21 In13 2.266 . S
O21 C18 1.252 . S
O22 In13 2.326 . S
O22 C18 1.260 . S
C23 O14 1.240 . S
C23 O15 1.252 . S
O24 In13 2.294 . S
O24 C17 1.240 . S
O25 In13 2.326 . S
O25 C17 1.252 . S
In26 O27 2.294 . S
In26 O28 2.326 . S
In26 O32 2.266 . S
In26 O33 2.326 . S
In26 O34 2.266 . S
In26 O35 2.326 . S
In26 O37 2.294 . S
In26 O38 2.326 . S
O27 In26 2.294 . S
O27 C36 1.240 . S
O28 In26 2.326 . S
O28 C36 1.252 . S
C29 O32 1.252 . S
C29 O33 1.260 . S
C30 O37 1.240 . S
C30 O38 1.252 . S
C31 O34 1.252 . S
C31 O35 1.260 . S
O32 In26 2.266 . S
O32 C29 1.252 . S
O33 In26 2.326 . S
O33 C29 1.260 . S
O34 In26 2.266 . S
O34 C31 1.252 . S
O35 In26 2.326 . S
O35 C31 1.260 . S
C36 O27 1.240 . S
C36 O28 1.252 . S
O37 In26 2.294 . S
O37 C30 1.240 . S
O38 In26 2.326 . S
O38 C30 1.252 . S
In39 O40 2.294 . S
In39 O41 2.326 . S
In39 O45 2.266 . S
In39 O46 2.326 . S
In39 O47 2.266 . S
In39 O48 2.326 . S
In39 O50 2.294 . S
In39 O51 2.326 . S
O40 In39 2.294 . S
O40 C49 1.240 . S
O41 In39 2.326 . S
O41 C49 1.252 . S
C42 O45 1.252 . S
C42 O46 1.260 . S
C43 O50 1.240 . S
C43 O51 1.252 . S
C44 O47 1.252 . S
C44 O48 1.260 . S
O45 In39 2.266 . S
O45 C42 1.252 . S
O46 In39 2.326 . S
O46 C42 1.260 . S
O47 In39 2.266 . S
O47 C44 1.252 . S
O48 In39 2.326 . S
O48 C44 1.260 . S
C49 O40 1.240 . S
C49 O41 1.252 . S
O50 In39 2.294 . S
O50 C43 1.240 . S
O51 In39 2.326 . S
O51 C43 1.252 . S
In52 O53 2.294 . S
In52 O54 2.326 . S
In52 O58 2.266 . S
In52 O59 2.326 . S
In52 O60 2.266 . S
In52 O61 2.326 . S
In52 O63 2.294 . S
In52 O64 2.326 . S
O53 In52 2.294 . S
O53 C62 1.240 . S
O54 In52 2.326 . S
O54 C62 1.252 . S
C55 O58 1.252 . S
C55 O59 1.260 . S
C56 O63 1.240 . S
C56 O64 1.252 . S
C57 O60 1.252 . S
C57 O61 1.260 . S
O58 In52 2.266 . S
O58 C55 1.252 . S
O59 In52 2.326 . S
O59 C55 1.260 . S
O60 In52 2.266 . S
O60 C57 1.252 . S
O61 In52 2.326 . S
O61 C57 1.260 . S
C62 O53 1.240 . S
C62 O54 1.252 . S
O63 In52 2.294 . S
O63 C56 1.240 . S
O64 In52 2.326 . S
O64 C56 1.252 . S
In65 O66 2.294 . S
In65 O67 2.326 . S
In65 O71 2.266 . S
In65 O72 2.326 . S
In65 O73 2.266 . S
In65 O74 2.326 . S
In65 O76 2.294 . S
In65 O77 2.326 . S
O66 In65 2.294 . S
O66 C75 1.240 . S
O67 In65 2.326 . S
O67 C75 1.252 . S
C68 O71 1.252 . S
C68 O72 1.260 . S
C69 O76 1.240 . S
C69 O77 1.252 . S
C70 O73 1.252 . S
C70 O74 1.260 . S
O71 In65 2.266 . S
O71 C68 1.252 . S
O72 In65 2.326 . S
O72 C68 1.260 . S
O73 In65 2.266 . S
O73 C70 1.252 . S
O74 In65 2.326 . S
O74 C70 1.260 . S
C75 O66 1.240 . S
C75 O67 1.252 . S
O76 In65 2.294 . S
O76 C69 1.240 . S
O77 In65 2.326 . S
O77 C69 1.252 . S
In78 O79 2.294 . S
In78 O80 2.326 . S
In78 O84 2.266 . S
In78 O85 2.326 . S
In78 O86 2.266 . S
In78 O87 2.326 . S
In78 O89 2.294 . S
In78 O90 2.326 . S
O79 In78 2.294 . S
O79 C88 1.240 . S
O80 In78 2.326 . S
O80 C88 1.252 . S
C81 O84 1.252 . S
C81 O85 1.260 . S
C82 O89 1.240 . S
C82 O90 1.252 . S
C83 O86 1.252 . S
C83 O87 1.260 . S
O84 In78 2.266 . S
O84 C81 1.252 . S
O85 In78 2.326 . S
O85 C81 1.260 . S
O86 In78 2.266 . S
O86 C83 1.252 . S
O87 In78 2.326 . S
O87 C83 1.260 . S
C88 O79 1.240 . S
C88 O80 1.252 . S
O89 In78 2.294 . S
O89 C82 1.240 . S
O90 In78 2.326 . S
O90 C82 1.252 . S
In91 O92 2.294 . S
In91 O93 2.326 . S
In91 O97 2.266 . S
In91 O98 2.326 . S
In91 O99 2.266 . S
In91 O100 2.326 . S
In91 O102 2.294 . S
In91 O103 2.326 . S
O92 In91 2.294 . S
O92 C101 1.240 . S
O93 In91 2.326 . S
O93 C101 1.252 . S
C94 O97 1.252 . S
C94 O98 1.260 . S
C95 O102 1.240 . S
C95 O103 1.252 . S
C96 O99 1.252 . S
C96 O100 1.260 . S
O97 In91 2.266 . S
O97 C94 1.252 . S
O98 In91 2.326 . S
O98 C94 1.260 . S
O99 In91 2.266 . S
O99 C96 1.252 . S
O100 In91 2.326 . S
O100 C96 1.260 . S
C101 O92 1.240 . S
C101 O93 1.252 . S
O102 In91 2.294 . S
O102 C95 1.240 . S
O103 In91 2.326 . S
O103 C95 1.252 . S
In104 O105 2.294 . S
In104 O106 2.326 . S
In104 O110 2.266 . S
In104 O111 2.326 . S
In104 O112 2.266 . S
In104 O113 2.326 . S
In104 O115 2.294 . S
In104 O116 2.326 . S
O105 In104 2.294 . S
O105 C114 1.240 . S
O106 In104 2.326 . S
O106 C114 1.252 . S
C107 O110 1.252 . S
C107 O111 1.260 . S
C108 O115 1.240 . S
C108 O116 1.252 . S
C109 O112 1.252 . S
C109 O113 1.260 . S
O110 In104 2.266 . S
O110 C107 1.252 . S
O111 In104 2.326 . S
O111 C107 1.260 . S
O112 In104 2.266 . S
O112 C109 1.252 . S
O113 In104 2.326 . S
O113 C109 1.260 . S
C114 O105 1.240 . S
C114 O106 1.252 . S
O115 In104 2.294 . S
O115 C108 1.240 . S
O116 In104 2.326 . S
O116 C108 1.252 . S
In117 O118 2.294 . S
In117 O119 2.326 . S
In117 O123 2.266 . S
In117 O124 2.326 . S
In117 O125 2.266 . S
In117 O126 2.326 . S
In117 O128 2.294 . S
In117 O129 2.326 . S
O118 In117 2.294 . S
O118 C127 1.240 . S
O119 In117 2.326 . S
O119 C127 1.252 . S
C120 O123 1.252 . S
C120 O124 1.260 . S
C121 O128 1.240 . S
C121 O129 1.252 . S
C122 O125 1.252 . S
C122 O126 1.260 . S
O123 In117 2.266 . S
O123 C120 1.252 . S
O124 In117 2.326 . S
O124 C120 1.260 . S
O125 In117 2.266 . S
O125 C122 1.252 . S
O126 In117 2.326 . S
O126 C122 1.260 . S
C127 O118 1.240 . S
C127 O119 1.252 . S
O128 In117 2.294 . S
O128 C121 1.240 . S
O129 In117 2.326 . S
O129 C121 1.252 . S
In130 O131 2.294 . S
In130 O132 2.326 . S
In130 O136 2.266 . S
In130 O137 2.326 . S
In130 O138 2.266 . S
In130 O139 2.326 . S
In130 O141 2.294 . S
In130 O142 2.326 . S
O131 In130 2.294 . S
O131 C140 1.240 . S
O132 In130 2.326 . S
O132 C140 1.252 . S
C133 O136 1.252 . S
C133 O137 1.260 . S
C134 O141 1.240 . S
C134 O142 1.252 . S
C135 O138 1.252 . S
C135 O139 1.260 . S
O136 In130 2.266 . S
O136 C133 1.252 . S
O137 In130 2.326 . S
O137 C133 1.260 . S
O138 In130 2.266 . S
O138 C135 1.252 . S
O139 In130 2.326 . S
O139 C135 1.260 . S
C140 O131 1.240 . S
C140 O132 1.252 . S
O141 In130 2.294 . S
O141 C134 1.240 . S
O142 In130 2.326 . S
O142 C134 1.252 . S
In143 O144 2.294 . S
In143 O145 2.326 . S
In143 O149 2.266 . S
In143 O150 2.326 . S
In143 O151 2.266 . S
In143 O152 2.326 . S
In143 O154 2.294 . S
In143 O155 2.326 . S
O144 In143 2.294 . S
O144 C153 1.240 . S
O145 In143 2.326 . S
O145 C153 1.252 . S
C146 O149 1.252 . S
C146 O150 1.260 . S
C147 O154 1.240 . S
C147 O155 1.252 . S
C148 O151 1.252 . S
C148 O152 1.260 . S
O149 In143 2.266 . S
O149 C146 1.252 . S
O150 In143 2.326 . S
O150 C146 1.260 . S
O151 In143 2.266 . S
O151 C148 1.252 . S
O152 In143 2.326 . S
O152 C148 1.260 . S
C153 O144 1.240 . S
C153 O145 1.252 . S
O154 In143 2.294 . S
O154 C147 1.240 . S
O155 In143 2.326 . S
O155 C147 1.252 . S
In156 O157 2.294 . S
In156 O158 2.326 . S
In156 O162 2.266 . S
In156 O163 2.326 . S
In156 O164 2.266 . S
In156 O165 2.326 . S
In156 O167 2.294 . S
In156 O168 2.326 . S
O157 In156 2.294 . S
O157 C166 1.240 . S
O158 In156 2.326 . S
O158 C166 1.252 . S
C159 O162 1.252 . S
C159 O163 1.260 . S
C160 O167 1.240 . S
C160 O168 1.252 . S
C161 O164 1.252 . S
C161 O165 1.260 . S
O162 In156 2.266 . S
O162 C159 1.252 . S
O163 In156 2.326 . S
O163 C159 1.260 . S
O164 In156 2.266 . S
O164 C161 1.252 . S
O165 In156 2.326 . S
O165 C161 1.260 . S
C166 O157 1.240 . S
C166 O158 1.252 . S
O167 In156 2.294 . S
O167 C160 1.240 . S
O168 In156 2.326 . S
O168 C160 1.252 . S
In169 O170 2.294 . S
In169 O171 2.326 . S
In169 O175 2.266 . S
In169 O176 2.326 . S
In169 O177 2.266 . S
In169 O178 2.326 . S
In169 O180 2.294 . S
In169 O181 2.326 . S
O170 In169 2.294 . S
O170 C179 1.240 . S
O171 In169 2.326 . S
O171 C179 1.252 . S
C172 O175 1.252 . S
C172 O176 1.260 . S
C173 O180 1.240 . S
C173 O181 1.252 . S
C174 O177 1.252 . S
C174 O178 1.260 . S
O175 In169 2.266 . S
O175 C172 1.252 . S
O176 In169 2.326 . S
O176 C172 1.260 . S
O177 In169 2.266 . S
O177 C174 1.252 . S
O178 In169 2.326 . S
O178 C174 1.260 . S
C179 O170 1.240 . S
C179 O171 1.252 . S
O180 In169 2.294 . S
O180 C173 1.240 . S
O181 In169 2.326 . S
O181 C173 1.252 . S
In182 O183 2.294 . S
In182 O184 2.326 . S
In182 O188 2.266 . S
In182 O189 2.326 . S
In182 O190 2.266 . S
In182 O191 2.326 . S
In182 O193 2.294 . S
In182 O194 2.326 . S
O183 In182 2.294 . S
O183 C192 1.240 . S
O184 In182 2.326 . S
O184 C192 1.252 . S
C185 O188 1.252 . S
C185 O189 1.260 . S
C186 O193 1.240 . S
C186 O194 1.252 . S
C187 O190 1.252 . S
C187 O191 1.260 . S
O188 In182 2.266 . S
O188 C185 1.252 . S
O189 In182 2.326 . S
O189 C185 1.260 . S
O190 In182 2.266 . S
O190 C187 1.252 . S
O191 In182 2.326 . S
O191 C187 1.260 . S
C192 O183 1.240 . S
C192 O184 1.252 . S
O193 In182 2.294 . S
O193 C186 1.240 . S
O194 In182 2.326 . S
O194 C186 1.252 . S
In195 O196 2.294 . S
In195 O197 2.326 . S
In195 O201 2.266 . S
In195 O202 2.326 . S
In195 O203 2.266 . S
In195 O204 2.326 . S
In195 O206 2.294 . S
In195 O207 2.326 . S
O196 In195 2.294 . S
O196 C205 1.240 . S
O197 In195 2.326 . S
O197 C205 1.252 . S
C198 O201 1.252 . S
C198 O202 1.260 . S
C199 O206 1.240 . S
C199 O207 1.252 . S
C200 O203 1.252 . S
C200 O204 1.260 . S
O201 In195 2.266 . S
O201 C198 1.252 . S
O202 In195 2.326 . S
O202 C198 1.260 . S
O203 In195 2.266 . S
O203 C200 1.252 . S
O204 In195 2.326 . S
O204 C200 1.260 . S
C205 O196 1.240 . S
C205 O197 1.252 . S
O206 In195 2.294 . S
O206 C199 1.240 . S
O207 In195 2.326 . S
O207 C199 1.252 . S
C208 C209 1.369 . S
C208 C210 1.419 . S
C208 H212 0.930 . S
C209 C208 1.369 . S
C209 C218 1.429 . S
C210 C208 1.419 . S
C210 C211 1.363 . S
C210 H213 0.929 . S
C211 C210 1.363 . S
C211 C217 1.428 . S
H212 C208 0.930 . S
H213 C210 0.929 . S
S214 N215 1.613 . S
S214 N216 1.610 . S
N215 S214 1.613 . S
N215 C218 1.350 . S
N216 S214 1.610 . S
N216 C217 1.351 . S
C217 C211 1.428 . S
C217 N216 1.351 . S
C217 C218 1.434 . S
C218 C209 1.429 . S
C218 N215 1.350 . S
C218 C217 1.434 . S
C219 C220 1.369 . S
C219 C221 1.419 . S
C219 H223 0.930 . S
C220 C219 1.369 . S
C220 C229 1.429 . S
C221 C219 1.419 . S
C221 C222 1.363 . S
C221 H224 0.929 . S
C222 C221 1.363 . S
C222 C228 1.428 . S
H223 C219 0.930 . S
H224 C221 0.929 . S
S225 N226 1.613 . S
S225 N227 1.610 . S
N226 S225 1.613 . S
N226 C229 1.350 . S
N227 S225 1.610 . S
N227 C228 1.351 . S
C228 C222 1.428 . S
C228 N227 1.351 . S
C228 C229 1.434 . S
C229 C220 1.429 . S
C229 N226 1.350 . S
C229 C228 1.434 . S
C230 C231 1.369 . S
C230 C232 1.419 . S
C230 H234 0.930 . S
C231 C230 1.369 . S
C231 C240 1.429 . S
C232 C230 1.419 . S
C232 C233 1.363 . S
C232 H235 0.929 . S
C233 C232 1.363 . S
C233 C239 1.428 . S
H234 C230 0.930 . S
H235 C232 0.929 . S
S236 N237 1.613 . S
S236 N238 1.610 . S
N237 S236 1.613 . S
N237 C240 1.350 . S
N238 S236 1.610 . S
N238 C239 1.351 . S
C239 C233 1.428 . S
C239 N238 1.351 . S
C239 C240 1.434 . S
C240 C231 1.429 . S
C240 N237 1.350 . S
C240 C239 1.434 . S
C241 C242 1.369 . S
C241 C243 1.419 . S
C241 H245 0.930 . S
C242 C241 1.369 . S
C242 C251 1.429 . S
C243 C241 1.419 . S
C243 C244 1.363 . S
C243 H246 0.929 . S
C244 C243 1.363 . S
C244 C250 1.428 . S
H245 C241 0.930 . S
H246 C243 0.929 . S
S247 N248 1.613 . S
S247 N249 1.610 . S
N248 S247 1.613 . S
N248 C251 1.350 . S
N249 S247 1.610 . S
N249 C250 1.351 . S
C250 C244 1.428 . S
C250 N249 1.351 . S
C250 C251 1.434 . S
C251 C242 1.429 . S
C251 N248 1.350 . S
C251 C250 1.434 . S
C252 C253 1.369 . S
C252 C254 1.419 . S
C252 H256 0.930 . S
C253 C252 1.369 . S
C253 C262 1.429 . S
C254 C252 1.419 . S
C254 C255 1.363 . S
C254 H257 0.929 . S
C255 C254 1.363 . S
C255 C261 1.428 . S
H256 C252 0.930 . S
H257 C254 0.929 . S
S258 N259 1.613 . S
S258 N260 1.610 . S
N259 S258 1.613 . S
N259 C262 1.350 . S
N260 S258 1.610 . S
N260 C261 1.351 . S
C261 C255 1.428 . S
C261 N260 1.351 . S
C261 C262 1.434 . S
C262 C253 1.429 . S
C262 N259 1.350 . S
C262 C261 1.434 . S
C263 C264 1.369 . S
C263 C265 1.419 . S
C263 H267 0.930 . S
C264 C263 1.369 . S
C264 C273 1.429 . S
C265 C263 1.419 . S
C265 C266 1.363 . S
C265 H268 0.929 . S
C266 C265 1.363 . S
C266 C272 1.428 . S
H267 C263 0.930 . S
H268 C265 0.929 . S
S269 N270 1.613 . S
S269 N271 1.610 . S
N270 S269 1.613 . S
N270 C273 1.350 . S
N271 S269 1.610 . S
N271 C272 1.351 . S
C272 C266 1.428 . S
C272 N271 1.351 . S
C272 C273 1.434 . S
C273 C264 1.429 . S
C273 N270 1.350 . S
C273 C272 1.434 . S
C274 C275 1.369 . S
C274 C276 1.419 . S
C274 H278 0.930 . S
C275 C274 1.369 . S
C275 C284 1.429 . S
C276 C274 1.419 . S
C276 C277 1.363 . S
C276 H279 0.929 . S
C277 C276 1.363 . S
C277 C283 1.428 . S
H278 C274 0.930 . S
H279 C276 0.929 . S
S280 N281 1.613 . S
S280 N282 1.610 . S
N281 S280 1.613 . S
N281 C284 1.350 . S
N282 S280 1.610 . S
N282 C283 1.351 . S
C283 C277 1.428 . S
C283 N282 1.351 . S
C283 C284 1.434 . S
C284 C275 1.429 . S
C284 N281 1.350 . S
C284 C283 1.434 . S
C285 C286 1.369 . S
C285 C287 1.419 . S
C285 H289 0.930 . S
C286 C285 1.369 . S
C286 C295 1.429 . S
C287 C285 1.419 . S
C287 C288 1.363 . S
C287 H290 0.929 . S
C288 C287 1.363 . S
C288 C294 1.428 . S
H289 C285 0.930 . S
H290 C287 0.929 . S
S291 N292 1.613 . S
S291 N293 1.610 . S
N292 S291 1.613 . S
N292 C295 1.350 . S
N293 S291 1.610 . S
N293 C294 1.351 . S
C294 C288 1.428 . S
C294 N293 1.351 . S
C294 C295 1.434 . S
C295 C286 1.429 . S
C295 N292 1.350 . S
C295 C294 1.434 . S
C296 C297 1.369 . S
C296 C298 1.419 . S
C296 H300 0.930 . S
C297 C296 1.369 . S
C297 C306 1.429 . S
C298 C296 1.419 . S
C298 C299 1.363 1_565 S
C298 H301 0.929 . S
C299 C298 1.363 1_545 S
C299 C305 1.428 . S
H300 C296 0.930 . S
H301 C298 0.929 . S
S302 N303 1.613 . S
S302 N304 1.610 . S
N303 S302 1.613 . S
N303 C306 1.350 1_545 S
N304 S302 1.610 . S
N304 C305 1.351 . S
C305 C299 1.428 . S
C305 N304 1.351 . S
C305 C306 1.434 1_545 S
C306 C297 1.429 . S
C306 N303 1.350 1_565 S
C306 C305 1.434 1_565 S
C307 C308 1.369 . S
C307 C309 1.419 . S
C307 H311 0.930 . S
C308 C307 1.369 . S
C308 C317 1.429 . S
C309 C307 1.419 . S
C309 C310 1.363 . S
C309 H312 0.929 . S
C310 C309 1.363 . S
C310 C316 1.428 . S
H311 C307 0.930 . S
H312 C309 0.929 . S
S313 N314 1.613 . S
S313 N315 1.610 . S
N314 S313 1.613 . S
N314 C317 1.350 . S
N315 S313 1.610 . S
N315 C316 1.351 . S
C316 C310 1.428 . S
C316 N315 1.351 . S
C316 C317 1.434 . S
C317 C308 1.429 . S
C317 N314 1.350 . S
C317 C316 1.434 . S
C318 C319 1.369 . S
C318 C320 1.419 . S
C318 H322 0.930 . S
C319 C318 1.369 . S
C319 C328 1.429 . S
C320 C318 1.419 . S
C320 C321 1.363 1_556 S
C320 H323 0.929 . S
C321 C320 1.363 1_554 S
C321 C327 1.428 . S
H322 C318 0.930 . S
H323 C320 0.929 . S
S324 N325 1.613 1_554 S
S324 N326 1.610 . S
N325 S324 1.613 1_556 S
N325 C328 1.350 . S
N326 S324 1.610 . S
N326 C327 1.351 . S
C327 C321 1.428 . S
C327 N326 1.351 . S
C327 C328 1.434 1_554 S
C328 C319 1.429 . S
C328 N325 1.350 . S
C328 C327 1.434 1_556 S
C329 C330 1.369 . S
C329 C331 1.419 1_554 S
C329 H333 0.930 . S
C330 C329 1.369 . S
C330 C339 1.429 1_554 S
C331 C329 1.419 1_556 S
C331 C332 1.363 . S
C331 H334 0.929 . S
C332 C331 1.363 . S
C332 C338 1.428 . S
H333 C329 0.930 . S
H334 C331 0.929 . S
S335 N336 1.613 . S
S335 N337 1.610 . S
N336 S335 1.613 . S
N336 C339 1.350 . S
N337 S335 1.610 . S
N337 C338 1.351 . S
C338 C332 1.428 . S
C338 N337 1.351 . S
C338 C339 1.434 . S
C339 C330 1.429 1_556 S
C339 N336 1.350 . S
C339 C338 1.434 . S
C340 C341 1.369 . S
C340 C342 1.419 . S
C340 H344 0.930 . S
C341 C340 1.369 . S
C341 C350 1.429 . S
C342 C340 1.419 . S
C342 C343 1.363 . S
C342 H345 0.929 . S
C343 C342 1.363 . S
C343 C349 1.428 . S
H344 C340 0.930 . S
H345 C342 0.929 . S
S346 N347 1.613 . S
S346 N348 1.610 . S
N347 S346 1.613 . S
N347 C350 1.350 . S
N348 S346 1.610 . S
N348 C349 1.351 . S
C349 C343 1.428 . S
C349 N348 1.351 . S
C349 C350 1.434 . S
C350 C341 1.429 . S
C350 N347 1.350 . S
C350 C349 1.434 . S
C351 C352 1.369 . S
C351 C353 1.419 . S
C351 H355 0.930 . S
C352 C351 1.369 . S
C352 C361 1.429 . S
C353 C351 1.419 . S
C353 C354 1.363 . S
C353 H356 0.929 . S
C354 C353 1.363 . S
C354 C360 1.428 . S
H355 C351 0.930 . S
H356 C353 0.929 . S
S357 N358 1.613 . S
S357 N359 1.610 . S
N358 S357 1.613 . S
N358 C361 1.350 . S
N359 S357 1.610 . S
N359 C360 1.351 . S
C360 C354 1.428 . S
C360 N359 1.351 . S
C360 C361 1.434 . S
C361 C352 1.429 . S
C361 N358 1.350 . S
C361 C360 1.434 . S
C362 C363 1.369 . S
C362 C364 1.419 1_655 S
C362 H366 0.927 . S
C363 C362 1.369 . S
C363 C372 1.429 . S
C364 C362 1.419 1_455 S
C364 C365 1.363 . S
C364 H367 0.929 . S
C365 C364 1.363 . S
C365 C371 1.439 . S
H366 C362 0.927 . S
H367 C364 0.929 . S
S368 N369 1.613 . S
S368 N370 1.610 . S
N369 S368 1.613 . S
N369 C372 1.350 . S
N370 S368 1.610 . S
N370 C371 1.353 1_655 S
C371 C365 1.439 . S
C371 N370 1.353 1_455 S
C371 C372 1.421 1_455 S
C372 C363 1.429 . S
C372 N369 1.350 . S
C372 C371 1.421 1_655 S
C373 C374 1.369 . S
C373 C375 1.419 1_655 S
C373 H377 0.930 . S
C374 C373 1.369 . S
C374 C383 1.429 . S
C375 C373 1.419 1_455 S
C375 C376 1.363 . S
C375 H378 0.929 . S
C376 C375 1.363 . S
C376 C382 1.428 . S
H377 C373 0.930 . S
H378 C375 0.929 . S
S379 N380 1.613 . S
S379 N381 1.610 1_655 S
N380 S379 1.613 . S
N380 C383 1.350 . S
N381 S379 1.610 1_455 S
N381 C382 1.351 . S
C382 C376 1.428 . S
C382 N381 1.351 . S
C382 C383 1.434 1_455 S
C383 C374 1.429 . S
C383 N380 1.350 . S
C383 C382 1.434 1_655 S
C384 C385 1.369 . S
C384 C386 1.419 . S
C384 H388 0.930 . S
C385 C384 1.369 . S
C385 C394 1.429 . S
C386 C384 1.419 . S
C386 C387 1.363 . S
C386 H389 0.929 . S
C387 C386 1.363 . S
C387 C393 1.428 . S
H388 C384 0.930 . S
H389 C386 0.929 . S
S390 N391 1.613 . S
S390 N392 1.610 . S
N391 S390 1.613 . S
N391 C394 1.350 . S
N392 S390 1.610 . S
N392 C393 1.351 . S
C393 C387 1.428 . S
C393 N392 1.351 . S
C393 C394 1.434 . S
C394 C385 1.429 . S
C394 N391 1.350 . S
C394 C393 1.434 . S
C395 C396 1.369 1_565 S
C395 C397 1.419 . S
C395 H399 0.930 . S
C396 C395 1.369 1_545 S
C396 C405 1.429 . S
C397 C395 1.419 . S
C397 C398 1.363 . S
C397 H400 0.929 . S
C398 C397 1.363 . S
C398 C404 1.428 1_565 S
H399 C395 0.930 . S
H400 C397 0.929 . S
S401 N402 1.613 . S
S401 N403 1.610 . S
N402 S401 1.613 . S
N402 C405 1.350 . S
N403 S401 1.610 . S
N403 C404 1.351 . S
C404 C398 1.428 1_545 S
C404 N403 1.351 . S
C404 C405 1.434 . S
C405 C396 1.429 . S
C405 N402 1.350 . S
C405 C404 1.434 . S
C406 C407 1.369 . S
C406 C408 1.419 . S
C406 H410 0.930 . S
C407 C406 1.369 . S
C407 C416 1.429 . S
C408 C406 1.419 . S
C408 C409 1.363 . S
C408 H411 0.929 . S
C409 C408 1.363 . S
C409 C415 1.428 . S
H410 C406 0.930 . S
H411 C408 0.929 . S
S412 N413 1.613 . S
S412 N414 1.610 . S
N413 S412 1.613 . S
N413 C416 1.350 . S
N414 S412 1.610 . S
N414 C415 1.351 . S
C415 C409 1.428 . S
C415 N414 1.351 . S
C415 C416 1.434 . S
C416 C407 1.429 . S
C416 N413 1.350 . S
C416 C415 1.434 . S
C417 C418 1.369 . S
C417 C419 1.419 . S
C417 H421 0.930 . S
C418 C417 1.369 . S
C418 C427 1.429 . S
C419 C417 1.419 . S
C419 C420 1.363 1_554 S
C419 H422 0.929 . S
C420 C419 1.363 1_556 S
C420 C426 1.428 . S
H421 C417 0.930 . S
H422 C419 0.929 . S
S423 N424 1.613 1_556 S
S423 N425 1.610 . S
N424 S423 1.613 1_554 S
N424 C427 1.350 . S
N425 S423 1.610 . S
N425 C426 1.351 . S
C426 C420 1.428 . S
C426 N425 1.351 . S
C426 C427 1.434 1_556 S
C427 C418 1.429 . S
C427 N424 1.350 . S
C427 C426 1.434 1_554 S
C428 C429 1.369 . S
C428 C430 1.419 1_556 S
C428 H432 0.930 . S
C429 C428 1.369 . S
C429 C438 1.429 1_556 S
C430 C428 1.419 1_554 S
C430 C431 1.363 . S
C430 H433 0.929 . S
C431 C430 1.363 . S
C431 C437 1.428 . S
H432 C428 0.930 . S
H433 C430 0.929 . S
S434 N435 1.613 . S
S434 N436 1.610 . S
N435 S434 1.613 . S
N435 C438 1.350 . S
N436 S434 1.610 . S
N436 C437 1.351 . S
C437 C431 1.428 . S
C437 N436 1.351 . S
C437 C438 1.434 . S
C438 C429 1.429 1_554 S
C438 N435 1.350 . S
C438 C437 1.434 . S
C439 C440 1.369 . S
C439 C441 1.419 . S
C439 H443 0.930 . S
C440 C439 1.369 . S
C440 C449 1.429 . S
C441 C439 1.419 . S
C441 C442 1.363 . S
C441 H444 0.929 . S
C442 C441 1.363 . S
C442 C448 1.428 . S
H443 C439 0.930 . S
H444 C441 0.929 . S
S445 N446 1.613 . S
S445 N447 1.610 . S
N446 S445 1.613 . S
N446 C449 1.350 . S
N447 S445 1.610 . S
N447 C448 1.351 . S
C448 C442 1.428 . S
C448 N447 1.351 . S
C448 C449 1.434 . S
C449 C440 1.429 . S
C449 N446 1.350 . S
C449 C448 1.434 . S
C450 C451 1.369 . S
C450 C452 1.419 . S
C450 H454 0.930 . S
C451 C450 1.369 . S
C451 C460 1.429 . S
C452 C450 1.419 . S
C452 C453 1.363 . S
C452 H455 0.929 . S
C453 C452 1.363 . S
C453 C459 1.428 . S
H454 C450 0.930 . S
H455 C452 0.929 . S
S456 N457 1.613 . S
S456 N458 1.610 . S
N457 S456 1.613 . S
N457 C460 1.350 . S
N458 S456 1.610 . S
N458 C459 1.351 . S
C459 C453 1.428 . S
C459 N458 1.351 . S
C459 C460 1.434 . S
C460 C451 1.429 . S
C460 N457 1.350 . S
C460 C459 1.434 . S
C461 C462 1.361 1_655 S
C461 C463 1.428 . S
C461 H465 0.928 . S
C462 C461 1.361 1_455 S
C462 C471 1.429 . S
C463 C461 1.428 . S
C463 C464 1.363 . S
C463 H466 0.929 . S
C464 C463 1.363 . S
C464 C470 1.428 1_655 S
H465 C461 0.928 . S
H466 C463 0.929 . S
S467 N468 1.613 . S
S467 N469 1.610 . S
N468 S467 1.613 . S
N468 C471 1.350 . S
N469 S467 1.610 . S
N469 C470 1.351 . S
C470 C464 1.428 1_455 S
C470 N469 1.351 . S
C470 C471 1.434 . S
C471 C462 1.429 . S
C471 N468 1.350 . S
C471 C470 1.434 . S
C472 C473 1.369 . S
C472 C474 1.419 1_455 S
C472 H476 0.930 . S
C473 C472 1.369 . S
C473 C482 1.429 . S
C474 C472 1.419 1_655 S
C474 C475 1.363 . S
C474 H477 0.929 . S
C475 C474 1.363 . S
C475 C481 1.428 . S
H476 C472 0.930 . S
H477 C474 0.929 . S
S478 N479 1.613 . S
S478 N480 1.610 . S
N479 S478 1.613 . S
N479 C482 1.350 1_655 S
N480 S478 1.610 . S
N480 C481 1.351 . S
C481 C475 1.428 . S
C481 N480 1.351 . S
C481 C482 1.434 1_655 S
C482 C473 1.429 . S
C482 N479 1.350 1_455 S
C482 C481 1.434 1_455 S
C483 C484 1.369 . S
C483 C485 1.419 . S
C483 H487 0.930 . S
C484 C483 1.369 . S
C484 C493 1.429 . S
C485 C483 1.419 . S
C485 C486 1.363 . S
C485 H488 0.929 . S
C486 C485 1.363 . S
C486 C492 1.428 . S
H487 C483 0.930 . S
H488 C485 0.929 . S
S489 N490 1.613 . S
S489 N491 1.610 . S
N490 S489 1.613 . S
N490 C493 1.350 . S
N491 S489 1.610 . S
N491 C492 1.351 . S
C492 C486 1.428 . S
C492 N491 1.351 . S
C492 C493 1.434 . S
C493 C484 1.429 . S
C493 N490 1.350 . S
C493 C492 1.434 . S
C494 C495 1.369 . S
C494 C496 1.419 . S
C494 H498 0.930 . S
C495 C494 1.369 . S
C495 C504 1.429 . S
C496 C494 1.419 . S
C496 C497 1.363 . S
C496 H499 0.929 . S
C497 C496 1.363 . S
C497 C503 1.428 . S
H498 C494 0.930 . S
H499 C496 0.929 . S
S500 N501 1.613 . S
S500 N502 1.610 . S
N501 S500 1.613 . S
N501 C504 1.350 . S
N502 S500 1.610 . S
N502 C503 1.351 . S
C503 C497 1.428 . S
C503 N502 1.351 . S
C503 C504 1.434 . S
C504 C495 1.429 . S
C504 N501 1.350 . S
C504 C503 1.434 . S
C505 C506 1.369 . S
C505 C507 1.419 . S
C505 H509 0.930 . S
C506 C505 1.369 . S
C506 C515 1.429 . S
C507 C505 1.419 . S
C507 C508 1.363 1_545 S
C507 H510 0.929 . S
C508 C507 1.363 1_565 S
C508 C514 1.428 . S
H509 C505 0.930 . S
H510 C507 0.929 . S
S511 N512 1.613 . S
S511 N513 1.610 . S
N512 S511 1.613 . S
N512 C515 1.350 1_565 S
N513 S511 1.610 . S
N513 C514 1.351 . S
C514 C508 1.428 . S
C514 N513 1.351 . S
C514 C515 1.434 1_565 S
C515 C506 1.429 . S
C515 N512 1.350 1_545 S
C515 C514 1.434 1_545 S
C516 C517 1.369 . S
C516 C518 1.419 . S
C516 H520 0.930 . S
C517 C516 1.369 . S
C517 C526 1.429 . S
C518 C516 1.419 . S
C518 C519 1.363 . S
C518 H521 0.929 . S
C519 C518 1.363 . S
C519 C525 1.428 . S
H520 C516 0.930 . S
H521 C518 0.929 . S
S522 N523 1.613 . S
S522 N524 1.610 . S
N523 S522 1.613 . S
N523 C526 1.350 . S
N524 S522 1.610 . S
N524 C525 1.351 . S
C525 C519 1.428 . S
C525 N524 1.351 . S
C525 C526 1.434 . S
C526 C517 1.429 . S
C526 N523 1.350 . S
C526 C525 1.434 . S
C527 C528 1.369 . S
C527 C529 1.419 . S
C527 H531 0.930 . S
C528 C527 1.369 . S
C528 C537 1.429 . S
C529 C527 1.419 . S
C529 C530 1.363 . S
C529 H532 0.929 . S
C530 C529 1.363 . S
C530 C536 1.428 . S
H531 C527 0.930 . S
H532 C529 0.929 . S
S533 N534 1.613 . S
S533 N535 1.610 . S
N534 S533 1.613 . S
N534 C537 1.350 . S
N535 S533 1.610 . S
N535 C536 1.351 . S
C536 C530 1.428 . S
C536 N535 1.351 . S
C536 C537 1.434 . S
C537 C528 1.429 . S
C537 N534 1.350 . S
C537 C536 1.434 . S
C538 C539 1.369 . S
C538 C540 1.419 . S
C538 H542 0.930 . S
C539 C538 1.369 . S
C539 C548 1.429 1_545 S
C540 C538 1.419 . S
C540 C541 1.363 1_545 S
C540 H543 0.929 . S
C541 C540 1.363 1_565 S
C541 C547 1.428 . S
H542 C538 0.930 . S
H543 C540 0.929 . S
S544 N545 1.613 . S
S544 N546 1.610 . S
N545 S544 1.613 . S
N545 C548 1.350 . S
N546 S544 1.610 . S
N546 C547 1.351 . S
C547 C541 1.428 . S
C547 N546 1.351 . S
C547 C548 1.434 . S
C548 C539 1.429 1_565 S
C548 N545 1.350 . S
C548 C547 1.434 . S
C549 C550 1.369 . S
C549 C551 1.419 . S
C549 H553 0.930 . S
C550 C549 1.369 . S
C550 C559 1.429 . S
C551 C549 1.419 . S
C551 C552 1.363 . S
C551 H554 0.929 . S
C552 C551 1.363 . S
C552 C558 1.428 . S
H553 C549 0.930 . S
H554 C551 0.929 . S
S555 N556 1.613 . S
S555 N557 1.610 . S
N556 S555 1.613 . S
N556 C559 1.350 . S
N557 S555 1.610 . S
N557 C558 1.351 . S
C558 C552 1.428 . S
C558 N557 1.351 . S
C558 C559 1.434 . S
C559 C550 1.429 . S
C559 N556 1.350 . S
C559 C558 1.434 . S
C209 C3 1.332 . S
C211 C172 1.312 . S
C220 C18 1.332 . S
C222 C122 1.311 . S
C231 C185 1.105 . S
C233 C29 1.124 . S
C242 C42 1.127 . S
C244 C200 1.107 . S
C253 C57 1.332 . S
C255 C81 1.313 . S
C264 C135 1.332 . S
C266 C70 1.311 . S
C275 C146 1.123 . S
C277 C94 1.112 . S
C286 C109 1.109 . S
C288 C159 1.120 . S
C297 C30 1.790 . S
C299 C5 1.766 . S
C308 C16 1.769 . S
C310 C43 1.789 . S
C319 C161 1.665 . S
C321 C10 1.624 . S
C330 C17 1.629 . S
C332 C148 1.663 . S
C341 C56 1.630 . S
C343 C31 1.663 . S
C352 C134 1.623 . S
C354 C44 1.666 . S
C363 C23 1.981 . S
C365 C4 1.982 . S
C374 C49 1.203 . S
C376 C36 1.205 . S
C385 C140 1.982 . S
C387 C62 1.981 . S
C396 C96 1.634 . S
C398 C75 1.605 . S
C407 C82 1.599 . S
C409 C107 1.637 . S
C418 C205 1.720 . S
C420 C69 1.696 . S
C429 C88 1.698 . S
C431 C186 1.717 . S
C440 C121 1.695 . S
C442 C95 1.720 . S
C451 C114 1.715 . S
C453 C179 1.700 . S
C462 C83 1.972 . S
C464 C68 1.970 . S
C473 C108 1.313 . S
C475 C101 1.310 . S
C484 C120 1.972 . S
C486 C174 1.970 . S
C495 C133 1.768 . S
C497 C147 1.789 . S
C506 C160 1.790 . S
C508 C55 1.765 . S
C517 C166 1.210 . S
C519 C153 1.206 . S
C528 C187 1.637 . S
C530 C173 1.600 . S
C539 C127 1.605 . S
C541 C198 1.635 . S
C550 C199 1.317 . S
C552 C192 1.315 . S
