# Generated by pormake.
# Topology kag, (6)-cn, num edge types: 1
# Building blocks:
#     Node 0, Type 0, BuildingBlock: BETDAH_clean_sbu_0, # of connection points: 6
#     Node 1, Type 0, BuildingBlock: BETDAH_clean_sbu_0, # of connection points: 6
#     Node 2, Type 0, BuildingBlock: BETDAH_clean_sbu_0, # of connection points: 6
#     Edge 3, Type (0, 0), BuildingBlock: TEMPAE_clean_linker_10, # of connection points: 2
#     Edge 4, Type (0, 0), BuildingBlock: TEMPAE_clean_linker_10, # of connection points: 2
#     Edge 5, Type (0, 0), BuildingBlock: TEMPAE_clean_linker_10, # of connection points: 2
#     Edge 6, Type (0, 0), BuildingBlock: TEMPAE_clean_linker_10, # of connection points: 2
#     Edge 7, Type (0, 0), BuildingBlock: TEMPAE_clean_linker_10, # of connection points: 2
#     Edge 8, Type (0, 0), BuildingBlock: TEMPAE_clean_linker_10, # of connection points: 2
#     Edge 9, Type (0, 0), BuildingBlock: TEMPAE_clean_linker_10, # of connection points: 2
#     Edge 10, Type (0, 0), BuildingBlock: TEMPAE_clean_linker_10, # of connection points: 2
#     Edge 11, Type (0, 0), BuildingBlock: TEMPAE_clean_linker_10, # of connection points: 2
# Relax obj value: 0.075
# Max RMSD: 0.201
# Mean RMSD: 0.105
data_MOF--net-kag--node1-BETDAH_clean_sbu_0--edge1-TEMPAE_clean_linker_10
_symmetry_space_group_name_H-M    P1
_symmetry_Int_Tables_number       1
_symmetry_cell_setting            triclinic
loop_
_symmetry_equiv_pos_as_xyz
'x, y, z'
_cell_length_a     32.59042
_cell_length_b     42.739516
_cell_length_c     14.959604
_cell_angle_alpha  95.663782
_cell_angle_beta   90.961494
_cell_angle_gamma 97.696148
loop_
_atom_site_label
_atom_site_type_symbol
_atom_site_fract_x
_atom_site_fract_y
_atom_site_fract_z
_atom_type_partial_charge
Ho0 Ho 1.03545 0.47452 0.99367 0.0
Ho1 Ho 0.04444 0.5434 0.99587 0.0
C2 C 0.94981 0.5088 0.98764 0.0
C3 C 1.01558 0.41558 0.02237 0.0
C4 C 0.97973 0.39005 0.01101 0.0
C5 C 0.94527 0.39031 0.06641 0.0
C6 C 0.91345 0.36457 0.05912 0.0
C7 C 0.91536 0.33809 0.99623 0.0
C8 C 0.94945 0.33821 0.93983 0.0
C9 C 0.98129 0.3638 0.94743 0.0
C10 C 0.04439 0.49499 0.82861 0.0
C11 C 0.13003 0.50909 0.00533 0.0
C12 C 0.06501 0.60118 0.9576 0.0
C13 C 0.10079 0.6267 0.96837 0.0
C14 C 0.11733 0.6396 0.89185 0.0
C15 C 0.14877 0.66553 0.90025 0.0
C16 C 0.16415 0.67931 0.98555 0.0
C17 C 0.14828 0.66588 0.06214 0.0
C18 C 0.117 0.63981 0.0537 0.0
C19 C 1.03642 0.52442 0.1629 0.0
O20 O 0.96677 0.48267 0.99817 0.0
O21 O 0.97407 0.53564 0.97718 0.0
O22 O 1.03273 0.42451 0.94913 0.0
O23 O 1.01357 0.43947 0.08315 0.0
O24 O 0.06224 0.47227 0.85609 0.0
O25 O 1.0217 0.50545 0.88926 0.0
O26 O 0.11317 0.53523 0.99428 0.0
O27 O 0.10566 0.48226 0.01528 0.0
O28 O 0.04564 0.59383 0.03 0.0
O29 O 0.0689 0.57624 0.90191 0.0
O30 O 1.02165 0.54865 0.13594 0.0
O31 O 0.05761 0.51237 0.10137 0.0
H32 H 0.94313 0.4101 0.11641 0.0
H33 H 0.88746 0.36529 0.10309 0.0
H34 H 0.95223 0.31801 0.89166 0.0
H35 H 1.00768 0.36272 0.90467 0.0
H36 H 0.10522 0.63008 0.82537 0.0
H37 H 0.15999 0.67549 0.83998 0.0
H38 H 0.15981 0.67573 0.12873 0.0
H39 H 0.10503 0.63035 0.11408 0.0
Ho40 Ho 0.58499 0.01358 0.99242 0.0
Ho41 Ho 0.49486 1.00484 0.00529 0.0
C42 C 0.53595 0.07602 0.01697 0.0
C43 C 0.66029 0.034 0.95306 0.0
C44 C 0.68474 0.06586 0.95422 0.0
C45 C 0.67169 0.08935 0.90504 0.0
C46 C 0.69469 0.1196 0.90953 0.0
C47 C 0.73114 0.1271 0.9635 0.0
C48 C 0.7441 0.1035 0.01241 0.0
C49 C 0.72123 0.07323 0.00756 0.0
C50 C 0.55986 1.00651 0.16229 0.0
C51 C 0.54375 0.9422 0.98281 0.0
C52 C 0.41912 0.98368 0.03904 0.0
C53 C 0.3951 0.95142 0.03146 0.0
C54 C 0.38426 0.9368 0.10947 0.0
C55 C 0.36248 0.90609 0.10342 0.0
C56 C 0.35069 0.88941 0.01918 0.0
C57 C 0.36152 0.90402 0.94114 0.0
C58 C 0.38353 0.93463 0.94713 0.0
C59 C 0.5214 0.01221 0.83683 0.0
O60 O 0.56873 0.06351 0.98683 0.0
O61 O 0.5032 0.05763 0.04221 0.0
O62 O 0.65002 0.02496 0.03141 0.0
O63 O 0.63002 0.02655 0.89306 0.0
O64 O 0.59139 0.99519 0.12653 0.0
O65 O 0.54404 0.02272 0.10756 0.0
O66 O 0.51027 0.95465 0.00842 0.0
O67 O 0.57737 0.96055 0.96164 0.0
O68 O 0.42998 0.99547 0.96428 0.0
O69 O 0.44891 0.98938 0.1003 0.0
O70 O 0.49144 0.02551 0.87317 0.0
O71 O 0.53561 0.9951 0.89104 0.0
H72 H 0.64366 0.08445 0.86324 0.0
H73 H 0.68418 0.137 0.86982 0.0
H74 H 0.77168 0.10853 0.0556 0.0
H75 H 0.73186 0.05561 0.0464 0.0
H76 H 0.39267 0.94914 0.17534 0.0
H77 H 0.35418 0.89562 0.16479 0.0
H78 H 0.35323 0.89166 0.87526 0.0
H79 H 0.39153 0.94503 0.88553 0.0
Ho80 Ho 0.54853 0.54388 0.99481 0.0
Ho81 Ho 0.53146 0.47376 0.00277 0.0
C82 C 0.45129 0.51118 0.00494 0.0
C83 C 0.55699 0.60288 0.95789 0.0
C84 C 0.5471 0.63617 0.97385 0.0
C85 C 0.51901 0.64743 0.91638 0.0
C86 C 0.51537 0.67999 0.92036 0.0
C87 C 0.54003 0.7024 0.98134 0.0
C88 C 0.56721 0.6909 0.04058 0.0
C89 C 0.57074 0.65839 0.03677 0.0
C90 C 0.54924 0.52553 0.16522 0.0
C91 C 0.62844 0.50634 0.98927 0.0
C92 C 0.52305 0.41559 0.04577 0.0
C93 C 0.53385 0.38261 0.0388 0.0
C94 C 0.53628 0.36757 0.1177 0.0
C95 C 0.53935 0.33502 0.11404 0.0
C96 C 0.5402 0.31637 0.03107 0.0
C97 C 0.53921 0.3318 0.95191 0.0
C98 C 0.53589 0.36443 0.95569 0.0
C99 C 0.53054 0.49139 0.83129 0.0
O100 O 0.47703 0.53516 0.97805 0.0
O101 O 0.46671 0.48639 0.03245 0.0
O102 O 0.57918 0.59224 0.01866 0.0
O103 O 0.52998 0.58049 0.91651 0.0
O104 O 0.5738 0.54881 0.13826 0.0
O105 O 0.52378 0.51417 0.10201 0.0
O106 O 0.60298 0.48263 0.01835 0.0
O107 O 0.61264 0.53076 0.96037 0.0
O108 O 0.50378 0.4247 0.97771 0.0
O109 O 0.54766 0.43885 0.09029 0.0
O110 O 0.50838 0.46677 0.85777 0.0
O111 O 0.55539 0.50365 0.8949 0.0
H112 H 0.50079 0.63121 0.86599 0.0
H113 H 0.49358 0.68761 0.87445 0.0
H114 H 0.58727 0.70716 0.08764 0.0
H115 H 0.59341 0.65089 0.08087 0.0
H116 H 0.53403 0.38078 0.18268 0.0
H117 H 0.53934 0.32429 0.17662 0.0
H118 H 0.54052 0.31861 0.88665 0.0
H119 H 0.53379 0.3752 0.89349 0.0
C120 C 0.0801 0.50229 0.68433 0.0
C121 C 0.04365 0.50159 0.73298 0.0
C122 C 0.08013 0.50654 0.59211 0.0
C123 C 0.04238 0.50867 0.54599 0.0
C124 C 1.00533 0.50766 0.59497 0.0
C125 C 1.00656 0.5048 0.68821 0.0
C126 C 0.12066 0.50891 0.5442 0.0
C127 C 0.96419 0.50876 0.54843 0.0
C128 C 0.04262 0.5464 0.32463 0.0
C129 C 0.04009 0.51996 0.26012 0.0
C130 C 0.04442 0.54311 0.41729 0.0
C131 C 0.04185 0.51246 0.44705 0.0
C132 C 0.039 0.48561 0.38207 0.0
C133 C 0.03907 0.48974 0.28949 0.0
C134 C 0.0493 0.57254 0.48338 0.0
C135 C 1.03486 0.45242 0.41029 0.0
H136 H 0.10883 0.49982 0.71889 0.0
H137 H 0.97822 0.50378 0.72538 0.0
H138 H 0.12004 0.4888 0.49115 0.0
H139 H 0.12531 0.53108 0.51061 0.0
H140 H 0.14755 0.50872 0.59068 0.0
H141 H 0.93801 0.50632 0.59499 0.0
H142 H 0.9646 0.5315 0.51841 0.0
H143 H 0.95854 0.4894 0.49267 0.0
H144 H 0.04373 0.5699 0.3025 0.0
H145 H 1.03693 0.46925 0.2402 0.0
H146 H 0.07645 0.57263 0.52926 0.0
H147 H 1.02163 0.57267 0.52548 0.0
H148 H 0.05347 0.59468 0.44945 0.0
H149 H 0.06262 0.44935 0.45064 0.0
H150 H 1.03108 0.434 0.35183 0.0
H151 H 1.00771 0.44846 0.4536 0.0
C152 C 0.58889 0.01616 0.32018 0.0
C153 C 0.55416 0.00937 0.26124 0.0
C154 C 0.5848 0.01755 0.41411 0.0
C155 C 0.54511 0.01066 0.45055 0.0
C156 C 0.50992 1.00349 0.39105 0.0
C157 C 0.51482 1.00354 0.29739 0.0
C158 C 0.62304 0.02655 0.47438 0.0
C159 C 0.46715 0.99502 0.42617 0.0
C160 C 0.54076 0.98493 0.68939 0.0
C161 C 0.5303 0.01206 0.73952 0.0
C162 C 0.54512 0.98397 0.59536 0.0
C163 C 0.54045 0.01118 0.55069 0.0
C164 C 0.53135 0.03898 0.60203 0.0
C165 C 0.52561 0.03885 0.69518 0.0
C166 C 0.55362 0.95353 0.54344 0.0
C167 C 0.52766 0.06894 0.5586 0.0
H168 H 0.61942 0.02077 0.29266 0.0
H169 H 0.48797 0.99788 0.25238 0.0
H170 H 0.61886 0.04699 0.52357 0.0
H171 H 0.62802 1.00653 0.51327 0.0
H172 H 0.65128 0.03296 0.43594 0.0
H173 H 0.44323 0.98875 0.37121 0.0
H174 H 0.46682 0.97461 0.46678 0.0
H175 H 0.45861 0.01522 0.47101 0.0
H176 H 0.54397 0.96405 0.72317 0.0
H177 H 0.51767 0.05993 0.73375 0.0
H178 H 0.58326 0.95755 0.50832 0.0
H179 H 0.52883 0.94554 0.49119 0.0
H180 H 0.5553 0.93423 0.58743 0.0
H181 H 0.55598 0.07575 0.52095 0.0
H182 H 0.52308 0.0891 0.60855 0.0
H183 H 0.50114 0.0648 0.50951 0.0
C184 C 0.54017 0.52722 0.7062 0.0
C185 C 0.53536 0.49661 0.73426 0.0
C186 C 0.5414 0.53198 0.61383 0.0
C187 C 0.53965 0.50557 0.54742 0.0
C188 C 0.53617 0.47466 0.57607 0.0
C189 C 0.5331 0.47056 0.66843 0.0
C190 C 0.54358 0.56529 0.58725 0.0
C191 C 0.53607 0.4458 0.50914 0.0
C192 C 0.50787 0.51148 0.30086 0.0
C193 C 0.54628 0.51891 0.26148 0.0
C194 C 0.50519 0.50777 0.39374 0.0
C195 C 0.54184 0.51018 0.44839 0.0
C196 C 0.58071 0.51667 0.40776 0.0
C197 C 0.58238 0.52164 0.31581 0.0
C198 C 0.46301 0.50203 0.43385 0.0
C199 C 0.62072 0.51809 0.46127 0.0
H200 H 0.54154 0.54744 0.75637 0.0
H201 H 0.52956 0.44681 0.6894 0.0
H202 H 0.57256 0.57158 0.55144 0.0
H203 H 0.51736 0.56676 0.5402 0.0
H204 H 0.54253 0.58311 0.64619 0.0
H205 H 0.53585 0.42365 0.54232 0.0
H206 H 0.50846 0.44313 0.46329 0.0
H207 H 0.5638 0.44875 0.46713 0.0
H208 H 0.4798 0.50968 0.25967 0.0
H209 H 0.61218 0.52726 0.28583 0.0
H210 H 0.46037 0.52051 0.49025 0.0
H211 H 0.45886 0.47878 0.46181 0.0
H212 H 0.43754 0.50229 0.38373 0.0
H213 H 0.62337 0.53801 0.51534 0.0
H214 H 0.64831 0.52133 0.41882 0.0
H215 H 0.62095 0.49592 0.49407 0.0
C216 C 0.19584 0.48299 0.97668 0.0
C217 C 0.17725 0.50996 0.00654 0.0
C218 C 0.23972 0.48362 0.97403 0.0
C219 C 0.26713 0.5115 0.00647 0.0
C220 C 0.24835 0.53864 0.03873 0.0
C221 C 0.20436 0.53776 0.03614 0.0
C222 C 0.25627 0.45403 0.93528 0.0
C223 C 0.27439 0.56902 0.07684 0.0
C224 C 0.37951 0.49688 0.06985 0.0
C225 C 0.40443 0.51217 0.00653 0.0
C226 C 0.33584 0.49738 0.07244 0.0
C227 C 0.31481 0.51213 0.00705 0.0
C228 C 0.33989 0.52715 0.94181 0.0
C229 C 0.38385 0.52766 0.94383 0.0
C230 C 0.31256 0.48195 0.14645 0.0
C231 C 0.32068 0.54268 0.8683 0.0
H232 H 0.17594 0.4613 0.95267 0.0
H233 H 0.19113 0.55893 0.05962 0.0
H234 H 0.28643 0.45958 0.90301 0.0
H235 H 0.26063 0.43894 0.98994 0.0
H236 H 0.23407 0.4399 0.88474 0.0
H237 H 0.25722 0.58252 0.12748 0.0
H238 H 0.30377 0.56458 0.10874 0.0
H239 H 0.282 0.58422 0.02186 0.0
H240 H 0.39435 0.48487 0.11936 0.0
H241 H 0.40204 0.53951 0.89391 0.0
H242 H 0.30177 0.45671 0.1231 0.0
H243 H 0.28519 0.49368 0.16594 0.0
H244 H 0.33289 0.48247 0.20711 0.0
H245 H 0.28894 0.53084 0.84873 0.0
H246 H 0.33985 0.54244 0.80758 0.0
H247 H 0.31891 0.56783 0.89228 0.0
C248 C 0.73598 0.18666 0.97275 0.0
C249 C 0.75573 0.15931 0.96848 0.0
C250 C 0.75898 0.21711 0.97772 0.0
C251 C 0.80282 0.22033 0.97876 0.0
C252 C 0.82291 0.19284 0.97465 0.0
C253 C 0.79917 0.16274 0.96929 0.0
C254 C 0.73638 0.24581 0.982 0.0
C255 C 0.86958 0.19519 0.97561 0.0
C256 C 0.86821 0.29391 0.90868 0.0
C257 C 0.88317 0.30969 0.99193 0.0
C258 C 0.84073 0.26545 0.9035 0.0
C259 C 0.82802 0.25232 0.98349 0.0
C260 C 0.84183 0.26872 0.0678 0.0
C261 C 0.86917 0.29722 0.07101 0.0
C262 C 0.8264 0.24891 0.81229 0.0
C263 C 0.82913 0.25548 0.15465 0.0
H264 H 0.70247 0.1843 0.97342 0.0
H265 H 0.81473 0.14179 0.9646 0.0
H266 H 0.74564 0.2615 0.04463 0.0
H267 H 0.74505 0.25977 0.92484 0.0
H268 H 0.70219 0.23926 0.98004 0.0
H269 H 0.88042 0.17157 0.97342 0.0
H270 H 0.88189 0.20708 0.91708 0.0
H271 H 0.88296 0.2099 0.03711 0.0
H272 H 0.87843 0.30365 0.84733 0.0
H273 H 0.88087 0.30909 0.13557 0.0
H274 H 0.79211 0.24356 0.80855 0.0
H275 H 0.83885 0.22595 0.80166 0.0
H276 H 0.83664 0.26334 0.75687 0.0
H277 H 0.79494 0.24976 0.15587 0.0
H278 H 0.83992 0.27226 0.2145 0.0
H279 H 0.84228 0.23306 0.15973 0.0
C280 C 0.57927 0.89281 0.96813 0.0
C281 C 0.54291 0.90692 0.97911 0.0
C282 C 0.5787 0.85968 0.9679 0.0
C283 C 0.5408 0.83987 0.97796 0.0
C284 C 0.50391 0.85395 0.98783 0.0
C285 C 0.50544 0.88712 0.98872 0.0
C286 C 0.61885 0.84589 0.95791 0.0
C287 C 0.46267 0.83399 0.99786 0.0
C288 C 0.53393 0.75101 0.89978 0.0
C289 C 0.53882 0.73757 0.98086 0.0
C290 C 0.5342 0.78401 0.89793 0.0
C291 C 0.53979 0.80452 0.97898 0.0
C292 C 0.54452 0.79118 0.06105 0.0
C293 C 0.54383 0.75807 0.06105 0.0
C294 C 0.52884 0.79699 0.80884 0.0
C295 C 0.55057 0.81195 0.14917 0.0
H296 H 0.60842 0.90772 0.96101 0.0
H297 H 0.47702 0.89755 0.99691 0.0
H298 H 0.62486 0.83351 0.01762 0.0
H299 H 0.61661 0.828 0.89842 0.0
H300 H 0.64567 0.86433 0.95031 0.0
H301 H 0.43664 0.84837 0.0023 0.0
H302 H 0.45635 0.81556 0.93988 0.0
H303 H 0.46351 0.8215 0.0593 0.0
H304 H 0.53074 0.7358 0.83701 0.0
H305 H 0.54702 0.74824 0.12442 0.0
H306 H 0.55669 0.8137 0.79592 0.0
H307 H 0.50205 0.81054 0.81062 0.0
H308 H 0.52382 0.77797 0.752 0.0
H309 H 0.57847 0.82983 0.147 0.0
H310 H 0.55418 0.79809 0.20716 0.0
H311 H 0.52369 0.82512 0.1605 0.0
C312 C 0.88398 0.53467 0.01849 0.0
C313 C 0.90259 0.50789 0.98702 0.0
C314 C 0.8401 0.534 0.02131 0.0
C315 C 0.8127 0.5063 0.98729 0.0
C316 C 0.83151 0.47937 0.95341 0.0
C317 C 0.8755 0.48024 0.95595 0.0
C318 C 0.82356 0.56334 0.06195 0.0
C319 C 0.80554 0.4492 0.9135 0.0
C320 C 0.69594 0.48955 0.04908 0.0
C321 C 0.67535 0.50548 0.98743 0.0
C322 C 0.7399 0.49009 0.051 0.0
C323 C 0.76502 0.50566 0.98681 0.0
C324 C 0.74402 0.52092 0.92255 0.0
C325 C 0.70032 0.52132 0.92517 0.0
C326 C 0.7591 0.47398 0.12327 0.0
C327 C 0.7674 0.53704 0.8498 0.0
H328 H 0.90387 0.55624 0.04361 0.0
H329 H 0.88875 0.45922 0.93115 0.0
H330 H 0.81978 0.5791 0.00866 0.0
H331 H 0.79314 0.5576 0.09299 0.0
H332 H 0.84555 0.57687 0.11395 0.0
H333 H 0.82259 0.43637 0.86112 0.0
H334 H 0.79851 0.43329 0.96709 0.0
H335 H 0.77588 0.45376 0.8832 0.0
H336 H 0.67774 0.47729 0.09824 0.0
H337 H 0.68551 0.53372 0.87657 0.0
H338 H 0.79058 0.48604 0.14425 0.0
H339 H 0.76156 0.44912 0.09723 0.0
H340 H 0.73962 0.47328 0.18347 0.0
H341 H 0.77856 0.56203 0.87517 0.0
H342 H 0.74707 0.53732 0.78959 0.0
H343 H 0.79456 0.52525 0.829 0.0
C344 C 0.22883 0.71161 0.93771 0.0
C345 C 0.19498 0.70858 0.99448 0.0
C346 C 0.25663 0.73992 0.94205 0.0
C347 C 0.25024 0.76594 0.00411 0.0
C348 C 0.2166 0.76279 0.06277 0.0
C349 C 0.18949 0.73416 0.05742 0.0
C350 C 0.29236 0.74219 0.87901 0.0
C351 C 0.20851 0.79001 0.12949 0.0
C352 C 0.33676 0.83426 0.06663 0.0
C353 C 0.32617 0.85724 0.01278 0.0
C354 C 0.3129 0.80418 0.06316 0.0
C355 C 0.27743 0.79698 0.00497 0.0
C356 C 0.26698 0.81993 0.94953 0.0
C357 C 0.29152 0.84971 0.95395 0.0
C358 C 0.32535 0.78025 0.12257 0.0
C359 C 0.22933 0.81329 0.88686 0.0
H360 H 0.23351 0.69181 0.8896 0.0
H361 H 0.16313 0.73216 0.10072 0.0
H362 H 0.28876 0.76041 0.83258 0.0
H363 H 0.32198 0.74983 0.91757 0.0
H364 H 0.29445 0.71928 0.83845 0.0
H365 H 0.18204 0.78334 0.17276 0.0
H366 H 0.23645 0.79841 0.17313 0.0
H367 H 0.20175 0.81024 0.09315 0.0
H368 H 0.36384 0.8398 0.11133 0.0
H369 H 0.28293 0.86745 0.91282 0.0
H370 H 0.3288 0.75774 0.08149 0.0
H371 H 0.30073 0.77474 0.17117 0.0
H372 H 0.3549 0.78894 0.16067 0.0
H373 H 0.23106 0.79163 0.84046 0.0
H374 H 0.22615 0.8333 0.8463 0.0
H375 H 0.20097 0.80878 0.92621 0.0
C376 C 0.51844 0.26004 0.95936 0.0
C377 C 0.54052 0.28096 0.02759 0.0
C378 C 0.51735 0.22683 0.95703 0.0
C379 C 0.53846 0.21375 0.02502 0.0
C380 C 0.56088 0.23463 0.09391 0.0
C381 C 0.56183 0.26776 0.09409 0.0
C382 C 0.49346 0.20566 0.88159 0.0
C383 C 0.58388 0.22194 0.16785 0.0
C384 C 0.50538 0.12649 0.06334 0.0
C385 C 0.5363 0.11126 0.01999 0.0
C386 C 0.50582 0.15969 0.06602 0.0
C387 C 0.53761 0.17832 0.02334 0.0
C388 C 0.56871 0.16303 0.97896 0.0
C389 C 0.56784 0.12993 0.9784 0.0
C390 C 0.47229 0.1749 0.11505 0.0
C391 C 0.60304 0.18164 0.93184 0.0
H392 H 0.50122 0.26956 0.90825 0.0
H393 H 0.57964 0.28336 0.14645 0.0
H394 H 0.51431 0.19068 0.84493 0.0
H395 H 0.46856 0.18941 0.90936 0.0
H396 H 0.47925 0.21939 0.83296 0.0
H397 H 0.59864 0.24112 0.21837 0.0
H398 H 0.56233 0.20512 0.20259 0.0
H399 H 0.60828 0.2086 0.13879 0.0
H400 H 0.48091 0.11249 0.09594 0.0
H401 H 0.59187 0.11863 0.94426 0.0
H402 H 0.45495 0.1872 0.06802 0.0
H403 H 0.48639 0.1931 0.16882 0.0
H404 H 0.45005 0.15733 0.14577 0.0
H405 H 0.5899 0.19626 0.88417 0.0
H406 H 0.62284 0.16603 0.89419 0.0
H407 H 0.62285 0.19812 0.98182 0.0
loop_
_geom_bond_atom_site_label_1
_geom_bond_atom_site_label_2
_geom_bond_distance
_geom_bond_site_symmetry_2
_ccdc_geom_bond_type
Ho0 C3 2.811 . S
Ho0 O20 2.322 . S
Ho0 O22 2.378 . S
Ho0 O23 2.524 1_556 S
Ho0 O24 2.381 . S
Ho0 O25 2.669 1_655 S
Ho0 O27 2.346 1_655 S
Ho0 O31 2.305 1_556 S
Ho1 C12 2.811 . S
Ho1 O21 2.346 1_455 S
Ho1 O25 2.305 1_554 S
Ho1 O26 2.322 . S
Ho1 O28 2.378 . S
Ho1 O29 2.524 1_554 S
Ho1 O30 2.381 . S
Ho1 O31 2.669 1_455 S
C2 O20 1.259 . S
C2 O21 1.268 1_556 S
C3 Ho0 2.811 . S
C3 C4 1.488 . S
C3 O22 1.215 . S
C3 O23 1.289 1_556 S
C4 C3 1.488 . S
C4 C5 1.348 1_556 S
C4 C9 1.413 . S
C5 C4 1.348 1_554 S
C5 C6 1.442 . S
C5 H32 0.930 . S
C6 C5 1.442 . S
C6 C7 1.381 1_554 S
C6 H33 0.931 . S
C7 C6 1.381 1_556 S
C7 C8 1.321 . S
C8 C7 1.321 . S
C8 C9 1.403 . S
C8 H34 0.934 . S
C9 C4 1.413 . S
C9 C8 1.403 . S
C9 H35 0.930 . S
C10 O24 1.275 1_455 S
C10 O25 1.256 . S
C11 O26 1.259 . S
C11 O27 1.268 1_554 S
C12 Ho1 2.811 . S
C12 C13 1.488 . S
C12 O28 1.215 . S
C12 O29 1.289 1_554 S
C13 C12 1.488 . S
C13 C14 1.348 1_554 S
C13 C18 1.413 . S
C14 C13 1.348 1_556 S
C14 C15 1.442 . S
C14 H36 0.930 . S
C15 C14 1.442 . S
C15 C16 1.381 1_556 S
C15 H37 0.931 . S
C16 C15 1.381 1_554 S
C16 C17 1.321 . S
C17 C16 1.321 . S
C17 C18 1.403 . S
C17 H38 0.934 . S
C18 C13 1.413 . S
C18 C17 1.403 . S
C18 H39 0.930 . S
C19 O30 1.275 . S
C19 O31 1.256 1_455 S
O20 Ho0 2.322 . S
O20 C2 1.259 . S
O21 Ho1 2.346 1_655 S
O21 C2 1.268 1_554 S
O22 Ho0 2.378 . S
O22 C3 1.215 . S
O23 Ho0 2.524 1_554 S
O23 C3 1.289 1_554 S
O24 Ho0 2.381 . S
O24 C10 1.275 1_655 S
O25 Ho0 2.669 1_455 S
O25 Ho1 2.305 1_556 S
O25 C10 1.256 . S
O26 Ho1 2.322 . S
O26 C11 1.259 . S
O27 Ho0 2.346 1_455 S
O27 C11 1.268 1_556 S
O28 Ho1 2.378 . S
O28 C12 1.215 . S
O29 Ho1 2.524 1_556 S
O29 C12 1.289 1_556 S
O30 Ho1 2.381 . S
O30 C19 1.275 . S
O31 Ho0 2.305 1_554 S
O31 Ho1 2.669 1_655 S
O31 C19 1.256 1_655 S
H32 C5 0.930 . S
H33 C6 0.931 . S
H34 C8 0.934 . S
H35 C9 0.930 . S
H36 C14 0.930 . S
H37 C15 0.931 . S
H38 C17 0.934 . S
H39 C18 0.930 . S
Ho40 C43 2.811 . S
Ho40 O60 2.322 . S
Ho40 O62 2.378 . S
Ho40 O63 2.524 1_554 S
Ho40 O64 2.381 . S
Ho40 O65 2.669 1_545 S
Ho40 O67 2.346 1_545 S
Ho40 O71 2.305 1_554 S
Ho41 C52 2.810 1_556 S
Ho41 O61 2.346 1_565 S
Ho41 O65 2.305 1_556 S
Ho41 O66 2.322 . S
Ho41 O68 2.378 . S
Ho41 O69 2.524 1_556 S
Ho41 O70 2.381 . S
Ho41 O71 2.669 1_565 S
C42 O60 1.259 . S
C42 O61 1.268 1_554 S
C43 Ho40 2.811 . S
C43 C44 1.488 1_554 S
C43 O62 1.216 . S
C43 O63 1.288 1_554 S
C44 C43 1.488 1_556 S
C44 C45 1.348 . S
C44 C49 1.413 1_556 S
C45 C44 1.348 . S
C45 C46 1.442 . S
C45 H72 0.930 . S
C46 C45 1.442 . S
C46 C47 1.381 . S
C46 H73 0.931 . S
C47 C46 1.381 . S
C47 C48 1.321 1_556 S
C48 C47 1.321 1_554 S
C48 C49 1.403 . S
C48 H74 0.934 . S
C49 C44 1.413 1_554 S
C49 C48 1.403 . S
C49 H75 0.930 . S
C50 O64 1.275 . S
C50 O65 1.256 1_545 S
C51 O66 1.259 . S
C51 O67 1.268 1_556 S
C52 Ho41 2.810 1_554 S
C52 C53 1.489 . S
C52 O68 1.212 1_554 S
C52 O69 1.292 . S
C53 C52 1.489 . S
C53 C54 1.348 . S
C53 C58 1.413 1_554 S
C54 C53 1.348 . S
C54 C55 1.442 . S
C54 H76 0.930 . S
C55 C54 1.442 . S
C55 C56 1.381 . S
C55 H77 0.931 . S
C56 C55 1.381 . S
C56 C57 1.321 1_554 S
C57 C56 1.321 1_556 S
C57 C58 1.403 . S
C57 H78 0.934 . S
C58 C53 1.413 1_556 S
C58 C57 1.403 . S
C58 H79 0.930 . S
C59 O70 1.275 . S
C59 O71 1.256 1_565 S
O60 Ho40 2.322 . S
O60 C42 1.259 . S
O61 Ho41 2.346 1_545 S
O61 C42 1.268 1_556 S
O62 Ho40 2.378 . S
O62 C43 1.216 . S
O63 Ho40 2.524 1_556 S
O63 C43 1.288 1_556 S
O64 Ho40 2.381 . S
O64 C50 1.275 . S
O65 Ho40 2.669 1_565 S
O65 Ho41 2.305 1_554 S
O65 C50 1.256 1_565 S
O66 Ho41 2.322 . S
O66 C51 1.259 . S
O67 Ho40 2.346 1_565 S
O67 C51 1.268 1_554 S
O68 Ho41 2.378 . S
O68 C52 1.212 1_556 S
O69 Ho41 2.524 1_554 S
O69 C52 1.292 . S
O70 Ho41 2.381 . S
O70 C59 1.275 . S
O71 Ho40 2.305 1_556 S
O71 Ho41 2.669 1_545 S
O71 C59 1.256 1_545 S
H72 C45 0.930 . S
H73 C46 0.931 . S
H74 C48 0.934 . S
H75 C49 0.930 . S
H76 C54 0.930 . S
H77 C55 0.931 . S
H78 C57 0.934 . S
H79 C58 0.930 . S
Ho80 C83 2.811 . S
Ho80 O100 2.322 . S
Ho80 O102 2.378 . S
Ho80 O103 2.524 1_554 S
Ho80 O104 2.381 . S
Ho80 O105 2.669 . S
Ho80 O107 2.346 . S
Ho80 O111 2.305 1_554 S
Ho81 C92 2.811 . S
Ho81 O101 2.346 . S
Ho81 O105 2.305 1_556 S
Ho81 O106 2.322 . S
Ho81 O108 2.378 . S
Ho81 O109 2.524 1_556 S
Ho81 O110 2.381 . S
Ho81 O111 2.669 . S
C82 O100 1.259 . S
C82 O101 1.268 1_554 S
C83 Ho80 2.811 . S
C83 C84 1.488 . S
C83 O102 1.215 . S
C83 O103 1.289 1_554 S
C84 C83 1.488 . S
C84 C85 1.348 1_554 S
C84 C89 1.413 . S
C85 C84 1.348 1_556 S
C85 C86 1.442 . S
C85 H112 0.930 . S
C86 C85 1.442 . S
C86 C87 1.381 1_556 S
C86 H113 0.931 . S
C87 C86 1.381 1_554 S
C87 C88 1.321 . S
C88 C87 1.321 . S
C88 C89 1.403 . S
C88 H114 0.934 . S
C89 C84 1.413 . S
C89 C88 1.403 . S
C89 H115 0.930 . S
C90 O104 1.275 . S
C90 O105 1.256 . S
C91 O106 1.259 . S
C91 O107 1.268 1_556 S
C92 Ho81 2.811 . S
C92 C93 1.488 . S
C92 O108 1.215 . S
C92 O109 1.289 1_556 S
C93 C92 1.488 . S
C93 C94 1.348 1_556 S
C93 C98 1.413 . S
C94 C93 1.348 1_554 S
C94 C95 1.442 . S
C94 H116 0.930 . S
C95 C94 1.442 . S
C95 C96 1.381 1_554 S
C95 H117 0.931 . S
C96 C95 1.381 1_556 S
C96 C97 1.321 . S
C97 C96 1.321 . S
C97 C98 1.403 . S
C97 H118 0.934 . S
C98 C93 1.413 . S
C98 C97 1.403 . S
C98 H119 0.930 . S
C99 O110 1.275 . S
C99 O111 1.256 . S
O100 Ho80 2.322 . S
O100 C82 1.259 . S
O101 Ho81 2.346 . S
O101 C82 1.268 1_556 S
O102 Ho80 2.378 . S
O102 C83 1.215 . S
O103 Ho80 2.524 1_556 S
O103 C83 1.289 1_556 S
O104 Ho80 2.381 . S
O104 C90 1.275 . S
O105 Ho80 2.669 . S
O105 Ho81 2.305 1_554 S
O105 C90 1.256 . S
O106 Ho81 2.322 . S
O106 C91 1.259 . S
O107 Ho80 2.346 . S
O107 C91 1.268 1_554 S
O108 Ho81 2.378 . S
O108 C92 1.215 . S
O109 Ho81 2.524 1_554 S
O109 C92 1.289 1_554 S
O110 Ho81 2.381 . S
O110 C99 1.275 . S
O111 Ho80 2.305 1_556 S
O111 Ho81 2.669 . S
O111 C99 1.256 . S
H112 C85 0.930 . S
H113 C86 0.931 . S
H114 C88 0.934 . S
H115 C89 0.930 . S
H116 C94 0.930 . S
H117 C95 0.931 . S
H118 C97 0.934 . S
H119 C98 0.930 . S
C120 C121 1.391 . S
C120 C122 1.394 . S
C120 H136 0.931 . S
C121 C120 1.391 . S
C121 C125 1.376 1_455 S
C122 C120 1.394 . S
C122 C123 1.369 . S
C122 C126 1.531 . S
C123 C122 1.369 . S
C123 C124 1.410 1_455 S
C123 C131 1.503 . S
C124 C123 1.410 1_655 S
C124 C125 1.392 . S
C124 C127 1.511 . S
C125 C121 1.376 1_655 S
C125 C124 1.392 . S
C125 H137 0.929 . S
C126 C122 1.531 . S
C126 H138 0.960 . S
C126 H139 0.962 . S
C126 H140 0.960 . S
C127 C124 1.511 . S
C127 H141 0.961 . S
C127 H142 0.961 . S
C127 H143 0.961 . S
C128 C129 1.370 . S
C128 C130 1.363 . S
C128 H144 0.931 . S
C129 C128 1.370 . S
C129 C133 1.408 1_655 S
C130 C128 1.363 . S
C130 C131 1.366 1_655 S
C130 C134 1.528 . S
C131 C123 1.503 . S
C131 C130 1.366 1_455 S
C131 C132 1.403 . S
C132 C131 1.403 . S
C132 C133 1.404 . S
C132 C135 1.539 . S
C133 C129 1.408 1_455 S
C133 C132 1.404 . S
C133 H145 0.930 . S
C134 C130 1.528 . S
C134 H146 0.956 1_655 S
C134 H147 0.961 . S
C134 H148 0.961 . S
C135 C132 1.539 . S
C135 H149 0.958 . S
C135 H150 0.961 1_455 S
C135 H151 0.960 1_455 S
H136 C120 0.931 . S
H137 C125 0.929 . S
H138 C126 0.960 . S
H139 C126 0.962 . S
H140 C126 0.960 . S
H141 C127 0.961 . S
H142 C127 0.961 . S
H143 C127 0.961 . S
H144 C128 0.931 . S
H145 C133 0.930 . S
H146 C134 0.956 1_455 S
H147 C134 0.961 . S
H148 C134 0.961 . S
H149 C135 0.958 . S
H150 C135 0.961 1_655 S
H151 C135 0.960 1_655 S
C152 C153 1.391 . S
C152 C154 1.394 . S
C152 H168 0.931 . S
C153 C152 1.391 . S
C153 C157 1.376 1_545 S
C154 C152 1.394 . S
C154 C155 1.369 . S
C154 C158 1.531 . S
C155 C154 1.369 . S
C155 C156 1.410 1_545 S
C155 C163 1.503 . S
C156 C155 1.410 1_565 S
C156 C157 1.392 . S
C156 C159 1.511 . S
C157 C153 1.376 1_565 S
C157 C156 1.392 . S
C157 H169 0.929 . S
C158 C154 1.531 . S
C158 H170 0.960 . S
C158 H171 0.962 . S
C158 H172 0.960 . S
C159 C156 1.511 . S
C159 H173 0.961 . S
C159 H174 0.961 . S
C159 H175 0.961 1_565 S
C160 C161 1.348 1_565 S
C160 C162 1.363 . S
C160 H176 0.931 . S
C161 C160 1.348 1_545 S
C161 C165 1.437 . S
C162 C160 1.363 . S
C162 C163 1.370 1_565 S
C162 C166 1.524 . S
C163 C155 1.503 . S
C163 C162 1.370 1_545 S
C163 C164 1.403 . S
C164 C163 1.403 . S
C164 C165 1.404 . S
C164 C167 1.539 . S
C165 C161 1.437 . S
C165 C164 1.404 . S
C165 H177 0.930 . S
C166 C162 1.524 . S
C166 H178 0.956 . S
C166 H179 0.961 . S
C166 H180 0.961 . S
C167 C164 1.539 . S
C167 H181 0.958 . S
C167 H182 0.961 . S
C167 H183 0.960 . S
H168 C152 0.931 . S
H169 C157 0.929 . S
H170 C158 0.960 . S
H171 C158 0.962 . S
H172 C158 0.960 . S
H173 C159 0.961 . S
H174 C159 0.961 . S
H175 C159 0.961 1_545 S
H176 C160 0.931 . S
H177 C165 0.930 . S
H178 C166 0.956 . S
H179 C166 0.961 . S
H180 C166 0.961 . S
H181 C167 0.958 . S
H182 C167 0.961 . S
H183 C167 0.960 . S
C184 C185 1.391 . S
C184 C186 1.394 . S
C184 H200 0.931 . S
C185 C184 1.391 . S
C185 C189 1.376 . S
C186 C184 1.394 . S
C186 C187 1.369 . S
C186 C190 1.531 . S
C187 C186 1.369 . S
C187 C188 1.410 . S
C187 C195 1.503 . S
C188 C187 1.410 . S
C188 C189 1.392 . S
C188 C191 1.511 . S
C189 C185 1.376 . S
C189 C188 1.392 . S
C189 H201 0.929 . S
C190 C186 1.531 . S
C190 H202 0.960 . S
C190 H203 0.962 . S
C190 H204 0.960 . S
C191 C188 1.511 . S
C191 H205 0.961 . S
C191 H206 0.961 . S
C191 H207 0.961 . S
C192 C193 1.370 . S
C192 C194 1.363 . S
C192 H208 0.931 . S
C193 C192 1.370 . S
C193 C197 1.408 . S
C194 C192 1.363 . S
C194 C195 1.370 . S
C194 C198 1.524 . S
C195 C187 1.503 . S
C195 C194 1.370 . S
C195 C196 1.403 . S
C196 C195 1.403 . S
C196 C197 1.404 . S
C196 C199 1.539 . S
C197 C193 1.408 . S
C197 C196 1.404 . S
C197 H209 0.930 . S
C198 C194 1.524 . S
C198 H210 0.956 . S
C198 H211 0.961 . S
C198 H212 0.961 . S
C199 C196 1.539 . S
C199 H213 0.958 . S
C199 H214 0.961 . S
C199 H215 0.960 . S
H200 C184 0.931 . S
H201 C189 0.929 . S
H202 C190 0.960 . S
H203 C190 0.962 . S
H204 C190 0.960 . S
H205 C191 0.961 . S
H206 C191 0.961 . S
H207 C191 0.961 . S
H208 C192 0.931 . S
H209 C197 0.930 . S
H210 C198 0.956 . S
H211 C198 0.961 . S
H212 C198 0.961 . S
H213 C199 0.958 . S
H214 C199 0.961 . S
H215 C199 0.960 . S
C216 C217 1.391 . S
C216 C218 1.394 . S
C216 H232 0.931 . S
C217 C216 1.391 . S
C217 C221 1.376 . S
C218 C216 1.394 . S
C218 C219 1.369 . S
C218 C222 1.531 . S
C219 C218 1.369 . S
C219 C220 1.410 . S
C219 C227 1.503 . S
C220 C219 1.410 . S
C220 C221 1.392 . S
C220 C223 1.511 . S
C221 C217 1.376 . S
C221 C220 1.392 . S
C221 H233 0.929 . S
C222 C218 1.531 . S
C222 H234 0.960 . S
C222 H235 0.962 1_556 S
C222 H236 0.960 . S
C223 C220 1.511 . S
C223 H237 0.961 1_556 S
C223 H238 0.961 1_556 S
C223 H239 0.961 . S
C224 C225 1.370 1_554 S
C224 C226 1.363 . S
C224 H240 0.931 . S
C225 C224 1.370 1_556 S
C225 C229 1.408 . S
C226 C224 1.363 . S
C226 C227 1.370 1_554 S
C226 C230 1.524 . S
C227 C219 1.503 . S
C227 C226 1.370 1_556 S
C227 C228 1.403 . S
C228 C227 1.403 . S
C228 C229 1.404 . S
C228 C231 1.539 . S
C229 C225 1.408 . S
C229 C228 1.404 . S
C229 H241 0.930 . S
C230 C226 1.524 . S
C230 H242 0.956 . S
C230 H243 0.961 . S
C230 H244 0.961 . S
C231 C228 1.539 . S
C231 H245 0.958 . S
C231 H246 0.961 . S
C231 H247 0.960 . S
H232 C216 0.931 . S
H233 C221 0.929 . S
H234 C222 0.960 . S
H235 C222 0.962 1_554 S
H236 C222 0.960 . S
H237 C223 0.961 1_554 S
H238 C223 0.961 1_554 S
H239 C223 0.961 . S
H240 C224 0.931 . S
H241 C229 0.930 . S
H242 C230 0.956 . S
H243 C230 0.961 . S
H244 C230 0.961 . S
H245 C231 0.958 . S
H246 C231 0.961 . S
H247 C231 0.960 . S
C248 C249 1.392 . S
C248 C250 1.393 . S
C248 H264 0.930 1_554 S
C249 C248 1.392 . S
C249 C253 1.376 . S
C250 C248 1.393 . S
C250 C251 1.369 . S
C250 C254 1.531 . S
C251 C250 1.369 . S
C251 C252 1.410 . S
C251 C259 1.503 . S
C252 C251 1.410 . S
C252 C253 1.392 . S
C252 C255 1.511 . S
C253 C249 1.376 . S
C253 C252 1.392 . S
C253 H265 0.929 . S
C254 C250 1.531 . S
C254 H266 0.960 . S
C254 H267 0.962 1_554 S
C254 H268 0.960 . S
C255 C252 1.511 . S
C255 H269 0.961 . S
C255 H270 0.961 . S
C255 H271 0.961 . S
C256 C257 1.367 1_556 S
C256 C258 1.363 . S
C256 H272 0.931 . S
C257 C256 1.367 1_554 S
C257 C261 1.412 . S
C258 C256 1.363 . S
C258 C259 1.370 1_556 S
C258 C262 1.524 . S
C259 C251 1.503 . S
C259 C258 1.370 1_554 S
C259 C260 1.403 . S
C260 C259 1.403 . S
C260 C261 1.404 . S
C260 C263 1.539 . S
C261 C257 1.412 . S
C261 C260 1.404 . S
C261 H273 0.930 . S
C262 C258 1.524 . S
C262 H274 0.956 . S
C262 H275 0.961 . S
C262 H276 0.961 . S
C263 C260 1.539 . S
C263 H277 0.958 . S
C263 H278 0.961 . S
C263 H279 0.960 . S
H264 C248 0.930 1_556 S
H265 C253 0.929 . S
H266 C254 0.960 . S
H267 C254 0.962 1_556 S
H268 C254 0.960 . S
H269 C255 0.961 . S
H270 C255 0.961 . S
H271 C255 0.961 . S
H272 C256 0.931 . S
H273 C261 0.930 . S
H274 C262 0.956 . S
H275 C262 0.961 . S
H276 C262 0.961 . S
H277 C263 0.958 . S
H278 C263 0.961 . S
H279 C263 0.960 . S
C280 C281 1.391 . S
C280 C282 1.394 . S
C280 H296 0.931 . S
C281 C280 1.391 . S
C281 C285 1.376 . S
C282 C280 1.394 . S
C282 C283 1.369 . S
C282 C286 1.531 . S
C283 C282 1.369 . S
C283 C284 1.410 . S
C283 C291 1.503 . S
C284 C283 1.410 . S
C284 C285 1.392 . S
C284 C287 1.511 . S
C285 C281 1.376 . S
C285 C284 1.392 . S
C285 H297 0.929 . S
C286 C282 1.531 . S
C286 H298 0.960 . S
C286 H299 0.962 1_554 S
C286 H300 0.960 . S
C287 C284 1.511 . S
C287 H301 0.961 . S
C287 H302 0.961 . S
C287 H303 0.961 . S
C288 C289 1.370 1_556 S
C288 C290 1.363 . S
C288 H304 0.931 . S
C289 C288 1.370 1_554 S
C289 C293 1.408 . S
C290 C288 1.363 . S
C290 C291 1.370 1_556 S
C290 C294 1.524 . S
C291 C283 1.503 . S
C291 C290 1.370 1_554 S
C291 C292 1.403 . S
C292 C291 1.403 . S
C292 C293 1.404 . S
C292 C295 1.539 . S
C293 C289 1.408 . S
C293 C292 1.404 . S
C293 H305 0.930 . S
C294 C290 1.524 . S
C294 H306 0.956 . S
C294 H307 0.961 . S
C294 H308 0.961 . S
C295 C292 1.539 . S
C295 H309 0.958 . S
C295 H310 0.961 . S
C295 H311 0.960 . S
H296 C280 0.931 . S
H297 C285 0.929 . S
H298 C286 0.960 . S
H299 C286 0.962 1_556 S
H300 C286 0.960 . S
H301 C287 0.961 . S
H302 C287 0.961 . S
H303 C287 0.961 . S
H304 C288 0.931 . S
H305 C293 0.930 . S
H306 C294 0.956 . S
H307 C294 0.961 . S
H308 C294 0.961 . S
H309 C295 0.958 . S
H310 C295 0.961 . S
H311 C295 0.960 . S
C312 C313 1.391 . S
C312 C314 1.394 . S
C312 H328 0.931 . S
C313 C312 1.391 . S
C313 C317 1.376 1_554 S
C314 C312 1.394 . S
C314 C315 1.369 1_554 S
C314 C318 1.531 . S
C315 C314 1.369 1_556 S
C315 C316 1.410 . S
C315 C323 1.503 . S
C316 C315 1.410 . S
C316 C317 1.392 . S
C316 C319 1.511 . S
C317 C313 1.376 1_556 S
C317 C316 1.392 . S
C317 H329 0.929 . S
C318 C314 1.531 . S
C318 H330 0.960 . S
C318 H331 0.962 . S
C318 H332 0.960 . S
C319 C316 1.511 . S
C319 H333 0.961 . S
C319 H334 0.961 . S
C319 H335 0.961 . S
C320 C321 1.370 . S
C320 C322 1.363 . S
C320 H336 0.931 . S
C321 C320 1.370 . S
C321 C325 1.408 1_554 S
C322 C320 1.363 . S
C322 C323 1.370 1_554 S
C322 C326 1.524 . S
C323 C315 1.503 . S
C323 C322 1.370 1_556 S
C323 C324 1.403 . S
C324 C323 1.403 . S
C324 C325 1.404 . S
C324 C327 1.539 . S
C325 C321 1.408 1_556 S
C325 C324 1.404 . S
C325 H337 0.930 . S
C326 C322 1.524 . S
C326 H338 0.956 . S
C326 H339 0.961 . S
C326 H340 0.961 . S
C327 C324 1.539 . S
C327 H341 0.958 . S
C327 H342 0.961 . S
C327 H343 0.960 . S
H328 C312 0.931 . S
H329 C317 0.929 . S
H330 C318 0.960 . S
H331 C318 0.962 . S
H332 C318 0.960 . S
H333 C319 0.961 . S
H334 C319 0.961 . S
H335 C319 0.961 . S
H336 C320 0.931 . S
H337 C325 0.930 . S
H338 C326 0.956 . S
H339 C326 0.961 . S
H340 C326 0.961 . S
H341 C327 0.958 . S
H342 C327 0.961 . S
H343 C327 0.960 . S
C344 C345 1.391 . S
C344 C346 1.394 . S
C344 H360 0.931 . S
C345 C344 1.391 . S
C345 C349 1.376 1_556 S
C346 C344 1.394 . S
C346 C347 1.369 . S
C346 C350 1.531 . S
C347 C346 1.369 . S
C347 C348 1.410 1_556 S
C347 C355 1.503 . S
C348 C347 1.410 1_554 S
C348 C349 1.392 . S
C348 C351 1.511 . S
C349 C345 1.376 1_554 S
C349 C348 1.392 . S
C349 H361 0.929 . S
C350 C346 1.531 . S
C350 H362 0.960 . S
C350 H363 0.962 . S
C350 H364 0.960 . S
C351 C348 1.511 . S
C351 H365 0.961 . S
C351 H366 0.961 . S
C351 H367 0.961 . S
C352 C353 1.370 . S
C352 C354 1.363 . S
C352 H368 0.931 . S
C353 C352 1.370 . S
C353 C357 1.408 1_554 S
C354 C352 1.363 . S
C354 C355 1.370 1_554 S
C354 C358 1.524 . S
C355 C347 1.503 . S
C355 C354 1.370 1_556 S
C355 C356 1.403 . S
C356 C355 1.403 . S
C356 C357 1.404 . S
C356 C359 1.539 . S
C357 C353 1.408 1_556 S
C357 C356 1.404 . S
C357 H369 0.930 . S
C358 C354 1.524 . S
C358 H370 0.956 . S
C358 H371 0.961 . S
C358 H372 0.961 . S
C359 C356 1.539 . S
C359 H373 0.958 . S
C359 H374 0.961 . S
C359 H375 0.960 . S
H360 C344 0.931 . S
H361 C349 0.929 . S
H362 C350 0.960 . S
H363 C350 0.962 . S
H364 C350 0.960 . S
H365 C351 0.961 . S
H366 C351 0.961 . S
H367 C351 0.961 . S
H368 C352 0.931 . S
H369 C357 0.930 . S
H370 C358 0.956 . S
H371 C358 0.961 . S
H372 C358 0.961 . S
H373 C359 0.958 . S
H374 C359 0.961 . S
H375 C359 0.960 . S
C376 C377 1.391 . S
C376 C378 1.394 . S
C376 H392 0.931 . S
C377 C376 1.391 . S
C377 C381 1.376 1_556 S
C378 C376 1.394 . S
C378 C379 1.369 . S
C378 C382 1.531 . S
C379 C378 1.369 . S
C379 C380 1.410 1_556 S
C379 C387 1.503 . S
C380 C379 1.410 1_554 S
C380 C381 1.392 . S
C380 C383 1.511 . S
C381 C377 1.376 1_554 S
C381 C380 1.392 . S
C381 H393 0.929 . S
C382 C378 1.531 . S
C382 H394 0.960 . S
C382 H395 0.962 . S
C382 H396 0.960 . S
C383 C380 1.511 . S
C383 H397 0.961 . S
C383 H398 0.961 . S
C383 H399 0.961 1_554 S
C384 C385 1.371 1_554 S
C384 C386 1.363 . S
C384 H400 0.931 . S
C385 C384 1.371 1_556 S
C385 C389 1.407 . S
C386 C384 1.363 . S
C386 C387 1.370 1_554 S
C386 C390 1.524 . S
C387 C379 1.503 . S
C387 C386 1.370 1_556 S
C387 C388 1.403 . S
C388 C387 1.403 . S
C388 C389 1.404 . S
C388 C391 1.539 . S
C389 C385 1.407 . S
C389 C388 1.404 . S
C389 H401 0.930 . S
C390 C386 1.524 . S
C390 H402 0.956 . S
C390 H403 0.961 . S
C390 H404 0.961 . S
C391 C388 1.539 . S
C391 H405 0.958 . S
C391 H406 0.961 . S
C391 H407 0.960 . S
H392 C376 0.931 . S
H393 C381 0.929 . S
H394 C382 0.960 . S
H395 C382 0.962 . S
H396 C382 0.960 . S
H397 C383 0.961 . S
H398 C383 0.961 . S
H399 C383 0.961 1_556 S
H400 C384 0.931 . S
H401 C389 0.930 . S
H402 C390 0.956 . S
H403 C390 0.961 . S
H404 C390 0.961 . S
H405 C391 0.958 . S
H406 C391 0.961 . S
H407 C391 0.960 . S
C121 C10 1.433 . S
C129 C19 1.473 1_655 S
C153 C50 1.456 . S
C161 C59 1.451 1_545 S
C185 C99 1.464 . S
C193 C90 1.464 . S
C217 C11 2.623 1_556 S
C225 C82 2.580 1_556 S
C249 C47 0.886 1_554 S
C257 C7 0.892 1_554 S
C281 C51 2.052 1_554 S
C289 C87 1.998 . S
C313 C2 2.610 1_554 S
C321 C91 2.570 1_554 S
C345 C16 0.879 1_556 S
C353 C56 0.900 . S
C377 C96 1.998 . S
C385 C42 2.049 1_556 S
