# Generated by pormake.
# Topology sth, (5)-cn, num edge types: 1
# Building blocks:
#     Node 0, Type 0, BuildingBlock: XOMCOT_clean_sbu_1, # of connection points: 5
#     Node 1, Type 0, BuildingBlock: XOMCOT_clean_sbu_1, # of connection points: 5
#     Node 2, Type 0, BuildingBlock: XOMCOT_clean_sbu_1, # of connection points: 5
#     Node 3, Type 0, BuildingBlock: XOMCOT_clean_sbu_1, # of connection points: 5
#     Node 4, Type 0, BuildingBlock: XOMCOT_clean_sbu_1, # of connection points: 5
#     Node 5, Type 0, BuildingBlock: XOMCOT_clean_sbu_1, # of connection points: 5
#     Node 6, Type 0, BuildingBlock: XOMCOT_clean_sbu_1, # of connection points: 5
#     Node 7, Type 0, BuildingBlock: XOMCOT_clean_sbu_1, # of connection points: 5
#     Node 8, Type 0, BuildingBlock: XOMCOT_clean_sbu_1, # of connection points: 5
#     Node 9, Type 0, BuildingBlock: XOMCOT_clean_sbu_1, # of connection points: 5
#     Node 10, Type 0, BuildingBlock: XOMCOT_clean_sbu_1, # of connection points: 5
#     Node 11, Type 0, BuildingBlock: XOMCOT_clean_sbu_1, # of connection points: 5
#     Node 12, Type 0, BuildingBlock: XOMCOT_clean_sbu_1, # of connection points: 5
#     Node 13, Type 0, BuildingBlock: XOMCOT_clean_sbu_1, # of connection points: 5
#     Node 14, Type 0, BuildingBlock: XOMCOT_clean_sbu_1, # of connection points: 5
#     Node 15, Type 0, BuildingBlock: XOMCOT_clean_sbu_1, # of connection points: 5
#     Node 16, Type 0, BuildingBlock: XOMCOT_clean_sbu_1, # of connection points: 5
#     Node 17, Type 0, BuildingBlock: XOMCOT_clean_sbu_1, # of connection points: 5
#     Edge 18, Type (0, 0), BuildingBlock: CIFDUS_clean_linker_0, # of connection points: 2
#     Edge 19, Type (0, 0), BuildingBlock: CIFDUS_clean_linker_0, # of connection points: 2
#     Edge 20, Type (0, 0), BuildingBlock: CIFDUS_clean_linker_0, # of connection points: 2
#     Edge 21, Type (0, 0), BuildingBlock: CIFDUS_clean_linker_0, # of connection points: 2
#     Edge 22, Type (0, 0), BuildingBlock: CIFDUS_clean_linker_0, # of connection points: 2
#     Edge 23, Type (0, 0), BuildingBlock: CIFDUS_clean_linker_0, # of connection points: 2
#     Edge 24, Type (0, 0), BuildingBlock: CIFDUS_clean_linker_0, # of connection points: 2
#     Edge 25, Type (0, 0), BuildingBlock: CIFDUS_clean_linker_0, # of connection points: 2
#     Edge 26, Type (0, 0), BuildingBlock: CIFDUS_clean_linker_0, # of connection points: 2
#     Edge 27, Type (0, 0), BuildingBlock: CIFDUS_clean_linker_0, # of connection points: 2
#     Edge 28, Type (0, 0), BuildingBlock: CIFDUS_clean_linker_0, # of connection points: 2
#     Edge 29, Type (0, 0), BuildingBlock: CIFDUS_clean_linker_0, # of connection points: 2
#     Edge 30, Type (0, 0), BuildingBlock: CIFDUS_clean_linker_0, # of connection points: 2
#     Edge 31, Type (0, 0), BuildingBlock: CIFDUS_clean_linker_0, # of connection points: 2
#     Edge 32, Type (0, 0), BuildingBlock: CIFDUS_clean_linker_0, # of connection points: 2
#     Edge 33, Type (0, 0), BuildingBlock: CIFDUS_clean_linker_0, # of connection points: 2
#     Edge 34, Type (0, 0), BuildingBlock: CIFDUS_clean_linker_0, # of connection points: 2
#     Edge 35, Type (0, 0), BuildingBlock: CIFDUS_clean_linker_0, # of connection points: 2
#     Edge 36, Type (0, 0), BuildingBlock: CIFDUS_clean_linker_0, # of connection points: 2
#     Edge 37, Type (0, 0), BuildingBlock: CIFDUS_clean_linker_0, # of connection points: 2
#     Edge 38, Type (0, 0), BuildingBlock: CIFDUS_clean_linker_0, # of connection points: 2
#     Edge 39, Type (0, 0), BuildingBlock: CIFDUS_clean_linker_0, # of connection points: 2
#     Edge 40, Type (0, 0), BuildingBlock: CIFDUS_clean_linker_0, # of connection points: 2
#     Edge 41, Type (0, 0), BuildingBlock: CIFDUS_clean_linker_0, # of connection points: 2
#     Edge 42, Type (0, 0), BuildingBlock: CIFDUS_clean_linker_0, # of connection points: 2
#     Edge 43, Type (0, 0), BuildingBlock: CIFDUS_clean_linker_0, # of connection points: 2
#     Edge 44, Type (0, 0), BuildingBlock: CIFDUS_clean_linker_0, # of connection points: 2
#     Edge 45, Type (0, 0), BuildingBlock: CIFDUS_clean_linker_0, # of connection points: 2
#     Edge 46, Type (0, 0), BuildingBlock: CIFDUS_clean_linker_0, # of connection points: 2
#     Edge 47, Type (0, 0), BuildingBlock: CIFDUS_clean_linker_0, # of connection points: 2
#     Edge 48, Type (0, 0), BuildingBlock: CIFDUS_clean_linker_0, # of connection points: 2
#     Edge 49, Type (0, 0), BuildingBlock: CIFDUS_clean_linker_0, # of connection points: 2
#     Edge 50, Type (0, 0), BuildingBlock: CIFDUS_clean_linker_0, # of connection points: 2
#     Edge 51, Type (0, 0), BuildingBlock: CIFDUS_clean_linker_0, # of connection points: 2
#     Edge 52, Type (0, 0), BuildingBlock: CIFDUS_clean_linker_0, # of connection points: 2
#     Edge 53, Type (0, 0), BuildingBlock: CIFDUS_clean_linker_0, # of connection points: 2
#     Edge 54, Type (0, 0), BuildingBlock: CIFDUS_clean_linker_0, # of connection points: 2
#     Edge 55, Type (0, 0), BuildingBlock: CIFDUS_clean_linker_0, # of connection points: 2
#     Edge 56, Type (0, 0), BuildingBlock: CIFDUS_clean_linker_0, # of connection points: 2
#     Edge 57, Type (0, 0), BuildingBlock: CIFDUS_clean_linker_0, # of connection points: 2
#     Edge 58, Type (0, 0), BuildingBlock: CIFDUS_clean_linker_0, # of connection points: 2
#     Edge 59, Type (0, 0), BuildingBlock: CIFDUS_clean_linker_0, # of connection points: 2
#     Edge 60, Type (0, 0), BuildingBlock: CIFDUS_clean_linker_0, # of connection points: 2
#     Edge 61, Type (0, 0), BuildingBlock: CIFDUS_clean_linker_0, # of connection points: 2
#     Edge 62, Type (0, 0), BuildingBlock: CIFDUS_clean_linker_0, # of connection points: 2
# Relax obj value: 0.164
# Max RMSD: 0.183
# Mean RMSD: 0.183
data_MOF--net-sth--node1-XOMCOT_clean_sbu_1--edge1-CIFDUS_clean_linker_0
_symmetry_space_group_name_H-M    P1
_symmetry_Int_Tables_number       1
_symmetry_cell_setting            triclinic
loop_
_symmetry_equiv_pos_as_xyz
'x, y, z'
_cell_length_a     36.360222
_cell_length_b     36.436131
_cell_length_c     67.526993
_cell_angle_alpha  90.188866
_cell_angle_beta   90.004672
_cell_angle_gamma 120.0373
loop_
_atom_site_label
_atom_site_type_symbol
_atom_site_fract_x
_atom_site_fract_y
_atom_site_fract_z
_atom_type_partial_charge
C0 C 0.21798 0.31107 0.2357 0.0
C1 C 0.25852 0.33262 0.22801 0.0
N2 N 0.25565 0.33254 0.20811 0.0
N3 N 0.18955 0.29795 0.22074 0.0
C4 C 0.21351 0.31125 0.20415 0.0
H5 H 0.20982 0.30445 0.25119 0.0
Co6 Co 0.13015 0.26362 0.22199 0.0
C7 C 0.13397 0.33416 0.19475 0.0
O8 O 0.17283 0.36602 0.1971 0.0
N9 N 0.07023 0.22974 0.22257 0.0
C10 C 1.00325 0.21552 0.22234 0.0
C11 C 0.04478 0.2467 0.22419 0.0
C12 C 0.04298 0.18768 0.21981 0.0
N13 N 1.00184 0.17819 0.21963 0.0
O14 O 0.13294 0.23009 0.20094 0.0
H15 H 0.05581 0.28011 0.22613 0.0
H16 H 0.05293 0.16447 0.21795 0.0
O17 O 0.12166 0.29949 0.20393 0.0
C18 C 0.13882 0.20318 0.21035 0.0
O19 O 0.13794 0.20345 0.2298 0.0
N20 N 0.1286 0.29335 0.24436 0.0
C21 C 0.13686 0.32818 0.28207 0.0
C22 C 0.14928 0.35412 0.26518 0.0
C23 C 0.14487 0.33601 0.24635 0.0
C24 C 0.11516 0.26771 0.26054 0.0
C25 C 0.1186 0.28433 0.27947 0.0
H26 H 0.15686 0.35651 0.23368 0.0
H27 H 0.10358 0.23415 0.25882 0.0
H28 H 0.20012 0.30484 0.18938 0.0
H29 H 0.28779 0.34582 0.23641 0.0
H30 H 0.97622 0.22035 0.22257 0.0
H31 H 0.16364 0.3882 0.26655 0.0
H32 H 0.10945 0.26316 0.29203 0.0
C33 C 0.71242 0.89384 0.24245 0.0
C34 C 0.68915 0.91023 0.23391 0.0
N35 N 0.69293 0.90945 0.21407 0.0
N36 N 0.73029 0.88225 0.22803 0.0
C37 C 0.7177 0.89211 0.21101 0.0
H38 H 0.71781 0.89265 0.25813 0.0
Co39 Co 0.77229 0.86633 0.22927 0.0
C40 C 0.70275 0.79408 0.20461 0.0
O41 O 0.67085 0.7993 0.20977 0.0
N42 N 0.81399 0.85022 0.22938 0.0
C43 C 0.84502 0.8112 0.22599 0.0
C44 C 0.8071 0.81019 0.22902 0.0
C45 C 0.85636 0.87495 0.22691 0.0
N46 N 0.87593 0.85202 0.22454 0.0
O47 O 0.80278 0.90563 0.20824 0.0
H48 H 0.77622 0.78195 0.23027 0.0
H49 H 0.87251 0.90912 0.22612 0.0
O50 O 0.74018 0.8189 0.21121 0.0
C51 C 0.82134 0.94065 0.21787 0.0
O52 O 0.81451 0.93985 0.23703 0.0
N53 N 0.74733 0.83356 0.25215 0.0
C54 C 0.72204 0.80653 0.29119 0.0
C55 C 0.69249 0.79082 0.27548 0.0
C56 C 0.70585 0.80458 0.256 0.0
C57 C 0.77632 0.84824 0.26718 0.0
C58 C 0.76476 0.83425 0.2865 0.0
H59 H 0.68232 0.79406 0.24449 0.0
H60 H 0.80879 0.8725 0.26435 0.0
H61 H 0.72777 0.88774 0.19655 0.0
H62 H 0.67289 0.92394 0.24173 0.0
H63 H 0.84946 0.78402 0.22494 0.0
H64 H 0.659 0.76983 0.27823 0.0
H65 H 0.78929 0.84647 0.29775 0.0
C66 C 0.14045 0.82296 0.24842 0.0
C67 C 0.12608 0.78229 0.24166 0.0
N68 N 0.13646 0.78419 0.22238 0.0
N69 N 0.15996 0.85043 0.23349 0.0
C70 C 0.15723 0.82588 0.21786 0.0
H71 H 0.13498 0.83178 0.26297 0.0
Co72 Co 0.17587 0.90795 0.23283 0.0
C73 C 0.26391 0.94617 0.21766 0.0
O74 O 0.27729 0.96934 0.23378 0.0
N75 N 0.19138 0.96706 0.23125 0.0
C76 C 0.2208 0.03744 0.23467 0.0
C77 C 0.22168 1.00193 0.24085 0.0
C78 C 0.17275 0.98307 0.2193 0.0
N79 N 0.1898 0.02534 0.22114 0.0
O80 O 0.13715 0.89513 0.21123 0.0
H81 H 0.24281 1.00212 0.25213 0.0
H82 H 0.14679 0.96453 0.2093 0.0
O83 O 0.22412 0.91993 0.21527 0.0
C84 C 0.10289 0.88361 0.22096 0.0
O85 O 0.10441 0.88304 0.2404 0.0
N86 N 0.20709 0.91696 0.25626 0.0
C87 C 0.23093 0.91488 0.29544 0.0
C88 C 0.24596 0.90019 0.27983 0.0
C89 C 0.23334 0.90117 0.26032 0.0
C90 C 0.1918 0.93059 0.27127 0.0
C91 C 0.20453 0.93141 0.29073 0.0
H92 H 0.24257 0.88703 0.24865 0.0
H93 H 0.16842 0.93989 0.26818 0.0
H94 H 0.16739 0.83814 0.20306 0.0
H95 H 0.10809 0.75348 0.25011 0.0
H96 H 0.24007 0.06933 0.24039 0.0
H97 H 0.26531 0.88591 0.28272 0.0
H98 H 0.19237 0.9436 0.30205 0.0
C99 C 0.34157 0.21835 0.77958 0.0
C100 C 0.36979 0.25921 0.78541 0.0
N101 N 0.37499 0.25971 0.80518 0.0
N102 N 0.32926 0.19264 0.79551 0.0
C103 C 0.35028 0.21885 0.8109 0.0
H104 H 0.32888 0.20864 0.76479 0.0
Co105 Co 0.28408 0.13567 0.79665 0.0
C106 C 0.32632 0.08838 0.80912 0.0
O107 O 0.30786 0.06282 0.79409 0.0
N108 N 0.23705 0.07767 0.79844 0.0
C109 C 0.19034 1.00876 0.79348 0.0
C110 C 0.22603 0.04377 0.7864 0.0
C111 C 0.2063 0.06165 0.81262 0.0
N112 N 0.17789 0.02009 0.80995 0.0
O113 O 0.2636 0.14951 0.8199 0.0
H114 H 0.2427 0.04368 0.77319 0.0
H115 H 0.20414 0.07976 0.82479 0.0
O116 O 0.32062 0.12 0.81196 0.0
C117 C 0.24358 0.16661 0.81239 0.0
O118 O 0.24534 0.17232 0.79313 0.0
N119 N 0.30083 0.12523 0.77196 0.0
C120 C 0.31933 0.12738 0.73165 0.0
C121 C 0.35001 0.13399 0.74611 0.0
C122 C 0.34025 0.13322 0.76629 0.0
C123 C 0.27101 0.11895 0.75809 0.0
C124 C 0.27901 0.11846 0.73803 0.0
H125 H 0.36502 0.14178 0.7772 0.0
H126 H 0.24088 0.11532 0.7627 0.0
H127 H 0.34578 0.20842 0.82614 0.0
H128 H 0.38307 0.28687 0.77598 0.0
H129 H 0.17378 0.97772 0.78659 0.0
H130 H 0.38193 0.14213 0.7419 0.0
H131 H 0.25404 0.1126 0.72758 0.0
C132 C 0.84126 0.13886 0.78776 0.0
C133 C 0.80031 0.12261 0.79457 0.0
N134 N 0.80152 0.12515 0.81449 0.0
N135 N 0.86825 0.15186 0.80332 0.0
C136 C 0.84291 0.14262 0.81937 0.0
H137 H 0.85046 0.13998 0.77245 0.0
Co138 Co 0.927 0.17146 0.80363 0.0
C139 C 0.92058 0.24331 0.82311 0.0
O140 O 0.88264 0.23158 0.81599 0.0
N141 N 0.98506 0.19063 0.80433 0.0
C142 C 0.05488 0.2313 0.80801 0.0
C143 C 1.01745 0.23107 0.80458 0.0
C144 C 1.00359 0.16694 0.80709 0.0
N145 N 0.04598 0.19083 0.80977 0.0
O146 O 0.91983 0.13814 0.82697 0.0
H147 H 1.01399 0.25869 0.80286 0.0
H148 H 0.98611 0.13279 0.80763 0.0
O149 O 0.93859 0.2217 0.81915 0.0
C150 C 0.90418 0.10047 0.82015 0.0
O151 O 0.89632 0.09418 0.80107 0.0
N152 N 0.93377 0.19842 0.77927 0.0
C153 C 0.93019 0.21344 0.73905 0.0
C154 C 0.92701 0.23977 0.7534 0.0
C155 C 0.92889 0.2317 0.77361 0.0
C156 C 0.93968 0.17455 0.76546 0.0
C157 C 0.93827 0.1816 0.74536 0.0
H158 H 0.92455 0.251 0.78436 0.0
H159 H 0.9434 0.14824 0.77016 0.0
H160 H 0.85464 0.14782 0.83445 0.0
H161 H 0.77188 0.10971 0.78556 0.0
H162 H 0.08615 0.25911 0.80908 0.0
H163 H 0.9209 0.26484 0.74911 0.0
H164 H 0.94191 0.16115 0.73483 0.0
C165 C 0.92905 0.73768 0.7927 0.0
C166 C 0.94763 0.7156 0.8001 0.0
N167 N 0.94176 0.712 0.81987 0.0
N168 N 0.91091 0.74751 0.80767 0.0
C169 C 0.91932 0.73153 0.82401 0.0
H170 H 0.93047 0.74763 0.77752 0.0
Co171 Co 0.88797 0.7837 0.80711 0.0
C172 C 0.81324 0.70614 0.82769 0.0
O173 O 0.822 0.6761 0.82356 0.0
N174 N 0.8641 0.81956 0.80729 0.0
C175 C 0.81485 0.8385 0.80516 0.0
C176 C 0.82462 0.80768 0.80072 0.0
C177 C 0.87741 0.85785 0.81596 0.0
N178 N 0.84788 0.87012 0.81497 0.0
O179 O 0.92042 0.81133 0.83048 0.0
H180 H 0.80344 0.7777 0.79363 0.0
H181 H 0.90745 0.87572 0.82351 0.0
O182 O 0.83785 0.74409 0.82188 0.0
C183 C 0.95518 0.83898 0.82242 0.0
O184 O 0.95698 0.84183 0.80301 0.0
N185 N 0.86242 0.76123 0.78246 0.0
C186 C 0.84692 0.73976 0.74236 0.0
C187 C 0.82699 0.70866 0.75707 0.0
C188 C 0.83534 0.72007 0.77716 0.0
C189 C 0.88057 0.79183 0.76834 0.0
C190 C 0.87287 0.78195 0.74833 0.0
H191 H 0.82205 0.69556 0.78817 0.0
H192 H 0.90262 0.82418 0.77266 0.0
H193 H 0.91019 0.73537 0.83878 0.0
H194 H 0.96602 0.70508 0.7917 0.0
H195 H 0.78536 0.83728 0.8014 0.0
H196 H 0.80702 0.67559 0.75311 0.0
H197 H 0.88832 0.80715 0.73758 0.0
C198 C 0.88022 0.63485 0.58509 0.0
C199 C 0.92257 0.65559 0.58037 0.0
N200 N 0.92685 0.66539 0.56095 0.0
N201 N 0.85715 0.63197 0.56893 0.0
C202 C 0.88649 0.65079 0.55436 0.0
H203 H 0.86698 0.62133 0.59936 0.0
Co204 Co 0.79704 0.59922 0.56821 0.0
C205 C 0.77124 0.65995 0.55357 0.0
O206 O 0.75101 0.65485 0.57029 0.0
N207 N 0.73556 0.56457 0.56711 0.0
C208 C 0.66612 0.53725 0.57268 0.0
C209 C 0.70618 0.56717 0.57845 0.0
C210 C 0.71142 0.53208 0.55441 0.0
N211 N 0.66916 0.51504 0.55749 0.0
O212 O 0.80194 0.569 0.54608 0.0
H213 H 0.71257 0.5894 0.59034 0.0
H214 H 0.72429 0.52105 0.54294 0.0
O215 O 0.79278 0.64112 0.55077 0.0
C216 C 0.80446 0.53924 0.55478 0.0
O217 O 0.80008 0.53604 0.57412 0.0
N218 N 0.79507 0.62532 0.59208 0.0
C219 C 0.79736 0.65373 0.63077 0.0
C220 C 0.81637 0.6828 0.61523 0.0
C221 C 0.81549 0.66791 0.59595 0.0
C222 C 0.77949 0.59709 0.60733 0.0
C223 C 0.7791 0.61043 0.62661 0.0
H224 H 0.8318 0.69041 0.58422 0.0
H225 H 0.76702 0.56371 0.60442 0.0
H226 H 0.8782 0.65157 0.53904 0.0
H227 H 0.94817 0.66211 0.59052 0.0
H228 H 0.63693 0.53162 0.57963 0.0
H229 H 0.83207 0.71661 0.61798 0.0
H230 H 0.76583 0.58708 0.6383 0.0
C231 C 0.3951 0.24043 0.57289 0.0
C232 C 0.3681 0.25419 0.56659 0.0
N233 N 0.36429 0.24998 0.54676 0.0
N234 N 0.40789 0.22662 0.5572 0.0
C235 C 0.38882 0.23323 0.54143 0.0
H236 H 0.40611 0.24214 0.58792 0.0
Co237 Co 0.45029 0.21075 0.55773 0.0
C238 C 0.40316 0.12129 0.54385 0.0
O239 O 0.41587 0.11122 0.56004 0.0
N240 N 0.49451 0.19568 0.55781 0.0
C241 C 0.53737 0.16945 0.56436 0.0
C242 C 0.50034 0.16862 0.56941 0.0
C243 C 0.52912 0.21229 0.54581 0.0
N244 N 0.55554 0.1972 0.54956 0.0
O245 O 0.47765 0.24819 0.53556 0.0
H246 H 0.47973 0.14958 0.58124 0.0
H247 H 0.53554 0.23528 0.53446 0.0
O248 O 0.41447 0.16031 0.5405 0.0
C249 C 0.49843 0.28443 0.54408 0.0
O250 O 0.49496 0.28638 0.56338 0.0
N251 N 0.42675 0.18081 0.58144 0.0
C252 C 0.39928 0.15212 0.61977 0.0
C253 C 0.37059 0.13665 0.60386 0.0
C254 C 0.38493 0.15172 0.5847 0.0
C255 C 0.45406 0.19804 0.59704 0.0
C256 C 0.44141 0.18315 0.61621 0.0
H257 H 0.36232 0.14119 0.57264 0.0
H258 H 0.48608 0.22373 0.59454 0.0
H259 H 0.39398 0.2272 0.52627 0.0
H260 H 0.35419 0.2684 0.57582 0.0
H261 H 0.55106 0.15271 0.57172 0.0
H262 H 0.33735 0.11384 0.60628 0.0
H263 H 0.46392 0.19708 0.62829 0.0
C264 C 0.8004 0.17029 0.57592 0.0
C265 C 0.78161 0.12948 0.56848 0.0
N266 N 0.79498 0.13118 0.54971 0.0
N267 N 0.82615 0.19756 0.56201 0.0
C268 C 0.82202 0.17277 0.54625 0.0
H269 H 0.7942 0.17969 0.59017 0.0
Co270 Co 0.85332 0.25712 0.56174 0.0
C271 C 0.93811 0.26834 0.54791 0.0
O272 O 0.95365 0.27535 0.56592 0.0
N273 N 0.88021 0.31747 0.56024 0.0
C274 C 0.92918 0.38594 0.55873 0.0
C275 C 0.92211 0.34579 0.56192 0.0
C276 C 0.86253 0.3418 0.55625 0.0
N277 N 0.89165 0.38364 0.55514 0.0
O278 O 0.8195 0.25219 0.539 0.0
H279 H 0.94642 0.33837 0.56558 0.0
H280 H 0.82884 0.32929 0.55452 0.0
O281 O 0.89986 0.26029 0.54488 0.0
C282 C 0.78526 0.24674 0.54697 0.0
O283 O 0.78372 0.24897 0.56636 0.0
N284 N 0.88092 0.26034 0.58627 0.0
C285 C 0.90625 0.26063 0.62552 0.0
C286 C 0.90587 0.23168 0.61164 0.0
C287 C 0.89248 0.2316 0.5922 0.0
C288 C 0.8796 0.28746 0.59993 0.0
C289 C 0.89309 0.28886 0.61939 0.0
H290 H 0.89128 0.20824 0.58189 0.0
H291 H 0.86624 0.30713 0.59613 0.0
H292 H 0.8371 0.18534 0.53213 0.0
H293 H 0.75795 0.10111 0.57589 0.0
H294 H 0.95991 0.41455 0.55904 0.0
H295 H 0.9152 0.20883 0.61585 0.0
H296 H 0.89109 0.31047 0.62981 0.0
C297 C 0.03197 0.52271 0.13987 0.0
C298 C 0.05723 0.56107 0.14913 0.0
N299 N 0.03184 0.57314 0.15802 0.0
N300 N 0.99062 0.51053 0.14269 0.0
C301 C 0.99178 0.54216 0.15379 0.0
H302 H 0.04322 0.50407 0.13224 0.0
Co303 Co 0.94331 0.45779 0.13507 0.0
C304 C 0.96573 0.3941 0.15206 0.0
O305 O 0.93495 0.36109 0.14298 0.0
N306 N 0.89565 0.40529 0.12782 0.0
C307 C 0.84557 0.35115 0.11058 0.0
C308 C 0.88131 0.39055 0.10937 0.0
C309 C 0.86678 0.3749 0.13997 0.0
N310 N 0.83646 0.34156 0.12982 0.0
O311 O 0.91192 0.45889 0.15768 0.0
H312 H 0.89595 0.40699 0.0958 0.0
H313 H 0.86913 0.37621 0.15597 0.0
O314 O 0.96978 0.43078 0.14983 0.0
C315 C 0.89108 0.47528 0.15037 0.0
O316 O 0.89887 0.48893 0.13201 0.0
N317 N 0.97119 0.45867 0.11138 0.0
C318 C 0.99533 0.45982 0.07196 0.0
C319 C 0.99709 0.43179 0.08565 0.0
C320 C 0.98487 0.43168 0.10534 0.0
C321 C 0.97099 0.48724 0.09848 0.0
C322 C 0.98287 0.48838 0.07877 0.0
H323 H 0.98486 0.40867 0.11522 0.0
H324 H 0.95948 0.50798 0.10334 0.0
H325 H 0.96392 0.54233 0.15915 0.0
H326 H 0.09155 0.57765 0.15008 0.0
H327 H 0.82798 0.33068 0.09829 0.0
H328 H 1.00705 0.40956 0.08112 0.0
H329 H 0.9804 0.51022 0.06877 0.0
C330 C 0.50376 0.4542 0.11612 0.0
C331 C 0.46347 0.43792 0.12371 0.0
N332 N 0.46644 0.44467 0.14345 0.0
N333 N 0.53235 0.47179 0.1309 0.0
C334 C 0.50869 0.46552 0.14736 0.0
H335 H 0.51154 0.452 0.10088 0.0
Co336 Co 0.59093 0.49218 0.12937 0.0
C337 C 0.63168 0.57919 0.14491 0.0
O338 O 0.6566 0.59018 0.1294 0.0
N339 N 0.65131 0.51206 0.12837 0.0
C340 C 0.72016 0.54311 0.12044 0.0
C341 C 0.6809 0.53535 0.1145 0.0
C342 C 0.67432 0.50597 0.14255 0.0
N343 N 0.71593 0.52453 0.13804 0.0
O344 O 0.58534 0.45584 0.15096 0.0
H345 H 0.67565 0.54833 0.10119 0.0
H346 H 0.66135 0.48898 0.15621 0.0
O347 O 0.60224 0.54045 0.14701 0.0
C348 C 0.58093 0.42356 0.14141 0.0
O349 O 0.58151 0.42469 0.12196 0.0
N350 N 0.5932 0.52154 0.10619 0.0
C351 C 0.58986 0.54879 0.06786 0.0
C352 C 0.57991 0.56575 0.08448 0.0
C353 C 0.58146 0.55142 0.10358 0.0
C354 C 0.59992 0.50283 0.0902 0.0
C355 C 0.60046 0.5172 0.07116 0.0
H356 H 0.57187 0.56318 0.11611 0.0
H357 H 0.60646 0.47726 0.09234 0.0
H358 H 0.52225 0.47405 0.16207 0.0
H359 H 0.43427 0.42163 0.11529 0.0
H360 H 0.74967 0.5609 0.11239 0.0
H361 H 0.56978 0.58888 0.08281 0.0
H362 H 0.60927 0.50328 0.05923 0.0
C363 C 0.58571 0.03811 0.11596 0.0
C364 C 0.59962 1.0126 0.12411 0.0
N365 N 0.58912 1.00706 0.14347 0.0
N366 N 0.56598 0.04828 0.13003 0.0
C367 C 0.56854 0.02887 0.14659 0.0
H368 H 0.59128 0.05005 0.10096 0.0
Co369 Co 0.54879 0.08918 0.12881 0.0
C370 C 0.46049 0.02993 0.14432 0.0
O371 O 0.44415 0.02431 0.12651 0.0
N372 N 0.53236 0.13114 0.12886 0.0
C373 C 0.49685 0.16595 0.13243 0.0
C374 C 0.49332 0.12713 0.12888 0.0
C375 C 0.559 0.17311 0.13179 0.0
N376 N 0.53828 0.19482 0.1345 0.0
O377 O 0.58712 0.11931 0.15056 0.0
H378 H 0.46379 0.09814 0.12667 0.0
H379 H 0.59305 0.18746 0.1325 0.0
O380 O 0.50061 0.05439 0.147 0.0
C381 C 0.624 0.13781 0.14258 0.0
O382 O 0.62676 0.13099 0.12366 0.0
N383 N 0.51692 0.06357 0.10516 0.0
C384 C 0.48574 0.03448 0.06674 0.0
C385 C 0.48226 1.00611 0.08167 0.0
C386 C 0.49829 0.02127 0.10067 0.0
C387 C 0.52138 0.09147 0.0906 0.0
C388 C 0.50494 0.0776 0.07167 0.0
H389 H 0.49604 0.9989 0.11177 0.0
H390 H 0.53929 0.12522 0.09322 0.0
H391 H 0.55816 0.03323 0.16098 0.0
H392 H 0.61725 1.00021 0.11644 0.0
H393 H 0.47088 0.17236 0.13336 0.0
H394 H 0.46872 0.97262 0.07861 0.0
H395 H 0.50838 0.10099 0.06087 0.0
C396 C 0.54941 0.99483 0.90396 0.0
C397 C 0.59008 1.01867 0.89662 0.0
N398 N 0.58832 1.01537 0.87671 0.0
N399 N 0.52205 0.9769 0.88872 0.0
C400 C 0.54675 0.99018 0.87239 0.0
H401 H 0.54083 0.98924 0.91943 0.0
Co402 Co 0.46447 0.93454 0.88897 0.0
C403 C 0.46398 1.00515 0.86521 0.0
O404 O 0.50033 0.03578 0.87206 0.0
N405 N 0.40743 0.89224 0.88872 0.0
C406 C 0.33762 0.85784 0.88381 0.0
C407 C 0.37299 0.8969 0.8872 0.0
C408 C 0.39214 0.85022 0.88673 0.0
N409 N 0.34987 0.82851 0.88329 0.0
O410 O 0.47479 0.9062 0.86727 0.0
H411 H 0.37377 0.92695 0.8877 0.0
H412 H 0.412 0.83605 0.88697 0.0
O413 O 0.44958 0.96697 0.87096 0.0
C414 C 0.493 0.88755 0.87508 0.0
O415 O 0.50062 0.89184 0.89422 0.0
N416 N 0.45506 0.95802 0.91184 0.0
C417 C 0.45463 0.98565 0.95039 0.0
C418 C 0.45533 1.00974 0.93404 0.0
C419 C 0.45516 0.99517 0.91479 0.0
C420 C 0.45218 0.93335 0.92755 0.0
C421 C 0.45172 0.94638 0.94692 0.0
H422 H 0.45651 1.0146 0.9026 0.0
H423 H 0.45236 0.90411 0.925 0.0
H424 H 0.53432 0.98053 0.85756 0.0
H425 H 0.61883 0.03513 0.90536 0.0
H426 H 0.30554 0.85172 0.88167 0.0
H427 H 0.45711 0.04008 0.93614 0.0
H428 H 0.4516 0.92696 0.95905 0.0
C429 C 0.06321 0.57928 0.90871 0.0
C430 C 0.04329 0.6004 0.90164 0.0
N431 N 0.04403 0.59982 0.88168 0.0
N432 N 0.07609 0.56486 0.8933 0.0
C433 C 0.06475 0.57876 0.87711 0.0
H434 H 0.06776 0.57471 0.92414 0.0
Co435 Co 0.1058 0.53452 0.89316 0.0
C436 C 1.02283 0.47422 0.87223 0.0
O437 O 1.00228 0.4931 0.87851 0.0
N438 N 0.13548 0.50434 0.89247 0.0
C439 C 0.1474 0.45016 0.89202 0.0
C440 C 0.11736 0.46201 0.89474 0.0
C441 C 0.17681 0.51752 0.88853 0.0
N442 N 0.18491 0.48511 0.88807 0.0
O443 O 0.13655 0.5663 0.87037 0.0
H444 H 0.08413 0.4409 0.89796 0.0
H445 H 0.20073 0.55023 0.88623 0.0
O446 O 0.06166 0.48864 0.87711 0.0
C447 C 0.16663 0.59888 0.87889 0.0
O448 O 0.16814 0.6 0.89834 0.0
N449 N 0.08081 0.50841 0.91729 0.0
C450 C 0.05863 0.49399 0.95718 0.0
C451 C 1.02767 0.47346 0.9424 0.0
C452 C 0.03946 0.48126 0.92235 0.0
C453 C 0.11134 0.52602 0.93156 0.0
C454 C 0.10102 0.51928 0.95151 0.0
H455 H 1.01508 0.46717 0.91121 0.0
H456 H 0.14396 0.54733 0.92742 0.0
H457 H 0.07112 0.57283 0.86215 0.0
H458 H 1.02867 0.61428 0.91059 0.0
H459 H 0.14173 0.41807 0.89267 0.0
H460 H 0.99453 0.45365 0.9463 0.0
H461 H 0.12589 0.53525 0.96247 0.0
C462 C 0.47553 0.49197 0.90872 0.0
C463 C 0.46023 0.45078 0.90283 0.0
N464 N 0.45972 0.44935 0.8829 0.0
N465 N 0.48547 0.51712 0.89265 0.0
C466 C 0.47558 0.49011 0.87707 0.0
H467 H 0.47697 0.50232 0.92385 0.0
Co468 Co 0.49874 0.57453 0.89308 0.0
C469 C 0.58387 0.62325 0.87543 0.0
O470 O 0.5922 0.65025 0.88994 0.0
N471 N 0.51052 0.63258 0.89323 0.0
C472 C 0.53313 0.70068 0.90029 0.0
C473 C 0.53215 0.66444 0.90649 0.0
C474 C 0.49814 0.65101 0.87923 0.0
N475 N 0.51168 0.69216 0.88318 0.0
O476 O 0.45739 0.56162 0.87252 0.0
H477 H 0.54832 0.66293 0.91957 0.0
H478 H 0.47992 0.63504 0.86616 0.0
O479 O 0.54687 0.58993 0.87428 0.0
C480 C 0.42335 0.54658 0.8828 0.0
O481 O 0.42611 0.54341 0.90206 0.0
N482 N 0.5332 0.5838 0.9154 0.0
C483 C 0.5636 0.57954 0.95268 0.0
C484 C 0.58218 0.57415 0.93551 0.0
C485 C 0.56633 0.57623 0.91688 0.0
C486 C 0.51431 0.58789 0.93206 0.0
C487 C 0.52982 0.58725 0.95078 0.0
H488 H 0.57858 0.56871 0.90386 0.0
H489 H 0.48608 0.59054 0.93076 0.0
H490 H 0.47703 0.4997 0.8618 0.0
H491 H 0.44876 0.42368 0.91254 0.0
H492 H 0.54788 0.73091 0.90795 0.0
H493 H 0.60736 0.56656 0.93652 0.0
H494 H 0.51361 0.58985 0.96371 0.0
C495 C 0.67219 0.8838 0.45687 0.0
C496 C 0.69665 0.92354 0.46492 0.0
N497 N 0.69689 0.92008 0.48482 0.0
N498 N 0.65739 0.85482 0.47148 0.0
C499 C 0.67299 0.87785 0.48832 0.0
H500 H 0.66446 0.87675 0.44135 0.0
Co501 Co 0.6169 0.79661 0.46903 0.0
C502 C 0.66454 0.75562 0.48394 0.0
O503 O 0.65505 0.73374 0.46742 0.0
N504 N 0.57496 0.73718 0.4671 0.0
C505 C 0.53591 0.66845 0.45895 0.0
C506 C 0.57181 0.70634 0.45468 0.0
C507 C 0.54011 0.71637 0.47876 0.0
N508 N 0.51599 0.67504 0.47406 0.0
O509 O 0.58562 0.80257 0.49087 0.0
H510 H 0.59391 0.71043 0.44306 0.0
H511 H 0.53206 0.73066 0.49066 0.0
O512 O 0.65155 0.78219 0.48674 0.0
C513 C 0.56506 0.81866 0.48282 0.0
O514 O 0.57121 0.82811 0.4639 0.0
N515 N 0.64411 0.79401 0.44574 0.0
C516 C 0.67607 0.79899 0.40761 0.0
C517 C 0.7027 0.80908 0.42426 0.0
C518 C 0.68617 0.80687 0.44328 0.0
C519 C 0.61866 0.78645 0.42961 0.0
C520 C 0.63357 0.78755 0.41052 0.0
H521 H 0.70735 0.8169 0.45589 0.0
H522 H 0.58635 0.77972 0.43164 0.0
H523 H 0.66487 0.86387 0.5029 0.0
H524 H 0.71215 0.95271 0.45659 0.0
H525 H 0.5244 0.6388 0.45102 0.0
H526 H 0.7361 0.81938 0.42256 0.0
H527 H 0.61241 0.78129 0.39806 0.0
C528 C 0.1601 0.77209 0.46043 0.0
C529 C 0.11988 0.7581 0.46745 0.0
N530 N 0.12259 0.76851 0.48672 0.0
N531 N 0.18879 0.79232 0.47499 0.0
C532 C 0.16476 0.78895 0.49106 0.0
H533 H 0.1678 0.76705 0.44558 0.0
Co534 Co 0.24799 0.81479 0.4711 0.0
C535 C 0.28812 0.90429 0.48406 0.0
O536 O 0.30717 0.9142 0.46682 0.0
N537 N 0.30832 0.83655 0.46726 0.0
C538 C 0.37489 0.87052 0.45578 0.0
C539 C 0.33381 0.86013 0.45218 0.0
C540 C 0.33582 0.83308 0.47983 0.0
N541 N 0.37634 0.85366 0.47317 0.0
O542 O 0.24873 0.78135 0.49288 0.0
H543 H 0.32457 0.87176 0.4396 0.0
H544 H 0.32682 0.81688 0.4939 0.0
O545 O 0.26228 0.86513 0.48825 0.0
C546 C 0.2382 0.74615 0.48424 0.0
O547 O 0.22979 0.74267 0.46518 0.0
N548 N 0.244 0.84113 0.4479 0.0
C549 C 0.23333 0.86644 0.4105 0.0
C550 C 0.22476 0.88291 0.4276 0.0
C551 C 0.22956 0.86917 0.44628 0.0
C552 C 0.24828 0.82197 0.43138 0.0
C553 C 0.24447 0.83507 0.41257 0.0
H554 H 0.22117 0.88055 0.45935 0.0
H555 H 0.25584 0.79693 0.43289 0.0
H556 H 0.17782 0.80097 0.50562 0.0
H557 H 0.09061 0.74033 0.45916 0.0
H558 H 0.40186 0.88936 0.44629 0.0
H559 H 0.21436 0.90597 0.42651 0.0
H560 H 0.24935 0.82012 0.39973 0.0
C561 C 0.26609 0.38683 0.44489 0.0
C562 C 0.28558 0.3644 0.45026 0.0
N563 N 0.28034 0.35679 0.46988 0.0
N564 N 0.2476 0.39297 0.46088 0.0
C565 C 0.25687 0.37429 0.47594 0.0
H566 H 0.26694 0.3994 0.43031 0.0
Co567 Co 0.22416 0.42904 0.4614 0.0
C568 C 0.13591 0.37289 0.47521 0.0
O569 O 0.12249 0.38219 0.45902 0.0
N570 N 0.20141 0.46726 0.46238 0.0
C571 C 0.16384 0.49951 0.45666 0.0
C572 C 0.17169 0.46822 0.45058 0.0
C573 C 0.21126 0.49948 0.47549 0.0
N574 N 0.18871 0.51925 0.47233 0.0
O575 O 0.25844 0.45633 0.4841 0.0
H576 H 0.15556 0.44725 0.43829 0.0
H577 H 0.23401 0.50824 0.48739 0.0
O578 O 0.17593 0.3882 0.47801 0.0
C579 C 0.2923 0.48527 0.47605 0.0
O580 O 0.29328 0.48956 0.45671 0.0
N581 N 0.19632 0.40514 0.43721 0.0
C582 C 0.16992 0.37878 0.39823 0.0
C583 C 0.15643 0.34922 0.41379 0.0
C584 C 0.17061 0.36298 0.43316 0.0
C585 C 0.21184 0.43368 0.42212 0.0
C586 C 0.19805 0.42154 0.40273 0.0
H587 H 0.16185 0.33979 0.44481 0.0
H588 H 0.23479 0.46649 0.42526 0.0
H589 H 0.24882 0.37585 0.49123 0.0
H590 H 0.30322 0.35539 0.44042 0.0
H591 H 0.14193 0.50765 0.44983 0.0
H592 H 0.13621 0.31564 0.41098 0.0
H593 H 0.20956 0.44571 0.3914 0.0
H594 H 0.38604 0.37945 0.13848 0.0
H595 H 0.4681 0.47527 0.18045 0.0
H596 H 0.41004 0.44877 0.20436 0.0
H597 H 0.3355 0.39845 0.21333 0.0
H598 H 0.254 0.30343 0.17097 0.0
H599 H 0.31197 0.33029 0.14713 0.0
C600 C 0.39133 0.39506 0.15271 0.0
C601 C 0.43175 0.42951 0.15751 0.0
C602 C 0.35767 0.37986 0.16637 0.0
C603 C 0.4377 0.44848 0.17632 0.0
C604 C 0.40436 0.43344 0.19001 0.0
C605 C 0.33049 0.38349 0.19893 0.0
C606 C 0.2902 0.349 0.194 0.0
C607 C 0.36419 0.39906 0.18522 0.0
C608 C 0.28428 0.33037 0.17513 0.0
C609 C 0.31759 0.34556 0.16149 0.0
H610 H 0.62353 0.9188 0.21569 0.0
H611 H 0.73038 0.94292 0.17893 0.0
H612 H 0.70683 0.97396 0.15367 0.0
H613 H 0.65713 0.99587 0.14211 0.0
H614 H 0.55008 0.97279 0.17839 0.0
H615 H 0.57285 0.94061 0.20379 0.0
C616 C 0.64169 0.93099 0.20219 0.0
C617 C 0.67848 0.92797 0.19923 0.0
C618 C 0.62807 0.94926 0.18761 0.0
C619 C 0.70149 0.94381 0.18153 0.0
C620 C 0.68821 0.96195 0.16707 0.0
C621 C 0.63833 0.98332 0.15541 0.0
C622 C 0.60178 0.98674 0.15821 0.0
C623 C 0.65156 0.96481 0.16992 0.0
C624 C 0.57853 0.971 0.17585 0.0
C625 C 0.59146 0.95241 0.19037 0.0
H626 H 0.10448 0.64886 0.15641 0.0
H627 H 0.98829 0.57818 0.18946 0.0
H628 H 1.01068 0.6374 0.21242 0.0
H629 H 0.06358 0.70904 0.22348 0.0
H630 H 0.17949 0.7806 0.19048 0.0
H631 H 0.15712 0.7214 0.16721 0.0
C632 C 0.08417 0.6464 0.16868 0.0
C633 C 0.04471 0.609 0.17114 0.0
C634 C 0.09729 0.68073 0.1819 0.0
C635 C 1.01851 0.60664 0.18699 0.0
C636 C 0.03145 0.64044 0.20025 0.0
C637 C 0.08414 0.71151 0.21132 0.0
C638 C 0.12337 0.74904 0.20883 0.0
C639 C 0.07084 0.67754 0.19792 0.0
C640 C 0.14915 0.7521 0.19269 0.0
C641 C 0.13639 0.71822 0.17942 0.0
H642 H 0.4819 0.43922 0.8458 0.0
H643 H 0.39303 0.37322 0.89286 0.0
H644 H 0.36037 0.30817 0.8734 0.0
H645 H 0.35548 0.26986 0.84271 0.0
H646 H 0.44387 0.33474 0.79537 0.0
H647 H 0.47783 0.39996 0.81504 0.0
C648 C 0.45532 0.41062 0.85171 0.0
C649 C 0.44031 0.41124 0.87087 0.0
C650 C 0.43645 0.37289 0.84037 0.0
C651 C 0.40589 0.37369 0.87836 0.0
C652 C 0.38693 0.33637 0.86717 0.0
C653 C 0.38259 0.29799 0.83679 0.0
C654 C 0.397 0.29717 0.81754 0.0
C655 C 0.40194 0.3355 0.84817 0.0
C656 C 0.43178 0.33444 0.81005 0.0
C657 C 0.45131 0.37181 0.82132 0.0
H658 H 0.72235 0.05957 0.80893 0.0
H659 H 0.80115 0.15826 0.85035 0.0
H660 H 0.74167 0.13313 0.87346 0.0
H661 H 0.66703 0.08303 0.88183 0.0
H662 H 0.58939 0.98303 0.84056 0.0
H663 H 0.6482 1.00932 0.81737 0.0
C664 C 0.72637 0.07583 0.82292 0.0
C665 C 0.76611 0.11074 0.82789 0.0
C666 C 0.6921 0.0611 0.83616 0.0
C667 C 0.77101 0.13102 0.84625 0.0
C668 C 0.73695 0.11679 0.85943 0.0
C669 C 0.66301 0.06683 0.86783 0.0
C670 C 0.62347 0.0313 0.86299 0.0
C671 C 0.69735 0.08173 0.85457 0.0
C672 C 0.61893 1.01098 0.84463 0.0
C673 C 0.65277 0.02578 0.83135 0.0
H674 H 1.02409 0.6612 0.88877 0.0
H675 H 1.02002 0.57513 0.84356 0.0
H676 H 0.9882 0.60241 0.82049 0.0
H677 H 0.96066 0.65022 0.813 0.0
H678 H 0.96376 0.73566 0.85819 0.0
H679 H 0.99555 0.7083 0.88143 0.0
C680 C 1.016 0.64809 0.87394 0.0
C681 C 1.02497 0.61622 0.86803 0.0
C682 C 0.99706 0.6636 0.86069 0.0
C683 C 1.01447 0.60016 0.84858 0.0
C684 C 0.99585 0.61554 0.83533 0.0
C685 C 0.96846 0.66302 0.82789 0.0
C686 C 0.95959 0.69492 0.83377 0.0
C687 C 0.98705 0.64729 0.8412 0.0
C688 C 0.96949 0.71068 0.85327 0.0
C689 C 0.98804 0.69525 0.86656 0.0
H690 H 0.74019 0.62829 0.83121 0.0
H691 H 0.79312 0.76148 0.84443 0.0
H692 H 0.72567 0.74746 0.8583 0.0
H693 H 0.65281 0.69814 0.86764 0.0
H694 H 0.59745 0.56463 0.85533 0.0
H695 H 0.66419 0.57811 0.83963 0.0
C696 C 0.73698 0.65413 0.83726 0.0
C697 C 0.77205 0.69589 0.83694 0.0
C698 C 0.69751 0.64591 0.84511 0.0
C699 C 0.76699 0.72907 0.84455 0.0
C700 C 0.72829 0.72113 0.85244 0.0
C701 C 0.65507 0.67187 0.86137 0.0
C702 C 0.62021 0.6304 0.86271 0.0
C703 C 0.69349 0.67979 0.85285 0.0
C704 C 0.62364 0.59689 0.85433 0.0
C705 C 0.662 0.6046 0.84557 0.0
H706 H 0.46518 0.08067 0.8629 0.0
H707 H 0.39965 0.95195 0.84092 0.0
H708 H 0.35114 0.96657 0.82215 0.0
H709 H 0.32711 1.01517 0.81209 0.0
H710 H 0.38965 0.14341 0.83451 0.0
H711 H 0.4393 0.12955 0.8533 0.0
C712 C 0.44052 0.05599 0.85384 0.0
C713 C 0.43632 1.01536 0.85313 0.0
C714 C 0.41201 0.06438 0.84337 0.0
C715 C 0.4037 0.98348 0.84165 0.0
C716 C 0.37587 0.99178 0.83095 0.0
C717 C 0.35159 0.04024 0.82107 0.0
C718 C 0.35486 0.08039 0.8218 0.0
C719 C 0.37968 0.032 0.83176 0.0
C720 C 0.38639 0.11222 0.83374 0.0
C721 C 0.41489 0.10434 0.84438 0.0
H722 H 0.04901 0.41723 0.8644 0.0
H723 H 0.94291 0.43793 0.85664 0.0
H724 H 0.90178 0.36819 0.84125 0.0
H725 H 0.89543 0.301 0.83036 0.0
H726 H 1.00083 0.27943 0.83877 0.0
H727 H 0.04239 0.34957 0.8538 0.0
C728 C 1.01696 0.40662 0.85931 0.0
C729 C 0.99915 0.43292 0.86174 0.0
C730 C 0.99314 0.3661 0.85074 0.0
C731 C 0.95748 0.41844 0.85502 0.0
C732 C 0.93384 0.37846 0.84625 0.0
C733 C 0.92741 0.31146 0.83555 0.0
C734 C 0.94489 0.28484 0.83337 0.0
C735 C 0.95123 0.35191 0.84415 0.0
C736 C 0.98648 0.29915 0.8402 0.0
C737 C 1.01037 0.33937 0.84876 0.0
H738 H 0.62891 0.71815 0.20051 0.0
H739 H 0.76012 0.78625 0.18204 0.0
H740 H 0.74966 0.72496 0.16286 0.0
H741 H 0.70368 0.65294 0.15098 0.0
H742 H 0.57298 0.58226 0.16976 0.0
H743 H 0.58296 0.6434 0.18955 0.0
C744 C 0.65506 0.71959 0.19215 0.0
C745 C 0.69515 0.75696 0.19249 0.0
C746 C 0.64905 0.68371 0.18143 0.0
C747 C 0.72896 0.75805 0.18193 0.0
C748 C 0.72303 0.72297 0.171 0.0
C749 C 0.67729 0.65074 0.15945 0.0
C750 C 0.63754 0.61325 0.1588 0.0
C751 C 0.6833 0.68576 0.17064 0.0
C752 C 0.60392 0.61072 0.17009 0.0
C753 C 0.60958 0.64578 0.18126 0.0
H754 H 0.34969 0.99133 0.22127 0.0
H755 H 0.24986 0.91453 0.17973 0.0
H756 H 0.30299 0.93071 0.15388 0.0
H757 H 0.37682 0.9711 0.14258 0.0
H758 H 0.47648 0.04943 0.18389 0.0
H759 H 0.42409 0.02751 0.21055 0.0
C760 C 0.3394 0.97785 0.2066 0.0
C761 C 0.29569 0.95216 0.20237 0.0
C762 C 0.37005 0.98758 0.19183 0.0
C763 C 0.28317 0.93455 0.18335 0.0
C764 C 0.31356 0.94387 0.16858 0.0
C765 C 0.38728 0.98319 0.15745 0.0
C766 C 0.43055 1.01235 0.16118 0.0
C767 C 0.35695 0.97103 0.17257 0.0
C768 C 0.44347 0.02709 0.18059 0.0
C769 C 0.41346 1.01474 0.19581 0.0
H770 H 0.13205 0.40754 0.18936 0.0
H771 H 0.06132 0.27291 0.1779 0.0
H772 H 1.00266 0.27936 0.16438 0.0
H773 H 0.97064 0.32259 0.15644 0.0
H774 H 0.03988 0.45713 0.16836 0.0
H775 H 0.09951 0.45123 0.18128 0.0
C776 C 0.10407 0.3798 0.18359 0.0
C777 C 0.10123 0.33987 0.18447 0.0
C778 C 0.06986 0.38357 0.1762 0.0
C779 C 0.06439 0.30404 0.17731 0.0
C780 C 0.03071 0.30765 0.16966 0.0
C781 C 0.99863 0.35067 0.16194 0.0
C782 C 1.00058 0.39021 0.16143 0.0
C783 C 0.03289 0.34713 0.16923 0.0
C784 C 0.0373 0.42621 0.16863 0.0
C785 C 0.07158 0.42292 0.17593 0.0
H786 H 0.10885 0.73402 0.52324 0.0
H787 H 0.05416 0.77555 0.47826 0.0
H788 H 0.98828 0.74773 0.49727 0.0
H789 H 0.94471 0.70859 0.52619 0.0
H790 H 0.9988 0.66382 0.57026 0.0
H791 H 0.06558 0.69569 0.55237 0.0
C792 C 0.08276 0.73764 0.51787 0.0
C793 C 0.0865 0.75711 0.49945 0.0
C794 C 0.0444 0.7205 0.52868 0.0
C795 C 0.05203 0.76076 0.49242 0.0
C796 C 1.01428 0.74468 0.50325 0.0
C797 C 0.97099 0.70565 0.53185 0.0
C798 C 0.96628 0.68397 0.54977 0.0
C799 C 1.00973 0.7238 0.52128 0.0
C800 C 1.00119 0.68089 0.55682 0.0
C801 C 0.03965 0.699 0.54649 0.0
H802 H 0.25432 0.31795 0.50562 0.0
H803 H 0.35157 0.35349 0.46118 0.0
H804 H 0.38431 0.32115 0.48032 0.0
H805 H 0.38723 0.28426 0.51023 0.0
H806 H 0.29184 0.25034 0.55531 0.0
H807 H 0.25706 0.28053 0.53562 0.0
C808 C 0.28275 0.3188 0.50016 0.0
C809 C 0.29988 0.33795 0.48176 0.0
C810 C 0.30202 0.30031 0.51143 0.0
C811 C 0.33679 0.33837 0.47499 0.0
C812 C 0.35591 0.32002 0.48603 0.0
C813 C 0.3585 0.28292 0.5156 0.0
C814 C 0.3422 0.26493 0.53423 0.0
C815 C 0.33887 0.30086 0.50427 0.0
C816 C 0.30529 0.26423 0.54109 0.0
C817 C 0.28532 0.28149 0.52982 0.0
H818 H 0.72535 1.0037 0.4783 0.0
H819 H 0.71054 0.91513 0.52427 0.0
H820 H 0.73921 0.9726 0.54852 0.0
H821 H 0.76861 0.04856 0.55684 0.0
H822 H 0.7847 0.13624 0.51035 0.0
H823 H 0.75639 0.07871 0.48618 0.0
C824 C 0.72872 0.99658 0.4935 0.0
C825 C 0.71537 0.95449 0.4992 0.0
C826 C 0.74579 0.02993 0.50739 0.0
C827 C 0.71979 0.94674 0.51925 0.0
C828 C 0.73648 0.97978 0.53321 0.0
C829 C 0.76584 0.05498 0.54142 0.0
C830 C 0.77908 0.09685 0.53546 0.0
C831 C 0.74944 0.02152 0.52747 0.0
C832 C 0.77555 0.10463 0.51536 0.0
C833 C 0.75902 0.07161 0.50151 0.0
H834 H 0.35301 0.03865 0.55322 0.0
H835 H 0.39191 0.1246 0.50371 0.0
H836 H 0.35545 0.06411 0.48096 0.0
H837 H 0.31938 0.98707 0.47512 0.0
H838 H 0.28127 0.90121 0.52466 0.0
H839 H 0.31027 0.96172 0.54758 0.0
C840 C 0.35322 0.04428 0.53744 0.0
C841 C 0.37578 0.08615 0.53011 0.0
C842 C 0.33256 1.0094 0.52454 0.0
C843 C 0.37495 0.09282 0.50971 0.0
C844 C 0.3543 0.0582 0.49673 0.0
C845 C 0.31695 0.98146 0.49096 0.0
C846 C 0.29867 0.93957 0.49819 0.0
C847 C 0.33406 1.01638 0.50396 0.0
C848 C 0.29516 0.93297 0.51872 0.0
C849 C 0.312 0.96761 0.53179 0.0
H850 H 0.05032 0.33206 0.47112 0.0
H851 H 0.14898 0.35579 0.51341 0.0
H852 H 0.09512 0.32076 0.53919 0.0
H853 H 1.0212 0.28996 0.55021 0.0
H854 H 0.92323 0.26965 0.50811 0.0
H855 H 0.97598 0.2965 0.48157 0.0
C856 C 0.06023 0.32935 0.48593 0.0
C857 C 0.10383 0.34708 0.49038 0.0
C858 C 1.02925 0.30997 0.50067 0.0
C859 C 0.11578 0.34265 0.50959 0.0
C860 C 0.08498 0.32275 0.52433 0.0
C861 C 1.01112 0.29089 0.5352 0.0
C862 C 0.96821 0.27819 0.53123 0.0
C863 C 0.04176 0.30727 0.52013 0.0
C864 C 0.95592 0.27932 0.51164 0.0
C865 C 0.98614 0.29487 0.49647 0.0
H866 H 0.74498 0.71705 0.55806 0.0
H867 H 0.77867 0.65432 0.51329 0.0
H868 H 0.75135 0.68176 0.48755 0.0
H869 H 0.71077 0.71663 0.47836 0.0
H870 H 0.67577 0.77804 0.5233 0.0
H871 H 0.71094 0.75802 0.54849 0.0
C872 C 0.74696 0.70982 0.54263 0.0
C873 C 0.76346 0.68322 0.53761 0.0
C874 C 0.73045 0.725 0.52803 0.0
C875 C 0.76627 0.67473 0.51756 0.0
C876 C 0.75027 0.69012 0.50287 0.0
C877 C 0.71104 0.72597 0.49365 0.0
C878 C 0.68998 0.74827 0.49899 0.0
C879 C 0.7311 0.71414 0.50802 0.0
C880 C 0.69143 0.76072 0.5188 0.0
C881 C 0.71146 0.74916 0.5332 0.0
H882 H 0.08677 0.29992 0.31499 0.0
H883 H 0.21037 0.39668 0.29495 0.0
H884 H 0.23118 0.42092 0.32899 0.0
H885 H 0.21637 0.41122 0.36444 0.0
H886 H 0.09228 0.3158 0.3848 0.0
H887 H 0.07028 0.29334 0.35064 0.0
C888 C 0.11817 0.3265 0.31808 0.0
C889 C 0.14696 0.34642 0.30241 0.0
C890 C 0.13019 0.33991 0.33775 0.0
C891 C 0.18735 0.38112 0.30664 0.0
C892 C 0.19946 0.3947 0.32615 0.0
C893 C 0.18417 0.38605 0.36151 0.0
C894 C 0.15612 0.3653 0.37735 0.0
C895 C 0.1714 0.37388 0.34182 0.0
C896 C 0.11491 0.33197 0.37304 0.0
C897 C 0.10212 0.31933 0.35346 0.0
H898 H 0.75749 0.85826 0.32341 0.0
H899 H 0.65598 0.73335 0.30718 0.0
H900 H 0.63353 0.71959 0.34176 0.0
H901 H 0.64214 0.74366 0.37665 0.0
H902 H 0.74683 0.86662 0.39254 0.0
H903 H 0.76993 0.87954 0.35804 0.0
C904 C 0.73114 0.82743 0.32729 0.0
C905 C 0.70874 0.79688 0.31242 0.0
C906 C 0.7192 0.81919 0.34725 0.0
C907 C 0.67364 0.75786 0.31807 0.0
C908 C 0.66095 0.74976 0.33792 0.0
C909 C 0.67024 0.7731 0.37253 0.0
C910 C 0.69278 0.80418 0.38712 0.0
C911 C 0.68338 0.7803 0.35263 0.0
C912 C 0.72926 0.84204 0.38165 0.0
C913 C 0.74223 0.84959 0.3619 0.0
H914 H 0.17777 0.89685 0.32702 0.0
H915 H 0.30339 0.92118 0.31165 0.0
H916 H 0.31563 0.90967 0.34605 0.0
H917 H 0.28981 0.89089 0.38035 0.0
H918 H 0.16594 0.87075 0.3957 0.0
H919 H 0.15463 0.88449 0.36144 0.0
C920 C 0.20836 0.90082 0.33113 0.0
C921 C 0.23962 0.91001 0.31657 0.0
C922 C 0.2156 0.89523 0.35098 0.0
C923 C 0.27843 0.91352 0.32235 0.0
C924 C 0.28562 0.90728 0.34208 0.0
C925 C 0.26051 0.88988 0.37616 0.0
C926 C 0.22863 0.87969 0.39042 0.0
C927 C 0.25428 0.89778 0.35647 0.0
C928 C 0.19099 0.87884 0.38497 0.0
C929 C 0.18441 0.88635 0.36538 0.0
H930 H 0.34307 0.1654 0.63977 0.0
H931 H 0.42576 0.11334 0.64592 0.0
H932 H 0.40768 0.09973 0.68118 0.0
H933 H 0.36984 0.10508 0.7105 0.0
H934 H 0.29274 0.16397 0.7042 0.0
H935 H 0.30679 0.1721 0.66892 0.0
C936 C 0.35648 0.15044 0.64883 0.0
C937 C 0.38504 0.1397 0.64038 0.0
C938 C 0.3471 0.14415 0.66911 0.0
C939 C 0.40326 0.12136 0.65222 0.0
C940 C 0.39311 0.11383 0.67235 0.0
C941 C 0.35632 0.11989 0.70144 0.0
C942 C 0.32957 0.13307 0.7101 0.0
C943 C 0.36544 0.12561 0.68103 0.0
C944 C 0.31236 0.15222 0.698 0.0
C945 C 0.32063 0.15728 0.67775 0.0
H946 H 0.95968 0.28456 0.71604 0.0
H947 H 0.88145 0.14824 0.71416 0.0
H948 H 0.86905 0.15071 0.67891 0.0
H949 H 0.87935 0.19118 0.64861 0.0
H950 H 0.95611 0.3275 0.64995 0.0
H951 H 0.96989 0.32549 0.68532 0.0
C952 C 0.93975 0.25551 0.7079 0.0
C953 C 0.92197 0.21629 0.7177 0.0
C954 C 0.93253 0.25709 0.6875 0.0
C955 C 0.89626 0.17883 0.70692 0.0
C956 C 0.88895 0.18017 0.68676 0.0
C957 C 0.89962 0.22041 0.65657 0.0
C958 C 0.91691 0.25937 0.64665 0.0
C959 C 0.90705 0.21904 0.67687 0.0
C960 C 0.94232 0.29707 0.65729 0.0
C961 C 0.95021 0.29594 0.6775 0.0
H962 H 0.77634 0.68319 0.72145 0.0
H963 H 0.91065 0.77099 0.71513 0.0
H964 H 0.90653 0.75471 0.67995 0.0
H965 H 0.86556 0.71396 0.651 0.0
H966 H 0.73198 0.62406 0.65716 0.0
H967 H 0.73503 0.64253 0.69223 0.0
C968 C 0.80469 0.69857 0.71238 0.0
C969 C 0.8436 0.72859 0.72095 0.0
C970 C 0.80227 0.68874 0.69206 0.0
C971 C 0.88005 0.74839 0.70891 0.0
C972 C 0.87784 0.73895 0.68877 0.0
C973 C 0.83702 0.69894 0.65997 0.0
C974 C 0.79861 0.66787 0.65152 0.0
C975 C 0.83917 0.70919 0.68017 0.0
C976 C 0.76198 0.64803 0.66339 0.0
C977 C 0.76372 0.65853 0.68343 0.0
H978 H 0.03834 0.52648 0.04709 0.0
H979 H 0.97268 0.38981 0.0486 0.0
H980 H 0.98483 0.3877 1.01308 0.0
H981 H 1.01398 0.42516 0.98125 0.0
H982 H 0.07891 0.56177 0.98046 0.0
H983 H 0.06619 0.56337 0.01582 0.0
C984 C 1.02637 0.49617 0.03966 0.0
C985 C 1.0046 0.45842 0.05056 0.0
C986 C 0.033 0.49516 0.01924 0.0
C987 C 0.99006 0.41945 0.04067 0.0
C988 C 0.99664 0.41818 0.0203 0.0
C989 C 1.02489 0.45511 0.98887 0.0
C990 C 0.0474 0.49328 0.97833 0.0
C991 C 1.01793 0.45586 1.00938 0.0
C992 C 0.06175 0.53201 0.98834 0.0
C993 C 0.05455 0.53297 1.00854 0.0
H994 H 0.57112 0.50171 0.03374 0.0
H995 H 0.60411 0.62676 0.05483 0.0
H996 H 0.60045 0.64796 0.02099 0.0
H997 H 0.58677 0.63041 0.98527 0.0
H998 H 0.56187 0.50797 0.9646 0.0
H999 H 0.56625 0.48723 0.9985 0.0
C1000 C 0.57896 0.53414 0.03115 0.0
C1001 C 0.5881 0.56246 0.04716 0.0
C1002 C 0.57894 0.54685 1.01161 0.0
C1003 C 0.59617 0.60374 0.04307 0.0
C1004 C 0.59463 0.61616 0.02363 0.0
C1005 C 0.58317 0.59954 0.98825 0.0
C1006 C 0.57424 0.57075 0.97256 0.0
C1007 C 0.58596 0.58793 1.00779 0.0
C1008 C 0.5694 0.53078 0.97646 0.0
C1009 C 0.57141 0.51878 0.99583 0.0
H1010 H 0.5222 0.07693 0.03243 0.0
H1011 H 0.41813 0.95879 0.05386 0.0
H1012 H 0.39819 0.93392 0.01983 0.0
H1013 H 0.41168 0.94493 0.98389 0.0
H1014 H 0.51362 0.06457 0.96292 0.0
H1015 H 0.53163 0.09034 0.99694 0.0
C1016 C 0.49445 0.04611 0.02983 0.0
C1017 C 0.47189 0.01988 0.04593 0.0
C1018 C 0.48248 0.03236 1.01023 0.0
C1019 C 0.43676 0.97954 0.04192 0.0
C1020 C 0.42503 0.96536 0.02241 0.0
C1021 C 0.43757 0.97678 0.9868 0.0
C1022 C 0.4613 1.00279 0.97089 0.0
C1023 C 0.44792 0.99136 1.00645 0.0
C1024 C 0.49453 0.0441 0.97486 0.0
C1025 C 0.50512 0.05871 0.99432 0.0
H1026 H 0.23514 0.10626 0.2087 0.0
H1027 H 0.10757 1.00169 0.2152 0.0
H1028 H 0.07879 0.04735 0.20694 0.0
H1029 H 0.09057 0.11966 0.20433 0.0
H1030 H 0.21768 0.22488 0.19813 0.0
H1031 H 0.24613 0.17658 0.19904 0.0
C1032 C 0.20109 0.09349 0.20793 0.0
C1033 C 0.17351 0.05087 0.21296 0.0
C1034 C 0.18475 0.12011 0.20308 0.0
C1035 C 0.12942 0.03435 0.21152 0.0
C1036 C 0.11293 0.06053 0.20683 0.0
C1037 C 0.12424 0.13159 0.20207 0.0
C1038 C 0.15204 0.17544 0.20094 0.0
C1039 C 0.14031 0.10379 0.20336 0.0
C1040 C 0.19572 0.19101 0.19856 0.0
C1041 C 0.21202 0.16347 0.19952 0.0
H1042 H 0.82385 1.01364 0.22379 0.0
H1043 H 0.89105 0.95945 0.19479 0.0
H1044 H 0.95429 0.03039 0.1918 0.0
H1045 H 0.99284 0.10682 0.2017 0.0
H1046 H 0.92399 0.15667 0.23342 0.0
H1047 H 0.85942 0.08879 0.23113 0.0
C1048 C 0.85196 1.01761 0.21622 0.0
C1049 C 0.85286 0.9817 0.20939 0.0
C1050 C 0.88834 0.05777 0.2155 0.0
C1051 C 0.88942 0.98687 0.1998 0.0
C1052 C 0.92579 0.02733 0.19846 0.0
C1053 C 0.96371 0.10278 0.20808 0.0
C1054 C 0.96366 0.13726 0.21771 0.0
C1055 C 0.92614 0.06284 0.20702 0.0
C1056 C 0.92528 0.13134 0.22567 0.0
C1057 C 0.88811 0.09229 0.22444 0.0
H1058 H 0.91174 0.81399 0.20405 0.0
H1059 H 0.94081 0.9264 0.2376 0.0
H1060 H 1.01642 0.9508 0.23522 0.0
H1061 H 0.07242 0.93427 0.22866 0.0
H1062 H 0.04541 0.82177 0.1962 0.0
H1063 H 0.97061 0.80304 0.19291 0.0
C1064 C 0.93469 0.84389 0.21074 0.0
C1065 C 0.92058 0.86796 0.22133 0.0
C1066 C 0.97831 0.85761 0.20945 0.0
C1067 C 0.95072 0.90723 0.22944 0.0
C1068 C 0.99398 0.92115 0.22813 0.0
C1069 C 0.05061 0.90695 0.2199 0.0
C1070 C 0.06429 0.87998 0.21223 0.0
C1071 C 1.00793 0.89599 0.21873 0.0
C1072 C 0.0356 0.84349 0.20173 0.0
C1073 C 0.99279 0.8325 0.2002 0.0
H1074 H 0.12136 0.23305 0.82899 0.0
H1075 H 0.03653 0.11461 0.79975 0.0
H1076 H 0.0885 0.09175 0.80343 0.0
H1077 H 0.16221 0.11108 0.80896 0.0
H1078 H 0.2498 0.23065 0.83576 0.0
H1079 H 0.19271 0.24763 0.83927 0.0
C1080 C 0.1142 0.20221 0.82349 0.0
C1081 C 0.07533 0.17602 0.81372 0.0
C1082 C 0.14471 0.18948 0.82534 0.0
C1083 C 0.06609 0.13556 0.80724 0.0
C1084 C 0.09588 0.12244 0.8093 0.0
C1085 C 0.16798 0.13949 0.81679 0.0
C1086 C 0.20947 0.16892 0.82273 0.0
C1087 C 0.13572 0.1497 0.81769 0.0
C1088 C 0.21764 0.20703 0.83168 0.0
C1089 C 0.1852 0.21702 0.83328 0.0
H1090 H 0.83138 0.03017 0.8283 0.0
H1091 H 0.96675 0.0884 0.83552 0.0
H1092 H 0.96092 1.01853 0.83615 0.0
H1093 H 0.91871 0.94268 0.8271 0.0
H1094 H 0.78253 0.88522 0.82072 0.0
H1095 H 0.78742 0.95285 0.82729 0.0
C1096 C 0.85928 0.02739 0.83113 0.0
C1097 C 0.89938 0.06419 0.83165 0.0
C1098 C 0.85574 0.98725 0.83078 0.0
C1099 C 0.93546 0.06045 0.83507 0.0
C1100 C 0.93218 0.02044 0.83507 0.0
C1101 C 0.88989 0.94448 0.82756 0.0
C1102 C 0.85051 0.90874 0.82243 0.0
C1103 C 0.89271 0.98378 0.83166 0.0
C1104 C 0.81363 0.91217 0.82357 0.0
C1105 C 0.81622 0.95094 0.8276 0.0
H1106 H 0.14653 0.93992 0.82237 0.0
H1107 H 0.12011 0.04247 0.82015 0.0
H1108 H 0.04664 0.99469 0.83004 0.0
H1109 H 0.98729 0.92109 0.83191 0.0
H1110 H 1.01329 0.81823 0.83393 0.0
H1111 H 0.08961 0.86851 0.83247 0.0
C1112 C 0.12485 0.95184 0.82464 0.0
C1113 C 0.13838 0.99445 0.82021 0.0
C1114 C 0.08259 0.92401 0.83038 0.0
C1115 C 0.11038 1.00987 0.82339 0.0
C1116 C 0.06828 0.98243 0.82897 0.0
C1117 C 1.00983 0.90996 0.83329 0.0
C1118 C 0.99483 0.86613 0.83318 0.0
C1119 C 0.05357 0.93906 0.8316 0.0
C1120 C 1.02419 0.8519 0.83443 0.0
C1121 C 0.06783 0.88064 0.83311 0.0
H1122 H 0.8823 0.55059 0.55633 0.0
H1123 H 0.75662 0.46588 0.53418 0.0
H1124 H 0.77413 0.40923 0.53063 0.0
H1125 H 0.82198 0.38145 0.5388 0.0
H1126 H 0.94518 0.46642 0.56432 0.0
H1127 H 0.93211 0.52506 0.56136 0.0
C1128 C 0.85949 0.52024 0.54987 0.0
C1129 C 0.81871 0.51252 0.54504 0.0
C1130 C 0.86903 0.48744 0.54901 0.0
C1131 C 0.78867 0.47278 0.53739 0.0
C1132 C 0.79846 0.44021 0.53576 0.0
C1133 C 0.84604 0.41272 0.5437 0.0
C1134 C 0.88443 0.41888 0.55199 0.0
C1135 C 0.83796 0.44667 0.5424 0.0
C1136 C 0.91544 0.46016 0.55779 0.0
C1137 C 0.90798 0.49401 0.55619 0.0
H1138 H 0.66952 0.44808 0.5396 0.0
H1139 H 0.58858 0.49953 0.55396 0.0
H1140 H 0.52597 0.43211 0.54586 0.0
H1141 H 0.4943 0.35536 0.54154 0.0
H1142 H 0.57393 0.30337 0.52631 0.0
H1143 H 0.63657 0.37404 0.52714 0.0
C1144 C 0.63833 0.44497 0.54041 0.0
C1145 C 0.63386 0.47852 0.54819 0.0
C1146 C 0.60203 0.40579 0.53561 0.0
C1147 C 0.59301 0.47384 0.54884 0.0
C1148 C 0.55706 0.4353 0.54405 0.0
C1149 C 0.52511 0.3598 0.53738 0.0
C1150 C 0.52942 0.32404 0.53417 0.0
C1151 C 0.56111 0.40051 0.53839 0.0
C1152 C 0.56953 0.33012 0.52898 0.0
C1153 C 0.60562 0.3707 0.52971 0.0
H1154 H 0.75139 0.2958 0.53954 0.0
H1155 H 0.7296 0.16897 0.5328 0.0
H1156 H 0.6529 0.14128 0.53078 0.0
H1157 H 0.5923 0.1523 0.5382 0.0
H1158 H 0.61489 0.27933 0.54567 0.0
H1159 H 0.6908 0.30812 0.53994 0.0
C1160 C 0.7299 0.26243 0.53652 0.0
C1161 C 0.7459 0.23445 0.53605 0.0
C1162 C 0.68587 0.24673 0.53614 0.0
C1163 C 0.71791 0.19112 0.53271 0.0
C1164 C 0.674 0.17523 0.53199 0.0
C1165 C 0.61389 0.18627 0.53805 0.0
C1166 C 0.59827 0.21372 0.54246 0.0
C1167 C 0.6576 0.20251 0.53484 0.0
C1168 C 0.62623 0.25771 0.54213 0.0
C1169 C 0.66966 0.27412 0.53901 0.0
H1170 H 0.88989 0.54579 0.15922 0.0
H1171 H 0.81471 0.40985 0.16205 0.0
H1172 H 0.74942 0.4139 0.16223 0.0
H1173 H 0.71507 0.45565 0.15287 0.0
H1174 H 0.79223 0.59095 0.14651 0.0
H1175 H 0.85531 0.58821 0.15665 0.0
C1176 C 0.8592 0.51727 0.16098 0.0
C1177 C 0.85687 0.47768 0.16071 0.0
C1178 C 0.82211 0.5199 0.15979 0.0
C1179 C 0.81715 0.44072 0.1626 0.0
C1180 C 0.77982 0.44306 0.16226 0.0
C1181 C 0.74551 0.4845 0.15445 0.0
C1182 C 0.74946 0.52343 0.14877 0.0
C1183 C 0.78197 0.48234 0.15955 0.0
C1184 C 0.7889 0.56073 0.15063 0.0
C1185 C 0.82486 0.55911 0.15639 0.0
H1186 H 0.50169 0.2321 0.15493 0.0
H1187 H 0.61677 0.25809 0.12464 0.0
H1188 H 0.64537 0.3339 0.12931 0.0
H1189 H 0.63257 0.39235 0.13671 0.0
H1190 H 0.51603 0.36742 0.16472 0.0
H1191 H 0.49344 0.29178 0.16683 0.0
C1192 C 0.53305 0.25435 0.1494 0.0
C1193 C 0.55658 0.23934 0.13901 0.0
C1194 C 0.54913 0.2981 0.1519 0.0
C1195 C 0.5978 0.2686 0.13255 0.0
C1196 C 0.61419 0.31205 0.13519 0.0
C1197 C 0.60308 0.37048 0.14407 0.0
C1198 C 0.57604 0.38508 0.15069 0.0
C1199 C 0.58956 0.32711 0.14421 0.0
C1200 C 0.53763 0.3568 0.15992 0.0
C1201 C 0.5244 0.3135 0.16071 0.0
H1202 H 0.70288 0.1518 0.13946 0.0
H1203 H 0.63079 0.20478 0.16461 0.0
H1204 H 0.69476 0.27526 0.16529 0.0
H1205 H 0.7676 0.32344 0.15191 0.0
H1206 H 0.83572 0.26889 0.12412 0.0
H1207 H 0.77747 0.1975 0.13129 0.0
C1208 C 0.70163 0.17852 0.14589 0.0
C1209 C 0.66223 0.1733 0.15175 0.0
C1210 C 0.73782 0.21894 0.14521 0.0
C1211 C 0.66081 0.20797 0.16005 0.0
C1212 C 0.69729 0.24844 0.1601 0.0
C1213 C 0.76979 0.29574 0.14798 0.0
C1214 C 0.80543 0.30091 0.13739 0.0
C1215 C 0.73539 0.25465 0.15165 0.0
C1216 C 0.80828 0.26518 0.13215 0.0
C1217 C 0.77506 0.22454 0.13625 0.0
H1218 H 0.43757 0.80738 0.86303 0.0
H1219 H 0.5705 0.90131 0.86558 0.0
H1220 H 0.58927 0.84567 0.86489 0.0
H1221 H 0.56697 0.77134 0.87229 0.0
H1222 H 0.43424 0.67715 0.87188 0.0
H1223 H 0.41584 0.73135 0.86311 0.0
C1224 C 0.47061 0.8156 0.86245 0.0
C1225 C 0.5027 0.85828 0.86438 0.0
C1226 C 0.48099 0.78322 0.86318 0.0
C1227 C 0.54539 0.86863 0.86384 0.0
C1228 C 0.55607 0.83677 0.86384 0.0
C1229 C 0.53419 0.7627 0.86961 0.0
C1230 C 0.50191 0.72075 0.87294 0.0
C1231 C 0.52407 0.7941 0.86487 0.0
C1232 C 0.45948 0.70939 0.86936 0.0
C1233 C 0.44904 0.74042 0.86449 0.0
H1234 H 0.27531 0.7891 0.8631 0.0
H1235 H 0.36625 0.76639 0.8938 0.0
H1236 H 0.32046 0.69051 0.88935 0.0
H1237 H 0.24988 0.63094 0.88226 0.0
H1238 H 0.15556 0.6522 0.85462 0.0
H1239 H 0.20758 0.72805 0.8517 0.0
C1240 C 0.28515 0.76761 0.86881 0.0
C1241 C 0.32393 0.78371 0.87918 0.0
C1242 C 0.25812 0.72363 0.86654 0.0
C1243 C 0.33668 0.75524 0.88587 0.0
C1244 C 0.31042 0.71166 0.88335 0.0
C1245 C 0.24141 0.65199 0.87475 0.0
C1246 C 0.1993 0.63631 0.86853 0.0
C1247 C 0.27054 0.69554 0.87435 0.0
C1248 C 0.18814 0.6636 0.85912 0.0
C1249 C 0.21762 0.70707 0.85791 0.0
H1250 H 0.35161 0.47524 0.89033 0.0
H1251 H 0.4008 0.5933 0.85906 0.0
H1252 H 0.32885 0.58328 0.85674 0.0
H1253 H 0.25364 0.54528 0.86801 0.0
H1254 H 0.20774 0.4294 0.90129 0.0
H1255 H 0.2764 0.43406 0.89833 0.0
C1256 C 0.34627 0.49802 0.88239 0.0
C1257 C 0.38117 0.53473 0.87476 0.0
C1258 C 0.30543 0.49285 0.8819 0.0
C1259 C 0.37422 0.56438 0.8647 0.0
C1260 C 0.33319 0.55896 0.86372 0.0
C1261 C 0.25864 0.52102 0.87457 0.0
C1262 C 0.22531 0.48718 0.88503 0.0
C1263 C 0.29882 0.52415 0.87304 0.0
C1264 C 0.23233 0.45562 0.89306 0.0
C1265 C 0.2718 0.45831 0.89144 0.0
H1266 H 0.55964 0.88889 0.48427 0.0
H1267 H 0.49326 0.75806 0.50207 0.0
H1268 H 0.42641 0.75867 0.50322 0.0
H1269 H 0.3852 0.79276 0.49193 0.0
H1270 H 0.45326 0.92361 0.47389 0.0
H1271 H 0.52083 0.92708 0.48044 0.0
C1272 C 0.53084 0.86108 0.4893 0.0
C1273 C 0.53136 0.82335 0.49271 0.0
C1274 C 0.49245 0.86149 0.48943 0.0
C1275 C 0.49389 0.78747 0.49916 0.0
C1276 C 0.45539 0.78771 0.49962 0.0
C1277 C 0.41483 0.82229 0.49009 0.0
C1278 C 0.41434 0.85761 0.48195 0.0
C1279 C 0.45393 0.82388 0.49363 0.0
C1280 C 0.45296 0.89578 0.47968 0.0
C1281 C 0.4916 0.8978 0.48345 0.0
H1282 H 0.25955 0.59008 0.4848 0.0
H1283 H 0.12312 0.52983 0.48208 0.0
H1284 H 0.12646 0.5961 0.49155 0.0
H1285 H 0.16853 0.67348 0.49334 0.0
H1286 H 0.30493 0.73567 0.49379 0.0
H1287 H 0.30166 0.66684 0.49325 0.0
C1288 C 0.23063 0.59131 0.48694 0.0
C1289 C 0.19114 0.55538 0.4824 0.0
C1290 C 0.23292 0.63009 0.49194 0.0
C1291 C 0.15385 0.55733 0.48514 0.0
C1292 C 0.15576 0.5952 0.49057 0.0
C1293 C 0.19743 0.67177 0.49445 0.0
C1294 C 0.23685 0.70941 0.49392 0.0
C1295 C 0.19515 0.6322 0.49304 0.0
C1296 C 0.27422 0.70705 0.49471 0.0
C1297 C 0.27229 0.66763 0.49396 0.0
H1298 H 0.48462 0.59294 0.48304 0.0
H1299 H 0.45322 0.69218 0.48075 0.0
H1300 H 0.3785 0.64077 0.4869 0.0
H1301 H 0.32122 0.56628 0.48607 0.0
H1302 H 0.352 0.46665 0.48757 0.0
H1303 H 0.42781 0.51916 0.48935 0.0
C1304 C 0.46139 0.60318 0.48435 0.0
C1305 C 0.47405 0.64599 0.48121 0.0
C1306 C 0.41847 0.57333 0.48783 0.0
C1307 C 0.44407 0.65934 0.48317 0.0
C1308 C 0.40135 0.62993 0.48658 0.0
C1309 C 0.34454 0.55625 0.48792 0.0
C1310 C 0.33139 0.51293 0.48695 0.0
C1311 C 0.38798 0.58665 0.48812 0.0
C1312 C 0.36161 0.49994 0.48877 0.0
C1313 C 0.40495 0.52998 0.48935 0.0
loop_
_geom_bond_atom_site_label_1
_geom_bond_atom_site_label_2
_geom_bond_distance
_geom_bond_site_symmetry_2
_ccdc_geom_bond_type
C0 C1 1.351 . S
C0 N3 1.368 . S
C0 H5 0.931 . S
C1 C0 1.351 . S
C1 N2 1.373 . S
C1 H29 0.930 . S
N2 C1 1.373 . S
N2 C4 1.340 . S
N3 C0 1.368 . S
N3 C4 1.321 . S
N3 Co6 2.135 . S
C4 N2 1.340 . S
C4 N3 1.321 . S
C4 H28 0.930 . S
H5 C0 0.931 . S
Co6 N3 2.135 . S
Co6 N9 2.121 . S
Co6 O14 2.055 . S
Co6 O17 2.039 . S
Co6 N20 2.140 . S
C7 O8 1.227 . S
C7 O17 1.265 . S
O8 C7 1.227 . S
N9 Co6 2.121 . S
N9 C11 1.375 . S
N9 C12 1.313 . S
C10 C11 1.338 1_655 S
C10 N13 1.377 . S
C10 H30 0.930 . S
C11 N9 1.375 . S
C11 C10 1.338 1_455 S
C11 H15 0.931 . S
C12 N9 1.313 . S
C12 N13 1.344 1_455 S
C12 H16 0.930 . S
N13 C10 1.377 . S
N13 C12 1.344 1_655 S
O14 Co6 2.055 . S
O14 C18 1.253 . S
H15 C11 0.931 . S
H16 C12 0.930 . S
O17 Co6 2.039 . S
O17 C7 1.265 . S
C18 O14 1.253 . S
C18 O19 1.227 . S
O19 C18 1.227 . S
N20 Co6 2.140 . S
N20 C23 1.346 . S
N20 C24 1.345 . S
C21 C22 1.387 . S
C21 C25 1.391 . S
C22 C21 1.387 . S
C22 C23 1.369 . S
C22 H31 0.929 . S
C23 N20 1.346 . S
C23 C22 1.369 . S
C23 H26 0.928 . S
C24 N20 1.345 . S
C24 C25 1.371 . S
C24 H27 0.931 . S
C25 C21 1.391 . S
C25 C24 1.371 . S
C25 H32 0.930 . S
H26 C23 0.928 . S
H27 C24 0.931 . S
H28 C4 0.930 . S
H29 C1 0.930 . S
H30 C10 0.930 . S
H31 C22 0.929 . S
H32 C25 0.930 . S
C33 C34 1.351 . S
C33 N36 1.368 . S
C33 H38 0.931 . S
C34 C33 1.351 . S
C34 N35 1.373 . S
C34 H62 0.930 . S
N35 C34 1.373 . S
N35 C37 1.340 . S
N36 C33 1.368 . S
N36 C37 1.321 . S
N36 Co39 2.135 . S
C37 N35 1.340 . S
C37 N36 1.321 . S
C37 H61 0.930 . S
H38 C33 0.931 . S
Co39 N36 2.135 . S
Co39 N42 2.121 . S
Co39 O47 2.055 . S
Co39 O50 2.039 . S
Co39 N53 2.140 . S
C40 O41 1.227 . S
C40 O50 1.265 . S
O41 C40 1.227 . S
N42 Co39 2.121 . S
N42 C44 1.375 . S
N42 C45 1.313 . S
C43 C44 1.338 . S
C43 N46 1.377 . S
C43 H63 0.930 . S
C44 N42 1.375 . S
C44 C43 1.338 . S
C44 H48 0.931 . S
C45 N42 1.313 . S
C45 N46 1.344 . S
C45 H49 0.930 . S
N46 C43 1.377 . S
N46 C45 1.344 . S
O47 Co39 2.055 . S
O47 C51 1.253 . S
H48 C44 0.931 . S
H49 C45 0.930 . S
O50 Co39 2.039 . S
O50 C40 1.265 . S
C51 O47 1.253 . S
C51 O52 1.227 . S
O52 C51 1.227 . S
N53 Co39 2.140 . S
N53 C56 1.346 . S
N53 C57 1.345 . S
C54 C55 1.387 . S
C54 C58 1.391 . S
C55 C54 1.387 . S
C55 C56 1.369 . S
C55 H64 0.929 . S
C56 N53 1.346 . S
C56 C55 1.369 . S
C56 H59 0.928 . S
C57 N53 1.345 . S
C57 C58 1.371 . S
C57 H60 0.931 . S
C58 C54 1.391 . S
C58 C57 1.371 . S
C58 H65 0.930 . S
H59 C56 0.928 . S
H60 C57 0.931 . S
H61 C37 0.930 . S
H62 C34 0.930 . S
H63 C43 0.930 . S
H64 C55 0.929 . S
H65 C58 0.930 . S
C66 C67 1.351 . S
C66 N69 1.368 . S
C66 H71 0.931 . S
C67 C66 1.351 . S
C67 N68 1.373 . S
C67 H95 0.930 . S
N68 C67 1.373 . S
N68 C70 1.340 . S
N69 C66 1.368 . S
N69 C70 1.321 . S
N69 Co72 2.135 . S
C70 N68 1.340 . S
C70 N69 1.321 . S
C70 H94 0.930 . S
H71 C66 0.931 . S
Co72 N69 2.135 . S
Co72 N75 2.121 . S
Co72 O80 2.055 . S
Co72 O83 2.039 . S
Co72 N86 2.140 . S
C73 O74 1.227 . S
C73 O83 1.265 . S
O74 C73 1.227 . S
N75 Co72 2.121 . S
N75 C77 1.375 . S
N75 C78 1.313 . S
C76 C77 1.338 1_545 S
C76 N79 1.377 . S
C76 H96 0.930 . S
C77 N75 1.375 . S
C77 C76 1.338 1_565 S
C77 H81 0.931 . S
C78 N75 1.313 . S
C78 N79 1.344 1_565 S
C78 H82 0.930 . S
N79 C76 1.377 . S
N79 C78 1.344 1_545 S
O80 Co72 2.055 . S
O80 C84 1.253 . S
H81 C77 0.931 . S
H82 C78 0.930 . S
O83 Co72 2.039 . S
O83 C73 1.265 . S
C84 O80 1.253 . S
C84 O85 1.227 . S
O85 C84 1.227 . S
N86 Co72 2.140 . S
N86 C89 1.346 . S
N86 C90 1.345 . S
C87 C88 1.387 . S
C87 C91 1.391 . S
C88 C87 1.387 . S
C88 C89 1.369 . S
C88 H97 0.929 . S
C89 N86 1.346 . S
C89 C88 1.369 . S
C89 H92 0.928 . S
C90 N86 1.345 . S
C90 C91 1.371 . S
C90 H93 0.931 . S
C91 C87 1.391 . S
C91 C90 1.371 . S
C91 H98 0.930 . S
H92 C89 0.928 . S
H93 C90 0.931 . S
H94 C70 0.930 . S
H95 C67 0.930 . S
H96 C76 0.930 . S
H97 C88 0.929 . S
H98 C91 0.930 . S
C99 C100 1.351 . S
C99 N102 1.368 . S
C99 H104 0.931 . S
C100 C99 1.351 . S
C100 N101 1.373 . S
C100 H128 0.930 . S
N101 C100 1.373 . S
N101 C103 1.340 . S
N102 C99 1.368 . S
N102 C103 1.321 . S
N102 Co105 2.135 . S
C103 N101 1.340 . S
C103 N102 1.321 . S
C103 H127 0.930 . S
H104 C99 0.931 . S
Co105 N102 2.135 . S
Co105 N108 2.121 . S
Co105 O113 2.055 . S
Co105 O116 2.039 . S
Co105 N119 2.140 . S
C106 O107 1.227 . S
C106 O116 1.265 . S
O107 C106 1.227 . S
N108 Co105 2.121 . S
N108 C110 1.375 . S
N108 C111 1.313 . S
C109 C110 1.338 1_565 S
C109 N112 1.377 . S
C109 H129 0.930 . S
C110 N108 1.375 . S
C110 C109 1.338 1_545 S
C110 H114 0.931 . S
C111 N108 1.313 . S
C111 N112 1.344 1_545 S
C111 H115 0.930 . S
N112 C109 1.377 . S
N112 C111 1.344 1_565 S
O113 Co105 2.055 . S
O113 C117 1.253 . S
H114 C110 0.931 . S
H115 C111 0.930 . S
O116 Co105 2.039 . S
O116 C106 1.265 . S
C117 O113 1.253 . S
C117 O118 1.227 . S
O118 C117 1.227 . S
N119 Co105 2.140 . S
N119 C122 1.346 . S
N119 C123 1.345 . S
C120 C121 1.387 . S
C120 C124 1.391 . S
C121 C120 1.387 . S
C121 C122 1.369 . S
C121 H130 0.929 . S
C122 N119 1.346 . S
C122 C121 1.369 . S
C122 H125 0.928 . S
C123 N119 1.345 . S
C123 C124 1.371 . S
C123 H126 0.931 . S
C124 C120 1.391 . S
C124 C123 1.371 . S
C124 H131 0.930 . S
H125 C122 0.928 . S
H126 C123 0.931 . S
H127 C103 0.930 . S
H128 C100 0.930 . S
H129 C109 0.930 . S
H130 C121 0.929 . S
H131 C124 0.930 . S
C132 C133 1.351 . S
C132 N135 1.368 . S
C132 H137 0.931 . S
C133 C132 1.351 . S
C133 N134 1.373 . S
C133 H161 0.930 . S
N134 C133 1.373 . S
N134 C136 1.340 . S
N135 C132 1.368 . S
N135 C136 1.321 . S
N135 Co138 2.135 . S
C136 N134 1.340 . S
C136 N135 1.321 . S
C136 H160 0.930 . S
H137 C132 0.931 . S
Co138 N135 2.135 . S
Co138 N141 2.121 . S
Co138 O146 2.055 . S
Co138 O149 2.039 . S
Co138 N152 2.140 . S
C139 O140 1.227 . S
C139 O149 1.265 . S
O140 C139 1.227 . S
N141 Co138 2.121 . S
N141 C143 1.375 . S
N141 C144 1.313 . S
C142 C143 1.338 1_455 S
C142 N145 1.377 . S
C142 H162 0.930 . S
C143 N141 1.375 . S
C143 C142 1.338 1_655 S
C143 H147 0.931 . S
C144 N141 1.313 . S
C144 N145 1.344 1_655 S
C144 H148 0.930 . S
N145 C142 1.377 . S
N145 C144 1.344 1_455 S
O146 Co138 2.055 . S
O146 C150 1.253 . S
H147 C143 0.931 . S
H148 C144 0.930 . S
O149 Co138 2.039 . S
O149 C139 1.265 . S
C150 O146 1.253 . S
C150 O151 1.227 . S
O151 C150 1.227 . S
N152 Co138 2.140 . S
N152 C155 1.346 . S
N152 C156 1.345 . S
C153 C154 1.387 . S
C153 C157 1.391 . S
C154 C153 1.387 . S
C154 C155 1.369 . S
C154 H163 0.929 . S
C155 N152 1.346 . S
C155 C154 1.369 . S
C155 H158 0.928 . S
C156 N152 1.345 . S
C156 C157 1.371 . S
C156 H159 0.931 . S
C157 C153 1.391 . S
C157 C156 1.371 . S
C157 H164 0.930 . S
H158 C155 0.928 . S
H159 C156 0.931 . S
H160 C136 0.930 . S
H161 C133 0.930 . S
H162 C142 0.930 . S
H163 C154 0.929 . S
H164 C157 0.930 . S
C165 C166 1.351 . S
C165 N168 1.368 . S
C165 H170 0.931 . S
C166 C165 1.351 . S
C166 N167 1.373 . S
C166 H194 0.930 . S
N167 C166 1.373 . S
N167 C169 1.340 . S
N168 C165 1.368 . S
N168 C169 1.321 . S
N168 Co171 2.135 . S
C169 N167 1.340 . S
C169 N168 1.321 . S
C169 H193 0.930 . S
H170 C165 0.931 . S
Co171 N168 2.135 . S
Co171 N174 2.121 . S
Co171 O179 2.055 . S
Co171 O182 2.039 . S
Co171 N185 2.140 . S
C172 O173 1.227 . S
C172 O182 1.265 . S
O173 C172 1.227 . S
N174 Co171 2.121 . S
N174 C176 1.375 . S
N174 C177 1.313 . S
C175 C176 1.338 . S
C175 N178 1.377 . S
C175 H195 0.930 . S
C176 N174 1.375 . S
C176 C175 1.338 . S
C176 H180 0.931 . S
C177 N174 1.313 . S
C177 N178 1.344 . S
C177 H181 0.930 . S
N178 C175 1.377 . S
N178 C177 1.344 . S
O179 Co171 2.055 . S
O179 C183 1.253 . S
H180 C176 0.931 . S
H181 C177 0.930 . S
O182 Co171 2.039 . S
O182 C172 1.265 . S
C183 O179 1.253 . S
C183 O184 1.227 . S
O184 C183 1.227 . S
N185 Co171 2.140 . S
N185 C188 1.346 . S
N185 C189 1.345 . S
C186 C187 1.387 . S
C186 C190 1.391 . S
C187 C186 1.387 . S
C187 C188 1.369 . S
C187 H196 0.929 . S
C188 N185 1.346 . S
C188 C187 1.369 . S
C188 H191 0.928 . S
C189 N185 1.345 . S
C189 C190 1.371 . S
C189 H192 0.931 . S
C190 C186 1.391 . S
C190 C189 1.371 . S
C190 H197 0.930 . S
H191 C188 0.928 . S
H192 C189 0.931 . S
H193 C169 0.930 . S
H194 C166 0.930 . S
H195 C175 0.930 . S
H196 C187 0.929 . S
H197 C190 0.930 . S
C198 C199 1.351 . S
C198 N201 1.368 . S
C198 H203 0.931 . S
C199 C198 1.351 . S
C199 N200 1.373 . S
C199 H227 0.930 . S
N200 C199 1.373 . S
N200 C202 1.340 . S
N201 C198 1.368 . S
N201 C202 1.321 . S
N201 Co204 2.135 . S
C202 N200 1.340 . S
C202 N201 1.321 . S
C202 H226 0.930 . S
H203 C198 0.931 . S
Co204 N201 2.135 . S
Co204 N207 2.121 . S
Co204 O212 2.055 . S
Co204 O215 2.039 . S
Co204 N218 2.140 . S
C205 O206 1.227 . S
C205 O215 1.265 . S
O206 C205 1.227 . S
N207 Co204 2.121 . S
N207 C209 1.375 . S
N207 C210 1.313 . S
C208 C209 1.338 . S
C208 N211 1.377 . S
C208 H228 0.930 . S
C209 N207 1.375 . S
C209 C208 1.338 . S
C209 H213 0.931 . S
C210 N207 1.313 . S
C210 N211 1.344 . S
C210 H214 0.930 . S
N211 C208 1.377 . S
N211 C210 1.344 . S
O212 Co204 2.055 . S
O212 C216 1.253 . S
H213 C209 0.931 . S
H214 C210 0.930 . S
O215 Co204 2.039 . S
O215 C205 1.265 . S
C216 O212 1.253 . S
C216 O217 1.227 . S
O217 C216 1.227 . S
N218 Co204 2.140 . S
N218 C221 1.346 . S
N218 C222 1.345 . S
C219 C220 1.387 . S
C219 C223 1.391 . S
C220 C219 1.387 . S
C220 C221 1.369 . S
C220 H229 0.929 . S
C221 N218 1.346 . S
C221 C220 1.369 . S
C221 H224 0.928 . S
C222 N218 1.345 . S
C222 C223 1.371 . S
C222 H225 0.931 . S
C223 C219 1.391 . S
C223 C222 1.371 . S
C223 H230 0.930 . S
H224 C221 0.928 . S
H225 C222 0.931 . S
H226 C202 0.930 . S
H227 C199 0.930 . S
H228 C208 0.930 . S
H229 C220 0.929 . S
H230 C223 0.930 . S
C231 C232 1.351 . S
C231 N234 1.368 . S
C231 H236 0.931 . S
C232 C231 1.351 . S
C232 N233 1.373 . S
C232 H260 0.930 . S
N233 C232 1.373 . S
N233 C235 1.340 . S
N234 C231 1.368 . S
N234 C235 1.321 . S
N234 Co237 2.135 . S
C235 N233 1.340 . S
C235 N234 1.321 . S
C235 H259 0.930 . S
H236 C231 0.931 . S
Co237 N234 2.135 . S
Co237 N240 2.121 . S
Co237 O245 2.055 . S
Co237 O248 2.039 . S
Co237 N251 2.140 . S
C238 O239 1.227 . S
C238 O248 1.265 . S
O239 C238 1.227 . S
N240 Co237 2.121 . S
N240 C242 1.375 . S
N240 C243 1.313 . S
C241 C242 1.338 . S
C241 N244 1.377 . S
C241 H261 0.930 . S
C242 N240 1.375 . S
C242 C241 1.338 . S
C242 H246 0.931 . S
C243 N240 1.313 . S
C243 N244 1.344 . S
C243 H247 0.930 . S
N244 C241 1.377 . S
N244 C243 1.344 . S
O245 Co237 2.055 . S
O245 C249 1.253 . S
H246 C242 0.931 . S
H247 C243 0.930 . S
O248 Co237 2.039 . S
O248 C238 1.265 . S
C249 O245 1.253 . S
C249 O250 1.227 . S
O250 C249 1.227 . S
N251 Co237 2.140 . S
N251 C254 1.346 . S
N251 C255 1.345 . S
C252 C253 1.387 . S
C252 C256 1.391 . S
C253 C252 1.387 . S
C253 C254 1.369 . S
C253 H262 0.929 . S
C254 N251 1.346 . S
C254 C253 1.369 . S
C254 H257 0.928 . S
C255 N251 1.345 . S
C255 C256 1.371 . S
C255 H258 0.931 . S
C256 C252 1.391 . S
C256 C255 1.371 . S
C256 H263 0.930 . S
H257 C254 0.928 . S
H258 C255 0.931 . S
H259 C235 0.930 . S
H260 C232 0.930 . S
H261 C241 0.930 . S
H262 C253 0.929 . S
H263 C256 0.930 . S
C264 C265 1.351 . S
C264 N267 1.368 . S
C264 H269 0.931 . S
C265 C264 1.351 . S
C265 N266 1.373 . S
C265 H293 0.930 . S
N266 C265 1.373 . S
N266 C268 1.340 . S
N267 C264 1.368 . S
N267 C268 1.321 . S
N267 Co270 2.135 . S
C268 N266 1.340 . S
C268 N267 1.321 . S
C268 H292 0.930 . S
H269 C264 0.931 . S
Co270 N267 2.135 . S
Co270 N273 2.121 . S
Co270 O278 2.055 . S
Co270 O281 2.039 . S
Co270 N284 2.140 . S
C271 O272 1.227 . S
C271 O281 1.265 . S
O272 C271 1.227 . S
N273 Co270 2.121 . S
N273 C275 1.375 . S
N273 C276 1.313 . S
C274 C275 1.338 . S
C274 N277 1.377 . S
C274 H294 0.930 . S
C275 N273 1.375 . S
C275 C274 1.338 . S
C275 H279 0.931 . S
C276 N273 1.313 . S
C276 N277 1.344 . S
C276 H280 0.930 . S
N277 C274 1.377 . S
N277 C276 1.344 . S
O278 Co270 2.055 . S
O278 C282 1.253 . S
H279 C275 0.931 . S
H280 C276 0.930 . S
O281 Co270 2.039 . S
O281 C271 1.265 . S
C282 O278 1.253 . S
C282 O283 1.227 . S
O283 C282 1.227 . S
N284 Co270 2.140 . S
N284 C287 1.346 . S
N284 C288 1.345 . S
C285 C286 1.387 . S
C285 C289 1.391 . S
C286 C285 1.387 . S
C286 C287 1.369 . S
C286 H295 0.929 . S
C287 N284 1.346 . S
C287 C286 1.369 . S
C287 H290 0.928 . S
C288 N284 1.345 . S
C288 C289 1.371 . S
C288 H291 0.931 . S
C289 C285 1.391 . S
C289 C288 1.371 . S
C289 H296 0.930 . S
H290 C287 0.928 . S
H291 C288 0.931 . S
H292 C268 0.930 . S
H293 C265 0.930 . S
H294 C274 0.930 . S
H295 C286 0.929 . S
H296 C289 0.930 . S
C297 C298 1.351 . S
C297 N300 1.368 . S
C297 H302 0.931 . S
C298 C297 1.351 . S
C298 N299 1.373 1_655 S
C298 H326 0.930 . S
N299 C298 1.373 1_455 S
N299 C301 1.340 1_455 S
N300 C297 1.368 . S
N300 C301 1.321 . S
N300 Co303 2.135 . S
C301 N299 1.340 1_655 S
C301 N300 1.321 . S
C301 H325 0.912 1_655 S
H302 C297 0.931 . S
Co303 N300 2.135 . S
Co303 N306 2.121 . S
Co303 O311 2.055 . S
Co303 O314 2.039 . S
Co303 N317 2.140 . S
C304 O305 1.227 . S
C304 O314 1.265 . S
O305 C304 1.227 . S
N306 Co303 2.121 . S
N306 C308 1.375 . S
N306 C309 1.313 . S
C307 C308 1.338 . S
C307 N310 1.377 . S
C307 H327 0.930 . S
C308 N306 1.375 . S
C308 C307 1.338 . S
C308 H312 0.931 . S
C309 N306 1.313 . S
C309 N310 1.344 . S
C309 H313 0.930 . S
N310 C307 1.377 . S
N310 C309 1.344 . S
O311 Co303 2.055 . S
O311 C315 1.253 . S
H312 C308 0.931 . S
H313 C309 0.930 . S
O314 Co303 2.039 . S
O314 C304 1.265 . S
C315 O311 1.253 . S
C315 O316 1.227 . S
O316 C315 1.227 . S
N317 Co303 2.140 . S
N317 C320 1.346 . S
N317 C321 1.345 . S
C318 C319 1.387 1_655 S
C318 C322 1.391 . S
C319 C318 1.387 1_455 S
C319 C320 1.369 1_455 S
C319 H328 0.929 . S
C320 N317 1.346 . S
C320 C319 1.369 1_655 S
C320 H323 0.935 . S
C321 N317 1.345 . S
C321 C322 1.371 . S
C321 H324 0.931 . S
C322 C318 1.391 . S
C322 C321 1.371 . S
C322 H329 0.930 . S
H323 C320 0.935 . S
H324 C321 0.931 . S
H325 C301 0.912 1_455 S
H326 C298 0.930 . S
H327 C307 0.930 . S
H328 C319 0.929 . S
H329 C322 0.930 . S
C330 C331 1.351 . S
C330 N333 1.368 . S
C330 H335 0.931 . S
C331 C330 1.351 . S
C331 N332 1.373 . S
C331 H359 0.930 . S
N332 C331 1.373 . S
N332 C334 1.340 . S
N333 C330 1.368 . S
N333 C334 1.321 . S
N333 Co336 2.135 . S
C334 N332 1.340 . S
C334 N333 1.321 . S
C334 H358 0.930 . S
H335 C330 0.931 . S
Co336 N333 2.135 . S
Co336 N339 2.121 . S
Co336 O344 2.055 . S
Co336 O347 2.039 . S
Co336 N350 2.140 . S
C337 O338 1.227 . S
C337 O347 1.265 . S
O338 C337 1.227 . S
N339 Co336 2.121 . S
N339 C341 1.375 . S
N339 C342 1.313 . S
C340 C341 1.338 . S
C340 N343 1.377 . S
C340 H360 0.930 . S
C341 N339 1.375 . S
C341 C340 1.338 . S
C341 H345 0.931 . S
C342 N339 1.313 . S
C342 N343 1.344 . S
C342 H346 0.930 . S
N343 C340 1.377 . S
N343 C342 1.344 . S
O344 Co336 2.055 . S
O344 C348 1.253 . S
H345 C341 0.931 . S
H346 C342 0.930 . S
O347 Co336 2.039 . S
O347 C337 1.265 . S
C348 O344 1.253 . S
C348 O349 1.227 . S
O349 C348 1.227 . S
N350 Co336 2.140 . S
N350 C353 1.346 . S
N350 C354 1.345 . S
C351 C352 1.387 . S
C351 C355 1.391 . S
C352 C351 1.387 . S
C352 C353 1.369 . S
C352 H361 0.929 . S
C353 N350 1.346 . S
C353 C352 1.369 . S
C353 H356 0.928 . S
C354 N350 1.345 . S
C354 C355 1.371 . S
C354 H357 0.931 . S
C355 C351 1.391 . S
C355 C354 1.371 . S
C355 H362 0.930 . S
H356 C353 0.928 . S
H357 C354 0.931 . S
H358 C334 0.930 . S
H359 C331 0.930 . S
H360 C340 0.930 . S
H361 C352 0.929 . S
H362 C355 0.930 . S
C363 C364 1.351 . S
C363 N366 1.368 . S
C363 H368 0.931 . S
C364 C363 1.351 . S
C364 N365 1.373 1_545 S
C364 H392 0.930 . S
N365 C364 1.373 1_565 S
N365 C367 1.340 1_565 S
N366 C363 1.368 . S
N366 C367 1.321 . S
N366 Co369 2.135 . S
C367 N365 1.340 1_545 S
C367 N366 1.321 . S
C367 H391 0.930 1_545 S
H368 C363 0.931 . S
Co369 N366 2.135 . S
Co369 N372 2.121 . S
Co369 O377 2.055 . S
Co369 O380 2.039 . S
Co369 N383 2.140 . S
C370 O371 1.227 . S
C370 O380 1.265 . S
O371 C370 1.227 . S
N372 Co369 2.121 . S
N372 C374 1.375 . S
N372 C375 1.313 . S
C373 C374 1.338 . S
C373 N376 1.377 . S
C373 H393 0.930 . S
C374 N372 1.375 . S
C374 C373 1.338 . S
C374 H378 0.931 . S
C375 N372 1.313 . S
C375 N376 1.344 . S
C375 H379 0.930 . S
N376 C373 1.377 . S
N376 C375 1.344 . S
O377 Co369 2.055 . S
O377 C381 1.253 . S
H378 C374 0.931 . S
H379 C375 0.930 . S
O380 Co369 2.039 . S
O380 C370 1.265 . S
C381 O377 1.253 . S
C381 O382 1.227 . S
O382 C381 1.227 . S
N383 Co369 2.140 . S
N383 C386 1.346 . S
N383 C387 1.345 . S
C384 C385 1.387 1_545 S
C384 C388 1.391 . S
C385 C384 1.387 1_565 S
C385 C386 1.369 1_565 S
C385 H394 0.929 . S
C386 N383 1.346 . S
C386 C385 1.369 1_545 S
C386 H389 0.928 1_545 S
C387 N383 1.345 . S
C387 C388 1.371 . S
C387 H390 0.931 . S
C388 C384 1.391 . S
C388 C387 1.371 . S
C388 H395 0.930 . S
H389 C386 0.928 1_565 S
H390 C387 0.931 . S
H391 C367 0.930 1_565 S
H392 C364 0.930 . S
H393 C373 0.930 . S
H394 C385 0.929 . S
H395 C388 0.930 . S
C396 C397 1.351 . S
C396 N399 1.368 . S
C396 H401 0.931 . S
C397 C396 1.351 . S
C397 N398 1.373 1_565 S
C397 H425 0.930 . S
N398 C397 1.373 1_545 S
N398 C400 1.340 1_545 S
N399 C396 1.368 . S
N399 C400 1.321 . S
N399 Co402 2.135 . S
C400 N398 1.340 1_565 S
C400 N399 1.321 . S
C400 H424 0.912 1_565 S
H401 C396 0.931 . S
Co402 N399 2.135 . S
Co402 N405 2.121 . S
Co402 O410 2.055 . S
Co402 O413 2.039 . S
Co402 N416 2.140 . S
C403 O404 1.227 . S
C403 O413 1.265 . S
O404 C403 1.227 . S
N405 Co402 2.121 . S
N405 C407 1.375 . S
N405 C408 1.313 . S
C406 C407 1.338 . S
C406 N409 1.377 . S
C406 H426 0.930 . S
C407 N405 1.375 . S
C407 C406 1.338 . S
C407 H411 0.931 . S
C408 N405 1.313 . S
C408 N409 1.344 . S
C408 H412 0.930 . S
N409 C406 1.377 . S
N409 C408 1.344 . S
O410 Co402 2.055 . S
O410 C414 1.253 . S
H411 C407 0.931 . S
H412 C408 0.930 . S
O413 Co402 2.039 . S
O413 C403 1.265 . S
C414 O410 1.253 . S
C414 O415 1.227 . S
O415 C414 1.227 . S
N416 Co402 2.140 . S
N416 C419 1.346 . S
N416 C420 1.345 . S
C417 C418 1.387 1_565 S
C417 C421 1.391 . S
C418 C417 1.387 1_545 S
C418 C419 1.369 1_545 S
C418 H427 0.929 . S
C419 N416 1.346 . S
C419 C418 1.369 1_565 S
C419 H422 0.935 . S
C420 N416 1.345 . S
C420 C421 1.371 . S
C420 H423 0.931 . S
C421 C417 1.391 . S
C421 C420 1.371 . S
C421 H428 0.930 . S
H422 C419 0.935 . S
H423 C420 0.931 . S
H424 C400 0.912 1_545 S
H425 C397 0.930 . S
H426 C406 0.930 . S
H427 C418 0.929 . S
H428 C421 0.930 . S
C429 C430 1.351 . S
C429 N432 1.368 . S
C429 H434 0.931 . S
C430 C429 1.351 . S
C430 N431 1.373 1_455 S
C430 H458 0.930 . S
N431 C430 1.373 1_655 S
N431 C433 1.340 1_655 S
N432 C429 1.368 . S
N432 C433 1.321 . S
N432 Co435 2.135 . S
C433 N431 1.340 1_455 S
C433 N432 1.321 . S
C433 H457 0.930 1_455 S
H434 C429 0.931 . S
Co435 N432 2.135 . S
Co435 N438 2.121 . S
Co435 O443 2.055 . S
Co435 O446 2.039 . S
Co435 N449 2.140 . S
C436 O437 1.227 . S
C436 O446 1.265 . S
O437 C436 1.227 . S
N438 Co435 2.121 . S
N438 C440 1.375 . S
N438 C441 1.313 . S
C439 C440 1.338 . S
C439 N442 1.377 . S
C439 H459 0.930 . S
C440 N438 1.375 . S
C440 C439 1.338 . S
C440 H444 0.931 . S
C441 N438 1.313 . S
C441 N442 1.344 . S
C441 H445 0.930 . S
N442 C439 1.377 . S
N442 C441 1.344 . S
O443 Co435 2.055 . S
O443 C447 1.253 . S
H444 C440 0.931 . S
H445 C441 0.930 . S
O446 Co435 2.039 . S
O446 C436 1.265 . S
C447 O443 1.253 . S
C447 O448 1.227 . S
O448 C447 1.227 . S
N449 Co435 2.140 . S
N449 C452 1.346 . S
N449 C453 1.345 . S
C450 C451 1.387 1_455 S
C450 C454 1.391 . S
C451 C450 1.387 1_655 S
C451 C452 1.369 1_655 S
C451 H460 0.929 . S
C452 N449 1.346 . S
C452 C451 1.369 1_455 S
C452 H455 0.928 1_455 S
C453 N449 1.345 . S
C453 C454 1.371 . S
C453 H456 0.931 . S
C454 C450 1.391 . S
C454 C453 1.371 . S
C454 H461 0.930 . S
H455 C452 0.928 1_655 S
H456 C453 0.931 . S
H457 C433 0.930 1_655 S
H458 C430 0.930 . S
H459 C439 0.930 . S
H460 C451 0.929 . S
H461 C454 0.930 . S
C462 C463 1.351 . S
C462 N465 1.368 . S
C462 H467 0.931 . S
C463 C462 1.351 . S
C463 N464 1.373 . S
C463 H491 0.930 . S
N464 C463 1.373 . S
N464 C466 1.340 . S
N465 C462 1.368 . S
N465 C466 1.321 . S
N465 Co468 2.135 . S
C466 N464 1.340 . S
C466 N465 1.321 . S
C466 H490 0.930 . S
H467 C462 0.931 . S
Co468 N465 2.135 . S
Co468 N471 2.121 . S
Co468 O476 2.055 . S
Co468 O479 2.039 . S
Co468 N482 2.140 . S
C469 O470 1.227 . S
C469 O479 1.265 . S
O470 C469 1.227 . S
N471 Co468 2.121 . S
N471 C473 1.375 . S
N471 C474 1.313 . S
C472 C473 1.338 . S
C472 N475 1.377 . S
C472 H492 0.930 . S
C473 N471 1.375 . S
C473 C472 1.338 . S
C473 H477 0.931 . S
C474 N471 1.313 . S
C474 N475 1.344 . S
C474 H478 0.930 . S
N475 C472 1.377 . S
N475 C474 1.344 . S
O476 Co468 2.055 . S
O476 C480 1.253 . S
H477 C473 0.931 . S
H478 C474 0.930 . S
O479 Co468 2.039 . S
O479 C469 1.265 . S
C480 O476 1.253 . S
C480 O481 1.227 . S
O481 C480 1.227 . S
N482 Co468 2.140 . S
N482 C485 1.346 . S
N482 C486 1.345 . S
C483 C484 1.387 . S
C483 C487 1.391 . S
C484 C483 1.387 . S
C484 C485 1.369 . S
C484 H493 0.929 . S
C485 N482 1.346 . S
C485 C484 1.369 . S
C485 H488 0.928 . S
C486 N482 1.345 . S
C486 C487 1.371 . S
C486 H489 0.931 . S
C487 C483 1.391 . S
C487 C486 1.371 . S
C487 H494 0.930 . S
H488 C485 0.928 . S
H489 C486 0.931 . S
H490 C466 0.930 . S
H491 C463 0.930 . S
H492 C472 0.930 . S
H493 C484 0.929 . S
H494 C487 0.930 . S
C495 C496 1.351 . S
C495 N498 1.368 . S
C495 H500 0.931 . S
C496 C495 1.351 . S
C496 N497 1.373 . S
C496 H524 0.930 . S
N497 C496 1.373 . S
N497 C499 1.340 . S
N498 C495 1.368 . S
N498 C499 1.321 . S
N498 Co501 2.135 . S
C499 N497 1.340 . S
C499 N498 1.321 . S
C499 H523 0.930 . S
H500 C495 0.931 . S
Co501 N498 2.135 . S
Co501 N504 2.121 . S
Co501 O509 2.055 . S
Co501 O512 2.039 . S
Co501 N515 2.140 . S
C502 O503 1.227 . S
C502 O512 1.265 . S
O503 C502 1.227 . S
N504 Co501 2.121 . S
N504 C506 1.375 . S
N504 C507 1.313 . S
C505 C506 1.338 . S
C505 N508 1.377 . S
C505 H525 0.930 . S
C506 N504 1.375 . S
C506 C505 1.338 . S
C506 H510 0.931 . S
C507 N504 1.313 . S
C507 N508 1.344 . S
C507 H511 0.930 . S
N508 C505 1.377 . S
N508 C507 1.344 . S
O509 Co501 2.055 . S
O509 C513 1.253 . S
H510 C506 0.931 . S
H511 C507 0.930 . S
O512 Co501 2.039 . S
O512 C502 1.265 . S
C513 O509 1.253 . S
C513 O514 1.227 . S
O514 C513 1.227 . S
N515 Co501 2.140 . S
N515 C518 1.346 . S
N515 C519 1.345 . S
C516 C517 1.387 . S
C516 C520 1.391 . S
C517 C516 1.387 . S
C517 C518 1.369 . S
C517 H526 0.929 . S
C518 N515 1.346 . S
C518 C517 1.369 . S
C518 H521 0.928 . S
C519 N515 1.345 . S
C519 C520 1.371 . S
C519 H522 0.931 . S
C520 C516 1.391 . S
C520 C519 1.371 . S
C520 H527 0.930 . S
H521 C518 0.928 . S
H522 C519 0.931 . S
H523 C499 0.930 . S
H524 C496 0.930 . S
H525 C505 0.930 . S
H526 C517 0.929 . S
H527 C520 0.930 . S
C528 C529 1.351 . S
C528 N531 1.368 . S
C528 H533 0.931 . S
C529 C528 1.351 . S
C529 N530 1.373 . S
C529 H557 0.930 . S
N530 C529 1.373 . S
N530 C532 1.340 . S
N531 C528 1.368 . S
N531 C532 1.321 . S
N531 Co534 2.135 . S
C532 N530 1.340 . S
C532 N531 1.321 . S
C532 H556 0.930 . S
H533 C528 0.931 . S
Co534 N531 2.135 . S
Co534 N537 2.121 . S
Co534 O542 2.055 . S
Co534 O545 2.039 . S
Co534 N548 2.140 . S
C535 O536 1.227 . S
C535 O545 1.265 . S
O536 C535 1.227 . S
N537 Co534 2.121 . S
N537 C539 1.375 . S
N537 C540 1.313 . S
C538 C539 1.338 . S
C538 N541 1.377 . S
C538 H558 0.930 . S
C539 N537 1.375 . S
C539 C538 1.338 . S
C539 H543 0.931 . S
C540 N537 1.313 . S
C540 N541 1.344 . S
C540 H544 0.930 . S
N541 C538 1.377 . S
N541 C540 1.344 . S
O542 Co534 2.055 . S
O542 C546 1.253 . S
H543 C539 0.931 . S
H544 C540 0.930 . S
O545 Co534 2.039 . S
O545 C535 1.265 . S
C546 O542 1.253 . S
C546 O547 1.227 . S
O547 C546 1.227 . S
N548 Co534 2.140 . S
N548 C551 1.346 . S
N548 C552 1.345 . S
C549 C550 1.387 . S
C549 C553 1.391 . S
C550 C549 1.387 . S
C550 C551 1.369 . S
C550 H559 0.929 . S
C551 N548 1.346 . S
C551 C550 1.369 . S
C551 H554 0.928 . S
C552 N548 1.345 . S
C552 C553 1.371 . S
C552 H555 0.931 . S
C553 C549 1.391 . S
C553 C552 1.371 . S
C553 H560 0.930 . S
H554 C551 0.928 . S
H555 C552 0.931 . S
H556 C532 0.930 . S
H557 C529 0.930 . S
H558 C538 0.930 . S
H559 C550 0.929 . S
H560 C553 0.930 . S
C561 C562 1.351 . S
C561 N564 1.368 . S
C561 H566 0.931 . S
C562 C561 1.351 . S
C562 N563 1.373 . S
C562 H590 0.930 . S
N563 C562 1.373 . S
N563 C565 1.340 . S
N564 C561 1.368 . S
N564 C565 1.321 . S
N564 Co567 2.135 . S
C565 N563 1.340 . S
C565 N564 1.321 . S
C565 H589 0.930 . S
H566 C561 0.931 . S
Co567 N564 2.135 . S
Co567 N570 2.121 . S
Co567 O575 2.055 . S
Co567 O578 2.039 . S
Co567 N581 2.140 . S
C568 O569 1.227 . S
C568 O578 1.265 . S
O569 C568 1.227 . S
N570 Co567 2.121 . S
N570 C572 1.375 . S
N570 C573 1.313 . S
C571 C572 1.338 . S
C571 N574 1.377 . S
C571 H591 0.930 . S
C572 N570 1.375 . S
C572 C571 1.338 . S
C572 H576 0.931 . S
C573 N570 1.313 . S
C573 N574 1.344 . S
C573 H577 0.930 . S
N574 C571 1.377 . S
N574 C573 1.344 . S
O575 Co567 2.055 . S
O575 C579 1.253 . S
H576 C572 0.931 . S
H577 C573 0.930 . S
O578 Co567 2.039 . S
O578 C568 1.265 . S
C579 O575 1.253 . S
C579 O580 1.227 . S
O580 C579 1.227 . S
N581 Co567 2.140 . S
N581 C584 1.346 . S
N581 C585 1.345 . S
C582 C583 1.387 . S
C582 C586 1.391 . S
C583 C582 1.387 . S
C583 C584 1.369 . S
C583 H592 0.929 . S
C584 N581 1.346 . S
C584 C583 1.369 . S
C584 H587 0.928 . S
C585 N581 1.345 . S
C585 C586 1.371 . S
C585 H588 0.931 . S
C586 C582 1.391 . S
C586 C585 1.371 . S
C586 H593 0.930 . S
H587 C584 0.928 . S
H588 C585 0.931 . S
H589 C565 0.930 . S
H590 C562 0.930 . S
H591 C571 0.930 . S
H592 C583 0.929 . S
H593 C586 0.930 . S
H594 C600 0.930 . S
H595 C603 0.930 . S
H596 C604 0.930 . S
H597 C605 0.930 . S
H598 C608 0.930 . S
H599 C609 0.930 . S
C600 H594 0.930 . S
C600 C601 1.355 . S
C600 C602 1.415 . S
C601 C600 1.355 . S
C601 C603 1.419 . S
C602 C600 1.415 . S
C602 C607 1.425 . S
C602 C609 1.409 . S
C603 H595 0.930 . S
C603 C601 1.419 . S
C603 C604 1.362 . S
C604 H596 0.930 . S
C604 C603 1.362 . S
C604 C607 1.409 . S
C605 H597 0.930 . S
C605 C606 1.355 . S
C605 C607 1.415 . S
C606 C605 1.355 . S
C606 C608 1.419 . S
C607 C602 1.425 . S
C607 C604 1.409 . S
C607 C605 1.415 . S
C608 H598 0.930 . S
C608 C606 1.419 . S
C608 C609 1.362 . S
C609 H599 0.930 . S
C609 C602 1.409 . S
C609 C608 1.362 . S
H610 C616 0.930 . S
H611 C619 0.930 . S
H612 C620 0.930 . S
H613 C621 0.930 . S
H614 C624 0.930 . S
H615 C625 0.930 . S
C616 H610 0.930 . S
C616 C617 1.355 . S
C616 C618 1.415 . S
C617 C616 1.355 . S
C617 C619 1.419 . S
C618 C616 1.415 . S
C618 C623 1.425 . S
C618 C625 1.409 . S
C619 H611 0.930 . S
C619 C617 1.419 . S
C619 C620 1.362 . S
C620 H612 0.930 . S
C620 C619 1.362 . S
C620 C623 1.409 . S
C621 H613 0.930 . S
C621 C622 1.355 . S
C621 C623 1.415 . S
C622 C621 1.355 . S
C622 C624 1.419 . S
C623 C618 1.425 . S
C623 C620 1.409 . S
C623 C621 1.415 . S
C624 H614 0.930 . S
C624 C622 1.419 . S
C624 C625 1.362 . S
C625 H615 0.930 . S
C625 C618 1.409 . S
C625 C624 1.362 . S
H626 C632 0.930 . S
H627 C635 0.930 . S
H628 C636 0.930 . S
H629 C637 0.930 . S
H630 C640 0.930 . S
H631 C641 0.930 . S
C632 H626 0.930 . S
C632 C633 1.355 . S
C632 C634 1.415 . S
C633 C632 1.355 . S
C633 C635 1.419 . S
C634 C632 1.415 . S
C634 C639 1.425 . S
C634 C641 1.409 . S
C635 H627 0.930 . S
C635 C633 1.419 . S
C635 C636 1.362 . S
C636 H628 0.930 . S
C636 C635 1.362 . S
C636 C639 1.409 . S
C637 H629 0.930 . S
C637 C638 1.355 . S
C637 C639 1.415 . S
C638 C637 1.355 . S
C638 C640 1.419 . S
C639 C634 1.425 . S
C639 C636 1.409 . S
C639 C637 1.415 . S
C640 H630 0.930 . S
C640 C638 1.419 . S
C640 C641 1.362 . S
C641 H631 0.930 . S
C641 C634 1.409 . S
C641 C640 1.362 . S
H642 C648 0.930 . S
H643 C651 0.930 . S
H644 C652 0.930 . S
H645 C653 0.930 . S
H646 C656 0.930 . S
H647 C657 0.930 . S
C648 H642 0.930 . S
C648 C649 1.355 . S
C648 C650 1.415 . S
C649 C648 1.355 . S
C649 C651 1.419 . S
C650 C648 1.415 . S
C650 C655 1.425 . S
C650 C657 1.409 . S
C651 H643 0.930 . S
C651 C649 1.419 . S
C651 C652 1.362 . S
C652 H644 0.930 . S
C652 C651 1.362 . S
C652 C655 1.409 . S
C653 H645 0.930 . S
C653 C654 1.355 . S
C653 C655 1.415 . S
C654 C653 1.355 . S
C654 C656 1.419 . S
C655 C650 1.425 . S
C655 C652 1.409 . S
C655 C653 1.415 . S
C656 H646 0.930 . S
C656 C654 1.419 . S
C656 C657 1.362 . S
C657 H647 0.930 . S
C657 C650 1.409 . S
C657 C656 1.362 . S
H658 C664 0.930 . S
H659 C667 0.930 . S
H660 C668 0.930 . S
H661 C669 0.930 . S
H662 C672 0.930 1_565 S
H663 C673 0.930 . S
C664 H658 0.930 . S
C664 C665 1.355 . S
C664 C666 1.415 . S
C665 C664 1.355 . S
C665 C667 1.419 . S
C666 C664 1.415 . S
C666 C671 1.425 . S
C666 C673 1.409 . S
C667 H659 0.930 . S
C667 C665 1.419 . S
C667 C668 1.362 . S
C668 H660 0.930 . S
C668 C667 1.362 . S
C668 C671 1.409 . S
C669 H661 0.930 . S
C669 C670 1.355 . S
C669 C671 1.415 . S
C670 C669 1.355 . S
C670 C672 1.419 . S
C671 C666 1.425 . S
C671 C668 1.409 . S
C671 C669 1.415 . S
C672 H662 0.930 1_545 S
C672 C670 1.419 . S
C672 C673 1.362 . S
C673 H663 0.930 . S
C673 C666 1.409 . S
C673 C672 1.362 . S
H674 C680 0.930 . S
H675 C683 0.930 . S
H676 C684 0.930 . S
H677 C685 0.930 . S
H678 C688 0.930 . S
H679 C689 0.930 . S
C680 H674 0.930 . S
C680 C681 1.355 . S
C680 C682 1.415 . S
C681 C680 1.355 . S
C681 C683 1.419 . S
C682 C680 1.415 . S
C682 C687 1.425 . S
C682 C689 1.409 . S
C683 H675 0.930 . S
C683 C681 1.419 . S
C683 C684 1.362 . S
C684 H676 0.930 . S
C684 C683 1.362 . S
C684 C687 1.409 . S
C685 H677 0.930 . S
C685 C686 1.355 . S
C685 C687 1.415 . S
C686 C685 1.355 . S
C686 C688 1.419 . S
C687 C682 1.425 . S
C687 C684 1.409 . S
C687 C685 1.415 . S
C688 H678 0.930 . S
C688 C686 1.419 . S
C688 C689 1.362 . S
C689 H679 0.930 . S
C689 C682 1.409 . S
C689 C688 1.362 . S
H690 C696 0.930 . S
H691 C699 0.930 . S
H692 C700 0.930 . S
H693 C701 0.930 . S
H694 C704 0.930 . S
H695 C705 0.930 . S
C696 H690 0.930 . S
C696 C697 1.355 . S
C696 C698 1.415 . S
C697 C696 1.355 . S
C697 C699 1.419 . S
C698 C696 1.415 . S
C698 C703 1.425 . S
C698 C705 1.409 . S
C699 H691 0.930 . S
C699 C697 1.419 . S
C699 C700 1.362 . S
C700 H692 0.930 . S
C700 C699 1.362 . S
C700 C703 1.409 . S
C701 H693 0.930 . S
C701 C702 1.355 . S
C701 C703 1.415 . S
C702 C701 1.355 . S
C702 C704 1.419 . S
C703 C698 1.425 . S
C703 C700 1.409 . S
C703 C701 1.415 . S
C704 H694 0.930 . S
C704 C702 1.419 . S
C704 C705 1.362 . S
C705 H695 0.930 . S
C705 C698 1.409 . S
C705 C704 1.362 . S
H706 C712 0.930 . S
H707 C715 0.930 . S
H708 C716 0.930 . S
H709 C717 0.930 . S
H710 C720 0.930 . S
H711 C721 0.930 . S
C712 H706 0.930 . S
C712 C713 1.355 1_545 S
C712 C714 1.415 . S
C713 C712 1.355 1_565 S
C713 C715 1.419 . S
C714 C712 1.415 . S
C714 C719 1.425 . S
C714 C721 1.409 . S
C715 H707 0.930 . S
C715 C713 1.419 . S
C715 C716 1.362 . S
C716 H708 0.930 . S
C716 C715 1.362 . S
C716 C719 1.409 1_565 S
C717 H709 0.930 . S
C717 C718 1.355 . S
C717 C719 1.415 . S
C718 C717 1.355 . S
C718 C720 1.419 . S
C719 C714 1.425 . S
C719 C716 1.409 1_545 S
C719 C717 1.415 . S
C720 H710 0.930 . S
C720 C718 1.419 . S
C720 C721 1.362 . S
C721 H711 0.930 . S
C721 C714 1.409 . S
C721 C720 1.362 . S
H722 C728 0.930 . S
H723 C731 0.930 . S
H724 C732 0.930 . S
H725 C733 0.930 . S
H726 C736 0.930 . S
H727 C737 0.930 1_455 S
C728 H722 0.930 . S
C728 C729 1.355 . S
C728 C730 1.415 1_455 S
C729 C728 1.355 . S
C729 C731 1.419 1_455 S
C730 C728 1.415 1_655 S
C730 C735 1.425 . S
C730 C737 1.409 . S
C731 H723 0.930 . S
C731 C729 1.419 1_655 S
C731 C732 1.362 . S
C732 H724 0.930 . S
C732 C731 1.362 . S
C732 C735 1.409 . S
C733 H725 0.930 . S
C733 C734 1.355 . S
C733 C735 1.415 . S
C734 C733 1.355 . S
C734 C736 1.419 . S
C735 C730 1.425 . S
C735 C732 1.409 . S
C735 C733 1.415 . S
C736 H726 0.930 . S
C736 C734 1.419 . S
C736 C737 1.362 . S
C737 H727 0.930 1_655 S
C737 C730 1.409 . S
C737 C736 1.362 . S
H738 C744 0.930 . S
H739 C747 0.930 . S
H740 C748 0.930 . S
H741 C749 0.930 . S
H742 C752 0.930 . S
H743 C753 0.930 . S
C744 H738 0.930 . S
C744 C745 1.355 . S
C744 C746 1.415 . S
C745 C744 1.355 . S
C745 C747 1.419 . S
C746 C744 1.415 . S
C746 C751 1.425 . S
C746 C753 1.409 . S
C747 H739 0.930 . S
C747 C745 1.419 . S
C747 C748 1.362 . S
C748 H740 0.930 . S
C748 C747 1.362 . S
C748 C751 1.409 . S
C749 H741 0.930 . S
C749 C750 1.355 . S
C749 C751 1.415 . S
C750 C749 1.355 . S
C750 C752 1.419 . S
C751 C746 1.425 . S
C751 C748 1.409 . S
C751 C749 1.415 . S
C752 H742 0.930 . S
C752 C750 1.419 . S
C752 C753 1.362 . S
C753 H743 0.930 . S
C753 C746 1.409 . S
C753 C752 1.362 . S
H754 C760 0.930 . S
H755 C763 0.930 . S
H756 C764 0.930 . S
H757 C765 0.930 . S
H758 C768 0.930 . S
H759 C769 0.930 . S
C760 H754 0.930 . S
C760 C761 1.355 . S
C760 C762 1.415 . S
C761 C760 1.355 . S
C761 C763 1.419 . S
C762 C760 1.415 . S
C762 C767 1.425 . S
C762 C769 1.409 . S
C763 H755 0.930 . S
C763 C761 1.419 . S
C763 C764 1.362 1_565 S
C764 H756 0.930 . S
C764 C763 1.362 1_545 S
C764 C767 1.409 1_545 S
C765 H757 0.930 . S
C765 C766 1.355 . S
C765 C767 1.415 1_545 S
C766 C765 1.355 . S
C766 C768 1.419 1_545 S
C767 C762 1.425 . S
C767 C764 1.409 1_565 S
C767 C765 1.415 1_565 S
C768 H758 0.930 . S
C768 C766 1.419 1_565 S
C768 C769 1.362 . S
C769 H759 0.930 . S
C769 C762 1.409 . S
C769 C768 1.362 . S
H770 C776 0.930 . S
H771 C779 0.930 . S
H772 C780 0.930 . S
H773 C781 0.930 . S
H774 C784 0.930 . S
H775 C785 0.930 . S
C776 H770 0.930 . S
C776 C777 1.355 . S
C776 C778 1.415 . S
C777 C776 1.355 . S
C777 C779 1.419 . S
C778 C776 1.415 . S
C778 C783 1.425 . S
C778 C785 1.409 . S
C779 H771 0.930 . S
C779 C777 1.419 . S
C779 C780 1.362 1_455 S
C780 H772 0.930 . S
C780 C779 1.362 1_655 S
C780 C783 1.409 1_655 S
C781 H773 0.930 . S
C781 C782 1.355 . S
C781 C783 1.415 1_655 S
C782 C781 1.355 . S
C782 C784 1.419 1_655 S
C783 C778 1.425 . S
C783 C780 1.409 1_455 S
C783 C781 1.415 1_455 S
C784 H774 0.930 . S
C784 C782 1.419 1_455 S
C784 C785 1.362 . S
C785 H775 0.930 . S
C785 C778 1.409 . S
C785 C784 1.362 . S
H786 C792 0.930 . S
H787 C795 0.930 . S
H788 C796 0.930 . S
H789 C797 0.930 . S
H790 C800 0.930 . S
H791 C801 0.930 . S
C792 H786 0.930 . S
C792 C793 1.355 . S
C792 C794 1.415 . S
C793 C792 1.355 . S
C793 C795 1.419 . S
C794 C792 1.415 . S
C794 C799 1.425 1_455 S
C794 C801 1.409 . S
C795 H787 0.930 . S
C795 C793 1.419 . S
C795 C796 1.362 1_455 S
C796 H788 0.930 . S
C796 C795 1.362 1_655 S
C796 C799 1.409 . S
C797 H789 0.930 . S
C797 C798 1.355 . S
C797 C799 1.415 . S
C798 C797 1.355 . S
C798 C800 1.419 . S
C799 C794 1.425 1_655 S
C799 C796 1.409 . S
C799 C797 1.415 . S
C800 H790 0.930 . S
C800 C798 1.419 . S
C800 C801 1.362 1_655 S
C801 H791 0.930 . S
C801 C794 1.409 . S
C801 C800 1.362 1_455 S
H802 C808 0.930 . S
H803 C811 0.930 . S
H804 C812 0.930 . S
H805 C813 0.930 . S
H806 C816 0.930 . S
H807 C817 0.930 . S
C808 H802 0.930 . S
C808 C809 1.355 . S
C808 C810 1.415 . S
C809 C808 1.355 . S
C809 C811 1.419 . S
C810 C808 1.415 . S
C810 C815 1.425 . S
C810 C817 1.409 . S
C811 H803 0.930 . S
C811 C809 1.419 . S
C811 C812 1.362 . S
C812 H804 0.930 . S
C812 C811 1.362 . S
C812 C815 1.409 . S
C813 H805 0.930 . S
C813 C814 1.355 . S
C813 C815 1.415 . S
C814 C813 1.355 . S
C814 C816 1.419 . S
C815 C810 1.425 . S
C815 C812 1.409 . S
C815 C813 1.415 . S
C816 H806 0.930 . S
C816 C814 1.419 . S
C816 C817 1.362 . S
C817 H807 0.930 . S
C817 C810 1.409 . S
C817 C816 1.362 . S
H818 C824 0.930 . S
H819 C827 0.930 . S
H820 C828 0.930 . S
H821 C829 0.930 . S
H822 C832 0.930 . S
H823 C833 0.930 . S
C824 H818 0.930 . S
C824 C825 1.355 . S
C824 C826 1.415 1_565 S
C825 C824 1.355 . S
C825 C827 1.419 . S
C826 C824 1.415 1_545 S
C826 C831 1.425 1_545 S
C826 C833 1.409 . S
C827 H819 0.930 . S
C827 C825 1.419 . S
C827 C828 1.362 . S
C828 H820 0.930 . S
C828 C827 1.362 . S
C828 C831 1.409 . S
C829 H821 0.930 . S
C829 C830 1.355 . S
C829 C831 1.415 1_545 S
C830 C829 1.355 . S
C830 C832 1.419 . S
C831 C826 1.425 1_565 S
C831 C828 1.409 . S
C831 C829 1.415 1_565 S
C832 H822 0.930 . S
C832 C830 1.419 . S
C832 C833 1.362 . S
C833 H823 0.930 . S
C833 C826 1.409 . S
C833 C832 1.362 . S
H834 C840 0.930 . S
H835 C843 0.930 . S
H836 C844 0.930 . S
H837 C845 0.930 . S
H838 C848 0.930 . S
H839 C849 0.930 . S
C840 H834 0.930 . S
C840 C841 1.355 . S
C840 C842 1.415 1_545 S
C841 C840 1.355 . S
C841 C843 1.419 . S
C842 C840 1.415 1_565 S
C842 C847 1.425 . S
C842 C849 1.409 . S
C843 H835 0.930 . S
C843 C841 1.419 . S
C843 C844 1.362 . S
C844 H836 0.930 . S
C844 C843 1.362 . S
C844 C847 1.409 1_545 S
C845 H837 0.930 . S
C845 C846 1.355 . S
C845 C847 1.415 . S
C846 C845 1.355 . S
C846 C848 1.419 . S
C847 C842 1.425 . S
C847 C844 1.409 1_565 S
C847 C845 1.415 . S
C848 H838 0.930 . S
C848 C846 1.419 . S
C848 C849 1.362 . S
C849 H839 0.930 . S
C849 C842 1.409 . S
C849 C848 1.362 . S
H850 C856 0.930 . S
H851 C859 0.930 . S
H852 C860 0.930 . S
H853 C861 0.930 . S
H854 C864 0.930 . S
H855 C865 0.930 . S
C856 H850 0.930 . S
C856 C857 1.355 . S
C856 C858 1.415 1_455 S
C857 C856 1.355 . S
C857 C859 1.419 . S
C858 C856 1.415 1_655 S
C858 C863 1.426 . S
C858 C865 1.409 . S
C859 H851 0.930 . S
C859 C857 1.419 . S
C859 C860 1.362 . S
C860 H852 0.930 . S
C860 C859 1.362 . S
C860 C863 1.405 1_455 S
C861 H853 0.930 . S
C861 C862 1.355 . S
C861 C863 1.418 . S
C862 C861 1.355 . S
C862 C864 1.419 . S
C863 C858 1.426 . S
C863 C860 1.405 1_655 S
C863 C861 1.418 . S
C864 H854 0.930 . S
C864 C862 1.419 . S
C864 C865 1.362 . S
C865 H855 0.930 . S
C865 C858 1.409 . S
C865 C864 1.362 . S
H866 C872 0.930 . S
H867 C875 0.930 . S
H868 C876 0.930 . S
H869 C877 0.930 . S
H870 C880 0.930 . S
H871 C881 0.930 . S
C872 H866 0.930 . S
C872 C873 1.355 . S
C872 C874 1.415 . S
C873 C872 1.355 . S
C873 C875 1.419 . S
C874 C872 1.415 . S
C874 C879 1.425 . S
C874 C881 1.409 . S
C875 H867 0.930 . S
C875 C873 1.419 . S
C875 C876 1.362 . S
C876 H868 0.930 . S
C876 C875 1.362 . S
C876 C879 1.409 . S
C877 H869 0.930 . S
C877 C878 1.355 . S
C877 C879 1.415 . S
C878 C877 1.355 . S
C878 C880 1.419 . S
C879 C874 1.425 . S
C879 C876 1.409 . S
C879 C877 1.415 . S
C880 H870 0.930 . S
C880 C878 1.419 . S
C880 C881 1.362 . S
C881 H871 0.930 . S
C881 C874 1.409 . S
C881 C880 1.362 . S
H882 C888 0.930 . S
H883 C891 0.930 . S
H884 C892 0.930 . S
H885 C893 0.930 . S
H886 C896 0.930 . S
H887 C897 0.930 . S
C888 H882 0.930 . S
C888 C889 1.355 . S
C888 C890 1.415 . S
C889 C888 1.355 . S
C889 C891 1.419 . S
C890 C888 1.415 . S
C890 C895 1.425 . S
C890 C897 1.409 . S
C891 H883 0.930 . S
C891 C889 1.419 . S
C891 C892 1.362 . S
C892 H884 0.930 . S
C892 C891 1.362 . S
C892 C895 1.409 . S
C893 H885 0.930 . S
C893 C894 1.355 . S
C893 C895 1.415 . S
C894 C893 1.355 . S
C894 C896 1.419 . S
C895 C890 1.425 . S
C895 C892 1.409 . S
C895 C893 1.415 . S
C896 H886 0.930 . S
C896 C894 1.419 . S
C896 C897 1.362 . S
C897 H887 0.930 . S
C897 C890 1.409 . S
C897 C896 1.362 . S
H898 C904 0.930 . S
H899 C907 0.930 . S
H900 C908 0.930 . S
H901 C909 0.930 . S
H902 C912 0.930 . S
H903 C913 0.930 . S
C904 H898 0.930 . S
C904 C905 1.355 . S
C904 C906 1.415 . S
C905 C904 1.355 . S
C905 C907 1.419 . S
C906 C904 1.415 . S
C906 C911 1.425 . S
C906 C913 1.409 . S
C907 H899 0.930 . S
C907 C905 1.419 . S
C907 C908 1.362 . S
C908 H900 0.930 . S
C908 C907 1.362 . S
C908 C911 1.409 . S
C909 H901 0.930 . S
C909 C910 1.355 . S
C909 C911 1.415 . S
C910 C909 1.355 . S
C910 C912 1.419 . S
C911 C906 1.425 . S
C911 C908 1.409 . S
C911 C909 1.415 . S
C912 H902 0.930 . S
C912 C910 1.419 . S
C912 C913 1.362 . S
C913 H903 0.930 . S
C913 C906 1.409 . S
C913 C912 1.362 . S
H914 C920 0.930 . S
H915 C923 0.930 . S
H916 C924 0.930 . S
H917 C925 0.930 . S
H918 C928 0.930 . S
H919 C929 0.930 . S
C920 H914 0.930 . S
C920 C921 1.355 . S
C920 C922 1.415 . S
C921 C920 1.355 . S
C921 C923 1.419 . S
C922 C920 1.415 . S
C922 C927 1.425 . S
C922 C929 1.409 . S
C923 H915 0.930 . S
C923 C921 1.419 . S
C923 C924 1.362 . S
C924 H916 0.930 . S
C924 C923 1.362 . S
C924 C927 1.409 . S
C925 H917 0.930 . S
C925 C926 1.355 . S
C925 C927 1.415 . S
C926 C925 1.355 . S
C926 C928 1.419 . S
C927 C922 1.425 . S
C927 C924 1.409 . S
C927 C925 1.415 . S
C928 H918 0.930 . S
C928 C926 1.419 . S
C928 C929 1.362 . S
C929 H919 0.930 . S
C929 C922 1.409 . S
C929 C928 1.362 . S
H930 C936 0.930 . S
H931 C939 0.930 . S
H932 C940 0.930 . S
H933 C941 0.930 . S
H934 C944 0.930 . S
H935 C945 0.930 . S
C936 H930 0.930 . S
C936 C937 1.355 . S
C936 C938 1.415 . S
C937 C936 1.355 . S
C937 C939 1.419 . S
C938 C936 1.415 . S
C938 C943 1.425 . S
C938 C945 1.409 . S
C939 H931 0.930 . S
C939 C937 1.419 . S
C939 C940 1.362 . S
C940 H932 0.930 . S
C940 C939 1.362 . S
C940 C943 1.409 . S
C941 H933 0.930 . S
C941 C942 1.355 . S
C941 C943 1.415 . S
C942 C941 1.355 . S
C942 C944 1.419 . S
C943 C938 1.425 . S
C943 C940 1.409 . S
C943 C941 1.415 . S
C944 H934 0.930 . S
C944 C942 1.419 . S
C944 C945 1.362 . S
C945 H935 0.930 . S
C945 C938 1.409 . S
C945 C944 1.362 . S
H946 C952 0.930 . S
H947 C955 0.930 . S
H948 C956 0.930 . S
H949 C957 0.930 . S
H950 C960 0.930 . S
H951 C961 0.930 . S
C952 H946 0.930 . S
C952 C953 1.355 . S
C952 C954 1.415 . S
C953 C952 1.355 . S
C953 C955 1.419 . S
C954 C952 1.415 . S
C954 C959 1.425 . S
C954 C961 1.409 . S
C955 H947 0.930 . S
C955 C953 1.419 . S
C955 C956 1.362 . S
C956 H948 0.930 . S
C956 C955 1.362 . S
C956 C959 1.409 . S
C957 H949 0.930 . S
C957 C958 1.355 . S
C957 C959 1.415 . S
C958 C957 1.355 . S
C958 C960 1.419 . S
C959 C954 1.425 . S
C959 C956 1.409 . S
C959 C957 1.415 . S
C960 H950 0.930 . S
C960 C958 1.419 . S
C960 C961 1.362 . S
C961 H951 0.930 . S
C961 C954 1.409 . S
C961 C960 1.362 . S
H962 C968 0.930 . S
H963 C971 0.930 . S
H964 C972 0.930 . S
H965 C973 0.930 . S
H966 C976 0.930 . S
H967 C977 0.930 . S
C968 H962 0.930 . S
C968 C969 1.355 . S
C968 C970 1.415 . S
C969 C968 1.355 . S
C969 C971 1.419 . S
C970 C968 1.415 . S
C970 C975 1.425 . S
C970 C977 1.409 . S
C971 H963 0.930 . S
C971 C969 1.419 . S
C971 C972 1.362 . S
C972 H964 0.930 . S
C972 C971 1.362 . S
C972 C975 1.409 . S
C973 H965 0.930 . S
C973 C974 1.355 . S
C973 C975 1.415 . S
C974 C973 1.355 . S
C974 C976 1.419 . S
C975 C970 1.425 . S
C975 C972 1.409 . S
C975 C973 1.415 . S
C976 H966 0.930 . S
C976 C974 1.419 . S
C976 C977 1.362 . S
C977 H967 0.930 . S
C977 C970 1.409 . S
C977 C976 1.362 . S
H978 C984 0.930 . S
H979 C987 0.930 . S
H980 C988 0.930 . S
H981 C989 0.930 . S
H982 C992 0.930 . S
H983 C993 0.930 . S
C984 H978 0.930 . S
C984 C985 1.355 1_455 S
C984 C986 1.415 . S
C985 C984 1.355 1_655 S
C985 C987 1.419 . S
C986 C984 1.415 . S
C986 C991 1.425 1_454 S
C986 C993 1.409 1_554 S
C987 H979 0.930 . S
C987 C985 1.419 . S
C987 C988 1.362 . S
C988 H980 0.930 . S
C988 C987 1.362 . S
C988 C991 1.409 1_554 S
C989 H981 0.930 . S
C989 C990 1.355 1_655 S
C989 C991 1.415 . S
C990 C989 1.355 1_455 S
C990 C992 1.419 . S
C991 C986 1.425 1_656 S
C991 C988 1.409 1_556 S
C991 C989 1.415 . S
C992 H982 0.930 . S
C992 C990 1.419 . S
C992 C993 1.362 . S
C993 H983 0.930 . S
C993 C986 1.409 1_556 S
C993 C992 1.362 . S
H994 C1000 0.930 . S
H995 C1003 0.930 . S
H996 C1004 0.930 . S
H997 C1005 0.930 . S
H998 C1008 0.930 . S
H999 C1009 0.930 . S
C1000 H994 0.930 . S
C1000 C1001 1.355 . S
C1000 C1002 1.415 . S
C1001 C1000 1.355 . S
C1001 C1003 1.419 . S
C1002 C1000 1.415 . S
C1002 C1007 1.425 1_554 S
C1002 C1009 1.409 1_554 S
C1003 H995 0.930 . S
C1003 C1001 1.419 . S
C1003 C1004 1.362 . S
C1004 H996 0.930 . S
C1004 C1003 1.362 . S
C1004 C1007 1.409 1_554 S
C1005 H997 0.930 . S
C1005 C1006 1.355 . S
C1005 C1007 1.415 . S
C1006 C1005 1.355 . S
C1006 C1008 1.419 . S
C1007 C1002 1.425 1_556 S
C1007 C1004 1.409 1_556 S
C1007 C1005 1.415 . S
C1008 H998 0.930 . S
C1008 C1006 1.419 . S
C1008 C1009 1.362 . S
C1009 H999 0.930 . S
C1009 C1002 1.409 1_556 S
C1009 C1008 1.362 . S
H1010 C1016 0.930 . S
H1011 C1019 0.930 . S
H1012 C1020 0.930 . S
H1013 C1021 0.930 . S
H1014 C1024 0.930 . S
H1015 C1025 0.930 . S
C1016 H1010 0.930 . S
C1016 C1017 1.355 . S
C1016 C1018 1.415 . S
C1017 C1016 1.355 . S
C1017 C1019 1.419 1_545 S
C1018 C1016 1.415 . S
C1018 C1023 1.425 1_544 S
C1018 C1025 1.409 1_554 S
C1019 H1011 0.930 . S
C1019 C1017 1.419 1_565 S
C1019 C1020 1.362 . S
C1020 H1012 0.930 . S
C1020 C1019 1.362 . S
C1020 C1023 1.409 1_554 S
C1021 H1013 0.930 . S
C1021 C1022 1.355 . S
C1021 C1023 1.415 . S
C1022 C1021 1.355 . S
C1022 C1024 1.419 1_565 S
C1023 C1018 1.425 1_566 S
C1023 C1020 1.409 1_556 S
C1023 C1021 1.415 . S
C1024 H1014 0.930 . S
C1024 C1022 1.419 1_545 S
C1024 C1025 1.362 . S
C1025 H1015 0.930 . S
C1025 C1018 1.409 1_556 S
C1025 C1024 1.362 . S
H1026 C1032 0.930 . S
H1027 C1035 0.930 . S
H1028 C1036 0.930 . S
H1029 C1037 0.930 . S
H1030 C1040 0.930 . S
H1031 C1041 0.930 . S
C1032 H1026 0.930 . S
C1032 C1033 1.355 . S
C1032 C1034 1.415 . S
C1033 C1032 1.355 . S
C1033 C1035 1.419 . S
C1034 C1032 1.415 . S
C1034 C1039 1.425 . S
C1034 C1041 1.409 . S
C1035 H1027 0.930 . S
C1035 C1033 1.419 . S
C1035 C1036 1.362 . S
C1036 H1028 0.930 . S
C1036 C1035 1.362 . S
C1036 C1039 1.409 . S
C1037 H1029 0.930 . S
C1037 C1038 1.355 . S
C1037 C1039 1.415 . S
C1038 C1037 1.355 . S
C1038 C1040 1.419 . S
C1039 C1034 1.425 . S
C1039 C1036 1.409 . S
C1039 C1037 1.415 . S
C1040 H1030 0.930 . S
C1040 C1038 1.419 . S
C1040 C1041 1.362 . S
C1041 H1031 0.930 . S
C1041 C1034 1.409 . S
C1041 C1040 1.362 . S
H1042 C1048 0.930 . S
H1043 C1051 0.930 . S
H1044 C1052 0.930 . S
H1045 C1053 0.930 . S
H1046 C1056 0.930 . S
H1047 C1057 0.930 . S
C1048 H1042 0.930 . S
C1048 C1049 1.355 . S
C1048 C1050 1.415 1_565 S
C1049 C1048 1.355 . S
C1049 C1051 1.419 . S
C1050 C1048 1.415 1_545 S
C1050 C1055 1.425 . S
C1050 C1057 1.409 . S
C1051 H1043 0.930 . S
C1051 C1049 1.419 . S
C1051 C1052 1.362 1_565 S
C1052 H1044 0.930 . S
C1052 C1051 1.362 1_545 S
C1052 C1055 1.409 . S
C1053 H1045 0.930 . S
C1053 C1054 1.355 . S
C1053 C1055 1.415 . S
C1054 C1053 1.355 . S
C1054 C1056 1.419 . S
C1055 C1050 1.425 . S
C1055 C1052 1.409 . S
C1055 C1053 1.415 . S
C1056 H1046 0.930 . S
C1056 C1054 1.419 . S
C1056 C1057 1.362 . S
C1057 H1047 0.930 . S
C1057 C1050 1.409 . S
C1057 C1056 1.362 . S
H1058 C1064 0.930 . S
H1059 C1067 0.930 . S
H1060 C1068 0.930 . S
H1061 C1069 0.930 . S
H1062 C1072 0.930 . S
H1063 C1073 0.930 . S
C1064 H1058 0.930 . S
C1064 C1065 1.355 . S
C1064 C1066 1.415 . S
C1065 C1064 1.355 . S
C1065 C1067 1.419 . S
C1066 C1064 1.415 . S
C1066 C1071 1.425 . S
C1066 C1073 1.409 . S
C1067 H1059 0.930 . S
C1067 C1065 1.419 . S
C1067 C1068 1.362 . S
C1068 H1060 0.930 . S
C1068 C1067 1.362 . S
C1068 C1071 1.409 . S
C1069 H1061 0.930 . S
C1069 C1070 1.355 . S
C1069 C1071 1.415 1_455 S
C1070 C1069 1.355 . S
C1070 C1072 1.419 . S
C1071 C1066 1.425 . S
C1071 C1068 1.409 . S
C1071 C1069 1.415 1_655 S
C1072 H1062 0.930 . S
C1072 C1070 1.419 . S
C1072 C1073 1.362 1_455 S
C1073 H1063 0.930 . S
C1073 C1066 1.409 . S
C1073 C1072 1.362 1_655 S
H1074 C1080 0.930 . S
H1075 C1083 0.930 1_655 S
H1076 C1084 0.930 . S
H1077 C1085 0.930 . S
H1078 C1088 0.930 . S
H1079 C1089 0.930 . S
C1080 H1074 0.930 . S
C1080 C1081 1.355 . S
C1080 C1082 1.415 . S
C1081 C1080 1.355 . S
C1081 C1083 1.419 . S
C1082 C1080 1.415 . S
C1082 C1087 1.425 . S
C1082 C1089 1.409 . S
C1083 H1075 0.930 1_455 S
C1083 C1081 1.419 . S
C1083 C1084 1.362 . S
C1084 H1076 0.930 . S
C1084 C1083 1.362 . S
C1084 C1087 1.409 . S
C1085 H1077 0.930 . S
C1085 C1086 1.355 . S
C1085 C1087 1.415 . S
C1086 C1085 1.355 . S
C1086 C1088 1.419 . S
C1087 C1082 1.425 . S
C1087 C1084 1.409 . S
C1087 C1085 1.415 . S
C1088 H1078 0.930 . S
C1088 C1086 1.419 . S
C1088 C1089 1.362 . S
C1089 H1079 0.930 . S
C1089 C1082 1.409 . S
C1089 C1088 1.362 . S
H1090 C1096 0.930 . S
H1091 C1099 0.930 . S
H1092 C1100 0.930 . S
H1093 C1101 0.930 . S
H1094 C1104 0.930 . S
H1095 C1105 0.930 . S
C1096 H1090 0.930 . S
C1096 C1097 1.355 1_565 S
C1096 C1098 1.415 . S
C1097 C1096 1.355 1_545 S
C1097 C1099 1.419 . S
C1098 C1096 1.415 . S
C1098 C1103 1.425 . S
C1098 C1105 1.409 . S
C1099 H1091 0.930 . S
C1099 C1097 1.419 . S
C1099 C1100 1.362 1_545 S
C1100 H1092 0.930 . S
C1100 C1099 1.362 1_565 S
C1100 C1103 1.409 . S
C1101 H1093 0.930 . S
C1101 C1102 1.355 . S
C1101 C1103 1.415 . S
C1102 C1101 1.355 . S
C1102 C1104 1.419 . S
C1103 C1098 1.425 . S
C1103 C1100 1.409 . S
C1103 C1101 1.415 . S
C1104 H1094 0.930 . S
C1104 C1102 1.419 . S
C1104 C1105 1.362 . S
C1105 H1095 0.930 . S
C1105 C1098 1.409 . S
C1105 C1104 1.362 . S
H1106 C1112 0.930 . S
H1107 C1115 0.930 1_545 S
H1108 C1116 0.930 . S
H1109 C1117 0.930 . S
H1110 C1120 0.930 . S
H1111 C1121 0.930 . S
C1112 H1106 0.930 . S
C1112 C1113 1.355 . S
C1112 C1114 1.415 . S
C1113 C1112 1.355 . S
C1113 C1115 1.419 . S
C1114 C1112 1.415 . S
C1114 C1119 1.425 . S
C1114 C1121 1.409 . S
C1115 H1107 0.930 1_565 S
C1115 C1113 1.419 . S
C1115 C1116 1.362 . S
C1116 H1108 0.930 . S
C1116 C1115 1.362 . S
C1116 C1119 1.409 . S
C1117 H1109 0.930 . S
C1117 C1118 1.355 . S
C1117 C1119 1.415 1_655 S
C1118 C1117 1.355 . S
C1118 C1120 1.419 . S
C1119 C1114 1.425 . S
C1119 C1116 1.409 . S
C1119 C1117 1.415 1_455 S
C1120 H1110 0.930 . S
C1120 C1118 1.419 . S
C1120 C1121 1.362 1_655 S
C1121 H1111 0.930 . S
C1121 C1114 1.409 . S
C1121 C1120 1.362 1_455 S
H1122 C1128 0.930 . S
H1123 C1131 0.930 . S
H1124 C1132 0.930 . S
H1125 C1133 0.930 . S
H1126 C1136 0.930 . S
H1127 C1137 0.930 . S
C1128 H1122 0.930 . S
C1128 C1129 1.355 . S
C1128 C1130 1.415 . S
C1129 C1128 1.355 . S
C1129 C1131 1.419 . S
C1130 C1128 1.415 . S
C1130 C1135 1.425 . S
C1130 C1137 1.409 . S
C1131 H1123 0.930 . S
C1131 C1129 1.419 . S
C1131 C1132 1.362 . S
C1132 H1124 0.930 . S
C1132 C1131 1.362 . S
C1132 C1135 1.409 . S
C1133 H1125 0.930 . S
C1133 C1134 1.355 . S
C1133 C1135 1.415 . S
C1134 C1133 1.355 . S
C1134 C1136 1.419 . S
C1135 C1130 1.425 . S
C1135 C1132 1.409 . S
C1135 C1133 1.415 . S
C1136 H1126 0.930 . S
C1136 C1134 1.419 . S
C1136 C1137 1.362 . S
C1137 H1127 0.930 . S
C1137 C1130 1.409 . S
C1137 C1136 1.362 . S
H1138 C1144 0.930 . S
H1139 C1147 0.930 . S
H1140 C1148 0.930 . S
H1141 C1149 0.930 . S
H1142 C1152 0.930 . S
H1143 C1153 0.930 . S
C1144 H1138 0.930 . S
C1144 C1145 1.355 . S
C1144 C1146 1.415 . S
C1145 C1144 1.355 . S
C1145 C1147 1.419 . S
C1146 C1144 1.415 . S
C1146 C1151 1.425 . S
C1146 C1153 1.409 . S
C1147 H1139 0.930 . S
C1147 C1145 1.419 . S
C1147 C1148 1.362 . S
C1148 H1140 0.930 . S
C1148 C1147 1.362 . S
C1148 C1151 1.409 . S
C1149 H1141 0.930 . S
C1149 C1150 1.355 . S
C1149 C1151 1.415 . S
C1150 C1149 1.355 . S
C1150 C1152 1.419 . S
C1151 C1146 1.425 . S
C1151 C1148 1.409 . S
C1151 C1149 1.415 . S
C1152 H1142 0.930 . S
C1152 C1150 1.419 . S
C1152 C1153 1.362 . S
C1153 H1143 0.930 . S
C1153 C1146 1.409 . S
C1153 C1152 1.362 . S
H1154 C1160 0.930 . S
H1155 C1163 0.930 . S
H1156 C1164 0.930 . S
H1157 C1165 0.930 . S
H1158 C1168 0.930 . S
H1159 C1169 0.930 . S
C1160 H1154 0.930 . S
C1160 C1161 1.355 . S
C1160 C1162 1.415 . S
C1161 C1160 1.355 . S
C1161 C1163 1.419 . S
C1162 C1160 1.415 . S
C1162 C1167 1.425 . S
C1162 C1169 1.409 . S
C1163 H1155 0.930 . S
C1163 C1161 1.419 . S
C1163 C1164 1.362 . S
C1164 H1156 0.930 . S
C1164 C1163 1.362 . S
C1164 C1167 1.409 . S
C1165 H1157 0.930 . S
C1165 C1166 1.355 . S
C1165 C1167 1.415 . S
C1166 C1165 1.355 . S
C1166 C1168 1.419 . S
C1167 C1162 1.425 . S
C1167 C1164 1.409 . S
C1167 C1165 1.415 . S
C1168 H1158 0.930 . S
C1168 C1166 1.419 . S
C1168 C1169 1.362 . S
C1169 H1159 0.930 . S
C1169 C1162 1.409 . S
C1169 C1168 1.362 . S
H1170 C1176 0.930 . S
H1171 C1179 0.930 . S
H1172 C1180 0.930 . S
H1173 C1181 0.930 . S
H1174 C1184 0.930 . S
H1175 C1185 0.930 . S
C1176 H1170 0.930 . S
C1176 C1177 1.355 . S
C1176 C1178 1.415 . S
C1177 C1176 1.355 . S
C1177 C1179 1.419 . S
C1178 C1176 1.415 . S
C1178 C1183 1.425 . S
C1178 C1185 1.409 . S
C1179 H1171 0.930 . S
C1179 C1177 1.419 . S
C1179 C1180 1.362 . S
C1180 H1172 0.930 . S
C1180 C1179 1.362 . S
C1180 C1183 1.409 . S
C1181 H1173 0.930 . S
C1181 C1182 1.355 . S
C1181 C1183 1.415 . S
C1182 C1181 1.355 . S
C1182 C1184 1.419 . S
C1183 C1178 1.425 . S
C1183 C1180 1.409 . S
C1183 C1181 1.415 . S
C1184 H1174 0.930 . S
C1184 C1182 1.419 . S
C1184 C1185 1.362 . S
C1185 H1175 0.930 . S
C1185 C1178 1.409 . S
C1185 C1184 1.362 . S
H1186 C1192 0.930 . S
H1187 C1195 0.930 . S
H1188 C1196 0.930 . S
H1189 C1197 0.930 . S
H1190 C1200 0.930 . S
H1191 C1201 0.930 . S
C1192 H1186 0.930 . S
C1192 C1193 1.355 . S
C1192 C1194 1.415 . S
C1193 C1192 1.355 . S
C1193 C1195 1.419 . S
C1194 C1192 1.415 . S
C1194 C1199 1.425 . S
C1194 C1201 1.409 . S
C1195 H1187 0.930 . S
C1195 C1193 1.419 . S
C1195 C1196 1.362 . S
C1196 H1188 0.930 . S
C1196 C1195 1.362 . S
C1196 C1199 1.409 . S
C1197 H1189 0.930 . S
C1197 C1198 1.355 . S
C1197 C1199 1.415 . S
C1198 C1197 1.355 . S
C1198 C1200 1.419 . S
C1199 C1194 1.425 . S
C1199 C1196 1.409 . S
C1199 C1197 1.415 . S
C1200 H1190 0.930 . S
C1200 C1198 1.419 . S
C1200 C1201 1.362 . S
C1201 H1191 0.930 . S
C1201 C1194 1.409 . S
C1201 C1200 1.362 . S
H1202 C1208 0.930 . S
H1203 C1211 0.930 . S
H1204 C1212 0.930 . S
H1205 C1213 0.930 . S
H1206 C1216 0.930 . S
H1207 C1217 0.930 . S
C1208 H1202 0.930 . S
C1208 C1209 1.355 . S
C1208 C1210 1.415 . S
C1209 C1208 1.355 . S
C1209 C1211 1.419 . S
C1210 C1208 1.415 . S
C1210 C1215 1.425 . S
C1210 C1217 1.409 . S
C1211 H1203 0.930 . S
C1211 C1209 1.419 . S
C1211 C1212 1.362 . S
C1212 H1204 0.930 . S
C1212 C1211 1.362 . S
C1212 C1215 1.409 . S
C1213 H1205 0.930 . S
C1213 C1214 1.355 . S
C1213 C1215 1.415 . S
C1214 C1213 1.355 . S
C1214 C1216 1.419 . S
C1215 C1210 1.425 . S
C1215 C1212 1.409 . S
C1215 C1213 1.415 . S
C1216 H1206 0.930 . S
C1216 C1214 1.419 . S
C1216 C1217 1.362 . S
C1217 H1207 0.930 . S
C1217 C1210 1.409 . S
C1217 C1216 1.362 . S
H1218 C1224 0.930 . S
H1219 C1227 0.930 . S
H1220 C1228 0.930 . S
H1221 C1229 0.930 . S
H1222 C1232 0.930 . S
H1223 C1233 0.930 . S
C1224 H1218 0.930 . S
C1224 C1225 1.355 . S
C1224 C1226 1.415 . S
C1225 C1224 1.355 . S
C1225 C1227 1.419 . S
C1226 C1224 1.415 . S
C1226 C1231 1.425 . S
C1226 C1233 1.409 . S
C1227 H1219 0.930 . S
C1227 C1225 1.419 . S
C1227 C1228 1.362 . S
C1228 H1220 0.930 . S
C1228 C1227 1.362 . S
C1228 C1231 1.409 . S
C1229 H1221 0.930 . S
C1229 C1230 1.355 . S
C1229 C1231 1.415 . S
C1230 C1229 1.355 . S
C1230 C1232 1.419 . S
C1231 C1226 1.425 . S
C1231 C1228 1.409 . S
C1231 C1229 1.415 . S
C1232 H1222 0.930 . S
C1232 C1230 1.419 . S
C1232 C1233 1.362 . S
C1233 H1223 0.930 . S
C1233 C1226 1.409 . S
C1233 C1232 1.362 . S
H1234 C1240 0.930 . S
H1235 C1243 0.930 . S
H1236 C1244 0.930 . S
H1237 C1245 0.930 . S
H1238 C1248 0.930 . S
H1239 C1249 0.930 . S
C1240 H1234 0.930 . S
C1240 C1241 1.355 . S
C1240 C1242 1.415 . S
C1241 C1240 1.355 . S
C1241 C1243 1.419 . S
C1242 C1240 1.415 . S
C1242 C1247 1.425 . S
C1242 C1249 1.409 . S
C1243 H1235 0.930 . S
C1243 C1241 1.419 . S
C1243 C1244 1.362 . S
C1244 H1236 0.930 . S
C1244 C1243 1.362 . S
C1244 C1247 1.409 . S
C1245 H1237 0.930 . S
C1245 C1246 1.355 . S
C1245 C1247 1.415 . S
C1246 C1245 1.355 . S
C1246 C1248 1.419 . S
C1247 C1242 1.425 . S
C1247 C1244 1.409 . S
C1247 C1245 1.415 . S
C1248 H1238 0.930 . S
C1248 C1246 1.419 . S
C1248 C1249 1.362 . S
C1249 H1239 0.930 . S
C1249 C1242 1.409 . S
C1249 C1248 1.362 . S
H1250 C1256 0.930 . S
H1251 C1259 0.930 . S
H1252 C1260 0.930 . S
H1253 C1261 0.930 . S
H1254 C1264 0.930 . S
H1255 C1265 0.930 . S
C1256 H1250 0.930 . S
C1256 C1257 1.355 . S
C1256 C1258 1.415 . S
C1257 C1256 1.355 . S
C1257 C1259 1.419 . S
C1258 C1256 1.415 . S
C1258 C1263 1.425 . S
C1258 C1265 1.409 . S
C1259 H1251 0.930 . S
C1259 C1257 1.419 . S
C1259 C1260 1.362 . S
C1260 H1252 0.930 . S
C1260 C1259 1.362 . S
C1260 C1263 1.409 . S
C1261 H1253 0.930 . S
C1261 C1262 1.355 . S
C1261 C1263 1.415 . S
C1262 C1261 1.355 . S
C1262 C1264 1.419 . S
C1263 C1258 1.425 . S
C1263 C1260 1.409 . S
C1263 C1261 1.415 . S
C1264 H1254 0.930 . S
C1264 C1262 1.419 . S
C1264 C1265 1.362 . S
C1265 H1255 0.930 . S
C1265 C1258 1.409 . S
C1265 C1264 1.362 . S
H1266 C1272 0.930 . S
H1267 C1275 0.930 . S
H1268 C1276 0.930 . S
H1269 C1277 0.930 . S
H1270 C1280 0.930 . S
H1271 C1281 0.930 . S
C1272 H1266 0.930 . S
C1272 C1273 1.355 . S
C1272 C1274 1.415 . S
C1273 C1272 1.355 . S
C1273 C1275 1.419 . S
C1274 C1272 1.415 . S
C1274 C1279 1.425 . S
C1274 C1281 1.409 . S
C1275 H1267 0.930 . S
C1275 C1273 1.419 . S
C1275 C1276 1.362 . S
C1276 H1268 0.930 . S
C1276 C1275 1.362 . S
C1276 C1279 1.409 . S
C1277 H1269 0.930 . S
C1277 C1278 1.355 . S
C1277 C1279 1.415 . S
C1278 C1277 1.355 . S
C1278 C1280 1.419 . S
C1279 C1274 1.425 . S
C1279 C1276 1.409 . S
C1279 C1277 1.415 . S
C1280 H1270 0.930 . S
C1280 C1278 1.419 . S
C1280 C1281 1.362 . S
C1281 H1271 0.930 . S
C1281 C1274 1.409 . S
C1281 C1280 1.362 . S
H1282 C1288 0.930 . S
H1283 C1291 0.930 . S
H1284 C1292 0.930 . S
H1285 C1293 0.930 . S
H1286 C1296 0.930 . S
H1287 C1297 0.930 . S
C1288 H1282 0.930 . S
C1288 C1289 1.355 . S
C1288 C1290 1.415 . S
C1289 C1288 1.355 . S
C1289 C1291 1.419 . S
C1290 C1288 1.415 . S
C1290 C1295 1.425 . S
C1290 C1297 1.409 . S
C1291 H1283 0.930 . S
C1291 C1289 1.419 . S
C1291 C1292 1.362 . S
C1292 H1284 0.930 . S
C1292 C1291 1.362 . S
C1292 C1295 1.409 . S
C1293 H1285 0.930 . S
C1293 C1294 1.355 . S
C1293 C1295 1.415 . S
C1294 C1293 1.355 . S
C1294 C1296 1.419 . S
C1295 C1290 1.425 . S
C1295 C1292 1.409 . S
C1295 C1293 1.415 . S
C1296 H1286 0.930 . S
C1296 C1294 1.419 . S
C1296 C1297 1.362 . S
C1297 H1287 0.930 . S
C1297 C1290 1.409 . S
C1297 C1296 1.362 . S
H1298 C1304 0.930 . S
H1299 C1307 0.930 . S
H1300 C1308 0.930 . S
H1301 C1309 0.930 . S
H1302 C1312 0.930 . S
H1303 C1313 0.930 . S
C1304 H1298 0.930 . S
C1304 C1305 1.355 . S
C1304 C1306 1.415 . S
C1305 C1304 1.355 . S
C1305 C1307 1.419 . S
C1306 C1304 1.415 . S
C1306 C1311 1.425 . S
C1306 C1313 1.409 . S
C1307 H1299 0.930 . S
C1307 C1305 1.419 . S
C1307 C1308 1.362 . S
C1308 H1300 0.930 . S
C1308 C1307 1.362 . S
C1308 C1311 1.409 . S
C1309 H1301 0.930 . S
C1309 C1310 1.355 . S
C1309 C1311 1.415 . S
C1310 C1309 1.355 . S
C1310 C1312 1.419 . S
C1311 C1306 1.425 . S
C1311 C1308 1.409 . S
C1311 C1309 1.415 . S
C1312 H1302 0.930 . S
C1312 C1310 1.419 . S
C1312 C1313 1.362 . S
C1313 H1303 0.930 . S
C1313 C1306 1.409 . S
C1313 C1312 1.362 . S
C601 N332 1.732 . S
C606 N2 1.650 . S
C617 N35 1.667 . S
C622 N365 1.700 . S
C633 N299 1.707 . S
C638 N68 1.662 . S
C649 N464 1.670 . S
C654 N101 1.724 . S
C665 N134 1.729 . S
C670 N398 1.661 . S
C681 N431 1.732 . S
C686 N167 1.650 . S
C697 C172 1.746 . S
C702 C469 1.738 . S
C713 C403 1.751 . S
C718 C106 1.741 . S
C729 C436 1.737 . S
C734 C139 1.745 . S
C745 C40 1.755 . S
C750 C337 1.744 . S
C761 C73 1.764 . S
C766 C370 1.752 . S
C777 C7 1.747 . S
C782 C304 1.738 . S
C793 N530 1.679 . S
C798 N200 1.717 . S
C809 N563 1.655 . S
C814 N233 1.732 . S
C825 N497 1.714 . S
C830 N266 1.656 . S
C841 C238 1.772 . S
C846 C535 1.761 . S
C857 C568 1.778 . S
C862 C271 1.774 . S
C873 C205 1.763 . S
C878 C502 1.751 . S
C889 C21 1.373 . S
C894 C582 1.377 . S
C905 C54 1.365 . S
C910 C516 1.361 . S
C921 C87 1.367 . S
C926 C549 1.363 . S
C937 C252 1.344 . S
C942 C120 1.344 . S
C953 C153 1.347 . S
C958 C285 1.350 . S
C969 C186 1.349 . S
C974 C219 1.352 . S
C985 C318 1.345 . S
C990 C450 1.344 . S
C1001 C351 1.388 . S
C1006 C483 1.386 . S
C1017 C384 1.376 . S
C1022 C417 1.371 . S
C1033 N79 1.452 . S
C1038 C18 1.460 . S
C1049 C51 1.510 . S
C1054 N13 1.503 . S
C1065 N46 1.473 . S
C1070 C84 1.477 . S
C1081 N145 1.459 . S
C1086 C117 1.466 . S
C1097 C150 1.454 . S
C1102 N178 1.434 . S
C1113 N112 1.466 . S
C1118 C183 1.471 . S
C1129 C216 1.509 . S
C1134 N277 1.498 . S
C1145 N211 1.441 . S
C1150 C249 1.462 . S
C1161 C282 1.459 . S
C1166 N244 1.450 . S
C1177 C315 1.502 . S
C1182 N343 1.486 . S
C1193 N376 1.452 . S
C1198 C348 1.460 . S
C1209 C381 1.476 . S
C1214 N310 1.455 . S
C1225 C414 1.454 . S
C1230 N475 1.443 . S
C1241 N409 1.502 . S
C1246 C447 1.509 . S
C1257 C480 1.508 . S
C1262 N442 1.502 . S
C1273 C513 1.457 . S
C1278 N541 1.437 . S
C1289 N574 1.449 . S
C1294 C546 1.471 . S
C1305 N508 1.447 . S
C1310 C579 1.456 . S
