# Generated by pormake.
# Topology fcu, (12)-cn, num edge types: 1
# Building blocks:
#     Node 0, Type 0, BuildingBlock: QEWDON_clean_sbu_0, # of connection points: 12
#     Node 1, Type 0, BuildingBlock: QEWDON_clean_sbu_0, # of connection points: 12
#     Node 2, Type 0, BuildingBlock: QEWDON_clean_sbu_0, # of connection points: 12
#     Node 3, Type 0, BuildingBlock: QEWDON_clean_sbu_0, # of connection points: 12
#     Edge 4, Type (0, 0), BuildingBlock: AJUNOK_clean_linker_0, # of connection points: 2
#     Edge 5, Type (0, 0), BuildingBlock: AJUNOK_clean_linker_0, # of connection points: 2
#     Edge 6, Type (0, 0), BuildingBlock: AJUNOK_clean_linker_0, # of connection points: 2
#     Edge 7, Type (0, 0), BuildingBlock: AJUNOK_clean_linker_0, # of connection points: 2
#     Edge 8, Type (0, 0), BuildingBlock: AJUNOK_clean_linker_0, # of connection points: 2
#     Edge 9, Type (0, 0), BuildingBlock: AJUNOK_clean_linker_0, # of connection points: 2
#     Edge 10, Type (0, 0), BuildingBlock: AJUNOK_clean_linker_0, # of connection points: 2
#     Edge 11, Type (0, 0), BuildingBlock: AJUNOK_clean_linker_0, # of connection points: 2
#     Edge 12, Type (0, 0), BuildingBlock: AJUNOK_clean_linker_0, # of connection points: 2
#     Edge 13, Type (0, 0), BuildingBlock: AJUNOK_clean_linker_0, # of connection points: 2
#     Edge 14, Type (0, 0), BuildingBlock: AJUNOK_clean_linker_0, # of connection points: 2
#     Edge 15, Type (0, 0), BuildingBlock: AJUNOK_clean_linker_0, # of connection points: 2
#     Edge 16, Type (0, 0), BuildingBlock: AJUNOK_clean_linker_0, # of connection points: 2
#     Edge 17, Type (0, 0), BuildingBlock: AJUNOK_clean_linker_0, # of connection points: 2
#     Edge 18, Type (0, 0), BuildingBlock: AJUNOK_clean_linker_0, # of connection points: 2
#     Edge 19, Type (0, 0), BuildingBlock: AJUNOK_clean_linker_0, # of connection points: 2
#     Edge 20, Type (0, 0), BuildingBlock: AJUNOK_clean_linker_0, # of connection points: 2
#     Edge 21, Type (0, 0), BuildingBlock: AJUNOK_clean_linker_0, # of connection points: 2
#     Edge 22, Type (0, 0), BuildingBlock: AJUNOK_clean_linker_0, # of connection points: 2
#     Edge 23, Type (0, 0), BuildingBlock: AJUNOK_clean_linker_0, # of connection points: 2
#     Edge 24, Type (0, 0), BuildingBlock: AJUNOK_clean_linker_0, # of connection points: 2
#     Edge 25, Type (0, 0), BuildingBlock: AJUNOK_clean_linker_0, # of connection points: 2
#     Edge 26, Type (0, 0), BuildingBlock: AJUNOK_clean_linker_0, # of connection points: 2
#     Edge 27, Type (0, 0), BuildingBlock: AJUNOK_clean_linker_0, # of connection points: 2
# Relax obj value: 0.045
# Max RMSD: 0.119
# Mean RMSD: 0.110
data_MOF--net-fcu--node1-QEWDON_clean_sbu_0--edge1-AJUNOK_clean_linker_0
_symmetry_space_group_name_H-M    P1
_symmetry_Int_Tables_number       1
_symmetry_cell_setting            triclinic
loop_
_symmetry_equiv_pos_as_xyz
'x, y, z'
_cell_length_a     21.72997
_cell_length_b     22.029813
_cell_length_c     21.743628
_cell_angle_alpha  89.64223
_cell_angle_beta   90.260957
_cell_angle_gamma 88.94515
loop_
_atom_site_label
_atom_site_type_symbol
_atom_site_fract_x
_atom_site_fract_y
_atom_site_fract_z
_atom_type_partial_charge
Zn0 Zn 0.89207 0.87556 0.9634 0.0
Zn1 Zn 0.93101 0.87843 0.11148 0.0
O2 O 0.91716 0.93061 0.03447 0.0
H3 H 0.93436 0.97027 0.02826 0.0
C4 C 0.04089 0.8344 0.85358 0.0
O5 O -0.00982 0.8447 0.88476 0.0
Zn6 Zn 0.06024 0.11589 0.09806 0.0
Zn7 Zn 0.08293 0.09163 0.95085 0.0
O8 O 0.06084 0.05216 0.03201 0.0
H9 H 0.0369 0.0158 0.03493 0.0
Zn10 Zn 0.11222 0.91725 0.94309 0.0
O11 O 0.07066 0.90246 0.02495 0.0
Zn12 Zn 0.13393 0.9151 0.09258 0.0
H13 H 0.03595 0.87574 0.02646 0.0
Zn14 Zn 0.82977 0.08601 0.95693 0.0
O15 O 0.893 0.08891 0.02526 0.0
H16 H 0.93695 0.08893 0.01891 0.0
Zn17 Zn 0.84807 0.07664 0.10422 0.0
C18 C 0.89897 0.13649 0.85338 0.0
O19 O 0.93546 0.08983 0.86618 0.0
O20 O 0.90326 0.7859 0.98881 0.0
O21 O 0.91858 0.79087 0.0901 0.0
O22 O 0.09085 0.1833 0.95973 0.0
O23 O 0.08571 0.19731 0.06099 0.0
O24 O 0.20606 0.91446 0.95478 0.0
O25 O 0.21843 0.89867 0.05544 0.0
C26 C 0.85046 0.95935 0.17434 0.0
O27 O 0.74255 0.09727 0.99165 0.0
O28 O 0.75732 0.09684 0.09298 0.0
O29 O 0.14706 0.05032 0.89186 0.0
C30 C 0.91191 0.76019 0.04102 0.0
O31 O 0.83042 0.89955 0.8894 0.0
C32 C 0.1377 0.034 0.16881 0.0
O33 O 0.09026 0.86016 0.86989 0.0
C34 C 0.0936 0.21783 1.0064 0.0
O35 O 0.84975 0.14339 0.884 0.0
C36 C 0.05721 0.85101 0.17142 0.0
O37 O 0.87269 0.90586 0.17933 0.0
O38 O 0.86449 -0.00961 0.12749 0.0
C39 C 0.24042 0.90218 1.00098 0.0
O40 O 0.11595 0.08807 0.16972 0.0
O41 O 0.12547 0.00166 0.12216 0.0
C42 C 0.93862 0.1451 0.1674 0.0
O43 O 0.11461 0.85746 0.16312 0.0
O44 O 0.02055 0.88284 0.13779 0.0
C45 C 0.72196 0.10269 0.0462 0.0
O46 O 0.88193 0.13229 0.16866 0.0
O47 O 0.97231 0.11938 0.12723 0.0
C48 C 0.15348 0.07358 0.83861 0.0
O49 O 0.11999 0.12158 0.8233 0.0
C50 C 0.78426 0.93588 0.89367 0.0
O51 O 0.7736 0.96227 0.94668 0.0
Zn52 Zn 0.88622 0.44844 0.38847 0.0
Zn53 Zn 0.87506 0.59614 0.39963 0.0
O54 O 0.93437 0.52549 0.39703 0.0
H55 H 0.91575 0.48625 0.39316 0.0
C56 C 0.81993 0.39201 0.56998 0.0
O57 O 0.80369 0.44842 0.55702 0.0
Zn58 Zn 0.11051 0.5396 0.60868 0.0
Zn59 Zn 0.08956 0.39986 0.63648 0.0
O60 O 0.04461 0.48184 0.63131 0.0
H61 H 0.01213 0.49366 0.65915 0.0
Zn62 Zn 0.9174 0.45486 0.62922 0.0
O63 O 0.9228 0.52503 0.56916 0.0
Zn64 Zn 0.91629 0.59544 0.62573 0.0
H65 H 0.94565 0.52385 0.53116 0.0
Zn66 Zn 0.06999 0.4169 0.35616 0.0
O67 O 0.04876 0.48466 0.41567 0.0
H68 H 0.03447 0.47966 0.45738 0.0
Zn69 Zn 0.07448 0.56228 0.37484 0.0
C70 C 0.08165 0.31387 0.44534 0.0
O71 O 0.06532 0.35499 0.4859 0.0
O72 O 0.80633 0.4714 0.34401 0.0
O73 O 0.79339 0.57144 0.357 0.0
O74 O 0.18062 0.40916 0.66121 0.0
O75 O 0.19377 0.5048 0.63173 0.0
O76 O 0.88454 0.47846 0.7146 0.0
O77 O 0.86441 0.57674 0.70095 0.0
C78 C 0.96807 0.66217 0.33609 0.0
O79 O 0.13418 0.44443 0.29309 0.0
O80 O 0.12676 0.545 0.3004 0.0
O81 O 0.04345 0.32605 0.67362 0.0
C82 C 0.77579 0.52058 0.33526 0.0
O83 O 0.92602 0.3665 0.3582 0.0
C84 C 0.05016 0.63878 0.67319 0.0
O85 O 0.87055 0.38156 0.59779 0.0
C86 C 0.21486 0.45502 0.65426 0.0
O87 O 0.08412 0.32893 0.3889 0.0
C88 C 0.86695 0.6674 0.52257 0.0
O89 O 0.91121 0.66417 0.34961 0.0
O90 O 0.00031 0.61758 0.35678 0.0
C91 C 0.86065 0.5282 0.7329 0.0
O92 O 0.10199 0.61453 0.66091 0.0
O93 O 0.00275 0.61492 0.64998 0.0
C94 C 0.13935 0.5949 0.4888 0.0
O95 O 0.87912 0.66539 0.57984 0.0
O96 O 0.87501 0.61969 0.49043 0.0
C97 C 0.15013 0.4973 0.27624 0.0
O98 O 0.13224 0.60354 0.43142 0.0
O99 O 0.10411 0.5596 0.51796 0.0
C100 C -0.00246 0.33439 0.7087 0.0
O101 O 0.97981 0.39013 0.7214 0.0
C102 C 0.9547 0.36286 0.30741 0.0
O103 O 0.96455 0.41307 0.27632 0.0
Zn104 Zn 0.35837 0.87357 0.46678 0.0
Zn105 Zn 0.39172 0.86041 0.61641 0.0
O106 O 0.39988 0.91326 0.53991 0.0
H107 H 0.4282 0.94629 0.5367 0.0
C108 C 0.52805 0.82947 0.37998 0.0
O109 O 0.53678 0.8007 0.43253 0.0
Zn110 Zn 0.57732 0.0975 0.59836 0.0
Zn111 Zn 0.60499 0.09846 0.45233 0.0
O112 O 0.59258 0.04245 0.5262 0.0
H113 H 0.60356 -0.00018 0.52638 0.0
Zn114 Zn 0.57899 0.91535 0.45775 0.0
O115 O 0.53594 0.89463 0.53797 0.0
Zn116 Zn 0.60307 0.89175 0.60062 0.0
H117 H 0.50496 0.86382 0.53709 0.0
Zn118 Zn 0.34924 0.04954 0.42913 0.0
O119 O 0.40551 0.05366 0.50358 0.0
H120 H 0.44994 0.05097 0.50349 0.0
Zn121 Zn 0.35008 0.06526 0.57532 0.0
C122 C 0.42085 0.13056 0.35715 0.0
O123 O 0.4346 0.14735 0.41336 0.0
O124 O 0.32285 0.79241 0.49362 0.0
O125 O 0.34514 0.78401 0.59413 0.0
O126 O 0.63994 0.18006 0.48005 0.0
O127 O 0.62027 0.17602 0.58063 0.0
O128 O 0.66716 0.88002 0.4583 0.0
O129 O 0.68091 0.86169 0.55844 0.0
C130 C 0.32413 0.96065 0.66719 0.0
O131 O 0.26398 0.08822 0.44641 0.0
O132 O 0.26874 0.10306 0.5472 0.0
O133 O 0.64768 0.06147 0.37504 0.0
C134 C 0.3213 0.76375 0.54467 0.0
O135 O 0.31933 0.91966 0.38924 0.0
C136 C 0.63102 0.00778 0.68095 0.0
O137 O 0.53756 0.88612 0.37811 0.0
C138 C 0.64309 0.20239 0.5338 0.0
O139 O 0.38609 0.0854 0.34996 0.0
C140 C 0.52401 0.82155 0.68241 0.0
O141 O 0.33954 0.90595 0.67937 0.0
O142 O 0.34487 0.98428 0.61823 0.0
C143 C 0.6998 0.85994 0.50289 0.0
O144 O 0.61843 0.06418 0.67667 0.0
O145 O 0.61234 0.97468 0.63717 0.0
C146 C 0.44543 0.13253 0.64026 0.0
O147 O 0.57874 0.83565 0.6684 0.0
O148 O 0.47914 0.84192 0.64966 0.0
C149 C 0.24068 0.10914 0.49578 0.0
O150 O 0.38832 0.12281 0.63365 0.0
O151 O 0.48409 0.10497 0.60605 0.0
C152 C 0.70617 0.05821 0.37587 0.0
O153 O 0.73536 0.07692 0.4251 0.0
C154 C 0.26405 0.94011 0.38908 0.0
O155 O 0.23182 0.93556 0.43983 0.0
Zn156 Zn 0.44395 0.61061 0.04945 0.0
Zn157 Zn 0.44551 0.60657 0.90589 0.0
O158 O 0.42752 0.55489 0.97869 0.0
H159 H 0.39511 0.52561 0.98158 0.0
C160 C 0.5605 0.68901 0.15914 0.0
O161 O 0.55689 0.7119 0.10331 0.0
Zn162 Zn 0.56385 0.3836 0.90654 0.0
Zn163 Zn 0.5306 0.42786 0.04366 0.0
O164 O 0.52182 0.45276 0.95097 0.0
H165 H 0.51415 0.49285 0.93428 0.0
Zn166 Zn 0.62239 0.5884 0.09472 0.0
O167 O 0.57848 0.59936 0.01429 0.0
Zn168 Zn 0.64133 0.58135 0.95022 0.0
H169 H 0.54469 0.62804 0.00947 0.0
Zn170 Zn 0.39662 0.37794 0.05687 0.0
O171 O 0.4476 0.373 0.98008 0.0
H172 H 0.42639 0.37429 0.01896 0.0
Zn173 Zn 0.39663 0.39602 0.90867 0.0
C174 C 0.4486 0.30868 0.16356 0.0
O175 O 0.47982 0.3582 0.17333 0.0
O176 O 0.44097 0.70019 0.02263 0.0
O177 O 0.41747 0.69281 0.92332 0.0
O178 O 0.54382 0.3353 0.05819 0.0
O179 O 0.57504 0.31254 0.96394 0.0
O180 O 0.71647 0.58421 0.08636 0.0
O181 O 0.72652 0.58584 0.98481 0.0
C182 C 0.3968 0.51345 0.83066 0.0
O183 O 0.30492 0.38986 0.03659 0.0
O184 O 0.307 0.38536 0.93445 0.0
O185 O 0.59077 0.47165 0.10243 0.0
C186 C 0.42374 0.72454 0.97194 0.0
O187 O 0.381 0.59314 0.11696 0.0
C188 C 0.66335 0.46474 0.88992 0.0
O189 O 0.58614 0.63722 0.16715 0.0
C190 C 0.56359 0.29702 0.01915 0.0
O191 O 0.41159 0.30711 0.11836 0.0
C192 C 0.56971 0.64432 0.86871 0.0
O193 O 0.40758 0.57001 0.83106 0.0
O194 O 0.40989 0.48243 0.87885 0.0
C195 C 0.75017 0.5845 0.0386 0.0
O196 O 0.64732 0.41119 0.87697 0.0
O197 O 0.62828 0.49708 0.92298 0.0
C198 C 0.47031 0.32309 0.81672 0.0
O199 O 0.62676 0.64159 0.8812 0.0
O200 O 0.53537 0.60704 0.89601 0.0
C201 C 0.27717 0.38666 0.98503 0.0
O202 O 0.42019 0.33746 0.84351 0.0
O203 O 0.52233 0.34322 0.8336 0.0
C204 C 0.57907 0.48613 0.15783 0.0
O205 O 0.5225 0.48211 0.17825 0.0
C206 C 0.36689 0.53853 0.12814 0.0
O207 O 0.39803 0.4944 0.10154 0.0
C208 C 0.98532 0.24619 0.18279 0.0
C209 C 0.96081 0.19326 0.20832 0.0
C210 C 0.98782 0.30003 0.217 0.0
C211 C 0.96584 0.30273 0.27793 0.0
H212 H -0.00265 0.2476 0.13456 0.0
H213 H 0.00311 0.34073 0.19394 0.0
S214 S 0.9085 0.17218 0.36883 0.0
N215 N 0.92201 0.14398 0.29991 0.0
N216 N 0.92791 0.24424 0.36496 0.0
C217 C 0.94712 0.24812 0.30568 0.0
C218 C 0.9441 0.19365 0.27058 0.0
C219 C 0.84065 0.00062 0.27991 0.0
C220 C 0.81291 0.98578 0.22381 0.0
C221 C 0.80569 0.02423 0.32851 0.0
C222 C 0.74154 0.03371 0.32282 0.0
H223 H 0.88983 -0.00583 0.28619 0.0
H224 H 0.82932 0.03477 0.37098 0.0
S225 S 0.64781 0.00294 0.18339 0.0
N226 N 0.71863 0.98265 0.16399 0.0
N227 N 0.65225 0.02721 0.25499 0.0
C228 C 0.71347 0.0195 0.2662 0.0
C229 C 0.74937 -0.00438 0.21671 0.0
C230 C 0.06211 0.74489 0.21479 0.0
C231 C 0.03503 0.80357 0.21435 0.0
C232 C 0.04191 0.69948 0.25558 0.0
C233 C -0.00596 0.71134 0.29745 0.0
H234 H 0.09847 0.73369 0.18265 0.0
H235 H 0.0627 0.6545 0.25313 0.0
S236 S 0.91619 0.86046 0.32229 0.0
N237 N 0.9641 0.87294 0.265 0.0
N238 N 0.92489 0.78792 0.34024 0.0
C239 C 0.96855 0.77056 0.29903 0.0
C240 C -0.01067 0.81659 0.25787 0.0
C241 C 0.17462 -0.00851 0.33479 0.0
C242 C 0.23434 0.96542 0.3319 0.0
C243 C 0.14398 0.01336 0.28182 0.0
C244 C 0.17107 0.00902 0.22339 0.0
H245 H 0.15106 -0.00479 0.37843 0.0
H246 H 0.09828 0.03327 0.28657 0.0
S247 S 0.32833 0.95059 0.19034 0.0
N248 N 0.32092 0.94093 0.26528 0.0
N249 N 0.26237 0.98066 0.16584 0.0
C250 C 0.23089 0.98412 0.21955 0.0
C251 C 0.26275 0.9628 0.27371 0.0
C252 C -0.01099 0.75748 0.78603 0.0
C253 C 0.04257 0.78856 0.80329 0.0
C254 C -0.00896 0.71051 0.74234 0.0
C255 C 0.04683 0.69234 0.71471 0.0
H256 H 0.94528 0.7686 0.80728 0.0
H257 H 0.94894 0.68711 0.73162 0.0
S258 S 0.19952 0.7619 0.74025 0.0
N259 N 0.15239 0.8 0.78568 0.0
N260 N 0.1564 0.71159 0.70554 0.0
C261 C 0.10028 0.72437 0.73017 0.0
C262 C 0.09811 0.77245 0.77386 0.0
C263 C 0.25326 0.01997 0.81464 0.0
C264 C 0.19772 0.04715 0.79407 0.0
C265 C 0.29536 -0.00568 0.77291 0.0
C266 C 0.28314 -0.00551 0.70935 0.0
H267 H 0.26438 0.0187 0.86326 0.0
H268 H 0.33763 0.97383 0.79048 0.0
S269 S 0.14156 0.05378 0.63278 0.0
N270 N 0.13163 0.07009 0.70613 0.0
N271 N 0.20977 0.01977 0.6284 0.0
C272 C 0.22769 0.02096 0.68829 0.0
C273 C 0.18518 0.04777 0.73053 0.0
C274 C 0.00134 0.22723 0.74737 0.0
C275 C 0.96831 0.28228 0.73962 0.0
C276 C 0.97724 0.1794 0.78195 0.0
C277 C 0.9192 0.1846 0.81012 0.0
H278 H 0.04712 0.22166 0.72843 0.0
H279 H 0.00513 0.13858 0.7879 0.0
S280 S 0.80914 0.31481 0.79291 0.0
N281 N 0.87119 0.3363 0.7557 0.0
N282 N 0.82568 0.24638 0.82036 0.0
C283 C 0.88395 0.23796 0.79917 0.0
C284 C 0.90865 0.28683 0.76417 0.0
C285 C 0.66907 0.01995 0.78923 0.0
C286 C 0.66654 0.98421 0.7357 0.0
C287 C 0.7063 0.00332 0.83983 0.0
C288 C 0.74366 0.95042 0.83938 0.0
H289 H 0.64249 0.06193 0.79199 0.0
H290 H 0.70677 0.03321 0.87915 0.0
S291 S 0.75244 0.83904 0.71197 0.0
N292 N 0.70367 0.89194 0.68654 0.0
N293 N 0.77371 0.86067 0.78138 0.0
C294 C 0.74086 0.91343 0.78673 0.0
C295 C 0.70227 0.93019 0.73518 0.0
C296 C 0.18896 0.33788 0.93315 0.0
C297 C 0.21226 0.36721 0.98535 0.0
C298 C 0.1432 0.29446 0.93895 0.0
C299 C 0.11945 0.27904 0.99713 0.0
H300 H 0.21099 0.34277 0.88883 0.0
H301 H 0.13169 0.26837 0.89856 0.0
S302 S 0.14464 0.36336 0.14173 0.0
N303 N 0.1932 0.39334 0.09238 0.0
N304 N 0.10749 0.31094 0.10334 0.0
C305 C 0.13337 0.3168 0.04692 0.0
C306 C 0.17978 0.36134 0.04094 0.0
C307 C 0.38569 0.81315 0.03211 0.0
C308 C 0.39672 0.78669 0.97427 0.0
C309 C 0.33933 0.85719 0.03955 0.0
C310 C 0.30318 0.87716 0.98938 0.0
H311 H 0.40789 0.79514 0.07323 0.0
H312 H 0.32765 0.87056 0.08582 0.0
S313 S 0.3308 0.83899 0.82527 0.0
N314 N 0.38048 0.79578 0.86391 0.0
N315 N 0.29366 0.87945 0.87742 0.0
C316 C 0.32171 0.85927 0.92988 0.0
C317 C 0.36864 0.8138 0.92243 0.0
C318 C 0.61391 0.2259 0.09384 0.0
C319 C 0.5814 0.235 0.03848 0.0
C320 C 0.65331 0.17523 0.10136 0.0
C321 C 0.6612 0.13302 0.05341 0.0
H322 H 0.61491 0.26137 0.12812 0.0
H323 H 0.68346 0.17383 0.14118 0.0
S324 S 0.56737 0.12528 0.91094 0.0
N325 N 0.54544 0.18957 0.94361 0.0
N326 N 0.61922 0.09419 0.95781 0.0
C327 C 0.61984 0.13596 1.00355 0.0
C328 C 0.58007 0.18742 0.99586 0.0
C329 C 0.89 0.66182 0.99161 0.0
C330 C 0.90044 0.69453 0.04591 0.0
C331 C 0.84835 0.61435 0.99125 0.0
C332 C 0.81573 0.59983 0.04498 0.0
H333 H 0.90698 0.67814 0.94785 0.0
H334 H 0.83478 0.59613 0.94711 0.0
S335 S 0.85449 0.64839 0.20321 0.0
N336 N 0.89638 0.6915 0.15796 0.0
N337 N 0.8167 0.60291 0.15695 0.0
C338 C 0.83851 0.62093 0.10141 0.0
C339 C 0.88145 0.66884 0.10192 0.0
C340 C 0.7094 0.53545 0.81506 0.0
C341 C 0.71768 0.49079 0.86082 0.0
C342 C 0.75842 0.5527 0.7776 0.0
C343 C 0.81694 0.5251 0.78442 0.0
H344 H 0.66384 0.55385 0.80512 0.0
H345 H 0.749 0.58375 0.73972 0.0
S346 S 0.8648 0.4161 0.90697 0.0
N347 N 0.79014 0.42677 0.91785 0.0
N348 N 0.88267 0.45864 0.84698 0.0
C349 C 0.82688 0.48452 0.8338 0.0
C350 C 0.77698 0.46723 0.87205 0.0
C351 C 0.28302 0.42104 0.74035 0.0
C352 C 0.2746 0.45661 0.68692 0.0
C353 C 0.32645 0.43668 0.78497 0.0
C354 C 0.36346 0.48774 0.77751 0.0
H355 H 0.2519 0.38459 0.75095 0.0
H356 H 0.327 0.41151 0.82739 0.0
S357 S 0.37153 0.58477 0.63769 0.0
N358 N 0.31537 0.53739 0.62313 0.0
N359 N 0.39793 0.56588 0.7066 0.0
C360 C 0.36108 0.5186 0.72062 0.0
C361 C 0.31656 0.50307 0.67532 0.0
C362 C 0.21286 0.56086 0.20607 0.0
C363 C 0.20277 0.5042 0.23402 0.0
C364 C 0.26621 0.57143 0.17229 0.0
C365 C 0.3115 0.52566 0.16473 0.0
H366 H 0.17974 0.59786 0.21111 0.0
H367 H 0.2718 0.61595 0.15184 0.0
S368 S 0.30805 0.36944 0.22907 0.0
N369 N 0.24337 0.40184 0.25273 0.0
N370 N 0.34286 0.42144 0.18756 0.0
C371 C 0.30168 0.46843 0.19139 0.0
C372 C 0.24754 0.45776 0.22643 0.0
C373 C 0.61826 0.52786 0.25809 0.0
C374 C 0.63019 0.50015 0.20086 0.0
C375 C 0.66581 0.53782 0.30094 0.0
C376 C 0.72641 0.51861 0.2885 0.0
H377 H 0.57168 0.54111 0.27022 0.0
H378 H 0.65471 0.55819 0.34482 0.0
S379 S 0.78264 0.44399 0.14632 0.0
N380 N 0.70815 0.45459 0.13453 0.0
N381 N 0.79641 0.47197 0.21512 0.0
C382 C 0.73905 0.49162 0.2314 0.0
C383 C 0.69126 0.48256 0.18761 0.0
C384 C 0.22264 0.71756 0.57111 0.0
C385 C 0.28221 0.71062 0.54713 0.0
C386 C 0.17677 0.67602 0.55682 0.0
C387 C 0.18982 0.62604 0.51917 0.0
H388 H 0.2099 0.75841 0.59584 0.0
H389 H 0.12985 0.68628 0.57035 0.0
S390 S 0.33993 0.58554 0.44913 0.0
N391 N 0.35278 0.64906 0.48672 0.0
N392 N 0.26702 0.56953 0.46155 0.0
C393 C 0.25026 0.61652 0.49845 0.0
C394 C 0.29652 0.65928 0.51207 0.0
C395 C 0.11788 0.20853 0.42108 0.0
C396 C 0.10864 0.25444 0.46498 0.0
C397 C 0.15603 0.15799 0.43365 0.0
C398 C 0.18676 0.15145 0.49057 0.0
H399 H 0.09838 0.21335 0.3753 0.0
H400 H 0.1647 0.12603 0.39688 0.0
S401 S 0.16891 0.25339 0.62509 0.0
N402 N 0.12621 0.28569 0.57064 0.0
N403 N 0.19799 0.19099 0.59434 0.0
C404 C 0.17272 0.19378 0.53704 0.0
C405 C 0.13367 0.24527 0.52421 0.0
C406 C 0.79132 0.72289 0.45549 0.0
C407 C 0.84038 0.72451 0.49766 0.0
C408 C 0.74898 0.77168 0.45137 0.0
C409 C 0.75471 0.82265 0.48965 0.0
H410 H 0.78158 0.6815 0.43094 0.0
H411 H 0.70808 0.76644 0.42333 0.0
S412 S 0.88489 0.85569 0.59342 0.0
N413 N 0.90042 0.78707 0.5668 0.0
N414 N 0.81926 0.87729 0.56071 0.0
C415 C 0.80795 0.82809 0.52528 0.0
C416 C 0.85151 0.77929 0.52859 0.0
C417 C 0.68255 0.30576 0.51022 0.0
C418 C 0.68628 0.25158 0.54435 0.0
C419 C 0.72641 0.35101 0.51838 0.0
C420 C 0.77632 0.34244 0.55938 0.0
H421 H 0.64534 0.31334 0.47758 0.0
H422 H 0.72137 0.39279 0.49214 0.0
S423 S 0.80914 0.20476 0.65446 0.0
N424 N 0.74449 0.18997 0.61792 0.0
N425 N 0.82822 0.27347 0.63167 0.0
C426 C 0.78132 0.28723 0.5921 0.0
C427 C 0.73589 0.24217 0.585 0.0
C428 C 0.50313 0.27332 0.71821 0.0
C429 C 0.46955 0.2721 0.77339 0.0
C430 C 0.49952 0.22524 0.67609 0.0
C431 C 0.46339 0.17448 0.68903 0.0
H432 H 0.52995 0.31265 0.70641 0.0
H433 H 0.52185 0.22954 0.63193 0.0
S434 S 0.37645 0.14485 0.83205 0.0
N435 N 0.40568 0.21276 0.84192 0.0
N436 N 0.39988 0.12253 0.76359 0.0
C437 C 0.43362 0.17103 0.74602 0.0
C438 C 0.43645 0.21987 0.78809 0.0
C439 C 0.49348 0.72401 0.73227 0.0
C440 C 0.51646 0.78303 0.73745 0.0
C441 C 0.50713 0.67964 0.77757 0.0
C442 C 0.54443 0.69318 0.82865 0.0
H443 H 0.46966 0.71066 0.69076 0.0
H444 H 0.49274 0.6335 0.77004 0.0
S445 S 0.60632 0.84364 0.868 0.0
N446 N 0.57082 0.85459 0.80143 0.0
N447 N 0.59673 0.77142 0.88571 0.0
C448 C 0.56289 0.75324 0.83665 0.0
C449 C 0.54864 0.79819 0.79125 0.0
C450 C 0.54143 0.69708 0.27164 0.0
C451 C 0.54096 0.72493 0.21329 0.0
C452 C 0.53241 0.73088 0.32504 0.0
C453 C 0.52309 0.79419 0.32247 0.0
H454 H 0.5512 0.64898 0.2766 0.0
H455 H 0.53626 0.7073 0.36879 0.0
S456 S 0.50641 0.88775 0.18054 0.0
N457 N 0.52177 0.81853 0.15549 0.0
N458 N 0.50535 0.8824 0.25631 0.0
C459 C 0.51745 0.8221 0.26423 0.0
C460 C 0.52628 0.7874 0.20953 0.0
C461 C 0.46716 0.22489 0.31504 0.0
C462 C 0.43666 0.17007 0.30434 0.0
C463 C 0.47373 0.2682 0.26829 0.0
C464 C 0.44997 0.25844 0.20904 0.0
H465 H 0.48385 0.23586 0.36058 0.0
H466 H 0.49503 0.31079 0.27966 0.0
S467 S 0.37563 0.11815 0.15414 0.0
N468 N 0.38932 0.10526 0.22784 0.0
N469 N 0.40179 0.18668 0.13995 0.0
C470 C 0.42343 0.202 0.19642 0.0
C471 C 0.4168 0.15779 0.24405 0.0
loop_
_geom_bond_atom_site_label_1
_geom_bond_atom_site_label_2
_geom_bond_distance
_geom_bond_site_symmetry_2
_ccdc_geom_bond_type
Zn0 O2 1.933 1_556 S
Zn0 O20 1.985 . S
Zn0 O31 1.955 . S
Zn1 O2 1.911 . S
Zn1 O21 1.970 . S
Zn1 O37 1.945 . S
Zn1 O44 1.981 . S
O2 Zn0 1.933 1_554 S
O2 Zn1 1.911 . S
O2 H3 0.839 1_554 S
H3 O2 0.839 1_556 S
C4 O5 1.246 . S
C4 O33 1.276 1_655 S
O5 C4 1.246 . S
Zn6 O8 1.911 . S
Zn6 O23 1.970 . S
Zn6 O40 1.945 . S
Zn6 O47 1.981 . S
Zn7 O8 1.933 1_556 S
Zn7 O22 1.985 . S
Zn7 O29 1.955 . S
O8 Zn6 1.911 . S
O8 Zn7 1.933 1_554 S
O8 H9 0.839 1_554 S
H9 O8 0.839 1_556 S
Zn10 O11 1.933 1_556 S
Zn10 O24 1.985 . S
Zn10 O33 1.955 . S
O11 Zn10 1.933 1_554 S
O11 Zn12 1.911 . S
O11 H13 0.839 1_554 S
Zn12 O11 1.911 . S
Zn12 O25 1.970 . S
Zn12 O41 1.981 . S
Zn12 O43 1.945 . S
H13 O11 0.839 1_556 S
Zn14 O15 1.933 1_556 S
Zn14 O27 1.985 . S
Zn14 O35 1.955 . S
O15 Zn14 1.933 1_554 S
O15 H16 0.839 1_554 S
O15 Zn17 1.911 . S
H16 O15 0.839 1_556 S
Zn17 O15 1.911 . S
Zn17 O28 1.970 . S
Zn17 O38 1.981 . S
Zn17 O46 1.945 . S
C18 O19 1.246 . S
C18 O35 1.276 1_455 S
O19 C18 1.246 . S
O20 Zn0 1.985 . S
O20 C30 1.245 1_556 S
O21 Zn1 1.970 . S
O21 C30 1.263 . S
O22 Zn7 1.985 . S
O22 C34 1.245 1_556 S
O23 Zn6 1.970 . S
O23 C34 1.263 . S
O24 Zn10 1.985 . S
O24 C39 1.245 1_556 S
O25 Zn12 1.970 . S
O25 C39 1.263 . S
C26 O37 1.262 1_545 S
C26 O38 1.245 . S
O27 Zn14 1.985 . S
O27 C45 1.245 1_556 S
O28 Zn17 1.970 . S
O28 C45 1.263 . S
O29 Zn7 1.955 . S
O29 C48 1.276 1_545 S
C30 O20 1.245 1_554 S
C30 O21 1.263 . S
O31 Zn0 1.955 . S
O31 C50 1.276 1_565 S
C32 O40 1.262 . S
C32 O41 1.245 1_545 S
O33 C4 1.276 1_455 S
O33 Zn10 1.955 . S
C34 O22 1.245 1_554 S
C34 O23 1.263 . S
O35 Zn14 1.955 . S
O35 C18 1.276 1_655 S
C36 O43 1.268 . S
C36 O44 1.241 1_455 S
O37 Zn1 1.945 . S
O37 C26 1.262 1_565 S
O38 Zn17 1.981 . S
O38 C26 1.245 . S
C39 O24 1.245 1_554 S
C39 O25 1.263 . S
O40 Zn6 1.945 . S
O40 C32 1.262 . S
O41 Zn12 1.981 . S
O41 C32 1.245 1_565 S
C42 O46 1.263 1_455 S
C42 O47 1.244 . S
O43 Zn12 1.945 . S
O43 C36 1.268 . S
O44 Zn1 1.981 . S
O44 C36 1.241 1_655 S
C45 O27 1.245 1_554 S
C45 O28 1.263 . S
O46 Zn17 1.945 . S
O46 C42 1.263 1_655 S
O47 Zn6 1.981 . S
O47 C42 1.244 . S
C48 O29 1.276 1_565 S
C48 O49 1.246 . S
O49 C48 1.246 . S
C50 O31 1.276 1_545 S
C50 O51 1.246 . S
O51 C50 1.246 . S
Zn52 O54 1.933 . S
Zn52 O72 1.985 . S
Zn52 O83 1.955 . S
Zn53 O54 1.911 . S
Zn53 O73 1.970 . S
Zn53 O89 1.945 . S
Zn53 O96 1.981 . S
O54 Zn52 1.933 . S
O54 Zn53 1.911 . S
O54 H55 0.841 . S
H55 O54 0.841 . S
C56 O57 1.246 . S
C56 O85 1.276 . S
O57 C56 1.246 . S
Zn58 O60 1.911 . S
Zn58 O75 1.970 . S
Zn58 O92 1.945 . S
Zn58 O99 1.981 . S
Zn59 O60 1.933 . S
Zn59 O74 1.985 . S
Zn59 O81 1.955 . S
O60 Zn58 1.911 . S
O60 Zn59 1.933 . S
O60 H61 0.841 . S
H61 O60 0.841 . S
Zn62 O63 1.933 . S
Zn62 O76 1.985 . S
Zn62 O85 1.955 . S
O63 Zn62 1.933 . S
O63 Zn64 1.911 . S
O63 H65 0.841 . S
Zn64 O63 1.911 . S
Zn64 O77 1.970 . S
Zn64 O93 1.981 . S
Zn64 O95 1.945 . S
H65 O63 0.841 . S
Zn66 O67 1.933 . S
Zn66 O79 1.985 . S
Zn66 O87 1.955 . S
O67 Zn66 1.933 . S
O67 H68 0.841 . S
O67 Zn69 1.911 . S
H68 O67 0.841 . S
Zn69 O67 1.911 . S
Zn69 O80 1.970 . S
Zn69 O90 1.981 . S
Zn69 O98 1.945 . S
C70 O71 1.246 . S
C70 O87 1.276 . S
O71 C70 1.246 . S
O72 Zn52 1.985 . S
O72 C82 1.245 . S
O73 Zn53 1.970 . S
O73 C82 1.263 . S
O74 Zn59 1.985 . S
O74 C86 1.245 . S
O75 Zn58 1.970 . S
O75 C86 1.263 . S
O76 Zn62 1.985 . S
O76 C91 1.245 . S
O77 Zn64 1.970 . S
O77 C91 1.263 . S
C78 O89 1.262 . S
C78 O90 1.245 1_655 S
O79 Zn66 1.985 . S
O79 C97 1.245 . S
O80 Zn69 1.970 . S
O80 C97 1.263 . S
O81 Zn59 1.955 . S
O81 C100 1.276 1_455 S
C82 O72 1.245 . S
C82 O73 1.263 . S
O83 Zn52 1.955 . S
O83 C102 1.276 1_655 S
C84 O92 1.268 . S
C84 O93 1.242 1_455 S
O85 C56 1.276 . S
O85 Zn62 1.955 . S
C86 O74 1.245 . S
C86 O75 1.263 . S
O87 Zn66 1.955 . S
O87 C70 1.276 . S
C88 O95 1.262 . S
C88 O96 1.245 . S
O89 Zn53 1.945 . S
O89 C78 1.262 . S
O90 Zn69 1.981 . S
O90 C78 1.245 1_455 S
C91 O76 1.245 . S
C91 O77 1.263 . S
O92 Zn58 1.945 . S
O92 C84 1.268 . S
O93 Zn64 1.981 . S
O93 C84 1.242 1_655 S
C94 O98 1.262 . S
C94 O99 1.245 . S
O95 Zn64 1.945 . S
O95 C88 1.262 . S
O96 Zn53 1.981 . S
O96 C88 1.245 . S
C97 O79 1.245 . S
C97 O80 1.263 . S
O98 Zn69 1.945 . S
O98 C94 1.262 . S
O99 Zn58 1.981 . S
O99 C94 1.245 . S
C100 O81 1.276 1_655 S
C100 O101 1.246 . S
O101 C100 1.246 . S
C102 O83 1.276 1_455 S
C102 O103 1.246 . S
O103 C102 1.246 . S
Zn104 O106 1.933 . S
Zn104 O124 1.985 . S
Zn104 O135 1.955 . S
Zn105 O106 1.911 . S
Zn105 O125 1.970 . S
Zn105 O141 1.945 . S
Zn105 O148 1.981 . S
O106 Zn104 1.933 . S
O106 Zn105 1.911 . S
O106 H107 0.841 . S
H107 O106 0.841 . S
C108 O109 1.246 . S
C108 O137 1.276 . S
O109 C108 1.246 . S
Zn110 O112 1.911 . S
Zn110 O127 1.970 . S
Zn110 O144 1.945 . S
Zn110 O151 1.981 . S
Zn111 O112 1.933 . S
Zn111 O126 1.985 . S
Zn111 O133 1.955 . S
O112 Zn110 1.911 . S
O112 Zn111 1.933 . S
O112 H113 0.841 . S
H113 O112 0.841 . S
Zn114 O115 1.933 . S
Zn114 O128 1.985 . S
Zn114 O137 1.955 . S
O115 Zn114 1.933 . S
O115 Zn116 1.911 . S
O115 H117 0.841 . S
Zn116 O115 1.911 . S
Zn116 O129 1.970 . S
Zn116 O145 1.981 . S
Zn116 O147 1.945 . S
H117 O115 0.841 . S
Zn118 O119 1.933 . S
Zn118 O131 1.985 . S
Zn118 O139 1.955 . S
O119 Zn118 1.933 . S
O119 H120 0.841 . S
O119 Zn121 1.911 . S
H120 O119 0.841 . S
Zn121 O119 1.911 . S
Zn121 O132 1.970 . S
Zn121 O142 1.981 . S
Zn121 O150 1.945 . S
C122 O123 1.246 . S
C122 O139 1.276 . S
O123 C122 1.246 . S
O124 Zn104 1.985 . S
O124 C134 1.245 . S
O125 Zn105 1.970 . S
O125 C134 1.263 . S
O126 Zn111 1.985 . S
O126 C138 1.245 . S
O127 Zn110 1.970 . S
O127 C138 1.263 . S
O128 Zn114 1.985 . S
O128 C143 1.245 . S
O129 Zn116 1.970 . S
O129 C143 1.263 . S
C130 O141 1.262 1_545 S
C130 O142 1.245 . S
O131 Zn118 1.985 . S
O131 C149 1.245 . S
O132 Zn121 1.970 . S
O132 C149 1.263 . S
O133 Zn111 1.955 . S
O133 C152 1.276 1_545 S
C134 O124 1.245 . S
C134 O125 1.263 . S
O135 Zn104 1.955 . S
O135 C154 1.276 1_565 S
C136 O144 1.262 . S
C136 O145 1.245 1_545 S
O137 C108 1.276 . S
O137 Zn114 1.955 . S
C138 O126 1.245 . S
C138 O127 1.263 . S
O139 Zn118 1.955 . S
O139 C122 1.276 . S
C140 O147 1.262 . S
C140 O148 1.245 . S
O141 Zn105 1.945 . S
O141 C130 1.262 1_565 S
O142 Zn121 1.981 . S
O142 C130 1.245 . S
C143 O128 1.245 . S
C143 O129 1.263 . S
O144 Zn110 1.945 . S
O144 C136 1.262 . S
O145 Zn116 1.981 . S
O145 C136 1.245 1_565 S
C146 O150 1.262 . S
C146 O151 1.245 . S
O147 Zn116 1.945 . S
O147 C140 1.262 . S
O148 Zn105 1.981 . S
O148 C140 1.245 . S
C149 O131 1.245 . S
C149 O132 1.263 . S
O150 Zn121 1.945 . S
O150 C146 1.262 . S
O151 Zn110 1.981 . S
O151 C146 1.245 . S
C152 O133 1.276 1_565 S
C152 O153 1.246 . S
O153 C152 1.246 . S
C154 O135 1.276 1_545 S
C154 O155 1.246 . S
O155 C154 1.246 . S
Zn156 O158 1.928 1_554 S
Zn156 O176 1.985 . S
Zn156 O187 1.955 . S
Zn157 O158 1.916 . S
Zn157 O177 1.970 . S
Zn157 O193 1.945 . S
Zn157 O200 1.981 . S
O158 Zn156 1.928 1_556 S
O158 Zn157 1.916 . S
O158 H159 0.840 1_556 S
H159 O158 0.840 1_554 S
C160 O161 1.246 . S
C160 O189 1.276 . S
O161 C160 1.246 . S
Zn162 O164 1.917 . S
Zn162 O179 1.970 . S
Zn162 O196 1.945 . S
Zn162 O203 1.981 . S
Zn163 O164 1.927 1_554 S
Zn163 O178 1.985 . S
Zn163 O185 1.955 . S
O164 Zn162 1.917 . S
O164 Zn163 1.927 1_556 S
O164 H165 0.840 1_556 S
H165 O164 0.840 1_554 S
Zn166 O167 1.927 1_554 S
Zn166 O180 1.985 . S
Zn166 O189 1.955 . S
O167 Zn166 1.927 1_556 S
O167 Zn168 1.917 . S
O167 H169 0.840 1_556 S
Zn168 O167 1.917 . S
Zn168 O181 1.970 . S
Zn168 O197 1.981 . S
Zn168 O199 1.945 . S
H169 O167 0.840 1_554 S
Zn170 O171 1.928 1_554 S
Zn170 O183 1.985 . S
Zn170 O191 1.955 . S
O171 Zn170 1.928 1_556 S
O171 H172 0.840 1_556 S
O171 Zn173 1.917 . S
H172 O171 0.840 1_554 S
Zn173 O171 1.917 . S
Zn173 O184 1.970 . S
Zn173 O194 1.981 . S
Zn173 O202 1.945 . S
C174 O175 1.246 . S
C174 O191 1.276 . S
O175 C174 1.246 . S
O176 Zn156 1.985 . S
O176 C186 1.245 . S
O177 Zn157 1.970 . S
O177 C186 1.263 1_556 S
O178 Zn163 1.985 . S
O178 C190 1.245 . S
O179 Zn162 1.970 . S
O179 C190 1.263 1_556 S
O180 Zn166 1.985 . S
O180 C195 1.245 . S
O181 Zn168 1.970 . S
O181 C195 1.263 1_556 S
C182 O193 1.262 . S
C182 O194 1.245 . S
O183 Zn170 1.985 . S
O183 C201 1.245 . S
O184 Zn173 1.970 . S
O184 C201 1.263 1_556 S
O185 Zn163 1.955 . S
O185 C204 1.276 . S
C186 O176 1.245 . S
C186 O177 1.263 1_554 S
O187 Zn156 1.955 . S
O187 C206 1.276 . S
C188 O196 1.262 . S
C188 O197 1.245 . S
O189 C160 1.276 . S
O189 Zn166 1.955 . S
C190 O178 1.245 . S
C190 O179 1.263 1_554 S
O191 Zn170 1.955 . S
O191 C174 1.276 . S
C192 O199 1.262 . S
C192 O200 1.245 . S
O193 Zn157 1.945 . S
O193 C182 1.262 . S
O194 Zn173 1.981 . S
O194 C182 1.245 . S
C195 O180 1.245 . S
C195 O181 1.263 1_554 S
O196 Zn162 1.945 . S
O196 C188 1.262 . S
O197 Zn168 1.981 . S
O197 C188 1.245 . S
C198 O202 1.262 . S
C198 O203 1.245 . S
O199 Zn168 1.945 . S
O199 C192 1.262 . S
O200 Zn157 1.981 . S
O200 C192 1.245 . S
C201 O183 1.245 . S
C201 O184 1.263 1_554 S
O202 Zn173 1.945 . S
O202 C198 1.262 . S
O203 Zn162 1.981 . S
O203 C198 1.245 . S
C204 O185 1.276 . S
C204 O205 1.246 . S
O205 C204 1.246 . S
C206 O187 1.276 . S
C206 O207 1.246 . S
O207 C206 1.246 . S
C208 C209 1.369 . S
C208 C210 1.419 . S
C208 H212 0.930 . S
C209 C208 1.369 . S
C209 C218 1.429 1_455 S
C210 C208 1.419 . S
C210 C211 1.363 . S
C210 H213 0.929 . S
C211 C210 1.363 . S
C211 C217 1.428 1_455 S
H212 C208 0.930 . S
H213 C210 0.929 . S
S214 N215 1.613 . S
S214 N216 1.610 . S
N215 S214 1.613 . S
N215 C218 1.350 . S
N216 S214 1.610 . S
N216 C217 1.351 . S
C217 C211 1.428 1_655 S
C217 N216 1.351 . S
C217 C218 1.434 . S
C218 C209 1.429 1_655 S
C218 N215 1.350 . S
C218 C217 1.434 . S
C219 C220 1.369 1_565 S
C219 C221 1.419 . S
C219 H223 0.930 . S
C220 C219 1.369 1_545 S
C220 C229 1.429 . S
C221 C219 1.419 . S
C221 C222 1.363 . S
C221 H224 0.929 . S
C222 C221 1.363 . S
C222 C228 1.428 1_565 S
H223 C219 0.930 . S
H224 C221 0.929 . S
S225 N226 1.613 . S
S225 N227 1.610 . S
N226 S225 1.613 . S
N226 C229 1.350 . S
N227 S225 1.610 . S
N227 C228 1.351 . S
C228 C222 1.428 1_545 S
C228 N227 1.351 . S
C228 C229 1.434 . S
C229 C220 1.429 . S
C229 N226 1.350 . S
C229 C228 1.434 . S
C230 C231 1.369 . S
C230 C232 1.419 . S
C230 H234 0.930 . S
C231 C230 1.369 . S
C231 C240 1.429 1_655 S
C232 C230 1.419 . S
C232 C233 1.363 1_655 S
C232 H235 0.929 . S
C233 C232 1.363 1_455 S
C233 C239 1.428 . S
H234 C230 0.930 . S
H235 C232 0.929 . S
S236 N237 1.613 . S
S236 N238 1.610 . S
N237 S236 1.613 . S
N237 C240 1.350 . S
N238 S236 1.610 . S
N238 C239 1.351 . S
C239 C233 1.428 . S
C239 N238 1.351 . S
C239 C240 1.434 . S
C240 C231 1.429 1_455 S
C240 N237 1.350 . S
C240 C239 1.434 . S
C241 C242 1.369 . S
C241 C243 1.419 1_545 S
C241 H245 0.930 . S
C242 C241 1.369 . S
C242 C251 1.429 . S
C243 C241 1.419 1_565 S
C243 C244 1.363 . S
C243 H246 0.929 . S
C244 C243 1.363 . S
C244 C250 1.428 1_565 S
H245 C241 0.930 . S
H246 C243 0.929 . S
S247 N248 1.613 . S
S247 N249 1.610 . S
N248 S247 1.613 . S
N248 C251 1.350 . S
N249 S247 1.610 . S
N249 C250 1.351 . S
C250 C244 1.428 1_545 S
C250 N249 1.351 . S
C250 C251 1.434 . S
C251 C242 1.429 . S
C251 N248 1.350 . S
C251 C250 1.434 . S
C252 C253 1.369 . S
C252 C254 1.419 . S
C252 H256 0.930 . S
C253 C252 1.369 . S
C253 C262 1.429 1_655 S
C254 C252 1.419 . S
C254 C255 1.363 . S
C254 H257 0.929 . S
C255 C254 1.363 . S
C255 C261 1.428 1_655 S
H256 C252 0.930 . S
H257 C254 0.929 . S
S258 N259 1.613 . S
S258 N260 1.610 . S
N259 S258 1.613 . S
N259 C262 1.350 . S
N260 S258 1.610 . S
N260 C261 1.351 . S
C261 C255 1.428 1_455 S
C261 N260 1.351 . S
C261 C262 1.434 . S
C262 C253 1.429 1_455 S
C262 N259 1.350 . S
C262 C261 1.434 . S
C263 C264 1.369 1_545 S
C263 C265 1.419 . S
C263 H267 0.930 . S
C264 C263 1.369 1_565 S
C264 C273 1.429 . S
C265 C263 1.419 . S
C265 C266 1.363 . S
C265 H268 0.929 . S
C266 C265 1.363 . S
C266 C272 1.428 1_545 S
H267 C263 0.930 . S
H268 C265 0.929 . S
S269 N270 1.613 . S
S269 N271 1.610 . S
N270 S269 1.613 . S
N270 C273 1.350 . S
N271 S269 1.610 . S
N271 C272 1.351 . S
C272 C266 1.428 1_565 S
C272 N271 1.351 . S
C272 C273 1.434 . S
C273 C264 1.429 . S
C273 N270 1.350 . S
C273 C272 1.434 . S
C274 C275 1.369 1_455 S
C274 C276 1.419 . S
C274 H278 0.930 . S
C275 C274 1.369 1_655 S
C275 C284 1.429 . S
C276 C274 1.419 . S
C276 C277 1.363 . S
C276 H279 0.929 . S
C277 C276 1.363 . S
C277 C283 1.428 1_455 S
H278 C274 0.930 . S
H279 C276 0.929 . S
S280 N281 1.613 . S
S280 N282 1.610 . S
N281 S280 1.613 . S
N281 C284 1.350 . S
N282 S280 1.610 . S
N282 C283 1.351 . S
C283 C277 1.428 1_655 S
C283 N282 1.351 . S
C283 C284 1.434 . S
C284 C275 1.429 . S
C284 N281 1.350 . S
C284 C283 1.434 . S
C285 C286 1.369 1_545 S
C285 C287 1.419 . S
C285 H289 0.930 . S
C286 C285 1.369 1_565 S
C286 C295 1.429 . S
C287 C285 1.419 . S
C287 C288 1.363 . S
C287 H290 0.929 . S
C288 C287 1.363 . S
C288 C294 1.428 1_545 S
H289 C285 0.930 . S
H290 C287 0.929 . S
S291 N292 1.613 . S
S291 N293 1.610 . S
N292 S291 1.613 . S
N292 C295 1.350 . S
N293 S291 1.610 . S
N293 C294 1.351 . S
C294 C288 1.428 1_565 S
C294 N293 1.351 . S
C294 C295 1.434 . S
C295 C286 1.429 . S
C295 N292 1.350 . S
C295 C294 1.434 . S
C296 C297 1.369 1_556 S
C296 C298 1.419 . S
C296 H300 0.930 . S
C297 C296 1.369 1_554 S
C297 C306 1.429 . S
C298 C296 1.419 . S
C298 C299 1.363 1_556 S
C298 H301 0.929 . S
C299 C298 1.363 1_554 S
C299 C305 1.428 . S
H300 C296 0.930 . S
H301 C298 0.929 . S
S302 N303 1.613 . S
S302 N304 1.610 . S
N303 S302 1.613 . S
N303 C306 1.350 . S
N304 S302 1.610 . S
N304 C305 1.351 . S
C305 C299 1.428 . S
C305 N304 1.351 . S
C305 C306 1.434 . S
C306 C297 1.429 . S
C306 N303 1.350 . S
C306 C305 1.434 . S
C307 C308 1.372 . S
C307 C309 1.419 . S
C307 H311 0.930 . S
C308 C307 1.372 . S
C308 C317 1.426 1_554 S
C309 C307 1.419 . S
C309 C310 1.363 . S
C309 H312 0.929 . S
C310 C309 1.363 . S
C310 C316 1.428 1_554 S
H311 C307 0.930 . S
H312 C309 0.929 . S
S313 N314 1.613 . S
S313 N315 1.610 . S
N314 S313 1.613 . S
N314 C317 1.350 . S
N315 S313 1.610 . S
N315 C316 1.351 . S
C316 C310 1.428 1_556 S
C316 N315 1.351 . S
C316 C317 1.434 . S
C317 C308 1.426 1_556 S
C317 N314 1.350 . S
C317 C316 1.434 . S
C318 C319 1.376 . S
C318 C320 1.419 . S
C318 H322 0.930 . S
C319 C318 1.376 . S
C319 C328 1.422 1_554 S
C320 C318 1.419 . S
C320 C321 1.363 . S
C320 H323 0.929 . S
C321 C320 1.363 . S
C321 C327 1.428 1_554 S
H322 C318 0.930 . S
H323 C320 0.929 . S
S324 N325 1.613 . S
S324 N326 1.610 . S
N325 S324 1.613 . S
N325 C328 1.350 . S
N326 S324 1.610 . S
N326 C327 1.351 . S
C327 C321 1.428 1_556 S
C327 N326 1.351 . S
C327 C328 1.434 . S
C328 C319 1.422 1_556 S
C328 N325 1.350 . S
C328 C327 1.434 . S
C329 C330 1.369 1_556 S
C329 C331 1.419 . S
C329 H333 0.930 . S
C330 C329 1.369 1_554 S
C330 C339 1.429 . S
C331 C329 1.419 . S
C331 C332 1.363 1_556 S
C331 H334 0.929 . S
C332 C331 1.363 1_554 S
C332 C338 1.428 . S
H333 C329 0.930 . S
H334 C331 0.929 . S
S335 N336 1.613 . S
S335 N337 1.610 . S
N336 S335 1.613 . S
N336 C339 1.350 . S
N337 S335 1.610 . S
N337 C338 1.351 . S
C338 C332 1.428 . S
C338 N337 1.351 . S
C338 C339 1.434 . S
C339 C330 1.429 . S
C339 N336 1.350 . S
C339 C338 1.434 . S
C340 C341 1.369 . S
C340 C342 1.419 . S
C340 H344 0.930 . S
C341 C340 1.369 . S
C341 C350 1.429 . S
C342 C340 1.419 . S
C342 C343 1.363 . S
C342 H345 0.929 . S
C343 C342 1.363 . S
C343 C349 1.428 . S
H344 C340 0.930 . S
H345 C342 0.929 . S
S346 N347 1.613 . S
S346 N348 1.610 . S
N347 S346 1.613 . S
N347 C350 1.350 . S
N348 S346 1.610 . S
N348 C349 1.351 . S
C349 C343 1.428 . S
C349 N348 1.351 . S
C349 C350 1.434 . S
C350 C341 1.429 . S
C350 N347 1.350 . S
C350 C349 1.434 . S
C351 C352 1.369 . S
C351 C353 1.419 . S
C351 H355 0.930 . S
C352 C351 1.369 . S
C352 C361 1.429 . S
C353 C351 1.419 . S
C353 C354 1.363 . S
C353 H356 0.929 . S
C354 C353 1.363 . S
C354 C360 1.428 . S
H355 C351 0.930 . S
H356 C353 0.929 . S
S357 N358 1.613 . S
S357 N359 1.610 . S
N358 S357 1.613 . S
N358 C361 1.350 . S
N359 S357 1.610 . S
N359 C360 1.351 . S
C360 C354 1.428 . S
C360 N359 1.351 . S
C360 C361 1.434 . S
C361 C352 1.429 . S
C361 N358 1.350 . S
C361 C360 1.434 . S
C362 C363 1.369 . S
C362 C364 1.419 . S
C362 H366 0.930 . S
C363 C362 1.369 . S
C363 C372 1.429 . S
C364 C362 1.419 . S
C364 C365 1.363 . S
C364 H367 0.929 . S
C365 C364 1.363 . S
C365 C371 1.428 . S
H366 C362 0.930 . S
H367 C364 0.929 . S
S368 N369 1.613 . S
S368 N370 1.610 . S
N369 S368 1.613 . S
N369 C372 1.350 . S
N370 S368 1.610 . S
N370 C371 1.351 . S
C371 C365 1.428 . S
C371 N370 1.351 . S
C371 C372 1.434 . S
C372 C363 1.429 . S
C372 N369 1.350 . S
C372 C371 1.434 . S
C373 C374 1.369 . S
C373 C375 1.419 . S
C373 H377 0.930 . S
C374 C373 1.369 . S
C374 C383 1.429 . S
C375 C373 1.419 . S
C375 C376 1.363 . S
C375 H378 0.929 . S
C376 C375 1.363 . S
C376 C382 1.428 . S
H377 C373 0.930 . S
H378 C375 0.929 . S
S379 N380 1.613 . S
S379 N381 1.610 . S
N380 S379 1.613 . S
N380 C383 1.350 . S
N381 S379 1.610 . S
N381 C382 1.351 . S
C382 C376 1.428 . S
C382 N381 1.351 . S
C382 C383 1.434 . S
C383 C374 1.429 . S
C383 N380 1.350 . S
C383 C382 1.434 . S
C384 C385 1.369 . S
C384 C386 1.419 . S
C384 H388 0.930 . S
C385 C384 1.369 . S
C385 C394 1.429 . S
C386 C384 1.419 . S
C386 C387 1.363 . S
C386 H389 0.929 . S
C387 C386 1.363 . S
C387 C393 1.428 . S
H388 C384 0.930 . S
H389 C386 0.929 . S
S390 N391 1.613 . S
S390 N392 1.610 . S
N391 S390 1.613 . S
N391 C394 1.350 . S
N392 S390 1.610 . S
N392 C393 1.351 . S
C393 C387 1.428 . S
C393 N392 1.351 . S
C393 C394 1.434 . S
C394 C385 1.429 . S
C394 N391 1.350 . S
C394 C393 1.434 . S
C395 C396 1.369 . S
C395 C397 1.419 . S
C395 H399 0.930 . S
C396 C395 1.369 . S
C396 C405 1.429 . S
C397 C395 1.419 . S
C397 C398 1.363 . S
C397 H400 0.929 . S
C398 C397 1.363 . S
C398 C404 1.428 . S
H399 C395 0.930 . S
H400 C397 0.929 . S
S401 N402 1.613 . S
S401 N403 1.610 . S
N402 S401 1.613 . S
N402 C405 1.350 . S
N403 S401 1.610 . S
N403 C404 1.351 . S
C404 C398 1.428 . S
C404 N403 1.351 . S
C404 C405 1.434 . S
C405 C396 1.429 . S
C405 N402 1.350 . S
C405 C404 1.434 . S
C406 C407 1.369 . S
C406 C408 1.419 . S
C406 H410 0.930 . S
C407 C406 1.369 . S
C407 C416 1.429 . S
C408 C406 1.419 . S
C408 C409 1.363 . S
C408 H411 0.929 . S
C409 C408 1.363 . S
C409 C415 1.428 . S
H410 C406 0.930 . S
H411 C408 0.929 . S
S412 N413 1.613 . S
S412 N414 1.610 . S
N413 S412 1.613 . S
N413 C416 1.350 . S
N414 S412 1.610 . S
N414 C415 1.351 . S
C415 C409 1.428 . S
C415 N414 1.351 . S
C415 C416 1.434 . S
C416 C407 1.429 . S
C416 N413 1.350 . S
C416 C415 1.434 . S
C417 C418 1.369 . S
C417 C419 1.419 . S
C417 H421 0.930 . S
C418 C417 1.369 . S
C418 C427 1.429 . S
C419 C417 1.419 . S
C419 C420 1.363 . S
C419 H422 0.929 . S
C420 C419 1.363 . S
C420 C426 1.428 . S
H421 C417 0.930 . S
H422 C419 0.929 . S
S423 N424 1.613 . S
S423 N425 1.610 . S
N424 S423 1.613 . S
N424 C427 1.350 . S
N425 S423 1.610 . S
N425 C426 1.351 . S
C426 C420 1.428 . S
C426 N425 1.351 . S
C426 C427 1.434 . S
C427 C418 1.429 . S
C427 N424 1.350 . S
C427 C426 1.434 . S
C428 C429 1.369 . S
C428 C430 1.419 . S
C428 H432 0.930 . S
C429 C428 1.369 . S
C429 C438 1.429 . S
C430 C428 1.419 . S
C430 C431 1.363 . S
C430 H433 0.929 . S
C431 C430 1.363 . S
C431 C437 1.428 . S
H432 C428 0.930 . S
H433 C430 0.929 . S
S434 N435 1.613 . S
S434 N436 1.610 . S
N435 S434 1.613 . S
N435 C438 1.350 . S
N436 S434 1.610 . S
N436 C437 1.351 . S
C437 C431 1.428 . S
C437 N436 1.351 . S
C437 C438 1.434 . S
C438 C429 1.429 . S
C438 N435 1.350 . S
C438 C437 1.434 . S
C439 C440 1.369 . S
C439 C441 1.419 . S
C439 H443 0.930 . S
C440 C439 1.369 . S
C440 C449 1.429 . S
C441 C439 1.419 . S
C441 C442 1.363 . S
C441 H444 0.929 . S
C442 C441 1.363 . S
C442 C448 1.428 . S
H443 C439 0.930 . S
H444 C441 0.929 . S
S445 N446 1.613 . S
S445 N447 1.610 . S
N446 S445 1.613 . S
N446 C449 1.350 . S
N447 S445 1.610 . S
N447 C448 1.351 . S
C448 C442 1.428 . S
C448 N447 1.351 . S
C448 C449 1.434 . S
C449 C440 1.429 . S
C449 N446 1.350 . S
C449 C448 1.434 . S
C450 C451 1.369 . S
C450 C452 1.419 . S
C450 H454 0.930 . S
C451 C450 1.369 . S
C451 C460 1.429 . S
C452 C450 1.419 . S
C452 C453 1.363 . S
C452 H455 0.929 . S
C453 C452 1.363 . S
C453 C459 1.428 . S
H454 C450 0.930 . S
H455 C452 0.929 . S
S456 N457 1.613 . S
S456 N458 1.610 . S
N457 S456 1.613 . S
N457 C460 1.350 . S
N458 S456 1.610 . S
N458 C459 1.351 . S
C459 C453 1.428 . S
C459 N458 1.351 . S
C459 C460 1.434 . S
C460 C451 1.429 . S
C460 N457 1.350 . S
C460 C459 1.434 . S
C461 C462 1.369 . S
C461 C463 1.419 . S
C461 H465 0.930 . S
C462 C461 1.369 . S
C462 C471 1.429 . S
C463 C461 1.419 . S
C463 C464 1.363 . S
C463 H466 0.929 . S
C464 C463 1.363 . S
C464 C470 1.428 . S
H465 C461 0.930 . S
H466 C463 0.929 . S
S467 N468 1.613 . S
S467 N469 1.610 . S
N468 S467 1.613 . S
N468 C471 1.350 . S
N469 S467 1.610 . S
N469 C470 1.351 . S
C470 C464 1.428 . S
C470 N469 1.351 . S
C470 C471 1.434 . S
C471 C462 1.429 . S
C471 N468 1.350 . S
C471 C470 1.434 . S
C209 C42 1.844 . S
C211 C102 1.789 . S
C220 C26 1.736 . S
C222 C152 1.715 . S
C231 C36 1.742 1_655 S
C233 C78 1.730 1_455 S
C242 C154 1.727 . S
C244 C32 1.734 1_565 S
C253 C4 1.782 . S
C255 C84 1.804 1_655 S
C264 C48 1.714 . S
C266 C130 1.721 . S
C275 C100 1.850 . S
C277 C18 1.864 . S
C286 C136 1.734 1_565 S
C288 C50 1.713 . S
C297 C201 0.776 . S
C299 C34 0.779 . S
C308 C186 0.763 . S
C310 C39 0.762 . S
C319 C190 0.782 . S
C321 C45 0.780 . S
C330 C30 0.777 . S
C332 C195 0.776 . S
C341 C188 1.241 . S
C343 C91 1.301 . S
C352 C86 1.306 . S
C354 C182 1.287 . S
C363 C97 1.383 . S
C365 C206 1.310 . S
C374 C204 1.331 . S
C376 C82 1.373 . S
C385 C134 1.220 . S
C387 C94 1.156 . S
C396 C70 1.214 . S
C398 C149 1.271 . S
C407 C88 1.168 . S
C409 C143 1.195 . S
C418 C138 1.305 . S
C420 C56 1.229 . S
C429 C198 1.732 . S
C431 C146 1.738 . S
C440 C140 1.729 . S
C442 C192 1.724 . S
C451 C160 1.853 . S
C453 C108 1.860 . S
C462 C122 1.872 . S
C464 C174 1.865 . S
