# Generated by pormake.
# Topology ech, (8)-cn, num edge types: 1
# Building blocks:
#     Node 0, Type 0, BuildingBlock: AJUNOK_clean_sbu_0, # of connection points: 8
#     Node 1, Type 0, BuildingBlock: AJUNOK_clean_sbu_0, # of connection points: 8
#     Node 2, Type 0, BuildingBlock: AJUNOK_clean_sbu_0, # of connection points: 8
#     Node 3, Type 0, BuildingBlock: AJUNOK_clean_sbu_0, # of connection points: 8
#     Node 4, Type 0, BuildingBlock: AJUNOK_clean_sbu_0, # of connection points: 8
#     Node 5, Type 0, BuildingBlock: AJUNOK_clean_sbu_0, # of connection points: 8
#     Node 6, Type 0, BuildingBlock: AJUNOK_clean_sbu_0, # of connection points: 8
#     Node 7, Type 0, BuildingBlock: AJUNOK_clean_sbu_0, # of connection points: 8
#     Node 8, Type 0, BuildingBlock: AJUNOK_clean_sbu_0, # of connection points: 8
#     Node 9, Type 0, BuildingBlock: AJUNOK_clean_sbu_0, # of connection points: 8
#     Node 10, Type 0, BuildingBlock: AJUNOK_clean_sbu_0, # of connection points: 8
#     Node 11, Type 0, BuildingBlock: AJUNOK_clean_sbu_0, # of connection points: 8
#     Node 12, Type 0, BuildingBlock: AJUNOK_clean_sbu_0, # of connection points: 8
#     Node 13, Type 0, BuildingBlock: AJUNOK_clean_sbu_0, # of connection points: 8
#     Node 14, Type 0, BuildingBlock: AJUNOK_clean_sbu_0, # of connection points: 8
#     Node 15, Type 0, BuildingBlock: AJUNOK_clean_sbu_0, # of connection points: 8
#     Node 16, Type 0, BuildingBlock: AJUNOK_clean_sbu_0, # of connection points: 8
#     Node 17, Type 0, BuildingBlock: AJUNOK_clean_sbu_0, # of connection points: 8
#     Node 18, Type 0, BuildingBlock: AJUNOK_clean_sbu_0, # of connection points: 8
#     Node 19, Type 0, BuildingBlock: AJUNOK_clean_sbu_0, # of connection points: 8
#     Node 20, Type 0, BuildingBlock: AJUNOK_clean_sbu_0, # of connection points: 8
#     Node 21, Type 0, BuildingBlock: AJUNOK_clean_sbu_0, # of connection points: 8
#     Node 22, Type 0, BuildingBlock: AJUNOK_clean_sbu_0, # of connection points: 8
#     Node 23, Type 0, BuildingBlock: AJUNOK_clean_sbu_0, # of connection points: 8
#     Edge 24, Type (0, 0), BuildingBlock: OJICUG_clean_linker_0, # of connection points: 2
#     Edge 25, Type (0, 0), BuildingBlock: OJICUG_clean_linker_0, # of connection points: 2
#     Edge 26, Type (0, 0), BuildingBlock: OJICUG_clean_linker_0, # of connection points: 2
#     Edge 27, Type (0, 0), BuildingBlock: OJICUG_clean_linker_0, # of connection points: 2
#     Edge 28, Type (0, 0), BuildingBlock: OJICUG_clean_linker_0, # of connection points: 2
#     Edge 29, Type (0, 0), BuildingBlock: OJICUG_clean_linker_0, # of connection points: 2
#     Edge 30, Type (0, 0), BuildingBlock: OJICUG_clean_linker_0, # of connection points: 2
#     Edge 31, Type (0, 0), BuildingBlock: OJICUG_clean_linker_0, # of connection points: 2
#     Edge 32, Type (0, 0), BuildingBlock: OJICUG_clean_linker_0, # of connection points: 2
#     Edge 33, Type (0, 0), BuildingBlock: OJICUG_clean_linker_0, # of connection points: 2
#     Edge 34, Type (0, 0), BuildingBlock: OJICUG_clean_linker_0, # of connection points: 2
#     Edge 35, Type (0, 0), BuildingBlock: OJICUG_clean_linker_0, # of connection points: 2
#     Edge 36, Type (0, 0), BuildingBlock: OJICUG_clean_linker_0, # of connection points: 2
#     Edge 37, Type (0, 0), BuildingBlock: OJICUG_clean_linker_0, # of connection points: 2
#     Edge 38, Type (0, 0), BuildingBlock: OJICUG_clean_linker_0, # of connection points: 2
#     Edge 39, Type (0, 0), BuildingBlock: OJICUG_clean_linker_0, # of connection points: 2
#     Edge 40, Type (0, 0), BuildingBlock: OJICUG_clean_linker_0, # of connection points: 2
#     Edge 41, Type (0, 0), BuildingBlock: OJICUG_clean_linker_0, # of connection points: 2
#     Edge 42, Type (0, 0), BuildingBlock: OJICUG_clean_linker_0, # of connection points: 2
#     Edge 43, Type (0, 0), BuildingBlock: OJICUG_clean_linker_0, # of connection points: 2
#     Edge 44, Type (0, 0), BuildingBlock: OJICUG_clean_linker_0, # of connection points: 2
#     Edge 45, Type (0, 0), BuildingBlock: OJICUG_clean_linker_0, # of connection points: 2
#     Edge 46, Type (0, 0), BuildingBlock: OJICUG_clean_linker_0, # of connection points: 2
#     Edge 47, Type (0, 0), BuildingBlock: OJICUG_clean_linker_0, # of connection points: 2
#     Edge 48, Type (0, 0), BuildingBlock: OJICUG_clean_linker_0, # of connection points: 2
#     Edge 49, Type (0, 0), BuildingBlock: OJICUG_clean_linker_0, # of connection points: 2
#     Edge 50, Type (0, 0), BuildingBlock: OJICUG_clean_linker_0, # of connection points: 2
#     Edge 51, Type (0, 0), BuildingBlock: OJICUG_clean_linker_0, # of connection points: 2
#     Edge 52, Type (0, 0), BuildingBlock: OJICUG_clean_linker_0, # of connection points: 2
#     Edge 53, Type (0, 0), BuildingBlock: OJICUG_clean_linker_0, # of connection points: 2
#     Edge 54, Type (0, 0), BuildingBlock: OJICUG_clean_linker_0, # of connection points: 2
#     Edge 55, Type (0, 0), BuildingBlock: OJICUG_clean_linker_0, # of connection points: 2
#     Edge 56, Type (0, 0), BuildingBlock: OJICUG_clean_linker_0, # of connection points: 2
#     Edge 57, Type (0, 0), BuildingBlock: OJICUG_clean_linker_0, # of connection points: 2
#     Edge 58, Type (0, 0), BuildingBlock: OJICUG_clean_linker_0, # of connection points: 2
#     Edge 59, Type (0, 0), BuildingBlock: OJICUG_clean_linker_0, # of connection points: 2
#     Edge 60, Type (0, 0), BuildingBlock: OJICUG_clean_linker_0, # of connection points: 2
#     Edge 61, Type (0, 0), BuildingBlock: OJICUG_clean_linker_0, # of connection points: 2
#     Edge 62, Type (0, 0), BuildingBlock: OJICUG_clean_linker_0, # of connection points: 2
#     Edge 63, Type (0, 0), BuildingBlock: OJICUG_clean_linker_0, # of connection points: 2
#     Edge 64, Type (0, 0), BuildingBlock: OJICUG_clean_linker_0, # of connection points: 2
#     Edge 65, Type (0, 0), BuildingBlock: OJICUG_clean_linker_0, # of connection points: 2
#     Edge 66, Type (0, 0), BuildingBlock: OJICUG_clean_linker_0, # of connection points: 2
#     Edge 67, Type (0, 0), BuildingBlock: OJICUG_clean_linker_0, # of connection points: 2
#     Edge 68, Type (0, 0), BuildingBlock: OJICUG_clean_linker_0, # of connection points: 2
#     Edge 69, Type (0, 0), BuildingBlock: OJICUG_clean_linker_0, # of connection points: 2
#     Edge 70, Type (0, 0), BuildingBlock: OJICUG_clean_linker_0, # of connection points: 2
#     Edge 71, Type (0, 0), BuildingBlock: OJICUG_clean_linker_0, # of connection points: 2
#     Edge 72, Type (0, 0), BuildingBlock: OJICUG_clean_linker_0, # of connection points: 2
#     Edge 73, Type (0, 0), BuildingBlock: OJICUG_clean_linker_0, # of connection points: 2
#     Edge 74, Type (0, 0), BuildingBlock: OJICUG_clean_linker_0, # of connection points: 2
#     Edge 75, Type (0, 0), BuildingBlock: OJICUG_clean_linker_0, # of connection points: 2
#     Edge 76, Type (0, 0), BuildingBlock: OJICUG_clean_linker_0, # of connection points: 2
#     Edge 77, Type (0, 0), BuildingBlock: OJICUG_clean_linker_0, # of connection points: 2
#     Edge 78, Type (0, 0), BuildingBlock: OJICUG_clean_linker_0, # of connection points: 2
#     Edge 79, Type (0, 0), BuildingBlock: OJICUG_clean_linker_0, # of connection points: 2
#     Edge 80, Type (0, 0), BuildingBlock: OJICUG_clean_linker_0, # of connection points: 2
#     Edge 81, Type (0, 0), BuildingBlock: OJICUG_clean_linker_0, # of connection points: 2
#     Edge 82, Type (0, 0), BuildingBlock: OJICUG_clean_linker_0, # of connection points: 2
#     Edge 83, Type (0, 0), BuildingBlock: OJICUG_clean_linker_0, # of connection points: 2
#     Edge 84, Type (0, 0), BuildingBlock: OJICUG_clean_linker_0, # of connection points: 2
#     Edge 85, Type (0, 0), BuildingBlock: OJICUG_clean_linker_0, # of connection points: 2
#     Edge 86, Type (0, 0), BuildingBlock: OJICUG_clean_linker_0, # of connection points: 2
#     Edge 87, Type (0, 0), BuildingBlock: OJICUG_clean_linker_0, # of connection points: 2
#     Edge 88, Type (0, 0), BuildingBlock: OJICUG_clean_linker_0, # of connection points: 2
#     Edge 89, Type (0, 0), BuildingBlock: OJICUG_clean_linker_0, # of connection points: 2
#     Edge 90, Type (0, 0), BuildingBlock: OJICUG_clean_linker_0, # of connection points: 2
#     Edge 91, Type (0, 0), BuildingBlock: OJICUG_clean_linker_0, # of connection points: 2
#     Edge 92, Type (0, 0), BuildingBlock: OJICUG_clean_linker_0, # of connection points: 2
#     Edge 93, Type (0, 0), BuildingBlock: OJICUG_clean_linker_0, # of connection points: 2
#     Edge 94, Type (0, 0), BuildingBlock: OJICUG_clean_linker_0, # of connection points: 2
#     Edge 95, Type (0, 0), BuildingBlock: OJICUG_clean_linker_0, # of connection points: 2
#     Edge 96, Type (0, 0), BuildingBlock: OJICUG_clean_linker_0, # of connection points: 2
#     Edge 97, Type (0, 0), BuildingBlock: OJICUG_clean_linker_0, # of connection points: 2
#     Edge 98, Type (0, 0), BuildingBlock: OJICUG_clean_linker_0, # of connection points: 2
#     Edge 99, Type (0, 0), BuildingBlock: OJICUG_clean_linker_0, # of connection points: 2
#     Edge 100, Type (0, 0), BuildingBlock: OJICUG_clean_linker_0, # of connection points: 2
#     Edge 101, Type (0, 0), BuildingBlock: OJICUG_clean_linker_0, # of connection points: 2
#     Edge 102, Type (0, 0), BuildingBlock: OJICUG_clean_linker_0, # of connection points: 2
#     Edge 103, Type (0, 0), BuildingBlock: OJICUG_clean_linker_0, # of connection points: 2
#     Edge 104, Type (0, 0), BuildingBlock: OJICUG_clean_linker_0, # of connection points: 2
#     Edge 105, Type (0, 0), BuildingBlock: OJICUG_clean_linker_0, # of connection points: 2
#     Edge 106, Type (0, 0), BuildingBlock: OJICUG_clean_linker_0, # of connection points: 2
#     Edge 107, Type (0, 0), BuildingBlock: OJICUG_clean_linker_0, # of connection points: 2
#     Edge 108, Type (0, 0), BuildingBlock: OJICUG_clean_linker_0, # of connection points: 2
#     Edge 109, Type (0, 0), BuildingBlock: OJICUG_clean_linker_0, # of connection points: 2
#     Edge 110, Type (0, 0), BuildingBlock: OJICUG_clean_linker_0, # of connection points: 2
#     Edge 111, Type (0, 0), BuildingBlock: OJICUG_clean_linker_0, # of connection points: 2
#     Edge 112, Type (0, 0), BuildingBlock: OJICUG_clean_linker_0, # of connection points: 2
#     Edge 113, Type (0, 0), BuildingBlock: OJICUG_clean_linker_0, # of connection points: 2
#     Edge 114, Type (0, 0), BuildingBlock: OJICUG_clean_linker_0, # of connection points: 2
#     Edge 115, Type (0, 0), BuildingBlock: OJICUG_clean_linker_0, # of connection points: 2
#     Edge 116, Type (0, 0), BuildingBlock: OJICUG_clean_linker_0, # of connection points: 2
#     Edge 117, Type (0, 0), BuildingBlock: OJICUG_clean_linker_0, # of connection points: 2
#     Edge 118, Type (0, 0), BuildingBlock: OJICUG_clean_linker_0, # of connection points: 2
#     Edge 119, Type (0, 0), BuildingBlock: OJICUG_clean_linker_0, # of connection points: 2
# Relax obj value: 0.310
# Max RMSD: 0.227
# Mean RMSD: 0.227
data_MOF--net-ech--node1-AJUNOK_clean_sbu_0--edge1-OJICUG_clean_linker_0
_symmetry_space_group_name_H-M    P1
_symmetry_Int_Tables_number       1
_symmetry_cell_setting            triclinic
loop_
_symmetry_equiv_pos_as_xyz
'x, y, z'
_cell_length_a     40.660592
_cell_length_b     40.70281
_cell_length_c     40.680512
_cell_angle_alpha  90.01168
_cell_angle_beta   90.018615
_cell_angle_gamma 89.999798
loop_
_atom_site_label
_atom_site_type_symbol
_atom_site_fract_x
_atom_site_fract_y
_atom_site_fract_z
_atom_type_partial_charge
Cd0 Cd 0.15389 0.32437 0.41714 0.0
Cd1 Cd 0.11387 0.27229 0.50119 0.0
C2 C 0.1149 0.38842 0.43672 0.0
N3 N 0.10829 0.35727 0.4267 0.0
C4 C 0.05401 0.37269 0.41056 0.0
C5 C 0.06123 0.40572 0.41761 0.0
C6 C 0.09156 0.41318 0.43249 0.0
C7 C 0.07824 0.34882 0.41475 0.0
H8 H 0.13934 0.39463 0.44518 0.0
H9 H 0.07364 0.32415 0.40623 0.0
C10 C 0.09807 0.25525 0.41907 0.0
C11 C 0.13309 0.19738 0.50877 0.0
C12 C 0.15161 0.17052 0.5193 0.0
C13 C 0.18542 0.17444 0.52526 0.0
C14 C 0.20019 0.20482 0.5179 0.0
C15 C 0.18066 0.23109 0.50774 0.0
N16 N 0.14772 0.22703 0.50425 0.0
H17 H 0.10667 0.19521 0.50644 0.0
H18 H 0.19142 0.25517 0.50476 0.0
C19 C 0.04566 0.29845 0.47513 0.0
N20 N 0.07383 0.31064 0.48821 0.0
C21 C 0.04824 0.36284 0.4972 0.0
C22 C 0.01876 0.35075 0.48373 0.0
C23 C 0.01802 0.31823 0.47214 0.0
C24 C 0.07564 0.34209 0.49944 0.0
H25 H 0.04413 0.27293 0.46808 0.0
H26 H 0.09795 0.35073 0.51106 0.0
C27 C 0.177 0.3352 0.49764 0.0
C28 C 0.17824 0.3593 0.3612 0.0
N29 N 0.19001 0.28017 0.41534 0.0
C30 C 0.21384 0.27568 0.43834 0.0
C31 C 0.23936 0.25348 0.43263 0.0
C32 C 0.24067 0.23631 0.40268 0.0
C33 C 0.21464 0.24007 0.38027 0.0
C34 C 0.18948 0.26233 0.38711 0.0
C35 C 0.08163 0.26413 0.56252 0.0
O36 O 0.11568 0.27942 0.41023 0.0
O37 O 0.09599 0.24677 0.4491 0.0
O38 O 0.15683 0.31357 0.50756 0.0
O39 O 0.17898 0.34265 0.46746 0.0
O40 O 0.15605 0.3376 0.35824 0.0
O41 O 0.18897 0.36449 0.38997 0.0
O42 O 0.10866 0.27942 0.55999 0.0
O43 O 0.07102 0.24996 0.53683 0.0
H44 H 0.21419 0.29051 0.4603 0.0
H45 H 0.17059 0.26692 0.36896 0.0
H46 H 0.03066 0.36564 0.39988 0.0
H47 H 0.09851 0.43827 0.438 0.0
H48 H 0.13913 0.14772 0.52498 0.0
H49 H 0.22626 0.20877 0.52166 0.0
H50 H 0.04991 0.3877 0.50652 0.0
H51 H 0.99622 0.30795 0.46083 0.0
H52 H 0.25871 0.25102 0.45077 0.0
H53 H 0.21483 0.22775 0.35668 0.0
Cd54 Cd 0.38048 0.71988 0.0001 0.0
Cd55 Cd 0.34188 0.66906 0.91383 0.0
C56 C 0.44939 0.69312 0.97704 0.0
N57 N 0.42057 0.68113 0.98879 0.0
C58 C 0.44513 0.62851 -0.00186 0.0
C59 C 0.47523 0.64034 0.9859 0.0
C60 C 0.47686 0.67301 0.97485 0.0
C61 C 0.41793 0.64958 -0.00043 0.0
H62 H 0.4515 0.71869 0.97035 0.0
H63 H 0.39508 0.64109 0.01017 0.0
C64 C 0.31715 0.65639 0.99231 0.0
C65 C 0.28857 0.7241 0.93908 0.0
C66 C 0.26381 0.74746 0.93438 0.0
C67 C 0.25921 0.76136 0.90307 0.0
C68 C 0.28135 0.7532 0.87789 0.0
C69 C 0.30565 0.72979 0.88366 0.0
N70 N 0.30807 0.71503 0.91349 0.0
H71 H 0.29095 0.71209 0.9626 0.0
H72 H 0.3214 0.72191 0.86375 0.0
C73 C 0.37892 0.60388 0.9342 0.0
N74 N 0.38637 0.63516 0.92525 0.0
C75 C 0.44135 0.61951 0.91198 0.0
C76 C 0.43346 0.58641 0.91788 0.0
C77 C 0.40225 0.57897 0.93081 0.0
C78 C 0.41714 0.64354 0.91526 0.0
H79 H 0.35398 0.59773 0.94109 0.0
H80 H 0.42245 0.66833 0.90758 0.0
C81 C 0.39905 0.7373 0.91928 0.0
C82 C 0.41048 0.72713 0.06269 0.0
N83 N 0.3436 0.76285 0.00368 0.0
C84 C 0.35049 0.79319 0.99154 0.0
C85 C 0.33126 0.82013 0.00073 0.0
C86 C 0.30516 0.81571 0.02298 0.0
C87 C 0.29785 0.78368 0.03372 0.0
C88 C 0.31749 0.75752 0.02372 0.0
C89 C 0.32011 0.63785 0.85452 0.0
O90 O 0.33787 0.67783 0.00153 0.0
O91 O 0.31411 0.64913 0.96216 0.0
O92 O 0.38079 0.7136 0.91056 0.0
O93 O 0.40112 0.74592 0.94927 0.0
O94 O 0.3845 0.71042 0.05866 0.0
O95 O 0.42089 0.74312 0.03799 0.0
O96 O 0.34383 0.65806 0.85441 0.0
O97 O 0.30658 0.63238 0.88203 0.0
H98 H 0.37188 0.79685 0.97621 0.0
H99 H 0.3132 0.73322 0.0336 0.0
H100 H 0.44275 0.60355 0.007 0.0
H101 H 0.49916 0.68314 0.96444 0.0
H102 H 0.24748 0.75341 0.95456 0.0
H103 H 0.27852 0.76298 0.85329 0.0
H104 H 0.46535 0.62656 0.90286 0.0
H105 H 0.39476 0.55385 0.93537 0.0
H106 H 0.33755 0.84428 0.99151 0.0
H107 H 0.27846 0.779 0.05134 0.0
Cd108 Cd 0.65223 0.17075 0.57637 0.0
Cd109 Cd 0.613 0.21976 0.49102 0.0
C110 C 0.61543 0.10489 0.55722 0.0
N111 N 0.6079 0.13612 0.56631 0.0
C112 C 0.55345 0.11992 0.5811 0.0
C113 C 0.56151 0.08692 0.57493 0.0
C114 C 0.59243 0.07976 0.5612 0.0
C115 C 0.5773 0.1442 0.5771 0.0
H116 H 0.64024 0.09897 0.5497 0.0
H117 H 0.57192 0.16895 0.58485 0.0
C118 C 0.59449 0.2381 0.57187 0.0
C119 C 0.64368 0.29278 0.50037 0.0
C120 C 0.66316 0.31958 0.49132 0.0
C121 C 0.68928 0.315 0.46914 0.0
C122 C 0.69642 0.28294 0.45839 0.0
C123 C 0.67654 0.25692 0.46825 0.0
N124 N 0.65036 0.2624 0.48817 0.0
H125 H 0.62223 0.29661 0.51557 0.0
H126 H 0.68066 0.23263 0.45829 0.0
C127 C 0.54384 0.1942 0.51499 0.0
N128 N 0.5724 0.18159 0.5032 0.0
C129 C 0.54709 0.12902 0.49557 0.0
C130 C 0.5173 0.14147 0.50801 0.0
C131 C 0.51621 0.17445 0.51818 0.0
C132 C 0.5745 0.14975 0.49319 0.0
H133 H 0.54205 0.21997 0.52099 0.0
H134 H 0.59713 0.1407 0.48254 0.0
C135 C 0.67584 0.1561 0.49755 0.0
C136 C 0.67575 0.14052 0.63537 0.0
N137 N 0.68611 0.2167 0.57561 0.0
C138 C 0.7072 0.2239 0.5507 0.0
C139 C 0.7324 0.24677 0.55558 0.0
C140 C 0.73585 0.26205 0.58641 0.0
C141 C 0.7121 0.25588 0.6107 0.0
C142 C 0.68741 0.23291 0.60476 0.0
C143 C 0.58345 0.22756 0.42831 0.0
O144 O 0.61278 0.21463 0.5811 0.0
O145 O 0.59258 0.24626 0.54176 0.0
O146 O 0.6553 0.17741 0.48769 0.0
O147 O 0.67897 0.14982 0.5279 0.0
O148 O 0.65155 0.16014 0.63583 0.0
O149 O 0.68885 0.13515 0.60764 0.0
O150 O 0.60926 0.21066 0.4325 0.0
O151 O 0.5729 0.24347 0.453 0.0
H152 H 0.70582 0.2106 0.52778 0.0
H153 H 0.67052 0.22635 0.62423 0.0
H154 H 0.52965 0.12669 0.59093 0.0
H155 H 0.59999 0.0547 0.55642 0.0
H156 H 0.65701 0.34376 0.50056 0.0
H157 H 0.71582 0.27814 0.44081 0.0
H158 H 0.54907 0.10382 0.48731 0.0
H159 H 0.4942 0.18512 0.52867 0.0
H160 H 0.74997 0.25116 0.53607 0.0
H161 H 0.71398 0.26673 0.63493 0.0
Cd162 Cd 0.88039 0.77347 0.99207 0.0
Cd163 Cd 0.83751 0.82245 0.07659 0.0
C164 C 0.94851 0.79954 0.01817 0.0
N165 N 0.92031 0.81181 0.00523 0.0
C166 C 0.94574 0.86419 -0.00307 0.0
C167 C 0.97523 0.85203 0.0103 0.0
C168 C 0.97608 0.81937 0.02144 0.0
C169 C 0.91841 0.84339 0.99439 0.0
H170 H 0.95009 0.77395 0.02495 0.0
H171 H 0.89607 0.85209 0.98288 0.0
C172 C 0.81604 0.83559 -0.00311 0.0
C173 C 0.78367 0.76839 0.05056 0.0
C174 C 0.7589 0.74499 0.05498 0.0
C175 C 0.75477 0.73022 0.08596 0.0
C176 C 0.77729 0.73765 0.11104 0.0
C177 C 0.80153 0.76116 0.10558 0.0
N178 N 0.80359 0.77667 0.07611 0.0
H179 H 0.78574 0.78109 0.02736 0.0
H180 H 0.81754 0.76854 0.1255 0.0
C181 C 0.87605 0.88687 0.05727 0.0
N182 N 0.88289 0.85568 0.06697 0.0
C183 C 0.93722 0.87127 0.08278 0.0
C184 C 0.9298 0.90434 0.07606 0.0
C185 C 0.89929 0.91173 0.06152 0.0
C186 C 0.91306 0.8473 0.07866 0.0
H187 H 0.85151 0.89304 0.04907 0.0
H188 H 0.9178 0.82258 0.08699 0.0
C189 C 0.89413 0.7541 0.07428 0.0
C190 C 0.91211 0.76619 0.93041 0.0
N191 N 0.84424 0.72988 0.98778 0.0
C192 C 0.85197 0.69936 -0.00107 0.0
C193 C 0.8328 0.67235 0.98978 0.0
C194 C 0.80584 0.6769 0.96861 0.0
C195 C 0.79782 0.70904 0.95874 0.0
C196 C 0.81744 0.73525 0.96865 0.0
C197 C 0.81257 0.85573 0.13339 0.0
O198 O 0.83736 0.81475 0.98775 0.0
O199 O 0.81192 0.842 0.02708 0.0
O200 O 0.8755 0.77738 0.08339 0.0
O201 O 0.89839 0.74768 0.04397 0.0
O202 O 0.88594 0.78275 0.93373 0.0
O203 O 0.92204 0.75036 0.95543 0.0
O204 O 0.83577 0.83505 0.13574 0.0
O205 O 0.80097 0.86051 0.1049 0.0
H206 H 0.87389 0.69569 0.01352 0.0
H207 H 0.81245 0.75968 0.95948 0.0
H208 H 0.94399 0.88917 0.98796 0.0
H209 H -0.00209 0.80902 0.03264 0.0
H210 H 0.74221 0.73967 0.03491 0.0
H211 H 0.77478 0.72724 0.13541 0.0
H212 H 0.96071 0.86422 0.09315 0.0
H213 H 0.89212 0.93681 0.05627 0.0
H214 H 0.83969 0.64811 -0.00171 0.0
H215 H 0.77775 0.71384 0.94191 0.0
Cd216 Cd 0.5033 0.11177 0.27194 0.0
Cd217 Cd 0.41643 0.15179 0.32006 0.0
C218 C 0.47779 0.04394 0.29886 0.0
N219 N 0.48993 0.07254 0.31101 0.0
C220 C 0.49752 0.04799 0.36395 0.0
C221 C 0.48494 0.01811 0.35191 0.0
C222 C 0.47452 0.01664 0.31901 0.0
C223 C 0.50001 0.07507 0.34281 0.0
H224 H 0.47175 0.04179 0.27312 0.0
H225 H 0.51096 0.09769 0.35146 0.0
C226 C 0.4953 0.17691 0.33308 0.0
C227 C 0.44073 0.20268 0.26256 0.0
C228 C 0.43557 0.2272 0.23904 0.0
C229 C 0.40359 0.23288 0.22701 0.0
C230 C 0.37814 0.21184 0.23708 0.0
C231 C 0.38442 0.18769 0.26045 0.0
N232 N 0.41498 0.18439 0.27346 0.0
H233 H 0.46482 0.19954 0.27332 0.0
H234 H 0.36444 0.17286 0.26978 0.0
C235 C 0.43581 0.11499 0.3857 0.0
N236 N 0.42631 0.10753 0.35457 0.0
C237 C 0.41051 0.05352 0.37107 0.0
C238 C 0.41708 0.06157 0.40404 0.0
C239 C 0.43151 0.09221 0.41097 0.0
C240 C 0.41477 0.0772 0.34666 0.0
H241 H 0.4439 0.13965 0.39145 0.0
H242 H 0.40658 0.07202 0.32195 0.0
C243 C 0.42236 0.09471 0.25207 0.0
C244 C 0.56511 0.07988 0.26577 0.0
N245 N 0.50904 0.14893 0.22935 0.0
C246 C 0.49471 0.14492 0.19942 0.0
C247 C 0.50449 0.1645 0.17292 0.0
C248 C 0.52946 0.18801 0.17735 0.0
C249 C 0.54268 0.19234 0.209 0.0
C250 C 0.53206 0.17245 0.23471 0.0
C251 C 0.35811 0.17559 0.35142 0.0
O252 O 0.50563 0.15575 0.3126 0.0
O253 O 0.4649 0.17956 0.33937 0.0
O254 O 0.41305 0.11315 0.2754 0.0
O255 O 0.45268 0.09184 0.24495 0.0
O256 O 0.56132 0.10536 0.28326 0.0
O257 O 0.54061 0.07076 0.24869 0.0
O258 O 0.35729 0.15053 0.33292 0.0
O259 O 0.38581 0.18936 0.35506 0.0
H260 H 0.47687 0.12559 0.19566 0.0
H261 H 0.54351 0.1745 0.25863 0.0
H262 H 0.50594 0.05025 0.38909 0.0
H263 H 0.46391 0.99454 0.30868 0.0
H264 H 0.45599 0.24255 0.23156 0.0
H265 H 0.35305 0.21546 0.22892 0.0
H266 H 0.40016 0.02992 0.36443 0.0
H267 H 0.43664 0.09979 0.43597 0.0
H268 H 0.49334 0.16057 0.14906 0.0
H269 H 0.56239 0.20962 0.2136 0.0
Cd270 Cd 0.08079 0.84226 0.82395 0.0
Cd271 Cd 0.99411 0.87952 0.77328 0.0
C272 C 0.0598 0.87943 0.88889 0.0
N273 N 0.06901 0.88674 0.85764 0.0
C274 C 0.08252 0.94163 0.87325 0.0
C275 C 0.07634 0.93386 0.90634 0.0
C276 C 0.06316 0.90278 0.91377 0.0
C277 C 0.07924 0.9174 0.84925 0.0
H278 H 0.05276 0.85456 0.89506 0.0
H279 H 0.08712 0.92257 0.82447 0.0
C280 C 0.07492 0.89837 0.75511 0.0
C281 C 0.00063 0.84807 0.7001 0.0
C282 C 0.99061 0.82853 0.67364 0.0
C283 C 0.96759 0.80326 0.67882 0.0
C284 C 0.95666 0.79723 0.71107 0.0
C285 C 0.96746 0.81715 0.7367 0.0
N286 N 0.98847 0.84234 0.73069 0.0
H287 H 0.01679 0.86874 0.69589 0.0
H288 H 0.95761 0.81377 0.76117 0.0
C289 C 0.01789 0.94872 0.79899 0.0
N290 N 0.00593 0.92018 0.81142 0.0
C291 C 0.99672 0.94565 0.86366 0.0
C292 C 0.00924 0.97545 0.8514 0.0
C293 C 0.02031 0.97646 0.81869 0.0
C294 C 0.99509 0.91815 0.843 0.0
H295 H 0.02458 0.9504 0.77337 0.0
H296 H 0.98429 0.89553 0.85183 0.0
C297 C 0.00259 0.81638 0.83689 0.0
C298 C 0.14015 0.82099 0.8554 0.0
N299 N 0.0811 0.80826 0.7781 0.0
C300 C 0.05507 0.78967 0.76836 0.0
C301 C 0.05948 0.76484 0.74503 0.0
C302 C 0.09092 0.7593 0.73178 0.0
C303 C 0.11667 0.78053 0.74062 0.0
C304 C 0.11118 0.80488 0.76402 0.0
C305 C 0.93189 0.91051 0.76682 0.0
O306 O 0.08401 0.8807 0.77911 0.0
O307 O 0.04489 0.89969 0.7464 0.0
O308 O 0.99275 0.83682 0.81545 0.0
O309 O 0.03285 0.81405 0.84399 0.0
O310 O 0.14021 0.84461 0.83509 0.0
O311 O 0.11268 0.80733 0.8608 0.0
O312 O 0.93591 0.88511 0.7844 0.0
O313 O 0.9563 0.91977 0.74971 0.0
H314 H 0.03135 0.79285 0.77978 0.0
H315 H 0.13143 0.81995 0.77239 0.0
H316 H 0.09186 0.96552 0.8662 0.0
H317 H 0.05839 0.8954 0.9389 0.0
H318 H -3e-05 0.83383 0.6493 0.0
H319 H 0.93847 0.77853 0.7163 0.0
H320 H 0.98778 0.94372 0.88865 0.0
H321 H 0.03091 -0.00151 0.80821 0.0
H322 H 0.0389 0.74923 0.73854 0.0
H323 H 0.14137 0.77693 0.73135 0.0
Cd324 Cd 0.9138 0.34199 0.66877 0.0
Cd325 Cd 0.00042 0.37793 0.71999 0.0
C326 C 0.93466 0.3791 0.60381 0.0
N327 N 0.92556 0.38644 0.63509 0.0
C328 C 0.91173 0.44124 0.61947 0.0
C329 C 0.9178 0.43342 0.58637 0.0
C330 C 0.93109 0.4024 0.57891 0.0
C331 C 0.91525 0.41708 0.64349 0.0
H332 H 0.94175 0.35424 0.59765 0.0
H333 H 0.90747 0.42227 0.66829 0.0
C334 C 0.91936 0.39767 0.73769 0.0
C335 C 0.99223 0.34547 0.79276 0.0
C336 C 0.00236 0.32645 0.81954 0.0
C337 C 0.02758 0.30314 0.81541 0.0
C338 C 0.04062 0.29837 0.78374 0.0
C339 C 0.02962 0.31768 0.75774 0.0
N340 N 0.00643 0.34109 0.76283 0.0
H341 H 0.97425 0.36471 0.79627 0.0
H342 H 0.04094 0.31534 0.73378 0.0
C343 C 0.97706 0.4469 0.69396 0.0
N344 N 0.9888 0.41826 0.68157 0.0
C345 C -0.0018 0.44353 0.62928 0.0
C346 C 0.98589 0.47344 0.6415 0.0
C347 C 0.97483 0.4746 0.67421 0.0
C348 C -0.00036 0.41608 0.64999 0.0
H349 H 0.97043 0.4487 0.71958 0.0
H350 H 0.01031 0.39337 0.64121 0.0
C351 C 0.99219 0.31502 0.65652 0.0
C352 C 0.85479 0.32016 0.6368 0.0
N353 N 0.91324 0.30891 0.7152 0.0
C354 C 0.93958 0.29147 0.72616 0.0
C355 C 0.93531 0.2671 0.74999 0.0
C356 C 0.90368 0.26085 0.76247 0.0
C357 C 0.87753 0.28098 0.75236 0.0
C358 C 0.88289 0.3049 0.72851 0.0
C359 C 0.06232 0.40964 0.72648 0.0
O360 O 0.90972 0.38047 0.71355 0.0
O361 O 0.94943 0.39822 0.74636 0.0
O362 O 0.00261 0.3351 0.67804 0.0
O363 O 0.9619 0.31359 0.64931 0.0
O364 O 0.85454 0.34432 0.65646 0.0
O365 O 0.88224 0.30613 0.63236 0.0
O366 O 0.05862 0.38404 0.70914 0.0
O367 O 0.03775 0.41881 0.74343 0.0
H368 H 0.96351 0.2952 0.71536 0.0
H369 H 0.86242 0.31908 0.71919 0.0
H370 H 0.9023 0.4651 0.62651 0.0
H371 H 0.93579 0.39501 0.55377 0.0
H372 H 0.9913 0.33068 0.84338 0.0
H373 H 0.06048 0.28122 0.77933 0.0
H374 H 0.0071 0.44149 0.60429 0.0
H375 H 0.96438 0.49672 0.68466 0.0
H376 H 0.95618 0.25233 0.75745 0.0
H377 H 0.85269 0.27679 0.76099 0.0
Cd378 Cd 0.49209 0.6134 0.2207 0.0
Cd379 Cd 0.57818 0.64951 0.16836 0.0
C380 C 0.51535 0.54398 0.19524 0.0
N381 N 0.5035 0.57249 0.18266 0.0
C382 C 0.49447 0.54684 0.13046 0.0
C383 C 0.507 0.51709 0.14285 0.0
C384 C 0.51788 0.51619 0.17564 0.0
C385 C 0.49276 0.57441 0.15102 0.0
H386 H 0.52193 0.54237 0.2209 0.0
H387 H 0.48204 0.59702 0.14206 0.0
C388 C 0.49965 0.67641 0.15717 0.0
C389 C 0.55495 0.69989 0.22705 0.0
C390 C 0.56011 0.72391 0.25113 0.0
C391 C 0.59229 0.73056 0.26204 0.0
C392 C 0.6182 0.71125 0.24987 0.0
C393 C 0.61192 0.68758 0.226 0.0
N394 N 0.58093 0.68305 0.21444 0.0
H395 H 0.53052 0.69577 0.21752 0.0
H396 H 0.63208 0.67386 0.21543 0.0
C397 C 0.55708 0.61155 0.10395 0.0
N398 N 0.56641 0.60459 0.13525 0.0
C399 C 0.58088 0.54984 0.12001 0.0
C400 C 0.57462 0.55731 0.08687 0.0
C401 C 0.56086 0.58809 0.07922 0.0
C402 C 0.57713 0.57414 0.14386 0.0
H403 H 0.54966 0.63627 0.09762 0.0
H404 H 0.58511 0.56926 0.16866 0.0
C405 C 0.5731 0.59409 0.23774 0.0
C406 C 0.42971 0.58304 0.22818 0.0
N407 N 0.4877 0.65029 0.26364 0.0
C408 C 0.50031 0.64423 0.29399 0.0
C409 C 0.49085 0.66363 0.32074 0.0
C410 C 0.46792 0.68909 0.3161 0.0
C411 C 0.45658 0.6955 0.28407 0.0
C412 C 0.46682 0.6757 0.25813 0.0
C413 C 0.63659 0.67055 0.13516 0.0
O414 O 0.48958 0.65619 0.1787 0.0
O415 O 0.52986 0.67805 0.14969 0.0
O416 O 0.58206 0.61143 0.21346 0.0
O417 O 0.54317 0.59314 0.24681 0.0
O418 O 0.43369 0.60851 0.21073 0.0
O419 O 0.45435 0.57332 0.24472 0.0
O420 O 0.63706 0.64659 0.15506 0.0
O421 O 0.60914 0.68467 0.13097 0.0
H422 H 0.51633 0.62338 0.29781 0.0
H423 H 0.45659 0.67934 0.23385 0.0
H424 H 0.48565 0.5487 0.10542 0.0
H425 H 0.52848 0.49422 0.18625 0.0
H426 H 0.53936 0.73793 0.26017 0.0
H427 H 0.64344 0.71572 0.25712 0.0
H428 H 0.59069 0.52617 0.12719 0.0
H429 H 0.55598 0.5952 0.05404 0.0
H430 H 0.50051 0.65804 0.3449 0.0
H431 H 0.43842 0.71435 0.27926 0.0
Cd432 Cd 0.27381 0.50037 0.11426 0.0
Cd433 Cd 0.32461 0.4139 0.15285 0.0
C434 C 0.29832 0.4751 0.04477 0.0
N435 N 0.31095 0.48774 0.07296 0.0
C436 C 0.36297 0.49661 0.04691 0.0
C437 C 0.35052 0.48339 0.01748 0.0
C438 C 0.31783 0.47218 0.01692 0.0
C439 C 0.34251 0.49873 0.07452 0.0
H440 H 0.27271 0.46826 0.04342 0.0
H441 H 0.35148 0.51 0.09687 0.0
C442 C 0.33651 0.49214 0.17852 0.0
C443 C 0.30075 0.41422 0.22567 0.0
C444 C 0.28077 0.41102 0.25323 0.0
C445 C 0.24646 0.41268 0.24973 0.0
C446 C 0.23319 0.41953 0.21856 0.0
C447 C 0.25422 0.42273 0.19156 0.0
N448 N 0.28724 0.41917 0.19556 0.0
H449 H 0.32707 0.41117 0.22798 0.0
H450 H 0.24402 0.42672 0.16739 0.0
C451 C 0.38905 0.4363 0.11505 0.0
N452 N 0.35785 0.42642 0.10833 0.0
C453 C 0.37311 0.41131 0.05375 0.0
C454 C 0.40622 0.41814 0.06102 0.0
C455 C 0.41377 0.4325 0.09157 0.0
C456 C 0.34929 0.41507 0.07809 0.0
H457 H 0.39541 0.4441 0.13966 0.0
H458 H 0.32457 0.40651 0.07354 0.0
C459 C 0.25441 0.41921 0.09806 0.0
C460 C 0.26828 0.56265 0.08343 0.0
N461 N 0.22782 0.50492 0.14728 0.0
C462 C 0.19891 0.51164 0.13194 0.0
C463 C 0.17185 0.52239 0.15006 0.0
C464 C 0.17473 0.5263 0.18425 0.0
C465 C 0.20428 0.51685 0.19962 0.0
C466 C 0.2308 0.5064 0.18049 0.0
C467 C 0.35553 0.35329 0.17091 0.0
O468 O 0.31511 0.50159 0.15783 0.0
O469 O 0.34461 0.46213 0.18046 0.0
O470 O 0.2784 0.41008 0.11579 0.0
O471 O 0.24707 0.44945 0.09526 0.0
O472 O 0.28446 0.55885 0.10981 0.0
O473 O 0.25229 0.53798 0.07302 0.0
O474 O 0.32949 0.35375 0.15376 0.0
O475 O 0.3669 0.38088 0.17977 0.0
H476 H 0.19753 0.51066 0.10541 0.0
H477 H 0.25425 0.50122 0.19193 0.0
H478 H 0.38795 0.50569 0.04846 0.0
H479 H 0.30724 0.46111 0.99516 0.0
H480 H 0.29205 0.40528 0.27666 0.0
H481 H 0.20686 0.42129 0.21494 0.0
H482 H 0.36598 0.40103 0.03025 0.0
H483 H 0.43891 0.43781 0.09855 0.0
H484 H 0.14974 0.52967 0.13713 0.0
H485 H 0.20737 0.51895 0.22598 0.0
Cd486 Cd 0.82659 0.08115 0.84012 0.0
Cd487 Cd 0.77478 0.99419 0.87797 0.0
C488 C 0.89008 0.05857 0.87891 0.0
N489 N 0.85888 0.06858 0.88541 0.0
C490 C 0.87343 0.08191 0.94065 0.0
C491 C 0.90658 0.07502 0.93368 0.0
C492 C 0.91446 0.06147 0.90286 0.0
C493 C 0.84994 0.07908 0.91584 0.0
H494 H 0.89671 0.05132 0.85421 0.0
H495 H 0.82523 0.08761 0.92034 0.0
C496 C 0.75629 0.07463 0.89509 0.0
C497 C 0.69962 0.98641 0.85888 0.0
C498 C 0.6726 0.97534 0.84086 0.0
C499 C 0.67651 0.96739 0.80749 0.0
C500 C 0.70716 0.97322 0.79251 0.0
C501 C 0.73358 0.98401 0.81155 0.0
N502 N 0.72945 0.98956 0.84418 0.0
H503 H 0.69738 0.99035 0.88508 0.0
H504 H 0.75779 0.98596 0.80076 0.0
C505 C 0.79761 0.01871 0.94859 0.0
N506 N 0.81075 0.00623 0.92057 0.0
C507 C 0.86231 -0.00274 0.94751 0.0
C508 C 0.84938 0.01038 0.97678 0.0
C509 C 0.81666 0.02155 0.9768 0.0
C510 C 0.84235 0.9953 0.91953 0.0
H511 H 0.77199 0.02558 0.94948 0.0
H512 H 0.85175 0.98422 0.89726 0.0
C513 C 0.83929 0.00318 0.81514 0.0
C514 C 0.85842 0.14098 0.82136 0.0
N515 N 0.78238 0.08252 0.80401 0.0
C516 C 0.77576 0.05799 0.78231 0.0
C517 C 0.7531 0.06298 0.75702 0.0
C518 C 0.73752 0.09365 0.75388 0.0
C519 C 0.74339 0.11775 0.77789 0.0
C520 C 0.76608 0.11163 0.80284 0.0
C521 C 0.76893 0.9312 0.90701 0.0
O522 O 0.78061 0.0829 0.87746 0.0
O523 O 0.74735 0.04477 0.89712 0.0
O524 O 0.81746 0.99449 0.83572 0.0
O525 O 0.84712 0.03318 0.81212 0.0
O526 O 0.83666 0.14052 0.84367 0.0
O527 O 0.86522 0.11374 0.80791 0.0
O528 O 0.78579 0.93579 0.88119 0.0
O529 O 0.75254 0.9555 0.91768 0.0
H530 H 0.78914 0.03518 0.78349 0.0
H531 H 0.7721 0.13078 0.82026 0.0
H532 H 0.86603 0.09156 0.96432 0.0
H533 H 0.93965 0.05615 0.89607 0.0
H534 H 0.64959 0.9709 0.85351 0.0
H535 H 0.71113 0.96792 0.76673 0.0
H536 H 0.88731 0.98819 0.94635 0.0
H537 H 0.80569 0.03256 -0.00161 0.0
H538 H 0.74894 0.04358 0.73928 0.0
H539 H 0.73229 0.14188 0.77624 0.0
Cd540 Cd 0.72014 -0.0032 0.37963 0.0
Cd541 Cd 0.66758 0.90996 0.34309 0.0
C542 C 0.69603 0.97373 0.45007 0.0
N543 N 0.68335 0.98569 0.42162 0.0
C544 C 0.63156 0.99575 0.44769 0.0
C545 C 0.644 0.98309 0.47737 0.0
C546 C 0.67662 0.97165 0.47806 0.0
C547 C 0.65188 -0.00305 0.41994 0.0
H548 H 0.72159 0.96672 0.45147 0.0
H549 H 0.6429 0.0077 0.39734 0.0
C550 C 0.6567 0.9876 0.31601 0.0
C551 C 0.69142 0.91071 0.27047 0.0
C552 C 0.7112 0.90737 0.24279 0.0
C553 C 0.74555 0.90835 0.24612 0.0
C554 C 0.7591 0.91459 0.27732 0.0
C555 C 0.73825 0.91794 0.30447 0.0
N556 N 0.70514 0.91516 0.30056 0.0
H557 H 0.66503 0.90813 0.26825 0.0
H558 H 0.7486 0.92136 0.32867 0.0
C559 C 0.60295 0.93321 0.38008 0.0
N560 N 0.63416 0.92365 0.38719 0.0
C561 C 0.61909 0.91146 0.44254 0.0
C562 C 0.58598 0.91793 0.43504 0.0
C563 C 0.57831 0.93067 0.40381 0.0
C564 C 0.64282 0.91394 0.41796 0.0
H565 H 0.59654 0.93982 0.35513 0.0
H566 H 0.66754 0.90576 0.42297 0.0
C567 C 0.73726 0.91588 0.39873 0.0
C568 C 0.72525 0.0599 0.40892 0.0
N569 N 0.76644 0.00045 0.34707 0.0
C570 C 0.79527 0.00704 0.3626 0.0
C571 C 0.82255 0.01747 0.34465 0.0
C572 C 0.81994 0.02122 0.31043 0.0
C573 C 0.79048 0.01181 0.29486 0.0
C574 C 0.76374 0.00168 0.31383 0.0
C575 C 0.63711 0.84921 0.32437 0.0
O576 O 0.67845 -0.00328 0.33649 0.0
O577 O 0.64784 0.95778 0.31454 0.0
O578 O 0.71307 0.90676 0.38126 0.0
O579 O 0.7461 0.94584 0.39982 0.0
O580 O 0.7093 0.05539 0.3825 0.0
O581 O 0.74134 0.03558 0.41999 0.0
O582 O 0.66338 0.84968 0.34119 0.0
O583 O 0.62508 0.87683 0.31658 0.0
H584 H 0.79641 0.00626 0.38916 0.0
H585 H 0.74033 -0.00337 0.30224 0.0
H586 H 0.60665 0.00499 0.446 0.0
H587 H 0.68722 0.96095 0.5 0.0
H588 H 0.69968 0.90206 0.21938 0.0
H589 H 0.78547 0.91578 0.28084 0.0
H590 H 0.62631 0.90245 0.46652 0.0
H591 H 0.55315 0.93564 0.39666 0.0
H592 H 0.84459 0.02472 0.35771 0.0
H593 H 0.78761 0.01382 0.26847 0.0
Cd594 Cd 0.21911 0.49385 0.61469 0.0
Cd595 Cd 0.16812 0.57994 0.65199 0.0
C596 C 0.195 0.51619 0.54419 0.0
N597 N 0.18211 0.50447 0.57263 0.0
C598 C 0.13027 0.49499 0.54639 0.0
C599 C 0.14293 0.50747 0.51672 0.0
C600 C 0.1757 0.51847 0.51613 0.0
C601 C 0.15051 0.49357 0.57422 0.0
H602 H 0.22064 0.52295 0.54288 0.0
H603 H 0.14131 0.48302 0.59682 0.0
C604 C 0.15493 0.50209 0.6775 0.0
C605 C 0.22284 0.55466 0.70586 0.0
C606 C 0.24605 0.5594 0.73078 0.0
C607 C 0.2599 0.59071 0.73548 0.0
C608 C 0.25177 0.61589 0.71334 0.0
C609 C 0.22849 0.61009 0.6889 0.0
N610 N 0.21382 0.58023 0.68632 0.0
H611 H 0.21093 0.53111 0.70336 0.0
H612 H 0.22066 0.62999 0.67312 0.0
C613 C 0.10381 0.55761 0.61414 0.0
N614 N 0.13502 0.56725 0.60715 0.0
C615 C 0.11989 0.58 0.5519 0.0
C616 C 0.08679 0.57343 0.55934 0.0
C617 C 0.07916 0.56037 0.59043 0.0
C618 C 0.14364 0.57728 0.57646 0.0
H619 H 0.09741 0.55071 0.639 0.0
H620 H 0.16834 0.5855 0.57146 0.0
C621 C 0.23675 0.57471 0.59559 0.0
C622 C 0.22637 0.4307 0.5862 0.0
N623 N 0.26275 0.49038 0.65082 0.0
C624 C 0.29312 0.50209 0.64324 0.0
C625 C 0.32034 0.49288 0.66208 0.0
C626 C 0.31618 0.47101 0.68853 0.0
C627 C 0.28414 0.46067 0.69652 0.0
C628 C 0.25769 0.47072 0.67725 0.0
C629 C 0.13667 0.63957 0.67243 0.0
O630 O 0.17659 0.49297 0.65696 0.0
O631 O 0.14759 0.53222 0.68044 0.0
O632 O 0.21287 0.58397 0.61335 0.0
O633 O 0.24518 0.54466 0.59414 0.0
O634 O 0.20899 0.43542 0.61162 0.0
O635 O 0.24289 0.45501 0.5757 0.0
O636 O 0.15734 0.6393 0.64913 0.0
O637 O 0.13076 0.61225 0.68613 0.0
H638 H 0.29656 0.51709 0.62159 0.0
H639 H 0.23334 0.46117 0.6821 0.0
H640 H 0.10525 0.48607 0.54802 0.0
H641 H 0.1865 0.52901 0.49423 0.0
H642 H 0.25198 0.53922 0.7471 0.0
H643 H 0.2615 0.64049 0.71624 0.0
H644 H 0.12706 0.58931 0.52802 0.0
H645 H 0.054 0.55531 0.59752 0.0
H646 H 0.34447 0.50181 0.65526 0.0
H647 H 0.27962 0.44333 0.71618 0.0
Cd648 Cd 0.84122 0.66599 0.57869 0.0
Cd649 Cd 0.87954 0.71767 0.49407 0.0
C650 C 0.87964 0.60176 0.55825 0.0
N651 N 0.88654 0.63299 0.56781 0.0
C652 C 0.9415 0.61782 0.58177 0.0
C653 C 0.93412 0.58473 0.57522 0.0
C654 C 0.90322 0.57709 0.56166 0.0
C655 C 0.91704 0.64158 0.57847 0.0
H656 H 0.85489 0.59543 0.55082 0.0
H657 H 0.92196 0.6663 0.58661 0.0
C658 C 0.89732 0.73449 0.57633 0.0
C659 C 0.84908 0.79096 0.50204 0.0
C660 C 0.82974 0.81771 0.4925 0.0
C661 C 0.80388 0.81296 0.47001 0.0
C662 C 0.79698 0.78083 0.45929 0.0
C663 C 0.81675 0.7549 0.46959 0.0
N664 N 0.84257 0.76051 0.48994 0.0
H665 H 0.87027 0.79481 0.51764 0.0
H666 H 0.81276 0.73056 0.4597 0.0
C667 C 0.94828 0.69136 0.51753 0.0
N668 N 0.91976 0.67907 0.50534 0.0
C669 C 0.94529 0.62704 0.49533 0.0
C670 C 0.97511 0.63919 0.50799 0.0
C671 C 0.97608 0.6717 0.51959 0.0
C672 C 0.91775 0.64767 0.49401 0.0
H673 H 0.94988 0.71686 0.52465 0.0
H674 H 0.89512 0.63898 0.48304 0.0
C675 C 0.81647 0.65452 0.49928 0.0
C676 C 0.81623 0.63208 0.63524 0.0
N677 N 0.80769 0.7122 0.57903 0.0
C678 C 0.78837 0.7215 0.55336 0.0
C679 C 0.76363 0.74488 0.55805 0.0
C680 C 0.75889 0.7586 0.58942 0.0
C681 C 0.78084 0.75022 0.6147 0.0
C682 C 0.80509 0.72676 0.60895 0.0
C683 C 0.91107 0.72619 0.43232 0.0
O684 O 0.87984 0.71048 0.58586 0.0
O685 O 0.89875 0.7427 0.54617 0.0
O686 O 0.83678 0.67602 0.48938 0.0
O687 O 0.81435 0.64724 0.52948 0.0
O688 O 0.83949 0.65267 0.63783 0.0
O689 O 0.80475 0.62758 0.60666 0.0
O690 O 0.88521 0.70914 0.43554 0.0
O691 O 0.92073 0.74196 0.45748 0.0
H692 H 0.79085 0.70964 0.52979 0.0
H693 H 0.82064 0.71864 0.62894 0.0
H694 H 0.96526 0.62502 0.5914 0.0
H695 H 0.89613 0.55196 0.55657 0.0
H696 H 0.83571 0.84195 0.50168 0.0
H697 H 0.77781 0.77591 0.44148 0.0
H698 H 0.94342 0.60218 0.48605 0.0
H699 H -0.00186 0.68205 0.53033 0.0
H700 H 0.74741 0.75097 0.53783 0.0
H701 H 0.77787 0.75986 0.63934 0.0
Cd702 Cd 0.61452 0.2742 0.99212 0.0
Cd703 Cd 0.65261 0.32519 0.07984 0.0
C704 C 0.54501 0.29887 0.01701 0.0
N705 N 0.57333 0.31157 0.00475 0.0
C706 C 0.54746 0.36377 0.99657 0.0
C707 C 0.51788 0.35124 0.00941 0.0
C708 C 0.51721 0.31842 0.02014 0.0
C709 C 0.57506 0.34329 0.99432 0.0
H710 H 0.54353 0.27319 0.02341 0.0
H711 H 0.59751 0.35237 0.98334 0.0
C712 C 0.67793 0.3379 0.00198 0.0
C713 C 0.70729 0.27088 0.05647 0.0
C714 C 0.73218 0.24779 0.06177 0.0
C715 C 0.73626 0.23401 0.09321 0.0
C716 C 0.71357 0.24209 0.11793 0.0
C717 C 0.68916 0.26524 0.11157 0.0
N718 N 0.68718 0.27984 0.08162 0.0
H719 H 0.7052 0.28274 0.03284 0.0
H720 H 0.67287 0.27297 0.1311 0.0
C721 C 0.61397 0.38936 0.05901 0.0
N722 N 0.60737 0.35809 0.06861 0.0
C723 C 0.55241 0.37282 0.08297 0.0
C724 C 0.55949 0.40598 0.07638 0.0
C725 C 0.59022 0.41384 0.06258 0.0
C726 C 0.57702 0.34922 0.07943 0.0
H727 H 0.63862 0.39589 0.05146 0.0
H728 H 0.57247 0.32443 0.08765 0.0
C729 C 0.59696 0.25532 0.07212 0.0
C730 C 0.58464 0.26899 0.92938 0.0
N731 N 0.6514 0.23143 0.98595 0.0
C732 C 0.64585 0.20096 -0.00154 0.0
C733 C 0.66503 0.17439 0.98814 0.0
C734 C 0.6897 0.17927 0.96439 0.0
C735 C 0.6956 0.2114 0.95311 0.0
C736 C 0.67609 0.2372 0.96429 0.0
C737 C 0.67274 0.35651 0.13957 0.0
O738 O 0.65709 0.31639 0.99318 0.0
O739 O 0.68108 0.3455 0.03204 0.0
O740 O 0.61496 0.27942 0.08024 0.0
O741 O 0.59467 0.24643 0.04224 0.0
O742 O 0.61003 0.28642 0.93416 0.0
O743 O 0.57473 0.25163 0.95334 0.0
O744 O 0.64952 0.33572 0.13929 0.0
O745 O 0.68644 0.36252 0.11225 0.0
H746 H 0.62558 0.19691 0.01515 0.0
H747 H 0.67934 0.26159 0.95424 0.0
H748 H 0.54915 0.38884 0.98785 0.0
H749 H 0.4954 0.30771 0.03099 0.0
H750 H 0.74893 0.24189 0.04193 0.0
H751 H 0.71597 0.2324 0.1426 0.0
H752 H 0.5288 0.36545 0.09281 0.0
H753 H 0.59708 0.43903 0.05746 0.0
H754 H 0.65988 0.15017 -0.00213 0.0
H755 H 0.71383 0.21643 0.93438 0.0
Cd756 Cd 0.34142 0.82465 0.41666 0.0
Cd757 Cd 0.37989 0.77289 0.50146 0.0
C758 C 0.379 0.88949 0.43645 0.0
N759 N 0.38637 0.85823 0.42736 0.0
C760 C 0.4411 0.87401 0.41322 0.0
C761 C 0.43322 0.90709 0.41928 0.0
C762 C 0.40221 0.91445 0.4327 0.0
C763 C 0.417 0.84992 0.41686 0.0
H764 H 0.35416 0.89557 0.44375 0.0
H765 H 0.42227 0.82515 0.40909 0.0
C766 C 0.39816 0.75642 0.41969 0.0
C767 C 0.34898 0.69984 0.49298 0.0
C768 C 0.32952 0.67311 0.50236 0.0
C769 C 0.30378 0.67781 0.52498 0.0
C770 C 0.29711 0.70988 0.536 0.0
C771 C 0.31698 0.7358 0.52585 0.0
N772 N 0.34269 0.73022 0.50535 0.0
H773 H 0.37007 0.696 0.47727 0.0
H774 H 0.31317 0.76009 0.53593 0.0
C775 C 0.44846 0.79972 0.47814 0.0
N776 N 0.41977 0.81184 0.49009 0.0
C777 C 0.44471 0.86429 0.49949 0.0
C778 C 0.47468 0.85229 0.48708 0.0
C779 C 0.47604 0.81965 0.4759 0.0
C780 C 0.41739 0.84337 0.50102 0.0
H781 H 0.45036 0.77415 0.47135 0.0
H782 H 0.39466 0.85196 0.5118 0.0
C783 C 0.31705 0.83635 0.4959 0.0
C784 C 0.31733 0.85806 0.35946 0.0
N785 N 0.30763 0.77862 0.41645 0.0
C786 C 0.28827 0.76945 0.44211 0.0
C787 C 0.26352 0.74607 0.43748 0.0
C788 C 0.25879 0.73222 0.40616 0.0
C789 C 0.2808 0.74047 0.38089 0.0
C790 C 0.30508 0.76391 0.38659 0.0
C791 C 0.41126 0.76466 0.56328 0.0
O792 O 0.38043 0.78036 0.41048 0.0
O793 O 0.3996 0.74779 0.44972 0.0
O794 O 0.33747 0.8148 0.50546 0.0
O795 O 0.3145 0.84366 0.46574 0.0
O796 O 0.34002 0.83681 0.35733 0.0
O797 O 0.30585 0.86338 0.3879 0.0
O798 O 0.3853 0.78155 0.55998 0.0
O799 O 0.42104 0.74886 0.5382 0.0
H800 H 0.29074 0.7814 0.46565 0.0
H801 H 0.32071 0.77187 0.36662 0.0
H802 H 0.46497 0.86701 0.40374 0.0
H803 H 0.39474 0.93955 0.43741 0.0
H804 H 0.33532 0.64891 0.49294 0.0
H805 H 0.27805 0.71476 0.55392 0.0
H806 H 0.44256 0.88925 0.50843 0.0
H807 H 0.49823 0.8094 0.46536 0.0
H808 H 0.24729 0.74006 0.45771 0.0
H809 H 0.27787 0.73074 0.35628 0.0
Cd810 Cd 0.11318 0.21997 0.00204 0.0
Cd811 Cd 0.15237 0.16901 0.91501 0.0
C812 C 0.04433 0.1942 0.97665 0.0
N813 N 0.07282 0.18199 0.98901 0.0
C814 C 0.04766 0.12956 -0.00216 0.0
C815 C 0.01787 0.14165 0.98509 0.0
C816 C 0.01675 0.1743 0.97391 0.0
C817 C 0.075 0.15041 -0.00023 0.0
H818 H 0.0425 0.2198 0.97 0.0
H819 H 0.09758 0.14175 0.01084 0.0
C820 C 0.17725 0.15703 0.994 0.0
C821 C 0.21223 0.21801 0.93623 0.0
C822 C 0.23781 0.24015 0.93054 0.0
C823 C 0.23965 0.25671 0.90028 0.0
C824 C 0.21408 0.25237 0.87745 0.0
C825 C 0.18885 0.23018 0.88427 0.0
N826 N 0.18892 0.21289 0.91283 0.0
H827 H 0.2121 0.20379 0.95858 0.0
H828 H 0.1702 0.22527 0.86594 0.0
C829 C 0.11443 0.1044 0.93557 0.0
N830 N 0.10747 0.13558 0.92593 0.0
C831 C 0.05268 0.12019 0.91154 0.0
C832 C 0.06015 0.08712 0.91818 0.0
C833 C 0.09097 0.07964 0.93201 0.0
C834 C 0.07703 0.14407 0.91505 0.0
H835 H 0.13914 0.09816 0.94317 0.0
H836 H 0.0722 0.16881 0.90681 0.0
C837 C 0.0961 0.23833 0.92174 0.0
C838 C 0.08245 0.22553 0.06441 0.0
N839 N 0.14672 0.26546 0.00587 0.0
C840 C 0.13174 0.29483 0.01107 0.0
C841 C 0.15008 0.32191 0.02134 0.0
C842 C 0.1841 0.31854 0.02634 0.0
C843 C 0.19915 0.28842 0.01843 0.0
C844 C 0.1798 0.2619 0.00852 0.0
C845 C 0.17239 0.13708 0.8557 0.0
O846 O 0.15663 0.17839 0.0037 0.0
O847 O 0.1795 0.14954 0.96382 0.0
O848 O 0.11438 0.21436 0.91397 0.0
O849 O 0.09347 0.24738 0.95155 0.0
O850 O 0.10914 0.20987 0.06064 0.0
O851 O 0.07167 0.24113 0.03965 0.0
O852 O 0.15005 0.15882 0.8556 0.0
O853 O 0.18527 0.13036 0.88327 0.0
H854 H 0.10525 0.29662 0.00931 0.0
H855 H 0.19088 0.23805 0.00488 0.0
H856 H 0.04966 0.10461 0.00683 0.0
H857 H 0.99471 0.18461 0.96311 0.0
H858 H 0.25676 0.24312 0.94903 0.0
H859 H 0.21464 0.26427 0.85366 0.0
H860 H 0.02899 0.12728 0.90167 0.0
H861 H 0.09813 0.05454 0.93716 0.0
H862 H 0.13738 0.34447 0.02747 0.0
H863 H 0.22538 0.28489 0.02143 0.0
Cd864 Cd 0.58092 0.83911 0.66952 0.0
Cd865 Cd 0.49411 0.8787 0.71882 0.0
C866 C 0.55919 0.87791 0.60584 0.0
N867 N 0.5693 0.8844 0.637 0.0
C868 C 0.58421 0.93909 0.62205 0.0
C869 C 0.57717 0.93205 0.58895 0.0
C870 C 0.56281 0.90155 0.58128 0.0
C871 C 0.58069 0.91456 0.64571 0.0
H872 H 0.55126 0.85337 0.5994 0.0
H873 H 0.58941 0.91899 0.67037 0.0
C874 C 0.57537 0.89447 0.73897 0.0
C875 C 0.50147 0.84765 0.79219 0.0
C876 C 0.4917 0.82844 0.81894 0.0
C877 C 0.46779 0.80387 0.8145 0.0
C878 C 0.45565 0.79816 0.78262 0.0
C879 C 0.46626 0.81772 0.75664 0.0
N880 N 0.48821 0.84225 0.76198 0.0
H881 H 0.5184 0.86778 0.7959 0.0
H882 H 0.45562 0.81457 0.73247 0.0
C883 C 0.51916 0.94771 0.69382 0.0
N884 N 0.50668 0.91948 0.68118 0.0
C885 C 0.49777 0.94547 0.62917 0.0
C886 C 0.5108 0.97497 0.64166 0.0
C887 C 0.52199 0.97555 0.67434 0.0
C888 C 0.49576 0.91785 0.6496 0.0
H889 H 0.52593 0.94909 0.71944 0.0
H890 H 0.48457 0.89547 0.64062 0.0
C891 C 0.50244 0.81395 0.65671 0.0
C892 C 0.63994 0.81804 0.63732 0.0
N893 N 0.58237 0.80584 0.71564 0.0
C894 C 0.55614 0.78896 0.72765 0.0
C895 C 0.56081 0.76503 0.75189 0.0
C896 C 0.59276 0.75857 0.76357 0.0
C897 C 0.61887 0.778 0.75207 0.0
C898 C 0.61307 0.80156 0.728 0.0
C899 C 0.43212 0.91006 0.72511 0.0
O900 O 0.5846 0.87643 0.7153 0.0
O901 O 0.54504 0.89785 0.74577 0.0
O902 O 0.49284 0.83512 0.67755 0.0
O903 O 0.53272 0.81087 0.64995 0.0
O904 O 0.64004 0.842 0.65723 0.0
O905 O 0.61256 0.80393 0.6326 0.0
O906 O 0.43607 0.88485 0.70724 0.0
O907 O 0.4565 0.91902 0.74245 0.0
H908 H 0.53193 0.79295 0.71748 0.0
H909 H 0.63341 0.81536 0.7179 0.0
H910 H 0.59449 0.96254 0.62929 0.0
H911 H 0.55733 0.89471 0.55615 0.0
H912 H 0.502 0.83346 0.84297 0.0
H913 H 0.43676 0.78001 0.77797 0.0
H914 H 0.48872 0.94389 0.60419 0.0
H915 H 0.53294 -0.00265 0.68497 0.0
H916 H 0.53993 0.75089 0.76041 0.0
H917 H 0.64394 0.77367 0.75992 0.0
Cd918 Cd 0.0011 0.11131 0.22109 0.0
Cd919 Cd 0.91387 0.15128 0.17279 0.0
C920 C 0.97535 0.04247 0.19601 0.0
N921 N 0.98779 0.07071 0.18336 0.0
C922 C 0.995 0.04518 0.13085 0.0
C923 C 0.98197 0.01569 0.14334 0.0
C924 C 0.97165 0.01489 0.1763 0.0
C925 C -0.00215 0.07256 0.15152 0.0
H926 H 0.96926 0.04086 0.22178 0.0
H927 H 0.00896 0.09494 0.14246 0.0
C928 C 0.99224 0.17532 0.15845 0.0
C929 C 0.9398 0.20505 0.22686 0.0
C930 C 0.9353 0.23014 0.24988 0.0
C931 C 0.90414 0.23479 0.26414 0.0
C932 C 0.87897 0.21235 0.25676 0.0
C933 C 0.88453 0.18775 0.23365 0.0
N934 N 0.91416 0.18531 0.21846 0.0
H935 H 0.96315 0.20261 0.2145 0.0
H936 H 0.86458 0.1718 0.22628 0.0
C937 C 0.93439 0.11367 0.10799 0.0
N938 N 0.92438 0.10657 0.13904 0.0
C939 C 0.90857 0.05248 0.12279 0.0
C940 C 0.91561 0.06021 0.08985 0.0
C941 C 0.93034 0.09069 0.08287 0.0
C942 C 0.91262 0.07635 0.14706 0.0
H943 H 0.94262 0.13824 0.10209 0.0
H944 H 0.90402 0.07147 0.17169 0.0
C945 C 0.92031 0.09478 0.2415 0.0
C946 C 0.06388 0.08139 0.22672 0.0
N947 N 0.00696 0.14842 0.26373 0.0
C948 C 0.99438 0.1432 0.29425 0.0
C949 C 0.00463 0.1627 0.32065 0.0
C950 C 0.02835 0.18734 0.31552 0.0
C951 C 0.0397 0.19287 0.28334 0.0
C952 C 0.02862 0.17305 0.25774 0.0
C953 C 0.85464 0.17351 0.1418 0.0
O954 O 0.00176 0.15428 0.17942 0.0
O955 O 0.96194 0.17879 0.15204 0.0
O956 O 0.91108 0.11306 0.218 0.0
O957 O 0.95064 0.09179 0.2486 0.0
O958 O 0.0591 0.10671 0.20924 0.0
O959 O 0.03979 0.07135 0.24385 0.0
O960 O 0.8543 0.14988 0.16211 0.0
O961 O 0.8823 0.18671 0.13625 0.0
H962 H 0.9777 0.12297 0.29847 0.0
H963 H 0.03876 0.17603 0.23334 0.0
H964 H 0.00341 0.04693 0.10567 0.0
H965 H 0.96073 0.99311 0.18698 0.0
H966 H 0.95545 0.24671 0.25523 0.0
H967 H 0.85448 0.21521 0.26684 0.0
H968 H 0.89795 0.02901 0.12946 0.0
H969 H 0.93583 0.09803 0.05789 0.0
H970 H 0.99489 0.15781 0.34492 0.0
H971 H 0.05842 0.21105 0.27813 0.0
Cd972 Cd 0.99323 0.61465 0.27455 0.0
Cd973 Cd 0.08076 0.65306 0.3252 0.0
C974 C 0.01924 0.54537 0.29869 0.0
N975 N 0.00632 0.57336 0.31141 0.0
C976 C -0.00269 0.54696 0.36318 0.0
C977 C 0.01073 0.51768 0.35062 0.0
C978 C 0.02223 0.51743 0.31803 0.0
C979 C 0.99519 0.57467 0.34292 0.0
H980 H 0.02623 0.54423 0.27312 0.0
H981 H 0.9837 0.59688 0.35195 0.0
C982 C 0.00191 0.67838 0.33774 0.0
C983 C 0.05804 0.70772 0.27104 0.0
C984 C 0.06315 0.73221 0.24753 0.0
C985 C 0.09467 0.73655 0.23395 0.0
C986 C 0.11969 0.71442 0.24276 0.0
C987 C 0.1134 0.69018 0.26607 0.0
N988 N 0.08328 0.68791 0.28029 0.0
H989 H 0.03444 0.70561 0.28293 0.0
H990 H 0.13304 0.67419 0.27415 0.0
C991 C 0.05891 0.61371 0.38844 0.0
N992 N 0.06918 0.60747 0.35729 0.0
C993 C 0.08405 0.55266 0.37191 0.0
C994 C 0.07681 0.55943 0.40503 0.0
C995 C 0.06242 0.58989 0.41284 0.0
C996 C 0.08062 0.57738 0.34841 0.0
H997 H 0.05093 0.63819 0.39502 0.0
H998 H 0.08944 0.57317 0.32373 0.0
C999 C 0.07452 0.59886 0.2546 0.0
C1000 C 0.93116 0.58328 0.26891 0.0
N1001 N 0.98752 0.64835 0.22925 0.0
C1002 C 0.98521 0.63388 0.19924 0.0
C1003 C 0.97409 0.65187 0.17222 0.0
C1004 C 0.96522 0.68498 0.17632 0.0
C1005 C 0.97004 0.69973 0.20724 0.0
C1006 C 0.98087 0.68074 0.23362 0.0
C1007 C 0.13973 0.67325 0.35798 0.0
O1008 O 0.99216 0.65772 0.31644 0.0
O1009 O 0.03218 0.68088 0.34485 0.0
O1010 O 0.08372 0.61631 0.27875 0.0
O1011 O 0.04421 0.59622 0.24727 0.0
O1012 O 0.93483 0.60945 0.28545 0.0
O1013 O 0.95587 0.5733 0.25268 0.0
O1014 O 0.13987 0.64993 0.33731 0.0
O1015 O 0.11231 0.68707 0.36323 0.0
H1016 H 0.98999 0.60785 0.19678 0.0
H1017 H 0.98211 0.69134 0.25795 0.0
H1018 H 0.98799 0.54829 0.38807 0.0
H1019 H 0.03352 0.49583 0.30737 0.0
H1020 H 0.04301 0.7484 0.24111 0.0
H1021 H 0.14448 0.71702 0.23341 0.0
H1022 H 0.09435 0.52927 0.36454 0.0
H1023 H 0.05679 0.59655 0.43798 0.0
H1024 H 0.97043 0.63938 0.149 0.0
H1025 H 0.96402 0.72532 0.21139 0.0
Cd1026 Cd 0.50162 0.38128 0.77082 0.0
Cd1027 Cd 0.41632 0.34285 0.82099 0.0
C1028 C 0.47791 0.44985 0.79769 0.0
N1029 N 0.4896 0.42107 0.80982 0.0
C1030 C 0.49779 0.44556 0.86271 0.0
C1031 C 0.48553 0.47558 0.85074 0.0
C1032 C 0.47511 0.47721 0.81784 0.0
C1033 C 0.49983 0.41845 0.84158 0.0
H1034 H 0.47174 0.45202 0.77198 0.0
H1035 H 0.51043 0.39567 0.85022 0.0
C1036 C 0.49511 0.31839 0.83436 0.0
C1037 C 0.44265 0.29031 0.76582 0.0
C1038 C 0.43803 0.26536 0.74267 0.0
C1039 C 0.40682 0.26083 0.72847 0.0
C1040 C 0.3818 0.28345 0.73582 0.0
C1041 C 0.38749 0.30794 0.75902 0.0
N1042 N 0.4171 0.31012 0.77431 0.0
H1043 H 0.46594 0.29243 0.77834 0.0
H1044 H 0.36757 0.32385 0.76656 0.0
C1045 C 0.43517 0.37894 0.88728 0.0
N1046 N 0.42639 0.38677 0.85603 0.0
C1047 C 0.41167 0.44109 0.87254 0.0
C1048 C 0.41752 0.43273 0.90554 0.0
C1049 C 0.43107 0.40173 0.91258 0.0
C1050 C 0.41582 0.41745 0.84809 0.0
H1051 H 0.44254 0.35407 0.89306 0.0
H1052 H 0.40839 0.42306 0.82329 0.0
C1053 C 0.42065 0.40047 0.75355 0.0
C1054 C 0.56387 0.41195 0.76345 0.0
N1055 N 0.50535 0.34399 0.72815 0.0
C1056 C 0.49228 0.34975 0.69793 0.0
C1057 C 0.50151 0.33023 0.67119 0.0
C1058 C 0.52471 0.30499 0.67569 0.0
C1059 C 0.53648 0.29885 0.70762 0.0
C1060 C 0.52644 0.31875 0.73356 0.0
C1061 C 0.35758 0.31834 0.85115 0.0
O1062 O 0.50489 0.33881 0.81291 0.0
O1063 O 0.46484 0.31574 0.84124 0.0
O1064 O 0.41151 0.38239 0.77723 0.0
O1065 O 0.45064 0.40185 0.74479 0.0
O1066 O 0.56012 0.38594 0.78012 0.0
O1067 O 0.53905 0.42211 0.74746 0.0
O1068 O 0.35687 0.34322 0.83243 0.0
O1069 O 0.38539 0.30506 0.85563 0.0
H1070 H 0.47609 0.37047 0.69417 0.0
H1071 H 0.53703 0.31535 0.75772 0.0
H1072 H 0.5062 0.44318 0.88785 0.0
H1073 H 0.46475 0.49945 0.80756 0.0
H1074 H 0.45808 0.24866 0.73734 0.0
H1075 H 0.35727 0.2807 0.7258 0.0
H1076 H 0.402 0.46496 0.86588 0.0
H1077 H 0.43561 0.39399 0.93764 0.0
H1078 H 0.49151 0.33561 0.64712 0.0
H1079 H 0.55485 0.28018 0.71233 0.0
Cd1080 Cd 0.7201 0.49289 0.87936 0.0
Cd1081 Cd 0.66845 0.5792 0.84357 0.0
C1082 C 0.6944 0.51561 0.94902 0.0
N1083 N 0.68205 0.50376 0.92038 0.0
C1084 C 0.62992 0.49375 0.94582 0.0
C1085 C 0.64205 0.50627 0.97571 0.0
C1086 C 0.67468 0.51763 0.97679 0.0
C1087 C 0.65059 0.49254 0.9183 0.0
H1088 H 0.71995 0.52258 0.95073 0.0
H1089 H 0.64185 0.48183 0.89558 0.0
C1090 C 0.65669 0.50154 0.81603 0.0
C1091 C 0.693 0.57911 0.77114 0.0
C1092 C 0.71309 0.58228 0.74366 0.0
C1093 C 0.74737 0.58015 0.74719 0.0
C1094 C 0.76048 0.57299 0.77837 0.0
C1095 C 0.73932 0.56979 0.80532 0.0
N1096 N 0.70634 0.57373 0.80125 0.0
H1097 H 0.66672 0.5825 0.76877 0.0
H1098 H 0.74937 0.56559 0.82953 0.0
C1099 C 0.6035 0.55673 0.88031 0.0
N1100 N 0.63476 0.566 0.88758 0.0
C1101 C 0.61935 0.57918 0.94261 0.0
C1102 C 0.58623 0.57302 0.93489 0.0
C1103 C 0.57869 0.55992 0.90378 0.0
C1104 C 0.64326 0.57607 0.91828 0.0
H1105 H 0.59722 0.54989 0.85539 0.0
H1106 H 0.66803 0.58405 0.92339 0.0
C1107 C 0.73778 0.57376 0.8991 0.0
C1108 C 0.7268 0.43046 0.9097 0.0
N1109 N 0.76366 0.48828 0.84328 0.0
C1110 C 0.79423 0.49964 0.85067 0.0
C1111 C 0.82121 0.49011 0.83163 0.0
C1112 C 0.81657 0.46837 0.80515 0.0
C1113 C 0.78437 0.4583 0.79745 0.0
C1114 C 0.7582 0.4686 0.81693 0.0
C1115 C 0.63783 0.63975 0.82486 0.0
O1116 O 0.67839 0.4915 0.83613 0.0
O1117 O 0.64847 0.53155 0.81514 0.0
O1118 O 0.71368 0.58326 0.88174 0.0
O1119 O 0.74629 0.5437 0.90002 0.0
O1120 O 0.70939 0.43457 0.88418 0.0
O1121 O 0.7437 0.45488 0.91932 0.0
O1122 O 0.664 0.63938 0.84181 0.0
O1123 O 0.62608 0.61211 0.81673 0.0
H1124 H 0.79795 0.51472 0.87223 0.0
H1125 H 0.73372 0.45931 0.81225 0.0
H1126 H 0.60501 0.48458 0.94383 0.0
H1127 H 0.68507 0.52824 -0.00112 0.0
H1128 H 0.70192 0.58829 0.72025 0.0
H1129 H 0.78678 0.57091 0.78205 0.0
H1130 H 0.62647 0.58844 0.96653 0.0
H1131 H 0.55353 0.55517 0.89646 0.0
H1132 H 0.84551 0.49877 0.83824 0.0
H1133 H 0.77952 0.44105 0.77778 0.0
Cd1134 Cd 0.22217 0.00034 0.11306 0.0
Cd1135 Cd 0.17147 0.91465 0.15101 0.0
C1136 C 0.19617 0.97692 0.04368 0.0
N1137 N 0.18395 0.98863 0.07242 0.0
C1138 C 0.13133 -0.00242 0.04756 0.0
C1139 C 0.14336 0.98526 0.01758 0.0
C1140 C 0.17616 0.97446 0.01615 0.0
C1141 C 0.1523 -0.00075 0.07484 0.0
H1142 H 0.22183 0.97045 0.04167 0.0
H1143 H 0.14363 0.00984 0.09763 0.0
C1144 C 0.15965 0.99325 0.17698 0.0
C1145 C 0.19693 0.91783 0.22321 0.0
C1146 C 0.21706 0.91407 0.25061 0.0
C1147 C 0.2513 0.91197 0.24656 0.0
C1148 C 0.2645 0.91573 0.21483 0.0
C1149 C 0.24333 0.9195 0.18797 0.0
N1150 N 0.21021 0.9197 0.19266 0.0
H1151 H 0.17049 0.91745 0.2261 0.0
H1152 H 0.25334 0.92077 0.16343 0.0
C1153 C 0.10531 0.93571 0.11538 0.0
N1154 N 0.1365 0.92664 0.10756 0.0
C1155 C 0.12004 0.91287 0.05296 0.0
C1156 C 0.08704 0.91889 0.06128 0.0
C1157 C 0.08004 0.93215 0.09243 0.0
C1158 C 0.14443 0.91639 0.07677 0.0
H1159 H 0.0995 0.94275 0.14035 0.0
H1160 H 0.16917 0.90863 0.0712 0.0
C1161 C 0.23937 0.91942 0.09375 0.0
C1162 C 0.22873 0.0631 0.08326 0.0
N1163 N 0.26831 0.00206 0.14594 0.0
C1164 C 0.29724 0.00852 0.13058 0.0
C1165 C 0.32466 0.01811 0.14877 0.0
C1166 C 0.32208 0.02116 0.18306 0.0
C1167 C 0.29252 0.01175 0.19841 0.0
C1168 C 0.26562 0.00248 0.1792 0.0
C1169 C 0.14106 0.85474 0.17168 0.0
O1170 O 0.18109 0.00339 0.15668 0.0
O1171 O 0.15187 0.96314 0.17828 0.0
O1172 O 0.21568 0.91018 0.11179 0.0
O1173 O 0.24797 0.94943 0.09238 0.0
O1174 O 0.21325 0.05919 0.11001 0.0
O1175 O 0.24385 0.03824 0.07202 0.0
O1176 O 0.16624 0.85453 0.1533 0.0
O1177 O 0.1302 0.88262 0.1802 0.0
H1178 H 0.29835 0.0084 0.10401 0.0
H1179 H 0.24213 -0.00246 0.19066 0.0
H1180 H 0.10627 0.00628 0.04979 0.0
H1181 H 0.18648 0.96406 0.99393 0.0
H1182 H 0.2057 0.91072 0.27444 0.0
H1183 H 0.29078 0.91456 0.21068 0.0
H1184 H 0.12671 0.90345 0.02898 0.0
H1185 H 0.05499 0.93681 0.10018 0.0
H1186 H 0.34678 0.02541 0.13588 0.0
H1187 H 0.28967 0.01322 0.22484 0.0
Cd1188 Cd 0.27555 0.99403 0.61483 0.0
Cd1189 Cd 0.32524 0.08087 0.654 0.0
C1190 C 0.29882 0.01805 0.5445 0.0
N1191 N 0.312 0.0058 0.5726 0.0
C1192 C 0.36377 -0.00256 0.5459 0.0
C1193 C 0.35081 0.01042 0.51657 0.0
C1194 C 0.31793 0.02111 0.51638 0.0
C1195 C 0.34372 0.99522 0.57379 0.0
H1196 H 0.27312 0.02463 0.54349 0.0
H1197 H 0.35316 0.9843 0.59613 0.0
C1198 C 0.33901 0.00311 0.67843 0.0
C1199 C 0.26982 0.0552 0.70671 0.0
C1200 C 0.2462 0.05955 0.73129 0.0
C1201 C 0.23286 0.09096 0.73675 0.0
C1202 C 0.24201 0.11675 0.71573 0.0
C1203 C 0.26566 0.11131 0.69161 0.0
N1204 N 0.27972 0.08125 0.68827 0.0
H1205 H 0.28126 0.03149 0.70351 0.0
H1206 H 0.27416 0.13155 0.67663 0.0
C1207 C 0.38911 0.05857 0.61572 0.0
N1208 N 0.35789 0.06832 0.60894 0.0
C1209 C 0.37291 0.0821 0.55394 0.0
C1210 C 0.40606 0.07541 0.5612 0.0
C1211 C 0.41372 0.0618 0.59206 0.0
C1212 C 0.34919 0.07897 0.57849 0.0
H1213 H 0.39557 0.05128 0.64046 0.0
H1214 H 0.32447 0.08741 0.5738 0.0
C1215 C 0.25569 0.075 0.59857 0.0
C1216 C 0.26896 0.93123 0.58571 0.0
N1217 N 0.23198 0.98895 0.65093 0.0
C1218 C 0.20143 0.00052 0.64382 0.0
C1219 C 0.17445 0.99073 0.66272 0.0
C1220 C 0.17902 0.96843 0.68873 0.0
C1221 C 0.21121 0.95811 0.69618 0.0
C1222 C 0.2374 0.96875 0.67688 0.0
C1223 C 0.35718 0.14049 0.67357 0.0
O1224 O 0.31767 0.9945 0.65734 0.0
O1225 O 0.34606 0.03319 0.68235 0.0
O1226 O 0.27939 0.08444 0.61651 0.0
O1227 O 0.24885 0.04468 0.59553 0.0
O1228 O 0.28687 0.93593 0.6108 0.0
O1229 O 0.25185 0.95537 0.57579 0.0
O1230 O 0.33677 0.14001 0.65003 0.0
O1231 O 0.36235 0.11345 0.6881 0.0
H1232 H 0.19769 0.01598 0.62254 0.0
H1233 H 0.26188 0.95934 0.68136 0.0
H1234 H 0.38889 0.98872 0.54719 0.0
H1235 H 0.30691 0.03199 0.49474 0.0
H1236 H 0.2395 0.03895 0.74675 0.0
H1237 H 0.23272 0.14143 0.71928 0.0
H1238 H 0.36565 0.09177 0.53023 0.0
H1239 H 0.43888 0.05664 0.59909 0.0
H1240 H 0.15019 -0.00035 0.65632 0.0
H1241 H 0.21604 0.94047 0.71549 0.0
Cd1242 Cd 0.82416 0.41381 0.3422 0.0
Cd1243 Cd 0.77252 0.49929 0.37912 0.0
C1244 C 0.8891 0.43513 0.37926 0.0
N1245 N 0.85789 0.42577 0.38664 0.0
C1246 C 0.87386 0.41154 0.44126 0.0
C1247 C 0.90691 0.41783 0.43334 0.0
C1248 C 0.91414 0.4315 0.40243 0.0
C1249 C 0.84969 0.41516 0.41724 0.0
H1250 H 0.89513 0.44244 0.35442 0.0
H1251 H 0.82496 0.40713 0.42246 0.0
C1252 C 0.75547 0.41859 0.39852 0.0
C1253 C 0.69919 0.49119 0.34874 0.0
C1254 C 0.67231 0.50077 0.32957 0.0
C1255 C 0.67691 0.52334 0.3038 0.0
C1256 C 0.70904 0.53407 0.29678 0.0
C1257 C 0.73512 0.52369 0.31635 0.0
N1258 N 0.72964 0.50329 0.34213 0.0
H1259 H 0.69541 0.47557 0.36989 0.0
H1260 H 0.7595 0.53354 0.3123 0.0
C1261 C 0.79836 0.47638 0.44858 0.0
N1262 N 0.81073 0.48821 0.41995 0.0
C1263 C 0.8631 0.49743 0.44523 0.0
C1264 C 0.85092 0.48496 0.4751 0.0
C1265 C 0.81817 0.474 0.47626 0.0
C1266 C 0.84232 0.49903 0.4178 0.0
H1267 H 0.77273 0.4697 0.45035 0.0
H1268 H 0.85112 0.50971 0.3951 0.0
C1269 C 0.83689 0.49203 0.31679 0.0
C1270 C 0.85592 0.35452 0.32149 0.0
N1271 N 0.77831 0.41322 0.30815 0.0
C1272 C 0.76859 0.43905 0.28931 0.0
C1273 C 0.74522 0.43443 0.26452 0.0
C1274 C 0.73196 0.40296 0.25923 0.0
C1275 C 0.74082 0.37743 0.28069 0.0
C1276 C 0.76422 0.38313 0.30503 0.0
C1277 C 0.76493 0.56161 0.4092 0.0
O1278 O 0.77953 0.40954 0.38089 0.0
O1279 O 0.7465 0.4485 0.39961 0.0
O1280 O 0.81512 0.50136 0.3371 0.0
O1281 O 0.84428 0.46189 0.31412 0.0
O1282 O 0.83571 0.35467 0.3452 0.0
O1283 O 0.86104 0.38178 0.30735 0.0
O1284 O 0.78191 0.5577 0.38338 0.0
O1285 O 0.74878 0.53691 0.41933 0.0
H1286 H 0.78007 0.46276 0.29227 0.0
H1287 H 0.7726 0.36305 0.32027 0.0
H1288 H 0.86702 0.40179 0.46506 0.0
H1289 H 0.93924 0.43639 0.39498 0.0
H1290 H 0.64808 0.49155 0.33563 0.0
H1291 H 0.71386 0.55193 0.27767 0.0
H1292 H 0.88812 0.50628 0.4432 0.0
H1293 H 0.80775 0.46346 0.49837 0.0
H1294 H 0.73873 0.45485 0.24874 0.0
H1295 H 0.73157 0.35271 0.2773 0.0
C1296 C 0.01313 0.45653 0.3569 0.0
C1297 C 0.01489 0.48786 0.37129 0.0
H1298 H 0.02665 0.40619 0.35994 0.0
C1299 C 0.02503 0.49041 0.40418 0.0
H1300 H 0.0039 0.45337 0.33212 0.0
C1301 C 0.03803 0.46311 0.42049 0.0
C1302 C 0.0402 0.43257 0.40443 0.0
H1303 H 0.02513 0.51388 0.41653 0.0
H1304 H 0.04778 0.4663 0.44505 0.0
C1305 C 0.0258 0.42924 0.37317 0.0
C1306 C 0.47133 0.56356 0.87513 0.0
C1307 C 0.45497 0.55963 0.90533 0.0
H1308 H 0.49518 0.54016 0.83475 0.0
C1309 C 0.45581 0.52865 0.92067 0.0
H1310 H 0.47161 0.58696 0.8625 0.0
C1311 C 0.46934 0.50157 0.90439 0.0
C1312 C 0.48133 0.50483 0.8722 0.0
H1313 H 0.44461 0.52498 0.94453 0.0
H1314 H 0.46819 0.47778 0.91603 0.0
C1315 C 0.48452 0.53651 0.85888 0.0
C1316 C 0.52581 0.00199 0.5882 0.0
C1317 C 0.51496 0.00468 0.62084 0.0
H1318 H 0.54932 0.02602 0.54768 0.0
C1319 C 0.51265 0.0361 0.63497 0.0
H1320 H 0.5263 0.97844 0.57604 0.0
C1321 C 0.52542 0.06338 0.61877 0.0
C1322 C 0.54053 0.05994 0.58788 0.0
H1323 H 0.5029 0.03934 0.65953 0.0
H1324 H 0.52579 0.08656 0.63182 0.0
C1325 C 0.53898 0.02928 0.57199 0.0
C1326 C 0.95239 0.96207 0.07358 0.0
C1327 C 0.95089 0.93124 0.08918 0.0
H1328 H 0.96525 0.01283 0.07793 0.0
C1329 C 0.96627 0.92754 0.11993 0.0
H1330 H 0.94191 0.96561 0.04936 0.0
C1331 C 0.97939 0.95463 0.1362 0.0
C1332 C 0.97709 0.98617 0.12237 0.0
H1333 H 0.96596 0.9043 0.13284 0.0
H1334 H 0.98948 0.95111 0.16059 0.0
C1335 C 0.9658 0.98918 0.0899 0.0
C1336 C 0.35702 0.01297 0.45534 0.0
C1337 C 0.37135 0.01512 0.4867 0.0
H1338 H 0.3599 0.02616 0.40485 0.0
C1339 C 0.40396 0.02617 0.48925 0.0
H1340 H 0.33247 0.00313 0.45218 0.0
C1341 C 0.41999 0.03946 0.46191 0.0
C1342 C 0.40402 0.0409 0.43125 0.0
H1343 H 0.41631 0.02661 0.51272 0.0
H1344 H 0.44431 0.04982 0.46512 0.0
C1345 C 0.37307 0.02582 0.42798 0.0
C1346 C 0.08965 0.96966 0.99127 0.0
C1347 C 0.122 0.98131 0.98819 0.0
H1348 H 0.04937 0.94533 0.96762 0.0
C1349 C 0.13553 0.98439 0.95657 0.0
H1350 H 0.07785 0.96859 0.015 0.0
C1351 C 0.11928 0.97138 0.92941 0.0
C1352 C 0.08889 0.95532 0.93318 0.0
H1353 H 0.1598 0.99479 0.95307 0.0
H1354 H 0.13206 0.97153 0.90608 0.0
C1355 C 0.07337 0.95632 0.96408 0.0
C1356 C 0.90458 0.46956 0.5016 0.0
C1357 C 0.87213 0.48096 0.50458 0.0
H1358 H 0.94489 0.44532 0.52529 0.0
C1359 C 0.8584 0.4837 0.53615 0.0
H1360 H 0.91653 0.46877 0.47793 0.0
C1361 C 0.87461 0.47064 0.56331 0.0
C1362 C 0.90514 0.45484 0.55958 0.0
H1363 H 0.83404 0.4939 0.5396 0.0
H1364 H 0.86175 0.47055 0.58659 0.0
C1365 C 0.9208 0.45612 0.52877 0.0
C1366 C 0.63473 0.50774 0.0368 0.0
C1367 C 0.62085 0.51003 0.00525 0.0
H1368 H 0.63131 0.52117 0.08718 0.0
C1369 C 0.58816 0.52077 0.00232 0.0
H1370 H 0.65927 0.498 0.04026 0.0
C1371 C 0.5718 0.53409 0.02946 0.0
C1372 C 0.58755 0.53589 0.0602 0.0
H1373 H 0.5761 0.52118 0.97869 0.0
H1374 H 0.5475 0.54441 0.026 0.0
C1375 C 0.61837 0.52068 0.06393 0.0
C1376 C 0.46368 0.42105 0.03778 0.0
C1377 C 0.43302 0.40514 0.03976 0.0
H1378 H 0.51446 0.41701 0.02473 0.0
C1379 C 0.42948 0.37419 0.0248 0.0
H1380 H 0.467 0.44543 0.0479 0.0
C1381 C 0.45668 0.35799 0.0118 0.0
C1382 C 0.48816 0.3721 0.01381 0.0
H1383 H 0.40633 0.36109 0.02543 0.0
H1384 H 0.45332 0.33344 0.0021 0.0
C1385 C 0.4909 0.40479 0.02448 0.0
C1386 C 0.99119 0.08793 0.97031 0.0
C1387 C 0.98832 0.1205 0.98128 0.0
H1388 H 0.96731 0.04742 0.94663 0.0
C1389 C 0.95679 0.13434 0.98393 0.0
H1390 H 0.01486 0.07593 0.9696 0.0
C1391 C 0.92957 0.11813 0.971 0.0
C1392 C 0.93319 0.08746 0.9555 0.0
H1393 H 0.95342 0.1588 0.99387 0.0
H1394 H 0.90636 0.13114 0.97069 0.0
C1395 C 0.96392 0.07164 0.95713 0.0
C1396 C 0.56292 0.8757 0.47326 0.0
C1397 C 0.55928 0.90595 0.45697 0.0
H1398 H 0.53904 0.83555 0.49697 0.0
C1399 C 0.52854 0.9218 0.45815 0.0
H1400 H 0.58615 0.86272 0.47334 0.0
C1401 C 0.50128 0.90584 0.47171 0.0
C1402 C 0.50416 0.87352 0.4834 0.0
H1403 H 0.52517 0.94574 0.44705 0.0
H1404 H 0.4776 0.91779 0.47069 0.0
C1405 C 0.5357 0.85979 0.48651 0.0
C1406 C 0.03622 0.63222 0.50885 0.0
C1407 C 0.00478 0.61819 0.51153 0.0
H1408 H 0.08669 0.62935 0.52212 0.0
C1409 C 0.0021 0.58566 0.52265 0.0
H1410 H 0.03942 0.65667 0.49884 0.0
C1411 C 0.02942 0.56966 0.53606 0.0
C1412 C 0.06006 0.58566 0.53758 0.0
H1413 H 0.97851 0.57352 0.52333 0.0
H1414 H 0.02619 0.54552 0.54675 0.0
C1415 C 0.06353 0.61624 0.52188 0.0
C1416 C 0.9708 0.50015 0.5879 0.0
C1417 C 0.98209 0.50299 0.62038 0.0
H1418 H 0.94653 0.52395 0.5477 0.0
C1419 C 0.98478 0.53449 0.63426 0.0
H1420 H 0.9701 0.47654 0.57583 0.0
C1421 C 0.9716 0.56166 0.61821 0.0
C1422 C 0.95579 0.55803 0.58767 0.0
H1423 H 0.99495 0.53785 0.65864 0.0
H1424 H 0.97141 0.58485 0.63122 0.0
C1425 C 0.95728 0.52733 0.57183 0.0
C1426 C 0.52224 0.49032 0.08927 0.0
C1427 C 0.51119 0.48747 0.12184 0.0
H1428 H 0.54638 0.46663 0.04894 0.0
C1429 C 0.50897 0.45598 0.13581 0.0
H1430 H 0.52261 0.51388 0.07711 0.0
C1431 C 0.52227 0.42887 0.11971 0.0
C1432 C 0.53775 0.43255 0.08903 0.0
H1433 H 0.49898 0.45256 0.16025 0.0
H1434 H 0.52277 0.4057 0.13275 0.0
C1435 C 0.53588 0.46321 0.07316 0.0
C1436 C 0.46889 0.99201 0.40554 0.0
C1437 C 0.4806 0.9888 0.37326 0.0
H1438 H 0.4446 0.96852 0.44591 0.0
C1439 C 0.4836 0.95715 0.35981 0.0
H1440 H 0.46788 0.01578 0.41723 0.0
C1441 C 0.47055 0.93007 0.37613 0.0
C1442 C 0.45454 0.93394 0.40652 0.0
H1443 H 0.49405 0.95353 0.3356 0.0
H1444 H 0.4707 0.9067 0.36344 0.0
C1445 C 0.45554 0.9649 0.42192 0.0
C1446 C 0.03733 0.02955 0.92128 0.0
C1447 C 0.03876 0.06028 0.90548 0.0
H1448 H 0.02489 0.97867 0.91712 0.0
C1449 C 0.0233 0.0638 0.87476 0.0
H1450 H 0.04786 0.02621 0.9455 0.0
C1451 C 0.01045 0.03653 0.85856 0.0
C1452 C 0.0131 0.00505 0.87247 0.0
H1453 H 0.02349 0.08699 0.86176 0.0
H1454 H 0.00049 0.03985 0.83409 0.0
C1455 C 0.02416 0.00228 0.90505 0.0
C1456 C 0.63722 0.98138 0.53852 0.0
C1457 C 0.62308 0.97926 0.50709 0.0
H1458 H 0.63415 0.96786 0.58887 0.0
C1459 C 0.59033 0.96866 0.50437 0.0
H1460 H 0.66185 0.99098 0.54181 0.0
C1461 C 0.57412 0.95533 0.53157 0.0
C1462 C 0.59006 0.95343 0.56222 0.0
H1463 H 0.57807 0.96838 0.48084 0.0
H1464 H 0.54976 0.94513 0.52821 0.0
C1465 C 0.62101 0.96846 0.56574 0.0
C1466 C 0.91875 0.03788 0.03208 0.0
C1467 C 0.90256 0.03956 0.06261 0.0
H1468 H 0.91517 0.02545 0.98116 0.0
C1469 C 0.87134 0.025 0.0656 0.0
H1470 H 0.94327 0.04782 0.02911 0.0
C1471 C 0.85526 0.01254 0.03806 0.0
C1472 C 0.86982 0.01461 0.00681 0.0
H1473 H 0.85802 0.02551 0.08862 0.0
H1474 H 0.83052 0.00313 0.041 0.0
C1475 C 0.90266 0.02506 0.00455 0.0
C1476 C 0.08946 0.52243 0.48955 0.0
C1477 C 0.12213 0.51157 0.48693 0.0
H1478 H 0.04908 0.54621 0.46561 0.0
C1479 C 0.13633 0.50942 0.45552 0.0
H1480 H 0.07716 0.5228 0.51305 0.0
C1481 C 0.1203 0.52255 0.42827 0.0
C1482 C 0.08944 0.5378 0.43171 0.0
H1483 H 0.16087 0.49961 0.45227 0.0
H1484 H 0.13352 0.52312 0.4052 0.0
C1485 C 0.0734 0.53588 0.46231 0.0
C1486 C 0.40403 0.46818 0.99057 0.0
C1487 C 0.37139 0.4791 0.9878 0.0
H1488 H 0.44458 0.44462 0.9666 0.0
C1489 C 0.35731 0.48142 0.95635 0.0
H1490 H 0.41617 0.46768 0.01415 0.0
C1491 C 0.37358 0.46869 0.92907 0.0
C1492 C 0.40448 0.45357 0.93257 0.0
H1493 H 0.33275 0.49118 0.95306 0.0
H1494 H 0.36061 0.46838 0.90583 0.0
C1495 C 0.42028 0.45502 0.9633 0.0
C1496 C 0.56334 0.61599 0.97241 0.0
C1497 C 0.55949 0.58559 0.95643 0.0
H1498 H 0.53977 0.65661 0.99565 0.0
C1499 C 0.52856 0.57012 0.95754 0.0
H1500 H 0.58671 0.62872 0.97251 0.0
C1501 C 0.5014 0.58649 0.9708 0.0
C1502 C 0.50456 0.61887 0.98227 0.0
H1503 H 0.52499 0.54611 0.94664 0.0
H1504 H 0.47761 0.57477 0.96977 0.0
C1505 C 0.53621 0.63232 0.98536 0.0
C1506 C 0.00183 0.90549 0.02602 0.0
C1507 C 0.00476 0.87307 0.01462 0.0
H1508 H 0.02574 0.94587 0.04993 0.0
C1509 C 0.03628 0.85926 0.01187 0.0
H1510 H 0.97813 0.91738 0.02688 0.0
C1511 C 0.06354 0.87548 0.02468 0.0
C1512 C 0.05997 0.90611 0.04028 0.0
H1513 H 0.03964 0.83486 0.00176 0.0
H1514 H 0.08683 0.86261 0.02469 0.0
C1515 C 0.02912 0.92176 0.03919 0.0
C1516 C 0.46362 0.07212 0.53818 0.0
C1517 C 0.43281 0.08784 0.53952 0.0
H1518 H 0.51445 0.0762 0.52528 0.0
C1519 C 0.42908 0.1182 0.52343 0.0
H1520 H 0.46713 0.04812 0.54912 0.0
C1521 C 0.45619 0.13415 0.50997 0.0
C1522 C 0.48778 0.12042 0.51267 0.0
H1523 H 0.40583 0.13114 0.52351 0.0
H1524 H 0.45269 0.15834 0.49945 0.0
C1525 C 0.49077 0.08815 0.52447 0.0
C1526 C 0.96463 0.4207 0.45589 0.0
C1527 C 0.93387 0.40493 0.4544 0.0
H1528 H 0.01558 0.41642 0.46833 0.0
C1529 C 0.93037 0.37406 0.46952 0.0
H1530 H 0.96794 0.44499 0.44555 0.0
C1531 C 0.95766 0.35776 0.48217 0.0
C1532 C 0.98915 0.37175 0.47973 0.0
H1533 H 0.90713 0.36109 0.4692 0.0
H1534 H 0.95438 0.33319 0.49187 0.0
C1535 C 0.99194 0.40437 0.46892 0.0
C1536 C 0.23307 0.41377 0.30982 0.0
C1537 C 0.22511 0.40354 0.27781 0.0
H1538 H 0.22437 0.40788 0.3613 0.0
C1539 C 0.19915 0.38116 0.27332 0.0
H1540 H 0.25267 0.43131 0.31399 0.0
C1541 C 0.18289 0.36773 0.30043 0.0
C1542 C 0.19231 0.37644 0.33249 0.0
H1543 H 0.19264 0.37256 0.24897 0.0
H1544 H 0.16392 0.34952 0.29628 0.0
C1545 C 0.21686 0.40034 0.33689 0.0
C1546 C 0.28198 0.5996 0.82526 0.0
C1547 C 0.30771 0.62259 0.82398 0.0
H1548 H 0.24688 0.57134 0.79825 0.0
C1549 C 0.32019 0.63208 0.7932 0.0
H1550 H 0.27198 0.59163 0.84861 0.0
C1551 C 0.30592 0.62024 0.76426 0.0
C1552 C 0.27901 0.59858 0.76555 0.0
H1553 H 0.3402 0.64956 0.79144 0.0
H1554 H 0.31528 0.62883 0.74086 0.0
C1555 C 0.26782 0.58768 0.79636 0.0
C1556 C 0.71615 0.10439 0.66409 0.0
C1557 C 0.68907 0.12573 0.66571 0.0
H1558 H 0.75265 0.07761 0.69062 0.0
C1559 C 0.67596 0.13393 0.6966 0.0
H1560 H 0.72673 0.0975 0.64064 0.0
C1561 C 0.69067 0.12222 0.72537 0.0
C1562 C 0.71871 0.10206 0.72377 0.0
H1563 H 0.65493 0.15013 0.6986 0.0
H1564 H 0.68057 0.12957 0.74888 0.0
C1565 C 0.73081 0.0927 0.69279 0.0
C1566 C 0.77414 0.89644 0.15853 0.0
C1567 C 0.79863 0.87241 0.16245 0.0
H1568 H 0.73884 0.92751 0.18206 0.0
C1569 C 0.80833 0.86338 0.19433 0.0
H1570 H 0.76645 0.90427 0.13427 0.0
C1571 C 0.79241 0.87664 0.22174 0.0
C1572 C 0.76655 0.89923 0.21774 0.0
H1573 H 0.82728 0.84505 0.19811 0.0
H1574 H 0.79913 0.86779 0.24594 0.0
C1575 C 0.75832 0.90976 0.18589 0.0
C1576 C 0.33028 0.21721 0.38679 0.0
C1577 C 0.32821 0.18898 0.36706 0.0
H1578 H 0.30437 0.25427 0.41332 0.0
C1579 C 0.29727 0.17465 0.36145 0.0
H1580 H 0.35377 0.2288 0.39165 0.0
C1581 C 0.26881 0.18911 0.37425 0.0
C1582 C 0.27079 0.21813 0.39291 0.0
H1583 H 0.29495 0.15273 0.34653 0.0
H1584 H 0.24522 0.17794 0.36899 0.0
C1585 C 0.30192 0.23164 0.39953 0.0
C1586 C 0.20147 0.82139 0.86143 0.0
C1587 C 0.17069 0.80883 0.87085 0.0
H1588 H 0.25384 0.81666 0.86488 0.0
C1589 C 0.16941 0.78322 0.89394 0.0
H1590 H 0.20323 0.84132 0.84388 0.0
C1591 C 0.19831 0.7692 0.906 0.0
C1592 C 0.22914 0.78044 0.89515 0.0
H1593 H 0.14605 0.77317 0.90187 0.0
H1594 H 0.19642 0.74832 0.9224 0.0
C1595 C 0.23043 0.80727 0.87342 0.0
C1596 C 0.7971 0.26776 0.58615 0.0
C1597 C 0.7662 0.28041 0.59509 0.0
H1598 H 0.84925 0.27034 0.59239 0.0
C1599 C 0.76486 0.30811 0.61571 0.0
H1600 H 0.79904 0.24618 0.57069 0.0
C1601 C 0.79373 0.32182 0.62843 0.0
C1602 C 0.82448 0.30801 0.62083 0.0
H1603 H 0.74143 0.3186 0.6228 0.0
H1604 H 0.79187 0.34254 0.64503 0.0
C1605 C 0.82591 0.28139 0.5989 0.0
C1606 C 0.66508 0.70881 0.09655 0.0
C1607 C 0.66675 0.68263 0.11898 0.0
H1608 H 0.69168 0.74419 0.06831 0.0
C1609 C 0.69763 0.66948 0.12718 0.0
H1610 H 0.64162 0.71931 0.08956 0.0
C1611 C 0.72639 0.68362 0.11477 0.0
C1612 C 0.72478 0.71106 0.09385 0.0
H1613 H 0.69967 0.6491 0.14417 0.0
H1614 H 0.74993 0.67381 0.12247 0.0
C1615 C 0.69379 0.72285 0.08407 0.0
C1616 C 0.37081 0.26254 0.18381 0.0
C1617 C 0.39552 0.263 0.20803 0.0
H1618 H 0.33868 0.29075 0.15309 0.0
C1619 C 0.40927 0.29335 0.21722 0.0
H1620 H 0.36007 0.23954 0.17579 0.0
C1621 C 0.39717 0.32263 0.20406 0.0
C1622 C 0.37096 0.32221 0.18155 0.0
H1623 H 0.42803 0.29473 0.23606 0.0
H1624 H 0.4074 0.34565 0.21266 0.0
C1625 C 0.35857 0.29186 0.17079 0.0
C1626 C 0.86227 0.20236 0.8217 0.0
C1627 C 0.87364 0.17192 0.81006 0.0
H1628 H 0.86349 0.2547 0.81621 0.0
C1629 C 0.89821 0.17132 0.7858 0.0
H1630 H 0.84356 0.2036 0.84061 0.0
C1631 C 0.90967 0.20052 0.77195 0.0
C1632 C 0.89671 0.23091 0.78201 0.0
H1633 H 0.90765 0.14823 0.77652 0.0
H1634 H 0.92719 0.1991 0.75195 0.0
C1635 C 0.87365 0.2316 0.80775 0.0
C1636 C 0.58437 0.79 0.27595 0.0
C1637 C 0.59975 0.7598 0.28263 0.0
H1638 H 0.58408 0.84192 0.28398 0.0
C1639 C 0.62519 0.75887 0.30608 0.0
H1640 H 0.56496 0.79173 0.2578 0.0
C1641 C 0.63648 0.78779 0.32078 0.0
C1642 C 0.62244 0.81819 0.31246 0.0
H1643 H 0.63719 0.73591 0.31219 0.0
H1644 H 0.65696 0.78643 0.33775 0.0
C1645 C 0.59556 0.81888 0.29075 0.0
C1646 C 0.08642 0.69862 0.72351 0.0
C1647 C 0.09825 0.72918 0.71261 0.0
H1648 H 0.08936 0.64633 0.71938 0.0
C1649 C 0.12041 0.73005 0.6861 0.0
H1650 H 0.06964 0.69707 0.74413 0.0
C1651 C 0.1319 0.7009 0.67203 0.0
C1652 C 0.12155 0.67034 0.68432 0.0
H1653 H 0.12972 0.75326 0.67699 0.0
H1654 H 0.14983 0.70232 0.65239 0.0
C1655 C 0.09799 0.66951 0.70955 0.0
C1656 C 0.76057 0.57881 0.68705 0.0
C1657 C 0.76883 0.58892 0.71904 0.0
H1658 H 0.76914 0.58447 0.63552 0.0
C1659 C 0.79522 0.61083 0.72337 0.0
H1660 H 0.74066 0.5616 0.68297 0.0
C1661 C 0.81163 0.62392 0.69614 0.0
C1662 C 0.80191 0.61536 0.66412 0.0
H1663 H 0.80199 0.61932 0.74768 0.0
H1664 H 0.83096 0.64179 0.70017 0.0
C1665 C 0.77689 0.59192 0.65989 0.0
C1666 C 0.70966 0.39543 0.16943 0.0
C1667 C 0.68457 0.37173 0.17034 0.0
H1668 H 0.74412 0.42405 0.19686 0.0
C1669 C 0.67238 0.36138 0.20095 0.0
H1670 H 0.71942 0.40406 0.14621 0.0
C1671 C 0.68642 0.37305 0.23008 0.0
C1672 C 0.71281 0.39537 0.22913 0.0
H1673 H 0.65285 0.34334 0.20243 0.0
H1674 H 0.67737 0.36377 0.25333 0.0
C1675 C 0.7236 0.40716 0.19851 0.0
C1676 C 0.26535 0.91399 0.30658 0.0
C1677 C 0.27221 0.90216 0.27484 0.0
H1678 H 0.27423 0.9093 0.35818 0.0
C1679 C 0.29652 0.87787 0.27099 0.0
H1680 H 0.24716 0.93307 0.31033 0.0
C1681 C 0.31221 0.86438 0.29843 0.0
C1682 C 0.30378 0.87481 0.33024 0.0
H1683 H 0.30216 0.86795 0.24694 0.0
H1684 H 0.3299 0.84482 0.29479 0.0
C1685 C 0.28087 0.90038 0.33398 0.0
C1686 C 0.20916 0.09775 0.8262 0.0
C1687 C 0.18432 0.1217 0.82506 0.0
H1688 H 0.24383 0.06909 0.79909 0.0
C1689 C 0.17258 0.13226 0.79435 0.0
H1690 H 0.21855 0.08893 0.84951 0.0
C1691 C 0.18691 0.12066 0.76537 0.0
C1692 C 0.21318 0.09822 0.76658 0.0
H1693 H 0.15322 0.15047 0.79269 0.0
H1694 H 0.17825 0.13014 0.74205 0.0
C1695 C 0.22343 0.0861 0.79726 0.0
C1696 C 0.73014 0.80458 0.6189 0.0
C1697 C 0.72882 0.77767 0.59727 0.0
H1698 H 0.70297 0.83866 0.64842 0.0
C1699 C 0.69799 0.76631 0.58654 0.0
H1700 H 0.75356 0.81402 0.62737 0.0
C1701 C 0.66909 0.78028 0.59867 0.0
C1702 C 0.67041 0.80597 0.62168 0.0
H1703 H 0.69611 0.74537 0.57021 0.0
H1704 H 0.64572 0.77013 0.59089 0.0
C1705 C 0.70119 0.81867 0.63093 0.0
C1706 C 0.76455 0.18815 0.12343 0.0
C1707 C 0.7662 0.21495 0.10168 0.0
H1708 H 0.7913 0.15385 0.15312 0.0
C1709 C 0.79719 0.226 0.09111 0.0
H1710 H 0.74101 0.17889 0.13176 0.0
C1711 C 0.8259 0.21175 0.10336 0.0
C1712 C 0.82426 0.18609 0.12639 0.0
H1713 H 0.79936 0.24685 0.07472 0.0
H1714 H 0.84938 0.22162 0.09558 0.0
C1715 C 0.79333 0.17381 0.13563 0.0
C1716 C 0.20098 0.67238 0.36443 0.0
C1717 C 0.17023 0.68504 0.3738 0.0
H1718 H 0.25335 0.67695 0.36796 0.0
C1719 C 0.16897 0.71053 0.39704 0.0
H1720 H 0.20271 0.65253 0.34677 0.0
C1721 C 0.1979 0.72441 0.40921 0.0
C1722 C 0.22871 0.71314 0.39832 0.0
H1723 H 0.14563 0.72065 0.40492 0.0
H1724 H 0.19605 0.74525 0.42567 0.0
C1725 C 0.22996 0.68636 0.37653 0.0
C1726 C 0.30092 0.26201 0.89839 0.0
C1727 C 0.26978 0.27503 0.89086 0.0
H1728 H 0.35292 0.26546 0.89178 0.0
C1729 C 0.2679 0.30379 0.87179 0.0
H1730 H 0.3033 0.23959 0.91254 0.0
C1731 C 0.29649 0.31848 0.85955 0.0
C1732 C 0.32747 0.30465 0.86612 0.0
H1733 H 0.24431 0.3146 0.86583 0.0
H1734 H 0.29425 0.3402 0.84433 0.0
C1735 C 0.32941 0.27666 0.8862 0.0
C1736 C 0.58506 0.69897 0.77662 0.0
C1737 C 0.59994 0.72925 0.78406 0.0
H1738 H 0.58536 0.64693 0.78376 0.0
C1739 C 0.62488 0.73016 0.80802 0.0
H1740 H 0.56603 0.69727 0.75806 0.0
C1741 C 0.63633 0.70117 0.8224 0.0
C1742 C 0.6229 0.67073 0.81326 0.0
H1743 H 0.63646 0.75318 0.81471 0.0
H1744 H 0.65649 0.70252 0.83976 0.0
C1745 C 0.59639 0.67002 0.79112 0.0
C1746 C 0.13784 0.79334 0.17398 0.0
C1747 C 0.12618 0.82415 0.18426 0.0
H1748 H 0.13615 0.74123 0.18079 0.0
C1749 C 0.10138 0.82558 0.20823 0.0
H1750 H 0.15668 0.79146 0.15525 0.0
C1751 C 0.08988 0.79692 0.22308 0.0
C1752 C 0.10275 0.76613 0.21412 0.0
H1753 H 0.0918 0.84897 0.21659 0.0
H1754 H 0.07219 0.79917 0.24285 0.0
C1755 C 0.12614 0.76459 0.18868 0.0
C1756 C 0.39626 0.17053 0.71017 0.0
C1757 C 0.37315 0.17119 0.68452 0.0
H1758 H 0.42523 0.1984 0.74395 0.0
C1759 C 0.36433 0.20154 0.67064 0.0
H1760 H 0.40375 0.14749 0.7212 0.0
C1761 C 0.3769 0.23081 0.68353 0.0
C1762 C 0.3986 0.23024 0.71043 0.0
H1763 H 0.3468 0.2028 0.65062 0.0
H1764 H 0.36876 0.25394 0.67317 0.0
C1765 C 0.40889 0.19973 0.72296 0.0
C1766 C 0.86271 0.29342 0.32332 0.0
C1767 C 0.87159 0.32394 0.30986 0.0
H1768 H 0.86673 0.24105 0.31987 0.0
C1769 C 0.89437 0.32487 0.28394 0.0
H1770 H 0.84543 0.29194 0.34353 0.0
C1771 C 0.90661 0.29579 0.2705 0.0
C1772 C 0.89626 0.26517 0.28265 0.0
H1773 H 0.90189 0.34804 0.27321 0.0
H1774 H 0.92272 0.29735 0.24935 0.0
C1775 C 0.87489 0.26429 0.30979 0.0
C1776 C 0.18843 0.35253 0.55549 0.0
C1777 C 0.19593 0.35453 0.52184 0.0
H1778 H 0.19299 0.37502 0.60276 0.0
C1779 C 0.21917 0.37778 0.51118 0.0
H1780 H 0.17096 0.3346 0.56457 0.0
C1781 C 0.23205 0.40074 0.53316 0.0
C1782 C 0.22172 0.40096 0.56608 0.0
H1783 H 0.22593 0.37955 0.48548 0.0
H1784 H 0.24799 0.41986 0.52372 0.0
C1785 C 0.20118 0.37562 0.57743 0.0
C1786 C 0.26263 0.5915 0.02976 0.0
C1787 C 0.27345 0.59179 0.06255 0.0
H1788 H 0.26802 0.61188 0.98167 0.0
C1789 C 0.29445 0.61708 0.07312 0.0
H1790 H 0.24631 0.57241 0.0209 0.0
C1791 C 0.30696 0.63973 0.05059 0.0
C1792 C 0.29877 0.63731 0.01711 0.0
H1793 H 0.30305 0.61805 0.09831 0.0
H1794 H 0.32469 0.6577 0.05909 0.0
C1795 C 0.27527 0.61401 0.00721 0.0
C1796 C 0.68597 0.1376 0.43977 0.0
C1797 C 0.69411 0.13616 0.47332 0.0
H1798 H 0.69011 0.11469 0.39263 0.0
C1799 C 0.71759 0.11312 0.4839 0.0
H1800 H 0.66825 0.15532 0.43074 0.0
C1801 C 0.73037 0.09006 0.46197 0.0
C1802 C 0.71972 0.08948 0.42913 0.0
H1803 H 0.72479 0.11171 0.5095 0.0
H1804 H 0.74672 0.07126 0.47137 0.0
C1805 C 0.69862 0.1144 0.41787 0.0
C1806 C 0.80731 0.8536 0.93879 0.0
C1807 C 0.79811 0.85502 0.97206 0.0
H1808 H 0.80458 0.87654 0.8916 0.0
C1809 C 0.77402 0.87776 0.98187 0.0
H1810 H 0.82549 0.83606 0.93035 0.0
C1811 C 0.76182 0.90075 0.95957 0.0
C1812 C 0.77366 0.90151 0.92716 0.0
H1813 H 0.76598 0.8791 0.00722 0.0
H1814 H 0.74503 0.91942 0.96844 0.0
C1815 C 0.79521 0.87671 0.91653 0.0
C1816 C 0.52993 0.23223 0.39892 0.0
C1817 C 0.56315 0.22285 0.39867 0.0
H1818 H 0.4822 0.22498 0.37817 0.0
C1819 C 0.57481 0.20298 0.37293 0.0
H1820 H 0.52024 0.24763 0.41837 0.0
C1821 C 0.55299 0.18986 0.34994 0.0
C1822 C 0.51914 0.19633 0.35239 0.0
H1823 H 0.60038 0.19557 0.37195 0.0
H1824 H 0.5624 0.17292 0.33168 0.0
C1825 C 0.50807 0.21901 0.37601 0.0
C1826 C 0.96655 0.76193 0.9027 0.0
C1827 C 0.93328 0.77106 0.90143 0.0
H1828 H 0.01476 0.76919 0.88312 0.0
C1829 C 0.92221 0.79067 0.87523 0.0
H1830 H 0.9758 0.74677 0.92254 0.0
C1831 C 0.94455 0.80366 0.85268 0.0
C1832 C 0.97835 0.79732 0.85604 0.0
H1833 H 0.89663 0.79792 0.87348 0.0
H1834 H 0.93553 0.82033 0.83398 0.0
C1835 C 0.98892 0.77503 0.88024 0.0
C1836 C 0.02697 0.26079 0.58989 0.0
C1837 C 0.0605 0.26889 0.59155 0.0
H1838 H 0.97888 0.2691 0.60932 0.0
C1839 C 0.072 0.2875 0.61828 0.0
H1840 H 0.01739 0.24637 0.56966 0.0
C1841 C 0.04992 0.30067 0.64098 0.0
C1842 C 0.01596 0.2955 0.63725 0.0
H1843 H 0.09778 0.29393 0.62035 0.0
H1844 H 0.05932 0.31665 0.6601 0.0
C1845 C 0.00486 0.27405 0.61251 0.0
C1846 C 0.48642 0.71836 0.11425 0.0
C1847 C 0.47559 0.69574 0.13801 0.0
H1848 H 0.47384 0.74699 0.07203 0.0
C1849 C 0.44177 0.6892 0.14073 0.0
H1850 H 0.51226 0.72437 0.11188 0.0
C1851 C 0.41972 0.70226 0.1179 0.0
C1852 C 0.43112 0.72218 0.09209 0.0
H1853 H 0.43255 0.67224 0.15907 0.0
H1854 H 0.39417 0.6948 0.11909 0.0
C1855 C 0.46434 0.73157 0.09154 0.0
C1856 C 0.37471 0.57283 0.20322 0.0
C1857 C 0.40051 0.56208 0.22354 0.0
H1858 H 0.33389 0.55905 0.1731 0.0
C1859 C 0.4013 0.5291 0.23361 0.0
H1860 H 0.37332 0.59819 0.19525 0.0
C1861 C 0.37889 0.50658 0.22067 0.0
C1862 C 0.35521 0.51672 0.19761 0.0
H1863 H 0.42081 0.52011 0.24937 0.0
H1864 H 0.38145 0.4809 0.2272 0.0
C1865 C 0.35218 0.55035 0.1904 0.0
C1866 C 0.85517 0.94464 0.8052 0.0
C1867 C 0.85807 0.97802 0.79691 0.0
H1868 H 0.87616 0.89662 0.80145 0.0
C1869 C 0.88155 0.98747 0.77338 0.0
H1870 H 0.83706 0.93649 0.82295 0.0
C1871 C 0.90375 0.96454 0.7608 0.0
C1872 C 0.90298 0.93182 0.77171 0.0
H1873 H 0.88405 0.01293 0.76605 0.0
H1874 H 0.92303 0.97304 0.74451 0.0
C1875 C 0.8775 0.92174 0.79276 0.0
C1876 C 0.61976 0.0688 0.29113 0.0
C1877 C 0.59387 0.05841 0.27073 0.0
H1878 H 0.6603 0.05446 0.32136 0.0
C1879 C 0.59259 0.02541 0.26074 0.0
H1880 H 0.62152 0.09416 0.29904 0.0
C1881 C 0.61462 0.00258 0.27378 0.0
C1882 C 0.63842 0.01242 0.29685 0.0
H1883 H 0.57299 0.01669 0.24494 0.0
H1884 H 0.61168 0.97693 0.2673 0.0
C1885 C 0.64192 0.04601 0.30403 0.0
C1886 C 0.11192 0.48702 0.7188 0.0
C1887 C 0.13592 0.47724 0.69593 0.0
H1888 H 0.07009 0.47285 0.74731 0.0
C1889 C 0.13925 0.44369 0.68847 0.0
H1890 H 0.10904 0.51263 0.72546 0.0
C1891 C 0.11694 0.42088 0.70108 0.0
C1892 C 0.09104 0.43119 0.72149 0.0
H1893 H 0.15776 0.43527 0.67127 0.0
H1894 H 0.11869 0.39556 0.69305 0.0
C1895 C 0.08974 0.46416 0.73157 0.0
C1896 C 0.79006 0.61651 0.419 0.0
C1897 C 0.76997 0.59072 0.43012 0.0
H1898 H 0.82052 0.6572 0.43227 0.0
C1899 C 0.76072 0.58974 0.46336 0.0
H1900 H 0.7974 0.61802 0.39345 0.0
C1901 C 0.77426 0.61198 0.48569 0.0
C1902 C 0.79707 0.63567 0.47509 0.0
H1903 H 0.74518 0.57022 0.47264 0.0
H1904 H 0.76835 0.60928 0.51151 0.0
C1905 C 0.80346 0.63886 0.4413 0.0
C1906 C 0.73276 0.40206 0.9636 0.0
C1907 C 0.72184 0.40146 0.93085 0.0
H1908 H 0.72734 0.38227 0.01195 0.0
C1909 C 0.70067 0.37614 0.92065 0.0
H1910 H 0.74915 0.4212 0.9722 0.0
C1911 C 0.68808 0.35383 0.94346 0.0
C1912 C 0.69634 0.3566 0.97689 0.0
H1913 H 0.69199 0.37493 0.89549 0.0
H1914 H 0.67024 0.33585 0.93522 0.0
C1915 C 0.72003 0.37988 0.98645 0.0
C1916 C 0.2626 0.90171 0.53252 0.0
C1917 C 0.27341 0.90168 0.56531 0.0
H1918 H 0.26806 0.88086 0.48462 0.0
C1919 C 0.29407 0.87625 0.57622 0.0
H1920 H 0.24656 0.92091 0.52343 0.0
C1921 C 0.30645 0.85329 0.55396 0.0
C1922 C 0.29848 0.85555 0.52043 0.0
H1923 H 0.30259 0.87547 0.60144 0.0
H1924 H 0.32399 0.83526 0.5627 0.0
C1925 C 0.27515 0.87889 0.51022 0.0
C1926 C 0.20233 0.11762 0.07408 0.0
C1927 C 0.22327 0.09253 0.06286 0.0
H1928 H 0.17133 0.158 0.06099 0.0
C1929 C 0.23338 0.09262 0.02986 0.0
H1930 H 0.19427 0.11832 0.09945 0.0
C1931 C 0.22002 0.11517 0.00776 0.0
C1932 C 0.19646 0.13813 0.01832 0.0
H1933 H 0.24964 0.07372 0.02051 0.0
H1934 H 0.22672 0.11329 0.98206 0.0
C1935 C 0.18906 0.14028 0.05199 0.0
C1936 C 0.44422 0.8018 0.64101 0.0
C1937 C 0.47794 0.79505 0.63767 0.0
H1938 H 0.39621 0.79661 0.62023 0.0
C1939 C 0.48821 0.77255 0.61352 0.0
H1940 H 0.43542 0.81863 0.65968 0.0
C1941 C 0.46565 0.75968 0.59107 0.0
C1942 C 0.43249 0.76924 0.59231 0.0
H1943 H 0.51397 0.7664 0.61063 0.0
H1944 H 0.4747 0.74438 0.57125 0.0
C1945 C 0.42169 0.78902 0.61849 0.0
C1946 C 0.00644 0.21733 0.11597 0.0
C1947 C 0.01674 0.19391 0.13918 0.0
H1948 H 0.01961 0.24657 0.0744 0.0
C1949 C 0.05035 0.18618 0.14147 0.0
H1950 H 0.98079 0.22423 0.11395 0.0
C1951 C 0.07265 0.19911 0.11882 0.0
C1952 C 0.06171 0.22003 0.09361 0.0
H1953 H 0.05915 0.16857 0.15939 0.0
H1954 H 0.09797 0.19088 0.11971 0.0
C1955 C 0.02875 0.23035 0.09343 0.0
C1956 C 0.98789 0.71904 0.38172 0.0
C1957 C 0.97751 0.69703 0.35716 0.0
H1958 H 0.97458 0.74641 0.42458 0.0
C1959 C 0.94376 0.69036 0.35385 0.0
H1960 H 0.01367 0.72511 0.38463 0.0
C1961 C 0.92135 0.70269 0.37671 0.0
C1962 C 0.93226 0.72199 0.4032 0.0
H1963 H 0.93487 0.67387 0.33492 0.0
H1964 H 0.89585 0.69517 0.37492 0.0
C1965 C 0.96543 0.73149 0.40451 0.0
C1966 C 0.50899 0.27659 0.87718 0.0
C1967 C 0.51945 0.29981 0.85384 0.0
H1968 H 0.52191 0.24772 0.91913 0.0
C1969 C 0.55307 0.3075 0.85173 0.0
H1970 H 0.48332 0.26973 0.87909 0.0
C1971 C 0.5752 0.29483 0.87468 0.0
C1972 C 0.5641 0.27412 0.89999 0.0
H1973 H 0.562 0.32497 0.83373 0.0
H1974 H 0.60053 0.30305 0.87393 0.0
C1975 C 0.53116 0.26375 0.9 0.0
C1976 C 0.61898 0.42155 0.78842 0.0
C1977 C 0.593 0.43288 0.76863 0.0
H1978 H 0.65981 0.43449 0.81889 0.0
C1979 C 0.5919 0.46622 0.75987 0.0
H1980 H 0.6206 0.39591 0.79538 0.0
C1981 C 0.61418 0.4884 0.77361 0.0
C1982 C 0.63803 0.47755 0.79617 0.0
H1983 H 0.57225 0.47567 0.74457 0.0
H1984 H 0.61138 0.51429 0.76809 0.0
C1985 C 0.64136 0.4437 0.80203 0.0
C1986 C 0.11909 0.07271 0.2017 0.0
C1987 C 0.09354 0.06117 0.22188 0.0
H1988 H 0.16043 0.0602 0.17179 0.0
C1989 C 0.09367 0.02816 0.2319 0.0
H1990 H 0.11977 0.09812 0.1938 0.0
C1991 C 0.11681 0.00634 0.21905 0.0
C1992 C 0.1403 0.01723 0.19615 0.0
H1993 H 0.07437 0.01859 0.24756 0.0
H1994 H 0.11497 0.98058 0.22551 0.0
C1995 C 0.14235 0.05094 0.189 0.0
C1996 C 0.40408 0.96408 0.73178 0.0
C1997 C 0.40323 0.93147 0.72054 0.0
H1998 H 0.38429 0.0125 0.7272 0.0
C1999 C 0.37759 0.92156 0.6996 0.0
H2000 H 0.4235 0.97242 0.748 0.0
C2001 C 0.35512 0.94455 0.68761 0.0
C2002 C 0.35804 0.97785 0.69624 0.0
H2003 H 0.37618 0.89652 0.69069 0.0
H2004 H 0.33683 0.93653 0.66997 0.0
C2005 C 0.38174 0.98711 0.71965 0.0
C2006 C 0.90277 0.52935 0.26329 0.0
C2007 C 0.90209 0.56221 0.27381 0.0
H2008 H 0.88251 0.48121 0.26869 0.0
C2009 C 0.87632 0.57279 0.29423 0.0
H2010 H 0.92225 0.52048 0.24744 0.0
C2011 C 0.85352 0.55026 0.30645 0.0
C2012 C 0.85624 0.51675 0.29858 0.0
H2013 H 0.87504 0.59804 0.30257 0.0
H2014 H 0.83513 0.55882 0.32372 0.0
C2015 C 0.88011 0.50678 0.27566 0.0
C2016 C 0.2152 0.09092 0.5547 0.0
C2017 C 0.23713 0.09996 0.57983 0.0
H2018 H 0.18223 0.10738 0.517 0.0
C2019 C 0.24239 0.13347 0.58622 0.0
H2020 H 0.21088 0.06528 0.54898 0.0
C2021 C 0.22607 0.15742 0.56804 0.0
C2022 C 0.20417 0.14854 0.54284 0.0
H2023 H 0.25903 0.14134 0.60549 0.0
H2024 H 0.23009 0.18296 0.57435 0.0
C2025 C 0.19888 0.115 0.53634 0.0
C2026 C 0.2386 0.86621 0.06379 0.0
C2027 C 0.25589 0.89457 0.0732 0.0
H2028 H 0.23999 0.81997 0.03913 0.0
C2029 C 0.28869 0.89838 0.06324 0.0
H2030 H 0.21304 0.8629 0.07052 0.0
C2031 C 0.30446 0.87329 0.04575 0.0
C2032 C 0.28748 0.84425 0.03743 0.0
H2033 H 0.3025 0.92009 0.07008 0.0
H2034 H 0.33031 0.87613 0.04004 0.0
C2035 C 0.25409 0.84153 0.04583 0.0
C2036 C 0.69022 0.37255 0.44636 0.0
C2037 C 0.70708 0.34345 0.45465 0.0
H2038 H 0.69233 0.41936 0.42211 0.0
C2039 C 0.74044 0.34057 0.44617 0.0
H2040 H 0.66439 0.3755 0.45211 0.0
C2041 C 0.75601 0.36519 0.42821 0.0
C2042 C 0.73885 0.39367 0.4189 0.0
H2043 H 0.75445 0.31894 0.45281 0.0
H2044 H 0.78155 0.36177 0.42143 0.0
C2045 C 0.70607 0.39758 0.42889 0.0
C2046 C 0.73795 0.62651 0.92984 0.0
C2047 C 0.75498 0.59838 0.91937 0.0
H2048 H 0.74009 0.67244 0.95502 0.0
C2049 C 0.7882 0.59465 0.92791 0.0
H2050 H 0.7121 0.62973 0.9242 0.0
C2051 C 0.80455 0.61962 0.94505 0.0
C2052 C 0.78777 0.64845 0.95443 0.0
H2053 H 0.80183 0.57312 0.92021 0.0
H2054 H 0.83063 0.61688 0.94966 0.0
C2055 C 0.75403 0.65106 0.94746 0.0
C2056 C 0.55483 0.23863 0.15308 0.0
C2057 C 0.5437 0.2062 0.14903 0.0
H2058 H 0.58065 0.27922 0.13223 0.0
C2059 C 0.54876 0.19052 0.11857 0.0
H2060 H 0.55073 0.25175 0.17587 0.0
C2061 C 0.5655 0.20659 0.09317 0.0
C2062 C 0.57789 0.23842 0.09795 0.0
H2063 H 0.5409 0.1654 0.11469 0.0
H2064 H 0.56962 0.19374 0.07022 0.0
C2065 C 0.57196 0.25441 0.12799 0.0
C2066 C 0.92625 0.73554 0.63022 0.0
C2067 C 0.91741 0.75184 0.60108 0.0
H2068 H 0.95031 0.73835 0.67675 0.0
C2069 C 0.92767 0.78441 0.59635 0.0
H2070 H 0.9193 0.71016 0.63432 0.0
C2071 C 0.94502 0.80088 0.62111 0.0
C2072 C 0.95286 0.78487 0.65083 0.0
H2073 H 0.92128 0.79749 0.57405 0.0
H2074 H 0.9511 0.82652 0.61745 0.0
C2075 C 0.94401 0.75173 0.65462 0.0
C2076 C 0.05387 0.25333 0.84045 0.0
C2077 C 0.0422 0.28563 0.844 0.0
H2078 H 0.08033 0.21346 0.86189 0.0
C2079 C 0.04701 0.30181 0.87426 0.0
H2080 H 0.04998 0.2398 0.81786 0.0
C2081 C 0.06398 0.28636 0.89992 0.0
C2082 C 0.07688 0.25466 0.89562 0.0
H2083 H 0.03874 0.32684 0.87778 0.0
H2084 H 0.06784 0.29958 0.92271 0.0
C2085 C 0.07125 0.23818 0.86578 0.0
C2086 C 0.44473 0.74037 0.34114 0.0
C2087 C 0.45357 0.70717 0.34446 0.0
H2088 H 0.42005 0.78163 0.36206 0.0
C2089 C 0.44588 0.69076 0.37398 0.0
H2090 H 0.45093 0.75403 0.31916 0.0
C2091 C 0.42863 0.70689 0.39902 0.0
C2092 C 0.41831 0.73951 0.39473 0.0
H2093 H 0.45195 0.66507 0.37727 0.0
H2094 H 0.42231 0.6935 0.42114 0.0
C2095 C 0.42705 0.75622 0.3658 0.0
C2096 C 0.09085 0.55661 0.21252 0.0
C2097 C 0.09971 0.58028 0.23608 0.0
H2098 H 0.10755 0.52028 0.17819 0.0
C2099 C 0.13322 0.58529 0.24296 0.0
H2100 H 0.06523 0.55193 0.2069 0.0
C2101 C 0.15732 0.56724 0.22664 0.0
C2102 C 0.1486 0.54358 0.20304 0.0
H2103 H 0.141 0.60336 0.26092 0.0
H2104 H 0.18288 0.57246 0.232 0.0
C2105 C 0.11507 0.53843 0.19615 0.0
C2106 C 0.63406 0.90519 0.75293 0.0
C2107 C 0.60067 0.91287 0.75745 0.0
H2108 H 0.68383 0.91599 0.76531 0.0
C2109 C 0.5922 0.93904 0.77834 0.0
H2110 H 0.64149 0.88507 0.73715 0.0
C2111 C 0.61673 0.95727 0.79421 0.0
C2112 C 0.65016 0.94959 0.78951 0.0
H2113 H 0.56669 0.94573 0.78207 0.0
H2114 H 0.60955 0.9775 0.80993 0.0
C2115 C 0.65843 0.92323 0.76881 0.0
C2116 C 0.87965 0.03346 0.29891 0.0
C2117 C 0.84615 0.03856 0.29184 0.0
H2118 H 0.92951 0.04729 0.28868 0.0
C2119 C 0.8375 0.06235 0.26837 0.0
H2120 H 0.8871 0.01522 0.3168 0.0
C2121 C 0.86162 0.08065 0.25241 0.0
C2122 C 0.8951 0.07576 0.25953 0.0
H2123 H 0.81196 0.06752 0.26287 0.0
H2124 H 0.85389 0.09885 0.23458 0.0
C2125 C 0.90391 0.05188 0.28288 0.0
C2126 C 0.3738 0.44809 0.68869 0.0
C2127 C 0.34494 0.45658 0.70593 0.0
H2128 H 0.42065 0.42374 0.69029 0.0
C2129 C 0.34262 0.44842 0.7394 0.0
H2130 H 0.37634 0.4536 0.66278 0.0
C2131 C 0.36746 0.43051 0.7547 0.0
C2132 C 0.39566 0.42099 0.73718 0.0
H2133 H 0.32124 0.45526 0.75372 0.0
H2134 H 0.36439 0.42391 0.78031 0.0
C2135 C 0.39909 0.43071 0.70429 0.0
C2136 C 0.80275 0.87036 0.44686 0.0
C2137 C 0.786 0.84123 0.45529 0.0
H2138 H 0.80043 0.91701 0.42233 0.0
C2139 C 0.75267 0.83814 0.44674 0.0
H2140 H 0.82854 0.87346 0.45269 0.0
C2141 C 0.737 0.86258 0.4286 0.0
C2142 C 0.75405 0.89106 0.41913 0.0
H2143 H 0.73875 0.81649 0.4535 0.0
H2144 H 0.71147 0.85903 0.42184 0.0
C2145 C 0.7868 0.89519 0.42917 0.0
C2146 C 0.69118 0.12123 0.94277 0.0
C2147 C 0.70751 0.15105 0.94942 0.0
H2148 H 0.69378 0.07353 0.92039 0.0
C2149 C 0.74038 0.15457 0.93936 0.0
H2150 H 0.66571 0.11775 0.94972 0.0
C2151 C 0.756 0.12967 0.9218 0.0
C2152 C 0.73942 0.10029 0.91441 0.0
H2153 H 0.75403 0.17678 0.9447 0.0
H2154 H 0.78119 0.1335 0.91401 0.0
C2155 C 0.70709 0.09597 0.92567 0.0
C2156 C 0.23675 0.62825 0.56617 0.0
C2157 C 0.2536 0.59952 0.57524 0.0
H2158 H 0.23872 0.67458 0.54176 0.0
C2159 C 0.28627 0.59524 0.565 0.0
H2160 H 0.21129 0.63196 0.57312 0.0
C2161 C 0.30232 0.62014 0.54751 0.0
C2162 C 0.28577 0.6495 0.53948 0.0
H2163 H 0.29975 0.57324 0.57157 0.0
H2164 H 0.32806 0.6169 0.54153 0.0
C2165 C 0.2525 0.65275 0.54821 0.0
C2166 C 0.21311 0.40261 0.05515 0.0
C2167 C 0.23594 0.39394 0.07961 0.0
H2168 H 0.17938 0.38557 0.01839 0.0
C2169 C 0.24212 0.36051 0.08563 0.0
H2170 H 0.20806 0.42816 0.0497 0.0
C2171 C 0.22578 0.33628 0.06784 0.0
C2172 C 0.20291 0.34477 0.04338 0.0
H2173 H 0.2595 0.35291 0.10433 0.0
H2174 H 0.23054 0.31082 0.0739 0.0
C2175 C 0.19675 0.37823 0.03718 0.0
C2176 C 0.44357 0.75305 0.83949 0.0
C2177 C 0.45347 0.78594 0.84295 0.0
H2178 H 0.41839 0.71223 0.86067 0.0
C2179 C 0.44707 0.80221 0.87286 0.0
H2180 H 0.44875 0.73948 0.81719 0.0
C2181 C 0.43012 0.78626 0.8982 0.0
C2182 C 0.41882 0.75398 0.89387 0.0
H2183 H 0.45398 0.82767 0.87628 0.0
H2184 H 0.42484 0.79956 0.92066 0.0
C2185 C 0.4262 0.73739 0.86449 0.0
C2186 C 0.05319 0.23836 0.33961 0.0
C2187 C 0.04327 0.20552 0.34354 0.0
H2188 H 0.07854 0.27945 0.36009 0.0
C2189 C 0.05012 0.18957 0.37352 0.0
H2190 H 0.04768 0.25172 0.31726 0.0
C2191 C 0.06737 0.2058 0.3985 0.0
C2192 C 0.07854 0.23807 0.39375 0.0
H2193 H 0.04326 0.16415 0.3773 0.0
H2194 H 0.07284 0.19277 0.42107 0.0
C2195 C 0.07087 0.2543 0.36424 0.0
C2196 C 0.95642 0.69888 0.11649 0.0
C2197 C 0.94775 0.70295 0.14974 0.0
H2198 H 0.94617 0.71173 0.06637 0.0
C2199 C 0.92088 0.72319 0.15759 0.0
H2200 H 0.97706 0.68353 0.10964 0.0
C2201 C 0.90338 0.7393 0.13299 0.0
C2202 C 0.91208 0.73546 0.09979 0.0
H2203 H 0.91288 0.7262 0.1828 0.0
H2204 H 0.88287 0.75474 0.1401 0.0
C2205 C 0.93871 0.71496 0.09173 0.0
C2206 C 0.5461 0.30328 0.61755 0.0
C2207 C 0.53895 0.28694 0.64726 0.0
H2208 H 0.56928 0.3006 0.57018 0.0
C2209 C 0.5483 0.25389 0.65067 0.0
H2210 H 0.53962 0.32885 0.61417 0.0
C2211 C 0.56603 0.23818 0.62596 0.0
C2212 C 0.57425 0.25485 0.59686 0.0
H2213 H 0.54252 0.24026 0.67278 0.0
H2214 H 0.57349 0.21292 0.62981 0.0
C2215 C 0.56336 0.28726 0.59245 0.0
C2216 C 0.84218 0.44643 0.75362 0.0
C2217 C 0.84496 0.4539 0.78722 0.0
H2218 H 0.8632 0.42249 0.71199 0.0
C2219 C 0.87388 0.44471 0.804 0.0
H2220 H 0.82073 0.45382 0.73967 0.0
C2221 C 0.89875 0.42726 0.7878 0.0
C2222 C 0.89485 0.41823 0.75475 0.0
H2223 H 0.87675 0.44973 0.82998 0.0
H2224 H 0.92035 0.41972 0.80145 0.0
C2225 C 0.86661 0.42851 0.73771 0.0
C2226 C 0.33965 0.06174 0.22561 0.0
C2227 C 0.3483 0.03815 0.20194 0.0
H2228 H 0.35598 0.09818 0.25949 0.0
C2229 C 0.38179 0.0332 0.19475 0.0
H2230 H 0.3141 0.0668 0.23121 0.0
C2231 C 0.40604 0.05166 0.21077 0.0
C2232 C 0.39721 0.07544 0.23423 0.0
H2233 H 0.38924 0.01512 0.17669 0.0
H2234 H 0.43163 0.04727 0.20483 0.0
C2235 C 0.36374 0.08008 0.24155 0.0
C2236 C 0.15335 0.94538 0.7398 0.0
C2237 C 0.15054 0.95378 0.70642 0.0
H2238 H 0.13197 0.92098 0.78097 0.0
C2239 C 0.12135 0.94559 0.68958 0.0
H2240 H 0.175 0.95199 0.75382 0.0
C2241 C 0.09615 0.92835 0.70551 0.0
C2242 C 0.09998 0.9185 0.73833 0.0
H2243 H 0.11842 0.95129 0.66376 0.0
H2244 H 0.07429 0.92167 0.69181 0.0
C2245 C 0.12858 0.92766 0.75542 0.0
C2246 C 0.59419 0.56366 0.28713 0.0
C2247 C 0.59812 0.57381 0.25442 0.0
H2248 H 0.61628 0.54022 0.32871 0.0
C2249 C 0.62672 0.5647 0.23731 0.0
H2250 H 0.57232 0.57026 0.30083 0.0
C2251 C 0.65139 0.54675 0.25283 0.0
C2252 C 0.64847 0.53804 0.28611 0.0
H2253 H 0.6302 0.57161 0.21183 0.0
H2254 H 0.67309 0.54024 0.23884 0.0
C2255 C 0.61927 0.54616 0.30295 0.0
loop_
_geom_bond_atom_site_label_1
_geom_bond_atom_site_label_2
_geom_bond_distance
_geom_bond_site_symmetry_2
_ccdc_geom_bond_type
Cd0 N3 2.334 . S
Cd0 N29 2.304 . S
Cd0 O36 2.268 . S
Cd0 O39 2.273 . S
Cd0 O40 2.417 . S
Cd0 O41 2.330 . S
Cd1 N16 2.304 . S
Cd1 N20 2.334 . S
Cd1 O37 2.273 . S
Cd1 O38 2.268 . S
Cd1 O42 2.417 . S
Cd1 O43 2.330 . S
C2 N3 1.332 . S
C2 C6 1.381 . S
C2 H8 0.931 . S
N3 Cd0 2.334 . S
N3 C2 1.332 . S
N3 C7 1.328 . S
C4 C5 1.396 . S
C4 C7 1.378 . S
C4 H46 0.931 . S
C5 C4 1.396 . S
C5 C6 1.382 . S
C6 C2 1.381 . S
C6 C5 1.382 . S
C6 H47 0.930 . S
C7 N3 1.328 . S
C7 C4 1.378 . S
C7 H9 0.930 . S
H8 C2 0.931 . S
H9 C7 0.930 . S
C10 O36 1.238 . S
C10 O37 1.253 . S
C11 C12 1.379 . S
C11 N16 1.337 . S
C11 H17 0.929 . S
C12 C11 1.379 . S
C12 C13 1.380 . S
C12 H48 0.929 . S
C13 C12 1.380 . S
C13 C14 1.399 . S
C14 C13 1.399 . S
C14 C15 1.376 . S
C14 H49 0.931 . S
C15 C14 1.376 . S
C15 N16 1.338 . S
C15 H18 0.930 . S
N16 Cd1 2.304 . S
N16 C11 1.337 . S
N16 C15 1.338 . S
H17 C11 0.929 . S
H18 C15 0.930 . S
C19 N20 1.332 . S
C19 C23 1.381 . S
C19 H25 0.931 . S
N20 Cd1 2.334 . S
N20 C19 1.332 . S
N20 C24 1.328 . S
C21 C22 1.396 . S
C21 C24 1.378 . S
C21 H50 0.931 . S
C22 C21 1.396 . S
C22 C23 1.382 . S
C23 C19 1.381 . S
C23 C22 1.382 . S
C23 H51 0.958 . S
C24 N20 1.328 . S
C24 C21 1.378 . S
C24 H26 0.930 . S
H25 C19 0.931 . S
H26 C24 0.930 . S
C27 O38 1.238 . S
C27 O39 1.253 . S
C28 O40 1.239 . S
C28 O41 1.230 . S
N29 Cd0 2.304 . S
N29 C30 1.337 . S
N29 C34 1.338 . S
C30 N29 1.337 . S
C30 C31 1.379 . S
C30 H44 0.929 . S
C31 C30 1.379 . S
C31 C32 1.380 . S
C31 H52 0.929 . S
C32 C31 1.380 . S
C32 C33 1.399 . S
C33 C32 1.399 . S
C33 C34 1.376 . S
C33 H53 0.931 . S
C34 N29 1.338 . S
C34 C33 1.376 . S
C34 H45 0.930 . S
C35 O42 1.239 . S
C35 O43 1.230 . S
O36 Cd0 2.268 . S
O36 C10 1.238 . S
O37 Cd1 2.273 . S
O37 C10 1.253 . S
O38 Cd1 2.268 . S
O38 C27 1.238 . S
O39 Cd0 2.273 . S
O39 C27 1.253 . S
O40 Cd0 2.417 . S
O40 C28 1.239 . S
O41 Cd0 2.330 . S
O41 C28 1.230 . S
O42 Cd1 2.417 . S
O42 C35 1.239 . S
O43 Cd1 2.330 . S
O43 C35 1.230 . S
H44 C30 0.929 . S
H45 C34 0.930 . S
H46 C4 0.931 . S
H47 C6 0.930 . S
H48 C12 0.929 . S
H49 C14 0.931 . S
H50 C21 0.931 . S
H51 C23 0.958 . S
H52 C31 0.929 . S
H53 C33 0.931 . S
Cd54 N57 2.334 . S
Cd54 N83 2.304 1_556 S
Cd54 O90 2.268 . S
Cd54 O93 2.273 . S
Cd54 O94 2.417 1_556 S
Cd54 O95 2.330 1_556 S
Cd55 N70 2.304 . S
Cd55 N74 2.334 . S
Cd55 O91 2.273 . S
Cd55 O92 2.268 . S
Cd55 O96 2.417 . S
Cd55 O97 2.330 . S
C56 N57 1.332 . S
C56 C60 1.381 . S
C56 H62 0.931 . S
N57 Cd54 2.334 . S
N57 C56 1.332 . S
N57 C61 1.328 . S
C58 C59 1.396 . S
C58 C61 1.378 . S
C58 H100 0.931 . S
C59 C58 1.396 . S
C59 C60 1.382 . S
C60 C56 1.381 . S
C60 C59 1.382 . S
C60 H101 0.930 . S
C61 N57 1.328 . S
C61 C58 1.378 . S
C61 H63 0.930 . S
H62 C56 0.931 . S
H63 C61 0.930 . S
C64 O90 1.238 . S
C64 O91 1.253 . S
C65 C66 1.379 . S
C65 N70 1.337 . S
C65 H71 0.929 . S
C66 C65 1.379 . S
C66 C67 1.380 . S
C66 H102 0.929 . S
C67 C66 1.380 . S
C67 C68 1.399 . S
C68 C67 1.399 . S
C68 C69 1.376 . S
C68 H103 0.931 . S
C69 C68 1.376 . S
C69 N70 1.338 . S
C69 H72 0.930 . S
N70 Cd55 2.304 . S
N70 C65 1.337 . S
N70 C69 1.338 . S
H71 C65 0.929 . S
H72 C69 0.930 . S
C73 N74 1.332 . S
C73 C77 1.381 . S
C73 H79 0.931 . S
N74 Cd55 2.334 . S
N74 C73 1.332 . S
N74 C78 1.328 . S
C75 C76 1.396 . S
C75 C78 1.378 . S
C75 H104 0.931 . S
C76 C75 1.396 . S
C76 C77 1.382 . S
C77 C73 1.381 . S
C77 C76 1.382 . S
C77 H105 0.930 . S
C78 N74 1.328 . S
C78 C75 1.378 . S
C78 H80 0.930 . S
H79 C73 0.931 . S
H80 C78 0.930 . S
C81 O92 1.238 . S
C81 O93 1.253 . S
C82 O94 1.239 . S
C82 O95 1.230 . S
N83 Cd54 2.304 1_554 S
N83 C84 1.337 1_554 S
N83 C88 1.338 . S
C84 N83 1.337 1_556 S
C84 C85 1.379 1_556 S
C84 H98 0.929 . S
C85 C84 1.379 1_554 S
C85 C86 1.380 . S
C85 H106 0.929 1_554 S
C86 C85 1.380 . S
C86 C87 1.399 . S
C87 C86 1.399 . S
C87 C88 1.376 . S
C87 H107 0.931 . S
C88 N83 1.338 . S
C88 C87 1.376 . S
C88 H99 0.930 . S
C89 O96 1.239 . S
C89 O97 1.230 . S
O90 Cd54 2.268 . S
O90 C64 1.238 . S
O91 Cd55 2.273 . S
O91 C64 1.253 . S
O92 Cd55 2.268 . S
O92 C81 1.238 . S
O93 Cd54 2.273 . S
O93 C81 1.253 . S
O94 Cd54 2.417 1_554 S
O94 C82 1.239 . S
O95 Cd54 2.330 1_554 S
O95 C82 1.230 . S
O96 Cd55 2.417 . S
O96 C89 1.239 . S
O97 Cd55 2.330 . S
O97 C89 1.230 . S
H98 C84 0.929 . S
H99 C88 0.930 . S
H100 C58 0.931 . S
H101 C60 0.930 . S
H102 C66 0.929 . S
H103 C68 0.931 . S
H104 C75 0.931 . S
H105 C77 0.930 . S
H106 C85 0.929 1_556 S
H107 C87 0.931 . S
Cd108 N111 2.334 . S
Cd108 N137 2.304 . S
Cd108 O144 2.268 . S
Cd108 O147 2.273 . S
Cd108 O148 2.417 . S
Cd108 O149 2.330 . S
Cd109 N124 2.304 . S
Cd109 N128 2.334 . S
Cd109 O145 2.273 . S
Cd109 O146 2.268 . S
Cd109 O150 2.417 . S
Cd109 O151 2.330 . S
C110 N111 1.332 . S
C110 C114 1.381 . S
C110 H116 0.931 . S
N111 Cd108 2.334 . S
N111 C110 1.332 . S
N111 C115 1.328 . S
C112 C113 1.396 . S
C112 C115 1.378 . S
C112 H154 0.931 . S
C113 C112 1.396 . S
C113 C114 1.382 . S
C114 C110 1.381 . S
C114 C113 1.382 . S
C114 H155 0.930 . S
C115 N111 1.328 . S
C115 C112 1.378 . S
C115 H117 0.930 . S
H116 C110 0.931 . S
H117 C115 0.930 . S
C118 O144 1.238 . S
C118 O145 1.253 . S
C119 C120 1.379 . S
C119 N124 1.337 . S
C119 H125 0.929 . S
C120 C119 1.379 . S
C120 C121 1.380 . S
C120 H156 0.929 . S
C121 C120 1.380 . S
C121 C122 1.399 . S
C122 C121 1.399 . S
C122 C123 1.376 . S
C122 H157 0.931 . S
C123 C122 1.376 . S
C123 N124 1.338 . S
C123 H126 0.930 . S
N124 Cd109 2.304 . S
N124 C119 1.337 . S
N124 C123 1.338 . S
H125 C119 0.929 . S
H126 C123 0.930 . S
C127 N128 1.332 . S
C127 C131 1.381 . S
C127 H133 0.931 . S
N128 Cd109 2.334 . S
N128 C127 1.332 . S
N128 C132 1.328 . S
C129 C130 1.396 . S
C129 C132 1.378 . S
C129 H158 0.931 . S
C130 C129 1.396 . S
C130 C131 1.382 . S
C131 C127 1.381 . S
C131 C130 1.382 . S
C131 H159 0.930 . S
C132 N128 1.328 . S
C132 C129 1.378 . S
C132 H134 0.930 . S
H133 C127 0.931 . S
H134 C132 0.930 . S
C135 O146 1.238 . S
C135 O147 1.253 . S
C136 O148 1.239 . S
C136 O149 1.230 . S
N137 Cd108 2.304 . S
N137 C138 1.337 . S
N137 C142 1.338 . S
C138 N137 1.337 . S
C138 C139 1.379 . S
C138 H152 0.929 . S
C139 C138 1.379 . S
C139 C140 1.380 . S
C139 H160 0.929 . S
C140 C139 1.380 . S
C140 C141 1.399 . S
C141 C140 1.399 . S
C141 C142 1.376 . S
C141 H161 0.931 . S
C142 N137 1.338 . S
C142 C141 1.376 . S
C142 H153 0.930 . S
C143 O150 1.239 . S
C143 O151 1.230 . S
O144 Cd108 2.268 . S
O144 C118 1.238 . S
O145 Cd109 2.273 . S
O145 C118 1.253 . S
O146 Cd109 2.268 . S
O146 C135 1.238 . S
O147 Cd108 2.273 . S
O147 C135 1.253 . S
O148 Cd108 2.417 . S
O148 C136 1.239 . S
O149 Cd108 2.330 . S
O149 C136 1.230 . S
O150 Cd109 2.417 . S
O150 C143 1.239 . S
O151 Cd109 2.330 . S
O151 C143 1.230 . S
H152 C138 0.929 . S
H153 C142 0.930 . S
H154 C112 0.931 . S
H155 C114 0.930 . S
H156 C120 0.929 . S
H157 C122 0.931 . S
H158 C129 0.931 . S
H159 C131 0.930 . S
H160 C139 0.929 . S
H161 C141 0.931 . S
Cd162 N165 2.334 . S
Cd162 N191 2.304 1_554 S
Cd162 O198 2.268 . S
Cd162 O201 2.273 . S
Cd162 O202 2.417 1_554 S
Cd162 O203 2.330 1_554 S
Cd163 N178 2.304 . S
Cd163 N182 2.334 . S
Cd163 O199 2.273 . S
Cd163 O200 2.268 . S
Cd163 O204 2.417 . S
Cd163 O205 2.330 . S
C164 N165 1.332 . S
C164 C168 1.381 . S
C164 H170 0.931 . S
N165 Cd162 2.334 . S
N165 C164 1.332 . S
N165 C169 1.328 . S
C166 C167 1.396 . S
C166 C169 1.378 . S
C166 H208 0.931 . S
C167 C166 1.396 . S
C167 C168 1.382 . S
C168 C164 1.381 . S
C168 C167 1.382 . S
C168 H209 0.958 . S
C169 N165 1.328 . S
C169 C166 1.378 . S
C169 H171 0.930 . S
H170 C164 0.931 . S
H171 C169 0.930 . S
C172 O198 1.238 . S
C172 O199 1.253 . S
C173 C174 1.379 . S
C173 N178 1.337 . S
C173 H179 0.929 . S
C174 C173 1.379 . S
C174 C175 1.380 . S
C174 H210 0.929 . S
C175 C174 1.380 . S
C175 C176 1.399 . S
C176 C175 1.399 . S
C176 C177 1.376 . S
C176 H211 0.931 . S
C177 C176 1.376 . S
C177 N178 1.338 . S
C177 H180 0.930 . S
N178 Cd163 2.304 . S
N178 C173 1.337 . S
N178 C177 1.338 . S
H179 C173 0.929 . S
H180 C177 0.930 . S
C181 N182 1.332 . S
C181 C185 1.381 . S
C181 H187 0.931 . S
N182 Cd163 2.334 . S
N182 C181 1.332 . S
N182 C186 1.328 . S
C183 C184 1.396 . S
C183 C186 1.378 . S
C183 H212 0.931 . S
C184 C183 1.396 . S
C184 C185 1.382 . S
C185 C181 1.381 . S
C185 C184 1.382 . S
C185 H213 0.930 . S
C186 N182 1.328 . S
C186 C183 1.378 . S
C186 H188 0.930 . S
H187 C181 0.931 . S
H188 C186 0.930 . S
C189 O200 1.238 . S
C189 O201 1.253 . S
C190 O202 1.239 . S
C190 O203 1.230 . S
N191 Cd162 2.304 1_556 S
N191 C192 1.337 1_556 S
N191 C196 1.338 . S
C192 N191 1.337 1_554 S
C192 C193 1.379 1_554 S
C192 H206 0.929 . S
C193 C192 1.379 1_556 S
C193 C194 1.380 . S
C193 H214 0.929 1_556 S
C194 C193 1.380 . S
C194 C195 1.399 . S
C195 C194 1.399 . S
C195 C196 1.376 . S
C195 H215 0.931 . S
C196 N191 1.338 . S
C196 C195 1.376 . S
C196 H207 0.930 . S
C197 O204 1.239 . S
C197 O205 1.230 . S
O198 Cd162 2.268 . S
O198 C172 1.238 . S
O199 Cd163 2.273 . S
O199 C172 1.253 . S
O200 Cd163 2.268 . S
O200 C189 1.238 . S
O201 Cd162 2.273 . S
O201 C189 1.253 . S
O202 Cd162 2.417 1_556 S
O202 C190 1.239 . S
O203 Cd162 2.330 1_556 S
O203 C190 1.230 . S
O204 Cd163 2.417 . S
O204 C197 1.239 . S
O205 Cd163 2.330 . S
O205 C197 1.230 . S
H206 C192 0.929 . S
H207 C196 0.930 . S
H208 C166 0.931 . S
H209 C168 0.958 . S
H210 C174 0.929 . S
H211 C176 0.931 . S
H212 C183 0.931 . S
H213 C185 0.930 . S
H214 C193 0.929 1_554 S
H215 C195 0.931 . S
Cd216 N219 2.334 . S
Cd216 N245 2.304 . S
Cd216 O252 2.268 . S
Cd216 O255 2.273 . S
Cd216 O256 2.417 . S
Cd216 O257 2.330 . S
Cd217 N232 2.304 . S
Cd217 N236 2.334 . S
Cd217 O253 2.273 . S
Cd217 O254 2.268 . S
Cd217 O258 2.417 . S
Cd217 O259 2.330 . S
C218 N219 1.332 . S
C218 C222 1.381 . S
C218 H224 0.931 . S
N219 Cd216 2.334 . S
N219 C218 1.332 . S
N219 C223 1.328 . S
C220 C221 1.396 . S
C220 C223 1.378 . S
C220 H262 0.931 . S
C221 C220 1.396 . S
C221 C222 1.382 . S
C222 C218 1.381 . S
C222 C221 1.382 . S
C222 H263 0.958 . S
C223 N219 1.328 . S
C223 C220 1.378 . S
C223 H225 0.930 . S
H224 C218 0.931 . S
H225 C223 0.930 . S
C226 O252 1.238 . S
C226 O253 1.253 . S
C227 C228 1.379 . S
C227 N232 1.337 . S
C227 H233 0.929 . S
C228 C227 1.379 . S
C228 C229 1.380 . S
C228 H264 0.929 . S
C229 C228 1.380 . S
C229 C230 1.399 . S
C230 C229 1.399 . S
C230 C231 1.376 . S
C230 H265 0.931 . S
C231 C230 1.376 . S
C231 N232 1.338 . S
C231 H234 0.930 . S
N232 Cd217 2.304 . S
N232 C227 1.337 . S
N232 C231 1.338 . S
H233 C227 0.929 . S
H234 C231 0.930 . S
C235 N236 1.332 . S
C235 C239 1.381 . S
C235 H241 0.931 . S
N236 Cd217 2.334 . S
N236 C235 1.332 . S
N236 C240 1.328 . S
C237 C238 1.396 . S
C237 C240 1.378 . S
C237 H266 0.931 . S
C238 C237 1.396 . S
C238 C239 1.382 . S
C239 C235 1.381 . S
C239 C238 1.382 . S
C239 H267 0.930 . S
C240 N236 1.328 . S
C240 C237 1.378 . S
C240 H242 0.930 . S
H241 C235 0.931 . S
H242 C240 0.930 . S
C243 O254 1.238 . S
C243 O255 1.253 . S
C244 O256 1.239 . S
C244 O257 1.230 . S
N245 Cd216 2.304 . S
N245 C246 1.337 . S
N245 C250 1.338 . S
C246 N245 1.337 . S
C246 C247 1.379 . S
C246 H260 0.929 . S
C247 C246 1.379 . S
C247 C248 1.380 . S
C247 H268 0.929 . S
C248 C247 1.380 . S
C248 C249 1.399 . S
C249 C248 1.399 . S
C249 C250 1.376 . S
C249 H269 0.931 . S
C250 N245 1.338 . S
C250 C249 1.376 . S
C250 H261 0.930 . S
C251 O258 1.239 . S
C251 O259 1.230 . S
O252 Cd216 2.268 . S
O252 C226 1.238 . S
O253 Cd217 2.273 . S
O253 C226 1.253 . S
O254 Cd217 2.268 . S
O254 C243 1.238 . S
O255 Cd216 2.273 . S
O255 C243 1.253 . S
O256 Cd216 2.417 . S
O256 C244 1.239 . S
O257 Cd216 2.330 . S
O257 C244 1.230 . S
O258 Cd217 2.417 . S
O258 C251 1.239 . S
O259 Cd217 2.330 . S
O259 C251 1.230 . S
H260 C246 0.929 . S
H261 C250 0.930 . S
H262 C220 0.931 . S
H263 C222 0.958 . S
H264 C228 0.929 . S
H265 C230 0.931 . S
H266 C237 0.931 . S
H267 C239 0.930 . S
H268 C247 0.929 . S
H269 C249 0.931 . S
Cd270 N273 2.334 . S
Cd270 N299 2.304 . S
Cd270 O306 2.268 . S
Cd270 O309 2.273 . S
Cd270 O310 2.417 . S
Cd270 O311 2.330 . S
Cd271 N286 2.304 1_455 S
Cd271 N290 2.334 . S
Cd271 O307 2.273 . S
Cd271 O308 2.268 . S
Cd271 O312 2.417 1_455 S
Cd271 O313 2.330 1_455 S
C272 N273 1.332 . S
C272 C276 1.381 . S
C272 H278 0.931 . S
N273 Cd270 2.334 . S
N273 C272 1.332 . S
N273 C277 1.328 . S
C274 C275 1.396 . S
C274 C277 1.378 . S
C274 H316 0.931 . S
C275 C274 1.396 . S
C275 C276 1.382 . S
C276 C272 1.381 . S
C276 C275 1.382 . S
C276 H317 0.930 . S
C277 N273 1.328 . S
C277 C274 1.378 . S
C277 H279 0.930 . S
H278 C272 0.931 . S
H279 C277 0.930 . S
C280 O306 1.238 . S
C280 O307 1.253 . S
C281 C282 1.379 1_455 S
C281 N286 1.337 1_455 S
C281 H287 0.929 . S
C282 C281 1.379 1_655 S
C282 C283 1.380 . S
C282 H318 0.929 1_655 S
C283 C282 1.380 . S
C283 C284 1.399 . S
C284 C283 1.399 . S
C284 C285 1.376 . S
C284 H319 0.931 . S
C285 C284 1.376 . S
C285 N286 1.338 . S
C285 H288 0.930 . S
N286 Cd271 2.304 1_655 S
N286 C281 1.337 1_655 S
N286 C285 1.338 . S
H287 C281 0.929 . S
H288 C285 0.930 . S
C289 N290 1.332 . S
C289 C293 1.381 . S
C289 H295 0.931 . S
N290 Cd271 2.334 . S
N290 C289 1.332 . S
N290 C294 1.328 . S
C291 C292 1.396 . S
C291 C294 1.378 . S
C291 H320 0.931 . S
C292 C291 1.396 . S
C292 C293 1.382 . S
C293 C289 1.381 . S
C293 C292 1.382 . S
C293 H321 0.958 . S
C294 N290 1.328 . S
C294 C291 1.378 . S
C294 H296 0.930 . S
H295 C289 0.931 . S
H296 C294 0.930 . S
C297 O308 1.238 . S
C297 O309 1.253 . S
C298 O310 1.239 . S
C298 O311 1.230 . S
N299 Cd270 2.304 . S
N299 C300 1.337 . S
N299 C304 1.338 . S
C300 N299 1.337 . S
C300 C301 1.379 . S
C300 H314 0.929 . S
C301 C300 1.379 . S
C301 C302 1.380 . S
C301 H322 0.929 . S
C302 C301 1.380 . S
C302 C303 1.399 . S
C303 C302 1.399 . S
C303 C304 1.376 . S
C303 H323 0.931 . S
C304 N299 1.338 . S
C304 C303 1.376 . S
C304 H315 0.930 . S
C305 O312 1.239 . S
C305 O313 1.230 . S
O306 Cd270 2.268 . S
O306 C280 1.238 . S
O307 Cd271 2.273 . S
O307 C280 1.253 . S
O308 Cd271 2.268 . S
O308 C297 1.238 . S
O309 Cd270 2.273 . S
O309 C297 1.253 . S
O310 Cd270 2.417 . S
O310 C298 1.239 . S
O311 Cd270 2.330 . S
O311 C298 1.230 . S
O312 Cd271 2.417 1_655 S
O312 C305 1.239 . S
O313 Cd271 2.330 1_655 S
O313 C305 1.230 . S
H314 C300 0.929 . S
H315 C304 0.930 . S
H316 C274 0.931 . S
H317 C276 0.930 . S
H318 C282 0.929 1_455 S
H319 C284 0.931 . S
H320 C291 0.931 . S
H321 C293 0.958 . S
H322 C301 0.929 . S
H323 C303 0.931 . S
Cd324 N327 2.334 . S
Cd324 N353 2.304 . S
Cd324 O360 2.268 . S
Cd324 O363 2.273 . S
Cd324 O364 2.417 . S
Cd324 O365 2.330 . S
Cd325 N340 2.304 1_655 S
Cd325 N344 2.334 . S
Cd325 O361 2.273 . S
Cd325 O362 2.268 . S
Cd325 O366 2.417 1_655 S
Cd325 O367 2.330 1_655 S
C326 N327 1.332 . S
C326 C330 1.381 . S
C326 H332 0.931 . S
N327 Cd324 2.334 . S
N327 C326 1.332 . S
N327 C331 1.328 . S
C328 C329 1.396 . S
C328 C331 1.378 . S
C328 H370 0.931 . S
C329 C328 1.396 . S
C329 C330 1.382 . S
C330 C326 1.381 . S
C330 C329 1.382 . S
C330 H371 0.930 . S
C331 N327 1.328 . S
C331 C328 1.378 . S
C331 H333 0.930 . S
H332 C326 0.931 . S
H333 C331 0.930 . S
C334 O360 1.238 . S
C334 O361 1.253 . S
C335 C336 1.379 1_655 S
C335 N340 1.337 1_655 S
C335 H341 0.929 . S
C336 C335 1.379 1_455 S
C336 C337 1.380 . S
C336 H372 0.929 1_455 S
C337 C336 1.380 . S
C337 C338 1.399 . S
C338 C337 1.399 . S
C338 C339 1.376 . S
C338 H373 0.931 . S
C339 C338 1.376 . S
C339 N340 1.338 . S
C339 H342 0.930 . S
N340 Cd325 2.304 1_455 S
N340 C335 1.337 1_455 S
N340 C339 1.338 . S
H341 C335 0.929 . S
H342 C339 0.930 . S
C343 N344 1.332 . S
C343 C347 1.381 . S
C343 H349 0.931 . S
N344 Cd325 2.334 . S
N344 C343 1.332 . S
N344 C348 1.328 . S
C345 C346 1.396 . S
C345 C348 1.378 . S
C345 H374 0.931 . S
C346 C345 1.396 . S
C346 C347 1.382 . S
C347 C343 1.381 . S
C347 C346 1.382 . S
C347 H375 0.930 . S
C348 N344 1.328 . S
C348 C345 1.378 . S
C348 H350 0.930 . S
H349 C343 0.931 . S
H350 C348 0.930 . S
C351 O362 1.238 . S
C351 O363 1.253 . S
C352 O364 1.239 . S
C352 O365 1.230 . S
N353 Cd324 2.304 . S
N353 C354 1.337 . S
N353 C358 1.338 . S
C354 N353 1.337 . S
C354 C355 1.379 . S
C354 H368 0.929 . S
C355 C354 1.379 . S
C355 C356 1.380 . S
C355 H376 0.929 . S
C356 C355 1.380 . S
C356 C357 1.399 . S
C357 C356 1.399 . S
C357 C358 1.376 . S
C357 H377 0.931 . S
C358 N353 1.338 . S
C358 C357 1.376 . S
C358 H369 0.930 . S
C359 O366 1.239 . S
C359 O367 1.230 . S
O360 Cd324 2.268 . S
O360 C334 1.238 . S
O361 Cd325 2.273 . S
O361 C334 1.253 . S
O362 Cd325 2.268 . S
O362 C351 1.238 . S
O363 Cd324 2.273 . S
O363 C351 1.253 . S
O364 Cd324 2.417 . S
O364 C352 1.239 . S
O365 Cd324 2.330 . S
O365 C352 1.230 . S
O366 Cd325 2.417 1_455 S
O366 C359 1.239 . S
O367 Cd325 2.330 1_455 S
O367 C359 1.230 . S
H368 C354 0.929 . S
H369 C358 0.930 . S
H370 C328 0.931 . S
H371 C330 0.930 . S
H372 C336 0.929 1_655 S
H373 C338 0.931 . S
H374 C345 0.931 . S
H375 C347 0.930 . S
H376 C355 0.929 . S
H377 C357 0.931 . S
Cd378 N381 2.334 . S
Cd378 N407 2.304 . S
Cd378 O414 2.268 . S
Cd378 O417 2.273 . S
Cd378 O418 2.417 . S
Cd378 O419 2.330 . S
Cd379 N394 2.304 . S
Cd379 N398 2.334 . S
Cd379 O415 2.273 . S
Cd379 O416 2.268 . S
Cd379 O420 2.417 . S
Cd379 O421 2.330 . S
C380 N381 1.332 . S
C380 C384 1.381 . S
C380 H386 0.931 . S
N381 Cd378 2.334 . S
N381 C380 1.332 . S
N381 C385 1.328 . S
C382 C383 1.396 . S
C382 C385 1.378 . S
C382 H424 0.931 . S
C383 C382 1.396 . S
C383 C384 1.382 . S
C384 C380 1.381 . S
C384 C383 1.382 . S
C384 H425 0.930 . S
C385 N381 1.328 . S
C385 C382 1.378 . S
C385 H387 0.930 . S
H386 C380 0.931 . S
H387 C385 0.930 . S
C388 O414 1.238 . S
C388 O415 1.253 . S
C389 C390 1.379 . S
C389 N394 1.337 . S
C389 H395 0.929 . S
C390 C389 1.379 . S
C390 C391 1.380 . S
C390 H426 0.929 . S
C391 C390 1.380 . S
C391 C392 1.399 . S
C392 C391 1.399 . S
C392 C393 1.376 . S
C392 H427 0.931 . S
C393 C392 1.376 . S
C393 N394 1.338 . S
C393 H396 0.930 . S
N394 Cd379 2.304 . S
N394 C389 1.337 . S
N394 C393 1.338 . S
H395 C389 0.929 . S
H396 C393 0.930 . S
C397 N398 1.332 . S
C397 C401 1.381 . S
C397 H403 0.931 . S
N398 Cd379 2.334 . S
N398 C397 1.332 . S
N398 C402 1.328 . S
C399 C400 1.396 . S
C399 C402 1.378 . S
C399 H428 0.931 . S
C400 C399 1.396 . S
C400 C401 1.382 . S
C401 C397 1.381 . S
C401 C400 1.382 . S
C401 H429 0.930 . S
C402 N398 1.328 . S
C402 C399 1.378 . S
C402 H404 0.930 . S
H403 C397 0.931 . S
H404 C402 0.930 . S
C405 O416 1.238 . S
C405 O417 1.253 . S
C406 O418 1.239 . S
C406 O419 1.230 . S
N407 Cd378 2.304 . S
N407 C408 1.337 . S
N407 C412 1.338 . S
C408 N407 1.337 . S
C408 C409 1.379 . S
C408 H422 0.929 . S
C409 C408 1.379 . S
C409 C410 1.380 . S
C409 H430 0.929 . S
C410 C409 1.380 . S
C410 C411 1.399 . S
C411 C410 1.399 . S
C411 C412 1.376 . S
C411 H431 0.931 . S
C412 N407 1.338 . S
C412 C411 1.376 . S
C412 H423 0.930 . S
C413 O420 1.239 . S
C413 O421 1.230 . S
O414 Cd378 2.268 . S
O414 C388 1.238 . S
O415 Cd379 2.273 . S
O415 C388 1.253 . S
O416 Cd379 2.268 . S
O416 C405 1.238 . S
O417 Cd378 2.273 . S
O417 C405 1.253 . S
O418 Cd378 2.417 . S
O418 C406 1.239 . S
O419 Cd378 2.330 . S
O419 C406 1.230 . S
O420 Cd379 2.417 . S
O420 C413 1.239 . S
O421 Cd379 2.330 . S
O421 C413 1.230 . S
H422 C408 0.929 . S
H423 C412 0.930 . S
H424 C382 0.931 . S
H425 C384 0.930 . S
H426 C390 0.929 . S
H427 C392 0.931 . S
H428 C399 0.931 . S
H429 C401 0.930 . S
H430 C409 0.929 . S
H431 C411 0.931 . S
Cd432 N435 2.334 . S
Cd432 N461 2.304 . S
Cd432 O468 2.268 . S
Cd432 O471 2.273 . S
Cd432 O472 2.417 . S
Cd432 O473 2.330 . S
Cd433 N448 2.304 . S
Cd433 N452 2.334 . S
Cd433 O469 2.273 . S
Cd433 O470 2.268 . S
Cd433 O474 2.417 . S
Cd433 O475 2.330 . S
C434 N435 1.332 . S
C434 C438 1.381 . S
C434 H440 0.931 . S
N435 Cd432 2.334 . S
N435 C434 1.332 . S
N435 C439 1.328 . S
C436 C437 1.396 . S
C436 C439 1.378 . S
C436 H478 0.931 . S
C437 C436 1.396 . S
C437 C438 1.382 . S
C438 C434 1.381 . S
C438 C437 1.382 . S
C438 H479 0.958 . S
C439 N435 1.328 . S
C439 C436 1.378 . S
C439 H441 0.930 . S
H440 C434 0.931 . S
H441 C439 0.930 . S
C442 O468 1.238 . S
C442 O469 1.253 . S
C443 C444 1.379 . S
C443 N448 1.337 . S
C443 H449 0.929 . S
C444 C443 1.379 . S
C444 C445 1.380 . S
C444 H480 0.929 . S
C445 C444 1.380 . S
C445 C446 1.399 . S
C446 C445 1.399 . S
C446 C447 1.376 . S
C446 H481 0.931 . S
C447 C446 1.376 . S
C447 N448 1.338 . S
C447 H450 0.930 . S
N448 Cd433 2.304 . S
N448 C443 1.337 . S
N448 C447 1.338 . S
H449 C443 0.929 . S
H450 C447 0.930 . S
C451 N452 1.332 . S
C451 C455 1.381 . S
C451 H457 0.931 . S
N452 Cd433 2.334 . S
N452 C451 1.332 . S
N452 C456 1.328 . S
C453 C454 1.396 . S
C453 C456 1.378 . S
C453 H482 0.931 . S
C454 C453 1.396 . S
C454 C455 1.382 . S
C455 C451 1.381 . S
C455 C454 1.382 . S
C455 H483 0.930 . S
C456 N452 1.328 . S
C456 C453 1.378 . S
C456 H458 0.930 . S
H457 C451 0.931 . S
H458 C456 0.930 . S
C459 O470 1.238 . S
C459 O471 1.253 . S
C460 O472 1.239 . S
C460 O473 1.230 . S
N461 Cd432 2.304 . S
N461 C462 1.337 . S
N461 C466 1.338 . S
C462 N461 1.337 . S
C462 C463 1.379 . S
C462 H476 0.929 . S
C463 C462 1.379 . S
C463 C464 1.380 . S
C463 H484 0.929 . S
C464 C463 1.380 . S
C464 C465 1.399 . S
C465 C464 1.399 . S
C465 C466 1.376 . S
C465 H485 0.931 . S
C466 N461 1.338 . S
C466 C465 1.376 . S
C466 H477 0.930 . S
C467 O474 1.239 . S
C467 O475 1.230 . S
O468 Cd432 2.268 . S
O468 C442 1.238 . S
O469 Cd433 2.273 . S
O469 C442 1.253 . S
O470 Cd433 2.268 . S
O470 C459 1.238 . S
O471 Cd432 2.273 . S
O471 C459 1.253 . S
O472 Cd432 2.417 . S
O472 C460 1.239 . S
O473 Cd432 2.330 . S
O473 C460 1.230 . S
O474 Cd433 2.417 . S
O474 C467 1.239 . S
O475 Cd433 2.330 . S
O475 C467 1.230 . S
H476 C462 0.929 . S
H477 C466 0.930 . S
H478 C436 0.931 . S
H479 C438 0.958 . S
H480 C444 0.929 . S
H481 C446 0.931 . S
H482 C453 0.931 . S
H483 C455 0.930 . S
H484 C463 0.929 . S
H485 C465 0.931 . S
Cd486 N489 2.334 . S
Cd486 N515 2.304 . S
Cd486 O522 2.268 . S
Cd486 O525 2.273 . S
Cd486 O526 2.417 . S
Cd486 O527 2.330 . S
Cd487 N502 2.304 1_545 S
Cd487 N506 2.334 . S
Cd487 O523 2.273 . S
Cd487 O524 2.268 . S
Cd487 O528 2.417 1_545 S
Cd487 O529 2.330 1_545 S
C488 N489 1.332 . S
C488 C492 1.381 . S
C488 H494 0.931 . S
N489 Cd486 2.334 . S
N489 C488 1.332 . S
N489 C493 1.328 . S
C490 C491 1.396 . S
C490 C493 1.378 . S
C490 H532 0.931 . S
C491 C490 1.396 . S
C491 C492 1.382 . S
C492 C488 1.381 . S
C492 C491 1.382 . S
C492 H533 0.930 . S
C493 N489 1.328 . S
C493 C490 1.378 . S
C493 H495 0.930 . S
H494 C488 0.931 . S
H495 C493 0.930 . S
C496 O522 1.238 . S
C496 O523 1.253 . S
C497 C498 1.379 1_545 S
C497 N502 1.337 1_545 S
C497 H503 0.929 . S
C498 C497 1.379 1_565 S
C498 C499 1.380 . S
C498 H534 0.929 1_565 S
C499 C498 1.380 . S
C499 C500 1.399 . S
C500 C499 1.399 . S
C500 C501 1.376 . S
C500 H535 0.931 . S
C501 C500 1.376 . S
C501 N502 1.338 . S
C501 H504 0.930 . S
N502 Cd487 2.304 1_565 S
N502 C497 1.337 1_565 S
N502 C501 1.338 . S
H503 C497 0.929 . S
H504 C501 0.930 . S
C505 N506 1.332 . S
C505 C509 1.381 . S
C505 H511 0.931 . S
N506 Cd487 2.334 . S
N506 C505 1.332 . S
N506 C510 1.328 . S
C507 C508 1.396 . S
C507 C510 1.378 . S
C507 H536 0.931 . S
C508 C507 1.396 . S
C508 C509 1.382 . S
C509 C505 1.381 . S
C509 C508 1.382 . S
C509 H537 0.958 . S
C510 N506 1.328 . S
C510 C507 1.378 . S
C510 H512 0.930 . S
H511 C505 0.931 . S
H512 C510 0.930 . S
C513 O524 1.238 . S
C513 O525 1.253 . S
C514 O526 1.239 . S
C514 O527 1.230 . S
N515 Cd486 2.304 . S
N515 C516 1.337 . S
N515 C520 1.338 . S
C516 N515 1.337 . S
C516 C517 1.379 . S
C516 H530 0.929 . S
C517 C516 1.379 . S
C517 C518 1.380 . S
C517 H538 0.929 . S
C518 C517 1.380 . S
C518 C519 1.399 . S
C519 C518 1.399 . S
C519 C520 1.376 . S
C519 H539 0.931 . S
C520 N515 1.338 . S
C520 C519 1.376 . S
C520 H531 0.930 . S
C521 O528 1.239 . S
C521 O529 1.230 . S
O522 Cd486 2.268 . S
O522 C496 1.238 . S
O523 Cd487 2.273 . S
O523 C496 1.253 . S
O524 Cd487 2.268 . S
O524 C513 1.238 . S
O525 Cd486 2.273 . S
O525 C513 1.253 . S
O526 Cd486 2.417 . S
O526 C514 1.239 . S
O527 Cd486 2.330 . S
O527 C514 1.230 . S
O528 Cd487 2.417 1_565 S
O528 C521 1.239 . S
O529 Cd487 2.330 1_565 S
O529 C521 1.230 . S
H530 C516 0.929 . S
H531 C520 0.930 . S
H532 C490 0.931 . S
H533 C492 0.930 . S
H534 C498 0.929 1_545 S
H535 C500 0.931 . S
H536 C507 0.931 . S
H537 C509 0.958 . S
H538 C517 0.929 . S
H539 C519 0.931 . S
Cd540 N543 2.334 . S
Cd540 N569 2.304 1_565 S
Cd540 O576 2.268 . S
Cd540 O579 2.273 . S
Cd540 O580 2.417 1_565 S
Cd540 O581 2.330 1_565 S
Cd541 N556 2.304 . S
Cd541 N560 2.334 . S
Cd541 O577 2.273 . S
Cd541 O578 2.268 . S
Cd541 O582 2.417 . S
Cd541 O583 2.330 . S
C542 N543 1.332 . S
C542 C546 1.381 . S
C542 H548 0.931 . S
N543 Cd540 2.334 . S
N543 C542 1.332 . S
N543 C547 1.328 . S
C544 C545 1.396 . S
C544 C547 1.378 . S
C544 H586 0.931 . S
C545 C544 1.396 . S
C545 C546 1.382 . S
C546 C542 1.381 . S
C546 C545 1.382 . S
C546 H587 0.930 . S
C547 N543 1.328 . S
C547 C544 1.378 . S
C547 H549 0.930 . S
H548 C542 0.931 . S
H549 C547 0.930 . S
C550 O576 1.238 . S
C550 O577 1.253 . S
C551 C552 1.379 . S
C551 N556 1.337 . S
C551 H557 0.929 . S
C552 C551 1.379 . S
C552 C553 1.380 . S
C552 H588 0.929 . S
C553 C552 1.380 . S
C553 C554 1.399 . S
C554 C553 1.399 . S
C554 C555 1.376 . S
C554 H589 0.931 . S
C555 C554 1.376 . S
C555 N556 1.338 . S
C555 H558 0.930 . S
N556 Cd541 2.304 . S
N556 C551 1.337 . S
N556 C555 1.338 . S
H557 C551 0.929 . S
H558 C555 0.930 . S
C559 N560 1.332 . S
C559 C563 1.381 . S
C559 H565 0.931 . S
N560 Cd541 2.334 . S
N560 C559 1.332 . S
N560 C564 1.328 . S
C561 C562 1.396 . S
C561 C564 1.378 . S
C561 H590 0.931 . S
C562 C561 1.396 . S
C562 C563 1.382 . S
C563 C559 1.381 . S
C563 C562 1.382 . S
C563 H591 0.930 . S
C564 N560 1.328 . S
C564 C561 1.378 . S
C564 H566 0.930 . S
H565 C559 0.931 . S
H566 C564 0.930 . S
C567 O578 1.238 . S
C567 O579 1.253 . S
C568 O580 1.239 . S
C568 O581 1.230 . S
N569 Cd540 2.304 1_545 S
N569 C570 1.337 1_545 S
N569 C574 1.338 . S
C570 N569 1.337 1_565 S
C570 C571 1.379 1_565 S
C570 H584 0.929 . S
C571 C570 1.379 1_545 S
C571 C572 1.380 . S
C571 H592 0.929 1_545 S
C572 C571 1.380 . S
C572 C573 1.399 . S
C573 C572 1.399 . S
C573 C574 1.376 . S
C573 H593 0.931 . S
C574 N569 1.338 . S
C574 C573 1.376 . S
C574 H585 0.930 . S
C575 O582 1.239 . S
C575 O583 1.230 . S
O576 Cd540 2.268 . S
O576 C550 1.238 . S
O577 Cd541 2.273 . S
O577 C550 1.253 . S
O578 Cd541 2.268 . S
O578 C567 1.238 . S
O579 Cd540 2.273 . S
O579 C567 1.253 . S
O580 Cd540 2.417 1_545 S
O580 C568 1.239 . S
O581 Cd540 2.330 1_545 S
O581 C568 1.230 . S
O582 Cd541 2.417 . S
O582 C575 1.239 . S
O583 Cd541 2.330 . S
O583 C575 1.230 . S
H584 C570 0.929 . S
H585 C574 0.930 . S
H586 C544 0.931 . S
H587 C546 0.930 . S
H588 C552 0.929 . S
H589 C554 0.931 . S
H590 C561 0.931 . S
H591 C563 0.930 . S
H592 C571 0.929 1_565 S
H593 C573 0.931 . S
Cd594 N597 2.334 . S
Cd594 N623 2.304 . S
Cd594 O630 2.268 . S
Cd594 O633 2.273 . S
Cd594 O634 2.417 . S
Cd594 O635 2.330 . S
Cd595 N610 2.304 . S
Cd595 N614 2.334 . S
Cd595 O631 2.273 . S
Cd595 O632 2.268 . S
Cd595 O636 2.417 . S
Cd595 O637 2.330 . S
C596 N597 1.332 . S
C596 C600 1.381 . S
C596 H602 0.931 . S
N597 Cd594 2.334 . S
N597 C596 1.332 . S
N597 C601 1.328 . S
C598 C599 1.396 . S
C598 C601 1.378 . S
C598 H640 0.931 . S
C599 C598 1.396 . S
C599 C600 1.382 . S
C600 C596 1.381 . S
C600 C599 1.382 . S
C600 H641 0.930 . S
C601 N597 1.328 . S
C601 C598 1.378 . S
C601 H603 0.930 . S
H602 C596 0.931 . S
H603 C601 0.930 . S
C604 O630 1.238 . S
C604 O631 1.253 . S
C605 C606 1.379 . S
C605 N610 1.337 . S
C605 H611 0.929 . S
C606 C605 1.379 . S
C606 C607 1.380 . S
C606 H642 0.929 . S
C607 C606 1.380 . S
C607 C608 1.399 . S
C608 C607 1.399 . S
C608 C609 1.376 . S
C608 H643 0.931 . S
C609 C608 1.376 . S
C609 N610 1.338 . S
C609 H612 0.930 . S
N610 Cd595 2.304 . S
N610 C605 1.337 . S
N610 C609 1.338 . S
H611 C605 0.929 . S
H612 C609 0.930 . S
C613 N614 1.332 . S
C613 C617 1.381 . S
C613 H619 0.931 . S
N614 Cd595 2.334 . S
N614 C613 1.332 . S
N614 C618 1.328 . S
C615 C616 1.396 . S
C615 C618 1.378 . S
C615 H644 0.931 . S
C616 C615 1.396 . S
C616 C617 1.382 . S
C617 C613 1.381 . S
C617 C616 1.382 . S
C617 H645 0.930 . S
C618 N614 1.328 . S
C618 C615 1.378 . S
C618 H620 0.930 . S
H619 C613 0.931 . S
H620 C618 0.930 . S
C621 O632 1.238 . S
C621 O633 1.253 . S
C622 O634 1.239 . S
C622 O635 1.230 . S
N623 Cd594 2.304 . S
N623 C624 1.337 . S
N623 C628 1.338 . S
C624 N623 1.337 . S
C624 C625 1.379 . S
C624 H638 0.929 . S
C625 C624 1.379 . S
C625 C626 1.380 . S
C625 H646 0.929 . S
C626 C625 1.380 . S
C626 C627 1.399 . S
C627 C626 1.399 . S
C627 C628 1.376 . S
C627 H647 0.931 . S
C628 N623 1.338 . S
C628 C627 1.376 . S
C628 H639 0.930 . S
C629 O636 1.239 . S
C629 O637 1.230 . S
O630 Cd594 2.268 . S
O630 C604 1.238 . S
O631 Cd595 2.273 . S
O631 C604 1.253 . S
O632 Cd595 2.268 . S
O632 C621 1.238 . S
O633 Cd594 2.273 . S
O633 C621 1.253 . S
O634 Cd594 2.417 . S
O634 C622 1.239 . S
O635 Cd594 2.330 . S
O635 C622 1.230 . S
O636 Cd595 2.417 . S
O636 C629 1.239 . S
O637 Cd595 2.330 . S
O637 C629 1.230 . S
H638 C624 0.929 . S
H639 C628 0.930 . S
H640 C598 0.931 . S
H641 C600 0.930 . S
H642 C606 0.929 . S
H643 C608 0.931 . S
H644 C615 0.931 . S
H645 C617 0.930 . S
H646 C625 0.929 . S
H647 C627 0.931 . S
Cd648 N651 2.334 . S
Cd648 N677 2.304 . S
Cd648 O684 2.268 . S
Cd648 O687 2.273 . S
Cd648 O688 2.417 . S
Cd648 O689 2.330 . S
Cd649 N664 2.304 . S
Cd649 N668 2.334 . S
Cd649 O685 2.273 . S
Cd649 O686 2.268 . S
Cd649 O690 2.417 . S
Cd649 O691 2.330 . S
C650 N651 1.332 . S
C650 C654 1.381 . S
C650 H656 0.931 . S
N651 Cd648 2.334 . S
N651 C650 1.332 . S
N651 C655 1.328 . S
C652 C653 1.396 . S
C652 C655 1.378 . S
C652 H694 0.931 . S
C653 C652 1.396 . S
C653 C654 1.382 . S
C654 C650 1.381 . S
C654 C653 1.382 . S
C654 H695 0.930 . S
C655 N651 1.328 . S
C655 C652 1.378 . S
C655 H657 0.930 . S
H656 C650 0.931 . S
H657 C655 0.930 . S
C658 O684 1.238 . S
C658 O685 1.253 . S
C659 C660 1.379 . S
C659 N664 1.337 . S
C659 H665 0.929 . S
C660 C659 1.379 . S
C660 C661 1.380 . S
C660 H696 0.929 . S
C661 C660 1.380 . S
C661 C662 1.399 . S
C662 C661 1.399 . S
C662 C663 1.376 . S
C662 H697 0.931 . S
C663 C662 1.376 . S
C663 N664 1.338 . S
C663 H666 0.930 . S
N664 Cd649 2.304 . S
N664 C659 1.337 . S
N664 C663 1.338 . S
H665 C659 0.929 . S
H666 C663 0.930 . S
C667 N668 1.332 . S
C667 C671 1.381 . S
C667 H673 0.931 . S
N668 Cd649 2.334 . S
N668 C667 1.332 . S
N668 C672 1.328 . S
C669 C670 1.396 . S
C669 C672 1.378 . S
C669 H698 0.931 . S
C670 C669 1.396 . S
C670 C671 1.382 . S
C671 C667 1.381 . S
C671 C670 1.382 . S
C671 H699 0.958 . S
C672 N668 1.328 . S
C672 C669 1.378 . S
C672 H674 0.930 . S
H673 C667 0.931 . S
H674 C672 0.930 . S
C675 O686 1.238 . S
C675 O687 1.253 . S
C676 O688 1.239 . S
C676 O689 1.230 . S
N677 Cd648 2.304 . S
N677 C678 1.337 . S
N677 C682 1.338 . S
C678 N677 1.337 . S
C678 C679 1.379 . S
C678 H692 0.929 . S
C679 C678 1.379 . S
C679 C680 1.380 . S
C679 H700 0.929 . S
C680 C679 1.380 . S
C680 C681 1.399 . S
C681 C680 1.399 . S
C681 C682 1.376 . S
C681 H701 0.931 . S
C682 N677 1.338 . S
C682 C681 1.376 . S
C682 H693 0.930 . S
C683 O690 1.239 . S
C683 O691 1.230 . S
O684 Cd648 2.268 . S
O684 C658 1.238 . S
O685 Cd649 2.273 . S
O685 C658 1.253 . S
O686 Cd649 2.268 . S
O686 C675 1.238 . S
O687 Cd648 2.273 . S
O687 C675 1.253 . S
O688 Cd648 2.417 . S
O688 C676 1.239 . S
O689 Cd648 2.330 . S
O689 C676 1.230 . S
O690 Cd649 2.417 . S
O690 C683 1.239 . S
O691 Cd649 2.330 . S
O691 C683 1.230 . S
H692 C678 0.929 . S
H693 C682 0.930 . S
H694 C652 0.931 . S
H695 C654 0.930 . S
H696 C660 0.929 . S
H697 C662 0.931 . S
H698 C669 0.931 . S
H699 C671 0.958 . S
H700 C679 0.929 . S
H701 C681 0.931 . S
Cd702 N705 2.334 . S
Cd702 N731 2.304 1_554 S
Cd702 O738 2.268 . S
Cd702 O741 2.273 . S
Cd702 O742 2.417 1_554 S
Cd702 O743 2.330 1_554 S
Cd703 N718 2.304 . S
Cd703 N722 2.334 . S
Cd703 O739 2.273 . S
Cd703 O740 2.268 . S
Cd703 O744 2.417 . S
Cd703 O745 2.330 . S
C704 N705 1.332 . S
C704 C708 1.381 . S
C704 H710 0.931 . S
N705 Cd702 2.334 . S
N705 C704 1.332 . S
N705 C709 1.328 . S
C706 C707 1.396 . S
C706 C709 1.378 . S
C706 H748 0.931 . S
C707 C706 1.396 . S
C707 C708 1.382 . S
C708 C704 1.381 . S
C708 C707 1.382 . S
C708 H749 0.930 . S
C709 N705 1.328 . S
C709 C706 1.378 . S
C709 H711 0.930 . S
H710 C704 0.931 . S
H711 C709 0.930 . S
C712 O738 1.238 . S
C712 O739 1.253 . S
C713 C714 1.379 . S
C713 N718 1.337 . S
C713 H719 0.929 . S
C714 C713 1.379 . S
C714 C715 1.380 . S
C714 H750 0.929 . S
C715 C714 1.380 . S
C715 C716 1.399 . S
C716 C715 1.399 . S
C716 C717 1.376 . S
C716 H751 0.931 . S
C717 C716 1.376 . S
C717 N718 1.338 . S
C717 H720 0.930 . S
N718 Cd703 2.304 . S
N718 C713 1.337 . S
N718 C717 1.338 . S
H719 C713 0.929 . S
H720 C717 0.930 . S
C721 N722 1.332 . S
C721 C725 1.381 . S
C721 H727 0.931 . S
N722 Cd703 2.334 . S
N722 C721 1.332 . S
N722 C726 1.328 . S
C723 C724 1.396 . S
C723 C726 1.378 . S
C723 H752 0.931 . S
C724 C723 1.396 . S
C724 C725 1.382 . S
C725 C721 1.381 . S
C725 C724 1.382 . S
C725 H753 0.930 . S
C726 N722 1.328 . S
C726 C723 1.378 . S
C726 H728 0.930 . S
H727 C721 0.931 . S
H728 C726 0.930 . S
C729 O740 1.238 . S
C729 O741 1.253 . S
C730 O742 1.239 . S
C730 O743 1.230 . S
N731 Cd702 2.304 1_556 S
N731 C732 1.337 1_556 S
N731 C736 1.338 . S
C732 N731 1.337 1_554 S
C732 C733 1.379 1_554 S
C732 H746 0.929 . S
C733 C732 1.379 1_556 S
C733 C734 1.380 . S
C733 H754 0.929 1_556 S
C734 C733 1.380 . S
C734 C735 1.399 . S
C735 C734 1.399 . S
C735 C736 1.376 . S
C735 H755 0.931 . S
C736 N731 1.338 . S
C736 C735 1.376 . S
C736 H747 0.930 . S
C737 O744 1.239 . S
C737 O745 1.230 . S
O738 Cd702 2.268 . S
O738 C712 1.238 . S
O739 Cd703 2.273 . S
O739 C712 1.253 . S
O740 Cd703 2.268 . S
O740 C729 1.238 . S
O741 Cd702 2.273 . S
O741 C729 1.253 . S
O742 Cd702 2.417 1_556 S
O742 C730 1.239 . S
O743 Cd702 2.330 1_556 S
O743 C730 1.230 . S
O744 Cd703 2.417 . S
O744 C737 1.239 . S
O745 Cd703 2.330 . S
O745 C737 1.230 . S
H746 C732 0.929 . S
H747 C736 0.930 . S
H748 C706 0.931 . S
H749 C708 0.930 . S
H750 C714 0.929 . S
H751 C716 0.931 . S
H752 C723 0.931 . S
H753 C725 0.930 . S
H754 C733 0.929 1_554 S
H755 C735 0.931 . S
Cd756 N759 2.334 . S
Cd756 N785 2.304 . S
Cd756 O792 2.268 . S
Cd756 O795 2.273 . S
Cd756 O796 2.417 . S
Cd756 O797 2.330 . S
Cd757 N772 2.304 . S
Cd757 N776 2.334 . S
Cd757 O793 2.273 . S
Cd757 O794 2.268 . S
Cd757 O798 2.417 . S
Cd757 O799 2.330 . S
C758 N759 1.332 . S
C758 C762 1.381 . S
C758 H764 0.931 . S
N759 Cd756 2.334 . S
N759 C758 1.332 . S
N759 C763 1.328 . S
C760 C761 1.396 . S
C760 C763 1.378 . S
C760 H802 0.931 . S
C761 C760 1.396 . S
C761 C762 1.382 . S
C762 C758 1.381 . S
C762 C761 1.382 . S
C762 H803 0.930 . S
C763 N759 1.328 . S
C763 C760 1.378 . S
C763 H765 0.930 . S
H764 C758 0.931 . S
H765 C763 0.930 . S
C766 O792 1.238 . S
C766 O793 1.253 . S
C767 C768 1.379 . S
C767 N772 1.337 . S
C767 H773 0.929 . S
C768 C767 1.379 . S
C768 C769 1.380 . S
C768 H804 0.929 . S
C769 C768 1.380 . S
C769 C770 1.399 . S
C770 C769 1.399 . S
C770 C771 1.376 . S
C770 H805 0.931 . S
C771 C770 1.376 . S
C771 N772 1.338 . S
C771 H774 0.930 . S
N772 Cd757 2.304 . S
N772 C767 1.337 . S
N772 C771 1.338 . S
H773 C767 0.929 . S
H774 C771 0.930 . S
C775 N776 1.332 . S
C775 C779 1.381 . S
C775 H781 0.931 . S
N776 Cd757 2.334 . S
N776 C775 1.332 . S
N776 C780 1.328 . S
C777 C778 1.396 . S
C777 C780 1.378 . S
C777 H806 0.931 . S
C778 C777 1.396 . S
C778 C779 1.382 . S
C779 C775 1.381 . S
C779 C778 1.382 . S
C779 H807 0.930 . S
C780 N776 1.328 . S
C780 C777 1.378 . S
C780 H782 0.930 . S
H781 C775 0.931 . S
H782 C780 0.930 . S
C783 O794 1.238 . S
C783 O795 1.253 . S
C784 O796 1.239 . S
C784 O797 1.230 . S
N785 Cd756 2.304 . S
N785 C786 1.337 . S
N785 C790 1.338 . S
C786 N785 1.337 . S
C786 C787 1.379 . S
C786 H800 0.929 . S
C787 C786 1.379 . S
C787 C788 1.380 . S
C787 H808 0.929 . S
C788 C787 1.380 . S
C788 C789 1.399 . S
C789 C788 1.399 . S
C789 C790 1.376 . S
C789 H809 0.931 . S
C790 N785 1.338 . S
C790 C789 1.376 . S
C790 H801 0.930 . S
C791 O798 1.239 . S
C791 O799 1.230 . S
O792 Cd756 2.268 . S
O792 C766 1.238 . S
O793 Cd757 2.273 . S
O793 C766 1.253 . S
O794 Cd757 2.268 . S
O794 C783 1.238 . S
O795 Cd756 2.273 . S
O795 C783 1.253 . S
O796 Cd756 2.417 . S
O796 C784 1.239 . S
O797 Cd756 2.330 . S
O797 C784 1.230 . S
O798 Cd757 2.417 . S
O798 C791 1.239 . S
O799 Cd757 2.330 . S
O799 C791 1.230 . S
H800 C786 0.929 . S
H801 C790 0.930 . S
H802 C760 0.931 . S
H803 C762 0.930 . S
H804 C768 0.929 . S
H805 C770 0.931 . S
H806 C777 0.931 . S
H807 C779 0.930 . S
H808 C787 0.929 . S
H809 C789 0.931 . S
Cd810 N813 2.334 . S
Cd810 N839 2.304 1_556 S
Cd810 O846 2.268 . S
Cd810 O849 2.273 . S
Cd810 O850 2.417 1_556 S
Cd810 O851 2.330 1_556 S
Cd811 N826 2.304 . S
Cd811 N830 2.334 . S
Cd811 O847 2.273 . S
Cd811 O848 2.268 . S
Cd811 O852 2.417 . S
Cd811 O853 2.330 . S
C812 N813 1.332 . S
C812 C816 1.381 . S
C812 H818 0.931 . S
N813 Cd810 2.334 . S
N813 C812 1.332 . S
N813 C817 1.328 . S
C814 C815 1.396 . S
C814 C817 1.378 . S
C814 H856 0.931 . S
C815 C814 1.396 . S
C815 C816 1.382 . S
C816 C812 1.381 . S
C816 C815 1.382 . S
C816 H857 0.958 . S
C817 N813 1.328 . S
C817 C814 1.378 . S
C817 H819 0.930 . S
H818 C812 0.931 . S
H819 C817 0.930 . S
C820 O846 1.238 . S
C820 O847 1.253 . S
C821 C822 1.379 . S
C821 N826 1.337 . S
C821 H827 0.929 . S
C822 C821 1.379 . S
C822 C823 1.380 . S
C822 H858 0.929 . S
C823 C822 1.380 . S
C823 C824 1.399 . S
C824 C823 1.399 . S
C824 C825 1.376 . S
C824 H859 0.931 . S
C825 C824 1.376 . S
C825 N826 1.338 . S
C825 H828 0.930 . S
N826 Cd811 2.304 . S
N826 C821 1.337 . S
N826 C825 1.338 . S
H827 C821 0.929 . S
H828 C825 0.930 . S
C829 N830 1.332 . S
C829 C833 1.381 . S
C829 H835 0.931 . S
N830 Cd811 2.334 . S
N830 C829 1.332 . S
N830 C834 1.328 . S
C831 C832 1.396 . S
C831 C834 1.378 . S
C831 H860 0.931 . S
C832 C831 1.396 . S
C832 C833 1.382 . S
C833 C829 1.381 . S
C833 C832 1.382 . S
C833 H861 0.930 . S
C834 N830 1.328 . S
C834 C831 1.378 . S
C834 H836 0.930 . S
H835 C829 0.931 . S
H836 C834 0.930 . S
C837 O848 1.238 . S
C837 O849 1.253 . S
C838 O850 1.239 . S
C838 O851 1.230 . S
N839 Cd810 2.304 1_554 S
N839 C840 1.337 1_554 S
N839 C844 1.338 . S
C840 N839 1.337 1_556 S
C840 C841 1.379 1_556 S
C840 H854 0.929 . S
C841 C840 1.379 1_554 S
C841 C842 1.380 . S
C841 H862 0.929 1_554 S
C842 C841 1.380 . S
C842 C843 1.399 . S
C843 C842 1.399 . S
C843 C844 1.376 . S
C843 H863 0.931 . S
C844 N839 1.338 . S
C844 C843 1.376 . S
C844 H855 0.930 . S
C845 O852 1.239 . S
C845 O853 1.230 . S
O846 Cd810 2.268 . S
O846 C820 1.238 . S
O847 Cd811 2.273 . S
O847 C820 1.253 . S
O848 Cd811 2.268 . S
O848 C837 1.238 . S
O849 Cd810 2.273 . S
O849 C837 1.253 . S
O850 Cd810 2.417 1_554 S
O850 C838 1.239 . S
O851 Cd810 2.330 1_554 S
O851 C838 1.230 . S
O852 Cd811 2.417 . S
O852 C845 1.239 . S
O853 Cd811 2.330 . S
O853 C845 1.230 . S
H854 C840 0.929 . S
H855 C844 0.930 . S
H856 C814 0.931 . S
H857 C816 0.958 . S
H858 C822 0.929 . S
H859 C824 0.931 . S
H860 C831 0.931 . S
H861 C833 0.930 . S
H862 C841 0.929 1_556 S
H863 C843 0.931 . S
Cd864 N867 2.334 . S
Cd864 N893 2.304 . S
Cd864 O900 2.268 . S
Cd864 O903 2.273 . S
Cd864 O904 2.417 . S
Cd864 O905 2.330 . S
Cd865 N880 2.304 . S
Cd865 N884 2.334 . S
Cd865 O901 2.273 . S
Cd865 O902 2.268 . S
Cd865 O906 2.417 . S
Cd865 O907 2.330 . S
C866 N867 1.332 . S
C866 C870 1.381 . S
C866 H872 0.931 . S
N867 Cd864 2.334 . S
N867 C866 1.332 . S
N867 C871 1.328 . S
C868 C869 1.396 . S
C868 C871 1.378 . S
C868 H910 0.931 . S
C869 C868 1.396 . S
C869 C870 1.382 . S
C870 C866 1.381 . S
C870 C869 1.382 . S
C870 H911 0.930 . S
C871 N867 1.328 . S
C871 C868 1.378 . S
C871 H873 0.930 . S
H872 C866 0.931 . S
H873 C871 0.930 . S
C874 O900 1.238 . S
C874 O901 1.253 . S
C875 C876 1.379 . S
C875 N880 1.337 . S
C875 H881 0.929 . S
C876 C875 1.379 . S
C876 C877 1.380 . S
C876 H912 0.929 . S
C877 C876 1.380 . S
C877 C878 1.399 . S
C878 C877 1.399 . S
C878 C879 1.376 . S
C878 H913 0.931 . S
C879 C878 1.376 . S
C879 N880 1.338 . S
C879 H882 0.930 . S
N880 Cd865 2.304 . S
N880 C875 1.337 . S
N880 C879 1.338 . S
H881 C875 0.929 . S
H882 C879 0.930 . S
C883 N884 1.332 . S
C883 C887 1.381 . S
C883 H889 0.931 . S
N884 Cd865 2.334 . S
N884 C883 1.332 . S
N884 C888 1.328 . S
C885 C886 1.396 . S
C885 C888 1.378 . S
C885 H914 0.931 . S
C886 C885 1.396 . S
C886 C887 1.382 . S
C887 C883 1.381 . S
C887 C886 1.382 . S
C887 H915 0.958 . S
C888 N884 1.328 . S
C888 C885 1.378 . S
C888 H890 0.930 . S
H889 C883 0.931 . S
H890 C888 0.930 . S
C891 O902 1.238 . S
C891 O903 1.253 . S
C892 O904 1.239 . S
C892 O905 1.230 . S
N893 Cd864 2.304 . S
N893 C894 1.337 . S
N893 C898 1.338 . S
C894 N893 1.337 . S
C894 C895 1.379 . S
C894 H908 0.929 . S
C895 C894 1.379 . S
C895 C896 1.380 . S
C895 H916 0.929 . S
C896 C895 1.380 . S
C896 C897 1.399 . S
C897 C896 1.399 . S
C897 C898 1.376 . S
C897 H917 0.931 . S
C898 N893 1.338 . S
C898 C897 1.376 . S
C898 H909 0.930 . S
C899 O906 1.239 . S
C899 O907 1.230 . S
O900 Cd864 2.268 . S
O900 C874 1.238 . S
O901 Cd865 2.273 . S
O901 C874 1.253 . S
O902 Cd865 2.268 . S
O902 C891 1.238 . S
O903 Cd864 2.273 . S
O903 C891 1.253 . S
O904 Cd864 2.417 . S
O904 C892 1.239 . S
O905 Cd864 2.330 . S
O905 C892 1.230 . S
O906 Cd865 2.417 . S
O906 C899 1.239 . S
O907 Cd865 2.330 . S
O907 C899 1.230 . S
H908 C894 0.929 . S
H909 C898 0.930 . S
H910 C868 0.931 . S
H911 C870 0.930 . S
H912 C876 0.929 . S
H913 C878 0.931 . S
H914 C885 0.931 . S
H915 C887 0.958 . S
H916 C895 0.929 . S
H917 C897 0.931 . S
Cd918 N921 2.334 . S
Cd918 N947 2.304 1_655 S
Cd918 O954 2.268 . S
Cd918 O957 2.273 . S
Cd918 O958 2.417 1_655 S
Cd918 O959 2.330 1_655 S
Cd919 N934 2.304 . S
Cd919 N938 2.334 . S
Cd919 O955 2.273 . S
Cd919 O956 2.268 . S
Cd919 O960 2.417 . S
Cd919 O961 2.330 . S
C920 N921 1.332 . S
C920 C924 1.381 . S
C920 H926 0.931 . S
N921 Cd918 2.334 . S
N921 C920 1.332 . S
N921 C925 1.328 . S
C922 C923 1.396 . S
C922 C925 1.378 . S
C922 H964 0.931 . S
C923 C922 1.396 . S
C923 C924 1.382 . S
C924 C920 1.381 . S
C924 C923 1.382 . S
C924 H965 0.958 . S
C925 N921 1.328 . S
C925 C922 1.378 . S
C925 H927 0.930 . S
H926 C920 0.931 . S
H927 C925 0.930 . S
C928 O954 1.238 . S
C928 O955 1.253 . S
C929 C930 1.379 . S
C929 N934 1.337 . S
C929 H935 0.929 . S
C930 C929 1.379 . S
C930 C931 1.380 . S
C930 H966 0.929 . S
C931 C930 1.380 . S
C931 C932 1.399 . S
C932 C931 1.399 . S
C932 C933 1.376 . S
C932 H967 0.931 . S
C933 C932 1.376 . S
C933 N934 1.338 . S
C933 H936 0.930 . S
N934 Cd919 2.304 . S
N934 C929 1.337 . S
N934 C933 1.338 . S
H935 C929 0.929 . S
H936 C933 0.930 . S
C937 N938 1.332 . S
C937 C941 1.381 . S
C937 H943 0.931 . S
N938 Cd919 2.334 . S
N938 C937 1.332 . S
N938 C942 1.328 . S
C939 C940 1.396 . S
C939 C942 1.378 . S
C939 H968 0.931 . S
C940 C939 1.396 . S
C940 C941 1.382 . S
C941 C937 1.381 . S
C941 C940 1.382 . S
C941 H969 0.930 . S
C942 N938 1.328 . S
C942 C939 1.378 . S
C942 H944 0.930 . S
H943 C937 0.931 . S
H944 C942 0.930 . S
C945 O956 1.238 . S
C945 O957 1.253 . S
C946 O958 1.239 . S
C946 O959 1.230 . S
N947 Cd918 2.304 1_455 S
N947 C948 1.337 1_455 S
N947 C952 1.338 . S
C948 N947 1.337 1_655 S
C948 C949 1.379 1_655 S
C948 H962 0.929 . S
C949 C948 1.379 1_455 S
C949 C950 1.380 . S
C949 H970 0.929 1_455 S
C950 C949 1.380 . S
C950 C951 1.399 . S
C951 C950 1.399 . S
C951 C952 1.376 . S
C951 H971 0.931 . S
C952 N947 1.338 . S
C952 C951 1.376 . S
C952 H963 0.930 . S
C953 O960 1.239 . S
C953 O961 1.230 . S
O954 Cd918 2.268 . S
O954 C928 1.238 . S
O955 Cd919 2.273 . S
O955 C928 1.253 . S
O956 Cd919 2.268 . S
O956 C945 1.238 . S
O957 Cd918 2.273 . S
O957 C945 1.253 . S
O958 Cd918 2.417 1_455 S
O958 C946 1.239 . S
O959 Cd918 2.330 1_455 S
O959 C946 1.230 . S
O960 Cd919 2.417 . S
O960 C953 1.239 . S
O961 Cd919 2.330 . S
O961 C953 1.230 . S
H962 C948 0.929 . S
H963 C952 0.930 . S
H964 C922 0.931 . S
H965 C924 0.958 . S
H966 C930 0.929 . S
H967 C932 0.931 . S
H968 C939 0.931 . S
H969 C941 0.930 . S
H970 C949 0.929 1_655 S
H971 C951 0.931 . S
Cd972 N975 2.334 . S
Cd972 N1001 2.304 1_455 S
Cd972 O1008 2.268 . S
Cd972 O1011 2.273 . S
Cd972 O1012 2.417 1_455 S
Cd972 O1013 2.330 1_455 S
Cd973 N988 2.304 . S
Cd973 N992 2.334 . S
Cd973 O1009 2.273 . S
Cd973 O1010 2.268 . S
Cd973 O1014 2.417 . S
Cd973 O1015 2.330 . S
C974 N975 1.332 . S
C974 C978 1.381 . S
C974 H980 0.931 . S
N975 Cd972 2.334 . S
N975 C974 1.332 . S
N975 C979 1.328 . S
C976 C977 1.396 . S
C976 C979 1.378 . S
C976 H1018 0.931 . S
C977 C976 1.396 . S
C977 C978 1.382 . S
C978 C974 1.381 . S
C978 C977 1.382 . S
C978 H1019 0.930 . S
C979 N975 1.328 . S
C979 C976 1.378 . S
C979 H981 0.930 . S
H980 C974 0.931 . S
H981 C979 0.930 . S
C982 O1008 1.238 . S
C982 O1009 1.253 . S
C983 C984 1.379 . S
C983 N988 1.337 . S
C983 H989 0.929 . S
C984 C983 1.379 . S
C984 C985 1.380 . S
C984 H1020 0.929 . S
C985 C984 1.380 . S
C985 C986 1.399 . S
C986 C985 1.399 . S
C986 C987 1.376 . S
C986 H1021 0.931 . S
C987 C986 1.376 . S
C987 N988 1.338 . S
C987 H990 0.930 . S
N988 Cd973 2.304 . S
N988 C983 1.337 . S
N988 C987 1.338 . S
H989 C983 0.929 . S
H990 C987 0.930 . S
C991 N992 1.332 . S
C991 C995 1.381 . S
C991 H997 0.931 . S
N992 Cd973 2.334 . S
N992 C991 1.332 . S
N992 C996 1.328 . S
C993 C994 1.396 . S
C993 C996 1.378 . S
C993 H1022 0.931 . S
C994 C993 1.396 . S
C994 C995 1.382 . S
C995 C991 1.381 . S
C995 C994 1.382 . S
C995 H1023 0.930 . S
C996 N992 1.328 . S
C996 C993 1.378 . S
C996 H998 0.930 . S
H997 C991 0.931 . S
H998 C996 0.930 . S
C999 O1010 1.238 . S
C999 O1011 1.253 . S
C1000 O1012 1.239 . S
C1000 O1013 1.230 . S
N1001 Cd972 2.304 1_655 S
N1001 C1002 1.337 1_655 S
N1001 C1006 1.338 . S
C1002 N1001 1.337 1_455 S
C1002 C1003 1.379 1_455 S
C1002 H1016 0.929 . S
C1003 C1002 1.379 1_655 S
C1003 C1004 1.380 . S
C1003 H1024 0.929 1_655 S
C1004 C1003 1.380 . S
C1004 C1005 1.399 . S
C1005 C1004 1.399 . S
C1005 C1006 1.376 . S
C1005 H1025 0.931 . S
C1006 N1001 1.338 . S
C1006 C1005 1.376 . S
C1006 H1017 0.930 . S
C1007 O1014 1.239 . S
C1007 O1015 1.230 . S
O1008 Cd972 2.268 . S
O1008 C982 1.238 . S
O1009 Cd973 2.273 . S
O1009 C982 1.253 . S
O1010 Cd973 2.268 . S
O1010 C999 1.238 . S
O1011 Cd972 2.273 . S
O1011 C999 1.253 . S
O1012 Cd972 2.417 1_655 S
O1012 C1000 1.239 . S
O1013 Cd972 2.330 1_655 S
O1013 C1000 1.230 . S
O1014 Cd973 2.417 . S
O1014 C1007 1.239 . S
O1015 Cd973 2.330 . S
O1015 C1007 1.230 . S
H1016 C1002 0.929 . S
H1017 C1006 0.930 . S
H1018 C976 0.931 . S
H1019 C978 0.930 . S
H1020 C984 0.929 . S
H1021 C986 0.931 . S
H1022 C993 0.931 . S
H1023 C995 0.930 . S
H1024 C1003 0.929 1_455 S
H1025 C1005 0.931 . S
Cd1026 N1029 2.334 . S
Cd1026 N1055 2.304 . S
Cd1026 O1062 2.268 . S
Cd1026 O1065 2.273 . S
Cd1026 O1066 2.417 . S
Cd1026 O1067 2.330 . S
Cd1027 N1042 2.304 . S
Cd1027 N1046 2.334 . S
Cd1027 O1063 2.273 . S
Cd1027 O1064 2.268 . S
Cd1027 O1068 2.417 . S
Cd1027 O1069 2.330 . S
C1028 N1029 1.332 . S
C1028 C1032 1.381 . S
C1028 H1034 0.931 . S
N1029 Cd1026 2.334 . S
N1029 C1028 1.332 . S
N1029 C1033 1.328 . S
C1030 C1031 1.396 . S
C1030 C1033 1.378 . S
C1030 H1072 0.931 . S
C1031 C1030 1.396 . S
C1031 C1032 1.382 . S
C1032 C1028 1.381 . S
C1032 C1031 1.382 . S
C1032 H1073 0.930 . S
C1033 N1029 1.328 . S
C1033 C1030 1.378 . S
C1033 H1035 0.930 . S
H1034 C1028 0.931 . S
H1035 C1033 0.930 . S
C1036 O1062 1.238 . S
C1036 O1063 1.253 . S
C1037 C1038 1.379 . S
C1037 N1042 1.337 . S
C1037 H1043 0.929 . S
C1038 C1037 1.379 . S
C1038 C1039 1.380 . S
C1038 H1074 0.929 . S
C1039 C1038 1.380 . S
C1039 C1040 1.399 . S
C1040 C1039 1.399 . S
C1040 C1041 1.376 . S
C1040 H1075 0.931 . S
C1041 C1040 1.376 . S
C1041 N1042 1.338 . S
C1041 H1044 0.930 . S
N1042 Cd1027 2.304 . S
N1042 C1037 1.337 . S
N1042 C1041 1.338 . S
H1043 C1037 0.929 . S
H1044 C1041 0.930 . S
C1045 N1046 1.332 . S
C1045 C1049 1.381 . S
C1045 H1051 0.931 . S
N1046 Cd1027 2.334 . S
N1046 C1045 1.332 . S
N1046 C1050 1.328 . S
C1047 C1048 1.396 . S
C1047 C1050 1.378 . S
C1047 H1076 0.931 . S
C1048 C1047 1.396 . S
C1048 C1049 1.382 . S
C1049 C1045 1.381 . S
C1049 C1048 1.382 . S
C1049 H1077 0.930 . S
C1050 N1046 1.328 . S
C1050 C1047 1.378 . S
C1050 H1052 0.930 . S
H1051 C1045 0.931 . S
H1052 C1050 0.930 . S
C1053 O1064 1.238 . S
C1053 O1065 1.253 . S
C1054 O1066 1.239 . S
C1054 O1067 1.230 . S
N1055 Cd1026 2.304 . S
N1055 C1056 1.337 . S
N1055 C1060 1.338 . S
C1056 N1055 1.337 . S
C1056 C1057 1.379 . S
C1056 H1070 0.929 . S
C1057 C1056 1.379 . S
C1057 C1058 1.380 . S
C1057 H1078 0.929 . S
C1058 C1057 1.380 . S
C1058 C1059 1.399 . S
C1059 C1058 1.399 . S
C1059 C1060 1.376 . S
C1059 H1079 0.931 . S
C1060 N1055 1.338 . S
C1060 C1059 1.376 . S
C1060 H1071 0.930 . S
C1061 O1068 1.239 . S
C1061 O1069 1.230 . S
O1062 Cd1026 2.268 . S
O1062 C1036 1.238 . S
O1063 Cd1027 2.273 . S
O1063 C1036 1.253 . S
O1064 Cd1027 2.268 . S
O1064 C1053 1.238 . S
O1065 Cd1026 2.273 . S
O1065 C1053 1.253 . S
O1066 Cd1026 2.417 . S
O1066 C1054 1.239 . S
O1067 Cd1026 2.330 . S
O1067 C1054 1.230 . S
O1068 Cd1027 2.417 . S
O1068 C1061 1.239 . S
O1069 Cd1027 2.330 . S
O1069 C1061 1.230 . S
H1070 C1056 0.929 . S
H1071 C1060 0.930 . S
H1072 C1030 0.931 . S
H1073 C1032 0.930 . S
H1074 C1038 0.929 . S
H1075 C1040 0.931 . S
H1076 C1047 0.931 . S
H1077 C1049 0.930 . S
H1078 C1057 0.929 . S
H1079 C1059 0.931 . S
Cd1080 N1083 2.334 . S
Cd1080 N1109 2.304 . S
Cd1080 O1116 2.268 . S
Cd1080 O1119 2.273 . S
Cd1080 O1120 2.417 . S
Cd1080 O1121 2.330 . S
Cd1081 N1096 2.304 . S
Cd1081 N1100 2.334 . S
Cd1081 O1117 2.273 . S
Cd1081 O1118 2.268 . S
Cd1081 O1122 2.417 . S
Cd1081 O1123 2.330 . S
C1082 N1083 1.332 . S
C1082 C1086 1.381 . S
C1082 H1088 0.931 . S
N1083 Cd1080 2.334 . S
N1083 C1082 1.332 . S
N1083 C1087 1.328 . S
C1084 C1085 1.396 . S
C1084 C1087 1.378 . S
C1084 H1126 0.931 . S
C1085 C1084 1.396 . S
C1085 C1086 1.382 . S
C1086 C1082 1.381 . S
C1086 C1085 1.382 . S
C1086 H1127 0.958 . S
C1087 N1083 1.328 . S
C1087 C1084 1.378 . S
C1087 H1089 0.930 . S
H1088 C1082 0.931 . S
H1089 C1087 0.930 . S
C1090 O1116 1.238 . S
C1090 O1117 1.253 . S
C1091 C1092 1.379 . S
C1091 N1096 1.337 . S
C1091 H1097 0.929 . S
C1092 C1091 1.379 . S
C1092 C1093 1.380 . S
C1092 H1128 0.929 . S
C1093 C1092 1.380 . S
C1093 C1094 1.399 . S
C1094 C1093 1.399 . S
C1094 C1095 1.376 . S
C1094 H1129 0.931 . S
C1095 C1094 1.376 . S
C1095 N1096 1.338 . S
C1095 H1098 0.930 . S
N1096 Cd1081 2.304 . S
N1096 C1091 1.337 . S
N1096 C1095 1.338 . S
H1097 C1091 0.929 . S
H1098 C1095 0.930 . S
C1099 N1100 1.332 . S
C1099 C1103 1.381 . S
C1099 H1105 0.931 . S
N1100 Cd1081 2.334 . S
N1100 C1099 1.332 . S
N1100 C1104 1.328 . S
C1101 C1102 1.396 . S
C1101 C1104 1.378 . S
C1101 H1130 0.931 . S
C1102 C1101 1.396 . S
C1102 C1103 1.382 . S
C1103 C1099 1.381 . S
C1103 C1102 1.382 . S
C1103 H1131 0.930 . S
C1104 N1100 1.328 . S
C1104 C1101 1.378 . S
C1104 H1106 0.930 . S
H1105 C1099 0.931 . S
H1106 C1104 0.930 . S
C1107 O1118 1.238 . S
C1107 O1119 1.253 . S
C1108 O1120 1.239 . S
C1108 O1121 1.230 . S
N1109 Cd1080 2.304 . S
N1109 C1110 1.337 . S
N1109 C1114 1.338 . S
C1110 N1109 1.337 . S
C1110 C1111 1.379 . S
C1110 H1124 0.929 . S
C1111 C1110 1.379 . S
C1111 C1112 1.380 . S
C1111 H1132 0.929 . S
C1112 C1111 1.380 . S
C1112 C1113 1.399 . S
C1113 C1112 1.399 . S
C1113 C1114 1.376 . S
C1113 H1133 0.931 . S
C1114 N1109 1.338 . S
C1114 C1113 1.376 . S
C1114 H1125 0.930 . S
C1115 O1122 1.239 . S
C1115 O1123 1.230 . S
O1116 Cd1080 2.268 . S
O1116 C1090 1.238 . S
O1117 Cd1081 2.273 . S
O1117 C1090 1.253 . S
O1118 Cd1081 2.268 . S
O1118 C1107 1.238 . S
O1119 Cd1080 2.273 . S
O1119 C1107 1.253 . S
O1120 Cd1080 2.417 . S
O1120 C1108 1.239 . S
O1121 Cd1080 2.330 . S
O1121 C1108 1.230 . S
O1122 Cd1081 2.417 . S
O1122 C1115 1.239 . S
O1123 Cd1081 2.330 . S
O1123 C1115 1.230 . S
H1124 C1110 0.929 . S
H1125 C1114 0.930 . S
H1126 C1084 0.931 . S
H1127 C1086 0.958 . S
H1128 C1092 0.929 . S
H1129 C1094 0.931 . S
H1130 C1101 0.931 . S
H1131 C1103 0.930 . S
H1132 C1111 0.929 . S
H1133 C1113 0.931 . S
Cd1134 N1137 2.334 . S
Cd1134 N1163 2.304 1_565 S
Cd1134 O1170 2.268 . S
Cd1134 O1173 2.273 . S
Cd1134 O1174 2.417 1_565 S
Cd1134 O1175 2.330 1_565 S
Cd1135 N1150 2.304 . S
Cd1135 N1154 2.334 . S
Cd1135 O1171 2.273 . S
Cd1135 O1172 2.268 . S
Cd1135 O1176 2.417 . S
Cd1135 O1177 2.330 . S
C1136 N1137 1.332 . S
C1136 C1140 1.381 . S
C1136 H1142 0.931 . S
N1137 Cd1134 2.334 . S
N1137 C1136 1.332 . S
N1137 C1141 1.328 . S
C1138 C1139 1.396 . S
C1138 C1141 1.378 . S
C1138 H1180 0.931 . S
C1139 C1138 1.396 . S
C1139 C1140 1.382 . S
C1140 C1136 1.381 . S
C1140 C1139 1.382 . S
C1140 H1181 0.958 . S
C1141 N1137 1.328 . S
C1141 C1138 1.378 . S
C1141 H1143 0.930 . S
H1142 C1136 0.931 . S
H1143 C1141 0.930 . S
C1144 O1170 1.238 . S
C1144 O1171 1.253 . S
C1145 C1146 1.379 . S
C1145 N1150 1.337 . S
C1145 H1151 0.929 . S
C1146 C1145 1.379 . S
C1146 C1147 1.380 . S
C1146 H1182 0.929 . S
C1147 C1146 1.380 . S
C1147 C1148 1.399 . S
C1148 C1147 1.399 . S
C1148 C1149 1.376 . S
C1148 H1183 0.931 . S
C1149 C1148 1.376 . S
C1149 N1150 1.338 . S
C1149 H1152 0.930 . S
N1150 Cd1135 2.304 . S
N1150 C1145 1.337 . S
N1150 C1149 1.338 . S
H1151 C1145 0.929 . S
H1152 C1149 0.930 . S
C1153 N1154 1.332 . S
C1153 C1157 1.381 . S
C1153 H1159 0.931 . S
N1154 Cd1135 2.334 . S
N1154 C1153 1.332 . S
N1154 C1158 1.328 . S
C1155 C1156 1.396 . S
C1155 C1158 1.378 . S
C1155 H1184 0.931 . S
C1156 C1155 1.396 . S
C1156 C1157 1.382 . S
C1157 C1153 1.381 . S
C1157 C1156 1.382 . S
C1157 H1185 0.930 . S
C1158 N1154 1.328 . S
C1158 C1155 1.378 . S
C1158 H1160 0.930 . S
H1159 C1153 0.931 . S
H1160 C1158 0.930 . S
C1161 O1172 1.238 . S
C1161 O1173 1.253 . S
C1162 O1174 1.239 . S
C1162 O1175 1.230 . S
N1163 Cd1134 2.304 1_545 S
N1163 C1164 1.337 1_545 S
N1163 C1168 1.338 . S
C1164 N1163 1.337 1_565 S
C1164 C1165 1.379 1_565 S
C1164 H1178 0.929 . S
C1165 C1164 1.379 1_545 S
C1165 C1166 1.380 . S
C1165 H1186 0.929 1_545 S
C1166 C1165 1.380 . S
C1166 C1167 1.399 . S
C1167 C1166 1.399 . S
C1167 C1168 1.376 . S
C1167 H1187 0.931 . S
C1168 N1163 1.338 . S
C1168 C1167 1.376 . S
C1168 H1179 0.930 . S
C1169 O1176 1.239 . S
C1169 O1177 1.230 . S
O1170 Cd1134 2.268 . S
O1170 C1144 1.238 . S
O1171 Cd1135 2.273 . S
O1171 C1144 1.253 . S
O1172 Cd1135 2.268 . S
O1172 C1161 1.238 . S
O1173 Cd1134 2.273 . S
O1173 C1161 1.253 . S
O1174 Cd1134 2.417 1_545 S
O1174 C1162 1.239 . S
O1175 Cd1134 2.330 1_545 S
O1175 C1162 1.230 . S
O1176 Cd1135 2.417 . S
O1176 C1169 1.239 . S
O1177 Cd1135 2.330 . S
O1177 C1169 1.230 . S
H1178 C1164 0.929 . S
H1179 C1168 0.930 . S
H1180 C1138 0.931 . S
H1181 C1140 0.958 . S
H1182 C1146 0.929 . S
H1183 C1148 0.931 . S
H1184 C1155 0.931 . S
H1185 C1157 0.930 . S
H1186 C1165 0.929 1_565 S
H1187 C1167 0.931 . S
Cd1188 N1191 2.334 . S
Cd1188 N1217 2.304 1_545 S
Cd1188 O1224 2.268 . S
Cd1188 O1227 2.273 . S
Cd1188 O1228 2.417 1_545 S
Cd1188 O1229 2.330 1_545 S
Cd1189 N1204 2.304 . S
Cd1189 N1208 2.334 . S
Cd1189 O1225 2.273 . S
Cd1189 O1226 2.268 . S
Cd1189 O1230 2.417 . S
Cd1189 O1231 2.330 . S
C1190 N1191 1.332 . S
C1190 C1194 1.381 . S
C1190 H1196 0.931 . S
N1191 Cd1188 2.334 . S
N1191 C1190 1.332 . S
N1191 C1195 1.328 . S
C1192 C1193 1.396 . S
C1192 C1195 1.378 . S
C1192 H1234 0.931 . S
C1193 C1192 1.396 . S
C1193 C1194 1.382 . S
C1194 C1190 1.381 . S
C1194 C1193 1.382 . S
C1194 H1235 0.930 . S
C1195 N1191 1.328 . S
C1195 C1192 1.378 . S
C1195 H1197 0.930 . S
H1196 C1190 0.931 . S
H1197 C1195 0.930 . S
C1198 O1224 1.238 . S
C1198 O1225 1.253 . S
C1199 C1200 1.379 . S
C1199 N1204 1.337 . S
C1199 H1205 0.929 . S
C1200 C1199 1.379 . S
C1200 C1201 1.380 . S
C1200 H1236 0.929 . S
C1201 C1200 1.380 . S
C1201 C1202 1.399 . S
C1202 C1201 1.399 . S
C1202 C1203 1.376 . S
C1202 H1237 0.931 . S
C1203 C1202 1.376 . S
C1203 N1204 1.338 . S
C1203 H1206 0.930 . S
N1204 Cd1189 2.304 . S
N1204 C1199 1.337 . S
N1204 C1203 1.338 . S
H1205 C1199 0.929 . S
H1206 C1203 0.930 . S
C1207 N1208 1.332 . S
C1207 C1211 1.381 . S
C1207 H1213 0.931 . S
N1208 Cd1189 2.334 . S
N1208 C1207 1.332 . S
N1208 C1212 1.328 . S
C1209 C1210 1.396 . S
C1209 C1212 1.378 . S
C1209 H1238 0.931 . S
C1210 C1209 1.396 . S
C1210 C1211 1.382 . S
C1211 C1207 1.381 . S
C1211 C1210 1.382 . S
C1211 H1239 0.930 . S
C1212 N1208 1.328 . S
C1212 C1209 1.378 . S
C1212 H1214 0.930 . S
H1213 C1207 0.931 . S
H1214 C1212 0.930 . S
C1215 O1226 1.238 . S
C1215 O1227 1.253 . S
C1216 O1228 1.239 . S
C1216 O1229 1.230 . S
N1217 Cd1188 2.304 1_565 S
N1217 C1218 1.337 1_565 S
N1217 C1222 1.338 . S
C1218 N1217 1.337 1_545 S
C1218 C1219 1.379 1_545 S
C1218 H1232 0.929 . S
C1219 C1218 1.379 1_565 S
C1219 C1220 1.380 . S
C1219 H1240 0.929 1_565 S
C1220 C1219 1.380 . S
C1220 C1221 1.399 . S
C1221 C1220 1.399 . S
C1221 C1222 1.376 . S
C1221 H1241 0.931 . S
C1222 N1217 1.338 . S
C1222 C1221 1.376 . S
C1222 H1233 0.930 . S
C1223 O1230 1.239 . S
C1223 O1231 1.230 . S
O1224 Cd1188 2.268 . S
O1224 C1198 1.238 . S
O1225 Cd1189 2.273 . S
O1225 C1198 1.253 . S
O1226 Cd1189 2.268 . S
O1226 C1215 1.238 . S
O1227 Cd1188 2.273 . S
O1227 C1215 1.253 . S
O1228 Cd1188 2.417 1_565 S
O1228 C1216 1.239 . S
O1229 Cd1188 2.330 1_565 S
O1229 C1216 1.230 . S
O1230 Cd1189 2.417 . S
O1230 C1223 1.239 . S
O1231 Cd1189 2.330 . S
O1231 C1223 1.230 . S
H1232 C1218 0.929 . S
H1233 C1222 0.930 . S
H1234 C1192 0.931 . S
H1235 C1194 0.930 . S
H1236 C1200 0.929 . S
H1237 C1202 0.931 . S
H1238 C1209 0.931 . S
H1239 C1211 0.930 . S
H1240 C1219 0.929 1_545 S
H1241 C1221 0.931 . S
Cd1242 N1245 2.334 . S
Cd1242 N1271 2.304 . S
Cd1242 O1278 2.268 . S
Cd1242 O1281 2.273 . S
Cd1242 O1282 2.417 . S
Cd1242 O1283 2.330 . S
Cd1243 N1258 2.304 . S
Cd1243 N1262 2.334 . S
Cd1243 O1279 2.273 . S
Cd1243 O1280 2.268 . S
Cd1243 O1284 2.417 . S
Cd1243 O1285 2.330 . S
C1244 N1245 1.332 . S
C1244 C1248 1.381 . S
C1244 H1250 0.931 . S
N1245 Cd1242 2.334 . S
N1245 C1244 1.332 . S
N1245 C1249 1.328 . S
C1246 C1247 1.396 . S
C1246 C1249 1.378 . S
C1246 H1288 0.931 . S
C1247 C1246 1.396 . S
C1247 C1248 1.382 . S
C1248 C1244 1.381 . S
C1248 C1247 1.382 . S
C1248 H1289 0.930 . S
C1249 N1245 1.328 . S
C1249 C1246 1.378 . S
C1249 H1251 0.930 . S
H1250 C1244 0.931 . S
H1251 C1249 0.930 . S
C1252 O1278 1.238 . S
C1252 O1279 1.253 . S
C1253 C1254 1.379 . S
C1253 N1258 1.337 . S
C1253 H1259 0.929 . S
C1254 C1253 1.379 . S
C1254 C1255 1.380 . S
C1254 H1290 0.929 . S
C1255 C1254 1.380 . S
C1255 C1256 1.399 . S
C1256 C1255 1.399 . S
C1256 C1257 1.376 . S
C1256 H1291 0.931 . S
C1257 C1256 1.376 . S
C1257 N1258 1.338 . S
C1257 H1260 0.930 . S
N1258 Cd1243 2.304 . S
N1258 C1253 1.337 . S
N1258 C1257 1.338 . S
H1259 C1253 0.929 . S
H1260 C1257 0.930 . S
C1261 N1262 1.332 . S
C1261 C1265 1.381 . S
C1261 H1267 0.931 . S
N1262 Cd1243 2.334 . S
N1262 C1261 1.332 . S
N1262 C1266 1.328 . S
C1263 C1264 1.396 . S
C1263 C1266 1.378 . S
C1263 H1292 0.931 . S
C1264 C1263 1.396 . S
C1264 C1265 1.382 . S
C1265 C1261 1.381 . S
C1265 C1264 1.382 . S
C1265 H1293 0.930 . S
C1266 N1262 1.328 . S
C1266 C1263 1.378 . S
C1266 H1268 0.930 . S
H1267 C1261 0.931 . S
H1268 C1266 0.930 . S
C1269 O1280 1.238 . S
C1269 O1281 1.253 . S
C1270 O1282 1.239 . S
C1270 O1283 1.230 . S
N1271 Cd1242 2.304 . S
N1271 C1272 1.337 . S
N1271 C1276 1.338 . S
C1272 N1271 1.337 . S
C1272 C1273 1.379 . S
C1272 H1286 0.929 . S
C1273 C1272 1.379 . S
C1273 C1274 1.380 . S
C1273 H1294 0.929 . S
C1274 C1273 1.380 . S
C1274 C1275 1.399 . S
C1275 C1274 1.399 . S
C1275 C1276 1.376 . S
C1275 H1295 0.931 . S
C1276 N1271 1.338 . S
C1276 C1275 1.376 . S
C1276 H1287 0.930 . S
C1277 O1284 1.239 . S
C1277 O1285 1.230 . S
O1278 Cd1242 2.268 . S
O1278 C1252 1.238 . S
O1279 Cd1243 2.273 . S
O1279 C1252 1.253 . S
O1280 Cd1243 2.268 . S
O1280 C1269 1.238 . S
O1281 Cd1242 2.273 . S
O1281 C1269 1.253 . S
O1282 Cd1242 2.417 . S
O1282 C1270 1.239 . S
O1283 Cd1242 2.330 . S
O1283 C1270 1.230 . S
O1284 Cd1243 2.417 . S
O1284 C1277 1.239 . S
O1285 Cd1243 2.330 . S
O1285 C1277 1.230 . S
H1286 C1272 0.929 . S
H1287 C1276 0.930 . S
H1288 C1246 0.931 . S
H1289 C1248 0.930 . S
H1290 C1254 0.929 . S
H1291 C1256 0.931 . S
H1292 C1263 0.931 . S
H1293 C1265 0.930 . S
H1294 C1273 0.929 . S
H1295 C1275 0.931 . S
C1296 C1297 1.387 . S
C1296 H1300 0.950 . S
C1296 C1305 1.390 . S
C1297 C1296 1.387 . S
C1297 C1299 1.387 . S
H1298 C1305 0.950 . S
C1299 C1297 1.387 . S
C1299 C1301 1.390 . S
C1299 H1303 0.950 . S
H1300 C1296 0.950 . S
C1301 C1299 1.390 . S
C1301 C1302 1.387 . S
C1301 H1304 0.950 . S
C1302 C1301 1.387 . S
C1302 C1305 1.387 . S
H1303 C1299 0.950 . S
H1304 C1301 0.950 . S
C1305 C1296 1.390 . S
C1305 H1298 0.950 . S
C1305 C1302 1.387 . S
C1306 C1307 1.387 . S
C1306 H1310 0.950 . S
C1306 C1315 1.390 . S
C1307 C1306 1.387 . S
C1307 C1309 1.387 . S
H1308 C1315 0.950 . S
C1309 C1307 1.387 . S
C1309 C1311 1.390 . S
C1309 H1313 0.950 . S
H1310 C1306 0.950 . S
C1311 C1309 1.390 . S
C1311 C1312 1.387 . S
C1311 H1314 0.950 . S
C1312 C1311 1.387 . S
C1312 C1315 1.387 . S
H1313 C1309 0.950 . S
H1314 C1311 0.950 . S
C1315 C1306 1.390 . S
C1315 H1308 0.950 . S
C1315 C1312 1.387 . S
C1316 C1317 1.387 1_545 S
C1316 H1320 0.963 . S
C1316 C1325 1.390 . S
C1317 C1316 1.387 1_565 S
C1317 C1319 1.387 1_565 S
H1318 C1325 0.950 . S
C1319 C1317 1.387 1_545 S
C1319 C1321 1.390 . S
C1319 H1323 0.963 . S
H1320 C1316 0.963 . S
C1321 C1319 1.390 . S
C1321 C1322 1.387 . S
C1321 H1324 0.950 . S
C1322 C1321 1.387 . S
C1322 C1325 1.387 . S
H1323 C1319 0.963 . S
H1324 C1321 0.950 . S
C1325 C1316 1.390 . S
C1325 H1318 0.950 . S
C1325 C1322 1.387 . S
C1326 C1327 1.387 . S
C1326 H1330 0.950 . S
C1326 C1335 1.390 . S
C1327 C1326 1.387 . S
C1327 C1329 1.387 . S
H1328 C1335 0.963 . S
C1329 C1327 1.387 . S
C1329 C1331 1.390 . S
C1329 H1333 0.950 . S
H1330 C1326 0.950 . S
C1331 C1329 1.390 . S
C1331 C1332 1.387 1_565 S
C1331 H1334 0.963 . S
C1332 C1331 1.387 1_545 S
C1332 C1335 1.387 1_545 S
H1333 C1329 0.950 . S
H1334 C1331 0.963 . S
C1335 C1326 1.390 . S
C1335 H1328 0.963 . S
C1335 C1332 1.387 1_565 S
C1336 C1337 1.387 . S
C1336 H1340 0.950 . S
C1336 C1345 1.390 . S
C1337 C1336 1.387 . S
C1337 C1339 1.387 . S
H1338 C1345 0.950 . S
C1339 C1337 1.387 . S
C1339 C1341 1.390 . S
C1339 H1343 0.950 . S
H1340 C1336 0.950 . S
C1341 C1339 1.390 . S
C1341 C1342 1.387 . S
C1341 H1344 0.950 . S
C1342 C1341 1.387 . S
C1342 C1345 1.387 . S
H1343 C1339 0.950 . S
H1344 C1341 0.950 . S
C1345 C1336 1.390 . S
C1345 H1338 0.950 . S
C1345 C1342 1.387 . S
C1346 C1347 1.387 1_556 S
C1346 H1350 0.962 . S
C1346 C1355 1.390 . S
C1347 C1346 1.387 1_554 S
C1347 C1349 1.387 1_554 S
H1348 C1355 0.950 . S
C1349 C1347 1.387 1_556 S
C1349 C1351 1.390 . S
C1349 H1353 0.964 . S
H1350 C1346 0.962 . S
C1351 C1349 1.390 . S
C1351 C1352 1.387 . S
C1351 H1354 0.950 . S
C1352 C1351 1.387 . S
C1352 C1355 1.387 . S
H1353 C1349 0.964 . S
H1354 C1351 0.950 . S
C1355 C1346 1.390 . S
C1355 H1348 0.950 . S
C1355 C1352 1.387 . S
C1356 C1357 1.387 . S
C1356 H1360 0.950 . S
C1356 C1365 1.390 . S
C1357 C1356 1.387 . S
C1357 C1359 1.387 . S
H1358 C1365 0.950 . S
C1359 C1357 1.387 . S
C1359 C1361 1.390 . S
C1359 H1363 0.950 . S
H1360 C1356 0.950 . S
C1361 C1359 1.390 . S
C1361 C1362 1.387 . S
C1361 H1364 0.950 . S
C1362 C1361 1.387 . S
C1362 C1365 1.387 . S
H1363 C1359 0.950 . S
H1364 C1361 0.950 . S
C1365 C1356 1.390 . S
C1365 H1358 0.950 . S
C1365 C1362 1.387 . S
C1366 C1367 1.387 1_554 S
C1366 H1370 0.966 . S
C1366 C1375 1.390 . S
C1367 C1366 1.387 1_556 S
C1367 C1369 1.387 1_556 S
H1368 C1375 0.950 . S
C1369 C1367 1.387 1_554 S
C1369 C1371 1.390 . S
C1369 H1373 0.966 . S
H1370 C1366 0.966 . S
C1371 C1369 1.390 . S
C1371 C1372 1.387 . S
C1371 H1374 0.950 . S
C1372 C1371 1.387 . S
C1372 C1375 1.387 . S
H1373 C1369 0.966 . S
H1374 C1371 0.950 . S
C1375 C1366 1.390 . S
C1375 H1368 0.950 . S
C1375 C1372 1.387 . S
C1376 C1377 1.387 . S
C1376 H1380 0.950 . S
C1376 C1385 1.390 . S
C1377 C1376 1.387 . S
C1377 C1379 1.387 . S
H1378 C1385 0.950 . S
C1379 C1377 1.387 . S
C1379 C1381 1.390 . S
C1379 H1383 0.950 . S
H1380 C1376 0.950 . S
C1381 C1379 1.390 . S
C1381 C1382 1.387 . S
C1381 H1384 0.950 . S
C1382 C1381 1.387 . S
C1382 C1385 1.387 . S
H1383 C1379 0.950 . S
H1384 C1381 0.950 . S
C1385 C1376 1.390 . S
C1385 H1378 0.950 . S
C1385 C1382 1.387 . S
C1386 C1387 1.387 1_655 S
C1386 H1390 0.963 . S
C1386 C1395 1.390 . S
C1387 C1386 1.387 1_455 S
C1387 C1389 1.387 1_455 S
H1388 C1395 0.950 . S
C1389 C1387 1.387 1_655 S
C1389 C1391 1.390 . S
C1389 H1393 0.963 . S
H1390 C1386 0.963 . S
C1391 C1389 1.390 . S
C1391 C1392 1.387 . S
C1391 H1394 0.950 . S
C1392 C1391 1.387 . S
C1392 C1395 1.387 . S
H1393 C1389 0.963 . S
H1394 C1391 0.950 . S
C1395 C1386 1.390 . S
C1395 H1388 0.950 . S
C1395 C1392 1.387 . S
C1396 C1397 1.387 . S
C1396 H1400 0.950 . S
C1396 C1405 1.390 . S
C1397 C1396 1.387 . S
C1397 C1399 1.387 . S
H1398 C1405 0.950 . S
C1399 C1397 1.387 . S
C1399 C1401 1.390 . S
C1399 H1403 0.950 . S
H1400 C1396 0.950 . S
C1401 C1399 1.390 . S
C1401 C1402 1.387 . S
C1401 H1404 0.950 . S
C1402 C1401 1.387 . S
C1402 C1405 1.387 . S
H1403 C1399 0.950 . S
H1404 C1401 0.950 . S
C1405 C1396 1.390 . S
C1405 H1398 0.950 . S
C1405 C1402 1.387 . S
C1406 C1407 1.387 1_455 S
C1406 H1410 0.966 . S
C1406 C1415 1.390 . S
C1407 C1406 1.387 1_655 S
C1407 C1409 1.387 1_655 S
H1408 C1415 0.950 . S
C1409 C1407 1.387 1_455 S
C1409 C1411 1.390 . S
C1409 H1413 0.966 . S
H1410 C1406 0.966 . S
C1411 C1409 1.390 . S
C1411 C1412 1.387 . S
C1411 H1414 0.950 . S
C1412 C1411 1.387 . S
C1412 C1415 1.387 . S
H1413 C1409 0.966 . S
H1414 C1411 0.950 . S
C1415 C1406 1.390 . S
C1415 H1408 0.950 . S
C1415 C1412 1.387 . S
C1416 C1417 1.387 . S
C1416 H1420 0.950 . S
C1416 C1425 1.390 . S
C1417 C1416 1.387 . S
C1417 C1419 1.387 . S
H1418 C1425 0.950 . S
C1419 C1417 1.387 . S
C1419 C1421 1.390 . S
C1419 H1423 0.950 . S
H1420 C1416 0.950 . S
C1421 C1419 1.390 . S
C1421 C1422 1.387 . S
C1421 H1424 0.950 . S
C1422 C1421 1.387 . S
C1422 C1425 1.387 . S
H1423 C1419 0.950 . S
H1424 C1421 0.950 . S
C1425 C1416 1.390 . S
C1425 H1418 0.950 . S
C1425 C1422 1.387 . S
C1426 C1427 1.387 . S
C1426 H1430 0.950 . S
C1426 C1435 1.390 . S
C1427 C1426 1.387 . S
C1427 C1429 1.387 . S
H1428 C1435 0.950 . S
C1429 C1427 1.387 . S
C1429 C1431 1.390 . S
C1429 H1433 0.950 . S
H1430 C1426 0.950 . S
C1431 C1429 1.390 . S
C1431 C1432 1.387 . S
C1431 H1434 0.950 . S
C1432 C1431 1.387 . S
C1432 C1435 1.387 . S
H1433 C1429 0.950 . S
H1434 C1431 0.950 . S
C1435 C1426 1.390 . S
C1435 H1428 0.950 . S
C1435 C1432 1.387 . S
C1436 C1437 1.387 1_565 S
C1436 H1440 0.966 . S
C1436 C1445 1.390 . S
C1437 C1436 1.387 1_545 S
C1437 C1439 1.387 1_545 S
H1438 C1445 0.950 . S
C1439 C1437 1.387 1_565 S
C1439 C1441 1.390 . S
C1439 H1443 0.966 . S
H1440 C1436 0.966 . S
C1441 C1439 1.390 . S
C1441 C1442 1.387 . S
C1441 H1444 0.950 . S
C1442 C1441 1.387 . S
C1442 C1445 1.387 . S
H1443 C1439 0.966 . S
H1444 C1441 0.950 . S
C1445 C1436 1.390 . S
C1445 H1438 0.950 . S
C1445 C1442 1.387 . S
C1446 C1447 1.387 . S
C1446 H1450 0.950 . S
C1446 C1455 1.390 . S
C1447 C1446 1.387 . S
C1447 C1449 1.387 . S
H1448 C1455 0.966 . S
C1449 C1447 1.387 . S
C1449 C1451 1.390 . S
C1449 H1453 0.950 . S
H1450 C1446 0.950 . S
C1451 C1449 1.390 . S
C1451 C1452 1.387 1_545 S
C1451 H1454 0.966 . S
C1452 C1451 1.387 1_565 S
C1452 C1455 1.387 1_565 S
H1453 C1449 0.950 . S
H1454 C1451 0.966 . S
C1455 C1446 1.390 . S
C1455 H1448 0.966 . S
C1455 C1452 1.387 1_545 S
C1456 C1457 1.387 . S
C1456 H1460 0.950 . S
C1456 C1465 1.390 . S
C1457 C1456 1.387 . S
C1457 C1459 1.387 . S
H1458 C1465 0.950 . S
C1459 C1457 1.387 . S
C1459 C1461 1.390 . S
C1459 H1463 0.950 . S
H1460 C1456 0.950 . S
C1461 C1459 1.390 . S
C1461 C1462 1.387 . S
C1461 H1464 0.950 . S
C1462 C1461 1.387 . S
C1462 C1465 1.387 . S
H1463 C1459 0.950 . S
H1464 C1461 0.950 . S
C1465 C1456 1.390 . S
C1465 H1458 0.950 . S
C1465 C1462 1.387 . S
C1466 C1467 1.387 . S
C1466 H1470 0.950 . S
C1466 C1475 1.390 . S
C1467 C1466 1.387 . S
C1467 C1469 1.387 . S
H1468 C1475 0.966 . S
C1469 C1467 1.387 . S
C1469 C1471 1.390 . S
C1469 H1473 0.950 . S
H1470 C1466 0.950 . S
C1471 C1469 1.390 . S
C1471 C1472 1.387 1_554 S
C1471 H1474 0.966 . S
C1472 C1471 1.387 1_556 S
C1472 C1475 1.387 1_556 S
H1473 C1469 0.950 . S
H1474 C1471 0.966 . S
C1475 C1466 1.390 . S
C1475 H1468 0.966 . S
C1475 C1472 1.387 1_554 S
C1476 C1477 1.387 . S
C1476 H1480 0.950 . S
C1476 C1485 1.390 . S
C1477 C1476 1.387 . S
C1477 C1479 1.387 . S
H1478 C1485 0.950 . S
C1479 C1477 1.387 . S
C1479 C1481 1.390 . S
C1479 H1483 0.950 . S
H1480 C1476 0.950 . S
C1481 C1479 1.390 . S
C1481 C1482 1.387 . S
C1481 H1484 0.950 . S
C1482 C1481 1.387 . S
C1482 C1485 1.387 . S
H1483 C1479 0.950 . S
H1484 C1481 0.950 . S
C1485 C1476 1.390 . S
C1485 H1478 0.950 . S
C1485 C1482 1.387 . S
C1486 C1487 1.387 1_556 S
C1486 H1490 0.966 . S
C1486 C1495 1.390 . S
C1487 C1486 1.387 1_554 S
C1487 C1489 1.387 1_554 S
H1488 C1495 0.950 . S
C1489 C1487 1.387 1_556 S
C1489 C1491 1.390 . S
C1489 H1493 0.966 . S
H1490 C1486 0.966 . S
C1491 C1489 1.390 . S
C1491 C1492 1.387 . S
C1491 H1494 0.950 . S
C1492 C1491 1.387 . S
C1492 C1495 1.387 . S
H1493 C1489 0.966 . S
H1494 C1491 0.950 . S
C1495 C1486 1.390 . S
C1495 H1488 0.950 . S
C1495 C1492 1.387 . S
C1496 C1497 1.387 . S
C1496 H1500 0.950 . S
C1496 C1505 1.390 . S
C1497 C1496 1.387 . S
C1497 C1499 1.387 . S
H1498 C1505 0.950 . S
C1499 C1497 1.387 . S
C1499 C1501 1.390 . S
C1499 H1503 0.950 . S
H1500 C1496 0.950 . S
C1501 C1499 1.390 . S
C1501 C1502 1.387 . S
C1501 H1504 0.950 . S
C1502 C1501 1.387 . S
C1502 C1505 1.387 . S
H1503 C1499 0.950 . S
H1504 C1501 0.950 . S
C1505 C1496 1.390 . S
C1505 H1498 0.950 . S
C1505 C1502 1.387 . S
C1506 C1507 1.387 1_455 S
C1506 H1510 0.966 . S
C1506 C1515 1.390 . S
C1507 C1506 1.387 1_655 S
C1507 C1509 1.387 1_655 S
H1508 C1515 0.950 . S
C1509 C1507 1.387 1_455 S
C1509 C1511 1.390 . S
C1509 H1513 0.966 . S
H1510 C1506 0.966 . S
C1511 C1509 1.390 . S
C1511 C1512 1.387 . S
C1511 H1514 0.950 . S
C1512 C1511 1.387 . S
C1512 C1515 1.387 . S
H1513 C1509 0.966 . S
H1514 C1511 0.950 . S
C1515 C1506 1.390 . S
C1515 H1508 0.950 . S
C1515 C1512 1.387 . S
C1516 C1517 1.387 . S
C1516 H1520 0.950 . S
C1516 C1525 1.390 . S
C1517 C1516 1.387 . S
C1517 C1519 1.387 . S
H1518 C1525 0.950 . S
C1519 C1517 1.387 . S
C1519 C1521 1.390 . S
C1519 H1523 0.950 . S
H1520 C1516 0.950 . S
C1521 C1519 1.390 . S
C1521 C1522 1.387 . S
C1521 H1524 0.950 . S
C1522 C1521 1.387 . S
C1522 C1525 1.387 . S
H1523 C1519 0.950 . S
H1524 C1521 0.950 . S
C1525 C1516 1.390 . S
C1525 H1518 0.950 . S
C1525 C1522 1.387 . S
C1526 C1527 1.387 . S
C1526 H1530 0.950 . S
C1526 C1535 1.390 . S
C1527 C1526 1.387 . S
C1527 C1529 1.387 . S
H1528 C1535 0.966 . S
C1529 C1527 1.387 . S
C1529 C1531 1.390 . S
C1529 H1533 0.950 . S
H1530 C1526 0.950 . S
C1531 C1529 1.390 . S
C1531 C1532 1.387 1_655 S
C1531 H1534 0.966 . S
C1532 C1531 1.387 1_455 S
C1532 C1535 1.387 1_455 S
H1533 C1529 0.950 . S
H1534 C1531 0.966 . S
C1535 C1526 1.390 . S
C1535 H1528 0.966 . S
C1535 C1532 1.387 1_655 S
C1536 C1537 1.387 . S
C1536 H1540 0.950 . S
C1536 C1545 1.390 . S
C1537 C1536 1.387 . S
C1537 C1539 1.387 . S
H1538 C1545 0.950 . S
C1539 C1537 1.387 . S
C1539 C1541 1.390 . S
C1539 H1543 0.950 . S
H1540 C1536 0.950 . S
C1541 C1539 1.390 . S
C1541 C1542 1.387 . S
C1541 H1544 0.950 . S
C1542 C1541 1.387 . S
C1542 C1545 1.387 . S
H1543 C1539 0.950 . S
H1544 C1541 0.950 . S
C1545 C1536 1.390 . S
C1545 H1538 0.950 . S
C1545 C1542 1.387 . S
C1546 C1547 1.387 . S
C1546 H1550 0.950 . S
C1546 C1555 1.390 . S
C1547 C1546 1.387 . S
C1547 C1549 1.387 . S
H1548 C1555 0.950 . S
C1549 C1547 1.387 . S
C1549 C1551 1.390 . S
C1549 H1553 0.950 . S
H1550 C1546 0.950 . S
C1551 C1549 1.390 . S
C1551 C1552 1.387 . S
C1551 H1554 0.950 . S
C1552 C1551 1.387 . S
C1552 C1555 1.387 . S
H1553 C1549 0.950 . S
H1554 C1551 0.950 . S
C1555 C1546 1.390 . S
C1555 H1548 0.950 . S
C1555 C1552 1.387 . S
C1556 C1557 1.387 . S
C1556 H1560 0.950 . S
C1556 C1565 1.390 . S
C1557 C1556 1.387 . S
C1557 C1559 1.387 . S
H1558 C1565 0.950 . S
C1559 C1557 1.387 . S
C1559 C1561 1.390 . S
C1559 H1563 0.950 . S
H1560 C1556 0.950 . S
C1561 C1559 1.390 . S
C1561 C1562 1.387 . S
C1561 H1564 0.950 . S
C1562 C1561 1.387 . S
C1562 C1565 1.387 . S
H1563 C1559 0.950 . S
H1564 C1561 0.950 . S
C1565 C1556 1.390 . S
C1565 H1558 0.950 . S
C1565 C1562 1.387 . S
C1566 C1567 1.387 . S
C1566 H1570 0.950 . S
C1566 C1575 1.390 . S
C1567 C1566 1.387 . S
C1567 C1569 1.387 . S
H1568 C1575 0.950 . S
C1569 C1567 1.387 . S
C1569 C1571 1.390 . S
C1569 H1573 0.950 . S
H1570 C1566 0.950 . S
C1571 C1569 1.390 . S
C1571 C1572 1.387 . S
C1571 H1574 0.950 . S
C1572 C1571 1.387 . S
C1572 C1575 1.387 . S
H1573 C1569 0.950 . S
H1574 C1571 0.950 . S
C1575 C1566 1.390 . S
C1575 H1568 0.950 . S
C1575 C1572 1.387 . S
C1576 C1577 1.387 . S
C1576 H1580 0.950 . S
C1576 C1585 1.390 . S
C1577 C1576 1.387 . S
C1577 C1579 1.387 . S
H1578 C1585 0.950 . S
C1579 C1577 1.387 . S
C1579 C1581 1.390 . S
C1579 H1583 0.950 . S
H1580 C1576 0.950 . S
C1581 C1579 1.390 . S
C1581 C1582 1.387 . S
C1581 H1584 0.950 . S
C1582 C1581 1.387 . S
C1582 C1585 1.387 . S
H1583 C1579 0.950 . S
H1584 C1581 0.950 . S
C1585 C1576 1.390 . S
C1585 H1578 0.950 . S
C1585 C1582 1.387 . S
C1586 C1587 1.387 . S
C1586 H1590 0.950 . S
C1586 C1595 1.390 . S
C1587 C1586 1.387 . S
C1587 C1589 1.387 . S
H1588 C1595 0.950 . S
C1589 C1587 1.387 . S
C1589 C1591 1.390 . S
C1589 H1593 0.950 . S
H1590 C1586 0.950 . S
C1591 C1589 1.390 . S
C1591 C1592 1.387 . S
C1591 H1594 0.950 . S
C1592 C1591 1.387 . S
C1592 C1595 1.387 . S
H1593 C1589 0.950 . S
H1594 C1591 0.950 . S
C1595 C1586 1.390 . S
C1595 H1588 0.950 . S
C1595 C1592 1.387 . S
C1596 C1597 1.387 . S
C1596 H1600 0.950 . S
C1596 C1605 1.390 . S
C1597 C1596 1.387 . S
C1597 C1599 1.387 . S
H1598 C1605 0.950 . S
C1599 C1597 1.387 . S
C1599 C1601 1.390 . S
C1599 H1603 0.950 . S
H1600 C1596 0.950 . S
C1601 C1599 1.390 . S
C1601 C1602 1.387 . S
C1601 H1604 0.950 . S
C1602 C1601 1.387 . S
C1602 C1605 1.387 . S
H1603 C1599 0.950 . S
H1604 C1601 0.950 . S
C1605 C1596 1.390 . S
C1605 H1598 0.950 . S
C1605 C1602 1.387 . S
C1606 C1607 1.387 . S
C1606 H1610 0.950 . S
C1606 C1615 1.390 . S
C1607 C1606 1.387 . S
C1607 C1609 1.387 . S
H1608 C1615 0.950 . S
C1609 C1607 1.387 . S
C1609 C1611 1.390 . S
C1609 H1613 0.950 . S
H1610 C1606 0.950 . S
C1611 C1609 1.390 . S
C1611 C1612 1.387 . S
C1611 H1614 0.950 . S
C1612 C1611 1.387 . S
C1612 C1615 1.387 . S
H1613 C1609 0.950 . S
H1614 C1611 0.950 . S
C1615 C1606 1.390 . S
C1615 H1608 0.950 . S
C1615 C1612 1.387 . S
C1616 C1617 1.387 . S
C1616 H1620 0.950 . S
C1616 C1625 1.390 . S
C1617 C1616 1.387 . S
C1617 C1619 1.387 . S
H1618 C1625 0.950 . S
C1619 C1617 1.387 . S
C1619 C1621 1.390 . S
C1619 H1623 0.950 . S
H1620 C1616 0.950 . S
C1621 C1619 1.390 . S
C1621 C1622 1.387 . S
C1621 H1624 0.950 . S
C1622 C1621 1.387 . S
C1622 C1625 1.387 . S
H1623 C1619 0.950 . S
H1624 C1621 0.950 . S
C1625 C1616 1.390 . S
C1625 H1618 0.950 . S
C1625 C1622 1.387 . S
C1626 C1627 1.387 . S
C1626 H1630 0.950 . S
C1626 C1635 1.390 . S
C1627 C1626 1.387 . S
C1627 C1629 1.387 . S
H1628 C1635 0.950 . S
C1629 C1627 1.387 . S
C1629 C1631 1.390 . S
C1629 H1633 0.950 . S
H1630 C1626 0.950 . S
C1631 C1629 1.390 . S
C1631 C1632 1.387 . S
C1631 H1634 0.950 . S
C1632 C1631 1.387 . S
C1632 C1635 1.387 . S
H1633 C1629 0.950 . S
H1634 C1631 0.950 . S
C1635 C1626 1.390 . S
C1635 H1628 0.950 . S
C1635 C1632 1.387 . S
C1636 C1637 1.387 . S
C1636 H1640 0.950 . S
C1636 C1645 1.390 . S
C1637 C1636 1.387 . S
C1637 C1639 1.387 . S
H1638 C1645 0.950 . S
C1639 C1637 1.387 . S
C1639 C1641 1.390 . S
C1639 H1643 0.950 . S
H1640 C1636 0.950 . S
C1641 C1639 1.390 . S
C1641 C1642 1.387 . S
C1641 H1644 0.950 . S
C1642 C1641 1.387 . S
C1642 C1645 1.387 . S
H1643 C1639 0.950 . S
H1644 C1641 0.950 . S
C1645 C1636 1.390 . S
C1645 H1638 0.950 . S
C1645 C1642 1.387 . S
C1646 C1647 1.387 . S
C1646 H1650 0.950 . S
C1646 C1655 1.390 . S
C1647 C1646 1.387 . S
C1647 C1649 1.387 . S
H1648 C1655 0.950 . S
C1649 C1647 1.387 . S
C1649 C1651 1.390 . S
C1649 H1653 0.950 . S
H1650 C1646 0.950 . S
C1651 C1649 1.390 . S
C1651 C1652 1.387 . S
C1651 H1654 0.950 . S
C1652 C1651 1.387 . S
C1652 C1655 1.387 . S
H1653 C1649 0.950 . S
H1654 C1651 0.950 . S
C1655 C1646 1.390 . S
C1655 H1648 0.950 . S
C1655 C1652 1.387 . S
C1656 C1657 1.387 . S
C1656 H1660 0.950 . S
C1656 C1665 1.390 . S
C1657 C1656 1.387 . S
C1657 C1659 1.387 . S
H1658 C1665 0.950 . S
C1659 C1657 1.387 . S
C1659 C1661 1.390 . S
C1659 H1663 0.950 . S
H1660 C1656 0.950 . S
C1661 C1659 1.390 . S
C1661 C1662 1.387 . S
C1661 H1664 0.950 . S
C1662 C1661 1.387 . S
C1662 C1665 1.387 . S
H1663 C1659 0.950 . S
H1664 C1661 0.950 . S
C1665 C1656 1.390 . S
C1665 H1658 0.950 . S
C1665 C1662 1.387 . S
C1666 C1667 1.387 . S
C1666 H1670 0.950 . S
C1666 C1675 1.390 . S
C1667 C1666 1.387 . S
C1667 C1669 1.387 . S
H1668 C1675 0.950 . S
C1669 C1667 1.387 . S
C1669 C1671 1.390 . S
C1669 H1673 0.950 . S
H1670 C1666 0.950 . S
C1671 C1669 1.390 . S
C1671 C1672 1.387 . S
C1671 H1674 0.950 . S
C1672 C1671 1.387 . S
C1672 C1675 1.387 . S
H1673 C1669 0.950 . S
H1674 C1671 0.950 . S
C1675 C1666 1.390 . S
C1675 H1668 0.950 . S
C1675 C1672 1.387 . S
C1676 C1677 1.387 . S
C1676 H1680 0.950 . S
C1676 C1685 1.390 . S
C1677 C1676 1.387 . S
C1677 C1679 1.387 . S
H1678 C1685 0.950 . S
C1679 C1677 1.387 . S
C1679 C1681 1.390 . S
C1679 H1683 0.950 . S
H1680 C1676 0.950 . S
C1681 C1679 1.390 . S
C1681 C1682 1.387 . S
C1681 H1684 0.950 . S
C1682 C1681 1.387 . S
C1682 C1685 1.387 . S
H1683 C1679 0.950 . S
H1684 C1681 0.950 . S
C1685 C1676 1.390 . S
C1685 H1678 0.950 . S
C1685 C1682 1.387 . S
C1686 C1687 1.387 . S
C1686 H1690 0.950 . S
C1686 C1695 1.390 . S
C1687 C1686 1.387 . S
C1687 C1689 1.387 . S
H1688 C1695 0.950 . S
C1689 C1687 1.387 . S
C1689 C1691 1.390 . S
C1689 H1693 0.950 . S
H1690 C1686 0.950 . S
C1691 C1689 1.390 . S
C1691 C1692 1.387 . S
C1691 H1694 0.950 . S
C1692 C1691 1.387 . S
C1692 C1695 1.387 . S
H1693 C1689 0.950 . S
H1694 C1691 0.950 . S
C1695 C1686 1.390 . S
C1695 H1688 0.950 . S
C1695 C1692 1.387 . S
C1696 C1697 1.387 . S
C1696 H1700 0.950 . S
C1696 C1705 1.390 . S
C1697 C1696 1.387 . S
C1697 C1699 1.387 . S
H1698 C1705 0.950 . S
C1699 C1697 1.387 . S
C1699 C1701 1.390 . S
C1699 H1703 0.950 . S
H1700 C1696 0.950 . S
C1701 C1699 1.390 . S
C1701 C1702 1.387 . S
C1701 H1704 0.950 . S
C1702 C1701 1.387 . S
C1702 C1705 1.387 . S
H1703 C1699 0.950 . S
H1704 C1701 0.950 . S
C1705 C1696 1.390 . S
C1705 H1698 0.950 . S
C1705 C1702 1.387 . S
C1706 C1707 1.387 . S
C1706 H1710 0.950 . S
C1706 C1715 1.390 . S
C1707 C1706 1.387 . S
C1707 C1709 1.387 . S
H1708 C1715 0.950 . S
C1709 C1707 1.387 . S
C1709 C1711 1.390 . S
C1709 H1713 0.950 . S
H1710 C1706 0.950 . S
C1711 C1709 1.390 . S
C1711 C1712 1.387 . S
C1711 H1714 0.950 . S
C1712 C1711 1.387 . S
C1712 C1715 1.387 . S
H1713 C1709 0.950 . S
H1714 C1711 0.950 . S
C1715 C1706 1.390 . S
C1715 H1708 0.950 . S
C1715 C1712 1.387 . S
C1716 C1717 1.387 . S
C1716 H1720 0.950 . S
C1716 C1725 1.390 . S
C1717 C1716 1.387 . S
C1717 C1719 1.387 . S
H1718 C1725 0.950 . S
C1719 C1717 1.387 . S
C1719 C1721 1.390 . S
C1719 H1723 0.950 . S
H1720 C1716 0.950 . S
C1721 C1719 1.390 . S
C1721 C1722 1.387 . S
C1721 H1724 0.950 . S
C1722 C1721 1.387 . S
C1722 C1725 1.387 . S
H1723 C1719 0.950 . S
H1724 C1721 0.950 . S
C1725 C1716 1.390 . S
C1725 H1718 0.950 . S
C1725 C1722 1.387 . S
C1726 C1727 1.387 . S
C1726 H1730 0.950 . S
C1726 C1735 1.390 . S
C1727 C1726 1.387 . S
C1727 C1729 1.387 . S
H1728 C1735 0.950 . S
C1729 C1727 1.387 . S
C1729 C1731 1.390 . S
C1729 H1733 0.950 . S
H1730 C1726 0.950 . S
C1731 C1729 1.390 . S
C1731 C1732 1.387 . S
C1731 H1734 0.950 . S
C1732 C1731 1.387 . S
C1732 C1735 1.387 . S
H1733 C1729 0.950 . S
H1734 C1731 0.950 . S
C1735 C1726 1.390 . S
C1735 H1728 0.950 . S
C1735 C1732 1.387 . S
C1736 C1737 1.387 . S
C1736 H1740 0.950 . S
C1736 C1745 1.390 . S
C1737 C1736 1.387 . S
C1737 C1739 1.387 . S
H1738 C1745 0.950 . S
C1739 C1737 1.387 . S
C1739 C1741 1.390 . S
C1739 H1743 0.950 . S
H1740 C1736 0.950 . S
C1741 C1739 1.390 . S
C1741 C1742 1.387 . S
C1741 H1744 0.950 . S
C1742 C1741 1.387 . S
C1742 C1745 1.387 . S
H1743 C1739 0.950 . S
H1744 C1741 0.950 . S
C1745 C1736 1.390 . S
C1745 H1738 0.950 . S
C1745 C1742 1.387 . S
C1746 C1747 1.387 . S
C1746 H1750 0.950 . S
C1746 C1755 1.390 . S
C1747 C1746 1.387 . S
C1747 C1749 1.387 . S
H1748 C1755 0.950 . S
C1749 C1747 1.387 . S
C1749 C1751 1.390 . S
C1749 H1753 0.950 . S
H1750 C1746 0.950 . S
C1751 C1749 1.390 . S
C1751 C1752 1.387 . S
C1751 H1754 0.950 . S
C1752 C1751 1.387 . S
C1752 C1755 1.387 . S
H1753 C1749 0.950 . S
H1754 C1751 0.950 . S
C1755 C1746 1.390 . S
C1755 H1748 0.950 . S
C1755 C1752 1.387 . S
C1756 C1757 1.387 . S
C1756 H1760 0.950 . S
C1756 C1765 1.390 . S
C1757 C1756 1.387 . S
C1757 C1759 1.387 . S
H1758 C1765 0.950 . S
C1759 C1757 1.387 . S
C1759 C1761 1.390 . S
C1759 H1763 0.950 . S
H1760 C1756 0.950 . S
C1761 C1759 1.390 . S
C1761 C1762 1.387 . S
C1761 H1764 0.950 . S
C1762 C1761 1.387 . S
C1762 C1765 1.387 . S
H1763 C1759 0.950 . S
H1764 C1761 0.950 . S
C1765 C1756 1.390 . S
C1765 H1758 0.950 . S
C1765 C1762 1.387 . S
C1766 C1767 1.387 . S
C1766 H1770 0.950 . S
C1766 C1775 1.390 . S
C1767 C1766 1.387 . S
C1767 C1769 1.387 . S
H1768 C1775 0.950 . S
C1769 C1767 1.387 . S
C1769 C1771 1.390 . S
C1769 H1773 0.950 . S
H1770 C1766 0.950 . S
C1771 C1769 1.390 . S
C1771 C1772 1.387 . S
C1771 H1774 0.950 . S
C1772 C1771 1.387 . S
C1772 C1775 1.387 . S
H1773 C1769 0.950 . S
H1774 C1771 0.950 . S
C1775 C1766 1.390 . S
C1775 H1768 0.950 . S
C1775 C1772 1.387 . S
C1776 C1777 1.387 . S
C1776 H1780 0.950 . S
C1776 C1785 1.390 . S
C1777 C1776 1.387 . S
C1777 C1779 1.387 . S
H1778 C1785 0.950 . S
C1779 C1777 1.387 . S
C1779 C1781 1.390 . S
C1779 H1783 0.950 . S
H1780 C1776 0.950 . S
C1781 C1779 1.390 . S
C1781 C1782 1.387 . S
C1781 H1784 0.950 . S
C1782 C1781 1.387 . S
C1782 C1785 1.387 . S
H1783 C1779 0.950 . S
H1784 C1781 0.950 . S
C1785 C1776 1.390 . S
C1785 H1778 0.950 . S
C1785 C1782 1.387 . S
C1786 C1787 1.387 . S
C1786 H1790 0.950 . S
C1786 C1795 1.390 . S
C1787 C1786 1.387 . S
C1787 C1789 1.387 . S
H1788 C1795 0.950 1_556 S
C1789 C1787 1.387 . S
C1789 C1791 1.390 . S
C1789 H1793 0.950 . S
H1790 C1786 0.950 . S
C1791 C1789 1.390 . S
C1791 C1792 1.387 . S
C1791 H1794 0.950 . S
C1792 C1791 1.387 . S
C1792 C1795 1.387 . S
H1793 C1789 0.950 . S
H1794 C1791 0.950 . S
C1795 C1786 1.390 . S
C1795 H1788 0.950 1_554 S
C1795 C1792 1.387 . S
C1796 C1797 1.387 . S
C1796 H1800 0.950 . S
C1796 C1805 1.390 . S
C1797 C1796 1.387 . S
C1797 C1799 1.387 . S
H1798 C1805 0.950 . S
C1799 C1797 1.387 . S
C1799 C1801 1.390 . S
C1799 H1803 0.950 . S
H1800 C1796 0.950 . S
C1801 C1799 1.390 . S
C1801 C1802 1.387 . S
C1801 H1804 0.950 . S
C1802 C1801 1.387 . S
C1802 C1805 1.387 . S
H1803 C1799 0.950 . S
H1804 C1801 0.950 . S
C1805 C1796 1.390 . S
C1805 H1798 0.950 . S
C1805 C1802 1.387 . S
C1806 C1807 1.387 . S
C1806 H1810 0.950 . S
C1806 C1815 1.390 . S
C1807 C1806 1.387 . S
C1807 C1809 1.387 . S
H1808 C1815 0.950 . S
C1809 C1807 1.387 . S
C1809 C1811 1.390 . S
C1809 H1813 0.950 1_556 S
H1810 C1806 0.950 . S
C1811 C1809 1.390 . S
C1811 C1812 1.387 . S
C1811 H1814 0.950 . S
C1812 C1811 1.387 . S
C1812 C1815 1.387 . S
H1813 C1809 0.950 1_554 S
H1814 C1811 0.950 . S
C1815 C1806 1.390 . S
C1815 H1808 0.950 . S
C1815 C1812 1.387 . S
C1816 C1817 1.387 . S
C1816 H1820 0.950 . S
C1816 C1825 1.390 . S
C1817 C1816 1.387 . S
C1817 C1819 1.387 . S
H1818 C1825 0.950 . S
C1819 C1817 1.387 . S
C1819 C1821 1.390 . S
C1819 H1823 0.950 . S
H1820 C1816 0.950 . S
C1821 C1819 1.390 . S
C1821 C1822 1.387 . S
C1821 H1824 0.950 . S
C1822 C1821 1.387 . S
C1822 C1825 1.387 . S
H1823 C1819 0.950 . S
H1824 C1821 0.950 . S
C1825 C1816 1.390 . S
C1825 H1818 0.950 . S
C1825 C1822 1.387 . S
C1826 C1827 1.387 . S
C1826 H1830 0.950 . S
C1826 C1835 1.390 . S
C1827 C1826 1.387 . S
C1827 C1829 1.387 . S
H1828 C1835 0.950 1_455 S
C1829 C1827 1.387 . S
C1829 C1831 1.390 . S
C1829 H1833 0.950 . S
H1830 C1826 0.950 . S
C1831 C1829 1.390 . S
C1831 C1832 1.387 . S
C1831 H1834 0.950 . S
C1832 C1831 1.387 . S
C1832 C1835 1.387 . S
H1833 C1829 0.950 . S
H1834 C1831 0.950 . S
C1835 C1826 1.390 . S
C1835 H1828 0.950 1_655 S
C1835 C1832 1.387 . S
C1836 C1837 1.387 . S
C1836 H1840 0.950 . S
C1836 C1845 1.390 . S
C1837 C1836 1.387 . S
C1837 C1839 1.387 . S
H1838 C1845 0.950 . S
C1839 C1837 1.387 . S
C1839 C1841 1.390 . S
C1839 H1843 0.950 . S
H1840 C1836 0.950 . S
C1841 C1839 1.390 . S
C1841 C1842 1.387 . S
C1841 H1844 0.950 . S
C1842 C1841 1.387 . S
C1842 C1845 1.387 . S
H1843 C1839 0.950 . S
H1844 C1841 0.950 . S
C1845 C1836 1.390 . S
C1845 H1838 0.950 . S
C1845 C1842 1.387 . S
C1846 C1847 1.387 . S
C1846 H1850 0.950 . S
C1846 C1855 1.390 . S
C1847 C1846 1.387 . S
C1847 C1849 1.387 . S
H1848 C1855 0.950 . S
C1849 C1847 1.387 . S
C1849 C1851 1.390 . S
C1849 H1853 0.950 . S
H1850 C1846 0.950 . S
C1851 C1849 1.390 . S
C1851 C1852 1.387 . S
C1851 H1854 0.950 . S
C1852 C1851 1.387 . S
C1852 C1855 1.387 . S
H1853 C1849 0.950 . S
H1854 C1851 0.950 . S
C1855 C1846 1.390 . S
C1855 H1848 0.950 . S
C1855 C1852 1.387 . S
C1856 C1857 1.387 . S
C1856 H1860 0.950 . S
C1856 C1865 1.390 . S
C1857 C1856 1.387 . S
C1857 C1859 1.387 . S
H1858 C1865 0.950 . S
C1859 C1857 1.387 . S
C1859 C1861 1.390 . S
C1859 H1863 0.950 . S
H1860 C1856 0.950 . S
C1861 C1859 1.390 . S
C1861 C1862 1.387 . S
C1861 H1864 0.950 . S
C1862 C1861 1.387 . S
C1862 C1865 1.387 . S
H1863 C1859 0.950 . S
H1864 C1861 0.950 . S
C1865 C1856 1.390 . S
C1865 H1858 0.950 . S
C1865 C1862 1.387 . S
C1866 C1867 1.387 . S
C1866 H1870 0.950 . S
C1866 C1875 1.390 . S
C1867 C1866 1.387 . S
C1867 C1869 1.387 . S
H1868 C1875 0.950 . S
C1869 C1867 1.387 . S
C1869 C1871 1.390 . S
C1869 H1873 0.950 1_565 S
H1870 C1866 0.950 . S
C1871 C1869 1.390 . S
C1871 C1872 1.387 . S
C1871 H1874 0.950 . S
C1872 C1871 1.387 . S
C1872 C1875 1.387 . S
H1873 C1869 0.950 1_545 S
H1874 C1871 0.950 . S
C1875 C1866 1.390 . S
C1875 H1868 0.950 . S
C1875 C1872 1.387 . S
C1876 C1877 1.387 . S
C1876 H1880 0.950 . S
C1876 C1885 1.390 . S
C1877 C1876 1.387 . S
C1877 C1879 1.387 . S
H1878 C1885 0.950 . S
C1879 C1877 1.387 . S
C1879 C1881 1.390 . S
C1879 H1883 0.950 . S
H1880 C1876 0.950 . S
C1881 C1879 1.390 . S
C1881 C1882 1.387 . S
C1881 H1884 0.950 1_545 S
C1882 C1881 1.387 . S
C1882 C1885 1.387 . S
H1883 C1879 0.950 . S
H1884 C1881 0.950 1_565 S
C1885 C1876 1.390 . S
C1885 H1878 0.950 . S
C1885 C1882 1.387 . S
C1886 C1887 1.387 . S
C1886 H1890 0.950 . S
C1886 C1895 1.390 . S
C1887 C1886 1.387 . S
C1887 C1889 1.387 . S
H1888 C1895 0.950 . S
C1889 C1887 1.387 . S
C1889 C1891 1.390 . S
C1889 H1893 0.950 . S
H1890 C1886 0.950 . S
C1891 C1889 1.390 . S
C1891 C1892 1.387 . S
C1891 H1894 0.950 . S
C1892 C1891 1.387 . S
C1892 C1895 1.387 . S
H1893 C1889 0.950 . S
H1894 C1891 0.950 . S
C1895 C1886 1.390 . S
C1895 H1888 0.950 . S
C1895 C1892 1.387 . S
C1896 C1897 1.387 . S
C1896 H1900 0.950 . S
C1896 C1905 1.390 . S
C1897 C1896 1.387 . S
C1897 C1899 1.387 . S
H1898 C1905 0.950 . S
C1899 C1897 1.387 . S
C1899 C1901 1.390 . S
C1899 H1903 0.950 . S
H1900 C1896 0.950 . S
C1901 C1899 1.390 . S
C1901 C1902 1.387 . S
C1901 H1904 0.950 . S
C1902 C1901 1.387 . S
C1902 C1905 1.387 . S
H1903 C1899 0.950 . S
H1904 C1901 0.950 . S
C1905 C1896 1.390 . S
C1905 H1898 0.950 . S
C1905 C1902 1.387 . S
C1906 C1907 1.387 . S
C1906 H1910 0.950 . S
C1906 C1915 1.390 . S
C1907 C1906 1.387 . S
C1907 C1909 1.387 . S
H1908 C1915 0.950 1_554 S
C1909 C1907 1.387 . S
C1909 C1911 1.390 . S
C1909 H1913 0.950 . S
H1910 C1906 0.950 . S
C1911 C1909 1.390 . S
C1911 C1912 1.387 . S
C1911 H1914 0.950 . S
C1912 C1911 1.387 . S
C1912 C1915 1.387 . S
H1913 C1909 0.950 . S
H1914 C1911 0.950 . S
C1915 C1906 1.390 . S
C1915 H1908 0.950 1_556 S
C1915 C1912 1.387 . S
C1916 C1917 1.387 . S
C1916 H1920 0.950 . S
C1916 C1925 1.390 . S
C1917 C1916 1.387 . S
C1917 C1919 1.387 . S
H1918 C1925 0.950 . S
C1919 C1917 1.387 . S
C1919 C1921 1.390 . S
C1919 H1923 0.950 . S
H1920 C1916 0.950 . S
C1921 C1919 1.390 . S
C1921 C1922 1.387 . S
C1921 H1924 0.950 . S
C1922 C1921 1.387 . S
C1922 C1925 1.387 . S
H1923 C1919 0.950 . S
H1924 C1921 0.950 . S
C1925 C1916 1.390 . S
C1925 H1918 0.950 . S
C1925 C1922 1.387 . S
C1926 C1927 1.387 . S
C1926 H1930 0.950 . S
C1926 C1935 1.390 . S
C1927 C1926 1.387 . S
C1927 C1929 1.387 . S
H1928 C1935 0.950 . S
C1929 C1927 1.387 . S
C1929 C1931 1.390 . S
C1929 H1933 0.950 . S
H1930 C1926 0.950 . S
C1931 C1929 1.390 . S
C1931 C1932 1.387 . S
C1931 H1934 0.950 1_554 S
C1932 C1931 1.387 . S
C1932 C1935 1.387 . S
H1933 C1929 0.950 . S
H1934 C1931 0.950 1_556 S
C1935 C1926 1.390 . S
C1935 H1928 0.950 . S
C1935 C1932 1.387 . S
C1936 C1937 1.387 . S
C1936 H1940 0.950 . S
C1936 C1945 1.390 . S
C1937 C1936 1.387 . S
C1937 C1939 1.387 . S
H1938 C1945 0.950 . S
C1939 C1937 1.387 . S
C1939 C1941 1.390 . S
C1939 H1943 0.950 . S
H1940 C1936 0.950 . S
C1941 C1939 1.390 . S
C1941 C1942 1.387 . S
C1941 H1944 0.950 . S
C1942 C1941 1.387 . S
C1942 C1945 1.387 . S
H1943 C1939 0.950 . S
H1944 C1941 0.950 . S
C1945 C1936 1.390 . S
C1945 H1938 0.950 . S
C1945 C1942 1.387 . S
C1946 C1947 1.387 . S
C1946 H1950 0.950 . S
C1946 C1955 1.390 . S
C1947 C1946 1.387 . S
C1947 C1949 1.387 . S
H1948 C1955 0.950 . S
C1949 C1947 1.387 . S
C1949 C1951 1.390 . S
C1949 H1953 0.950 . S
H1950 C1946 0.950 . S
C1951 C1949 1.390 . S
C1951 C1952 1.387 . S
C1951 H1954 0.950 . S
C1952 C1951 1.387 . S
C1952 C1955 1.387 . S
H1953 C1949 0.950 . S
H1954 C1951 0.950 . S
C1955 C1946 1.390 . S
C1955 H1948 0.950 . S
C1955 C1952 1.387 . S
C1956 C1957 1.387 . S
C1956 H1960 0.950 1_655 S
C1956 C1965 1.390 . S
C1957 C1956 1.387 . S
C1957 C1959 1.387 . S
H1958 C1965 0.950 . S
C1959 C1957 1.387 . S
C1959 C1961 1.390 . S
C1959 H1963 0.950 . S
H1960 C1956 0.950 1_455 S
C1961 C1959 1.390 . S
C1961 C1962 1.387 . S
C1961 H1964 0.950 . S
C1962 C1961 1.387 . S
C1962 C1965 1.387 . S
H1963 C1959 0.950 . S
H1964 C1961 0.950 . S
C1965 C1956 1.390 . S
C1965 H1958 0.950 . S
C1965 C1962 1.387 . S
C1966 C1967 1.387 . S
C1966 H1970 0.950 . S
C1966 C1975 1.390 . S
C1967 C1966 1.387 . S
C1967 C1969 1.387 . S
H1968 C1975 0.950 . S
C1969 C1967 1.387 . S
C1969 C1971 1.390 . S
C1969 H1973 0.950 . S
H1970 C1966 0.950 . S
C1971 C1969 1.390 . S
C1971 C1972 1.387 . S
C1971 H1974 0.950 . S
C1972 C1971 1.387 . S
C1972 C1975 1.387 . S
H1973 C1969 0.950 . S
H1974 C1971 0.950 . S
C1975 C1966 1.390 . S
C1975 H1968 0.950 . S
C1975 C1972 1.387 . S
C1976 C1977 1.387 . S
C1976 H1980 0.950 . S
C1976 C1985 1.390 . S
C1977 C1976 1.387 . S
C1977 C1979 1.387 . S
H1978 C1985 0.950 . S
C1979 C1977 1.387 . S
C1979 C1981 1.390 . S
C1979 H1983 0.950 . S
H1980 C1976 0.950 . S
C1981 C1979 1.390 . S
C1981 C1982 1.387 . S
C1981 H1984 0.950 . S
C1982 C1981 1.387 . S
C1982 C1985 1.387 . S
H1983 C1979 0.950 . S
H1984 C1981 0.950 . S
C1985 C1976 1.390 . S
C1985 H1978 0.950 . S
C1985 C1982 1.387 . S
C1986 C1987 1.387 . S
C1986 H1990 0.950 . S
C1986 C1995 1.390 . S
C1987 C1986 1.387 . S
C1987 C1989 1.387 . S
H1988 C1995 0.950 . S
C1989 C1987 1.387 . S
C1989 C1991 1.390 . S
C1989 H1993 0.950 . S
H1990 C1986 0.950 . S
C1991 C1989 1.390 . S
C1991 C1992 1.387 . S
C1991 H1994 0.950 1_545 S
C1992 C1991 1.387 . S
C1992 C1995 1.387 . S
H1993 C1989 0.950 . S
H1994 C1991 0.950 1_565 S
C1995 C1986 1.390 . S
C1995 H1988 0.950 . S
C1995 C1992 1.387 . S
C1996 C1997 1.387 . S
C1996 H2000 0.950 . S
C1996 C2005 1.390 . S
C1997 C1996 1.387 . S
C1997 C1999 1.387 . S
H1998 C2005 0.950 1_545 S
C1999 C1997 1.387 . S
C1999 C2001 1.390 . S
C1999 H2003 0.950 . S
H2000 C1996 0.950 . S
C2001 C1999 1.390 . S
C2001 C2002 1.387 . S
C2001 H2004 0.950 . S
C2002 C2001 1.387 . S
C2002 C2005 1.387 . S
H2003 C1999 0.950 . S
H2004 C2001 0.950 . S
C2005 C1996 1.390 . S
C2005 H1998 0.950 1_565 S
C2005 C2002 1.387 . S
C2006 C2007 1.387 . S
C2006 H2010 0.950 . S
C2006 C2015 1.390 . S
C2007 C2006 1.387 . S
C2007 C2009 1.387 . S
H2008 C2015 0.950 . S
C2009 C2007 1.387 . S
C2009 C2011 1.390 . S
C2009 H2013 0.950 . S
H2010 C2006 0.950 . S
C2011 C2009 1.390 . S
C2011 C2012 1.387 . S
C2011 H2014 0.950 . S
C2012 C2011 1.387 . S
C2012 C2015 1.387 . S
H2013 C2009 0.950 . S
H2014 C2011 0.950 . S
C2015 C2006 1.390 . S
C2015 H2008 0.950 . S
C2015 C2012 1.387 . S
C2016 C2017 1.387 . S
C2016 H2020 0.950 . S
C2016 C2025 1.390 . S
C2017 C2016 1.387 . S
C2017 C2019 1.387 . S
H2018 C2025 0.950 . S
C2019 C2017 1.387 . S
C2019 C2021 1.390 . S
C2019 H2023 0.950 . S
H2020 C2016 0.950 . S
C2021 C2019 1.390 . S
C2021 C2022 1.387 . S
C2021 H2024 0.950 . S
C2022 C2021 1.387 . S
C2022 C2025 1.387 . S
H2023 C2019 0.950 . S
H2024 C2021 0.950 . S
C2025 C2016 1.390 . S
C2025 H2018 0.950 . S
C2025 C2022 1.387 . S
C2026 C2027 1.387 . S
C2026 H2030 0.950 . S
C2026 C2035 1.390 . S
C2027 C2026 1.387 . S
C2027 C2029 1.387 . S
H2028 C2035 0.950 . S
C2029 C2027 1.387 . S
C2029 C2031 1.390 . S
C2029 H2033 0.950 . S
H2030 C2026 0.950 . S
C2031 C2029 1.390 . S
C2031 C2032 1.387 . S
C2031 H2034 0.950 . S
C2032 C2031 1.387 . S
C2032 C2035 1.387 . S
H2033 C2029 0.950 . S
H2034 C2031 0.950 . S
C2035 C2026 1.390 . S
C2035 H2028 0.950 . S
C2035 C2032 1.387 . S
C2036 C2037 1.387 . S
C2036 H2040 0.950 . S
C2036 C2045 1.390 . S
C2037 C2036 1.387 . S
C2037 C2039 1.387 . S
H2038 C2045 0.950 . S
C2039 C2037 1.387 . S
C2039 C2041 1.390 . S
C2039 H2043 0.950 . S
H2040 C2036 0.950 . S
C2041 C2039 1.390 . S
C2041 C2042 1.387 . S
C2041 H2044 0.950 . S
C2042 C2041 1.387 . S
C2042 C2045 1.387 . S
H2043 C2039 0.950 . S
H2044 C2041 0.950 . S
C2045 C2036 1.390 . S
C2045 H2038 0.950 . S
C2045 C2042 1.387 . S
C2046 C2047 1.387 . S
C2046 H2050 0.950 . S
C2046 C2055 1.390 . S
C2047 C2046 1.387 . S
C2047 C2049 1.387 . S
H2048 C2055 0.950 . S
C2049 C2047 1.387 . S
C2049 C2051 1.390 . S
C2049 H2053 0.950 . S
H2050 C2046 0.950 . S
C2051 C2049 1.390 . S
C2051 C2052 1.387 . S
C2051 H2054 0.950 . S
C2052 C2051 1.387 . S
C2052 C2055 1.387 . S
H2053 C2049 0.950 . S
H2054 C2051 0.950 . S
C2055 C2046 1.390 . S
C2055 H2048 0.950 . S
C2055 C2052 1.387 . S
C2056 C2057 1.387 . S
C2056 H2060 0.950 . S
C2056 C2065 1.390 . S
C2057 C2056 1.387 . S
C2057 C2059 1.387 . S
H2058 C2065 0.950 . S
C2059 C2057 1.387 . S
C2059 C2061 1.390 . S
C2059 H2063 0.950 . S
H2060 C2056 0.950 . S
C2061 C2059 1.390 . S
C2061 C2062 1.387 . S
C2061 H2064 0.950 . S
C2062 C2061 1.387 . S
C2062 C2065 1.387 . S
H2063 C2059 0.950 . S
H2064 C2061 0.950 . S
C2065 C2056 1.390 . S
C2065 H2058 0.950 . S
C2065 C2062 1.387 . S
C2066 C2067 1.387 . S
C2066 H2070 0.950 . S
C2066 C2075 1.390 . S
C2067 C2066 1.387 . S
C2067 C2069 1.387 . S
H2068 C2075 0.950 . S
C2069 C2067 1.387 . S
C2069 C2071 1.390 . S
C2069 H2073 0.950 . S
H2070 C2066 0.950 . S
C2071 C2069 1.390 . S
C2071 C2072 1.387 . S
C2071 H2074 0.950 . S
C2072 C2071 1.387 . S
C2072 C2075 1.387 . S
H2073 C2069 0.950 . S
H2074 C2071 0.950 . S
C2075 C2066 1.390 . S
C2075 H2068 0.950 . S
C2075 C2072 1.387 . S
C2076 C2077 1.387 . S
C2076 H2080 0.950 . S
C2076 C2085 1.390 . S
C2077 C2076 1.387 . S
C2077 C2079 1.387 . S
H2078 C2085 0.950 . S
C2079 C2077 1.387 . S
C2079 C2081 1.390 . S
C2079 H2083 0.950 . S
H2080 C2076 0.950 . S
C2081 C2079 1.390 . S
C2081 C2082 1.387 . S
C2081 H2084 0.950 . S
C2082 C2081 1.387 . S
C2082 C2085 1.387 . S
H2083 C2079 0.950 . S
H2084 C2081 0.950 . S
C2085 C2076 1.390 . S
C2085 H2078 0.950 . S
C2085 C2082 1.387 . S
C2086 C2087 1.387 . S
C2086 H2090 0.950 . S
C2086 C2095 1.390 . S
C2087 C2086 1.387 . S
C2087 C2089 1.387 . S
H2088 C2095 0.950 . S
C2089 C2087 1.387 . S
C2089 C2091 1.390 . S
C2089 H2093 0.950 . S
H2090 C2086 0.950 . S
C2091 C2089 1.390 . S
C2091 C2092 1.387 . S
C2091 H2094 0.950 . S
C2092 C2091 1.387 . S
C2092 C2095 1.387 . S
H2093 C2089 0.950 . S
H2094 C2091 0.950 . S
C2095 C2086 1.390 . S
C2095 H2088 0.950 . S
C2095 C2092 1.387 . S
C2096 C2097 1.387 . S
C2096 H2100 0.950 . S
C2096 C2105 1.390 . S
C2097 C2096 1.387 . S
C2097 C2099 1.387 . S
H2098 C2105 0.950 . S
C2099 C2097 1.387 . S
C2099 C2101 1.390 . S
C2099 H2103 0.950 . S
H2100 C2096 0.950 . S
C2101 C2099 1.390 . S
C2101 C2102 1.387 . S
C2101 H2104 0.950 . S
C2102 C2101 1.387 . S
C2102 C2105 1.387 . S
H2103 C2099 0.950 . S
H2104 C2101 0.950 . S
C2105 C2096 1.390 . S
C2105 H2098 0.950 . S
C2105 C2102 1.387 . S
C2106 C2107 1.387 . S
C2106 H2110 0.950 . S
C2106 C2115 1.390 . S
C2107 C2106 1.387 . S
C2107 C2109 1.387 . S
H2108 C2115 0.950 . S
C2109 C2107 1.387 . S
C2109 C2111 1.390 . S
C2109 H2113 0.950 . S
H2110 C2106 0.950 . S
C2111 C2109 1.390 . S
C2111 C2112 1.387 . S
C2111 H2114 0.950 . S
C2112 C2111 1.387 . S
C2112 C2115 1.387 . S
H2113 C2109 0.950 . S
H2114 C2111 0.950 . S
C2115 C2106 1.390 . S
C2115 H2108 0.950 . S
C2115 C2112 1.387 . S
C2116 C2117 1.387 . S
C2116 H2120 0.950 . S
C2116 C2125 1.390 . S
C2117 C2116 1.387 . S
C2117 C2119 1.387 . S
H2118 C2125 0.950 . S
C2119 C2117 1.387 . S
C2119 C2121 1.390 . S
C2119 H2123 0.950 . S
H2120 C2116 0.950 . S
C2121 C2119 1.390 . S
C2121 C2122 1.387 . S
C2121 H2124 0.950 . S
C2122 C2121 1.387 . S
C2122 C2125 1.387 . S
H2123 C2119 0.950 . S
H2124 C2121 0.950 . S
C2125 C2116 1.390 . S
C2125 H2118 0.950 . S
C2125 C2122 1.387 . S
C2126 C2127 1.387 . S
C2126 H2130 0.950 . S
C2126 C2135 1.390 . S
C2127 C2126 1.387 . S
C2127 C2129 1.387 . S
H2128 C2135 0.950 . S
C2129 C2127 1.387 . S
C2129 C2131 1.390 . S
C2129 H2133 0.950 . S
H2130 C2126 0.950 . S
C2131 C2129 1.390 . S
C2131 C2132 1.387 . S
C2131 H2134 0.950 . S
C2132 C2131 1.387 . S
C2132 C2135 1.387 . S
H2133 C2129 0.950 . S
H2134 C2131 0.950 . S
C2135 C2126 1.390 . S
C2135 H2128 0.950 . S
C2135 C2132 1.387 . S
C2136 C2137 1.387 . S
C2136 H2140 0.950 . S
C2136 C2145 1.390 . S
C2137 C2136 1.387 . S
C2137 C2139 1.387 . S
H2138 C2145 0.950 . S
C2139 C2137 1.387 . S
C2139 C2141 1.390 . S
C2139 H2143 0.950 . S
H2140 C2136 0.950 . S
C2141 C2139 1.390 . S
C2141 C2142 1.387 . S
C2141 H2144 0.950 . S
C2142 C2141 1.387 . S
C2142 C2145 1.387 . S
H2143 C2139 0.950 . S
H2144 C2141 0.950 . S
C2145 C2136 1.390 . S
C2145 H2138 0.950 . S
C2145 C2142 1.387 . S
C2146 C2147 1.387 . S
C2146 H2150 0.950 . S
C2146 C2155 1.390 . S
C2147 C2146 1.387 . S
C2147 C2149 1.387 . S
H2148 C2155 0.950 . S
C2149 C2147 1.387 . S
C2149 C2151 1.390 . S
C2149 H2153 0.950 . S
H2150 C2146 0.950 . S
C2151 C2149 1.390 . S
C2151 C2152 1.387 . S
C2151 H2154 0.950 . S
C2152 C2151 1.387 . S
C2152 C2155 1.387 . S
H2153 C2149 0.950 . S
H2154 C2151 0.950 . S
C2155 C2146 1.390 . S
C2155 H2148 0.950 . S
C2155 C2152 1.387 . S
C2156 C2157 1.387 . S
C2156 H2160 0.950 . S
C2156 C2165 1.390 . S
C2157 C2156 1.387 . S
C2157 C2159 1.387 . S
H2158 C2165 0.950 . S
C2159 C2157 1.387 . S
C2159 C2161 1.390 . S
C2159 H2163 0.950 . S
H2160 C2156 0.950 . S
C2161 C2159 1.390 . S
C2161 C2162 1.387 . S
C2161 H2164 0.950 . S
C2162 C2161 1.387 . S
C2162 C2165 1.387 . S
H2163 C2159 0.950 . S
H2164 C2161 0.950 . S
C2165 C2156 1.390 . S
C2165 H2158 0.950 . S
C2165 C2162 1.387 . S
C2166 C2167 1.387 . S
C2166 H2170 0.950 . S
C2166 C2175 1.390 . S
C2167 C2166 1.387 . S
C2167 C2169 1.387 . S
H2168 C2175 0.950 . S
C2169 C2167 1.387 . S
C2169 C2171 1.390 . S
C2169 H2173 0.950 . S
H2170 C2166 0.950 . S
C2171 C2169 1.390 . S
C2171 C2172 1.387 . S
C2171 H2174 0.950 . S
C2172 C2171 1.387 . S
C2172 C2175 1.387 . S
H2173 C2169 0.950 . S
H2174 C2171 0.950 . S
C2175 C2166 1.390 . S
C2175 H2168 0.950 . S
C2175 C2172 1.387 . S
C2176 C2177 1.387 . S
C2176 H2180 0.950 . S
C2176 C2185 1.390 . S
C2177 C2176 1.387 . S
C2177 C2179 1.387 . S
H2178 C2185 0.950 . S
C2179 C2177 1.387 . S
C2179 C2181 1.390 . S
C2179 H2183 0.950 . S
H2180 C2176 0.950 . S
C2181 C2179 1.390 . S
C2181 C2182 1.387 . S
C2181 H2184 0.950 . S
C2182 C2181 1.387 . S
C2182 C2185 1.387 . S
H2183 C2179 0.950 . S
H2184 C2181 0.950 . S
C2185 C2176 1.390 . S
C2185 H2178 0.950 . S
C2185 C2182 1.387 . S
C2186 C2187 1.387 . S
C2186 H2190 0.950 . S
C2186 C2195 1.390 . S
C2187 C2186 1.387 . S
C2187 C2189 1.387 . S
H2188 C2195 0.950 . S
C2189 C2187 1.387 . S
C2189 C2191 1.390 . S
C2189 H2193 0.950 . S
H2190 C2186 0.950 . S
C2191 C2189 1.390 . S
C2191 C2192 1.387 . S
C2191 H2194 0.950 . S
C2192 C2191 1.387 . S
C2192 C2195 1.387 . S
H2193 C2189 0.950 . S
H2194 C2191 0.950 . S
C2195 C2186 1.390 . S
C2195 H2188 0.950 . S
C2195 C2192 1.387 . S
C2196 C2197 1.387 . S
C2196 H2200 0.950 . S
C2196 C2205 1.390 . S
C2197 C2196 1.387 . S
C2197 C2199 1.387 . S
H2198 C2205 0.950 . S
C2199 C2197 1.387 . S
C2199 C2201 1.390 . S
C2199 H2203 0.950 . S
H2200 C2196 0.950 . S
C2201 C2199 1.390 . S
C2201 C2202 1.387 . S
C2201 H2204 0.950 . S
C2202 C2201 1.387 . S
C2202 C2205 1.387 . S
H2203 C2199 0.950 . S
H2204 C2201 0.950 . S
C2205 C2196 1.390 . S
C2205 H2198 0.950 . S
C2205 C2202 1.387 . S
C2206 C2207 1.387 . S
C2206 H2210 0.950 . S
C2206 C2215 1.390 . S
C2207 C2206 1.387 . S
C2207 C2209 1.387 . S
H2208 C2215 0.950 . S
C2209 C2207 1.387 . S
C2209 C2211 1.390 . S
C2209 H2213 0.950 . S
H2210 C2206 0.950 . S
C2211 C2209 1.390 . S
C2211 C2212 1.387 . S
C2211 H2214 0.950 . S
C2212 C2211 1.387 . S
C2212 C2215 1.387 . S
H2213 C2209 0.950 . S
H2214 C2211 0.950 . S
C2215 C2206 1.390 . S
C2215 H2208 0.950 . S
C2215 C2212 1.387 . S
C2216 C2217 1.387 . S
C2216 H2220 0.950 . S
C2216 C2225 1.390 . S
C2217 C2216 1.387 . S
C2217 C2219 1.387 . S
H2218 C2225 0.950 . S
C2219 C2217 1.387 . S
C2219 C2221 1.390 . S
C2219 H2223 0.950 . S
H2220 C2216 0.950 . S
C2221 C2219 1.390 . S
C2221 C2222 1.387 . S
C2221 H2224 0.950 . S
C2222 C2221 1.387 . S
C2222 C2225 1.387 . S
H2223 C2219 0.950 . S
H2224 C2221 0.950 . S
C2225 C2216 1.390 . S
C2225 H2218 0.950 . S
C2225 C2222 1.387 . S
C2226 C2227 1.387 . S
C2226 H2230 0.950 . S
C2226 C2235 1.390 . S
C2227 C2226 1.387 . S
C2227 C2229 1.387 . S
H2228 C2235 0.950 . S
C2229 C2227 1.387 . S
C2229 C2231 1.390 . S
C2229 H2233 0.950 . S
H2230 C2226 0.950 . S
C2231 C2229 1.390 . S
C2231 C2232 1.387 . S
C2231 H2234 0.950 . S
C2232 C2231 1.387 . S
C2232 C2235 1.387 . S
H2233 C2229 0.950 . S
H2234 C2231 0.950 . S
C2235 C2226 1.390 . S
C2235 H2228 0.950 . S
C2235 C2232 1.387 . S
C2236 C2237 1.387 . S
C2236 H2240 0.950 . S
C2236 C2245 1.390 . S
C2237 C2236 1.387 . S
C2237 C2239 1.387 . S
H2238 C2245 0.950 . S
C2239 C2237 1.387 . S
C2239 C2241 1.390 . S
C2239 H2243 0.950 . S
H2240 C2236 0.950 . S
C2241 C2239 1.390 . S
C2241 C2242 1.387 . S
C2241 H2244 0.950 . S
C2242 C2241 1.387 . S
C2242 C2245 1.387 . S
H2243 C2239 0.950 . S
H2244 C2241 0.950 . S
C2245 C2236 1.390 . S
C2245 H2238 0.950 . S
C2245 C2242 1.387 . S
C2246 C2247 1.387 . S
C2246 H2250 0.950 . S
C2246 C2255 1.390 . S
C2247 C2246 1.387 . S
C2247 C2249 1.387 . S
H2248 C2255 0.950 . S
C2249 C2247 1.387 . S
C2249 C2251 1.390 . S
C2249 H2253 0.950 . S
H2250 C2246 0.950 . S
C2251 C2249 1.390 . S
C2251 C2252 1.387 . S
C2251 H2254 0.950 . S
C2252 C2251 1.387 . S
C2252 C2255 1.387 . S
H2253 C2249 0.950 . S
H2254 C2251 0.950 . S
C2255 C2246 1.390 . S
C2255 H2248 0.950 . S
C2255 C2252 1.387 . S
C1297 C977 0.967 . S
C1302 C5 0.993 . S
C1307 C76 0.993 . S
C1312 C1031 0.967 . S
C1317 C886 0.968 . S
C1322 C113 0.998 . S
C1327 C184 0.998 . S
C1332 C923 0.968 . S
C1337 C1193 0.967 . S
C1342 C238 0.993 . S
C1347 C1139 0.968 . S
C1352 C275 0.998 . S
C1357 C1264 0.968 . S
C1362 C329 0.998 . S
C1367 C1085 0.967 . S
C1372 C400 0.993 . S
C1377 C454 0.997 . S
C1382 C707 0.968 . S
C1387 C815 0.968 . S
C1392 C491 0.998 . S
C1397 C562 0.993 . S
C1402 C778 0.967 . S
C1407 C670 0.967 . S
C1412 C616 0.993 . S
C1417 C346 0.967 . S
C1422 C653 0.993 . S
C1427 C383 0.967 . S
C1432 C724 0.993 . S
C1437 C221 0.967 . S
C1442 C761 0.993 . S
C1447 C832 0.993 . S
C1452 C292 0.967 . S
C1457 C545 0.968 . S
C1462 C869 0.997 . S
C1467 C940 0.993 . S
C1472 C508 0.967 . S
C1477 C599 0.967 . S
C1482 C994 0.993 . S
C1487 C437 0.967 . S
C1492 C1048 0.993 . S
C1497 C1102 0.997 . S
C1502 C59 0.968 . S
C1507 C167 0.967 . S
C1512 C1156 0.993 . S
C1517 C1210 0.993 . S
C1522 C130 0.967 . S
C1527 C1247 0.993 . S
C1532 C22 0.967 . S
C1537 C445 1.902 . S
C1542 C28 2.163 . S
C1547 C89 2.163 . S
C1552 C607 1.902 . S
C1557 C136 2.163 . S
C1562 C518 1.902 . S
C1567 C197 2.163 . S
C1572 C553 1.902 . S
C1577 C251 2.163 . S
C1582 C32 1.903 . S
C1587 C298 2.165 . S
C1592 C67 1.905 . S
C1597 C140 1.903 . S
C1602 C352 2.163 . S
C1607 C413 2.163 . S
C1612 C175 1.902 . S
C1617 C229 1.906 . S
C1622 C467 2.165 . S
C1627 C514 2.165 . S
C1632 C356 1.906 . S
C1637 C391 1.902 . S
C1642 C575 2.163 . S
C1647 C302 1.902 . S
C1652 C629 2.163 . S
C1657 C1093 1.904 . S
C1662 C676 2.164 . S
C1667 C737 2.165 . S
C1672 C1274 1.906 . S
C1677 C1147 1.906 . S
C1682 C784 2.165 . S
C1687 C845 2.165 . S
C1692 C1201 1.906 . S
C1697 C680 1.902 . S
C1702 C892 2.163 . S
C1707 C715 1.902 . S
C1712 C953 2.163 . S
C1717 C1007 2.163 . S
C1722 C788 1.902 . S
C1727 C823 1.905 . S
C1732 C1061 2.164 . S
C1737 C896 1.906 . S
C1742 C1115 2.165 . S
C1747 C1169 2.163 . S
C1752 C985 1.902 . S
C1757 C1223 2.165 . S
C1762 C1039 1.906 . S
C1767 C1270 2.163 . S
C1772 C931 1.902 . S
C1777 C27 1.372 . S
C1782 C622 1.304 . S
C1787 C460 1.301 . S
C1792 C64 1.372 1_554 S
C1797 C135 1.371 . S
C1802 C568 1.303 . S
C1807 C172 1.372 1_556 S
C1812 C521 1.304 . S
C1817 C143 1.299 . S
C1822 C226 1.369 . S
C1827 C190 1.300 . S
C1832 C297 1.371 1_655 S
C1837 C35 1.302 . S
C1842 C351 1.372 1_455 S
C1847 C388 1.370 . S
C1852 C82 1.299 . S
C1857 C406 1.301 . S
C1862 C442 1.369 . S
C1867 C513 1.370 1_565 S
C1872 C305 1.303 . S
C1877 C244 1.303 . S
C1882 C550 1.370 1_545 S
C1887 C604 1.372 . S
C1892 C359 1.300 . S
C1897 C1277 1.301 . S
C1902 C675 1.372 . S
C1907 C1108 1.304 . S
C1912 C712 1.372 1_556 S
C1917 C1216 1.304 . S
C1922 C783 1.371 . S
C1927 C1162 1.299 . S
C1932 C820 1.370 1_554 S
C1937 C891 1.369 . S
C1942 C791 1.300 . S
C1947 C928 1.372 1_455 S
C1952 C838 1.303 . S
C1957 C982 1.370 1_655 S
C1962 C683 1.303 . S
C1967 C1036 1.372 . S
C1972 C730 1.304 . S
C1977 C1054 1.300 . S
C1982 C1090 1.371 . S
C1987 C946 1.300 . S
C1992 C1144 1.371 1_545 S
C1997 C899 1.303 . S
C2002 C1198 1.370 1_565 S
C2007 C1000 1.303 . S
C2012 C1269 1.370 . S
C2017 C1215 2.161 . S
C2022 C13 2.143 . S
C2027 C1161 2.162 . S
C2032 C86 2.144 . S
C2037 C121 2.142 . S
C2042 C1252 2.160 . S
C2047 C1107 2.162 . S
C2052 C194 2.144 . S
C2057 C248 2.144 . S
C2062 C729 2.162 . S
C2067 C658 2.162 . S
C2072 C283 2.144 . S
C2077 C337 2.144 . S
C2082 C837 2.162 . S
C2087 C410 2.143 . S
C2092 C766 2.162 . S
C2097 C999 2.161 . S
C2102 C464 2.143 . S
C2107 C874 2.162 . S
C2112 C499 2.144 . S
C2117 C572 2.143 . S
C2122 C945 2.161 . S
C2127 C626 2.143 . S
C2132 C1053 2.161 . S
C2137 C661 2.144 . S
C2142 C567 2.162 . S
C2147 C734 2.143 . S
C2152 C496 2.162 . S
C2157 C621 2.161 . S
C2162 C769 2.143 . S
C2167 C459 2.162 . S
C2172 C842 2.144 . S
C2177 C877 2.143 . S
C2182 C81 2.161 . S
C2187 C950 2.142 . S
C2192 C10 2.161 . S
C2197 C1004 2.144 . S
C2202 C189 2.162 . S
C2207 C1058 2.144 . S
C2212 C118 2.162 . S
C2217 C1112 2.143 . S
C2222 C334 2.161 . S
C2227 C1166 2.143 . S
C2232 C243 2.161 . S
C2237 C1220 2.143 . S
C2242 C280 2.161 . S
C2247 C405 2.162 . S
C2252 C1255 2.144 . S
