# Generated by pormake.
# Topology wfa, (4)-cn, num edge types: 1
# Building blocks:
#     Node 0, Type 0, BuildingBlock: KOZSID_clean_sbu_0, # of connection points: 4
#     Node 1, Type 0, BuildingBlock: KOZSID_clean_sbu_0, # of connection points: 4
#     Node 2, Type 0, BuildingBlock: KOZSID_clean_sbu_0, # of connection points: 4
#     Node 3, Type 0, BuildingBlock: KOZSID_clean_sbu_0, # of connection points: 4
#     Node 4, Type 0, BuildingBlock: KOZSID_clean_sbu_0, # of connection points: 4
#     Node 5, Type 0, BuildingBlock: KOZSID_clean_sbu_0, # of connection points: 4
#     Node 6, Type 0, BuildingBlock: KOZSID_clean_sbu_0, # of connection points: 4
#     Node 7, Type 0, BuildingBlock: KOZSID_clean_sbu_0, # of connection points: 4
#     Node 8, Type 0, BuildingBlock: KOZSID_clean_sbu_0, # of connection points: 4
#     Node 9, Type 0, BuildingBlock: KOZSID_clean_sbu_0, # of connection points: 4
#     Node 10, Type 0, BuildingBlock: KOZSID_clean_sbu_0, # of connection points: 4
#     Node 11, Type 0, BuildingBlock: KOZSID_clean_sbu_0, # of connection points: 4
#     Node 12, Type 0, BuildingBlock: KOZSID_clean_sbu_0, # of connection points: 4
#     Node 13, Type 0, BuildingBlock: KOZSID_clean_sbu_0, # of connection points: 4
#     Node 14, Type 0, BuildingBlock: KOZSID_clean_sbu_0, # of connection points: 4
#     Node 15, Type 0, BuildingBlock: KOZSID_clean_sbu_0, # of connection points: 4
#     Edge 16, Type (0, 0), BuildingBlock: CIFDUS_clean_linker_0, # of connection points: 2
#     Edge 17, Type (0, 0), BuildingBlock: CIFDUS_clean_linker_0, # of connection points: 2
#     Edge 18, Type (0, 0), BuildingBlock: CIFDUS_clean_linker_0, # of connection points: 2
#     Edge 19, Type (0, 0), BuildingBlock: CIFDUS_clean_linker_0, # of connection points: 2
#     Edge 20, Type (0, 0), BuildingBlock: CIFDUS_clean_linker_0, # of connection points: 2
#     Edge 21, Type (0, 0), BuildingBlock: CIFDUS_clean_linker_0, # of connection points: 2
#     Edge 22, Type (0, 0), BuildingBlock: CIFDUS_clean_linker_0, # of connection points: 2
#     Edge 23, Type (0, 0), BuildingBlock: CIFDUS_clean_linker_0, # of connection points: 2
#     Edge 24, Type (0, 0), BuildingBlock: CIFDUS_clean_linker_0, # of connection points: 2
#     Edge 25, Type (0, 0), BuildingBlock: CIFDUS_clean_linker_0, # of connection points: 2
#     Edge 26, Type (0, 0), BuildingBlock: CIFDUS_clean_linker_0, # of connection points: 2
#     Edge 27, Type (0, 0), BuildingBlock: CIFDUS_clean_linker_0, # of connection points: 2
#     Edge 28, Type (0, 0), BuildingBlock: CIFDUS_clean_linker_0, # of connection points: 2
#     Edge 29, Type (0, 0), BuildingBlock: CIFDUS_clean_linker_0, # of connection points: 2
#     Edge 30, Type (0, 0), BuildingBlock: CIFDUS_clean_linker_0, # of connection points: 2
#     Edge 31, Type (0, 0), BuildingBlock: CIFDUS_clean_linker_0, # of connection points: 2
#     Edge 32, Type (0, 0), BuildingBlock: CIFDUS_clean_linker_0, # of connection points: 2
#     Edge 33, Type (0, 0), BuildingBlock: CIFDUS_clean_linker_0, # of connection points: 2
#     Edge 34, Type (0, 0), BuildingBlock: CIFDUS_clean_linker_0, # of connection points: 2
#     Edge 35, Type (0, 0), BuildingBlock: CIFDUS_clean_linker_0, # of connection points: 2
#     Edge 36, Type (0, 0), BuildingBlock: CIFDUS_clean_linker_0, # of connection points: 2
#     Edge 37, Type (0, 0), BuildingBlock: CIFDUS_clean_linker_0, # of connection points: 2
#     Edge 38, Type (0, 0), BuildingBlock: CIFDUS_clean_linker_0, # of connection points: 2
#     Edge 39, Type (0, 0), BuildingBlock: CIFDUS_clean_linker_0, # of connection points: 2
#     Edge 40, Type (0, 0), BuildingBlock: CIFDUS_clean_linker_0, # of connection points: 2
#     Edge 41, Type (0, 0), BuildingBlock: CIFDUS_clean_linker_0, # of connection points: 2
#     Edge 42, Type (0, 0), BuildingBlock: CIFDUS_clean_linker_0, # of connection points: 2
#     Edge 43, Type (0, 0), BuildingBlock: CIFDUS_clean_linker_0, # of connection points: 2
#     Edge 44, Type (0, 0), BuildingBlock: CIFDUS_clean_linker_0, # of connection points: 2
#     Edge 45, Type (0, 0), BuildingBlock: CIFDUS_clean_linker_0, # of connection points: 2
#     Edge 46, Type (0, 0), BuildingBlock: CIFDUS_clean_linker_0, # of connection points: 2
#     Edge 47, Type (0, 0), BuildingBlock: CIFDUS_clean_linker_0, # of connection points: 2
# Relax obj value: 0.127
# Max RMSD: 0.272
# Mean RMSD: 0.211
data_MOF--net-wfa--node1-KOZSID_clean_sbu_0--edge1-CIFDUS_clean_linker_0
_symmetry_space_group_name_H-M    P1
_symmetry_Int_Tables_number       1
_symmetry_cell_setting            triclinic
loop_
_symmetry_equiv_pos_as_xyz
'x, y, z'
_cell_length_a     52.436287
_cell_length_b     54.843156
_cell_length_c     22.418365
_cell_angle_alpha  88.464033
_cell_angle_beta   88.377729
_cell_angle_gamma 89.294017
loop_
_atom_site_label
_atom_site_type_symbol
_atom_site_fract_x
_atom_site_fract_y
_atom_site_fract_z
_atom_type_partial_charge
C0 C 0.54403 0.04125 0.98477 0.0
C1 C 0.53885 0.0624 0.95171 0.0
C2 C 0.56159 0.07454 0.94388 0.0
C3 C 0.57942 0.06041 0.97297 0.0
N4 N 0.56918 0.04015 0.99818 0.0
Co5 Co 0.58688 0.01647 0.05155 0.0
N6 N 0.61382 0.03999 0.0697 0.0
C7 C 0.61972 0.05996 0.03606 0.0
C8 C 0.64009 0.07227 0.0573 0.0
C9 C 0.64764 0.059 0.10673 0.0
C10 C 0.63138 0.03926 0.11312 0.0
N11 N 0.60383 0.9925 0.10571 0.0
C12 C 0.62178 0.9958 0.14715 0.0
C13 C 0.62842 0.9737 0.17459 0.0
C14 C 0.61467 0.95603 0.14818 0.0
C15 C 0.60027 0.96821 0.10649 0.0
N16 N 0.56014 0.99304 0.03246 0.0
C17 C 0.56176 0.96864 0.03859 0.0
C18 C 0.53962 0.95738 0.02359 0.0
C19 C 0.52309 0.97595 0.00775 0.0
C20 C 0.53607 0.99754 0.01437 0.0
N21 N 0.60863 1.00545 0.98401 0.0
C22 C 0.64308 1.00132 0.88578 0.0
C23 C 0.65143 0.99918 0.9445 0.0
C24 C 0.63409 1.00131 0.9925 0.0
C25 C 0.61663 1.00355 0.87752 0.0
C26 C 0.59973 1.00536 0.92719 0.0
N27 N 0.56569 0.02836 0.1179 0.0
C28 C 0.53408 0.0226 0.19712 0.0
C29 C 0.53108 0.04794 0.20081 0.0
C30 C 0.54626 0.06309 0.16427 0.0
C31 C 0.56345 0.05303 0.12368 0.0
C32 C 0.55162 1.0131 0.1549 0.0
H33 H 0.57434 0.06542 0.0955 0.0
H34 H 0.55343 0.99357 0.15117 0.0
H35 H 0.64176 1.00096 0.03646 0.0
H36 H 0.57962 1.00799 0.91952 0.0
C37 C 0.60345 0.06826 0.99068 0.0
C38 C 0.52538 0.02203 1.00226 0.0
C39 C 0.63484 0.01896 0.1567 0.0
C40 C 0.58119 0.95799 0.0726 0.0
H41 H 0.52061 0.06892 0.93623 0.0
H42 H 0.56429 0.09246 0.92343 0.0
H43 H 0.64816 0.08916 0.0398 0.0
H44 H 0.66362 0.06309 0.13417 0.0
H45 H 0.64216 0.97055 0.20913 0.0
H46 H 0.61482 0.93667 0.15894 0.0
H47 H 0.53532 0.93815 0.02781 0.0
H48 H 0.50359 0.9739 0.99426 0.0
H49 H 0.67145 0.99651 0.95369 0.0
H50 H 0.60906 1.005 0.83313 0.0
H51 H 0.52283 1.01041 0.22576 0.0
H52 H 0.54472 0.08278 0.16689 0.0
C53 C 0.56076 0.66971 0.09973 0.0
C54 C 0.5853 0.66332 0.1163 0.0
C55 C 0.6015 0.67356 0.07422 0.0
C56 C 0.58596 0.68555 0.03466 0.0
N57 N 0.56087 0.68407 0.0497 0.0
Co58 Co 0.53161 0.69751 1.00286 0.0
N59 N 0.55514 0.71007 0.93733 0.0
C60 C 0.58053 0.70594 0.93195 0.0
C61 C 0.59182 0.71816 0.88418 0.0
C62 C 0.57261 0.73136 0.85843 0.0
C63 C 0.55059 0.72639 0.89205 0.0
N64 N 0.50262 0.71219 0.95676 0.0
C65 C 0.50319 0.72896 0.91101 0.0
C66 C 0.47886 0.73651 0.89566 0.0
C67 C 0.4623 0.7247 0.93431 0.0
C68 C 0.47743 0.71069 0.9709 0.0
N69 N 0.50787 0.68449 0.06701 0.0
C70 C 0.48209 0.68582 0.0681 0.0
C71 C 0.47087 0.67314 0.11518 0.0
C72 C 0.49065 0.66248 0.14489 0.0
C73 C 0.51284 0.6693 0.11396 0.0
N74 N 0.53432 0.72889 0.04518 0.0
C75 C 0.53791 0.77077 0.1158 0.0
C76 C 0.51438 0.76013 0.10575 0.0
C77 C 0.51303 0.73945 0.07087 0.0
C78 C 0.55961 0.76046 0.08799 0.0
C79 C 0.55736 0.73985 0.05253 0.0
N80 N 0.52859 0.66513 0.96336 0.0
C81 C 0.50039 0.63112 0.94912 0.0
C82 C 0.52019 0.61409 0.95777 0.0
C83 C 0.54491 0.62338 0.96033 0.0
C84 C 0.54869 0.64878 0.96175 0.0
C85 C 0.50502 0.65624 0.951 0.0
H86 H 0.56795 0.65468 0.96501 0.0
H87 H 0.48889 0.66799 0.94551 0.0
H88 H 0.49454 0.73202 0.06624 0.0
H89 H 0.5745 0.73284 0.03199 0.0
C90 C 0.59383 0.69499 0.97878 0.0
C91 C 0.53794 0.65929 0.12785 0.0
C92 C 0.52632 0.73917 0.88299 0.0
C93 C 0.46897 0.69797 0.02248 0.0
H94 H 0.59086 0.65139 0.15301 0.0
H95 H 0.62201 0.67118 0.07076 0.0
H96 H 0.61196 0.71892 0.87231 0.0
H97 H 0.57488 0.74415 0.82115 0.0
H98 H 0.47375 0.74985 0.86143 0.0
H99 H 0.44178 0.72703 0.93735 0.0
H100 H 0.4507 0.6711 0.12534 0.0
H101 H 0.48894 0.65029 0.18355 0.0
H102 H 0.49699 0.76722 0.1264 0.0
H103 H 0.57825 0.76825 0.09349 0.0
H104 H 0.48105 0.62512 0.94312 0.0
H105 H 0.56118 0.61118 0.96478 0.0
C106 C 0.99307 0.50397 0.93466 0.0
C107 C 0.99828 0.48273 0.90404 0.0
C108 C 0.97528 0.47138 0.89746 0.0
C109 C 0.95724 0.48599 0.92491 0.0
N110 N 0.96758 0.50592 0.9475 0.0
Co111 Co 0.94992 0.52941 1.00082 0.0
N112 N 0.92226 0.50631 0.02294 0.0
C113 C 0.91628 0.48682 0.99095 0.0
C114 C 0.89491 0.47512 0.01313 0.0
C115 C 0.8867 0.48834 0.06128 0.0
C116 C 0.90361 0.50746 0.06607 0.0
N117 N 0.93374 0.55306 0.05616 0.0
C118 C 0.9154 0.54972 0.09953 0.0
C119 C 0.91005 0.57148 0.12797 0.0
C120 C 0.92479 0.58905 0.09985 0.0
C121 C 0.93854 0.57714 0.0563 0.0
N122 N 0.97741 0.55235 0.97719 0.0
C123 C 0.97659 0.57672 0.98194 0.0
C124 C 0.99947 0.58734 0.96549 0.0
C125 C 0.01567 0.56837 0.95086 0.0
C126 C 1.00175 0.5472 0.95944 0.0
N127 N 0.92803 0.54161 0.93494 0.0
C128 C 0.88948 0.54288 0.84918 0.0
C129 C 0.88448 0.55007 0.90763 0.0
C130 C 0.90364 0.54919 0.94928 0.0
C131 C 0.91507 0.53801 0.83238 0.0
C132 C 0.93416 0.53782 0.87591 0.0
N133 N 0.97046 0.51638 0.06588 0.0
C134 C 0.99956 0.52089 0.14612 0.0
C135 C 1.00191 0.49548 0.15198 0.0
C136 C 0.98779 0.4809 0.11544 0.0
C137 C 0.97209 0.49163 0.07341 0.0
C138 C 0.98378 0.53105 0.1021 0.0
H139 H 0.96159 0.47969 0.04618 0.0
H140 H 0.98253 0.55064 0.09691 0.0
H141 H 0.89753 0.55269 0.99415 0.0
H142 H 0.95345 0.53295 0.86238 0.0
C143 C 0.93285 0.47855 0.94507 0.0
C144 C 1.01202 0.52238 0.95137 0.0
C145 C 0.8997 0.52764 0.10767 0.0
C146 C 0.95774 0.58735 0.01882 0.0
H147 H 0.01661 0.47546 0.88987 0.0
H148 H 0.97247 0.45349 0.87962 0.0
H149 H 0.88645 0.45878 0.99674 0.0
H150 H 0.86981 0.48466 0.08873 0.0
H151 H 0.89618 0.57458 0.1637 0.0
H152 H 0.92549 0.60819 0.11024 0.0
H153 H 1.00457 0.60629 0.96921 0.0
H154 H 0.03564 0.56981 0.93799 0.0
H155 H 0.86527 0.5549 0.92249 0.0
H156 H 0.92006 0.53292 0.78717 0.0
H157 H 1.01 0.53266 0.17454 0.0
H158 H 0.98867 0.46118 0.11978 0.0
C159 C 0.96665 0.88377 0.11798 0.0
C160 C 0.94224 0.89208 0.13279 0.0
C161 C 0.92645 0.88307 0.0915 0.0
C162 C 0.94205 0.86987 0.05398 0.0
N163 N 0.96676 0.86944 0.06968 0.0
Co164 Co 0.99616 0.85389 0.02507 0.0
N165 N 0.97382 0.84396 0.95949 0.0
C166 C 0.9492 0.85058 0.95235 0.0
C167 C 0.93967 0.84362 0.89923 0.0
C168 C 0.95917 0.83108 0.87181 0.0
C169 C 0.97928 0.83031 0.91096 0.0
N170 N 0.0252 0.83727 0.98044 0.0
C171 C 0.02435 0.81967 0.93832 0.0
C172 C 0.04799 0.80813 0.93158 0.0
C173 C 0.06433 0.81935 0.96786 0.0
C174 C 0.04988 0.83648 0.99684 0.0
N175 N 0.01886 0.86436 0.08964 0.0
C176 C 0.04428 0.86052 0.09261 0.0
C177 C 0.05515 0.87163 0.13951 0.0
C178 C 0.03557 0.88394 0.16713 0.0
C179 C 1.01388 0.87966 0.13507 0.0
N180 N 0.98934 0.82251 0.06987 0.0
C181 C 0.98013 0.78159 0.14737 0.0
C182 C 1.00487 0.78957 0.13393 0.0
C183 C 1.00898 0.80981 0.09586 0.0
C184 C 0.96 0.79395 0.11929 0.0
C185 C 0.96504 0.81396 0.08006 0.0
N186 N 1.00302 0.88623 0.98355 0.0
C187 C 0.03227 0.92022 0.97496 0.0
C188 C 1.01207 0.93732 0.97476 0.0
C189 C 0.98745 0.92797 0.97045 0.0
C190 C 0.98348 0.90263 0.97354 0.0
C191 C 0.02737 0.89504 0.97839 0.0
H192 H 0.96419 0.89686 0.97165 0.0
H193 H 0.04356 0.88308 0.98027 0.0
H194 H 0.02829 0.81513 0.08928 0.0
H195 H 0.94906 0.82253 0.05901 0.0
C196 C 0.93508 0.86151 0.99842 0.0
C197 C 0.98949 0.89201 0.14653 0.0
C198 C 1.00139 0.81353 0.90477 0.0
C199 C 0.05756 0.84778 0.04838 0.0
H200 H 0.93663 0.90443 0.16774 0.0
H201 H 0.90633 0.88712 0.08692 0.0
H202 H 0.92054 0.84648 0.88334 0.0
H203 H 0.95811 0.82215 0.8295 0.0
H204 H 0.05315 0.79216 0.907 0.0
H205 H 0.08383 0.81393 0.97651 0.0
H206 H 0.07508 0.8716 0.15079 0.0
H207 H 0.03725 0.89554 0.2051 0.0
H208 H 0.02113 0.78071 0.15441 0.0
H209 H 0.94051 0.78817 0.12735 0.0
H210 H 0.05188 0.92617 0.97455 0.0
H211 H 0.97101 0.94005 0.96829 0.0
C212 C 0.04176 1.00277 0.56365 0.0
C213 C 0.03525 0.98205 0.59716 0.0
C214 C 0.0575 0.96871 0.6045 0.0
C215 C 0.07644 0.98187 0.57513 0.0
N216 N 0.0673 1.00271 0.55075 0.0
Co217 Co 0.08617 0.02519 0.49542 0.0
N218 N 0.11168 0.99997 0.47355 0.0
C219 C 0.11672 0.9797 0.50661 0.0
C220 C 0.13648 0.96616 0.4825 0.0
C221 C 0.14447 0.97895 0.43185 0.0
C222 C 0.12906 0.99966 0.42766 0.0
N223 N 0.10373 0.04814 0.43882 0.0
C224 C 0.12082 0.04361 0.39391 0.0
C225 C 0.12818 0.06525 0.36505 0.0
C226 C 0.11575 0.08383 0.39418 0.0
C227 C 0.10137 0.07263 0.43883 0.0
N228 N 0.06081 0.05022 0.51865 0.0
C229 C 0.06353 0.0745 0.51348 0.0
C230 C 0.0417 0.08689 0.53104 0.0
C231 C 0.02424 0.06918 0.54715 0.0
C232 C 0.03645 0.04698 0.53825 0.0
N233 N 0.10922 0.03455 0.55962 0.0
C234 C 0.14716 0.03417 0.64682 0.0
C235 C 0.15321 0.03874 0.58653 0.0
C236 C 0.13431 0.03868 0.54425 0.0
C237 C 0.12115 0.03228 0.66351 0.0
C238 C 0.10241 0.03272 0.61913 0.0
N239 N 0.06449 1.01476 0.43158 0.0
C240 C 0.03807 0.02222 0.3465 0.0
C241 C 0.03373 0.9971 0.34289 0.0
C242 C 0.04543 0.98121 0.38363 0.0
C243 C 0.06078 0.99029 0.42675 0.0
C244 C 0.05338 0.03075 0.39193 0.0
H245 H 0.06971 0.97726 0.4563 0.0
H246 H 0.05624 0.05013 0.39513 0.0
H247 H 0.14082 0.04009 0.49859 0.0
H248 H 0.08268 0.0301 0.63273 0.0
C249 C 0.10014 0.97245 0.55445 0.0
C250 C 0.02433 0.02303 0.5455 0.0
C251 C 0.13294 0.01967 0.38317 0.0
C252 C 0.08319 0.08406 0.47638 0.0
H253 H 0.01657 0.97664 0.61355 0.0
H254 H 0.05916 0.9506 0.62452 0.0
H255 H 0.14385 0.94879 0.49889 0.0
H256 H 0.16011 0.97385 0.40203 0.0
H257 H 0.14164 0.06748 0.3279 0.0
H258 H 0.11675 0.10315 0.38331 0.0
H259 H 0.03808 0.10634 0.52739 0.0
H260 H 1.00453 0.07213 0.56111 0.0
H261 H 0.17285 0.04108 0.5713 0.0
H262 H 0.11544 0.02912 0.70984 0.0
H263 H 0.02959 0.03504 0.31506 0.0
H264 H 0.04332 0.96163 0.38128 0.0
C265 C 0.46985 0.16409 0.42971 0.0
C266 C 0.44608 0.15448 0.41953 0.0
C267 C 0.42933 0.16508 0.45912 0.0
C268 C 0.44377 0.18038 0.49143 0.0
N269 N 0.46862 0.18069 0.47368 0.0
Co270 Co 0.49711 0.19717 0.51437 0.0
N271 N 0.47386 0.20838 0.58068 0.0
C272 C 0.4489 0.20302 0.58872 0.0
C273 C 0.43843 0.21135 0.64112 0.0
C274 C 0.45761 0.22364 0.66676 0.0
C275 C 0.47855 0.22287 0.62734 0.0
N276 N 0.52554 0.2139 0.55533 0.0
C277 C 0.52423 0.23183 0.5967 0.0
C278 C 0.54781 0.24291 0.60099 0.0
C279 C 0.56454 0.23098 0.56427 0.0
C280 C 0.55041 0.21394 0.53716 0.0
N281 N 0.52046 0.18622 0.44807 0.0
C282 C 0.5456 0.19072 0.44093 0.0
C283 C 0.55662 0.1805 0.39123 0.0
C284 C 0.53745 0.16797 0.36633 0.0
C285 C 0.51594 0.17114 0.40297 0.0
N286 N 0.48997 0.22805 0.46804 0.0
C287 C 0.47985 0.26751 0.38751 0.0
C288 C 0.50481 0.25983 0.3987 0.0
C289 C 0.50939 0.24049 0.43908 0.0
C290 C 0.46008 0.25609 0.42051 0.0
C291 C 0.46552 0.23657 0.46031 0.0
N292 N 0.50394 0.16533 0.55802 0.0
C293 C 0.52999 0.1283 0.55957 0.0
C294 C 0.50828 0.11386 0.56909 0.0
C295 C 0.48531 0.1259 0.5824 0.0
C296 C 0.48382 0.15144 0.57886 0.0
C297 C 0.52741 0.15395 0.55423 0.0
H298 H 0.46558 0.15929 0.58842 0.0
H299 H 0.54424 0.16407 0.54263 0.0
H300 H 0.52887 0.23566 0.44518 0.0
H301 H 0.44965 0.22828 0.48342 0.0
C302 C 0.43575 0.19073 0.54531 0.0
C303 C 0.49352 0.15582 0.40038 0.0
C304 C 0.50089 0.23888 0.63148 0.0
C305 C 0.5585 0.20293 0.48436 0.0
H306 H 0.4414 0.14044 0.38892 0.0
H307 H 0.4094 0.16069 0.46655 0.0
H308 H 0.419 0.20933 0.6579 0.0
H309 H 0.45587 0.23327 0.7082 0.0
H310 H 0.5527 0.25914 0.62378 0.0
H311 H 0.58406 0.23606 0.55353 0.0
H312 H 0.57648 0.18097 0.37674 0.0
H313 H 0.53947 0.15626 0.32831 0.0
H314 H 0.52087 0.26857 0.37586 0.0
H315 H 0.4404 0.26155 0.4141 0.0
H316 H 0.54842 0.11983 0.55059 0.0
H317 H 0.46815 0.1156 0.59241 0.0
C318 C 0.49199 0.52407 0.52382 0.0
C319 C 0.4972 0.54306 0.56092 0.0
C320 C 0.4743 0.55499 0.57202 0.0
C321 C 0.45638 0.54261 0.54123 0.0
N322 N 0.46665 0.52358 0.5123 0.0
Co323 Co 0.44886 0.50248 0.45657 0.0
N324 N 0.4208 0.52657 0.44463 0.0
C325 C 0.41496 0.54484 0.48197 0.0
C326 C 0.39327 0.55745 0.46632 0.0
C327 C 0.38471 0.54616 0.41685 0.0
C328 C 0.40171 0.52719 0.40484 0.0
N329 N 0.4325 0.48142 0.3982 0.0
C330 C 0.41371 0.48659 0.35914 0.0
C331 C 0.40815 0.46615 0.32676 0.0
C332 C 0.42338 0.4475 0.34762 0.0
C333 C 0.43751 0.45749 0.39115 0.0
N334 N 0.47663 0.47831 0.47038 0.0
C335 C 0.47598 0.4544 0.45897 0.0
C336 C 0.49885 0.44273 0.4694 0.0
C337 C 0.51492 0.46052 0.48746 0.0
C338 C 0.50089 0.48212 0.48714 0.0
N339 N 0.42749 0.48813 0.52307 0.0
C340 C 0.3889 0.48752 0.61335 0.0
C341 C 0.38381 0.48093 0.55519 0.0
C342 C 0.40309 0.48135 0.51123 0.0
C343 C 0.41457 0.49082 0.62748 0.0
C344 C 0.43369 0.49056 0.5817 0.0
N345 N 0.46894 0.51781 0.3916 0.0
C346 C 0.49858 0.51661 0.3075 0.0
C347 C 0.50011 0.54214 0.30698 0.0
C348 C 0.48509 0.55505 0.348 0.0
C349 C 0.46974 0.54267 0.38937 0.0
C350 C 0.48287 0.50471 0.3507 0.0
H351 H 0.45887 0.55345 0.42047 0.0
H352 H 0.4822 0.48505 0.35156 0.0
H353 H 0.39704 0.47843 0.46687 0.0
H354 H 0.45306 0.49432 0.59331 0.0
C355 C 0.43183 0.55116 0.52684 0.0
C356 C 0.51099 0.5061 0.50162 0.0
C357 C 0.3977 0.50889 0.3591 0.0
C358 C 0.45705 0.44566 0.42255 0.0
H359 H 0.51562 0.54798 0.57725 0.0
H360 H 0.47146 0.57163 0.59633 0.0
H361 H 0.38482 0.57316 0.48781 0.0
H362 H 0.36761 0.55099 0.39311 0.0
H363 H 0.39378 0.46459 0.29341 0.0
H364 H 0.42407 0.42888 0.3327 0.0
H365 H 0.50399 0.42404 0.45976 0.0
H366 H 0.53487 0.45802 0.49733 0.0
H367 H 0.36452 0.47708 0.54244 0.0
H368 H 0.41963 0.4952 0.6724 0.0
H369 H 0.50961 0.50604 0.2756 0.0
H370 H 0.48496 0.57482 0.34792 0.0
C371 C 0.04787 0.38757 0.42584 0.0
C372 C 0.07234 0.39525 0.41023 0.0
C373 C 0.08847 0.38303 0.44761 0.0
C374 C 0.07299 0.36884 0.48409 0.0
N375 N 0.04801 0.37068 0.47113 0.0
Co376 Co 0.01857 0.35647 0.51886 0.0
N377 N 0.04177 0.34175 0.58021 0.0
C378 C 0.06746 0.34333 0.58053 0.0
C379 C 0.07844 0.32948 0.62494 0.0
C380 C 0.05865 0.31775 0.65372 0.0
C381 C 0.03666 0.3252 0.62515 0.0
N382 N 0.98914 0.34274 0.56774 0.0
C383 C 0.98905 0.32647 0.61456 0.0
C384 C 0.96445 0.32065 0.63364 0.0
C385 C 0.94839 0.3331 0.59645 0.0
C386 C 0.96403 0.34585 0.55702 0.0
N387 N 0.99531 0.37024 0.45718 0.0
C388 C 0.96977 0.36745 0.45512 0.0
C389 C 0.95903 0.3796 0.40763 0.0
C390 C 0.97882 0.39135 0.37877 0.0
C391 C 1.00049 0.38584 0.41086 0.0
N392 N 0.02135 0.32567 0.47295 0.0
C393 C 0.02401 0.28834 0.38776 0.0
C394 C 1.00068 0.29593 0.41316 0.0
C395 C 0.9998 0.31419 0.45555 0.0
C396 C 0.04621 0.29824 0.40996 0.0
C397 C 0.04446 0.31668 0.45251 0.0
N398 N 0.0158 0.3882 0.5615 0.0
C399 C 0.99309 0.42701 0.56776 0.0
C400 C 0.01545 0.43933 0.58028 0.0
C401 C 0.0374 0.42501 0.58967 0.0
C402 C 0.03712 0.39967 0.58051 0.0
C403 C 0.99356 0.40166 0.5601 0.0
H404 H 0.0547 0.3899 0.58599 0.0
H405 H 0.97589 0.39355 0.54981 0.0
H406 H 0.98131 0.31927 0.47203 0.0
H407 H 0.06201 0.32394 0.4668 0.0
C408 C 0.08086 0.35598 0.53505 0.0
C409 C 0.0248 0.39813 0.40045 0.0
C410 C 1.01167 0.31465 0.63921 0.0
C411 C 0.95613 0.35677 0.50338 0.0
H412 H 0.07798 0.40904 0.3773 0.0
H413 H 0.10888 0.38537 0.45028 0.0
H414 H 0.09856 0.32721 0.63343 0.0
H415 H 0.0603 0.30447 0.69003 0.0
H416 H 0.9588 0.30781 0.66894 0.0
H417 H 0.92783 0.33164 0.5956 0.0
H418 H 0.939 0.38106 0.39751 0.0
H419 H 0.97726 0.40374 0.3406 0.0
H420 H 0.98295 0.28826 0.3991 0.0
H421 H 0.0648 0.2927 0.39251 0.0
H422 H 0.97528 0.43698 0.56269 0.0
H423 H 0.05512 0.43344 0.6011 0.0
C424 C 0.35893 0.04967 0.03509 0.0
C425 C 0.37028 0.07123 0.05027 0.0
C426 C 0.35259 0.08948 0.04033 0.0
C427 C 0.33145 0.07805 0.01988 0.0
N428 N 0.33471 0.05377 0.01719 0.0
Co429 Co 0.31007 0.03037 0.98608 0.0
N430 N 0.29156 0.05646 0.94112 0.0
C431 C 0.2939 0.08059 0.94907 0.0
C432 C 0.279 0.09452 0.91179 0.0
C433 C 0.26606 0.07817 0.87917 0.0
C434 C 0.27353 0.055 0.89896 0.0
N435 N 0.28526 1.00669 0.9564 0.0
C436 C 0.26702 1.00941 0.91468 0.0
C437 C 0.25253 0.98842 0.91245 0.0
C438 C 0.26178 0.97229 0.95457 0.0
C439 C 0.2813 0.98421 0.98045 0.0
N440 N 0.32936 1.00461 0.03032 0.0
C441 C 0.32089 0.98223 0.04558 0.0
C442 C 0.33952 0.96771 0.0706 0.0
C443 C 0.36101 0.98186 0.07061 0.0
C444 C 0.35428 1.00439 0.04588 0.0
N445 N 0.28714 0.03513 0.05607 0.0
C446 C 0.25263 0.03377 0.15469 0.0
C447 C 0.27912 0.03228 0.16267 0.0
C448 C 0.29603 0.03309 0.11284 0.0
C449 C 0.24409 0.0374 0.09651 0.0
C450 C 0.26148 0.03806 0.0483 0.0
N451 N 0.33288 0.02493 0.91712 0.0
C452 C 0.36091 0.99508 0.87381 0.0
C453 C 0.37905 1.01306 0.86077 0.0
C454 C 0.37168 0.03758 0.86625 0.0
C455 C 0.34818 0.04317 0.89436 0.0
C456 C 0.33785 1.00141 0.90151 0.0
H457 H 0.34375 0.06199 0.90349 0.0
H458 H 0.32561 0.98679 0.91667 0.0
H459 H 0.31625 0.03121 0.12007 0.0
H460 H 0.25382 0.04009 0.00454 0.0
C461 C 0.31189 0.08948 0.98796 0.0
C462 C 0.3714 0.02554 0.03829 0.0
C463 C 0.26064 0.03243 0.88254 0.0
C464 C 0.298 0.97406 0.0226 0.0
H465 H 0.38953 0.07356 0.06521 0.0
H466 H 0.35558 0.1089 0.04309 0.0
H467 H 0.27783 0.11422 0.90828 0.0
H468 H 0.25213 0.08283 0.84594 0.0
H469 H 0.23638 0.98533 0.88475 0.0
H470 H 0.25512 0.95401 0.96482 0.0
H471 H 0.33823 0.94858 0.08331 0.0
H472 H 0.37954 0.97597 0.08572 0.0
H473 H 0.28673 0.02966 0.2068 0.0
H474 H 0.22394 0.03947 0.08793 0.0
H475 H 0.36539 0.97596 0.86751 0.0
H476 H 0.38489 0.0521 0.85479 0.0
C477 C 0.47834 0.45929 0.96289 0.0
C478 C 0.45682 0.47402 0.95607 0.0
C479 C 0.43839 0.45972 0.93326 0.0
C480 C 0.44955 0.43715 0.9266 0.0
N481 N 0.47374 0.43632 0.94498 0.0
Co482 Co 0.49775 0.40818 0.93699 0.0
N483 N 0.47748 0.39315 0.87435 0.0
C484 C 0.45425 0.40084 0.85734 0.0
C485 C 0.44747 0.39143 0.80416 0.0
C486 C 0.46734 0.37641 0.78759 0.0
C487 C 0.48476 0.3764 0.83324 0.0
N488 N 0.52129 0.37957 0.93202 0.0
C489 C 0.52125 0.36007 0.89555 0.0
C490 C 0.53612 0.34119 0.9195 0.0
C491 C 0.54646 0.34948 0.97044 0.0
C492 C 0.5369 0.37264 0.97641 0.0
N493 N 0.51859 0.42417 0.99666 0.0
C494 C 0.5362 0.41327 0.03081 0.0
C495 C 0.54895 0.42963 0.06429 0.0
C496 C 0.53872 0.4522 0.04963 0.0
C497 C 0.52029 0.4483 0.00796 0.0
N498 N 0.47874 0.38996 1.00077 0.0
C499 C 0.47131 0.35754 0.09859 0.0
C500 C 0.47351 0.38267 0.10721 0.0
C501 C 0.47683 0.39868 0.05748 0.0
C502 C 0.46911 0.34971 0.04002 0.0
C503 C 0.4726 0.36616 0.99196 0.0
N504 N 0.51743 0.42605 0.87514 0.0
C505 C 0.55852 0.44149 0.84488 0.0
C506 C 0.54715 0.46111 0.81376 0.0
C507 C 0.52053 0.46109 0.80847 0.0
C508 C 0.50609 0.44301 0.83838 0.0
C509 C 0.54343 0.42449 0.87582 0.0
H510 H 0.48564 0.44385 0.83502 0.0
H511 H 0.55293 0.41113 0.90363 0.0
H512 H 0.48016 0.41771 0.06529 0.0
H513 H 0.47285 0.35884 0.94792 0.0
C514 C 0.44167 0.42014 0.88584 0.0
C515 C 0.50338 0.46743 0.983 0.0
C516 C 0.5058 0.35814 0.8411 0.0
C517 C 0.54306 0.38886 0.02127 0.0
H518 H 0.4547 0.49332 0.96316 0.0
H519 H 0.42006 0.46586 0.91717 0.0
H520 H 0.43079 0.39602 0.77862 0.0
H521 H 0.46866 0.3668 0.74617 0.0
H522 H 0.5386 0.32284 0.90381 0.0
H523 H 0.55906 0.33959 1.00015 0.0
H524 H 0.56466 0.42582 0.09355 0.0
H525 H 0.54413 0.46949 0.06737 0.0
H526 H 0.47473 0.38967 0.15174 0.0
H527 H 0.46652 0.33059 0.03115 0.0
H528 H 0.57903 0.43968 0.84764 0.0
H529 H 0.51071 0.47548 0.78403 0.0
C530 C 0.17491 0.48844 0.02156 0.0
C531 C 0.16225 0.46771 0.04201 0.0
C532 C 0.17953 0.44872 0.03771 0.0
C533 C 0.20177 0.4589 0.01506 0.0
N534 N 0.19952 0.48313 0.00604 0.0
Co535 Co 0.22545 0.50487 0.96782 0.0
N536 N 0.24315 0.47734 0.92781 0.0
C537 C 0.24007 0.45356 0.94261 0.0
C538 C 0.25472 0.43844 0.90752 0.0
C539 C 0.26822 0.45365 0.86909 0.0
C540 C 0.26125 0.47738 0.88323 0.0
N541 N 0.25133 0.52701 0.93063 0.0
C542 C 0.26956 0.52289 0.8877 0.0
C543 C 0.28496 0.5432 0.8792 0.0
C544 C 0.27624 0.56032 0.91868 0.0
C545 C 0.25609 0.54963 0.94929 0.0
N546 N 0.20667 0.53195 0.00704 0.0
C547 C 0.21589 0.55416 0.01697 0.0
C548 C 0.19726 0.56985 0.03816 0.0
C549 C 0.17504 0.55665 0.04095 0.0
C550 C 0.18131 0.53349 0.02159 0.0
N551 N 0.24806 0.5007 0.03691 0.0
C552 C 0.28434 0.50564 0.12644 0.0
C553 C 0.25809 0.50859 0.13958 0.0
C554 C 0.24021 0.50596 0.09408 0.0
C555 C 0.29158 0.49821 0.06929 0.0
C556 C 0.27342 0.49582 0.02582 0.0
N557 N 0.20369 0.50981 0.89916 0.0
C558 C 0.17899 0.53891 0.84298 0.0
C559 C 0.16254 0.52053 0.82706 0.0
C560 C 0.16884 0.49623 0.84138 0.0
C561 C 0.18968 0.49122 0.8778 0.0
C562 C 0.19963 0.53314 0.87831 0.0
H563 H 0.19321 0.47261 0.8924 0.0
H564 H 0.21085 0.54798 0.89308 0.0
H565 H 0.22024 0.50937 0.10435 0.0
H566 H 0.28055 0.49151 0.98208 0.0
C567 C 0.22139 0.44613 0.98522 0.0
C568 C 0.16336 0.51298 0.01724 0.0
C569 C 0.27489 0.49919 0.85991 0.0
C570 C 0.23944 0.56107 0.99059 0.0
H571 H 0.14243 0.46638 0.05643 0.0
H572 H 0.1756 0.42953 0.04502 0.0
H573 H 0.25534 0.4187 0.90917 0.0
H574 H 0.28224 0.44791 0.83585 0.0
H575 H 0.30128 0.5452 0.8489 0.0
H576 H 0.28359 0.57846 0.92397 0.0
H577 H 0.19909 0.58914 0.04585 0.0
H578 H 0.15638 0.56363 0.05385 0.0
H579 H 0.25157 0.51406 0.18353 0.0
H580 H 0.31151 0.49519 0.05727 0.0
H581 H 0.17496 0.55786 0.83144 0.0
H582 H 0.1566 0.48154 0.82898 0.0
C583 C 0.04256 0.09585 0.9799 0.0
C584 C 0.06593 0.08376 0.97532 0.0
C585 C 0.08359 0.10091 0.95727 0.0
C586 C 0.07014 0.12243 0.9512 0.0
N587 N 0.04519 0.11986 0.96489 0.0
Co588 Co 0.01844 0.14549 0.95606 0.0
N589 N 0.03986 0.16494 0.89843 0.0
C590 C 0.06531 0.16242 0.89066 0.0
C591 C 0.07544 0.17874 0.84935 0.0
C592 C 0.05518 0.19266 0.83056 0.0
C593 C 0.03364 0.18404 0.86156 0.0
N594 N 0.99164 0.1712 0.94841 0.0
C595 C 0.98948 0.19013 0.90838 0.0
C596 C 0.96795 0.20417 0.92174 0.0
C597 C 0.95679 0.19404 0.97258 0.0
C598 C 0.97191 0.17432 0.98748 0.0
N599 N 0.99726 0.12549 0.01256 0.0
C600 C 0.97697 0.13333 0.04485 0.0
C601 C 0.96511 0.11457 0.07637 0.0
C602 C 0.9788 0.09377 0.06242 0.0
C603 C 0.99823 0.101 0.02297 0.0
N604 N 0.03214 0.16345 0.02306 0.0
C605 C 0.03994 0.19126 0.12482 0.0
C606 C 0.04014 0.16563 0.12853 0.0
C607 C 0.03628 0.15207 0.07712 0.0
C608 C 0.03787 0.2024 0.0682 0.0
C609 C 0.03416 0.1883 0.01828 0.0
N610 N 1.00392 0.1278 0.89072 0.0
C611 C 0.96678 0.10858 0.8543 0.0
C612 C 0.98187 0.09483 0.81514 0.0
C613 C 1.00817 0.0992 0.81107 0.0
C614 C 0.01888 0.11588 0.8495 0.0
C615 C 0.97807 0.12494 0.89121 0.0
H616 H 0.03928 0.11834 0.84779 0.0
H617 H 0.96582 0.13425 0.9226 0.0
H618 H 0.03533 0.13244 0.08166 0.0
H619 H 0.03151 0.19783 0.97635 0.0
C620 C 0.07848 0.14292 0.91794 0.0
C621 C 0.01804 0.08457 0.99793 0.0
C622 C 1.00868 0.19674 0.86128 0.0
C623 C 0.96644 0.15656 0.03248 0.0
H624 H 0.06997 0.06456 0.98202 0.0
H625 H 0.10343 0.09757 0.9451 0.0
H626 H 0.09516 0.18021 0.83421 0.0
H627 H 0.05635 0.20795 0.79914 0.0
H628 H 0.96127 0.22033 0.89794 0.0
H629 H 0.93941 0.20007 0.99518 0.0
H630 H 0.94763 0.11558 0.10309 0.0
H631 H 0.97478 0.07541 0.07856 0.0
H632 H 0.04194 0.15613 0.1712 0.0
H633 H 0.03835 0.22207 0.06257 0.0
H634 H 0.94629 0.10624 0.85755 0.0
H635 H 0.02037 0.08917 0.78035 0.0
C636 C 0.85876 0.98514 0.49398 0.0
C637 C 0.86953 0.96279 0.47969 0.0
C638 C 0.85062 0.94579 0.48904 0.0
C639 C 0.82941 0.95872 0.50831 0.0
N640 N 0.83388 0.98272 0.51067 0.0
Co641 Co 0.80994 1.00795 0.54054 0.0
N642 N 0.78963 0.98362 0.58755 0.0
C643 C 0.79018 0.95937 0.57927 0.0
C644 C 0.77421 0.94691 0.61854 0.0
C645 C 0.76266 0.96445 0.65292 0.0
C646 C 0.77203 0.98681 0.63226 0.0
N647 N 0.78614 0.0335 0.56968 0.0
C648 C 0.7684 0.03265 0.61489 0.0
C649 C 0.7548 0.05451 0.61719 0.0
C650 C 0.76433 0.0693 0.57151 0.0
C651 C 0.78312 0.05572 0.54364 0.0
N652 N 0.83107 0.03173 0.49379 0.0
C653 C 0.82366 0.05423 0.47602 0.0
C654 C 0.84366 0.06739 0.45115 0.0
C655 C 0.86478 0.05222 0.45425 0.0
C656 C 0.85656 0.03045 0.4807 0.0
N657 N 0.78756 1.00384 0.47206 0.0
C658 C 0.75352 1.00498 0.37637 0.0
C659 C 0.78016 1.0049 0.36593 0.0
C660 C 0.79683 1.0043 0.41433 0.0
C661 C 0.74461 1.0033 0.43576 0.0
C662 C 0.76172 1.00275 0.48235 0.0
N663 N 0.83164 1.01278 0.60847 0.0
C664 C 0.85858 0.04061 0.6571 0.0
C665 C 0.87172 0.02113 0.68374 0.0
C666 C 0.86257 0.99745 0.67785 0.0
C667 C 0.84257 0.99359 0.63896 0.0
C668 C 0.8383 0.03609 0.62076 0.0
H669 H 0.83704 0.97512 0.63072 0.0
H670 H 0.82929 0.05151 0.59906 0.0
H671 H 0.81716 1.00491 0.40517 0.0
H672 H 0.7537 1.00224 0.52699 0.0
C673 C 0.80836 0.94885 0.54011 0.0
C674 C 0.87252 1.00839 0.49248 0.0
C675 C 0.76209 1.0107 0.65161 0.0
C676 C 0.80064 0.06417 0.49908 0.0
H677 H 0.88915 0.95915 0.46612 0.0
H678 H 0.85279 0.92618 0.48697 0.0
H679 H 0.77174 0.92738 0.62285 0.0
H680 H 0.74867 0.96106 0.68845 0.0
H681 H 0.73925 0.0591 0.64778 0.0
H682 H 0.75856 0.08788 0.56077 0.0
H683 H 0.84345 0.08642 0.43711 0.0
H684 H 0.88391 0.05711 0.4401 0.0
H685 H 0.7881 1.00604 0.32086 0.0
H686 H 0.72437 1.00254 0.44659 0.0
H687 H 0.86458 0.05925 0.66255 0.0
H688 H 0.87204 0.982 0.69909 0.0
C689 C 0.55191 0.95651 0.52629 0.0
C690 C 0.57492 0.9683 0.51603 0.0
C691 C 0.59383 0.95126 0.52681 0.0
C692 C 0.58133 0.93003 0.54256 0.0
N693 N 0.55587 0.93276 0.54153 0.0
Co694 Co 0.53055 0.90732 0.5615 0.0
N695 N 0.55509 0.88821 0.61011 0.0
C696 C 0.58062 0.89075 0.60727 0.0
C697 C 0.593 0.87469 0.64486 0.0
C698 C 0.5741 0.86098 0.67233 0.0
C699 C 0.5511 0.86941 0.64985 0.0
N700 N 0.50518 0.88149 0.57951 0.0
C701 C 0.50543 0.86277 0.62032 0.0
C702 C 0.48405 0.84835 0.6151 0.0
C703 C 0.47039 0.85817 0.56874 0.0
C704 C 0.48404 0.87804 0.54817 0.0
N705 N 0.5062 0.92741 0.51459 0.0
C706 C 0.48457 0.91947 0.49145 0.0
C707 C 0.46995 0.93832 0.46891 0.0
C708 C 0.48318 0.95928 0.47905 0.0
C709 C 0.50549 0.95215 0.50693 0.0
N710 N 0.54143 0.88931 0.48985 0.0
C711 C 0.55102 0.86135 0.38771 0.0
C712 C 0.54672 0.88665 0.38261 0.0
C713 C 0.54233 0.90035 0.43428 0.0
C714 C 0.55103 0.85062 0.44502 0.0
C715 C 0.54608 0.86473 0.49497 0.0
N716 N 0.51902 0.925 0.63203 0.0
C717 C 0.4833 0.94333 0.68346 0.0
C718 C 0.49952 0.95874 0.71248 0.0
C719 C 0.52593 0.95576 0.70455 0.0
C720 C 0.53538 0.93837 0.66435 0.0
C721 C 0.49335 0.92668 0.6436 0.0
H722 H 0.55575 0.93676 0.65676 0.0
H723 H 0.48002 0.91647 0.61905 0.0
H724 H 0.53904 0.91977 0.42923 0.0
H725 H 0.54519 0.85536 0.53767 0.0
C726 C 0.59192 0.90983 0.57313 0.0
C727 C 0.52657 0.96833 0.52385 0.0
C728 C 0.52662 0.85679 0.66032 0.0
C729 C 0.47572 0.89596 0.50677 0.0
H730 H 0.57766 0.98739 0.50435 0.0
H731 H 0.61414 0.95451 0.52764 0.0
H732 H 0.6133 0.87319 0.65182 0.0
H733 H 0.57701 0.84591 0.70367 0.0
H734 H 0.47905 0.83219 0.64144 0.0
H735 H 0.45231 0.85195 0.5531 0.0
H736 H 0.45094 0.93724 0.45167 0.0
H737 H 0.47636 0.9774 0.46823 0.0
H738 H 0.54673 0.89575 0.33915 0.0
H739 H 0.55394 0.83114 0.45131 0.0
H740 H 0.46276 0.94508 0.68913 0.0
H741 H 0.53896 0.9673 0.72717 0.0
C742 C 0.67637 0.55154 0.45953 0.0
C743 C 0.66519 0.57297 0.43803 0.0
C744 C 0.68338 0.59072 0.43964 0.0
C745 C 0.7046 0.57939 0.46259 0.0
N746 N 0.7009 0.55553 0.47469 0.0
Co747 Co 0.72508 0.53308 0.5159 0.0
N748 N 0.74397 0.56034 0.55021 0.0
C749 C 0.74227 0.58388 0.532 0.0
C750 C 0.7573 0.5989 0.56364 0.0
C751 C 0.76964 0.58381 0.60342 0.0
C752 C 0.76168 0.56023 0.59341 0.0
N753 N 0.74919 0.51012 0.55599 0.0
C754 C 0.76717 0.51407 0.59709 0.0
C755 C 0.78119 0.49285 0.6084 0.0
C756 C 0.77191 0.4753 0.57266 0.0
C757 C 0.75284 0.48662 0.54131 0.0
N758 N 0.70546 0.50622 0.48253 0.0
C759 C 0.71371 0.48317 0.47569 0.0
C760 C 0.69497 0.46833 0.4556 0.0
C761 C 0.67364 0.48302 0.45013 0.0
C762 C 0.68053 0.50603 0.46745 0.0
N763 N 0.74866 0.5337 0.44547 0.0
C764 C 0.78498 0.52773 0.35174 0.0
C765 C 0.75871 0.52648 0.3412 0.0
C766 C 0.7408 0.52947 0.3889 0.0
C767 C 0.79238 0.53342 0.40892 0.0
C768 C 0.77418 0.53641 0.45448 0.0
N769 N 0.70218 0.53209 0.58611 0.0
C770 C 0.67899 0.50794 0.65959 0.0
C771 C 0.66465 0.52838 0.67638 0.0
C772 C 0.66999 0.55099 0.64893 0.0
C773 C 0.68929 0.55254 0.60453 0.0
C774 C 0.69749 0.51013 0.61422 0.0
H775 H 0.69311 0.57009 0.58363 0.0
H776 H 0.70724 0.49378 0.60028 0.0
H777 H 0.72072 0.52761 0.38057 0.0
H778 H 0.78123 0.53993 0.49772 0.0
C779 C 0.72446 0.59144 0.48961 0.0
C780 C 0.66354 0.52768 0.46638 0.0
C781 C 0.77398 0.53816 0.61951 0.0
C782 C 0.73633 0.47528 0.5025 0.0
H783 H 0.6457 0.57599 0.42504 0.0
H784 H 0.68059 0.61005 0.43062 0.0
H785 H 0.75889 0.61852 0.55892 0.0
H786 H 0.78353 0.58947 0.63488 0.0
H787 H 0.7971 0.49045 0.63774 0.0
H788 H 0.77829 0.4565 0.57006 0.0
H789 H 0.69611 0.44883 0.44959 0.0
H790 H 0.65509 0.47741 0.43598 0.0
H791 H 0.75215 0.52228 0.29732 0.0
H792 H 0.81239 0.535 0.41894 0.0
H793 H 0.67513 0.49011 0.67963 0.0
H794 H 0.65917 0.56714 0.66108 0.0
C795 C 0.974 0.5947 0.57877 0.0
C796 C 0.9525 0.58054 0.58895 0.0
C797 C 0.93422 0.59546 0.61423 0.0
C798 C 0.9455 0.61786 0.61803 0.0
N799 N 0.96958 0.61793 0.59596 0.0
Co800 Co 0.99352 0.64562 0.59655 0.0
N801 N 0.97373 0.66206 0.66109 0.0
C802 C 0.95038 0.65546 0.68189 0.0
C803 C 0.94404 0.66558 0.73557 0.0
C804 C 0.96431 0.67983 0.74847 0.0
C805 C 0.98155 0.67879 0.70026 0.0
N806 N 0.01726 0.67354 0.59546 0.0
C807 C 0.01825 0.69301 0.6319 0.0
C808 C 0.03363 0.71102 0.60536 0.0
C809 C 0.04308 0.70219 0.55243 0.0
C810 C 0.0326 0.67959 0.54815 0.0
N811 N 1.01358 0.6284 0.53392 0.0
C812 C 0.0305 0.63864 0.49521 0.0
C813 C 0.04248 0.62169 0.45951 0.0
C814 C 0.03239 0.59948 0.47742 0.0
C815 C 0.01482 0.60415 0.52314 0.0
N816 N 0.97389 0.66337 0.53481 0.0
C817 C 0.96065 0.69297 0.43539 0.0
C818 C 0.9639 0.66763 0.43041 0.0
C819 C 0.97 0.65311 0.48081 0.0
C820 C 0.96179 0.70264 0.49253 0.0
C821 C 0.9683 0.68762 0.54137 0.0
N822 N 1.01372 0.62821 0.65614 0.0
C823 C 0.05451 0.61089 0.68008 0.0
C824 C 0.04311 0.59599 0.72441 0.0
C825 C 0.01694 0.59857 0.7369 0.0
C826 C 1.00249 0.6148 0.70185 0.0
C827 C 0.03958 0.62708 0.64712 0.0
H828 H 0.98216 0.61573 0.71013 0.0
H829 H 0.04885 0.63778 0.61206 0.0
H830 H 0.9732 0.63381 0.47516 0.0
H831 H 0.97061 0.69616 0.58353 0.0
C832 C 0.93761 0.63591 0.65756 0.0
C833 C 0.99844 0.58573 0.55359 0.0
C834 C 1.00319 0.69586 0.6888 0.0
C835 C 0.03782 0.66291 0.50251 0.0
H836 H 0.95056 0.56127 0.58116 0.0
H837 H 0.9158 0.58999 0.6327 0.0
H838 H 0.92749 0.66174 0.76407 0.0
H839 H 0.96606 0.68952 0.78945 0.0
H840 H 0.03705 0.72914 0.62083 0.0
H841 H 0.05583 0.71135 0.52055 0.0
H842 H 0.05765 0.62486 0.4266 0.0
H843 H 0.03744 0.58192 0.45928 0.0
H844 H 0.96249 0.65916 0.38757 0.0
H845 H 0.95932 0.72203 0.49907 0.0
H846 H 0.07485 0.60977 0.6704 0.0
H847 H 1.00767 0.58757 0.77182 0.0
H848 H 0.47 0.13297 0.30956 0.0
H849 H 0.52738 0.12257 0.44166 0.0
H850 H 0.53988 0.08366 0.39994 0.0
H851 H 0.53965 0.05646 0.31541 0.0
H852 H 0.48481 0.06806 0.17813 0.0
H853 H 0.46516 0.10169 0.23343 0.0
C854 C 0.48437 0.12162 0.33079 0.0
C855 C 0.49723 0.13033 0.37994 0.0
C856 C 0.49192 0.09937 0.3053 0.0
C857 C 0.51679 0.11598 0.40492 0.0
C858 C 0.52411 0.09379 0.38067 0.0
C859 C 0.5226 0.06561 0.29934 0.0
C860 C 0.51342 0.05977 0.24351 0.0
C861 C 0.51239 0.08569 0.32972 0.0
C862 C 0.49182 0.07211 0.22176 0.0
C863 C 0.48091 0.09159 0.25285 0.0
H864 H 0.53236 0.57845 0.32907 0.0
H865 H 0.50181 0.53812 0.18551 0.0
H866 H 0.51534 0.57026 0.11398 0.0
H867 H 0.52655 0.61362 0.09659 0.0
H868 H 0.55296 0.65519 0.24248 0.0
H869 H 0.54961 0.6192 0.30935 0.0
C870 C 0.52919 0.57651 0.2818 0.0
C871 C 0.51563 0.55633 0.26257 0.0
C872 C 0.53534 0.59572 0.24186 0.0
C873 C 0.5121 0.55358 0.20133 0.0
C874 C 0.51936 0.57217 0.16062 0.0
C875 C 0.53205 0.61448 0.14277 0.0
C876 C 0.53978 0.63677 0.1653 0.0
C877 C 0.52949 0.59391 0.18097 0.0
C878 C 0.54691 0.63806 0.22485 0.0
C879 C 0.54497 0.61756 0.26284 0.0
H880 H 0.99469 0.49631 0.27166 0.0
H881 H 0.04251 0.46563 0.1328 0.0
H882 H 0.05699 0.43344 0.20179 0.0
H883 H 0.04862 0.40952 0.2944 0.0
H884 H 1.00042 0.43958 0.43321 0.0
H885 H 0.9933 0.47654 0.37187 0.0
C886 C 1.00916 0.48321 0.25756 0.0
C887 C 0.0175 0.48311 0.19756 0.0
C888 C 0.01668 0.46428 0.29698 0.0
C889 C 0.03597 0.46593 0.17908 0.0
C890 C 0.04396 0.44738 0.21824 0.0
C891 C 0.03739 0.4246 0.31191 0.0
C892 C 0.02507 0.42207 0.36799 0.0
C893 C 0.03334 0.44562 0.27623 0.0
C894 C 1.01008 0.44139 0.39002 0.0
C895 C 1.00597 0.46241 0.35492 0.0
H896 H 1.00916 0.9366 0.122 0.0
H897 H 0.9686 0.89463 0.25841 0.0
H898 H 0.97371 0.92733 0.3293 0.0
H899 H 0.99589 0.96436 0.35621 0.0
H900 H 0.03988 1.00465 0.22253 0.0
H901 H 0.02649 0.97679 0.14625 0.0
C902 C 1.00098 0.93502 0.16693 0.0
C903 C 0.98857 0.91344 0.1855 0.0
C904 C 1.00463 0.9536 0.20769 0.0
C905 C 0.9781 0.91124 0.24356 0.0
C906 C 0.98112 0.92985 0.28396 0.0
C907 C 1.00188 0.96742 0.3099 0.0
C908 C 0.01906 0.98627 0.29495 0.0
C909 C 0.99517 0.95066 0.2671 0.0
C910 C 0.02658 0.99031 0.23498 0.0
C911 C 0.01922 0.97416 0.19152 0.0
H912 H 0.41303 0.03026 0.77456 0.0
H913 H 0.40598 0.97977 0.92484 0.0
H914 H 0.4478 0.96234 0.90089 0.0
H915 H 0.48175 0.9558 0.82568 0.0
H916 H 0.48828 1.00445 0.67249 0.0
H917 H 0.45214 0.02883 0.7099 0.0
C918 C 0.42091 1.01575 0.80247 0.0
C919 C 0.40603 1.0056 0.84975 0.0
C920 C 0.445 1.00552 0.78799 0.0
C921 C 0.41665 0.98714 0.8865 0.0
C922 C 0.44067 0.9773 0.87326 0.0
C923 C 0.47601 0.97248 0.8023 0.0
C924 C 0.48756 0.9785 0.74688 0.0
C925 C 0.45444 0.98553 0.82248 0.0
C926 C 0.47982 0.9998 0.7159 0.0
C927 C 0.45882 1.01343 0.73669 0.0
H928 H 0.61446 0.53188 0.65321 0.0
H929 H 0.66704 0.51551 0.79337 0.0
H930 H 0.6328 0.49689 0.85457 0.0
H931 H 0.59053 0.47897 0.85966 0.0
H932 H 0.53948 0.49059 0.71335 0.0
H933 H 0.56921 0.51979 0.66721 0.0
C934 C 0.61806 0.52506 0.69812 0.0
C935 C 0.64307 0.5249 0.71907 0.0
C936 C 0.59856 0.51334 0.73178 0.0
C937 C 0.64783 0.51578 0.77679 0.0
C938 C 0.62834 0.50495 0.81139 0.0
C939 C 0.58604 0.48729 0.81677 0.0
C940 C 0.56328 0.48137 0.7887 0.0
C941 C 0.60408 0.50237 0.78772 0.0
C942 C 0.55706 0.49407 0.7356 0.0
C943 C 0.57429 0.51047 0.70838 0.0
H944 H 0.06963 0.55802 0.67876 0.0
H945 H 0.05287 0.59507 0.84261 0.0
H946 H 0.08748 0.57248 0.89141 0.0
H947 H 0.12662 0.54777 0.88133 0.0
H948 H 0.14298 0.50935 0.71933 0.0
H949 H 0.10438 0.52711 0.67497 0.0
C950 C 0.07327 0.56063 0.72556 0.0
C951 C 0.05916 0.57828 0.7572 0.0
C952 C 0.09334 0.54784 0.75279 0.0
C953 C 0.06363 0.58153 0.81777 0.0
C954 C 0.08353 0.56885 0.8453 0.0
C955 C 0.12134 0.54286 0.8368 0.0
C956 C 0.13753 0.52757 0.80312 0.0
C957 C 0.09916 0.55283 0.81236 0.0
C958 C 0.13069 0.52118 0.74569 0.0
C959 C 0.10874 0.53136 0.72047 0.0
H960 H 0.95178 0.0585 0.85791 0.0
H961 H 0.9833 0.0898 0.69397 0.0
H962 H 0.95372 0.06592 0.63667 0.0
H963 H 0.91378 0.04254 0.63593 0.0
H964 H 0.88236 1.01158 0.80033 0.0
H965 H 0.91737 0.02875 0.85543 0.0
C966 C 0.95271 0.05952 0.80958 0.0
C967 C 0.96938 0.07609 0.78009 0.0
C968 C 0.93542 0.04616 0.77744 0.0
C969 C 0.97053 0.07722 0.71748 0.0
C970 C 0.95348 0.06376 0.68489 0.0
C971 C 0.91509 0.03902 0.68361 0.0
C972 C 0.89552 0.02615 0.71452 0.0
C973 C 0.93505 0.04914 0.71471 0.0
C974 C 0.89726 0.02149 0.77601 0.0
C975 C 0.91714 0.03143 0.80737 0.0
H976 H 0.68998 0.02279 0.88043 0.0
H977 H 0.63915 0.98157 0.7746 0.0
H978 H 0.67074 0.98189 0.69223 0.0
H979 H 0.71364 0.99274 0.65107 0.0
H980 H 0.76487 0.03228 0.75882 0.0
H981 H 0.7324 0.03369 0.83966 0.0
C982 C 0.68582 1.01357 0.83972 0.0
C983 C 0.66211 1.00194 0.83443 0.0
C984 C 0.70425 1.01351 0.79277 0.0
C985 C 0.65701 0.9908 0.78025 0.0
C986 C 0.67519 0.99085 0.7331 0.0
C987 C 0.71765 1.00153 0.69249 0.0
C988 C 0.74175 1.01204 0.69962 0.0
C989 C 0.69896 1.00197 0.739 0.0
C990 C 0.74657 0.02387 0.75275 0.0
C991 C 0.72802 0.02464 0.79888 0.0
H992 H 0.5202 0.84834 0.78072 0.0
H993 H 0.5334 0.81178 0.61493 0.0
H994 H 0.53429 0.77217 0.66821 0.0
H995 H 0.53156 0.74775 0.76259 0.0
H996 H 0.51838 0.78407 0.92865 0.0
H997 H 0.51702 0.82374 0.87538 0.0
C998 C 0.52317 0.83163 0.75654 0.0
C999 C 0.52656 0.83286 0.69405 0.0
C1000 C 0.52367 0.80887 0.78766 0.0
C1001 C 0.53057 0.81117 0.66302 0.0
C1002 C 0.53112 0.78856 0.69348 0.0
C1003 C 0.52846 0.76442 0.78688 0.0
C1004 C 0.5253 0.76311 0.84941 0.0
C1005 C 0.52774 0.78714 0.75583 0.0
C1006 C 0.52098 0.78473 0.88051 0.0
C1007 C 0.52023 0.80738 0.85005 0.0
H1008 H 0.88262 0.55672 0.73051 0.0
H1009 H 0.84624 0.5185 0.87997 0.0
H1010 H 0.80772 0.51399 0.82361 0.0
H1011 H 0.78316 0.52205 0.73307 0.0
H1012 H 0.81921 0.55854 0.58133 0.0
H1013 H 0.85857 0.56262 0.63667 0.0
C1014 C 0.86636 0.5472 0.7504 0.0
C1015 C 0.86734 0.5384 0.81003 0.0
C1016 C 0.8439 0.54458 0.7174 0.0
C1017 C 0.84597 0.526 0.83478 0.0
C1018 C 0.82384 0.52332 0.80249 0.0
C1019 C 0.79966 0.53092 0.71231 0.0
C1020 C 0.79806 0.54047 0.65374 0.0
C1021 C 0.82237 0.53284 0.74413 0.0
C1022 C 0.81976 0.55153 0.62691 0.0
C1023 C 0.84234 0.55373 0.65845 0.0
H1024 H 0.03623 0.79145 0.82261 0.0
H1025 H 0.96021 0.78335 0.90003 0.0
H1026 H 0.95228 0.75115 0.83065 0.0
H1027 H 0.96713 0.72636 0.74554 0.0
H1028 H 0.0486 0.71688 0.71985 0.0
H1029 H 0.05507 0.75491 0.7717 0.0
C1030 C 0.01861 0.78166 0.82928 0.0
C1031 C 0.99895 0.79066 0.86789 0.0
C1032 C 0.01527 0.76014 0.79685 0.0
C1033 C 0.97558 0.77807 0.86961 0.0
C1034 C 0.97103 0.75925 0.83036 0.0
C1035 C 0.98661 0.7309 0.7546 0.0
C1036 C 1.00723 0.71792 0.72765 0.0
C1037 C 0.99079 0.75014 0.79362 0.0
C1038 C 0.03202 0.72654 0.7374 0.0
C1039 C 0.03585 0.74818 0.76812 0.0
H1040 H 0.15363 0.05196 0.76011 0.0
H1041 H 0.18911 1.00559 0.62845 0.0
H1042 H 0.22686 1.00096 0.68855 0.0
H1043 H 0.25123 1.0115 0.77645 0.0
H1044 H 0.21589 0.05626 0.91092 0.0
H1045 H 0.17711 0.06008 0.85257 0.0
C1046 C 0.16949 0.04062 0.74502 0.0
C1047 C 0.16855 0.02956 0.68903 0.0
C1048 C 0.19149 0.03794 0.78017 0.0
C1049 C 0.1894 1.01483 0.67054 0.0
C1050 C 0.21108 1.01208 0.70502 0.0
C1051 C 0.23499 0.02205 0.79285 0.0
C1052 C 0.23668 0.03405 0.84719 0.0
C1053 C 0.21259 0.02387 0.75938 0.0
C1054 C 0.21529 0.0473 0.86851 0.0
C1055 C 0.19304 0.04939 0.83526 0.0
H1056 H 0.53541 0.25956 0.7102 0.0
H1057 H 0.46038 0.27114 0.63864 0.0
H1058 H 0.45318 0.30461 0.70656 0.0
H1059 H 0.46863 0.32969 0.78842 0.0
H1060 H 0.55038 0.33494 0.80366 0.0
H1061 H 0.55554 0.29589 0.75448 0.0
C1062 C 0.51824 0.27031 0.70424 0.0
C1063 C 0.4986 0.26203 0.66786 0.0
C1064 C 0.5156 0.29249 0.73482 0.0
C1065 C 0.47569 0.27588 0.6674 0.0
C1066 C 0.47161 0.29544 0.70568 0.0
C1067 C 0.48794 0.32394 0.77759 0.0
C1068 C 0.50899 0.33594 0.80159 0.0
C1069 C 0.49153 0.30396 0.73965 0.0
C1070 C 0.53347 0.32598 0.78899 0.0
C1071 C 0.53656 0.30372 0.75981 0.0
H1072 H 0.382 0.47444 0.73303 0.0
H1073 H 0.3463 0.51391 0.58806 0.0
H1074 H 0.30844 0.52116 0.65053 0.0
H1075 H 0.28423 0.51516 0.74545 0.0
H1076 H 0.31944 0.47672 0.89191 0.0
H1077 H 0.35837 0.47033 0.83066 0.0
C1078 C 0.36602 0.48478 0.71539 0.0
C1079 C 0.36696 0.49314 0.65533 0.0
C1080 C 0.34397 0.48897 0.75189 0.0
C1081 C 0.34599 0.50667 0.63352 0.0
C1082 C 0.32426 0.51096 0.66934 0.0
C1083 C 0.30048 0.50542 0.76375 0.0
C1084 C 0.29884 0.49604 0.82259 0.0
C1085 C 0.32283 0.50193 0.7283 0.0
C1086 C 0.32015 0.48375 0.84627 0.0
C1087 C 0.34243 0.48016 0.8113 0.0
H1088 H 1.01199 0.30614 0.76004 0.0
H1089 H 1.0064 0.26977 0.59328 0.0
H1090 H 1.0038 0.23013 0.64648 0.0
H1091 H 1.00443 0.20551 0.7411 0.0
H1092 H 1.01026 0.24201 0.90772 0.0
H1093 H 1.01126 0.28167 0.85474 0.0
C1094 C 1.01012 0.28948 0.73563 0.0
C1095 C 1.0095 0.29076 0.67289 0.0
C1096 C 1.00858 0.26675 0.7667 0.0
C1097 C 1.00698 0.26913 0.64158 0.0
C1098 C 1.00549 0.2465 0.67202 0.0
C1099 C 1.00556 0.22222 0.76563 0.0
C1100 C 1.00681 0.22088 0.82833 0.0
C1101 C 1.0064 0.24502 0.73462 0.0
C1102 C 1.00877 0.24263 0.8596 0.0
C1103 C 1.00953 0.26529 0.82924 0.0
H1104 H 0.18056 0.03851 0.38688 0.0
H1105 H 0.1321 0.99683 0.27714 0.0
H1106 H 0.16534 0.99643 0.19778 0.0
H1107 H 0.20734 1.00958 0.15821 0.0
H1108 H 0.25544 0.0525 0.26679 0.0
H1109 H 0.22344 0.05052 0.34827 0.0
C1110 C 0.17747 0.02925 0.34559 0.0
C1111 C 0.15396 0.01787 0.33726 0.0
C1112 C 0.19656 0.02939 0.30007 0.0
C1113 C 0.15006 1.00575 0.2841 0.0
C1114 C 0.16901 1.00561 0.23883 0.0
C1115 C 0.21082 0.01865 0.19953 0.0
C1116 C 0.23378 0.03141 0.20587 0.0
C1117 C 0.19218 0.01769 0.24597 0.0
C1118 C 0.23811 0.04246 0.26052 0.0
C1119 C 0.21971 0.04146 0.30709 0.0
H1120 H 0.50147 0.27099 0.27621 0.0
H1121 H 0.44654 0.30677 0.39179 0.0
H1122 H 0.43903 0.33809 0.31376 0.0
H1123 H 0.44847 0.35554 0.21156 0.0
H1124 H 0.50298 0.31828 0.09737 0.0
H1125 H 0.51032 0.28764 0.1757 0.0
C1126 C 0.48798 0.28574 0.28462 0.0
C1127 C 0.47476 0.28657 0.34011 0.0
C1128 C 0.48362 0.3035 0.23947 0.0
C1129 C 0.45693 0.30558 0.34951 0.0
C1130 C 0.45271 0.32357 0.30491 0.0
C1131 C 0.46192 0.3407 0.20401 0.0
C1132 C 0.47492 0.33914 0.1482 0.0
C1133 C 0.46598 0.32277 0.24956 0.0
C1134 C 0.49233 0.31974 0.13928 0.0
C1135 C 0.49668 0.30223 0.18424 0.0
H1136 H 0.38631 0.53217 0.25396 0.0
H1137 H 0.35413 0.48501 0.39206 0.0
H1138 H 0.31501 0.4812 0.33558 0.0
H1139 H 0.29106 0.48897 0.24246 0.0
H1140 H 0.32406 0.53595 0.10446 0.0
H1141 H 0.36122 0.54235 0.16488 0.0
C1142 C 0.37055 0.52134 0.2718 0.0
C1143 C 0.37305 0.50882 0.32684 0.0
C1144 C 0.34818 0.51911 0.23878 0.0
C1145 C 0.35256 0.49478 0.34964 0.0
C1146 C 0.33023 0.49257 0.31728 0.0
C1147 C 0.30619 0.50093 0.22624 0.0
C1148 C 0.30479 0.5118 0.16869 0.0
C1149 C 0.32791 0.50433 0.2612 0.0
C1150 C 0.32472 0.52715 0.14826 0.0
C1151 C 0.34605 0.53082 0.18279 0.0
H1152 H 1.01052 0.23109 0.14923 0.0
H1153 H 0.07004 0.18575 0.22348 0.0
H1154 H 0.0709 0.21168 0.31098 0.0
H1155 H 0.05472 0.24789 0.36637 0.0
H1156 H 0.99458 0.2921 0.29037 0.0
H1157 H 0.9942 0.26621 0.20389 0.0
C1158 C 0.02389 0.22695 0.18425 0.0
C1159 C 0.04039 0.20658 0.17922 0.0
C1160 C 0.02415 0.24183 0.23443 0.0
C1161 C 0.05708 0.20123 0.22602 0.0
C1162 C 0.05764 0.21615 0.27602 0.0
C1163 C 0.04161 0.25185 0.33076 0.0
C1164 C 0.02457 0.27192 0.33535 0.0
C1165 C 0.0413 0.2366 0.28073 0.0
C1166 C 1.00763 0.27665 0.28874 0.0
C1167 C 1.00746 0.26189 0.23896 0.0
H1168 H 0.68204 0.99711 0.15243 0.0
H1169 H 0.63388 0.04345 0.26053 0.0
H1170 H 0.6666 0.04417 0.33657 0.0
H1171 H 0.70831 0.0306 0.37363 0.0
H1172 H 0.75643 0.98348 0.26667 0.0
H1173 H 0.72466 0.98439 0.1887 0.0
C1174 C 0.67883 1.00735 0.19273 0.0
C1175 C 0.65548 0.02 0.20141 0.0
C1176 C 0.69775 1.00756 0.23636 0.0
C1177 C 0.6516 0.03347 0.25324 0.0
C1178 C 0.67031 0.03384 0.29664 0.0
C1179 C 0.71188 0.02036 0.33348 0.0
C1180 C 0.73484 1.00678 0.3267 0.0
C1181 C 0.69335 0.02075 0.28901 0.0
C1182 C 0.73917 0.99422 0.27335 0.0
C1183 C 0.72087 0.99459 0.22878 0.0
H1184 H 0.5222 0.86019 0.28777 0.0
H1185 H 0.58779 0.82656 0.3692 0.0
H1186 H 0.5908 0.7968 0.29007 0.0
H1187 H 0.57269 0.77805 0.20222 0.0
H1188 H 0.50637 0.8109 0.12203 0.0
H1189 H 0.50582 0.84303 0.19551 0.0
C1190 C 0.53744 0.84664 0.28747 0.0
C1191 C 0.5547 0.84562 0.33458 0.0
C1192 C 0.53877 0.82917 0.24224 0.0
C1193 C 0.57414 0.82769 0.33383 0.0
C1194 C 0.57587 0.81061 0.28855 0.0
C1195 C 0.5584 0.79248 0.20011 0.0
C1196 C 0.53951 0.79186 0.15667 0.0
C1197 C 0.55797 0.81082 0.24317 0.0
C1198 C 0.52095 0.81064 0.15533 0.0
C1199 C 0.52065 0.82912 0.19734 0.0
H1200 H 0.7934 0.5492 0.24074 0.0
H1201 H 0.82276 0.49396 0.3616 0.0
H1202 H 0.86038 0.48837 0.2965 0.0
H1203 H 0.88676 0.50125 0.20854 0.0
H1204 H 0.85789 0.5564 0.08717 0.0
H1205 H 0.81859 0.56003 0.14841 0.0
C1206 C 0.80781 0.53562 0.25202 0.0
C1207 C 0.80528 0.52204 0.30601 0.0
C1208 C 0.82979 0.53278 0.21463 0.0
C1209 C 0.82429 0.50469 0.32038 0.0
C1210 C 0.84589 0.50155 0.28329 0.0
C1211 C 0.87176 0.51396 0.19561 0.0
C1212 C 0.87537 0.52889 0.14424 0.0
C1213 C 0.84917 0.51586 0.23098 0.0
C1214 C 0.85568 0.54505 0.12725 0.0
C1215 C 0.83318 0.54705 0.16213 0.0
H1216 H 0.94633 0.77899 0.24305 0.0
H1217 H 1.00517 0.73769 0.15143 0.0
H1218 H 1.00291 0.70582 0.22956 0.0
H1219 H 0.98683 0.69112 0.32822 0.0
H1220 H 0.92883 0.73279 0.42178 0.0
H1221 H 0.9281 0.76278 0.33912 0.0
C1222 C 0.9583 0.76279 0.23967 0.0
C1223 C 0.97597 0.76086 0.19135 0.0
C1224 C 0.95725 0.74461 0.28564 0.0
C1225 C 0.99156 0.73982 0.18824 0.0
C1226 C 0.99028 0.72154 0.233 0.0
C1227 C 0.97363 0.70648 0.33009 0.0
C1228 C 0.95795 0.7096 0.38157 0.0
C1229 C 0.97358 0.72394 0.28258 0.0
C1230 C 0.94132 0.72995 0.38323 0.0
C1231 C 0.94086 0.74714 0.33579 0.0
H1232 H 0.40715 0.03802 0.95252 0.0
H1233 H 0.40021 1.01026 0.13335 0.0
H1234 H 0.44685 1.00774 0.13892 0.0
H1235 H 0.48997 1.01292 0.09139 0.0
H1236 H 0.49625 0.03651 0.90676 0.0
H1237 H 0.44987 0.04108 0.90322 0.0
C1238 C 0.41581 0.0309 0.9926 0.0
C1239 C 0.40004 0.02344 0.04157 0.0
C1240 C 0.4427 0.02909 0.99493 0.0
C1241 C 0.41175 1.01531 0.09425 0.0
C1242 C 0.43848 1.01405 0.09755 0.0
C1243 C 0.48114 0.01925 0.05053 0.0
C1244 C 0.49682 0.02552 1.00023 0.0
C1245 C 0.4542 0.02077 0.04804 0.0
C1246 C 0.48496 0.03293 0.94713 0.0
C1247 C 0.45831 0.03513 0.9448 0.0
H1248 H 0.48041 0.50802 0.03246 0.0
H1249 H 0.54557 0.48608 0.92513 0.0
H1250 H 0.55722 0.52894 0.90783 0.0
H1251 H 0.54747 0.57326 0.91935 0.0
H1252 H 0.48021 0.59432 0.02187 0.0
H1253 H 0.47017 0.55166 0.04203 0.0
C1254 C 0.49675 0.5126 1.00384 0.0
C1255 C 0.51142 0.49374 0.97782 0.0
C1256 C 0.50281 0.53737 0.99255 0.0
C1257 C 0.53357 0.50015 0.94448 0.0
C1258 C 0.5402 0.52473 0.93451 0.0
C1259 C 0.53064 0.56855 0.94619 0.0
C1260 C 0.51452 0.58736 0.96829 0.0
C1261 C 0.52473 0.54362 0.95757 0.0
C1262 C 0.49272 0.58056 1.00277 0.0
C1263 C 0.48703 0.55602 0.01495 0.0
H1264 H 0.04301 0.53261 0.04349 0.0
H1265 H 0.04592 0.50396 0.86634 0.0
H1266 H 0.09171 0.49641 0.87387 0.0
H1267 H 0.13173 0.49916 0.92967 0.0
H1268 H 0.13004 0.53242 0.10129 0.0
H1269 H 0.08354 0.53726 0.09709 0.0
C1270 C 0.05366 0.52457 0.00664 0.0
C1271 C 0.04045 0.51757 0.95566 0.0
C1272 C 0.08052 0.52159 0.00992 0.0
C1273 C 0.05488 0.50792 0.90777 0.0
C1274 C 0.08135 0.50409 0.91158 0.0
C1275 C 0.12126 0.50781 0.96569 0.0
C1276 C 0.1347 0.51623 0.0147 0.0
C1277 C 0.09444 0.51093 0.96231 0.0
C1278 C 0.12051 0.52661 0.06198 0.0
C1279 C 0.0938 0.52919 0.05976 0.0
H1280 H 0.0429 0.04448 0.04771 0.0
H1281 H 0.98117 0.06445 0.9334 0.0
H1282 H 0.97365 0.02122 0.91454 0.0
H1283 H 0.98564 0.97757 0.92846 0.0
H1284 H 0.04848 0.95828 0.04165 0.0
H1285 H 0.0554 1.00116 0.05999 0.0
C1286 C 0.02822 0.03944 0.01747 0.0
C1287 C 1.01312 0.05783 0.99026 0.0
C1288 C 0.02442 1.01451 0.00592 0.0
C1289 C 0.99325 0.05071 0.95401 0.0
C1290 C 0.98903 0.02598 0.94316 0.0
C1291 C 1.00081 0.98261 0.95737 0.0
C1292 C 0.01659 0.96421 0.98301 0.0
C1293 C 1.00465 1.00764 0.96849 0.0
C1294 C 0.0363 0.97164 0.01977 0.0
C1295 C 0.04015 0.99633 0.03102 0.0
H1296 H 0.9827 1.00128 0.60596 0.0
H1297 H 1.00365 0.04039 0.44296 0.0
H1298 H 0.95955 0.03993 0.41173 0.0
H1299 H 0.91447 0.0284 0.43008 0.0
H1300 H 0.89429 0.98618 0.58836 0.0
H1301 H 0.93826 0.98702 0.62061 0.0
C1302 C 0.97798 1.00889 0.56263 0.0
C1303 C 0.99708 0.02024 0.52631 0.0
C1304 C 0.95229 1.00836 0.5443 0.0
C1305 C 0.98971 0.0312 0.47174 0.0
C1306 C 0.96431 0.03105 0.45378 0.0
C1307 C 0.91944 0.02011 0.47258 0.0
C1308 C 0.90033 1.00881 0.50895 0.0
C1309 C 0.94529 0.01989 0.48987 0.0
C1310 C 0.90802 0.99628 0.5612 0.0
C1311 C 0.93341 0.99643 0.57928 0.0
H1312 H 0.50176 1.00765 0.46637 0.0
H1313 H 0.54745 0.98984 0.61867 0.0
H1314 H 0.54711 0.03259 0.64563 0.0
H1315 H 0.53423 0.07586 0.6253 0.0
H1316 H 0.48177 0.09166 0.48464 0.0
H1317 H 0.48345 0.04908 0.45536 0.0
C1318 C 0.51032 1.01252 0.50753 0.0
C1319 C 0.52371 0.99476 0.54152 0.0
C1320 C 0.50914 0.03721 0.52458 0.0
C1321 C 0.53663 1.00271 0.59175 0.0
C1322 C 0.53652 0.02732 0.60731 0.0
C1323 C 0.52307 0.06988 0.58855 0.0
C1324 C 0.50843 0.08715 0.55618 0.0
C1325 C 0.52294 0.04486 0.57394 0.0
C1326 C 0.4936 0.07892 0.50957 0.0
C1327 C 0.49447 0.05448 0.49288 0.0
H1328 H 0.63049 0.50692 0.5495 0.0
H1329 H 0.63207 0.54132 0.37455 0.0
H1330 H 0.58547 0.53953 0.37172 0.0
H1331 H 0.54361 0.52786 0.41896 0.0
H1332 H 0.54237 0.49076 0.5906 0.0
H1333 H 0.5891 0.49275 0.59324 0.0
C1334 C 0.62061 0.51401 0.51075 0.0
C1335 C 0.63488 0.52517 0.46331 0.0
C1336 C 0.59364 0.51232 0.50874 0.0
C1337 C 0.62167 0.53365 0.41287 0.0
C1338 C 0.59493 0.53243 0.411 0.0
C1339 C 0.55357 0.52072 0.45754 0.0
C1340 C 0.53938 0.50968 0.50526 0.0
C1341 C 0.5806 0.52203 0.45894 0.0
C1342 C 0.5527 0.49984 0.55402 0.0
C1343 C 0.57945 0.50098 0.55553 0.0
H1344 H 0.02326 0.55343 0.62777 0.0
H1345 H 0.98194 0.55766 0.46452 0.0
H1346 H 0.98331 0.51308 0.45846 0.0
H1347 H 0.99446 0.47269 0.50208 0.0
H1348 H 0.03747 0.46806 0.6631 0.0
H1349 H 0.03731 0.51268 0.66766 0.0
C1350 C 0.01497 0.54452 0.59042 0.0
C1351 C 1.00264 0.55883 0.54634 0.0
C1352 C 0.01588 0.51873 0.58728 0.0
C1353 C 0.99172 0.54707 0.49855 0.0
C1354 C 0.99236 0.52156 0.49538 0.0
C1355 C 1.00384 0.48138 0.53819 0.0
C1356 C 0.0158 0.46678 0.58244 0.0
C1357 C 1.00405 0.50715 0.53992 0.0
C1358 C 0.02813 0.47863 0.62836 0.0
C1359 C 0.028 0.50423 0.63105 0.0
loop_
_geom_bond_atom_site_label_1
_geom_bond_atom_site_label_2
_geom_bond_distance
_geom_bond_site_symmetry_2
_ccdc_geom_bond_type
C0 C1 1.443 . S
C0 N4 1.376 . S
C0 C38 1.400 . S
C1 C0 1.443 . S
C1 C2 1.340 . S
C1 H41 0.951 1_554 S
C2 C1 1.340 . S
C2 C3 1.439 . S
C2 H42 0.950 . S
C3 C2 1.439 . S
C3 N4 1.374 . S
C3 C37 1.395 . S
N4 C0 1.376 . S
N4 C3 1.374 . S
N4 Co5 2.008 . S
Co5 N4 2.008 . S
Co5 N6 1.995 . S
Co5 N11 2.008 1_545 S
Co5 N16 1.995 1_545 S
Co5 N21 2.282 1_545 S
Co5 N27 2.282 . S
N6 Co5 1.995 . S
N6 C7 1.376 . S
N6 C10 1.383 . S
C7 N6 1.376 . S
C7 C8 1.446 . S
C7 C37 1.391 . S
C8 C7 1.446 . S
C8 C9 1.339 . S
C8 H43 0.949 . S
C9 C8 1.339 . S
C9 C10 1.439 . S
C9 H44 0.950 . S
C10 N6 1.383 . S
C10 C9 1.439 . S
C10 C39 1.390 1_545 S
N11 Co5 2.008 1_565 S
N11 C12 1.376 . S
N11 C15 1.374 . S
C12 N11 1.376 . S
C12 C13 1.443 . S
C12 C39 1.390 . S
C13 C12 1.443 . S
C13 C14 1.340 . S
C13 H45 0.951 . S
C14 C13 1.340 . S
C14 C15 1.439 . S
C14 H46 0.950 . S
C15 N11 1.374 . S
C15 C14 1.439 . S
C15 C40 1.395 . S
N16 Co5 1.995 1_565 S
N16 C17 1.376 . S
N16 C20 1.383 . S
C17 N16 1.376 . S
C17 C18 1.446 . S
C17 C40 1.391 . S
C18 C17 1.446 . S
C18 C19 1.339 . S
C18 H47 0.949 . S
C19 C18 1.339 . S
C19 C20 1.439 . S
C19 H48 0.950 . S
C20 N16 1.383 . S
C20 C19 1.439 . S
C20 C38 1.381 1_565 S
N21 Co5 2.282 1_565 S
N21 C24 1.332 . S
N21 C26 1.334 . S
C22 C23 1.386 . S
C22 C25 1.388 . S
C23 C22 1.386 . S
C23 C24 1.382 1_556 S
C23 H49 0.950 . S
C24 N21 1.332 . S
C24 C23 1.382 1_554 S
C24 H35 0.952 . S
C25 C22 1.388 . S
C25 C26 1.384 1_556 S
C25 H50 0.950 1_565 S
C26 N21 1.334 . S
C26 C25 1.384 1_554 S
C26 H36 0.945 1_565 S
N27 Co5 2.282 . S
N27 C31 1.332 . S
N27 C32 1.340 . S
C28 C29 1.388 . S
C28 C32 1.388 . S
C28 H51 0.950 1_545 S
C29 C28 1.388 . S
C29 C30 1.386 . S
C30 C29 1.386 . S
C30 C31 1.382 . S
C30 H52 0.950 . S
C31 N27 1.332 . S
C31 C30 1.382 . S
C31 H33 0.952 . S
C32 N27 1.340 . S
C32 C28 1.388 . S
C32 H34 0.934 1_545 S
H33 C31 0.952 . S
H34 C32 0.934 1_565 S
H35 C24 0.952 . S
H36 C26 0.945 1_545 S
C37 C3 1.395 . S
C37 C7 1.391 . S
C38 C0 1.400 . S
C38 C20 1.381 1_545 S
C39 C10 1.390 1_565 S
C39 C12 1.390 . S
C40 C15 1.395 . S
C40 C17 1.391 . S
H41 C1 0.951 1_556 S
H42 C2 0.950 . S
H43 C8 0.949 . S
H44 C9 0.950 . S
H45 C13 0.951 . S
H46 C14 0.950 . S
H47 C18 0.949 . S
H48 C19 0.950 . S
H49 C23 0.950 . S
H50 C25 0.950 1_545 S
H51 C28 0.950 1_565 S
H52 C30 0.950 . S
C53 C54 1.443 . S
C53 N57 1.376 . S
C53 C91 1.389 . S
C54 C53 1.443 . S
C54 C55 1.340 . S
C54 H94 0.951 . S
C55 C54 1.340 . S
C55 C56 1.439 . S
C55 H95 0.950 . S
C56 C55 1.439 . S
C56 N57 1.374 . S
C56 C90 1.395 . S
N57 C53 1.376 . S
N57 C56 1.374 . S
N57 Co58 2.008 . S
Co58 N57 2.008 . S
Co58 N59 1.995 . S
Co58 N64 2.008 . S
Co58 N69 1.995 . S
Co58 N74 2.282 . S
Co58 N80 2.282 1_554 S
N59 Co58 1.995 . S
N59 C60 1.376 . S
N59 C63 1.383 1_554 S
C60 N59 1.376 . S
C60 C61 1.446 1_554 S
C60 C90 1.391 . S
C61 C60 1.446 1_556 S
C61 C62 1.339 . S
C61 H96 0.949 . S
C62 C61 1.339 . S
C62 C63 1.439 . S
C62 H97 0.950 . S
C63 N59 1.383 1_556 S
C63 C62 1.439 . S
C63 C92 1.392 . S
N64 Co58 2.008 . S
N64 C65 1.376 1_554 S
N64 C68 1.374 . S
C65 N64 1.376 1_556 S
C65 C66 1.443 . S
C65 C92 1.389 . S
C66 C65 1.443 . S
C66 C67 1.340 . S
C66 H98 0.951 . S
C67 C66 1.340 . S
C67 C68 1.439 1_556 S
C67 H99 0.950 . S
C68 N64 1.374 . S
C68 C67 1.439 1_554 S
C68 C93 1.395 . S
N69 Co58 1.995 . S
N69 C70 1.376 . S
N69 C73 1.383 . S
C70 N69 1.376 . S
C70 C71 1.446 . S
C70 C93 1.391 . S
C71 C70 1.446 . S
C71 C72 1.339 . S
C71 H100 0.949 . S
C72 C71 1.339 . S
C72 C73 1.439 . S
C72 H101 0.950 . S
C73 N69 1.383 . S
C73 C72 1.439 . S
C73 C91 1.392 . S
N74 Co58 2.282 . S
N74 C77 1.332 . S
N74 C79 1.332 . S
C75 C76 1.386 . S
C75 C78 1.388 . S
C76 C75 1.386 . S
C76 C77 1.382 . S
C76 H102 0.950 . S
C77 N74 1.332 . S
C77 C76 1.382 . S
C77 H88 0.952 . S
C78 C75 1.388 . S
C78 C79 1.382 . S
C78 H103 0.950 . S
C79 N74 1.332 . S
C79 C78 1.382 . S
C79 H89 0.948 . S
N80 Co58 2.282 1_556 S
N80 C84 1.332 . S
N80 C85 1.332 . S
C81 C82 1.388 . S
C81 C85 1.382 . S
C81 H104 0.950 . S
C82 C81 1.388 . S
C82 C83 1.386 . S
C83 C82 1.386 . S
C83 C84 1.382 . S
C83 H105 0.950 . S
C84 N80 1.332 . S
C84 C83 1.382 . S
C84 H86 0.952 . S
C85 N80 1.332 . S
C85 C81 1.382 . S
C85 H87 0.943 1_556 S
H86 C84 0.952 . S
H87 C85 0.943 1_554 S
H88 C77 0.952 . S
H89 C79 0.948 . S
C90 C56 1.395 . S
C90 C60 1.391 . S
C91 C53 1.389 . S
C91 C73 1.392 . S
C92 C63 1.392 . S
C92 C65 1.389 . S
C93 C68 1.395 . S
C93 C70 1.391 . S
H94 C54 0.951 . S
H95 C55 0.950 . S
H96 C61 0.949 . S
H97 C62 0.950 . S
H98 C66 0.951 . S
H99 C67 0.950 . S
H100 C71 0.949 . S
H101 C72 0.950 . S
H102 C76 0.950 . S
H103 C78 0.950 . S
H104 C81 0.950 . S
H105 C83 0.950 . S
C106 C107 1.443 1_554 S
C106 N110 1.376 . S
C106 C144 1.389 . S
C107 C106 1.443 1_556 S
C107 C108 1.340 1_556 S
C107 H147 0.951 . S
C108 C107 1.340 1_554 S
C108 C109 1.439 . S
C108 H148 0.950 1_554 S
C109 C108 1.439 . S
C109 N110 1.374 . S
C109 C143 1.395 . S
N110 C106 1.376 . S
N110 C109 1.374 . S
N110 Co111 2.008 . S
Co111 N110 2.008 . S
Co111 N112 1.995 . S
Co111 N117 2.008 . S
Co111 N122 1.995 . S
Co111 N127 2.282 1_554 S
Co111 N133 2.282 . S
N112 Co111 1.995 . S
N112 C113 1.376 . S
N112 C116 1.383 . S
C113 N112 1.376 . S
C113 C114 1.446 . S
C113 C143 1.391 . S
C114 C113 1.446 . S
C114 C115 1.339 . S
C114 H149 0.949 . S
C115 C114 1.339 . S
C115 C116 1.439 . S
C115 H150 0.950 . S
C116 N112 1.383 . S
C116 C115 1.439 . S
C116 C145 1.392 . S
N117 Co111 2.008 . S
N117 C118 1.376 . S
N117 C121 1.374 . S
C118 N117 1.376 . S
C118 C119 1.443 . S
C118 C145 1.389 . S
C119 C118 1.443 . S
C119 C120 1.340 . S
C119 H151 0.951 . S
C120 C119 1.340 . S
C120 C121 1.439 . S
C120 H152 0.950 . S
C121 N117 1.374 . S
C121 C120 1.439 . S
C121 C146 1.395 . S
N122 Co111 1.995 . S
N122 C123 1.376 . S
N122 C126 1.383 . S
C123 N122 1.376 . S
C123 C124 1.446 1_655 S
C123 C146 1.391 . S
C124 C123 1.446 1_455 S
C124 C125 1.339 . S
C124 H153 0.949 . S
C125 C124 1.339 . S
C125 C126 1.439 1_455 S
C125 H154 0.950 . S
C126 N122 1.383 . S
C126 C125 1.439 1_655 S
C126 C144 1.392 . S
N127 Co111 2.282 1_556 S
N127 C130 1.332 . S
N127 C132 1.332 . S
C128 C129 1.386 . S
C128 C131 1.388 . S
C129 C128 1.386 . S
C129 C130 1.382 . S
C129 H155 0.950 . S
C130 N127 1.332 . S
C130 C129 1.382 . S
C130 H141 0.952 . S
C131 C128 1.388 . S
C131 C132 1.382 . S
C131 H156 0.950 . S
C132 N127 1.332 . S
C132 C131 1.382 . S
C132 H142 0.948 . S
N133 Co111 2.282 . S
N133 C137 1.332 . S
N133 C138 1.332 . S
C134 C135 1.388 . S
C134 C138 1.382 . S
C134 H157 0.950 1_655 S
C135 C134 1.388 . S
C135 C136 1.386 . S
C136 C135 1.386 . S
C136 C137 1.382 . S
C136 H158 0.950 . S
C137 N133 1.332 . S
C137 C136 1.382 . S
C137 H139 0.952 . S
C138 N133 1.332 . S
C138 C134 1.382 . S
C138 H140 0.948 . S
H139 C137 0.952 . S
H140 C138 0.948 . S
H141 C130 0.952 . S
H142 C132 0.948 . S
C143 C109 1.395 . S
C143 C113 1.391 . S
C144 C106 1.389 . S
C144 C126 1.392 . S
C145 C116 1.392 . S
C145 C118 1.389 . S
C146 C121 1.395 . S
C146 C123 1.391 . S
H147 C107 0.951 . S
H148 C108 0.950 1_556 S
H149 C114 0.949 . S
H150 C115 0.950 . S
H151 C119 0.951 . S
H152 C120 0.950 . S
H153 C124 0.949 . S
H154 C125 0.950 . S
H155 C129 0.950 . S
H156 C131 0.950 . S
H157 C134 0.950 1_455 S
H158 C136 0.950 . S
C159 C160 1.443 . S
C159 N163 1.376 . S
C159 C197 1.389 1_655 S
C160 C159 1.443 . S
C160 C161 1.340 . S
C160 H200 0.951 . S
C161 C160 1.340 . S
C161 C162 1.439 . S
C161 H201 0.950 . S
C162 C161 1.439 . S
C162 N163 1.374 . S
C162 C196 1.395 . S
N163 C159 1.376 . S
N163 C162 1.374 . S
N163 Co164 2.008 1_655 S
Co164 N163 2.008 1_455 S
Co164 N165 1.995 1_455 S
Co164 N170 2.008 1_554 S
Co164 N175 1.995 . S
Co164 N180 2.282 1_455 S
Co164 N186 2.282 1_554 S
N165 Co164 1.995 1_655 S
N165 C166 1.376 . S
N165 C169 1.383 1_554 S
C166 N165 1.376 . S
C166 C167 1.446 1_554 S
C166 C196 1.391 . S
C167 C166 1.446 1_556 S
C167 C168 1.339 . S
C167 H202 0.949 . S
C168 C167 1.339 . S
C168 C169 1.439 . S
C168 H203 0.950 . S
C169 N165 1.383 1_556 S
C169 C168 1.439 . S
C169 C198 1.392 . S
N170 Co164 2.008 1_556 S
N170 C171 1.376 . S
N170 C174 1.374 . S
C171 N170 1.376 . S
C171 C172 1.443 . S
C171 C198 1.389 1_455 S
C172 C171 1.443 . S
C172 C173 1.340 . S
C172 H204 0.951 . S
C173 C172 1.340 . S
C173 C174 1.439 . S
C173 H205 0.950 . S
C174 N170 1.374 . S
C174 C173 1.439 . S
C174 C199 1.395 1_556 S
N175 Co164 1.995 . S
N175 C176 1.376 . S
N175 C179 1.383 . S
C176 N175 1.376 . S
C176 C177 1.446 . S
C176 C199 1.391 . S
C177 C176 1.446 . S
C177 C178 1.339 . S
C177 H206 0.949 . S
C178 C177 1.339 . S
C178 C179 1.439 . S
C178 H207 0.950 . S
C179 N175 1.383 . S
C179 C178 1.439 . S
C179 C197 1.392 . S
N180 Co164 2.282 1_655 S
N180 C183 1.332 1_655 S
N180 C185 1.332 . S
C181 C182 1.386 . S
C181 C184 1.387 1_455 S
C182 C181 1.386 . S
C182 C183 1.382 . S
C182 H208 0.950 . S
C183 N180 1.332 1_455 S
C183 C182 1.382 . S
C183 H194 0.952 . S
C184 C181 1.387 1_655 S
C184 C185 1.382 . S
C184 H209 0.950 . S
C185 N180 1.332 . S
C185 C184 1.382 . S
C185 H195 0.948 . S
N186 Co164 2.282 1_556 S
N186 C190 1.332 1_455 S
N186 C191 1.332 . S
C187 C188 1.387 . S
C187 C191 1.382 . S
C187 H210 0.950 . S
C188 C187 1.387 . S
C188 C189 1.386 1_455 S
C189 C188 1.386 1_655 S
C189 C190 1.382 . S
C189 H211 0.950 . S
C190 N186 1.332 1_655 S
C190 C189 1.382 . S
C190 H192 0.952 . S
C191 N186 1.332 . S
C191 C187 1.382 . S
C191 H193 0.948 . S
H192 C190 0.952 . S
H193 C191 0.948 . S
H194 C183 0.952 . S
H195 C185 0.948 . S
C196 C162 1.395 . S
C196 C166 1.391 . S
C197 C159 1.389 1_455 S
C197 C179 1.392 . S
C198 C169 1.392 . S
C198 C171 1.389 1_655 S
C199 C174 1.395 1_554 S
C199 C176 1.391 . S
H200 C160 0.951 . S
H201 C161 0.950 . S
H202 C167 0.949 . S
H203 C168 0.950 . S
H204 C172 0.951 . S
H205 C173 0.950 . S
H206 C177 0.949 . S
H207 C178 0.950 . S
H208 C182 0.950 . S
H209 C184 0.950 . S
H210 C187 0.950 . S
H211 C189 0.950 . S
C212 C213 1.443 . S
C212 N216 1.376 . S
C212 C250 1.389 . S
C213 C212 1.443 . S
C213 C214 1.340 . S
C213 H253 0.951 1_455 S
C214 C213 1.340 . S
C214 C215 1.439 . S
C214 H254 0.950 . S
C215 C214 1.439 . S
C215 N216 1.374 . S
C215 C249 1.395 . S
N216 C212 1.376 . S
N216 C215 1.374 . S
N216 Co217 2.008 . S
Co217 N216 2.008 . S
Co217 N218 1.995 . S
Co217 N223 2.008 1_565 S
Co217 N228 1.995 1_565 S
Co217 N233 2.282 1_565 S
Co217 N239 2.282 . S
N218 Co217 1.995 . S
N218 C219 1.376 . S
N218 C222 1.383 . S
C219 N218 1.376 . S
C219 C220 1.446 . S
C219 C249 1.391 . S
C220 C219 1.446 . S
C220 C221 1.339 . S
C220 H255 0.949 . S
C221 C220 1.339 . S
C221 C222 1.439 . S
C221 H256 0.950 . S
C222 N218 1.383 . S
C222 C221 1.439 . S
C222 C251 1.392 1_565 S
N223 Co217 2.008 1_545 S
N223 C224 1.376 . S
N223 C227 1.374 . S
C224 N223 1.376 . S
C224 C225 1.443 . S
C224 C251 1.389 . S
C225 C224 1.443 . S
C225 C226 1.340 . S
C225 H257 0.951 . S
C226 C225 1.340 . S
C226 C227 1.439 . S
C226 H258 0.950 . S
C227 N223 1.374 . S
C227 C226 1.439 . S
C227 C252 1.395 . S
N228 Co217 1.995 1_545 S
N228 C229 1.376 . S
N228 C232 1.383 . S
C229 N228 1.376 . S
C229 C230 1.446 . S
C229 C252 1.391 . S
C230 C229 1.446 . S
C230 C231 1.336 1_455 S
C230 H259 0.949 . S
C231 C230 1.336 1_655 S
C231 C232 1.436 1_655 S
C231 H260 0.954 . S
C232 N228 1.383 . S
C232 C231 1.436 1_455 S
C232 C250 1.392 1_545 S
N233 Co217 2.282 1_545 S
N233 C236 1.332 . S
N233 C238 1.314 1_545 S
C234 C235 1.386 . S
C234 C237 1.388 . S
C235 C234 1.386 . S
C235 C236 1.382 . S
C235 H261 0.950 . S
C236 N233 1.332 . S
C236 C235 1.382 . S
C236 H247 0.952 . S
C237 C234 1.388 . S
C237 C238 1.370 1_545 S
C237 H262 0.950 1_545 S
C238 N233 1.314 1_565 S
C238 C237 1.370 1_565 S
C238 H248 0.981 . S
N239 Co217 2.282 . S
N239 C243 1.332 . S
N239 C244 1.320 1_565 S
C240 C241 1.388 . S
C240 C244 1.374 1_565 S
C240 H263 0.951 1_465 S
C241 C240 1.388 . S
C241 C242 1.386 . S
C242 C241 1.386 . S
C242 C243 1.382 . S
C242 H264 0.950 . S
C243 N239 1.332 . S
C243 C242 1.382 . S
C243 H245 0.952 . S
C244 N239 1.320 1_545 S
C244 C240 1.374 1_545 S
C244 H246 0.970 . S
H245 C243 0.952 . S
H246 C244 0.970 . S
H247 C236 0.952 . S
H248 C238 0.981 . S
C249 C215 1.395 . S
C249 C219 1.391 . S
C250 C212 1.389 . S
C250 C232 1.392 1_565 S
C251 C222 1.392 1_545 S
C251 C224 1.389 . S
C252 C227 1.395 . S
C252 C229 1.391 . S
H253 C213 0.951 1_655 S
H254 C214 0.950 . S
H255 C220 0.949 . S
H256 C221 0.950 . S
H257 C225 0.951 . S
H258 C226 0.950 . S
H259 C230 0.949 . S
H260 C231 0.954 . S
H261 C235 0.950 . S
H262 C237 0.950 1_565 S
H263 C240 0.951 1_645 S
H264 C242 0.950 . S
C265 C266 1.443 . S
C265 N269 1.376 . S
C265 C303 1.389 . S
C266 C265 1.443 . S
C266 C267 1.340 . S
C266 H306 0.951 . S
C267 C266 1.340 . S
C267 C268 1.439 . S
C267 H307 0.950 . S
C268 C267 1.439 . S
C268 N269 1.374 . S
C268 C302 1.395 . S
N269 C265 1.376 . S
N269 C268 1.374 . S
N269 Co270 2.008 . S
Co270 N269 2.008 . S
Co270 N271 1.995 . S
Co270 N276 2.008 . S
Co270 N281 1.995 . S
Co270 N286 2.282 . S
Co270 N292 2.282 . S
N271 Co270 1.995 . S
N271 C272 1.376 . S
N271 C275 1.383 . S
C272 N271 1.376 . S
C272 C273 1.446 . S
C272 C302 1.391 . S
C273 C272 1.446 . S
C273 C274 1.339 . S
C273 H308 0.949 . S
C274 C273 1.339 . S
C274 C275 1.439 . S
C274 H309 0.950 . S
C275 N271 1.383 . S
C275 C274 1.439 . S
C275 C304 1.392 . S
N276 Co270 2.008 . S
N276 C277 1.376 . S
N276 C280 1.374 . S
C277 N276 1.376 . S
C277 C278 1.443 . S
C277 C304 1.389 . S
C278 C277 1.443 . S
C278 C279 1.340 . S
C278 H310 0.951 . S
C279 C278 1.340 . S
C279 C280 1.439 . S
C279 H311 0.950 . S
C280 N276 1.374 . S
C280 C279 1.439 . S
C280 C305 1.395 . S
N281 Co270 1.995 . S
N281 C282 1.376 . S
N281 C285 1.383 . S
C282 N281 1.376 . S
C282 C283 1.446 . S
C282 C305 1.391 . S
C283 C282 1.446 . S
C283 C284 1.339 . S
C283 H312 0.949 . S
C284 C283 1.339 . S
C284 C285 1.439 . S
C284 H313 0.950 . S
C285 N281 1.383 . S
C285 C284 1.439 . S
C285 C303 1.392 . S
N286 Co270 2.282 . S
N286 C289 1.332 . S
N286 C291 1.332 . S
C287 C288 1.386 . S
C287 C290 1.388 . S
C288 C287 1.386 . S
C288 C289 1.382 . S
C288 H314 0.950 . S
C289 N286 1.332 . S
C289 C288 1.382 . S
C289 H300 0.952 . S
C290 C287 1.388 . S
C290 C291 1.382 . S
C290 H315 0.950 . S
C291 N286 1.332 . S
C291 C290 1.382 . S
C291 H301 0.948 . S
N292 Co270 2.282 . S
N292 C296 1.332 . S
N292 C297 1.332 . S
C293 C294 1.388 . S
C293 C297 1.382 . S
C293 H316 0.950 . S
C294 C293 1.388 . S
C294 C295 1.386 . S
C295 C294 1.386 . S
C295 C296 1.382 . S
C295 H317 0.950 . S
C296 N292 1.332 . S
C296 C295 1.382 . S
C296 H298 0.952 . S
C297 N292 1.332 . S
C297 C293 1.382 . S
C297 H299 0.948 . S
H298 C296 0.952 . S
H299 C297 0.948 . S
H300 C289 0.952 . S
H301 C291 0.948 . S
C302 C268 1.395 . S
C302 C272 1.391 . S
C303 C265 1.389 . S
C303 C285 1.392 . S
C304 C275 1.392 . S
C304 C277 1.389 . S
C305 C280 1.395 . S
C305 C282 1.391 . S
H306 C266 0.951 . S
H307 C267 0.950 . S
H308 C273 0.949 . S
H309 C274 0.950 . S
H310 C278 0.951 . S
H311 C279 0.950 . S
H312 C283 0.949 . S
H313 C284 0.950 . S
H314 C288 0.950 . S
H315 C290 0.950 . S
H316 C293 0.950 . S
H317 C295 0.950 . S
C318 C319 1.443 . S
C318 N322 1.376 . S
C318 C356 1.389 . S
C319 C318 1.443 . S
C319 C320 1.340 . S
C319 H359 0.951 . S
C320 C319 1.340 . S
C320 C321 1.439 . S
C320 H360 0.950 . S
C321 C320 1.439 . S
C321 N322 1.374 . S
C321 C355 1.395 . S
N322 C318 1.376 . S
N322 C321 1.374 . S
N322 Co323 2.008 . S
Co323 N322 2.008 . S
Co323 N324 1.995 . S
Co323 N329 2.008 . S
Co323 N334 1.995 . S
Co323 N339 2.282 . S
Co323 N345 2.282 . S
N324 Co323 1.995 . S
N324 C325 1.376 . S
N324 C328 1.383 . S
C325 N324 1.376 . S
C325 C326 1.446 . S
C325 C355 1.391 . S
C326 C325 1.446 . S
C326 C327 1.339 . S
C326 H361 0.949 . S
C327 C326 1.339 . S
C327 C328 1.439 . S
C327 H362 0.950 . S
C328 N324 1.383 . S
C328 C327 1.439 . S
C328 C357 1.392 . S
N329 Co323 2.008 . S
N329 C330 1.376 . S
N329 C333 1.374 . S
C330 N329 1.376 . S
C330 C331 1.443 . S
C330 C357 1.389 . S
C331 C330 1.443 . S
C331 C332 1.340 . S
C331 H363 0.951 . S
C332 C331 1.340 . S
C332 C333 1.439 . S
C332 H364 0.950 . S
C333 N329 1.374 . S
C333 C332 1.439 . S
C333 C358 1.395 . S
N334 Co323 1.995 . S
N334 C335 1.376 . S
N334 C338 1.383 . S
C335 N334 1.376 . S
C335 C336 1.446 . S
C335 C358 1.391 . S
C336 C335 1.446 . S
C336 C337 1.339 . S
C336 H365 0.949 . S
C337 C336 1.339 . S
C337 C338 1.439 . S
C337 H366 0.950 . S
C338 N334 1.383 . S
C338 C337 1.439 . S
C338 C356 1.392 . S
N339 Co323 2.282 . S
N339 C342 1.332 . S
N339 C344 1.332 . S
C340 C341 1.386 . S
C340 C343 1.388 . S
C341 C340 1.386 . S
C341 C342 1.382 . S
C341 H367 0.950 . S
C342 N339 1.332 . S
C342 C341 1.382 . S
C342 H353 0.952 . S
C343 C340 1.388 . S
C343 C344 1.382 . S
C343 H368 0.950 . S
C344 N339 1.332 . S
C344 C343 1.382 . S
C344 H354 0.948 . S
N345 Co323 2.282 . S
N345 C349 1.332 . S
N345 C350 1.332 . S
C346 C347 1.388 . S
C346 C350 1.382 . S
C346 H369 0.950 . S
C347 C346 1.388 . S
C347 C348 1.386 . S
C348 C347 1.386 . S
C348 C349 1.382 . S
C348 H370 0.950 . S
C349 N345 1.332 . S
C349 C348 1.382 . S
C349 H351 0.952 . S
C350 N345 1.332 . S
C350 C346 1.382 . S
C350 H352 0.948 . S
H351 C349 0.952 . S
H352 C350 0.948 . S
H353 C342 0.952 . S
H354 C344 0.948 . S
C355 C321 1.395 . S
C355 C325 1.391 . S
C356 C318 1.389 . S
C356 C338 1.392 . S
C357 C328 1.392 . S
C357 C330 1.389 . S
C358 C333 1.395 . S
C358 C335 1.391 . S
H359 C319 0.951 . S
H360 C320 0.950 . S
H361 C326 0.949 . S
H362 C327 0.950 . S
H363 C331 0.951 . S
H364 C332 0.950 . S
H365 C336 0.949 . S
H366 C337 0.950 . S
H367 C341 0.950 . S
H368 C343 0.950 . S
H369 C346 0.950 . S
H370 C348 0.950 . S
C371 C372 1.443 . S
C371 N375 1.376 . S
C371 C409 1.389 1_455 S
C372 C371 1.443 . S
C372 C373 1.340 . S
C372 H412 0.951 . S
C373 C372 1.340 . S
C373 C374 1.439 . S
C373 H413 0.950 . S
C374 C373 1.439 . S
C374 N375 1.374 . S
C374 C408 1.395 . S
N375 C371 1.376 . S
N375 C374 1.374 . S
N375 Co376 2.008 1_455 S
Co376 N375 2.008 1_655 S
Co376 N377 1.995 1_655 S
Co376 N382 2.008 . S
Co376 N387 1.995 . S
Co376 N392 2.283 1_655 S
Co376 N398 2.282 . S
N377 Co376 1.995 1_455 S
N377 C378 1.376 . S
N377 C381 1.383 . S
C378 N377 1.376 . S
C378 C379 1.446 . S
C378 C408 1.391 . S
C379 C378 1.446 . S
C379 C380 1.339 . S
C379 H414 0.949 . S
C380 C379 1.339 . S
C380 C381 1.439 . S
C380 H415 0.950 . S
C381 N377 1.383 . S
C381 C380 1.439 . S
C381 C410 1.392 . S
N382 Co376 2.008 . S
N382 C383 1.376 . S
N382 C386 1.374 . S
C383 N382 1.376 . S
C383 C384 1.443 . S
C383 C410 1.389 1_655 S
C384 C383 1.443 . S
C384 C385 1.340 . S
C384 H416 0.951 . S
C385 C384 1.340 . S
C385 C386 1.439 . S
C385 H417 0.950 . S
C386 N382 1.374 . S
C386 C385 1.439 . S
C386 C411 1.395 . S
N387 Co376 1.995 . S
N387 C388 1.376 . S
N387 C391 1.383 . S
C388 N387 1.376 . S
C388 C389 1.446 . S
C388 C411 1.391 . S
C389 C388 1.446 . S
C389 C390 1.339 . S
C389 H418 0.949 . S
C390 C389 1.339 . S
C390 C391 1.439 . S
C390 H419 0.950 . S
C391 N387 1.383 . S
C391 C390 1.439 . S
C391 C409 1.392 . S
N392 Co376 2.283 1_455 S
N392 C395 1.293 1_455 S
N392 C397 1.369 . S
C393 C394 1.403 . S
C393 C396 1.370 1_655 S
C394 C393 1.403 . S
C394 C395 1.382 . S
C394 H420 0.950 . S
C395 N392 1.293 1_655 S
C395 C394 1.382 . S
C395 H406 0.952 . S
C396 C393 1.370 1_455 S
C396 C397 1.382 . S
C396 H421 0.950 . S
C397 N392 1.369 . S
C397 C396 1.382 . S
C397 H407 0.948 . S
N398 Co376 2.282 . S
N398 C402 1.332 1_655 S
N398 C403 1.332 . S
C399 C400 1.379 1_655 S
C399 C403 1.382 . S
C399 H422 0.950 . S
C400 C399 1.379 1_455 S
C400 C401 1.394 . S
C401 C400 1.394 . S
C401 C402 1.382 . S
C401 H423 0.950 . S
C402 N398 1.332 1_455 S
C402 C401 1.382 . S
C402 H404 0.952 . S
C403 N398 1.332 . S
C403 C399 1.382 . S
C403 H405 0.948 . S
H404 C402 0.952 . S
H405 C403 0.948 . S
H406 C395 0.952 . S
H407 C397 0.948 . S
C408 C374 1.395 . S
C408 C378 1.391 . S
C409 C371 1.389 1_655 S
C409 C391 1.392 . S
C410 C381 1.392 . S
C410 C383 1.389 1_455 S
C411 C386 1.395 . S
C411 C388 1.391 . S
H412 C372 0.951 . S
H413 C373 0.950 . S
H414 C379 0.949 . S
H415 C380 0.950 . S
H416 C384 0.951 . S
H417 C385 0.950 . S
H418 C389 0.949 . S
H419 C390 0.950 . S
H420 C394 0.950 . S
H421 C396 0.950 . S
H422 C399 0.950 . S
H423 C401 0.950 . S
C424 C425 1.443 . S
C424 N428 1.376 . S
C424 C462 1.389 . S
C425 C424 1.443 . S
C425 C426 1.340 . S
C425 H465 0.951 . S
C426 C425 1.340 . S
C426 C427 1.439 1_554 S
C426 H466 0.950 1_554 S
C427 C426 1.439 1_556 S
C427 N428 1.374 1_556 S
C427 C461 1.395 . S
N428 C424 1.376 . S
N428 C427 1.374 1_554 S
N428 Co429 2.008 1_544 S
Co429 N428 2.008 1_566 S
Co429 N430 1.995 1_565 S
Co429 N435 2.008 . S
Co429 N440 1.995 1_556 S
Co429 N445 2.282 1_566 S
Co429 N451 2.282 . S
N430 Co429 1.995 1_545 S
N430 C431 1.376 . S
N430 C434 1.383 . S
C431 N430 1.376 . S
C431 C432 1.446 . S
C431 C461 1.391 . S
C432 C431 1.446 . S
C432 C433 1.339 . S
C432 H467 0.949 . S
C433 C432 1.339 . S
C433 C434 1.439 . S
C433 H468 0.950 . S
C434 N430 1.383 . S
C434 C433 1.439 . S
C434 C463 1.392 1_545 S
N435 Co429 2.008 . S
N435 C436 1.376 . S
N435 C439 1.374 . S
C436 N435 1.376 . S
C436 C437 1.443 . S
C436 C463 1.389 . S
C437 C436 1.443 . S
C437 C438 1.340 . S
C437 H469 0.951 . S
C438 C437 1.340 . S
C438 C439 1.439 . S
C438 H470 0.950 . S
C439 N435 1.374 . S
C439 C438 1.439 . S
C439 C464 1.395 1_556 S
N440 Co429 1.995 1_554 S
N440 C441 1.376 . S
N440 C444 1.383 . S
C441 N440 1.376 . S
C441 C442 1.446 . S
C441 C464 1.391 . S
C442 C441 1.446 . S
C442 C443 1.339 . S
C442 H471 0.949 . S
C443 C442 1.339 . S
C443 C444 1.439 . S
C443 H472 0.950 . S
C444 N440 1.383 . S
C444 C443 1.439 . S
C444 C462 1.392 1_565 S
N445 Co429 2.282 1_544 S
N445 C448 1.332 1_545 S
N445 C450 1.332 . S
C446 C447 1.386 1_545 S
C446 C449 1.388 . S
C447 C446 1.386 1_565 S
C447 C448 1.382 . S
C447 H473 0.950 . S
C448 N445 1.332 1_565 S
C448 C447 1.382 . S
C448 H459 0.952 . S
C449 C446 1.388 . S
C449 C450 1.382 . S
C449 H474 0.950 . S
C450 N445 1.332 . S
C450 C449 1.382 . S
C450 H460 0.948 . S
N451 Co429 2.282 . S
N451 C455 1.332 1_565 S
N451 C456 1.332 . S
C452 C453 1.388 . S
C452 C456 1.382 . S
C452 H475 0.950 . S
C453 C452 1.388 . S
C453 C454 1.386 1_565 S
C454 C453 1.386 1_545 S
C454 C455 1.382 . S
C454 H476 0.950 . S
C455 N451 1.332 1_545 S
C455 C454 1.382 . S
C455 H457 0.952 . S
C456 N451 1.332 . S
C456 C452 1.382 . S
C456 H458 0.948 . S
H457 C455 0.952 . S
H458 C456 0.948 . S
H459 C448 0.952 . S
H460 C450 0.948 . S
C461 C427 1.395 . S
C461 C431 1.391 . S
C462 C424 1.389 . S
C462 C444 1.392 1_545 S
C463 C434 1.392 1_565 S
C463 C436 1.389 . S
C464 C439 1.395 1_554 S
C464 C441 1.391 . S
H465 C425 0.951 . S
H466 C426 0.950 1_556 S
H467 C432 0.949 . S
H468 C433 0.950 . S
H469 C437 0.951 . S
H470 C438 0.950 . S
H471 C442 0.949 . S
H472 C443 0.950 . S
H473 C447 0.950 . S
H474 C449 0.950 . S
H475 C452 0.950 . S
H476 C454 0.950 . S
C477 C478 1.443 . S
C477 N481 1.376 . S
C477 C515 1.389 . S
C478 C477 1.443 . S
C478 C479 1.340 . S
C478 H518 0.951 . S
C479 C478 1.340 . S
C479 C480 1.439 . S
C479 H519 0.950 . S
C480 C479 1.439 . S
C480 N481 1.374 . S
C480 C514 1.395 . S
N481 C477 1.376 . S
N481 C480 1.374 . S
N481 Co482 2.008 . S
Co482 N481 2.008 . S
Co482 N483 1.995 . S
Co482 N488 2.008 . S
Co482 N493 1.995 . S
Co482 N498 2.282 . S
Co482 N504 2.282 . S
N483 Co482 1.995 . S
N483 C484 1.376 . S
N483 C487 1.383 . S
C484 N483 1.376 . S
C484 C485 1.446 . S
C484 C514 1.391 . S
C485 C484 1.446 . S
C485 C486 1.339 . S
C485 H520 0.949 . S
C486 C485 1.339 . S
C486 C487 1.439 . S
C486 H521 0.950 . S
C487 N483 1.383 . S
C487 C486 1.439 . S
C487 C516 1.392 . S
N488 Co482 2.008 . S
N488 C489 1.376 . S
N488 C492 1.374 . S
C489 N488 1.376 . S
C489 C490 1.443 . S
C489 C516 1.389 . S
C490 C489 1.443 . S
C490 C491 1.340 . S
C490 H522 0.951 . S
C491 C490 1.340 . S
C491 C492 1.439 . S
C491 H523 0.950 . S
C492 N488 1.374 . S
C492 C491 1.439 . S
C492 C517 1.395 . S
N493 Co482 1.995 . S
N493 C494 1.376 . S
N493 C497 1.383 . S
C494 N493 1.376 . S
C494 C495 1.446 . S
C494 C517 1.391 . S
C495 C494 1.446 . S
C495 C496 1.339 . S
C495 H524 0.949 . S
C496 C495 1.339 . S
C496 C497 1.439 . S
C496 H525 0.950 . S
C497 N493 1.383 . S
C497 C496 1.439 . S
C497 C515 1.392 . S
N498 Co482 2.282 . S
N498 C501 1.332 . S
N498 C503 1.332 . S
C499 C500 1.386 . S
C499 C502 1.388 1_554 S
C500 C499 1.386 . S
C500 C501 1.382 1_554 S
C500 H526 0.950 . S
C501 N498 1.332 . S
C501 C500 1.382 1_556 S
C501 H512 0.952 . S
C502 C499 1.388 1_556 S
C502 C503 1.382 . S
C502 H527 0.950 . S
C503 N498 1.332 . S
C503 C502 1.382 . S
C503 H513 0.948 . S
N504 Co482 2.282 . S
N504 C508 1.332 . S
N504 C509 1.332 . S
C505 C506 1.388 . S
C505 C509 1.382 . S
C505 H528 0.950 . S
C506 C505 1.388 . S
C506 C507 1.386 . S
C507 C506 1.386 . S
C507 C508 1.382 . S
C507 H529 0.950 . S
C508 N504 1.332 . S
C508 C507 1.382 . S
C508 H510 0.952 . S
C509 N504 1.332 . S
C509 C505 1.382 . S
C509 H511 0.948 . S
H510 C508 0.952 . S
H511 C509 0.948 . S
H512 C501 0.952 . S
H513 C503 0.948 . S
C514 C480 1.395 . S
C514 C484 1.391 . S
C515 C477 1.389 . S
C515 C497 1.392 . S
C516 C487 1.392 . S
C516 C489 1.389 . S
C517 C492 1.395 . S
C517 C494 1.391 . S
H518 C478 0.951 . S
H519 C479 0.950 . S
H520 C485 0.949 . S
H521 C486 0.950 . S
H522 C490 0.951 . S
H523 C491 0.950 . S
H524 C495 0.949 . S
H525 C496 0.950 . S
H526 C500 0.950 . S
H527 C502 0.950 . S
H528 C505 0.950 . S
H529 C507 0.950 . S
C530 C531 1.443 . S
C530 N534 1.376 . S
C530 C568 1.389 1_556 S
C531 C530 1.443 . S
C531 C532 1.340 . S
C531 H571 0.951 1_556 S
C532 C531 1.340 . S
C532 C533 1.439 . S
C532 H572 0.950 . S
C533 C532 1.439 . S
C533 N534 1.374 . S
C533 C567 1.395 . S
N534 C530 1.376 . S
N534 C533 1.374 . S
N534 Co535 2.008 . S
Co535 N534 2.008 . S
Co535 N536 1.995 . S
Co535 N541 2.008 . S
Co535 N546 1.995 . S
Co535 N551 2.282 1_556 S
Co535 N557 2.282 . S
N536 Co535 1.995 . S
N536 C537 1.376 . S
N536 C540 1.383 . S
C537 N536 1.376 . S
C537 C538 1.446 . S
C537 C567 1.391 . S
C538 C537 1.446 . S
C538 C539 1.339 . S
C538 H573 0.949 . S
C539 C538 1.339 . S
C539 C540 1.439 . S
C539 H574 0.950 . S
C540 N536 1.383 . S
C540 C539 1.439 . S
C540 C569 1.392 . S
N541 Co535 2.008 . S
N541 C542 1.376 . S
N541 C545 1.374 . S
C542 N541 1.376 . S
C542 C543 1.443 . S
C542 C569 1.389 . S
C543 C542 1.443 . S
C543 C544 1.340 . S
C543 H575 0.951 . S
C544 C543 1.340 . S
C544 C545 1.439 . S
C544 H576 0.950 . S
C545 N541 1.374 . S
C545 C544 1.439 . S
C545 C570 1.395 . S
N546 Co535 1.995 . S
N546 C547 1.376 . S
N546 C550 1.383 1_556 S
C547 N546 1.376 . S
C547 C548 1.446 1_556 S
C547 C570 1.391 . S
C548 C547 1.446 1_554 S
C548 C549 1.339 . S
C548 H577 0.949 . S
C549 C548 1.339 . S
C549 C550 1.439 . S
C549 H578 0.950 . S
C550 N546 1.383 1_554 S
C550 C549 1.439 . S
C550 C568 1.392 . S
N551 Co535 2.282 1_554 S
N551 C554 1.332 . S
N551 C556 1.332 . S
C552 C553 1.386 . S
C552 C555 1.388 . S
C553 C552 1.386 . S
C553 C554 1.382 . S
C553 H579 0.950 . S
C554 N551 1.332 . S
C554 C553 1.382 . S
C554 H565 0.952 . S
C555 C552 1.388 . S
C555 C556 1.382 . S
C555 H580 0.950 . S
C556 N551 1.332 . S
C556 C555 1.382 . S
C556 H566 0.948 1_554 S
N557 Co535 2.282 . S
N557 C561 1.332 . S
N557 C562 1.332 . S
C558 C559 1.388 . S
C558 C562 1.382 . S
C558 H581 0.950 . S
C559 C558 1.388 . S
C559 C560 1.386 . S
C560 C559 1.386 . S
C560 C561 1.382 . S
C560 H582 0.950 . S
C561 N557 1.332 . S
C561 C560 1.382 . S
C561 H563 0.952 . S
C562 N557 1.332 . S
C562 C558 1.382 . S
C562 H564 0.948 . S
H563 C561 0.952 . S
H564 C562 0.948 . S
H565 C554 0.952 . S
H566 C556 0.948 1_556 S
C567 C533 1.395 . S
C567 C537 1.391 . S
C568 C530 1.389 1_554 S
C568 C550 1.392 . S
C569 C540 1.392 . S
C569 C542 1.389 . S
C570 C545 1.395 . S
C570 C547 1.391 . S
H571 C531 0.951 1_554 S
H572 C532 0.950 . S
H573 C538 0.949 . S
H574 C539 0.950 . S
H575 C543 0.951 . S
H576 C544 0.950 . S
H577 C548 0.949 . S
H578 C549 0.950 . S
H579 C553 0.950 . S
H580 C555 0.950 . S
H581 C558 0.950 . S
H582 C560 0.950 . S
C583 C584 1.443 . S
C583 N587 1.376 . S
C583 C621 1.388 1_455 S
C584 C583 1.443 . S
C584 C585 1.340 . S
C584 H624 0.951 . S
C585 C584 1.340 . S
C585 C586 1.439 . S
C585 H625 0.950 . S
C586 C585 1.439 . S
C586 N587 1.374 . S
C586 C620 1.395 . S
N587 C583 1.376 . S
N587 C586 1.374 . S
N587 Co588 2.008 1_455 S
Co588 N587 2.008 1_655 S
Co588 N589 1.995 1_655 S
Co588 N594 2.008 . S
Co588 N599 1.995 . S
Co588 N604 2.282 1_655 S
Co588 N610 2.282 . S
N589 Co588 1.995 1_455 S
N589 C590 1.376 . S
N589 C593 1.383 . S
C590 N589 1.376 . S
C590 C591 1.446 . S
C590 C620 1.391 . S
C591 C590 1.446 . S
C591 C592 1.339 . S
C591 H626 0.949 . S
C592 C591 1.339 . S
C592 C593 1.439 . S
C592 H627 0.950 . S
C593 N589 1.383 . S
C593 C592 1.439 . S
C593 C622 1.392 1_455 S
N594 Co588 2.008 . S
N594 C595 1.376 . S
N594 C598 1.374 . S
C595 N594 1.376 . S
C595 C596 1.443 . S
C595 C622 1.388 . S
C596 C595 1.443 . S
C596 C597 1.340 . S
C596 H628 0.951 . S
C597 C596 1.340 . S
C597 C598 1.439 . S
C597 H629 0.950 . S
C598 N594 1.374 . S
C598 C597 1.439 . S
C598 C623 1.395 . S
N599 Co588 1.995 . S
N599 C600 1.376 . S
N599 C603 1.383 . S
C600 N599 1.376 . S
C600 C601 1.445 1_556 S
C600 C623 1.391 . S
C601 C600 1.445 1_554 S
C601 C602 1.338 1_554 S
C601 H630 0.951 . S
C602 C601 1.338 1_556 S
C602 C603 1.439 . S
C602 H631 0.950 1_556 S
C603 N599 1.383 . S
C603 C602 1.439 . S
C603 C621 1.392 . S
N604 Co588 2.282 1_455 S
N604 C607 1.332 . S
N604 C609 1.332 . S
C605 C606 1.386 . S
C605 C608 1.388 1_554 S
C606 C605 1.386 . S
C606 C607 1.382 1_554 S
C606 H632 0.950 . S
C607 N604 1.332 . S
C607 C606 1.382 1_556 S
C607 H618 0.952 1_456 S
C608 C605 1.388 1_556 S
C608 C609 1.382 . S
C608 H633 0.950 . S
C609 N604 1.332 . S
C609 C608 1.382 . S
C609 H619 0.948 . S
N610 Co588 2.282 . S
N610 C614 1.332 . S
N610 C615 1.332 . S
C611 C612 1.388 . S
C611 C615 1.382 . S
C611 H634 0.950 . S
C612 C611 1.388 . S
C612 C613 1.386 . S
C613 C612 1.386 . S
C613 C614 1.382 . S
C613 H635 0.950 . S
C614 N610 1.332 . S
C614 C613 1.382 . S
C614 H616 0.952 1_655 S
C615 N610 1.332 . S
C615 C611 1.382 . S
C615 H617 0.948 . S
H616 C614 0.952 1_455 S
H617 C615 0.948 . S
H618 C607 0.952 1_654 S
H619 C609 0.948 . S
C620 C586 1.395 . S
C620 C590 1.391 . S
C621 C583 1.388 1_655 S
C621 C603 1.392 . S
C622 C593 1.392 1_655 S
C622 C595 1.388 . S
C623 C598 1.395 . S
C623 C600 1.391 . S
H624 C584 0.951 . S
H625 C585 0.950 . S
H626 C591 0.949 . S
H627 C592 0.950 . S
H628 C596 0.951 . S
H629 C597 0.950 . S
H630 C601 0.951 . S
H631 C602 0.950 1_554 S
H632 C606 0.950 . S
H633 C608 0.950 . S
H634 C611 0.950 . S
H635 C613 0.950 . S
C636 C637 1.443 . S
C636 N640 1.376 . S
C636 C674 1.389 . S
C637 C636 1.443 . S
C637 C638 1.340 . S
C637 H677 0.951 . S
C638 C637 1.340 . S
C638 C639 1.439 . S
C638 H678 0.950 . S
C639 C638 1.439 . S
C639 N640 1.374 . S
C639 C673 1.395 . S
N640 C636 1.376 . S
N640 C639 1.374 . S
N640 Co641 2.008 1_565 S
Co641 N640 2.008 1_545 S
Co641 N642 1.995 1_545 S
Co641 N647 2.008 . S
Co641 N652 1.995 . S
Co641 N657 2.282 1_545 S
Co641 N663 2.282 . S
N642 Co641 1.995 1_565 S
N642 C643 1.376 . S
N642 C646 1.383 . S
C643 N642 1.376 . S
C643 C644 1.446 . S
C643 C673 1.391 . S
C644 C643 1.446 . S
C644 C645 1.339 . S
C644 H679 0.949 . S
C645 C644 1.339 . S
C645 C646 1.439 . S
C645 H680 0.950 . S
C646 N642 1.383 . S
C646 C645 1.439 . S
C646 C675 1.392 1_565 S
N647 Co641 2.008 . S
N647 C648 1.376 . S
N647 C651 1.374 . S
C648 N647 1.376 . S
C648 C649 1.443 . S
C648 C675 1.389 . S
C649 C648 1.443 . S
C649 C650 1.340 . S
C649 H681 0.951 . S
C650 C649 1.340 . S
C650 C651 1.439 . S
C650 H682 0.950 . S
C651 N647 1.374 . S
C651 C650 1.439 . S
C651 C676 1.395 . S
N652 Co641 1.995 . S
N652 C653 1.376 . S
N652 C656 1.383 . S
C653 N652 1.376 . S
C653 C654 1.446 . S
C653 C676 1.391 . S
C654 C653 1.446 . S
C654 C655 1.339 . S
C654 H683 0.949 . S
C655 C654 1.339 . S
C655 C656 1.439 . S
C655 H684 0.950 . S
C656 N652 1.383 . S
C656 C655 1.439 . S
C656 C674 1.392 1_545 S
N657 Co641 2.282 1_565 S
N657 C660 1.332 1_565 S
N657 C662 1.332 . S
C658 C659 1.386 . S
C658 C661 1.388 . S
C659 C658 1.386 . S
C659 C660 1.382 1_565 S
C659 H685 0.950 1_565 S
C660 N657 1.332 1_545 S
C660 C659 1.382 1_545 S
C660 H671 0.952 . S
C661 C658 1.388 . S
C661 C662 1.382 . S
C661 H686 0.950 . S
C662 N657 1.332 . S
C662 C661 1.382 . S
C662 H672 0.948 . S
N663 Co641 2.282 . S
N663 C667 1.332 1_545 S
N663 C668 1.332 . S
C664 C665 1.388 . S
C664 C668 1.382 . S
C664 H687 0.950 . S
C665 C664 1.388 . S
C665 C666 1.386 . S
C666 C665 1.386 . S
C666 C667 1.382 1_545 S
C666 H688 0.950 1_545 S
C667 N663 1.332 1_565 S
C667 C666 1.382 1_565 S
C667 H669 0.952 . S
C668 N663 1.332 . S
C668 C664 1.382 . S
C668 H670 0.948 . S
H669 C667 0.952 . S
H670 C668 0.948 . S
H671 C660 0.952 . S
H672 C662 0.948 . S
C673 C639 1.395 . S
C673 C643 1.391 . S
C674 C636 1.389 . S
C674 C656 1.392 1_565 S
C675 C646 1.392 1_545 S
C675 C648 1.389 . S
C676 C651 1.395 . S
C676 C653 1.391 . S
H677 C637 0.951 . S
H678 C638 0.950 . S
H679 C644 0.949 . S
H680 C645 0.950 . S
H681 C649 0.951 . S
H682 C650 0.950 . S
H683 C654 0.949 . S
H684 C655 0.950 . S
H685 C659 0.950 1_545 S
H686 C661 0.950 . S
H687 C664 0.950 . S
H688 C666 0.950 1_565 S
C689 C690 1.443 . S
C689 N693 1.376 . S
C689 C727 1.389 . S
C690 C689 1.443 . S
C690 C691 1.340 . S
C690 H730 0.951 . S
C691 C690 1.340 . S
C691 C692 1.439 . S
C691 H731 0.950 . S
C692 C691 1.439 . S
C692 N693 1.374 . S
C692 C726 1.395 . S
N693 C689 1.376 . S
N693 C692 1.374 . S
N693 Co694 2.008 . S
Co694 N693 2.008 . S
Co694 N695 1.995 . S
Co694 N700 2.008 . S
Co694 N705 1.995 . S
Co694 N710 2.282 . S
Co694 N716 2.282 . S
N695 Co694 1.995 . S
N695 C696 1.376 . S
N695 C699 1.383 . S
C696 N695 1.376 . S
C696 C697 1.446 . S
C696 C726 1.391 . S
C697 C696 1.446 . S
C697 C698 1.339 . S
C697 H732 0.949 . S
C698 C697 1.339 . S
C698 C699 1.439 . S
C698 H733 0.950 . S
C699 N695 1.383 . S
C699 C698 1.439 . S
C699 C728 1.392 . S
N700 Co694 2.008 . S
N700 C701 1.376 . S
N700 C704 1.374 . S
C701 N700 1.376 . S
C701 C702 1.443 . S
C701 C728 1.389 . S
C702 C701 1.443 . S
C702 C703 1.340 . S
C702 H734 0.951 . S
C703 C702 1.340 . S
C703 C704 1.439 . S
C703 H735 0.950 . S
C704 N700 1.374 . S
C704 C703 1.439 . S
C704 C729 1.395 . S
N705 Co694 1.995 . S
N705 C706 1.376 . S
N705 C709 1.383 . S
C706 N705 1.376 . S
C706 C707 1.446 . S
C706 C729 1.391 . S
C707 C706 1.446 . S
C707 C708 1.339 . S
C707 H736 0.949 . S
C708 C707 1.339 . S
C708 C709 1.439 . S
C708 H737 0.950 . S
C709 N705 1.383 . S
C709 C708 1.439 . S
C709 C727 1.392 . S
N710 Co694 2.282 . S
N710 C713 1.332 . S
N710 C715 1.332 . S
C711 C712 1.386 . S
C711 C714 1.388 . S
C712 C711 1.386 . S
C712 C713 1.382 . S
C712 H738 0.950 . S
C713 N710 1.332 . S
C713 C712 1.382 . S
C713 H724 0.952 . S
C714 C711 1.388 . S
C714 C715 1.382 . S
C714 H739 0.950 . S
C715 N710 1.332 . S
C715 C714 1.382 . S
C715 H725 0.948 . S
N716 Co694 2.282 . S
N716 C720 1.332 . S
N716 C721 1.332 . S
C717 C718 1.388 . S
C717 C721 1.382 . S
C717 H740 0.950 . S
C718 C717 1.388 . S
C718 C719 1.386 . S
C719 C718 1.386 . S
C719 C720 1.382 . S
C719 H741 0.950 . S
C720 N716 1.332 . S
C720 C719 1.382 . S
C720 H722 0.952 . S
C721 N716 1.332 . S
C721 C717 1.382 . S
C721 H723 0.948 . S
H722 C720 0.952 . S
H723 C721 0.948 . S
H724 C713 0.952 . S
H725 C715 0.948 . S
C726 C692 1.395 . S
C726 C696 1.391 . S
C727 C689 1.389 . S
C727 C709 1.392 . S
C728 C699 1.392 . S
C728 C701 1.389 . S
C729 C704 1.395 . S
C729 C706 1.391 . S
H730 C690 0.951 . S
H731 C691 0.950 . S
H732 C697 0.949 . S
H733 C698 0.950 . S
H734 C702 0.951 . S
H735 C703 0.950 . S
H736 C707 0.949 . S
H737 C708 0.950 . S
H738 C712 0.950 . S
H739 C714 0.950 . S
H740 C717 0.950 . S
H741 C719 0.950 . S
C742 C743 1.443 . S
C742 N746 1.376 . S
C742 C780 1.389 . S
C743 C742 1.443 . S
C743 C744 1.340 . S
C743 H783 0.951 . S
C744 C743 1.340 . S
C744 C745 1.439 . S
C744 H784 0.950 . S
C745 C744 1.439 . S
C745 N746 1.374 . S
C745 C779 1.395 . S
N746 C742 1.376 . S
N746 C745 1.374 . S
N746 Co747 2.008 . S
Co747 N746 2.008 . S
Co747 N748 1.995 . S
Co747 N753 2.008 . S
Co747 N758 1.995 . S
Co747 N763 2.282 . S
Co747 N769 2.282 . S
N748 Co747 1.995 . S
N748 C749 1.376 . S
N748 C752 1.383 . S
C749 N748 1.376 . S
C749 C750 1.446 . S
C749 C779 1.391 . S
C750 C749 1.446 . S
C750 C751 1.339 . S
C750 H785 0.949 . S
C751 C750 1.339 . S
C751 C752 1.439 . S
C751 H786 0.950 . S
C752 N748 1.383 . S
C752 C751 1.439 . S
C752 C781 1.392 . S
N753 Co747 2.008 . S
N753 C754 1.376 . S
N753 C757 1.374 . S
C754 N753 1.376 . S
C754 C755 1.443 . S
C754 C781 1.389 . S
C755 C754 1.443 . S
C755 C756 1.340 . S
C755 H787 0.951 . S
C756 C755 1.340 . S
C756 C757 1.439 . S
C756 H788 0.950 . S
C757 N753 1.374 . S
C757 C756 1.439 . S
C757 C782 1.395 . S
N758 Co747 1.995 . S
N758 C759 1.376 . S
N758 C762 1.383 . S
C759 N758 1.376 . S
C759 C760 1.446 . S
C759 C782 1.391 . S
C760 C759 1.446 . S
C760 C761 1.339 . S
C760 H789 0.949 . S
C761 C760 1.339 . S
C761 C762 1.439 . S
C761 H790 0.950 . S
C762 N758 1.383 . S
C762 C761 1.439 . S
C762 C780 1.392 . S
N763 Co747 2.282 . S
N763 C766 1.332 . S
N763 C768 1.332 . S
C764 C765 1.386 . S
C764 C767 1.388 . S
C765 C764 1.386 . S
C765 C766 1.382 . S
C765 H791 0.950 . S
C766 N763 1.332 . S
C766 C765 1.382 . S
C766 H777 0.952 . S
C767 C764 1.388 . S
C767 C768 1.382 . S
C767 H792 0.950 . S
C768 N763 1.332 . S
C768 C767 1.382 . S
C768 H778 0.948 . S
N769 Co747 2.282 . S
N769 C773 1.332 . S
N769 C774 1.332 . S
C770 C771 1.388 . S
C770 C774 1.382 . S
C770 H793 0.950 . S
C771 C770 1.388 . S
C771 C772 1.386 . S
C772 C771 1.386 . S
C772 C773 1.382 . S
C772 H794 0.950 . S
C773 N769 1.332 . S
C773 C772 1.382 . S
C773 H775 0.952 . S
C774 N769 1.332 . S
C774 C770 1.382 . S
C774 H776 0.948 . S
H775 C773 0.952 . S
H776 C774 0.948 . S
H777 C766 0.952 . S
H778 C768 0.948 . S
C779 C745 1.395 . S
C779 C749 1.391 . S
C780 C742 1.389 . S
C780 C762 1.392 . S
C781 C752 1.392 . S
C781 C754 1.389 . S
C782 C757 1.395 . S
C782 C759 1.391 . S
H783 C743 0.951 . S
H784 C744 0.950 . S
H785 C750 0.949 . S
H786 C751 0.950 . S
H787 C755 0.951 . S
H788 C756 0.950 . S
H789 C760 0.949 . S
H790 C761 0.950 . S
H791 C765 0.950 . S
H792 C767 0.950 . S
H793 C770 0.950 . S
H794 C772 0.950 . S
C795 C796 1.443 . S
C795 N799 1.376 . S
C795 C833 1.389 . S
C796 C795 1.443 . S
C796 C797 1.340 . S
C796 H836 0.951 . S
C797 C796 1.340 . S
C797 C798 1.439 . S
C797 H837 0.950 . S
C798 C797 1.439 . S
C798 N799 1.374 . S
C798 C832 1.395 . S
N799 C795 1.376 . S
N799 C798 1.374 . S
N799 Co800 2.008 1_655 S
Co800 N799 2.008 1_455 S
Co800 N801 1.995 1_455 S
Co800 N806 2.008 . S
Co800 N811 1.995 . S
Co800 N816 2.282 1_455 S
Co800 N822 2.282 . S
N801 Co800 1.995 1_655 S
N801 C802 1.376 . S
N801 C805 1.383 . S
C802 N801 1.376 . S
C802 C803 1.446 . S
C802 C832 1.391 . S
C803 C802 1.446 . S
C803 C804 1.339 . S
C803 H838 0.949 . S
C804 C803 1.339 . S
C804 C805 1.439 . S
C804 H839 0.950 . S
C805 N801 1.383 . S
C805 C804 1.439 . S
C805 C834 1.392 1_655 S
N806 Co800 2.008 . S
N806 C807 1.376 . S
N806 C810 1.374 . S
C807 N806 1.376 . S
C807 C808 1.443 . S
C807 C834 1.389 . S
C808 C807 1.443 . S
C808 C809 1.340 . S
C808 H840 0.951 . S
C809 C808 1.340 . S
C809 C810 1.439 . S
C809 H841 0.950 . S
C810 N806 1.374 . S
C810 C809 1.439 . S
C810 C835 1.395 . S
N811 Co800 1.995 . S
N811 C812 1.376 . S
N811 C815 1.383 . S
C812 N811 1.376 . S
C812 C813 1.446 . S
C812 C835 1.391 . S
C813 C812 1.446 . S
C813 C814 1.339 . S
C813 H842 0.949 . S
C814 C813 1.339 . S
C814 C815 1.439 . S
C814 H843 0.950 . S
C815 N811 1.383 . S
C815 C814 1.439 . S
C815 C833 1.392 1_455 S
N816 Co800 2.282 1_655 S
N816 C819 1.332 . S
N816 C821 1.332 . S
C817 C818 1.386 . S
C817 C820 1.388 . S
C818 C817 1.386 . S
C818 C819 1.382 . S
C818 H844 0.950 . S
C819 N816 1.332 . S
C819 C818 1.382 . S
C819 H830 0.952 1_655 S
C820 C817 1.388 . S
C820 C821 1.382 . S
C820 H845 0.950 . S
C821 N816 1.332 . S
C821 C820 1.382 . S
C821 H831 0.948 . S
N822 Co800 2.282 . S
N822 C826 1.332 . S
N822 C827 1.332 . S
C823 C824 1.388 . S
C823 C827 1.382 . S
C823 H846 0.950 . S
C824 C823 1.388 . S
C824 C825 1.386 . S
C825 C824 1.386 . S
C825 C826 1.382 . S
C825 H847 0.950 . S
C826 N822 1.332 . S
C826 C825 1.382 . S
C826 H828 0.952 1_455 S
C827 N822 1.332 . S
C827 C823 1.382 . S
C827 H829 0.948 . S
H828 C826 0.952 1_655 S
H829 C827 0.948 . S
H830 C819 0.952 1_455 S
H831 C821 0.948 . S
C832 C798 1.395 . S
C832 C802 1.391 . S
C833 C795 1.389 . S
C833 C815 1.392 1_655 S
C834 C805 1.392 1_455 S
C834 C807 1.389 . S
C835 C810 1.395 . S
C835 C812 1.391 . S
H836 C796 0.951 . S
H837 C797 0.950 . S
H838 C803 0.949 . S
H839 C804 0.950 . S
H840 C808 0.951 . S
H841 C809 0.950 . S
H842 C813 0.949 . S
H843 C814 0.950 . S
H844 C818 0.950 . S
H845 C820 0.950 . S
H846 C823 0.950 . S
H847 C825 0.950 . S
H848 C854 0.930 . S
H849 C857 0.930 . S
H850 C858 0.930 . S
H851 C859 0.930 . S
H852 C862 0.930 . S
H853 C863 0.930 . S
C854 H848 0.930 . S
C854 C855 1.355 . S
C854 C856 1.415 . S
C855 C854 1.355 . S
C855 C857 1.419 . S
C856 C854 1.415 . S
C856 C861 1.425 . S
C856 C863 1.409 . S
C857 H849 0.930 . S
C857 C855 1.419 . S
C857 C858 1.362 . S
C858 H850 0.930 . S
C858 C857 1.362 . S
C858 C861 1.409 . S
C859 H851 0.930 . S
C859 C860 1.355 . S
C859 C861 1.415 . S
C860 C859 1.355 . S
C860 C862 1.419 . S
C861 C856 1.425 . S
C861 C858 1.409 . S
C861 C859 1.415 . S
C862 H852 0.930 . S
C862 C860 1.419 . S
C862 C863 1.362 . S
C863 H853 0.930 . S
C863 C856 1.409 . S
C863 C862 1.362 . S
H864 C870 0.930 . S
H865 C873 0.930 . S
H866 C874 0.930 . S
H867 C875 0.930 . S
H868 C878 0.930 . S
H869 C879 0.930 . S
C870 H864 0.930 . S
C870 C871 1.355 . S
C870 C872 1.415 . S
C871 C870 1.355 . S
C871 C873 1.419 . S
C872 C870 1.415 . S
C872 C877 1.425 . S
C872 C879 1.409 . S
C873 H865 0.930 . S
C873 C871 1.419 . S
C873 C874 1.362 . S
C874 H866 0.930 . S
C874 C873 1.362 . S
C874 C877 1.409 . S
C875 H867 0.930 . S
C875 C876 1.355 . S
C875 C877 1.415 . S
C876 C875 1.355 . S
C876 C878 1.419 . S
C877 C872 1.425 . S
C877 C874 1.409 . S
C877 C875 1.415 . S
C878 H868 0.930 . S
C878 C876 1.419 . S
C878 C879 1.362 . S
C879 H869 0.930 . S
C879 C872 1.409 . S
C879 C878 1.362 . S
H880 C886 0.930 . S
H881 C889 0.930 . S
H882 C890 0.930 . S
H883 C891 0.930 . S
H884 C894 0.930 . S
H885 C895 0.930 . S
C886 H880 0.930 . S
C886 C887 1.365 . S
C886 C888 1.415 . S
C887 C886 1.365 . S
C887 C889 1.408 1_655 S
C888 C886 1.415 . S
C888 C893 1.425 1_655 S
C888 C895 1.409 . S
C889 H881 0.930 . S
C889 C887 1.408 1_455 S
C889 C890 1.362 . S
C890 H882 0.930 . S
C890 C889 1.362 . S
C890 C893 1.409 . S
C891 H883 0.930 . S
C891 C892 1.355 1_455 S
C891 C893 1.415 . S
C892 C891 1.355 1_655 S
C892 C894 1.419 . S
C893 C888 1.425 1_455 S
C893 C890 1.409 . S
C893 C891 1.415 . S
C894 H884 0.930 . S
C894 C892 1.419 . S
C894 C895 1.362 . S
C895 H885 0.930 . S
C895 C888 1.409 . S
C895 C894 1.362 . S
H896 C902 0.930 . S
H897 C905 0.930 . S
H898 C906 0.930 . S
H899 C907 0.930 . S
H900 C910 0.930 . S
H901 C911 0.930 . S
C902 H896 0.930 . S
C902 C903 1.355 . S
C902 C904 1.415 . S
C903 C902 1.355 . S
C903 C905 1.419 1_455 S
C904 C902 1.415 . S
C904 C909 1.439 . S
C904 C911 1.409 . S
C905 H897 0.930 . S
C905 C903 1.419 1_655 S
C905 C906 1.362 . S
C906 H898 0.930 . S
C906 C905 1.362 . S
C906 C909 1.401 1_655 S
C907 H899 0.930 . S
C907 C908 1.355 1_655 S
C907 C909 1.410 1_655 S
C908 C907 1.355 1_455 S
C908 C910 1.419 . S
C909 C904 1.439 . S
C909 C906 1.401 1_455 S
C909 C907 1.410 1_455 S
C910 H900 0.930 . S
C910 C908 1.419 . S
C910 C911 1.362 . S
C911 H901 0.930 . S
C911 C904 1.409 . S
C911 C910 1.362 . S
H912 C918 0.930 1_545 S
H913 C921 0.930 . S
H914 C922 0.930 . S
H915 C923 0.930 . S
H916 C926 0.930 . S
H917 C927 0.930 1_545 S
C918 H912 0.930 1_565 S
C918 C919 1.355 . S
C918 C920 1.415 . S
C919 C918 1.355 . S
C919 C921 1.419 . S
C920 C918 1.415 . S
C920 C925 1.425 . S
C920 C927 1.409 . S
C921 H913 0.930 . S
C921 C919 1.419 . S
C921 C922 1.362 . S
C922 H914 0.930 . S
C922 C921 1.362 . S
C922 C925 1.409 . S
C923 H915 0.930 . S
C923 C924 1.355 . S
C923 C925 1.415 . S
C924 C923 1.355 . S
C924 C926 1.419 . S
C925 C920 1.425 . S
C925 C922 1.409 . S
C925 C923 1.415 . S
C926 H916 0.930 . S
C926 C924 1.419 . S
C926 C927 1.362 . S
C927 H917 0.930 1_565 S
C927 C920 1.409 . S
C927 C926 1.362 . S
H928 C934 0.930 . S
H929 C937 0.930 . S
H930 C938 0.930 . S
H931 C939 0.930 . S
H932 C942 0.930 . S
H933 C943 0.930 . S
C934 H928 0.930 . S
C934 C935 1.355 . S
C934 C936 1.415 . S
C935 C934 1.355 . S
C935 C937 1.419 . S
C936 C934 1.415 . S
C936 C941 1.425 . S
C936 C943 1.409 . S
C937 H929 0.930 . S
C937 C935 1.419 . S
C937 C938 1.362 . S
C938 H930 0.930 . S
C938 C937 1.362 . S
C938 C941 1.409 . S
C939 H931 0.930 . S
C939 C940 1.355 . S
C939 C941 1.415 . S
C940 C939 1.355 . S
C940 C942 1.419 . S
C941 C936 1.425 . S
C941 C938 1.409 . S
C941 C939 1.415 . S
C942 H932 0.930 . S
C942 C940 1.419 . S
C942 C943 1.362 . S
C943 H933 0.930 . S
C943 C936 1.409 . S
C943 C942 1.362 . S
H944 C950 0.930 . S
H945 C953 0.930 . S
H946 C954 0.930 . S
H947 C955 0.930 . S
H948 C958 0.930 . S
H949 C959 0.930 . S
C950 H944 0.930 . S
C950 C951 1.355 . S
C950 C952 1.415 . S
C951 C950 1.355 . S
C951 C953 1.419 . S
C952 C950 1.415 . S
C952 C957 1.425 . S
C952 C959 1.409 . S
C953 H945 0.930 . S
C953 C951 1.419 . S
C953 C954 1.362 . S
C954 H946 0.930 . S
C954 C953 1.362 . S
C954 C957 1.409 . S
C955 H947 0.930 . S
C955 C956 1.355 . S
C955 C957 1.415 . S
C956 C955 1.355 . S
C956 C958 1.419 . S
C957 C952 1.425 . S
C957 C954 1.409 . S
C957 C955 1.415 . S
C958 H948 0.930 . S
C958 C956 1.419 . S
C958 C959 1.362 . S
C959 H949 0.930 . S
C959 C952 1.409 . S
C959 C958 1.362 . S
H960 C966 0.930 . S
H961 C969 0.930 . S
H962 C970 0.930 . S
H963 C971 0.930 . S
H964 C974 0.930 1_565 S
H965 C975 0.930 . S
C966 H960 0.930 . S
C966 C967 1.355 . S
C966 C968 1.415 . S
C967 C966 1.355 . S
C967 C969 1.419 . S
C968 C966 1.415 . S
C968 C973 1.425 . S
C968 C975 1.409 . S
C969 H961 0.930 . S
C969 C967 1.419 . S
C969 C970 1.362 . S
C970 H962 0.930 . S
C970 C969 1.362 . S
C970 C973 1.409 . S
C971 H963 0.930 . S
C971 C972 1.355 . S
C971 C973 1.415 . S
C972 C971 1.355 . S
C972 C974 1.419 . S
C973 C968 1.425 . S
C973 C970 1.409 . S
C973 C971 1.415 . S
C974 H964 0.930 1_545 S
C974 C972 1.419 . S
C974 C975 1.362 . S
C975 H965 0.930 . S
C975 C968 1.409 . S
C975 C974 1.362 . S
H976 C982 0.930 . S
H977 C985 0.930 . S
H978 C986 0.935 . S
H979 C987 0.930 1_545 S
H980 C990 0.930 . S
H981 C991 0.930 . S
C982 H976 0.930 . S
C982 C983 1.355 . S
C982 C984 1.415 . S
C983 C982 1.355 . S
C983 C985 1.419 . S
C984 C982 1.415 . S
C984 C989 1.425 . S
C984 C991 1.409 . S
C985 H977 0.930 . S
C985 C983 1.419 . S
C985 C986 1.362 . S
C986 H978 0.935 . S
C986 C985 1.362 . S
C986 C989 1.409 . S
C987 H979 0.930 1_565 S
C987 C988 1.355 . S
C987 C989 1.415 . S
C988 C987 1.355 . S
C988 C990 1.419 . S
C989 C984 1.425 . S
C989 C986 1.409 . S
C989 C987 1.415 . S
C990 H980 0.930 . S
C990 C988 1.419 . S
C990 C991 1.362 . S
C991 H981 0.930 . S
C991 C984 1.409 . S
C991 C990 1.362 . S
H992 C998 0.930 . S
H993 C1001 0.930 . S
H994 C1002 0.930 . S
H995 C1003 0.930 . S
H996 C1006 0.930 . S
H997 C1007 0.930 . S
C998 H992 0.930 . S
C998 C999 1.355 . S
C998 C1000 1.415 . S
C999 C998 1.355 . S
C999 C1001 1.419 . S
C1000 C998 1.415 . S
C1000 C1005 1.425 . S
C1000 C1007 1.409 . S
C1001 H993 0.930 . S
C1001 C999 1.419 . S
C1001 C1002 1.362 . S
C1002 H994 0.930 . S
C1002 C1001 1.362 . S
C1002 C1005 1.409 . S
C1003 H995 0.930 . S
C1003 C1004 1.355 . S
C1003 C1005 1.415 . S
C1004 C1003 1.355 . S
C1004 C1006 1.419 . S
C1005 C1000 1.425 . S
C1005 C1002 1.409 . S
C1005 C1003 1.415 . S
C1006 H996 0.930 . S
C1006 C1004 1.419 . S
C1006 C1007 1.362 . S
C1007 H997 0.930 . S
C1007 C1000 1.409 . S
C1007 C1006 1.362 . S
H1008 C1014 0.930 . S
H1009 C1017 0.930 . S
H1010 C1018 0.930 . S
H1011 C1019 0.930 . S
H1012 C1022 0.930 . S
H1013 C1023 0.930 . S
C1014 H1008 0.930 . S
C1014 C1015 1.355 . S
C1014 C1016 1.415 . S
C1015 C1014 1.355 . S
C1015 C1017 1.419 . S
C1016 C1014 1.415 . S
C1016 C1021 1.425 . S
C1016 C1023 1.409 . S
C1017 H1009 0.930 . S
C1017 C1015 1.419 . S
C1017 C1018 1.362 . S
C1018 H1010 0.930 . S
C1018 C1017 1.362 . S
C1018 C1021 1.409 . S
C1019 H1011 0.930 . S
C1019 C1020 1.355 . S
C1019 C1021 1.415 . S
C1020 C1019 1.355 . S
C1020 C1022 1.419 . S
C1021 C1016 1.425 . S
C1021 C1018 1.409 . S
C1021 C1019 1.415 . S
C1022 H1012 0.930 . S
C1022 C1020 1.419 . S
C1022 C1023 1.362 . S
C1023 H1013 0.930 . S
C1023 C1016 1.409 . S
C1023 C1022 1.362 . S
H1024 C1030 0.930 . S
H1025 C1033 0.930 . S
H1026 C1034 0.930 . S
H1027 C1035 0.930 . S
H1028 C1038 0.930 . S
H1029 C1039 0.930 . S
C1030 H1024 0.930 . S
C1030 C1031 1.355 1_455 S
C1030 C1032 1.415 . S
C1031 C1030 1.355 1_655 S
C1031 C1033 1.419 . S
C1032 C1030 1.415 . S
C1032 C1037 1.425 1_455 S
C1032 C1039 1.409 . S
C1033 H1025 0.930 . S
C1033 C1031 1.419 . S
C1033 C1034 1.362 . S
C1034 H1026 0.930 . S
C1034 C1033 1.362 . S
C1034 C1037 1.409 . S
C1035 H1027 0.930 . S
C1035 C1036 1.355 1_655 S
C1035 C1037 1.415 . S
C1036 C1035 1.355 1_455 S
C1036 C1038 1.419 . S
C1037 C1032 1.425 1_655 S
C1037 C1034 1.409 . S
C1037 C1035 1.415 . S
C1038 H1028 0.930 . S
C1038 C1036 1.419 . S
C1038 C1039 1.362 . S
C1039 H1029 0.930 . S
C1039 C1032 1.409 . S
C1039 C1038 1.362 . S
H1040 C1046 0.930 . S
H1041 C1049 0.930 . S
H1042 C1050 0.930 . S
H1043 C1051 0.930 . S
H1044 C1054 0.930 . S
H1045 C1055 0.930 . S
C1046 H1040 0.930 . S
C1046 C1047 1.355 . S
C1046 C1048 1.415 . S
C1047 C1046 1.355 . S
C1047 C1049 1.419 . S
C1048 C1046 1.415 . S
C1048 C1053 1.425 . S
C1048 C1055 1.409 . S
C1049 H1041 0.930 . S
C1049 C1047 1.419 . S
C1049 C1050 1.362 . S
C1050 H1042 0.930 . S
C1050 C1049 1.362 . S
C1050 C1053 1.409 . S
C1051 H1043 0.930 . S
C1051 C1052 1.355 . S
C1051 C1053 1.415 . S
C1052 C1051 1.355 . S
C1052 C1054 1.419 . S
C1053 C1048 1.425 . S
C1053 C1050 1.409 . S
C1053 C1051 1.415 . S
C1054 H1044 0.930 . S
C1054 C1052 1.419 . S
C1054 C1055 1.362 . S
C1055 H1045 0.930 . S
C1055 C1048 1.409 . S
C1055 C1054 1.362 . S
H1056 C1062 0.930 . S
H1057 C1065 0.930 . S
H1058 C1066 0.930 . S
H1059 C1067 0.930 . S
H1060 C1070 0.930 . S
H1061 C1071 0.930 . S
C1062 H1056 0.930 . S
C1062 C1063 1.355 . S
C1062 C1064 1.415 . S
C1063 C1062 1.355 . S
C1063 C1065 1.419 . S
C1064 C1062 1.415 . S
C1064 C1069 1.425 . S
C1064 C1071 1.409 . S
C1065 H1057 0.930 . S
C1065 C1063 1.419 . S
C1065 C1066 1.362 . S
C1066 H1058 0.930 . S
C1066 C1065 1.362 . S
C1066 C1069 1.409 . S
C1067 H1059 0.930 . S
C1067 C1068 1.355 . S
C1067 C1069 1.415 . S
C1068 C1067 1.355 . S
C1068 C1070 1.419 . S
C1069 C1064 1.425 . S
C1069 C1066 1.409 . S
C1069 C1067 1.415 . S
C1070 H1060 0.930 . S
C1070 C1068 1.419 . S
C1070 C1071 1.362 . S
C1071 H1061 0.930 . S
C1071 C1064 1.409 . S
C1071 C1070 1.362 . S
H1072 C1078 0.930 . S
H1073 C1081 0.930 . S
H1074 C1082 0.930 . S
H1075 C1083 0.930 . S
H1076 C1086 0.930 . S
H1077 C1087 0.930 . S
C1078 H1072 0.930 . S
C1078 C1079 1.355 . S
C1078 C1080 1.415 . S
C1079 C1078 1.355 . S
C1079 C1081 1.419 . S
C1080 C1078 1.415 . S
C1080 C1085 1.425 . S
C1080 C1087 1.409 . S
C1081 H1073 0.930 . S
C1081 C1079 1.419 . S
C1081 C1082 1.362 . S
C1082 H1074 0.930 . S
C1082 C1081 1.362 . S
C1082 C1085 1.409 . S
C1083 H1075 0.930 . S
C1083 C1084 1.355 . S
C1083 C1085 1.415 . S
C1084 C1083 1.355 . S
C1084 C1086 1.419 . S
C1085 C1080 1.425 . S
C1085 C1082 1.409 . S
C1085 C1083 1.415 . S
C1086 H1076 0.930 . S
C1086 C1084 1.419 . S
C1086 C1087 1.362 . S
C1087 H1077 0.930 . S
C1087 C1080 1.409 . S
C1087 C1086 1.362 . S
H1088 C1094 0.930 . S
H1089 C1097 0.930 . S
H1090 C1098 0.930 . S
H1091 C1099 0.930 . S
H1092 C1102 0.930 . S
H1093 C1103 0.930 . S
C1094 H1088 0.930 . S
C1094 C1095 1.355 . S
C1094 C1096 1.415 . S
C1095 C1094 1.355 . S
C1095 C1097 1.419 1_455 S
C1096 C1094 1.415 . S
C1096 C1101 1.425 1_455 S
C1096 C1103 1.409 . S
C1097 H1089 0.930 . S
C1097 C1095 1.419 1_655 S
C1097 C1098 1.362 . S
C1098 H1090 0.930 . S
C1098 C1097 1.362 . S
C1098 C1101 1.409 . S
C1099 H1091 0.930 . S
C1099 C1100 1.355 1_655 S
C1099 C1101 1.415 . S
C1100 C1099 1.355 1_455 S
C1100 C1102 1.419 . S
C1101 C1096 1.425 1_655 S
C1101 C1098 1.409 . S
C1101 C1099 1.415 . S
C1102 H1092 0.930 . S
C1102 C1100 1.419 . S
C1102 C1103 1.362 . S
C1103 H1093 0.930 . S
C1103 C1096 1.409 . S
C1103 C1102 1.362 . S
H1104 C1110 0.930 . S
H1105 C1113 0.930 1_565 S
H1106 C1114 0.930 . S
H1107 C1115 0.930 . S
H1108 C1118 0.930 . S
H1109 C1119 0.930 . S
C1110 H1104 0.930 . S
C1110 C1111 1.355 . S
C1110 C1112 1.415 . S
C1111 C1110 1.355 . S
C1111 C1113 1.419 . S
C1112 C1110 1.415 . S
C1112 C1117 1.425 . S
C1112 C1119 1.409 . S
C1113 H1105 0.930 1_545 S
C1113 C1111 1.419 . S
C1113 C1114 1.362 . S
C1114 H1106 0.930 . S
C1114 C1113 1.362 . S
C1114 C1117 1.409 . S
C1115 H1107 0.930 . S
C1115 C1116 1.355 . S
C1115 C1117 1.415 . S
C1116 C1115 1.355 . S
C1116 C1118 1.419 . S
C1117 C1112 1.425 . S
C1117 C1114 1.409 . S
C1117 C1115 1.415 . S
C1118 H1108 0.930 . S
C1118 C1116 1.419 . S
C1118 C1119 1.362 . S
C1119 H1109 0.930 . S
C1119 C1112 1.409 . S
C1119 C1118 1.362 . S
H1120 C1126 0.930 . S
H1121 C1129 0.930 . S
H1122 C1130 0.930 . S
H1123 C1131 0.930 . S
H1124 C1134 0.930 . S
H1125 C1135 0.930 . S
C1126 H1120 0.930 . S
C1126 C1127 1.355 . S
C1126 C1128 1.415 . S
C1127 C1126 1.355 . S
C1127 C1129 1.419 . S
C1128 C1126 1.415 . S
C1128 C1133 1.425 . S
C1128 C1135 1.409 . S
C1129 H1121 0.930 . S
C1129 C1127 1.419 . S
C1129 C1130 1.362 . S
C1130 H1122 0.930 . S
C1130 C1129 1.362 . S
C1130 C1133 1.409 . S
C1131 H1123 0.930 . S
C1131 C1132 1.355 . S
C1131 C1133 1.415 . S
C1132 C1131 1.355 . S
C1132 C1134 1.419 . S
C1133 C1128 1.425 . S
C1133 C1130 1.409 . S
C1133 C1131 1.415 . S
C1134 H1124 0.930 . S
C1134 C1132 1.419 . S
C1134 C1135 1.362 . S
C1135 H1125 0.930 . S
C1135 C1128 1.409 . S
C1135 C1134 1.362 . S
H1136 C1142 0.930 . S
H1137 C1145 0.930 . S
H1138 C1146 0.930 . S
H1139 C1147 0.930 . S
H1140 C1150 0.930 . S
H1141 C1151 0.930 . S
C1142 H1136 0.930 . S
C1142 C1143 1.355 . S
C1142 C1144 1.415 . S
C1143 C1142 1.355 . S
C1143 C1145 1.419 . S
C1144 C1142 1.415 . S
C1144 C1149 1.425 . S
C1144 C1151 1.409 . S
C1145 H1137 0.930 . S
C1145 C1143 1.419 . S
C1145 C1146 1.362 . S
C1146 H1138 0.930 . S
C1146 C1145 1.362 . S
C1146 C1149 1.409 . S
C1147 H1139 0.930 . S
C1147 C1148 1.355 . S
C1147 C1149 1.415 . S
C1148 C1147 1.355 . S
C1148 C1150 1.419 . S
C1149 C1144 1.425 . S
C1149 C1146 1.409 . S
C1149 C1147 1.415 . S
C1150 H1140 0.930 . S
C1150 C1148 1.419 . S
C1150 C1151 1.362 . S
C1151 H1141 0.930 . S
C1151 C1144 1.409 . S
C1151 C1150 1.362 . S
H1152 C1158 0.930 . S
H1153 C1161 0.930 . S
H1154 C1162 0.930 . S
H1155 C1163 0.930 . S
H1156 C1166 0.930 . S
H1157 C1167 0.930 . S
C1158 H1152 0.930 . S
C1158 C1159 1.355 . S
C1158 C1160 1.415 . S
C1159 C1158 1.355 . S
C1159 C1161 1.419 . S
C1160 C1158 1.415 . S
C1160 C1165 1.425 . S
C1160 C1167 1.409 . S
C1161 H1153 0.930 . S
C1161 C1159 1.419 . S
C1161 C1162 1.362 . S
C1162 H1154 0.930 . S
C1162 C1161 1.362 . S
C1162 C1165 1.409 . S
C1163 H1155 0.930 . S
C1163 C1164 1.355 . S
C1163 C1165 1.415 . S
C1164 C1163 1.355 . S
C1164 C1166 1.419 . S
C1165 C1160 1.425 . S
C1165 C1162 1.409 . S
C1165 C1163 1.415 . S
C1166 H1156 0.930 . S
C1166 C1164 1.419 . S
C1166 C1167 1.362 . S
C1167 H1157 0.930 . S
C1167 C1160 1.409 . S
C1167 C1166 1.362 . S
H1168 C1174 0.930 . S
H1169 C1177 0.930 . S
H1170 C1178 0.930 . S
H1171 C1179 0.930 1_545 S
H1172 C1182 0.930 . S
H1173 C1183 0.930 . S
C1174 H1168 0.930 . S
C1174 C1175 1.355 . S
C1174 C1176 1.415 . S
C1175 C1174 1.355 . S
C1175 C1177 1.419 1_565 S
C1176 C1174 1.415 . S
C1176 C1181 1.425 . S
C1176 C1183 1.409 . S
C1177 H1169 0.930 . S
C1177 C1175 1.419 1_545 S
C1177 C1178 1.362 . S
C1178 H1170 0.930 . S
C1178 C1177 1.362 . S
C1178 C1181 1.409 1_545 S
C1179 H1171 0.930 1_565 S
C1179 C1180 1.355 . S
C1179 C1181 1.415 . S
C1180 C1179 1.355 . S
C1180 C1182 1.419 . S
C1181 C1176 1.425 . S
C1181 C1178 1.409 1_565 S
C1181 C1179 1.415 . S
C1182 H1172 0.930 . S
C1182 C1180 1.419 . S
C1182 C1183 1.362 . S
C1183 H1173 0.930 . S
C1183 C1176 1.409 . S
C1183 C1182 1.362 . S
H1184 C1190 0.930 . S
H1185 C1193 0.930 . S
H1186 C1194 0.930 . S
H1187 C1195 0.930 . S
H1188 C1198 0.930 . S
H1189 C1199 0.930 . S
C1190 H1184 0.930 . S
C1190 C1191 1.355 . S
C1190 C1192 1.415 . S
C1191 C1190 1.355 . S
C1191 C1193 1.419 . S
C1192 C1190 1.415 . S
C1192 C1197 1.425 . S
C1192 C1199 1.409 . S
C1193 H1185 0.930 . S
C1193 C1191 1.419 . S
C1193 C1194 1.362 . S
C1194 H1186 0.930 . S
C1194 C1193 1.362 . S
C1194 C1197 1.409 . S
C1195 H1187 0.930 . S
C1195 C1196 1.355 . S
C1195 C1197 1.415 . S
C1196 C1195 1.355 . S
C1196 C1198 1.419 . S
C1197 C1192 1.425 . S
C1197 C1194 1.409 . S
C1197 C1195 1.415 . S
C1198 H1188 0.930 . S
C1198 C1196 1.419 . S
C1198 C1199 1.362 . S
C1199 H1189 0.930 . S
C1199 C1192 1.409 . S
C1199 C1198 1.362 . S
H1200 C1206 0.930 . S
H1201 C1209 0.930 . S
H1202 C1210 0.930 . S
H1203 C1211 0.930 . S
H1204 C1214 0.930 . S
H1205 C1215 0.930 . S
C1206 H1200 0.930 . S
C1206 C1207 1.355 . S
C1206 C1208 1.415 . S
C1207 C1206 1.355 . S
C1207 C1209 1.419 . S
C1208 C1206 1.415 . S
C1208 C1213 1.425 . S
C1208 C1215 1.409 . S
C1209 H1201 0.930 . S
C1209 C1207 1.419 . S
C1209 C1210 1.362 . S
C1210 H1202 0.930 . S
C1210 C1209 1.362 . S
C1210 C1213 1.409 . S
C1211 H1203 0.930 . S
C1211 C1212 1.355 . S
C1211 C1213 1.415 . S
C1212 C1211 1.355 . S
C1212 C1214 1.419 . S
C1213 C1208 1.425 . S
C1213 C1210 1.409 . S
C1213 C1211 1.415 . S
C1214 H1204 0.930 . S
C1214 C1212 1.419 . S
C1214 C1215 1.362 . S
C1215 H1205 0.930 . S
C1215 C1208 1.409 . S
C1215 C1214 1.362 . S
H1216 C1222 0.930 . S
H1217 C1225 0.930 . S
H1218 C1226 0.930 . S
H1219 C1227 0.930 . S
H1220 C1230 0.930 . S
H1221 C1231 0.930 . S
C1222 H1216 0.930 . S
C1222 C1223 1.355 . S
C1222 C1224 1.415 . S
C1223 C1222 1.355 . S
C1223 C1225 1.419 1_655 S
C1224 C1222 1.415 . S
C1224 C1229 1.425 . S
C1224 C1231 1.409 . S
C1225 H1217 0.930 . S
C1225 C1223 1.419 1_455 S
C1225 C1226 1.362 . S
C1226 H1218 0.930 . S
C1226 C1225 1.362 . S
C1226 C1229 1.409 1_455 S
C1227 H1219 0.930 . S
C1227 C1228 1.355 . S
C1227 C1229 1.415 . S
C1228 C1227 1.355 . S
C1228 C1230 1.419 . S
C1229 C1224 1.425 . S
C1229 C1226 1.409 1_655 S
C1229 C1227 1.415 . S
C1230 H1220 0.930 . S
C1230 C1228 1.419 . S
C1230 C1231 1.362 . S
C1231 H1221 0.930 . S
C1231 C1224 1.409 . S
C1231 C1230 1.362 . S
H1232 C1238 0.930 . S
H1233 C1241 0.930 . S
H1234 C1242 0.930 . S
H1235 C1243 0.930 . S
H1236 C1246 0.930 . S
H1237 C1247 0.930 . S
C1238 H1232 0.930 . S
C1238 C1239 1.355 1_565 S
C1238 C1240 1.415 . S
C1239 C1238 1.355 1_545 S
C1239 C1241 1.419 . S
C1240 C1238 1.415 . S
C1240 C1245 1.425 1_565 S
C1240 C1247 1.409 . S
C1241 H1233 0.930 . S
C1241 C1239 1.419 . S
C1241 C1242 1.362 . S
C1242 H1234 0.930 . S
C1242 C1241 1.362 . S
C1242 C1245 1.409 . S
C1243 H1235 0.930 . S
C1243 C1244 1.355 1_545 S
C1243 C1245 1.415 . S
C1244 C1243 1.355 1_565 S
C1244 C1246 1.419 . S
C1245 C1240 1.425 1_545 S
C1245 C1242 1.409 . S
C1245 C1243 1.415 . S
C1246 H1236 0.930 . S
C1246 C1244 1.419 . S
C1246 C1247 1.362 . S
C1247 H1237 0.930 . S
C1247 C1240 1.409 . S
C1247 C1246 1.362 . S
H1248 C1254 0.930 . S
H1249 C1257 0.930 . S
H1250 C1258 0.930 . S
H1251 C1259 0.930 . S
H1252 C1262 0.930 . S
H1253 C1263 0.930 . S
C1254 H1248 0.930 . S
C1254 C1255 1.355 . S
C1254 C1256 1.415 . S
C1255 C1254 1.355 . S
C1255 C1257 1.419 . S
C1256 C1254 1.415 . S
C1256 C1261 1.425 . S
C1256 C1263 1.409 . S
C1257 H1249 0.930 . S
C1257 C1255 1.419 . S
C1257 C1258 1.362 . S
C1258 H1250 0.930 . S
C1258 C1257 1.362 . S
C1258 C1261 1.409 . S
C1259 H1251 0.930 . S
C1259 C1260 1.355 . S
C1259 C1261 1.415 . S
C1260 C1259 1.355 . S
C1260 C1262 1.419 . S
C1261 C1256 1.425 . S
C1261 C1258 1.409 . S
C1261 C1259 1.415 . S
C1262 H1252 0.930 . S
C1262 C1260 1.419 . S
C1262 C1263 1.362 . S
C1263 H1253 0.930 . S
C1263 C1256 1.409 . S
C1263 C1262 1.362 . S
H1264 C1270 0.930 . S
H1265 C1273 0.930 . S
H1266 C1274 0.930 . S
H1267 C1275 0.930 . S
H1268 C1278 0.930 . S
H1269 C1279 0.930 . S
C1270 H1264 0.930 . S
C1270 C1271 1.355 1_554 S
C1270 C1272 1.415 . S
C1271 C1270 1.355 1_556 S
C1271 C1273 1.419 . S
C1272 C1270 1.415 . S
C1272 C1277 1.425 1_554 S
C1272 C1279 1.409 . S
C1273 H1265 0.930 . S
C1273 C1271 1.419 . S
C1273 C1274 1.362 . S
C1274 H1266 0.930 . S
C1274 C1273 1.362 . S
C1274 C1277 1.409 . S
C1275 H1267 0.930 . S
C1275 C1276 1.355 1_556 S
C1275 C1277 1.415 . S
C1276 C1275 1.355 1_554 S
C1276 C1278 1.419 . S
C1277 C1272 1.425 1_556 S
C1277 C1274 1.409 . S
C1277 C1275 1.415 . S
C1278 H1268 0.930 . S
C1278 C1276 1.419 . S
C1278 C1279 1.362 . S
C1279 H1269 0.930 . S
C1279 C1272 1.409 . S
C1279 C1278 1.362 . S
H1280 C1286 0.930 . S
H1281 C1289 0.930 . S
H1282 C1290 0.930 1_565 S
H1283 C1291 0.930 . S
H1284 C1294 0.930 . S
H1285 C1295 0.930 . S
C1286 H1280 0.930 . S
C1286 C1287 1.355 1_455 S
C1286 C1288 1.415 1_545 S
C1287 C1286 1.355 1_655 S
C1287 C1289 1.419 . S
C1288 C1286 1.415 1_565 S
C1288 C1293 1.425 1_455 S
C1288 C1295 1.409 . S
C1289 H1281 0.930 . S
C1289 C1287 1.419 . S
C1289 C1290 1.362 . S
C1290 H1282 0.930 1_545 S
C1290 C1289 1.362 . S
C1290 C1293 1.409 1_545 S
C1291 H1283 0.930 . S
C1291 C1292 1.355 1_655 S
C1291 C1293 1.415 . S
C1292 C1291 1.355 1_455 S
C1292 C1294 1.419 . S
C1293 C1288 1.425 1_655 S
C1293 C1290 1.409 1_565 S
C1293 C1291 1.415 . S
C1294 H1284 0.930 . S
C1294 C1292 1.419 . S
C1294 C1295 1.362 . S
C1295 H1285 0.930 . S
C1295 C1288 1.409 . S
C1295 C1294 1.362 . S
H1296 C1302 0.930 . S
H1297 C1305 0.930 . S
H1298 C1306 0.930 . S
H1299 C1307 0.930 . S
H1300 C1310 0.930 . S
H1301 C1311 0.930 . S
C1302 H1296 0.930 . S
C1302 C1303 1.355 . S
C1302 C1304 1.415 . S
C1303 C1302 1.355 . S
C1303 C1305 1.419 1_565 S
C1304 C1302 1.415 . S
C1304 C1309 1.420 1_565 S
C1304 C1311 1.409 . S
C1305 H1297 0.930 . S
C1305 C1303 1.419 1_545 S
C1305 C1306 1.362 . S
C1306 H1298 0.930 . S
C1306 C1305 1.362 . S
C1306 C1309 1.414 . S
C1307 H1299 0.930 . S
C1307 C1308 1.355 1_545 S
C1307 C1309 1.416 . S
C1308 C1307 1.355 1_565 S
C1308 C1310 1.419 . S
C1309 C1304 1.420 1_545 S
C1309 C1306 1.414 . S
C1309 C1307 1.416 . S
C1310 H1300 0.930 . S
C1310 C1308 1.419 . S
C1310 C1311 1.362 . S
C1311 H1301 0.930 . S
C1311 C1304 1.409 . S
C1311 C1310 1.362 . S
H1312 C1318 0.930 . S
H1313 C1321 0.930 . S
H1314 C1322 0.930 . S
H1315 C1323 0.930 . S
H1316 C1326 0.930 . S
H1317 C1327 0.930 . S
C1318 H1312 0.930 . S
C1318 C1319 1.355 1_545 S
C1318 C1320 1.415 . S
C1319 C1318 1.355 1_565 S
C1319 C1321 1.419 . S
C1320 C1318 1.415 . S
C1320 C1325 1.425 . S
C1320 C1327 1.409 . S
C1321 H1313 0.930 . S
C1321 C1319 1.419 . S
C1321 C1322 1.362 1_565 S
C1322 H1314 0.930 . S
C1322 C1321 1.362 1_545 S
C1322 C1325 1.409 . S
C1323 H1315 0.930 . S
C1323 C1324 1.355 . S
C1323 C1325 1.415 . S
C1324 C1323 1.355 . S
C1324 C1326 1.419 . S
C1325 C1320 1.425 . S
C1325 C1322 1.409 . S
C1325 C1323 1.415 . S
C1326 H1316 0.930 . S
C1326 C1324 1.419 . S
C1326 C1327 1.362 . S
C1327 H1317 0.930 . S
C1327 C1320 1.409 . S
C1327 C1326 1.362 . S
H1328 C1334 0.930 . S
H1329 C1337 0.930 . S
H1330 C1338 0.930 . S
H1331 C1339 0.930 . S
H1332 C1342 0.930 . S
H1333 C1343 0.930 . S
C1334 H1328 0.930 . S
C1334 C1335 1.355 . S
C1334 C1336 1.415 . S
C1335 C1334 1.355 . S
C1335 C1337 1.419 . S
C1336 C1334 1.415 . S
C1336 C1341 1.425 . S
C1336 C1343 1.409 . S
C1337 H1329 0.930 . S
C1337 C1335 1.419 . S
C1337 C1338 1.362 . S
C1338 H1330 0.930 . S
C1338 C1337 1.362 . S
C1338 C1341 1.409 . S
C1339 H1331 0.930 . S
C1339 C1340 1.355 . S
C1339 C1341 1.415 . S
C1340 C1339 1.355 . S
C1340 C1342 1.419 . S
C1341 C1336 1.425 . S
C1341 C1338 1.409 . S
C1341 C1339 1.415 . S
C1342 H1332 0.930 . S
C1342 C1340 1.419 . S
C1342 C1343 1.362 . S
C1343 H1333 0.930 . S
C1343 C1336 1.409 . S
C1343 C1342 1.362 . S
H1344 C1350 0.930 . S
H1345 C1353 0.930 . S
H1346 C1354 0.930 . S
H1347 C1355 0.930 . S
H1348 C1358 0.930 . S
H1349 C1359 0.930 . S
C1350 H1344 0.930 . S
C1350 C1351 1.355 1_455 S
C1350 C1352 1.415 . S
C1351 C1350 1.355 1_655 S
C1351 C1353 1.419 . S
C1352 C1350 1.415 . S
C1352 C1357 1.425 1_455 S
C1352 C1359 1.409 . S
C1353 H1345 0.930 . S
C1353 C1351 1.419 . S
C1353 C1354 1.362 . S
C1354 H1346 0.930 . S
C1354 C1353 1.362 . S
C1354 C1357 1.409 . S
C1355 H1347 0.930 . S
C1355 C1356 1.355 1_655 S
C1355 C1357 1.415 . S
C1356 C1355 1.355 1_455 S
C1356 C1358 1.419 . S
C1357 C1352 1.425 1_655 S
C1357 C1354 1.409 . S
C1357 C1355 1.415 . S
C1358 H1348 0.930 . S
C1358 C1356 1.419 . S
C1358 C1359 1.362 . S
C1359 H1349 0.930 . S
C1359 C1352 1.409 . S
C1359 C1358 1.362 . S
C855 C303 1.050 . S
C860 C29 1.069 . S
C871 C347 1.270 . S
C876 C91 1.355 . S
C887 C135 1.072 . S
C892 C409 1.095 . S
C903 C197 0.711 . S
C908 C241 0.756 . S
C919 C453 1.221 . S
C924 C718 1.187 . S
C935 C771 1.521 . S
C940 C506 1.539 . S
C951 C824 1.360 . S
C956 C559 1.306 . S
C967 C612 0.899 . S
C972 C665 0.939 . S
C983 C22 2.315 . S
C988 C675 2.385 1_565 S
C999 C728 2.248 . S
C1004 C92 2.203 . S
C1015 C128 2.643 . S
C1020 C781 2.737 . S
C1031 C198 2.044 . S
C1036 C834 2.033 . S
C1047 C234 2.406 . S
C1052 C463 2.484 1_545 S
C1063 C304 2.513 . S
C1068 C516 2.538 . S
C1079 C340 2.466 . S
C1084 C569 2.507 . S
C1095 C410 1.789 . S
C1100 C622 1.790 1_455 S
C1111 C251 1.374 . S
C1116 C446 1.422 . S
C1127 C287 2.123 . S
C1132 C499 2.077 . S
C1143 C357 2.274 . S
C1148 C552 2.209 . S
C1159 C605 2.057 . S
C1164 C393 2.091 1_455 S
C1175 C39 1.706 . S
C1180 C658 1.722 . S
C1191 C711 2.267 . S
C1196 C75 2.330 . S
C1207 C764 1.843 . S
C1212 C145 1.893 . S
C1223 C181 2.031 1_655 S
C1228 C817 2.018 . S
C1239 C462 1.619 . S
C1244 C38 1.653 1_565 S
C1255 C515 2.146 . S
C1260 C82 2.075 . S
C1271 C144 2.491 1_456 S
C1276 C568 2.437 . S
C1287 C621 2.015 . S
C1292 C188 1.975 . S
C1303 C250 1.993 1_655 S
C1308 C674 1.933 . S
C1319 C727 2.515 . S
C1324 C294 2.434 . S
C1335 C780 2.045 . S
C1340 C356 2.081 . S
C1351 C833 1.657 . S
C1356 C400 1.633 . S
