# Generated by pormake.
# Topology smm, (6)-cn, num edge types: 1
# Building blocks:
#     Node 0, Type 0, BuildingBlock: PAMTOO_clean_sbu_0, # of connection points: 6
#     Node 1, Type 0, BuildingBlock: PAMTOO_clean_sbu_0, # of connection points: 6
#     Node 2, Type 0, BuildingBlock: PAMTOO_clean_sbu_0, # of connection points: 6
#     Node 3, Type 0, BuildingBlock: PAMTOO_clean_sbu_0, # of connection points: 6
#     Node 4, Type 0, BuildingBlock: PAMTOO_clean_sbu_0, # of connection points: 6
#     Node 5, Type 0, BuildingBlock: PAMTOO_clean_sbu_0, # of connection points: 6
#     Node 6, Type 0, BuildingBlock: PAMTOO_clean_sbu_0, # of connection points: 6
#     Node 7, Type 0, BuildingBlock: PAMTOO_clean_sbu_0, # of connection points: 6
#     Node 8, Type 0, BuildingBlock: PAMTOO_clean_sbu_0, # of connection points: 6
#     Edge 9, Type (0, 0), BuildingBlock: TEMPAE_clean_linker_10, # of connection points: 2
#     Edge 10, Type (0, 0), BuildingBlock: TEMPAE_clean_linker_10, # of connection points: 2
#     Edge 11, Type (0, 0), BuildingBlock: TEMPAE_clean_linker_10, # of connection points: 2
#     Edge 12, Type (0, 0), BuildingBlock: TEMPAE_clean_linker_10, # of connection points: 2
#     Edge 13, Type (0, 0), BuildingBlock: TEMPAE_clean_linker_10, # of connection points: 2
#     Edge 14, Type (0, 0), BuildingBlock: TEMPAE_clean_linker_10, # of connection points: 2
#     Edge 15, Type (0, 0), BuildingBlock: TEMPAE_clean_linker_10, # of connection points: 2
#     Edge 16, Type (0, 0), BuildingBlock: TEMPAE_clean_linker_10, # of connection points: 2
#     Edge 17, Type (0, 0), BuildingBlock: TEMPAE_clean_linker_10, # of connection points: 2
#     Edge 18, Type (0, 0), BuildingBlock: TEMPAE_clean_linker_10, # of connection points: 2
#     Edge 19, Type (0, 0), BuildingBlock: TEMPAE_clean_linker_10, # of connection points: 2
#     Edge 20, Type (0, 0), BuildingBlock: TEMPAE_clean_linker_10, # of connection points: 2
#     Edge 21, Type (0, 0), BuildingBlock: TEMPAE_clean_linker_10, # of connection points: 2
#     Edge 22, Type (0, 0), BuildingBlock: TEMPAE_clean_linker_10, # of connection points: 2
#     Edge 23, Type (0, 0), BuildingBlock: TEMPAE_clean_linker_10, # of connection points: 2
#     Edge 24, Type (0, 0), BuildingBlock: TEMPAE_clean_linker_10, # of connection points: 2
#     Edge 25, Type (0, 0), BuildingBlock: TEMPAE_clean_linker_10, # of connection points: 2
#     Edge 26, Type (0, 0), BuildingBlock: TEMPAE_clean_linker_10, # of connection points: 2
#     Edge 27, Type (0, 0), BuildingBlock: TEMPAE_clean_linker_10, # of connection points: 2
#     Edge 28, Type (0, 0), BuildingBlock: TEMPAE_clean_linker_10, # of connection points: 2
#     Edge 29, Type (0, 0), BuildingBlock: TEMPAE_clean_linker_10, # of connection points: 2
#     Edge 30, Type (0, 0), BuildingBlock: TEMPAE_clean_linker_10, # of connection points: 2
#     Edge 31, Type (0, 0), BuildingBlock: TEMPAE_clean_linker_10, # of connection points: 2
#     Edge 32, Type (0, 0), BuildingBlock: TEMPAE_clean_linker_10, # of connection points: 2
#     Edge 33, Type (0, 0), BuildingBlock: TEMPAE_clean_linker_10, # of connection points: 2
#     Edge 34, Type (0, 0), BuildingBlock: TEMPAE_clean_linker_10, # of connection points: 2
#     Edge 35, Type (0, 0), BuildingBlock: TEMPAE_clean_linker_10, # of connection points: 2
# Relax obj value: 0.051
# Max RMSD: 0.133
# Mean RMSD: 0.133
data_MOF--net-smm--node1-PAMTOO_clean_sbu_0--edge1-TEMPAE_clean_linker_10
_symmetry_space_group_name_H-M    P1
_symmetry_Int_Tables_number       1
_symmetry_cell_setting            triclinic
loop_
_symmetry_equiv_pos_as_xyz
'x, y, z'
_cell_length_a     71.277849
_cell_length_b     71.330396
_cell_length_c     14.682554
_cell_angle_alpha  90.125052
_cell_angle_beta   89.943265
_cell_angle_gamma 120.07155
loop_
_atom_site_label
_atom_site_type_symbol
_atom_site_fract_x
_atom_site_fract_y
_atom_site_fract_z
_atom_type_partial_charge
Dy0 Dy 1.01281 0.16924 0.03598 0.0
Dy1 Dy 0.05814 0.2181 0.01125 0.0
C2 C 0.04486 0.19349 0.19646 0.0
O3 O 1.002 0.19377 0.02707 0.0
O4 O 0.03322 0.22476 0.07102 0.0
O5 O 0.99323 0.14091 0.11759 0.0
O6 O 0.9814 0.14466 -0.01353 0.0
O7 O 0.03601 0.20864 0.89324 0.0
O8 O 0.02504 0.17291 0.89549 0.0
O9 O 0.06846 0.19369 -0.01927 0.0
O10 O 0.03976 0.16179 0.03688 0.0
O11 O 0.08346 0.24017 0.92011 0.0
O12 O 0.08205 0.24983 0.05932 0.0
C13 C 1.01211 0.21384 0.05787 0.0
O14 O 0.02477 0.18532 0.16906 0.0
O15 O 0.06127 0.20454 0.14181 0.0
C16 C 0.96928 0.10892 0.03845 0.0
C17 C 0.95256 0.06402 0.01442 0.0
C18 C 0.94003 0.07181 0.05622 0.0
C19 C 0.94832 0.09402 0.06807 0.0
C20 C 0.98184 0.10137 -0.00459 0.0
C21 C 0.9735 0.07906 -0.01685 0.0
C22 C 0.97786 0.13209 0.05672 0.0
C23 C 0.03145 0.19083 0.85037 0.0
C24 C 0.05967 0.17313 0.00466 0.0
C25 C 0.09662 0.27765 0.94642 0.0
C26 C 0.11001 0.32032 0.88755 0.0
C27 C 0.09651 0.31158 0.9642 0.0
C28 C 0.08983 0.29045 -0.00676 0.0
C29 C 0.10979 0.28625 0.86904 0.0
C30 C 0.11634 0.30729 0.83968 0.0
C31 C 0.09133 0.25594 -0.02039 0.0
H32 H 0.92375 0.0607 0.07982 0.0
H33 H 0.93841 0.09958 0.1014 0.0
H34 H 0.99813 0.11269 0.97252 0.0
H35 H 0.98361 0.07357 0.95129 0.0
H36 H 0.09116 0.32111 0.00193 0.0
H37 H 0.07963 0.2843 0.05304 0.0
H38 H 0.11539 0.2768 0.83214 0.0
H39 H 0.12692 0.3136 0.78104 0.0
Dy40 Dy 0.88847 0.85789 0.01439 0.0
Dy41 Dy 0.83966 0.85487 -0.00634 0.0
C42 C 0.86512 0.86603 0.17675 0.0
O43 O 0.86361 0.82262 0.00335 0.0
O44 O 0.83301 0.8231 0.0511 0.0
O45 O 0.91676 0.86603 0.09524 0.0
O46 O 0.91312 0.85147 0.96161 0.0
O47 O 0.84833 0.84243 0.87253 0.0
O48 O 0.88437 0.8666 0.87503 0.0
O49 O 0.86436 0.8895 0.96233 0.0
O50 O 0.89621 0.89238 0.01722 0.0
O51 O 0.81698 0.85814 0.90725 0.0
O52 O 0.80855 0.84779 0.0478 0.0
C53 C 0.84365 0.81273 0.03546 0.0
O54 O 0.87283 0.85379 0.14843 0.0
O55 O 0.85435 0.87179 0.12272 0.0
C56 C 0.94894 0.87478 0.01556 0.0
C57 C 0.99415 0.90294 -0.00154 0.0
C58 C 0.97964 0.91074 -0.0136 0.0
C59 C 0.95721 0.89677 -0.00485 0.0
C60 C 0.96328 0.86688 0.02515 0.0
C61 C 0.98563 0.88077 0.01669 0.0
C62 C 0.92566 0.86003 0.0325 0.0
C63 C 0.86628 0.85551 0.8301 0.0
C64 C 0.88499 0.90112 -0.0141 0.0
C65 C 0.77955 0.83591 0.94253 0.0
C66 C 0.73612 0.80771 0.88889 0.0
C67 C 0.75304 0.80485 0.85496 0.0
C68 C 0.77458 0.81881 0.88172 0.0
C69 C 0.76275 0.83871 0.97672 0.0
C70 C 0.7413 0.8248 0.95028 0.0
C71 C 0.80202 0.85141 0.97017 0.0
H72 H 0.98567 0.92773 0.9729 0.0
H73 H 0.94636 0.9032 -0.01217 0.0
H74 H 0.9572 0.84996 0.04084 0.0
H75 H 0.99629 0.87416 0.0249 0.0
H76 H 0.7496 0.79174 0.80831 0.0
H77 H 0.78731 0.81632 0.85471 0.0
H78 H 0.76627 0.85186 0.0234 0.0
H79 H 0.72879 0.82771 0.97673 0.0
Dy80 Dy 0.20075 0.04606 0.0271 0.0
Dy81 Dy 0.20413 1.00084 -0.00064 0.0
C82 C 0.19351 1.01418 0.18602 0.0
O83 O 0.23611 0.05697 0.01358 0.0
O84 O 0.23612 0.0259 0.05634 0.0
O85 O 0.19263 0.0657 0.11189 0.0
O86 O 0.20712 0.07734 -0.02119 0.0
O87 O 0.21633 0.02279 0.88089 0.0
O88 O 0.19164 0.03386 0.88671 0.0
O89 O 0.1693 0.99071 0.97056 0.0
O90 O 0.16628 0.01908 0.03164 0.0
O91 O 0.19969 0.97501 0.90847 0.0
O92 O 0.21269 0.97732 0.04456 0.0
C93 C 0.24629 0.04698 0.04279 0.0
O94 O 0.20574 0.03418 0.15839 0.0
O95 O 0.18784 0.99771 0.13128 0.0
C96 C 0.1839 0.08946 0.03632 0.0
C97 C 0.15545 0.10601 0.01816 0.0
C98 C 0.17552 0.1181 0.06261 0.0
C99 C 0.18957 0.10989 0.07155 0.0
C100 C 0.16403 0.07735 -0.00917 0.0
C101 C 0.14994 0.08561 -0.01849 0.0
C102 C 0.19866 0.08096 0.05102 0.0
C103 C 0.20299 0.0275 0.83987 0.0
C104 C 0.15758 0.99933 -0.00236 0.0
C105 C 0.22389 0.96163 0.92846 0.0
C106 C 0.25263 0.94844 0.86035 0.0
C107 C 0.23045 0.93688 0.8381 0.0
C108 C 0.21627 0.9434 0.87189 0.0
C109 C 0.24608 0.97349 0.94994 0.0
C110 C 0.26031 0.9669 0.91641 0.0
C111 C 0.20818 0.96738 0.96589 0.0
H112 H 0.18042 0.13398 0.09039 0.0
H113 H 0.20485 0.11945 0.10684 0.0
H114 H 0.15935 0.06147 0.96363 0.0
H115 H 0.13453 0.07584 0.94751 0.0
H116 H 0.22392 0.92244 0.79623 0.0
H117 H 0.19921 0.93398 0.85473 0.0
H118 H 0.25239 0.98771 -0.0069 0.0
H119 H 0.27733 0.97629 0.93408 0.0
Dy120 Dy 0.67814 0.50588 0.37179 0.0
Dy121 Dy 0.7242 0.55425 0.34975 0.0
C122 C 0.70951 0.52937 0.53352 0.0
O123 O 0.66808 0.53084 0.35596 0.0
O124 O 0.69912 0.56133 0.40464 0.0
O125 O 0.65764 0.47796 0.45411 0.0
O126 O 0.64692 0.48144 0.32001 0.0
O127 O 0.7034 0.54516 0.22759 0.0
O128 O 0.69111 0.50908 0.23303 0.0
O129 O 0.73397 0.5293 0.32172 0.0
O130 O 0.70461 0.49775 0.37683 0.0
O131 O 0.75048 0.57639 0.26315 0.0
O132 O 0.74817 0.58561 0.40211 0.0
C133 C 0.67817 0.55085 0.38732 0.0
O134 O 0.68967 0.52215 0.50475 0.0
O135 O 0.7262 0.53994 0.47987 0.0
C136 C 0.63411 0.44581 0.37503 0.0
C137 C 0.61734 0.40082 0.35338 0.0
C138 C 0.60511 0.40872 0.39708 0.0
C139 C 0.61343 0.43098 0.40773 0.0
C140 C 0.64637 0.43813 0.33034 0.0
C141 C 0.63801 0.41579 0.31927 0.0
C142 C 0.64272 0.46906 0.39145 0.0
C143 C 0.69838 0.52698 0.18675 0.0
C144 C 0.7247 0.50873 0.34619 0.0
C145 C 0.76491 0.61383 0.29386 0.0
C146 C 0.77884 0.65655 0.23492 0.0
C147 C 0.7589 0.63913 0.20502 0.0
C148 C 0.75196 0.61794 0.23445 0.0
C149 C 0.78469 0.63113 0.32399 0.0
C150 C 0.7916 0.65225 0.29493 0.0
C151 C 0.75845 0.59175 0.32453 0.0
H152 H 0.58904 0.39768 0.42295 0.0
H153 H 0.60374 0.43662 0.44239 0.0
H154 H 0.66246 0.44938 0.30511 0.0
H155 H 0.6479 0.41022 0.28596 0.0
H156 H 0.74859 0.6419 0.15952 0.0
H157 H 0.73656 0.60479 0.21068 0.0
H158 H 0.79494 0.62828 0.36962 0.0
H159 H 0.80717 0.66519 0.31828 0.0
Dy160 Dy 0.55604 0.19541 0.35776 0.0
Dy161 Dy 0.50665 0.19105 0.33969 0.0
C162 C 0.53266 0.2033 0.52191 0.0
O163 O 0.53171 0.1599 0.34994 0.0
O164 O 0.50116 0.16002 0.40068 0.0
O165 O 0.58503 0.20443 0.43497 0.0
O166 O 0.58082 0.18957 0.30159 0.0
O167 O 0.51536 0.17861 0.21878 0.0
O168 O 0.55106 0.20372 0.21904 0.0
O169 O 0.53054 0.22593 0.30812 0.0
O170 O 0.56297 0.22964 0.36 0.0
O171 O 0.48342 0.19357 0.25398 0.0
O172 O 0.47521 0.1828 0.39415 0.0
C173 C 0.51199 0.14988 0.38459 0.0
O174 O 0.54129 0.19184 0.49366 0.0
O175 O 0.52133 0.2084 0.46796 0.0
C176 C 0.61689 0.21463 0.34831 0.0
C177 C 0.6617 0.24315 0.31911 0.0
C178 C 0.64846 0.25095 0.35368 0.0
C179 C 0.62625 0.23685 0.36782 0.0
C180 C 0.62997 0.20692 0.31198 0.0
C181 C 0.65211 0.22101 0.29726 0.0
C182 C 0.59396 0.19904 0.37 0.0
C183 C 0.53294 0.19206 0.1751 0.0
C184 C 0.55125 0.23795 0.33008 0.0
C185 C 0.44623 0.1698 0.28832 0.0
C186 C 0.40333 0.14003 0.23285 0.0
C187 C 0.42099 0.13852 0.19827 0.0
C188 C 0.44226 0.15326 0.22593 0.0
C189 C 0.42869 0.17124 0.32328 0.0
C190 C 0.4075 0.15655 0.29595 0.0
C191 C 0.46838 0.18611 0.31665 0.0
H192 H 0.65529 0.26795 0.37015 0.0
H193 H 0.61651 0.24328 0.3954 0.0
H194 H 0.62312 0.18985 0.29676 0.0
H195 H 0.66186 0.21443 0.27143 0.0
H196 H 0.41836 0.12588 0.15029 0.0
H197 H 0.45557 0.1518 0.19831 0.0
H198 H 0.43142 0.18394 0.37121 0.0
H199 H 0.39439 0.15843 0.32297 0.0
Dy200 Dy 0.86741 0.38122 0.30053 0.0
Dy201 Dy 0.87116 0.33614 0.28804 0.0
C202 C 0.87004 0.35772 0.47317 0.0
O203 O 0.90146 0.39153 0.34381 0.0
O204 O 0.90576 0.36335 0.28901 0.0
O205 O 0.8671 0.40728 0.37526 0.0
O206 O 0.86252 0.40474 0.22858 0.0
O207 O 0.86744 0.34756 0.15333 0.0
O208 O 0.8867 0.38369 0.17898 0.0
O209 O 0.83659 0.32545 0.31981 0.0
O210 O 0.83524 0.35392 0.25412 0.0
O211 O 0.87106 0.31222 0.19748 0.0
O212 O 0.87288 0.30889 0.3433 0.0
C213 C 0.91369 0.3829 0.32505 0.0
O214 O 0.85792 0.36426 0.4332 0.0
O215 O 0.87936 0.34878 0.42799 0.0
C216 C 0.84593 0.42142 0.30918 0.0
C217 C 0.81632 0.43687 0.31961 0.0
C218 C 0.81906 0.426 0.39387 0.0
C219 C 0.83371 0.41832 0.38873 0.0
C220 C 0.84305 0.43212 0.23498 0.0
C221 C 0.8284 0.43968 0.23995 0.0
C222 C 0.86262 0.41491 0.30273 0.0
C223 C 0.88092 0.36715 0.12529 0.0
C224 C 0.82548 0.334 0.28599 0.0
C225 C 0.88952 0.29438 0.24643 0.0
C226 C 0.91936 0.28029 0.20814 0.0
C227 C 0.92394 0.29603 0.27586 0.0
C228 C 0.90918 0.30312 0.29455 0.0
C229 C 0.88494 0.27863 0.1794 0.0
C230 C 0.89969 0.27169 0.16028 0.0
C231 C 0.87349 0.30135 0.26297 0.0
H232 H 0.80987 0.42342 0.45597 0.0
H233 H 0.8356 0.4102 0.44724 0.0
H234 H 0.85245 0.43496 0.17326 0.0
H235 H 0.82698 0.44828 0.18206 0.0
H236 H 0.93904 0.30305 0.31341 0.0
H237 H 0.91316 0.31543 0.34614 0.0
H238 H 0.86987 0.27167 0.14156 0.0
H239 H 0.89554 0.25935 0.10867 0.0
Dy240 Dy 0.34404 0.83699 0.63703 0.0
Dy241 Dy 0.38882 0.88628 0.61931 0.0
C242 C 0.36835 0.8645 0.80591 0.0
O243 O 0.33334 0.86052 0.67777 0.0
O244 O 0.36123 0.89304 0.62199 0.0
O245 O 0.31815 0.81154 0.71657 0.0
O246 O 0.32062 0.80748 0.57108 0.0
O247 O 0.37753 0.86944 0.48749 0.0
O248 O 0.34138 0.85276 0.51255 0.0
O249 O 0.40029 0.86293 0.64897 0.0
O250 O 0.37124 0.83196 0.59132 0.0
O251 O 0.40976 0.91155 0.5272 0.0
O252 O 0.41802 0.91438 0.67066 0.0
C253 C 0.34171 0.88127 0.65797 0.0
O254 O 0.36236 0.84583 0.76671 0.0
O255 O 0.37647 0.88253 0.75952 0.0
C256 C 0.30381 0.77553 0.6604 0.0
C257 C 0.28769 0.73041 0.67096 0.0
C258 C 0.27612 0.73965 0.70967 0.0
C259 C 0.28409 0.76195 0.70427 0.0
C260 C 0.31582 0.76654 0.62416 0.0
C261 C 0.3078 0.74417 0.62925 0.0
C262 C 0.3104 0.7985 0.64662 0.0
C263 C 0.35795 0.86323 0.45877 0.0
C264 C 0.39155 0.84287 0.619 0.0
C265 C 0.42958 0.94704 0.587 0.0
C266 C 0.44513 0.99158 0.55666 0.0
C267 C 0.42352 0.97604 0.53604 0.0
C268 C 0.41579 0.95398 0.55133 0.0
C269 C 0.45088 0.96255 0.61071 0.0
C270 C 0.45858 0.9846 0.59601 0.0
C271 C 0.42287 0.92383 0.59118 0.0
H272 H 0.26049 0.72954 0.74138 0.0
H273 H 0.27451 0.76854 0.73211 0.0
H274 H 0.33113 0.77671 0.59015 0.0
H275 H 0.31726 0.73761 0.59987 0.0
H276 H 0.41267 0.98091 0.50687 0.0
H277 H 0.39924 0.94231 0.53276 0.0
H278 H 0.46182 0.95753 0.63777 0.0
H279 H 0.47533 0.99611 0.61202 0.0
Dy280 Dy 0.22003 0.52367 0.69553 0.0
Dy281 Dy 0.17107 0.5199 0.67079 0.0
C282 C 0.19541 0.53049 0.85669 0.0
O283 O 0.19581 0.48833 0.68061 0.0
O284 O 0.16466 0.48801 0.72593 0.0
O285 O 0.24768 0.53115 0.77952 0.0
O286 O 0.24567 0.51883 0.64237 0.0
O287 O 0.18097 0.50837 0.55043 0.0
O288 O 0.21666 0.53337 0.55693 0.0
O289 O 0.19555 0.55503 0.64646 0.0
O290 O 0.22721 0.55789 0.70349 0.0
O291 O 0.14946 0.52442 0.58191 0.0
O292 O 0.13878 0.51058 0.71679 0.0
C293 C 0.17567 0.47801 0.71058 0.0
O294 O 0.2035 0.5186 0.82804 0.0
O295 O 0.18426 0.53588 0.80304 0.0
C296 C 0.28105 0.54348 0.70026 0.0
C297 C 0.32621 0.5722 0.68037 0.0
C298 C 0.31479 0.57436 0.75398 0.0
C299 C 0.29251 0.56018 0.76388 0.0
C300 C 0.2924 0.54151 0.62587 0.0
C301 C 0.3147 0.55578 0.61575 0.0
C302 C 0.25781 0.52725 0.71456 0.0
C303 C 0.19897 0.52203 0.50988 0.0
C304 C 0.216 0.56667 0.67266 0.0
C305 C 0.11187 0.49965 0.60073 0.0
C306 C 0.06995 0.47099 0.53151 0.0
C307 C 0.08089 0.49307 0.50786 0.0
C308 C 0.10158 0.50721 0.5422 0.0
C309 C 0.1012 0.47754 0.62354 0.0
C310 C 0.0804 0.46336 0.58946 0.0
C311 C 0.13328 0.51537 0.63909 0.0
H312 H 0.32313 0.58699 0.80437 0.0
H313 H 0.28438 0.56215 0.82236 0.0
H314 H 0.28411 0.52866 0.57633 0.0
H315 H 0.32305 0.55354 0.5588 0.0
H316 H 0.07325 0.49957 0.4645 0.0
H317 H 0.10946 0.5242 0.52401 0.0
H318 H 0.10883 0.47125 0.66824 0.0
H319 H 0.07252 0.44642 0.60826 0.0
Dy320 Dy 0.5323 0.71485 0.68764 0.0
Dy321 Dy 0.53629 0.66966 0.6695 0.0
C322 C 0.52467 0.68401 0.85163 0.0
O323 O 0.56781 0.72606 0.67742 0.0
O324 O 0.56793 0.6954 0.72609 0.0
O325 O 0.52358 0.73494 0.7657 0.0
O326 O 0.53801 0.74538 0.63161 0.0
O327 O 0.54823 0.69024 0.54713 0.0
O328 O 0.5235 0.70132 0.54925 0.0
O329 O 0.50144 0.65873 0.63848 0.0
O330 O 0.49795 0.68755 0.69074 0.0
O331 O 0.53333 0.64352 0.58496 0.0
O332 O 0.54416 0.6464 0.72529 0.0
C333 C 0.57803 0.71635 0.70944 0.0
O334 O 0.53645 0.70401 0.82306 0.0
O335 O 0.51922 0.66746 0.79781 0.0
C336 C 0.51295 0.75623 0.67955 0.0
C337 C 0.48404 0.77199 0.65116 0.0
C338 C 0.47649 0.75105 0.68607 0.0
C339 C 0.49077 0.74319 0.69978 0.0
C340 C 0.52041 0.77692 0.64291 0.0
C341 C 0.50612 0.78471 0.62857 0.0
C342 C 0.52872 0.74913 0.70052 0.0
C343 C 0.53478 0.69453 0.50456 0.0
C344 C 0.48951 0.66745 0.66087 0.0
C345 C 0.55664 0.62977 0.62073 0.0
C346 C 0.58615 0.61626 0.56761 0.0
C347 C 0.58864 0.63603 0.53611 0.0
C348 C 0.57403 0.64277 0.56267 0.0
C349 C 0.55419 0.61016 0.65247 0.0
C350 C 0.56876 0.60346 0.62627 0.0
C351 C 0.5406 0.63596 0.6483 0.0
H352 H 0.45953 0.74075 0.7031 0.0
H353 H 0.48453 0.72709 0.72755 0.0
H354 H 0.53744 0.78727 0.62709 0.0
H355 H 0.5125 0.80098 0.60241 0.0
H356 H 0.60197 0.64636 0.49155 0.0
H357 H 0.57624 0.65803 0.53771 0.0
H358 H 0.54083 0.59989 0.69709 0.0
H359 H 0.56614 0.58802 0.65072 0.0
C360 C 0.11868 0.34855 0.76721 0.0
C361 C 0.11817 0.34318 0.85945 0.0
C362 C 0.12724 0.37019 0.73963 0.0
C363 C 0.13566 0.38692 0.80577 0.0
C364 C 0.13495 0.38159 0.89908 0.0
C365 C 0.12616 0.35981 0.92477 0.0
C366 C 0.12746 0.37516 0.63961 0.0
C367 C 0.1439 0.39894 0.97171 0.0
C368 C 0.17758 0.44414 0.73355 0.0
C369 C 0.16522 0.45446 0.73065 0.0
C370 C 0.16812 0.42215 0.75706 0.0
C371 C 0.1457 0.41007 0.77743 0.0
C372 C 0.13303 0.42025 0.77278 0.0
C373 C 0.14294 0.44232 0.74989 0.0
C374 C 0.18224 0.41194 0.76173 0.0
C375 C 0.10904 0.4079 0.79311 0.0
H376 H 0.11231 0.33577 0.71647 0.0
H377 H 0.12608 0.35583 -0.00397 0.0
H378 H 0.11895 0.3844 0.62832 0.0
H379 H 0.14441 0.38549 0.61608 0.0
H380 H 0.11962 0.36026 0.59708 0.0
H381 H 0.14171 0.39209 0.04135 0.0
H382 H 0.16145 0.41009 0.95988 0.0
H383 H 0.13579 0.40874 0.9682 0.0
H384 H 0.1948 0.45334 0.71917 0.0
H385 H 0.13319 0.45006 0.74739 0.0
H386 H 0.17576 0.39766 0.71587 0.0
H387 H 0.18203 0.4061 0.83191 0.0
H388 H 0.19931 0.42343 0.74234 0.0
H389 H 0.10082 0.39335 0.7489 0.0
H390 H 0.10129 0.41791 0.78266 0.0
H391 H 0.10635 0.40219 0.86469 0.0
C392 C 0.69625 0.78616 0.92372 0.0
C393 C 0.71316 0.7932 0.86004 0.0
C394 C 0.67447 0.7734 0.8972 0.0
C395 C 0.66935 0.76741 0.80462 0.0
C396 C 0.68633 0.77413 0.74015 0.0
C397 C 0.70801 0.78693 0.76859 0.0
C398 C 0.65691 0.76648 0.96828 0.0
C399 C 0.68157 0.76808 0.64085 0.0
C400 C 0.61339 0.71926 0.75445 0.0
C401 C 0.60165 0.72945 0.72955 0.0
C402 C 0.6355 0.73138 0.77715 0.0
C403 C 0.6462 0.7543 0.7755 0.0
C404 C 0.63456 0.76469 0.7491 0.0
C405 C 0.61247 0.75217 0.72624 0.0
C406 C 0.64733 0.71965 0.80433 0.0
C407 C 0.64533 0.78909 0.74674 0.0
H408 H 0.70007 0.79061 -0.00526 0.0
H409 H 0.72091 0.79247 0.7187 0.0
H410 H 0.646 0.77284 0.9506 0.0
H411 H 0.64687 0.74856 0.96979 0.0
H412 H 0.66358 0.77231 0.03754 0.0
H413 H 0.69658 0.77403 0.59974 0.0
H414 H 0.67173 0.75021 0.63349 0.0
H415 H 0.67188 0.77494 0.61244 0.0
H416 H 0.60529 0.70173 0.75679 0.0
H417 H 0.60361 0.76024 0.70726 0.0
H418 H 0.65301 0.72372 0.87579 0.0
H419 H 0.66189 0.72498 0.76099 0.0
H420 H 0.63696 0.70178 0.7984 0.0
H421 H 0.65097 0.79577 0.81606 0.0
H422 H 0.63425 0.79469 0.72181 0.0
H423 H 0.65982 0.7959 0.70204 0.0
C424 C 0.2657 0.93322 0.73719 0.0
C425 C 0.26743 0.9408 0.82687 0.0
C426 C 0.27845 0.92455 0.7064 0.0
C427 C 0.29332 0.92337 0.76666 0.0
C428 C 0.29557 0.9315 0.85655 0.0
C429 C 0.28263 0.94013 0.88552 0.0
C430 C 0.27562 0.91616 0.60995 0.0
C431 C 0.31118 0.93046 0.92305 0.0
C432 C 0.30854 0.88007 0.7227 0.0
C433 C 0.32908 0.89201 0.6822 0.0
C434 C 0.29678 0.89008 0.75015 0.0
C435 C 0.3057 0.91263 0.73705 0.0
C436 C 0.32635 0.92479 0.69576 0.0
C437 C 0.33777 0.91435 0.66879 0.0
C438 C 0.27481 0.8765 0.79382 0.0
C439 C 0.33645 0.94887 0.68086 0.0
H440 H 0.25424 0.93397 0.69101 0.0
H441 H 0.28392 0.94572 0.95516 0.0
H442 H 0.29147 0.92391 0.57426 0.0
H443 H 0.26946 0.89846 0.61076 0.0
H444 H 0.26413 0.91919 0.57034 0.0
H445 H 0.3121 0.93879 -0.01169 0.0
H446 H 0.306 0.9133 0.93785 0.0
H447 H 0.32765 0.93795 0.89298 0.0
H448 H 0.30163 0.86284 0.73382 0.0
H449 H 0.35365 0.9238 0.63803 0.0
H450 H 0.26229 0.87782 0.75414 0.0
H451 H 0.27489 0.88259 0.86348 0.0
H452 H 0.27006 0.85912 0.7984 0.0
H453 H 0.32561 0.95223 0.63836 0.0
H454 H 0.35253 0.95599 0.64707 0.0
H455 H 0.33846 0.95718 0.74713 0.0
C456 C 0.36351 0.11662 0.26543 0.0
C457 C 0.38066 0.12478 0.20254 0.0
C458 C 0.34191 0.10333 0.23742 0.0
C459 C 0.33723 0.09795 0.14411 0.0
C460 C 0.35447 0.10569 0.08049 0.0
C461 C 0.37596 0.11899 0.11042 0.0
C462 C 0.32405 0.09536 0.30762 0.0
C463 C 0.35019 0.1003 -0.01954 0.0
C464 C 0.28171 0.0498 0.0868 0.0
C465 C 0.26986 0.06 0.06386 0.0
C466 C 0.30374 0.06192 0.11107 0.0
C467 C 0.31422 0.08483 0.11308 0.0
C468 C 0.30248 0.09524 0.08855 0.0
C469 C 0.28051 0.08274 0.06403 0.0
C470 C 0.3157 0.05018 0.13608 0.0
C471 C 0.313 0.11962 0.09009 0.0
H472 H 0.36698 0.12068 0.33693 0.0
H473 H 0.38903 0.12537 0.06114 0.0
H474 H 0.31301 0.10165 0.29175 0.0
H475 H 0.31425 0.07741 0.30568 0.0
H476 H 0.33042 0.10049 0.37779 0.0
H477 H 0.3654 0.10665 0.94042 0.0
H478 H 0.34048 0.0825 0.97079 0.0
H479 H 0.34056 0.10729 0.95265 0.0
H480 H 0.27374 0.03226 0.0865 0.0
H481 H 0.27157 0.09084 0.04665 0.0
H482 H 0.32095 0.05354 0.20828 0.0
H483 H 0.33053 0.05616 0.09393 0.0
H484 H 0.30556 0.03237 0.12674 0.0
H485 H 0.31831 0.12571 0.16038 0.0
H486 H 0.30187 0.12526 0.06627 0.0
H487 H 0.32766 0.12698 0.04635 0.0
C488 C 0.94424 0.26678 0.25756 0.0
C489 C 0.93481 0.27256 0.18729 0.0
C490 C 0.95758 0.25795 0.23821 0.0
C491 C 0.96173 0.25502 0.1464 0.0
C492 C 0.95277 0.26144 0.07527 0.0
C493 C 0.93938 0.27004 0.09656 0.0
C494 C 0.96671 0.25119 0.31598 0.0
C495 C 0.95701 0.25886 0.97654 0.0
C496 C 1.00954 0.24695 0.09284 0.0
C497 C 0.99925 0.22444 0.07975 0.0
C498 C 0.99756 0.25714 0.11449 0.0
C499 C 0.97477 0.2445 0.12446 0.0
C500 C 0.96432 0.22177 0.11194 0.0
C501 C 0.97665 0.21204 0.08919 0.0
C502 C 1.00929 0.28144 0.12611 0.0
C503 C 0.94008 0.20768 0.1228 0.0
H504 H 0.94063 0.26851 0.32777 0.0
H505 H 0.93238 0.27476 0.04197 0.0
H506 H 0.9602 0.23343 0.31309 0.0
H507 H 0.98459 0.25913 0.3099 0.0
H508 H 0.96267 0.25532 0.38345 0.0
H509 H 0.94972 0.26562 0.92944 0.0
H510 H 0.97472 0.26706 0.96363 0.0
H511 H 0.95023 0.24144 0.96039 0.0
H512 H 0.02698 0.2567 0.08537 0.0
H513 H 0.96856 0.19463 0.07994 0.0
H514 H 1.00632 0.28565 0.19534 0.0
H515 H 1.00293 0.28865 0.07675 0.0
H516 H 0.02706 0.28895 0.11585 0.0
H517 H 0.93513 0.20994 0.19176 0.0
H518 H 0.93448 0.19021 0.11285 0.0
H519 H 0.93164 0.21254 0.07284 0.0
C520 C 0.81119 0.77778 0.08491 0.0
C521 C 0.83301 0.78925 0.05767 0.0
C522 C 0.80124 0.75587 0.11047 0.0
C523 C 0.8134 0.74512 0.10933 0.0
C524 C 0.8353 0.75646 0.08035 0.0
C525 C 0.84481 0.77833 0.05469 0.0
C526 C 0.77782 0.74434 0.14036 0.0
C527 C 0.84886 0.74563 0.0784 0.0
C528 C 0.79668 0.69658 0.26435 0.0
C529 C 0.78659 0.67913 0.20322 0.0
C530 C 0.80516 0.71806 0.23489 0.0
C531 C 0.80354 0.72229 0.14191 0.0
C532 C 0.79298 0.70475 0.08012 0.0
C533 C 0.78464 0.6834 0.11148 0.0
C534 C 0.81617 0.73625 0.30319 0.0
C535 C 0.79089 0.70857 -0.01951 0.0
H536 H 0.80185 0.78597 0.0871 0.0
H537 H 0.86167 0.78697 0.03393 0.0
H538 H 0.7683 0.72936 0.09964 0.0
H539 H 0.77666 0.7394 0.21268 0.0
H540 H 0.7703 0.75464 0.13321 0.0
H541 H 0.86539 0.75642 0.05099 0.0
H542 H 0.85037 0.74065 0.1483 0.0
H543 H 0.84083 0.73074 0.03606 0.0
H544 H 0.79795 0.69344 0.3356 0.0
H545 H 0.77707 0.67006 0.06357 0.0
H546 H 0.80828 0.74628 0.30349 0.0
H547 H 0.83336 0.74699 0.28354 0.0
H548 H 0.81567 0.73023 0.37336 0.0
H549 H 0.78289 0.71839 0.97272 0.0
H550 H 0.78143 0.69319 0.942 0.0
H551 H 0.80724 0.71789 0.94946 0.0
C552 C 0.04189 0.45772 0.40728 0.0
C553 C 0.04749 0.45627 0.49762 0.0
C554 C 1.02047 0.44507 0.376 0.0
C555 C 1.00415 0.43058 0.43643 0.0
C556 C 1.00977 0.4286 0.52702 0.0
C557 C 0.03135 0.44144 0.55646 0.0
C558 C 1.01521 0.4476 0.27881 0.0
C559 C 0.99285 0.41343 0.59377 0.0
C560 C 0.94589 0.41602 0.38918 0.0
C561 C 0.93707 0.39532 0.35004 0.0
C562 C 0.96765 0.42762 0.41724 0.0
C563 C 0.98103 0.41836 0.4062 0.0
C564 C 0.97232 0.39753 0.36639 0.0
C565 C 0.95047 0.38627 0.33874 0.0
C566 C 0.97627 0.44979 0.45932 0.0
C567 C 0.98603 0.38705 0.35376 0.0
H568 H 0.0543 0.46889 0.36096 0.0
H569 H 0.03545 0.44036 0.62659 0.0
H570 H 1.00697 0.43162 0.24415 0.0
H571 H 1.00387 0.454 0.27798 0.0
H572 H 0.0299 0.45876 0.2392 0.0
H573 H 1.00008 0.41251 0.65942 0.0
H574 H 0.98114 0.41902 0.60768 0.0
H575 H 0.98355 0.39689 0.56441 0.0
H576 H 0.93575 0.4232 0.39868 0.0
H577 H 0.94386 0.37026 0.30916 0.0
H578 H 0.99031 0.46201 0.41947 0.0
H579 H 0.98211 0.4499 0.52944 0.0
H580 H 0.96383 0.4548 0.4624 0.0
H581 H 1.00037 0.39753 0.3111 0.0
H582 H 0.97689 0.37084 0.32117 0.0
H583 H 0.99215 0.38526 0.42072 0.0
C584 C 0.60846 0.59886 0.60197 0.0
C585 C 0.60132 0.60868 0.53882 0.0
C586 C 0.62164 0.59037 0.57513 0.0
C587 C 0.62793 0.59175 0.48276 0.0
C588 C 0.62124 0.60211 0.41899 0.0
C589 C 0.60802 0.61045 0.44776 0.0
C590 C 0.6285 0.57957 0.64544 0.0
C591 C 0.62762 0.60393 0.31995 0.0
C592 C 0.67581 0.58359 0.43272 0.0
C593 C 0.6654 0.5617 0.40665 0.0
C594 C 0.66386 0.59374 0.45555 0.0
C595 C 0.64092 0.5817 0.4528 0.0
C596 C 0.63032 0.55972 0.42492 0.0
C597 C 0.64266 0.55002 0.40198 0.0
C598 C 0.67578 0.61723 0.48431 0.0
C599 C 0.60589 0.54629 0.42135 0.0
H600 H 0.60367 0.59774 0.67274 0.0
H601 H 0.60242 0.61782 0.39832 0.0
H602 H 0.622 0.56231 0.627 0.0
H603 H 0.64643 0.58737 0.64686 0.0
H604 H 0.62274 0.58035 0.71491 0.0
H605 H 0.62202 0.6134 0.27989 0.0
H606 H 0.6455 0.61177 0.31363 0.0
H607 H 0.62058 0.58752 0.28956 0.0
H608 H 0.69335 0.59283 0.43614 0.0
H609 H 0.63441 0.53311 0.38207 0.0
H610 H 0.67175 0.61866 0.55606 0.0
H611 H 0.67056 0.62667 0.44202 0.0
H612 H 0.69365 0.62464 0.47836 0.0
H613 H 0.5991 0.54503 0.49057 0.0
H614 H 0.60015 0.52968 0.39498 0.0
H615 H 0.59931 0.55426 0.37733 0.0
C616 C 0.51243 0.11485 0.39042 0.0
C617 C 0.50173 0.12649 0.40816 0.0
C618 C 0.50306 0.09288 0.41434 0.0
C619 C 0.48251 0.08224 0.45738 0.0
C620 C 0.47158 0.09385 0.47515 0.0
C621 C 0.48128 0.11577 0.45023 0.0
C622 C 0.5152 0.08106 0.39382 0.0
C623 C 0.44967 0.08313 0.52106 0.0
C624 C 0.44959 0.02062 0.44776 0.0
C625 C 0.45399 1.01483 0.53303 0.0
C626 C 0.45869 0.04246 0.4224 0.0
C627 C 0.47245 0.05898 0.48395 0.0
C628 C 0.47672 0.05325 0.57064 0.0
C629 C 0.46752 0.03127 0.59398 0.0
C630 C 0.45383 0.04786 0.32913 0.0
C631 C 0.49113 0.07035 0.6386 0.0
H632 H 0.52821 0.12291 0.35797 0.0
H633 H 0.47283 0.12453 0.46449 0.0
H634 H 0.5184 0.07495 0.45793 0.0
H635 H 0.50517 0.06679 0.34992 0.0
H636 H 0.5309 0.09156 0.35906 0.0
H637 H 0.44328 0.09437 0.52996 0.0
H638 H 0.43786 0.06899 0.48037 0.0
H639 H 0.45081 0.07698 0.58897 0.0
H640 H 0.43942 1.00803 0.39975 0.0
H641 H 0.47084 0.02692 0.66028 0.0
H642 H 0.46911 0.05706 0.28998 0.0
H643 H 0.44653 0.05836 0.33545 0.0
H644 H 0.44258 0.03315 0.2897 0.0
H645 H 0.50759 0.08044 0.60955 0.0
H646 H 0.49254 0.06325 0.7037 0.0
H647 H 0.48464 0.0813 0.65332 0.0
C648 C 0.12947 0.11333 0.93029 0.0
C649 C 0.14032 0.11467 0.01188 0.0
C650 C 0.11578 0.1222 0.92332 0.0
C651 C 0.1128 0.13255 -0.00012 0.0
C652 C 0.12345 0.13365 0.08273 0.0
C653 C 0.13706 0.12472 0.08768 0.0
C654 C 0.10474 0.12074 0.83377 0.0
C655 C 0.1206 0.14439 0.1662 0.0
C656 C 0.09482 0.17426 0.97168 0.0
C657 C 0.07291 0.1624 -0.00275 0.0
C658 C 0.10783 0.16459 0.96978 0.0
C659 C 0.09874 0.14249 -0.00624 0.0
C660 C 0.07649 0.13026 0.01691 0.0
C661 C 0.06387 0.14034 0.01848 0.0
C662 C 0.13147 0.1782 0.94461 0.0
C663 C 0.06614 0.10664 0.04246 0.0
H664 H 0.13204 0.10575 0.87125 0.0
H665 H 0.1451 0.12551 0.15139 0.0
H666 H 0.08693 0.11256 0.84357 0.0
H667 H 0.11006 0.13726 0.80784 0.0
H668 H 0.10835 0.11175 0.78128 0.0
H669 H 0.12984 0.14368 0.22569 0.0
H670 H 0.12607 0.16162 0.15143 0.0
H671 H 0.10319 0.13644 0.18488 0.0
H672 H 0.102 0.19127 0.95481 0.0
H673 H 0.04694 0.13093 0.03769 0.0
H674 H 0.13554 0.17032 0.88888 0.0
H675 H 0.1417 0.17958 0.00402 0.0
H676 H 0.13576 0.19477 0.92255 0.0
H677 H 0.06914 0.09752 -0.0114 0.0
H678 H 0.04836 0.09903 0.05297 0.0
H679 H 0.07355 0.105 0.10617 0.0
C680 C 0.8844 0.93534 0.95179 0.0
C681 C 0.89591 0.92514 -0.02015 0.0
C682 C 0.89417 0.95804 0.95163 0.0
C683 C 0.91599 0.97092 -0.01986 0.0
C684 C 0.92791 0.96078 0.00572 0.0
C685 C 0.91775 0.93806 0.00528 0.0
C686 C 0.88091 0.96822 0.92356 0.0
C687 C 0.95123 0.9739 0.03626 0.0
C688 C 0.94611 0.03124 0.92419 0.0
C689 C 0.94382 0.04025 0.00559 0.0
C690 C 0.93723 1.00871 0.91481 0.0
C691 C 0.92589 0.99489 -0.01125 0.0
C692 C 0.92382 1.00394 0.07145 0.0
C693 C 0.93278 0.02645 0.07879 0.0
C694 C 0.93972 0.99967 0.82547 0.0
C695 C 0.91204 0.98983 0.15223 0.0
H696 H 0.86758 0.9256 0.93156 0.0
H697 H 0.9269 0.93043 0.02657 0.0
H698 H 0.87878 0.97668 -0.01728 0.0
H699 H 0.88951 0.98053 0.8699 0.0
H700 H 0.86464 0.95607 0.89758 0.0
H701 H 0.95869 0.96367 0.04793 0.0
H702 H 0.96098 0.98637 -0.01534 0.0
H703 H 0.95214 0.98253 0.10052 0.0
H704 H 0.95447 0.04177 0.86713 0.0
H705 H 0.93125 0.03332 0.14241 0.0
H706 H 0.92351 0.9886 0.79597 0.0
H707 H 0.94778 0.99 0.83676 0.0
H708 H 0.94933 1.01259 0.77514 0.0
H709 H 0.89499 0.97817 0.13356 0.0
H710 H 0.91205 0.99942 0.21198 0.0
H711 H 0.91971 0.98023 0.17243 0.0
C712 C 0.02759 0.93374 0.92712 0.0
C713 C 1.0181 0.91784 -0.00503 0.0
C714 C 0.05021 0.94757 0.92294 0.0
C715 C 0.06368 0.94557 -0.01144 0.0
C716 C 0.05416 0.92969 0.05762 0.0
C717 C 0.03156 0.91605 0.0599 0.0
C718 C 0.05972 0.96421 0.84795 0.0
C719 C 0.06787 0.92713 0.12944 0.0
C720 C 0.12357 0.9666 0.94182 0.0
C721 C 0.13354 0.98611 -0.00886 0.0
C722 C 0.10086 0.95358 0.9382 0.0
C723 C 0.08773 0.96007 -0.01433 0.0
C724 C 0.09767 0.97993 0.03413 0.0
C725 C 0.1204 0.99273 0.03596 0.0
C726 C 0.09092 0.93264 0.88495 0.0
C727 C 0.08431 0.98741 0.08608 0.0
H728 H 1.01733 0.93512 0.87627 0.0
H729 H 0.02436 0.90407 0.11347 0.0
H730 H 0.06911 0.98069 0.87771 0.0
H731 H 0.07116 0.96144 0.8066 0.0
H732 H 0.04708 0.96371 0.80221 0.0
H733 H 0.05797 0.91407 0.17878 0.0
H734 H 0.07964 0.92337 0.09674 0.0
H735 H 0.07735 0.94255 0.16747 0.0
H736 H 0.13351 0.96141 0.9062 0.0
H737 H 0.12788 1.00775 0.07433 0.0
H738 H 0.07892 0.93211 0.8354 0.0
H739 H 0.08212 0.91874 0.93192 0.0
H740 H 0.10327 0.93051 0.84742 0.0
H741 H 0.07222 0.98795 0.0403 0.0
H742 H 0.09444 1.0037 0.117 0.0
H743 H 0.07519 0.97571 0.14115 0.0
C744 C 0.72854 0.47594 0.36967 0.0
C745 C 0.7375 0.4975 0.34045 0.0
C746 C 0.74061 0.46528 0.36696 0.0
C747 C 0.76218 0.47638 0.33414 0.0
C748 C 0.77126 0.49804 0.30367 0.0
C749 C 0.75884 0.50833 0.3072 0.0
C750 C 0.73031 0.44217 0.3999 0.0
C751 C 0.79418 0.51042 0.2678 0.0
C752 C 0.80117 0.45708 0.4037 0.0
C753 C 0.8015 0.44591 0.32547 0.0
C754 C 0.78827 0.46685 0.40785 0.0
C755 C 0.77532 0.4654 0.33203 0.0
C756 C 0.77525 0.45379 0.25356 0.0
C757 C 0.78832 0.44421 0.25123 0.0
C758 C 0.78883 0.47911 0.49274 0.0
C759 C 0.76157 0.45173 0.17153 0.0
H760 H 0.71208 0.46735 0.39542 0.0
H761 H 0.76595 0.52494 0.28418 0.0
H762 H 0.73064 0.43163 0.34499 0.0
H763 H 0.73971 0.44117 0.45801 0.0
H764 H 0.71325 0.43568 0.42197 0.0
H765 H 0.79879 0.52708 0.24593 0.0
H766 H 0.80569 0.5115 0.32117 0.0
H767 H 0.79603 0.50169 0.20896 0.0
H768 H 0.81149 0.45872 0.46092 0.0
H769 H 0.78825 0.43535 0.191 0.0
H770 H 0.77219 0.47258 0.52015 0.0
H771 H 0.79506 0.4964 0.47592 0.0
H772 H 0.79922 0.47818 0.5468 0.0
H773 H 0.74429 0.44431 0.1916 0.0
H774 H 0.76295 0.44174 0.11664 0.0
H775 H 0.7666 0.46803 0.14375 0.0
C776 C 0.59808 0.36342 0.41975 0.0
C777 C 0.60857 0.37702 0.34536 0.0
C778 C 0.58919 0.3409 0.41329 0.0
C779 C 0.59077 0.33164 0.33028 0.0
C780 C 0.6015 0.34526 0.25504 0.0
C781 C 0.61033 0.3678 0.26355 0.0
C782 C 0.57807 0.327 0.49543 0.0
C783 C 0.60345 0.336 0.16532 0.0
C784 C 0.58367 0.27521 0.34682 0.0
C785 C 0.56171 0.26195 0.32371 0.0
C786 C 0.59349 0.2979 0.34665 0.0
C787 C 0.58111 0.30767 0.32284 0.0
C788 C 0.55913 0.29443 0.29687 0.0
C789 C 0.54971 0.27176 0.29758 0.0
C790 C 0.61697 0.3114 0.37449 0.0
C791 C 0.54539 0.30421 0.27077 0.0
H792 H 0.59696 0.37044 0.48364 0.0
H793 H 0.61825 0.37818 0.20555 0.0
H794 H 0.56095 0.3151 0.47874 0.0
H795 H 0.58608 0.31768 0.5148 0.0
H796 H 0.57832 0.33672 0.55511 0.0
H797 H 0.61249 0.34878 0.11369 0.0
H798 H 0.61185 0.32663 0.17539 0.0
H799 H 0.58707 0.32462 0.13814 0.0
H800 H 0.59319 0.26789 0.36663 0.0
H801 H 0.53279 0.26175 0.27921 0.0
H802 H 0.61818 0.32026 0.43841 0.0
H803 H 0.62625 0.32369 0.32158 0.0
H804 H 0.62472 0.30141 0.38562 0.0
H805 H 0.54356 0.31278 0.33026 0.0
H806 H 0.52899 0.29181 0.24699 0.0
H807 H 0.55344 0.31637 0.21603 0.0
C808 C 0.69759 0.27238 0.37891 0.0
C809 C 0.68557 0.25778 0.30918 0.0
C810 C 0.72027 0.28535 0.37313 0.0
C811 C 0.73124 0.28382 0.29545 0.0
C812 C 0.71915 0.2695 0.22385 0.0
C813 C 0.69649 0.25661 0.23172 0.0
C814 C 0.73254 0.30029 0.45127 0.0
C815 C 0.73017 0.26752 0.13951 0.0
C816 C 0.78893 0.32965 0.25118 0.0
C817 C 0.80136 0.32099 0.28574 0.0
C818 C 0.76613 0.31771 0.25316 0.0
C819 C 0.75543 0.29659 0.29078 0.0
C820 C 0.76786 0.28771 0.32514 0.0
C821 C 0.79061 0.29997 0.32211 0.0
C822 C 0.75349 0.32775 0.2156 0.0
C823 C 0.75712 0.26528 0.36602 0.0
H824 H 0.68933 0.27321 0.43947 0.0
H825 H 0.68729 0.24556 0.17708 0.0
H826 H 0.74361 0.29533 0.48198 0.0
H827 H 0.74272 0.31712 0.42625 0.0
H828 H 0.72157 0.30021 0.50526 0.0
H829 H 0.7184 0.25635 0.08827 0.0
H830 H 0.74018 0.28366 0.10773 0.0
H831 H 0.74126 0.26146 0.15821 0.0
H832 H 0.79701 0.34586 0.22297 0.0
H833 H 0.79997 0.29308 0.3491 0.0
H834 H 0.74341 0.32903 0.27017 0.0
H835 H 0.74229 0.31726 0.16137 0.0
H836 H 0.7642 0.34415 0.18699 0.0
H837 H 0.74701 0.26445 0.42511 0.0
H838 H 0.76906 0.26063 0.38909 0.0
H839 H 0.74616 0.25319 0.31534 0.0
C840 C 0.4548 0.77846 0.71197 0.0
C841 C 0.4692 0.78094 0.64156 0.0
C842 C 0.44162 0.78789 0.7064 0.0
C843 C 0.44271 0.8 0.6282 0.0
C844 C 0.45683 0.80214 0.55595 0.0
C845 C 0.46996 0.79267 0.56366 0.0
C846 C 0.42693 0.78537 0.78528 0.0
C847 C 0.45832 0.81471 0.47103 0.0
C848 C 0.3962 0.81081 0.58563 0.0
C849 C 0.4048 0.83206 0.61864 0.0
C850 C 0.40838 0.80025 0.5875 0.0
C851 C 0.42968 0.81111 0.62359 0.0
C852 C 0.4385 0.83258 0.6565 0.0
C853 C 0.42601 0.84279 0.65344 0.0
C854 C 0.39841 0.7774 0.55138 0.0
C855 C 0.4611 0.84471 0.69595 0.0
H856 H 0.4543 0.76964 0.77284 0.0
H857 H 0.48086 0.79445 0.50854 0.0
H858 H 0.43183 0.80149 0.81503 0.0
H859 H 0.40997 0.77837 0.76128 0.0
H860 H 0.42739 0.77482 0.83976 0.0
H861 H 0.46937 0.81405 0.41934 0.0
H862 H 0.44202 0.80823 0.44019 0.0
H863 H 0.46429 0.83191 0.48877 0.0
H864 H 0.37985 0.80233 0.5586 0.0
H865 H 0.43286 0.85916 0.67934 0.0
H866 H 0.39759 0.76636 0.60635 0.0
H867 H 0.40872 0.77664 0.49645 0.0
H868 H 0.38182 0.77133 0.52409 0.0
H869 H 0.4623 0.83578 0.75536 0.0
H870 H 0.46565 0.86136 0.71816 0.0
H871 H 0.47306 0.84582 0.64472 0.0
C872 C 0.24886 0.60346 0.69346 0.0
C873 C 0.22694 0.59073 0.66871 0.0
C874 C 0.25934 0.62619 0.69264 0.0
C875 C 0.24769 0.63656 0.66659 0.0
C876 C 0.22565 0.62387 0.6405 0.0
C877 C 0.21555 0.60113 0.64177 0.0
C878 C 0.28287 0.6391 0.72058 0.0
C879 C 0.21266 0.63432 0.61222 0.0
C880 C 0.26773 0.69421 0.7487 0.0
C881 C 0.2783 0.70644 0.67111 0.0
C882 C 0.25782 0.67151 0.74827 0.0
C883 C 0.25844 0.66069 0.66828 0.0
C884 C 0.2693 0.67294 0.59006 0.0
C885 C 0.2791 0.69564 0.59243 0.0
C886 C 0.24656 0.65907 0.83333 0.0
C887 C 0.27031 0.66204 0.50342 0.0
H888 H 0.2579 0.59568 0.71411 0.0
H889 H 0.19865 0.59153 0.62241 0.0
H890 H 0.29261 0.65033 0.66512 0.0
H891 H 0.28456 0.64914 0.78121 0.0
H892 H 0.28979 0.6286 0.73702 0.0
H893 H 0.19583 0.62221 0.592 0.0
H894 H 0.21195 0.64418 0.66923 0.0
H895 H 0.22068 0.64545 0.55417 0.0
H896 H 0.26725 0.70242 0.81009 0.0
H897 H 0.28696 0.70492 0.53178 0.0
H898 H 0.25381 0.64926 0.85596 0.0
H899 H 0.22919 0.64766 0.81867 0.0
H900 H 0.24767 0.66989 0.89013 0.0
H901 H 0.27788 0.652 0.51708 0.0
H902 H 0.2797 0.67388 0.44903 0.0
H903 H 0.25367 0.651 0.4779 0.0
C904 C 0.4523 0.66296 0.67108 0.0
C905 C 0.4655 0.65387 0.65492 0.0
C906 C 0.42958 0.65011 0.67055 0.0
C907 C 0.41974 0.62757 0.65397 0.0
C908 C 0.43293 0.61836 0.63559 0.0
C909 C 0.45562 0.63161 0.63601 0.0
C910 C 0.4161 0.6606 0.68973 0.0
C911 C 0.4231 0.59439 0.61782 0.0
C912 C 0.36331 0.59105 0.75034 0.0
C913 C 0.35015 0.58655 0.67304 0.0
C914 C 0.38592 0.60432 0.74491 0.0
C915 C 0.39571 0.61346 0.66016 0.0
C916 C 0.38253 0.60904 0.58184 0.0
C917 C 0.35993 0.59557 0.58914 0.0
C918 C 0.39937 0.60845 0.82992 0.0
C919 C 0.39232 0.6186 0.49042 0.0
H920 H 0.45969 0.68015 0.68517 0.0
H921 H 0.4656 0.62438 0.62334 0.0
H922 H 0.40407 0.65671 0.63454 0.0
H923 H 0.40691 0.65407 0.75399 0.0
H924 H 0.42616 0.6785 0.69609 0.0
H925 H 0.43553 0.5899 0.60075 0.0
H926 H 0.41407 0.58514 0.67896 0.0
H927 H 0.4113 0.5893 0.56093 0.0
H928 H 0.35592 0.58387 0.81511 0.0
H929 H 0.34985 0.59232 0.52931 0.0
H930 H 0.40882 0.62609 0.84422 0.0
H931 H 0.41118 0.60282 0.8196 0.0
H932 H 0.38929 0.60012 0.8905 0.0
H933 H 0.40143 0.63655 0.49497 0.0
H934 H 0.37986 0.61367 0.43616 0.0
H935 H 0.40406 0.61344 0.47021 0.0
C936 C 0.04811 0.17985 0.72995 0.0
C937 C 0.03898 0.19234 0.75744 0.0
C938 C 0.0552 0.18092 0.64059 0.0
C939 C 0.05226 0.1942 0.57796 0.0
C940 C 0.04436 0.20791 0.60717 0.0
C941 C 0.038 0.20696 0.69756 0.0
C942 C 0.06443 0.16682 0.61223 0.0
C943 C 0.0409 0.22221 0.54158 0.0
C944 C 0.0687 0.20511 0.33306 0.0
C945 C 0.04872 0.19114 0.29206 0.0
C946 C 0.071 0.2049 0.42753 0.0
C947 C 0.05283 0.19056 0.48015 0.0
C948 C 0.0334 0.17494 0.43786 0.0
C949 C 0.03164 0.17539 0.34383 0.0
C950 C 0.09219 0.22115 0.47108 0.0
C951 C 1.01372 0.15915 0.49211 0.0
H952 H 0.0496 0.16915 0.77806 0.0
H953 H 0.03133 0.2169 0.72039 0.0
H954 H 0.05136 0.15152 0.58235 0.0
H955 H 0.07725 0.17493 0.55989 0.0
H956 H 0.0713 0.16259 0.67138 0.0
H957 H 0.03649 0.23323 0.5771 0.0
H958 H 0.05574 0.23214 0.50082 0.0
H959 H 0.02766 0.21195 0.49346 0.0
H960 H 0.08209 0.21697 0.29238 0.0
H961 H 1.01643 0.16406 0.31137 0.0
H962 H 0.09571 0.2142 0.53183 0.0
H963 H 0.09117 0.23546 0.49371 0.0
H964 H 0.10589 0.22678 0.42233 0.0
H965 H 1.01814 0.15045 0.54238 0.0
H966 H 1.00057 0.14698 0.44803 0.0
H967 H 1.00727 0.16814 0.53046 0.0
C968 C 0.84979 0.84652 0.67764 0.0
C969 C 0.86501 0.86174 0.73742 0.0
C970 C 0.84926 0.85206 0.58718 0.0
C971 C 0.86406 0.87339 0.55786 0.0
C972 C 0.87794 0.88935 0.62042 0.0
C973 C 0.87852 0.88321 0.70989 0.0
C974 C 0.83423 0.8346 0.52162 0.0
C975 C 0.89325 0.91244 0.59179 0.0
C976 C 0.88245 0.86966 0.32532 0.0
C977 C 0.8676 0.87221 0.27244 0.0
C978 C 0.88284 0.87206 0.41927 0.0
C979 C 0.86807 0.87727 0.46023 0.0
C980 C 0.85473 0.88225 0.40653 0.0
C981 C 0.85457 0.87955 0.31225 0.0
C982 C 0.89758 0.86696 0.47486 0.0
C983 C 0.83941 0.88863 0.44867 0.0
H984 H 0.83908 0.83007 0.7005 0.0
H985 H 0.88969 0.89516 0.75794 0.0
H986 H 0.82521 0.84038 0.47974 0.0
H987 H 0.8439 0.83056 0.47455 0.0
H988 H 0.82234 0.81955 0.55729 0.0
H989 H 0.89808 0.92373 0.6507 0.0
H990 H 0.90815 0.9136 0.56256 0.0
H991 H 0.88584 0.91777 0.53887 0.0
H992 H 0.89307 0.86473 0.29383 0.0
H993 H 0.84343 0.88202 0.27074 0.0
H994 H 0.88768 0.8517 0.51323 0.0
H995 H 0.90683 0.87999 0.52517 0.0
H996 H 0.90929 0.86498 0.43172 0.0
H997 H 0.82439 0.87383 0.4704 0.0
H998 H 0.83483 0.89743 0.3993 0.0
H999 H 0.84669 0.89894 0.50978 0.0
C1000 C 0.21245 0.02133 0.68606 0.0
C1001 C 0.19692 0.02041 0.74647 0.0
C1002 C 0.20698 0.01513 0.59557 0.0
C1003 C 0.18537 1.00744 0.56668 0.0
C1004 C 0.16922 1.00472 0.62959 0.0
C1005 C 0.1753 1.01164 0.71913 0.0
C1006 C 0.22469 0.01838 0.52973 0.0
C1007 C 0.14588 0.99577 0.60165 0.0
C1008 C 0.18812 0.02771 0.33185 0.0
C1009 C 0.18688 1.01051 0.2812 0.0
C1010 C 0.18534 0.02605 0.42567 0.0
C1011 C 0.18114 1.00665 0.46887 0.0
C1012 C 0.17732 0.98835 0.41708 0.0
C1013 C 0.18035 0.99053 0.32279 0.0
C1014 C 0.18918 0.04584 0.47899 0.0
C1015 C 0.17191 0.96719 0.46162 0.0
H1016 H 0.22904 0.02775 0.7087 0.0
H1017 H 0.16316 1.01022 0.76758 0.0
H1018 H 0.21968 1.00343 0.48957 0.0
H1019 H 0.22767 0.03148 0.48108 0.0
H1020 H 0.24017 0.02286 0.56493 0.0
H1021 H 0.13476 0.98846 0.66057 0.0
H1022 H 0.14372 1.00909 0.57484 0.0
H1023 H 0.1411 0.98337 0.54728 0.0
H1024 H 0.19234 0.04291 0.2988 0.0
H1025 H 0.17885 0.97704 0.28285 0.0
H1026 H 0.20458 0.05238 0.51764 0.0
H1027 H 0.17597 0.04154 0.52892 0.0
H1028 H 0.19023 0.05887 0.43418 0.0
H1029 H 0.18703 0.96815 0.487 0.0
H1030 H 0.16415 0.95346 0.41276 0.0
H1031 H 0.16096 0.96377 0.52075 0.0
C1032 C 0.69517 0.51136 0.68038 0.0
C1033 C 0.71291 0.52611 0.62856 0.0
C1034 C 0.69709 0.51016 0.77398 0.0
C1035 C 0.71729 0.52403 0.81563 0.0
C1036 C 0.73585 0.5371 0.76256 0.0
C1037 C 0.73342 0.53809 0.66865 0.0
C1038 C 0.67697 0.49569 0.82883 0.0
C1039 C 0.75776 0.55138 0.80539 0.0
C1040 C 0.70608 0.54318 0.03401 0.0
C1041 C 0.70541 0.52766 0.09356 0.0
C1042 C 0.71189 0.54338 0.94336 0.0
C1043 C 0.71746 0.5279 0.91343 0.0
C1044 C 0.71876 0.51354 0.9755 0.0
C1045 C 0.71233 0.51334 0.06529 0.0
C1046 C 0.71029 0.55893 0.87836 0.0
C1047 C 0.72548 0.49745 0.94625 0.0
H1048 H 0.67947 0.50148 0.64855 0.0
H1049 H 0.74729 0.54908 0.62783 0.0
H1050 H 0.68024 0.48592 0.87807 0.0
H1051 H 0.67206 0.50582 0.86835 0.0
H1052 H 0.66313 0.48449 0.785 0.0
H1053 H 0.77107 0.55584 0.75554 0.0
H1054 H 0.75871 0.56653 0.83024 0.0
H1055 H 0.76033 0.54329 0.8646 0.0
H1056 H 0.70112 0.55448 0.05732 0.0
H1057 H 0.71256 0.50188 0.11305 0.0
H1058 H 0.69656 0.54976 0.83072 0.0
H1059 H 0.72526 0.5676 0.83705 0.0
H1060 H 0.70762 0.57111 0.91442 0.0
H1061 H 0.71115 0.48266 0.91941 0.0
H1062 H 0.73204 0.49258 0.0045 0.0
H1063 H 0.73787 0.50413 0.89152 0.0
C1064 C 0.54924 0.20668 0.67222 0.0
C1065 C 0.5345 0.2091 0.61797 0.0
C1066 C 0.54899 0.20866 0.76625 0.0
C1067 C 0.53371 0.21334 0.80592 0.0
C1068 C 0.52038 0.2181 0.75109 0.0
C1069 C 0.52086 0.21581 0.65679 0.0
C1070 C 0.56373 0.2038 0.82311 0.0
C1071 C 0.50449 0.22389 0.79182 0.0
C1072 C 0.51593 0.18271 0.02354 0.0
C1073 C 0.53104 0.19816 0.08294 0.0
C1074 C 0.51511 0.18811 0.9331 0.0
C1075 C 0.52952 0.20952 0.90349 0.0
C1076 C 0.54314 0.2257 0.96585 0.0
C1077 C 0.544 0.21971 0.05527 0.0
C1078 C 0.50034 0.17045 0.86774 0.0
C1079 C 0.55801 0.24885 0.93685 0.0
H1080 H 0.56029 0.2022 0.64167 0.0
H1081 H 0.50976 0.21816 0.61436 0.0
H1082 H 0.57269 0.21688 0.87361 0.0
H1083 H 0.55387 0.18851 0.86133 0.0
H1084 H 0.5757 0.20203 0.78096 0.0
H1085 H 0.50007 0.2328 0.74234 0.0
H1086 H 0.48945 0.20882 0.81114 0.0
H1087 H 0.51115 0.23389 0.85417 0.0
H1088 H 0.50561 0.16618 0.04653 0.0
H1089 H 0.55506 0.23184 0.10304 0.0
H1090 H 0.51022 0.1665 0.82155 0.0
H1091 H 0.49125 0.17598 0.82492 0.0
H1092 H 0.48853 0.15541 0.90368 0.0
H1093 H 0.57294 0.25032 0.9065 0.0
H1094 H 0.56283 0.26015 -0.00429 0.0
H1095 H 0.55021 0.25392 0.88462 0.0
C1096 C 0.89812 0.37066 0.59189 0.0
C1097 C 0.87681 0.36432 0.56641 0.0
C1098 C 0.90491 0.3765 0.68157 0.0
C1099 C 0.88971 0.37522 0.74643 0.0
C1100 C 0.8686 0.37022 0.71956 0.0
C1101 C 0.86245 0.36501 0.62884 0.0
C1102 C 0.92779 0.38262 0.70728 0.0
C1103 C 0.85197 0.36873 0.78759 0.0
C1104 C 0.8846 0.35274 -0.02168 0.0
C1105 C 0.88807 0.37056 0.03081 0.0
C1106 C 0.8875 0.35466 0.88452 0.0
C1107 C 0.89405 0.37493 0.84353 0.0
C1108 C 0.90024 0.39356 0.89727 0.0
C1109 C 0.89707 0.39114 -0.00869 0.0
C1110 C 0.88123 0.3345 0.82888 0.0
C1111 C 0.90818 0.41554 0.85508 0.0
H1112 H 0.90945 0.37088 0.54191 0.0
H1113 H 0.84615 0.36051 0.60763 0.0
H1114 H 0.93401 0.39455 0.76387 0.0
H1115 H 0.92807 0.36794 0.73004 0.0
H1116 H 0.93894 0.38948 0.64816 0.0
H1117 H 0.83696 0.36634 0.75408 0.0
H1118 H 0.84754 0.3549 0.83425 0.0
H1119 H 0.85877 0.38364 0.82967 0.0
H1120 H 0.87842 0.33698 0.00975 0.0
H1121 H 0.90033 0.40507 0.03265 0.0
H1122 H 0.89387 0.33764 0.77747 0.0
H1123 H 0.86591 0.32972 0.79182 0.0
H1124 H 0.87879 0.32066 0.87193 0.0
H1125 H 0.91867 0.41795 0.79525 0.0
H1126 H 0.91735 0.42878 0.90498 0.0
H1127 H 0.89408 0.41679 0.83125 0.0
C1128 C 0.33427 0.85551 0.32366 0.0
C1129 C 0.3547 0.86725 0.36458 0.0
C1130 C 0.33208 0.85683 0.22977 0.0
C1131 C 0.35079 0.87002 0.17766 0.0
C1132 C 0.37084 0.88386 0.22044 0.0
C1133 C 0.37255 0.88227 0.31401 0.0
C1134 C 0.31031 0.84261 0.18573 0.0
C1135 C 0.39105 0.89854 0.16665 0.0
C1136 C 0.36182 0.84973 0.96131 0.0
C1137 C 0.36208 0.86467 0.89969 0.0
C1138 C 0.35652 0.8503 0.05215 0.0
C1139 C 0.35097 0.86594 0.08014 0.0
C1140 C 0.34942 0.87984 0.01629 0.0
C1141 C 0.35537 0.87927 0.92637 0.0
C1142 C 0.35835 0.8352 0.11906 0.0
C1143 C 0.34274 0.89611 0.04322 0.0
H1144 H 0.32033 0.84433 0.36365 0.0
H1145 H 0.38817 0.89198 0.34668 0.0
H1146 H 0.30781 0.85093 0.1272 0.0
H1147 H 0.30958 0.82765 0.15956 0.0
H1148 H 0.29685 0.83781 0.23513 0.0
H1149 H 0.40459 0.90999 0.21118 0.0
H1150 H 0.39641 0.88857 0.12863 0.0
H1151 H 0.38772 0.90803 0.11618 0.0
H1152 H 0.36664 0.83823 0.93925 0.0
H1153 H 0.35483 0.8903 0.87707 0.0
H1154 H 0.34332 0.8265 0.16005 0.0
H1155 H 0.37194 0.84474 0.16683 0.0
H1156 H 0.36132 0.82304 0.08468 0.0
H1157 H 0.33086 0.89004 0.09993 0.0
H1158 H 0.33559 0.90017 -0.01539 0.0
H1159 H 0.35723 0.91127 0.06623 0.0
C1160 C 0.21409 0.53549 0.00287 0.0
C1161 C 0.19847 0.53718 0.95182 0.0
C1162 C 0.21532 0.5386 0.09652 0.0
C1163 C 0.20057 0.54361 0.13907 0.0
C1164 C 0.18652 0.54787 0.08678 0.0
C1165 C 0.18553 0.54447 -0.00724 0.0
C1166 C 0.23082 0.53428 0.15046 0.0
C1167 C 0.17128 0.55414 0.13058 0.0
C1168 C 0.18303 0.5128 0.35667 0.0
C1169 C 0.198 0.52817 0.41671 0.0
C1170 C 0.18245 0.51825 0.26618 0.0
C1171 C 0.19696 0.53966 0.23687 0.0
C1172 C 0.21075 0.55571 0.29938 0.0
C1173 C 0.21138 0.54965 0.389 0.0
C1174 C 0.16757 0.50065 0.20072 0.0
C1175 C 0.22577 0.57887 0.27085 0.0
H1176 H 0.22471 0.53068 0.97037 0.0
H1177 H 0.17384 0.54637 0.95252 0.0
H1178 H 0.24006 0.54752 0.19991 0.0
H1179 H 0.22152 0.51904 0.1897 0.0
H1180 H 0.24255 0.53264 0.10602 0.0
H1181 H 0.16586 0.56224 0.08123 0.0
H1182 H 0.15672 0.53936 0.15591 0.0
H1183 H 0.17905 0.56507 0.18963 0.0
H1184 H 0.17245 0.49632 0.37954 0.0
H1185 H 0.22241 0.5617 0.43713 0.0
H1186 H 0.17737 0.4971 0.15236 0.0
H1187 H 0.15803 0.50606 0.16022 0.0
H1188 H 0.15613 0.48539 0.23629 0.0
H1189 H 0.24105 0.58044 0.24411 0.0
H1190 H 0.22995 0.59016 0.32946 0.0
H1191 H 0.21847 0.5839 0.21626 0.0
C1192 C 0.54354 0.6862 0.35309 0.0
C1193 C 0.52848 0.68671 0.41217 0.0
C1194 C 0.53803 0.68015 0.26252 0.0
C1195 C 0.5169 0.67424 0.23235 0.0
C1196 C 0.50099 0.67249 0.29429 0.0
C1197 C 0.50709 0.67912 0.38395 0.0
C1198 C 0.55539 0.68209 0.19762 0.0
C1199 C 0.47809 0.66536 0.26464 0.0
C1200 C 0.52183 0.69764 0.00193 0.0
C1201 C 0.51862 0.68021 0.94737 0.0
C1202 C 0.51934 0.69529 0.09574 0.0
C1203 C 0.51339 0.67496 0.13479 0.0
C1204 C 0.50785 0.65672 0.07946 0.0
C1205 C 0.51065 0.65959 -0.01456 0.0
C1206 C 0.52506 0.71508 0.1532 0.0
C1207 C 0.5007 0.63467 0.11949 0.0
H1208 H 0.55991 0.69162 0.37645 0.0
H1209 H 0.49521 0.67869 0.43143 0.0
H1210 H 0.54918 0.66739 0.15452 0.0
H1211 H 0.56014 0.69611 0.15168 0.0
H1212 H 0.57011 0.68451 0.23397 0.0
H1213 H 0.46665 0.65917 0.32305 0.0
H1214 H 0.47752 0.67937 0.23519 0.0
H1215 H 0.4725 0.65257 0.21157 0.0
H1216 H 0.52729 0.71342 0.97192 0.0
H1217 H 0.50766 0.64595 0.94271 0.0
H1218 H 0.54012 0.71976 0.19217 0.0
H1219 H 0.51201 0.71152 0.20307 0.0
H1220 H 0.52769 0.72916 0.11139 0.0
H1221 H 0.5152 0.63369 0.13928 0.0
H1222 H 0.4913 0.62157 0.06936 0.0
H1223 H 0.49068 0.63178 0.18141 0.0
loop_
_geom_bond_atom_site_label_1
_geom_bond_atom_site_label_2
_geom_bond_distance
_geom_bond_site_symmetry_2
_ccdc_geom_bond_type
Dy0 O3 2.307 . S
Dy0 O5 2.395 1_556 S
Dy0 O6 2.379 . S
Dy0 O8 2.339 . S
Dy0 O10 2.298 1_655 S
Dy0 O14 2.275 1_656 S
Dy0 C22 2.738 1_556 S
Dy1 O4 2.298 . S
Dy1 O7 2.275 1_554 S
Dy1 O9 2.307 . S
Dy1 O11 2.395 1_554 S
Dy1 O12 2.379 . S
Dy1 O15 2.339 . S
Dy1 C31 2.738 1_554 S
C2 O14 1.254 . S
C2 O15 1.257 . S
O3 Dy0 2.307 . S
O3 C13 1.266 1_556 S
O4 Dy1 2.298 . S
O4 C13 1.236 1_455 S
O5 Dy0 2.395 1_554 S
O5 C22 1.255 . S
O6 Dy0 2.379 . S
O6 C22 1.249 1_556 S
O7 Dy1 2.275 1_556 S
O7 C23 1.254 . S
O8 Dy0 2.339 . S
O8 C23 1.257 1_655 S
O9 Dy1 2.307 . S
O9 C24 1.266 . S
O10 Dy0 2.298 1_455 S
O10 C24 1.236 1_556 S
O11 Dy1 2.395 1_556 S
O11 C31 1.255 . S
O12 Dy1 2.379 . S
O12 C31 1.249 1_554 S
C13 O3 1.266 1_554 S
C13 O4 1.236 1_655 S
O14 Dy0 2.275 1_454 S
O14 C2 1.254 . S
O15 Dy1 2.339 . S
O15 C2 1.257 . S
C16 C19 1.344 . S
C16 C20 1.328 1_554 S
C16 C22 1.516 . S
C17 C18 1.304 . S
C17 C21 1.323 1_554 S
C18 C17 1.304 . S
C18 C19 1.371 . S
C18 H32 0.930 . S
C19 C16 1.344 . S
C19 C18 1.371 . S
C19 H33 0.931 . S
C20 C16 1.328 1_556 S
C20 C21 1.433 . S
C20 H34 0.931 . S
C21 C17 1.323 1_556 S
C21 C20 1.433 . S
C21 H35 0.933 . S
C22 Dy0 2.738 1_554 S
C22 O5 1.255 . S
C22 O6 1.249 1_554 S
C22 C16 1.516 . S
C23 O7 1.254 . S
C23 O8 1.257 1_455 S
C24 O9 1.266 . S
C24 O10 1.236 1_554 S
C25 C28 1.344 . S
C25 C29 1.328 1_556 S
C25 C31 1.516 . S
C26 C27 1.304 . S
C26 C30 1.323 1_556 S
C27 C26 1.304 . S
C27 C28 1.371 . S
C27 H36 0.930 . S
C28 C25 1.344 . S
C28 C27 1.371 . S
C28 H37 0.931 . S
C29 C25 1.328 1_554 S
C29 C30 1.433 . S
C29 H38 0.931 . S
C30 C26 1.323 1_554 S
C30 C29 1.433 . S
C30 H39 0.933 . S
C31 Dy1 2.738 1_556 S
C31 O11 1.255 . S
C31 O12 1.249 1_556 S
C31 C25 1.516 . S
H32 C18 0.930 . S
H33 C19 0.931 . S
H34 C20 0.931 . S
H35 C21 0.933 . S
H36 C27 0.930 . S
H37 C28 0.931 . S
H38 C29 0.931 . S
H39 C30 0.933 . S
Dy40 O43 2.307 . S
Dy40 O45 2.395 1_556 S
Dy40 O46 2.379 . S
Dy40 O48 2.339 . S
Dy40 O50 2.298 . S
Dy40 O54 2.275 1_556 S
Dy40 C62 2.738 1_556 S
Dy41 O44 2.298 . S
Dy41 O47 2.275 1_554 S
Dy41 O49 2.307 . S
Dy41 O51 2.395 1_554 S
Dy41 O52 2.379 . S
Dy41 O55 2.339 . S
Dy41 C71 2.738 1_554 S
C42 O54 1.254 . S
C42 O55 1.257 . S
O43 Dy40 2.307 . S
O43 C53 1.266 1_556 S
O44 Dy41 2.298 . S
O44 C53 1.236 . S
O45 Dy40 2.395 1_554 S
O45 C62 1.255 . S
O46 Dy40 2.379 . S
O46 C62 1.249 1_556 S
O47 Dy41 2.275 1_556 S
O47 C63 1.254 . S
O48 Dy40 2.339 . S
O48 C63 1.257 . S
O49 Dy41 2.307 . S
O49 C64 1.266 . S
O50 Dy40 2.298 . S
O50 C64 1.236 1_556 S
O51 Dy41 2.395 1_556 S
O51 C71 1.255 . S
O52 Dy41 2.379 . S
O52 C71 1.249 1_554 S
C53 O43 1.266 1_554 S
C53 O44 1.236 . S
O54 Dy40 2.275 1_554 S
O54 C42 1.254 . S
O55 Dy41 2.339 . S
O55 C42 1.257 . S
C56 C59 1.344 . S
C56 C60 1.328 1_554 S
C56 C62 1.516 . S
C57 C58 1.304 . S
C57 C61 1.323 1_554 S
C58 C57 1.304 . S
C58 C59 1.371 . S
C58 H72 0.930 . S
C59 C56 1.344 . S
C59 C58 1.371 . S
C59 H73 0.931 . S
C60 C56 1.328 1_556 S
C60 C61 1.433 . S
C60 H74 0.931 . S
C61 C57 1.323 1_556 S
C61 C60 1.433 . S
C61 H75 0.933 . S
C62 Dy40 2.738 1_554 S
C62 O45 1.255 . S
C62 O46 1.249 1_554 S
C62 C56 1.516 . S
C63 O47 1.254 . S
C63 O48 1.257 . S
C64 O49 1.266 . S
C64 O50 1.236 1_554 S
C65 C68 1.344 . S
C65 C69 1.328 1_556 S
C65 C71 1.516 . S
C66 C67 1.304 . S
C66 C70 1.323 1_556 S
C67 C66 1.304 . S
C67 C68 1.371 . S
C67 H76 0.930 . S
C68 C65 1.344 . S
C68 C67 1.371 . S
C68 H77 0.931 . S
C69 C65 1.328 1_554 S
C69 C70 1.433 . S
C69 H78 0.931 . S
C70 C66 1.323 1_554 S
C70 C69 1.433 . S
C70 H79 0.933 . S
C71 Dy41 2.738 1_556 S
C71 O51 1.255 . S
C71 O52 1.249 1_556 S
C71 C65 1.516 . S
H72 C58 0.930 . S
H73 C59 0.931 . S
H74 C60 0.931 . S
H75 C61 0.933 . S
H76 C67 0.930 . S
H77 C68 0.931 . S
H78 C69 0.931 . S
H79 C70 0.933 . S
Dy80 O83 2.307 . S
Dy80 O85 2.395 1_556 S
Dy80 O86 2.379 . S
Dy80 O88 2.339 . S
Dy80 O90 2.298 . S
Dy80 O94 2.275 1_556 S
Dy80 C102 2.738 1_556 S
Dy81 O84 2.298 1_565 S
Dy81 O87 2.275 1_564 S
Dy81 O89 2.307 . S
Dy81 O91 2.395 1_554 S
Dy81 O92 2.379 . S
Dy81 O95 2.339 . S
Dy81 C111 2.738 1_554 S
C82 O94 1.254 . S
C82 O95 1.257 1_545 S
O83 Dy80 2.307 . S
O83 C93 1.266 1_556 S
O84 Dy81 2.298 1_545 S
O84 C93 1.236 . S
O85 Dy80 2.395 1_554 S
O85 C102 1.255 . S
O86 Dy80 2.379 . S
O86 C102 1.249 1_556 S
O87 Dy81 2.275 1_546 S
O87 C103 1.254 . S
O88 Dy80 2.339 . S
O88 C103 1.257 . S
O89 Dy81 2.307 . S
O89 C104 1.266 . S
O90 Dy80 2.298 . S
O90 C104 1.236 1_546 S
O91 Dy81 2.395 1_556 S
O91 C111 1.255 . S
O92 Dy81 2.379 . S
O92 C111 1.249 1_554 S
C93 O83 1.266 1_554 S
C93 O84 1.236 . S
O94 Dy80 2.275 1_554 S
O94 C82 1.254 . S
O95 Dy81 2.339 . S
O95 C82 1.257 1_565 S
C96 C99 1.344 . S
C96 C100 1.328 1_554 S
C96 C102 1.516 . S
C97 C98 1.304 . S
C97 C101 1.323 1_554 S
C98 C97 1.304 . S
C98 C99 1.371 . S
C98 H112 0.930 . S
C99 C96 1.344 . S
C99 C98 1.371 . S
C99 H113 0.931 . S
C100 C96 1.328 1_556 S
C100 C101 1.433 . S
C100 H114 0.931 . S
C101 C97 1.323 1_556 S
C101 C100 1.433 . S
C101 H115 0.933 . S
C102 Dy80 2.738 1_554 S
C102 O85 1.255 . S
C102 O86 1.249 1_554 S
C102 C96 1.516 . S
C103 O87 1.254 . S
C103 O88 1.257 . S
C104 O89 1.266 . S
C104 O90 1.236 1_564 S
C105 C108 1.344 . S
C105 C109 1.328 1_556 S
C105 C111 1.516 . S
C106 C107 1.304 . S
C106 C110 1.323 1_556 S
C107 C106 1.304 . S
C107 C108 1.371 . S
C107 H116 0.930 . S
C108 C105 1.344 . S
C108 C107 1.371 . S
C108 H117 0.931 . S
C109 C105 1.328 1_554 S
C109 C110 1.433 . S
C109 H118 0.931 . S
C110 C106 1.323 1_554 S
C110 C109 1.433 . S
C110 H119 0.933 . S
C111 Dy81 2.738 1_556 S
C111 O91 1.255 . S
C111 O92 1.249 1_556 S
C111 C105 1.516 . S
H112 C98 0.930 . S
H113 C99 0.931 . S
H114 C100 0.931 . S
H115 C101 0.933 . S
H116 C107 0.930 . S
H117 C108 0.931 . S
H118 C109 0.931 . S
H119 C110 0.933 . S
Dy120 O123 2.307 . S
Dy120 O125 2.395 . S
Dy120 O126 2.379 . S
Dy120 O128 2.339 . S
Dy120 O130 2.298 . S
Dy120 O134 2.275 . S
Dy120 C142 2.738 . S
Dy121 O124 2.298 . S
Dy121 O127 2.275 . S
Dy121 O129 2.307 . S
Dy121 O131 2.395 . S
Dy121 O132 2.379 . S
Dy121 O135 2.339 . S
Dy121 C151 2.738 . S
C122 O134 1.254 . S
C122 O135 1.257 . S
O123 Dy120 2.307 . S
O123 C133 1.266 . S
O124 Dy121 2.298 . S
O124 C133 1.236 . S
O125 Dy120 2.395 . S
O125 C142 1.255 . S
O126 Dy120 2.379 . S
O126 C142 1.249 . S
O127 Dy121 2.275 . S
O127 C143 1.254 . S
O128 Dy120 2.339 . S
O128 C143 1.257 . S
O129 Dy121 2.307 . S
O129 C144 1.266 . S
O130 Dy120 2.298 . S
O130 C144 1.236 . S
O131 Dy121 2.395 . S
O131 C151 1.255 . S
O132 Dy121 2.379 . S
O132 C151 1.249 . S
C133 O123 1.266 . S
C133 O124 1.236 . S
O134 Dy120 2.275 . S
O134 C122 1.254 . S
O135 Dy121 2.339 . S
O135 C122 1.257 . S
C136 C139 1.344 . S
C136 C140 1.328 . S
C136 C142 1.516 . S
C137 C138 1.304 . S
C137 C141 1.323 . S
C138 C137 1.304 . S
C138 C139 1.371 . S
C138 H152 0.930 . S
C139 C136 1.344 . S
C139 C138 1.371 . S
C139 H153 0.931 . S
C140 C136 1.328 . S
C140 C141 1.433 . S
C140 H154 0.931 . S
C141 C137 1.323 . S
C141 C140 1.433 . S
C141 H155 0.933 . S
C142 Dy120 2.738 . S
C142 O125 1.255 . S
C142 O126 1.249 . S
C142 C136 1.516 . S
C143 O127 1.254 . S
C143 O128 1.257 . S
C144 O129 1.266 . S
C144 O130 1.236 . S
C145 C148 1.344 . S
C145 C149 1.328 . S
C145 C151 1.516 . S
C146 C147 1.304 . S
C146 C150 1.323 . S
C147 C146 1.304 . S
C147 C148 1.371 . S
C147 H156 0.930 . S
C148 C145 1.344 . S
C148 C147 1.371 . S
C148 H157 0.931 . S
C149 C145 1.328 . S
C149 C150 1.433 . S
C149 H158 0.931 . S
C150 C146 1.323 . S
C150 C149 1.433 . S
C150 H159 0.933 . S
C151 Dy121 2.738 . S
C151 O131 1.255 . S
C151 O132 1.249 . S
C151 C145 1.516 . S
H152 C138 0.930 . S
H153 C139 0.931 . S
H154 C140 0.931 . S
H155 C141 0.933 . S
H156 C147 0.930 . S
H157 C148 0.931 . S
H158 C149 0.931 . S
H159 C150 0.933 . S
Dy160 O163 2.307 . S
Dy160 O165 2.395 . S
Dy160 O166 2.379 . S
Dy160 O168 2.339 . S
Dy160 O170 2.298 . S
Dy160 O174 2.275 . S
Dy160 C182 2.738 . S
Dy161 O164 2.298 . S
Dy161 O167 2.275 . S
Dy161 O169 2.307 . S
Dy161 O171 2.395 . S
Dy161 O172 2.379 . S
Dy161 O175 2.339 . S
Dy161 C191 2.738 . S
C162 O174 1.254 . S
C162 O175 1.257 . S
O163 Dy160 2.307 . S
O163 C173 1.266 . S
O164 Dy161 2.298 . S
O164 C173 1.236 . S
O165 Dy160 2.395 . S
O165 C182 1.255 . S
O166 Dy160 2.379 . S
O166 C182 1.249 . S
O167 Dy161 2.275 . S
O167 C183 1.254 . S
O168 Dy160 2.339 . S
O168 C183 1.257 . S
O169 Dy161 2.307 . S
O169 C184 1.266 . S
O170 Dy160 2.298 . S
O170 C184 1.236 . S
O171 Dy161 2.395 . S
O171 C191 1.255 . S
O172 Dy161 2.379 . S
O172 C191 1.249 . S
C173 O163 1.266 . S
C173 O164 1.236 . S
O174 Dy160 2.275 . S
O174 C162 1.254 . S
O175 Dy161 2.339 . S
O175 C162 1.257 . S
C176 C179 1.344 . S
C176 C180 1.328 . S
C176 C182 1.516 . S
C177 C178 1.304 . S
C177 C181 1.323 . S
C178 C177 1.304 . S
C178 C179 1.371 . S
C178 H192 0.930 . S
C179 C176 1.344 . S
C179 C178 1.371 . S
C179 H193 0.931 . S
C180 C176 1.328 . S
C180 C181 1.433 . S
C180 H194 0.931 . S
C181 C177 1.323 . S
C181 C180 1.433 . S
C181 H195 0.933 . S
C182 Dy160 2.738 . S
C182 O165 1.255 . S
C182 O166 1.249 . S
C182 C176 1.516 . S
C183 O167 1.254 . S
C183 O168 1.257 . S
C184 O169 1.266 . S
C184 O170 1.236 . S
C185 C188 1.344 . S
C185 C189 1.328 . S
C185 C191 1.516 . S
C186 C187 1.304 . S
C186 C190 1.323 . S
C187 C186 1.304 . S
C187 C188 1.371 . S
C187 H196 0.930 . S
C188 C185 1.344 . S
C188 C187 1.371 . S
C188 H197 0.931 . S
C189 C185 1.328 . S
C189 C190 1.433 . S
C189 H198 0.931 . S
C190 C186 1.323 . S
C190 C189 1.433 . S
C190 H199 0.933 . S
C191 Dy161 2.738 . S
C191 O171 1.255 . S
C191 O172 1.249 . S
C191 C185 1.516 . S
H192 C178 0.930 . S
H193 C179 0.931 . S
H194 C180 0.931 . S
H195 C181 0.933 . S
H196 C187 0.930 . S
H197 C188 0.931 . S
H198 C189 0.931 . S
H199 C190 0.933 . S
Dy200 O203 2.307 . S
Dy200 O205 2.395 . S
Dy200 O206 2.379 . S
Dy200 O208 2.339 . S
Dy200 O210 2.298 . S
Dy200 O214 2.275 . S
Dy200 C222 2.738 . S
Dy201 O204 2.298 . S
Dy201 O207 2.275 . S
Dy201 O209 2.307 . S
Dy201 O211 2.395 . S
Dy201 O212 2.379 . S
Dy201 O215 2.339 . S
Dy201 C231 2.738 . S
C202 O214 1.254 . S
C202 O215 1.257 . S
O203 Dy200 2.307 . S
O203 C213 1.266 . S
O204 Dy201 2.298 . S
O204 C213 1.236 . S
O205 Dy200 2.395 . S
O205 C222 1.255 . S
O206 Dy200 2.379 . S
O206 C222 1.249 . S
O207 Dy201 2.275 . S
O207 C223 1.254 . S
O208 Dy200 2.339 . S
O208 C223 1.257 . S
O209 Dy201 2.307 . S
O209 C224 1.266 . S
O210 Dy200 2.298 . S
O210 C224 1.236 . S
O211 Dy201 2.395 . S
O211 C231 1.255 . S
O212 Dy201 2.379 . S
O212 C231 1.249 . S
C213 O203 1.266 . S
C213 O204 1.236 . S
O214 Dy200 2.275 . S
O214 C202 1.254 . S
O215 Dy201 2.339 . S
O215 C202 1.257 . S
C216 C219 1.344 . S
C216 C220 1.328 . S
C216 C222 1.516 . S
C217 C218 1.304 . S
C217 C221 1.323 . S
C218 C217 1.304 . S
C218 C219 1.371 . S
C218 H232 0.930 . S
C219 C216 1.344 . S
C219 C218 1.371 . S
C219 H233 0.931 . S
C220 C216 1.328 . S
C220 C221 1.433 . S
C220 H234 0.931 . S
C221 C217 1.323 . S
C221 C220 1.433 . S
C221 H235 0.933 . S
C222 Dy200 2.738 . S
C222 O205 1.255 . S
C222 O206 1.249 . S
C222 C216 1.516 . S
C223 O207 1.254 . S
C223 O208 1.257 . S
C224 O209 1.266 . S
C224 O210 1.236 . S
C225 C228 1.344 . S
C225 C229 1.328 . S
C225 C231 1.516 . S
C226 C227 1.304 . S
C226 C230 1.323 . S
C227 C226 1.304 . S
C227 C228 1.371 . S
C227 H236 0.930 . S
C228 C225 1.344 . S
C228 C227 1.371 . S
C228 H237 0.931 . S
C229 C225 1.328 . S
C229 C230 1.433 . S
C229 H238 0.931 . S
C230 C226 1.323 . S
C230 C229 1.433 . S
C230 H239 0.933 . S
C231 Dy201 2.738 . S
C231 O211 1.255 . S
C231 O212 1.249 . S
C231 C225 1.516 . S
H232 C218 0.930 . S
H233 C219 0.931 . S
H234 C220 0.931 . S
H235 C221 0.933 . S
H236 C227 0.930 . S
H237 C228 0.931 . S
H238 C229 0.931 . S
H239 C230 0.933 . S
Dy240 O243 2.307 . S
Dy240 O245 2.395 . S
Dy240 O246 2.379 . S
Dy240 O248 2.339 . S
Dy240 O250 2.298 . S
Dy240 O254 2.275 . S
Dy240 C262 2.738 . S
Dy241 O244 2.298 . S
Dy241 O247 2.275 . S
Dy241 O249 2.307 . S
Dy241 O251 2.395 . S
Dy241 O252 2.379 . S
Dy241 O255 2.339 . S
Dy241 C271 2.738 . S
C242 O254 1.254 . S
C242 O255 1.257 . S
O243 Dy240 2.307 . S
O243 C253 1.266 . S
O244 Dy241 2.298 . S
O244 C253 1.236 . S
O245 Dy240 2.395 . S
O245 C262 1.255 . S
O246 Dy240 2.379 . S
O246 C262 1.249 . S
O247 Dy241 2.275 . S
O247 C263 1.254 . S
O248 Dy240 2.339 . S
O248 C263 1.257 . S
O249 Dy241 2.307 . S
O249 C264 1.266 . S
O250 Dy240 2.298 . S
O250 C264 1.236 . S
O251 Dy241 2.395 . S
O251 C271 1.255 . S
O252 Dy241 2.379 . S
O252 C271 1.249 . S
C253 O243 1.266 . S
C253 O244 1.236 . S
O254 Dy240 2.275 . S
O254 C242 1.254 . S
O255 Dy241 2.339 . S
O255 C242 1.257 . S
C256 C259 1.344 . S
C256 C260 1.328 . S
C256 C262 1.516 . S
C257 C258 1.304 . S
C257 C261 1.323 . S
C258 C257 1.304 . S
C258 C259 1.371 . S
C258 H272 0.930 . S
C259 C256 1.344 . S
C259 C258 1.371 . S
C259 H273 0.931 . S
C260 C256 1.328 . S
C260 C261 1.433 . S
C260 H274 0.931 . S
C261 C257 1.323 . S
C261 C260 1.433 . S
C261 H275 0.933 . S
C262 Dy240 2.738 . S
C262 O245 1.255 . S
C262 O246 1.249 . S
C262 C256 1.516 . S
C263 O247 1.254 . S
C263 O248 1.257 . S
C264 O249 1.266 . S
C264 O250 1.236 . S
C265 C268 1.344 . S
C265 C269 1.328 . S
C265 C271 1.516 . S
C266 C267 1.304 . S
C266 C270 1.323 . S
C267 C266 1.304 . S
C267 C268 1.371 . S
C267 H276 0.930 . S
C268 C265 1.344 . S
C268 C267 1.371 . S
C268 H277 0.931 . S
C269 C265 1.328 . S
C269 C270 1.433 . S
C269 H278 0.931 . S
C270 C266 1.323 . S
C270 C269 1.433 . S
C270 H279 0.933 . S
C271 Dy241 2.738 . S
C271 O251 1.255 . S
C271 O252 1.249 . S
C271 C265 1.516 . S
H272 C258 0.930 . S
H273 C259 0.931 . S
H274 C260 0.931 . S
H275 C261 0.933 . S
H276 C267 0.930 . S
H277 C268 0.931 . S
H278 C269 0.931 . S
H279 C270 0.933 . S
Dy280 O283 2.307 . S
Dy280 O285 2.395 . S
Dy280 O286 2.379 . S
Dy280 O288 2.339 . S
Dy280 O290 2.298 . S
Dy280 O294 2.275 . S
Dy280 C302 2.738 . S
Dy281 O284 2.298 . S
Dy281 O287 2.275 . S
Dy281 O289 2.307 . S
Dy281 O291 2.395 . S
Dy281 O292 2.379 . S
Dy281 O295 2.339 . S
Dy281 C311 2.738 . S
C282 O294 1.254 . S
C282 O295 1.257 . S
O283 Dy280 2.307 . S
O283 C293 1.266 . S
O284 Dy281 2.298 . S
O284 C293 1.236 . S
O285 Dy280 2.395 . S
O285 C302 1.255 . S
O286 Dy280 2.379 . S
O286 C302 1.249 . S
O287 Dy281 2.275 . S
O287 C303 1.254 . S
O288 Dy280 2.339 . S
O288 C303 1.257 . S
O289 Dy281 2.307 . S
O289 C304 1.266 . S
O290 Dy280 2.298 . S
O290 C304 1.236 . S
O291 Dy281 2.395 . S
O291 C311 1.255 . S
O292 Dy281 2.379 . S
O292 C311 1.249 . S
C293 O283 1.266 . S
C293 O284 1.236 . S
O294 Dy280 2.275 . S
O294 C282 1.254 . S
O295 Dy281 2.339 . S
O295 C282 1.257 . S
C296 C299 1.344 . S
C296 C300 1.328 . S
C296 C302 1.516 . S
C297 C298 1.304 . S
C297 C301 1.323 . S
C298 C297 1.304 . S
C298 C299 1.371 . S
C298 H312 0.930 . S
C299 C296 1.344 . S
C299 C298 1.371 . S
C299 H313 0.931 . S
C300 C296 1.328 . S
C300 C301 1.433 . S
C300 H314 0.931 . S
C301 C297 1.323 . S
C301 C300 1.433 . S
C301 H315 0.933 . S
C302 Dy280 2.738 . S
C302 O285 1.255 . S
C302 O286 1.249 . S
C302 C296 1.516 . S
C303 O287 1.254 . S
C303 O288 1.257 . S
C304 O289 1.266 . S
C304 O290 1.236 . S
C305 C308 1.344 . S
C305 C309 1.328 . S
C305 C311 1.516 . S
C306 C307 1.304 . S
C306 C310 1.323 . S
C307 C306 1.304 . S
C307 C308 1.371 . S
C307 H316 0.930 . S
C308 C305 1.344 . S
C308 C307 1.371 . S
C308 H317 0.931 . S
C309 C305 1.328 . S
C309 C310 1.433 . S
C309 H318 0.931 . S
C310 C306 1.323 . S
C310 C309 1.433 . S
C310 H319 0.933 . S
C311 Dy281 2.738 . S
C311 O291 1.255 . S
C311 O292 1.249 . S
C311 C305 1.516 . S
H312 C298 0.930 . S
H313 C299 0.931 . S
H314 C300 0.931 . S
H315 C301 0.933 . S
H316 C307 0.930 . S
H317 C308 0.931 . S
H318 C309 0.931 . S
H319 C310 0.933 . S
Dy320 O323 2.307 . S
Dy320 O325 2.395 . S
Dy320 O326 2.379 . S
Dy320 O328 2.339 . S
Dy320 O330 2.298 . S
Dy320 O334 2.275 . S
Dy320 C342 2.738 . S
Dy321 O324 2.298 . S
Dy321 O327 2.275 . S
Dy321 O329 2.307 . S
Dy321 O331 2.395 . S
Dy321 O332 2.379 . S
Dy321 O335 2.339 . S
Dy321 C351 2.738 . S
C322 O334 1.254 . S
C322 O335 1.257 . S
O323 Dy320 2.307 . S
O323 C333 1.266 . S
O324 Dy321 2.298 . S
O324 C333 1.236 . S
O325 Dy320 2.395 . S
O325 C342 1.255 . S
O326 Dy320 2.379 . S
O326 C342 1.249 . S
O327 Dy321 2.275 . S
O327 C343 1.254 . S
O328 Dy320 2.339 . S
O328 C343 1.257 . S
O329 Dy321 2.307 . S
O329 C344 1.266 . S
O330 Dy320 2.298 . S
O330 C344 1.236 . S
O331 Dy321 2.395 . S
O331 C351 1.255 . S
O332 Dy321 2.379 . S
O332 C351 1.249 . S
C333 O323 1.266 . S
C333 O324 1.236 . S
O334 Dy320 2.275 . S
O334 C322 1.254 . S
O335 Dy321 2.339 . S
O335 C322 1.257 . S
C336 C339 1.344 . S
C336 C340 1.328 . S
C336 C342 1.516 . S
C337 C338 1.304 . S
C337 C341 1.323 . S
C338 C337 1.304 . S
C338 C339 1.371 . S
C338 H352 0.930 . S
C339 C336 1.344 . S
C339 C338 1.371 . S
C339 H353 0.931 . S
C340 C336 1.328 . S
C340 C341 1.433 . S
C340 H354 0.931 . S
C341 C337 1.323 . S
C341 C340 1.433 . S
C341 H355 0.933 . S
C342 Dy320 2.738 . S
C342 O325 1.255 . S
C342 O326 1.249 . S
C342 C336 1.516 . S
C343 O327 1.254 . S
C343 O328 1.257 . S
C344 O329 1.266 . S
C344 O330 1.236 . S
C345 C348 1.344 . S
C345 C349 1.328 . S
C345 C351 1.516 . S
C346 C347 1.304 . S
C346 C350 1.323 . S
C347 C346 1.304 . S
C347 C348 1.371 . S
C347 H356 0.930 . S
C348 C345 1.344 . S
C348 C347 1.371 . S
C348 H357 0.931 . S
C349 C345 1.328 . S
C349 C350 1.433 . S
C349 H358 0.931 . S
C350 C346 1.323 . S
C350 C349 1.433 . S
C350 H359 0.933 . S
C351 Dy321 2.738 . S
C351 O331 1.255 . S
C351 O332 1.249 . S
C351 C345 1.516 . S
H352 C338 0.930 . S
H353 C339 0.931 . S
H354 C340 0.931 . S
H355 C341 0.933 . S
H356 C347 0.930 . S
H357 C348 0.931 . S
H358 C349 0.931 . S
H359 C350 0.933 . S
C360 C361 1.391 . S
C360 C362 1.394 . S
C360 H376 0.931 . S
C361 C360 1.391 . S
C361 C365 1.376 . S
C362 C360 1.394 . S
C362 C363 1.369 . S
C362 C366 1.531 . S
C363 C362 1.369 . S
C363 C364 1.410 . S
C363 C371 1.503 . S
C364 C363 1.410 . S
C364 C365 1.392 . S
C364 C367 1.511 . S
C365 C361 1.376 . S
C365 C364 1.392 . S
C365 H377 0.929 . S
C366 C362 1.531 . S
C366 H378 0.960 . S
C366 H379 0.962 . S
C366 H380 0.960 . S
C367 C364 1.511 . S
C367 H381 0.961 . S
C367 H382 0.961 . S
C367 H383 0.961 . S
C368 C369 1.370 . S
C368 C370 1.363 . S
C368 H384 0.931 . S
C369 C368 1.370 . S
C369 C373 1.408 . S
C370 C368 1.363 . S
C370 C371 1.370 . S
C370 C374 1.524 . S
C371 C363 1.503 . S
C371 C370 1.370 . S
C371 C372 1.403 . S
C372 C371 1.403 . S
C372 C373 1.404 . S
C372 C375 1.539 . S
C373 C369 1.408 . S
C373 C372 1.404 . S
C373 H385 0.930 . S
C374 C370 1.524 . S
C374 H386 0.956 . S
C374 H387 0.961 . S
C374 H388 0.961 . S
C375 C372 1.539 . S
C375 H389 0.958 . S
C375 H390 0.961 . S
C375 H391 0.960 . S
H376 C360 0.931 . S
H377 C365 0.929 . S
H378 C366 0.960 . S
H379 C366 0.962 . S
H380 C366 0.960 . S
H381 C367 0.961 . S
H382 C367 0.961 . S
H383 C367 0.961 . S
H384 C368 0.931 . S
H385 C373 0.930 . S
H386 C374 0.956 . S
H387 C374 0.961 . S
H388 C374 0.961 . S
H389 C375 0.958 . S
H390 C375 0.961 . S
H391 C375 0.960 . S
C392 C393 1.391 . S
C392 C394 1.394 . S
C392 H408 0.931 1_556 S
C393 C392 1.391 . S
C393 C397 1.376 . S
C394 C392 1.394 . S
C394 C395 1.369 . S
C394 C398 1.531 . S
C395 C394 1.369 . S
C395 C396 1.410 . S
C395 C403 1.503 . S
C396 C395 1.410 . S
C396 C397 1.392 . S
C396 C399 1.511 . S
C397 C393 1.376 . S
C397 C396 1.392 . S
C397 H409 0.929 . S
C398 C394 1.531 . S
C398 H410 0.960 . S
C398 H411 0.962 1_556 S
C398 H412 0.960 1_556 S
C399 C396 1.511 . S
C399 H413 0.961 . S
C399 H414 0.961 . S
C399 H415 0.961 . S
C400 C401 1.370 . S
C400 C402 1.363 . S
C400 H416 0.931 . S
C401 C400 1.370 . S
C401 C405 1.408 . S
C402 C400 1.363 . S
C402 C403 1.370 . S
C402 C406 1.524 . S
C403 C395 1.503 . S
C403 C402 1.370 . S
C403 C404 1.403 . S
C404 C403 1.403 . S
C404 C405 1.404 . S
C404 C407 1.539 . S
C405 C401 1.408 . S
C405 C404 1.404 . S
C405 H417 0.930 . S
C406 C402 1.524 . S
C406 H418 0.956 . S
C406 H419 0.961 . S
C406 H420 0.961 . S
C407 C404 1.539 . S
C407 H421 0.958 . S
C407 H422 0.961 . S
C407 H423 0.960 . S
H408 C392 0.931 1_554 S
H409 C397 0.929 . S
H410 C398 0.960 . S
H411 C398 0.962 1_554 S
H412 C398 0.960 1_554 S
H413 C399 0.961 . S
H414 C399 0.961 . S
H415 C399 0.961 . S
H416 C400 0.931 . S
H417 C405 0.930 . S
H418 C406 0.956 . S
H419 C406 0.961 . S
H420 C406 0.961 . S
H421 C407 0.958 . S
H422 C407 0.961 . S
H423 C407 0.960 . S
C424 C425 1.391 . S
C424 C426 1.394 . S
C424 H440 0.931 . S
C425 C424 1.391 . S
C425 C429 1.376 . S
C426 C424 1.394 . S
C426 C427 1.369 . S
C426 C430 1.531 . S
C427 C426 1.369 . S
C427 C428 1.410 . S
C427 C435 1.503 . S
C428 C427 1.410 . S
C428 C429 1.392 . S
C428 C431 1.511 . S
C429 C425 1.376 . S
C429 C428 1.392 . S
C429 H441 0.929 . S
C430 C426 1.531 . S
C430 H442 0.960 . S
C430 H443 0.962 . S
C430 H444 0.960 . S
C431 C428 1.511 . S
C431 H445 0.961 . S
C431 H446 0.961 . S
C431 H447 0.961 . S
C432 C433 1.370 . S
C432 C434 1.363 . S
C432 H448 0.931 . S
C433 C432 1.370 . S
C433 C437 1.408 . S
C434 C432 1.363 . S
C434 C435 1.370 . S
C434 C438 1.524 . S
C435 C427 1.503 . S
C435 C434 1.370 . S
C435 C436 1.403 . S
C436 C435 1.403 . S
C436 C437 1.404 . S
C436 C439 1.539 . S
C437 C433 1.408 . S
C437 C436 1.404 . S
C437 H449 0.930 . S
C438 C434 1.524 . S
C438 H450 0.956 . S
C438 H451 0.961 . S
C438 H452 0.961 . S
C439 C436 1.539 . S
C439 H453 0.958 . S
C439 H454 0.961 . S
C439 H455 0.960 . S
H440 C424 0.931 . S
H441 C429 0.929 . S
H442 C430 0.960 . S
H443 C430 0.962 . S
H444 C430 0.960 . S
H445 C431 0.961 . S
H446 C431 0.961 . S
H447 C431 0.961 . S
H448 C432 0.931 . S
H449 C437 0.930 . S
H450 C438 0.956 . S
H451 C438 0.961 . S
H452 C438 0.961 . S
H453 C439 0.958 . S
H454 C439 0.961 . S
H455 C439 0.960 . S
C456 C457 1.391 . S
C456 C458 1.394 . S
C456 H472 0.931 . S
C457 C456 1.391 . S
C457 C461 1.376 . S
C458 C456 1.394 . S
C458 C459 1.369 . S
C458 C462 1.531 . S
C459 C458 1.369 . S
C459 C460 1.410 . S
C459 C467 1.503 . S
C460 C459 1.410 . S
C460 C461 1.392 . S
C460 C463 1.511 1_554 S
C461 C457 1.376 . S
C461 C460 1.392 . S
C461 H473 0.929 . S
C462 C458 1.531 . S
C462 H474 0.960 . S
C462 H475 0.962 . S
C462 H476 0.960 . S
C463 C460 1.511 1_556 S
C463 H477 0.961 . S
C463 H478 0.961 . S
C463 H479 0.961 . S
C464 C465 1.370 . S
C464 C466 1.363 . S
C464 H480 0.931 . S
C465 C464 1.370 . S
C465 C469 1.408 . S
C466 C464 1.363 . S
C466 C467 1.370 . S
C466 C470 1.524 . S
C467 C459 1.503 . S
C467 C466 1.370 . S
C467 C468 1.403 . S
C468 C467 1.403 . S
C468 C469 1.404 . S
C468 C471 1.539 . S
C469 C465 1.408 . S
C469 C468 1.404 . S
C469 H481 0.930 1_554 S
C470 C466 1.524 . S
C470 H482 0.956 . S
C470 H483 0.961 . S
C470 H484 0.961 . S
C471 C468 1.539 . S
C471 H485 0.958 . S
C471 H486 0.961 1_554 S
C471 H487 0.960 . S
H472 C456 0.931 . S
H473 C461 0.929 . S
H474 C462 0.960 . S
H475 C462 0.962 . S
H476 C462 0.960 . S
H477 C463 0.961 . S
H478 C463 0.961 . S
H479 C463 0.961 . S
H480 C464 0.931 . S
H481 C469 0.930 1_556 S
H482 C470 0.956 . S
H483 C470 0.961 . S
H484 C470 0.961 . S
H485 C471 0.958 . S
H486 C471 0.961 1_556 S
H487 C471 0.960 . S
C488 C489 1.391 . S
C488 C490 1.394 . S
C488 H504 0.931 . S
C489 C488 1.391 . S
C489 C493 1.376 . S
C490 C488 1.394 . S
C490 C491 1.369 . S
C490 C494 1.531 . S
C491 C490 1.369 . S
C491 C492 1.410 . S
C491 C499 1.503 . S
C492 C491 1.410 . S
C492 C493 1.392 . S
C492 C495 1.511 . S
C493 C489 1.376 . S
C493 C492 1.392 . S
C493 H505 0.929 . S
C494 C490 1.531 . S
C494 H506 0.960 . S
C494 H507 0.962 . S
C494 H508 0.960 . S
C495 C492 1.511 . S
C495 H509 0.961 . S
C495 H510 0.961 . S
C495 H511 0.961 . S
C496 C497 1.370 1_556 S
C496 C498 1.363 1_556 S
C496 H512 0.931 . S
C497 C496 1.370 1_554 S
C497 C501 1.408 . S
C498 C496 1.363 1_554 S
C498 C499 1.370 . S
C498 C502 1.524 1_554 S
C499 C491 1.503 . S
C499 C498 1.370 . S
C499 C500 1.403 . S
C500 C499 1.403 . S
C500 C501 1.404 . S
C500 C503 1.539 . S
C501 C497 1.408 . S
C501 C500 1.404 . S
C501 H513 0.930 . S
C502 C498 1.524 1_556 S
C502 H514 0.956 . S
C502 H515 0.961 . S
C502 H516 0.961 . S
C503 C500 1.539 . S
C503 H517 0.958 . S
C503 H518 0.961 . S
C503 H519 0.960 . S
H504 C488 0.931 . S
H505 C493 0.929 . S
H506 C494 0.960 . S
H507 C494 0.962 . S
H508 C494 0.960 . S
H509 C495 0.961 . S
H510 C495 0.961 . S
H511 C495 0.961 . S
H512 C496 0.931 . S
H513 C501 0.930 . S
H514 C502 0.956 . S
H515 C502 0.961 . S
H516 C502 0.961 . S
H517 C503 0.958 . S
H518 C503 0.961 . S
H519 C503 0.960 . S
C520 C521 1.391 1_556 S
C520 C522 1.394 1_556 S
C520 H536 0.931 . S
C521 C520 1.391 1_554 S
C521 C525 1.376 . S
C522 C520 1.394 1_554 S
C522 C523 1.369 . S
C522 C526 1.531 1_554 S
C523 C522 1.369 . S
C523 C524 1.410 . S
C523 C531 1.503 . S
C524 C523 1.410 . S
C524 C525 1.392 . S
C524 C527 1.511 . S
C525 C521 1.376 . S
C525 C524 1.392 . S
C525 H537 0.929 . S
C526 C522 1.531 1_556 S
C526 H538 0.960 . S
C526 H539 0.962 1_556 S
C526 H540 0.960 . S
C527 C524 1.511 . S
C527 H541 0.961 . S
C527 H542 0.961 . S
C527 H543 0.961 . S
C528 C529 1.370 . S
C528 C530 1.363 . S
C528 H544 0.931 . S
C529 C528 1.370 . S
C529 C533 1.408 . S
C530 C528 1.363 . S
C530 C531 1.370 . S
C530 C534 1.524 . S
C531 C523 1.503 . S
C531 C530 1.370 . S
C531 C532 1.403 . S
C532 C531 1.403 . S
C532 C533 1.404 . S
C532 C535 1.539 . S
C533 C529 1.408 . S
C533 C532 1.404 . S
C533 H545 0.930 . S
C534 C530 1.524 . S
C534 H546 0.956 . S
C534 H547 0.961 . S
C534 H548 0.961 . S
C535 C532 1.539 . S
C535 H549 0.958 1_554 S
C535 H550 0.961 . S
C535 H551 0.960 . S
H536 C520 0.931 . S
H537 C525 0.929 . S
H538 C526 0.960 . S
H539 C526 0.962 1_554 S
H540 C526 0.960 . S
H541 C527 0.961 . S
H542 C527 0.961 . S
H543 C527 0.961 . S
H544 C528 0.931 . S
H545 C533 0.930 . S
H546 C534 0.956 . S
H547 C534 0.961 . S
H548 C534 0.961 . S
H549 C535 0.958 1_556 S
H550 C535 0.961 . S
H551 C535 0.960 . S
C552 C553 1.391 . S
C552 C554 1.394 1_455 S
C552 H568 0.931 . S
C553 C552 1.391 . S
C553 C557 1.328 1_455 S
C554 C552 1.394 1_655 S
C554 C555 1.369 . S
C554 C558 1.531 . S
C555 C554 1.369 . S
C555 C556 1.410 . S
C555 C563 1.503 . S
C556 C555 1.410 . S
C556 C557 1.433 . S
C556 C559 1.511 . S
C557 C553 1.328 1_655 S
C557 C556 1.433 . S
C557 H569 0.937 1_655 S
C558 C554 1.531 . S
C558 H570 0.960 . S
C558 H571 0.962 . S
C558 H572 0.960 . S
C559 C556 1.511 . S
C559 H573 0.961 . S
C559 H574 0.961 . S
C559 H575 0.961 . S
C560 C561 1.370 . S
C560 C562 1.363 . S
C560 H576 0.931 . S
C561 C560 1.370 . S
C561 C565 1.408 . S
C562 C560 1.363 . S
C562 C563 1.370 . S
C562 C566 1.524 . S
C563 C555 1.503 . S
C563 C562 1.370 . S
C563 C564 1.403 . S
C564 C563 1.403 . S
C564 C565 1.404 . S
C564 C567 1.539 . S
C565 C561 1.408 . S
C565 C564 1.404 . S
C565 H577 0.930 . S
C566 C562 1.524 . S
C566 H578 0.956 . S
C566 H579 0.961 . S
C566 H580 0.961 . S
C567 C564 1.539 . S
C567 H581 0.958 . S
C567 H582 0.961 . S
C567 H583 0.960 . S
H568 C552 0.931 . S
H569 C557 0.937 1_455 S
H570 C558 0.960 . S
H571 C558 0.962 . S
H572 C558 0.960 . S
H573 C559 0.961 . S
H574 C559 0.961 . S
H575 C559 0.961 . S
H576 C560 0.931 . S
H577 C565 0.930 . S
H578 C566 0.956 . S
H579 C566 0.961 . S
H580 C566 0.961 . S
H581 C567 0.958 . S
H582 C567 0.961 . S
H583 C567 0.960 . S
C584 C585 1.391 . S
C584 C586 1.394 . S
C584 H600 0.931 . S
C585 C584 1.391 . S
C585 C589 1.376 . S
C586 C584 1.394 . S
C586 C587 1.369 . S
C586 C590 1.531 . S
C587 C586 1.369 . S
C587 C588 1.410 . S
C587 C595 1.503 . S
C588 C587 1.410 . S
C588 C589 1.392 . S
C588 C591 1.511 . S
C589 C585 1.376 . S
C589 C588 1.392 . S
C589 H601 0.929 . S
C590 C586 1.531 . S
C590 H602 0.960 . S
C590 H603 0.962 . S
C590 H604 0.960 . S
C591 C588 1.511 . S
C591 H605 0.961 . S
C591 H606 0.961 . S
C591 H607 0.961 . S
C592 C593 1.370 . S
C592 C594 1.363 . S
C592 H608 0.931 . S
C593 C592 1.370 . S
C593 C597 1.408 . S
C594 C592 1.363 . S
C594 C595 1.370 . S
C594 C598 1.524 . S
C595 C587 1.503 . S
C595 C594 1.370 . S
C595 C596 1.403 . S
C596 C595 1.403 . S
C596 C597 1.404 . S
C596 C599 1.539 . S
C597 C593 1.408 . S
C597 C596 1.404 . S
C597 H609 0.930 . S
C598 C594 1.524 . S
C598 H610 0.956 . S
C598 H611 0.961 . S
C598 H612 0.961 . S
C599 C596 1.539 . S
C599 H613 0.958 . S
C599 H614 0.961 . S
C599 H615 0.960 . S
H600 C584 0.931 . S
H601 C589 0.929 . S
H602 C590 0.960 . S
H603 C590 0.962 . S
H604 C590 0.960 . S
H605 C591 0.961 . S
H606 C591 0.961 . S
H607 C591 0.961 . S
H608 C592 0.931 . S
H609 C597 0.930 . S
H610 C598 0.956 . S
H611 C598 0.961 . S
H612 C598 0.961 . S
H613 C599 0.958 . S
H614 C599 0.961 . S
H615 C599 0.960 . S
C616 C617 1.391 . S
C616 C618 1.394 . S
C616 H632 0.931 . S
C617 C616 1.391 . S
C617 C621 1.376 . S
C618 C616 1.394 . S
C618 C619 1.369 . S
C618 C622 1.531 . S
C619 C618 1.369 . S
C619 C620 1.410 . S
C619 C627 1.503 . S
C620 C619 1.410 . S
C620 C621 1.392 . S
C620 C623 1.511 . S
C621 C617 1.376 . S
C621 C620 1.392 . S
C621 H633 0.929 . S
C622 C618 1.531 . S
C622 H634 0.960 . S
C622 H635 0.962 . S
C622 H636 0.960 . S
C623 C620 1.511 . S
C623 H637 0.961 . S
C623 H638 0.961 . S
C623 H639 0.961 . S
C624 C625 1.370 . S
C624 C626 1.363 . S
C624 H640 0.931 . S
C625 C624 1.370 . S
C625 C629 1.408 . S
C626 C624 1.363 . S
C626 C627 1.370 . S
C626 C630 1.524 . S
C627 C619 1.503 . S
C627 C626 1.370 . S
C627 C628 1.403 . S
C628 C627 1.403 . S
C628 C629 1.404 . S
C628 C631 1.539 . S
C629 C625 1.408 . S
C629 C628 1.404 . S
C629 H641 0.930 . S
C630 C626 1.524 . S
C630 H642 0.956 . S
C630 H643 0.961 . S
C630 H644 0.961 . S
C631 C628 1.539 . S
C631 H645 0.958 . S
C631 H646 0.961 . S
C631 H647 0.960 . S
H632 C616 0.931 . S
H633 C621 0.929 . S
H634 C622 0.960 . S
H635 C622 0.962 . S
H636 C622 0.960 . S
H637 C623 0.961 . S
H638 C623 0.961 . S
H639 C623 0.961 . S
H640 C624 0.931 . S
H641 C629 0.930 . S
H642 C630 0.956 . S
H643 C630 0.961 . S
H644 C630 0.961 . S
H645 C631 0.958 . S
H646 C631 0.961 . S
H647 C631 0.960 . S
C648 C649 1.391 . S
C648 C650 1.394 1_554 S
C648 H664 0.931 1_554 S
C649 C648 1.391 . S
C649 C653 1.376 . S
C650 C648 1.394 1_556 S
C650 C651 1.369 1_556 S
C650 C654 1.531 . S
C651 C650 1.369 1_554 S
C651 C652 1.410 . S
C651 C659 1.503 . S
C652 C651 1.410 . S
C652 C653 1.392 . S
C652 C655 1.511 . S
C653 C649 1.376 . S
C653 C652 1.392 . S
C653 H665 0.929 . S
C654 C650 1.531 . S
C654 H666 0.960 . S
C654 H667 0.962 . S
C654 H668 0.960 . S
C655 C652 1.511 . S
C655 H669 0.961 . S
C655 H670 0.961 . S
C655 H671 0.961 . S
C656 C657 1.370 . S
C656 C658 1.363 . S
C656 H672 0.931 . S
C657 C656 1.370 . S
C657 C661 1.408 1_554 S
C658 C656 1.363 . S
C658 C659 1.370 . S
C658 C662 1.524 . S
C659 C651 1.503 . S
C659 C658 1.370 . S
C659 C660 1.403 1_554 S
C660 C659 1.403 1_556 S
C660 C661 1.404 . S
C660 C663 1.539 . S
C661 C657 1.408 1_556 S
C661 C660 1.404 . S
C661 H673 0.930 . S
C662 C658 1.524 . S
C662 H674 0.956 . S
C662 H675 0.961 . S
C662 H676 0.961 . S
C663 C660 1.539 . S
C663 H677 0.958 . S
C663 H678 0.961 . S
C663 H679 0.960 . S
H664 C648 0.931 1_556 S
H665 C653 0.929 . S
H666 C654 0.960 . S
H667 C654 0.962 . S
H668 C654 0.960 . S
H669 C655 0.961 . S
H670 C655 0.961 . S
H671 C655 0.961 . S
H672 C656 0.931 . S
H673 C661 0.930 . S
H674 C662 0.956 . S
H675 C662 0.961 . S
H676 C662 0.961 . S
H677 C663 0.958 . S
H678 C663 0.961 . S
H679 C663 0.960 . S
C680 C681 1.391 . S
C680 C682 1.394 . S
C680 H696 0.931 . S
C681 C680 1.391 . S
C681 C685 1.376 1_554 S
C682 C680 1.394 . S
C682 C683 1.369 . S
C682 C686 1.531 . S
C683 C682 1.369 . S
C683 C684 1.410 . S
C683 C691 1.503 . S
C684 C683 1.410 . S
C684 C685 1.392 1_554 S
C684 C687 1.511 1_554 S
C685 C681 1.376 1_556 S
C685 C684 1.392 1_556 S
C685 H697 0.929 . S
C686 C682 1.531 . S
C686 H698 0.960 . S
C686 H699 0.962 . S
C686 H700 0.960 . S
C687 C684 1.511 1_556 S
C687 H701 0.961 . S
C687 H702 0.961 . S
C687 H703 0.961 1_556 S
C688 C689 1.370 1_556 S
C688 C690 1.363 1_545 S
C688 H704 0.931 . S
C689 C688 1.370 1_554 S
C689 C693 1.408 . S
C690 C688 1.363 1_565 S
C690 C691 1.370 1_556 S
C690 C694 1.524 . S
C691 C683 1.503 . S
C691 C690 1.370 1_554 S
C691 C692 1.403 . S
C692 C691 1.403 . S
C692 C693 1.404 1_565 S
C692 C695 1.539 . S
C693 C689 1.408 . S
C693 C692 1.404 1_545 S
C693 H705 0.930 . S
C694 C690 1.524 . S
C694 H706 0.956 . S
C694 H707 0.961 . S
C694 H708 0.961 . S
C695 C692 1.539 . S
C695 H709 0.958 . S
C695 H710 0.961 . S
C695 H711 0.960 . S
H696 C680 0.931 . S
H697 C685 0.929 . S
H698 C686 0.960 . S
H699 C686 0.962 . S
H700 C686 0.960 . S
H701 C687 0.961 . S
H702 C687 0.961 . S
H703 C687 0.961 1_554 S
H704 C688 0.931 . S
H705 C693 0.930 . S
H706 C694 0.956 . S
H707 C694 0.961 . S
H708 C694 0.961 . S
H709 C695 0.958 . S
H710 C695 0.961 . S
H711 C695 0.960 . S
C712 C713 1.391 . S
C712 C714 1.394 . S
C712 H728 0.931 . S
C713 C712 1.391 . S
C713 C717 1.376 . S
C714 C712 1.394 . S
C714 C715 1.369 . S
C714 C718 1.531 . S
C715 C714 1.369 . S
C715 C716 1.410 . S
C715 C723 1.503 . S
C716 C715 1.410 . S
C716 C717 1.392 . S
C716 C719 1.511 . S
C717 C713 1.376 . S
C717 C716 1.392 . S
C717 H729 0.929 . S
C718 C714 1.531 . S
C718 H730 0.960 . S
C718 H731 0.962 . S
C718 H732 0.960 . S
C719 C716 1.511 . S
C719 H733 0.961 . S
C719 H734 0.961 . S
C719 H735 0.961 . S
C720 C721 1.370 1_556 S
C720 C722 1.363 . S
C720 H736 0.931 . S
C721 C720 1.370 1_554 S
C721 C725 1.408 . S
C722 C720 1.363 . S
C722 C723 1.370 1_556 S
C722 C726 1.524 . S
C723 C715 1.503 . S
C723 C722 1.370 1_554 S
C723 C724 1.403 . S
C724 C723 1.403 . S
C724 C725 1.404 . S
C724 C727 1.539 . S
C725 C721 1.408 . S
C725 C724 1.404 . S
C725 H737 0.930 . S
C726 C722 1.524 . S
C726 H738 0.956 . S
C726 H739 0.961 . S
C726 H740 0.961 . S
C727 C724 1.539 . S
C727 H741 0.958 . S
C727 H742 0.961 . S
C727 H743 0.960 . S
H728 C712 0.931 . S
H729 C717 0.929 . S
H730 C718 0.960 . S
H731 C718 0.962 . S
H732 C718 0.960 . S
H733 C719 0.961 . S
H734 C719 0.961 . S
H735 C719 0.961 . S
H736 C720 0.931 . S
H737 C725 0.930 . S
H738 C726 0.956 . S
H739 C726 0.961 . S
H740 C726 0.961 . S
H741 C727 0.958 . S
H742 C727 0.961 . S
H743 C727 0.960 . S
C744 C745 1.391 . S
C744 C746 1.394 . S
C744 H760 0.931 . S
C745 C744 1.391 . S
C745 C749 1.376 . S
C746 C744 1.394 . S
C746 C747 1.369 . S
C746 C750 1.531 . S
C747 C746 1.369 . S
C747 C748 1.410 . S
C747 C755 1.503 . S
C748 C747 1.410 . S
C748 C749 1.392 . S
C748 C751 1.511 . S
C749 C745 1.376 . S
C749 C748 1.392 . S
C749 H761 0.929 . S
C750 C746 1.531 . S
C750 H762 0.960 . S
C750 H763 0.962 . S
C750 H764 0.960 . S
C751 C748 1.511 . S
C751 H765 0.961 . S
C751 H766 0.961 . S
C751 H767 0.961 . S
C752 C753 1.370 . S
C752 C754 1.363 . S
C752 H768 0.931 . S
C753 C752 1.370 . S
C753 C757 1.408 . S
C754 C752 1.363 . S
C754 C755 1.370 . S
C754 C758 1.524 . S
C755 C747 1.503 . S
C755 C754 1.370 . S
C755 C756 1.403 . S
C756 C755 1.403 . S
C756 C757 1.404 . S
C756 C759 1.539 . S
C757 C753 1.408 . S
C757 C756 1.404 . S
C757 H769 0.930 . S
C758 C754 1.524 . S
C758 H770 0.956 . S
C758 H771 0.961 . S
C758 H772 0.961 . S
C759 C756 1.539 . S
C759 H773 0.958 . S
C759 H774 0.961 . S
C759 H775 0.960 . S
H760 C744 0.931 . S
H761 C749 0.929 . S
H762 C750 0.960 . S
H763 C750 0.962 . S
H764 C750 0.960 . S
H765 C751 0.961 . S
H766 C751 0.961 . S
H767 C751 0.961 . S
H768 C752 0.931 . S
H769 C757 0.930 . S
H770 C758 0.956 . S
H771 C758 0.961 . S
H772 C758 0.961 . S
H773 C759 0.958 . S
H774 C759 0.961 . S
H775 C759 0.960 . S
C776 C777 1.391 . S
C776 C778 1.394 . S
C776 H792 0.931 . S
C777 C776 1.391 . S
C777 C781 1.376 . S
C778 C776 1.394 . S
C778 C779 1.369 . S
C778 C782 1.531 . S
C779 C778 1.369 . S
C779 C780 1.410 . S
C779 C787 1.503 . S
C780 C779 1.410 . S
C780 C781 1.392 . S
C780 C783 1.511 . S
C781 C777 1.376 . S
C781 C780 1.392 . S
C781 H793 0.929 . S
C782 C778 1.531 . S
C782 H794 0.960 . S
C782 H795 0.962 . S
C782 H796 0.960 . S
C783 C780 1.511 . S
C783 H797 0.961 . S
C783 H798 0.961 . S
C783 H799 0.961 . S
C784 C785 1.370 . S
C784 C786 1.363 . S
C784 H800 0.931 . S
C785 C784 1.370 . S
C785 C789 1.408 . S
C786 C784 1.363 . S
C786 C787 1.370 . S
C786 C790 1.524 . S
C787 C779 1.503 . S
C787 C786 1.370 . S
C787 C788 1.403 . S
C788 C787 1.403 . S
C788 C789 1.404 . S
C788 C791 1.539 . S
C789 C785 1.408 . S
C789 C788 1.404 . S
C789 H801 0.930 . S
C790 C786 1.524 . S
C790 H802 0.956 . S
C790 H803 0.961 . S
C790 H804 0.961 . S
C791 C788 1.539 . S
C791 H805 0.958 . S
C791 H806 0.961 . S
C791 H807 0.960 . S
H792 C776 0.931 . S
H793 C781 0.929 . S
H794 C782 0.960 . S
H795 C782 0.962 . S
H796 C782 0.960 . S
H797 C783 0.961 . S
H798 C783 0.961 . S
H799 C783 0.961 . S
H800 C784 0.931 . S
H801 C789 0.930 . S
H802 C790 0.956 . S
H803 C790 0.961 . S
H804 C790 0.961 . S
H805 C791 0.958 . S
H806 C791 0.961 . S
H807 C791 0.960 . S
C808 C809 1.391 . S
C808 C810 1.394 . S
C808 H824 0.931 . S
C809 C808 1.391 . S
C809 C813 1.376 . S
C810 C808 1.394 . S
C810 C811 1.369 . S
C810 C814 1.531 . S
C811 C810 1.369 . S
C811 C812 1.410 . S
C811 C819 1.503 . S
C812 C811 1.410 . S
C812 C813 1.392 . S
C812 C815 1.511 . S
C813 C809 1.376 . S
C813 C812 1.392 . S
C813 H825 0.929 . S
C814 C810 1.531 . S
C814 H826 0.960 . S
C814 H827 0.962 . S
C814 H828 0.960 . S
C815 C812 1.511 . S
C815 H829 0.961 . S
C815 H830 0.961 . S
C815 H831 0.961 . S
C816 C817 1.370 . S
C816 C818 1.363 . S
C816 H832 0.931 . S
C817 C816 1.370 . S
C817 C821 1.408 . S
C818 C816 1.363 . S
C818 C819 1.370 . S
C818 C822 1.524 . S
C819 C811 1.503 . S
C819 C818 1.370 . S
C819 C820 1.403 . S
C820 C819 1.403 . S
C820 C821 1.404 . S
C820 C823 1.539 . S
C821 C817 1.408 . S
C821 C820 1.404 . S
C821 H833 0.930 . S
C822 C818 1.524 . S
C822 H834 0.956 . S
C822 H835 0.961 . S
C822 H836 0.961 . S
C823 C820 1.539 . S
C823 H837 0.958 . S
C823 H838 0.961 . S
C823 H839 0.960 . S
H824 C808 0.931 . S
H825 C813 0.929 . S
H826 C814 0.960 . S
H827 C814 0.962 . S
H828 C814 0.960 . S
H829 C815 0.961 . S
H830 C815 0.961 . S
H831 C815 0.961 . S
H832 C816 0.931 . S
H833 C821 0.930 . S
H834 C822 0.956 . S
H835 C822 0.961 . S
H836 C822 0.961 . S
H837 C823 0.958 . S
H838 C823 0.961 . S
H839 C823 0.960 . S
C840 C841 1.391 . S
C840 C842 1.394 . S
C840 H856 0.931 . S
C841 C840 1.391 . S
C841 C845 1.376 . S
C842 C840 1.394 . S
C842 C843 1.369 . S
C842 C846 1.531 . S
C843 C842 1.369 . S
C843 C844 1.410 . S
C843 C851 1.503 . S
C844 C843 1.410 . S
C844 C845 1.392 . S
C844 C847 1.511 . S
C845 C841 1.376 . S
C845 C844 1.392 . S
C845 H857 0.929 . S
C846 C842 1.531 . S
C846 H858 0.960 . S
C846 H859 0.962 . S
C846 H860 0.960 . S
C847 C844 1.511 . S
C847 H861 0.961 . S
C847 H862 0.961 . S
C847 H863 0.961 . S
C848 C849 1.370 . S
C848 C850 1.363 . S
C848 H864 0.931 . S
C849 C848 1.370 . S
C849 C853 1.408 . S
C850 C848 1.363 . S
C850 C851 1.370 . S
C850 C854 1.524 . S
C851 C843 1.503 . S
C851 C850 1.370 . S
C851 C852 1.403 . S
C852 C851 1.403 . S
C852 C853 1.404 . S
C852 C855 1.539 . S
C853 C849 1.408 . S
C853 C852 1.404 . S
C853 H865 0.930 . S
C854 C850 1.524 . S
C854 H866 0.956 . S
C854 H867 0.961 . S
C854 H868 0.961 . S
C855 C852 1.539 . S
C855 H869 0.958 . S
C855 H870 0.961 . S
C855 H871 0.960 . S
H856 C840 0.931 . S
H857 C845 0.929 . S
H858 C846 0.960 . S
H859 C846 0.962 . S
H860 C846 0.960 . S
H861 C847 0.961 . S
H862 C847 0.961 . S
H863 C847 0.961 . S
H864 C848 0.931 . S
H865 C853 0.930 . S
H866 C854 0.956 . S
H867 C854 0.961 . S
H868 C854 0.961 . S
H869 C855 0.958 . S
H870 C855 0.961 . S
H871 C855 0.960 . S
C872 C873 1.391 . S
C872 C874 1.394 . S
C872 H888 0.931 . S
C873 C872 1.391 . S
C873 C877 1.376 . S
C874 C872 1.394 . S
C874 C875 1.369 . S
C874 C878 1.531 . S
C875 C874 1.369 . S
C875 C876 1.410 . S
C875 C883 1.503 . S
C876 C875 1.410 . S
C876 C877 1.392 . S
C876 C879 1.511 . S
C877 C873 1.376 . S
C877 C876 1.392 . S
C877 H889 0.929 . S
C878 C874 1.531 . S
C878 H890 0.960 . S
C878 H891 0.962 . S
C878 H892 0.960 . S
C879 C876 1.511 . S
C879 H893 0.961 . S
C879 H894 0.961 . S
C879 H895 0.961 . S
C880 C881 1.370 . S
C880 C882 1.363 . S
C880 H896 0.931 . S
C881 C880 1.370 . S
C881 C885 1.408 . S
C882 C880 1.363 . S
C882 C883 1.370 . S
C882 C886 1.524 . S
C883 C875 1.503 . S
C883 C882 1.370 . S
C883 C884 1.403 . S
C884 C883 1.403 . S
C884 C885 1.404 . S
C884 C887 1.539 . S
C885 C881 1.408 . S
C885 C884 1.404 . S
C885 H897 0.930 . S
C886 C882 1.524 . S
C886 H898 0.956 . S
C886 H899 0.961 . S
C886 H900 0.961 . S
C887 C884 1.539 . S
C887 H901 0.958 . S
C887 H902 0.961 . S
C887 H903 0.960 . S
H888 C872 0.931 . S
H889 C877 0.929 . S
H890 C878 0.960 . S
H891 C878 0.962 . S
H892 C878 0.960 . S
H893 C879 0.961 . S
H894 C879 0.961 . S
H895 C879 0.961 . S
H896 C880 0.931 . S
H897 C885 0.930 . S
H898 C886 0.956 . S
H899 C886 0.961 . S
H900 C886 0.961 . S
H901 C887 0.958 . S
H902 C887 0.961 . S
H903 C887 0.960 . S
C904 C905 1.391 . S
C904 C906 1.394 . S
C904 H920 0.931 . S
C905 C904 1.391 . S
C905 C909 1.376 . S
C906 C904 1.394 . S
C906 C907 1.369 . S
C906 C910 1.531 . S
C907 C906 1.369 . S
C907 C908 1.410 . S
C907 C915 1.503 . S
C908 C907 1.410 . S
C908 C909 1.392 . S
C908 C911 1.511 . S
C909 C905 1.376 . S
C909 C908 1.392 . S
C909 H921 0.929 . S
C910 C906 1.531 . S
C910 H922 0.960 . S
C910 H923 0.962 . S
C910 H924 0.960 . S
C911 C908 1.511 . S
C911 H925 0.961 . S
C911 H926 0.961 . S
C911 H927 0.961 . S
C912 C913 1.370 . S
C912 C914 1.363 . S
C912 H928 0.931 . S
C913 C912 1.370 . S
C913 C917 1.408 . S
C914 C912 1.363 . S
C914 C915 1.370 . S
C914 C918 1.524 . S
C915 C907 1.503 . S
C915 C914 1.370 . S
C915 C916 1.403 . S
C916 C915 1.403 . S
C916 C917 1.404 . S
C916 C919 1.539 . S
C917 C913 1.408 . S
C917 C916 1.404 . S
C917 H929 0.930 . S
C918 C914 1.524 . S
C918 H930 0.956 . S
C918 H931 0.961 . S
C918 H932 0.961 . S
C919 C916 1.539 . S
C919 H933 0.958 . S
C919 H934 0.961 . S
C919 H935 0.960 . S
H920 C904 0.931 . S
H921 C909 0.929 . S
H922 C910 0.960 . S
H923 C910 0.962 . S
H924 C910 0.960 . S
H925 C911 0.961 . S
H926 C911 0.961 . S
H927 C911 0.961 . S
H928 C912 0.931 . S
H929 C917 0.930 . S
H930 C918 0.956 . S
H931 C918 0.961 . S
H932 C918 0.961 . S
H933 C919 0.958 . S
H934 C919 0.961 . S
H935 C919 0.960 . S
C936 C937 1.391 . S
C936 C938 1.394 . S
C936 H952 0.931 . S
C937 C936 1.391 . S
C937 C941 1.376 1_455 S
C938 C936 1.394 . S
C938 C939 1.369 . S
C938 C942 1.531 . S
C939 C938 1.369 . S
C939 C940 1.410 1_455 S
C939 C947 1.503 . S
C940 C939 1.410 1_655 S
C940 C941 1.392 . S
C940 C943 1.511 . S
C941 C937 1.376 1_655 S
C941 C940 1.392 . S
C941 H953 0.929 . S
C942 C938 1.531 . S
C942 H954 0.960 . S
C942 H955 0.962 . S
C942 H956 0.960 . S
C943 C940 1.511 . S
C943 H957 0.961 . S
C943 H958 0.961 . S
C943 H959 0.961 . S
C944 C945 1.370 . S
C944 C946 1.363 . S
C944 H960 0.931 . S
C945 C944 1.370 . S
C945 C949 1.408 1_455 S
C946 C944 1.363 . S
C946 C947 1.370 . S
C946 C950 1.524 . S
C947 C939 1.503 . S
C947 C946 1.370 . S
C947 C948 1.403 1_455 S
C948 C947 1.403 1_655 S
C948 C949 1.404 . S
C948 C951 1.539 . S
C949 C945 1.408 1_655 S
C949 C948 1.404 . S
C949 H961 0.930 . S
C950 C946 1.524 . S
C950 H962 0.956 . S
C950 H963 0.961 . S
C950 H964 0.961 . S
C951 C948 1.539 . S
C951 H965 0.958 . S
C951 H966 0.961 . S
C951 H967 0.960 . S
H952 C936 0.931 . S
H953 C941 0.929 . S
H954 C942 0.960 . S
H955 C942 0.962 . S
H956 C942 0.960 . S
H957 C943 0.961 . S
H958 C943 0.961 . S
H959 C943 0.961 . S
H960 C944 0.931 . S
H961 C949 0.930 . S
H962 C950 0.956 . S
H963 C950 0.961 . S
H964 C950 0.961 . S
H965 C951 0.958 . S
H966 C951 0.961 . S
H967 C951 0.960 . S
C968 C969 1.391 . S
C968 C970 1.394 . S
C968 H984 0.931 . S
C969 C968 1.391 . S
C969 C973 1.376 . S
C970 C968 1.394 . S
C970 C971 1.369 . S
C970 C974 1.531 . S
C971 C970 1.369 . S
C971 C972 1.410 . S
C971 C979 1.503 . S
C972 C971 1.410 . S
C972 C973 1.392 . S
C972 C975 1.511 . S
C973 C969 1.376 . S
C973 C972 1.392 . S
C973 H985 0.929 . S
C974 C970 1.531 . S
C974 H986 0.960 . S
C974 H987 0.962 . S
C974 H988 0.960 . S
C975 C972 1.511 . S
C975 H989 0.961 . S
C975 H990 0.961 . S
C975 H991 0.961 . S
C976 C977 1.370 . S
C976 C978 1.363 . S
C976 H992 0.931 . S
C977 C976 1.370 . S
C977 C981 1.408 . S
C978 C976 1.363 . S
C978 C979 1.370 . S
C978 C982 1.524 . S
C979 C971 1.503 . S
C979 C978 1.370 . S
C979 C980 1.403 . S
C980 C979 1.403 . S
C980 C981 1.404 . S
C980 C983 1.539 . S
C981 C977 1.408 . S
C981 C980 1.404 . S
C981 H993 0.930 . S
C982 C978 1.524 . S
C982 H994 0.956 . S
C982 H995 0.961 . S
C982 H996 0.961 . S
C983 C980 1.539 . S
C983 H997 0.958 . S
C983 H998 0.961 . S
C983 H999 0.960 . S
H984 C968 0.931 . S
H985 C973 0.929 . S
H986 C974 0.960 . S
H987 C974 0.962 . S
H988 C974 0.960 . S
H989 C975 0.961 . S
H990 C975 0.961 . S
H991 C975 0.961 . S
H992 C976 0.931 . S
H993 C981 0.930 . S
H994 C982 0.956 . S
H995 C982 0.961 . S
H996 C982 0.961 . S
H997 C983 0.958 . S
H998 C983 0.961 . S
H999 C983 0.960 . S
C1000 C1001 1.391 . S
C1000 C1002 1.394 . S
C1000 H1016 0.931 1_545 S
C1001 C1000 1.391 . S
C1001 C1005 1.376 . S
C1002 C1000 1.394 . S
C1002 C1003 1.369 . S
C1002 C1006 1.531 1_545 S
C1003 C1002 1.369 . S
C1003 C1004 1.410 . S
C1003 C1011 1.503 . S
C1004 C1003 1.410 . S
C1004 C1005 1.392 . S
C1004 C1007 1.511 . S
C1005 C1001 1.376 . S
C1005 C1004 1.392 . S
C1005 H1017 0.929 . S
C1006 C1002 1.531 1_565 S
C1006 H1018 0.960 . S
C1006 H1019 0.962 1_565 S
C1006 H1020 0.960 . S
C1007 C1004 1.511 . S
C1007 H1021 0.961 . S
C1007 H1022 0.961 . S
C1007 H1023 0.961 . S
C1008 C1009 1.370 . S
C1008 C1010 1.363 . S
C1008 H1024 0.931 . S
C1009 C1008 1.370 . S
C1009 C1013 1.408 1_545 S
C1010 C1008 1.363 . S
C1010 C1011 1.370 . S
C1010 C1014 1.524 . S
C1011 C1003 1.503 . S
C1011 C1010 1.370 . S
C1011 C1012 1.403 1_545 S
C1012 C1011 1.403 1_565 S
C1012 C1013 1.404 . S
C1012 C1015 1.539 . S
C1013 C1009 1.408 1_565 S
C1013 C1012 1.404 . S
C1013 H1025 0.930 . S
C1014 C1010 1.524 . S
C1014 H1026 0.956 . S
C1014 H1027 0.961 . S
C1014 H1028 0.961 . S
C1015 C1012 1.539 . S
C1015 H1029 0.958 . S
C1015 H1030 0.961 . S
C1015 H1031 0.960 . S
H1016 C1000 0.931 1_565 S
H1017 C1005 0.929 . S
H1018 C1006 0.960 . S
H1019 C1006 0.962 1_545 S
H1020 C1006 0.960 . S
H1021 C1007 0.961 . S
H1022 C1007 0.961 . S
H1023 C1007 0.961 . S
H1024 C1008 0.931 . S
H1025 C1013 0.930 . S
H1026 C1014 0.956 . S
H1027 C1014 0.961 . S
H1028 C1014 0.961 . S
H1029 C1015 0.958 . S
H1030 C1015 0.961 . S
H1031 C1015 0.960 . S
C1032 C1033 1.391 . S
C1032 C1034 1.394 . S
C1032 H1048 0.931 . S
C1033 C1032 1.391 . S
C1033 C1037 1.376 . S
C1034 C1032 1.394 . S
C1034 C1035 1.369 . S
C1034 C1038 1.531 . S
C1035 C1034 1.369 . S
C1035 C1036 1.410 . S
C1035 C1043 1.503 . S
C1036 C1035 1.410 . S
C1036 C1037 1.392 . S
C1036 C1039 1.511 . S
C1037 C1033 1.376 . S
C1037 C1036 1.392 . S
C1037 H1049 0.929 . S
C1038 C1034 1.531 . S
C1038 H1050 0.960 . S
C1038 H1051 0.962 . S
C1038 H1052 0.960 . S
C1039 C1036 1.511 . S
C1039 H1053 0.961 . S
C1039 H1054 0.961 . S
C1039 H1055 0.961 . S
C1040 C1041 1.370 . S
C1040 C1042 1.363 1_554 S
C1040 H1056 0.931 . S
C1041 C1040 1.370 . S
C1041 C1045 1.408 . S
C1042 C1040 1.363 1_556 S
C1042 C1043 1.370 . S
C1042 C1046 1.524 . S
C1043 C1035 1.503 . S
C1043 C1042 1.370 . S
C1043 C1044 1.403 . S
C1044 C1043 1.403 . S
C1044 C1045 1.404 1_556 S
C1044 C1047 1.539 . S
C1045 C1041 1.408 . S
C1045 C1044 1.404 1_554 S
C1045 H1057 0.930 . S
C1046 C1042 1.524 . S
C1046 H1058 0.956 . S
C1046 H1059 0.961 . S
C1046 H1060 0.961 . S
C1047 C1044 1.539 . S
C1047 H1061 0.958 . S
C1047 H1062 0.961 . S
C1047 H1063 0.960 . S
H1048 C1032 0.931 . S
H1049 C1037 0.929 . S
H1050 C1038 0.960 . S
H1051 C1038 0.962 . S
H1052 C1038 0.960 . S
H1053 C1039 0.961 . S
H1054 C1039 0.961 . S
H1055 C1039 0.961 . S
H1056 C1040 0.931 . S
H1057 C1045 0.930 . S
H1058 C1046 0.956 . S
H1059 C1046 0.961 . S
H1060 C1046 0.961 . S
H1061 C1047 0.958 . S
H1062 C1047 0.961 . S
H1063 C1047 0.960 . S
C1064 C1065 1.391 . S
C1064 C1066 1.394 . S
C1064 H1080 0.931 . S
C1065 C1064 1.391 . S
C1065 C1069 1.376 . S
C1066 C1064 1.394 . S
C1066 C1067 1.369 . S
C1066 C1070 1.531 . S
C1067 C1066 1.369 . S
C1067 C1068 1.410 . S
C1067 C1075 1.503 . S
C1068 C1067 1.410 . S
C1068 C1069 1.392 . S
C1068 C1071 1.511 . S
C1069 C1065 1.376 . S
C1069 C1068 1.392 . S
C1069 H1081 0.929 . S
C1070 C1066 1.531 . S
C1070 H1082 0.960 . S
C1070 H1083 0.962 . S
C1070 H1084 0.960 . S
C1071 C1068 1.511 . S
C1071 H1085 0.961 . S
C1071 H1086 0.961 . S
C1071 H1087 0.961 . S
C1072 C1073 1.370 . S
C1072 C1074 1.363 1_554 S
C1072 H1088 0.931 . S
C1073 C1072 1.370 . S
C1073 C1077 1.408 . S
C1074 C1072 1.363 1_556 S
C1074 C1075 1.370 . S
C1074 C1078 1.524 . S
C1075 C1067 1.503 . S
C1075 C1074 1.370 . S
C1075 C1076 1.403 . S
C1076 C1075 1.403 . S
C1076 C1077 1.404 1_556 S
C1076 C1079 1.539 . S
C1077 C1073 1.408 . S
C1077 C1076 1.404 1_554 S
C1077 H1089 0.930 . S
C1078 C1074 1.524 . S
C1078 H1090 0.956 . S
C1078 H1091 0.961 . S
C1078 H1092 0.961 . S
C1079 C1076 1.539 . S
C1079 H1093 0.958 . S
C1079 H1094 0.961 . S
C1079 H1095 0.960 . S
H1080 C1064 0.931 . S
H1081 C1069 0.929 . S
H1082 C1070 0.960 . S
H1083 C1070 0.962 . S
H1084 C1070 0.960 . S
H1085 C1071 0.961 . S
H1086 C1071 0.961 . S
H1087 C1071 0.961 . S
H1088 C1072 0.931 . S
H1089 C1077 0.930 . S
H1090 C1078 0.956 . S
H1091 C1078 0.961 . S
H1092 C1078 0.961 . S
H1093 C1079 0.958 . S
H1094 C1079 0.961 . S
H1095 C1079 0.960 . S
C1096 C1097 1.391 . S
C1096 C1098 1.394 . S
C1096 H1112 0.931 . S
C1097 C1096 1.391 . S
C1097 C1101 1.376 . S
C1098 C1096 1.394 . S
C1098 C1099 1.369 . S
C1098 C1102 1.531 . S
C1099 C1098 1.369 . S
C1099 C1100 1.410 . S
C1099 C1107 1.503 . S
C1100 C1099 1.410 . S
C1100 C1101 1.392 . S
C1100 C1103 1.511 . S
C1101 C1097 1.376 . S
C1101 C1100 1.392 . S
C1101 H1113 0.929 . S
C1102 C1098 1.531 . S
C1102 H1114 0.960 . S
C1102 H1115 0.962 . S
C1102 H1116 0.960 . S
C1103 C1100 1.511 . S
C1103 H1117 0.961 . S
C1103 H1118 0.961 . S
C1103 H1119 0.961 . S
C1104 C1105 1.370 . S
C1104 C1106 1.363 1_554 S
C1104 H1120 0.931 . S
C1105 C1104 1.370 . S
C1105 C1109 1.408 . S
C1106 C1104 1.363 1_556 S
C1106 C1107 1.370 . S
C1106 C1110 1.524 . S
C1107 C1099 1.503 . S
C1107 C1106 1.370 . S
C1107 C1108 1.403 . S
C1108 C1107 1.403 . S
C1108 C1109 1.404 1_556 S
C1108 C1111 1.539 . S
C1109 C1105 1.408 . S
C1109 C1108 1.404 1_554 S
C1109 H1121 0.930 . S
C1110 C1106 1.524 . S
C1110 H1122 0.956 . S
C1110 H1123 0.961 . S
C1110 H1124 0.961 . S
C1111 C1108 1.539 . S
C1111 H1125 0.958 . S
C1111 H1126 0.961 . S
C1111 H1127 0.960 . S
H1112 C1096 0.931 . S
H1113 C1101 0.929 . S
H1114 C1102 0.960 . S
H1115 C1102 0.962 . S
H1116 C1102 0.960 . S
H1117 C1103 0.961 . S
H1118 C1103 0.961 . S
H1119 C1103 0.961 . S
H1120 C1104 0.931 . S
H1121 C1109 0.930 . S
H1122 C1110 0.956 . S
H1123 C1110 0.961 . S
H1124 C1110 0.961 . S
H1125 C1111 0.958 . S
H1126 C1111 0.961 . S
H1127 C1111 0.960 . S
C1128 C1129 1.391 . S
C1128 C1130 1.394 . S
C1128 H1144 0.931 . S
C1129 C1128 1.391 . S
C1129 C1133 1.376 . S
C1130 C1128 1.394 . S
C1130 C1131 1.369 . S
C1130 C1134 1.531 . S
C1131 C1130 1.369 . S
C1131 C1132 1.410 . S
C1131 C1139 1.503 . S
C1132 C1131 1.410 . S
C1132 C1133 1.392 . S
C1132 C1135 1.511 . S
C1133 C1129 1.376 . S
C1133 C1132 1.392 . S
C1133 H1145 0.929 . S
C1134 C1130 1.531 . S
C1134 H1146 0.960 . S
C1134 H1147 0.962 . S
C1134 H1148 0.960 . S
C1135 C1132 1.511 . S
C1135 H1149 0.961 . S
C1135 H1150 0.961 . S
C1135 H1151 0.961 . S
C1136 C1137 1.370 . S
C1136 C1138 1.363 1_556 S
C1136 H1152 0.931 . S
C1137 C1136 1.370 . S
C1137 C1141 1.408 . S
C1138 C1136 1.363 1_554 S
C1138 C1139 1.370 . S
C1138 C1142 1.524 . S
C1139 C1131 1.503 . S
C1139 C1138 1.370 . S
C1139 C1140 1.403 . S
C1140 C1139 1.403 . S
C1140 C1141 1.404 1_554 S
C1140 C1143 1.539 . S
C1141 C1137 1.408 . S
C1141 C1140 1.404 1_556 S
C1141 H1153 0.930 . S
C1142 C1138 1.524 . S
C1142 H1154 0.956 . S
C1142 H1155 0.961 . S
C1142 H1156 0.961 . S
C1143 C1140 1.539 . S
C1143 H1157 0.958 . S
C1143 H1158 0.961 . S
C1143 H1159 0.960 . S
H1144 C1128 0.931 . S
H1145 C1133 0.929 . S
H1146 C1134 0.960 . S
H1147 C1134 0.962 . S
H1148 C1134 0.960 . S
H1149 C1135 0.961 . S
H1150 C1135 0.961 . S
H1151 C1135 0.961 . S
H1152 C1136 0.931 . S
H1153 C1141 0.930 . S
H1154 C1142 0.956 . S
H1155 C1142 0.961 . S
H1156 C1142 0.961 . S
H1157 C1143 0.958 . S
H1158 C1143 0.961 . S
H1159 C1143 0.960 . S
C1160 C1161 1.391 . S
C1160 C1162 1.394 1_556 S
C1160 H1176 0.931 . S
C1161 C1160 1.391 . S
C1161 C1165 1.376 . S
C1162 C1160 1.394 1_554 S
C1162 C1163 1.369 . S
C1162 C1166 1.531 . S
C1163 C1162 1.369 . S
C1163 C1164 1.410 . S
C1163 C1171 1.503 . S
C1164 C1163 1.410 . S
C1164 C1165 1.392 1_554 S
C1164 C1167 1.511 . S
C1165 C1161 1.376 . S
C1165 C1164 1.392 1_556 S
C1165 H1177 0.929 . S
C1166 C1162 1.531 . S
C1166 H1178 0.960 . S
C1166 H1179 0.962 . S
C1166 H1180 0.960 . S
C1167 C1164 1.511 . S
C1167 H1181 0.961 . S
C1167 H1182 0.961 . S
C1167 H1183 0.961 . S
C1168 C1169 1.370 . S
C1168 C1170 1.363 . S
C1168 H1184 0.931 . S
C1169 C1168 1.370 . S
C1169 C1173 1.408 . S
C1170 C1168 1.363 . S
C1170 C1171 1.370 . S
C1170 C1174 1.524 . S
C1171 C1163 1.503 . S
C1171 C1170 1.370 . S
C1171 C1172 1.403 . S
C1172 C1171 1.403 . S
C1172 C1173 1.404 . S
C1172 C1175 1.539 . S
C1173 C1169 1.408 . S
C1173 C1172 1.404 . S
C1173 H1185 0.930 . S
C1174 C1170 1.524 . S
C1174 H1186 0.956 . S
C1174 H1187 0.961 . S
C1174 H1188 0.961 . S
C1175 C1172 1.539 . S
C1175 H1189 0.958 . S
C1175 H1190 0.961 . S
C1175 H1191 0.960 . S
H1176 C1160 0.931 . S
H1177 C1165 0.929 . S
H1178 C1166 0.960 . S
H1179 C1166 0.962 . S
H1180 C1166 0.960 . S
H1181 C1167 0.961 . S
H1182 C1167 0.961 . S
H1183 C1167 0.961 . S
H1184 C1168 0.931 . S
H1185 C1173 0.930 . S
H1186 C1174 0.956 . S
H1187 C1174 0.961 . S
H1188 C1174 0.961 . S
H1189 C1175 0.958 . S
H1190 C1175 0.961 . S
H1191 C1175 0.960 . S
C1192 C1193 1.391 . S
C1192 C1194 1.394 . S
C1192 H1208 0.931 . S
C1193 C1192 1.391 . S
C1193 C1197 1.376 . S
C1194 C1192 1.394 . S
C1194 C1195 1.369 . S
C1194 C1198 1.531 . S
C1195 C1194 1.369 . S
C1195 C1196 1.410 . S
C1195 C1203 1.503 . S
C1196 C1195 1.410 . S
C1196 C1197 1.392 . S
C1196 C1199 1.511 . S
C1197 C1193 1.376 . S
C1197 C1196 1.392 . S
C1197 H1209 0.929 . S
C1198 C1194 1.531 . S
C1198 H1210 0.960 . S
C1198 H1211 0.962 . S
C1198 H1212 0.960 . S
C1199 C1196 1.511 . S
C1199 H1213 0.961 . S
C1199 H1214 0.961 . S
C1199 H1215 0.961 . S
C1200 C1201 1.370 . S
C1200 C1202 1.363 1_556 S
C1200 H1216 0.931 . S
C1201 C1200 1.370 . S
C1201 C1205 1.408 . S
C1202 C1200 1.363 1_554 S
C1202 C1203 1.370 . S
C1202 C1206 1.524 . S
C1203 C1195 1.503 . S
C1203 C1202 1.370 . S
C1203 C1204 1.403 . S
C1204 C1203 1.403 . S
C1204 C1205 1.404 1_554 S
C1204 C1207 1.539 . S
C1205 C1201 1.408 . S
C1205 C1204 1.404 1_556 S
C1205 H1217 0.930 . S
C1206 C1202 1.524 . S
C1206 H1218 0.956 . S
C1206 H1219 0.961 . S
C1206 H1220 0.961 . S
C1207 C1204 1.539 . S
C1207 H1221 0.958 . S
C1207 H1222 0.961 . S
C1207 H1223 0.960 . S
H1208 C1192 0.931 . S
H1209 C1197 0.929 . S
H1210 C1198 0.960 . S
H1211 C1198 0.962 . S
H1212 C1198 0.960 . S
H1213 C1199 0.961 . S
H1214 C1199 0.961 . S
H1215 C1199 0.961 . S
H1216 C1200 0.931 . S
H1217 C1205 0.930 . S
H1218 C1206 0.956 . S
H1219 C1206 0.961 . S
H1220 C1206 0.961 . S
H1221 C1207 0.958 . S
H1222 C1207 0.961 . S
H1223 C1207 0.960 . S
C361 C26 1.706 . S
C369 C293 1.710 . S
C393 C66 1.728 . S
C401 C333 1.703 . S
C425 C106 1.741 . S
C433 C253 1.690 . S
C457 C186 1.723 . S
C465 C93 1.706 . S
C489 C226 1.746 . S
C497 C13 1.690 . S
C521 C53 1.717 . S
C529 C146 1.726 . S
C553 C306 1.739 . S
C561 C213 1.691 . S
C585 C346 1.742 . S
C593 C133 1.695 . S
C617 C173 1.681 . S
C625 C266 1.733 1_545 S
C649 C97 1.547 . S
C657 C24 1.563 . S
C681 C64 1.561 . S
C689 C17 1.561 . S
C713 C57 1.563 1_455 S
C721 C104 1.564 . S
C745 C144 1.559 . S
C753 C217 1.556 . S
C777 C137 1.563 . S
C785 C184 1.563 . S
C809 C177 1.555 . S
C817 C224 1.563 . S
C841 C337 1.561 . S
C849 C264 1.563 . S
C873 C304 1.559 . S
C881 C257 1.559 . S
C905 C344 1.558 . S
C913 C297 1.556 . S
C937 C23 0.986 . S
C945 C2 1.036 . S
C969 C63 1.063 . S
C977 C42 1.005 . S
C1001 C103 1.018 . S
C1009 C82 1.027 . S
C1033 C122 1.034 . S
C1041 C143 1.020 . S
C1065 C162 1.017 . S
C1073 C183 1.028 . S
C1097 C202 1.061 . S
C1105 C223 1.005 . S
C1129 C263 1.036 . S
C1137 C242 1.014 . S
C1161 C282 1.024 . S
C1169 C303 1.025 . S
C1193 C343 1.016 . S
C1201 C322 1.028 . S
