# Generated by pormake.
# Topology whq, (6)-cn, num edge types: 1
# Building blocks:
#     Node 0, Type 0, BuildingBlock: IZENUY_clean_sbu_0, # of connection points: 6
#     Node 1, Type 0, BuildingBlock: IZENUY_clean_sbu_0, # of connection points: 6
#     Node 2, Type 0, BuildingBlock: IZENUY_clean_sbu_0, # of connection points: 6
#     Node 3, Type 0, BuildingBlock: IZENUY_clean_sbu_0, # of connection points: 6
#     Node 4, Type 0, BuildingBlock: IZENUY_clean_sbu_0, # of connection points: 6
#     Node 5, Type 0, BuildingBlock: IZENUY_clean_sbu_0, # of connection points: 6
#     Node 6, Type 0, BuildingBlock: IZENUY_clean_sbu_0, # of connection points: 6
#     Node 7, Type 0, BuildingBlock: IZENUY_clean_sbu_0, # of connection points: 6
#     Node 8, Type 0, BuildingBlock: IZENUY_clean_sbu_0, # of connection points: 6
#     Node 9, Type 0, BuildingBlock: IZENUY_clean_sbu_0, # of connection points: 6
#     Node 10, Type 0, BuildingBlock: IZENUY_clean_sbu_0, # of connection points: 6
#     Node 11, Type 0, BuildingBlock: IZENUY_clean_sbu_0, # of connection points: 6
#     Node 12, Type 0, BuildingBlock: IZENUY_clean_sbu_0, # of connection points: 6
#     Node 13, Type 0, BuildingBlock: IZENUY_clean_sbu_0, # of connection points: 6
#     Node 14, Type 0, BuildingBlock: IZENUY_clean_sbu_0, # of connection points: 6
#     Node 15, Type 0, BuildingBlock: IZENUY_clean_sbu_0, # of connection points: 6
#     Node 16, Type 0, BuildingBlock: IZENUY_clean_sbu_0, # of connection points: 6
#     Node 17, Type 0, BuildingBlock: IZENUY_clean_sbu_0, # of connection points: 6
#     Node 18, Type 0, BuildingBlock: IZENUY_clean_sbu_0, # of connection points: 6
#     Node 19, Type 0, BuildingBlock: IZENUY_clean_sbu_0, # of connection points: 6
#     Node 20, Type 0, BuildingBlock: IZENUY_clean_sbu_0, # of connection points: 6
#     Node 21, Type 0, BuildingBlock: IZENUY_clean_sbu_0, # of connection points: 6
#     Node 22, Type 0, BuildingBlock: IZENUY_clean_sbu_0, # of connection points: 6
#     Node 23, Type 0, BuildingBlock: IZENUY_clean_sbu_0, # of connection points: 6
#     Node 24, Type 0, BuildingBlock: IZENUY_clean_sbu_0, # of connection points: 6
#     Node 25, Type 0, BuildingBlock: IZENUY_clean_sbu_0, # of connection points: 6
#     Node 26, Type 0, BuildingBlock: IZENUY_clean_sbu_0, # of connection points: 6
#     Node 27, Type 0, BuildingBlock: IZENUY_clean_sbu_0, # of connection points: 6
#     Node 28, Type 0, BuildingBlock: IZENUY_clean_sbu_0, # of connection points: 6
#     Node 29, Type 0, BuildingBlock: IZENUY_clean_sbu_0, # of connection points: 6
#     Node 30, Type 0, BuildingBlock: IZENUY_clean_sbu_0, # of connection points: 6
#     Node 31, Type 0, BuildingBlock: IZENUY_clean_sbu_0, # of connection points: 6
#     Edge 32, Type (0, 0), BuildingBlock: CIFDUS_clean_linker_0, # of connection points: 2
#     Edge 33, Type (0, 0), BuildingBlock: CIFDUS_clean_linker_0, # of connection points: 2
#     Edge 34, Type (0, 0), BuildingBlock: CIFDUS_clean_linker_0, # of connection points: 2
#     Edge 35, Type (0, 0), BuildingBlock: CIFDUS_clean_linker_0, # of connection points: 2
#     Edge 36, Type (0, 0), BuildingBlock: CIFDUS_clean_linker_0, # of connection points: 2
#     Edge 37, Type (0, 0), BuildingBlock: CIFDUS_clean_linker_0, # of connection points: 2
#     Edge 38, Type (0, 0), BuildingBlock: CIFDUS_clean_linker_0, # of connection points: 2
#     Edge 39, Type (0, 0), BuildingBlock: CIFDUS_clean_linker_0, # of connection points: 2
#     Edge 40, Type (0, 0), BuildingBlock: CIFDUS_clean_linker_0, # of connection points: 2
#     Edge 41, Type (0, 0), BuildingBlock: CIFDUS_clean_linker_0, # of connection points: 2
#     Edge 42, Type (0, 0), BuildingBlock: CIFDUS_clean_linker_0, # of connection points: 2
#     Edge 43, Type (0, 0), BuildingBlock: CIFDUS_clean_linker_0, # of connection points: 2
#     Edge 44, Type (0, 0), BuildingBlock: CIFDUS_clean_linker_0, # of connection points: 2
#     Edge 45, Type (0, 0), BuildingBlock: CIFDUS_clean_linker_0, # of connection points: 2
#     Edge 46, Type (0, 0), BuildingBlock: CIFDUS_clean_linker_0, # of connection points: 2
#     Edge 47, Type (0, 0), BuildingBlock: CIFDUS_clean_linker_0, # of connection points: 2
#     Edge 48, Type (0, 0), BuildingBlock: CIFDUS_clean_linker_0, # of connection points: 2
#     Edge 49, Type (0, 0), BuildingBlock: CIFDUS_clean_linker_0, # of connection points: 2
#     Edge 50, Type (0, 0), BuildingBlock: CIFDUS_clean_linker_0, # of connection points: 2
#     Edge 51, Type (0, 0), BuildingBlock: CIFDUS_clean_linker_0, # of connection points: 2
#     Edge 52, Type (0, 0), BuildingBlock: CIFDUS_clean_linker_0, # of connection points: 2
#     Edge 53, Type (0, 0), BuildingBlock: CIFDUS_clean_linker_0, # of connection points: 2
#     Edge 54, Type (0, 0), BuildingBlock: CIFDUS_clean_linker_0, # of connection points: 2
#     Edge 55, Type (0, 0), BuildingBlock: CIFDUS_clean_linker_0, # of connection points: 2
#     Edge 56, Type (0, 0), BuildingBlock: CIFDUS_clean_linker_0, # of connection points: 2
#     Edge 57, Type (0, 0), BuildingBlock: CIFDUS_clean_linker_0, # of connection points: 2
#     Edge 58, Type (0, 0), BuildingBlock: CIFDUS_clean_linker_0, # of connection points: 2
#     Edge 59, Type (0, 0), BuildingBlock: CIFDUS_clean_linker_0, # of connection points: 2
#     Edge 60, Type (0, 0), BuildingBlock: CIFDUS_clean_linker_0, # of connection points: 2
#     Edge 61, Type (0, 0), BuildingBlock: CIFDUS_clean_linker_0, # of connection points: 2
#     Edge 62, Type (0, 0), BuildingBlock: CIFDUS_clean_linker_0, # of connection points: 2
#     Edge 63, Type (0, 0), BuildingBlock: CIFDUS_clean_linker_0, # of connection points: 2
#     Edge 64, Type (0, 0), BuildingBlock: CIFDUS_clean_linker_0, # of connection points: 2
#     Edge 65, Type (0, 0), BuildingBlock: CIFDUS_clean_linker_0, # of connection points: 2
#     Edge 66, Type (0, 0), BuildingBlock: CIFDUS_clean_linker_0, # of connection points: 2
#     Edge 67, Type (0, 0), BuildingBlock: CIFDUS_clean_linker_0, # of connection points: 2
#     Edge 68, Type (0, 0), BuildingBlock: CIFDUS_clean_linker_0, # of connection points: 2
#     Edge 69, Type (0, 0), BuildingBlock: CIFDUS_clean_linker_0, # of connection points: 2
#     Edge 70, Type (0, 0), BuildingBlock: CIFDUS_clean_linker_0, # of connection points: 2
#     Edge 71, Type (0, 0), BuildingBlock: CIFDUS_clean_linker_0, # of connection points: 2
#     Edge 72, Type (0, 0), BuildingBlock: CIFDUS_clean_linker_0, # of connection points: 2
#     Edge 73, Type (0, 0), BuildingBlock: CIFDUS_clean_linker_0, # of connection points: 2
#     Edge 74, Type (0, 0), BuildingBlock: CIFDUS_clean_linker_0, # of connection points: 2
#     Edge 75, Type (0, 0), BuildingBlock: CIFDUS_clean_linker_0, # of connection points: 2
#     Edge 76, Type (0, 0), BuildingBlock: CIFDUS_clean_linker_0, # of connection points: 2
#     Edge 77, Type (0, 0), BuildingBlock: CIFDUS_clean_linker_0, # of connection points: 2
#     Edge 78, Type (0, 0), BuildingBlock: CIFDUS_clean_linker_0, # of connection points: 2
#     Edge 79, Type (0, 0), BuildingBlock: CIFDUS_clean_linker_0, # of connection points: 2
#     Edge 80, Type (0, 0), BuildingBlock: CIFDUS_clean_linker_0, # of connection points: 2
#     Edge 81, Type (0, 0), BuildingBlock: CIFDUS_clean_linker_0, # of connection points: 2
#     Edge 82, Type (0, 0), BuildingBlock: CIFDUS_clean_linker_0, # of connection points: 2
#     Edge 83, Type (0, 0), BuildingBlock: CIFDUS_clean_linker_0, # of connection points: 2
#     Edge 84, Type (0, 0), BuildingBlock: CIFDUS_clean_linker_0, # of connection points: 2
#     Edge 85, Type (0, 0), BuildingBlock: CIFDUS_clean_linker_0, # of connection points: 2
#     Edge 86, Type (0, 0), BuildingBlock: CIFDUS_clean_linker_0, # of connection points: 2
#     Edge 87, Type (0, 0), BuildingBlock: CIFDUS_clean_linker_0, # of connection points: 2
#     Edge 88, Type (0, 0), BuildingBlock: CIFDUS_clean_linker_0, # of connection points: 2
#     Edge 89, Type (0, 0), BuildingBlock: CIFDUS_clean_linker_0, # of connection points: 2
#     Edge 90, Type (0, 0), BuildingBlock: CIFDUS_clean_linker_0, # of connection points: 2
#     Edge 91, Type (0, 0), BuildingBlock: CIFDUS_clean_linker_0, # of connection points: 2
#     Edge 92, Type (0, 0), BuildingBlock: CIFDUS_clean_linker_0, # of connection points: 2
#     Edge 93, Type (0, 0), BuildingBlock: CIFDUS_clean_linker_0, # of connection points: 2
#     Edge 94, Type (0, 0), BuildingBlock: CIFDUS_clean_linker_0, # of connection points: 2
#     Edge 95, Type (0, 0), BuildingBlock: CIFDUS_clean_linker_0, # of connection points: 2
#     Edge 96, Type (0, 0), BuildingBlock: CIFDUS_clean_linker_0, # of connection points: 2
#     Edge 97, Type (0, 0), BuildingBlock: CIFDUS_clean_linker_0, # of connection points: 2
#     Edge 98, Type (0, 0), BuildingBlock: CIFDUS_clean_linker_0, # of connection points: 2
#     Edge 99, Type (0, 0), BuildingBlock: CIFDUS_clean_linker_0, # of connection points: 2
#     Edge 100, Type (0, 0), BuildingBlock: CIFDUS_clean_linker_0, # of connection points: 2
#     Edge 101, Type (0, 0), BuildingBlock: CIFDUS_clean_linker_0, # of connection points: 2
#     Edge 102, Type (0, 0), BuildingBlock: CIFDUS_clean_linker_0, # of connection points: 2
#     Edge 103, Type (0, 0), BuildingBlock: CIFDUS_clean_linker_0, # of connection points: 2
#     Edge 104, Type (0, 0), BuildingBlock: CIFDUS_clean_linker_0, # of connection points: 2
#     Edge 105, Type (0, 0), BuildingBlock: CIFDUS_clean_linker_0, # of connection points: 2
#     Edge 106, Type (0, 0), BuildingBlock: CIFDUS_clean_linker_0, # of connection points: 2
#     Edge 107, Type (0, 0), BuildingBlock: CIFDUS_clean_linker_0, # of connection points: 2
#     Edge 108, Type (0, 0), BuildingBlock: CIFDUS_clean_linker_0, # of connection points: 2
#     Edge 109, Type (0, 0), BuildingBlock: CIFDUS_clean_linker_0, # of connection points: 2
#     Edge 110, Type (0, 0), BuildingBlock: CIFDUS_clean_linker_0, # of connection points: 2
#     Edge 111, Type (0, 0), BuildingBlock: CIFDUS_clean_linker_0, # of connection points: 2
#     Edge 112, Type (0, 0), BuildingBlock: CIFDUS_clean_linker_0, # of connection points: 2
#     Edge 113, Type (0, 0), BuildingBlock: CIFDUS_clean_linker_0, # of connection points: 2
#     Edge 114, Type (0, 0), BuildingBlock: CIFDUS_clean_linker_0, # of connection points: 2
#     Edge 115, Type (0, 0), BuildingBlock: CIFDUS_clean_linker_0, # of connection points: 2
#     Edge 116, Type (0, 0), BuildingBlock: CIFDUS_clean_linker_0, # of connection points: 2
#     Edge 117, Type (0, 0), BuildingBlock: CIFDUS_clean_linker_0, # of connection points: 2
#     Edge 118, Type (0, 0), BuildingBlock: CIFDUS_clean_linker_0, # of connection points: 2
#     Edge 119, Type (0, 0), BuildingBlock: CIFDUS_clean_linker_0, # of connection points: 2
#     Edge 120, Type (0, 0), BuildingBlock: CIFDUS_clean_linker_0, # of connection points: 2
#     Edge 121, Type (0, 0), BuildingBlock: CIFDUS_clean_linker_0, # of connection points: 2
#     Edge 122, Type (0, 0), BuildingBlock: CIFDUS_clean_linker_0, # of connection points: 2
#     Edge 123, Type (0, 0), BuildingBlock: CIFDUS_clean_linker_0, # of connection points: 2
#     Edge 124, Type (0, 0), BuildingBlock: CIFDUS_clean_linker_0, # of connection points: 2
#     Edge 125, Type (0, 0), BuildingBlock: CIFDUS_clean_linker_0, # of connection points: 2
#     Edge 126, Type (0, 0), BuildingBlock: CIFDUS_clean_linker_0, # of connection points: 2
#     Edge 127, Type (0, 0), BuildingBlock: CIFDUS_clean_linker_0, # of connection points: 2
# Relax obj value: 0.294
# Max RMSD: 0.178
# Mean RMSD: 0.178
data_MOF--net-whq--node1-IZENUY_clean_sbu_0--edge1-CIFDUS_clean_linker_0
_symmetry_space_group_name_H-M    P1
_symmetry_Int_Tables_number       1
_symmetry_cell_setting            triclinic
loop_
_symmetry_equiv_pos_as_xyz
'x, y, z'
_cell_length_a     44.979495
_cell_length_b     44.976062
_cell_length_c     49.353837
_cell_angle_alpha  90.121626
_cell_angle_beta   89.972429
_cell_angle_gamma 89.892377
loop_
_atom_site_label
_atom_site_type_symbol
_atom_site_fract_x
_atom_site_fract_y
_atom_site_fract_z
_atom_type_partial_charge
Fe0 Fe 0.0859 0.18092 0.16011 0.0
Fe1 Fe 0.13446 0.20752 0.12391 0.0
O2 O 0.09703 0.20755 0.13573 0.0
Fe3 Fe 0.07124 0.23436 0.12317 0.0
O4 O 0.05028 0.23798 0.15499 0.0
O5 O 0.07436 0.20964 0.18389 0.0
O6 O 0.12165 0.18057 0.17753 0.0
C7 C 0.14299 0.1988 0.17777 0.0
C8 C 0.0348 0.18506 0.12573 0.0
O9 O 0.14904 0.21468 0.15753 0.0
C10 C 0.10437 0.21644 0.07678 0.0
O11 O 0.09671 0.14958 0.13854 0.0
O12 O 0.14039 0.16739 0.12766 0.0
O13 O 0.04523 0.20584 0.11125 0.0
O14 O 0.04803 0.17688 0.1471 0.0
C15 C 0.12173 0.2689 0.1277 0.0
O16 O 0.12226 0.20027 0.0898 0.0
O17 O 0.08739 0.23478 0.08886 0.0
C18 C 0.12275 0.14565 0.12955 0.0
O19 O 0.13642 0.24761 0.11773 0.0
O20 O 0.09478 0.26547 0.13438 0.0
C21 C 0.05539 0.22961 0.17902 0.0
Fe22 Fe 0.836 0.07516 0.17249 0.0
Fe23 Fe 0.8139 0.12456 0.13512 0.0
O24 O 0.81139 0.08737 0.14703 0.0
Fe25 Fe 0.78442 0.06223 0.13413 0.0
O26 O 0.76801 0.05593 0.16744 0.0
O27 O 0.81085 0.04765 0.18699 0.0
O28 O 0.82046 0.10151 0.19597 0.0
C29 C 0.81881 0.12914 0.19216 0.0
C30 C 0.83737 0.02694 0.13945 0.0
O31 O 0.82357 0.1402 0.16883 0.0
C32 C 0.80272 0.08997 0.08757 0.0
O33 O 0.86654 0.10022 0.16349 0.0
O34 O 0.85296 0.12051 0.12524 0.0
O35 O 0.80917 0.02904 0.13705 0.0
O36 O 0.8521 0.04793 0.14991 0.0
C37 C 0.75296 0.11762 0.13718 0.0
O38 O 0.80404 0.1149 0.09974 0.0
O39 O 0.79867 0.06617 0.10037 0.0
C40 C 0.87323 0.11281 0.14145 0.0
O41 O 0.77565 0.13209 0.1441 0.0
O42 O 0.75525 0.09106 0.12848 0.0
C43 C 0.78287 0.04638 0.18724 0.0
Fe44 Fe 0.88364 0.79828 0.13335 0.0
Fe45 Fe 0.94751 0.77283 0.13177 0.0
O46 O 0.92128 0.79926 0.14425 0.0
Fe47 Fe 0.93256 0.82669 0.16775 0.0
O48 O 0.90642 0.81341 0.19284 0.0
O49 O 0.86798 0.81162 0.16556 0.0
O50 O 0.87911 0.76082 0.14611 0.0
C51 C 0.89409 0.73863 0.13845 0.0
C52 C 0.89218 0.85839 0.13394 0.0
O53 O 0.91986 0.7421 0.12819 0.0
C54 C 0.98096 0.82705 0.13444 0.0
O55 O 0.89249 0.78501 0.09903 0.0
O56 O 0.94134 0.78494 0.09706 0.0
O57 O 0.90671 0.8554 0.15573 0.0
O58 O 0.88505 0.83596 0.11998 0.0
C59 C 0.96417 0.7756 0.18528 0.0
O60 O 0.97965 0.79881 0.13286 0.0
O61 O 0.95953 0.84162 0.14427 0.0
C62 C 0.91636 0.78612 0.08541 0.0
O63 O 0.95605 0.75905 0.16586 0.0
O64 O 0.96048 0.80343 0.18432 0.0
C65 C 0.87873 0.8122 0.18924 0.0
Fe66 Fe 0.17599 0.92092 0.16696 0.0
Fe67 Fe 0.21144 0.8817 0.12795 0.0
O68 O 0.20653 0.91632 0.14479 0.0
Fe69 Fe 0.23284 0.94517 0.13995 0.0
O70 O 0.23087 0.9598 0.17481 0.0
O71 O 0.19986 0.92962 0.19536 0.0
O72 O 0.17691 0.8824 0.1788 0.0
C73 C 0.19882 0.86474 0.17975 0.0
C74 C 0.18024 0.97742 0.14099 0.0
O75 O 0.21721 0.86306 0.16043 0.0
C76 C 0.22287 0.92085 0.08721 0.0
O77 O 0.14924 0.9123 0.14041 0.0
O78 O 0.17168 0.8716 0.1275 0.0
O79 O 0.20436 0.97165 0.12871 0.0
O80 O 0.17031 0.9602 0.15911 0.0
C81 C 0.27011 0.89653 0.1404 0.0
O82 O 0.20654 0.89964 0.09531 0.0
O83 O 0.23874 0.93566 0.10383 0.0
C84 C 0.14824 0.88717 0.12909 0.0
O85 O 0.25194 0.88412 0.12468 0.0
O86 O 0.26336 0.92094 0.15157 0.0
C87 C 0.21972 0.9493 0.19632 0.0
Fe88 Fe 0.07142 0.78054 0.37272 0.0
Fe89 Fe 0.0826 0.83678 0.33964 0.0
O90 O 0.09611 0.80914 0.36218 0.0
Fe91 Fe 0.13375 0.80979 0.3735 0.0
O92 O 0.14096 0.77186 0.36258 0.0
O93 O 0.09998 0.75122 0.377 0.0
O94 O 0.06546 0.76768 0.33784 0.0
C95 C 0.05475 0.78455 0.3198 0.0
C96 C 0.09889 0.79578 0.42075 0.0
O97 O 0.05541 0.81246 0.32294 0.0
C98 C 0.12401 0.87024 0.37153 0.0
O99 O 0.03807 0.80448 0.37165 0.0
O100 O 0.05497 0.84956 0.36405 0.0
O101 O 0.12397 0.79843 0.40878 0.0
O102 O 0.07524 0.79165 0.40754 0.0
C103 C 0.13615 0.82074 0.31685 0.0
O104 O 0.10747 0.86688 0.35104 0.0
O105 O 0.13166 0.84808 0.38545 0.0
C106 C 0.03472 0.83254 0.37274 0.0
O107 O 0.10859 0.82494 0.31425 0.0
O108 O 0.14873 0.821 0.33996 0.0
C109 C 0.12655 0.74903 0.36882 0.0
Fe110 Fe 0.17709 0.08886 0.34093 0.0
Fe111 Fe 0.20606 0.13897 0.37301 0.0
O112 O 0.20577 0.10129 0.3624 0.0
Fe113 Fe 0.23422 0.07632 0.37282 0.0
O114 O 0.24531 0.06846 0.33788 0.0
O115 O 0.19975 0.06112 0.32331 0.0
O116 O 0.18795 0.11502 0.31487 0.0
C117 C 0.18906 0.14276 0.31842 0.0
C118 C 0.18084 0.0403 0.37327 0.0
O119 O 0.18925 0.15369 0.342 0.0
C120 C 0.22419 0.10755 0.41965 0.0
O121 O 0.1487 0.11423 0.35461 0.0
O122 O 0.16999 0.13596 0.38939 0.0
O123 O 0.20918 0.04283 0.37357 0.0
O124 O 0.16499 0.0619 0.36563 0.0
C125 C 0.2652 0.13097 0.36253 0.0
O126 O 0.22312 0.13116 0.40584 0.0
O127 O 0.22498 0.08237 0.40826 0.0
C128 C 0.14681 0.1285 0.37673 0.0
O129 O 0.2416 0.1448 0.35715 0.0
O130 O 0.26423 0.10538 0.37367 0.0
C131 C 0.22751 0.05869 0.32022 0.0
Fe132 Fe 0.9318 0.18771 0.33363 0.0
Fe133 Fe 0.88555 0.21091 0.37424 0.0
O134 O 0.92148 0.21312 0.35929 0.0
Fe135 Fe 0.94679 0.24106 0.36999 0.0
O136 O 0.96582 0.24488 0.3372 0.0
O137 O 0.93966 0.21723 0.30961 0.0
O138 O 0.8948 0.18579 0.31882 0.0
C139 C 0.87322 0.20371 0.32029 0.0
C140 C 0.98333 0.19193 0.36628 0.0
O141 O 0.8675 0.21787 0.34178 0.0
C142 C 0.92012 0.22173 0.41863 0.0
O143 O 0.92495 0.15596 0.35531 0.0
O144 O 0.88139 0.1702 0.37035 0.0
O145 O 0.97416 0.21327 0.38088 0.0
O146 O 0.97053 0.18535 0.34425 0.0
C147 C 0.89451 0.27284 0.3691 0.0
O148 O 0.9017 0.20429 0.40753 0.0
O149 O 0.93323 0.24163 0.40499 0.0
C150 C 0.90037 0.14984 0.3662 0.0
O151 O 0.8826 0.25091 0.3809 0.0
O152 O 0.92072 0.27067 0.35971 0.0
C153 C 0.95916 0.23683 0.3134 0.0
Fe154 Fe 0.78059 0.94842 0.37952 0.0
Fe155 Fe 0.8334 0.93795 0.34106 0.0
O156 O 0.80924 0.92494 0.36668 0.0
Fe157 Fe 0.81351 0.88818 0.37921 0.0
O158 O 0.77361 0.88241 0.38589 0.0
O159 O 0.75185 0.92203 0.36905 0.0
O160 O 0.77427 0.96822 0.34731 0.0
C161 C 0.78116 0.9617 0.3231 0.0
C162 C 0.80199 0.91774 0.42626 0.0
O163 O 0.80259 0.94443 0.31819 0.0
C164 C 0.87352 0.90731 0.3717 0.0
O165 O 0.80712 0.97679 0.39047 0.0
O166 O 0.83337 0.97665 0.35279 0.0
O167 O 0.81992 0.90184 0.413 0.0
O168 O 0.78215 0.93303 0.41429 0.0
C169 C 0.82253 0.87832 0.32545 0.0
O170 O 0.86607 0.93217 0.36202 0.0
O171 O 0.85427 0.88702 0.37488 0.0
C172 C 0.82614 0.98875 0.37504 0.0
O173 O 0.83796 0.90174 0.32465 0.0
O174 O 0.8075 0.87173 0.34609 0.0
C175 C 0.75083 0.89503 0.37608 0.0
Fe176 Fe 0.95598 0.78171 0.87372 0.0
Fe177 Fe 0.94487 0.83909 0.84208 0.0
O178 O 0.93225 0.81198 0.86534 0.0
Fe179 Fe 0.89593 0.815 0.87934 0.0
O180 O 0.88557 0.7787 0.86662 0.0
O181 O 0.92589 0.75405 0.87792 0.0
O182 O 0.95896 0.7698 0.83816 0.0
C183 C 0.96848 0.78654 0.81954 0.0
C184 C 0.93182 0.79542 0.9236 0.0
O185 O 0.96956 0.81428 0.82302 0.0
C186 C 0.91035 0.87401 0.87863 0.0
O187 O 0.99031 0.80416 0.87158 0.0
O188 O 0.97469 0.84996 0.86457 0.0
O189 O 0.90669 0.80004 0.91266 0.0
O190 O 0.95486 0.79131 0.90942 0.0
C191 C 0.88841 0.82895 0.82408 0.0
O192 O 0.92282 0.86981 0.85601 0.0
O193 O 0.90247 0.85221 0.893 0.0
C194 C 0.99458 0.83212 0.87249 0.0
O195 O 0.9158 0.82911 0.81855 0.0
O196 O 0.87929 0.83018 0.84835 0.0
C197 C 0.8989 0.75446 0.87057 0.0
Fe198 Fe 0.18983 0.9459 0.84107 0.0
Fe199 Fe 0.21265 0.89563 0.87704 0.0
O200 O 0.21532 0.93296 0.86558 0.0
Fe201 Fe 0.24332 0.95686 0.87868 0.0
O202 O 0.24855 0.97776 0.8465 0.0
O203 O 0.21939 0.95459 0.81763 0.0
O204 O 0.18686 0.9101 0.82371 0.0
C205 C 0.20381 0.88762 0.82323 0.0
C206 C 0.1958 0.99585 0.87622 0.0
O207 O 0.21957 0.88075 0.8434 0.0
C208 C 0.22156 0.92504 0.9247 0.0
O209 O 0.15819 0.93798 0.86275 0.0
O210 O 0.17225 0.89263 0.8724 0.0
O211 O 0.21615 0.98441 0.89057 0.0
O212 O 0.18828 0.98412 0.85393 0.0
C213 C 0.27478 0.90418 0.87441 0.0
O214 O 0.20514 0.9083 0.91078 0.0
O215 O 0.2419 0.9405 0.91344 0.0
C216 C 0.15216 0.91231 0.87133 0.0
O217 O 0.25249 0.89108 0.88434 0.0
O218 O 0.27289 0.93121 0.86742 0.0
C219 C 0.24024 0.97249 0.8223 0.0
Fe220 Fe 0.06913 0.24607 0.86657 0.0
Fe221 Fe 0.07574 0.18683 0.83644 0.0
O222 O 0.09058 0.2138 0.8588 0.0
Fe223 Fe 0.1268 0.20843 0.87238 0.0
O224 O 0.13956 0.24356 0.85917 0.0
O225 O 0.10124 0.27209 0.86888 0.0
O226 O 0.06595 0.25648 0.83075 0.0
C227 C 0.05466 0.23967 0.81306 0.0
C228 C 0.09317 0.23184 0.91632 0.0
O229 O 0.05173 0.21231 0.81761 0.0
C230 C 0.10939 0.15038 0.8724 0.0
O231 O 0.03322 0.22539 0.86629 0.0
O232 O 0.04616 0.17847 0.86006 0.0
O233 O 0.11761 0.22454 0.90537 0.0
O234 O 0.07055 0.23834 0.90245 0.0
C235 C 0.13224 0.19333 0.81726 0.0
O236 O 0.09653 0.15518 0.85009 0.0
O237 O 0.11812 0.17196 0.88668 0.0
C238 C 0.02756 0.19763 0.86827 0.0
O239 O 0.10475 0.19456 0.81204 0.0
O240 O 0.14168 0.19175 0.84138 0.0
C241 C 0.12826 0.269 0.86189 0.0
Fe242 Fe 0.77926 0.07157 0.87959 0.0
Fe243 Fe 0.83638 0.07783 0.84645 0.0
O244 O 0.8095 0.09369 0.86831 0.0
Fe245 Fe 0.81265 0.13154 0.8784 0.0
O246 O 0.77629 0.14065 0.86464 0.0
O247 O 0.75224 0.10284 0.8819 0.0
O248 O 0.76649 0.06477 0.84463 0.0
C249 C 0.78296 0.05296 0.82673 0.0
C250 C 0.79437 0.10189 0.92611 0.0
O251 O 0.81079 0.05198 0.8299 0.0
C252 C 0.87149 0.11611 0.87951 0.0
O253 O 0.80091 0.03625 0.8801 0.0
O254 O 0.84672 0.05029 0.87151 0.0
O255 O 0.79746 0.12535 0.91229 0.0
O256 O 0.79027 0.07692 0.91481 0.0
C257 C 0.82845 0.13222 0.82318 0.0
O258 O 0.86742 0.10054 0.85851 0.0
O259 O 0.84969 0.12632 0.89274 0.0
C260 C 0.8288 0.03122 0.88069 0.0
O261 O 0.82744 0.10437 0.82015 0.0
O262 O 0.8284 0.14403 0.8464 0.0
C263 C 0.75219 0.12877 0.87174 0.0
Fe264 Fe 0.88341 0.20827 0.62783 0.0
Fe265 Fe 0.94472 0.23923 0.62662 0.0
O266 O 0.92122 0.20996 0.63793 0.0
Fe267 Fe 0.93538 0.18245 0.65979 0.0
O268 O 0.90918 0.19275 0.68594 0.0
O269 O 0.87 0.19195 0.65943 0.0
O270 O 0.87608 0.24411 0.64281 0.0
C271 C 0.889 0.26818 0.6374 0.0
C272 C 0.89608 0.14921 0.62585 0.0
O273 O 0.91436 0.26805 0.62573 0.0
C274 C 0.98268 0.18726 0.62597 0.0
O275 O 0.89011 0.22433 0.59444 0.0
O276 O 0.93871 0.22871 0.59136 0.0
O277 O 0.91118 0.15248 0.64731 0.0
O278 O 0.88769 0.17164 0.61252 0.0
C279 C 0.96257 0.23472 0.67955 0.0
O280 O 0.97929 0.21552 0.62576 0.0
O281 O 0.96218 0.17089 0.63484 0.0
C282 C 0.91358 0.22516 0.58035 0.0
O283 O 0.95221 0.25149 0.66134 0.0
O284 O 0.9623 0.20681 0.67674 0.0
C285 C 0.8814 0.192 0.6828 0.0
Fe286 Fe 0.80916 0.88609 0.63139 0.0
Fe287 Fe 0.78247 0.94951 0.63819 0.0
O288 O 0.81032 0.92244 0.64568 0.0
Fe289 Fe 0.83932 0.9318 0.66827 0.0
O290 O 0.82718 0.90377 0.69178 0.0
O291 O 0.82343 0.86749 0.66193 0.0
O292 O 0.77221 0.87946 0.64471 0.0
C293 C 0.74934 0.89508 0.64098 0.0
C294 C 0.86949 0.89367 0.63087 0.0
O295 O 0.75157 0.92228 0.63428 0.0
C296 C 0.83704 0.98258 0.6387 0.0
O297 O 0.79481 0.89892 0.59849 0.0
O298 O 0.7908 0.94775 0.60239 0.0
O299 O 0.8674 0.90681 0.65346 0.0
O300 O 0.84649 0.88863 0.61698 0.0
C301 C 0.79009 0.96041 0.69243 0.0
O302 O 0.8087 0.98158 0.63999 0.0
O303 O 0.85247 0.96043 0.64575 0.0
C304 C 0.79249 0.9246 0.58799 0.0
O305 O 0.77188 0.95342 0.674 0.0
O306 O 0.8177 0.95859 0.68822 0.0
C307 C 0.82456 0.87654 0.68624 0.0
Fe308 Fe 0.13739 0.81384 0.63106 0.0
Fe309 Fe 0.07572 0.78384 0.63088 0.0
O310 O 0.09978 0.81284 0.64182 0.0
Fe311 Fe 0.08661 0.84083 0.66391 0.0
O312 O 0.11358 0.83075 0.68971 0.0
O313 O 0.15176 0.83099 0.66212 0.0
O314 O 0.1445 0.77842 0.64662 0.0
C315 C 0.13116 0.75448 0.64148 0.0
C316 C 0.12461 0.87274 0.62804 0.0
O317 O 0.1057 0.75472 0.63005 0.0
C318 C 0.03831 0.8362 0.63088 0.0
O319 O 0.13029 0.79673 0.598 0.0
O320 O 0.08166 0.79349 0.59519 0.0
O321 O 0.11067 0.8702 0.65024 0.0
O322 O 0.13285 0.84993 0.61509 0.0
C323 C 0.05877 0.78922 0.68435 0.0
O324 O 0.04153 0.80795 0.63016 0.0
O325 O 0.05903 0.8524 0.63967 0.0
C326 C 0.1069 0.7952 0.58387 0.0
O327 O 0.06821 0.77215 0.66584 0.0
O328 O 0.05998 0.81711 0.68177 0.0
C329 C 0.14128 0.83121 0.68587 0.0
Fe330 Fe 0.23623 0.07135 0.63033 0.0
Fe331 Fe 0.18181 0.0907 0.66319 0.0
O332 O 0.20981 0.09914 0.63939 0.0
Fe333 Fe 0.2116 0.13541 0.62522 0.0
O334 O 0.24897 0.14073 0.63792 0.0
O335 O 0.26758 0.09767 0.62518 0.0
O336 O 0.24886 0.06671 0.66525 0.0
C337 C 0.23173 0.06001 0.68456 0.0
C338 C 0.22475 0.09676 0.58109 0.0
O339 O 0.20396 0.06348 0.68224 0.0
C340 C 0.15123 0.12913 0.62634 0.0
O341 O 0.20951 0.04016 0.63334 0.0
O342 O 0.16665 0.06214 0.64149 0.0
O343 O 0.22496 0.12239 0.59195 0.0
O344 O 0.22545 0.07355 0.59526 0.0
C345 C 0.19833 0.14573 0.68028 0.0
O346 O 0.15376 0.11631 0.64906 0.0
O347 O 0.17386 0.13363 0.61177 0.0
C348 C 0.1812 0.03976 0.63353 0.0
O349 O 0.19589 0.11857 0.68601 0.0
O350 O 0.19849 0.15446 0.65593 0.0
C351 C 0.27105 0.12431 0.63317 0.0
Fe352 Fe 0.57206 0.68359 0.65842 0.0
Fe353 Fe 0.62805 0.70935 0.63223 0.0
O354 O 0.5896 0.71229 0.63985 0.0
Fe355 Fe 0.56835 0.74376 0.62972 0.0
O356 O 0.55803 0.75284 0.66509 0.0
O357 O 0.54372 0.70742 0.674 0.0
O358 O 0.59492 0.69172 0.68728 0.0
C359 C 0.62285 0.69336 0.68704 0.0
C360 C 0.52914 0.69385 0.62151 0.0
O361 O 0.63747 0.69251 0.66506 0.0
C362 C 0.60191 0.73177 0.58378 0.0
O363 O 0.59703 0.6532 0.64743 0.0
O364 O 0.62414 0.67334 0.61576 0.0
O365 O 0.53375 0.7217 0.62456 0.0
O366 O 0.54791 0.67514 0.63016 0.0
C367 C 0.62478 0.7694 0.64357 0.0
O368 O 0.62447 0.72611 0.59838 0.0
O369 O 0.5767 0.73671 0.59425 0.0
C370 C 0.61473 0.65048 0.62766 0.0
O371 O 0.63623 0.74444 0.64814 0.0
O372 O 0.59932 0.77135 0.63249 0.0
C373 C 0.54435 0.73465 0.68021 0.0
Fe374 Fe 0.33597 0.58409 0.66837 0.0
Fe375 Fe 0.31035 0.63175 0.63115 0.0
O376 O 0.30945 0.59493 0.64396 0.0
Fe377 Fe 0.28198 0.56917 0.63285 0.0
O378 O 0.26778 0.56402 0.66744 0.0
O379 O 0.31177 0.55781 0.68592 0.0
O380 O 0.32293 0.61215 0.69189 0.0
C381 C 0.32251 0.63956 0.68673 0.0
C382 C 0.33521 0.53399 0.63747 0.0
O383 O 0.32395 0.64873 0.66257 0.0
C384 C 0.29713 0.5967 0.58506 0.0
O385 O 0.36575 0.60805 0.65556 0.0
O386 O 0.34808 0.62749 0.61811 0.0
O387 O 0.30696 0.53602 0.63565 0.0
O388 O 0.35023 0.55554 0.64631 0.0
C389 C 0.2502 0.6243 0.63708 0.0
O390 O 0.29699 0.62136 0.59747 0.0
O391 O 0.29416 0.57245 0.5977 0.0
C392 C 0.36987 0.61988 0.63264 0.0
O393 O 0.27308 0.6389 0.6434 0.0
O394 O 0.25244 0.59787 0.62795 0.0
C395 C 0.28383 0.55629 0.68728 0.0
Fe396 Fe 0.3863 0.30668 0.6374 0.0
Fe397 Fe 0.44871 0.27835 0.63252 0.0
O398 O 0.42478 0.30671 0.64496 0.0
Fe399 Fe 0.43962 0.33494 0.66577 0.0
O400 O 0.41708 0.32303 0.6937 0.0
O401 O 0.37502 0.32074 0.67103 0.0
O402 O 0.38172 0.27021 0.65153 0.0
C403 C 0.39513 0.24695 0.64459 0.0
C404 C 0.39551 0.36642 0.63575 0.0
O405 O 0.41991 0.24837 0.63224 0.0
C406 C 0.48393 0.33172 0.62919 0.0
O407 O 0.39155 0.29231 0.60265 0.0
O408 O 0.44026 0.28847 0.59781 0.0
O409 O 0.41265 0.36387 0.65595 0.0
O410 O 0.38721 0.3437 0.62292 0.0
C411 C 0.46963 0.28409 0.68428 0.0
O412 O 0.48198 0.30336 0.63016 0.0
O413 O 0.46317 0.34755 0.63861 0.0
C414 C 0.41453 0.29093 0.58767 0.0
O415 O 0.45836 0.26658 0.66705 0.0
O416 O 0.46932 0.31181 0.68024 0.0
C417 C 0.38932 0.31974 0.69319 0.0
Fe418 Fe 0.71132 0.38666 0.63549 0.0
Fe419 Fe 0.73418 0.45162 0.63406 0.0
O420 O 0.70772 0.42468 0.64486 0.0
Fe421 Fe 0.67807 0.43601 0.66599 0.0
O422 O 0.6913 0.41226 0.69274 0.0
O423 O 0.69845 0.3719 0.66827 0.0
O424 O 0.74841 0.38433 0.64943 0.0
C425 C 0.77033 0.39946 0.64193 0.0
C426 C 0.65068 0.39148 0.63333 0.0
O427 O 0.76635 0.42522 0.63191 0.0
C428 C 0.67832 0.48333 0.63232 0.0
O429 O 0.72492 0.39543 0.60126 0.0
O430 O 0.725 0.44458 0.59861 0.0
O431 O 0.65143 0.40796 0.65409 0.0
O432 O 0.67424 0.38487 0.62091 0.0
C433 C 0.72609 0.46832 0.68729 0.0
O434 O 0.70673 0.48306 0.63333 0.0
O435 O 0.66389 0.46088 0.64025 0.0
C436 C 0.72464 0.4192 0.58732 0.0
O437 O 0.74485 0.45998 0.66955 0.0
O438 O 0.69861 0.46615 0.68245 0.0
C439 C 0.6976 0.38504 0.69098 0.0
Fe440 Fe 0.57421 0.28791 0.87301 0.0
Fe441 Fe 0.59306 0.34191 0.83908 0.0
O442 O 0.60094 0.3152 0.86409 0.0
Fe443 Fe 0.63645 0.31576 0.87968 0.0
O444 O 0.6381 0.27571 0.88636 0.0
O445 O 0.60012 0.25758 0.86409 0.0
O446 O 0.55853 0.28422 0.83795 0.0
C447 C 0.56873 0.29277 0.81511 0.0
C448 C 0.60138 0.30576 0.92354 0.0
O449 O 0.58744 0.31352 0.81389 0.0
C450 C 0.62281 0.37716 0.87445 0.0
O451 O 0.54599 0.31605 0.88214 0.0
O452 O 0.55337 0.34413 0.84641 0.0
O453 O 0.61974 0.32282 0.9121 0.0
O454 O 0.58565 0.28757 0.9096 0.0
C455 C 0.65124 0.32438 0.82711 0.0
O456 O 0.59832 0.37215 0.86292 0.0
O457 O 0.64188 0.35645 0.87654 0.0
C458 C 0.53784 0.33711 0.86675 0.0
O459 O 0.63138 0.34428 0.82676 0.0
O460 O 0.65475 0.30808 0.84754 0.0
C461 C 0.62593 0.2544 0.87394 0.0
Fe462 Fe 0.68392 0.58146 0.84744 0.0
Fe463 Fe 0.70774 0.63791 0.87445 0.0
O464 O 0.71177 0.59969 0.86645 0.0
Fe465 Fe 0.74376 0.5794 0.87652 0.0
O466 O 0.75362 0.57087 0.841 0.0
O467 O 0.70904 0.55443 0.83153 0.0
O468 O 0.6913 0.60512 0.81898 0.0
C469 C 0.69176 0.63308 0.81962 0.0
C470 C 0.69549 0.53814 0.88347 0.0
O471 O 0.69042 0.6473 0.84181 0.0
C472 C 0.73023 0.6117 0.92268 0.0
O473 O 0.65279 0.60519 0.85878 0.0
O474 O 0.672 0.63257 0.89087 0.0
O475 O 0.72311 0.54383 0.88048 0.0
O476 O 0.67615 0.55645 0.87522 0.0
C477 C 0.76765 0.63632 0.86345 0.0
O478 O 0.72474 0.63441 0.90824 0.0
O479 O 0.73568 0.58665 0.91198 0.0
C480 C 0.64951 0.62256 0.87877 0.0
O481 O 0.74248 0.6471 0.85849 0.0
O482 O 0.77007 0.61124 0.87498 0.0
C483 C 0.73617 0.55697 0.82532 0.0
Fe484 Fe 0.43172 0.68697 0.84089 0.0
Fe485 Fe 0.38624 0.71477 0.87966 0.0
O486 O 0.42273 0.71408 0.86555 0.0
Fe487 Fe 0.45007 0.74038 0.87578 0.0
O488 O 0.45568 0.75419 0.84108 0.0
O489 O 0.4584 0.70992 0.82235 0.0
O490 O 0.40359 0.70127 0.81836 0.0
C491 C 0.37635 0.70264 0.8241 0.0
C492 C 0.48283 0.68566 0.87049 0.0
O493 O 0.36766 0.70217 0.84849 0.0
C494 C 0.42361 0.72698 0.92481 0.0
O495 O 0.40672 0.6582 0.85427 0.0
O496 O 0.38902 0.67676 0.89213 0.0
O497 O 0.4819 0.71394 0.87245 0.0
O498 O 0.46055 0.67141 0.862 0.0
C499 C 0.39588 0.77467 0.8738 0.0
O500 O 0.3983 0.72734 0.9135 0.0
O501 O 0.44713 0.72849 0.91086 0.0
C502 C 0.39422 0.65468 0.87702 0.0
O503 O 0.38002 0.75249 0.86809 0.0
O504 O 0.42277 0.77121 0.88138 0.0
C505 C 0.46225 0.73769 0.8211 0.0
Fe506 Fe 0.28199 0.45239 0.87545 0.0
Fe507 Fe 0.33654 0.43714 0.84109 0.0
O508 O 0.3097 0.42641 0.8653 0.0
Fe509 Fe 0.31056 0.38962 0.87838 0.0
O510 O 0.27319 0.38239 0.86698 0.0
O511 O 0.25187 0.4242 0.87972 0.0
O512 O 0.26878 0.45743 0.84058 0.0
C513 C 0.28532 0.46597 0.82147 0.0
C514 C 0.29588 0.4257 0.92415 0.0
O515 O 0.3132 0.46463 0.82376 0.0
C516 C 0.37036 0.39872 0.87531 0.0
O517 O 0.30763 0.4851 0.87329 0.0
O518 O 0.35117 0.46497 0.86375 0.0
O519 O 0.29803 0.40055 0.91255 0.0
O520 O 0.29292 0.44932 0.91061 0.0
C521 C 0.31975 0.38271 0.82237 0.0
O522 O 0.36599 0.41176 0.85295 0.0
O523 O 0.34865 0.39314 0.89066 0.0
C524 C 0.33601 0.48674 0.87231 0.0
O525 O 0.32238 0.41005 0.81749 0.0
O526 O 0.32281 0.37269 0.84621 0.0
C527 C 0.2501 0.39731 0.87173 0.0
Fe528 Fe 0.44671 0.32881 0.34193 0.0
Fe529 Fe 0.39454 0.30835 0.37733 0.0
O530 O 0.432 0.30393 0.3662 0.0
Fe531 Fe 0.45508 0.27473 0.37843 0.0
O532 O 0.46187 0.25976 0.34432 0.0
O533 O 0.47365 0.30296 0.3273 0.0
O534 O 0.4205 0.31566 0.31712 0.0
C535 C 0.39266 0.31522 0.32027 0.0
C536 C 0.49303 0.32582 0.37701 0.0
O537 O 0.38088 0.31916 0.34344 0.0
C538 C 0.42694 0.29341 0.42539 0.0
O539 O 0.4229 0.36043 0.35068 0.0
O540 O 0.39965 0.34725 0.38758 0.0
O541 O 0.48934 0.29771 0.37765 0.0
O542 O 0.47381 0.34246 0.36602 0.0
C543 C 0.39812 0.2468 0.37384 0.0
O544 O 0.40258 0.2978 0.41289 0.0
O545 O 0.45057 0.28718 0.41285 0.0
C546 C 0.40831 0.36733 0.3716 0.0
O547 O 0.38499 0.27062 0.36785 0.0
O548 O 0.42484 0.24697 0.3821 0.0
C549 C 0.47306 0.27507 0.3255 0.0
Fe550 Fe 0.68279 0.44449 0.34289 0.0
Fe551 Fe 0.70476 0.39459 0.38014 0.0
O552 O 0.70925 0.43071 0.36622 0.0
Fe553 Fe 0.7402 0.4533 0.37505 0.0
O554 O 0.75276 0.4551 0.33976 0.0
O555 O 0.70891 0.46783 0.32423 0.0
O556 O 0.69132 0.41498 0.31915 0.0
C557 C 0.68938 0.38761 0.32446 0.0
C558 C 0.69132 0.49415 0.37326 0.0
O559 O 0.68901 0.37842 0.3488 0.0
C560 C 0.72453 0.43018 0.42471 0.0
O561 O 0.65117 0.42392 0.35656 0.0
O562 O 0.66789 0.40282 0.3935 0.0
O563 O 0.71919 0.4889 0.37242 0.0
O564 O 0.67304 0.47469 0.36545 0.0
C565 C 0.76541 0.39487 0.37274 0.0
O566 O 0.7197 0.40501 0.41375 0.0
O567 O 0.72974 0.45292 0.41049 0.0
C568 C 0.64649 0.41162 0.37911 0.0
O569 O 0.74084 0.3826 0.36795 0.0
O570 O 0.76652 0.42194 0.37997 0.0
C571 C 0.73653 0.46489 0.32091 0.0
Fe572 Fe 0.625 0.70986 0.37559 0.0
Fe573 Fe 0.56574 0.74506 0.37213 0.0
O574 O 0.58842 0.71439 0.36259 0.0
Fe575 Fe 0.5743 0.68833 0.33898 0.0
O576 O 0.60251 0.69893 0.31477 0.0
O577 O 0.64037 0.69616 0.34312 0.0
O578 O 0.63626 0.74637 0.36459 0.0
C579 C 0.62416 0.77071 0.37047 0.0
C580 C 0.6095 0.65134 0.37277 0.0
O581 O 0.59685 0.77181 0.37691 0.0
C582 C 0.52579 0.69528 0.37096 0.0
O583 O 0.61519 0.72322 0.40995 0.0
O584 O 0.56738 0.73454 0.40747 0.0
O585 O 0.59647 0.6567 0.35069 0.0
O586 O 0.61795 0.67234 0.38778 0.0
C587 C 0.55146 0.74166 0.3184 0.0
O588 O 0.53058 0.72328 0.37023 0.0
O589 O 0.54525 0.67724 0.36232 0.0
C590 C 0.59038 0.72889 0.42128 0.0
O591 O 0.56252 0.75783 0.33681 0.0
O592 O 0.54916 0.71405 0.32183 0.0
C593 C 0.63014 0.69925 0.31927 0.0
Fe594 Fe 0.33551 0.5803 0.34205 0.0
Fe595 Fe 0.30708 0.62514 0.38076 0.0
O596 O 0.30667 0.58959 0.36485 0.0
Fe597 Fe 0.27709 0.56455 0.37149 0.0
O598 O 0.27518 0.54904 0.33672 0.0
O599 O 0.30977 0.57378 0.31479 0.0
O600 O 0.33857 0.61828 0.32871 0.0
C601 C 0.31923 0.63884 0.32829 0.0
C602 C 0.32507 0.52552 0.36995 0.0
O603 O 0.30217 0.64343 0.34821 0.0
C604 C 0.29347 0.58885 0.42304 0.0
O605 O 0.36407 0.58646 0.36749 0.0
O606 O 0.34782 0.63029 0.3793 0.0
O607 O 0.30221 0.53484 0.38234 0.0
O608 O 0.33681 0.54071 0.35117 0.0
C609 C 0.24619 0.61761 0.37127 0.0
O610 O 0.31148 0.60781 0.41351 0.0
O611 O 0.27481 0.57555 0.40773 0.0
C612 C 0.36894 0.61175 0.37752 0.0
O613 O 0.26673 0.62806 0.38576 0.0
O614 O 0.24924 0.5922 0.36063 0.0
C615 C 0.287 0.55762 0.31474 0.0
Fe616 Fe 0.44422 0.7344 0.13142 0.0
Fe617 Fe 0.43219 0.68136 0.16826 0.0
O618 O 0.41875 0.70864 0.14572 0.0
Fe619 Fe 0.38029 0.71081 0.13804 0.0
O620 O 0.37806 0.74897 0.14988 0.0
O621 O 0.41686 0.76522 0.12774 0.0
O622 O 0.45326 0.74921 0.16489 0.0
C623 C 0.46315 0.7332 0.18387 0.0
C624 C 0.41024 0.72047 0.08731 0.0
O625 O 0.46191 0.70508 0.18235 0.0
C626 C 0.38681 0.6502 0.13912 0.0
O627 O 0.4768 0.70837 0.13197 0.0
O628 O 0.45621 0.66592 0.14254 0.0
O629 O 0.38704 0.72187 0.10224 0.0
O630 O 0.436 0.72105 0.09762 0.0
C631 C 0.3818 0.69975 0.19465 0.0
O632 O 0.40469 0.65266 0.15886 0.0
O633 O 0.37867 0.67274 0.12593 0.0
C634 C 0.47798 0.68006 0.13309 0.0
O635 O 0.40939 0.6954 0.19519 0.0
O636 O 0.36757 0.69998 0.17242 0.0
C637 C 0.39259 0.77021 0.1401 0.0
Fe638 Fe 0.28021 0.44265 0.13141 0.0
Fe639 Fe 0.33499 0.43552 0.16729 0.0
O640 O 0.30922 0.41995 0.14446 0.0
Fe641 Fe 0.31235 0.38187 0.13553 0.0
O642 O 0.27538 0.37422 0.14774 0.0
O643 O 0.25207 0.4121 0.12928 0.0
O644 O 0.26584 0.45052 0.16542 0.0
C645 C 0.28154 0.46214 0.18375 0.0
C646 C 0.29678 0.41091 0.08613 0.0
O647 O 0.30942 0.4632 0.18136 0.0
C648 C 0.37132 0.39595 0.13698 0.0
O649 O 0.30347 0.47743 0.13109 0.0
O650 O 0.34796 0.46087 0.14177 0.0
O651 O 0.29945 0.38758 0.10045 0.0
O652 O 0.29251 0.43606 0.09695 0.0
C653 C 0.32224 0.38309 0.19201 0.0
O654 O 0.36606 0.41102 0.15809 0.0
O655 O 0.3502 0.38604 0.12284 0.0
C656 C 0.3317 0.481 0.13196 0.0
O657 O 0.3227 0.411 0.19373 0.0
O658 O 0.32543 0.3701 0.16932 0.0
C659 C 0.25159 0.38673 0.1407 0.0
Fe660 Fe 0.57157 0.26975 0.13417 0.0
Fe661 Fe 0.57888 0.33009 0.16255 0.0
O662 O 0.59385 0.30142 0.14195 0.0
Fe663 Fe 0.63087 0.30455 0.12982 0.0
O664 O 0.64146 0.26963 0.14478 0.0
O665 O 0.60285 0.24243 0.13355 0.0
O666 O 0.56626 0.26068 0.17005 0.0
C667 C 0.5545 0.27854 0.1867 0.0
C668 C 0.59805 0.28136 0.08481 0.0
O669 O 0.55338 0.30598 0.1814 0.0
C670 C 0.61657 0.3631 0.12683 0.0
O671 O 0.53634 0.29157 0.13289 0.0
O672 O 0.55058 0.33821 0.13755 0.0
O673 O 0.62248 0.28765 0.09649 0.0
O674 O 0.57472 0.27634 0.09819 0.0
C675 C 0.63388 0.32353 0.18493 0.0
O676 O 0.60157 0.36054 0.1484 0.0
O677 O 0.6243 0.34026 0.11389 0.0
C678 C 0.5312 0.31938 0.13046 0.0
O679 O 0.60613 0.32289 0.18854 0.0
O680 O 0.645 0.3221 0.16124 0.0
C681 C 0.62949 0.24463 0.14187 0.0
Fe682 Fe 0.70531 0.62721 0.13286 0.0
Fe683 Fe 0.73371 0.5645 0.1311 0.0
O684 O 0.7056 0.58928 0.14257 0.0
Fe685 Fe 0.67786 0.57571 0.16458 0.0
O686 O 0.69042 0.59974 0.19103 0.0
O687 O 0.69239 0.6407 0.16664 0.0
O688 O 0.74219 0.63294 0.14573 0.0
C689 C 0.7654 0.61881 0.13995 0.0
C690 C 0.64544 0.61811 0.13324 0.0
O691 O 0.76391 0.5931 0.12921 0.0
C692 C 0.67989 0.52947 0.13003 0.0
O693 O 0.71867 0.61939 0.09776 0.0
O694 O 0.72327 0.57045 0.09647 0.0
O695 O 0.64857 0.60217 0.15416 0.0
O696 O 0.66779 0.62535 0.11943 0.0
C697 C 0.72931 0.5467 0.18343 0.0
O698 O 0.70834 0.53112 0.13057 0.0
O699 O 0.66455 0.55087 0.13882 0.0
C700 C 0.72106 0.59509 0.08449 0.0
O701 O 0.7461 0.55735 0.16555 0.0
O702 O 0.70141 0.54673 0.18015 0.0
C703 C 0.69342 0.62746 0.18946 0.0
H704 H 0.21183 0.13628 0.26818 0.0
H705 H 0.15602 0.19322 0.31694 0.0
H706 H 0.1413 0.22113 0.27668 0.0
H707 H 0.1375 0.22295 0.22702 0.0
H708 H 0.19304 0.16605 0.17827 0.0
H709 H 0.21561 0.14504 0.2191 0.0
C710 C 0.1969 0.15518 0.26993 0.0
C711 C 0.18445 0.16241 0.29514 0.0
C712 C 0.18871 0.17116 0.24677 0.0
C713 C 0.16563 0.18721 0.29755 0.0
C714 C 0.15718 0.20312 0.27458 0.0
C715 C 0.15559 0.20701 0.2255 0.0
C716 C 0.16399 0.19611 0.20005 0.0
C717 C 0.1677 0.19453 0.249 0.0
C718 C 0.18684 0.17501 0.19788 0.0
C719 C 0.19932 0.16268 0.22117 0.0
H720 H 0.82411 0.17161 0.31132 0.0
H721 H 0.8819 0.2368 0.27567 0.0
H722 H 0.86492 0.22289 0.23032 0.0
H723 H 0.84306 0.18391 0.20129 0.0
H724 H 0.78844 0.11618 0.23778 0.0
H725 H 0.79408 0.13947 0.28205 0.0
C726 C 0.83165 0.18378 0.29364 0.0
C727 C 0.85383 0.20531 0.29658 0.0
C728 C 0.82295 0.17453 0.26767 0.0
C729 C 0.86432 0.22049 0.27368 0.0
C730 C 0.85499 0.21218 0.24775 0.0
C731 C 0.83162 0.17492 0.2188 0.0
C732 C 0.81601 0.14803 0.21649 0.0
C733 C 0.83573 0.18795 0.24447 0.0
C734 C 0.80115 0.13656 0.23926 0.0
C735 C 0.80436 0.14985 0.2646 0.0
H736 H 0.88852 0.79914 0.24205 0.0
H737 H 0.82528 0.84065 0.18832 0.0
H738 H 0.79865 0.86154 0.22705 0.0
H739 H 0.79867 0.87485 0.27557 0.0
H740 H 0.86166 0.8333 0.3292 0.0
H741 H 0.88289 0.80517 0.29129 0.0
C742 C 0.8685 0.81219 0.23891 0.0
C743 C 0.85914 0.81878 0.21245 0.0
C744 C 0.85338 0.82424 0.26125 0.0
C745 C 0.83297 0.83535 0.20855 0.0
C746 C 0.81782 0.84748 0.23067 0.0
C747 C 0.81627 0.85874 0.27894 0.0
C748 C 0.82857 0.85573 0.30486 0.0
C749 C 0.82854 0.84303 0.25702 0.0
C750 C 0.85171 0.83539 0.30929 0.0
C751 C 0.864 0.81962 0.28763 0.0
H752 H 0.18975 0.84511 0.30214 0.0
H753 H 0.11969 0.78713 0.2746 0.0
H754 H 0.13845 0.78958 0.22843 0.0
H755 H 0.16729 0.81719 0.19492 0.0
H756 H 0.23599 0.87703 0.22112 0.0
H757 H 0.22601 0.86452 0.26853 0.0
C758 C 0.17937 0.83224 0.28614 0.0
C759 C 0.1531 0.81645 0.29155 0.0
C760 C 0.1899 0.83434 0.25928 0.0
C761 C 0.13969 0.79986 0.27071 0.0
C762 C 0.15036 0.80125 0.24429 0.0
C763 C 0.18109 0.82616 0.21101 0.0
C764 C 0.20246 0.84764 0.20476 0.0
C765 C 0.17442 0.81968 0.23812 0.0
C766 C 0.2198 0.85991 0.22561 0.0
C767 C 0.21372 0.85315 0.25274 0.0
H768 H 0.89367 0.80734 0.77335 0.0
H769 H 0.83567 0.85865 0.82514 0.0
H770 H 0.80584 0.87322 0.78598 0.0
H771 H 0.80239 0.87862 0.73666 0.0
H772 H 0.86123 0.82857 0.6848 0.0
H773 H 0.88403 0.80518 0.7244 0.0
C774 C 0.87414 0.82122 0.77604 0.0
C775 C 0.86719 0.83257 0.80178 0.0
C776 C 0.85731 0.82962 0.75349 0.0
C777 C 0.84152 0.84994 0.80536 0.0
C778 C 0.82455 0.85833 0.78301 0.0
C779 C 0.81962 0.86193 0.73414 0.0
C780 C 0.83063 0.85561 0.70819 0.0
C781 C 0.83309 0.84938 0.75692 0.0
C782 C 0.8525 0.83365 0.70476 0.0
C783 C 0.86577 0.82061 0.72736 0.0
H784 H 0.13636 0.81309 0.73807 0.0
H785 H 0.19054 0.86578 0.68443 0.0
H786 H 0.21918 0.8843 0.72288 0.0
H787 H 0.22348 0.89129 0.77214 0.0
H788 H 0.17018 0.83824 0.82589 0.0
H789 H 0.14697 0.81337 0.78711 0.0
C790 C 0.15477 0.82822 0.73487 0.0
C791 C 0.16106 0.83849 0.70866 0.0
C792 C 0.17135 0.83856 0.75705 0.0
C793 C 0.18524 0.8577 0.70452 0.0
C794 C 0.20158 0.86835 0.72647 0.0
C795 C 0.20774 0.87334 0.77521 0.0
C796 C 0.19869 0.86615 0.80152 0.0
C797 C 0.19421 0.85966 0.75287 0.0
C798 C 0.17781 0.84348 0.80563 0.0
C799 C 0.16425 0.82966 0.7835 0.0
H800 H 0.21941 0.14303 0.73089 0.0
H801 H 0.16273 0.1945 0.67839 0.0
H802 H 0.13897 0.2176 0.71774 0.0
H803 H 0.12776 0.21476 0.76643 0.0
H804 H 0.18402 0.16232 0.81867 0.0
H805 H 0.21475 0.14799 0.78005 0.0
C806 C 0.20259 0.16012 0.72819 0.0
C807 C 0.19235 0.16683 0.70213 0.0
C808 C 0.18853 0.17248 0.75077 0.0
C809 C 0.17086 0.18912 0.69846 0.0
C810 C 0.15701 0.20197 0.72091 0.0
C811 C 0.14704 0.20059 0.7693 0.0
C812 C 0.15325 0.18887 0.79498 0.0
C813 C 0.16453 0.19245 0.74707 0.0
C814 C 0.17867 0.17123 0.79887 0.0
C815 C 0.19622 0.16302 0.77686 0.0
H816 H 0.80998 0.12488 0.77164 0.0
H817 H 0.8637 0.18089 0.82305 0.0
H818 H 0.88248 0.20737 0.78353 0.0
H819 H 0.88835 0.21 0.7343 0.0
H820 H 0.83386 0.15501 0.68275 0.0
H821 H 0.81008 0.13305 0.72243 0.0
C822 C 0.82545 0.14318 0.77407 0.0
C823 C 0.83588 0.15073 0.79988 0.0
C824 C 0.83599 0.15838 0.75136 0.0
C825 C 0.85548 0.17475 0.80317 0.0
C826 C 0.86631 0.18979 0.78065 0.0
C827 C 0.87084 0.19364 0.73188 0.0
C828 C 0.86306 0.18373 0.70597 0.0
C829 C 0.85742 0.18114 0.75465 0.0
C830 C 0.84011 0.16289 0.70271 0.0
C831 C 0.8267 0.15018 0.72532 0.0
H832 H 0.6739 0.66449 0.69842 0.0
H833 H 0.60544 0.71957 0.73368 0.0
H834 H 0.62532 0.71046 0.77896 0.0
H835 H 0.65649 0.67987 0.80852 0.0
H836 H 0.72075 0.61997 0.77329 0.0
H837 H 0.7088 0.63824 0.72798 0.0
C838 C 0.66389 0.67501 0.71602 0.0
C839 C 0.63817 0.6922 0.71308 0.0
C840 C 0.67457 0.66857 0.74195 0.0
C841 C 0.6251 0.7058 0.73581 0.0
C842 C 0.63641 0.70063 0.7616 0.0
C843 C 0.66838 0.67155 0.79092 0.0
C844 C 0.68912 0.6486 0.79384 0.0
C845 C 0.6603 0.681 0.76498 0.0
C846 C 0.7044 0.63755 0.77114 0.0
C847 C 0.69754 0.64788 0.74533 0.0
H848 H 0.37879 0.72308 0.77299 0.0
H849 H 0.32769 0.66702 0.82624 0.0
H850 H 0.30262 0.64468 0.7873 0.0
H851 H 0.30261 0.63484 0.73823 0.0
H852 H 0.35365 0.6912 0.68511 0.0
H853 H 0.37111 0.72005 0.72386 0.0
C854 C 0.36146 0.70664 0.776 0.0
C855 C 0.3553 0.69632 0.80218 0.0
C856 C 0.34755 0.69366 0.75358 0.0
C857 C 0.3327 0.67527 0.80614 0.0
C858 C 0.31862 0.66227 0.78389 0.0
C859 C 0.31702 0.65386 0.73519 0.0
C860 C 0.32739 0.66057 0.7091 0.0
C861 C 0.327 0.67028 0.75753 0.0
C862 C 0.34557 0.68555 0.70513 0.0
C863 C 0.35567 0.70195 0.72726 0.0
H864 H 0.334 0.34064 0.70445 0.0
H865 H 0.4103 0.29811 0.7405 0.0
H866 H 0.39059 0.30751 0.78565 0.0
H867 H 0.3577 0.33748 0.81424 0.0
H868 H 0.28414 0.38428 0.7783 0.0
H869 H 0.29606 0.36315 0.7339 0.0
C870 C 0.34578 0.33271 0.7222 0.0
C871 C 0.37378 0.31937 0.71933 0.0
C872 C 0.33491 0.33932 0.74815 0.0
C873 C 0.38891 0.30899 0.74238 0.0
C874 C 0.37769 0.31437 0.76819 0.0
C875 C 0.34367 0.34201 0.79683 0.0
C876 C 0.32054 0.36267 0.79906 0.0
C877 C 0.35157 0.33094 0.7713 0.0
C878 C 0.30246 0.36877 0.77659 0.0
C879 C 0.30933 0.35679 0.75128 0.0
H880 H 0.67424 0.33147 0.70579 0.0
H881 H 0.73216 0.40167 0.73274 0.0
H882 H 0.72801 0.38463 0.77947 0.0
H883 H 0.69857 0.357 0.81291 0.0
H884 H 0.64247 0.28525 0.78662 0.0
H885 H 0.65582 0.29476 0.73928 0.0
C886 C 0.6867 0.34229 0.72182 0.0
C887 C 0.70212 0.3687 0.71639 0.0
C888 C 0.68438 0.33214 0.74867 0.0
C889 C 0.71874 0.3823 0.73702 0.0
C890 C 0.71665 0.37238 0.76363 0.0
C891 C 0.69061 0.34252 0.79686 0.0
C892 C 0.66941 0.32079 0.8028 0.0
C893 C 0.69811 0.34843 0.76986 0.0
C894 C 0.65879 0.30222 0.78212 0.0
C895 C 0.66619 0.30785 0.75511 0.0
H896 H 0.3521 0.33177 0.20123 0.0
H897 H 0.29657 0.39766 0.23984 0.0
H898 H 0.3089 0.37751 0.28432 0.0
H899 H 0.34306 0.34791 0.31202 0.0
H900 H 0.40228 0.28548 0.27334 0.0
H901 H 0.38065 0.29694 0.22919 0.0
C902 C 0.34203 0.34106 0.21936 0.0
C903 C 0.32391 0.36634 0.21747 0.0
C904 C 0.35025 0.3302 0.24488 0.0
C905 C 0.31099 0.37837 0.24101 0.0
C906 C 0.31807 0.36693 0.26641 0.0
C907 C 0.35048 0.33617 0.294 0.0
C908 C 0.37444 0.31631 0.29565 0.0
C909 C 0.33884 0.34384 0.26863 0.0
C910 C 0.38411 0.30125 0.27228 0.0
C911 C 0.37181 0.30783 0.24709 0.0
H912 H 0.62487 0.30923 0.23751 0.0
H913 H 0.68442 0.3569 0.18466 0.0
H914 H 0.70932 0.37876 0.22398 0.0
H915 H 0.70965 0.38904 0.27288 0.0
H916 H 0.65079 0.341 0.32588 0.0
H917 H 0.63033 0.31406 0.28701 0.0
C918 C 0.64368 0.32398 0.23467 0.0
C919 C 0.6526 0.33179 0.2083 0.0
C920 C 0.6578 0.33648 0.25733 0.0
C921 C 0.6772 0.35056 0.20478 0.0
C922 C 0.69129 0.36322 0.22724 0.0
C923 C 0.69273 0.37235 0.27593 0.0
C924 C 0.68148 0.3673 0.30208 0.0
C925 C 0.68111 0.35708 0.25353 0.0
C926 C 0.65984 0.34523 0.30591 0.0
C927 C 0.64799 0.33 0.28368 0.0
H928 H 0.67305 0.68379 0.20074 0.0
H929 H 0.7141 0.60681 0.23702 0.0
H930 H 0.7033 0.62563 0.28199 0.0
H931 H 0.67284 0.65827 0.31043 0.0
H932 H 0.63225 0.73581 0.27552 0.0
H933 H 0.65203 0.72275 0.23083 0.0
C934 C 0.68043 0.6717 0.21851 0.0
C935 C 0.69373 0.64364 0.21552 0.0
C936 C 0.67346 0.68236 0.24461 0.0
C937 C 0.70339 0.62827 0.23876 0.0
C938 C 0.69711 0.63893 0.26458 0.0
C939 C 0.66923 0.67279 0.29319 0.0
C940 C 0.64991 0.69702 0.29565 0.0
C941 C 0.68074 0.6651 0.26771 0.0
C942 C 0.64558 0.71597 0.27343 0.0
C943 C 0.6572 0.7087 0.24801 0.0
H944 H 0.35702 0.683 0.31703 0.0
H945 H 0.28114 0.63592 0.28606 0.0
H946 H 0.29078 0.65525 0.24043 0.0
H947 H 0.32702 0.67758 0.20842 0.0
H948 H 0.40343 0.72336 0.24066 0.0
H949 H 0.38697 0.71359 0.28662 0.0
C950 C 0.34194 0.67812 0.30044 0.0
C951 C 0.31853 0.65823 0.30454 0.0
C952 C 0.34798 0.68886 0.27439 0.0
C953 C 0.29924 0.65144 0.28308 0.0
C954 C 0.30492 0.66227 0.25702 0.0
C955 C 0.3394 0.68627 0.22554 0.0
C956 C 0.36665 0.70073 0.22118 0.0
C957 C 0.33014 0.67984 0.25219 0.0
C958 C 0.38256 0.71186 0.24353 0.0
C959 C 0.37325 0.70617 0.26987 0.0
H960 H 0.20225 0.3814 0.10719 0.0
H961 H 0.23863 0.35202 0.18344 0.0
H962 H 0.19905 0.31555 0.18802 0.0
H963 H 0.15801 0.28722 0.16777 0.0
H964 H 0.12178 0.31432 0.09107 0.0
H965 H 0.15669 0.35626 0.08932 0.0
C966 C 0.20098 0.36757 0.12511 0.0
C967 C 0.22359 0.36948 0.1449 0.0
C968 C 0.17818 0.34588 0.12744 0.0
C969 C 0.22172 0.35099 0.16782 0.0
C970 C 0.19908 0.32999 0.17046 0.0
C971 C 0.15712 0.30296 0.15115 0.0
C972 C 0.13692 0.2981 0.12989 0.0
C973 C 0.17773 0.32655 0.15005 0.0
C974 C 0.13663 0.31806 0.10801 0.0
C975 C 0.15686 0.34186 0.10689 0.0
H976 H 0.63516 0.19149 0.11337 0.0
H977 H 0.66775 0.2391 0.18326 0.0
H978 H 0.70699 0.20245 0.18934 0.0
H979 H 0.73576 0.16049 0.17214 0.0
H980 H 0.70512 0.11174 0.10237 0.0
H981 H 0.66155 0.1447 0.09908 0.0
C982 C 0.65038 0.19331 0.13031 0.0
C983 C 0.64849 0.21819 0.14779 0.0
C984 C 0.67362 0.17214 0.1335 0.0
C985 C 0.66871 0.22035 0.16945 0.0
C986 C 0.6913 0.19942 0.17291 0.0
C987 C 0.71934 0.15676 0.15639 0.0
C988 C 0.72391 0.13381 0.13738 0.0
C989 C 0.69457 0.17582 0.1546 0.0
C990 C 0.70218 0.12915 0.11733 0.0
C991 C 0.67732 0.14817 0.11536 0.0
H992 H 0.81483 0.6275 0.10697 0.0
H993 H 0.77915 0.64662 0.18625 0.0
H994 H 0.81785 0.68338 0.19404 0.0
H995 H 0.85726 0.71529 0.17613 0.0
H996 H 0.89465 0.69704 0.09753 0.0
H997 H 0.86047 0.65493 0.09178 0.0
C998 C 0.81623 0.63899 0.12626 0.0
C999 C 0.79398 0.63425 0.146 0.0
C1000 C 0.83862 0.66077 0.13057 0.0
C1001 C 0.7959 0.64978 0.17072 0.0
C1002 C 0.81796 0.67102 0.17516 0.0
C1003 C 0.85842 0.70164 0.15801 0.0
C1004 C 0.87844 0.70941 0.13729 0.0
C1005 C 0.83872 0.67752 0.15489 0.0
C1006 C 0.87966 0.69145 0.11392 0.0
C1007 C 0.85988 0.66747 0.11054 0.0
H1008 H 0.31351 0.8794 0.10538 0.0
H1009 H 0.28742 0.87495 0.18921 0.0
H1010 H 0.32498 0.83641 0.19741 0.0
H1011 H 0.36075 0.79938 0.17905 0.0
H1012 H 0.38905 0.80612 0.09586 0.0
H1013 H 0.35563 0.84851 0.0891 0.0
C1014 C 0.31683 0.87069 0.12563 0.0
C1015 C 0.29794 0.88021 0.14675 0.0
C1016 C 0.33864 0.84863 0.13018 0.0
C1017 C 0.30208 0.86843 0.1728 0.0
C1018 C 0.32332 0.84611 0.17738 0.0
C1019 C 0.3601 0.81063 0.15964 0.0
C1020 C 0.3773 0.79951 0.13794 0.0
C1021 C 0.34108 0.83535 0.15602 0.0
C1022 C 0.37628 0.81434 0.11293 0.0
C1023 C 0.35696 0.83847 0.109 0.0
H1024 H 0.1468 0.70787 0.33171 0.0
H1025 H 0.14636 0.72913 0.41685 0.0
H1026 H 0.18203 0.68914 0.42561 0.0
H1027 H 0.21678 0.65102 0.40855 0.0
H1028 H 0.21551 0.6269 0.32407 0.0
H1029 H 0.17695 0.6645 0.31554 0.0
C1030 C 0.15405 0.7032 0.35221 0.0
C1031 C 0.14381 0.72131 0.37368 0.0
C1032 C 0.17441 0.67972 0.35717 0.0
C1033 C 0.15362 0.71527 0.40011 0.0
C1034 C 0.17418 0.69252 0.40508 0.0
C1035 C 0.20762 0.65359 0.38836 0.0
C1036 C 0.21906 0.63616 0.36697 0.0
C1037 C 0.18521 0.67499 0.38373 0.0
C1038 C 0.20692 0.63976 0.34094 0.0
C1039 C 0.18502 0.66148 0.33603 0.0
H1040 H 0.35754 0.23113 0.33613 0.0
H1041 H 0.39834 0.19983 0.40965 0.0
H1042 H 0.36289 0.1583 0.41149 0.0
H1043 H 0.31603 0.13427 0.39458 0.0
H1044 H 0.27718 0.1665 0.32029 0.0
H1045 H 0.31618 0.20357 0.31614 0.0
C1046 C 0.35901 0.21493 0.35234 0.0
C1047 C 0.38043 0.21876 0.37283 0.0
C1048 C 0.33869 0.19114 0.35316 0.0
C1049 C 0.38217 0.19738 0.39355 0.0
C1050 C 0.36173 0.1737 0.39468 0.0
C1051 C 0.31669 0.14881 0.3771 0.0
C1052 C 0.29346 0.14759 0.35783 0.0
C1053 C 0.33932 0.17071 0.37492 0.0
C1054 C 0.29457 0.16696 0.33548 0.0
C1055 C 0.31684 0.18836 0.33313 0.0
H1056 H 0.85102 0.28991 0.40346 0.0
H1057 H 0.89827 0.3193 0.33244 0.0
H1058 H 0.86389 0.36169 0.32812 0.0
H1059 H 0.81697 0.38783 0.34261 0.0
H1060 H 0.7706 0.35606 0.41329 0.0
H1061 H 0.80797 0.31737 0.41972 0.0
C1062 C 0.8541 0.3057 0.38711 0.0
C1063 C 0.87714 0.30118 0.36816 0.0
C1064 C 0.83415 0.32962 0.38466 0.0
C1065 C 0.88085 0.3222 0.34737 0.0
C1066 C 0.86102 0.34635 0.34482 0.0
C1067 C 0.81552 0.37272 0.35965 0.0
C1068 C 0.79109 0.3748 0.37756 0.0
C1069 C 0.83711 0.34998 0.36304 0.0
C1070 C 0.7892 0.3549 0.39935 0.0
C1071 C 0.81052 0.33272 0.40298 0.0
H1072 H 0.63235 0.82522 0.34533 0.0
H1073 H 0.66342 0.77022 0.41093 0.0
H1074 H 0.70442 0.80434 0.41939 0.0
H1075 H 0.73411 0.84728 0.40594 0.0
H1076 H 0.70398 0.9038 0.34109 0.0
H1077 H 0.66018 0.87205 0.33466 0.0
C1078 C 0.64772 0.82123 0.36184 0.0
C1079 C 0.64478 0.79527 0.37759 0.0
C1080 C 0.67174 0.84103 0.36651 0.0
C1081 C 0.66515 0.7901 0.39865 0.0
C1082 C 0.68873 0.80952 0.40341 0.0
C1083 C 0.71786 0.85285 0.39051 0.0
C1084 C 0.72258 0.87778 0.37386 0.0
C1085 C 0.6927 0.83464 0.38708 0.0
C1086 C 0.70098 0.88478 0.35422 0.0
C1087 C 0.67594 0.86652 0.35048 0.0
H1088 H 0.82242 0.63799 0.88915 0.0
H1089 H 0.77132 0.67894 0.82523 0.0
H1090 H 0.80854 0.71762 0.82045 0.0
H1091 H 0.85256 0.74317 0.83744 0.0
H1092 H 0.90518 0.70336 0.90065 0.0
H1093 H 0.87085 0.66099 0.90248 0.0
C1094 C 0.81983 0.65499 0.8738 0.0
C1095 C 0.79379 0.65568 0.85786 0.0
C1096 C 0.84145 0.6777 0.87122 0.0
C1097 C 0.79084 0.678 0.83807 0.0
C1098 C 0.81213 0.70026 0.8353 0.0
C1099 C 0.85675 0.72503 0.8514 0.0
C1100 C 0.88119 0.7266 0.86908 0.0
C1101 C 0.837 0.70088 0.8523 0.0
C1102 C 0.88653 0.70271 0.88679 0.0
C1103 C 0.86678 0.67854 0.88794 0.0
H1104 H 0.37969 0.81865 0.83785 0.0
H1105 H 0.37342 0.79262 0.92159 0.0
H1106 H 0.3366 0.8317 0.92988 0.0
H1107 H 0.30205 0.86973 0.9122 0.0
H1108 H 0.30994 0.89856 0.82939 0.0
H1109 H 0.35026 0.86254 0.82186 0.0
C1110 C 0.37093 0.82223 0.85807 0.0
C1111 C 0.37962 0.80296 0.87921 0.0
C1112 C 0.34972 0.8451 0.86276 0.0
C1113 C 0.36756 0.80746 0.90515 0.0
C1114 C 0.34625 0.82966 0.90983 0.0
C1115 C 0.31309 0.86859 0.89267 0.0
C1116 C 0.30296 0.88685 0.87137 0.0
C1117 C 0.33657 0.84811 0.88866 0.0
C1118 C 0.31747 0.88504 0.84619 0.0
C1119 C 0.3404 0.86422 0.84184 0.0
H1120 H 0.13107 0.32339 0.88898 0.0
H1121 H 0.17144 0.27255 0.82439 0.0
H1122 H 0.2106 0.30938 0.82002 0.0
H1123 H 0.23664 0.35282 0.8373 0.0
H1124 H 0.19875 0.40461 0.90223 0.0
H1125 H 0.15545 0.37121 0.90343 0.0
C1126 C 0.14809 0.3208 0.87359 0.0
C1127 C 0.14831 0.29497 0.85715 0.0
C1128 C 0.17126 0.34214 0.8714 0.0
C1129 C 0.17076 0.29194 0.83747 0.0
C1130 C 0.19328 0.31302 0.83495 0.0
C1131 C 0.21872 0.35713 0.85152 0.0
C1132 C 0.22115 0.38112 0.86979 0.0
C1133 C 0.19427 0.33769 0.85227 0.0
C1134 C 0.19749 0.38645 0.88784 0.0
C1135 C 0.17281 0.36714 0.88865 0.0
H1136 H 0.66749 0.23291 0.9085 0.0
H1137 H 0.6235 0.21227 0.83327 0.0
H1138 H 0.65749 0.17007 0.82617 0.0
H1139 H 0.7031 0.14148 0.83984 0.0
H1140 H 0.74535 0.16283 0.91577 0.0
H1141 H 0.70885 0.20202 0.92412 0.0
C1142 C 0.66502 0.21897 0.89068 0.0
C1143 C 0.64298 0.22593 0.87139 0.0
C1144 C 0.68461 0.19485 0.88679 0.0
C1145 C 0.64007 0.20739 0.84855 0.0
C1146 C 0.65971 0.18335 0.8444 0.0
C1147 C 0.70385 0.15441 0.85839 0.0
C1148 C 0.72687 0.14921 0.87726 0.0
C1149 C 0.68253 0.17718 0.86313 0.0
C1150 C 0.72779 0.16631 0.90107 0.0
C1151 C 0.70697 0.18882 0.90581 0.0
H1152 H 0.79196 0.35895 0.67729 0.0
H1153 H 0.81386 0.40307 0.6026 0.0
H1154 H 0.85542 0.36834 0.59542 0.0
H1155 H 0.88155 0.32068 0.60781 0.0
H1156 H 0.85788 0.27785 0.68291 0.0
H1157 H 0.82171 0.31667 0.69253 0.0
C1158 C 0.80627 0.36147 0.65973 0.0
C1159 C 0.79967 0.38368 0.64054 0.0
C1160 C 0.82985 0.34123 0.65563 0.0
C1161 C 0.81851 0.38648 0.6179 0.0
C1162 C 0.84216 0.36633 0.61365 0.0
C1163 C 0.86906 0.32037 0.62659 0.0
C1164 C 0.87246 0.29608 0.64453 0.0
C1165 C 0.84756 0.34294 0.63199 0.0
C1166 C 0.85571 0.29601 0.66864 0.0
C1167 C 0.83485 0.31823 0.67417 0.0
H1168 H 0.73144 0.85229 0.67577 0.0
H1169 H 0.70168 0.90212 0.6065 0.0
H1170 H 0.65795 0.86969 0.6024 0.0
H1171 H 0.63121 0.8229 0.61567 0.0
H1172 H 0.66199 0.77488 0.68591 0.0
H1173 H 0.70152 0.81089 0.69268 0.0
C1174 C 0.71507 0.85644 0.66008 0.0
C1175 C 0.71997 0.87956 0.64142 0.0
C1176 C 0.69003 0.83776 0.65792 0.0
C1177 C 0.69842 0.88466 0.62128 0.0
C1178 C 0.67347 0.86591 0.61882 0.0
C1179 C 0.64605 0.82085 0.63287 0.0
C1180 C 0.64361 0.79589 0.65012 0.0
C1181 C 0.66937 0.84181 0.63662 0.0
C1182 C 0.66336 0.79359 0.67216 0.0
C1183 C 0.68616 0.81417 0.67604 0.0
H1184 H 0.13695 0.70308 0.61047 0.0
H1185 H 0.16439 0.74396 0.68553 0.0
H1186 H 0.20166 0.70543 0.69218 0.0
H1187 H 0.23109 0.66424 0.67405 0.0
H1188 H 0.20496 0.62183 0.59952 0.0
H1189 H 0.16268 0.65627 0.59541 0.0
C1190 C 0.15049 0.70296 0.62863 0.0
C1191 C 0.14791 0.72659 0.64741 0.0
C1192 C 0.17255 0.68065 0.63224 0.0
C1193 C 0.16596 0.72621 0.67069 0.0
C1194 C 0.18744 0.70422 0.67448 0.0
C1195 C 0.21578 0.66213 0.65717 0.0
C1196 C 0.22131 0.64061 0.63705 0.0
C1197 C 0.19168 0.68199 0.65496 0.0
C1198 C 0.20115 0.63807 0.61539 0.0
C1199 C 0.17707 0.65796 0.61294 0.0
H1200 H 0.38646 0.1996 0.60952 0.0
H1201 H 0.36562 0.23178 0.6897 0.0
H1202 H 0.32712 0.19421 0.69446 0.0
H1203 H 0.29415 0.15758 0.67339 0.0
H1204 H 0.31413 0.12374 0.59381 0.0
H1205 H 0.35803 0.1561 0.59125 0.0
C1206 C 0.37422 0.19761 0.62835 0.0
C1207 C 0.37889 0.21861 0.6492 0.0
C1208 C 0.35145 0.17598 0.63086 0.0
C1209 C 0.36246 0.21598 0.67334 0.0
C1210 C 0.34023 0.1946 0.67603 0.0
C1211 C 0.30858 0.15676 0.65578 0.0
C1212 C 0.30089 0.13842 0.63381 0.0
C1213 C 0.3337 0.17534 0.65454 0.0
C1214 C 0.31974 0.13752 0.61109 0.0
C1215 C 0.34472 0.15623 0.60956 0.0
H1216 H 0.2 0.02856 0.11614 0.0
H1217 H 0.12353 0.99075 0.15604 0.0
H1218 H 0.09796 0.03841 0.15408 0.0
H1219 H 0.09847 0.09208 0.14447 0.0
H1220 H 0.17517 0.13035 0.10536 0.0
H1221 H 0.19896 0.08167 0.10339 0.0
C1222 C 0.1776 0.03063 0.12405 0.0
C1223 C 0.16399 1.00597 0.13645 0.0
C1224 C 0.16292 0.05844 0.12319 0.0
C1225 C 0.13486 1.00929 0.14663 0.0
C1226 C 0.12009 0.03663 0.14553 0.0
C1227 C 0.12018 0.08974 0.13513 0.0
C1228 C 0.13496 0.11508 0.12528 0.0
C1229 C 0.13409 0.06157 0.13438 0.0
C1230 C 0.16321 0.1114 0.11333 0.0
C1231 C 0.17696 0.08348 0.11221 0.0
H1232 H 0.01142 0.1348 0.14688 0.0
H1233 H 0.98953 0.20751 0.09367 0.0
H1234 H 0.93771 0.19051 0.09186 0.0
H1235 H 0.8974 0.15716 0.10909 0.0
H1236 H 0.92112 0.0858 0.16341 0.0
H1237 H 0.97308 0.1001 0.161 0.0
C1238 C 0.99547 0.14686 0.13458 0.0
C1239 C 1.00451 0.17258 0.12059 0.0
C1240 C 0.96573 0.13729 0.13406 0.0
C1241 C 0.98338 0.1876 0.10461 0.0
C1242 C 0.95362 0.17798 0.10374 0.0
C1243 C 0.91402 0.14454 0.12008 0.0
C1244 C 0.90509 0.12057 0.13668 0.0
C1245 C 0.94432 0.15318 0.11891 0.0
C1246 C 0.92708 0.10454 0.15077 0.0
C1247 C 0.95694 0.11268 0.1494 0.0
H1248 H 0.91728 0.91173 0.14389 0.0
H1249 H 0.83835 0.8716 0.1107 0.0
H1250 H 0.81453 0.92061 0.10781 0.0
H1251 H 0.81476 0.97458 0.11882 0.0
H1252 H 0.89522 0.01381 0.15055 0.0
H1253 H 0.91966 0.9657 0.14967 0.0
C1254 C 0.89501 0.91378 0.13565 0.0
C1255 C 0.87954 0.88809 0.12772 0.0
C1256 C 0.88156 0.94194 0.134 0.0
C1257 C 0.8508 0.89107 0.11683 0.0
C1258 C 0.8371 0.91909 0.11537 0.0
C1259 C 0.83774 0.97267 0.12521 0.0
C1260 C 0.85281 0.99794 0.13514 0.0
C1261 C 0.85202 0.94466 0.12451 0.0
C1262 C 0.88277 0.99492 0.14305 0.0
C1263 C 0.89689 0.9673 0.14261 0.0
H1264 H 0.09271 0.9122 0.13245 0.0
H1265 H 0.13737 0.82951 0.11421 0.0
H1266 H 0.08969 0.80391 0.11228 0.0
H1267 H 0.03537 0.80387 0.11983 0.0
H1268 H 0.99097 0.88685 0.13768 0.0
H1269 H 0.03815 0.91309 0.13547 0.0
C1270 C 0.09205 0.88866 0.12766 0.0
C1271 C 0.11883 0.8729 0.12377 0.0
C1272 C 0.06443 0.87388 0.12673 0.0
C1273 C 0.11729 0.84237 0.11742 0.0
C1274 C 0.08993 0.82758 0.11641 0.0
C1275 C 0.03592 0.82775 0.12286 0.0
C1276 C 0.00946 0.84312 0.12925 0.0
C1277 C 0.06336 0.84293 0.12166 0.0
C1278 C 0.01082 0.87418 0.13297 0.0
C1279 C 0.0379 0.88933 0.13175 0.0
H1280 H 0.20428 0.98542 0.38876 0.0
H1281 H 0.12278 0.02764 0.36282 0.0
H1282 H 0.09832 0.97981 0.3604 0.0
H1283 H 0.10004 0.92525 0.3628 0.0
H1284 H 0.17938 0.88217 0.39196 0.0
H1285 H 0.20418 0.93045 0.39606 0.0
C1286 C 0.18108 0.98422 0.38295 0.0
C1287 C 0.16578 0.01056 0.37578 0.0
C1288 C 0.16654 0.95619 0.38195 0.0
C1289 C 0.13553 1.00815 0.36841 0.0
C1290 C 0.12132 0.98059 0.36689 0.0
C1291 C 0.12266 0.92644 0.37032 0.0
C1292 C 0.13777 0.89997 0.37692 0.0
C1293 C 0.13665 0.95439 0.37316 0.0
C1294 C 0.16706 0.9021 0.38685 0.0
C1295 C 0.18136 0.92978 0.38907 0.0
H1296 H 0.03405 0.21022 0.39319 0.0
H1297 H 0.99321 0.13445 0.35448 0.0
H1298 H 0.03947 0.10674 0.3575 0.0
H1299 H 0.09281 0.10592 0.36562 0.0
H1300 H 0.13538 0.18092 0.40364 0.0
H1301 H 0.08738 0.20668 0.40688 0.0
C1302 C 0.03522 0.18745 0.38598 0.0
C1303 C 0.01035 0.17463 0.37318 0.0
C1304 C 0.06232 0.17153 0.38741 0.0
C1305 C 0.01217 0.14506 0.36396 0.0
C1306 C 0.03863 0.12912 0.36567 0.0
C1307 C 0.09151 0.1277 0.37506 0.0
C1308 C 0.11762 0.14159 0.38408 0.0
C1309 C 0.06406 0.14245 0.37648 0.0
C1310 C 0.11556 0.16968 0.39656 0.0
C1311 C 0.08813 0.18454 0.39821 0.0
H1312 H 0.87926 0.01119 0.35994 0.0
H1313 H 0.79855 0.03486 0.40192 0.0
H1314 H 0.81489 0.08686 0.40424 0.0
H1315 H 0.8506 0.12635 0.39078 0.0
H1316 H 0.93181 0.10108 0.34993 0.0
H1317 H 0.91683 0.0492 0.3509 0.0
C1318 C 0.86538 0.02767 0.36991 0.0
C1319 C 0.83762 0.01917 0.38055 0.0
C1320 C 0.87493 0.0574 0.37118 0.0
C1321 C 0.82007 0.04074 0.39366 0.0
C1322 C 0.82933 0.07054 0.39481 0.0
C1323 C 0.86516 0.10947 0.38235 0.0
C1324 C 0.8922 0.11794 0.36999 0.0
C1325 C 0.85648 0.07927 0.3831 0.0
C1326 C 0.91084 0.09553 0.35944 0.0
C1327 C 0.90227 0.06571 0.35992 0.0
H1328 H 0.8979 0.85596 0.3909 0.0
H1329 H 0.92178 0.94207 0.35925 0.0
H1330 H 0.97416 0.92764 0.35898 0.0
H1331 H 0.01288 0.88891 0.36393 0.0
H1332 H 0.98822 0.80278 0.39516 0.0
H1333 H 0.9368 0.81904 0.39953 0.0
C1334 C 0.91454 0.87176 0.38422 0.0
C1335 C 0.90568 0.89998 0.37486 0.0
C1336 C 0.94466 0.86324 0.38386 0.0
C1337 C 0.92776 0.92014 0.36647 0.0
C1338 C 0.95781 0.91187 0.36622 0.0
C1339 C 0.99637 0.87384 0.37209 0.0
C1340 C 1.00454 0.84451 0.37892 0.0
C1341 C 0.96649 0.88323 0.37432 0.0
C1342 C 0.98269 0.82538 0.38948 0.0
C1343 C 0.95316 0.83463 0.39197 0.0
H1344 H 0.88622 0.01153 0.87854 0.0
H1345 H 0.79725 0.98195 0.89689 0.0
H1346 H 0.81535 0.93088 0.90167 0.0
H1347 H 0.85577 0.89361 0.89585 0.0
H1348 H 0.9436 0.92367 0.87447 0.0
H1349 H 0.92679 0.97533 0.87606 0.0
C1350 C 0.87073 0.99406 0.88393 0.0
C1351 C 0.84027 1.00079 0.88712 0.0
C1352 C 0.88118 0.96461 0.88609 0.0
C1353 C 0.82076 0.97761 0.89419 0.0
C1354 C 0.83111 0.94829 0.89688 0.0
C1355 C 0.87134 0.91157 0.89232 0.0
C1356 C 0.90101 0.90484 0.88534 0.0
C1357 C 0.86118 0.94136 0.89227 0.0
C1358 C 0.92076 0.9283 0.88009 0.0
C1359 C 0.91109 0.95785 0.88082 0.0
H1360 H 0.01388 0.88956 0.86923 0.0
H1361 H 0.04369 0.80059 0.88797 0.0
H1362 H 0.09474 0.81827 0.89161 0.0
H1363 H 0.13136 0.85787 0.88566 0.0
H1364 H 0.10204 0.94663 0.86564 0.0
H1365 H 0.05034 0.9301 0.86663 0.0
C1366 C 0.03146 0.87405 0.87441 0.0
C1367 C 0.02489 0.84367 0.87799 0.0
C1368 C 0.06092 0.88427 0.8761 0.0
C1369 C 0.04803 0.82402 0.88487 0.0
C1370 C 0.07729 0.8341 0.88693 0.0
C1371 C 0.1137 0.87375 0.88178 0.0
C1372 C 0.12069 0.90341 0.87527 0.0
C1373 C 0.08407 0.86402 0.88197 0.0
C1374 C 0.09739 0.92364 0.87053 0.0
C1375 C 0.06779 0.91418 0.87102 0.0
H1376 H 0.1597 0.13015 0.89895 0.0
H1377 H 0.08059 0.10029 0.8577 0.0
H1378 H 0.09942 0.04952 0.85733 0.0
H1379 H 0.1404 0.01454 0.86379 0.0
H1380 H 0.22005 0.04273 0.90484 0.0
H1381 H 0.19901 0.09284 0.91045 0.0
C1382 C 0.14628 0.11238 0.89056 0.0
C1383 C 0.11875 0.1192 0.87821 0.0
C1384 C 0.15757 0.08292 0.88997 0.0
C1385 C 0.10186 0.09583 0.86718 0.0
C1386 C 0.11268 0.06673 0.86684 0.0
C1387 C 0.15307 0.03154 0.87427 0.0
C1388 C 0.18192 0.02493 0.88359 0.0
C1389 C 0.14087 0.06018 0.87734 0.0
C1390 C 0.19781 0.04715 0.89746 0.0
C1391 C 0.1858 0.07589 0.90054 0.0
H1392 H 0.89049 0.17292 0.88866 0.0
H1393 H 0.92135 0.08262 0.88001 0.0
H1394 H 0.97281 0.09983 0.8783 0.0
H1395 H 1.00844 0.14054 0.87416 0.0
H1396 H 0.97804 0.23141 0.87993 0.0
H1397 H 0.92726 0.21407 0.888 0.0
C1398 C 0.9086 0.15704 0.88726 0.0
C1399 C 0.90219 0.12648 0.88482 0.0
C1400 C 0.93822 0.16724 0.88522 0.0
C1401 C 0.92579 0.10618 0.8822 0.0
C1402 C 0.95519 0.11604 0.881 0.0
C1403 C 0.99083 0.15667 0.87743 0.0
C1404 C 0.9972 0.18732 0.87611 0.0
C1405 C 0.9616 0.14655 0.88164 0.0
C1406 C 0.97393 0.20771 0.88066 0.0
C1407 C 0.94479 0.19779 0.88525 0.0
H1408 H 0.81512 0.03482 0.61705 0.0
H1409 H 0.89507 0.99491 0.64925 0.0
H1410 H 0.92086 0.04204 0.64577 0.0
H1411 H 0.9201 0.09557 0.63725 0.0
H1412 H 0.84167 0.13634 0.60357 0.0
H1413 H 0.81632 0.08812 0.60349 0.0
C1414 C 0.83824 0.03641 0.62307 0.0
C1415 C 0.85284 0.01122 0.63374 0.0
C1416 C 0.85338 0.06383 0.62074 0.0
C1417 C 0.88301 0.01374 0.64109 0.0
C1418 C 0.89792 0.0408 0.63916 0.0
C1419 C 0.89763 0.0938 0.62943 0.0
C1420 C 0.8828 0.11953 0.62054 0.0
C1421 C 0.88322 0.06609 0.62951 0.0
C1422 C 0.85372 0.11685 0.61034 0.0
C1423 C 0.8391 0.0893 0.61055 0.0
H1424 H 0.92413 0.91846 0.63415 0.0
H1425 H 0.88003 0.83688 0.61281 0.0
H1426 H 0.92827 0.81138 0.60944 0.0
H1427 H 0.98344 0.81153 0.61668 0.0
H1428 H 0.02613 0.89523 0.63505 0.0
H1429 H 0.97852 0.92024 0.63512 0.0
C1430 C 0.92512 0.89523 0.62822 0.0
C1431 C 0.89852 0.87965 0.62372 0.0
C1432 C 0.95291 0.88085 0.62603 0.0
C1433 C 0.90019 0.84952 0.61607 0.0
C1434 C 0.92782 0.83486 0.61438 0.0
C1435 C 0.98238 0.83529 0.62026 0.0
C1436 C 1.00875 0.85107 0.62632 0.0
C1437 C 0.95444 0.85014 0.61989 0.0
C1438 C 1.00658 0.88205 0.63066 0.0
C1439 C 0.97917 0.89661 0.63074 0.0
H1440 H 0.09969 0.92622 0.63837 0.0
H1441 H 0.17728 0.88549 0.60275 0.0
H1442 H 0.20137 0.93416 0.59962 0.0
H1443 H 0.20218 0.98769 0.61156 0.0
H1444 H 0.12345 0.02783 0.64612 0.0
H1445 H 0.09811 0.98017 0.64491 0.0
C1446 C 0.12168 0.92809 0.62948 0.0
C1447 C 0.13676 0.90231 0.62101 0.0
C1448 C 0.13537 0.95605 0.62783 0.0
C1449 C 0.16513 0.90504 0.6093 0.0
C1450 C 0.17902 0.93285 0.60774 0.0
C1451 C 0.17938 0.98606 0.61854 0.0
C1452 C 0.16501 0.01134 0.62931 0.0
C1453 C 0.16467 0.95842 0.61766 0.0
C1454 C 0.13526 1.00884 0.63789 0.0
C1455 C 0.12067 0.98151 0.63728 0.0
H1456 H 0.09642 0.10442 0.62767 0.0
H1457 H 0.1413 0.18688 0.6114 0.0
H1458 H 0.09327 0.21276 0.60827 0.0
H1459 H 0.03794 0.21244 0.61414 0.0
H1460 H 0.99444 0.12801 0.62703 0.0
H1461 H 0.04195 0.10281 0.62708 0.0
C1462 C 0.09563 0.12795 0.62291 0.0
C1463 C 0.12236 0.14366 0.61974 0.0
C1464 C 0.06796 0.14254 0.62073 0.0
C1465 C 0.12101 0.17417 0.61362 0.0
C1466 C 0.0935 0.18904 0.61204 0.0
C1467 C 0.03881 0.1885 0.61648 0.0
C1468 C 0.01224 0.17253 0.62109 0.0
C1469 C 0.0667 0.17357 0.6161 0.0
C1470 C 0.01417 0.14132 0.62385 0.0
C1471 C 0.04152 0.12665 0.62392 0.0
H1472 H 0.69879 0.53771 0.61377 0.0
H1473 H 0.61954 0.4937 0.64243 0.0
H1474 H 0.59278 0.54064 0.64235 0.0
H1475 H 0.59232 0.5951 0.63754 0.0
H1476 H 0.67002 0.63943 0.60646 0.0
H1477 H 0.69644 0.5919 0.6039 0.0
C1478 C 0.67557 0.5383 0.61966 0.0
C1479 C 0.66154 0.51189 0.62837 0.0
C1480 C 0.65985 0.56566 0.6193 0.0
C1481 C 0.63125 0.51337 0.6357 0.0
C1482 C 0.61578 0.54037 0.63578 0.0
C1483 C 0.6149 0.59433 0.62985 0.0
C1484 C 0.62909 0.62098 0.62235 0.0
C1485 C 0.62994 0.56678 0.62813 0.0
C1486 C 0.65836 0.61938 0.61227 0.0
C1487 C 0.67362 0.59213 0.61095 0.0
H1488 H 0.39067 0.6721 0.61135 0.0
H1489 H 0.41831 0.58512 0.638 0.0
H1490 H 0.47041 0.59913 0.6329 0.0
H1491 H 0.50786 0.63747 0.62616 0.0
H1492 H 0.4811 0.72617 0.60343 0.0
H1493 H 0.42919 0.71009 0.60125 0.0
C1494 C 0.40817 0.6561 0.6154 0.0
C1495 C 0.40073 0.62758 0.62496 0.0
C1496 C 0.43829 0.66472 0.61339 0.0
C1497 C 0.42356 0.60718 0.63063 0.0
C1498 C 0.45334 0.61521 0.62779 0.0
C1499 C 0.49085 0.65328 0.62022 0.0
C1500 C 0.49856 0.68311 0.61515 0.0
C1501 C 0.46098 0.64415 0.61997 0.0
C1502 C 0.47595 0.70311 0.60755 0.0
C1503 C 0.44617 0.69394 0.60642 0.0
H1504 H 0.31291 0.47956 0.62077 0.0
H1505 H 0.39376 0.52281 0.64685 0.0
H1506 H 0.4195 0.47549 0.64748 0.0
H1507 H 0.4188 0.42122 0.64401 0.0
H1508 H 0.33974 0.37709 0.61563 0.0
H1509 H 0.31397 0.42499 0.61231 0.0
C1510 C 0.33622 0.47867 0.62627 0.0
C1511 C 0.35101 0.50495 0.63413 0.0
C1512 C 0.35138 0.45106 0.62635 0.0
C1513 C 0.38144 0.50317 0.64094 0.0
C1514 C 0.39636 0.47599 0.64137 0.0
C1515 C 0.39603 0.42213 0.63681 0.0
C1516 C 0.3812 0.39561 0.63029 0.0
C1517 C 0.38146 0.44973 0.63466 0.0
C1518 C 0.35176 0.39719 0.6207 0.0
C1519 C 0.33693 0.4246 0.61895 0.0
H1520 H 0.59571 0.41595 0.63146 0.0
H1521 H 0.64214 0.33305 0.62013 0.0
H1522 H 0.59462 0.30678 0.61558 0.0
H1523 H 0.53938 0.30699 0.61928 0.0
H1524 H 0.49402 0.39131 0.62759 0.0
H1525 H 0.54127 0.41716 0.62835 0.0
C1526 C 0.59538 0.3922 0.62756 0.0
C1527 C 0.62234 0.37644 0.62632 0.0
C1528 C 0.56803 0.37737 0.62453 0.0
C1529 C 0.62165 0.3457 0.62104 0.0
C1530 C 0.59445 0.33065 0.6186 0.0
C1531 C 0.5398 0.33104 0.62069 0.0
C1532 C 0.5129 0.34692 0.6239 0.0
C1533 C 0.56739 0.34616 0.62089 0.0
C1534 C 0.51414 0.37822 0.62549 0.0
C1535 C 0.54127 0.39319 0.626 0.0
H1536 H 0.67756 0.39914 0.88831 0.0
H1537 H 0.58651 0.42587 0.8748 0.0
H1538 H 0.60047 0.47791 0.8798 0.0
H1539 H 0.63902 0.51603 0.88352 0.0
H1540 H 0.73048 0.48984 0.89541 0.0
H1541 H 0.7157 0.43761 0.89607 0.0
C1542 C 0.66068 0.4163 0.88682 0.0
C1543 C 0.63105 0.40845 0.88084 0.0
C1544 C 0.66893 0.44641 0.88935 0.0
C1545 C 0.60953 0.43113 0.87909 0.0
C1546 C 0.61749 0.46098 0.88196 0.0
C1547 C 0.65576 0.499 0.88671 0.0
C1548 C 0.68593 0.50705 0.88913 0.0
C1549 C 0.64722 0.46893 0.88643 0.0
C1550 C 0.70713 0.48447 0.89338 0.0
C1551 C 0.69871 0.4545 0.8936 0.0
H1552 H 0.53566 0.70454 0.89338 0.0
H1553 H 0.49464 0.62882 0.85461 0.0
H1554 H 0.5416 0.60218 0.85536 0.0
H1555 H 0.59526 0.60107 0.86403 0.0
H1556 H 0.63676 0.67533 0.90435 0.0
H1557 H 0.58898 0.7013 0.90629 0.0
C1558 C 0.53694 0.68213 0.88532 0.0
C1559 C 0.51144 0.66903 0.87371 0.0
C1560 C 0.56427 0.66647 0.88603 0.0
C1561 C 0.51367 0.63975 0.86362 0.0
C1562 C 0.54066 0.62436 0.86396 0.0
C1563 C 0.59381 0.62277 0.87359 0.0
C1564 C 0.61973 0.63618 0.88387 0.0
C1565 C 0.56621 0.63762 0.87471 0.0
C1566 C 0.61726 0.66429 0.89634 0.0
C1567 C 0.5899 0.67932 0.89729 0.0
H1568 H 0.41736 0.60081 0.86493 0.0
H1569 H 0.34116 0.64232 0.90207 0.0
H1570 H 0.31627 0.5939 0.90505 0.0
H1571 H 0.31482 0.53985 0.89354 0.0
H1572 H 0.39314 0.49933 0.85847 0.0
H1573 H 0.41828 0.54689 0.85847 0.0
C1574 C 0.39548 0.59918 0.87407 0.0
C1575 C 0.38112 0.62513 0.88316 0.0
C1576 C 0.38146 0.57132 0.87588 0.0
C1577 C 0.35283 0.62264 0.8951 0.0
C1578 C 0.33848 0.59496 0.89659 0.0
C1579 C 0.33748 0.54139 0.88619 0.0
C1580 C 0.35171 0.5158 0.87572 0.0
C1581 C 0.35234 0.56914 0.88652 0.0
C1582 C 0.3813 0.51838 0.86655 0.0
C1583 C 0.39585 0.54572 0.86645 0.0
H1584 H 0.4232 0.41733 0.85531 0.0
H1585 H 0.38522 0.35068 0.90739 0.0
H1586 H 0.43385 0.32613 0.9111 0.0
H1587 H 0.4871 0.32155 0.89636 0.0
H1588 H 0.52338 0.39016 0.84492 0.0
H1589 H 0.47598 0.41564 0.8444 0.0
C1590 C 0.42554 0.39759 0.86773 0.0
C1591 C 0.40042 0.38584 0.88085 0.0
C1592 C 0.4535 0.38363 0.86976 0.0
C1593 C 0.40412 0.36036 0.89708 0.0
C1594 C 0.43197 0.34617 0.89908 0.0
C1595 C 0.4847 0.34225 0.88536 0.0
C1596 C 0.50899 0.35342 0.87031 0.0
C1597 C 0.45685 0.35727 0.88507 0.0
C1598 C 0.50523 0.38049 0.85632 0.0
C1599 C 0.47799 0.39529 0.85599 0.0
H1600 H 0.37919 0.50341 0.35534 0.0
H1601 H 0.29934 0.47945 0.39839 0.0
H1602 H 0.31877 0.42903 0.40512 0.0
H1603 H 0.35744 0.39032 0.39581 0.0
H1604 H 0.4368 0.41581 0.35258 0.0
H1605 H 0.41877 0.46668 0.34928 0.0
C1606 C 0.36599 0.48727 0.36633 0.0
C1607 C 0.33762 0.49536 0.37606 0.0
C1608 C 0.37731 0.45832 0.37016 0.0
C1609 C 0.32118 0.47402 0.39057 0.0
C1610 C 0.3323 0.44506 0.39439 0.0
C1611 C 0.37101 0.40716 0.38618 0.0
C1612 C 0.39849 0.39899 0.37437 0.0
C1613 C 0.36023 0.43675 0.38395 0.0
C1614 C 0.41555 0.42122 0.36172 0.0
C1615 C 0.40521 0.45043 0.35973 0.0
H1616 H 0.6277 0.35823 0.39868 0.0
H1617 H 0.59631 0.44362 0.37125 0.0
H1618 H 0.54518 0.42537 0.37108 0.0
H1619 H 0.51043 0.3837 0.37325 0.0
H1620 H 0.54185 0.29708 0.39775 0.0
H1621 H 0.5917 0.31723 0.40472 0.0
C1622 C 0.60951 0.37302 0.39347 0.0
C1623 C 0.61568 0.40229 0.38515 0.0
C1624 C 0.58021 0.36198 0.39238 0.0
C1625 C 0.59203 0.42106 0.37783 0.0
C1626 C 0.56284 0.41056 0.37755 0.0
C1627 C 0.52803 0.36921 0.38044 0.0
C1628 C 0.52233 0.33877 0.3846 0.0
C1629 C 0.55679 0.3808 0.38389 0.0
C1630 C 0.54553 0.32053 0.39412 0.0
C1631 C 0.57412 0.33204 0.3981 0.0
H1632 H 0.66398 0.63158 0.38949 0.0
H1633 H 0.57667 0.60165 0.36614 0.0
H1634 H 0.59373 0.55004 0.36674 0.0
H1635 H 0.63425 0.514 0.36959 0.0
H1636 H 0.72284 0.54346 0.38961 0.0
H1637 H 0.70455 0.59449 0.39475 0.0
C1638 C 0.64859 0.61364 0.38522 0.0
C1639 C 0.619 0.62034 0.37805 0.0
C1640 C 0.65891 0.58396 0.38458 0.0
C1641 C 0.59946 0.59698 0.37187 0.0
C1642 C 0.60926 0.5675 0.37207 0.0
C1643 C 0.64963 0.53144 0.37534 0.0
C1644 C 0.68001 0.52475 0.37899 0.0
C1645 C 0.6391 0.56079 0.37769 0.0
C1646 C 0.69941 0.54785 0.38651 0.0
C1647 C 0.68894 0.5771 0.38944 0.0
H1648 H 0.38877 0.66833 0.38706 0.0
H1649 H 0.41995 0.57846 0.37477 0.0
H1650 H 0.47123 0.59613 0.37354 0.0
H1651 H 0.50698 0.63742 0.37221 0.0
H1652 H 0.47575 0.72743 0.38354 0.0
H1653 H 0.42497 0.70929 0.38904 0.0
C1654 C 0.40677 0.65248 0.38454 0.0
C1655 C 0.40028 0.62203 0.38087 0.0
C1656 C 0.43631 0.66286 0.3834 0.0
C1657 C 0.42408 0.60199 0.37756 0.0
C1658 C 0.4535 0.6121 0.37675 0.0
C1659 C 0.48916 0.65313 0.37613 0.0
C1660 C 0.49537 0.68388 0.37717 0.0
C1661 C 0.45984 0.64256 0.37903 0.0
C1662 C 0.47182 0.70371 0.38247 0.0
C1663 C 0.44267 0.69334 0.38558 0.0
H1664 H 0.30526 0.53621 0.12444 0.0
H1665 H 0.39087 0.49315 0.13123 0.0
H1666 H 0.41527 0.54108 0.13397 0.0
H1667 H 0.4126 0.59549 0.13817 0.0
H1668 H 0.32837 0.63967 0.12785 0.0
H1669 H 0.30344 0.59154 0.12278 0.0
C1670 C 0.32927 0.5373 0.12595 0.0
C1671 C 0.34593 0.51077 0.12804 0.0
C1672 C 0.34357 0.56533 0.12729 0.0
C1673 C 0.37717 0.51293 0.12992 0.0
C1674 C 0.39132 0.54047 0.13159 0.0
C1675 C 0.38883 0.59454 0.13458 0.0
C1676 C 0.37235 0.62108 0.13365 0.0
C1677 C 0.37475 0.56681 0.13099 0.0
C1678 C 0.34159 0.61953 0.12862 0.0
C1679 C 0.32729 0.59198 0.12579 0.0
H1680 H 0.39257 0.34231 0.11866 0.0
H1681 H 0.42023 0.42986 0.1438 0.0
H1682 H 0.4723 0.41477 0.14103 0.0
H1683 H 0.5097 0.37579 0.13565 0.0
H1684 H 0.48274 0.28687 0.11387 0.0
H1685 H 0.43095 0.30338 0.11089 0.0
C1686 C 0.41007 0.35817 0.12298 0.0
C1687 C 0.40255 0.38722 0.13136 0.0
C1688 C 0.44014 0.349 0.12222 0.0
C1689 C 0.42545 0.4074 0.13736 0.0
C1690 C 0.45524 0.39875 0.13583 0.0
C1691 C 0.49265 0.36 0.12986 0.0
C1692 C 0.50031 0.33003 0.12509 0.0
C1693 C 0.46283 0.36945 0.12893 0.0
C1694 C 0.47764 0.31004 0.11773 0.0
C1695 C 0.44793 0.31947 0.11609 0.0
H1696 H 0.70194 0.47426 0.11397 0.0
H1697 H 0.62062 0.51966 0.13599 0.0
H1698 H 0.59389 0.47311 0.13575 0.0
H1699 H 0.59363 0.41866 0.13318 0.0
H1700 H 0.67289 0.37244 0.10789 0.0
H1701 H 0.69985 0.41961 0.10527 0.0
C1702 C 0.67832 0.47402 0.11832 0.0
C1703 C 0.66375 0.50074 0.12546 0.0
C1704 C 0.66246 0.44679 0.11772 0.0
C1705 C 0.63289 0.49973 0.13073 0.0
C1706 C 0.61734 0.47294 0.13065 0.0
C1707 C 0.61666 0.41899 0.12664 0.0
C1708 C 0.63116 0.39205 0.12082 0.0
C1709 C 0.63195 0.44625 0.12479 0.0
C1710 C 0.66104 0.39288 0.11227 0.0
C1711 C 0.67659 0.41989 0.11097 0.0
H1712 H 0.53262 0.70088 0.11552 0.0
H1713 H 0.48854 0.62164 0.14411 0.0
H1714 H 0.53572 0.59555 0.14599 0.0
H1715 H 0.59024 0.59569 0.14284 0.0
H1716 H 0.63485 0.67304 0.11151 0.0
H1717 H 0.58717 0.69898 0.10727 0.0
C1718 C 0.53327 0.6778 0.12178 0.0
C1719 C 0.50678 0.66361 0.12997 0.0
C1720 C 0.56079 0.66244 0.12257 0.0
C1721 C 0.50831 0.63349 0.13783 0.0
C1722 C 0.53543 0.6184 0.13903 0.0
C1723 C 0.58948 0.61812 0.13482 0.0
C1724 C 0.61614 0.63241 0.1277 0.0
C1725 C 0.5619 0.63277 0.132 0.0
C1726 C 0.61469 0.66141 0.11707 0.0
C1727 C 0.58738 0.67635 0.11476 0.0
H1728 H 0.06698 0.23999 0.23241 0.0
H1729 H 0.99577 0.23645 0.17406 0.0
H1730 H 0.95908 0.24086 0.21037 0.0
H1731 H 0.94719 0.2402 0.25925 0.0
H1732 H 0.01848 0.24715 0.31735 0.0
H1733 H 0.05496 0.24748 0.28079 0.0
C1734 C 0.04344 0.24082 0.22769 0.0
C1735 C 0.03409 0.23778 0.20066 0.0
C1736 C 0.0224 0.24384 0.24867 0.0
C1737 C 1.00353 0.239 0.19472 0.0
C1738 C 0.9825 0.2413 0.21549 0.0
C1739 C 0.97067 0.24247 0.26381 0.0
C1740 C 0.98006 0.24349 0.29098 0.0
C1741 C 0.99165 0.24297 0.24261 0.0
C1742 C 0.01057 0.24656 0.29662 0.0
C1743 C 0.03154 0.24648 0.27571 0.0
H1744 H 0.77426 0.94498 0.27063 0.0
H1745 H 0.76312 0.01953 0.3248 0.0
H1746 H 0.75667 0.05283 0.28619 0.0
H1747 H 0.76387 0.06178 0.23721 0.0
H1748 H 0.77518 0.98729 0.18327 0.0
H1749 H 0.77122 0.95282 0.22137 0.0
C1750 C 0.76957 0.96838 0.27394 0.0
C1751 C 0.76957 0.97985 0.30046 0.0
C1752 C 0.76605 0.98743 0.25162 0.0
C1753 C 0.76321 0.01015 0.30456 0.0
C1754 C 0.75975 0.02927 0.28247 0.0
C1755 C 0.76403 0.03794 0.23379 0.0
C1756 C 0.76937 0.02691 0.20761 0.0
C1757 C 0.7624 0.01835 0.25592 0.0
C1758 C 0.77043 0.99608 0.20327 0.0
C1759 C 0.7686 0.97644 0.2251 0.0
H1760 H 0.94953 0.77741 0.23803 0.0
H1761 H 0.01968 0.75103 0.18372 0.0
H1762 H 0.05437 0.7472 0.222 0.0
H1763 H 0.06628 0.75959 0.27011 0.0
H1764 H 0.99537 0.78639 0.32359 0.0
H1765 H 0.95937 0.78133 0.28684 0.0
C1766 C 0.97213 0.76968 0.23478 0.0
C1767 C 0.98198 0.76412 0.20821 0.0
C1768 C 0.99192 0.76797 0.25682 0.0
C1769 C 0.01146 0.75478 0.20408 0.0
C1770 C 0.03137 0.75299 0.22596 0.0
C1771 C 0.04278 0.76316 0.27385 0.0
C1772 C 0.03336 0.773 0.29959 0.0
C1773 C 0.02213 0.76062 0.25233 0.0
C1774 C 1.00299 0.77836 0.30405 0.0
C1775 C 0.98244 0.77572 0.28297 0.0
H1776 H 0.21581 1.00088 0.31444 0.0
H1777 H 0.26022 0.07412 0.27581 0.0
H1778 H 0.26509 0.0449 0.23388 0.0
H1779 H 0.24997 1.00105 0.20671 0.0
H1780 H 0.20452 0.92852 0.24622 0.0
H1781 H 0.20719 0.95468 0.28934 0.0
C1782 C 0.22739 0.01001 0.29704 0.0
C1783 C 0.23786 0.03937 0.29805 0.0
C1784 C 0.22947 0.99335 0.27306 0.0
C1785 C 0.25246 0.05133 0.27547 0.0
C1786 C 0.2549 0.03474 0.25146 0.0
C1787 C 0.2412 0.9907 0.22484 0.0
C1788 C 0.22653 0.96307 0.22301 0.0
C1789 C 0.2425 1.00608 0.24974 0.0
C1790 C 0.21547 0.94995 0.24683 0.0
C1791 C 0.21698 0.96489 0.27158 0.0
H1792 H 0.02639 0.77781 0.80699 0.0
H1793 H 0.93806 0.77219 0.774 0.0
H1794 H 0.95851 0.76838 0.72806 0.0
H1795 H 1.00153 0.77473 0.69697 0.0
H1796 H 0.08972 0.78081 0.73033 0.0
H1797 H 0.06971 0.77586 0.77621 0.0
C1798 C 0.01175 0.77448 0.78978 0.0
C1799 C 0.98079 0.77471 0.79386 0.0
C1800 C 0.02376 0.77277 0.76339 0.0
C1801 C 0.96196 0.77138 0.77138 0.0
C1802 C 0.97368 0.76955 0.74507 0.0
C1803 C 0.01635 0.77377 0.71428 0.0
C1804 C 0.04712 0.77764 0.71032 0.0
C1805 C 1.00453 0.7713 0.74074 0.0
C1806 C 0.06606 0.7773 0.73291 0.0
C1807 C 0.05457 0.77474 0.75916 0.0
H1808 H 0.24533 0.07546 0.73659 0.0
H1809 H 0.23971 1.00077 0.6821 0.0
H1810 H 0.24587 0.96637 0.72006 0.0
H1811 H 0.24603 0.95762 0.76926 0.0
H1812 H 0.25263 0.03196 0.82416 0.0
H1813 H 0.25373 0.06635 0.78574 0.0
C1814 C 0.24643 0.05167 0.73306 0.0
C1815 C 0.2424 0.04055 0.70663 0.0
C1816 C 0.24996 0.03198 0.75511 0.0
C1817 C 0.24325 0.00973 0.70224 0.0
C1818 C 0.24654 0.99008 0.72397 0.0
C1819 C 0.2486 0.98131 0.77277 0.0
C1820 C 0.2492 0.99219 0.79956 0.0
C1821 C 0.249 1.00093 0.75057 0.0
C1822 C 0.25247 0.02294 0.80379 0.0
C1823 C 0.25273 0.04266 0.78179 0.0
H1824 H 0.02012 0.24841 0.69101 0.0
H1825 H 0.93234 0.24518 0.72564 0.0
H1826 H 0.95314 0.2513 0.77113 0.0
H1827 H 0.99689 0.24938 0.80127 0.0
H1828 H 0.0848 0.25233 0.76701 0.0
H1829 H 0.06371 0.25515 0.72127 0.0
C1830 C 1.0056 0.25022 0.70849 0.0
C1831 C 0.97474 0.24676 0.70509 0.0
C1832 C 0.01786 0.25343 0.73467 0.0
C1833 C 0.9561 0.2483 0.72785 0.0
C1834 C 0.96803 0.25154 0.75386 0.0
C1835 C 0.01131 0.25193 0.7838 0.0
C1836 C 0.04231 0.25116 0.78741 0.0
C1837 C 0.99894 0.25307 0.75759 0.0
C1838 C 0.06088 0.25354 0.76467 0.0
C1839 C 0.04879 0.25479 0.73852 0.0
H1840 H 0.75892 0.01088 0.70735 0.0
H1841 H 0.80225 0.93285 0.73904 0.0
H1842 H 0.79882 0.95271 0.78488 0.0
H1843 H 0.79121 0.99539 0.81486 0.0
H1844 H 0.75029 0.07508 0.78433 0.0
H1845 H 0.74455 0.05167 0.73954 0.0
C1846 C 0.76659 0.9979 0.72446 0.0
C1847 C 0.78051 0.97018 0.71984 0.0
C1848 C 0.76534 0.01003 0.75101 0.0
C1849 C 0.79111 0.95396 0.74212 0.0
C1850 C 0.78938 0.96544 0.76835 0.0
C1851 C 0.78003 1.00722 0.79863 0.0
C1852 C 0.77084 0.03676 0.80296 0.0
C1853 C 0.77759 0.99387 0.77292 0.0
C1854 C 0.75695 0.0521 0.78166 0.0
C1855 C 0.75407 0.0388 0.75593 0.0
H1856 H 0.44532 0.73175 0.769 0.0
H1857 H 0.51558 0.76712 0.81855 0.0
H1858 H 0.54695 0.77353 0.77816 0.0
H1859 H 0.55671 0.76188 0.72922 0.0
H1860 H 0.48532 0.72659 0.68071 0.0
H1861 H 0.45205 0.72796 0.71973 0.0
C1862 C 0.46715 0.74179 0.77081 0.0
C1863 C 0.47799 0.74919 0.79672 0.0
C1864 C 0.48502 0.74523 0.74752 0.0
C1865 C 0.5065 0.76175 0.79882 0.0
C1866 C 0.52456 0.7651 0.77569 0.0
C1867 C 0.53356 0.75566 0.72703 0.0
C1868 C 0.52344 0.74445 0.70191 0.0
C1869 C 0.51443 0.75603 0.74996 0.0
C1870 C 0.49356 0.73563 0.69965 0.0
C1871 C 0.47456 0.73615 0.72206 0.0
H1872 H 0.27164 0.49876 0.69927 0.0
H1873 H 0.27135 0.58714 0.73279 0.0
H1874 H 0.26727 0.56683 0.77863 0.0
H1875 H 0.27256 0.5236 0.80936 0.0
H1876 H 0.2739 0.43533 0.77572 0.0
H1877 H 0.26833 0.4555 0.73 0.0
C1878 C 0.2693 0.51349 0.71657 0.0
C1879 C 0.27116 0.54441 0.71268 0.0
C1880 C 0.26764 0.50154 0.74296 0.0
C1881 C 0.26924 0.56331 0.7353 0.0
C1882 C 0.26729 0.55166 0.76154 0.0
C1883 C 0.2704 0.50884 0.79206 0.0
C1884 C 0.27317 0.47796 0.79586 0.0
C1885 C 0.26766 0.52078 0.76571 0.0
C1886 C 0.27128 0.45907 0.77326 0.0
C1887 C 0.26836 0.47067 0.74709 0.0
H1888 H 0.51353 0.26783 0.80394 0.0
H1889 H 0.59536 0.2959 0.76612 0.0
H1890 H 0.57306 0.29132 0.72172 0.0
H1891 H 0.52832 0.28743 0.69379 0.0
H1892 H 0.44616 0.25859 0.72959 0.0
H1893 H 0.47028 0.25518 0.77418 0.0
C1894 C 0.52669 0.27207 0.78595 0.0
C1895 C 0.55612 0.28257 0.78867 0.0
C1896 C 0.51346 0.26971 0.75994 0.0
C1897 C 0.5727 0.28802 0.76494 0.0
C1898 C 0.5599 0.28555 0.73935 0.0
C1899 C 0.51603 0.27934 0.71121 0.0
C1900 C 0.48562 0.27316 0.70849 0.0
C1901 C 0.53003 0.27758 0.73664 0.0
C1902 C 0.46972 0.26319 0.73122 0.0
C1903 C 0.48348 0.2615 0.75675 0.0
H1904 H 0.76305 0.51453 0.70519 0.0
H1905 H 0.70415 0.44528 0.73265 0.0
H1906 H 0.70733 0.46322 0.77857 0.0
H1907 H 0.71984 0.50241 0.81005 0.0
H1908 H 0.77408 0.57591 0.78456 0.0
H1909 H 0.77988 0.55293 0.73944 0.0
C1910 C 0.75177 0.50294 0.72144 0.0
C1911 C 0.7342 0.47771 0.71536 0.0
C1912 C 0.7523 0.51466 0.7483 0.0
C1913 C 0.71881 0.46377 0.73662 0.0
C1914 C 0.72018 0.47438 0.76304 0.0
C1915 C 0.73357 0.51311 0.79483 0.0
C1916 C 0.74652 0.54077 0.80069 0.0
C1917 C 0.73595 0.50029 0.76896 0.0
C1918 C 0.76417 0.55438 0.78072 0.0
C1919 C 0.76716 0.54136 0.75478 0.0
H1920 H 0.4546 0.27141 0.27396 0.0
H1921 H 0.5292 0.25241 0.32557 0.0
H1922 H 0.56158 0.24733 0.28577 0.0
H1923 H 0.56996 0.25709 0.23665 0.0
H1924 H 0.4949 0.27815 0.18598 0.0
H1925 H 0.46133 0.27318 0.22464 0.0
C1926 C 0.47764 0.26482 0.27634 0.0
C1927 C 0.48938 0.26163 0.30255 0.0
C1928 C 0.49616 0.26282 0.25341 0.0
C1929 C 0.51952 0.25413 0.30553 0.0
C1930 C 0.53811 0.25169 0.28276 0.0
C1931 C 0.54613 0.25945 0.23401 0.0
C1932 C 0.53479 0.26764 0.2085 0.0
C1933 C 0.52693 0.25718 0.25663 0.0
C1934 C 0.50399 0.27147 0.20538 0.0
C1935 C 0.48483 0.26884 0.22753 0.0
H1936 H 0.7315 0.48881 0.19835 0.0
H1937 H 0.75484 0.57701 0.22458 0.0
H1938 H 0.76417 0.5587 0.27059 0.0
H1939 H 0.75746 0.51856 0.30456 0.0
H1940 H 0.73906 0.42971 0.27719 0.0
H1941 H 0.73697 0.44675 0.2302 0.0
C1942 C 0.73945 0.50375 0.21403 0.0
C1943 C 0.74176 0.53426 0.20856 0.0
C1944 C 0.74571 0.49285 0.24012 0.0
C1945 C 0.75235 0.55352 0.22873 0.0
C1946 C 0.75776 0.54303 0.25495 0.0
C1947 C 0.75451 0.50279 0.28813 0.0
C1948 C 0.74836 0.4729 0.29412 0.0
C1949 C 0.75345 0.51289 0.26112 0.0
C1950 C 0.7439 0.45273 0.27283 0.0
C1951 C 0.74242 0.46256 0.24603 0.0
H1952 H 0.52157 0.73368 0.19672 0.0
H1953 H 0.43565 0.76191 0.22526 0.0
H1954 H 0.45648 0.77239 0.27025 0.0
H1955 H 0.49798 0.76535 0.30313 0.0
H1956 H 0.58367 0.73876 0.27325 0.0
H1957 H 0.56485 0.73702 0.22709 0.0
C1958 C 0.5077 0.74306 0.21259 0.0
C1959 C 0.47714 0.7467 0.20798 0.0
C1960 C 0.51997 0.74951 0.23817 0.0
C1961 C 0.45924 0.75874 0.22858 0.0
C1962 C 0.47116 0.7647 0.25428 0.0
C1963 C 0.51279 0.76075 0.28628 0.0
C1964 C 0.54258 0.75295 0.2915 0.0
C1965 C 0.50135 0.75914 0.25962 0.0
C1966 C 0.56117 0.74588 0.2696 0.0
C1967 C 0.55015 0.74429 0.24322 0.0
H1968 H 0.28236 0.52068 0.19303 0.0
H1969 H 0.25416 0.43763 0.22749 0.0
H1970 H 0.24867 0.46139 0.27208 0.0
H1971 H 0.26088 0.50395 0.30242 0.0
H1972 H 0.29135 0.58596 0.26676 0.0
H1973 H 0.28631 0.56488 0.22165 0.0
C1974 C 0.27381 0.50817 0.21012 0.0
C1975 C 0.26831 0.47768 0.2071 0.0
C1976 C 0.2716 0.52178 0.23565 0.0
C1977 C 0.25792 0.46134 0.22937 0.0
C1978 C 0.25521 0.47485 0.25491 0.0
C1979 C 0.26551 0.51742 0.28472 0.0
C1980 C 0.27682 0.5464 0.28802 0.0
C1981 C 0.26327 0.5048 0.25855 0.0
C1982 C 0.28288 0.56353 0.26485 0.0
C1983 C 0.2801 0.55147 0.23897 0.0
H1984 H 0.13037 0.20542 0.95188 0.0
H1985 H 0.05114 0.25953 0.94764 0.0
H1986 H 0.04754 0.25953 0.99708 0.0
H1987 H 0.06691 0.24393 0.04143 0.0
H1988 H 0.14535 0.18845 0.04494 0.0
H1989 H 0.14908 0.18917 0.99577 0.0
C1990 C 0.11242 0.21742 0.96174 0.0
C1991 C 0.09121 0.23264 0.94615 0.0
C1992 C 0.11023 0.21696 0.99002 0.0
C1993 C 0.0678 0.24766 0.95923 0.0
C1994 C 0.06572 0.24767 0.98747 0.0
C1995 C 0.08482 0.23201 0.03143 0.0
C1996 C 0.10585 0.21628 0.04689 0.0
C1997 C 0.08679 0.23233 1.00306 0.0
C1998 C 0.12881 0.20075 0.03359 0.0
C1999 C 0.13104 0.20118 0.00545 0.0
H2000 H 0.79679 0.13506 0.05069 0.0
H2001 H 0.80987 0.04015 0.05694 0.0
H2002 H 0.80757 0.03529 0.00795 0.0
H2003 H 0.80124 0.05757 0.96308 0.0
H2004 H 0.78864 0.15243 0.95638 0.0
H2005 H 0.79119 0.15754 0.0055 0.0
C2006 C 0.79936 0.11337 0.04131 0.0
C2007 C 0.80336 0.08808 0.05758 0.0
C2008 C 0.79786 0.11058 0.01294 0.0
C2009 C 0.80655 0.06008 0.04502 0.0
C2010 C 0.80522 0.05719 0.01692 0.0
C2011 C 0.79885 0.07932 0.97238 0.0
C2012 C 0.79465 0.10448 0.95603 0.0
C2013 C 0.80063 0.08222 1.00068 0.0
C2014 C 0.79193 0.1326 0.96844 0.0
C2015 C 0.79342 0.13561 0.99657 0.0
H2016 H 0.88652 0.79526 0.96043 0.0
H2017 H 0.9822 0.79071 0.95451 0.0
H2018 H 0.98596 0.78721 1.00374 0.0
H2019 H 0.96214 0.78568 0.0487 0.0
H2020 H 0.86638 0.78983 0.05422 0.0
H2021 H 0.86278 0.79317 0.0051 0.0
C2022 C 0.90824 0.79353 0.96985 0.0
C2023 C 0.93401 0.79328 0.95363 0.0
C2024 C 0.91029 0.7914 0.99822 0.0
C2025 C 0.96192 0.7909 0.96636 0.0
C2026 C 0.96413 0.78892 0.99458 0.0
C2027 C 0.94047 0.78724 0.03918 0.0
C2028 C 0.9146 0.78745 0.05532 0.0
C2029 C 0.93846 0.78915 0.01075 0.0
C2030 C 0.88673 0.78952 0.04247 0.0
C2031 C 0.88459 0.79149 0.0143 0.0
H2032 H 0.256 0.95057 0.96503 0.0
H2033 H 0.17793 0.89642 0.95211 0.0
H2034 H 0.17147 0.89083 1.00045 0.0
H2035 H 0.1881 0.89966 0.04665 0.0
H2036 H 0.26522 0.95426 0.06118 0.0
H2037 H 0.27164 0.96131 0.01239 0.0
C2038 C 0.23754 0.93769 0.97282 0.0
C2039 C 0.21779 0.92373 0.95467 0.0
C2040 C 0.23368 0.93447 1.0011 0.0
C2041 C 0.19383 0.90724 0.96531 0.0
C2042 C 0.18997 0.90397 0.99311 0.0
C2043 C 0.20634 0.91312 0.03921 0.0
C2044 C 0.22622 0.92616 0.05764 0.0
C2045 C 0.20986 0.91719 0.01119 0.0
C2046 C 0.24953 0.94385 0.04751 0.0
C2047 C 0.25327 0.94788 0.01955 0.0
H2048 H 0.06306 0.79659 0.54514 0.0
H2049 H 0.15835 0.792 0.55451 0.0
H2050 H 0.16471 0.7922 0.50553 0.0
H2051 H 0.14338 0.79391 0.45935 0.0
H2052 H 0.04797 0.79874 0.45046 0.0
H2053 H 0.04184 0.79827 0.49929 0.0
C2054 C 0.08521 0.79548 0.5365 0.0
C2055 C 0.11007 0.79421 0.55374 0.0
C2056 C 0.08886 0.79575 0.50809 0.0
C2057 C 0.13864 0.79298 0.54195 0.0
C2058 C 0.1424 0.79313 0.51379 0.0
C2059 C 0.12128 0.79495 0.46809 0.0
C2060 C 0.0963 0.79626 0.45094 0.0
C2061 C 0.11769 0.79461 0.49657 0.0
C2062 C 0.06778 0.79752 0.46288 0.0
C2063 C 0.06413 0.79728 0.49097 0.0
H2064 H 0.22378 0.06277 0.45689 0.0
H2065 H 0.22822 0.15837 0.44957 0.0
H2066 H 0.22912 0.16341 0.49862 0.0
H2067 H 0.22768 0.14102 0.54368 0.0
H2068 H 0.22297 0.04549 0.55132 0.0
H2069 H 0.22318 0.04025 0.50218 0.0
C2070 C 0.22511 0.08469 0.46602 0.0
C2071 C 0.22591 0.11008 0.4495 0.0
C2072 C 0.22548 0.08754 0.49436 0.0
C2073 C 0.22753 0.13836 0.46172 0.0
C2074 C 0.22803 0.14133 0.48983 0.0
C2075 C 0.22675 0.11904 0.53464 0.0
C2076 C 0.22531 0.09375 0.55123 0.0
C2077 C 0.22684 0.11611 0.50634 0.0
C2078 C 0.22414 0.06541 0.53909 0.0
C2079 C 0.22424 0.06234 0.51094 0.0
H2080 H 0.95516 0.23785 0.54159 0.0
H2081 H 0.86559 0.20548 0.55209 0.0
H2082 H 0.86026 0.19966 0.50331 0.0
H2083 H 0.88043 0.20478 0.45731 0.0
H2084 H 0.96897 0.23941 0.44645 0.0
H2085 H 0.97535 0.24303 0.49549 0.0
C2086 C 0.9345 0.22954 0.53319 0.0
C2087 C 0.91081 0.22233 0.55053 0.0
C2088 C 0.93138 0.22651 0.50496 0.0
C2089 C 0.88414 0.21155 0.53926 0.0
C2090 C 0.88106 0.20805 0.51132 0.0
C2091 C 0.90119 0.21282 0.46572 0.0
C2092 C 0.92418 0.22177 0.44833 0.0
C2093 C 0.90447 0.21555 0.49394 0.0
C2094 C 0.95087 0.23251 0.45948 0.0
C2095 C 0.95455 0.23461 0.48751 0.0
H2096 H 0.77854 0.95625 0.46366 0.0
H2097 H 0.82581 0.87298 0.45615 0.0
H2098 H 0.82599 0.86729 0.50513 0.0
H2099 H 0.81329 0.88586 0.55031 0.0
H2100 H 0.76856 0.9703 0.55868 0.0
H2101 H 0.7668 0.97555 0.5094 0.0
C2102 C 0.78881 0.93687 0.47279 0.0
C2103 C 0.80209 0.91512 0.45619 0.0
C2104 C 0.7893 0.93387 0.50119 0.0
C2105 C 0.81555 0.89022 0.46837 0.0
C2106 C 0.81561 0.88684 0.49644 0.0
C2107 C 0.80298 0.90532 0.54135 0.0
C2108 C 0.79091 0.92752 0.55814 0.0
C2109 C 0.8026 0.9085 0.51305 0.0
C2110 C 0.77804 0.95285 0.5462 0.0
C2111 C 0.777 0.95588 0.51801 0.0
H2112 H 0.63527 0.72488 0.45891 0.0
H2113 H 0.54023 0.73641 0.45171 0.0
H2114 H 0.53567 0.73932 0.50075 0.0
H2115 H 0.55816 0.73797 0.5459 0.0
H2116 H 0.65302 0.72606 0.55375 0.0
H2117 H 0.65798 0.72411 0.50449 0.0
C2118 C 0.61355 0.72799 0.46804 0.0
C2119 C 0.58817 0.73038 0.4514 0.0
C2120 C 0.61097 0.7297 0.49651 0.0
C2121 C 0.56024 0.73452 0.46379 0.0
C2122 C 0.55754 0.73621 0.49195 0.0
C2123 C 0.57999 0.73515 0.53691 0.0
C2124 C 0.60515 0.73225 0.55371 0.0
C2125 C 0.58271 0.7338 0.50852 0.0
C2126 C 0.6332 0.72842 0.54148 0.0
C2127 C 0.63609 0.72723 0.51323 0.0
H2128 H 0.31911 0.62337 0.46157 0.0
H2129 H 0.26459 0.54526 0.45175 0.0
H2130 H 0.262 0.53948 0.50107 0.0
H2131 H 0.27437 0.5577 0.54736 0.0
H2132 H 0.32695 0.63737 0.55572 0.0
H2133 H 0.33129 0.64125 0.50673 0.0
C2134 C 0.30672 0.60496 0.47011 0.0
C2135 C 0.29205 0.58481 0.45289 0.0
C2136 C 0.30497 0.60204 0.49836 0.0
C2137 C 0.27599 0.56122 0.46449 0.0
C2138 C 0.27455 0.55786 0.49272 0.0
C2139 C 0.2869 0.57573 0.53837 0.0
C2140 C 0.30022 0.59726 0.55518 0.0
C2141 C 0.28883 0.57826 0.50991 0.0
C2142 C 0.31624 0.62066 0.54326 0.0
C2143 C 0.3188 0.6229 0.51522 0.0
H2144 H 0.4585 0.29265 0.54996 0.0
H2145 H 0.36296 0.29055 0.55767 0.0
H2146 H 0.35793 0.29196 0.50831 0.0
H2147 H 0.38096 0.29331 0.46254 0.0
H2148 H 0.47677 0.29557 0.45629 0.0
H2149 H 0.48115 0.2947 0.50523 0.0
C2150 C 0.43651 0.29239 0.54095 0.0
C2151 C 0.4112 0.29132 0.55765 0.0
C2152 C 0.43375 0.29333 0.51262 0.0
C2153 C 0.38292 0.29127 0.5454 0.0
C2154 C 0.37999 0.29212 0.51712 0.0
C2155 C 0.40275 0.29377 0.47191 0.0
C2156 C 0.42843 0.29433 0.45553 0.0
C2157 C 0.40529 0.29314 0.50045 0.0
C2158 C 0.45652 0.29487 0.46817 0.0
C2159 C 0.45914 0.2944 0.49628 0.0
H2160 H 0.72796 0.4639 0.54957 0.0
H2161 H 0.72192 0.36844 0.55696 0.0
H2162 H 0.72138 0.36339 0.50786 0.0
H2163 H 0.72217 0.38578 0.46251 0.0
H2164 H 0.72866 0.48115 0.45485 0.0
H2165 H 0.72949 0.48631 0.50404 0.0
C2166 C 0.7266 0.44198 0.54048 0.0
C2167 C 0.72501 0.41665 0.55718 0.0
C2168 C 0.72634 0.43911 0.51201 0.0
C2169 C 0.72325 0.38843 0.54482 0.0
C2170 C 0.72289 0.38545 0.51663 0.0
C2171 C 0.72377 0.40772 0.47155 0.0
C2172 C 0.72534 0.43299 0.45481 0.0
C2173 C 0.72434 0.41061 0.49999 0.0
C2174 C 0.7275 0.46122 0.46708 0.0
C2175 C 0.72794 0.46424 0.4953 0.0
H2176 H 0.62944 0.31456 0.04904 0.0
H2177 H 0.56155 0.24727 0.05315 0.0
H2178 H 0.55593 0.24861 1.00379 0.0
H2179 H 0.57008 0.26965 0.95902 0.0
H2180 H 0.63588 0.33954 0.9567 0.0
H2181 H 0.64212 0.33653 0.00528 0.0
C2182 C 0.61369 0.29992 0.03909 0.0
C2183 C 0.59627 0.28058 0.05474 0.0
C2184 C 0.60988 0.30149 0.01082 0.0
C2185 C 0.57541 0.26227 0.04156 0.0
C2186 C 0.57209 0.2631 0.01331 0.0
C2187 C 0.58562 0.28432 0.96916 0.0
C2188 C 0.6025 0.30463 0.95381 0.0
C2189 C 0.58907 0.28281 0.99764 0.0
C2190 C 0.62251 0.32352 0.96759 0.0
C2191 C 0.62627 0.32183 0.99557 0.0
H2192 H 0.73286 0.56712 0.95954 0.0
H2193 H 0.72601 0.66257 0.95362 0.0
H2194 H 0.72261 0.66639 1.00302 0.0
H2195 H 0.72069 0.64218 0.04832 0.0
H2196 H 0.72651 0.5463 0.05236 0.0
H2197 H 0.73106 0.54339 1.00364 0.0
C2198 C 0.73087 0.58884 0.96896 0.0
C2199 C 0.72986 0.61447 0.95275 0.0
C2200 C 0.72854 0.59088 0.99728 0.0
C2201 C 0.72694 0.64238 0.96552 0.0
C2202 C 0.72492 0.6446 0.99383 0.0
C2203 C 0.72294 0.62069 0.03853 0.0
C2204 C 0.72328 0.5946 0.05433 0.0
C2205 C 0.7255 0.61894 0.00999 0.0
C2206 C 0.7262 0.56692 0.04106 0.0
C2207 C 0.72885 0.5651 0.01302 0.0
H2208 H 0.3782 0.72532 0.96201 0.0
H2209 H 0.47399 0.72606 0.9558 0.0
H2210 H 0.4781 0.72372 0.00497 0.0
H2211 H 0.45489 0.72152 0.04982 0.0
H2212 H 0.3592 0.72095 0.05666 0.0
H2213 H 0.35482 0.72305 0.0073 0.0
C2214 C 0.4 0.72502 0.97137 0.0
C2215 C 0.42573 0.72596 0.95499 0.0
C2216 C 0.40229 0.72363 0.99987 0.0
C2217 C 0.45375 0.72547 0.96769 0.0
C2218 C 0.45616 0.72408 0.9959 0.0
C2219 C 0.433 0.72181 0.04062 0.0
C2220 C 0.40741 0.72108 0.05716 0.0
C2221 C 0.43062 0.72314 0.0122 0.0
C2222 C 0.37932 0.72149 0.04461 0.0
C2223 C 0.37678 0.72272 0.01631 0.0
H2224 H 0.29204 0.45575 0.0493 0.0
H2225 H 0.30246 0.36052 0.05511 0.0
H2226 H 0.30309 0.35661 0.00575 0.0
H2227 H 0.30066 0.38023 0.96078 0.0
H2228 H 0.29039 0.47557 0.95547 0.0
H2229 H 0.28973 0.47925 0.00468 0.0
C2230 C 0.29441 0.43408 0.03985 0.0
C2231 C 0.29713 0.40848 0.05606 0.0
C2232 C 0.29479 0.43196 0.01143 0.0
C2233 C 0.30028 0.38065 0.04327 0.0
C2234 C 0.30065 0.37837 0.01498 0.0
C2235 C 0.29825 0.40183 0.97035 0.0
C2236 C 0.29552 0.42755 0.95425 0.0
C2237 C 0.29791 0.40388 0.99883 0.0
C2238 C 0.29249 0.45533 0.96718 0.0
C2239 C 0.29211 0.45751 0.9954 0.0
loop_
_geom_bond_atom_site_label_1
_geom_bond_atom_site_label_2
_geom_bond_distance
_geom_bond_site_symmetry_2
_ccdc_geom_bond_type
Fe0 O2 1.918 . S
Fe0 O5 1.997 . S
Fe0 O6 2.002 . S
Fe0 O11 1.976 . S
Fe0 O14 1.996 . S
Fe1 O2 1.918 . S
Fe1 O9 1.997 . S
Fe1 O12 1.996 . S
Fe1 O16 1.976 . S
Fe1 O19 2.002 . S
O2 Fe0 1.918 . S
O2 Fe1 1.918 . S
O2 Fe3 1.918 . S
Fe3 O2 1.918 . S
Fe3 O4 2.002 . S
Fe3 O13 1.976 . S
Fe3 O17 1.996 . S
Fe3 O20 1.997 . S
O4 Fe3 2.002 . S
O4 C21 1.295 . S
O5 Fe0 1.997 . S
O5 C21 1.235 . S
O6 Fe0 2.002 . S
O6 C7 1.295 . S
C7 O6 1.295 . S
C7 O9 1.235 . S
C8 O13 1.287 . S
C8 O14 1.255 . S
O9 Fe1 1.997 . S
O9 C7 1.235 . S
C10 O16 1.287 . S
C10 O17 1.255 . S
O11 Fe0 1.976 . S
O11 C18 1.287 . S
O12 Fe1 1.996 . S
O12 C18 1.255 . S
O13 Fe3 1.976 . S
O13 C8 1.287 . S
O14 Fe0 1.996 . S
O14 C8 1.255 . S
C15 O19 1.295 . S
C15 O20 1.235 . S
O16 Fe1 1.976 . S
O16 C10 1.287 . S
O17 Fe3 1.996 . S
O17 C10 1.255 . S
C18 O11 1.287 . S
C18 O12 1.255 . S
O19 Fe1 2.002 . S
O19 C15 1.295 . S
O20 Fe3 1.997 . S
O20 C15 1.235 . S
C21 O4 1.295 . S
C21 O5 1.235 . S
Fe22 O24 1.918 . S
Fe22 O27 1.997 . S
Fe22 O28 2.002 . S
Fe22 O33 1.976 . S
Fe22 O36 1.996 . S
Fe23 O24 1.918 . S
Fe23 O31 1.997 . S
Fe23 O34 1.996 . S
Fe23 O38 1.976 . S
Fe23 O41 2.002 . S
O24 Fe22 1.918 . S
O24 Fe23 1.918 . S
O24 Fe25 1.918 . S
Fe25 O24 1.918 . S
Fe25 O26 2.002 . S
Fe25 O35 1.976 . S
Fe25 O39 1.996 . S
Fe25 O42 1.997 . S
O26 Fe25 2.002 . S
O26 C43 1.295 . S
O27 Fe22 1.997 . S
O27 C43 1.235 . S
O28 Fe22 2.002 . S
O28 C29 1.295 . S
C29 O28 1.295 . S
C29 O31 1.235 . S
C30 O35 1.287 . S
C30 O36 1.255 . S
O31 Fe23 1.997 . S
O31 C29 1.235 . S
C32 O38 1.287 . S
C32 O39 1.255 . S
O33 Fe22 1.976 . S
O33 C40 1.287 . S
O34 Fe23 1.996 . S
O34 C40 1.255 . S
O35 Fe25 1.976 . S
O35 C30 1.287 . S
O36 Fe22 1.996 . S
O36 C30 1.255 . S
C37 O41 1.295 . S
C37 O42 1.235 . S
O38 Fe23 1.976 . S
O38 C32 1.287 . S
O39 Fe25 1.996 . S
O39 C32 1.255 . S
C40 O33 1.287 . S
C40 O34 1.255 . S
O41 Fe23 2.002 . S
O41 C37 1.295 . S
O42 Fe25 1.997 . S
O42 C37 1.235 . S
C43 O26 1.295 . S
C43 O27 1.235 . S
Fe44 O46 1.918 . S
Fe44 O49 1.997 . S
Fe44 O50 2.002 . S
Fe44 O55 1.976 . S
Fe44 O58 1.996 . S
Fe45 O46 1.918 . S
Fe45 O53 1.997 . S
Fe45 O56 1.996 . S
Fe45 O60 1.976 . S
Fe45 O63 2.002 . S
O46 Fe44 1.918 . S
O46 Fe45 1.918 . S
O46 Fe47 1.918 . S
Fe47 O46 1.918 . S
Fe47 O48 2.002 . S
Fe47 O57 1.976 . S
Fe47 O61 1.996 . S
Fe47 O64 1.997 . S
O48 Fe47 2.002 . S
O48 C65 1.295 . S
O49 Fe44 1.997 . S
O49 C65 1.235 . S
O50 Fe44 2.002 . S
O50 C51 1.295 . S
C51 O50 1.295 . S
C51 O53 1.235 . S
C52 O57 1.287 . S
C52 O58 1.255 . S
O53 Fe45 1.997 . S
O53 C51 1.235 . S
C54 O60 1.287 . S
C54 O61 1.255 . S
O55 Fe44 1.976 . S
O55 C62 1.287 . S
O56 Fe45 1.996 . S
O56 C62 1.255 . S
O57 Fe47 1.976 . S
O57 C52 1.287 . S
O58 Fe44 1.996 . S
O58 C52 1.255 . S
C59 O63 1.295 . S
C59 O64 1.235 . S
O60 Fe45 1.976 . S
O60 C54 1.287 . S
O61 Fe47 1.996 . S
O61 C54 1.255 . S
C62 O55 1.287 . S
C62 O56 1.255 . S
O63 Fe45 2.002 . S
O63 C59 1.295 . S
O64 Fe47 1.997 . S
O64 C59 1.235 . S
C65 O48 1.295 . S
C65 O49 1.235 . S
Fe66 O68 1.918 . S
Fe66 O71 1.997 . S
Fe66 O72 2.002 . S
Fe66 O77 1.976 . S
Fe66 O80 1.996 . S
Fe67 O68 1.918 . S
Fe67 O75 1.997 . S
Fe67 O78 1.996 . S
Fe67 O82 1.976 . S
Fe67 O85 2.002 . S
O68 Fe66 1.918 . S
O68 Fe67 1.918 . S
O68 Fe69 1.918 . S
Fe69 O68 1.918 . S
Fe69 O70 2.002 . S
Fe69 O79 1.976 . S
Fe69 O83 1.996 . S
Fe69 O86 1.997 . S
O70 Fe69 2.002 . S
O70 C87 1.295 . S
O71 Fe66 1.997 . S
O71 C87 1.235 . S
O72 Fe66 2.002 . S
O72 C73 1.295 . S
C73 O72 1.295 . S
C73 O75 1.235 . S
C74 O79 1.287 . S
C74 O80 1.255 . S
O75 Fe67 1.997 . S
O75 C73 1.235 . S
C76 O82 1.287 . S
C76 O83 1.255 . S
O77 Fe66 1.976 . S
O77 C84 1.287 . S
O78 Fe67 1.996 . S
O78 C84 1.255 . S
O79 Fe69 1.976 . S
O79 C74 1.287 . S
O80 Fe66 1.996 . S
O80 C74 1.255 . S
C81 O85 1.295 . S
C81 O86 1.235 . S
O82 Fe67 1.976 . S
O82 C76 1.287 . S
O83 Fe69 1.996 . S
O83 C76 1.255 . S
C84 O77 1.287 . S
C84 O78 1.255 . S
O85 Fe67 2.002 . S
O85 C81 1.295 . S
O86 Fe69 1.997 . S
O86 C81 1.235 . S
C87 O70 1.295 . S
C87 O71 1.235 . S
Fe88 O90 1.918 . S
Fe88 O93 1.997 . S
Fe88 O94 2.002 . S
Fe88 O99 1.976 . S
Fe88 O102 1.996 . S
Fe89 O90 1.918 . S
Fe89 O97 1.997 . S
Fe89 O100 1.996 . S
Fe89 O104 1.976 . S
Fe89 O107 2.002 . S
O90 Fe88 1.918 . S
O90 Fe89 1.918 . S
O90 Fe91 1.918 . S
Fe91 O90 1.918 . S
Fe91 O92 2.002 . S
Fe91 O101 1.976 . S
Fe91 O105 1.996 . S
Fe91 O108 1.997 . S
O92 Fe91 2.002 . S
O92 C109 1.295 . S
O93 Fe88 1.997 . S
O93 C109 1.235 . S
O94 Fe88 2.002 . S
O94 C95 1.295 . S
C95 O94 1.295 . S
C95 O97 1.235 . S
C96 O101 1.287 . S
C96 O102 1.255 . S
O97 Fe89 1.997 . S
O97 C95 1.235 . S
C98 O104 1.287 . S
C98 O105 1.255 . S
O99 Fe88 1.976 . S
O99 C106 1.287 . S
O100 Fe89 1.996 . S
O100 C106 1.255 . S
O101 Fe91 1.976 . S
O101 C96 1.287 . S
O102 Fe88 1.996 . S
O102 C96 1.255 . S
C103 O107 1.295 . S
C103 O108 1.235 . S
O104 Fe89 1.976 . S
O104 C98 1.287 . S
O105 Fe91 1.996 . S
O105 C98 1.255 . S
C106 O99 1.287 . S
C106 O100 1.255 . S
O107 Fe89 2.002 . S
O107 C103 1.295 . S
O108 Fe91 1.997 . S
O108 C103 1.235 . S
C109 O92 1.295 . S
C109 O93 1.235 . S
Fe110 O112 1.918 . S
Fe110 O115 1.997 . S
Fe110 O116 2.002 . S
Fe110 O121 1.976 . S
Fe110 O124 1.996 . S
Fe111 O112 1.918 . S
Fe111 O119 1.997 . S
Fe111 O122 1.996 . S
Fe111 O126 1.976 . S
Fe111 O129 2.002 . S
O112 Fe110 1.918 . S
O112 Fe111 1.918 . S
O112 Fe113 1.918 . S
Fe113 O112 1.918 . S
Fe113 O114 2.002 . S
Fe113 O123 1.976 . S
Fe113 O127 1.996 . S
Fe113 O130 1.997 . S
O114 Fe113 2.002 . S
O114 C131 1.295 . S
O115 Fe110 1.997 . S
O115 C131 1.235 . S
O116 Fe110 2.002 . S
O116 C117 1.295 . S
C117 O116 1.295 . S
C117 O119 1.235 . S
C118 O123 1.287 . S
C118 O124 1.255 . S
O119 Fe111 1.997 . S
O119 C117 1.235 . S
C120 O126 1.287 . S
C120 O127 1.255 . S
O121 Fe110 1.976 . S
O121 C128 1.287 . S
O122 Fe111 1.996 . S
O122 C128 1.255 . S
O123 Fe113 1.976 . S
O123 C118 1.287 . S
O124 Fe110 1.996 . S
O124 C118 1.255 . S
C125 O129 1.295 . S
C125 O130 1.235 . S
O126 Fe111 1.976 . S
O126 C120 1.287 . S
O127 Fe113 1.996 . S
O127 C120 1.255 . S
C128 O121 1.287 . S
C128 O122 1.255 . S
O129 Fe111 2.002 . S
O129 C125 1.295 . S
O130 Fe113 1.997 . S
O130 C125 1.235 . S
C131 O114 1.295 . S
C131 O115 1.235 . S
Fe132 O134 1.918 . S
Fe132 O137 1.997 . S
Fe132 O138 2.002 . S
Fe132 O143 1.976 . S
Fe132 O146 1.996 . S
Fe133 O134 1.918 . S
Fe133 O141 1.997 . S
Fe133 O144 1.996 . S
Fe133 O148 1.976 . S
Fe133 O151 2.002 . S
O134 Fe132 1.918 . S
O134 Fe133 1.918 . S
O134 Fe135 1.918 . S
Fe135 O134 1.918 . S
Fe135 O136 2.002 . S
Fe135 O145 1.976 . S
Fe135 O149 1.996 . S
Fe135 O152 1.997 . S
O136 Fe135 2.002 . S
O136 C153 1.295 . S
O137 Fe132 1.997 . S
O137 C153 1.235 . S
O138 Fe132 2.002 . S
O138 C139 1.295 . S
C139 O138 1.295 . S
C139 O141 1.235 . S
C140 O145 1.287 . S
C140 O146 1.255 . S
O141 Fe133 1.997 . S
O141 C139 1.235 . S
C142 O148 1.287 . S
C142 O149 1.255 . S
O143 Fe132 1.976 . S
O143 C150 1.287 . S
O144 Fe133 1.996 . S
O144 C150 1.255 . S
O145 Fe135 1.976 . S
O145 C140 1.287 . S
O146 Fe132 1.996 . S
O146 C140 1.255 . S
C147 O151 1.295 . S
C147 O152 1.235 . S
O148 Fe133 1.976 . S
O148 C142 1.287 . S
O149 Fe135 1.996 . S
O149 C142 1.255 . S
C150 O143 1.287 . S
C150 O144 1.255 . S
O151 Fe133 2.002 . S
O151 C147 1.295 . S
O152 Fe135 1.997 . S
O152 C147 1.235 . S
C153 O136 1.295 . S
C153 O137 1.235 . S
Fe154 O156 1.918 . S
Fe154 O159 1.997 . S
Fe154 O160 2.002 . S
Fe154 O165 1.976 . S
Fe154 O168 1.996 . S
Fe155 O156 1.918 . S
Fe155 O163 1.997 . S
Fe155 O166 1.996 . S
Fe155 O170 1.976 . S
Fe155 O173 2.002 . S
O156 Fe154 1.918 . S
O156 Fe155 1.918 . S
O156 Fe157 1.918 . S
Fe157 O156 1.918 . S
Fe157 O158 2.002 . S
Fe157 O167 1.976 . S
Fe157 O171 1.996 . S
Fe157 O174 1.997 . S
O158 Fe157 2.002 . S
O158 C175 1.295 . S
O159 Fe154 1.997 . S
O159 C175 1.235 . S
O160 Fe154 2.002 . S
O160 C161 1.295 . S
C161 O160 1.295 . S
C161 O163 1.235 . S
C162 O167 1.287 . S
C162 O168 1.255 . S
O163 Fe155 1.997 . S
O163 C161 1.235 . S
C164 O170 1.287 . S
C164 O171 1.255 . S
O165 Fe154 1.976 . S
O165 C172 1.287 . S
O166 Fe155 1.996 . S
O166 C172 1.255 . S
O167 Fe157 1.976 . S
O167 C162 1.287 . S
O168 Fe154 1.996 . S
O168 C162 1.255 . S
C169 O173 1.295 . S
C169 O174 1.235 . S
O170 Fe155 1.976 . S
O170 C164 1.287 . S
O171 Fe157 1.996 . S
O171 C164 1.255 . S
C172 O165 1.287 . S
C172 O166 1.255 . S
O173 Fe155 2.002 . S
O173 C169 1.295 . S
O174 Fe157 1.997 . S
O174 C169 1.235 . S
C175 O158 1.295 . S
C175 O159 1.235 . S
Fe176 O178 1.918 . S
Fe176 O181 1.997 . S
Fe176 O182 2.002 . S
Fe176 O187 1.976 . S
Fe176 O190 1.996 . S
Fe177 O178 1.918 . S
Fe177 O185 1.997 . S
Fe177 O188 1.996 . S
Fe177 O192 1.976 . S
Fe177 O195 2.002 . S
O178 Fe176 1.918 . S
O178 Fe177 1.918 . S
O178 Fe179 1.918 . S
Fe179 O178 1.918 . S
Fe179 O180 2.002 . S
Fe179 O189 1.976 . S
Fe179 O193 1.996 . S
Fe179 O196 1.997 . S
O180 Fe179 2.002 . S
O180 C197 1.295 . S
O181 Fe176 1.997 . S
O181 C197 1.235 . S
O182 Fe176 2.002 . S
O182 C183 1.295 . S
C183 O182 1.295 . S
C183 O185 1.235 . S
C184 O189 1.287 . S
C184 O190 1.255 . S
O185 Fe177 1.997 . S
O185 C183 1.235 . S
C186 O192 1.287 . S
C186 O193 1.255 . S
O187 Fe176 1.976 . S
O187 C194 1.287 . S
O188 Fe177 1.996 . S
O188 C194 1.255 . S
O189 Fe179 1.976 . S
O189 C184 1.287 . S
O190 Fe176 1.996 . S
O190 C184 1.255 . S
C191 O195 1.295 . S
C191 O196 1.235 . S
O192 Fe177 1.976 . S
O192 C186 1.287 . S
O193 Fe179 1.996 . S
O193 C186 1.255 . S
C194 O187 1.287 . S
C194 O188 1.255 . S
O195 Fe177 2.002 . S
O195 C191 1.295 . S
O196 Fe179 1.997 . S
O196 C191 1.235 . S
C197 O180 1.295 . S
C197 O181 1.235 . S
Fe198 O200 1.918 . S
Fe198 O203 1.997 . S
Fe198 O204 2.002 . S
Fe198 O209 1.976 . S
Fe198 O212 1.996 . S
Fe199 O200 1.918 . S
Fe199 O207 1.997 . S
Fe199 O210 1.996 . S
Fe199 O214 1.976 . S
Fe199 O217 2.002 . S
O200 Fe198 1.918 . S
O200 Fe199 1.918 . S
O200 Fe201 1.918 . S
Fe201 O200 1.918 . S
Fe201 O202 2.002 . S
Fe201 O211 1.976 . S
Fe201 O215 1.996 . S
Fe201 O218 1.997 . S
O202 Fe201 2.002 . S
O202 C219 1.295 . S
O203 Fe198 1.997 . S
O203 C219 1.235 . S
O204 Fe198 2.002 . S
O204 C205 1.295 . S
C205 O204 1.295 . S
C205 O207 1.235 . S
C206 O211 1.287 . S
C206 O212 1.255 . S
O207 Fe199 1.997 . S
O207 C205 1.235 . S
C208 O214 1.287 . S
C208 O215 1.255 . S
O209 Fe198 1.976 . S
O209 C216 1.287 . S
O210 Fe199 1.996 . S
O210 C216 1.255 . S
O211 Fe201 1.976 . S
O211 C206 1.287 . S
O212 Fe198 1.996 . S
O212 C206 1.255 . S
C213 O217 1.295 . S
C213 O218 1.235 . S
O214 Fe199 1.976 . S
O214 C208 1.287 . S
O215 Fe201 1.996 . S
O215 C208 1.255 . S
C216 O209 1.287 . S
C216 O210 1.255 . S
O217 Fe199 2.002 . S
O217 C213 1.295 . S
O218 Fe201 1.997 . S
O218 C213 1.235 . S
C219 O202 1.295 . S
C219 O203 1.235 . S
Fe220 O222 1.918 . S
Fe220 O225 1.997 . S
Fe220 O226 2.002 . S
Fe220 O231 1.976 . S
Fe220 O234 1.996 . S
Fe221 O222 1.918 . S
Fe221 O229 1.997 . S
Fe221 O232 1.996 . S
Fe221 O236 1.976 . S
Fe221 O239 2.002 . S
O222 Fe220 1.918 . S
O222 Fe221 1.918 . S
O222 Fe223 1.918 . S
Fe223 O222 1.918 . S
Fe223 O224 2.002 . S
Fe223 O233 1.976 . S
Fe223 O237 1.996 . S
Fe223 O240 1.997 . S
O224 Fe223 2.002 . S
O224 C241 1.295 . S
O225 Fe220 1.997 . S
O225 C241 1.235 . S
O226 Fe220 2.002 . S
O226 C227 1.295 . S
C227 O226 1.295 . S
C227 O229 1.235 . S
C228 O233 1.287 . S
C228 O234 1.255 . S
O229 Fe221 1.997 . S
O229 C227 1.235 . S
C230 O236 1.287 . S
C230 O237 1.255 . S
O231 Fe220 1.976 . S
O231 C238 1.287 . S
O232 Fe221 1.996 . S
O232 C238 1.255 . S
O233 Fe223 1.976 . S
O233 C228 1.287 . S
O234 Fe220 1.996 . S
O234 C228 1.255 . S
C235 O239 1.295 . S
C235 O240 1.235 . S
O236 Fe221 1.976 . S
O236 C230 1.287 . S
O237 Fe223 1.996 . S
O237 C230 1.255 . S
C238 O231 1.287 . S
C238 O232 1.255 . S
O239 Fe221 2.002 . S
O239 C235 1.295 . S
O240 Fe223 1.997 . S
O240 C235 1.235 . S
C241 O224 1.295 . S
C241 O225 1.235 . S
Fe242 O244 1.918 . S
Fe242 O247 1.997 . S
Fe242 O248 2.002 . S
Fe242 O253 1.976 . S
Fe242 O256 1.996 . S
Fe243 O244 1.918 . S
Fe243 O251 1.997 . S
Fe243 O254 1.996 . S
Fe243 O258 1.976 . S
Fe243 O261 2.002 . S
O244 Fe242 1.918 . S
O244 Fe243 1.918 . S
O244 Fe245 1.918 . S
Fe245 O244 1.918 . S
Fe245 O246 2.002 . S
Fe245 O255 1.976 . S
Fe245 O259 1.996 . S
Fe245 O262 1.997 . S
O246 Fe245 2.002 . S
O246 C263 1.295 . S
O247 Fe242 1.997 . S
O247 C263 1.235 . S
O248 Fe242 2.002 . S
O248 C249 1.295 . S
C249 O248 1.295 . S
C249 O251 1.235 . S
C250 O255 1.287 . S
C250 O256 1.255 . S
O251 Fe243 1.997 . S
O251 C249 1.235 . S
C252 O258 1.287 . S
C252 O259 1.255 . S
O253 Fe242 1.976 . S
O253 C260 1.287 . S
O254 Fe243 1.996 . S
O254 C260 1.255 . S
O255 Fe245 1.976 . S
O255 C250 1.287 . S
O256 Fe242 1.996 . S
O256 C250 1.255 . S
C257 O261 1.295 . S
C257 O262 1.235 . S
O258 Fe243 1.976 . S
O258 C252 1.287 . S
O259 Fe245 1.996 . S
O259 C252 1.255 . S
C260 O253 1.287 . S
C260 O254 1.255 . S
O261 Fe243 2.002 . S
O261 C257 1.295 . S
O262 Fe245 1.997 . S
O262 C257 1.235 . S
C263 O246 1.295 . S
C263 O247 1.235 . S
Fe264 O266 1.918 . S
Fe264 O269 1.997 . S
Fe264 O270 2.002 . S
Fe264 O275 1.976 . S
Fe264 O278 1.996 . S
Fe265 O266 1.918 . S
Fe265 O273 1.997 . S
Fe265 O276 1.996 . S
Fe265 O280 1.976 . S
Fe265 O283 2.002 . S
O266 Fe264 1.918 . S
O266 Fe265 1.918 . S
O266 Fe267 1.918 . S
Fe267 O266 1.918 . S
Fe267 O268 2.002 . S
Fe267 O277 1.976 . S
Fe267 O281 1.996 . S
Fe267 O284 1.997 . S
O268 Fe267 2.002 . S
O268 C285 1.295 . S
O269 Fe264 1.997 . S
O269 C285 1.235 . S
O270 Fe264 2.002 . S
O270 C271 1.295 . S
C271 O270 1.295 . S
C271 O273 1.235 . S
C272 O277 1.287 . S
C272 O278 1.255 . S
O273 Fe265 1.997 . S
O273 C271 1.235 . S
C274 O280 1.287 . S
C274 O281 1.255 . S
O275 Fe264 1.976 . S
O275 C282 1.287 . S
O276 Fe265 1.996 . S
O276 C282 1.255 . S
O277 Fe267 1.976 . S
O277 C272 1.287 . S
O278 Fe264 1.996 . S
O278 C272 1.255 . S
C279 O283 1.295 . S
C279 O284 1.235 . S
O280 Fe265 1.976 . S
O280 C274 1.287 . S
O281 Fe267 1.996 . S
O281 C274 1.255 . S
C282 O275 1.287 . S
C282 O276 1.255 . S
O283 Fe265 2.002 . S
O283 C279 1.295 . S
O284 Fe267 1.997 . S
O284 C279 1.235 . S
C285 O268 1.295 . S
C285 O269 1.235 . S
Fe286 O288 1.918 . S
Fe286 O291 1.997 . S
Fe286 O292 2.002 . S
Fe286 O297 1.976 . S
Fe286 O300 1.996 . S
Fe287 O288 1.918 . S
Fe287 O295 1.997 . S
Fe287 O298 1.996 . S
Fe287 O302 1.976 . S
Fe287 O305 2.002 . S
O288 Fe286 1.918 . S
O288 Fe287 1.918 . S
O288 Fe289 1.918 . S
Fe289 O288 1.918 . S
Fe289 O290 2.002 . S
Fe289 O299 1.976 . S
Fe289 O303 1.996 . S
Fe289 O306 1.997 . S
O290 Fe289 2.002 . S
O290 C307 1.295 . S
O291 Fe286 1.997 . S
O291 C307 1.235 . S
O292 Fe286 2.002 . S
O292 C293 1.295 . S
C293 O292 1.295 . S
C293 O295 1.235 . S
C294 O299 1.287 . S
C294 O300 1.255 . S
O295 Fe287 1.997 . S
O295 C293 1.235 . S
C296 O302 1.287 . S
C296 O303 1.255 . S
O297 Fe286 1.976 . S
O297 C304 1.287 . S
O298 Fe287 1.996 . S
O298 C304 1.255 . S
O299 Fe289 1.976 . S
O299 C294 1.287 . S
O300 Fe286 1.996 . S
O300 C294 1.255 . S
C301 O305 1.295 . S
C301 O306 1.235 . S
O302 Fe287 1.976 . S
O302 C296 1.287 . S
O303 Fe289 1.996 . S
O303 C296 1.255 . S
C304 O297 1.287 . S
C304 O298 1.255 . S
O305 Fe287 2.002 . S
O305 C301 1.295 . S
O306 Fe289 1.997 . S
O306 C301 1.235 . S
C307 O290 1.295 . S
C307 O291 1.235 . S
Fe308 O310 1.918 . S
Fe308 O313 1.997 . S
Fe308 O314 2.002 . S
Fe308 O319 1.976 . S
Fe308 O322 1.996 . S
Fe309 O310 1.918 . S
Fe309 O317 1.997 . S
Fe309 O320 1.996 . S
Fe309 O324 1.976 . S
Fe309 O327 2.002 . S
O310 Fe308 1.918 . S
O310 Fe309 1.918 . S
O310 Fe311 1.918 . S
Fe311 O310 1.918 . S
Fe311 O312 2.002 . S
Fe311 O321 1.976 . S
Fe311 O325 1.996 . S
Fe311 O328 1.997 . S
O312 Fe311 2.002 . S
O312 C329 1.295 . S
O313 Fe308 1.997 . S
O313 C329 1.235 . S
O314 Fe308 2.002 . S
O314 C315 1.295 . S
C315 O314 1.295 . S
C315 O317 1.235 . S
C316 O321 1.287 . S
C316 O322 1.255 . S
O317 Fe309 1.997 . S
O317 C315 1.235 . S
C318 O324 1.287 . S
C318 O325 1.255 . S
O319 Fe308 1.976 . S
O319 C326 1.287 . S
O320 Fe309 1.996 . S
O320 C326 1.255 . S
O321 Fe311 1.976 . S
O321 C316 1.287 . S
O322 Fe308 1.996 . S
O322 C316 1.255 . S
C323 O327 1.295 . S
C323 O328 1.235 . S
O324 Fe309 1.976 . S
O324 C318 1.287 . S
O325 Fe311 1.996 . S
O325 C318 1.255 . S
C326 O319 1.287 . S
C326 O320 1.255 . S
O327 Fe309 2.002 . S
O327 C323 1.295 . S
O328 Fe311 1.997 . S
O328 C323 1.235 . S
C329 O312 1.295 . S
C329 O313 1.235 . S
Fe330 O332 1.918 . S
Fe330 O335 1.997 . S
Fe330 O336 2.002 . S
Fe330 O341 1.976 . S
Fe330 O344 1.996 . S
Fe331 O332 1.918 . S
Fe331 O339 1.997 . S
Fe331 O342 1.996 . S
Fe331 O346 1.976 . S
Fe331 O349 2.002 . S
O332 Fe330 1.918 . S
O332 Fe331 1.918 . S
O332 Fe333 1.918 . S
Fe333 O332 1.918 . S
Fe333 O334 2.002 . S
Fe333 O343 1.976 . S
Fe333 O347 1.996 . S
Fe333 O350 1.997 . S
O334 Fe333 2.002 . S
O334 C351 1.295 . S
O335 Fe330 1.997 . S
O335 C351 1.235 . S
O336 Fe330 2.002 . S
O336 C337 1.295 . S
C337 O336 1.295 . S
C337 O339 1.235 . S
C338 O343 1.287 . S
C338 O344 1.255 . S
O339 Fe331 1.997 . S
O339 C337 1.235 . S
C340 O346 1.287 . S
C340 O347 1.255 . S
O341 Fe330 1.976 . S
O341 C348 1.287 . S
O342 Fe331 1.996 . S
O342 C348 1.255 . S
O343 Fe333 1.976 . S
O343 C338 1.287 . S
O344 Fe330 1.996 . S
O344 C338 1.255 . S
C345 O349 1.295 . S
C345 O350 1.235 . S
O346 Fe331 1.976 . S
O346 C340 1.287 . S
O347 Fe333 1.996 . S
O347 C340 1.255 . S
C348 O341 1.287 . S
C348 O342 1.255 . S
O349 Fe331 2.002 . S
O349 C345 1.295 . S
O350 Fe333 1.997 . S
O350 C345 1.235 . S
C351 O334 1.295 . S
C351 O335 1.235 . S
Fe352 O354 1.918 . S
Fe352 O357 1.997 . S
Fe352 O358 2.002 . S
Fe352 O363 1.976 . S
Fe352 O366 1.996 . S
Fe353 O354 1.918 . S
Fe353 O361 1.997 . S
Fe353 O364 1.996 . S
Fe353 O368 1.976 . S
Fe353 O371 2.002 . S
O354 Fe352 1.918 . S
O354 Fe353 1.918 . S
O354 Fe355 1.918 . S
Fe355 O354 1.918 . S
Fe355 O356 2.002 . S
Fe355 O365 1.976 . S
Fe355 O369 1.996 . S
Fe355 O372 1.997 . S
O356 Fe355 2.002 . S
O356 C373 1.295 . S
O357 Fe352 1.997 . S
O357 C373 1.235 . S
O358 Fe352 2.002 . S
O358 C359 1.295 . S
C359 O358 1.295 . S
C359 O361 1.235 . S
C360 O365 1.287 . S
C360 O366 1.255 . S
O361 Fe353 1.997 . S
O361 C359 1.235 . S
C362 O368 1.287 . S
C362 O369 1.255 . S
O363 Fe352 1.976 . S
O363 C370 1.287 . S
O364 Fe353 1.996 . S
O364 C370 1.255 . S
O365 Fe355 1.976 . S
O365 C360 1.287 . S
O366 Fe352 1.996 . S
O366 C360 1.255 . S
C367 O371 1.295 . S
C367 O372 1.235 . S
O368 Fe353 1.976 . S
O368 C362 1.287 . S
O369 Fe355 1.996 . S
O369 C362 1.255 . S
C370 O363 1.287 . S
C370 O364 1.255 . S
O371 Fe353 2.002 . S
O371 C367 1.295 . S
O372 Fe355 1.997 . S
O372 C367 1.235 . S
C373 O356 1.295 . S
C373 O357 1.235 . S
Fe374 O376 1.918 . S
Fe374 O379 1.997 . S
Fe374 O380 2.002 . S
Fe374 O385 1.976 . S
Fe374 O388 1.996 . S
Fe375 O376 1.918 . S
Fe375 O383 1.997 . S
Fe375 O386 1.996 . S
Fe375 O390 1.976 . S
Fe375 O393 2.002 . S
O376 Fe374 1.918 . S
O376 Fe375 1.918 . S
O376 Fe377 1.918 . S
Fe377 O376 1.918 . S
Fe377 O378 2.002 . S
Fe377 O387 1.976 . S
Fe377 O391 1.996 . S
Fe377 O394 1.997 . S
O378 Fe377 2.002 . S
O378 C395 1.295 . S
O379 Fe374 1.997 . S
O379 C395 1.235 . S
O380 Fe374 2.002 . S
O380 C381 1.295 . S
C381 O380 1.295 . S
C381 O383 1.235 . S
C382 O387 1.287 . S
C382 O388 1.255 . S
O383 Fe375 1.997 . S
O383 C381 1.235 . S
C384 O390 1.287 . S
C384 O391 1.255 . S
O385 Fe374 1.976 . S
O385 C392 1.287 . S
O386 Fe375 1.996 . S
O386 C392 1.255 . S
O387 Fe377 1.976 . S
O387 C382 1.287 . S
O388 Fe374 1.996 . S
O388 C382 1.255 . S
C389 O393 1.295 . S
C389 O394 1.235 . S
O390 Fe375 1.976 . S
O390 C384 1.287 . S
O391 Fe377 1.996 . S
O391 C384 1.255 . S
C392 O385 1.287 . S
C392 O386 1.255 . S
O393 Fe375 2.002 . S
O393 C389 1.295 . S
O394 Fe377 1.997 . S
O394 C389 1.235 . S
C395 O378 1.295 . S
C395 O379 1.235 . S
Fe396 O398 1.918 . S
Fe396 O401 1.997 . S
Fe396 O402 2.002 . S
Fe396 O407 1.976 . S
Fe396 O410 1.996 . S
Fe397 O398 1.918 . S
Fe397 O405 1.997 . S
Fe397 O408 1.996 . S
Fe397 O412 1.976 . S
Fe397 O415 2.002 . S
O398 Fe396 1.918 . S
O398 Fe397 1.918 . S
O398 Fe399 1.918 . S
Fe399 O398 1.918 . S
Fe399 O400 2.002 . S
Fe399 O409 1.976 . S
Fe399 O413 1.996 . S
Fe399 O416 1.997 . S
O400 Fe399 2.002 . S
O400 C417 1.295 . S
O401 Fe396 1.997 . S
O401 C417 1.235 . S
O402 Fe396 2.002 . S
O402 C403 1.295 . S
C403 O402 1.295 . S
C403 O405 1.235 . S
C404 O409 1.287 . S
C404 O410 1.255 . S
O405 Fe397 1.997 . S
O405 C403 1.235 . S
C406 O412 1.287 . S
C406 O413 1.255 . S
O407 Fe396 1.976 . S
O407 C414 1.287 . S
O408 Fe397 1.996 . S
O408 C414 1.255 . S
O409 Fe399 1.976 . S
O409 C404 1.287 . S
O410 Fe396 1.996 . S
O410 C404 1.255 . S
C411 O415 1.295 . S
C411 O416 1.235 . S
O412 Fe397 1.976 . S
O412 C406 1.287 . S
O413 Fe399 1.996 . S
O413 C406 1.255 . S
C414 O407 1.287 . S
C414 O408 1.255 . S
O415 Fe397 2.002 . S
O415 C411 1.295 . S
O416 Fe399 1.997 . S
O416 C411 1.235 . S
C417 O400 1.295 . S
C417 O401 1.235 . S
Fe418 O420 1.918 . S
Fe418 O423 1.997 . S
Fe418 O424 2.002 . S
Fe418 O429 1.976 . S
Fe418 O432 1.996 . S
Fe419 O420 1.918 . S
Fe419 O427 1.997 . S
Fe419 O430 1.996 . S
Fe419 O434 1.976 . S
Fe419 O437 2.002 . S
O420 Fe418 1.918 . S
O420 Fe419 1.918 . S
O420 Fe421 1.918 . S
Fe421 O420 1.918 . S
Fe421 O422 2.002 . S
Fe421 O431 1.976 . S
Fe421 O435 1.996 . S
Fe421 O438 1.997 . S
O422 Fe421 2.002 . S
O422 C439 1.295 . S
O423 Fe418 1.997 . S
O423 C439 1.235 . S
O424 Fe418 2.002 . S
O424 C425 1.295 . S
C425 O424 1.295 . S
C425 O427 1.235 . S
C426 O431 1.287 . S
C426 O432 1.255 . S
O427 Fe419 1.997 . S
O427 C425 1.235 . S
C428 O434 1.287 . S
C428 O435 1.255 . S
O429 Fe418 1.976 . S
O429 C436 1.287 . S
O430 Fe419 1.996 . S
O430 C436 1.255 . S
O431 Fe421 1.976 . S
O431 C426 1.287 . S
O432 Fe418 1.996 . S
O432 C426 1.255 . S
C433 O437 1.295 . S
C433 O438 1.235 . S
O434 Fe419 1.976 . S
O434 C428 1.287 . S
O435 Fe421 1.996 . S
O435 C428 1.255 . S
C436 O429 1.287 . S
C436 O430 1.255 . S
O437 Fe419 2.002 . S
O437 C433 1.295 . S
O438 Fe421 1.997 . S
O438 C433 1.235 . S
C439 O422 1.295 . S
C439 O423 1.235 . S
Fe440 O442 1.918 . S
Fe440 O445 1.997 . S
Fe440 O446 2.002 . S
Fe440 O451 1.976 . S
Fe440 O454 1.996 . S
Fe441 O442 1.918 . S
Fe441 O449 1.997 . S
Fe441 O452 1.996 . S
Fe441 O456 1.976 . S
Fe441 O459 2.002 . S
O442 Fe440 1.918 . S
O442 Fe441 1.918 . S
O442 Fe443 1.918 . S
Fe443 O442 1.918 . S
Fe443 O444 2.002 . S
Fe443 O453 1.976 . S
Fe443 O457 1.996 . S
Fe443 O460 1.997 . S
O444 Fe443 2.002 . S
O444 C461 1.295 . S
O445 Fe440 1.997 . S
O445 C461 1.235 . S
O446 Fe440 2.002 . S
O446 C447 1.295 . S
C447 O446 1.295 . S
C447 O449 1.235 . S
C448 O453 1.287 . S
C448 O454 1.255 . S
O449 Fe441 1.997 . S
O449 C447 1.235 . S
C450 O456 1.287 . S
C450 O457 1.255 . S
O451 Fe440 1.976 . S
O451 C458 1.287 . S
O452 Fe441 1.996 . S
O452 C458 1.255 . S
O453 Fe443 1.976 . S
O453 C448 1.287 . S
O454 Fe440 1.996 . S
O454 C448 1.255 . S
C455 O459 1.295 . S
C455 O460 1.235 . S
O456 Fe441 1.976 . S
O456 C450 1.287 . S
O457 Fe443 1.996 . S
O457 C450 1.255 . S
C458 O451 1.287 . S
C458 O452 1.255 . S
O459 Fe441 2.002 . S
O459 C455 1.295 . S
O460 Fe443 1.997 . S
O460 C455 1.235 . S
C461 O444 1.295 . S
C461 O445 1.235 . S
Fe462 O464 1.918 . S
Fe462 O467 1.997 . S
Fe462 O468 2.002 . S
Fe462 O473 1.976 . S
Fe462 O476 1.996 . S
Fe463 O464 1.918 . S
Fe463 O471 1.997 . S
Fe463 O474 1.996 . S
Fe463 O478 1.976 . S
Fe463 O481 2.002 . S
O464 Fe462 1.918 . S
O464 Fe463 1.918 . S
O464 Fe465 1.918 . S
Fe465 O464 1.918 . S
Fe465 O466 2.002 . S
Fe465 O475 1.976 . S
Fe465 O479 1.996 . S
Fe465 O482 1.997 . S
O466 Fe465 2.002 . S
O466 C483 1.295 . S
O467 Fe462 1.997 . S
O467 C483 1.235 . S
O468 Fe462 2.002 . S
O468 C469 1.295 . S
C469 O468 1.295 . S
C469 O471 1.235 . S
C470 O475 1.287 . S
C470 O476 1.255 . S
O471 Fe463 1.997 . S
O471 C469 1.235 . S
C472 O478 1.287 . S
C472 O479 1.255 . S
O473 Fe462 1.976 . S
O473 C480 1.287 . S
O474 Fe463 1.996 . S
O474 C480 1.255 . S
O475 Fe465 1.976 . S
O475 C470 1.287 . S
O476 Fe462 1.996 . S
O476 C470 1.255 . S
C477 O481 1.295 . S
C477 O482 1.235 . S
O478 Fe463 1.976 . S
O478 C472 1.287 . S
O479 Fe465 1.996 . S
O479 C472 1.255 . S
C480 O473 1.287 . S
C480 O474 1.255 . S
O481 Fe463 2.002 . S
O481 C477 1.295 . S
O482 Fe465 1.997 . S
O482 C477 1.235 . S
C483 O466 1.295 . S
C483 O467 1.235 . S
Fe484 O486 1.918 . S
Fe484 O489 1.997 . S
Fe484 O490 2.002 . S
Fe484 O495 1.976 . S
Fe484 O498 1.996 . S
Fe485 O486 1.918 . S
Fe485 O493 1.997 . S
Fe485 O496 1.996 . S
Fe485 O500 1.976 . S
Fe485 O503 2.002 . S
O486 Fe484 1.918 . S
O486 Fe485 1.918 . S
O486 Fe487 1.918 . S
Fe487 O486 1.918 . S
Fe487 O488 2.002 . S
Fe487 O497 1.976 . S
Fe487 O501 1.996 . S
Fe487 O504 1.997 . S
O488 Fe487 2.002 . S
O488 C505 1.295 . S
O489 Fe484 1.997 . S
O489 C505 1.235 . S
O490 Fe484 2.002 . S
O490 C491 1.295 . S
C491 O490 1.295 . S
C491 O493 1.235 . S
C492 O497 1.287 . S
C492 O498 1.255 . S
O493 Fe485 1.997 . S
O493 C491 1.235 . S
C494 O500 1.287 . S
C494 O501 1.255 . S
O495 Fe484 1.976 . S
O495 C502 1.287 . S
O496 Fe485 1.996 . S
O496 C502 1.255 . S
O497 Fe487 1.976 . S
O497 C492 1.287 . S
O498 Fe484 1.996 . S
O498 C492 1.255 . S
C499 O503 1.295 . S
C499 O504 1.235 . S
O500 Fe485 1.976 . S
O500 C494 1.287 . S
O501 Fe487 1.996 . S
O501 C494 1.255 . S
C502 O495 1.287 . S
C502 O496 1.255 . S
O503 Fe485 2.002 . S
O503 C499 1.295 . S
O504 Fe487 1.997 . S
O504 C499 1.235 . S
C505 O488 1.295 . S
C505 O489 1.235 . S
Fe506 O508 1.918 . S
Fe506 O511 1.997 . S
Fe506 O512 2.002 . S
Fe506 O517 1.976 . S
Fe506 O520 1.996 . S
Fe507 O508 1.918 . S
Fe507 O515 1.997 . S
Fe507 O518 1.996 . S
Fe507 O522 1.976 . S
Fe507 O525 2.002 . S
O508 Fe506 1.918 . S
O508 Fe507 1.918 . S
O508 Fe509 1.918 . S
Fe509 O508 1.918 . S
Fe509 O510 2.002 . S
Fe509 O519 1.976 . S
Fe509 O523 1.996 . S
Fe509 O526 1.997 . S
O510 Fe509 2.002 . S
O510 C527 1.295 . S
O511 Fe506 1.997 . S
O511 C527 1.235 . S
O512 Fe506 2.002 . S
O512 C513 1.295 . S
C513 O512 1.295 . S
C513 O515 1.235 . S
C514 O519 1.287 . S
C514 O520 1.255 . S
O515 Fe507 1.997 . S
O515 C513 1.235 . S
C516 O522 1.287 . S
C516 O523 1.255 . S
O517 Fe506 1.976 . S
O517 C524 1.287 . S
O518 Fe507 1.996 . S
O518 C524 1.255 . S
O519 Fe509 1.976 . S
O519 C514 1.287 . S
O520 Fe506 1.996 . S
O520 C514 1.255 . S
C521 O525 1.295 . S
C521 O526 1.235 . S
O522 Fe507 1.976 . S
O522 C516 1.287 . S
O523 Fe509 1.996 . S
O523 C516 1.255 . S
C524 O517 1.287 . S
C524 O518 1.255 . S
O525 Fe507 2.002 . S
O525 C521 1.295 . S
O526 Fe509 1.997 . S
O526 C521 1.235 . S
C527 O510 1.295 . S
C527 O511 1.235 . S
Fe528 O530 1.918 . S
Fe528 O533 1.997 . S
Fe528 O534 2.002 . S
Fe528 O539 1.976 . S
Fe528 O542 1.996 . S
Fe529 O530 1.918 . S
Fe529 O537 1.997 . S
Fe529 O540 1.996 . S
Fe529 O544 1.976 . S
Fe529 O547 2.002 . S
O530 Fe528 1.918 . S
O530 Fe529 1.918 . S
O530 Fe531 1.918 . S
Fe531 O530 1.918 . S
Fe531 O532 2.002 . S
Fe531 O541 1.976 . S
Fe531 O545 1.996 . S
Fe531 O548 1.997 . S
O532 Fe531 2.002 . S
O532 C549 1.295 . S
O533 Fe528 1.997 . S
O533 C549 1.235 . S
O534 Fe528 2.002 . S
O534 C535 1.295 . S
C535 O534 1.295 . S
C535 O537 1.235 . S
C536 O541 1.287 . S
C536 O542 1.255 . S
O537 Fe529 1.997 . S
O537 C535 1.235 . S
C538 O544 1.287 . S
C538 O545 1.255 . S
O539 Fe528 1.976 . S
O539 C546 1.287 . S
O540 Fe529 1.996 . S
O540 C546 1.255 . S
O541 Fe531 1.976 . S
O541 C536 1.287 . S
O542 Fe528 1.996 . S
O542 C536 1.255 . S
C543 O547 1.295 . S
C543 O548 1.235 . S
O544 Fe529 1.976 . S
O544 C538 1.287 . S
O545 Fe531 1.996 . S
O545 C538 1.255 . S
C546 O539 1.287 . S
C546 O540 1.255 . S
O547 Fe529 2.002 . S
O547 C543 1.295 . S
O548 Fe531 1.997 . S
O548 C543 1.235 . S
C549 O532 1.295 . S
C549 O533 1.235 . S
Fe550 O552 1.918 . S
Fe550 O555 1.997 . S
Fe550 O556 2.002 . S
Fe550 O561 1.976 . S
Fe550 O564 1.996 . S
Fe551 O552 1.918 . S
Fe551 O559 1.997 . S
Fe551 O562 1.996 . S
Fe551 O566 1.976 . S
Fe551 O569 2.002 . S
O552 Fe550 1.918 . S
O552 Fe551 1.918 . S
O552 Fe553 1.918 . S
Fe553 O552 1.918 . S
Fe553 O554 2.002 . S
Fe553 O563 1.976 . S
Fe553 O567 1.996 . S
Fe553 O570 1.997 . S
O554 Fe553 2.002 . S
O554 C571 1.295 . S
O555 Fe550 1.997 . S
O555 C571 1.235 . S
O556 Fe550 2.002 . S
O556 C557 1.295 . S
C557 O556 1.295 . S
C557 O559 1.235 . S
C558 O563 1.287 . S
C558 O564 1.255 . S
O559 Fe551 1.997 . S
O559 C557 1.235 . S
C560 O566 1.287 . S
C560 O567 1.255 . S
O561 Fe550 1.976 . S
O561 C568 1.287 . S
O562 Fe551 1.996 . S
O562 C568 1.255 . S
O563 Fe553 1.976 . S
O563 C558 1.287 . S
O564 Fe550 1.996 . S
O564 C558 1.255 . S
C565 O569 1.295 . S
C565 O570 1.235 . S
O566 Fe551 1.976 . S
O566 C560 1.287 . S
O567 Fe553 1.996 . S
O567 C560 1.255 . S
C568 O561 1.287 . S
C568 O562 1.255 . S
O569 Fe551 2.002 . S
O569 C565 1.295 . S
O570 Fe553 1.997 . S
O570 C565 1.235 . S
C571 O554 1.295 . S
C571 O555 1.235 . S
Fe572 O574 1.918 . S
Fe572 O577 1.997 . S
Fe572 O578 2.002 . S
Fe572 O583 1.976 . S
Fe572 O586 1.996 . S
Fe573 O574 1.918 . S
Fe573 O581 1.997 . S
Fe573 O584 1.996 . S
Fe573 O588 1.976 . S
Fe573 O591 2.002 . S
O574 Fe572 1.918 . S
O574 Fe573 1.918 . S
O574 Fe575 1.918 . S
Fe575 O574 1.918 . S
Fe575 O576 2.002 . S
Fe575 O585 1.976 . S
Fe575 O589 1.996 . S
Fe575 O592 1.997 . S
O576 Fe575 2.002 . S
O576 C593 1.295 . S
O577 Fe572 1.997 . S
O577 C593 1.235 . S
O578 Fe572 2.002 . S
O578 C579 1.295 . S
C579 O578 1.295 . S
C579 O581 1.235 . S
C580 O585 1.287 . S
C580 O586 1.255 . S
O581 Fe573 1.997 . S
O581 C579 1.235 . S
C582 O588 1.287 . S
C582 O589 1.255 . S
O583 Fe572 1.976 . S
O583 C590 1.287 . S
O584 Fe573 1.996 . S
O584 C590 1.255 . S
O585 Fe575 1.976 . S
O585 C580 1.287 . S
O586 Fe572 1.996 . S
O586 C580 1.255 . S
C587 O591 1.295 . S
C587 O592 1.235 . S
O588 Fe573 1.976 . S
O588 C582 1.287 . S
O589 Fe575 1.996 . S
O589 C582 1.255 . S
C590 O583 1.287 . S
C590 O584 1.255 . S
O591 Fe573 2.002 . S
O591 C587 1.295 . S
O592 Fe575 1.997 . S
O592 C587 1.235 . S
C593 O576 1.295 . S
C593 O577 1.235 . S
Fe594 O596 1.918 . S
Fe594 O599 1.997 . S
Fe594 O600 2.002 . S
Fe594 O605 1.976 . S
Fe594 O608 1.996 . S
Fe595 O596 1.918 . S
Fe595 O603 1.997 . S
Fe595 O606 1.996 . S
Fe595 O610 1.976 . S
Fe595 O613 2.002 . S
O596 Fe594 1.918 . S
O596 Fe595 1.918 . S
O596 Fe597 1.918 . S
Fe597 O596 1.918 . S
Fe597 O598 2.002 . S
Fe597 O607 1.976 . S
Fe597 O611 1.996 . S
Fe597 O614 1.997 . S
O598 Fe597 2.002 . S
O598 C615 1.295 . S
O599 Fe594 1.997 . S
O599 C615 1.235 . S
O600 Fe594 2.002 . S
O600 C601 1.295 . S
C601 O600 1.295 . S
C601 O603 1.235 . S
C602 O607 1.287 . S
C602 O608 1.255 . S
O603 Fe595 1.997 . S
O603 C601 1.235 . S
C604 O610 1.287 . S
C604 O611 1.255 . S
O605 Fe594 1.976 . S
O605 C612 1.287 . S
O606 Fe595 1.996 . S
O606 C612 1.255 . S
O607 Fe597 1.976 . S
O607 C602 1.287 . S
O608 Fe594 1.996 . S
O608 C602 1.255 . S
C609 O613 1.295 . S
C609 O614 1.235 . S
O610 Fe595 1.976 . S
O610 C604 1.287 . S
O611 Fe597 1.996 . S
O611 C604 1.255 . S
C612 O605 1.287 . S
C612 O606 1.255 . S
O613 Fe595 2.002 . S
O613 C609 1.295 . S
O614 Fe597 1.997 . S
O614 C609 1.235 . S
C615 O598 1.295 . S
C615 O599 1.235 . S
Fe616 O618 1.918 . S
Fe616 O621 1.997 . S
Fe616 O622 2.002 . S
Fe616 O627 1.976 . S
Fe616 O630 1.996 . S
Fe617 O618 1.918 . S
Fe617 O625 1.997 . S
Fe617 O628 1.996 . S
Fe617 O632 1.976 . S
Fe617 O635 2.002 . S
O618 Fe616 1.918 . S
O618 Fe617 1.918 . S
O618 Fe619 1.918 . S
Fe619 O618 1.918 . S
Fe619 O620 2.002 . S
Fe619 O629 1.976 . S
Fe619 O633 1.996 . S
Fe619 O636 1.997 . S
O620 Fe619 2.002 . S
O620 C637 1.295 . S
O621 Fe616 1.997 . S
O621 C637 1.235 . S
O622 Fe616 2.002 . S
O622 C623 1.295 . S
C623 O622 1.295 . S
C623 O625 1.235 . S
C624 O629 1.287 . S
C624 O630 1.255 . S
O625 Fe617 1.997 . S
O625 C623 1.235 . S
C626 O632 1.287 . S
C626 O633 1.255 . S
O627 Fe616 1.976 . S
O627 C634 1.287 . S
O628 Fe617 1.996 . S
O628 C634 1.255 . S
O629 Fe619 1.976 . S
O629 C624 1.287 . S
O630 Fe616 1.996 . S
O630 C624 1.255 . S
C631 O635 1.295 . S
C631 O636 1.235 . S
O632 Fe617 1.976 . S
O632 C626 1.287 . S
O633 Fe619 1.996 . S
O633 C626 1.255 . S
C634 O627 1.287 . S
C634 O628 1.255 . S
O635 Fe617 2.002 . S
O635 C631 1.295 . S
O636 Fe619 1.997 . S
O636 C631 1.235 . S
C637 O620 1.295 . S
C637 O621 1.235 . S
Fe638 O640 1.918 . S
Fe638 O643 1.997 . S
Fe638 O644 2.002 . S
Fe638 O649 1.976 . S
Fe638 O652 1.996 . S
Fe639 O640 1.918 . S
Fe639 O647 1.997 . S
Fe639 O650 1.996 . S
Fe639 O654 1.976 . S
Fe639 O657 2.002 . S
O640 Fe638 1.918 . S
O640 Fe639 1.918 . S
O640 Fe641 1.918 . S
Fe641 O640 1.918 . S
Fe641 O642 2.002 . S
Fe641 O651 1.976 . S
Fe641 O655 1.996 . S
Fe641 O658 1.997 . S
O642 Fe641 2.002 . S
O642 C659 1.295 . S
O643 Fe638 1.997 . S
O643 C659 1.235 . S
O644 Fe638 2.002 . S
O644 C645 1.295 . S
C645 O644 1.295 . S
C645 O647 1.235 . S
C646 O651 1.287 . S
C646 O652 1.255 . S
O647 Fe639 1.997 . S
O647 C645 1.235 . S
C648 O654 1.287 . S
C648 O655 1.255 . S
O649 Fe638 1.976 . S
O649 C656 1.287 . S
O650 Fe639 1.996 . S
O650 C656 1.255 . S
O651 Fe641 1.976 . S
O651 C646 1.287 . S
O652 Fe638 1.996 . S
O652 C646 1.255 . S
C653 O657 1.295 . S
C653 O658 1.235 . S
O654 Fe639 1.976 . S
O654 C648 1.287 . S
O655 Fe641 1.996 . S
O655 C648 1.255 . S
C656 O649 1.287 . S
C656 O650 1.255 . S
O657 Fe639 2.002 . S
O657 C653 1.295 . S
O658 Fe641 1.997 . S
O658 C653 1.235 . S
C659 O642 1.295 . S
C659 O643 1.235 . S
Fe660 O662 1.918 . S
Fe660 O665 1.997 . S
Fe660 O666 2.002 . S
Fe660 O671 1.976 . S
Fe660 O674 1.996 . S
Fe661 O662 1.918 . S
Fe661 O669 1.997 . S
Fe661 O672 1.996 . S
Fe661 O676 1.976 . S
Fe661 O679 2.002 . S
O662 Fe660 1.918 . S
O662 Fe661 1.918 . S
O662 Fe663 1.918 . S
Fe663 O662 1.918 . S
Fe663 O664 2.002 . S
Fe663 O673 1.976 . S
Fe663 O677 1.996 . S
Fe663 O680 1.997 . S
O664 Fe663 2.002 . S
O664 C681 1.295 . S
O665 Fe660 1.997 . S
O665 C681 1.235 . S
O666 Fe660 2.002 . S
O666 C667 1.295 . S
C667 O666 1.295 . S
C667 O669 1.235 . S
C668 O673 1.287 . S
C668 O674 1.255 . S
O669 Fe661 1.997 . S
O669 C667 1.235 . S
C670 O676 1.287 . S
C670 O677 1.255 . S
O671 Fe660 1.976 . S
O671 C678 1.287 . S
O672 Fe661 1.996 . S
O672 C678 1.255 . S
O673 Fe663 1.976 . S
O673 C668 1.287 . S
O674 Fe660 1.996 . S
O674 C668 1.255 . S
C675 O679 1.295 . S
C675 O680 1.235 . S
O676 Fe661 1.976 . S
O676 C670 1.287 . S
O677 Fe663 1.996 . S
O677 C670 1.255 . S
C678 O671 1.287 . S
C678 O672 1.255 . S
O679 Fe661 2.002 . S
O679 C675 1.295 . S
O680 Fe663 1.997 . S
O680 C675 1.235 . S
C681 O664 1.295 . S
C681 O665 1.235 . S
Fe682 O684 1.918 . S
Fe682 O687 1.997 . S
Fe682 O688 2.002 . S
Fe682 O693 1.976 . S
Fe682 O696 1.996 . S
Fe683 O684 1.918 . S
Fe683 O691 1.997 . S
Fe683 O694 1.996 . S
Fe683 O698 1.976 . S
Fe683 O701 2.002 . S
O684 Fe682 1.918 . S
O684 Fe683 1.918 . S
O684 Fe685 1.918 . S
Fe685 O684 1.918 . S
Fe685 O686 2.002 . S
Fe685 O695 1.976 . S
Fe685 O699 1.996 . S
Fe685 O702 1.997 . S
O686 Fe685 2.002 . S
O686 C703 1.295 . S
O687 Fe682 1.997 . S
O687 C703 1.235 . S
O688 Fe682 2.002 . S
O688 C689 1.295 . S
C689 O688 1.295 . S
C689 O691 1.235 . S
C690 O695 1.287 . S
C690 O696 1.255 . S
O691 Fe683 1.997 . S
O691 C689 1.235 . S
C692 O698 1.287 . S
C692 O699 1.255 . S
O693 Fe682 1.976 . S
O693 C700 1.287 . S
O694 Fe683 1.996 . S
O694 C700 1.255 . S
O695 Fe685 1.976 . S
O695 C690 1.287 . S
O696 Fe682 1.996 . S
O696 C690 1.255 . S
C697 O701 1.295 . S
C697 O702 1.235 . S
O698 Fe683 1.976 . S
O698 C692 1.287 . S
O699 Fe685 1.996 . S
O699 C692 1.255 . S
C700 O693 1.287 . S
C700 O694 1.255 . S
O701 Fe683 2.002 . S
O701 C697 1.295 . S
O702 Fe685 1.997 . S
O702 C697 1.235 . S
C703 O686 1.295 . S
C703 O687 1.235 . S
H704 C710 0.930 . S
H705 C713 0.930 . S
H706 C714 0.930 . S
H707 C715 0.930 . S
H708 C718 0.930 . S
H709 C719 0.930 . S
C710 H704 0.930 . S
C710 C711 1.355 . S
C710 C712 1.415 . S
C711 C710 1.355 . S
C711 C713 1.419 . S
C712 C710 1.415 . S
C712 C717 1.425 . S
C712 C719 1.409 . S
C713 H705 0.930 . S
C713 C711 1.419 . S
C713 C714 1.362 . S
C714 H706 0.930 . S
C714 C713 1.362 . S
C714 C717 1.409 . S
C715 H707 0.930 . S
C715 C716 1.355 . S
C715 C717 1.415 . S
C716 C715 1.355 . S
C716 C718 1.419 . S
C717 C712 1.425 . S
C717 C714 1.409 . S
C717 C715 1.415 . S
C718 H708 0.930 . S
C718 C716 1.419 . S
C718 C719 1.362 . S
C719 H709 0.930 . S
C719 C712 1.409 . S
C719 C718 1.362 . S
H720 C726 0.930 . S
H721 C729 0.930 . S
H722 C730 0.930 . S
H723 C731 0.930 . S
H724 C734 0.930 . S
H725 C735 0.930 . S
C726 H720 0.930 . S
C726 C727 1.355 . S
C726 C728 1.415 . S
C727 C726 1.355 . S
C727 C729 1.419 . S
C728 C726 1.415 . S
C728 C733 1.425 . S
C728 C735 1.409 . S
C729 H721 0.930 . S
C729 C727 1.419 . S
C729 C730 1.362 . S
C730 H722 0.930 . S
C730 C729 1.362 . S
C730 C733 1.409 . S
C731 H723 0.930 . S
C731 C732 1.355 . S
C731 C733 1.415 . S
C732 C731 1.355 . S
C732 C734 1.419 . S
C733 C728 1.425 . S
C733 C730 1.409 . S
C733 C731 1.415 . S
C734 H724 0.930 . S
C734 C732 1.419 . S
C734 C735 1.362 . S
C735 H725 0.930 . S
C735 C728 1.409 . S
C735 C734 1.362 . S
H736 C742 0.930 . S
H737 C745 0.930 . S
H738 C746 0.930 . S
H739 C747 0.930 . S
H740 C750 0.930 . S
H741 C751 0.930 . S
C742 H736 0.930 . S
C742 C743 1.355 . S
C742 C744 1.415 . S
C743 C742 1.355 . S
C743 C745 1.419 . S
C744 C742 1.415 . S
C744 C749 1.425 . S
C744 C751 1.409 . S
C745 H737 0.930 . S
C745 C743 1.419 . S
C745 C746 1.362 . S
C746 H738 0.930 . S
C746 C745 1.362 . S
C746 C749 1.409 . S
C747 H739 0.930 . S
C747 C748 1.355 . S
C747 C749 1.415 . S
C748 C747 1.355 . S
C748 C750 1.419 . S
C749 C744 1.425 . S
C749 C746 1.409 . S
C749 C747 1.415 . S
C750 H740 0.930 . S
C750 C748 1.419 . S
C750 C751 1.362 . S
C751 H741 0.930 . S
C751 C744 1.409 . S
C751 C750 1.362 . S
H752 C758 0.930 . S
H753 C761 0.930 . S
H754 C762 0.930 . S
H755 C763 0.930 . S
H756 C766 0.930 . S
H757 C767 0.930 . S
C758 H752 0.930 . S
C758 C759 1.355 . S
C758 C760 1.415 . S
C759 C758 1.355 . S
C759 C761 1.419 . S
C760 C758 1.415 . S
C760 C765 1.425 . S
C760 C767 1.409 . S
C761 H753 0.930 . S
C761 C759 1.419 . S
C761 C762 1.362 . S
C762 H754 0.930 . S
C762 C761 1.362 . S
C762 C765 1.409 . S
C763 H755 0.930 . S
C763 C764 1.355 . S
C763 C765 1.415 . S
C764 C763 1.355 . S
C764 C766 1.419 . S
C765 C760 1.425 . S
C765 C762 1.409 . S
C765 C763 1.415 . S
C766 H756 0.930 . S
C766 C764 1.419 . S
C766 C767 1.362 . S
C767 H757 0.930 . S
C767 C760 1.409 . S
C767 C766 1.362 . S
H768 C774 0.930 . S
H769 C777 0.930 . S
H770 C778 0.930 . S
H771 C779 0.930 . S
H772 C782 0.930 . S
H773 C783 0.930 . S
C774 H768 0.930 . S
C774 C775 1.355 . S
C774 C776 1.415 . S
C775 C774 1.355 . S
C775 C777 1.419 . S
C776 C774 1.415 . S
C776 C781 1.425 . S
C776 C783 1.409 . S
C777 H769 0.930 . S
C777 C775 1.419 . S
C777 C778 1.362 . S
C778 H770 0.930 . S
C778 C777 1.362 . S
C778 C781 1.409 . S
C779 H771 0.930 . S
C779 C780 1.355 . S
C779 C781 1.415 . S
C780 C779 1.355 . S
C780 C782 1.419 . S
C781 C776 1.425 . S
C781 C778 1.409 . S
C781 C779 1.415 . S
C782 H772 0.930 . S
C782 C780 1.419 . S
C782 C783 1.362 . S
C783 H773 0.930 . S
C783 C776 1.409 . S
C783 C782 1.362 . S
H784 C790 0.930 . S
H785 C793 0.930 . S
H786 C794 0.930 . S
H787 C795 0.930 . S
H788 C798 0.930 . S
H789 C799 0.930 . S
C790 H784 0.930 . S
C790 C791 1.355 . S
C790 C792 1.415 . S
C791 C790 1.355 . S
C791 C793 1.419 . S
C792 C790 1.415 . S
C792 C797 1.425 . S
C792 C799 1.409 . S
C793 H785 0.930 . S
C793 C791 1.419 . S
C793 C794 1.362 . S
C794 H786 0.930 . S
C794 C793 1.362 . S
C794 C797 1.409 . S
C795 H787 0.930 . S
C795 C796 1.355 . S
C795 C797 1.415 . S
C796 C795 1.355 . S
C796 C798 1.419 . S
C797 C792 1.425 . S
C797 C794 1.409 . S
C797 C795 1.415 . S
C798 H788 0.930 . S
C798 C796 1.419 . S
C798 C799 1.362 . S
C799 H789 0.930 . S
C799 C792 1.409 . S
C799 C798 1.362 . S
H800 C806 0.930 . S
H801 C809 0.930 . S
H802 C810 0.930 . S
H803 C811 0.930 . S
H804 C814 0.930 . S
H805 C815 0.930 . S
C806 H800 0.930 . S
C806 C807 1.355 . S
C806 C808 1.415 . S
C807 C806 1.355 . S
C807 C809 1.419 . S
C808 C806 1.415 . S
C808 C813 1.425 . S
C808 C815 1.409 . S
C809 H801 0.930 . S
C809 C807 1.419 . S
C809 C810 1.362 . S
C810 H802 0.930 . S
C810 C809 1.362 . S
C810 C813 1.409 . S
C811 H803 0.930 . S
C811 C812 1.355 . S
C811 C813 1.415 . S
C812 C811 1.355 . S
C812 C814 1.419 . S
C813 C808 1.425 . S
C813 C810 1.409 . S
C813 C811 1.415 . S
C814 H804 0.930 . S
C814 C812 1.419 . S
C814 C815 1.362 . S
C815 H805 0.930 . S
C815 C808 1.409 . S
C815 C814 1.362 . S
H816 C822 0.930 . S
H817 C825 0.930 . S
H818 C826 0.930 . S
H819 C827 0.930 . S
H820 C830 0.930 . S
H821 C831 0.930 . S
C822 H816 0.930 . S
C822 C823 1.355 . S
C822 C824 1.415 . S
C823 C822 1.355 . S
C823 C825 1.419 . S
C824 C822 1.415 . S
C824 C829 1.425 . S
C824 C831 1.409 . S
C825 H817 0.930 . S
C825 C823 1.419 . S
C825 C826 1.362 . S
C826 H818 0.930 . S
C826 C825 1.362 . S
C826 C829 1.409 . S
C827 H819 0.930 . S
C827 C828 1.355 . S
C827 C829 1.415 . S
C828 C827 1.355 . S
C828 C830 1.419 . S
C829 C824 1.425 . S
C829 C826 1.409 . S
C829 C827 1.415 . S
C830 H820 0.930 . S
C830 C828 1.419 . S
C830 C831 1.362 . S
C831 H821 0.930 . S
C831 C824 1.409 . S
C831 C830 1.362 . S
H832 C838 0.930 . S
H833 C841 0.930 . S
H834 C842 0.930 . S
H835 C843 0.930 . S
H836 C846 0.930 . S
H837 C847 0.930 . S
C838 H832 0.930 . S
C838 C839 1.355 . S
C838 C840 1.415 . S
C839 C838 1.355 . S
C839 C841 1.419 . S
C840 C838 1.415 . S
C840 C845 1.425 . S
C840 C847 1.409 . S
C841 H833 0.930 . S
C841 C839 1.419 . S
C841 C842 1.362 . S
C842 H834 0.930 . S
C842 C841 1.362 . S
C842 C845 1.409 . S
C843 H835 0.930 . S
C843 C844 1.355 . S
C843 C845 1.415 . S
C844 C843 1.355 . S
C844 C846 1.419 . S
C845 C840 1.425 . S
C845 C842 1.409 . S
C845 C843 1.415 . S
C846 H836 0.930 . S
C846 C844 1.419 . S
C846 C847 1.362 . S
C847 H837 0.930 . S
C847 C840 1.409 . S
C847 C846 1.362 . S
H848 C854 0.930 . S
H849 C857 0.930 . S
H850 C858 0.930 . S
H851 C859 0.930 . S
H852 C862 0.930 . S
H853 C863 0.930 . S
C854 H848 0.930 . S
C854 C855 1.355 . S
C854 C856 1.415 . S
C855 C854 1.355 . S
C855 C857 1.419 . S
C856 C854 1.415 . S
C856 C861 1.425 . S
C856 C863 1.409 . S
C857 H849 0.930 . S
C857 C855 1.419 . S
C857 C858 1.362 . S
C858 H850 0.930 . S
C858 C857 1.362 . S
C858 C861 1.409 . S
C859 H851 0.930 . S
C859 C860 1.355 . S
C859 C861 1.415 . S
C860 C859 1.355 . S
C860 C862 1.419 . S
C861 C856 1.425 . S
C861 C858 1.409 . S
C861 C859 1.415 . S
C862 H852 0.930 . S
C862 C860 1.419 . S
C862 C863 1.362 . S
C863 H853 0.930 . S
C863 C856 1.409 . S
C863 C862 1.362 . S
H864 C870 0.930 . S
H865 C873 0.930 . S
H866 C874 0.930 . S
H867 C875 0.930 . S
H868 C878 0.930 . S
H869 C879 0.930 . S
C870 H864 0.930 . S
C870 C871 1.355 . S
C870 C872 1.415 . S
C871 C870 1.355 . S
C871 C873 1.419 . S
C872 C870 1.415 . S
C872 C877 1.425 . S
C872 C879 1.409 . S
C873 H865 0.930 . S
C873 C871 1.419 . S
C873 C874 1.362 . S
C874 H866 0.930 . S
C874 C873 1.362 . S
C874 C877 1.409 . S
C875 H867 0.930 . S
C875 C876 1.355 . S
C875 C877 1.415 . S
C876 C875 1.355 . S
C876 C878 1.419 . S
C877 C872 1.425 . S
C877 C874 1.409 . S
C877 C875 1.415 . S
C878 H868 0.930 . S
C878 C876 1.419 . S
C878 C879 1.362 . S
C879 H869 0.930 . S
C879 C872 1.409 . S
C879 C878 1.362 . S
H880 C886 0.930 . S
H881 C889 0.930 . S
H882 C890 0.930 . S
H883 C891 0.930 . S
H884 C894 0.930 . S
H885 C895 0.930 . S
C886 H880 0.930 . S
C886 C887 1.355 . S
C886 C888 1.415 . S
C887 C886 1.355 . S
C887 C889 1.419 . S
C888 C886 1.415 . S
C888 C893 1.425 . S
C888 C895 1.409 . S
C889 H881 0.930 . S
C889 C887 1.419 . S
C889 C890 1.362 . S
C890 H882 0.930 . S
C890 C889 1.362 . S
C890 C893 1.409 . S
C891 H883 0.930 . S
C891 C892 1.355 . S
C891 C893 1.415 . S
C892 C891 1.355 . S
C892 C894 1.419 . S
C893 C888 1.425 . S
C893 C890 1.409 . S
C893 C891 1.415 . S
C894 H884 0.930 . S
C894 C892 1.419 . S
C894 C895 1.362 . S
C895 H885 0.930 . S
C895 C888 1.409 . S
C895 C894 1.362 . S
H896 C902 0.930 . S
H897 C905 0.930 . S
H898 C906 0.930 . S
H899 C907 0.930 . S
H900 C910 0.930 . S
H901 C911 0.930 . S
C902 H896 0.930 . S
C902 C903 1.355 . S
C902 C904 1.415 . S
C903 C902 1.355 . S
C903 C905 1.419 . S
C904 C902 1.415 . S
C904 C909 1.425 . S
C904 C911 1.409 . S
C905 H897 0.930 . S
C905 C903 1.419 . S
C905 C906 1.362 . S
C906 H898 0.930 . S
C906 C905 1.362 . S
C906 C909 1.409 . S
C907 H899 0.930 . S
C907 C908 1.355 . S
C907 C909 1.415 . S
C908 C907 1.355 . S
C908 C910 1.419 . S
C909 C904 1.425 . S
C909 C906 1.409 . S
C909 C907 1.415 . S
C910 H900 0.930 . S
C910 C908 1.419 . S
C910 C911 1.362 . S
C911 H901 0.930 . S
C911 C904 1.409 . S
C911 C910 1.362 . S
H912 C918 0.930 . S
H913 C921 0.930 . S
H914 C922 0.930 . S
H915 C923 0.930 . S
H916 C926 0.930 . S
H917 C927 0.930 . S
C918 H912 0.930 . S
C918 C919 1.355 . S
C918 C920 1.415 . S
C919 C918 1.355 . S
C919 C921 1.419 . S
C920 C918 1.415 . S
C920 C925 1.425 . S
C920 C927 1.409 . S
C921 H913 0.930 . S
C921 C919 1.419 . S
C921 C922 1.362 . S
C922 H914 0.930 . S
C922 C921 1.362 . S
C922 C925 1.409 . S
C923 H915 0.930 . S
C923 C924 1.355 . S
C923 C925 1.415 . S
C924 C923 1.355 . S
C924 C926 1.419 . S
C925 C920 1.425 . S
C925 C922 1.409 . S
C925 C923 1.415 . S
C926 H916 0.930 . S
C926 C924 1.419 . S
C926 C927 1.362 . S
C927 H917 0.930 . S
C927 C920 1.409 . S
C927 C926 1.362 . S
H928 C934 0.930 . S
H929 C937 0.930 . S
H930 C938 0.930 . S
H931 C939 0.930 . S
H932 C942 0.930 . S
H933 C943 0.930 . S
C934 H928 0.930 . S
C934 C935 1.355 . S
C934 C936 1.415 . S
C935 C934 1.355 . S
C935 C937 1.419 . S
C936 C934 1.415 . S
C936 C941 1.425 . S
C936 C943 1.409 . S
C937 H929 0.930 . S
C937 C935 1.419 . S
C937 C938 1.362 . S
C938 H930 0.930 . S
C938 C937 1.362 . S
C938 C941 1.409 . S
C939 H931 0.930 . S
C939 C940 1.355 . S
C939 C941 1.415 . S
C940 C939 1.355 . S
C940 C942 1.419 . S
C941 C936 1.425 . S
C941 C938 1.409 . S
C941 C939 1.415 . S
C942 H932 0.930 . S
C942 C940 1.419 . S
C942 C943 1.362 . S
C943 H933 0.930 . S
C943 C936 1.409 . S
C943 C942 1.362 . S
H944 C950 0.930 . S
H945 C953 0.930 . S
H946 C954 0.930 . S
H947 C955 0.930 . S
H948 C958 0.930 . S
H949 C959 0.930 . S
C950 H944 0.930 . S
C950 C951 1.355 . S
C950 C952 1.415 . S
C951 C950 1.355 . S
C951 C953 1.419 . S
C952 C950 1.415 . S
C952 C957 1.425 . S
C952 C959 1.409 . S
C953 H945 0.930 . S
C953 C951 1.419 . S
C953 C954 1.362 . S
C954 H946 0.930 . S
C954 C953 1.362 . S
C954 C957 1.409 . S
C955 H947 0.930 . S
C955 C956 1.355 . S
C955 C957 1.415 . S
C956 C955 1.355 . S
C956 C958 1.419 . S
C957 C952 1.425 . S
C957 C954 1.409 . S
C957 C955 1.415 . S
C958 H948 0.930 . S
C958 C956 1.419 . S
C958 C959 1.362 . S
C959 H949 0.930 . S
C959 C952 1.409 . S
C959 C958 1.362 . S
H960 C966 0.930 . S
H961 C969 0.930 . S
H962 C970 0.930 . S
H963 C971 0.930 . S
H964 C974 0.930 . S
H965 C975 0.930 . S
C966 H960 0.930 . S
C966 C967 1.355 . S
C966 C968 1.415 . S
C967 C966 1.355 . S
C967 C969 1.419 . S
C968 C966 1.415 . S
C968 C973 1.425 . S
C968 C975 1.409 . S
C969 H961 0.930 . S
C969 C967 1.419 . S
C969 C970 1.362 . S
C970 H962 0.930 . S
C970 C969 1.362 . S
C970 C973 1.409 . S
C971 H963 0.930 . S
C971 C972 1.355 . S
C971 C973 1.415 . S
C972 C971 1.355 . S
C972 C974 1.419 . S
C973 C968 1.425 . S
C973 C970 1.409 . S
C973 C971 1.415 . S
C974 H964 0.930 . S
C974 C972 1.419 . S
C974 C975 1.362 . S
C975 H965 0.930 . S
C975 C968 1.409 . S
C975 C974 1.362 . S
H976 C982 0.930 . S
H977 C985 0.930 . S
H978 C986 0.930 . S
H979 C987 0.930 . S
H980 C990 0.930 . S
H981 C991 0.930 . S
C982 H976 0.930 . S
C982 C983 1.355 . S
C982 C984 1.415 . S
C983 C982 1.355 . S
C983 C985 1.419 . S
C984 C982 1.415 . S
C984 C989 1.425 . S
C984 C991 1.409 . S
C985 H977 0.930 . S
C985 C983 1.419 . S
C985 C986 1.362 . S
C986 H978 0.930 . S
C986 C985 1.362 . S
C986 C989 1.409 . S
C987 H979 0.930 . S
C987 C988 1.355 . S
C987 C989 1.415 . S
C988 C987 1.355 . S
C988 C990 1.419 . S
C989 C984 1.425 . S
C989 C986 1.409 . S
C989 C987 1.415 . S
C990 H980 0.930 . S
C990 C988 1.419 . S
C990 C991 1.362 . S
C991 H981 0.930 . S
C991 C984 1.409 . S
C991 C990 1.362 . S
H992 C998 0.930 . S
H993 C1001 0.930 . S
H994 C1002 0.930 . S
H995 C1003 0.930 . S
H996 C1006 0.930 . S
H997 C1007 0.930 . S
C998 H992 0.930 . S
C998 C999 1.355 . S
C998 C1000 1.415 . S
C999 C998 1.355 . S
C999 C1001 1.419 . S
C1000 C998 1.415 . S
C1000 C1005 1.425 . S
C1000 C1007 1.409 . S
C1001 H993 0.930 . S
C1001 C999 1.419 . S
C1001 C1002 1.362 . S
C1002 H994 0.930 . S
C1002 C1001 1.362 . S
C1002 C1005 1.409 . S
C1003 H995 0.930 . S
C1003 C1004 1.355 . S
C1003 C1005 1.415 . S
C1004 C1003 1.355 . S
C1004 C1006 1.419 . S
C1005 C1000 1.425 . S
C1005 C1002 1.409 . S
C1005 C1003 1.415 . S
C1006 H996 0.930 . S
C1006 C1004 1.419 . S
C1006 C1007 1.362 . S
C1007 H997 0.930 . S
C1007 C1000 1.409 . S
C1007 C1006 1.362 . S
H1008 C1014 0.930 . S
H1009 C1017 0.930 . S
H1010 C1018 0.930 . S
H1011 C1019 0.930 . S
H1012 C1022 0.930 . S
H1013 C1023 0.930 . S
C1014 H1008 0.930 . S
C1014 C1015 1.355 . S
C1014 C1016 1.415 . S
C1015 C1014 1.355 . S
C1015 C1017 1.419 . S
C1016 C1014 1.415 . S
C1016 C1021 1.425 . S
C1016 C1023 1.409 . S
C1017 H1009 0.930 . S
C1017 C1015 1.419 . S
C1017 C1018 1.362 . S
C1018 H1010 0.930 . S
C1018 C1017 1.362 . S
C1018 C1021 1.409 . S
C1019 H1011 0.930 . S
C1019 C1020 1.355 . S
C1019 C1021 1.415 . S
C1020 C1019 1.355 . S
C1020 C1022 1.419 . S
C1021 C1016 1.425 . S
C1021 C1018 1.409 . S
C1021 C1019 1.415 . S
C1022 H1012 0.930 . S
C1022 C1020 1.419 . S
C1022 C1023 1.362 . S
C1023 H1013 0.930 . S
C1023 C1016 1.409 . S
C1023 C1022 1.362 . S
H1024 C1030 0.930 . S
H1025 C1033 0.930 . S
H1026 C1034 0.930 . S
H1027 C1035 0.930 . S
H1028 C1038 0.930 . S
H1029 C1039 0.930 . S
C1030 H1024 0.930 . S
C1030 C1031 1.355 . S
C1030 C1032 1.415 . S
C1031 C1030 1.355 . S
C1031 C1033 1.419 . S
C1032 C1030 1.415 . S
C1032 C1037 1.425 . S
C1032 C1039 1.409 . S
C1033 H1025 0.930 . S
C1033 C1031 1.419 . S
C1033 C1034 1.362 . S
C1034 H1026 0.930 . S
C1034 C1033 1.362 . S
C1034 C1037 1.409 . S
C1035 H1027 0.930 . S
C1035 C1036 1.355 . S
C1035 C1037 1.415 . S
C1036 C1035 1.355 . S
C1036 C1038 1.419 . S
C1037 C1032 1.425 . S
C1037 C1034 1.409 . S
C1037 C1035 1.415 . S
C1038 H1028 0.930 . S
C1038 C1036 1.419 . S
C1038 C1039 1.362 . S
C1039 H1029 0.930 . S
C1039 C1032 1.409 . S
C1039 C1038 1.362 . S
H1040 C1046 0.930 . S
H1041 C1049 0.930 . S
H1042 C1050 0.930 . S
H1043 C1051 0.930 . S
H1044 C1054 0.930 . S
H1045 C1055 0.930 . S
C1046 H1040 0.930 . S
C1046 C1047 1.355 . S
C1046 C1048 1.415 . S
C1047 C1046 1.355 . S
C1047 C1049 1.419 . S
C1048 C1046 1.415 . S
C1048 C1053 1.425 . S
C1048 C1055 1.409 . S
C1049 H1041 0.930 . S
C1049 C1047 1.419 . S
C1049 C1050 1.362 . S
C1050 H1042 0.930 . S
C1050 C1049 1.362 . S
C1050 C1053 1.409 . S
C1051 H1043 0.930 . S
C1051 C1052 1.355 . S
C1051 C1053 1.415 . S
C1052 C1051 1.355 . S
C1052 C1054 1.419 . S
C1053 C1048 1.425 . S
C1053 C1050 1.409 . S
C1053 C1051 1.415 . S
C1054 H1044 0.930 . S
C1054 C1052 1.419 . S
C1054 C1055 1.362 . S
C1055 H1045 0.930 . S
C1055 C1048 1.409 . S
C1055 C1054 1.362 . S
H1056 C1062 0.930 . S
H1057 C1065 0.930 . S
H1058 C1066 0.930 . S
H1059 C1067 0.930 . S
H1060 C1070 0.930 . S
H1061 C1071 0.930 . S
C1062 H1056 0.930 . S
C1062 C1063 1.355 . S
C1062 C1064 1.415 . S
C1063 C1062 1.355 . S
C1063 C1065 1.419 . S
C1064 C1062 1.415 . S
C1064 C1069 1.425 . S
C1064 C1071 1.409 . S
C1065 H1057 0.930 . S
C1065 C1063 1.419 . S
C1065 C1066 1.362 . S
C1066 H1058 0.930 . S
C1066 C1065 1.362 . S
C1066 C1069 1.409 . S
C1067 H1059 0.930 . S
C1067 C1068 1.355 . S
C1067 C1069 1.415 . S
C1068 C1067 1.355 . S
C1068 C1070 1.419 . S
C1069 C1064 1.425 . S
C1069 C1066 1.409 . S
C1069 C1067 1.415 . S
C1070 H1060 0.930 . S
C1070 C1068 1.419 . S
C1070 C1071 1.362 . S
C1071 H1061 0.930 . S
C1071 C1064 1.409 . S
C1071 C1070 1.362 . S
H1072 C1078 0.930 . S
H1073 C1081 0.930 . S
H1074 C1082 0.930 . S
H1075 C1083 0.930 . S
H1076 C1086 0.930 . S
H1077 C1087 0.930 . S
C1078 H1072 0.930 . S
C1078 C1079 1.355 . S
C1078 C1080 1.415 . S
C1079 C1078 1.355 . S
C1079 C1081 1.419 . S
C1080 C1078 1.415 . S
C1080 C1085 1.425 . S
C1080 C1087 1.409 . S
C1081 H1073 0.930 . S
C1081 C1079 1.419 . S
C1081 C1082 1.362 . S
C1082 H1074 0.930 . S
C1082 C1081 1.362 . S
C1082 C1085 1.409 . S
C1083 H1075 0.930 . S
C1083 C1084 1.355 . S
C1083 C1085 1.415 . S
C1084 C1083 1.355 . S
C1084 C1086 1.419 . S
C1085 C1080 1.425 . S
C1085 C1082 1.409 . S
C1085 C1083 1.415 . S
C1086 H1076 0.930 . S
C1086 C1084 1.419 . S
C1086 C1087 1.362 . S
C1087 H1077 0.930 . S
C1087 C1080 1.409 . S
C1087 C1086 1.362 . S
H1088 C1094 0.930 . S
H1089 C1097 0.930 . S
H1090 C1098 0.930 . S
H1091 C1099 0.930 . S
H1092 C1102 0.930 . S
H1093 C1103 0.930 . S
C1094 H1088 0.930 . S
C1094 C1095 1.355 . S
C1094 C1096 1.415 . S
C1095 C1094 1.355 . S
C1095 C1097 1.419 . S
C1096 C1094 1.415 . S
C1096 C1101 1.425 . S
C1096 C1103 1.409 . S
C1097 H1089 0.930 . S
C1097 C1095 1.419 . S
C1097 C1098 1.362 . S
C1098 H1090 0.930 . S
C1098 C1097 1.362 . S
C1098 C1101 1.409 . S
C1099 H1091 0.930 . S
C1099 C1100 1.355 . S
C1099 C1101 1.415 . S
C1100 C1099 1.355 . S
C1100 C1102 1.419 . S
C1101 C1096 1.425 . S
C1101 C1098 1.409 . S
C1101 C1099 1.415 . S
C1102 H1092 0.930 . S
C1102 C1100 1.419 . S
C1102 C1103 1.362 . S
C1103 H1093 0.930 . S
C1103 C1096 1.409 . S
C1103 C1102 1.362 . S
H1104 C1110 0.930 . S
H1105 C1113 0.930 . S
H1106 C1114 0.930 . S
H1107 C1115 0.930 . S
H1108 C1118 0.930 . S
H1109 C1119 0.930 . S
C1110 H1104 0.930 . S
C1110 C1111 1.355 . S
C1110 C1112 1.415 . S
C1111 C1110 1.355 . S
C1111 C1113 1.419 . S
C1112 C1110 1.415 . S
C1112 C1117 1.425 . S
C1112 C1119 1.409 . S
C1113 H1105 0.930 . S
C1113 C1111 1.419 . S
C1113 C1114 1.362 . S
C1114 H1106 0.930 . S
C1114 C1113 1.362 . S
C1114 C1117 1.409 . S
C1115 H1107 0.930 . S
C1115 C1116 1.355 . S
C1115 C1117 1.415 . S
C1116 C1115 1.355 . S
C1116 C1118 1.419 . S
C1117 C1112 1.425 . S
C1117 C1114 1.409 . S
C1117 C1115 1.415 . S
C1118 H1108 0.930 . S
C1118 C1116 1.419 . S
C1118 C1119 1.362 . S
C1119 H1109 0.930 . S
C1119 C1112 1.409 . S
C1119 C1118 1.362 . S
H1120 C1126 0.930 . S
H1121 C1129 0.930 . S
H1122 C1130 0.930 . S
H1123 C1131 0.930 . S
H1124 C1134 0.930 . S
H1125 C1135 0.930 . S
C1126 H1120 0.930 . S
C1126 C1127 1.355 . S
C1126 C1128 1.415 . S
C1127 C1126 1.355 . S
C1127 C1129 1.419 . S
C1128 C1126 1.415 . S
C1128 C1133 1.425 . S
C1128 C1135 1.409 . S
C1129 H1121 0.930 . S
C1129 C1127 1.419 . S
C1129 C1130 1.362 . S
C1130 H1122 0.930 . S
C1130 C1129 1.362 . S
C1130 C1133 1.409 . S
C1131 H1123 0.930 . S
C1131 C1132 1.355 . S
C1131 C1133 1.415 . S
C1132 C1131 1.355 . S
C1132 C1134 1.419 . S
C1133 C1128 1.425 . S
C1133 C1130 1.409 . S
C1133 C1131 1.415 . S
C1134 H1124 0.930 . S
C1134 C1132 1.419 . S
C1134 C1135 1.362 . S
C1135 H1125 0.930 . S
C1135 C1128 1.409 . S
C1135 C1134 1.362 . S
H1136 C1142 0.930 . S
H1137 C1145 0.930 . S
H1138 C1146 0.930 . S
H1139 C1147 0.930 . S
H1140 C1150 0.930 . S
H1141 C1151 0.930 . S
C1142 H1136 0.930 . S
C1142 C1143 1.355 . S
C1142 C1144 1.415 . S
C1143 C1142 1.355 . S
C1143 C1145 1.419 . S
C1144 C1142 1.415 . S
C1144 C1149 1.425 . S
C1144 C1151 1.409 . S
C1145 H1137 0.930 . S
C1145 C1143 1.419 . S
C1145 C1146 1.362 . S
C1146 H1138 0.930 . S
C1146 C1145 1.362 . S
C1146 C1149 1.409 . S
C1147 H1139 0.930 . S
C1147 C1148 1.355 . S
C1147 C1149 1.415 . S
C1148 C1147 1.355 . S
C1148 C1150 1.419 . S
C1149 C1144 1.425 . S
C1149 C1146 1.409 . S
C1149 C1147 1.415 . S
C1150 H1140 0.930 . S
C1150 C1148 1.419 . S
C1150 C1151 1.362 . S
C1151 H1141 0.930 . S
C1151 C1144 1.409 . S
C1151 C1150 1.362 . S
H1152 C1158 0.930 . S
H1153 C1161 0.930 . S
H1154 C1162 0.930 . S
H1155 C1163 0.930 . S
H1156 C1166 0.930 . S
H1157 C1167 0.930 . S
C1158 H1152 0.930 . S
C1158 C1159 1.355 . S
C1158 C1160 1.415 . S
C1159 C1158 1.355 . S
C1159 C1161 1.419 . S
C1160 C1158 1.415 . S
C1160 C1165 1.425 . S
C1160 C1167 1.409 . S
C1161 H1153 0.930 . S
C1161 C1159 1.419 . S
C1161 C1162 1.362 . S
C1162 H1154 0.930 . S
C1162 C1161 1.362 . S
C1162 C1165 1.409 . S
C1163 H1155 0.930 . S
C1163 C1164 1.355 . S
C1163 C1165 1.415 . S
C1164 C1163 1.355 . S
C1164 C1166 1.419 . S
C1165 C1160 1.425 . S
C1165 C1162 1.409 . S
C1165 C1163 1.415 . S
C1166 H1156 0.930 . S
C1166 C1164 1.419 . S
C1166 C1167 1.362 . S
C1167 H1157 0.930 . S
C1167 C1160 1.409 . S
C1167 C1166 1.362 . S
H1168 C1174 0.930 . S
H1169 C1177 0.930 . S
H1170 C1178 0.930 . S
H1171 C1179 0.930 . S
H1172 C1182 0.930 . S
H1173 C1183 0.930 . S
C1174 H1168 0.930 . S
C1174 C1175 1.355 . S
C1174 C1176 1.415 . S
C1175 C1174 1.355 . S
C1175 C1177 1.419 . S
C1176 C1174 1.415 . S
C1176 C1181 1.425 . S
C1176 C1183 1.409 . S
C1177 H1169 0.930 . S
C1177 C1175 1.419 . S
C1177 C1178 1.362 . S
C1178 H1170 0.930 . S
C1178 C1177 1.362 . S
C1178 C1181 1.409 . S
C1179 H1171 0.930 . S
C1179 C1180 1.355 . S
C1179 C1181 1.415 . S
C1180 C1179 1.355 . S
C1180 C1182 1.419 . S
C1181 C1176 1.425 . S
C1181 C1178 1.409 . S
C1181 C1179 1.415 . S
C1182 H1172 0.930 . S
C1182 C1180 1.419 . S
C1182 C1183 1.362 . S
C1183 H1173 0.930 . S
C1183 C1176 1.409 . S
C1183 C1182 1.362 . S
H1184 C1190 0.930 . S
H1185 C1193 0.930 . S
H1186 C1194 0.930 . S
H1187 C1195 0.930 . S
H1188 C1198 0.930 . S
H1189 C1199 0.930 . S
C1190 H1184 0.930 . S
C1190 C1191 1.355 . S
C1190 C1192 1.415 . S
C1191 C1190 1.355 . S
C1191 C1193 1.419 . S
C1192 C1190 1.415 . S
C1192 C1197 1.425 . S
C1192 C1199 1.409 . S
C1193 H1185 0.930 . S
C1193 C1191 1.419 . S
C1193 C1194 1.362 . S
C1194 H1186 0.930 . S
C1194 C1193 1.362 . S
C1194 C1197 1.409 . S
C1195 H1187 0.930 . S
C1195 C1196 1.355 . S
C1195 C1197 1.415 . S
C1196 C1195 1.355 . S
C1196 C1198 1.419 . S
C1197 C1192 1.425 . S
C1197 C1194 1.409 . S
C1197 C1195 1.415 . S
C1198 H1188 0.930 . S
C1198 C1196 1.419 . S
C1198 C1199 1.362 . S
C1199 H1189 0.930 . S
C1199 C1192 1.409 . S
C1199 C1198 1.362 . S
H1200 C1206 0.930 . S
H1201 C1209 0.930 . S
H1202 C1210 0.930 . S
H1203 C1211 0.930 . S
H1204 C1214 0.930 . S
H1205 C1215 0.930 . S
C1206 H1200 0.930 . S
C1206 C1207 1.355 . S
C1206 C1208 1.415 . S
C1207 C1206 1.355 . S
C1207 C1209 1.419 . S
C1208 C1206 1.415 . S
C1208 C1213 1.425 . S
C1208 C1215 1.409 . S
C1209 H1201 0.930 . S
C1209 C1207 1.419 . S
C1209 C1210 1.362 . S
C1210 H1202 0.930 . S
C1210 C1209 1.362 . S
C1210 C1213 1.409 . S
C1211 H1203 0.930 . S
C1211 C1212 1.355 . S
C1211 C1213 1.415 . S
C1212 C1211 1.355 . S
C1212 C1214 1.419 . S
C1213 C1208 1.425 . S
C1213 C1210 1.409 . S
C1213 C1211 1.415 . S
C1214 H1204 0.930 . S
C1214 C1212 1.419 . S
C1214 C1215 1.362 . S
C1215 H1205 0.930 . S
C1215 C1208 1.409 . S
C1215 C1214 1.362 . S
H1216 C1222 0.930 . S
H1217 C1225 0.930 1_565 S
H1218 C1226 0.930 . S
H1219 C1227 0.930 . S
H1220 C1230 0.930 . S
H1221 C1231 0.930 . S
C1222 H1216 0.930 . S
C1222 C1223 1.355 . S
C1222 C1224 1.415 . S
C1223 C1222 1.355 . S
C1223 C1225 1.419 . S
C1224 C1222 1.415 . S
C1224 C1229 1.425 . S
C1224 C1231 1.409 . S
C1225 H1217 0.930 1_545 S
C1225 C1223 1.419 . S
C1225 C1226 1.362 . S
C1226 H1218 0.930 . S
C1226 C1225 1.362 . S
C1226 C1229 1.409 . S
C1227 H1219 0.930 . S
C1227 C1228 1.355 . S
C1227 C1229 1.415 . S
C1228 C1227 1.355 . S
C1228 C1230 1.419 . S
C1229 C1224 1.425 . S
C1229 C1226 1.409 . S
C1229 C1227 1.415 . S
C1230 H1220 0.930 . S
C1230 C1228 1.419 . S
C1230 C1231 1.362 . S
C1231 H1221 0.930 . S
C1231 C1224 1.409 . S
C1231 C1230 1.362 . S
H1232 C1238 0.930 . S
H1233 C1241 0.930 . S
H1234 C1242 0.930 . S
H1235 C1243 0.930 . S
H1236 C1246 0.930 . S
H1237 C1247 0.930 . S
C1238 H1232 0.930 . S
C1238 C1239 1.355 . S
C1238 C1240 1.415 . S
C1239 C1238 1.355 . S
C1239 C1241 1.419 . S
C1240 C1238 1.415 . S
C1240 C1245 1.425 . S
C1240 C1247 1.409 . S
C1241 H1233 0.930 . S
C1241 C1239 1.419 . S
C1241 C1242 1.362 . S
C1242 H1234 0.930 . S
C1242 C1241 1.362 . S
C1242 C1245 1.409 . S
C1243 H1235 0.930 . S
C1243 C1244 1.355 . S
C1243 C1245 1.415 . S
C1244 C1243 1.355 . S
C1244 C1246 1.419 . S
C1245 C1240 1.425 . S
C1245 C1242 1.409 . S
C1245 C1243 1.415 . S
C1246 H1236 0.930 . S
C1246 C1244 1.419 . S
C1246 C1247 1.362 . S
C1247 H1237 0.930 . S
C1247 C1240 1.409 . S
C1247 C1246 1.362 . S
H1248 C1254 0.930 . S
H1249 C1257 0.930 . S
H1250 C1258 0.930 . S
H1251 C1259 0.930 . S
H1252 C1262 0.930 . S
H1253 C1263 0.930 . S
C1254 H1248 0.930 . S
C1254 C1255 1.355 . S
C1254 C1256 1.415 . S
C1255 C1254 1.355 . S
C1255 C1257 1.419 . S
C1256 C1254 1.415 . S
C1256 C1261 1.425 . S
C1256 C1263 1.409 . S
C1257 H1249 0.930 . S
C1257 C1255 1.419 . S
C1257 C1258 1.362 . S
C1258 H1250 0.930 . S
C1258 C1257 1.362 . S
C1258 C1261 1.409 . S
C1259 H1251 0.930 . S
C1259 C1260 1.355 . S
C1259 C1261 1.415 . S
C1260 C1259 1.355 . S
C1260 C1262 1.419 . S
C1261 C1256 1.425 . S
C1261 C1258 1.409 . S
C1261 C1259 1.415 . S
C1262 H1252 0.930 . S
C1262 C1260 1.419 . S
C1262 C1263 1.362 . S
C1263 H1253 0.930 . S
C1263 C1256 1.409 . S
C1263 C1262 1.362 . S
H1264 C1270 0.930 . S
H1265 C1273 0.930 . S
H1266 C1274 0.930 . S
H1267 C1275 0.930 . S
H1268 C1278 0.930 1_655 S
H1269 C1279 0.930 . S
C1270 H1264 0.930 . S
C1270 C1271 1.355 . S
C1270 C1272 1.415 . S
C1271 C1270 1.355 . S
C1271 C1273 1.419 . S
C1272 C1270 1.415 . S
C1272 C1277 1.425 . S
C1272 C1279 1.409 . S
C1273 H1265 0.930 . S
C1273 C1271 1.419 . S
C1273 C1274 1.362 . S
C1274 H1266 0.930 . S
C1274 C1273 1.362 . S
C1274 C1277 1.409 . S
C1275 H1267 0.930 . S
C1275 C1276 1.355 . S
C1275 C1277 1.415 . S
C1276 C1275 1.355 . S
C1276 C1278 1.419 . S
C1277 C1272 1.425 . S
C1277 C1274 1.409 . S
C1277 C1275 1.415 . S
C1278 H1268 0.930 1_455 S
C1278 C1276 1.419 . S
C1278 C1279 1.362 . S
C1279 H1269 0.930 . S
C1279 C1272 1.409 . S
C1279 C1278 1.362 . S
H1280 C1286 0.930 . S
H1281 C1289 0.930 . S
H1282 C1290 0.930 . S
H1283 C1291 0.930 . S
H1284 C1294 0.930 . S
H1285 C1295 0.930 . S
C1286 H1280 0.930 . S
C1286 C1287 1.355 . S
C1286 C1288 1.415 . S
C1287 C1286 1.355 . S
C1287 C1289 1.419 . S
C1288 C1286 1.415 . S
C1288 C1293 1.425 . S
C1288 C1295 1.409 . S
C1289 H1281 0.930 . S
C1289 C1287 1.419 . S
C1289 C1290 1.362 . S
C1290 H1282 0.930 . S
C1290 C1289 1.362 . S
C1290 C1293 1.409 . S
C1291 H1283 0.930 . S
C1291 C1292 1.355 . S
C1291 C1293 1.415 . S
C1292 C1291 1.355 . S
C1292 C1294 1.419 . S
C1293 C1288 1.425 . S
C1293 C1290 1.409 . S
C1293 C1291 1.415 . S
C1294 H1284 0.930 . S
C1294 C1292 1.419 . S
C1294 C1295 1.362 . S
C1295 H1285 0.930 . S
C1295 C1288 1.409 . S
C1295 C1294 1.362 . S
H1296 C1302 0.930 . S
H1297 C1305 0.930 1_655 S
H1298 C1306 0.930 . S
H1299 C1307 0.930 . S
H1300 C1310 0.930 . S
H1301 C1311 0.930 . S
C1302 H1296 0.930 . S
C1302 C1303 1.355 . S
C1302 C1304 1.415 . S
C1303 C1302 1.355 . S
C1303 C1305 1.419 . S
C1304 C1302 1.415 . S
C1304 C1309 1.425 . S
C1304 C1311 1.409 . S
C1305 H1297 0.930 1_455 S
C1305 C1303 1.419 . S
C1305 C1306 1.362 . S
C1306 H1298 0.930 . S
C1306 C1305 1.362 . S
C1306 C1309 1.409 . S
C1307 H1299 0.930 . S
C1307 C1308 1.355 . S
C1307 C1309 1.415 . S
C1308 C1307 1.355 . S
C1308 C1310 1.419 . S
C1309 C1304 1.425 . S
C1309 C1306 1.409 . S
C1309 C1307 1.415 . S
C1310 H1300 0.930 . S
C1310 C1308 1.419 . S
C1310 C1311 1.362 . S
C1311 H1301 0.930 . S
C1311 C1304 1.409 . S
C1311 C1310 1.362 . S
H1312 C1318 0.930 . S
H1313 C1321 0.930 . S
H1314 C1322 0.930 . S
H1315 C1323 0.930 . S
H1316 C1326 0.930 . S
H1317 C1327 0.930 . S
C1318 H1312 0.930 . S
C1318 C1319 1.355 . S
C1318 C1320 1.415 . S
C1319 C1318 1.355 . S
C1319 C1321 1.419 . S
C1320 C1318 1.415 . S
C1320 C1325 1.425 . S
C1320 C1327 1.409 . S
C1321 H1313 0.930 . S
C1321 C1319 1.419 . S
C1321 C1322 1.362 . S
C1322 H1314 0.930 . S
C1322 C1321 1.362 . S
C1322 C1325 1.409 . S
C1323 H1315 0.930 . S
C1323 C1324 1.355 . S
C1323 C1325 1.415 . S
C1324 C1323 1.355 . S
C1324 C1326 1.419 . S
C1325 C1320 1.425 . S
C1325 C1322 1.409 . S
C1325 C1323 1.415 . S
C1326 H1316 0.930 . S
C1326 C1324 1.419 . S
C1326 C1327 1.362 . S
C1327 H1317 0.930 . S
C1327 C1320 1.409 . S
C1327 C1326 1.362 . S
H1328 C1334 0.930 . S
H1329 C1337 0.930 . S
H1330 C1338 0.930 . S
H1331 C1339 0.930 . S
H1332 C1342 0.930 . S
H1333 C1343 0.930 . S
C1334 H1328 0.930 . S
C1334 C1335 1.355 . S
C1334 C1336 1.415 . S
C1335 C1334 1.355 . S
C1335 C1337 1.419 . S
C1336 C1334 1.415 . S
C1336 C1341 1.425 . S
C1336 C1343 1.409 . S
C1337 H1329 0.930 . S
C1337 C1335 1.419 . S
C1337 C1338 1.362 . S
C1338 H1330 0.930 . S
C1338 C1337 1.362 . S
C1338 C1341 1.409 . S
C1339 H1331 0.930 . S
C1339 C1340 1.355 . S
C1339 C1341 1.415 . S
C1340 C1339 1.355 . S
C1340 C1342 1.419 . S
C1341 C1336 1.425 . S
C1341 C1338 1.409 . S
C1341 C1339 1.415 . S
C1342 H1332 0.930 . S
C1342 C1340 1.419 . S
C1342 C1343 1.362 . S
C1343 H1333 0.930 . S
C1343 C1336 1.409 . S
C1343 C1342 1.362 . S
H1344 C1350 0.930 . S
H1345 C1353 0.930 . S
H1346 C1354 0.930 . S
H1347 C1355 0.930 . S
H1348 C1358 0.930 . S
H1349 C1359 0.930 . S
C1350 H1344 0.930 . S
C1350 C1351 1.355 . S
C1350 C1352 1.415 . S
C1351 C1350 1.355 . S
C1351 C1353 1.419 . S
C1352 C1350 1.415 . S
C1352 C1357 1.425 . S
C1352 C1359 1.409 . S
C1353 H1345 0.930 . S
C1353 C1351 1.419 . S
C1353 C1354 1.362 . S
C1354 H1346 0.930 . S
C1354 C1353 1.362 . S
C1354 C1357 1.409 . S
C1355 H1347 0.930 . S
C1355 C1356 1.355 . S
C1355 C1357 1.415 . S
C1356 C1355 1.355 . S
C1356 C1358 1.419 . S
C1357 C1352 1.425 . S
C1357 C1354 1.409 . S
C1357 C1355 1.415 . S
C1358 H1348 0.930 . S
C1358 C1356 1.419 . S
C1358 C1359 1.362 . S
C1359 H1349 0.930 . S
C1359 C1352 1.409 . S
C1359 C1358 1.362 . S
H1360 C1366 0.930 . S
H1361 C1369 0.930 . S
H1362 C1370 0.930 . S
H1363 C1371 0.930 . S
H1364 C1374 0.930 . S
H1365 C1375 0.930 . S
C1366 H1360 0.930 . S
C1366 C1367 1.355 . S
C1366 C1368 1.415 . S
C1367 C1366 1.355 . S
C1367 C1369 1.419 . S
C1368 C1366 1.415 . S
C1368 C1373 1.425 . S
C1368 C1375 1.409 . S
C1369 H1361 0.930 . S
C1369 C1367 1.419 . S
C1369 C1370 1.362 . S
C1370 H1362 0.930 . S
C1370 C1369 1.362 . S
C1370 C1373 1.409 . S
C1371 H1363 0.930 . S
C1371 C1372 1.355 . S
C1371 C1373 1.415 . S
C1372 C1371 1.355 . S
C1372 C1374 1.419 . S
C1373 C1368 1.425 . S
C1373 C1370 1.409 . S
C1373 C1371 1.415 . S
C1374 H1364 0.930 . S
C1374 C1372 1.419 . S
C1374 C1375 1.362 . S
C1375 H1365 0.930 . S
C1375 C1368 1.409 . S
C1375 C1374 1.362 . S
H1376 C1382 0.930 . S
H1377 C1385 0.930 . S
H1378 C1386 0.930 . S
H1379 C1387 0.930 . S
H1380 C1390 0.930 . S
H1381 C1391 0.930 . S
C1382 H1376 0.930 . S
C1382 C1383 1.355 . S
C1382 C1384 1.415 . S
C1383 C1382 1.355 . S
C1383 C1385 1.419 . S
C1384 C1382 1.415 . S
C1384 C1389 1.425 . S
C1384 C1391 1.409 . S
C1385 H1377 0.930 . S
C1385 C1383 1.419 . S
C1385 C1386 1.362 . S
C1386 H1378 0.930 . S
C1386 C1385 1.362 . S
C1386 C1389 1.409 . S
C1387 H1379 0.930 . S
C1387 C1388 1.355 . S
C1387 C1389 1.415 . S
C1388 C1387 1.355 . S
C1388 C1390 1.419 . S
C1389 C1384 1.425 . S
C1389 C1386 1.409 . S
C1389 C1387 1.415 . S
C1390 H1380 0.930 . S
C1390 C1388 1.419 . S
C1390 C1391 1.362 . S
C1391 H1381 0.930 . S
C1391 C1384 1.409 . S
C1391 C1390 1.362 . S
H1392 C1398 0.930 . S
H1393 C1401 0.930 . S
H1394 C1402 0.930 . S
H1395 C1403 0.930 . S
H1396 C1406 0.930 . S
H1397 C1407 0.930 . S
C1398 H1392 0.930 . S
C1398 C1399 1.355 . S
C1398 C1400 1.415 . S
C1399 C1398 1.355 . S
C1399 C1401 1.419 . S
C1400 C1398 1.415 . S
C1400 C1405 1.425 . S
C1400 C1407 1.409 . S
C1401 H1393 0.930 . S
C1401 C1399 1.419 . S
C1401 C1402 1.362 . S
C1402 H1394 0.930 . S
C1402 C1401 1.362 . S
C1402 C1405 1.409 . S
C1403 H1395 0.930 . S
C1403 C1404 1.355 . S
C1403 C1405 1.415 . S
C1404 C1403 1.355 . S
C1404 C1406 1.419 . S
C1405 C1400 1.425 . S
C1405 C1402 1.409 . S
C1405 C1403 1.415 . S
C1406 H1396 0.930 . S
C1406 C1404 1.419 . S
C1406 C1407 1.362 . S
C1407 H1397 0.930 . S
C1407 C1400 1.409 . S
C1407 C1406 1.362 . S
H1408 C1414 0.930 . S
H1409 C1417 0.930 1_565 S
H1410 C1418 0.930 . S
H1411 C1419 0.930 . S
H1412 C1422 0.930 . S
H1413 C1423 0.930 . S
C1414 H1408 0.930 . S
C1414 C1415 1.355 . S
C1414 C1416 1.415 . S
C1415 C1414 1.355 . S
C1415 C1417 1.419 . S
C1416 C1414 1.415 . S
C1416 C1421 1.425 . S
C1416 C1423 1.409 . S
C1417 H1409 0.930 1_545 S
C1417 C1415 1.419 . S
C1417 C1418 1.362 . S
C1418 H1410 0.930 . S
C1418 C1417 1.362 . S
C1418 C1421 1.409 . S
C1419 H1411 0.930 . S
C1419 C1420 1.355 . S
C1419 C1421 1.415 . S
C1420 C1419 1.355 . S
C1420 C1422 1.419 . S
C1421 C1416 1.425 . S
C1421 C1418 1.409 . S
C1421 C1419 1.415 . S
C1422 H1412 0.930 . S
C1422 C1420 1.419 . S
C1422 C1423 1.362 . S
C1423 H1413 0.930 . S
C1423 C1416 1.409 . S
C1423 C1422 1.362 . S
H1424 C1430 0.930 . S
H1425 C1433 0.930 . S
H1426 C1434 0.930 . S
H1427 C1435 0.930 . S
H1428 C1438 0.930 1_455 S
H1429 C1439 0.930 . S
C1430 H1424 0.930 . S
C1430 C1431 1.355 . S
C1430 C1432 1.415 . S
C1431 C1430 1.355 . S
C1431 C1433 1.419 . S
C1432 C1430 1.415 . S
C1432 C1437 1.425 . S
C1432 C1439 1.409 . S
C1433 H1425 0.930 . S
C1433 C1431 1.419 . S
C1433 C1434 1.362 . S
C1434 H1426 0.930 . S
C1434 C1433 1.362 . S
C1434 C1437 1.409 . S
C1435 H1427 0.930 . S
C1435 C1436 1.355 . S
C1435 C1437 1.415 . S
C1436 C1435 1.355 . S
C1436 C1438 1.419 . S
C1437 C1432 1.425 . S
C1437 C1434 1.409 . S
C1437 C1435 1.415 . S
C1438 H1428 0.930 1_655 S
C1438 C1436 1.419 . S
C1438 C1439 1.362 . S
C1439 H1429 0.930 . S
C1439 C1432 1.409 . S
C1439 C1438 1.362 . S
H1440 C1446 0.930 . S
H1441 C1449 0.930 . S
H1442 C1450 0.930 . S
H1443 C1451 0.930 . S
H1444 C1454 0.930 . S
H1445 C1455 0.930 . S
C1446 H1440 0.930 . S
C1446 C1447 1.355 . S
C1446 C1448 1.415 . S
C1447 C1446 1.355 . S
C1447 C1449 1.419 . S
C1448 C1446 1.415 . S
C1448 C1453 1.425 . S
C1448 C1455 1.409 . S
C1449 H1441 0.930 . S
C1449 C1447 1.419 . S
C1449 C1450 1.362 . S
C1450 H1442 0.930 . S
C1450 C1449 1.362 . S
C1450 C1453 1.409 . S
C1451 H1443 0.930 . S
C1451 C1452 1.355 . S
C1451 C1453 1.415 . S
C1452 C1451 1.355 . S
C1452 C1454 1.419 . S
C1453 C1448 1.425 . S
C1453 C1450 1.409 . S
C1453 C1451 1.415 . S
C1454 H1444 0.930 . S
C1454 C1452 1.419 . S
C1454 C1455 1.362 . S
C1455 H1445 0.930 . S
C1455 C1448 1.409 . S
C1455 C1454 1.362 . S
H1456 C1462 0.930 . S
H1457 C1465 0.930 . S
H1458 C1466 0.930 . S
H1459 C1467 0.930 . S
H1460 C1470 0.930 1_655 S
H1461 C1471 0.930 . S
C1462 H1456 0.930 . S
C1462 C1463 1.355 . S
C1462 C1464 1.415 . S
C1463 C1462 1.355 . S
C1463 C1465 1.419 . S
C1464 C1462 1.415 . S
C1464 C1469 1.425 . S
C1464 C1471 1.409 . S
C1465 H1457 0.930 . S
C1465 C1463 1.419 . S
C1465 C1466 1.362 . S
C1466 H1458 0.930 . S
C1466 C1465 1.362 . S
C1466 C1469 1.409 . S
C1467 H1459 0.930 . S
C1467 C1468 1.355 . S
C1467 C1469 1.415 . S
C1468 C1467 1.355 . S
C1468 C1470 1.419 . S
C1469 C1464 1.425 . S
C1469 C1466 1.409 . S
C1469 C1467 1.415 . S
C1470 H1460 0.930 1_455 S
C1470 C1468 1.419 . S
C1470 C1471 1.362 . S
C1471 H1461 0.930 . S
C1471 C1464 1.409 . S
C1471 C1470 1.362 . S
H1472 C1478 0.930 . S
H1473 C1481 0.930 . S
H1474 C1482 0.930 . S
H1475 C1483 0.930 . S
H1476 C1486 0.930 . S
H1477 C1487 0.930 . S
C1478 H1472 0.930 . S
C1478 C1479 1.355 . S
C1478 C1480 1.415 . S
C1479 C1478 1.355 . S
C1479 C1481 1.419 . S
C1480 C1478 1.415 . S
C1480 C1485 1.425 . S
C1480 C1487 1.409 . S
C1481 H1473 0.930 . S
C1481 C1479 1.419 . S
C1481 C1482 1.362 . S
C1482 H1474 0.930 . S
C1482 C1481 1.362 . S
C1482 C1485 1.409 . S
C1483 H1475 0.930 . S
C1483 C1484 1.355 . S
C1483 C1485 1.415 . S
C1484 C1483 1.355 . S
C1484 C1486 1.419 . S
C1485 C1480 1.425 . S
C1485 C1482 1.409 . S
C1485 C1483 1.415 . S
C1486 H1476 0.930 . S
C1486 C1484 1.419 . S
C1486 C1487 1.362 . S
C1487 H1477 0.930 . S
C1487 C1480 1.409 . S
C1487 C1486 1.362 . S
H1488 C1494 0.930 . S
H1489 C1497 0.930 . S
H1490 C1498 0.930 . S
H1491 C1499 0.930 . S
H1492 C1502 0.930 . S
H1493 C1503 0.930 . S
C1494 H1488 0.930 . S
C1494 C1495 1.355 . S
C1494 C1496 1.415 . S
C1495 C1494 1.355 . S
C1495 C1497 1.419 . S
C1496 C1494 1.415 . S
C1496 C1501 1.425 . S
C1496 C1503 1.409 . S
C1497 H1489 0.930 . S
C1497 C1495 1.419 . S
C1497 C1498 1.362 . S
C1498 H1490 0.930 . S
C1498 C1497 1.362 . S
C1498 C1501 1.409 . S
C1499 H1491 0.930 . S
C1499 C1500 1.355 . S
C1499 C1501 1.415 . S
C1500 C1499 1.355 . S
C1500 C1502 1.419 . S
C1501 C1496 1.425 . S
C1501 C1498 1.409 . S
C1501 C1499 1.415 . S
C1502 H1492 0.930 . S
C1502 C1500 1.419 . S
C1502 C1503 1.362 . S
C1503 H1493 0.930 . S
C1503 C1496 1.409 . S
C1503 C1502 1.362 . S
H1504 C1510 0.930 . S
H1505 C1513 0.930 . S
H1506 C1514 0.930 . S
H1507 C1515 0.930 . S
H1508 C1518 0.930 . S
H1509 C1519 0.930 . S
C1510 H1504 0.930 . S
C1510 C1511 1.355 . S
C1510 C1512 1.415 . S
C1511 C1510 1.355 . S
C1511 C1513 1.419 . S
C1512 C1510 1.415 . S
C1512 C1517 1.425 . S
C1512 C1519 1.409 . S
C1513 H1505 0.930 . S
C1513 C1511 1.419 . S
C1513 C1514 1.362 . S
C1514 H1506 0.930 . S
C1514 C1513 1.362 . S
C1514 C1517 1.409 . S
C1515 H1507 0.930 . S
C1515 C1516 1.355 . S
C1515 C1517 1.415 . S
C1516 C1515 1.355 . S
C1516 C1518 1.419 . S
C1517 C1512 1.425 . S
C1517 C1514 1.409 . S
C1517 C1515 1.415 . S
C1518 H1508 0.930 . S
C1518 C1516 1.419 . S
C1518 C1519 1.362 . S
C1519 H1509 0.930 . S
C1519 C1512 1.409 . S
C1519 C1518 1.362 . S
H1520 C1526 0.930 . S
H1521 C1529 0.930 . S
H1522 C1530 0.930 . S
H1523 C1531 0.930 . S
H1524 C1534 0.930 . S
H1525 C1535 0.930 . S
C1526 H1520 0.930 . S
C1526 C1527 1.355 . S
C1526 C1528 1.415 . S
C1527 C1526 1.355 . S
C1527 C1529 1.419 . S
C1528 C1526 1.415 . S
C1528 C1533 1.425 . S
C1528 C1535 1.409 . S
C1529 H1521 0.930 . S
C1529 C1527 1.419 . S
C1529 C1530 1.362 . S
C1530 H1522 0.930 . S
C1530 C1529 1.362 . S
C1530 C1533 1.409 . S
C1531 H1523 0.930 . S
C1531 C1532 1.355 . S
C1531 C1533 1.415 . S
C1532 C1531 1.355 . S
C1532 C1534 1.419 . S
C1533 C1528 1.425 . S
C1533 C1530 1.409 . S
C1533 C1531 1.415 . S
C1534 H1524 0.930 . S
C1534 C1532 1.419 . S
C1534 C1535 1.362 . S
C1535 H1525 0.930 . S
C1535 C1528 1.409 . S
C1535 C1534 1.362 . S
H1536 C1542 0.930 . S
H1537 C1545 0.930 . S
H1538 C1546 0.930 . S
H1539 C1547 0.930 . S
H1540 C1550 0.930 . S
H1541 C1551 0.930 . S
C1542 H1536 0.930 . S
C1542 C1543 1.355 . S
C1542 C1544 1.415 . S
C1543 C1542 1.355 . S
C1543 C1545 1.419 . S
C1544 C1542 1.415 . S
C1544 C1549 1.425 . S
C1544 C1551 1.409 . S
C1545 H1537 0.930 . S
C1545 C1543 1.419 . S
C1545 C1546 1.362 . S
C1546 H1538 0.930 . S
C1546 C1545 1.362 . S
C1546 C1549 1.409 . S
C1547 H1539 0.930 . S
C1547 C1548 1.355 . S
C1547 C1549 1.415 . S
C1548 C1547 1.355 . S
C1548 C1550 1.419 . S
C1549 C1544 1.425 . S
C1549 C1546 1.409 . S
C1549 C1547 1.415 . S
C1550 H1540 0.930 . S
C1550 C1548 1.419 . S
C1550 C1551 1.362 . S
C1551 H1541 0.930 . S
C1551 C1544 1.409 . S
C1551 C1550 1.362 . S
H1552 C1558 0.930 . S
H1553 C1561 0.930 . S
H1554 C1562 0.930 . S
H1555 C1563 0.930 . S
H1556 C1566 0.930 . S
H1557 C1567 0.930 . S
C1558 H1552 0.930 . S
C1558 C1559 1.355 . S
C1558 C1560 1.415 . S
C1559 C1558 1.355 . S
C1559 C1561 1.419 . S
C1560 C1558 1.415 . S
C1560 C1565 1.425 . S
C1560 C1567 1.409 . S
C1561 H1553 0.930 . S
C1561 C1559 1.419 . S
C1561 C1562 1.362 . S
C1562 H1554 0.930 . S
C1562 C1561 1.362 . S
C1562 C1565 1.409 . S
C1563 H1555 0.930 . S
C1563 C1564 1.355 . S
C1563 C1565 1.415 . S
C1564 C1563 1.355 . S
C1564 C1566 1.419 . S
C1565 C1560 1.425 . S
C1565 C1562 1.409 . S
C1565 C1563 1.415 . S
C1566 H1556 0.930 . S
C1566 C1564 1.419 . S
C1566 C1567 1.362 . S
C1567 H1557 0.930 . S
C1567 C1560 1.409 . S
C1567 C1566 1.362 . S
H1568 C1574 0.930 . S
H1569 C1577 0.930 . S
H1570 C1578 0.930 . S
H1571 C1579 0.930 . S
H1572 C1582 0.930 . S
H1573 C1583 0.930 . S
C1574 H1568 0.930 . S
C1574 C1575 1.355 . S
C1574 C1576 1.415 . S
C1575 C1574 1.355 . S
C1575 C1577 1.419 . S
C1576 C1574 1.415 . S
C1576 C1581 1.425 . S
C1576 C1583 1.409 . S
C1577 H1569 0.930 . S
C1577 C1575 1.419 . S
C1577 C1578 1.362 . S
C1578 H1570 0.930 . S
C1578 C1577 1.362 . S
C1578 C1581 1.409 . S
C1579 H1571 0.930 . S
C1579 C1580 1.355 . S
C1579 C1581 1.415 . S
C1580 C1579 1.355 . S
C1580 C1582 1.419 . S
C1581 C1576 1.425 . S
C1581 C1578 1.409 . S
C1581 C1579 1.415 . S
C1582 H1572 0.930 . S
C1582 C1580 1.419 . S
C1582 C1583 1.362 . S
C1583 H1573 0.930 . S
C1583 C1576 1.409 . S
C1583 C1582 1.362 . S
H1584 C1590 0.930 . S
H1585 C1593 0.930 . S
H1586 C1594 0.930 . S
H1587 C1595 0.930 . S
H1588 C1598 0.930 . S
H1589 C1599 0.930 . S
C1590 H1584 0.930 . S
C1590 C1591 1.355 . S
C1590 C1592 1.415 . S
C1591 C1590 1.355 . S
C1591 C1593 1.419 . S
C1592 C1590 1.415 . S
C1592 C1597 1.425 . S
C1592 C1599 1.409 . S
C1593 H1585 0.930 . S
C1593 C1591 1.419 . S
C1593 C1594 1.362 . S
C1594 H1586 0.930 . S
C1594 C1593 1.362 . S
C1594 C1597 1.409 . S
C1595 H1587 0.930 . S
C1595 C1596 1.355 . S
C1595 C1597 1.415 . S
C1596 C1595 1.355 . S
C1596 C1598 1.419 . S
C1597 C1592 1.425 . S
C1597 C1594 1.409 . S
C1597 C1595 1.415 . S
C1598 H1588 0.930 . S
C1598 C1596 1.419 . S
C1598 C1599 1.362 . S
C1599 H1589 0.930 . S
C1599 C1592 1.409 . S
C1599 C1598 1.362 . S
H1600 C1606 0.930 . S
H1601 C1609 0.930 . S
H1602 C1610 0.930 . S
H1603 C1611 0.930 . S
H1604 C1614 0.930 . S
H1605 C1615 0.930 . S
C1606 H1600 0.930 . S
C1606 C1607 1.355 . S
C1606 C1608 1.415 . S
C1607 C1606 1.355 . S
C1607 C1609 1.419 . S
C1608 C1606 1.415 . S
C1608 C1613 1.425 . S
C1608 C1615 1.409 . S
C1609 H1601 0.930 . S
C1609 C1607 1.419 . S
C1609 C1610 1.362 . S
C1610 H1602 0.930 . S
C1610 C1609 1.362 . S
C1610 C1613 1.409 . S
C1611 H1603 0.930 . S
C1611 C1612 1.355 . S
C1611 C1613 1.415 . S
C1612 C1611 1.355 . S
C1612 C1614 1.419 . S
C1613 C1608 1.425 . S
C1613 C1610 1.409 . S
C1613 C1611 1.415 . S
C1614 H1604 0.930 . S
C1614 C1612 1.419 . S
C1614 C1615 1.362 . S
C1615 H1605 0.930 . S
C1615 C1608 1.409 . S
C1615 C1614 1.362 . S
H1616 C1622 0.930 . S
H1617 C1625 0.930 . S
H1618 C1626 0.930 . S
H1619 C1627 0.930 . S
H1620 C1630 0.930 . S
H1621 C1631 0.930 . S
C1622 H1616 0.930 . S
C1622 C1623 1.355 . S
C1622 C1624 1.415 . S
C1623 C1622 1.355 . S
C1623 C1625 1.419 . S
C1624 C1622 1.415 . S
C1624 C1629 1.425 . S
C1624 C1631 1.409 . S
C1625 H1617 0.930 . S
C1625 C1623 1.419 . S
C1625 C1626 1.362 . S
C1626 H1618 0.930 . S
C1626 C1625 1.362 . S
C1626 C1629 1.409 . S
C1627 H1619 0.930 . S
C1627 C1628 1.355 . S
C1627 C1629 1.415 . S
C1628 C1627 1.355 . S
C1628 C1630 1.419 . S
C1629 C1624 1.425 . S
C1629 C1626 1.409 . S
C1629 C1627 1.415 . S
C1630 H1620 0.930 . S
C1630 C1628 1.419 . S
C1630 C1631 1.362 . S
C1631 H1621 0.930 . S
C1631 C1624 1.409 . S
C1631 C1630 1.362 . S
H1632 C1638 0.930 . S
H1633 C1641 0.930 . S
H1634 C1642 0.930 . S
H1635 C1643 0.930 . S
H1636 C1646 0.930 . S
H1637 C1647 0.930 . S
C1638 H1632 0.930 . S
C1638 C1639 1.355 . S
C1638 C1640 1.415 . S
C1639 C1638 1.355 . S
C1639 C1641 1.419 . S
C1640 C1638 1.415 . S
C1640 C1645 1.425 . S
C1640 C1647 1.409 . S
C1641 H1633 0.930 . S
C1641 C1639 1.419 . S
C1641 C1642 1.362 . S
C1642 H1634 0.930 . S
C1642 C1641 1.362 . S
C1642 C1645 1.409 . S
C1643 H1635 0.930 . S
C1643 C1644 1.355 . S
C1643 C1645 1.415 . S
C1644 C1643 1.355 . S
C1644 C1646 1.419 . S
C1645 C1640 1.425 . S
C1645 C1642 1.409 . S
C1645 C1643 1.415 . S
C1646 H1636 0.930 . S
C1646 C1644 1.419 . S
C1646 C1647 1.362 . S
C1647 H1637 0.930 . S
C1647 C1640 1.409 . S
C1647 C1646 1.362 . S
H1648 C1654 0.930 . S
H1649 C1657 0.930 . S
H1650 C1658 0.930 . S
H1651 C1659 0.930 . S
H1652 C1662 0.930 . S
H1653 C1663 0.930 . S
C1654 H1648 0.930 . S
C1654 C1655 1.355 . S
C1654 C1656 1.415 . S
C1655 C1654 1.355 . S
C1655 C1657 1.419 . S
C1656 C1654 1.415 . S
C1656 C1661 1.425 . S
C1656 C1663 1.409 . S
C1657 H1649 0.930 . S
C1657 C1655 1.419 . S
C1657 C1658 1.362 . S
C1658 H1650 0.930 . S
C1658 C1657 1.362 . S
C1658 C1661 1.409 . S
C1659 H1651 0.930 . S
C1659 C1660 1.355 . S
C1659 C1661 1.415 . S
C1660 C1659 1.355 . S
C1660 C1662 1.419 . S
C1661 C1656 1.425 . S
C1661 C1658 1.409 . S
C1661 C1659 1.415 . S
C1662 H1652 0.930 . S
C1662 C1660 1.419 . S
C1662 C1663 1.362 . S
C1663 H1653 0.930 . S
C1663 C1656 1.409 . S
C1663 C1662 1.362 . S
H1664 C1670 0.930 . S
H1665 C1673 0.930 . S
H1666 C1674 0.930 . S
H1667 C1675 0.930 . S
H1668 C1678 0.930 . S
H1669 C1679 0.930 . S
C1670 H1664 0.930 . S
C1670 C1671 1.355 . S
C1670 C1672 1.415 . S
C1671 C1670 1.355 . S
C1671 C1673 1.419 . S
C1672 C1670 1.415 . S
C1672 C1677 1.425 . S
C1672 C1679 1.409 . S
C1673 H1665 0.930 . S
C1673 C1671 1.419 . S
C1673 C1674 1.362 . S
C1674 H1666 0.930 . S
C1674 C1673 1.362 . S
C1674 C1677 1.409 . S
C1675 H1667 0.930 . S
C1675 C1676 1.355 . S
C1675 C1677 1.415 . S
C1676 C1675 1.355 . S
C1676 C1678 1.419 . S
C1677 C1672 1.425 . S
C1677 C1674 1.409 . S
C1677 C1675 1.415 . S
C1678 H1668 0.930 . S
C1678 C1676 1.419 . S
C1678 C1679 1.362 . S
C1679 H1669 0.930 . S
C1679 C1672 1.409 . S
C1679 C1678 1.362 . S
H1680 C1686 0.930 . S
H1681 C1689 0.930 . S
H1682 C1690 0.930 . S
H1683 C1691 0.930 . S
H1684 C1694 0.930 . S
H1685 C1695 0.930 . S
C1686 H1680 0.930 . S
C1686 C1687 1.355 . S
C1686 C1688 1.415 . S
C1687 C1686 1.355 . S
C1687 C1689 1.419 . S
C1688 C1686 1.415 . S
C1688 C1693 1.425 . S
C1688 C1695 1.409 . S
C1689 H1681 0.930 . S
C1689 C1687 1.419 . S
C1689 C1690 1.362 . S
C1690 H1682 0.930 . S
C1690 C1689 1.362 . S
C1690 C1693 1.409 . S
C1691 H1683 0.930 . S
C1691 C1692 1.355 . S
C1691 C1693 1.415 . S
C1692 C1691 1.355 . S
C1692 C1694 1.419 . S
C1693 C1688 1.425 . S
C1693 C1690 1.409 . S
C1693 C1691 1.415 . S
C1694 H1684 0.930 . S
C1694 C1692 1.419 . S
C1694 C1695 1.362 . S
C1695 H1685 0.930 . S
C1695 C1688 1.409 . S
C1695 C1694 1.362 . S
H1696 C1702 0.930 . S
H1697 C1705 0.930 . S
H1698 C1706 0.930 . S
H1699 C1707 0.930 . S
H1700 C1710 0.930 . S
H1701 C1711 0.930 . S
C1702 H1696 0.930 . S
C1702 C1703 1.355 . S
C1702 C1704 1.415 . S
C1703 C1702 1.355 . S
C1703 C1705 1.419 . S
C1704 C1702 1.415 . S
C1704 C1709 1.425 . S
C1704 C1711 1.409 . S
C1705 H1697 0.930 . S
C1705 C1703 1.419 . S
C1705 C1706 1.362 . S
C1706 H1698 0.930 . S
C1706 C1705 1.362 . S
C1706 C1709 1.409 . S
C1707 H1699 0.930 . S
C1707 C1708 1.355 . S
C1707 C1709 1.415 . S
C1708 C1707 1.355 . S
C1708 C1710 1.419 . S
C1709 C1704 1.425 . S
C1709 C1706 1.409 . S
C1709 C1707 1.415 . S
C1710 H1700 0.930 . S
C1710 C1708 1.419 . S
C1710 C1711 1.362 . S
C1711 H1701 0.930 . S
C1711 C1704 1.409 . S
C1711 C1710 1.362 . S
H1712 C1718 0.930 . S
H1713 C1721 0.930 . S
H1714 C1722 0.930 . S
H1715 C1723 0.930 . S
H1716 C1726 0.930 . S
H1717 C1727 0.930 . S
C1718 H1712 0.930 . S
C1718 C1719 1.355 . S
C1718 C1720 1.415 . S
C1719 C1718 1.355 . S
C1719 C1721 1.419 . S
C1720 C1718 1.415 . S
C1720 C1725 1.425 . S
C1720 C1727 1.409 . S
C1721 H1713 0.930 . S
C1721 C1719 1.419 . S
C1721 C1722 1.362 . S
C1722 H1714 0.930 . S
C1722 C1721 1.362 . S
C1722 C1725 1.409 . S
C1723 H1715 0.930 . S
C1723 C1724 1.355 . S
C1723 C1725 1.415 . S
C1724 C1723 1.355 . S
C1724 C1726 1.419 . S
C1725 C1720 1.425 . S
C1725 C1722 1.409 . S
C1725 C1723 1.415 . S
C1726 H1716 0.930 . S
C1726 C1724 1.419 . S
C1726 C1727 1.362 . S
C1727 H1717 0.930 . S
C1727 C1720 1.409 . S
C1727 C1726 1.362 . S
H1728 C1734 0.930 . S
H1729 C1737 0.930 . S
H1730 C1738 0.930 . S
H1731 C1739 0.930 . S
H1732 C1742 0.930 . S
H1733 C1743 0.930 . S
C1734 H1728 0.930 . S
C1734 C1735 1.355 . S
C1734 C1736 1.415 . S
C1735 C1734 1.355 . S
C1735 C1737 1.419 . S
C1736 C1734 1.415 . S
C1736 C1741 1.425 1_455 S
C1736 C1743 1.409 1_455 S
C1737 H1729 0.930 . S
C1737 C1735 1.419 . S
C1737 C1738 1.362 . S
C1738 H1730 0.930 . S
C1738 C1737 1.362 . S
C1738 C1741 1.409 1_455 S
C1739 H1731 0.930 . S
C1739 C1740 1.355 . S
C1739 C1741 1.415 . S
C1740 C1739 1.355 . S
C1740 C1742 1.419 . S
C1741 C1736 1.425 1_655 S
C1741 C1738 1.409 1_655 S
C1741 C1739 1.415 . S
C1742 H1732 0.930 . S
C1742 C1740 1.419 . S
C1742 C1743 1.362 . S
C1743 H1733 0.930 . S
C1743 C1736 1.409 1_655 S
C1743 C1742 1.362 . S
H1744 C1750 0.930 . S
H1745 C1753 0.932 . S
H1746 C1754 0.930 . S
H1747 C1755 0.930 . S
H1748 C1758 0.932 . S
H1749 C1759 0.930 . S
C1750 H1744 0.930 . S
C1750 C1751 1.355 . S
C1750 C1752 1.415 . S
C1751 C1750 1.355 . S
C1751 C1753 1.410 1_565 S
C1752 C1750 1.415 . S
C1752 C1757 1.425 1_565 S
C1752 C1759 1.409 . S
C1753 H1745 0.932 . S
C1753 C1751 1.410 1_545 S
C1753 C1754 1.369 . S
C1754 H1746 0.930 . S
C1754 C1753 1.369 . S
C1754 C1757 1.409 . S
C1755 H1747 0.930 . S
C1755 C1756 1.355 . S
C1755 C1757 1.415 . S
C1756 C1755 1.355 . S
C1756 C1758 1.410 1_545 S
C1757 C1752 1.425 1_545 S
C1757 C1754 1.409 . S
C1757 C1755 1.415 . S
C1758 H1748 0.932 . S
C1758 C1756 1.410 1_565 S
C1758 C1759 1.369 . S
C1759 H1749 0.930 . S
C1759 C1752 1.409 . S
C1759 C1758 1.369 . S
H1760 C1766 0.930 . S
H1761 C1769 0.930 . S
H1762 C1770 0.930 . S
H1763 C1771 0.930 . S
H1764 C1774 0.930 . S
H1765 C1775 0.930 . S
C1766 H1760 0.930 . S
C1766 C1767 1.355 . S
C1766 C1768 1.415 . S
C1767 C1766 1.355 . S
C1767 C1769 1.419 . S
C1768 C1766 1.415 . S
C1768 C1773 1.425 1_655 S
C1768 C1775 1.409 . S
C1769 H1761 0.930 . S
C1769 C1767 1.419 . S
C1769 C1770 1.362 1_655 S
C1770 H1762 0.930 . S
C1770 C1769 1.362 1_455 S
C1770 C1773 1.409 . S
C1771 H1763 0.930 . S
C1771 C1772 1.355 . S
C1771 C1773 1.415 . S
C1772 C1771 1.355 . S
C1772 C1774 1.419 . S
C1773 C1768 1.425 1_455 S
C1773 C1770 1.409 . S
C1773 C1771 1.415 . S
C1774 H1764 0.930 . S
C1774 C1772 1.419 . S
C1774 C1775 1.362 1_455 S
C1775 H1765 0.930 . S
C1775 C1768 1.409 . S
C1775 C1774 1.362 1_655 S
H1776 C1782 0.930 1_565 S
H1777 C1785 0.930 . S
H1778 C1786 0.930 . S
H1779 C1787 0.930 1_545 S
H1780 C1790 0.930 . S
H1781 C1791 0.930 . S
C1782 H1776 0.930 1_545 S
C1782 C1783 1.355 . S
C1782 C1784 1.415 1_545 S
C1783 C1782 1.355 . S
C1783 C1785 1.419 . S
C1784 C1782 1.415 1_565 S
C1784 C1789 1.425 1_565 S
C1784 C1791 1.409 . S
C1785 H1777 0.930 . S
C1785 C1783 1.419 . S
C1785 C1786 1.362 . S
C1786 H1778 0.930 . S
C1786 C1785 1.362 . S
C1786 C1789 1.409 . S
C1787 H1779 0.930 1_565 S
C1787 C1788 1.355 . S
C1787 C1789 1.415 1_565 S
C1788 C1787 1.355 . S
C1788 C1790 1.419 . S
C1789 C1784 1.425 1_545 S
C1789 C1786 1.409 . S
C1789 C1787 1.415 1_545 S
C1790 H1780 0.930 . S
C1790 C1788 1.419 . S
C1790 C1791 1.362 . S
C1791 H1781 0.930 . S
C1791 C1784 1.409 . S
C1791 C1790 1.362 . S
H1792 C1798 0.930 . S
H1793 C1801 0.930 . S
H1794 C1802 0.930 . S
H1795 C1803 0.930 . S
H1796 C1806 0.930 . S
H1797 C1807 0.930 . S
C1798 H1792 0.930 . S
C1798 C1799 1.355 . S
C1798 C1800 1.415 1_655 S
C1799 C1798 1.355 . S
C1799 C1801 1.419 . S
C1800 C1798 1.415 1_455 S
C1800 C1805 1.425 1_455 S
C1800 C1807 1.409 . S
C1801 H1793 0.930 . S
C1801 C1799 1.419 . S
C1801 C1802 1.362 . S
C1802 H1794 0.930 . S
C1802 C1801 1.362 . S
C1802 C1805 1.409 . S
C1803 H1795 0.930 . S
C1803 C1804 1.355 . S
C1803 C1805 1.415 1_455 S
C1804 C1803 1.355 . S
C1804 C1806 1.419 . S
C1805 C1800 1.425 1_655 S
C1805 C1802 1.409 . S
C1805 C1803 1.415 1_655 S
C1806 H1796 0.930 . S
C1806 C1804 1.419 . S
C1806 C1807 1.362 . S
C1807 H1797 0.930 . S
C1807 C1800 1.409 . S
C1807 C1806 1.362 . S
H1808 C1814 0.930 . S
H1809 C1817 0.930 . S
H1810 C1818 0.930 . S
H1811 C1819 0.930 . S
H1812 C1822 0.930 . S
H1813 C1823 0.930 . S
C1814 H1808 0.930 . S
C1814 C1815 1.355 . S
C1814 C1816 1.415 . S
C1815 C1814 1.355 . S
C1815 C1817 1.419 . S
C1816 C1814 1.415 . S
C1816 C1821 1.425 1_545 S
C1816 C1823 1.409 . S
C1817 H1809 0.930 . S
C1817 C1815 1.419 . S
C1817 C1818 1.362 1_545 S
C1818 H1810 0.930 . S
C1818 C1817 1.362 1_565 S
C1818 C1821 1.409 . S
C1819 H1811 0.930 . S
C1819 C1820 1.355 . S
C1819 C1821 1.415 . S
C1820 C1819 1.355 . S
C1820 C1822 1.419 . S
C1821 C1816 1.425 1_565 S
C1821 C1818 1.409 . S
C1821 C1819 1.415 . S
C1822 H1812 0.930 . S
C1822 C1820 1.419 . S
C1822 C1823 1.362 1_565 S
C1823 H1813 0.930 . S
C1823 C1816 1.409 . S
C1823 C1822 1.362 1_545 S
H1824 C1830 0.930 1_455 S
H1825 C1833 0.930 . S
H1826 C1834 0.930 . S
H1827 C1835 0.930 1_655 S
H1828 C1838 0.930 . S
H1829 C1839 0.930 . S
C1830 H1824 0.930 1_655 S
C1830 C1831 1.355 . S
C1830 C1832 1.415 1_655 S
C1831 C1830 1.355 . S
C1831 C1833 1.419 . S
C1832 C1830 1.415 1_455 S
C1832 C1837 1.425 1_455 S
C1832 C1839 1.409 . S
C1833 H1825 0.930 . S
C1833 C1831 1.419 . S
C1833 C1834 1.362 . S
C1834 H1826 0.930 . S
C1834 C1833 1.362 . S
C1834 C1837 1.409 . S
C1835 H1827 0.930 1_455 S
C1835 C1836 1.355 . S
C1835 C1837 1.415 1_455 S
C1836 C1835 1.355 . S
C1836 C1838 1.419 . S
C1837 C1832 1.425 1_655 S
C1837 C1834 1.409 . S
C1837 C1835 1.415 1_655 S
C1838 H1828 0.930 . S
C1838 C1836 1.419 . S
C1838 C1839 1.362 . S
C1839 H1829 0.930 . S
C1839 C1832 1.409 . S
C1839 C1838 1.362 . S
H1840 C1846 0.930 1_545 S
H1841 C1849 0.930 . S
H1842 C1850 0.930 . S
H1843 C1851 0.930 1_565 S
H1844 C1854 0.930 . S
H1845 C1855 0.930 . S
C1846 H1840 0.930 1_565 S
C1846 C1847 1.355 . S
C1846 C1848 1.415 1_565 S
C1847 C1846 1.355 . S
C1847 C1849 1.419 . S
C1848 C1846 1.415 1_545 S
C1848 C1853 1.425 1_545 S
C1848 C1855 1.409 . S
C1849 H1841 0.930 . S
C1849 C1847 1.419 . S
C1849 C1850 1.362 . S
C1850 H1842 0.930 . S
C1850 C1849 1.362 . S
C1850 C1853 1.409 . S
C1851 H1843 0.930 1_545 S
C1851 C1852 1.355 . S
C1851 C1853 1.415 1_545 S
C1852 C1851 1.355 . S
C1852 C1854 1.419 . S
C1853 C1848 1.425 1_565 S
C1853 C1850 1.409 . S
C1853 C1851 1.415 1_565 S
C1854 H1844 0.930 . S
C1854 C1852 1.419 . S
C1854 C1855 1.362 . S
C1855 H1845 0.930 . S
C1855 C1848 1.409 . S
C1855 C1854 1.362 . S
H1856 C1862 0.930 . S
H1857 C1865 0.930 . S
H1858 C1866 0.930 . S
H1859 C1867 0.930 . S
H1860 C1870 0.930 . S
H1861 C1871 0.930 . S
C1862 H1856 0.930 . S
C1862 C1863 1.355 . S
C1862 C1864 1.415 . S
C1863 C1862 1.355 . S
C1863 C1865 1.419 . S
C1864 C1862 1.415 . S
C1864 C1869 1.425 . S
C1864 C1871 1.409 . S
C1865 H1857 0.930 . S
C1865 C1863 1.419 . S
C1865 C1866 1.362 . S
C1866 H1858 0.930 . S
C1866 C1865 1.362 . S
C1866 C1869 1.409 . S
C1867 H1859 0.930 . S
C1867 C1868 1.355 . S
C1867 C1869 1.415 . S
C1868 C1867 1.355 . S
C1868 C1870 1.419 . S
C1869 C1864 1.425 . S
C1869 C1866 1.409 . S
C1869 C1867 1.415 . S
C1870 H1860 0.930 . S
C1870 C1868 1.419 . S
C1870 C1871 1.362 . S
C1871 H1861 0.930 . S
C1871 C1864 1.409 . S
C1871 C1870 1.362 . S
H1872 C1878 0.930 . S
H1873 C1881 0.930 . S
H1874 C1882 0.930 . S
H1875 C1883 0.930 . S
H1876 C1886 0.930 . S
H1877 C1887 0.930 . S
C1878 H1872 0.930 . S
C1878 C1879 1.355 . S
C1878 C1880 1.415 . S
C1879 C1878 1.355 . S
C1879 C1881 1.419 . S
C1880 C1878 1.415 . S
C1880 C1885 1.425 . S
C1880 C1887 1.409 . S
C1881 H1873 0.930 . S
C1881 C1879 1.419 . S
C1881 C1882 1.362 . S
C1882 H1874 0.930 . S
C1882 C1881 1.362 . S
C1882 C1885 1.409 . S
C1883 H1875 0.930 . S
C1883 C1884 1.355 . S
C1883 C1885 1.415 . S
C1884 C1883 1.355 . S
C1884 C1886 1.419 . S
C1885 C1880 1.425 . S
C1885 C1882 1.409 . S
C1885 C1883 1.415 . S
C1886 H1876 0.930 . S
C1886 C1884 1.419 . S
C1886 C1887 1.362 . S
C1887 H1877 0.930 . S
C1887 C1880 1.409 . S
C1887 C1886 1.362 . S
H1888 C1894 0.930 . S
H1889 C1897 0.930 . S
H1890 C1898 0.930 . S
H1891 C1899 0.930 . S
H1892 C1902 0.930 . S
H1893 C1903 0.930 . S
C1894 H1888 0.930 . S
C1894 C1895 1.355 . S
C1894 C1896 1.415 . S
C1895 C1894 1.355 . S
C1895 C1897 1.419 . S
C1896 C1894 1.415 . S
C1896 C1901 1.425 . S
C1896 C1903 1.409 . S
C1897 H1889 0.930 . S
C1897 C1895 1.419 . S
C1897 C1898 1.362 . S
C1898 H1890 0.930 . S
C1898 C1897 1.362 . S
C1898 C1901 1.409 . S
C1899 H1891 0.930 . S
C1899 C1900 1.355 . S
C1899 C1901 1.415 . S
C1900 C1899 1.355 . S
C1900 C1902 1.419 . S
C1901 C1896 1.425 . S
C1901 C1898 1.409 . S
C1901 C1899 1.415 . S
C1902 H1892 0.930 . S
C1902 C1900 1.419 . S
C1902 C1903 1.362 . S
C1903 H1893 0.930 . S
C1903 C1896 1.409 . S
C1903 C1902 1.362 . S
H1904 C1910 0.930 . S
H1905 C1913 0.930 . S
H1906 C1914 0.930 . S
H1907 C1915 0.930 . S
H1908 C1918 0.930 . S
H1909 C1919 0.930 . S
C1910 H1904 0.930 . S
C1910 C1911 1.355 . S
C1910 C1912 1.415 . S
C1911 C1910 1.355 . S
C1911 C1913 1.419 . S
C1912 C1910 1.415 . S
C1912 C1917 1.425 . S
C1912 C1919 1.409 . S
C1913 H1905 0.930 . S
C1913 C1911 1.419 . S
C1913 C1914 1.362 . S
C1914 H1906 0.930 . S
C1914 C1913 1.362 . S
C1914 C1917 1.409 . S
C1915 H1907 0.930 . S
C1915 C1916 1.355 . S
C1915 C1917 1.415 . S
C1916 C1915 1.355 . S
C1916 C1918 1.419 . S
C1917 C1912 1.425 . S
C1917 C1914 1.409 . S
C1917 C1915 1.415 . S
C1918 H1908 0.930 . S
C1918 C1916 1.419 . S
C1918 C1919 1.362 . S
C1919 H1909 0.930 . S
C1919 C1912 1.409 . S
C1919 C1918 1.362 . S
H1920 C1926 0.930 . S
H1921 C1929 0.930 . S
H1922 C1930 0.930 . S
H1923 C1931 0.930 . S
H1924 C1934 0.930 . S
H1925 C1935 0.930 . S
C1926 H1920 0.930 . S
C1926 C1927 1.355 . S
C1926 C1928 1.415 . S
C1927 C1926 1.355 . S
C1927 C1929 1.419 . S
C1928 C1926 1.415 . S
C1928 C1933 1.425 . S
C1928 C1935 1.409 . S
C1929 H1921 0.930 . S
C1929 C1927 1.419 . S
C1929 C1930 1.362 . S
C1930 H1922 0.930 . S
C1930 C1929 1.362 . S
C1930 C1933 1.409 . S
C1931 H1923 0.930 . S
C1931 C1932 1.355 . S
C1931 C1933 1.415 . S
C1932 C1931 1.355 . S
C1932 C1934 1.419 . S
C1933 C1928 1.425 . S
C1933 C1930 1.409 . S
C1933 C1931 1.415 . S
C1934 H1924 0.930 . S
C1934 C1932 1.419 . S
C1934 C1935 1.362 . S
C1935 H1925 0.930 . S
C1935 C1928 1.409 . S
C1935 C1934 1.362 . S
H1936 C1942 0.930 . S
H1937 C1945 0.930 . S
H1938 C1946 0.930 . S
H1939 C1947 0.930 . S
H1940 C1950 0.930 . S
H1941 C1951 0.930 . S
C1942 H1936 0.930 . S
C1942 C1943 1.355 . S
C1942 C1944 1.415 . S
C1943 C1942 1.355 . S
C1943 C1945 1.419 . S
C1944 C1942 1.415 . S
C1944 C1949 1.425 . S
C1944 C1951 1.409 . S
C1945 H1937 0.930 . S
C1945 C1943 1.419 . S
C1945 C1946 1.362 . S
C1946 H1938 0.930 . S
C1946 C1945 1.362 . S
C1946 C1949 1.409 . S
C1947 H1939 0.930 . S
C1947 C1948 1.355 . S
C1947 C1949 1.415 . S
C1948 C1947 1.355 . S
C1948 C1950 1.419 . S
C1949 C1944 1.425 . S
C1949 C1946 1.409 . S
C1949 C1947 1.415 . S
C1950 H1940 0.930 . S
C1950 C1948 1.419 . S
C1950 C1951 1.362 . S
C1951 H1941 0.930 . S
C1951 C1944 1.409 . S
C1951 C1950 1.362 . S
H1952 C1958 0.930 . S
H1953 C1961 0.930 . S
H1954 C1962 0.930 . S
H1955 C1963 0.930 . S
H1956 C1966 0.930 . S
H1957 C1967 0.930 . S
C1958 H1952 0.930 . S
C1958 C1959 1.355 . S
C1958 C1960 1.415 . S
C1959 C1958 1.355 . S
C1959 C1961 1.419 . S
C1960 C1958 1.415 . S
C1960 C1965 1.425 . S
C1960 C1967 1.409 . S
C1961 H1953 0.930 . S
C1961 C1959 1.419 . S
C1961 C1962 1.362 . S
C1962 H1954 0.930 . S
C1962 C1961 1.362 . S
C1962 C1965 1.409 . S
C1963 H1955 0.930 . S
C1963 C1964 1.355 . S
C1963 C1965 1.415 . S
C1964 C1963 1.355 . S
C1964 C1966 1.419 . S
C1965 C1960 1.425 . S
C1965 C1962 1.409 . S
C1965 C1963 1.415 . S
C1966 H1956 0.930 . S
C1966 C1964 1.419 . S
C1966 C1967 1.362 . S
C1967 H1957 0.930 . S
C1967 C1960 1.409 . S
C1967 C1966 1.362 . S
H1968 C1974 0.930 . S
H1969 C1977 0.930 . S
H1970 C1978 0.930 . S
H1971 C1979 0.930 . S
H1972 C1982 0.930 . S
H1973 C1983 0.930 . S
C1974 H1968 0.930 . S
C1974 C1975 1.355 . S
C1974 C1976 1.415 . S
C1975 C1974 1.355 . S
C1975 C1977 1.419 . S
C1976 C1974 1.415 . S
C1976 C1981 1.425 . S
C1976 C1983 1.409 . S
C1977 H1969 0.930 . S
C1977 C1975 1.419 . S
C1977 C1978 1.362 . S
C1978 H1970 0.930 . S
C1978 C1977 1.362 . S
C1978 C1981 1.409 . S
C1979 H1971 0.930 . S
C1979 C1980 1.355 . S
C1979 C1981 1.415 . S
C1980 C1979 1.355 . S
C1980 C1982 1.419 . S
C1981 C1976 1.425 . S
C1981 C1978 1.409 . S
C1981 C1979 1.415 . S
C1982 H1972 0.930 . S
C1982 C1980 1.419 . S
C1982 C1983 1.362 . S
C1983 H1973 0.930 . S
C1983 C1976 1.409 . S
C1983 C1982 1.362 . S
H1984 C1990 0.930 . S
H1985 C1993 0.930 . S
H1986 C1994 0.930 . S
H1987 C1995 0.930 . S
H1988 C1998 0.930 . S
H1989 C1999 0.930 . S
C1990 H1984 0.930 . S
C1990 C1991 1.355 . S
C1990 C1992 1.415 . S
C1991 C1990 1.355 . S
C1991 C1993 1.419 . S
C1992 C1990 1.415 . S
C1992 C1997 1.425 1_556 S
C1992 C1999 1.409 1_556 S
C1993 H1985 0.930 . S
C1993 C1991 1.419 . S
C1993 C1994 1.362 . S
C1994 H1986 0.930 . S
C1994 C1993 1.362 . S
C1994 C1997 1.409 1_556 S
C1995 H1987 0.930 . S
C1995 C1996 1.355 . S
C1995 C1997 1.415 . S
C1996 C1995 1.355 . S
C1996 C1998 1.419 . S
C1997 C1992 1.425 1_554 S
C1997 C1994 1.409 1_554 S
C1997 C1995 1.415 . S
C1998 H1988 0.930 . S
C1998 C1996 1.419 . S
C1998 C1999 1.362 . S
C1999 H1989 0.930 . S
C1999 C1992 1.409 1_554 S
C1999 C1998 1.362 . S
H2000 C2006 0.930 . S
H2001 C2009 0.930 . S
H2002 C2010 0.930 . S
H2003 C2011 0.930 . S
H2004 C2014 0.930 . S
H2005 C2015 0.930 . S
C2006 H2000 0.930 . S
C2006 C2007 1.355 . S
C2006 C2008 1.415 . S
C2007 C2006 1.355 . S
C2007 C2009 1.419 . S
C2008 C2006 1.415 . S
C2008 C2013 1.425 1_554 S
C2008 C2015 1.409 1_554 S
C2009 H2001 0.930 . S
C2009 C2007 1.419 . S
C2009 C2010 1.362 . S
C2010 H2002 0.930 . S
C2010 C2009 1.362 . S
C2010 C2013 1.409 1_554 S
C2011 H2003 0.930 . S
C2011 C2012 1.355 . S
C2011 C2013 1.415 . S
C2012 C2011 1.355 . S
C2012 C2014 1.419 . S
C2013 C2008 1.425 1_556 S
C2013 C2010 1.409 1_556 S
C2013 C2011 1.415 . S
C2014 H2004 0.930 . S
C2014 C2012 1.419 . S
C2014 C2015 1.362 . S
C2015 H2005 0.930 . S
C2015 C2008 1.409 1_556 S
C2015 C2014 1.362 . S
H2016 C2022 0.930 . S
H2017 C2025 0.930 . S
H2018 C2026 0.930 . S
H2019 C2027 0.930 . S
H2020 C2030 0.930 . S
H2021 C2031 0.930 . S
C2022 H2016 0.930 . S
C2022 C2023 1.355 . S
C2022 C2024 1.415 . S
C2023 C2022 1.355 . S
C2023 C2025 1.419 . S
C2024 C2022 1.415 . S
C2024 C2029 1.425 1_556 S
C2024 C2031 1.409 1_556 S
C2025 H2017 0.930 . S
C2025 C2023 1.419 . S
C2025 C2026 1.362 . S
C2026 H2018 0.930 . S
C2026 C2025 1.362 . S
C2026 C2029 1.409 1_556 S
C2027 H2019 0.930 . S
C2027 C2028 1.355 . S
C2027 C2029 1.415 . S
C2028 C2027 1.355 . S
C2028 C2030 1.419 . S
C2029 C2024 1.425 1_554 S
C2029 C2026 1.409 1_554 S
C2029 C2027 1.415 . S
C2030 H2020 0.930 . S
C2030 C2028 1.419 . S
C2030 C2031 1.362 . S
C2031 H2021 0.930 . S
C2031 C2024 1.409 1_554 S
C2031 C2030 1.362 . S
H2032 C2038 0.930 . S
H2033 C2041 0.930 . S
H2034 C2042 0.930 . S
H2035 C2043 0.930 . S
H2036 C2046 0.930 . S
H2037 C2047 0.930 . S
C2038 H2032 0.930 . S
C2038 C2039 1.355 . S
C2038 C2040 1.415 . S
C2039 C2038 1.355 . S
C2039 C2041 1.419 . S
C2040 C2038 1.415 . S
C2040 C2045 1.425 1_556 S
C2040 C2047 1.409 1_556 S
C2041 H2033 0.930 . S
C2041 C2039 1.419 . S
C2041 C2042 1.362 . S
C2042 H2034 0.930 . S
C2042 C2041 1.362 . S
C2042 C2045 1.409 1_556 S
C2043 H2035 0.930 . S
C2043 C2044 1.355 . S
C2043 C2045 1.415 . S
C2044 C2043 1.355 . S
C2044 C2046 1.419 . S
C2045 C2040 1.425 1_554 S
C2045 C2042 1.409 1_554 S
C2045 C2043 1.415 . S
C2046 H2036 0.930 . S
C2046 C2044 1.419 . S
C2046 C2047 1.362 . S
C2047 H2037 0.930 . S
C2047 C2040 1.409 1_554 S
C2047 C2046 1.362 . S
H2048 C2054 0.930 . S
H2049 C2057 0.930 . S
H2050 C2058 0.930 . S
H2051 C2059 0.930 . S
H2052 C2062 0.930 . S
H2053 C2063 0.930 . S
C2054 H2048 0.930 . S
C2054 C2055 1.355 . S
C2054 C2056 1.415 . S
C2055 C2054 1.355 . S
C2055 C2057 1.419 . S
C2056 C2054 1.415 . S
C2056 C2061 1.425 . S
C2056 C2063 1.409 . S
C2057 H2049 0.930 . S
C2057 C2055 1.419 . S
C2057 C2058 1.362 . S
C2058 H2050 0.930 . S
C2058 C2057 1.362 . S
C2058 C2061 1.409 . S
C2059 H2051 0.930 . S
C2059 C2060 1.355 . S
C2059 C2061 1.415 . S
C2060 C2059 1.355 . S
C2060 C2062 1.419 . S
C2061 C2056 1.425 . S
C2061 C2058 1.409 . S
C2061 C2059 1.415 . S
C2062 H2052 0.930 . S
C2062 C2060 1.419 . S
C2062 C2063 1.362 . S
C2063 H2053 0.930 . S
C2063 C2056 1.409 . S
C2063 C2062 1.362 . S
H2064 C2070 0.930 . S
H2065 C2073 0.930 . S
H2066 C2074 0.930 . S
H2067 C2075 0.930 . S
H2068 C2078 0.930 . S
H2069 C2079 0.930 . S
C2070 H2064 0.930 . S
C2070 C2071 1.355 . S
C2070 C2072 1.415 . S
C2071 C2070 1.355 . S
C2071 C2073 1.419 . S
C2072 C2070 1.415 . S
C2072 C2077 1.425 . S
C2072 C2079 1.409 . S
C2073 H2065 0.930 . S
C2073 C2071 1.419 . S
C2073 C2074 1.362 . S
C2074 H2066 0.930 . S
C2074 C2073 1.362 . S
C2074 C2077 1.409 . S
C2075 H2067 0.930 . S
C2075 C2076 1.355 . S
C2075 C2077 1.415 . S
C2076 C2075 1.355 . S
C2076 C2078 1.419 . S
C2077 C2072 1.425 . S
C2077 C2074 1.409 . S
C2077 C2075 1.415 . S
C2078 H2068 0.930 . S
C2078 C2076 1.419 . S
C2078 C2079 1.362 . S
C2079 H2069 0.930 . S
C2079 C2072 1.409 . S
C2079 C2078 1.362 . S
H2080 C2086 0.930 . S
H2081 C2089 0.930 . S
H2082 C2090 0.930 . S
H2083 C2091 0.930 . S
H2084 C2094 0.930 . S
H2085 C2095 0.930 . S
C2086 H2080 0.930 . S
C2086 C2087 1.355 . S
C2086 C2088 1.415 . S
C2087 C2086 1.355 . S
C2087 C2089 1.419 . S
C2088 C2086 1.415 . S
C2088 C2093 1.425 . S
C2088 C2095 1.409 . S
C2089 H2081 0.930 . S
C2089 C2087 1.419 . S
C2089 C2090 1.362 . S
C2090 H2082 0.930 . S
C2090 C2089 1.362 . S
C2090 C2093 1.409 . S
C2091 H2083 0.930 . S
C2091 C2092 1.355 . S
C2091 C2093 1.415 . S
C2092 C2091 1.355 . S
C2092 C2094 1.419 . S
C2093 C2088 1.425 . S
C2093 C2090 1.409 . S
C2093 C2091 1.415 . S
C2094 H2084 0.930 . S
C2094 C2092 1.419 . S
C2094 C2095 1.362 . S
C2095 H2085 0.930 . S
C2095 C2088 1.409 . S
C2095 C2094 1.362 . S
H2096 C2102 0.930 . S
H2097 C2105 0.930 . S
H2098 C2106 0.930 . S
H2099 C2107 0.930 . S
H2100 C2110 0.930 . S
H2101 C2111 0.930 . S
C2102 H2096 0.930 . S
C2102 C2103 1.355 . S
C2102 C2104 1.415 . S
C2103 C2102 1.355 . S
C2103 C2105 1.419 . S
C2104 C2102 1.415 . S
C2104 C2109 1.425 . S
C2104 C2111 1.409 . S
C2105 H2097 0.930 . S
C2105 C2103 1.419 . S
C2105 C2106 1.362 . S
C2106 H2098 0.930 . S
C2106 C2105 1.362 . S
C2106 C2109 1.409 . S
C2107 H2099 0.930 . S
C2107 C2108 1.355 . S
C2107 C2109 1.415 . S
C2108 C2107 1.355 . S
C2108 C2110 1.419 . S
C2109 C2104 1.425 . S
C2109 C2106 1.409 . S
C2109 C2107 1.415 . S
C2110 H2100 0.930 . S
C2110 C2108 1.419 . S
C2110 C2111 1.362 . S
C2111 H2101 0.930 . S
C2111 C2104 1.409 . S
C2111 C2110 1.362 . S
H2112 C2118 0.930 . S
H2113 C2121 0.930 . S
H2114 C2122 0.930 . S
H2115 C2123 0.930 . S
H2116 C2126 0.930 . S
H2117 C2127 0.930 . S
C2118 H2112 0.930 . S
C2118 C2119 1.355 . S
C2118 C2120 1.415 . S
C2119 C2118 1.355 . S
C2119 C2121 1.419 . S
C2120 C2118 1.415 . S
C2120 C2125 1.425 . S
C2120 C2127 1.409 . S
C2121 H2113 0.930 . S
C2121 C2119 1.419 . S
C2121 C2122 1.362 . S
C2122 H2114 0.930 . S
C2122 C2121 1.362 . S
C2122 C2125 1.409 . S
C2123 H2115 0.930 . S
C2123 C2124 1.355 . S
C2123 C2125 1.415 . S
C2124 C2123 1.355 . S
C2124 C2126 1.419 . S
C2125 C2120 1.425 . S
C2125 C2122 1.409 . S
C2125 C2123 1.415 . S
C2126 H2116 0.930 . S
C2126 C2124 1.419 . S
C2126 C2127 1.362 . S
C2127 H2117 0.930 . S
C2127 C2120 1.409 . S
C2127 C2126 1.362 . S
H2128 C2134 0.930 . S
H2129 C2137 0.930 . S
H2130 C2138 0.930 . S
H2131 C2139 0.930 . S
H2132 C2142 0.930 . S
H2133 C2143 0.930 . S
C2134 H2128 0.930 . S
C2134 C2135 1.355 . S
C2134 C2136 1.415 . S
C2135 C2134 1.355 . S
C2135 C2137 1.419 . S
C2136 C2134 1.415 . S
C2136 C2141 1.425 . S
C2136 C2143 1.409 . S
C2137 H2129 0.930 . S
C2137 C2135 1.419 . S
C2137 C2138 1.362 . S
C2138 H2130 0.930 . S
C2138 C2137 1.362 . S
C2138 C2141 1.409 . S
C2139 H2131 0.930 . S
C2139 C2140 1.355 . S
C2139 C2141 1.415 . S
C2140 C2139 1.355 . S
C2140 C2142 1.419 . S
C2141 C2136 1.425 . S
C2141 C2138 1.409 . S
C2141 C2139 1.415 . S
C2142 H2132 0.930 . S
C2142 C2140 1.419 . S
C2142 C2143 1.362 . S
C2143 H2133 0.930 . S
C2143 C2136 1.409 . S
C2143 C2142 1.362 . S
H2144 C2150 0.930 . S
H2145 C2153 0.930 . S
H2146 C2154 0.930 . S
H2147 C2155 0.930 . S
H2148 C2158 0.930 . S
H2149 C2159 0.930 . S
C2150 H2144 0.930 . S
C2150 C2151 1.355 . S
C2150 C2152 1.415 . S
C2151 C2150 1.355 . S
C2151 C2153 1.419 . S
C2152 C2150 1.415 . S
C2152 C2157 1.425 . S
C2152 C2159 1.409 . S
C2153 H2145 0.930 . S
C2153 C2151 1.419 . S
C2153 C2154 1.362 . S
C2154 H2146 0.930 . S
C2154 C2153 1.362 . S
C2154 C2157 1.409 . S
C2155 H2147 0.930 . S
C2155 C2156 1.355 . S
C2155 C2157 1.415 . S
C2156 C2155 1.355 . S
C2156 C2158 1.419 . S
C2157 C2152 1.425 . S
C2157 C2154 1.409 . S
C2157 C2155 1.415 . S
C2158 H2148 0.930 . S
C2158 C2156 1.419 . S
C2158 C2159 1.362 . S
C2159 H2149 0.930 . S
C2159 C2152 1.409 . S
C2159 C2158 1.362 . S
H2160 C2166 0.930 . S
H2161 C2169 0.930 . S
H2162 C2170 0.930 . S
H2163 C2171 0.930 . S
H2164 C2174 0.930 . S
H2165 C2175 0.930 . S
C2166 H2160 0.930 . S
C2166 C2167 1.355 . S
C2166 C2168 1.415 . S
C2167 C2166 1.355 . S
C2167 C2169 1.419 . S
C2168 C2166 1.415 . S
C2168 C2173 1.425 . S
C2168 C2175 1.409 . S
C2169 H2161 0.930 . S
C2169 C2167 1.419 . S
C2169 C2170 1.362 . S
C2170 H2162 0.930 . S
C2170 C2169 1.362 . S
C2170 C2173 1.409 . S
C2171 H2163 0.930 . S
C2171 C2172 1.355 . S
C2171 C2173 1.415 . S
C2172 C2171 1.355 . S
C2172 C2174 1.419 . S
C2173 C2168 1.425 . S
C2173 C2170 1.409 . S
C2173 C2171 1.415 . S
C2174 H2164 0.930 . S
C2174 C2172 1.419 . S
C2174 C2175 1.362 . S
C2175 H2165 0.930 . S
C2175 C2168 1.409 . S
C2175 C2174 1.362 . S
H2176 C2182 0.930 . S
H2177 C2185 0.930 . S
H2178 C2186 0.930 . S
H2179 C2187 0.930 . S
H2180 C2190 0.930 . S
H2181 C2191 0.930 . S
C2182 H2176 0.930 . S
C2182 C2183 1.355 . S
C2182 C2184 1.415 . S
C2183 C2182 1.355 . S
C2183 C2185 1.419 . S
C2184 C2182 1.415 . S
C2184 C2189 1.425 1_554 S
C2184 C2191 1.409 1_554 S
C2185 H2177 0.930 . S
C2185 C2183 1.419 . S
C2185 C2186 1.362 . S
C2186 H2178 0.930 . S
C2186 C2185 1.362 . S
C2186 C2189 1.409 1_554 S
C2187 H2179 0.930 . S
C2187 C2188 1.355 . S
C2187 C2189 1.415 . S
C2188 C2187 1.355 . S
C2188 C2190 1.419 . S
C2189 C2184 1.425 1_556 S
C2189 C2186 1.409 1_556 S
C2189 C2187 1.415 . S
C2190 H2180 0.930 . S
C2190 C2188 1.419 . S
C2190 C2191 1.362 . S
C2191 H2181 0.930 . S
C2191 C2184 1.409 1_556 S
C2191 C2190 1.362 . S
H2192 C2198 0.930 . S
H2193 C2201 0.930 . S
H2194 C2202 0.930 . S
H2195 C2203 0.930 . S
H2196 C2206 0.930 . S
H2197 C2207 0.930 . S
C2198 H2192 0.930 . S
C2198 C2199 1.355 . S
C2198 C2200 1.415 . S
C2199 C2198 1.355 . S
C2199 C2201 1.419 . S
C2200 C2198 1.415 . S
C2200 C2205 1.425 1_556 S
C2200 C2207 1.409 1_556 S
C2201 H2193 0.930 . S
C2201 C2199 1.419 . S
C2201 C2202 1.362 . S
C2202 H2194 0.930 . S
C2202 C2201 1.362 . S
C2202 C2205 1.409 1_556 S
C2203 H2195 0.930 . S
C2203 C2204 1.355 . S
C2203 C2205 1.415 . S
C2204 C2203 1.355 . S
C2204 C2206 1.419 . S
C2205 C2200 1.425 1_554 S
C2205 C2202 1.409 1_554 S
C2205 C2203 1.415 . S
C2206 H2196 0.930 . S
C2206 C2204 1.419 . S
C2206 C2207 1.362 . S
C2207 H2197 0.930 . S
C2207 C2200 1.409 1_554 S
C2207 C2206 1.362 . S
H2208 C2214 0.930 . S
H2209 C2217 0.930 . S
H2210 C2218 0.930 . S
H2211 C2219 0.930 . S
H2212 C2222 0.930 . S
H2213 C2223 0.930 . S
C2214 H2208 0.930 . S
C2214 C2215 1.355 . S
C2214 C2216 1.415 . S
C2215 C2214 1.355 . S
C2215 C2217 1.419 . S
C2216 C2214 1.415 . S
C2216 C2221 1.425 1_556 S
C2216 C2223 1.409 1_556 S
C2217 H2209 0.930 . S
C2217 C2215 1.419 . S
C2217 C2218 1.362 . S
C2218 H2210 0.930 . S
C2218 C2217 1.362 . S
C2218 C2221 1.409 1_556 S
C2219 H2211 0.930 . S
C2219 C2220 1.355 . S
C2219 C2221 1.415 . S
C2220 C2219 1.355 . S
C2220 C2222 1.419 . S
C2221 C2216 1.425 1_554 S
C2221 C2218 1.409 1_554 S
C2221 C2219 1.415 . S
C2222 H2212 0.930 . S
C2222 C2220 1.419 . S
C2222 C2223 1.362 . S
C2223 H2213 0.930 . S
C2223 C2216 1.409 1_554 S
C2223 C2222 1.362 . S
H2224 C2230 0.930 . S
H2225 C2233 0.930 . S
H2226 C2234 0.930 . S
H2227 C2235 0.930 . S
H2228 C2238 0.930 . S
H2229 C2239 0.930 . S
C2230 H2224 0.930 . S
C2230 C2231 1.355 . S
C2230 C2232 1.415 . S
C2231 C2230 1.355 . S
C2231 C2233 1.419 . S
C2232 C2230 1.415 . S
C2232 C2237 1.425 1_554 S
C2232 C2239 1.409 1_554 S
C2233 H2225 0.930 . S
C2233 C2231 1.419 . S
C2233 C2234 1.362 . S
C2234 H2226 0.930 . S
C2234 C2233 1.362 . S
C2234 C2237 1.409 1_554 S
C2235 H2227 0.930 . S
C2235 C2236 1.355 . S
C2235 C2237 1.415 . S
C2236 C2235 1.355 . S
C2236 C2238 1.419 . S
C2237 C2232 1.425 1_556 S
C2237 C2234 1.409 1_556 S
C2237 C2235 1.415 . S
C2238 H2228 0.930 . S
C2238 C2236 1.419 . S
C2238 C2239 1.362 . S
C2239 H2229 0.930 . S
C2239 C2232 1.409 1_556 S
C2239 C2238 1.362 . S
C711 C117 1.102 . S
C716 C7 1.063 . S
C727 C139 1.062 . S
C732 C29 1.125 . S
C743 C65 1.097 . S
C748 C169 1.068 . S
C759 C103 1.116 . S
C764 C73 1.075 . S
C775 C191 1.113 . S
C780 C307 1.055 . S
C791 C329 1.048 . S
C796 C205 1.124 . S
C807 C345 1.108 . S
C812 C235 1.059 . S
C823 C257 1.057 . S
C828 C285 1.109 . S
C839 C359 1.106 . S
C844 C469 1.086 . S
C855 C491 1.063 . S
C860 C381 1.102 . S
C871 C417 1.071 . S
C876 C521 1.119 . S
C887 C439 1.113 . S
C892 C455 1.078 . S
C903 C653 1.113 . S
C908 C535 1.078 . S
C919 C675 1.062 . S
C924 C557 1.125 . S
C935 C703 1.100 . S
C940 C593 1.093 . S
C951 C601 1.129 . S
C956 C631 1.047 . S
C967 C659 1.217 . S
C972 C15 1.249 . S
C983 C681 1.203 . S
C988 C37 1.263 . S
C999 C689 1.214 . S
C1004 C51 1.252 . S
C1015 C81 1.264 . S
C1020 C637 1.201 . S
C1031 C109 1.211 . S
C1036 C609 1.255 . S
C1047 C543 1.249 . S
C1052 C125 1.217 . S
C1063 C147 1.264 . S
C1068 C565 1.201 . S
C1079 C579 1.207 . S
C1084 C175 1.259 . S
C1095 C477 1.208 . S
C1100 C197 1.258 . S
C1111 C499 1.214 . S
C1116 C213 1.252 . S
C1127 C241 1.202 . S
C1132 C527 1.263 . S
C1143 C461 1.254 . S
C1148 C263 1.212 . S
C1159 C425 1.263 . S
C1164 C271 1.203 . S
C1175 C293 1.204 . S
C1180 C367 1.261 . S
C1191 C315 1.244 . S
C1196 C389 1.222 . S
C1207 C403 1.264 . S
C1212 C351 1.201 . S
C1223 C74 1.552 1_545 S
C1228 C18 1.554 . S
C1239 C8 1.561 1_655 S
C1244 C40 1.589 . S
C1255 C52 1.571 . S
C1260 C30 1.545 1_565 S
C1271 C84 1.559 . S
C1276 C54 1.549 1_455 S
C1287 C118 1.550 1_565 S
C1292 C98 1.585 . S
C1303 C140 1.565 1_455 S
C1308 C128 1.543 . S
C1319 C172 1.589 1_545 S
C1324 C150 1.565 . S
C1335 C164 1.589 . S
C1340 C106 1.563 1_655 S
C1351 C260 1.549 1_565 S
C1356 C186 1.584 . S
C1367 C194 1.567 1_455 S
C1372 C216 1.588 . S
C1383 C230 1.579 . S
C1388 C206 1.581 1_545 S
C1399 C252 1.576 . S
C1404 C238 1.584 1_655 S
C1415 C296 1.548 1_545 S
C1420 C272 1.561 . S
C1431 C294 1.557 . S
C1436 C318 1.550 1_655 S
C1447 C316 1.584 . S
C1452 C348 1.549 1_565 S
C1463 C340 1.557 . S
C1468 C274 1.549 1_455 S
C1479 C428 1.555 . S
C1484 C370 1.550 . S
C1495 C392 1.584 . S
C1500 C360 1.549 . S
C1511 C382 1.573 . S
C1516 C404 1.540 . S
C1527 C426 1.541 . S
C1532 C406 1.570 . S
C1543 C450 1.587 . S
C1548 C470 1.553 . S
C1559 C492 1.546 . S
C1564 C480 1.566 . S
C1575 C502 1.541 . S
C1580 C524 1.572 . S
C1591 C516 1.552 . S
C1596 C458 1.553 . S
C1607 C602 1.590 . S
C1612 C546 1.552 . S
C1623 C568 1.589 . S
C1628 C536 1.564 . S
C1639 C580 1.584 . S
C1644 C558 1.575 . S
C1655 C612 1.577 . S
C1660 C582 1.583 . S
C1671 C656 1.556 . S
C1676 C626 1.549 . S
C1687 C648 1.553 . S
C1692 C678 1.590 . S
C1703 C692 1.545 . S
C1708 C670 1.568 . S
C1719 C634 1.565 . S
C1724 C690 1.543 . S
C1735 C21 1.177 . S
C1740 C153 1.250 . S
C1751 C161 1.192 . S
C1756 C43 1.196 . S
C1767 C59 1.215 . S
C1772 C95 1.177 . S
C1783 C131 1.233 . S
C1788 C87 1.211 . S
C1799 C183 1.236 . S
C1804 C323 1.207 . S
C1815 C337 1.174 . S
C1820 C219 1.219 . S
C1831 C279 1.228 . S
C1836 C227 1.217 . S
C1847 C301 1.219 . S
C1852 C249 1.226 . S
C1863 C505 1.166 . S
C1868 C373 1.236 . S
C1879 C395 1.214 . S
C1884 C513 1.231 . S
C1895 C447 1.250 . S
C1900 C411 1.177 . S
C1911 C433 1.186 . S
C1916 C483 1.248 . S
C1927 C549 1.234 . S
C1932 C667 1.167 . S
C1943 C697 1.242 . S
C1948 C571 1.199 . S
C1959 C623 1.209 . S
C1964 C587 1.235 . S
C1975 C645 1.181 . S
C1980 C615 1.249 . S
C1991 C228 1.482 . S
C1996 C10 1.486 . S
C2007 C32 1.479 . S
C2012 C250 1.489 . S
C2023 C184 1.479 . S
C2028 C62 1.489 . S
C2039 C208 1.488 . S
C2044 C76 1.480 . S
C2055 C326 1.492 . S
C2060 C96 1.476 . S
C2071 C120 1.492 . S
C2076 C338 1.475 . S
C2087 C282 1.487 . S
C2092 C142 1.481 . S
C2103 C162 1.476 . S
C2108 C304 1.492 . S
C2119 C590 1.485 . S
C2124 C362 1.483 . S
C2135 C604 1.475 . S
C2140 C384 1.492 . S
C2151 C414 1.476 . S
C2156 C538 1.492 . S
C2167 C436 1.486 . S
C2172 C560 1.482 . S
C2183 C668 1.476 . S
C2188 C448 1.492 . S
C2199 C472 1.492 . S
C2204 C700 1.475 . S
C2215 C494 1.476 . S
C2220 C624 1.492 . S
C2231 C646 1.486 . S
C2236 C514 1.481 . S
