# Generated by pormake.
# Topology bcu, (8)-cn, num edge types: 1
# Building blocks:
#     Node 0, Type 0, BuildingBlock: GIZVER_clean_sbu_0, # of connection points: 8
#     Node 1, Type 0, BuildingBlock: GIZVER_clean_sbu_0, # of connection points: 8
#     Edge 2, Type (0, 0), BuildingBlock: ZUJKAS_clean_linker_0, # of connection points: 2
#     Edge 3, Type (0, 0), BuildingBlock: ZUJKAS_clean_linker_0, # of connection points: 2
#     Edge 4, Type (0, 0), BuildingBlock: ZUJKAS_clean_linker_0, # of connection points: 2
#     Edge 5, Type (0, 0), BuildingBlock: ZUJKAS_clean_linker_0, # of connection points: 2
#     Edge 6, Type (0, 0), BuildingBlock: ZUJKAS_clean_linker_0, # of connection points: 2
#     Edge 7, Type (0, 0), BuildingBlock: ZUJKAS_clean_linker_0, # of connection points: 2
#     Edge 8, Type (0, 0), BuildingBlock: ZUJKAS_clean_linker_0, # of connection points: 2
#     Edge 9, Type (0, 0), BuildingBlock: ZUJKAS_clean_linker_0, # of connection points: 2
# Relax obj value: 0.006
# Max RMSD: 0.052
# Mean RMSD: 0.052
data_MOF--net-bcu--node1-GIZVER_clean_sbu_0--edge1-ZUJKAS_clean_linker_0
_symmetry_space_group_name_H-M    P1
_symmetry_Int_Tables_number       1
_symmetry_cell_setting            triclinic
loop_
_symmetry_equiv_pos_as_xyz
'x, y, z'
_cell_length_a     27.287491
_cell_length_b     31.146242
_cell_length_c     16.035977
_cell_angle_alpha  88.149337
_cell_angle_beta   91.391711
_cell_angle_gamma 105.89761
loop_
_atom_site_label
_atom_site_type_symbol
_atom_site_fract_x
_atom_site_fract_y
_atom_site_fract_z
_atom_type_partial_charge
Co0 Co 0.06284 0.9403 0.98381 0.0
Co1 Co 0.06906 0.97481 0.13067 0.0
Co2 Co 1.00754 1.02416 1.00752 0.0
O3 O 0.06699 0.99875 0.02327 0.0
H4 H 0.09903 1.02024 0.01049 0.0
O5 O 0.94775 0.04912 0.99159 0.0
Co6 Co 0.94911 0.10525 0.03772 0.0
Co7 Co 0.94557 0.07625 0.88803 0.0
H8 H 0.91583 0.02678 1.00147 0.0
O9 O 0.13003 0.97 0.17618 0.0
O10 O 0.07357 0.91938 0.09928 0.0
O11 O 1.00838 0.96226 0.19588 0.0
O12 O 0.96314 0.98283 0.09266 0.0
O13 O 0.03874 0.06876 0.09382 0.0
O14 O 0.94551 0.15495 0.08389 0.0
O15 O 0.88127 0.0935 0.05769 0.0
O16 O 0.02016 0.12506 0.02561 0.0
O17 O 0.05194 0.06583 0.92242 0.0
O18 O 1.00668 0.09105 0.82461 0.0
O19 O 0.93881 0.13006 0.92505 0.0
O20 O 0.88451 0.08081 0.84254 0.0
C21 C 0.11199 0.90749 0.93861 0.0
C22 C 0.96516 0.93782 0.94194 0.0
C23 C 0.9659 0.96255 0.16246 0.0
C24 C 0.11567 0.93084 0.14345 0.0
C25 C 0.89763 0.13335 0.08853 0.0
C26 C 0.04872 0.11041 0.07617 0.0
C27 C 0.04907 0.08843 0.85527 0.0
C28 C 0.8977 0.11919 0.87838 0.0
O29 O 0.06362 0.88822 0.94571 0.0
O30 O 0.13027 0.94877 0.96219 0.0
O31 O 0.97654 0.97928 0.92173 0.0
O32 O 0.99177 0.92348 0.99664 0.0
Co33 Co 0.56522 0.44136 0.48579 0.0
Co34 Co 0.57295 0.47902 0.63048 0.0
Co35 Co 0.50782 0.52436 0.50675 0.0
O36 O 0.56806 0.50011 0.5216 0.0
H37 H 0.59958 0.52183 0.50662 0.0
O38 O 0.44772 0.549 0.49166 0.0
Co39 Co 0.4519 0.60778 0.52975 0.0
Co40 Co 0.44351 0.57193 0.38396 0.0
H41 H 0.41605 0.52743 0.50618 0.0
O42 O 0.63521 0.47592 0.67411 0.0
O43 O 0.57802 0.42335 0.60224 0.0
O44 O 0.51332 0.46652 0.69815 0.0
O45 O 0.46548 0.48439 0.59578 0.0
O46 O 0.53997 0.57094 0.58885 0.0
O47 O 0.45113 0.66005 0.567 0.0
O48 O 0.38491 0.59876 0.55503 0.0
O49 O 0.52265 0.62533 0.51267 0.0
O50 O 0.55023 0.5643 0.4177 0.0
O51 O 0.50332 0.58476 0.31672 0.0
O52 O 0.43859 0.62739 0.41462 0.0
O53 O 0.3815 0.57575 0.34076 0.0
C54 C 0.61544 0.40941 0.44169 0.0
C55 C 0.46627 0.43615 0.4468 0.0
C56 C 0.47002 0.46554 0.66645 0.0
C57 C 0.62078 0.43608 0.64424 0.0
C58 C 0.4031 0.64031 0.57707 0.0
C59 C 0.5504 0.61211 0.56689 0.0
C60 C 0.54631 0.58435 0.34804 0.0
C61 C 0.3958 0.61516 0.37251 0.0
O62 O 0.56764 0.38864 0.45144 0.0
O63 O 0.6324 0.45135 0.46166 0.0
O64 O 0.47575 0.47739 0.4252 0.0
O65 O 0.4943 0.42325 0.50121 0.0
H66 H 0.08416 0.19934 0.03897 0.0
H67 H 0.15663 0.25309 0.10209 0.0
H68 H 0.1892 0.14808 0.25668 0.0
H69 H 0.1165 0.09359 0.19347 0.0
H70 H 0.16822 0.27075 0.27606 0.0
H71 H 0.32798 0.21443 0.1511 0.0
H72 H 0.26453 0.19861 0.10583 0.0
H73 H 0.27834 0.17173 0.20075 0.0
C74 C 0.10678 0.18746 0.08612 0.0
C75 C 0.09435 0.14218 0.11171 0.0
C76 C 0.1482 0.21829 0.12198 0.0
C77 C 0.17824 0.20445 0.18355 0.0
C78 C 0.1667 0.15922 0.20837 0.0
H79 H 0.43426 0.34702 0.48514 0.0
H80 H 0.36284 0.29141 0.42335 0.0
C81 C 0.12509 0.12821 0.17252 0.0
C82 C 0.22011 0.23798 0.2243 0.0
H83 H 0.34926 0.27147 0.25051 0.0
C84 C 0.20785 0.27103 0.27044 0.0
C85 C 0.27158 0.23804 0.21664 0.0
C86 C 0.2867 0.20407 0.1654 0.0
C87 C 0.24586 0.30406 0.31011 0.0
C88 C 0.29736 0.30429 0.30206 0.0
C89 C 0.30962 0.2711 0.25628 0.0
C90 C 0.33922 0.33862 0.34102 0.0
C91 C 0.23066 0.33798 0.36138 0.0
C92 C 0.3494 0.3836 0.31499 0.0
C93 C 0.39032 0.41564 0.35003 0.0
C94 C 0.42175 0.40301 0.41137 0.0
C95 C 0.41095 0.35791 0.43775 0.0
C96 C 0.37019 0.326 0.4026 0.0
H97 H 0.18959 0.32708 0.37714 0.0
H98 H 0.25355 0.3442 0.42017 0.0
H99 H 0.23784 0.37003 0.32525 0.0
H100 H 0.3262 0.39379 0.26659 0.0
H101 H 0.39767 0.45005 0.32836 0.0
H102 H 0.80643 0.14321 0.02799 0.0
H103 H 0.7582 0.19167 0.08373 0.0
H104 H 0.86275 0.22044 0.29383 0.0
H105 H 0.91216 0.17429 0.23599 0.0
H106 H 0.70736 0.19846 0.20499 0.0
H107 H 0.87526 0.34399 0.22484 0.0
H108 H 0.87812 0.2931 0.17755 0.0
H109 H 0.88638 0.29947 0.28906 0.0
C110 C 0.81867 0.15974 0.08634 0.0
C111 C 0.86313 0.15555 0.12747 0.0
C112 C 0.79151 0.1878 0.11776 0.0
C113 C 0.80829 0.21184 0.19085 0.0
C114 C 0.85048 0.20451 0.23503 0.0
H115 H 0.61113 0.32302 0.47694 0.0
H116 H 0.66024 0.27784 0.41617 0.0
C117 C 0.87824 0.17749 0.20272 0.0
C118 C 0.78181 0.24428 0.22142 0.0
H119 H 0.8032 0.34739 0.3057 0.0
C120 C 0.72843 0.23122 0.22593 0.0
C121 C 0.80869 0.28789 0.2463 0.0
C122 C 0.86518 0.30706 0.23313 0.0
C123 C 0.70155 0.25959 0.25733 0.0
C124 C 0.72888 0.30127 0.29031 0.0
C125 C 0.78208 0.31508 0.28273 0.0
C126 C 0.70306 0.33055 0.3337 0.0
C127 C 0.64406 0.24471 0.25255 0.0
C128 C 0.71374 0.37654 0.31353 0.0
C129 C 0.68741 0.40324 0.35205 0.0
C130 C 0.64932 0.38412 0.40996 0.0
C131 C 0.64015 0.33866 0.43224 0.0
C132 C 0.6676 0.31252 0.39622 0.0
H133 H 0.63051 0.22251 0.19899 0.0
H134 H 0.62925 0.22525 0.31014 0.0
H135 H 0.62758 0.27353 0.24574 0.0
H136 H 0.74137 0.39155 0.26628 0.0
H137 H 0.69501 0.43817 0.33356 0.0
H138 H 0.86923 0.94548 0.09627 0.0
H139 H 0.79686 0.88179 0.12904 0.0
H140 H 0.88371 0.84095 0.32954 0.0
H141 H 0.95625 0.90482 0.298 0.0
H142 H 0.79879 0.79481 0.11798 0.0
H143 H 0.74685 0.82681 0.43713 0.0
H144 H 0.78913 0.86917 0.37343 0.0
H145 H 0.81271 0.82786 0.4299 0.0
C146 C 0.87262 0.9238 0.14902 0.0
C147 C 0.9188 0.93049 0.19453 0.0
C148 C 0.83119 0.88715 0.16724 0.0
C149 C 0.83475 0.85664 0.23186 0.0
C150 C 0.87976 0.86441 0.28021 0.0
H151 H 0.64395 0.60156 0.41009 0.0
H152 H 0.71544 0.66569 0.3756 0.0
C153 C 0.9213 0.90106 0.26203 0.0
C154 C 0.79315 0.81483 0.24396 0.0
H155 H 0.71132 0.75283 0.38809 0.0
C156 C 0.77936 0.78577 0.17685 0.0
C157 C 0.76809 0.80294 0.32092 0.0
C158 C 0.7796 0.83354 0.39418 0.0
C159 C 0.74185 0.74478 0.18503 0.0
C160 C 0.71701 0.73279 0.26214 0.0
C161 C 0.73069 0.76191 0.32917 0.0
C162 C 0.67595 0.69066 0.27469 0.0
C163 C 0.72999 0.71434 0.11156 0.0
C164 C 0.63038 0.68262 0.22781 0.0
C165 C 0.5893 0.64573 0.247 0.0
C166 C 0.59289 0.61633 0.31404 0.0
C167 C 0.63969 0.62322 0.35776 0.0
C168 C 0.68063 0.66012 0.33858 0.0
H169 H 0.76223 0.72154 0.06752 0.0
H170 H 0.72119 0.6787 0.13208 0.0
H171 H 0.69626 0.71963 0.07714 0.0
H172 H 0.62562 0.70607 0.17899 0.0
H173 H 0.55386 0.64181 0.21238 0.0
H174 H 0.20664 0.94545 0.22739 0.0
H175 H 0.25411 0.89134 0.2637 0.0
H176 H 0.14008 0.78886 0.138 0.0
H177 H 0.09249 0.84296 0.10033 0.0
H178 H 0.21979 0.81434 0.36015 0.0
H179 H 0.27232 0.77509 0.04458 0.0
H180 H 0.24956 0.8231 0.06337 0.0
H181 H 0.20545 0.76859 0.05705 0.0
C182 C 0.19176 0.91149 0.2068 0.0
C183 C 0.14564 0.89847 0.16122 0.0
C184 C 0.21898 0.88063 0.22767 0.0
C185 C 0.20082 0.83622 0.20308 0.0
C186 C 0.15521 0.82318 0.15643 0.0
H187 H 0.30393 0.59944 0.29089 0.0
H188 H 0.25543 0.6529 0.25544 0.0
C189 C 0.12792 0.85409 0.13535 0.0
C190 C 0.22848 0.80325 0.23005 0.0
H191 H 0.28933 0.73005 0.15782 0.0
C192 C 0.2352 0.796 0.31599 0.0
C193 C 0.2484 0.77941 0.17218 0.0
C194 C 0.24407 0.78713 0.07916 0.0
C195 C 0.26074 0.765 0.34578 0.0
C196 C 0.28065 0.74116 0.2879 0.0
C197 C 0.27387 0.74836 0.20197 0.0
C198 C 0.30871 0.70849 0.3148 0.0
C199 C 0.26533 0.75742 0.4388 0.0
C200 C 0.35464 0.72202 0.36046 0.0
C201 C 0.38254 0.69151 0.38094 0.0
C202 C 0.3651 0.64703 0.35553 0.0
C203 C 0.3186 0.63348 0.31111 0.0
C204 C 0.29078 0.66396 0.29075 0.0
H205 H 0.23723 0.76957 0.47356 0.0
H206 H 0.25982 0.72146 0.4547 0.0
H207 H 0.30403 0.77593 0.46056 0.0
H208 H 0.36958 0.75643 0.37843 0.0
H209 H 0.41824 0.70306 0.41507 0.0
H210 H 0.21486 0.93489 0.90391 0.0
H211 H 0.26598 0.88992 0.8438 0.0
H212 H 0.13374 0.77611 0.8388 0.0
H213 H 0.08313 0.81993 0.89914 0.0
H214 H 0.21924 0.75439 0.89862 0.0
H215 H 0.25775 0.85193 0.5996 0.0
H216 H 0.27702 0.88388 0.69195 0.0
H217 H 0.21056 0.85821 0.67169 0.0
C218 C 0.19684 0.90029 0.89005 0.0
C219 C 0.14478 0.88126 0.90548 0.0
C220 C 0.22595 0.8747 0.85532 0.0
C221 C 0.20338 0.82984 0.83546 0.0
C222 C 0.1519 0.81067 0.85306 0.0
H223 H 0.30043 0.61268 0.61324 0.0
H224 H 0.24945 0.65745 0.67438 0.0
C225 C 0.12297 0.83599 0.88745 0.0
C226 C 0.23264 0.80229 0.79611 0.0
H227 H 0.29606 0.79289 0.61962 0.0
C228 C 0.23615 0.76282 0.83768 0.0
C229 C 0.25404 0.81305 0.71609 0.0
C230 C 0.24941 0.85384 0.66665 0.0
C231 C 0.26136 0.73427 0.80224 0.0
C232 C 0.28278 0.74504 0.72224 0.0
C233 C 0.27923 0.78449 0.68063 0.0
C234 C 0.31205 0.71751 0.68288 0.0
C235 C 0.26596 0.69347 0.85165 0.0
C236 C 0.36352 0.73672 0.66521 0.0
C237 C 0.39238 0.71151 0.63022 0.0
C238 C 0.3705 0.66632 0.61165 0.0
C239 C 0.31851 0.64722 0.62748 0.0
C240 C 0.28946 0.67269 0.66278 0.0
H241 H 0.25758 0.69535 0.9187 0.0
H242 H 0.23836 0.66343 0.82628 0.0
H243 H 0.30482 0.6891 0.84665 0.0
H244 H 0.3817 0.77124 0.67971 0.0
H245 H 0.43219 0.72761 0.61838 0.0
H246 H 0.46536 0.40469 0.79582 0.0
H247 H 0.39388 0.33999 0.82845 0.0
H248 H 0.29931 0.38714 0.64851 0.0
H249 H 0.37066 0.45156 0.61421 0.0
H250 H 0.29434 0.32691 0.88153 0.0
H251 H 0.29658 0.26496 0.56102 0.0
H252 H 0.34731 0.30979 0.60209 0.0
H253 H 0.28887 0.32024 0.56492 0.0
C254 C 0.42908 0.40198 0.76442 0.0
C255 C 0.42409 0.43323 0.70159 0.0
C256 C 0.38829 0.36474 0.78291 0.0
C257 C 0.34178 0.35807 0.73911 0.0
C258 C 0.33535 0.39099 0.68137 0.0
H259 H 0.0583 0.15003 0.72636 0.0
H260 H 0.13169 0.21348 0.69739 0.0
C261 C 0.37611 0.42813 0.66254 0.0
C262 C 0.30094 0.31575 0.75108 0.0
H263 H 0.23002 0.22439 0.64842 0.0
C264 C 0.28038 0.30437 0.83074 0.0
C265 C 0.28299 0.2863 0.68466 0.0
C266 C 0.30531 0.2956 0.59852 0.0
C267 C 0.24136 0.26492 0.8454 0.0
C268 C 0.22321 0.23557 0.77884 0.0
C269 C 0.24404 0.24684 0.69932 0.0
C270 C 0.18113 0.19399 0.78983 0.0
C271 C 0.21887 0.25577 0.93144 0.0
C272 C 0.18534 0.16063 0.84837 0.0
C273 C 0.14336 0.12417 0.86525 0.0
C274 C 0.09641 0.1202 0.82337 0.0
C275 C 0.09368 0.15191 0.76007 0.0
C276 C 0.13561 0.18842 0.74358 0.0
H277 H 0.22803 0.28635 0.96914 0.0
H278 H 0.1768 0.24209 0.92768 0.0
H279 H 0.23477 0.23076 0.96497 0.0
H280 H 0.22059 0.16356 0.8831 0.0
H281 H 0.14706 0.1004 0.91416 0.0
H282 H 0.9216 0.20686 0.92219 0.0
H283 H 0.87597 0.262 0.88197 0.0
H284 H 0.76166 0.16076 0.75393 0.0
H285 H 0.80755 0.10567 0.79214 0.0
H286 H 0.79565 0.23667 0.65806 0.0
H287 H 0.74539 0.27826 0.97317 0.0
H288 H 0.81216 0.28396 0.96124 0.0
H289 H 0.76722 0.22986 0.95387 0.0
C290 C 0.88655 0.19624 0.88601 0.0
C291 C 0.86836 0.15194 0.85993 0.0
C292 C 0.86036 0.22775 0.86347 0.0
C293 C 0.81521 0.21538 0.8155 0.0
C294 C 0.79649 0.171 0.79084 0.0
H295 H 0.59421 0.3464 0.6176 0.0
H296 H 0.64403 0.29369 0.65283 0.0
C297 C 0.82275 0.13956 0.81289 0.0
C298 C 0.78837 0.24891 0.78811 0.0
H299 H 0.72972 0.32387 0.85982 0.0
C300 C 0.78111 0.25567 0.70214 0.0
C301 C 0.76942 0.27359 0.84578 0.0
C302 C 0.77345 0.26591 0.93874 0.0
C303 C 0.75573 0.28677 0.67229 0.0
C304 C 0.73701 0.31145 0.73006 0.0
C305 C 0.74451 0.30497 0.81586 0.0
C306 C 0.70853 0.34365 0.70311 0.0
C307 C 0.74943 0.29327 0.57935 0.0
C308 C 0.72835 0.38904 0.72008 0.0
C309 C 0.70015 0.41923 0.69962 0.0
C310 C 0.65145 0.40441 0.66248 0.0
C311 C 0.63187 0.3589 0.64516 0.0
C312 C 0.66025 0.32877 0.66515 0.0
H313 H 0.77583 0.2796 0.54354 0.0
H314 H 0.70984 0.27565 0.56034 0.0
H315 H 0.75601 0.32921 0.56216 0.0
H316 H 0.76549 0.40101 0.74978 0.0
H317 H 0.71635 0.45409 0.7137 0.0
H318 H 0.5915 0.69824 0.51427 0.0
H319 H 0.6626 0.75373 0.57705 0.0
H320 H 0.68271 0.65566 0.76113 0.0
H321 H 0.61099 0.59966 0.69902 0.0
H322 H 0.67637 0.73888 0.82593 0.0
H323 H 0.81613 0.76433 0.56944 0.0
H324 H 0.7523 0.76424 0.539 0.0
H325 H 0.76431 0.71407 0.58139 0.0
C326 C 0.61115 0.6883 0.5678 0.0
C327 C 0.59547 0.64462 0.60205 0.0
C328 C 0.65202 0.71999 0.60319 0.0
C329 C 0.67805 0.70857 0.6731 0.0
C330 C 0.66306 0.66491 0.70688 0.0
H331 H 0.921 0.85221 0.99419 0.0
H332 H 0.84893 0.79826 0.93058 0.0
C333 C 0.62222 0.63304 0.67128 0.0
C334 C 0.71917 0.74297 0.71347 0.0
H335 H 0.83681 0.81449 0.68072 0.0
C336 C 0.7116 0.75531 0.79451 0.0
C337 C 0.76474 0.76439 0.67175 0.0
C338 C 0.77534 0.75101 0.58584 0.0
C339 C 0.74837 0.78908 0.83482 0.0
C340 C 0.79401 0.81044 0.79318 0.0
C341 C 0.80151 0.79818 0.71202 0.0
C342 C 0.83559 0.84416 0.83416 0.0
C343 C 0.7378 0.80217 0.92098 0.0
C344 C 0.85218 0.88777 0.80044 0.0
C345 C 0.89365 0.9188 0.83651 0.0
C346 C 0.91945 0.90637 0.90612 0.0
C347 C 0.90214 0.86279 0.9403 0.0
C348 C 0.86068 0.83197 0.90449 0.0
H349 H 0.69663 0.79041 0.93578 0.0
H350 H 0.75895 0.78692 0.96781 0.0
H351 H 0.75087 0.83898 0.92733 0.0
H352 H 0.83331 0.89761 0.74583 0.0
H353 H 0.90614 0.95212 0.80884 0.0
loop_
_geom_bond_atom_site_label_1
_geom_bond_atom_site_label_2
_geom_bond_distance
_geom_bond_site_symmetry_2
_ccdc_geom_bond_type
Co0 O3 2.042 1_556 S
Co0 O10 2.264 1_556 S
Co0 O29 2.286 . S
Co0 O30 2.069 . S
Co0 O32 2.015 1_455 S
Co1 O3 2.122 . S
Co1 O9 2.073 . S
Co1 O10 2.327 . S
Co1 O11 1.976 1_455 S
Co2 O3 2.087 1_545 S
Co2 O5 2.087 1_454 S
Co2 O12 2.111 1_445 S
Co2 O13 2.143 . S
Co2 O17 2.111 1_554 S
Co2 O31 2.143 1_444 S
O3 Co0 2.042 1_554 S
O3 Co1 2.122 . S
O3 Co2 2.087 1_565 S
O3 H4 0.980 . S
H4 O3 0.980 . S
O5 Co2 2.087 1_656 S
O5 Co6 2.042 1_556 S
O5 Co7 2.122 . S
O5 H8 0.980 . S
Co6 O5 2.042 1_554 S
Co6 O14 2.286 . S
Co6 O15 2.069 . S
Co6 O16 2.015 1_655 S
Co6 O19 2.264 1_554 S
Co7 O5 2.122 . S
Co7 O18 1.976 1_655 S
Co7 O19 2.327 . S
Co7 O20 2.073 . S
H8 O5 0.980 . S
O9 Co1 2.073 . S
O9 C24 1.245 . S
O10 Co0 2.264 1_554 S
O10 Co1 2.327 . S
O10 C24 1.257 . S
O11 Co1 1.976 1_655 S
O11 C23 1.251 . S
O12 Co2 2.111 1_665 S
O12 C23 1.274 . S
O13 Co2 2.143 . S
O13 C26 1.246 . S
O14 Co6 2.286 . S
O14 C25 1.259 . S
O15 Co6 2.069 . S
O15 C25 1.289 . S
O16 Co6 2.015 1_455 S
O16 C26 1.257 . S
O17 Co2 2.111 1_556 S
O17 C27 1.274 . S
O18 Co7 1.976 1_455 S
O18 C27 1.251 . S
O19 Co6 2.264 1_556 S
O19 Co7 2.327 . S
O19 C28 1.257 . S
O20 Co7 2.073 . S
O20 C28 1.245 . S
C21 O29 1.259 . S
C21 O30 1.289 . S
C22 O31 1.246 . S
C22 O32 1.257 . S
C23 O11 1.251 . S
C23 O12 1.274 . S
C24 O9 1.245 . S
C24 O10 1.257 . S
C25 O14 1.259 . S
C25 O15 1.289 . S
C26 O13 1.246 . S
C26 O16 1.257 . S
C27 O17 1.274 . S
C27 O18 1.251 . S
C28 O19 1.257 . S
C28 O20 1.245 . S
O29 Co0 2.286 . S
O29 C21 1.259 . S
O30 Co0 2.069 . S
O30 C21 1.289 . S
O31 Co2 2.143 1_666 S
O31 C22 1.246 . S
O32 Co0 2.015 1_655 S
O32 C22 1.257 . S
Co33 O36 2.042 . S
Co33 O43 2.264 . S
Co33 O62 2.286 . S
Co33 O63 2.069 . S
Co33 O65 2.015 . S
Co34 O36 2.122 . S
Co34 O42 2.073 . S
Co34 O43 2.327 . S
Co34 O44 1.976 . S
Co35 O36 2.087 . S
Co35 O38 2.087 . S
Co35 O45 2.111 . S
Co35 O46 2.143 . S
Co35 O50 2.111 . S
Co35 O64 2.143 . S
O36 Co33 2.042 . S
O36 Co34 2.122 . S
O36 Co35 2.087 . S
O36 H37 0.980 . S
H37 O36 0.980 . S
O38 Co35 2.087 . S
O38 Co39 2.042 . S
O38 Co40 2.122 . S
O38 H41 0.980 . S
Co39 O38 2.042 . S
Co39 O47 2.286 . S
Co39 O48 2.069 . S
Co39 O49 2.015 . S
Co39 O52 2.264 . S
Co40 O38 2.122 . S
Co40 O51 1.976 . S
Co40 O52 2.327 . S
Co40 O53 2.073 . S
H41 O38 0.980 . S
O42 Co34 2.073 . S
O42 C57 1.245 . S
O43 Co33 2.264 . S
O43 Co34 2.327 . S
O43 C57 1.257 . S
O44 Co34 1.976 . S
O44 C56 1.251 . S
O45 Co35 2.111 . S
O45 C56 1.274 . S
O46 Co35 2.143 . S
O46 C59 1.246 . S
O47 Co39 2.286 . S
O47 C58 1.259 . S
O48 Co39 2.069 . S
O48 C58 1.289 . S
O49 Co39 2.015 . S
O49 C59 1.257 . S
O50 Co35 2.111 . S
O50 C60 1.274 . S
O51 Co40 1.976 . S
O51 C60 1.251 . S
O52 Co39 2.264 . S
O52 Co40 2.327 . S
O52 C61 1.257 . S
O53 Co40 2.073 . S
O53 C61 1.245 . S
C54 O62 1.259 . S
C54 O63 1.289 . S
C55 O64 1.246 . S
C55 O65 1.257 . S
C56 O44 1.251 . S
C56 O45 1.274 . S
C57 O42 1.245 . S
C57 O43 1.257 . S
C58 O47 1.259 . S
C58 O48 1.289 . S
C59 O46 1.246 . S
C59 O49 1.257 . S
C60 O50 1.274 . S
C60 O51 1.251 . S
C61 O52 1.257 . S
C61 O53 1.245 . S
O62 Co33 2.286 . S
O62 C54 1.259 . S
O63 Co33 2.069 . S
O63 C54 1.289 . S
O64 Co35 2.143 . S
O64 C55 1.246 . S
O65 Co33 2.015 . S
O65 C55 1.257 . S
H66 C74 0.929 . S
H67 C76 0.930 . S
H68 C78 0.930 . S
H69 C81 0.929 . S
H70 C84 0.930 . S
H71 C86 0.960 . S
H72 C86 0.960 . S
H73 C86 0.960 . S
C74 H66 0.929 . S
C74 C75 1.377 . S
C74 C76 1.384 . S
C75 C74 1.377 . S
C75 C81 1.390 . S
C76 H67 0.930 . S
C76 C74 1.384 . S
C76 C77 1.372 . S
C77 C76 1.372 . S
C77 C78 1.400 . S
C77 C82 1.490 . S
C78 H68 0.930 . S
C78 C77 1.400 . S
C78 C81 1.386 . S
H79 C95 0.930 . S
H80 C96 0.931 . S
C81 H69 0.929 . S
C81 C75 1.390 . S
C81 C78 1.386 . S
C82 C77 1.490 . S
C82 C84 1.395 . S
C82 C85 1.403 . S
H83 C89 0.930 . S
C84 H70 0.930 . S
C84 C82 1.395 . S
C84 C87 1.403 . S
C85 C82 1.403 . S
C85 C86 1.524 . S
C85 C89 1.400 . S
C86 H71 0.960 . S
C86 H72 0.960 . S
C86 H73 0.960 . S
C86 C85 1.524 . S
C87 C84 1.403 . S
C87 C88 1.392 . S
C87 C91 1.495 . S
C88 C87 1.392 . S
C88 C89 1.385 . S
C88 C90 1.478 . S
C89 H83 0.930 . S
C89 C85 1.400 . S
C89 C88 1.385 . S
C90 C88 1.478 . S
C90 C92 1.381 . S
C90 C96 1.383 . S
C91 C87 1.495 . S
C91 H97 0.959 . S
C91 H98 0.961 . S
C91 H99 0.960 . S
C92 C90 1.381 . S
C92 C93 1.394 . S
C92 H100 0.930 . S
C93 C92 1.394 . S
C93 C94 1.383 . S
C93 H101 0.929 . S
C94 C93 1.383 . S
C94 C95 1.377 . S
C95 H79 0.930 . S
C95 C94 1.377 . S
C95 C96 1.379 . S
C96 H80 0.931 . S
C96 C90 1.383 . S
C96 C95 1.379 . S
H97 C91 0.959 . S
H98 C91 0.961 . S
H99 C91 0.960 . S
H100 C92 0.930 . S
H101 C93 0.929 . S
H102 C110 0.929 . S
H103 C112 0.930 . S
H104 C114 0.930 . S
H105 C117 0.929 . S
H106 C120 0.930 . S
H107 C122 0.960 . S
H108 C122 0.960 . S
H109 C122 0.960 . S
C110 H102 0.929 . S
C110 C111 1.377 . S
C110 C112 1.384 . S
C111 C110 1.377 . S
C111 C117 1.390 . S
C112 H103 0.930 . S
C112 C110 1.384 . S
C112 C113 1.372 . S
C113 C112 1.372 . S
C113 C114 1.400 . S
C113 C118 1.490 . S
C114 H104 0.930 . S
C114 C113 1.400 . S
C114 C117 1.386 . S
H115 C131 0.930 . S
H116 C132 0.931 . S
C117 H105 0.929 . S
C117 C111 1.390 . S
C117 C114 1.386 . S
C118 C113 1.490 . S
C118 C120 1.395 . S
C118 C121 1.403 . S
H119 C125 0.930 . S
C120 H106 0.930 . S
C120 C118 1.395 . S
C120 C123 1.403 . S
C121 C118 1.403 . S
C121 C122 1.524 . S
C121 C125 1.400 . S
C122 H107 0.960 . S
C122 H108 0.960 . S
C122 H109 0.960 . S
C122 C121 1.524 . S
C123 C120 1.403 . S
C123 C124 1.392 . S
C123 C127 1.495 . S
C124 C123 1.392 . S
C124 C125 1.385 . S
C124 C126 1.478 . S
C125 H119 0.930 . S
C125 C121 1.400 . S
C125 C124 1.385 . S
C126 C124 1.478 . S
C126 C128 1.381 . S
C126 C132 1.383 . S
C127 C123 1.495 . S
C127 H133 0.959 . S
C127 H134 0.961 . S
C127 H135 0.960 . S
C128 C126 1.381 . S
C128 C129 1.394 . S
C128 H136 0.930 . S
C129 C128 1.394 . S
C129 C130 1.383 . S
C129 H137 0.929 . S
C130 C129 1.383 . S
C130 C131 1.377 . S
C131 H115 0.930 . S
C131 C130 1.377 . S
C131 C132 1.379 . S
C132 H116 0.931 . S
C132 C126 1.383 . S
C132 C131 1.379 . S
H133 C127 0.959 . S
H134 C127 0.961 . S
H135 C127 0.960 . S
H136 C128 0.930 . S
H137 C129 0.929 . S
H138 C146 0.929 . S
H139 C148 0.930 . S
H140 C150 0.930 . S
H141 C153 0.929 . S
H142 C156 0.930 . S
H143 C158 0.960 . S
H144 C158 0.960 . S
H145 C158 0.960 . S
C146 H138 0.929 . S
C146 C147 1.377 . S
C146 C148 1.384 . S
C147 C146 1.377 . S
C147 C153 1.390 . S
C148 H139 0.930 . S
C148 C146 1.384 . S
C148 C149 1.372 . S
C149 C148 1.372 . S
C149 C150 1.400 . S
C149 C154 1.490 . S
C150 H140 0.930 . S
C150 C149 1.400 . S
C150 C153 1.386 . S
H151 C167 0.930 . S
H152 C168 0.931 . S
C153 H141 0.929 . S
C153 C147 1.390 . S
C153 C150 1.386 . S
C154 C149 1.490 . S
C154 C156 1.395 . S
C154 C157 1.403 . S
H155 C161 0.930 . S
C156 H142 0.930 . S
C156 C154 1.395 . S
C156 C159 1.403 . S
C157 C154 1.403 . S
C157 C158 1.524 . S
C157 C161 1.400 . S
C158 H143 0.960 . S
C158 H144 0.960 . S
C158 H145 0.960 . S
C158 C157 1.524 . S
C159 C156 1.403 . S
C159 C160 1.392 . S
C159 C163 1.495 . S
C160 C159 1.392 . S
C160 C161 1.385 . S
C160 C162 1.478 . S
C161 H155 0.930 . S
C161 C157 1.400 . S
C161 C160 1.385 . S
C162 C160 1.478 . S
C162 C164 1.381 . S
C162 C168 1.383 . S
C163 C159 1.495 . S
C163 H169 0.959 . S
C163 H170 0.961 . S
C163 H171 0.960 . S
C164 C162 1.381 . S
C164 C165 1.394 . S
C164 H172 0.930 . S
C165 C164 1.394 . S
C165 C166 1.383 . S
C165 H173 0.929 . S
C166 C165 1.383 . S
C166 C167 1.377 . S
C167 H151 0.930 . S
C167 C166 1.377 . S
C167 C168 1.379 . S
C168 H152 0.931 . S
C168 C162 1.383 . S
C168 C167 1.379 . S
H169 C163 0.959 . S
H170 C163 0.961 . S
H171 C163 0.960 . S
H172 C164 0.930 . S
H173 C165 0.929 . S
H174 C182 0.929 . S
H175 C184 0.930 . S
H176 C186 0.930 . S
H177 C189 0.929 . S
H178 C192 0.930 . S
H179 C194 0.960 . S
H180 C194 0.960 . S
H181 C194 0.960 . S
C182 H174 0.929 . S
C182 C183 1.377 . S
C182 C184 1.384 . S
C183 C182 1.377 . S
C183 C189 1.390 . S
C184 H175 0.930 . S
C184 C182 1.384 . S
C184 C185 1.372 . S
C185 C184 1.372 . S
C185 C186 1.400 . S
C185 C190 1.490 . S
C186 H176 0.930 . S
C186 C185 1.400 . S
C186 C189 1.386 . S
H187 C203 0.930 . S
H188 C204 0.931 . S
C189 H177 0.929 . S
C189 C183 1.390 . S
C189 C186 1.386 . S
C190 C185 1.490 . S
C190 C192 1.395 . S
C190 C193 1.403 . S
H191 C197 0.930 . S
C192 H178 0.930 . S
C192 C190 1.395 . S
C192 C195 1.403 . S
C193 C190 1.403 . S
C193 C194 1.524 . S
C193 C197 1.400 . S
C194 H179 0.960 . S
C194 H180 0.960 . S
C194 H181 0.960 . S
C194 C193 1.524 . S
C195 C192 1.403 . S
C195 C196 1.392 . S
C195 C199 1.495 . S
C196 C195 1.392 . S
C196 C197 1.385 . S
C196 C198 1.478 . S
C197 H191 0.930 . S
C197 C193 1.400 . S
C197 C196 1.385 . S
C198 C196 1.478 . S
C198 C200 1.381 . S
C198 C204 1.383 . S
C199 C195 1.495 . S
C199 H205 0.959 . S
C199 H206 0.961 . S
C199 H207 0.960 . S
C200 C198 1.381 . S
C200 C201 1.394 . S
C200 H208 0.930 . S
C201 C200 1.394 . S
C201 C202 1.383 . S
C201 H209 0.929 . S
C202 C201 1.383 . S
C202 C203 1.377 . S
C203 H187 0.930 . S
C203 C202 1.377 . S
C203 C204 1.379 . S
C204 H188 0.931 . S
C204 C198 1.383 . S
C204 C203 1.379 . S
H205 C199 0.959 . S
H206 C199 0.961 . S
H207 C199 0.960 . S
H208 C200 0.930 . S
H209 C201 0.929 . S
H210 C218 0.929 . S
H211 C220 0.930 . S
H212 C222 0.930 . S
H213 C225 0.929 . S
H214 C228 0.930 . S
H215 C230 0.960 . S
H216 C230 0.960 . S
H217 C230 0.960 . S
C218 H210 0.929 . S
C218 C219 1.377 . S
C218 C220 1.384 . S
C219 C218 1.377 . S
C219 C225 1.390 . S
C220 H211 0.930 . S
C220 C218 1.384 . S
C220 C221 1.372 . S
C221 C220 1.372 . S
C221 C222 1.400 . S
C221 C226 1.490 . S
C222 H212 0.930 . S
C222 C221 1.400 . S
C222 C225 1.386 . S
H223 C239 0.930 . S
H224 C240 0.931 . S
C225 H213 0.929 . S
C225 C219 1.390 . S
C225 C222 1.386 . S
C226 C221 1.490 . S
C226 C228 1.395 . S
C226 C229 1.403 . S
H227 C233 0.930 . S
C228 H214 0.930 . S
C228 C226 1.395 . S
C228 C231 1.403 . S
C229 C226 1.403 . S
C229 C230 1.524 . S
C229 C233 1.400 . S
C230 H215 0.960 . S
C230 H216 0.960 . S
C230 H217 0.960 . S
C230 C229 1.524 . S
C231 C228 1.403 . S
C231 C232 1.392 . S
C231 C235 1.495 . S
C232 C231 1.392 . S
C232 C233 1.385 . S
C232 C234 1.478 . S
C233 H227 0.930 . S
C233 C229 1.400 . S
C233 C232 1.385 . S
C234 C232 1.478 . S
C234 C236 1.381 . S
C234 C240 1.383 . S
C235 C231 1.495 . S
C235 H241 0.959 . S
C235 H242 0.961 . S
C235 H243 0.960 . S
C236 C234 1.381 . S
C236 C237 1.394 . S
C236 H244 0.930 . S
C237 C236 1.394 . S
C237 C238 1.383 . S
C237 H245 0.929 . S
C238 C237 1.383 . S
C238 C239 1.377 . S
C239 H223 0.930 . S
C239 C238 1.377 . S
C239 C240 1.379 . S
C240 H224 0.931 . S
C240 C234 1.383 . S
C240 C239 1.379 . S
H241 C235 0.959 . S
H242 C235 0.961 . S
H243 C235 0.960 . S
H244 C236 0.930 . S
H245 C237 0.929 . S
H246 C254 0.929 . S
H247 C256 0.930 . S
H248 C258 0.930 . S
H249 C261 0.929 . S
H250 C264 0.930 . S
H251 C266 0.960 . S
H252 C266 0.960 . S
H253 C266 0.960 . S
C254 H246 0.929 . S
C254 C255 1.377 . S
C254 C256 1.384 . S
C255 C254 1.377 . S
C255 C261 1.390 . S
C256 H247 0.930 . S
C256 C254 1.384 . S
C256 C257 1.372 . S
C257 C256 1.372 . S
C257 C258 1.400 . S
C257 C262 1.490 . S
C258 H248 0.930 . S
C258 C257 1.400 . S
C258 C261 1.386 . S
H259 C275 0.930 . S
H260 C276 0.931 . S
C261 H249 0.929 . S
C261 C255 1.390 . S
C261 C258 1.386 . S
C262 C257 1.490 . S
C262 C264 1.395 . S
C262 C265 1.403 . S
H263 C269 0.930 . S
C264 H250 0.930 . S
C264 C262 1.395 . S
C264 C267 1.403 . S
C265 C262 1.403 . S
C265 C266 1.524 . S
C265 C269 1.400 . S
C266 H251 0.960 . S
C266 H252 0.960 . S
C266 H253 0.960 . S
C266 C265 1.524 . S
C267 C264 1.403 . S
C267 C268 1.392 . S
C267 C271 1.495 . S
C268 C267 1.392 . S
C268 C269 1.385 . S
C268 C270 1.478 . S
C269 H263 0.930 . S
C269 C265 1.400 . S
C269 C268 1.385 . S
C270 C268 1.478 . S
C270 C272 1.381 . S
C270 C276 1.383 . S
C271 C267 1.495 . S
C271 H277 0.959 . S
C271 H278 0.961 . S
C271 H279 0.960 . S
C272 C270 1.381 . S
C272 C273 1.394 . S
C272 H280 0.930 . S
C273 C272 1.394 . S
C273 C274 1.383 . S
C273 H281 0.929 . S
C274 C273 1.383 . S
C274 C275 1.377 . S
C275 H259 0.930 . S
C275 C274 1.377 . S
C275 C276 1.379 . S
C276 H260 0.931 . S
C276 C270 1.383 . S
C276 C275 1.379 . S
H277 C271 0.959 . S
H278 C271 0.961 . S
H279 C271 0.960 . S
H280 C272 0.930 . S
H281 C273 0.929 . S
H282 C290 0.929 . S
H283 C292 0.930 . S
H284 C294 0.930 . S
H285 C297 0.929 . S
H286 C300 0.930 . S
H287 C302 0.960 . S
H288 C302 0.960 . S
H289 C302 0.960 . S
C290 H282 0.929 . S
C290 C291 1.377 . S
C290 C292 1.384 . S
C291 C290 1.377 . S
C291 C297 1.390 . S
C292 H283 0.930 . S
C292 C290 1.384 . S
C292 C293 1.372 . S
C293 C292 1.372 . S
C293 C294 1.400 . S
C293 C298 1.490 . S
C294 H284 0.930 . S
C294 C293 1.400 . S
C294 C297 1.386 . S
H295 C311 0.930 . S
H296 C312 0.931 . S
C297 H285 0.929 . S
C297 C291 1.390 . S
C297 C294 1.386 . S
C298 C293 1.490 . S
C298 C300 1.395 . S
C298 C301 1.403 . S
H299 C305 0.930 . S
C300 H286 0.930 . S
C300 C298 1.395 . S
C300 C303 1.403 . S
C301 C298 1.403 . S
C301 C302 1.524 . S
C301 C305 1.400 . S
C302 H287 0.960 . S
C302 H288 0.960 . S
C302 H289 0.960 . S
C302 C301 1.524 . S
C303 C300 1.403 . S
C303 C304 1.392 . S
C303 C307 1.495 . S
C304 C303 1.392 . S
C304 C305 1.385 . S
C304 C306 1.478 . S
C305 H299 0.930 . S
C305 C301 1.400 . S
C305 C304 1.385 . S
C306 C304 1.478 . S
C306 C308 1.381 . S
C306 C312 1.383 . S
C307 C303 1.495 . S
C307 H313 0.959 . S
C307 H314 0.961 . S
C307 H315 0.960 . S
C308 C306 1.381 . S
C308 C309 1.394 . S
C308 H316 0.930 . S
C309 C308 1.394 . S
C309 C310 1.383 . S
C309 H317 0.929 . S
C310 C309 1.383 . S
C310 C311 1.377 . S
C311 H295 0.930 . S
C311 C310 1.377 . S
C311 C312 1.379 . S
C312 H296 0.931 . S
C312 C306 1.383 . S
C312 C311 1.379 . S
H313 C307 0.959 . S
H314 C307 0.961 . S
H315 C307 0.960 . S
H316 C308 0.930 . S
H317 C309 0.929 . S
H318 C326 0.929 . S
H319 C328 0.930 . S
H320 C330 0.930 . S
H321 C333 0.929 . S
H322 C336 0.930 . S
H323 C338 0.960 . S
H324 C338 0.960 . S
H325 C338 0.960 . S
C326 H318 0.929 . S
C326 C327 1.377 . S
C326 C328 1.384 . S
C327 C326 1.377 . S
C327 C333 1.390 . S
C328 H319 0.930 . S
C328 C326 1.384 . S
C328 C329 1.372 . S
C329 C328 1.372 . S
C329 C330 1.400 . S
C329 C334 1.490 . S
C330 H320 0.930 . S
C330 C329 1.400 . S
C330 C333 1.386 . S
H331 C347 0.930 . S
H332 C348 0.931 . S
C333 H321 0.929 . S
C333 C327 1.390 . S
C333 C330 1.386 . S
C334 C329 1.490 . S
C334 C336 1.395 . S
C334 C337 1.403 . S
H335 C341 0.930 . S
C336 H322 0.930 . S
C336 C334 1.395 . S
C336 C339 1.403 . S
C337 C334 1.403 . S
C337 C338 1.524 . S
C337 C341 1.400 . S
C338 H323 0.960 . S
C338 H324 0.960 . S
C338 H325 0.960 . S
C338 C337 1.524 . S
C339 C336 1.403 . S
C339 C340 1.392 . S
C339 C343 1.495 . S
C340 C339 1.392 . S
C340 C341 1.385 . S
C340 C342 1.478 . S
C341 H335 0.930 . S
C341 C337 1.400 . S
C341 C340 1.385 . S
C342 C340 1.478 . S
C342 C344 1.381 . S
C342 C348 1.383 . S
C343 C339 1.495 . S
C343 H349 0.959 . S
C343 H350 0.961 . S
C343 H351 0.960 . S
C344 C342 1.381 . S
C344 C345 1.394 . S
C344 H352 0.930 . S
C345 C344 1.394 . S
C345 C346 1.383 . S
C345 H353 0.929 . S
C346 C345 1.383 . S
C346 C347 1.377 . S
C347 H331 0.930 . S
C347 C346 1.377 . S
C347 C348 1.379 . S
C348 H332 0.931 . S
C348 C342 1.383 . S
C348 C347 1.379 . S
H349 C343 0.959 . S
H350 C343 0.961 . S
H351 C343 0.960 . S
H352 C344 0.930 . S
H353 C345 0.929 . S
C75 C26 1.275 . S
C94 C55 1.297 . S
C111 C25 1.833 . S
C130 C54 1.818 . S
C147 C23 1.216 . S
C166 C60 1.181 . S
C183 C24 1.377 . S
C202 C61 1.396 . S
C219 C21 1.837 . S
C238 C58 1.840 . S
C255 C56 1.222 . S
C274 C27 1.250 . S
C291 C28 1.371 . S
C310 C57 1.390 . S
C327 C59 1.274 . S
C346 C22 1.302 . S
