# Generated by pormake.
# Topology ske, (6)-cn, num edge types: 1
# Building blocks:
#     Node 0, Type 0, BuildingBlock: FUNLAD_clean_sbu_0, # of connection points: 6
#     Node 1, Type 0, BuildingBlock: FUNLAD_clean_sbu_0, # of connection points: 6
#     Node 2, Type 0, BuildingBlock: FUNLAD_clean_sbu_0, # of connection points: 6
#     Node 3, Type 0, BuildingBlock: FUNLAD_clean_sbu_0, # of connection points: 6
#     Node 4, Type 0, BuildingBlock: FUNLAD_clean_sbu_0, # of connection points: 6
#     Node 5, Type 0, BuildingBlock: FUNLAD_clean_sbu_0, # of connection points: 6
#     Node 6, Type 0, BuildingBlock: FUNLAD_clean_sbu_0, # of connection points: 6
#     Node 7, Type 0, BuildingBlock: FUNLAD_clean_sbu_0, # of connection points: 6
#     Edge 8, Type (0, 0), BuildingBlock: MIFKUJ_clean_linker_0, # of connection points: 2
#     Edge 9, Type (0, 0), BuildingBlock: MIFKUJ_clean_linker_0, # of connection points: 2
#     Edge 10, Type (0, 0), BuildingBlock: MIFKUJ_clean_linker_0, # of connection points: 2
#     Edge 11, Type (0, 0), BuildingBlock: MIFKUJ_clean_linker_0, # of connection points: 2
#     Edge 12, Type (0, 0), BuildingBlock: MIFKUJ_clean_linker_0, # of connection points: 2
#     Edge 13, Type (0, 0), BuildingBlock: MIFKUJ_clean_linker_0, # of connection points: 2
#     Edge 14, Type (0, 0), BuildingBlock: MIFKUJ_clean_linker_0, # of connection points: 2
#     Edge 15, Type (0, 0), BuildingBlock: MIFKUJ_clean_linker_0, # of connection points: 2
#     Edge 16, Type (0, 0), BuildingBlock: MIFKUJ_clean_linker_0, # of connection points: 2
#     Edge 17, Type (0, 0), BuildingBlock: MIFKUJ_clean_linker_0, # of connection points: 2
#     Edge 18, Type (0, 0), BuildingBlock: MIFKUJ_clean_linker_0, # of connection points: 2
#     Edge 19, Type (0, 0), BuildingBlock: MIFKUJ_clean_linker_0, # of connection points: 2
#     Edge 20, Type (0, 0), BuildingBlock: MIFKUJ_clean_linker_0, # of connection points: 2
#     Edge 21, Type (0, 0), BuildingBlock: MIFKUJ_clean_linker_0, # of connection points: 2
#     Edge 22, Type (0, 0), BuildingBlock: MIFKUJ_clean_linker_0, # of connection points: 2
#     Edge 23, Type (0, 0), BuildingBlock: MIFKUJ_clean_linker_0, # of connection points: 2
#     Edge 24, Type (0, 0), BuildingBlock: MIFKUJ_clean_linker_0, # of connection points: 2
#     Edge 25, Type (0, 0), BuildingBlock: MIFKUJ_clean_linker_0, # of connection points: 2
#     Edge 26, Type (0, 0), BuildingBlock: MIFKUJ_clean_linker_0, # of connection points: 2
#     Edge 27, Type (0, 0), BuildingBlock: MIFKUJ_clean_linker_0, # of connection points: 2
#     Edge 28, Type (0, 0), BuildingBlock: MIFKUJ_clean_linker_0, # of connection points: 2
#     Edge 29, Type (0, 0), BuildingBlock: MIFKUJ_clean_linker_0, # of connection points: 2
#     Edge 30, Type (0, 0), BuildingBlock: MIFKUJ_clean_linker_0, # of connection points: 2
#     Edge 31, Type (0, 0), BuildingBlock: MIFKUJ_clean_linker_0, # of connection points: 2
# Relax obj value: 0.060
# Max RMSD: 0.121
# Mean RMSD: 0.117
data_MOF--net-ske--node1-FUNLAD_clean_sbu_0--edge1-MIFKUJ_clean_linker_0
_symmetry_space_group_name_H-M    P1
_symmetry_Int_Tables_number       1
_symmetry_cell_setting            triclinic
loop_
_symmetry_equiv_pos_as_xyz
'x, y, z'
_cell_length_a     75.433247
_cell_length_b     52.420835
_cell_length_c     19.126409
_cell_angle_alpha  89.775227
_cell_angle_beta   89.803166
_cell_angle_gamma 91.596976
loop_
_atom_site_label
_atom_site_type_symbol
_atom_site_fract_x
_atom_site_fract_y
_atom_site_fract_z
_atom_type_partial_charge
C0 C 0.16993 0.26155 0.57216 0.0
N1 N 0.1335 0.20124 0.53124 0.0
C2 C 0.14808 0.18862 0.50991 0.0
C3 C 0.1479 0.16201 0.5087 0.0
C4 C 0.13248 0.14823 0.52852 0.0
C5 C 0.11761 0.16164 0.55033 0.0
C6 C 0.11846 0.18831 0.55186 0.0
Zn7 Zn 0.13433 0.24032 0.52871 0.0
C8 C 0.12448 0.26307 0.66285 0.0
N9 N 0.13693 0.32188 0.52034 0.0
C10 C 0.15014 0.33436 0.48422 0.0
C11 C 0.12383 0.33491 0.55231 0.0
C12 C 0.12364 0.3615 0.54835 0.0
C13 C 0.13691 0.3748 0.51033 0.0
C14 C 0.15032 0.36093 0.47815 0.0
Zn15 Zn 0.13615 0.28281 0.52417 0.0
O16 O 0.1609 0.24087 0.56536 0.0
C17 C 0.14607 0.2597 0.39012 0.0
O18 O 0.16296 0.2826 0.55641 0.0
H19 H 0.11337 0.32465 0.58023 0.0
H20 H 0.15983 0.19921 0.49289 0.0
H21 H 0.16048 0.32367 0.45948 0.0
O22 O 0.14314 0.23934 0.4249 0.0
O23 O 0.14404 0.28117 0.41909 0.0
H24 H 0.10704 0.19868 0.56891 0.0
O25 O 0.10923 0.28258 0.4928 0.0
O26 O 0.10772 0.24074 0.49326 0.0
O27 O 0.1283 0.28351 0.62951 0.0
O28 O 0.12551 0.2417 0.63229 0.0
C29 C 0.10034 0.26194 0.48334 0.0
H30 H 0.15956 0.1523 0.4908 0.0
H31 H 0.10551 0.15161 0.56636 0.0
H32 H 0.11298 0.37152 0.57336 0.0
H33 H 0.16087 0.37055 0.44891 0.0
C34 C 0.91238 0.25987 0.50763 0.0
N35 N 0.87796 0.31896 0.55391 0.0
C36 C 0.89156 0.33306 0.58212 0.0
C37 C 0.89195 0.35968 0.57632 0.0
C38 C 0.87835 0.37186 0.54029 0.0
C39 C 0.86441 0.35687 0.51236 0.0
C40 C 0.86442 0.33037 0.52019 0.0
Zn41 Zn 0.8781 0.27981 0.55788 0.0
C42 C 0.8665 0.25686 0.42272 0.0
N43 N 0.87817 0.19802 0.56119 0.0
C44 C 0.89332 0.18579 0.57735 0.0
C45 C 0.8632 0.1847 0.54226 0.0
C46 C 0.86316 0.15809 0.53832 0.0
C47 C 0.87873 0.14507 0.55283 0.0
C48 C 0.89393 0.15921 0.57292 0.0
Zn49 Zn 0.87807 0.23721 0.55985 0.0
O50 O 0.90452 0.28047 0.52059 0.0
C51 C 0.89065 0.25979 0.69361 0.0
O52 O 0.90431 0.23862 0.51876 0.0
H53 H 0.85135 0.19474 0.52882 0.0
H54 H 0.90226 0.32363 0.6083 0.0
H55 H 0.90505 0.19668 0.59263 0.0
O56 O 0.88731 0.28054 0.66221 0.0
O57 O 0.88815 0.23867 0.6622 0.0
H58 H 0.85367 0.31887 0.4985 0.0
O59 O 0.85181 0.23686 0.60243 0.0
O60 O 0.85165 0.27867 0.59625 0.0
O61 O 0.86835 0.23624 0.45666 0.0
O62 O 0.86929 0.27805 0.4533 0.0
C63 C 0.84391 0.25765 0.61298 0.0
H64 H 0.90299 0.37058 0.5982 0.0
H65 H 0.85357 0.36556 0.48494 0.0
H66 H 0.85121 0.14785 0.522 0.0
H67 H 0.90616 0.14981 0.58505 0.0
C68 C 0.09969 0.76107 0.48738 0.0
N69 N 0.1352 0.82202 0.44062 0.0
C70 C 0.12021 0.83452 0.42409 0.0
C71 C 0.11976 0.86107 0.42893 0.0
C72 C 0.13501 0.87511 0.44961 0.0
C73 C 0.15047 0.86167 0.46427 0.0
C74 C 0.15021 0.83507 0.46019 0.0
Zn75 Zn 0.13487 0.78291 0.43994 0.0
C76 C 0.14582 0.76166 0.57489 0.0
N77 N 0.13355 0.70125 0.44013 0.0
C78 C 0.12022 0.68764 0.40847 0.0
C79 C 0.14678 0.68933 0.47442 0.0
C80 C 0.14674 0.66277 0.47925 0.0
C81 C 0.13312 0.64829 0.44742 0.0
C82 C 0.11984 0.66096 0.41096 0.0
Zn83 Zn 0.1338 0.74034 0.43907 0.0
O84 O 0.10839 0.7819 0.47773 0.0
C85 C 0.12295 0.76185 0.30392 0.0
O86 O 0.10709 0.74007 0.47471 0.0
H87 H 0.15737 0.70044 0.49859 0.0
H88 H 0.10842 0.82387 0.4083 0.0
H89 H 0.10978 0.69747 0.38178 0.0
O90 O 0.12575 0.78264 0.33652 0.0
O91 O 0.1252 0.74072 0.33498 0.0
H92 H 0.16199 0.82483 0.47342 0.0
O93 O 0.16047 0.74109 0.40279 0.0
O94 O 0.16126 0.78296 0.40176 0.0
O95 O 0.14239 0.7409 0.54315 0.0
O96 O 0.14404 0.78273 0.54316 0.0
C97 C 0.16884 0.76202 0.39034 0.0
H98 H 0.10741 0.87032 0.41812 0.0
H99 H 0.16269 0.8715 0.47893 0.0
H100 H 0.15731 0.65361 0.50719 0.0
H101 H 0.10908 0.65037 0.38606 0.0
C102 C 0.91172 0.75886 0.48996 0.0
N103 N 0.87656 0.69792 0.44128 0.0
C104 C 0.88976 0.68508 0.40933 0.0
C105 C 0.89007 0.65843 0.41292 0.0
C106 C 0.87687 0.64498 0.4509 0.0
C107 C 0.86331 0.65863 0.48263 0.0
C108 C 0.86331 0.68519 0.47654 0.0
Zn109 Zn 0.87698 0.73716 0.44092 0.0
C110 C 0.86568 0.75783 0.57766 0.0
N111 N 0.87779 0.81906 0.44421 0.0
C112 C 0.89285 0.83278 0.42819 0.0
C113 C 0.86285 0.83088 0.46517 0.0
C114 C 0.8627 0.85741 0.47108 0.0
C115 C 0.87818 0.87212 0.45672 0.0
C116 C 0.89337 0.85937 0.43456 0.0
Zn117 Zn 0.87751 0.77983 0.44186 0.0
O118 O 0.90355 0.73781 0.47758 0.0
C119 C 0.88937 0.75933 0.30599 0.0
O120 O 0.90385 0.77967 0.47973 0.0
H121 H 0.85103 0.8197 0.47821 0.0
H122 H 0.90025 0.69552 0.38201 0.0
H123 H 0.9046 0.82308 0.41163 0.0
O124 O 0.88617 0.73825 0.33725 0.0
O125 O 0.88699 0.78019 0.33796 0.0
H126 H 0.85283 0.69566 0.50101 0.0
O127 O 0.85117 0.77901 0.40315 0.0
O128 O 0.85043 0.73712 0.40275 0.0
O129 O 0.86825 0.7789 0.5457 0.0
O130 O 0.86803 0.73708 0.5454 0.0
C131 C 0.84292 0.75808 0.39021 0.0
H132 H 0.90079 0.6485 0.38809 0.0
H133 H 0.85282 0.64884 0.51184 0.0
H134 H 0.85052 0.86621 0.48686 0.0
H135 H 0.90572 0.86968 0.42377 0.0
C136 C 0.66957 0.76102 0.07874 0.0
N137 N 0.63426 0.70091 0.02367 0.0
C138 C 0.64834 0.68931 -0.0058 0.0
C139 C 0.64835 0.66282 -0.01274 0.0
C140 C 0.63373 0.64795 0.01096 0.0
C141 C 0.61944 0.66042 0.04192 0.0
C142 C 0.61998 0.68703 0.04778 0.0
Zn143 Zn 0.63465 0.74003 0.02733 0.0
C144 C 0.62316 0.76026 0.16348 0.0
N145 N 0.63631 0.82176 0.02996 0.0
C146 C 0.65037 0.83472 0.00076 0.0
C147 C 0.62236 0.83434 0.05727 0.0
C148 C 0.6221 0.86099 0.05491 0.0
C149 C 0.63626 0.87482 0.02366 0.0
C150 C 0.65059 0.86134 -0.00315 0.0
Zn151 Zn 0.63579 0.78262 0.02867 0.0
O152 O 0.66121 0.7403 0.0645 0.0
C153 C 0.6467 0.76253 0.89164 0.0
O154 O 0.66217 0.78217 0.06764 0.0
H155 H 0.61126 0.82369 0.07991 0.0
H156 H 0.65953 0.70066 0.97499 0.0
H157 H 0.66136 0.82438 0.97956 0.0
O158 O 0.64352 0.74148 0.92289 0.0
O159 O 0.645 0.78328 0.92466 0.0
H160 H 0.60891 0.69662 0.07102 0.0
O161 O 0.6094 0.78235 -0.00893 0.0
O162 O 0.60809 0.74048 -0.00887 0.0
O163 O 0.62634 0.78128 0.13195 0.0
O164 O 0.62556 0.73935 0.13177 0.0
C165 C 0.60072 0.76163 0.97993 0.0
H166 H 0.65955 0.65414 0.96207 0.0
H167 H 0.60798 0.64974 0.06167 0.0
H168 H 0.61071 0.87062 0.07563 0.0
H169 H 0.66188 0.87128 0.9731 0.0
C170 C 0.41276 0.76465 -0.01227 0.0
N171 N 0.37848 0.82412 0.03515 0.0
C172 C 0.39346 0.83756 0.05326 0.0
C173 C 0.39389 0.86422 0.05072 0.0
C174 C 0.37865 0.8771 0.03072 0.0
C175 C 0.3633 0.86282 0.01344 0.0
C176 C 0.36356 0.83622 0.01536 0.0
Zn177 Zn 0.37828 0.78502 0.03522 0.0
C178 C 0.36671 0.76388 0.90004 0.0
N179 N 0.37767 0.70343 0.03412 0.0
C180 C 0.39118 0.69056 0.06371 0.0
C181 C 0.3642 0.69082 0.0005 0.0
C182 C 0.36421 0.66431 -0.0059 0.0
C183 C 0.37808 0.6506 0.02341 0.0
C184 C 0.39158 0.66397 0.05939 0.0
Zn185 Zn 0.37796 0.74247 0.03586 0.0
O186 O 0.40476 0.78535 -0.0023 0.0
C187 C 0.38961 0.76381 0.17103 0.0
O188 O 0.40465 0.74351 2e-05 0.0
H189 H 0.35353 0.70136 0.97774 0.0
H190 H 0.40515 0.82762 0.06928 0.0
H191 H 0.40182 0.70095 0.08978 0.0
O192 O 0.38741 0.78467 0.13856 0.0
O193 O 0.38663 0.74274 0.13999 0.0
H194 H 0.35185 0.82524 0.00033 0.0
O195 O 0.35128 0.74194 0.07212 0.0
O196 O 0.35186 0.78379 0.07345 0.0
O197 O 0.36937 0.74307 0.93192 0.0
O198 O 0.36917 0.78489 0.93177 0.0
C199 C 0.34359 0.76272 0.0847 0.0
H200 H 0.40594 0.87467 0.06476 0.0
H201 H 0.35136 0.87215 -0.00289 0.0
H202 H 0.35347 0.65461 0.96665 0.0
H203 H 0.40256 0.65404 0.0823 0.0
C204 C 0.59938 0.2614 0.90911 0.0
N205 N 0.63701 0.32224 0.91283 0.0
C206 C 0.62704 0.33476 0.86524 0.0
C207 C 0.62679 0.36145 0.86497 0.0
C208 C 0.6369 0.37539 0.91415 0.0
C209 C 0.64726 0.36189 0.96181 0.0
C210 C 0.64713 0.33528 0.96018 0.0
Zn211 Zn 0.63623 0.28312 0.91874 0.0
C212 C 0.63108 0.26519 0.0614 0.0
N213 N 0.63474 0.20144 0.93507 0.0
C214 C 0.62562 0.18691 0.88775 0.0
C215 C 0.64353 0.19051 -0.011 0.0
C216 C 0.64322 0.16403 -0.00268 0.0
C217 C 0.63395 0.14856 0.94924 0.0
C218 C 0.62514 0.16029 0.89365 0.0
Zn219 Zn 0.63535 0.24051 0.92638 0.0
O220 O 0.60827 0.28238 0.90789 0.0
C221 C 0.64098 0.25832 0.78407 0.0
O222 O 0.60746 0.24053 0.91496 0.0
H223 H 0.65082 0.20235 0.02576 0.0
H224 H 0.61908 0.32403 0.82804 0.0
H225 H 0.61866 0.19596 0.84542 0.0
O226 O 0.63969 0.2801 0.81213 0.0
O227 O 0.63891 0.23815 0.82027 0.0
H228 H 0.65488 0.325 -0.00211 0.0
O229 O 0.66335 0.24121 0.93674 0.0
O230 O 0.66409 0.28298 0.92847 0.0
O231 O 0.63188 0.2436 0.03233 0.0
O232 O 0.63299 0.28545 0.02566 0.0
C233 C 0.67224 0.26215 0.93317 0.0
H234 H 0.61876 0.37104 0.82671 0.0
H235 H 0.65504 0.37172 0.00139 0.0
H236 H 0.65037 0.15571 0.04042 0.0
H237 H 0.61774 0.14903 0.85576 0.0
C238 C 0.41055 0.26531 0.98562 0.0
N239 N 0.37454 0.20381 0.95462 0.0
C240 C 0.38914 0.19121 0.93355 0.0
C241 C 0.38957 0.16465 0.93835 0.0
C242 C 0.3747 0.15071 0.96395 0.0
C243 C 0.35967 0.16427 0.98394 0.0
C244 C 0.35994 0.19088 0.97941 0.0
Zn245 Zn 0.37481 0.24291 0.95116 0.0
C246 C 0.36517 0.26535 0.08561 0.0
N247 N 0.37592 0.32454 0.94429 0.0
C248 C 0.3891 0.33787 0.91023 0.0
C249 C 0.36305 0.33675 0.98004 0.0
C250 C 0.36341 0.36331 0.98434 0.0
C251 C 0.37697 0.37749 0.95053 0.0
C252 C 0.38978 0.36454 0.91218 0.0
Zn253 Zn 0.37562 0.28546 0.94624 0.0
O254 O 0.40186 0.24424 0.98157 0.0
C255 C 0.38529 0.26297 0.81228 0.0
O256 O 0.40263 0.28603 0.97493 0.0
H257 H 0.35258 0.32585 0.00619 0.0
H258 H 0.40061 0.20179 0.9137 0.0
H259 H 0.39925 0.32781 0.88242 0.0
O260 O 0.38266 0.24237 0.8464 0.0
O261 O 0.38315 0.28429 0.84189 0.0
H262 H 0.34847 0.20121 -0.00391 0.0
O263 O 0.3487 0.28439 0.91504 0.0
O264 O 0.3479 0.24251 0.91894 0.0
O265 O 0.36816 0.2858 0.05141 0.0
O266 O 0.36692 0.24396 0.05589 0.0
C267 C 0.34024 0.26333 0.90633 0.0
H268 H 0.40159 0.15526 0.92333 0.0
H269 H 0.34774 0.15449 0.00269 0.0
H270 H 0.35319 0.37269 0.01378 0.0
H271 H 0.40049 0.3749 0.88573 0.0
H272 H 0.18619 0.22139 0.63379 0.0
H273 H 0.21514 0.2216 0.69084 0.0
H274 H 0.22345 0.30093 0.63613 0.0
H275 H 0.19441 0.30099 0.57921 0.0
H276 H 0.25326 0.27113 0.61211 0.0
H277 H 0.21166 0.28753 0.79601 0.0
H278 H 0.18474 0.27932 0.86688 0.0
H279 H 0.20438 0.20677 0.93058 0.0
H280 H 0.23135 0.21439 0.85919 0.0
H281 H 0.3232 0.30294 0.84572 0.0
H282 H 0.29435 0.30166 0.78786 0.0
H283 H 0.28751 0.22198 0.84119 0.0
H284 H 0.31651 0.22297 0.8987 0.0
H285 H 0.25705 0.25129 0.86555 0.0
H286 H 0.29882 0.23509 0.68258 0.0
H287 H 0.3256 0.24312 0.61066 0.0
H288 H 0.30563 0.31525 0.54506 0.0
H289 H 0.27881 0.3078 0.61737 0.0
C290 C 0.19421 0.23885 0.63338 0.0
C291 C 0.18798 0.26121 0.60214 0.0
C292 C 0.21072 0.23895 0.6663 0.0
C293 C 0.22133 0.26134 0.66824 0.0
C294 C 0.21541 0.28348 0.63528 0.0
C295 C 0.19882 0.28348 0.60292 0.0
C296 C 0.23849 0.26172 0.70569 0.0
C297 C 0.25409 0.26712 0.66768 0.0
C298 C 0.23953 0.25592 0.77788 0.0
C299 C 0.22342 0.25138 0.82145 0.0
C300 C 0.21017 0.26972 0.82462 0.0
C301 C 0.19492 0.26519 0.86498 0.0
C302 C 0.19279 0.24245 0.90281 0.0
C303 C 0.20601 0.22432 0.90096 0.0
C304 C 0.22129 0.22874 0.8606 0.0
C305 C 0.31551 0.28518 0.84574 0.0
C306 C 0.32215 0.26303 0.87671 0.0
C307 C 0.29908 0.28446 0.81231 0.0
C308 C 0.28892 0.26167 0.80971 0.0
C309 C 0.29521 0.23973 0.84251 0.0
C310 C 0.31177 0.24034 0.87526 0.0
C311 C 0.27181 0.26076 0.772 0.0
C312 C 0.25622 0.25527 0.80996 0.0
C313 C 0.27078 0.26648 0.69976 0.0
C314 C 0.2869 0.27103 0.65618 0.0
C315 C 0.30021 0.25279 0.65339 0.0
C316 C 0.31538 0.25721 0.61242 0.0
C317 C 0.31736 0.27976 0.57368 0.0
C318 C 0.3041 0.29783 0.57534 0.0
C319 C 0.28891 0.29351 0.61626 0.0
H320 H 0.32915 0.28324 0.54233 0.0
H321 H 0.18092 0.23887 0.93359 0.0
H322 H 0.69437 0.30284 0.90276 0.0
H323 H 0.7245 0.30133 0.85625 0.0
H324 H 0.72409 0.21978 0.88676 0.0
H325 H 0.69386 0.22102 0.93334 0.0
H326 H 0.75689 0.24503 0.91929 0.0
H327 H 0.71397 0.24096 0.73339 0.0
H328 H 0.68779 0.2566 0.67141 0.0
H329 H 0.7155 0.32753 0.62737 0.0
H330 H 0.74174 0.31253 0.69048 0.0
H331 H 0.82604 0.21732 0.67545 0.0
H332 H 0.79816 0.21814 0.74132 0.0
H333 H 0.79439 0.29861 0.69824 0.0
H334 H 0.82236 0.29807 0.63337 0.0
H335 H 0.76334 0.27289 0.67202 0.0
H336 H 0.80187 0.28341 0.87146 0.0
H337 H 0.82445 0.27602 0.96189 0.0
H338 H 0.8049 0.19884 -0.0122 0.0
H339 H 0.78194 0.20601 0.89867 0.0
C340 C 0.7008 0.28463 0.90123 0.0
C341 C 0.69162 0.26199 0.92109 0.0
C342 C 0.71798 0.2838 0.87416 0.0
C343 C 0.72631 0.26038 0.86669 0.0
C344 C 0.71778 0.23802 0.8916 0.0
C345 C 0.70053 0.23878 0.91835 0.0
C346 C 0.74342 0.25907 0.8288 0.0
C347 C 0.75827 0.25063 0.86481 0.0
C348 C 0.74522 0.26716 0.75836 0.0
C349 C 0.72976 0.27572 0.71741 0.0
C350 C 0.71445 0.25997 0.71094 0.0
C351 C 0.69957 0.26876 0.67585 0.0
C352 C 0.69992 0.29316 0.64617 0.0
C353 C 0.71521 0.30871 0.65087 0.0
C354 C 0.73009 0.30006 0.68625 0.0
C355 C 0.81925 0.23518 0.67974 0.0
C356 C 0.82643 0.25762 0.64892 0.0
C357 C 0.8034 0.23567 0.71804 0.0
C358 C 0.79428 0.2585 0.72532 0.0
C359 C 0.80125 0.28081 0.6936 0.0
C360 C 0.81721 0.28043 0.65627 0.0
C361 C 0.77699 0.25887 0.7627 0.0
C362 C 0.76199 0.267 0.72626 0.0
C363 C 0.77507 0.25081 0.83308 0.0
C364 C 0.7904 0.24513 0.87788 0.0
C365 C 0.80262 0.26474 0.89558 0.0
C366 C 0.81528 0.26072 0.94736 0.0
C367 C 0.81601 0.23704 0.9809 0.0
C368 C 0.80425 0.21721 0.96203 0.0
C369 C 0.79138 0.22126 0.91107 0.0
H370 H 0.82573 0.23402 0.02132 0.0
H371 H 0.68843 0.29993 0.61878 0.0
H372 H 0.32191 0.72123 0.11366 0.0
H373 H 0.29207 0.72101 0.16422 0.0
H374 H 0.29455 0.80321 0.17509 0.0
H375 H 0.32421 0.80365 0.1236 0.0
H376 H 0.28041 0.73712 0.28813 0.0
H377 H 0.25323 0.82652 0.15132 0.0
H378 H 0.25705 0.85034 0.04053 0.0
H379 H 0.27349 0.7822 0.93784 0.0
H380 H 0.26953 0.75791 0.0477 0.0
H381 H 0.19076 0.8032 0.36149 0.0
H382 H 0.22051 0.80309 0.31035 0.0
H383 H 0.21749 0.72092 0.29858 0.0
H384 H 0.1879 0.72081 0.35087 0.0
H385 H 0.2318 0.7868 0.18551 0.0
H386 H 0.25868 0.69733 0.3222 0.0
H387 H 0.2548 0.67356 0.43307 0.0
H388 H 0.23894 0.74196 0.53596 0.0
H389 H 0.24295 0.76619 0.426 0.0
C390 C 0.31606 0.73928 0.12639 0.0
C391 C 0.32539 0.76247 0.11406 0.0
C392 C 0.29903 0.73911 0.15554 0.0
C393 C 0.29098 0.7621 0.17268 0.0
C394 C 0.30034 0.78526 0.16102 0.0
C395 C 0.31733 0.78546 0.13173 0.0
C396 C 0.2729 0.76184 0.20368 0.0
C397 C 0.26971 0.74769 0.26513 0.0
C398 C 0.25905 0.77614 0.17464 0.0
C399 C 0.26127 0.79047 0.10799 0.0
C400 C 0.2576 0.8166 0.10503 0.0
C401 C 0.2598 0.83019 0.0424 0.0
C402 C 0.26557 0.81781 0.98225 0.0
C403 C 0.26909 0.79179 0.98454 0.0
C404 C 0.2669 0.77811 0.047 0.0
C405 C 0.19647 0.78508 0.34849 0.0
C406 C 0.187 0.76199 0.36076 0.0
C407 C 0.21345 0.78507 0.31902 0.0
C408 C 0.2213 0.762 0.3013 0.0
C409 C 0.21182 0.73894 0.31292 0.0
C410 C 0.19488 0.73891 0.34269 0.0
C411 C 0.23934 0.7621 0.26995 0.0
C412 C 0.2425 0.77622 0.20846 0.0
C413 C 0.25317 0.74779 0.29895 0.0
C414 C 0.25094 0.73349 0.36565 0.0
C415 C 0.25443 0.70731 0.36856 0.0
C416 C 0.2522 0.69376 0.43123 0.0
C417 C 0.24657 0.70623 0.49145 0.0
C418 C 0.24323 0.7323 0.48921 0.0
C419 C 0.24546 0.74594 0.4267 0.0
H420 H 0.24483 0.6957 0.5399 0.0
H421 H 0.26728 0.82837 0.93384 0.0
H422 H 0.69095 0.72004 0.09291 0.0
H423 H 0.71997 0.71881 0.14944 0.0
H424 H 0.71722 0.79892 0.19718 0.0
H425 H 0.68835 0.80049 0.13934 0.0
H426 H 0.75041 0.74776 0.11076 0.0
H427 H 0.73668 0.80717 0.35754 0.0
H428 H 0.7142 0.81257 0.45006 0.0
H429 H 0.693 0.73717 0.41046 0.0
H430 H 0.71518 0.73149 0.31708 0.0
H431 H 0.82129 0.79868 0.37499 0.0
H432 H 0.79224 0.79935 0.31859 0.0
H433 H 0.79546 0.71915 0.27282 0.0
H434 H 0.82438 0.71812 0.33061 0.0
H435 H 0.762 0.77003 0.35848 0.0
H436 H 0.77598 0.71066 0.11181 0.0
H437 H 0.79839 0.70562 0.0188 0.0
H438 H 0.81903 0.78136 0.05781 0.0
H439 H 0.79694 0.78668 0.1517 0.0
C440 C 0.69652 0.73743 0.11527 0.0
C441 C 0.68737 0.76041 0.11127 0.0
C442 C 0.71307 0.73666 0.1478 0.0
C443 C 0.72065 0.75869 0.17814 0.0
C444 C 0.71151 0.78162 0.17479 0.0
C445 C 0.69509 0.78253 0.14112 0.0
C446 C 0.73865 0.75813 0.20895 0.0
C447 C 0.75292 0.7522 0.16527 0.0
C448 C 0.74197 0.76471 0.27939 0.0
C449 C 0.72748 0.76902 0.33004 0.0
C450 C 0.72709 0.79187 0.36814 0.0
C451 C 0.71445 0.79494 0.42084 0.0
C452 C 0.70228 0.77515 0.43647 0.0
C453 C 0.70248 0.75244 0.39845 0.0
C454 C 0.71496 0.7494 0.34512 0.0
C455 C 0.81582 0.78114 0.35309 0.0
C456 C 0.82511 0.7583 0.35767 0.0
C457 C 0.79925 0.7816 0.32064 0.0
C458 C 0.79179 0.75938 0.29092 0.0
C459 C 0.80107 0.73658 0.29477 0.0
C460 C 0.81752 0.73598 0.32841 0.0
C461 C 0.77377 0.75965 0.26029 0.0
C462 C 0.75949 0.76555 0.304 0.0
C463 C 0.77044 0.75307 0.18986 0.0
C464 C 0.78493 0.74895 0.13909 0.0
C465 C 0.78545 0.72611 0.10101 0.0
C466 C 0.79804 0.72324 0.04802 0.0
C467 C 0.81003 0.74323 0.03208 0.0
C468 C 0.80969 0.76593 0.07007 0.0
C469 C 0.79727 0.76877 0.1237 0.0
H470 H 0.81965 0.74108 -0.00944 0.0
H471 H 0.69261 0.77746 0.47776 0.0
H472 H 0.15331 0.90534 0.54389 0.0
H473 H 0.15273 0.95139 0.55646 0.0
H474 H 0.11423 0.95539 0.39075 0.0
H475 H 0.11598 0.90956 0.37313 0.0
H476 H 0.13565 0.99286 0.37595 0.0
H477 H 0.10351 0.9598 0.57358 0.0
H478 H 0.09815 0.93342 0.67898 0.0
H479 H 0.14239 0.9706 0.7808 0.0
H480 H 0.14816 0.99698 0.67563 0.0
H481 H 0.10723 0.11773 0.46675 0.0
H482 H 0.10712 0.07113 0.45474 0.0
H483 H 0.15614 0.06863 0.56961 0.0
H484 H 0.15643 0.11524 0.58102 0.0
H485 H 0.12845 0.0311 0.6109 0.0
H486 H 0.15967 0.06402 0.40632 0.0
H487 H 0.16276 0.09092 0.30069 0.0
H488 H 0.11658 0.05397 0.21223 0.0
H489 H 0.11306 0.0271 0.31788 0.0
C490 C 0.14496 0.91593 0.50896 0.0
C491 C 0.13466 0.90344 0.45747 0.0
C492 C 0.14439 0.94236 0.51721 0.0
C493 C 0.1331 0.95692 0.4758 0.0
C494 C 0.12296 0.94462 0.42384 0.0
C495 C 0.12381 0.91825 0.41444 0.0
C496 C 0.13204 0.98498 0.48597 0.0
C497 C 0.1338 1.00109 0.42731 0.0
C498 C 0.12984 0.99597 0.55302 0.0
C499 C 0.12636 0.9802 0.61647 0.0
C500 C 0.11217 0.96223 0.61827 0.0
C501 C 0.10905 0.94729 0.678 0.0
C502 C 0.11995 0.95029 0.73648 0.0
C503 C 0.13397 0.96828 0.73543 0.0
C504 C 0.13716 0.98325 0.6758 0.0
C505 C 0.11788 0.10718 0.48995 0.0
C506 C 0.13186 0.12001 0.52468 0.0
C507 C 0.11784 0.08065 0.48281 0.0
C508 C 0.13167 0.06655 0.51107 0.0
C509 C 0.14537 0.07924 0.54747 0.0
C510 C 0.14557 0.10579 0.55365 0.0
C511 C 0.13207 0.0386 0.5011 0.0
C512 C 0.13021 0.02264 0.55974 0.0
C513 C 0.13381 0.02774 0.43402 0.0
C514 C 0.136 0.04375 0.3703 0.0
C515 C 0.15008 0.06179 0.36461 0.0
C516 C 0.15193 0.077 0.30469 0.0
C517 C 0.13984 0.07421 0.24987 0.0
C518 C 0.12591 0.05614 0.25478 0.0
C519 C 0.124 0.04091 0.31464 0.0
H520 H 0.14129 0.086 0.20351 0.0
H521 H 0.11751 0.9387 0.78267 0.0
H522 H 0.8848 0.40854 0.63905 0.0
H523 H 0.88496 0.45502 0.62312 0.0
H524 H 0.87324 0.44507 0.40425 0.0
H525 H 0.87296 0.39862 0.41991 0.0
H526 H 0.90108 0.48202 0.43345 0.0
H527 H 0.84097 0.46016 0.50436 0.0
H528 H 0.81823 0.44054 0.58205 0.0
H529 H 0.83684 0.48723 0.75209 0.0
H530 H 0.85987 0.50687 0.6756 0.0
H531 H 0.8792 0.60911 0.34842 0.0
H532 H 0.87964 0.56267 0.3627 0.0
H533 H 0.87716 0.57145 0.58692 0.0
H534 H 0.87577 0.61774 0.57223 0.0
H535 H 0.8568 0.53435 0.55521 0.0
H536 H 0.91672 0.55632 0.49119 0.0
H537 H 0.94078 0.57569 0.41939 0.0
H538 H 0.92483 0.52913 0.24516 0.0
H539 H 0.90052 0.50971 0.31567 0.0
C540 C 0.88235 0.41629 0.58752 0.0
C541 C 0.87879 0.39999 0.53078 0.0
C542 C 0.88237 0.4428 0.57855 0.0
C543 C 0.87903 0.45344 0.51256 0.0
C544 C 0.87583 0.43721 0.45557 0.0
C545 C 0.87556 0.41073 0.4647 0.0
C546 C 0.87862 0.48151 0.50311 0.0
C547 C 0.8913 0.49351 0.45936 0.0
C548 C 0.86617 0.49647 0.53857 0.0
C549 C 0.85225 0.48479 0.58444 0.0
C550 C 0.84031 0.46608 0.55847 0.0
C551 C 0.82735 0.45499 0.60225 0.0
C552 C 0.82612 0.46258 0.67201 0.0
C553 C 0.83782 0.48134 0.69807 0.0
C554 C 0.85082 0.49247 0.65451 0.0
C555 C 0.87879 0.60102 0.40064 0.0
C556 C 0.87747 0.61691 0.45924 0.0
C557 C 0.87915 0.57451 0.40889 0.0
C558 C 0.87876 0.56342 0.47605 0.0
C559 C 0.87746 0.57941 0.53456 0.0
C560 C 0.87669 0.60586 0.52621 0.0
C561 C 0.87937 0.5352 0.48553 0.0
C562 C 0.86669 0.52305 0.52928 0.0
C563 C 0.89204 0.52017 0.45099 0.0
C564 C 0.90669 0.53174 0.40853 0.0
C565 C 0.91827 0.55034 0.43742 0.0
C566 C 0.93196 0.56131 0.39698 0.0
C567 C 0.93431 0.55369 0.32771 0.0
C568 C 0.92299 0.53503 0.2988 0.0
C569 C 0.90926 0.52402 0.33899 0.0
H570 H 0.94492 0.56221 0.29648 0.0
H571 H 0.81607 0.45398 0.70583 0.0
H572 H 0.89675 0.90882 0.38034 0.0
H573 H 0.89752 0.955 0.39794 0.0
H574 H 0.86058 0.94619 0.56922 0.0
H575 H 0.86041 0.89998 0.55496 0.0
H576 H 0.85221 0.98498 0.46413 0.0
H577 H 0.90006 0.95742 0.61191 0.0
H578 H 0.9278 0.93523 0.63574 0.0
H579 H 0.9551 0.98182 0.48231 0.0
H580 H 0.92743 1.00405 0.45682 0.0
H581 H 0.85531 0.10916 0.60516 0.0
H582 H 0.85569 0.06289 0.58921 0.0
H583 H 0.90325 0.07147 0.46407 0.0
H584 H 0.90325 0.11766 0.48244 0.0
H585 H 0.90644 0.03226 0.54228 0.0
H586 H 0.86046 0.06015 0.39191 0.0
H587 H 0.83324 0.08218 0.35909 0.0
H588 H 0.80299 0.03535 0.50335 0.0
H589 H 0.83009 0.01326 0.53776 0.0
C590 C 0.88897 0.91655 0.42252 0.0
C591 C 0.87849 0.90043 0.46611 0.0
C592 C 0.88934 0.94302 0.43208 0.0
C593 C 0.87909 0.95394 0.48482 0.0
C594 C 0.86849 0.93809 0.52791 0.0
C595 C 0.86833 0.91163 0.5192 0.0
C596 C 0.87943 0.98195 0.4953 0.0
C597 C 0.86398 0.99536 0.482 0.0
C598 C 0.89498 0.99545 0.51636 0.0
C599 C 0.91163 0.9822 0.53192 0.0
C600 C 0.91194 0.96277 0.58279 0.0
C601 C 0.92766 0.95022 0.5967 0.0
C602 C 0.9432 0.95706 0.56042 0.0
C603 C 0.94305 0.97651 0.51029 0.0
C604 C 0.92736 0.98911 0.49613 0.0
C605 C 0.86584 0.10111 0.57434 0.0
C606 C 0.87922 0.11696 0.54485 0.0
C607 C 0.86601 0.07468 0.5649 0.0
C608 C 0.8793 0.06361 0.52417 0.0
C609 C 0.89283 0.07946 0.49562 0.0
C610 C 0.89284 0.10585 0.50612 0.0
C611 C 0.87912 0.03557 0.51147 0.0
C612 C 0.89462 0.02206 0.52424 0.0
C613 C 0.86368 0.02202 0.48854 0.0
C614 C 0.84734 0.03522 0.4679 0.0
C615 C 0.84803 0.05467 0.41701 0.0
C616 C 0.83261 0.06715 0.39807 0.0
C617 C 0.8164 0.06021 0.42925 0.0
C618 C 0.81556 0.04073 0.47931 0.0
C619 C 0.83094 0.02821 0.49852 0.0
H620 H 0.80448 0.06989 0.4145 0.0
H621 H 0.95535 0.94732 0.57127 0.0
H622 H 0.12995 0.61355 0.34202 0.0
H623 H 0.13042 0.56697 0.35162 0.0
H624 H 0.1353 0.57315 0.57586 0.0
H625 H 0.13563 0.6197 0.5658 0.0
H626 H 0.1565 0.53951 0.53448 0.0
H627 H 0.0953 0.55413 0.48904 0.0
H628 H 0.06967 0.57113 0.42615 0.0
H629 H 0.08384 0.52907 0.24301 0.0
H630 H 0.1097 0.51208 0.30454 0.0
H631 H 0.13207 0.40979 0.61358 0.0
H632 H 0.13126 0.45634 0.60152 0.0
H633 H 0.13993 0.44978 0.37941 0.0
H634 H 0.14085 0.40323 0.39118 0.0
H635 H 0.11178 0.48287 0.41905 0.0
H636 H 0.17324 0.46806 0.4717 0.0
H637 H 0.19759 0.45055 0.54111 0.0
H638 H 0.1808 0.49284 0.7202 0.0
H639 H 0.15617 0.51033 0.65209 0.0
C640 C 0.13103 0.60487 0.39327 0.0
C641 C 0.13274 0.62012 0.45318 0.0
C642 C 0.13122 0.57827 0.39884 0.0
C643 C 0.13263 0.56643 0.46463 0.0
C644 C 0.13424 0.58176 0.52451 0.0
C645 C 0.13439 0.60833 0.51879 0.0
C646 C 0.13289 0.53813 0.47114 0.0
C647 C 0.14654 0.52722 0.50998 0.0
C648 C 0.1201 0.52191 0.43831 0.0
C649 C 0.10454 0.53204 0.4012 0.0
C650 C 0.09303 0.54866 0.43519 0.0
C651 C 0.07844 0.55826 0.39982 0.0
C652 C 0.07516 0.55124 0.33057 0.0
C653 C 0.08642 0.53453 0.29662 0.0
C654 C 0.10103 0.52489 0.33173 0.0
C655 C 0.13377 0.4183 0.56221 0.0
C656 C 0.13658 0.40295 0.50333 0.0
C657 C 0.13337 0.44484 0.55544 0.0
C658 C 0.1356 0.45643 0.48961 0.0
C659 C 0.1382 0.44115 0.43062 0.0
C660 C 0.13884 0.41464 0.43749 0.0
C661 C 0.13529 0.48455 0.48241 0.0
C662 C 0.12166 0.49533 0.44346 0.0
C663 C 0.14789 0.50067 0.51613 0.0
C664 C 0.16276 0.4903 0.55698 0.0
C665 C 0.17465 0.47346 0.52604 0.0
C666 C 0.18852 0.46357 0.56512 0.0
C667 C 0.19071 0.47053 0.63507 0.0
C668 C 0.17907 0.48745 0.66604 0.0
C669 C 0.16516 0.49737 0.6272 0.0
H670 H 0.20146 0.46285 0.66524 0.0
H671 H 0.06386 0.55869 0.30328 0.0
H672 H 0.66106 0.61514 0.02805 0.0
H673 H 0.6608 0.56917 0.0076 0.0
H674 H 0.60535 0.57065 0.95407 0.0
H675 H 0.60553 0.61677 0.97352 0.0
H676 H 0.61262 0.53043 0.03956 0.0
H677 H 0.63607 0.56688 0.82703 0.0
H678 H 0.65622 0.5942 0.75553 0.0
H679 H 0.7009 0.55327 0.83062 0.0
H680 H 0.68104 0.52593 0.90339 0.0
H681 H 0.60805 0.40559 0.89754 0.0
H682 H 0.60689 0.45193 0.90934 0.0
H683 H 0.66295 0.45565 0.95331 0.0
H684 H 0.66437 0.40949 0.9387 0.0
H685 H 0.65442 0.49359 0.86905 0.0
H686 H 0.63157 0.45836 0.08463 0.0
H687 H 0.61182 0.43123 0.15836 0.0
H688 H 0.5665 0.4699 0.07999 0.0
H689 H 0.58597 0.49704 0.00503 0.0
C690 C 0.64882 0.60576 0.01144 0.0
C691 C 0.63335 0.61973 0.00197 0.0
C692 C 0.6487 0.57945 -9e-05 0.0
C693 C 0.63312 0.56652 0.97839 0.0
C694 C 0.61753 0.58025 0.97059 0.0
C695 C 0.61764 0.6066 0.98203 0.0
C696 C 0.63316 0.53872 0.96374 0.0
C697 C 0.62156 0.52239 0.00151 0.0
C698 C 0.6451 0.52819 0.91517 0.0
C699 C 0.65707 0.54451 0.87114 0.0
C700 C 0.6502 0.56383 0.82871 0.0
C701 C 0.66157 0.5793 0.78789 0.0
C702 C 0.67984 0.57551 0.78866 0.0
C703 C 0.68676 0.5562 0.83013 0.0
C704 C 0.67545 0.5407 0.87113 0.0
C705 C 0.6202 0.41629 0.90859 0.0
C706 C 0.63629 0.40374 0.91758 0.0
C707 C 0.61947 0.44278 0.91613 0.0
C708 C 0.63477 0.45725 0.93341 0.0
C709 C 0.65094 0.44489 0.94039 0.0
C710 C 0.6517 0.41844 0.93261 0.0
C711 C 0.63395 0.48522 0.94522 0.0
C712 C 0.64541 0.5016 0.90689 0.0
C713 C 0.62193 0.49578 -0.00648 0.0
C714 C 0.61021 0.47954 0.03867 0.0
C715 C 0.61738 0.46094 0.08271 0.0
C716 C 0.60624 0.44558 0.12479 0.0
C717 C 0.58791 0.44879 0.12371 0.0
C718 C 0.5807 0.46741 0.08068 0.0
C719 C 0.59178 0.48279 0.03842 0.0
H720 H 0.57931 0.43689 0.15634 0.0
H721 H 0.68862 0.58751 0.75702 0.0
H722 H 0.35536 0.90922 0.09091 0.0
H723 H 0.35505 0.95577 0.08125 0.0
H724 H 0.40146 0.95479 0.94856 0.0
H725 H 0.40224 0.90831 0.96111 0.0
H726 H 0.40486 0.99278 0.03043 0.0
H727 H 0.35773 0.96248 0.88424 0.0
H728 H 0.33052 0.93797 0.85332 0.0
H729 H 0.30119 0.97876 0.00756 0.0
H730 H 0.32829 1.00329 0.04009 0.0
H731 H 0.39142 0.11652 0.87881 0.0
H732 H 0.3926 0.07027 0.89275 0.0
H733 H 0.35911 0.07385 0.07515 0.0
H734 H 0.35862 0.12023 0.06452 0.0
H735 H 0.34922 0.0353 0.96617 0.0
H736 H 0.3984 0.06577 0.10848 0.0
H737 H 0.4261 0.0906 0.12931 0.0
H738 H 0.45207 0.04933 0.96669 0.0
H739 H 0.42441 0.02451 0.94416 0.0
C740 C 0.3655 0.91903 0.05989 0.0
C741 C 0.37878 0.90528 0.0265 0.0
C742 C 0.36527 0.94559 0.054 0.0
C743 C 0.378 0.95884 0.01285 0.0
C744 C 0.39147 0.94507 0.98047 0.0
C745 C 0.39191 0.91855 -0.01243 0.0
C746 C 0.37728 0.98699 0.00358 0.0
C747 C 0.39272 1.00196 0.01545 0.0
C748 C 0.36143 0.99918 0.98466 0.0
C749 C 0.34508 0.98455 0.96506 0.0
C750 C 0.3455 0.9661 0.91191 0.0
C751 C 0.3301 0.95222 0.89405 0.0
C752 C 0.31415 0.95676 0.92858 0.0
C753 C 0.31356 0.97524 0.98092 0.0
C754 C 0.32894 0.98915 -0.00094 0.0
C755 C 0.38451 0.10765 0.92265 0.0
C756 C 0.37496 0.12234 0.97065 0.0
C757 C 0.3851 0.08115 0.93009 0.0
C758 C 0.37596 0.06876 0.98498 0.0
C759 C 0.36617 0.08314 0.03224 0.0
C760 C 0.36582 0.10968 0.02565 0.0
C761 C 0.3767 0.04075 -0.0067 0.0
C762 C 0.36129 0.02593 0.98108 0.0
C763 C 0.39263 0.02867 0.01035 0.0
C764 C 0.40928 0.04349 0.02412 0.0
C765 C 0.40996 0.06216 0.0767 0.0
C766 C 0.42567 0.0762 0.08891 0.0
C767 C 0.44082 0.0716 0.04921 0.0
C768 C 0.44031 0.0529 -0.00267 0.0
C769 C 0.42463 0.03883 0.98485 0.0
H770 H 0.45297 0.08249 0.05875 0.0
H771 H 0.30223 0.94599 0.91468 0.0
H772 H 0.38013 0.41286 0.84571 0.0
H773 H 0.38079 0.45941 0.8569 0.0
H774 H 0.37725 0.45181 0.08146 0.0
H775 H 0.37581 0.40536 0.06995 0.0
H776 H 0.35654 0.48671 0.04379 0.0
H777 H 0.41706 0.46945 -0.01001 0.0
H778 H 0.44179 0.45171 0.9229 0.0
H779 H 0.42745 0.49605 0.74359 0.0
H780 H 0.40247 0.51381 0.80935 0.0
H781 H 0.38382 0.61488 0.12463 0.0
H782 H 0.38416 0.56837 0.11093 0.0
H783 H 0.37405 0.57665 0.89033 0.0
H784 H 0.37357 0.62312 0.90378 0.0
H785 H 0.40188 0.54216 0.92544 0.0
H786 H 0.34112 0.55927 0.9853 0.0
H787 H 0.3175 0.57735 0.05779 0.0
H788 H 0.33428 0.53313 0.2338 0.0
H789 H 0.35817 0.51507 0.16257 0.0
C790 C 0.37958 0.42122 0.89735 0.0
C791 C 0.37792 0.40562 0.95697 0.0
C792 C 0.38004 0.4478 0.90382 0.0
C793 C 0.37934 0.45922 0.97017 0.0
C794 C 0.37777 0.44353 0.02971 0.0
C795 C 0.37697 0.41701 0.02315 0.0
C796 C 0.37979 0.48747 0.97773 0.0
C797 C 0.36664 0.49872 0.01865 0.0
C798 C 0.39275 0.50335 0.94403 0.0
C799 C 0.40779 0.49277 0.9044 0.0
C800 C 0.4191 0.47528 0.93609 0.0
C801 C 0.43317 0.46524 0.89833 0.0
C802 C 0.43616 0.4727 0.82897 0.0
C803 C 0.4251 0.49027 0.79729 0.0
C804 C 0.411 0.50034 0.8348 0.0
C805 C 0.38176 0.60675 0.07322 0.0
C806 C 0.37859 0.62253 0.01531 0.0
C807 C 0.38189 0.58024 0.06552 0.0
C808 C 0.37906 0.56915 -0.00033 0.0
C809 C 0.37625 0.58489 0.94153 0.0
C810 C 0.37586 0.61136 0.94938 0.0
C811 C 0.37875 0.54108 -0.00839 0.0
C812 C 0.39188 0.52997 0.95057 0.0
C813 C 0.36596 0.52529 0.02604 0.0
C814 C 0.35155 0.53603 0.0688 0.0
C815 C 0.33987 0.55358 0.03963 0.0
C816 C 0.32641 0.56378 0.08046 0.0
C817 C 0.32442 0.55644 0.15042 0.0
C818 C 0.33585 0.53883 0.17964 0.0
C819 C 0.34935 0.52859 0.13905 0.0
H820 H 0.31399 0.56436 0.18194 0.0
H821 H 0.44706 0.46491 0.79982 0.0
H822 H 0.62769 0.12066 0.06814 0.0
H823 H 0.62757 0.07426 0.08172 0.0
H824 H 0.63956 0.06638 0.86219 0.0
H825 H 0.63925 0.11281 0.84813 0.0
H826 H 0.6158 0.03183 0.89822 0.0
H827 H 0.67162 0.06007 -0.0063 0.0
H828 H 0.69162 0.08534 0.07004 0.0
H829 H 0.66613 0.05258 0.25166 0.0
H830 H 0.6458 0.02736 0.17637 0.0
H831 H 0.64519 0.90427 0.90998 0.0
H832 H 0.64432 0.95073 0.89906 0.0
H833 H 0.62543 0.95576 0.11151 0.0
H834 H 0.62648 0.90923 0.12312 0.0
H835 H 0.65237 0.99137 0.08068 0.0
H836 H 0.59696 0.96226 0.98162 0.0
H837 H 0.57786 0.93659 0.90285 0.0
H838 H 0.60397 0.97073 0.72442 0.0
H839 H 0.62341 0.99636 0.80219 0.0
C840 C 0.63036 0.10901 0.02286 0.0
C841 C 0.63357 0.12035 0.95714 0.0
C842 C 0.63034 0.08249 0.03068 0.0
C843 C 0.63387 0.06676 0.97324 0.0
C844 C 0.63682 0.07807 0.90733 0.0
C845 C 0.63663 0.10459 0.8993 0.0
C846 C 0.63443 0.03855 0.98175 0.0
C847 C 0.62399 0.02302 0.93753 0.0
C848 C 0.64483 0.02695 0.03398 0.0
C849 C 0.65708 0.04202 0.07938 0.0
C850 C 0.67019 0.0584 0.04992 0.0
C851 C 0.6816 0.07269 0.093 0.0
C852 C 0.68011 0.07062 0.16565 0.0
C853 C 0.66725 0.05419 0.19537 0.0
C854 C 0.65579 0.03988 0.15252 0.0
C855 C 0.64098 0.91528 0.95458 0.0
C856 C 0.6359 0.90308 0.01744 0.0
C857 C 0.64036 0.9418 0.94807 0.0
C858 C 0.63466 0.95667 0.00427 0.0
C859 C 0.62982 0.94462 0.06744 0.0
C860 C 0.63031 0.91805 0.07384 0.0
C861 C 0.63381 0.98481 -0.00297 0.0
C862 C 0.64419 1.00027 0.04147 0.0
C863 C 0.62349 0.99634 0.94462 0.0
C864 C 0.61175 0.98105 0.89776 0.0
C865 C 0.59873 0.96415 0.9256 0.0
C866 C 0.58782 0.94963 0.88113 0.0
C867 C 0.58973 0.95198 0.80868 0.0
C868 C 0.60252 0.96891 0.78055 0.0
C869 C 0.61347 0.98345 0.8248 0.0
H870 H 0.58127 0.94073 0.77433 0.0
H871 H 0.68896 0.0817 0.19891 0.0
H872 H 0.14486 0.21728 0.30834 0.0
H873 H 0.14304 0.21643 0.18106 0.0
H874 H 0.1526 0.29791 0.17351 0.0
H875 H 0.15432 0.29906 0.30095 0.0
H876 H 0.11583 0.2436 0.12058 0.0
H877 H 0.17204 0.31085 0.00667 0.0
H878 H 0.20396 0.32025 0.02299 0.0
H879 H 0.21008 0.24692 0.11926 0.0
H880 H 0.17829 0.23688 0.10251 0.0
H881 H 0.12655 0.30477 0.7473 0.0
H882 H 0.12883 0.30445 0.87448 0.0
H883 H 0.11829 0.22315 0.87721 0.0
H884 H 0.11599 0.22319 0.74995 0.0
H885 H 0.15568 0.27648 0.93236 0.0
H886 H 0.1003 0.20828 0.04382 0.0
H887 H 0.06866 0.1975 0.02481 0.0
H888 H 0.06128 0.27106 0.93159 0.0
H889 H 0.09278 0.2825 0.95123 0.0
C890 C 0.14708 0.23493 0.27959 0.0
C891 C 0.14936 0.25834 0.31448 0.0
C892 C 0.14603 0.23438 0.20698 0.0
C893 C 0.14754 0.25711 0.16848 0.0
C894 C 0.15147 0.28017 0.20267 0.0
C895 C 0.15237 0.2808 0.27538 0.0
C896 C 0.14224 0.25743 0.09467 0.0
C897 C 0.12462 0.25032 0.07898 0.0
C898 C 0.15363 0.26703 0.04158 0.0
C899 C 0.17267 0.27329 0.05435 0.0
C900 C 0.18017 0.29675 0.03155 0.0
C901 C 0.19827 0.30217 0.04072 0.0
C902 C 0.20902 0.28424 0.07246 0.0
C903 C 0.20171 0.26086 0.09512 0.0
C904 C 0.18363 0.25534 0.08606 0.0
C905 C 0.12421 0.28693 0.77501 0.0
C906 C 0.12144 0.26391 0.73873 0.0
C907 C 0.12554 0.2868 0.84756 0.0
C908 C 0.12387 0.26376 0.88466 0.0
C909 C 0.11953 0.24112 0.8492 0.0
C910 C 0.11829 0.24118 0.77655 0.0
C911 C 0.12929 0.26275 0.9583 0.0
C912 C 0.14692 0.26973 0.97396 0.0
C913 C 0.11794 0.25291 0.01127 0.0
C914 C 0.099 0.24611 -0.00183 0.0
C915 C 0.09193 0.22217 0.01929 0.0
C916 C 0.07401 0.21596 0.00849 0.0
C917 C 0.06299 0.23354 0.97674 0.0
C918 C 0.06986 0.25741 0.95584 0.0
C919 C 0.08776 0.26374 0.96666 0.0
H920 H 0.04911 0.2287 0.96852 0.0
H921 H 0.22304 0.28844 0.0793 0.0
H922 H 0.86427 0.21486 0.33827 0.0
H923 H 0.86961 0.21421 0.21216 0.0
H924 H 0.87049 0.29648 0.20717 0.0
H925 H 0.86524 0.29741 0.33305 0.0
H926 H 0.85499 0.23387 0.08993 0.0
H927 H 0.90806 0.31554 0.11957 0.0
H928 H 0.92758 0.33343 0.21155 0.0
H929 H 0.92705 0.26088 0.31665 0.0
H930 H 0.9078 0.24247 0.2248 0.0
H931 H 0.89309 0.30082 0.78141 0.0
H932 H 0.89294 0.29926 0.90911 0.0
H933 H 0.89842 0.21764 0.90308 0.0
H934 H 0.89849 0.21891 0.77556 0.0
H935 H 0.91231 0.2773 0.02717 0.0
H936 H 0.86178 0.19413 -0.00096 0.0
H937 H 0.84363 0.17386 0.90633 0.0
H938 H 0.84076 0.24582 0.79947 0.0
H939 H 0.85824 0.26658 0.89244 0.0
C940 C 0.86508 0.23282 0.31008 0.0
C941 C 0.86466 0.25621 0.34587 0.0
C942 C 0.86814 0.23239 0.23801 0.0
C943 C 0.87088 0.25529 0.20098 0.0
C944 C 0.86873 0.2786 0.23532 0.0
C945 C 0.86565 0.27908 0.30722 0.0
C946 C 0.87779 0.25499 0.12858 0.0
C947 C 0.86759 0.2431 0.07631 0.0
C948 C 0.89431 0.26696 0.11116 0.0
C949 C 0.90632 0.27772 0.16561 0.0
C950 C 0.91219 0.30338 0.1621 0.0
C951 C 0.9232 0.31361 0.21427 0.0
C952 C 0.92849 0.29832 0.27005 0.0
C953 C 0.92288 0.27273 0.27359 0.0
C954 C 0.91192 0.2624 0.22151 0.0
C955 C 0.89483 0.28263 0.80719 0.0
C956 C 0.89526 0.25989 0.76854 0.0
C957 C 0.8949 0.28182 0.88019 0.0
C958 C 0.89533 0.25828 0.91511 0.0
C959 C 0.89791 0.23595 0.87675 0.0
C960 C 0.89783 0.23672 0.80389 0.0
C961 C 0.88939 0.25652 -0.01138 0.0
C962 C 0.89975 0.26799 0.04099 0.0
C963 C 0.87314 0.24385 0.00632 0.0
C964 C 0.86159 0.23182 0.95224 0.0
C965 C 0.85716 0.20563 0.95598 0.0
C966 C 0.84697 0.19405 0.90332 0.0
C967 C 0.84115 0.20847 0.84666 0.0
C968 C 0.84537 0.23455 0.84286 0.0
C969 C 0.85539 0.24625 0.89566 0.0
H970 H 0.83327 0.19948 0.806 0.0
H971 H 0.93698 0.30629 0.31045 0.0
H972 H 0.11664 0.72121 0.21769 0.0
H973 H 0.11958 0.72139 0.09038 0.0
H974 H 0.12589 0.8034 0.09142 0.0
H975 H 0.12289 0.80354 0.2184 0.0
H976 H 0.10422 0.7474 0.97162 0.0
H977 H 0.16533 0.81526 0.00095 0.0
H978 H 0.18737 0.82797 0.09027 0.0
H979 H 0.18052 0.75501 0.19101 0.0
H980 H 0.15871 0.7417 0.1016 0.0
H981 H 0.15203 0.80249 0.66052 0.0
H982 H 0.14957 0.8023 0.78795 0.0
H983 H 0.14433 0.72017 0.78749 0.0
H984 H 0.14681 0.72004 0.66036 0.0
H985 H 0.1655 0.77604 0.90674 0.0
H986 H 0.10542 0.70747 0.87598 0.0
H987 H 0.08502 0.69331 0.78224 0.0
H988 H 0.09055 0.76673 0.68308 0.0
H989 H 0.11067 0.78148 0.77692 0.0
C990 C 0.11812 0.73935 0.19066 0.0
C991 C 0.11994 0.76232 0.22801 0.0
C992 C 0.11974 0.73939 0.11803 0.0
C993 C 0.12331 0.76235 0.08234 0.0
C994 C 0.12334 0.7855 0.11867 0.0
C995 C 0.12161 0.78551 0.19114 0.0
C996 C 0.12942 0.76186 0.00936 0.0
C997 C 0.11762 0.75346 0.9574 0.0
C998 C 0.14692 0.76995 -0.00864 0.0
C999 C 0.1602 0.77763 0.04503 0.0
C1000 C 0.16857 0.80191 0.04204 0.0
C1001 C 0.18103 0.80921 0.09267 0.0
C1002 C 0.18529 0.79234 0.14641 0.0
C1003 C 0.17715 0.76809 0.14953 0.0
C1004 C 0.16472 0.76068 0.09892 0.0
C1005 C 0.1509 0.78434 0.68767 0.0
C1006 C 0.14916 0.76132 0.65053 0.0
C1007 C 0.14957 0.78429 0.76036 0.0
C1008 C 0.14642 0.76127 0.79626 0.0
C1009 C 0.14657 0.73811 0.76005 0.0
C1010 C 0.14796 0.73811 0.68751 0.0
C1011 C 0.1403 0.76168 0.86918 0.0
C1012 C 0.15208 0.77006 0.92106 0.0
C1013 C 0.12281 0.75354 0.88709 0.0
C1014 C 0.10974 0.74544 0.83304 0.0
C1015 C 0.10216 0.72065 0.8345 0.0
C1016 C 0.09069 0.71251 0.78125 0.0
C1017 C 0.08665 0.72903 0.72637 0.0
C1018 C 0.09381 0.75389 0.7253 0.0
C1019 C 0.10523 0.76215 0.77854 0.0
H1020 H 0.07788 0.72263 0.68494 0.0
H1021 H 0.19494 0.79804 0.18546 0.0
H1022 H 0.86398 0.79884 0.66463 0.0
H1023 H 0.86803 0.79835 0.7911 0.0
H1024 H 0.86636 0.71606 0.79058 0.0
H1025 H 0.86224 0.71626 0.66391 0.0
H1026 H 0.85104 0.73751 0.91148 0.0
H1027 H 0.90463 0.74271 0.77606 0.0
H1028 H 0.9242 0.76031 0.68315 0.0
H1029 H 0.92576 0.83311 0.78541 0.0
H1030 H 0.90591 0.81605 0.87833 0.0
H1031 H 0.89494 0.71821 0.2226 0.0
H1032 H 0.89382 0.7176 0.09519 0.0
H1033 H 0.89173 0.79971 0.09109 0.0
H1034 H 0.89292 0.80061 0.2187 0.0
H1035 H 0.90966 0.77702 0.97189 0.0
H1036 H 0.85567 0.76973 0.10944 0.0
H1037 H 0.83754 0.74996 0.20315 0.0
H1038 H 0.83733 0.67831 0.09507 0.0
H1039 H 0.85609 0.6975 0.00169 0.0
C1040 C 0.86394 0.78062 0.69153 0.0
C1041 C 0.86317 0.75758 0.65415 0.0
C1042 C 0.8663 0.7804 0.76376 0.0
C1043 C 0.8679 0.75718 0.79949 0.0
C1044 C 0.86528 0.73415 0.76355 0.0
C1045 C 0.86296 0.73433 0.69119 0.0
C1046 C 0.87453 0.75699 0.87193 0.0
C1047 C 0.8639 0.74591 0.92465 0.0
C1048 C 0.89135 0.76798 0.88868 0.0
C1049 C 0.90364 0.77817 0.83381 0.0
C1050 C 0.90905 0.76252 0.7785 0.0
C1051 C 0.9202 0.77239 0.72584 0.0
C1052 C 0.92619 0.79782 0.72828 0.0
C1053 C 0.92109 0.81341 0.78355 0.0
C1054 C 0.90989 0.80365 0.83625 0.0
C1055 C 0.89479 0.73621 0.19464 0.0
C1056 C 0.89349 0.75943 0.23062 0.0
C1057 C 0.89424 0.73581 0.12186 0.0
C1058 C 0.89231 0.75857 0.0843 0.0
C1059 C 0.89314 0.78197 0.11951 0.0
C1060 C 0.89369 0.78241 0.19242 0.0
C1061 C 0.88612 0.75769 0.01136 0.0
C1062 C 0.89681 0.76859 0.9586 0.0
C1063 C 0.86944 0.74627 -0.00555 0.0
C1064 C 0.85751 0.73497 0.04901 0.0
C1065 C 0.85198 0.74967 0.10607 0.0
C1066 C 0.84163 0.73853 0.15932 0.0
C1067 C 0.83636 0.71282 0.15539 0.0
C1068 C 0.84147 0.6982 0.09818 0.0
C1069 C 0.85201 0.70919 0.04514 0.0
H1070 H 0.82821 0.70427 0.19633 0.0
H1071 H 0.93481 0.80543 0.68744 0.0
H1072 H 0.61745 0.80156 0.24593 0.0
H1073 H 0.61851 0.80254 0.37331 0.0
H1074 H 0.62076 0.72046 0.37923 0.0
H1075 H 0.61969 0.71919 0.25159 0.0
H1076 H 0.60258 0.74381 0.49783 0.0
H1077 H 0.65665 0.75019 0.36032 0.0
H1078 H 0.67492 0.76953 0.26641 0.0
H1079 H 0.67548 0.84145 0.3732 0.0
H1080 H 0.65656 0.82271 0.46671 0.0
H1081 H 0.64828 0.72166 0.80426 0.0
H1082 H 0.64419 0.72234 0.67785 0.0
H1083 H 0.64608 0.80462 0.67912 0.0
H1084 H 0.65022 0.80424 0.80582 0.0
H1085 H 0.66137 0.7829 0.55768 0.0
H1086 H 0.60783 0.77871 0.69309 0.0
H1087 H 0.58815 0.76164 0.78637 0.0
H1088 H 0.58601 0.6886 0.68546 0.0
H1089 H 0.60597 0.70512 0.5922 0.0
C1090 C 0.61763 0.78364 0.27427 0.0
C1091 C 0.61901 0.76032 0.23881 0.0
C1092 C 0.61814 0.78426 0.34704 0.0
C1093 C 0.62008 0.76162 0.38509 0.0
C1094 C 0.61934 0.73811 0.3504 0.0
C1095 C 0.61885 0.73745 0.27749 0.0
C1096 C 0.62623 0.76274 0.45805 0.0
C1097 C 0.61545 0.75216 0.511 0.0
C1098 C 0.64295 0.77409 0.47479 0.0
C1099 C 0.65494 0.78513 0.42006 0.0
C1100 C 0.66042 0.77023 0.36333 0.0
C1101 C 0.67087 0.78112 0.30998 0.0
C1102 C 0.67628 0.80678 0.31351 0.0
C1103 C 0.67122 0.8216 0.3704 0.0
C1104 C 0.66059 0.81086 0.42352 0.0
C1105 C 0.64835 0.73993 0.77755 0.0
C1106 C 0.64919 0.76291 0.81516 0.0
C1107 C 0.64598 0.74025 0.70536 0.0
C1108 C 0.64443 0.76352 0.66986 0.0
C1109 C 0.64712 0.7865 0.70599 0.0
C1110 C 0.64946 0.78621 0.77835 0.0
C1111 C 0.63777 0.76379 0.5975 0.0
C1112 C 0.64847 0.77462 0.54461 0.0
C1113 C 0.62089 0.75296 0.58093 0.0
C1114 C 0.60854 0.74308 0.636 0.0
C1115 C 0.60326 0.75895 0.69103 0.0
C1116 C 0.59205 0.74939 0.7439 0.0
C1117 C 0.58587 0.72404 0.74194 0.0
C1118 C 0.59084 0.70823 0.68696 0.0
C1119 C 0.60209 0.71769 0.63405 0.0
H1120 H 0.5772 0.71667 0.78294 0.0
H1121 H 0.6845 0.81514 0.2725 0.0
H1122 H 0.36407 0.72241 0.81497 0.0
H1123 H 0.36708 0.72264 0.68801 0.0
H1124 H 0.36575 0.80484 0.6863 0.0
H1125 H 0.36276 0.80491 0.81355 0.0
H1126 H 0.34899 0.77971 0.56783 0.0
H1127 H 0.4037 0.78246 0.69877 0.0
H1128 H 0.42314 0.7669 0.79228 0.0
H1129 H 0.42503 0.69382 0.69247 0.0
H1130 H 0.40529 0.70878 0.59905 0.0
H1131 H 0.39274 0.8054 0.25558 0.0
H1132 H 0.39034 0.8054 0.38275 0.0
H1133 H 0.3913 0.72318 0.38529 0.0
H1134 H 0.39367 0.72288 0.25783 0.0
H1135 H 0.4085 0.74848 0.50372 0.0
H1136 H 0.35338 0.74531 0.37458 0.0
H1137 H 0.33282 0.76006 0.28388 0.0
H1138 H 0.33148 0.83364 0.38131 0.0
H1139 H 0.35226 0.81943 0.47198 0.0
C1140 C 0.36389 0.74052 0.78755 0.0
C1141 C 0.36362 0.76369 0.82421 0.0
C1142 C 0.36561 0.74058 0.7151 0.0
C1143 C 0.36702 0.76378 0.67864 0.0
C1144 C 0.3648 0.7868 0.71409 0.0
C1145 C 0.36314 0.78678 0.78669 0.0
C1146 C 0.37326 0.76414 0.60582 0.0
C1147 C 0.36204 0.77315 0.55374 0.0
C1148 C 0.39026 0.7553 0.58812 0.0
C1149 C 0.40284 0.74664 0.64234 0.0
C1150 C 0.40817 0.76302 0.69697 0.0
C1151 C 0.41922 0.7543 0.75003 0.0
C1152 C 0.42517 0.72932 0.74864 0.0
C1153 C 0.42029 0.71311 0.69371 0.0
C1154 C 0.40919 0.72171 0.64064 0.0
C1155 C 0.39297 0.78733 0.28318 0.0
C1156 C 0.39295 0.7641 0.24675 0.0
C1157 C 0.39162 0.7874 0.35576 0.0
C1158 C 0.3903 0.76428 0.39263 0.0
C1159 C 0.39222 0.74118 0.35725 0.0
C1160 C 0.39349 0.74106 0.28451 0.0
C1161 C 0.38422 0.76408 0.4657 0.0
C1162 C 0.39547 0.7551 0.51783 0.0
C1163 C 0.36723 0.77294 0.48352 0.0
C1164 C 0.35452 0.78139 0.42964 0.0
C1165 C 0.34881 0.76469 0.37634 0.0
C1166 C 0.3371 0.77294 0.32498 0.0
C1167 C 0.33088 0.79779 0.32675 0.0
C1168 C 0.33632 0.81441 0.37997 0.0
C1169 C 0.34806 0.80627 0.43138 0.0
H1170 H 0.32182 0.80416 0.28703 0.0
H1171 H 0.43369 0.72259 0.78983 0.0
H1172 H 0.62018 0.22684 0.14747 0.0
H1173 H 0.62179 0.2267 0.27438 0.0
H1174 H 0.63865 0.3061 0.27193 0.0
H1175 H 0.63723 0.30643 0.14426 0.0
H1176 H 0.66225 0.27355 0.33544 0.0
H1177 H 0.60049 0.29115 0.34198 0.0
H1178 H 0.56891 0.28561 0.31122 0.0
H1179 H 0.56815 0.20976 0.39683 0.0
H1180 H 0.59982 0.21464 0.42697 0.0
H1181 H 0.65206 0.29669 0.69768 0.0
H1182 H 0.65475 0.2946 0.57098 0.0
H1183 H 0.64225 0.21377 0.57739 0.0
H1184 H 0.63955 0.21555 0.70445 0.0
H1185 H 0.61725 0.24571 0.51145 0.0
H1186 H 0.67874 0.22802 0.50578 0.0
H1187 H 0.71056 0.23271 0.5333 0.0
H1188 H 0.71178 0.30851 0.44735 0.0
H1189 H 0.67991 0.30437 0.41972 0.0
C1190 C 0.62391 0.2444 0.17404 0.0
C1191 C 0.62896 0.26651 0.13671 0.0
C1192 C 0.62467 0.24433 0.24625 0.0
C1193 C 0.63039 0.26638 0.28142 0.0
C1194 C 0.63424 0.289 0.24471 0.0
C1195 C 0.63341 0.28913 0.17228 0.0
C1196 C 0.63458 0.26457 0.35529 0.0
C1197 C 0.65241 0.26797 0.37455 0.0
C1198 C 0.6217 0.25622 0.40435 0.0
C1199 C 0.6026 0.25321 0.38631 0.0
C1200 C 0.59365 0.2732 0.35371 0.0
C1201 C 0.57571 0.2702 0.33651 0.0
C1202 C 0.56653 0.24737 0.35215 0.0
C1203 C 0.57527 0.22746 0.38486 0.0
C1204 C 0.59322 0.23034 0.40206 0.0
C1205 C 0.65019 0.27839 0.67221 0.0
C1206 C 0.64502 0.25644 0.70999 0.0
C1207 C 0.65205 0.27717 0.60027 0.0
C1208 C 0.64869 0.25404 0.566 0.0
C1209 C 0.64498 0.23167 0.60396 0.0
C1210 C 0.64325 0.23282 0.67604 0.0
C1211 C 0.64491 0.25474 0.49173 0.0
C1212 C 0.62711 0.25121 0.47235 0.0
C1213 C 0.6578 0.26303 0.44275 0.0
C1214 C 0.67688 0.26592 0.46101 0.0
C1215 C 0.68574 0.24578 0.49325 0.0
C1216 C 0.70382 0.24827 0.50845 0.0
C1217 C 0.7132 0.27085 0.49177 0.0
C1218 C 0.70451 0.29099 0.45994 0.0
C1219 C 0.68645 0.28856 0.44437 0.0
H1220 H 0.72718 0.27279 0.50396 0.0
H1221 H 0.55264 0.2451 0.33888 0.0
H1222 H 0.3577 0.2256 0.17426 0.0
H1223 H 0.35923 0.22671 0.30165 0.0
H1224 H 0.36717 0.30852 0.29484 0.0
H1225 H 0.36559 0.30769 0.16754 0.0
H1226 H 0.39464 0.28318 0.35683 0.0
H1227 H 0.33202 0.28622 0.37202 0.0
H1228 H 0.3005 0.2747 0.35348 0.0
H1229 H 0.3081 0.20136 0.44765 0.0
H1230 H 0.33975 0.21225 0.46576 0.0
H1231 H 0.39259 0.30313 0.72536 0.0
H1232 H 0.3904 0.30286 0.5983 0.0
H1233 H 0.38267 0.22098 0.6015 0.0
H1234 H 0.38471 0.22101 0.7288 0.0
H1235 H 0.35506 0.24707 0.54182 0.0
H1236 H 0.4185 0.24596 0.52767 0.0
H1237 H 0.44882 0.26104 0.55672 0.0
H1238 H 0.43856 0.33419 0.46606 0.0
H1239 H 0.40803 0.31974 0.43775 0.0
C1240 C 0.35929 0.2439 0.19996 0.0
C1241 C 0.36193 0.26649 0.16115 0.0
C1242 C 0.36007 0.2445 0.27262 0.0
C1243 C 0.36348 0.26767 0.30695 0.0
C1244 C 0.36462 0.29049 0.26872 0.0
C1245 C 0.36371 0.28994 0.19615 0.0
C1246 C 0.36855 0.2675 0.38087 0.0
C1247 C 0.3859 0.27567 0.39764 0.0
C1248 C 0.35723 0.25706 0.43304 0.0
C1249 C 0.33837 0.24992 0.41925 0.0
C1250 C 0.32706 0.26745 0.38765 0.0
C1251 C 0.30914 0.26109 0.37756 0.0
C1252 C 0.30232 0.23728 0.39912 0.0
C1253 C 0.31341 0.21977 0.43079 0.0
C1254 C 0.33135 0.22603 0.44097 0.0
C1255 C 0.3909 0.28499 0.69893 0.0
C1256 C 0.38843 0.26215 0.73677 0.0
C1257 C 0.38973 0.28487 0.62644 0.0
C1258 C 0.38623 0.26192 0.59126 0.0
C1259 C 0.38529 0.23884 0.62838 0.0
C1260 C 0.38649 0.23892 0.70088 0.0
C1261 C 0.38113 0.26249 0.51749 0.0
C1262 C 0.36378 0.25445 0.50082 0.0
C1263 C 0.39238 0.27328 0.46564 0.0
C1264 C 0.4109 0.28181 0.48107 0.0
C1265 C 0.42266 0.26532 0.51434 0.0
C1266 C 0.43989 0.27375 0.53065 0.0
C1267 C 0.4456 0.29857 0.51336 0.0
C1268 C 0.43411 0.31497 0.47947 0.0
C1269 C 0.41684 0.30667 0.46324 0.0
H1270 H 0.45894 0.30507 0.52614 0.0
H1271 H 0.28842 0.23242 0.39147 0.0
H1272 H 0.07754 0.22168 0.45566 0.0
H1273 H 0.04545 0.22296 0.43855 0.0
H1274 H 0.04791 0.30503 0.45443 0.0
H1275 H 0.07994 0.30397 0.4717 0.0
H1276 H 0.02364 0.2836 0.54271 0.0
H1277 H 0.03844 0.27772 0.30084 0.0
H1278 H 0.0527 0.26014 0.19608 0.0
H1279 H 0.02409 0.18898 0.22636 0.0
H1280 H 0.00984 0.20601 0.33198 0.0
H1281 H 0.93347 0.30205 0.4811 0.0
H1282 H 0.96523 0.30339 0.45548 0.0
H1283 H 0.96539 0.22114 0.45393 0.0
H1284 H 0.93355 0.21955 0.47935 0.0
H1285 H 0.98819 0.24424 0.35124 0.0
H1286 H 0.97581 0.249 0.59837 0.0
H1287 H 0.96144 0.26648 0.70307 0.0
H1288 H 0.98607 0.33988 0.66205 0.0
H1289 H 1.00037 0.32291 0.55636 0.0
C1290 C 0.07129 0.24003 0.4545 0.0
C1291 C 0.08128 0.26271 0.46547 0.0
C1292 C 0.05296 0.24073 0.44436 0.0
C1293 C 0.04431 0.2641 0.445 0.0
C1294 C 0.05434 0.28681 0.45373 0.0
C1295 C 0.07265 0.28615 0.46351 0.0
C1296 C 0.02469 0.26471 0.44297 0.0
C1297 C 0.01593 0.27542 0.50013 0.0
C1298 C 0.01462 0.25343 0.38828 0.0
C1299 C 0.02319 0.24308 0.32481 0.0
C1300 C 0.03531 0.25824 0.28559 0.0
C1301 C 0.04337 0.24839 0.22594 0.0
C1302 C 0.03934 0.22344 0.20467 0.0
C1303 C 0.02722 0.2083 0.24294 0.0
C1304 C 0.01912 0.21805 0.30268 0.0
C1305 C 0.94018 0.28422 0.47441 0.0
C1306 C 0.93105 0.26068 0.48356 0.0
C1307 C 0.95832 0.28504 0.45955 0.0
C1308 C 0.96767 0.26236 0.45375 0.0
C1309 C 0.9584 0.23884 0.4583 0.0
C1310 C 0.94024 0.23799 0.47329 0.0
C1311 C 0.9873 0.26322 0.45076 0.0
C1312 C 0.996 0.25265 0.39319 0.0
C1313 C 0.9974 0.27459 0.50509 0.0
C1314 C 0.989 0.28476 0.56906 0.0
C1315 C 0.97805 0.26892 0.61138 0.0
C1316 C 0.96993 0.27872 0.67093 0.0
C1317 C 0.9728 0.30429 0.68909 0.0
C1318 C 0.98383 0.32009 0.64784 0.0
C1319 C 0.99195 0.31039 0.58812 0.0
H1320 H 0.9665 0.31185 0.73523 0.0
H1321 H 0.04559 0.21586 0.15845 0.0
H1322 H 0.93264 0.80042 0.52339 0.0
H1323 H 0.96454 0.80156 0.54507 0.0
H1324 H 0.96539 0.71962 0.5274 0.0
H1325 H 0.9334 0.71822 0.5062 0.0
H1326 H 0.98846 0.73893 0.63138 0.0
H1327 H 0.97476 0.75408 0.38812 0.0
H1328 H 0.95983 0.77605 0.29145 0.0
H1329 H 0.98469 0.8472 0.35227 0.0
H1330 H 0.99956 0.8257 0.45003 0.0
H1331 H 0.07704 0.72029 0.51304 0.0
H1332 H 0.04516 0.72127 0.53599 0.0
H1333 H 0.04783 0.80358 0.53441 0.0
H1334 H 0.07964 0.80279 0.51084 0.0
H1335 H 0.02288 0.78599 0.44808 0.0
H1336 H 0.03785 0.77162 0.68698 0.0
H1337 H 0.05226 0.75085 0.78685 0.0
H1338 H 0.02579 0.67975 0.73638 0.0
H1339 H 0.01113 0.70015 0.63632 0.0
C1340 C 0.93954 0.78259 0.52501 0.0
C1341 C 0.93053 0.75926 0.51183 0.0
C1342 C 0.95777 0.78329 0.53755 0.0
C1343 C 0.96735 0.76071 0.53677 0.0
C1344 C 0.95823 0.73726 0.52808 0.0
C1345 C 0.93997 0.73652 0.51559 0.0
C1346 C 0.98701 0.7618 0.53791 0.0
C1347 C 0.99603 0.74904 0.59112 0.0
C1348 C 0.99684 0.77545 0.48614 0.0
C1349 C 0.98812 0.78833 0.42679 0.0
C1350 C 0.97694 0.77444 0.38116 0.0
C1351 C 0.96851 0.7868 0.32615 0.0
C1352 C 0.97127 0.81302 0.31584 0.0
C1353 C 0.98254 0.82691 0.36039 0.0
C1354 C 0.99098 0.81464 0.41559 0.0
C1355 C 0.07089 0.7386 0.51851 0.0
C1356 C 0.08085 0.76146 0.50927 0.0
C1357 C 0.05267 0.73913 0.53213 0.0
C1358 C 0.0441 0.76251 0.53703 0.0
C1359 C 0.05416 0.78533 0.53068 0.0
C1360 C 0.07236 0.78483 0.51721 0.0
C1361 C 0.02447 0.76316 0.54172 0.0
C1362 C 0.0154 0.77611 0.48904 0.0
C1363 C 0.01466 0.7498 0.59413 0.0
C1364 C 0.02351 0.73737 0.65386 0.0
C1365 C 0.03518 0.75152 0.69694 0.0
C1366 C 0.04332 0.73985 0.75377 0.0
C1367 C 0.03999 0.71398 0.76781 0.0
C1368 C 0.02838 0.69978 0.72538 0.0
C1369 C 0.02008 0.71142 0.6688 0.0
H1370 H 0.0464 0.70495 0.8116 0.0
H1371 H 0.96473 0.82256 0.27323 0.0
H1372 H 0.58095 0.80361 0.95593 0.0
H1373 H 0.54905 0.80477 0.93576 0.0
H1374 H 0.54582 0.72251 0.9359 0.0
H1375 H 0.57785 0.7211 0.95542 0.0
H1376 H 0.52288 0.74453 0.83812 0.0
H1377 H 0.53773 0.75215 0.08238 0.0
H1378 H 0.55374 0.77087 0.1829 0.0
H1379 H 0.53146 0.84373 0.13956 0.0
H1380 H 0.51553 0.82552 0.03803 0.0
H1381 H 0.4334 0.72414 0.95551 0.0
H1382 H 0.46531 0.72497 0.93245 0.0
H1383 H 0.4667 0.80709 0.94739 0.0
H1384 H 0.43484 0.80644 0.97097 0.0
H1385 H 0.49071 0.78633 0.03124 0.0
H1386 H 0.47453 0.77871 0.79078 0.0
H1387 H 0.45905 0.76068 0.68816 0.0
H1388 H 0.48314 0.68854 0.72363 0.0
H1389 H 0.49878 0.70615 0.82658 0.0
C1390 C 0.57354 0.78573 0.95064 0.0
C1391 C 0.58189 0.76225 0.95858 0.0
C1392 C 0.5553 0.78645 0.93904 0.0
C1393 C 0.54505 0.76374 0.93552 0.0
C1394 C 0.5535 0.74025 0.93872 0.0
C1395 C 0.57178 0.7395 0.95031 0.0
C1396 C 0.52542 0.76457 0.93577 0.0
C1397 C 0.51579 0.75346 0.88052 0.0
C1398 C 0.51624 0.77664 -0.00944 0.0
C1399 C 0.52559 0.78754 0.05222 0.0
C1400 C 0.53634 0.77221 0.09401 0.0
C1401 C 0.54539 0.78272 0.15118 0.0
C1402 C 0.54365 0.80849 0.1675 0.0
C1403 C 0.53282 0.82378 0.12679 0.0
C1404 C 0.52377 0.81337 0.06945 0.0
C1405 C 0.44045 0.74241 0.95301 0.0
C1406 C 0.43162 0.76521 0.9659 0.0
C1407 C 0.45868 0.74286 0.93931 0.0
C1408 C 0.46839 0.7661 0.9381 0.0
C1409 C 0.45946 0.78894 0.9482 0.0
C1410 C 0.44125 0.78852 0.96164 0.0
C1411 C 0.48803 0.76643 0.93328 0.0
C1412 C 0.49772 0.77761 -0.01175 0.0
C1413 C 0.49719 0.75444 0.87824 0.0
C1414 C 0.48772 0.7437 0.81671 0.0
C1415 C 0.47645 0.75896 0.77697 0.0
C1416 C 0.4677 0.74885 0.71856 0.0
C1417 C 0.47009 0.72347 0.69945 0.0
C1418 C 0.4813 0.70819 0.73851 0.0
C1419 C 0.49016 0.71825 0.79675 0.0
H1420 H 0.46324 0.71565 0.6544 0.0
H1421 H 0.55068 0.81659 0.21177 0.0
H1422 H 0.4336 0.3063 0.9758 0.0
H1423 H 0.46589 0.30551 0.96713 0.0
H1424 H 0.46409 0.22412 0.00144 0.0
H1425 H 0.43173 0.22467 0.01016 0.0
H1426 H 0.49246 0.24882 0.06955 0.0
H1427 H 0.4666 0.24443 0.84144 0.0
H1428 H 0.4474 0.25789 0.74472 0.0
H1429 H 0.47586 0.32986 0.73257 0.0
H1430 H 0.49505 0.31699 0.83008 0.0
H1431 H 0.57646 0.22066 0.92858 0.0
H1432 H 0.5443 0.22151 0.94374 0.0
H1433 H 0.54573 0.30286 0.90865 0.0
H1434 H 0.57792 0.30224 0.89317 0.0
H1435 H 0.51754 0.27796 0.84155 0.0
H1436 H 0.54369 0.28124 0.07122 0.0
H1437 H 0.56327 0.26606 0.16476 0.0
H1438 H 0.53436 0.19436 0.17104 0.0
H1439 H 0.51475 0.20899 0.07689 0.0
C1440 C 0.44006 0.28828 0.98293 0.0
C1441 C 0.43007 0.2655 -0.00692 0.0
C1442 C 0.45851 0.28787 0.97761 0.0
C1443 C 0.46731 0.2647 0.9825 0.0
C1444 C 0.45751 0.24217 -0.00277 0.0
C1445 C 0.43902 0.24254 0.00215 0.0
C1446 C 0.48655 0.26377 0.96748 0.0
C1447 C 0.49794 0.25494 0.01952 0.0
C1448 C 0.49366 0.27203 0.90234 0.0
C1449 C 0.48214 0.27985 0.84363 0.0
C1450 C 0.46866 0.26323 0.81862 0.0
C1451 C 0.4578 0.27073 0.76356 0.0
C1452 C 0.46038 0.29474 0.73262 0.0
C1453 C 0.47385 0.31128 0.75665 0.0
C1454 C 0.48473 0.30389 0.8118 0.0
C1455 C 0.56993 0.23871 0.92319 0.0
C1456 C 0.57977 0.26142 0.91012 0.0
C1457 C 0.55156 0.23916 0.93222 0.0
C1458 C 0.5427 0.2623 0.92835 0.0
C1459 C 0.55235 0.28482 0.91213 0.0
C1460 C 0.57074 0.28442 0.90339 0.0
C1461 C 0.52347 0.26315 0.94373 0.0
C1462 C 0.51207 0.27193 0.89168 0.0
C1463 C 0.51635 0.2547 0.00868 0.0
C1464 C 0.52786 0.24612 0.06651 0.0
C1465 C 0.54157 0.26218 0.09228 0.0
C1466 C 0.55266 0.25369 0.14544 0.0
C1467 C 0.5501 0.22923 0.17358 0.0
C1468 C 0.53635 0.21329 0.14906 0.0
C1469 C 0.52522 0.22168 0.09587 0.0
H1470 H 0.55877 0.2226 0.21438 0.0
H1471 H 0.45197 0.30049 0.68993 0.0
loop_
_geom_bond_atom_site_label_1
_geom_bond_atom_site_label_2
_geom_bond_distance
_geom_bond_site_symmetry_2
_ccdc_geom_bond_type
C0 O16 1.251 . S
C0 O18 1.254 . S
N1 C2 1.333 . S
N1 C6 1.307 . S
N1 Zn7 2.020 . S
C2 N1 1.333 . S
C2 C3 1.379 . S
C2 H20 0.952 . S
C3 C2 1.379 . S
C3 C4 1.390 . S
C3 H30 0.949 . S
C4 C3 1.390 . S
C4 C5 1.357 . S
C5 C4 1.357 . S
C5 C6 1.370 . S
C5 H31 0.950 . S
C6 N1 1.307 . S
C6 C5 1.370 . S
C6 H24 0.948 . S
Zn7 N1 2.020 . S
Zn7 O16 2.039 . S
Zn7 O22 2.034 . S
Zn7 O26 2.025 . S
Zn7 O28 2.024 . S
C8 O27 1.246 . S
C8 O28 1.249 . S
N9 C10 1.307 . S
N9 C11 1.333 . S
N9 Zn15 2.020 . S
C10 N9 1.307 . S
C10 C14 1.370 . S
C10 H21 0.948 . S
C11 N9 1.333 . S
C11 C12 1.379 . S
C11 H19 0.952 . S
C12 C11 1.379 . S
C12 C13 1.390 . S
C12 H32 0.949 . S
C13 C12 1.390 . S
C13 C14 1.357 . S
C14 C10 1.370 . S
C14 C13 1.357 . S
C14 H33 0.950 . S
Zn15 N9 2.020 . S
Zn15 O18 2.025 . S
Zn15 O23 2.024 . S
Zn15 O25 2.039 . S
Zn15 O27 2.034 . S
O16 C0 1.251 . S
O16 Zn7 2.039 . S
C17 O22 1.246 . S
C17 O23 1.249 . S
O18 C0 1.254 . S
O18 Zn15 2.025 . S
H19 C11 0.952 . S
H20 C2 0.952 . S
H21 C10 0.948 . S
O22 Zn7 2.034 . S
O22 C17 1.246 . S
O23 Zn15 2.024 . S
O23 C17 1.249 . S
H24 C6 0.948 . S
O25 Zn15 2.039 . S
O25 C29 1.251 . S
O26 Zn7 2.025 . S
O26 C29 1.254 . S
O27 C8 1.246 . S
O27 Zn15 2.034 . S
O28 Zn7 2.024 . S
O28 C8 1.249 . S
C29 O25 1.251 . S
C29 O26 1.254 . S
H30 C3 0.949 . S
H31 C5 0.950 . S
H32 C12 0.949 . S
H33 C14 0.950 . S
C34 O50 1.251 . S
C34 O52 1.254 . S
N35 C36 1.333 . S
N35 C40 1.307 . S
N35 Zn41 2.020 . S
C36 N35 1.333 . S
C36 C37 1.379 . S
C36 H54 0.952 . S
C37 C36 1.379 . S
C37 C38 1.390 . S
C37 H64 0.949 . S
C38 C37 1.390 . S
C38 C39 1.357 . S
C39 C38 1.357 . S
C39 C40 1.370 . S
C39 H65 0.950 . S
C40 N35 1.307 . S
C40 C39 1.370 . S
C40 H58 0.948 . S
Zn41 N35 2.020 . S
Zn41 O50 2.039 . S
Zn41 O56 2.034 . S
Zn41 O60 2.025 . S
Zn41 O62 2.024 . S
C42 O61 1.246 . S
C42 O62 1.249 . S
N43 C44 1.307 . S
N43 C45 1.333 . S
N43 Zn49 2.020 . S
C44 N43 1.307 . S
C44 C48 1.370 . S
C44 H55 0.948 . S
C45 N43 1.333 . S
C45 C46 1.379 . S
C45 H53 0.952 . S
C46 C45 1.379 . S
C46 C47 1.390 . S
C46 H66 0.949 . S
C47 C46 1.390 . S
C47 C48 1.357 . S
C48 C44 1.370 . S
C48 C47 1.357 . S
C48 H67 0.950 . S
Zn49 N43 2.020 . S
Zn49 O52 2.025 . S
Zn49 O57 2.024 . S
Zn49 O59 2.039 . S
Zn49 O61 2.034 . S
O50 C34 1.251 . S
O50 Zn41 2.039 . S
C51 O56 1.246 . S
C51 O57 1.249 . S
O52 C34 1.254 . S
O52 Zn49 2.025 . S
H53 C45 0.952 . S
H54 C36 0.952 . S
H55 C44 0.948 . S
O56 Zn41 2.034 . S
O56 C51 1.246 . S
O57 Zn49 2.024 . S
O57 C51 1.249 . S
H58 C40 0.948 . S
O59 Zn49 2.039 . S
O59 C63 1.251 . S
O60 Zn41 2.025 . S
O60 C63 1.254 . S
O61 C42 1.246 . S
O61 Zn49 2.034 . S
O62 Zn41 2.024 . S
O62 C42 1.249 . S
C63 O59 1.251 . S
C63 O60 1.254 . S
H64 C37 0.949 . S
H65 C39 0.950 . S
H66 C46 0.949 . S
H67 C48 0.950 . S
C68 O84 1.251 . S
C68 O86 1.254 . S
N69 C70 1.333 . S
N69 C74 1.307 . S
N69 Zn75 2.020 . S
C70 N69 1.333 . S
C70 C71 1.379 . S
C70 H88 0.952 . S
C71 C70 1.379 . S
C71 C72 1.390 . S
C71 H98 0.949 . S
C72 C71 1.390 . S
C72 C73 1.357 . S
C73 C72 1.357 . S
C73 C74 1.370 . S
C73 H99 0.950 . S
C74 N69 1.307 . S
C74 C73 1.370 . S
C74 H92 0.948 . S
Zn75 N69 2.020 . S
Zn75 O84 2.039 . S
Zn75 O90 2.034 . S
Zn75 O94 2.025 . S
Zn75 O96 2.024 . S
C76 O95 1.246 . S
C76 O96 1.249 . S
N77 C78 1.307 . S
N77 C79 1.333 . S
N77 Zn83 2.020 . S
C78 N77 1.307 . S
C78 C82 1.370 . S
C78 H89 0.948 . S
C79 N77 1.333 . S
C79 C80 1.379 . S
C79 H87 0.952 . S
C80 C79 1.379 . S
C80 C81 1.390 . S
C80 H100 0.949 . S
C81 C80 1.390 . S
C81 C82 1.357 . S
C82 C78 1.370 . S
C82 C81 1.357 . S
C82 H101 0.950 . S
Zn83 N77 2.020 . S
Zn83 O86 2.025 . S
Zn83 O91 2.024 . S
Zn83 O93 2.039 . S
Zn83 O95 2.034 . S
O84 C68 1.251 . S
O84 Zn75 2.039 . S
C85 O90 1.246 . S
C85 O91 1.249 . S
O86 C68 1.254 . S
O86 Zn83 2.025 . S
H87 C79 0.952 . S
H88 C70 0.952 . S
H89 C78 0.948 . S
O90 Zn75 2.034 . S
O90 C85 1.246 . S
O91 Zn83 2.024 . S
O91 C85 1.249 . S
H92 C74 0.948 . S
O93 Zn83 2.039 . S
O93 C97 1.251 . S
O94 Zn75 2.025 . S
O94 C97 1.254 . S
O95 C76 1.246 . S
O95 Zn83 2.034 . S
O96 Zn75 2.024 . S
O96 C76 1.249 . S
C97 O93 1.251 . S
C97 O94 1.254 . S
H98 C71 0.949 . S
H99 C73 0.950 . S
H100 C80 0.949 . S
H101 C82 0.950 . S
C102 O118 1.251 . S
C102 O120 1.254 . S
N103 C104 1.333 . S
N103 C108 1.307 . S
N103 Zn109 2.020 . S
C104 N103 1.333 . S
C104 C105 1.379 . S
C104 H122 0.952 . S
C105 C104 1.379 . S
C105 C106 1.390 . S
C105 H132 0.949 . S
C106 C105 1.390 . S
C106 C107 1.357 . S
C107 C106 1.357 . S
C107 C108 1.370 . S
C107 H133 0.950 . S
C108 N103 1.307 . S
C108 C107 1.370 . S
C108 H126 0.948 . S
Zn109 N103 2.020 . S
Zn109 O118 2.039 . S
Zn109 O124 2.034 . S
Zn109 O128 2.025 . S
Zn109 O130 2.024 . S
C110 O129 1.246 . S
C110 O130 1.249 . S
N111 C112 1.307 . S
N111 C113 1.333 . S
N111 Zn117 2.020 . S
C112 N111 1.307 . S
C112 C116 1.370 . S
C112 H123 0.948 . S
C113 N111 1.333 . S
C113 C114 1.379 . S
C113 H121 0.952 . S
C114 C113 1.379 . S
C114 C115 1.390 . S
C114 H134 0.949 . S
C115 C114 1.390 . S
C115 C116 1.357 . S
C116 C112 1.370 . S
C116 C115 1.357 . S
C116 H135 0.950 . S
Zn117 N111 2.020 . S
Zn117 O120 2.025 . S
Zn117 O125 2.024 . S
Zn117 O127 2.039 . S
Zn117 O129 2.034 . S
O118 C102 1.251 . S
O118 Zn109 2.039 . S
C119 O124 1.246 . S
C119 O125 1.249 . S
O120 C102 1.254 . S
O120 Zn117 2.025 . S
H121 C113 0.952 . S
H122 C104 0.952 . S
H123 C112 0.948 . S
O124 Zn109 2.034 . S
O124 C119 1.246 . S
O125 Zn117 2.024 . S
O125 C119 1.249 . S
H126 C108 0.948 . S
O127 Zn117 2.039 . S
O127 C131 1.251 . S
O128 Zn109 2.025 . S
O128 C131 1.254 . S
O129 C110 1.246 . S
O129 Zn117 2.034 . S
O130 Zn109 2.024 . S
O130 C110 1.249 . S
C131 O127 1.251 . S
C131 O128 1.254 . S
H132 C105 0.949 . S
H133 C107 0.950 . S
H134 C114 0.949 . S
H135 C116 0.950 . S
C136 O152 1.251 . S
C136 O154 1.254 . S
N137 C138 1.333 . S
N137 C142 1.307 . S
N137 Zn143 2.020 . S
C138 N137 1.333 . S
C138 C139 1.379 . S
C138 H156 0.952 . S
C139 C138 1.379 . S
C139 C140 1.390 . S
C139 H166 0.949 . S
C140 C139 1.390 . S
C140 C141 1.357 . S
C141 C140 1.357 . S
C141 C142 1.370 . S
C141 H167 0.950 . S
C142 N137 1.307 . S
C142 C141 1.370 . S
C142 H160 0.948 . S
Zn143 N137 2.020 . S
Zn143 O152 2.039 . S
Zn143 O158 2.034 1_554 S
Zn143 O162 2.025 . S
Zn143 O164 2.024 . S
C144 O163 1.246 . S
C144 O164 1.249 . S
N145 C146 1.307 . S
N145 C147 1.333 . S
N145 Zn151 2.020 . S
C146 N145 1.307 . S
C146 C150 1.370 . S
C146 H157 0.948 . S
C147 N145 1.333 . S
C147 C148 1.379 . S
C147 H155 0.952 . S
C148 C147 1.379 . S
C148 C149 1.390 . S
C148 H168 0.949 . S
C149 C148 1.390 . S
C149 C150 1.357 . S
C150 C146 1.370 . S
C150 C149 1.357 . S
C150 H169 0.950 . S
Zn151 N145 2.020 . S
Zn151 O154 2.025 . S
Zn151 O159 2.024 1_554 S
Zn151 O161 2.039 . S
Zn151 O163 2.034 . S
O152 C136 1.251 . S
O152 Zn143 2.039 . S
C153 O158 1.246 . S
C153 O159 1.249 . S
O154 C136 1.254 . S
O154 Zn151 2.025 . S
H155 C147 0.952 . S
H156 C138 0.952 . S
H157 C146 0.948 . S
O158 Zn143 2.034 1_556 S
O158 C153 1.246 . S
O159 Zn151 2.024 1_556 S
O159 C153 1.249 . S
H160 C142 0.948 . S
O161 Zn151 2.039 . S
O161 C165 1.251 . S
O162 Zn143 2.025 . S
O162 C165 1.254 . S
O163 C144 1.246 . S
O163 Zn151 2.034 . S
O164 Zn143 2.024 . S
O164 C144 1.249 . S
C165 O161 1.251 . S
C165 O162 1.254 . S
H166 C139 0.949 . S
H167 C141 0.950 . S
H168 C148 0.949 . S
H169 C150 0.950 . S
C170 O186 1.251 . S
C170 O188 1.254 . S
N171 C172 1.333 . S
N171 C176 1.307 . S
N171 Zn177 2.020 . S
C172 N171 1.333 . S
C172 C173 1.379 . S
C172 H190 0.952 . S
C173 C172 1.379 . S
C173 C174 1.390 . S
C173 H200 0.949 . S
C174 C173 1.390 . S
C174 C175 1.357 . S
C175 C174 1.357 . S
C175 C176 1.370 . S
C175 H201 0.950 . S
C176 N171 1.307 . S
C176 C175 1.370 . S
C176 H194 0.948 . S
Zn177 N171 2.020 . S
Zn177 O186 2.039 . S
Zn177 O192 2.034 . S
Zn177 O196 2.025 . S
Zn177 O198 2.024 1_554 S
C178 O197 1.246 . S
C178 O198 1.249 . S
N179 C180 1.307 . S
N179 C181 1.333 . S
N179 Zn185 2.020 . S
C180 N179 1.307 . S
C180 C184 1.370 . S
C180 H191 0.948 . S
C181 N179 1.333 . S
C181 C182 1.379 . S
C181 H189 0.952 . S
C182 C181 1.379 . S
C182 C183 1.390 . S
C182 H202 0.949 . S
C183 C182 1.390 . S
C183 C184 1.357 . S
C184 C180 1.370 . S
C184 C183 1.357 . S
C184 H203 0.950 . S
Zn185 N179 2.020 . S
Zn185 O188 2.025 . S
Zn185 O193 2.024 . S
Zn185 O195 2.039 . S
Zn185 O197 2.034 1_554 S
O186 C170 1.251 . S
O186 Zn177 2.039 . S
C187 O192 1.246 . S
C187 O193 1.249 . S
O188 C170 1.254 . S
O188 Zn185 2.025 . S
H189 C181 0.952 . S
H190 C172 0.952 . S
H191 C180 0.948 . S
O192 Zn177 2.034 . S
O192 C187 1.246 . S
O193 Zn185 2.024 . S
O193 C187 1.249 . S
H194 C176 0.948 . S
O195 Zn185 2.039 . S
O195 C199 1.251 . S
O196 Zn177 2.025 . S
O196 C199 1.254 . S
O197 C178 1.246 . S
O197 Zn185 2.034 1_556 S
O198 Zn177 2.024 1_556 S
O198 C178 1.249 . S
C199 O195 1.251 . S
C199 O196 1.254 . S
H200 C173 0.949 . S
H201 C175 0.950 . S
H202 C182 0.949 . S
H203 C184 0.950 . S
C204 O220 1.251 . S
C204 O222 1.254 . S
N205 C206 1.333 . S
N205 C210 1.307 . S
N205 Zn211 2.020 . S
C206 N205 1.333 . S
C206 C207 1.379 . S
C206 H224 0.952 . S
C207 C206 1.379 . S
C207 C208 1.390 . S
C207 H234 0.949 . S
C208 C207 1.390 . S
C208 C209 1.357 . S
C209 C208 1.357 . S
C209 C210 1.370 . S
C209 H235 0.950 . S
C210 N205 1.307 . S
C210 C209 1.370 . S
C210 H228 0.948 . S
Zn211 N205 2.020 . S
Zn211 O220 2.039 . S
Zn211 O226 2.034 . S
Zn211 O230 2.025 . S
Zn211 O232 2.024 1_556 S
C212 O231 1.246 . S
C212 O232 1.249 . S
N213 C214 1.307 . S
N213 C215 1.333 . S
N213 Zn219 2.020 . S
C214 N213 1.307 . S
C214 C218 1.370 . S
C214 H225 0.948 . S
C215 N213 1.333 . S
C215 C216 1.379 . S
C215 H223 0.952 . S
C216 C215 1.379 . S
C216 C217 1.390 . S
C216 H236 0.949 . S
C217 C216 1.390 . S
C217 C218 1.357 . S
C218 C214 1.370 . S
C218 C217 1.357 . S
C218 H237 0.950 . S
Zn219 N213 2.020 . S
Zn219 O222 2.025 . S
Zn219 O227 2.024 . S
Zn219 O229 2.039 . S
Zn219 O231 2.034 1_556 S
O220 C204 1.251 . S
O220 Zn211 2.039 . S
C221 O226 1.246 . S
C221 O227 1.249 . S
O222 C204 1.254 . S
O222 Zn219 2.025 . S
H223 C215 0.952 . S
H224 C206 0.952 . S
H225 C214 0.948 . S
O226 Zn211 2.034 . S
O226 C221 1.246 . S
O227 Zn219 2.024 . S
O227 C221 1.249 . S
H228 C210 0.948 . S
O229 Zn219 2.039 . S
O229 C233 1.251 . S
O230 Zn211 2.025 . S
O230 C233 1.254 . S
O231 C212 1.246 . S
O231 Zn219 2.034 1_554 S
O232 Zn211 2.024 1_554 S
O232 C212 1.249 . S
C233 O229 1.251 . S
C233 O230 1.254 . S
H234 C207 0.949 . S
H235 C209 0.950 . S
H236 C216 0.949 . S
H237 C218 0.950 . S
C238 O254 1.251 . S
C238 O256 1.254 . S
N239 C240 1.333 . S
N239 C244 1.307 . S
N239 Zn245 2.020 . S
C240 N239 1.333 . S
C240 C241 1.379 . S
C240 H258 0.952 . S
C241 C240 1.379 . S
C241 C242 1.390 . S
C241 H268 0.949 . S
C242 C241 1.390 . S
C242 C243 1.357 . S
C243 C242 1.357 . S
C243 C244 1.370 . S
C243 H269 0.950 . S
C244 N239 1.307 . S
C244 C243 1.370 . S
C244 H262 0.948 . S
Zn245 N239 2.020 . S
Zn245 O254 2.039 . S
Zn245 O260 2.034 . S
Zn245 O264 2.025 . S
Zn245 O266 2.024 1_556 S
C246 O265 1.246 . S
C246 O266 1.249 . S
N247 C248 1.307 . S
N247 C249 1.333 . S
N247 Zn253 2.020 . S
C248 N247 1.307 . S
C248 C252 1.370 . S
C248 H259 0.948 . S
C249 N247 1.333 . S
C249 C250 1.379 . S
C249 H257 0.952 . S
C250 C249 1.379 . S
C250 C251 1.390 . S
C250 H270 0.949 . S
C251 C250 1.390 . S
C251 C252 1.357 . S
C252 C248 1.370 . S
C252 C251 1.357 . S
C252 H271 0.950 . S
Zn253 N247 2.020 . S
Zn253 O256 2.025 . S
Zn253 O261 2.024 . S
Zn253 O263 2.039 . S
Zn253 O265 2.034 1_556 S
O254 C238 1.251 . S
O254 Zn245 2.039 . S
C255 O260 1.246 . S
C255 O261 1.249 . S
O256 C238 1.254 . S
O256 Zn253 2.025 . S
H257 C249 0.952 . S
H258 C240 0.952 . S
H259 C248 0.948 . S
O260 Zn245 2.034 . S
O260 C255 1.246 . S
O261 Zn253 2.024 . S
O261 C255 1.249 . S
H262 C244 0.948 . S
O263 Zn253 2.039 . S
O263 C267 1.251 . S
O264 Zn245 2.025 . S
O264 C267 1.254 . S
O265 C246 1.246 . S
O265 Zn253 2.034 1_554 S
O266 Zn245 2.024 1_554 S
O266 C246 1.249 . S
C267 O263 1.251 . S
C267 O264 1.254 . S
H268 C241 0.949 . S
H269 C243 0.950 . S
H270 C250 0.949 . S
H271 C252 0.950 . S
H272 C290 0.951 . S
H273 C292 0.951 . S
H274 C294 0.950 . S
H275 C295 0.950 . S
H276 C297 0.950 . S
H277 C300 0.950 . S
H278 C301 0.950 . S
H279 C303 0.950 . S
H280 C304 0.950 . S
H281 C305 0.951 . S
H282 C307 0.951 . S
H283 C309 0.950 . S
H284 C310 0.950 . S
H285 C312 0.950 . S
H286 C315 0.950 . S
H287 C316 0.950 . S
H288 C318 0.950 . S
H289 C319 0.950 . S
C290 H272 0.951 . S
C290 C291 1.366 . S
C290 C292 1.388 . S
C291 C290 1.366 . S
C291 C295 1.385 . S
C292 H273 0.951 . S
C292 C290 1.388 . S
C292 C293 1.366 . S
C293 C292 1.366 . S
C293 C294 1.414 . S
C293 C296 1.499 . S
C294 H274 0.950 . S
C294 C293 1.414 . S
C294 C295 1.374 . S
C295 H275 0.950 . S
C295 C291 1.385 . S
C295 C294 1.374 . S
C296 C293 1.499 . S
C296 C297 1.373 . S
C296 C298 1.389 . S
C297 H276 0.950 . S
C297 C296 1.373 . S
C297 C313 1.377 . S
C298 C296 1.389 . S
C298 C299 1.524 . S
C298 C312 1.377 . S
C299 C298 1.524 . S
C299 C300 1.397 . S
C299 C304 1.363 . S
C300 H277 0.950 . S
C300 C299 1.397 . S
C300 C301 1.334 . S
C301 H278 0.950 . S
C301 C300 1.334 . S
C301 C302 1.287 . S
C302 C301 1.287 . S
C302 C303 1.524 . S
C302 H321 0.913 . S
C303 H279 0.950 . S
C303 C302 1.524 . S
C303 C304 1.415 . S
C304 H280 0.950 . S
C304 C299 1.363 . S
C304 C303 1.415 . S
C305 H281 0.951 . S
C305 C306 1.366 . S
C305 C307 1.388 . S
C306 C305 1.366 . S
C306 C310 1.385 . S
C307 H282 0.951 . S
C307 C305 1.388 . S
C307 C308 1.366 . S
C308 C307 1.366 . S
C308 C309 1.414 . S
C308 C311 1.499 . S
C309 H283 0.950 . S
C309 C308 1.414 . S
C309 C310 1.374 . S
C310 H284 0.950 . S
C310 C306 1.385 . S
C310 C309 1.374 . S
C311 C308 1.499 . S
C311 C312 1.373 . S
C311 C313 1.389 . S
C312 H285 0.950 . S
C312 C298 1.377 . S
C312 C311 1.373 . S
C313 C297 1.377 . S
C313 C311 1.389 . S
C313 C314 1.524 . S
C314 C313 1.524 . S
C314 C315 1.397 . S
C314 C319 1.363 . S
C315 H286 0.950 . S
C315 C314 1.397 . S
C315 C316 1.334 . S
C316 H287 0.950 . S
C316 C315 1.334 . S
C316 C317 1.287 . S
C317 C316 1.287 . S
C317 C318 1.524 . S
C317 H320 0.999 . S
C318 H288 0.950 . S
C318 C317 1.524 . S
C318 C319 1.415 . S
C319 H289 0.950 . S
C319 C314 1.363 . S
C319 C318 1.415 . S
H320 C317 0.999 . S
H321 C302 0.913 . S
H322 C340 0.951 . S
H323 C342 0.951 . S
H324 C344 0.950 . S
H325 C345 0.950 . S
H326 C347 0.950 . S
H327 C350 0.950 . S
H328 C351 0.950 . S
H329 C353 0.950 . S
H330 C354 0.950 . S
H331 C355 0.951 . S
H332 C357 0.951 . S
H333 C359 0.950 . S
H334 C360 0.950 . S
H335 C362 0.950 . S
H336 C365 0.950 . S
H337 C366 0.950 . S
H338 C368 0.950 . S
H339 C369 0.950 . S
C340 H322 0.951 . S
C340 C341 1.366 . S
C340 C342 1.388 . S
C341 C340 1.366 . S
C341 C345 1.385 . S
C342 H323 0.951 . S
C342 C340 1.388 . S
C342 C343 1.366 . S
C343 C342 1.366 . S
C343 C344 1.414 . S
C343 C346 1.499 . S
C344 H324 0.950 . S
C344 C343 1.414 . S
C344 C345 1.374 . S
C345 H325 0.950 . S
C345 C341 1.385 . S
C345 C344 1.374 . S
C346 C343 1.499 . S
C346 C347 1.373 . S
C346 C348 1.389 . S
C347 H326 0.950 . S
C347 C346 1.373 . S
C347 C363 1.377 . S
C348 C346 1.389 . S
C348 C349 1.524 . S
C348 C362 1.377 . S
C349 C348 1.524 . S
C349 C350 1.397 . S
C349 C354 1.363 . S
C350 H327 0.950 . S
C350 C349 1.397 . S
C350 C351 1.334 . S
C351 H328 0.950 . S
C351 C350 1.334 . S
C351 C352 1.287 . S
C352 C351 1.287 . S
C352 C353 1.524 . S
C352 H371 0.913 . S
C353 H329 0.950 . S
C353 C352 1.524 . S
C353 C354 1.415 . S
C354 H330 0.950 . S
C354 C349 1.363 . S
C354 C353 1.415 . S
C355 H331 0.951 . S
C355 C356 1.366 . S
C355 C357 1.388 . S
C356 C355 1.366 . S
C356 C360 1.385 . S
C357 H332 0.951 . S
C357 C355 1.388 . S
C357 C358 1.366 . S
C358 C357 1.366 . S
C358 C359 1.414 . S
C358 C361 1.499 . S
C359 H333 0.950 . S
C359 C358 1.414 . S
C359 C360 1.374 . S
C360 H334 0.950 . S
C360 C356 1.385 . S
C360 C359 1.374 . S
C361 C358 1.499 . S
C361 C362 1.373 . S
C361 C363 1.389 . S
C362 H335 0.950 . S
C362 C348 1.377 . S
C362 C361 1.373 . S
C363 C347 1.377 . S
C363 C361 1.389 . S
C363 C364 1.524 . S
C364 C363 1.524 . S
C364 C365 1.397 . S
C364 C369 1.363 . S
C365 H336 0.950 . S
C365 C364 1.397 . S
C365 C366 1.334 . S
C366 H337 0.950 . S
C366 C365 1.334 . S
C366 C367 1.287 . S
C367 C366 1.287 . S
C367 C368 1.524 . S
C367 H370 0.999 . S
C368 H338 0.950 . S
C368 C367 1.524 . S
C368 C369 1.415 . S
C369 H339 0.950 . S
C369 C364 1.363 . S
C369 C368 1.415 . S
H370 C367 0.999 . S
H371 C352 0.913 . S
H372 C390 0.951 . S
H373 C392 0.951 . S
H374 C394 0.950 . S
H375 C395 0.950 . S
H376 C397 0.950 . S
H377 C400 0.950 . S
H378 C401 0.950 . S
H379 C403 0.950 . S
H380 C404 0.950 . S
H381 C405 0.951 . S
H382 C407 0.951 . S
H383 C409 0.950 . S
H384 C410 0.950 . S
H385 C412 0.950 . S
H386 C415 0.950 . S
H387 C416 0.950 . S
H388 C418 0.950 . S
H389 C419 0.950 . S
C390 H372 0.951 . S
C390 C391 1.366 . S
C390 C392 1.388 . S
C391 C390 1.366 . S
C391 C395 1.385 . S
C392 H373 0.951 . S
C392 C390 1.388 . S
C392 C393 1.366 . S
C393 C392 1.366 . S
C393 C394 1.414 . S
C393 C396 1.499 . S
C394 H374 0.950 . S
C394 C393 1.414 . S
C394 C395 1.374 . S
C395 H375 0.950 . S
C395 C391 1.385 . S
C395 C394 1.374 . S
C396 C393 1.499 . S
C396 C397 1.373 . S
C396 C398 1.389 . S
C397 H376 0.950 . S
C397 C396 1.373 . S
C397 C413 1.377 . S
C398 C396 1.389 . S
C398 C399 1.524 . S
C398 C412 1.377 . S
C399 C398 1.524 . S
C399 C400 1.397 . S
C399 C404 1.363 . S
C400 H377 0.950 . S
C400 C399 1.397 . S
C400 C401 1.334 . S
C401 H378 0.950 . S
C401 C400 1.334 . S
C401 C402 1.287 . S
C402 C401 1.287 . S
C402 C403 1.524 . S
C402 H421 0.913 . S
C403 H379 0.950 . S
C403 C402 1.524 . S
C403 C404 1.415 . S
C404 H380 0.950 . S
C404 C399 1.363 . S
C404 C403 1.415 . S
C405 H381 0.951 . S
C405 C406 1.366 . S
C405 C407 1.388 . S
C406 C405 1.366 . S
C406 C410 1.385 . S
C407 H382 0.951 . S
C407 C405 1.388 . S
C407 C408 1.366 . S
C408 C407 1.366 . S
C408 C409 1.414 . S
C408 C411 1.499 . S
C409 H383 0.950 . S
C409 C408 1.414 . S
C409 C410 1.374 . S
C410 H384 0.950 . S
C410 C406 1.385 . S
C410 C409 1.374 . S
C411 C408 1.499 . S
C411 C412 1.373 . S
C411 C413 1.389 . S
C412 H385 0.950 . S
C412 C398 1.377 . S
C412 C411 1.373 . S
C413 C397 1.377 . S
C413 C411 1.389 . S
C413 C414 1.524 . S
C414 C413 1.524 . S
C414 C415 1.397 . S
C414 C419 1.363 . S
C415 H386 0.950 . S
C415 C414 1.397 . S
C415 C416 1.334 . S
C416 H387 0.950 . S
C416 C415 1.334 . S
C416 C417 1.287 . S
C417 C416 1.287 . S
C417 C418 1.524 . S
C417 H420 0.999 . S
C418 H388 0.950 . S
C418 C417 1.524 . S
C418 C419 1.415 . S
C419 H389 0.950 . S
C419 C414 1.363 . S
C419 C418 1.415 . S
H420 C417 0.999 . S
H421 C402 0.913 . S
H422 C440 0.951 . S
H423 C442 0.951 . S
H424 C444 0.950 . S
H425 C445 0.950 . S
H426 C447 0.950 . S
H427 C450 0.950 . S
H428 C451 0.950 . S
H429 C453 0.950 . S
H430 C454 0.950 . S
H431 C455 0.951 . S
H432 C457 0.951 . S
H433 C459 0.950 . S
H434 C460 0.950 . S
H435 C462 0.950 . S
H436 C465 0.950 . S
H437 C466 0.950 . S
H438 C468 0.950 . S
H439 C469 0.950 . S
C440 H422 0.951 . S
C440 C441 1.366 . S
C440 C442 1.388 . S
C441 C440 1.366 . S
C441 C445 1.385 . S
C442 H423 0.951 . S
C442 C440 1.388 . S
C442 C443 1.366 . S
C443 C442 1.366 . S
C443 C444 1.414 . S
C443 C446 1.499 . S
C444 H424 0.950 . S
C444 C443 1.414 . S
C444 C445 1.374 . S
C445 H425 0.950 . S
C445 C441 1.385 . S
C445 C444 1.374 . S
C446 C443 1.499 . S
C446 C447 1.373 . S
C446 C448 1.389 . S
C447 H426 0.950 . S
C447 C446 1.373 . S
C447 C463 1.377 . S
C448 C446 1.389 . S
C448 C449 1.524 . S
C448 C462 1.377 . S
C449 C448 1.524 . S
C449 C450 1.397 . S
C449 C454 1.363 . S
C450 H427 0.950 . S
C450 C449 1.397 . S
C450 C451 1.334 . S
C451 H428 0.950 . S
C451 C450 1.334 . S
C451 C452 1.287 . S
C452 C451 1.287 . S
C452 C453 1.524 . S
C452 H471 0.913 . S
C453 H429 0.950 . S
C453 C452 1.524 . S
C453 C454 1.415 . S
C454 H430 0.950 . S
C454 C449 1.363 . S
C454 C453 1.415 . S
C455 H431 0.951 . S
C455 C456 1.366 . S
C455 C457 1.388 . S
C456 C455 1.366 . S
C456 C460 1.385 . S
C457 H432 0.951 . S
C457 C455 1.388 . S
C457 C458 1.366 . S
C458 C457 1.366 . S
C458 C459 1.414 . S
C458 C461 1.499 . S
C459 H433 0.950 . S
C459 C458 1.414 . S
C459 C460 1.374 . S
C460 H434 0.950 . S
C460 C456 1.385 . S
C460 C459 1.374 . S
C461 C458 1.499 . S
C461 C462 1.373 . S
C461 C463 1.389 . S
C462 H435 0.950 . S
C462 C448 1.377 . S
C462 C461 1.373 . S
C463 C447 1.377 . S
C463 C461 1.389 . S
C463 C464 1.524 . S
C464 C463 1.524 . S
C464 C465 1.397 . S
C464 C469 1.363 . S
C465 H436 0.950 . S
C465 C464 1.397 . S
C465 C466 1.334 . S
C466 H437 0.950 . S
C466 C465 1.334 . S
C466 C467 1.287 . S
C467 C466 1.287 . S
C467 C468 1.524 . S
C467 H470 0.999 . S
C468 H438 0.950 . S
C468 C467 1.524 . S
C468 C469 1.415 . S
C469 H439 0.950 . S
C469 C464 1.363 . S
C469 C468 1.415 . S
H470 C467 0.999 . S
H471 C452 0.913 . S
H472 C490 0.951 . S
H473 C492 0.951 . S
H474 C494 0.950 . S
H475 C495 0.950 . S
H476 C497 0.950 . S
H477 C500 0.950 . S
H478 C501 0.950 . S
H479 C503 0.950 . S
H480 C504 0.950 . S
H481 C505 0.951 . S
H482 C507 0.951 . S
H483 C509 0.950 . S
H484 C510 0.950 . S
H485 C512 0.950 . S
H486 C515 0.950 . S
H487 C516 0.950 . S
H488 C518 0.950 . S
H489 C519 0.950 . S
C490 H472 0.951 . S
C490 C491 1.366 . S
C490 C492 1.388 . S
C491 C490 1.366 . S
C491 C495 1.385 . S
C492 H473 0.951 . S
C492 C490 1.388 . S
C492 C493 1.366 . S
C493 C492 1.366 . S
C493 C494 1.414 . S
C493 C496 1.499 . S
C494 H474 0.950 . S
C494 C493 1.414 . S
C494 C495 1.374 . S
C495 H475 0.950 . S
C495 C491 1.385 . S
C495 C494 1.374 . S
C496 C493 1.499 . S
C496 C497 1.373 . S
C496 C498 1.389 . S
C497 H476 0.950 . S
C497 C496 1.373 . S
C497 C513 1.377 1_565 S
C498 C496 1.389 . S
C498 C499 1.524 . S
C498 C512 1.377 1_565 S
C499 C498 1.524 . S
C499 C500 1.397 . S
C499 C504 1.363 . S
C500 H477 0.950 . S
C500 C499 1.397 . S
C500 C501 1.334 . S
C501 H478 0.950 . S
C501 C500 1.334 . S
C501 C502 1.287 . S
C502 C501 1.287 . S
C502 C503 1.524 . S
C502 H521 0.913 . S
C503 H479 0.950 . S
C503 C502 1.524 . S
C503 C504 1.415 . S
C504 H480 0.950 . S
C504 C499 1.363 . S
C504 C503 1.415 . S
C505 H481 0.951 . S
C505 C506 1.366 . S
C505 C507 1.388 . S
C506 C505 1.366 . S
C506 C510 1.385 . S
C507 H482 0.951 . S
C507 C505 1.388 . S
C507 C508 1.366 . S
C508 C507 1.366 . S
C508 C509 1.414 . S
C508 C511 1.499 . S
C509 H483 0.950 . S
C509 C508 1.414 . S
C509 C510 1.374 . S
C510 H484 0.950 . S
C510 C506 1.385 . S
C510 C509 1.374 . S
C511 C508 1.499 . S
C511 C512 1.373 . S
C511 C513 1.389 . S
C512 H485 0.950 . S
C512 C498 1.377 1_545 S
C512 C511 1.373 . S
C513 C497 1.377 1_545 S
C513 C511 1.389 . S
C513 C514 1.524 . S
C514 C513 1.524 . S
C514 C515 1.397 . S
C514 C519 1.363 . S
C515 H486 0.950 . S
C515 C514 1.397 . S
C515 C516 1.334 . S
C516 H487 0.950 . S
C516 C515 1.334 . S
C516 C517 1.287 . S
C517 C516 1.287 . S
C517 C518 1.524 . S
C517 H520 0.999 . S
C518 H488 0.950 . S
C518 C517 1.524 . S
C518 C519 1.415 . S
C519 H489 0.950 . S
C519 C514 1.363 . S
C519 C518 1.415 . S
H520 C517 0.999 . S
H521 C502 0.913 . S
H522 C540 0.951 . S
H523 C542 0.951 . S
H524 C544 0.950 . S
H525 C545 0.950 . S
H526 C547 0.950 . S
H527 C550 0.950 . S
H528 C551 0.950 . S
H529 C553 0.950 . S
H530 C554 0.950 . S
H531 C555 0.951 . S
H532 C557 0.951 . S
H533 C559 0.950 . S
H534 C560 0.950 . S
H535 C562 0.950 . S
H536 C565 0.950 . S
H537 C566 0.950 . S
H538 C568 0.950 . S
H539 C569 0.950 . S
C540 H522 0.951 . S
C540 C541 1.366 . S
C540 C542 1.388 . S
C541 C540 1.366 . S
C541 C545 1.385 . S
C542 H523 0.951 . S
C542 C540 1.388 . S
C542 C543 1.366 . S
C543 C542 1.366 . S
C543 C544 1.414 . S
C543 C546 1.499 . S
C544 H524 0.950 . S
C544 C543 1.414 . S
C544 C545 1.374 . S
C545 H525 0.950 . S
C545 C541 1.385 . S
C545 C544 1.374 . S
C546 C543 1.499 . S
C546 C547 1.373 . S
C546 C548 1.389 . S
C547 H526 0.950 . S
C547 C546 1.373 . S
C547 C563 1.377 . S
C548 C546 1.389 . S
C548 C549 1.524 . S
C548 C562 1.377 . S
C549 C548 1.524 . S
C549 C550 1.397 . S
C549 C554 1.363 . S
C550 H527 0.950 . S
C550 C549 1.397 . S
C550 C551 1.334 . S
C551 H528 0.950 . S
C551 C550 1.334 . S
C551 C552 1.287 . S
C552 C551 1.287 . S
C552 C553 1.524 . S
C552 H571 0.913 . S
C553 H529 0.950 . S
C553 C552 1.524 . S
C553 C554 1.415 . S
C554 H530 0.950 . S
C554 C549 1.363 . S
C554 C553 1.415 . S
C555 H531 0.951 . S
C555 C556 1.366 . S
C555 C557 1.388 . S
C556 C555 1.366 . S
C556 C560 1.385 . S
C557 H532 0.951 . S
C557 C555 1.388 . S
C557 C558 1.366 . S
C558 C557 1.366 . S
C558 C559 1.414 . S
C558 C561 1.499 . S
C559 H533 0.950 . S
C559 C558 1.414 . S
C559 C560 1.374 . S
C560 H534 0.950 . S
C560 C556 1.385 . S
C560 C559 1.374 . S
C561 C558 1.499 . S
C561 C562 1.373 . S
C561 C563 1.389 . S
C562 H535 0.950 . S
C562 C548 1.377 . S
C562 C561 1.373 . S
C563 C547 1.377 . S
C563 C561 1.389 . S
C563 C564 1.524 . S
C564 C563 1.524 . S
C564 C565 1.397 . S
C564 C569 1.363 . S
C565 H536 0.950 . S
C565 C564 1.397 . S
C565 C566 1.334 . S
C566 H537 0.950 . S
C566 C565 1.334 . S
C566 C567 1.287 . S
C567 C566 1.287 . S
C567 C568 1.524 . S
C567 H570 0.999 . S
C568 H538 0.950 . S
C568 C567 1.524 . S
C568 C569 1.415 . S
C569 H539 0.950 . S
C569 C564 1.363 . S
C569 C568 1.415 . S
H570 C567 0.999 . S
H571 C552 0.913 . S
H572 C590 0.951 . S
H573 C592 0.951 . S
H574 C594 0.950 . S
H575 C595 0.950 . S
H576 C597 0.950 . S
H577 C600 0.950 . S
H578 C601 0.950 . S
H579 C603 0.950 . S
H580 C604 0.976 . S
H581 C605 0.951 . S
H582 C607 0.951 . S
H583 C609 0.950 . S
H584 C610 0.950 . S
H585 C612 0.950 . S
H586 C615 0.950 . S
H587 C616 0.950 . S
H588 C618 0.950 . S
H589 C619 0.955 . S
C590 H572 0.951 . S
C590 C591 1.366 . S
C590 C592 1.388 . S
C591 C590 1.366 . S
C591 C595 1.385 . S
C592 H573 0.951 . S
C592 C590 1.388 . S
C592 C593 1.366 . S
C593 C592 1.366 . S
C593 C594 1.414 . S
C593 C596 1.499 . S
C594 H574 0.950 . S
C594 C593 1.414 . S
C594 C595 1.374 . S
C595 H575 0.950 . S
C595 C591 1.385 . S
C595 C594 1.374 . S
C596 C593 1.499 . S
C596 C597 1.373 . S
C596 C598 1.389 . S
C597 H576 0.950 . S
C597 C596 1.373 . S
C597 C613 1.377 1_565 S
C598 C596 1.389 . S
C598 C599 1.524 . S
C598 C612 1.377 1_565 S
C599 C598 1.524 . S
C599 C600 1.397 . S
C599 C604 1.363 . S
C600 H577 0.950 . S
C600 C599 1.397 . S
C600 C601 1.334 . S
C601 H578 0.950 . S
C601 C600 1.334 . S
C601 C602 1.287 . S
C602 C601 1.287 . S
C602 C603 1.524 . S
C602 H621 0.913 . S
C603 H579 0.950 . S
C603 C602 1.524 . S
C603 C604 1.415 . S
C604 H580 0.976 . S
C604 C599 1.363 . S
C604 C603 1.415 . S
C605 H581 0.951 . S
C605 C606 1.366 . S
C605 C607 1.388 . S
C606 C605 1.366 . S
C606 C610 1.385 . S
C607 H582 0.951 . S
C607 C605 1.388 . S
C607 C608 1.366 . S
C608 C607 1.366 . S
C608 C609 1.414 . S
C608 C611 1.499 . S
C609 H583 0.950 . S
C609 C608 1.414 . S
C609 C610 1.374 . S
C610 H584 0.950 . S
C610 C606 1.385 . S
C610 C609 1.374 . S
C611 C608 1.499 . S
C611 C612 1.373 . S
C611 C613 1.389 . S
C612 H585 0.950 . S
C612 C598 1.377 1_545 S
C612 C611 1.373 . S
C613 C597 1.377 1_545 S
C613 C611 1.389 . S
C613 C614 1.524 . S
C614 C613 1.524 . S
C614 C615 1.397 . S
C614 C619 1.363 . S
C615 H586 0.950 . S
C615 C614 1.397 . S
C615 C616 1.334 . S
C616 H587 0.950 . S
C616 C615 1.334 . S
C616 C617 1.287 . S
C617 C616 1.287 . S
C617 C618 1.524 . S
C617 H620 0.999 . S
C618 H588 0.950 . S
C618 C617 1.524 . S
C618 C619 1.415 . S
C619 H589 0.955 . S
C619 C614 1.363 . S
C619 C618 1.415 . S
H620 C617 0.999 . S
H621 C602 0.913 . S
H622 C640 0.951 . S
H623 C642 0.951 . S
H624 C644 0.950 . S
H625 C645 0.950 . S
H626 C647 0.950 . S
H627 C650 0.950 . S
H628 C651 0.950 . S
H629 C653 0.950 . S
H630 C654 0.950 . S
H631 C655 0.951 . S
H632 C657 0.951 . S
H633 C659 0.950 . S
H634 C660 0.950 . S
H635 C662 0.950 . S
H636 C665 0.950 . S
H637 C666 0.950 . S
H638 C668 0.950 . S
H639 C669 0.950 . S
C640 H622 0.951 . S
C640 C641 1.366 . S
C640 C642 1.388 . S
C641 C640 1.366 . S
C641 C645 1.385 . S
C642 H623 0.951 . S
C642 C640 1.388 . S
C642 C643 1.366 . S
C643 C642 1.366 . S
C643 C644 1.414 . S
C643 C646 1.499 . S
C644 H624 0.950 . S
C644 C643 1.414 . S
C644 C645 1.374 . S
C645 H625 0.950 . S
C645 C641 1.385 . S
C645 C644 1.374 . S
C646 C643 1.499 . S
C646 C647 1.373 . S
C646 C648 1.389 . S
C647 H626 0.950 . S
C647 C646 1.373 . S
C647 C663 1.377 . S
C648 C646 1.389 . S
C648 C649 1.524 . S
C648 C662 1.377 . S
C649 C648 1.524 . S
C649 C650 1.397 . S
C649 C654 1.363 . S
C650 H627 0.950 . S
C650 C649 1.397 . S
C650 C651 1.334 . S
C651 H628 0.950 . S
C651 C650 1.334 . S
C651 C652 1.287 . S
C652 C651 1.287 . S
C652 C653 1.524 . S
C652 H671 0.913 . S
C653 H629 0.950 . S
C653 C652 1.524 . S
C653 C654 1.415 . S
C654 H630 0.950 . S
C654 C649 1.363 . S
C654 C653 1.415 . S
C655 H631 0.951 . S
C655 C656 1.366 . S
C655 C657 1.388 . S
C656 C655 1.366 . S
C656 C660 1.385 . S
C657 H632 0.951 . S
C657 C655 1.388 . S
C657 C658 1.366 . S
C658 C657 1.366 . S
C658 C659 1.414 . S
C658 C661 1.499 . S
C659 H633 0.950 . S
C659 C658 1.414 . S
C659 C660 1.374 . S
C660 H634 0.950 . S
C660 C656 1.385 . S
C660 C659 1.374 . S
C661 C658 1.499 . S
C661 C662 1.373 . S
C661 C663 1.389 . S
C662 H635 0.950 . S
C662 C648 1.377 . S
C662 C661 1.373 . S
C663 C647 1.377 . S
C663 C661 1.389 . S
C663 C664 1.524 . S
C664 C663 1.524 . S
C664 C665 1.397 . S
C664 C669 1.363 . S
C665 H636 0.950 . S
C665 C664 1.397 . S
C665 C666 1.334 . S
C666 H637 0.950 . S
C666 C665 1.334 . S
C666 C667 1.287 . S
C667 C666 1.287 . S
C667 C668 1.524 . S
C667 H670 0.999 . S
C668 H638 0.950 . S
C668 C667 1.524 . S
C668 C669 1.415 . S
C669 H639 0.950 . S
C669 C664 1.363 . S
C669 C668 1.415 . S
H670 C667 0.999 . S
H671 C652 0.913 . S
H672 C690 0.951 . S
H673 C692 0.951 . S
H674 C694 0.950 1_556 S
H675 C695 0.950 . S
H676 C697 0.950 . S
H677 C700 0.950 . S
H678 C701 0.950 . S
H679 C703 0.950 . S
H680 C704 0.950 . S
H681 C705 0.951 . S
H682 C707 0.951 . S
H683 C709 0.950 . S
H684 C710 0.950 . S
H685 C712 0.950 . S
H686 C715 0.950 . S
H687 C716 0.950 . S
H688 C718 0.950 . S
H689 C719 0.950 . S
C690 H672 0.951 . S
C690 C691 1.366 . S
C690 C692 1.388 . S
C691 C690 1.366 . S
C691 C695 1.385 . S
C692 H673 0.951 . S
C692 C690 1.388 . S
C692 C693 1.366 . S
C693 C692 1.366 . S
C693 C694 1.414 . S
C693 C696 1.499 . S
C694 H674 0.950 1_554 S
C694 C693 1.414 . S
C694 C695 1.374 . S
C695 H675 0.950 . S
C695 C691 1.385 . S
C695 C694 1.374 . S
C696 C693 1.499 . S
C696 C697 1.373 . S
C696 C698 1.389 1_554 S
C697 H676 0.950 . S
C697 C696 1.373 . S
C697 C713 1.377 . S
C698 C696 1.389 1_556 S
C698 C699 1.524 . S
C698 C712 1.377 . S
C699 C698 1.524 . S
C699 C700 1.397 . S
C699 C704 1.363 . S
C700 H677 0.950 . S
C700 C699 1.397 . S
C700 C701 1.334 . S
C701 H678 0.950 . S
C701 C700 1.334 . S
C701 C702 1.287 . S
C702 C701 1.287 . S
C702 C703 1.524 . S
C702 H721 0.913 . S
C703 H679 0.950 . S
C703 C702 1.524 . S
C703 C704 1.415 . S
C704 H680 0.950 . S
C704 C699 1.363 . S
C704 C703 1.415 . S
C705 H681 0.951 . S
C705 C706 1.366 . S
C705 C707 1.388 . S
C706 C705 1.366 . S
C706 C710 1.385 . S
C707 H682 0.951 . S
C707 C705 1.388 . S
C707 C708 1.366 . S
C708 C707 1.366 . S
C708 C709 1.414 . S
C708 C711 1.499 . S
C709 H683 0.950 . S
C709 C708 1.414 . S
C709 C710 1.374 . S
C710 H684 0.950 . S
C710 C706 1.385 . S
C710 C709 1.374 . S
C711 C708 1.499 . S
C711 C712 1.373 . S
C711 C713 1.389 1_556 S
C712 H685 0.950 . S
C712 C698 1.377 . S
C712 C711 1.373 . S
C713 C697 1.377 . S
C713 C711 1.389 1_554 S
C713 C714 1.524 . S
C714 C713 1.524 . S
C714 C715 1.397 . S
C714 C719 1.363 . S
C715 H686 0.950 . S
C715 C714 1.397 . S
C715 C716 1.334 . S
C716 H687 0.950 . S
C716 C715 1.334 . S
C716 C717 1.287 . S
C717 C716 1.287 . S
C717 C718 1.524 . S
C717 H720 0.999 . S
C718 H688 0.950 . S
C718 C717 1.524 . S
C718 C719 1.415 . S
C719 H689 0.950 . S
C719 C714 1.363 . S
C719 C718 1.415 . S
H720 C717 0.999 . S
H721 C702 0.913 . S
H722 C740 0.951 . S
H723 C742 0.951 . S
H724 C744 0.950 . S
H725 C745 0.950 1_556 S
H726 C747 0.950 . S
H727 C750 0.950 . S
H728 C751 0.950 . S
H729 C753 0.950 . S
H730 C754 0.950 . S
H731 C755 0.951 . S
H732 C757 0.951 . S
H733 C759 0.950 . S
H734 C760 0.950 1_554 S
H735 C762 0.950 . S
H736 C765 0.950 . S
H737 C766 0.950 . S
H738 C768 0.950 . S
H739 C769 0.950 . S
C740 H722 0.951 . S
C740 C741 1.366 . S
C740 C742 1.388 . S
C741 C740 1.366 . S
C741 C745 1.385 . S
C742 H723 0.951 . S
C742 C740 1.388 . S
C742 C743 1.366 . S
C743 C742 1.366 . S
C743 C744 1.414 1_554 S
C743 C746 1.499 . S
C744 H724 0.950 . S
C744 C743 1.414 1_556 S
C744 C745 1.374 1_556 S
C745 H725 0.950 1_554 S
C745 C741 1.385 . S
C745 C744 1.374 1_554 S
C746 C743 1.499 . S
C746 C747 1.373 . S
C746 C748 1.389 1_554 S
C747 H726 0.950 . S
C747 C746 1.373 . S
C747 C763 1.377 1_565 S
C748 C746 1.389 1_556 S
C748 C749 1.524 . S
C748 C762 1.377 1_565 S
C749 C748 1.524 . S
C749 C750 1.397 . S
C749 C754 1.363 1_556 S
C750 H727 0.950 . S
C750 C749 1.397 . S
C750 C751 1.334 . S
C751 H728 0.950 . S
C751 C750 1.334 . S
C751 C752 1.287 . S
C752 C751 1.287 . S
C752 C753 1.524 1_556 S
C752 H771 0.913 . S
C753 H729 0.950 . S
C753 C752 1.524 1_554 S
C753 C754 1.415 . S
C754 H730 0.950 . S
C754 C749 1.363 1_554 S
C754 C753 1.415 . S
C755 H731 0.951 . S
C755 C756 1.366 . S
C755 C757 1.388 . S
C756 C755 1.366 . S
C756 C760 1.385 . S
C757 H732 0.951 . S
C757 C755 1.388 . S
C757 C758 1.366 . S
C758 C757 1.366 . S
C758 C759 1.414 1_556 S
C758 C761 1.499 . S
C759 H733 0.950 . S
C759 C758 1.414 1_554 S
C759 C760 1.374 1_554 S
C760 H734 0.950 1_556 S
C760 C756 1.385 . S
C760 C759 1.374 1_556 S
C761 C758 1.499 . S
C761 C762 1.373 . S
C761 C763 1.389 1_556 S
C762 H735 0.950 . S
C762 C748 1.377 1_545 S
C762 C761 1.373 . S
C763 C747 1.377 1_545 S
C763 C761 1.389 1_554 S
C763 C764 1.524 . S
C764 C763 1.524 . S
C764 C765 1.397 . S
C764 C769 1.363 1_554 S
C765 H736 0.950 . S
C765 C764 1.397 . S
C765 C766 1.334 . S
C766 H737 0.950 . S
C766 C765 1.334 . S
C766 C767 1.287 . S
C767 C766 1.287 . S
C767 C768 1.524 1_554 S
C767 H770 0.999 . S
C768 H738 0.950 . S
C768 C767 1.524 1_556 S
C768 C769 1.415 . S
C769 H739 0.950 . S
C769 C764 1.363 1_556 S
C769 C768 1.415 . S
H770 C767 0.999 . S
H771 C752 0.913 . S
H772 C790 0.951 . S
H773 C792 0.951 . S
H774 C794 0.950 . S
H775 C795 0.950 . S
H776 C797 0.950 . S
H777 C800 0.950 . S
H778 C801 0.950 . S
H779 C803 0.950 . S
H780 C804 0.950 . S
H781 C805 0.951 . S
H782 C807 0.951 . S
H783 C809 0.950 . S
H784 C810 0.950 . S
H785 C812 0.950 . S
H786 C815 0.950 . S
H787 C816 0.950 . S
H788 C818 0.950 . S
H789 C819 0.950 . S
C790 H772 0.951 . S
C790 C791 1.366 . S
C790 C792 1.388 . S
C791 C790 1.366 . S
C791 C795 1.385 1_556 S
C792 H773 0.951 . S
C792 C790 1.388 . S
C792 C793 1.366 . S
C793 C792 1.366 . S
C793 C794 1.414 1_556 S
C793 C796 1.499 . S
C794 H774 0.950 . S
C794 C793 1.414 1_554 S
C794 C795 1.374 . S
C795 H775 0.950 . S
C795 C791 1.385 1_554 S
C795 C794 1.374 . S
C796 C793 1.499 . S
C796 C797 1.373 1_556 S
C796 C798 1.389 . S
C797 H776 0.950 . S
C797 C796 1.373 1_554 S
C797 C813 1.377 . S
C798 C796 1.389 . S
C798 C799 1.524 . S
C798 C812 1.377 . S
C799 C798 1.524 . S
C799 C800 1.397 . S
C799 C804 1.363 . S
C800 H777 0.950 . S
C800 C799 1.397 . S
C800 C801 1.334 . S
C801 H778 0.950 . S
C801 C800 1.334 . S
C801 C802 1.287 . S
C802 C801 1.287 . S
C802 C803 1.524 . S
C802 H821 0.913 . S
C803 H779 0.950 . S
C803 C802 1.524 . S
C803 C804 1.415 . S
C804 H780 0.950 . S
C804 C799 1.363 . S
C804 C803 1.415 . S
C805 H781 0.951 . S
C805 C806 1.366 . S
C805 C807 1.388 . S
C806 C805 1.366 . S
C806 C810 1.385 1_554 S
C807 H782 0.951 . S
C807 C805 1.388 . S
C807 C808 1.366 . S
C808 C807 1.366 . S
C808 C809 1.414 1_554 S
C808 C811 1.499 . S
C809 H783 0.950 . S
C809 C808 1.414 1_556 S
C809 C810 1.374 . S
C810 H784 0.950 . S
C810 C806 1.385 1_556 S
C810 C809 1.374 . S
C811 C808 1.499 . S
C811 C812 1.373 1_554 S
C811 C813 1.389 . S
C812 H785 0.950 . S
C812 C798 1.377 . S
C812 C811 1.373 1_556 S
C813 C797 1.377 . S
C813 C811 1.389 . S
C813 C814 1.524 . S
C814 C813 1.524 . S
C814 C815 1.397 . S
C814 C819 1.363 . S
C815 H786 0.950 . S
C815 C814 1.397 . S
C815 C816 1.334 . S
C816 H787 0.950 . S
C816 C815 1.334 . S
C816 C817 1.287 . S
C817 C816 1.287 . S
C817 C818 1.524 . S
C817 H820 0.999 . S
C818 H788 0.950 . S
C818 C817 1.524 . S
C818 C819 1.415 . S
C819 H789 0.950 . S
C819 C814 1.363 . S
C819 C818 1.415 . S
H820 C817 0.999 . S
H821 C802 0.913 . S
H822 C840 0.951 . S
H823 C842 0.951 . S
H824 C844 0.950 . S
H825 C845 0.950 . S
H826 C847 0.950 . S
H827 C850 0.950 . S
H828 C851 0.950 . S
H829 C853 0.950 . S
H830 C854 0.950 . S
H831 C855 0.951 . S
H832 C857 0.951 . S
H833 C859 0.950 . S
H834 C860 0.950 . S
H835 C862 0.950 . S
H836 C865 0.950 . S
H837 C866 0.950 . S
H838 C868 0.950 . S
H839 C869 0.950 . S
C840 H822 0.951 . S
C840 C841 1.366 1_554 S
C840 C842 1.388 . S
C841 C840 1.366 1_556 S
C841 C845 1.385 . S
C842 H823 0.951 . S
C842 C840 1.388 . S
C842 C843 1.366 1_554 S
C843 C842 1.366 1_556 S
C843 C844 1.414 . S
C843 C846 1.499 . S
C844 H824 0.950 . S
C844 C843 1.414 . S
C844 C845 1.374 . S
C845 H825 0.950 . S
C845 C841 1.385 . S
C845 C844 1.374 . S
C846 C843 1.499 . S
C846 C847 1.373 . S
C846 C848 1.389 1_556 S
C847 H826 0.950 . S
C847 C846 1.373 . S
C847 C863 1.377 1_545 S
C848 C846 1.389 1_554 S
C848 C849 1.524 . S
C848 C862 1.377 1_545 S
C849 C848 1.524 . S
C849 C850 1.397 . S
C849 C854 1.363 . S
C850 H827 0.950 . S
C850 C849 1.397 . S
C850 C851 1.334 . S
C851 H828 0.950 . S
C851 C850 1.334 . S
C851 C852 1.287 . S
C852 C851 1.287 . S
C852 C853 1.524 . S
C852 H871 0.913 . S
C853 H829 0.950 . S
C853 C852 1.524 . S
C853 C854 1.415 . S
C854 H830 0.950 . S
C854 C849 1.363 . S
C854 C853 1.415 . S
C855 H831 0.951 . S
C855 C856 1.366 1_556 S
C855 C857 1.388 . S
C856 C855 1.366 1_554 S
C856 C860 1.385 . S
C857 H832 0.951 . S
C857 C855 1.388 . S
C857 C858 1.366 1_556 S
C858 C857 1.366 1_554 S
C858 C859 1.414 . S
C858 C861 1.499 . S
C859 H833 0.950 . S
C859 C858 1.414 . S
C859 C860 1.374 . S
C860 H834 0.950 . S
C860 C856 1.385 . S
C860 C859 1.374 . S
C861 C858 1.499 . S
C861 C862 1.373 . S
C861 C863 1.389 1_554 S
C862 H835 0.950 . S
C862 C848 1.377 1_565 S
C862 C861 1.373 . S
C863 C847 1.377 1_565 S
C863 C861 1.389 1_556 S
C863 C864 1.524 . S
C864 C863 1.524 . S
C864 C865 1.397 . S
C864 C869 1.363 . S
C865 H836 0.950 . S
C865 C864 1.397 . S
C865 C866 1.334 . S
C866 H837 0.950 . S
C866 C865 1.334 . S
C866 C867 1.287 . S
C867 C866 1.287 . S
C867 C868 1.524 . S
C867 H870 0.999 . S
C868 H838 0.950 . S
C868 C867 1.524 . S
C868 C869 1.415 . S
C869 H839 0.950 . S
C869 C864 1.363 . S
C869 C868 1.415 . S
H870 C867 0.999 . S
H871 C852 0.913 . S
H872 C890 0.951 . S
H873 C892 0.951 . S
H874 C894 0.950 . S
H875 C895 0.950 . S
H876 C897 0.950 . S
H877 C900 0.950 . S
H878 C901 0.950 . S
H879 C903 0.950 . S
H880 C904 0.950 . S
H881 C905 0.951 . S
H882 C907 0.951 . S
H883 C909 0.950 . S
H884 C910 0.950 . S
H885 C912 0.950 1_556 S
H886 C915 0.950 . S
H887 C916 0.950 . S
H888 C918 0.950 1_554 S
H889 C919 0.950 . S
C890 H872 0.951 . S
C890 C891 1.366 . S
C890 C892 1.388 . S
C891 C890 1.366 . S
C891 C895 1.385 . S
C892 H873 0.951 . S
C892 C890 1.388 . S
C892 C893 1.366 . S
C893 C892 1.366 . S
C893 C894 1.414 . S
C893 C896 1.499 . S
C894 H874 0.950 . S
C894 C893 1.414 . S
C894 C895 1.374 . S
C895 H875 0.950 . S
C895 C891 1.385 . S
C895 C894 1.374 . S
C896 C893 1.499 . S
C896 C897 1.373 . S
C896 C898 1.389 . S
C897 H876 0.950 . S
C897 C896 1.373 . S
C897 C913 1.377 . S
C898 C896 1.389 . S
C898 C899 1.524 . S
C898 C912 1.377 . S
C899 C898 1.524 . S
C899 C900 1.397 . S
C899 C904 1.363 . S
C900 H877 0.950 . S
C900 C899 1.397 . S
C900 C901 1.334 . S
C901 H878 0.950 . S
C901 C900 1.334 . S
C901 C902 1.287 . S
C902 C901 1.287 . S
C902 C903 1.524 . S
C902 H921 0.913 . S
C903 H879 0.950 . S
C903 C902 1.524 . S
C903 C904 1.415 . S
C904 H880 0.950 . S
C904 C899 1.363 . S
C904 C903 1.415 . S
C905 H881 0.951 . S
C905 C906 1.366 . S
C905 C907 1.388 . S
C906 C905 1.366 . S
C906 C910 1.385 . S
C907 H882 0.951 . S
C907 C905 1.388 . S
C907 C908 1.366 . S
C908 C907 1.366 . S
C908 C909 1.414 . S
C908 C911 1.499 . S
C909 H883 0.950 . S
C909 C908 1.414 . S
C909 C910 1.374 . S
C910 H884 0.950 . S
C910 C906 1.385 . S
C910 C909 1.374 . S
C911 C908 1.499 . S
C911 C912 1.373 1_556 S
C911 C913 1.389 1_556 S
C912 H885 0.950 1_554 S
C912 C898 1.377 . S
C912 C911 1.373 1_554 S
C913 C897 1.377 . S
C913 C911 1.389 1_554 S
C913 C914 1.524 1_554 S
C914 C913 1.524 1_556 S
C914 C915 1.397 . S
C914 C919 1.363 1_556 S
C915 H886 0.950 . S
C915 C914 1.397 . S
C915 C916 1.334 . S
C916 H887 0.950 . S
C916 C915 1.334 . S
C916 C917 1.287 . S
C917 C916 1.287 . S
C917 C918 1.524 . S
C917 H920 0.999 . S
C918 H888 0.950 1_556 S
C918 C917 1.524 . S
C918 C919 1.415 1_556 S
C919 H889 0.950 . S
C919 C914 1.363 1_554 S
C919 C918 1.415 1_554 S
H920 C917 0.999 . S
H921 C902 0.913 . S
H922 C940 0.951 . S
H923 C942 0.951 . S
H924 C944 0.950 . S
H925 C945 0.950 . S
H926 C947 0.950 . S
H927 C950 0.950 . S
H928 C951 0.950 . S
H929 C953 0.950 . S
H930 C954 0.950 . S
H931 C955 0.951 . S
H932 C957 0.951 . S
H933 C959 0.950 . S
H934 C960 0.950 . S
H935 C962 0.950 . S
H936 C965 0.950 . S
H937 C966 0.950 . S
H938 C968 0.950 . S
H939 C969 0.950 . S
C940 H922 0.951 . S
C940 C941 1.366 . S
C940 C942 1.388 . S
C941 C940 1.366 . S
C941 C945 1.385 . S
C942 H923 0.951 . S
C942 C940 1.388 . S
C942 C943 1.366 . S
C943 C942 1.366 . S
C943 C944 1.414 . S
C943 C946 1.499 . S
C944 H924 0.950 . S
C944 C943 1.414 . S
C944 C945 1.374 . S
C945 H925 0.950 . S
C945 C941 1.385 . S
C945 C944 1.374 . S
C946 C943 1.499 . S
C946 C947 1.373 . S
C946 C948 1.389 . S
C947 H926 0.950 . S
C947 C946 1.373 . S
C947 C963 1.377 . S
C948 C946 1.389 . S
C948 C949 1.524 . S
C948 C962 1.377 . S
C949 C948 1.524 . S
C949 C950 1.397 . S
C949 C954 1.363 . S
C950 H927 0.950 . S
C950 C949 1.397 . S
C950 C951 1.334 . S
C951 H928 0.950 . S
C951 C950 1.334 . S
C951 C952 1.287 . S
C952 C951 1.287 . S
C952 C953 1.524 . S
C952 H971 0.913 . S
C953 H929 0.950 . S
C953 C952 1.524 . S
C953 C954 1.415 . S
C954 H930 0.950 . S
C954 C949 1.363 . S
C954 C953 1.415 . S
C955 H931 0.951 . S
C955 C956 1.366 . S
C955 C957 1.388 . S
C956 C955 1.366 . S
C956 C960 1.385 . S
C957 H932 0.951 . S
C957 C955 1.388 . S
C957 C958 1.366 . S
C958 C957 1.366 . S
C958 C959 1.414 . S
C958 C961 1.499 . S
C959 H933 0.950 . S
C959 C958 1.414 . S
C959 C960 1.374 . S
C960 H934 0.950 . S
C960 C956 1.385 . S
C960 C959 1.374 . S
C961 C958 1.499 . S
C961 C962 1.373 1_556 S
C961 C963 1.389 1_556 S
C962 H935 0.950 . S
C962 C948 1.377 . S
C962 C961 1.373 1_554 S
C963 C947 1.377 . S
C963 C961 1.389 1_554 S
C963 C964 1.524 1_554 S
C964 C963 1.524 1_556 S
C964 C965 1.397 . S
C964 C969 1.363 1_556 S
C965 H936 0.950 . S
C965 C964 1.397 . S
C965 C966 1.334 . S
C966 H937 0.950 . S
C966 C965 1.334 . S
C966 C967 1.287 . S
C967 C966 1.287 . S
C967 C968 1.524 . S
C967 H970 0.999 . S
C968 H938 0.950 . S
C968 C967 1.524 . S
C968 C969 1.415 1_556 S
C969 H939 0.950 . S
C969 C964 1.363 1_554 S
C969 C968 1.415 1_554 S
H970 C967 0.999 . S
H971 C952 0.913 . S
H972 C990 0.951 . S
H973 C992 0.951 . S
H974 C994 0.950 . S
H975 C995 0.950 . S
H976 C997 0.950 . S
H977 C1000 0.950 . S
H978 C1001 0.950 . S
H979 C1003 0.950 . S
H980 C1004 0.950 . S
H981 C1005 0.951 . S
H982 C1007 0.951 . S
H983 C1009 0.950 . S
H984 C1010 0.950 . S
H985 C1012 0.950 . S
H986 C1015 0.950 . S
H987 C1016 0.950 . S
H988 C1018 0.950 . S
H989 C1019 0.950 . S
C990 H972 0.951 . S
C990 C991 1.366 . S
C990 C992 1.388 . S
C991 C990 1.366 . S
C991 C995 1.385 . S
C992 H973 0.951 . S
C992 C990 1.388 . S
C992 C993 1.366 . S
C993 C992 1.366 . S
C993 C994 1.414 . S
C993 C996 1.499 . S
C994 H974 0.950 . S
C994 C993 1.414 . S
C994 C995 1.374 . S
C995 H975 0.950 . S
C995 C991 1.385 . S
C995 C994 1.374 . S
C996 C993 1.499 . S
C996 C997 1.373 1_554 S
C996 C998 1.389 1_554 S
C997 H976 0.950 . S
C997 C996 1.373 1_556 S
C997 C1013 1.377 . S
C998 C996 1.389 1_556 S
C998 C999 1.524 1_556 S
C998 C1012 1.377 . S
C999 C998 1.524 1_554 S
C999 C1000 1.397 . S
C999 C1004 1.363 1_554 S
C1000 H977 0.950 . S
C1000 C999 1.397 . S
C1000 C1001 1.334 . S
C1001 H978 0.950 . S
C1001 C1000 1.334 . S
C1001 C1002 1.287 . S
C1002 C1001 1.287 . S
C1002 C1003 1.524 . S
C1002 H1021 0.913 . S
C1003 H979 0.950 . S
C1003 C1002 1.524 . S
C1003 C1004 1.415 1_554 S
C1004 H980 0.950 . S
C1004 C999 1.363 1_556 S
C1004 C1003 1.415 1_556 S
C1005 H981 0.951 . S
C1005 C1006 1.366 . S
C1005 C1007 1.388 . S
C1006 C1005 1.366 . S
C1006 C1010 1.385 . S
C1007 H982 0.951 . S
C1007 C1005 1.388 . S
C1007 C1008 1.366 . S
C1008 C1007 1.366 . S
C1008 C1009 1.414 . S
C1008 C1011 1.499 . S
C1009 H983 0.950 . S
C1009 C1008 1.414 . S
C1009 C1010 1.374 . S
C1010 H984 0.950 . S
C1010 C1006 1.385 . S
C1010 C1009 1.374 . S
C1011 C1008 1.499 . S
C1011 C1012 1.373 . S
C1011 C1013 1.389 . S
C1012 H985 0.950 . S
C1012 C998 1.377 . S
C1012 C1011 1.373 . S
C1013 C997 1.377 . S
C1013 C1011 1.389 . S
C1013 C1014 1.524 . S
C1014 C1013 1.524 . S
C1014 C1015 1.397 . S
C1014 C1019 1.363 . S
C1015 H986 0.950 . S
C1015 C1014 1.397 . S
C1015 C1016 1.334 . S
C1016 H987 0.950 . S
C1016 C1015 1.334 . S
C1016 C1017 1.287 . S
C1017 C1016 1.287 . S
C1017 C1018 1.524 . S
C1017 H1020 0.999 . S
C1018 H988 0.950 . S
C1018 C1017 1.524 . S
C1018 C1019 1.415 . S
C1019 H989 0.950 . S
C1019 C1014 1.363 . S
C1019 C1018 1.415 . S
H1020 C1017 0.999 . S
H1021 C1002 0.913 . S
H1022 C1040 0.951 . S
H1023 C1042 0.951 . S
H1024 C1044 0.950 . S
H1025 C1045 0.950 . S
H1026 C1047 0.950 . S
H1027 C1050 0.950 . S
H1028 C1051 0.950 . S
H1029 C1053 0.950 . S
H1030 C1054 0.950 . S
H1031 C1055 0.951 . S
H1032 C1057 0.951 . S
H1033 C1059 0.950 . S
H1034 C1060 0.950 . S
H1035 C1062 0.950 . S
H1036 C1065 0.950 . S
H1037 C1066 0.950 . S
H1038 C1068 0.950 . S
H1039 C1069 0.950 . S
C1040 H1022 0.951 . S
C1040 C1041 1.366 . S
C1040 C1042 1.388 . S
C1041 C1040 1.366 . S
C1041 C1045 1.385 . S
C1042 H1023 0.951 . S
C1042 C1040 1.388 . S
C1042 C1043 1.366 . S
C1043 C1042 1.366 . S
C1043 C1044 1.414 . S
C1043 C1046 1.499 . S
C1044 H1024 0.950 . S
C1044 C1043 1.414 . S
C1044 C1045 1.374 . S
C1045 H1025 0.950 . S
C1045 C1041 1.385 . S
C1045 C1044 1.374 . S
C1046 C1043 1.499 . S
C1046 C1047 1.373 . S
C1046 C1048 1.389 . S
C1047 H1026 0.950 . S
C1047 C1046 1.373 . S
C1047 C1063 1.377 . S
C1048 C1046 1.389 . S
C1048 C1049 1.524 . S
C1048 C1062 1.377 . S
C1049 C1048 1.524 . S
C1049 C1050 1.397 . S
C1049 C1054 1.363 . S
C1050 H1027 0.950 . S
C1050 C1049 1.397 . S
C1050 C1051 1.334 . S
C1051 H1028 0.950 . S
C1051 C1050 1.334 . S
C1051 C1052 1.287 . S
C1052 C1051 1.287 . S
C1052 C1053 1.524 . S
C1052 H1071 0.913 . S
C1053 H1029 0.950 . S
C1053 C1052 1.524 . S
C1053 C1054 1.415 . S
C1054 H1030 0.950 . S
C1054 C1049 1.363 . S
C1054 C1053 1.415 . S
C1055 H1031 0.951 . S
C1055 C1056 1.366 . S
C1055 C1057 1.388 . S
C1056 C1055 1.366 . S
C1056 C1060 1.385 . S
C1057 H1032 0.951 . S
C1057 C1055 1.388 . S
C1057 C1058 1.366 . S
C1058 C1057 1.366 . S
C1058 C1059 1.414 . S
C1058 C1061 1.499 . S
C1059 H1033 0.950 . S
C1059 C1058 1.414 . S
C1059 C1060 1.374 . S
C1060 H1034 0.950 . S
C1060 C1056 1.385 . S
C1060 C1059 1.374 . S
C1061 C1058 1.499 . S
C1061 C1062 1.373 1_554 S
C1061 C1063 1.389 1_554 S
C1062 H1035 0.950 . S
C1062 C1048 1.377 . S
C1062 C1061 1.373 1_556 S
C1063 C1047 1.377 . S
C1063 C1061 1.389 1_556 S
C1063 C1064 1.524 1_556 S
C1064 C1063 1.524 1_554 S
C1064 C1065 1.397 . S
C1064 C1069 1.363 1_554 S
C1065 H1036 0.950 . S
C1065 C1064 1.397 . S
C1065 C1066 1.334 . S
C1066 H1037 0.950 . S
C1066 C1065 1.334 . S
C1066 C1067 1.287 . S
C1067 C1066 1.287 . S
C1067 C1068 1.524 . S
C1067 H1070 0.999 . S
C1068 H1038 0.950 . S
C1068 C1067 1.524 . S
C1068 C1069 1.415 1_554 S
C1069 H1039 0.950 . S
C1069 C1064 1.363 1_556 S
C1069 C1068 1.415 1_556 S
H1070 C1067 0.999 . S
H1071 C1052 0.913 . S
H1072 C1090 0.951 . S
H1073 C1092 0.951 . S
H1074 C1094 0.950 . S
H1075 C1095 0.950 . S
H1076 C1097 0.950 . S
H1077 C1100 0.950 . S
H1078 C1101 0.950 . S
H1079 C1103 0.950 . S
H1080 C1104 0.950 . S
H1081 C1105 0.951 . S
H1082 C1107 0.951 . S
H1083 C1109 0.950 . S
H1084 C1110 0.950 . S
H1085 C1112 0.950 . S
H1086 C1115 0.950 . S
H1087 C1116 0.950 . S
H1088 C1118 0.950 . S
H1089 C1119 0.950 . S
C1090 H1072 0.951 . S
C1090 C1091 1.366 . S
C1090 C1092 1.388 . S
C1091 C1090 1.366 . S
C1091 C1095 1.385 . S
C1092 H1073 0.951 . S
C1092 C1090 1.388 . S
C1092 C1093 1.366 . S
C1093 C1092 1.366 . S
C1093 C1094 1.414 . S
C1093 C1096 1.499 . S
C1094 H1074 0.950 . S
C1094 C1093 1.414 . S
C1094 C1095 1.374 . S
C1095 H1075 0.950 . S
C1095 C1091 1.385 . S
C1095 C1094 1.374 . S
C1096 C1093 1.499 . S
C1096 C1097 1.373 . S
C1096 C1098 1.389 . S
C1097 H1076 0.950 . S
C1097 C1096 1.373 . S
C1097 C1113 1.377 . S
C1098 C1096 1.389 . S
C1098 C1099 1.524 . S
C1098 C1112 1.377 . S
C1099 C1098 1.524 . S
C1099 C1100 1.397 . S
C1099 C1104 1.363 . S
C1100 H1077 0.950 . S
C1100 C1099 1.397 . S
C1100 C1101 1.334 . S
C1101 H1078 0.950 . S
C1101 C1100 1.334 . S
C1101 C1102 1.287 . S
C1102 C1101 1.287 . S
C1102 C1103 1.524 . S
C1102 H1121 0.913 . S
C1103 H1079 0.950 . S
C1103 C1102 1.524 . S
C1103 C1104 1.415 . S
C1104 H1080 0.950 . S
C1104 C1099 1.363 . S
C1104 C1103 1.415 . S
C1105 H1081 0.951 . S
C1105 C1106 1.366 . S
C1105 C1107 1.388 . S
C1106 C1105 1.366 . S
C1106 C1110 1.385 . S
C1107 H1082 0.951 . S
C1107 C1105 1.388 . S
C1107 C1108 1.366 . S
C1108 C1107 1.366 . S
C1108 C1109 1.414 . S
C1108 C1111 1.499 . S
C1109 H1083 0.950 . S
C1109 C1108 1.414 . S
C1109 C1110 1.374 . S
C1110 H1084 0.950 . S
C1110 C1106 1.385 . S
C1110 C1109 1.374 . S
C1111 C1108 1.499 . S
C1111 C1112 1.373 . S
C1111 C1113 1.389 . S
C1112 H1085 0.950 . S
C1112 C1098 1.377 . S
C1112 C1111 1.373 . S
C1113 C1097 1.377 . S
C1113 C1111 1.389 . S
C1113 C1114 1.524 . S
C1114 C1113 1.524 . S
C1114 C1115 1.397 . S
C1114 C1119 1.363 . S
C1115 H1086 0.950 . S
C1115 C1114 1.397 . S
C1115 C1116 1.334 . S
C1116 H1087 0.950 . S
C1116 C1115 1.334 . S
C1116 C1117 1.287 . S
C1117 C1116 1.287 . S
C1117 C1118 1.524 . S
C1117 H1120 0.999 . S
C1118 H1088 0.950 . S
C1118 C1117 1.524 . S
C1118 C1119 1.415 . S
C1119 H1089 0.950 . S
C1119 C1114 1.363 . S
C1119 C1118 1.415 . S
H1120 C1117 0.999 . S
H1121 C1102 0.913 . S
H1122 C1140 0.951 . S
H1123 C1142 0.951 . S
H1124 C1144 0.950 . S
H1125 C1145 0.950 . S
H1126 C1147 0.950 . S
H1127 C1150 0.950 . S
H1128 C1151 0.950 . S
H1129 C1153 0.950 . S
H1130 C1154 0.950 . S
H1131 C1155 0.951 . S
H1132 C1157 0.951 . S
H1133 C1159 0.950 . S
H1134 C1160 0.950 . S
H1135 C1162 0.950 . S
H1136 C1165 0.950 . S
H1137 C1166 0.950 . S
H1138 C1168 0.950 . S
H1139 C1169 0.950 . S
C1140 H1122 0.951 . S
C1140 C1141 1.366 . S
C1140 C1142 1.388 . S
C1141 C1140 1.366 . S
C1141 C1145 1.385 . S
C1142 H1123 0.951 . S
C1142 C1140 1.388 . S
C1142 C1143 1.366 . S
C1143 C1142 1.366 . S
C1143 C1144 1.414 . S
C1143 C1146 1.499 . S
C1144 H1124 0.950 . S
C1144 C1143 1.414 . S
C1144 C1145 1.374 . S
C1145 H1125 0.950 . S
C1145 C1141 1.385 . S
C1145 C1144 1.374 . S
C1146 C1143 1.499 . S
C1146 C1147 1.373 . S
C1146 C1148 1.389 . S
C1147 H1126 0.950 . S
C1147 C1146 1.373 . S
C1147 C1163 1.377 . S
C1148 C1146 1.389 . S
C1148 C1149 1.524 . S
C1148 C1162 1.377 . S
C1149 C1148 1.524 . S
C1149 C1150 1.397 . S
C1149 C1154 1.363 . S
C1150 H1127 0.950 . S
C1150 C1149 1.397 . S
C1150 C1151 1.334 . S
C1151 H1128 0.950 . S
C1151 C1150 1.334 . S
C1151 C1152 1.287 . S
C1152 C1151 1.287 . S
C1152 C1153 1.524 . S
C1152 H1171 0.913 . S
C1153 H1129 0.950 . S
C1153 C1152 1.524 . S
C1153 C1154 1.415 . S
C1154 H1130 0.950 . S
C1154 C1149 1.363 . S
C1154 C1153 1.415 . S
C1155 H1131 0.951 . S
C1155 C1156 1.366 . S
C1155 C1157 1.388 . S
C1156 C1155 1.366 . S
C1156 C1160 1.385 . S
C1157 H1132 0.951 . S
C1157 C1155 1.388 . S
C1157 C1158 1.366 . S
C1158 C1157 1.366 . S
C1158 C1159 1.414 . S
C1158 C1161 1.499 . S
C1159 H1133 0.950 . S
C1159 C1158 1.414 . S
C1159 C1160 1.374 . S
C1160 H1134 0.950 . S
C1160 C1156 1.385 . S
C1160 C1159 1.374 . S
C1161 C1158 1.499 . S
C1161 C1162 1.373 . S
C1161 C1163 1.389 . S
C1162 H1135 0.950 . S
C1162 C1148 1.377 . S
C1162 C1161 1.373 . S
C1163 C1147 1.377 . S
C1163 C1161 1.389 . S
C1163 C1164 1.524 . S
C1164 C1163 1.524 . S
C1164 C1165 1.397 . S
C1164 C1169 1.363 . S
C1165 H1136 0.950 . S
C1165 C1164 1.397 . S
C1165 C1166 1.334 . S
C1166 H1137 0.950 . S
C1166 C1165 1.334 . S
C1166 C1167 1.287 . S
C1167 C1166 1.287 . S
C1167 C1168 1.524 . S
C1167 H1170 0.999 . S
C1168 H1138 0.950 . S
C1168 C1167 1.524 . S
C1168 C1169 1.415 . S
C1169 H1139 0.950 . S
C1169 C1164 1.363 . S
C1169 C1168 1.415 . S
H1170 C1167 0.999 . S
H1171 C1152 0.913 . S
H1172 C1190 0.951 . S
H1173 C1192 0.951 . S
H1174 C1194 0.950 . S
H1175 C1195 0.950 . S
H1176 C1197 0.950 . S
H1177 C1200 0.950 . S
H1178 C1201 0.950 . S
H1179 C1203 0.950 . S
H1180 C1204 0.950 . S
H1181 C1205 0.951 . S
H1182 C1207 0.951 . S
H1183 C1209 0.950 . S
H1184 C1210 0.950 . S
H1185 C1212 0.950 . S
H1186 C1215 0.950 . S
H1187 C1216 0.950 . S
H1188 C1218 0.950 . S
H1189 C1219 0.950 . S
C1190 H1172 0.951 . S
C1190 C1191 1.366 . S
C1190 C1192 1.388 . S
C1191 C1190 1.366 . S
C1191 C1195 1.385 . S
C1192 H1173 0.951 . S
C1192 C1190 1.388 . S
C1192 C1193 1.366 . S
C1193 C1192 1.366 . S
C1193 C1194 1.414 . S
C1193 C1196 1.499 . S
C1194 H1174 0.950 . S
C1194 C1193 1.414 . S
C1194 C1195 1.374 . S
C1195 H1175 0.950 . S
C1195 C1191 1.385 . S
C1195 C1194 1.374 . S
C1196 C1193 1.499 . S
C1196 C1197 1.373 . S
C1196 C1198 1.389 . S
C1197 H1176 0.950 . S
C1197 C1196 1.373 . S
C1197 C1213 1.377 . S
C1198 C1196 1.389 . S
C1198 C1199 1.524 . S
C1198 C1212 1.377 . S
C1199 C1198 1.524 . S
C1199 C1200 1.397 . S
C1199 C1204 1.363 . S
C1200 H1177 0.950 . S
C1200 C1199 1.397 . S
C1200 C1201 1.334 . S
C1201 H1178 0.950 . S
C1201 C1200 1.334 . S
C1201 C1202 1.287 . S
C1202 C1201 1.287 . S
C1202 C1203 1.524 . S
C1202 H1221 0.913 . S
C1203 H1179 0.950 . S
C1203 C1202 1.524 . S
C1203 C1204 1.415 . S
C1204 H1180 0.950 . S
C1204 C1199 1.363 . S
C1204 C1203 1.415 . S
C1205 H1181 0.951 . S
C1205 C1206 1.366 . S
C1205 C1207 1.388 . S
C1206 C1205 1.366 . S
C1206 C1210 1.385 . S
C1207 H1182 0.951 . S
C1207 C1205 1.388 . S
C1207 C1208 1.366 . S
C1208 C1207 1.366 . S
C1208 C1209 1.414 . S
C1208 C1211 1.499 . S
C1209 H1183 0.950 . S
C1209 C1208 1.414 . S
C1209 C1210 1.374 . S
C1210 H1184 0.950 . S
C1210 C1206 1.385 . S
C1210 C1209 1.374 . S
C1211 C1208 1.499 . S
C1211 C1212 1.373 . S
C1211 C1213 1.389 . S
C1212 H1185 0.950 . S
C1212 C1198 1.377 . S
C1212 C1211 1.373 . S
C1213 C1197 1.377 . S
C1213 C1211 1.389 . S
C1213 C1214 1.524 . S
C1214 C1213 1.524 . S
C1214 C1215 1.397 . S
C1214 C1219 1.363 . S
C1215 H1186 0.950 . S
C1215 C1214 1.397 . S
C1215 C1216 1.334 . S
C1216 H1187 0.950 . S
C1216 C1215 1.334 . S
C1216 C1217 1.287 . S
C1217 C1216 1.287 . S
C1217 C1218 1.524 . S
C1217 H1220 0.999 . S
C1218 H1188 0.950 . S
C1218 C1217 1.524 . S
C1218 C1219 1.415 . S
C1219 H1189 0.950 . S
C1219 C1214 1.363 . S
C1219 C1218 1.415 . S
H1220 C1217 0.999 . S
H1221 C1202 0.913 . S
H1222 C1240 0.951 . S
H1223 C1242 0.951 . S
H1224 C1244 0.950 . S
H1225 C1245 0.950 . S
H1226 C1247 0.950 . S
H1227 C1250 0.950 . S
H1228 C1251 0.950 . S
H1229 C1253 0.950 . S
H1230 C1254 0.950 . S
H1231 C1255 0.951 . S
H1232 C1257 0.951 . S
H1233 C1259 0.950 . S
H1234 C1260 0.950 . S
H1235 C1262 0.950 . S
H1236 C1265 0.950 . S
H1237 C1266 0.950 . S
H1238 C1268 0.950 . S
H1239 C1269 0.950 . S
C1240 H1222 0.951 . S
C1240 C1241 1.366 . S
C1240 C1242 1.388 . S
C1241 C1240 1.366 . S
C1241 C1245 1.385 . S
C1242 H1223 0.951 . S
C1242 C1240 1.388 . S
C1242 C1243 1.366 . S
C1243 C1242 1.366 . S
C1243 C1244 1.414 . S
C1243 C1246 1.499 . S
C1244 H1224 0.950 . S
C1244 C1243 1.414 . S
C1244 C1245 1.374 . S
C1245 H1225 0.950 . S
C1245 C1241 1.385 . S
C1245 C1244 1.374 . S
C1246 C1243 1.499 . S
C1246 C1247 1.373 . S
C1246 C1248 1.389 . S
C1247 H1226 0.950 . S
C1247 C1246 1.373 . S
C1247 C1263 1.377 . S
C1248 C1246 1.389 . S
C1248 C1249 1.524 . S
C1248 C1262 1.377 . S
C1249 C1248 1.524 . S
C1249 C1250 1.397 . S
C1249 C1254 1.363 . S
C1250 H1227 0.950 . S
C1250 C1249 1.397 . S
C1250 C1251 1.334 . S
C1251 H1228 0.950 . S
C1251 C1250 1.334 . S
C1251 C1252 1.287 . S
C1252 C1251 1.287 . S
C1252 C1253 1.524 . S
C1252 H1271 0.913 . S
C1253 H1229 0.950 . S
C1253 C1252 1.524 . S
C1253 C1254 1.415 . S
C1254 H1230 0.950 . S
C1254 C1249 1.363 . S
C1254 C1253 1.415 . S
C1255 H1231 0.951 . S
C1255 C1256 1.366 . S
C1255 C1257 1.388 . S
C1256 C1255 1.366 . S
C1256 C1260 1.385 . S
C1257 H1232 0.951 . S
C1257 C1255 1.388 . S
C1257 C1258 1.366 . S
C1258 C1257 1.366 . S
C1258 C1259 1.414 . S
C1258 C1261 1.499 . S
C1259 H1233 0.950 . S
C1259 C1258 1.414 . S
C1259 C1260 1.374 . S
C1260 H1234 0.950 . S
C1260 C1256 1.385 . S
C1260 C1259 1.374 . S
C1261 C1258 1.499 . S
C1261 C1262 1.373 . S
C1261 C1263 1.389 . S
C1262 H1235 0.950 . S
C1262 C1248 1.377 . S
C1262 C1261 1.373 . S
C1263 C1247 1.377 . S
C1263 C1261 1.389 . S
C1263 C1264 1.524 . S
C1264 C1263 1.524 . S
C1264 C1265 1.397 . S
C1264 C1269 1.363 . S
C1265 H1236 0.950 . S
C1265 C1264 1.397 . S
C1265 C1266 1.334 . S
C1266 H1237 0.950 . S
C1266 C1265 1.334 . S
C1266 C1267 1.287 . S
C1267 C1266 1.287 . S
C1267 C1268 1.524 . S
C1267 H1270 0.999 . S
C1268 H1238 0.950 . S
C1268 C1267 1.524 . S
C1268 C1269 1.415 . S
C1269 H1239 0.950 . S
C1269 C1264 1.363 . S
C1269 C1268 1.415 . S
H1270 C1267 0.999 . S
H1271 C1252 0.913 . S
H1272 C1290 0.951 . S
H1273 C1292 0.951 . S
H1274 C1294 0.950 . S
H1275 C1295 0.950 . S
H1276 C1297 0.950 . S
H1277 C1300 0.950 . S
H1278 C1301 0.950 . S
H1279 C1303 0.950 . S
H1280 C1304 0.950 . S
H1281 C1305 0.951 . S
H1282 C1307 0.951 . S
H1283 C1309 0.950 . S
H1284 C1310 0.950 . S
H1285 C1312 0.950 . S
H1286 C1315 0.950 . S
H1287 C1316 0.950 . S
H1288 C1318 0.950 . S
H1289 C1319 0.950 . S
C1290 H1272 0.951 . S
C1290 C1291 1.366 . S
C1290 C1292 1.388 . S
C1291 C1290 1.366 . S
C1291 C1295 1.385 . S
C1292 H1273 0.951 . S
C1292 C1290 1.388 . S
C1292 C1293 1.366 . S
C1293 C1292 1.366 . S
C1293 C1294 1.414 . S
C1293 C1296 1.499 . S
C1294 H1274 0.950 . S
C1294 C1293 1.414 . S
C1294 C1295 1.374 . S
C1295 H1275 0.950 . S
C1295 C1291 1.385 . S
C1295 C1294 1.374 . S
C1296 C1293 1.499 . S
C1296 C1297 1.373 . S
C1296 C1298 1.389 . S
C1297 H1276 0.950 . S
C1297 C1296 1.373 . S
C1297 C1313 1.377 1_455 S
C1298 C1296 1.389 . S
C1298 C1299 1.524 . S
C1298 C1312 1.377 1_455 S
C1299 C1298 1.524 . S
C1299 C1300 1.397 . S
C1299 C1304 1.363 . S
C1300 H1277 0.950 . S
C1300 C1299 1.397 . S
C1300 C1301 1.334 . S
C1301 H1278 0.950 . S
C1301 C1300 1.334 . S
C1301 C1302 1.287 . S
C1302 C1301 1.287 . S
C1302 C1303 1.524 . S
C1302 H1321 0.913 . S
C1303 H1279 0.950 . S
C1303 C1302 1.524 . S
C1303 C1304 1.415 . S
C1304 H1280 0.950 . S
C1304 C1299 1.363 . S
C1304 C1303 1.415 . S
C1305 H1281 0.951 . S
C1305 C1306 1.366 . S
C1305 C1307 1.388 . S
C1306 C1305 1.366 . S
C1306 C1310 1.385 . S
C1307 H1282 0.951 . S
C1307 C1305 1.388 . S
C1307 C1308 1.366 . S
C1308 C1307 1.366 . S
C1308 C1309 1.414 . S
C1308 C1311 1.499 . S
C1309 H1283 0.950 . S
C1309 C1308 1.414 . S
C1309 C1310 1.374 . S
C1310 H1284 0.950 . S
C1310 C1306 1.385 . S
C1310 C1309 1.374 . S
C1311 C1308 1.499 . S
C1311 C1312 1.373 . S
C1311 C1313 1.389 . S
C1312 H1285 0.950 . S
C1312 C1298 1.377 1_655 S
C1312 C1311 1.373 . S
C1313 C1297 1.377 1_655 S
C1313 C1311 1.389 . S
C1313 C1314 1.524 . S
C1314 C1313 1.524 . S
C1314 C1315 1.397 . S
C1314 C1319 1.363 . S
C1315 H1286 0.950 . S
C1315 C1314 1.397 . S
C1315 C1316 1.334 . S
C1316 H1287 0.950 . S
C1316 C1315 1.334 . S
C1316 C1317 1.287 . S
C1317 C1316 1.287 . S
C1317 C1318 1.524 . S
C1317 H1320 0.999 . S
C1318 H1288 0.950 . S
C1318 C1317 1.524 . S
C1318 C1319 1.415 . S
C1319 H1289 0.950 . S
C1319 C1314 1.363 . S
C1319 C1318 1.415 . S
H1320 C1317 0.999 . S
H1321 C1302 0.913 . S
H1322 C1340 0.951 . S
H1323 C1342 0.951 . S
H1324 C1344 0.950 . S
H1325 C1345 0.950 . S
H1326 C1347 0.950 . S
H1327 C1350 0.950 . S
H1328 C1351 0.950 . S
H1329 C1353 0.950 . S
H1330 C1354 0.950 . S
H1331 C1355 0.951 . S
H1332 C1357 0.951 . S
H1333 C1359 0.950 . S
H1334 C1360 0.950 . S
H1335 C1362 0.950 . S
H1336 C1365 0.950 . S
H1337 C1366 0.950 . S
H1338 C1368 0.950 . S
H1339 C1369 0.950 . S
C1340 H1322 0.951 . S
C1340 C1341 1.366 . S
C1340 C1342 1.388 . S
C1341 C1340 1.366 . S
C1341 C1345 1.385 . S
C1342 H1323 0.951 . S
C1342 C1340 1.388 . S
C1342 C1343 1.366 . S
C1343 C1342 1.366 . S
C1343 C1344 1.414 . S
C1343 C1346 1.499 . S
C1344 H1324 0.950 . S
C1344 C1343 1.414 . S
C1344 C1345 1.374 . S
C1345 H1325 0.950 . S
C1345 C1341 1.385 . S
C1345 C1344 1.374 . S
C1346 C1343 1.499 . S
C1346 C1347 1.373 . S
C1346 C1348 1.389 . S
C1347 H1326 0.950 . S
C1347 C1346 1.373 . S
C1347 C1363 1.377 1_655 S
C1348 C1346 1.389 . S
C1348 C1349 1.524 . S
C1348 C1362 1.377 1_655 S
C1349 C1348 1.524 . S
C1349 C1350 1.397 . S
C1349 C1354 1.363 . S
C1350 H1327 0.950 . S
C1350 C1349 1.397 . S
C1350 C1351 1.334 . S
C1351 H1328 0.950 . S
C1351 C1350 1.334 . S
C1351 C1352 1.287 . S
C1352 C1351 1.287 . S
C1352 C1353 1.524 . S
C1352 H1371 0.913 . S
C1353 H1329 0.950 . S
C1353 C1352 1.524 . S
C1353 C1354 1.415 . S
C1354 H1330 0.950 . S
C1354 C1349 1.363 . S
C1354 C1353 1.415 . S
C1355 H1331 0.951 . S
C1355 C1356 1.366 . S
C1355 C1357 1.388 . S
C1356 C1355 1.366 . S
C1356 C1360 1.385 . S
C1357 H1332 0.951 . S
C1357 C1355 1.388 . S
C1357 C1358 1.366 . S
C1358 C1357 1.366 . S
C1358 C1359 1.414 . S
C1358 C1361 1.499 . S
C1359 H1333 0.950 . S
C1359 C1358 1.414 . S
C1359 C1360 1.374 . S
C1360 H1334 0.950 . S
C1360 C1356 1.385 . S
C1360 C1359 1.374 . S
C1361 C1358 1.499 . S
C1361 C1362 1.373 . S
C1361 C1363 1.389 . S
C1362 H1335 0.950 . S
C1362 C1348 1.377 1_455 S
C1362 C1361 1.373 . S
C1363 C1347 1.377 1_455 S
C1363 C1361 1.389 . S
C1363 C1364 1.524 . S
C1364 C1363 1.524 . S
C1364 C1365 1.397 . S
C1364 C1369 1.363 . S
C1365 H1336 0.950 . S
C1365 C1364 1.397 . S
C1365 C1366 1.334 . S
C1366 H1337 0.950 . S
C1366 C1365 1.334 . S
C1366 C1367 1.287 . S
C1367 C1366 1.287 . S
C1367 C1368 1.524 . S
C1367 H1370 0.999 . S
C1368 H1338 0.950 . S
C1368 C1367 1.524 . S
C1368 C1369 1.415 . S
C1369 H1339 0.950 . S
C1369 C1364 1.363 . S
C1369 C1368 1.415 . S
H1370 C1367 0.999 . S
H1371 C1352 0.913 . S
H1372 C1390 0.951 . S
H1373 C1392 0.951 . S
H1374 C1394 0.950 1_556 S
H1375 C1395 0.950 1_556 S
H1376 C1397 0.950 . S
H1377 C1400 0.950 . S
H1378 C1401 0.950 . S
H1379 C1403 0.950 . S
H1380 C1404 0.950 . S
H1381 C1405 0.951 1_556 S
H1382 C1407 0.951 1_556 S
H1383 C1409 0.950 . S
H1384 C1410 0.950 . S
H1385 C1412 0.950 . S
H1386 C1415 0.950 . S
H1387 C1416 0.950 . S
H1388 C1418 0.950 . S
H1389 C1419 0.950 . S
C1390 H1372 0.951 . S
C1390 C1391 1.366 . S
C1390 C1392 1.388 . S
C1391 C1390 1.366 . S
C1391 C1395 1.385 . S
C1392 H1373 0.951 . S
C1392 C1390 1.388 . S
C1392 C1393 1.366 . S
C1393 C1392 1.366 . S
C1393 C1394 1.414 . S
C1393 C1396 1.499 . S
C1394 H1374 0.950 1_554 S
C1394 C1393 1.414 . S
C1394 C1395 1.374 . S
C1395 H1375 0.950 1_554 S
C1395 C1391 1.385 . S
C1395 C1394 1.374 . S
C1396 C1393 1.499 . S
C1396 C1397 1.373 1_554 S
C1396 C1398 1.389 . S
C1397 H1376 0.950 . S
C1397 C1396 1.373 1_556 S
C1397 C1413 1.377 . S
C1398 C1396 1.389 . S
C1398 C1399 1.524 . S
C1398 C1412 1.377 . S
C1399 C1398 1.524 . S
C1399 C1400 1.397 . S
C1399 C1404 1.363 . S
C1400 H1377 0.950 . S
C1400 C1399 1.397 . S
C1400 C1401 1.334 . S
C1401 H1378 0.950 . S
C1401 C1400 1.334 . S
C1401 C1402 1.287 . S
C1402 C1401 1.287 . S
C1402 C1403 1.524 . S
C1402 H1421 0.913 . S
C1403 H1379 0.950 . S
C1403 C1402 1.524 . S
C1403 C1404 1.415 . S
C1404 H1380 0.950 . S
C1404 C1399 1.363 . S
C1404 C1403 1.415 . S
C1405 H1381 0.951 1_554 S
C1405 C1406 1.366 . S
C1405 C1407 1.388 . S
C1406 C1405 1.366 . S
C1406 C1410 1.385 . S
C1407 H1382 0.951 1_554 S
C1407 C1405 1.388 . S
C1407 C1408 1.366 . S
C1408 C1407 1.366 . S
C1408 C1409 1.414 . S
C1408 C1411 1.499 . S
C1409 H1383 0.950 . S
C1409 C1408 1.414 . S
C1409 C1410 1.374 . S
C1410 H1384 0.950 . S
C1410 C1406 1.385 . S
C1410 C1409 1.374 . S
C1411 C1408 1.499 . S
C1411 C1412 1.373 . S
C1411 C1413 1.389 1_554 S
C1412 H1385 0.950 . S
C1412 C1398 1.377 . S
C1412 C1411 1.373 . S
C1413 C1397 1.377 . S
C1413 C1411 1.389 1_556 S
C1413 C1414 1.524 . S
C1414 C1413 1.524 . S
C1414 C1415 1.397 . S
C1414 C1419 1.363 . S
C1415 H1386 0.950 . S
C1415 C1414 1.397 . S
C1415 C1416 1.334 . S
C1416 H1387 0.950 . S
C1416 C1415 1.334 . S
C1416 C1417 1.287 . S
C1417 C1416 1.287 . S
C1417 C1418 1.524 . S
C1417 H1420 0.999 . S
C1418 H1388 0.950 . S
C1418 C1417 1.524 . S
C1418 C1419 1.415 . S
C1419 H1389 0.950 . S
C1419 C1414 1.363 . S
C1419 C1418 1.415 . S
H1420 C1417 0.999 . S
H1421 C1402 0.913 . S
H1422 C1440 0.951 . S
H1423 C1442 0.951 . S
H1424 C1444 0.950 . S
H1425 C1445 0.950 . S
H1426 C1447 0.950 1_554 S
H1427 C1450 0.950 . S
H1428 C1451 0.950 . S
H1429 C1453 0.950 . S
H1430 C1454 0.950 . S
H1431 C1455 0.951 . S
H1432 C1457 0.951 . S
H1433 C1459 0.950 . S
H1434 C1460 0.950 . S
H1435 C1462 0.950 . S
H1436 C1465 0.950 . S
H1437 C1466 0.950 . S
H1438 C1468 0.950 . S
H1439 C1469 0.950 . S
C1440 H1422 0.951 . S
C1440 C1441 1.366 . S
C1440 C1442 1.388 . S
C1441 C1440 1.366 . S
C1441 C1445 1.385 . S
C1442 H1423 0.951 . S
C1442 C1440 1.388 . S
C1442 C1443 1.366 . S
C1443 C1442 1.366 . S
C1443 C1444 1.414 . S
C1443 C1446 1.499 . S
C1444 H1424 0.950 . S
C1444 C1443 1.414 . S
C1444 C1445 1.374 . S
C1445 H1425 0.950 . S
C1445 C1441 1.385 . S
C1445 C1444 1.374 . S
C1446 C1443 1.499 . S
C1446 C1447 1.373 . S
C1446 C1448 1.389 . S
C1447 H1426 0.950 1_556 S
C1447 C1446 1.373 . S
C1447 C1463 1.376 . S
C1448 C1446 1.389 . S
C1448 C1449 1.524 . S
C1448 C1462 1.377 . S
C1449 C1448 1.524 . S
C1449 C1450 1.397 . S
C1449 C1454 1.363 . S
C1450 H1427 0.950 . S
C1450 C1449 1.397 . S
C1450 C1451 1.334 . S
C1451 H1428 0.950 . S
C1451 C1450 1.334 . S
C1451 C1452 1.287 . S
C1452 C1451 1.287 . S
C1452 C1453 1.524 . S
C1452 H1471 0.913 . S
C1453 H1429 0.950 . S
C1453 C1452 1.524 . S
C1453 C1454 1.415 . S
C1454 H1430 0.950 . S
C1454 C1449 1.363 . S
C1454 C1453 1.415 . S
C1455 H1431 0.951 . S
C1455 C1456 1.366 . S
C1455 C1457 1.388 . S
C1456 C1455 1.366 . S
C1456 C1460 1.385 . S
C1457 H1432 0.951 . S
C1457 C1455 1.388 . S
C1457 C1458 1.366 . S
C1458 C1457 1.366 . S
C1458 C1459 1.414 . S
C1458 C1461 1.499 . S
C1459 H1433 0.950 . S
C1459 C1458 1.414 . S
C1459 C1460 1.374 . S
C1460 H1434 0.950 . S
C1460 C1456 1.385 . S
C1460 C1459 1.374 . S
C1461 C1458 1.499 . S
C1461 C1462 1.373 . S
C1461 C1463 1.389 . S
C1462 H1435 0.950 . S
C1462 C1448 1.377 . S
C1462 C1461 1.373 . S
C1463 C1447 1.376 . S
C1463 C1461 1.389 . S
C1463 C1464 1.525 1_556 S
C1464 C1463 1.525 1_554 S
C1464 C1465 1.397 . S
C1464 C1469 1.363 . S
C1465 H1436 0.950 . S
C1465 C1464 1.397 . S
C1465 C1466 1.334 . S
C1466 H1437 0.950 . S
C1466 C1465 1.334 . S
C1466 C1467 1.287 . S
C1467 C1466 1.287 . S
C1467 C1468 1.524 . S
C1467 H1470 0.999 . S
C1468 H1438 0.950 . S
C1468 C1467 1.524 . S
C1468 C1469 1.415 . S
C1469 H1439 0.950 . S
C1469 C1464 1.363 . S
C1469 C1468 1.415 . S
H1470 C1467 0.999 . S
H1471 C1452 0.913 . S
C291 C0 1.713 . S
C306 C267 1.713 . S
C341 C233 1.715 . S
C356 C63 1.714 . S
C391 C199 1.713 . S
C406 C97 1.714 . S
C441 C136 1.713 . S
C456 C131 1.713 . S
C491 C72 1.719 . S
C506 C4 1.717 . S
C541 C38 1.592 . S
C556 C106 1.595 . S
C591 C115 1.589 . S
C606 C47 1.585 . S
C641 C81 1.456 . S
C656 C13 1.457 . S
C691 C140 1.717 . S
C706 C208 1.719 . S
C741 C174 1.592 . S
C756 C242 1.595 . S
C791 C251 1.588 . S
C806 C183 1.584 . S
C841 C217 1.455 . S
C856 C149 1.457 . S
C891 C17 1.086 . S
C906 C8 1.086 . S
C941 C42 1.086 . S
C956 C51 1.086 . S
C991 C85 1.086 . S
C1006 C76 1.086 . S
C1041 C110 1.086 . S
C1056 C119 1.086 . S
C1091 C144 1.086 . S
C1106 C153 1.086 . S
C1141 C178 1.086 . S
C1156 C187 1.086 . S
C1191 C212 1.086 . S
C1206 C221 1.086 . S
C1241 C246 1.086 . S
C1256 C255 1.086 . S
C1291 C29 1.624 . S
C1306 C34 1.624 . S
C1341 C102 1.623 . S
C1356 C68 1.623 . S
C1391 C165 1.625 . S
C1406 C170 1.624 . S
C1441 C238 1.623 . S
C1456 C204 1.622 . S
