# Generated by pormake.
# Topology unc, (4)-cn, num edge types: 1
# Building blocks:
#     Node 0, Type 0, BuildingBlock: GALJAG_clean_sbu_0, # of connection points: 4
#     Node 1, Type 0, BuildingBlock: GALJAG_clean_sbu_0, # of connection points: 4
#     Node 2, Type 0, BuildingBlock: GALJAG_clean_sbu_0, # of connection points: 4
#     Node 3, Type 0, BuildingBlock: GALJAG_clean_sbu_0, # of connection points: 4
#     Edge 4, Type (0, 0), BuildingBlock: TEMPAE_clean_linker_10, # of connection points: 2
#     Edge 5, Type (0, 0), BuildingBlock: TEMPAE_clean_linker_10, # of connection points: 2
#     Edge 6, Type (0, 0), BuildingBlock: TEMPAE_clean_linker_10, # of connection points: 2
#     Edge 7, Type (0, 0), BuildingBlock: TEMPAE_clean_linker_10, # of connection points: 2
#     Edge 8, Type (0, 0), BuildingBlock: TEMPAE_clean_linker_10, # of connection points: 2
#     Edge 9, Type (0, 0), BuildingBlock: TEMPAE_clean_linker_10, # of connection points: 2
#     Edge 10, Type (0, 0), BuildingBlock: TEMPAE_clean_linker_10, # of connection points: 2
#     Edge 11, Type (0, 0), BuildingBlock: TEMPAE_clean_linker_10, # of connection points: 2
# Relax obj value: 0.013
# Max RMSD: 0.034
# Mean RMSD: 0.034
data_MOF--net-unc--node1-GALJAG_clean_sbu_0--edge1-TEMPAE_clean_linker_10
_symmetry_space_group_name_H-M    P1
_symmetry_Int_Tables_number       1
_symmetry_cell_setting            triclinic
loop_
_symmetry_equiv_pos_as_xyz
'x, y, z'
_cell_length_a     31.957095
_cell_length_b     31.956801
_cell_length_c     20.497822
_cell_angle_alpha  90.006769
_cell_angle_beta   89.958203
_cell_angle_gamma 90.004269
loop_
_atom_site_label
_atom_site_type_symbol
_atom_site_fract_x
_atom_site_fract_y
_atom_site_fract_z
_atom_type_partial_charge
In0 In -0.00041 0.6732 0.99241 0.0
O1 O 0.06549 0.70112 0.99072 0.0
O2 O 0.02188 0.72529 0.05943 0.0
C3 C 0.02295 0.6197 0.89675 0.0
C4 C 0.94101 0.72718 0.94886 0.0
C5 C 0.97607 0.6193 0.08745 0.0
O6 O 0.04283 0.62293 0.94962 0.0
O7 O 0.99223 0.64417 0.89164 0.0
O8 O 0.95658 0.62238 0.03421 0.0
O9 O 0.00645 0.64412 0.09325 0.0
C10 C 0.05846 0.72675 0.03636 0.0
O11 O 0.93398 0.70176 0.99478 0.0
O12 O 0.97743 0.72529 0.92529 0.0
In13 In 0.32018 0.99834 0.24283 0.0
O14 O 0.28907 0.9341 0.25133 0.0
O15 O 0.27287 0.97261 0.17062 0.0
C16 C 0.37787 0.99789 0.33796 0.0
C17 C 0.26755 0.05837 0.28562 0.0
C18 C 0.37757 0.99875 0.14716 0.0
O19 O 0.35149 0.9686 0.33201 0.0
O20 O 0.37366 0.02764 0.29809 0.0
O21 O 0.3512 0.02803 0.15339 0.0
O22 O 0.37351 0.96901 0.18712 0.0
C23 C 0.26769 0.93828 0.19991 0.0
O24 O 0.28966 0.06289 0.23498 0.0
O25 O 0.27207 0.02371 0.31422 0.0
In26 In 0.00022 0.32481 0.49213 0.0
O27 O 0.06579 0.29604 0.49494 0.0
O28 O 0.02276 0.27312 0.42448 0.0
C29 C 0.02397 0.3791 0.58637 0.0
C30 C 0.94134 0.27134 0.53649 0.0
C31 C 0.97629 0.37857 0.39733 0.0
O32 O 0.04304 0.37616 0.53269 0.0
O33 O 0.99392 0.35394 0.593 0.0
O34 O 0.95692 0.37544 0.45073 0.0
O35 O 0.00676 0.35385 0.39127 0.0
C36 C 0.05902 0.27096 0.44849 0.0
O37 O 0.93478 0.29583 0.48922 0.0
O38 O 0.97745 0.27389 0.56097 0.0
In39 In 0.67978 0.99919 0.74234 0.0
O40 O 0.71094 0.935 0.7342 0.0
O41 O 0.72713 0.97371 0.81473 0.0
C42 C 0.62272 0.99863 0.64625 0.0
C43 C 0.73267 0.05908 0.69995 0.0
C44 C 0.62208 0.99954 0.8376 0.0
O45 O 0.64854 0.96898 0.65353 0.0
O46 O 0.62718 0.02876 0.68536 0.0
O47 O 0.64837 0.0289 0.8315 0.0
O48 O 0.62634 0.96981 0.7977 0.0
C49 C 0.73233 0.93933 0.78559 0.0
O50 O 0.71001 0.06389 0.74995 0.0
O51 O 0.72856 0.02422 0.6718 0.0
C52 C 0.93699 0.55555 0.12389 0.0
C53 C 0.96694 0.5866 0.13642 0.0
C54 C 0.93208 0.52136 0.16632 0.0
C55 C 0.9578 0.51829 0.22233 0.0
C56 C 0.98654 0.5507 0.23684 0.0
C57 C 0.99074 0.58446 0.1937 0.0
C58 C 0.9009 0.48757 0.14951 0.0
C59 C 0.01442 0.5487 0.29624 0.0
C60 C 0.93743 0.4426 0.36163 0.0
C61 C 0.967 0.41127 0.34847 0.0
C62 C 0.9325 0.47682 0.31929 0.0
C63 C 0.95777 0.47963 0.2627 0.0
C64 C 0.98606 0.44694 0.24755 0.0
C65 C 0.99033 0.41317 0.29064 0.0
C66 C 0.90181 0.51092 0.3368 0.0
C67 C 0.01345 0.44865 0.1875 0.0
H68 H 0.91843 0.55713 0.07971 0.0
H69 H 0.01378 0.6085 0.20382 0.0
H70 H 0.91783 0.45878 0.13474 0.0
H71 H 0.88156 0.47957 0.1927 0.0
H72 H 0.87986 0.49702 0.10897 0.0
H73 H 0.03273 0.57791 0.30324 0.0
H74 H 0.99548 0.54297 0.34072 0.0
H75 H 0.03662 0.52219 0.29121 0.0
H76 H 0.91924 0.44121 0.40624 0.0
H77 H 0.01306 0.38892 0.28004 0.0
H78 H 0.88221 0.51915 0.29404 0.0
H79 H 0.91917 0.53952 0.35123 0.0
H80 H 0.881 0.50167 0.37778 0.0
H81 H 0.99419 0.45458 0.14347 0.0
H82 H 0.03138 0.41924 0.18009 0.0
H83 H 0.03598 0.47492 0.19201 0.0
C84 C 0.41313 0.96895 0.43724 0.0
C85 C 0.41331 0.99634 0.38392 0.0
C86 C 0.44733 0.96732 0.48023 0.0
C87 C 0.48268 0.99303 0.46848 0.0
C88 C 0.48323 0.02009 0.41389 0.0
C89 C 0.44835 0.02173 0.3727 0.0
C90 C 0.44538 0.9387 0.53873 0.0
C91 C 0.52059 0.04749 0.39913 0.0
C92 C 0.55386 0.0247 0.6075 0.0
C93 C 0.58759 0.9971 0.59968 0.0
C94 C 0.51909 0.02293 0.56609 0.0
C95 C 0.51838 0.99334 0.51479 0.0
C96 C 0.55244 0.96547 0.50633 0.0
C97 C 0.58657 0.96742 0.54941 0.0
C98 C 0.48315 0.05281 0.57722 0.0
C99 C 0.55302 0.93404 0.45136 0.0
H100 H 0.38606 0.94926 0.44583 0.0
H101 H 0.44882 0.04255 0.33095 0.0
H102 H 0.47229 0.91677 0.53819 0.0
H103 H 0.44773 0.95742 0.58418 0.0
H104 H 0.41595 0.92022 0.5403 0.0
H105 H 0.51694 0.065 0.35266 0.0
H106 H 0.52524 0.07035 0.43919 0.0
H107 H 0.54936 0.02815 0.39606 0.0
H108 H 0.5543 0.04739 0.64682 0.0
H109 H 0.6126 0.946 0.54341 0.0
H110 H 0.45347 0.03512 0.58267 0.0
H111 H 0.47955 0.0737 0.53436 0.0
H112 H 0.48771 0.07251 0.6213 0.0
H113 H 0.52522 0.91336 0.45455 0.0
H114 H 0.58164 0.91431 0.45193 0.0
H115 H 0.55134 0.95056 0.40382 0.0
C116 C 0.00756 0.58456 0.79096 0.0
C117 C 0.03207 0.58718 0.84747 0.0
C118 C 0.01189 0.55092 0.74762 0.0
C119 C 0.04151 0.51913 0.7611 0.0
C120 C 0.06789 0.52272 0.81628 0.0
C121 C 0.06282 0.55676 0.85896 0.0
C122 C 0.98326 0.54835 0.68915 0.0
C123 C 0.10003 0.48961 0.83196 0.0
C124 C 0.01045 0.41336 0.69349 0.0
C125 C 0.03311 0.412 0.63498 0.0
C126 C 0.0145 0.44719 0.73653 0.0
C127 C 0.04186 0.48052 0.7206 0.0
C128 C 0.06646 0.47832 0.66323 0.0
C129 C 0.06178 0.444 0.62099 0.0
C130 C 0.98787 0.44823 0.79743 0.0
C131 C 0.09612 0.51313 0.64483 0.0
H132 H 0.98389 0.60811 0.78165 0.0
H133 H 0.08194 0.55872 0.90252 0.0
H134 H 0.00171 0.54308 0.64403 0.0
H135 H 0.96172 0.52135 0.69482 0.0
H136 H 0.96422 0.57715 0.68285 0.0
H137 H 0.12135 0.49945 0.87191 0.0
H138 H 0.08393 0.46041 0.84706 0.0
H139 H 0.119 0.48213 0.78814 0.0
H140 H 0.98842 0.38858 0.70473 0.0
H141 H 0.07943 0.44305 0.57583 0.0
H142 H 0.96471 0.474 0.79372 0.0
H143 H 0.00756 0.45455 0.84087 0.0
H144 H 0.9707 0.41843 0.80531 0.0
H145 H 0.07792 0.54135 0.6311 0.0
H146 H 0.11656 0.50442 0.60312 0.0
H147 H 0.11611 0.52176 0.68696 0.0
C148 C 0.44746 0.97417 0.11051 0.0
C149 C 0.4128 0.00031 0.10072 0.0
C150 C 0.48222 0.97594 0.069 0.0
C151 C 0.48196 0.00396 0.0156 0.0
C152 C 0.44697 0.03037 0.00523 0.0
C153 C 0.41287 0.02853 0.04845 0.0
C154 C 0.51917 0.94771 0.08223 0.0
C155 C 0.44535 0.06006 0.94802 0.0
C156 C 0.5862 0.02966 0.93559 0.0
C157 C 0.58681 0.00091 0.88402 0.0
C158 C 0.55207 0.03128 0.97878 0.0
C159 C 0.51762 0.00406 0.96914 0.0
C160 C 0.51792 0.97547 0.91648 0.0
C161 C 0.55268 0.97398 0.87495 0.0
C162 C 0.55309 0.06165 0.03518 0.0
C163 C 0.48155 0.94632 0.90407 0.0
H164 H 0.44774 0.95267 0.15141 0.0
H165 H 0.38611 0.0488 0.04094 0.0
H166 H 0.5235 0.92564 0.041 0.0
H167 H 0.54822 0.96656 0.08621 0.0
H168 H 0.51528 0.92928 0.12779 0.0
H169 H 0.41612 0.07888 0.94733 0.0
H170 H 0.47249 0.08168 0.94948 0.0
H171 H 0.44751 0.04217 0.90174 0.0
H172 H 0.61254 0.05055 0.94255 0.0
H173 H 0.55282 0.95202 0.83463 0.0
H174 H 0.55129 0.04424 0.08194 0.0
H175 H 0.52552 0.08269 0.03315 0.0
H176 H 0.58193 0.08106 0.03534 0.0
H177 H 0.4777 0.92464 0.94591 0.0
H178 H 0.48582 0.92745 0.85903 0.0
H179 H 0.45212 0.96451 0.89961 0.0
C180 C 0.23413 0.86772 0.20888 0.0
C181 C 0.23856 0.90584 0.17577 0.0
C182 C 0.20602 0.83708 0.18667 0.0
C183 C 0.18174 0.8449 0.1302 0.0
C184 C 0.18638 0.88321 0.09631 0.0
C185 C 0.21478 0.91318 0.11946 0.0
C186 C 0.20199 0.79653 0.22394 0.0
C187 C 0.16095 0.89277 0.03604 0.0
C188 C 0.13164 0.75464 0.03808 0.0
C189 C 0.09033 0.75632 0.06099 0.0
C190 C 0.16196 0.78286 0.06096 0.0
C191 C 0.15054 0.81361 0.10744 0.0
C192 C 0.10892 0.81528 0.13094 0.0
C193 C 0.07935 0.78652 0.10758 0.0
C194 C 0.20611 0.78 0.03506 0.0
C195 C 0.09547 0.84779 0.18017 0.0
H196 H 0.25252 0.86186 0.25235 0.0
H197 H 0.2181 0.94259 0.09361 0.0
H198 H 0.16962 0.79316 0.24281 0.0
H199 H 0.20793 0.76963 0.19099 0.0
H200 H 0.22406 0.79475 0.26569 0.0
H201 H 0.1689 0.9237 0.0146 0.0
H202 H 0.16618 0.86829 -0.00146 0.0
H203 H 0.12712 0.8925 0.04822 0.0
H204 H 0.14029 0.73124 0.00224 0.0
H205 H 0.04744 0.78797 0.12544 0.0
H206 H 0.22845 0.77617 0.07603 0.0
H207 H 0.21447 0.80944 0.00951 0.0
H208 H 0.21023 0.75346 0.00064 0.0
H209 H 0.11502 0.84543 0.22471 0.0
H210 H 0.06208 0.84439 0.19436 0.0
H211 H 0.10018 0.87959 0.15972 0.0
C212 C 0.23616 0.13001 0.2792 0.0
C213 C 0.23839 0.09081 0.30967 0.0
C214 C 0.20821 0.16078 0.30148 0.0
C215 C 0.18174 0.15196 0.3552 0.0
C216 C 0.18406 0.1125 0.38633 0.0
C217 C 0.21244 0.08245 0.3633 0.0
C218 C 0.20674 0.2026 0.26728 0.0
C219 C 0.15619 0.10181 0.44351 0.0
C220 C 0.13132 0.24085 0.45022 0.0
C221 C 0.09081 0.24122 0.42402 0.0
C222 C 0.1615 0.21235 0.42762 0.0
C223 C 0.15077 0.1835 0.37792 0.0
C224 C 0.10999 0.18398 0.35102 0.0
C225 C 0.08054 0.21289 0.37432 0.0
C226 C 0.20472 0.21285 0.4573 0.0
C227 C 0.09731 0.15359 0.29816 0.0
H228 H 0.25625 0.13666 0.23784 0.0
H229 H 0.21401 0.05218 0.38704 0.0
H230 H 0.17517 0.2077 0.24623 0.0
H231 H 0.21242 0.22818 0.30279 0.0
H232 H 0.23025 0.20496 0.2275 0.0
H233 H 0.16238 0.06996 0.46295 0.0
H234 H 0.16083 0.12483 0.48337 0.0
H235 H 0.12288 0.10366 0.42857 0.0
H236 H 0.13944 0.26277 0.48853 0.0
H237 H 0.04927 0.21305 0.35386 0.0
H238 H 0.22861 0.21721 0.41859 0.0
H239 H 0.2112 0.18235 0.4811 0.0
H240 H 0.20844 0.23809 0.49412 0.0
H241 H 0.11848 0.15674 0.25553 0.0
H242 H 0.0646 0.15858 0.28156 0.0
H243 H 0.10029 0.12102 0.31632 0.0
C244 C 0.78895 0.08259 0.62393 0.0
C245 C 0.76195 0.09147 0.67607 0.0
C246 C 0.81737 0.11262 0.60098 0.0
C247 C 0.81864 0.1526 0.63062 0.0
C248 C 0.79114 0.16193 0.68285 0.0
C249 C 0.76318 0.13116 0.70514 0.0
C250 C 0.84639 0.10138 0.54546 0.0
C251 C 0.79145 0.20431 0.7154 0.0
C252 C 0.91933 0.21453 0.61267 0.0
C253 C 0.9095 0.24178 0.56131 0.0
C254 C 0.88985 0.18572 0.63623 0.0
C255 C 0.84952 0.18421 0.60784 0.0
C256 C 0.83921 0.212 0.55649 0.0
C257 C 0.86939 0.24044 0.53373 0.0
C258 C 0.90207 0.15651 0.69092 0.0
C259 C 0.79647 0.21136 0.52516 0.0
H260 H 0.78816 0.05194 0.6013 0.0
H261 H 0.74227 0.1382 0.74533 0.0
H262 H 0.84208 0.1236 0.50444 0.0
H263 H 0.8794 0.10404 0.56168 0.0
H264 H 0.84104 0.0691 0.52717 0.0
H265 H 0.76729 0.20696 0.75418 0.0
H266 H 0.8226 0.21026 0.73741 0.0
H267 H 0.78594 0.2292 0.67866 0.0
H268 H 0.95028 0.21545 0.63424 0.0
H269 H 0.86161 0.26152 0.49412 0.0
H270 H 0.89992 0.12359 0.67406 0.0
H271 H 0.88011 0.16006 0.73248 0.0
H272 H 0.93439 0.16234 0.70866 0.0
H273 H 0.79083 0.18041 0.5023 0.0
H274 H 0.79297 0.23595 0.48724 0.0
H275 H 0.77191 0.21597 0.56276 0.0
C276 C 0.76518 0.8684 0.77771 0.0
C277 C 0.7615 0.90696 0.80982 0.0
C278 C 0.79324 0.83776 0.80003 0.0
C279 C 0.81828 0.84605 0.85553 0.0
C280 C 0.81445 0.88483 0.88836 0.0
C281 C 0.78603 0.91477 0.86518 0.0
C282 C 0.79637 0.79669 0.76394 0.0
C283 C 0.84074 0.8949 0.94753 0.0
C284 C 0.86827 0.75619 0.9487 0.0
C285 C 0.90929 0.75699 0.92448 0.0
C286 C 0.83808 0.78463 0.92604 0.0
C287 C 0.84936 0.81467 0.87838 0.0
C288 C 0.8907 0.81547 0.85358 0.0
C289 C 0.92013 0.78654 0.87681 0.0
C290 C 0.79424 0.78273 0.95337 0.0
C291 C 0.90398 0.8472 0.80303 0.0
H292 H 0.7462 0.86218 0.73498 0.0
H293 H 0.78331 0.94453 0.89022 0.0
H294 H 0.82849 0.79266 0.74434 0.0
H295 H 0.79044 0.7703 0.79788 0.0
H296 H 0.77382 0.79465 0.72284 0.0
H297 H 0.83343 0.92621 0.96815 0.0
H298 H 0.83567 0.871 0.98598 0.0
H299 H 0.87441 0.89403 0.93435 0.0
H300 H 0.85972 0.73332 0.98542 0.0
H301 H 0.95182 0.78731 0.85793 0.0
H302 H 0.77134 0.77862 0.91323 0.0
H303 H 0.78659 0.81263 0.97816 0.0
H304 H 0.79021 0.75674 0.98882 0.0
H305 H 0.88391 0.84451 0.7591 0.0
H306 H 0.93716 0.84322 0.78806 0.0
H307 H 0.89986 0.8793 0.82262 0.0
loop_
_geom_bond_atom_site_label_1
_geom_bond_atom_site_label_2
_geom_bond_distance
_geom_bond_site_symmetry_2
_ccdc_geom_bond_type
In0 O1 2.294 1_554 S
In0 O2 2.326 . S
In0 O6 2.266 1_554 S
In0 O7 2.326 1_454 S
In0 O8 2.266 1_455 S
In0 O9 2.326 . S
In0 O11 2.294 1_455 S
In0 O12 2.326 1_454 S
O1 In0 2.294 1_556 S
O1 C10 1.240 1_556 S
O2 In0 2.326 . S
O2 C10 1.252 . S
C3 O6 1.253 . S
C3 O7 1.259 1_455 S
C4 O11 1.240 1_556 S
C4 O12 1.252 . S
C5 O8 1.253 1_455 S
C5 O9 1.259 . S
O6 In0 2.266 1_556 S
O6 C3 1.253 . S
O7 In0 2.326 1_656 S
O7 C3 1.259 1_655 S
O8 In0 2.266 1_655 S
O8 C5 1.253 1_655 S
O9 In0 2.326 . S
O9 C5 1.259 . S
C10 O1 1.240 1_554 S
C10 O2 1.252 . S
O11 In0 2.294 1_655 S
O11 C4 1.240 1_554 S
O12 In0 2.326 1_656 S
O12 C4 1.252 . S
In13 O14 2.294 1_545 S
In13 O15 2.326 1_545 S
In13 O19 2.266 1_545 S
In13 O20 2.326 . S
In13 O21 2.266 . S
In13 O22 2.326 1_545 S
In13 O24 2.294 . S
In13 O25 2.326 . S
O14 In13 2.294 1_565 S
O14 C23 1.240 . S
O15 In13 2.326 1_565 S
O15 C23 1.252 . S
C16 O19 1.253 1_545 S
C16 O20 1.259 . S
C17 O24 1.240 . S
C17 O25 1.252 . S
C18 O21 1.253 . S
C18 O22 1.259 1_545 S
O19 In13 2.266 1_565 S
O19 C16 1.253 1_565 S
O20 In13 2.326 . S
O20 C16 1.259 . S
O21 In13 2.266 . S
O21 C18 1.253 . S
O22 In13 2.326 1_565 S
O22 C18 1.259 1_565 S
C23 O14 1.240 . S
C23 O15 1.252 . S
O24 In13 2.294 . S
O24 C17 1.240 . S
O25 In13 2.326 . S
O25 C17 1.252 . S
In26 O27 2.294 . S
In26 O28 2.326 . S
In26 O32 2.266 . S
In26 O33 2.326 1_455 S
In26 O34 2.266 1_455 S
In26 O35 2.326 . S
In26 O37 2.294 1_455 S
In26 O38 2.326 1_455 S
O27 In26 2.294 . S
O27 C36 1.240 . S
O28 In26 2.326 . S
O28 C36 1.252 . S
C29 O32 1.253 . S
C29 O33 1.259 1_455 S
C30 O37 1.240 . S
C30 O38 1.252 . S
C31 O34 1.253 1_455 S
C31 O35 1.259 . S
O32 In26 2.266 . S
O32 C29 1.253 . S
O33 In26 2.326 1_655 S
O33 C29 1.259 1_655 S
O34 In26 2.266 1_655 S
O34 C31 1.253 1_655 S
O35 In26 2.326 . S
O35 C31 1.259 . S
C36 O27 1.240 . S
C36 O28 1.252 . S
O37 In26 2.294 1_655 S
O37 C30 1.240 . S
O38 In26 2.326 1_655 S
O38 C30 1.252 . S
In39 O40 2.294 1_545 S
In39 O41 2.326 1_545 S
In39 O45 2.266 1_545 S
In39 O46 2.326 . S
In39 O47 2.266 . S
In39 O48 2.326 1_545 S
In39 O50 2.294 . S
In39 O51 2.326 . S
O40 In39 2.294 1_565 S
O40 C49 1.240 . S
O41 In39 2.326 1_565 S
O41 C49 1.252 . S
C42 O45 1.253 1_545 S
C42 O46 1.259 . S
C43 O50 1.240 . S
C43 O51 1.252 . S
C44 O47 1.253 . S
C44 O48 1.259 1_545 S
O45 In39 2.266 1_565 S
O45 C42 1.253 1_565 S
O46 In39 2.326 . S
O46 C42 1.259 . S
O47 In39 2.266 . S
O47 C44 1.253 . S
O48 In39 2.326 1_565 S
O48 C44 1.259 1_565 S
C49 O40 1.240 . S
C49 O41 1.252 . S
O50 In39 2.294 . S
O50 C43 1.240 . S
O51 In39 2.326 . S
O51 C43 1.252 . S
C52 C53 1.391 1_655 S
C52 C54 1.394 . S
C52 H68 0.931 . S
C53 C52 1.391 1_455 S
C53 C57 1.376 . S
C54 C52 1.394 . S
C54 C55 1.369 1_655 S
C54 C58 1.531 . S
C55 C54 1.369 1_455 S
C55 C56 1.410 . S
C55 C63 1.503 . S
C56 C55 1.410 . S
C56 C57 1.392 . S
C56 C59 1.511 . S
C57 C53 1.376 . S
C57 C56 1.392 . S
C57 H69 0.929 . S
C58 C54 1.531 . S
C58 H70 0.960 . S
C58 H71 0.962 . S
C58 H72 0.960 . S
C59 C56 1.511 . S
C59 H73 0.961 . S
C59 H74 0.961 . S
C59 H75 0.961 . S
C60 C61 1.370 1_655 S
C60 C62 1.363 . S
C60 H76 0.931 . S
C61 C60 1.370 1_455 S
C61 C65 1.409 . S
C62 C60 1.363 . S
C62 C63 1.370 1_655 S
C62 C66 1.524 . S
C63 C55 1.503 . S
C63 C62 1.370 1_455 S
C63 C64 1.403 . S
C64 C63 1.403 . S
C64 C65 1.404 . S
C64 C67 1.539 . S
C65 C61 1.409 . S
C65 C64 1.404 . S
C65 H77 0.930 . S
C66 C62 1.524 . S
C66 H78 0.956 . S
C66 H79 0.961 . S
C66 H80 0.961 . S
C67 C64 1.539 . S
C67 H81 0.958 . S
C67 H82 0.961 . S
C67 H83 0.960 . S
H68 C52 0.931 . S
H69 C57 0.929 . S
H70 C58 0.960 . S
H71 C58 0.962 . S
H72 C58 0.960 . S
H73 C59 0.961 . S
H74 C59 0.961 . S
H75 C59 0.961 . S
H76 C60 0.931 . S
H77 C65 0.930 . S
H78 C66 0.956 . S
H79 C66 0.961 . S
H80 C66 0.961 . S
H81 C67 0.958 . S
H82 C67 0.961 . S
H83 C67 0.960 . S
C84 C85 1.391 . S
C84 C86 1.394 . S
C84 H100 0.931 . S
C85 C84 1.391 . S
C85 C89 1.376 1_565 S
C86 C84 1.394 . S
C86 C87 1.369 . S
C86 C90 1.531 . S
C87 C86 1.369 . S
C87 C88 1.410 . S
C87 C95 1.503 . S
C88 C87 1.410 . S
C88 C89 1.392 1_565 S
C88 C91 1.511 1_565 S
C89 C85 1.376 1_545 S
C89 C88 1.392 1_545 S
C89 H101 0.929 . S
C90 C86 1.531 . S
C90 H102 0.960 . S
C90 H103 0.962 . S
C90 H104 0.960 . S
C91 C88 1.511 1_545 S
C91 H105 0.961 . S
C91 H106 0.961 . S
C91 H107 0.961 1_545 S
C92 C93 1.370 1_545 S
C92 C94 1.363 . S
C92 H108 0.931 . S
C93 C92 1.370 1_565 S
C93 C97 1.408 . S
C94 C92 1.363 . S
C94 C95 1.370 1_545 S
C94 C98 1.524 . S
C95 C87 1.503 . S
C95 C94 1.370 1_565 S
C95 C96 1.403 . S
C96 C95 1.403 . S
C96 C97 1.404 . S
C96 C99 1.539 . S
C97 C93 1.408 . S
C97 C96 1.404 . S
C97 H109 0.930 . S
C98 C94 1.524 . S
C98 H110 0.956 . S
C98 H111 0.961 . S
C98 H112 0.961 . S
C99 C96 1.539 . S
C99 H113 0.958 . S
C99 H114 0.961 . S
C99 H115 0.960 . S
H100 C84 0.931 . S
H101 C89 0.929 . S
H102 C90 0.960 . S
H103 C90 0.962 . S
H104 C90 0.960 . S
H105 C91 0.961 . S
H106 C91 0.961 . S
H107 C91 0.961 1_565 S
H108 C92 0.931 . S
H109 C97 0.930 . S
H110 C98 0.956 . S
H111 C98 0.961 . S
H112 C98 0.961 . S
H113 C99 0.958 . S
H114 C99 0.961 . S
H115 C99 0.960 . S
C116 C117 1.391 1_655 S
C116 C118 1.394 . S
C116 H132 0.931 . S
C117 C116 1.391 1_455 S
C117 C121 1.376 . S
C118 C116 1.394 . S
C118 C119 1.369 1_655 S
C118 C122 1.531 . S
C119 C118 1.369 1_455 S
C119 C120 1.410 . S
C119 C127 1.503 . S
C120 C119 1.410 . S
C120 C121 1.392 . S
C120 C123 1.511 . S
C121 C117 1.376 . S
C121 C120 1.392 . S
C121 H133 0.929 . S
C122 C118 1.531 . S
C122 H134 0.960 . S
C122 H135 0.962 . S
C122 H136 0.960 . S
C123 C120 1.511 . S
C123 H137 0.961 . S
C123 H138 0.961 . S
C123 H139 0.961 . S
C124 C125 1.370 1_655 S
C124 C126 1.363 . S
C124 H140 0.931 . S
C125 C124 1.370 1_455 S
C125 C129 1.408 . S
C126 C124 1.363 . S
C126 C127 1.370 1_655 S
C126 C130 1.524 . S
C127 C119 1.503 . S
C127 C126 1.370 1_455 S
C127 C128 1.403 . S
C128 C127 1.403 . S
C128 C129 1.404 . S
C128 C131 1.539 . S
C129 C125 1.408 . S
C129 C128 1.404 . S
C129 H141 0.930 . S
C130 C126 1.524 . S
C130 H142 0.956 . S
C130 H143 0.961 1_655 S
C130 H144 0.961 . S
C131 C128 1.539 . S
C131 H145 0.958 . S
C131 H146 0.961 . S
C131 H147 0.960 . S
H132 C116 0.931 . S
H133 C121 0.929 . S
H134 C122 0.960 . S
H135 C122 0.962 . S
H136 C122 0.960 . S
H137 C123 0.961 . S
H138 C123 0.961 . S
H139 C123 0.961 . S
H140 C124 0.931 . S
H141 C129 0.930 . S
H142 C130 0.956 . S
H143 C130 0.961 1_455 S
H144 C130 0.961 . S
H145 C131 0.958 . S
H146 C131 0.961 . S
H147 C131 0.960 . S
C148 C149 1.391 . S
C148 C150 1.394 . S
C148 H164 0.931 . S
C149 C148 1.391 . S
C149 C153 1.376 1_565 S
C150 C148 1.394 . S
C150 C151 1.369 . S
C150 C154 1.531 . S
C151 C150 1.369 . S
C151 C152 1.411 1_565 S
C151 C159 1.503 1_554 S
C152 C151 1.411 1_545 S
C152 C153 1.396 . S
C152 C155 1.506 1_554 S
C153 C149 1.376 1_545 S
C153 C152 1.396 . S
C153 H165 0.929 . S
C154 C150 1.531 . S
C154 H166 0.960 . S
C154 H167 0.962 . S
C154 H168 0.960 . S
C155 C152 1.506 1_556 S
C155 H169 0.961 . S
C155 H170 0.961 . S
C155 H171 0.977 . S
C156 C157 1.368 1_545 S
C156 C158 1.363 . S
C156 H172 0.931 . S
C157 C156 1.368 1_565 S
C157 C161 1.411 . S
C158 C156 1.363 . S
C158 C159 1.370 1_545 S
C158 C162 1.524 1_556 S
C159 C151 1.503 1_556 S
C159 C158 1.370 1_565 S
C159 C160 1.403 . S
C160 C159 1.403 . S
C160 C161 1.404 . S
C160 C163 1.539 . S
C161 C157 1.411 . S
C161 C160 1.404 . S
C161 H173 0.930 . S
C162 C158 1.524 1_554 S
C162 H174 0.956 . S
C162 H175 0.961 . S
C162 H176 0.961 . S
C163 C160 1.539 . S
C163 H177 0.958 . S
C163 H178 0.961 . S
C163 H179 0.960 . S
H164 C148 0.931 . S
H165 C153 0.929 . S
H166 C154 0.960 . S
H167 C154 0.962 . S
H168 C154 0.960 . S
H169 C155 0.961 . S
H170 C155 0.961 . S
H171 C155 0.977 . S
H172 C156 0.931 . S
H173 C161 0.930 . S
H174 C162 0.956 . S
H175 C162 0.961 . S
H176 C162 0.961 . S
H177 C163 0.958 . S
H178 C163 0.961 . S
H179 C163 0.960 . S
C180 C181 1.391 . S
C180 C182 1.394 . S
C180 H196 0.931 . S
C181 C180 1.391 . S
C181 C185 1.376 . S
C182 C180 1.394 . S
C182 C183 1.369 . S
C182 C186 1.531 . S
C183 C182 1.369 . S
C183 C184 1.410 . S
C183 C191 1.503 . S
C184 C183 1.410 . S
C184 C185 1.392 . S
C184 C187 1.511 . S
C185 C181 1.376 . S
C185 C184 1.392 . S
C185 H197 0.929 . S
C186 C182 1.531 . S
C186 H198 0.960 . S
C186 H199 0.962 . S
C186 H200 0.960 . S
C187 C184 1.511 . S
C187 H201 0.961 . S
C187 H202 0.961 . S
C187 H203 0.961 1_554 S
C188 C189 1.370 . S
C188 C190 1.363 . S
C188 H204 0.931 . S
C189 C188 1.370 . S
C189 C193 1.408 . S
C190 C188 1.363 . S
C190 C191 1.370 . S
C190 C194 1.524 . S
C191 C183 1.503 . S
C191 C190 1.370 . S
C191 C192 1.403 . S
C192 C191 1.403 . S
C192 C193 1.404 . S
C192 C195 1.539 . S
C193 C189 1.408 . S
C193 C192 1.404 . S
C193 H205 0.930 . S
C194 C190 1.524 . S
C194 H206 0.956 . S
C194 H207 0.961 . S
C194 H208 0.961 . S
C195 C192 1.539 . S
C195 H209 0.958 . S
C195 H210 0.961 . S
C195 H211 0.960 . S
H196 C180 0.931 . S
H197 C185 0.929 . S
H198 C186 0.960 . S
H199 C186 0.962 . S
H200 C186 0.960 . S
H201 C187 0.961 . S
H202 C187 0.961 . S
H203 C187 0.961 1_556 S
H204 C188 0.931 . S
H205 C193 0.930 . S
H206 C194 0.956 . S
H207 C194 0.961 . S
H208 C194 0.961 . S
H209 C195 0.958 . S
H210 C195 0.961 . S
H211 C195 0.960 . S
C212 C213 1.391 . S
C212 C214 1.394 . S
C212 H228 0.931 . S
C213 C212 1.391 . S
C213 C217 1.376 . S
C214 C212 1.394 . S
C214 C215 1.369 . S
C214 C218 1.531 . S
C215 C214 1.369 . S
C215 C216 1.410 . S
C215 C223 1.503 . S
C216 C215 1.410 . S
C216 C217 1.392 . S
C216 C219 1.511 . S
C217 C213 1.376 . S
C217 C216 1.392 . S
C217 H229 0.929 . S
C218 C214 1.531 . S
C218 H230 0.960 . S
C218 H231 0.962 . S
C218 H232 0.960 . S
C219 C216 1.511 . S
C219 H233 0.961 . S
C219 H234 0.961 . S
C219 H235 0.961 . S
C220 C221 1.370 . S
C220 C222 1.363 . S
C220 H236 0.931 . S
C221 C220 1.370 . S
C221 C225 1.408 . S
C222 C220 1.363 . S
C222 C223 1.370 . S
C222 C226 1.524 . S
C223 C215 1.503 . S
C223 C222 1.370 . S
C223 C224 1.403 . S
C224 C223 1.403 . S
C224 C225 1.404 . S
C224 C227 1.539 . S
C225 C221 1.408 . S
C225 C224 1.404 . S
C225 H237 0.930 . S
C226 C222 1.524 . S
C226 H238 0.956 . S
C226 H239 0.961 . S
C226 H240 0.961 . S
C227 C224 1.539 . S
C227 H241 0.958 . S
C227 H242 0.961 . S
C227 H243 0.960 . S
H228 C212 0.931 . S
H229 C217 0.929 . S
H230 C218 0.960 . S
H231 C218 0.962 . S
H232 C218 0.960 . S
H233 C219 0.961 . S
H234 C219 0.961 . S
H235 C219 0.961 . S
H236 C220 0.931 . S
H237 C225 0.930 . S
H238 C226 0.956 . S
H239 C226 0.961 . S
H240 C226 0.961 . S
H241 C227 0.958 . S
H242 C227 0.961 . S
H243 C227 0.960 . S
C244 C245 1.391 . S
C244 C246 1.394 . S
C244 H260 0.931 . S
C245 C244 1.391 . S
C245 C249 1.376 . S
C246 C244 1.394 . S
C246 C247 1.369 . S
C246 C250 1.531 . S
C247 C246 1.369 . S
C247 C248 1.410 . S
C247 C255 1.503 . S
C248 C247 1.410 . S
C248 C249 1.392 . S
C248 C251 1.511 . S
C249 C245 1.376 . S
C249 C248 1.392 . S
C249 H261 0.929 . S
C250 C246 1.531 . S
C250 H262 0.960 . S
C250 H263 0.962 . S
C250 H264 0.960 . S
C251 C248 1.511 . S
C251 H265 0.961 . S
C251 H266 0.961 . S
C251 H267 0.961 . S
C252 C253 1.370 . S
C252 C254 1.363 . S
C252 H268 0.931 . S
C253 C252 1.370 . S
C253 C257 1.408 . S
C254 C252 1.363 . S
C254 C255 1.370 . S
C254 C258 1.524 . S
C255 C247 1.503 . S
C255 C254 1.370 . S
C255 C256 1.403 . S
C256 C255 1.403 . S
C256 C257 1.404 . S
C256 C259 1.539 . S
C257 C253 1.408 . S
C257 C256 1.404 . S
C257 H269 0.930 . S
C258 C254 1.524 . S
C258 H270 0.956 . S
C258 H271 0.961 . S
C258 H272 0.961 . S
C259 C256 1.539 . S
C259 H273 0.958 . S
C259 H274 0.961 . S
C259 H275 0.960 . S
H260 C244 0.931 . S
H261 C249 0.929 . S
H262 C250 0.960 . S
H263 C250 0.962 . S
H264 C250 0.960 . S
H265 C251 0.961 . S
H266 C251 0.961 . S
H267 C251 0.961 . S
H268 C252 0.931 . S
H269 C257 0.930 . S
H270 C258 0.956 . S
H271 C258 0.961 . S
H272 C258 0.961 . S
H273 C259 0.958 . S
H274 C259 0.961 . S
H275 C259 0.960 . S
C276 C277 1.391 . S
C276 C278 1.394 . S
C276 H292 0.931 . S
C277 C276 1.391 . S
C277 C281 1.376 . S
C278 C276 1.394 . S
C278 C279 1.369 . S
C278 C282 1.531 . S
C279 C278 1.369 . S
C279 C280 1.410 . S
C279 C287 1.503 . S
C280 C279 1.410 . S
C280 C281 1.392 . S
C280 C283 1.511 . S
C281 C277 1.376 . S
C281 C280 1.392 . S
C281 H293 0.929 . S
C282 C278 1.531 . S
C282 H294 0.960 . S
C282 H295 0.962 . S
C282 H296 0.960 . S
C283 C280 1.511 . S
C283 H297 0.967 . S
C283 H298 0.961 . S
C283 H299 0.961 . S
C284 C285 1.370 . S
C284 C286 1.363 . S
C284 H300 0.931 . S
C285 C284 1.370 . S
C285 C289 1.408 . S
C286 C284 1.363 . S
C286 C287 1.370 . S
C286 C290 1.524 . S
C287 C279 1.503 . S
C287 C286 1.370 . S
C287 C288 1.403 . S
C288 C287 1.403 . S
C288 C289 1.404 . S
C288 C291 1.539 . S
C289 C285 1.408 . S
C289 C288 1.404 . S
C289 H301 0.930 . S
C290 C286 1.524 . S
C290 H302 0.956 . S
C290 H303 0.961 . S
C290 H304 0.961 . S
C291 C288 1.539 . S
C291 H305 0.958 . S
C291 H306 0.961 . S
C291 H307 0.960 . S
H292 C276 0.931 . S
H293 C281 0.929 . S
H294 C282 0.960 . S
H295 C282 0.962 . S
H296 C282 0.960 . S
H297 C283 0.967 . S
H298 C283 0.961 . S
H299 C283 0.961 . S
H300 C284 0.931 . S
H301 C289 0.930 . S
H302 C290 0.956 . S
H303 C290 0.961 . S
H304 C290 0.961 . S
H305 C291 0.958 . S
H306 C291 0.961 . S
H307 C291 0.960 . S
C53 C5 1.453 . S
C61 C31 1.463 . S
C85 C16 1.460 1_565 S
C93 C42 1.465 1_565 S
C117 C3 1.465 . S
C125 C29 1.463 . S
C149 C18 1.459 1_565 S
C157 C44 1.461 1_565 S
C181 C23 1.550 . S
C189 C10 1.555 . S
C213 C17 1.552 . S
C221 C36 1.550 . S
C245 C43 1.549 . S
C253 C30 1.555 . S
C277 C49 1.551 . S
C285 C4 1.560 . S
