# Generated by pormake.
# Topology mon, (4)-cn, num edge types: 1
# Building blocks:
#     Node 0, Type 0, BuildingBlock: QUQFOY_clean_sbu_3, # of connection points: 4
#     Node 1, Type 0, BuildingBlock: QUQFOY_clean_sbu_3, # of connection points: 4
#     Node 2, Type 0, BuildingBlock: QUQFOY_clean_sbu_3, # of connection points: 4
#     Node 3, Type 0, BuildingBlock: QUQFOY_clean_sbu_3, # of connection points: 4
#     Node 4, Type 0, BuildingBlock: QUQFOY_clean_sbu_3, # of connection points: 4
#     Node 5, Type 0, BuildingBlock: QUQFOY_clean_sbu_3, # of connection points: 4
#     Node 6, Type 0, BuildingBlock: QUQFOY_clean_sbu_3, # of connection points: 4
#     Node 7, Type 0, BuildingBlock: QUQFOY_clean_sbu_3, # of connection points: 4
#     Node 8, Type 0, BuildingBlock: QUQFOY_clean_sbu_3, # of connection points: 4
#     Node 9, Type 0, BuildingBlock: QUQFOY_clean_sbu_3, # of connection points: 4
#     Node 10, Type 0, BuildingBlock: QUQFOY_clean_sbu_3, # of connection points: 4
#     Node 11, Type 0, BuildingBlock: QUQFOY_clean_sbu_3, # of connection points: 4
#     Node 12, Type 0, BuildingBlock: QUQFOY_clean_sbu_3, # of connection points: 4
#     Node 13, Type 0, BuildingBlock: QUQFOY_clean_sbu_3, # of connection points: 4
#     Node 14, Type 0, BuildingBlock: QUQFOY_clean_sbu_3, # of connection points: 4
#     Node 15, Type 0, BuildingBlock: QUQFOY_clean_sbu_3, # of connection points: 4
#     Edge 16, Type (0, 0), BuildingBlock: CIFDUS_clean_linker_0, # of connection points: 2
#     Edge 17, Type (0, 0), BuildingBlock: CIFDUS_clean_linker_0, # of connection points: 2
#     Edge 18, Type (0, 0), BuildingBlock: CIFDUS_clean_linker_0, # of connection points: 2
#     Edge 19, Type (0, 0), BuildingBlock: CIFDUS_clean_linker_0, # of connection points: 2
#     Edge 20, Type (0, 0), BuildingBlock: CIFDUS_clean_linker_0, # of connection points: 2
#     Edge 21, Type (0, 0), BuildingBlock: CIFDUS_clean_linker_0, # of connection points: 2
#     Edge 22, Type (0, 0), BuildingBlock: CIFDUS_clean_linker_0, # of connection points: 2
#     Edge 23, Type (0, 0), BuildingBlock: CIFDUS_clean_linker_0, # of connection points: 2
#     Edge 24, Type (0, 0), BuildingBlock: CIFDUS_clean_linker_0, # of connection points: 2
#     Edge 25, Type (0, 0), BuildingBlock: CIFDUS_clean_linker_0, # of connection points: 2
#     Edge 26, Type (0, 0), BuildingBlock: CIFDUS_clean_linker_0, # of connection points: 2
#     Edge 27, Type (0, 0), BuildingBlock: CIFDUS_clean_linker_0, # of connection points: 2
#     Edge 28, Type (0, 0), BuildingBlock: CIFDUS_clean_linker_0, # of connection points: 2
#     Edge 29, Type (0, 0), BuildingBlock: CIFDUS_clean_linker_0, # of connection points: 2
#     Edge 30, Type (0, 0), BuildingBlock: CIFDUS_clean_linker_0, # of connection points: 2
#     Edge 31, Type (0, 0), BuildingBlock: CIFDUS_clean_linker_0, # of connection points: 2
#     Edge 32, Type (0, 0), BuildingBlock: CIFDUS_clean_linker_0, # of connection points: 2
#     Edge 33, Type (0, 0), BuildingBlock: CIFDUS_clean_linker_0, # of connection points: 2
#     Edge 34, Type (0, 0), BuildingBlock: CIFDUS_clean_linker_0, # of connection points: 2
#     Edge 35, Type (0, 0), BuildingBlock: CIFDUS_clean_linker_0, # of connection points: 2
#     Edge 36, Type (0, 0), BuildingBlock: CIFDUS_clean_linker_0, # of connection points: 2
#     Edge 37, Type (0, 0), BuildingBlock: CIFDUS_clean_linker_0, # of connection points: 2
#     Edge 38, Type (0, 0), BuildingBlock: CIFDUS_clean_linker_0, # of connection points: 2
#     Edge 39, Type (0, 0), BuildingBlock: CIFDUS_clean_linker_0, # of connection points: 2
#     Edge 40, Type (0, 0), BuildingBlock: CIFDUS_clean_linker_0, # of connection points: 2
#     Edge 41, Type (0, 0), BuildingBlock: CIFDUS_clean_linker_0, # of connection points: 2
#     Edge 42, Type (0, 0), BuildingBlock: CIFDUS_clean_linker_0, # of connection points: 2
#     Edge 43, Type (0, 0), BuildingBlock: CIFDUS_clean_linker_0, # of connection points: 2
#     Edge 44, Type (0, 0), BuildingBlock: CIFDUS_clean_linker_0, # of connection points: 2
#     Edge 45, Type (0, 0), BuildingBlock: CIFDUS_clean_linker_0, # of connection points: 2
#     Edge 46, Type (0, 0), BuildingBlock: CIFDUS_clean_linker_0, # of connection points: 2
#     Edge 47, Type (0, 0), BuildingBlock: CIFDUS_clean_linker_0, # of connection points: 2
# Relax obj value: 0.180
# Max RMSD: 0.174
# Mean RMSD: 0.174
data_MOF--net-mon--node1-QUQFOY_clean_sbu_3--edge1-CIFDUS_clean_linker_0
_symmetry_space_group_name_H-M    P1
_symmetry_Int_Tables_number       1
_symmetry_cell_setting            triclinic
loop_
_symmetry_equiv_pos_as_xyz
'x, y, z'
_cell_length_a     31.32078
_cell_length_b     31.360823
_cell_length_c     77.035674
_cell_angle_alpha  89.673735
_cell_angle_beta   90.328198
_cell_angle_gamma 89.875751
loop_
_atom_site_label
_atom_site_type_symbol
_atom_site_fract_x
_atom_site_fract_y
_atom_site_fract_z
_atom_type_partial_charge
C0 C 0.06388 0.91888 0.56791 0.0
O1 O 0.04334 0.90113 0.55568 0.0
Cd2 Cd -0.01654 0.9258 0.54013 0.0
O3 O 0.05247 0.95533 0.57374 0.0
Cd4 Cd -0.00644 0.00794 0.56618 0.0
C5 C 0.91702 0.93474 0.57526 0.0
O6 O 0.00481 -0.00302 0.53653 0.0
O7 O 0.94615 0.02985 0.5406 0.0
O8 O 0.03987 0.06898 0.57266 0.0
C9 C 0.97248 0.01446 0.52988 0.0
O10 O 0.92456 0.91813 0.56053 0.0
C11 C 0.01137 0.08989 0.58066 0.0
O12 O 0.93951 0.96543 0.581 0.0
O13 O 0.97547 0.07177 0.58256 0.0
C14 C 0.26603 0.82602 0.81989 0.0
O15 O 0.28816 0.81736 0.8066 0.0
Cd16 Cd 0.27859 0.75303 0.79091 0.0
O17 O 0.2365 0.80095 0.82489 0.0
Cd18 Cd 0.20189 0.73408 0.81535 0.0
C19 C 0.29273 0.6819 0.82454 0.0
O20 O 0.20329 0.75361 0.78543 0.0
O21 O 0.1917 0.68678 0.78965 0.0
O22 O 0.13604 0.76709 0.82481 0.0
C23 C 0.19214 0.7182 0.77922 0.0
O24 O 0.30677 0.69599 0.81012 0.0
C25 C 0.12041 0.73336 0.83133 0.0
O26 O 0.25623 0.69296 0.83004 0.0
O27 O 0.14326 0.6999 0.83075 0.0
C28 C 0.39129 0.01073 0.08356 0.0
O29 O 0.39893 0.03344 0.07025 0.0
Cd30 Cd 0.45691 0.01985 0.0515 0.0
O31 O 0.4129 0.97707 0.08673 0.0
Cd32 Cd 0.4694 0.93574 0.07176 0.0
C33 C 0.53616 0.01312 0.0826 0.0
O34 O 0.44498 0.94822 0.04284 0.0
O35 O 0.5118 0.93257 0.04442 0.0
O36 O 0.42859 0.87189 0.07793 0.0
C37 C 0.4786 0.93725 0.03511 0.0
O38 O 0.52097 0.0329 0.06945 0.0
C39 C 0.46083 0.84906 0.08176 0.0
O40 O 0.52126 0.97723 0.08725 0.0
O41 O 0.497 0.8673 0.08175 0.0
C42 C 0.19642 0.15541 0.32779 0.0
O43 O 0.17361 0.16451 0.3146 0.0
Cd44 Cd 0.18668 0.22553 0.29696 0.0
O45 O 0.2286 0.1782 0.33178 0.0
Cd46 Cd 0.26817 0.23997 0.32005 0.0
C47 C 0.18499 0.30323 0.32849 0.0
O48 O 0.26065 0.21914 0.29049 0.0
O49 O 0.27758 0.28515 0.2937 0.0
O50 O 0.33053 0.19808 0.32756 0.0
C51 C 0.27309 0.25356 0.28367 0.0
O52 O 0.16829 0.28784 0.31477 0.0
C53 C 0.35253 0.22907 0.33311 0.0
O54 O 0.22049 0.28928 0.33429 0.0
O55 O 0.33461 0.26548 0.3332 0.0
C56 C 0.06124 -0.00043 0.3844 0.0
O57 O 0.06364 0.0168 0.39922 0.0
Cd58 Cd 0.00293 0.01545 0.41691 0.0
O59 O 0.03015 0.97501 0.38061 0.0
Cd60 Cd 0.96927 0.93872 0.3955 0.0
C61 C 0.92392 0.0298 0.38499 0.0
O62 O -0.00395 0.94249 0.42435 0.0
O63 O 0.92748 0.94025 0.42312 0.0
O64 O 0.00631 0.87448 0.38741 0.0
C65 C 0.96119 0.93852 0.4323 0.0
O66 O 0.94844 0.0441 0.39686 0.0
C67 C 0.97327 0.85277 0.38397 0.0
O68 O 0.92333 -0.00971 0.38136 0.0
O69 O 0.93743 0.87164 0.38524 0.0
C70 C 0.23589 0.79527 0.62496 0.0
O71 O 0.25549 0.80434 0.63878 0.0
Cd72 Cd 0.26571 0.72836 0.64565 0.0
O73 O 0.2349 0.75631 0.62078 0.0
Cd74 Cd 0.27681 0.71154 0.64425 0.0
C75 C 0.21942 0.65229 0.62676 0.0
O76 O 0.24566 0.73185 0.67365 0.0
O77 O 0.26184 0.66579 0.6707 0.0
O78 O 0.34003 0.7591 0.64512 0.0
C79 C 0.24722 0.69505 0.68031 0.0
O80 O 0.20452 0.68631 0.6331 0.0
C81 C 0.36657 0.7296 0.64191 0.0
O82 O 0.2592 0.64631 0.62822 0.0
O83 O 0.35152 0.69238 0.63996 0.0
C84 C 0.37332 0.9504 0.89463 0.0
O85 O 0.38357 0.92586 0.90717 0.0
Cd86 Cd 0.4469 0.93096 0.92416 0.0
O87 O 0.39618 -0.01739 0.89064 0.0
Cd88 Cd 0.46065 0.02028 0.90142 0.0
C89 C 0.51781 0.93338 0.88999 0.0
O90 O 0.44609 0.00424 0.93062 0.0
O91 O 0.50876 0.03022 0.92742 0.0
O92 O 0.42509 0.08767 0.89498 0.0
C93 C 0.48073 0.01543 0.9376 0.0
O94 O 0.50446 0.91424 0.90355 0.0
C95 C 0.45707 0.10393 0.88733 0.0
O96 O 0.50483 0.97056 0.8859 0.0
O97 O 0.49042 0.08101 0.88622 0.0
C98 C 0.26179 0.17064 0.1399 0.0
O99 O 0.28782 0.17915 0.15211 0.0
Cd100 Cd 0.28373 0.24019 0.17024 0.0
O101 O 0.22898 0.19385 0.13704 0.0
Cd102 Cd 0.19128 0.25588 0.14964 0.0
C103 C 0.275 0.3159 0.1374 0.0
O104 O 0.21146 0.23779 0.17819 0.0
O105 O 0.18282 0.29989 0.17654 0.0
O106 O 0.12779 0.21423 0.14433 0.0
C107 C 0.19972 0.27107 0.18594 0.0
O108 O 0.2958 0.30016 0.1502 0.0
C109 C 0.1057 0.24514 0.13845 0.0
O110 O 0.23739 0.30353 0.13368 0.0
O111 O 0.12377 0.28135 0.13757 0.0
C112 C 0.69266 0.31745 0.12998 0.0
O113 O 0.66752 0.31 0.14251 0.0
Cd114 Cd 0.67593 0.25157 0.16208 0.0
O115 O 0.72677 0.29581 0.12809 0.0
Cd116 Cd 0.76731 0.23948 0.14369 0.0
C117 C 0.68975 0.17339 0.13104 0.0
O118 O 0.74663 0.25849 0.1724 0.0
O119 O 0.77264 0.19526 0.17058 0.0
O120 O 0.83038 0.2829 0.13959 0.0
C121 C 0.7581 0.22469 0.18012 0.0
O122 O 0.66778 0.18883 0.1434 0.0
C123 C 0.85385 0.25238 0.13455 0.0
O124 O 0.72656 0.18785 0.12743 0.0
O125 O 0.83662 0.21583 0.13342 0.0
C126 C 0.77719 0.65576 0.64629 0.0
O127 O 0.80125 0.66404 0.65914 0.0
Cd128 Cd 0.79032 0.72451 0.67708 0.0
O129 O 0.74469 0.67902 0.64292 0.0
Cd130 Cd 0.70619 0.74087 0.65564 0.0
C131 C 0.78847 0.80386 0.64578 0.0
O132 O 0.71723 0.71897 0.68504 0.0
O133 O 0.69997 0.78517 0.6822 0.0
O134 O 0.64326 0.69951 0.64879 0.0
C135 C 0.70583 0.75331 0.69213 0.0
O136 O 0.80675 0.78714 0.65899 0.0
C137 C 0.62008 0.73094 0.64433 0.0
O138 O 0.75205 0.79091 0.64067 0.0
O139 O 0.63742 0.76754 0.64453 0.0
C140 C 0.75931 0.31062 0.33055 0.0
O141 O 0.78028 0.31093 0.31651 0.0
Cd142 Cd 0.77142 0.25562 0.29627 0.0
O143 O 0.72901 0.28413 0.33289 0.0
Cd144 Cd 0.68759 0.23079 0.31584 0.0
C145 C 0.77042 0.16803 0.32427 0.0
O146 O 0.69838 0.26255 0.28797 0.0
O147 O 0.68075 0.19639 0.28686 0.0
O148 O 0.62533 0.27112 0.32439 0.0
C149 C 0.68755 0.2311 0.27882 0.0
O150 O 0.79029 0.19228 0.31375 0.0
C151 C 0.60306 0.23903 0.32863 0.0
O152 O 0.73122 0.17407 0.32761 0.0
O153 O 0.62039 0.20257 0.32707 0.0
C154 C 0.73397 0.66054 0.83153 0.0
O155 O 0.70764 0.66762 0.81923 0.0
Cd156 Cd 0.70032 0.73213 0.80353 0.0
O157 O 0.76139 0.68851 0.83605 0.0
Cd158 Cd 0.78681 0.76003 0.82613 0.0
C159 C 0.6923 0.79985 0.83897 0.0
O160 O 0.77256 0.74278 0.79719 0.0
O161 O 0.78822 0.80882 0.79979 0.0
O162 O 0.85611 0.72968 0.83206 0.0
C163 C 0.77808 0.77829 0.78988 0.0
O164 O 0.67583 0.78318 0.82544 0.0
C165 C 0.87262 0.76368 0.83788 0.0
O166 O 0.73154 0.79461 0.84281 0.0
O167 O 0.84865 0.79637 0.83866 0.0
C168 C 0.54627 0.44593 0.06583 0.0
O169 O 0.54029 0.41999 0.05343 0.0
Cd170 Cd 0.48291 0.42491 0.03296 0.0
O171 O 0.52292 0.47897 0.06752 0.0
Cd172 Cd 0.46449 0.51789 0.0526 0.0
C173 C 0.40159 0.4341 0.06296 0.0
O174 O 0.48706 0.49734 0.02483 0.0
O175 O 0.4262 0.52895 0.02421 0.0
O176 O 0.50544 0.58092 0.05937 0.0
C177 C 0.45573 0.51043 0.01592 0.0
O178 O 0.41942 0.41268 0.05097 0.0
C179 C 0.47411 0.6017 0.06545 0.0
O180 O 0.41349 0.4718 0.06659 0.0
O181 O 0.4379 0.58345 0.06536 0.0
C182 C 0.90004 0.49118 0.58846 0.0
O183 O 0.89633 0.50752 0.57342 0.0
Cd184 Cd 0.95005 0.50081 0.55239 0.0
O185 O 0.92992 0.46455 0.59187 0.0
Cd186 Cd -0.01315 0.4247 0.57564 0.0
C187 C 0.03881 0.5166 0.57937 0.0
O188 O 0.95513 0.42683 0.5473 0.0
O189 O 0.02342 0.4213 0.54716 0.0
O190 O 0.95537 0.35864 0.58593 0.0
C191 C -0.01126 0.42164 0.5386 0.0
O192 O 0.01249 0.52962 0.5678 0.0
C193 C -0.0096 0.33949 0.58893 0.0
O194 O 0.03716 0.4786 0.58526 0.0
O195 O 0.02441 0.36078 0.58658 0.0
C196 C 0.59864 0.49484 0.87817 0.0
O197 O 0.58939 0.51731 0.89128 0.0
Cd198 Cd 0.52422 0.51169 0.90636 0.0
O199 O 0.57346 0.46561 0.87296 0.0
Cd200 Cd 0.50563 0.43347 0.88346 0.0
C201 C 0.45487 0.52217 0.87161 0.0
O202 O 0.52223 0.43806 0.91368 0.0
O203 O 0.45496 0.43434 0.90841 0.0
O204 O 0.53691 0.36448 0.87714 0.0
C205 C 0.48508 0.43247 0.91946 0.0
O206 O 0.46848 0.53711 0.88596 0.0
C207 C 0.5023 0.34766 0.87199 0.0
O208 O 0.46601 0.48529 0.86659 0.0
O209 O 0.46955 0.37155 0.87132 0.0
C210 C 0.90351 0.44238 0.39407 0.0
O211 O 0.9112 0.41748 0.40679 0.0
Cd212 Cd 0.96889 0.42574 0.42675 0.0
O213 O 0.92555 0.47603 0.39167 0.0
Cd214 Cd -0.01641 0.51743 0.40544 0.0
C215 C 0.04943 0.43523 0.39611 0.0
O216 O 0.96326 0.49828 0.43387 0.0
O217 O 0.02485 0.52795 0.43305 0.0
O218 O 0.93896 0.57928 0.39987 0.0
C219 C -0.00432 0.51099 0.44211 0.0
O220 O 0.03237 0.4151 0.40871 0.0
C221 C 0.96838 0.60214 0.39346 0.0
O222 O 0.03608 0.47193 0.39136 0.0
O223 O 0.00527 0.58532 0.39242 0.0
H224 H 0.953 0.14382 0.59446 0.0
H225 H 0.08423 0.13739 0.57788 0.0
H226 H 0.09121 0.21444 0.5815 0.0
H227 H 0.05716 0.28449 0.58565 0.0
H228 H 0.92464 0.2906 0.60046 0.0
H229 H 0.92124 0.21291 0.6015 0.0
C230 C -0.01661 0.15912 0.59193 0.0
C231 C 0.01788 0.13493 0.58572 0.0
C232 C -0.01316 0.20353 0.5936 0.0
C233 C 0.05706 0.15529 0.58257 0.0
C234 C 0.06104 0.1994 0.58458 0.0
C235 C 0.02784 0.2688 0.58949 0.0
C236 C -0.00889 0.29326 0.59283 0.0
C237 C 0.02573 0.22401 0.58954 0.0
C238 C 0.95328 0.27249 0.5977 0.0
C239 C 0.95126 0.22804 0.59825 0.0
H240 H 0.9266 0.69742 0.84303 0.0
H241 H 0.92195 0.83489 0.84095 0.0
H242 H -8e-05 0.83777 0.84107 0.0
H243 H 0.06843 0.8008 0.83741 0.0
H244 H 0.07272 0.66323 0.83903 0.0
H245 H -0.00423 0.66083 0.84372 0.0
C246 C 0.94268 0.72803 0.84292 0.0
C247 C 0.91872 0.76584 0.84165 0.0
C248 C -0.01264 0.7294 0.84274 0.0
C249 C 0.9398 0.80532 0.84181 0.0
C250 C -0.01565 0.80698 0.84178 0.0
C251 C 0.05261 0.77032 0.83908 0.0
C252 C 0.07599 0.73224 0.83753 0.0
C253 C 0.00834 0.76916 0.84155 0.0
C254 C 0.05531 0.693 0.84002 0.0
C255 C 0.0113 0.69158 0.84262 0.0
H256 H 0.41191 0.65643 0.07555 0.0
H257 H 0.54839 0.6458 0.06924 0.0
H258 H 0.55681 0.72091 0.07651 0.0
H259 H 0.52477 0.79099 0.08132 0.0
H260 H 0.38797 0.8027 0.08588 0.0
H261 H 0.38039 0.72556 0.08301 0.0
C262 C 0.44353 0.67044 0.07597 0.0
C263 C 0.47938 0.6458 0.07162 0.0
C264 C 0.44808 0.71382 0.07983 0.0
C265 C 0.5202 0.66426 0.07233 0.0
C266 C 0.52508 0.70719 0.0765 0.0
C267 C 0.49337 0.77658 0.08206 0.0
C268 C 0.45696 0.80245 0.08364 0.0
C269 C 0.48914 0.7325 0.07981 0.0
C270 C 0.41647 0.78339 0.08455 0.0
C271 C 0.41209 0.73934 0.08283 0.0
H272 H 0.5452 0.1763 0.33448 0.0
H273 H 0.55982 0.31315 0.33415 0.0
H274 H 0.48317 0.32205 0.33823 0.0
H275 H 0.41138 0.29121 0.33801 0.0
H276 H 0.39647 0.15447 0.3368 0.0
H277 H 0.47383 0.1453 0.33754 0.0
C278 C 0.5317 0.20804 0.33558 0.0
C279 C 0.55801 0.24398 0.33374 0.0
C280 C 0.48749 0.21298 0.33756 0.0
C281 C 0.54014 0.28493 0.33532 0.0
C282 C 0.4963 0.29008 0.33764 0.0
C283 C 0.42505 0.2594 0.33828 0.0
C284 C 0.39832 0.22363 0.33712 0.0
C285 C 0.46954 0.25437 0.3382 0.0
C286 C 0.41644 0.18257 0.33752 0.0
C287 C 0.46068 0.17728 0.33788 0.0
H288 H 0.9104 0.79338 0.3859 0.0
H289 H 0.04461 0.80849 0.37519 0.0
H290 H 0.05409 0.73128 0.37531 0.0
H291 H 0.02616 0.66018 0.38202 0.0
H292 H 0.89261 0.64514 0.39409 0.0
H293 H 0.88096 0.72141 0.38975 0.0
C294 C 0.9415 0.77972 0.38322 0.0
C295 C 0.9768 0.80656 0.38071 0.0
C296 C 0.947 0.73528 0.38379 0.0
C297 C 0.01697 0.78845 0.3773 0.0
C298 C 0.02248 0.7443 0.37743 0.0
C299 C -0.00561 0.67349 0.38346 0.0
C300 C 0.96047 0.64713 0.3886 0.0
C301 C -0.01197 0.71749 0.38125 0.0
C302 C 0.91942 0.66482 0.39031 0.0
C303 C 0.91269 0.70846 0.38784 0.0
H304 H 0.42953 0.672 0.63634 0.0
H305 H 0.40748 0.80604 0.64513 0.0
H306 H 0.48437 0.81908 0.64492 0.0
H307 H 0.55794 0.79152 0.64416 0.0
H308 H 0.5794 0.65694 0.63657 0.0
H309 H 0.50264 0.64512 0.63414 0.0
C310 C 0.44151 0.70413 0.6381 0.0
C311 C 0.41288 0.73792 0.64087 0.0
C312 C 0.48566 0.71131 0.63816 0.0
C313 C 0.4289 0.7794 0.64307 0.0
C314 C 0.47285 0.7869 0.64294 0.0
C315 C 0.54579 0.75974 0.6417 0.0
C316 C 0.57422 0.72514 0.6406 0.0
C317 C 0.50154 0.75299 0.64074 0.0
C318 C 0.5581 0.68407 0.63754 0.0
C319 C 0.51422 0.67725 0.6362 0.0
H320 H 0.43088 0.29952 0.87326 0.0
H321 H 0.5671 0.29183 0.86579 0.0
H322 H 0.56397 0.21411 0.86775 0.0
H323 H 0.52414 0.14974 0.87547 0.0
H324 H 0.38884 0.15809 0.8853 0.0
H325 H 0.38991 0.23422 0.87844 0.0
C326 C 0.45971 0.28076 0.87164 0.0
C327 C 0.49919 0.30125 0.86949 0.0
C328 C 0.45791 0.23631 0.87349 0.0
C329 C 0.53637 0.27666 0.86755 0.0
C330 C 0.53463 0.23229 0.86875 0.0
C331 C 0.49476 0.16808 0.87586 0.0
C332 C 0.45658 0.14848 0.88108 0.0
C333 C 0.49583 0.21195 0.87235 0.0
C334 C 0.41874 0.17259 0.88149 0.0
C335 C 0.41932 0.21609 0.87757 0.0
H336 H 0.04641 0.30717 0.1335 0.0
H337 H 0.06295 0.1705 0.13395 0.0
H338 H -0.01395 0.16083 0.1306 0.0
H339 H 0.91393 0.19101 0.1307 0.0
H340 H 0.89703 0.32757 0.13215 0.0
H341 H 0.97431 0.33751 0.13139 0.0
C342 C 0.03322 0.2753 0.13259 0.0
C343 C 0.06017 0.23962 0.13412 0.0
C344 C -0.01108 0.26996 0.13113 0.0
C345 C 0.04273 0.19849 0.13295 0.0
C346 C -0.00121 0.19292 0.13106 0.0
C347 C 0.92714 0.22296 0.13057 0.0
C348 C 0.89991 0.25847 0.13163 0.0
C349 C 0.97152 0.2284 0.13062 0.0
C350 C 0.91742 0.29969 0.13147 0.0
C351 C 0.96158 0.30541 0.13107 0.0
H352 H 0.90871 -0.01312 0.45253 0.0
H353 H 0.01544 0.89968 0.45411 0.0
H354 H 0.02734 0.9154 0.48466 0.0
H355 H 0.01212 0.95788 0.5097 0.0
H356 H 0.90644 0.04641 0.50956 0.0
H357 H 0.88962 0.02674 0.47939 0.0
C358 C 0.93375 0.97064 0.45977 0.0
C359 C 0.96116 0.94205 0.45125 0.0
C360 C 0.94121 -0.01916 0.47731 0.0
C361 C -0.00598 0.92166 0.46053 0.0
C362 C 0.00102 0.93087 0.47791 0.0
C363 C -0.01477 0.97304 0.50319 0.0
C364 C 0.96086 0.00401 0.51178 0.0
C365 C 0.97566 0.96124 0.48622 0.0
C366 C 0.9259 0.02275 0.50314 0.0
C367 C 0.91624 0.01136 0.48595 0.0
H368 H 0.22023 0.65201 0.75947 0.0
H369 H 0.15884 0.77515 0.7568 0.0
H370 H 0.16662 0.77644 0.72535 0.0
H371 H 0.1988 0.74732 0.6994 0.0
H372 H 0.26368 0.62596 0.70141 0.0
H373 H 0.24647 0.61892 0.73233 0.0
C374 C 0.20763 0.67847 0.75188 0.0
C375 C 0.18918 0.71354 0.76031 0.0
C376 C 0.21355 0.67966 0.7338 0.0
C377 C 0.17334 0.74796 0.75049 0.0
C378 C 0.17795 0.74882 0.73255 0.0
C379 C 0.2089 0.71911 0.70655 0.0
C380 C 0.2331 0.68758 0.69828 0.0
C381 C 0.19939 0.71564 0.72419 0.0
C382 C 0.24528 0.65084 0.70759 0.0
C383 C 0.23552 0.64686 0.72525 0.0
H384 H 0.53762 0.97765 0.01509 0.0
H385 H 0.42069 0.90543 0.01312 0.0
H386 H 0.41252 0.92188 0.98231 0.0
H387 H 0.43424 0.96215 0.9571 0.0
H388 H 0.54946 0.03728 0.95821 0.0
H389 H 0.56269 0.0147 -0.01162 0.0
C390 C 0.5111 0.96472 0.00771 0.0
C391 C 0.47983 0.94023 0.01615 0.0
C392 C 0.50581 0.97564 -0.0099 0.0
C393 C 0.44507 0.9242 0.00673 0.0
C394 C 0.44025 0.93385 -0.01079 0.0
C395 C 0.4624 0.97365 0.96386 0.0
C396 C 0.49053 0.00184 0.95555 0.0
C397 C 0.46965 0.96057 0.98095 0.0
C398 C 0.52714 0.01584 0.96443 0.0
C399 C 0.53472 0.00285 0.98163 0.0
H400 H 0.25338 0.2221 0.2046 0.0
H401 H 0.17701 0.33645 0.20775 0.0
H402 H 0.19844 0.34502 0.23825 0.0
H403 H 0.2342 0.31575 0.26462 0.0
H404 H 0.30684 0.19926 0.26081 0.0
H405 H 0.29245 0.19626 0.22969 0.0
C406 C 0.24141 0.24907 0.21189 0.0
C407 C 0.21316 0.27828 0.20405 0.0
C408 C 0.25363 0.25355 0.22921 0.0
C409 C 0.19851 0.31334 0.2136 0.0
C410 C 0.21083 0.31826 0.23099 0.0
C411 C 0.24774 0.29051 0.25679 0.0
C412 C 0.27176 0.25789 0.26477 0.0
C413 C 0.23786 0.28812 0.23901 0.0
C414 C 0.28849 0.22471 0.25476 0.0
C415 C 0.28001 0.22283 0.23706 0.0
H416 H 0.72048 0.28091 0.20141 0.0
H417 H 0.76921 0.15218 0.19984 0.0
H418 H 0.74751 0.14098 0.23005 0.0
H419 H 0.71679 0.16921 0.25725 0.0
H420 H 0.67121 0.29906 0.25839 0.0
H421 H 0.68869 0.30813 0.22778 0.0
C422 C 0.72642 0.25033 0.20763 0.0
C423 C 0.74658 0.21749 0.19844 0.0
C424 C 0.71394 0.24422 0.22485 0.0
C425 C 0.75393 0.17806 0.2067 0.0
C426 C 0.74136 0.17159 0.22392 0.0
C427 C 0.71002 0.19912 0.25064 0.0
C428 C 0.69255 0.2334 0.25991 0.0
C429 C 0.72143 0.20454 0.23315 0.0
C430 C 0.68457 0.27231 0.25141 0.0
C431 C 0.69475 0.27757 0.23398 0.0
H432 H 0.7367 0.81983 0.71113 0.0
H433 H 0.68249 0.69382 0.71522 0.0
H434 H 0.6981 0.69208 0.74622 0.0
H435 H 0.73287 0.72268 0.77113 0.0
H436 H 0.79019 0.84748 0.76812 0.0
H437 H 0.76781 0.8535 0.73753 0.0
C438 C 0.72752 0.79256 0.71897 0.0
C439 C 0.70853 0.75694 0.71106 0.0
C440 C 0.73787 0.79124 0.73676 0.0
C441 C 0.69721 0.72144 0.72115 0.0
C442 C 0.7063 0.72035 0.7388 0.0
C443 C 0.74048 0.75141 0.76388 0.0
C444 C 0.76369 0.78436 0.77177 0.0
C445 C 0.72771 0.75445 0.74657 0.0
C446 C 0.77262 0.82154 0.76224 0.0
C447 C 0.7598 0.82496 0.7448 0.0
H448 H 0.42298 0.47706 0.93612 0.0
H449 H 0.53307 0.39649 0.94448 0.0
H450 H 0.53191 0.41206 0.97544 0.0
H451 H 0.5045 0.45354 -0.0007 0.0
H452 H 0.39618 0.53695 -0.00828 0.0
H453 H 0.39175 0.51554 0.96114 0.0
C454 C 0.4459 0.46217 0.94486 0.0
C455 C 0.478 0.43558 0.9382 0.0
C456 C 0.44592 0.47248 0.9626 0.0
C457 C 0.5081 0.41697 0.94946 0.0
C458 C 0.50762 0.42607 0.96709 0.0
C459 C 0.47976 0.46707 -0.00898 0.0
C460 C 0.45107 0.49723 -0.00234 0.0
C461 C 0.47755 0.45474 0.97367 0.0
C462 C 0.41886 0.51392 -0.01318 0.0
C463 C 0.41629 0.50162 0.96938 0.0
H464 H 0.04886 0.46122 0.51888 0.0
H465 H 0.92506 0.40135 0.51651 0.0
H466 H 0.91669 0.42385 0.48632 0.0
H467 H 0.94224 0.46381 0.46144 0.0
H468 H 0.06495 0.52603 0.46331 0.0
H469 H 0.0759 0.49984 0.49309 0.0
C470 C 0.02051 0.45243 0.5116 0.0
C471 C -0.01234 0.42949 0.51978 0.0
C472 C 0.01537 0.4666 0.49438 0.0
C473 C 0.95073 0.41889 0.51039 0.0
C474 C 0.94582 0.43196 0.4932 0.0
C475 C 0.97145 0.47179 0.46832 0.0
C476 C 0.00263 0.49706 0.46024 0.0
C477 C 0.97751 0.45654 0.48522 0.0
C478 C 0.04034 0.50684 0.46932 0.0
C479 C 0.04668 0.49171 0.48628 0.0
H480 H 0.20185 0.78656 0.59299 0.0
H481 H 0.21448 0.87618 0.63495 0.0
H482 H 0.16422 0.92467 0.62041 0.0
H483 H 0.11119 0.938 0.597 0.0
H484 H 0.09984 0.84662 0.55543 0.0
H485 H 0.15504 0.80278 0.56859 0.0
C486 C 0.19407 0.81696 0.59886 0.0
C487 C 0.21142 0.82757 0.61506 0.0
C488 C 0.16493 0.84427 0.59058 0.0
C489 C 0.20142 0.86726 0.62244 0.0
C490 C 0.17249 0.89489 0.61419 0.0
C491 C 0.12116 0.90876 0.59075 0.0
C492 C 0.10072 0.89541 0.57542 0.0
C493 C 0.15314 0.88319 0.59845 0.0
C494 C 0.11436 0.85753 0.5674 0.0
C495 C 0.1461 0.8323 0.57487 0.0
H496 H 0.24497 0.83943 0.85345 0.0
H497 H 0.31508 0.89431 0.81075 0.0
H498 H 0.34803 0.94564 0.83037 0.0
H499 H 0.36701 0.96503 0.86016 0.0
H500 H 0.30279 0.90435 0.90305 0.0
H501 H 0.25663 0.86592 0.88286 0.0
C502 C 0.26665 0.8633 0.84835 0.0
C503 C 0.27826 0.86257 0.83077 0.0
C504 C 0.28681 0.89144 0.8598 0.0
C505 C 0.30622 0.8938 0.82433 0.0
C506 C 0.32511 0.92311 0.83553 0.0
C507 C 0.34199 0.94443 0.86507 0.0
C508 C 0.33855 0.93699 0.88299 0.0
C509 C 0.3172 0.92081 0.8534 0.0
C510 C 0.30622 0.91011 0.88924 0.0
C511 C 0.28002 0.888 0.87772 0.0
H512 H 0.32289 0.06129 0.07744 0.0
H513 H 0.39219 -0.00303 0.11849 0.0
H514 H 0.35311 0.03778 0.14019 0.0
H515 H 0.30827 0.09979 0.14699 0.0
H516 H 0.23893 0.16397 0.10589 0.0
H517 H 0.26857 0.11469 0.08467 0.0
C518 C 0.32872 0.05561 0.09116 0.0
C519 C 0.36085 0.02695 0.09641 0.0
C520 C 0.30655 0.07946 0.1035 0.0
C521 C 0.36768 0.0191 0.11417 0.0
C522 C 0.34561 0.04265 0.12657 0.0
C523 C 0.29909 0.10243 0.13342 0.0
C524 C 0.2723 0.13589 0.1279 0.0
C525 C 0.3164 0.0742 0.12131 0.0
C526 C 0.2598 0.13858 0.1104 0.0
C527 C 0.2769 0.11058 0.09825 0.0
H528 H 0.13727 0.03872 0.38899 0.0
H529 H 0.05106 -0.00631 0.34924 0.0
H530 H 0.08975 0.03459 0.32736 0.0
H531 H 0.13995 0.09228 0.32066 0.0
H532 H 0.22451 0.13886 0.36073 0.0
H533 H 0.19466 0.08792 0.38135 0.0
C534 C 0.12749 0.03714 0.37548 0.0
C535 C 0.09082 0.01407 0.37079 0.0
C536 C 0.14909 0.06157 0.36309 0.0
C537 C 0.07902 0.01151 0.3532 0.0
C538 C 0.10088 0.0352 0.34071 0.0
C539 C 0.15224 0.09089 0.33384 0.0
C540 C 0.1836 0.11999 0.33928 0.0
C541 C 0.13464 0.06188 0.34568 0.0
C542 C 0.19996 0.11717 0.35628 0.0
C543 C 0.18288 0.08811 0.36809 0.0
H544 H 0.84823 0.01621 0.36833 0.0
H545 H 0.94486 0.11149 0.3775 0.0
H546 H 0.9073 0.16141 0.35842 0.0
H547 H 0.84704 0.17828 0.33925 0.0
H548 H 0.74622 0.08669 0.33217 0.0
H549 H 0.78538 0.03471 0.35017 0.0
C550 C 0.86086 0.04796 0.36615 0.0
C551 C 0.89919 0.0602 0.37427 0.0
C552 C 0.83856 0.07693 0.35546 0.0
C553 C 0.91518 0.1015 0.3715 0.0
C554 C 0.8939 0.12997 0.36052 0.0
C555 C 0.83397 0.14673 0.34152 0.0
C556 C 0.7944 0.13578 0.33424 0.0
C557 C 0.85569 0.11799 0.3524 0.0
C558 C 0.77695 0.09541 0.33759 0.0
C559 C 0.79923 0.06587 0.34789 0.0
H560 H 0.59855 0.06788 0.07271 0.0
H561 H 0.54403 0.00604 0.11754 0.0
H562 H 0.58895 0.04868 0.13672 0.0
H563 H 0.63876 0.10828 0.14075 0.0
H564 H 0.69686 0.16713 0.09606 0.0
H565 H 0.65592 0.12065 0.07677 0.0
C566 C 0.59703 0.06345 0.08667 0.0
C567 C 0.56781 0.03437 0.09375 0.0
C568 C 0.62338 0.08762 0.09761 0.0
C569 C 0.56639 0.02829 0.11182 0.0
C570 C 0.59186 0.0528 0.1228 0.0
C571 C 0.64279 0.1104 0.12679 0.0
C572 C 0.6702 0.14118 0.11975 0.0
C573 C 0.61969 0.08325 0.11584 0.0
C574 C 0.67584 0.14348 0.1017 0.0
C575 C 0.6523 0.11714 0.09069 0.0
H576 H 0.62504 0.84977 0.83031 0.0
H577 H 0.69811 0.80354 0.87416 0.0
H578 H 0.64961 0.83981 0.89405 0.0
H579 H 0.5854 0.88371 0.89891 0.0
H580 H 0.5164 0.9349 0.85489 0.0
H581 H 0.56419 0.89764 0.83507 0.0
C582 C 0.63031 0.84781 0.84423 0.0
C583 C 0.66474 0.82394 0.85082 0.0
C584 C 0.60297 0.86948 0.85551 0.0
C585 C 0.67178 0.82197 0.86883 0.0
C586 C 0.644 0.84249 0.88019 0.0
C587 C 0.58098 0.88655 0.88497 0.0
C588 C 0.54745 0.91154 0.87829 0.0
C589 C 0.60933 0.86612 0.87368 0.0
C590 C 0.54218 0.91576 0.86025 0.0
C591 C 0.56938 0.89446 0.84894 0.0
H592 H 0.7773 0.82283 0.61171 0.0
H593 H 0.85187 0.85688 0.65679 0.0
H594 H 0.89513 0.90497 0.63909 0.0
H595 H 0.91593 0.93197 0.61039 0.0
H596 H 0.8454 0.89261 0.56499 0.0
H597 H 0.79603 0.85233 0.58323 0.0
C598 C 0.80259 0.84129 0.6177 0.0
C599 C 0.81148 0.83627 0.6355 0.0
C600 C 0.82818 0.86773 0.60736 0.0
C601 C 0.84462 0.86003 0.64307 0.0
C602 C 0.86935 0.88751 0.63297 0.0
C603 C 0.88928 0.91519 0.60454 0.0
C604 C 0.88424 0.91518 0.5864 0.0
C605 C 0.86203 0.89085 0.61504 0.0
C606 C 0.84996 0.89287 0.57894 0.0
C607 C 0.8218 0.86981 0.58935 0.0
H608 H 0.63974 0.38518 0.13334 0.0
H609 H 0.71425 0.31613 0.09581 0.0
H610 H 0.67845 0.3544 0.07217 0.0
H611 H 0.61826 0.39889 0.0623 0.0
H612 H 0.54442 0.46861 0.09984 0.0
H613 H 0.58809 0.43909 0.12337 0.0
C614 C 0.64872 0.37921 0.11998 0.0
C615 C 0.67886 0.34739 0.11626 0.0
C616 C 0.62782 0.40104 0.10648 0.0
C617 C 0.69092 0.3404 0.09897 0.0
C618 C 0.67025 0.36201 0.08544 0.0
C619 C 0.61228 0.40815 0.07562 0.0
C620 C 0.57774 0.43507 0.07941 0.0
C621 C 0.63742 0.39103 0.08906 0.0
C622 C 0.57073 0.44765 0.09664 0.0
C623 C 0.59552 0.43063 0.1101 0.0
H624 H 0.80395 0.38395 0.32788 0.0
H625 H 0.74692 0.29869 0.36526 0.0
H626 H 0.78319 0.336 0.38886 0.0
H627 H 0.83885 0.38597 0.39821 0.0
H628 H 0.89611 0.47082 0.36069 0.0
H629 H 0.85147 0.44083 0.33778 0.0
C630 C 0.79892 0.37401 0.34122 0.0
C631 C 0.77356 0.3382 0.34484 0.0
C632 C 0.82018 0.39522 0.35465 0.0
C633 C 0.76653 0.32608 0.36217 0.0
C634 C 0.78746 0.3472 0.37564 0.0
C635 C 0.8411 0.3983 0.38506 0.0
C636 C 0.87131 0.42988 0.38106 0.0
C637 C 0.81561 0.38072 0.37194 0.0
C638 C 0.87331 0.44626 0.36407 0.0
C639 C 0.84795 0.42901 0.35095 0.0
H640 H 0.82616 0.53535 0.58489 0.0
H641 H 0.91476 0.48743 0.62348 0.0
H642 H 0.8809 0.53158 0.64555 0.0
H643 H 0.83341 0.59136 0.65266 0.0
H644 H 0.74622 0.6404 0.61373 0.0
H645 H 0.77228 0.58804 0.593 0.0
C646 C 0.83758 0.53392 0.59821 0.0
C647 C 0.87342 0.50878 0.60248 0.0
C648 C 0.8187 0.56011 0.61068 0.0
C649 C 0.88734 0.50666 0.61983 0.0
C650 C 0.86825 0.53221 0.63242 0.0
C651 C 0.81977 0.5903 0.6397 0.0
C652 C 0.78857 0.62032 0.63463 0.0
C653 C 0.83512 0.56034 0.6278 0.0
C654 C 0.77057 0.61795 0.61791 0.0
C655 C 0.7855 0.58806 0.60603 0.0
H656 H 0.70049 0.5858 0.8209 0.0
H657 H 0.75379 0.64851 0.86575 0.0
H658 H 0.72324 0.59396 0.88468 0.0
H659 H 0.66771 0.53979 0.88856 0.0
H660 H 0.61119 0.47985 0.84371 0.0
H661 H 0.65762 0.52114 0.82466 0.0
C662 C 0.70638 0.5868 0.83479 0.0
C663 C 0.7281 0.62167 0.84202 0.0
C664 C 0.68768 0.55615 0.84558 0.0
C665 C 0.73664 0.62219 0.85993 0.0
C666 C 0.71889 0.59121 0.87077 0.0
C667 C 0.66644 0.53491 0.87464 0.0
C668 C 0.63522 0.50797 0.86748 0.0
C669 C 0.69218 0.55972 0.86378 0.0
C670 C 0.63458 0.50091 0.8495 0.0
C671 C 0.66087 0.52478 0.83859 0.0
H672 H 0.3969 0.58102 0.88176 0.0
H673 H 0.45007 0.52171 0.83635 0.0
H674 H 0.40535 0.56669 0.8176 0.0
H675 H 0.3514 0.62351 0.81415 0.0
H676 H 0.29434 0.67845 0.8597 0.0
H677 H 0.34017 0.63461 0.87836 0.0
C678 C 0.39865 0.57803 0.86775 0.0
C679 C 0.42683 0.54842 0.86041 0.0
C680 C 0.37214 0.60319 0.85709 0.0
C681 C 0.42845 0.5443 0.84227 0.0
C682 C 0.40302 0.57006 0.83155 0.0
C683 C 0.34911 0.62579 0.82816 0.0
C684 C 0.31981 0.65422 0.83556 0.0
C685 C 0.37481 0.59971 0.83882 0.0
C686 C 0.31662 0.65659 0.85372 0.0
C687 C 0.34287 0.63167 0.8644 0.0
H688 H 0.11542 0.49913 0.59482 0.0
H689 H 0.03115 0.60275 0.5805 0.0
H690 H 0.0795 0.65372 0.59401 0.0
H691 H 0.14471 0.66884 0.61051 0.0
H692 H 0.23178 0.56659 0.62331 0.0
H693 H 0.18347 0.51504 0.60976 0.0
C694 C 0.10779 0.53288 0.59464 0.0
C695 C 0.06969 0.54712 0.58676 0.0
C696 C 0.13614 0.5622 0.60218 0.0
C697 C 0.06037 0.59099 0.58642 0.0
C698 C 0.08789 0.62017 0.59421 0.0
C699 C 0.15305 0.63525 0.61032 0.0
C700 C 0.19139 0.62135 0.61801 0.0
C701 C 0.12567 0.6061 0.60222 0.0
C702 C 0.20232 0.57792 0.61745 0.0
C703 C 0.1747 0.54849 0.60975 0.0
H704 H 0.05928 0.43711 0.36129 0.0
H705 H 0.11281 0.38382 0.40834 0.0
H706 H 0.16311 0.34147 0.39137 0.0
H707 H 0.1875 0.31523 0.36319 0.0
H708 H 0.12853 0.36251 0.31613 0.0
H709 H 0.08476 0.41177 0.333 0.0
C710 C 0.08252 0.41676 0.36778 0.0
C711 C 0.08271 0.41364 0.38598 0.0
C712 C 0.10999 0.3912 0.35793 0.0
C713 C 0.11225 0.38661 0.39431 0.0
C714 C 0.14088 0.36239 0.38463 0.0
C715 C 0.1655 0.33678 0.35663 0.0
C716 C 0.16124 0.33542 0.33847 0.0
C717 C 0.13941 0.36377 0.36643 0.0
C718 C 0.13218 0.36297 0.33012 0.0
C719 C 0.1072 0.3911 0.33975 0.0
H720 H 0.3926 0.44445 0.09735 0.0
H721 H 0.34126 0.37589 0.05363 0.0
H722 H 0.29336 0.33647 0.07295 0.0
H723 H 0.27047 0.31782 0.1025 0.0
H724 H 0.32866 0.38018 0.14637 0.0
H725 H 0.3695 0.42619 0.1268 0.0
C726 C 0.37038 0.42136 0.09205 0.0
C727 C 0.37 0.41317 0.07415 0.0
C728 C 0.34451 0.39768 0.10328 0.0
C729 C 0.34189 0.3826 0.0674 0.0
C730 C 0.31463 0.36012 0.07843 0.0
C731 C 0.29162 0.342 0.10771 0.0
C732 C 0.29651 0.34608 0.12575 0.0
C733 C 0.31626 0.36686 0.09641 0.0
C734 C 0.32455 0.37672 0.13247 0.0
C735 C 0.34784 0.4029 0.12131 0.0
loop_
_geom_bond_atom_site_label_1
_geom_bond_atom_site_label_2
_geom_bond_distance
_geom_bond_site_symmetry_2
_ccdc_geom_bond_type
C0 O1 1.306 . S
C0 O3 1.160 1_565 S
O1 C0 1.306 . S
O1 Cd2 2.228 . S
Cd2 O1 2.228 . S
Cd2 O6 2.273 1_565 S
Cd2 O10 2.277 1_455 S
O3 C0 1.160 1_545 S
O3 Cd4 2.203 1_455 S
Cd4 O3 2.203 1_655 S
Cd4 O6 2.411 1_655 S
Cd4 O7 2.333 . S
Cd4 O8 2.352 1_655 S
Cd4 O12 2.277 . S
Cd4 O13 2.356 . S
C5 O10 1.209 . S
C5 O12 1.226 1_565 S
O6 Cd2 2.273 1_545 S
O6 Cd4 2.411 1_455 S
O6 C9 1.320 1_455 S
O7 Cd4 2.333 . S
O7 C9 1.214 . S
O8 Cd4 2.352 1_455 S
O8 C11 1.258 . S
C9 O6 1.320 1_655 S
C9 O7 1.214 . S
O10 Cd2 2.277 1_655 S
O10 C5 1.209 . S
C11 O8 1.258 . S
C11 O13 1.282 1_455 S
O12 Cd4 2.277 . S
O12 C5 1.226 1_545 S
O13 Cd4 2.356 . S
O13 C11 1.282 1_655 S
C14 O15 1.306 . S
C14 O17 1.160 . S
O15 C14 1.306 . S
O15 Cd16 2.228 . S
Cd16 O15 2.228 . S
Cd16 O20 2.273 . S
Cd16 O24 2.277 . S
O17 C14 1.160 . S
O17 Cd18 2.203 . S
Cd18 O17 2.203 . S
Cd18 O20 2.411 . S
Cd18 O21 2.333 . S
Cd18 O22 2.352 . S
Cd18 O26 2.277 . S
Cd18 O27 2.356 . S
C19 O24 1.209 . S
C19 O26 1.226 . S
O20 Cd16 2.273 . S
O20 Cd18 2.411 . S
O20 C23 1.320 . S
O21 Cd18 2.333 . S
O21 C23 1.214 . S
O22 Cd18 2.352 . S
O22 C25 1.258 . S
C23 O20 1.320 . S
C23 O21 1.214 . S
O24 Cd16 2.277 . S
O24 C19 1.209 . S
C25 O22 1.258 . S
C25 O27 1.282 . S
O26 Cd18 2.277 . S
O26 C19 1.226 . S
O27 Cd18 2.356 . S
O27 C25 1.282 . S
C28 O29 1.306 . S
C28 O31 1.160 1_545 S
O29 C28 1.306 . S
O29 Cd30 2.228 . S
Cd30 O29 2.228 . S
Cd30 O34 2.273 1_545 S
Cd30 O38 2.277 . S
O31 C28 1.160 1_565 S
O31 Cd32 2.203 . S
Cd32 O31 2.203 . S
Cd32 O34 2.411 . S
Cd32 O35 2.333 . S
Cd32 O36 2.352 . S
Cd32 O40 2.277 . S
Cd32 O41 2.356 . S
C33 O38 1.209 . S
C33 O40 1.226 1_545 S
O34 Cd30 2.273 1_565 S
O34 Cd32 2.411 . S
O34 C37 1.320 . S
O35 Cd32 2.333 . S
O35 C37 1.214 . S
O36 Cd32 2.352 . S
O36 C39 1.258 . S
C37 O34 1.320 . S
C37 O35 1.214 . S
O38 Cd30 2.277 . S
O38 C33 1.209 . S
C39 O36 1.258 . S
C39 O41 1.282 . S
O40 Cd32 2.277 . S
O40 C33 1.226 1_565 S
O41 Cd32 2.356 . S
O41 C39 1.282 . S
C42 O43 1.306 . S
C42 O45 1.160 . S
O43 C42 1.306 . S
O43 Cd44 2.228 . S
Cd44 O43 2.228 . S
Cd44 O48 2.273 . S
Cd44 O52 2.277 . S
O45 C42 1.160 . S
O45 Cd46 2.203 . S
Cd46 O45 2.203 . S
Cd46 O48 2.411 . S
Cd46 O49 2.333 . S
Cd46 O50 2.352 . S
Cd46 O54 2.277 . S
Cd46 O55 2.356 . S
C47 O52 1.209 . S
C47 O54 1.226 . S
O48 Cd44 2.273 . S
O48 Cd46 2.411 . S
O48 C51 1.320 . S
O49 Cd46 2.333 . S
O49 C51 1.214 . S
O50 Cd46 2.352 . S
O50 C53 1.258 . S
C51 O48 1.320 . S
C51 O49 1.214 . S
O52 Cd44 2.277 . S
O52 C47 1.209 . S
C53 O50 1.258 . S
C53 O55 1.282 . S
O54 Cd46 2.277 . S
O54 C47 1.226 . S
O55 Cd46 2.356 . S
O55 C53 1.282 . S
C56 O57 1.306 . S
C56 O59 1.160 1_545 S
O57 C56 1.306 . S
O57 Cd58 2.228 . S
Cd58 O57 2.228 . S
Cd58 O62 2.273 1_545 S
Cd58 O66 2.277 1_455 S
O59 C56 1.160 1_565 S
O59 Cd60 2.203 1_455 S
Cd60 O59 2.203 1_655 S
Cd60 O62 2.411 1_655 S
Cd60 O63 2.333 . S
Cd60 O64 2.352 1_655 S
Cd60 O68 2.277 . S
Cd60 O69 2.356 . S
C61 O66 1.209 . S
C61 O68 1.226 1_545 S
O62 Cd58 2.273 1_565 S
O62 Cd60 2.411 1_455 S
O62 C65 1.320 1_455 S
O63 Cd60 2.333 . S
O63 C65 1.214 . S
O64 Cd60 2.352 1_455 S
O64 C67 1.258 . S
C65 O62 1.320 1_655 S
C65 O63 1.214 . S
O66 Cd58 2.277 1_655 S
O66 C61 1.209 . S
C67 O64 1.258 . S
C67 O69 1.282 1_455 S
O68 Cd60 2.277 . S
O68 C61 1.226 1_565 S
O69 Cd60 2.356 . S
O69 C67 1.282 1_655 S
C70 O71 1.306 . S
C70 O73 1.160 . S
O71 C70 1.306 . S
O71 Cd72 2.228 . S
Cd72 O71 2.228 . S
Cd72 O76 2.273 . S
Cd72 O80 2.277 . S
O73 C70 1.160 . S
O73 Cd74 2.203 . S
Cd74 O73 2.203 . S
Cd74 O76 2.411 . S
Cd74 O77 2.333 . S
Cd74 O78 2.352 . S
Cd74 O82 2.277 . S
Cd74 O83 2.356 . S
C75 O80 1.209 . S
C75 O82 1.226 . S
O76 Cd72 2.273 . S
O76 Cd74 2.411 . S
O76 C79 1.320 . S
O77 Cd74 2.333 . S
O77 C79 1.214 . S
O78 Cd74 2.352 . S
O78 C81 1.258 . S
C79 O76 1.320 . S
C79 O77 1.214 . S
O80 Cd72 2.277 . S
O80 C75 1.209 . S
C81 O78 1.258 . S
C81 O83 1.282 . S
O82 Cd74 2.277 . S
O82 C75 1.226 . S
O83 Cd74 2.356 . S
O83 C81 1.282 . S
C84 O85 1.306 . S
C84 O87 1.160 1_565 S
O85 C84 1.306 . S
O85 Cd86 2.228 . S
Cd86 O85 2.228 . S
Cd86 O90 2.273 1_565 S
Cd86 O94 2.277 . S
O87 C84 1.160 1_545 S
O87 Cd88 2.203 . S
Cd88 O87 2.203 . S
Cd88 O90 2.411 . S
Cd88 O91 2.333 . S
Cd88 O92 2.352 . S
Cd88 O96 2.277 . S
Cd88 O97 2.356 . S
C89 O94 1.209 . S
C89 O96 1.226 1_565 S
O90 Cd86 2.273 1_545 S
O90 Cd88 2.411 . S
O90 C93 1.320 . S
O91 Cd88 2.333 . S
O91 C93 1.214 . S
O92 Cd88 2.352 . S
O92 C95 1.258 . S
C93 O90 1.320 . S
C93 O91 1.214 . S
O94 Cd86 2.277 . S
O94 C89 1.209 . S
C95 O92 1.258 . S
C95 O97 1.282 . S
O96 Cd88 2.277 . S
O96 C89 1.226 1_545 S
O97 Cd88 2.356 . S
O97 C95 1.282 . S
C98 O99 1.306 . S
C98 O101 1.160 . S
O99 C98 1.306 . S
O99 Cd100 2.228 . S
Cd100 O99 2.228 . S
Cd100 O104 2.273 . S
Cd100 O108 2.277 . S
O101 C98 1.160 . S
O101 Cd102 2.203 . S
Cd102 O101 2.203 . S
Cd102 O104 2.411 . S
Cd102 O105 2.333 . S
Cd102 O106 2.352 . S
Cd102 O110 2.277 . S
Cd102 O111 2.356 . S
C103 O108 1.209 . S
C103 O110 1.226 . S
O104 Cd100 2.273 . S
O104 Cd102 2.411 . S
O104 C107 1.320 . S
O105 Cd102 2.333 . S
O105 C107 1.214 . S
O106 Cd102 2.352 . S
O106 C109 1.258 . S
C107 O104 1.320 . S
C107 O105 1.214 . S
O108 Cd100 2.277 . S
O108 C103 1.209 . S
C109 O106 1.258 . S
C109 O111 1.282 . S
O110 Cd102 2.277 . S
O110 C103 1.226 . S
O111 Cd102 2.356 . S
O111 C109 1.282 . S
C112 O113 1.306 . S
C112 O115 1.160 . S
O113 C112 1.306 . S
O113 Cd114 2.228 . S
Cd114 O113 2.228 . S
Cd114 O118 2.273 . S
Cd114 O122 2.277 . S
O115 C112 1.160 . S
O115 Cd116 2.203 . S
Cd116 O115 2.203 . S
Cd116 O118 2.411 . S
Cd116 O119 2.333 . S
Cd116 O120 2.352 . S
Cd116 O124 2.277 . S
Cd116 O125 2.356 . S
C117 O122 1.209 . S
C117 O124 1.226 . S
O118 Cd114 2.273 . S
O118 Cd116 2.411 . S
O118 C121 1.320 . S
O119 Cd116 2.333 . S
O119 C121 1.214 . S
O120 Cd116 2.352 . S
O120 C123 1.258 . S
C121 O118 1.320 . S
C121 O119 1.214 . S
O122 Cd114 2.277 . S
O122 C117 1.209 . S
C123 O120 1.258 . S
C123 O125 1.282 . S
O124 Cd116 2.277 . S
O124 C117 1.226 . S
O125 Cd116 2.356 . S
O125 C123 1.282 . S
C126 O127 1.306 . S
C126 O129 1.160 . S
O127 C126 1.306 . S
O127 Cd128 2.228 . S
Cd128 O127 2.228 . S
Cd128 O132 2.273 . S
Cd128 O136 2.277 . S
O129 C126 1.160 . S
O129 Cd130 2.203 . S
Cd130 O129 2.203 . S
Cd130 O132 2.411 . S
Cd130 O133 2.333 . S
Cd130 O134 2.352 . S
Cd130 O138 2.277 . S
Cd130 O139 2.356 . S
C131 O136 1.209 . S
C131 O138 1.226 . S
O132 Cd128 2.273 . S
O132 Cd130 2.411 . S
O132 C135 1.320 . S
O133 Cd130 2.333 . S
O133 C135 1.214 . S
O134 Cd130 2.352 . S
O134 C137 1.258 . S
C135 O132 1.320 . S
C135 O133 1.214 . S
O136 Cd128 2.277 . S
O136 C131 1.209 . S
C137 O134 1.258 . S
C137 O139 1.282 . S
O138 Cd130 2.277 . S
O138 C131 1.226 . S
O139 Cd130 2.356 . S
O139 C137 1.282 . S
C140 O141 1.306 . S
C140 O143 1.160 . S
O141 C140 1.306 . S
O141 Cd142 2.228 . S
Cd142 O141 2.228 . S
Cd142 O146 2.273 . S
Cd142 O150 2.277 . S
O143 C140 1.160 . S
O143 Cd144 2.203 . S
Cd144 O143 2.203 . S
Cd144 O146 2.411 . S
Cd144 O147 2.333 . S
Cd144 O148 2.352 . S
Cd144 O152 2.277 . S
Cd144 O153 2.356 . S
C145 O150 1.209 . S
C145 O152 1.226 . S
O146 Cd142 2.273 . S
O146 Cd144 2.411 . S
O146 C149 1.320 . S
O147 Cd144 2.333 . S
O147 C149 1.214 . S
O148 Cd144 2.352 . S
O148 C151 1.258 . S
C149 O146 1.320 . S
C149 O147 1.214 . S
O150 Cd142 2.277 . S
O150 C145 1.209 . S
C151 O148 1.258 . S
C151 O153 1.282 . S
O152 Cd144 2.277 . S
O152 C145 1.226 . S
O153 Cd144 2.356 . S
O153 C151 1.282 . S
C154 O155 1.306 . S
C154 O157 1.160 . S
O155 C154 1.306 . S
O155 Cd156 2.228 . S
Cd156 O155 2.228 . S
Cd156 O160 2.273 . S
Cd156 O164 2.277 . S
O157 C154 1.160 . S
O157 Cd158 2.203 . S
Cd158 O157 2.203 . S
Cd158 O160 2.411 . S
Cd158 O161 2.333 . S
Cd158 O162 2.352 . S
Cd158 O166 2.277 . S
Cd158 O167 2.356 . S
C159 O164 1.209 . S
C159 O166 1.226 . S
O160 Cd156 2.273 . S
O160 Cd158 2.411 . S
O160 C163 1.320 . S
O161 Cd158 2.333 . S
O161 C163 1.214 . S
O162 Cd158 2.352 . S
O162 C165 1.258 . S
C163 O160 1.320 . S
C163 O161 1.214 . S
O164 Cd156 2.277 . S
O164 C159 1.209 . S
C165 O162 1.258 . S
C165 O167 1.282 . S
O166 Cd158 2.277 . S
O166 C159 1.226 . S
O167 Cd158 2.356 . S
O167 C165 1.282 . S
C168 O169 1.306 . S
C168 O171 1.160 . S
O169 C168 1.306 . S
O169 Cd170 2.228 . S
Cd170 O169 2.228 . S
Cd170 O174 2.273 . S
Cd170 O178 2.277 . S
O171 C168 1.160 . S
O171 Cd172 2.203 . S
Cd172 O171 2.203 . S
Cd172 O174 2.411 . S
Cd172 O175 2.333 . S
Cd172 O176 2.352 . S
Cd172 O180 2.277 . S
Cd172 O181 2.356 . S
C173 O178 1.209 . S
C173 O180 1.226 . S
O174 Cd170 2.273 . S
O174 Cd172 2.411 . S
O174 C177 1.320 . S
O175 Cd172 2.333 . S
O175 C177 1.214 . S
O176 Cd172 2.352 . S
O176 C179 1.258 . S
C177 O174 1.320 . S
C177 O175 1.214 . S
O178 Cd170 2.277 . S
O178 C173 1.209 . S
C179 O176 1.258 . S
C179 O181 1.282 . S
O180 Cd172 2.277 . S
O180 C173 1.226 . S
O181 Cd172 2.356 . S
O181 C179 1.282 . S
C182 O183 1.306 . S
C182 O185 1.160 . S
O183 C182 1.306 . S
O183 Cd184 2.228 . S
Cd184 O183 2.228 . S
Cd184 O188 2.273 . S
Cd184 O192 2.277 1_655 S
O185 C182 1.160 . S
O185 Cd186 2.203 1_655 S
Cd186 O185 2.203 1_455 S
Cd186 O188 2.411 1_455 S
Cd186 O189 2.333 . S
Cd186 O190 2.352 1_455 S
Cd186 O194 2.277 . S
Cd186 O195 2.356 . S
C187 O192 1.209 . S
C187 O194 1.226 . S
O188 Cd184 2.273 . S
O188 Cd186 2.411 1_655 S
O188 C191 1.320 1_655 S
O189 Cd186 2.333 . S
O189 C191 1.214 . S
O190 Cd186 2.352 1_655 S
O190 C193 1.258 . S
C191 O188 1.320 1_455 S
C191 O189 1.214 . S
O192 Cd184 2.277 1_455 S
O192 C187 1.209 . S
C193 O190 1.258 . S
C193 O195 1.282 1_655 S
O194 Cd186 2.277 . S
O194 C187 1.226 . S
O195 Cd186 2.356 . S
O195 C193 1.282 1_455 S
C196 O197 1.306 . S
C196 O199 1.160 . S
O197 C196 1.306 . S
O197 Cd198 2.228 . S
Cd198 O197 2.228 . S
Cd198 O202 2.273 . S
Cd198 O206 2.277 . S
O199 C196 1.160 . S
O199 Cd200 2.203 . S
Cd200 O199 2.203 . S
Cd200 O202 2.411 . S
Cd200 O203 2.333 . S
Cd200 O204 2.352 . S
Cd200 O208 2.277 . S
Cd200 O209 2.356 . S
C201 O206 1.209 . S
C201 O208 1.226 . S
O202 Cd198 2.273 . S
O202 Cd200 2.411 . S
O202 C205 1.320 . S
O203 Cd200 2.333 . S
O203 C205 1.214 . S
O204 Cd200 2.352 . S
O204 C207 1.258 . S
C205 O202 1.320 . S
C205 O203 1.214 . S
O206 Cd198 2.277 . S
O206 C201 1.209 . S
C207 O204 1.258 . S
C207 O209 1.282 . S
O208 Cd200 2.277 . S
O208 C201 1.226 . S
O209 Cd200 2.356 . S
O209 C207 1.282 . S
C210 O211 1.306 . S
C210 O213 1.160 . S
O211 C210 1.306 . S
O211 Cd212 2.228 . S
Cd212 O211 2.228 . S
Cd212 O216 2.273 . S
Cd212 O220 2.277 1_655 S
O213 C210 1.160 . S
O213 Cd214 2.203 1_655 S
Cd214 O213 2.203 1_455 S
Cd214 O216 2.411 1_455 S
Cd214 O217 2.333 . S
Cd214 O218 2.352 1_455 S
Cd214 O222 2.277 . S
Cd214 O223 2.356 . S
C215 O220 1.209 . S
C215 O222 1.226 . S
O216 Cd212 2.273 . S
O216 Cd214 2.411 1_655 S
O216 C219 1.320 1_655 S
O217 Cd214 2.333 . S
O217 C219 1.214 . S
O218 Cd214 2.352 1_655 S
O218 C221 1.258 . S
C219 O216 1.320 1_455 S
C219 O217 1.214 . S
O220 Cd212 2.277 1_455 S
O220 C215 1.209 . S
C221 O218 1.258 . S
C221 O223 1.282 1_655 S
O222 Cd214 2.277 . S
O222 C215 1.226 . S
O223 Cd214 2.356 . S
O223 C221 1.282 1_455 S
H224 C230 0.930 . S
H225 C233 0.930 . S
H226 C234 0.930 . S
H227 C235 0.930 . S
H228 C238 0.930 . S
H229 C239 0.930 . S
C230 H224 0.930 . S
C230 C231 1.355 1_655 S
C230 C232 1.415 . S
C231 C230 1.355 1_455 S
C231 C233 1.419 . S
C232 C230 1.415 . S
C232 C237 1.425 1_655 S
C232 C239 1.409 . S
C233 H225 0.930 . S
C233 C231 1.419 . S
C233 C234 1.362 . S
C234 H226 0.930 . S
C234 C233 1.362 . S
C234 C237 1.409 . S
C235 H227 0.930 . S
C235 C236 1.355 1_455 S
C235 C237 1.415 . S
C236 C235 1.355 1_655 S
C236 C238 1.419 . S
C237 C232 1.425 1_455 S
C237 C234 1.409 . S
C237 C235 1.415 . S
C238 H228 0.930 . S
C238 C236 1.419 . S
C238 C239 1.362 . S
C239 H229 0.930 . S
C239 C232 1.409 . S
C239 C238 1.362 . S
H240 C246 0.930 . S
H241 C249 0.930 . S
H242 C250 0.930 . S
H243 C251 0.930 . S
H244 C254 0.930 . S
H245 C255 0.930 . S
C246 H240 0.930 . S
C246 C247 1.355 . S
C246 C248 1.415 . S
C247 C246 1.355 . S
C247 C249 1.419 . S
C248 C246 1.415 . S
C248 C253 1.425 1_655 S
C248 C255 1.409 1_655 S
C249 H241 0.930 . S
C249 C247 1.419 . S
C249 C250 1.362 . S
C250 H242 0.930 . S
C250 C249 1.362 . S
C250 C253 1.409 1_655 S
C251 H243 0.930 . S
C251 C252 1.355 . S
C251 C253 1.415 . S
C252 C251 1.355 . S
C252 C254 1.419 . S
C253 C248 1.425 1_455 S
C253 C250 1.409 1_455 S
C253 C251 1.415 . S
C254 H244 0.930 . S
C254 C252 1.419 . S
C254 C255 1.362 . S
C255 H245 0.930 . S
C255 C248 1.409 1_455 S
C255 C254 1.362 . S
H256 C262 0.930 . S
H257 C265 0.930 . S
H258 C266 0.930 . S
H259 C267 0.930 . S
H260 C270 0.930 . S
H261 C271 0.930 . S
C262 H256 0.930 . S
C262 C263 1.355 . S
C262 C264 1.415 . S
C263 C262 1.355 . S
C263 C265 1.419 . S
C264 C262 1.415 . S
C264 C269 1.425 . S
C264 C271 1.409 . S
C265 H257 0.930 . S
C265 C263 1.419 . S
C265 C266 1.362 . S
C266 H258 0.930 . S
C266 C265 1.362 . S
C266 C269 1.409 . S
C267 H259 0.930 . S
C267 C268 1.355 . S
C267 C269 1.415 . S
C268 C267 1.355 . S
C268 C270 1.419 . S
C269 C264 1.425 . S
C269 C266 1.409 . S
C269 C267 1.415 . S
C270 H260 0.930 . S
C270 C268 1.419 . S
C270 C271 1.362 . S
C271 H261 0.930 . S
C271 C264 1.409 . S
C271 C270 1.362 . S
H272 C278 0.930 . S
H273 C281 0.930 . S
H274 C282 0.930 . S
H275 C283 0.930 . S
H276 C286 0.930 . S
H277 C287 0.930 . S
C278 H272 0.930 . S
C278 C279 1.355 . S
C278 C280 1.415 . S
C279 C278 1.355 . S
C279 C281 1.419 . S
C280 C278 1.415 . S
C280 C285 1.425 . S
C280 C287 1.409 . S
C281 H273 0.930 . S
C281 C279 1.419 . S
C281 C282 1.362 . S
C282 H274 0.930 . S
C282 C281 1.362 . S
C282 C285 1.409 . S
C283 H275 0.930 . S
C283 C284 1.355 . S
C283 C285 1.415 . S
C284 C283 1.355 . S
C284 C286 1.419 . S
C285 C280 1.425 . S
C285 C282 1.409 . S
C285 C283 1.415 . S
C286 H276 0.930 . S
C286 C284 1.419 . S
C286 C287 1.362 . S
C287 H277 0.930 . S
C287 C280 1.409 . S
C287 C286 1.362 . S
H288 C294 0.930 . S
H289 C297 0.930 . S
H290 C298 0.930 . S
H291 C299 0.930 . S
H292 C302 0.930 . S
H293 C303 0.930 . S
C294 H288 0.930 . S
C294 C295 1.355 1_655 S
C294 C296 1.415 . S
C295 C294 1.355 1_455 S
C295 C297 1.419 . S
C296 C294 1.415 . S
C296 C301 1.425 1_655 S
C296 C303 1.409 . S
C297 H289 0.930 . S
C297 C295 1.419 . S
C297 C298 1.362 . S
C298 H290 0.930 . S
C298 C297 1.362 . S
C298 C301 1.409 . S
C299 H291 0.930 . S
C299 C300 1.355 1_455 S
C299 C301 1.415 . S
C300 C299 1.355 1_655 S
C300 C302 1.419 . S
C301 C296 1.425 1_455 S
C301 C298 1.409 . S
C301 C299 1.415 . S
C302 H292 0.930 . S
C302 C300 1.419 . S
C302 C303 1.362 . S
C303 H293 0.930 . S
C303 C296 1.409 . S
C303 C302 1.362 . S
H304 C310 0.930 . S
H305 C313 0.930 . S
H306 C314 0.930 . S
H307 C315 0.930 . S
H308 C318 0.930 . S
H309 C319 0.930 . S
C310 H304 0.930 . S
C310 C311 1.355 . S
C310 C312 1.415 . S
C311 C310 1.355 . S
C311 C313 1.419 . S
C312 C310 1.415 . S
C312 C317 1.425 . S
C312 C319 1.409 . S
C313 H305 0.930 . S
C313 C311 1.419 . S
C313 C314 1.362 . S
C314 H306 0.930 . S
C314 C313 1.362 . S
C314 C317 1.409 . S
C315 H307 0.930 . S
C315 C316 1.355 . S
C315 C317 1.415 . S
C316 C315 1.355 . S
C316 C318 1.419 . S
C317 C312 1.425 . S
C317 C314 1.409 . S
C317 C315 1.415 . S
C318 H308 0.930 . S
C318 C316 1.419 . S
C318 C319 1.362 . S
C319 H309 0.930 . S
C319 C312 1.409 . S
C319 C318 1.362 . S
H320 C326 0.930 . S
H321 C329 0.930 . S
H322 C330 0.930 . S
H323 C331 0.930 . S
H324 C334 0.930 . S
H325 C335 0.930 . S
C326 H320 0.930 . S
C326 C327 1.355 . S
C326 C328 1.415 . S
C327 C326 1.355 . S
C327 C329 1.419 . S
C328 C326 1.415 . S
C328 C333 1.425 . S
C328 C335 1.409 . S
C329 H321 0.930 . S
C329 C327 1.419 . S
C329 C330 1.362 . S
C330 H322 0.930 . S
C330 C329 1.362 . S
C330 C333 1.409 . S
C331 H323 0.930 . S
C331 C332 1.355 . S
C331 C333 1.415 . S
C332 C331 1.355 . S
C332 C334 1.419 . S
C333 C328 1.425 . S
C333 C330 1.409 . S
C333 C331 1.415 . S
C334 H324 0.930 . S
C334 C332 1.419 . S
C334 C335 1.362 . S
C335 H325 0.930 . S
C335 C328 1.409 . S
C335 C334 1.362 . S
H336 C342 0.930 . S
H337 C345 0.930 . S
H338 C346 0.930 . S
H339 C347 0.930 . S
H340 C350 0.930 . S
H341 C351 0.930 1_455 S
C342 H336 0.930 . S
C342 C343 1.355 . S
C342 C344 1.415 . S
C343 C342 1.355 . S
C343 C345 1.419 . S
C344 C342 1.415 . S
C344 C349 1.425 1_455 S
C344 C351 1.409 1_455 S
C345 H337 0.930 . S
C345 C343 1.419 . S
C345 C346 1.362 . S
C346 H338 0.930 . S
C346 C345 1.362 . S
C346 C349 1.409 1_455 S
C347 H339 0.930 . S
C347 C348 1.355 . S
C347 C349 1.415 . S
C348 C347 1.355 . S
C348 C350 1.419 . S
C349 C344 1.425 1_655 S
C349 C346 1.409 1_655 S
C349 C347 1.415 . S
C350 H340 0.930 . S
C350 C348 1.419 . S
C350 C351 1.362 . S
C351 H341 0.930 1_655 S
C351 C344 1.409 1_655 S
C351 C350 1.362 . S
H352 C358 0.930 . S
H353 C361 0.930 . S
H354 C362 0.930 . S
H355 C363 0.930 . S
H356 C366 0.930 . S
H357 C367 0.930 . S
C358 H352 0.930 . S
C358 C359 1.355 1_545 S
C358 C360 1.415 . S
C359 C358 1.355 1_565 S
C359 C361 1.419 1_655 S
C360 C358 1.415 . S
C360 C365 1.425 1_645 S
C360 C367 1.409 . S
C361 H353 0.930 . S
C361 C359 1.419 1_455 S
C361 C362 1.362 . S
C362 H354 0.930 . S
C362 C361 1.362 . S
C362 C365 1.409 . S
C363 H355 0.930 . S
C363 C364 1.355 1_465 S
C363 C365 1.415 . S
C364 C363 1.355 1_645 S
C364 C366 1.419 . S
C365 C360 1.425 1_465 S
C365 C362 1.409 . S
C365 C363 1.415 . S
C366 H356 0.930 . S
C366 C364 1.419 . S
C366 C367 1.362 . S
C367 H357 0.930 . S
C367 C360 1.409 . S
C367 C366 1.362 . S
H368 C374 0.930 . S
H369 C377 0.930 . S
H370 C378 0.930 . S
H371 C379 0.930 . S
H372 C382 0.930 . S
H373 C383 0.930 . S
C374 H368 0.930 . S
C374 C375 1.355 . S
C374 C376 1.415 . S
C375 C374 1.355 . S
C375 C377 1.419 . S
C376 C374 1.415 . S
C376 C381 1.425 . S
C376 C383 1.409 . S
C377 H369 0.930 . S
C377 C375 1.419 . S
C377 C378 1.362 . S
C378 H370 0.930 . S
C378 C377 1.362 . S
C378 C381 1.409 . S
C379 H371 0.930 . S
C379 C380 1.355 . S
C379 C381 1.415 . S
C380 C379 1.355 . S
C380 C382 1.419 . S
C381 C376 1.425 . S
C381 C378 1.409 . S
C381 C379 1.415 . S
C382 H372 0.930 . S
C382 C380 1.419 . S
C382 C383 1.362 . S
C383 H373 0.930 . S
C383 C376 1.409 . S
C383 C382 1.362 . S
H384 C390 0.929 1_545 S
H385 C393 0.930 . S
H386 C394 0.930 . S
H387 C395 0.929 1_565 S
H388 C398 0.930 . S
H389 C399 0.930 . S
C390 H384 0.929 1_565 S
C390 C391 1.356 . S
C390 C392 1.414 1_565 S
C391 C390 1.356 . S
C391 C393 1.419 . S
C392 C390 1.414 1_545 S
C392 C397 1.425 1_544 S
C392 C399 1.409 1_554 S
C393 H385 0.930 . S
C393 C391 1.419 . S
C393 C394 1.362 . S
C394 H386 0.930 . S
C394 C393 1.362 . S
C394 C397 1.409 1_554 S
C395 H387 0.929 1_545 S
C395 C396 1.356 . S
C395 C397 1.414 1_545 S
C396 C395 1.356 . S
C396 C398 1.419 . S
C397 C392 1.425 1_566 S
C397 C394 1.409 1_556 S
C397 C395 1.414 1_565 S
C398 H388 0.930 . S
C398 C396 1.419 . S
C398 C399 1.362 . S
C399 H389 0.930 . S
C399 C392 1.409 1_556 S
C399 C398 1.362 . S
H400 C406 0.930 . S
H401 C409 0.930 . S
H402 C410 0.930 . S
H403 C411 0.930 . S
H404 C414 0.930 . S
H405 C415 0.930 . S
C406 H400 0.930 . S
C406 C407 1.355 . S
C406 C408 1.415 . S
C407 C406 1.355 . S
C407 C409 1.419 . S
C408 C406 1.415 . S
C408 C413 1.425 . S
C408 C415 1.409 . S
C409 H401 0.930 . S
C409 C407 1.419 . S
C409 C410 1.362 . S
C410 H402 0.930 . S
C410 C409 1.362 . S
C410 C413 1.409 . S
C411 H403 0.930 . S
C411 C412 1.355 . S
C411 C413 1.415 . S
C412 C411 1.355 . S
C412 C414 1.419 . S
C413 C408 1.425 . S
C413 C410 1.409 . S
C413 C411 1.415 . S
C414 H404 0.930 . S
C414 C412 1.419 . S
C414 C415 1.362 . S
C415 H405 0.930 . S
C415 C408 1.409 . S
C415 C414 1.362 . S
H416 C422 0.930 . S
H417 C425 0.930 . S
H418 C426 0.930 . S
H419 C427 0.930 . S
H420 C430 0.930 . S
H421 C431 0.930 . S
C422 H416 0.930 . S
C422 C423 1.355 . S
C422 C424 1.415 . S
C423 C422 1.355 . S
C423 C425 1.419 . S
C424 C422 1.415 . S
C424 C429 1.425 . S
C424 C431 1.409 . S
C425 H417 0.930 . S
C425 C423 1.419 . S
C425 C426 1.362 . S
C426 H418 0.930 . S
C426 C425 1.362 . S
C426 C429 1.409 . S
C427 H419 0.930 . S
C427 C428 1.355 . S
C427 C429 1.415 . S
C428 C427 1.355 . S
C428 C430 1.419 . S
C429 C424 1.425 . S
C429 C426 1.409 . S
C429 C427 1.415 . S
C430 H420 0.930 . S
C430 C428 1.419 . S
C430 C431 1.362 . S
C431 H421 0.930 . S
C431 C424 1.409 . S
C431 C430 1.362 . S
H432 C438 0.930 . S
H433 C441 0.930 . S
H434 C442 0.930 . S
H435 C443 0.930 . S
H436 C446 0.930 . S
H437 C447 0.930 . S
C438 H432 0.930 . S
C438 C439 1.355 . S
C438 C440 1.415 . S
C439 C438 1.355 . S
C439 C441 1.419 . S
C440 C438 1.415 . S
C440 C445 1.425 . S
C440 C447 1.409 . S
C441 H433 0.930 . S
C441 C439 1.419 . S
C441 C442 1.362 . S
C442 H434 0.930 . S
C442 C441 1.362 . S
C442 C445 1.409 . S
C443 H435 0.930 . S
C443 C444 1.355 . S
C443 C445 1.415 . S
C444 C443 1.355 . S
C444 C446 1.419 . S
C445 C440 1.425 . S
C445 C442 1.409 . S
C445 C443 1.415 . S
C446 H436 0.930 . S
C446 C444 1.419 . S
C446 C447 1.362 . S
C447 H437 0.930 . S
C447 C440 1.409 . S
C447 C446 1.362 . S
H448 C454 0.930 . S
H449 C457 0.930 . S
H450 C458 0.930 . S
H451 C459 0.930 . S
H452 C462 0.930 . S
H453 C463 0.930 . S
C454 H448 0.930 . S
C454 C455 1.355 . S
C454 C456 1.415 . S
C455 C454 1.355 . S
C455 C457 1.419 . S
C456 C454 1.415 . S
C456 C461 1.425 1_556 S
C456 C463 1.409 1_556 S
C457 H449 0.930 . S
C457 C455 1.419 . S
C457 C458 1.362 . S
C458 H450 0.930 . S
C458 C457 1.362 . S
C458 C461 1.409 1_556 S
C459 H451 0.930 . S
C459 C460 1.355 . S
C459 C461 1.415 . S
C460 C459 1.355 . S
C460 C462 1.419 . S
C461 C456 1.425 1_554 S
C461 C458 1.409 1_554 S
C461 C459 1.415 . S
C462 H452 0.930 . S
C462 C460 1.419 . S
C462 C463 1.362 . S
C463 H453 0.930 . S
C463 C456 1.409 1_554 S
C463 C462 1.362 . S
H464 C470 0.930 . S
H465 C473 0.930 . S
H466 C474 0.930 . S
H467 C475 0.930 . S
H468 C478 0.930 . S
H469 C479 0.930 . S
C470 H464 0.930 . S
C470 C471 1.355 . S
C470 C472 1.415 . S
C471 C470 1.355 . S
C471 C473 1.419 1_455 S
C472 C470 1.415 . S
C472 C477 1.425 1_455 S
C472 C479 1.409 . S
C473 H465 0.930 . S
C473 C471 1.419 1_655 S
C473 C474 1.362 . S
C474 H466 0.930 . S
C474 C473 1.362 . S
C474 C477 1.409 . S
C475 H467 0.930 . S
C475 C476 1.355 1_655 S
C475 C477 1.415 . S
C476 C475 1.355 1_455 S
C476 C478 1.419 . S
C477 C472 1.425 1_655 S
C477 C474 1.409 . S
C477 C475 1.415 . S
C478 H468 0.930 . S
C478 C476 1.419 . S
C478 C479 1.362 . S
C479 H469 0.930 . S
C479 C472 1.409 . S
C479 C478 1.362 . S
H480 C486 0.930 . S
H481 C489 0.930 . S
H482 C490 0.930 . S
H483 C491 0.930 . S
H484 C494 0.930 . S
H485 C495 0.930 . S
C486 H480 0.930 . S
C486 C487 1.355 . S
C486 C488 1.415 . S
C487 C486 1.355 . S
C487 C489 1.419 . S
C488 C486 1.415 . S
C488 C493 1.425 . S
C488 C495 1.409 . S
C489 H481 0.930 . S
C489 C487 1.419 . S
C489 C490 1.362 . S
C490 H482 0.930 . S
C490 C489 1.362 . S
C490 C493 1.409 . S
C491 H483 0.930 . S
C491 C492 1.355 . S
C491 C493 1.415 . S
C492 C491 1.355 . S
C492 C494 1.419 . S
C493 C488 1.425 . S
C493 C490 1.409 . S
C493 C491 1.415 . S
C494 H484 0.930 . S
C494 C492 1.419 . S
C494 C495 1.362 . S
C495 H485 0.930 . S
C495 C488 1.409 . S
C495 C494 1.362 . S
H496 C502 0.930 . S
H497 C505 0.930 . S
H498 C506 0.930 . S
H499 C507 0.930 . S
H500 C510 0.930 . S
H501 C511 0.930 . S
C502 H496 0.930 . S
C502 C503 1.355 . S
C502 C504 1.415 . S
C503 C502 1.355 . S
C503 C505 1.419 . S
C504 C502 1.415 . S
C504 C509 1.425 . S
C504 C511 1.409 . S
C505 H497 0.930 . S
C505 C503 1.419 . S
C505 C506 1.362 . S
C506 H498 0.930 . S
C506 C505 1.362 . S
C506 C509 1.409 . S
C507 H499 0.930 . S
C507 C508 1.355 . S
C507 C509 1.415 . S
C508 C507 1.355 . S
C508 C510 1.419 . S
C509 C504 1.425 . S
C509 C506 1.409 . S
C509 C507 1.415 . S
C510 H500 0.930 . S
C510 C508 1.419 . S
C510 C511 1.362 . S
C511 H501 0.930 . S
C511 C504 1.409 . S
C511 C510 1.362 . S
H512 C518 0.930 . S
H513 C521 0.930 1_565 S
H514 C522 0.930 . S
H515 C523 0.930 . S
H516 C526 0.930 . S
H517 C527 0.930 . S
C518 H512 0.930 . S
C518 C519 1.355 . S
C518 C520 1.415 . S
C519 C518 1.355 . S
C519 C521 1.419 . S
C520 C518 1.415 . S
C520 C525 1.425 . S
C520 C527 1.409 . S
C521 H513 0.930 1_545 S
C521 C519 1.419 . S
C521 C522 1.362 . S
C522 H514 0.930 . S
C522 C521 1.362 . S
C522 C525 1.409 . S
C523 H515 0.930 . S
C523 C524 1.355 . S
C523 C525 1.415 . S
C524 C523 1.355 . S
C524 C526 1.419 . S
C525 C520 1.425 . S
C525 C522 1.409 . S
C525 C523 1.415 . S
C526 H516 0.930 . S
C526 C524 1.419 . S
C526 C527 1.362 . S
C527 H517 0.930 . S
C527 C520 1.409 . S
C527 C526 1.362 . S
H528 C534 0.930 . S
H529 C537 0.930 . S
H530 C538 0.930 . S
H531 C539 0.930 . S
H532 C542 0.930 . S
H533 C543 0.930 . S
C534 H528 0.930 . S
C534 C535 1.355 . S
C534 C536 1.415 . S
C535 C534 1.355 . S
C535 C537 1.419 . S
C536 C534 1.415 . S
C536 C541 1.425 . S
C536 C543 1.409 . S
C537 H529 0.930 . S
C537 C535 1.419 . S
C537 C538 1.362 . S
C538 H530 0.930 . S
C538 C537 1.362 . S
C538 C541 1.409 . S
C539 H531 0.930 . S
C539 C540 1.355 . S
C539 C541 1.415 . S
C540 C539 1.355 . S
C540 C542 1.419 . S
C541 C536 1.425 . S
C541 C538 1.409 . S
C541 C539 1.415 . S
C542 H532 0.930 . S
C542 C540 1.419 . S
C542 C543 1.362 . S
C543 H533 0.930 . S
C543 C536 1.409 . S
C543 C542 1.362 . S
H544 C550 0.930 . S
H545 C553 0.930 . S
H546 C554 0.930 . S
H547 C555 0.930 . S
H548 C558 0.930 . S
H549 C559 0.930 . S
C550 H544 0.930 . S
C550 C551 1.355 . S
C550 C552 1.415 . S
C551 C550 1.355 . S
C551 C553 1.419 . S
C552 C550 1.415 . S
C552 C557 1.425 . S
C552 C559 1.409 . S
C553 H545 0.930 . S
C553 C551 1.419 . S
C553 C554 1.362 . S
C554 H546 0.930 . S
C554 C553 1.362 . S
C554 C557 1.409 . S
C555 H547 0.930 . S
C555 C556 1.355 . S
C555 C557 1.415 . S
C556 C555 1.355 . S
C556 C558 1.419 . S
C557 C552 1.425 . S
C557 C554 1.409 . S
C557 C555 1.415 . S
C558 H548 0.930 . S
C558 C556 1.419 . S
C558 C559 1.362 . S
C559 H549 0.930 . S
C559 C552 1.409 . S
C559 C558 1.362 . S
H560 C566 0.930 . S
H561 C569 0.907 1_565 S
H562 C570 0.930 . S
H563 C571 0.930 . S
H564 C574 0.930 . S
H565 C575 0.930 . S
C566 H560 0.930 . S
C566 C567 1.355 . S
C566 C568 1.415 . S
C567 C566 1.355 . S
C567 C569 1.419 . S
C568 C566 1.415 . S
C568 C573 1.425 . S
C568 C575 1.409 . S
C569 H561 0.907 1_545 S
C569 C567 1.419 . S
C569 C570 1.362 . S
C570 H562 0.930 . S
C570 C569 1.362 . S
C570 C573 1.409 . S
C571 H563 0.930 . S
C571 C572 1.355 . S
C571 C573 1.415 . S
C572 C571 1.355 . S
C572 C574 1.419 . S
C573 C568 1.425 . S
C573 C570 1.409 . S
C573 C571 1.415 . S
C574 H564 0.930 . S
C574 C572 1.419 . S
C574 C575 1.362 . S
C575 H565 0.930 . S
C575 C568 1.409 . S
C575 C574 1.362 . S
H576 C582 0.930 . S
H577 C585 0.930 . S
H578 C586 0.930 . S
H579 C587 0.930 . S
H580 C590 0.930 . S
H581 C591 0.930 . S
C582 H576 0.930 . S
C582 C583 1.355 . S
C582 C584 1.415 . S
C583 C582 1.355 . S
C583 C585 1.419 . S
C584 C582 1.415 . S
C584 C589 1.425 . S
C584 C591 1.409 . S
C585 H577 0.930 . S
C585 C583 1.419 . S
C585 C586 1.362 . S
C586 H578 0.930 . S
C586 C585 1.362 . S
C586 C589 1.409 . S
C587 H579 0.930 . S
C587 C588 1.355 . S
C587 C589 1.415 . S
C588 C587 1.355 . S
C588 C590 1.419 . S
C589 C584 1.425 . S
C589 C586 1.409 . S
C589 C587 1.415 . S
C590 H580 0.930 . S
C590 C588 1.419 . S
C590 C591 1.362 . S
C591 H581 0.930 . S
C591 C584 1.409 . S
C591 C590 1.362 . S
H592 C598 0.930 . S
H593 C601 0.930 . S
H594 C602 0.930 . S
H595 C603 0.930 . S
H596 C606 0.930 . S
H597 C607 0.930 . S
C598 H592 0.930 . S
C598 C599 1.355 . S
C598 C600 1.415 . S
C599 C598 1.355 . S
C599 C601 1.419 . S
C600 C598 1.415 . S
C600 C605 1.425 . S
C600 C607 1.409 . S
C601 H593 0.930 . S
C601 C599 1.419 . S
C601 C602 1.362 . S
C602 H594 0.930 . S
C602 C601 1.362 . S
C602 C605 1.409 . S
C603 H595 0.930 . S
C603 C604 1.355 . S
C603 C605 1.415 . S
C604 C603 1.355 . S
C604 C606 1.419 . S
C605 C600 1.425 . S
C605 C602 1.409 . S
C605 C603 1.415 . S
C606 H596 0.930 . S
C606 C604 1.419 . S
C606 C607 1.362 . S
C607 H597 0.930 . S
C607 C600 1.409 . S
C607 C606 1.362 . S
H608 C614 0.930 . S
H609 C617 0.930 . S
H610 C618 0.930 . S
H611 C619 0.930 . S
H612 C622 0.930 . S
H613 C623 0.930 . S
C614 H608 0.930 . S
C614 C615 1.355 . S
C614 C616 1.415 . S
C615 C614 1.355 . S
C615 C617 1.419 . S
C616 C614 1.415 . S
C616 C621 1.425 . S
C616 C623 1.409 . S
C617 H609 0.930 . S
C617 C615 1.419 . S
C617 C618 1.362 . S
C618 H610 0.930 . S
C618 C617 1.362 . S
C618 C621 1.409 . S
C619 H611 0.930 . S
C619 C620 1.355 . S
C619 C621 1.415 . S
C620 C619 1.355 . S
C620 C622 1.419 . S
C621 C616 1.425 . S
C621 C618 1.409 . S
C621 C619 1.415 . S
C622 H612 0.930 . S
C622 C620 1.419 . S
C622 C623 1.362 . S
C623 H613 0.930 . S
C623 C616 1.409 . S
C623 C622 1.362 . S
H624 C630 0.930 . S
H625 C633 0.930 . S
H626 C634 0.930 . S
H627 C635 0.930 . S
H628 C638 0.930 . S
H629 C639 0.930 . S
C630 H624 0.930 . S
C630 C631 1.355 . S
C630 C632 1.415 . S
C631 C630 1.355 . S
C631 C633 1.419 . S
C632 C630 1.415 . S
C632 C637 1.425 . S
C632 C639 1.409 . S
C633 H625 0.930 . S
C633 C631 1.419 . S
C633 C634 1.362 . S
C634 H626 0.930 . S
C634 C633 1.362 . S
C634 C637 1.409 . S
C635 H627 0.930 . S
C635 C636 1.355 . S
C635 C637 1.415 . S
C636 C635 1.355 . S
C636 C638 1.419 . S
C637 C632 1.425 . S
C637 C634 1.409 . S
C637 C635 1.415 . S
C638 H628 0.930 . S
C638 C636 1.419 . S
C638 C639 1.362 . S
C639 H629 0.930 . S
C639 C632 1.409 . S
C639 C638 1.362 . S
H640 C646 0.930 . S
H641 C649 0.930 . S
H642 C650 0.930 . S
H643 C651 0.930 . S
H644 C654 0.930 . S
H645 C655 0.930 . S
C646 H640 0.930 . S
C646 C647 1.355 . S
C646 C648 1.415 . S
C647 C646 1.355 . S
C647 C649 1.419 . S
C648 C646 1.415 . S
C648 C653 1.425 . S
C648 C655 1.409 . S
C649 H641 0.930 . S
C649 C647 1.419 . S
C649 C650 1.362 . S
C650 H642 0.930 . S
C650 C649 1.362 . S
C650 C653 1.409 . S
C651 H643 0.930 . S
C651 C652 1.355 . S
C651 C653 1.415 . S
C652 C651 1.355 . S
C652 C654 1.419 . S
C653 C648 1.425 . S
C653 C650 1.409 . S
C653 C651 1.415 . S
C654 H644 0.930 . S
C654 C652 1.419 . S
C654 C655 1.362 . S
C655 H645 0.930 . S
C655 C648 1.409 . S
C655 C654 1.362 . S
H656 C662 0.930 . S
H657 C665 0.930 . S
H658 C666 0.930 . S
H659 C667 0.930 . S
H660 C670 0.930 . S
H661 C671 0.930 . S
C662 H656 0.930 . S
C662 C663 1.355 . S
C662 C664 1.415 . S
C663 C662 1.355 . S
C663 C665 1.419 . S
C664 C662 1.415 . S
C664 C669 1.425 . S
C664 C671 1.409 . S
C665 H657 0.930 . S
C665 C663 1.419 . S
C665 C666 1.362 . S
C666 H658 0.930 . S
C666 C665 1.362 . S
C666 C669 1.409 . S
C667 H659 0.930 . S
C667 C668 1.355 . S
C667 C669 1.415 . S
C668 C667 1.355 . S
C668 C670 1.419 . S
C669 C664 1.425 . S
C669 C666 1.409 . S
C669 C667 1.415 . S
C670 H660 0.930 . S
C670 C668 1.419 . S
C670 C671 1.362 . S
C671 H661 0.930 . S
C671 C664 1.409 . S
C671 C670 1.362 . S
H672 C678 0.930 . S
H673 C681 0.930 . S
H674 C682 0.930 . S
H675 C683 0.930 . S
H676 C686 0.930 . S
H677 C687 0.930 . S
C678 H672 0.930 . S
C678 C679 1.355 . S
C678 C680 1.415 . S
C679 C678 1.355 . S
C679 C681 1.419 . S
C680 C678 1.415 . S
C680 C685 1.425 . S
C680 C687 1.409 . S
C681 H673 0.930 . S
C681 C679 1.419 . S
C681 C682 1.362 . S
C682 H674 0.930 . S
C682 C681 1.362 . S
C682 C685 1.409 . S
C683 H675 0.930 . S
C683 C684 1.355 . S
C683 C685 1.415 . S
C684 C683 1.355 . S
C684 C686 1.419 . S
C685 C680 1.425 . S
C685 C682 1.409 . S
C685 C683 1.415 . S
C686 H676 0.930 . S
C686 C684 1.419 . S
C686 C687 1.362 . S
C687 H677 0.930 . S
C687 C680 1.409 . S
C687 C686 1.362 . S
H688 C694 0.930 . S
H689 C697 0.930 . S
H690 C698 0.930 . S
H691 C699 0.930 . S
H692 C702 0.930 . S
H693 C703 0.930 . S
C694 H688 0.930 . S
C694 C695 1.355 . S
C694 C696 1.415 . S
C695 C694 1.355 . S
C695 C697 1.419 . S
C696 C694 1.415 . S
C696 C701 1.425 . S
C696 C703 1.409 . S
C697 H689 0.930 . S
C697 C695 1.419 . S
C697 C698 1.362 . S
C698 H690 0.930 . S
C698 C697 1.362 . S
C698 C701 1.409 . S
C699 H691 0.930 . S
C699 C700 1.355 . S
C699 C701 1.415 . S
C700 C699 1.355 . S
C700 C702 1.419 . S
C701 C696 1.425 . S
C701 C698 1.409 . S
C701 C699 1.415 . S
C702 H692 0.930 . S
C702 C700 1.419 . S
C702 C703 1.362 . S
C703 H693 0.930 . S
C703 C696 1.409 . S
C703 C702 1.362 . S
H704 C710 0.930 . S
H705 C713 0.930 . S
H706 C714 0.930 . S
H707 C715 0.930 . S
H708 C718 0.930 . S
H709 C719 0.930 . S
C710 H704 0.930 . S
C710 C711 1.355 . S
C710 C712 1.415 . S
C711 C710 1.355 . S
C711 C713 1.419 . S
C712 C710 1.415 . S
C712 C717 1.425 . S
C712 C719 1.409 . S
C713 H705 0.930 . S
C713 C711 1.419 . S
C713 C714 1.362 . S
C714 H706 0.930 . S
C714 C713 1.362 . S
C714 C717 1.409 . S
C715 H707 0.930 . S
C715 C716 1.355 . S
C715 C717 1.415 . S
C716 C715 1.355 . S
C716 C718 1.419 . S
C717 C712 1.425 . S
C717 C714 1.409 . S
C717 C715 1.415 . S
C718 H708 0.930 . S
C718 C716 1.419 . S
C718 C719 1.362 . S
C719 H709 0.930 . S
C719 C712 1.409 . S
C719 C718 1.362 . S
H720 C726 0.930 . S
H721 C729 0.930 . S
H722 C730 0.930 . S
H723 C731 0.930 . S
H724 C734 0.930 . S
H725 C735 0.930 . S
C726 H720 0.930 . S
C726 C727 1.355 . S
C726 C728 1.415 . S
C727 C726 1.355 . S
C727 C729 1.419 . S
C728 C726 1.415 . S
C728 C733 1.425 . S
C728 C735 1.409 . S
C729 H721 0.930 . S
C729 C727 1.419 . S
C729 C730 1.362 . S
C730 H722 0.930 . S
C730 C729 1.362 . S
C730 C733 1.409 . S
C731 H723 0.930 . S
C731 C732 1.355 . S
C731 C733 1.415 . S
C732 C731 1.355 . S
C732 C734 1.419 . S
C733 C728 1.425 . S
C733 C730 1.409 . S
C733 C731 1.415 . S
C734 H724 0.930 . S
C734 C732 1.419 . S
C734 C735 1.362 . S
C735 H725 0.930 . S
C735 C728 1.409 . S
C735 C734 1.362 . S
C231 C11 1.316 . S
C236 C193 1.314 . S
C247 C165 1.252 . S
C252 C25 1.262 . S
C263 C179 1.289 . S
C268 C39 1.303 . S
C279 C151 1.304 . S
C284 C53 1.313 . S
C295 C67 1.307 . S
C300 C221 1.315 . S
C311 C81 1.316 . S
C316 C137 1.312 . S
C327 C207 1.301 . S
C332 C95 1.312 . S
C343 C109 1.306 . S
C348 C123 1.314 . S
C359 C65 1.618 . S
C364 C9 1.628 . S
C375 C23 1.619 . S
C380 C79 1.629 . S
C391 C37 1.619 . S
C396 C93 1.629 . S
C407 C107 1.629 . S
C412 C51 1.621 . S
C423 C121 1.626 . S
C428 C149 1.618 . S
C439 C135 1.623 . S
C444 C163 1.628 . S
C455 C205 1.622 . S
C460 C177 1.629 . S
C471 C191 1.619 . S
C476 C219 1.629 . S
C487 C70 1.404 . S
C492 C0 1.421 . S
C503 C14 1.412 . S
C508 C84 1.410 . S
C519 C28 1.480 . S
C524 C98 1.441 . S
C535 C56 1.400 . S
C540 C42 1.431 . S
C551 C61 1.253 . S
C556 C145 1.262 . S
C567 C33 1.271 . S
C572 C117 1.254 . S
C583 C159 1.260 . S
C588 C89 1.254 . S
C599 C131 1.287 . S
C604 C5 1.289 . S
C615 C112 1.464 . S
C620 C168 1.409 . S
C631 C140 1.403 . S
C636 C210 1.455 . S
C647 C182 1.479 . S
C652 C126 1.441 . S
C663 C154 1.477 . S
C668 C196 1.457 . S
C679 C201 1.263 . S
C684 C19 1.253 . S
C695 C187 1.253 . S
C700 C75 1.263 . S
C711 C215 1.287 . S
C716 C47 1.289 . S
C727 C173 1.289 . S
C732 C103 1.287 . S
