# Generated by pormake.
# Topology uod, (4)-cn, num edge types: 1
# Building blocks:
#     Node 0, Type 0, BuildingBlock: QUQFOY_clean_sbu_3, # of connection points: 4
#     Node 1, Type 0, BuildingBlock: QUQFOY_clean_sbu_3, # of connection points: 4
#     Node 2, Type 0, BuildingBlock: QUQFOY_clean_sbu_3, # of connection points: 4
#     Node 3, Type 0, BuildingBlock: QUQFOY_clean_sbu_3, # of connection points: 4
#     Node 4, Type 0, BuildingBlock: QUQFOY_clean_sbu_3, # of connection points: 4
#     Node 5, Type 0, BuildingBlock: QUQFOY_clean_sbu_3, # of connection points: 4
#     Node 6, Type 0, BuildingBlock: QUQFOY_clean_sbu_3, # of connection points: 4
#     Node 7, Type 0, BuildingBlock: QUQFOY_clean_sbu_3, # of connection points: 4
#     Node 8, Type 0, BuildingBlock: QUQFOY_clean_sbu_3, # of connection points: 4
#     Node 9, Type 0, BuildingBlock: QUQFOY_clean_sbu_3, # of connection points: 4
#     Node 10, Type 0, BuildingBlock: QUQFOY_clean_sbu_3, # of connection points: 4
#     Node 11, Type 0, BuildingBlock: QUQFOY_clean_sbu_3, # of connection points: 4
#     Node 12, Type 0, BuildingBlock: QUQFOY_clean_sbu_3, # of connection points: 4
#     Node 13, Type 0, BuildingBlock: QUQFOY_clean_sbu_3, # of connection points: 4
#     Node 14, Type 0, BuildingBlock: QUQFOY_clean_sbu_3, # of connection points: 4
#     Node 15, Type 0, BuildingBlock: QUQFOY_clean_sbu_3, # of connection points: 4
#     Node 16, Type 0, BuildingBlock: QUQFOY_clean_sbu_3, # of connection points: 4
#     Node 17, Type 0, BuildingBlock: QUQFOY_clean_sbu_3, # of connection points: 4
#     Node 18, Type 0, BuildingBlock: QUQFOY_clean_sbu_3, # of connection points: 4
#     Node 19, Type 0, BuildingBlock: QUQFOY_clean_sbu_3, # of connection points: 4
#     Node 20, Type 0, BuildingBlock: QUQFOY_clean_sbu_3, # of connection points: 4
#     Node 21, Type 0, BuildingBlock: QUQFOY_clean_sbu_3, # of connection points: 4
#     Node 22, Type 0, BuildingBlock: QUQFOY_clean_sbu_3, # of connection points: 4
#     Node 23, Type 0, BuildingBlock: QUQFOY_clean_sbu_3, # of connection points: 4
#     Node 24, Type 0, BuildingBlock: QUQFOY_clean_sbu_3, # of connection points: 4
#     Node 25, Type 0, BuildingBlock: QUQFOY_clean_sbu_3, # of connection points: 4
#     Node 26, Type 0, BuildingBlock: QUQFOY_clean_sbu_3, # of connection points: 4
#     Node 27, Type 0, BuildingBlock: QUQFOY_clean_sbu_3, # of connection points: 4
#     Node 28, Type 0, BuildingBlock: QUQFOY_clean_sbu_3, # of connection points: 4
#     Node 29, Type 0, BuildingBlock: QUQFOY_clean_sbu_3, # of connection points: 4
#     Node 30, Type 0, BuildingBlock: QUQFOY_clean_sbu_3, # of connection points: 4
#     Node 31, Type 0, BuildingBlock: QUQFOY_clean_sbu_3, # of connection points: 4
#     Edge 32, Type (0, 0), BuildingBlock: MIFKUJ_clean_linker_0, # of connection points: 2
#     Edge 33, Type (0, 0), BuildingBlock: MIFKUJ_clean_linker_0, # of connection points: 2
#     Edge 34, Type (0, 0), BuildingBlock: MIFKUJ_clean_linker_0, # of connection points: 2
#     Edge 35, Type (0, 0), BuildingBlock: MIFKUJ_clean_linker_0, # of connection points: 2
#     Edge 36, Type (0, 0), BuildingBlock: MIFKUJ_clean_linker_0, # of connection points: 2
#     Edge 37, Type (0, 0), BuildingBlock: MIFKUJ_clean_linker_0, # of connection points: 2
#     Edge 38, Type (0, 0), BuildingBlock: MIFKUJ_clean_linker_0, # of connection points: 2
#     Edge 39, Type (0, 0), BuildingBlock: MIFKUJ_clean_linker_0, # of connection points: 2
#     Edge 40, Type (0, 0), BuildingBlock: MIFKUJ_clean_linker_0, # of connection points: 2
#     Edge 41, Type (0, 0), BuildingBlock: MIFKUJ_clean_linker_0, # of connection points: 2
#     Edge 42, Type (0, 0), BuildingBlock: MIFKUJ_clean_linker_0, # of connection points: 2
#     Edge 43, Type (0, 0), BuildingBlock: MIFKUJ_clean_linker_0, # of connection points: 2
#     Edge 44, Type (0, 0), BuildingBlock: MIFKUJ_clean_linker_0, # of connection points: 2
#     Edge 45, Type (0, 0), BuildingBlock: MIFKUJ_clean_linker_0, # of connection points: 2
#     Edge 46, Type (0, 0), BuildingBlock: MIFKUJ_clean_linker_0, # of connection points: 2
#     Edge 47, Type (0, 0), BuildingBlock: MIFKUJ_clean_linker_0, # of connection points: 2
#     Edge 48, Type (0, 0), BuildingBlock: MIFKUJ_clean_linker_0, # of connection points: 2
#     Edge 49, Type (0, 0), BuildingBlock: MIFKUJ_clean_linker_0, # of connection points: 2
#     Edge 50, Type (0, 0), BuildingBlock: MIFKUJ_clean_linker_0, # of connection points: 2
#     Edge 51, Type (0, 0), BuildingBlock: MIFKUJ_clean_linker_0, # of connection points: 2
#     Edge 52, Type (0, 0), BuildingBlock: MIFKUJ_clean_linker_0, # of connection points: 2
#     Edge 53, Type (0, 0), BuildingBlock: MIFKUJ_clean_linker_0, # of connection points: 2
#     Edge 54, Type (0, 0), BuildingBlock: MIFKUJ_clean_linker_0, # of connection points: 2
#     Edge 55, Type (0, 0), BuildingBlock: MIFKUJ_clean_linker_0, # of connection points: 2
#     Edge 56, Type (0, 0), BuildingBlock: MIFKUJ_clean_linker_0, # of connection points: 2
#     Edge 57, Type (0, 0), BuildingBlock: MIFKUJ_clean_linker_0, # of connection points: 2
#     Edge 58, Type (0, 0), BuildingBlock: MIFKUJ_clean_linker_0, # of connection points: 2
#     Edge 59, Type (0, 0), BuildingBlock: MIFKUJ_clean_linker_0, # of connection points: 2
#     Edge 60, Type (0, 0), BuildingBlock: MIFKUJ_clean_linker_0, # of connection points: 2
#     Edge 61, Type (0, 0), BuildingBlock: MIFKUJ_clean_linker_0, # of connection points: 2
#     Edge 62, Type (0, 0), BuildingBlock: MIFKUJ_clean_linker_0, # of connection points: 2
#     Edge 63, Type (0, 0), BuildingBlock: MIFKUJ_clean_linker_0, # of connection points: 2
#     Edge 64, Type (0, 0), BuildingBlock: MIFKUJ_clean_linker_0, # of connection points: 2
#     Edge 65, Type (0, 0), BuildingBlock: MIFKUJ_clean_linker_0, # of connection points: 2
#     Edge 66, Type (0, 0), BuildingBlock: MIFKUJ_clean_linker_0, # of connection points: 2
#     Edge 67, Type (0, 0), BuildingBlock: MIFKUJ_clean_linker_0, # of connection points: 2
#     Edge 68, Type (0, 0), BuildingBlock: MIFKUJ_clean_linker_0, # of connection points: 2
#     Edge 69, Type (0, 0), BuildingBlock: MIFKUJ_clean_linker_0, # of connection points: 2
#     Edge 70, Type (0, 0), BuildingBlock: MIFKUJ_clean_linker_0, # of connection points: 2
#     Edge 71, Type (0, 0), BuildingBlock: MIFKUJ_clean_linker_0, # of connection points: 2
#     Edge 72, Type (0, 0), BuildingBlock: MIFKUJ_clean_linker_0, # of connection points: 2
#     Edge 73, Type (0, 0), BuildingBlock: MIFKUJ_clean_linker_0, # of connection points: 2
#     Edge 74, Type (0, 0), BuildingBlock: MIFKUJ_clean_linker_0, # of connection points: 2
#     Edge 75, Type (0, 0), BuildingBlock: MIFKUJ_clean_linker_0, # of connection points: 2
#     Edge 76, Type (0, 0), BuildingBlock: MIFKUJ_clean_linker_0, # of connection points: 2
#     Edge 77, Type (0, 0), BuildingBlock: MIFKUJ_clean_linker_0, # of connection points: 2
#     Edge 78, Type (0, 0), BuildingBlock: MIFKUJ_clean_linker_0, # of connection points: 2
#     Edge 79, Type (0, 0), BuildingBlock: MIFKUJ_clean_linker_0, # of connection points: 2
#     Edge 80, Type (0, 0), BuildingBlock: MIFKUJ_clean_linker_0, # of connection points: 2
#     Edge 81, Type (0, 0), BuildingBlock: MIFKUJ_clean_linker_0, # of connection points: 2
#     Edge 82, Type (0, 0), BuildingBlock: MIFKUJ_clean_linker_0, # of connection points: 2
#     Edge 83, Type (0, 0), BuildingBlock: MIFKUJ_clean_linker_0, # of connection points: 2
#     Edge 84, Type (0, 0), BuildingBlock: MIFKUJ_clean_linker_0, # of connection points: 2
#     Edge 85, Type (0, 0), BuildingBlock: MIFKUJ_clean_linker_0, # of connection points: 2
#     Edge 86, Type (0, 0), BuildingBlock: MIFKUJ_clean_linker_0, # of connection points: 2
#     Edge 87, Type (0, 0), BuildingBlock: MIFKUJ_clean_linker_0, # of connection points: 2
#     Edge 88, Type (0, 0), BuildingBlock: MIFKUJ_clean_linker_0, # of connection points: 2
#     Edge 89, Type (0, 0), BuildingBlock: MIFKUJ_clean_linker_0, # of connection points: 2
#     Edge 90, Type (0, 0), BuildingBlock: MIFKUJ_clean_linker_0, # of connection points: 2
#     Edge 91, Type (0, 0), BuildingBlock: MIFKUJ_clean_linker_0, # of connection points: 2
#     Edge 92, Type (0, 0), BuildingBlock: MIFKUJ_clean_linker_0, # of connection points: 2
#     Edge 93, Type (0, 0), BuildingBlock: MIFKUJ_clean_linker_0, # of connection points: 2
#     Edge 94, Type (0, 0), BuildingBlock: MIFKUJ_clean_linker_0, # of connection points: 2
#     Edge 95, Type (0, 0), BuildingBlock: MIFKUJ_clean_linker_0, # of connection points: 2
# Relax obj value: 0.164
# Max RMSD: 0.156
# Mean RMSD: 0.156
data_MOF--net-uod--node1-QUQFOY_clean_sbu_3--edge1-MIFKUJ_clean_linker_0
_symmetry_space_group_name_H-M    P1
_symmetry_Int_Tables_number       1
_symmetry_cell_setting            triclinic
loop_
_symmetry_equiv_pos_as_xyz
'x, y, z'
_cell_length_a     118.12253
_cell_length_b     35.550188
_cell_length_c     82.992038
_cell_angle_alpha  90.004149
_cell_angle_beta   90.058872
_cell_angle_gamma 89.783767
loop_
_atom_site_label
_atom_site_type_symbol
_atom_site_fract_x
_atom_site_fract_y
_atom_site_fract_z
_atom_type_partial_charge
C0 C 0.03567 0.31358 0.12466 0.0
O1 O 0.03572 0.33385 0.13724 0.0
Cd2 Cd 0.0396 0.39909 0.13666 0.0
O3 O 0.03771 0.32781 0.11086 0.0
Cd4 Cd 0.04197 0.39087 0.09987 0.0
C5 C 0.06642 0.39552 0.1208 0.0
O6 O 0.02753 0.42237 0.11571 0.0
O7 O 0.03973 0.45827 0.10406 0.0
O8 O 0.02945 0.37493 0.07768 0.0
C9 C 0.03014 0.45478 0.11073 0.0
O10 O 0.06001 0.40247 0.13276 0.0
C11 C 0.03493 0.39272 0.067 0.0
O12 O 0.06218 0.38833 0.10701 0.0
O13 O 0.0445 0.40566 0.07118 0.0
C14 C 0.21844 0.90893 0.10008 0.0
O15 O 0.21848 0.88692 0.11213 0.0
Cd16 Cd 0.21238 0.82411 0.11275 0.0
O17 O 0.21515 0.8977 0.08621 0.0
Cd18 Cd 0.20904 0.83638 0.07399 0.0
C19 C 0.18526 0.83617 0.09706 0.0
O20 O 0.22204 0.8006 0.09006 0.0
O21 O 0.20968 0.76756 0.07757 0.0
O22 O 0.22207 0.84968 0.05214 0.0
C23 C 0.21858 0.76843 0.0861 0.0
O24 O 0.192 0.82884 0.10864 0.0
C25 C 0.21625 0.83406 0.04119 0.0
O26 O 0.189 0.84154 0.0828 0.0
O27 O 0.20632 0.82378 0.04507 0.0
C28 C 0.0369 0.91477 0.13797 0.0
O29 O 0.03648 0.89602 0.12497 0.0
Cd30 Cd 0.03971 0.83057 0.12307 0.0
O31 O 0.03916 0.89871 0.15134 0.0
Cd32 Cd 0.0429 0.83334 0.16049 0.0
C33 C 0.06687 0.82684 0.13818 0.0
O34 O 0.02784 0.80748 0.14393 0.0
O35 O 0.03919 0.76709 0.1547 0.0
O36 O 0.03104 0.84926 0.18355 0.0
C37 C 0.02984 0.77372 0.14773 0.0
O38 O 0.06006 0.82263 0.12642 0.0
C39 C 0.03622 0.82834 0.19353 0.0
O40 O 0.06309 0.83334 0.15232 0.0
O41 O 0.04537 0.81332 0.18865 0.0
C42 C 0.2184 0.29433 0.14192 0.0
O43 O 0.21783 0.31889 0.13085 0.0
Cd44 Cd 0.2128 0.38293 0.13427 0.0
O45 O 0.21628 0.3028 0.15656 0.0
Cd46 Cd 0.21081 0.36038 0.17179 0.0
C47 C 0.18627 0.36939 0.1508 0.0
O48 O 0.22345 0.40168 0.15712 0.0
O49 O 0.21138 0.42851 0.17291 0.0
O50 O 0.22427 0.342 0.19248 0.0
C51 C 0.22007 0.43128 0.1641 0.0
O52 O 0.19259 0.38014 0.13927 0.0
C53 C 0.21849 0.35484 0.20414 0.0
O54 O 0.19053 0.35889 0.16422 0.0
O55 O 0.20836 0.36461 0.20099 0.0
C56 C 0.96503 0.66031 0.89175 0.0
O57 O 0.9659 0.63887 0.87957 0.0
Cd58 Cd 0.9651 0.57225 0.87952 0.0
O59 O 0.96365 0.6468 0.90586 0.0
Cd60 Cd 0.96227 0.58298 0.91802 0.0
C61 C 0.93851 0.56284 0.89617 0.0
O62 O 0.97717 0.55708 0.90141 0.0
O63 O 0.96791 0.51688 0.9154 0.0
O64 O 0.97415 0.60445 0.94004 0.0
C65 C 0.97624 0.52361 0.90628 0.0
O66 O 0.94519 0.55888 0.88425 0.0
C67 C 0.96894 0.58652 0.95096 0.0
O68 O 0.94228 0.57328 0.90989 0.0
O69 O 0.95973 0.57078 0.94686 0.0
C70 C 0.78067 0.07036 0.88209 0.0
O71 O 0.77877 0.09467 0.87123 0.0
Cd72 Cd 0.78609 0.15652 0.87428 0.0
O73 O 0.78491 0.08016 0.89556 0.0
Cd74 Cd 0.7899 0.1393 0.90959 0.0
C75 C 0.81337 0.13726 0.88744 0.0
O76 O 0.77755 0.18637 0.89699 0.0
O77 O 0.79285 0.20593 0.90869 0.0
O78 O 0.77595 0.12522 0.93003 0.0
C79 C 0.7831 0.21333 0.90312 0.0
O80 O 0.80657 0.14759 0.87636 0.0
C81 C 0.78183 0.13684 0.94182 0.0
O82 O 0.80977 0.13078 0.90165 0.0
O83 O 0.79215 0.14433 0.93893 0.0
C84 C 0.96289 0.0543 0.85766 0.0
O85 O 0.963 0.07827 0.86899 0.0
Cd86 Cd 0.9586 0.14296 0.86581 0.0
O87 O 0.96079 0.06433 0.8432 0.0
Cd88 Cd 0.95674 0.12426 0.82888 0.0
C89 C 0.93205 0.13246 0.84893 0.0
O90 O 0.96967 0.16421 0.84382 0.0
O91 O 0.95686 0.19222 0.82952 0.0
O92 O 0.97096 0.1063 0.80927 0.0
C93 C 0.96609 0.19413 0.83725 0.0
O94 O 0.9384 0.14266 0.86053 0.0
C95 C 0.96597 0.12112 0.79729 0.0
O96 O 0.93633 0.12197 0.83553 0.0
O97 O 0.95581 0.1319 0.7995 0.0
C98 C 0.79617 0.68643 0.8524 0.0
O99 O 0.79607 0.67445 0.86683 0.0
Cd100 Cd 0.79404 0.61123 0.87576 0.0
O101 O 0.79584 0.66388 0.84047 0.0
Cd102 Cd 0.79598 0.5944 0.83789 0.0
C103 C 0.81937 0.57876 0.86172 0.0
O104 O 0.7805 0.58718 0.85731 0.0
O105 O 0.78757 0.53644 0.84718 0.0
O106 O 0.78497 0.60215 0.81336 0.0
C107 C 0.77988 0.55199 0.85545 0.0
O108 O 0.81286 0.58504 0.87361 0.0
C109 C 0.78989 0.576 0.80563 0.0
O110 O 0.81573 0.58224 0.8473 0.0
O111 O 0.79859 0.56149 0.8122 0.0
C112 C 0.02892 0.78961 0.60745 0.0
O113 O 0.02775 0.80906 0.6202 0.0
Cd114 Cd 0.03001 0.87475 0.62351 0.0
O115 O 0.03138 0.80504 0.594 0.0
Cd116 Cd 0.03437 0.87045 0.58387 0.0
C117 C 0.05744 0.88114 0.60857 0.0
O118 O 0.01985 0.89638 0.60094 0.0
O119 O 0.02962 0.93702 0.588 0.0
O120 O 0.02279 0.85516 0.56063 0.0
C121 C 0.02143 0.93044 0.5974 0.0
O122 O 0.05032 0.88316 0.62006 0.0
C123 C 0.02863 0.87364 0.55054 0.0
O124 O 0.05415 0.87532 0.5941 0.0
O125 O 0.03797 0.88686 0.55559 0.0
C126 C 0.22358 0.41117 0.61191 0.0
O127 O 0.22432 0.38591 0.62267 0.0
Cd128 Cd 0.21802 0.32313 0.61867 0.0
O129 O 0.22005 0.40319 0.59779 0.0
Cd130 Cd 0.2141 0.34714 0.58232 0.0
C131 C 0.19072 0.34193 0.60553 0.0
O132 O 0.22701 0.30182 0.59465 0.0
O133 O 0.21332 0.27959 0.58023 0.0
O134 O 0.22709 0.36692 0.56151 0.0
C135 C 0.22259 0.27396 0.58753 0.0
O136 O 0.19755 0.33009 0.6163 0.0
C137 C 0.22096 0.35641 0.5498 0.0
O138 O 0.19432 0.35159 0.59164 0.0
O139 O 0.21087 0.34682 0.55313 0.0
C140 C 0.03921 0.39668 0.6377 0.0
O141 O 0.03962 0.37233 0.62653 0.0
Cd142 Cd 0.04604 0.30977 0.63087 0.0
O143 O 0.04193 0.38803 0.65211 0.0
Cd144 Cd 0.04815 0.33131 0.6672 0.0
C145 C 0.07256 0.32906 0.64641 0.0
O146 O 0.03589 0.28665 0.65357 0.0
O147 O 0.04952 0.26338 0.66792 0.0
O148 O 0.03391 0.34957 0.68673 0.0
C149 C 0.04019 0.25848 0.66068 0.0
O150 O 0.06623 0.31667 0.6352 0.0
C151 C 0.03913 0.3367 0.69892 0.0
O152 O 0.06834 0.33882 0.65994 0.0
O153 O 0.04936 0.32661 0.69672 0.0
C154 C 0.20635 0.79647 0.64348 0.0
O155 O 0.20612 0.81614 0.63071 0.0
Cd156 Cd 0.20339 0.88209 0.62956 0.0
O157 O 0.20477 0.81151 0.65727 0.0
Cd158 Cd 0.20112 0.87556 0.66822 0.0
C159 C 0.17673 0.88693 0.64644 0.0
O160 O 0.21534 0.90225 0.65084 0.0
O161 O 0.20558 0.94247 0.66429 0.0
O162 O 0.21354 0.85537 0.69002 0.0
C163 C 0.21392 0.93597 0.65512 0.0
O164 O 0.18331 0.89093 0.63442 0.0
C165 C 0.20858 0.87399 0.70099 0.0
O166 O 0.18074 0.87919 0.66037 0.0
O167 O 0.19937 0.89023 0.69708 0.0
C168 C 0.96425 0.1491 0.37568 0.0
O169 O 0.96442 0.12794 0.36338 0.0
Cd170 Cd 0.96019 0.06315 0.36426 0.0
O171 O 0.96185 0.13589 0.38957 0.0
Cd172 Cd 0.95754 0.07289 0.40111 0.0
C173 C 0.93318 0.06667 0.37977 0.0
O174 O 0.97224 0.04185 0.38558 0.0
O175 O 0.96052 0.00521 0.39772 0.0
O176 O 0.96981 0.09084 0.42339 0.0
C177 C 0.97 0.00937 0.39081 0.0
O178 O 0.93971 0.06056 0.36787 0.0
C179 C 0.96438 0.07314 0.43415 0.0
O180 O 0.93727 0.07337 0.39369 0.0
O181 O 0.95494 0.05921 0.42993 0.0
C182 C 0.78379 0.55808 0.39416 0.0
O183 O 0.78375 0.58172 0.38271 0.0
Cd184 Cd 0.79114 0.64321 0.38496 0.0
O185 O 0.7873 0.56732 0.40816 0.0
Cd186 Cd 0.79383 0.62554 0.422 0.0
C187 C 0.81787 0.62361 0.40033 0.0
O188 O 0.78157 0.66887 0.40756 0.0
O189 O 0.79524 0.69346 0.42127 0.0
O190 O 0.77968 0.6102 0.442 0.0
C191 C 0.78597 0.69782 0.41381 0.0
O192 O 0.81136 0.63385 0.3889 0.0
C193 C 0.78491 0.62463 0.45382 0.0
O194 O 0.81393 0.61712 0.41437 0.0
O195 O 0.79514 0.63407 0.45137 0.0
C196 C 0.96668 0.54653 0.36066 0.0
O197 O 0.96696 0.56495 0.37376 0.0
Cd198 Cd 0.96371 0.63057 0.3756 0.0
O199 O 0.96454 0.56292 0.34733 0.0
Cd200 Cd 0.96047 0.62811 0.33835 0.0
C201 C 0.93655 0.63286 0.36077 0.0
O202 O 0.97535 0.6557 0.35479 0.0
O203 O 0.96345 0.69454 0.34413 0.0
O204 O 0.97235 0.61349 0.3152 0.0
C205 C 0.97292 0.68917 0.35096 0.0
O206 O 0.94333 0.63762 0.37251 0.0
C207 C 0.9669 0.63374 0.30526 0.0
O208 O 0.94035 0.62658 0.34664 0.0
O209 O 0.95763 0.6478 0.31022 0.0
C210 C 0.78418 0.16903 0.35845 0.0
O211 O 0.78466 0.14777 0.37073 0.0
Cd212 Cd 0.78653 0.08151 0.37102 0.0
O213 O 0.78497 0.15564 0.34421 0.0
Cd214 Cd 0.78764 0.09181 0.33235 0.0
C215 C 0.81254 0.07636 0.35246 0.0
O216 O 0.77382 0.06449 0.3502 0.0
O217 O 0.78324 0.02497 0.33595 0.0
O218 O 0.7747 0.10931 0.31074 0.0
C219 C 0.77508 0.031 0.34551 0.0
O220 O 0.80638 0.0711 0.36482 0.0
C221 C 0.77986 0.09096 0.29985 0.0
O222 O 0.80811 0.08619 0.33905 0.0
O223 O 0.78947 0.07739 0.30362 0.0
C224 C 0.5395 0.30644 0.61073 0.0
O225 O 0.5399 0.32999 0.6222 0.0
Cd226 Cd 0.54521 0.39333 0.61872 0.0
O227 O 0.54199 0.31613 0.59635 0.0
Cd228 Cd 0.54785 0.37468 0.58209 0.0
C229 C 0.57212 0.37949 0.60338 0.0
O230 O 0.53419 0.41298 0.59614 0.0
O231 O 0.54724 0.44349 0.58361 0.0
O232 O 0.53462 0.35432 0.56148 0.0
C233 C 0.53759 0.44369 0.59028 0.0
O234 O 0.56555 0.38994 0.61469 0.0
C235 C 0.53957 0.3705 0.54985 0.0
O236 O 0.56812 0.37022 0.58966 0.0
O237 O 0.54933 0.38386 0.55277 0.0
C238 C 0.70753 0.9067 0.60978 0.0
O239 O 0.70692 0.88487 0.62185 0.0
Cd240 Cd 0.70219 0.82013 0.62013 0.0
O241 O 0.70556 0.89469 0.59558 0.0
Cd242 Cd 0.70057 0.83456 0.58236 0.0
C243 C 0.67577 0.82855 0.60266 0.0
O244 O 0.71367 0.79802 0.59864 0.0
O245 O 0.70233 0.76655 0.58329 0.0
O246 O 0.7144 0.85432 0.56252 0.0
C247 C 0.71104 0.76703 0.59218 0.0
O248 O 0.68208 0.8199 0.61454 0.0
C249 C 0.70974 0.838 0.55067 0.0
O250 O 0.6801 0.83741 0.58909 0.0
O251 O 0.69989 0.82482 0.55305 0.0
C252 C 0.52506 0.92051 0.64472 0.0
O253 O 0.524 0.90007 0.63227 0.0
Cd254 Cd 0.52933 0.83614 0.62999 0.0
O255 O 0.52886 0.90686 0.65789 0.0
Cd256 Cd 0.53459 0.8434 0.66775 0.0
C257 C 0.55723 0.84259 0.64269 0.0
O258 O 0.52043 0.80875 0.65266 0.0
O259 O 0.53386 0.77597 0.66331 0.0
O260 O 0.5229 0.8526 0.69138 0.0
C261 C 0.52433 0.77671 0.65631 0.0
O262 O 0.54997 0.8369 0.6316 0.0
C263 C 0.52971 0.837 0.70118 0.0
O264 O 0.5541 0.84743 0.65726 0.0
O265 O 0.53951 0.829 0.69583 0.0
C266 C 0.72157 0.29706 0.63924 0.0
O267 O 0.72257 0.3193 0.62736 0.0
Cd268 Cd 0.71865 0.38463 0.62825 0.0
O269 O 0.71868 0.30927 0.6531 0.0
Cd270 Cd 0.71458 0.37074 0.66602 0.0
C271 C 0.69114 0.38007 0.64264 0.0
O272 O 0.72902 0.40407 0.65126 0.0
O273 O 0.71721 0.43877 0.66422 0.0
O274 O 0.72661 0.3498 0.68796 0.0
C275 C 0.72632 0.43643 0.65623 0.0
O276 O 0.69813 0.38716 0.63137 0.0
C277 C 0.72105 0.36624 0.69899 0.0
O278 O 0.69467 0.37169 0.65674 0.0
O279 O 0.71159 0.38061 0.69494 0.0
C280 C 0.46467 0.66419 0.39289 0.0
O281 O 0.46537 0.6432 0.38056 0.0
Cd282 Cd 0.46191 0.57786 0.38063 0.0
O283 O 0.46233 0.65043 0.40668 0.0
Cd284 Cd 0.45875 0.58651 0.41776 0.0
C285 C 0.43474 0.58023 0.39594 0.0
O286 O 0.47333 0.55513 0.40215 0.0
O287 O 0.4608 0.51917 0.41295 0.0
O288 O 0.47138 0.60228 0.43981 0.0
C289 C 0.47044 0.52244 0.40643 0.0
O290 O 0.4415 0.57369 0.38433 0.0
C291 C 0.46623 0.58305 0.45037 0.0
O292 O 0.43856 0.58784 0.40995 0.0
O293 O 0.45663 0.56998 0.44635 0.0
C294 C 0.28859 0.0287 0.39177 0.0
O295 O 0.28876 0.04474 0.3781 0.0
Cd296 Cd 0.28978 0.10983 0.37247 0.0
O297 O 0.28915 0.04763 0.40481 0.0
Cd298 Cd 0.29098 0.11548 0.41149 0.0
C299 C 0.31568 0.1245 0.3903 0.0
O300 O 0.27701 0.13496 0.39152 0.0
O301 O 0.28578 0.17945 0.40405 0.0
O302 O 0.27814 0.1059 0.43397 0.0
C303 C 0.27791 0.16962 0.3946 0.0
O304 O 0.30945 0.12358 0.3778 0.0
C305 C 0.28349 0.1267 0.44377 0.0
O306 O 0.31139 0.12073 0.40433 0.0
O307 O 0.29309 0.13863 0.43916 0.0
C308 C 0.46426 0.05972 0.36329 0.0
O309 O 0.46494 0.08247 0.37503 0.0
Cd310 Cd 0.46238 0.14826 0.37323 0.0
O311 O 0.46224 0.07153 0.34905 0.0
Cd312 Cd 0.45909 0.13384 0.33617 0.0
C313 C 0.43524 0.14707 0.35805 0.0
O314 O 0.47398 0.16528 0.35098 0.0
O315 O 0.46208 0.20142 0.33877 0.0
O316 O 0.47109 0.11345 0.31401 0.0
C317 C 0.47156 0.1977 0.34576 0.0
O318 O 0.44201 0.15489 0.36951 0.0
C319 C 0.46566 0.1311 0.30317 0.0
O320 O 0.43903 0.13655 0.34439 0.0
O321 O 0.45627 0.14567 0.30734 0.0
C322 C 0.28341 0.64155 0.35921 0.0
O323 O 0.28258 0.61543 0.36956 0.0
Cd324 Cd 0.28926 0.55382 0.36467 0.0
O325 O 0.28729 0.63493 0.34513 0.0
Cd326 Cd 0.29367 0.58002 0.32885 0.0
C327 C 0.3167 0.57481 0.3526 0.0
O328 O 0.27986 0.53823 0.34021 0.0
O329 O 0.29333 0.51132 0.32696 0.0
O330 O 0.28137 0.6033 0.30767 0.0
C331 C 0.28359 0.50909 0.33326 0.0
O332 O 0.30975 0.56261 0.36308 0.0
C333 C 0.28721 0.5898 0.2962 0.0
O334 O 0.3133 0.58419 0.33857 0.0
O335 O 0.29705 0.57785 0.29981 0.0
C336 C 0.52622 0.81698 0.11143 0.0
O337 O 0.52663 0.84499 0.12088 0.0
Cd338 Cd 0.53447 0.90367 0.11378 0.0
O339 O 0.52962 0.81967 0.09686 0.0
Cd340 Cd 0.53718 0.86924 0.07847 0.0
C341 C 0.56093 0.87222 0.1011 0.0
O342 O 0.52542 0.9188 0.08906 0.0
O343 O 0.53991 0.93697 0.07542 0.0
O344 O 0.52347 0.84836 0.05849 0.0
C345 C 0.53052 0.94513 0.08191 0.0
O346 O 0.55461 0.88936 0.11116 0.0
C347 C 0.52952 0.85607 0.04632 0.0
O348 O 0.55688 0.85982 0.08786 0.0
O349 O 0.53975 0.865 0.04911 0.0
C350 C 0.71909 0.39638 0.11493 0.0
O351 O 0.71878 0.36949 0.12498 0.0
Cd352 Cd 0.71254 0.3081 0.1188 0.0
O353 O 0.7161 0.39151 0.10029 0.0
Cd354 Cd 0.70946 0.33885 0.08296 0.0
C355 C 0.68561 0.33094 0.1052 0.0
O356 O 0.72257 0.29474 0.0947 0.0
O357 O 0.70921 0.27027 0.08056 0.0
O358 O 0.72233 0.36204 0.06246 0.0
C359 C 0.71867 0.26623 0.08757 0.0
O360 O 0.69212 0.31556 0.11554 0.0
C361 C 0.71648 0.35094 0.05056 0.0
O362 O 0.68961 0.34419 0.0921 0.0
O363 O 0.70655 0.33935 0.05368 0.0
C364 C 0.53371 0.4399 0.14546 0.0
O365 O 0.53448 0.42391 0.13183 0.0
Cd366 Cd 0.54123 0.36239 0.12707 0.0
O367 O 0.5365 0.42261 0.15835 0.0
Cd368 Cd 0.543 0.35794 0.16558 0.0
C369 C 0.56763 0.36734 0.14521 0.0
O370 O 0.53097 0.32645 0.14606 0.0
O371 O 0.54386 0.29244 0.1574 0.0
O372 O 0.52888 0.36211 0.18671 0.0
C373 C 0.53509 0.29415 0.14862 0.0
O374 O 0.56138 0.36474 0.13276 0.0
C375 C 0.53436 0.34325 0.19709 0.0
O376 O 0.56332 0.36727 0.15932 0.0
O377 O 0.54451 0.33464 0.19352 0.0
C378 C 0.71256 0.77929 0.1447 0.0
O379 O 0.71237 0.79677 0.13137 0.0
Cd380 Cd 0.70616 0.85934 0.12792 0.0
O381 O 0.70937 0.79533 0.15769 0.0
Cd382 Cd 0.70279 0.859 0.16598 0.0
C383 C 0.67902 0.85226 0.14355 0.0
O384 O 0.71603 0.8913 0.14863 0.0
O385 O 0.70275 0.92545 0.15888 0.0
O386 O 0.71602 0.85063 0.18802 0.0
C387 C 0.71212 0.92372 0.1515 0.0
O388 O 0.68579 0.85685 0.1318 0.0
C389 C 0.71049 0.86972 0.19825 0.0
O390 O 0.68274 0.85017 0.15797 0.0
O391 O 0.70057 0.87997 0.19415 0.0
C392 C 0.46381 0.17254 0.88686 0.0
O393 O 0.46289 0.16151 0.87237 0.0
Cd394 Cd 0.45796 0.09907 0.86508 0.0
O395 O 0.46194 0.15004 0.89849 0.0
Cd396 Cd 0.45699 0.08286 0.90126 0.0
C397 C 0.43175 0.09146 0.88217 0.0
O398 O 0.4706 0.06152 0.88095 0.0
O399 O 0.45904 0.01992 0.89018 0.0
O400 O 0.47018 0.08489 0.92371 0.0
C401 C 0.46813 0.02719 0.88274 0.0
O402 O 0.43768 0.09236 0.8694 0.0
C403 C 0.46481 0.06225 0.93267 0.0
O404 O 0.43652 0.0902 0.89594 0.0
O405 O 0.45513 0.05192 0.92771 0.0
C406 C 0.28472 0.56428 0.87047 0.0
O407 O 0.28519 0.58983 0.85985 0.0
Cd408 Cd 0.29339 0.64861 0.86638 0.0
O409 O 0.28767 0.57114 0.88495 0.0
Cd410 Cd 0.29373 0.62653 0.90097 0.0
C411 C 0.31893 0.62204 0.88346 0.0
O412 O 0.28277 0.67591 0.88807 0.0
O413 O 0.29798 0.69322 0.9005 0.0
O414 O 0.27833 0.61325 0.91955 0.0
C415 C 0.28824 0.70165 0.89516 0.0
O416 O 0.31342 0.6358 0.87163 0.0
C417 C 0.28354 0.6235 0.93216 0.0
O418 O 0.31388 0.61375 0.89653 0.0
O419 O 0.29404 0.63024 0.93063 0.0
C420 C 0.47277 0.55947 0.88065 0.0
O421 O 0.4715 0.584 0.89161 0.0
Cd422 Cd 0.46556 0.64626 0.88587 0.0
O423 O 0.47104 0.56781 0.86589 0.0
Cd424 Cd 0.46571 0.62462 0.85017 0.0
C425 C 0.44 0.62845 0.86771 0.0
O426 O 0.4781 0.6668 0.86494 0.0
O427 O 0.46542 0.69319 0.84998 0.0
O428 O 0.47978 0.60656 0.83005 0.0
C429 C 0.47469 0.69586 0.8576 0.0
O430 O 0.44537 0.64112 0.87984 0.0
C431 C 0.47404 0.61739 0.81797 0.0
O432 O 0.4453 0.61842 0.85506 0.0
O433 O 0.46389 0.62741 0.82072 0.0
C434 C 0.27697 0.17974 0.85861 0.0
O435 O 0.27728 0.17436 0.87371 0.0
Cd436 Cd 0.28436 0.11939 0.88633 0.0
O437 O 0.27984 0.15386 0.84881 0.0
Cd438 Cd 0.28477 0.08612 0.85092 0.0
C439 C 0.31017 0.10684 0.86684 0.0
O440 O 0.27373 0.06999 0.87493 0.0
O441 O 0.28729 0.03213 0.86843 0.0
O442 O 0.2696 0.07526 0.83178 0.0
C443 C 0.2788 0.03909 0.87727 0.0
O444 O 0.30444 0.11353 0.87954 0.0
C445 C 0.27498 0.05295 0.82263 0.0
O446 O 0.30522 0.09848 0.85364 0.0
O447 O 0.28531 0.04682 0.82617 0.0
H448 H 0.00945 0.78016 0.1323 0.0
H449 H 0.99625 0.72932 0.12569 0.0
H450 H 0.01869 0.64956 0.14868 0.0
H451 H 0.03179 0.69972 0.15522 0.0
H452 H 0.00069 0.67255 0.10623 0.0
H453 H 0.00599 0.58174 0.16635 0.0
H454 H 0.00264 0.59129 0.19529 0.0
H455 H 0.98195 0.68782 0.185 0.0
H456 H 0.98484 0.67831 0.1559 0.0
H457 H 0.03403 0.52752 0.10266 0.0
H458 H 0.02123 0.58052 0.10546 0.0
H459 H 0.99521 0.50698 0.12378 0.0
H460 H 0.00825 0.45348 0.12139 0.0
H461 H 0.99696 0.56282 0.14264 0.0
H462 H 0.98957 0.55905 0.08897 0.0
H463 H 0.99241 0.54702 0.06007 0.0
H464 H 0.01563 0.63934 0.0573 0.0
H465 H 0.01329 0.65124 0.08629 0.0
C466 C 0.01147 0.75176 0.13608 0.0
C467 C 0.02169 0.74371 0.14415 0.0
C468 C 0.00387 0.72292 0.13243 0.0
C469 C 0.00634 0.68586 0.13703 0.0
C470 C 0.01642 0.67813 0.14543 0.0
C471 C 0.02401 0.70673 0.14894 0.0
C472 C 0.99971 0.65383 0.13086 0.0
C473 C 0.99958 0.64853 0.1141 0.0
C474 C 0.99722 0.62327 0.14114 0.0
C475 C 0.99553 0.62899 0.15878 0.0
C476 C 0.00054 0.60464 0.17015 0.0
C477 C 0.99873 0.61006 0.18663 0.0
C478 C 0.99201 0.63994 0.19198 0.0
C479 C 0.9871 0.66454 0.18084 0.0
C480 C 0.98883 0.65913 0.16434 0.0
C481 C 0.02556 0.5225 0.10713 0.0
C482 C 0.02219 0.48654 0.112 0.0
C483 C 0.01813 0.55274 0.10845 0.0
C484 C 0.00711 0.54762 0.11443 0.0
C485 C 0.00361 0.51147 0.11893 0.0
C486 C 0.0111 0.4811 0.1177 0.0
C487 C 1.00028 0.5813 0.11841 0.0
C488 C 0.99751 0.58686 0.13466 0.0
C489 C 0.99988 0.6121 0.10763 0.0
C490 C 0.00113 0.6063 0.08993 0.0
C491 C 0.99529 0.57687 0.08224 0.0
C492 C 0.99684 0.56999 0.06581 0.0
C493 C 0.00414 0.59253 0.05682 0.0
C494 C 0.00992 0.62202 0.06426 0.0
C495 C 0.00846 0.6289 0.08072 0.0
H496 H 0.00537 0.58704 0.04412 0.0
H497 H 0.99069 0.64425 0.20475 0.0
H498 H 0.21109 0.69641 0.08296 0.0
H499 H 0.21648 0.64269 0.09967 0.0
H500 H 0.24142 0.71046 0.12403 0.0
H501 H 0.23617 0.76435 0.10726 0.0
H502 H 0.24808 0.6336 0.1194 0.0
H503 H 0.21813 0.70702 0.14169 0.0
H504 H 0.20017 0.74257 0.14087 0.0
H505 H 0.18227 0.64198 0.12809 0.0
H506 H 0.20016 0.60595 0.12853 0.0
H507 H 0.21877 0.49481 0.18219 0.0
H508 H 0.22461 0.55804 0.17424 0.0
H509 H 0.23788 0.51344 0.12963 0.0
H510 H 0.23255 0.45027 0.13789 0.0
H511 H 0.21494 0.59049 0.15103 0.0
H512 H 0.25564 0.56993 0.11127 0.0
H513 H 0.27396 0.53682 0.11309 0.0
H514 H 0.27151 0.5357 0.1647 0.0
H515 H 0.25325 0.5693 0.16323 0.0
C516 C 0.21788 0.69967 0.09163 0.0
C517 C 0.22305 0.73465 0.09408 0.0
C518 C 0.22096 0.66903 0.10112 0.0
C519 C 0.22919 0.67308 0.11319 0.0
C520 C 0.23502 0.70704 0.11478 0.0
C521 C 0.23195 0.73775 0.10527 0.0
C522 C 0.23058 0.64333 0.12531 0.0
C523 C 0.24092 0.62407 0.12646 0.0
C524 C 0.22134 0.63248 0.135 0.0
C525 C 0.2105 0.65383 0.13506 0.0
C526 C 0.21037 0.69252 0.13861 0.0
C527 C 0.2002 0.71276 0.13822 0.0
C528 C 0.19009 0.69456 0.13442 0.0
C529 C 0.19011 0.65605 0.13104 0.0
C530 C 0.20026 0.63569 0.13137 0.0
C531 C 0.22319 0.49854 0.17088 0.0
C532 C 0.22504 0.46802 0.16048 0.0
C533 C 0.22659 0.53453 0.1664 0.0
C534 C 0.23168 0.5405 0.15135 0.0
C535 C 0.23419 0.50953 0.14145 0.0
C536 C 0.23101 0.47345 0.14608 0.0
C537 C 0.23232 0.57885 0.14459 0.0
C538 C 0.22229 0.60014 0.14441 0.0
C539 C 0.24195 0.59188 0.13615 0.0
C540 C 0.25303 0.57207 0.13712 0.0
C541 C 0.25903 0.5629 0.12302 0.0
C542 C 0.26941 0.54396 0.12399 0.0
C543 C 0.27389 0.53411 0.139 0.0
C544 C 0.26802 0.54325 0.15308 0.0
C545 C 0.25764 0.5622 0.15218 0.0
H546 H 0.28192 0.51943 0.13972 0.0
H547 H 0.18222 0.71028 0.13411 0.0
H548 H 0.96362 0.25691 0.81891 0.0
H549 H 0.9726 0.31793 0.82312 0.0
H550 H 0.99105 0.2725 0.86369 0.0
H551 H 0.98246 0.21122 0.85911 0.0
H552 H 0.96787 0.35534 0.84818 0.0
H553 H 0.01305 0.32151 0.87406 0.0
H554 H 0.02948 0.28205 0.86679 0.0
H555 H 0.01891 0.28224 0.81728 0.0
H556 H 0.00241 0.32154 0.82422 0.0
H557 H 0.97663 0.45002 0.91506 0.0
H558 H 0.98275 0.39758 0.89823 0.0
H559 H 0.99625 0.47519 0.86334 0.0
H560 H 0.99027 0.52804 0.88021 0.0
H561 H 0.00634 0.38794 0.86777 0.0
H562 H 0.97392 0.46849 0.85226 0.0
H563 H 0.95756 0.50804 0.85988 0.0
H564 H 0.94298 0.41512 0.88547 0.0
H565 H 0.95937 0.37527 0.87823 0.0
C566 C 0.96974 0.2599 0.82856 0.0
C567 C 0.97217 0.22979 0.83896 0.0
C568 C 0.97495 0.29457 0.83082 0.0
C569 C 0.98252 0.29977 0.84366 0.0
C570 C 0.98544 0.26903 0.85347 0.0
C571 C 0.98037 0.23417 0.85104 0.0
C572 C 0.98543 0.33817 0.84898 0.0
C573 C 0.97638 0.36282 0.85192 0.0
C574 C 0.99651 0.34812 0.85391 0.0
C575 C 0.00647 0.3245 0.84969 0.0
C576 C 0.01426 0.3133 0.86161 0.0
C577 C 0.02356 0.29079 0.85755 0.0
C578 C 0.02522 0.27952 0.84159 0.0
C579 C 0.01758 0.29077 0.82965 0.0
C580 C 0.00822 0.31303 0.83366 0.0
C581 C 0.98128 0.45592 0.90412 0.0
C582 C 0.98264 0.49294 0.89864 0.0
C583 C 0.98491 0.42597 0.89463 0.0
C584 C 0.98981 0.43281 0.87954 0.0
C585 C 0.99253 0.46959 0.87502 0.0
C586 C 0.98897 0.49967 0.88458 0.0
C587 C 0.98874 0.40357 0.86718 0.0
C588 C 0.99802 0.38082 0.86319 0.0
C589 C 0.97791 0.39549 0.86087 0.0
C590 C 0.96788 0.41903 0.86477 0.0
C591 C 0.96725 0.45659 0.85957 0.0
C592 C 0.95797 0.47905 0.86383 0.0
C593 C 0.94924 0.4641 0.87316 0.0
C594 C 0.94975 0.42665 0.87824 0.0
C595 C 0.95902 0.40412 0.87405 0.0
H596 H 0.94206 0.48147 0.87644 0.0
H597 H 0.03243 0.26212 0.83847 0.0
H598 H 0.77284 0.5616 0.88639 0.0
H599 H 0.76513 0.51149 0.90336 0.0
H600 H 0.7609 0.44142 0.8614 0.0
H601 H 0.76893 0.49079 0.84456 0.0
H602 H 0.74663 0.4294 0.89773 0.0
H603 H 0.78598 0.41151 0.86601 0.0
H604 H 0.80199 0.44699 0.85451 0.0
H605 H 0.80295 0.5173 0.89656 0.0
H606 H 0.78695 0.48201 0.90831 0.0
H607 H 0.76536 0.24364 0.88638 0.0
H608 H 0.75835 0.30842 0.88796 0.0
H609 H 0.78256 0.33223 0.92557 0.0
H610 H 0.78971 0.2679 0.92385 0.0
H611 H 0.78546 0.37571 0.90034 0.0
H612 H 0.75444 0.34793 0.93419 0.0
H613 H 0.73784 0.31395 0.94464 0.0
H614 H 0.72035 0.33188 0.8999 0.0
H615 H 0.73678 0.36666 0.88928 0.0
C616 C 0.7697 0.53623 0.88073 0.0
C617 C 0.77175 0.52915 0.86436 0.0
C618 C 0.76515 0.50787 0.8904 0.0
C619 C 0.76259 0.47281 0.88359 0.0
C620 C 0.7628 0.46843 0.86681 0.0
C621 C 0.76757 0.4963 0.85725 0.0
C622 C 0.76434 0.43867 0.89323 0.0
C623 C 0.75509 0.41769 0.89868 0.0
C624 C 0.77542 0.42397 0.89458 0.0
C625 C 0.78533 0.4442 0.88801 0.0
C626 C 0.78969 0.43434 0.87284 0.0
C627 C 0.79873 0.45445 0.86626 0.0
C628 C 0.8035 0.48434 0.87481 0.0
C629 C 0.79925 0.4941 0.88997 0.0
C630 C 0.79022 0.47404 0.8966 0.0
C631 C 0.76907 0.26263 0.8951 0.0
C632 C 0.77826 0.25123 0.90469 0.0
C633 C 0.76494 0.29938 0.89621 0.0
C634 C 0.76989 0.32498 0.90698 0.0
C635 C 0.7786 0.31282 0.91724 0.0
C636 C 0.78278 0.27628 0.91606 0.0
C637 C 0.76775 0.36559 0.90498 0.0
C638 C 0.777 0.38771 0.90044 0.0
C639 C 0.75671 0.38116 0.9048 0.0
C640 C 0.74685 0.35979 0.91092 0.0
C641 C 0.74707 0.3445 0.92655 0.0
C642 C 0.73767 0.32526 0.93253 0.0
C643 C 0.72807 0.32059 0.92291 0.0
C644 C 0.7278 0.33551 0.90734 0.0
C645 C 0.73712 0.35524 0.90137 0.0
H646 H 0.72084 0.30545 0.92754 0.0
H647 H 0.81047 0.49991 0.86969 0.0
H648 H 0.02171 0.00519 0.59096 0.0
H649 H 0.01839 0.05553 0.61037 0.0
H650 H 0.00687 0.97466 0.64535 0.0
H651 H 0.01007 0.9239 0.62592 0.0
H652 H 0.99736 0.06373 0.64393 0.0
H653 H 0.02921 0.97933 0.65442 0.0
H654 H 0.04456 0.9372 0.64527 0.0
H655 H 0.05944 0.02796 0.61863 0.0
H656 H 0.04406 0.07045 0.62742 0.0
H657 H 0.04432 0.19965 0.68088 0.0
H658 H 0.03512 0.13814 0.68074 0.0
H659 H 0.01376 0.17428 0.64138 0.0
H660 H 0.02274 0.23581 0.6417 0.0
H661 H 0.0374 0.09332 0.65687 0.0
H662 H 0.99044 0.12948 0.63827 0.0
H663 H 0.97496 0.17023 0.648 0.0
H664 H 0.9901 0.1735 0.69502 0.0
H665 H 0.00573 0.13309 0.68557 0.0
C666 C 0.01809 -0.00175 0.60257 0.0
C667 C 0.01646 0.96072 0.60714 0.0
C668 C 0.01609 0.02701 0.61357 0.0
C669 C 0.01252 0.01847 0.62925 0.0
C670 C 0.00958 -0.01844 0.63324 0.0
C671 C 0.0115 0.95267 0.62217 0.0
C672 C 0.01475 0.04621 0.64192 0.0
C673 C 0.00605 0.0701 0.64713 0.0
C674 C 0.02605 0.05318 0.64655 0.0
C675 C 0.03547 0.02798 0.64153 0.0
C676 C 0.03572 -0.00978 0.64654 0.0
C677 C 0.04443 0.96629 0.64141 0.0
C678 C 0.05296 0.97989 0.63136 0.0
C679 C 0.05282 0.01747 0.62642 0.0
C680 C 0.04412 0.04149 0.63149 0.0
C681 C 0.03758 0.1945 0.67232 0.0
C682 C 0.03439 0.22207 0.66105 0.0
C683 C 0.03223 0.1596 0.67241 0.0
C684 C 0.02367 0.15175 0.66119 0.0
C685 C 0.02014 0.17995 0.65043 0.0
C686 C 0.02543 0.21488 0.6504 0.0
C687 C 0.02007 0.11261 0.65829 0.0
C688 C 0.02859 0.08644 0.65465 0.0
C689 C 0.00859 0.10326 0.65559 0.0
C690 C 0.99927 0.12815 0.66119 0.0
C691 C 0.99046 0.13877 0.6507 0.0
C692 C 0.98168 0.16197 0.65615 0.0
C693 C 0.98155 0.17448 0.67211 0.0
C694 C 0.99023 0.16392 0.68264 0.0
C695 C 0.99909 0.14107 0.67722 0.0
H696 H 0.97473 0.19237 0.67632 0.0
H697 H 0.0597 0.96136 0.62741 0.0
H698 H 0.21265 0.0108 0.6618 0.0
H699 H 0.22054 0.06187 0.64573 0.0
H700 H 0.23754 0.98139 0.61522 0.0
H701 H 0.22973 0.92993 0.6313 0.0
H702 H 0.2492 0.05784 0.621 0.0
H703 H 0.21555 -0.00126 0.60056 0.0
H704 H 0.19678 0.96952 0.6038 0.0
H705 H 0.18359 0.07283 0.62308 0.0
H706 H 0.20235 0.10242 0.62025 0.0
H707 H 0.21919 0.2154 0.56717 0.0
H708 H 0.22454 0.14979 0.57163 0.0
H709 H 0.24177 0.18152 0.61548 0.0
H710 H 0.23686 0.24723 0.61066 0.0
H711 H 0.21557 0.11606 0.595 0.0
H712 H 0.25947 0.11663 0.62893 0.0
H713 H 0.27846 0.14352 0.62488 0.0
H714 H 0.27197 0.15408 0.57416 0.0
H715 H 0.25301 0.12676 0.57784 0.0
C716 C 0.21828 0.00397 0.65192 0.0
C717 C 0.22033 0.9665 0.64749 0.0
C718 C 0.22287 0.03311 0.64287 0.0
C719 C 0.2295 0.02511 0.62927 0.0
C720 C 0.23247 -0.0121 0.62573 0.0
C721 C 0.2279 0.95864 0.63482 0.0
C722 C 0.23121 0.05485 0.61725 0.0
C723 C 0.24195 0.07063 0.61511 0.0
C724 C 0.22177 0.06995 0.60904 0.0
C725 C 0.21037 0.05271 0.61027 0.0
C726 C 0.20866 0.01515 0.60557 0.0
C727 C 0.19803 -0.00148 0.60733 0.0
C728 C 0.189 0.01929 0.61366 0.0
C729 C 0.19059 0.05678 0.61818 0.0
C730 C 0.20122 0.0735 0.61648 0.0
C731 C 0.22438 0.20838 0.57753 0.0
C732 C 0.2274 0.23599 0.58881 0.0
C733 C 0.22751 0.17101 0.57998 0.0
C734 C 0.23351 0.16068 0.59391 0.0
C735 C 0.23731 0.1888 0.6045 0.0
C736 C 0.23437 0.22631 0.60187 0.0
C737 C 0.23356 0.12105 0.59927 0.0
C738 C 0.22303 0.10306 0.60027 0.0
C739 C 0.24328 0.10363 0.60597 0.0
C740 C 0.25477 0.11971 0.6037 0.0
C741 C 0.26211 0.1244 0.61689 0.0
C742 C 0.27287 0.13982 0.61467 0.0
C743 C 0.27641 0.15055 0.59928 0.0
C744 C 0.26921 0.14585 0.58608 0.0
C745 C 0.25844 0.13046 0.58824 0.0
H746 H 0.28474 0.16249 0.59759 0.0
H747 H 0.18078 0.00636 0.61503 0.0
H748 H 0.96685 0.9362 0.39902 0.0
H749 H 0.98001 0.88432 0.3956 0.0
H750 H 0.00506 0.96028 0.3764 0.0
H751 H 0.99171 0.01263 0.37955 0.0
H752 H 0.00298 0.9057 0.35706 0.0
H753 H 0.01387 0.90117 0.4102 0.0
H754 H 0.01331 0.90785 0.43977 0.0
H755 H 0.98722 0.8244 0.4425 0.0
H756 H 0.98776 0.81663 0.413 0.0
H757 H 0.99346 0.6859 0.36619 0.0
H758 H 0.00591 0.73878 0.37276 0.0
H759 H 0.98233 0.81491 0.3498 0.0
H760 H 0.97001 0.76269 0.34323 0.0
H761 H 0.00087 0.79344 0.39232 0.0
H762 H 0.9936 0.88701 0.33342 0.0
H763 H 0.99664 0.87984 0.30427 0.0
H764 H 0.01871 0.78577 0.31278 0.0
H765 H 0.01611 0.79291 0.34206 0.0
C766 C 0.97519 0.94198 0.39424 0.0
C767 C 0.97818 0.97828 0.38932 0.0
C768 C 0.98284 0.91239 0.39259 0.0
C769 C 0.99368 0.91848 0.38611 0.0
C770 C 0.99681 0.955 0.38162 0.0
C771 C 0.98913 -0.01526 0.38326 0.0
C772 C 0.00051 0.88542 0.38125 0.0
C773 C 0.00282 0.88112 0.36477 0.0
C774 C 0.00139 0.85389 0.39154 0.0
C775 C 0.00092 0.85818 0.40935 0.0
C776 C 0.00802 0.8842 0.4171 0.0
C777 C 0.00773 0.8881 0.43386 0.0
C778 C 1.00021 0.86669 0.443 0.0
C779 C 0.99306 0.84095 0.43541 0.0
C780 C 0.99343 0.83651 0.41867 0.0
C781 C 0.99103 0.71394 0.3624 0.0
C782 C 0.9807 0.72036 0.35437 0.0
C783 C 0.9982 0.74397 0.36602 0.0
C784 C 0.99519 0.78065 0.36148 0.0
C785 C 0.98503 0.78673 0.35303 0.0
C786 C 0.97787 0.75692 0.34951 0.0
C787 C 0.00128 0.81368 0.36784 0.0
C788 C 0.00167 0.81794 0.38463 0.0
C789 C 0.00326 0.84516 0.35784 0.0
C790 C 0.00475 0.8408 0.34009 0.0
C791 C 0.99927 0.86515 0.32917 0.0
C792 C 0.00091 0.86108 0.31258 0.0
C793 C 0.00794 0.83258 0.30669 0.0
C794 C 0.01332 0.80799 0.31737 0.0
C795 C 0.01176 0.81203 0.33398 0.0
H796 H 0.00913 0.82932 0.29383 0.0
H797 H 0.99993 0.87005 0.45595 0.0
H798 H 0.79013 0.75995 0.43197 0.0
H799 H 0.78186 0.8226 0.42858 0.0
H800 H 0.76147 0.78132 0.38918 0.0
H801 H 0.76938 0.7186 0.39292 0.0
H802 H 0.7858 0.8613 0.40366 0.0
H803 H 0.73944 0.83157 0.3812 0.0
H804 H 0.72306 0.79385 0.38986 0.0
H805 H 0.73565 0.79302 0.43841 0.0
H806 H 0.75212 0.83055 0.43006 0.0
H807 H 0.7756 0.95697 0.33745 0.0
H808 H 0.77039 0.90469 0.35491 0.0
H809 H 0.75652 -0.01764 0.38964 0.0
H810 H 0.76157 0.03504 0.37214 0.0
H811 H 0.74688 0.89708 0.38672 0.0
H812 H 0.77943 0.97592 0.39932 0.0
H813 H 0.79546 0.01529 0.39062 0.0
H814 H 0.81011 0.9208 0.36594 0.0
H815 H 0.79402 0.88112 0.37421 0.0
C816 C 0.78376 0.76425 0.42274 0.0
C817 C 0.78055 0.73482 0.41245 0.0
C818 C 0.77896 0.79987 0.42095 0.0
C819 C 0.77099 0.8066 0.40873 0.0
C820 C 0.76739 0.77667 0.39896 0.0
C821 C 0.77207 0.74097 0.4009 0.0
C822 C 0.76815 0.84551 0.40397 0.0
C823 C 0.77722 0.86949 0.40049 0.0
C824 C 0.75697 0.85653 0.39992 0.0
C825 C 0.74704 0.83392 0.40498 0.0
C826 C 0.73869 0.82352 0.39374 0.0
C827 C 0.72942 0.802 0.39859 0.0
C828 C 0.72833 0.79095 0.41467 0.0
C829 C 0.73653 0.80142 0.42594 0.0
C830 C 0.74587 0.82266 0.42114 0.0
C831 C 0.77108 0.96287 0.34852 0.0
C832 C 0.76933 -6e-05 0.35373 0.0
C833 C 0.76798 0.93301 0.35837 0.0
C834 C 0.76323 0.94 0.37356 0.0
C835 C 0.76015 0.97665 0.3779 0.0
C836 C 0.76318 0.00664 0.36797 0.0
C837 C 0.76457 0.91111 0.38603 0.0
C838 C 0.75531 0.88927 0.39072 0.0
C839 C 0.77555 0.90238 0.39169 0.0
C840 C 0.7855 0.92564 0.38733 0.0
C841 C 0.78605 0.96361 0.39199 0.0
C842 C 0.79514 -0.01402 0.38712 0.0
C843 C 0.8038 0.97057 0.37772 0.0
C844 C 0.8034 0.9327 0.37322 0.0
C845 C 0.7943 0.91025 0.37801 0.0
H846 H 0.81082 -0.01206 0.37394 0.0
H847 H 0.72115 0.77431 0.4184 0.0
H848 H 0.53072 0.705 0.66285 0.0
H849 H 0.52411 0.64822 0.64959 0.0
H850 H 0.49924 0.71297 0.62328 0.0
H851 H 0.50593 0.7704 0.63649 0.0
H852 H 0.5051 0.60795 0.64467 0.0
H853 H 0.50111 0.68085 0.58442 0.0
H854 H 0.50615 0.74059 0.57105 0.0
H855 H 0.53597 0.74892 0.60046 0.0
H856 H 0.53116 0.68907 0.61384 0.0
H857 H 0.51502 0.44972 0.59598 0.0
H858 H 0.50441 0.50701 0.60242 0.0
H859 H 0.53483 0.5724 0.59619 0.0
H860 H 0.5453 0.51559 0.58905 0.0
H861 H 0.51727 0.61277 0.58748 0.0
H862 H 0.52728 0.5314 0.63353 0.0
H863 H 0.5263 0.47181 0.64873 0.0
H864 H 0.49005 0.48084 0.65053 0.0
H865 H 0.49084 0.54033 0.63519 0.0
C866 C 0.5237 0.70711 0.65447 0.0
C867 C 0.51903 0.74211 0.65036 0.0
C868 C 0.51984 0.67458 0.64704 0.0
C869 C 0.51127 0.67657 0.63534 0.0
C870 C 0.50591 0.71104 0.63221 0.0
C871 C 0.50978 0.74373 0.6397 0.0
C872 C 0.5096 0.64376 0.62478 0.0
C873 C 0.50738 0.60895 0.63201 0.0
C874 C 0.51266 0.64523 0.60832 0.0
C875 C 0.51569 0.6809 0.60023 0.0
C876 C 0.50874 0.69547 0.58799 0.0
C877 C 0.51156 0.7293 0.58042 0.0
C878 C 0.52135 0.74861 0.58495 0.0
C879 C 0.52838 0.73402 0.597 0.0
C880 C 0.52561 0.70016 0.60457 0.0
C881 C 0.51936 0.47649 0.59574 0.0
C882 C 0.53101 0.47837 0.59241 0.0
C883 C 0.51329 0.50912 0.59932 0.0
C884 C 0.51887 0.5438 0.60006 0.0
C885 C 0.53034 0.54592 0.59565 0.0
C886 C 0.53635 0.51344 0.59174 0.0
C887 C 0.51351 0.57686 0.60768 0.0
C888 C 0.51428 0.61168 0.59984 0.0
C889 C 0.50958 0.57541 0.62379 0.0
C890 C 0.5091 0.53991 0.63307 0.0
C891 C 0.51911 0.52053 0.63712 0.0
C892 C 0.51858 0.48681 0.64575 0.0
C893 C 0.50811 0.47248 0.65055 0.0
C894 C 0.49815 0.49192 0.64677 0.0
C895 C 0.49863 0.52561 0.6381 0.0
H896 H 0.50772 0.44637 0.65723 0.0
H897 H 0.52351 0.77482 0.57909 0.0
H898 H 0.72427 0.75084 0.61795 0.0
H899 H 0.73474 0.69298 0.62294 0.0
H900 H 0.72495 0.65128 0.57603 0.0
H901 H 0.7137 0.70823 0.57161 0.0
H902 H 0.72008 0.60286 0.59559 0.0
H903 H 0.75445 0.66561 0.58797 0.0
H904 H 0.76873 0.71587 0.58946 0.0
H905 H 0.77029 0.70381 0.64088 0.0
H906 H 0.75602 0.65353 0.63975 0.0
H907 H 0.74406 0.43967 0.63519 0.0
H908 H 0.75015 0.49528 0.62016 0.0
H909 H 0.72765 0.56438 0.64846 0.0
H910 H 0.72135 0.50919 0.66327 0.0
H911 H 0.75465 0.58851 0.62911 0.0
H912 H 0.70772 0.56967 0.61976 0.0
H913 H 0.69368 0.5184 0.61937 0.0
H914 H 0.71846 0.44342 0.59916 0.0
H915 H 0.73257 0.49447 0.59916 0.0
C916 C 0.72445 0.7294 0.60867 0.0
C917 C 0.71802 0.73339 0.59458 0.0
C918 C 0.73063 0.69659 0.61137 0.0
C919 C 0.73082 0.66783 0.59974 0.0
C920 C 0.72493 0.67299 0.58519 0.0
C921 C 0.71842 0.70527 0.58274 0.0
C922 C 0.73526 0.63022 0.60417 0.0
C923 C 0.7279 0.59962 0.60232 0.0
C924 C 0.74549 0.62545 0.61292 0.0
C925 C 0.75415 0.65564 0.61375 0.0
C926 C 0.7578 0.67372 0.59961 0.0
C927 C 0.7659 0.70224 0.6004 0.0
C928 C 0.77039 0.7131 0.61526 0.0
C929 C 0.76682 0.69533 0.62937 0.0
C930 C 0.75877 0.66666 0.62866 0.0
C931 C 0.74069 0.46693 0.63856 0.0
C932 C 0.732 0.47015 0.65007 0.0
C933 C 0.74431 0.49863 0.63011 0.0
C934 C 0.73928 0.53356 0.63321 0.0
C935 C 0.73164 0.53747 0.64602 0.0
C936 C 0.72796 0.50589 0.65435 0.0
C937 C 0.73925 0.56297 0.62084 0.0
C938 C 0.74728 0.59174 0.62142 0.0
C939 C 0.72982 0.56597 0.61047 0.0
C940 C 0.72119 0.53579 0.60952 0.0
C941 C 0.71013 0.54234 0.61507 0.0
C942 C 0.70217 0.51331 0.61495 0.0
C943 C 0.70518 0.47766 0.60927 0.0
C944 C 0.71614 0.47103 0.60358 0.0
C945 C 0.72411 0.5 0.60362 0.0
H946 H 0.69902 0.45518 0.60925 0.0
H947 H 0.77664 0.73524 0.61583 0.0
H948 H 0.49212 0.52182 0.39498 0.0
H949 H 0.50321 0.46675 0.3867 0.0
H950 H 0.47574 0.39449 0.4012 0.0
H951 H 0.46486 0.44891 0.40989 0.0
H952 H 0.49541 0.36047 0.40667 0.0
H953 H 0.47747 0.43314 0.36152 0.0
H954 H 0.47579 0.49106 0.34525 0.0
H955 H 0.51155 0.48829 0.33596 0.0
H956 H 0.51341 0.43047 0.35231 0.0
H957 H 0.46667 0.27137 0.34061 0.0
H958 H 0.47733 0.32538 0.34997 0.0
H959 H 0.50368 0.2519 0.36789 0.0
H960 H 0.49278 0.19725 0.35893 0.0
H961 H 0.49724 0.35859 0.34698 0.0
H962 H 0.51196 0.28801 0.40323 0.0
H963 H 0.50916 0.23027 0.4193 0.0
H964 H 0.47402 0.2287 0.40594 0.0
H965 H 0.47663 0.28657 0.38991 0.0
C966 C 0.48855 0.49406 0.3966 0.0
C967 C 0.47754 0.48954 0.40274 0.0
C968 C 0.49492 0.46271 0.39198 0.0
C969 C 0.49027 0.42661 0.39321 0.0
C970 C 0.47955 0.42208 0.40025 0.0
C971 C 0.47326 0.45324 0.40503 0.0
C972 C 0.49543 0.3939 0.38503 0.0
C973 C 0.49625 0.36008 0.39365 0.0
C974 C 0.4967 0.39347 0.36808 0.0
C975 C 0.49559 0.42791 0.35822 0.0
C976 C 0.48496 0.44502 0.35603 0.0
C977 C 0.48398 0.47779 0.34681 0.0
C978 C 0.49357 0.4934 0.33961 0.0
C979 C 0.50415 0.47621 0.34158 0.0
C980 C 0.50517 0.44348 0.35082 0.0
C981 C 0.4748 0.26667 0.34632 0.0
C982 C 0.47876 0.23019 0.34943 0.0
C983 C 0.48098 0.29759 0.3515 0.0
C984 C 0.49126 0.29263 0.35976 0.0
C985 C 0.49571 0.25628 0.36168 0.0
C986 C 0.48944 0.22517 0.35666 0.0
C987 C 0.49597 0.32515 0.36853 0.0
C988 C 0.49729 0.35896 0.36005 0.0
C989 C 0.4962 0.32558 0.38558 0.0
C990 C 0.49452 0.29118 0.39529 0.0
C991 C 0.50365 0.27529 0.40376 0.0
C992 C 0.50209 0.2426 0.41285 0.0
C993 C 0.49143 0.22576 0.4136 0.0
C994 C 0.48228 0.2417 0.40532 0.0
C995 C 0.48379 0.27444 0.39625 0.0
H996 H 0.49024 0.20042 0.42061 0.0
H997 H 0.4928 0.51877 0.33248 0.0
H998 H 0.26324 0.49695 0.34753 0.0
H999 H 0.2544 0.4363 0.35271 0.0
H1000 H 0.28056 0.38073 0.3253 0.0
H1001 H 0.28953 0.44143 0.32004 0.0
H1002 H 0.25661 0.34396 0.3265 0.0
H1003 H 0.28876 0.39104 0.35932 0.0
H1004 H 0.29791 0.44249 0.37441 0.0
H1005 H 0.26847 0.45329 0.40441 0.0
H1006 H 0.2591 0.40225 0.38928 0.0
H1007 H 0.27808 0.18061 0.36245 0.0
H1008 H 0.27102 0.23611 0.3483 0.0
H1009 H 0.25572 0.27584 0.39247 0.0
H1010 H 0.26365 0.22168 0.40675 0.0
H1011 H 0.26908 0.32422 0.38303 0.0
H1012 H 0.23997 0.2596 0.35539 0.0
H1013 H 0.23084 0.20916 0.33973 0.0
H1014 H 0.25334 0.22991 0.30014 0.0
H1015 H 0.26274 0.28003 0.31566 0.0
C1016 C 0.26696 0.47195 0.34224 0.0
C1017 C 0.27728 0.4736 0.33386 0.0
C1018 C 0.26179 0.43746 0.345 0.0
C1019 C 0.26689 0.40432 0.33944 0.0
C1020 C 0.27649 0.40622 0.32956 0.0
C1021 C 0.2817 0.44078 0.32682 0.0
C1022 C 0.26426 0.36867 0.34748 0.0
C1023 C 0.25923 0.33927 0.33887 0.0
C1024 C 0.26747 0.36339 0.3637 0.0
C1025 C 0.27321 0.39323 0.3731 0.0
C1026 C 0.28423 0.40457 0.36908 0.0
C1027 C 0.28945 0.43362 0.37763 0.0
C1028 C 0.28376 0.45123 0.39033 0.0
C1029 C 0.27286 0.43968 0.39455 0.0
C1030 C 0.26759 0.41071 0.386 0.0
C1031 C 0.27294 0.2008 0.36894 0.0
C1032 C 0.27148 0.19764 0.38562 0.0
C1033 C 0.26875 0.23229 0.36085 0.0
C1034 C 0.26277 0.26027 0.36931 0.0
C1035 C 0.26034 0.25482 0.38572 0.0
C1036 C 0.26487 0.22402 0.39391 0.0
C1037 C 0.26143 0.29815 0.36213 0.0
C1038 C 0.26593 0.32844 0.37086 0.0
C1039 C 0.25765 0.3039 0.34609 0.0
C1040 C 0.25207 0.27361 0.33671 0.0
C1041 C 0.24303 0.25325 0.34338 0.0
C1042 C 0.23779 0.22472 0.33453 0.0
C1043 C 0.24151 0.21633 0.31895 0.0
C1044 C 0.25046 0.23646 0.3122 0.0
C1045 C 0.25573 0.265 0.32101 0.0
H1046 H 0.23744 0.19424 0.31212 0.0
H1047 H 0.28781 0.47375 0.39693 0.0
H1048 H 0.54245 0.22217 0.15193 0.0
H1049 H 0.53547 0.16673 0.13794 0.0
H1050 H 0.51016 0.2343 0.11386 0.0
H1051 H 0.51723 0.29038 0.12774 0.0
H1052 H 0.51525 0.13156 0.13692 0.0
H1053 H 0.50832 0.19644 0.07504 0.0
H1054 H 0.51374 0.25245 0.05927 0.0
H1055 H 0.54535 0.25801 0.08476 0.0
H1056 H 0.54016 0.20182 0.10052 0.0
H1057 H 0.50947 0.96929 0.09015 0.0
H1058 H 0.50378 0.03368 0.0968 0.0
H1059 H 0.53723 0.07273 0.08453 0.0
H1060 H 0.54286 0.00875 0.07747 0.0
H1061 H 0.52132 0.12578 0.07779 0.0
H1062 H 0.53171 0.04122 0.12227 0.0
H1063 H 0.52922 -0.01616 0.1386 0.0
H1064 H 0.495 0.01654 0.14923 0.0
H1065 H 0.49726 0.07389 0.13275 0.0
C1066 C 0.53536 0.22526 0.14373 0.0
C1067 C 0.53046 0.26056 0.14077 0.0
C1068 C 0.53132 0.19354 0.13586 0.0
C1069 C 0.52233 0.19657 0.12489 0.0
C1070 C 0.51715 0.23157 0.12225 0.0
C1071 C 0.52121 0.26345 0.13015 0.0
C1072 C 0.51912 0.16317 0.11549 0.0
C1073 C 0.51629 0.13043 0.12393 0.0
C1074 C 0.52049 0.16186 0.09857 0.0
C1075 C 0.52377 0.19534 0.08908 0.0
C1076 C 0.51642 0.20964 0.07725 0.0
C1077 C 0.51946 0.24139 0.06831 0.0
C1078 C 0.52986 0.25888 0.07106 0.0
C1079 C 0.53728 0.24454 0.08269 0.0
C1080 C 0.53429 0.21278 0.09163 0.0
C1081 C 0.51552 -0.00819 0.08859 0.0
C1082 C 0.52667 -0.01585 0.08366 0.0
C1083 C 0.51223 0.02849 0.09225 0.0
C1084 C 0.52014 0.0577 0.09135 0.0
C1085 C 0.531 0.0505 0.08525 0.0
C1086 C 0.53425 0.01392 0.08139 0.0
C1087 C 0.51796 0.09397 0.09934 0.0
C1088 C 0.51971 0.12724 0.09064 0.0
C1089 C 0.51592 0.09568 0.11613 0.0
C1090 C 0.5146 0.06149 0.12614 0.0
C1091 C 0.52364 0.03602 0.12802 0.0
C1092 C 0.52227 0.00353 0.1373 0.0
C1093 C 0.51195 -0.00351 0.14491 0.0
C1094 C 0.50298 0.02199 0.14329 0.0
C1095 C 0.50429 0.05446 0.13398 0.0
H1096 H 0.5109 0.97133 0.15209 0.0
H1097 H 0.53219 0.28347 0.06414 0.0
H1098 H 0.70437 -0.00434 0.15277 0.0
H1099 H 0.71319 0.05127 0.14127 0.0
H1100 H 0.74171 -0.01575 0.12567 0.0
H1101 H 0.73275 0.92802 0.13687 0.0
H1102 H 0.7325 0.08828 0.14571 0.0
H1103 H 0.74964 0.02079 0.08878 0.0
H1104 H 0.74748 0.96318 0.07243 0.0
H1105 H 0.71263 0.95529 0.08668 0.0
H1106 H 0.71457 0.01302 0.10296 0.0
H1107 H 0.73937 0.25086 0.10047 0.0
H1108 H 0.7467 0.18909 0.10826 0.0
H1109 H 0.71715 0.13672 0.08757 0.0
H1110 H 0.70996 0.19809 0.07933 0.0
H1111 H 0.7352 0.0901 0.08603 0.0
H1112 H 0.71629 0.17149 0.12595 0.0
H1113 H 0.71481 0.23005 0.14181 0.0
H1114 H 0.74796 0.21044 0.16149 0.0
H1115 H 0.74967 0.15202 0.14553 0.0
C1116 C 0.71255 -0.00723 0.14699 0.0
C1117 C 0.7178 0.95755 0.14548 0.0
C1118 C 0.71763 0.02458 0.14056 0.0
C1119 C 0.72808 0.02173 0.13259 0.0
C1120 C 0.73361 -0.01314 0.13168 0.0
C1121 C 0.72846 0.95487 0.13802 0.0
C1122 C 0.73242 0.05496 0.12403 0.0
C1123 C 0.73343 0.08859 0.1327 0.0
C1124 C 0.73362 0.05521 0.10708 0.0
C1125 C 0.73231 0.02081 0.09722 0.0
C1126 C 0.74153 0.00672 0.08839 0.0
C1127 C 0.74033 0.97409 0.07914 0.0
C1128 C 0.72993 0.9555 0.07857 0.0
C1129 C 0.72069 0.96962 0.08718 0.0
C1130 C 0.72183 0.00227 0.09642 0.0
C1131 C 0.73457 0.22604 0.09728 0.0
C1132 C 0.72393 0.22914 0.08978 0.0
C1133 C 0.73883 0.19085 0.10159 0.0
C1134 C 0.73235 0.15857 0.09876 0.0
C1135 C 0.72227 0.16138 0.08987 0.0
C1136 C 0.71809 0.19648 0.08535 0.0
C1137 C 0.73462 0.12353 0.10766 0.0
C1138 C 0.73495 0.08957 0.0991 0.0
C1139 C 0.73422 0.123 0.12471 0.0
C1140 C 0.73316 0.15778 0.13443 0.0
C1141 C 0.72327 0.17982 0.13361 0.0
C1142 C 0.7224 0.21296 0.1426 0.0
C1143 C 0.73131 0.22402 0.15261 0.0
C1144 C 0.74109 0.2019 0.15369 0.0
C1145 C 0.74202 0.1688 0.14466 0.0
H1146 H 0.73062 0.24967 0.15957 0.0
H1147 H 0.72903 0.93022 0.07143 0.0
H1148 H 0.46863 0.76335 0.8449 0.0
H1149 H 0.47975 0.82039 0.84399 0.0
H1150 H 0.50766 0.763 0.86718 0.0
H1151 H 0.49628 0.70573 0.86863 0.0
H1152 H 0.50527 0.82215 0.8816 0.0
H1153 H 0.51327 0.81276 0.82838 0.0
H1154 H 0.51239 0.79649 0.79955 0.0
H1155 H 0.48309 0.86695 0.79371 0.0
H1156 H 0.48393 0.88447 0.82242 0.0
H1157 H 0.48679 0.03249 0.86332 0.0
H1158 H 0.50032 -0.01786 0.85671 0.0
H1159 H 0.48127 0.9051 0.88627 0.0
H1160 H 0.46783 0.95463 0.89273 0.0
H1161 H 0.49627 0.91942 0.84073 0.0
H1162 H 0.49784 0.84402 0.90559 0.0
H1163 H 0.50361 0.86134 0.93304 0.0
H1164 H 0.51938 0.96147 0.91511 0.0
H1165 H 0.5142 0.94406 0.88737 0.0
C1166 C 0.47716 0.76277 0.84971 0.0
C1167 C 0.48152 0.73032 0.85704 0.0
C1168 C 0.48365 0.79523 0.84885 0.0
C1169 C 0.49474 0.79591 0.85509 0.0
C1170 C 0.49921 0.76315 0.86212 0.0
C1171 C 0.49264 0.73061 0.86311 0.0
C1172 C 0.50042 0.83273 0.857 0.0
C1173 C 0.50353 0.84354 0.87265 0.0
C1174 C 0.49948 0.86052 0.8449 0.0
C1175 C 0.4987 0.85005 0.8276 0.0
C1176 C 0.50662 0.82478 0.82097 0.0
C1177 C 0.50615 0.81541 0.80462 0.0
C1178 C 0.49764 0.83044 0.79483 0.0
C1179 C 0.48968 0.85532 0.80132 0.0
C1180 C 0.49022 0.86531 0.8176 0.0
C1181 C 0.48556 0.00477 0.86842 0.0
C1182 C 0.47619 -0.00275 0.87837 0.0
C1183 C 0.49334 0.97625 0.86476 0.0
C1184 C 0.49196 0.94019 0.8713 0.0
C1185 C 0.48269 0.933 0.88143 0.0
C1186 C 0.47488 0.96117 0.88489 0.0
C1187 C 0.49895 0.90802 0.86596 0.0
C1188 C 0.49851 0.89827 0.8496 0.0
C1189 C 0.50292 0.88139 0.87732 0.0
C1190 C 0.50568 0.89246 0.89421 0.0
C1191 C 0.50271 0.86943 0.90735 0.0
C1192 C 0.50592 0.87922 0.92301 0.0
C1193 C 0.51192 0.91234 0.9258 0.0
C1194 C 0.51474 0.93576 0.91293 0.0
C1195 C 0.51169 0.92588 0.89721 0.0
H1196 H 0.51431 0.92 0.93796 0.0
H1197 H 0.49725 0.82287 0.7822 0.0
H1198 H 0.29871 0.7668 0.90303 0.0
H1199 H 0.28991 0.8249 0.91235 0.0
H1200 H 0.25687 0.77417 0.90812 0.0
H1201 H 0.26568 0.71628 0.89803 0.0
H1202 H 0.25663 0.83954 0.89524 0.0
H1203 H 0.26923 0.79482 0.94495 0.0
H1204 H 0.28218 0.76596 0.96476 0.0
H1205 H 0.30426 0.86106 0.96148 0.0
H1206 H 0.29184 0.88981 0.94115 0.0
H1207 H 0.2582 0.03354 0.89213 0.0
H1208 H 0.25203 -0.01794 0.90977 0.0
H1209 H 0.28598 0.93662 0.90935 0.0
H1210 H 0.29208 -0.01271 0.89188 0.0
H1211 H 0.27409 0.91832 0.93777 0.0
H1212 H 0.26869 0.91777 0.87656 0.0
H1213 H 0.2594 0.94749 0.85312 0.0
H1214 H 0.22711 0.93844 0.87656 0.0
H1215 H 0.23631 0.90943 0.90031 0.0
C1216 C 0.28957 0.76812 0.90404 0.0
C1217 C 0.28286 0.73736 0.89968 0.0
C1218 C 0.28455 0.80105 0.90965 0.0
C1219 C 0.27274 0.80344 0.91147 0.0
C1220 C 0.266 0.7727 0.90704 0.0
C1221 C 0.27103 0.73991 0.90112 0.0
C1222 C 0.26755 0.83978 0.91609 0.0
C1223 C 0.26009 0.8563 0.90499 0.0
C1224 C 0.27194 0.8616 0.92896 0.0
C1225 C 0.27944 0.84477 0.94154 0.0
C1226 C 0.27688 0.80955 0.94834 0.0
C1227 C 0.28416 0.79312 0.95965 0.0
C1228 C 0.29397 0.81176 0.96445 0.0
C1229 C 0.2966 0.84676 0.95785 0.0
C1230 C 0.28943 0.86315 0.94641 0.0
C1231 C 0.26438 0.01312 0.89628 0.0
C1232 C 0.27552 0.0135 0.89032 0.0
C1233 C 0.26087 -0.01595 0.90645 0.0
C1234 C 0.26851 0.95541 0.91074 0.0
C1235 C 0.27993 0.9585 0.90627 0.0
C1236 C 0.28339 -0.01289 0.89603 0.0
C1237 C 0.26458 0.91784 0.91573 0.0
C1238 C 0.27007 0.90065 0.9288 0.0
C1239 C 0.25874 0.89528 0.90445 0.0
C1240 C 0.25315 0.91166 0.89013 0.0
C1241 C 0.25961 0.9221 0.87666 0.0
C1242 C 0.25437 0.93892 0.86337 0.0
C1243 C 0.24266 0.94476 0.86332 0.0
C1244 C 0.23618 0.9339 0.87661 0.0
C1245 C 0.2414 0.9174 0.89001 0.0
H1246 H 0.23862 0.95769 0.853 0.0
H1247 H 0.29957 0.79902 0.97325 0.0
H1248 H 0.9612 0.54126 0.97523 0.0
H1249 H 0.97277 0.51133 0.99605 0.0
H1250 H 0.00136 0.57871 0.98187 0.0
H1251 H 0.98986 0.60881 0.96104 0.0
H1252 H 0.00601 0.50373 0.98051 0.0
H1253 H 0.99013 0.58968 0.01836 0.0
H1254 H 0.97536 0.62427 0.03326 0.0
H1255 H 0.96193 0.52017 0.05101 0.0
H1256 H 0.97654 0.48486 0.03604 0.0
H1257 H 0.04315 0.44004 0.04378 0.0
H1258 H 0.03194 0.47373 0.02358 0.0
H1259 H 0.00257 0.40871 0.03647 0.0
H1260 H 0.01368 0.37491 0.05666 0.0
H1261 H 0.99871 0.48442 0.03873 0.0
H1262 H 0.01423 0.39839 5e-05 0.0
H1263 H 0.02925 0.36404 0.98552 0.0
H1264 H 0.04338 0.46857 0.9694 0.0
H1265 H 0.02853 0.5036 0.98403 0.0
C1266 C 0.96983 0.55068 0.9769 0.0
C1267 C 0.97464 0.57714 0.96635 0.0
C1268 C 0.97645 0.53344 0.98879 0.0
C1269 C 0.98796 0.54247 0.99037 0.0
C1270 C 0.99252 0.5711 0.98075 0.0
C1271 C 0.9859 0.58848 0.96892 0.0
C1272 C 0.9955 0.51922 0.00068 0.0
C1273 C 0.00453 0.49999 0.99331 0.0
C1274 C 0.99336 0.51353 0.01725 0.0
C1275 C 0.98437 0.53459 0.02592 0.0
C1276 C 0.98393 0.5741 0.02525 0.0
C1277 C 0.97562 0.59386 0.03377 0.0
C1278 C 0.96769 0.57443 0.04303 0.0
C1279 C 0.96807 0.53518 0.0438 0.0
C1280 C 0.97637 0.51528 0.03532 0.0
C1281 C 0.0344 0.43202 0.04195 0.0
C1282 C 0.02929 0.405 0.05193 0.0
C1283 C 0.02799 0.45143 0.03043 0.0
C1284 C 0.01639 0.44402 0.02867 0.0
C1285 C 0.01149 0.41509 0.03776 0.0
C1286 C 0.01789 0.39559 0.04921 0.0
C1287 C 0.00914 0.46866 0.01852 0.0
C1288 C 1.00019 0.48819 0.02593 0.0
C1289 C 0.01134 0.47461 0.00198 0.0
C1290 C 0.02034 0.45363 0.99329 0.0
C1291 C 0.02061 0.41407 0.99355 0.0
C1292 C 0.02907 0.39448 0.98526 0.0
C1293 C 0.03728 0.41411 0.97658 0.0
C1294 C 0.03702 0.4534 0.97615 0.0
C1295 C 0.02858 0.47314 0.98443 0.0
H1296 H 0.04382 0.39889 0.97016 0.0
H1297 H 0.96128 0.58979 0.04965 0.0
H1298 H 0.29097 0.66689 0.95721 0.0
H1299 H 0.2791 0.70129 0.97637 0.0
H1300 H 0.24957 0.64403 0.95839 0.0
H1301 H 0.26137 0.6094 0.93924 0.0
H1302 H 0.26231 0.74988 0.96527 0.0
H1303 H 0.22952 0.64333 0.98928 0.0
H1304 H 0.22852 0.57662 0.99731 0.0
H1305 H 0.26405 0.5768 0.00828 0.0
H1306 H 0.26524 0.64361 0.00053 0.0
H1307 H 0.20757 0.78688 0.01822 0.0
H1308 H 0.21844 0.75147 0.9982 0.0
H1309 H 0.24843 0.81357 0.01105 0.0
H1310 H 0.23761 0.84952 0.0307 0.0
H1311 H 0.23495 0.70468 0.00604 0.0
H1312 H 0.26719 0.81342 0.98474 0.0
H1313 H 0.26837 0.87923 0.9754 0.0
H1314 H 0.23395 0.87424 0.95887 0.0
H1315 H 0.23262 0.80829 0.968 0.0
C1316 C 0.28202 0.6606 0.9577 0.0
C1317 C 0.27711 0.63551 0.94663 0.0
C1318 C 0.27522 0.68063 0.96855 0.0
C1319 C 0.26344 0.6756 0.96866 0.0
C1320 C 0.25864 0.64832 0.95854 0.0
C1321 C 0.26542 0.62846 0.94762 0.0
C1322 C 0.25606 0.70156 0.97801 0.0
C1323 C 0.25651 0.74012 0.97444 0.0
C1324 C 0.2481 0.68858 0.98941 0.0
C1325 C 0.24748 0.64838 0.99413 0.0
C1326 C 0.23712 0.62916 0.99343 0.0
C1327 C 0.23652 0.59132 0.99794 0.0
C1328 C 0.24623 0.57244 0.00325 0.0
C1329 C 0.25655 0.5914 0.00409 0.0
C1330 C 0.25719 0.62923 0.99961 0.0
C1331 C 0.21638 0.79399 0.01634 0.0
C1332 C 0.22173 0.82089 0.02614 0.0
C1333 C 0.22261 0.77346 0.00499 0.0
C1334 C 0.23428 0.77964 0.00314 0.0
C1335 C 0.23942 0.80852 0.01204 0.0
C1336 C 0.2332 0.82909 0.02334 0.0
C1337 C 0.24134 0.75324 0.99346 0.0
C1338 C 0.24081 0.71455 0.99692 0.0
C1339 C 0.24925 0.76605 0.98196 0.0
C1340 C 0.24983 0.80603 0.97702 0.0
C1341 C 0.25989 0.82642 0.9791 0.0
C1342 C 0.26057 0.86373 0.97387 0.0
C1343 C 0.25124 0.8809 0.96653 0.0
C1344 C 0.24117 0.8609 0.96454 0.0
C1345 C 0.24044 0.82359 0.96978 0.0
H1346 H 0.25181 0.9097 0.96239 0.0
H1347 H 0.24574 0.54316 0.00673 0.0
H1348 H 0.04288 0.77206 0.21396 0.0
H1349 H 0.03095 0.73981 0.2336 0.0
H1350 H 0.00455 0.82207 0.22611 0.0
H1351 H 0.01644 0.85464 0.20651 0.0
H1352 H 0.00561 0.79681 0.25806 0.0
H1353 H 0.0038 0.74519 0.20444 0.0
H1354 H 0.01216 0.71979 0.17952 0.0
H1355 H 0.02678 0.62814 0.20619 0.0
H1356 H 0.0186 0.65334 0.23134 0.0
H1357 H 0.95971 0.68971 0.28502 0.0
H1358 H 0.97127 0.7227 0.26513 0.0
H1359 H 0.99816 0.64194 0.27202 0.0
H1360 H 0.98666 0.60865 0.29186 0.0
H1361 H 0.99657 0.66696 0.24015 0.0
H1362 H 0.99862 0.71943 0.29385 0.0
H1363 H 0.99002 0.74453 0.31869 0.0
H1364 H 0.97474 0.83442 0.29169 0.0
H1365 H 0.98316 0.80954 0.26663 0.0
C1366 C 0.03469 0.78406 0.21687 0.0
C1367 C 0.03056 0.81568 0.20851 0.0
C1368 C 0.02785 0.76541 0.22802 0.0
C1369 C 0.01677 0.77806 0.23102 0.0
C1370 C 0.01304 0.81168 0.22389 0.0
C1371 C 0.01987 0.83029 0.21269 0.0
C1372 C 0.00869 0.75421 0.24011 0.0
C1373 C 0.00356 0.76858 0.25406 0.0
C1374 C 0.00606 0.71724 0.23496 0.0
C1375 C 0.01071 0.7014 0.2198 0.0
C1376 C 0.00887 0.71978 0.20501 0.0
C1377 C 0.0136 0.70546 0.19084 0.0
C1378 C 0.0201 0.67255 0.19129 0.0
C1379 C 0.02181 0.65377 0.20589 0.0
C1380 C 0.01711 0.66801 0.2201 0.0
C1381 C 0.96793 0.6782 0.28193 0.0
C1382 C 0.97232 0.6468 0.29017 0.0
C1383 C 0.97456 0.69728 0.27063 0.0
C1384 C 0.98567 0.68526 0.2674 0.0
C1385 C 0.98964 0.65185 0.27444 0.0
C1386 C 0.98304 0.63282 0.28577 0.0
C1387 C 0.99354 0.70948 0.25813 0.0
C1388 C 0.99863 0.69519 0.24414 0.0
C1389 C 0.99612 0.74653 0.26323 0.0
C1390 C 0.99141 0.76239 0.27835 0.0
C1391 C 0.99337 0.74442 0.2932 0.0
C1392 C 0.9885 0.75855 0.30731 0.0
C1393 C 0.98173 0.79085 0.30674 0.0
C1394 C 0.97991 0.80926 0.29209 0.0
C1395 C 0.98476 0.79521 0.27794 0.0
H1396 H 0.978 0.80188 0.31767 0.0
H1397 H 0.02373 0.66135 0.18032 0.0
H1398 H 0.23998 0.33853 0.21424 0.0
H1399 H 0.25154 0.37872 0.23147 0.0
H1400 H 0.222 0.44431 0.24373 0.0
H1401 H 0.21036 0.40415 0.2266 0.0
H1402 H 0.23847 0.48616 0.22899 0.0
H1403 H 0.23601 0.3999 0.27273 0.0
H1404 H 0.23709 0.33895 0.28683 0.0
H1405 H 0.27255 0.33101 0.27607 0.0
H1406 H 0.27167 0.39167 0.26169 0.0
H1407 H 0.26594 0.60805 0.28574 0.0
H1408 H 0.25417 0.56815 0.26872 0.0
H1409 H 0.28336 0.50064 0.25667 0.0
H1410 H 0.2952 0.5404 0.27366 0.0
H1411 H 0.26684 0.45991 0.2716 0.0
H1412 H 0.26913 0.54627 0.22757 0.0
H1413 H 0.2679 0.60728 0.21355 0.0
H1414 H 0.23257 0.61526 0.22519 0.0
H1415 H 0.23361 0.55451 0.23948 0.0
C1416 C 0.23585 0.36048 0.22114 0.0
C1417 C 0.22428 0.36847 0.21884 0.0
C1418 C 0.24248 0.38355 0.23096 0.0
C1419 C 0.23766 0.41489 0.23866 0.0
C1420 C 0.2259 0.42046 0.23777 0.0
C1421 C 0.21924 0.3972 0.22807 0.0
C1422 C 0.24504 0.4446 0.24548 0.0
C1423 C 0.24454 0.48063 0.23853 0.0
C1424 C 0.2532 0.43697 0.25751 0.0
C1425 C 0.25374 0.40017 0.26594 0.0
C1426 C 0.24402 0.38497 0.2732 0.0
C1427 C 0.2446 0.35052 0.28129 0.0
C1428 C 0.25487 0.33106 0.28228 0.0
C1429 C 0.2646 0.34608 0.27525 0.0
C1430 C 0.26406 0.38051 0.26714 0.0
C1431 C 0.26996 0.58576 0.27891 0.0
C1432 C 0.28148 0.57701 0.28131 0.0
C1433 C 0.2632 0.56282 0.26921 0.0
C1434 C 0.26785 0.53098 0.26168 0.0
C1435 C 0.27958 0.52483 0.26254 0.0
C1436 C 0.28637 0.54789 0.27215 0.0
C1437 C 0.26032 0.50142 0.25505 0.0
C1438 C 0.26078 0.46543 0.26206 0.0
C1439 C 0.2521 0.50911 0.2431 0.0
C1440 C 0.25149 0.54599 0.23476 0.0
C1441 C 0.26113 0.56122 0.2273 0.0
C1442 C 0.26046 0.59571 0.21926 0.0
C1443 C 0.25017 0.61518 0.21852 0.0
C1444 C 0.24053 0.60017 0.2258 0.0
C1445 C 0.24116 0.56569 0.23386 0.0
H1446 H 0.24967 0.64186 0.21227 0.0
H1447 H 0.25529 0.30435 0.28849 0.0
H1448 H 0.76018 0.12273 0.95153 0.0
H1449 H 0.7491 0.161 0.97023 0.0
H1450 H 0.77916 0.22211 0.98352 0.0
H1451 H 0.79035 0.18355 0.96501 0.0
H1452 H 0.76466 0.21438 0.00898 0.0
H1453 H 0.76248 0.25378 0.95358 0.0
H1454 H 0.75894 0.24422 0.92468 0.0
H1455 H 0.72432 0.21641 0.93447 0.0
H1456 H 0.7277 0.22484 0.9636 0.0
H1457 H 0.73765 0.37133 0.04067 0.0
H1458 H 0.74904 0.33811 0.02064 0.0
H1459 H 0.71972 0.27479 0.00598 0.0
H1460 H 0.70822 0.30833 0.02578 0.0
H1461 H 0.73422 0.28535 0.98082 0.0
H1462 H 0.7362 0.24219 0.03556 0.0
H1463 H 0.73923 0.2496 0.0647 0.0
H1464 H 0.77366 0.28236 0.05634 0.0
H1465 H 0.77076 0.27599 0.027 0.0
C1466 C 0.76452 0.14341 0.95884 0.0
C1467 C 0.77613 0.15041 0.95662 0.0
C1468 C 0.75815 0.16553 0.96941 0.0
C1469 C 0.76324 0.19521 0.97786 0.0
C1470 C 0.77503 0.19964 0.97697 0.0
C1471 C 0.78144 0.17737 0.96644 0.0
C1472 C 0.75618 0.22362 0.98636 0.0
C1473 C 0.75811 0.23023 0.00278 0.0
C1474 C 0.7475 0.24393 0.97831 0.0
C1475 C 0.74538 0.23951 0.9608 0.0
C1476 C 0.75413 0.24529 0.94961 0.0
C1477 C 0.75216 0.24004 0.93317 0.0
C1478 C 0.74144 0.22956 0.92771 0.0
C1479 C 0.73264 0.22436 0.93871 0.0
C1480 C 0.73458 0.22935 0.9552 0.0
C1481 C 0.73351 0.35142 0.03276 0.0
C1482 C 0.72207 0.34196 0.03505 0.0
C1483 C 0.74006 0.33223 0.02138 0.0
C1484 C 0.73531 0.30309 0.01221 0.0
C1485 C 0.7236 0.29686 0.01307 0.0
C1486 C 0.71701 0.31622 0.02439 0.0
C1487 C 0.74269 0.27603 0.00344 0.0
C1488 C 0.74081 0.26966 0.98699 0.0
C1489 C 0.75138 0.25571 0.01147 0.0
C1490 C 0.75323 0.25902 0.02909 0.0
C1491 C 0.7444 0.25123 0.03992 0.0
C1492 C 0.74609 0.25522 0.05649 0.0
C1493 C 0.75662 0.26646 0.06241 0.0
C1494 C 0.7655 0.2737 0.05174 0.0
C1495 C 0.76383 0.26994 0.03513 0.0
H1496 H 0.75791 0.26948 0.07526 0.0
H1497 H 0.73993 0.22571 0.91495 0.0
H1498 H 0.98782 0.10311 0.78964 0.0
H1499 H 0.00047 0.14005 0.77264 0.0
H1500 H 0.97226 0.20857 0.75725 0.0
H1501 H 0.95952 0.17138 0.77402 0.0
H1502 H 0.98734 0.19967 0.7332 0.0
H1503 H 0.98877 0.23619 0.78919 0.0
H1504 H 0.99135 0.22576 0.81832 0.0
H1505 H 0.02521 0.18619 0.81014 0.0
H1506 H 0.02284 0.19614 0.78089 0.0
H1507 H 0.01755 0.35638 0.70727 0.0
H1508 H 0.00504 0.32066 0.72494 0.0
H1509 H 0.03322 0.25144 0.73985 0.0
H1510 H 0.04583 0.2875 0.72244 0.0
H1511 H 0.01819 0.26079 0.76421 0.0
H1512 H 0.0168 0.22537 0.7082 0.0
H1513 H 0.01437 0.23767 0.67922 0.0
H1514 H 0.98031 0.27522 0.68741 0.0
H1515 H 0.98259 0.26392 0.71659 0.0
C1516 C 0.98423 0.12522 0.78222 0.0
C1517 C 0.97267 0.13456 0.78335 0.0
C1518 C 0.9915 0.14661 0.77265 0.0
C1519 C 0.98737 0.17787 0.7641 0.0
C1520 C 0.97566 0.18487 0.7639 0.0
C1521 C 0.96836 0.16337 0.77343 0.0
C1522 C 0.9953 0.20488 0.75643 0.0
C1523 C 0.994 0.21332 0.74002 0.0
C1524 C 0.00412 0.22236 0.76526 0.0
C1525 C 0.00558 0.21647 0.78284 0.0
C1526 C 0.99674 0.22498 0.79359 0.0
C1527 C 0.99816 0.21918 0.81012 0.0
C1528 C 0.00838 0.20501 0.81608 0.0
C1529 C 0.01726 0.19693 0.80551 0.0
C1530 C 0.0159 0.20273 0.78895 0.0
C1531 C 0.02118 0.33445 0.71474 0.0
C1532 C 0.03267 0.32448 0.71327 0.0
C1533 C 0.01399 0.31379 0.72473 0.0
C1534 C 0.01813 0.28257 0.73329 0.0
C1535 C 0.02981 0.27513 0.7332 0.0
C1536 C 0.03704 0.29598 0.72329 0.0
C1537 C 0.0102 0.25563 0.741 0.0
C1538 C 0.01152 0.24715 0.75739 0.0
C1539 C 0.00138 0.23813 0.73216 0.0
C1540 C 0.99991 0.24423 0.7146 0.0
C1541 C 0.00882 0.23653 0.70385 0.0
C1542 C 0.00748 0.24335 0.68738 0.0
C1543 C 0.99723 0.2574 0.68146 0.0
C1544 C 0.98827 0.26453 0.69202 0.0
C1545 C 0.98958 0.25792 0.70853 0.0
H1546 H 0.99621 0.26249 0.66869 0.0
H1547 H 0.00946 0.20063 0.8289 0.0
H1548 H 0.71367 0.41615 0.72177 0.0
H1549 H 0.72565 0.44855 0.74132 0.0
H1550 H 0.75335 0.37393 0.72988 0.0
H1551 H 0.74142 0.34117 0.71039 0.0
H1552 H 0.75346 0.39656 0.7621 0.0
H1553 H 0.75074 0.45237 0.70916 0.0
H1554 H 0.74074 0.47917 0.6857 0.0
H1555 H 0.72635 0.56528 0.71572 0.0
H1556 H 0.73612 0.53862 0.73942 0.0
H1557 H 0.79742 0.51587 0.78789 0.0
H1558 H 0.78609 0.47732 0.76959 0.0
H1559 H 0.75824 0.5554 0.7743 0.0
H1560 H 0.7696 0.59458 0.79209 0.0
H1561 H 0.75865 0.52926 0.74508 0.0
H1562 H 0.76073 0.47353 0.79812 0.0
H1563 H 0.77044 0.44706 0.82191 0.0
H1564 H 0.78568 0.3617 0.79237 0.0
H1565 H 0.77613 0.38782 0.76837 0.0
C1566 C 0.72216 0.40564 0.72385 0.0
C1567 C 0.72666 0.37651 0.71431 0.0
C1568 C 0.72903 0.42442 0.73494 0.0
C1569 C 0.74047 0.41429 0.73667 0.0
C1570 C 0.74458 0.38243 0.72858 0.0
C1571 C 0.73773 0.36368 0.71746 0.0
C1572 C 0.74845 0.43948 0.74523 0.0
C1573 C 0.75468 0.42548 0.75832 0.0
C1574 C 0.74997 0.47729 0.74034 0.0
C1575 C 0.74408 0.49328 0.72609 0.0
C1576 C 0.74536 0.47682 0.71078 0.0
C1577 C 0.73975 0.49202 0.69744 0.0
C1578 C 0.7329 0.52388 0.69923 0.0
C1579 C 0.73165 0.54058 0.71436 0.0
C1580 C 0.73722 0.52545 0.72775 0.0
C1581 C 0.789 0.52539 0.78465 0.0
C1582 C 0.78437 0.5581 0.79158 0.0
C1583 C 0.78248 0.50307 0.77434 0.0
C1584 C 0.77118 0.51281 0.77098 0.0
C1585 C 0.76689 0.54704 0.77684 0.0
C1586 C 0.77342 0.56953 0.78699 0.0
C1587 C 0.76358 0.48664 0.76218 0.0
C1588 C 0.75744 0.50038 0.74893 0.0
C1589 C 0.76211 0.44868 0.767 0.0
C1590 C 0.76781 0.43286 0.78143 0.0
C1591 C 0.76621 0.44926 0.79668 0.0
C1592 C 0.77167 0.43431 0.81021 0.0
C1593 C 0.77871 0.40284 0.80865 0.0
C1594 C 0.78025 0.38613 0.79356 0.0
C1595 C 0.7748 0.40096 0.78 0.0
H1596 H 0.78293 0.39134 0.81913 0.0
H1597 H 0.72859 0.53576 0.6889 0.0
H1598 H 0.98536 0.09353 0.44481 0.0
H1599 H 0.99661 0.06116 0.46529 0.0
H1600 H 0.96768 -0.00601 0.47815 0.0
H1601 H 0.95633 0.02626 0.45767 0.0
H1602 H 0.98174 0.01246 0.50478 0.0
H1603 H 0.98482 0.96057 0.45117 0.0
H1604 H 0.98823 0.96544 0.422 0.0
H1605 H 0.02215 0.00311 0.43094 0.0
H1606 H 0.01885 -0.00076 0.46026 0.0
H1607 H 0.00791 0.85532 0.53838 0.0
H1608 H 0.99742 0.89002 0.51782 0.0
H1609 H 0.02703 0.9562 0.50748 0.0
H1610 H 0.03763 0.92175 0.52817 0.0
H1611 H 0.01306 0.93951 0.47967 0.0
H1612 H 0.01037 -0.00878 0.53295 0.0
H1613 H 0.00713 -0.01192 0.56227 0.0
H1614 H 0.97292 0.95237 0.55407 0.0
H1615 H 0.97603 0.95459 0.52468 0.0
C1616 C 0.98126 0.07273 0.45233 0.0
C1617 C 0.96998 0.06211 0.44944 0.0
C1618 C 0.98774 0.05411 0.46398 0.0
C1619 C 0.98304 0.0246 0.47295 0.0
C1620 C 0.97148 0.01652 0.47126 0.0
C1621 C 0.96499 0.03508 0.45956 0.0
C1622 C 0.99044 -0.00048 0.48268 0.0
C1623 C 0.98852 -0.00372 0.49928 0.0
C1624 C 0.99941 0.97885 0.47551 0.0
C1625 C 0.00154 0.98005 0.45791 0.0
C1626 C 0.99297 0.97021 0.44692 0.0
C1627 C 0.99488 0.97286 0.43035 0.0
C1628 C 0.00538 -0.01519 0.42459 0.0
C1629 C 0.014 -0.006 0.43541 0.0
C1630 C 0.01212 -0.00841 0.45201 0.0
C1631 C 0.01233 0.87642 0.53141 0.0
C1632 C 0.02357 0.88614 0.53509 0.0
C1633 C 0.00629 0.89634 0.5197 0.0
C1634 C 0.01139 0.92617 0.51141 0.0
C1635 C 0.02293 0.9334 0.51384 0.0
C1636 C 0.02898 0.9136 0.52565 0.0
C1637 C 0.00433 0.9524 0.50175 0.0
C1638 C 0.00631 0.95579 0.48517 0.0
C1639 C 0.99546 0.97339 0.50895 0.0
C1640 C 0.99347 0.97269 0.52661 0.0
C1641 C 0.00219 -0.01759 0.5374 0.0
C1642 C 0.00037 0.98083 0.55403 0.0
C1643 C 0.98984 0.96994 0.56003 0.0
C1644 C 0.98108 0.96074 0.5494 0.0
C1645 C 0.98287 0.96216 0.53276 0.0
H1646 H 0.98845 0.96873 0.57291 0.0
H1647 H 0.00686 -0.01327 0.41176 0.0
H1648 H 0.29211 0.17599 0.46596 0.0
H1649 H 0.28115 0.21529 0.4845 0.0
H1650 H 0.25081 0.15504 0.47182 0.0
H1651 H 0.26168 0.11547 0.45338 0.0
H1652 H 0.24883 0.23102 0.46667 0.0
H1653 H 0.26032 0.14904 0.50903 0.0
H1654 H 0.27317 0.11254 0.52653 0.0
H1655 H 0.28988 0.21415 0.54099 0.0
H1656 H 0.27723 0.25125 0.5234 0.0
H1657 H 0.21188 0.31409 0.52552 0.0
H1658 H 0.22272 0.27745 0.50598 0.0
H1659 H 0.25317 0.33548 0.52005 0.0
H1660 H 0.24241 0.37202 0.53971 0.0
H1661 H 0.25504 0.26051 0.52437 0.0
H1662 H 0.24287 0.34247 0.48183 0.0
H1663 H 0.22914 0.37769 0.46521 0.0
H1664 H 0.21298 0.27442 0.45167 0.0
H1665 H 0.22651 0.23859 0.46839 0.0
C1666 C 0.28317 0.17026 0.46751 0.0
C1667 C 0.27775 0.14283 0.45807 0.0
C1668 C 0.27691 0.19283 0.47809 0.0
C1669 C 0.26514 0.18837 0.47937 0.0
C1670 C 0.25987 0.15913 0.47089 0.0
C1671 C 0.26613 0.13636 0.46044 0.0
C1672 C 0.2582 0.21662 0.48811 0.0
C1673 C 0.25007 0.23713 0.47936 0.0
C1674 C 0.26004 0.22522 0.50452 0.0
C1675 C 0.26791 0.20289 0.51472 0.0
C1676 C 0.26684 0.16357 0.51577 0.0
C1677 C 0.27406 0.14278 0.52575 0.0
C1678 C 0.28236 0.161 0.53483 0.0
C1679 C 0.28346 0.20006 0.53393 0.0
C1680 C 0.27626 0.22099 0.52396 0.0
C1681 C 0.22079 0.32024 0.52399 0.0
C1682 C 0.22631 0.34557 0.53435 0.0
C1683 C 0.227 0.29909 0.51284 0.0
C1684 C 0.23879 0.30331 0.51174 0.0
C1685 C 0.24409 0.33147 0.52084 0.0
C1686 C 0.2379 0.35257 0.53198 0.0
C1687 C 0.24573 0.27519 0.50291 0.0
C1688 C 0.25385 0.25459 0.51165 0.0
C1689 C 0.24382 0.26637 0.48652 0.0
C1690 C 0.23564 0.28787 0.4765 0.0
C1691 C 0.23632 0.32728 0.47543 0.0
C1692 C 0.22859 0.34735 0.46596 0.0
C1693 C 0.22018 0.32831 0.45742 0.0
C1694 C 0.21949 0.28914 0.4583 0.0
C1695 C 0.2272 0.26893 0.46776 0.0
H1696 H 0.2142 0.3439 0.45009 0.0
H1697 H 0.28792 0.14487 0.54259 0.0
H1698 H 0.2021 0.92374 0.72438 0.0
H1699 H 0.21405 0.94914 0.7458 0.0
H1700 H 0.24045 0.87018 0.73346 0.0
H1701 H 0.22854 0.84443 0.71205 0.0
H1702 H 0.23935 0.88355 0.76646 0.0
H1703 H 0.24171 0.95343 0.71759 0.0
H1704 H 0.23424 -0.01243 0.69398 0.0
H1705 H 0.21904 0.06987 0.72513 0.0
H1706 H 0.22624 0.0358 0.74896 0.0
H1707 H 0.28275 -0.00588 0.80413 0.0
H1708 H 0.27217 0.95911 0.78357 0.0
H1709 H 0.24343 0.03251 0.79055 0.0
H1710 H 0.2539 0.06754 0.81091 0.0
H1711 H 0.24727 0.01944 0.75884 0.0
H1712 H 0.24373 0.94432 0.8077 0.0
H1713 H 0.25102 0.90802 0.83083 0.0
H1714 H 0.26947 0.83566 0.79874 0.0
H1715 H 0.2622 0.87138 0.77538 0.0
C1716 C 0.21031 0.91099 0.72651 0.0
C1717 C 0.21441 0.88234 0.71638 0.0
C1718 C 0.21717 0.92573 0.7387 0.0
C1719 C 0.22823 0.91211 0.74096 0.0
C1720 C 0.23197 0.88128 0.73184 0.0
C1721 C 0.22513 0.86658 0.71961 0.0
C1722 C 0.2362 0.93234 0.75172 0.0
C1723 C 0.2412 0.91314 0.76469 0.0
C1724 C 0.23864 0.97092 0.74938 0.0
C1725 C 0.23443 -0.00815 0.73507 0.0
C1726 C 0.2367 0.97865 0.71942 0.0
C1727 C 0.23252 -0.002 0.70599 0.0
C1728 C 0.22615 0.03082 0.70806 0.0
C1729 C 0.22397 0.04441 0.72355 0.0
C1730 C 0.2281 0.0251 0.73703 0.0
C1731 C 0.27422 0.003 0.80114 0.0
C1732 C 0.26916 0.03356 0.80918 0.0
C1733 C 0.26816 -0.01718 0.78948 0.0
C1734 C 0.25696 -0.00707 0.78565 0.0
C1735 C 0.25205 0.02414 0.79331 0.0
C1736 C 0.25805 0.04413 0.80498 0.0
C1737 C 0.25018 0.97096 0.77387 0.0
C1738 C 0.24546 -0.01018 0.76059 0.0
C1739 C 0.2481 0.93202 0.77584 0.0
C1740 C 0.25253 0.91073 0.78984 0.0
C1741 C 0.24941 0.92083 0.8056 0.0
C1742 C 0.25352 0.90033 0.81874 0.0
C1743 C 0.26078 0.86975 0.81628 0.0
C1744 C 0.26388 0.85942 0.80064 0.0
C1745 C 0.25973 0.87969 0.78744 0.0
H1746 H 0.26396 0.85396 0.82649 0.0
H1747 H 0.22292 0.04575 0.69765 0.0
H1748 H 0.76324 0.60745 0.46235 0.0
H1749 H 0.75079 0.64584 0.47916 0.0
H1750 H 0.77912 0.71494 0.49293 0.0
H1751 H 0.79168 0.67637 0.47627 0.0
H1752 H 0.76407 0.70772 0.51754 0.0
H1753 H 0.76289 0.74224 0.46189 0.0
H1754 H 0.76086 0.73162 0.43271 0.0
H1755 H 0.72692 0.69239 0.4397 0.0
H1756 H 0.72875 0.70243 0.46902 0.0
H1757 H 0.73105 0.86118 0.54275 0.0
H1758 H 0.74441 0.82742 0.52549 0.0
H1759 H 0.71776 0.75269 0.51038 0.0
H1760 H 0.70431 0.78666 0.52739 0.0
H1761 H 0.73271 0.76559 0.48615 0.0
H1762 H 0.73464 0.73224 0.54288 0.0
H1763 H 0.73734 0.74614 0.57176 0.0
H1764 H 0.77084 0.78646 0.56225 0.0
H1765 H 0.76829 0.77364 0.53325 0.0
C1766 C 0.76691 0.63001 0.46938 0.0
C1767 C 0.77844 0.63909 0.46781 0.0
C1768 C 0.75975 0.6522 0.47886 0.0
C1769 C 0.76396 0.68397 0.48688 0.0
C1770 C 0.77566 0.69081 0.48669 0.0
C1771 C 0.78285 0.66852 0.47723 0.0
C1772 C 0.75605 0.71159 0.4943 0.0
C1773 C 0.75729 0.7207 0.51064 0.0
C1774 C 0.74719 0.72851 0.4853 0.0
C1775 C 0.74601 0.72263 0.46767 0.0
C1776 C 0.75502 0.73102 0.45723 0.0
C1777 C 0.75392 0.7251 0.44066 0.0
C1778 C 0.74382 0.711 0.43435 0.0
C1779 C 0.73476 0.70308 0.44461 0.0
C1780 C 0.73582 0.70894 0.46121 0.0
C1781 C 0.72794 0.83837 0.53533 0.0
C1782 C 0.71664 0.82629 0.53662 0.0
C1783 C 0.73562 0.81886 0.52559 0.0
C1784 C 0.73216 0.78677 0.51707 0.0
C1785 C 0.72065 0.77709 0.51701 0.0
C1786 C 0.71294 0.79672 0.52669 0.0
C1787 C 0.74062 0.76133 0.50946 0.0
C1788 C 0.7395 0.75267 0.49305 0.0
C1789 C 0.74967 0.74516 0.51837 0.0
C1790 C 0.75122 0.75238 0.53585 0.0
C1791 C 0.74255 0.74432 0.54692 0.0
C1792 C 0.74405 0.75196 0.56331 0.0
C1793 C 0.75422 0.76724 0.56881 0.0
C1794 C 0.76295 0.77474 0.55795 0.0
C1795 C 0.76148 0.76732 0.54154 0.0
H1796 H 0.75534 0.77317 0.58151 0.0
H1797 H 0.74298 0.70656 0.4215 0.0
H1798 H 0.73187 0.85439 0.20881 0.0
H1799 H 0.74329 0.89328 0.22659 0.0
H1800 H 0.71407 0.96206 0.23727 0.0
H1801 H 0.7026 0.92366 0.21906 0.0
H1802 H 0.73101 0.00466 0.2278 0.0
H1803 H 0.72721 0.90553 0.26632 0.0
H1804 H 0.72775 0.84039 0.27651 0.0
H1805 H 0.76331 0.83363 0.2662 0.0
H1806 H 0.76296 0.89857 0.25575 0.0
H1807 H 0.75844 0.10984 0.29026 0.0
H1808 H 0.74652 0.07381 0.27192 0.0
H1809 H 0.77525 0.00546 0.25854 0.0
H1810 H 0.78723 0.0411 0.27703 0.0
H1811 H 0.75823 0.96326 0.26977 0.0
H1812 H 0.76193 0.06242 0.23108 0.0
H1813 H 0.76135 0.12768 0.22106 0.0
H1814 H 0.72589 0.13459 0.23203 0.0
H1815 H 0.72628 0.06951 0.24233 0.0
C1816 C 0.72776 0.87708 0.2153 0.0
C1817 C 0.71633 0.88604 0.21242 0.0
C1818 C 0.73433 0.89937 0.2255 0.0
C1819 C 0.72957 0.93076 0.23326 0.0
C1820 C 0.71795 0.93812 0.23134 0.0
C1821 C 0.71137 0.91589 0.22105 0.0
C1822 C 0.73696 0.95777 0.24199 0.0
C1823 C 0.73681 -0.00428 0.2372 0.0
C1824 C 0.74481 0.94597 0.25388 0.0
C1825 C 0.74504 0.90684 0.26012 0.0
C1826 C 0.73513 0.89006 0.2661 0.0
C1827 C 0.7354 0.85319 0.27195 0.0
C1828 C 0.74555 0.83286 0.27197 0.0
C1829 C 0.75545 0.8494 0.26617 0.0
C1830 C 0.75523 0.88625 0.2603 0.0
C1831 C 0.76233 0.08802 0.283 0.0
C1832 C 0.77377 0.07807 0.28526 0.0
C1833 C 0.75548 0.06736 0.27251 0.0
C1834 C 0.75996 0.03663 0.26398 0.0
C1835 C 0.7716 0.02885 0.26512 0.0
C1836 C 0.77846 0.0495 0.2756 0.0
C1837 C 0.75231 0.01004 0.25551 0.0
C1838 C 0.75241 0.97219 0.26038 0.0
C1839 C 0.74441 0.02196 0.24374 0.0
C1840 C 0.74416 0.06118 0.23763 0.0
C1841 C 0.75403 0.07796 0.2315 0.0
C1842 C 0.75373 0.1149 0.22573 0.0
C1843 C 0.74359 0.1353 0.22595 0.0
C1844 C 0.73373 0.11877 0.2319 0.0
C1845 C 0.73399 0.08184 0.23768 0.0
H1846 H 0.74338 0.16389 0.22147 0.0
H1847 H 0.74575 0.80432 0.27651 0.0
H1848 H 0.4594 0.52905 0.47177 0.0
H1849 H 0.47178 0.49202 0.48932 0.0
H1850 H 0.49963 0.56567 0.47824 0.0
H1851 H 0.48734 0.60275 0.46065 0.0
H1852 H 0.50455 0.49277 0.47131 0.0
H1853 H 0.48909 0.56128 0.51607 0.0
H1854 H 0.47402 0.58694 0.53347 0.0
H1855 H 0.46229 0.47515 0.54338 0.0
H1856 H 0.4772 0.44883 0.52586 0.0
H1857 H 0.54563 0.42111 0.52661 0.0
H1858 H 0.53267 0.45479 0.50876 0.0
H1859 H 0.50551 0.38119 0.523 0.0
H1860 H 0.5184 0.34767 0.54105 0.0
H1861 H 0.4998 0.45235 0.52805 0.0
H1862 H 0.51523 0.38328 0.48395 0.0
H1863 H 0.53003 0.35675 0.46633 0.0
H1864 H 0.54148 0.46802 0.45481 0.0
H1865 H 0.52684 0.49524 0.47254 0.0
C1866 C 0.46805 0.53823 0.47352 0.0
C1867 C 0.4724 0.56867 0.46467 0.0
C1868 C 0.47514 0.51688 0.48352 0.0
C1869 C 0.48668 0.52578 0.48492 0.0
C1870 C 0.49079 0.55807 0.4772 0.0
C1871 C 0.48371 0.57944 0.46725 0.0
C1872 C 0.49468 0.4994 0.49295 0.0
C1873 C 0.50362 0.48436 0.4838 0.0
C1874 C 0.49321 0.48733 0.50904 0.0
C1875 C 0.48419 0.50311 0.51951 0.0
C1876 C 0.48323 0.54218 0.52183 0.0
C1877 C 0.47473 0.55684 0.53175 0.0
C1878 C 0.46718 0.5327 0.53949 0.0
C1879 C 0.46813 0.49382 0.53736 0.0
C1880 C 0.47661 0.47902 0.52745 0.0
C1881 C 0.53701 0.41113 0.5255 0.0
C1882 C 0.53303 0.38192 0.53539 0.0
C1883 C 0.52958 0.43056 0.5153 0.0
C1884 C 0.51806 0.42083 0.51467 0.0
C1885 C 0.51433 0.38947 0.52342 0.0
C1886 C 0.52174 0.3701 0.53363 0.0
C1887 C 0.50975 0.44585 0.50644 0.0
C1888 C 0.50073 0.46064 0.51554 0.0
C1889 C 0.51112 0.45755 0.49028 0.0
C1890 C 0.52 0.44129 0.47971 0.0
C1891 C 0.52097 0.40209 0.47778 0.0
C1892 C 0.52932 0.38693 0.46774 0.0
C1893 C 0.53671 0.41068 0.45948 0.0
C1894 C 0.53576 0.44965 0.46123 0.0
C1895 C 0.52743 0.46497 0.47126 0.0
H1896 H 0.54316 0.39888 0.45171 0.0
H1897 H 0.46061 0.5441 0.54717 0.0
H1898 H 0.54128 0.79347 0.723 0.0
H1899 H 0.53276 0.75172 0.74307 0.0
H1900 H 0.49994 0.79991 0.73321 0.0
H1901 H 0.50834 0.84198 0.71337 0.0
H1902 H 0.51793 0.76047 0.77093 0.0
H1903 H 0.48272 0.72314 0.72514 0.0
H1904 H 0.47998 0.72257 0.69564 0.0
H1905 H 0.51571 0.70705 0.68876 0.0
H1906 H 0.51863 0.70685 0.71816 0.0
H1907 H 0.46499 0.65346 0.79181 0.0
H1908 H 0.47566 0.68517 0.77061 0.0
H1909 H 0.50651 0.63407 0.78796 0.0
H1910 H 0.49594 0.60262 0.80932 0.0
H1911 H 0.49091 0.67108 0.74582 0.0
H1912 H 0.52628 0.70589 0.79131 0.0
H1913 H 0.52928 0.70831 0.82074 0.0
H1914 H 0.49382 0.72933 0.82783 0.0
H1915 H 0.49067 0.728 0.79861 0.0
C1916 C 0.53232 0.79614 0.72552 0.0
C1917 C 0.52547 0.82074 0.71643 0.0
C1918 C 0.52746 0.77212 0.73693 0.0
C1919 C 0.51571 0.77218 0.73928 0.0
C1920 C 0.50902 0.79908 0.73134 0.0
C1921 C 0.51386 0.82329 0.72008 0.0
C1922 C 0.51023 0.74214 0.74882 0.0
C1923 C 0.51219 0.74047 0.76543 0.0
C1924 C 0.50264 0.71639 0.74158 0.0
C1925 C 0.50089 0.71542 0.72386 0.0
C1926 C 0.48998 0.71941 0.71733 0.0
C1927 C 0.4884 0.71924 0.70061 0.0
C1928 C 0.49767 0.71492 0.69032 0.0
C1929 C 0.50854 0.71055 0.69672 0.0
C1930 C 0.51016 0.71062 0.71341 0.0
C1931 C 0.47399 0.64788 0.79079 0.0
C1932 C 0.47965 0.62607 0.80245 0.0
C1933 C 0.48008 0.66608 0.77864 0.0
C1934 C 0.49191 0.66274 0.77798 0.0
C1935 C 0.4974 0.63756 0.78845 0.0
C1936 C 0.49133 0.61946 0.80062 0.0
C1937 C 0.49856 0.68944 0.76802 0.0
C1938 C 0.49678 0.69066 0.75131 0.0
C1939 C 0.50638 0.71467 0.77514 0.0
C1940 C 0.50822 0.71616 0.79279 0.0
C1941 C 0.51914 0.71111 0.79919 0.0
C1942 C 0.52087 0.71238 0.81585 0.0
C1943 C 0.51174 0.71876 0.8262 0.0
C1944 C 0.50089 0.72416 0.8199 0.0
C1945 C 0.49912 0.72315 0.80328 0.0
H1946 H 0.5131 0.7196 0.83909 0.0
H1947 H 0.49644 0.71488 0.67739 0.0
H1948 H 0.45853 0.1829 0.28101 0.0
H1949 H 0.47046 0.21522 0.26151 0.0
H1950 H 0.49781 0.13809 0.2718 0.0
H1951 H 0.48598 0.10604 0.29158 0.0
H1952 H 0.50449 0.20818 0.27604 0.0
H1953 H 0.48504 0.14242 0.23415 0.0
H1954 H 0.46857 0.1189 0.21897 0.0
H1955 H 0.45771 0.23228 0.20979 0.0
H1956 H 0.47403 0.25651 0.2251 0.0
H1957 H 0.54181 0.28639 0.21671 0.0
H1958 H 0.53017 0.24788 0.23456 0.0
H1959 H 0.50168 0.32167 0.22621 0.0
H1960 H 0.51321 0.3599 0.20817 0.0
H1961 H 0.49604 0.25068 0.22042 0.0
H1962 H 0.51491 0.31628 0.26322 0.0
H1963 H 0.53122 0.34014 0.27865 0.0
H1964 H 0.54301 0.22712 0.28625 0.0
H1965 H 0.52684 0.20259 0.27068 0.0
C1966 C 0.46694 0.17191 0.27872 0.0
C1967 C 0.47133 0.14212 0.28799 0.0
C1968 C 0.47378 0.19052 0.26755 0.0
C1969 C 0.48509 0.17933 0.26527 0.0
C1970 C 0.48915 0.14745 0.27346 0.0
C1971 C 0.48233 0.12895 0.28468 0.0
C1972 C 0.493 0.20341 0.25594 0.0
C1973 C 0.50275 0.21687 0.26375 0.0
C1974 C 0.49056 0.21576 0.24011 0.0
C1975 C 0.48072 0.20127 0.2309 0.0
C1976 C 0.47909 0.16234 0.22901 0.0
C1977 C 0.46979 0.14888 0.22036 0.0
C1978 C 0.46208 0.17407 0.21345 0.0
C1979 C 0.46368 0.2128 0.21515 0.0
C1980 C 0.47296 0.22641 0.2238 0.0
C1981 C 0.53317 0.29508 0.21906 0.0
C1982 C 0.52842 0.32612 0.21096 0.0
C1983 C 0.5265 0.27294 0.22924 0.0
C1984 C 0.51501 0.2817 0.23164 0.0
C1985 C 0.51049 0.31415 0.22442 0.0
C1986 C 0.51713 0.33616 0.21421 0.0
C1987 C 0.50747 0.25556 0.24056 0.0
C1988 C 0.4978 0.24177 0.23267 0.0
C1989 C 0.50996 0.24293 0.25633 0.0
C1990 C 0.51973 0.25763 0.26563 0.0
C1991 C 0.52104 0.29653 0.26805 0.0
C1992 C 0.53024 0.31017 0.27685 0.0
C1993 C 0.53817 0.28517 0.28339 0.0
C1994 C 0.53688 0.24646 0.28116 0.0
C1995 C 0.52769 0.23267 0.27236 0.0
H1996 H 0.54529 0.29579 0.2902 0.0
H1997 H 0.45489 0.16359 0.20675 0.0
H1998 H 0.48581 0.07707 0.9447 0.0
H1999 H 0.49679 0.03799 0.96316 0.0
H2000 H 0.4678 0.96658 0.97048 0.0
H2001 H 0.45679 0.00521 0.95168 0.0
H2002 H 0.49587 0.01616 0.99346 0.0
H2003 H 0.47798 0.87164 0.97165 0.0
H2004 H 0.46848 0.84562 0.94766 0.0
H2005 H 0.48257 0.93336 0.91844 0.0
H2006 H 0.49247 0.95904 0.94205 0.0
H2007 H 0.50829 0.83613 0.03637 0.0
H2008 H 0.49744 0.86645 0.01484 0.0
H2009 H 0.52732 0.92571 0.99958 0.0
H2010 H 0.53828 0.89529 0.02094 0.0
H2011 H 0.49909 0.88054 0.97983 0.0
H2012 H 0.51898 0.01964 0.99933 0.0
H2013 H 0.52879 0.04798 0.0226 0.0
H2014 H 0.51132 0.97315 0.05461 0.0
H2015 H 0.50131 0.94486 0.03159 0.0
C2016 C 0.48168 0.05352 0.95048 0.0
C2017 C 0.47045 0.04403 0.94658 0.0
C2018 C 0.48799 0.03116 0.96104 0.0
C2019 C 0.48321 -0.00116 0.96792 0.0
C2020 C 0.47173 -0.00905 0.96505 0.0
C2021 C 0.46542 0.01325 0.95441 0.0
C2022 C 0.49047 0.97244 0.97726 0.0
C2023 C 0.49663 -0.01339 0.99035 0.0
C2024 C 0.49146 0.93375 0.97323 0.0
C2025 C 0.48583 0.91767 0.95875 0.0
C2026 C 0.47912 0.88525 0.96009 0.0
C2027 C 0.47367 0.87051 0.94653 0.0
C2028 C 0.47486 0.88795 0.93154 0.0
C2029 C 0.48155 0.92004 0.93006 0.0
C2030 C 0.48712 0.93463 0.94354 0.0
C2031 C 0.51267 0.85445 0.02803 0.0
C2032 C 0.52412 0.86365 0.03051 0.0
C2033 C 0.50644 0.87178 0.01573 0.0
C2034 C 0.51153 0.89883 0.00583 0.0
C2035 C 0.52322 0.90512 0.00719 0.0
C2036 C 0.52949 0.88751 0.01938 0.0
C2037 C 0.50438 0.92442 0.99599 0.0
C2038 C 0.49827 0.91011 0.98285 0.0
C2039 C 0.50353 0.96316 0.99976 0.0
C2040 C 0.50951 0.97986 0.01372 0.0
C2041 C 0.51724 0.00929 0.01135 0.0
C2042 C 0.52283 0.02537 0.02449 0.0
C2043 C 0.52071 0.01233 0.04007 0.0
C2044 C 0.513 -0.01683 0.04255 0.0
C2045 C 0.50738 0.96706 0.02945 0.0
H2046 H 0.525 0.025 0.05021 0.0
H2047 H 0.47063 0.87653 0.92106 0.0
H2048 H 0.17526 0.36769 0.12206 0.0
H2049 H 0.15497 0.37046 0.11713 0.0
H2050 H 0.14879 0.37421 0.16834 0.0
H2051 H 0.16925 0.37008 0.17341 0.0
H2052 H 0.1337 0.33067 0.15411 0.0
H2053 H 0.14774 0.45492 0.14427 0.0
H2054 H 0.16022 0.50262 0.13216 0.0
H2055 H 0.14883 0.47123 0.0849 0.0
H2056 H 0.13639 0.42298 0.09672 0.0
H2057 H 0.07781 0.40201 0.14929 0.0
H2058 H 0.09809 0.39598 0.15401 0.0
H2059 H 0.1036 0.37878 0.10319 0.0
H2060 H 0.08319 0.38478 0.09827 0.0
H2061 H 0.11889 0.42896 0.11711 0.0
H2062 H 0.10458 0.30517 0.12741 0.0
H2063 H 0.09195 0.25842 0.13989 0.0
H2064 H 0.1037 0.2906 0.18687 0.0
H2065 H 0.11628 0.33795 0.17468 0.0
C2066 C 0.16961 0.36903 0.13232 0.0
C2067 C 0.17387 0.36911 0.14815 0.0
C2068 C 0.15799 0.37078 0.12946 0.0
C2069 C 0.15035 0.37353 0.14234 0.0
C2070 C 0.15454 0.3724 0.1582 0.0
C2071 C 0.16622 0.37007 0.16109 0.0
C2072 C 0.13803 0.37794 0.13912 0.0
C2073 C 0.13045 0.35252 0.14622 0.0
C2074 C 0.13379 0.40592 0.12851 0.0
C2075 C 0.1412 0.43512 0.12138 0.0
C2076 C 0.14795 0.45802 0.13129 0.0
C2077 C 0.15501 0.48518 0.12448 0.0
C2078 C 0.15534 0.48989 0.10777 0.0
C2079 C 0.14858 0.46752 0.09784 0.0
C2080 C 0.14151 0.4403 0.10459 0.0
C2081 C 0.0833 0.3971 0.13905 0.0
C2082 C 0.07884 0.39377 0.12337 0.0
C2083 C 0.0949 0.39347 0.14182 0.0
C2084 C 0.10233 0.38645 0.12899 0.0
C2085 C 0.09799 0.38403 0.11326 0.0
C2086 C 0.08633 0.38744 0.11048 0.0
C2087 C 0.11462 0.38175 0.13211 0.0
C2088 C 0.12216 0.40714 0.125 0.0
C2089 C 0.11882 0.35393 0.14278 0.0
C2090 C 0.11129 0.32535 0.15014 0.0
C2091 C 0.1044 0.3025 0.14041 0.0
C2092 C 0.09726 0.27584 0.14743 0.0
C2093 C 0.097 0.2716 0.16416 0.0
C2094 C 0.1039 0.29394 0.17391 0.0
C2095 C 0.11104 0.32067 0.16695 0.0
H2096 H 0.09147 0.25095 0.16957 0.0
H2097 H 0.16081 0.51093 0.10252 0.0
H2098 H 0.07733 0.80741 0.1101 0.0
H2099 H 0.09741 0.80958 0.10376 0.0
H2100 H 0.10473 0.84657 0.15214 0.0
H2101 H 0.08445 0.84492 0.15861 0.0
H2102 H 0.11612 0.888 0.13004 0.0
H2103 H 0.11108 0.75773 0.14081 0.0
H2104 H 0.10221 0.69524 0.13886 0.0
H2105 H 0.1097 0.69125 0.08827 0.0
H2106 H 0.11847 0.75401 0.08987 0.0
H2107 H 0.1754 0.8496 0.1261 0.0
H2108 H 0.15529 0.84988 0.13273 0.0
H2109 H 0.14706 0.82733 0.08305 0.0
H2110 H 0.16732 0.82753 0.0762 0.0
H2111 H 0.13631 0.77875 0.10616 0.0
H2112 H 0.14167 0.9105 0.09625 0.0
H2113 H 0.15092 0.97213 0.09932 0.0
H2114 H 0.14333 0.97185 0.1499 0.0
H2115 H 0.13417 0.90991 0.14718 0.0
C2116 C 0.08317 0.81581 0.11949 0.0
C2117 C 0.07924 0.82593 0.13491 0.0
C2118 C 0.09469 0.81689 0.11583 0.0
C2119 C 0.10261 0.8279 0.1275 0.0
C2120 C 0.09877 0.83792 0.14295 0.0
C2121 C 0.08719 0.83676 0.14666 0.0
C2122 C 0.11484 0.82965 0.12329 0.0
C2123 C 0.12058 0.86394 0.12505 0.0
C2124 C 0.12062 0.79849 0.11647 0.0
C2125 C 0.11533 0.76075 0.11543 0.0
C2126 C 0.11074 0.74368 0.12924 0.0
C2127 C 0.10575 0.70818 0.12821 0.0
C2128 C 0.10536 0.68933 0.11345 0.0
C2129 C 0.10999 0.70591 0.0997 0.0
C2130 C 0.11499 0.74144 0.10066 0.0
C2131 C 0.16933 0.84493 0.11652 0.0
C2132 C 0.17297 0.83844 0.10061 0.0
C2133 C 0.15783 0.84525 0.12034 0.0
C2134 C 0.14968 0.83874 0.10839 0.0
C2135 C 0.15323 0.83248 0.09244 0.0
C2136 C 0.16478 0.83275 0.08854 0.0
C2137 C 0.13752 0.83711 0.11279 0.0
C2138 C 0.13182 0.80279 0.11112 0.0
C2139 C 0.13183 0.8681 0.11986 0.0
C2140 C 0.13733 0.90536 0.12153 0.0
C2141 C 0.14206 0.92339 0.10806 0.0
C2142 C 0.14727 0.95843 0.10973 0.0
C2143 C 0.14774 0.97585 0.1248 0.0
C2144 C 0.14297 0.9583 0.13823 0.0
C2145 C 0.13777 0.92324 0.13663 0.0
H2146 H 0.15177 0.00298 0.12607 0.0
H2147 H 0.1015 0.66183 0.11267 0.0
H2148 H 0.83639 0.56147 0.84013 0.0
H2149 H 0.8566 0.5525 0.84614 0.0
H2150 H 0.84987 0.5682 0.89674 0.0
H2151 H 0.82983 0.57671 0.89099 0.0
H2152 H 0.8672 0.61387 0.88502 0.0
H2153 H 0.8559 0.4839 0.88405 0.0
H2154 H 0.84742 0.42711 0.87208 0.0
H2155 H 0.87137 0.43117 0.83323 0.0
H2156 H 0.87989 0.48837 0.84485 0.0
H2157 H 0.92106 0.5732 0.91769 0.0
H2158 H 0.90072 0.5699 0.91215 0.0
H2159 H 0.90772 0.53835 0.86296 0.0
H2160 H 0.92796 0.5407 0.86845 0.0
H2161 H 0.89017 0.49989 0.87357 0.0
H2162 H 0.90111 0.62947 0.87313 0.0
H2163 H 0.90959 0.68766 0.8838 0.0
H2164 H 0.88635 0.6864 0.92354 0.0
H2165 H 0.87783 0.62787 0.91321 0.0
C2166 C 0.8392 0.56258 0.85254 0.0
C2167 C 0.83146 0.57003 0.86504 0.0
C2168 C 0.85074 0.55739 0.85596 0.0
C2169 C 0.85472 0.5598 0.87189 0.0
C2170 C 0.84699 0.56638 0.88437 0.0
C2171 C 0.8355 0.57116 0.88101 0.0
C2172 C 0.86699 0.55741 0.87566 0.0
C2173 C 0.8722 0.58878 0.88271 0.0
C2174 C 0.87356 0.52505 0.87222 0.0
C2175 C 0.86845 0.49067 0.86522 0.0
C2176 C 0.85929 0.47291 0.87287 0.0
C2177 C 0.85449 0.4406 0.86617 0.0
C2178 C 0.85883 0.4256 0.85188 0.0
C2179 C 0.868 0.44285 0.84428 0.0
C2180 C 0.87282 0.47521 0.85093 0.0
C2181 C 0.91827 0.56514 0.90575 0.0
C2182 C 0.92618 0.55761 0.8935 0.0
C2183 C 0.90664 0.56344 0.90257 0.0
C2184 C 0.90267 0.55452 0.88704 0.0
C2185 C 0.91054 0.54541 0.87501 0.0
C2186 C 0.92215 0.54695 0.87818 0.0
C2187 C 0.89039 0.55631 0.88309 0.0
C2188 C 0.88518 0.52496 0.87593 0.0
C2189 C 0.88381 0.58889 0.88625 0.0
C2190 C 0.88892 0.62407 0.89249 0.0
C2191 C 0.89787 0.64143 0.88421 0.0
C2192 C 0.90268 0.6745 0.89018 0.0
C2193 C 0.89854 0.69066 0.90436 0.0
C2194 C 0.88956 0.67381 0.91257 0.0
C2195 C 0.88474 0.6407 0.90666 0.0
H2196 H 0.90226 0.71627 0.90896 0.0
H2197 H 0.85511 0.40057 0.84671 0.0
H2198 H 0.9209 0.14784 0.87689 0.0
H2199 H 0.90071 0.14439 0.88221 0.0
H2200 H 0.89465 0.11121 0.83299 0.0
H2201 H 0.91506 0.11461 0.82743 0.0
H2202 H 0.87981 0.16755 0.84435 0.0
H2203 H 0.89347 0.04634 0.86166 0.0
H2204 H 0.90606 0.00329 0.87666 0.0
H2205 H 0.89518 0.0523 0.92136 0.0
H2206 H 0.88266 0.09605 0.90662 0.0
H2207 H 0.82249 0.12527 0.85782 0.0
H2208 H 0.84243 0.12031 0.85062 0.0
H2209 H 0.85173 0.13503 0.90052 0.0
H2210 H 0.83165 0.13846 0.90791 0.0
H2211 H 0.86497 0.08491 0.8876 0.0
H2212 H 0.85304 0.20847 0.87203 0.0
H2213 H 0.84105 0.25586 0.8585 0.0
H2214 H 0.84925 0.20791 0.81246 0.0
H2215 H 0.86118 0.15991 0.82574 0.0
C2216 C 0.91533 0.13983 0.86711 0.0
C2217 C 0.91964 0.13139 0.8517 0.0
C2218 C 0.90377 0.13769 0.87024 0.0
C2219 C 0.89621 0.127 0.85807 0.0
C2220 C 0.90038 0.11928 0.84257 0.0
C2221 C 0.91203 0.12122 0.83942 0.0
C2222 C 0.88394 0.12464 0.86168 0.0
C2223 C 0.87651 0.14896 0.85357 0.0
C2224 C 0.87974 0.10131 0.87413 0.0
C2225 C 0.88718 0.07467 0.88301 0.0
C2226 C 0.89381 0.04812 0.87468 0.0
C2227 C 0.90093 0.02356 0.88314 0.0
C2228 C 0.90143 0.02512 0.89995 0.0
C2229 C 0.89479 0.05115 0.90833 0.0
C2230 C 0.88767 0.0758 0.89993 0.0
C2231 C 0.82877 0.12738 0.86729 0.0
C2232 C 0.8255 0.13268 0.88342 0.0
C2233 C 0.84019 0.12469 0.86314 0.0
C2234 C 0.84862 0.12822 0.87495 0.0
C2235 C 0.84539 0.13243 0.89116 0.0
C2236 C 0.83392 0.13445 0.89538 0.0
C2237 C 0.86079 0.12802 0.87032 0.0
C2238 C 0.86822 0.10328 0.87826 0.0
C2239 C 0.86504 0.15147 0.85791 0.0
C2240 C 0.85791 0.18037 0.84989 0.0
C2241 C 0.85222 0.20787 0.85903 0.0
C2242 C 0.84544 0.23486 0.85141 0.0
C2243 C 0.84436 0.23483 0.83464 0.0
C2244 C 0.85008 0.20786 0.82545 0.0
C2245 C 0.85686 0.18078 0.83302 0.0
H2246 H 0.83911 0.25575 0.82876 0.0
H2247 H 0.90694 0.00615 0.9065 0.0
H2248 H 0.15933 0.88153 0.66853 0.0
H2249 H 0.13892 0.88369 0.66304 0.0
H2250 H 0.14571 0.89966 0.61244 0.0
H2251 H 0.16592 0.89863 0.61782 0.0
H2252 H 0.129 0.94318 0.62067 0.0
H2253 H 0.13809 0.8124 0.62881 0.0
H2254 H 0.14562 0.75762 0.64363 0.0
H2255 H 0.12213 0.77828 0.68211 0.0
H2256 H 0.11455 0.8335 0.66759 0.0
H2257 H 0.07561 0.8853 0.58779 0.0
H2258 H 0.09575 0.88905 0.59491 0.0
H2259 H 0.08709 0.88738 0.64536 0.0
H2260 H 0.06708 0.88386 0.63845 0.0
H2261 H 0.10441 0.83798 0.63808 0.0
H2262 H 0.09472 0.96742 0.62865 0.0
H2263 H 0.0871 0.0208 0.61303 0.0
H2264 H 0.11179 0.00108 0.576 0.0
H2265 H 0.11944 0.94714 0.59128 0.0
C2266 C 0.15646 0.88573 0.65626 0.0
C2267 C 0.16431 0.88971 0.64363 0.0
C2268 C 0.14479 0.88677 0.65311 0.0
C2269 C 0.14074 0.89133 0.63726 0.0
C2270 C 0.14857 0.89613 0.62475 0.0
C2271 C 0.16018 0.89538 0.62788 0.0
C2272 C 0.12839 0.89047 0.63348 0.0
C2273 C 0.12367 0.91995 0.62436 0.0
C2274 C 0.12132 0.86054 0.63847 0.0
C2275 C 0.12584 0.82731 0.6472 0.0
C2276 C 0.13459 0.80542 0.64048 0.0
C2277 C 0.13885 0.77427 0.64882 0.0
C2278 C 0.13438 0.76455 0.66383 0.0
C2279 C 0.1256 0.78589 0.6705 0.0
C2280 C 0.12131 0.8171 0.66222 0.0
C2281 C 0.07799 0.88584 0.60039 0.0
C2282 C 0.06969 0.88426 0.61251 0.0
C2283 C 0.0895 0.88807 0.60445 0.0
C2284 C 0.09292 0.88858 0.62069 0.0
C2285 C 0.08466 0.88692 0.63277 0.0
C2286 C 0.0732 0.88503 0.62875 0.0
C2287 C 0.1051 0.89048 0.62519 0.0
C2288 C 0.10977 0.86121 0.63445 0.0
C2289 C 0.11212 0.92043 0.62021 0.0
C2290 C 0.10758 0.95299 0.61104 0.0
C2291 C 0.09847 0.97425 0.61711 0.0
C2292 C 0.09415 0.00465 0.60833 0.0
C2293 C 0.09894 0.01428 0.59351 0.0
C2294 C 0.10808 -0.00644 0.58747 0.0
C2295 C 0.11241 0.96308 0.59619 0.0
H2296 H 0.0956 0.03783 0.58673 0.0
H2297 H 0.13769 0.74042 0.67026 0.0
H2298 H 0.08305 0.32267 0.6174 0.0
H2299 H 0.10309 0.32753 0.61142 0.0
H2300 H 0.11022 0.34839 0.66161 0.0
H2301 H 0.08989 0.34441 0.66775 0.0
H2302 H 0.12262 0.39366 0.64258 0.0
H2303 H 0.11545 0.26213 0.64508 0.0
H2304 H 0.10557 0.20272 0.63919 0.0
H2305 H 0.11335 0.21467 0.58892 0.0
H2306 H 0.12314 0.27447 0.59448 0.0
H2307 H 0.18135 0.34599 0.63541 0.0
H2308 H 0.1613 0.34768 0.64249 0.0
H2309 H 0.15238 0.345 0.59211 0.0
H2310 H 0.17255 0.34386 0.58486 0.0
H2311 H 0.14118 0.29031 0.61214 0.0
H2312 H 0.14861 0.42314 0.61063 0.0
H2313 H 0.15886 0.48118 0.61761 0.0
H2314 H 0.15118 0.4643 0.66765 0.0
H2315 H 0.14102 0.4058 0.66098 0.0
C2316 C 0.08883 0.32822 0.62726 0.0
C2317 C 0.08485 0.33275 0.64312 0.0
C2318 C 0.10033 0.3309 0.62378 0.0
C2319 C 0.1082 0.33755 0.6361 0.0
C2320 C 0.10429 0.343 0.65193 0.0
C2321 C 0.09269 0.34062 0.65543 0.0
C2322 C 0.12047 0.33857 0.63222 0.0
C2323 C 0.12673 0.37081 0.63615 0.0
C2324 C 0.1258 0.30901 0.62359 0.0
C2325 C 0.11994 0.27297 0.62019 0.0
C2326 C 0.11498 0.25224 0.63275 0.0
C2327 C 0.10941 0.21847 0.62947 0.0
C2328 C 0.10881 0.20497 0.61369 0.0
C2329 C 0.11381 0.22518 0.60115 0.0
C2330 C 0.11938 0.259 0.60436 0.0
C2331 C 0.17514 0.34596 0.6258 0.0
C2332 C 0.17853 0.34465 0.60955 0.0
C2333 C 0.16369 0.34711 0.62989 0.0
C2334 C 0.15538 0.3466 0.61783 0.0
C2335 C 0.1587 0.3455 0.60158 0.0
C2336 C 0.17019 0.34496 0.59746 0.0
C2337 C 0.14325 0.3455 0.62232 0.0
C2338 C 0.13706 0.31313 0.61856 0.0
C2339 C 0.13805 0.37468 0.63128 0.0
C2340 C 0.14415 0.40986 0.63532 0.0
C2341 C 0.1492 0.4316 0.62314 0.0
C2342 C 0.15497 0.46463 0.62704 0.0
C2343 C 0.1557 0.47637 0.64307 0.0
C2344 C 0.15063 0.45514 0.65523 0.0
C2345 C 0.14485 0.42206 0.6514 0.0
H2346 H 0.16017 0.50196 0.64606 0.0
H2347 H 0.10449 0.17881 0.61117 0.0
H2348 H 0.82434 0.05891 0.37975 0.0
H2349 H 0.84477 0.05734 0.38358 0.0
H2350 H 0.8497 0.08438 0.33345 0.0
H2351 H 0.82909 0.08622 0.32943 0.0
H2352 H 0.86417 0.02673 0.34492 0.0
H2353 H 0.85289 0.15174 0.36006 0.0
H2354 H 0.84152 0.19905 0.37462 0.0
H2355 H 0.85308 0.15443 0.41984 0.0
H2356 H 0.86439 0.10648 0.40554 0.0
H2357 H 0.92213 0.07133 0.35099 0.0
H2358 H 0.90182 0.07291 0.34609 0.0
H2359 H 0.89562 0.06408 0.39718 0.0
H2360 H 0.91609 0.06391 0.40224 0.0
H2361 H 0.88164 0.11306 0.38474 0.0
H2362 H 0.89247 -0.01252 0.37041 0.0
H2363 H 0.90362 0.93859 0.35647 0.0
H2364 H 0.89273 -0.01828 0.31066 0.0
H2365 H 0.88161 0.0312 0.32433 0.0
C2366 C 0.82972 0.06443 0.36946 0.0
C2367 C 0.82503 0.07298 0.35427 0.0
C2368 C 0.84142 0.06362 0.37172 0.0
C2369 C 0.84875 0.07125 0.35887 0.0
C2370 C 0.84417 0.07858 0.34355 0.0
C2371 C 0.8324 0.07965 0.34128 0.0
C2372 C 0.86118 0.07194 0.36162 0.0
C2373 C 0.86803 0.04597 0.35343 0.0
C2374 C 0.86615 0.09633 0.37309 0.0
C2375 C 0.85941 0.1253 0.38172 0.0
C2376 C 0.85294 0.15182 0.37311 0.0
C2377 C 0.84651 0.17879 0.38132 0.0
C2378 C 0.84655 0.17969 0.39815 0.0
C2379 C 0.85305 0.15368 0.40681 0.0
C2380 C 0.85947 0.12662 0.39865 0.0
C2381 C 0.91647 0.06957 0.36122 0.0
C2382 C 0.92076 0.06716 0.37702 0.0
C2383 C 0.90482 0.07031 0.35838 0.0
C2384 C 0.89714 0.0678 0.37122 0.0
C2385 C 0.90137 0.06587 0.38705 0.0
C2386 C 0.91307 0.06567 0.38993 0.0
C2387 C 0.88471 0.06767 0.36808 0.0
C2388 C 0.87783 0.09378 0.3762 0.0
C2389 C 0.87969 0.04315 0.35665 0.0
C2390 C 0.88629 0.01324 0.3484 0.0
C2391 C 0.89251 -0.01331 0.35737 0.0
C2392 C 0.89882 0.95885 0.34951 0.0
C2393 C 0.89891 0.95711 0.33269 0.0
C2394 C 0.89266 -0.01687 0.32369 0.0
C2395 C 0.88634 0.01105 0.33148 0.0
H2396 H 0.9038 0.93554 0.32664 0.0
H2397 H 0.84158 0.20059 0.40448 0.0
H2398 H 0.91908 0.61662 0.3399 0.0
H2399 H 0.89885 0.61262 0.34629 0.0
H2400 H 0.90588 0.64433 0.39544 0.0
H2401 H 0.92599 0.64801 0.38928 0.0
H2402 H 0.89182 0.58503 0.3943 0.0
H2403 H 0.89436 0.7069 0.36853 0.0
H2404 H 0.89912 0.75038 0.34641 0.0
H2405 H 0.87707 0.68993 0.3145 0.0
H2406 H 0.8723 0.6458 0.33639 0.0
H2407 H 0.83584 0.6285 0.42133 0.0
H2408 H 0.85604 0.62767 0.41447 0.0
H2409 H 0.84759 0.60765 0.36459 0.0
H2410 H 0.82754 0.60996 0.37126 0.0
H2411 H 0.86246 0.65922 0.36557 0.0
H2412 H 0.8594 0.53813 0.39038 0.0
H2413 H 0.85458 0.49266 0.41171 0.0
H2414 H 0.87738 0.54787 0.44429 0.0
H2415 H 0.88223 0.59399 0.4232 0.0
C2416 C 0.9163 0.62302 0.35203 0.0
C2417 C 0.92419 0.63265 0.36405 0.0
C2418 C 0.90474 0.62073 0.35567 0.0
C2419 C 0.90084 0.62828 0.37135 0.0
C2420 C 0.90868 0.63821 0.38329 0.0
C2421 C 0.9202 0.64046 0.37969 0.0
C2422 C 0.88863 0.62554 0.37551 0.0
C2423 C 0.8854 0.60152 0.38813 0.0
C2424 C 0.88022 0.64623 0.36718 0.0
C2425 C 0.88307 0.67284 0.35405 0.0
C2426 C 0.8906 0.70272 0.35676 0.0
C2427 C 0.89328 0.72751 0.34427 0.0
C2428 C 0.88843 0.72286 0.32905 0.0
C2429 C 0.88085 0.69347 0.32629 0.0
C2430 C 0.87814 0.66858 0.33873 0.0
C2431 C 0.83833 0.62354 0.40895 0.0
C2432 C 0.83011 0.61952 0.39683 0.0
C2433 C 0.84988 0.62293 0.40503 0.0
C2434 C 0.85339 0.6174 0.38898 0.0
C2435 C 0.84515 0.61225 0.37701 0.0
C2436 C 0.83366 0.61349 0.38087 0.0
C2437 C 0.86558 0.61868 0.38441 0.0
C2438 C 0.86884 0.6425 0.37172 0.0
C2439 C 0.87398 0.59744 0.39255 0.0
C2440 C 0.8711 0.56973 0.40525 0.0
C2441 C 0.86332 0.54075 0.40213 0.0
C2442 C 0.8606 0.51483 0.41417 0.0
C2443 C 0.86565 0.51744 0.42936 0.0
C2444 C 0.87346 0.54592 0.43252 0.0
C2445 C 0.87621 0.57193 0.42053 0.0
H2446 H 0.86353 0.49735 0.43867 0.0
H2447 H 0.89052 0.74208 0.31939 0.0
H2448 H 0.58983 0.37453 0.58183 0.0
H2449 H 0.61014 0.37347 0.58812 0.0
H2450 H 0.60242 0.37722 0.63892 0.0
H2451 H 0.58232 0.37955 0.63275 0.0
H2452 H 0.61835 0.42393 0.63337 0.0
H2453 H 0.61183 0.29526 0.61896 0.0
H2454 H 0.60557 0.24277 0.60173 0.0
H2455 H 0.6292 0.27589 0.56515 0.0
H2456 H 0.63551 0.32891 0.58208 0.0
H2457 H 0.67315 0.37267 0.66347 0.0
H2458 H 0.65294 0.37141 0.6566 0.0
H2459 H 0.66116 0.3856 0.60637 0.0
H2460 H 0.68125 0.38705 0.61305 0.0
H2461 H 0.64524 0.32958 0.61141 0.0
H2462 H 0.65161 0.45863 0.62706 0.0
H2463 H 0.65783 0.50919 0.64535 0.0
H2464 H 0.63416 0.47194 0.68114 0.0
H2465 H 0.62791 0.42081 0.66314 0.0
C2466 C 0.59249 0.37501 0.59432 0.0
C2467 C 0.58445 0.37734 0.60676 0.0
C2468 C 0.6041 0.37422 0.59792 0.0
C2469 C 0.60785 0.37501 0.61403 0.0
C2470 C 0.59979 0.37682 0.62641 0.0
C2471 C 0.58826 0.3781 0.62283 0.0
C2472 C 0.62013 0.37504 0.61818 0.0
C2473 C 0.62417 0.40293 0.62871 0.0
C2474 C 0.62783 0.34811 0.61193 0.0
C2475 C 0.62405 0.3163 0.60172 0.0
C2476 C 0.61563 0.29154 0.60718 0.0
C2477 C 0.61208 0.26165 0.59749 0.0
C2478 C 0.61696 0.25606 0.58234 0.0
C2479 C 0.62542 0.2803 0.57688 0.0
C2480 C 0.62899 0.31025 0.58652 0.0
C2481 C 0.67065 0.37562 0.65098 0.0
C2482 C 0.67884 0.38008 0.63884 0.0
C2483 C 0.6591 0.37492 0.64707 0.0
C2484 C 0.65555 0.37851 0.63096 0.0
C2485 C 0.66371 0.38269 0.61885 0.0
C2486 C 0.67521 0.3837 0.62274 0.0
C2487 C 0.64335 0.37822 0.62665 0.0
C2488 C 0.63936 0.35041 0.61607 0.0
C2489 C 0.63565 0.40488 0.63301 0.0
C2490 C 0.63938 0.43566 0.64382 0.0
C2491 C 0.6478 0.46102 0.63889 0.0
C2492 C 0.65131 0.48982 0.64919 0.0
C2493 C 0.64641 0.49371 0.66442 0.0
C2494 C 0.63796 0.46886 0.66936 0.0
C2495 C 0.63442 0.43998 0.6591 0.0
H2496 H 0.64914 0.51603 0.67238 0.0
H2497 H 0.61421 0.23291 0.57485 0.0
H2498 H 0.56627 0.85168 0.61275 0.0
H2499 H 0.58617 0.8517 0.60511 0.0
H2500 H 0.59572 0.83493 0.65479 0.0
H2501 H 0.57572 0.83621 0.66264 0.0
H2502 H 0.60945 0.88328 0.6415 0.0
H2503 H 0.59569 0.76167 0.62632 0.0
H2504 H 0.58295 0.71655 0.61296 0.0
H2505 H 0.59161 0.76267 0.56679 0.0
H2506 H 0.6043 0.80842 0.5799 0.0
H2507 H 0.66449 0.81317 0.63048 0.0
H2508 H 0.64433 0.81812 0.63578 0.0
H2509 H 0.63842 0.85176 0.58657 0.0
H2510 H 0.65883 0.84687 0.58102 0.0
H2511 H 0.6229 0.79759 0.59828 0.0
H2512 H 0.6378 0.91719 0.61453 0.0
H2513 H 0.651 0.95926 0.62878 0.0
H2514 H 0.64055 0.91309 0.67417 0.0
H2515 H 0.6274 0.87034 0.66017 0.0
C2516 C 0.57259 0.848 0.62209 0.0
C2517 C 0.56939 0.84361 0.63831 0.0
C2518 C 0.58398 0.84786 0.61767 0.0
C2519 C 0.59247 0.84249 0.6293 0.0
C2520 C 0.58933 0.83894 0.64557 0.0
C2521 C 0.5779 0.83961 0.65005 0.0
C2522 C 0.60459 0.84055 0.62446 0.0
C2523 C 0.61239 0.86422 0.63218 0.0
C2524 C 0.60844 0.8163 0.61202 0.0
C2525 C 0.60085 0.78872 0.6041 0.0
C2526 C 0.59481 0.76237 0.61333 0.0
C2527 C 0.58761 0.73666 0.6058 0.0
C2528 C 0.58645 0.73681 0.58905 0.0
C2529 C 0.59251 0.76262 0.57977 0.0
C2530 C 0.59971 0.78843 0.58724 0.0
C2531 C 0.65897 0.82156 0.62068 0.0
C2532 C 0.66334 0.82985 0.6053 0.0
C2533 C 0.64741 0.82449 0.6238 0.0
C2534 C 0.6399 0.83585 0.61165 0.0
C2535 C 0.64411 0.84315 0.59613 0.0
C2536 C 0.65576 0.84037 0.59299 0.0
C2537 C 0.62769 0.84009 0.61541 0.0
C2538 C 0.6199 0.81683 0.60751 0.0
C2539 C 0.62387 0.86435 0.62781 0.0
C2540 C 0.63167 0.89037 0.63628 0.0
C2541 C 0.63837 0.91583 0.62754 0.0
C2542 C 0.64584 0.93983 0.63558 0.0
C2543 C 0.64663 0.9388 0.65237 0.0
C2544 C 0.63993 0.91384 0.66117 0.0
C2545 C 0.63246 0.88976 0.65319 0.0
H2546 H 0.65241 0.95739 0.65857 0.0
H2547 H 0.58087 0.71688 0.58324 0.0
H2548 H 0.41719 0.5944 0.417 0.0
H2549 H 0.3969 0.59741 0.41067 0.0
H2550 H 0.40412 0.57065 0.36105 0.0
H2551 H 0.42426 0.56776 0.36715 0.0
H2552 H 0.38913 0.62921 0.36372 0.0
H2553 H 0.39409 0.50412 0.38657 0.0
H2554 H 0.39973 0.4596 0.40794 0.0
H2555 H 0.37656 0.5126 0.44078 0.0
H2556 H 0.37089 0.55773 0.41964 0.0
H2557 H 0.33537 0.57655 0.33292 0.0
H2558 H 0.35524 0.58104 0.34114 0.0
H2559 H 0.34495 0.58925 0.39092 0.0
H2560 H 0.32521 0.58297 0.38284 0.0
H2561 H 0.36142 0.54413 0.38968 0.0
H2562 H 0.35534 0.66668 0.36798 0.0
H2563 H 0.34958 0.71421 0.34792 0.0
H2564 H 0.37444 0.67177 0.3148 0.0
H2565 H 0.38024 0.62362 0.33459 0.0
C2566 C 0.41445 0.58899 0.40476 0.0
C2567 C 0.42238 0.58073 0.39261 0.0
C2568 C 0.40286 0.59073 0.40116 0.0
C2569 C 0.399 0.58417 0.38538 0.0
C2570 C 0.4069 0.57598 0.37328 0.0
C2571 C 0.41843 0.57413 0.37685 0.0
C2572 C 0.38676 0.58542 0.3813 0.0
C2573 C 0.38306 0.61044 0.36929 0.0
C2574 C 0.3788 0.56181 0.38894 0.0
C2575 C 0.38216 0.53451 0.40158 0.0
C2576 C 0.39026 0.50643 0.39838 0.0
C2577 C 0.39345 0.48107 0.41045 0.0
C2578 C 0.38853 0.48333 0.42572 0.0
C2579 C 0.38038 0.51091 0.42895 0.0
C2580 C 0.37717 0.53636 0.41693 0.0
C2581 C 0.33737 0.57945 0.3456 0.0
C2582 C 0.32874 0.57916 0.35723 0.0
C2583 C 0.34873 0.58228 0.3503 0.0
C2584 C 0.35164 0.58593 0.36668 0.0
C2585 C 0.34298 0.58629 0.37824 0.0
C2586 C 0.33167 0.58271 0.37358 0.0
C2587 C 0.36371 0.58776 0.37191 0.0
C2588 C 0.36741 0.56326 0.38415 0.0
C2589 C 0.37162 0.61238 0.36467 0.0
C2590 C 0.36815 0.6413 0.35272 0.0
C2591 C 0.35952 0.66729 0.35638 0.0
C2592 C 0.35626 0.69438 0.34506 0.0
C2593 C 0.36162 0.69595 0.33008 0.0
C2594 C 0.37028 0.67049 0.3264 0.0
C2595 C 0.37357 0.64331 0.33767 0.0
H2596 H 0.35908 0.71695 0.32134 0.0
H2597 H 0.39101 0.46367 0.43505 0.0
H2598 H 0.42464 0.16416 0.38638 0.0
H2599 H 0.40447 0.16195 0.39234 0.0
H2600 H 0.3975 0.12974 0.34324 0.0
H2601 H 0.41778 0.13193 0.33707 0.0
H2602 H 0.38271 0.1841 0.35461 0.0
H2603 H 0.39723 0.06442 0.37199 0.0
H2604 H 0.4101 0.02197 0.38681 0.0
H2605 H 0.39921 0.07016 0.43166 0.0
H2606 H 0.38638 0.11329 0.41708 0.0
H2607 H 0.3274 0.11748 0.36229 0.0
H2608 H 0.34763 0.12321 0.35796 0.0
H2609 H 0.35256 0.14622 0.40851 0.0
H2610 H 0.33211 0.13938 0.41311 0.0
H2611 H 0.36855 0.09902 0.39746 0.0
H2612 H 0.35349 0.21744 0.38006 0.0
H2613 H 0.34059 0.25952 0.3651 0.0
H2614 H 0.35253 0.21396 0.32029 0.0
H2615 H 0.3654 0.17124 0.33499 0.0
C2616 C 0.41885 0.15677 0.37677 0.0
C2617 C 0.42287 0.14806 0.36123 0.0
C2618 C 0.40731 0.15536 0.38025 0.0
C2619 C 0.3995 0.14517 0.36831 0.0
C2620 C 0.4034 0.13752 0.35266 0.0
C2621 C 0.41499 0.13876 0.34915 0.0
C2622 C 0.38728 0.14233 0.37224 0.0
C2623 C 0.37959 0.16519 0.36384 0.0
C2624 C 0.38327 0.11842 0.38462 0.0
C2625 C 0.39093 0.09235 0.39343 0.0
C2626 C 0.39765 0.06618 0.385 0.0
C2627 C 0.40492 0.04195 0.39336 0.0
C2628 C 0.4055 0.04344 0.41017 0.0
C2629 C 0.39877 0.06908 0.41865 0.0
C2630 C 0.39149 0.0934 0.41034 0.0
C2631 C 0.33273 0.12394 0.37255 0.0
C2632 C 0.32808 0.12837 0.38805 0.0
C2633 C 0.34433 0.12733 0.37001 0.0
C2634 C 0.35161 0.13598 0.38282 0.0
C2635 C 0.34708 0.1398 0.39841 0.0
C2636 C 0.33541 0.13599 0.40102 0.0
C2637 C 0.36393 0.14065 0.37976 0.0
C2638 C 0.37166 0.11814 0.38831 0.0
C2639 C 0.36799 0.16494 0.36752 0.0
C2640 C 0.36036 0.19096 0.35864 0.0
C2641 C 0.35332 0.21625 0.36702 0.0
C2642 C 0.34602 0.24023 0.35858 0.0
C2643 C 0.34572 0.23936 0.34176 0.0
C2644 C 0.35276 0.21459 0.33332 0.0
C2645 C 0.36008 0.19052 0.3417 0.0
H2646 H 0.34006 0.25793 0.33525 0.0
H2647 H 0.41113 0.02466 0.41662 0.0
H2648 H 0.66098 0.85808 0.1645 0.0
H2649 H 0.64077 0.85751 0.15761 0.0
H2650 H 0.6492 0.83883 0.10766 0.0
H2651 H 0.66923 0.84028 0.11434 0.0
H2652 H 0.63416 0.89183 0.1095 0.0
H2653 H 0.63807 0.76855 0.13226 0.0
H2654 H 0.64318 0.72173 0.15298 0.0
H2655 H 0.61975 0.77264 0.18602 0.0
H2656 H 0.61461 0.82011 0.16557 0.0
H2657 H 0.57843 0.84943 0.08141 0.0
H2658 H 0.59845 0.84193 0.08879 0.0
H2659 H 0.59071 0.87389 0.13768 0.0
H2660 H 0.57083 0.8815 0.13049 0.0
H2661 H 0.60523 0.81278 0.13627 0.0
H2662 H 0.60189 0.93693 0.1132 0.0
H2663 H 0.59685 -0.01701 0.09214 0.0
H2664 H 0.61948 0.92831 0.05904 0.0
H2665 H 0.62453 0.88159 0.07986 0.0
C2666 C 0.6585 0.85357 0.15209 0.0
C2667 C 0.66673 0.84947 0.13998 0.0
C2668 C 0.64695 0.85311 0.14815 0.0
C2669 C 0.64344 0.84798 0.13209 0.0
C2670 C 0.65167 0.84308 0.1201 0.0
C2671 C 0.66315 0.84387 0.12398 0.0
C2672 C 0.63125 0.8492 0.12749 0.0
C2673 C 0.62789 0.87407 0.11521 0.0
C2674 C 0.62298 0.82665 0.13512 0.0
C2675 C 0.62604 0.79812 0.14744 0.0
C2676 C 0.63408 0.76995 0.14399 0.0
C2677 C 0.63697 0.74326 0.15568 0.0
C2678 C 0.63182 0.74427 0.17082 0.0
C2679 C 0.62374 0.77192 0.17429 0.0
C2680 C 0.62083 0.79871 0.16266 0.0
C2681 C 0.58099 0.85471 0.09374 0.0
C2682 C 0.57303 0.86635 0.10531 0.0
C2683 C 0.59243 0.85047 0.09793 0.0
C2684 C 0.59607 0.85757 0.11378 0.0
C2685 C 0.58809 0.86824 0.1254 0.0
C2686 C 0.57673 0.8728 0.12121 0.0
C2687 C 0.60824 0.85514 0.11824 0.0
C2688 C 0.61157 0.83025 0.13052 0.0
C2689 C 0.61651 0.87746 0.11055 0.0
C2690 C 0.61348 0.90552 0.09803 0.0
C2691 C 0.60571 0.93453 0.10139 0.0
C2692 C 0.60287 0.9608 0.0895 0.0
C2693 C 0.60782 0.95851 0.07425 0.0
C2694 C 0.61564 0.93001 0.07086 0.0
C2695 C 0.6185 0.90364 0.0827 0.0
H2696 H 0.60561 0.97888 0.06506 0.0
H2697 H 0.63406 0.72358 0.17985 0.0
H2698 H 0.66878 0.36498 0.08732 0.0
H2699 H 0.64886 0.37337 0.09481 0.0
H2700 H 0.65498 0.3149 0.13954 0.0
H2701 H 0.67471 0.30577 0.13208 0.0
H2702 H 0.63581 0.29205 0.12691 0.0
H2703 H 0.65281 0.41162 0.13788 0.0
H2704 H 0.66367 0.46895 0.13175 0.0
H2705 H 0.63959 0.49887 0.09509 0.0
H2706 H 0.62867 0.44141 0.10086 0.0
H2707 H 0.58456 0.34649 0.16621 0.0
H2708 H 0.60494 0.34291 0.16041 0.0
H2709 H 0.59898 0.38861 0.11301 0.0
H2710 H 0.57874 0.39198 0.11862 0.0
H2711 H 0.61812 0.41885 0.12784 0.0
H2712 H 0.60158 0.29775 0.11658 0.0
H2713 H 0.5907 0.2407 0.12313 0.0
H2714 H 0.61413 0.21425 0.16111 0.0
H2715 H 0.62506 0.2715 0.15493 0.0
C2716 C 0.66587 0.35373 0.0987 0.0
C2717 C 0.67339 0.33481 0.1091 0.0
C2718 C 0.65449 0.35875 0.10303 0.0
C2719 C 0.65045 0.34521 0.11786 0.0
C2720 C 0.65789 0.32566 0.12806 0.0
C2721 C 0.66921 0.32055 0.12375 0.0
C2722 C 0.63849 0.35125 0.12287 0.0
C2723 C 0.63201 0.31987 0.12732 0.0
C2724 C 0.63344 0.38745 0.12319 0.0
C2725 C 0.63999 0.42201 0.11969 0.0
C2726 C 0.64988 0.43026 0.12842 0.0
C2727 C 0.65604 0.46281 0.12503 0.0
C2728 C 0.65234 0.48748 0.113 0.0
C2729 C 0.64246 0.4797 0.10438 0.0
C2730 C 0.63628 0.44716 0.10771 0.0
C2731 C 0.58764 0.3563 0.15466 0.0
C2732 C 0.58004 0.36924 0.14283 0.0
C2733 C 0.59925 0.35408 0.15134 0.0
C2734 C 0.60344 0.36519 0.13622 0.0
C2735 C 0.59593 0.37986 0.12473 0.0
C2736 C 0.58435 0.3816 0.12795 0.0
C2737 C 0.61552 0.35971 0.1319 0.0
C2738 C 0.62199 0.39113 0.12752 0.0
C2739 C 0.62059 0.32359 0.13172 0.0
C2740 C 0.61405 0.28913 0.13542 0.0
C2741 C 0.60435 0.27995 0.12642 0.0
C2742 C 0.59819 0.24755 0.13005 0.0
C2743 C 0.6017 0.22393 0.14256 0.0
C2744 C 0.61141 0.23261 0.15144 0.0
C2745 C 0.61759 0.26503 0.14788 0.0
H2746 H 0.59693 0.19884 0.14535 0.0
H2747 H 0.65712 0.51268 0.1104 0.0
H2748 H 0.416 0.09686 0.90646 0.0
H2749 H 0.39539 0.10076 0.90373 0.0
H2750 H 0.39853 0.09282 0.85206 0.0
H2751 H 0.41907 0.08964 0.85464 0.0
H2752 H 0.38362 0.14574 0.85968 0.0
H2753 H 0.39016 0.01717 0.87514 0.0
H2754 H 0.39768 0.96597 0.89216 0.0
H2755 H 0.37847 0.00716 0.93239 0.0
H2756 H 0.37094 0.05893 0.91567 0.0
H2757 H 0.32574 0.09941 0.84233 0.0
H2758 H 0.34644 0.09826 0.84474 0.0
H2759 H 0.34365 0.11431 0.89609 0.0
H2760 H 0.32309 0.11554 0.89384 0.0
H2761 H 0.35831 0.05748 0.88853 0.0
H2762 H 0.35156 0.18552 0.87288 0.0
H2763 H 0.34395 0.23642 0.8558 0.0
H2764 H 0.36349 0.19591 0.81575 0.0
H2765 H 0.37108 0.14435 0.83254 0.0
C2766 C 0.41231 0.09582 0.89452 0.0
C2767 C 0.41921 0.09281 0.88078 0.0
C2768 C 0.40051 0.09797 0.89297 0.0
C2769 C 0.39539 0.09674 0.87768 0.0
C2770 C 0.40227 0.09389 0.86397 0.0
C2771 C 0.41404 0.09192 0.8655 0.0
C2772 C 0.38286 0.09843 0.87588 0.0
C2773 C 0.3781 0.12611 0.86583 0.0
C2774 C 0.37562 0.07334 0.88413 0.0
C2775 C 0.38008 0.04213 0.89419 0.0
C2776 C 0.38761 0.01547 0.88765 0.0
C2777 C 0.39186 -0.01368 0.89724 0.0
C2778 C 0.38858 -0.01663 0.91336 0.0
C2779 C 0.38101 0.00951 0.91991 0.0
C2780 C 0.37674 0.03874 0.91038 0.0
C2781 C 0.32954 0.10289 0.85411 0.0
C2782 C 0.32273 0.10757 0.86787 0.0
C2783 C 0.34137 0.10231 0.85547 0.0
C2784 C 0.34658 0.10629 0.87061 0.0
C2785 C 0.33981 0.1111 0.88431 0.0
C2786 C 0.32803 0.11194 0.88296 0.0
C2787 C 0.35909 0.10471 0.87232 0.0
C2788 C 0.36384 0.07705 0.88236 0.0
C2789 C 0.36632 0.12977 0.86403 0.0
C2790 C 0.36179 0.16081 0.85392 0.0
C2791 C 0.35416 0.18725 0.86039 0.0
C2792 C 0.34986 0.21626 0.85077 0.0
C2793 C 0.35321 0.21933 0.83468 0.0
C2794 C 0.36089 0.19345 0.8282 0.0
C2795 C 0.36519 0.16433 0.83777 0.0
H2796 H 0.34988 0.24182 0.82725 0.0
H2797 H 0.39188 0.96079 0.92076 0.0
H2798 H 0.42674 0.63329 0.89455 0.0
H2799 H 0.40623 0.62663 0.89638 0.0
H2800 H 0.40437 0.60816 0.8451 0.0
H2801 H 0.42499 0.61456 0.84312 0.0
H2802 H 0.38864 0.66113 0.85665 0.0
H2803 H 0.40086 0.53574 0.86887 0.0
H2804 H 0.412 0.4871 0.883 0.0
H2805 H 0.39727 0.52054 0.92808 0.0
H2806 H 0.38615 0.56978 0.91425 0.0
H2807 H 0.33095 0.61511 0.85567 0.0
H2808 H 0.35142 0.61055 0.85253 0.0
H2809 H 0.35548 0.61315 0.9042 0.0
H2810 H 0.33486 0.61625 0.90743 0.0
H2811 H 0.37025 0.56586 0.89153 0.0
H2812 H 0.35906 0.6932 0.88025 0.0
H2813 H 0.34806 0.74324 0.8668 0.0
H2814 H 0.3611 0.70826 0.82088 0.0
H2815 H 0.37207 0.65768 0.83405 0.0
C2816 C 0.422 0.62779 0.88363 0.0
C2817 C 0.42752 0.6245 0.86867 0.0
C2818 C 0.41027 0.62377 0.88473 0.0
C2819 C 0.4038 0.61657 0.87091 0.0
C2820 C 0.40924 0.61357 0.85592 0.0
C2821 C 0.42101 0.61719 0.85482 0.0
C2822 C 0.39132 0.61338 0.87214 0.0
C2823 C 0.38459 0.6399 0.86405 0.0
C2824 C 0.38609 0.58634 0.88217 0.0
C2825 C 0.39275 0.5567 0.89053 0.0
C2826 C 0.40007 0.53295 0.88182 0.0
C2827 C 0.40636 0.50522 0.88977 0.0
C2828 C 0.40536 0.50079 0.90644 0.0
C2829 C 0.39804 0.52403 0.91518 0.0
C2830 C 0.39173 0.55183 0.90728 0.0
C2831 C 0.33618 0.61448 0.86639 0.0
C2832 C 0.3313 0.61651 0.88181 0.0
C2833 C 0.3479 0.612 0.86457 0.0
C2834 C 0.35503 0.61248 0.87811 0.0
C2835 C 0.35016 0.61298 0.89356 0.0
C2836 C 0.33839 0.61482 0.8954 0.0
C2837 C 0.36754 0.61376 0.87608 0.0
C2838 C 0.37427 0.58697 0.88406 0.0
C2839 C 0.3728 0.64081 0.86605 0.0
C2840 C 0.3663 0.67145 0.85812 0.0
C2841 C 0.35953 0.69604 0.86728 0.0
C2842 C 0.3533 0.72452 0.8597 0.0
C2843 C 0.35385 0.72887 0.84299 0.0
C2844 C 0.36066 0.70483 0.83382 0.0
C2845 C 0.3669 0.67628 0.84133 0.0
H2846 H 0.34902 0.75092 0.83714 0.0
H2847 H 0.41024 0.4793 0.91257 0.0
H2848 H 0.02995 0.95586 0.11209 0.0
H2849 H 0.02737 0.02371 0.1105 0.0
H2850 H 0.03632 0.03431 0.1607 0.0
H2851 H 0.03882 0.96598 0.16252 0.0
H2852 H 0.01809 0.08117 0.15113 0.0
H2853 H 0.05604 0.04974 0.13405 0.0
H2854 H 0.0702 0.01509 0.11799 0.0
H2855 H 0.0554 0.05776 0.07436 0.0
H2856 H 0.04104 0.09226 0.09017 0.0
H2857 H 0.03531 0.27182 0.15219 0.0
H2858 H 0.03301 0.20398 0.15452 0.0
H2859 H 0.02854 0.19573 0.10301 0.0
H2860 H 0.03118 0.26362 0.1005 0.0
H2861 H 0.04356 0.14704 0.11298 0.0
H2862 H 0.00629 0.18194 0.12974 0.0
H2863 H 0.99191 0.21629 0.14552 0.0
H2864 H 0.0049 0.16776 0.18919 0.0
H2865 H 0.01946 0.13349 0.17369 0.0
C2866 C 0.03132 0.97248 0.12285 0.0
C2867 C 0.03475 0.95561 0.13739 0.0
C2868 C 0.02981 0.01122 0.12191 0.0
C2869 C 0.0318 0.03383 0.13543 0.0
C2870 C 0.03476 0.01712 0.15015 0.0
C2871 C 0.03625 0.9782 0.15113 0.0
C2872 C 0.03152 0.07506 0.13381 0.0
C2873 C 0.02372 0.09578 0.14294 0.0
C2874 C 0.0387 0.09367 0.1228 0.0
C2875 C 0.04741 0.07329 0.11328 0.0
C2876 C 0.05576 0.05151 0.12103 0.0
C2877 C 0.06382 0.03194 0.11197 0.0
C2878 C 0.06368 0.03415 0.09516 0.0
C2879 C 0.05549 0.05604 0.08738 0.0
C2880 C 0.04739 0.07564 0.09638 0.0
C2881 C 0.03372 0.25565 0.14136 0.0
C2882 C 0.03349 0.27298 0.12614 0.0
C2883 C 0.03232 0.2169 0.14274 0.0
C2884 C 0.03047 0.19493 0.12896 0.0
C2885 C 0.02995 0.21228 0.11379 0.0
C2886 C 0.03147 0.251 0.11238 0.0
C2887 C 0.03007 0.15355 0.13025 0.0
C2888 C 0.03783 0.13265 0.12109 0.0
C2889 C 0.02281 0.13491 0.14119 0.0
C2890 C 0.01403 0.15538 0.15055 0.0
C2891 C 0.00614 0.17881 0.14272 0.0
C2892 C 0.99794 0.19822 0.15161 0.0
C2893 C 0.99751 0.19428 0.16835 0.0
C2894 C 0.00525 0.17081 0.17622 0.0
C2895 C 0.01347 0.15135 0.16739 0.0
H2896 H 0.99116 0.20934 0.17521 0.0
H2897 H 0.06993 0.01897 0.08817 0.0
H2898 H 0.21508 0.96982 0.08023 0.0
H2899 H 0.2188 0.03593 0.08675 0.0
H2900 H 0.23345 0.00248 0.1322 0.0
H2901 H 0.22974 0.93686 0.12591 0.0
H2902 H 0.21644 0.05267 0.13577 0.0
H2903 H 0.24993 0.0398 0.10367 0.0
H2904 H 0.26094 0.02372 0.0794 0.0
H2905 H 0.24215 0.10519 0.05198 0.0
H2906 H 0.2309 0.1214 0.07604 0.0
H2907 H 0.22667 0.23849 0.16138 0.0
H2908 H 0.2304 0.17297 0.15392 0.0
H2909 H 0.21959 0.19653 0.10523 0.0
H2910 H 0.21638 0.2621 0.1124 0.0
H2911 H 0.23658 0.15027 0.10429 0.0
H2912 H 0.20159 0.15714 0.13451 0.0
H2913 H 0.1897 0.17267 0.15803 0.0
H2914 H 0.21031 0.10156 0.18799 0.0
H2915 H 0.2224 0.08596 0.16467 0.0
C2916 C 0.21928 0.97657 0.09146 0.0
C2917 C 0.22194 0.94824 0.10266 0.0
C2918 C 0.22144 0.01426 0.09514 0.0
C2919 C 0.22637 0.02393 0.10998 0.0
C2920 C 0.22959 -0.00448 0.12074 0.0
C2921 C 0.22742 0.95805 0.11712 0.0
C2922 C 0.22701 0.06357 0.11515 0.0
C2923 C 0.22102 0.07392 0.12906 0.0
C2924 C 0.23274 0.09125 0.10613 0.0
C2925 C 0.2395 0.08158 0.09164 0.0
C2926 C 0.24807 0.05407 0.09244 0.0
C2927 C 0.25437 0.04497 0.07872 0.0
C2928 C 0.25223 0.06336 0.06415 0.0
C2929 C 0.2438 0.09094 0.06327 0.0
C2930 C 0.23746 0.10013 0.07695 0.0
C2931 C 0.22518 0.22966 0.14908 0.0
C2932 C 0.22114 0.25523 0.13751 0.0
C2933 C 0.22729 0.19228 0.14482 0.0
C2934 C 0.22507 0.17974 0.12908 0.0
C2935 C 0.22138 0.20557 0.11743 0.0
C2936 C 0.21949 0.24301 0.12158 0.0
C2937 C 0.22592 0.1394 0.12485 0.0
C2938 C 0.23212 0.12891 0.11111 0.0
C2939 C 0.22026 0.11149 0.1339 0.0
C2940 C 0.21297 0.12073 0.1479 0.0
C2941 C 0.20362 0.14502 0.14614 0.0
C2942 C 0.19684 0.1538 0.15943 0.0
C2943 C 0.19927 0.1382 0.1745 0.0
C2944 C 0.20846 0.11368 0.17631 0.0
C2945 C 0.21527 0.10484 0.16307 0.0
H2946 H 0.19401 0.14504 0.18477 0.0
H2947 H 0.25712 0.05628 0.05354 0.0
H2948 H 0.96834 0.69749 0.86345 0.0
H2949 H 0.96935 0.76505 0.85915 0.0
H2950 H 0.96442 0.7841 0.91001 0.0
H2951 H 0.96326 0.71609 0.91448 0.0
H2952 H 0.95092 0.82877 0.89155 0.0
H2953 H 0.99018 0.79661 0.89374 0.0
H2954 H 0.00745 0.76092 0.88684 0.0
H2955 H 0.00434 0.79546 0.83746 0.0
H2956 H 0.98695 0.83094 0.84401 0.0
H2957 H 0.96396 0.02241 0.88748 0.0
H2958 H 0.96549 0.95573 0.89404 0.0
H2959 H 0.96728 0.92858 0.84346 0.0
H2960 H 0.9657 -0.00453 0.83669 0.0
H2961 H 0.9831 0.88893 0.86317 0.0
H2962 H 0.94333 0.91748 0.86067 0.0
H2963 H 0.92585 0.95232 0.86729 0.0
H2964 H 0.92994 0.92393 0.91725 0.0
H2965 H 0.94755 0.8894 0.91096 0.0
C2966 C 0.9675 0.71592 0.87378 0.0
C2967 C 0.96573 0.70138 0.88933 0.0
C2968 C 0.96815 0.75455 0.87129 0.0
C2969 C 0.96712 0.77945 0.88429 0.0
C2970 C 0.96529 0.7652 0.89984 0.0
C2971 C 0.96464 0.72641 0.90236 0.0
C2972 C 0.96753 0.82039 0.88143 0.0
C2973 C 0.95805 0.84209 0.88564 0.0
C2974 C 0.97672 0.8374 0.87333 0.0
C2975 C 0.98721 0.8162 0.86935 0.0
C2976 C 0.99313 0.79636 0.88138 0.0
C2977 C 0.00295 0.77621 0.87754 0.0
C2978 C 0.00697 0.77586 0.86172 0.0
C2979 C 0.0012 0.79574 0.84971 0.0
C2980 C 0.99137 0.81591 0.85348 0.0
C2981 C 0.96477 0.00237 0.87772 0.0
C2982 C 0.96464 0.0142 0.86154 0.0
C2983 C 0.96562 0.9643 0.88151 0.0
C2984 C 0.96639 0.93744 0.86922 0.0
C2985 C 0.96667 0.94908 0.85308 0.0
C2986 C 0.96573 -0.01279 0.84925 0.0
C2987 C 0.96649 0.89708 0.87325 0.0
C2988 C 0.97604 0.87558 0.86923 0.0
C2989 C 0.95737 0.88021 0.88152 0.0
C2990 C 0.94683 0.90122 0.88536 0.0
C2991 C 0.94057 0.91901 0.87309 0.0
C2992 C 0.93063 0.93862 0.87678 0.0
C2993 C 0.92681 0.94039 0.89269 0.0
C2994 C 0.93292 0.92257 0.90494 0.0
C2995 C 0.94288 0.90296 0.90132 0.0
H2996 H 0.91908 0.95542 0.8955 0.0
H2997 H 0.01458 0.76024 0.85877 0.0
H2998 H 0.76881 0.03879 0.8572 0.0
H2999 H 0.76988 0.97323 0.84809 0.0
H3000 H 0.79136 0.94613 0.88851 0.0
H3001 H 0.79018 0.01108 0.8979 0.0
H3002 H 0.80008 0.93171 0.85487 0.0
H3003 H 0.76857 0.91086 0.89118 0.0
H3004 H 0.74931 0.9218 0.90164 0.0
H3005 H 0.73526 0.89259 0.85559 0.0
H3006 H 0.75448 0.882 0.84479 0.0
H3007 H 0.80645 0.7399 0.87027 0.0
H3008 H 0.80301 0.80759 0.86931 0.0
H3009 H 0.78084 0.79274 0.82847 0.0
H3010 H 0.78448 0.72458 0.82916 0.0
H3011 H 0.77109 0.83112 0.85579 0.0
H3012 H 0.80272 0.84044 0.82117 0.0
H3013 H 0.82203 0.82808 0.81123 0.0
H3014 H 0.83596 0.87846 0.85385 0.0
H3015 H 0.81673 0.89062 0.86418 0.0
C3016 C 0.77354 0.01864 0.86434 0.0
C3017 C 0.77948 0.0301 0.8782 0.0
C3018 C 0.77414 0.98133 0.85911 0.0
C3019 C 0.78078 0.95527 0.86758 0.0
C3020 C 0.78623 0.96612 0.88183 0.0
C3021 C 0.78549 0.00316 0.88721 0.0
C3022 C 0.78291 0.91752 0.86096 0.0
C3023 C 0.79377 0.90961 0.85506 0.0
C3024 C 0.77449 0.88946 0.86069 0.0
C3025 C 0.76296 0.89626 0.8671 0.0
C3026 C 0.76139 0.90728 0.88322 0.0
C3027 C 0.75048 0.91327 0.88923 0.0
C3028 C 0.74107 0.90806 0.87927 0.0
C3029 C 0.74256 0.89673 0.86328 0.0
C3030 C 0.75346 0.89073 0.85721 0.0
C3031 C 0.80107 0.75119 0.86083 0.0
C3032 C 0.79572 0.72724 0.8498 0.0
C3033 C 0.79913 0.78978 0.86027 0.0
C3034 C 0.79168 0.80497 0.84882 0.0
C3035 C 0.78665 0.78136 0.83734 0.0
C3036 C 0.78879 0.74264 0.83769 0.0
C3037 C 0.78841 0.84488 0.85018 0.0
C3038 C 0.77733 0.85339 0.85513 0.0
C3039 C 0.79663 0.87356 0.84959 0.0
C3040 C 0.80825 0.86628 0.84349 0.0
C3041 C 0.80989 0.84862 0.82849 0.0
C3042 C 0.82083 0.8417 0.82277 0.0
C3043 C 0.83022 0.85244 0.83191 0.0
C3044 C 0.82868 0.87017 0.84678 0.0
C3045 C 0.81776 0.87714 0.85256 0.0
H3046 H 0.83868 0.84707 0.82746 0.0
H3047 H 0.73263 0.91267 0.88395 0.0
H3048 H 0.02138 0.7497 0.63323 0.0
H3049 H 0.02121 0.68176 0.63656 0.0
H3050 H 0.03354 0.66765 0.58804 0.0
H3051 H 0.03371 0.73619 0.58448 0.0
H3052 H 0.01638 0.61437 0.59787 0.0
H3053 H 0.05214 0.66429 0.6161 0.0
H3054 H 0.0642 0.70765 0.63165 0.0
H3055 H 0.04943 0.66822 0.67575 0.0
H3056 H 0.03715 0.625 0.66044 0.0
H3057 H 0.03837 0.42929 0.60798 0.0
H3058 H 0.03458 0.49511 0.60166 0.0
H3059 H 0.0287 0.51798 0.65206 0.0
H3060 H 0.0329 0.45235 0.65854 0.0
H3061 H 0.04239 0.56731 0.64039 0.0
H3062 H 0.00688 0.51683 0.62316 0.0
H3063 H 0.99411 0.47447 0.60829 0.0
H3064 H 0.00739 0.51475 0.56338 0.0
H3065 H 0.02035 0.557 0.57798 0.0
C3066 C 0.02397 0.7323 0.62317 0.0
C3067 C 0.02774 0.74838 0.60865 0.0
C3068 C 0.02383 0.69346 0.62511 0.0
C3069 C 0.02751 0.66993 0.61263 0.0
C3070 C 0.0307 0.68557 0.5978 0.0
C3071 C 0.03083 0.72464 0.59582 0.0
C3072 C 0.02883 0.6293 0.61567 0.0
C3073 C 0.02216 0.60384 0.60699 0.0
C3074 C 0.03618 0.61601 0.62788 0.0
C3075 C 0.04366 0.64165 0.63711 0.0
C3076 C 0.0514 0.66506 0.62911 0.0
C3077 C 0.05829 0.68958 0.63788 0.0
C3078 C 0.05756 0.69075 0.65467 0.0
C3079 C 0.04997 0.66731 0.66274 0.0
C3080 C 0.04306 0.64277 0.65402 0.0
C3081 C 0.03615 0.44824 0.6177 0.0
C3082 C 0.03599 0.43573 0.63377 0.0
C3083 C 0.03391 0.48583 0.61405 0.0
C3084 C 0.03124 0.5114 0.62637 0.0
C3085 C 0.03076 0.49871 0.64237 0.0
C3086 C 0.03316 0.46123 0.64606 0.0
C3087 C 0.02983 0.55191 0.62273 0.0
C3088 C 0.03656 0.57753 0.63127 0.0
C3089 C 0.02246 0.56522 0.6105 0.0
C3090 C 0.01467 0.53983 0.60168 0.0
C3091 C 0.00714 0.51643 0.61012 0.0
C3092 C 0.99986 0.49249 0.60173 0.0
C3093 C 0.99996 0.49185 0.5849 0.0
C3094 C 0.00733 0.51524 0.57641 0.0
C3095 C 0.01464 0.53922 0.58474 0.0
H3096 H 0.9943 0.47329 0.57843 0.0
H3097 H 0.06289 0.70976 0.66144 0.0
H3098 H 0.22237 0.47282 0.59233 0.0
H3099 H 0.2232 0.53859 0.60047 0.0
H3100 H 0.23072 0.50507 0.6493 0.0
H3101 H 0.22978 0.43903 0.64133 0.0
H3102 H 0.2128 0.55152 0.64783 0.0
H3103 H 0.25042 0.55168 0.62752 0.0
H3104 H 0.26573 0.53929 0.60805 0.0
H3105 H 0.24949 0.61136 0.57348 0.0
H3106 H 0.23398 0.62378 0.59264 0.0
H3107 H 0.21214 0.7479 0.6678 0.0
H3108 H 0.21824 0.68229 0.66506 0.0
H3109 H 0.21306 0.68867 0.61365 0.0
H3110 H 0.20719 0.75409 0.61621 0.0
H3111 H 0.23289 0.65583 0.62053 0.0
H3112 H 0.19395 0.64562 0.63846 0.0
H3113 H 0.17801 0.65685 0.65705 0.0
H3114 H 0.19641 0.60264 0.69525 0.0
H3115 H 0.21252 0.59149 0.67691 0.0
C3116 C 0.22441 0.47937 0.60474 0.0
C3117 C 0.22587 0.45069 0.61622 0.0
C3118 C 0.22496 0.51701 0.60936 0.0
C3119 C 0.22706 0.52663 0.62548 0.0
C3120 C 0.22909 0.49814 0.6368 0.0
C3121 C 0.22855 0.46044 0.6322 0.0
C3122 C 0.22579 0.56609 0.63073 0.0
C3123 C 0.2174 0.57433 0.64217 0.0
C3124 C 0.23165 0.59572 0.62308 0.0
C3125 C 0.241 0.58851 0.61152 0.0
C3126 C 0.25007 0.56469 0.61573 0.0
C3127 C 0.25879 0.5577 0.60475 0.0
C3128 C 0.25858 0.57449 0.58953 0.0
C3129 C 0.24965 0.59838 0.58527 0.0
C3130 C 0.24089 0.60546 0.5962 0.0
C3131 C 0.21222 0.73519 0.65594 0.0
C3132 C 0.20918 0.75614 0.64222 0.0
C3133 C 0.21573 0.69779 0.6544 0.0
C3134 C 0.2161 0.68073 0.63915 0.0
C3135 C 0.21293 0.70146 0.6255 0.0
C3136 C 0.2095 0.73878 0.62701 0.0
C3137 C 0.21967 0.64113 0.63722 0.0
C3138 C 0.22849 0.63294 0.62644 0.0
C3139 C 0.21416 0.61149 0.64537 0.0
C3140 C 0.20448 0.61816 0.65638 0.0
C3141 C 0.19463 0.63638 0.65086 0.0
C3142 C 0.18556 0.64267 0.66135 0.0
C3143 C 0.18621 0.63058 0.67734 0.0
C3144 C 0.19592 0.61207 0.68287 0.0
C3145 C 0.20502 0.60574 0.67244 0.0
H3146 H 0.17918 0.63547 0.68544 0.0
H3147 H 0.26534 0.56903 0.58105 0.0
H3148 H 0.96777 0.50145 0.38713 0.0
H3149 H 0.97035 0.43359 0.38792 0.0
H3150 H 0.9731 0.43099 0.33607 0.0
H3151 H 0.97018 0.49915 0.33513 0.0
H3152 H 0.95907 0.37951 0.34593 0.0
H3153 H 0.99639 0.41473 0.36064 0.0
H3154 H 0.01125 0.44895 0.37543 0.0
H3155 H 1.00025 0.39902 0.41981 0.0
H3156 H 0.98521 0.36489 0.40533 0.0
H3157 H 0.9708 0.18492 0.34821 0.0
H3158 H 0.97416 0.25193 0.34447 0.0
H3159 H 0.96697 0.27168 0.39472 0.0
H3160 H 0.9637 0.20437 0.39868 0.0
H3161 H 0.98539 0.3134 0.38311 0.0
H3162 H 0.94661 0.28503 0.36793 0.0
H3163 H 0.93202 0.25066 0.35266 0.0
H3164 H 0.94663 0.2882 0.30815 0.0
H3165 H 0.96141 0.3224 0.32317 0.0
C3166 C 0.96901 0.48656 0.37588 0.0
C3167 C 0.96874 0.50563 0.36105 0.0
C3168 C 0.97058 0.44776 0.37637 0.0
C3169 C 0.97211 0.42734 0.36207 0.0
C3170 C 0.97199 0.44632 0.34724 0.0
C3171 C 0.9703 0.48519 0.34673 0.0
C3172 C 0.97292 0.38588 0.36266 0.0
C3173 C 0.96501 0.36505 0.35378 0.0
C3174 C 0.98054 0.36708 0.37312 0.0
C3175 C 0.98962 0.38741 0.38189 0.0
C3176 C 0.99709 0.41123 0.37357 0.0
C3177 C 0.00555 0.43059 0.3819 0.0
C3178 C 0.00668 0.42621 0.39855 0.0
C3179 C 0.99936 0.40239 0.40691 0.0
C3180 C 0.99088 0.38298 0.39864 0.0
C3181 C 0.96999 0.2034 0.35852 0.0
C3182 C 0.96684 0.1894 0.37372 0.0
C3183 C 0.97194 0.24166 0.35635 0.0
C3184 C 0.97069 0.26661 0.36928 0.0
C3185 C 0.96797 0.25269 0.38461 0.0
C3186 C 0.96604 0.21433 0.38682 0.0
C3187 C 0.97145 0.30749 0.3666 0.0
C3188 C 0.97962 0.32805 0.37508 0.0
C3189 C 0.96414 0.32611 0.35568 0.0
C3190 C 0.95518 0.30593 0.34666 0.0
C3191 C 0.94676 0.28573 0.35489 0.0
C3192 C 0.93844 0.26632 0.34628 0.0
C3193 C 0.93841 0.26715 0.32944 0.0
C3194 C 0.94667 0.28752 0.32119 0.0
C3195 C 0.95501 0.30695 0.32974 0.0
H3196 H 0.93197 0.2521 0.3228 0.0
H3197 H 0.01323 0.44123 0.40498 0.0
H3198 H 0.77704 0.2217 0.33652 0.0
H3199 H 0.77357 0.28871 0.34147 0.0
H3200 H 0.7841 0.27474 0.39094 0.0
H3201 H 0.78725 0.20799 0.38625 0.0
H3202 H 0.7659 0.31749 0.38963 0.0
H3203 H 0.80186 0.31143 0.36164 0.0
H3204 H 0.8145 0.29452 0.33911 0.0
H3205 H 0.79394 0.3594 0.3066 0.0
H3206 H 0.78111 0.37633 0.32893 0.0
H3207 H 0.78586 0.49667 0.41386 0.0
H3208 H 0.78221 0.43111 0.40681 0.0
H3209 H 0.77005 0.46573 0.36004 0.0
H3210 H 0.77382 0.5312 0.36686 0.0
H3211 H 0.78619 0.41373 0.3576 0.0
H3212 H 0.75198 0.4279 0.38763 0.0
H3213 H 0.7401 0.44519 0.41092 0.0
H3214 H 0.75802 0.36574 0.44051 0.0
H3215 H 0.77012 0.34833 0.41747 0.0
C3216 C 0.77864 0.23302 0.34842 0.0
C3217 C 0.78245 0.20967 0.36098 0.0
C3218 C 0.77664 0.27122 0.35124 0.0
C3219 C 0.77863 0.28668 0.36656 0.0
C3220 C 0.78242 0.26334 0.37907 0.0
C3221 C 0.78429 0.22522 0.37633 0.0
C3222 C 0.77714 0.32734 0.36964 0.0
C3223 C 0.77036 0.3386 0.38268 0.0
C3224 C 0.78273 0.35482 0.3603 0.0
C3225 C 0.79046 0.34476 0.3469 0.0
C3226 C 0.8 0.32185 0.34966 0.0
C3227 C 0.8072 0.31231 0.33693 0.0
C3228 C 0.805 0.32577 0.32142 0.0
C3229 C 0.79562 0.34892 0.31861 0.0
C3230 C 0.78838 0.35851 0.3313 0.0
C3231 C 0.78223 0.49039 0.40218 0.0
C3232 C 0.78027 0.51905 0.39085 0.0
C3233 C 0.78008 0.45294 0.3982 0.0
C3234 C 0.77582 0.44366 0.38292 0.0
C3235 C 0.77335 0.47237 0.37188 0.0
C3236 C 0.77554 0.50974 0.37581 0.0
C3237 C 0.77515 0.40392 0.37783 0.0
C3238 C 0.78153 0.39279 0.36439 0.0
C3239 C 0.76929 0.37661 0.38692 0.0
C3240 C 0.76201 0.38699 0.40082 0.0
C3241 C 0.75345 0.41431 0.39913 0.0
C3242 C 0.74666 0.4241 0.41229 0.0
C3243 C 0.74832 0.40662 0.42719 0.0
C3244 C 0.75675 0.37926 0.42896 0.0
C3245 C 0.76356 0.36938 0.41585 0.0
H3246 H 0.74305 0.41424 0.43735 0.0
H3247 H 0.81059 0.31836 0.31158 0.0
H3248 H 0.51424 0.95617 0.62007 0.0
H3249 H 0.51321 0.02368 0.61526 0.0
H3250 H 0.52932 0.04447 0.66103 0.0
H3251 H 0.53039 0.97663 0.66606 0.0
H3252 H 0.51189 0.09874 0.65182 0.0
H3253 H 0.54578 0.03802 0.63077 0.0
H3254 H 0.55577 -0.01042 0.61489 0.0
H3255 H 0.53847 0.02616 0.5721 0.0
H3256 H 0.52825 0.07448 0.5878 0.0
H3257 H 0.53942 0.27155 0.63987 0.0
H3258 H 0.53371 0.20735 0.64588 0.0
H3259 H 0.52541 0.18978 0.59577 0.0
H3260 H 0.53156 0.25383 0.58955 0.0
H3261 H 0.53694 0.13359 0.60624 0.0
H3262 H 0.50457 0.19909 0.62597 0.0
H3263 H 0.49396 0.24684 0.64139 0.0
H3264 H 0.50721 0.20215 0.68564 0.0
H3265 H 0.51803 0.15442 0.67049 0.0
C3266 C 0.51739 0.97503 0.62928 0.0
C3267 C 0.52262 0.96109 0.64331 0.0
C3268 C 0.51673 0.01358 0.62652 0.0
C3269 C 0.52134 0.03877 0.63769 0.0
C3270 C 0.52574 0.02525 0.65229 0.0
C3271 C 0.52638 -0.01345 0.6551 0.0
C3272 C 0.52294 0.07843 0.63314 0.0
C3273 C 0.51741 0.10661 0.64195 0.0
C3274 C 0.5299 0.08823 0.61997 0.0
C3275 C 0.53617 0.05957 0.61049 0.0
C3276 C 0.54405 0.03554 0.618 0.0
C3277 C 0.54976 0.00814 0.60903 0.0
C3278 C 0.54773 0.00473 0.5925 0.0
C3279 C 0.54002 0.0288 0.58491 0.0
C3280 C 0.53427 0.05621 0.59383 0.0
C3281 C 0.53633 0.25409 0.63013 0.0
C3282 C 0.53595 0.26763 0.61423 0.0
C3283 C 0.53297 0.21749 0.63361 0.0
C3284 C 0.52891 0.19401 0.62133 0.0
C3285 C 0.52846 0.20753 0.60544 0.0
C3286 C 0.53201 0.24402 0.6019 0.0
C3287 C 0.52593 0.15452 0.62495 0.0
C3288 C 0.53126 0.12612 0.61599 0.0
C3289 C 0.5187 0.14467 0.63789 0.0
C3290 C 0.51219 0.17333 0.64707 0.0
C3291 C 0.50529 0.1996 0.63898 0.0
C3292 C 0.49922 0.22665 0.64768 0.0
C3293 C 0.49993 0.22758 0.66448 0.0
C3294 C 0.50668 0.20141 0.67263 0.0
C3295 C 0.51277 0.17432 0.66399 0.0
H3296 H 0.49522 0.24854 0.67119 0.0
H3297 H 0.55216 -0.01651 0.58558 0.0
H3298 H 0.72877 0.2622 0.6118 0.0
H3299 H 0.7293 0.1948 0.60641 0.0
H3300 H 0.71848 0.17238 0.65508 0.0
H3301 H 0.71802 0.23989 0.6607 0.0
H3302 H 0.73479 0.12135 0.64384 0.0
H3303 H 0.6992 0.17647 0.62644 0.0
H3304 H 0.68751 0.22194 0.61128 0.0
H3305 H 0.70198 0.18297 0.56684 0.0
H3306 H 0.71388 0.1376 0.58177 0.0
H3307 H 0.70828 0.94501 0.6382 0.0
H3308 H 0.71342 0.01059 0.64238 0.0
H3309 H 0.7195 0.02328 0.5914 0.0
H3310 H 0.71403 0.9578 0.58703 0.0
H3311 H 0.70744 0.07948 0.60215 0.0
H3312 H 0.74159 0.0194 0.61904 0.0
H3313 H 0.75349 0.97422 0.634 0.0
H3314 H 0.74233 0.02188 0.67882 0.0
H3315 H 0.73023 0.06702 0.66414 0.0
C3316 C 0.72664 0.24299 0.62145 0.0
C3317 C 0.72318 0.25638 0.63662 0.0
C3318 C 0.72697 0.20451 0.61833 0.0
C3319 C 0.72377 0.17886 0.63029 0.0
C3320 C 0.72095 0.19191 0.64572 0.0
C3321 C 0.72064 0.23045 0.64887 0.0
C3322 C 0.7224 0.13875 0.62631 0.0
C3323 C 0.72878 0.11202 0.63481 0.0
C3324 C 0.71476 0.12697 0.61422 0.0
C3325 C 0.70751 0.15394 0.60523 0.0
C3326 C 0.69995 0.17779 0.61344 0.0
C3327 C 0.69327 0.20351 0.60489 0.0
C3328 C 0.69402 0.20541 0.58811 0.0
C3329 C 0.70142 0.18151 0.57984 0.0
C3330 C 0.70813 0.15577 0.58834 0.0
C3331 C 0.71076 0.96168 0.62788 0.0
C3332 C 0.71074 0.94629 0.61228 0.0
C3333 C 0.71378 -0.00092 0.63031 0.0
C3334 C 0.71704 0.02158 0.61724 0.0
C3335 C 0.71706 0.00629 0.60165 0.0
C3336 C 0.71391 0.96894 0.59918 0.0
C3337 C 0.71976 0.06167 0.61978 0.0
C3338 C 0.7136 0.08857 0.61103 0.0
C3339 C 0.72765 0.07351 0.63159 0.0
C3340 C 0.73493 0.04643 0.64048 0.0
C3341 C 0.74161 0.02007 0.63209 0.0
C3342 C 0.7484 -0.0055 0.64052 0.0
C3343 C 0.74865 -0.00487 0.65735 0.0
C3344 C 0.74213 0.02141 0.66579 0.0
C3345 C 0.73531 0.04703 0.65741 0.0
H3346 H 0.75392 0.97531 0.66386 0.0
H3347 H 0.68885 0.22535 0.58151 0.0
H3348 H 0.4689 0.70206 0.36503 0.0
H3349 H 0.47039 0.76964 0.36126 0.0
H3350 H 0.46567 0.78687 0.41229 0.0
H3351 H 0.46393 0.71886 0.41619 0.0
H3352 H 0.45225 0.83206 0.39501 0.0
H3353 H 0.49153 0.80034 0.3949 0.0
H3354 H 0.50872 0.76545 0.38695 0.0
H3355 H 0.50442 0.80197 0.33801 0.0
H3356 H 0.48711 0.83667 0.34561 0.0
H3357 H 0.46568 0.02522 0.39251 0.0
H3358 H 0.46704 0.95806 0.39798 0.0
H3359 H 0.46713 0.93489 0.34697 0.0
H3360 H 0.46574 0.00241 0.34128 0.0
H3361 H 0.48358 0.89368 0.36532 0.0
H3362 H 0.44372 0.92284 0.3656 0.0
H3363 H 0.42679 0.95866 0.3739 0.0
H3364 H 0.43254 0.92723 0.42319 0.0
H3365 H 0.44963 0.89169 0.41521 0.0
C3366 C 0.46827 0.72009 0.37551 0.0
C3367 C 0.46627 0.70507 0.39092 0.0
C3368 C 0.46919 0.75875 0.37333 0.0
C3369 C 0.46828 0.78317 0.38652 0.0
C3370 C 0.46644 0.76837 0.40197 0.0
C3371 C 0.46546 0.72957 0.40417 0.0
C3372 C 0.46859 0.82423 0.38391 0.0
C3373 C 0.4592 0.84565 0.38879 0.0
C3374 C 0.47754 0.84167 0.37544 0.0
C3375 C 0.48797 0.82087 0.37081 0.0
C3376 C 0.4942 0.80069 0.38241 0.0
C3377 C 0.50398 0.781 0.37798 0.0
C3378 C 0.50765 0.78143 0.36198 0.0
C3379 C 0.50156 0.80164 0.35039 0.0
C3380 C 0.49178 0.82137 0.35476 0.0
C3381 C 0.46604 0.00596 0.38241 0.0
C3382 C 0.46553 0.01911 0.36644 0.0
C3383 C 0.4668 0.96762 0.38559 0.0
C3384 C 0.46709 0.94176 0.37287 0.0
C3385 C 0.4669 0.95465 0.35691 0.0
C3386 C 0.46606 -0.00689 0.35369 0.0
C3387 C 0.46725 0.90118 0.37636 0.0
C3388 C 0.47669 0.87997 0.37163 0.0
C3389 C 0.45838 0.88392 0.38503 0.0
C3390 C 0.44803 0.90492 0.38983 0.0
C3391 C 0.44143 0.92382 0.37823 0.0
C3392 C 0.4318 0.94403 0.38287 0.0
C3393 C 0.42861 0.94531 0.39907 0.0
C3394 C 0.43503 0.92626 0.41065 0.0
C3395 C 0.44469 0.90605 0.40607 0.0
H3396 H 0.42115 0.96098 0.40264 0.0
H3397 H 0.51522 0.76617 0.35857 0.0
H3398 H 0.28756 0.70596 0.3424 0.0
H3399 H 0.28635 0.77024 0.35256 0.0
H3400 H 0.27229 0.72984 0.39722 0.0
H3401 H 0.27347 0.66519 0.38721 0.0
H3402 H 0.26285 0.8022 0.38424 0.0
H3403 H 0.29761 0.74201 0.39984 0.0
H3404 H 0.31457 0.70291 0.39505 0.0
H3405 H 0.32625 0.78179 0.35966 0.0
H3406 H 0.30926 0.82105 0.36403 0.0
H3407 H 0.28023 -0.01562 0.41605 0.0
H3408 H 0.27779 0.91564 0.41539 0.0
H3409 H 0.29261 0.91226 0.36792 0.0
H3410 H 0.29495 0.98019 0.36838 0.0
H3411 H 0.30121 0.8577 0.38941 0.0
H3412 H 0.26542 0.9113 0.37059 0.0
H3413 H 0.2481 0.94956 0.3737 0.0
H3414 H 0.23832 0.88322 0.41459 0.0
H3415 H 0.25568 0.84488 0.41184 0.0
C3416 C 0.28399 0.7107 0.35424 0.0
C3417 C 0.28081 0.68048 0.36412 0.0
C3418 C 0.2833 0.74741 0.36001 0.0
C3419 C 0.27939 0.7544 0.37568 0.0
C3420 C 0.27536 0.72474 0.38511 0.0
C3421 C 0.27611 0.6879 0.37939 0.0
C3422 C 0.28081 0.79209 0.38266 0.0
C3423 C 0.27122 0.81422 0.38577 0.0
C3424 C 0.29175 0.80739 0.38461 0.0
C3425 C 0.30212 0.78435 0.3822 0.0
C3426 C 0.30376 0.7509 0.39096 0.0
C3427 C 0.31338 0.72872 0.38833 0.0
C3428 C 0.32147 0.73983 0.37704 0.0
C3429 C 0.31998 0.77322 0.3684 0.0
C3430 C 0.31036 0.79547 0.37097 0.0
C3431 C 0.28305 0.96879 0.40557 0.0
C3432 C 0.28773 -0.01252 0.39223 0.0
C3433 C 0.28161 0.92974 0.4052 0.0
C3434 C 0.28501 0.9092 0.39159 0.0
C3435 C 0.28996 0.92777 0.37852 0.0
C3436 C 0.29124 0.96656 0.37878 0.0
C3437 C 0.28326 0.86836 0.39043 0.0
C3438 C 0.29283 0.84547 0.38842 0.0
C3439 C 0.27232 0.8525 0.38949 0.0
C3440 C 0.26192 0.87563 0.39117 0.0
C3441 C 0.25964 0.90515 0.38035 0.0
C3442 C 0.2498 0.92678 0.38202 0.0
C3443 C 0.24214 0.91893 0.39438 0.0
C3444 C 0.24428 0.88935 0.40506 0.0
C3445 C 0.25412 0.86766 0.40345 0.0
H3446 H 0.23452 0.93569 0.39564 0.0
H3447 H 0.32891 0.7226 0.375 0.0
H3448 H 0.53085 0.48516 0.17206 0.0
H3449 H 0.52422 0.55069 0.17239 0.0
H3450 H 0.52044 0.54776 0.12068 0.0
H3451 H 0.52677 0.48293 0.12024 0.0
H3452 H 0.53421 0.60898 0.15878 0.0
H3453 H 0.50025 0.6018 0.1072 0.0
H3454 H 0.48483 0.55974 0.09867 0.0
H3455 H 0.48237 0.51578 0.14671 0.0
H3456 H 0.49765 0.55797 0.15563 0.0
H3457 H 0.52329 0.75114 0.09489 0.0
H3458 H 0.51951 0.68909 0.1063 0.0
H3459 H 0.51693 0.73778 0.15376 0.0
H3460 H 0.52069 0.79994 0.14253 0.0
H3461 H 0.50218 0.65706 0.12585 0.0
H3462 H 0.53241 0.67693 0.1784 0.0
H3463 H 0.54816 0.71782 0.187 0.0
H3464 H 0.5579 0.73354 0.13762 0.0
H3465 H 0.54231 0.69238 0.12879 0.0
C3466 C 0.52847 0.49844 0.16081 0.0
C3467 C 0.52938 0.47889 0.14612 0.0
C3468 C 0.52465 0.53575 0.16103 0.0
C3469 C 0.52162 0.55382 0.1466 0.0
C3470 C 0.52241 0.5341 0.13202 0.0
C3471 C 0.52618 0.49705 0.13178 0.0
C3472 C 0.51886 0.59439 0.1462 0.0
C3473 C 0.52699 0.61958 0.15206 0.0
C3474 C 0.50948 0.60821 0.13734 0.0
C3475 C 0.50014 0.58308 0.13208 0.0
C3476 C 0.49637 0.58341 0.116 0.0
C3477 C 0.48766 0.55946 0.11108 0.0
C3478 C 0.48263 0.53508 0.12213 0.0
C3479 C 0.48629 0.53462 0.13815 0.0
C3480 C 0.49499 0.55852 0.14313 0.0
C3481 C 0.52173 0.74878 0.10771 0.0
C3482 C 0.52246 0.78036 0.11783 0.0
C3483 C 0.5195 0.71338 0.11419 0.0
C3484 C 0.51804 0.70901 0.13086 0.0
C3485 C 0.51809 0.7407 0.14087 0.0
C3486 C 0.52027 0.77614 0.13441 0.0
C3487 C 0.51779 0.67085 0.13777 0.0
C3488 C 0.50912 0.64638 0.13312 0.0
C3489 C 0.52663 0.65764 0.14782 0.0
C3490 C 0.53611 0.68208 0.15295 0.0
C3491 C 0.53793 0.68911 0.1694 0.0
C3492 C 0.54682 0.7123 0.17431 0.0
C3493 C 0.55399 0.7284 0.16286 0.0
C3494 C 0.55231 0.7212 0.14648 0.0
C3495 C 0.54344 0.69798 0.14151 0.0
H3496 H 0.56087 0.74637 0.16668 0.0
H3497 H 0.4759 0.51654 0.1183 0.0
H3498 H 0.7221 0.45992 0.09689 0.0
H3499 H 0.72592 0.5233 0.10676 0.0
H3500 H 0.72757 0.48147 0.1555 0.0
H3501 H 0.72374 0.41797 0.1458 0.0
H3502 H 0.71252 0.53915 0.15183 0.0
H3503 H 0.75108 0.51535 0.13924 0.0
H3504 H 0.76719 0.49379 0.12275 0.0
H3505 H 0.75929 0.57692 0.0869 0.0
H3506 H 0.74302 0.59864 0.10305 0.0
H3507 H 0.71613 0.73382 0.17097 0.0
H3508 H 0.72202 0.66765 0.17079 0.0
H3509 H 0.72368 0.67008 0.11885 0.0
H3510 H 0.71811 0.73586 0.11891 0.0
H3511 H 0.74074 0.62963 0.13075 0.0
H3512 H 0.69992 0.63958 0.13889 0.0
H3513 H 0.68281 0.66013 0.15352 0.0
H3514 H 0.69426 0.60195 0.19589 0.0
H3515 H 0.71152 0.58143 0.18153 0.0
C3516 C 0.72344 0.46408 0.10968 0.0
C3517 C 0.7225 0.43401 0.12057 0.0
C3518 C 0.72572 0.50023 0.11529 0.0
C3519 C 0.72711 0.50686 0.13184 0.0
C3520 C 0.72657 0.47676 0.14268 0.0
C3521 C 0.72436 0.44056 0.13709 0.0
C3522 C 0.72775 0.54582 0.13784 0.0
C3523 C 0.71889 0.55878 0.14762 0.0
C3524 C 0.73595 0.57131 0.1321 0.0
C3525 C 0.74579 0.55854 0.12236 0.0
C3526 C 0.75273 0.52889 0.12779 0.0
C3527 C 0.7619 0.51666 0.11851 0.0
C3528 C 0.76425 0.53395 0.10378 0.0
C3529 C 0.75746 0.56357 0.09832 0.0
C3530 C 0.74827 0.5759 0.10755 0.0
C3531 C 0.71784 0.72027 0.15954 0.0
C3532 C 0.71652 0.73992 0.14495 0.0
C3533 C 0.72123 0.68257 0.15946 0.0
C3534 C 0.7232 0.66399 0.14479 0.0
C3535 C 0.72226 0.68396 0.1303 0.0
C3536 C 0.71897 0.72153 0.13036 0.0
C3537 C 0.72526 0.62305 0.14415 0.0
C3538 C 0.73462 0.60973 0.1354 0.0
C3539 C 0.71742 0.59718 0.15062 0.0
C3540 C 0.70706 0.60944 0.15923 0.0
C3541 C 0.69882 0.63143 0.15136 0.0
C3542 C 0.68909 0.64302 0.1596 0.0
C3543 C 0.68747 0.63247 0.17565 0.0
C3544 C 0.69555 0.61019 0.18348 0.0
C3545 C 0.7053 0.59858 0.1753 0.0
H3546 H 0.67993 0.64147 0.182 0.0
H3547 H 0.77136 0.52443 0.09661 0.0
H3548 H 0.46592 0.20749 0.91618 0.0
H3549 H 0.47161 0.27265 0.92121 0.0
H3550 H 0.47548 0.29037 0.87009 0.0
H3551 H 0.46993 0.22566 0.86494 0.0
H3552 H 0.49274 0.32246 0.88752 0.0
H3553 H 0.45131 0.31504 0.88889 0.0
H3554 H 0.4332 0.2918 0.89973 0.0
H3555 H 0.44203 0.33323 0.94668 0.0
H3556 H 0.46027 0.35632 0.93613 0.0
H3557 H 0.47786 0.50099 0.86058 0.0
H3558 H 0.48086 0.43539 0.86799 0.0
H3559 H 0.47747 0.46408 0.91828 0.0
H3560 H 0.4744 0.52994 0.91098 0.0
H3561 H 0.46339 0.40835 0.90953 0.0
H3562 H 0.50249 0.43186 0.90534 0.0
H3563 H 0.52015 0.45675 0.89375 0.0
H3564 H 0.51588 0.38673 0.85205 0.0
H3565 H 0.4981 0.36182 0.86325 0.0
C3566 C 0.46804 0.22524 0.90602 0.0
C3567 C 0.46737 0.21154 0.89014 0.0
C3568 C 0.47131 0.26235 0.90894 0.0
C3569 C 0.47394 0.28618 0.89601 0.0
C3570 C 0.47356 0.27228 0.88022 0.0
C3571 C 0.47028 0.23536 0.8773 0.0
C3572 C 0.47629 0.32647 0.89854 0.0
C3573 C 0.48638 0.34137 0.89239 0.0
C3574 C 0.46814 0.35077 0.90547 0.0
C3575 C 0.4572 0.33689 0.91179 0.0
C3576 C 0.44943 0.31889 0.90155 0.0
C3577 C 0.43914 0.30581 0.90764 0.0
C3578 C 0.43649 0.31091 0.9239 0.0
C3579 C 0.44411 0.32921 0.9341 0.0
C3580 C 0.45442 0.34229 0.92808 0.0
C3581 C 0.47791 0.49351 0.87323 0.0
C3582 C 0.47578 0.52058 0.88517 0.0
C3583 C 0.47974 0.45605 0.87746 0.0
C3584 C 0.47949 0.44503 0.8937 0.0
C3585 C 0.47776 0.47216 0.9057 0.0
C3586 C 0.47599 0.50971 0.90148 0.0
C3587 C 0.47962 0.40463 0.89776 0.0
C3588 C 0.46999 0.3896 0.90518 0.0
C3589 C 0.48819 0.3803 0.89196 0.0
C3590 C 0.49892 0.39502 0.88514 0.0
C3591 C 0.50527 0.42192 0.89365 0.0
C3592 C 0.51531 0.43602 0.88715 0.0
C3593 C 0.51913 0.42335 0.87217 0.0
C3594 C 0.51292 0.3965 0.86366 0.0
C3595 C 0.50286 0.38232 0.8701 0.0
H3596 H 0.5269 0.4343 0.86716 0.0
H3597 H 0.42851 0.30078 0.92859 0.0
H3598 H 0.28402 0.21416 0.83094 0.0
H3599 H 0.28224 0.28141 0.82472 0.0
H3600 H 0.2612 0.2967 0.86669 0.0
H3601 H 0.26301 0.23003 0.87301 0.0
H3602 H 0.25567 0.34668 0.84123 0.0
H3603 H 0.28844 0.29939 0.87226 0.0
H3604 H 0.30536 0.25903 0.87522 0.0
H3605 H 0.31979 0.30814 0.8327 0.0
H3606 H 0.30285 0.34842 0.82939 0.0
H3607 H 0.28605 0.50063 0.88868 0.0
H3608 H 0.28224 0.43628 0.88012 0.0
H3609 H 0.27211 0.4762 0.83319 0.0
H3610 H 0.27595 0.54098 0.8416 0.0
H3611 H 0.2933 0.40058 0.85421 0.0
H3612 H 0.25074 0.40908 0.82128 0.0
H3613 H 0.23339 0.448 0.82069 0.0
H3614 H 0.2382 0.47675 0.87048 0.0
H3615 H 0.25548 0.43764 0.87141 0.0
C3616 C 0.27872 0.23171 0.8385 0.0
C3617 C 0.27386 0.2173 0.85265 0.0
C3618 C 0.27767 0.26998 0.83491 0.0
C3619 C 0.27169 0.29389 0.84536 0.0
C3620 C 0.26583 0.27864 0.85848 0.0
C3621 C 0.26698 0.24066 0.86218 0.0
C3622 C 0.27338 0.33491 0.84493 0.0
C3623 C 0.26392 0.3587 0.84367 0.0
C3624 C 0.28414 0.35032 0.84837 0.0
C3625 C 0.29435 0.32651 0.85047 0.0
C3626 C 0.2952 0.30138 0.8635 0.0
C3627 C 0.30478 0.27855 0.86524 0.0
C3628 C 0.31363 0.28093 0.85412 0.0
C3629 C 0.31292 0.30625 0.84127 0.0
C3630 C 0.30333 0.32907 0.83945 0.0
C3631 C 0.2829 0.49587 0.87659 0.0
C3632 C 0.28138 0.52586 0.86578 0.0
C3633 C 0.28078 0.4591 0.87171 0.0
C3634 C 0.27697 0.45169 0.85602 0.0
C3635 C 0.27504 0.48153 0.84534 0.0
C3636 C 0.27726 0.51842 0.85018 0.0
C3637 C 0.27554 0.41237 0.85084 0.0
C3638 C 0.2851 0.38892 0.85109 0.0
C3639 C 0.26486 0.3974 0.84668 0.0
C3640 C 0.25448 0.4209 0.84632 0.0
C3641 C 0.24808 0.42371 0.83209 0.0
C3642 C 0.23826 0.44578 0.8317 0.0
C3643 C 0.23473 0.46498 0.84551 0.0
C3644 C 0.24098 0.46203 0.85976 0.0
C3645 C 0.2508 0.43999 0.86022 0.0
H3646 H 0.22712 0.48204 0.84519 0.0
H3647 H 0.32105 0.26324 0.85549 0.0
loop_
_geom_bond_atom_site_label_1
_geom_bond_atom_site_label_2
_geom_bond_distance
_geom_bond_site_symmetry_2
_ccdc_geom_bond_type
C0 O1 1.306 . S
C0 O3 1.160 . S
O1 C0 1.306 . S
O1 Cd2 2.228 . S
Cd2 O1 2.228 . S
Cd2 O6 2.273 . S
Cd2 O10 2.277 . S
O3 C0 1.160 . S
O3 Cd4 2.203 . S
Cd4 O3 2.203 . S
Cd4 O6 2.411 . S
Cd4 O7 2.333 . S
Cd4 O8 2.352 . S
Cd4 O12 2.277 . S
Cd4 O13 2.356 . S
C5 O10 1.209 . S
C5 O12 1.226 . S
O6 Cd2 2.273 . S
O6 Cd4 2.411 . S
O6 C9 1.320 . S
O7 Cd4 2.333 . S
O7 C9 1.214 . S
O8 Cd4 2.352 . S
O8 C11 1.258 . S
C9 O6 1.320 . S
C9 O7 1.214 . S
O10 Cd2 2.277 . S
O10 C5 1.209 . S
C11 O8 1.258 . S
C11 O13 1.282 . S
O12 Cd4 2.277 . S
O12 C5 1.226 . S
O13 Cd4 2.356 . S
O13 C11 1.282 . S
C14 O15 1.306 . S
C14 O17 1.160 . S
O15 C14 1.306 . S
O15 Cd16 2.228 . S
Cd16 O15 2.228 . S
Cd16 O20 2.273 . S
Cd16 O24 2.277 . S
O17 C14 1.160 . S
O17 Cd18 2.203 . S
Cd18 O17 2.203 . S
Cd18 O20 2.411 . S
Cd18 O21 2.333 . S
Cd18 O22 2.352 . S
Cd18 O26 2.277 . S
Cd18 O27 2.356 . S
C19 O24 1.209 . S
C19 O26 1.226 . S
O20 Cd16 2.273 . S
O20 Cd18 2.411 . S
O20 C23 1.320 . S
O21 Cd18 2.333 . S
O21 C23 1.214 . S
O22 Cd18 2.352 . S
O22 C25 1.258 . S
C23 O20 1.320 . S
C23 O21 1.214 . S
O24 Cd16 2.277 . S
O24 C19 1.209 . S
C25 O22 1.258 . S
C25 O27 1.282 . S
O26 Cd18 2.277 . S
O26 C19 1.226 . S
O27 Cd18 2.356 . S
O27 C25 1.282 . S
C28 O29 1.306 . S
C28 O31 1.160 . S
O29 C28 1.306 . S
O29 Cd30 2.228 . S
Cd30 O29 2.228 . S
Cd30 O34 2.273 . S
Cd30 O38 2.277 . S
O31 C28 1.160 . S
O31 Cd32 2.203 . S
Cd32 O31 2.203 . S
Cd32 O34 2.411 . S
Cd32 O35 2.333 . S
Cd32 O36 2.352 . S
Cd32 O40 2.277 . S
Cd32 O41 2.356 . S
C33 O38 1.209 . S
C33 O40 1.226 . S
O34 Cd30 2.273 . S
O34 Cd32 2.411 . S
O34 C37 1.320 . S
O35 Cd32 2.333 . S
O35 C37 1.214 . S
O36 Cd32 2.352 . S
O36 C39 1.258 . S
C37 O34 1.320 . S
C37 O35 1.214 . S
O38 Cd30 2.277 . S
O38 C33 1.209 . S
C39 O36 1.258 . S
C39 O41 1.282 . S
O40 Cd32 2.277 . S
O40 C33 1.226 . S
O41 Cd32 2.356 . S
O41 C39 1.282 . S
C42 O43 1.306 . S
C42 O45 1.160 . S
O43 C42 1.306 . S
O43 Cd44 2.228 . S
Cd44 O43 2.228 . S
Cd44 O48 2.273 . S
Cd44 O52 2.277 . S
O45 C42 1.160 . S
O45 Cd46 2.203 . S
Cd46 O45 2.203 . S
Cd46 O48 2.411 . S
Cd46 O49 2.333 . S
Cd46 O50 2.352 . S
Cd46 O54 2.277 . S
Cd46 O55 2.356 . S
C47 O52 1.209 . S
C47 O54 1.226 . S
O48 Cd44 2.273 . S
O48 Cd46 2.411 . S
O48 C51 1.320 . S
O49 Cd46 2.333 . S
O49 C51 1.214 . S
O50 Cd46 2.352 . S
O50 C53 1.258 . S
C51 O48 1.320 . S
C51 O49 1.214 . S
O52 Cd44 2.277 . S
O52 C47 1.209 . S
C53 O50 1.258 . S
C53 O55 1.282 . S
O54 Cd46 2.277 . S
O54 C47 1.226 . S
O55 Cd46 2.356 . S
O55 C53 1.282 . S
C56 O57 1.306 . S
C56 O59 1.160 . S
O57 C56 1.306 . S
O57 Cd58 2.228 . S
Cd58 O57 2.228 . S
Cd58 O62 2.273 . S
Cd58 O66 2.277 . S
O59 C56 1.160 . S
O59 Cd60 2.203 . S
Cd60 O59 2.203 . S
Cd60 O62 2.411 . S
Cd60 O63 2.333 . S
Cd60 O64 2.352 . S
Cd60 O68 2.277 . S
Cd60 O69 2.356 . S
C61 O66 1.209 . S
C61 O68 1.226 . S
O62 Cd58 2.273 . S
O62 Cd60 2.411 . S
O62 C65 1.320 . S
O63 Cd60 2.333 . S
O63 C65 1.214 . S
O64 Cd60 2.352 . S
O64 C67 1.258 . S
C65 O62 1.320 . S
C65 O63 1.214 . S
O66 Cd58 2.277 . S
O66 C61 1.209 . S
C67 O64 1.258 . S
C67 O69 1.282 . S
O68 Cd60 2.277 . S
O68 C61 1.226 . S
O69 Cd60 2.356 . S
O69 C67 1.282 . S
C70 O71 1.306 . S
C70 O73 1.160 . S
O71 C70 1.306 . S
O71 Cd72 2.228 . S
Cd72 O71 2.228 . S
Cd72 O76 2.273 . S
Cd72 O80 2.277 . S
O73 C70 1.160 . S
O73 Cd74 2.203 . S
Cd74 O73 2.203 . S
Cd74 O76 2.411 . S
Cd74 O77 2.333 . S
Cd74 O78 2.352 . S
Cd74 O82 2.277 . S
Cd74 O83 2.356 . S
C75 O80 1.209 . S
C75 O82 1.226 . S
O76 Cd72 2.273 . S
O76 Cd74 2.411 . S
O76 C79 1.320 . S
O77 Cd74 2.333 . S
O77 C79 1.214 . S
O78 Cd74 2.352 . S
O78 C81 1.258 . S
C79 O76 1.320 . S
C79 O77 1.214 . S
O80 Cd72 2.277 . S
O80 C75 1.209 . S
C81 O78 1.258 . S
C81 O83 1.282 . S
O82 Cd74 2.277 . S
O82 C75 1.226 . S
O83 Cd74 2.356 . S
O83 C81 1.282 . S
C84 O85 1.306 . S
C84 O87 1.160 . S
O85 C84 1.306 . S
O85 Cd86 2.228 . S
Cd86 O85 2.228 . S
Cd86 O90 2.273 . S
Cd86 O94 2.277 . S
O87 C84 1.160 . S
O87 Cd88 2.203 . S
Cd88 O87 2.203 . S
Cd88 O90 2.411 . S
Cd88 O91 2.333 . S
Cd88 O92 2.352 . S
Cd88 O96 2.277 . S
Cd88 O97 2.356 . S
C89 O94 1.209 . S
C89 O96 1.226 . S
O90 Cd86 2.273 . S
O90 Cd88 2.411 . S
O90 C93 1.320 . S
O91 Cd88 2.333 . S
O91 C93 1.214 . S
O92 Cd88 2.352 . S
O92 C95 1.258 . S
C93 O90 1.320 . S
C93 O91 1.214 . S
O94 Cd86 2.277 . S
O94 C89 1.209 . S
C95 O92 1.258 . S
C95 O97 1.282 . S
O96 Cd88 2.277 . S
O96 C89 1.226 . S
O97 Cd88 2.356 . S
O97 C95 1.282 . S
C98 O99 1.306 . S
C98 O101 1.160 . S
O99 C98 1.306 . S
O99 Cd100 2.228 . S
Cd100 O99 2.228 . S
Cd100 O104 2.273 . S
Cd100 O108 2.277 . S
O101 C98 1.160 . S
O101 Cd102 2.203 . S
Cd102 O101 2.203 . S
Cd102 O104 2.411 . S
Cd102 O105 2.333 . S
Cd102 O106 2.352 . S
Cd102 O110 2.277 . S
Cd102 O111 2.356 . S
C103 O108 1.209 . S
C103 O110 1.226 . S
O104 Cd100 2.273 . S
O104 Cd102 2.411 . S
O104 C107 1.320 . S
O105 Cd102 2.333 . S
O105 C107 1.214 . S
O106 Cd102 2.352 . S
O106 C109 1.258 . S
C107 O104 1.320 . S
C107 O105 1.214 . S
O108 Cd100 2.277 . S
O108 C103 1.209 . S
C109 O106 1.258 . S
C109 O111 1.282 . S
O110 Cd102 2.277 . S
O110 C103 1.226 . S
O111 Cd102 2.356 . S
O111 C109 1.282 . S
C112 O113 1.306 . S
C112 O115 1.160 . S
O113 C112 1.306 . S
O113 Cd114 2.228 . S
Cd114 O113 2.228 . S
Cd114 O118 2.273 . S
Cd114 O122 2.277 . S
O115 C112 1.160 . S
O115 Cd116 2.203 . S
Cd116 O115 2.203 . S
Cd116 O118 2.411 . S
Cd116 O119 2.333 . S
Cd116 O120 2.352 . S
Cd116 O124 2.277 . S
Cd116 O125 2.356 . S
C117 O122 1.209 . S
C117 O124 1.226 . S
O118 Cd114 2.273 . S
O118 Cd116 2.411 . S
O118 C121 1.320 . S
O119 Cd116 2.333 . S
O119 C121 1.214 . S
O120 Cd116 2.352 . S
O120 C123 1.258 . S
C121 O118 1.320 . S
C121 O119 1.214 . S
O122 Cd114 2.277 . S
O122 C117 1.209 . S
C123 O120 1.258 . S
C123 O125 1.282 . S
O124 Cd116 2.277 . S
O124 C117 1.226 . S
O125 Cd116 2.356 . S
O125 C123 1.282 . S
C126 O127 1.306 . S
C126 O129 1.160 . S
O127 C126 1.306 . S
O127 Cd128 2.228 . S
Cd128 O127 2.228 . S
Cd128 O132 2.273 . S
Cd128 O136 2.277 . S
O129 C126 1.160 . S
O129 Cd130 2.203 . S
Cd130 O129 2.203 . S
Cd130 O132 2.411 . S
Cd130 O133 2.333 . S
Cd130 O134 2.352 . S
Cd130 O138 2.277 . S
Cd130 O139 2.356 . S
C131 O136 1.209 . S
C131 O138 1.226 . S
O132 Cd128 2.273 . S
O132 Cd130 2.411 . S
O132 C135 1.320 . S
O133 Cd130 2.333 . S
O133 C135 1.214 . S
O134 Cd130 2.352 . S
O134 C137 1.258 . S
C135 O132 1.320 . S
C135 O133 1.214 . S
O136 Cd128 2.277 . S
O136 C131 1.209 . S
C137 O134 1.258 . S
C137 O139 1.282 . S
O138 Cd130 2.277 . S
O138 C131 1.226 . S
O139 Cd130 2.356 . S
O139 C137 1.282 . S
C140 O141 1.306 . S
C140 O143 1.160 . S
O141 C140 1.306 . S
O141 Cd142 2.228 . S
Cd142 O141 2.228 . S
Cd142 O146 2.273 . S
Cd142 O150 2.277 . S
O143 C140 1.160 . S
O143 Cd144 2.203 . S
Cd144 O143 2.203 . S
Cd144 O146 2.411 . S
Cd144 O147 2.333 . S
Cd144 O148 2.352 . S
Cd144 O152 2.277 . S
Cd144 O153 2.356 . S
C145 O150 1.209 . S
C145 O152 1.226 . S
O146 Cd142 2.273 . S
O146 Cd144 2.411 . S
O146 C149 1.320 . S
O147 Cd144 2.333 . S
O147 C149 1.214 . S
O148 Cd144 2.352 . S
O148 C151 1.258 . S
C149 O146 1.320 . S
C149 O147 1.214 . S
O150 Cd142 2.277 . S
O150 C145 1.209 . S
C151 O148 1.258 . S
C151 O153 1.282 . S
O152 Cd144 2.277 . S
O152 C145 1.226 . S
O153 Cd144 2.356 . S
O153 C151 1.282 . S
C154 O155 1.306 . S
C154 O157 1.160 . S
O155 C154 1.306 . S
O155 Cd156 2.228 . S
Cd156 O155 2.228 . S
Cd156 O160 2.273 . S
Cd156 O164 2.277 . S
O157 C154 1.160 . S
O157 Cd158 2.203 . S
Cd158 O157 2.203 . S
Cd158 O160 2.411 . S
Cd158 O161 2.333 . S
Cd158 O162 2.352 . S
Cd158 O166 2.277 . S
Cd158 O167 2.356 . S
C159 O164 1.209 . S
C159 O166 1.226 . S
O160 Cd156 2.273 . S
O160 Cd158 2.411 . S
O160 C163 1.320 . S
O161 Cd158 2.333 . S
O161 C163 1.214 . S
O162 Cd158 2.352 . S
O162 C165 1.258 . S
C163 O160 1.320 . S
C163 O161 1.214 . S
O164 Cd156 2.277 . S
O164 C159 1.209 . S
C165 O162 1.258 . S
C165 O167 1.282 . S
O166 Cd158 2.277 . S
O166 C159 1.226 . S
O167 Cd158 2.356 . S
O167 C165 1.282 . S
C168 O169 1.306 . S
C168 O171 1.160 . S
O169 C168 1.306 . S
O169 Cd170 2.228 . S
Cd170 O169 2.228 . S
Cd170 O174 2.273 . S
Cd170 O178 2.277 . S
O171 C168 1.160 . S
O171 Cd172 2.203 . S
Cd172 O171 2.203 . S
Cd172 O174 2.411 . S
Cd172 O175 2.333 . S
Cd172 O176 2.352 . S
Cd172 O180 2.277 . S
Cd172 O181 2.356 . S
C173 O178 1.209 . S
C173 O180 1.226 . S
O174 Cd170 2.273 . S
O174 Cd172 2.411 . S
O174 C177 1.320 . S
O175 Cd172 2.333 . S
O175 C177 1.214 . S
O176 Cd172 2.352 . S
O176 C179 1.258 . S
C177 O174 1.320 . S
C177 O175 1.214 . S
O178 Cd170 2.277 . S
O178 C173 1.209 . S
C179 O176 1.258 . S
C179 O181 1.282 . S
O180 Cd172 2.277 . S
O180 C173 1.226 . S
O181 Cd172 2.356 . S
O181 C179 1.282 . S
C182 O183 1.306 . S
C182 O185 1.160 . S
O183 C182 1.306 . S
O183 Cd184 2.228 . S
Cd184 O183 2.228 . S
Cd184 O188 2.273 . S
Cd184 O192 2.277 . S
O185 C182 1.160 . S
O185 Cd186 2.203 . S
Cd186 O185 2.203 . S
Cd186 O188 2.411 . S
Cd186 O189 2.333 . S
Cd186 O190 2.352 . S
Cd186 O194 2.277 . S
Cd186 O195 2.356 . S
C187 O192 1.209 . S
C187 O194 1.226 . S
O188 Cd184 2.273 . S
O188 Cd186 2.411 . S
O188 C191 1.320 . S
O189 Cd186 2.333 . S
O189 C191 1.214 . S
O190 Cd186 2.352 . S
O190 C193 1.258 . S
C191 O188 1.320 . S
C191 O189 1.214 . S
O192 Cd184 2.277 . S
O192 C187 1.209 . S
C193 O190 1.258 . S
C193 O195 1.282 . S
O194 Cd186 2.277 . S
O194 C187 1.226 . S
O195 Cd186 2.356 . S
O195 C193 1.282 . S
C196 O197 1.306 . S
C196 O199 1.160 . S
O197 C196 1.306 . S
O197 Cd198 2.228 . S
Cd198 O197 2.228 . S
Cd198 O202 2.273 . S
Cd198 O206 2.277 . S
O199 C196 1.160 . S
O199 Cd200 2.203 . S
Cd200 O199 2.203 . S
Cd200 O202 2.411 . S
Cd200 O203 2.333 . S
Cd200 O204 2.352 . S
Cd200 O208 2.277 . S
Cd200 O209 2.356 . S
C201 O206 1.209 . S
C201 O208 1.226 . S
O202 Cd198 2.273 . S
O202 Cd200 2.411 . S
O202 C205 1.320 . S
O203 Cd200 2.333 . S
O203 C205 1.214 . S
O204 Cd200 2.352 . S
O204 C207 1.258 . S
C205 O202 1.320 . S
C205 O203 1.214 . S
O206 Cd198 2.277 . S
O206 C201 1.209 . S
C207 O204 1.258 . S
C207 O209 1.282 . S
O208 Cd200 2.277 . S
O208 C201 1.226 . S
O209 Cd200 2.356 . S
O209 C207 1.282 . S
C210 O211 1.306 . S
C210 O213 1.160 . S
O211 C210 1.306 . S
O211 Cd212 2.228 . S
Cd212 O211 2.228 . S
Cd212 O216 2.273 . S
Cd212 O220 2.277 . S
O213 C210 1.160 . S
O213 Cd214 2.203 . S
Cd214 O213 2.203 . S
Cd214 O216 2.411 . S
Cd214 O217 2.333 . S
Cd214 O218 2.352 . S
Cd214 O222 2.277 . S
Cd214 O223 2.356 . S
C215 O220 1.209 . S
C215 O222 1.226 . S
O216 Cd212 2.273 . S
O216 Cd214 2.411 . S
O216 C219 1.320 . S
O217 Cd214 2.333 . S
O217 C219 1.214 . S
O218 Cd214 2.352 . S
O218 C221 1.258 . S
C219 O216 1.320 . S
C219 O217 1.214 . S
O220 Cd212 2.277 . S
O220 C215 1.209 . S
C221 O218 1.258 . S
C221 O223 1.282 . S
O222 Cd214 2.277 . S
O222 C215 1.226 . S
O223 Cd214 2.356 . S
O223 C221 1.282 . S
C224 O225 1.306 . S
C224 O227 1.160 . S
O225 C224 1.306 . S
O225 Cd226 2.228 . S
Cd226 O225 2.228 . S
Cd226 O230 2.273 . S
Cd226 O234 2.277 . S
O227 C224 1.160 . S
O227 Cd228 2.203 . S
Cd228 O227 2.203 . S
Cd228 O230 2.411 . S
Cd228 O231 2.333 . S
Cd228 O232 2.352 . S
Cd228 O236 2.277 . S
Cd228 O237 2.356 . S
C229 O234 1.209 . S
C229 O236 1.226 . S
O230 Cd226 2.273 . S
O230 Cd228 2.411 . S
O230 C233 1.320 . S
O231 Cd228 2.333 . S
O231 C233 1.214 . S
O232 Cd228 2.352 . S
O232 C235 1.258 . S
C233 O230 1.320 . S
C233 O231 1.214 . S
O234 Cd226 2.277 . S
O234 C229 1.209 . S
C235 O232 1.258 . S
C235 O237 1.282 . S
O236 Cd228 2.277 . S
O236 C229 1.226 . S
O237 Cd228 2.356 . S
O237 C235 1.282 . S
C238 O239 1.306 . S
C238 O241 1.160 . S
O239 C238 1.306 . S
O239 Cd240 2.228 . S
Cd240 O239 2.228 . S
Cd240 O244 2.273 . S
Cd240 O248 2.277 . S
O241 C238 1.160 . S
O241 Cd242 2.203 . S
Cd242 O241 2.203 . S
Cd242 O244 2.411 . S
Cd242 O245 2.333 . S
Cd242 O246 2.352 . S
Cd242 O250 2.277 . S
Cd242 O251 2.356 . S
C243 O248 1.209 . S
C243 O250 1.226 . S
O244 Cd240 2.273 . S
O244 Cd242 2.411 . S
O244 C247 1.320 . S
O245 Cd242 2.333 . S
O245 C247 1.214 . S
O246 Cd242 2.352 . S
O246 C249 1.258 . S
C247 O244 1.320 . S
C247 O245 1.214 . S
O248 Cd240 2.277 . S
O248 C243 1.209 . S
C249 O246 1.258 . S
C249 O251 1.282 . S
O250 Cd242 2.277 . S
O250 C243 1.226 . S
O251 Cd242 2.356 . S
O251 C249 1.282 . S
C252 O253 1.306 . S
C252 O255 1.160 . S
O253 C252 1.306 . S
O253 Cd254 2.228 . S
Cd254 O253 2.228 . S
Cd254 O258 2.273 . S
Cd254 O262 2.277 . S
O255 C252 1.160 . S
O255 Cd256 2.203 . S
Cd256 O255 2.203 . S
Cd256 O258 2.411 . S
Cd256 O259 2.333 . S
Cd256 O260 2.352 . S
Cd256 O264 2.277 . S
Cd256 O265 2.356 . S
C257 O262 1.209 . S
C257 O264 1.226 . S
O258 Cd254 2.273 . S
O258 Cd256 2.411 . S
O258 C261 1.320 . S
O259 Cd256 2.333 . S
O259 C261 1.214 . S
O260 Cd256 2.352 . S
O260 C263 1.258 . S
C261 O258 1.320 . S
C261 O259 1.214 . S
O262 Cd254 2.277 . S
O262 C257 1.209 . S
C263 O260 1.258 . S
C263 O265 1.282 . S
O264 Cd256 2.277 . S
O264 C257 1.226 . S
O265 Cd256 2.356 . S
O265 C263 1.282 . S
C266 O267 1.306 . S
C266 O269 1.160 . S
O267 C266 1.306 . S
O267 Cd268 2.228 . S
Cd268 O267 2.228 . S
Cd268 O272 2.273 . S
Cd268 O276 2.277 . S
O269 C266 1.160 . S
O269 Cd270 2.203 . S
Cd270 O269 2.203 . S
Cd270 O272 2.411 . S
Cd270 O273 2.333 . S
Cd270 O274 2.352 . S
Cd270 O278 2.277 . S
Cd270 O279 2.356 . S
C271 O276 1.209 . S
C271 O278 1.226 . S
O272 Cd268 2.273 . S
O272 Cd270 2.411 . S
O272 C275 1.320 . S
O273 Cd270 2.333 . S
O273 C275 1.214 . S
O274 Cd270 2.352 . S
O274 C277 1.258 . S
C275 O272 1.320 . S
C275 O273 1.214 . S
O276 Cd268 2.277 . S
O276 C271 1.209 . S
C277 O274 1.258 . S
C277 O279 1.282 . S
O278 Cd270 2.277 . S
O278 C271 1.226 . S
O279 Cd270 2.356 . S
O279 C277 1.282 . S
C280 O281 1.306 . S
C280 O283 1.160 . S
O281 C280 1.306 . S
O281 Cd282 2.228 . S
Cd282 O281 2.228 . S
Cd282 O286 2.273 . S
Cd282 O290 2.277 . S
O283 C280 1.160 . S
O283 Cd284 2.203 . S
Cd284 O283 2.203 . S
Cd284 O286 2.411 . S
Cd284 O287 2.333 . S
Cd284 O288 2.352 . S
Cd284 O292 2.277 . S
Cd284 O293 2.356 . S
C285 O290 1.209 . S
C285 O292 1.226 . S
O286 Cd282 2.273 . S
O286 Cd284 2.411 . S
O286 C289 1.320 . S
O287 Cd284 2.333 . S
O287 C289 1.214 . S
O288 Cd284 2.352 . S
O288 C291 1.258 . S
C289 O286 1.320 . S
C289 O287 1.214 . S
O290 Cd282 2.277 . S
O290 C285 1.209 . S
C291 O288 1.258 . S
C291 O293 1.282 . S
O292 Cd284 2.277 . S
O292 C285 1.226 . S
O293 Cd284 2.356 . S
O293 C291 1.282 . S
C294 O295 1.306 . S
C294 O297 1.160 . S
O295 C294 1.306 . S
O295 Cd296 2.228 . S
Cd296 O295 2.228 . S
Cd296 O300 2.273 . S
Cd296 O304 2.277 . S
O297 C294 1.160 . S
O297 Cd298 2.203 . S
Cd298 O297 2.203 . S
Cd298 O300 2.411 . S
Cd298 O301 2.333 . S
Cd298 O302 2.352 . S
Cd298 O306 2.277 . S
Cd298 O307 2.356 . S
C299 O304 1.209 . S
C299 O306 1.226 . S
O300 Cd296 2.273 . S
O300 Cd298 2.411 . S
O300 C303 1.320 . S
O301 Cd298 2.333 . S
O301 C303 1.214 . S
O302 Cd298 2.352 . S
O302 C305 1.258 . S
C303 O300 1.320 . S
C303 O301 1.214 . S
O304 Cd296 2.277 . S
O304 C299 1.209 . S
C305 O302 1.258 . S
C305 O307 1.282 . S
O306 Cd298 2.277 . S
O306 C299 1.226 . S
O307 Cd298 2.356 . S
O307 C305 1.282 . S
C308 O309 1.306 . S
C308 O311 1.160 . S
O309 C308 1.306 . S
O309 Cd310 2.228 . S
Cd310 O309 2.228 . S
Cd310 O314 2.273 . S
Cd310 O318 2.277 . S
O311 C308 1.160 . S
O311 Cd312 2.203 . S
Cd312 O311 2.203 . S
Cd312 O314 2.411 . S
Cd312 O315 2.333 . S
Cd312 O316 2.352 . S
Cd312 O320 2.277 . S
Cd312 O321 2.356 . S
C313 O318 1.209 . S
C313 O320 1.226 . S
O314 Cd310 2.273 . S
O314 Cd312 2.411 . S
O314 C317 1.320 . S
O315 Cd312 2.333 . S
O315 C317 1.214 . S
O316 Cd312 2.352 . S
O316 C319 1.258 . S
C317 O314 1.320 . S
C317 O315 1.214 . S
O318 Cd310 2.277 . S
O318 C313 1.209 . S
C319 O316 1.258 . S
C319 O321 1.282 . S
O320 Cd312 2.277 . S
O320 C313 1.226 . S
O321 Cd312 2.356 . S
O321 C319 1.282 . S
C322 O323 1.306 . S
C322 O325 1.160 . S
O323 C322 1.306 . S
O323 Cd324 2.228 . S
Cd324 O323 2.228 . S
Cd324 O328 2.273 . S
Cd324 O332 2.277 . S
O325 C322 1.160 . S
O325 Cd326 2.203 . S
Cd326 O325 2.203 . S
Cd326 O328 2.411 . S
Cd326 O329 2.333 . S
Cd326 O330 2.352 . S
Cd326 O334 2.277 . S
Cd326 O335 2.356 . S
C327 O332 1.209 . S
C327 O334 1.226 . S
O328 Cd324 2.273 . S
O328 Cd326 2.411 . S
O328 C331 1.320 . S
O329 Cd326 2.333 . S
O329 C331 1.214 . S
O330 Cd326 2.352 . S
O330 C333 1.258 . S
C331 O328 1.320 . S
C331 O329 1.214 . S
O332 Cd324 2.277 . S
O332 C327 1.209 . S
C333 O330 1.258 . S
C333 O335 1.282 . S
O334 Cd326 2.277 . S
O334 C327 1.226 . S
O335 Cd326 2.356 . S
O335 C333 1.282 . S
C336 O337 1.306 . S
C336 O339 1.160 . S
O337 C336 1.306 . S
O337 Cd338 2.228 . S
Cd338 O337 2.228 . S
Cd338 O342 2.273 . S
Cd338 O346 2.277 . S
O339 C336 1.160 . S
O339 Cd340 2.203 . S
Cd340 O339 2.203 . S
Cd340 O342 2.411 . S
Cd340 O343 2.333 . S
Cd340 O344 2.352 . S
Cd340 O348 2.277 . S
Cd340 O349 2.356 . S
C341 O346 1.209 . S
C341 O348 1.226 . S
O342 Cd338 2.273 . S
O342 Cd340 2.411 . S
O342 C345 1.320 . S
O343 Cd340 2.333 . S
O343 C345 1.214 . S
O344 Cd340 2.352 . S
O344 C347 1.258 . S
C345 O342 1.320 . S
C345 O343 1.214 . S
O346 Cd338 2.277 . S
O346 C341 1.209 . S
C347 O344 1.258 . S
C347 O349 1.282 . S
O348 Cd340 2.277 . S
O348 C341 1.226 . S
O349 Cd340 2.356 . S
O349 C347 1.282 . S
C350 O351 1.306 . S
C350 O353 1.160 . S
O351 C350 1.306 . S
O351 Cd352 2.228 . S
Cd352 O351 2.228 . S
Cd352 O356 2.273 . S
Cd352 O360 2.277 . S
O353 C350 1.160 . S
O353 Cd354 2.203 . S
Cd354 O353 2.203 . S
Cd354 O356 2.411 . S
Cd354 O357 2.333 . S
Cd354 O358 2.352 . S
Cd354 O362 2.277 . S
Cd354 O363 2.356 . S
C355 O360 1.209 . S
C355 O362 1.226 . S
O356 Cd352 2.273 . S
O356 Cd354 2.411 . S
O356 C359 1.320 . S
O357 Cd354 2.333 . S
O357 C359 1.214 . S
O358 Cd354 2.352 . S
O358 C361 1.258 . S
C359 O356 1.320 . S
C359 O357 1.214 . S
O360 Cd352 2.277 . S
O360 C355 1.209 . S
C361 O358 1.258 . S
C361 O363 1.282 . S
O362 Cd354 2.277 . S
O362 C355 1.226 . S
O363 Cd354 2.356 . S
O363 C361 1.282 . S
C364 O365 1.306 . S
C364 O367 1.160 . S
O365 C364 1.306 . S
O365 Cd366 2.228 . S
Cd366 O365 2.228 . S
Cd366 O370 2.273 . S
Cd366 O374 2.277 . S
O367 C364 1.160 . S
O367 Cd368 2.203 . S
Cd368 O367 2.203 . S
Cd368 O370 2.411 . S
Cd368 O371 2.333 . S
Cd368 O372 2.352 . S
Cd368 O376 2.277 . S
Cd368 O377 2.356 . S
C369 O374 1.209 . S
C369 O376 1.226 . S
O370 Cd366 2.273 . S
O370 Cd368 2.411 . S
O370 C373 1.320 . S
O371 Cd368 2.333 . S
O371 C373 1.214 . S
O372 Cd368 2.352 . S
O372 C375 1.258 . S
C373 O370 1.320 . S
C373 O371 1.214 . S
O374 Cd366 2.277 . S
O374 C369 1.209 . S
C375 O372 1.258 . S
C375 O377 1.282 . S
O376 Cd368 2.277 . S
O376 C369 1.226 . S
O377 Cd368 2.356 . S
O377 C375 1.282 . S
C378 O379 1.306 . S
C378 O381 1.160 . S
O379 C378 1.306 . S
O379 Cd380 2.228 . S
Cd380 O379 2.228 . S
Cd380 O384 2.273 . S
Cd380 O388 2.277 . S
O381 C378 1.160 . S
O381 Cd382 2.203 . S
Cd382 O381 2.203 . S
Cd382 O384 2.411 . S
Cd382 O385 2.333 . S
Cd382 O386 2.352 . S
Cd382 O390 2.277 . S
Cd382 O391 2.356 . S
C383 O388 1.209 . S
C383 O390 1.226 . S
O384 Cd380 2.273 . S
O384 Cd382 2.411 . S
O384 C387 1.320 . S
O385 Cd382 2.333 . S
O385 C387 1.214 . S
O386 Cd382 2.352 . S
O386 C389 1.258 . S
C387 O384 1.320 . S
C387 O385 1.214 . S
O388 Cd380 2.277 . S
O388 C383 1.209 . S
C389 O386 1.258 . S
C389 O391 1.282 . S
O390 Cd382 2.277 . S
O390 C383 1.226 . S
O391 Cd382 2.356 . S
O391 C389 1.282 . S
C392 O393 1.306 . S
C392 O395 1.160 . S
O393 C392 1.306 . S
O393 Cd394 2.228 . S
Cd394 O393 2.228 . S
Cd394 O398 2.273 . S
Cd394 O402 2.277 . S
O395 C392 1.160 . S
O395 Cd396 2.203 . S
Cd396 O395 2.203 . S
Cd396 O398 2.411 . S
Cd396 O399 2.333 . S
Cd396 O400 2.352 . S
Cd396 O404 2.277 . S
Cd396 O405 2.356 . S
C397 O402 1.209 . S
C397 O404 1.226 . S
O398 Cd394 2.273 . S
O398 Cd396 2.411 . S
O398 C401 1.320 . S
O399 Cd396 2.333 . S
O399 C401 1.214 . S
O400 Cd396 2.352 . S
O400 C403 1.258 . S
C401 O398 1.320 . S
C401 O399 1.214 . S
O402 Cd394 2.277 . S
O402 C397 1.209 . S
C403 O400 1.258 . S
C403 O405 1.282 . S
O404 Cd396 2.277 . S
O404 C397 1.226 . S
O405 Cd396 2.356 . S
O405 C403 1.282 . S
C406 O407 1.306 . S
C406 O409 1.160 . S
O407 C406 1.306 . S
O407 Cd408 2.228 . S
Cd408 O407 2.228 . S
Cd408 O412 2.273 . S
Cd408 O416 2.277 . S
O409 C406 1.160 . S
O409 Cd410 2.203 . S
Cd410 O409 2.203 . S
Cd410 O412 2.411 . S
Cd410 O413 2.333 . S
Cd410 O414 2.352 . S
Cd410 O418 2.277 . S
Cd410 O419 2.356 . S
C411 O416 1.209 . S
C411 O418 1.226 . S
O412 Cd408 2.273 . S
O412 Cd410 2.411 . S
O412 C415 1.320 . S
O413 Cd410 2.333 . S
O413 C415 1.214 . S
O414 Cd410 2.352 . S
O414 C417 1.258 . S
C415 O412 1.320 . S
C415 O413 1.214 . S
O416 Cd408 2.277 . S
O416 C411 1.209 . S
C417 O414 1.258 . S
C417 O419 1.282 . S
O418 Cd410 2.277 . S
O418 C411 1.226 . S
O419 Cd410 2.356 . S
O419 C417 1.282 . S
C420 O421 1.306 . S
C420 O423 1.160 . S
O421 C420 1.306 . S
O421 Cd422 2.228 . S
Cd422 O421 2.228 . S
Cd422 O426 2.273 . S
Cd422 O430 2.277 . S
O423 C420 1.160 . S
O423 Cd424 2.203 . S
Cd424 O423 2.203 . S
Cd424 O426 2.411 . S
Cd424 O427 2.333 . S
Cd424 O428 2.352 . S
Cd424 O432 2.277 . S
Cd424 O433 2.356 . S
C425 O430 1.209 . S
C425 O432 1.226 . S
O426 Cd422 2.273 . S
O426 Cd424 2.411 . S
O426 C429 1.320 . S
O427 Cd424 2.333 . S
O427 C429 1.214 . S
O428 Cd424 2.352 . S
O428 C431 1.258 . S
C429 O426 1.320 . S
C429 O427 1.214 . S
O430 Cd422 2.277 . S
O430 C425 1.209 . S
C431 O428 1.258 . S
C431 O433 1.282 . S
O432 Cd424 2.277 . S
O432 C425 1.226 . S
O433 Cd424 2.356 . S
O433 C431 1.282 . S
C434 O435 1.306 . S
C434 O437 1.160 . S
O435 C434 1.306 . S
O435 Cd436 2.228 . S
Cd436 O435 2.228 . S
Cd436 O440 2.273 . S
Cd436 O444 2.277 . S
O437 C434 1.160 . S
O437 Cd438 2.203 . S
Cd438 O437 2.203 . S
Cd438 O440 2.411 . S
Cd438 O441 2.333 . S
Cd438 O442 2.352 . S
Cd438 O446 2.277 . S
Cd438 O447 2.356 . S
C439 O444 1.209 . S
C439 O446 1.226 . S
O440 Cd436 2.273 . S
O440 Cd438 2.411 . S
O440 C443 1.320 . S
O441 Cd438 2.333 . S
O441 C443 1.214 . S
O442 Cd438 2.352 . S
O442 C445 1.258 . S
C443 O440 1.320 . S
C443 O441 1.214 . S
O444 Cd436 2.277 . S
O444 C439 1.209 . S
C445 O442 1.258 . S
C445 O447 1.282 . S
O446 Cd438 2.277 . S
O446 C439 1.226 . S
O447 Cd438 2.356 . S
O447 C445 1.282 . S
H448 C466 0.951 . S
H449 C468 0.951 . S
H450 C470 0.950 . S
H451 C471 0.950 . S
H452 C473 0.950 . S
H453 C476 0.950 . S
H454 C477 0.950 . S
H455 C479 1.028 . S
H456 C480 0.950 . S
H457 C481 0.951 . S
H458 C483 0.951 . S
H459 C485 0.950 . S
H460 C486 0.950 . S
H461 C488 0.950 . S
H462 C491 0.950 . S
H463 C492 0.950 . S
H464 C494 0.950 . S
H465 C495 0.950 . S
C466 H448 0.951 . S
C466 C467 1.366 . S
C466 C468 1.388 . S
C467 C466 1.366 . S
C467 C471 1.385 . S
C468 H449 0.951 . S
C468 C466 1.388 . S
C468 C469 1.366 . S
C469 C468 1.366 . S
C469 C470 1.414 . S
C469 C472 1.499 . S
C470 H450 0.950 . S
C470 C469 1.414 . S
C470 C471 1.374 . S
C471 H451 0.950 . S
C471 C467 1.385 . S
C471 C470 1.374 . S
C472 C469 1.499 . S
C472 C473 1.373 . S
C472 C474 1.389 . S
C473 H452 0.950 . S
C473 C472 1.373 . S
C473 C489 1.377 . S
C474 C472 1.389 . S
C474 C475 1.524 . S
C474 C488 1.377 . S
C475 C474 1.524 . S
C475 C476 1.397 . S
C475 C480 1.363 . S
C476 H453 0.950 . S
C476 C475 1.397 . S
C476 C477 1.334 . S
C477 H454 0.950 . S
C477 C476 1.334 . S
C477 C478 1.287 . S
C478 C477 1.287 . S
C478 C479 1.524 . S
C478 H497 0.913 . S
C479 H455 1.028 . S
C479 C478 1.524 . S
C479 C480 1.415 . S
C480 H456 0.950 . S
C480 C475 1.363 . S
C480 C479 1.415 . S
C481 H457 0.951 . S
C481 C482 1.366 . S
C481 C483 1.388 . S
C482 C481 1.366 . S
C482 C486 1.385 . S
C483 H458 0.951 . S
C483 C481 1.388 . S
C483 C484 1.366 . S
C484 C483 1.366 . S
C484 C485 1.414 . S
C484 C487 1.499 . S
C485 H459 0.950 . S
C485 C484 1.414 . S
C485 C486 1.374 . S
C486 H460 0.950 . S
C486 C482 1.385 . S
C486 C485 1.374 . S
C487 C484 1.499 . S
C487 C488 1.373 . S
C487 C489 1.389 . S
C488 H461 0.950 . S
C488 C474 1.377 . S
C488 C487 1.373 . S
C489 C473 1.377 . S
C489 C487 1.389 . S
C489 C490 1.524 . S
C490 C489 1.524 . S
C490 C491 1.397 . S
C490 C495 1.363 . S
C491 H462 0.950 . S
C491 C490 1.397 . S
C491 C492 1.334 . S
C492 H463 0.950 . S
C492 C491 1.334 . S
C492 C493 1.287 . S
C493 C492 1.287 . S
C493 C494 1.524 . S
C493 H496 0.999 . S
C494 H464 0.950 . S
C494 C493 1.524 . S
C494 C495 1.415 . S
C495 H465 0.950 . S
C495 C490 1.363 . S
C495 C494 1.415 . S
H496 C493 0.999 . S
H497 C478 0.913 . S
H498 C516 0.951 . S
H499 C518 0.951 . S
H500 C520 0.950 . S
H501 C521 0.950 . S
H502 C523 0.950 . S
H503 C526 0.950 . S
H504 C527 0.950 . S
H505 C529 0.950 . S
H506 C530 0.950 . S
H507 C531 0.951 . S
H508 C533 0.951 . S
H509 C535 0.950 . S
H510 C536 0.950 . S
H511 C538 0.950 . S
H512 C541 0.950 . S
H513 C542 0.950 . S
H514 C544 0.950 . S
H515 C545 0.950 . S
C516 H498 0.951 . S
C516 C517 1.366 . S
C516 C518 1.388 . S
C517 C516 1.366 . S
C517 C521 1.385 . S
C518 H499 0.951 . S
C518 C516 1.388 . S
C518 C519 1.366 . S
C519 C518 1.366 . S
C519 C520 1.414 . S
C519 C522 1.499 . S
C520 H500 0.950 . S
C520 C519 1.414 . S
C520 C521 1.374 . S
C521 H501 0.950 . S
C521 C517 1.385 . S
C521 C520 1.374 . S
C522 C519 1.499 . S
C522 C523 1.373 . S
C522 C524 1.389 . S
C523 H502 0.950 . S
C523 C522 1.373 . S
C523 C539 1.377 . S
C524 C522 1.389 . S
C524 C525 1.524 . S
C524 C538 1.377 . S
C525 C524 1.524 . S
C525 C526 1.397 . S
C525 C530 1.363 . S
C526 H503 0.950 . S
C526 C525 1.397 . S
C526 C527 1.334 . S
C527 H504 0.950 . S
C527 C526 1.334 . S
C527 C528 1.287 . S
C528 C527 1.287 . S
C528 C529 1.524 . S
C528 H547 0.913 . S
C529 H505 0.950 . S
C529 C528 1.524 . S
C529 C530 1.415 . S
C530 H506 0.950 . S
C530 C525 1.363 . S
C530 C529 1.415 . S
C531 H507 0.951 . S
C531 C532 1.366 . S
C531 C533 1.388 . S
C532 C531 1.366 . S
C532 C536 1.385 . S
C533 H508 0.951 . S
C533 C531 1.388 . S
C533 C534 1.366 . S
C534 C533 1.366 . S
C534 C535 1.414 . S
C534 C537 1.499 . S
C535 H509 0.950 . S
C535 C534 1.414 . S
C535 C536 1.374 . S
C536 H510 0.950 . S
C536 C532 1.385 . S
C536 C535 1.374 . S
C537 C534 1.499 . S
C537 C538 1.373 . S
C537 C539 1.389 . S
C538 H511 0.950 . S
C538 C524 1.377 . S
C538 C537 1.373 . S
C539 C523 1.377 . S
C539 C537 1.389 . S
C539 C540 1.524 . S
C540 C539 1.524 . S
C540 C541 1.397 . S
C540 C545 1.363 . S
C541 H512 0.950 . S
C541 C540 1.397 . S
C541 C542 1.334 . S
C542 H513 0.950 . S
C542 C541 1.334 . S
C542 C543 1.287 . S
C543 C542 1.287 . S
C543 C544 1.524 . S
C543 H546 0.999 . S
C544 H514 0.950 . S
C544 C543 1.524 . S
C544 C545 1.415 . S
C545 H515 0.950 . S
C545 C540 1.363 . S
C545 C544 1.415 . S
H546 C543 0.999 . S
H547 C528 0.913 . S
H548 C566 0.951 . S
H549 C568 0.951 . S
H550 C570 0.950 . S
H551 C571 0.950 . S
H552 C573 0.950 . S
H553 C576 0.950 . S
H554 C577 0.950 . S
H555 C579 0.950 . S
H556 C580 0.950 . S
H557 C581 0.951 . S
H558 C583 0.951 . S
H559 C585 0.950 . S
H560 C586 0.950 . S
H561 C588 0.950 . S
H562 C591 0.950 . S
H563 C592 0.950 . S
H564 C594 0.950 . S
H565 C595 0.950 . S
C566 H548 0.951 . S
C566 C567 1.366 . S
C566 C568 1.388 . S
C567 C566 1.366 . S
C567 C571 1.385 . S
C568 H549 0.951 . S
C568 C566 1.388 . S
C568 C569 1.366 . S
C569 C568 1.366 . S
C569 C570 1.414 . S
C569 C572 1.499 . S
C570 H550 0.950 . S
C570 C569 1.414 . S
C570 C571 1.374 . S
C571 H551 0.950 . S
C571 C567 1.385 . S
C571 C570 1.374 . S
C572 C569 1.499 . S
C572 C573 1.373 . S
C572 C574 1.389 . S
C573 H552 0.950 . S
C573 C572 1.373 . S
C573 C589 1.377 . S
C574 C572 1.389 . S
C574 C575 1.524 . S
C574 C588 1.377 . S
C575 C574 1.524 . S
C575 C576 1.397 . S
C575 C580 1.363 . S
C576 H553 0.950 . S
C576 C575 1.397 . S
C576 C577 1.334 . S
C577 H554 0.950 . S
C577 C576 1.334 . S
C577 C578 1.287 1_655 S
C578 C577 1.287 1_455 S
C578 C579 1.524 . S
C578 H597 0.913 . S
C579 H555 0.950 . S
C579 C578 1.524 . S
C579 C580 1.415 1_455 S
C580 H556 0.950 . S
C580 C575 1.363 . S
C580 C579 1.415 1_655 S
C581 H557 0.951 . S
C581 C582 1.366 . S
C581 C583 1.388 . S
C582 C581 1.366 . S
C582 C586 1.385 . S
C583 H558 0.951 . S
C583 C581 1.388 . S
C583 C584 1.366 . S
C584 C583 1.366 . S
C584 C585 1.414 . S
C584 C587 1.499 . S
C585 H559 0.950 . S
C585 C584 1.414 . S
C585 C586 1.374 . S
C586 H560 0.950 . S
C586 C582 1.385 . S
C586 C585 1.374 . S
C587 C584 1.499 . S
C587 C588 1.373 . S
C587 C589 1.389 . S
C588 H561 0.950 . S
C588 C574 1.377 . S
C588 C587 1.373 . S
C589 C573 1.377 . S
C589 C587 1.389 . S
C589 C590 1.524 . S
C590 C589 1.524 . S
C590 C591 1.397 . S
C590 C595 1.363 . S
C591 H562 0.950 . S
C591 C590 1.397 . S
C591 C592 1.334 . S
C592 H563 0.950 . S
C592 C591 1.334 . S
C592 C593 1.287 . S
C593 C592 1.287 . S
C593 C594 1.524 . S
C593 H596 0.999 . S
C594 H564 0.950 . S
C594 C593 1.524 . S
C594 C595 1.415 . S
C595 H565 0.950 . S
C595 C590 1.363 . S
C595 C594 1.415 . S
H596 C593 0.999 . S
H597 C578 0.913 . S
H598 C616 0.951 . S
H599 C618 0.951 . S
H600 C620 0.950 . S
H601 C621 0.950 . S
H602 C623 0.950 . S
H603 C626 0.950 . S
H604 C627 0.950 . S
H605 C629 0.950 . S
H606 C630 0.950 . S
H607 C631 0.951 . S
H608 C633 0.951 . S
H609 C635 0.950 . S
H610 C636 0.950 . S
H611 C638 0.950 . S
H612 C641 0.950 . S
H613 C642 0.950 . S
H614 C644 0.950 . S
H615 C645 0.950 . S
C616 H598 0.951 . S
C616 C617 1.366 . S
C616 C618 1.388 . S
C617 C616 1.366 . S
C617 C621 1.385 . S
C618 H599 0.951 . S
C618 C616 1.388 . S
C618 C619 1.366 . S
C619 C618 1.366 . S
C619 C620 1.414 . S
C619 C622 1.499 . S
C620 H600 0.950 . S
C620 C619 1.414 . S
C620 C621 1.374 . S
C621 H601 0.950 . S
C621 C617 1.385 . S
C621 C620 1.374 . S
C622 C619 1.499 . S
C622 C623 1.373 . S
C622 C624 1.389 . S
C623 H602 0.950 . S
C623 C622 1.373 . S
C623 C639 1.377 . S
C624 C622 1.389 . S
C624 C625 1.524 . S
C624 C638 1.377 . S
C625 C624 1.524 . S
C625 C626 1.397 . S
C625 C630 1.363 . S
C626 H603 0.950 . S
C626 C625 1.397 . S
C626 C627 1.334 . S
C627 H604 0.950 . S
C627 C626 1.334 . S
C627 C628 1.287 . S
C628 C627 1.287 . S
C628 C629 1.524 . S
C628 H647 0.913 . S
C629 H605 0.950 . S
C629 C628 1.524 . S
C629 C630 1.415 . S
C630 H606 0.950 . S
C630 C625 1.363 . S
C630 C629 1.415 . S
C631 H607 0.951 . S
C631 C632 1.366 . S
C631 C633 1.388 . S
C632 C631 1.366 . S
C632 C636 1.385 . S
C633 H608 0.951 . S
C633 C631 1.388 . S
C633 C634 1.366 . S
C634 C633 1.366 . S
C634 C635 1.414 . S
C634 C637 1.499 . S
C635 H609 0.950 . S
C635 C634 1.414 . S
C635 C636 1.374 . S
C636 H610 0.950 . S
C636 C632 1.385 . S
C636 C635 1.374 . S
C637 C634 1.499 . S
C637 C638 1.373 . S
C637 C639 1.389 . S
C638 H611 0.950 . S
C638 C624 1.377 . S
C638 C637 1.373 . S
C639 C623 1.377 . S
C639 C637 1.389 . S
C639 C640 1.524 . S
C640 C639 1.524 . S
C640 C641 1.397 . S
C640 C645 1.363 . S
C641 H612 0.950 . S
C641 C640 1.397 . S
C641 C642 1.334 . S
C642 H613 0.950 . S
C642 C641 1.334 . S
C642 C643 1.287 . S
C643 C642 1.287 . S
C643 C644 1.524 . S
C643 H646 0.999 . S
C644 H614 0.950 . S
C644 C643 1.524 . S
C644 C645 1.415 . S
C645 H615 0.950 . S
C645 C640 1.363 . S
C645 C644 1.415 . S
H646 C643 0.999 . S
H647 C628 0.913 . S
H648 C666 0.951 . S
H649 C668 0.951 . S
H650 C670 0.950 . S
H651 C671 0.950 . S
H652 C673 0.950 . S
H653 C676 0.950 . S
H654 C677 0.950 . S
H655 C679 0.950 . S
H656 C680 0.950 . S
H657 C681 0.951 . S
H658 C683 0.951 . S
H659 C685 0.950 . S
H660 C686 0.950 . S
H661 C688 0.950 . S
H662 C691 0.950 . S
H663 C692 0.950 . S
H664 C694 0.950 . S
H665 C695 0.950 . S
C666 H648 0.951 . S
C666 C667 1.366 . S
C666 C668 1.388 1_565 S
C667 C666 1.366 . S
C667 C671 1.385 . S
C668 H649 0.951 . S
C668 C666 1.388 1_545 S
C668 C669 1.366 . S
C669 C668 1.366 . S
C669 C670 1.414 . S
C669 C672 1.499 . S
C670 H650 0.950 . S
C670 C669 1.414 . S
C670 C671 1.374 1_545 S
C671 H651 0.950 . S
C671 C667 1.385 . S
C671 C670 1.374 1_565 S
C672 C669 1.499 . S
C672 C673 1.373 . S
C672 C674 1.389 . S
C673 H652 0.950 . S
C673 C672 1.373 . S
C673 C689 1.377 . S
C674 C672 1.389 . S
C674 C675 1.524 . S
C674 C688 1.377 . S
C675 C674 1.524 . S
C675 C676 1.397 . S
C675 C680 1.363 . S
C676 H653 0.950 . S
C676 C675 1.397 . S
C676 C677 1.334 . S
C677 H654 0.950 . S
C677 C676 1.334 . S
C677 C678 1.287 . S
C678 C677 1.287 . S
C678 C679 1.524 . S
C678 H697 0.913 . S
C679 H655 0.950 . S
C679 C678 1.524 . S
C679 C680 1.415 . S
C680 H656 0.950 . S
C680 C675 1.363 . S
C680 C679 1.415 . S
C681 H657 0.951 . S
C681 C682 1.366 . S
C681 C683 1.388 . S
C682 C681 1.366 . S
C682 C686 1.385 . S
C683 H658 0.951 . S
C683 C681 1.388 . S
C683 C684 1.366 . S
C684 C683 1.366 . S
C684 C685 1.414 . S
C684 C687 1.499 . S
C685 H659 0.950 . S
C685 C684 1.414 . S
C685 C686 1.374 . S
C686 H660 0.950 . S
C686 C682 1.385 . S
C686 C685 1.374 . S
C687 C684 1.499 . S
C687 C688 1.373 . S
C687 C689 1.389 . S
C688 H661 0.950 . S
C688 C674 1.377 . S
C688 C687 1.373 . S
C689 C673 1.377 . S
C689 C687 1.389 . S
C689 C690 1.524 . S
C690 C689 1.524 . S
C690 C691 1.397 . S
C690 C695 1.363 . S
C691 H662 0.950 . S
C691 C690 1.397 . S
C691 C692 1.334 . S
C692 H663 0.950 . S
C692 C691 1.334 . S
C692 C693 1.287 . S
C693 C692 1.287 . S
C693 C694 1.524 . S
C693 H696 0.999 . S
C694 H664 0.950 . S
C694 C693 1.524 . S
C694 C695 1.415 . S
C695 H665 0.950 . S
C695 C690 1.363 . S
C695 C694 1.415 . S
H696 C693 0.999 . S
H697 C678 0.913 . S
H698 C716 0.951 . S
H699 C718 0.951 . S
H700 C720 0.950 . S
H701 C721 0.950 . S
H702 C723 0.950 . S
H703 C726 0.950 . S
H704 C727 0.950 . S
H705 C729 0.950 . S
H706 C730 0.950 . S
H707 C731 0.951 . S
H708 C733 0.951 . S
H709 C735 0.950 . S
H710 C736 0.950 . S
H711 C738 0.950 . S
H712 C741 0.950 . S
H713 C742 0.950 . S
H714 C744 0.950 . S
H715 C745 0.950 . S
C716 H698 0.951 . S
C716 C717 1.366 . S
C716 C718 1.388 1_565 S
C717 C716 1.366 . S
C717 C721 1.385 . S
C718 H699 0.951 . S
C718 C716 1.388 1_545 S
C718 C719 1.366 . S
C719 C718 1.366 . S
C719 C720 1.414 . S
C719 C722 1.499 . S
C720 H700 0.950 . S
C720 C719 1.414 . S
C720 C721 1.374 1_545 S
C721 H701 0.950 . S
C721 C717 1.385 . S
C721 C720 1.374 1_565 S
C722 C719 1.499 . S
C722 C723 1.373 . S
C722 C724 1.389 . S
C723 H702 0.950 . S
C723 C722 1.373 . S
C723 C739 1.377 . S
C724 C722 1.389 . S
C724 C725 1.524 . S
C724 C738 1.377 . S
C725 C724 1.524 . S
C725 C726 1.397 . S
C725 C730 1.363 . S
C726 H703 0.950 . S
C726 C725 1.397 . S
C726 C727 1.334 . S
C727 H704 0.950 . S
C727 C726 1.334 . S
C727 C728 1.287 . S
C728 C727 1.287 . S
C728 C729 1.524 . S
C728 H747 0.913 . S
C729 H705 0.950 . S
C729 C728 1.524 . S
C729 C730 1.415 . S
C730 H706 0.950 . S
C730 C725 1.363 . S
C730 C729 1.415 . S
C731 H707 0.951 . S
C731 C732 1.366 . S
C731 C733 1.388 . S
C732 C731 1.366 . S
C732 C736 1.385 . S
C733 H708 0.951 . S
C733 C731 1.388 . S
C733 C734 1.366 . S
C734 C733 1.366 . S
C734 C735 1.414 . S
C734 C737 1.499 . S
C735 H709 0.950 . S
C735 C734 1.414 . S
C735 C736 1.374 . S
C736 H710 0.950 . S
C736 C732 1.385 . S
C736 C735 1.374 . S
C737 C734 1.499 . S
C737 C738 1.373 . S
C737 C739 1.389 . S
C738 H711 0.950 . S
C738 C724 1.377 . S
C738 C737 1.373 . S
C739 C723 1.377 . S
C739 C737 1.389 . S
C739 C740 1.524 . S
C740 C739 1.524 . S
C740 C741 1.397 . S
C740 C745 1.363 . S
C741 H712 0.950 . S
C741 C740 1.397 . S
C741 C742 1.334 . S
C742 H713 0.950 . S
C742 C741 1.334 . S
C742 C743 1.287 . S
C743 C742 1.287 . S
C743 C744 1.524 . S
C743 H746 0.999 . S
C744 H714 0.950 . S
C744 C743 1.524 . S
C744 C745 1.415 . S
C745 H715 0.950 . S
C745 C740 1.363 . S
C745 C744 1.415 . S
H746 C743 0.999 . S
H747 C728 0.913 . S
H748 C766 0.951 . S
H749 C768 0.951 . S
H750 C770 0.950 . S
H751 C771 0.950 . S
H752 C773 0.950 . S
H753 C776 0.950 . S
H754 C777 0.950 . S
H755 C779 0.950 . S
H756 C780 0.950 . S
H757 C781 0.951 . S
H758 C783 0.951 . S
H759 C785 0.950 . S
H760 C786 0.950 . S
H761 C788 0.950 . S
H762 C791 0.950 . S
H763 C792 0.950 . S
H764 C794 0.950 1_455 S
H765 C795 0.950 . S
C766 H748 0.951 . S
C766 C767 1.366 . S
C766 C768 1.388 1_545 S
C767 C766 1.366 . S
C767 C771 1.385 . S
C768 H749 0.951 . S
C768 C766 1.388 1_565 S
C768 C769 1.366 . S
C769 C768 1.366 . S
C769 C770 1.414 . S
C769 C772 1.499 . S
C770 H750 0.950 . S
C770 C769 1.414 . S
C770 C771 1.374 1_565 S
C771 H751 0.950 . S
C771 C767 1.385 . S
C771 C770 1.374 1_545 S
C772 C769 1.499 . S
C772 C773 1.373 . S
C772 C774 1.389 . S
C773 H752 0.950 . S
C773 C772 1.373 . S
C773 C789 1.377 . S
C774 C772 1.389 . S
C774 C775 1.524 . S
C774 C788 1.377 . S
C775 C774 1.524 . S
C775 C776 1.397 . S
C775 C780 1.363 . S
C776 H753 0.950 . S
C776 C775 1.397 . S
C776 C777 1.334 . S
C777 H754 0.950 . S
C777 C776 1.334 . S
C777 C778 1.287 . S
C778 C777 1.287 . S
C778 C779 1.524 . S
C778 H797 0.913 . S
C779 H755 0.950 . S
C779 C778 1.524 . S
C779 C780 1.415 . S
C780 H756 0.950 . S
C780 C775 1.363 . S
C780 C779 1.415 . S
C781 H757 0.951 . S
C781 C782 1.366 . S
C781 C783 1.388 . S
C782 C781 1.366 . S
C782 C786 1.385 . S
C783 H758 0.951 . S
C783 C781 1.388 . S
C783 C784 1.366 . S
C784 C783 1.366 . S
C784 C785 1.414 . S
C784 C787 1.499 . S
C785 H759 0.950 . S
C785 C784 1.414 . S
C785 C786 1.374 . S
C786 H760 0.950 . S
C786 C782 1.385 . S
C786 C785 1.374 . S
C787 C784 1.499 . S
C787 C788 1.373 . S
C787 C789 1.389 . S
C788 H761 0.950 . S
C788 C774 1.377 . S
C788 C787 1.373 . S
C789 C773 1.377 . S
C789 C787 1.389 . S
C789 C790 1.524 . S
C790 C789 1.524 . S
C790 C791 1.397 . S
C790 C795 1.363 . S
C791 H762 0.950 . S
C791 C790 1.397 . S
C791 C792 1.334 . S
C792 H763 0.950 . S
C792 C791 1.334 . S
C792 C793 1.287 . S
C793 C792 1.287 . S
C793 C794 1.524 . S
C793 H796 0.999 . S
C794 H764 0.950 1_655 S
C794 C793 1.524 . S
C794 C795 1.415 . S
C795 H765 0.950 . S
C795 C790 1.363 . S
C795 C794 1.415 . S
H796 C793 0.999 . S
H797 C778 0.913 . S
H798 C816 0.951 . S
H799 C818 0.951 . S
H800 C820 0.950 . S
H801 C821 0.950 . S
H802 C823 0.950 . S
H803 C826 0.950 . S
H804 C827 0.950 . S
H805 C829 0.950 . S
H806 C830 0.950 . S
H807 C831 0.951 . S
H808 C833 0.951 . S
H809 C835 0.950 . S
H810 C836 0.950 . S
H811 C838 0.950 . S
H812 C841 0.950 . S
H813 C842 0.950 . S
H814 C844 0.950 . S
H815 C845 0.950 . S
C816 H798 0.951 . S
C816 C817 1.366 . S
C816 C818 1.388 . S
C817 C816 1.366 . S
C817 C821 1.385 . S
C818 H799 0.951 . S
C818 C816 1.388 . S
C818 C819 1.366 . S
C819 C818 1.366 . S
C819 C820 1.414 . S
C819 C822 1.499 . S
C820 H800 0.950 . S
C820 C819 1.414 . S
C820 C821 1.374 . S
C821 H801 0.950 . S
C821 C817 1.385 . S
C821 C820 1.374 . S
C822 C819 1.499 . S
C822 C823 1.373 . S
C822 C824 1.389 . S
C823 H802 0.950 . S
C823 C822 1.373 . S
C823 C839 1.377 . S
C824 C822 1.389 . S
C824 C825 1.524 . S
C824 C838 1.377 . S
C825 C824 1.524 . S
C825 C826 1.397 . S
C825 C830 1.363 . S
C826 H803 0.950 . S
C826 C825 1.397 . S
C826 C827 1.334 . S
C827 H804 0.950 . S
C827 C826 1.334 . S
C827 C828 1.287 . S
C828 C827 1.287 . S
C828 C829 1.524 . S
C828 H847 0.913 . S
C829 H805 0.950 . S
C829 C828 1.524 . S
C829 C830 1.415 . S
C830 H806 0.950 . S
C830 C825 1.363 . S
C830 C829 1.415 . S
C831 H807 0.951 . S
C831 C832 1.366 . S
C831 C833 1.388 1_545 S
C832 C831 1.366 . S
C832 C836 1.385 . S
C833 H808 0.951 . S
C833 C831 1.388 1_565 S
C833 C834 1.366 . S
C834 C833 1.366 . S
C834 C835 1.414 . S
C834 C837 1.499 . S
C835 H809 0.950 . S
C835 C834 1.414 . S
C835 C836 1.374 1_565 S
C836 H810 0.950 . S
C836 C832 1.385 . S
C836 C835 1.374 1_545 S
C837 C834 1.499 . S
C837 C838 1.373 . S
C837 C839 1.389 . S
C838 H811 0.950 . S
C838 C824 1.377 . S
C838 C837 1.373 . S
C839 C823 1.377 . S
C839 C837 1.389 . S
C839 C840 1.524 . S
C840 C839 1.524 . S
C840 C841 1.397 . S
C840 C845 1.363 . S
C841 H812 0.950 . S
C841 C840 1.397 . S
C841 C842 1.334 . S
C842 H813 0.950 . S
C842 C841 1.334 . S
C842 C843 1.287 . S
C843 C842 1.287 . S
C843 C844 1.524 . S
C843 H846 0.999 . S
C844 H814 0.950 . S
C844 C843 1.524 . S
C844 C845 1.415 . S
C845 H815 0.950 . S
C845 C840 1.363 . S
C845 C844 1.415 . S
H846 C843 0.999 . S
H847 C828 0.913 . S
H848 C866 0.951 . S
H849 C868 0.951 . S
H850 C870 0.950 . S
H851 C871 0.950 . S
H852 C873 0.950 . S
H853 C876 0.950 . S
H854 C877 0.950 . S
H855 C879 0.950 . S
H856 C880 0.950 . S
H857 C881 0.951 . S
H858 C883 0.951 . S
H859 C885 0.950 . S
H860 C886 0.950 . S
H861 C888 0.950 . S
H862 C891 0.950 . S
H863 C892 0.950 . S
H864 C894 0.950 . S
H865 C895 0.950 . S
C866 H848 0.951 . S
C866 C867 1.366 . S
C866 C868 1.388 . S
C867 C866 1.366 . S
C867 C871 1.385 . S
C868 H849 0.951 . S
C868 C866 1.388 . S
C868 C869 1.366 . S
C869 C868 1.366 . S
C869 C870 1.414 . S
C869 C872 1.499 . S
C870 H850 0.950 . S
C870 C869 1.414 . S
C870 C871 1.374 . S
C871 H851 0.950 . S
C871 C867 1.385 . S
C871 C870 1.374 . S
C872 C869 1.499 . S
C872 C873 1.373 . S
C872 C874 1.389 . S
C873 H852 0.950 . S
C873 C872 1.373 . S
C873 C889 1.377 . S
C874 C872 1.389 . S
C874 C875 1.524 . S
C874 C888 1.377 . S
C875 C874 1.524 . S
C875 C876 1.397 . S
C875 C880 1.363 . S
C876 H853 0.950 . S
C876 C875 1.397 . S
C876 C877 1.334 . S
C877 H854 0.950 . S
C877 C876 1.334 . S
C877 C878 1.287 . S
C878 C877 1.287 . S
C878 C879 1.524 . S
C878 H897 0.913 . S
C879 H855 0.950 . S
C879 C878 1.524 . S
C879 C880 1.415 . S
C880 H856 0.950 . S
C880 C875 1.363 . S
C880 C879 1.415 . S
C881 H857 0.951 . S
C881 C882 1.366 . S
C881 C883 1.388 . S
C882 C881 1.366 . S
C882 C886 1.385 . S
C883 H858 0.951 . S
C883 C881 1.388 . S
C883 C884 1.366 . S
C884 C883 1.366 . S
C884 C885 1.414 . S
C884 C887 1.499 . S
C885 H859 0.950 . S
C885 C884 1.414 . S
C885 C886 1.374 . S
C886 H860 0.950 . S
C886 C882 1.385 . S
C886 C885 1.374 . S
C887 C884 1.499 . S
C887 C888 1.373 . S
C887 C889 1.389 . S
C888 H861 0.950 . S
C888 C874 1.377 . S
C888 C887 1.373 . S
C889 C873 1.377 . S
C889 C887 1.389 . S
C889 C890 1.524 . S
C890 C889 1.524 . S
C890 C891 1.397 . S
C890 C895 1.363 . S
C891 H862 0.950 . S
C891 C890 1.397 . S
C891 C892 1.334 . S
C892 H863 0.950 . S
C892 C891 1.334 . S
C892 C893 1.287 . S
C893 C892 1.287 . S
C893 C894 1.524 . S
C893 H896 0.999 . S
C894 H864 0.950 . S
C894 C893 1.524 . S
C894 C895 1.415 . S
C895 H865 0.950 . S
C895 C890 1.363 . S
C895 C894 1.415 . S
H896 C893 0.999 . S
H897 C878 0.913 . S
H898 C916 0.951 . S
H899 C918 0.951 . S
H900 C920 0.950 . S
H901 C921 0.950 . S
H902 C923 0.950 . S
H903 C926 0.950 . S
H904 C927 0.950 . S
H905 C929 0.950 . S
H906 C930 0.950 . S
H907 C931 0.951 . S
H908 C933 0.951 . S
H909 C935 0.950 . S
H910 C936 0.950 . S
H911 C938 0.950 . S
H912 C941 0.950 . S
H913 C942 0.950 . S
H914 C944 0.950 . S
H915 C945 0.950 . S
C916 H898 0.951 . S
C916 C917 1.366 . S
C916 C918 1.388 . S
C917 C916 1.366 . S
C917 C921 1.385 . S
C918 H899 0.951 . S
C918 C916 1.388 . S
C918 C919 1.366 . S
C919 C918 1.366 . S
C919 C920 1.414 . S
C919 C922 1.499 . S
C920 H900 0.950 . S
C920 C919 1.414 . S
C920 C921 1.374 . S
C921 H901 0.950 . S
C921 C917 1.385 . S
C921 C920 1.374 . S
C922 C919 1.499 . S
C922 C923 1.373 . S
C922 C924 1.389 . S
C923 H902 0.950 . S
C923 C922 1.373 . S
C923 C939 1.377 . S
C924 C922 1.389 . S
C924 C925 1.524 . S
C924 C938 1.377 . S
C925 C924 1.524 . S
C925 C926 1.397 . S
C925 C930 1.363 . S
C926 H903 0.950 . S
C926 C925 1.397 . S
C926 C927 1.334 . S
C927 H904 0.950 . S
C927 C926 1.334 . S
C927 C928 1.287 . S
C928 C927 1.287 . S
C928 C929 1.524 . S
C928 H947 0.913 . S
C929 H905 0.950 . S
C929 C928 1.524 . S
C929 C930 1.415 . S
C930 H906 0.950 . S
C930 C925 1.363 . S
C930 C929 1.415 . S
C931 H907 0.951 . S
C931 C932 1.366 . S
C931 C933 1.388 . S
C932 C931 1.366 . S
C932 C936 1.385 . S
C933 H908 0.951 . S
C933 C931 1.388 . S
C933 C934 1.366 . S
C934 C933 1.366 . S
C934 C935 1.414 . S
C934 C937 1.499 . S
C935 H909 0.950 . S
C935 C934 1.414 . S
C935 C936 1.374 . S
C936 H910 0.950 . S
C936 C932 1.385 . S
C936 C935 1.374 . S
C937 C934 1.499 . S
C937 C938 1.373 . S
C937 C939 1.389 . S
C938 H911 0.950 . S
C938 C924 1.377 . S
C938 C937 1.373 . S
C939 C923 1.377 . S
C939 C937 1.389 . S
C939 C940 1.524 . S
C940 C939 1.524 . S
C940 C941 1.397 . S
C940 C945 1.363 . S
C941 H912 0.950 . S
C941 C940 1.397 . S
C941 C942 1.334 . S
C942 H913 0.950 . S
C942 C941 1.334 . S
C942 C943 1.287 . S
C943 C942 1.287 . S
C943 C944 1.524 . S
C943 H946 0.999 . S
C944 H914 0.950 . S
C944 C943 1.524 . S
C944 C945 1.415 . S
C945 H915 0.950 . S
C945 C940 1.363 . S
C945 C944 1.415 . S
H946 C943 0.999 . S
H947 C928 0.913 . S
H948 C966 0.951 . S
H949 C968 0.951 . S
H950 C970 0.950 . S
H951 C971 0.950 . S
H952 C973 0.950 . S
H953 C976 0.950 . S
H954 C977 0.950 . S
H955 C979 0.950 . S
H956 C980 0.950 . S
H957 C981 0.951 . S
H958 C983 0.951 . S
H959 C985 0.950 . S
H960 C986 0.950 . S
H961 C988 0.950 . S
H962 C991 0.950 . S
H963 C992 0.950 . S
H964 C994 0.950 . S
H965 C995 0.950 . S
C966 H948 0.951 . S
C966 C967 1.366 . S
C966 C968 1.388 . S
C967 C966 1.366 . S
C967 C971 1.385 . S
C968 H949 0.951 . S
C968 C966 1.388 . S
C968 C969 1.366 . S
C969 C968 1.366 . S
C969 C970 1.414 . S
C969 C972 1.499 . S
C970 H950 0.950 . S
C970 C969 1.414 . S
C970 C971 1.374 . S
C971 H951 0.950 . S
C971 C967 1.385 . S
C971 C970 1.374 . S
C972 C969 1.499 . S
C972 C973 1.373 . S
C972 C974 1.389 . S
C973 H952 0.950 . S
C973 C972 1.373 . S
C973 C989 1.377 . S
C974 C972 1.389 . S
C974 C975 1.524 . S
C974 C988 1.377 . S
C975 C974 1.524 . S
C975 C976 1.397 . S
C975 C980 1.363 . S
C976 H953 0.950 . S
C976 C975 1.397 . S
C976 C977 1.334 . S
C977 H954 0.950 . S
C977 C976 1.334 . S
C977 C978 1.287 . S
C978 C977 1.287 . S
C978 C979 1.524 . S
C978 H997 0.913 . S
C979 H955 0.950 . S
C979 C978 1.524 . S
C979 C980 1.415 . S
C980 H956 0.950 . S
C980 C975 1.363 . S
C980 C979 1.415 . S
C981 H957 0.951 . S
C981 C982 1.366 . S
C981 C983 1.388 . S
C982 C981 1.366 . S
C982 C986 1.385 . S
C983 H958 0.951 . S
C983 C981 1.388 . S
C983 C984 1.366 . S
C984 C983 1.366 . S
C984 C985 1.414 . S
C984 C987 1.499 . S
C985 H959 0.950 . S
C985 C984 1.414 . S
C985 C986 1.374 . S
C986 H960 0.950 . S
C986 C982 1.385 . S
C986 C985 1.374 . S
C987 C984 1.499 . S
C987 C988 1.373 . S
C987 C989 1.389 . S
C988 H961 0.950 . S
C988 C974 1.377 . S
C988 C987 1.373 . S
C989 C973 1.377 . S
C989 C987 1.389 . S
C989 C990 1.524 . S
C990 C989 1.524 . S
C990 C991 1.397 . S
C990 C995 1.363 . S
C991 H962 0.950 . S
C991 C990 1.397 . S
C991 C992 1.334 . S
C992 H963 0.950 . S
C992 C991 1.334 . S
C992 C993 1.287 . S
C993 C992 1.287 . S
C993 C994 1.524 . S
C993 H996 0.999 . S
C994 H964 0.950 . S
C994 C993 1.524 . S
C994 C995 1.415 . S
C995 H965 0.950 . S
C995 C990 1.363 . S
C995 C994 1.415 . S
H996 C993 0.999 . S
H997 C978 0.913 . S
H998 C1016 0.951 . S
H999 C1018 0.951 . S
H1000 C1020 0.950 . S
H1001 C1021 0.950 . S
H1002 C1023 0.950 . S
H1003 C1026 0.950 . S
H1004 C1027 0.950 . S
H1005 C1029 0.950 . S
H1006 C1030 0.950 . S
H1007 C1031 0.951 . S
H1008 C1033 0.951 . S
H1009 C1035 0.950 . S
H1010 C1036 0.950 . S
H1011 C1038 0.950 . S
H1012 C1041 0.950 . S
H1013 C1042 0.950 . S
H1014 C1044 0.950 . S
H1015 C1045 0.950 . S
C1016 H998 0.951 . S
C1016 C1017 1.366 . S
C1016 C1018 1.388 . S
C1017 C1016 1.366 . S
C1017 C1021 1.385 . S
C1018 H999 0.951 . S
C1018 C1016 1.388 . S
C1018 C1019 1.366 . S
C1019 C1018 1.366 . S
C1019 C1020 1.414 . S
C1019 C1022 1.499 . S
C1020 H1000 0.950 . S
C1020 C1019 1.414 . S
C1020 C1021 1.374 . S
C1021 H1001 0.950 . S
C1021 C1017 1.385 . S
C1021 C1020 1.374 . S
C1022 C1019 1.499 . S
C1022 C1023 1.373 . S
C1022 C1024 1.389 . S
C1023 H1002 0.950 . S
C1023 C1022 1.373 . S
C1023 C1039 1.377 . S
C1024 C1022 1.389 . S
C1024 C1025 1.524 . S
C1024 C1038 1.377 . S
C1025 C1024 1.524 . S
C1025 C1026 1.397 . S
C1025 C1030 1.363 . S
C1026 H1003 0.950 . S
C1026 C1025 1.397 . S
C1026 C1027 1.334 . S
C1027 H1004 0.950 . S
C1027 C1026 1.334 . S
C1027 C1028 1.287 . S
C1028 C1027 1.287 . S
C1028 C1029 1.524 . S
C1028 H1047 0.913 . S
C1029 H1005 0.950 . S
C1029 C1028 1.524 . S
C1029 C1030 1.415 . S
C1030 H1006 0.950 . S
C1030 C1025 1.363 . S
C1030 C1029 1.415 . S
C1031 H1007 0.951 . S
C1031 C1032 1.366 . S
C1031 C1033 1.388 . S
C1032 C1031 1.366 . S
C1032 C1036 1.385 . S
C1033 H1008 0.951 . S
C1033 C1031 1.388 . S
C1033 C1034 1.366 . S
C1034 C1033 1.366 . S
C1034 C1035 1.414 . S
C1034 C1037 1.499 . S
C1035 H1009 0.950 . S
C1035 C1034 1.414 . S
C1035 C1036 1.374 . S
C1036 H1010 0.950 . S
C1036 C1032 1.385 . S
C1036 C1035 1.374 . S
C1037 C1034 1.499 . S
C1037 C1038 1.373 . S
C1037 C1039 1.389 . S
C1038 H1011 0.950 . S
C1038 C1024 1.377 . S
C1038 C1037 1.373 . S
C1039 C1023 1.377 . S
C1039 C1037 1.389 . S
C1039 C1040 1.524 . S
C1040 C1039 1.524 . S
C1040 C1041 1.397 . S
C1040 C1045 1.363 . S
C1041 H1012 0.950 . S
C1041 C1040 1.397 . S
C1041 C1042 1.334 . S
C1042 H1013 0.950 . S
C1042 C1041 1.334 . S
C1042 C1043 1.287 . S
C1043 C1042 1.287 . S
C1043 C1044 1.524 . S
C1043 H1046 0.999 . S
C1044 H1014 0.950 . S
C1044 C1043 1.524 . S
C1044 C1045 1.415 . S
C1045 H1015 0.950 . S
C1045 C1040 1.363 . S
C1045 C1044 1.415 . S
H1046 C1043 0.999 . S
H1047 C1028 0.913 . S
H1048 C1066 0.951 . S
H1049 C1068 0.951 . S
H1050 C1070 0.950 . S
H1051 C1071 0.950 . S
H1052 C1073 0.950 . S
H1053 C1076 0.950 . S
H1054 C1077 0.950 . S
H1055 C1079 0.950 . S
H1056 C1080 0.950 . S
H1057 C1081 0.951 . S
H1058 C1083 0.951 . S
H1059 C1085 0.950 . S
H1060 C1086 0.950 . S
H1061 C1088 0.950 . S
H1062 C1091 0.950 . S
H1063 C1092 0.950 . S
H1064 C1094 0.950 . S
H1065 C1095 0.950 . S
C1066 H1048 0.951 . S
C1066 C1067 1.366 . S
C1066 C1068 1.388 . S
C1067 C1066 1.366 . S
C1067 C1071 1.385 . S
C1068 H1049 0.951 . S
C1068 C1066 1.388 . S
C1068 C1069 1.366 . S
C1069 C1068 1.366 . S
C1069 C1070 1.414 . S
C1069 C1072 1.499 . S
C1070 H1050 0.950 . S
C1070 C1069 1.414 . S
C1070 C1071 1.374 . S
C1071 H1051 0.950 . S
C1071 C1067 1.385 . S
C1071 C1070 1.374 . S
C1072 C1069 1.499 . S
C1072 C1073 1.373 . S
C1072 C1074 1.389 . S
C1073 H1052 0.950 . S
C1073 C1072 1.373 . S
C1073 C1089 1.377 . S
C1074 C1072 1.389 . S
C1074 C1075 1.524 . S
C1074 C1088 1.377 . S
C1075 C1074 1.524 . S
C1075 C1076 1.397 . S
C1075 C1080 1.363 . S
C1076 H1053 0.950 . S
C1076 C1075 1.397 . S
C1076 C1077 1.334 . S
C1077 H1054 0.950 . S
C1077 C1076 1.334 . S
C1077 C1078 1.287 . S
C1078 C1077 1.287 . S
C1078 C1079 1.524 . S
C1078 H1097 0.913 . S
C1079 H1055 0.950 . S
C1079 C1078 1.524 . S
C1079 C1080 1.415 . S
C1080 H1056 0.950 . S
C1080 C1075 1.363 . S
C1080 C1079 1.415 . S
C1081 H1057 0.951 . S
C1081 C1082 1.366 . S
C1081 C1083 1.388 1_565 S
C1082 C1081 1.366 . S
C1082 C1086 1.385 . S
C1083 H1058 0.951 . S
C1083 C1081 1.388 1_545 S
C1083 C1084 1.366 . S
C1084 C1083 1.366 . S
C1084 C1085 1.414 . S
C1084 C1087 1.499 . S
C1085 H1059 0.950 . S
C1085 C1084 1.414 . S
C1085 C1086 1.374 1_545 S
C1086 H1060 0.950 . S
C1086 C1082 1.385 . S
C1086 C1085 1.374 1_565 S
C1087 C1084 1.499 . S
C1087 C1088 1.373 . S
C1087 C1089 1.389 . S
C1088 H1061 0.950 . S
C1088 C1074 1.377 . S
C1088 C1087 1.373 . S
C1089 C1073 1.377 . S
C1089 C1087 1.389 . S
C1089 C1090 1.524 . S
C1090 C1089 1.524 . S
C1090 C1091 1.397 . S
C1090 C1095 1.363 . S
C1091 H1062 0.950 . S
C1091 C1090 1.397 . S
C1091 C1092 1.334 . S
C1092 H1063 0.950 . S
C1092 C1091 1.334 . S
C1092 C1093 1.287 . S
C1093 C1092 1.287 . S
C1093 C1094 1.524 . S
C1093 H1096 0.999 . S
C1094 H1064 0.950 . S
C1094 C1093 1.524 . S
C1094 C1095 1.415 . S
C1095 H1065 0.950 . S
C1095 C1090 1.363 . S
C1095 C1094 1.415 . S
H1096 C1093 0.999 . S
H1097 C1078 0.913 . S
H1098 C1116 0.951 . S
H1099 C1118 0.951 . S
H1100 C1120 0.950 . S
H1101 C1121 0.950 . S
H1102 C1123 0.950 . S
H1103 C1126 0.950 . S
H1104 C1127 0.950 . S
H1105 C1129 0.950 . S
H1106 C1130 0.950 . S
H1107 C1131 0.951 . S
H1108 C1133 0.951 . S
H1109 C1135 0.950 . S
H1110 C1136 0.950 . S
H1111 C1138 0.950 . S
H1112 C1141 0.950 . S
H1113 C1142 0.950 . S
H1114 C1144 0.950 . S
H1115 C1145 0.950 . S
C1116 H1098 0.951 . S
C1116 C1117 1.366 . S
C1116 C1118 1.388 1_565 S
C1117 C1116 1.366 . S
C1117 C1121 1.385 . S
C1118 H1099 0.951 . S
C1118 C1116 1.388 1_545 S
C1118 C1119 1.366 . S
C1119 C1118 1.366 . S
C1119 C1120 1.414 . S
C1119 C1122 1.499 . S
C1120 H1100 0.950 . S
C1120 C1119 1.414 . S
C1120 C1121 1.374 1_545 S
C1121 H1101 0.950 . S
C1121 C1117 1.385 . S
C1121 C1120 1.374 1_565 S
C1122 C1119 1.499 . S
C1122 C1123 1.373 . S
C1122 C1124 1.389 . S
C1123 H1102 0.950 . S
C1123 C1122 1.373 . S
C1123 C1139 1.377 . S
C1124 C1122 1.389 . S
C1124 C1125 1.524 . S
C1124 C1138 1.377 . S
C1125 C1124 1.524 . S
C1125 C1126 1.397 . S
C1125 C1130 1.363 . S
C1126 H1103 0.950 . S
C1126 C1125 1.397 . S
C1126 C1127 1.334 . S
C1127 H1104 0.950 . S
C1127 C1126 1.334 . S
C1127 C1128 1.287 . S
C1128 C1127 1.287 . S
C1128 C1129 1.524 . S
C1128 H1147 0.913 . S
C1129 H1105 0.950 . S
C1129 C1128 1.524 . S
C1129 C1130 1.415 . S
C1130 H1106 0.950 . S
C1130 C1125 1.363 . S
C1130 C1129 1.415 . S
C1131 H1107 0.951 . S
C1131 C1132 1.366 . S
C1131 C1133 1.388 . S
C1132 C1131 1.366 . S
C1132 C1136 1.385 . S
C1133 H1108 0.951 . S
C1133 C1131 1.388 . S
C1133 C1134 1.366 . S
C1134 C1133 1.366 . S
C1134 C1135 1.414 . S
C1134 C1137 1.499 . S
C1135 H1109 0.950 . S
C1135 C1134 1.414 . S
C1135 C1136 1.374 . S
C1136 H1110 0.950 . S
C1136 C1132 1.385 . S
C1136 C1135 1.374 . S
C1137 C1134 1.499 . S
C1137 C1138 1.373 . S
C1137 C1139 1.389 . S
C1138 H1111 0.950 . S
C1138 C1124 1.377 . S
C1138 C1137 1.373 . S
C1139 C1123 1.377 . S
C1139 C1137 1.389 . S
C1139 C1140 1.524 . S
C1140 C1139 1.524 . S
C1140 C1141 1.397 . S
C1140 C1145 1.363 . S
C1141 H1112 0.950 . S
C1141 C1140 1.397 . S
C1141 C1142 1.334 . S
C1142 H1113 0.950 . S
C1142 C1141 1.334 . S
C1142 C1143 1.287 . S
C1143 C1142 1.287 . S
C1143 C1144 1.524 . S
C1143 H1146 0.999 . S
C1144 H1114 0.950 . S
C1144 C1143 1.524 . S
C1144 C1145 1.415 . S
C1145 H1115 0.950 . S
C1145 C1140 1.363 . S
C1145 C1144 1.415 . S
H1146 C1143 0.999 . S
H1147 C1128 0.913 . S
H1148 C1166 0.951 . S
H1149 C1168 0.951 . S
H1150 C1170 0.950 . S
H1151 C1171 0.950 . S
H1152 C1173 0.950 . S
H1153 C1176 0.950 . S
H1154 C1177 0.950 . S
H1155 C1179 0.950 . S
H1156 C1180 0.950 . S
H1157 C1181 0.951 . S
H1158 C1183 0.951 . S
H1159 C1185 0.950 . S
H1160 C1186 0.950 . S
H1161 C1188 0.950 . S
H1162 C1191 0.950 . S
H1163 C1192 0.950 . S
H1164 C1194 0.950 . S
H1165 C1195 0.950 . S
C1166 H1148 0.951 . S
C1166 C1167 1.366 . S
C1166 C1168 1.388 . S
C1167 C1166 1.366 . S
C1167 C1171 1.385 . S
C1168 H1149 0.951 . S
C1168 C1166 1.388 . S
C1168 C1169 1.366 . S
C1169 C1168 1.366 . S
C1169 C1170 1.414 . S
C1169 C1172 1.499 . S
C1170 H1150 0.950 . S
C1170 C1169 1.414 . S
C1170 C1171 1.374 . S
C1171 H1151 0.950 . S
C1171 C1167 1.385 . S
C1171 C1170 1.374 . S
C1172 C1169 1.499 . S
C1172 C1173 1.373 . S
C1172 C1174 1.389 . S
C1173 H1152 0.950 . S
C1173 C1172 1.373 . S
C1173 C1189 1.377 . S
C1174 C1172 1.389 . S
C1174 C1175 1.524 . S
C1174 C1188 1.377 . S
C1175 C1174 1.524 . S
C1175 C1176 1.397 . S
C1175 C1180 1.363 . S
C1176 H1153 0.950 . S
C1176 C1175 1.397 . S
C1176 C1177 1.334 . S
C1177 H1154 0.950 . S
C1177 C1176 1.334 . S
C1177 C1178 1.287 . S
C1178 C1177 1.287 . S
C1178 C1179 1.524 . S
C1178 H1197 0.913 . S
C1179 H1155 0.950 . S
C1179 C1178 1.524 . S
C1179 C1180 1.415 . S
C1180 H1156 0.950 . S
C1180 C1175 1.363 . S
C1180 C1179 1.415 . S
C1181 H1157 0.951 . S
C1181 C1182 1.366 . S
C1181 C1183 1.388 1_545 S
C1182 C1181 1.366 . S
C1182 C1186 1.385 . S
C1183 H1158 0.951 . S
C1183 C1181 1.388 1_565 S
C1183 C1184 1.366 . S
C1184 C1183 1.366 . S
C1184 C1185 1.414 . S
C1184 C1187 1.499 . S
C1185 H1159 0.950 . S
C1185 C1184 1.414 . S
C1185 C1186 1.374 1_565 S
C1186 H1160 0.950 . S
C1186 C1182 1.385 . S
C1186 C1185 1.374 1_545 S
C1187 C1184 1.499 . S
C1187 C1188 1.373 . S
C1187 C1189 1.389 . S
C1188 H1161 0.950 . S
C1188 C1174 1.377 . S
C1188 C1187 1.373 . S
C1189 C1173 1.377 . S
C1189 C1187 1.389 . S
C1189 C1190 1.524 . S
C1190 C1189 1.524 . S
C1190 C1191 1.397 . S
C1190 C1195 1.363 . S
C1191 H1162 0.950 . S
C1191 C1190 1.397 . S
C1191 C1192 1.334 . S
C1192 H1163 0.950 . S
C1192 C1191 1.334 . S
C1192 C1193 1.287 . S
C1193 C1192 1.287 . S
C1193 C1194 1.524 . S
C1193 H1196 0.999 . S
C1194 H1164 0.950 . S
C1194 C1193 1.524 . S
C1194 C1195 1.415 . S
C1195 H1165 0.950 . S
C1195 C1190 1.363 . S
C1195 C1194 1.415 . S
H1196 C1193 0.999 . S
H1197 C1178 0.913 . S
H1198 C1216 0.951 . S
H1199 C1218 0.951 . S
H1200 C1220 0.950 . S
H1201 C1221 0.950 . S
H1202 C1223 0.950 . S
H1203 C1226 0.950 . S
H1204 C1227 0.950 . S
H1205 C1229 0.950 . S
H1206 C1230 0.950 . S
H1207 C1231 0.951 . S
H1208 C1233 0.951 . S
H1209 C1235 0.950 . S
H1210 C1236 0.950 . S
H1211 C1238 0.950 . S
H1212 C1241 0.950 . S
H1213 C1242 0.950 . S
H1214 C1244 0.950 . S
H1215 C1245 0.950 . S
C1216 H1198 0.951 . S
C1216 C1217 1.366 . S
C1216 C1218 1.388 . S
C1217 C1216 1.366 . S
C1217 C1221 1.385 . S
C1218 H1199 0.951 . S
C1218 C1216 1.388 . S
C1218 C1219 1.366 . S
C1219 C1218 1.366 . S
C1219 C1220 1.414 . S
C1219 C1222 1.499 . S
C1220 H1200 0.950 . S
C1220 C1219 1.414 . S
C1220 C1221 1.374 . S
C1221 H1201 0.950 . S
C1221 C1217 1.385 . S
C1221 C1220 1.374 . S
C1222 C1219 1.499 . S
C1222 C1223 1.373 . S
C1222 C1224 1.389 . S
C1223 H1202 0.950 . S
C1223 C1222 1.373 . S
C1223 C1239 1.377 . S
C1224 C1222 1.389 . S
C1224 C1225 1.524 . S
C1224 C1238 1.377 . S
C1225 C1224 1.524 . S
C1225 C1226 1.397 . S
C1225 C1230 1.363 . S
C1226 H1203 0.950 . S
C1226 C1225 1.397 . S
C1226 C1227 1.334 . S
C1227 H1204 0.950 . S
C1227 C1226 1.334 . S
C1227 C1228 1.287 . S
C1228 C1227 1.287 . S
C1228 C1229 1.524 . S
C1228 H1247 0.913 . S
C1229 H1205 0.950 . S
C1229 C1228 1.524 . S
C1229 C1230 1.415 . S
C1230 H1206 0.950 . S
C1230 C1225 1.363 . S
C1230 C1229 1.415 . S
C1231 H1207 0.951 . S
C1231 C1232 1.366 . S
C1231 C1233 1.388 1_545 S
C1232 C1231 1.366 . S
C1232 C1236 1.385 . S
C1233 H1208 0.951 . S
C1233 C1231 1.388 1_565 S
C1233 C1234 1.366 . S
C1234 C1233 1.366 . S
C1234 C1235 1.414 . S
C1234 C1237 1.499 . S
C1235 H1209 0.950 . S
C1235 C1234 1.414 . S
C1235 C1236 1.374 1_565 S
C1236 H1210 0.950 . S
C1236 C1232 1.385 . S
C1236 C1235 1.374 1_545 S
C1237 C1234 1.499 . S
C1237 C1238 1.373 . S
C1237 C1239 1.389 . S
C1238 H1211 0.950 . S
C1238 C1224 1.377 . S
C1238 C1237 1.373 . S
C1239 C1223 1.377 . S
C1239 C1237 1.389 . S
C1239 C1240 1.524 . S
C1240 C1239 1.524 . S
C1240 C1241 1.397 . S
C1240 C1245 1.363 . S
C1241 H1212 0.950 . S
C1241 C1240 1.397 . S
C1241 C1242 1.334 . S
C1242 H1213 0.950 . S
C1242 C1241 1.334 . S
C1242 C1243 1.287 . S
C1243 C1242 1.287 . S
C1243 C1244 1.524 . S
C1243 H1246 0.999 . S
C1244 H1214 0.950 . S
C1244 C1243 1.524 . S
C1244 C1245 1.415 . S
C1245 H1215 0.950 . S
C1245 C1240 1.363 . S
C1245 C1244 1.415 . S
H1246 C1243 0.999 . S
H1247 C1228 0.913 . S
H1248 C1266 0.951 . S
H1249 C1268 0.951 . S
H1250 C1270 0.950 1_455 S
H1251 C1271 0.950 . S
H1252 C1273 0.950 . S
H1253 C1276 0.950 1_556 S
H1254 C1277 0.950 . S
H1255 C1279 0.950 . S
H1256 C1280 0.950 . S
H1257 C1281 0.951 . S
H1258 C1283 0.951 . S
H1259 C1285 0.950 1_655 S
H1260 C1286 0.950 . S
H1261 C1288 0.950 . S
H1262 C1291 0.950 1_554 S
H1263 C1292 0.950 . S
H1264 C1294 0.950 . S
H1265 C1295 0.950 . S
C1266 H1248 0.951 . S
C1266 C1267 1.366 . S
C1266 C1268 1.388 . S
C1267 C1266 1.366 . S
C1267 C1271 1.385 . S
C1268 H1249 0.951 . S
C1268 C1266 1.388 . S
C1268 C1269 1.366 . S
C1269 C1268 1.366 . S
C1269 C1270 1.414 . S
C1269 C1272 1.499 . S
C1270 H1250 0.950 1_655 S
C1270 C1269 1.414 . S
C1270 C1271 1.374 . S
C1271 H1251 0.950 . S
C1271 C1267 1.385 . S
C1271 C1270 1.374 . S
C1272 C1269 1.499 . S
C1272 C1273 1.373 1_655 S
C1272 C1274 1.389 1_556 S
C1273 H1252 0.950 . S
C1273 C1272 1.373 1_455 S
C1273 C1289 1.377 . S
C1274 C1272 1.389 1_554 S
C1274 C1275 1.524 . S
C1274 C1288 1.377 . S
C1275 C1274 1.524 . S
C1275 C1276 1.397 . S
C1275 C1280 1.363 . S
C1276 H1253 0.950 1_554 S
C1276 C1275 1.397 . S
C1276 C1277 1.334 . S
C1277 H1254 0.950 . S
C1277 C1276 1.334 . S
C1277 C1278 1.287 . S
C1278 C1277 1.287 . S
C1278 C1279 1.524 . S
C1278 H1297 0.913 . S
C1279 H1255 0.950 . S
C1279 C1278 1.524 . S
C1279 C1280 1.415 . S
C1280 H1256 0.950 . S
C1280 C1275 1.363 . S
C1280 C1279 1.415 . S
C1281 H1257 0.951 . S
C1281 C1282 1.366 . S
C1281 C1283 1.388 . S
C1282 C1281 1.366 . S
C1282 C1286 1.385 . S
C1283 H1258 0.951 . S
C1283 C1281 1.388 . S
C1283 C1284 1.366 . S
C1284 C1283 1.366 . S
C1284 C1285 1.414 . S
C1284 C1287 1.499 . S
C1285 H1259 0.950 1_455 S
C1285 C1284 1.414 . S
C1285 C1286 1.374 . S
C1286 H1260 0.950 . S
C1286 C1282 1.385 . S
C1286 C1285 1.374 . S
C1287 C1284 1.499 . S
C1287 C1288 1.373 1_455 S
C1287 C1289 1.389 1_554 S
C1288 H1261 0.950 . S
C1288 C1274 1.377 . S
C1288 C1287 1.373 1_655 S
C1289 C1273 1.377 . S
C1289 C1287 1.389 1_556 S
C1289 C1290 1.524 . S
C1290 C1289 1.524 . S
C1290 C1291 1.397 . S
C1290 C1295 1.363 . S
C1291 H1262 0.950 1_556 S
C1291 C1290 1.397 . S
C1291 C1292 1.334 . S
C1292 H1263 0.950 . S
C1292 C1291 1.334 . S
C1292 C1293 1.287 . S
C1293 C1292 1.287 . S
C1293 C1294 1.524 . S
C1293 H1296 0.999 . S
C1294 H1264 0.950 . S
C1294 C1293 1.524 . S
C1294 C1295 1.415 . S
C1295 H1265 0.950 . S
C1295 C1290 1.363 . S
C1295 C1294 1.415 . S
H1296 C1293 0.999 . S
H1297 C1278 0.913 . S
H1298 C1316 0.951 . S
H1299 C1318 0.951 . S
H1300 C1320 0.950 . S
H1301 C1321 0.950 . S
H1302 C1323 0.950 . S
H1303 C1326 0.950 . S
H1304 C1327 0.950 . S
H1305 C1329 0.950 . S
H1306 C1330 0.950 . S
H1307 C1331 0.951 . S
H1308 C1333 0.951 . S
H1309 C1335 0.950 . S
H1310 C1336 0.950 . S
H1311 C1338 0.950 . S
H1312 C1341 0.950 . S
H1313 C1342 0.950 . S
H1314 C1344 0.950 . S
H1315 C1345 0.950 . S
C1316 H1298 0.951 . S
C1316 C1317 1.366 . S
C1316 C1318 1.388 . S
C1317 C1316 1.366 . S
C1317 C1321 1.385 . S
C1318 H1299 0.951 . S
C1318 C1316 1.388 . S
C1318 C1319 1.366 . S
C1319 C1318 1.366 . S
C1319 C1320 1.414 . S
C1319 C1322 1.499 . S
C1320 H1300 0.950 . S
C1320 C1319 1.414 . S
C1320 C1321 1.374 . S
C1321 H1301 0.950 . S
C1321 C1317 1.385 . S
C1321 C1320 1.374 . S
C1322 C1319 1.499 . S
C1322 C1323 1.373 . S
C1322 C1324 1.389 1_556 S
C1323 H1302 0.950 . S
C1323 C1322 1.373 . S
C1323 C1339 1.377 . S
C1324 C1322 1.389 1_554 S
C1324 C1325 1.524 . S
C1324 C1338 1.377 . S
C1325 C1324 1.524 . S
C1325 C1326 1.397 1_554 S
C1325 C1330 1.363 . S
C1326 H1303 0.950 . S
C1326 C1325 1.397 1_556 S
C1326 C1327 1.334 . S
C1327 H1304 0.950 . S
C1327 C1326 1.334 . S
C1327 C1328 1.287 1_556 S
C1328 C1327 1.287 1_554 S
C1328 C1329 1.524 . S
C1328 H1347 0.913 . S
C1329 H1305 0.950 . S
C1329 C1328 1.524 . S
C1329 C1330 1.415 . S
C1330 H1306 0.950 . S
C1330 C1325 1.363 . S
C1330 C1329 1.415 . S
C1331 H1307 0.951 . S
C1331 C1332 1.366 . S
C1331 C1333 1.388 . S
C1332 C1331 1.366 . S
C1332 C1336 1.385 . S
C1333 H1308 0.951 . S
C1333 C1331 1.388 . S
C1333 C1334 1.366 . S
C1334 C1333 1.366 . S
C1334 C1335 1.414 . S
C1334 C1337 1.499 . S
C1335 H1309 0.950 . S
C1335 C1334 1.414 . S
C1335 C1336 1.374 . S
C1336 H1310 0.950 . S
C1336 C1332 1.385 . S
C1336 C1335 1.374 . S
C1337 C1334 1.499 . S
C1337 C1338 1.373 . S
C1337 C1339 1.389 1_554 S
C1338 H1311 0.950 . S
C1338 C1324 1.377 . S
C1338 C1337 1.373 . S
C1339 C1323 1.377 . S
C1339 C1337 1.389 1_556 S
C1339 C1340 1.524 . S
C1340 C1339 1.524 . S
C1340 C1341 1.397 1_556 S
C1340 C1345 1.363 . S
C1341 H1312 0.950 . S
C1341 C1340 1.397 1_554 S
C1341 C1342 1.334 . S
C1342 H1313 0.950 . S
C1342 C1341 1.334 . S
C1342 C1343 1.287 1_554 S
C1343 C1342 1.287 1_556 S
C1343 C1344 1.524 . S
C1343 H1346 0.999 . S
C1344 H1314 0.950 . S
C1344 C1343 1.524 . S
C1344 C1345 1.415 . S
C1345 H1315 0.950 . S
C1345 C1340 1.363 . S
C1345 C1344 1.415 . S
H1346 C1343 0.999 . S
H1347 C1328 0.913 . S
H1348 C1366 0.951 . S
H1349 C1368 0.951 . S
H1350 C1370 0.950 1_655 S
H1351 C1371 0.950 . S
H1352 C1373 0.950 . S
H1353 C1376 0.950 . S
H1354 C1377 0.950 . S
H1355 C1379 0.950 . S
H1356 C1380 0.950 . S
H1357 C1381 0.951 . S
H1358 C1383 0.951 . S
H1359 C1385 0.950 1_455 S
H1360 C1386 0.950 . S
H1361 C1388 0.950 . S
H1362 C1391 0.950 . S
H1363 C1392 0.950 . S
H1364 C1394 0.950 . S
H1365 C1395 0.950 . S
C1366 H1348 0.951 . S
C1366 C1367 1.366 . S
C1366 C1368 1.388 . S
C1367 C1366 1.366 . S
C1367 C1371 1.385 . S
C1368 H1349 0.951 . S
C1368 C1366 1.388 . S
C1368 C1369 1.366 . S
C1369 C1368 1.366 . S
C1369 C1370 1.414 . S
C1369 C1372 1.499 . S
C1370 H1350 0.950 1_455 S
C1370 C1369 1.414 . S
C1370 C1371 1.374 . S
C1371 H1351 0.950 . S
C1371 C1367 1.385 . S
C1371 C1370 1.374 . S
C1372 C1369 1.499 . S
C1372 C1373 1.373 1_455 S
C1372 C1374 1.389 . S
C1373 H1352 0.950 . S
C1373 C1372 1.373 1_655 S
C1373 C1389 1.377 . S
C1374 C1372 1.389 . S
C1374 C1375 1.524 . S
C1374 C1388 1.377 . S
C1375 C1374 1.524 . S
C1375 C1376 1.397 . S
C1375 C1380 1.363 . S
C1376 H1353 0.950 . S
C1376 C1375 1.397 . S
C1376 C1377 1.334 . S
C1377 H1354 0.950 . S
C1377 C1376 1.334 . S
C1377 C1378 1.287 . S
C1378 C1377 1.287 . S
C1378 C1379 1.524 . S
C1378 H1397 0.913 . S
C1379 H1355 0.950 . S
C1379 C1378 1.524 . S
C1379 C1380 1.415 . S
C1380 H1356 0.950 . S
C1380 C1375 1.363 . S
C1380 C1379 1.415 . S
C1381 H1357 0.951 . S
C1381 C1382 1.366 . S
C1381 C1383 1.388 . S
C1382 C1381 1.366 . S
C1382 C1386 1.385 . S
C1383 H1358 0.951 . S
C1383 C1381 1.388 . S
C1383 C1384 1.366 . S
C1384 C1383 1.366 . S
C1384 C1385 1.414 . S
C1384 C1387 1.499 . S
C1385 H1359 0.950 1_655 S
C1385 C1384 1.414 . S
C1385 C1386 1.374 . S
C1386 H1360 0.950 . S
C1386 C1382 1.385 . S
C1386 C1385 1.374 . S
C1387 C1384 1.499 . S
C1387 C1388 1.373 1_655 S
C1387 C1389 1.389 . S
C1388 H1361 0.950 . S
C1388 C1374 1.377 . S
C1388 C1387 1.373 1_455 S
C1389 C1373 1.377 . S
C1389 C1387 1.389 . S
C1389 C1390 1.524 . S
C1390 C1389 1.524 . S
C1390 C1391 1.397 . S
C1390 C1395 1.363 . S
C1391 H1362 0.950 . S
C1391 C1390 1.397 . S
C1391 C1392 1.334 . S
C1392 H1363 0.950 . S
C1392 C1391 1.334 . S
C1392 C1393 1.287 . S
C1393 C1392 1.287 . S
C1393 C1394 1.524 . S
C1393 H1396 0.999 . S
C1394 H1364 0.950 . S
C1394 C1393 1.524 . S
C1394 C1395 1.415 . S
C1395 H1365 0.950 . S
C1395 C1390 1.363 . S
C1395 C1394 1.415 . S
H1396 C1393 0.999 . S
H1397 C1378 0.913 . S
H1398 C1416 0.951 . S
H1399 C1418 0.951 . S
H1400 C1420 0.950 . S
H1401 C1421 0.950 . S
H1402 C1423 0.950 . S
H1403 C1426 0.950 . S
H1404 C1427 0.950 . S
H1405 C1429 0.950 . S
H1406 C1430 0.950 . S
H1407 C1431 0.951 . S
H1408 C1433 0.951 . S
H1409 C1435 0.950 . S
H1410 C1436 0.950 . S
H1411 C1438 0.950 . S
H1412 C1441 0.950 . S
H1413 C1442 0.950 . S
H1414 C1444 0.950 . S
H1415 C1445 0.950 . S
C1416 H1398 0.951 . S
C1416 C1417 1.366 . S
C1416 C1418 1.388 . S
C1417 C1416 1.366 . S
C1417 C1421 1.385 . S
C1418 H1399 0.951 . S
C1418 C1416 1.388 . S
C1418 C1419 1.366 . S
C1419 C1418 1.366 . S
C1419 C1420 1.414 . S
C1419 C1422 1.499 . S
C1420 H1400 0.950 . S
C1420 C1419 1.414 . S
C1420 C1421 1.374 . S
C1421 H1401 0.950 . S
C1421 C1417 1.385 . S
C1421 C1420 1.374 . S
C1422 C1419 1.499 . S
C1422 C1423 1.373 . S
C1422 C1424 1.389 . S
C1423 H1402 0.950 . S
C1423 C1422 1.373 . S
C1423 C1439 1.377 . S
C1424 C1422 1.389 . S
C1424 C1425 1.524 . S
C1424 C1438 1.377 . S
C1425 C1424 1.524 . S
C1425 C1426 1.397 . S
C1425 C1430 1.363 . S
C1426 H1403 0.950 . S
C1426 C1425 1.397 . S
C1426 C1427 1.334 . S
C1427 H1404 0.950 . S
C1427 C1426 1.334 . S
C1427 C1428 1.287 . S
C1428 C1427 1.287 . S
C1428 C1429 1.524 . S
C1428 H1447 0.913 . S
C1429 H1405 0.950 . S
C1429 C1428 1.524 . S
C1429 C1430 1.415 . S
C1430 H1406 0.950 . S
C1430 C1425 1.363 . S
C1430 C1429 1.415 . S
C1431 H1407 0.951 . S
C1431 C1432 1.366 . S
C1431 C1433 1.388 . S
C1432 C1431 1.366 . S
C1432 C1436 1.385 . S
C1433 H1408 0.951 . S
C1433 C1431 1.388 . S
C1433 C1434 1.366 . S
C1434 C1433 1.366 . S
C1434 C1435 1.414 . S
C1434 C1437 1.499 . S
C1435 H1409 0.950 . S
C1435 C1434 1.414 . S
C1435 C1436 1.374 . S
C1436 H1410 0.950 . S
C1436 C1432 1.385 . S
C1436 C1435 1.374 . S
C1437 C1434 1.499 . S
C1437 C1438 1.373 . S
C1437 C1439 1.389 . S
C1438 H1411 0.950 . S
C1438 C1424 1.377 . S
C1438 C1437 1.373 . S
C1439 C1423 1.377 . S
C1439 C1437 1.389 . S
C1439 C1440 1.524 . S
C1440 C1439 1.524 . S
C1440 C1441 1.397 . S
C1440 C1445 1.363 . S
C1441 H1412 0.950 . S
C1441 C1440 1.397 . S
C1441 C1442 1.334 . S
C1442 H1413 0.950 . S
C1442 C1441 1.334 . S
C1442 C1443 1.287 . S
C1443 C1442 1.287 . S
C1443 C1444 1.524 . S
C1443 H1446 0.999 . S
C1444 H1414 0.950 . S
C1444 C1443 1.524 . S
C1444 C1445 1.415 . S
C1445 H1415 0.950 . S
C1445 C1440 1.363 . S
C1445 C1444 1.415 . S
H1446 C1443 0.999 . S
H1447 C1428 0.913 . S
H1448 C1466 0.951 . S
H1449 C1468 0.951 . S
H1450 C1470 0.950 . S
H1451 C1471 0.950 . S
H1452 C1473 0.950 . S
H1453 C1476 0.950 . S
H1454 C1477 0.950 . S
H1455 C1479 0.950 . S
H1456 C1480 0.950 . S
H1457 C1481 0.951 . S
H1458 C1483 0.951 . S
H1459 C1485 0.950 . S
H1460 C1486 0.950 . S
H1461 C1488 0.950 . S
H1462 C1491 0.950 . S
H1463 C1492 0.950 . S
H1464 C1494 0.950 . S
H1465 C1495 0.950 . S
C1466 H1448 0.951 . S
C1466 C1467 1.366 . S
C1466 C1468 1.388 . S
C1467 C1466 1.366 . S
C1467 C1471 1.385 . S
C1468 H1449 0.951 . S
C1468 C1466 1.388 . S
C1468 C1469 1.366 . S
C1469 C1468 1.366 . S
C1469 C1470 1.414 . S
C1469 C1472 1.499 . S
C1470 H1450 0.950 . S
C1470 C1469 1.414 . S
C1470 C1471 1.374 . S
C1471 H1451 0.950 . S
C1471 C1467 1.385 . S
C1471 C1470 1.374 . S
C1472 C1469 1.499 . S
C1472 C1473 1.373 1_556 S
C1472 C1474 1.389 . S
C1473 H1452 0.950 . S
C1473 C1472 1.373 1_554 S
C1473 C1489 1.377 . S
C1474 C1472 1.389 . S
C1474 C1475 1.524 . S
C1474 C1488 1.377 . S
C1475 C1474 1.524 . S
C1475 C1476 1.397 . S
C1475 C1480 1.363 . S
C1476 H1453 0.950 . S
C1476 C1475 1.397 . S
C1476 C1477 1.334 . S
C1477 H1454 0.950 . S
C1477 C1476 1.334 . S
C1477 C1478 1.287 . S
C1478 C1477 1.287 . S
C1478 C1479 1.524 . S
C1478 H1497 0.913 . S
C1479 H1455 0.950 . S
C1479 C1478 1.524 . S
C1479 C1480 1.415 . S
C1480 H1456 0.950 . S
C1480 C1475 1.363 . S
C1480 C1479 1.415 . S
C1481 H1457 0.951 . S
C1481 C1482 1.366 . S
C1481 C1483 1.388 . S
C1482 C1481 1.366 . S
C1482 C1486 1.385 . S
C1483 H1458 0.951 . S
C1483 C1481 1.388 . S
C1483 C1484 1.366 . S
C1484 C1483 1.366 . S
C1484 C1485 1.414 . S
C1484 C1487 1.499 . S
C1485 H1459 0.950 . S
C1485 C1484 1.414 . S
C1485 C1486 1.374 . S
C1486 H1460 0.950 . S
C1486 C1482 1.385 . S
C1486 C1485 1.374 . S
C1487 C1484 1.499 . S
C1487 C1488 1.373 1_554 S
C1487 C1489 1.389 . S
C1488 H1461 0.950 . S
C1488 C1474 1.377 . S
C1488 C1487 1.373 1_556 S
C1489 C1473 1.377 . S
C1489 C1487 1.389 . S
C1489 C1490 1.524 . S
C1490 C1489 1.524 . S
C1490 C1491 1.397 . S
C1490 C1495 1.363 . S
C1491 H1462 0.950 . S
C1491 C1490 1.397 . S
C1491 C1492 1.334 . S
C1492 H1463 0.950 . S
C1492 C1491 1.334 . S
C1492 C1493 1.287 . S
C1493 C1492 1.287 . S
C1493 C1494 1.524 . S
C1493 H1496 0.999 . S
C1494 H1464 0.950 . S
C1494 C1493 1.524 . S
C1494 C1495 1.415 . S
C1495 H1465 0.950 . S
C1495 C1490 1.363 . S
C1495 C1494 1.415 . S
H1496 C1493 0.999 . S
H1497 C1478 0.913 . S
H1498 C1516 0.951 . S
H1499 C1518 0.951 . S
H1500 C1520 0.950 . S
H1501 C1521 0.950 . S
H1502 C1523 0.950 . S
H1503 C1526 0.950 . S
H1504 C1527 0.950 . S
H1505 C1529 0.950 . S
H1506 C1530 0.950 . S
H1507 C1531 0.951 . S
H1508 C1533 0.951 . S
H1509 C1535 0.950 . S
H1510 C1536 0.950 . S
H1511 C1538 0.950 . S
H1512 C1541 0.950 . S
H1513 C1542 0.950 . S
H1514 C1544 0.950 . S
H1515 C1545 0.950 . S
C1516 H1498 0.951 . S
C1516 C1517 1.366 . S
C1516 C1518 1.388 . S
C1517 C1516 1.366 . S
C1517 C1521 1.385 . S
C1518 H1499 0.951 . S
C1518 C1516 1.388 . S
C1518 C1519 1.366 . S
C1519 C1518 1.366 . S
C1519 C1520 1.414 . S
C1519 C1522 1.499 . S
C1520 H1500 0.950 . S
C1520 C1519 1.414 . S
C1520 C1521 1.374 . S
C1521 H1501 0.950 . S
C1521 C1517 1.385 . S
C1521 C1520 1.374 . S
C1522 C1519 1.499 . S
C1522 C1523 1.373 . S
C1522 C1524 1.389 1_655 S
C1523 H1502 0.950 . S
C1523 C1522 1.373 . S
C1523 C1539 1.377 . S
C1524 C1522 1.389 1_455 S
C1524 C1525 1.524 . S
C1524 C1538 1.377 . S
C1525 C1524 1.524 . S
C1525 C1526 1.397 . S
C1525 C1530 1.363 . S
C1526 H1503 0.950 . S
C1526 C1525 1.397 . S
C1526 C1527 1.334 . S
C1527 H1504 0.950 . S
C1527 C1526 1.334 . S
C1527 C1528 1.287 . S
C1528 C1527 1.287 . S
C1528 C1529 1.524 . S
C1528 H1547 0.913 . S
C1529 H1505 0.950 . S
C1529 C1528 1.524 . S
C1529 C1530 1.415 . S
C1530 H1506 0.950 . S
C1530 C1525 1.363 . S
C1530 C1529 1.415 . S
C1531 H1507 0.951 . S
C1531 C1532 1.366 . S
C1531 C1533 1.388 . S
C1532 C1531 1.366 . S
C1532 C1536 1.385 . S
C1533 H1508 0.951 . S
C1533 C1531 1.388 . S
C1533 C1534 1.366 . S
C1534 C1533 1.366 . S
C1534 C1535 1.414 . S
C1534 C1537 1.499 . S
C1535 H1509 0.950 . S
C1535 C1534 1.414 . S
C1535 C1536 1.374 . S
C1536 H1510 0.950 . S
C1536 C1532 1.385 . S
C1536 C1535 1.374 . S
C1537 C1534 1.499 . S
C1537 C1538 1.373 . S
C1537 C1539 1.389 1_455 S
C1538 H1511 0.950 . S
C1538 C1524 1.377 . S
C1538 C1537 1.373 . S
C1539 C1523 1.377 . S
C1539 C1537 1.389 1_655 S
C1539 C1540 1.524 . S
C1540 C1539 1.524 . S
C1540 C1541 1.397 . S
C1540 C1545 1.363 . S
C1541 H1512 0.950 . S
C1541 C1540 1.397 . S
C1541 C1542 1.334 . S
C1542 H1513 0.950 . S
C1542 C1541 1.334 . S
C1542 C1543 1.287 . S
C1543 C1542 1.287 . S
C1543 C1544 1.524 . S
C1543 H1546 0.999 . S
C1544 H1514 0.950 . S
C1544 C1543 1.524 . S
C1544 C1545 1.415 . S
C1545 H1515 0.950 . S
C1545 C1540 1.363 . S
C1545 C1544 1.415 . S
H1546 C1543 0.999 . S
H1547 C1528 0.913 . S
H1548 C1566 0.951 . S
H1549 C1568 0.951 . S
H1550 C1570 0.950 . S
H1551 C1571 0.950 . S
H1552 C1573 0.950 . S
H1553 C1576 0.950 . S
H1554 C1577 0.950 . S
H1555 C1579 0.950 . S
H1556 C1580 0.950 . S
H1557 C1581 0.951 . S
H1558 C1583 0.951 . S
H1559 C1585 0.950 . S
H1560 C1586 0.950 . S
H1561 C1588 0.950 . S
H1562 C1591 0.950 . S
H1563 C1592 0.950 . S
H1564 C1594 0.950 . S
H1565 C1595 0.950 . S
C1566 H1548 0.951 . S
C1566 C1567 1.366 . S
C1566 C1568 1.388 . S
C1567 C1566 1.366 . S
C1567 C1571 1.385 . S
C1568 H1549 0.951 . S
C1568 C1566 1.388 . S
C1568 C1569 1.366 . S
C1569 C1568 1.366 . S
C1569 C1570 1.414 . S
C1569 C1572 1.499 . S
C1570 H1550 0.950 . S
C1570 C1569 1.414 . S
C1570 C1571 1.374 . S
C1571 H1551 0.950 . S
C1571 C1567 1.385 . S
C1571 C1570 1.374 . S
C1572 C1569 1.499 . S
C1572 C1573 1.373 . S
C1572 C1574 1.389 . S
C1573 H1552 0.950 . S
C1573 C1572 1.373 . S
C1573 C1589 1.377 . S
C1574 C1572 1.389 . S
C1574 C1575 1.524 . S
C1574 C1588 1.377 . S
C1575 C1574 1.524 . S
C1575 C1576 1.397 . S
C1575 C1580 1.363 . S
C1576 H1553 0.950 . S
C1576 C1575 1.397 . S
C1576 C1577 1.334 . S
C1577 H1554 0.950 . S
C1577 C1576 1.334 . S
C1577 C1578 1.287 . S
C1578 C1577 1.287 . S
C1578 C1579 1.524 . S
C1578 H1597 0.913 . S
C1579 H1555 0.950 . S
C1579 C1578 1.524 . S
C1579 C1580 1.415 . S
C1580 H1556 0.950 . S
C1580 C1575 1.363 . S
C1580 C1579 1.415 . S
C1581 H1557 0.951 . S
C1581 C1582 1.366 . S
C1581 C1583 1.388 . S
C1582 C1581 1.366 . S
C1582 C1586 1.385 . S
C1583 H1558 0.951 . S
C1583 C1581 1.388 . S
C1583 C1584 1.366 . S
C1584 C1583 1.366 . S
C1584 C1585 1.414 . S
C1584 C1587 1.499 . S
C1585 H1559 0.950 . S
C1585 C1584 1.414 . S
C1585 C1586 1.374 . S
C1586 H1560 0.950 . S
C1586 C1582 1.385 . S
C1586 C1585 1.374 . S
C1587 C1584 1.499 . S
C1587 C1588 1.373 . S
C1587 C1589 1.389 . S
C1588 H1561 0.950 . S
C1588 C1574 1.377 . S
C1588 C1587 1.373 . S
C1589 C1573 1.377 . S
C1589 C1587 1.389 . S
C1589 C1590 1.524 . S
C1590 C1589 1.524 . S
C1590 C1591 1.397 . S
C1590 C1595 1.363 . S
C1591 H1562 0.950 . S
C1591 C1590 1.397 . S
C1591 C1592 1.334 . S
C1592 H1563 0.950 . S
C1592 C1591 1.334 . S
C1592 C1593 1.287 . S
C1593 C1592 1.287 . S
C1593 C1594 1.524 . S
C1593 H1596 0.999 . S
C1594 H1564 0.950 . S
C1594 C1593 1.524 . S
C1594 C1595 1.415 . S
C1595 H1565 0.950 . S
C1595 C1590 1.363 . S
C1595 C1594 1.415 . S
H1596 C1593 0.999 . S
H1597 C1578 0.913 . S
H1598 C1616 0.951 . S
H1599 C1618 0.951 1_455 S
H1600 C1620 0.950 . S
H1601 C1621 0.950 . S
H1602 C1623 0.950 . S
H1603 C1626 1.011 . S
H1604 C1627 0.950 1_655 S
H1605 C1629 0.950 . S
H1606 C1630 0.950 . S
H1607 C1631 0.951 . S
H1608 C1633 0.951 1_655 S
H1609 C1635 0.950 . S
H1610 C1636 0.950 . S
H1611 C1638 0.950 . S
H1612 C1641 1.011 . S
H1613 C1642 0.950 1_455 S
H1614 C1644 0.950 . S
H1615 C1645 0.950 . S
C1616 H1598 0.951 . S
C1616 C1617 1.366 . S
C1616 C1618 1.388 . S
C1617 C1616 1.366 . S
C1617 C1621 1.385 . S
C1618 H1599 0.951 1_655 S
C1618 C1616 1.388 . S
C1618 C1619 1.366 . S
C1619 C1618 1.366 . S
C1619 C1620 1.414 . S
C1619 C1622 1.499 . S
C1620 H1600 0.950 . S
C1620 C1619 1.414 . S
C1620 C1621 1.374 . S
C1621 H1601 0.950 . S
C1621 C1617 1.385 . S
C1621 C1620 1.374 . S
C1622 C1619 1.499 . S
C1622 C1623 1.373 . S
C1622 C1624 1.389 1_645 S
C1623 H1602 0.950 . S
C1623 C1622 1.373 . S
C1623 C1639 1.377 . S
C1624 C1622 1.389 1_465 S
C1624 C1625 1.524 . S
C1624 C1638 1.377 . S
C1625 C1624 1.524 . S
C1625 C1626 1.353 1_455 S
C1625 C1630 1.363 . S
C1626 H1603 1.011 . S
C1626 C1625 1.353 1_655 S
C1626 C1627 1.320 1_655 S
C1627 H1604 0.950 1_455 S
C1627 C1626 1.320 1_455 S
C1627 C1628 1.287 . S
C1628 C1627 1.287 . S
C1628 C1629 1.524 . S
C1628 H1647 0.913 . S
C1629 H1605 0.950 . S
C1629 C1628 1.524 . S
C1629 C1630 1.415 . S
C1630 H1606 0.950 . S
C1630 C1625 1.363 . S
C1630 C1629 1.415 . S
C1631 H1607 0.951 . S
C1631 C1632 1.366 . S
C1631 C1633 1.388 . S
C1632 C1631 1.366 . S
C1632 C1636 1.385 . S
C1633 H1608 0.951 1_455 S
C1633 C1631 1.388 . S
C1633 C1634 1.366 . S
C1634 C1633 1.366 . S
C1634 C1635 1.414 . S
C1634 C1637 1.499 . S
C1635 H1609 0.950 . S
C1635 C1634 1.414 . S
C1635 C1636 1.374 . S
C1636 H1610 0.950 . S
C1636 C1632 1.385 . S
C1636 C1635 1.374 . S
C1637 C1634 1.499 . S
C1637 C1638 1.373 . S
C1637 C1639 1.389 1_465 S
C1638 H1611 0.950 . S
C1638 C1624 1.377 . S
C1638 C1637 1.373 . S
C1639 C1623 1.377 . S
C1639 C1637 1.389 1_645 S
C1639 C1640 1.524 . S
C1640 C1639 1.524 . S
C1640 C1641 1.353 1_655 S
C1640 C1645 1.363 . S
C1641 H1612 1.011 . S
C1641 C1640 1.353 1_455 S
C1641 C1642 1.320 1_455 S
C1642 H1613 0.950 1_655 S
C1642 C1641 1.320 1_655 S
C1642 C1643 1.287 . S
C1643 C1642 1.287 . S
C1643 C1644 1.524 . S
C1643 H1646 0.999 . S
C1644 H1614 0.950 . S
C1644 C1643 1.524 . S
C1644 C1645 1.415 . S
C1645 H1615 0.950 . S
C1645 C1640 1.363 . S
C1645 C1644 1.415 . S
H1646 C1643 0.999 . S
H1647 C1628 0.913 . S
H1648 C1666 0.951 . S
H1649 C1668 0.951 . S
H1650 C1670 0.950 . S
H1651 C1671 0.950 . S
H1652 C1673 0.950 . S
H1653 C1676 0.950 . S
H1654 C1677 0.950 . S
H1655 C1679 0.950 . S
H1656 C1680 0.950 . S
H1657 C1681 0.951 . S
H1658 C1683 0.951 . S
H1659 C1685 0.950 . S
H1660 C1686 0.950 . S
H1661 C1688 0.950 . S
H1662 C1691 0.950 . S
H1663 C1692 0.950 . S
H1664 C1694 0.950 . S
H1665 C1695 0.950 . S
C1666 H1648 0.951 . S
C1666 C1667 1.366 . S
C1666 C1668 1.388 . S
C1667 C1666 1.366 . S
C1667 C1671 1.385 . S
C1668 H1649 0.951 . S
C1668 C1666 1.388 . S
C1668 C1669 1.366 . S
C1669 C1668 1.366 . S
C1669 C1670 1.414 . S
C1669 C1672 1.499 . S
C1670 H1650 0.950 . S
C1670 C1669 1.414 . S
C1670 C1671 1.374 . S
C1671 H1651 0.950 . S
C1671 C1667 1.385 . S
C1671 C1670 1.374 . S
C1672 C1669 1.499 . S
C1672 C1673 1.373 . S
C1672 C1674 1.389 . S
C1673 H1652 0.950 . S
C1673 C1672 1.373 . S
C1673 C1689 1.377 . S
C1674 C1672 1.389 . S
C1674 C1675 1.524 . S
C1674 C1688 1.377 . S
C1675 C1674 1.524 . S
C1675 C1676 1.397 . S
C1675 C1680 1.363 . S
C1676 H1653 0.950 . S
C1676 C1675 1.397 . S
C1676 C1677 1.334 . S
C1677 H1654 0.950 . S
C1677 C1676 1.334 . S
C1677 C1678 1.287 . S
C1678 C1677 1.287 . S
C1678 C1679 1.524 . S
C1678 H1697 0.913 . S
C1679 H1655 0.950 . S
C1679 C1678 1.524 . S
C1679 C1680 1.415 . S
C1680 H1656 0.950 . S
C1680 C1675 1.363 . S
C1680 C1679 1.415 . S
C1681 H1657 0.951 . S
C1681 C1682 1.366 . S
C1681 C1683 1.388 . S
C1682 C1681 1.366 . S
C1682 C1686 1.385 . S
C1683 H1658 0.951 . S
C1683 C1681 1.388 . S
C1683 C1684 1.366 . S
C1684 C1683 1.366 . S
C1684 C1685 1.414 . S
C1684 C1687 1.499 . S
C1685 H1659 0.950 . S
C1685 C1684 1.414 . S
C1685 C1686 1.374 . S
C1686 H1660 0.950 . S
C1686 C1682 1.385 . S
C1686 C1685 1.374 . S
C1687 C1684 1.499 . S
C1687 C1688 1.373 . S
C1687 C1689 1.389 . S
C1688 H1661 0.950 . S
C1688 C1674 1.377 . S
C1688 C1687 1.373 . S
C1689 C1673 1.377 . S
C1689 C1687 1.389 . S
C1689 C1690 1.524 . S
C1690 C1689 1.524 . S
C1690 C1691 1.397 . S
C1690 C1695 1.363 . S
C1691 H1662 0.950 . S
C1691 C1690 1.397 . S
C1691 C1692 1.334 . S
C1692 H1663 0.950 . S
C1692 C1691 1.334 . S
C1692 C1693 1.287 . S
C1693 C1692 1.287 . S
C1693 C1694 1.524 . S
C1693 H1696 0.999 . S
C1694 H1664 0.950 . S
C1694 C1693 1.524 . S
C1694 C1695 1.415 . S
C1695 H1665 0.950 . S
C1695 C1690 1.363 . S
C1695 C1694 1.415 . S
H1696 C1693 0.999 . S
H1697 C1678 0.913 . S
H1698 C1716 0.951 . S
H1699 C1718 0.970 . S
H1700 C1720 0.950 . S
H1701 C1721 0.950 . S
H1702 C1723 0.950 . S
H1703 C1726 0.950 . S
H1704 C1727 0.950 . S
H1705 C1729 0.950 . S
H1706 C1730 0.950 . S
H1707 C1731 0.951 . S
H1708 C1733 0.970 . S
H1709 C1735 0.950 . S
H1710 C1736 0.950 . S
H1711 C1738 0.950 . S
H1712 C1741 0.950 . S
H1713 C1742 0.950 . S
H1714 C1744 0.950 . S
H1715 C1745 0.950 . S
C1716 H1698 0.951 . S
C1716 C1717 1.366 . S
C1716 C1718 1.388 . S
C1717 C1716 1.366 . S
C1717 C1721 1.385 . S
C1718 H1699 0.970 . S
C1718 C1716 1.388 . S
C1718 C1719 1.366 . S
C1719 C1718 1.366 . S
C1719 C1720 1.414 . S
C1719 C1722 1.499 . S
C1720 H1700 0.950 . S
C1720 C1719 1.414 . S
C1720 C1721 1.374 . S
C1721 H1701 0.950 . S
C1721 C1717 1.385 . S
C1721 C1720 1.374 . S
C1722 C1719 1.499 . S
C1722 C1723 1.373 . S
C1722 C1724 1.389 1_565 S
C1723 H1702 0.950 . S
C1723 C1722 1.373 . S
C1723 C1739 1.377 . S
C1724 C1722 1.389 1_545 S
C1724 C1725 1.524 . S
C1724 C1738 1.377 . S
C1725 C1724 1.524 . S
C1725 C1726 1.397 . S
C1725 C1730 1.363 . S
C1726 H1703 0.950 . S
C1726 C1725 1.397 . S
C1726 C1727 1.334 . S
C1727 H1704 0.950 . S
C1727 C1726 1.334 . S
C1727 C1728 1.287 . S
C1728 C1727 1.287 . S
C1728 C1729 1.524 . S
C1728 H1747 0.913 . S
C1729 H1705 0.950 . S
C1729 C1728 1.524 . S
C1729 C1730 1.415 . S
C1730 H1706 0.950 . S
C1730 C1725 1.363 . S
C1730 C1729 1.415 . S
C1731 H1707 0.951 . S
C1731 C1732 1.366 . S
C1731 C1733 1.388 . S
C1732 C1731 1.366 . S
C1732 C1736 1.385 . S
C1733 H1708 0.970 . S
C1733 C1731 1.388 . S
C1733 C1734 1.366 . S
C1734 C1733 1.366 . S
C1734 C1735 1.414 . S
C1734 C1737 1.499 . S
C1735 H1709 0.950 . S
C1735 C1734 1.414 . S
C1735 C1736 1.374 . S
C1736 H1710 0.950 . S
C1736 C1732 1.385 . S
C1736 C1735 1.374 . S
C1737 C1734 1.499 . S
C1737 C1738 1.373 . S
C1737 C1739 1.389 1_545 S
C1738 H1711 0.950 . S
C1738 C1724 1.377 . S
C1738 C1737 1.373 . S
C1739 C1723 1.377 . S
C1739 C1737 1.389 1_565 S
C1739 C1740 1.524 . S
C1740 C1739 1.524 . S
C1740 C1741 1.397 . S
C1740 C1745 1.363 . S
C1741 H1712 0.950 . S
C1741 C1740 1.397 . S
C1741 C1742 1.334 . S
C1742 H1713 0.950 . S
C1742 C1741 1.334 . S
C1742 C1743 1.287 . S
C1743 C1742 1.287 . S
C1743 C1744 1.524 . S
C1743 H1746 0.999 . S
C1744 H1714 0.950 . S
C1744 C1743 1.524 . S
C1744 C1745 1.415 . S
C1745 H1715 0.950 . S
C1745 C1740 1.363 . S
C1745 C1744 1.415 . S
H1746 C1743 0.999 . S
H1747 C1728 0.913 . S
H1748 C1766 0.951 . S
H1749 C1768 0.951 . S
H1750 C1770 0.950 . S
H1751 C1771 0.950 . S
H1752 C1773 0.950 . S
H1753 C1776 0.950 . S
H1754 C1777 0.950 . S
H1755 C1779 0.950 . S
H1756 C1780 0.950 . S
H1757 C1781 0.951 . S
H1758 C1783 0.951 . S
H1759 C1785 0.950 . S
H1760 C1786 0.950 . S
H1761 C1788 0.950 . S
H1762 C1791 0.950 . S
H1763 C1792 0.950 . S
H1764 C1794 0.950 . S
H1765 C1795 0.950 . S
C1766 H1748 0.951 . S
C1766 C1767 1.366 . S
C1766 C1768 1.388 . S
C1767 C1766 1.366 . S
C1767 C1771 1.385 . S
C1768 H1749 0.951 . S
C1768 C1766 1.388 . S
C1768 C1769 1.366 . S
C1769 C1768 1.366 . S
C1769 C1770 1.414 . S
C1769 C1772 1.499 . S
C1770 H1750 0.950 . S
C1770 C1769 1.414 . S
C1770 C1771 1.374 . S
C1771 H1751 0.950 . S
C1771 C1767 1.385 . S
C1771 C1770 1.374 . S
C1772 C1769 1.499 . S
C1772 C1773 1.373 . S
C1772 C1774 1.389 . S
C1773 H1752 0.950 . S
C1773 C1772 1.373 . S
C1773 C1789 1.377 . S
C1774 C1772 1.389 . S
C1774 C1775 1.524 . S
C1774 C1788 1.377 . S
C1775 C1774 1.524 . S
C1775 C1776 1.397 . S
C1775 C1780 1.363 . S
C1776 H1753 0.950 . S
C1776 C1775 1.397 . S
C1776 C1777 1.334 . S
C1777 H1754 0.950 . S
C1777 C1776 1.334 . S
C1777 C1778 1.287 . S
C1778 C1777 1.287 . S
C1778 C1779 1.524 . S
C1778 H1797 0.913 . S
C1779 H1755 0.950 . S
C1779 C1778 1.524 . S
C1779 C1780 1.415 . S
C1780 H1756 0.950 . S
C1780 C1775 1.363 . S
C1780 C1779 1.415 . S
C1781 H1757 0.951 . S
C1781 C1782 1.366 . S
C1781 C1783 1.388 . S
C1782 C1781 1.366 . S
C1782 C1786 1.385 . S
C1783 H1758 0.951 . S
C1783 C1781 1.388 . S
C1783 C1784 1.366 . S
C1784 C1783 1.366 . S
C1784 C1785 1.414 . S
C1784 C1787 1.499 . S
C1785 H1759 0.950 . S
C1785 C1784 1.414 . S
C1785 C1786 1.374 . S
C1786 H1760 0.950 . S
C1786 C1782 1.385 . S
C1786 C1785 1.374 . S
C1787 C1784 1.499 . S
C1787 C1788 1.373 . S
C1787 C1789 1.389 . S
C1788 H1761 0.950 . S
C1788 C1774 1.377 . S
C1788 C1787 1.373 . S
C1789 C1773 1.377 . S
C1789 C1787 1.389 . S
C1789 C1790 1.524 . S
C1790 C1789 1.524 . S
C1790 C1791 1.397 . S
C1790 C1795 1.363 . S
C1791 H1762 0.950 . S
C1791 C1790 1.397 . S
C1791 C1792 1.334 . S
C1792 H1763 0.950 . S
C1792 C1791 1.334 . S
C1792 C1793 1.287 . S
C1793 C1792 1.287 . S
C1793 C1794 1.524 . S
C1793 H1796 0.999 . S
C1794 H1764 0.950 . S
C1794 C1793 1.524 . S
C1794 C1795 1.415 . S
C1795 H1765 0.950 . S
C1795 C1790 1.363 . S
C1795 C1794 1.415 . S
H1796 C1793 0.999 . S
H1797 C1778 0.913 . S
H1798 C1816 0.951 . S
H1799 C1818 0.951 . S
H1800 C1820 0.950 . S
H1801 C1821 0.950 . S
H1802 C1823 0.950 . S
H1803 C1826 0.950 . S
H1804 C1827 0.950 . S
H1805 C1829 0.950 . S
H1806 C1830 0.950 . S
H1807 C1831 0.951 . S
H1808 C1833 0.951 . S
H1809 C1835 0.950 . S
H1810 C1836 0.950 . S
H1811 C1838 0.950 . S
H1812 C1841 0.950 . S
H1813 C1842 0.950 . S
H1814 C1844 0.950 . S
H1815 C1845 0.950 . S
C1816 H1798 0.951 . S
C1816 C1817 1.366 . S
C1816 C1818 1.388 . S
C1817 C1816 1.366 . S
C1817 C1821 1.385 . S
C1818 H1799 0.951 . S
C1818 C1816 1.388 . S
C1818 C1819 1.366 . S
C1819 C1818 1.366 . S
C1819 C1820 1.414 . S
C1819 C1822 1.499 . S
C1820 H1800 0.950 . S
C1820 C1819 1.414 . S
C1820 C1821 1.374 . S
C1821 H1801 0.950 . S
C1821 C1817 1.385 . S
C1821 C1820 1.374 . S
C1822 C1819 1.499 . S
C1822 C1823 1.373 1_565 S
C1822 C1824 1.389 . S
C1823 H1802 0.950 . S
C1823 C1822 1.373 1_545 S
C1823 C1839 1.377 . S
C1824 C1822 1.389 . S
C1824 C1825 1.524 . S
C1824 C1838 1.377 . S
C1825 C1824 1.524 . S
C1825 C1826 1.397 . S
C1825 C1830 1.363 . S
C1826 H1803 0.950 . S
C1826 C1825 1.397 . S
C1826 C1827 1.334 . S
C1827 H1804 0.950 . S
C1827 C1826 1.334 . S
C1827 C1828 1.287 . S
C1828 C1827 1.287 . S
C1828 C1829 1.524 . S
C1828 H1847 0.913 . S
C1829 H1805 0.950 . S
C1829 C1828 1.524 . S
C1829 C1830 1.415 . S
C1830 H1806 0.950 . S
C1830 C1825 1.363 . S
C1830 C1829 1.415 . S
C1831 H1807 0.951 . S
C1831 C1832 1.366 . S
C1831 C1833 1.388 . S
C1832 C1831 1.366 . S
C1832 C1836 1.385 . S
C1833 H1808 0.951 . S
C1833 C1831 1.388 . S
C1833 C1834 1.366 . S
C1834 C1833 1.366 . S
C1834 C1835 1.414 . S
C1834 C1837 1.499 . S
C1835 H1809 0.950 . S
C1835 C1834 1.414 . S
C1835 C1836 1.374 . S
C1836 H1810 0.950 . S
C1836 C1832 1.385 . S
C1836 C1835 1.374 . S
C1837 C1834 1.499 . S
C1837 C1838 1.373 1_545 S
C1837 C1839 1.389 . S
C1838 H1811 0.950 . S
C1838 C1824 1.377 . S
C1838 C1837 1.373 1_565 S
C1839 C1823 1.377 . S
C1839 C1837 1.389 . S
C1839 C1840 1.524 . S
C1840 C1839 1.524 . S
C1840 C1841 1.397 . S
C1840 C1845 1.363 . S
C1841 H1812 0.950 . S
C1841 C1840 1.397 . S
C1841 C1842 1.334 . S
C1842 H1813 0.950 . S
C1842 C1841 1.334 . S
C1842 C1843 1.287 . S
C1843 C1842 1.287 . S
C1843 C1844 1.524 . S
C1843 H1846 0.999 . S
C1844 H1814 0.950 . S
C1844 C1843 1.524 . S
C1844 C1845 1.415 . S
C1845 H1815 0.950 . S
C1845 C1840 1.363 . S
C1845 C1844 1.415 . S
H1846 C1843 0.999 . S
H1847 C1828 0.913 . S
H1848 C1866 0.951 . S
H1849 C1868 0.951 . S
H1850 C1870 0.950 . S
H1851 C1871 0.950 . S
H1852 C1873 0.950 . S
H1853 C1876 0.950 . S
H1854 C1877 0.950 . S
H1855 C1879 0.950 . S
H1856 C1880 0.950 . S
H1857 C1881 0.951 . S
H1858 C1883 0.951 . S
H1859 C1885 0.950 . S
H1860 C1886 0.950 . S
H1861 C1888 0.950 . S
H1862 C1891 0.950 . S
H1863 C1892 0.950 . S
H1864 C1894 0.950 . S
H1865 C1895 0.950 . S
C1866 H1848 0.951 . S
C1866 C1867 1.366 . S
C1866 C1868 1.388 . S
C1867 C1866 1.366 . S
C1867 C1871 1.385 . S
C1868 H1849 0.951 . S
C1868 C1866 1.388 . S
C1868 C1869 1.366 . S
C1869 C1868 1.366 . S
C1869 C1870 1.414 . S
C1869 C1872 1.499 . S
C1870 H1850 0.950 . S
C1870 C1869 1.414 . S
C1870 C1871 1.374 . S
C1871 H1851 0.950 . S
C1871 C1867 1.385 . S
C1871 C1870 1.374 . S
C1872 C1869 1.499 . S
C1872 C1873 1.373 . S
C1872 C1874 1.389 . S
C1873 H1852 0.950 . S
C1873 C1872 1.373 . S
C1873 C1889 1.377 . S
C1874 C1872 1.389 . S
C1874 C1875 1.524 . S
C1874 C1888 1.377 . S
C1875 C1874 1.524 . S
C1875 C1876 1.397 . S
C1875 C1880 1.363 . S
C1876 H1853 0.950 . S
C1876 C1875 1.397 . S
C1876 C1877 1.334 . S
C1877 H1854 0.950 . S
C1877 C1876 1.334 . S
C1877 C1878 1.287 . S
C1878 C1877 1.287 . S
C1878 C1879 1.524 . S
C1878 H1897 0.913 . S
C1879 H1855 0.950 . S
C1879 C1878 1.524 . S
C1879 C1880 1.415 . S
C1880 H1856 0.950 . S
C1880 C1875 1.363 . S
C1880 C1879 1.415 . S
C1881 H1857 0.951 . S
C1881 C1882 1.366 . S
C1881 C1883 1.388 . S
C1882 C1881 1.366 . S
C1882 C1886 1.385 . S
C1883 H1858 0.951 . S
C1883 C1881 1.388 . S
C1883 C1884 1.366 . S
C1884 C1883 1.366 . S
C1884 C1885 1.414 . S
C1884 C1887 1.499 . S
C1885 H1859 0.950 . S
C1885 C1884 1.414 . S
C1885 C1886 1.374 . S
C1886 H1860 0.950 . S
C1886 C1882 1.385 . S
C1886 C1885 1.374 . S
C1887 C1884 1.499 . S
C1887 C1888 1.373 . S
C1887 C1889 1.389 . S
C1888 H1861 0.950 . S
C1888 C1874 1.377 . S
C1888 C1887 1.373 . S
C1889 C1873 1.377 . S
C1889 C1887 1.389 . S
C1889 C1890 1.524 . S
C1890 C1889 1.524 . S
C1890 C1891 1.397 . S
C1890 C1895 1.363 . S
C1891 H1862 0.950 . S
C1891 C1890 1.397 . S
C1891 C1892 1.334 . S
C1892 H1863 0.950 . S
C1892 C1891 1.334 . S
C1892 C1893 1.287 . S
C1893 C1892 1.287 . S
C1893 C1894 1.524 . S
C1893 H1896 0.999 . S
C1894 H1864 0.950 . S
C1894 C1893 1.524 . S
C1894 C1895 1.415 . S
C1895 H1865 0.950 . S
C1895 C1890 1.363 . S
C1895 C1894 1.415 . S
H1896 C1893 0.999 . S
H1897 C1878 0.913 . S
H1898 C1916 0.951 . S
H1899 C1918 0.951 . S
H1900 C1920 0.950 . S
H1901 C1921 0.950 . S
H1902 C1923 0.950 . S
H1903 C1926 0.950 . S
H1904 C1927 0.950 . S
H1905 C1929 0.950 . S
H1906 C1930 0.950 . S
H1907 C1931 0.951 . S
H1908 C1933 0.951 . S
H1909 C1935 0.950 . S
H1910 C1936 0.950 . S
H1911 C1938 0.950 . S
H1912 C1941 0.950 . S
H1913 C1942 0.950 . S
H1914 C1944 0.950 . S
H1915 C1945 0.950 . S
C1916 H1898 0.951 . S
C1916 C1917 1.366 . S
C1916 C1918 1.388 . S
C1917 C1916 1.366 . S
C1917 C1921 1.385 . S
C1918 H1899 0.951 . S
C1918 C1916 1.388 . S
C1918 C1919 1.366 . S
C1919 C1918 1.366 . S
C1919 C1920 1.414 . S
C1919 C1922 1.499 . S
C1920 H1900 0.950 . S
C1920 C1919 1.414 . S
C1920 C1921 1.374 . S
C1921 H1901 0.950 . S
C1921 C1917 1.385 . S
C1921 C1920 1.374 . S
C1922 C1919 1.499 . S
C1922 C1923 1.373 . S
C1922 C1924 1.389 . S
C1923 H1902 0.950 . S
C1923 C1922 1.373 . S
C1923 C1939 1.377 . S
C1924 C1922 1.389 . S
C1924 C1925 1.524 . S
C1924 C1938 1.377 . S
C1925 C1924 1.524 . S
C1925 C1926 1.397 . S
C1925 C1930 1.363 . S
C1926 H1903 0.950 . S
C1926 C1925 1.397 . S
C1926 C1927 1.334 . S
C1927 H1904 0.950 . S
C1927 C1926 1.334 . S
C1927 C1928 1.287 . S
C1928 C1927 1.287 . S
C1928 C1929 1.524 . S
C1928 H1947 0.913 . S
C1929 H1905 0.950 . S
C1929 C1928 1.524 . S
C1929 C1930 1.415 . S
C1930 H1906 0.950 . S
C1930 C1925 1.363 . S
C1930 C1929 1.415 . S
C1931 H1907 0.951 . S
C1931 C1932 1.366 . S
C1931 C1933 1.388 . S
C1932 C1931 1.366 . S
C1932 C1936 1.385 . S
C1933 H1908 0.951 . S
C1933 C1931 1.388 . S
C1933 C1934 1.366 . S
C1934 C1933 1.366 . S
C1934 C1935 1.414 . S
C1934 C1937 1.499 . S
C1935 H1909 0.950 . S
C1935 C1934 1.414 . S
C1935 C1936 1.374 . S
C1936 H1910 0.950 . S
C1936 C1932 1.385 . S
C1936 C1935 1.374 . S
C1937 C1934 1.499 . S
C1937 C1938 1.373 . S
C1937 C1939 1.389 . S
C1938 H1911 0.950 . S
C1938 C1924 1.377 . S
C1938 C1937 1.373 . S
C1939 C1923 1.377 . S
C1939 C1937 1.389 . S
C1939 C1940 1.524 . S
C1940 C1939 1.524 . S
C1940 C1941 1.397 . S
C1940 C1945 1.363 . S
C1941 H1912 0.950 . S
C1941 C1940 1.397 . S
C1941 C1942 1.334 . S
C1942 H1913 0.950 . S
C1942 C1941 1.334 . S
C1942 C1943 1.287 . S
C1943 C1942 1.287 . S
C1943 C1944 1.524 . S
C1943 H1946 0.999 . S
C1944 H1914 0.950 . S
C1944 C1943 1.524 . S
C1944 C1945 1.415 . S
C1945 H1915 0.950 . S
C1945 C1940 1.363 . S
C1945 C1944 1.415 . S
H1946 C1943 0.999 . S
H1947 C1928 0.913 . S
H1948 C1966 0.951 . S
H1949 C1968 0.951 . S
H1950 C1970 0.950 . S
H1951 C1971 0.950 . S
H1952 C1973 0.950 . S
H1953 C1976 0.950 . S
H1954 C1977 0.950 . S
H1955 C1979 0.950 . S
H1956 C1980 0.950 . S
H1957 C1981 0.951 . S
H1958 C1983 0.951 . S
H1959 C1985 0.950 . S
H1960 C1986 0.950 . S
H1961 C1988 0.950 . S
H1962 C1991 0.950 . S
H1963 C1992 0.950 . S
H1964 C1994 0.950 . S
H1965 C1995 0.950 . S
C1966 H1948 0.951 . S
C1966 C1967 1.366 . S
C1966 C1968 1.388 . S
C1967 C1966 1.366 . S
C1967 C1971 1.385 . S
C1968 H1949 0.951 . S
C1968 C1966 1.388 . S
C1968 C1969 1.366 . S
C1969 C1968 1.366 . S
C1969 C1970 1.414 . S
C1969 C1972 1.499 . S
C1970 H1950 0.950 . S
C1970 C1969 1.414 . S
C1970 C1971 1.374 . S
C1971 H1951 0.950 . S
C1971 C1967 1.385 . S
C1971 C1970 1.374 . S
C1972 C1969 1.499 . S
C1972 C1973 1.373 . S
C1972 C1974 1.389 . S
C1973 H1952 0.950 . S
C1973 C1972 1.373 . S
C1973 C1989 1.377 . S
C1974 C1972 1.389 . S
C1974 C1975 1.524 . S
C1974 C1988 1.377 . S
C1975 C1974 1.524 . S
C1975 C1976 1.397 . S
C1975 C1980 1.363 . S
C1976 H1953 0.950 . S
C1976 C1975 1.397 . S
C1976 C1977 1.334 . S
C1977 H1954 0.950 . S
C1977 C1976 1.334 . S
C1977 C1978 1.287 . S
C1978 C1977 1.287 . S
C1978 C1979 1.524 . S
C1978 H1997 0.913 . S
C1979 H1955 0.950 . S
C1979 C1978 1.524 . S
C1979 C1980 1.415 . S
C1980 H1956 0.950 . S
C1980 C1975 1.363 . S
C1980 C1979 1.415 . S
C1981 H1957 0.951 . S
C1981 C1982 1.366 . S
C1981 C1983 1.388 . S
C1982 C1981 1.366 . S
C1982 C1986 1.385 . S
C1983 H1958 0.951 . S
C1983 C1981 1.388 . S
C1983 C1984 1.366 . S
C1984 C1983 1.366 . S
C1984 C1985 1.414 . S
C1984 C1987 1.499 . S
C1985 H1959 0.950 . S
C1985 C1984 1.414 . S
C1985 C1986 1.374 . S
C1986 H1960 0.950 . S
C1986 C1982 1.385 . S
C1986 C1985 1.374 . S
C1987 C1984 1.499 . S
C1987 C1988 1.373 . S
C1987 C1989 1.389 . S
C1988 H1961 0.950 . S
C1988 C1974 1.377 . S
C1988 C1987 1.373 . S
C1989 C1973 1.377 . S
C1989 C1987 1.389 . S
C1989 C1990 1.524 . S
C1990 C1989 1.524 . S
C1990 C1991 1.397 . S
C1990 C1995 1.363 . S
C1991 H1962 0.950 . S
C1991 C1990 1.397 . S
C1991 C1992 1.334 . S
C1992 H1963 0.950 . S
C1992 C1991 1.334 . S
C1992 C1993 1.287 . S
C1993 C1992 1.287 . S
C1993 C1994 1.524 . S
C1993 H1996 0.999 . S
C1994 H1964 0.950 . S
C1994 C1993 1.524 . S
C1994 C1995 1.415 . S
C1995 H1965 0.950 . S
C1995 C1990 1.363 . S
C1995 C1994 1.415 . S
H1996 C1993 0.999 . S
H1997 C1978 0.913 . S
H1998 C2016 0.951 . S
H1999 C2018 0.951 . S
H2000 C2020 0.950 . S
H2001 C2021 0.950 . S
H2002 C2023 0.955 . S
H2003 C2026 0.950 . S
H2004 C2027 0.950 . S
H2005 C2029 0.950 . S
H2006 C2030 0.950 . S
H2007 C2031 0.951 . S
H2008 C2033 0.951 . S
H2009 C2035 0.950 . S
H2010 C2036 0.950 . S
H2011 C2038 0.955 . S
H2012 C2041 0.950 . S
H2013 C2042 0.950 . S
H2014 C2044 0.950 . S
H2015 C2045 0.950 . S
C2016 H1998 0.951 . S
C2016 C2017 1.366 . S
C2016 C2018 1.388 . S
C2017 C2016 1.366 . S
C2017 C2021 1.385 . S
C2018 H1999 0.951 . S
C2018 C2016 1.388 . S
C2018 C2019 1.366 . S
C2019 C2018 1.366 . S
C2019 C2020 1.414 . S
C2019 C2022 1.499 . S
C2020 H2000 0.950 . S
C2020 C2019 1.414 . S
C2020 C2021 1.374 . S
C2021 H2001 0.950 . S
C2021 C2017 1.385 . S
C2021 C2020 1.374 . S
C2022 C2019 1.499 . S
C2022 C2023 1.332 1_556 S
C2022 C2024 1.389 1_545 S
C2023 H2002 0.955 . S
C2023 C2022 1.332 1_554 S
C2023 C2039 1.416 . S
C2024 C2022 1.389 1_565 S
C2024 C2025 1.524 . S
C2024 C2038 1.416 . S
C2025 C2024 1.524 . S
C2025 C2026 1.397 . S
C2025 C2030 1.363 . S
C2026 H2003 0.950 . S
C2026 C2025 1.397 . S
C2026 C2027 1.334 . S
C2027 H2004 0.950 . S
C2027 C2026 1.334 . S
C2027 C2028 1.287 . S
C2028 C2027 1.287 . S
C2028 C2029 1.524 . S
C2028 H2047 0.913 . S
C2029 H2005 0.950 . S
C2029 C2028 1.524 . S
C2029 C2030 1.415 . S
C2030 H2006 0.950 . S
C2030 C2025 1.363 . S
C2030 C2029 1.415 . S
C2031 H2007 0.951 . S
C2031 C2032 1.366 . S
C2031 C2033 1.388 . S
C2032 C2031 1.366 . S
C2032 C2036 1.385 . S
C2033 H2008 0.951 . S
C2033 C2031 1.388 . S
C2033 C2034 1.366 . S
C2034 C2033 1.366 . S
C2034 C2035 1.414 . S
C2034 C2037 1.499 . S
C2035 H2009 0.950 . S
C2035 C2034 1.414 . S
C2035 C2036 1.374 . S
C2036 H2010 0.950 . S
C2036 C2032 1.385 . S
C2036 C2035 1.374 . S
C2037 C2034 1.499 . S
C2037 C2038 1.332 1_554 S
C2037 C2039 1.389 1_565 S
C2038 H2011 0.955 . S
C2038 C2024 1.416 . S
C2038 C2037 1.332 1_556 S
C2039 C2023 1.416 . S
C2039 C2037 1.389 1_545 S
C2039 C2040 1.524 . S
C2040 C2039 1.524 . S
C2040 C2041 1.397 . S
C2040 C2045 1.363 . S
C2041 H2012 0.950 . S
C2041 C2040 1.397 . S
C2041 C2042 1.334 . S
C2042 H2013 0.950 . S
C2042 C2041 1.334 . S
C2042 C2043 1.287 . S
C2043 C2042 1.287 . S
C2043 C2044 1.524 . S
C2043 H2046 0.999 . S
C2044 H2014 0.950 . S
C2044 C2043 1.524 . S
C2044 C2045 1.415 . S
C2045 H2015 0.950 . S
C2045 C2040 1.363 . S
C2045 C2044 1.415 . S
H2046 C2043 0.999 . S
H2047 C2028 0.913 . S
H2048 C2066 0.951 . S
H2049 C2068 0.951 . S
H2050 C2070 0.950 . S
H2051 C2071 0.950 . S
H2052 C2073 0.950 . S
H2053 C2076 0.950 . S
H2054 C2077 0.950 . S
H2055 C2079 0.950 . S
H2056 C2080 0.950 . S
H2057 C2081 0.951 . S
H2058 C2083 0.951 . S
H2059 C2085 0.950 . S
H2060 C2086 0.950 . S
H2061 C2088 0.950 . S
H2062 C2091 0.950 . S
H2063 C2092 0.950 . S
H2064 C2094 0.950 . S
H2065 C2095 0.950 . S
C2066 H2048 0.951 . S
C2066 C2067 1.366 . S
C2066 C2068 1.388 . S
C2067 C2066 1.366 . S
C2067 C2071 1.385 . S
C2068 H2049 0.951 . S
C2068 C2066 1.388 . S
C2068 C2069 1.366 . S
C2069 C2068 1.366 . S
C2069 C2070 1.414 . S
C2069 C2072 1.499 . S
C2070 H2050 0.950 . S
C2070 C2069 1.414 . S
C2070 C2071 1.374 . S
C2071 H2051 0.950 . S
C2071 C2067 1.385 . S
C2071 C2070 1.374 . S
C2072 C2069 1.499 . S
C2072 C2073 1.373 . S
C2072 C2074 1.389 . S
C2073 H2052 0.950 . S
C2073 C2072 1.373 . S
C2073 C2089 1.377 . S
C2074 C2072 1.389 . S
C2074 C2075 1.524 . S
C2074 C2088 1.377 . S
C2075 C2074 1.524 . S
C2075 C2076 1.397 . S
C2075 C2080 1.363 . S
C2076 H2053 0.950 . S
C2076 C2075 1.397 . S
C2076 C2077 1.334 . S
C2077 H2054 0.950 . S
C2077 C2076 1.334 . S
C2077 C2078 1.287 . S
C2078 C2077 1.287 . S
C2078 C2079 1.524 . S
C2078 H2097 0.913 . S
C2079 H2055 0.950 . S
C2079 C2078 1.524 . S
C2079 C2080 1.415 . S
C2080 H2056 0.950 . S
C2080 C2075 1.363 . S
C2080 C2079 1.415 . S
C2081 H2057 0.951 . S
C2081 C2082 1.366 . S
C2081 C2083 1.388 . S
C2082 C2081 1.366 . S
C2082 C2086 1.385 . S
C2083 H2058 0.951 . S
C2083 C2081 1.388 . S
C2083 C2084 1.366 . S
C2084 C2083 1.366 . S
C2084 C2085 1.414 . S
C2084 C2087 1.499 . S
C2085 H2059 0.950 . S
C2085 C2084 1.414 . S
C2085 C2086 1.374 . S
C2086 H2060 0.950 . S
C2086 C2082 1.385 . S
C2086 C2085 1.374 . S
C2087 C2084 1.499 . S
C2087 C2088 1.373 . S
C2087 C2089 1.389 . S
C2088 H2061 0.950 . S
C2088 C2074 1.377 . S
C2088 C2087 1.373 . S
C2089 C2073 1.377 . S
C2089 C2087 1.389 . S
C2089 C2090 1.524 . S
C2090 C2089 1.524 . S
C2090 C2091 1.397 . S
C2090 C2095 1.363 . S
C2091 H2062 0.950 . S
C2091 C2090 1.397 . S
C2091 C2092 1.334 . S
C2092 H2063 0.950 . S
C2092 C2091 1.334 . S
C2092 C2093 1.287 . S
C2093 C2092 1.287 . S
C2093 C2094 1.524 . S
C2093 H2096 0.999 . S
C2094 H2064 0.950 . S
C2094 C2093 1.524 . S
C2094 C2095 1.415 . S
C2095 H2065 0.950 . S
C2095 C2090 1.363 . S
C2095 C2094 1.415 . S
H2096 C2093 0.999 . S
H2097 C2078 0.913 . S
H2098 C2116 0.951 . S
H2099 C2118 0.951 . S
H2100 C2120 0.950 . S
H2101 C2121 0.950 . S
H2102 C2123 0.950 . S
H2103 C2126 0.950 . S
H2104 C2127 0.950 . S
H2105 C2129 0.950 . S
H2106 C2130 0.950 . S
H2107 C2131 0.951 . S
H2108 C2133 0.951 . S
H2109 C2135 0.950 . S
H2110 C2136 0.950 . S
H2111 C2138 0.950 . S
H2112 C2141 0.950 . S
H2113 C2142 0.950 . S
H2114 C2144 0.950 1_545 S
H2115 C2145 0.950 . S
C2116 H2098 0.951 . S
C2116 C2117 1.366 . S
C2116 C2118 1.388 . S
C2117 C2116 1.366 . S
C2117 C2121 1.385 . S
C2118 H2099 0.951 . S
C2118 C2116 1.388 . S
C2118 C2119 1.366 . S
C2119 C2118 1.366 . S
C2119 C2120 1.414 . S
C2119 C2122 1.499 . S
C2120 H2100 0.950 . S
C2120 C2119 1.414 . S
C2120 C2121 1.374 . S
C2121 H2101 0.950 . S
C2121 C2117 1.385 . S
C2121 C2120 1.374 . S
C2122 C2119 1.499 . S
C2122 C2123 1.373 . S
C2122 C2124 1.389 . S
C2123 H2102 0.950 . S
C2123 C2122 1.373 . S
C2123 C2139 1.377 . S
C2124 C2122 1.389 . S
C2124 C2125 1.524 . S
C2124 C2138 1.377 . S
C2125 C2124 1.524 . S
C2125 C2126 1.397 . S
C2125 C2130 1.363 . S
C2126 H2103 0.950 . S
C2126 C2125 1.397 . S
C2126 C2127 1.334 . S
C2127 H2104 0.950 . S
C2127 C2126 1.334 . S
C2127 C2128 1.287 . S
C2128 C2127 1.287 . S
C2128 C2129 1.524 . S
C2128 H2147 0.913 . S
C2129 H2105 0.950 . S
C2129 C2128 1.524 . S
C2129 C2130 1.415 . S
C2130 H2106 0.950 . S
C2130 C2125 1.363 . S
C2130 C2129 1.415 . S
C2131 H2107 0.951 . S
C2131 C2132 1.366 . S
C2131 C2133 1.388 . S
C2132 C2131 1.366 . S
C2132 C2136 1.385 . S
C2133 H2108 0.951 . S
C2133 C2131 1.388 . S
C2133 C2134 1.366 . S
C2134 C2133 1.366 . S
C2134 C2135 1.414 . S
C2134 C2137 1.499 . S
C2135 H2109 0.950 . S
C2135 C2134 1.414 . S
C2135 C2136 1.374 . S
C2136 H2110 0.950 . S
C2136 C2132 1.385 . S
C2136 C2135 1.374 . S
C2137 C2134 1.499 . S
C2137 C2138 1.373 . S
C2137 C2139 1.389 . S
C2138 H2111 0.950 . S
C2138 C2124 1.377 . S
C2138 C2137 1.373 . S
C2139 C2123 1.377 . S
C2139 C2137 1.389 . S
C2139 C2140 1.524 . S
C2140 C2139 1.524 . S
C2140 C2141 1.397 . S
C2140 C2145 1.363 . S
C2141 H2112 0.950 . S
C2141 C2140 1.397 . S
C2141 C2142 1.334 . S
C2142 H2113 0.950 . S
C2142 C2141 1.334 . S
C2142 C2143 1.287 . S
C2143 C2142 1.287 . S
C2143 C2144 1.524 . S
C2143 H2146 0.999 1_565 S
C2144 H2114 0.950 1_565 S
C2144 C2143 1.524 . S
C2144 C2145 1.415 . S
C2145 H2115 0.950 . S
C2145 C2140 1.363 . S
C2145 C2144 1.415 . S
H2146 C2143 0.999 1_545 S
H2147 C2128 0.913 . S
H2148 C2166 0.951 . S
H2149 C2168 0.951 . S
H2150 C2170 0.950 . S
H2151 C2171 0.950 . S
H2152 C2173 0.950 . S
H2153 C2176 0.950 . S
H2154 C2177 0.950 . S
H2155 C2179 0.950 . S
H2156 C2180 0.950 . S
H2157 C2181 0.951 . S
H2158 C2183 0.951 . S
H2159 C2185 0.950 . S
H2160 C2186 0.950 . S
H2161 C2188 0.950 . S
H2162 C2191 0.950 . S
H2163 C2192 0.950 . S
H2164 C2194 0.950 . S
H2165 C2195 0.950 . S
C2166 H2148 0.951 . S
C2166 C2167 1.366 . S
C2166 C2168 1.388 . S
C2167 C2166 1.366 . S
C2167 C2171 1.385 . S
C2168 H2149 0.951 . S
C2168 C2166 1.388 . S
C2168 C2169 1.366 . S
C2169 C2168 1.366 . S
C2169 C2170 1.414 . S
C2169 C2172 1.499 . S
C2170 H2150 0.950 . S
C2170 C2169 1.414 . S
C2170 C2171 1.374 . S
C2171 H2151 0.950 . S
C2171 C2167 1.385 . S
C2171 C2170 1.374 . S
C2172 C2169 1.499 . S
C2172 C2173 1.373 . S
C2172 C2174 1.389 . S
C2173 H2152 0.950 . S
C2173 C2172 1.373 . S
C2173 C2189 1.377 . S
C2174 C2172 1.389 . S
C2174 C2175 1.524 . S
C2174 C2188 1.377 . S
C2175 C2174 1.524 . S
C2175 C2176 1.397 . S
C2175 C2180 1.363 . S
C2176 H2153 0.950 . S
C2176 C2175 1.397 . S
C2176 C2177 1.334 . S
C2177 H2154 0.950 . S
C2177 C2176 1.334 . S
C2177 C2178 1.287 . S
C2178 C2177 1.287 . S
C2178 C2179 1.524 . S
C2178 H2197 0.913 . S
C2179 H2155 0.950 . S
C2179 C2178 1.524 . S
C2179 C2180 1.415 . S
C2180 H2156 0.950 . S
C2180 C2175 1.363 . S
C2180 C2179 1.415 . S
C2181 H2157 0.951 . S
C2181 C2182 1.366 . S
C2181 C2183 1.388 . S
C2182 C2181 1.366 . S
C2182 C2186 1.385 . S
C2183 H2158 0.951 . S
C2183 C2181 1.388 . S
C2183 C2184 1.366 . S
C2184 C2183 1.366 . S
C2184 C2185 1.414 . S
C2184 C2187 1.499 . S
C2185 H2159 0.950 . S
C2185 C2184 1.414 . S
C2185 C2186 1.374 . S
C2186 H2160 0.950 . S
C2186 C2182 1.385 . S
C2186 C2185 1.374 . S
C2187 C2184 1.499 . S
C2187 C2188 1.373 . S
C2187 C2189 1.389 . S
C2188 H2161 0.950 . S
C2188 C2174 1.377 . S
C2188 C2187 1.373 . S
C2189 C2173 1.377 . S
C2189 C2187 1.389 . S
C2189 C2190 1.524 . S
C2190 C2189 1.524 . S
C2190 C2191 1.397 . S
C2190 C2195 1.363 . S
C2191 H2162 0.950 . S
C2191 C2190 1.397 . S
C2191 C2192 1.334 . S
C2192 H2163 0.950 . S
C2192 C2191 1.334 . S
C2192 C2193 1.287 . S
C2193 C2192 1.287 . S
C2193 C2194 1.524 . S
C2193 H2196 0.999 . S
C2194 H2164 0.950 . S
C2194 C2193 1.524 . S
C2194 C2195 1.415 . S
C2195 H2165 0.950 . S
C2195 C2190 1.363 . S
C2195 C2194 1.415 . S
H2196 C2193 0.999 . S
H2197 C2178 0.913 . S
H2198 C2216 0.951 . S
H2199 C2218 0.951 . S
H2200 C2220 0.950 . S
H2201 C2221 0.950 . S
H2202 C2223 0.950 . S
H2203 C2226 0.950 . S
H2204 C2227 0.950 . S
H2205 C2229 0.950 . S
H2206 C2230 0.950 . S
H2207 C2231 0.951 . S
H2208 C2233 0.951 . S
H2209 C2235 0.950 . S
H2210 C2236 0.950 . S
H2211 C2238 0.950 . S
H2212 C2241 0.950 . S
H2213 C2242 0.950 . S
H2214 C2244 0.950 . S
H2215 C2245 0.950 . S
C2216 H2198 0.951 . S
C2216 C2217 1.366 . S
C2216 C2218 1.388 . S
C2217 C2216 1.366 . S
C2217 C2221 1.385 . S
C2218 H2199 0.951 . S
C2218 C2216 1.388 . S
C2218 C2219 1.366 . S
C2219 C2218 1.366 . S
C2219 C2220 1.414 . S
C2219 C2222 1.499 . S
C2220 H2200 0.950 . S
C2220 C2219 1.414 . S
C2220 C2221 1.374 . S
C2221 H2201 0.950 . S
C2221 C2217 1.385 . S
C2221 C2220 1.374 . S
C2222 C2219 1.499 . S
C2222 C2223 1.373 . S
C2222 C2224 1.389 . S
C2223 H2202 0.950 . S
C2223 C2222 1.373 . S
C2223 C2239 1.377 . S
C2224 C2222 1.389 . S
C2224 C2225 1.524 . S
C2224 C2238 1.377 . S
C2225 C2224 1.524 . S
C2225 C2226 1.397 . S
C2225 C2230 1.363 . S
C2226 H2203 0.950 . S
C2226 C2225 1.397 . S
C2226 C2227 1.334 . S
C2227 H2204 0.950 . S
C2227 C2226 1.334 . S
C2227 C2228 1.287 . S
C2228 C2227 1.287 . S
C2228 C2229 1.524 . S
C2228 H2247 0.913 . S
C2229 H2205 0.950 . S
C2229 C2228 1.524 . S
C2229 C2230 1.415 . S
C2230 H2206 0.950 . S
C2230 C2225 1.363 . S
C2230 C2229 1.415 . S
C2231 H2207 0.951 . S
C2231 C2232 1.366 . S
C2231 C2233 1.388 . S
C2232 C2231 1.366 . S
C2232 C2236 1.385 . S
C2233 H2208 0.951 . S
C2233 C2231 1.388 . S
C2233 C2234 1.366 . S
C2234 C2233 1.366 . S
C2234 C2235 1.414 . S
C2234 C2237 1.499 . S
C2235 H2209 0.950 . S
C2235 C2234 1.414 . S
C2235 C2236 1.374 . S
C2236 H2210 0.950 . S
C2236 C2232 1.385 . S
C2236 C2235 1.374 . S
C2237 C2234 1.499 . S
C2237 C2238 1.373 . S
C2237 C2239 1.389 . S
C2238 H2211 0.950 . S
C2238 C2224 1.377 . S
C2238 C2237 1.373 . S
C2239 C2223 1.377 . S
C2239 C2237 1.389 . S
C2239 C2240 1.524 . S
C2240 C2239 1.524 . S
C2240 C2241 1.397 . S
C2240 C2245 1.363 . S
C2241 H2212 0.950 . S
C2241 C2240 1.397 . S
C2241 C2242 1.334 . S
C2242 H2213 0.950 . S
C2242 C2241 1.334 . S
C2242 C2243 1.287 . S
C2243 C2242 1.287 . S
C2243 C2244 1.524 . S
C2243 H2246 0.999 . S
C2244 H2214 0.950 . S
C2244 C2243 1.524 . S
C2244 C2245 1.415 . S
C2245 H2215 0.950 . S
C2245 C2240 1.363 . S
C2245 C2244 1.415 . S
H2246 C2243 0.999 . S
H2247 C2228 0.913 . S
H2248 C2266 0.951 . S
H2249 C2268 0.951 . S
H2250 C2270 0.950 . S
H2251 C2271 0.950 . S
H2252 C2273 0.950 . S
H2253 C2276 0.950 . S
H2254 C2277 0.950 . S
H2255 C2279 0.950 . S
H2256 C2280 0.950 . S
H2257 C2281 0.951 . S
H2258 C2283 0.951 . S
H2259 C2285 0.950 . S
H2260 C2286 0.950 . S
H2261 C2288 0.950 . S
H2262 C2291 0.950 . S
H2263 C2292 0.950 . S
H2264 C2294 0.950 . S
H2265 C2295 0.950 . S
C2266 H2248 0.951 . S
C2266 C2267 1.366 . S
C2266 C2268 1.388 . S
C2267 C2266 1.366 . S
C2267 C2271 1.385 . S
C2268 H2249 0.951 . S
C2268 C2266 1.388 . S
C2268 C2269 1.366 . S
C2269 C2268 1.366 . S
C2269 C2270 1.414 . S
C2269 C2272 1.499 . S
C2270 H2250 0.950 . S
C2270 C2269 1.414 . S
C2270 C2271 1.374 . S
C2271 H2251 0.950 . S
C2271 C2267 1.385 . S
C2271 C2270 1.374 . S
C2272 C2269 1.499 . S
C2272 C2273 1.373 . S
C2272 C2274 1.389 . S
C2273 H2252 0.950 . S
C2273 C2272 1.373 . S
C2273 C2289 1.377 . S
C2274 C2272 1.389 . S
C2274 C2275 1.524 . S
C2274 C2288 1.377 . S
C2275 C2274 1.524 . S
C2275 C2276 1.397 . S
C2275 C2280 1.363 . S
C2276 H2253 0.950 . S
C2276 C2275 1.397 . S
C2276 C2277 1.334 . S
C2277 H2254 0.950 . S
C2277 C2276 1.334 . S
C2277 C2278 1.287 . S
C2278 C2277 1.287 . S
C2278 C2279 1.524 . S
C2278 H2297 0.913 . S
C2279 H2255 0.950 . S
C2279 C2278 1.524 . S
C2279 C2280 1.415 . S
C2280 H2256 0.950 . S
C2280 C2275 1.363 . S
C2280 C2279 1.415 . S
C2281 H2257 0.951 . S
C2281 C2282 1.366 . S
C2281 C2283 1.388 . S
C2282 C2281 1.366 . S
C2282 C2286 1.385 . S
C2283 H2258 0.951 . S
C2283 C2281 1.388 . S
C2283 C2284 1.366 . S
C2284 C2283 1.366 . S
C2284 C2285 1.414 . S
C2284 C2287 1.499 . S
C2285 H2259 0.950 . S
C2285 C2284 1.414 . S
C2285 C2286 1.374 . S
C2286 H2260 0.950 . S
C2286 C2282 1.385 . S
C2286 C2285 1.374 . S
C2287 C2284 1.499 . S
C2287 C2288 1.373 . S
C2287 C2289 1.389 . S
C2288 H2261 0.950 . S
C2288 C2274 1.377 . S
C2288 C2287 1.373 . S
C2289 C2273 1.377 . S
C2289 C2287 1.389 . S
C2289 C2290 1.524 . S
C2290 C2289 1.524 . S
C2290 C2291 1.397 . S
C2290 C2295 1.363 . S
C2291 H2262 0.950 . S
C2291 C2290 1.397 . S
C2291 C2292 1.334 1_565 S
C2292 H2263 0.950 . S
C2292 C2291 1.334 1_545 S
C2292 C2293 1.287 . S
C2293 C2292 1.287 . S
C2293 C2294 1.524 1_545 S
C2293 H2296 0.999 . S
C2294 H2264 0.950 . S
C2294 C2293 1.524 1_565 S
C2294 C2295 1.415 . S
C2295 H2265 0.950 . S
C2295 C2290 1.363 . S
C2295 C2294 1.415 . S
H2296 C2293 0.999 . S
H2297 C2278 0.913 . S
H2298 C2316 0.951 . S
H2299 C2318 0.951 . S
H2300 C2320 0.950 . S
H2301 C2321 0.950 . S
H2302 C2323 0.950 . S
H2303 C2326 0.950 . S
H2304 C2327 0.950 . S
H2305 C2329 0.950 . S
H2306 C2330 0.950 . S
H2307 C2331 0.951 . S
H2308 C2333 0.951 . S
H2309 C2335 0.950 . S
H2310 C2336 0.950 . S
H2311 C2338 0.950 . S
H2312 C2341 0.950 . S
H2313 C2342 0.950 . S
H2314 C2344 0.950 . S
H2315 C2345 0.950 . S
C2316 H2298 0.951 . S
C2316 C2317 1.366 . S
C2316 C2318 1.388 . S
C2317 C2316 1.366 . S
C2317 C2321 1.385 . S
C2318 H2299 0.951 . S
C2318 C2316 1.388 . S
C2318 C2319 1.366 . S
C2319 C2318 1.366 . S
C2319 C2320 1.414 . S
C2319 C2322 1.499 . S
C2320 H2300 0.950 . S
C2320 C2319 1.414 . S
C2320 C2321 1.374 . S
C2321 H2301 0.950 . S
C2321 C2317 1.385 . S
C2321 C2320 1.374 . S
C2322 C2319 1.499 . S
C2322 C2323 1.373 . S
C2322 C2324 1.389 . S
C2323 H2302 0.950 . S
C2323 C2322 1.373 . S
C2323 C2339 1.377 . S
C2324 C2322 1.389 . S
C2324 C2325 1.524 . S
C2324 C2338 1.377 . S
C2325 C2324 1.524 . S
C2325 C2326 1.397 . S
C2325 C2330 1.363 . S
C2326 H2303 0.950 . S
C2326 C2325 1.397 . S
C2326 C2327 1.334 . S
C2327 H2304 0.950 . S
C2327 C2326 1.334 . S
C2327 C2328 1.287 . S
C2328 C2327 1.287 . S
C2328 C2329 1.524 . S
C2328 H2347 0.913 . S
C2329 H2305 0.950 . S
C2329 C2328 1.524 . S
C2329 C2330 1.415 . S
C2330 H2306 0.950 . S
C2330 C2325 1.363 . S
C2330 C2329 1.415 . S
C2331 H2307 0.951 . S
C2331 C2332 1.366 . S
C2331 C2333 1.388 . S
C2332 C2331 1.366 . S
C2332 C2336 1.385 . S
C2333 H2308 0.951 . S
C2333 C2331 1.388 . S
C2333 C2334 1.366 . S
C2334 C2333 1.366 . S
C2334 C2335 1.414 . S
C2334 C2337 1.499 . S
C2335 H2309 0.950 . S
C2335 C2334 1.414 . S
C2335 C2336 1.374 . S
C2336 H2310 0.950 . S
C2336 C2332 1.385 . S
C2336 C2335 1.374 . S
C2337 C2334 1.499 . S
C2337 C2338 1.373 . S
C2337 C2339 1.389 . S
C2338 H2311 0.950 . S
C2338 C2324 1.377 . S
C2338 C2337 1.373 . S
C2339 C2323 1.377 . S
C2339 C2337 1.389 . S
C2339 C2340 1.524 . S
C2340 C2339 1.524 . S
C2340 C2341 1.397 . S
C2340 C2345 1.363 . S
C2341 H2312 0.950 . S
C2341 C2340 1.397 . S
C2341 C2342 1.334 . S
C2342 H2313 0.950 . S
C2342 C2341 1.334 . S
C2342 C2343 1.287 . S
C2343 C2342 1.287 . S
C2343 C2344 1.524 . S
C2343 H2346 0.999 . S
C2344 H2314 0.950 . S
C2344 C2343 1.524 . S
C2344 C2345 1.415 . S
C2345 H2315 0.950 . S
C2345 C2340 1.363 . S
C2345 C2344 1.415 . S
H2346 C2343 0.999 . S
H2347 C2328 0.913 . S
H2348 C2366 0.951 . S
H2349 C2368 0.951 . S
H2350 C2370 0.950 . S
H2351 C2371 0.950 . S
H2352 C2373 0.950 . S
H2353 C2376 0.950 . S
H2354 C2377 0.950 . S
H2355 C2379 0.950 . S
H2356 C2380 0.950 . S
H2357 C2381 0.951 . S
H2358 C2383 0.951 . S
H2359 C2385 0.950 . S
H2360 C2386 0.950 . S
H2361 C2388 0.950 . S
H2362 C2391 0.950 . S
H2363 C2392 0.950 . S
H2364 C2394 0.950 . S
H2365 C2395 0.950 . S
C2366 H2348 0.951 . S
C2366 C2367 1.366 . S
C2366 C2368 1.388 . S
C2367 C2366 1.366 . S
C2367 C2371 1.385 . S
C2368 H2349 0.951 . S
C2368 C2366 1.388 . S
C2368 C2369 1.366 . S
C2369 C2368 1.366 . S
C2369 C2370 1.414 . S
C2369 C2372 1.499 . S
C2370 H2350 0.950 . S
C2370 C2369 1.414 . S
C2370 C2371 1.374 . S
C2371 H2351 0.950 . S
C2371 C2367 1.385 . S
C2371 C2370 1.374 . S
C2372 C2369 1.499 . S
C2372 C2373 1.373 . S
C2372 C2374 1.389 . S
C2373 H2352 0.950 . S
C2373 C2372 1.373 . S
C2373 C2389 1.377 . S
C2374 C2372 1.389 . S
C2374 C2375 1.524 . S
C2374 C2388 1.377 . S
C2375 C2374 1.524 . S
C2375 C2376 1.397 . S
C2375 C2380 1.363 . S
C2376 H2353 0.950 . S
C2376 C2375 1.397 . S
C2376 C2377 1.334 . S
C2377 H2354 0.950 . S
C2377 C2376 1.334 . S
C2377 C2378 1.287 . S
C2378 C2377 1.287 . S
C2378 C2379 1.524 . S
C2378 H2397 0.913 . S
C2379 H2355 0.950 . S
C2379 C2378 1.524 . S
C2379 C2380 1.415 . S
C2380 H2356 0.950 . S
C2380 C2375 1.363 . S
C2380 C2379 1.415 . S
C2381 H2357 0.951 . S
C2381 C2382 1.366 . S
C2381 C2383 1.388 . S
C2382 C2381 1.366 . S
C2382 C2386 1.385 . S
C2383 H2358 0.951 . S
C2383 C2381 1.388 . S
C2383 C2384 1.366 . S
C2384 C2383 1.366 . S
C2384 C2385 1.414 . S
C2384 C2387 1.499 . S
C2385 H2359 0.950 . S
C2385 C2384 1.414 . S
C2385 C2386 1.374 . S
C2386 H2360 0.950 . S
C2386 C2382 1.385 . S
C2386 C2385 1.374 . S
C2387 C2384 1.499 . S
C2387 C2388 1.373 . S
C2387 C2389 1.389 . S
C2388 H2361 0.950 . S
C2388 C2374 1.377 . S
C2388 C2387 1.373 . S
C2389 C2373 1.377 . S
C2389 C2387 1.389 . S
C2389 C2390 1.524 . S
C2390 C2389 1.524 . S
C2390 C2391 1.397 . S
C2390 C2395 1.363 . S
C2391 H2362 0.950 . S
C2391 C2390 1.397 . S
C2391 C2392 1.334 1_545 S
C2392 H2363 0.950 . S
C2392 C2391 1.334 1_565 S
C2392 C2393 1.288 . S
C2393 C2392 1.288 . S
C2393 C2394 1.510 1_565 S
C2393 H2396 1.012 . S
C2394 H2364 0.950 . S
C2394 C2393 1.510 1_545 S
C2394 C2395 1.415 . S
C2395 H2365 0.950 . S
C2395 C2390 1.363 . S
C2395 C2394 1.415 . S
H2396 C2393 1.012 . S
H2397 C2378 0.913 . S
H2398 C2416 0.951 . S
H2399 C2418 0.951 . S
H2400 C2420 0.950 . S
H2401 C2421 0.950 . S
H2402 C2423 0.950 . S
H2403 C2426 0.950 . S
H2404 C2427 0.950 . S
H2405 C2429 0.950 . S
H2406 C2430 0.950 . S
H2407 C2431 0.951 . S
H2408 C2433 0.951 . S
H2409 C2435 0.950 . S
H2410 C2436 0.950 . S
H2411 C2438 0.950 . S
H2412 C2441 0.950 . S
H2413 C2442 0.950 . S
H2414 C2444 0.950 . S
H2415 C2445 0.950 . S
C2416 H2398 0.951 . S
C2416 C2417 1.366 . S
C2416 C2418 1.388 . S
C2417 C2416 1.366 . S
C2417 C2421 1.385 . S
C2418 H2399 0.951 . S
C2418 C2416 1.388 . S
C2418 C2419 1.366 . S
C2419 C2418 1.366 . S
C2419 C2420 1.414 . S
C2419 C2422 1.499 . S
C2420 H2400 0.950 . S
C2420 C2419 1.414 . S
C2420 C2421 1.374 . S
C2421 H2401 0.950 . S
C2421 C2417 1.385 . S
C2421 C2420 1.374 . S
C2422 C2419 1.499 . S
C2422 C2423 1.373 . S
C2422 C2424 1.389 . S
C2423 H2402 0.950 . S
C2423 C2422 1.373 . S
C2423 C2439 1.377 . S
C2424 C2422 1.389 . S
C2424 C2425 1.524 . S
C2424 C2438 1.377 . S
C2425 C2424 1.524 . S
C2425 C2426 1.397 . S
C2425 C2430 1.363 . S
C2426 H2403 0.950 . S
C2426 C2425 1.397 . S
C2426 C2427 1.334 . S
C2427 H2404 0.950 . S
C2427 C2426 1.334 . S
C2427 C2428 1.287 . S
C2428 C2427 1.287 . S
C2428 C2429 1.524 . S
C2428 H2447 0.913 . S
C2429 H2405 0.950 . S
C2429 C2428 1.524 . S
C2429 C2430 1.415 . S
C2430 H2406 0.950 . S
C2430 C2425 1.363 . S
C2430 C2429 1.415 . S
C2431 H2407 0.951 . S
C2431 C2432 1.366 . S
C2431 C2433 1.388 . S
C2432 C2431 1.366 . S
C2432 C2436 1.385 . S
C2433 H2408 0.951 . S
C2433 C2431 1.388 . S
C2433 C2434 1.366 . S
C2434 C2433 1.366 . S
C2434 C2435 1.414 . S
C2434 C2437 1.499 . S
C2435 H2409 0.950 . S
C2435 C2434 1.414 . S
C2435 C2436 1.374 . S
C2436 H2410 0.950 . S
C2436 C2432 1.385 . S
C2436 C2435 1.374 . S
C2437 C2434 1.499 . S
C2437 C2438 1.373 . S
C2437 C2439 1.389 . S
C2438 H2411 0.950 . S
C2438 C2424 1.377 . S
C2438 C2437 1.373 . S
C2439 C2423 1.377 . S
C2439 C2437 1.389 . S
C2439 C2440 1.524 . S
C2440 C2439 1.524 . S
C2440 C2441 1.397 . S
C2440 C2445 1.363 . S
C2441 H2412 0.950 . S
C2441 C2440 1.397 . S
C2441 C2442 1.334 . S
C2442 H2413 0.950 . S
C2442 C2441 1.334 . S
C2442 C2443 1.287 . S
C2443 C2442 1.287 . S
C2443 C2444 1.524 . S
C2443 H2446 0.999 . S
C2444 H2414 0.950 . S
C2444 C2443 1.524 . S
C2444 C2445 1.415 . S
C2445 H2415 0.950 . S
C2445 C2440 1.363 . S
C2445 C2444 1.415 . S
H2446 C2443 0.999 . S
H2447 C2428 0.913 . S
H2448 C2466 0.951 . S
H2449 C2468 0.951 . S
H2450 C2470 0.950 . S
H2451 C2471 0.950 . S
H2452 C2473 0.950 . S
H2453 C2476 0.950 . S
H2454 C2477 0.950 . S
H2455 C2479 0.950 . S
H2456 C2480 0.950 . S
H2457 C2481 0.951 . S
H2458 C2483 0.951 . S
H2459 C2485 0.950 . S
H2460 C2486 0.950 . S
H2461 C2488 0.950 . S
H2462 C2491 0.950 . S
H2463 C2492 0.950 . S
H2464 C2494 0.950 . S
H2465 C2495 0.950 . S
C2466 H2448 0.951 . S
C2466 C2467 1.366 . S
C2466 C2468 1.388 . S
C2467 C2466 1.366 . S
C2467 C2471 1.385 . S
C2468 H2449 0.951 . S
C2468 C2466 1.388 . S
C2468 C2469 1.366 . S
C2469 C2468 1.366 . S
C2469 C2470 1.414 . S
C2469 C2472 1.499 . S
C2470 H2450 0.950 . S
C2470 C2469 1.414 . S
C2470 C2471 1.374 . S
C2471 H2451 0.950 . S
C2471 C2467 1.385 . S
C2471 C2470 1.374 . S
C2472 C2469 1.499 . S
C2472 C2473 1.373 . S
C2472 C2474 1.389 . S
C2473 H2452 0.950 . S
C2473 C2472 1.373 . S
C2473 C2489 1.377 . S
C2474 C2472 1.389 . S
C2474 C2475 1.524 . S
C2474 C2488 1.377 . S
C2475 C2474 1.524 . S
C2475 C2476 1.397 . S
C2475 C2480 1.363 . S
C2476 H2453 0.950 . S
C2476 C2475 1.397 . S
C2476 C2477 1.334 . S
C2477 H2454 0.950 . S
C2477 C2476 1.334 . S
C2477 C2478 1.287 . S
C2478 C2477 1.287 . S
C2478 C2479 1.524 . S
C2478 H2497 0.913 . S
C2479 H2455 0.950 . S
C2479 C2478 1.524 . S
C2479 C2480 1.415 . S
C2480 H2456 0.950 . S
C2480 C2475 1.363 . S
C2480 C2479 1.415 . S
C2481 H2457 0.951 . S
C2481 C2482 1.366 . S
C2481 C2483 1.388 . S
C2482 C2481 1.366 . S
C2482 C2486 1.385 . S
C2483 H2458 0.951 . S
C2483 C2481 1.388 . S
C2483 C2484 1.366 . S
C2484 C2483 1.366 . S
C2484 C2485 1.414 . S
C2484 C2487 1.499 . S
C2485 H2459 0.950 . S
C2485 C2484 1.414 . S
C2485 C2486 1.374 . S
C2486 H2460 0.950 . S
C2486 C2482 1.385 . S
C2486 C2485 1.374 . S
C2487 C2484 1.499 . S
C2487 C2488 1.373 . S
C2487 C2489 1.389 . S
C2488 H2461 0.950 . S
C2488 C2474 1.377 . S
C2488 C2487 1.373 . S
C2489 C2473 1.377 . S
C2489 C2487 1.389 . S
C2489 C2490 1.524 . S
C2490 C2489 1.524 . S
C2490 C2491 1.397 . S
C2490 C2495 1.363 . S
C2491 H2462 0.950 . S
C2491 C2490 1.397 . S
C2491 C2492 1.334 . S
C2492 H2463 0.950 . S
C2492 C2491 1.334 . S
C2492 C2493 1.287 . S
C2493 C2492 1.287 . S
C2493 C2494 1.524 . S
C2493 H2496 0.999 . S
C2494 H2464 0.950 . S
C2494 C2493 1.524 . S
C2494 C2495 1.415 . S
C2495 H2465 0.950 . S
C2495 C2490 1.363 . S
C2495 C2494 1.415 . S
H2496 C2493 0.999 . S
H2497 C2478 0.913 . S
H2498 C2516 0.951 . S
H2499 C2518 0.951 . S
H2500 C2520 0.950 . S
H2501 C2521 0.950 . S
H2502 C2523 0.950 . S
H2503 C2526 0.950 . S
H2504 C2527 0.950 . S
H2505 C2529 0.950 . S
H2506 C2530 0.950 . S
H2507 C2531 0.951 . S
H2508 C2533 0.951 . S
H2509 C2535 0.950 . S
H2510 C2536 0.950 . S
H2511 C2538 0.950 . S
H2512 C2541 0.950 . S
H2513 C2542 0.950 . S
H2514 C2544 0.950 . S
H2515 C2545 0.950 . S
C2516 H2498 0.951 . S
C2516 C2517 1.366 . S
C2516 C2518 1.388 . S
C2517 C2516 1.366 . S
C2517 C2521 1.385 . S
C2518 H2499 0.951 . S
C2518 C2516 1.388 . S
C2518 C2519 1.366 . S
C2519 C2518 1.366 . S
C2519 C2520 1.414 . S
C2519 C2522 1.499 . S
C2520 H2500 0.950 . S
C2520 C2519 1.414 . S
C2520 C2521 1.374 . S
C2521 H2501 0.950 . S
C2521 C2517 1.385 . S
C2521 C2520 1.374 . S
C2522 C2519 1.499 . S
C2522 C2523 1.373 . S
C2522 C2524 1.389 . S
C2523 H2502 0.950 . S
C2523 C2522 1.373 . S
C2523 C2539 1.377 . S
C2524 C2522 1.389 . S
C2524 C2525 1.524 . S
C2524 C2538 1.377 . S
C2525 C2524 1.524 . S
C2525 C2526 1.397 . S
C2525 C2530 1.363 . S
C2526 H2503 0.950 . S
C2526 C2525 1.397 . S
C2526 C2527 1.334 . S
C2527 H2504 0.950 . S
C2527 C2526 1.334 . S
C2527 C2528 1.287 . S
C2528 C2527 1.287 . S
C2528 C2529 1.524 . S
C2528 H2547 0.913 . S
C2529 H2505 0.950 . S
C2529 C2528 1.524 . S
C2529 C2530 1.415 . S
C2530 H2506 0.950 . S
C2530 C2525 1.363 . S
C2530 C2529 1.415 . S
C2531 H2507 0.951 . S
C2531 C2532 1.366 . S
C2531 C2533 1.388 . S
C2532 C2531 1.366 . S
C2532 C2536 1.385 . S
C2533 H2508 0.951 . S
C2533 C2531 1.388 . S
C2533 C2534 1.366 . S
C2534 C2533 1.366 . S
C2534 C2535 1.414 . S
C2534 C2537 1.499 . S
C2535 H2509 0.950 . S
C2535 C2534 1.414 . S
C2535 C2536 1.374 . S
C2536 H2510 0.950 . S
C2536 C2532 1.385 . S
C2536 C2535 1.374 . S
C2537 C2534 1.499 . S
C2537 C2538 1.373 . S
C2537 C2539 1.389 . S
C2538 H2511 0.950 . S
C2538 C2524 1.377 . S
C2538 C2537 1.373 . S
C2539 C2523 1.377 . S
C2539 C2537 1.389 . S
C2539 C2540 1.524 . S
C2540 C2539 1.524 . S
C2540 C2541 1.397 . S
C2540 C2545 1.363 . S
C2541 H2512 0.950 . S
C2541 C2540 1.397 . S
C2541 C2542 1.334 . S
C2542 H2513 0.950 . S
C2542 C2541 1.334 . S
C2542 C2543 1.287 . S
C2543 C2542 1.287 . S
C2543 C2544 1.524 . S
C2543 H2546 0.999 . S
C2544 H2514 0.950 . S
C2544 C2543 1.524 . S
C2544 C2545 1.415 . S
C2545 H2515 0.950 . S
C2545 C2540 1.363 . S
C2545 C2544 1.415 . S
H2546 C2543 0.999 . S
H2547 C2528 0.913 . S
H2548 C2566 0.951 . S
H2549 C2568 0.951 . S
H2550 C2570 0.950 . S
H2551 C2571 0.950 . S
H2552 C2573 0.950 . S
H2553 C2576 0.950 . S
H2554 C2577 0.950 . S
H2555 C2579 0.950 . S
H2556 C2580 0.950 . S
H2557 C2581 0.951 . S
H2558 C2583 0.951 . S
H2559 C2585 0.950 . S
H2560 C2586 0.950 . S
H2561 C2588 0.950 . S
H2562 C2591 0.950 . S
H2563 C2592 0.950 . S
H2564 C2594 0.950 . S
H2565 C2595 0.950 . S
C2566 H2548 0.951 . S
C2566 C2567 1.366 . S
C2566 C2568 1.388 . S
C2567 C2566 1.366 . S
C2567 C2571 1.385 . S
C2568 H2549 0.951 . S
C2568 C2566 1.388 . S
C2568 C2569 1.366 . S
C2569 C2568 1.366 . S
C2569 C2570 1.414 . S
C2569 C2572 1.499 . S
C2570 H2550 0.950 . S
C2570 C2569 1.414 . S
C2570 C2571 1.374 . S
C2571 H2551 0.950 . S
C2571 C2567 1.385 . S
C2571 C2570 1.374 . S
C2572 C2569 1.499 . S
C2572 C2573 1.373 . S
C2572 C2574 1.389 . S
C2573 H2552 0.950 . S
C2573 C2572 1.373 . S
C2573 C2589 1.377 . S
C2574 C2572 1.389 . S
C2574 C2575 1.524 . S
C2574 C2588 1.377 . S
C2575 C2574 1.524 . S
C2575 C2576 1.397 . S
C2575 C2580 1.363 . S
C2576 H2553 0.950 . S
C2576 C2575 1.397 . S
C2576 C2577 1.334 . S
C2577 H2554 0.950 . S
C2577 C2576 1.334 . S
C2577 C2578 1.287 . S
C2578 C2577 1.287 . S
C2578 C2579 1.524 . S
C2578 H2597 0.913 . S
C2579 H2555 0.950 . S
C2579 C2578 1.524 . S
C2579 C2580 1.415 . S
C2580 H2556 0.950 . S
C2580 C2575 1.363 . S
C2580 C2579 1.415 . S
C2581 H2557 0.951 . S
C2581 C2582 1.366 . S
C2581 C2583 1.388 . S
C2582 C2581 1.366 . S
C2582 C2586 1.385 . S
C2583 H2558 0.951 . S
C2583 C2581 1.388 . S
C2583 C2584 1.366 . S
C2584 C2583 1.366 . S
C2584 C2585 1.414 . S
C2584 C2587 1.499 . S
C2585 H2559 0.950 . S
C2585 C2584 1.414 . S
C2585 C2586 1.374 . S
C2586 H2560 0.950 . S
C2586 C2582 1.385 . S
C2586 C2585 1.374 . S
C2587 C2584 1.499 . S
C2587 C2588 1.373 . S
C2587 C2589 1.389 . S
C2588 H2561 0.950 . S
C2588 C2574 1.377 . S
C2588 C2587 1.373 . S
C2589 C2573 1.377 . S
C2589 C2587 1.389 . S
C2589 C2590 1.524 . S
C2590 C2589 1.524 . S
C2590 C2591 1.397 . S
C2590 C2595 1.363 . S
C2591 H2562 0.950 . S
C2591 C2590 1.397 . S
C2591 C2592 1.334 . S
C2592 H2563 0.950 . S
C2592 C2591 1.334 . S
C2592 C2593 1.287 . S
C2593 C2592 1.287 . S
C2593 C2594 1.524 . S
C2593 H2596 0.999 . S
C2594 H2564 0.950 . S
C2594 C2593 1.524 . S
C2594 C2595 1.415 . S
C2595 H2565 0.950 . S
C2595 C2590 1.363 . S
C2595 C2594 1.415 . S
H2596 C2593 0.999 . S
H2597 C2578 0.913 . S
H2598 C2616 0.951 . S
H2599 C2618 0.951 . S
H2600 C2620 0.950 . S
H2601 C2621 0.950 . S
H2602 C2623 0.950 . S
H2603 C2626 0.950 . S
H2604 C2627 0.950 . S
H2605 C2629 0.950 . S
H2606 C2630 0.950 . S
H2607 C2631 0.951 . S
H2608 C2633 0.951 . S
H2609 C2635 0.950 . S
H2610 C2636 0.950 . S
H2611 C2638 0.950 . S
H2612 C2641 0.950 . S
H2613 C2642 0.950 . S
H2614 C2644 0.950 . S
H2615 C2645 0.950 . S
C2616 H2598 0.951 . S
C2616 C2617 1.366 . S
C2616 C2618 1.388 . S
C2617 C2616 1.366 . S
C2617 C2621 1.385 . S
C2618 H2599 0.951 . S
C2618 C2616 1.388 . S
C2618 C2619 1.366 . S
C2619 C2618 1.366 . S
C2619 C2620 1.414 . S
C2619 C2622 1.499 . S
C2620 H2600 0.950 . S
C2620 C2619 1.414 . S
C2620 C2621 1.374 . S
C2621 H2601 0.950 . S
C2621 C2617 1.385 . S
C2621 C2620 1.374 . S
C2622 C2619 1.499 . S
C2622 C2623 1.373 . S
C2622 C2624 1.389 . S
C2623 H2602 0.950 . S
C2623 C2622 1.373 . S
C2623 C2639 1.377 . S
C2624 C2622 1.389 . S
C2624 C2625 1.524 . S
C2624 C2638 1.377 . S
C2625 C2624 1.524 . S
C2625 C2626 1.397 . S
C2625 C2630 1.363 . S
C2626 H2603 0.950 . S
C2626 C2625 1.397 . S
C2626 C2627 1.334 . S
C2627 H2604 0.950 . S
C2627 C2626 1.334 . S
C2627 C2628 1.287 . S
C2628 C2627 1.287 . S
C2628 C2629 1.524 . S
C2628 H2647 0.913 . S
C2629 H2605 0.950 . S
C2629 C2628 1.524 . S
C2629 C2630 1.415 . S
C2630 H2606 0.950 . S
C2630 C2625 1.363 . S
C2630 C2629 1.415 . S
C2631 H2607 0.951 . S
C2631 C2632 1.366 . S
C2631 C2633 1.388 . S
C2632 C2631 1.366 . S
C2632 C2636 1.385 . S
C2633 H2608 0.951 . S
C2633 C2631 1.388 . S
C2633 C2634 1.366 . S
C2634 C2633 1.366 . S
C2634 C2635 1.414 . S
C2634 C2637 1.499 . S
C2635 H2609 0.950 . S
C2635 C2634 1.414 . S
C2635 C2636 1.374 . S
C2636 H2610 0.950 . S
C2636 C2632 1.385 . S
C2636 C2635 1.374 . S
C2637 C2634 1.499 . S
C2637 C2638 1.373 . S
C2637 C2639 1.389 . S
C2638 H2611 0.950 . S
C2638 C2624 1.377 . S
C2638 C2637 1.373 . S
C2639 C2623 1.377 . S
C2639 C2637 1.389 . S
C2639 C2640 1.524 . S
C2640 C2639 1.524 . S
C2640 C2641 1.397 . S
C2640 C2645 1.363 . S
C2641 H2612 0.950 . S
C2641 C2640 1.397 . S
C2641 C2642 1.334 . S
C2642 H2613 0.950 . S
C2642 C2641 1.334 . S
C2642 C2643 1.287 . S
C2643 C2642 1.287 . S
C2643 C2644 1.524 . S
C2643 H2646 0.999 . S
C2644 H2614 0.950 . S
C2644 C2643 1.524 . S
C2644 C2645 1.415 . S
C2645 H2615 0.950 . S
C2645 C2640 1.363 . S
C2645 C2644 1.415 . S
H2646 C2643 0.999 . S
H2647 C2628 0.913 . S
H2648 C2666 0.951 . S
H2649 C2668 0.951 . S
H2650 C2670 0.950 . S
H2651 C2671 0.950 . S
H2652 C2673 0.950 . S
H2653 C2676 0.950 . S
H2654 C2677 0.950 . S
H2655 C2679 0.950 . S
H2656 C2680 0.950 . S
H2657 C2681 0.951 . S
H2658 C2683 0.951 . S
H2659 C2685 0.950 . S
H2660 C2686 0.950 . S
H2661 C2688 0.950 . S
H2662 C2691 0.950 . S
H2663 C2692 0.950 1_545 S
H2664 C2694 0.950 . S
H2665 C2695 0.950 . S
C2666 H2648 0.951 . S
C2666 C2667 1.366 . S
C2666 C2668 1.388 . S
C2667 C2666 1.366 . S
C2667 C2671 1.385 . S
C2668 H2649 0.951 . S
C2668 C2666 1.388 . S
C2668 C2669 1.366 . S
C2669 C2668 1.366 . S
C2669 C2670 1.414 . S
C2669 C2672 1.499 . S
C2670 H2650 0.950 . S
C2670 C2669 1.414 . S
C2670 C2671 1.374 . S
C2671 H2651 0.950 . S
C2671 C2667 1.385 . S
C2671 C2670 1.374 . S
C2672 C2669 1.499 . S
C2672 C2673 1.373 . S
C2672 C2674 1.389 . S
C2673 H2652 0.950 . S
C2673 C2672 1.373 . S
C2673 C2689 1.377 . S
C2674 C2672 1.389 . S
C2674 C2675 1.524 . S
C2674 C2688 1.377 . S
C2675 C2674 1.524 . S
C2675 C2676 1.397 . S
C2675 C2680 1.363 . S
C2676 H2653 0.950 . S
C2676 C2675 1.397 . S
C2676 C2677 1.334 . S
C2677 H2654 0.950 . S
C2677 C2676 1.334 . S
C2677 C2678 1.287 . S
C2678 C2677 1.287 . S
C2678 C2679 1.524 . S
C2678 H2697 0.913 . S
C2679 H2655 0.950 . S
C2679 C2678 1.524 . S
C2679 C2680 1.415 . S
C2680 H2656 0.950 . S
C2680 C2675 1.363 . S
C2680 C2679 1.415 . S
C2681 H2657 0.951 . S
C2681 C2682 1.366 . S
C2681 C2683 1.388 . S
C2682 C2681 1.366 . S
C2682 C2686 1.385 . S
C2683 H2658 0.951 . S
C2683 C2681 1.388 . S
C2683 C2684 1.366 . S
C2684 C2683 1.366 . S
C2684 C2685 1.414 . S
C2684 C2687 1.499 . S
C2685 H2659 0.950 . S
C2685 C2684 1.414 . S
C2685 C2686 1.374 . S
C2686 H2660 0.950 . S
C2686 C2682 1.385 . S
C2686 C2685 1.374 . S
C2687 C2684 1.499 . S
C2687 C2688 1.373 . S
C2687 C2689 1.389 . S
C2688 H2661 0.950 . S
C2688 C2674 1.377 . S
C2688 C2687 1.373 . S
C2689 C2673 1.377 . S
C2689 C2687 1.389 . S
C2689 C2690 1.524 . S
C2690 C2689 1.524 . S
C2690 C2691 1.397 . S
C2690 C2695 1.363 . S
C2691 H2662 0.950 . S
C2691 C2690 1.397 . S
C2691 C2692 1.334 . S
C2692 H2663 0.950 1_565 S
C2692 C2691 1.334 . S
C2692 C2693 1.287 . S
C2693 C2692 1.287 . S
C2693 C2694 1.524 . S
C2693 H2696 0.999 1_565 S
C2694 H2664 0.950 . S
C2694 C2693 1.524 . S
C2694 C2695 1.415 . S
C2695 H2665 0.950 . S
C2695 C2690 1.363 . S
C2695 C2694 1.415 . S
H2696 C2693 0.999 1_545 S
H2697 C2678 0.913 . S
H2698 C2716 0.951 . S
H2699 C2718 0.951 . S
H2700 C2720 0.950 . S
H2701 C2721 0.950 . S
H2702 C2723 0.950 . S
H2703 C2726 0.950 . S
H2704 C2727 0.950 . S
H2705 C2729 0.950 . S
H2706 C2730 0.950 . S
H2707 C2731 0.951 . S
H2708 C2733 0.951 . S
H2709 C2735 0.950 . S
H2710 C2736 0.950 . S
H2711 C2738 0.950 . S
H2712 C2741 0.950 . S
H2713 C2742 0.950 . S
H2714 C2744 0.950 . S
H2715 C2745 0.950 . S
C2716 H2698 0.951 . S
C2716 C2717 1.366 . S
C2716 C2718 1.388 . S
C2717 C2716 1.366 . S
C2717 C2721 1.385 . S
C2718 H2699 0.951 . S
C2718 C2716 1.388 . S
C2718 C2719 1.366 . S
C2719 C2718 1.366 . S
C2719 C2720 1.414 . S
C2719 C2722 1.499 . S
C2720 H2700 0.950 . S
C2720 C2719 1.414 . S
C2720 C2721 1.374 . S
C2721 H2701 0.950 . S
C2721 C2717 1.385 . S
C2721 C2720 1.374 . S
C2722 C2719 1.499 . S
C2722 C2723 1.373 . S
C2722 C2724 1.389 . S
C2723 H2702 0.950 . S
C2723 C2722 1.373 . S
C2723 C2739 1.377 . S
C2724 C2722 1.389 . S
C2724 C2725 1.524 . S
C2724 C2738 1.377 . S
C2725 C2724 1.524 . S
C2725 C2726 1.397 . S
C2725 C2730 1.363 . S
C2726 H2703 0.950 . S
C2726 C2725 1.397 . S
C2726 C2727 1.334 . S
C2727 H2704 0.950 . S
C2727 C2726 1.334 . S
C2727 C2728 1.287 . S
C2728 C2727 1.287 . S
C2728 C2729 1.524 . S
C2728 H2747 0.913 . S
C2729 H2705 0.950 . S
C2729 C2728 1.524 . S
C2729 C2730 1.415 . S
C2730 H2706 0.950 . S
C2730 C2725 1.363 . S
C2730 C2729 1.415 . S
C2731 H2707 0.951 . S
C2731 C2732 1.366 . S
C2731 C2733 1.388 . S
C2732 C2731 1.366 . S
C2732 C2736 1.385 . S
C2733 H2708 0.951 . S
C2733 C2731 1.388 . S
C2733 C2734 1.366 . S
C2734 C2733 1.366 . S
C2734 C2735 1.414 . S
C2734 C2737 1.499 . S
C2735 H2709 0.950 . S
C2735 C2734 1.414 . S
C2735 C2736 1.374 . S
C2736 H2710 0.950 . S
C2736 C2732 1.385 . S
C2736 C2735 1.374 . S
C2737 C2734 1.499 . S
C2737 C2738 1.373 . S
C2737 C2739 1.389 . S
C2738 H2711 0.950 . S
C2738 C2724 1.377 . S
C2738 C2737 1.373 . S
C2739 C2723 1.377 . S
C2739 C2737 1.389 . S
C2739 C2740 1.524 . S
C2740 C2739 1.524 . S
C2740 C2741 1.397 . S
C2740 C2745 1.363 . S
C2741 H2712 0.950 . S
C2741 C2740 1.397 . S
C2741 C2742 1.334 . S
C2742 H2713 0.950 . S
C2742 C2741 1.334 . S
C2742 C2743 1.287 . S
C2743 C2742 1.287 . S
C2743 C2744 1.524 . S
C2743 H2746 0.999 . S
C2744 H2714 0.950 . S
C2744 C2743 1.524 . S
C2744 C2745 1.415 . S
C2745 H2715 0.950 . S
C2745 C2740 1.363 . S
C2745 C2744 1.415 . S
H2746 C2743 0.999 . S
H2747 C2728 0.913 . S
H2748 C2766 0.951 . S
H2749 C2768 0.951 . S
H2750 C2770 0.950 . S
H2751 C2771 0.950 . S
H2752 C2773 0.950 . S
H2753 C2776 0.950 . S
H2754 C2777 0.950 . S
H2755 C2779 0.950 . S
H2756 C2780 0.950 . S
H2757 C2781 0.951 . S
H2758 C2783 0.951 . S
H2759 C2785 0.950 . S
H2760 C2786 0.950 . S
H2761 C2788 0.950 . S
H2762 C2791 0.950 . S
H2763 C2792 0.950 . S
H2764 C2794 0.950 . S
H2765 C2795 0.950 . S
C2766 H2748 0.951 . S
C2766 C2767 1.366 . S
C2766 C2768 1.388 . S
C2767 C2766 1.366 . S
C2767 C2771 1.385 . S
C2768 H2749 0.951 . S
C2768 C2766 1.388 . S
C2768 C2769 1.366 . S
C2769 C2768 1.366 . S
C2769 C2770 1.414 . S
C2769 C2772 1.499 . S
C2770 H2750 0.950 . S
C2770 C2769 1.414 . S
C2770 C2771 1.374 . S
C2771 H2751 0.950 . S
C2771 C2767 1.385 . S
C2771 C2770 1.374 . S
C2772 C2769 1.499 . S
C2772 C2773 1.373 . S
C2772 C2774 1.389 . S
C2773 H2752 0.950 . S
C2773 C2772 1.373 . S
C2773 C2789 1.377 . S
C2774 C2772 1.389 . S
C2774 C2775 1.524 . S
C2774 C2788 1.377 . S
C2775 C2774 1.524 . S
C2775 C2776 1.397 . S
C2775 C2780 1.363 . S
C2776 H2753 0.950 . S
C2776 C2775 1.397 . S
C2776 C2777 1.334 1_545 S
C2777 H2754 0.950 . S
C2777 C2776 1.334 1_565 S
C2777 C2778 1.287 . S
C2778 C2777 1.287 . S
C2778 C2779 1.524 . S
C2778 H2797 0.913 . S
C2779 H2755 0.950 . S
C2779 C2778 1.524 . S
C2779 C2780 1.415 1_565 S
C2780 H2756 0.950 . S
C2780 C2775 1.363 . S
C2780 C2779 1.415 1_545 S
C2781 H2757 0.951 . S
C2781 C2782 1.366 . S
C2781 C2783 1.388 . S
C2782 C2781 1.366 . S
C2782 C2786 1.385 . S
C2783 H2758 0.951 . S
C2783 C2781 1.388 . S
C2783 C2784 1.366 . S
C2784 C2783 1.366 . S
C2784 C2785 1.414 . S
C2784 C2787 1.499 . S
C2785 H2759 0.950 . S
C2785 C2784 1.414 . S
C2785 C2786 1.374 . S
C2786 H2760 0.950 . S
C2786 C2782 1.385 . S
C2786 C2785 1.374 . S
C2787 C2784 1.499 . S
C2787 C2788 1.373 . S
C2787 C2789 1.389 . S
C2788 H2761 0.950 . S
C2788 C2774 1.377 . S
C2788 C2787 1.373 . S
C2789 C2773 1.377 . S
C2789 C2787 1.389 . S
C2789 C2790 1.524 . S
C2790 C2789 1.524 . S
C2790 C2791 1.397 . S
C2790 C2795 1.363 . S
C2791 H2762 0.950 . S
C2791 C2790 1.397 . S
C2791 C2792 1.334 . S
C2792 H2763 0.950 . S
C2792 C2791 1.334 . S
C2792 C2793 1.287 . S
C2793 C2792 1.287 . S
C2793 C2794 1.524 . S
C2793 H2796 0.999 . S
C2794 H2764 0.950 . S
C2794 C2793 1.524 . S
C2794 C2795 1.415 . S
C2795 H2765 0.950 . S
C2795 C2790 1.363 . S
C2795 C2794 1.415 . S
H2796 C2793 0.999 . S
H2797 C2778 0.913 . S
H2798 C2816 0.951 . S
H2799 C2818 0.951 . S
H2800 C2820 0.950 . S
H2801 C2821 0.950 . S
H2802 C2823 0.950 . S
H2803 C2826 0.950 . S
H2804 C2827 0.950 . S
H2805 C2829 0.950 . S
H2806 C2830 0.950 . S
H2807 C2831 0.951 . S
H2808 C2833 0.951 . S
H2809 C2835 0.950 . S
H2810 C2836 0.950 . S
H2811 C2838 0.950 . S
H2812 C2841 0.950 . S
H2813 C2842 0.950 . S
H2814 C2844 0.950 . S
H2815 C2845 0.950 . S
C2816 H2798 0.951 . S
C2816 C2817 1.366 . S
C2816 C2818 1.388 . S
C2817 C2816 1.366 . S
C2817 C2821 1.385 . S
C2818 H2799 0.951 . S
C2818 C2816 1.388 . S
C2818 C2819 1.366 . S
C2819 C2818 1.366 . S
C2819 C2820 1.414 . S
C2819 C2822 1.499 . S
C2820 H2800 0.950 . S
C2820 C2819 1.414 . S
C2820 C2821 1.374 . S
C2821 H2801 0.950 . S
C2821 C2817 1.385 . S
C2821 C2820 1.374 . S
C2822 C2819 1.499 . S
C2822 C2823 1.373 . S
C2822 C2824 1.389 . S
C2823 H2802 0.950 . S
C2823 C2822 1.373 . S
C2823 C2839 1.377 . S
C2824 C2822 1.389 . S
C2824 C2825 1.524 . S
C2824 C2838 1.377 . S
C2825 C2824 1.524 . S
C2825 C2826 1.397 . S
C2825 C2830 1.363 . S
C2826 H2803 0.950 . S
C2826 C2825 1.397 . S
C2826 C2827 1.334 . S
C2827 H2804 0.950 . S
C2827 C2826 1.334 . S
C2827 C2828 1.287 . S
C2828 C2827 1.287 . S
C2828 C2829 1.524 . S
C2828 H2847 0.913 . S
C2829 H2805 0.950 . S
C2829 C2828 1.524 . S
C2829 C2830 1.415 . S
C2830 H2806 0.950 . S
C2830 C2825 1.363 . S
C2830 C2829 1.415 . S
C2831 H2807 0.951 . S
C2831 C2832 1.366 . S
C2831 C2833 1.388 . S
C2832 C2831 1.366 . S
C2832 C2836 1.385 . S
C2833 H2808 0.951 . S
C2833 C2831 1.388 . S
C2833 C2834 1.366 . S
C2834 C2833 1.366 . S
C2834 C2835 1.414 . S
C2834 C2837 1.499 . S
C2835 H2809 0.950 . S
C2835 C2834 1.414 . S
C2835 C2836 1.374 . S
C2836 H2810 0.950 . S
C2836 C2832 1.385 . S
C2836 C2835 1.374 . S
C2837 C2834 1.499 . S
C2837 C2838 1.373 . S
C2837 C2839 1.389 . S
C2838 H2811 0.950 . S
C2838 C2824 1.377 . S
C2838 C2837 1.373 . S
C2839 C2823 1.377 . S
C2839 C2837 1.389 . S
C2839 C2840 1.524 . S
C2840 C2839 1.524 . S
C2840 C2841 1.397 . S
C2840 C2845 1.363 . S
C2841 H2812 0.950 . S
C2841 C2840 1.397 . S
C2841 C2842 1.334 . S
C2842 H2813 0.950 . S
C2842 C2841 1.334 . S
C2842 C2843 1.287 . S
C2843 C2842 1.287 . S
C2843 C2844 1.524 . S
C2843 H2846 0.999 . S
C2844 H2814 0.950 . S
C2844 C2843 1.524 . S
C2844 C2845 1.415 . S
C2845 H2815 0.950 . S
C2845 C2840 1.363 . S
C2845 C2844 1.415 . S
H2846 C2843 0.999 . S
H2847 C2828 0.913 . S
H2848 C2866 0.951 . S
H2849 C2868 0.951 . S
H2850 C2870 0.950 . S
H2851 C2871 0.950 . S
H2852 C2873 0.950 . S
H2853 C2876 0.950 . S
H2854 C2877 0.950 . S
H2855 C2879 0.950 . S
H2856 C2880 0.950 . S
H2857 C2881 0.951 . S
H2858 C2883 0.951 . S
H2859 C2885 0.950 . S
H2860 C2886 0.950 . S
H2861 C2888 0.950 . S
H2862 C2891 0.950 . S
H2863 C2892 0.950 . S
H2864 C2894 0.950 . S
H2865 C2895 0.950 . S
C2866 H2848 0.951 . S
C2866 C2867 1.366 . S
C2866 C2868 1.388 1_565 S
C2867 C2866 1.366 . S
C2867 C2871 1.385 . S
C2868 H2849 0.951 . S
C2868 C2866 1.388 1_545 S
C2868 C2869 1.366 . S
C2869 C2868 1.366 . S
C2869 C2870 1.414 . S
C2869 C2872 1.499 . S
C2870 H2850 0.950 . S
C2870 C2869 1.414 . S
C2870 C2871 1.374 1_545 S
C2871 H2851 0.950 . S
C2871 C2867 1.385 . S
C2871 C2870 1.374 1_565 S
C2872 C2869 1.499 . S
C2872 C2873 1.373 . S
C2872 C2874 1.389 . S
C2873 H2852 0.950 . S
C2873 C2872 1.373 . S
C2873 C2889 1.377 . S
C2874 C2872 1.389 . S
C2874 C2875 1.524 . S
C2874 C2888 1.377 . S
C2875 C2874 1.524 . S
C2875 C2876 1.397 . S
C2875 C2880 1.363 . S
C2876 H2853 0.950 . S
C2876 C2875 1.397 . S
C2876 C2877 1.334 . S
C2877 H2854 0.950 . S
C2877 C2876 1.334 . S
C2877 C2878 1.287 . S
C2878 C2877 1.287 . S
C2878 C2879 1.524 . S
C2878 H2897 0.913 . S
C2879 H2855 0.950 . S
C2879 C2878 1.524 . S
C2879 C2880 1.415 . S
C2880 H2856 0.950 . S
C2880 C2875 1.363 . S
C2880 C2879 1.415 . S
C2881 H2857 0.951 . S
C2881 C2882 1.366 . S
C2881 C2883 1.388 . S
C2882 C2881 1.366 . S
C2882 C2886 1.385 . S
C2883 H2858 0.951 . S
C2883 C2881 1.388 . S
C2883 C2884 1.366 . S
C2884 C2883 1.366 . S
C2884 C2885 1.414 . S
C2884 C2887 1.499 . S
C2885 H2859 0.950 . S
C2885 C2884 1.414 . S
C2885 C2886 1.374 . S
C2886 H2860 0.950 . S
C2886 C2882 1.385 . S
C2886 C2885 1.374 . S
C2887 C2884 1.499 . S
C2887 C2888 1.373 . S
C2887 C2889 1.389 . S
C2888 H2861 0.950 . S
C2888 C2874 1.377 . S
C2888 C2887 1.373 . S
C2889 C2873 1.377 . S
C2889 C2887 1.389 . S
C2889 C2890 1.524 . S
C2890 C2889 1.524 . S
C2890 C2891 1.397 . S
C2890 C2895 1.363 . S
C2891 H2862 0.950 . S
C2891 C2890 1.397 . S
C2891 C2892 1.334 . S
C2892 H2863 0.950 . S
C2892 C2891 1.334 . S
C2892 C2893 1.287 . S
C2893 C2892 1.287 . S
C2893 C2894 1.524 . S
C2893 H2896 0.999 . S
C2894 H2864 0.950 . S
C2894 C2893 1.524 . S
C2894 C2895 1.415 . S
C2895 H2865 0.950 . S
C2895 C2890 1.363 . S
C2895 C2894 1.415 . S
H2896 C2893 0.999 . S
H2897 C2878 0.913 . S
H2898 C2916 0.951 . S
H2899 C2918 0.951 . S
H2900 C2920 0.950 . S
H2901 C2921 0.950 . S
H2902 C2923 0.950 . S
H2903 C2926 0.950 . S
H2904 C2927 0.950 . S
H2905 C2929 0.950 . S
H2906 C2930 0.950 . S
H2907 C2931 0.951 . S
H2908 C2933 0.951 . S
H2909 C2935 0.950 . S
H2910 C2936 0.950 . S
H2911 C2938 0.950 . S
H2912 C2941 0.950 . S
H2913 C2942 0.950 . S
H2914 C2944 0.950 . S
H2915 C2945 0.950 . S
C2916 H2898 0.951 . S
C2916 C2917 1.366 . S
C2916 C2918 1.388 1_565 S
C2917 C2916 1.366 . S
C2917 C2921 1.385 . S
C2918 H2899 0.951 . S
C2918 C2916 1.388 1_545 S
C2918 C2919 1.366 . S
C2919 C2918 1.366 . S
C2919 C2920 1.414 . S
C2919 C2922 1.499 . S
C2920 H2900 0.950 . S
C2920 C2919 1.414 . S
C2920 C2921 1.374 1_545 S
C2921 H2901 0.950 . S
C2921 C2917 1.385 . S
C2921 C2920 1.374 1_565 S
C2922 C2919 1.499 . S
C2922 C2923 1.373 . S
C2922 C2924 1.389 . S
C2923 H2902 0.950 . S
C2923 C2922 1.373 . S
C2923 C2939 1.377 . S
C2924 C2922 1.389 . S
C2924 C2925 1.524 . S
C2924 C2938 1.377 . S
C2925 C2924 1.524 . S
C2925 C2926 1.397 . S
C2925 C2930 1.363 . S
C2926 H2903 0.950 . S
C2926 C2925 1.397 . S
C2926 C2927 1.334 . S
C2927 H2904 0.950 . S
C2927 C2926 1.334 . S
C2927 C2928 1.287 . S
C2928 C2927 1.287 . S
C2928 C2929 1.524 . S
C2928 H2947 0.913 . S
C2929 H2905 0.950 . S
C2929 C2928 1.524 . S
C2929 C2930 1.415 . S
C2930 H2906 0.950 . S
C2930 C2925 1.363 . S
C2930 C2929 1.415 . S
C2931 H2907 0.951 . S
C2931 C2932 1.366 . S
C2931 C2933 1.388 . S
C2932 C2931 1.366 . S
C2932 C2936 1.385 . S
C2933 H2908 0.951 . S
C2933 C2931 1.388 . S
C2933 C2934 1.366 . S
C2934 C2933 1.366 . S
C2934 C2935 1.414 . S
C2934 C2937 1.499 . S
C2935 H2909 0.950 . S
C2935 C2934 1.414 . S
C2935 C2936 1.374 . S
C2936 H2910 0.950 . S
C2936 C2932 1.385 . S
C2936 C2935 1.374 . S
C2937 C2934 1.499 . S
C2937 C2938 1.373 . S
C2937 C2939 1.389 . S
C2938 H2911 0.950 . S
C2938 C2924 1.377 . S
C2938 C2937 1.373 . S
C2939 C2923 1.377 . S
C2939 C2937 1.389 . S
C2939 C2940 1.524 . S
C2940 C2939 1.524 . S
C2940 C2941 1.397 . S
C2940 C2945 1.363 . S
C2941 H2912 0.950 . S
C2941 C2940 1.397 . S
C2941 C2942 1.334 . S
C2942 H2913 0.950 . S
C2942 C2941 1.334 . S
C2942 C2943 1.287 . S
C2943 C2942 1.287 . S
C2943 C2944 1.524 . S
C2943 H2946 0.999 . S
C2944 H2914 0.950 . S
C2944 C2943 1.524 . S
C2944 C2945 1.415 . S
C2945 H2915 0.950 . S
C2945 C2940 1.363 . S
C2945 C2944 1.415 . S
H2946 C2943 0.999 . S
H2947 C2928 0.913 . S
H2948 C2966 0.951 . S
H2949 C2968 0.951 . S
H2950 C2970 0.950 . S
H2951 C2971 0.950 . S
H2952 C2973 0.950 . S
H2953 C2976 0.950 . S
H2954 C2977 0.931 1_455 S
H2955 C2979 0.980 . S
H2956 C2980 0.950 . S
H2957 C2981 0.951 . S
H2958 C2983 0.951 . S
H2959 C2985 0.950 . S
H2960 C2986 0.950 . S
H2961 C2988 0.950 . S
H2962 C2991 0.950 . S
H2963 C2992 0.950 . S
H2964 C2994 0.950 . S
H2965 C2995 0.950 . S
C2966 H2948 0.951 . S
C2966 C2967 1.366 . S
C2966 C2968 1.388 . S
C2967 C2966 1.366 . S
C2967 C2971 1.385 . S
C2968 H2949 0.951 . S
C2968 C2966 1.388 . S
C2968 C2969 1.366 . S
C2969 C2968 1.366 . S
C2969 C2970 1.414 . S
C2969 C2972 1.499 . S
C2970 H2950 0.950 . S
C2970 C2969 1.414 . S
C2970 C2971 1.374 . S
C2971 H2951 0.950 . S
C2971 C2967 1.385 . S
C2971 C2970 1.374 . S
C2972 C2969 1.499 . S
C2972 C2973 1.373 . S
C2972 C2974 1.389 . S
C2973 H2952 0.950 . S
C2973 C2972 1.373 . S
C2973 C2989 1.377 . S
C2974 C2972 1.389 . S
C2974 C2975 1.524 . S
C2974 C2988 1.377 . S
C2975 C2974 1.524 . S
C2975 C2976 1.397 . S
C2975 C2980 1.363 . S
C2976 H2953 0.950 . S
C2976 C2975 1.397 . S
C2976 C2977 1.381 . S
C2977 H2954 0.931 1_655 S
C2977 C2976 1.381 . S
C2977 C2978 1.262 1_655 S
C2978 C2977 1.262 1_455 S
C2978 C2979 1.544 . S
C2978 H2997 0.913 . S
C2979 H2955 0.980 . S
C2979 C2978 1.544 . S
C2979 C2980 1.363 1_455 S
C2980 H2956 0.950 . S
C2980 C2975 1.363 . S
C2980 C2979 1.363 1_655 S
C2981 H2957 0.951 . S
C2981 C2982 1.366 . S
C2981 C2983 1.388 1_545 S
C2982 C2981 1.366 . S
C2982 C2986 1.385 . S
C2983 H2958 0.951 . S
C2983 C2981 1.388 1_565 S
C2983 C2984 1.366 . S
C2984 C2983 1.366 . S
C2984 C2985 1.414 . S
C2984 C2987 1.499 . S
C2985 H2959 0.950 . S
C2985 C2984 1.414 . S
C2985 C2986 1.374 1_565 S
C2986 H2960 0.950 . S
C2986 C2982 1.385 . S
C2986 C2985 1.374 1_545 S
C2987 C2984 1.499 . S
C2987 C2988 1.373 . S
C2987 C2989 1.389 . S
C2988 H2961 0.950 . S
C2988 C2974 1.377 . S
C2988 C2987 1.373 . S
C2989 C2973 1.377 . S
C2989 C2987 1.389 . S
C2989 C2990 1.524 . S
C2990 C2989 1.524 . S
C2990 C2991 1.397 . S
C2990 C2995 1.363 . S
C2991 H2962 0.950 . S
C2991 C2990 1.397 . S
C2991 C2992 1.334 . S
C2992 H2963 0.950 . S
C2992 C2991 1.334 . S
C2992 C2993 1.287 . S
C2993 C2992 1.287 . S
C2993 C2994 1.524 . S
C2993 H2996 0.999 . S
C2994 H2964 0.950 . S
C2994 C2993 1.524 . S
C2994 C2995 1.415 . S
C2995 H2965 0.950 . S
C2995 C2990 1.363 . S
C2995 C2994 1.415 . S
H2996 C2993 0.999 . S
H2997 C2978 0.913 . S
H2998 C3016 0.951 . S
H2999 C3018 0.951 . S
H3000 C3020 0.950 . S
H3001 C3021 0.950 . S
H3002 C3023 0.950 . S
H3003 C3026 0.950 . S
H3004 C3027 0.950 . S
H3005 C3029 0.950 . S
H3006 C3030 0.950 . S
H3007 C3031 0.951 . S
H3008 C3033 0.951 . S
H3009 C3035 0.950 . S
H3010 C3036 0.950 . S
H3011 C3038 0.950 . S
H3012 C3041 0.950 . S
H3013 C3042 0.950 . S
H3014 C3044 0.950 . S
H3015 C3045 0.950 . S
C3016 H2998 0.951 . S
C3016 C3017 1.366 . S
C3016 C3018 1.388 1_545 S
C3017 C3016 1.366 . S
C3017 C3021 1.385 . S
C3018 H2999 0.951 . S
C3018 C3016 1.388 1_565 S
C3018 C3019 1.366 . S
C3019 C3018 1.366 . S
C3019 C3020 1.414 . S
C3019 C3022 1.499 . S
C3020 H3000 0.950 . S
C3020 C3019 1.414 . S
C3020 C3021 1.374 1_565 S
C3021 H3001 0.950 . S
C3021 C3017 1.385 . S
C3021 C3020 1.374 1_545 S
C3022 C3019 1.499 . S
C3022 C3023 1.373 . S
C3022 C3024 1.389 . S
C3023 H3002 0.950 . S
C3023 C3022 1.373 . S
C3023 C3039 1.377 . S
C3024 C3022 1.389 . S
C3024 C3025 1.524 . S
C3024 C3038 1.377 . S
C3025 C3024 1.524 . S
C3025 C3026 1.397 . S
C3025 C3030 1.363 . S
C3026 H3003 0.950 . S
C3026 C3025 1.397 . S
C3026 C3027 1.334 . S
C3027 H3004 0.950 . S
C3027 C3026 1.334 . S
C3027 C3028 1.287 . S
C3028 C3027 1.287 . S
C3028 C3029 1.524 . S
C3028 H3047 0.913 . S
C3029 H3005 0.950 . S
C3029 C3028 1.524 . S
C3029 C3030 1.415 . S
C3030 H3006 0.950 . S
C3030 C3025 1.363 . S
C3030 C3029 1.415 . S
C3031 H3007 0.951 . S
C3031 C3032 1.366 . S
C3031 C3033 1.388 . S
C3032 C3031 1.366 . S
C3032 C3036 1.385 . S
C3033 H3008 0.951 . S
C3033 C3031 1.388 . S
C3033 C3034 1.366 . S
C3034 C3033 1.366 . S
C3034 C3035 1.414 . S
C3034 C3037 1.499 . S
C3035 H3009 0.950 . S
C3035 C3034 1.414 . S
C3035 C3036 1.374 . S
C3036 H3010 0.950 . S
C3036 C3032 1.385 . S
C3036 C3035 1.374 . S
C3037 C3034 1.499 . S
C3037 C3038 1.373 . S
C3037 C3039 1.389 . S
C3038 H3011 0.950 . S
C3038 C3024 1.377 . S
C3038 C3037 1.373 . S
C3039 C3023 1.377 . S
C3039 C3037 1.389 . S
C3039 C3040 1.524 . S
C3040 C3039 1.524 . S
C3040 C3041 1.397 . S
C3040 C3045 1.363 . S
C3041 H3012 0.950 . S
C3041 C3040 1.397 . S
C3041 C3042 1.334 . S
C3042 H3013 0.950 . S
C3042 C3041 1.334 . S
C3042 C3043 1.287 . S
C3043 C3042 1.287 . S
C3043 C3044 1.524 . S
C3043 H3046 0.999 . S
C3044 H3014 0.950 . S
C3044 C3043 1.524 . S
C3044 C3045 1.415 . S
C3045 H3015 0.950 . S
C3045 C3040 1.363 . S
C3045 C3044 1.415 . S
H3046 C3043 0.999 . S
H3047 C3028 0.913 . S
H3048 C3066 0.951 . S
H3049 C3068 0.951 . S
H3050 C3070 0.950 . S
H3051 C3071 0.950 . S
H3052 C3073 0.950 . S
H3053 C3076 0.950 . S
H3054 C3077 0.950 . S
H3055 C3079 0.950 . S
H3056 C3080 0.950 . S
H3057 C3081 0.951 . S
H3058 C3083 0.951 . S
H3059 C3085 0.950 . S
H3060 C3086 0.950 . S
H3061 C3088 0.950 . S
H3062 C3091 0.950 . S
H3063 C3092 0.950 . S
H3064 C3094 0.950 . S
H3065 C3095 0.950 . S
C3066 H3048 0.951 . S
C3066 C3067 1.366 . S
C3066 C3068 1.388 . S
C3067 C3066 1.366 . S
C3067 C3071 1.385 . S
C3068 H3049 0.951 . S
C3068 C3066 1.388 . S
C3068 C3069 1.366 . S
C3069 C3068 1.366 . S
C3069 C3070 1.414 . S
C3069 C3072 1.499 . S
C3070 H3050 0.950 . S
C3070 C3069 1.414 . S
C3070 C3071 1.374 . S
C3071 H3051 0.950 . S
C3071 C3067 1.385 . S
C3071 C3070 1.374 . S
C3072 C3069 1.499 . S
C3072 C3073 1.373 . S
C3072 C3074 1.389 . S
C3073 H3052 0.950 . S
C3073 C3072 1.373 . S
C3073 C3089 1.377 . S
C3074 C3072 1.389 . S
C3074 C3075 1.524 . S
C3074 C3088 1.377 . S
C3075 C3074 1.524 . S
C3075 C3076 1.397 . S
C3075 C3080 1.363 . S
C3076 H3053 0.950 . S
C3076 C3075 1.397 . S
C3076 C3077 1.334 . S
C3077 H3054 0.950 . S
C3077 C3076 1.334 . S
C3077 C3078 1.287 . S
C3078 C3077 1.287 . S
C3078 C3079 1.524 . S
C3078 H3097 0.913 . S
C3079 H3055 0.950 . S
C3079 C3078 1.524 . S
C3079 C3080 1.415 . S
C3080 H3056 0.950 . S
C3080 C3075 1.363 . S
C3080 C3079 1.415 . S
C3081 H3057 0.951 . S
C3081 C3082 1.366 . S
C3081 C3083 1.388 . S
C3082 C3081 1.366 . S
C3082 C3086 1.385 . S
C3083 H3058 0.951 . S
C3083 C3081 1.388 . S
C3083 C3084 1.366 . S
C3084 C3083 1.366 . S
C3084 C3085 1.414 . S
C3084 C3087 1.499 . S
C3085 H3059 0.950 . S
C3085 C3084 1.414 . S
C3085 C3086 1.374 . S
C3086 H3060 0.950 . S
C3086 C3082 1.385 . S
C3086 C3085 1.374 . S
C3087 C3084 1.499 . S
C3087 C3088 1.373 . S
C3087 C3089 1.389 . S
C3088 H3061 0.950 . S
C3088 C3074 1.377 . S
C3088 C3087 1.373 . S
C3089 C3073 1.377 . S
C3089 C3087 1.389 . S
C3089 C3090 1.524 . S
C3090 C3089 1.524 . S
C3090 C3091 1.397 . S
C3090 C3095 1.363 . S
C3091 H3062 0.950 . S
C3091 C3090 1.397 . S
C3091 C3092 1.334 . S
C3092 H3063 0.950 . S
C3092 C3091 1.334 . S
C3092 C3093 1.287 . S
C3093 C3092 1.287 . S
C3093 C3094 1.524 . S
C3093 H3096 0.999 . S
C3094 H3064 0.950 . S
C3094 C3093 1.524 . S
C3094 C3095 1.415 . S
C3095 H3065 0.950 . S
C3095 C3090 1.363 . S
C3095 C3094 1.415 . S
H3096 C3093 0.999 . S
H3097 C3078 0.913 . S
H3098 C3116 0.951 . S
H3099 C3118 0.951 . S
H3100 C3120 0.950 . S
H3101 C3121 0.950 . S
H3102 C3123 0.950 . S
H3103 C3126 0.950 . S
H3104 C3127 0.950 . S
H3105 C3129 0.950 . S
H3106 C3130 0.950 . S
H3107 C3131 0.951 . S
H3108 C3133 0.951 . S
H3109 C3135 0.950 . S
H3110 C3136 0.950 . S
H3111 C3138 0.950 . S
H3112 C3141 0.950 . S
H3113 C3142 0.950 . S
H3114 C3144 0.950 . S
H3115 C3145 0.950 . S
C3116 H3098 0.951 . S
C3116 C3117 1.366 . S
C3116 C3118 1.388 . S
C3117 C3116 1.366 . S
C3117 C3121 1.385 . S
C3118 H3099 0.951 . S
C3118 C3116 1.388 . S
C3118 C3119 1.366 . S
C3119 C3118 1.366 . S
C3119 C3120 1.414 . S
C3119 C3122 1.499 . S
C3120 H3100 0.950 . S
C3120 C3119 1.414 . S
C3120 C3121 1.374 . S
C3121 H3101 0.950 . S
C3121 C3117 1.385 . S
C3121 C3120 1.374 . S
C3122 C3119 1.499 . S
C3122 C3123 1.373 . S
C3122 C3124 1.389 . S
C3123 H3102 0.950 . S
C3123 C3122 1.373 . S
C3123 C3139 1.377 . S
C3124 C3122 1.389 . S
C3124 C3125 1.524 . S
C3124 C3138 1.377 . S
C3125 C3124 1.524 . S
C3125 C3126 1.397 . S
C3125 C3130 1.363 . S
C3126 H3103 0.950 . S
C3126 C3125 1.397 . S
C3126 C3127 1.334 . S
C3127 H3104 0.950 . S
C3127 C3126 1.334 . S
C3127 C3128 1.287 . S
C3128 C3127 1.287 . S
C3128 C3129 1.524 . S
C3128 H3147 0.913 . S
C3129 H3105 0.950 . S
C3129 C3128 1.524 . S
C3129 C3130 1.415 . S
C3130 H3106 0.950 . S
C3130 C3125 1.363 . S
C3130 C3129 1.415 . S
C3131 H3107 0.951 . S
C3131 C3132 1.366 . S
C3131 C3133 1.388 . S
C3132 C3131 1.366 . S
C3132 C3136 1.385 . S
C3133 H3108 0.951 . S
C3133 C3131 1.388 . S
C3133 C3134 1.366 . S
C3134 C3133 1.366 . S
C3134 C3135 1.414 . S
C3134 C3137 1.499 . S
C3135 H3109 0.950 . S
C3135 C3134 1.414 . S
C3135 C3136 1.374 . S
C3136 H3110 0.950 . S
C3136 C3132 1.385 . S
C3136 C3135 1.374 . S
C3137 C3134 1.499 . S
C3137 C3138 1.373 . S
C3137 C3139 1.389 . S
C3138 H3111 0.950 . S
C3138 C3124 1.377 . S
C3138 C3137 1.373 . S
C3139 C3123 1.377 . S
C3139 C3137 1.389 . S
C3139 C3140 1.524 . S
C3140 C3139 1.524 . S
C3140 C3141 1.397 . S
C3140 C3145 1.363 . S
C3141 H3112 0.950 . S
C3141 C3140 1.397 . S
C3141 C3142 1.334 . S
C3142 H3113 0.950 . S
C3142 C3141 1.334 . S
C3142 C3143 1.287 . S
C3143 C3142 1.287 . S
C3143 C3144 1.524 . S
C3143 H3146 0.999 . S
C3144 H3114 0.950 . S
C3144 C3143 1.524 . S
C3144 C3145 1.415 . S
C3145 H3115 0.950 . S
C3145 C3140 1.363 . S
C3145 C3144 1.415 . S
H3146 C3143 0.999 . S
H3147 C3128 0.913 . S
H3148 C3166 0.951 . S
H3149 C3168 0.951 . S
H3150 C3170 0.950 . S
H3151 C3171 0.950 . S
H3152 C3173 0.950 . S
H3153 C3176 0.950 . S
H3154 C3177 0.906 1_455 S
H3155 C3179 0.950 . S
H3156 C3180 0.950 . S
H3157 C3181 0.951 . S
H3158 C3183 0.951 . S
H3159 C3185 0.950 . S
H3160 C3186 0.950 . S
H3161 C3188 0.950 . S
H3162 C3191 0.950 . S
H3163 C3192 0.950 . S
H3164 C3194 0.950 . S
H3165 C3195 0.950 . S
C3166 H3148 0.951 . S
C3166 C3167 1.366 . S
C3166 C3168 1.388 . S
C3167 C3166 1.366 . S
C3167 C3171 1.385 . S
C3168 H3149 0.951 . S
C3168 C3166 1.388 . S
C3168 C3169 1.366 . S
C3169 C3168 1.366 . S
C3169 C3170 1.414 . S
C3169 C3172 1.499 . S
C3170 H3150 0.950 . S
C3170 C3169 1.414 . S
C3170 C3171 1.374 . S
C3171 H3151 0.950 . S
C3171 C3167 1.385 . S
C3171 C3170 1.374 . S
C3172 C3169 1.499 . S
C3172 C3173 1.373 . S
C3172 C3174 1.389 . S
C3173 H3152 0.950 . S
C3173 C3172 1.373 . S
C3173 C3189 1.377 . S
C3174 C3172 1.389 . S
C3174 C3175 1.524 . S
C3174 C3188 1.377 . S
C3175 C3174 1.524 . S
C3175 C3176 1.397 . S
C3175 C3180 1.363 . S
C3176 H3153 0.950 . S
C3176 C3175 1.397 . S
C3176 C3177 1.334 . S
C3177 H3154 0.906 1_655 S
C3177 C3176 1.334 . S
C3177 C3178 1.287 . S
C3178 C3177 1.287 . S
C3178 C3179 1.524 . S
C3178 H3197 0.913 1_655 S
C3179 H3155 0.950 . S
C3179 C3178 1.524 . S
C3179 C3180 1.415 . S
C3180 H3156 0.950 . S
C3180 C3175 1.363 . S
C3180 C3179 1.415 . S
C3181 H3157 0.951 . S
C3181 C3182 1.366 . S
C3181 C3183 1.388 . S
C3182 C3181 1.366 . S
C3182 C3186 1.385 . S
C3183 H3158 0.951 . S
C3183 C3181 1.388 . S
C3183 C3184 1.366 . S
C3184 C3183 1.366 . S
C3184 C3185 1.414 . S
C3184 C3187 1.499 . S
C3185 H3159 0.950 . S
C3185 C3184 1.414 . S
C3185 C3186 1.374 . S
C3186 H3160 0.950 . S
C3186 C3182 1.385 . S
C3186 C3185 1.374 . S
C3187 C3184 1.499 . S
C3187 C3188 1.373 . S
C3187 C3189 1.389 . S
C3188 H3161 0.950 . S
C3188 C3174 1.377 . S
C3188 C3187 1.373 . S
C3189 C3173 1.377 . S
C3189 C3187 1.389 . S
C3189 C3190 1.524 . S
C3190 C3189 1.524 . S
C3190 C3191 1.397 . S
C3190 C3195 1.363 . S
C3191 H3162 0.950 . S
C3191 C3190 1.397 . S
C3191 C3192 1.334 . S
C3192 H3163 0.950 . S
C3192 C3191 1.334 . S
C3192 C3193 1.287 . S
C3193 C3192 1.287 . S
C3193 C3194 1.524 . S
C3193 H3196 0.999 . S
C3194 H3164 0.950 . S
C3194 C3193 1.524 . S
C3194 C3195 1.415 . S
C3195 H3165 0.950 . S
C3195 C3190 1.363 . S
C3195 C3194 1.415 . S
H3196 C3193 0.999 . S
H3197 C3178 0.913 1_455 S
H3198 C3216 0.951 . S
H3199 C3218 0.951 . S
H3200 C3220 0.950 . S
H3201 C3221 0.950 . S
H3202 C3223 0.950 . S
H3203 C3226 0.950 . S
H3204 C3227 0.950 . S
H3205 C3229 0.950 . S
H3206 C3230 0.950 . S
H3207 C3231 0.951 . S
H3208 C3233 0.951 . S
H3209 C3235 0.950 . S
H3210 C3236 0.950 . S
H3211 C3238 0.950 . S
H3212 C3241 0.950 . S
H3213 C3242 0.950 . S
H3214 C3244 0.950 . S
H3215 C3245 0.950 . S
C3216 H3198 0.951 . S
C3216 C3217 1.366 . S
C3216 C3218 1.388 . S
C3217 C3216 1.366 . S
C3217 C3221 1.385 . S
C3218 H3199 0.951 . S
C3218 C3216 1.388 . S
C3218 C3219 1.366 . S
C3219 C3218 1.366 . S
C3219 C3220 1.414 . S
C3219 C3222 1.499 . S
C3220 H3200 0.950 . S
C3220 C3219 1.414 . S
C3220 C3221 1.374 . S
C3221 H3201 0.950 . S
C3221 C3217 1.385 . S
C3221 C3220 1.374 . S
C3222 C3219 1.499 . S
C3222 C3223 1.373 . S
C3222 C3224 1.389 . S
C3223 H3202 0.950 . S
C3223 C3222 1.373 . S
C3223 C3239 1.377 . S
C3224 C3222 1.389 . S
C3224 C3225 1.524 . S
C3224 C3238 1.377 . S
C3225 C3224 1.524 . S
C3225 C3226 1.397 . S
C3225 C3230 1.363 . S
C3226 H3203 0.950 . S
C3226 C3225 1.397 . S
C3226 C3227 1.334 . S
C3227 H3204 0.950 . S
C3227 C3226 1.334 . S
C3227 C3228 1.287 . S
C3228 C3227 1.287 . S
C3228 C3229 1.524 . S
C3228 H3247 0.913 . S
C3229 H3205 0.950 . S
C3229 C3228 1.524 . S
C3229 C3230 1.415 . S
C3230 H3206 0.950 . S
C3230 C3225 1.363 . S
C3230 C3229 1.415 . S
C3231 H3207 0.951 . S
C3231 C3232 1.366 . S
C3231 C3233 1.388 . S
C3232 C3231 1.366 . S
C3232 C3236 1.385 . S
C3233 H3208 0.951 . S
C3233 C3231 1.388 . S
C3233 C3234 1.366 . S
C3234 C3233 1.366 . S
C3234 C3235 1.414 . S
C3234 C3237 1.499 . S
C3235 H3209 0.950 . S
C3235 C3234 1.414 . S
C3235 C3236 1.374 . S
C3236 H3210 0.950 . S
C3236 C3232 1.385 . S
C3236 C3235 1.374 . S
C3237 C3234 1.499 . S
C3237 C3238 1.373 . S
C3237 C3239 1.389 . S
C3238 H3211 0.950 . S
C3238 C3224 1.377 . S
C3238 C3237 1.373 . S
C3239 C3223 1.377 . S
C3239 C3237 1.389 . S
C3239 C3240 1.524 . S
C3240 C3239 1.524 . S
C3240 C3241 1.397 . S
C3240 C3245 1.363 . S
C3241 H3212 0.950 . S
C3241 C3240 1.397 . S
C3241 C3242 1.334 . S
C3242 H3213 0.950 . S
C3242 C3241 1.334 . S
C3242 C3243 1.287 . S
C3243 C3242 1.287 . S
C3243 C3244 1.524 . S
C3243 H3246 0.999 . S
C3244 H3214 0.950 . S
C3244 C3243 1.524 . S
C3244 C3245 1.415 . S
C3245 H3215 0.950 . S
C3245 C3240 1.363 . S
C3245 C3244 1.415 . S
H3246 C3243 0.999 . S
H3247 C3228 0.913 . S
H3248 C3266 0.951 . S
H3249 C3268 0.951 . S
H3250 C3270 0.950 . S
H3251 C3271 0.950 . S
H3252 C3273 0.950 . S
H3253 C3276 0.950 . S
H3254 C3277 0.950 . S
H3255 C3279 0.950 . S
H3256 C3280 0.950 . S
H3257 C3281 0.951 . S
H3258 C3283 0.951 . S
H3259 C3285 0.950 . S
H3260 C3286 0.950 . S
H3261 C3288 0.950 . S
H3262 C3291 0.950 . S
H3263 C3292 0.950 . S
H3264 C3294 0.950 . S
H3265 C3295 0.950 . S
C3266 H3248 0.951 . S
C3266 C3267 1.366 . S
C3266 C3268 1.388 1_565 S
C3267 C3266 1.366 . S
C3267 C3271 1.385 . S
C3268 H3249 0.951 . S
C3268 C3266 1.388 1_545 S
C3268 C3269 1.366 . S
C3269 C3268 1.366 . S
C3269 C3270 1.414 . S
C3269 C3272 1.499 . S
C3270 H3250 0.950 . S
C3270 C3269 1.414 . S
C3270 C3271 1.374 1_545 S
C3271 H3251 0.950 . S
C3271 C3267 1.385 . S
C3271 C3270 1.374 1_565 S
C3272 C3269 1.499 . S
C3272 C3273 1.373 . S
C3272 C3274 1.389 . S
C3273 H3252 0.950 . S
C3273 C3272 1.373 . S
C3273 C3289 1.377 . S
C3274 C3272 1.389 . S
C3274 C3275 1.524 . S
C3274 C3288 1.377 . S
C3275 C3274 1.524 . S
C3275 C3276 1.397 . S
C3275 C3280 1.363 . S
C3276 H3253 0.950 . S
C3276 C3275 1.397 . S
C3276 C3277 1.334 . S
C3277 H3254 0.950 . S
C3277 C3276 1.334 . S
C3277 C3278 1.287 . S
C3278 C3277 1.287 . S
C3278 C3279 1.524 . S
C3278 H3297 0.913 . S
C3279 H3255 0.950 . S
C3279 C3278 1.524 . S
C3279 C3280 1.415 . S
C3280 H3256 0.950 . S
C3280 C3275 1.363 . S
C3280 C3279 1.415 . S
C3281 H3257 0.951 . S
C3281 C3282 1.366 . S
C3281 C3283 1.388 . S
C3282 C3281 1.366 . S
C3282 C3286 1.385 . S
C3283 H3258 0.951 . S
C3283 C3281 1.388 . S
C3283 C3284 1.366 . S
C3284 C3283 1.366 . S
C3284 C3285 1.414 . S
C3284 C3287 1.499 . S
C3285 H3259 0.950 . S
C3285 C3284 1.414 . S
C3285 C3286 1.374 . S
C3286 H3260 0.950 . S
C3286 C3282 1.385 . S
C3286 C3285 1.374 . S
C3287 C3284 1.499 . S
C3287 C3288 1.373 . S
C3287 C3289 1.389 . S
C3288 H3261 0.950 . S
C3288 C3274 1.377 . S
C3288 C3287 1.373 . S
C3289 C3273 1.377 . S
C3289 C3287 1.389 . S
C3289 C3290 1.524 . S
C3290 C3289 1.524 . S
C3290 C3291 1.397 . S
C3290 C3295 1.363 . S
C3291 H3262 0.950 . S
C3291 C3290 1.397 . S
C3291 C3292 1.334 . S
C3292 H3263 0.950 . S
C3292 C3291 1.334 . S
C3292 C3293 1.287 . S
C3293 C3292 1.287 . S
C3293 C3294 1.524 . S
C3293 H3296 0.999 . S
C3294 H3264 0.950 . S
C3294 C3293 1.524 . S
C3294 C3295 1.415 . S
C3295 H3265 0.950 . S
C3295 C3290 1.363 . S
C3295 C3294 1.415 . S
H3296 C3293 0.999 . S
H3297 C3278 0.913 . S
H3298 C3316 0.951 . S
H3299 C3318 0.951 . S
H3300 C3320 0.950 . S
H3301 C3321 0.950 . S
H3302 C3323 0.950 . S
H3303 C3326 0.950 . S
H3304 C3327 0.950 . S
H3305 C3329 0.950 . S
H3306 C3330 0.950 . S
H3307 C3331 0.951 . S
H3308 C3333 0.951 . S
H3309 C3335 0.950 . S
H3310 C3336 0.950 . S
H3311 C3338 0.950 . S
H3312 C3341 0.950 . S
H3313 C3342 0.950 . S
H3314 C3344 0.950 . S
H3315 C3345 0.950 . S
C3316 H3298 0.951 . S
C3316 C3317 1.366 . S
C3316 C3318 1.388 . S
C3317 C3316 1.366 . S
C3317 C3321 1.385 . S
C3318 H3299 0.951 . S
C3318 C3316 1.388 . S
C3318 C3319 1.366 . S
C3319 C3318 1.366 . S
C3319 C3320 1.414 . S
C3319 C3322 1.499 . S
C3320 H3300 0.950 . S
C3320 C3319 1.414 . S
C3320 C3321 1.374 . S
C3321 H3301 0.950 . S
C3321 C3317 1.385 . S
C3321 C3320 1.374 . S
C3322 C3319 1.499 . S
C3322 C3323 1.373 . S
C3322 C3324 1.389 . S
C3323 H3302 0.950 . S
C3323 C3322 1.373 . S
C3323 C3339 1.377 . S
C3324 C3322 1.389 . S
C3324 C3325 1.524 . S
C3324 C3338 1.377 . S
C3325 C3324 1.524 . S
C3325 C3326 1.397 . S
C3325 C3330 1.363 . S
C3326 H3303 0.950 . S
C3326 C3325 1.397 . S
C3326 C3327 1.334 . S
C3327 H3304 0.950 . S
C3327 C3326 1.334 . S
C3327 C3328 1.287 . S
C3328 C3327 1.287 . S
C3328 C3329 1.524 . S
C3328 H3347 0.913 . S
C3329 H3305 0.950 . S
C3329 C3328 1.524 . S
C3329 C3330 1.415 . S
C3330 H3306 0.950 . S
C3330 C3325 1.363 . S
C3330 C3329 1.415 . S
C3331 H3307 0.951 . S
C3331 C3332 1.366 . S
C3331 C3333 1.388 1_565 S
C3332 C3331 1.366 . S
C3332 C3336 1.385 . S
C3333 H3308 0.951 . S
C3333 C3331 1.388 1_545 S
C3333 C3334 1.366 . S
C3334 C3333 1.366 . S
C3334 C3335 1.414 . S
C3334 C3337 1.499 . S
C3335 H3309 0.950 . S
C3335 C3334 1.414 . S
C3335 C3336 1.374 1_545 S
C3336 H3310 0.950 . S
C3336 C3332 1.385 . S
C3336 C3335 1.374 1_565 S
C3337 C3334 1.499 . S
C3337 C3338 1.373 . S
C3337 C3339 1.389 . S
C3338 H3311 0.950 . S
C3338 C3324 1.377 . S
C3338 C3337 1.373 . S
C3339 C3323 1.377 . S
C3339 C3337 1.389 . S
C3339 C3340 1.524 . S
C3340 C3339 1.524 . S
C3340 C3341 1.397 . S
C3340 C3345 1.363 . S
C3341 H3312 0.950 . S
C3341 C3340 1.397 . S
C3341 C3342 1.334 . S
C3342 H3313 0.950 . S
C3342 C3341 1.334 . S
C3342 C3343 1.287 . S
C3343 C3342 1.287 . S
C3343 C3344 1.524 . S
C3343 H3346 0.999 . S
C3344 H3314 0.950 . S
C3344 C3343 1.524 . S
C3344 C3345 1.415 . S
C3345 H3315 0.950 . S
C3345 C3340 1.363 . S
C3345 C3344 1.415 . S
H3346 C3343 0.999 . S
H3347 C3328 0.913 . S
H3348 C3366 0.951 . S
H3349 C3368 0.951 . S
H3350 C3370 0.950 . S
H3351 C3371 0.950 . S
H3352 C3373 0.950 . S
H3353 C3376 0.950 . S
H3354 C3377 0.950 . S
H3355 C3379 0.950 . S
H3356 C3380 0.950 . S
H3357 C3381 0.951 . S
H3358 C3383 0.951 . S
H3359 C3385 0.950 . S
H3360 C3386 0.950 . S
H3361 C3388 0.950 . S
H3362 C3391 0.950 . S
H3363 C3392 0.950 . S
H3364 C3394 0.950 . S
H3365 C3395 0.950 . S
C3366 H3348 0.951 . S
C3366 C3367 1.366 . S
C3366 C3368 1.388 . S
C3367 C3366 1.366 . S
C3367 C3371 1.385 . S
C3368 H3349 0.951 . S
C3368 C3366 1.388 . S
C3368 C3369 1.366 . S
C3369 C3368 1.366 . S
C3369 C3370 1.414 . S
C3369 C3372 1.499 . S
C3370 H3350 0.950 . S
C3370 C3369 1.414 . S
C3370 C3371 1.374 . S
C3371 H3351 0.950 . S
C3371 C3367 1.385 . S
C3371 C3370 1.374 . S
C3372 C3369 1.499 . S
C3372 C3373 1.373 . S
C3372 C3374 1.389 . S
C3373 H3352 0.950 . S
C3373 C3372 1.373 . S
C3373 C3389 1.377 . S
C3374 C3372 1.389 . S
C3374 C3375 1.524 . S
C3374 C3388 1.377 . S
C3375 C3374 1.524 . S
C3375 C3376 1.397 . S
C3375 C3380 1.363 . S
C3376 H3353 0.950 . S
C3376 C3375 1.397 . S
C3376 C3377 1.334 . S
C3377 H3354 0.950 . S
C3377 C3376 1.334 . S
C3377 C3378 1.287 . S
C3378 C3377 1.287 . S
C3378 C3379 1.524 . S
C3378 H3397 0.913 . S
C3379 H3355 0.950 . S
C3379 C3378 1.524 . S
C3379 C3380 1.415 . S
C3380 H3356 0.950 . S
C3380 C3375 1.363 . S
C3380 C3379 1.415 . S
C3381 H3357 0.951 . S
C3381 C3382 1.366 . S
C3381 C3383 1.388 1_545 S
C3382 C3381 1.366 . S
C3382 C3386 1.385 . S
C3383 H3358 0.951 . S
C3383 C3381 1.388 1_565 S
C3383 C3384 1.366 . S
C3384 C3383 1.366 . S
C3384 C3385 1.414 . S
C3384 C3387 1.499 . S
C3385 H3359 0.950 . S
C3385 C3384 1.414 . S
C3385 C3386 1.374 1_565 S
C3386 H3360 0.950 . S
C3386 C3382 1.385 . S
C3386 C3385 1.374 1_545 S
C3387 C3384 1.499 . S
C3387 C3388 1.373 . S
C3387 C3389 1.389 . S
C3388 H3361 0.950 . S
C3388 C3374 1.377 . S
C3388 C3387 1.373 . S
C3389 C3373 1.377 . S
C3389 C3387 1.389 . S
C3389 C3390 1.524 . S
C3390 C3389 1.524 . S
C3390 C3391 1.397 . S
C3390 C3395 1.363 . S
C3391 H3362 0.950 . S
C3391 C3390 1.397 . S
C3391 C3392 1.334 . S
C3392 H3363 0.950 . S
C3392 C3391 1.334 . S
C3392 C3393 1.287 . S
C3393 C3392 1.287 . S
C3393 C3394 1.524 . S
C3393 H3396 0.999 . S
C3394 H3364 0.950 . S
C3394 C3393 1.524 . S
C3394 C3395 1.415 . S
C3395 H3365 0.950 . S
C3395 C3390 1.363 . S
C3395 C3394 1.415 . S
H3396 C3393 0.999 . S
H3397 C3378 0.913 . S
H3398 C3416 0.951 . S
H3399 C3418 0.951 . S
H3400 C3420 0.950 . S
H3401 C3421 0.950 . S
H3402 C3423 0.950 . S
H3403 C3426 0.950 . S
H3404 C3427 0.950 . S
H3405 C3429 0.950 . S
H3406 C3430 0.950 . S
H3407 C3431 0.951 . S
H3408 C3433 0.951 . S
H3409 C3435 0.950 . S
H3410 C3436 0.950 . S
H3411 C3438 0.950 . S
H3412 C3441 0.950 . S
H3413 C3442 0.950 . S
H3414 C3444 0.950 . S
H3415 C3445 0.950 . S
C3416 H3398 0.951 . S
C3416 C3417 1.366 . S
C3416 C3418 1.388 . S
C3417 C3416 1.366 . S
C3417 C3421 1.385 . S
C3418 H3399 0.951 . S
C3418 C3416 1.388 . S
C3418 C3419 1.366 . S
C3419 C3418 1.366 . S
C3419 C3420 1.414 . S
C3419 C3422 1.499 . S
C3420 H3400 0.950 . S
C3420 C3419 1.414 . S
C3420 C3421 1.374 . S
C3421 H3401 0.950 . S
C3421 C3417 1.385 . S
C3421 C3420 1.374 . S
C3422 C3419 1.499 . S
C3422 C3423 1.373 . S
C3422 C3424 1.389 . S
C3423 H3402 0.950 . S
C3423 C3422 1.373 . S
C3423 C3439 1.377 . S
C3424 C3422 1.389 . S
C3424 C3425 1.524 . S
C3424 C3438 1.377 . S
C3425 C3424 1.524 . S
C3425 C3426 1.397 . S
C3425 C3430 1.363 . S
C3426 H3403 0.950 . S
C3426 C3425 1.397 . S
C3426 C3427 1.334 . S
C3427 H3404 0.950 . S
C3427 C3426 1.334 . S
C3427 C3428 1.287 . S
C3428 C3427 1.287 . S
C3428 C3429 1.524 . S
C3428 H3447 0.913 . S
C3429 H3405 0.950 . S
C3429 C3428 1.524 . S
C3429 C3430 1.415 . S
C3430 H3406 0.950 . S
C3430 C3425 1.363 . S
C3430 C3429 1.415 . S
C3431 H3407 0.951 . S
C3431 C3432 1.366 . S
C3431 C3433 1.388 1_545 S
C3432 C3431 1.366 . S
C3432 C3436 1.385 . S
C3433 H3408 0.951 . S
C3433 C3431 1.388 1_565 S
C3433 C3434 1.366 . S
C3434 C3433 1.366 . S
C3434 C3435 1.414 . S
C3434 C3437 1.499 . S
C3435 H3409 0.950 . S
C3435 C3434 1.414 . S
C3435 C3436 1.374 1_565 S
C3436 H3410 0.950 . S
C3436 C3432 1.385 . S
C3436 C3435 1.374 1_545 S
C3437 C3434 1.499 . S
C3437 C3438 1.373 . S
C3437 C3439 1.389 . S
C3438 H3411 0.950 . S
C3438 C3424 1.377 . S
C3438 C3437 1.373 . S
C3439 C3423 1.377 . S
C3439 C3437 1.389 . S
C3439 C3440 1.524 . S
C3440 C3439 1.524 . S
C3440 C3441 1.397 . S
C3440 C3445 1.363 . S
C3441 H3412 0.950 . S
C3441 C3440 1.397 . S
C3441 C3442 1.334 . S
C3442 H3413 0.950 . S
C3442 C3441 1.334 . S
C3442 C3443 1.287 . S
C3443 C3442 1.287 . S
C3443 C3444 1.524 . S
C3443 H3446 0.999 . S
C3444 H3414 0.950 . S
C3444 C3443 1.524 . S
C3444 C3445 1.415 . S
C3445 H3415 0.950 . S
C3445 C3440 1.363 . S
C3445 C3444 1.415 . S
H3446 C3443 0.999 . S
H3447 C3428 0.913 . S
H3448 C3466 0.951 . S
H3449 C3468 0.951 . S
H3450 C3470 0.950 . S
H3451 C3471 0.950 . S
H3452 C3473 0.950 . S
H3453 C3476 0.950 . S
H3454 C3477 0.950 . S
H3455 C3479 0.950 . S
H3456 C3480 0.950 . S
H3457 C3481 0.951 . S
H3458 C3483 0.951 . S
H3459 C3485 0.950 . S
H3460 C3486 0.950 . S
H3461 C3488 0.950 . S
H3462 C3491 0.950 . S
H3463 C3492 0.950 . S
H3464 C3494 0.950 . S
H3465 C3495 0.950 . S
C3466 H3448 0.951 . S
C3466 C3467 1.366 . S
C3466 C3468 1.388 . S
C3467 C3466 1.366 . S
C3467 C3471 1.385 . S
C3468 H3449 0.951 . S
C3468 C3466 1.388 . S
C3468 C3469 1.366 . S
C3469 C3468 1.366 . S
C3469 C3470 1.414 . S
C3469 C3472 1.499 . S
C3470 H3450 0.950 . S
C3470 C3469 1.414 . S
C3470 C3471 1.374 . S
C3471 H3451 0.950 . S
C3471 C3467 1.385 . S
C3471 C3470 1.374 . S
C3472 C3469 1.499 . S
C3472 C3473 1.373 . S
C3472 C3474 1.389 . S
C3473 H3452 0.950 . S
C3473 C3472 1.373 . S
C3473 C3489 1.377 . S
C3474 C3472 1.389 . S
C3474 C3475 1.524 . S
C3474 C3488 1.377 . S
C3475 C3474 1.524 . S
C3475 C3476 1.397 . S
C3475 C3480 1.363 . S
C3476 H3453 0.950 . S
C3476 C3475 1.397 . S
C3476 C3477 1.334 . S
C3477 H3454 0.950 . S
C3477 C3476 1.334 . S
C3477 C3478 1.287 . S
C3478 C3477 1.287 . S
C3478 C3479 1.524 . S
C3478 H3497 0.913 . S
C3479 H3455 0.950 . S
C3479 C3478 1.524 . S
C3479 C3480 1.415 . S
C3480 H3456 0.950 . S
C3480 C3475 1.363 . S
C3480 C3479 1.415 . S
C3481 H3457 0.951 . S
C3481 C3482 1.366 . S
C3481 C3483 1.388 . S
C3482 C3481 1.366 . S
C3482 C3486 1.385 . S
C3483 H3458 0.951 . S
C3483 C3481 1.388 . S
C3483 C3484 1.366 . S
C3484 C3483 1.366 . S
C3484 C3485 1.414 . S
C3484 C3487 1.499 . S
C3485 H3459 0.950 . S
C3485 C3484 1.414 . S
C3485 C3486 1.374 . S
C3486 H3460 0.950 . S
C3486 C3482 1.385 . S
C3486 C3485 1.374 . S
C3487 C3484 1.499 . S
C3487 C3488 1.373 . S
C3487 C3489 1.389 . S
C3488 H3461 0.950 . S
C3488 C3474 1.377 . S
C3488 C3487 1.373 . S
C3489 C3473 1.377 . S
C3489 C3487 1.389 . S
C3489 C3490 1.524 . S
C3490 C3489 1.524 . S
C3490 C3491 1.397 . S
C3490 C3495 1.363 . S
C3491 H3462 0.950 . S
C3491 C3490 1.397 . S
C3491 C3492 1.334 . S
C3492 H3463 0.950 . S
C3492 C3491 1.334 . S
C3492 C3493 1.287 . S
C3493 C3492 1.287 . S
C3493 C3494 1.524 . S
C3493 H3496 0.999 . S
C3494 H3464 0.950 . S
C3494 C3493 1.524 . S
C3494 C3495 1.415 . S
C3495 H3465 0.950 . S
C3495 C3490 1.363 . S
C3495 C3494 1.415 . S
H3496 C3493 0.999 . S
H3497 C3478 0.913 . S
H3498 C3516 0.951 . S
H3499 C3518 0.951 . S
H3500 C3520 0.950 . S
H3501 C3521 0.950 . S
H3502 C3523 0.950 . S
H3503 C3526 0.950 . S
H3504 C3527 0.950 . S
H3505 C3529 0.950 . S
H3506 C3530 0.950 . S
H3507 C3531 0.951 . S
H3508 C3533 0.951 . S
H3509 C3535 0.950 . S
H3510 C3536 0.950 . S
H3511 C3538 0.950 . S
H3512 C3541 0.950 . S
H3513 C3542 0.950 . S
H3514 C3544 0.950 . S
H3515 C3545 0.950 . S
C3516 H3498 0.951 . S
C3516 C3517 1.366 . S
C3516 C3518 1.388 . S
C3517 C3516 1.366 . S
C3517 C3521 1.385 . S
C3518 H3499 0.951 . S
C3518 C3516 1.388 . S
C3518 C3519 1.366 . S
C3519 C3518 1.366 . S
C3519 C3520 1.414 . S
C3519 C3522 1.499 . S
C3520 H3500 0.950 . S
C3520 C3519 1.414 . S
C3520 C3521 1.374 . S
C3521 H3501 0.950 . S
C3521 C3517 1.385 . S
C3521 C3520 1.374 . S
C3522 C3519 1.499 . S
C3522 C3523 1.373 . S
C3522 C3524 1.389 . S
C3523 H3502 0.950 . S
C3523 C3522 1.373 . S
C3523 C3539 1.377 . S
C3524 C3522 1.389 . S
C3524 C3525 1.524 . S
C3524 C3538 1.377 . S
C3525 C3524 1.524 . S
C3525 C3526 1.397 . S
C3525 C3530 1.363 . S
C3526 H3503 0.950 . S
C3526 C3525 1.397 . S
C3526 C3527 1.334 . S
C3527 H3504 0.950 . S
C3527 C3526 1.334 . S
C3527 C3528 1.287 . S
C3528 C3527 1.287 . S
C3528 C3529 1.524 . S
C3528 H3547 0.913 . S
C3529 H3505 0.950 . S
C3529 C3528 1.524 . S
C3529 C3530 1.415 . S
C3530 H3506 0.950 . S
C3530 C3525 1.363 . S
C3530 C3529 1.415 . S
C3531 H3507 0.951 . S
C3531 C3532 1.366 . S
C3531 C3533 1.388 . S
C3532 C3531 1.366 . S
C3532 C3536 1.385 . S
C3533 H3508 0.951 . S
C3533 C3531 1.388 . S
C3533 C3534 1.366 . S
C3534 C3533 1.366 . S
C3534 C3535 1.414 . S
C3534 C3537 1.499 . S
C3535 H3509 0.950 . S
C3535 C3534 1.414 . S
C3535 C3536 1.374 . S
C3536 H3510 0.950 . S
C3536 C3532 1.385 . S
C3536 C3535 1.374 . S
C3537 C3534 1.499 . S
C3537 C3538 1.373 . S
C3537 C3539 1.389 . S
C3538 H3511 0.950 . S
C3538 C3524 1.377 . S
C3538 C3537 1.373 . S
C3539 C3523 1.377 . S
C3539 C3537 1.389 . S
C3539 C3540 1.524 . S
C3540 C3539 1.524 . S
C3540 C3541 1.397 . S
C3540 C3545 1.363 . S
C3541 H3512 0.950 . S
C3541 C3540 1.397 . S
C3541 C3542 1.334 . S
C3542 H3513 0.950 . S
C3542 C3541 1.334 . S
C3542 C3543 1.287 . S
C3543 C3542 1.287 . S
C3543 C3544 1.524 . S
C3543 H3546 0.999 . S
C3544 H3514 0.950 . S
C3544 C3543 1.524 . S
C3544 C3545 1.415 . S
C3545 H3515 0.950 . S
C3545 C3540 1.363 . S
C3545 C3544 1.415 . S
H3546 C3543 0.999 . S
H3547 C3528 0.913 . S
H3548 C3566 0.951 . S
H3549 C3568 0.951 . S
H3550 C3570 0.950 . S
H3551 C3571 0.950 . S
H3552 C3573 0.950 . S
H3553 C3576 0.950 . S
H3554 C3577 0.950 . S
H3555 C3579 0.950 . S
H3556 C3580 0.950 . S
H3557 C3581 0.951 . S
H3558 C3583 0.951 . S
H3559 C3585 0.950 . S
H3560 C3586 0.950 . S
H3561 C3588 0.950 . S
H3562 C3591 0.950 . S
H3563 C3592 0.950 . S
H3564 C3594 0.950 . S
H3565 C3595 0.950 . S
C3566 H3548 0.951 . S
C3566 C3567 1.366 . S
C3566 C3568 1.388 . S
C3567 C3566 1.366 . S
C3567 C3571 1.385 . S
C3568 H3549 0.951 . S
C3568 C3566 1.388 . S
C3568 C3569 1.366 . S
C3569 C3568 1.366 . S
C3569 C3570 1.414 . S
C3569 C3572 1.499 . S
C3570 H3550 0.950 . S
C3570 C3569 1.414 . S
C3570 C3571 1.374 . S
C3571 H3551 0.950 . S
C3571 C3567 1.385 . S
C3571 C3570 1.374 . S
C3572 C3569 1.499 . S
C3572 C3573 1.373 . S
C3572 C3574 1.389 . S
C3573 H3552 0.950 . S
C3573 C3572 1.373 . S
C3573 C3589 1.377 . S
C3574 C3572 1.389 . S
C3574 C3575 1.524 . S
C3574 C3588 1.377 . S
C3575 C3574 1.524 . S
C3575 C3576 1.397 . S
C3575 C3580 1.363 . S
C3576 H3553 0.950 . S
C3576 C3575 1.397 . S
C3576 C3577 1.334 . S
C3577 H3554 0.950 . S
C3577 C3576 1.334 . S
C3577 C3578 1.287 . S
C3578 C3577 1.287 . S
C3578 C3579 1.524 . S
C3578 H3597 0.913 . S
C3579 H3555 0.950 . S
C3579 C3578 1.524 . S
C3579 C3580 1.415 . S
C3580 H3556 0.950 . S
C3580 C3575 1.363 . S
C3580 C3579 1.415 . S
C3581 H3557 0.951 . S
C3581 C3582 1.366 . S
C3581 C3583 1.388 . S
C3582 C3581 1.366 . S
C3582 C3586 1.385 . S
C3583 H3558 0.951 . S
C3583 C3581 1.388 . S
C3583 C3584 1.366 . S
C3584 C3583 1.366 . S
C3584 C3585 1.414 . S
C3584 C3587 1.499 . S
C3585 H3559 0.950 . S
C3585 C3584 1.414 . S
C3585 C3586 1.374 . S
C3586 H3560 0.950 . S
C3586 C3582 1.385 . S
C3586 C3585 1.374 . S
C3587 C3584 1.499 . S
C3587 C3588 1.373 . S
C3587 C3589 1.389 . S
C3588 H3561 0.950 . S
C3588 C3574 1.377 . S
C3588 C3587 1.373 . S
C3589 C3573 1.377 . S
C3589 C3587 1.389 . S
C3589 C3590 1.524 . S
C3590 C3589 1.524 . S
C3590 C3591 1.397 . S
C3590 C3595 1.363 . S
C3591 H3562 0.950 . S
C3591 C3590 1.397 . S
C3591 C3592 1.334 . S
C3592 H3563 0.950 . S
C3592 C3591 1.334 . S
C3592 C3593 1.287 . S
C3593 C3592 1.287 . S
C3593 C3594 1.524 . S
C3593 H3596 0.999 . S
C3594 H3564 0.950 . S
C3594 C3593 1.524 . S
C3594 C3595 1.415 . S
C3595 H3565 0.950 . S
C3595 C3590 1.363 . S
C3595 C3594 1.415 . S
H3596 C3593 0.999 . S
H3597 C3578 0.913 . S
H3598 C3616 0.951 . S
H3599 C3618 0.951 . S
H3600 C3620 0.950 . S
H3601 C3621 0.950 . S
H3602 C3623 0.950 . S
H3603 C3626 0.950 . S
H3604 C3627 0.950 . S
H3605 C3629 0.950 . S
H3606 C3630 0.950 . S
H3607 C3631 0.951 . S
H3608 C3633 0.951 . S
H3609 C3635 0.950 . S
H3610 C3636 0.950 . S
H3611 C3638 0.950 . S
H3612 C3641 0.950 . S
H3613 C3642 0.950 . S
H3614 C3644 0.950 . S
H3615 C3645 0.950 . S
C3616 H3598 0.951 . S
C3616 C3617 1.366 . S
C3616 C3618 1.388 . S
C3617 C3616 1.366 . S
C3617 C3621 1.385 . S
C3618 H3599 0.951 . S
C3618 C3616 1.388 . S
C3618 C3619 1.366 . S
C3619 C3618 1.366 . S
C3619 C3620 1.414 . S
C3619 C3622 1.499 . S
C3620 H3600 0.950 . S
C3620 C3619 1.414 . S
C3620 C3621 1.374 . S
C3621 H3601 0.950 . S
C3621 C3617 1.385 . S
C3621 C3620 1.374 . S
C3622 C3619 1.499 . S
C3622 C3623 1.373 . S
C3622 C3624 1.389 . S
C3623 H3602 0.950 . S
C3623 C3622 1.373 . S
C3623 C3639 1.377 . S
C3624 C3622 1.389 . S
C3624 C3625 1.524 . S
C3624 C3638 1.377 . S
C3625 C3624 1.524 . S
C3625 C3626 1.397 . S
C3625 C3630 1.363 . S
C3626 H3603 0.950 . S
C3626 C3625 1.397 . S
C3626 C3627 1.334 . S
C3627 H3604 0.950 . S
C3627 C3626 1.334 . S
C3627 C3628 1.287 . S
C3628 C3627 1.287 . S
C3628 C3629 1.524 . S
C3628 H3647 0.913 . S
C3629 H3605 0.950 . S
C3629 C3628 1.524 . S
C3629 C3630 1.415 . S
C3630 H3606 0.950 . S
C3630 C3625 1.363 . S
C3630 C3629 1.415 . S
C3631 H3607 0.951 . S
C3631 C3632 1.366 . S
C3631 C3633 1.388 . S
C3632 C3631 1.366 . S
C3632 C3636 1.385 . S
C3633 H3608 0.951 . S
C3633 C3631 1.388 . S
C3633 C3634 1.366 . S
C3634 C3633 1.366 . S
C3634 C3635 1.414 . S
C3634 C3637 1.499 . S
C3635 H3609 0.950 . S
C3635 C3634 1.414 . S
C3635 C3636 1.374 . S
C3636 H3610 0.950 . S
C3636 C3632 1.385 . S
C3636 C3635 1.374 . S
C3637 C3634 1.499 . S
C3637 C3638 1.373 . S
C3637 C3639 1.389 . S
C3638 H3611 0.950 . S
C3638 C3624 1.377 . S
C3638 C3637 1.373 . S
C3639 C3623 1.377 . S
C3639 C3637 1.389 . S
C3639 C3640 1.524 . S
C3640 C3639 1.524 . S
C3640 C3641 1.397 . S
C3640 C3645 1.363 . S
C3641 H3612 0.950 . S
C3641 C3640 1.397 . S
C3641 C3642 1.334 . S
C3642 H3613 0.950 . S
C3642 C3641 1.334 . S
C3642 C3643 1.287 . S
C3643 C3642 1.287 . S
C3643 C3644 1.524 . S
C3643 H3646 0.999 . S
C3644 H3614 0.950 . S
C3644 C3643 1.524 . S
C3644 C3645 1.415 . S
C3645 H3615 0.950 . S
C3645 C3640 1.363 . S
C3645 C3644 1.415 . S
H3646 C3643 0.999 . S
H3647 C3628 0.913 . S
C467 C37 0.459 . S
C482 C9 0.459 . S
C517 C23 0.457 . S
C532 C51 0.456 . S
C567 C93 0.456 . S
C582 C65 0.457 . S
C617 C107 0.459 . S
C632 C79 0.457 . S
C667 C121 0.459 . S
C682 C149 0.458 . S
C717 C163 0.458 . S
C732 C135 0.456 . S
C767 C177 0.459 . S
C782 C205 0.459 . S
C817 C191 0.457 . S
C832 C219 0.458 . S
C867 C261 0.456 . S
C882 C233 0.456 . S
C917 C247 0.456 . S
C932 C275 0.457 . S
C967 C289 0.456 . S
C982 C317 0.455 . S
C1017 C331 0.456 . S
C1032 C303 0.455 . S
C1067 C373 0.456 . S
C1082 C345 0.455 . S
C1117 C387 0.455 . S
C1132 C359 0.456 . S
C1167 C429 0.459 . S
C1182 C401 0.459 . S
C1217 C415 0.459 . S
C1232 C443 0.459 . S
C1267 C67 1.576 . S
C1282 C11 1.576 . S
C1317 C417 1.575 . S
C1332 C25 1.575 . S
C1367 C39 1.576 . S
C1382 C207 1.576 . S
C1417 C53 1.575 . S
C1432 C333 1.575 . S
C1467 C81 1.576 . S
C1482 C361 1.576 . S
C1517 C95 1.576 . S
C1532 C151 1.576 . S
C1567 C277 1.576 . S
C1582 C109 1.576 . S
C1617 C179 1.576 . S
C1632 C123 1.576 . S
C1667 C305 1.575 . S
C1682 C137 1.575 . S
C1717 C165 1.576 . S
C1732 C445 1.576 . S
C1767 C193 1.576 . S
C1782 C249 1.576 . S
C1817 C389 1.575 . S
C1832 C221 1.575 . S
C1867 C291 1.576 . S
C1882 C235 1.576 . S
C1917 C263 1.576 . S
C1932 C431 1.576 . S
C1967 C319 1.576 . S
C1982 C375 1.576 . S
C2017 C403 1.576 . S
C2032 C347 1.576 . S
C2067 C47 1.508 . S
C2082 C5 1.508 . S
C2117 C33 1.507 . S
C2132 C19 1.507 . S
C2167 C103 1.508 . S
C2182 C61 1.507 . S
C2217 C89 1.507 . S
C2232 C75 1.508 . S
C2267 C159 1.507 . S
C2282 C117 1.507 . S
C2317 C145 1.507 . S
C2332 C131 1.507 . S
C2367 C215 1.507 . S
C2382 C173 1.508 . S
C2417 C201 1.507 . S
C2432 C187 1.507 . S
C2467 C229 1.507 . S
C2482 C271 1.507 . S
C2517 C257 1.508 . S
C2532 C243 1.507 . S
C2567 C285 1.507 . S
C2582 C327 1.507 . S
C2617 C313 1.507 . S
C2632 C299 1.507 . S
C2667 C383 1.507 . S
C2682 C341 1.507 . S
C2717 C355 1.507 . S
C2732 C369 1.508 . S
C2767 C397 1.508 . S
C2782 C439 1.507 . S
C2817 C425 1.507 . S
C2832 C411 1.507 . S
C2867 C28 1.484 . S
C2882 C0 1.484 . S
C2917 C14 1.484 . S
C2932 C42 1.484 . S
C2967 C56 1.483 . S
C2982 C84 1.484 . S
C3017 C70 1.484 . S
C3032 C98 1.484 . S
C3067 C112 1.484 . S
C3082 C140 1.484 . S
C3117 C126 1.483 . S
C3132 C154 1.484 . S
C3167 C196 1.483 . S
C3182 C168 1.484 . S
C3217 C210 1.484 . S
C3232 C182 1.483 . S
C3267 C252 1.484 . S
C3282 C224 1.484 . S
C3317 C266 1.484 . S
C3332 C238 1.484 . S
C3367 C280 1.483 . S
C3382 C308 1.484 . S
C3417 C322 1.484 . S
C3432 C294 1.484 . S
C3467 C364 1.484 . S
C3482 C336 1.484 . S
C3517 C350 1.483 . S
C3532 C378 1.484 . S
C3567 C392 1.484 . S
C3582 C420 1.483 . S
C3617 C434 1.484 . S
C3632 C406 1.484 . S
