# Generated by pormake.
# Topology dia, (4)-cn, num edge types: 1
# Building blocks:
#     Node 0, Type 0, BuildingBlock: ICAMEG_clean_sbu_1, # of connection points: 4
#     Node 1, Type 0, BuildingBlock: ICAMEG_clean_sbu_1, # of connection points: 4
#     Node 2, Type 0, BuildingBlock: ICAMEG_clean_sbu_1, # of connection points: 4
#     Node 3, Type 0, BuildingBlock: ICAMEG_clean_sbu_1, # of connection points: 4
#     Node 4, Type 0, BuildingBlock: ICAMEG_clean_sbu_1, # of connection points: 4
#     Node 5, Type 0, BuildingBlock: ICAMEG_clean_sbu_1, # of connection points: 4
#     Node 6, Type 0, BuildingBlock: ICAMEG_clean_sbu_1, # of connection points: 4
#     Node 7, Type 0, BuildingBlock: ICAMEG_clean_sbu_1, # of connection points: 4
#     Edge 8, Type (0, 0), BuildingBlock: XIVTED_clean_linker_0, # of connection points: 2
#     Edge 9, Type (0, 0), BuildingBlock: XIVTED_clean_linker_0, # of connection points: 2
#     Edge 10, Type (0, 0), BuildingBlock: XIVTED_clean_linker_0, # of connection points: 2
#     Edge 11, Type (0, 0), BuildingBlock: XIVTED_clean_linker_0, # of connection points: 2
#     Edge 12, Type (0, 0), BuildingBlock: XIVTED_clean_linker_0, # of connection points: 2
#     Edge 13, Type (0, 0), BuildingBlock: XIVTED_clean_linker_0, # of connection points: 2
#     Edge 14, Type (0, 0), BuildingBlock: XIVTED_clean_linker_0, # of connection points: 2
#     Edge 15, Type (0, 0), BuildingBlock: XIVTED_clean_linker_0, # of connection points: 2
#     Edge 16, Type (0, 0), BuildingBlock: XIVTED_clean_linker_0, # of connection points: 2
#     Edge 17, Type (0, 0), BuildingBlock: XIVTED_clean_linker_0, # of connection points: 2
#     Edge 18, Type (0, 0), BuildingBlock: XIVTED_clean_linker_0, # of connection points: 2
#     Edge 19, Type (0, 0), BuildingBlock: XIVTED_clean_linker_0, # of connection points: 2
#     Edge 20, Type (0, 0), BuildingBlock: XIVTED_clean_linker_0, # of connection points: 2
#     Edge 21, Type (0, 0), BuildingBlock: XIVTED_clean_linker_0, # of connection points: 2
#     Edge 22, Type (0, 0), BuildingBlock: XIVTED_clean_linker_0, # of connection points: 2
#     Edge 23, Type (0, 0), BuildingBlock: XIVTED_clean_linker_0, # of connection points: 2
# Relax obj value: 0.180
# Max RMSD: 0.229
# Mean RMSD: 0.229
data_MOF--net-dia--node1-ICAMEG_clean_sbu_1--edge1-XIVTED_clean_linker_0
_symmetry_space_group_name_H-M    P1
_symmetry_Int_Tables_number       1
_symmetry_cell_setting            triclinic
loop_
_symmetry_equiv_pos_as_xyz
'x, y, z'
_cell_length_a     33.21967
_cell_length_b     33.207183
_cell_length_c     42.817434
_cell_angle_alpha  89.862014
_cell_angle_beta   90.082602
_cell_angle_gamma 102.26778
loop_
_atom_site_label
_atom_site_type_symbol
_atom_site_fract_x
_atom_site_fract_y
_atom_site_fract_z
_atom_type_partial_charge
Co0 Co 0.16779 0.10885 0.63526 0.0
Co1 Co 0.08757 0.15937 0.62865 0.0
O2 O 0.1252 0.13424 0.65409 0.0
C3 C 0.1558 0.02673 0.66521 0.0
O4 O 0.15168 0.01139 0.63685 0.0
C5 C 0.11389 0.22124 0.68034 0.0
O6 O 0.1492 0.21 0.68363 0.0
O7 O 0.13485 0.19492 0.60634 0.0
O8 O 0.17764 0.15137 0.60142 0.0
H9 H 0.03504 0.20848 0.52846 0.0
H10 H 0.17398 0.12847 0.70282 0.0
O11 O 0.15923 0.06549 0.66917 0.0
H12 H 0.30065 0.21098 0.65612 0.0
H13 H 0.29309 0.04551 0.63644 0.0
H14 H 0.1873 0.08781 0.57062 0.0
H15 H 0.24927 0.16548 0.62338 0.0
H16 H 0.23949 0.07689 0.66007 0.0
O17 O 0.08776 0.20403 0.66013 0.0
H18 H 0.0814 0.17709 0.56108 0.0
H19 H 0.01405 0.19497 0.64231 0.0
H20 H 0.24038 0.05659 0.54604 0.0
H21 H 0.22499 0.17297 0.73656 0.0
H22 H 0.29377 0.03518 0.57902 0.0
H23 H 0.28879 0.21479 0.71319 0.0
O24 O 0.12561 0.07278 0.60849 0.0
H25 H 0.01068 0.09427 0.72324 0.0
H26 H 0.00837 0.10475 0.60839 0.0
H27 H 0.95048 0.05957 0.63559 0.0
H28 H 0.95131 0.05425 0.69345 0.0
H29 H 0.06816 0.13874 0.69505 0.0
H30 H 0.96719 0.22684 0.61057 0.0
H31 H 0.97743 0.23361 0.55319 0.0
O32 O 0.08472 0.11605 0.59619 0.0
C33 C 0.16608 0.18445 0.59409 0.0
C34 C 0.0302 0.20562 0.55343 0.0
C35 C 0.99215 0.21596 0.59951 0.0
N36 N 0.05035 0.18397 0.60355 0.0
C37 C 0.05631 0.1878 0.57202 0.0
C38 C 0.01887 0.19798 0.61738 0.0
C39 C 0.99791 0.21974 0.56732 0.0
C40 C 0.20188 0.1462 0.69253 0.0
N41 N 0.20858 0.14431 0.66114 0.0
C42 C 0.23056 0.17152 0.71173 0.0
C43 C 0.2663 0.19503 0.6986 0.0
C44 C 0.27294 0.19297 0.66657 0.0
C45 C 0.24358 0.16732 0.6481 0.0
C46 C 0.27 0.05472 0.62181 0.0
C47 C 0.21042 0.07859 0.58514 0.0
C48 C 0.23957 0.07253 0.63506 0.0
N49 N 0.21023 0.08418 0.61674 0.0
C50 C 0.24041 0.06093 0.57109 0.0
C51 C 0.27036 0.04893 0.5896 0.0
C52 C 0.09702 0.08263 0.59218 0.0
C53 C 0.0099 0.09642 0.69802 0.0
C54 C 0.0091 0.10243 0.63355 0.0
C55 C 0.97615 0.07689 0.64883 0.0
C56 C 0.97663 0.07394 0.6813 0.0
N57 N 0.04155 0.12455 0.65012 0.0
C58 C 0.04231 0.12166 0.68194 0.0
Co59 Co 0.91648 0.34412 0.88652 0.0
Co60 Co 0.86267 0.42191 0.88719 0.0
O61 O 0.889 0.38297 0.86408 0.0
C62 C 0.9708 0.37053 0.82979 0.0
O63 O 0.95233 0.40072 0.82322 0.0
C64 C 0.80462 0.39468 0.83252 0.0
O65 O 0.82175 0.36358 0.82598 0.0
O66 O 0.82772 0.37545 0.91066 0.0
O67 O 0.87486 0.33806 0.92084 0.0
H68 H 0.81093 0.47925 0.98414 0.0
H69 H 0.89202 0.32746 0.82014 0.0
O70 O 0.95987 0.34739 0.85337 0.0
H71 H 0.81916 0.20568 0.87859 0.0
H72 H 0.98754 0.22481 0.89628 0.0
H73 H 0.93838 0.33423 0.95286 0.0
H74 H 0.86466 0.26307 0.9059 0.0
H75 H 0.95292 0.2727 0.86806 0.0
O76 O 0.81766 0.41859 0.85524 0.0
H77 H 0.84385 0.43185 0.95406 0.0
H78 H 0.82552 0.49341 0.86981 0.0
H79 H 0.97256 0.28677 0.98201 0.0
H80 H 0.84741 0.27047 0.79182 0.0
H81 H 0.9974 0.23156 0.9537 0.0
H82 H 0.81042 0.20903 0.82108 0.0
O83 O 0.95261 0.39064 0.90912 0.0
H84 H 0.92637 0.49523 0.79061 0.0
H85 H 0.91574 0.50291 0.90516 0.0
H86 H 0.95974 0.56018 0.87653 0.0
H87 H 0.96514 0.55668 0.81879 0.0
H88 H 0.88327 0.43837 0.82022 0.0
H89 H 0.79212 0.54125 0.89897 0.0
H90 H 0.78479 0.53445 0.95657 0.0
O91 O 0.90595 0.42806 0.92038 0.0
C92 C 0.84002 0.34718 0.92574 0.0
C93 C 0.81403 0.48259 0.95905 0.0
C94 C 0.80344 0.51736 0.91125 0.0
N95 N 0.83686 0.45995 0.91023 0.0
C96 C 0.83272 0.45588 0.94189 0.0
C97 C 0.82231 0.49009 0.89486 0.0
C98 C 0.79934 0.51354 0.94357 0.0
C99 C 0.87653 0.3007 0.83303 0.0
N100 N 0.88122 0.29866 0.86465 0.0
C101 C 0.85107 0.26857 0.81687 0.0
C102 C 0.83027 0.23415 0.8333 0.0
C103 C 0.83512 0.23227 0.86556 0.0
C104 C 0.86082 0.265 0.88093 0.0
C105 C 0.97681 0.24871 0.90889 0.0
C106 C 0.94896 0.3102 0.94037 0.0
C107 C 0.95726 0.27601 0.89303 0.0
N108 N 0.94341 0.30615 0.90882 0.0
C109 C 0.96836 0.28346 0.957 0.0
C110 C 0.98232 0.25251 0.9411 0.0
C111 C 0.94097 0.41892 0.92452 0.0
C112 C 0.92418 0.49719 0.81576 0.0
C113 C 0.91816 0.50093 0.88009 0.0
C114 C 0.94301 0.53358 0.86398 0.0
C115 C 0.94598 0.53162 0.83158 0.0
N116 N 0.89679 0.46725 0.8644 0.0
C117 C 0.89963 0.46513 0.83265 0.0
Co118 Co 0.67683 0.09382 0.12723 0.0
Co119 Co 0.59517 0.14274 0.12645 0.0
O120 O 0.63507 0.11736 0.1495 0.0
C121 C 0.65065 0.0348 0.18165 0.0
O122 O 0.61957 0.05163 0.18886 0.0
C123 C 0.61715 0.19797 0.18339 0.0
O124 O 0.64783 0.18087 0.19133 0.0
O125 O 0.64085 0.18095 0.10461 0.0
O126 O 0.68265 0.13786 0.09461 0.0
H127 H 0.53768 0.19658 0.03008 0.0
H128 H 0.68858 0.11403 0.19478 0.0
O129 O 0.67397 0.04821 0.15866 0.0
H130 H 0.81115 0.19585 0.14245 0.0
H131 H 0.80118 0.03009 0.11837 0.0
H132 H 0.69159 0.0779 0.06054 0.0
H133 H 0.75711 0.15019 0.11203 0.0
H134 H 0.74967 0.05988 0.14639 0.0
O135 O 0.59533 0.18573 0.15941 0.0
H136 H 0.58631 0.16478 0.05999 0.0
H137 H 0.52052 0.17467 0.14366 0.0
H138 H 0.74271 0.04861 0.0316 0.0
H139 H 0.74218 0.1587 0.22618 0.0
H140 H 0.79802 0.02446 0.06055 0.0
H141 H 0.80401 0.2002 0.20002 0.0
O142 O 0.63305 0.0575 0.10208 0.0
H143 H 0.52133 0.07041 0.22002 0.0
H144 H 0.51694 0.08712 0.10572 0.0
H145 H 0.4605 0.03905 0.13215 0.0
H146 H 0.46235 0.03057 0.18975 0.0
H147 H 0.57742 0.11763 0.19259 0.0
H148 H 0.47138 0.20684 0.11466 0.0
H149 H 0.47968 0.21784 0.05743 0.0
O150 O 0.59232 0.10168 0.09215 0.0
C151 C 0.67107 0.17164 0.09011 0.0
C152 C 0.53366 0.19185 0.055 0.0
C153 C 0.49648 0.19764 0.10247 0.0
N154 N 0.55614 0.16757 0.1035 0.0
C155 C 0.56106 0.17378 0.07206 0.0
C156 C 0.52447 0.17947 0.11877 0.0
C157 C 0.50115 0.20379 0.07036 0.0
C158 C 0.71553 0.13148 0.18321 0.0
N159 N 0.71965 0.1292 0.15157 0.0
C160 C 0.74574 0.15697 0.20112 0.0
C161 C 0.78037 0.1803 0.18643 0.0
C162 C 0.78437 0.17791 0.15414 0.0
C163 C 0.75353 0.15211 0.137 0.0
C164 C 0.77726 0.04055 0.10549 0.0
C165 C 0.71565 0.06762 0.07331 0.0
C166 C 0.74792 0.05736 0.12123 0.0
N167 N 0.71773 0.07084 0.10511 0.0
C168 C 0.74448 0.05099 0.05679 0.0
C169 C 0.77548 0.03742 0.07305 0.0
C170 C 0.60417 0.0683 0.08674 0.0
C171 C 0.52009 0.07395 0.19492 0.0
C172 C 0.51819 0.08343 0.13075 0.0
C173 C 0.48602 0.05626 0.14561 0.0
C174 C 0.48705 0.05155 0.17792 0.0
N175 N 0.55047 0.10542 0.14759 0.0
C176 C 0.5517 0.10086 0.17926 0.0
Co177 Co 0.90556 0.83401 0.38833 0.0
Co178 Co 0.85349 0.9134 0.38766 0.0
O179 O 0.88013 0.87398 0.36533 0.0
C180 C 0.96425 0.8614 0.33411 0.0
O181 O 0.9469 0.89218 0.32692 0.0
C182 C 0.79839 0.88815 0.33098 0.0
O183 O 0.81678 0.8582 0.32368 0.0
O184 O 0.81696 0.86745 0.41058 0.0
O185 O 0.86189 0.82769 0.42108 0.0
H186 H 0.79917 0.9719 0.48306 0.0
H187 H 0.88545 0.81965 0.32105 0.0
O188 O 0.95099 0.83756 0.35687 0.0
H189 H 0.80718 0.6969 0.37554 0.0
H190 H 0.97414 0.71311 0.39947 0.0
H191 H 0.92301 0.82197 0.45525 0.0
H192 H 0.85149 0.75295 0.40503 0.0
H193 H 0.94197 0.76232 0.37053 0.0
O194 O 0.80978 0.91069 0.35474 0.0
H195 H 0.83237 0.92377 0.45402 0.0
H196 H 0.81816 0.98561 0.36903 0.0
H197 H 0.95468 0.77317 0.48511 0.0
H198 H 0.84207 0.76404 0.29057 0.0
H199 H 0.98052 0.71825 0.45721 0.0
H200 H 0.80239 0.70212 0.31783 0.0
O201 O 0.94084 0.87941 0.41252 0.0
H202 H 0.92258 0.98607 0.29247 0.0
H203 H 0.90661 0.99388 0.40658 0.0
H204 H 0.95257 0.05072 0.37893 0.0
H205 H 0.96067 0.04717 0.3214 0.0
H206 H 0.87753 0.92962 0.32112 0.0
H207 H 0.78453 0.03417 0.39714 0.0
H208 H 0.775 0.0276 0.45459 0.0
O209 O 0.89531 0.91885 0.42177 0.0
C210 C 0.82763 0.83821 0.42557 0.0
C211 C 0.80324 0.97514 0.45803 0.0
C212 C 0.79498 0.01006 0.40981 0.0
N213 N 0.82746 0.95198 0.40988 0.0
C214 C 0.82209 0.94802 0.44146 0.0
C215 C 0.81397 0.98239 0.39401 0.0
C216 C 0.78966 0.00637 0.44205 0.0
C217 C 0.86871 0.79268 0.33309 0.0
N218 N 0.87122 0.78962 0.36481 0.0
C219 C 0.84399 0.76133 0.3157 0.0
C220 C 0.82168 0.72664 0.33101 0.0
C221 C 0.82431 0.72372 0.36338 0.0
C222 C 0.84933 0.75569 0.37999 0.0
C223 C 0.96295 0.73687 0.41191 0.0
C224 C 0.934 0.79805 0.44293 0.0
C225 C 0.94478 0.76491 0.39563 0.0
N226 N 0.93038 0.79489 0.41119 0.0
C227 C 0.95199 0.77055 0.45997 0.0
C228 C 0.9665 0.73976 0.4443 0.0
C229 C 0.92939 0.90836 0.42722 0.0
C230 C 0.9192 0.98807 0.31752 0.0
C231 C 0.91016 0.99187 0.3816 0.0
C232 C 0.93613 0.02428 0.36604 0.0
C233 C 0.94062 0.02229 0.33377 0.0
N234 N 0.88914 0.9584 0.3655 0.0
C235 C 0.89349 0.95624 0.33387 0.0
Co236 Co 0.18386 0.62077 0.13098 0.0
Co237 Co 0.09482 0.65997 0.13436 0.0
O238 O 0.14007 0.63943 0.1547 0.0
C239 C 0.15568 0.55124 0.17704 0.0
O240 O 0.11771 0.55671 0.17621 0.0
C241 C 0.11965 0.71921 0.18874 0.0
O242 O 0.1525 0.70478 0.19532 0.0
O243 O 0.13461 0.69969 0.10843 0.0
O244 O 0.18723 0.66779 0.10111 0.0
H245 H 0.01891 0.70098 0.04199 0.0
H246 H 0.19268 0.63481 0.19921 0.0
O247 O 0.1836 0.57369 0.16055 0.0
H248 H 0.31418 0.72611 0.15231 0.0
H249 H 0.31337 0.5661 0.1183 0.0
H250 H 0.20064 0.61273 0.06365 0.0
H251 H 0.2629 0.6809 0.11918 0.0
H252 H 0.25937 0.58985 0.14807 0.0
O253 O 0.09594 0.70428 0.16636 0.0
H254 H 0.07467 0.67573 0.06858 0.0
H255 H 0.01943 0.68691 0.15667 0.0
H256 H 0.2543 0.58963 0.03296 0.0
H257 H 0.24353 0.67891 0.23333 0.0
H258 H 0.31116 0.56606 0.06032 0.0
H259 H 0.3047 0.72519 0.20987 0.0
O260 O 0.14243 0.58396 0.10382 0.0
H261 H 0.0401 0.58844 0.23409 0.0
H262 H 0.01728 0.59844 0.12082 0.0
H263 H 0.96816 0.54843 0.15218 0.0
H264 H 0.9793 0.5433 0.2093 0.0
H265 H 0.08879 0.63752 0.20176 0.0
H266 H 0.96327 0.71258 0.13104 0.0
H267 H 0.96267 0.71961 0.07328 0.0
O268 O 0.09083 0.61755 0.10142 0.0
C269 C 0.16861 0.69698 0.09573 0.0
C270 C 0.01878 0.69798 0.06717 0.0
C271 C 0.98758 0.70452 0.11715 0.0
N272 N 0.05027 0.67964 0.11413 0.0
C273 C 0.05025 0.68364 0.08236 0.0
C274 C 0.01954 0.69006 0.13153 0.0
C275 C 0.98725 0.70845 0.08474 0.0
C276 C 0.21928 0.65476 0.18884 0.0
N277 N 0.22449 0.65576 0.15719 0.0
C278 C 0.24794 0.67971 0.20828 0.0
C279 C 0.28223 0.70569 0.1951 0.0
C280 C 0.28752 0.70629 0.16281 0.0
C281 C 0.25821 0.68091 0.14413 0.0
C282 C 0.28876 0.57631 0.10611 0.0
C283 C 0.22541 0.60272 0.07572 0.0
C284 C 0.25798 0.58964 0.12285 0.0
N285 N 0.22691 0.60279 0.10761 0.0
C286 C 0.25564 0.58958 0.05822 0.0
C287 C 0.28751 0.57632 0.07358 0.0
C288 C 0.1083 0.58902 0.09252 0.0
C289 C 0.03478 0.59054 0.20925 0.0
C290 C 0.02251 0.59632 0.14561 0.0
C291 C 0.99448 0.56799 0.16328 0.0
C292 C 1.00072 0.56516 0.19532 0.0
N293 N 0.05576 0.62129 0.15945 0.0
C294 C 0.06213 0.61854 0.19084 0.0
Co295 Co 0.40687 0.3273 0.38036 0.0
Co296 Co 0.35704 0.40795 0.37439 0.0
O297 O 0.38284 0.36588 0.35514 0.0
C298 C 0.46663 0.3499 0.32621 0.0
O299 O 0.4505 0.38109 0.31791 0.0
C300 C 0.27703 0.39894 0.34119 0.0
O301 O 0.25923 0.39412 0.36872 0.0
O302 O 0.31931 0.36478 0.39952 0.0
O303 O 0.36271 0.32417 0.41219 0.0
H304 H 0.30079 0.47701 0.46372 0.0
H305 H 0.38623 0.30973 0.31355 0.0
O306 O 0.45269 0.32771 0.34967 0.0
H307 H 0.30738 0.19026 0.37141 0.0
H308 H 0.47301 0.20597 0.39855 0.0
H309 H 0.42258 0.31973 0.4481 0.0
H310 H 0.35224 0.24754 0.39936 0.0
H311 H 0.44232 0.25363 0.36669 0.0
O312 O 0.31587 0.40146 0.33907 0.0
H313 H 0.33273 0.42466 0.43885 0.0
H314 H 0.32726 0.48135 0.35034 0.0
H315 H 0.45276 0.27255 0.48084 0.0
H316 H 0.34217 0.25291 0.28462 0.0
H317 H 0.47824 0.21516 0.45607 0.0
H318 H 0.30228 0.19261 0.31358 0.0
O319 O 0.44204 0.37403 0.40337 0.0
H320 H 0.42679 0.47011 0.27614 0.0
H321 H 0.41367 0.48829 0.38962 0.0
H322 H 0.4612 0.54106 0.35932 0.0
H323 H 0.46786 0.53229 0.3021 0.0
H324 H 0.38021 0.41765 0.30744 0.0
H325 H 0.29524 0.53428 0.37427 0.0
H326 H 0.28179 0.53232 0.43136 0.0
O327 O 0.39775 0.41583 0.4095 0.0
C328 C 0.32908 0.33617 0.41595 0.0
C329 C 0.30647 0.47817 0.43881 0.0
C330 C 0.30337 0.51033 0.38862 0.0
N331 N 0.33181 0.44982 0.39316 0.0
C332 C 0.32452 0.44859 0.42459 0.0
C333 C 0.32151 0.48026 0.3752 0.0
C334 C 0.29583 0.50921 0.42065 0.0
C335 C 0.36938 0.28346 0.32632 0.0
N336 N 0.37227 0.28183 0.35811 0.0
C337 C 0.34429 0.25143 0.30981 0.0
C338 C 0.32186 0.21764 0.32607 0.0
C339 C 0.3247 0.21631 0.35851 0.0
C340 C 0.3501 0.24891 0.37423 0.0
C341 C 0.46198 0.23082 0.40962 0.0
C342 C 0.43343 0.29474 0.43714 0.0
C343 C 0.44466 0.258 0.39169 0.0
N344 N 0.43045 0.28935 0.40552 0.0
C345 C 0.45057 0.26816 0.4558 0.0
C346 C 0.46488 0.23599 0.44189 0.0
C347 C 0.43102 0.40443 0.41648 0.0
C348 C 0.42412 0.47432 0.30105 0.0
C349 C 0.41675 0.4839 0.36483 0.0
C350 C 0.44354 0.51406 0.34774 0.0
C351 C 0.44721 0.50916 0.31563 0.0
N352 N 0.39418 0.44978 0.35037 0.0
C353 C 0.39763 0.4448 0.31889 0.0
Co354 Co 0.40002 0.82814 0.88541 0.0
Co355 Co 0.3613 0.91558 0.87612 0.0
O356 O 0.37898 0.86745 0.8584 0.0
C357 C 0.46292 0.84452 0.83425 0.0
O358 O 0.46087 0.88356 0.83397 0.0
C359 C 0.29832 0.88744 0.82425 0.0
O360 O 0.30889 0.85185 0.82059 0.0
O361 O 0.32178 0.87889 0.90438 0.0
O362 O 0.36082 0.83488 0.91944 0.0
H363 H 0.32667 1.00171 0.96441 0.0
H364 H 0.37375 0.80282 0.82098 0.0
O365 O 0.44023 0.81925 0.85259 0.0
H366 H 0.28379 0.70304 0.88962 0.0
H367 H 0.44956 0.69781 0.90809 0.0
H368 H 0.42224 0.82624 0.95247 0.0
H369 H 0.33715 0.75863 0.91197 0.0
H370 H 0.42277 0.74692 0.87485 0.0
O371 O 0.31622 0.91314 0.84449 0.0
H372 H 0.34857 0.94225 0.94072 0.0
H373 H 0.33664 0.99047 0.84998 0.0
H374 H 0.4487 0.77781 0.98659 0.0
H375 H 0.3211 0.74736 0.79761 0.0
H376 H 0.46254 0.71304 0.96442 0.0
H377 H 0.27559 0.69705 0.83204 0.0
O378 O 0.44258 0.87342 0.90389 0.0
H379 H 0.42969 0.95728 0.7729 0.0
H380 H 0.4249 0.99344 0.88418 0.0
H381 H 0.47471 0.03761 0.84944 0.0
H382 H 0.47722 0.01974 0.79328 0.0
H383 H 0.38088 0.91362 0.80862 0.0
H384 H 0.31424 0.05022 0.8727 0.0
H385 H 0.30931 0.05623 0.93032 0.0
O386 O 0.40523 0.92171 0.90866 0.0
C387 C 0.32966 0.85125 0.92273 0.0
C388 C 0.32876 0.99947 0.93927 0.0
C389 C 0.32174 0.02668 0.8878 0.0
N390 N 0.34405 0.9629 0.894 0.0
C391 C 0.3412 0.9659 0.92571 0.0
C392 C 0.33432 0.99268 0.87507 0.0
C393 C 0.319 0.03004 0.92013 0.0
C394 C 0.35427 0.78084 0.83609 0.0
N395 N 0.35855 0.78395 0.86778 0.0
C396 C 0.32442 0.74959 0.82274 0.0
C397 C 0.29886 0.72142 0.84207 0.0
C398 C 0.30342 0.72478 0.87438 0.0
C399 C 0.33358 0.75644 0.8869 0.0
C400 C 0.44356 0.72588 0.91804 0.0
C401 C 0.42793 0.79801 0.94268 0.0
C402 C 0.42846 0.75387 0.89932 0.0
N403 N 0.42064 0.78931 0.91175 0.0
C404 C 0.44303 0.77075 0.9621 0.0
C405 C 0.45083 0.73444 0.94964 0.0
C406 C 0.43673 0.90712 0.91527 0.0
C407 C 0.4288 0.9655 0.79729 0.0
C408 C 0.42599 0.98524 0.85989 0.0
C409 C 0.45415 0.01049 0.84026 0.0
C410 C 0.45551 1.00048 0.80876 0.0
N411 N 0.39978 0.95101 0.84848 0.0
C412 C 0.40101 0.941 0.81762 0.0
Co413 Co 0.66631 0.58879 0.63016 0.0
Co414 Co 0.58673 0.64035 0.63146 0.0
O415 O 0.62699 0.61436 0.65353 0.0
C416 C 0.64363 0.53316 0.68697 0.0
O417 O 0.61361 0.55111 0.69493 0.0
C418 C 0.61223 0.69485 0.68826 0.0
O419 O 0.64149 0.67555 0.69571 0.0
O420 O 0.63202 0.6769 0.60788 0.0
O421 O 0.6705 0.63122 0.5965 0.0
H422 H 0.52548 0.69306 0.5363 0.0
H423 H 0.684 0.6121 0.69672 0.0
O424 O 0.66503 0.54461 0.66263 0.0
H425 H 0.80313 0.68887 0.63762 0.0
H426 H 0.7878 0.52153 0.61752 0.0
H427 H 0.67527 0.56906 0.56333 0.0
H428 H 0.74597 0.64281 0.61048 0.0
H429 H 0.73952 0.55404 0.64697 0.0
O430 O 0.58997 0.6844 0.66417 0.0
H431 H 0.57447 0.66041 0.56506 0.0
H432 H 0.51489 0.6757 0.65061 0.0
H433 H 0.72306 0.53699 0.53297 0.0
H434 H 0.74076 0.65726 0.72484 0.0
H435 H 0.77984 0.51297 0.56008 0.0
H436 H 0.80089 0.69621 0.69527 0.0
O437 O 0.62002 0.55245 0.60752 0.0
H438 H 0.51669 0.57095 0.72756 0.0
H439 H 0.50587 0.58717 0.61362 0.0
H440 H 0.44977 0.54116 0.64193 0.0
H441 H 0.45484 0.53295 0.69939 0.0
H442 H 0.57231 0.61605 0.69827 0.0
H443 H 0.46549 0.70882 0.62278 0.0
H444 H 0.47049 0.71753 0.56519 0.0
O445 O 0.58075 0.59806 0.59761 0.0
C446 C 0.6603 0.6657 0.59218 0.0
C447 C 0.52292 0.68935 0.56138 0.0
C448 C 0.48929 0.69824 0.60992 0.0
N449 N 0.54745 0.6659 0.60946 0.0
C450 C 0.55053 0.6708 0.5778 0.0
C451 C 0.51743 0.67955 0.62556 0.0
C452 C 0.4921 0.7031 0.57761 0.0
C453 C 0.71016 0.62845 0.68366 0.0
N454 N 0.71159 0.6245 0.65196 0.0
C455 C 0.74218 0.65421 0.69973 0.0
C456 C 0.77587 0.67612 0.68312 0.0
C457 C 0.77712 0.67205 0.65078 0.0
C458 C 0.74452 0.64601 0.63552 0.0
C459 C 0.76321 0.53191 0.60544 0.0
C460 C 0.69997 0.55884 0.5753 0.0
C461 C 0.73569 0.55026 0.622 0.0
N462 N 0.70467 0.56366 0.60688 0.0
C463 C 0.72691 0.54063 0.55798 0.0
C464 C 0.75874 0.52713 0.57321 0.0
C465 C 0.59102 0.56375 0.59263 0.0
C466 C 0.51403 0.57439 0.70255 0.0
C467 C 0.50853 0.58359 0.63856 0.0
C468 C 0.47654 0.55759 0.6545 0.0
C469 C 0.47938 0.55302 0.68673 0.0
N470 N 0.5424 0.60463 0.65424 0.0
C471 C 0.5454 0.60015 0.68582 0.0
H472 H 0.25623 0.35383 0.43904 0.0
H473 H 0.23779 0.17497 0.56755 0.0
H474 H 0.34027 0.2721 0.45203 0.0
H475 H 0.14823 0.25201 0.56271 0.0
H476 H 0.27494 0.21301 0.52493 0.0
H477 H 0.21504 0.31931 0.48333 0.0
C478 C 0.26592 0.32867 0.45093 0.0
C479 C 0.30182 0.31589 0.44153 0.0
C480 C 0.24728 0.22201 0.53305 0.0
C481 C 0.25526 0.27676 0.49204 0.0
C482 C 0.22592 0.20018 0.55771 0.0
C483 C 0.1897 0.21022 0.56905 0.0
C484 C 0.23259 0.25437 0.51905 0.0
C485 C 0.17614 0.2433 0.55485 0.0
C486 C 0.24251 0.30913 0.47623 0.0
C487 C 0.31297 0.28327 0.458 0.0
N488 N 0.19754 0.26419 0.53044 0.0
N489 N 0.28993 0.26512 0.4822 0.0
H490 H 0.62813 0.52147 0.74982 0.0
H491 H 0.78721 0.37205 0.77132 0.0
H492 H 0.69268 0.47911 0.67335 0.0
H493 H 0.75061 0.44373 0.8459 0.0
H494 H 0.74101 0.39892 0.73581 0.0
H495 H 0.66101 0.48072 0.78587 0.0
C496 C 0.64859 0.50304 0.74053 0.0
C497 C 0.65791 0.50402 0.70854 0.0
C498 C 0.74281 0.40836 0.76005 0.0
C499 C 0.69571 0.45743 0.74964 0.0
C500 C 0.769 0.39287 0.78035 0.0
C501 C 0.77309 0.40593 0.81156 0.0
C502 C 0.7202 0.43672 0.77114 0.0
C503 C 0.74879 0.43313 0.82195 0.0
C504 C 0.66755 0.48 0.76113 0.0
C505 C 0.68487 0.47962 0.69786 0.0
N506 N 0.72359 0.44772 0.8018 0.0
N507 N 0.70295 0.45755 0.71834 0.0
H508 H 0.6149 0.99193 0.06559 0.0
H509 H 0.43769 0.98375 0.93757 0.0
H510 H 0.54549 0.08595 0.04797 0.0
H511 H 0.50177 0.88391 0.9467 0.0
H512 H 0.48094 0.02125 0.97728 0.0
H513 H 0.57753 0.95135 0.02217 0.0
C514 C 0.592 0.00407 0.05272 0.0
C515 C 0.58327 0.04241 0.06073 0.0
C516 C 0.48604 0.99126 0.97072 0.0
C517 C 0.54091 0.99651 0.01124 0.0
C518 C 0.46122 0.96966 0.94768 0.0
C519 C 0.466 0.93045 0.93842 0.0
C520 C 0.51609 0.97378 0.98535 0.0
C521 C 0.49709 0.91413 0.95298 0.0
C522 C 0.57079 0.98095 0.02797 0.0
C523 C 0.55342 0.05664 0.0431 0.0
N524 N 0.5209 0.9358 0.97596 0.0
N525 N 0.53355 0.03378 0.01946 0.0
H526 H 0.01978 0.81473 0.3493 0.0
H527 H 0.06929 0.7712 0.17373 0.0
H528 H 0.98045 0.88104 0.27225 0.0
H529 H 0.13796 0.73547 0.2508 0.0
H530 H 0.03855 0.81362 0.20918 0.0
H531 H 0.06515 0.78757 0.31399 0.0
C532 C 0.02108 0.82402 0.32498 0.0
C533 C 0.99602 0.85 0.31366 0.0
C534 C 0.0608 0.79705 0.21832 0.0
C535 C 0.04763 0.81843 0.27295 0.0
C536 C 0.07834 0.77273 0.1981 0.0
C537 C 0.10607 0.74953 0.20937 0.0
C538 C 0.07038 0.79769 0.25027 0.0
C539 C 0.11677 0.75287 0.24112 0.0
C540 C 0.04711 0.80853 0.30485 0.0
C541 C 0.99921 0.86113 0.28198 0.0
N542 N 0.09839 0.77596 0.26057 0.0
N543 N 0.02403 0.84476 0.26263 0.0
H544 H 0.26786 0.85419 0.76762 0.0
H545 H 0.16932 0.04809 0.72683 0.0
H546 H 0.26106 0.95236 0.83198 0.0
H547 H 0.16741 0.94734 0.66294 0.0
H548 H 0.19696 0.00958 0.76725 0.0
H549 H 0.22547 0.88374 0.73052 0.0
C550 C 0.25706 0.88156 0.77413 0.0
C551 C 0.26854 0.90105 0.80283 0.0
C552 C 0.19007 0.99562 0.7445 0.0
C553 C 0.2203 0.93517 0.7605 0.0
C554 C 0.1741 0.01761 0.7214 0.0
C555 C 0.16619 1.00113 0.69131 0.0
C556 C 0.19863 0.95691 0.73752 0.0
C557 C 0.1731 0.9614 0.68575 0.0
C558 C 0.23296 0.89852 0.75292 0.0
C559 C 0.25361 0.93653 0.80998 0.0
N560 N 0.18936 0.94088 0.70848 0.0
N561 N 0.23066 0.95253 0.78894 0.0
H562 H 0.92418 0.48 0.96109 0.0
H563 H 0.13117 0.52236 0.063 0.0
H564 H 0.01874 0.41102 0.94475 0.0
H565 H 0.03571 0.59279 0.06466 0.0
H566 H 0.09235 0.47871 0.02159 0.0
H567 H 0.96603 0.51856 1.00114 0.0
C568 C 0.95395 0.4729 0.96577 0.0
C569 C 0.96787 0.44217 0.94911 0.0
C570 C 0.08021 0.5038 0.03122 0.0
C571 C 0.01687 0.48709 0.99596 0.0
C572 C 0.10224 0.52864 0.05485 0.0
C573 C 0.08674 0.5613 0.06766 0.0
C574 C 0.04256 0.51181 0.02057 0.0
C575 C 0.04918 0.56807 0.05599 0.0
C576 C 0.97807 0.49516 0.98891 0.0
C577 C 0.00684 0.43459 0.95685 0.0
N578 N 0.02868 0.54369 0.03338 0.0
N579 N 0.03011 0.45697 0.97978 0.0
H580 H 0.51867 0.29986 0.34251 0.0
H581 H 0.57022 0.25297 0.16755 0.0
H582 H 0.48435 0.36753 0.26426 0.0
H583 H 0.63262 0.21202 0.2461 0.0
H584 H 0.54049 0.29683 0.20244 0.0
H585 H 0.56243 0.26935 0.308 0.0
C586 C 0.52072 0.30871 0.3181 0.0
C587 C 0.49753 0.33611 0.30622 0.0
C588 C 0.56111 0.27872 0.21205 0.0
C589 C 0.54732 0.30074 0.26641 0.0
C590 C 0.57806 0.25355 0.19214 0.0
C591 C 0.60377 0.22852 0.20396 0.0
C592 C 0.56926 0.27847 0.24421 0.0
C593 C 0.61299 0.23078 0.23599 0.0
C594 C 0.54582 0.29129 0.29841 0.0
C595 C 0.50165 0.34658 0.27444 0.0
N596 N 0.59526 0.25484 0.25508 0.0
N597 N 0.52555 0.32841 0.25555 0.0
H598 H 0.75296 0.85127 0.44811 0.0
H599 H 0.72203 0.65036 0.55551 0.0
H600 H 0.84013 0.77245 0.45929 0.0
H601 H 0.64928 0.74199 0.57104 0.0
H602 H 0.7597 0.69306 0.51525 0.0
H603 H 0.70963 0.81075 0.48885 0.0
C604 C 0.76294 0.82553 0.45892 0.0
C605 C 0.80015 0.81511 0.44989 0.0
C606 C 0.73567 0.70418 0.52744 0.0
C607 C 0.75095 0.76897 0.49616 0.0
C608 C 0.71392 0.67964 0.55062 0.0
C609 C 0.68254 0.69264 0.56719 0.0
C610 C 0.72629 0.74236 0.52024 0.0
C611 C 0.67347 0.73088 0.5591 0.0
C612 C 0.7383 0.8026 0.4822 0.0
C613 C 0.81169 0.78168 0.46497 0.0
N614 N 0.69533 0.75454 0.53612 0.0
N615 N 0.78721 0.75995 0.48708 0.0
H616 H 0.1138 0.51205 0.22815 0.0
H617 H 0.30494 0.41532 0.28127 0.0
H618 H 0.22611 0.52153 0.17551 0.0
H619 H 0.19791 0.41182 0.33909 0.0
H620 H 0.27166 0.44596 0.23933 0.0
H621 H 0.13937 0.46773 0.26613 0.0
C622 C 0.14354 0.50446 0.22436 0.0
C623 C 0.16798 0.52094 0.19873 0.0
C624 C 0.25519 0.43813 0.26106 0.0
C625 C 0.19744 0.47035 0.24205 0.0
C626 C 0.27418 0.42041 0.28504 0.0
C627 C 0.25441 0.41115 0.31395 0.0
C628 C 0.21611 0.44698 0.26588 0.0
C629 C 0.21445 0.4185 0.31728 0.0
C630 C 0.1582 0.47928 0.2461 0.0
C631 C 0.20635 0.51007 0.19507 0.0
N632 N 0.1968 0.43634 0.2937 0.0
N633 N 0.21988 0.48575 0.21648 0.0
H634 H 0.85774 0.28553 0.96167 0.0
H635 H 0.65528 0.24525 0.06749 0.0
H636 H 0.76315 0.35516 0.94724 0.0
H637 H 0.73908 0.16277 0.05775 0.0
H638 H 0.69516 0.29047 0.02752 0.0
H639 H 0.81606 0.2457 1.00157 0.0
C640 C 0.82804 0.29251 0.96674 0.0
C641 C 0.81389 0.32366 0.9506 0.0
C642 C 0.70458 0.26242 0.03432 0.0
C643 C 0.76541 0.27745 0.99708 0.0
C644 C 0.682 0.2367 0.05716 0.0
C645 C 0.69396 0.20022 0.06634 0.0
C646 C 0.73941 0.25161 0.0209 0.0
C647 C 0.72863 0.19057 0.0519 0.0
C648 C 0.8041 0.26953 0.98971 0.0
C649 C 0.77517 0.33123 0.95887 0.0
N650 N 0.74999 0.21606 0.03015 0.0
N651 N 0.75214 0.3082 0.98159 0.0
H652 H 0.74211 0.93449 0.34475 0.0
H653 H 0.70029 0.98161 0.16763 0.0
H654 H 0.78592 0.87093 0.26839 0.0
H655 H 0.63106 0.01871 0.24354 0.0
H656 H 0.72945 0.9385 0.20379 0.0
H657 H 0.69896 0.96304 0.30827 0.0
C658 C 0.74228 0.92611 0.32032 0.0
C659 C 0.76795 0.90046 0.30958 0.0
C660 C 0.70745 0.95556 0.21251 0.0
C661 C 0.71883 0.93363 0.26751 0.0
C662 C 0.69079 0.98028 0.19187 0.0
C663 C 0.66336 0.00408 0.2026 0.0
C664 C 0.69722 0.95504 0.24432 0.0
C665 C 0.65205 1.0009 0.23423 0.0
C666 C 0.71753 0.9424 0.2995 0.0
C667 C 0.76665 0.89053 0.2777 0.0
N668 N 0.6695 0.97735 0.25406 0.0
N669 N 0.74299 0.90763 0.25772 0.0
H670 H 0.91325 0.97118 0.46227 0.0
H671 H 0.11029 0.00638 0.5731 0.0
H672 H 1.0053 0.89816 0.44963 0.0
H673 H 0.03551 0.09543 0.55403 0.0
H674 H 0.07123 0.9612 0.53268 0.0
H675 H 0.95556 0.01072 0.50184 0.0
C676 C 0.94253 0.96339 0.46766 0.0
C677 C 0.95582 0.93143 0.45207 0.0
C678 C 0.06376 0.99077 0.53749 0.0
C679 C 1.00506 0.97736 0.49817 0.0
C680 C 0.08588 0.01648 0.56054 0.0
C681 C 0.07596 0.05467 0.56738 0.0
C682 C 0.03145 0.00337 0.5216 0.0
C683 C 0.04425 0.06626 0.55013 0.0
C684 C 0.96685 0.98622 0.49042 0.0
C685 C 0.994 0.92279 0.46081 0.0
N686 N 0.0232 0.04074 0.52836 0.0
N687 N 0.01745 0.94573 0.48335 0.0
H688 H 0.98037 0.38835 0.76716 0.0
H689 H 0.14063 0.24169 0.74025 0.0
H690 H 0.02795 0.32436 0.84184 0.0
H691 H 0.05883 0.26964 0.66891 0.0
H692 H 0.11246 0.28568 0.77676 0.0
H693 H 0.02227 0.35889 0.72995 0.0
C694 C 1.00019 0.36878 0.77581 0.0
C695 C 1.00038 0.35852 0.8076 0.0
C696 C 0.10111 0.28251 0.75297 0.0
C697 C 0.04832 0.32477 0.76525 0.0
C698 C 0.11733 0.25763 0.73213 0.0
C699 C 0.10178 0.25173 0.70161 0.0
C700 C 0.06967 0.30207 0.74303 0.0
C701 C 0.07139 0.27298 0.69234 0.0
C702 C 0.02389 0.35178 0.75456 0.0
C703 C 0.02655 0.33278 0.81748 0.0
N704 N 0.05626 0.29706 0.71295 0.0
N705 N 0.04929 0.31666 0.79639 0.0
H706 H 0.62438 0.7007 0.75164 0.0
H707 H 0.49278 0.87426 0.77685 0.0
H708 H 0.57023 0.7552 0.67501 0.0
H709 H 0.4981 0.77871 0.84421 0.0
H710 H 0.53601 0.84325 0.7414 0.0
H711 H 0.59357 0.74241 0.78815 0.0
C712 C 0.60677 0.72204 0.74246 0.0
C713 C 0.59966 0.7243 0.71026 0.0
C714 C 0.52793 0.82942 0.76409 0.0
C715 C 0.56449 0.77206 0.75181 0.0
C716 C 0.50344 0.84713 0.78431 0.0
C717 C 0.49155 0.82879 0.81335 0.0
C718 C 0.54131 0.79376 0.77336 0.0
C719 C 0.50615 0.79357 0.82186 0.0
C720 C 0.58897 0.74558 0.76329 0.0
C721 C 0.57625 0.75229 0.69968 0.0
N722 N 0.53028 0.77727 0.80201 0.0
N723 N 0.55942 0.775 0.72039 0.0
H724 H 0.24724 0.74027 0.09797 0.0
H725 H 0.24541 0.84343 0.92873 0.0
H726 H 0.13583 0.72754 0.04393 0.0
H727 H 0.35371 0.82802 0.97905 0.0
H728 H 0.20275 0.81289 0.97353 0.0
H729 H 0.2844 0.7853 0.05797 0.0
C730 C 0.23061 0.74704 0.07759 0.0
C731 C 0.18874 0.72945 0.07388 0.0
C732 C 0.2359 0.81667 0.97474 0.0
C733 C 0.23109 0.78115 0.0276 0.0
C734 C 0.26018 0.83422 0.94932 0.0
C735 C 0.30306 0.83777 0.9501 0.0
C736 C 0.25492 0.80339 1.00109 0.0
C737 C 0.32074 0.82529 0.97723 0.0
C738 C 0.25178 0.77293 0.05474 0.0
C739 C 0.16827 0.74042 0.04749 0.0
N740 N 0.29666 0.80864 1.00147 0.0
N741 N 0.18982 0.7652 0.02501 0.0
H742 H 0.41902 0.47307 0.44661 0.0
H743 H 0.60564 0.49087 0.56799 0.0
H744 H 0.50083 0.38783 0.445 0.0
H745 H 0.52566 0.57725 0.55883 0.0
H746 H 0.56821 0.45066 0.52463 0.0
H747 H 0.45836 0.50959 0.4891 0.0
C748 C 0.44547 0.46201 0.45503 0.0
C749 C 0.45661 0.42726 0.44188 0.0
C750 C 0.559 0.47841 0.53231 0.0
C751 C 0.50223 0.46941 0.49145 0.0
C752 C 0.5802 0.50128 0.5571 0.0
C753 C 0.56876 0.53749 0.56733 0.0
C754 C 0.52617 0.49189 0.51782 0.0
C755 C 0.53574 0.54959 0.55212 0.0
C756 C 0.46804 0.48302 0.47953 0.0
C757 C 0.49122 0.4146 0.45426 0.0
N758 N 0.51581 0.52693 0.52833 0.0
N759 N 0.51283 0.43565 0.47844 0.0
loop_
_geom_bond_atom_site_label_1
_geom_bond_atom_site_label_2
_geom_bond_distance
_geom_bond_site_symmetry_2
_ccdc_geom_bond_type
Co0 O2 2.143 . S
Co0 O8 2.074 . S
Co0 O11 2.093 . S
Co0 O24 2.097 . S
Co0 N41 2.151 . S
Co0 N49 2.214 . S
Co1 O2 2.160 . S
Co1 O7 2.058 . S
Co1 O17 2.057 . S
Co1 O32 2.037 . S
Co1 N36 2.145 . S
Co1 N57 2.257 . S
O2 Co0 2.143 . S
O2 Co1 2.160 . S
C3 O4 1.278 . S
C3 O11 1.224 . S
O4 C3 1.278 . S
C5 O6 1.245 . S
C5 O17 1.232 . S
O6 C5 1.245 . S
O7 Co1 2.058 . S
O7 C33 1.269 . S
O8 Co0 2.074 . S
O8 C33 1.257 . S
H9 C34 0.930 . S
H10 C40 0.930 . S
O11 Co0 2.093 . S
O11 C3 1.224 . S
H12 C44 0.929 . S
H13 C46 0.930 . S
H14 C47 0.930 . S
H15 C45 0.929 . S
H16 C48 0.928 . S
O17 Co1 2.057 . S
O17 C5 1.232 . S
H18 C37 0.929 . S
H19 C38 0.929 . S
H20 C50 0.931 . S
H21 C42 0.929 . S
H22 C51 0.930 . S
H23 C43 0.931 . S
O24 Co0 2.097 . S
O24 C52 1.214 . S
H25 C53 0.929 . S
H26 C54 0.929 . S
H27 C55 0.930 . S
H28 C56 0.929 . S
H29 C58 0.930 . S
H30 C35 0.930 . S
H31 C39 0.930 . S
O32 Co1 2.037 . S
O32 C52 1.234 . S
C33 O7 1.269 . S
C33 O8 1.257 . S
C34 H9 0.930 . S
C34 C37 1.388 1_655 S
C34 C39 1.418 . S
C35 H30 0.930 . S
C35 C38 1.404 1_655 S
C35 C39 1.353 . S
N36 Co1 2.145 . S
N36 C37 1.397 . S
N36 C38 1.334 . S
C37 H18 0.929 . S
C37 C34 1.388 1_455 S
C37 N36 1.397 . S
C38 H19 0.929 . S
C38 C35 1.404 1_455 S
C38 N36 1.334 . S
C39 H31 0.930 . S
C39 C34 1.418 . S
C39 C35 1.353 . S
C40 H10 0.930 . S
C40 N41 1.330 . S
C40 C42 1.446 . S
N41 Co0 2.151 . S
N41 C40 1.330 . S
N41 C45 1.418 . S
C42 H21 0.929 . S
C42 C40 1.446 . S
C42 C43 1.332 . S
C43 H23 0.931 . S
C43 C42 1.332 . S
C43 C44 1.267 . S
C44 H12 0.929 . S
C44 C43 1.267 . S
C44 C45 1.251 . S
C45 H15 0.929 . S
C45 N41 1.418 . S
C45 C44 1.251 . S
C46 H13 0.930 . S
C46 C48 1.406 . S
C46 C51 1.261 . S
C47 H14 0.930 . S
C47 N49 1.325 . S
C47 C50 1.357 . S
C48 H16 0.928 . S
C48 C46 1.406 . S
C48 N49 1.261 . S
N49 Co0 2.214 . S
N49 C47 1.325 . S
N49 C48 1.261 . S
C50 H20 0.931 . S
C50 C47 1.357 . S
C50 C51 1.312 . S
C51 H22 0.930 . S
C51 C46 1.261 . S
C51 C50 1.312 . S
C52 O24 1.214 . S
C52 O32 1.234 . S
C53 H25 0.929 . S
C53 C56 1.391 1_455 S
C53 C58 1.391 . S
C54 H26 0.929 . S
C54 C55 1.390 1_455 S
C54 N57 1.391 . S
C55 H27 0.930 . S
C55 C54 1.390 1_655 S
C55 C56 1.392 . S
C56 H28 0.929 . S
C56 C53 1.391 1_655 S
C56 C55 1.392 . S
N57 Co1 2.257 . S
N57 C54 1.391 . S
N57 C58 1.388 . S
C58 H29 0.930 . S
C58 C53 1.391 . S
C58 N57 1.388 . S
Co59 O61 2.143 . S
Co59 O67 2.074 . S
Co59 O70 2.093 . S
Co59 O83 2.097 . S
Co59 N100 2.151 . S
Co59 N108 2.214 . S
Co60 O61 2.160 . S
Co60 O66 2.058 . S
Co60 O76 2.057 . S
Co60 O91 2.037 . S
Co60 N95 2.145 . S
Co60 N116 2.257 . S
O61 Co59 2.143 . S
O61 Co60 2.160 . S
C62 O63 1.278 . S
C62 O70 1.224 . S
O63 C62 1.278 . S
C64 O65 1.245 . S
C64 O76 1.232 . S
O65 C64 1.245 . S
O66 Co60 2.058 . S
O66 C92 1.269 . S
O67 Co59 2.074 . S
O67 C92 1.257 . S
H68 C93 0.930 . S
H69 C99 0.930 . S
O70 Co59 2.093 . S
O70 C62 1.224 . S
H71 C103 0.929 . S
H72 C105 0.930 . S
H73 C106 0.930 . S
H74 C104 0.929 . S
H75 C107 0.928 . S
O76 Co60 2.057 . S
O76 C64 1.232 . S
H77 C96 0.929 . S
H78 C97 0.929 . S
H79 C109 0.931 . S
H80 C101 0.929 . S
H81 C110 0.930 . S
H82 C102 0.931 . S
O83 Co59 2.097 . S
O83 C111 1.214 . S
H84 C112 0.929 . S
H85 C113 0.929 . S
H86 C114 0.930 . S
H87 C115 0.929 . S
H88 C117 0.930 . S
H89 C94 0.930 . S
H90 C98 0.930 . S
O91 Co60 2.037 . S
O91 C111 1.234 . S
C92 O66 1.269 . S
C92 O67 1.257 . S
C93 H68 0.930 . S
C93 C96 1.388 . S
C93 C98 1.418 . S
C94 H89 0.930 . S
C94 C97 1.404 . S
C94 C98 1.353 . S
N95 Co60 2.145 . S
N95 C96 1.397 . S
N95 C97 1.334 . S
C96 H77 0.929 . S
C96 C93 1.388 . S
C96 N95 1.397 . S
C97 H78 0.929 . S
C97 C94 1.404 . S
C97 N95 1.334 . S
C98 H90 0.930 . S
C98 C93 1.418 . S
C98 C94 1.353 . S
C99 H69 0.930 . S
C99 N100 1.330 . S
C99 C101 1.446 . S
N100 Co59 2.151 . S
N100 C99 1.330 . S
N100 C104 1.418 . S
C101 H80 0.929 . S
C101 C99 1.446 . S
C101 C102 1.332 . S
C102 H82 0.931 . S
C102 C101 1.332 . S
C102 C103 1.267 . S
C103 H71 0.929 . S
C103 C102 1.267 . S
C103 C104 1.251 . S
C104 H74 0.929 . S
C104 N100 1.418 . S
C104 C103 1.251 . S
C105 H72 0.930 . S
C105 C107 1.406 . S
C105 C110 1.261 . S
C106 H73 0.930 . S
C106 N108 1.325 . S
C106 C109 1.357 . S
C107 H75 0.928 . S
C107 C105 1.406 . S
C107 N108 1.261 . S
N108 Co59 2.214 . S
N108 C106 1.325 . S
N108 C107 1.261 . S
C109 H79 0.931 . S
C109 C106 1.357 . S
C109 C110 1.312 . S
C110 H81 0.930 . S
C110 C105 1.261 . S
C110 C109 1.312 . S
C111 O83 1.214 . S
C111 O91 1.234 . S
C112 H84 0.929 . S
C112 C115 1.391 . S
C112 C117 1.391 . S
C113 H85 0.929 . S
C113 C114 1.390 . S
C113 N116 1.391 . S
C114 H86 0.930 . S
C114 C113 1.390 . S
C114 C115 1.392 . S
C115 H87 0.929 . S
C115 C112 1.391 . S
C115 C114 1.392 . S
N116 Co60 2.257 . S
N116 C113 1.391 . S
N116 C117 1.388 . S
C117 H88 0.930 . S
C117 C112 1.391 . S
C117 N116 1.388 . S
Co118 O120 2.143 . S
Co118 O126 2.074 . S
Co118 O129 2.093 . S
Co118 O142 2.097 . S
Co118 N159 2.151 . S
Co118 N167 2.214 . S
Co119 O120 2.160 . S
Co119 O125 2.058 . S
Co119 O135 2.057 . S
Co119 O150 2.037 . S
Co119 N154 2.145 . S
Co119 N175 2.257 . S
O120 Co118 2.143 . S
O120 Co119 2.160 . S
C121 O122 1.278 . S
C121 O129 1.224 . S
O122 C121 1.278 . S
C123 O124 1.245 . S
C123 O135 1.232 . S
O124 C123 1.245 . S
O125 Co119 2.058 . S
O125 C151 1.269 . S
O126 Co118 2.074 . S
O126 C151 1.257 . S
H127 C152 0.930 . S
H128 C158 0.930 . S
O129 Co118 2.093 . S
O129 C121 1.224 . S
H130 C162 0.929 . S
H131 C164 0.930 . S
H132 C165 0.930 . S
H133 C163 0.929 . S
H134 C166 0.928 . S
O135 Co119 2.057 . S
O135 C123 1.232 . S
H136 C155 0.929 . S
H137 C156 0.929 . S
H138 C168 0.931 . S
H139 C160 0.929 . S
H140 C169 0.930 . S
H141 C161 0.931 . S
O142 Co118 2.097 . S
O142 C170 1.214 . S
H143 C171 0.929 . S
H144 C172 0.929 . S
H145 C173 0.930 . S
H146 C174 0.929 . S
H147 C176 0.930 . S
H148 C153 0.930 . S
H149 C157 0.930 . S
O150 Co119 2.037 . S
O150 C170 1.234 . S
C151 O125 1.269 . S
C151 O126 1.257 . S
C152 H127 0.930 . S
C152 C155 1.388 . S
C152 C157 1.418 . S
C153 H148 0.930 . S
C153 C156 1.404 . S
C153 C157 1.353 . S
N154 Co119 2.145 . S
N154 C155 1.397 . S
N154 C156 1.334 . S
C155 H136 0.929 . S
C155 C152 1.388 . S
C155 N154 1.397 . S
C156 H137 0.929 . S
C156 C153 1.404 . S
C156 N154 1.334 . S
C157 H149 0.930 . S
C157 C152 1.418 . S
C157 C153 1.353 . S
C158 H128 0.930 . S
C158 N159 1.330 . S
C158 C160 1.446 . S
N159 Co118 2.151 . S
N159 C158 1.330 . S
N159 C163 1.418 . S
C160 H139 0.929 . S
C160 C158 1.446 . S
C160 C161 1.332 . S
C161 H141 0.931 . S
C161 C160 1.332 . S
C161 C162 1.267 . S
C162 H130 0.929 . S
C162 C161 1.267 . S
C162 C163 1.251 . S
C163 H133 0.929 . S
C163 N159 1.418 . S
C163 C162 1.251 . S
C164 H131 0.930 . S
C164 C166 1.406 . S
C164 C169 1.261 . S
C165 H132 0.930 . S
C165 N167 1.325 . S
C165 C168 1.357 . S
C166 H134 0.928 . S
C166 C164 1.406 . S
C166 N167 1.261 . S
N167 Co118 2.214 . S
N167 C165 1.325 . S
N167 C166 1.261 . S
C168 H138 0.931 . S
C168 C165 1.357 . S
C168 C169 1.312 . S
C169 H140 0.930 . S
C169 C164 1.261 . S
C169 C168 1.312 . S
C170 O142 1.214 . S
C170 O150 1.234 . S
C171 H143 0.929 . S
C171 C174 1.391 . S
C171 C176 1.391 . S
C172 H144 0.929 . S
C172 C173 1.390 . S
C172 N175 1.391 . S
C173 H145 0.930 . S
C173 C172 1.390 . S
C173 C174 1.392 . S
C174 H146 0.929 . S
C174 C171 1.391 . S
C174 C173 1.392 . S
N175 Co119 2.257 . S
N175 C172 1.391 . S
N175 C176 1.388 . S
C176 H147 0.930 . S
C176 C171 1.391 . S
C176 N175 1.388 . S
Co177 O179 2.143 . S
Co177 O185 2.074 . S
Co177 O188 2.093 . S
Co177 O201 2.097 . S
Co177 N218 2.151 . S
Co177 N226 2.214 . S
Co178 O179 2.160 . S
Co178 O184 2.058 . S
Co178 O194 2.057 . S
Co178 O209 2.037 . S
Co178 N213 2.145 . S
Co178 N234 2.257 . S
O179 Co177 2.143 . S
O179 Co178 2.160 . S
C180 O181 1.278 . S
C180 O188 1.224 . S
O181 C180 1.278 . S
C182 O183 1.245 . S
C182 O194 1.232 . S
O183 C182 1.245 . S
O184 Co178 2.058 . S
O184 C210 1.269 . S
O185 Co177 2.074 . S
O185 C210 1.257 . S
H186 C211 0.930 . S
H187 C217 0.930 . S
O188 Co177 2.093 . S
O188 C180 1.224 . S
H189 C221 0.929 . S
H190 C223 0.930 . S
H191 C224 0.930 . S
H192 C222 0.929 . S
H193 C225 0.928 . S
O194 Co178 2.057 . S
O194 C182 1.232 . S
H195 C214 0.929 . S
H196 C215 0.929 . S
H197 C227 0.931 . S
H198 C219 0.929 . S
H199 C228 0.930 . S
H200 C220 0.931 . S
O201 Co177 2.097 . S
O201 C229 1.214 . S
H202 C230 0.929 . S
H203 C231 0.929 . S
H204 C232 0.930 . S
H205 C233 0.929 . S
H206 C235 0.930 . S
H207 C212 0.930 . S
H208 C216 0.930 . S
O209 Co178 2.037 . S
O209 C229 1.234 . S
C210 O184 1.269 . S
C210 O185 1.257 . S
C211 H186 0.930 . S
C211 C214 1.388 1_545 S
C211 C216 1.418 . S
C212 H207 0.930 . S
C212 C215 1.404 1_545 S
C212 C216 1.353 . S
N213 Co178 2.145 . S
N213 C214 1.397 . S
N213 C215 1.334 . S
C214 H195 0.929 . S
C214 C211 1.388 1_565 S
C214 N213 1.397 . S
C215 H196 0.929 . S
C215 C212 1.404 1_565 S
C215 N213 1.334 . S
C216 H208 0.930 . S
C216 C211 1.418 . S
C216 C212 1.353 . S
C217 H187 0.930 . S
C217 N218 1.330 . S
C217 C219 1.446 . S
N218 Co177 2.151 . S
N218 C217 1.330 . S
N218 C222 1.418 . S
C219 H198 0.929 . S
C219 C217 1.446 . S
C219 C220 1.332 . S
C220 H200 0.931 . S
C220 C219 1.332 . S
C220 C221 1.267 . S
C221 H189 0.929 . S
C221 C220 1.267 . S
C221 C222 1.251 . S
C222 H192 0.929 . S
C222 N218 1.418 . S
C222 C221 1.251 . S
C223 H190 0.930 . S
C223 C225 1.406 . S
C223 C228 1.261 . S
C224 H191 0.930 . S
C224 N226 1.325 . S
C224 C227 1.357 . S
C225 H193 0.928 . S
C225 C223 1.406 . S
C225 N226 1.261 . S
N226 Co177 2.214 . S
N226 C224 1.325 . S
N226 C225 1.261 . S
C227 H197 0.931 . S
C227 C224 1.357 . S
C227 C228 1.312 . S
C228 H199 0.930 . S
C228 C223 1.261 . S
C228 C227 1.312 . S
C229 O201 1.214 . S
C229 O209 1.234 . S
C230 H202 0.929 . S
C230 C233 1.391 1_565 S
C230 C235 1.391 . S
C231 H203 0.929 . S
C231 C232 1.390 1_565 S
C231 N234 1.391 . S
C232 H204 0.930 . S
C232 C231 1.390 1_545 S
C232 C233 1.392 . S
C233 H205 0.929 . S
C233 C230 1.391 1_545 S
C233 C232 1.392 . S
N234 Co178 2.257 . S
N234 C231 1.391 . S
N234 C235 1.388 . S
C235 H206 0.930 . S
C235 C230 1.391 . S
C235 N234 1.388 . S
Co236 O238 2.143 . S
Co236 O244 2.074 . S
Co236 O247 2.093 . S
Co236 O260 2.097 . S
Co236 N277 2.151 . S
Co236 N285 2.214 . S
Co237 O238 2.160 . S
Co237 O243 2.058 . S
Co237 O253 2.057 . S
Co237 O268 2.037 . S
Co237 N272 2.145 . S
Co237 N293 2.257 . S
O238 Co236 2.143 . S
O238 Co237 2.160 . S
C239 O240 1.278 . S
C239 O247 1.224 . S
O240 C239 1.278 . S
C241 O242 1.245 . S
C241 O253 1.232 . S
O242 C241 1.245 . S
O243 Co237 2.058 . S
O243 C269 1.269 . S
O244 Co236 2.074 . S
O244 C269 1.257 . S
H245 C270 0.930 . S
H246 C276 0.930 . S
O247 Co236 2.093 . S
O247 C239 1.224 . S
H248 C280 0.929 . S
H249 C282 0.930 . S
H250 C283 0.930 . S
H251 C281 0.929 . S
H252 C284 0.928 . S
O253 Co237 2.057 . S
O253 C241 1.232 . S
H254 C273 0.929 . S
H255 C274 0.929 . S
H256 C286 0.931 . S
H257 C278 0.929 . S
H258 C287 0.930 . S
H259 C279 0.931 . S
O260 Co236 2.097 . S
O260 C288 1.214 . S
H261 C289 0.929 . S
H262 C290 0.929 . S
H263 C291 0.930 . S
H264 C292 0.929 . S
H265 C294 0.930 . S
H266 C271 0.930 . S
H267 C275 0.930 . S
O268 Co237 2.037 . S
O268 C288 1.234 . S
C269 O243 1.269 . S
C269 O244 1.257 . S
C270 H245 0.930 . S
C270 C273 1.388 1_655 S
C270 C275 1.418 . S
C271 H266 0.930 . S
C271 C274 1.404 1_655 S
C271 C275 1.353 . S
N272 Co237 2.145 . S
N272 C273 1.397 . S
N272 C274 1.334 . S
C273 H254 0.929 . S
C273 C270 1.388 1_455 S
C273 N272 1.397 . S
C274 H255 0.929 . S
C274 C271 1.404 1_455 S
C274 N272 1.334 . S
C275 H267 0.930 . S
C275 C270 1.418 . S
C275 C271 1.353 . S
C276 H246 0.930 . S
C276 N277 1.330 . S
C276 C278 1.446 . S
N277 Co236 2.151 . S
N277 C276 1.330 . S
N277 C281 1.418 . S
C278 H257 0.929 . S
C278 C276 1.446 . S
C278 C279 1.332 . S
C279 H259 0.931 . S
C279 C278 1.332 . S
C279 C280 1.267 . S
C280 H248 0.929 . S
C280 C279 1.267 . S
C280 C281 1.251 . S
C281 H251 0.929 . S
C281 N277 1.418 . S
C281 C280 1.251 . S
C282 H249 0.930 . S
C282 C284 1.406 . S
C282 C287 1.261 . S
C283 H250 0.930 . S
C283 N285 1.325 . S
C283 C286 1.357 . S
C284 H252 0.928 . S
C284 C282 1.406 . S
C284 N285 1.261 . S
N285 Co236 2.214 . S
N285 C283 1.325 . S
N285 C284 1.261 . S
C286 H256 0.931 . S
C286 C283 1.357 . S
C286 C287 1.312 . S
C287 H258 0.930 . S
C287 C282 1.261 . S
C287 C286 1.312 . S
C288 O260 1.214 . S
C288 O268 1.234 . S
C289 H261 0.929 . S
C289 C292 1.391 1_455 S
C289 C294 1.391 . S
C290 H262 0.929 . S
C290 C291 1.390 1_455 S
C290 N293 1.391 . S
C291 H263 0.930 . S
C291 C290 1.390 1_655 S
C291 C292 1.392 . S
C292 H264 0.929 . S
C292 C289 1.391 1_655 S
C292 C291 1.392 . S
N293 Co237 2.257 . S
N293 C290 1.391 . S
N293 C294 1.388 . S
C294 H265 0.930 . S
C294 C289 1.391 . S
C294 N293 1.388 . S
Co295 O297 2.143 . S
Co295 O303 2.074 . S
Co295 O306 2.093 . S
Co295 O319 2.097 . S
Co295 N336 2.151 . S
Co295 N344 2.214 . S
Co296 O297 2.160 . S
Co296 O302 2.058 . S
Co296 O312 2.057 . S
Co296 O327 2.037 . S
Co296 N331 2.145 . S
Co296 N352 2.257 . S
O297 Co295 2.143 . S
O297 Co296 2.160 . S
C298 O299 1.278 . S
C298 O306 1.224 . S
O299 C298 1.278 . S
C300 O301 1.245 . S
C300 O312 1.232 . S
O301 C300 1.245 . S
O302 Co296 2.058 . S
O302 C328 1.269 . S
O303 Co295 2.074 . S
O303 C328 1.257 . S
H304 C329 0.930 . S
H305 C335 0.930 . S
O306 Co295 2.093 . S
O306 C298 1.224 . S
H307 C339 0.929 . S
H308 C341 0.930 . S
H309 C342 0.930 . S
H310 C340 0.929 . S
H311 C343 0.928 . S
O312 Co296 2.057 . S
O312 C300 1.232 . S
H313 C332 0.929 . S
H314 C333 0.929 . S
H315 C345 0.931 . S
H316 C337 0.929 . S
H317 C346 0.930 . S
H318 C338 0.931 . S
O319 Co295 2.097 . S
O319 C347 1.214 . S
H320 C348 0.929 . S
H321 C349 0.929 . S
H322 C350 0.930 . S
H323 C351 0.929 . S
H324 C353 0.930 . S
H325 C330 0.930 . S
H326 C334 0.930 . S
O327 Co296 2.037 . S
O327 C347 1.234 . S
C328 O302 1.269 . S
C328 O303 1.257 . S
C329 H304 0.930 . S
C329 C332 1.388 . S
C329 C334 1.418 . S
C330 H325 0.930 . S
C330 C333 1.404 . S
C330 C334 1.353 . S
N331 Co296 2.145 . S
N331 C332 1.397 . S
N331 C333 1.334 . S
C332 H313 0.929 . S
C332 C329 1.388 . S
C332 N331 1.397 . S
C333 H314 0.929 . S
C333 C330 1.404 . S
C333 N331 1.334 . S
C334 H326 0.930 . S
C334 C329 1.418 . S
C334 C330 1.353 . S
C335 H305 0.930 . S
C335 N336 1.330 . S
C335 C337 1.446 . S
N336 Co295 2.151 . S
N336 C335 1.330 . S
N336 C340 1.418 . S
C337 H316 0.929 . S
C337 C335 1.446 . S
C337 C338 1.332 . S
C338 H318 0.931 . S
C338 C337 1.332 . S
C338 C339 1.267 . S
C339 H307 0.929 . S
C339 C338 1.267 . S
C339 C340 1.251 . S
C340 H310 0.929 . S
C340 N336 1.418 . S
C340 C339 1.251 . S
C341 H308 0.930 . S
C341 C343 1.406 . S
C341 C346 1.261 . S
C342 H309 0.930 . S
C342 N344 1.325 . S
C342 C345 1.357 . S
C343 H311 0.928 . S
C343 C341 1.406 . S
C343 N344 1.261 . S
N344 Co295 2.214 . S
N344 C342 1.325 . S
N344 C343 1.261 . S
C345 H315 0.931 . S
C345 C342 1.357 . S
C345 C346 1.312 . S
C346 H317 0.930 . S
C346 C341 1.261 . S
C346 C345 1.312 . S
C347 O319 1.214 . S
C347 O327 1.234 . S
C348 H320 0.929 . S
C348 C351 1.391 . S
C348 C353 1.391 . S
C349 H321 0.929 . S
C349 C350 1.390 . S
C349 N352 1.391 . S
C350 H322 0.930 . S
C350 C349 1.390 . S
C350 C351 1.392 . S
C351 H323 0.929 . S
C351 C348 1.391 . S
C351 C350 1.392 . S
N352 Co296 2.257 . S
N352 C349 1.391 . S
N352 C353 1.388 . S
C353 H324 0.930 . S
C353 C348 1.391 . S
C353 N352 1.388 . S
Co354 O356 2.143 . S
Co354 O362 2.074 . S
Co354 O365 2.093 . S
Co354 O378 2.097 . S
Co354 N395 2.151 . S
Co354 N403 2.214 . S
Co355 O356 2.160 . S
Co355 O361 2.058 . S
Co355 O371 2.057 . S
Co355 O386 2.037 . S
Co355 N390 2.145 . S
Co355 N411 2.257 . S
O356 Co354 2.143 . S
O356 Co355 2.160 . S
C357 O358 1.278 . S
C357 O365 1.224 . S
O358 C357 1.278 . S
C359 O360 1.245 . S
C359 O371 1.232 . S
O360 C359 1.245 . S
O361 Co355 2.058 . S
O361 C387 1.269 . S
O362 Co354 2.074 . S
O362 C387 1.257 . S
H363 C388 0.930 . S
H364 C394 0.930 . S
O365 Co354 2.093 . S
O365 C357 1.224 . S
H366 C398 0.929 . S
H367 C400 0.930 . S
H368 C401 0.930 . S
H369 C399 0.929 . S
H370 C402 0.928 . S
O371 Co355 2.057 . S
O371 C359 1.232 . S
H372 C391 0.929 . S
H373 C392 0.929 . S
H374 C404 0.931 . S
H375 C396 0.929 . S
H376 C405 0.930 . S
H377 C397 0.931 . S
O378 Co354 2.097 . S
O378 C406 1.214 . S
H379 C407 0.929 . S
H380 C408 0.929 . S
H381 C409 0.930 . S
H382 C410 0.929 . S
H383 C412 0.930 . S
H384 C389 0.930 . S
H385 C393 0.930 . S
O386 Co355 2.037 . S
O386 C406 1.234 . S
C387 O361 1.269 . S
C387 O362 1.257 . S
C388 H363 0.930 . S
C388 C391 1.388 1_545 S
C388 C393 1.418 . S
C389 H384 0.930 . S
C389 C392 1.404 1_545 S
C389 C393 1.353 . S
N390 Co355 2.145 . S
N390 C391 1.397 . S
N390 C392 1.334 . S
C391 H372 0.929 . S
C391 C388 1.388 1_565 S
C391 N390 1.397 . S
C392 H373 0.929 . S
C392 C389 1.404 1_565 S
C392 N390 1.334 . S
C393 H385 0.930 . S
C393 C388 1.418 . S
C393 C389 1.353 . S
C394 H364 0.930 . S
C394 N395 1.330 . S
C394 C396 1.446 . S
N395 Co354 2.151 . S
N395 C394 1.330 . S
N395 C399 1.418 . S
C396 H375 0.929 . S
C396 C394 1.446 . S
C396 C397 1.332 . S
C397 H377 0.931 . S
C397 C396 1.332 . S
C397 C398 1.267 . S
C398 H366 0.929 . S
C398 C397 1.267 . S
C398 C399 1.251 . S
C399 H369 0.929 . S
C399 N395 1.418 . S
C399 C398 1.251 . S
C400 H367 0.930 . S
C400 C402 1.406 . S
C400 C405 1.261 . S
C401 H368 0.930 . S
C401 N403 1.325 . S
C401 C404 1.357 . S
C402 H370 0.928 . S
C402 C400 1.406 . S
C402 N403 1.261 . S
N403 Co354 2.214 . S
N403 C401 1.325 . S
N403 C402 1.261 . S
C404 H374 0.931 . S
C404 C401 1.357 . S
C404 C405 1.312 . S
C405 H376 0.930 . S
C405 C400 1.261 . S
C405 C404 1.312 . S
C406 O378 1.214 . S
C406 O386 1.234 . S
C407 H379 0.929 . S
C407 C410 1.391 1_565 S
C407 C412 1.391 . S
C408 H380 0.929 . S
C408 C409 1.390 1_565 S
C408 N411 1.391 . S
C409 H381 0.930 . S
C409 C408 1.390 1_545 S
C409 C410 1.392 . S
C410 H382 0.929 . S
C410 C407 1.391 1_545 S
C410 C409 1.392 . S
N411 Co355 2.257 . S
N411 C408 1.391 . S
N411 C412 1.388 . S
C412 H383 0.930 . S
C412 C407 1.391 . S
C412 N411 1.388 . S
Co413 O415 2.143 . S
Co413 O421 2.074 . S
Co413 O424 2.093 . S
Co413 O437 2.097 . S
Co413 N454 2.151 . S
Co413 N462 2.214 . S
Co414 O415 2.160 . S
Co414 O420 2.058 . S
Co414 O430 2.057 . S
Co414 O445 2.037 . S
Co414 N449 2.145 . S
Co414 N470 2.257 . S
O415 Co413 2.143 . S
O415 Co414 2.160 . S
C416 O417 1.278 . S
C416 O424 1.224 . S
O417 C416 1.278 . S
C418 O419 1.245 . S
C418 O430 1.232 . S
O419 C418 1.245 . S
O420 Co414 2.058 . S
O420 C446 1.269 . S
O421 Co413 2.074 . S
O421 C446 1.257 . S
H422 C447 0.930 . S
H423 C453 0.930 . S
O424 Co413 2.093 . S
O424 C416 1.224 . S
H425 C457 0.929 . S
H426 C459 0.930 . S
H427 C460 0.930 . S
H428 C458 0.929 . S
H429 C461 0.928 . S
O430 Co414 2.057 . S
O430 C418 1.232 . S
H431 C450 0.929 . S
H432 C451 0.929 . S
H433 C463 0.931 . S
H434 C455 0.929 . S
H435 C464 0.930 . S
H436 C456 0.931 . S
O437 Co413 2.097 . S
O437 C465 1.214 . S
H438 C466 0.929 . S
H439 C467 0.929 . S
H440 C468 0.930 . S
H441 C469 0.929 . S
H442 C471 0.930 . S
H443 C448 0.930 . S
H444 C452 0.930 . S
O445 Co414 2.037 . S
O445 C465 1.234 . S
C446 O420 1.269 . S
C446 O421 1.257 . S
C447 H422 0.930 . S
C447 C450 1.388 . S
C447 C452 1.418 . S
C448 H443 0.930 . S
C448 C451 1.404 . S
C448 C452 1.353 . S
N449 Co414 2.145 . S
N449 C450 1.397 . S
N449 C451 1.334 . S
C450 H431 0.929 . S
C450 C447 1.388 . S
C450 N449 1.397 . S
C451 H432 0.929 . S
C451 C448 1.404 . S
C451 N449 1.334 . S
C452 H444 0.930 . S
C452 C447 1.418 . S
C452 C448 1.353 . S
C453 H423 0.930 . S
C453 N454 1.330 . S
C453 C455 1.446 . S
N454 Co413 2.151 . S
N454 C453 1.330 . S
N454 C458 1.418 . S
C455 H434 0.929 . S
C455 C453 1.446 . S
C455 C456 1.332 . S
C456 H436 0.931 . S
C456 C455 1.332 . S
C456 C457 1.267 . S
C457 H425 0.929 . S
C457 C456 1.267 . S
C457 C458 1.251 . S
C458 H428 0.929 . S
C458 N454 1.418 . S
C458 C457 1.251 . S
C459 H426 0.930 . S
C459 C461 1.406 . S
C459 C464 1.261 . S
C460 H427 0.930 . S
C460 N462 1.325 . S
C460 C463 1.357 . S
C461 H429 0.928 . S
C461 C459 1.406 . S
C461 N462 1.261 . S
N462 Co413 2.214 . S
N462 C460 1.325 . S
N462 C461 1.261 . S
C463 H433 0.931 . S
C463 C460 1.357 . S
C463 C464 1.312 . S
C464 H435 0.930 . S
C464 C459 1.261 . S
C464 C463 1.312 . S
C465 O437 1.214 . S
C465 O445 1.234 . S
C466 H438 0.929 . S
C466 C469 1.391 . S
C466 C471 1.391 . S
C467 H439 0.929 . S
C467 C468 1.390 . S
C467 N470 1.391 . S
C468 H440 0.930 . S
C468 C467 1.390 . S
C468 C469 1.392 . S
C469 H441 0.929 . S
C469 C466 1.391 . S
C469 C468 1.392 . S
N470 Co414 2.257 . S
N470 C467 1.391 . S
N470 C471 1.388 . S
C471 H442 0.930 . S
C471 C466 1.391 . S
C471 N470 1.388 . S
H472 C478 0.930 . S
H473 C482 0.930 . S
H474 C487 0.929 . S
H475 C485 0.929 . S
H476 C480 0.929 . S
H477 C486 0.929 . S
C478 H472 0.930 . S
C478 C479 1.367 . S
C478 C486 1.378 . S
C479 C478 1.367 . S
C479 C487 1.433 . S
C480 H476 0.929 . S
C480 C482 1.378 . S
C480 C484 1.350 . S
C481 C484 1.463 . S
C481 C486 1.350 . S
C481 N489 1.427 . S
C482 H473 0.930 . S
C482 C480 1.378 . S
C482 C483 1.367 . S
C483 C482 1.367 . S
C483 C485 1.433 . S
C484 C480 1.350 . S
C484 C481 1.463 . S
C484 N488 1.427 . S
C485 H475 0.929 . S
C485 C483 1.433 . S
C485 N488 1.384 . S
C486 H477 0.929 . S
C486 C478 1.378 . S
C486 C481 1.350 . S
C487 H474 0.929 . S
C487 C479 1.433 . S
C487 N489 1.384 . S
N488 C484 1.427 . S
N488 C485 1.384 . S
N489 C481 1.427 . S
N489 C487 1.384 . S
H490 C496 0.930 . S
H491 C500 0.930 . S
H492 C505 0.929 . S
H493 C503 0.929 . S
H494 C498 0.929 . S
H495 C504 0.929 . S
C496 H490 0.930 . S
C496 C497 1.367 . S
C496 C504 1.378 . S
C497 C496 1.367 . S
C497 C505 1.433 . S
C498 H494 0.929 . S
C498 C500 1.378 . S
C498 C502 1.350 . S
C499 C502 1.463 . S
C499 C504 1.350 . S
C499 N507 1.427 . S
C500 H491 0.930 . S
C500 C498 1.378 . S
C500 C501 1.367 . S
C501 C500 1.367 . S
C501 C503 1.433 . S
C502 C498 1.350 . S
C502 C499 1.463 . S
C502 N506 1.427 . S
C503 H493 0.929 . S
C503 C501 1.433 . S
C503 N506 1.384 . S
C504 H495 0.929 . S
C504 C496 1.378 . S
C504 C499 1.350 . S
C505 H492 0.929 . S
C505 C497 1.433 . S
C505 N507 1.384 . S
N506 C502 1.427 . S
N506 C503 1.384 . S
N507 C499 1.427 . S
N507 C505 1.384 . S
H508 C514 0.930 1_565 S
H509 C518 0.930 . S
H510 C523 0.929 . S
H511 C521 0.929 . S
H512 C516 0.929 1_545 S
H513 C522 0.929 . S
C514 H508 0.930 1_545 S
C514 C515 1.367 . S
C514 C522 1.378 1_545 S
C515 C514 1.367 . S
C515 C523 1.433 . S
C516 H512 0.929 1_565 S
C516 C518 1.378 . S
C516 C520 1.350 . S
C517 C520 1.463 1_554 S
C517 C522 1.350 . S
C517 N525 1.427 1_565 S
C518 H509 0.930 . S
C518 C516 1.378 . S
C518 C519 1.367 . S
C519 C518 1.367 . S
C519 C521 1.433 . S
C520 C516 1.350 . S
C520 C517 1.463 1_556 S
C520 N524 1.427 . S
C521 H511 0.929 . S
C521 C519 1.433 . S
C521 N524 1.384 . S
C522 H513 0.929 . S
C522 C514 1.378 1_565 S
C522 C517 1.350 . S
C523 H510 0.929 . S
C523 C515 1.433 . S
C523 N525 1.384 . S
N524 C520 1.427 . S
N524 C521 1.384 . S
N525 C517 1.427 1_545 S
N525 C523 1.384 . S
H526 C532 0.930 . S
H527 C536 0.930 . S
H528 C541 0.929 . S
H529 C539 0.929 . S
H530 C534 0.929 . S
H531 C540 0.929 . S
C532 H526 0.930 . S
C532 C533 1.367 . S
C532 C540 1.378 1_655 S
C533 C532 1.367 . S
C533 C541 1.433 . S
C534 H530 0.929 . S
C534 C536 1.378 . S
C534 C538 1.350 . S
C535 C538 1.463 . S
C535 C540 1.350 . S
C535 N543 1.427 1_455 S
C536 H527 0.930 . S
C536 C534 1.378 . S
C536 C537 1.367 . S
C537 C536 1.367 . S
C537 C539 1.433 . S
C538 C534 1.350 . S
C538 C535 1.463 . S
C538 N542 1.427 . S
C539 H529 0.929 . S
C539 C537 1.433 . S
C539 N542 1.384 . S
C540 H531 0.929 . S
C540 C532 1.378 1_455 S
C540 C535 1.350 . S
C541 H528 0.929 . S
C541 C533 1.433 . S
C541 N543 1.384 . S
N542 C538 1.427 . S
N542 C539 1.384 . S
N543 C535 1.427 1_655 S
N543 C541 1.384 . S
H544 C550 0.930 . S
H545 C554 0.930 . S
H546 C559 0.929 . S
H547 C557 0.929 . S
H548 C552 0.929 . S
H549 C558 0.929 . S
C550 H544 0.930 . S
C550 C551 1.367 . S
C550 C558 1.378 . S
C551 C550 1.367 . S
C551 C559 1.433 . S
C552 H548 0.929 . S
C552 C554 1.378 . S
C552 C556 1.350 1_545 S
C553 C556 1.463 . S
C553 C558 1.350 . S
C553 N561 1.427 . S
C554 H545 0.930 . S
C554 C552 1.378 . S
C554 C555 1.367 . S
C555 C554 1.367 . S
C555 C557 1.433 1_545 S
C556 C552 1.350 1_565 S
C556 C553 1.463 . S
C556 N560 1.427 . S
C557 H547 0.929 . S
C557 C555 1.433 1_565 S
C557 N560 1.384 . S
C558 H549 0.929 . S
C558 C550 1.378 . S
C558 C553 1.350 . S
C559 H546 0.929 . S
C559 C551 1.433 . S
C559 N561 1.384 . S
N560 C556 1.427 . S
N560 C557 1.384 . S
N561 C553 1.427 . S
N561 C559 1.384 . S
H562 C568 0.930 . S
H563 C572 0.930 . S
H564 C577 0.929 . S
H565 C575 0.929 . S
H566 C570 0.929 . S
H567 C576 0.929 . S
C568 H562 0.930 . S
C568 C569 1.367 . S
C568 C576 1.378 . S
C569 C568 1.367 . S
C569 C577 1.433 . S
C570 H566 0.929 . S
C570 C572 1.378 . S
C570 C574 1.350 . S
C571 C574 1.463 1_556 S
C571 C576 1.350 1_455 S
C571 N579 1.424 . S
C572 H563 0.930 . S
C572 C570 1.378 . S
C572 C573 1.367 . S
C573 C572 1.367 . S
C573 C575 1.433 . S
C574 C570 1.350 . S
C574 C571 1.463 1_554 S
C574 N578 1.427 . S
C575 H565 0.929 . S
C575 C573 1.433 . S
C575 N578 1.384 . S
C576 H567 0.929 . S
C576 C568 1.378 . S
C576 C571 1.350 1_655 S
C577 H564 0.929 . S
C577 C569 1.433 . S
C577 N579 1.374 1_655 S
N578 C574 1.427 . S
N578 C575 1.384 . S
N579 C571 1.424 . S
N579 C577 1.374 1_455 S
H580 C586 0.930 . S
H581 C590 0.930 . S
H582 C595 0.929 . S
H583 C593 0.929 . S
H584 C588 0.929 . S
H585 C594 0.929 . S
C586 H580 0.930 . S
C586 C587 1.367 . S
C586 C594 1.378 . S
C587 C586 1.367 . S
C587 C595 1.433 . S
C588 H584 0.929 . S
C588 C590 1.378 . S
C588 C592 1.350 . S
C589 C592 1.463 . S
C589 C594 1.350 . S
C589 N597 1.427 . S
C590 H581 0.930 . S
C590 C588 1.378 . S
C590 C591 1.367 . S
C591 C590 1.367 . S
C591 C593 1.433 . S
C592 C588 1.350 . S
C592 C589 1.463 . S
C592 N596 1.427 . S
C593 H583 0.929 . S
C593 C591 1.433 . S
C593 N596 1.384 . S
C594 H585 0.929 . S
C594 C586 1.378 . S
C594 C589 1.350 . S
C595 H582 0.929 . S
C595 C587 1.433 . S
C595 N597 1.384 . S
N596 C592 1.427 . S
N596 C593 1.384 . S
N597 C589 1.427 . S
N597 C595 1.384 . S
H598 C604 0.930 . S
H599 C608 0.930 . S
H600 C613 0.929 . S
H601 C611 0.929 . S
H602 C606 0.929 . S
H603 C612 0.929 . S
C604 H598 0.930 . S
C604 C605 1.367 . S
C604 C612 1.378 . S
C605 C604 1.367 . S
C605 C613 1.433 . S
C606 H602 0.929 . S
C606 C608 1.378 . S
C606 C610 1.350 . S
C607 C610 1.463 . S
C607 C612 1.350 . S
C607 N615 1.427 . S
C608 H599 0.930 . S
C608 C606 1.378 . S
C608 C609 1.367 . S
C609 C608 1.367 . S
C609 C611 1.433 . S
C610 C606 1.350 . S
C610 C607 1.463 . S
C610 N614 1.427 . S
C611 H601 0.929 . S
C611 C609 1.433 . S
C611 N614 1.384 . S
C612 H603 0.929 . S
C612 C604 1.378 . S
C612 C607 1.350 . S
C613 H600 0.929 . S
C613 C605 1.433 . S
C613 N615 1.384 . S
N614 C610 1.427 . S
N614 C611 1.384 . S
N615 C607 1.427 . S
N615 C613 1.384 . S
H616 C622 0.930 . S
H617 C626 0.930 . S
H618 C631 0.929 . S
H619 C629 0.929 . S
H620 C624 0.929 . S
H621 C630 0.929 . S
C622 H616 0.930 . S
C622 C623 1.367 . S
C622 C630 1.378 . S
C623 C622 1.367 . S
C623 C631 1.433 . S
C624 H620 0.929 . S
C624 C626 1.378 . S
C624 C628 1.350 . S
C625 C628 1.463 . S
C625 C630 1.350 . S
C625 N633 1.427 . S
C626 H617 0.930 . S
C626 C624 1.378 . S
C626 C627 1.367 . S
C627 C626 1.367 . S
C627 C629 1.433 . S
C628 C624 1.350 . S
C628 C625 1.463 . S
C628 N632 1.427 . S
C629 H619 0.929 . S
C629 C627 1.433 . S
C629 N632 1.384 . S
C630 H621 0.929 . S
C630 C622 1.378 . S
C630 C625 1.350 . S
C631 H618 0.929 . S
C631 C623 1.433 . S
C631 N633 1.384 . S
N632 C628 1.427 . S
N632 C629 1.384 . S
N633 C625 1.427 . S
N633 C631 1.384 . S
H634 C640 0.930 . S
H635 C644 0.930 . S
H636 C649 0.929 . S
H637 C647 0.929 . S
H638 C642 0.929 . S
H639 C648 0.929 . S
C640 H634 0.930 . S
C640 C641 1.367 . S
C640 C648 1.378 . S
C641 C640 1.367 . S
C641 C649 1.433 . S
C642 H638 0.929 . S
C642 C644 1.378 . S
C642 C646 1.350 . S
C643 C646 1.463 1_556 S
C643 C648 1.350 . S
C643 N651 1.427 . S
C644 H635 0.930 . S
C644 C642 1.378 . S
C644 C645 1.367 . S
C645 C644 1.367 . S
C645 C647 1.433 . S
C646 C642 1.350 . S
C646 C643 1.463 1_554 S
C646 N650 1.427 . S
C647 H637 0.929 . S
C647 C645 1.433 . S
C647 N650 1.384 . S
C648 H639 0.929 . S
C648 C640 1.378 . S
C648 C643 1.350 . S
C649 H636 0.929 . S
C649 C641 1.433 . S
C649 N651 1.384 . S
N650 C646 1.427 . S
N650 C647 1.384 . S
N651 C643 1.427 . S
N651 C649 1.384 . S
H652 C658 0.930 . S
H653 C662 0.930 . S
H654 C667 0.929 . S
H655 C665 0.929 . S
H656 C660 0.929 . S
H657 C666 0.929 . S
C658 H652 0.930 . S
C658 C659 1.367 . S
C658 C666 1.378 . S
C659 C658 1.367 . S
C659 C667 1.433 . S
C660 H656 0.929 . S
C660 C662 1.378 . S
C660 C664 1.350 1_545 S
C661 C664 1.463 . S
C661 C666 1.350 . S
C661 N669 1.427 . S
C662 H653 0.930 . S
C662 C660 1.378 . S
C662 C663 1.367 . S
C663 C662 1.367 . S
C663 C665 1.433 . S
C664 C660 1.350 1_565 S
C664 C661 1.463 . S
C664 N668 1.427 . S
C665 H655 0.929 . S
C665 C663 1.433 . S
C665 N668 1.384 1_545 S
C666 H657 0.929 . S
C666 C658 1.378 . S
C666 C661 1.350 . S
C667 H654 0.929 . S
C667 C659 1.433 . S
C667 N669 1.384 . S
N668 C664 1.427 . S
N668 C665 1.384 1_565 S
N669 C661 1.427 . S
N669 C667 1.384 . S
H670 C676 0.930 . S
H671 C680 0.944 . S
H672 C685 0.929 . S
H673 C683 0.929 . S
H674 C678 0.929 . S
H675 C684 0.929 1_545 S
C676 H670 0.930 . S
C676 C677 1.367 . S
C676 C684 1.378 . S
C677 C676 1.367 . S
C677 C685 1.433 . S
C678 H674 0.929 . S
C678 C680 1.388 . S
C678 C682 1.350 . S
C679 C682 1.463 . S
C679 C684 1.350 1_455 S
C679 N687 1.427 1_455 S
C680 H671 0.944 . S
C680 C678 1.388 . S
C680 C681 1.343 1_565 S
C681 C680 1.343 1_545 S
C681 C683 1.433 . S
C682 C678 1.350 . S
C682 C679 1.463 . S
C682 N686 1.427 1_565 S
C683 H673 0.929 . S
C683 C681 1.433 . S
C683 N686 1.384 . S
C684 H675 0.929 1_565 S
C684 C676 1.378 . S
C684 C679 1.350 1_655 S
C685 H672 0.929 . S
C685 C677 1.433 . S
C685 N687 1.384 . S
N686 C682 1.427 1_545 S
N686 C683 1.384 . S
N687 C679 1.427 1_655 S
N687 C685 1.384 . S
H688 C694 0.930 . S
H689 C698 0.930 . S
H690 C703 0.929 . S
H691 C701 0.929 . S
H692 C696 0.929 . S
H693 C702 0.929 . S
C694 H688 0.930 . S
C694 C695 1.367 . S
C694 C702 1.378 1_655 S
C695 C694 1.367 . S
C695 C703 1.433 . S
C696 H692 0.929 . S
C696 C698 1.378 . S
C696 C700 1.350 . S
C697 C700 1.463 . S
C697 C702 1.350 . S
C697 N705 1.427 1_455 S
C698 H689 0.930 . S
C698 C696 1.378 . S
C698 C699 1.367 . S
C699 C698 1.367 . S
C699 C701 1.433 . S
C700 C696 1.350 . S
C700 C697 1.463 . S
C700 N704 1.427 . S
C701 H691 0.929 . S
C701 C699 1.433 . S
C701 N704 1.384 . S
C702 H693 0.929 . S
C702 C694 1.378 1_455 S
C702 C697 1.350 . S
C703 H690 0.929 . S
C703 C695 1.433 . S
C703 N705 1.384 . S
N704 C700 1.427 . S
N704 C701 1.384 . S
N705 C697 1.427 1_655 S
N705 C703 1.384 . S
H706 C712 0.930 . S
H707 C716 0.930 . S
H708 C721 0.929 . S
H709 C719 0.929 . S
H710 C714 0.929 . S
H711 C720 0.929 . S
C712 H706 0.930 . S
C712 C713 1.367 . S
C712 C720 1.378 . S
C713 C712 1.367 . S
C713 C721 1.433 . S
C714 H710 0.929 . S
C714 C716 1.378 . S
C714 C718 1.350 . S
C715 C718 1.463 . S
C715 C720 1.350 . S
C715 N723 1.427 . S
C716 H707 0.930 . S
C716 C714 1.378 . S
C716 C717 1.367 . S
C717 C716 1.367 . S
C717 C719 1.433 . S
C718 C714 1.350 . S
C718 C715 1.463 . S
C718 N722 1.427 . S
C719 H709 0.929 . S
C719 C717 1.433 . S
C719 N722 1.384 . S
C720 H711 0.929 . S
C720 C712 1.378 . S
C720 C715 1.350 . S
C721 H708 0.929 . S
C721 C713 1.433 . S
C721 N723 1.384 . S
N722 C718 1.427 . S
N722 C719 1.384 . S
N723 C715 1.427 . S
N723 C721 1.384 . S
H724 C730 0.930 . S
H725 C734 0.930 . S
H726 C739 0.929 . S
H727 C737 0.929 . S
H728 C732 0.929 . S
H729 C738 0.929 . S
C730 H724 0.930 . S
C730 C731 1.367 . S
C730 C738 1.378 . S
C731 C730 1.367 . S
C731 C739 1.433 . S
C732 H728 0.929 . S
C732 C734 1.378 . S
C732 C736 1.350 . S
C733 C736 1.463 1_554 S
C733 C738 1.350 . S
C733 N741 1.427 . S
C734 H725 0.930 . S
C734 C732 1.378 . S
C734 C735 1.367 . S
C735 C734 1.367 . S
C735 C737 1.433 . S
C736 C732 1.350 . S
C736 C733 1.463 1_556 S
C736 N740 1.427 . S
C737 H727 0.929 . S
C737 C735 1.433 . S
C737 N740 1.384 . S
C738 H729 0.929 . S
C738 C730 1.378 . S
C738 C733 1.350 . S
C739 H726 0.929 . S
C739 C731 1.433 . S
C739 N741 1.384 . S
N740 C736 1.427 . S
N740 C737 1.384 . S
N741 C733 1.427 . S
N741 C739 1.384 . S
H742 C748 0.930 . S
H743 C752 0.930 . S
H744 C757 0.929 . S
H745 C755 0.929 . S
H746 C750 0.929 . S
H747 C756 0.929 . S
C748 H742 0.930 . S
C748 C749 1.367 . S
C748 C756 1.378 . S
C749 C748 1.367 . S
C749 C757 1.433 . S
C750 H746 0.929 . S
C750 C752 1.378 . S
C750 C754 1.350 . S
C751 C754 1.463 . S
C751 C756 1.350 . S
C751 N759 1.427 . S
C752 H743 0.930 . S
C752 C750 1.378 . S
C752 C753 1.367 . S
C753 C752 1.367 . S
C753 C755 1.433 . S
C754 C750 1.350 . S
C754 C751 1.463 . S
C754 N758 1.427 . S
C755 H745 0.929 . S
C755 C753 1.433 . S
C755 N758 1.384 . S
C756 H747 0.929 . S
C756 C748 1.378 . S
C756 C751 1.350 . S
C757 H744 0.929 . S
C757 C749 1.433 . S
C757 N759 1.384 . S
N758 C754 1.427 . S
N758 C755 1.384 . S
N759 C751 1.427 . S
N759 C757 1.384 . S
C479 C328 1.593 . S
C483 C33 1.591 . S
C497 C416 1.587 . S
C501 C64 1.591 . S
C515 C170 1.592 . S
C519 C406 1.591 . S
C533 C180 1.581 . S
C537 C241 1.589 . S
C551 C359 1.593 . S
C555 C3 1.585 . S
C569 C111 1.590 . S
C573 C288 1.595 . S
C587 C298 1.581 . S
C591 C123 1.590 . S
C605 C210 1.595 . S
C609 C446 1.589 . S
C623 C239 1.585 . S
C627 C300 1.589 . S
C641 C92 1.589 . S
C645 C151 1.595 . S
C659 C182 1.591 . S
C663 C121 1.581 . S
C677 C229 1.590 . S
C681 C52 1.594 . S
C695 C62 1.587 . S
C699 C5 1.590 . S
C713 C418 1.591 . S
C717 C357 1.587 . S
C731 C269 1.592 . S
C735 C387 1.593 . S
C749 C347 1.591 . S
C753 C465 1.596 . S
