# Generated by pormake.
# Topology lcy, (6)-cn, num edge types: 1
# Building blocks:
#     Node 0, Type 0, BuildingBlock: FUNLAD_clean_sbu_0, # of connection points: 6
#     Node 1, Type 0, BuildingBlock: FUNLAD_clean_sbu_0, # of connection points: 6
#     Node 2, Type 0, BuildingBlock: FUNLAD_clean_sbu_0, # of connection points: 6
#     Node 3, Type 0, BuildingBlock: FUNLAD_clean_sbu_0, # of connection points: 6
#     Edge 4, Type (0, 0), BuildingBlock: TEMPAE_clean_linker_10, # of connection points: 2
#     Edge 5, Type (0, 0), BuildingBlock: TEMPAE_clean_linker_10, # of connection points: 2
#     Edge 6, Type (0, 0), BuildingBlock: TEMPAE_clean_linker_10, # of connection points: 2
#     Edge 7, Type (0, 0), BuildingBlock: TEMPAE_clean_linker_10, # of connection points: 2
#     Edge 8, Type (0, 0), BuildingBlock: TEMPAE_clean_linker_10, # of connection points: 2
#     Edge 9, Type (0, 0), BuildingBlock: TEMPAE_clean_linker_10, # of connection points: 2
#     Edge 10, Type (0, 0), BuildingBlock: TEMPAE_clean_linker_10, # of connection points: 2
#     Edge 11, Type (0, 0), BuildingBlock: TEMPAE_clean_linker_10, # of connection points: 2
#     Edge 12, Type (0, 0), BuildingBlock: TEMPAE_clean_linker_10, # of connection points: 2
#     Edge 13, Type (0, 0), BuildingBlock: TEMPAE_clean_linker_10, # of connection points: 2
#     Edge 14, Type (0, 0), BuildingBlock: TEMPAE_clean_linker_10, # of connection points: 2
#     Edge 15, Type (0, 0), BuildingBlock: TEMPAE_clean_linker_10, # of connection points: 2
# Relax obj value: 0.645
# Max RMSD: 0.351
# Mean RMSD: 0.318
data_MOF--net-lcy--node1-FUNLAD_clean_sbu_0--edge1-TEMPAE_clean_linker_10
_symmetry_space_group_name_H-M    P1
_symmetry_Int_Tables_number       1
_symmetry_cell_setting            triclinic
loop_
_symmetry_equiv_pos_as_xyz
'x, y, z'
_cell_length_a     27.790656
_cell_length_b     27.903906
_cell_length_c     26.979886
_cell_angle_alpha  79.775381
_cell_angle_beta   79.802094
_cell_angle_gamma 71.490758
loop_
_atom_site_label
_atom_site_type_symbol
_atom_site_fract_x
_atom_site_fract_y
_atom_site_fract_z
_atom_type_partial_charge
C0 C 0.2928 0.44833 0.32296 0.0
N1 N 0.43067 0.46149 0.35288 0.0
C2 C 0.44119 0.47692 0.30242 0.0
C3 C 0.46798 0.51307 0.28625 0.0
C4 C 0.48336 0.53379 0.32245 0.0
C5 C 0.47393 0.51548 0.37394 0.0
C6 C 0.44769 0.47911 0.38834 0.0
Zn7 Zn 0.38181 0.41784 0.38011 0.0
C8 C 0.30829 0.46278 0.47166 0.0
N9 N 0.27681 0.33038 0.44537 0.0
C10 C 0.25502 0.31826 0.40974 0.0
C11 C 0.26302 0.31713 0.49571 0.0
C12 C 0.22552 0.29159 0.51159 0.0
C13 C 0.20106 0.28009 0.47549 0.0
C14 C 0.21688 0.29387 0.42387 0.0
Zn15 Zn 0.32842 0.37272 0.41807 0.0
O16 O 0.33184 0.46123 0.32639 0.0
C17 C 0.40292 0.32323 0.33293 0.0
O18 O 0.28061 0.41444 0.35697 0.0
H19 H 0.28067 0.32681 0.52367 0.0
H20 H 0.42711 0.46273 0.27483 0.0
H21 H 0.26646 0.32837 0.36984 0.0
O22 O 0.4189 0.36241 0.32657 0.0
O23 O 0.36737 0.31909 0.36856 0.0
H24 H 0.43919 0.46647 0.42826 0.0
O25 O 0.38167 0.33163 0.47502 0.0
O26 O 0.43231 0.37465 0.43071 0.0
O27 O 0.28988 0.42677 0.47017 0.0
O28 O 0.34439 0.46945 0.43728 0.0
C29 C 0.42447 0.34179 0.46759 0.0
H30 H 0.47444 0.52643 0.24613 0.0
H31 H 0.48571 0.53007 0.40295 0.0
H32 H 0.21592 0.28114 0.55185 0.0
H33 H 0.19915 0.28728 0.39413 0.0
C34 C 0.73711 0.20791 0.65504 0.0
N35 N 0.81885 0.05459 0.67939 0.0
C36 C 0.77503 0.04285 0.70012 0.0
C37 C 0.76875 0.99678 0.69416 0.0
C38 C 0.80688 0.96337 0.66445 0.0
C39 C 0.85269 0.97559 0.64533 0.0
C40 C 0.85807 0.02133 0.65379 0.0
Zn41 Zn 0.82618 0.12177 0.69043 0.0
C42 C 0.88913 0.16931 0.60528 0.0
N43 N 0.8382 0.26183 0.71803 0.0
C44 C 0.79752 0.29805 0.7383 0.0
C45 C 0.886 0.26726 0.70905 0.0
C46 C 0.89471 0.30956 0.72214 0.0
C47 C 0.85377 0.34708 0.74438 0.0
C48 C 0.80445 0.34131 0.75171 0.0
Zn49 Zn 0.83022 0.19562 0.70441 0.0
O50 O 0.76021 0.16066 0.656 0.0
C51 C 0.7754 0.14983 0.79343 0.0
O52 O 0.7569 0.23537 0.67351 0.0
H53 H 0.91781 0.23801 0.6929 0.0
H54 H 0.74422 0.06962 0.7205 0.0
H55 H 0.75985 0.29283 0.74514 0.0
O56 O 0.78143 0.11685 0.76403 0.0
O57 O 0.79171 0.18788 0.777 0.0
H58 H 0.8931 0.03083 0.63871 0.0
O59 O 0.90351 0.15099 0.73528 0.0
O60 O 0.88888 0.08142 0.72349 0.0
O61 O 0.8706 0.20493 0.63264 0.0
O62 O 0.87667 0.12812 0.61862 0.0
C63 C 0.91644 0.10237 0.73877 0.0
H64 H 0.73326 0.98871 0.71065 0.0
H65 H 0.88304 0.95173 0.6215 0.0
H66 H 0.93355 0.31176 0.71655 0.0
H67 H 0.77171 0.36955 0.76819 0.0
C68 C 0.20556 0.57358 0.96394 0.0
N69 N 0.2597 0.69857 0.89949 0.0
C70 C 0.28347 0.68741 0.94182 0.0
C71 C 0.32113 0.70974 0.94488 0.0
C72 C 0.33299 0.74617 0.90508 0.0
C73 C 0.308 0.75618 0.86164 0.0
C74 C 0.27271 0.73096 0.85912 0.0
Zn75 Zn 0.20054 0.67024 0.89613 0.0
C76 C 0.219 0.61288 0.80566 0.0
N77 N 0.07441 0.61954 0.88409 0.0
C78 C 0.05406 0.59208 0.92445 0.0
C79 C 0.05784 0.6282 0.83788 0.0
C80 C 0.02051 0.60764 0.83041 0.0
C81 C 1.00056 0.57728 0.8707 0.0
C82 C 0.01711 0.57011 0.91844 0.0
Zn83 Zn 0.13344 0.6458 0.88989 0.0
O84 O 0.23244 0.60335 0.94536 0.0
C85 C 0.11021 0.70266 0.9757 0.0
O86 O 0.16475 0.57925 0.94494 0.0
H87 H 0.07482 0.64971 0.80619 0.0
H88 H 0.27297 0.66156 0.97365 0.0
H89 H 0.06746 0.58603 0.96098 0.0
O90 O 0.15571 0.70585 0.96282 0.0
O91 O 0.09245 0.67969 0.95046 0.0
H92 H 0.25478 0.73856 0.82501 0.0
O93 O 0.10083 0.71659 0.84154 0.0
O94 O 0.16709 0.73809 0.85147 0.0
O95 O 0.1747 0.61062 0.8253 0.0
O96 O 0.24185 0.63498 0.82735 0.0
C97 C 0.12463 0.74995 0.83461 0.0
H98 H 0.34016 0.69842 0.97857 0.0
H99 H 0.31417 0.78414 0.82991 0.0
H100 H 0.00927 0.61328 0.79284 0.0
H101 H 0.00243 0.54687 0.95035 0.0
C102 C 0.57727 0.98651 0.20515 0.0
N103 N 0.70707 0.90388 0.27439 0.0
C104 C 0.70022 0.94415 0.29945 0.0
C105 C 0.71811 0.93615 0.3463 0.0
C106 C 0.74321 0.88631 0.36712 0.0
C107 C 0.75031 0.84578 0.34003 0.0
C108 C 0.73177 0.85544 0.29362 0.0
Zn109 Zn 0.67923 0.91137 0.20824 0.0
C110 C 0.62545 0.8332 0.21254 0.0
N111 N 0.62472 0.91495 0.06977 0.0
C112 C 0.59434 0.95658 0.04375 0.0
C113 C 0.63448 0.86757 0.05685 0.0
C114 C 0.61073 0.8599 0.01916 0.0
C115 C 0.57681 0.90144 0.99318 0.0
C116 C 0.5701 0.95068 1.00477 0.0
Zn117 Zn 0.65162 0.9152 0.13541 0.0
O118 O 0.61039 0.96256 0.23475 0.0
C119 C 0.70247 0.99285 0.12901 0.0
O120 O 0.58259 0.97318 0.16109 0.0
H121 H 0.65826 0.8348 0.07815 0.0
H122 H 0.68023 0.98222 0.28348 0.0
H123 H 0.5871 0.99398 0.05465 0.0
O124 O 0.70759 0.97555 0.17544 0.0
O125 O 0.68161 0.97283 0.10352 0.0
H126 H 0.73675 0.82385 0.27321 0.0
O127 O 0.72457 0.86129 0.10991 0.0
O128 O 0.74885 0.86343 0.18182 0.0
O129 O 0.61932 0.85626 0.16828 0.0
O130 O 0.65034 0.84752 0.23923 0.0
C131 C 0.75959 0.8486 0.13858 0.0
H132 H 0.71136 0.96839 0.36653 0.0
H133 H 0.76993 0.80697 0.35455 0.0
H134 H 0.61653 0.821 0.01327 0.0
H135 H 0.54496 0.98405 0.98543 0.0
C136 C 0.17356 0.54485 0.05398 0.0
C137 C 0.21477 0.54321 0.01498 0.0
C138 C 0.18151 0.52819 0.10541 0.0
C139 C 0.23202 0.50756 0.11857 0.0
C140 C 0.27368 0.50294 0.07885 0.0
C141 C 0.26463 0.52177 0.02801 0.0
C142 C 0.13576 0.53588 0.14596 0.0
C143 C 0.32816 0.47983 0.09022 0.0
C144 C 0.26571 0.51507 0.24868 0.0
C145 C 0.26849 0.46622 0.27488 0.0
C146 C 0.25143 0.52965 0.19916 0.0
C147 C 0.2416 0.49398 0.17369 0.0
C148 C 0.24348 0.44482 0.20037 0.0
C149 C 0.25607 0.43187 0.25067 0.0
C150 C 0.24833 0.58302 0.17351 0.0
C151 C 0.23505 0.40481 0.17477 0.0
H152 H 0.13488 0.56264 0.04475 0.0
H153 H 0.29678 0.52098 0.99847 0.0
H154 H 0.13703 0.49982 0.17154 0.0
H155 H 0.1367 0.56426 0.16959 0.0
H156 H 0.09899 0.54964 0.12969 0.0
H157 H 0.35574 0.47298 0.05514 0.0
H158 H 0.3385 0.50578 0.11039 0.0
H159 H 0.33225 0.44316 0.11553 0.0
H160 H 0.27568 0.54178 0.26668 0.0
H161 H 0.25931 0.39361 0.2699 0.0
H162 H 0.21172 0.60056 0.15729 0.0
H163 H 0.27979 0.58175 0.14164 0.0
H164 H 0.25129 0.60786 0.20007 0.0
H165 H 0.19819 0.41967 0.15883 0.0
H166 H 0.23505 0.3694 0.20118 0.0
H167 H 0.2658 0.39511 0.14257 0.0
C168 C 0.78466 0.90895 0.43024 0.0
C169 C 0.76074 0.87656 0.41748 0.0
C170 C 0.79597 0.90435 0.47955 0.0
C171 C 0.78319 0.86609 0.51694 0.0
C172 C 0.76318 0.83039 0.50317 0.0
C173 C 0.75173 0.83632 0.45348 0.0
C174 C 0.81826 0.94292 0.49227 0.0
C175 C 0.75062 0.78797 0.54109 0.0
C176 C 0.8349 0.87986 0.6293 0.0
C177 C 0.79533 0.92233 0.64478 0.0
C178 C 0.82898 0.85362 0.59212 0.0
C179 C 0.7826 0.8705 0.57083 0.0
C180 C 0.73957 0.90556 0.59424 0.0
C181 C 0.74652 0.9315 0.63084 0.0
C182 C 0.87446 0.81327 0.57061 0.0
C183 C 0.68839 0.92238 0.57454 0.0
H184 H 0.79308 0.93903 0.40193 0.0
H185 H 0.73351 0.81085 0.44363 0.0
H186 H 0.79008 0.96718 0.51909 0.0
H187 H 0.85306 0.92328 0.511 0.0
H188 H 0.82862 0.96816 0.45807 0.0
H189 H 0.75831 0.75328 0.52259 0.0
H190 H 0.77272 0.77809 0.57382 0.0
H191 H 0.70923 0.79986 0.55564 0.0
H192 H 0.872 0.87044 0.64218 0.0
H193 H 0.71497 0.96323 0.64318 0.0
H194 H 0.89565 0.83127 0.5377 0.0
H195 H 0.86222 0.78415 0.55714 0.0
H196 H 0.90108 0.79422 0.59927 0.0
H197 H 0.69025 0.9484 0.53845 0.0
H198 H 0.65721 0.94292 0.60195 0.0
H199 H 0.67861 0.88919 0.56662 0.0
C200 C 0.21208 0.62182 0.71335 0.0
C201 C 0.2389 0.59612 0.75446 0.0
C202 C 0.22446 0.60353 0.66579 0.0
C203 C 0.26397 0.55738 0.65902 0.0
C204 C 0.29187 0.53168 0.70031 0.0
C205 C 0.27922 0.55148 0.74739 0.0
C206 C 0.19402 0.6329 0.62319 0.0
C207 C 0.33379 0.48212 0.69538 0.0
C208 C 0.25649 0.48072 0.557 0.0
C209 C 0.29328 0.49129 0.51712 0.0
C210 C 0.24661 0.50196 0.6029 0.0
C211 C 0.27404 0.5349 0.60977 0.0
C212 C 0.31042 0.54665 0.56928 0.0
C213 C 0.3196 0.52481 0.52373 0.0
C214 C 0.20733 0.48828 0.64457 0.0
C215 C 0.34038 0.58174 0.57438 0.0
H216 H 0.18046 0.65602 0.7188 0.0
H217 H 0.29938 0.53089 0.77928 0.0
H218 H 0.22013 0.64008 0.58842 0.0
H219 H 0.17139 0.61007 0.61391 0.0
H220 H 0.16738 0.67002 0.63311 0.0
H221 H 0.35366 0.46808 0.72977 0.0
H222 H 0.31733 0.45267 0.68896 0.0
H223 H 0.36238 0.4868 0.662 0.0
H224 H 0.23605 0.45471 0.55289 0.0
H225 H 0.34849 0.53306 0.4937 0.0
H226 H 0.17706 0.52333 0.65477 0.0
H227 H 0.22566 0.46942 0.67916 0.0
H228 H 0.18901 0.46243 0.63344 0.0
H229 H 0.31381 0.61906 0.58367 0.0
H230 H 0.3663 0.58828 0.53917 0.0
H231 H 0.36364 0.5653 0.60614 0.0
C232 C 0.76819 0.02657 0.07572 0.0
C233 C 0.71895 0.03636 0.1025 0.0
C234 C 0.77746 0.0558 0.02912 0.0
C235 C 0.73621 0.09505 1.00936 0.0
C236 C 0.68841 0.10953 0.04002 0.0
C237 C 0.68045 0.07997 0.08665 0.0
C238 C 0.82947 0.04014 0.99817 0.0
C239 C 0.64353 0.15137 0.02076 0.0
C240 C 0.76445 0.17016 0.88186 0.0
C241 C 0.7574 0.14053 0.8482 0.0
C242 C 0.75636 0.15684 0.93459 0.0
C243 C 0.74019 0.11328 0.95409 0.0
C244 C 0.73003 0.08498 0.92043 0.0
C245 C 0.73912 0.09877 0.86782 0.0
C246 C 0.7679 0.1877 0.96914 0.0
C247 C 0.71152 0.03883 0.93993 0.0
H248 H 0.79765 0.9923 0.08778 0.0
H249 H 0.64214 0.08692 0.10729 0.0
H250 H 0.82796 0.01779 0.96861 0.0
H251 H 0.84091 0.07407 0.97858 0.0
H252 H 0.85928 0.01617 0.0221 0.0
H253 H 0.61326 0.16493 0.05233 0.0
H254 H 0.65567 0.18421 0.99921 0.0
H255 H 0.62669 0.13653 0.99461 0.0
H256 H 0.77876 0.2025 0.86708 0.0
H257 H 0.73347 0.07586 0.84207 0.0
H258 H 0.80384 0.16556 0.98512 0.0
H259 H 0.73708 0.19561 1.00155 0.0
H260 H 0.77267 0.22449 0.94872 0.0
H261 H 0.74151 0.00849 0.95923 0.0
H262 H 0.70214 0.02318 0.909 0.0
H263 H 0.67696 0.04873 0.96832 0.0
C264 C 0.9819 0.13699 0.57506 0.0
C265 C 0.93432 0.17276 0.56794 0.0
C266 C 0.02791 0.14918 0.55649 0.0
C267 C 0.02632 0.19772 0.52858 0.0
C268 C 0.9785 0.23165 0.51664 0.0
C269 C 0.93313 0.21918 0.53725 0.0
C270 C 0.07752 0.11205 0.57135 0.0
C271 C 0.9748 0.28294 0.48541 0.0
C272 C 0.12518 0.2642 0.53648 0.0
C273 C 0.15838 0.25566 0.49094 0.0
C274 C 0.08349 0.24392 0.54991 0.0
C275 C 0.07334 0.2154 0.51651 0.0
C276 C 0.10683 0.20597 0.47091 0.0
C277 C 0.14918 0.22533 0.45917 0.0
C278 C 0.04957 0.25399 0.59959 0.0
C279 C 0.09714 0.17654 0.43378 0.0
H280 H 0.98303 0.10151 0.59957 0.0
H281 H 0.89645 0.24729 0.53226 0.0
H282 H 0.10887 0.11011 0.53932 0.0
H283 H 0.08865 0.1252 0.60291 0.0
H284 H 0.07391 0.07313 0.58435 0.0
H285 H 0.93642 0.30118 0.47281 0.0
H286 H 0.98208 0.30859 0.50837 0.0
H287 H 0.00415 0.27913 0.45144 0.0
H288 H 0.13073 0.28792 0.56135 0.0
H289 H 0.17489 0.21678 0.42461 0.0
H290 H 0.04504 0.21771 0.62149 0.0
H291 H 0.0109 0.27885 0.59209 0.0
H292 H 0.06504 0.2728 0.62341 0.0
H293 H 0.09545 0.13833 0.45273 0.0
H294 H 0.12711 0.17168 0.40029 0.0
H295 H 0.05948 0.19674 0.42032 0.0
C296 C 0.12511 0.84089 0.81889 0.0
C297 C 0.1011 0.80446 0.81488 0.0
C298 C 0.1013 0.89338 0.80793 0.0
C299 C 0.05253 0.91046 0.79129 0.0
C300 C 0.02883 0.87403 0.78503 0.0
C301 C 0.05312 0.82149 0.79743 0.0
C302 C 0.12766 0.93062 0.81594 0.0
C303 C 0.97728 0.89065 0.76619 0.0
C304 C 0.95917 0.04215 0.80719 0.0
C305 C 0.96339 0.06746 0.75761 0.0
C306 C 0.99035 0.99206 0.81964 0.0
C307 C 0.02587 0.96639 0.78125 0.0
C308 C 0.03335 0.99352 0.73231 0.0
C309 C 1.00233 0.04386 0.72132 0.0
C310 C 0.98211 0.96524 0.87277 0.0
C311 C 0.07037 0.9679 0.69002 0.0
H312 H 0.16207 0.82855 0.83258 0.0
H313 H 0.03414 0.79389 0.79434 0.0
H314 H 0.13154 0.95711 0.78062 0.0
H315 H 0.1041 0.95406 0.84575 0.0
H316 H 0.16628 0.91122 0.8276 0.0
H317 H 0.96538 0.85782 0.76039 0.0
H318 H 0.94787 0.91254 0.79395 0.0
H319 H 0.97819 0.9163 0.72976 0.0
H320 H 0.92807 0.05956 0.83494 0.0
H321 H 0.0047 0.0627 0.68261 0.0
H322 H 0.01932 0.94482 0.88705 0.0
H323 H 0.96245 0.93639 0.87237 0.0
H324 H 0.95841 0.99216 0.89966 0.0
H325 H 0.10792 0.9465 0.70306 0.0
H326 H 0.0764 0.9957 0.65633 0.0
H327 H 0.0551 0.94004 0.67818 0.0
C328 C 0.39461 0.79717 0.86566 0.0
C329 C 0.36986 0.77429 0.90924 0.0
C330 C 0.42704 0.8257 0.86936 0.0
C331 C 0.43827 0.82854 0.91765 0.0
C332 C 0.41507 0.80431 0.96169 0.0
C333 C 0.37989 0.77934 0.95706 0.0
C334 C 0.4492 0.85194 0.82099 0.0
C335 C 0.42799 0.80385 0.01397 0.0
C336 C 0.56247 0.8476 0.93515 0.0
C337 C 0.54433 0.89139 0.96001 0.0
C338 C 0.52865 0.82783 0.91834 0.0
C339 C 0.47585 0.85453 0.9231 0.0
C340 C 0.4586 0.90301 0.94012 0.0
C341 C 0.49273 0.92033 0.95973 0.0
C342 C 0.54898 0.77645 0.89938 0.0
C343 C 0.40344 0.93508 0.94069 0.0
H344 H 0.38924 0.79302 0.8281 0.0
H345 H 0.3604 0.76394 0.99147 0.0
H346 H 0.46431 0.88225 0.82768 0.0
H347 H 0.4806 0.82325 0.80118 0.0
H348 H 0.41965 0.86918 0.79491 0.0
H349 H 0.41163 0.77796 0.04335 0.0
H350 H 0.47012 0.79158 0.01384 0.0
H351 H 0.41288 0.84277 0.02513 0.0
H352 H 0.60277 0.82652 0.93218 0.0
H353 H 0.47791 0.95475 0.97775 0.0
H354 H 0.54174 0.78034 0.85956 0.0
H355 H 0.52882 0.74978 0.92252 0.0
H356 H 0.59073 0.7593 0.90086 0.0
H357 H 0.38826 0.93277 0.90606 0.0
H358 H 0.39892 0.97567 0.94301 0.0
H359 H 0.37989 0.92079 0.9741 0.0
C360 C 0.4769 0.26577 0.28195 0.0
C361 C 0.42487 0.281 0.30119 0.0
C362 C 0.49873 0.2198 0.26044 0.0
C363 C 0.46764 0.18881 0.25765 0.0
C364 C 0.41445 0.20612 0.27373 0.0
C365 C 0.39388 0.25167 0.29546 0.0
C366 C 0.55561 0.20282 0.24365 0.0
C367 C 0.3796 0.17502 0.2709 0.0
C368 C 0.52263 0.07596 0.18089 0.0
C369 C 0.5404 0.0356 0.21876 0.0
C370 C 0.49817 0.12596 0.19283 0.0
C371 C 0.49126 0.13584 0.24382 0.0
C372 C 0.50695 0.09473 0.28237 0.0
C373 C 0.53118 0.04535 0.26941 0.0
C374 C 0.4818 0.16852 0.1506 0.0
C375 C 0.49995 0.10316 0.33731 0.0
H376 H 0.50106 0.28812 0.2864 0.0
H377 H 0.35344 0.2635 0.30971 0.0
H378 H 0.57403 0.16934 0.27006 0.0
H379 H 0.56361 0.19078 0.20525 0.0
H380 H 0.57348 0.23338 0.24299 0.0
H381 H 0.33853 0.19655 0.27904 0.0
H382 H 0.38639 0.16263 0.23275 0.0
H383 H 0.38801 0.14014 0.29895 0.0
H384 H 0.53038 0.0691 0.14154 0.0
H385 H 0.54495 0.01454 0.29892 0.0
H386 H 0.50601 0.19436 0.14545 0.0
H387 H 0.44161 0.19155 0.16044 0.0
H388 H 0.48523 0.15405 0.11394 0.0
H389 H 0.5215 0.1293 0.34137 0.0
H390 H 0.51336 0.06705 0.36284 0.0
H391 H 0.459 0.12149 0.35013 0.0
C392 C 0.66824 0.19482 0.6148 0.0
C393 C 0.68737 0.22846 0.63318 0.0
C394 C 0.62243 0.2118 0.59296 0.0
C395 C 0.59415 0.26405 0.58909 0.0
C396 C 0.61224 0.29819 0.60883 0.0
C397 C 0.65859 0.28007 0.63056 0.0
C398 C 0.60538 0.17386 0.57218 0.0
C399 C 0.58329 0.35418 0.60569 0.0
C400 C 0.51707 0.31451 0.47738 0.0
C401 C 0.46669 0.31719 0.49968 0.0
C402 C 0.5582 0.29779 0.50607 0.0
C403 C 0.54941 0.28329 0.55907 0.0
C404 C 0.49877 0.28499 0.58203 0.0
C405 C 0.45797 0.3017 0.55203 0.0
C406 C 0.61129 0.29586 0.47939 0.0
C407 C 0.48763 0.26998 0.63839 0.0
H408 H 0.68954 0.15472 0.61676 0.0
H409 H 0.67252 0.30641 0.64491 0.0
H410 H 0.56489 0.17665 0.58719 0.0
H411 H 0.60773 0.18264 0.53022 0.0
H412 H 0.6292 0.13398 0.5818 0.0
H413 H 0.5993 0.37491 0.62699 0.0
H414 H 0.58477 0.37163 0.56537 0.0
H415 H 0.5424 0.35945 0.6209 0.0
H416 H 0.52447 0.32613 0.43693 0.0
H417 H 0.41922 0.30425 0.56976 0.0
H418 H 0.63715 0.25634 0.48483 0.0
H419 H 0.62722 0.32022 0.49606 0.0
H420 H 0.61167 0.30884 0.43798 0.0
H421 H 0.51063 0.23012 0.64926 0.0
H422 H 0.4465 0.27327 0.65061 0.0
H423 H 0.49896 0.2946 0.6594 0.0
C424 C 0.9254 0.57368 0.83402 0.0
C425 C 0.96717 0.54893 0.86095 0.0
C426 C 0.89846 0.54575 0.81775 0.0
C427 C 0.91463 0.4919 0.82773 0.0
C428 C 0.95525 0.46699 0.85705 0.0
C429 C 0.98078 0.49592 0.87367 0.0
C430 C 0.85447 0.57366 0.78775 0.0
C431 C 0.97404 0.40957 0.86799 0.0
C432 C 0.83902 0.40619 0.80934 0.0
C433 C 0.86359 0.38999 0.76245 0.0
C434 C 0.85302 0.44191 0.82985 0.0
C435 C 0.89313 0.46105 0.80327 0.0
C436 C 0.91623 0.44685 0.75482 0.0
C437 C 0.90076 0.41196 0.73477 0.0
C438 C 0.82673 0.45711 0.88109 0.0
C439 C 0.95933 0.46628 0.72531 0.0
H440 H 0.91472 0.61479 0.82452 0.0
H441 H 0.01346 0.47676 0.89402 0.0
H442 H 0.86629 0.56765 0.7473 0.0
H443 H 0.82143 0.55852 0.80175 0.0
H444 H 0.84186 0.6153 0.78988 0.0
H445 H 0.0037 0.39638 0.89416 0.0
H446 H 0.94178 0.39414 0.885 0.0
H447 H 0.99061 0.39326 0.83191 0.0
H448 H 0.81047 0.38926 0.83122 0.0
H449 H 0.91899 0.40067 0.69794 0.0
H450 H 0.81662 0.49899 0.8805 0.0
H451 H 0.85313 0.43904 0.91004 0.0
H452 H 0.79143 0.44519 0.89307 0.0
H453 H 0.94765 0.50852 0.72069 0.0
H454 H 0.97141 0.45355 0.68708 0.0
H455 H 0.99288 0.45238 0.74664 0.0
C456 C 0.05111 0.69582 0.05327 0.0
C457 C 0.0746 0.72695 0.0172 0.0
C458 C 1.00146 0.71544 0.07762 0.0
C459 C 0.97502 0.76768 0.06599 0.0
C460 C 1.00075 0.80036 0.03369 0.0
C461 C 0.05039 0.77944 1.00934 0.0
C462 C 0.97566 0.67914 0.11166 0.0
C463 C 0.97433 0.85654 0.02134 0.0
C464 C 0.82965 0.80604 0.07325 0.0
C465 C 0.81415 0.82365 0.12073 0.0
C466 C 0.882 0.78723 0.05514 0.0
C467 C 0.91952 0.7871 0.08477 0.0
C468 C 0.90402 0.80453 0.13274 0.0
C469 C 0.85176 0.82195 0.15033 0.0
C470 C 0.89722 0.76786 1.00412 0.0
C471 C 0.94265 0.80581 0.16511 0.0
H472 H 0.06952 0.65499 0.05835 0.0
H473 H 0.06798 0.80323 0.98038 0.0
H474 H 0.95612 0.69479 0.1474 0.0
H475 H 0.94602 0.67402 0.09213 0.0
H476 H 0.0032 0.64115 0.1213 0.0
H477 H 1.00163 0.87771 1.00183 0.0
H478 H 0.94506 0.86191 0.99608 0.0
H479 H 0.9543 0.8734 0.05639 0.0
H480 H 0.80097 0.80743 0.05009 0.0
H481 H 0.84046 0.83581 0.18698 0.0
H482 H 0.92252 0.72799 1.00831 0.0
H483 H 0.91924 0.79113 0.97797 0.0
H484 H 0.86357 0.76911 0.98645 0.0
H485 H 0.96889 0.76696 0.17376 0.0
H486 H 0.92426 0.82088 0.2015 0.0
H487 H 0.96641 0.83003 0.14396 0.0
C488 C 0.56672 0.78324 0.20722 0.0
C489 C 0.6047 0.78954 0.23134 0.0
C490 C 0.54769 0.74126 0.22265 0.0
C491 C 0.56772 0.704 0.26267 0.0
C492 C 0.60614 0.71004 0.2872 0.0
C493 C 0.62384 0.75304 0.27156 0.0
C494 C 0.50599 0.7369 0.19615 0.0
C495 C 0.62896 0.67075 0.32952 0.0
C496 C 0.48574 0.62041 0.33197 0.0
C497 C 0.50602 0.57664 0.30739 0.0
C498 C 0.50574 0.66188 0.31811 0.0
C499 C 0.54764 0.65927 0.27919 0.0
C500 C 0.5688 0.61482 0.2547 0.0
C501 C 0.54735 0.5742 0.26873 0.0
C502 C 0.4813 0.70893 0.34439 0.0
C503 C 0.61394 0.61029 0.21355 0.0
H504 H 0.55158 0.81139 0.17621 0.0
H505 H 0.65349 0.75749 0.29005 0.0
H506 H 0.51939 0.70126 0.17833 0.0
H507 H 0.47206 0.73484 0.2242 0.0
H508 H 0.49395 0.7696 0.16628 0.0
H509 H 0.65916 0.68055 0.34407 0.0
H510 H 0.59862 0.66706 0.36145 0.0
H511 H 0.64577 0.63294 0.31585 0.0
H512 H 0.45335 0.62263 0.36147 0.0
H513 H 0.56327 0.54026 0.24993 0.0
H514 H 0.46614 0.74216 0.31618 0.0
H515 H 0.51025 0.71771 0.36185 0.0
H516 H 0.44946 0.70455 0.37443 0.0
H517 H 0.60331 0.63979 0.18068 0.0
H518 H 0.62757 0.57224 0.20014 0.0
H519 H 0.64601 0.61712 0.22774 0.0
loop_
_geom_bond_atom_site_label_1
_geom_bond_atom_site_label_2
_geom_bond_distance
_geom_bond_site_symmetry_2
_ccdc_geom_bond_type
C0 O16 1.251 . S
C0 O18 1.254 . S
N1 C2 1.333 . S
N1 C6 1.307 . S
N1 Zn7 2.020 . S
C2 N1 1.333 . S
C2 C3 1.379 . S
C2 H20 0.952 . S
C3 C2 1.379 . S
C3 C4 1.390 . S
C3 H30 0.949 . S
C4 C3 1.390 . S
C4 C5 1.357 . S
C5 C4 1.357 . S
C5 C6 1.370 . S
C5 H31 0.950 . S
C6 N1 1.307 . S
C6 C5 1.370 . S
C6 H24 0.948 . S
Zn7 N1 2.020 . S
Zn7 O16 2.039 . S
Zn7 O22 2.034 . S
Zn7 O26 2.025 . S
Zn7 O28 2.024 . S
C8 O27 1.246 . S
C8 O28 1.249 . S
N9 C10 1.307 . S
N9 C11 1.333 . S
N9 Zn15 2.020 . S
C10 N9 1.307 . S
C10 C14 1.370 . S
C10 H21 0.948 . S
C11 N9 1.333 . S
C11 C12 1.379 . S
C11 H19 0.952 . S
C12 C11 1.379 . S
C12 C13 1.390 . S
C12 H32 0.949 . S
C13 C12 1.390 . S
C13 C14 1.357 . S
C14 C10 1.370 . S
C14 C13 1.357 . S
C14 H33 0.950 . S
Zn15 N9 2.020 . S
Zn15 O18 2.025 . S
Zn15 O23 2.024 . S
Zn15 O25 2.039 . S
Zn15 O27 2.034 . S
O16 C0 1.251 . S
O16 Zn7 2.039 . S
C17 O22 1.246 . S
C17 O23 1.249 . S
O18 C0 1.254 . S
O18 Zn15 2.025 . S
H19 C11 0.952 . S
H20 C2 0.952 . S
H21 C10 0.948 . S
O22 Zn7 2.034 . S
O22 C17 1.246 . S
O23 Zn15 2.024 . S
O23 C17 1.249 . S
H24 C6 0.948 . S
O25 Zn15 2.039 . S
O25 C29 1.251 . S
O26 Zn7 2.025 . S
O26 C29 1.254 . S
O27 C8 1.246 . S
O27 Zn15 2.034 . S
O28 Zn7 2.024 . S
O28 C8 1.249 . S
C29 O25 1.251 . S
C29 O26 1.254 . S
H30 C3 0.949 . S
H31 C5 0.950 . S
H32 C12 0.949 . S
H33 C14 0.950 . S
C34 O50 1.251 . S
C34 O52 1.254 . S
N35 C36 1.333 . S
N35 C40 1.307 . S
N35 Zn41 2.020 . S
C36 N35 1.333 . S
C36 C37 1.379 . S
C36 H54 0.952 . S
C37 C36 1.379 . S
C37 C38 1.374 1_545 S
C37 H64 0.949 . S
C38 C37 1.374 1_565 S
C38 C39 1.354 . S
C39 C38 1.354 . S
C39 C40 1.370 1_565 S
C39 H65 0.950 . S
C40 N35 1.307 . S
C40 C39 1.370 1_545 S
C40 H58 0.948 . S
Zn41 N35 2.020 . S
Zn41 O50 2.039 . S
Zn41 O56 2.034 . S
Zn41 O60 2.025 . S
Zn41 O62 2.024 . S
C42 O61 1.246 . S
C42 O62 1.249 . S
N43 C44 1.307 . S
N43 C45 1.333 . S
N43 Zn49 2.020 . S
C44 N43 1.307 . S
C44 C48 1.370 . S
C44 H55 0.948 . S
C45 N43 1.333 . S
C45 C46 1.379 . S
C45 H53 0.952 . S
C46 C45 1.379 . S
C46 C47 1.390 . S
C46 H66 0.949 . S
C47 C46 1.390 . S
C47 C48 1.357 . S
C48 C44 1.370 . S
C48 C47 1.357 . S
C48 H67 0.950 . S
Zn49 N43 2.020 . S
Zn49 O52 2.025 . S
Zn49 O57 2.024 . S
Zn49 O59 2.039 . S
Zn49 O61 2.034 . S
O50 C34 1.251 . S
O50 Zn41 2.039 . S
C51 O56 1.246 . S
C51 O57 1.249 . S
O52 C34 1.254 . S
O52 Zn49 2.025 . S
H53 C45 0.952 . S
H54 C36 0.952 . S
H55 C44 0.948 . S
O56 Zn41 2.034 . S
O56 C51 1.246 . S
O57 Zn49 2.024 . S
O57 C51 1.249 . S
H58 C40 0.948 . S
O59 Zn49 2.039 . S
O59 C63 1.251 . S
O60 Zn41 2.025 . S
O60 C63 1.254 . S
O61 C42 1.246 . S
O61 Zn49 2.034 . S
O62 Zn41 2.024 . S
O62 C42 1.249 . S
C63 O59 1.251 . S
C63 O60 1.254 . S
H64 C37 0.949 . S
H65 C39 0.950 . S
H66 C46 0.949 . S
H67 C48 0.950 . S
C68 O84 1.251 . S
C68 O86 1.254 . S
N69 C70 1.333 . S
N69 C74 1.307 . S
N69 Zn75 2.020 . S
C70 N69 1.333 . S
C70 C71 1.379 . S
C70 H88 0.952 . S
C71 C70 1.379 . S
C71 C72 1.390 . S
C71 H98 0.949 1_556 S
C72 C71 1.390 . S
C72 C73 1.357 . S
C73 C72 1.357 . S
C73 C74 1.370 . S
C73 H99 0.950 . S
C74 N69 1.307 . S
C74 C73 1.370 . S
C74 H92 0.948 . S
Zn75 N69 2.020 . S
Zn75 O84 2.039 . S
Zn75 O90 2.034 . S
Zn75 O94 2.025 . S
Zn75 O96 2.024 . S
C76 O95 1.246 . S
C76 O96 1.249 . S
N77 C78 1.307 . S
N77 C79 1.333 . S
N77 Zn83 2.020 . S
C78 N77 1.307 . S
C78 C82 1.384 . S
C78 H89 0.948 . S
C79 N77 1.333 . S
C79 C80 1.379 . S
C79 H87 0.952 . S
C80 C79 1.379 . S
C80 C81 1.390 1_455 S
C80 H100 0.949 1_455 S
C81 C80 1.390 1_655 S
C81 C82 1.350 1_655 S
C82 C78 1.384 . S
C82 C81 1.350 1_455 S
C82 H101 0.943 1_455 S
Zn83 N77 2.020 . S
Zn83 O86 2.025 . S
Zn83 O91 2.024 . S
Zn83 O93 2.039 . S
Zn83 O95 2.034 . S
O84 C68 1.251 . S
O84 Zn75 2.039 . S
C85 O90 1.246 . S
C85 O91 1.249 . S
O86 C68 1.254 . S
O86 Zn83 2.025 . S
H87 C79 0.952 . S
H88 C70 0.952 . S
H89 C78 0.948 . S
O90 Zn75 2.034 . S
O90 C85 1.246 . S
O91 Zn83 2.024 . S
O91 C85 1.249 . S
H92 C74 0.948 . S
O93 Zn83 2.039 . S
O93 C97 1.251 . S
O94 Zn75 2.025 . S
O94 C97 1.254 . S
O95 C76 1.246 . S
O95 Zn83 2.034 . S
O96 Zn75 2.024 . S
O96 C76 1.249 . S
C97 O93 1.251 . S
C97 O94 1.254 . S
H98 C71 0.949 1_554 S
H99 C73 0.950 . S
H100 C80 0.949 1_655 S
H101 C82 0.943 1_655 S
C102 O118 1.251 . S
C102 O120 1.254 . S
N103 C104 1.333 . S
N103 C108 1.307 . S
N103 Zn109 2.020 . S
C104 N103 1.333 . S
C104 C105 1.379 . S
C104 H122 0.952 1_565 S
C105 C104 1.379 . S
C105 C106 1.390 . S
C105 H132 0.949 1_565 S
C106 C105 1.390 . S
C106 C107 1.357 . S
C107 C106 1.357 . S
C107 C108 1.370 . S
C107 H133 0.950 . S
C108 N103 1.307 . S
C108 C107 1.370 . S
C108 H126 0.948 . S
Zn109 N103 2.020 . S
Zn109 O118 2.039 . S
Zn109 O124 2.034 . S
Zn109 O128 2.025 . S
Zn109 O130 2.024 . S
C110 O129 1.246 . S
C110 O130 1.249 . S
N111 C112 1.307 . S
N111 C113 1.333 . S
N111 Zn117 2.020 . S
C112 N111 1.307 . S
C112 C116 1.370 1_554 S
C112 H123 0.948 . S
C113 N111 1.333 . S
C113 C114 1.379 . S
C113 H121 0.952 . S
C114 C113 1.379 . S
C114 C115 1.390 1_554 S
C114 H134 0.949 1_554 S
C115 C114 1.390 1_556 S
C115 C116 1.357 . S
C116 C112 1.370 1_556 S
C116 C115 1.357 . S
C116 H135 0.950 . S
Zn117 N111 2.020 . S
Zn117 O120 2.025 . S
Zn117 O125 2.024 . S
Zn117 O127 2.039 . S
Zn117 O129 2.034 . S
O118 C102 1.251 . S
O118 Zn109 2.039 . S
C119 O124 1.246 . S
C119 O125 1.249 . S
O120 C102 1.254 . S
O120 Zn117 2.025 . S
H121 C113 0.952 . S
H122 C104 0.952 1_545 S
H123 C112 0.948 . S
O124 Zn109 2.034 . S
O124 C119 1.246 . S
O125 Zn117 2.024 . S
O125 C119 1.249 . S
H126 C108 0.948 . S
O127 Zn117 2.039 . S
O127 C131 1.251 . S
O128 Zn109 2.025 . S
O128 C131 1.254 . S
O129 C110 1.246 . S
O129 Zn117 2.034 . S
O130 Zn109 2.024 . S
O130 C110 1.249 . S
C131 O127 1.251 . S
C131 O128 1.254 . S
H132 C105 0.949 1_545 S
H133 C107 0.950 . S
H134 C114 0.949 1_556 S
H135 C116 0.950 . S
C136 C137 1.391 . S
C136 C138 1.394 . S
C136 H152 0.931 . S
C137 C136 1.391 . S
C137 C141 1.376 . S
C138 C136 1.394 . S
C138 C139 1.369 . S
C138 C142 1.531 . S
C139 C138 1.369 . S
C139 C140 1.410 . S
C139 C147 1.503 . S
C140 C139 1.410 . S
C140 C141 1.392 . S
C140 C143 1.511 . S
C141 C137 1.376 . S
C141 C140 1.392 . S
C141 H153 0.929 . S
C142 C138 1.531 . S
C142 H154 0.960 . S
C142 H155 0.962 . S
C142 H156 0.960 . S
C143 C140 1.511 . S
C143 H157 0.961 . S
C143 H158 0.961 . S
C143 H159 0.961 . S
C144 C145 1.370 . S
C144 C146 1.363 . S
C144 H160 0.931 . S
C145 C144 1.370 . S
C145 C149 1.408 . S
C146 C144 1.363 . S
C146 C147 1.370 . S
C146 C150 1.524 . S
C147 C139 1.503 . S
C147 C146 1.370 . S
C147 C148 1.403 . S
C148 C147 1.403 . S
C148 C149 1.404 . S
C148 C151 1.539 . S
C149 C145 1.408 . S
C149 C148 1.404 . S
C149 H161 0.930 . S
C150 C146 1.524 . S
C150 H162 0.956 . S
C150 H163 0.961 . S
C150 H164 0.961 . S
C151 C148 1.539 . S
C151 H165 0.958 . S
C151 H166 0.961 . S
C151 H167 0.960 . S
H152 C136 0.931 . S
H153 C141 0.929 . S
H154 C142 0.960 . S
H155 C142 0.962 . S
H156 C142 0.960 . S
H157 C143 0.961 . S
H158 C143 0.961 . S
H159 C143 0.961 . S
H160 C144 0.931 . S
H161 C149 0.930 . S
H162 C150 0.956 . S
H163 C150 0.961 . S
H164 C150 0.961 . S
H165 C151 0.958 . S
H166 C151 0.961 . S
H167 C151 0.960 . S
C168 C169 1.391 1_545 S
C168 C170 1.394 . S
C168 H184 0.931 . S
C169 C168 1.391 1_565 S
C169 C173 1.376 . S
C170 C168 1.394 . S
C170 C171 1.369 1_545 S
C170 C174 1.531 . S
C171 C170 1.369 1_565 S
C171 C172 1.410 . S
C171 C179 1.503 . S
C172 C171 1.410 . S
C172 C173 1.392 . S
C172 C175 1.511 . S
C173 C169 1.376 . S
C173 C172 1.392 . S
C173 H185 0.929 . S
C174 C170 1.531 . S
C174 H186 0.960 . S
C174 H187 0.962 . S
C174 H188 0.960 . S
C175 C172 1.511 . S
C175 H189 0.961 . S
C175 H190 0.961 . S
C175 H191 0.961 . S
C176 C177 1.370 . S
C176 C178 1.363 . S
C176 H192 0.931 . S
C177 C176 1.370 . S
C177 C181 1.408 1_565 S
C178 C176 1.363 . S
C178 C179 1.370 . S
C178 C182 1.524 . S
C179 C171 1.503 . S
C179 C178 1.370 . S
C179 C180 1.403 1_565 S
C180 C179 1.403 1_545 S
C180 C181 1.404 . S
C180 C183 1.539 . S
C181 C177 1.408 1_545 S
C181 C180 1.404 . S
C181 H193 0.930 . S
C182 C178 1.524 . S
C182 H194 0.956 . S
C182 H195 0.961 . S
C182 H196 0.961 . S
C183 C180 1.539 . S
C183 H197 0.958 . S
C183 H198 0.961 . S
C183 H199 0.960 . S
H184 C168 0.931 . S
H185 C173 0.929 . S
H186 C174 0.960 . S
H187 C174 0.962 . S
H188 C174 0.960 . S
H189 C175 0.961 . S
H190 C175 0.961 . S
H191 C175 0.961 . S
H192 C176 0.931 . S
H193 C181 0.930 . S
H194 C182 0.956 . S
H195 C182 0.961 . S
H196 C182 0.961 . S
H197 C183 0.958 . S
H198 C183 0.961 . S
H199 C183 0.960 . S
C200 C201 1.391 . S
C200 C202 1.394 . S
C200 H216 0.931 . S
C201 C200 1.391 . S
C201 C205 1.376 . S
C202 C200 1.394 . S
C202 C203 1.369 . S
C202 C206 1.531 . S
C203 C202 1.369 . S
C203 C204 1.410 . S
C203 C211 1.503 . S
C204 C203 1.410 . S
C204 C205 1.392 . S
C204 C207 1.511 . S
C205 C201 1.376 . S
C205 C204 1.392 . S
C205 H217 0.929 . S
C206 C202 1.531 . S
C206 H218 0.960 . S
C206 H219 0.962 . S
C206 H220 0.960 . S
C207 C204 1.511 . S
C207 H221 0.961 . S
C207 H222 0.961 . S
C207 H223 0.961 . S
C208 C209 1.370 . S
C208 C210 1.363 . S
C208 H224 0.931 . S
C209 C208 1.370 . S
C209 C213 1.408 . S
C210 C208 1.363 . S
C210 C211 1.370 . S
C210 C214 1.524 . S
C211 C203 1.503 . S
C211 C210 1.370 . S
C211 C212 1.403 . S
C212 C211 1.403 . S
C212 C213 1.404 . S
C212 C215 1.539 . S
C213 C209 1.408 . S
C213 C212 1.404 . S
C213 H225 0.930 . S
C214 C210 1.524 . S
C214 H226 0.956 . S
C214 H227 0.961 . S
C214 H228 0.961 . S
C215 C212 1.539 . S
C215 H229 0.958 . S
C215 H230 0.961 . S
C215 H231 0.960 . S
H216 C200 0.931 . S
H217 C205 0.929 . S
H218 C206 0.960 . S
H219 C206 0.962 . S
H220 C206 0.960 . S
H221 C207 0.961 . S
H222 C207 0.961 . S
H223 C207 0.961 . S
H224 C208 0.931 . S
H225 C213 0.930 . S
H226 C214 0.956 . S
H227 C214 0.961 . S
H228 C214 0.961 . S
H229 C215 0.958 . S
H230 C215 0.961 . S
H231 C215 0.960 . S
C232 C233 1.397 . S
C232 C234 1.394 1_554 S
C232 H248 0.931 . S
C233 C232 1.397 . S
C233 C237 1.368 1_565 S
C234 C232 1.394 1_556 S
C234 C235 1.369 1_565 S
C234 C238 1.531 . S
C235 C234 1.369 1_545 S
C235 C236 1.410 . S
C235 C243 1.503 . S
C236 C235 1.410 . S
C236 C237 1.392 1_556 S
C236 C239 1.511 . S
C237 C233 1.368 1_545 S
C237 C236 1.392 1_554 S
C237 H249 0.929 . S
C238 C234 1.531 . S
C238 H250 0.960 . S
C238 H251 0.962 . S
C238 H252 0.960 . S
C239 C236 1.511 . S
C239 H253 0.961 . S
C239 H254 0.961 . S
C239 H255 0.961 . S
C240 C241 1.370 . S
C240 C242 1.363 . S
C240 H256 0.931 . S
C241 C240 1.370 . S
C241 C245 1.408 . S
C242 C240 1.363 . S
C242 C243 1.370 . S
C242 C246 1.524 . S
C243 C235 1.503 . S
C243 C242 1.370 . S
C243 C244 1.403 . S
C244 C243 1.403 . S
C244 C245 1.404 . S
C244 C247 1.539 . S
C245 C241 1.408 . S
C245 C244 1.404 . S
C245 H257 0.930 . S
C246 C242 1.524 . S
C246 H258 0.956 . S
C246 H259 0.961 . S
C246 H260 0.961 . S
C247 C244 1.539 . S
C247 H261 0.958 1_545 S
C247 H262 0.961 . S
C247 H263 0.960 . S
H248 C232 0.931 . S
H249 C237 0.929 . S
H250 C238 0.960 . S
H251 C238 0.962 . S
H252 C238 0.960 . S
H253 C239 0.961 . S
H254 C239 0.961 . S
H255 C239 0.961 . S
H256 C240 0.931 . S
H257 C245 0.930 . S
H258 C246 0.956 . S
H259 C246 0.961 . S
H260 C246 0.961 . S
H261 C247 0.958 1_565 S
H262 C247 0.961 . S
H263 C247 0.960 . S
C264 C265 1.391 1_455 S
C264 C266 1.394 . S
C264 H280 0.931 . S
C265 C264 1.391 1_655 S
C265 C269 1.376 . S
C266 C264 1.394 . S
C266 C267 1.369 . S
C266 C270 1.531 . S
C267 C266 1.369 . S
C267 C268 1.410 . S
C267 C275 1.503 . S
C268 C267 1.410 . S
C268 C269 1.392 1_455 S
C268 C271 1.511 . S
C269 C265 1.376 . S
C269 C268 1.392 1_655 S
C269 H281 0.929 . S
C270 C266 1.531 . S
C270 H282 0.960 . S
C270 H283 0.962 . S
C270 H284 0.960 . S
C271 C268 1.511 . S
C271 H285 0.961 1_455 S
C271 H286 0.961 . S
C271 H287 0.961 . S
C272 C273 1.370 . S
C272 C274 1.363 . S
C272 H288 0.931 . S
C273 C272 1.370 . S
C273 C277 1.408 . S
C274 C272 1.363 . S
C274 C275 1.370 . S
C274 C278 1.524 . S
C275 C267 1.503 . S
C275 C274 1.370 . S
C275 C276 1.403 . S
C276 C275 1.403 . S
C276 C277 1.404 . S
C276 C279 1.539 . S
C277 C273 1.408 . S
C277 C276 1.404 . S
C277 H289 0.930 . S
C278 C274 1.524 . S
C278 H290 0.956 . S
C278 H291 0.961 . S
C278 H292 0.961 . S
C279 C276 1.539 . S
C279 H293 0.958 . S
C279 H294 0.961 . S
C279 H295 0.960 . S
H280 C264 0.931 . S
H281 C269 0.929 . S
H282 C270 0.960 . S
H283 C270 0.962 . S
H284 C270 0.960 . S
H285 C271 0.961 1_655 S
H286 C271 0.961 . S
H287 C271 0.961 . S
H288 C272 0.931 . S
H289 C277 0.930 . S
H290 C278 0.956 . S
H291 C278 0.961 . S
H292 C278 0.961 . S
H293 C279 0.958 . S
H294 C279 0.961 . S
H295 C279 0.960 . S
C296 C297 1.391 . S
C296 C298 1.394 . S
C296 H312 0.931 . S
C297 C296 1.391 . S
C297 C301 1.376 . S
C298 C296 1.394 . S
C298 C299 1.369 . S
C298 C302 1.531 . S
C299 C298 1.369 . S
C299 C300 1.410 1_455 S
C299 C307 1.503 1_455 S
C300 C299 1.410 1_655 S
C300 C301 1.392 1_655 S
C300 C303 1.511 . S
C301 C297 1.376 . S
C301 C300 1.392 1_455 S
C301 H313 0.929 . S
C302 C298 1.531 . S
C302 H314 0.960 . S
C302 H315 0.962 . S
C302 H316 0.960 . S
C303 C300 1.511 . S
C303 H317 0.961 . S
C303 H318 0.961 . S
C303 H319 0.961 . S
C304 C305 1.370 . S
C304 C306 1.363 1_645 S
C304 H320 0.931 1_655 S
C305 C304 1.370 . S
C305 C309 1.408 1_545 S
C306 C304 1.363 1_465 S
C306 C307 1.370 1_455 S
C306 C310 1.524 . S
C307 C299 1.503 1_655 S
C307 C306 1.370 1_655 S
C307 C308 1.403 . S
C308 C307 1.403 . S
C308 C309 1.404 . S
C308 C311 1.539 . S
C309 C305 1.408 1_565 S
C309 C308 1.404 . S
C309 H321 0.930 1_565 S
C310 C306 1.524 . S
C310 H322 0.956 . S
C310 H323 0.961 . S
C310 H324 0.961 . S
C311 C308 1.539 . S
C311 H325 0.958 . S
C311 H326 0.961 . S
C311 H327 0.960 . S
H312 C296 0.931 . S
H313 C301 0.929 . S
H314 C302 0.960 . S
H315 C302 0.962 . S
H316 C302 0.960 . S
H317 C303 0.961 . S
H318 C303 0.961 . S
H319 C303 0.961 . S
H320 C304 0.931 1_455 S
H321 C309 0.930 1_545 S
H322 C310 0.956 . S
H323 C310 0.961 . S
H324 C310 0.961 . S
H325 C311 0.958 . S
H326 C311 0.961 . S
H327 C311 0.960 . S
C328 C329 1.391 . S
C328 C330 1.394 . S
C328 H344 0.931 . S
C329 C328 1.391 . S
C329 C333 1.376 1_556 S
C330 C328 1.394 . S
C330 C331 1.369 . S
C330 C334 1.531 . S
C331 C330 1.369 . S
C331 C332 1.410 1_556 S
C331 C339 1.503 . S
C332 C331 1.410 1_554 S
C332 C333 1.392 . S
C332 C335 1.511 . S
C333 C329 1.376 1_554 S
C333 C332 1.392 . S
C333 H345 0.929 . S
C334 C330 1.531 . S
C334 H346 0.960 . S
C334 H347 0.962 . S
C334 H348 0.960 . S
C335 C332 1.511 . S
C335 H349 0.961 . S
C335 H350 0.961 . S
C335 H351 0.961 . S
C336 C337 1.370 . S
C336 C338 1.363 . S
C336 H352 0.931 . S
C337 C336 1.370 . S
C337 C341 1.408 . S
C338 C336 1.363 . S
C338 C339 1.370 . S
C338 C342 1.524 . S
C339 C331 1.503 . S
C339 C338 1.370 . S
C339 C340 1.403 . S
C340 C339 1.403 . S
C340 C341 1.404 . S
C340 C343 1.539 . S
C341 C337 1.408 . S
C341 C340 1.404 . S
C341 H353 0.930 . S
C342 C338 1.524 . S
C342 H354 0.956 . S
C342 H355 0.961 . S
C342 H356 0.961 . S
C343 C340 1.539 . S
C343 H357 0.958 . S
C343 H358 0.961 1_556 S
C343 H359 0.960 1_556 S
H344 C328 0.931 . S
H345 C333 0.929 . S
H346 C334 0.960 . S
H347 C334 0.962 . S
H348 C334 0.960 . S
H349 C335 0.961 . S
H350 C335 0.961 . S
H351 C335 0.961 . S
H352 C336 0.931 . S
H353 C341 0.930 . S
H354 C342 0.956 . S
H355 C342 0.961 . S
H356 C342 0.961 . S
H357 C343 0.958 . S
H358 C343 0.961 1_554 S
H359 C343 0.960 1_554 S
C360 C361 1.391 . S
C360 C362 1.394 . S
C360 H376 0.931 . S
C361 C360 1.391 . S
C361 C365 1.376 . S
C362 C360 1.394 . S
C362 C363 1.369 . S
C362 C366 1.531 . S
C363 C362 1.369 . S
C363 C364 1.410 . S
C363 C371 1.503 . S
C364 C363 1.410 . S
C364 C365 1.392 . S
C364 C367 1.511 . S
C365 C361 1.376 . S
C365 C364 1.392 . S
C365 H377 0.929 . S
C366 C362 1.531 . S
C366 H378 0.960 . S
C366 H379 0.962 . S
C366 H380 0.960 . S
C367 C364 1.511 . S
C367 H381 0.961 . S
C367 H382 0.961 . S
C367 H383 0.961 . S
C368 C369 1.370 . S
C368 C370 1.363 . S
C368 H384 0.931 . S
C369 C368 1.370 . S
C369 C373 1.408 . S
C370 C368 1.363 . S
C370 C371 1.370 . S
C370 C374 1.524 . S
C371 C363 1.503 . S
C371 C370 1.370 . S
C371 C372 1.403 . S
C372 C371 1.403 . S
C372 C373 1.404 . S
C372 C375 1.539 . S
C373 C369 1.408 . S
C373 C372 1.404 . S
C373 H385 0.930 . S
C374 C370 1.524 . S
C374 H386 0.956 . S
C374 H387 0.961 . S
C374 H388 0.961 . S
C375 C372 1.539 . S
C375 H389 0.958 . S
C375 H390 0.961 . S
C375 H391 0.960 . S
H376 C360 0.931 . S
H377 C365 0.929 . S
H378 C366 0.960 . S
H379 C366 0.962 . S
H380 C366 0.960 . S
H381 C367 0.961 . S
H382 C367 0.961 . S
H383 C367 0.961 . S
H384 C368 0.931 . S
H385 C373 0.930 . S
H386 C374 0.956 . S
H387 C374 0.961 . S
H388 C374 0.961 . S
H389 C375 0.958 . S
H390 C375 0.961 . S
H391 C375 0.960 . S
C392 C393 1.391 . S
C392 C394 1.394 . S
C392 H408 0.931 . S
C393 C392 1.391 . S
C393 C397 1.376 . S
C394 C392 1.394 . S
C394 C395 1.369 . S
C394 C398 1.531 . S
C395 C394 1.369 . S
C395 C396 1.410 . S
C395 C403 1.503 . S
C396 C395 1.410 . S
C396 C397 1.392 . S
C396 C399 1.511 . S
C397 C393 1.376 . S
C397 C396 1.392 . S
C397 H409 0.929 . S
C398 C394 1.531 . S
C398 H410 0.960 . S
C398 H411 0.962 . S
C398 H412 0.960 . S
C399 C396 1.511 . S
C399 H413 0.961 . S
C399 H414 0.961 . S
C399 H415 0.961 . S
C400 C401 1.370 . S
C400 C402 1.363 . S
C400 H416 0.931 . S
C401 C400 1.370 . S
C401 C405 1.408 . S
C402 C400 1.363 . S
C402 C403 1.370 . S
C402 C406 1.524 . S
C403 C395 1.503 . S
C403 C402 1.370 . S
C403 C404 1.403 . S
C404 C403 1.403 . S
C404 C405 1.404 . S
C404 C407 1.539 . S
C405 C401 1.408 . S
C405 C404 1.404 . S
C405 H417 0.930 . S
C406 C402 1.524 . S
C406 H418 0.956 . S
C406 H419 0.961 . S
C406 H420 0.961 . S
C407 C404 1.539 . S
C407 H421 0.958 . S
C407 H422 0.961 . S
C407 H423 0.960 . S
H408 C392 0.931 . S
H409 C397 0.929 . S
H410 C398 0.960 . S
H411 C398 0.962 . S
H412 C398 0.960 . S
H413 C399 0.961 . S
H414 C399 0.961 . S
H415 C399 0.961 . S
H416 C400 0.931 . S
H417 C405 0.930 . S
H418 C406 0.956 . S
H419 C406 0.961 . S
H420 C406 0.961 . S
H421 C407 0.958 . S
H422 C407 0.961 . S
H423 C407 0.960 . S
C424 C425 1.391 . S
C424 C426 1.394 . S
C424 H440 0.931 . S
C425 C424 1.391 . S
C425 C429 1.376 . S
C426 C424 1.394 . S
C426 C427 1.369 . S
C426 C430 1.531 . S
C427 C426 1.369 . S
C427 C428 1.410 . S
C427 C435 1.503 . S
C428 C427 1.410 . S
C428 C429 1.392 . S
C428 C431 1.511 . S
C429 C425 1.376 . S
C429 C428 1.392 . S
C429 H441 0.929 . S
C430 C426 1.531 . S
C430 H442 0.960 . S
C430 H443 0.962 . S
C430 H444 0.960 . S
C431 C428 1.511 . S
C431 H445 0.961 . S
C431 H446 0.961 . S
C431 H447 0.961 1_655 S
C432 C433 1.370 . S
C432 C434 1.363 . S
C432 H448 0.931 . S
C433 C432 1.370 . S
C433 C437 1.408 . S
C434 C432 1.363 . S
C434 C435 1.370 . S
C434 C438 1.524 . S
C435 C427 1.503 . S
C435 C434 1.370 . S
C435 C436 1.403 . S
C436 C435 1.403 . S
C436 C437 1.404 . S
C436 C439 1.539 1_655 S
C437 C433 1.408 . S
C437 C436 1.404 . S
C437 H449 0.930 . S
C438 C434 1.524 . S
C438 H450 0.956 . S
C438 H451 0.961 . S
C438 H452 0.961 . S
C439 C436 1.539 1_455 S
C439 H453 0.958 . S
C439 H454 0.961 . S
C439 H455 0.960 . S
H440 C424 0.931 . S
H441 C429 0.929 . S
H442 C430 0.960 . S
H443 C430 0.962 . S
H444 C430 0.960 . S
H445 C431 0.961 . S
H446 C431 0.961 . S
H447 C431 0.961 1_455 S
H448 C432 0.931 . S
H449 C437 0.930 . S
H450 C438 0.956 . S
H451 C438 0.961 . S
H452 C438 0.961 . S
H453 C439 0.958 . S
H454 C439 0.961 . S
H455 C439 0.960 . S
C456 C457 1.391 1_654 S
C456 C458 1.394 . S
C456 H472 0.931 . S
C457 C456 1.391 1_456 S
C457 C461 1.376 1_456 S
C458 C456 1.394 . S
C458 C459 1.369 . S
C458 C462 1.531 . S
C459 C458 1.369 . S
C459 C460 1.410 . S
C459 C467 1.503 . S
C460 C459 1.410 . S
C460 C461 1.392 . S
C460 C463 1.511 . S
C461 C457 1.376 1_654 S
C461 C460 1.392 . S
C461 H473 0.929 1_654 S
C462 C458 1.531 . S
C462 H474 0.960 . S
C462 H475 0.962 . S
C462 H476 0.960 . S
C463 C460 1.511 . S
C463 H477 0.961 . S
C463 H478 0.961 . S
C463 H479 0.961 . S
C464 C465 1.370 . S
C464 C466 1.363 . S
C464 H480 0.931 1_554 S
C465 C464 1.370 . S
C465 C469 1.408 . S
C466 C464 1.363 . S
C466 C467 1.370 . S
C466 C470 1.524 1_554 S
C467 C459 1.503 . S
C467 C466 1.370 . S
C467 C468 1.403 . S
C468 C467 1.403 . S
C468 C469 1.404 . S
C468 C471 1.539 . S
C469 C465 1.408 . S
C469 C468 1.404 . S
C469 H481 0.930 . S
C470 C466 1.524 1_556 S
C470 H482 0.956 . S
C470 H483 0.961 . S
C470 H484 0.961 . S
C471 C468 1.539 . S
C471 H485 0.958 . S
C471 H486 0.961 . S
C471 H487 0.960 . S
H472 C456 0.931 . S
H473 C461 0.929 1_456 S
H474 C462 0.960 . S
H475 C462 0.962 . S
H476 C462 0.960 . S
H477 C463 0.961 . S
H478 C463 0.961 . S
H479 C463 0.961 . S
H480 C464 0.931 1_556 S
H481 C469 0.930 . S
H482 C470 0.956 . S
H483 C470 0.961 . S
H484 C470 0.961 . S
H485 C471 0.958 . S
H486 C471 0.961 . S
H487 C471 0.960 . S
C488 C489 1.391 . S
C488 C490 1.394 . S
C488 H504 0.931 . S
C489 C488 1.391 . S
C489 C493 1.376 . S
C490 C488 1.394 . S
C490 C491 1.369 . S
C490 C494 1.531 . S
C491 C490 1.369 . S
C491 C492 1.410 . S
C491 C499 1.503 . S
C492 C491 1.410 . S
C492 C493 1.392 . S
C492 C495 1.511 . S
C493 C489 1.376 . S
C493 C492 1.392 . S
C493 H505 0.929 . S
C494 C490 1.531 . S
C494 H506 0.960 . S
C494 H507 0.962 . S
C494 H508 0.960 . S
C495 C492 1.511 . S
C495 H509 0.961 . S
C495 H510 0.961 . S
C495 H511 0.961 . S
C496 C497 1.370 . S
C496 C498 1.363 . S
C496 H512 0.931 . S
C497 C496 1.370 . S
C497 C501 1.408 . S
C498 C496 1.363 . S
C498 C499 1.370 . S
C498 C502 1.524 . S
C499 C491 1.503 . S
C499 C498 1.370 . S
C499 C500 1.403 . S
C500 C499 1.403 . S
C500 C501 1.404 . S
C500 C503 1.539 . S
C501 C497 1.408 . S
C501 C500 1.404 . S
C501 H513 0.930 . S
C502 C498 1.524 . S
C502 H514 0.956 . S
C502 H515 0.961 . S
C502 H516 0.961 . S
C503 C500 1.539 . S
C503 H517 0.958 . S
C503 H518 0.961 . S
C503 H519 0.960 . S
H504 C488 0.931 . S
H505 C493 0.929 . S
H506 C494 0.960 . S
H507 C494 0.962 . S
H508 C494 0.960 . S
H509 C495 0.961 . S
H510 C495 0.961 . S
H511 C495 0.961 . S
H512 C496 0.931 . S
H513 C501 0.930 . S
H514 C502 0.956 . S
H515 C502 0.961 . S
H516 C502 0.961 . S
H517 C503 0.958 . S
H518 C503 0.961 . S
H519 C503 0.960 . S
C137 C68 2.343 1_554 S
C145 C0 2.342 . S
C169 C106 0.769 . S
C177 C38 0.803 . S
C201 C76 2.262 . S
C209 C8 2.273 . S
C233 C119 0.862 . S
C241 C51 0.912 . S
C265 C42 1.639 . S
C273 C13 1.649 . S
C297 C97 1.120 . S
C305 C63 1.077 . S
C329 C72 1.020 . S
C337 C115 0.946 . S
C361 C17 2.017 . S
C369 C102 2.000 1_545 S
C393 C34 1.975 . S
C401 C29 2.052 . S
C425 C81 1.023 . S
C433 C47 1.021 . S
C457 C85 1.105 . S
C465 C131 1.070 . S
C489 C110 1.516 . S
C497 C4 1.604 . S
