# Generated by pormake.
# Topology acs-a, (4)-cn, num edge types: 1
# Building blocks:
#     Node 0, Type 0, BuildingBlock: KUFVIS_clean_sbu_0, # of connection points: 4
#     Node 1, Type 0, BuildingBlock: KUFVIS_clean_sbu_0, # of connection points: 4
#     Node 2, Type 0, BuildingBlock: KUFVIS_clean_sbu_0, # of connection points: 4
#     Node 3, Type 0, BuildingBlock: KUFVIS_clean_sbu_0, # of connection points: 4
#     Node 4, Type 0, BuildingBlock: KUFVIS_clean_sbu_0, # of connection points: 4
#     Node 5, Type 0, BuildingBlock: KUFVIS_clean_sbu_0, # of connection points: 4
#     Node 6, Type 0, BuildingBlock: KUFVIS_clean_sbu_0, # of connection points: 4
#     Node 7, Type 0, BuildingBlock: KUFVIS_clean_sbu_0, # of connection points: 4
#     Node 8, Type 0, BuildingBlock: KUFVIS_clean_sbu_0, # of connection points: 4
#     Node 9, Type 0, BuildingBlock: KUFVIS_clean_sbu_0, # of connection points: 4
#     Node 10, Type 0, BuildingBlock: KUFVIS_clean_sbu_0, # of connection points: 4
#     Node 11, Type 0, BuildingBlock: KUFVIS_clean_sbu_0, # of connection points: 4
#     Edge 12, Type (0, 0), BuildingBlock: XUDNAN_clean_linker_2, # of connection points: 2
#     Edge 13, Type (0, 0), BuildingBlock: XUDNAN_clean_linker_2, # of connection points: 2
#     Edge 14, Type (0, 0), BuildingBlock: XUDNAN_clean_linker_2, # of connection points: 2
#     Edge 15, Type (0, 0), BuildingBlock: XUDNAN_clean_linker_2, # of connection points: 2
#     Edge 16, Type (0, 0), BuildingBlock: XUDNAN_clean_linker_2, # of connection points: 2
#     Edge 17, Type (0, 0), BuildingBlock: XUDNAN_clean_linker_2, # of connection points: 2
#     Edge 18, Type (0, 0), BuildingBlock: XUDNAN_clean_linker_2, # of connection points: 2
#     Edge 19, Type (0, 0), BuildingBlock: XUDNAN_clean_linker_2, # of connection points: 2
#     Edge 20, Type (0, 0), BuildingBlock: XUDNAN_clean_linker_2, # of connection points: 2
#     Edge 21, Type (0, 0), BuildingBlock: XUDNAN_clean_linker_2, # of connection points: 2
#     Edge 22, Type (0, 0), BuildingBlock: XUDNAN_clean_linker_2, # of connection points: 2
#     Edge 23, Type (0, 0), BuildingBlock: XUDNAN_clean_linker_2, # of connection points: 2
#     Edge 24, Type (0, 0), BuildingBlock: XUDNAN_clean_linker_2, # of connection points: 2
#     Edge 25, Type (0, 0), BuildingBlock: XUDNAN_clean_linker_2, # of connection points: 2
#     Edge 26, Type (0, 0), BuildingBlock: XUDNAN_clean_linker_2, # of connection points: 2
#     Edge 27, Type (0, 0), BuildingBlock: XUDNAN_clean_linker_2, # of connection points: 2
#     Edge 28, Type (0, 0), BuildingBlock: XUDNAN_clean_linker_2, # of connection points: 2
#     Edge 29, Type (0, 0), BuildingBlock: XUDNAN_clean_linker_2, # of connection points: 2
#     Edge 30, Type (0, 0), BuildingBlock: XUDNAN_clean_linker_2, # of connection points: 2
#     Edge 31, Type (0, 0), BuildingBlock: XUDNAN_clean_linker_2, # of connection points: 2
#     Edge 32, Type (0, 0), BuildingBlock: XUDNAN_clean_linker_2, # of connection points: 2
#     Edge 33, Type (0, 0), BuildingBlock: XUDNAN_clean_linker_2, # of connection points: 2
#     Edge 34, Type (0, 0), BuildingBlock: XUDNAN_clean_linker_2, # of connection points: 2
#     Edge 35, Type (0, 0), BuildingBlock: XUDNAN_clean_linker_2, # of connection points: 2
# Relax obj value: 0.495
# Max RMSD: 0.250
# Mean RMSD: 0.226
data_MOF--net-acs-a--node1-KUFVIS_clean_sbu_0--edge1-XUDNAN_clean_linker_2
_symmetry_space_group_name_H-M    P1
_symmetry_Int_Tables_number       1
_symmetry_cell_setting            triclinic
loop_
_symmetry_equiv_pos_as_xyz
'x, y, z'
_cell_length_a     47.516854
_cell_length_b     47.402156
_cell_length_c     39.76429
_cell_angle_alpha  90.031857
_cell_angle_beta   89.982297
_cell_angle_gamma 113.51614
loop_
_atom_site_label
_atom_site_type_symbol
_atom_site_fract_x
_atom_site_fract_y
_atom_site_fract_z
_atom_type_partial_charge
Mn0 Mn 0.56967 0.14646 0.08731 0.0
Mn1 Mn 0.5085 0.13319 0.13775 0.0
C2 C 0.54787 0.18231 0.09176 0.0
C3 C 0.62304 0.16815 0.07822 0.0
C4 C 0.50484 0.09927 0.07201 0.0
O5 O 0.57142 0.11391 0.12031 0.0
O6 O 0.53254 0.11052 0.1552 0.0
C7 C 0.53852 0.16217 0.20152 0.0
N8 N 0.51945 0.16069 0.17536 0.0
C9 C 0.50861 0.20234 0.19818 0.0
C10 C 0.52802 0.2042 0.22541 0.0
C11 C 0.543 0.18399 0.22709 0.0
C12 C 0.50456 0.17973 0.17375 0.0
H13 H 0.55033 0.14692 0.20282 0.0
C14 C 0.55563 0.10427 0.1473 0.0
O15 O 0.60472 0.1461 0.05933 0.0
O16 O 0.61052 0.1764 0.10321 0.0
N17 N 0.48498 0.15556 0.12286 0.0
C18 C 0.46903 0.15244 0.09365 0.0
C19 C 0.45402 0.17208 0.08719 0.0
C20 C 0.45561 0.19475 0.11076 0.0
C21 C 0.47223 0.19759 0.1406 0.0
C22 C 0.48655 0.17723 0.14579 0.0
H23 H 0.46804 0.13533 0.07524 0.0
O24 O 0.56322 0.18157 0.06499 0.0
O25 O 0.54461 0.16111 0.11371 0.0
O26 O 0.53248 0.11451 0.06263 0.0
O27 O 0.49403 0.1037 0.09994 0.0
C28 C 0.47578 0.22033 0.16499 0.0
C29 C 0.49383 0.22261 0.19384 0.0
H30 H 0.53185 0.22126 0.24496 0.0
H31 H 0.55812 0.18534 0.24795 0.0
H32 H 0.44142 0.1699 0.06399 0.0
H33 H 0.44427 0.21007 0.10551 0.0
H34 H 0.46504 0.23645 0.1616 0.0
H35 H 0.49666 0.24042 0.21221 0.0
Mn36 Mn 0.38347 0.54038 0.58708 0.0
Mn37 Mn 0.334 0.47798 0.62739 0.0
C38 C 0.33139 0.52334 0.57702 0.0
C39 C 0.41081 0.59352 0.59055 0.0
C40 C 0.37478 0.47502 0.56945 0.0
O41 O 0.40886 0.53422 0.62489 0.0
O42 O 0.37261 0.49637 0.65421 0.0
C43 C 0.32209 0.50854 0.68749 0.0
N44 N 0.31146 0.4905 0.65976 0.0
C45 C 0.25963 0.48438 0.67133 0.0
C46 C 0.26995 0.50245 0.7003 0.0
C47 C 0.30134 0.5147 0.70832 0.0
C48 C 0.28134 0.47886 0.65164 0.0
H49 H 0.34621 0.51825 0.69361 0.0
C50 C 0.40005 0.5167 0.65047 0.0
O51 O 0.41982 0.57731 0.57012 0.0
O52 O 0.38621 0.57899 0.60775 0.0
N53 N 0.29563 0.45882 0.6043 0.0
C54 C 0.28954 0.44292 0.57476 0.0
C55 C 0.25926 0.42979 0.56273 0.0
C56 C 0.23557 0.43321 0.58111 0.0
C57 C 0.24238 0.44968 0.61144 0.0
C58 C 0.27293 0.46196 0.62237 0.0
H59 H 0.30766 0.44054 0.56032 0.0
O60 O 0.35094 0.54143 0.55567 0.0
O61 O 0.3432 0.51617 0.60331 0.0
O62 O 0.38647 0.50374 0.56228 0.0
O63 O 0.35582 0.4634 0.59361 0.0
C64 C 0.22009 0.4547 0.63102 0.0
C65 C 0.2287 0.47197 0.66099 0.0
H66 H 0.25404 0.50738 0.71631 0.0
H67 H 0.30953 0.52894 0.73046 0.0
H68 H 0.25422 0.41726 0.53921 0.0
H69 H 0.21229 0.42331 0.57158 0.0
H70 H 0.1963 0.44556 0.62315 0.0
H71 H 0.21139 0.47584 0.67573 0.0
Mn72 Mn 0.85901 0.3772 0.06802 0.0
Mn73 Mn 0.87903 0.32006 0.09316 0.0
C74 C 0.83065 0.32679 0.05082 0.0
C75 C 0.83234 0.40874 0.07296 0.0
C76 C 0.91644 0.36981 0.04377 0.0
O77 O 0.88486 0.39491 0.10999 0.0
O78 O 0.89313 0.35338 0.12739 0.0
C79 C 0.8418 0.29801 0.15481 0.0
N80 N 0.84886 0.29268 0.12288 0.0
C81 C 0.81249 0.24 0.12524 0.0
C82 C 0.80518 0.24481 0.15833 0.0
C83 C 0.81977 0.27398 0.1731 0.0
C84 C 0.83494 0.2647 0.10843 0.0
H85 H 0.85306 0.32036 0.16634 0.0
C86 C 0.89494 0.38096 0.13139 0.0
O87 O 0.85752 0.41699 0.0558 0.0
O88 O 0.82307 0.38248 0.08855 0.0
N89 N 0.86535 0.28665 0.06176 0.0
C90 C 0.87487 0.28593 0.02958 0.0
C91 C 0.86176 0.25864 0.01084 0.0
C92 C 0.83905 0.23242 0.02538 0.0
C93 C 0.82964 0.23373 0.05856 0.0
C94 C 0.84357 0.26153 0.07603 0.0
H95 H 0.89222 0.30605 0.01825 0.0
O96 O 0.83098 0.34972 0.03269 0.0
O97 O 0.84805 0.33437 0.07724 0.0
O98 O 0.89726 0.38216 0.04157 0.0
O99 O 0.91209 0.34654 0.06245 0.0
C100 C 0.80674 0.20864 0.07486 0.0
C101 C 0.79828 0.21174 0.10824 0.0
H102 H 0.78813 0.22636 0.17249 0.0
H103 H 0.81405 0.27793 0.19853 0.0
H104 H 0.86908 0.25784 0.98521 0.0
H105 H 0.82888 0.21147 0.01079 0.0
H106 H 0.79547 0.18688 0.06196 0.0
H107 H 0.78068 0.19228 0.12052 0.0
Mn108 Mn 0.44232 0.85116 0.58452 0.0
Mn109 Mn 0.50234 0.85496 0.63268 0.0
C110 C 0.46068 0.81235 0.5826 0.0
C111 C 0.38881 0.83242 0.57599 0.0
C112 C 0.50903 0.89584 0.57153 0.0
O113 O 0.44283 0.88121 0.6218 0.0
O114 O 0.48172 0.87974 0.65369 0.0
C115 C 0.47054 0.82343 0.69466 0.0
N116 N 0.48944 0.82529 0.66822 0.0
C117 C 0.49759 0.78107 0.68773 0.0
C118 C 0.47855 0.77897 0.71539 0.0
C119 C 0.46493 0.80022 0.71883 0.0
C120 C 0.50287 0.80509 0.66481 0.0
H121 H 0.45958 0.83933 0.69716 0.0
C122 C 0.45977 0.88847 0.64822 0.0
O123 O 0.40771 0.85571 0.55902 0.0
O124 O 0.40086 0.82138 0.59892 0.0
N125 N 0.52274 0.83064 0.61468 0.0
C126 C 0.53743 0.83361 0.58464 0.0
C127 C 0.55038 0.81265 0.57599 0.0
C128 C 0.54795 0.78877 0.59821 0.0
C129 C 0.53244 0.78597 0.62884 0.0
C130 C 0.52017 0.80767 0.63621 0.0
H131 H 0.5388 0.85151 0.56717 0.0
O132 O 0.44635 0.81717 0.5569 0.0
O133 O 0.46537 0.83162 0.60718 0.0
O134 O 0.48079 0.88473 0.56266 0.0
O135 O 0.51885 0.88618 0.59705 0.0
C136 C 0.52787 0.76194 0.65184 0.0
C137 C 0.5106 0.75958 0.68136 0.0
H138 H 0.4738 0.76082 0.73382 0.0
H139 H 0.44996 0.79858 0.73992 0.0
H140 H 0.56197 0.81473 0.55211 0.0
H141 H 0.55766 0.77244 0.59126 0.0
H142 H 0.53709 0.74483 0.64679 0.0
H143 H 0.50681 0.7407 0.69856 0.0
Mn144 Mn 0.61019 0.44915 0.09439 0.0
Mn145 Mn 0.66087 0.52066 0.11296 0.0
C146 C 0.65964 0.46662 0.07398 0.0
C147 C 0.58695 0.39737 0.10862 0.0
C148 C 0.60832 0.50701 0.0637 0.0
O149 O 0.59068 0.46154 0.13393 0.0
O150 O 0.62846 0.50696 0.14831 0.0
C151 C 0.68749 0.50706 0.17504 0.0
N152 N 0.69117 0.51805 0.14297 0.0
C153 C 0.74512 0.52883 0.14406 0.0
C154 C 0.74197 0.51796 0.17722 0.0
C155 C 0.71301 0.50694 0.19273 0.0
C156 C 0.7189 0.52855 0.12775 0.0
H157 H 0.66523 0.49837 0.18698 0.0
C158 C 0.60221 0.48488 0.15329 0.0
O159 O 0.57362 0.40959 0.08822 0.0
O160 O 0.61332 0.41525 0.12092 0.0
N161 N 0.69342 0.53584 0.08073 0.0
C162 C 0.69239 0.54473 0.04834 0.0
C163 C 0.71943 0.55603 0.02912 0.0
C164 C 0.74721 0.55803 0.04338 0.0
C165 C 0.74774 0.5489 0.07683 0.0
C166 C 0.72014 0.5382 0.09488 0.0
H167 H 0.67108 0.54313 0.03721 0.0
O168 O 0.63788 0.4438 0.05937 0.0
O169 O 0.65145 0.47829 0.09974 0.0
O170 O 0.5993 0.47784 0.06429 0.0
O171 O 0.63071 0.52531 0.08129 0.0
C172 C 0.77446 0.54956 0.0928 0.0
C173 C 0.77315 0.53952 0.12638 0.0
H174 H 0.76157 0.51765 0.19089 0.0
H175 H 0.71036 0.49826 0.21822 0.0
H176 H 0.71883 0.563 0.00331 0.0
H177 H 0.76796 0.56644 0.02837 0.0
H178 H 0.79609 0.55753 0.07941 0.0
H179 H 0.79379 0.53992 0.13831 0.0
Mn180 Mn 0.1463 0.63002 0.56465 0.0
Mn181 Mn 0.13013 0.69073 0.58506 0.0
C182 C 0.17844 0.67928 0.54697 0.0
C183 C 0.16901 0.59542 0.57419 0.0
C184 C 0.09236 0.64105 0.53566 0.0
O185 O 0.11752 0.61466 0.60495 0.0
O186 O 0.11245 0.65843 0.61999 0.0
C187 C 0.1655 0.71216 0.64798 0.0
N188 N 0.16014 0.71742 0.61541 0.0
C189 C 0.19908 0.76893 0.61757 0.0
C190 C 0.20469 0.76421 0.65128 0.0
C191 C 0.18796 0.73564 0.66648 0.0
C192 C 0.17617 0.74479 0.60052 0.0
H193 H 0.15261 0.69026 0.6598 0.0
C194 C 0.10783 0.63013 0.62483 0.0
O195 O 0.14506 0.5886 0.5552 0.0
O196 O 0.17942 0.62223 0.58874 0.0
N197 N 0.14702 0.72323 0.55293 0.0
C198 C 0.13898 0.7239 0.52016 0.0
C199 C 0.15419 0.75059 0.50102 0.0
C200 C 0.17746 0.77627 0.51578 0.0
C201 C 0.18529 0.77504 0.54958 0.0
C202 C 0.16926 0.74786 0.56743 0.0
H203 H 0.12118 0.70419 0.50869 0.0
O204 O 0.17742 0.65527 0.53038 0.0
O205 O 0.15976 0.67345 0.57228 0.0
O206 O 0.11035 0.62721 0.53518 0.0
O207 O 0.09741 0.665 0.5535 0.0
C208 C 0.20862 0.79956 0.56616 0.0
C209 C 0.21542 0.79655 0.60016 0.0
H210 H 0.22205 0.78224 0.66563 0.0
H211 H 0.19236 0.73175 0.6924 0.0
H212 H 0.14806 0.75133 0.47493 0.0
H213 H 0.18925 0.79674 0.50088 0.0
H214 H 0.22151 0.82081 0.55297 0.0
H215 H 0.23341 0.81556 0.61263 0.0
Mn216 Mn 0.851 0.43994 0.4207 0.0
Mn217 Mn 0.84957 0.4988 0.37405 0.0
C218 C 0.81475 0.46041 0.43071 0.0
C219 C 0.83266 0.38625 0.42892 0.0
C220 C 0.89701 0.50708 0.42878 0.0
O221 O 0.8762 0.43901 0.37949 0.0
O222 O 0.87149 0.47724 0.34931 0.0
C223 C 0.81087 0.46435 0.31711 0.0
N224 N 0.81579 0.48423 0.34337 0.0
C225 C 0.77104 0.49357 0.32919 0.0
C226 C 0.76572 0.47352 0.30173 0.0
C227 C 0.7856 0.45866 0.29584 0.0
C228 C 0.79655 0.4983 0.34954 0.0
H229 H 0.8262 0.45306 0.31229 0.0
C230 C 0.88076 0.45543 0.35289 0.0
O231 O 0.85763 0.40498 0.44352 0.0
O232 O 0.81928 0.3986 0.40904 0.0
N233 N 0.82819 0.52078 0.39521 0.0
C234 C 0.83597 0.53871 0.42331 0.0
C235 C 0.81759 0.5541 0.43361 0.0
C236 C 0.79147 0.55101 0.41486 0.0
C237 C 0.78392 0.53243 0.38602 0.0
C238 C 0.80303 0.51754 0.37707 0.0
H239 H 0.85581 0.54091 0.43801 0.0
O240 O 0.82187 0.44542 0.45415 0.0
O241 O 0.82932 0.46319 0.40258 0.0
O242 O 0.88715 0.47892 0.43829 0.0
O243 O 0.88458 0.51632 0.40513 0.0
C244 C 0.75816 0.52809 0.36584 0.0
C245 C 0.75191 0.50894 0.33724 0.0
H246 H 0.74627 0.46909 0.28525 0.0
H247 H 0.78155 0.443 0.27483 0.0
H248 H 0.82348 0.56826 0.45601 0.0
H249 H 0.77733 0.5629 0.42289 0.0
H250 H 0.74302 0.53939 0.37206 0.0
H251 H 0.73206 0.50581 0.32189 0.0
Mn252 Mn 0.36845 0.86582 0.92395 0.0
Mn253 Mn 0.313 0.88589 0.89487 0.0
C254 C 0.31711 0.83248 0.93148 0.0
C255 C 0.40388 0.84331 0.91949 0.0
C256 C 0.35887 0.92085 0.949 0.0
O257 O 0.38883 0.89721 0.88614 0.0
O258 O 0.34687 0.90021 0.86174 0.0
C259 C 0.29053 0.85133 0.83163 0.0
N260 N 0.28545 0.8569 0.86421 0.0
C261 C 0.23321 0.81968 0.8616 0.0
C262 C 0.23798 0.81328 0.82815 0.0
C263 C 0.26674 0.82926 0.81308 0.0
C264 C 0.25764 0.84224 0.87868 0.0
H265 H 0.31264 0.86351 0.82 0.0
C266 C 0.37554 0.90517 0.86189 0.0
O267 O 0.4078 0.86585 0.93985 0.0
O268 O 0.37964 0.83429 0.90037 0.0
N269 N 0.27963 0.87131 0.92624 0.0
C270 C 0.27913 0.87931 0.95908 0.0
C271 C 0.25232 0.86471 0.97812 0.0
C272 C 0.22633 0.84198 0.96327 0.0
C273 C 0.22737 0.83411 0.92944 0.0
C274 C 0.25468 0.84955 0.91167 0.0
H275 H 0.29908 0.89655 0.97074 0.0
O276 O 0.33793 0.83161 0.95221 0.0
O277 O 0.32718 0.85422 0.90926 0.0
O278 O 0.36723 0.8992 0.95553 0.0
O279 O 0.33976 0.91875 0.92566 0.0
C280 C 0.20253 0.81119 0.91283 0.0
C281 C 0.20541 0.80407 0.87889 0.0
H282 H 0.21981 0.796 0.81389 0.0
H283 H 0.27059 0.82446 0.78727 0.0
H284 H 0.25173 0.87085 0.00425 0.0
H285 H 0.20577 0.83062 0.97811 0.0
H286 H 0.18117 0.79878 0.92598 0.0
H287 H 0.18621 0.7863 0.86644 0.0
Mn288 Mn 0.54278 0.38054 0.41917 0.0
Mn289 Mn 0.48079 0.33446 0.37546 0.0
C290 C 0.52874 0.32781 0.41837 0.0
C291 C 0.59536 0.40979 0.42217 0.0
C292 C 0.47711 0.36722 0.43985 0.0
O293 O 0.53595 0.40987 0.38617 0.0
O294 O 0.49695 0.37636 0.3552 0.0
C295 C 0.50936 0.33222 0.30983 0.0
N296 N 0.49321 0.31744 0.33745 0.0
C297 C 0.49054 0.26861 0.31706 0.0
C298 C 0.50693 0.2833 0.2883 0.0
C299 C 0.51634 0.31524 0.28467 0.0
C300 C 0.48374 0.28666 0.34103 0.0
H301 H 0.5171 0.35682 0.30714 0.0
C302 C 0.51735 0.40347 0.3613 0.0
O303 O 0.57647 0.41462 0.44271 0.0
O304 O 0.58354 0.38876 0.39942 0.0
N305 N 0.46467 0.29342 0.39298 0.0
C306 C 0.45157 0.28325 0.42353 0.0
C307 C 0.44225 0.25205 0.4319 0.0
C308 C 0.44662 0.23168 0.40887 0.0
C309 C 0.46028 0.24269 0.37764 0.0
C310 C 0.4688 0.27396 0.37053 0.0
H311 H 0.44861 0.29891 0.44152 0.0
O312 O 0.54467 0.34407 0.44334 0.0
O313 O 0.52037 0.34291 0.39622 0.0
O314 O 0.50575 0.37883 0.44614 0.0
O315 O 0.46531 0.35038 0.41423 0.0
C316 C 0.46655 0.22404 0.35371 0.0
C317 C 0.48158 0.23697 0.32339 0.0
H318 H 0.51281 0.27035 0.2691 0.0
H319 H 0.5292 0.32678 0.26267 0.0
H320 H 0.43197 0.24377 0.45617 0.0
H321 H 0.43976 0.20771 0.41561 0.0
H322 H 0.46032 0.19981 0.35859 0.0
H323 H 0.48668 0.22249 0.30539 0.0
Mn324 Mn 0.14351 0.56914 0.9008 0.0
Mn325 Mn 0.13762 0.50649 0.85607 0.0
C326 C 0.1823 0.55112 0.90175 0.0
C327 C 0.16265 0.62336 0.90204 0.0
C328 C 0.1015 0.50306 0.92039 0.0
O329 O 0.11069 0.56566 0.86614 0.0
O330 O 0.11062 0.52509 0.83615 0.0
C331 C 0.16444 0.53631 0.79144 0.0
N332 N 0.16476 0.5185 0.81821 0.0
C333 C 0.20898 0.51186 0.79634 0.0
C334 C 0.20881 0.52976 0.76833 0.0
C335 C 0.18645 0.54205 0.76591 0.0
C336 C 0.18609 0.50641 0.82071 0.0
H337 H 0.14771 0.54631 0.78968 0.0
C338 C 0.10189 0.54715 0.84112 0.0
O339 O 0.14164 0.60698 0.92327 0.0
O340 O 0.17141 0.60834 0.88033 0.0
N341 N 0.164 0.48786 0.87276 0.0
C342 C 0.16347 0.47455 0.90324 0.0
C343 C 0.1855 0.46266 0.91063 0.0
C344 C 0.20808 0.46489 0.88678 0.0
C345 C 0.2086 0.47926 0.85584 0.0
C346 C 0.18579 0.49032 0.84969 0.0
H347 H 0.1468 0.47364 0.92203 0.0
O348 O 0.17939 0.5676 0.92649 0.0
O349 O 0.16163 0.54474 0.87858 0.0
O350 O 0.11228 0.53195 0.92705 0.0
O351 O 0.10952 0.49176 0.89473 0.0
C352 C 0.23146 0.48392 0.83135 0.0
C353 C 0.2316 0.50013 0.80158 0.0
H354 H 0.22604 0.53467 0.74884 0.0
H355 H 0.18635 0.55616 0.74455 0.0
H356 H 0.18531 0.45215 0.93482 0.0
H357 H 0.22527 0.45605 0.89275 0.0
H358 H 0.24941 0.47567 0.83546 0.0
H359 H 0.24964 0.50407 0.78323 0.0
Mn360 Mn 0.63583 0.14276 0.42414 0.0
Mn361 Mn 0.69632 0.12472 0.41052 0.0
C362 C 0.68368 0.17339 0.44674 0.0
C363 C 0.60547 0.16852 0.40781 0.0
C364 C 0.6421 0.08711 0.45542 0.0
O365 O 0.62308 0.11447 0.38318 0.0
O366 O 0.66741 0.10927 0.37197 0.0
C367 C 0.72421 0.16232 0.35043 0.0
N368 N 0.72627 0.15533 0.38331 0.0
C369 C 0.77775 0.19395 0.38726 0.0
C370 C 0.77636 0.2012 0.35328 0.0
C371 C 0.74941 0.18542 0.33485 0.0
C372 C 0.75207 0.17042 0.4013 0.0
H373 H 0.70351 0.15033 0.33617 0.0
C374 C 0.63982 0.10544 0.36445 0.0
O375 O 0.59483 0.14485 0.42764 0.0
O376 O 0.63342 0.17686 0.39713 0.0
N377 N 0.72572 0.13964 0.44613 0.0
C378 C 0.72308 0.13037 0.47882 0.0
C379 C 0.74778 0.1445 0.50094 0.0
C380 C 0.7749 0.16802 0.48923 0.0
C381 C 0.77708 0.17718 0.45547 0.0
C382 C 0.75179 0.16211 0.43455 0.0
H383 H 0.70224 0.11243 0.48801 0.0
O384 O 0.65871 0.17317 0.46026 0.0
O385 O 0.67935 0.1548 0.42152 0.0
O386 O 0.62891 0.10579 0.45454 0.0
O387 O 0.66691 0.09175 0.43937 0.0
C388 C 0.80315 0.20101 0.4419 0.0
C389 C 0.80351 0.20935 0.4078 0.0
H390 H 0.7957 0.2191 0.3412 0.0
H391 H 0.74805 0.19111 0.30871 0.0
H392 H 0.74588 0.13738 0.52699 0.0
H393 H 0.7938 0.17903 0.50643 0.0
H394 H 0.82299 0.21319 0.45752 0.0
H395 H 0.82363 0.22779 0.39769 0.0
Mn396 Mn 0.45077 0.62624 0.9145 0.0
Mn397 Mn 0.52248 0.67283 0.89293 0.0
C398 C 0.4696 0.67728 0.92977 0.0
C399 C 0.39953 0.60246 0.89993 0.0
C400 C 0.50692 0.62303 0.94633 0.0
O401 O 0.46232 0.60277 0.87825 0.0
O402 O 0.50677 0.63899 0.85914 0.0
C403 C 0.51013 0.69841 0.82945 0.0
N404 N 0.52142 0.70283 0.86139 0.0
C405 C 0.5338 0.75718 0.85815 0.0
C406 C 0.52262 0.75326 0.82509 0.0
C407 C 0.51068 0.72374 0.81071 0.0
C408 C 0.53291 0.73113 0.87549 0.0
H409 H 0.50059 0.6757 0.81844 0.0
C410 C 0.48435 0.6125 0.85711 0.0
O411 O 0.41115 0.59079 0.92286 0.0
O412 O 0.41762 0.62787 0.88572 0.0
N413 N 0.53923 0.7065 0.92375 0.0
C414 C 0.54778 0.70614 0.95639 0.0
C415 C 0.55985 0.73381 0.9746 0.0
C416 C 0.5629 0.76151 0.95911 0.0
C417 C 0.55401 0.76132 0.92546 0.0
C418 C 0.5426 0.73312 0.90842 0.0
H419 H 0.54532 0.6849 0.96849 0.0
O420 O 0.44627 0.65727 0.94562 0.0
O421 O 0.48078 0.66639 0.90573 0.0
O422 O 0.47836 0.61706 0.94738 0.0
O423 O 0.52558 0.64271 0.92616 0.0
C424 C 0.5554 0.78789 0.90839 0.0
C425 C 0.54524 0.78581 0.87479 0.0
H426 H 0.52274 0.77269 0.81066 0.0
H427 H 0.50174 0.72049 0.78532 0.0
H428 H 0.56659 0.73376 0.00059 0.0
H429 H 0.57184 0.78274 0.97337 0.0
H430 H 0.56391 0.80998 0.921 0.0
H431 H 0.54607 0.80632 0.86207 0.0
H432 H 0.58232 0.09195 0.3385 0.0
H433 H 0.67127 0.09221 0.31302 0.0
H434 H 0.65499 0.08112 0.25397 0.0
H435 H 0.53622 0.03137 0.27525 0.0
H436 H 0.51164 0.05134 0.26707 0.0
H437 H 0.528 0.053 0.30832 0.0
H438 H 0.55147 0.11269 0.30572 0.0
H439 H 0.53511 0.11111 0.26475 0.0
H440 H 0.57582 0.13174 0.27078 0.0
H441 H 0.63328 0.08133 0.1963 0.0
H442 H 0.60755 0.09144 0.14656 0.0
H443 H 0.53144 0.08693 0.20993 0.0
C444 C 0.59806 0.08864 0.32079 0.0
C445 C 0.62808 0.09297 0.33059 0.0
C446 C 0.64806 0.08887 0.30635 0.0
C447 C 0.639 0.08248 0.27264 0.0
C448 C 0.60966 0.0796 0.26357 0.0
C449 C 0.58929 0.08204 0.28712 0.0
C450 C 0.56042 0.08143 0.27053 0.0
C451 C 0.53241 0.05256 0.28091 0.0
C452 C 0.55545 0.11099 0.27841 0.0
C453 C 0.56839 0.07996 0.2339 0.0
C454 C 0.59671 0.07856 0.23026 0.0
C455 C 0.61066 0.08148 0.19878 0.0
C456 C 0.59583 0.08717 0.17057 0.0
C457 C 0.56735 0.08991 0.17409 0.0
C458 C 0.55296 0.0846 0.20601 0.0
H459 H 0.38612 0.50183 0.71651 0.0
H460 H 0.46247 0.5483 0.64911 0.0
H461 H 0.4962 0.57004 0.69783 0.0
H462 H 0.39944 0.56168 0.76667 0.0
H463 H 0.38852 0.5411 0.80587 0.0
H464 H 0.37267 0.52197 0.76713 0.0
H465 H 0.39249 0.47954 0.78031 0.0
H466 H 0.40822 0.49844 0.81949 0.0
H467 H 0.43254 0.49017 0.78973 0.0
H468 H 0.51814 0.59585 0.7517 0.0
H469 H 0.52655 0.62271 0.80627 0.0
H470 H 0.43584 0.55996 0.83872 0.0
C471 C 0.41023 0.51545 0.712 0.0
C472 C 0.42166 0.5233 0.67903 0.0
C473 C 0.45321 0.5419 0.67418 0.0
C474 C 0.47261 0.55426 0.70173 0.0
C475 C 0.46018 0.54764 0.73395 0.0
C476 C 0.42975 0.52832 0.73923 0.0
C477 C 0.42069 0.52882 0.77564 0.0
C478 C 0.39377 0.53902 0.77899 0.0
C479 C 0.41305 0.49737 0.79227 0.0
C480 C 0.45018 0.55279 0.78952 0.0
C481 C 0.47292 0.56286 0.76533 0.0
C482 C 0.50085 0.58756 0.77116 0.0
C483 C 0.50537 0.60279 0.80221 0.0
C484 C 0.48195 0.5934 0.82692 0.0
C485 C 0.45447 0.56743 0.82069 0.0
H486 H 0.8892 0.43189 0.15791 0.0
H487 H 0.92367 0.36191 0.18073 0.0
H488 H 0.93154 0.37914 0.23968 0.0
H489 H 0.93933 0.49149 0.21986 0.0
H490 H 0.90847 0.50307 0.22975 0.0
H491 H 0.91154 0.48952 0.18809 0.0
H492 H 0.85586 0.44841 0.19289 0.0
H493 H 0.85271 0.46152 0.23454 0.0
H494 H 0.8458 0.42173 0.22759 0.0
H495 H 0.926 0.39681 0.29774 0.0
H496 H 0.9101 0.41568 0.34931 0.0
H497 H 0.88116 0.47529 0.28835 0.0
C498 C 0.89956 0.42098 0.17493 0.0
C499 C 0.90588 0.3956 0.16453 0.0
C500 C 0.91869 0.38147 0.18796 0.0
C501 C 0.92333 0.39114 0.22157 0.0
C502 C 0.91547 0.41525 0.23137 0.0
C503 C 0.90433 0.43034 0.20859 0.0
C504 C 0.89446 0.45324 0.22613 0.0
C505 C 0.91466 0.48629 0.21531 0.0
C506 C 0.86019 0.44575 0.21992 0.0
C507 C 0.90041 0.4476 0.26238 0.0
C508 C 0.91285 0.42588 0.26495 0.0
C509 C 0.91704 0.41447 0.29606 0.0
C510 C 0.90783 0.42523 0.32523 0.0
C511 C 0.8946 0.44717 0.32304 0.0
C512 C 0.89171 0.45896 0.29114 0.0
H513 H 0.42866 0.90083 0.84028 0.0
H514 H 0.35969 0.93445 0.81071 0.0
H515 H 0.38007 0.94244 0.75303 0.0
H516 H 0.4913 0.95182 0.7808 0.0
H517 H 0.5038 0.92115 0.77301 0.0
H518 H 0.48819 0.92438 0.81347 0.0
H519 H 0.44802 0.86825 0.80793 0.0
H520 H 0.46322 0.86495 0.76746 0.0
H521 H 0.42312 0.85751 0.77172 0.0
H522 H 0.39978 0.93559 0.69667 0.0
H523 H 0.42023 0.91816 0.64733 0.0
H524 H 0.47894 0.89278 0.71356 0.0
C525 C 0.41875 0.9112 0.82209 0.0
C526 C 0.39262 0.91707 0.83017 0.0
C527 C 0.37975 0.92978 0.80525 0.0
C528 C 0.39121 0.93449 0.77233 0.0
C529 C 0.41593 0.92691 0.7647 0.0
C530 C 0.42999 0.91613 0.78904 0.0
C531 C 0.45392 0.90649 0.77355 0.0
C532 C 0.48622 0.92721 0.78594 0.0
C533 C 0.44661 0.87229 0.78058 0.0
C534 C 0.44993 0.91202 0.73666 0.0
C535 C 0.4281 0.92403 0.73201 0.0
C536 C 0.41762 0.9271 0.69996 0.0
C537 C 0.4293 0.91706 0.67205 0.0
C538 C 0.45136 0.90424 0.67636 0.0
C539 C 0.46246 0.90285 0.7091 0.0
H540 H 0.4937 0.39531 0.29787 0.0
H541 H 0.55525 0.46493 0.36482 0.0
H542 H 0.57554 0.49975 0.31661 0.0
H543 H 0.54551 0.40127 0.24182 0.0
H544 H 0.52226 0.39497 0.2045 0.0
H545 H 0.50453 0.37992 0.24402 0.0
H546 H 0.4687 0.40892 0.23822 0.0
H547 H 0.48593 0.42375 0.19808 0.0
H548 H 0.4849 0.4498 0.23063 0.0
H549 H 0.59834 0.52098 0.26151 0.0
H550 H 0.62124 0.52671 0.20506 0.0
H551 H 0.5464 0.44236 0.17357 0.0
C552 C 0.51042 0.41839 0.30271 0.0
C553 C 0.52293 0.4273 0.33514 0.0
C554 C 0.54522 0.45755 0.34022 0.0
C555 C 0.55683 0.47757 0.31294 0.0
C556 C 0.54575 0.4671 0.28083 0.0
C557 C 0.52267 0.43829 0.27567 0.0
C558 C 0.5189 0.42996 0.23871 0.0
C559 C 0.52308 0.39979 0.2319 0.0
C560 C 0.48776 0.42801 0.22564 0.0
C561 C 0.54497 0.45751 0.22415 0.0
C562 C 0.55955 0.47916 0.24862 0.0
C563 C 0.5866 0.50465 0.24194 0.0
C564 C 0.59953 0.50763 0.20976 0.0
C565 C 0.58565 0.48495 0.18481 0.0
C566 C 0.55743 0.46027 0.19191 0.0
H567 H 0.0995 0.57324 0.64964 0.0
H568 H 0.08388 0.65524 0.67345 0.0
H569 H 0.0683 0.63581 0.73072 0.0
H570 H 0.03671 0.51845 0.70664 0.0
H571 H 0.06064 0.49842 0.71765 0.0
H572 H 0.06343 0.51505 0.67636 0.0
H573 H 0.12193 0.54601 0.685 0.0
H574 H 0.11919 0.52926 0.72591 0.0
H575 H 0.13504 0.57051 0.72139 0.0
H576 H 0.06653 0.61413 0.78792 0.0
H577 H 0.07839 0.59173 0.83918 0.0
H578 H 0.0912 0.52171 0.77832 0.0
C579 C 0.09169 0.58659 0.66646 0.0
C580 C 0.09296 0.61577 0.65688 0.0
C581 C 0.0831 0.63276 0.68 0.0
C582 C 0.074 0.62183 0.71265 0.0
C583 C 0.07431 0.5936 0.72177 0.0
C584 C 0.08245 0.57595 0.69915 0.0
C585 C 0.08485 0.54852 0.71633 0.0
C586 C 0.05991 0.51832 0.70348 0.0
C587 C 0.11716 0.54863 0.71191 0.0
C588 C 0.07887 0.55467 0.75245 0.0
C589 C 0.07227 0.58045 0.75506 0.0
C590 C 0.07071 0.59335 0.78621 0.0
C591 C 0.07749 0.58044 0.81527 0.0
C592 C 0.08577 0.55493 0.81294 0.0
C593 C 0.08459 0.54094 0.78122 0.0
H594 H 0.47526 0.0371 0.0814 0.0
H595 H 0.48556 0.1103 0.01105 0.0
H596 H 0.44585 0.07308 0.97427 0.0
H597 H 0.46713 0.97975 0.01752 0.0
H598 H 0.44008 0.94847 0.04162 0.0
H599 H 0.4681 0.9812 0.06283 0.0
H600 H 0.4244 0.98905 0.09512 0.0
H601 H 0.39621 0.9566 0.0736 0.0
H602 H 0.39391 0.99361 0.07189 0.0
H603 H 0.40348 0.02811 0.9465 0.0
H604 H 0.36824 0.97769 0.92447 0.0
H605 H 0.38854 0.93259 0.01042 0.0
C606 C 0.46917 0.04512 0.05812 0.0
C607 C 0.48334 0.07645 0.04885 0.0
C608 C 0.47505 0.08629 0.01828 0.0
C609 C 0.45237 0.06538 0.99747 0.0
C610 C 0.43856 0.03462 0.0074 0.0
C611 C 0.44713 0.02437 0.03663 0.0
C612 C 0.43013 0.98979 0.0404 0.0
C613 C 0.45271 0.97387 0.04059 0.0
C614 C 0.40997 0.9818 0.07214 0.0
C615 C 0.41067 0.98217 0.00875 0.0
C616 C 0.4154 0.00847 0.99046 0.0
C617 C 0.39974 0.00736 0.96052 0.0
C618 C 0.37951 0.97857 0.94836 0.0
C619 C 0.37549 0.95109 0.96569 0.0
C620 C 0.39101 0.95313 0.9966 0.0
H621 H 0.4301 0.48788 0.53862 0.0
H622 H 0.34123 0.41397 0.55693 0.0
H623 H 0.35758 0.37797 0.52596 0.0
H624 H 0.44329 0.46456 0.45568 0.0
H625 H 0.48361 0.47473 0.46287 0.0
H626 H 0.46411 0.49499 0.4847 0.0
H627 H 0.48207 0.48143 0.54171 0.0
H628 H 0.5014 0.4609 0.52005 0.0
H629 H 0.47318 0.44171 0.55183 0.0
H630 H 0.38322 0.35036 0.49112 0.0
H631 H 0.41759 0.33274 0.45834 0.0
H632 H 0.491 0.42335 0.46805 0.0
C633 C 0.41396 0.46422 0.53569 0.0
C634 C 0.3842 0.45386 0.54962 0.0
C635 C 0.36401 0.42252 0.54609 0.0
C636 C 0.3731 0.40186 0.5286 0.0
C637 C 0.40268 0.41275 0.51541 0.0
C638 C 0.42291 0.44312 0.51905 0.0
C639 C 0.45389 0.44861 0.50394 0.0
C640 C 0.46167 0.47211 0.47508 0.0
C641 C 0.47912 0.45876 0.531 0.0
C642 C 0.44783 0.41667 0.491 0.0
C643 C 0.41806 0.39636 0.49748 0.0
C644 C 0.40672 0.36594 0.48628 0.0
C645 C 0.42633 0.35612 0.46776 0.0
C646 C 0.45702 0.37652 0.46135 0.0
C647 C 0.46786 0.40705 0.4734 0.0
H648 H 0.05322 0.50924 0.95399 0.0
H649 H 0.09583 0.44506 0.93526 0.0
H650 H 0.0545 0.40487 0.96634 0.0
H651 H 0.02183 0.48036 0.03812 0.0
H652 H 0.98655 0.48503 0.03043 0.0
H653 H 0.02147 0.51007 0.01006 0.0
H654 H 0.99476 0.49498 0.95209 0.0
H655 H 0.9599 0.46964 0.97225 0.0
H656 H 0.97735 0.45497 0.94025 0.0
H657 H 0.00747 0.37053 0.99756 0.0
H658 H 0.95731 0.34454 0.02593 0.0
H659 H 0.94298 0.42937 0.0212 0.0
C660 C 0.05422 0.48698 0.95726 0.0
C661 C 0.07823 0.4806 0.94276 0.0
C662 C 0.07808 0.45078 0.94656 0.0
C663 C 0.05458 0.42766 0.96413 0.0
C664 C 0.03092 0.43438 0.97747 0.0
C665 C 0.03044 0.46326 0.97422 0.0
C666 C 0.00108 0.46359 0.98889 0.0
C667 C 0.00817 0.4861 0.01865 0.0
C668 C 0.98216 0.47124 0.96175 0.0
C669 C 0.98522 0.43044 0.00055 0.0
C670 C 0.00299 0.41407 0.99406 0.0
C671 C 0.99331 0.3831 0.0028 0.0
C672 C 0.96477 0.3685 0.01884 0.0
C673 C 0.94603 0.38473 0.02554 0.0
C674 C 0.95651 0.41611 0.01606 0.0
H675 H 0.58106 0.05739 0.47311 0.0
H676 H 0.66901 0.0499 0.47994 0.0
H677 H 0.64398 0.9998 0.50853 0.0
H678 H 0.55065 0.02223 0.55332 0.0
H679 H 0.51211 1.00216 0.53779 0.0
H680 H 0.53702 0.03786 0.51868 0.0
H681 H 0.52844 0.011 0.46061 0.0
H682 H 0.50372 0.97513 0.47958 0.0
H683 H 0.53657 0.97721 0.45538 0.0
H684 H 0.61002 0.95126 0.53714 0.0
H685 H 0.56938 0.90697 0.56397 0.0
H686 H 0.50202 0.94344 0.53651 0.0
C687 C 0.59512 0.04537 0.48096 0.0
C688 C 0.62716 0.05781 0.47446 0.0
C689 C 0.64454 0.04099 0.48463 0.0
C690 C 0.63049 0.01247 0.50087 0.0
C691 C 0.59891 1.00074 0.50648 0.0
C692 C 0.58136 0.01657 0.49681 0.0
C693 C 0.5477 0.99836 0.50535 0.0
C694 C 0.5362 0.01622 0.53027 0.0
C695 C 0.52794 0.98993 0.47332 0.0
C696 C 0.54912 0.96995 0.52163 0.0
C697 C 0.57897 0.97198 0.52202 0.0
C698 C 0.58654 0.94932 0.53673 0.0
C699 C 0.56318 0.92415 0.55189 0.0
C700 C 0.53233 0.92139 0.55206 0.0
C701 C 0.52522 0.94452 0.53625 0.0
H702 H 0.56588 0.63417 0.96826 0.0
H703 H 0.47183 0.56587 0.96891 0.0
H704 H 0.48849 0.52928 0.99714 0.0
H705 H 0.60259 0.58246 0.9538 0.0
H706 H 0.63422 0.60128 0.98207 0.0
H707 H 0.61552 0.62313 0.96183 0.0
H708 H 0.60475 0.6417 0.01983 0.0
H709 H 0.62376 0.62021 0.04022 0.0
H710 H 0.58495 0.61373 0.05167 0.0
H711 H 0.51449 0.49873 0.021 0.0
H712 H 0.54813 0.47741 0.04797 0.0
H713 H 0.62563 0.56539 0.03683 0.0
C714 C 0.54885 0.61161 0.97465 0.0
C715 C 0.51756 0.60295 0.96636 0.0
C716 C 0.49589 0.57324 0.97524 0.0
C717 C 0.50511 0.55211 0.99107 0.0
C718 C 0.53604 0.56109 0.9984 0.0
C719 C 0.55759 0.59022 0.99124 0.0
C720 C 0.58922 0.59383 0.00311 0.0
C721 C 0.61171 0.60057 0.97343 0.0
C722 C 0.60138 0.61885 0.03033 0.0
C723 C 0.5819 0.56204 0.01761 0.0
C724 C 0.5511 0.54354 0.01404 0.0
C725 C 0.53863 0.51299 0.02429 0.0
C726 C 0.55802 0.50104 0.03936 0.0
C727 C 0.5895 0.51974 0.04453 0.0
C728 C 0.60163 0.55063 0.03332 0.0
H729 H 0.94611 0.50078 0.46104 0.0
H730 H 0.90988 0.56834 0.43314 0.0
H731 H 0.95531 0.60948 0.45724 0.0
H732 H 0.98267 0.53711 0.53948 0.0
H733 H 0.01587 0.52828 0.53332 0.0
H734 H 0.9794 0.50351 0.51576 0.0
H735 H 0.00427 0.5102 0.4567 0.0
H736 H 0.04074 0.5352 0.47406 0.0
H737 H 0.0242 0.54835 0.43986 0.0
H738 H 0.00467 0.64392 0.48463 0.0
H739 H 0.05545 0.66893 0.51203 0.0
H740 H 0.06186 0.58029 0.51874 0.0
C741 C 0.94756 0.52416 0.46048 0.0
C742 C 0.92403 0.53108 0.44555 0.0
C743 C 0.92727 0.56218 0.44467 0.0
C744 C 0.95311 0.58588 0.45826 0.0
C745 C 0.97602 0.57842 0.47235 0.0
C746 C 0.97366 0.54837 0.47344 0.0
C747 C 0.00235 0.54701 0.48877 0.0
C748 C 0.9946 0.52784 0.52126 0.0
C749 C 0.01886 0.53445 0.46332 0.0
C750 C 0.02097 0.58086 0.49611 0.0
C751 C 0.00524 0.59856 0.48669 0.0
C752 C 0.01734 0.63033 0.49192 0.0
C753 C 0.0462 0.64437 0.50745 0.0
C754 C 0.06287 0.62674 0.51712 0.0
C755 C 0.05002 0.59458 0.51105 0.0
H756 H 0.52843 0.22182 0.05714 0.0
H757 H 0.57072 0.21081 0.14994 0.0
H758 H 0.57562 0.26185 0.16881 0.0
H759 H 0.57778 0.29684 0.04368 0.0
H760 H 0.5501 0.31016 0.02667 0.0
H761 H 0.54363 0.27024 0.02321 0.0
H762 H 0.49101 0.25475 0.05298 0.0
H763 H 0.49734 0.29479 0.05649 0.0
H764 H 0.48917 0.27092 0.09353 0.0
H765 H 0.58323 0.31545 0.17456 0.0
H766 H 0.5963 0.37058 0.16516 0.0
H767 H 0.55032 0.34967 0.06847 0.0
C768 C 0.53779 0.22997 0.08181 0.0
C769 C 0.54776 0.21186 0.1029 0.0
C770 C 0.56148 0.22373 0.13423 0.0
C771 C 0.56446 0.25275 0.14514 0.0
C772 C 0.5541 0.27 0.12414 0.0
C773 C 0.54117 0.25926 0.09305 0.0
C774 C 0.5358 0.28427 0.07374 0.0
C775 C 0.55285 0.29076 0.03984 0.0
C776 C 0.50127 0.27567 0.0689 0.0
C777 C 0.5496 0.31113 0.09794 0.0
C778 C 0.55918 0.30198 0.12723 0.0
C779 C 0.5753 0.32288 0.15209 0.0
C780 C 0.58274 0.35414 0.14648 0.0
C781 C 0.57408 0.36422 0.11627 0.0
C782 C 0.5565 0.34239 0.09214 0.0
H783 H 0.30905 0.55234 0.62077 0.0
H784 H 0.2856 0.49505 0.53179 0.0
H785 H 0.23562 0.4999 0.52862 0.0
H786 H 0.22965 0.53353 0.656 0.0
H787 H 0.23954 0.57326 0.66652 0.0
H788 H 0.26861 0.55785 0.66736 0.0
H789 H 0.30162 0.60114 0.62659 0.0
H790 H 0.27222 0.61594 0.62515 0.0
H791 H 0.28564 0.60534 0.58672 0.0
H792 H 0.19149 0.51545 0.5315 0.0
H793 H 0.15982 0.5457 0.53455 0.0
H794 H 0.21546 0.59874 0.61733 0.0
C795 C 0.29267 0.53979 0.60155 0.0
C796 C 0.30013 0.52209 0.57742 0.0
C797 C 0.27947 0.50768 0.55114 0.0
C798 C 0.25113 0.51029 0.54928 0.0
C799 C 0.24449 0.52829 0.57325 0.0
C800 C 0.26491 0.54322 0.59863 0.0
C801 C 0.25539 0.56614 0.61682 0.0
C802 C 0.24785 0.55712 0.65388 0.0
C803 C 0.28018 0.59907 0.6136 0.0
C804 C 0.22679 0.56229 0.59725 0.0
C805 C 0.22041 0.53966 0.57297 0.0
C806 C 0.19606 0.53297 0.55063 0.0
C807 C 0.17821 0.55033 0.55257 0.0
C808 C 0.18524 0.57461 0.57617 0.0
C809 C 0.20947 0.58021 0.5992 0.0
H810 H 0.78787 0.30483 0.09952 0.0
H811 H 0.81035 0.28451 0.99942 0.0
H812 H 0.76145 0.23789 0.99764 0.0
H813 H 0.74426 0.226 0.13118 0.0
H814 H 0.71672 0.23752 0.15151 0.0
H815 H 0.75564 0.26503 0.14621 0.0
H816 H 0.73444 0.30116 0.116 0.0
H817 H 0.69582 0.27277 0.12039 0.0
H818 H 0.71056 0.28732 0.07933 0.0
H819 H 0.70823 0.19442 0.00662 0.0
H820 H 0.65464 0.16178 0.02264 0.0
H821 H 0.66605 0.21418 0.11481 0.0
C822 C 0.78282 0.29002 0.07762 0.0
C823 C 0.8032 0.29749 0.05001 0.0
C824 C 0.79526 0.27863 0.02106 0.0
C825 C 0.7676 0.25216 0.01993 0.0
C826 C 0.7478 0.2455 0.04759 0.0
C827 C 0.75498 0.26422 0.07572 0.0
C828 C 0.72827 0.25473 0.10012 0.0
C829 C 0.7368 0.24527 0.13429 0.0
C830 C 0.71659 0.28052 0.10418 0.0
C831 C 0.70511 0.2273 0.08184 0.0
C832 C 0.71676 0.22207 0.05171 0.0
C833 C 0.69903 0.1983 0.03024 0.0
C834 C 0.66862 0.17979 0.03961 0.0
C835 C 0.6561 0.18526 0.07007 0.0
C836 C 0.67489 0.20917 0.09148 0.0
H837 H 0.47142 0.77104 0.53986 0.0
H838 H 0.43976 0.78103 0.63957 0.0
H839 H 0.43515 0.72937 0.65447 0.0
H840 H 0.41548 0.69587 0.53028 0.0
H841 H 0.43882 0.68115 0.50619 0.0
H842 H 0.44666 0.72153 0.50495 0.0
H843 H 0.50269 0.73441 0.52359 0.0
H844 H 0.49492 0.69393 0.52517 0.0
H845 H 0.50982 0.7178 0.56171 0.0
H846 H 0.43141 0.67756 0.65907 0.0
H847 H 0.41545 0.62233 0.64932 0.0
H848 H 0.44207 0.63981 0.54442 0.0
C849 C 0.46444 0.76247 0.56506 0.0
C850 C 0.4585 0.78099 0.58963 0.0
C851 C 0.44696 0.76824 0.62139 0.0
C852 C 0.44404 0.73877 0.63004 0.0
C853 C 0.45144 0.72155 0.60609 0.0
C854 C 0.46036 0.73228 0.57385 0.0
C855 C 0.46118 0.70652 0.55152 0.0
C856 C 0.43922 0.70094 0.52147 0.0
C857 C 0.49412 0.71358 0.5398 0.0
C858 C 0.45006 0.67959 0.57604 0.0
C859 C 0.44596 0.68948 0.60766 0.0
C860 C 0.43455 0.66941 0.6345 0.0
C861 C 0.42549 0.63806 0.62866 0.0
C862 C 0.42742 0.62686 0.59614 0.0
C863 C 0.44087 0.6479 0.56963 0.0
H864 H 0.69005 0.44832 0.11983 0.0
H865 H 0.69784 0.48632 0.01969 0.0
H866 H 0.74866 0.48366 0.01307 0.0
H867 H 0.77319 0.4778 0.14357 0.0
H868 H 0.76804 0.44164 0.16263 0.0
H869 H 0.73694 0.45425 0.16268 0.0
H870 H 0.70202 0.40297 0.13416 0.0
H871 H 0.73322 0.39065 0.13357 0.0
H872 H 0.71397 0.39208 0.09496 0.0
H873 H 0.79619 0.4731 0.01598 0.0
H874 H 0.83241 0.4481 0.02339 0.0
H875 H 0.78918 0.40961 0.11834 0.0
C876 C 0.70317 0.45717 0.09708 0.0
C877 C 0.69115 0.46893 0.0708 0.0
C878 C 0.70753 0.47838 0.04042 0.0
C879 C 0.73631 0.47699 0.03659 0.0
C880 C 0.74757 0.46501 0.06296 0.0
C881 C 0.73119 0.4547 0.09239 0.0
C882 C 0.74509 0.43727 0.11403 0.0
C883 C 0.75649 0.45375 0.14772 0.0
C884 C 0.72222 0.40377 0.11947 0.0
C885 C 0.77162 0.43894 0.09195 0.0
C886 C 0.77322 0.45591 0.06317 0.0
C887 C 0.79527 0.45994 0.0385 0.0
C888 C 0.81575 0.44569 0.04297 0.0
C889 C 0.81347 0.42693 0.07142 0.0
C890 C 0.79141 0.4239 0.09642 0.0
H891 H 0.2207 0.70078 0.59642 0.0
H892 H 0.2014 0.72013 0.49471 0.0
H893 H 0.25125 0.76561 0.49314 0.0
H894 H 0.26626 0.77973 0.62691 0.0
H895 H 0.29237 0.76719 0.64865 0.0
H896 H 0.25307 0.74081 0.64273 0.0
H897 H 0.27329 0.70282 0.6146 0.0
H898 H 0.31227 0.73027 0.61946 0.0
H899 H 0.29801 0.71533 0.57837 0.0
H900 H 0.30487 0.80852 0.50293 0.0
H901 H 0.35861 0.83994 0.51974 0.0
H902 H 0.34403 0.78829 0.61273 0.0
C903 C 0.22669 0.71514 0.57416 0.0
C904 C 0.20684 0.70779 0.54608 0.0
C905 C 0.21602 0.72598 0.51672 0.0
C906 C 0.24424 0.75182 0.51571 0.0
C907 C 0.26342 0.75848 0.54389 0.0
C908 C 0.25514 0.74025 0.57237 0.0
C909 C 0.28136 0.74938 0.5974 0.0
C910 C 0.27268 0.75988 0.63091 0.0
C911 C 0.29185 0.72288 0.60275 0.0
C912 C 0.30553 0.77604 0.57904 0.0
C913 C 0.29475 0.78129 0.5484 0.0
C914 C 0.3134 0.80457 0.52692 0.0
C915 C 0.34389 0.82244 0.53676 0.0
C916 C 0.35559 0.81672 0.56762 0.0
C917 C 0.33584 0.79343 0.58906 0.0
H918 H 0.76718 0.43059 0.38987 0.0
H919 H 0.79414 0.49175 0.47571 0.0
H920 H 0.74125 0.49006 0.47936 0.0
H921 H 0.70742 0.45187 0.35132 0.0
H922 H 0.68403 0.41211 0.34327 0.0
H923 H 0.72514 0.42495 0.34434 0.0
H924 H 0.71722 0.38222 0.38926 0.0
H925 H 0.67642 0.37175 0.3891 0.0
H926 H 0.6976 0.38285 0.42789 0.0
H927 H 0.68423 0.47879 0.47507 0.0
H928 H 0.62787 0.45585 0.46659 0.0
H929 H 0.63879 0.39872 0.3866 0.0
C930 C 0.76209 0.4444 0.40871 0.0
C931 C 0.7847 0.46234 0.43169 0.0
C932 C 0.77709 0.47865 0.45737 0.0
C933 C 0.74723 0.47781 0.45953 0.0
C934 C 0.72524 0.45968 0.4365 0.0
C935 C 0.7323 0.44292 0.41187 0.0
C936 C 0.70384 0.42134 0.3938 0.0
C937 C 0.70528 0.42803 0.35592 0.0
C938 C 0.69846 0.38756 0.40043 0.0
C939 C 0.67979 0.42956 0.41095 0.0
C940 C 0.69241 0.45165 0.43554 0.0
C941 C 0.67417 0.46168 0.45568 0.0
C942 C 0.64223 0.44857 0.45067 0.0
C943 C 0.62899 0.42569 0.42577 0.0
C944 C 0.64819 0.41644 0.40555 0.0
H945 H 0.2736 0.78927 0.97362 0.0
H946 H 0.3034 0.8079 0.86994 0.0
H947 H 0.26067 0.76093 0.85192 0.0
H948 H 0.25729 0.70938 0.96711 0.0
H949 H 0.22452 0.69645 0.99479 0.0
H950 H 0.25424 0.73439 -0.0002 0.0
H951 H 0.21374 0.75794 0.99421 0.0
H952 H 0.18391 0.71998 0.98894 0.0
H953 H 0.18931 0.74922 0.95767 0.0
H954 H 0.21685 0.71277 0.84394 0.0
H955 H 0.18083 0.65871 0.84715 0.0
H956 H 0.18017 0.66474 0.95604 0.0
C957 C 0.27049 0.78368 0.94711 0.0
C958 C 0.29054 0.80356 0.92281 0.0
C959 C 0.28706 0.79436 0.88867 0.0
C960 C 0.26292 0.76751 0.87816 0.0
C961 C 0.24271 0.74915 0.90222 0.0
C962 C 0.24658 0.75613 0.9361 0.0
C963 C 0.22396 0.72957 0.95665 0.0
C964 C 0.24103 0.71668 0.98102 0.0
C965 C 0.20139 0.73979 0.97549 0.0
C966 C 0.20766 0.70647 0.92896 0.0
C967 C 0.21837 0.71906 0.8978 0.0
C968 C 0.2082 0.70258 0.86815 0.0
C969 C 0.18764 0.67184 0.87025 0.0
C970 C 0.17755 0.65749 0.90175 0.0
C971 C 0.18695 0.6753 0.93158 0.0
H972 H 0.56382 0.17954 0.44732 0.0
H973 H 0.60857 0.19988 0.35 0.0
H974 H 0.58539 0.23713 0.33882 0.0
H975 H 0.49259 0.1936 0.42242 0.0
H976 H 0.49214 0.21135 0.46238 0.0
H977 H 0.50564 0.18083 0.45972 0.0
H978 H 0.55696 0.2163 0.48747 0.0
H979 H 0.54379 0.24689 0.49 0.0
H980 H 0.57928 0.25313 0.4687 0.0
H981 H 0.56625 0.2778 0.34206 0.0
H982 H 0.55193 0.32006 0.35927 0.0
H983 H 0.51971 0.27559 0.45521 0.0
C984 C 0.56763 0.19099 0.42315 0.0
C985 C 0.58756 0.18667 0.39926 0.0
C986 C 0.59315 0.20281 0.36844 0.0
C987 C 0.57995 0.22384 0.36182 0.0
C988 C 0.56133 0.22854 0.38637 0.0
C989 C 0.55497 0.21252 0.4164 0.0
C990 C 0.5379 0.22516 0.44033 0.0
C991 C 0.50512 0.2013 0.44658 0.0
C992 C 0.55555 0.23602 0.47357 0.0
C993 C 0.53751 0.25198 0.4199 0.0
C994 C 0.55035 0.25282 0.38848 0.0
C995 C 0.55525 0.27684 0.36612 0.0
C996 C 0.54694 0.30069 0.37608 0.0
C997 C 0.53355 0.3003 0.40796 0.0
C998 C 0.5289 0.27573 0.43026 0.0
H999 H 0.22224 0.53697 0.94164 0.0
H1000 H 0.21216 0.57217 0.8439 0.0
H1001 H 0.26478 0.57959 0.82907 0.0
H1002 H 0.29454 0.59083 0.95659 0.0
H1003 H 0.30944 0.56599 0.97758 0.0
H1004 H 0.26892 0.5568 0.97815 0.0
H1005 H 0.25803 0.50307 0.95233 0.0
H1006 H 0.2987 0.51218 0.95229 0.0
H1007 H 0.27699 0.50055 0.91388 0.0
H1008 H 0.3193 0.59089 0.82752 0.0
H1009 H 0.37429 0.60789 0.84053 0.0
H1010 H 0.35143 0.56645 0.93948 0.0
C1011 C 0.23101 0.54529 0.91683 0.0
C1012 C 0.21285 0.55258 0.89322 0.0
C1013 C 0.22532 0.565 0.86161 0.0
C1014 C 0.2552 0.56936 0.85298 0.0
C1015 C 0.27256 0.56168 0.8765 0.0
C1016 C 0.2611 0.54998 0.90785 0.0
C1017 C 0.28609 0.54766 0.9299 0.0
C1018 C 0.28997 0.56645 0.96246 0.0
C1019 C 0.27956 0.51385 0.93756 0.0
C1020 C 0.3136 0.56177 0.90681 0.0
C1021 C 0.30499 0.56888 0.87582 0.0
C1022 C 0.32637 0.58487 0.85137 0.0
C1023 C 0.35751 0.5946 0.85905 0.0
C1024 C 0.36689 0.58829 0.89088 0.0
C1025 C 0.3447 0.57093 0.9147 0.0
H1026 H 0.70837 0.21615 0.39844 0.0
H1027 H 0.72113 0.19562 0.50188 0.0
H1028 H 0.76571 0.246 0.50665 0.0
H1029 H 0.78917 0.26364 0.37505 0.0
H1030 H 0.77792 0.28987 0.35153 0.0
H1031 H 0.75187 0.25011 0.35522 0.0
H1032 H 0.71062 0.26796 0.37891 0.0
H1033 H 0.73722 0.30751 0.37602 0.0
H1034 H 0.7194 0.29216 0.41573 0.0
H1035 H 0.80804 0.30072 0.49998 0.0
H1036 H 0.83848 0.3555 0.48556 0.0
H1037 H 0.79305 0.34127 0.38874 0.0
C1038 C 0.7212 0.22194 0.42176 0.0
C1039 C 0.7122 0.20164 0.44945 0.0
C1040 C 0.72832 0.21058 0.48016 0.0
C1041 C 0.75364 0.23911 0.483 0.0
C1042 C 0.76186 0.25882 0.45519 0.0
C1043 C 0.74571 0.25067 0.4253 0.0
C1044 C 0.75587 0.27736 0.40078 0.0
C1045 C 0.7695 0.26974 0.36874 0.0
C1046 C 0.7292 0.2868 0.39239 0.0
C1047 C 0.78039 0.30185 0.42131 0.0
C1048 C 0.78407 0.29068 0.45237 0.0
C1049 C 0.80531 0.30954 0.47566 0.0
C1050 C 0.82265 0.34061 0.46721 0.0
C1051 C 0.81821 0.35267 0.43602 0.0
C1052 C 0.79706 0.33276 0.41276 0.0
H1053 H 0.45268 0.70541 0.88007 0.0
H1054 H 0.49027 0.7191 0.98071 0.0
H1055 H 0.48682 0.76986 0.98328 0.0
H1056 H 0.48139 0.7887 0.85227 0.0
H1057 H 0.44542 0.78223 0.83197 0.0
H1058 H 0.45903 0.75179 0.83368 0.0
H1059 H 0.4083 0.71585 0.86168 0.0
H1060 H 0.39433 0.74589 0.8602 0.0
H1061 H 0.39581 0.72802 0.89979 0.0
H1062 H 0.47312 0.81495 0.9779 0.0
H1063 H 0.44455 0.84761 0.96917 0.0
H1064 H 0.40899 0.80105 0.87476 0.0
C1065 C 0.46148 0.71991 0.90195 0.0
C1066 C 0.4731 0.70939 0.92965 0.0
C1067 C 0.48245 0.72758 0.95889 0.0
C1068 C 0.4806 0.75636 0.96043 0.0
C1069 C 0.46838 0.76593 0.93291 0.0
C1070 C 0.45862 0.74805 0.90431 0.0
C1071 C 0.44065 0.76029 0.88128 0.0
C1072 C 0.45765 0.77142 0.84782 0.0
C1073 C 0.40784 0.73608 0.87543 0.0
C1074 C 0.4406 0.78705 0.90205 0.0
C1075 C 0.45777 0.79057 0.93106 0.0
C1076 C 0.45993 0.81264 0.95512 0.0
C1077 C 0.44353 0.83107 0.9499 0.0
C1078 C 0.42447 0.8268 0.92129 0.0
C1079 C 0.42351 0.8049 0.89675 0.0
loop_
_geom_bond_atom_site_label_1
_geom_bond_atom_site_label_2
_geom_bond_distance
_geom_bond_site_symmetry_2
_ccdc_geom_bond_type
Mn0 O5 2.095 . S
Mn0 O15 2.162 . S
Mn0 O16 2.297 . S
Mn0 O24 2.385 . S
Mn0 O25 2.209 . S
Mn0 O26 2.094 . S
Mn1 O6 2.121 . S
Mn1 N8 2.257 . S
Mn1 N17 2.282 . S
Mn1 O25 2.215 . S
Mn1 O27 2.117 . S
C2 O24 1.234 . S
C2 O25 1.283 . S
C3 O15 1.281 . S
C3 O16 1.236 . S
C4 O26 1.240 . S
C4 O27 1.264 . S
O5 Mn0 2.095 . S
O5 C14 1.250 . S
O6 Mn1 2.121 . S
O6 C14 1.258 . S
C7 N8 1.326 . S
C7 C11 1.460 . S
C7 H13 0.929 . S
N8 Mn1 2.257 . S
N8 C7 1.326 . S
N8 C12 1.362 . S
C9 C10 1.258 . S
C9 C12 1.431 . S
C9 C29 1.449 . S
C10 C9 1.258 . S
C10 C11 1.477 . S
C10 H30 0.931 . S
C11 C7 1.460 . S
C11 C10 1.477 . S
C11 H31 0.930 . S
C12 N8 1.362 . S
C12 C9 1.431 . S
C12 C22 1.476 . S
H13 C7 0.929 . S
C14 O5 1.250 . S
C14 O6 1.258 . S
O15 Mn0 2.162 . S
O15 C3 1.281 . S
O16 Mn0 2.297 . S
O16 C3 1.236 . S
N17 Mn1 2.282 . S
N17 C18 1.328 . S
N17 C22 1.318 . S
C18 N17 1.328 . S
C18 C19 1.467 . S
C18 H23 0.929 . S
C19 C18 1.467 . S
C19 C20 1.298 . S
C19 H32 0.913 1_554 S
C20 C19 1.298 . S
C20 C21 1.373 . S
C20 H33 0.929 1_554 S
C21 C20 1.373 . S
C21 C22 1.396 . S
C21 C28 1.403 . S
C22 C12 1.476 . S
C22 N17 1.318 . S
C22 C21 1.396 . S
H23 C18 0.929 . S
O24 Mn0 2.385 . S
O24 C2 1.234 . S
O25 Mn0 2.209 . S
O25 Mn1 2.215 . S
O25 C2 1.283 . S
O26 Mn0 2.094 . S
O26 C4 1.240 . S
O27 Mn1 2.117 . S
O27 C4 1.264 . S
C28 C21 1.403 . S
C28 C29 1.399 . S
C28 H34 0.929 . S
C29 C9 1.449 . S
C29 C28 1.399 . S
C29 H35 0.930 . S
H30 C10 0.931 . S
H31 C11 0.930 . S
H32 C19 0.913 1_556 S
H33 C20 0.929 1_556 S
H34 C28 0.929 . S
H35 C29 0.930 . S
Mn36 O41 2.095 . S
Mn36 O51 2.162 . S
Mn36 O52 2.297 . S
Mn36 O60 2.385 . S
Mn36 O61 2.209 . S
Mn36 O62 2.094 . S
Mn37 O42 2.121 . S
Mn37 N44 2.257 . S
Mn37 N53 2.282 . S
Mn37 O61 2.215 . S
Mn37 O63 2.117 . S
C38 O60 1.234 . S
C38 O61 1.283 . S
C39 O51 1.281 . S
C39 O52 1.236 . S
C40 O62 1.240 . S
C40 O63 1.264 . S
O41 Mn36 2.095 . S
O41 C50 1.250 . S
O42 Mn37 2.121 . S
O42 C50 1.258 . S
C43 N44 1.326 . S
C43 C47 1.460 . S
C43 H49 0.929 . S
N44 Mn37 2.257 . S
N44 C43 1.326 . S
N44 C48 1.362 . S
C45 C46 1.258 . S
C45 C48 1.431 . S
C45 C65 1.449 . S
C46 C45 1.258 . S
C46 C47 1.477 . S
C46 H66 0.931 . S
C47 C43 1.460 . S
C47 C46 1.477 . S
C47 H67 0.930 . S
C48 N44 1.362 . S
C48 C45 1.431 . S
C48 C58 1.476 . S
H49 C43 0.929 . S
C50 O41 1.250 . S
C50 O42 1.258 . S
O51 Mn36 2.162 . S
O51 C39 1.281 . S
O52 Mn36 2.297 . S
O52 C39 1.236 . S
N53 Mn37 2.282 . S
N53 C54 1.328 . S
N53 C58 1.318 . S
C54 N53 1.328 . S
C54 C55 1.457 . S
C54 H59 0.929 . S
C55 C54 1.457 . S
C55 C56 1.291 . S
C55 H68 0.931 . S
C56 C55 1.291 . S
C56 C57 1.373 . S
C56 H69 0.929 . S
C57 C56 1.373 . S
C57 C58 1.396 . S
C57 C64 1.403 . S
C58 C48 1.476 . S
C58 N53 1.318 . S
C58 C57 1.396 . S
H59 C54 0.929 . S
O60 Mn36 2.385 . S
O60 C38 1.234 . S
O61 Mn36 2.209 . S
O61 Mn37 2.215 . S
O61 C38 1.283 . S
O62 Mn36 2.094 . S
O62 C40 1.240 . S
O63 Mn37 2.117 . S
O63 C40 1.264 . S
C64 C57 1.403 . S
C64 C65 1.399 . S
C64 H70 0.929 . S
C65 C45 1.449 . S
C65 C64 1.399 . S
C65 H71 0.930 . S
H66 C46 0.931 . S
H67 C47 0.930 . S
H68 C55 0.931 . S
H69 C56 0.929 . S
H70 C64 0.929 . S
H71 C65 0.930 . S
Mn72 O77 2.095 . S
Mn72 O87 2.162 . S
Mn72 O88 2.297 . S
Mn72 O96 2.385 . S
Mn72 O97 2.209 . S
Mn72 O98 2.094 . S
Mn73 O78 2.121 . S
Mn73 N80 2.257 . S
Mn73 N89 2.282 . S
Mn73 O97 2.215 . S
Mn73 O99 2.117 . S
C74 O96 1.234 . S
C74 O97 1.283 . S
C75 O87 1.281 . S
C75 O88 1.236 . S
C76 O98 1.240 . S
C76 O99 1.264 . S
O77 Mn72 2.095 . S
O77 C86 1.250 . S
O78 Mn73 2.121 . S
O78 C86 1.258 . S
C79 N80 1.326 . S
C79 C83 1.460 . S
C79 H85 0.929 . S
N80 Mn73 2.257 . S
N80 C79 1.326 . S
N80 C84 1.362 . S
C81 C82 1.258 . S
C81 C84 1.431 . S
C81 C101 1.449 . S
C82 C81 1.258 . S
C82 C83 1.477 . S
C82 H102 0.931 . S
C83 C79 1.460 . S
C83 C82 1.477 . S
C83 H103 0.930 . S
C84 N80 1.362 . S
C84 C81 1.431 . S
C84 C94 1.476 . S
H85 C79 0.929 . S
C86 O77 1.250 . S
C86 O78 1.258 . S
O87 Mn72 2.162 . S
O87 C75 1.281 . S
O88 Mn72 2.297 . S
O88 C75 1.236 . S
N89 Mn73 2.282 . S
N89 C90 1.328 . S
N89 C94 1.318 . S
C90 N89 1.328 . S
C90 C91 1.457 1_554 S
C90 H95 0.929 1_554 S
C91 C90 1.457 1_556 S
C91 C92 1.291 . S
C91 H104 0.931 . S
C92 C91 1.291 . S
C92 C93 1.373 1_556 S
C92 H105 0.929 . S
C93 C92 1.373 1_554 S
C93 C94 1.396 . S
C93 C100 1.403 . S
C94 C84 1.476 . S
C94 N89 1.318 . S
C94 C93 1.396 . S
H95 C90 0.929 1_556 S
O96 Mn72 2.385 . S
O96 C74 1.234 . S
O97 Mn72 2.209 . S
O97 Mn73 2.215 . S
O97 C74 1.283 . S
O98 Mn72 2.094 . S
O98 C76 1.240 . S
O99 Mn73 2.117 . S
O99 C76 1.264 . S
C100 C93 1.403 . S
C100 C101 1.399 . S
C100 H106 0.929 . S
C101 C81 1.449 . S
C101 C100 1.399 . S
C101 H107 0.930 . S
H102 C82 0.931 . S
H103 C83 0.930 . S
H104 C91 0.931 . S
H105 C92 0.929 . S
H106 C100 0.929 . S
H107 C101 0.930 . S
Mn108 O113 2.095 . S
Mn108 O123 2.162 . S
Mn108 O124 2.297 . S
Mn108 O132 2.385 . S
Mn108 O133 2.209 . S
Mn108 O134 2.094 . S
Mn109 O114 2.121 . S
Mn109 N116 2.257 . S
Mn109 N125 2.282 . S
Mn109 O133 2.215 . S
Mn109 O135 2.117 . S
C110 O132 1.234 . S
C110 O133 1.283 . S
C111 O123 1.281 . S
C111 O124 1.236 . S
C112 O134 1.240 . S
C112 O135 1.264 . S
O113 Mn108 2.095 . S
O113 C122 1.250 . S
O114 Mn109 2.121 . S
O114 C122 1.258 . S
C115 N116 1.326 . S
C115 C119 1.460 . S
C115 H121 0.929 . S
N116 Mn109 2.257 . S
N116 C115 1.326 . S
N116 C120 1.362 . S
C117 C118 1.258 . S
C117 C120 1.431 . S
C117 C137 1.449 . S
C118 C117 1.258 . S
C118 C119 1.477 . S
C118 H138 0.931 . S
C119 C115 1.460 . S
C119 C118 1.477 . S
C119 H139 0.930 . S
C120 N116 1.362 . S
C120 C117 1.431 . S
C120 C130 1.476 . S
H121 C115 0.929 . S
C122 O113 1.250 . S
C122 O114 1.258 . S
O123 Mn108 2.162 . S
O123 C111 1.281 . S
O124 Mn108 2.297 . S
O124 C111 1.236 . S
N125 Mn109 2.282 . S
N125 C126 1.328 . S
N125 C130 1.318 . S
C126 N125 1.328 . S
C126 C127 1.457 . S
C126 H131 0.929 . S
C127 C126 1.457 . S
C127 C128 1.291 . S
C127 H140 0.931 . S
C128 C127 1.291 . S
C128 C129 1.373 . S
C128 H141 0.929 . S
C129 C128 1.373 . S
C129 C130 1.396 . S
C129 C136 1.403 . S
C130 C120 1.476 . S
C130 N125 1.318 . S
C130 C129 1.396 . S
H131 C126 0.929 . S
O132 Mn108 2.385 . S
O132 C110 1.234 . S
O133 Mn108 2.209 . S
O133 Mn109 2.215 . S
O133 C110 1.283 . S
O134 Mn108 2.094 . S
O134 C112 1.240 . S
O135 Mn109 2.117 . S
O135 C112 1.264 . S
C136 C129 1.403 . S
C136 C137 1.399 . S
C136 H142 0.929 . S
C137 C117 1.449 . S
C137 C136 1.399 . S
C137 H143 0.930 . S
H138 C118 0.931 . S
H139 C119 0.930 . S
H140 C127 0.931 . S
H141 C128 0.929 . S
H142 C136 0.929 . S
H143 C137 0.930 . S
Mn144 O149 2.095 . S
Mn144 O159 2.162 . S
Mn144 O160 2.297 . S
Mn144 O168 2.385 . S
Mn144 O169 2.209 . S
Mn144 O170 2.094 . S
Mn145 O150 2.121 . S
Mn145 N152 2.257 . S
Mn145 N161 2.282 . S
Mn145 O169 2.215 . S
Mn145 O171 2.117 . S
C146 O168 1.234 . S
C146 O169 1.283 . S
C147 O159 1.281 . S
C147 O160 1.236 . S
C148 O170 1.240 . S
C148 O171 1.264 . S
O149 Mn144 2.095 . S
O149 C158 1.250 . S
O150 Mn145 2.121 . S
O150 C158 1.258 . S
C151 N152 1.326 . S
C151 C155 1.460 . S
C151 H157 0.929 . S
N152 Mn145 2.257 . S
N152 C151 1.326 . S
N152 C156 1.362 . S
C153 C154 1.258 . S
C153 C156 1.431 . S
C153 C173 1.449 . S
C154 C153 1.258 . S
C154 C155 1.477 . S
C154 H174 0.931 . S
C155 C151 1.460 . S
C155 C154 1.477 . S
C155 H175 0.930 . S
C156 N152 1.362 . S
C156 C153 1.431 . S
C156 C166 1.476 . S
H157 C151 0.929 . S
C158 O149 1.250 . S
C158 O150 1.258 . S
O159 Mn144 2.162 . S
O159 C147 1.281 . S
O160 Mn144 2.297 . S
O160 C147 1.236 . S
N161 Mn145 2.282 . S
N161 C162 1.328 . S
N161 C166 1.318 . S
C162 N161 1.328 . S
C162 C163 1.457 1_554 S
C162 H167 0.929 . S
C163 C162 1.457 1_556 S
C163 C164 1.291 1_556 S
C163 H176 0.931 . S
C164 C163 1.291 1_554 S
C164 C165 1.373 . S
C164 H177 0.929 1_554 S
C165 C164 1.373 . S
C165 C166 1.396 . S
C165 C172 1.403 . S
C166 C156 1.476 . S
C166 N161 1.318 . S
C166 C165 1.396 . S
H167 C162 0.929 . S
O168 Mn144 2.385 . S
O168 C146 1.234 . S
O169 Mn144 2.209 . S
O169 Mn145 2.215 . S
O169 C146 1.283 . S
O170 Mn144 2.094 . S
O170 C148 1.240 . S
O171 Mn145 2.117 . S
O171 C148 1.264 . S
C172 C165 1.403 . S
C172 C173 1.399 . S
C172 H178 0.929 . S
C173 C153 1.449 . S
C173 C172 1.399 . S
C173 H179 0.930 . S
H174 C154 0.931 . S
H175 C155 0.930 . S
H176 C163 0.931 . S
H177 C164 0.929 1_556 S
H178 C172 0.929 . S
H179 C173 0.930 . S
Mn180 O185 2.095 . S
Mn180 O195 2.162 . S
Mn180 O196 2.297 . S
Mn180 O204 2.385 . S
Mn180 O205 2.209 . S
Mn180 O206 2.094 . S
Mn181 O186 2.121 . S
Mn181 N188 2.257 . S
Mn181 N197 2.282 . S
Mn181 O205 2.215 . S
Mn181 O207 2.117 . S
C182 O204 1.234 . S
C182 O205 1.283 . S
C183 O195 1.281 . S
C183 O196 1.236 . S
C184 O206 1.240 . S
C184 O207 1.264 . S
O185 Mn180 2.095 . S
O185 C194 1.250 . S
O186 Mn181 2.121 . S
O186 C194 1.258 . S
C187 N188 1.326 . S
C187 C191 1.460 . S
C187 H193 0.929 . S
N188 Mn181 2.257 . S
N188 C187 1.326 . S
N188 C192 1.362 . S
C189 C190 1.258 . S
C189 C192 1.431 . S
C189 C209 1.449 . S
C190 C189 1.258 . S
C190 C191 1.477 . S
C190 H210 0.931 . S
C191 C187 1.460 . S
C191 C190 1.477 . S
C191 H211 0.930 . S
C192 N188 1.362 . S
C192 C189 1.431 . S
C192 C202 1.476 . S
H193 C187 0.929 . S
C194 O185 1.250 . S
C194 O186 1.258 . S
O195 Mn180 2.162 . S
O195 C183 1.281 . S
O196 Mn180 2.297 . S
O196 C183 1.236 . S
N197 Mn181 2.282 . S
N197 C198 1.328 . S
N197 C202 1.318 . S
C198 N197 1.328 . S
C198 C199 1.457 . S
C198 H203 0.929 . S
C199 C198 1.457 . S
C199 C200 1.291 . S
C199 H212 0.931 . S
C200 C199 1.291 . S
C200 C201 1.373 . S
C200 H213 0.929 . S
C201 C200 1.373 . S
C201 C202 1.396 . S
C201 C208 1.403 . S
C202 C192 1.476 . S
C202 N197 1.318 . S
C202 C201 1.396 . S
H203 C198 0.929 . S
O204 Mn180 2.385 . S
O204 C182 1.234 . S
O205 Mn180 2.209 . S
O205 Mn181 2.215 . S
O205 C182 1.283 . S
O206 Mn180 2.094 . S
O206 C184 1.240 . S
O207 Mn181 2.117 . S
O207 C184 1.264 . S
C208 C201 1.403 . S
C208 C209 1.399 . S
C208 H214 0.929 . S
C209 C189 1.449 . S
C209 C208 1.399 . S
C209 H215 0.930 . S
H210 C190 0.931 . S
H211 C191 0.930 . S
H212 C199 0.931 . S
H213 C200 0.929 . S
H214 C208 0.929 . S
H215 C209 0.930 . S
Mn216 O221 2.095 . S
Mn216 O231 2.162 . S
Mn216 O232 2.297 . S
Mn216 O240 2.385 . S
Mn216 O241 2.209 . S
Mn216 O242 2.094 . S
Mn217 O222 2.121 . S
Mn217 N224 2.257 . S
Mn217 N233 2.282 . S
Mn217 O241 2.215 . S
Mn217 O243 2.117 . S
C218 O240 1.234 . S
C218 O241 1.283 . S
C219 O231 1.281 . S
C219 O232 1.236 . S
C220 O242 1.240 . S
C220 O243 1.264 . S
O221 Mn216 2.095 . S
O221 C230 1.250 . S
O222 Mn217 2.121 . S
O222 C230 1.258 . S
C223 N224 1.326 . S
C223 C227 1.460 . S
C223 H229 0.929 . S
N224 Mn217 2.257 . S
N224 C223 1.326 . S
N224 C228 1.362 . S
C225 C226 1.258 . S
C225 C228 1.431 . S
C225 C245 1.449 . S
C226 C225 1.258 . S
C226 C227 1.477 . S
C226 H246 0.931 . S
C227 C223 1.460 . S
C227 C226 1.477 . S
C227 H247 0.930 . S
C228 N224 1.362 . S
C228 C225 1.431 . S
C228 C238 1.476 . S
H229 C223 0.929 . S
C230 O221 1.250 . S
C230 O222 1.258 . S
O231 Mn216 2.162 . S
O231 C219 1.281 . S
O232 Mn216 2.297 . S
O232 C219 1.236 . S
N233 Mn217 2.282 . S
N233 C234 1.328 . S
N233 C238 1.318 . S
C234 N233 1.328 . S
C234 C235 1.457 . S
C234 H239 0.929 . S
C235 C234 1.457 . S
C235 C236 1.291 . S
C235 H248 0.931 . S
C236 C235 1.291 . S
C236 C237 1.373 . S
C236 H249 0.929 . S
C237 C236 1.373 . S
C237 C238 1.396 . S
C237 C244 1.403 . S
C238 C228 1.476 . S
C238 N233 1.318 . S
C238 C237 1.396 . S
H239 C234 0.929 . S
O240 Mn216 2.385 . S
O240 C218 1.234 . S
O241 Mn216 2.209 . S
O241 Mn217 2.215 . S
O241 C218 1.283 . S
O242 Mn216 2.094 . S
O242 C220 1.240 . S
O243 Mn217 2.117 . S
O243 C220 1.264 . S
C244 C237 1.403 . S
C244 C245 1.399 . S
C244 H250 0.929 . S
C245 C225 1.449 . S
C245 C244 1.399 . S
C245 H251 0.930 . S
H246 C226 0.931 . S
H247 C227 0.930 . S
H248 C235 0.931 . S
H249 C236 0.929 . S
H250 C244 0.929 . S
H251 C245 0.930 . S
Mn252 O257 2.095 . S
Mn252 O267 2.162 . S
Mn252 O268 2.297 . S
Mn252 O276 2.385 . S
Mn252 O277 2.209 . S
Mn252 O278 2.094 . S
Mn253 O258 2.121 . S
Mn253 N260 2.257 . S
Mn253 N269 2.282 . S
Mn253 O277 2.215 . S
Mn253 O279 2.117 . S
C254 O276 1.234 . S
C254 O277 1.283 . S
C255 O267 1.281 . S
C255 O268 1.236 . S
C256 O278 1.240 . S
C256 O279 1.264 . S
O257 Mn252 2.095 . S
O257 C266 1.250 . S
O258 Mn253 2.121 . S
O258 C266 1.258 . S
C259 N260 1.326 . S
C259 C263 1.460 . S
C259 H265 0.929 . S
N260 Mn253 2.257 . S
N260 C259 1.326 . S
N260 C264 1.362 . S
C261 C262 1.258 . S
C261 C264 1.431 . S
C261 C281 1.449 . S
C262 C261 1.258 . S
C262 C263 1.477 . S
C262 H282 0.931 . S
C263 C259 1.460 . S
C263 C262 1.477 . S
C263 H283 0.930 . S
C264 N260 1.362 . S
C264 C261 1.431 . S
C264 C274 1.476 . S
H265 C259 0.929 . S
C266 O257 1.250 . S
C266 O258 1.258 . S
O267 Mn252 2.162 . S
O267 C255 1.281 . S
O268 Mn252 2.297 . S
O268 C255 1.236 . S
N269 Mn253 2.282 . S
N269 C270 1.328 . S
N269 C274 1.318 . S
C270 N269 1.328 . S
C270 C271 1.457 1_556 S
C270 H275 0.929 1_556 S
C271 C270 1.457 1_554 S
C271 C272 1.291 . S
C271 H284 0.931 . S
C272 C271 1.291 . S
C272 C273 1.373 1_554 S
C272 H285 0.929 . S
C273 C272 1.373 1_556 S
C273 C274 1.396 . S
C273 C280 1.403 . S
C274 C264 1.476 . S
C274 N269 1.318 . S
C274 C273 1.396 . S
H275 C270 0.929 1_554 S
O276 Mn252 2.385 . S
O276 C254 1.234 . S
O277 Mn252 2.209 . S
O277 Mn253 2.215 . S
O277 C254 1.283 . S
O278 Mn252 2.094 . S
O278 C256 1.240 . S
O279 Mn253 2.117 . S
O279 C256 1.264 . S
C280 C273 1.403 . S
C280 C281 1.399 . S
C280 H286 0.929 . S
C281 C261 1.449 . S
C281 C280 1.399 . S
C281 H287 0.930 . S
H282 C262 0.931 . S
H283 C263 0.930 . S
H284 C271 0.931 . S
H285 C272 0.929 . S
H286 C280 0.929 . S
H287 C281 0.930 . S
Mn288 O293 2.095 . S
Mn288 O303 2.162 . S
Mn288 O304 2.297 . S
Mn288 O312 2.385 . S
Mn288 O313 2.209 . S
Mn288 O314 2.094 . S
Mn289 O294 2.121 . S
Mn289 N296 2.257 . S
Mn289 N305 2.282 . S
Mn289 O313 2.215 . S
Mn289 O315 2.117 . S
C290 O312 1.234 . S
C290 O313 1.283 . S
C291 O303 1.281 . S
C291 O304 1.236 . S
C292 O314 1.240 . S
C292 O315 1.264 . S
O293 Mn288 2.095 . S
O293 C302 1.250 . S
O294 Mn289 2.121 . S
O294 C302 1.258 . S
C295 N296 1.326 . S
C295 C299 1.460 . S
C295 H301 0.929 . S
N296 Mn289 2.257 . S
N296 C295 1.326 . S
N296 C300 1.362 . S
C297 C298 1.258 . S
C297 C300 1.431 . S
C297 C317 1.449 . S
C298 C297 1.258 . S
C298 C299 1.477 . S
C298 H318 0.931 . S
C299 C295 1.460 . S
C299 C298 1.477 . S
C299 H319 0.930 . S
C300 N296 1.362 . S
C300 C297 1.431 . S
C300 C310 1.476 . S
H301 C295 0.929 . S
C302 O293 1.250 . S
C302 O294 1.258 . S
O303 Mn288 2.162 . S
O303 C291 1.281 . S
O304 Mn288 2.297 . S
O304 C291 1.236 . S
N305 Mn289 2.282 . S
N305 C306 1.328 . S
N305 C310 1.318 . S
C306 N305 1.328 . S
C306 C307 1.457 . S
C306 H311 0.929 . S
C307 C306 1.457 . S
C307 C308 1.291 . S
C307 H320 0.931 . S
C308 C307 1.291 . S
C308 C309 1.373 . S
C308 H321 0.929 . S
C309 C308 1.373 . S
C309 C310 1.396 . S
C309 C316 1.403 . S
C310 C300 1.476 . S
C310 N305 1.318 . S
C310 C309 1.396 . S
H311 C306 0.929 . S
O312 Mn288 2.385 . S
O312 C290 1.234 . S
O313 Mn288 2.209 . S
O313 Mn289 2.215 . S
O313 C290 1.283 . S
O314 Mn288 2.094 . S
O314 C292 1.240 . S
O315 Mn289 2.117 . S
O315 C292 1.264 . S
C316 C309 1.403 . S
C316 C317 1.399 . S
C316 H322 0.929 . S
C317 C297 1.449 . S
C317 C316 1.399 . S
C317 H323 0.930 . S
H318 C298 0.931 . S
H319 C299 0.930 . S
H320 C307 0.931 . S
H321 C308 0.929 . S
H322 C316 0.929 . S
H323 C317 0.930 . S
Mn324 O329 2.095 . S
Mn324 O339 2.162 . S
Mn324 O340 2.297 . S
Mn324 O348 2.385 . S
Mn324 O349 2.209 . S
Mn324 O350 2.094 . S
Mn325 O330 2.121 . S
Mn325 N332 2.257 . S
Mn325 N341 2.282 . S
Mn325 O349 2.215 . S
Mn325 O351 2.117 . S
C326 O348 1.234 . S
C326 O349 1.283 . S
C327 O339 1.281 . S
C327 O340 1.236 . S
C328 O350 1.240 . S
C328 O351 1.264 . S
O329 Mn324 2.095 . S
O329 C338 1.250 . S
O330 Mn325 2.121 . S
O330 C338 1.258 . S
C331 N332 1.326 . S
C331 C335 1.460 . S
C331 H337 0.929 . S
N332 Mn325 2.257 . S
N332 C331 1.326 . S
N332 C336 1.362 . S
C333 C334 1.258 . S
C333 C336 1.431 . S
C333 C353 1.449 . S
C334 C333 1.258 . S
C334 C335 1.477 . S
C334 H354 0.931 . S
C335 C331 1.460 . S
C335 C334 1.477 . S
C335 H355 0.930 . S
C336 N332 1.362 . S
C336 C333 1.431 . S
C336 C346 1.476 . S
H337 C331 0.929 . S
C338 O329 1.250 . S
C338 O330 1.258 . S
O339 Mn324 2.162 . S
O339 C327 1.281 . S
O340 Mn324 2.297 . S
O340 C327 1.236 . S
N341 Mn325 2.282 . S
N341 C342 1.328 . S
N341 C346 1.318 . S
C342 N341 1.328 . S
C342 C343 1.467 . S
C342 H347 0.929 . S
C343 C342 1.467 . S
C343 C344 1.298 . S
C343 H356 0.913 1_556 S
C344 C343 1.298 . S
C344 C345 1.373 . S
C344 H357 0.929 1_556 S
C345 C344 1.373 . S
C345 C346 1.396 . S
C345 C352 1.403 . S
C346 C336 1.476 . S
C346 N341 1.318 . S
C346 C345 1.396 . S
H347 C342 0.929 . S
O348 Mn324 2.385 . S
O348 C326 1.234 . S
O349 Mn324 2.209 . S
O349 Mn325 2.215 . S
O349 C326 1.283 . S
O350 Mn324 2.094 . S
O350 C328 1.240 . S
O351 Mn325 2.117 . S
O351 C328 1.264 . S
C352 C345 1.403 . S
C352 C353 1.399 . S
C352 H358 0.929 . S
C353 C333 1.449 . S
C353 C352 1.399 . S
C353 H359 0.930 . S
H354 C334 0.931 . S
H355 C335 0.930 . S
H356 C343 0.913 1_554 S
H357 C344 0.929 1_554 S
H358 C352 0.929 . S
H359 C353 0.930 . S
Mn360 O365 2.095 . S
Mn360 O375 2.162 . S
Mn360 O376 2.297 . S
Mn360 O384 2.385 . S
Mn360 O385 2.209 . S
Mn360 O386 2.094 . S
Mn361 O366 2.121 . S
Mn361 N368 2.257 . S
Mn361 N377 2.282 . S
Mn361 O385 2.215 . S
Mn361 O387 2.117 . S
C362 O384 1.234 . S
C362 O385 1.283 . S
C363 O375 1.281 . S
C363 O376 1.236 . S
C364 O386 1.240 . S
C364 O387 1.264 . S
O365 Mn360 2.095 . S
O365 C374 1.250 . S
O366 Mn361 2.121 . S
O366 C374 1.258 . S
C367 N368 1.326 . S
C367 C371 1.460 . S
C367 H373 0.929 . S
N368 Mn361 2.257 . S
N368 C367 1.326 . S
N368 C372 1.362 . S
C369 C370 1.258 . S
C369 C372 1.431 . S
C369 C389 1.449 . S
C370 C369 1.258 . S
C370 C371 1.477 . S
C370 H390 0.931 . S
C371 C367 1.460 . S
C371 C370 1.477 . S
C371 H391 0.930 . S
C372 N368 1.362 . S
C372 C369 1.431 . S
C372 C382 1.476 . S
H373 C367 0.929 . S
C374 O365 1.250 . S
C374 O366 1.258 . S
O375 Mn360 2.162 . S
O375 C363 1.281 . S
O376 Mn360 2.297 . S
O376 C363 1.236 . S
N377 Mn361 2.282 . S
N377 C378 1.328 . S
N377 C382 1.318 . S
C378 N377 1.328 . S
C378 C379 1.457 . S
C378 H383 0.929 . S
C379 C378 1.457 . S
C379 C380 1.291 . S
C379 H392 0.931 . S
C380 C379 1.291 . S
C380 C381 1.373 . S
C380 H393 0.929 . S
C381 C380 1.373 . S
C381 C382 1.396 . S
C381 C388 1.403 . S
C382 C372 1.476 . S
C382 N377 1.318 . S
C382 C381 1.396 . S
H383 C378 0.929 . S
O384 Mn360 2.385 . S
O384 C362 1.234 . S
O385 Mn360 2.209 . S
O385 Mn361 2.215 . S
O385 C362 1.283 . S
O386 Mn360 2.094 . S
O386 C364 1.240 . S
O387 Mn361 2.117 . S
O387 C364 1.264 . S
C388 C381 1.403 . S
C388 C389 1.399 . S
C388 H394 0.929 . S
C389 C369 1.449 . S
C389 C388 1.399 . S
C389 H395 0.930 . S
H390 C370 0.931 . S
H391 C371 0.930 . S
H392 C379 0.931 . S
H393 C380 0.929 . S
H394 C388 0.929 . S
H395 C389 0.930 . S
Mn396 O401 2.095 . S
Mn396 O411 2.162 . S
Mn396 O412 2.297 . S
Mn396 O420 2.385 . S
Mn396 O421 2.209 . S
Mn396 O422 2.094 . S
Mn397 O402 2.121 . S
Mn397 N404 2.257 . S
Mn397 N413 2.282 . S
Mn397 O421 2.215 . S
Mn397 O423 2.117 . S
C398 O420 1.234 . S
C398 O421 1.283 . S
C399 O411 1.281 . S
C399 O412 1.236 . S
C400 O422 1.240 . S
C400 O423 1.264 . S
O401 Mn396 2.095 . S
O401 C410 1.250 . S
O402 Mn397 2.121 . S
O402 C410 1.258 . S
C403 N404 1.326 . S
C403 C407 1.460 . S
C403 H409 0.929 . S
N404 Mn397 2.257 . S
N404 C403 1.326 . S
N404 C408 1.362 . S
C405 C406 1.258 . S
C405 C408 1.431 . S
C405 C425 1.449 . S
C406 C405 1.258 . S
C406 C407 1.477 . S
C406 H426 0.931 . S
C407 C403 1.460 . S
C407 C406 1.477 . S
C407 H427 0.930 . S
C408 N404 1.362 . S
C408 C405 1.431 . S
C408 C418 1.476 . S
H409 C403 0.929 . S
C410 O401 1.250 . S
C410 O402 1.258 . S
O411 Mn396 2.162 . S
O411 C399 1.281 . S
O412 Mn396 2.297 . S
O412 C399 1.236 . S
N413 Mn397 2.282 . S
N413 C414 1.328 . S
N413 C418 1.318 . S
C414 N413 1.328 . S
C414 C415 1.457 1_556 S
C414 H419 0.929 . S
C415 C414 1.457 1_554 S
C415 C416 1.291 1_554 S
C415 H428 0.931 . S
C416 C415 1.291 1_556 S
C416 C417 1.373 . S
C416 H429 0.929 1_556 S
C417 C416 1.373 . S
C417 C418 1.396 . S
C417 C424 1.403 . S
C418 C408 1.476 . S
C418 N413 1.318 . S
C418 C417 1.396 . S
H419 C414 0.929 . S
O420 Mn396 2.385 . S
O420 C398 1.234 . S
O421 Mn396 2.209 . S
O421 Mn397 2.215 . S
O421 C398 1.283 . S
O422 Mn396 2.094 . S
O422 C400 1.240 . S
O423 Mn397 2.117 . S
O423 C400 1.264 . S
C424 C417 1.403 . S
C424 C425 1.399 . S
C424 H430 0.929 . S
C425 C405 1.449 . S
C425 C424 1.399 . S
C425 H431 0.930 . S
H426 C406 0.931 . S
H427 C407 0.930 . S
H428 C415 0.931 . S
H429 C416 0.929 1_554 S
H430 C424 0.929 . S
H431 C425 0.930 . S
H432 C444 0.930 . S
H433 C446 0.930 . S
H434 C447 0.930 . S
H435 C451 0.959 . S
H436 C451 0.959 . S
H437 C451 0.961 . S
H438 C452 0.960 . S
H439 C452 0.961 . S
H440 C452 0.959 . S
H441 C455 0.929 . S
H442 C456 0.931 . S
H443 C458 0.930 . S
C444 H432 0.930 . S
C444 C445 1.399 . S
C444 C449 1.399 . S
C445 C444 1.399 . S
C445 C446 1.376 . S
C446 H433 0.930 . S
C446 C445 1.376 . S
C446 C447 1.388 . S
C447 H434 0.930 . S
C447 C446 1.388 . S
C447 C448 1.390 . S
C448 C447 1.390 . S
C448 C449 1.394 . S
C448 C454 1.465 . S
C449 C444 1.399 . S
C449 C448 1.394 . S
C449 C450 1.516 . S
C450 C449 1.516 . S
C450 C451 1.502 . S
C450 C452 1.561 . S
C450 C453 1.526 . S
C451 H435 0.959 . S
C451 H436 0.959 . S
C451 H437 0.961 . S
C451 C450 1.502 . S
C452 H438 0.960 . S
C452 H439 0.961 . S
C452 H440 0.959 . S
C452 C450 1.561 . S
C453 C450 1.526 . S
C453 C454 1.396 . S
C453 C458 1.390 . S
C454 C448 1.465 . S
C454 C453 1.396 . S
C454 C455 1.399 . S
C455 H441 0.929 . S
C455 C454 1.399 . S
C455 C456 1.385 . S
C456 H442 0.931 . S
C456 C455 1.385 . S
C456 C457 1.389 . S
C457 C456 1.389 . S
C457 C458 1.387 . S
C458 H443 0.930 . S
C458 C453 1.390 . S
C458 C457 1.387 . S
H459 C471 0.930 . S
H460 C473 0.930 . S
H461 C474 0.930 . S
H462 C478 0.959 . S
H463 C478 0.959 . S
H464 C478 0.961 . S
H465 C479 0.960 . S
H466 C479 0.961 . S
H467 C479 0.959 . S
H468 C482 0.929 . S
H469 C483 0.931 . S
H470 C485 0.930 . S
C471 H459 0.930 . S
C471 C472 1.399 . S
C471 C476 1.399 . S
C472 C471 1.399 . S
C472 C473 1.376 . S
C473 H460 0.930 . S
C473 C472 1.376 . S
C473 C474 1.388 . S
C474 H461 0.930 . S
C474 C473 1.388 . S
C474 C475 1.390 . S
C475 C474 1.390 . S
C475 C476 1.394 . S
C475 C481 1.465 . S
C476 C471 1.399 . S
C476 C475 1.394 . S
C476 C477 1.516 . S
C477 C476 1.516 . S
C477 C478 1.502 . S
C477 C479 1.561 . S
C477 C480 1.526 . S
C478 H462 0.959 . S
C478 H463 0.959 . S
C478 H464 0.961 . S
C478 C477 1.502 . S
C479 H465 0.960 . S
C479 H466 0.961 . S
C479 H467 0.959 . S
C479 C477 1.561 . S
C480 C477 1.526 . S
C480 C481 1.396 . S
C480 C485 1.390 . S
C481 C475 1.465 . S
C481 C480 1.396 . S
C481 C482 1.399 . S
C482 H468 0.929 . S
C482 C481 1.399 . S
C482 C483 1.385 . S
C483 H469 0.931 . S
C483 C482 1.385 . S
C483 C484 1.389 . S
C484 C483 1.389 . S
C484 C485 1.387 . S
C485 H470 0.930 . S
C485 C480 1.390 . S
C485 C484 1.387 . S
H486 C498 0.930 . S
H487 C500 0.930 . S
H488 C501 0.930 . S
H489 C505 0.959 . S
H490 C505 0.959 . S
H491 C505 0.961 . S
H492 C506 0.960 . S
H493 C506 0.961 . S
H494 C506 0.959 . S
H495 C509 0.929 . S
H496 C510 0.931 . S
H497 C512 0.930 . S
C498 H486 0.930 . S
C498 C499 1.399 . S
C498 C503 1.399 . S
C499 C498 1.399 . S
C499 C500 1.376 . S
C500 H487 0.930 . S
C500 C499 1.376 . S
C500 C501 1.388 . S
C501 H488 0.930 . S
C501 C500 1.388 . S
C501 C502 1.390 . S
C502 C501 1.390 . S
C502 C503 1.394 . S
C502 C508 1.465 . S
C503 C498 1.399 . S
C503 C502 1.394 . S
C503 C504 1.516 . S
C504 C503 1.516 . S
C504 C505 1.502 . S
C504 C506 1.561 . S
C504 C507 1.526 . S
C505 H489 0.959 . S
C505 H490 0.959 . S
C505 H491 0.961 . S
C505 C504 1.502 . S
C506 H492 0.960 . S
C506 H493 0.961 . S
C506 H494 0.959 . S
C506 C504 1.561 . S
C507 C504 1.526 . S
C507 C508 1.396 . S
C507 C512 1.390 . S
C508 C502 1.465 . S
C508 C507 1.396 . S
C508 C509 1.399 . S
C509 H495 0.929 . S
C509 C508 1.399 . S
C509 C510 1.385 . S
C510 H496 0.931 . S
C510 C509 1.385 . S
C510 C511 1.389 . S
C511 C510 1.389 . S
C511 C512 1.387 . S
C512 H497 0.930 . S
C512 C507 1.390 . S
C512 C511 1.387 . S
H513 C525 0.930 . S
H514 C527 0.930 . S
H515 C528 0.930 . S
H516 C532 0.959 . S
H517 C532 0.959 . S
H518 C532 0.961 . S
H519 C533 0.960 . S
H520 C533 0.961 . S
H521 C533 0.959 . S
H522 C536 0.929 . S
H523 C537 0.931 . S
H524 C539 0.930 . S
C525 H513 0.930 . S
C525 C526 1.399 . S
C525 C530 1.399 . S
C526 C525 1.399 . S
C526 C527 1.376 . S
C527 H514 0.930 . S
C527 C526 1.376 . S
C527 C528 1.388 . S
C528 H515 0.930 . S
C528 C527 1.388 . S
C528 C529 1.390 . S
C529 C528 1.390 . S
C529 C530 1.394 . S
C529 C535 1.465 . S
C530 C525 1.399 . S
C530 C529 1.394 . S
C530 C531 1.516 . S
C531 C530 1.516 . S
C531 C532 1.502 . S
C531 C533 1.561 . S
C531 C534 1.526 . S
C532 H516 0.959 . S
C532 H517 0.959 . S
C532 H518 0.961 . S
C532 C531 1.502 . S
C533 H519 0.960 . S
C533 H520 0.961 . S
C533 H521 0.959 . S
C533 C531 1.561 . S
C534 C531 1.526 . S
C534 C535 1.396 . S
C534 C539 1.390 . S
C535 C529 1.465 . S
C535 C534 1.396 . S
C535 C536 1.399 . S
C536 H522 0.929 . S
C536 C535 1.399 . S
C536 C537 1.385 . S
C537 H523 0.931 . S
C537 C536 1.385 . S
C537 C538 1.389 . S
C538 C537 1.389 . S
C538 C539 1.387 . S
C539 H524 0.930 . S
C539 C534 1.390 . S
C539 C538 1.387 . S
H540 C552 0.930 . S
H541 C554 0.930 . S
H542 C555 0.930 . S
H543 C559 0.959 . S
H544 C559 0.959 . S
H545 C559 0.961 . S
H546 C560 0.960 . S
H547 C560 0.961 . S
H548 C560 0.959 . S
H549 C563 0.929 . S
H550 C564 0.931 . S
H551 C566 0.930 . S
C552 H540 0.930 . S
C552 C553 1.399 . S
C552 C557 1.399 . S
C553 C552 1.399 . S
C553 C554 1.376 . S
C554 H541 0.930 . S
C554 C553 1.376 . S
C554 C555 1.388 . S
C555 H542 0.930 . S
C555 C554 1.388 . S
C555 C556 1.390 . S
C556 C555 1.390 . S
C556 C557 1.394 . S
C556 C562 1.465 . S
C557 C552 1.399 . S
C557 C556 1.394 . S
C557 C558 1.516 . S
C558 C557 1.516 . S
C558 C559 1.502 . S
C558 C560 1.561 . S
C558 C561 1.526 . S
C559 H543 0.959 . S
C559 H544 0.959 . S
C559 H545 0.961 . S
C559 C558 1.502 . S
C560 H546 0.960 . S
C560 H547 0.961 . S
C560 H548 0.959 . S
C560 C558 1.561 . S
C561 C558 1.526 . S
C561 C562 1.396 . S
C561 C566 1.390 . S
C562 C556 1.465 . S
C562 C561 1.396 . S
C562 C563 1.399 . S
C563 H549 0.929 . S
C563 C562 1.399 . S
C563 C564 1.385 . S
C564 H550 0.931 . S
C564 C563 1.385 . S
C564 C565 1.389 . S
C565 C564 1.389 . S
C565 C566 1.387 . S
C566 H551 0.930 . S
C566 C561 1.390 . S
C566 C565 1.387 . S
H567 C579 0.930 . S
H568 C581 0.930 . S
H569 C582 0.930 . S
H570 C586 0.959 . S
H571 C586 0.959 . S
H572 C586 0.961 . S
H573 C587 0.960 . S
H574 C587 0.961 . S
H575 C587 0.959 . S
H576 C590 0.929 . S
H577 C591 0.931 . S
H578 C593 0.930 . S
C579 H567 0.930 . S
C579 C580 1.399 . S
C579 C584 1.399 . S
C580 C579 1.399 . S
C580 C581 1.376 . S
C581 H568 0.930 . S
C581 C580 1.376 . S
C581 C582 1.388 . S
C582 H569 0.930 . S
C582 C581 1.388 . S
C582 C583 1.390 . S
C583 C582 1.390 . S
C583 C584 1.394 . S
C583 C589 1.465 . S
C584 C579 1.399 . S
C584 C583 1.394 . S
C584 C585 1.516 . S
C585 C584 1.516 . S
C585 C586 1.502 . S
C585 C587 1.561 . S
C585 C588 1.526 . S
C586 H570 0.959 . S
C586 H571 0.959 . S
C586 H572 0.961 . S
C586 C585 1.502 . S
C587 H573 0.960 . S
C587 H574 0.961 . S
C587 H575 0.959 . S
C587 C585 1.561 . S
C588 C585 1.526 . S
C588 C589 1.396 . S
C588 C593 1.390 . S
C589 C583 1.465 . S
C589 C588 1.396 . S
C589 C590 1.399 . S
C590 H576 0.929 . S
C590 C589 1.399 . S
C590 C591 1.385 . S
C591 H577 0.931 . S
C591 C590 1.385 . S
C591 C592 1.389 . S
C592 C591 1.389 . S
C592 C593 1.387 . S
C593 H578 0.930 . S
C593 C588 1.390 . S
C593 C592 1.387 . S
H594 C606 0.930 . S
H595 C608 0.930 . S
H596 C609 0.930 . S
H597 C613 0.959 . S
H598 C613 0.959 . S
H599 C613 0.961 . S
H600 C614 0.960 . S
H601 C614 0.961 1_565 S
H602 C614 0.959 . S
H603 C617 0.929 . S
H604 C618 0.931 . S
H605 C620 0.930 . S
C606 H594 0.930 . S
C606 C607 1.399 . S
C606 C611 1.399 . S
C607 C606 1.399 . S
C607 C608 1.376 1_554 S
C608 H595 0.930 . S
C608 C607 1.376 1_556 S
C608 C609 1.388 . S
C609 H596 0.930 . S
C609 C608 1.388 . S
C609 C610 1.390 . S
C610 C609 1.390 . S
C610 C611 1.394 1_556 S
C610 C616 1.465 1_545 S
C611 C606 1.399 . S
C611 C610 1.394 1_554 S
C611 C612 1.516 1_545 S
C612 C611 1.516 1_565 S
C612 C613 1.502 . S
C612 C614 1.561 1_565 S
C612 C615 1.526 . S
C613 H597 0.959 . S
C613 H598 0.959 . S
C613 H599 0.961 . S
C613 C612 1.502 . S
C614 H600 0.960 . S
C614 H601 0.961 1_545 S
C614 H602 0.959 . S
C614 C612 1.561 1_545 S
C615 C612 1.526 . S
C615 C616 1.396 1_554 S
C615 C620 1.390 . S
C616 C610 1.465 1_565 S
C616 C615 1.396 1_556 S
C616 C617 1.399 . S
C617 H603 0.929 . S
C617 C616 1.399 . S
C617 C618 1.385 . S
C618 H604 0.931 . S
C618 C617 1.385 . S
C618 C619 1.389 . S
C619 C618 1.389 . S
C619 C620 1.387 1_556 S
C620 H605 0.930 . S
C620 C615 1.390 . S
C620 C619 1.387 1_554 S
H621 C633 0.930 . S
H622 C635 0.930 . S
H623 C636 0.930 . S
H624 C640 0.959 . S
H625 C640 0.959 . S
H626 C640 0.961 . S
H627 C641 0.960 . S
H628 C641 0.961 . S
H629 C641 0.959 . S
H630 C644 0.929 . S
H631 C645 0.931 . S
H632 C647 0.930 . S
C633 H621 0.930 . S
C633 C634 1.399 . S
C633 C638 1.399 . S
C634 C633 1.399 . S
C634 C635 1.376 . S
C635 H622 0.930 . S
C635 C634 1.376 . S
C635 C636 1.388 . S
C636 H623 0.930 . S
C636 C635 1.388 . S
C636 C637 1.390 . S
C637 C636 1.390 . S
C637 C638 1.394 . S
C637 C643 1.465 . S
C638 C633 1.399 . S
C638 C637 1.394 . S
C638 C639 1.516 . S
C639 C638 1.516 . S
C639 C640 1.502 . S
C639 C641 1.561 . S
C639 C642 1.526 . S
C640 H624 0.959 . S
C640 H625 0.959 . S
C640 H626 0.961 . S
C640 C639 1.502 . S
C641 H627 0.960 . S
C641 H628 0.961 . S
C641 H629 0.959 . S
C641 C639 1.561 . S
C642 C639 1.526 . S
C642 C643 1.396 . S
C642 C647 1.390 . S
C643 C637 1.465 . S
C643 C642 1.396 . S
C643 C644 1.399 . S
C644 H630 0.929 . S
C644 C643 1.399 . S
C644 C645 1.385 . S
C645 H631 0.931 . S
C645 C644 1.385 . S
C645 C646 1.389 . S
C646 C645 1.389 . S
C646 C647 1.387 . S
C647 H632 0.930 . S
C647 C642 1.390 . S
C647 C646 1.387 . S
H648 C660 0.930 . S
H649 C662 0.930 . S
H650 C663 0.930 . S
H651 C667 0.959 . S
H652 C667 0.959 . S
H653 C667 0.961 . S
H654 C668 0.960 . S
H655 C668 0.961 1_655 S
H656 C668 0.959 1_655 S
H657 C671 0.929 . S
H658 C672 0.931 . S
H659 C674 0.930 . S
C660 H648 0.930 . S
C660 C661 1.399 1_554 S
C660 C665 1.399 . S
C661 C660 1.399 1_556 S
C661 C662 1.376 . S
C662 H649 0.930 . S
C662 C661 1.376 . S
C662 C663 1.388 . S
C663 H650 0.930 . S
C663 C662 1.388 . S
C663 C664 1.390 . S
C664 C663 1.390 . S
C664 C665 1.394 1_556 S
C664 C670 1.465 1_455 S
C665 C660 1.399 . S
C665 C664 1.394 1_554 S
C665 C666 1.516 . S
C666 C665 1.516 . S
C666 C667 1.502 . S
C666 C668 1.561 . S
C666 C669 1.526 1_455 S
C667 H651 0.959 . S
C667 H652 0.959 . S
C667 H653 0.961 . S
C667 C666 1.502 . S
C668 H654 0.960 . S
C668 H655 0.961 1_455 S
C668 H656 0.959 1_455 S
C668 C666 1.561 . S
C669 C666 1.526 1_655 S
C669 C670 1.396 1_554 S
C669 C674 1.390 . S
C670 C664 1.465 1_655 S
C670 C669 1.396 1_556 S
C670 C671 1.399 . S
C671 H657 0.929 . S
C671 C670 1.399 . S
C671 C672 1.385 . S
C672 H658 0.931 . S
C672 C671 1.385 . S
C672 C673 1.389 1_556 S
C673 C672 1.389 1_554 S
C673 C674 1.387 . S
C674 H659 0.930 . S
C674 C669 1.390 . S
C674 C673 1.387 . S
H675 C687 0.930 . S
H676 C689 0.930 . S
H677 C690 0.930 . S
H678 C694 0.959 . S
H679 C694 0.959 1_565 S
H680 C694 0.961 . S
H681 C695 0.960 . S
H682 C695 0.961 . S
H683 C695 0.959 . S
H684 C698 0.929 . S
H685 C699 0.931 . S
H686 C701 0.930 . S
C687 H675 0.930 . S
C687 C688 1.399 . S
C687 C692 1.399 . S
C688 C687 1.399 . S
C688 C689 1.376 . S
C689 H676 0.930 . S
C689 C688 1.376 . S
C689 C690 1.388 . S
C690 H677 0.930 . S
C690 C689 1.388 . S
C690 C691 1.390 . S
C691 C690 1.390 . S
C691 C692 1.394 . S
C691 C697 1.465 1_545 S
C692 C687 1.399 . S
C692 C691 1.394 . S
C692 C693 1.516 1_545 S
C693 C692 1.516 1_565 S
C693 C694 1.502 1_565 S
C693 C695 1.561 . S
C693 C696 1.526 . S
C694 H678 0.959 . S
C694 H679 0.959 1_545 S
C694 H680 0.961 . S
C694 C693 1.502 1_545 S
C695 H681 0.960 . S
C695 H682 0.961 . S
C695 H683 0.959 . S
C695 C693 1.561 . S
C696 C693 1.526 . S
C696 C697 1.396 . S
C696 C701 1.390 . S
C697 C691 1.465 1_565 S
C697 C696 1.396 . S
C697 C698 1.399 . S
C698 H684 0.929 . S
C698 C697 1.399 . S
C698 C699 1.385 . S
C699 H685 0.931 . S
C699 C698 1.385 . S
C699 C700 1.389 . S
C700 C699 1.389 . S
C700 C701 1.387 . S
C701 H686 0.930 . S
C701 C696 1.390 . S
C701 C700 1.387 . S
H702 C714 0.930 1_554 S
H703 C716 0.930 . S
H704 C717 0.930 . S
H705 C721 0.959 . S
H706 C721 0.959 . S
H707 C721 0.961 . S
H708 C722 0.960 . S
H709 C722 0.961 . S
H710 C722 0.959 . S
H711 C725 0.929 . S
H712 C726 0.941 . S
H713 C728 0.930 . S
C714 H702 0.930 1_556 S
C714 C715 1.399 . S
C714 C719 1.399 1_556 S
C715 C714 1.399 . S
C715 C716 1.376 . S
C716 H703 0.930 . S
C716 C715 1.376 . S
C716 C717 1.388 . S
C717 H704 0.930 . S
C717 C716 1.388 . S
C717 C718 1.390 . S
C718 C717 1.390 . S
C718 C719 1.394 1_556 S
C718 C724 1.465 . S
C719 C714 1.399 1_554 S
C719 C718 1.394 1_554 S
C719 C720 1.516 . S
C720 C719 1.516 . S
C720 C721 1.502 . S
C720 C722 1.561 . S
C720 C723 1.526 . S
C721 H705 0.959 . S
C721 H706 0.959 . S
C721 H707 0.961 . S
C721 C720 1.502 . S
C722 H708 0.960 . S
C722 H709 0.961 . S
C722 H710 0.959 . S
C722 C720 1.561 . S
C723 C720 1.526 . S
C723 C724 1.396 1_554 S
C723 C728 1.390 . S
C724 C718 1.465 . S
C724 C723 1.396 1_556 S
C724 C725 1.399 . S
C725 H711 0.929 . S
C725 C724 1.399 . S
C725 C726 1.397 . S
C726 H712 0.941 . S
C726 C725 1.397 . S
C726 C727 1.369 1_556 S
C727 C726 1.369 1_554 S
C727 C728 1.387 . S
C728 H713 0.930 . S
C728 C723 1.390 . S
C728 C727 1.387 . S
H729 C741 0.930 . S
H730 C743 0.930 . S
H731 C744 0.930 . S
H732 C748 0.959 . S
H733 C748 0.959 1_455 S
H734 C748 0.961 . S
H735 C749 0.960 . S
H736 C749 0.961 . S
H737 C749 0.959 . S
H738 C752 0.929 . S
H739 C753 0.931 . S
H740 C755 0.930 . S
C741 H729 0.930 . S
C741 C742 1.399 . S
C741 C746 1.399 . S
C742 C741 1.399 . S
C742 C743 1.376 . S
C743 H730 0.930 . S
C743 C742 1.376 . S
C743 C744 1.388 . S
C744 H731 0.930 . S
C744 C743 1.388 . S
C744 C745 1.390 . S
C745 C744 1.390 . S
C745 C746 1.394 . S
C745 C751 1.465 1_655 S
C746 C741 1.399 . S
C746 C745 1.394 . S
C746 C747 1.516 1_655 S
C747 C746 1.516 1_455 S
C747 C748 1.502 1_455 S
C747 C749 1.561 . S
C747 C750 1.526 . S
C748 H732 0.959 . S
C748 H733 0.959 1_655 S
C748 H734 0.961 . S
C748 C747 1.502 1_655 S
C749 H735 0.960 . S
C749 H736 0.961 . S
C749 H737 0.959 . S
C749 C747 1.561 . S
C750 C747 1.526 . S
C750 C751 1.396 . S
C750 C755 1.390 . S
C751 C745 1.465 1_455 S
C751 C750 1.396 . S
C751 C752 1.399 . S
C752 H738 0.929 . S
C752 C751 1.399 . S
C752 C753 1.385 . S
C753 H739 0.931 . S
C753 C752 1.385 . S
C753 C754 1.389 . S
C754 C753 1.389 . S
C754 C755 1.387 . S
C755 H740 0.930 . S
C755 C750 1.390 . S
C755 C754 1.387 . S
H756 C768 0.930 1_556 S
H757 C770 0.930 . S
H758 C771 0.930 . S
H759 C775 0.959 . S
H760 C775 0.959 . S
H761 C775 0.961 . S
H762 C776 0.960 . S
H763 C776 0.961 . S
H764 C776 0.960 1_554 S
H765 C779 0.929 . S
H766 C780 0.931 . S
H767 C782 0.930 . S
C768 H756 0.930 1_554 S
C768 C769 1.399 . S
C768 C773 1.399 . S
C769 C768 1.399 . S
C769 C770 1.376 . S
C770 H757 0.930 . S
C770 C769 1.376 . S
C770 C771 1.388 . S
C771 H758 0.930 . S
C771 C770 1.388 . S
C771 C772 1.390 . S
C772 C771 1.390 . S
C772 C773 1.394 . S
C772 C778 1.465 . S
C773 C768 1.399 . S
C773 C772 1.394 . S
C773 C774 1.516 . S
C774 C773 1.516 . S
C774 C775 1.502 1_554 S
C774 C776 1.561 1_554 S
C774 C777 1.526 . S
C775 H759 0.959 . S
C775 H760 0.959 . S
C775 H761 0.961 . S
C775 C774 1.502 1_556 S
C776 H762 0.960 . S
C776 H763 0.961 . S
C776 H764 0.960 1_556 S
C776 C774 1.561 1_556 S
C777 C774 1.526 . S
C777 C778 1.396 . S
C777 C782 1.390 . S
C778 C772 1.465 . S
C778 C777 1.396 . S
C778 C779 1.399 . S
C779 H765 0.929 . S
C779 C778 1.399 . S
C779 C780 1.385 . S
C780 H766 0.931 . S
C780 C779 1.385 . S
C780 C781 1.389 . S
C781 C780 1.389 . S
C781 C782 1.387 . S
C782 H767 0.930 . S
C782 C777 1.390 . S
C782 C781 1.387 . S
H783 C795 0.930 . S
H784 C797 0.930 . S
H785 C798 0.930 . S
H786 C802 0.959 . S
H787 C802 0.959 . S
H788 C802 0.961 . S
H789 C803 0.960 . S
H790 C803 0.961 . S
H791 C803 0.959 . S
H792 C806 0.929 . S
H793 C807 0.931 . S
H794 C809 0.930 . S
C795 H783 0.930 . S
C795 C796 1.399 . S
C795 C800 1.399 . S
C796 C795 1.399 . S
C796 C797 1.376 . S
C797 H784 0.930 . S
C797 C796 1.376 . S
C797 C798 1.388 . S
C798 H785 0.930 . S
C798 C797 1.388 . S
C798 C799 1.390 . S
C799 C798 1.390 . S
C799 C800 1.394 . S
C799 C805 1.465 . S
C800 C795 1.399 . S
C800 C799 1.394 . S
C800 C801 1.516 . S
C801 C800 1.516 . S
C801 C802 1.502 . S
C801 C803 1.561 . S
C801 C804 1.526 . S
C802 H786 0.959 . S
C802 H787 0.959 . S
C802 H788 0.961 . S
C802 C801 1.502 . S
C803 H789 0.960 . S
C803 H790 0.961 . S
C803 H791 0.959 . S
C803 C801 1.561 . S
C804 C801 1.526 . S
C804 C805 1.396 . S
C804 C809 1.390 . S
C805 C799 1.465 . S
C805 C804 1.396 . S
C805 C806 1.399 . S
C806 H792 0.929 . S
C806 C805 1.399 . S
C806 C807 1.385 . S
C807 H793 0.931 . S
C807 C806 1.385 . S
C807 C808 1.389 . S
C808 C807 1.389 . S
C808 C809 1.387 . S
C809 H794 0.930 . S
C809 C804 1.390 . S
C809 C808 1.387 . S
H810 C822 0.930 . S
H811 C824 0.930 . S
H812 C825 0.930 . S
H813 C829 0.959 . S
H814 C829 0.959 . S
H815 C829 0.961 . S
H816 C830 0.960 . S
H817 C830 0.961 . S
H818 C830 0.959 . S
H819 C833 0.929 1_556 S
H820 C834 0.931 1_556 S
H821 C836 0.930 . S
C822 H810 0.930 . S
C822 C823 1.399 . S
C822 C827 1.399 . S
C823 C822 1.399 . S
C823 C824 1.376 1_554 S
C824 H811 0.930 . S
C824 C823 1.376 1_556 S
C824 C825 1.388 . S
C825 H812 0.930 . S
C825 C824 1.388 . S
C825 C826 1.390 1_556 S
C826 C825 1.390 1_554 S
C826 C827 1.394 . S
C826 C832 1.465 . S
C827 C822 1.399 . S
C827 C826 1.394 . S
C827 C828 1.516 . S
C828 C827 1.516 . S
C828 C829 1.502 . S
C828 C830 1.561 . S
C828 C831 1.526 . S
C829 H813 0.959 . S
C829 H814 0.959 . S
C829 H815 0.961 . S
C829 C828 1.502 . S
C830 H816 0.960 . S
C830 H817 0.961 . S
C830 H818 0.959 . S
C830 C828 1.561 . S
C831 C828 1.526 . S
C831 C832 1.396 . S
C831 C836 1.390 . S
C832 C826 1.465 . S
C832 C831 1.396 . S
C832 C833 1.399 . S
C833 H819 0.929 1_554 S
C833 C832 1.399 . S
C833 C834 1.385 . S
C834 H820 0.931 1_554 S
C834 C833 1.385 . S
C834 C835 1.389 . S
C835 C834 1.389 . S
C835 C836 1.387 . S
C836 H821 0.930 . S
C836 C831 1.390 . S
C836 C835 1.387 . S
H837 C849 0.930 . S
H838 C851 0.930 . S
H839 C852 0.930 . S
H840 C856 0.959 . S
H841 C856 0.959 . S
H842 C856 0.961 . S
H843 C857 0.960 . S
H844 C857 0.961 . S
H845 C857 0.959 . S
H846 C860 0.929 . S
H847 C861 0.931 . S
H848 C863 0.930 . S
C849 H837 0.930 . S
C849 C850 1.399 . S
C849 C854 1.399 . S
C850 C849 1.399 . S
C850 C851 1.376 . S
C851 H838 0.930 . S
C851 C850 1.376 . S
C851 C852 1.388 . S
C852 H839 0.930 . S
C852 C851 1.388 . S
C852 C853 1.390 . S
C853 C852 1.390 . S
C853 C854 1.394 . S
C853 C859 1.465 . S
C854 C849 1.399 . S
C854 C853 1.394 . S
C854 C855 1.516 . S
C855 C854 1.516 . S
C855 C856 1.502 . S
C855 C857 1.561 . S
C855 C858 1.526 . S
C856 H840 0.959 . S
C856 H841 0.959 . S
C856 H842 0.961 . S
C856 C855 1.502 . S
C857 H843 0.960 . S
C857 H844 0.961 . S
C857 H845 0.959 . S
C857 C855 1.561 . S
C858 C855 1.526 . S
C858 C859 1.396 . S
C858 C863 1.390 . S
C859 C853 1.465 . S
C859 C858 1.396 . S
C859 C860 1.399 . S
C860 H846 0.929 . S
C860 C859 1.399 . S
C860 C861 1.385 . S
C861 H847 0.931 . S
C861 C860 1.385 . S
C861 C862 1.389 . S
C862 C861 1.389 . S
C862 C863 1.387 . S
C863 H848 0.930 . S
C863 C858 1.390 . S
C863 C862 1.387 . S
H864 C876 0.930 . S
H865 C878 0.930 . S
H866 C879 0.930 . S
H867 C883 0.959 . S
H868 C883 0.959 . S
H869 C883 0.961 . S
H870 C884 0.960 . S
H871 C884 0.961 . S
H872 C884 0.959 . S
H873 C887 0.929 . S
H874 C888 0.931 . S
H875 C890 0.930 . S
C876 H864 0.930 . S
C876 C877 1.399 . S
C876 C881 1.399 . S
C877 C876 1.399 . S
C877 C878 1.376 . S
C878 H865 0.930 . S
C878 C877 1.376 . S
C878 C879 1.388 . S
C879 H866 0.930 . S
C879 C878 1.388 . S
C879 C880 1.390 . S
C880 C879 1.390 . S
C880 C881 1.394 . S
C880 C886 1.465 . S
C881 C876 1.399 . S
C881 C880 1.394 . S
C881 C882 1.516 . S
C882 C881 1.516 . S
C882 C883 1.502 . S
C882 C884 1.561 . S
C882 C885 1.526 . S
C883 H867 0.959 . S
C883 H868 0.959 . S
C883 H869 0.961 . S
C883 C882 1.502 . S
C884 H870 0.960 . S
C884 H871 0.961 . S
C884 H872 0.959 . S
C884 C882 1.561 . S
C885 C882 1.526 . S
C885 C886 1.396 . S
C885 C890 1.390 . S
C886 C880 1.465 . S
C886 C885 1.396 . S
C886 C887 1.399 . S
C887 H873 0.929 . S
C887 C886 1.399 . S
C887 C888 1.385 . S
C888 H874 0.931 . S
C888 C887 1.385 . S
C888 C889 1.389 . S
C889 C888 1.389 . S
C889 C890 1.387 . S
C890 H875 0.930 . S
C890 C885 1.390 . S
C890 C889 1.387 . S
H891 C903 0.930 . S
H892 C905 0.930 . S
H893 C906 0.930 . S
H894 C910 0.959 . S
H895 C910 0.959 . S
H896 C910 0.961 . S
H897 C911 0.960 . S
H898 C911 0.961 . S
H899 C911 0.959 . S
H900 C914 0.929 . S
H901 C915 0.931 . S
H902 C917 0.930 . S
C903 H891 0.930 . S
C903 C904 1.399 . S
C903 C908 1.399 . S
C904 C903 1.399 . S
C904 C905 1.376 . S
C905 H892 0.930 . S
C905 C904 1.376 . S
C905 C906 1.388 . S
C906 H893 0.930 . S
C906 C905 1.388 . S
C906 C907 1.390 . S
C907 C906 1.390 . S
C907 C908 1.394 . S
C907 C913 1.465 . S
C908 C903 1.399 . S
C908 C907 1.394 . S
C908 C909 1.516 . S
C909 C908 1.516 . S
C909 C910 1.502 . S
C909 C911 1.561 . S
C909 C912 1.526 . S
C910 H894 0.959 . S
C910 H895 0.959 . S
C910 H896 0.961 . S
C910 C909 1.502 . S
C911 H897 0.960 . S
C911 H898 0.961 . S
C911 H899 0.959 . S
C911 C909 1.561 . S
C912 C909 1.526 . S
C912 C913 1.396 . S
C912 C917 1.390 . S
C913 C907 1.465 . S
C913 C912 1.396 . S
C913 C914 1.399 . S
C914 H900 0.929 . S
C914 C913 1.399 . S
C914 C915 1.385 . S
C915 H901 0.931 . S
C915 C914 1.385 . S
C915 C916 1.389 . S
C916 C915 1.389 . S
C916 C917 1.387 . S
C917 H902 0.930 . S
C917 C912 1.390 . S
C917 C916 1.387 . S
H918 C930 0.930 . S
H919 C932 0.930 . S
H920 C933 0.930 . S
H921 C937 0.959 . S
H922 C937 0.959 . S
H923 C937 0.961 . S
H924 C938 0.960 . S
H925 C938 0.961 . S
H926 C938 0.959 . S
H927 C941 0.929 . S
H928 C942 0.931 . S
H929 C944 0.930 . S
C930 H918 0.930 . S
C930 C931 1.399 . S
C930 C935 1.399 . S
C931 C930 1.399 . S
C931 C932 1.376 . S
C932 H919 0.930 . S
C932 C931 1.376 . S
C932 C933 1.388 . S
C933 H920 0.930 . S
C933 C932 1.388 . S
C933 C934 1.390 . S
C934 C933 1.390 . S
C934 C935 1.394 . S
C934 C940 1.465 . S
C935 C930 1.399 . S
C935 C934 1.394 . S
C935 C936 1.516 . S
C936 C935 1.516 . S
C936 C937 1.502 . S
C936 C938 1.561 . S
C936 C939 1.526 . S
C937 H921 0.959 . S
C937 H922 0.959 . S
C937 H923 0.961 . S
C937 C936 1.502 . S
C938 H924 0.960 . S
C938 H925 0.961 . S
C938 H926 0.959 . S
C938 C936 1.561 . S
C939 C936 1.526 . S
C939 C940 1.396 . S
C939 C944 1.390 . S
C940 C934 1.465 . S
C940 C939 1.396 . S
C940 C941 1.399 . S
C941 H927 0.929 . S
C941 C940 1.399 . S
C941 C942 1.385 . S
C942 H928 0.931 . S
C942 C941 1.385 . S
C942 C943 1.389 . S
C943 C942 1.389 . S
C943 C944 1.387 . S
C944 H929 0.930 . S
C944 C939 1.390 . S
C944 C943 1.387 . S
H945 C957 0.930 1_554 S
H946 C959 0.930 . S
H947 C960 0.930 . S
H948 C964 0.959 1_556 S
H949 C964 0.959 . S
H950 C964 0.961 . S
H951 C965 0.960 . S
H952 C965 0.961 . S
H953 C965 0.959 . S
H954 C968 0.929 . S
H955 C969 0.931 . S
H956 C971 0.930 . S
C957 H945 0.930 1_556 S
C957 C958 1.399 . S
C957 C962 1.399 . S
C958 C957 1.399 . S
C958 C959 1.376 . S
C959 H946 0.930 . S
C959 C958 1.376 . S
C959 C960 1.388 . S
C960 H947 0.930 . S
C960 C959 1.388 . S
C960 C961 1.390 . S
C961 C960 1.390 . S
C961 C962 1.394 . S
C961 C967 1.465 . S
C962 C957 1.399 . S
C962 C961 1.394 . S
C962 C963 1.524 . S
C963 C962 1.524 . S
C963 C964 1.497 1_556 S
C963 C965 1.548 1_556 S
C963 C966 1.537 . S
C964 H948 0.959 1_554 S
C964 H949 0.959 . S
C964 H950 0.961 . S
C964 C963 1.497 1_554 S
C965 H951 0.960 . S
C965 H952 0.961 . S
C965 H953 0.959 . S
C965 C963 1.548 1_554 S
C966 C963 1.537 . S
C966 C967 1.396 . S
C966 C971 1.390 . S
C967 C961 1.465 . S
C967 C966 1.396 . S
C967 C968 1.399 . S
C968 H954 0.929 . S
C968 C967 1.399 . S
C968 C969 1.385 . S
C969 H955 0.931 . S
C969 C968 1.385 . S
C969 C970 1.389 . S
C970 C969 1.389 . S
C970 C971 1.387 . S
C971 H956 0.930 . S
C971 C966 1.390 . S
C971 C970 1.387 . S
H972 C984 0.930 . S
H973 C986 0.930 . S
H974 C987 0.930 . S
H975 C991 0.959 . S
H976 C991 0.959 . S
H977 C991 0.961 . S
H978 C992 0.960 . S
H979 C992 0.961 . S
H980 C992 0.959 . S
H981 C995 0.929 . S
H982 C996 0.931 . S
H983 C998 0.930 . S
C984 H972 0.930 . S
C984 C985 1.399 . S
C984 C989 1.399 . S
C985 C984 1.399 . S
C985 C986 1.376 . S
C986 H973 0.930 . S
C986 C985 1.376 . S
C986 C987 1.388 . S
C987 H974 0.930 . S
C987 C986 1.388 . S
C987 C988 1.390 . S
C988 C987 1.390 . S
C988 C989 1.394 . S
C988 C994 1.465 . S
C989 C984 1.399 . S
C989 C988 1.394 . S
C989 C990 1.516 . S
C990 C989 1.516 . S
C990 C991 1.502 . S
C990 C992 1.561 . S
C990 C993 1.526 . S
C991 H975 0.959 . S
C991 H976 0.959 . S
C991 H977 0.961 . S
C991 C990 1.502 . S
C992 H978 0.960 . S
C992 H979 0.961 . S
C992 H980 0.959 . S
C992 C990 1.561 . S
C993 C990 1.526 . S
C993 C994 1.396 . S
C993 C998 1.390 . S
C994 C988 1.465 . S
C994 C993 1.396 . S
C994 C995 1.399 . S
C995 H981 0.929 . S
C995 C994 1.399 . S
C995 C996 1.385 . S
C996 H982 0.931 . S
C996 C995 1.385 . S
C996 C997 1.389 . S
C997 C996 1.389 . S
C997 C998 1.387 . S
C998 H983 0.930 . S
C998 C993 1.390 . S
C998 C997 1.387 . S
H999 C1011 0.930 . S
H1000 C1013 0.930 . S
H1001 C1014 0.930 . S
H1002 C1018 0.959 . S
H1003 C1018 0.959 . S
H1004 C1018 0.961 . S
H1005 C1019 0.960 . S
H1006 C1019 0.961 . S
H1007 C1019 0.959 . S
H1008 C1022 0.929 . S
H1009 C1023 0.931 . S
H1010 C1025 0.930 . S
C1011 H999 0.930 . S
C1011 C1012 1.399 . S
C1011 C1016 1.399 . S
C1012 C1011 1.399 . S
C1012 C1013 1.376 . S
C1013 H1000 0.930 . S
C1013 C1012 1.376 . S
C1013 C1014 1.388 . S
C1014 H1001 0.930 . S
C1014 C1013 1.388 . S
C1014 C1015 1.390 . S
C1015 C1014 1.390 . S
C1015 C1016 1.394 . S
C1015 C1021 1.465 . S
C1016 C1011 1.399 . S
C1016 C1015 1.394 . S
C1016 C1017 1.516 . S
C1017 C1016 1.516 . S
C1017 C1018 1.502 1_556 S
C1017 C1019 1.561 . S
C1017 C1020 1.526 . S
C1018 H1002 0.959 . S
C1018 H1003 0.959 . S
C1018 H1004 0.961 . S
C1018 C1017 1.502 1_554 S
C1019 H1005 0.960 . S
C1019 H1006 0.961 . S
C1019 H1007 0.959 . S
C1019 C1017 1.561 . S
C1020 C1017 1.526 . S
C1020 C1021 1.396 . S
C1020 C1025 1.390 . S
C1021 C1015 1.465 . S
C1021 C1020 1.396 . S
C1021 C1022 1.399 . S
C1022 H1008 0.929 . S
C1022 C1021 1.399 . S
C1022 C1023 1.385 . S
C1023 H1009 0.931 . S
C1023 C1022 1.385 . S
C1023 C1024 1.389 . S
C1024 C1023 1.389 . S
C1024 C1025 1.387 . S
C1025 H1010 0.930 . S
C1025 C1020 1.390 . S
C1025 C1024 1.387 . S
H1026 C1038 0.930 . S
H1027 C1040 0.930 . S
H1028 C1041 0.930 . S
H1029 C1045 0.959 . S
H1030 C1045 0.959 . S
H1031 C1045 0.961 . S
H1032 C1046 0.960 . S
H1033 C1046 0.961 . S
H1034 C1046 0.959 . S
H1035 C1049 0.929 . S
H1036 C1050 0.931 . S
H1037 C1052 0.930 . S
C1038 H1026 0.930 . S
C1038 C1039 1.399 . S
C1038 C1043 1.399 . S
C1039 C1038 1.399 . S
C1039 C1040 1.376 . S
C1040 H1027 0.930 . S
C1040 C1039 1.376 . S
C1040 C1041 1.388 . S
C1041 H1028 0.930 . S
C1041 C1040 1.388 . S
C1041 C1042 1.390 . S
C1042 C1041 1.390 . S
C1042 C1043 1.394 . S
C1042 C1048 1.465 . S
C1043 C1038 1.399 . S
C1043 C1042 1.394 . S
C1043 C1044 1.516 . S
C1044 C1043 1.516 . S
C1044 C1045 1.502 . S
C1044 C1046 1.561 . S
C1044 C1047 1.526 . S
C1045 H1029 0.959 . S
C1045 H1030 0.959 . S
C1045 H1031 0.961 . S
C1045 C1044 1.502 . S
C1046 H1032 0.960 . S
C1046 H1033 0.961 . S
C1046 H1034 0.959 . S
C1046 C1044 1.561 . S
C1047 C1044 1.526 . S
C1047 C1048 1.396 . S
C1047 C1052 1.390 . S
C1048 C1042 1.465 . S
C1048 C1047 1.396 . S
C1048 C1049 1.399 . S
C1049 H1035 0.929 . S
C1049 C1048 1.399 . S
C1049 C1050 1.385 . S
C1050 H1036 0.931 . S
C1050 C1049 1.385 . S
C1050 C1051 1.389 . S
C1051 C1050 1.389 . S
C1051 C1052 1.387 . S
C1052 H1037 0.930 . S
C1052 C1047 1.390 . S
C1052 C1051 1.387 . S
H1053 C1065 0.930 . S
H1054 C1067 0.930 1_554 S
H1055 C1068 0.930 1_554 S
H1056 C1072 0.959 . S
H1057 C1072 0.959 . S
H1058 C1072 0.961 . S
H1059 C1073 0.960 . S
H1060 C1073 0.961 . S
H1061 C1073 0.959 . S
H1062 C1076 0.929 1_554 S
H1063 C1077 0.931 . S
H1064 C1079 0.930 . S
C1065 H1053 0.930 . S
C1065 C1066 1.399 . S
C1065 C1070 1.399 . S
C1066 C1065 1.399 . S
C1066 C1067 1.376 . S
C1067 H1054 0.930 1_556 S
C1067 C1066 1.376 . S
C1067 C1068 1.388 . S
C1068 H1055 0.930 1_556 S
C1068 C1067 1.388 . S
C1068 C1069 1.390 . S
C1069 C1068 1.390 . S
C1069 C1070 1.394 . S
C1069 C1075 1.465 . S
C1070 C1065 1.399 . S
C1070 C1069 1.394 . S
C1070 C1071 1.516 . S
C1071 C1070 1.516 . S
C1071 C1072 1.502 . S
C1071 C1073 1.561 . S
C1071 C1074 1.526 . S
C1072 H1056 0.959 . S
C1072 H1057 0.959 . S
C1072 H1058 0.961 . S
C1072 C1071 1.502 . S
C1073 H1059 0.960 . S
C1073 H1060 0.961 . S
C1073 H1061 0.959 . S
C1073 C1071 1.561 . S
C1074 C1071 1.526 . S
C1074 C1075 1.396 . S
C1074 C1079 1.390 . S
C1075 C1069 1.465 . S
C1075 C1074 1.396 . S
C1075 C1076 1.399 . S
C1076 H1062 0.929 1_556 S
C1076 C1075 1.399 . S
C1076 C1077 1.385 . S
C1077 H1063 0.931 . S
C1077 C1076 1.385 . S
C1077 C1078 1.389 . S
C1078 C1077 1.389 . S
C1078 C1079 1.387 . S
C1079 H1064 0.930 . S
C1079 C1074 1.390 . S
C1079 C1078 1.387 . S
C445 C374 1.595 . S
C457 C14 1.502 . S
C472 C50 1.468 . S
C484 C410 1.387 . S
C499 C86 1.564 . S
C511 C230 1.550 . S
C526 C266 1.530 . S
C538 C122 1.565 . S
C553 C302 1.437 . S
C565 C158 1.402 . S
C580 C194 1.562 . S
C592 C338 1.552 . S
C607 C4 0.992 . S
C619 C256 0.967 . S
C634 C40 0.749 . S
C646 C292 0.808 . S
C661 C328 0.990 . S
C673 C76 1.006 . S
C688 C364 1.028 . S
C700 C112 0.936 . S
C715 C400 0.777 . S
C727 C148 0.801 . S
C742 C220 0.948 . S
C754 C184 1.027 . S
C769 C2 0.886 . S
C781 C147 0.894 . S
C796 C38 1.010 . S
C808 C183 0.989 . S
C823 C74 0.887 . S
C835 C3 0.919 . S
C850 C110 0.851 . S
C862 C39 0.864 . S
C877 C146 1.011 . S
C889 C75 0.986 . S
C904 C182 0.952 . S
C916 C111 0.953 . S
C931 C218 0.906 . S
C943 C291 0.899 . S
C958 C254 0.937 . S
C970 C327 0.943 . S
C985 C363 0.975 . S
C997 C290 0.887 . S
C1012 C326 0.858 . S
C1024 C399 0.871 . S
C1039 C362 0.884 . S
C1051 C219 0.918 . S
C1066 C398 0.923 . S
C1078 C255 0.975 . S
