# Generated by pormake.
# Topology ecc, (8)-cn, num edge types: 1
# Building blocks:
#     Node 0, Type 0, BuildingBlock: EBIMEJ_clean_sbu_0, # of connection points: 8
#     Node 1, Type 0, BuildingBlock: EBIMEJ_clean_sbu_0, # of connection points: 8
#     Node 2, Type 0, BuildingBlock: EBIMEJ_clean_sbu_0, # of connection points: 8
#     Node 3, Type 0, BuildingBlock: EBIMEJ_clean_sbu_0, # of connection points: 8
#     Node 4, Type 0, BuildingBlock: EBIMEJ_clean_sbu_0, # of connection points: 8
#     Node 5, Type 0, BuildingBlock: EBIMEJ_clean_sbu_0, # of connection points: 8
#     Node 6, Type 0, BuildingBlock: EBIMEJ_clean_sbu_0, # of connection points: 8
#     Node 7, Type 0, BuildingBlock: EBIMEJ_clean_sbu_0, # of connection points: 8
#     Node 8, Type 0, BuildingBlock: EBIMEJ_clean_sbu_0, # of connection points: 8
#     Node 9, Type 0, BuildingBlock: EBIMEJ_clean_sbu_0, # of connection points: 8
#     Node 10, Type 0, BuildingBlock: EBIMEJ_clean_sbu_0, # of connection points: 8
#     Node 11, Type 0, BuildingBlock: EBIMEJ_clean_sbu_0, # of connection points: 8
#     Node 12, Type 0, BuildingBlock: EBIMEJ_clean_sbu_0, # of connection points: 8
#     Node 13, Type 0, BuildingBlock: EBIMEJ_clean_sbu_0, # of connection points: 8
#     Node 14, Type 0, BuildingBlock: EBIMEJ_clean_sbu_0, # of connection points: 8
#     Node 15, Type 0, BuildingBlock: EBIMEJ_clean_sbu_0, # of connection points: 8
#     Node 16, Type 0, BuildingBlock: EBIMEJ_clean_sbu_0, # of connection points: 8
#     Node 17, Type 0, BuildingBlock: EBIMEJ_clean_sbu_0, # of connection points: 8
#     Edge 18, Type (0, 0), BuildingBlock: EZIPEK_clean_linker_0, # of connection points: 2
#     Edge 19, Type (0, 0), BuildingBlock: EZIPEK_clean_linker_0, # of connection points: 2
#     Edge 20, Type (0, 0), BuildingBlock: EZIPEK_clean_linker_0, # of connection points: 2
#     Edge 21, Type (0, 0), BuildingBlock: EZIPEK_clean_linker_0, # of connection points: 2
#     Edge 22, Type (0, 0), BuildingBlock: EZIPEK_clean_linker_0, # of connection points: 2
#     Edge 23, Type (0, 0), BuildingBlock: EZIPEK_clean_linker_0, # of connection points: 2
#     Edge 24, Type (0, 0), BuildingBlock: EZIPEK_clean_linker_0, # of connection points: 2
#     Edge 25, Type (0, 0), BuildingBlock: EZIPEK_clean_linker_0, # of connection points: 2
#     Edge 26, Type (0, 0), BuildingBlock: EZIPEK_clean_linker_0, # of connection points: 2
#     Edge 27, Type (0, 0), BuildingBlock: EZIPEK_clean_linker_0, # of connection points: 2
#     Edge 28, Type (0, 0), BuildingBlock: EZIPEK_clean_linker_0, # of connection points: 2
#     Edge 29, Type (0, 0), BuildingBlock: EZIPEK_clean_linker_0, # of connection points: 2
#     Edge 30, Type (0, 0), BuildingBlock: EZIPEK_clean_linker_0, # of connection points: 2
#     Edge 31, Type (0, 0), BuildingBlock: EZIPEK_clean_linker_0, # of connection points: 2
#     Edge 32, Type (0, 0), BuildingBlock: EZIPEK_clean_linker_0, # of connection points: 2
#     Edge 33, Type (0, 0), BuildingBlock: EZIPEK_clean_linker_0, # of connection points: 2
#     Edge 34, Type (0, 0), BuildingBlock: EZIPEK_clean_linker_0, # of connection points: 2
#     Edge 35, Type (0, 0), BuildingBlock: EZIPEK_clean_linker_0, # of connection points: 2
#     Edge 36, Type (0, 0), BuildingBlock: EZIPEK_clean_linker_0, # of connection points: 2
#     Edge 37, Type (0, 0), BuildingBlock: EZIPEK_clean_linker_0, # of connection points: 2
#     Edge 38, Type (0, 0), BuildingBlock: EZIPEK_clean_linker_0, # of connection points: 2
#     Edge 39, Type (0, 0), BuildingBlock: EZIPEK_clean_linker_0, # of connection points: 2
#     Edge 40, Type (0, 0), BuildingBlock: EZIPEK_clean_linker_0, # of connection points: 2
#     Edge 41, Type (0, 0), BuildingBlock: EZIPEK_clean_linker_0, # of connection points: 2
#     Edge 42, Type (0, 0), BuildingBlock: EZIPEK_clean_linker_0, # of connection points: 2
#     Edge 43, Type (0, 0), BuildingBlock: EZIPEK_clean_linker_0, # of connection points: 2
#     Edge 44, Type (0, 0), BuildingBlock: EZIPEK_clean_linker_0, # of connection points: 2
#     Edge 45, Type (0, 0), BuildingBlock: EZIPEK_clean_linker_0, # of connection points: 2
#     Edge 46, Type (0, 0), BuildingBlock: EZIPEK_clean_linker_0, # of connection points: 2
#     Edge 47, Type (0, 0), BuildingBlock: EZIPEK_clean_linker_0, # of connection points: 2
#     Edge 48, Type (0, 0), BuildingBlock: EZIPEK_clean_linker_0, # of connection points: 2
#     Edge 49, Type (0, 0), BuildingBlock: EZIPEK_clean_linker_0, # of connection points: 2
#     Edge 50, Type (0, 0), BuildingBlock: EZIPEK_clean_linker_0, # of connection points: 2
#     Edge 51, Type (0, 0), BuildingBlock: EZIPEK_clean_linker_0, # of connection points: 2
#     Edge 52, Type (0, 0), BuildingBlock: EZIPEK_clean_linker_0, # of connection points: 2
#     Edge 53, Type (0, 0), BuildingBlock: EZIPEK_clean_linker_0, # of connection points: 2
#     Edge 54, Type (0, 0), BuildingBlock: EZIPEK_clean_linker_0, # of connection points: 2
#     Edge 55, Type (0, 0), BuildingBlock: EZIPEK_clean_linker_0, # of connection points: 2
#     Edge 56, Type (0, 0), BuildingBlock: EZIPEK_clean_linker_0, # of connection points: 2
#     Edge 57, Type (0, 0), BuildingBlock: EZIPEK_clean_linker_0, # of connection points: 2
#     Edge 58, Type (0, 0), BuildingBlock: EZIPEK_clean_linker_0, # of connection points: 2
#     Edge 59, Type (0, 0), BuildingBlock: EZIPEK_clean_linker_0, # of connection points: 2
#     Edge 60, Type (0, 0), BuildingBlock: EZIPEK_clean_linker_0, # of connection points: 2
#     Edge 61, Type (0, 0), BuildingBlock: EZIPEK_clean_linker_0, # of connection points: 2
#     Edge 62, Type (0, 0), BuildingBlock: EZIPEK_clean_linker_0, # of connection points: 2
#     Edge 63, Type (0, 0), BuildingBlock: EZIPEK_clean_linker_0, # of connection points: 2
#     Edge 64, Type (0, 0), BuildingBlock: EZIPEK_clean_linker_0, # of connection points: 2
#     Edge 65, Type (0, 0), BuildingBlock: EZIPEK_clean_linker_0, # of connection points: 2
#     Edge 66, Type (0, 0), BuildingBlock: EZIPEK_clean_linker_0, # of connection points: 2
#     Edge 67, Type (0, 0), BuildingBlock: EZIPEK_clean_linker_0, # of connection points: 2
#     Edge 68, Type (0, 0), BuildingBlock: EZIPEK_clean_linker_0, # of connection points: 2
#     Edge 69, Type (0, 0), BuildingBlock: EZIPEK_clean_linker_0, # of connection points: 2
#     Edge 70, Type (0, 0), BuildingBlock: EZIPEK_clean_linker_0, # of connection points: 2
#     Edge 71, Type (0, 0), BuildingBlock: EZIPEK_clean_linker_0, # of connection points: 2
#     Edge 72, Type (0, 0), BuildingBlock: EZIPEK_clean_linker_0, # of connection points: 2
#     Edge 73, Type (0, 0), BuildingBlock: EZIPEK_clean_linker_0, # of connection points: 2
#     Edge 74, Type (0, 0), BuildingBlock: EZIPEK_clean_linker_0, # of connection points: 2
#     Edge 75, Type (0, 0), BuildingBlock: EZIPEK_clean_linker_0, # of connection points: 2
#     Edge 76, Type (0, 0), BuildingBlock: EZIPEK_clean_linker_0, # of connection points: 2
#     Edge 77, Type (0, 0), BuildingBlock: EZIPEK_clean_linker_0, # of connection points: 2
#     Edge 78, Type (0, 0), BuildingBlock: EZIPEK_clean_linker_0, # of connection points: 2
#     Edge 79, Type (0, 0), BuildingBlock: EZIPEK_clean_linker_0, # of connection points: 2
#     Edge 80, Type (0, 0), BuildingBlock: EZIPEK_clean_linker_0, # of connection points: 2
#     Edge 81, Type (0, 0), BuildingBlock: EZIPEK_clean_linker_0, # of connection points: 2
#     Edge 82, Type (0, 0), BuildingBlock: EZIPEK_clean_linker_0, # of connection points: 2
#     Edge 83, Type (0, 0), BuildingBlock: EZIPEK_clean_linker_0, # of connection points: 2
#     Edge 84, Type (0, 0), BuildingBlock: EZIPEK_clean_linker_0, # of connection points: 2
#     Edge 85, Type (0, 0), BuildingBlock: EZIPEK_clean_linker_0, # of connection points: 2
#     Edge 86, Type (0, 0), BuildingBlock: EZIPEK_clean_linker_0, # of connection points: 2
#     Edge 87, Type (0, 0), BuildingBlock: EZIPEK_clean_linker_0, # of connection points: 2
#     Edge 88, Type (0, 0), BuildingBlock: EZIPEK_clean_linker_0, # of connection points: 2
#     Edge 89, Type (0, 0), BuildingBlock: EZIPEK_clean_linker_0, # of connection points: 2
# Relax obj value: 0.333
# Max RMSD: 0.289
# Mean RMSD: 0.289
data_MOF--net-ecc--node1-EBIMEJ_clean_sbu_0--edge1-EZIPEK_clean_linker_0
_symmetry_space_group_name_H-M    P1
_symmetry_Int_Tables_number       1
_symmetry_cell_setting            triclinic
loop_
_symmetry_equiv_pos_as_xyz
'x, y, z'
_cell_length_a     46.601942
_cell_length_b     46.81544
_cell_length_c     19.875885
_cell_angle_alpha  89.962854
_cell_angle_beta   89.934484
_cell_angle_gamma 120.09618
loop_
_atom_site_label
_atom_site_type_symbol
_atom_site_fract_x
_atom_site_fract_y
_atom_site_fract_z
_atom_type_partial_charge
Co0 Co 0.14208 0.01425 0.70636 0.0
Co1 Co 0.18713 0.039 0.83236 0.0
Co2 Co 0.20408 1.00609 0.72049 0.0
H3 H 0.17226 1.00788 0.73171 0.0
O4 O 0.16412 1.00181 0.77149 0.0
H5 H 0.2194 0.03551 0.83287 0.0
O6 O 0.22847 0.03985 0.79327 0.0
Co7 Co 0.24981 0.03246 0.87445 0.0
O8 O 0.24815 0.06717 0.94174 0.0
O9 O 0.21057 0.07682 0.89382 0.0
O10 O 0.26663 1.01079 0.80068 0.0
O11 O 0.24493 1.00579 0.69538 0.0
O12 O 0.09552 1.00685 0.7087 0.0
O13 O 0.1063 0.97281 0.75368 0.0
O14 O 0.21106 0.9908 0.91735 0.0
O15 O 0.17179 1.00461 0.90725 0.0
C16 C 0.14957 0.96788 0.61361 0.0
C17 C 0.14183 0.05932 0.80251 0.0
C18 C 0.30512 0.05752 0.93609 0.0
C19 C 0.20061 0.05907 0.62822 0.0
C20 C 0.23222 0.08322 0.93869 0.0
C21 C 0.26494 1.00354 0.73674 0.0
C22 C 0.08464 0.98048 0.74167 0.0
C23 C 0.18182 0.98549 0.93027 0.0
O24 O 0.13447 0.98271 0.63289 0.0
O25 O 0.17668 0.97279 0.64319 0.0
O26 O 0.14734 0.04339 0.84793 0.0
O27 O 0.14761 0.05685 0.74099 0.0
O28 O 0.27707 0.04227 0.9637 0.0
O29 O 0.30175 0.05829 0.87346 0.0
O30 O 0.17076 0.05003 0.64273 0.0
O31 O 0.21598 0.04521 0.65483 0.0
Co32 Co 0.04733 0.15719 0.70652 0.0
Co33 Co 1.01856 0.17619 0.82879 0.0
Co34 Co 0.05411 0.22715 0.7208 0.0
H35 H 0.05246 0.19352 0.7314 0.0
O36 O 0.05743 0.19115 0.77179 0.0
H37 H 1.02217 0.21195 0.82873 0.0
O38 O 1.01812 0.21653 0.78877 0.0
Co39 Co 0.02582 0.24555 0.86991 0.0
O40 O 0.99252 0.20904 0.93927 0.0
O41 O 0.97978 0.16185 0.88753 0.0
O42 O 0.04875 0.28486 0.79792 0.0
O43 O 0.05443 0.26789 0.69366 0.0
O44 O 0.06591 0.12663 0.68476 0.0
O45 O 0.07672 0.15213 0.77583 0.0
O46 O 0.06857 0.24919 0.90753 0.0
O47 O 0.05237 0.19548 0.90533 0.0
C48 C 0.0942 0.21338 0.61767 0.0
C49 C 0.99969 0.10967 0.79917 0.0
C50 C 1.00192 0.27603 0.93444 0.0
C51 C 0.99885 0.16904 0.64288 0.0
C52 C 0.97529 0.17714 0.93511 0.0
C53 C 0.05637 0.29021 0.73409 0.0
C54 C 0.08019 0.13188 0.74083 0.0
C55 C 0.07311 0.22524 0.92337 0.0
O56 O 0.07716 0.1824 0.62887 0.0
O57 O 0.09033 0.23487 0.65174 0.0
O58 O 1.0132 0.13158 0.84526 0.0
O59 O 1.00565 0.11734 0.73727 0.0
O60 O 0.02483 0.27149 0.95506 0.0
O61 O 0.99286 0.2636 0.87687 0.0
O62 O 1.00235 0.14974 0.68216 0.0
O63 O 1.01894 0.20037 0.64756 0.0
Co64 Co 0.89765 0.91902 0.69852 0.0
Co65 Co 0.88174 0.86989 0.82406 0.0
Co66 Co 0.82943 0.8547 0.7193 0.0
H67 H 0.86303 0.8869 0.72809 0.0
O68 O 0.86637 0.89401 0.76876 0.0
H69 H 0.84545 0.83838 0.82755 0.0
O70 O 0.83987 0.82956 0.78792 0.0
Co71 Co 0.8123 0.80865 0.87073 0.0
O72 O 0.84954 0.8131 0.93891 0.0
O73 O 0.89637 0.8453 0.88258 0.0
O74 O 0.77286 0.79075 0.79881 0.0
O75 O 0.7881 0.81418 0.69452 0.0
O76 O 0.91716 0.96957 0.68686 0.0
O77 O 0.90669 0.9486 0.78183 0.0
O78 O 0.81117 0.84822 0.91269 0.0
O79 O 0.86494 0.88607 0.90191 0.0
C80 C 0.84134 0.90877 0.61347 0.0
C81 C 0.94386 0.91196 0.77854 0.0
C82 C 0.78237 0.7537 0.93315 0.0
C83 C 0.88506 0.86009 0.62112 0.0
C84 C 0.88134 0.82649 0.93206 0.0
C85 C 0.76654 0.79308 0.73562 0.0
C86 C 0.91877 0.97489 0.74911 0.0
C87 C 0.83581 0.87696 0.92506 0.0
O88 O 0.87252 0.92452 0.62335 0.0
O89 O 0.82122 0.88254 0.64787 0.0
O90 O 0.92729 0.90842 0.83226 0.0
O91 O 0.92825 0.90177 0.72355 0.0
O92 O 0.77088 0.77263 0.92375 0.0
O93 O 0.81062 0.76591 0.90685 0.0
O94 O 0.90481 0.89061 0.63259 0.0
O95 O 0.85638 0.84394 0.6504 0.0
Co96 Co 0.8101 0.02503 0.16426 0.0
Co97 Co 0.85618 0.05277 0.31738 0.0
Co98 Co 0.87103 0.01562 0.21155 0.0
H99 H 0.84007 0.0215 0.20693 0.0
O100 O 0.83111 0.01837 0.2465 0.0
H101 H 0.88844 0.05095 0.30837 0.0
O102 O 0.8956 0.05481 0.26768 0.0
Co103 Co 0.92087 0.04796 0.33555 0.0
O104 O 0.93007 0.08345 0.39986 0.0
O105 O 0.88319 0.08614 0.39438 0.0
O106 O 0.89991 0.99961 0.31591 0.0
O107 O 0.90823 1.00535 0.2075 0.0
O108 O 0.78141 0.02387 0.08152 0.0
O109 O 0.75902 0.99105 0.15903 0.0
O110 O 0.89019 1.01249 0.40161 0.0
O111 O 0.84356 0.01423 0.38334 0.0
C112 C 0.82679 0.97309 0.10355 0.0
C113 C 0.7955 0.05565 0.29985 0.0
C114 C 0.98004 0.07856 0.29648 0.0
C115 C 0.87986 0.06961 0.11178 0.0
C116 C 0.91203 0.09482 0.42075 0.0
C117 C 0.90895 0.9915 0.26288 0.0
C118 C 0.75442 1.00026 0.10264 0.0
C119 C 0.85951 1.002 0.41343 0.0
O120 O 0.81283 0.99092 0.09746 0.0
O121 O 0.84605 0.97723 0.15231 0.0
O122 O 0.81556 0.05373 0.34154 0.0
O123 O 0.79379 0.04814 0.23604 0.0
O124 O 0.97127 0.07634 0.35699 0.0
O125 O 0.9554 0.06473 0.25856 0.0
O126 O 0.85116 0.0657 0.12508 0.0
O127 O 0.88857 0.04905 0.13357 0.0
Co128 Co 0.03159 0.81134 0.16911 0.0
Co129 Co 1.00338 0.82831 0.31836 0.0
Co130 Co 0.03948 0.88053 0.21199 0.0
H131 H 0.036 0.84492 0.21117 0.0
O132 O 0.03997 0.83996 0.25085 0.0
H133 H 1.00347 0.86058 0.30651 0.0
O134 O 0.99924 0.8637 0.2659 0.0
Co135 Co 1.00609 0.8947 0.33613 0.0
O136 O 0.98228 0.87147 0.42001 0.0
O137 O 0.96617 0.81959 0.38742 0.0
O138 O 0.04719 0.93522 0.30694 0.0
O139 O 0.04278 0.9245 0.19717 0.0
O140 O 0.03218 0.7846 0.0848 0.0
O141 O 0.06508 0.79398 0.16183 0.0
O142 O 0.0526 0.90633 0.35908 0.0
O143 O 0.03878 0.85618 0.39197 0.0
C144 C 0.08433 0.88073 0.10901 0.0
C145 C 1.00238 0.76608 0.3046 0.0
C146 C 0.95994 0.90656 0.3263 0.0
C147 C 0.98685 0.83407 0.113 0.0
C148 C 0.96365 0.84049 0.42668 0.0
C149 C 0.05178 0.94489 0.24624 0.0
C150 C 0.05561 0.78077 0.10504 0.0
C151 C 0.05779 0.88781 0.39738 0.0
O152 O 0.06636 0.8489 0.10329 0.0
O153 O 0.07977 0.89603 0.15684 0.0
O154 O 1.00397 0.78808 0.34558 0.0
O155 O 1.00986 0.77184 0.24076 0.0
O156 O 0.98151 0.91731 0.37195 0.0
O157 O 0.96514 0.88936 0.28541 0.0
O158 O 0.98857 0.80903 0.13377 0.0
O159 O 1.01 0.86316 0.12874 0.0
Co160 Co 0.24571 0.24904 0.16588 0.0
Co161 Co 0.22369 0.20022 0.3141 0.0
Co162 Co 0.17421 0.18965 0.2037 0.0
H163 H 0.2111 0.21982 0.20644 0.0
O164 O 0.21582 0.22763 0.24686 0.0
H165 H 0.188 0.16859 0.30668 0.0
O166 O 0.18434 0.16211 0.26535 0.0
Co167 Co 0.15329 0.1357 0.33972 0.0
O168 O 0.17929 0.13658 0.42152 0.0
O169 O 0.2307 0.17108 0.38303 0.0
O170 O 0.13657 0.12253 0.24392 0.0
O171 O 0.1298 0.15428 0.17665 0.0
O172 O 0.26 0.2758 0.07568 0.0
O173 O 0.27588 0.30066 0.16539 0.0
O174 O 0.14852 0.16768 0.39961 0.0
O175 O 0.19875 0.21258 0.38421 0.0
C176 C 0.18002 0.23541 0.09701 0.0
C177 C 0.28937 0.26115 0.30189 0.0
C178 C 0.11751 0.07458 0.33836 0.0
C179 C 0.22331 0.18159 0.11143 0.0
C180 C 0.21058 0.14866 0.42476 0.0
C181 C 0.11679 0.12879 0.21206 0.0
C182 C 0.27656 0.30377 0.10242 0.0
C183 C 0.16958 0.19779 0.41157 0.0
O184 O 0.21165 0.24724 0.09227 0.0
O185 O 0.16392 0.21717 0.1458 0.0
O186 O 0.26676 0.2393 0.3404 0.0
O187 O 0.28426 0.26517 0.23894 0.0
O188 O 0.14796 0.08949 0.35068 0.0
O189 O 0.10711 0.09457 0.33552 0.0
O190 O 0.2481 0.20951 0.12783 0.0
O191 O 0.19365 0.17382 0.12906 0.0
Co192 Co 0.8074 0.34166 0.02613 0.0
Co193 Co 0.85284 0.37197 0.15733 0.0
Co194 Co 0.87083 0.33718 0.05219 0.0
H195 H 0.83844 0.33837 0.05868 0.0
O196 O 0.83021 0.33362 0.09856 0.0
H197 H 0.88522 0.36842 0.16178 0.0
O198 O 0.89451 0.37234 0.12242 0.0
Co199 Co 0.91567 0.36594 0.2048 0.0
O200 O 0.91247 0.4003 0.27013 0.0
O201 O 0.87559 0.41013 0.21892 0.0
O202 O 0.93413 0.34421 0.13473 0.0
O203 O 0.912 0.33712 0.02955 0.0
O204 O 0.75666 0.31544 1.00968 0.0
O205 O 0.77584 0.31681 0.10464 0.0
O206 O 0.87603 0.32455 0.24566 0.0
O207 O 0.83653 0.33813 0.23373 0.0
C208 C 0.81811 0.2953 0.94383 0.0
C209 C 0.81149 0.39183 0.10953 0.0
C210 C 0.97098 0.39095 0.26663 0.0
C211 C 0.86762 0.38773 0.95214 0.0
C212 C 0.89652 0.41629 0.26558 0.0
C213 C 0.9325 0.33615 0.07133 0.0
C214 C 0.75019 0.30627 0.06991 0.0
C215 C 0.84667 0.31915 0.2575 0.0
O216 O 0.80254 0.31093 0.95181 0.0
O217 O 0.84401 0.30143 0.97959 0.0
O218 O 0.81314 0.37748 0.16302 0.0
O219 O 0.82501 0.38873 0.05703 0.0
O220 O 0.94402 0.36744 0.28808 0.0
O221 O 0.96656 0.39997 0.20988 0.0
O222 O 0.83681 0.37675 0.96066 0.0
O223 O 0.88315 0.37538 0.98395 0.0
Co224 Co 0.70652 0.48724 0.04892 0.0
Co225 Co 0.68332 0.51263 0.15747 0.0
Co226 Co 0.71664 0.56111 0.05165 0.0
H227 H 0.71371 0.52589 0.06245 0.0
O228 O 0.72086 0.52698 0.1023 0.0
H229 H 0.68749 0.54814 0.1636 0.0
O230 O 0.68311 0.55339 0.12431 0.0
Co231 Co 0.69234 0.58035 0.20865 0.0
O232 O 0.65901 0.5424 0.27588 0.0
O233 O 0.64486 0.49612 0.21862 0.0
O234 O 0.71442 0.61847 0.13313 0.0
O235 O 0.71761 0.60214 0.02589 0.0
O236 O 0.71087 0.4462 0.03659 0.0
O237 O 0.7421 0.48403 0.10222 0.0
O238 O 0.73135 0.57948 0.25574 0.0
O239 O 0.71743 0.5275 0.23244 0.0
C240 C 0.75397 0.54207 0.95139 0.0
C241 C 0.65954 0.44203 0.17465 0.0
C242 C 0.66793 0.61054 0.27103 0.0
C243 C 0.66472 0.504 0.96119 0.0
C244 C 0.64111 0.5106 0.26898 0.0
C245 C 0.72075 0.62418 0.06866 0.0
C246 C 0.73446 0.45652 0.07795 0.0
C247 C 0.73643 0.55508 0.26203 0.0
O248 O 0.73661 0.51156 0.96885 0.0
O249 O 0.75035 0.56527 0.97923 0.0
O250 O 0.67938 0.4682 0.14507 0.0
O251 O 0.68027 0.4685 0.1424 0.0
O252 O 0.6889 0.60395 0.2951 0.0
O253 O 0.66122 0.6004 0.21143 0.0
O254 O 0.6742 0.48362 0.97697 0.0
O255 O 0.67785 0.53325 0.98697 0.0
Co256 Co 0.57145 0.25104 0.03414 0.0
Co257 Co 0.55084 0.20418 0.16279 0.0
Co258 Co 0.50039 0.18864 0.05437 0.0
H259 H 0.53506 0.22046 0.06259 0.0
O260 O 0.53754 0.22825 0.10263 0.0
H261 H 0.51456 0.17244 0.16375 0.0
O262 O 0.50992 0.16355 0.12416 0.0
Co263 Co 0.48049 0.14284 0.20524 0.0
O264 O 0.51641 0.14491 0.27416 0.0
O265 O 0.56425 0.17987 0.22384 0.0
O266 O 0.4409 0.12721 0.13445 0.0
O267 O 0.45866 0.14838 0.02938 0.0
O268 O 0.61251 0.29759 0.03738 0.0
O269 O 0.56794 0.28786 0.08192 0.0
O270 O 0.47815 0.18202 0.24536 0.0
O271 O 0.53203 0.21976 0.23803 0.0
C272 C 0.51431 0.24212 0.94905 0.0
C273 C 0.61657 0.24842 0.13233 0.0
C274 C 0.44988 0.08797 0.26782 0.0
C275 C 0.55539 0.19151 0.95767 0.0
C276 C 0.54841 0.15945 0.27035 0.0
C277 C 0.43578 0.12895 0.07039 0.0
C278 C 0.59768 0.30897 0.07101 0.0
C279 C 0.50261 0.21061 0.25934 0.0
O280 O 0.54551 0.2559 0.95864 0.0
O281 O 0.49305 0.21667 0.98353 0.0
O282 O 0.59525 0.24294 0.17818 0.0
O283 O 0.60882 0.24539 0.0702 0.0
O284 O 0.45779 0.11567 0.29258 0.0
O285 O 0.4592 0.09144 0.20747 0.0
O286 O 0.57677 0.22125 0.97067 0.0
O287 O 0.52636 0.17672 0.98562 0.0
Co288 Co 0.47586 0.3573 0.50016 0.0
Co289 Co 0.52112 0.38473 0.65155 0.0
Co290 Co 0.5376 0.34923 0.54587 0.0
H291 H 0.50567 0.35359 0.54273 0.0
O292 O 0.49658 0.34957 0.58226 0.0
H293 H 0.55371 0.38359 0.64345 0.0
O294 O 0.5612 0.38799 0.60303 0.0
Co295 Co 0.58591 0.38084 0.67243 0.0
O296 O 0.59007 0.41136 0.74734 0.0
O297 O 0.54832 0.42076 0.72245 0.0
O298 O 0.58327 0.33856 0.64502 0.0
O299 O 0.57659 0.34264 0.53527 0.0
O300 O 0.44708 0.35552 0.41716 0.0
O301 O 0.42484 0.32307 0.49535 0.0
O302 O 0.55711 0.34504 0.73625 0.0
O303 O 0.51062 0.34748 0.72127 0.0
C304 C 0.4939 0.30671 0.43767 0.0
C305 C 0.46061 0.38763 0.6343 0.0
C306 C 0.64187 0.41478 0.62649 0.0
C307 C 0.54475 0.40308 0.44631 0.0
C308 C 0.5744 0.4268 0.75703 0.0
C309 C 0.58415 0.32998 0.58459 0.0
C310 C 0.42017 0.33193 0.43861 0.0
C311 C 0.52675 0.33464 0.74892 0.0
O312 O 0.47961 0.32424 0.43226 0.0
O313 O 0.51338 0.31086 0.48601 0.0
O314 O 0.48008 0.38483 0.6761 0.0
O315 O 0.45941 0.38081 0.5703 0.0
O316 O 0.63579 0.39856 0.68021 0.0
O317 O 0.61644 0.41232 0.59971 0.0
O318 O 0.51584 0.39862 0.45951 0.0
O319 O 0.5539 0.38302 0.46865 0.0
Co320 Co 0.70008 0.145 0.49879 0.0
Co321 Co 0.67261 0.16303 0.65031 0.0
Co322 Co 0.70845 0.21458 0.54377 0.0
H323 H 0.70391 0.17845 0.54138 0.0
O324 O 0.70773 0.17323 0.58081 0.0
H325 H 0.67537 0.19746 0.64308 0.0
O326 O 0.67048 0.20051 0.60304 0.0
Co327 Co 0.68036 0.2331 0.67274 0.0
O328 O 0.65011 0.20736 0.74915 0.0
O329 O 0.63719 0.15544 0.722 0.0
O330 O 0.72215 0.27225 0.63854 0.0
O331 O 0.71444 0.25936 0.52981 0.0
O332 O 0.6977 0.11189 0.42472 0.0
O333 O 0.73927 0.13594 0.48384 0.0
O334 O 0.71733 0.23855 0.73342 0.0
O335 O 0.71082 0.18814 0.71871 0.0
C336 C 0.75056 0.21317 0.43469 0.0
C337 C 0.66969 0.09935 0.63317 0.0
C338 C 0.64486 0.25433 0.62988 0.0
C339 C 0.65395 0.16721 0.44611 0.0
C340 C 0.63281 0.17621 0.75758 0.0
C341 C 0.72826 0.2806 0.57676 0.0
C342 C 0.72594 0.11571 0.43651 0.0
C343 C 0.72583 0.21714 0.74595 0.0
O344 O 0.73273 0.18141 0.42939 0.0
O345 O 0.74663 0.22842 0.48322 0.0
O346 O 0.67076 0.1211 0.67412 0.0
O347 O 0.67807 0.1054 0.56984 0.0
O348 O 0.66411 0.26656 0.67922 0.0
O349 O 0.64515 0.22972 0.60613 0.0
O350 O 0.65831 0.14287 0.45935 0.0
O351 O 0.67417 0.19642 0.46795 0.0
Co352 Co 0.91157 0.58097 0.50217 0.0
Co353 Co 0.893 0.5354 0.65398 0.0
Co354 Co 0.84212 0.51945 0.54669 0.0
H355 H 0.87816 0.5514 0.54492 0.0
O356 O 0.88288 0.56028 0.58455 0.0
H357 H 0.85947 0.50272 0.6442 0.0
O358 O 0.85716 0.49572 0.60355 0.0
Co359 Co 0.82415 0.4702 0.67112 0.0
O360 O 0.85034 0.46532 0.74588 0.0
O361 O 0.90161 0.50794 0.72438 0.0
O362 O 0.78473 0.47301 0.64075 0.0
O363 O 0.79764 0.48033 0.53212 0.0
O364 O 0.93772 0.60878 0.41774 0.0
O365 O 0.9296 0.63192 0.49724 0.0
O366 O 0.81605 0.49773 0.7364 0.0
O367 O 0.86477 0.54466 0.7232 0.0
C368 C 0.84276 0.56187 0.43763 0.0
C369 C 0.95626 0.59598 0.63874 0.0
C370 C 0.80213 0.41501 0.62248 0.0
C371 C 0.88922 0.51346 0.4456 0.0
C372 C 0.88145 0.48122 0.75696 0.0
C373 C 0.77642 0.47225 0.57943 0.0
C374 C 0.94209 0.6359 0.43946 0.0
C375 C 0.83548 0.52795 0.75014 0.0
O376 O 0.87468 0.57565 0.43153 0.0
O377 O 0.82789 0.54395 0.4882 0.0
O378 O 0.93371 0.5763 0.68005 0.0
O379 O 0.9509 0.59747 0.57459 0.0
O380 O 0.78946 0.42098 0.67251 0.0
O381 O 0.82775 0.44001 0.60137 0.0
O382 O 0.91368 0.54229 0.45802 0.0
O383 O 0.86021 0.50409 0.46952 0.0
Co384 Co 0.47249 0.67523 0.3634 0.0
Co385 Co 0.52048 0.70824 0.49054 0.0
Co386 Co 0.53646 0.67152 0.38667 0.0
H387 H 0.50426 0.67277 0.39446 0.0
O388 O 0.49663 0.66895 0.4348 0.0
H389 H 0.55181 0.70317 0.49537 0.0
O390 O 0.5611 0.70668 0.45609 0.0
Co391 Co 0.58103 0.6992 0.53909 0.0
O392 O 0.57708 0.73246 0.6063 0.0
O393 O 0.5449 0.74694 0.54966 0.0
O394 O 0.59832 0.67649 0.46895 0.0
O395 O 0.57724 0.67106 0.36302 0.0
O396 O 0.42207 0.64221 0.35434 0.0
O397 O 0.44411 0.6555 0.44838 0.0
O398 O 0.54035 0.6582 0.57783 0.0
O399 O 0.50324 0.67505 0.56874 0.0
C400 C 0.48292 0.62953 0.27928 0.0
C401 C 0.47864 0.72893 0.44156 0.0
C402 C 0.63599 0.72324 0.60163 0.0
C403 C 0.53236 0.72176 0.2876 0.0
C404 C 0.56348 0.75057 0.59944 0.0
C405 C 0.59708 0.66919 0.40522 0.0
C406 C 0.41759 0.63935 0.41694 0.0
C407 C 0.51172 0.65443 0.59082 0.0
O408 O 0.46714 0.64487 0.28829 0.0
O409 O 0.50911 0.63584 0.31418 0.0
O410 O 0.48218 0.7162 0.49586 0.0
O411 O 0.48797 0.72272 0.38623 0.0
O412 O 0.60908 0.69907 0.62137 0.0
O413 O 0.63175 0.73345 0.54612 0.0
O414 O 0.50154 0.71069 0.2976 0.0
O415 O 0.54827 0.70955 0.31844 0.0
Co416 Co 0.37769 0.82587 0.3624 0.0
Co417 Co 0.35078 0.84365 0.49158 0.0
Co418 Co 0.38569 0.89524 0.38551 0.0
H419 H 0.3834 0.86133 0.39297 0.0
O420 O 0.3887 0.85825 0.43258 0.0
H421 H 0.35493 0.87956 0.4948 0.0
O422 O 0.35082 0.88482 0.45567 0.0
Co423 Co 0.35889 0.91265 0.53874 0.0
O424 O 0.32806 0.87552 0.60982 0.0
O425 O 0.3124 0.82944 0.55127 0.0
O426 O 0.38197 0.95258 0.46798 0.0
O427 O 0.3867 0.93657 0.36204 0.0
O428 O 0.38704 0.78803 0.36031 0.0
O429 O 0.41945 0.83182 0.41003 0.0
O430 O 0.40021 0.91473 0.58 0.0
O431 O 0.38501 0.86155 0.56745 0.0
C432 C 0.42438 0.88199 0.27633 0.0
C433 C 0.33217 0.77794 0.45787 0.0
C434 C 0.33431 0.94275 0.60196 0.0
C435 C 0.33183 0.84023 0.29159 0.0
C436 C 0.30984 0.8438 0.603 0.0
C437 C 0.38922 0.95851 0.40408 0.0
C438 C 0.41303 0.80325 0.39477 0.0
C439 C 0.40476 0.89039 0.59139 0.0
O440 O 0.4059 0.85094 0.28355 0.0
O441 O 0.42125 0.90304 0.3137 0.0
O442 O 0.34584 0.79917 0.50486 0.0
O443 O 0.33591 0.78654 0.39631 0.0
O444 O 0.3576 0.9389 0.62293 0.0
O445 O 0.32532 0.92993 0.54468 0.0
O446 O 0.34016 0.81889 0.30452 0.0
O447 O 0.34717 0.86954 0.31755 0.0
Co448 Co 0.23771 0.58398 0.3662 0.0
Co449 Co 0.21635 0.53711 0.49526 0.0
Co450 Co 0.16626 0.52223 0.38588 0.0
H451 H 0.20113 0.55373 0.39451 0.0
O452 O 0.20363 0.56155 0.43458 0.0
H453 H 0.17989 0.50565 0.49625 0.0
O454 O 0.17502 0.49686 0.45659 0.0
Co455 Co 0.14588 0.47577 0.53786 0.0
O456 O 0.18154 0.47754 0.60667 0.0
O457 O 0.22936 0.51232 0.55612 0.0
O458 O 0.10711 0.45902 0.46496 0.0
O459 O 0.12402 0.48231 0.36097 0.0
O460 O 0.26887 0.63319 0.34585 0.0
O461 O 0.24412 0.61804 0.43789 0.0
O462 O 0.14421 0.51478 0.58171 0.0
O463 O 0.19777 0.55302 0.57062 0.0
C464 C 0.18189 0.57602 0.27885 0.0
C465 C 0.28289 0.58237 0.46609 0.0
C466 C 0.11537 0.42034 0.59898 0.0
C467 C 0.22104 0.52343 0.29098 0.0
C468 C 0.21347 0.49175 0.60236 0.0
C469 C 0.10166 0.46156 0.4014 0.0
C470 C 0.26405 0.642 0.40248 0.0
C471 C 0.1687 0.54357 0.59453 0.0
O472 O 0.21294 0.58978 0.28978 0.0
O473 O 0.16022 0.55042 0.31268 0.0
O474 O 0.26099 0.57554 0.51148 0.0
O475 O 0.27559 0.57953 0.4037 0.0
O476 O 0.12454 0.448 0.62543 0.0
O477 O 0.12326 0.42417 0.53773 0.0
O478 O 0.24244 0.55334 0.30313 0.0
O479 O 0.19204 0.50907 0.31911 0.0
Co480 Co 0.14269 0.6915 0.83395 0.0
Co481 Co 0.18706 0.72019 0.98628 0.0
Co482 Co 0.20498 0.68485 0.8829 0.0
H483 H 0.17268 0.68854 0.8777 0.0
O484 O 0.16335 0.68472 0.91696 0.0
H485 H 0.22019 0.72071 0.97807 0.0
O486 O 0.22754 0.7246 0.93755 0.0
Co487 Co 0.25338 0.72053 1.00822 0.0
O488 O 0.25594 0.74843 0.08569 0.0
O489 O 0.21342 0.75627 0.05843 0.0
O490 O 0.24851 0.67666 0.98652 0.0
O491 O 0.24523 0.67979 0.87536 0.0
O492 O 0.11503 0.68527 0.74637 0.0
O493 O 0.0909 0.66208 0.8337 0.0
O494 O 0.22537 0.68332 0.07095 0.0
O495 O 0.17729 0.68232 0.05372 0.0
C496 C 0.16176 0.64086 0.77467 0.0
C497 C 0.12526 0.72043 0.96869 0.0
C498 C 0.30758 0.76057 0.95761 0.0
C499 C 0.21173 0.73658 0.77868 0.0
C500 C 0.2394 0.76297 0.09429 0.0
C501 C 0.25316 0.66915 0.92761 0.0
C502 C 0.08721 0.66638 0.77256 0.0
C503 C 0.19448 0.67086 0.08216 0.0
O504 O 0.14677 0.65772 0.76865 0.0
O505 O 0.18164 0.64596 0.82306 0.0
O506 O 0.14541 0.71886 1.01061 0.0
O507 O 0.12412 0.71299 0.90492 0.0
O508 O 0.30396 0.74973 1.0168 0.0
O509 O 0.28036 0.74929 0.92796 0.0
O510 O 0.18216 0.73125 0.78748 0.0
O511 O 0.22115 0.71779 0.80606 0.0
Co512 Co 0.36625 0.47877 0.83109 0.0
Co513 Co 0.33871 0.49556 0.98392 0.0
Co514 Co 0.37201 0.54726 0.87653 0.0
H515 H 0.36913 0.51179 0.87389 0.0
O516 O 0.37368 0.50705 0.91314 0.0
H517 H 0.34002 0.52925 0.97699 0.0
O518 O 0.33443 0.53199 0.93738 0.0
Co519 Co 0.34436 0.5643 1.00791 0.0
O520 O 0.31364 0.53764 0.08242 0.0
O521 O 0.30301 0.4864 0.05636 0.0
O522 O 0.38542 0.60366 0.97121 0.0
O523 O 0.37514 0.59072 0.86278 0.0
O524 O 0.36353 0.44487 0.75858 0.0
O525 O 0.40577 0.47028 0.81532 0.0
O526 O 0.38228 0.57174 0.06556 0.0
O527 O 0.37704 0.52185 0.05201 0.0
C528 C 0.4151 0.54764 0.76697 0.0
C529 C 0.33751 0.43308 0.96548 0.0
C530 C 0.30894 0.58916 0.99231 0.0
C531 C 0.31859 0.49901 0.77813 0.0
C532 C 0.29743 0.50657 0.0913 0.0
C533 C 0.38862 0.61204 0.90955 0.0
C534 C 0.39209 0.4493 0.76934 0.0
C535 C 0.39145 0.55103 0.07861 0.0
O536 O 0.39866 0.51578 0.76235 0.0
O537 O 0.40995 0.56251 0.81457 0.0
O538 O 0.3389 0.45469 1.00711 0.0
O539 O 0.34497 0.43911 0.90181 0.0
O540 O 0.33576 0.6021 0.02437 0.0
O541 O 0.30298 0.56227 0.9667 0.0
O542 O 0.32406 0.47529 0.79032 0.0
O543 O 0.33766 0.52811 0.80151 0.0
Co544 Co 0.57766 0.91474 0.83366 0.0
Co545 Co 0.55879 0.86833 0.98431 0.0
Co546 Co 0.50741 0.85334 0.87776 0.0
H547 H 0.54386 0.88492 0.87578 0.0
O548 O 0.54895 0.89366 0.91549 0.0
H549 H 0.52423 0.83625 0.97606 0.0
O550 O 0.52146 0.82897 0.93555 0.0
Co551 Co 0.48822 0.80465 1.00407 0.0
O552 O 0.5146 0.79926 0.0782 0.0
O553 O 0.56648 0.8404 0.05505 0.0
O554 O 0.44962 0.80926 0.97288 0.0
O555 O 0.4622 0.8149 0.86397 0.0
O556 O 0.59282 0.94132 0.74313 0.0
O557 O 0.6067 0.96647 0.83272 0.0
O558 O 0.48226 0.83461 0.0668 0.0
O559 O 0.53249 0.87969 0.05353 0.0
C560 C 0.50921 0.89761 0.77036 0.0
C561 C 0.62295 0.9296 0.96886 0.0
C562 C 0.46211 0.74751 0.96208 0.0
C563 C 0.55473 0.84677 0.77869 0.0
C564 C 0.54579 0.81429 0.08868 0.0
C565 C 0.4412 0.80816 0.91146 0.0
C566 C 0.60827 0.96944 0.7697 0.0
C567 C 0.50309 0.86457 0.07996 0.0
O568 O 0.54113 0.91162 0.76526 0.0
O569 O 0.49372 0.87807 0.81843 0.0
O570 O 0.6008 0.90861 1.00933 0.0
O571 O 0.61708 0.93218 0.90552 0.0
O572 O 0.45501 0.75528 1.01762 0.0
O573 O 0.48404 0.77201 0.93079 0.0
O574 O 0.57934 0.87529 0.7927 0.0
O575 O 0.52539 0.83771 0.80069 0.0
C576 C 0.07683 0.07931 0.77842 0.0
C577 C 0.09624 0.11386 0.76679 0.0
C578 C 0.14579 0.1137 0.80726 0.0
C579 C 0.1263 0.0792 0.81683 0.0
N580 N 0.07299 0.03178 0.83581 0.0
N581 N 0.14797 0.1652 0.77944 0.0
C582 C 0.09159 0.06298 0.81083 0.0
C583 C 0.1303 0.13159 0.78527 0.0
N584 N 0.04476 0.06181 0.7566 0.0
N585 N 0.17938 0.1287 0.8155 0.0
H586 H 0.1382 0.17885 0.75821 0.0
H587 H 0.17192 0.17983 0.79781 0.0
H588 H 0.19067 0.116 0.83467 0.0
H589 H 0.19601 0.15301 0.802 0.0
H590 H 0.03108 0.0361 0.75646 0.0
H591 H 0.03228 0.07268 0.73469 0.0
H592 H 0.04717 0.01907 0.83736 0.0
H593 H 0.08393 0.02021 0.86138 0.0
C594 C 0.94281 0.06423 0.77997 0.0
C595 C 0.97329 0.07551 0.81378 0.0
C596 C 0.96209 0.01884 0.82529 0.0
C597 C 0.93477 1.00838 0.77995 0.0
N598 N 0.89674 0.01989 0.72011 0.0
N599 N 1.00902 0.06477 0.88234 0.0
C600 C 0.92414 0.03069 0.75993 0.0
C601 C 0.98154 0.05298 0.84231 0.0
N602 N 0.93219 0.08612 0.76709 0.0
N603 N 0.97046 0.99658 0.84899 0.0
H604 H 0.0228 0.08954 0.89615 0.0
H605 H 1.01832 0.05065 0.90282 0.0
H606 H 0.95826 0.97196 0.8351 0.0
H607 H 0.98919 1.00186 0.88347 0.0
H608 H 0.90931 0.07974 0.74612 0.0
H609 H 0.94556 0.11066 0.78305 0.0
H610 H 0.88987 0.03536 0.69638 0.0
H611 H 0.88106 0.99501 0.70933 0.0
C612 C 1.00084 0.92804 0.82636 0.0
C613 C 0.98065 0.93015 0.77496 0.0
C614 C 0.02822 0.95456 0.69946 0.0
C615 C 0.04922 0.95874 0.75352 0.0
N616 N 0.05651 0.952 0.87168 0.0
N617 N 0.98005 0.95649 0.66937 0.0
C618 C 0.03594 0.94613 0.81817 0.0
C619 C 0.99573 0.94659 0.71343 0.0
N620 N 0.987 0.90786 0.88081 0.0
N621 N 0.03923 0.95825 0.63446 0.0
H622 H 0.95739 0.95438 0.67982 0.0
H623 H 0.99166 0.97085 0.62697 0.0
H624 H 0.06291 0.96271 0.62205 0.0
H625 H 0.02347 0.95286 0.59327 0.0
H626 H 1.00092 0.90338 0.91581 0.0
H627 H 0.96158 0.89296 0.88777 0.0
H628 H 0.04798 0.94634 0.92109 0.0
H629 H 0.08227 0.96479 0.86729 0.0
C630 C 0.93873 0.94282 0.36059 0.0
C631 C 0.93713 0.91964 0.31451 0.0
C632 C 0.91281 0.94029 0.23078 0.0
C633 C 0.92188 0.96822 0.27293 0.0
N634 N 0.95208 0.99848 0.37273 0.0
N635 N 0.9082 0.8861 0.21957 0.0
C636 C 0.93715 0.97001 0.33646 0.0
C637 C 0.92018 0.91539 0.25272 0.0
N638 N 0.94131 0.9386 0.42786 0.0
N639 N 0.89751 0.93756 0.17062 0.0
H640 H 0.91022 0.86658 0.23959 0.0
H641 H 0.89373 0.87979 0.17637 0.0
H642 H 0.89062 0.95438 0.15433 0.0
H643 H 0.89283 0.91948 0.13501 0.0
H644 H 0.9401 0.95402 0.46425 0.0
H645 H 0.94002 0.91719 0.44693 0.0
H646 H 0.96566 1.00137 0.41643 0.0
H647 H 0.95467 0.0202 0.35419 0.0
C648 C 0.11776 0.03239 0.25864 0.0
C649 C 0.10007 0.04224 0.30307 0.0
C650 C 0.04854 0.99427 0.266 0.0
C651 C 0.06671 0.98061 0.23752 0.0
N652 N 0.11911 0.98624 0.20675 0.0
N653 N 0.04675 0.03119 0.347 0.0
C654 C 0.1015 0.99974 0.23296 0.0
C655 C 0.06492 0.02295 0.30571 0.0
N656 N 0.149 0.05441 0.23673 0.0
N657 N 1.01498 0.97858 0.26014 0.0
H658 H 0.05732 0.0503 0.38196 0.0
H659 H 1.0209 0.01733 0.34892 0.0
H660 H 1.00163 0.95774 0.22998 0.0
H661 H 1.00163 0.95774 0.22998 0.0
H662 H 0.16137 0.0483 0.20106 0.0
H663 H 0.16069 0.07967 0.24562 0.0
H664 H 0.14483 0.99746 0.21041 0.0
H665 H 0.10753 0.96298 0.18419 0.0
C666 C 0.07323 0.13538 0.27457 0.0
C667 C 0.08183 0.11577 0.23389 0.0
C668 C 0.02351 0.07146 0.23382 0.0
C669 C 1.01494 0.09156 0.27353 0.0
N670 N 0.03176 0.14372 0.32825 0.0
N671 N 0.06514 0.06709 0.16737 0.0
C672 C 0.03982 0.12367 0.29287 0.0
C673 C 0.05688 0.08434 0.21133 0.0
N674 N 0.09648 0.16582 0.29671 0.0
N675 N 1.00015 0.03944 0.22055 0.0
H676 H 0.08948 0.07521 0.15221 0.0
H677 H 0.04803 0.04576 0.14247 0.0
H678 H 0.97605 0.02845 0.23846 0.0
H679 H 1.00481 0.02268 0.19569 0.0
H680 H 0.12179 0.1768 0.28663 0.0
H681 H 0.12179 0.1768 0.28663 0.0
H682 H 0.04948 0.16743 0.34373 0.0
H683 H 1.00744 0.13719 0.34036 0.0
C684 C 0.78473 0.42282 0.16065 0.0
C685 C 0.79221 0.40937 0.10346 0.0
C686 C 0.76843 0.43458 0.03104 0.0
C687 C 0.75485 0.44122 0.08794 0.0
N688 N 0.74641 0.43808 0.20823 0.0
N689 N 0.78004 0.39496 0.98385 0.0
C690 C 0.76185 0.43429 0.15335 0.0
C691 C 0.78148 0.41352 0.0382 0.0
N692 N 0.80061 0.42665 0.22053 0.0
N693 N 0.76879 0.44808 0.96976 0.0
H694 H 0.78231 0.37413 0.98703 0.0
H695 H 0.77028 0.3963 0.93754 0.0
H696 H 0.75998 0.46437 0.96218 0.0
H697 H 0.78134 0.44596 0.92829 0.0
H698 H 0.79744 0.43864 0.26161 0.0
H699 H 0.82017 0.42215 0.22666 0.0
H700 H 0.74836 0.43025 0.25626 0.0
H701 H 0.72933 0.44622 0.20467 0.0
C702 C 0.63487 0.40173 0.07729 0.0
C703 C 0.64561 0.40858 0.14522 0.0
C704 C 0.61746 0.34917 0.16685 0.0
C705 C 0.6136 0.34311 0.09657 0.0
N706 N 0.62143 0.36457 0.98321 0.0
N707 N 0.6496 0.38803 0.2542 0.0
C708 C 0.62386 0.36977 0.05109 0.0
C709 C 0.63765 0.38202 0.18987 0.0
N710 N 0.63083 0.42399 0.04049 0.0
N711 N 0.6012 0.32398 0.21186 0.0
H712 H 0.66455 0.4118 0.27314 0.0
H713 H 0.64711 0.36936 0.28653 0.0
H714 H 0.5867 0.29935 0.19772 0.0
H715 H 0.60032 0.32795 0.26324 0.0
H716 H 0.62028 0.41883 0.99263 0.0
H717 H 0.63326 0.4454 0.06176 0.0
H718 H 0.63148 0.38396 0.94862 0.0
H719 H 0.61131 0.34118 0.96171 0.0
C720 C 0.69888 0.25542 0.11041 0.0
C721 C 0.71657 0.29003 0.09953 0.0
C722 C 0.67201 0.29436 0.15407 0.0
C723 C 0.65147 0.26015 0.14813 0.0
N724 N 0.64491 0.20662 0.12952 0.0
N725 N 0.71814 0.34229 0.10553 0.0
C726 C 0.665 0.2401 0.13013 0.0
C727 C 0.70284 0.3096 0.12078 0.0
N728 N 0.71427 0.23746 0.10114 0.0
N729 N 0.66159 0.31208 0.19048 0.0
H730 H 0.73942 0.35326 0.07648 0.0
H731 H 0.70773 0.35711 0.11474 0.0
H732 H 0.63977 0.30015 0.21854 0.0
H733 H 0.67639 0.33729 0.19974 0.0
H734 H 0.70353 0.21254 0.11327 0.0
H735 H 0.73895 0.24834 0.08594 0.0
H736 H 0.65208 0.19037 0.11084 0.0
H737 H 0.62046 0.19532 0.14681 0.0
C738 C 0.61445 0.30318 0.53061 0.0
C739 C 0.59071 0.30214 0.57648 0.0
C740 C 0.59607 0.26203 0.64661 0.0
C741 C 0.62275 0.26626 0.60564 0.0
N742 N 0.65034 0.28313 0.49722 0.0
N743 N 0.54806 0.2689 0.65632 0.0
C744 C 0.62941 0.28387 0.54392 0.0
C745 C 0.57791 0.27752 0.62736 0.0
N746 N 0.62298 0.32234 0.47423 0.0
N747 N 0.58872 0.24411 0.7048 0.0
H748 H 0.53381 0.27907 0.63999 0.0
H749 H 0.53601 0.24946 0.69026 0.0
H750 H 0.60058 0.23116 0.71889 0.0
H751 H 0.5721 0.24351 0.74066 0.0
H752 H 0.64125 0.32434 0.4409 0.0
H753 H 0.61094 0.33495 0.45942 0.0
H754 H 0.66134 0.26856 0.50175 0.0
H755 H 0.66134 0.26856 0.50175 0.0
C756 C 0.79682 0.35965 0.63106 0.0
C757 C 0.78996 0.38169 0.59575 0.0
C758 C 0.75096 0.33695 0.52264 0.0
C759 C 0.75545 0.31469 0.56323 0.0
N760 N 0.79458 0.30706 0.62705 0.0
N761 N 0.7713 0.39431 0.49301 0.0
C762 C 0.78263 0.32698 0.60766 0.0
C763 C 0.77052 0.37135 0.53631 0.0
N764 N 0.81561 0.36935 0.68818 0.0
N765 N 0.72789 0.32539 0.47267 0.0
H766 H 0.7865 0.41954 0.50136 0.0
H767 H 0.75972 0.38848 0.44623 0.0
H768 H 0.71661 0.30101 0.45629 0.0
H769 H 0.72018 0.33991 0.44757 0.0
H770 H 0.81839 0.35293 0.71921 0.0
H771 H 0.82654 0.39335 0.70685 0.0
H772 H 0.81622 0.3156 0.65512 0.0
H773 H 0.78485 0.28336 0.60704 0.0
C774 C 0.73151 0.4818 0.61454 0.0
C775 C 0.74287 0.46708 0.56745 0.0
C776 C 0.6857 0.42614 0.54097 0.0
C777 C 0.67547 0.43573 0.59983 0.0
N778 N 0.68833 0.47332 0.69293 0.0
N779 N 0.72945 0.43093 0.47094 0.0
C780 C 0.69815 0.46418 0.63607 0.0
C781 C 0.71981 0.44146 0.52553 0.0
N782 N 0.75309 0.5125 0.63883 0.0
N783 N 0.66314 0.40141 0.50097 0.0
H784 H 0.75389 0.44202 0.45406 0.0
H785 H 0.75389 0.44202 0.45406 0.0
H786 H 0.63771 0.38986 0.50961 0.0
H787 H 0.67004 0.39338 0.45814 0.0
H788 H 0.74589 0.5258 0.66967 0.0
H789 H 0.77756 0.52581 0.62167 0.0
H790 H 0.70491 0.49133 0.72587 0.0
H791 H 0.66381 0.46132 0.70956 0.0
C792 C 0.44362 0.74514 0.376 0.0
C793 C 0.46078 0.74782 0.43704 0.0
C794 C 0.44724 0.78961 0.47453 0.0
C795 C 0.43443 0.78923 0.40931 0.0
N796 N 0.43377 0.77598 0.29195 0.0
N797 N 0.48493 0.77896 0.53933 0.0
C798 C 0.43726 0.77024 0.35804 0.0
C799 C 0.46442 0.7719 0.48527 0.0
N800 N 0.43162 0.7178 0.33638 0.0
N801 N 0.44199 0.80546 0.52657 0.0
H802 H 0.49865 0.7674 0.54834 0.0
H803 H 0.49065 0.79858 0.5718 0.0
H804 H 0.42918 0.81823 0.52113 0.0
H805 H 0.4479 0.80344 0.57625 0.0
H806 H 0.41706 0.71436 0.29397 0.0
H807 H 0.4322 0.69694 0.35134 0.0
H808 H 0.43793 0.76363 0.25282 0.0
H809 H 0.43086 0.79571 0.27654 0.0
C810 C 0.33156 0.7255 0.46408 0.0
C811 C 0.31375 0.74225 0.47115 0.0
C812 C 0.26202 0.69132 0.44581 0.0
C813 C 0.28098 0.67643 0.4267 0.0
N814 N 0.33467 0.68099 0.41027 0.0
N815 N 0.26231 0.7422 0.47272 0.0
C816 C 0.31603 0.69391 0.43392 0.0
C817 C 0.27886 0.72522 0.46456 0.0
N818 N 0.36344 0.74009 0.48655 0.0
N819 N 0.22815 0.6735 0.4436 0.0
H820 H 0.27421 0.76655 0.4899 0.0
H821 H 0.23744 0.7328 0.4608 0.0
H822 H 0.21494 0.64965 0.42412 0.0
H823 H 0.21295 0.6818 0.46336 0.0
H824 H 0.37745 0.7284 0.48691 0.0
H825 H 0.37437 0.76277 0.51135 0.0
H826 H 0.36045 0.69465 0.40681 0.0
H827 H 0.32452 0.65731 0.39036 0.0
C828 C 0.33911 0.62534 0.50368 0.0
C829 C 0.31735 0.5926 0.48361 0.0
C830 C 0.36351 0.58768 0.43901 0.0
C831 C 0.38461 0.62201 0.44964 0.0
N832 N 0.39393 0.67213 0.50557 0.0
N833 N 0.31016 0.53912 0.463 0.0
C834 C 0.3731 0.64012 0.48761 0.0
C835 C 0.33009 0.57257 0.46116 0.0
N836 N 0.32794 0.64356 0.53584 0.0
N837 N 0.37504 0.5699 0.40581 0.0
H838 H 0.28573 0.52809 0.4804 0.0
H839 H 0.31869 0.52272 0.45414 0.0
H840 H 0.39989 0.57989 0.39218 0.0
H841 H 0.35976 0.54572 0.3896 0.0
H842 H 0.30322 0.63448 0.54941 0.0
H843 H 0.30322 0.63448 0.54941 0.0
H844 H 0.38602 0.68586 0.53324 0.0
H845 H 0.41902 0.68463 0.49455 0.0
C846 C 0.2631 0.59425 0.93224 0.0
C847 C 0.29021 0.60661 0.97833 0.0
C848 C 0.2978 0.6614 0.96919 0.0
C849 C 0.27054 0.64997 0.92508 0.0
N850 N 0.22849 0.60631 0.85849 0.0
N851 N 0.31865 0.64692 0.06557 0.0
C852 C 0.25357 0.61651 0.90429 0.0
C853 C 0.30329 0.63873 1.00438 0.0
N854 N 0.24456 0.56107 0.9211 0.0
N855 N 0.3181 0.69436 0.97821 0.0
H856 H 0.31846 0.6293 0.09802 0.0
H857 H 0.32662 0.66974 0.08836 0.0
H858 H 0.31631 0.71088 0.94618 0.0
H859 H 0.33897 0.70447 1.00912 0.0
H860 H 0.22373 0.54993 0.8905 0.0
H861 H 0.24749 0.54395 0.94923 0.0
H862 H 0.21561 0.58272 0.83811 0.0
H863 H 0.22206 0.62258 0.83684 0.0
C864 C 0.44359 0.66265 0.90424 0.0
C865 C 0.40891 0.64745 0.89484 0.0
C866 C 0.41034 0.69936 0.91674 0.0
C867 C 0.44445 0.71381 0.93377 0.0
N868 N 0.49552 0.71245 0.92982 0.0
N869 N 0.3604 0.65127 0.87393 0.0
C870 C 0.46185 0.69659 0.9221 0.0
C871 C 0.39281 0.66613 0.89396 0.0
N872 N 0.4584 0.64385 0.89951 0.0
N873 N 0.3948 0.71735 0.92343 0.0
H874 H 0.34769 0.62697 0.85655 0.0
H875 H 0.34645 0.6629 0.87043 0.0
H876 H 0.40639 0.74119 0.94276 0.0
H877 H 0.37055 0.7092 0.90906 0.0
H878 H 0.48296 0.65192 0.91198 0.0
H879 H 0.44545 0.61934 0.88345 0.0
H880 H 0.51022 0.70239 0.9168 0.0
H881 H 0.50934 0.73672 0.94659 0.0
C882 C 0.3839 0.77817 0.85906 0.0
C883 C 0.40801 0.80423 0.89886 0.0
C884 C 0.36493 0.80915 0.95876 0.0
C885 C 0.3406 0.78053 0.92536 0.0
N886 N 0.32609 0.74607 0.826 0.0
N887 N 0.42213 0.85349 0.96092 0.0
C888 C 0.34976 0.76801 0.8689 0.0
C889 C 0.39859 0.8228 0.94002 0.0
N890 N 0.39332 0.76187 0.81536 0.0
N891 N 0.35597 0.82255 1.00998 0.0
H892 H 0.44682 0.86409 0.94545 0.0
H893 H 0.41657 0.86948 0.98668 0.0
H894 H 0.33124 0.81438 0.02193 0.0
H895 H 0.373 0.84079 0.04197 0.0
H896 H 0.37673 0.73997 0.79135 0.0
H897 H 0.41807 0.7693 0.80573 0.0
H898 H 0.33153 0.73803 0.78153 0.0
H899 H 0.30104 0.73839 0.83082 0.0
C900 C 0.21797 0.07891 0.50854 0.0
C901 C 0.2166 0.08661 0.57718 0.0
C902 C 0.22805 0.14202 0.54157 0.0
C903 C 0.22201 0.13163 0.47362 0.0
N904 N 0.21296 0.09049 0.39095 0.0
N905 N 0.2206 0.12615 0.65957 0.0
C906 C 0.21811 0.10033 0.45665 0.0
C907 C 0.22219 0.1186 0.59381 0.0
N908 N 0.2186 0.05082 0.49308 0.0
N909 N 0.24003 0.17453 0.55572 0.0
H910 H 0.21816 0.11034 0.69904 0.0
H911 H 0.22017 0.14725 0.67453 0.0
H912 H 0.2466 0.19197 0.51734 0.0
H913 H 0.24703 0.18453 0.60373 0.0
H914 H 0.22211 0.04475 0.44457 0.0
H915 H 0.2183 0.03483 0.53001 0.0
H916 H 0.2055 0.06653 0.37545 0.0
H917 H 0.21494 0.1063 0.35189 0.0
C918 C 0.96722 0.12017 0.5667 0.0
C919 C 0.97447 0.15248 0.58509 0.0
C920 C 0.93481 0.14737 0.49543 0.0
C921 C 0.92491 0.11349 0.48626 0.0
N922 N 0.92382 0.06599 0.53653 0.0
N923 N 0.95943 0.19471 0.57141 0.0
C924 C 0.93785 0.0994 0.53152 0.0
C925 C 0.95653 0.16562 0.55089 0.0
N926 N 0.9898 0.11005 0.57625 0.0
N927 N 0.92444 0.16234 0.45069 0.0
H928 H 0.97412 0.20805 0.61206 0.0
H929 H 0.94498 0.20393 0.55171 0.0
H930 H 0.90806 0.14928 0.41176 0.0
H931 H 0.93343 0.18769 0.45055 0.0
H932 H 0.98568 0.08714 0.55966 0.0
H933 H 1.01427 0.1262 0.59048 0.0
H934 H 0.932 0.05488 0.57123 0.0
H935 H 0.90222 0.04997 0.51071 0.0
C936 C 0.89057 0.8425 0.50276 0.0
C937 C 0.89741 0.84358 0.5727 0.0
C938 C 0.94215 0.83129 0.54637 0.0
C939 C 0.9358 0.83105 0.47637 0.0
N940 N 0.8998 0.82969 0.38866 0.0
N941 N 0.92494 0.83218 0.66201 0.0
C942 C 0.9083 0.83405 0.45518 0.0
C943 C 0.92157 0.83551 0.59465 0.0
N944 N 0.86848 0.8516 0.48155 0.0
N945 N 0.96919 0.82939 0.5663 0.0
H946 H 0.91018 0.83502 0.69787 0.0
H947 H 0.94017 0.82398 0.68203 0.0
H948 H 0.98351 0.82481 0.5323 0.0
H949 H 0.97816 0.83356 0.61535 0.0
H950 H 0.86534 0.856 0.43151 0.0
H951 H 0.85436 0.8564 0.51535 0.0
H952 H 0.87882 0.82925 0.36946 0.0
H953 H 0.91252 0.82374 0.35324 0.0
C954 C 0.1284 0.22622 0.93732 0.0
C955 C 0.1035 0.23206 0.96476 0.0
C956 C 0.13705 0.25163 0.06907 0.0
C957 C 0.15898 0.24081 0.04556 0.0
N958 N 0.17242 0.21386 0.95816 0.0
N959 N 0.08311 0.24779 0.06094 0.0
C960 C 0.15401 0.22738 0.97958 0.0
C961 C 0.10778 0.24441 0.03163 0.0
N962 N 0.12845 0.22072 0.86996 0.0
N963 N 0.14451 0.26922 0.12758 0.0
H964 H 0.06159 0.24302 0.03553 0.0
H965 H 0.08268 0.25271 0.1119 0.0
H966 H 0.16591 0.27539 0.15511 0.0
H967 H 0.13152 0.28048 0.14504 0.0
H968 H 0.14797 0.22015 0.84566 0.0
H969 H 0.11092 0.22062 0.83739 0.0
H970 H 0.16709 0.19982 0.91448 0.0
H971 H 0.19159 0.21473 0.98657 0.0
C972 C 0.83227 0.95428 0.98443 0.0
C973 C 0.82246 0.94659 0.05314 0.0
C974 C 0.82284 0.89396 0.03838 0.0
C975 C 0.83056 0.90068 0.96888 0.0
N976 N 0.83593 0.93461 0.87315 0.0
N977 N 0.80135 0.90522 0.1403 0.0
C978 C 0.83323 0.93007 0.94124 0.0
C979 C 0.81557 0.91516 0.0782 0.0
N980 N 0.84258 0.98536 0.96096 0.0
N981 N 0.82399 0.8681 0.06752 0.0
H982 H 0.79475 0.91948 0.16976 0.0
H983 H 0.79293 0.8816 0.15943 0.0
H984 H 0.82923 0.85217 0.04048 0.0
H985 H 0.82277 0.86427 0.11932 0.0
H986 H 0.85401 0.99389 0.91439 0.0
H987 H 0.842 1.00351 0.99009 0.0
H988 H 0.83467 0.95367 0.8489 0.0
H989 H 0.83629 0.91747 0.84026 0.0
C990 C 0.1268 0.93129 0.94758 0.0
C991 C 0.15812 0.95592 0.97355 0.0
C992 C 0.14364 0.92463 0.08108 0.0
C993 C 0.11083 0.9025 0.05801 0.0
N994 N 0.07006 0.88806 0.97062 0.0
N995 N 0.19429 0.97775 0.06949 0.0
C996 C 0.10223 0.90658 0.99134 0.0
C997 C 0.16606 0.95282 0.04138 0.0
N998 N 0.1208 0.93083 0.88024 0.0
N999 N 0.15358 0.91834 0.1412 0.0
H1000 H 0.2113 0.99856 0.04265 0.0
H1001 H 0.19951 0.9792 0.1207 0.0
H1002 H 0.1381 0.89786 0.17076 0.0
H1003 H 0.17792 0.93136 0.15851 0.0
H1004 H 0.09996 0.91192 0.85674 0.0
H1005 H 0.13826 0.94774 0.84667 0.0
H1006 H 0.06116 0.8927 0.92632 0.0
H1007 H 0.0516 0.86947 1.00002 0.0
C1008 C 0.82898 0.91681 0.49367 0.0
C1009 C 0.82979 0.92475 0.5625 0.0
C1010 C 0.83664 0.97892 0.52992 0.0
C1011 C 0.84218 0.97331 0.46197 0.0
N1012 N 0.83945 0.93539 0.37712 0.0
N1013 N 0.82457 0.95858 0.64596 0.0
C1014 C 0.83662 0.94154 0.44322 0.0
C1015 C 0.83032 0.95437 0.58034 0.0
N1016 N 0.81968 0.88508 0.47713 0.0
N1017 N 0.83894 1.00833 0.54635 0.0
H1018 H 0.81945 0.94052 0.68234 0.0
H1019 H 0.82309 0.97861 0.66412 0.0
H1020 H 0.84196 0.02575 0.51008 0.0
H1021 H 0.83812 0.01585 0.59514 0.0
H1022 H 0.81668 0.87632 0.42807 0.0
H1023 H 0.81164 0.86672 0.51394 0.0
H1024 H 0.84033 0.9148 0.36027 0.0
H1025 H 0.84136 0.95151 0.33885 0.0
C1026 C 0.08917 0.93753 0.47289 0.0
C1027 C 0.08281 0.90546 0.45459 0.0
C1028 C 0.12474 0.91321 0.54208 0.0
C1029 C 0.13386 0.94707 0.55046 0.0
N1030 N 0.13204 0.99277 0.49801 0.0
N1031 N 0.10015 0.86496 0.4681 0.0
C1032 C 0.11895 0.95957 0.50593 0.0
C1033 C 0.1023 0.89381 0.48802 0.0
N1034 N 0.06558 0.94642 0.46478 0.0
N1035 N 0.1364 0.89919 0.58625 0.0
H1036 H 0.08483 0.85073 0.42895 0.0
H1037 H 0.1157 0.8568 0.48671 0.0
H1038 H 0.15304 0.91272 0.62438 0.0
H1039 H 0.12803 0.87396 0.58706 0.0
H1040 H 0.06913 0.96917 0.48102 0.0
H1041 H 0.04108 0.92948 0.45219 0.0
H1042 H 0.12235 1.00262 0.4637 0.0
H1043 H 0.15429 1.00989 0.52058 0.0
C1044 C 0.13502 0.22329 0.44561 0.0
C1045 C 0.15923 0.21464 0.46313 0.0
C1046 C 0.14942 0.22112 0.58296 0.0
C1047 C 0.12094 0.22314 0.56548 0.0
N1048 N 0.086 0.22559 0.47957 0.0
N1049 N 0.19037 0.20621 0.54904 0.0
C1050 C 0.11392 0.22468 0.49649 0.0
C1051 C 0.16713 0.2145 0.53211 0.0
N1052 N 0.13256 0.23052 0.38014 0.0
N1053 N 0.15904 0.22491 0.64878 0.0
H1054 H 0.20459 0.20299 0.51271 0.0
H1055 H 0.19459 0.20129 0.59797 0.0
H1056 H 0.14641 0.22975 0.68644 0.0
H1057 H 0.18082 0.22614 0.66522 0.0
H1058 H 0.11704 0.23917 0.36396 0.0
H1059 H 0.14883 0.23106 0.34333 0.0
H1060 H 0.07701 0.2225 0.43059 0.0
H1061 H 0.07094 0.22785 0.51559 0.0
C1062 C 0.94133 0.80427 0.021 0.0
C1063 C 0.9574 0.83008 0.06977 0.0
C1064 C 0.9216 0.85241 0.02972 0.0
C1065 C 0.90359 0.82486 0.98643 0.0
N1066 N 0.89321 0.77178 0.94931 0.0
N1067 N 0.9576 0.87594 0.12634 0.0
C1068 C 0.91238 0.79984 0.98536 0.0
C1069 C 0.94605 0.8534 0.07535 0.0
N1070 N 0.95525 0.78565 1.00369 0.0
N1071 N 0.91511 0.87783 0.02751 0.0
H1072 H 0.97033 0.87414 0.1673 0.0
H1073 H 0.95209 0.89469 0.13227 0.0
H1074 H 0.89532 0.87652 1.00061 0.0
H1075 H 0.93018 0.90088 0.04903 0.0
H1076 H 0.94665 0.7688 0.96417 0.0
H1077 H 0.97784 0.78983 0.02264 0.0
H1078 H 0.89594 0.75104 0.95165 0.0
H1079 H 0.87252 0.7682 0.92212 0.0
C1080 C 0.23939 0.16453 1.00084 0.0
C1081 C 0.22905 0.15743 0.06932 0.0
C1082 C 0.22632 0.10306 0.05614 0.0
C1083 C 0.23717 0.11043 0.98802 0.0
N1084 N 0.26037 0.15117 0.90029 0.0
N1085 N 0.21953 0.12256 0.16558 0.0
C1086 C 0.24559 0.14214 0.96211 0.0
C1087 C 0.22456 0.12742 0.09784 0.0
N1088 N 0.24214 0.19223 0.97168 0.0
N1089 N 0.21616 0.07212 0.08031 0.0
H1090 H 0.21801 0.13951 0.19719 0.0
H1091 H 0.21983 0.10336 0.19135 0.0
H1092 H 0.2176 0.05411 0.05215 0.0
H1093 H 0.20482 0.06362 0.12681 0.0
H1094 H 0.24506 0.19686 0.92017 0.0
H1095 H 0.23928 0.20975 0.99856 0.0
H1096 H 0.2701 0.17476 0.88014 0.0
H1097 H 0.26576 0.13577 0.8716 0.0
C1098 C 0.95857 0.15039 0.05221 0.0
C1099 C 0.94928 0.15501 0.98659 0.0
C1100 C 0.89509 0.10326 1.00207 0.0
C1101 C 0.90382 0.09928 0.06877 0.0
N1102 N 0.94141 0.12395 0.16186 0.0
N1103 N 0.906 0.13901 0.90475 0.0
C1104 C 0.93488 0.12431 0.09503 0.0
C1105 C 0.91663 0.13235 0.96363 0.0
N1106 N 0.99062 0.16989 0.07275 0.0
N1107 N 0.8668 0.07846 0.97386 0.0
H1108 H 0.92086 0.16013 0.87625 0.0
H1109 H 0.88168 0.12557 0.88752 0.0
H1110 H 0.85019 0.05723 1.00005 0.0
H1111 H 0.86103 0.07761 0.92305 0.0
H1112 H 1.00027 0.16526 0.11593 0.0
H1113 H 1.00823 0.18958 0.04415 0.0
H1114 H 0.96186 0.14307 0.18594 0.0
H1115 H 0.92467 0.10597 0.19472 0.0
C1116 C 0.88893 0.44811 0.92539 0.0
C1117 C 0.88519 0.41717 0.90566 0.0
C1118 C 0.8929 0.43545 0.78711 0.0
C1119 C 0.89324 0.46489 0.80649 0.0
N1120 N 0.90296 0.50401 0.89342 0.0
N1121 N 0.89333 0.3855 0.82107 0.0
C1122 C 0.89506 0.47277 0.87568 0.0
C1123 C 0.89065 0.41237 0.8374 0.0
N1124 N 0.88548 0.4534 0.9917 0.0
N1125 N 0.89345 0.42917 0.72016 0.0
H1126 H 0.89304 0.36946 0.85781 0.0
H1127 H 0.89876 0.38068 0.77309 0.0
H1128 H 0.89662 0.44634 0.68311 0.0
H1129 H 0.88987 0.40694 0.70103 0.0
H1130 H 0.88327 0.47317 1.00913 0.0
H1131 H 0.88411 0.43721 0.02935 0.0
H1132 H 0.9069 0.51257 0.94275 0.0
H1133 H 0.90846 0.52228 0.85732 0.0
C1134 C 0.62172 0.48239 0.78892 0.0
C1135 C 0.59064 0.45479 0.80684 0.0
C1136 C 0.60427 0.46943 0.92666 0.0
C1137 C 0.63766 0.49254 0.90878 0.0
N1138 N 0.6777 0.52344 0.82299 0.0
N1139 N 0.54953 0.42541 0.89124 0.0
C1140 C 0.64601 0.5002 0.83977 0.0
C1141 C 0.58092 0.44969 0.87547 0.0
N1142 N 0.62781 0.49118 0.72266 0.0
N1143 N 0.59514 0.46667 0.99272 0.0
H1144 H 0.53182 0.41274 0.85406 0.0
H1145 H 0.54107 0.41752 0.93993 0.0
H1146 H 0.61161 0.48163 0.02995 0.0
H1147 H 0.57116 0.45142 1.0104 0.0
H1148 H 0.64883 0.51222 0.70514 0.0
H1149 H 0.61019 0.47841 0.68536 0.0
H1150 H 0.68686 0.52842 0.77407 0.0
H1151 H 0.69532 0.53742 0.85923 0.0
C1152 C 0.6128 0.16551 0.87816 0.0
C1153 C 0.60541 0.1654 0.80891 0.0
C1154 C 0.5573 0.17151 0.8398 0.0
C1155 C 0.56643 0.17435 0.90874 0.0
N1156 N 0.59753 0.1662 0.99523 0.0
N1157 N 0.56642 0.16008 0.72427 0.0
C1158 C 0.59242 0.16858 0.92829 0.0
C1159 C 0.57596 0.16536 0.79016 0.0
N1160 N 0.64038 0.16415 0.89546 0.0
N1161 N 0.53206 0.17674 0.8216 0.0
H1162 H 0.57985 0.15568 0.68772 0.0
H1163 H 0.54425 0.15754 0.70662 0.0
H1164 H 0.51737 0.17987 0.85706 0.0
H1165 H 0.52625 0.17902 0.7721 0.0
H1166 H 0.65056 0.16881 0.94353 0.0
H1167 H 0.65324 0.15857 0.85988 0.0
H1168 H 0.61422 0.15955 1.01377 0.0
H1169 H 0.58284 0.16825 0.03248 0.0
C1170 C 0.76271 0.53 0.3381 0.0
C1171 C 0.76538 0.55826 0.30487 0.0
C1172 C 0.82175 0.59097 0.35619 0.0
C1173 C 0.81983 0.56185 0.38275 0.0
N1174 N 0.79218 0.50254 0.37421 0.0
N1175 N 0.80357 0.61437 0.26836 0.0
C1176 C 0.79151 0.53111 0.3656 0.0
C1177 C 0.79667 0.58849 0.30997 0.0
N1178 N 0.73247 0.50238 0.34778 0.0
N1179 N 0.84685 0.62107 0.37606 0.0
H1180 H 0.78773 0.61309 0.23011 0.0
H1181 H 0.82683 0.63565 0.26631 0.0
H1182 H 0.86544 0.62371 0.40895 0.0
H1183 H 0.84767 0.64312 0.3638 0.0
H1184 H 0.72947 0.48233 0.37627 0.0
H1185 H 0.71014 0.50114 0.33583 0.0
H1186 H 0.77352 0.47996 0.35571 0.0
H1187 H 0.81318 0.50228 0.39143 0.0
C1188 C 0.47855 0.24789 0.40898 0.0
C1189 C 0.48969 0.28073 0.38641 0.0
C1190 C 0.50418 0.2657 0.27684 0.0
C1191 C 0.4969 0.23427 0.30248 0.0
N1192 N 0.48086 0.19735 0.39746 0.0
N1193 N 0.51765 0.32204 0.30074 0.0
C1194 C 0.4848 0.22581 0.36964 0.0
C1195 C 0.50347 0.28983 0.32055 0.0
N1196 N 0.46148 0.23762 0.4683 0.0
N1197 N 0.51084 0.27226 0.20987 0.0
H1198 H 0.51727 0.34016 0.33045 0.0
H1199 H 0.53189 0.33124 0.25723 0.0
H1200 H 0.51079 0.25514 0.17632 0.0
H1201 H 0.51319 0.29323 0.18645 0.0
H1202 H 0.44985 0.21327 0.48512 0.0
H1203 H 0.45616 0.25288 0.49762 0.0
H1204 H 0.47629 0.19169 0.44841 0.0
H1205 H 0.48492 0.18053 0.37081 0.0
C1206 C 0.76829 0.23887 0.31695 0.0
C1207 C 0.77688 0.23503 0.38371 0.0
C1208 C 0.83128 0.2864 0.36826 0.0
C1209 C 0.82321 0.28948 0.30052 0.0
N1210 N 0.78713 0.26302 0.20613 0.0
N1211 N 0.81968 0.25145 0.46704 0.0
C1212 C 0.79261 0.26403 0.27373 0.0
C1213 C 0.80943 0.2577 0.40723 0.0
N1214 N 0.73634 0.21977 0.29557 0.0
N1215 N 0.85911 0.31165 0.39681 0.0
H1216 H 0.80465 0.23051 0.49585 0.0
H1217 H 0.84392 0.26502 0.48466 0.0
H1218 H 0.87583 0.33273 0.37033 0.0
H1219 H 0.86429 0.31297 0.44804 0.0
H1220 H 0.72751 0.22414 0.25086 0.0
H1221 H 0.71803 0.20103 0.32489 0.0
H1222 H 0.76734 0.24297 0.18261 0.0
H1223 H 0.80434 0.28036 0.17283 0.0
C1224 C 0.52171 0.31861 0.8715 0.0
C1225 C 0.51195 0.30891 0.80374 0.0
C1226 C 0.49371 0.2511 0.83597 0.0
C1227 C 0.50422 0.26125 0.90317 0.0
N1228 N 0.51792 0.30233 0.98864 0.0
N1229 N 0.48174 0.26501 0.72496 0.0
C1230 C 0.51449 0.29424 0.92196 0.0
C1231 C 0.49538 0.27471 0.78735 0.0
N1232 N 0.53998 0.35137 0.88702 0.0
N1233 N 0.48375 0.21937 0.81799 0.0
H1234 H 0.4829 0.28187 0.68912 0.0
H1235 H 0.46733 0.24042 0.71059 0.0
H1236 H 0.48058 0.20157 0.85344 0.0
H1237 H 0.47971 0.21106 0.76846 0.0
H1238 H 0.55169 0.36017 0.93318 0.0
H1239 H 0.54542 0.36982 0.85169 0.0
H1240 H 0.52296 0.32531 1.00642 0.0
H1241 H 0.51221 0.28474 0.02638 0.0
C1242 C 0.77188 0.23826 0.91361 0.0
C1243 C 0.80196 0.26706 0.89441 0.0
C1244 C 0.78689 0.25181 0.77537 0.0
C1245 C 0.7544 0.22749 0.79473 0.0
N1246 N 0.72093 0.18862 0.87913 0.0
N1247 N 0.83975 0.29944 0.80677 0.0
C1248 C 0.74846 0.21786 0.8632 0.0
C1249 C 0.81025 0.27279 0.82506 0.0
N1250 N 0.76527 0.23143 0.98047 0.0
N1251 N 0.79577 0.25338 0.70958 0.0
H1252 H 0.85782 0.31347 0.84233 0.0
H1253 H 0.84587 0.30787 0.75744 0.0
H1254 H 0.77914 0.23743 0.67359 0.0
H1255 H 0.82004 0.26775 0.69241 0.0
H1256 H 0.74282 0.21281 0.99944 0.0
H1257 H 0.78268 0.24507 1.01752 0.0
H1258 H 0.71494 0.17871 0.92735 0.0
H1259 H 0.70582 0.17255 0.8417 0.0
C1260 C 0.7843 0.56122 0.83697 0.0
C1261 C 0.78253 0.5495 0.90383 0.0
C1262 C 0.82257 0.53161 0.87264 0.0
C1263 C 0.82339 0.54192 0.80499 0.0
N1264 N 0.81083 0.57293 0.72619 0.0
N1265 N 0.80839 0.53382 0.98953 0.0
C1266 C 0.8062 0.55899 0.78848 0.0
C1267 C 0.80458 0.53816 0.92279 0.0
N1268 N 0.76419 0.57335 0.81926 0.0
N1269 N 0.83772 0.51396 0.88843 0.0
H1270 H 0.79618 0.53913 0.02728 0.0
H1271 H 0.82594 0.52826 1.00787 0.0
H1272 H 0.85153 0.5093 0.8535 0.0
H1273 H 0.83507 0.5023 0.93451 0.0
H1274 H 0.76064 0.57838 0.76995 0.0
H1275 H 0.7504 0.57777 0.85475 0.0
H1276 H 0.80117 0.58773 0.71136 0.0
H1277 H 0.82658 0.57153 0.69063 0.0
C1278 C 0.59173 0.14354 0.29764 0.0
C1279 C 0.56992 0.15446 0.32115 0.0
C1280 C 0.59985 0.16839 0.43019 0.0
C1281 C 0.62423 0.16151 0.40362 0.0
N1282 N 0.64486 0.14578 0.30772 0.0
N1283 N 0.55658 0.18175 0.40799 0.0
C1284 C 0.62034 0.14965 0.3363 0.0
C1285 C 0.57477 0.16786 0.3872 0.0
N1286 N 0.58479 0.12687 0.238 0.0
N1287 N 0.59987 0.17431 0.49744 0.0
H1288 H 0.53773 0.18127 0.37897 0.0
H1289 H 0.56174 0.19575 0.45171 0.0
H1290 H 0.61676 0.1735 0.53054 0.0
H1291 H 0.5812 0.17654 0.52138 0.0
H1292 H 0.59758 0.11545 0.22034 0.0
H1293 H 0.56402 0.12171 0.20921 0.0
H1294 H 0.64581 0.14143 0.25663 0.0
H1295 H 0.66583 0.14957 0.33397 0.0
C1296 C 0.90012 0.49568 0.33072 0.0
C1297 C 0.89432 0.48977 0.40099 0.0
C1298 C 0.89316 0.43637 0.3851 0.0
C1299 C 0.90089 0.4432 0.31532 0.0
N1300 N 0.9186 0.48326 0.22588 0.0
N1301 N 0.89161 0.45704 0.49682 0.0
C1302 C 0.90643 0.47409 0.28968 0.0
C1303 C 0.89276 0.46086 0.42855 0.0
N1304 N 0.89811 0.5212 0.30222 0.0
N1305 N 0.8843 0.40578 0.40955 0.0
H1306 H 0.89147 0.47428 0.52979 0.0
H1307 H 0.89382 0.43848 0.52092 0.0
H1308 H 0.88459 0.38751 0.38022 0.0
H1309 H 0.87435 0.39767 0.45736 0.0
H1310 H 0.89791 0.52453 0.25045 0.0
H1311 H 0.89373 0.53749 0.33019 0.0
H1312 H 0.92615 0.50654 0.20585 0.0
H1313 H 0.92442 0.46875 0.19531 0.0
C1314 C 0.56038 0.43651 0.33592 0.0
C1315 C 0.5687 0.43278 0.40311 0.0
C1316 C 0.62396 0.48333 0.38614 0.0
C1317 C 0.61502 0.48786 0.32008 0.0
N1318 N 0.5717 0.47211 0.23824 0.0
N1319 N 0.6059 0.45792 0.49649 0.0
C1320 C 0.58225 0.46539 0.29715 0.0
C1321 C 0.59983 0.45773 0.42928 0.0
N1322 N 0.53214 0.41169 0.30762 0.0
N1323 N 0.65598 0.50252 0.40708 0.0
H1324 H 0.58843 0.4408 0.52968 0.0
H1325 H 0.62658 0.47688 0.52033 0.0
H1326 H 0.67388 0.52209 0.37865 0.0
H1327 H 0.6653 0.49767 0.45051 0.0
H1328 H 0.52664 0.41071 0.25663 0.0
H1329 H 0.51536 0.39058 0.33395 0.0
H1330 H 0.54733 0.45883 0.22124 0.0
H1331 H 0.58664 0.49317 0.20964 0.0
C1332 C 0.5561 0.74654 0.17312 0.0
C1333 C 0.54956 0.75115 0.24067 0.0
C1334 C 0.55889 0.80629 0.20831 0.0
C1335 C 0.55698 0.79786 0.13937 0.0
N1336 N 0.55553 0.76026 0.05528 0.0
N1337 N 0.54836 0.78751 0.32467 0.0
C1338 C 0.55664 0.76825 0.12161 0.0
C1339 C 0.55245 0.78191 0.25893 0.0
N1340 N 0.5623 0.7217 0.15857 0.0
N1341 N 0.5674 0.8378 0.22505 0.0
H1342 H 0.54701 0.7717 0.36314 0.0
H1343 H 0.5456 0.80719 0.34059 0.0
H1344 H 0.57348 0.85594 0.18837 0.0
H1345 H 0.57149 0.84661 0.27423 0.0
H1346 H 0.56937 0.71805 0.11109 0.0
H1347 H 0.56407 0.7072 0.19637 0.0
H1348 H 0.55103 0.73727 0.03873 0.0
H1349 H 0.55782 0.77647 1.01679 0.0
C1350 C 0.30739 0.83909 0.17652 0.0
C1351 C 0.30259 0.82885 0.24496 0.0
C1352 C 0.248 0.78101 0.21542 0.0
C1353 C 0.25389 0.78987 0.14643 0.0
N1354 N 0.28444 0.83125 0.06324 0.0
N1355 N 0.26535 0.79487 0.33225 0.0
C1356 C 0.28194 0.82052 0.12802 0.0
C1357 C 0.27167 0.80146 0.26515 0.0
N1358 N 0.33721 0.86513 0.15712 0.0
N1359 N 0.22051 0.7519 0.23255 0.0
H1360 H 0.28219 0.80961 0.3692 0.0
H1361 H 0.24275 0.77667 0.35165 0.0
H1362 H 0.2021 0.73808 0.19741 0.0
H1363 H 0.21624 0.74116 0.28006 0.0
H1364 H 0.34426 0.87159 0.10721 0.0
H1365 H 0.35568 0.87966 0.19157 0.0
H1366 H 0.30284 0.85429 0.04636 0.0
H1367 H 0.26616 0.81778 0.02751 0.0
C1368 C 0.2778 0.49532 0.21128 0.0
C1369 C 0.26996 0.49532 0.14253 0.0
C1370 C 0.22028 0.49812 0.17701 0.0
C1371 C 0.23225 0.50539 0.24406 0.0
N1372 N 0.27093 0.50784 0.32691 0.0
N1373 N 0.23308 0.49599 0.05895 0.0
C1374 C 0.26033 0.50253 0.26178 0.0
C1375 C 0.24054 0.49579 0.1253 0.0
N1376 N 0.30235 0.48877 0.22768 0.0
N1377 N 0.18966 0.49364 0.16277 0.0
H1378 H 0.24653 0.49283 0.0205 0.0
H1379 H 0.21468 0.50066 0.04208 0.0
H1380 H 0.17435 0.49461 0.1999 0.0
H1381 H 0.17824 0.4859 0.11608 0.0
H1382 H 0.30866 0.48637 0.27671 0.0
H1383 H 0.31429 0.48253 0.191 0.0
H1384 H 0.29333 0.5102 0.3422 0.0
H1385 H 0.2574 0.51077 0.36548 0.0
C1386 C 0.43583 0.90488 0.70378 0.0
C1387 C 0.43385 0.89551 0.63508 0.0
C1388 C 0.48439 0.89108 0.65184 0.0
C1389 C 0.48747 0.90234 0.7195 0.0
N1390 N 0.46958 0.92662 0.8045 0.0
N1391 N 0.46095 0.88687 0.54045 0.0
C1392 C 0.46422 0.91134 0.74349 0.0
C1393 C 0.45959 0.89077 0.60825 0.0
N1394 N 0.40972 0.90594 0.73251 0.0
N1395 N 0.50388 0.87884 0.62996 0.0
H1396 H 0.44373 0.88699 0.50719 0.0
H1397 H 0.4807 0.88654 0.51664 0.0
H1398 H 0.52221 0.87876 0.6597 0.0
H1399 H 0.50025 0.86658 0.58431 0.0
H1400 H 0.40775 0.90868 0.78401 0.0
H1401 H 0.38849 0.90107 0.7058 0.0
H1402 H 0.45555 0.93664 0.82259 0.0
H1403 H 0.49028 0.93229 0.83402 0.0
C1404 C 0.16874 0.598 0.61245 0.0
C1405 C 0.16345 0.56734 0.63879 0.0
C1406 C 0.14824 0.58208 0.74812 0.0
C1407 C 0.1575 0.61434 0.72423 0.0
N1408 N 0.18007 0.65391 0.63384 0.0
N1409 N 0.15084 0.53172 0.73508 0.0
C1410 C 0.16839 0.62238 0.65619 0.0
C1411 C 0.15366 0.55975 0.70746 0.0
N1412 N 0.17293 0.60347 0.54471 0.0
N1413 N 0.1333 0.5724 0.80967 0.0
H1414 H 0.15341 0.51432 0.70712 0.0
H1415 H 0.14837 0.52683 0.78652 0.0
H1416 H 0.12829 0.58764 0.83978 0.0
H1417 H 0.12293 0.54839 0.82802 0.0
H1418 H 0.17284 0.62326 0.52106 0.0
H1419 H 0.17312 0.58643 0.51124 0.0
H1420 H 0.19264 0.66272 0.5884 0.0
H1421 H 0.1792 0.67202 0.66275 0.0
C1422 C 0.47399 0.59215 0.73927 0.0
C1423 C 0.44122 0.57002 0.71617 0.0
C1424 C 0.45627 0.60039 0.60757 0.0
C1425 C 0.48753 0.62499 0.63381 0.0
N1426 N 0.52437 0.64558 0.72907 0.0
N1427 N 0.39994 0.55616 0.63024 0.0
C1428 C 0.49597 0.621 0.70075 0.0
C1429 C 0.43213 0.57488 0.6506 0.0
N1430 N 0.48432 0.58522 0.79823 0.0
N1431 N 0.45001 0.60049 0.54053 0.0
H1432 H 0.38191 0.53693 0.65919 0.0
H1433 H 0.39063 0.56115 0.58696 0.0
H1434 H 0.46739 0.61768 0.50735 0.0
H1435 H 0.4292 0.58168 0.51674 0.0
H1436 H 0.50868 0.59825 0.81539 0.0
H1437 H 0.46912 0.56426 0.82688 0.0
H1438 H 0.52997 0.64637 0.77997 0.0
H1439 H 0.54122 0.66674 0.70294 0.0
C1440 C 0.18236 0.61306 0.10679 0.0
C1441 C 0.17885 0.64033 0.12648 0.0
C1442 C 0.16324 0.61601 0.2409 0.0
C1443 C 0.17245 0.59213 0.22384 0.0
N1444 N 0.19178 0.56854 0.1403 0.0
N1445 N 0.16278 0.6664 0.21045 0.0
C1446 C 0.18172 0.59054 0.15629 0.0
C1447 C 0.16768 0.641 0.19281 0.0
N1448 N 0.1861 0.60868 0.04005 0.0
N1449 N 0.15108 0.6152 0.30388 0.0
H1450 H 0.16345 0.68319 0.17515 0.0
H1451 H 0.15852 0.67126 0.25935 0.0
H1452 H 0.14804 0.59754 0.33957 0.0
H1453 H 0.14199 0.63034 0.31968 0.0
H1454 H 0.18638 0.58813 0.02086 0.0
H1455 H 0.18551 0.62418 1.00296 0.0
H1456 H 0.20318 0.56883 0.09501 0.0
H1457 H 0.19028 0.55096 0.17446 0.0
C1458 C 0.4508 0.59222 0.10642 0.0
C1459 C 0.42092 0.5633 0.12535 0.0
C1460 C 0.44151 0.57152 0.24268 0.0
C1461 C 0.46833 0.60327 0.2255 0.0
N1462 N 0.49927 0.6436 0.14077 0.0
N1463 N 0.38872 0.52362 0.21048 0.0
C1464 C 0.47352 0.61313 0.15688 0.0
C1465 C 0.41693 0.55203 0.19307 0.0
N1466 N 0.45719 0.59966 0.03962 0.0
N1467 N 0.43933 0.56057 0.30722 0.0
H1468 H 0.37171 0.50819 0.17465 0.0
H1469 H 0.38176 0.51555 0.25972 0.0
H1470 H 0.45698 0.57456 0.3436 0.0
H1471 H 0.42177 0.5371 0.32372 0.0
H1472 H 0.47947 0.61884 0.02116 0.0
H1473 H 0.44107 0.58458 1.00204 0.0
H1474 H 0.50234 0.65485 0.09406 0.0
H1475 H 0.51712 0.65809 0.17619 0.0
C1476 C 0.47502 0.89699 0.11456 0.0
C1477 C 0.49242 0.88043 0.13312 0.0
C1478 C 0.4765 0.88143 0.25117 0.0
C1479 C 0.45375 0.89154 0.23077 0.0
N1480 N 0.43111 0.909 0.14218 0.0
N1481 N 0.50683 0.85393 0.21985 0.0
C1482 C 0.45338 0.89994 0.16224 0.0
C1483 C 0.4928 0.87234 0.20194 0.0
N1484 N 0.47897 0.90957 0.05114 0.0
N1485 N 0.48178 0.87971 0.31824 0.0
H1486 H 0.51882 0.84682 0.18519 0.0
H1487 H 0.50435 0.84364 0.26749 0.0
H1488 H 0.4705 0.88679 0.35486 0.0
H1489 H 0.49967 0.8747 0.33694 0.0
H1490 H 0.4691 0.92409 0.03547 0.0
H1491 H 0.49457 0.90763 1.01597 0.0
H1492 H 0.42639 0.91148 0.09196 0.0
H1493 H 0.41639 0.91275 0.17662 0.0
C1494 C 0.26487 0.5006 0.7618 0.0
C1495 C 0.28873 0.4929 0.73577 0.0
C1496 C 0.25586 0.47461 0.63031 0.0
C1497 C 0.23483 0.4866 0.65313 0.0
N1498 N 0.22358 0.51634 0.73797 0.0
N1499 N 0.3087 0.47622 0.64016 0.0
C1500 C 0.24034 0.50078 0.71842 0.0
C1501 C 0.28447 0.48054 0.66879 0.0
N1502 N 0.26477 0.50669 0.82892 0.0
N1503 N 0.24829 0.45728 0.57146 0.0
H1504 H 0.32998 0.48051 0.66584 0.0
H1505 H 0.30916 0.47118 0.58928 0.0
H1506 H 0.22757 0.45239 0.54276 0.0
H1507 H 0.26048 0.44511 0.5546 0.0
H1508 H 0.24583 0.50875 0.85204 0.0
H1509 H 0.28144 0.50585 0.86259 0.0
H1510 H 0.2297 0.53101 0.78084 0.0
H1511 H 0.20539 0.51682 0.70838 0.0
C1512 C 0.57209 0.83146 0.66764 0.0
C1513 C 0.56026 0.82307 0.73501 0.0
C1514 C 0.55396 0.76761 0.71675 0.0
C1515 C 0.56737 0.77656 0.65059 0.0
N1516 N 0.59534 0.81975 0.56871 0.0
N1517 N 0.54802 0.78561 0.82791 0.0
C1518 C 0.5783 0.80939 0.62804 0.0
C1519 C 0.55357 0.79184 0.76065 0.0
N1520 N 0.57605 0.85996 0.64005 0.0
N1521 N 0.53976 0.73544 0.73684 0.0
H1522 H 0.54822 0.80273 0.86166 0.0
H1523 H 0.54694 0.76512 0.85097 0.0
H1524 H 0.53959 0.71712 0.70687 0.0
H1525 H 0.5259 0.72649 0.78088 0.0
H1526 H 0.58035 0.86556 0.58902 0.0
H1527 H 0.57247 0.87696 0.66715 0.0
H1528 H 0.60686 0.84409 0.55193 0.0
H1529 H 0.60081 0.80459 0.53939 0.0
C1530 C 0.26142 0.76269 0.69815 0.0
C1531 C 0.23677 0.76557 0.73518 0.0
C1532 C 0.26067 0.82245 0.68757 0.0
C1533 C 0.28732 0.82038 0.65777 0.0
N1534 N 0.31788 0.79129 0.65753 0.0
N1535 N 0.21995 0.80359 0.77766 0.0
C1536 C 0.28918 0.7914 0.67066 0.0
C1537 C 0.23831 0.79701 0.73345 0.0
N1538 N 0.25774 0.73238 0.68515 0.0
N1539 N 0.25581 0.84796 0.67081 0.0
H1540 H 0.20538 0.78725 0.81529 0.0
H1541 H 0.22238 0.82689 0.78211 0.0
H1542 H 0.27145 0.8667 0.63785 0.0
H1543 H 0.23486 0.84897 0.68552 0.0
H1544 H 0.27381 0.72918 0.65357 0.0
H1545 H 0.23652 0.71031 0.69785 0.0
H1546 H 0.32134 0.77166 0.67076 0.0
H1547 H 0.33939 0.81236 0.64142 0.0
C1548 C 0.30543 1.00478 0.64888 0.0
C1549 C 0.28617 0.99022 0.70795 0.0
C1550 C 0.30301 0.94762 0.70344 0.0
C1551 C 0.31898 0.95996 0.64014 0.0
N1552 N 0.3336 0.99963 0.55057 0.0
N1553 N 0.26236 0.94404 0.78483 0.0
C1554 C 0.31947 0.98826 0.61227 0.0
C1555 C 0.28415 0.96084 0.73391 0.0
N1556 N 0.31156 0.03534 0.62927 0.0
N1557 N 0.30546 0.92291 0.73461 0.0
H1558 H 0.2476 0.95213 0.80775 0.0
H1559 H 0.25659 0.9205 0.8004 0.0
H1560 H 0.31718 0.91118 0.71302 0.0
H1561 H 0.29796 0.91559 0.78407 0.0
H1562 H 0.3279 0.04898 0.59078 0.0
H1563 H 0.30281 0.04864 0.65593 0.0
H1564 H 0.33074 0.01692 0.52287 0.0
H1565 H 0.34699 0.99057 0.52537 0.0
C1566 C 0.10485 0.34 0.67856 0.0
C1567 C 0.07207 0.32499 0.70547 0.0
C1568 C 0.0693 0.37443 0.6702 0.0
C1569 C 0.1006 0.38774 0.63696 0.0
N1570 N 0.14749 0.38178 0.6066 0.0
N1571 N 1.0215 0.3263 0.71925 0.0
C1572 C 0.11803 0.36997 0.64013 0.0
C1573 C 0.05401 0.34197 0.69982 0.0
N1574 N 0.12414 0.32632 0.69256 0.0
N1575 N 0.05393 0.39273 0.67325 0.0
H1576 H 1.00961 0.30275 0.74056 0.0
H1577 H 1.00562 0.33544 0.70995 0.0
H1578 H 0.06305 0.41541 0.64901 0.0
H1579 H 0.03331 0.3865 0.70336 0.0
H1580 H 0.14926 0.33751 0.68092 0.0
H1581 H 0.11591 0.30511 0.72183 0.0
H1582 H 0.1591 0.36801 0.59857 0.0
H1583 H 0.15972 0.40488 0.58349 0.0
C1584 C 0.69719 0.73997 0.6096 0.0
C1585 C 0.66868 0.7385 0.63956 0.0
C1586 C 0.70378 0.77129 0.73565 0.0
C1587 C 0.73191 0.77127 0.70728 0.0
N1588 N 0.7532 0.74954 0.62361 0.0
N1589 N 0.64403 0.74865 0.73681 0.0
C1590 C 0.7279 0.75392 0.64592 0.0
C1591 C 0.67173 0.75257 0.70465 0.0
N1592 N 0.695 0.72794 0.54604 0.0
N1593 N 0.70796 0.79119 0.78947 0.0
H1594 H 0.62067 0.73758 0.71456 0.0
H1595 H 0.64376 0.75441 0.78732 0.0
H1596 H 0.73072 0.8058 0.81296 0.0
H1597 H 0.68953 0.79558 0.80743 0.0
H1598 H 0.71555 0.73239 0.51734 0.0
H1599 H 0.67261 0.71479 0.52038 0.0
H1600 H 0.75113 0.73461 0.58298 0.0
H1601 H 0.77539 0.7582 0.64993 0.0
C1602 C 0.97337 0.33808 0.98386 0.0
C1603 C 0.9544 0.32345 0.04321 0.0
C1604 C 0.97092 0.28062 0.03694 0.0
C1605 C 0.98677 0.29319 0.97359 0.0
N1606 N 1.00141 0.33328 0.88489 0.0
N1607 N 0.93133 0.27756 0.12064 0.0
C1608 C 0.98736 0.32169 0.94657 0.0
C1609 C 0.95256 0.2941 0.06877 0.0
N1610 N 0.97915 0.36856 0.96448 0.0
N1611 N 0.97287 0.25531 0.06667 0.0
H1612 H 0.91723 0.28604 0.14496 0.0
H1613 H 0.9255 0.25401 0.1362 0.0
H1614 H 0.98364 0.24301 0.04358 0.0
H1615 H 0.96574 0.24787 0.11622 0.0
H1616 H 0.9952 0.3823 0.9257 0.0
H1617 H 0.97033 0.38168 0.99154 0.0
H1618 H 0.99858 0.35071 0.85764 0.0
H1619 H 1.01476 0.32431 0.85922 0.0
C1620 C 0.71646 0.66631 0.99491 0.0
C1621 C 0.73503 0.65889 0.04133 0.0
C1622 C 0.78274 0.71525 0.02415 0.0
C1623 C 0.76543 0.72139 0.97211 0.0
N1624 N 0.71697 0.70007 0.9014 0.0
N1625 N 0.7878 0.67494 0.0926 0.0
C1626 C 0.73246 0.69627 0.95618 0.0
C1627 C 0.76867 0.68308 0.05406 0.0
N1628 N 0.68322 0.64479 0.98849 0.0
N1629 N 0.81217 0.74056 0.04723 0.0
H1630 H 0.77846 0.65213 0.11652 0.0
H1631 H 0.81344 0.68978 0.09669 0.0
H1632 H 0.82275 0.76458 0.02882 0.0
H1633 H 0.82441 0.73863 0.08927 0.0
H1634 H 0.66739 0.65005 0.96109 0.0
H1635 H 0.67089 0.62281 1.01581 0.0
H1636 H 0.69459 0.6813 0.88245 0.0
H1637 H 0.72784 0.721 0.87084 0.0
C1638 C 0.35788 0.11057 0.96877 0.0
C1639 C 0.33792 0.07557 0.97344 0.0
C1640 C 0.38167 0.075 0.04403 0.0
C1641 C 0.40086 0.1101 0.04176 0.0
N1642 N 0.40298 0.16136 1.0149 0.0
N1643 N 0.32871 0.02494 0.02456 0.0
C1644 C 0.38776 0.12783 1.00744 0.0
C1645 C 0.34912 0.05802 1.01432 0.0
N1646 N 0.34824 0.12764 0.92762 0.0
N1647 N 0.39523 0.05766 0.07128 0.0
H1648 H 0.30585 1.01129 1.00071 0.0
H1649 H 0.3334 1.0114 0.05996 0.0
H1650 H 0.4188 0.06904 0.09269 0.0
H1651 H 0.38437 0.03212 0.06805 0.0
H1652 H 0.36373 0.15227 0.91434 0.0
H1653 H 0.32533 0.11684 0.90345 0.0
H1654 H 0.39312 0.17557 0.99727 0.0
H1655 H 0.42384 0.17478 0.04504 0.0
C1656 C 0.793 0.10559 0.34202 0.0
C1657 C 0.7761 0.0712 0.32709 0.0
C1658 C 0.72626 0.06548 0.38489 0.0
C1659 C 0.74264 0.10024 0.39667 0.0
N1660 N 0.78942 0.15399 0.3716 0.0
N1661 N 0.72519 0.01915 0.32634 0.0
C1662 C 0.77544 0.12041 0.37123 0.0
C1663 C 0.74218 0.05148 0.34566 0.0
N1664 N 0.82625 0.12427 0.32923 0.0
N1665 N 0.69627 0.04545 0.41478 0.0
H1666 H 0.73644 1.00794 0.30055 0.0
H1667 H 0.6996 1.00418 0.33111 0.0
H1668 H 0.68423 0.05438 0.44504 0.0
H1669 H 0.68455 0.01979 0.41459 0.0
H1670 H 0.84102 0.14815 0.34755 0.0
H1671 H 0.83965 0.11524 0.30379 0.0
H1672 H 0.81162 0.16997 0.34735 0.0
H1673 H 0.7773 0.16594 0.39003 0.0
C1674 C 1.00409 0.72707 0.39206 0.0
C1675 C 0.98922 0.7316 0.33344 0.0
C1676 C 0.9464 0.67211 0.33857 0.0
C1677 C 0.95918 0.66852 0.40126 0.0
N1678 N 0.9996 0.69364 0.48961 0.0
N1679 N 0.94255 0.70901 0.25765 0.0
C1680 C 0.98778 0.69641 0.42855 0.0
C1681 C 0.9596 0.70415 0.30805 0.0
N1682 N 0.03472 0.7518 0.41138 0.0
N1683 N 0.92126 0.64494 0.30802 0.0
H1684 H 0.95069 0.7318 0.23458 0.0
H1685 H 0.91881 0.69122 0.24261 0.0
H1686 H 0.9094 0.62155 0.32981 0.0
H1687 H 0.91363 0.64506 0.25884 0.0
H1688 H 0.04865 0.74934 0.44945 0.0
H1689 H 0.04777 0.77397 0.38498 0.0
H1690 H 1.01714 0.71375 0.51714 0.0
H1691 H 0.99072 0.67116 0.51448 0.0
C1692 C 0.3585 0.31424 0.43012 0.0
C1693 C 0.38717 0.31567 0.40092 0.0
C1694 C 0.35202 0.28193 0.30536 0.0
C1695 C 0.32379 0.28213 0.3327 0.0
N1696 N 0.30221 0.30397 0.41544 0.0
N1697 N 0.41175 0.30425 0.30523 0.0
C1698 C 0.32767 0.29973 0.39371 0.0
C1699 C 0.38407 0.30082 0.33658 0.0
N1700 N 0.36064 0.32692 0.49303 0.0
N1701 N 0.3479 0.26178 0.25204 0.0
H1702 H 0.43503 0.31526 0.32778 0.0
H1703 H 0.41212 0.29804 0.25507 0.0
H1704 H 0.32516 0.24715 0.22847 0.0
H1705 H 0.36629 0.25719 0.23467 0.0
H1706 H 0.34008 0.32269 0.52142 0.0
H1707 H 0.38302 0.34042 0.51859 0.0
H1708 H 0.30416 0.31919 0.45541 0.0
H1709 H 0.27988 0.29476 0.38938 0.0
C1710 C 0.07118 0.73572 0.09441 0.0
C1711 C 0.07094 0.76362 0.06633 0.0
C1712 C 0.10484 0.76234 0.9708 0.0
C1713 C 0.10341 0.73326 0.99699 0.0
N1714 N 0.07914 0.68868 0.07705 0.0
N1715 N 0.08376 0.80053 0.97186 0.0
C1716 C 0.08486 0.71905 0.05702 0.0
C1717 C 0.08628 0.77571 1.00236 0.0
N1718 N 0.05837 0.725 0.15732 0.0
N1719 N 0.12589 0.77882 0.91865 0.0
H1720 H 0.07288 0.81279 0.99472 0.0
H1721 H 0.09053 0.80756 0.922 0.0
H1722 H 0.14034 0.77061 0.8948 0.0
H1723 H 0.13133 0.80218 0.90256 0.0
H1724 H 0.06184 0.70799 0.18462 0.0
H1725 H 0.0458 0.7345 0.18422 0.0
H1726 H 0.06326 0.67525 0.11633 0.0
H1727 H 0.08763 0.67529 0.04995 0.0
C1728 C 0.29187 0.37289 0.97508 0.0
C1729 C 0.32413 0.39855 0.99347 0.0
C1730 C 0.32676 0.3607 0.07764 0.0
C1731 C 0.29316 0.33639 0.06435 0.0
N1732 N 0.24187 0.32288 1.00867 0.0
N1733 N 0.37117 0.4178 0.06737 0.0
C1734 C 0.27536 0.34329 1.01464 0.0
C1735 C 0.34115 0.39265 0.04636 0.0
N1736 N 0.27644 0.37695 0.92049 0.0
N1737 N 0.34556 0.35285 0.11792 0.0
H1738 H 0.38373 0.4405 0.04263 0.0
H1739 H 0.38279 0.41681 0.11131 0.0
H1740 H 0.3364 0.32974 0.14036 0.0
H1741 H 0.37103 0.36805 0.12416 0.0
H1742 H 0.25492 0.3578 0.89943 0.0
H1743 H 0.2864 0.39873 0.89267 0.0
H1744 H 0.22676 0.32821 0.97895 0.0
H1745 H 0.22837 0.30236 0.03922 0.0
C1746 C 0.66195 0.96878 0.05897 0.0
C1747 C 0.65769 0.95106 0.99796 0.0
C1748 C 0.718 0.96975 1.0005 0.0
C1749 C 0.72137 0.98441 0.06515 0.0
N1750 N 0.6952 0.99551 0.15815 0.0
N1751 N 0.68145 0.93061 0.91658 0.0
C1752 C 0.69285 0.98304 0.09499 0.0
C1753 C 0.68579 0.95084 0.96987 0.0
N1754 N 0.63675 0.97335 0.08112 0.0
N1755 N 0.74555 0.97332 0.96834 0.0
H1756 H 0.6586 0.91586 0.89351 0.0
H1757 H 0.6998 0.92607 0.89878 0.0
H1758 H 0.76896 0.98439 0.99037 0.0
H1759 H 0.74567 0.96721 0.91801 0.0
H1760 H 0.63899 0.9886 0.12126 0.0
H1761 H 0.61445 0.96451 0.05511 0.0
H1762 H 0.67471 0.99118 0.18693 0.0
H1763 H 0.71766 1.00891 0.18346 0.0
C1764 C 0.66852 0.658 0.33599 0.0
C1765 C 0.6505 0.6252 0.31023 0.0
C1766 C 0.5991 0.61989 0.35911 0.0
C1767 C 0.61654 0.65368 0.37879 0.0
N1768 N 0.66717 0.70601 0.37948 0.0
N1769 N 0.59799 0.57514 0.29491 0.0
C1770 C 0.65117 0.67294 0.3661 0.0
C1771 C 0.61558 0.60628 0.32108 0.0
N1772 N 0.70233 0.67508 0.33126 0.0
N1773 N 0.56681 0.6004 0.37895 0.0
H1774 H 0.6091 0.56301 0.27238 0.0
H1775 H 0.57222 0.56172 0.29249 0.0
H1776 H 0.55409 0.6093 0.40723 0.0
H1777 H 0.55336 0.57491 0.37275 0.0
H1778 H 0.71731 0.69739 0.35565 0.0
H1779 H 0.71574 0.66595 0.30627 0.0
H1780 H 0.69143 0.72245 0.36476 0.0
H1781 H 0.65534 0.71752 0.40179 0.0
C1782 C 0.45251 0.03843 0.31402 0.0
C1783 C 0.43476 0.05574 0.30695 0.0
C1784 C 0.38721 1.01005 0.36776 0.0
C1785 C 0.40546 0.99347 0.37694 0.0
N1786 N 0.45776 0.99493 0.36969 0.0
N1787 N 0.38691 0.06017 0.33626 0.0
C1788 C 0.43875 1.00859 0.35292 0.0
C1789 C 0.40274 0.04227 0.33717 0.0
N1790 N 0.48276 0.05052 0.28358 0.0
N1791 N 0.35437 0.99416 0.38475 0.0
H1792 H 0.39622 0.08261 0.31096 0.0
H1793 H 0.3656 0.05387 0.36407 0.0
H1794 H 0.3424 0.97084 0.40709 0.0
H1795 H 0.33841 1.00291 0.37276 0.0
H1796 H 0.49487 0.03707 0.27827 0.0
H1797 H 0.4953 0.07359 0.26041 0.0
H1798 H 0.48309 1.00612 0.36023 0.0
H1799 H 0.44888 0.97361 0.39888 0.0
C1800 C 0.0629 0.42184 0.3121 0.0
C1801 C 0.06711 0.44028 0.372 0.0
C1802 C 1.00711 0.42241 0.36788 0.0
C1803 C 1.00382 0.40695 0.30425 0.0
N1804 N 0.02995 0.39461 0.21288 0.0
N1805 N 0.04371 0.4623 0.45061 0.0
C1806 C 0.0322 0.4076 0.27553 0.0
C1807 C 0.03922 0.44133 0.39865 0.0
N1808 N 0.08794 0.41666 0.29156 0.0
N1809 N 0.97961 0.41961 0.39884 0.0
H1810 H 0.06655 0.47706 0.47374 0.0
H1811 H 0.02555 0.4674 0.46712 0.0
H1812 H 0.95628 0.40847 0.37648 0.0
H1813 H 0.97943 0.42645 0.44861 0.0
H1814 H 0.08562 0.40085 0.25248 0.0
H1815 H 0.11015 0.42563 0.31796 0.0
H1816 H 0.05047 0.39824 0.18511 0.0
H1817 H 1.00768 0.38169 0.18666 0.0
C1818 C 0.40776 0.38405 0.68133 0.0
C1819 C 0.44153 0.40353 0.66154 0.0
C1820 C 0.44115 0.45324 0.70345 0.0
C1821 C 0.40856 0.43338 0.73018 0.0
N1822 N 0.36256 0.37874 0.75177 0.0
N1823 N 0.4917 0.45658 0.66118 0.0
C1824 C 0.39218 0.39847 0.72032 0.0
C1825 C 0.45852 0.43808 0.67486 0.0
N1826 N 0.39056 0.35155 0.66321 0.0
N1827 N 0.45505 0.48682 0.70199 0.0
H1828 H 0.50496 0.44716 0.6366 0.0
H1829 H 0.50655 0.48071 0.67809 0.0
H1830 H 0.44298 0.49896 0.71971 0.0
H1831 H 0.47708 0.5025 0.67687 0.0
H1832 H 0.36501 0.33668 0.66897 0.0
H1833 H 0.40154 0.3401 0.63731 0.0
H1834 H 0.35098 0.35309 0.75293 0.0
H1835 H 0.35081 0.38797 0.78206 0.0
C1836 C 0.67241 0.05912 0.7165 0.0
C1837 C 0.65614 0.06476 0.66167 0.0
C1838 C 0.60793 1.00855 0.67938 0.0
C1839 C 0.62504 1.00211 0.73143 0.0
N1840 N 0.67651 0.0197 0.78993 0.0
N1841 N 0.60996 0.04246 0.58471 0.0
C1842 C 0.65807 0.02706 0.74742 0.0
C1843 C 0.62458 0.03857 0.64085 0.0
N1844 N 0.70171 0.0846 0.73964 0.0
N1845 N 0.57484 0.98716 0.66984 0.0
H1846 H 0.61986 0.06445 0.55762 0.0
H1847 H 0.58922 0.0231 0.56187 0.0
H1848 H 0.56122 0.9659 0.69843 0.0
H1849 H 0.55994 0.99207 0.63851 0.0
H1850 H 0.71253 0.08378 0.78488 0.0
H1851 H 0.71445 0.10739 0.71528 0.0
H1852 H 0.70172 0.03539 0.79838 0.0
H1853 H 0.66748 0.99654 0.81204 0.0
C1854 C 1.00858 0.64988 0.67294 0.0
C1855 C 0.99129 0.61489 0.66678 0.0
C1856 C 0.03636 0.61361 0.731 0.0
C1857 C 0.05445 0.64877 0.73465 0.0
N1858 N 0.05972 0.70056 0.70011 0.0
N1859 N 0.99197 0.56404 0.67896 0.0
C1860 C 0.04121 0.6669 0.70236 0.0
C1861 C 1.00613 0.59699 0.69302 0.0
N1862 N 0.99302 0.66678 0.65417 0.0
N1863 N 0.0481 0.59585 0.76374 0.0
H1864 H 0.97047 0.55117 0.65029 0.0
H1865 H 1.00297 0.54999 0.69005 0.0
H1866 H 0.07136 0.60661 0.78644 0.0
H1867 H 0.03413 0.57046 0.77151 0.0
H1868 H 1.00234 0.69174 0.66388 0.0
H1869 H 0.9694 0.65521 0.63286 0.0
H1870 H 0.05357 0.71512 0.67071 0.0
H1871 H 0.0825 0.71399 0.72436 0.0
loop_
_geom_bond_atom_site_label_1
_geom_bond_atom_site_label_2
_geom_bond_distance
_geom_bond_site_symmetry_2
_ccdc_geom_bond_type
Co0 H3 2.400 1_545 S
Co0 O4 2.009 1_545 S
Co0 O12 2.115 1_545 S
Co0 O13 2.315 1_545 S
Co0 O24 2.053 1_545 S
Co0 O27 2.094 . S
Co0 O30 2.122 . S
Co1 O4 2.126 1_545 S
Co1 H5 2.388 . S
Co1 O6 2.053 . S
Co1 O9 2.047 . S
Co1 O15 2.113 1_545 S
Co1 O26 2.063 . S
Co2 H3 2.388 . S
Co2 O4 2.053 . S
Co2 O6 2.126 1_565 S
Co2 O11 2.063 . S
Co2 O25 2.047 . S
Co2 O31 2.113 1_565 S
H3 Co0 2.400 1_565 S
H3 Co2 2.388 . S
H3 O4 0.760 . S
O4 Co0 2.009 1_565 S
O4 Co1 2.126 1_565 S
O4 Co2 2.053 . S
O4 H3 0.760 . S
H5 Co1 2.388 . S
H5 O6 0.760 . S
H5 Co7 2.400 . S
O6 Co1 2.053 . S
O6 Co2 2.126 1_545 S
O6 H5 0.760 . S
O6 Co7 2.009 . S
Co7 H5 2.400 . S
Co7 O6 2.009 . S
Co7 O8 2.053 . S
Co7 O10 2.094 1_545 S
Co7 O14 2.122 1_545 S
Co7 O28 2.115 . S
Co7 O29 2.315 . S
O8 Co7 2.053 . S
O8 C20 1.259 . S
O9 Co1 2.047 . S
O9 C20 1.257 . S
O10 Co7 2.094 1_565 S
O10 C21 1.253 . S
O11 Co2 2.063 . S
O11 C21 1.268 . S
O12 Co0 2.115 1_565 S
O12 C22 1.281 . S
O13 Co0 2.315 1_565 S
O13 C22 1.252 . S
O14 Co7 2.122 1_565 S
O14 C23 1.272 . S
O15 Co1 2.113 1_565 S
O15 C23 1.245 . S
C16 O24 1.259 . S
C16 O25 1.257 . S
C17 O26 1.268 . S
C17 O27 1.253 . S
C18 O28 1.281 . S
C18 O29 1.252 . S
C19 O30 1.272 . S
C19 O31 1.245 . S
C20 O8 1.259 . S
C20 O9 1.257 . S
C21 O10 1.253 . S
C21 O11 1.268 . S
C22 O12 1.281 . S
C22 O13 1.252 . S
C23 O14 1.272 . S
C23 O15 1.245 . S
O24 Co0 2.053 1_565 S
O24 C16 1.259 . S
O25 Co2 2.047 . S
O25 C16 1.257 . S
O26 Co1 2.063 . S
O26 C17 1.268 . S
O27 Co0 2.094 . S
O27 C17 1.253 . S
O28 Co7 2.115 . S
O28 C18 1.281 . S
O29 Co7 2.315 . S
O29 C18 1.252 . S
O30 Co0 2.122 . S
O30 C19 1.272 . S
O31 Co2 2.113 1_545 S
O31 C19 1.245 . S
Co32 H35 2.400 . S
Co32 O36 2.009 . S
Co32 O44 2.115 . S
Co32 O45 2.315 . S
Co32 O56 2.053 . S
Co32 O59 2.094 1_455 S
Co32 O62 2.122 1_455 S
Co33 O36 2.126 1_655 S
Co33 H37 2.388 . S
Co33 O38 2.053 . S
Co33 O41 2.047 . S
Co33 O47 2.113 1_655 S
Co33 O58 2.063 . S
Co34 H35 2.388 . S
Co34 O36 2.053 . S
Co34 O38 2.126 1_455 S
Co34 O43 2.063 . S
Co34 O57 2.047 . S
Co34 O63 2.113 1_455 S
H35 Co32 2.400 . S
H35 Co34 2.388 . S
H35 O36 0.760 . S
O36 Co32 2.009 . S
O36 Co33 2.126 1_455 S
O36 Co34 2.053 . S
O36 H35 0.760 . S
H37 Co33 2.388 . S
H37 O38 0.760 . S
H37 Co39 2.400 . S
O38 Co33 2.053 . S
O38 Co34 2.126 1_655 S
O38 H37 0.760 . S
O38 Co39 2.009 . S
Co39 H37 2.400 . S
Co39 O38 2.009 . S
Co39 O40 2.053 . S
Co39 O42 2.094 1_655 S
Co39 O46 2.122 1_655 S
Co39 O60 2.115 . S
Co39 O61 2.315 . S
O40 Co39 2.053 . S
O40 C52 1.259 . S
O41 Co33 2.047 . S
O41 C52 1.257 . S
O42 Co39 2.094 1_455 S
O42 C53 1.253 . S
O43 Co34 2.063 . S
O43 C53 1.268 . S
O44 Co32 2.115 . S
O44 C54 1.281 . S
O45 Co32 2.315 . S
O45 C54 1.252 . S
O46 Co39 2.122 1_455 S
O46 C55 1.272 . S
O47 Co33 2.113 1_455 S
O47 C55 1.245 . S
C48 O56 1.259 . S
C48 O57 1.257 . S
C49 O58 1.268 . S
C49 O59 1.253 . S
C50 O60 1.281 . S
C50 O61 1.252 . S
C51 O62 1.272 . S
C51 O63 1.245 . S
C52 O40 1.259 . S
C52 O41 1.257 . S
C53 O42 1.253 . S
C53 O43 1.268 . S
C54 O44 1.281 . S
C54 O45 1.252 . S
C55 O46 1.272 . S
C55 O47 1.245 . S
O56 Co32 2.053 . S
O56 C48 1.259 . S
O57 Co34 2.047 . S
O57 C48 1.257 . S
O58 Co33 2.063 . S
O58 C49 1.268 . S
O59 Co32 2.094 1_655 S
O59 C49 1.253 . S
O60 Co39 2.115 . S
O60 C50 1.281 . S
O61 Co39 2.315 . S
O61 C50 1.252 . S
O62 Co32 2.122 1_655 S
O62 C51 1.272 . S
O63 Co34 2.113 1_655 S
O63 C51 1.245 . S
Co64 H67 2.400 . S
Co64 O68 2.009 . S
Co64 O76 2.115 . S
Co64 O77 2.315 . S
Co64 O88 2.053 . S
Co64 O91 2.094 . S
Co64 O94 2.122 . S
Co65 O68 2.126 . S
Co65 H69 2.388 . S
Co65 O70 2.053 . S
Co65 O73 2.047 . S
Co65 O79 2.113 . S
Co65 O90 2.063 . S
Co66 H67 2.388 . S
Co66 O68 2.053 . S
Co66 O70 2.126 . S
Co66 O75 2.063 . S
Co66 O89 2.047 . S
Co66 O95 2.113 . S
H67 Co64 2.400 . S
H67 Co66 2.388 . S
H67 O68 0.760 . S
O68 Co64 2.009 . S
O68 Co65 2.126 . S
O68 Co66 2.053 . S
O68 H67 0.760 . S
H69 Co65 2.388 . S
H69 O70 0.760 . S
H69 Co71 2.400 . S
O70 Co65 2.053 . S
O70 Co66 2.126 . S
O70 H69 0.760 . S
O70 Co71 2.009 . S
Co71 H69 2.400 . S
Co71 O70 2.009 . S
Co71 O72 2.053 . S
Co71 O74 2.094 . S
Co71 O78 2.122 . S
Co71 O92 2.115 . S
Co71 O93 2.315 . S
O72 Co71 2.053 . S
O72 C84 1.259 . S
O73 Co65 2.047 . S
O73 C84 1.257 . S
O74 Co71 2.094 . S
O74 C85 1.253 . S
O75 Co66 2.063 . S
O75 C85 1.268 . S
O76 Co64 2.115 . S
O76 C86 1.281 . S
O77 Co64 2.315 . S
O77 C86 1.252 . S
O78 Co71 2.122 . S
O78 C87 1.272 . S
O79 Co65 2.113 . S
O79 C87 1.245 . S
C80 O88 1.259 . S
C80 O89 1.257 . S
C81 O90 1.268 . S
C81 O91 1.253 . S
C82 O92 1.281 . S
C82 O93 1.252 . S
C83 O94 1.272 . S
C83 O95 1.245 . S
C84 O72 1.259 . S
C84 O73 1.257 . S
C85 O74 1.253 . S
C85 O75 1.268 . S
C86 O76 1.281 . S
C86 O77 1.252 . S
C87 O78 1.272 . S
C87 O79 1.245 . S
O88 Co64 2.053 . S
O88 C80 1.259 . S
O89 Co66 2.047 . S
O89 C80 1.257 . S
O90 Co65 2.063 . S
O90 C81 1.268 . S
O91 Co64 2.094 . S
O91 C81 1.253 . S
O92 Co71 2.115 . S
O92 C82 1.281 . S
O93 Co71 2.315 . S
O93 C82 1.252 . S
O94 Co64 2.122 . S
O94 C83 1.272 . S
O95 Co66 2.113 . S
O95 C83 1.245 . S
Co96 H99 2.400 1_545 S
Co96 O100 2.018 . S
Co96 O108 2.115 . S
Co96 O109 2.315 1_545 S
Co96 O120 2.053 1_545 S
Co96 O123 2.094 . S
Co96 O126 2.122 . S
Co97 O100 2.137 . S
Co97 H101 2.388 . S
Co97 O102 2.053 . S
Co97 O105 2.047 . S
Co97 O111 2.140 . S
Co97 O122 2.063 . S
Co98 H99 2.388 . S
Co98 O100 2.043 1_565 S
Co98 O102 2.126 1_565 S
Co98 O107 2.063 . S
Co98 O121 2.047 . S
Co98 O127 2.113 1_565 S
H99 Co96 2.400 1_565 S
H99 Co98 2.388 . S
H99 O100 0.748 1_565 S
O100 Co96 2.018 . S
O100 Co97 2.137 . S
O100 Co98 2.043 1_545 S
O100 H99 0.748 1_545 S
H101 Co97 2.388 . S
H101 O102 0.760 . S
H101 Co103 2.400 . S
O102 Co97 2.053 . S
O102 Co98 2.126 1_545 S
O102 H101 0.760 . S
O102 Co103 2.009 . S
Co103 H101 2.400 . S
Co103 O102 2.009 . S
Co103 O104 2.053 . S
Co103 O106 2.094 1_545 S
Co103 O110 2.122 1_545 S
Co103 O124 2.115 . S
Co103 O125 2.315 . S
O104 Co103 2.053 . S
O104 C116 1.259 . S
O105 Co97 2.047 . S
O105 C116 1.257 . S
O106 Co103 2.094 1_565 S
O106 C117 1.253 . S
O107 Co98 2.063 . S
O107 C117 1.268 . S
O108 Co96 2.115 . S
O108 C118 1.281 1_545 S
O109 Co96 2.315 1_565 S
O109 C118 1.252 . S
O110 Co103 2.122 1_565 S
O110 C119 1.272 . S
O111 Co97 2.140 . S
O111 C119 1.215 1_545 S
C112 O120 1.259 . S
C112 O121 1.257 . S
C113 O122 1.268 . S
C113 O123 1.253 . S
C114 O124 1.281 . S
C114 O125 1.252 . S
C115 O126 1.272 . S
C115 O127 1.245 . S
C116 O104 1.259 . S
C116 O105 1.257 . S
C117 O106 1.253 . S
C117 O107 1.268 . S
C118 O108 1.281 1_565 S
C118 O109 1.252 . S
C119 O110 1.272 . S
C119 O111 1.215 1_565 S
O120 Co96 2.053 1_565 S
O120 C112 1.259 . S
O121 Co98 2.047 . S
O121 C112 1.257 . S
O122 Co97 2.063 . S
O122 C113 1.268 . S
O123 Co96 2.094 . S
O123 C113 1.253 . S
O124 Co103 2.115 . S
O124 C114 1.281 . S
O125 Co103 2.315 . S
O125 C114 1.252 . S
O126 Co96 2.122 . S
O126 C115 1.272 . S
O127 Co98 2.113 1_545 S
O127 C115 1.245 . S
Co128 H131 2.400 . S
Co128 O132 2.009 . S
Co128 O140 2.115 . S
Co128 O141 2.315 . S
Co128 O152 2.053 . S
Co128 O155 2.094 1_455 S
Co128 O158 2.122 1_455 S
Co129 O132 2.126 1_655 S
Co129 H133 2.388 . S
Co129 O134 2.053 . S
Co129 O137 2.047 . S
Co129 O143 2.113 1_655 S
Co129 O154 2.063 . S
Co130 H131 2.388 . S
Co130 O132 2.053 . S
Co130 O134 2.126 1_455 S
Co130 O139 2.063 . S
Co130 O153 2.047 . S
Co130 O159 2.113 1_455 S
H131 Co128 2.400 . S
H131 Co130 2.388 . S
H131 O132 0.760 . S
O132 Co128 2.009 . S
O132 Co129 2.126 1_455 S
O132 Co130 2.053 . S
O132 H131 0.760 . S
H133 Co129 2.388 . S
H133 O134 0.760 . S
H133 Co135 2.400 . S
O134 Co129 2.053 . S
O134 Co130 2.126 1_655 S
O134 H133 0.760 . S
O134 Co135 2.009 . S
Co135 H133 2.400 . S
Co135 O134 2.009 . S
Co135 O136 2.053 . S
Co135 O138 2.094 1_655 S
Co135 O142 2.122 1_655 S
Co135 O156 2.115 . S
Co135 O157 2.315 . S
O136 Co135 2.053 . S
O136 C148 1.259 . S
O137 Co129 2.047 . S
O137 C148 1.257 . S
O138 Co135 2.094 1_455 S
O138 C149 1.253 . S
O139 Co130 2.063 . S
O139 C149 1.268 . S
O140 Co128 2.115 . S
O140 C150 1.281 . S
O141 Co128 2.315 . S
O141 C150 1.252 . S
O142 Co135 2.122 1_455 S
O142 C151 1.272 . S
O143 Co129 2.113 1_455 S
O143 C151 1.245 . S
C144 O152 1.259 . S
C144 O153 1.257 . S
C145 O154 1.268 . S
C145 O155 1.253 . S
C146 O156 1.281 . S
C146 O157 1.252 . S
C147 O158 1.272 . S
C147 O159 1.245 . S
C148 O136 1.259 . S
C148 O137 1.257 . S
C149 O138 1.253 . S
C149 O139 1.268 . S
C150 O140 1.281 . S
C150 O141 1.252 . S
C151 O142 1.272 . S
C151 O143 1.245 . S
O152 Co128 2.053 . S
O152 C144 1.259 . S
O153 Co130 2.047 . S
O153 C144 1.257 . S
O154 Co129 2.063 . S
O154 C145 1.268 . S
O155 Co128 2.094 1_655 S
O155 C145 1.253 . S
O156 Co135 2.115 . S
O156 C146 1.281 . S
O157 Co135 2.315 . S
O157 C146 1.252 . S
O158 Co128 2.122 1_655 S
O158 C147 1.272 . S
O159 Co130 2.113 1_655 S
O159 C147 1.245 . S
Co160 H163 2.400 . S
Co160 O164 2.009 . S
Co160 O172 2.115 . S
Co160 O173 2.315 . S
Co160 O184 2.053 . S
Co160 O187 2.094 . S
Co160 O190 2.122 . S
Co161 O164 2.126 . S
Co161 H165 2.388 . S
Co161 O166 2.053 . S
Co161 O169 2.047 . S
Co161 O175 2.113 . S
Co161 O186 2.063 . S
Co162 H163 2.388 . S
Co162 O164 2.053 . S
Co162 O166 2.126 . S
Co162 O171 2.063 . S
Co162 O185 2.047 . S
Co162 O191 2.113 . S
H163 Co160 2.400 . S
H163 Co162 2.388 . S
H163 O164 0.760 . S
O164 Co160 2.009 . S
O164 Co161 2.126 . S
O164 Co162 2.053 . S
O164 H163 0.760 . S
H165 Co161 2.388 . S
H165 O166 0.760 . S
H165 Co167 2.400 . S
O166 Co161 2.053 . S
O166 Co162 2.126 . S
O166 H165 0.760 . S
O166 Co167 2.009 . S
Co167 H165 2.400 . S
Co167 O166 2.009 . S
Co167 O168 2.053 . S
Co167 O170 2.094 . S
Co167 O174 2.122 . S
Co167 O188 2.115 . S
Co167 O189 2.315 . S
O168 Co167 2.053 . S
O168 C180 1.259 . S
O169 Co161 2.047 . S
O169 C180 1.257 . S
O170 Co167 2.094 . S
O170 C181 1.253 . S
O171 Co162 2.063 . S
O171 C181 1.268 . S
O172 Co160 2.115 . S
O172 C182 1.281 . S
O173 Co160 2.315 . S
O173 C182 1.252 . S
O174 Co167 2.122 . S
O174 C183 1.272 . S
O175 Co161 2.113 . S
O175 C183 1.245 . S
C176 O184 1.259 . S
C176 O185 1.257 . S
C177 O186 1.268 . S
C177 O187 1.253 . S
C178 O188 1.281 . S
C178 O189 1.252 . S
C179 O190 1.272 . S
C179 O191 1.245 . S
C180 O168 1.259 . S
C180 O169 1.257 . S
C181 O170 1.253 . S
C181 O171 1.268 . S
C182 O172 1.281 . S
C182 O173 1.252 . S
C183 O174 1.272 . S
C183 O175 1.245 . S
O184 Co160 2.053 . S
O184 C176 1.259 . S
O185 Co162 2.047 . S
O185 C176 1.257 . S
O186 Co161 2.063 . S
O186 C177 1.268 . S
O187 Co160 2.094 . S
O187 C177 1.253 . S
O188 Co167 2.115 . S
O188 C178 1.281 . S
O189 Co167 2.315 . S
O189 C178 1.252 . S
O190 Co160 2.122 . S
O190 C179 1.272 . S
O191 Co162 2.113 . S
O191 C179 1.245 . S
Co192 H195 2.400 1_556 S
Co192 O196 2.009 1_556 S
Co192 O204 2.115 . S
Co192 O205 2.315 1_556 S
Co192 O216 2.053 . S
Co192 O219 2.094 1_556 S
Co192 O222 2.122 . S
Co193 O196 2.126 . S
Co193 H197 2.388 . S
Co193 O198 2.053 . S
Co193 O201 2.047 . S
Co193 O207 2.113 . S
Co193 O218 2.063 . S
Co194 H195 2.388 . S
Co194 O196 2.053 . S
Co194 O198 2.126 . S
Co194 O203 2.063 . S
Co194 O217 2.047 1_554 S
Co194 O223 2.113 1_554 S
H195 Co192 2.400 1_554 S
H195 Co194 2.388 . S
H195 O196 0.760 . S
O196 Co192 2.009 1_554 S
O196 Co193 2.126 . S
O196 Co194 2.053 . S
O196 H195 0.760 . S
H197 Co193 2.388 . S
H197 O198 0.760 . S
H197 Co199 2.400 . S
O198 Co193 2.053 . S
O198 Co194 2.126 . S
O198 H197 0.760 . S
O198 Co199 2.009 . S
Co199 H197 2.400 . S
Co199 O198 2.009 . S
Co199 O200 2.053 . S
Co199 O202 2.094 . S
Co199 O206 2.122 . S
Co199 O220 2.115 . S
Co199 O221 2.315 . S
O200 Co199 2.053 . S
O200 C212 1.259 . S
O201 Co193 2.047 . S
O201 C212 1.257 . S
O202 Co199 2.094 . S
O202 C213 1.253 . S
O203 Co194 2.063 . S
O203 C213 1.268 . S
O204 Co192 2.115 . S
O204 C214 1.281 . S
O205 Co192 2.315 1_554 S
O205 C214 1.252 1_554 S
O206 Co199 2.122 . S
O206 C215 1.272 . S
O207 Co193 2.113 . S
O207 C215 1.245 . S
C208 O216 1.259 . S
C208 O217 1.257 . S
C209 O218 1.268 . S
C209 O219 1.253 . S
C210 O220 1.281 . S
C210 O221 1.252 . S
C211 O222 1.272 . S
C211 O223 1.245 . S
C212 O200 1.259 . S
C212 O201 1.257 . S
C213 O202 1.253 . S
C213 O203 1.268 . S
C214 O204 1.281 . S
C214 O205 1.252 1_556 S
C215 O206 1.272 . S
C215 O207 1.245 . S
O216 Co192 2.053 . S
O216 C208 1.259 . S
O217 Co194 2.047 1_556 S
O217 C208 1.257 . S
O218 Co193 2.063 . S
O218 C209 1.268 . S
O219 Co192 2.094 1_554 S
O219 C209 1.253 . S
O220 Co199 2.115 . S
O220 C210 1.281 . S
O221 Co199 2.315 . S
O221 C210 1.252 . S
O222 Co192 2.122 . S
O222 C211 1.272 . S
O223 Co194 2.113 1_556 S
O223 C211 1.245 . S
Co224 H227 2.400 1_556 S
Co224 O228 2.009 1_556 S
Co224 O236 2.115 . S
Co224 O237 2.315 1_556 S
Co224 O248 2.053 . S
Co224 O251 2.094 1_556 S
Co224 O254 2.122 . S
Co225 O228 2.126 . S
Co225 H229 2.388 . S
Co225 O230 2.053 . S
Co225 O233 2.047 . S
Co225 O239 2.113 . S
Co225 O250 2.063 . S
Co226 H227 2.388 . S
Co226 O228 2.053 . S
Co226 O230 2.126 . S
Co226 O235 2.063 . S
Co226 O249 2.047 1_554 S
Co226 O255 2.113 1_554 S
H227 Co224 2.400 1_554 S
H227 Co226 2.388 . S
H227 O228 0.760 . S
O228 Co224 2.009 1_554 S
O228 Co225 2.126 . S
O228 Co226 2.053 . S
O228 H227 0.760 . S
H229 Co225 2.388 . S
H229 O230 0.760 . S
H229 Co231 2.400 . S
O230 Co225 2.053 . S
O230 Co226 2.126 . S
O230 H229 0.760 . S
O230 Co231 2.009 . S
Co231 H229 2.400 . S
Co231 O230 2.009 . S
Co231 O232 2.053 . S
Co231 O234 2.094 . S
Co231 O238 2.122 . S
Co231 O252 2.115 . S
Co231 O253 2.315 . S
O232 Co231 2.053 . S
O232 C244 1.259 . S
O233 Co225 2.047 . S
O233 C244 1.257 . S
O234 Co231 2.094 . S
O234 C245 1.253 . S
O235 Co226 2.063 . S
O235 C245 1.268 . S
O236 Co224 2.115 . S
O236 C246 1.281 . S
O237 Co224 2.315 1_554 S
O237 C246 1.252 1_554 S
O238 Co231 2.122 . S
O238 C247 1.272 . S
O239 Co225 2.113 . S
O239 C247 1.245 . S
C240 O248 1.259 . S
C240 O249 1.257 . S
C241 O250 1.268 . S
C241 O251 1.253 . S
C242 O252 1.281 . S
C242 O253 1.252 . S
C243 O254 1.272 . S
C243 O255 1.245 . S
C244 O232 1.259 . S
C244 O233 1.257 . S
C245 O234 1.253 . S
C245 O235 1.268 . S
C246 O236 1.281 . S
C246 O237 1.252 1_556 S
C247 O238 1.272 . S
C247 O239 1.245 . S
O248 Co224 2.053 . S
O248 C240 1.259 . S
O249 Co226 2.047 1_556 S
O249 C240 1.257 . S
O250 Co225 2.063 . S
O250 C241 1.268 . S
O251 Co224 2.094 1_554 S
O251 C241 1.253 . S
O252 Co231 2.115 . S
O252 C242 1.281 . S
O253 Co231 2.315 . S
O253 C242 1.252 . S
O254 Co224 2.122 . S
O254 C243 1.272 . S
O255 Co226 2.113 1_556 S
O255 C243 1.245 . S
Co256 H259 2.400 1_556 S
Co256 O260 2.009 1_556 S
Co256 O268 2.115 . S
Co256 O269 2.315 1_556 S
Co256 O280 2.053 . S
Co256 O283 2.094 1_556 S
Co256 O286 2.122 . S
Co257 O260 2.126 . S
Co257 H261 2.388 . S
Co257 O262 2.053 . S
Co257 O265 2.047 . S
Co257 O271 2.113 . S
Co257 O282 2.063 . S
Co258 H259 2.388 . S
Co258 O260 2.053 . S
Co258 O262 2.126 . S
Co258 O267 2.063 . S
Co258 O281 2.047 1_554 S
Co258 O287 2.113 1_554 S
H259 Co256 2.400 1_554 S
H259 Co258 2.388 . S
H259 O260 0.760 . S
O260 Co256 2.009 1_554 S
O260 Co257 2.126 . S
O260 Co258 2.053 . S
O260 H259 0.760 . S
H261 Co257 2.388 . S
H261 O262 0.760 . S
H261 Co263 2.400 . S
O262 Co257 2.053 . S
O262 Co258 2.126 . S
O262 H261 0.760 . S
O262 Co263 2.009 . S
Co263 H261 2.400 . S
Co263 O262 2.009 . S
Co263 O264 2.053 . S
Co263 O266 2.094 . S
Co263 O270 2.122 . S
Co263 O284 2.115 . S
Co263 O285 2.315 . S
O264 Co263 2.053 . S
O264 C276 1.259 . S
O265 Co257 2.047 . S
O265 C276 1.257 . S
O266 Co263 2.094 . S
O266 C277 1.253 . S
O267 Co258 2.063 . S
O267 C277 1.268 . S
O268 Co256 2.115 . S
O268 C278 1.281 . S
O269 Co256 2.315 1_554 S
O269 C278 1.252 1_554 S
O270 Co263 2.122 . S
O270 C279 1.272 . S
O271 Co257 2.113 . S
O271 C279 1.245 . S
C272 O280 1.259 . S
C272 O281 1.257 . S
C273 O282 1.268 . S
C273 O283 1.253 . S
C274 O284 1.281 . S
C274 O285 1.252 . S
C275 O286 1.272 . S
C275 O287 1.245 . S
C276 O264 1.259 . S
C276 O265 1.257 . S
C277 O266 1.253 . S
C277 O267 1.268 . S
C278 O268 1.281 . S
C278 O269 1.252 1_556 S
C279 O270 1.272 . S
C279 O271 1.245 . S
O280 Co256 2.053 . S
O280 C272 1.259 . S
O281 Co258 2.047 1_556 S
O281 C272 1.257 . S
O282 Co257 2.063 . S
O282 C273 1.268 . S
O283 Co256 2.094 1_554 S
O283 C273 1.253 . S
O284 Co263 2.115 . S
O284 C274 1.281 . S
O285 Co263 2.315 . S
O285 C274 1.252 . S
O286 Co256 2.122 . S
O286 C275 1.272 . S
O287 Co258 2.113 1_556 S
O287 C275 1.245 . S
Co288 H291 2.400 . S
Co288 O292 2.009 . S
Co288 O300 2.115 . S
Co288 O301 2.315 . S
Co288 O312 2.053 . S
Co288 O315 2.094 . S
Co288 O318 2.122 . S
Co289 O292 2.126 . S
Co289 H293 2.388 . S
Co289 O294 2.053 . S
Co289 O297 2.047 . S
Co289 O303 2.113 . S
Co289 O314 2.063 . S
Co290 H291 2.388 . S
Co290 O292 2.053 . S
Co290 O294 2.126 . S
Co290 O299 2.063 . S
Co290 O313 2.047 . S
Co290 O319 2.113 . S
H291 Co288 2.400 . S
H291 Co290 2.388 . S
H291 O292 0.760 . S
O292 Co288 2.009 . S
O292 Co289 2.126 . S
O292 Co290 2.053 . S
O292 H291 0.760 . S
H293 Co289 2.388 . S
H293 O294 0.760 . S
H293 Co295 2.400 . S
O294 Co289 2.053 . S
O294 Co290 2.126 . S
O294 H293 0.760 . S
O294 Co295 2.009 . S
Co295 H293 2.400 . S
Co295 O294 2.009 . S
Co295 O296 2.053 . S
Co295 O298 2.094 . S
Co295 O302 2.122 . S
Co295 O316 2.115 . S
Co295 O317 2.315 . S
O296 Co295 2.053 . S
O296 C308 1.259 . S
O297 Co289 2.047 . S
O297 C308 1.257 . S
O298 Co295 2.094 . S
O298 C309 1.253 . S
O299 Co290 2.063 . S
O299 C309 1.268 . S
O300 Co288 2.115 . S
O300 C310 1.281 . S
O301 Co288 2.315 . S
O301 C310 1.252 . S
O302 Co295 2.122 . S
O302 C311 1.272 . S
O303 Co289 2.113 . S
O303 C311 1.245 . S
C304 O312 1.259 . S
C304 O313 1.257 . S
C305 O314 1.268 . S
C305 O315 1.253 . S
C306 O316 1.281 . S
C306 O317 1.252 . S
C307 O318 1.272 . S
C307 O319 1.245 . S
C308 O296 1.259 . S
C308 O297 1.257 . S
C309 O298 1.253 . S
C309 O299 1.268 . S
C310 O300 1.281 . S
C310 O301 1.252 . S
C311 O302 1.272 . S
C311 O303 1.245 . S
O312 Co288 2.053 . S
O312 C304 1.259 . S
O313 Co290 2.047 . S
O313 C304 1.257 . S
O314 Co289 2.063 . S
O314 C305 1.268 . S
O315 Co288 2.094 . S
O315 C305 1.253 . S
O316 Co295 2.115 . S
O316 C306 1.281 . S
O317 Co295 2.315 . S
O317 C306 1.252 . S
O318 Co288 2.122 . S
O318 C307 1.272 . S
O319 Co290 2.113 . S
O319 C307 1.245 . S
Co320 H323 2.400 . S
Co320 O324 2.009 . S
Co320 O332 2.115 . S
Co320 O333 2.315 . S
Co320 O344 2.053 . S
Co320 O347 2.094 . S
Co320 O350 2.122 . S
Co321 O324 2.126 . S
Co321 H325 2.388 . S
Co321 O326 2.053 . S
Co321 O329 2.047 . S
Co321 O335 2.113 . S
Co321 O346 2.063 . S
Co322 H323 2.388 . S
Co322 O324 2.053 . S
Co322 O326 2.126 . S
Co322 O331 2.063 . S
Co322 O345 2.047 . S
Co322 O351 2.113 . S
H323 Co320 2.400 . S
H323 Co322 2.388 . S
H323 O324 0.760 . S
O324 Co320 2.009 . S
O324 Co321 2.126 . S
O324 Co322 2.053 . S
O324 H323 0.760 . S
H325 Co321 2.388 . S
H325 O326 0.760 . S
H325 Co327 2.400 . S
O326 Co321 2.053 . S
O326 Co322 2.126 . S
O326 H325 0.760 . S
O326 Co327 2.009 . S
Co327 H325 2.400 . S
Co327 O326 2.009 . S
Co327 O328 2.053 . S
Co327 O330 2.094 . S
Co327 O334 2.122 . S
Co327 O348 2.115 . S
Co327 O349 2.315 . S
O328 Co327 2.053 . S
O328 C340 1.259 . S
O329 Co321 2.047 . S
O329 C340 1.257 . S
O330 Co327 2.094 . S
O330 C341 1.253 . S
O331 Co322 2.063 . S
O331 C341 1.268 . S
O332 Co320 2.115 . S
O332 C342 1.281 . S
O333 Co320 2.315 . S
O333 C342 1.252 . S
O334 Co327 2.122 . S
O334 C343 1.272 . S
O335 Co321 2.113 . S
O335 C343 1.245 . S
C336 O344 1.259 . S
C336 O345 1.257 . S
C337 O346 1.268 . S
C337 O347 1.253 . S
C338 O348 1.281 . S
C338 O349 1.252 . S
C339 O350 1.272 . S
C339 O351 1.245 . S
C340 O328 1.259 . S
C340 O329 1.257 . S
C341 O330 1.253 . S
C341 O331 1.268 . S
C342 O332 1.281 . S
C342 O333 1.252 . S
C343 O334 1.272 . S
C343 O335 1.245 . S
O344 Co320 2.053 . S
O344 C336 1.259 . S
O345 Co322 2.047 . S
O345 C336 1.257 . S
O346 Co321 2.063 . S
O346 C337 1.268 . S
O347 Co320 2.094 . S
O347 C337 1.253 . S
O348 Co327 2.115 . S
O348 C338 1.281 . S
O349 Co327 2.315 . S
O349 C338 1.252 . S
O350 Co320 2.122 . S
O350 C339 1.272 . S
O351 Co322 2.113 . S
O351 C339 1.245 . S
Co352 H355 2.400 . S
Co352 O356 2.009 . S
Co352 O364 2.115 . S
Co352 O365 2.315 . S
Co352 O376 2.053 . S
Co352 O379 2.094 . S
Co352 O382 2.122 . S
Co353 O356 2.126 . S
Co353 H357 2.388 . S
Co353 O358 2.053 . S
Co353 O361 2.047 . S
Co353 O367 2.113 . S
Co353 O378 2.063 . S
Co354 H355 2.388 . S
Co354 O356 2.053 . S
Co354 O358 2.126 . S
Co354 O363 2.063 . S
Co354 O377 2.047 . S
Co354 O383 2.113 . S
H355 Co352 2.400 . S
H355 Co354 2.388 . S
H355 O356 0.760 . S
O356 Co352 2.009 . S
O356 Co353 2.126 . S
O356 Co354 2.053 . S
O356 H355 0.760 . S
H357 Co353 2.388 . S
H357 O358 0.760 . S
H357 Co359 2.400 . S
O358 Co353 2.053 . S
O358 Co354 2.126 . S
O358 H357 0.760 . S
O358 Co359 2.009 . S
Co359 H357 2.400 . S
Co359 O358 2.009 . S
Co359 O360 2.053 . S
Co359 O362 2.094 . S
Co359 O366 2.122 . S
Co359 O380 2.115 . S
Co359 O381 2.315 . S
O360 Co359 2.053 . S
O360 C372 1.259 . S
O361 Co353 2.047 . S
O361 C372 1.257 . S
O362 Co359 2.094 . S
O362 C373 1.253 . S
O363 Co354 2.063 . S
O363 C373 1.268 . S
O364 Co352 2.115 . S
O364 C374 1.281 . S
O365 Co352 2.315 . S
O365 C374 1.252 . S
O366 Co359 2.122 . S
O366 C375 1.272 . S
O367 Co353 2.113 . S
O367 C375 1.245 . S
C368 O376 1.259 . S
C368 O377 1.257 . S
C369 O378 1.268 . S
C369 O379 1.253 . S
C370 O380 1.281 . S
C370 O381 1.252 . S
C371 O382 1.272 . S
C371 O383 1.245 . S
C372 O360 1.259 . S
C372 O361 1.257 . S
C373 O362 1.253 . S
C373 O363 1.268 . S
C374 O364 1.281 . S
C374 O365 1.252 . S
C375 O366 1.272 . S
C375 O367 1.245 . S
O376 Co352 2.053 . S
O376 C368 1.259 . S
O377 Co354 2.047 . S
O377 C368 1.257 . S
O378 Co353 2.063 . S
O378 C369 1.268 . S
O379 Co352 2.094 . S
O379 C369 1.253 . S
O380 Co359 2.115 . S
O380 C370 1.281 . S
O381 Co359 2.315 . S
O381 C370 1.252 . S
O382 Co352 2.122 . S
O382 C371 1.272 . S
O383 Co354 2.113 . S
O383 C371 1.245 . S
Co384 H387 2.400 . S
Co384 O388 2.009 . S
Co384 O396 2.115 . S
Co384 O397 2.315 . S
Co384 O408 2.053 . S
Co384 O411 2.094 . S
Co384 O414 2.122 . S
Co385 O388 2.126 . S
Co385 H389 2.388 . S
Co385 O390 2.053 . S
Co385 O393 2.047 . S
Co385 O399 2.113 . S
Co385 O410 2.063 . S
Co386 H387 2.388 . S
Co386 O388 2.053 . S
Co386 O390 2.126 . S
Co386 O395 2.063 . S
Co386 O409 2.047 . S
Co386 O415 2.113 . S
H387 Co384 2.400 . S
H387 Co386 2.388 . S
H387 O388 0.760 . S
O388 Co384 2.009 . S
O388 Co385 2.126 . S
O388 Co386 2.053 . S
O388 H387 0.760 . S
H389 Co385 2.388 . S
H389 O390 0.760 . S
H389 Co391 2.400 . S
O390 Co385 2.053 . S
O390 Co386 2.126 . S
O390 H389 0.760 . S
O390 Co391 2.009 . S
Co391 H389 2.400 . S
Co391 O390 2.009 . S
Co391 O392 2.053 . S
Co391 O394 2.094 . S
Co391 O398 2.122 . S
Co391 O412 2.115 . S
Co391 O413 2.315 . S
O392 Co391 2.053 . S
O392 C404 1.259 . S
O393 Co385 2.047 . S
O393 C404 1.257 . S
O394 Co391 2.094 . S
O394 C405 1.253 . S
O395 Co386 2.063 . S
O395 C405 1.268 . S
O396 Co384 2.115 . S
O396 C406 1.281 . S
O397 Co384 2.315 . S
O397 C406 1.252 . S
O398 Co391 2.122 . S
O398 C407 1.272 . S
O399 Co385 2.113 . S
O399 C407 1.245 . S
C400 O408 1.259 . S
C400 O409 1.257 . S
C401 O410 1.268 . S
C401 O411 1.253 . S
C402 O412 1.281 . S
C402 O413 1.252 . S
C403 O414 1.272 . S
C403 O415 1.245 . S
C404 O392 1.259 . S
C404 O393 1.257 . S
C405 O394 1.253 . S
C405 O395 1.268 . S
C406 O396 1.281 . S
C406 O397 1.252 . S
C407 O398 1.272 . S
C407 O399 1.245 . S
O408 Co384 2.053 . S
O408 C400 1.259 . S
O409 Co386 2.047 . S
O409 C400 1.257 . S
O410 Co385 2.063 . S
O410 C401 1.268 . S
O411 Co384 2.094 . S
O411 C401 1.253 . S
O412 Co391 2.115 . S
O412 C402 1.281 . S
O413 Co391 2.315 . S
O413 C402 1.252 . S
O414 Co384 2.122 . S
O414 C403 1.272 . S
O415 Co386 2.113 . S
O415 C403 1.245 . S
Co416 H419 2.400 . S
Co416 O420 2.009 . S
Co416 O428 2.115 . S
Co416 O429 2.315 . S
Co416 O440 2.053 . S
Co416 O443 2.094 . S
Co416 O446 2.122 . S
Co417 O420 2.126 . S
Co417 H421 2.388 . S
Co417 O422 2.053 . S
Co417 O425 2.047 . S
Co417 O431 2.113 . S
Co417 O442 2.063 . S
Co418 H419 2.388 . S
Co418 O420 2.053 . S
Co418 O422 2.126 . S
Co418 O427 2.063 . S
Co418 O441 2.047 . S
Co418 O447 2.113 . S
H419 Co416 2.400 . S
H419 Co418 2.388 . S
H419 O420 0.760 . S
O420 Co416 2.009 . S
O420 Co417 2.126 . S
O420 Co418 2.053 . S
O420 H419 0.760 . S
H421 Co417 2.388 . S
H421 O422 0.760 . S
H421 Co423 2.400 . S
O422 Co417 2.053 . S
O422 Co418 2.126 . S
O422 H421 0.760 . S
O422 Co423 2.009 . S
Co423 H421 2.400 . S
Co423 O422 2.009 . S
Co423 O424 2.053 . S
Co423 O426 2.094 . S
Co423 O430 2.122 . S
Co423 O444 2.115 . S
Co423 O445 2.315 . S
O424 Co423 2.053 . S
O424 C436 1.259 . S
O425 Co417 2.047 . S
O425 C436 1.257 . S
O426 Co423 2.094 . S
O426 C437 1.253 . S
O427 Co418 2.063 . S
O427 C437 1.268 . S
O428 Co416 2.115 . S
O428 C438 1.281 . S
O429 Co416 2.315 . S
O429 C438 1.252 . S
O430 Co423 2.122 . S
O430 C439 1.272 . S
O431 Co417 2.113 . S
O431 C439 1.245 . S
C432 O440 1.259 . S
C432 O441 1.257 . S
C433 O442 1.268 . S
C433 O443 1.253 . S
C434 O444 1.281 . S
C434 O445 1.252 . S
C435 O446 1.272 . S
C435 O447 1.245 . S
C436 O424 1.259 . S
C436 O425 1.257 . S
C437 O426 1.253 . S
C437 O427 1.268 . S
C438 O428 1.281 . S
C438 O429 1.252 . S
C439 O430 1.272 . S
C439 O431 1.245 . S
O440 Co416 2.053 . S
O440 C432 1.259 . S
O441 Co418 2.047 . S
O441 C432 1.257 . S
O442 Co417 2.063 . S
O442 C433 1.268 . S
O443 Co416 2.094 . S
O443 C433 1.253 . S
O444 Co423 2.115 . S
O444 C434 1.281 . S
O445 Co423 2.315 . S
O445 C434 1.252 . S
O446 Co416 2.122 . S
O446 C435 1.272 . S
O447 Co418 2.113 . S
O447 C435 1.245 . S
Co448 H451 2.400 . S
Co448 O452 2.009 . S
Co448 O460 2.115 . S
Co448 O461 2.315 . S
Co448 O472 2.053 . S
Co448 O475 2.094 . S
Co448 O478 2.122 . S
Co449 O452 2.126 . S
Co449 H453 2.388 . S
Co449 O454 2.053 . S
Co449 O457 2.047 . S
Co449 O463 2.113 . S
Co449 O474 2.063 . S
Co450 H451 2.388 . S
Co450 O452 2.053 . S
Co450 O454 2.126 . S
Co450 O459 2.063 . S
Co450 O473 2.047 . S
Co450 O479 2.113 . S
H451 Co448 2.400 . S
H451 Co450 2.388 . S
H451 O452 0.760 . S
O452 Co448 2.009 . S
O452 Co449 2.126 . S
O452 Co450 2.053 . S
O452 H451 0.760 . S
H453 Co449 2.388 . S
H453 O454 0.760 . S
H453 Co455 2.400 . S
O454 Co449 2.053 . S
O454 Co450 2.126 . S
O454 H453 0.760 . S
O454 Co455 2.009 . S
Co455 H453 2.400 . S
Co455 O454 2.009 . S
Co455 O456 2.053 . S
Co455 O458 2.094 . S
Co455 O462 2.122 . S
Co455 O476 2.115 . S
Co455 O477 2.315 . S
O456 Co455 2.053 . S
O456 C468 1.259 . S
O457 Co449 2.047 . S
O457 C468 1.257 . S
O458 Co455 2.094 . S
O458 C469 1.253 . S
O459 Co450 2.063 . S
O459 C469 1.268 . S
O460 Co448 2.115 . S
O460 C470 1.281 . S
O461 Co448 2.315 . S
O461 C470 1.252 . S
O462 Co455 2.122 . S
O462 C471 1.272 . S
O463 Co449 2.113 . S
O463 C471 1.245 . S
C464 O472 1.259 . S
C464 O473 1.257 . S
C465 O474 1.268 . S
C465 O475 1.253 . S
C466 O476 1.281 . S
C466 O477 1.252 . S
C467 O478 1.272 . S
C467 O479 1.245 . S
C468 O456 1.259 . S
C468 O457 1.257 . S
C469 O458 1.253 . S
C469 O459 1.268 . S
C470 O460 1.281 . S
C470 O461 1.252 . S
C471 O462 1.272 . S
C471 O463 1.245 . S
O472 Co448 2.053 . S
O472 C464 1.259 . S
O473 Co450 2.047 . S
O473 C464 1.257 . S
O474 Co449 2.063 . S
O474 C465 1.268 . S
O475 Co448 2.094 . S
O475 C465 1.253 . S
O476 Co455 2.115 . S
O476 C466 1.281 . S
O477 Co455 2.315 . S
O477 C466 1.252 . S
O478 Co448 2.122 . S
O478 C467 1.272 . S
O479 Co450 2.113 . S
O479 C467 1.245 . S
Co480 H483 2.400 . S
Co480 O484 2.009 . S
Co480 O492 2.115 . S
Co480 O493 2.315 . S
Co480 O504 2.053 . S
Co480 O507 2.094 . S
Co480 O510 2.122 . S
Co481 O484 2.126 . S
Co481 H485 2.388 . S
Co481 O486 2.053 . S
Co481 O489 2.047 1_556 S
Co481 O495 2.113 1_556 S
Co481 O506 2.063 . S
Co482 H483 2.388 . S
Co482 O484 2.053 . S
Co482 O486 2.126 . S
Co482 O491 2.063 . S
Co482 O505 2.047 . S
Co482 O511 2.113 . S
H483 Co480 2.400 . S
H483 Co482 2.388 . S
H483 O484 0.760 . S
O484 Co480 2.009 . S
O484 Co481 2.126 . S
O484 Co482 2.053 . S
O484 H483 0.760 . S
H485 Co481 2.388 . S
H485 O486 0.760 . S
H485 Co487 2.400 1_556 S
O486 Co481 2.053 . S
O486 Co482 2.126 . S
O486 H485 0.760 . S
O486 Co487 2.009 1_556 S
Co487 H485 2.400 1_554 S
Co487 O486 2.009 1_554 S
Co487 O488 2.053 . S
Co487 O490 2.094 1_554 S
Co487 O494 2.122 . S
Co487 O508 2.115 . S
Co487 O509 2.315 1_554 S
O488 Co487 2.053 . S
O488 C500 1.259 . S
O489 Co481 2.047 1_554 S
O489 C500 1.257 . S
O490 Co487 2.094 1_556 S
O490 C501 1.253 . S
O491 Co482 2.063 . S
O491 C501 1.268 . S
O492 Co480 2.115 . S
O492 C502 1.281 . S
O493 Co480 2.315 . S
O493 C502 1.252 . S
O494 Co487 2.122 . S
O494 C503 1.272 . S
O495 Co481 2.113 1_554 S
O495 C503 1.245 . S
C496 O504 1.259 . S
C496 O505 1.257 . S
C497 O506 1.268 . S
C497 O507 1.253 . S
C498 O508 1.281 . S
C498 O509 1.252 1_554 S
C499 O510 1.272 . S
C499 O511 1.245 . S
C500 O488 1.259 . S
C500 O489 1.257 . S
C501 O490 1.253 . S
C501 O491 1.268 . S
C502 O492 1.281 . S
C502 O493 1.252 . S
C503 O494 1.272 . S
C503 O495 1.245 . S
O504 Co480 2.053 . S
O504 C496 1.259 . S
O505 Co482 2.047 . S
O505 C496 1.257 . S
O506 Co481 2.063 . S
O506 C497 1.268 . S
O507 Co480 2.094 . S
O507 C497 1.253 . S
O508 Co487 2.115 . S
O508 C498 1.281 . S
O509 Co487 2.315 1_556 S
O509 C498 1.252 1_556 S
O510 Co480 2.122 . S
O510 C499 1.272 . S
O511 Co482 2.113 . S
O511 C499 1.245 . S
Co512 H515 2.400 . S
Co512 O516 2.009 . S
Co512 O524 2.115 . S
Co512 O525 2.315 . S
Co512 O536 2.053 . S
Co512 O539 2.094 . S
Co512 O542 2.122 . S
Co513 O516 2.126 . S
Co513 H517 2.388 . S
Co513 O518 2.053 . S
Co513 O521 2.047 1_556 S
Co513 O527 2.113 1_556 S
Co513 O538 2.063 . S
Co514 H515 2.388 . S
Co514 O516 2.053 . S
Co514 O518 2.126 . S
Co514 O523 2.063 . S
Co514 O537 2.047 . S
Co514 O543 2.113 . S
H515 Co512 2.400 . S
H515 Co514 2.388 . S
H515 O516 0.760 . S
O516 Co512 2.009 . S
O516 Co513 2.126 . S
O516 Co514 2.053 . S
O516 H515 0.760 . S
H517 Co513 2.388 . S
H517 O518 0.760 . S
H517 Co519 2.400 1_556 S
O518 Co513 2.053 . S
O518 Co514 2.126 . S
O518 H517 0.760 . S
O518 Co519 2.009 1_556 S
Co519 H517 2.400 1_554 S
Co519 O518 2.009 1_554 S
Co519 O520 2.053 . S
Co519 O522 2.094 1_554 S
Co519 O526 2.122 . S
Co519 O540 2.115 . S
Co519 O541 2.315 1_554 S
O520 Co519 2.053 . S
O520 C532 1.259 . S
O521 Co513 2.047 1_554 S
O521 C532 1.257 . S
O522 Co519 2.094 1_556 S
O522 C533 1.253 . S
O523 Co514 2.063 . S
O523 C533 1.268 . S
O524 Co512 2.115 . S
O524 C534 1.281 . S
O525 Co512 2.315 . S
O525 C534 1.252 . S
O526 Co519 2.122 . S
O526 C535 1.272 . S
O527 Co513 2.113 1_554 S
O527 C535 1.245 . S
C528 O536 1.259 . S
C528 O537 1.257 . S
C529 O538 1.268 . S
C529 O539 1.253 . S
C530 O540 1.281 . S
C530 O541 1.252 1_554 S
C531 O542 1.272 . S
C531 O543 1.245 . S
C532 O520 1.259 . S
C532 O521 1.257 . S
C533 O522 1.253 . S
C533 O523 1.268 . S
C534 O524 1.281 . S
C534 O525 1.252 . S
C535 O526 1.272 . S
C535 O527 1.245 . S
O536 Co512 2.053 . S
O536 C528 1.259 . S
O537 Co514 2.047 . S
O537 C528 1.257 . S
O538 Co513 2.063 . S
O538 C529 1.268 . S
O539 Co512 2.094 . S
O539 C529 1.253 . S
O540 Co519 2.115 . S
O540 C530 1.281 . S
O541 Co519 2.315 1_556 S
O541 C530 1.252 1_556 S
O542 Co512 2.122 . S
O542 C531 1.272 . S
O543 Co514 2.113 . S
O543 C531 1.245 . S
Co544 H547 2.400 . S
Co544 O548 2.009 . S
Co544 O556 2.115 . S
Co544 O557 2.315 . S
Co544 O568 2.053 . S
Co544 O571 2.094 . S
Co544 O574 2.122 . S
Co545 O548 2.126 . S
Co545 H549 2.388 . S
Co545 O550 2.053 . S
Co545 O553 2.047 1_556 S
Co545 O559 2.113 1_556 S
Co545 O570 2.063 . S
Co546 H547 2.388 . S
Co546 O548 2.053 . S
Co546 O550 2.126 . S
Co546 O555 2.063 . S
Co546 O569 2.047 . S
Co546 O575 2.113 . S
H547 Co544 2.400 . S
H547 Co546 2.388 . S
H547 O548 0.760 . S
O548 Co544 2.009 . S
O548 Co545 2.126 . S
O548 Co546 2.053 . S
O548 H547 0.760 . S
H549 Co545 2.388 . S
H549 O550 0.760 . S
H549 Co551 2.400 1_556 S
O550 Co545 2.053 . S
O550 Co546 2.126 . S
O550 H549 0.760 . S
O550 Co551 2.009 1_556 S
Co551 H549 2.400 1_554 S
Co551 O550 2.009 1_554 S
Co551 O552 2.053 . S
Co551 O554 2.094 1_554 S
Co551 O558 2.122 . S
Co551 O572 2.115 . S
Co551 O573 2.315 1_554 S
O552 Co551 2.053 . S
O552 C564 1.259 . S
O553 Co545 2.047 1_554 S
O553 C564 1.257 . S
O554 Co551 2.094 1_556 S
O554 C565 1.253 . S
O555 Co546 2.063 . S
O555 C565 1.268 . S
O556 Co544 2.115 . S
O556 C566 1.281 . S
O557 Co544 2.315 . S
O557 C566 1.252 . S
O558 Co551 2.122 . S
O558 C567 1.272 . S
O559 Co545 2.113 1_554 S
O559 C567 1.245 . S
C560 O568 1.259 . S
C560 O569 1.257 . S
C561 O570 1.268 . S
C561 O571 1.253 . S
C562 O572 1.281 . S
C562 O573 1.252 1_554 S
C563 O574 1.272 . S
C563 O575 1.245 . S
C564 O552 1.259 . S
C564 O553 1.257 . S
C565 O554 1.253 . S
C565 O555 1.268 . S
C566 O556 1.281 . S
C566 O557 1.252 . S
C567 O558 1.272 . S
C567 O559 1.245 . S
O568 Co544 2.053 . S
O568 C560 1.259 . S
O569 Co546 2.047 . S
O569 C560 1.257 . S
O570 Co545 2.063 . S
O570 C561 1.268 . S
O571 Co544 2.094 . S
O571 C561 1.253 . S
O572 Co551 2.115 . S
O572 C562 1.281 . S
O573 Co551 2.315 1_556 S
O573 C562 1.252 1_556 S
O574 Co544 2.122 . S
O574 C563 1.272 . S
O575 Co546 2.113 . S
O575 C563 1.245 . S
C576 C577 1.363 . S
C576 C582 1.379 . S
C576 N584 1.356 . S
C577 C576 1.363 . S
C577 C583 1.363 . S
C578 C579 1.363 . S
C578 C583 1.379 . S
C578 N585 1.356 . S
C579 C578 1.363 . S
C579 C582 1.363 . S
N580 C582 1.356 . S
N580 H592 0.984 1_545 S
N580 H593 1.003 . S
N581 C583 1.356 . S
N581 H586 0.984 . S
N581 H587 0.985 . S
C582 C576 1.379 . S
C582 C579 1.363 . S
C582 N580 1.356 . S
C583 C577 1.363 . S
C583 C578 1.379 . S
C583 N581 1.356 . S
N584 C576 1.356 . S
N584 H590 0.984 1_455 S
N584 H591 0.984 . S
N585 C578 1.356 . S
N585 H588 0.984 . S
N585 H589 0.985 . S
H586 N581 0.984 . S
H587 N581 0.985 . S
H588 N585 0.984 . S
H589 N585 0.985 . S
H590 N584 0.984 1_655 S
H591 N584 0.984 . S
H592 N580 0.984 1_565 S
H593 N580 1.003 . S
C594 C595 1.363 . S
C594 C600 1.379 . S
C594 N602 1.356 . S
C595 C594 1.363 . S
C595 C601 1.363 . S
C596 C597 1.363 . S
C596 C601 1.379 . S
C596 N603 1.356 1_545 S
C597 C596 1.363 . S
C597 C600 1.363 . S
N598 C600 1.356 . S
N598 H610 0.984 . S
N598 H611 0.985 . S
N599 C601 1.356 . S
N599 H604 0.984 . S
N599 H605 0.985 . S
C600 C594 1.379 . S
C600 C597 1.363 . S
C600 N598 1.356 . S
C601 C595 1.363 . S
C601 C596 1.379 . S
C601 N599 1.356 . S
N602 C594 1.356 . S
N602 H608 0.984 . S
N602 H609 0.984 . S
N603 C596 1.356 1_565 S
N603 H606 0.984 . S
N603 H607 0.985 . S
H604 N599 0.984 . S
H605 N599 0.985 . S
H606 N603 0.984 . S
H607 N603 0.985 . S
H608 N602 0.984 . S
H609 N602 0.984 . S
H610 N598 0.984 . S
H611 N598 0.985 . S
C612 C613 1.363 . S
C612 C618 1.379 1_655 S
C612 N620 1.356 . S
C613 C612 1.363 . S
C613 C619 1.363 . S
C614 C615 1.363 1_655 S
C614 C619 1.379 . S
C614 N621 1.356 . S
C615 C614 1.363 1_455 S
C615 C618 1.363 . S
N616 C618 1.356 . S
N616 H628 0.984 . S
N616 H629 0.985 . S
N617 C619 1.356 . S
N617 H622 0.984 . S
N617 H623 0.985 . S
C618 C612 1.379 1_455 S
C618 C615 1.363 . S
C618 N616 1.356 . S
C619 C613 1.363 . S
C619 C614 1.379 . S
C619 N617 1.356 . S
N620 C612 1.356 . S
N620 H626 0.984 1_655 S
N620 H627 0.984 . S
N621 C614 1.356 . S
N621 H624 0.984 1_655 S
N621 H625 0.985 . S
H622 N617 0.984 . S
H623 N617 0.985 . S
H624 N621 0.984 1_455 S
H625 N621 0.985 . S
H626 N620 0.984 1_455 S
H627 N620 0.984 . S
H628 N616 0.984 . S
H629 N616 0.985 . S
C630 C631 1.363 . S
C630 C636 1.379 . S
C630 N638 1.356 . S
C631 C630 1.363 . S
C631 C637 1.363 . S
C632 C633 1.363 . S
C632 C637 1.379 . S
C632 N639 1.356 . S
C633 C632 1.363 . S
C633 C636 1.363 . S
N634 C636 1.356 1_545 S
N634 H646 0.984 . S
N634 H647 0.985 . S
N635 C637 1.356 . S
N635 H640 0.984 . S
N635 H641 0.985 . S
C636 C630 1.379 . S
C636 C633 1.363 . S
C636 N634 1.356 1_565 S
C637 C631 1.363 . S
C637 C632 1.379 . S
C637 N635 1.356 . S
N638 C630 1.356 . S
N638 H644 0.984 . S
N638 H645 0.984 . S
N639 C632 1.356 . S
N639 H642 0.984 . S
N639 H643 0.985 . S
H640 N635 0.984 . S
H641 N635 0.985 . S
H642 N639 0.984 . S
H643 N639 0.985 . S
H644 N638 0.984 . S
H645 N638 0.984 . S
H646 N634 0.984 . S
H647 N634 0.985 . S
C648 C649 1.363 . S
C648 C654 1.385 . S
C648 N656 1.356 . S
C649 C648 1.363 . S
C649 C655 1.363 1_545 S
C650 C651 1.363 . S
C650 C655 1.379 . S
C650 N657 1.356 1_455 S
C651 C650 1.363 . S
C651 C654 1.359 1_565 S
N652 C654 1.352 1_565 S
N652 H664 0.984 1_565 S
N652 H665 0.985 . S
N653 C655 1.356 1_545 S
N653 H658 0.984 . S
N653 H659 0.985 1_545 S
C654 C648 1.385 . S
C654 C651 1.359 1_545 S
C654 N652 1.352 1_545 S
C655 C649 1.363 1_565 S
C655 C650 1.379 . S
C655 N653 1.356 1_565 S
N656 C648 1.356 . S
N656 H662 0.984 . S
N656 H663 0.984 . S
N657 C650 1.356 1_655 S
N657 H660 0.984 . S
N657 H661 0.985 . S
H658 N653 0.984 . S
H659 N653 0.985 1_565 S
H660 N657 0.984 . S
H661 N657 0.985 . S
H662 N656 0.984 . S
H663 N656 0.984 . S
H664 N652 0.984 1_545 S
H665 N652 0.985 . S
C666 C667 1.363 . S
C666 C672 1.379 . S
C666 N674 1.356 . S
C667 C666 1.363 . S
C667 C673 1.363 . S
C668 C669 1.363 . S
C668 C673 1.379 1_655 S
C668 N675 1.356 . S
C669 C668 1.363 . S
C669 C672 1.363 1_655 S
N670 C672 1.356 . S
N670 H682 0.984 . S
N670 H683 0.985 1_455 S
N671 C673 1.356 . S
N671 H676 0.984 . S
N671 H677 0.985 . S
C672 C666 1.379 . S
C672 C669 1.363 1_455 S
C672 N670 1.356 . S
C673 C667 1.363 . S
C673 C668 1.379 1_455 S
C673 N671 1.356 . S
N674 C666 1.356 . S
N674 H680 0.984 . S
N674 H681 0.984 . S
N675 C668 1.356 . S
N675 H678 0.984 . S
N675 H679 0.985 . S
H676 N671 0.984 . S
H677 N671 0.985 . S
H678 N675 0.984 . S
H679 N675 0.985 . S
H680 N674 0.984 . S
H681 N674 0.984 . S
H682 N670 0.984 . S
H683 N670 0.985 1_655 S
C684 C685 1.363 . S
C684 C690 1.379 . S
C684 N692 1.356 . S
C685 C684 1.363 . S
C685 C691 1.363 . S
C686 C687 1.363 1_556 S
C686 C691 1.379 1_556 S
C686 N693 1.356 . S
C687 C686 1.363 1_554 S
C687 C690 1.363 . S
N688 C690 1.356 . S
N688 H700 0.984 . S
N688 H701 0.985 . S
N689 C691 1.356 . S
N689 H694 0.984 . S
N689 H695 0.985 1_554 S
C690 C684 1.379 . S
C690 C687 1.363 . S
C690 N688 1.356 . S
C691 C685 1.363 . S
C691 C686 1.379 1_554 S
C691 N689 1.356 . S
N692 C684 1.356 . S
N692 H698 0.984 . S
N692 H699 0.984 . S
N693 C686 1.356 . S
N693 H696 0.984 . S
N693 H697 0.985 . S
H694 N689 0.984 . S
H695 N689 0.985 1_556 S
H696 N693 0.984 . S
H697 N693 0.985 . S
H698 N692 0.984 . S
H699 N692 0.984 . S
H700 N688 0.984 . S
H701 N688 0.985 . S
C702 C703 1.363 . S
C702 C708 1.379 1_554 S
C702 N710 1.356 . S
C703 C702 1.363 . S
C703 C709 1.363 . S
C704 C705 1.363 . S
C704 C709 1.379 . S
C704 N711 1.356 . S
C705 C704 1.363 . S
C705 C708 1.363 1_554 S
N706 C708 1.356 . S
N706 H718 0.984 . S
N706 H719 0.985 . S
N707 C709 1.356 . S
N707 H712 0.984 . S
N707 H713 0.985 . S
C708 C702 1.379 1_556 S
C708 C705 1.363 1_556 S
C708 N706 1.356 . S
C709 C703 1.363 . S
C709 C704 1.379 . S
C709 N707 1.356 . S
N710 C702 1.356 . S
N710 H716 0.984 1_554 S
N710 H717 0.984 . S
N711 C704 1.356 . S
N711 H714 0.984 . S
N711 H715 0.985 . S
H712 N707 0.984 . S
H713 N707 0.985 . S
H714 N711 0.984 . S
H715 N711 0.985 . S
H716 N710 0.984 1_556 S
H717 N710 0.984 . S
H718 N706 0.984 . S
H719 N706 0.985 . S
C720 C721 1.363 . S
C720 C726 1.379 . S
C720 N728 1.356 . S
C721 C720 1.363 . S
C721 C727 1.363 . S
C722 C723 1.363 . S
C722 C727 1.379 . S
C722 N729 1.356 . S
C723 C722 1.363 . S
C723 C726 1.363 . S
N724 C726 1.356 . S
N724 H736 0.984 . S
N724 H737 0.985 . S
N725 C727 1.356 1_556 S
N725 H730 0.984 . S
N725 H731 0.985 . S
C726 C720 1.379 . S
C726 C723 1.363 . S
C726 N724 1.356 . S
C727 C721 1.363 . S
C727 C722 1.379 . S
C727 N725 1.356 1_554 S
N728 C720 1.356 . S
N728 H734 0.984 . S
N728 H735 0.984 1_554 S
N729 C722 1.356 . S
N729 H732 0.984 . S
N729 H733 0.985 . S
H730 N725 0.984 . S
H731 N725 0.985 . S
H732 N729 0.984 . S
H733 N729 0.985 . S
H734 N728 0.984 . S
H735 N728 0.984 1_556 S
H736 N724 0.984 . S
H737 N724 0.985 . S
C738 C739 1.363 . S
C738 C744 1.379 . S
C738 N746 1.356 . S
C739 C738 1.363 . S
C739 C745 1.363 . S
C740 C741 1.363 . S
C740 C745 1.379 . S
C740 N747 1.356 . S
C741 C740 1.363 . S
C741 C744 1.363 . S
N742 C744 1.356 . S
N742 H754 0.984 . S
N742 H755 0.985 . S
N743 C745 1.356 . S
N743 H748 0.984 . S
N743 H749 0.985 . S
C744 C738 1.379 . S
C744 C741 1.363 . S
C744 N742 1.356 . S
C745 C739 1.363 . S
C745 C740 1.379 . S
C745 N743 1.356 . S
N746 C738 1.356 . S
N746 H752 0.984 . S
N746 H753 0.984 . S
N747 C740 1.356 . S
N747 H750 0.984 . S
N747 H751 0.985 . S
H748 N743 0.984 . S
H749 N743 0.985 . S
H750 N747 0.984 . S
H751 N747 0.985 . S
H752 N746 0.984 . S
H753 N746 0.984 . S
H754 N742 0.984 . S
H755 N742 0.985 . S
C756 C757 1.363 . S
C756 C762 1.379 . S
C756 N764 1.356 . S
C757 C756 1.363 . S
C757 C763 1.363 . S
C758 C759 1.363 . S
C758 C763 1.379 . S
C758 N765 1.356 . S
C759 C758 1.363 . S
C759 C762 1.363 . S
N760 C762 1.356 . S
N760 H772 0.984 . S
N760 H773 0.985 . S
N761 C763 1.356 . S
N761 H766 0.984 . S
N761 H767 0.985 . S
C762 C756 1.379 . S
C762 C759 1.363 . S
C762 N760 1.356 . S
C763 C757 1.363 . S
C763 C758 1.379 . S
C763 N761 1.356 . S
N764 C756 1.356 . S
N764 H770 0.984 . S
N764 H771 0.984 . S
N765 C758 1.356 . S
N765 H768 0.984 . S
N765 H769 0.985 . S
H766 N761 0.984 . S
H767 N761 0.985 . S
H768 N765 0.984 . S
H769 N765 0.985 . S
H770 N764 0.984 . S
H771 N764 0.984 . S
H772 N760 0.984 . S
H773 N760 0.985 . S
C774 C775 1.363 . S
C774 C780 1.379 . S
C774 N782 1.356 . S
C775 C774 1.363 . S
C775 C781 1.363 . S
C776 C777 1.363 . S
C776 C781 1.379 . S
C776 N783 1.356 . S
C777 C776 1.363 . S
C777 C780 1.363 . S
N778 C780 1.356 . S
N778 H790 0.984 . S
N778 H791 0.985 . S
N779 C781 1.356 . S
N779 H784 0.984 . S
N779 H785 0.985 . S
C780 C774 1.379 . S
C780 C777 1.363 . S
C780 N778 1.356 . S
C781 C775 1.363 . S
C781 C776 1.379 . S
C781 N779 1.356 . S
N782 C774 1.356 . S
N782 H788 0.984 . S
N782 H789 0.984 . S
N783 C776 1.356 . S
N783 H786 0.984 . S
N783 H787 0.985 . S
H784 N779 0.984 . S
H785 N779 0.985 . S
H786 N783 0.984 . S
H787 N783 0.985 . S
H788 N782 0.984 . S
H789 N782 0.984 . S
H790 N778 0.984 . S
H791 N778 0.985 . S
C792 C793 1.363 . S
C792 C798 1.379 . S
C792 N800 1.356 . S
C793 C792 1.363 . S
C793 C799 1.363 . S
C794 C795 1.363 . S
C794 C799 1.379 . S
C794 N801 1.356 . S
C795 C794 1.363 . S
C795 C798 1.363 . S
N796 C798 1.356 . S
N796 H808 0.984 . S
N796 H809 0.985 . S
N797 C799 1.356 . S
N797 H802 0.984 . S
N797 H803 0.985 . S
C798 C792 1.379 . S
C798 C795 1.363 . S
C798 N796 1.356 . S
C799 C793 1.363 . S
C799 C794 1.379 . S
C799 N797 1.356 . S
N800 C792 1.356 . S
N800 H806 0.984 . S
N800 H807 0.984 . S
N801 C794 1.356 . S
N801 H804 0.984 . S
N801 H805 0.985 . S
H802 N797 0.984 . S
H803 N797 0.985 . S
H804 N801 0.984 . S
H805 N801 0.985 . S
H806 N800 0.984 . S
H807 N800 0.984 . S
H808 N796 0.984 . S
H809 N796 0.985 . S
C810 C811 1.363 . S
C810 C816 1.379 . S
C810 N818 1.356 . S
C811 C810 1.363 . S
C811 C817 1.363 . S
C812 C813 1.363 . S
C812 C817 1.379 . S
C812 N819 1.356 . S
C813 C812 1.363 . S
C813 C816 1.363 . S
N814 C816 1.356 . S
N814 H826 0.984 . S
N814 H827 0.985 . S
N815 C817 1.356 . S
N815 H820 0.984 . S
N815 H821 0.985 . S
C816 C810 1.379 . S
C816 C813 1.363 . S
C816 N814 1.356 . S
C817 C811 1.363 . S
C817 C812 1.379 . S
C817 N815 1.356 . S
N818 C810 1.356 . S
N818 H824 0.984 . S
N818 H825 0.984 . S
N819 C812 1.356 . S
N819 H822 0.984 . S
N819 H823 0.985 . S
H820 N815 0.984 . S
H821 N815 0.985 . S
H822 N819 0.984 . S
H823 N819 0.985 . S
H824 N818 0.984 . S
H825 N818 0.984 . S
H826 N814 0.984 . S
H827 N814 0.985 . S
C828 C829 1.363 . S
C828 C834 1.379 . S
C828 N836 1.356 . S
C829 C828 1.363 . S
C829 C835 1.363 . S
C830 C831 1.363 . S
C830 C835 1.379 . S
C830 N837 1.356 . S
C831 C830 1.363 . S
C831 C834 1.363 . S
N832 C834 1.356 . S
N832 H844 0.984 . S
N832 H845 0.985 . S
N833 C835 1.356 . S
N833 H838 0.984 . S
N833 H839 0.985 . S
C834 C828 1.379 . S
C834 C831 1.363 . S
C834 N832 1.356 . S
C835 C829 1.363 . S
C835 C830 1.379 . S
C835 N833 1.356 . S
N836 C828 1.356 . S
N836 H842 0.984 . S
N836 H843 0.984 . S
N837 C830 1.356 . S
N837 H840 0.984 . S
N837 H841 0.985 . S
H838 N833 0.984 . S
H839 N833 0.985 . S
H840 N837 0.984 . S
H841 N837 0.985 . S
H842 N836 0.984 . S
H843 N836 0.984 . S
H844 N832 0.984 . S
H845 N832 0.985 . S
C846 C847 1.363 . S
C846 C852 1.379 . S
C846 N854 1.356 . S
C847 C846 1.363 . S
C847 C853 1.363 1_556 S
C848 C849 1.363 . S
C848 C853 1.379 1_556 S
C848 N855 1.356 . S
C849 C848 1.363 . S
C849 C852 1.363 . S
N850 C852 1.356 . S
N850 H862 0.984 . S
N850 H863 0.985 . S
N851 C853 1.356 . S
N851 H856 0.984 . S
N851 H857 0.985 . S
C852 C846 1.379 . S
C852 C849 1.363 . S
C852 N850 1.356 . S
C853 C847 1.363 1_554 S
C853 C848 1.379 1_554 S
C853 N851 1.356 . S
N854 C846 1.356 . S
N854 H860 0.984 . S
N854 H861 0.984 . S
N855 C848 1.356 . S
N855 H858 0.984 . S
N855 H859 0.998 . S
H856 N851 0.984 . S
H857 N851 0.985 . S
H858 N855 0.984 . S
H859 N855 0.998 . S
H860 N854 0.984 . S
H861 N854 0.984 . S
H862 N850 0.984 . S
H863 N850 0.985 . S
C864 C865 1.363 . S
C864 C870 1.379 . S
C864 N872 1.356 . S
C865 C864 1.363 . S
C865 C871 1.363 . S
C866 C867 1.363 . S
C866 C871 1.379 . S
C866 N873 1.356 1_556 S
C867 C866 1.363 . S
C867 C870 1.363 . S
N868 C870 1.356 . S
N868 H880 0.984 . S
N868 H881 0.985 . S
N869 C871 1.356 . S
N869 H874 0.984 . S
N869 H875 0.985 . S
C870 C864 1.379 . S
C870 C867 1.363 . S
C870 N868 1.356 . S
C871 C865 1.363 . S
C871 C866 1.379 . S
C871 N869 1.356 . S
N872 C864 1.356 . S
N872 H878 0.984 . S
N872 H879 0.984 . S
N873 C866 1.356 1_554 S
N873 H876 0.984 . S
N873 H877 0.985 . S
H874 N869 0.984 . S
H875 N869 0.985 . S
H876 N873 0.984 . S
H877 N873 0.985 . S
H878 N872 0.984 . S
H879 N872 0.984 . S
H880 N868 0.984 . S
H881 N868 0.985 . S
C882 C883 1.363 . S
C882 C888 1.379 . S
C882 N890 1.356 . S
C883 C882 1.363 . S
C883 C889 1.363 . S
C884 C885 1.363 . S
C884 C889 1.379 . S
C884 N891 1.356 1_556 S
C885 C884 1.363 . S
C885 C888 1.363 . S
N886 C888 1.356 . S
N886 H898 0.984 . S
N886 H899 0.985 . S
N887 C889 1.356 . S
N887 H892 0.984 . S
N887 H893 0.985 . S
C888 C882 1.379 . S
C888 C885 1.363 . S
C888 N886 1.356 . S
C889 C883 1.363 . S
C889 C884 1.379 . S
C889 N887 1.356 . S
N890 C882 1.356 . S
N890 H896 0.984 . S
N890 H897 0.984 . S
N891 C884 1.356 1_554 S
N891 H894 0.984 . S
N891 H895 0.985 . S
H892 N887 0.984 . S
H893 N887 0.985 . S
H894 N891 0.984 . S
H895 N891 0.985 . S
H896 N890 0.984 . S
H897 N890 0.984 . S
H898 N886 0.984 . S
H899 N886 0.985 . S
C900 C901 1.363 . S
C900 C906 1.379 . S
C900 N908 1.356 . S
C901 C900 1.363 . S
C901 C907 1.363 . S
C902 C903 1.363 . S
C902 C907 1.379 . S
C902 N909 1.356 . S
C903 C902 1.363 . S
C903 C906 1.363 . S
N904 C906 1.356 . S
N904 H916 0.984 . S
N904 H917 0.985 . S
N905 C907 1.356 . S
N905 H910 0.984 . S
N905 H911 0.985 . S
C906 C900 1.379 . S
C906 C903 1.363 . S
C906 N904 1.356 . S
C907 C901 1.363 . S
C907 C902 1.379 . S
C907 N905 1.356 . S
N908 C900 1.356 . S
N908 H914 0.984 . S
N908 H915 0.984 . S
N909 C902 1.356 . S
N909 H912 0.984 . S
N909 H913 0.985 . S
H910 N905 0.984 . S
H911 N905 0.985 . S
H912 N909 0.984 . S
H913 N909 0.985 . S
H914 N908 0.984 . S
H915 N908 0.984 . S
H916 N904 0.984 . S
H917 N904 0.985 . S
C918 C919 1.363 . S
C918 C924 1.379 . S
C918 N926 1.356 . S
C919 C918 1.363 . S
C919 C925 1.363 . S
C920 C921 1.363 . S
C920 C925 1.379 . S
C920 N927 1.356 . S
C921 C920 1.363 . S
C921 C924 1.363 . S
N922 C924 1.356 . S
N922 H934 0.984 . S
N922 H935 0.985 . S
N923 C925 1.356 . S
N923 H928 0.984 . S
N923 H929 0.985 . S
C924 C918 1.379 . S
C924 C921 1.363 . S
C924 N922 1.356 . S
C925 C919 1.363 . S
C925 C920 1.379 . S
C925 N923 1.356 . S
N926 C918 1.356 . S
N926 H932 0.984 . S
N926 H933 0.984 . S
N927 C920 1.356 . S
N927 H930 0.984 . S
N927 H931 0.985 . S
H928 N923 0.984 . S
H929 N923 0.985 . S
H930 N927 0.984 . S
H931 N927 0.985 . S
H932 N926 0.984 . S
H933 N926 0.984 . S
H934 N922 0.984 . S
H935 N922 0.985 . S
C936 C937 1.363 . S
C936 C942 1.379 . S
C936 N944 1.356 . S
C937 C936 1.363 . S
C937 C943 1.363 . S
C938 C939 1.363 . S
C938 C943 1.379 . S
C938 N945 1.356 . S
C939 C938 1.363 . S
C939 C942 1.363 . S
N940 C942 1.356 . S
N940 H952 0.984 . S
N940 H953 0.985 . S
N941 C943 1.356 . S
N941 H946 0.984 . S
N941 H947 0.985 . S
C942 C936 1.379 . S
C942 C939 1.363 . S
C942 N940 1.356 . S
C943 C937 1.363 . S
C943 C938 1.379 . S
C943 N941 1.356 . S
N944 C936 1.356 . S
N944 H950 0.984 . S
N944 H951 0.984 . S
N945 C938 1.356 . S
N945 H948 0.984 . S
N945 H949 0.985 . S
H946 N941 0.984 . S
H947 N941 0.985 . S
H948 N945 0.984 . S
H949 N945 0.985 . S
H950 N944 0.984 . S
H951 N944 0.984 . S
H952 N940 0.984 . S
H953 N940 0.985 . S
C954 C955 1.363 . S
C954 C960 1.379 . S
C954 N962 1.356 . S
C955 C954 1.363 . S
C955 C961 1.363 1_556 S
C956 C957 1.363 . S
C956 C961 1.379 . S
C956 N963 1.356 . S
C957 C956 1.363 . S
C957 C960 1.363 1_554 S
N958 C960 1.356 . S
N958 H970 0.984 . S
N958 H971 0.985 1_556 S
N959 C961 1.356 . S
N959 H964 0.984 1_554 S
N959 H965 0.985 . S
C960 C954 1.379 . S
C960 C957 1.363 1_556 S
C960 N958 1.356 . S
C961 C955 1.363 1_554 S
C961 C956 1.379 . S
C961 N959 1.356 . S
N962 C954 1.356 . S
N962 H968 0.984 . S
N962 H969 0.984 . S
N963 C956 1.356 . S
N963 H966 0.984 . S
N963 H967 0.985 . S
H964 N959 0.984 1_556 S
H965 N959 0.985 . S
H966 N963 0.984 . S
H967 N963 0.985 . S
H968 N962 0.984 . S
H969 N962 0.984 . S
H970 N958 0.984 . S
H971 N958 0.985 1_554 S
C972 C973 1.363 1_556 S
C972 C978 1.379 . S
C972 N980 1.356 . S
C973 C972 1.363 1_554 S
C973 C979 1.363 . S
C974 C975 1.363 1_554 S
C974 C979 1.379 . S
C974 N981 1.356 . S
C975 C974 1.363 1_556 S
C975 C978 1.363 . S
N976 C978 1.356 . S
N976 H988 0.984 . S
N976 H989 0.985 . S
N977 C979 1.356 . S
N977 H982 0.984 . S
N977 H983 0.985 . S
C978 C972 1.379 . S
C978 C975 1.363 . S
C978 N976 1.356 . S
C979 C973 1.363 . S
C979 C974 1.379 . S
C979 N977 1.356 . S
N980 C972 1.356 . S
N980 H986 0.984 . S
N980 H987 0.984 1_556 S
N981 C974 1.356 . S
N981 H984 0.984 1_554 S
N981 H985 0.985 . S
H982 N977 0.984 . S
H983 N977 0.985 . S
H984 N981 0.984 1_556 S
H985 N981 0.985 . S
H986 N980 0.984 . S
H987 N980 0.984 1_554 S
H988 N976 0.984 . S
H989 N976 0.985 . S
C990 C991 1.363 . S
C990 C996 1.379 . S
C990 N998 1.356 . S
C991 C990 1.363 . S
C991 C997 1.363 1_556 S
C992 C993 1.363 . S
C992 C997 1.379 . S
C992 N999 1.356 . S
C993 C992 1.363 . S
C993 C996 1.363 1_554 S
N994 C996 1.356 . S
N994 H1006 0.984 . S
N994 H1007 0.985 . S
N995 C997 1.356 . S
N995 H1000 0.984 1_554 S
N995 H1001 0.985 . S
C996 C990 1.379 . S
C996 C993 1.363 1_556 S
C996 N994 1.356 . S
C997 C991 1.363 1_554 S
C997 C992 1.379 . S
C997 N995 1.356 . S
N998 C990 1.356 . S
N998 H1004 0.984 . S
N998 H1005 0.984 . S
N999 C992 1.356 . S
N999 H1002 0.984 . S
N999 H1003 0.985 . S
H1000 N995 0.984 1_556 S
H1001 N995 0.985 . S
H1002 N999 0.984 . S
H1003 N999 0.985 . S
H1004 N998 0.984 . S
H1005 N998 0.984 . S
H1006 N994 0.984 . S
H1007 N994 0.985 . S
C1008 C1009 1.363 . S
C1008 C1014 1.379 . S
C1008 N1016 1.356 . S
C1009 C1008 1.363 . S
C1009 C1015 1.363 . S
C1010 C1011 1.363 . S
C1010 C1015 1.379 . S
C1010 N1017 1.356 . S
C1011 C1010 1.363 . S
C1011 C1014 1.363 . S
N1012 C1014 1.356 . S
N1012 H1024 0.984 . S
N1012 H1025 0.985 . S
N1013 C1015 1.356 . S
N1013 H1018 0.984 . S
N1013 H1019 0.985 . S
C1014 C1008 1.379 . S
C1014 C1011 1.363 . S
C1014 N1012 1.356 . S
C1015 C1009 1.363 . S
C1015 C1010 1.379 . S
C1015 N1013 1.356 . S
N1016 C1008 1.356 . S
N1016 H1022 0.984 . S
N1016 H1023 0.984 . S
N1017 C1010 1.356 . S
N1017 H1020 0.984 . S
N1017 H1021 0.985 . S
H1018 N1013 0.984 . S
H1019 N1013 0.985 . S
H1020 N1017 0.984 . S
H1021 N1017 0.985 . S
H1022 N1016 0.984 . S
H1023 N1016 0.984 . S
H1024 N1012 0.984 . S
H1025 N1012 0.985 . S
C1026 C1027 1.363 . S
C1026 C1032 1.379 . S
C1026 N1034 1.356 . S
C1027 C1026 1.363 . S
C1027 C1033 1.363 . S
C1028 C1029 1.363 . S
C1028 C1033 1.379 . S
C1028 N1035 1.356 . S
C1029 C1028 1.363 . S
C1029 C1032 1.363 . S
N1030 C1032 1.356 . S
N1030 H1042 0.984 . S
N1030 H1043 0.985 . S
N1031 C1033 1.356 . S
N1031 H1036 0.984 . S
N1031 H1037 0.985 . S
C1032 C1026 1.379 . S
C1032 C1029 1.363 . S
C1032 N1030 1.356 . S
C1033 C1027 1.363 . S
C1033 C1028 1.379 . S
C1033 N1031 1.356 . S
N1034 C1026 1.356 . S
N1034 H1040 0.984 . S
N1034 H1041 0.984 . S
N1035 C1028 1.356 . S
N1035 H1038 0.984 . S
N1035 H1039 0.985 . S
H1036 N1031 0.984 . S
H1037 N1031 0.985 . S
H1038 N1035 0.984 . S
H1039 N1035 0.985 . S
H1040 N1034 0.984 . S
H1041 N1034 0.984 . S
H1042 N1030 0.984 . S
H1043 N1030 0.985 . S
C1044 C1045 1.363 . S
C1044 C1050 1.379 . S
C1044 N1052 1.356 . S
C1045 C1044 1.363 . S
C1045 C1051 1.363 . S
C1046 C1047 1.363 . S
C1046 C1051 1.379 . S
C1046 N1053 1.356 . S
C1047 C1046 1.363 . S
C1047 C1050 1.363 . S
N1048 C1050 1.356 . S
N1048 H1060 0.984 . S
N1048 H1061 0.985 . S
N1049 C1051 1.356 . S
N1049 H1054 0.984 . S
N1049 H1055 0.985 . S
C1050 C1044 1.379 . S
C1050 C1047 1.363 . S
C1050 N1048 1.356 . S
C1051 C1045 1.363 . S
C1051 C1046 1.379 . S
C1051 N1049 1.356 . S
N1052 C1044 1.356 . S
N1052 H1058 0.984 . S
N1052 H1059 0.984 . S
N1053 C1046 1.356 . S
N1053 H1056 0.984 . S
N1053 H1057 0.985 . S
H1054 N1049 0.984 . S
H1055 N1049 0.985 . S
H1056 N1053 0.984 . S
H1057 N1053 0.985 . S
H1058 N1052 0.984 . S
H1059 N1052 0.984 . S
H1060 N1048 0.984 . S
H1061 N1048 0.985 . S
C1062 C1063 1.367 . S
C1062 C1068 1.376 1_554 S
C1062 N1070 1.357 . S
C1063 C1062 1.367 . S
C1063 C1069 1.363 . S
C1064 C1065 1.363 1_554 S
C1064 C1069 1.379 . S
C1064 N1071 1.356 . S
C1065 C1064 1.363 1_556 S
C1065 C1068 1.363 . S
N1066 C1068 1.356 . S
N1066 H1078 0.984 . S
N1066 H1079 0.985 . S
N1067 C1069 1.356 . S
N1067 H1072 0.984 . S
N1067 H1073 0.985 . S
C1068 C1062 1.376 1_556 S
C1068 C1065 1.363 . S
C1068 N1066 1.356 . S
C1069 C1063 1.363 . S
C1069 C1064 1.379 . S
C1069 N1067 1.356 . S
N1070 C1062 1.357 . S
N1070 H1076 0.984 1_554 S
N1070 H1077 0.984 . S
N1071 C1064 1.356 . S
N1071 H1074 0.984 1_554 S
N1071 H1075 0.985 . S
H1072 N1067 0.984 . S
H1073 N1067 0.985 . S
H1074 N1071 0.984 1_556 S
H1075 N1071 0.985 . S
H1076 N1070 0.984 1_556 S
H1077 N1070 0.984 . S
H1078 N1066 0.984 . S
H1079 N1066 0.985 . S
C1080 C1081 1.363 1_556 S
C1080 C1086 1.379 . S
C1080 N1088 1.356 . S
C1081 C1080 1.363 1_554 S
C1081 C1087 1.363 . S
C1082 C1083 1.363 1_554 S
C1082 C1087 1.379 . S
C1082 N1089 1.356 . S
C1083 C1082 1.363 1_556 S
C1083 C1086 1.363 . S
N1084 C1086 1.356 . S
N1084 H1096 0.984 . S
N1084 H1097 0.985 . S
N1085 C1087 1.356 . S
N1085 H1090 0.984 . S
N1085 H1091 0.985 . S
C1086 C1080 1.379 . S
C1086 C1083 1.363 . S
C1086 N1084 1.356 . S
C1087 C1081 1.363 . S
C1087 C1082 1.379 . S
C1087 N1085 1.356 . S
N1088 C1080 1.356 . S
N1088 H1094 0.984 . S
N1088 H1095 0.984 1_556 S
N1089 C1082 1.356 . S
N1089 H1092 0.984 1_554 S
N1089 H1093 0.985 . S
H1090 N1085 0.984 . S
H1091 N1085 0.985 . S
H1092 N1089 0.984 1_556 S
H1093 N1089 0.985 . S
H1094 N1088 0.984 . S
H1095 N1088 0.984 1_554 S
H1096 N1084 0.984 . S
H1097 N1084 0.985 . S
C1098 C1099 1.363 1_554 S
C1098 C1104 1.379 . S
C1098 N1106 1.356 . S
C1099 C1098 1.363 1_556 S
C1099 C1105 1.363 . S
C1100 C1101 1.363 1_556 S
C1100 C1105 1.379 . S
C1100 N1107 1.356 . S
C1101 C1100 1.363 1_554 S
C1101 C1104 1.363 . S
N1102 C1104 1.356 . S
N1102 H1114 0.984 . S
N1102 H1115 0.985 . S
N1103 C1105 1.356 . S
N1103 H1108 0.984 . S
N1103 H1109 0.985 . S
C1104 C1098 1.379 . S
C1104 C1101 1.363 . S
C1104 N1102 1.356 . S
C1105 C1099 1.363 . S
C1105 C1100 1.379 . S
C1105 N1103 1.356 . S
N1106 C1098 1.356 . S
N1106 H1112 0.984 . S
N1106 H1113 0.984 1_554 S
N1107 C1100 1.356 . S
N1107 H1110 0.984 1_556 S
N1107 H1111 0.985 . S
H1108 N1103 0.984 . S
H1109 N1103 0.985 . S
H1110 N1107 0.984 1_554 S
H1111 N1107 0.985 . S
H1112 N1106 0.984 . S
H1113 N1106 0.984 1_556 S
H1114 N1102 0.984 . S
H1115 N1102 0.985 . S
C1116 C1117 1.363 . S
C1116 C1122 1.379 . S
C1116 N1124 1.356 . S
C1117 C1116 1.363 . S
C1117 C1123 1.363 . S
C1118 C1119 1.363 . S
C1118 C1123 1.379 . S
C1118 N1125 1.356 . S
C1119 C1118 1.363 . S
C1119 C1122 1.363 . S
N1120 C1122 1.356 . S
N1120 H1132 0.984 . S
N1120 H1133 0.985 . S
N1121 C1123 1.356 . S
N1121 H1126 0.984 . S
N1121 H1127 0.985 . S
C1122 C1116 1.379 . S
C1122 C1119 1.363 . S
C1122 N1120 1.356 . S
C1123 C1117 1.363 . S
C1123 C1118 1.379 . S
C1123 N1121 1.356 . S
N1124 C1116 1.356 . S
N1124 H1130 0.984 . S
N1124 H1131 0.984 . S
N1125 C1118 1.356 . S
N1125 H1128 0.984 . S
N1125 H1129 0.985 . S
H1126 N1121 0.984 . S
H1127 N1121 0.985 . S
H1128 N1125 0.984 . S
H1129 N1125 0.985 . S
H1130 N1124 0.984 . S
H1131 N1124 0.984 . S
H1132 N1120 0.984 . S
H1133 N1120 0.985 . S
C1134 C1135 1.363 . S
C1134 C1140 1.379 . S
C1134 N1142 1.356 . S
C1135 C1134 1.363 . S
C1135 C1141 1.363 . S
C1136 C1137 1.363 . S
C1136 C1141 1.379 . S
C1136 N1143 1.356 . S
C1137 C1136 1.363 . S
C1137 C1140 1.363 . S
N1138 C1140 1.356 . S
N1138 H1150 0.984 . S
N1138 H1151 0.985 . S
N1139 C1141 1.356 . S
N1139 H1144 0.984 . S
N1139 H1145 0.985 . S
C1140 C1134 1.379 . S
C1140 C1137 1.363 . S
C1140 N1138 1.356 . S
C1141 C1135 1.363 . S
C1141 C1136 1.379 . S
C1141 N1139 1.356 . S
N1142 C1134 1.356 . S
N1142 H1148 0.984 . S
N1142 H1149 0.984 . S
N1143 C1136 1.356 . S
N1143 H1146 0.984 . S
N1143 H1147 0.985 . S
H1144 N1139 0.984 . S
H1145 N1139 0.985 . S
H1146 N1143 0.984 . S
H1147 N1143 0.985 . S
H1148 N1142 0.984 . S
H1149 N1142 0.984 . S
H1150 N1138 0.984 . S
H1151 N1138 0.985 . S
C1152 C1153 1.363 . S
C1152 C1158 1.379 . S
C1152 N1160 1.356 . S
C1153 C1152 1.363 . S
C1153 C1159 1.363 . S
C1154 C1155 1.363 . S
C1154 C1159 1.379 . S
C1154 N1161 1.356 . S
C1155 C1154 1.363 . S
C1155 C1158 1.363 . S
N1156 C1158 1.356 . S
N1156 H1168 0.984 . S
N1156 H1169 0.985 . S
N1157 C1159 1.356 . S
N1157 H1162 0.984 . S
N1157 H1163 0.985 . S
C1158 C1152 1.379 . S
C1158 C1155 1.363 . S
C1158 N1156 1.356 . S
C1159 C1153 1.363 . S
C1159 C1154 1.379 . S
C1159 N1157 1.356 . S
N1160 C1152 1.356 . S
N1160 H1166 0.984 . S
N1160 H1167 0.984 . S
N1161 C1154 1.356 . S
N1161 H1164 0.984 . S
N1161 H1165 0.985 . S
H1162 N1157 0.984 . S
H1163 N1157 0.985 . S
H1164 N1161 0.984 . S
H1165 N1161 0.985 . S
H1166 N1160 0.984 . S
H1167 N1160 0.984 . S
H1168 N1156 0.984 . S
H1169 N1156 0.985 . S
C1170 C1171 1.363 . S
C1170 C1176 1.379 . S
C1170 N1178 1.356 . S
C1171 C1170 1.363 . S
C1171 C1177 1.363 . S
C1172 C1173 1.363 . S
C1172 C1177 1.379 . S
C1172 N1179 1.356 . S
C1173 C1172 1.363 . S
C1173 C1176 1.363 . S
N1174 C1176 1.356 . S
N1174 H1186 0.984 . S
N1174 H1187 0.985 . S
N1175 C1177 1.356 . S
N1175 H1180 0.984 . S
N1175 H1181 0.985 . S
C1176 C1170 1.379 . S
C1176 C1173 1.363 . S
C1176 N1174 1.356 . S
C1177 C1171 1.363 . S
C1177 C1172 1.379 . S
C1177 N1175 1.356 . S
N1178 C1170 1.356 . S
N1178 H1184 0.984 . S
N1178 H1185 0.984 . S
N1179 C1172 1.356 . S
N1179 H1182 0.984 . S
N1179 H1183 0.985 . S
H1180 N1175 0.984 . S
H1181 N1175 0.985 . S
H1182 N1179 0.984 . S
H1183 N1179 0.985 . S
H1184 N1178 0.984 . S
H1185 N1178 0.984 . S
H1186 N1174 0.984 . S
H1187 N1174 0.985 . S
C1188 C1189 1.363 . S
C1188 C1194 1.379 . S
C1188 N1196 1.356 . S
C1189 C1188 1.363 . S
C1189 C1195 1.363 . S
C1190 C1191 1.363 . S
C1190 C1195 1.379 . S
C1190 N1197 1.356 . S
C1191 C1190 1.363 . S
C1191 C1194 1.363 . S
N1192 C1194 1.356 . S
N1192 H1204 0.984 . S
N1192 H1205 0.985 . S
N1193 C1195 1.356 . S
N1193 H1198 0.984 . S
N1193 H1199 0.985 . S
C1194 C1188 1.379 . S
C1194 C1191 1.363 . S
C1194 N1192 1.356 . S
C1195 C1189 1.363 . S
C1195 C1190 1.379 . S
C1195 N1193 1.356 . S
N1196 C1188 1.356 . S
N1196 H1202 0.984 . S
N1196 H1203 0.984 . S
N1197 C1190 1.356 . S
N1197 H1200 0.984 . S
N1197 H1201 0.985 . S
H1198 N1193 0.984 . S
H1199 N1193 0.985 . S
H1200 N1197 0.984 . S
H1201 N1197 0.985 . S
H1202 N1196 0.984 . S
H1203 N1196 0.984 . S
H1204 N1192 0.984 . S
H1205 N1192 0.985 . S
C1206 C1207 1.363 . S
C1206 C1212 1.379 . S
C1206 N1214 1.356 . S
C1207 C1206 1.363 . S
C1207 C1213 1.363 . S
C1208 C1209 1.363 . S
C1208 C1213 1.379 . S
C1208 N1215 1.356 . S
C1209 C1208 1.363 . S
C1209 C1212 1.363 . S
N1210 C1212 1.356 . S
N1210 H1222 0.984 . S
N1210 H1223 0.985 . S
N1211 C1213 1.356 . S
N1211 H1216 0.984 . S
N1211 H1217 0.985 . S
C1212 C1206 1.379 . S
C1212 C1209 1.363 . S
C1212 N1210 1.356 . S
C1213 C1207 1.363 . S
C1213 C1208 1.379 . S
C1213 N1211 1.356 . S
N1214 C1206 1.356 . S
N1214 H1220 0.984 . S
N1214 H1221 0.984 . S
N1215 C1208 1.356 . S
N1215 H1218 0.984 . S
N1215 H1219 0.985 . S
H1216 N1211 0.984 . S
H1217 N1211 0.985 . S
H1218 N1215 0.984 . S
H1219 N1215 0.985 . S
H1220 N1214 0.984 . S
H1221 N1214 0.984 . S
H1222 N1210 0.984 . S
H1223 N1210 0.985 . S
C1224 C1225 1.363 . S
C1224 C1230 1.379 . S
C1224 N1232 1.356 . S
C1225 C1224 1.363 . S
C1225 C1231 1.363 . S
C1226 C1227 1.363 . S
C1226 C1231 1.379 . S
C1226 N1233 1.356 . S
C1227 C1226 1.363 . S
C1227 C1230 1.363 . S
N1228 C1230 1.356 . S
N1228 H1240 0.984 . S
N1228 H1241 0.985 . S
N1229 C1231 1.356 . S
N1229 H1234 0.984 . S
N1229 H1235 0.985 . S
C1230 C1224 1.379 . S
C1230 C1227 1.363 . S
C1230 N1228 1.356 . S
C1231 C1225 1.363 . S
C1231 C1226 1.379 . S
C1231 N1229 1.356 . S
N1232 C1224 1.356 . S
N1232 H1238 0.984 . S
N1232 H1239 0.984 . S
N1233 C1226 1.356 . S
N1233 H1236 0.984 . S
N1233 H1237 0.985 . S
H1234 N1229 0.984 . S
H1235 N1229 0.985 . S
H1236 N1233 0.984 . S
H1237 N1233 0.985 . S
H1238 N1232 0.984 . S
H1239 N1232 0.984 . S
H1240 N1228 0.984 . S
H1241 N1228 0.985 . S
C1242 C1243 1.363 . S
C1242 C1248 1.379 . S
C1242 N1250 1.356 . S
C1243 C1242 1.363 . S
C1243 C1249 1.363 . S
C1244 C1245 1.363 . S
C1244 C1249 1.379 . S
C1244 N1251 1.356 . S
C1245 C1244 1.363 . S
C1245 C1248 1.363 . S
N1246 C1248 1.356 . S
N1246 H1258 0.984 . S
N1246 H1259 0.985 . S
N1247 C1249 1.356 . S
N1247 H1252 0.984 . S
N1247 H1253 0.985 . S
C1248 C1242 1.379 . S
C1248 C1245 1.363 . S
C1248 N1246 1.356 . S
C1249 C1243 1.363 . S
C1249 C1244 1.379 . S
C1249 N1247 1.356 . S
N1250 C1242 1.356 . S
N1250 H1256 0.984 . S
N1250 H1257 0.984 . S
N1251 C1244 1.356 . S
N1251 H1254 0.984 . S
N1251 H1255 0.985 . S
H1252 N1247 0.984 . S
H1253 N1247 0.985 . S
H1254 N1251 0.984 . S
H1255 N1251 0.985 . S
H1256 N1250 0.984 . S
H1257 N1250 0.984 . S
H1258 N1246 0.984 . S
H1259 N1246 0.985 . S
C1260 C1261 1.363 . S
C1260 C1266 1.379 . S
C1260 N1268 1.356 . S
C1261 C1260 1.363 . S
C1261 C1267 1.363 . S
C1262 C1263 1.363 . S
C1262 C1267 1.379 . S
C1262 N1269 1.356 . S
C1263 C1262 1.363 . S
C1263 C1266 1.363 . S
N1264 C1266 1.356 . S
N1264 H1276 0.984 . S
N1264 H1277 0.985 . S
N1265 C1267 1.356 . S
N1265 H1270 0.984 . S
N1265 H1271 0.985 . S
C1266 C1260 1.379 . S
C1266 C1263 1.363 . S
C1266 N1264 1.356 . S
C1267 C1261 1.363 . S
C1267 C1262 1.379 . S
C1267 N1265 1.356 . S
N1268 C1260 1.356 . S
N1268 H1274 0.984 . S
N1268 H1275 0.984 . S
N1269 C1262 1.356 . S
N1269 H1272 0.984 . S
N1269 H1273 0.985 . S
H1270 N1265 0.984 . S
H1271 N1265 0.985 . S
H1272 N1269 0.984 . S
H1273 N1269 0.985 . S
H1274 N1268 0.984 . S
H1275 N1268 0.984 . S
H1276 N1264 0.984 . S
H1277 N1264 0.985 . S
C1278 C1279 1.363 . S
C1278 C1284 1.379 . S
C1278 N1286 1.356 . S
C1279 C1278 1.363 . S
C1279 C1285 1.363 . S
C1280 C1281 1.363 . S
C1280 C1285 1.379 . S
C1280 N1287 1.356 . S
C1281 C1280 1.363 . S
C1281 C1284 1.363 . S
N1282 C1284 1.356 . S
N1282 H1294 0.984 . S
N1282 H1295 0.985 . S
N1283 C1285 1.356 . S
N1283 H1288 0.984 . S
N1283 H1289 0.985 . S
C1284 C1278 1.379 . S
C1284 C1281 1.363 . S
C1284 N1282 1.356 . S
C1285 C1279 1.363 . S
C1285 C1280 1.379 . S
C1285 N1283 1.356 . S
N1286 C1278 1.356 . S
N1286 H1292 0.984 . S
N1286 H1293 0.984 . S
N1287 C1280 1.356 . S
N1287 H1290 0.984 . S
N1287 H1291 0.985 . S
H1288 N1283 0.984 . S
H1289 N1283 0.985 . S
H1290 N1287 0.984 . S
H1291 N1287 0.985 . S
H1292 N1286 0.984 . S
H1293 N1286 0.984 . S
H1294 N1282 0.984 . S
H1295 N1282 0.985 . S
C1296 C1297 1.363 . S
C1296 C1302 1.379 . S
C1296 N1304 1.356 . S
C1297 C1296 1.363 . S
C1297 C1303 1.363 . S
C1298 C1299 1.363 . S
C1298 C1303 1.379 . S
C1298 N1305 1.356 . S
C1299 C1298 1.363 . S
C1299 C1302 1.363 . S
N1300 C1302 1.356 . S
N1300 H1312 0.984 . S
N1300 H1313 0.985 . S
N1301 C1303 1.356 . S
N1301 H1306 0.984 . S
N1301 H1307 0.985 . S
C1302 C1296 1.379 . S
C1302 C1299 1.363 . S
C1302 N1300 1.356 . S
C1303 C1297 1.363 . S
C1303 C1298 1.379 . S
C1303 N1301 1.356 . S
N1304 C1296 1.356 . S
N1304 H1310 0.984 . S
N1304 H1311 0.984 . S
N1305 C1298 1.356 . S
N1305 H1308 0.984 . S
N1305 H1309 0.985 . S
H1306 N1301 0.984 . S
H1307 N1301 0.985 . S
H1308 N1305 0.984 . S
H1309 N1305 0.985 . S
H1310 N1304 0.984 . S
H1311 N1304 0.984 . S
H1312 N1300 0.984 . S
H1313 N1300 0.985 . S
C1314 C1315 1.363 . S
C1314 C1320 1.379 . S
C1314 N1322 1.356 . S
C1315 C1314 1.363 . S
C1315 C1321 1.363 . S
C1316 C1317 1.363 . S
C1316 C1321 1.379 . S
C1316 N1323 1.356 . S
C1317 C1316 1.363 . S
C1317 C1320 1.363 . S
N1318 C1320 1.356 . S
N1318 H1330 0.984 . S
N1318 H1331 0.985 . S
N1319 C1321 1.356 . S
N1319 H1324 0.984 . S
N1319 H1325 0.985 . S
C1320 C1314 1.379 . S
C1320 C1317 1.363 . S
C1320 N1318 1.356 . S
C1321 C1315 1.363 . S
C1321 C1316 1.379 . S
C1321 N1319 1.356 . S
N1322 C1314 1.356 . S
N1322 H1328 0.984 . S
N1322 H1329 0.984 . S
N1323 C1316 1.356 . S
N1323 H1326 0.984 . S
N1323 H1327 0.985 . S
H1324 N1319 0.984 . S
H1325 N1319 0.985 . S
H1326 N1323 0.984 . S
H1327 N1323 0.985 . S
H1328 N1322 0.984 . S
H1329 N1322 0.984 . S
H1330 N1318 0.984 . S
H1331 N1318 0.985 . S
C1332 C1333 1.363 . S
C1332 C1338 1.379 . S
C1332 N1340 1.356 . S
C1333 C1332 1.363 . S
C1333 C1339 1.363 . S
C1334 C1335 1.363 . S
C1334 C1339 1.379 . S
C1334 N1341 1.356 . S
C1335 C1334 1.363 . S
C1335 C1338 1.363 . S
N1336 C1338 1.356 . S
N1336 H1348 0.984 . S
N1336 H1349 0.985 . S
N1337 C1339 1.356 . S
N1337 H1342 0.984 . S
N1337 H1343 0.985 . S
C1338 C1332 1.379 . S
C1338 C1335 1.363 . S
C1338 N1336 1.356 . S
C1339 C1333 1.363 . S
C1339 C1334 1.379 . S
C1339 N1337 1.356 . S
N1340 C1332 1.356 . S
N1340 H1346 0.984 . S
N1340 H1347 0.984 . S
N1341 C1334 1.356 . S
N1341 H1344 0.984 . S
N1341 H1345 0.985 . S
H1342 N1337 0.984 . S
H1343 N1337 0.985 . S
H1344 N1341 0.984 . S
H1345 N1341 0.985 . S
H1346 N1340 0.984 . S
H1347 N1340 0.984 . S
H1348 N1336 0.984 . S
H1349 N1336 0.985 . S
C1350 C1351 1.363 . S
C1350 C1356 1.379 . S
C1350 N1358 1.356 . S
C1351 C1350 1.363 . S
C1351 C1357 1.363 . S
C1352 C1353 1.363 . S
C1352 C1357 1.379 . S
C1352 N1359 1.356 . S
C1353 C1352 1.363 . S
C1353 C1356 1.363 . S
N1354 C1356 1.356 . S
N1354 H1366 0.984 . S
N1354 H1367 0.985 . S
N1355 C1357 1.356 . S
N1355 H1360 0.984 . S
N1355 H1361 0.985 . S
C1356 C1350 1.379 . S
C1356 C1353 1.363 . S
C1356 N1354 1.356 . S
C1357 C1351 1.363 . S
C1357 C1352 1.379 . S
C1357 N1355 1.356 . S
N1358 C1350 1.356 . S
N1358 H1364 0.984 . S
N1358 H1365 0.984 . S
N1359 C1352 1.356 . S
N1359 H1362 0.984 . S
N1359 H1363 0.985 . S
H1360 N1355 0.984 . S
H1361 N1355 0.985 . S
H1362 N1359 0.984 . S
H1363 N1359 0.985 . S
H1364 N1358 0.984 . S
H1365 N1358 0.984 . S
H1366 N1354 0.984 . S
H1367 N1354 0.985 . S
C1368 C1369 1.363 . S
C1368 C1374 1.379 . S
C1368 N1376 1.356 . S
C1369 C1368 1.363 . S
C1369 C1375 1.363 . S
C1370 C1371 1.363 . S
C1370 C1375 1.379 . S
C1370 N1377 1.356 . S
C1371 C1370 1.363 . S
C1371 C1374 1.363 . S
N1372 C1374 1.356 . S
N1372 H1384 0.984 . S
N1372 H1385 0.985 . S
N1373 C1375 1.356 . S
N1373 H1378 0.984 . S
N1373 H1379 0.985 . S
C1374 C1368 1.379 . S
C1374 C1371 1.363 . S
C1374 N1372 1.356 . S
C1375 C1369 1.363 . S
C1375 C1370 1.379 . S
C1375 N1373 1.356 . S
N1376 C1368 1.356 . S
N1376 H1382 0.984 . S
N1376 H1383 0.984 . S
N1377 C1370 1.356 . S
N1377 H1380 0.984 . S
N1377 H1381 0.985 . S
H1378 N1373 0.984 . S
H1379 N1373 0.985 . S
H1380 N1377 0.984 . S
H1381 N1377 0.985 . S
H1382 N1376 0.984 . S
H1383 N1376 0.984 . S
H1384 N1372 0.984 . S
H1385 N1372 0.985 . S
C1386 C1387 1.363 . S
C1386 C1392 1.379 . S
C1386 N1394 1.356 . S
C1387 C1386 1.363 . S
C1387 C1393 1.363 . S
C1388 C1389 1.363 . S
C1388 C1393 1.379 . S
C1388 N1395 1.356 . S
C1389 C1388 1.363 . S
C1389 C1392 1.363 . S
N1390 C1392 1.356 . S
N1390 H1402 0.984 . S
N1390 H1403 0.985 . S
N1391 C1393 1.356 . S
N1391 H1396 0.984 . S
N1391 H1397 0.985 . S
C1392 C1386 1.379 . S
C1392 C1389 1.363 . S
C1392 N1390 1.356 . S
C1393 C1387 1.363 . S
C1393 C1388 1.379 . S
C1393 N1391 1.356 . S
N1394 C1386 1.356 . S
N1394 H1400 0.984 . S
N1394 H1401 0.984 . S
N1395 C1388 1.356 . S
N1395 H1398 0.984 . S
N1395 H1399 0.985 . S
H1396 N1391 0.984 . S
H1397 N1391 0.985 . S
H1398 N1395 0.984 . S
H1399 N1395 0.985 . S
H1400 N1394 0.984 . S
H1401 N1394 0.984 . S
H1402 N1390 0.984 . S
H1403 N1390 0.985 . S
C1404 C1405 1.363 . S
C1404 C1410 1.379 . S
C1404 N1412 1.356 . S
C1405 C1404 1.363 . S
C1405 C1411 1.363 . S
C1406 C1407 1.363 . S
C1406 C1411 1.379 . S
C1406 N1413 1.356 . S
C1407 C1406 1.363 . S
C1407 C1410 1.363 . S
N1408 C1410 1.356 . S
N1408 H1420 0.984 . S
N1408 H1421 0.985 . S
N1409 C1411 1.356 . S
N1409 H1414 0.984 . S
N1409 H1415 0.985 . S
C1410 C1404 1.379 . S
C1410 C1407 1.363 . S
C1410 N1408 1.356 . S
C1411 C1405 1.363 . S
C1411 C1406 1.379 . S
C1411 N1409 1.356 . S
N1412 C1404 1.356 . S
N1412 H1418 0.984 . S
N1412 H1419 0.984 . S
N1413 C1406 1.356 . S
N1413 H1416 0.984 . S
N1413 H1417 0.985 . S
H1414 N1409 0.984 . S
H1415 N1409 0.985 . S
H1416 N1413 0.984 . S
H1417 N1413 0.985 . S
H1418 N1412 0.984 . S
H1419 N1412 0.984 . S
H1420 N1408 0.984 . S
H1421 N1408 0.985 . S
C1422 C1423 1.363 . S
C1422 C1428 1.379 . S
C1422 N1430 1.356 . S
C1423 C1422 1.363 . S
C1423 C1429 1.363 . S
C1424 C1425 1.363 . S
C1424 C1429 1.379 . S
C1424 N1431 1.356 . S
C1425 C1424 1.363 . S
C1425 C1428 1.363 . S
N1426 C1428 1.356 . S
N1426 H1438 0.984 . S
N1426 H1439 0.985 . S
N1427 C1429 1.356 . S
N1427 H1432 0.984 . S
N1427 H1433 0.985 . S
C1428 C1422 1.379 . S
C1428 C1425 1.363 . S
C1428 N1426 1.356 . S
C1429 C1423 1.363 . S
C1429 C1424 1.379 . S
C1429 N1427 1.356 . S
N1430 C1422 1.356 . S
N1430 H1436 0.984 . S
N1430 H1437 0.984 . S
N1431 C1424 1.356 . S
N1431 H1434 0.984 . S
N1431 H1435 0.985 . S
H1432 N1427 0.984 . S
H1433 N1427 0.985 . S
H1434 N1431 0.984 . S
H1435 N1431 0.985 . S
H1436 N1430 0.984 . S
H1437 N1430 0.984 . S
H1438 N1426 0.984 . S
H1439 N1426 0.985 . S
C1440 C1441 1.363 . S
C1440 C1446 1.379 . S
C1440 N1448 1.356 . S
C1441 C1440 1.363 . S
C1441 C1447 1.363 . S
C1442 C1443 1.363 . S
C1442 C1447 1.379 . S
C1442 N1449 1.356 . S
C1443 C1442 1.363 . S
C1443 C1446 1.363 . S
N1444 C1446 1.356 . S
N1444 H1456 0.984 . S
N1444 H1457 0.985 . S
N1445 C1447 1.356 . S
N1445 H1450 0.984 . S
N1445 H1451 0.985 . S
C1446 C1440 1.379 . S
C1446 C1443 1.363 . S
C1446 N1444 1.356 . S
C1447 C1441 1.363 . S
C1447 C1442 1.379 . S
C1447 N1445 1.356 . S
N1448 C1440 1.356 . S
N1448 H1454 0.984 . S
N1448 H1455 0.984 . S
N1449 C1442 1.356 . S
N1449 H1452 0.984 . S
N1449 H1453 0.985 . S
H1450 N1445 0.984 . S
H1451 N1445 0.985 . S
H1452 N1449 0.984 . S
H1453 N1449 0.985 . S
H1454 N1448 0.984 . S
H1455 N1448 0.984 . S
H1456 N1444 0.984 . S
H1457 N1444 0.985 . S
C1458 C1459 1.363 . S
C1458 C1464 1.379 . S
C1458 N1466 1.356 . S
C1459 C1458 1.363 . S
C1459 C1465 1.363 . S
C1460 C1461 1.363 . S
C1460 C1465 1.379 . S
C1460 N1467 1.356 . S
C1461 C1460 1.363 . S
C1461 C1464 1.363 . S
N1462 C1464 1.356 . S
N1462 H1474 0.984 . S
N1462 H1475 0.985 . S
N1463 C1465 1.356 . S
N1463 H1468 0.984 . S
N1463 H1469 0.985 . S
C1464 C1458 1.379 . S
C1464 C1461 1.363 . S
C1464 N1462 1.356 . S
C1465 C1459 1.363 . S
C1465 C1460 1.379 . S
C1465 N1463 1.356 . S
N1466 C1458 1.356 . S
N1466 H1472 0.984 . S
N1466 H1473 0.984 . S
N1467 C1460 1.356 . S
N1467 H1470 0.984 . S
N1467 H1471 0.985 . S
H1468 N1463 0.984 . S
H1469 N1463 0.985 . S
H1470 N1467 0.984 . S
H1471 N1467 0.985 . S
H1472 N1466 0.984 . S
H1473 N1466 0.984 . S
H1474 N1462 0.984 . S
H1475 N1462 0.985 . S
C1476 C1477 1.363 . S
C1476 C1482 1.379 . S
C1476 N1484 1.356 . S
C1477 C1476 1.363 . S
C1477 C1483 1.363 . S
C1478 C1479 1.363 . S
C1478 C1483 1.379 . S
C1478 N1485 1.356 . S
C1479 C1478 1.363 . S
C1479 C1482 1.363 . S
N1480 C1482 1.356 . S
N1480 H1492 0.984 . S
N1480 H1493 0.985 . S
N1481 C1483 1.356 . S
N1481 H1486 0.984 . S
N1481 H1487 0.985 . S
C1482 C1476 1.379 . S
C1482 C1479 1.363 . S
C1482 N1480 1.356 . S
C1483 C1477 1.363 . S
C1483 C1478 1.379 . S
C1483 N1481 1.356 . S
N1484 C1476 1.356 . S
N1484 H1490 0.984 . S
N1484 H1491 0.984 . S
N1485 C1478 1.356 . S
N1485 H1488 0.984 . S
N1485 H1489 0.985 . S
H1486 N1481 0.984 . S
H1487 N1481 0.985 . S
H1488 N1485 0.984 . S
H1489 N1485 0.985 . S
H1490 N1484 0.984 . S
H1491 N1484 0.984 . S
H1492 N1480 0.984 . S
H1493 N1480 0.985 . S
C1494 C1495 1.363 . S
C1494 C1500 1.379 . S
C1494 N1502 1.356 . S
C1495 C1494 1.363 . S
C1495 C1501 1.363 . S
C1496 C1497 1.363 . S
C1496 C1501 1.379 . S
C1496 N1503 1.356 . S
C1497 C1496 1.363 . S
C1497 C1500 1.363 . S
N1498 C1500 1.356 . S
N1498 H1510 0.984 . S
N1498 H1511 0.985 . S
N1499 C1501 1.356 . S
N1499 H1504 0.984 . S
N1499 H1505 0.985 . S
C1500 C1494 1.379 . S
C1500 C1497 1.363 . S
C1500 N1498 1.356 . S
C1501 C1495 1.363 . S
C1501 C1496 1.379 . S
C1501 N1499 1.356 . S
N1502 C1494 1.356 . S
N1502 H1508 0.984 . S
N1502 H1509 0.984 . S
N1503 C1496 1.356 . S
N1503 H1506 0.984 . S
N1503 H1507 0.985 . S
H1504 N1499 0.984 . S
H1505 N1499 0.985 . S
H1506 N1503 0.984 . S
H1507 N1503 0.985 . S
H1508 N1502 0.984 . S
H1509 N1502 0.984 . S
H1510 N1498 0.984 . S
H1511 N1498 0.985 . S
C1512 C1513 1.363 . S
C1512 C1518 1.379 . S
C1512 N1520 1.356 . S
C1513 C1512 1.363 . S
C1513 C1519 1.363 . S
C1514 C1515 1.363 . S
C1514 C1519 1.379 . S
C1514 N1521 1.356 . S
C1515 C1514 1.363 . S
C1515 C1518 1.363 . S
N1516 C1518 1.356 . S
N1516 H1528 0.984 . S
N1516 H1529 0.985 . S
N1517 C1519 1.356 . S
N1517 H1522 0.984 . S
N1517 H1523 0.985 . S
C1518 C1512 1.379 . S
C1518 C1515 1.363 . S
C1518 N1516 1.356 . S
C1519 C1513 1.363 . S
C1519 C1514 1.379 . S
C1519 N1517 1.356 . S
N1520 C1512 1.356 . S
N1520 H1526 0.984 . S
N1520 H1527 0.984 . S
N1521 C1514 1.356 . S
N1521 H1524 0.984 . S
N1521 H1525 0.985 . S
H1522 N1517 0.984 . S
H1523 N1517 0.985 . S
H1524 N1521 0.984 . S
H1525 N1521 0.985 . S
H1526 N1520 0.984 . S
H1527 N1520 0.984 . S
H1528 N1516 0.984 . S
H1529 N1516 0.985 . S
C1530 C1531 1.363 . S
C1530 C1536 1.379 . S
C1530 N1538 1.356 . S
C1531 C1530 1.363 . S
C1531 C1537 1.363 . S
C1532 C1533 1.363 . S
C1532 C1537 1.379 . S
C1532 N1539 1.356 . S
C1533 C1532 1.363 . S
C1533 C1536 1.363 . S
N1534 C1536 1.356 . S
N1534 H1546 0.984 . S
N1534 H1547 0.985 . S
N1535 C1537 1.356 . S
N1535 H1540 0.984 . S
N1535 H1541 0.985 . S
C1536 C1530 1.379 . S
C1536 C1533 1.363 . S
C1536 N1534 1.356 . S
C1537 C1531 1.363 . S
C1537 C1532 1.379 . S
C1537 N1535 1.356 . S
N1538 C1530 1.356 . S
N1538 H1544 0.984 . S
N1538 H1545 0.984 . S
N1539 C1532 1.356 . S
N1539 H1542 0.984 . S
N1539 H1543 0.985 . S
H1540 N1535 0.984 . S
H1541 N1535 0.985 . S
H1542 N1539 0.984 . S
H1543 N1539 0.985 . S
H1544 N1538 0.984 . S
H1545 N1538 0.984 . S
H1546 N1534 0.984 . S
H1547 N1534 0.985 . S
C1548 C1549 1.363 . S
C1548 C1554 1.379 . S
C1548 N1556 1.356 . S
C1549 C1548 1.363 . S
C1549 C1555 1.363 . S
C1550 C1551 1.363 . S
C1550 C1555 1.379 . S
C1550 N1557 1.356 . S
C1551 C1550 1.363 . S
C1551 C1554 1.363 . S
N1552 C1554 1.356 . S
N1552 H1564 0.984 . S
N1552 H1565 0.985 . S
N1553 C1555 1.356 . S
N1553 H1558 0.984 . S
N1553 H1559 0.985 . S
C1554 C1548 1.379 . S
C1554 C1551 1.363 . S
C1554 N1552 1.356 . S
C1555 C1549 1.363 . S
C1555 C1550 1.379 . S
C1555 N1553 1.356 . S
N1556 C1548 1.356 . S
N1556 H1562 0.984 . S
N1556 H1563 0.984 . S
N1557 C1550 1.356 . S
N1557 H1560 0.984 . S
N1557 H1561 0.985 . S
H1558 N1553 0.984 . S
H1559 N1553 0.985 . S
H1560 N1557 0.984 . S
H1561 N1557 0.985 . S
H1562 N1556 0.984 . S
H1563 N1556 0.984 . S
H1564 N1552 0.984 . S
H1565 N1552 0.985 . S
C1566 C1567 1.363 . S
C1566 C1572 1.379 . S
C1566 N1574 1.356 . S
C1567 C1566 1.363 . S
C1567 C1573 1.363 . S
C1568 C1569 1.363 . S
C1568 C1573 1.379 . S
C1568 N1575 1.356 . S
C1569 C1568 1.363 . S
C1569 C1572 1.363 . S
N1570 C1572 1.356 . S
N1570 H1582 0.984 . S
N1570 H1583 0.985 . S
N1571 C1573 1.356 . S
N1571 H1576 0.984 . S
N1571 H1577 0.985 . S
C1572 C1566 1.379 . S
C1572 C1569 1.363 . S
C1572 N1570 1.356 . S
C1573 C1567 1.363 . S
C1573 C1568 1.379 . S
C1573 N1571 1.356 . S
N1574 C1566 1.356 . S
N1574 H1580 0.984 . S
N1574 H1581 0.984 . S
N1575 C1568 1.356 . S
N1575 H1578 0.984 . S
N1575 H1579 0.985 . S
H1576 N1571 0.984 . S
H1577 N1571 0.985 . S
H1578 N1575 0.984 . S
H1579 N1575 0.985 . S
H1580 N1574 0.984 . S
H1581 N1574 0.984 . S
H1582 N1570 0.984 . S
H1583 N1570 0.985 . S
C1584 C1585 1.363 . S
C1584 C1590 1.379 . S
C1584 N1592 1.356 . S
C1585 C1584 1.363 . S
C1585 C1591 1.363 . S
C1586 C1587 1.363 . S
C1586 C1591 1.379 . S
C1586 N1593 1.356 . S
C1587 C1586 1.363 . S
C1587 C1590 1.363 . S
N1588 C1590 1.356 . S
N1588 H1600 0.984 . S
N1588 H1601 0.985 . S
N1589 C1591 1.356 . S
N1589 H1594 0.984 . S
N1589 H1595 0.985 . S
C1590 C1584 1.379 . S
C1590 C1587 1.363 . S
C1590 N1588 1.356 . S
C1591 C1585 1.363 . S
C1591 C1586 1.379 . S
C1591 N1589 1.356 . S
N1592 C1584 1.356 . S
N1592 H1598 0.984 . S
N1592 H1599 0.984 . S
N1593 C1586 1.356 . S
N1593 H1596 0.984 . S
N1593 H1597 0.985 . S
H1594 N1589 0.984 . S
H1595 N1589 0.985 . S
H1596 N1593 0.984 . S
H1597 N1593 0.985 . S
H1598 N1592 0.984 . S
H1599 N1592 0.984 . S
H1600 N1588 0.984 . S
H1601 N1588 0.985 . S
C1602 C1603 1.363 . S
C1602 C1608 1.379 . S
C1602 N1610 1.356 . S
C1603 C1602 1.363 . S
C1603 C1609 1.363 1_556 S
C1604 C1605 1.363 . S
C1604 C1609 1.379 1_556 S
C1604 N1611 1.356 . S
C1605 C1604 1.363 . S
C1605 C1608 1.363 . S
N1606 C1608 1.356 . S
N1606 H1618 0.984 . S
N1606 H1619 0.985 . S
N1607 C1609 1.356 . S
N1607 H1612 0.984 . S
N1607 H1613 0.985 . S
C1608 C1602 1.379 . S
C1608 C1605 1.363 . S
C1608 N1606 1.356 . S
C1609 C1603 1.363 1_554 S
C1609 C1604 1.379 1_554 S
C1609 N1607 1.356 . S
N1610 C1602 1.356 . S
N1610 H1616 0.984 . S
N1610 H1617 0.984 . S
N1611 C1604 1.356 . S
N1611 H1614 0.984 . S
N1611 H1615 0.985 1_556 S
H1612 N1607 0.984 . S
H1613 N1607 0.985 . S
H1614 N1611 0.984 . S
H1615 N1611 0.985 1_554 S
H1616 N1610 0.984 . S
H1617 N1610 0.984 . S
H1618 N1606 0.984 . S
H1619 N1606 0.985 . S
C1620 C1621 1.363 . S
C1620 C1626 1.379 . S
C1620 N1628 1.356 . S
C1621 C1620 1.363 . S
C1621 C1627 1.363 . S
C1622 C1623 1.363 . S
C1622 C1627 1.379 . S
C1622 N1629 1.356 . S
C1623 C1622 1.363 . S
C1623 C1626 1.363 . S
N1624 C1626 1.356 . S
N1624 H1636 0.984 . S
N1624 H1637 0.985 . S
N1625 C1627 1.356 1_554 S
N1625 H1630 0.984 . S
N1625 H1631 0.985 . S
C1626 C1620 1.379 . S
C1626 C1623 1.363 . S
C1626 N1624 1.356 . S
C1627 C1621 1.363 . S
C1627 C1622 1.379 . S
C1627 N1625 1.356 1_556 S
N1628 C1620 1.356 . S
N1628 H1634 0.984 . S
N1628 H1635 0.984 1_556 S
N1629 C1622 1.356 . S
N1629 H1632 0.984 . S
N1629 H1633 0.985 . S
H1630 N1625 0.984 . S
H1631 N1625 0.985 . S
H1632 N1629 0.984 . S
H1633 N1629 0.985 . S
H1634 N1628 0.984 . S
H1635 N1628 0.984 1_554 S
H1636 N1624 0.984 . S
H1637 N1624 0.985 . S
C1638 C1639 1.363 . S
C1638 C1644 1.379 . S
C1638 N1646 1.356 . S
C1639 C1638 1.363 . S
C1639 C1645 1.363 . S
C1640 C1641 1.363 1_554 S
C1640 C1645 1.379 1_554 S
C1640 N1647 1.356 . S
C1641 C1640 1.363 1_556 S
C1641 C1644 1.363 . S
N1642 C1644 1.356 . S
N1642 H1654 0.984 . S
N1642 H1655 0.985 . S
N1643 C1645 1.356 . S
N1643 H1648 0.984 . S
N1643 H1649 0.985 . S
C1644 C1638 1.379 . S
C1644 C1641 1.363 . S
C1644 N1642 1.356 . S
C1645 C1639 1.363 . S
C1645 C1640 1.379 1_556 S
C1645 N1643 1.356 . S
N1646 C1638 1.356 . S
N1646 H1652 0.984 . S
N1646 H1653 0.984 . S
N1647 C1640 1.356 . S
N1647 H1650 0.984 . S
N1647 H1651 0.985 . S
H1648 N1643 0.984 . S
H1649 N1643 0.985 . S
H1650 N1647 0.984 . S
H1651 N1647 0.985 . S
H1652 N1646 0.984 . S
H1653 N1646 0.984 . S
H1654 N1642 0.984 . S
H1655 N1642 0.985 . S
C1656 C1657 1.363 . S
C1656 C1662 1.379 . S
C1656 N1664 1.356 . S
C1657 C1656 1.363 . S
C1657 C1663 1.363 . S
C1658 C1659 1.363 . S
C1658 C1663 1.379 . S
C1658 N1665 1.356 . S
C1659 C1658 1.363 . S
C1659 C1662 1.363 . S
N1660 C1662 1.356 . S
N1660 H1672 0.984 . S
N1660 H1673 0.985 . S
N1661 C1663 1.356 . S
N1661 H1666 0.984 . S
N1661 H1667 0.985 1_545 S
C1662 C1656 1.379 . S
C1662 C1659 1.363 . S
C1662 N1660 1.356 . S
C1663 C1657 1.363 . S
C1663 C1658 1.379 . S
C1663 N1661 1.356 . S
N1664 C1656 1.356 . S
N1664 H1670 0.984 . S
N1664 H1671 0.984 . S
N1665 C1658 1.356 . S
N1665 H1668 0.984 . S
N1665 H1669 0.985 . S
H1666 N1661 0.984 . S
H1667 N1661 0.985 1_565 S
H1668 N1665 0.984 . S
H1669 N1665 0.985 . S
H1670 N1664 0.984 . S
H1671 N1664 0.984 . S
H1672 N1660 0.984 . S
H1673 N1660 0.985 . S
C1674 C1675 1.363 . S
C1674 C1680 1.379 . S
C1674 N1682 1.356 . S
C1675 C1674 1.363 . S
C1675 C1681 1.363 . S
C1676 C1677 1.363 . S
C1676 C1681 1.379 . S
C1676 N1683 1.356 . S
C1677 C1676 1.363 . S
C1677 C1680 1.363 . S
N1678 C1680 1.356 . S
N1678 H1690 0.984 . S
N1678 H1691 0.985 . S
N1679 C1681 1.356 . S
N1679 H1684 0.984 . S
N1679 H1685 0.985 . S
C1680 C1674 1.379 . S
C1680 C1677 1.363 . S
C1680 N1678 1.356 . S
C1681 C1675 1.363 . S
C1681 C1676 1.379 . S
C1681 N1679 1.356 . S
N1682 C1674 1.356 . S
N1682 H1688 0.984 1_655 S
N1682 H1689 0.985 . S
N1683 C1676 1.356 . S
N1683 H1686 0.984 . S
N1683 H1687 0.985 . S
H1684 N1679 0.984 . S
H1685 N1679 0.985 . S
H1686 N1683 0.984 . S
H1687 N1683 0.985 . S
H1688 N1682 0.984 1_455 S
H1689 N1682 0.985 . S
H1690 N1678 0.984 . S
H1691 N1678 0.985 . S
C1692 C1693 1.363 . S
C1692 C1698 1.379 . S
C1692 N1700 1.356 . S
C1693 C1692 1.363 . S
C1693 C1699 1.363 . S
C1694 C1695 1.363 . S
C1694 C1699 1.379 . S
C1694 N1701 1.356 . S
C1695 C1694 1.363 . S
C1695 C1698 1.363 . S
N1696 C1698 1.356 . S
N1696 H1708 0.984 . S
N1696 H1709 0.985 . S
N1697 C1699 1.356 . S
N1697 H1702 0.984 . S
N1697 H1703 0.985 . S
C1698 C1692 1.379 . S
C1698 C1695 1.363 . S
C1698 N1696 1.356 . S
C1699 C1693 1.363 . S
C1699 C1694 1.379 . S
C1699 N1697 1.356 . S
N1700 C1692 1.356 . S
N1700 H1706 0.984 . S
N1700 H1707 0.984 . S
N1701 C1694 1.356 . S
N1701 H1704 0.984 . S
N1701 H1705 0.985 . S
H1702 N1697 0.984 . S
H1703 N1697 0.985 . S
H1704 N1701 0.984 . S
H1705 N1701 0.985 . S
H1706 N1700 0.984 . S
H1707 N1700 0.984 . S
H1708 N1696 0.984 . S
H1709 N1696 0.985 . S
C1710 C1711 1.363 . S
C1710 C1716 1.379 . S
C1710 N1718 1.356 . S
C1711 C1710 1.363 . S
C1711 C1717 1.363 . S
C1712 C1713 1.363 1_556 S
C1712 C1717 1.379 1_556 S
C1712 N1719 1.356 . S
C1713 C1712 1.363 1_554 S
C1713 C1716 1.363 . S
N1714 C1716 1.356 . S
N1714 H1726 0.984 . S
N1714 H1727 0.985 . S
N1715 C1717 1.356 . S
N1715 H1720 0.984 . S
N1715 H1721 0.985 1_554 S
C1716 C1710 1.379 . S
C1716 C1713 1.363 . S
C1716 N1714 1.356 . S
C1717 C1711 1.363 . S
C1717 C1712 1.379 1_554 S
C1717 N1715 1.356 . S
N1718 C1710 1.356 . S
N1718 H1724 0.984 . S
N1718 H1725 0.984 . S
N1719 C1712 1.356 . S
N1719 H1722 0.984 . S
N1719 H1723 0.985 . S
H1720 N1715 0.984 . S
H1721 N1715 0.985 1_556 S
H1722 N1719 0.984 . S
H1723 N1719 0.985 . S
H1724 N1718 0.984 . S
H1725 N1718 0.984 . S
H1726 N1714 0.984 . S
H1727 N1714 0.985 . S
C1728 C1729 1.363 . S
C1728 C1734 1.379 . S
C1728 N1736 1.356 1_554 S
C1729 C1728 1.363 . S
C1729 C1735 1.363 . S
C1730 C1731 1.363 . S
C1730 C1735 1.379 . S
C1730 N1737 1.356 . S
C1731 C1730 1.363 . S
C1731 C1734 1.363 . S
N1732 C1734 1.356 . S
N1732 H1744 0.984 . S
N1732 H1745 0.985 . S
N1733 C1735 1.356 . S
N1733 H1738 0.984 . S
N1733 H1739 0.985 . S
C1734 C1728 1.379 . S
C1734 C1731 1.363 . S
C1734 N1732 1.356 . S
C1735 C1729 1.363 . S
C1735 C1730 1.379 . S
C1735 N1733 1.356 . S
N1736 C1728 1.356 1_556 S
N1736 H1742 0.984 . S
N1736 H1743 0.984 . S
N1737 C1730 1.356 . S
N1737 H1740 0.984 . S
N1737 H1741 0.985 . S
H1738 N1733 0.984 . S
H1739 N1733 0.985 . S
H1740 N1737 0.984 . S
H1741 N1737 0.985 . S
H1742 N1736 0.984 . S
H1743 N1736 0.984 . S
H1744 N1732 0.984 . S
H1745 N1732 0.985 . S
C1746 C1747 1.363 . S
C1746 C1752 1.379 . S
C1746 N1754 1.356 . S
C1747 C1746 1.363 . S
C1747 C1753 1.363 1_554 S
C1748 C1749 1.363 . S
C1748 C1753 1.379 1_554 S
C1748 N1755 1.356 . S
C1749 C1748 1.363 . S
C1749 C1752 1.363 . S
N1750 C1752 1.356 . S
N1750 H1762 0.984 . S
N1750 H1763 0.985 . S
N1751 C1753 1.356 . S
N1751 H1756 0.984 . S
N1751 H1757 0.985 . S
C1752 C1746 1.379 . S
C1752 C1749 1.363 . S
C1752 N1750 1.356 . S
C1753 C1747 1.363 1_556 S
C1753 C1748 1.379 1_556 S
C1753 N1751 1.356 . S
N1754 C1746 1.356 . S
N1754 H1760 0.984 . S
N1754 H1761 0.984 . S
N1755 C1748 1.356 . S
N1755 H1758 0.985 1_565 S
N1755 H1759 0.985 1_564 S
H1756 N1751 0.984 . S
H1757 N1751 0.985 . S
H1758 N1755 0.985 1_545 S
H1759 N1755 0.985 1_546 S
H1760 N1754 0.984 . S
H1761 N1754 0.984 . S
H1762 N1750 0.984 . S
H1763 N1750 0.985 . S
C1764 C1765 1.363 . S
C1764 C1770 1.379 . S
C1764 N1772 1.356 . S
C1765 C1764 1.363 . S
C1765 C1771 1.363 . S
C1766 C1767 1.363 . S
C1766 C1771 1.379 . S
C1766 N1773 1.356 . S
C1767 C1766 1.363 . S
C1767 C1770 1.363 . S
N1768 C1770 1.356 . S
N1768 H1780 0.984 . S
N1768 H1781 0.985 . S
N1769 C1771 1.356 . S
N1769 H1774 0.984 . S
N1769 H1775 0.985 . S
C1770 C1764 1.379 . S
C1770 C1767 1.363 . S
C1770 N1768 1.356 . S
C1771 C1765 1.363 . S
C1771 C1766 1.379 . S
C1771 N1769 1.356 . S
N1772 C1764 1.356 . S
N1772 H1778 0.984 . S
N1772 H1779 0.984 . S
N1773 C1766 1.356 . S
N1773 H1776 0.984 . S
N1773 H1777 0.985 . S
H1774 N1769 0.984 . S
H1775 N1769 0.985 . S
H1776 N1773 0.984 . S
H1777 N1773 0.985 . S
H1778 N1772 0.984 . S
H1779 N1772 0.984 . S
H1780 N1768 0.984 . S
H1781 N1768 0.985 . S
C1782 C1783 1.363 . S
C1782 C1788 1.379 1_545 S
C1782 N1790 1.356 . S
C1783 C1782 1.363 . S
C1783 C1789 1.363 . S
C1784 C1785 1.328 1_545 S
C1784 C1789 1.404 . S
C1784 N1791 1.356 1_545 S
C1785 C1784 1.328 1_565 S
C1785 C1788 1.363 . S
N1786 C1788 1.356 . S
N1786 H1798 0.984 . S
N1786 H1799 0.985 . S
N1787 C1789 1.356 . S
N1787 H1792 0.984 . S
N1787 H1793 0.985 . S
C1788 C1782 1.379 1_565 S
C1788 C1785 1.363 . S
C1788 N1786 1.356 . S
C1789 C1783 1.363 . S
C1789 C1784 1.404 . S
C1789 N1787 1.356 . S
N1790 C1782 1.356 . S
N1790 H1796 0.984 1_545 S
N1790 H1797 0.984 . S
N1791 C1784 1.356 1_565 S
N1791 H1794 0.984 . S
N1791 H1795 0.985 1_565 S
H1792 N1787 0.984 . S
H1793 N1787 0.985 . S
H1794 N1791 0.984 . S
H1795 N1791 0.985 1_545 S
H1796 N1790 0.984 1_565 S
H1797 N1790 0.984 . S
H1798 N1786 0.984 . S
H1799 N1786 0.985 . S
C1800 C1801 1.363 . S
C1800 C1806 1.379 . S
C1800 N1808 1.356 . S
C1801 C1800 1.363 . S
C1801 C1807 1.363 . S
C1802 C1803 1.363 . S
C1802 C1807 1.379 1_655 S
C1802 N1809 1.356 . S
C1803 C1802 1.363 . S
C1803 C1806 1.363 1_655 S
N1804 C1806 1.356 . S
N1804 H1816 0.984 . S
N1804 H1817 0.978 1_455 S
N1805 C1807 1.356 . S
N1805 H1810 0.984 . S
N1805 H1811 0.985 1_455 S
C1806 C1800 1.379 . S
C1806 C1803 1.363 1_455 S
C1806 N1804 1.356 . S
C1807 C1801 1.363 . S
C1807 C1802 1.379 1_455 S
C1807 N1805 1.356 . S
N1808 C1800 1.356 . S
N1808 H1814 0.984 . S
N1808 H1815 0.984 . S
N1809 C1802 1.356 . S
N1809 H1812 0.984 . S
N1809 H1813 0.985 . S
H1810 N1805 0.984 . S
H1811 N1805 0.985 1_655 S
H1812 N1809 0.984 . S
H1813 N1809 0.985 . S
H1814 N1808 0.984 . S
H1815 N1808 0.984 . S
H1816 N1804 0.984 . S
H1817 N1804 0.978 1_655 S
C1818 C1819 1.363 . S
C1818 C1824 1.379 . S
C1818 N1826 1.356 . S
C1819 C1818 1.363 . S
C1819 C1825 1.363 . S
C1820 C1821 1.363 . S
C1820 C1825 1.379 . S
C1820 N1827 1.356 . S
C1821 C1820 1.363 . S
C1821 C1824 1.363 . S
N1822 C1824 1.356 . S
N1822 H1834 0.984 . S
N1822 H1835 0.985 . S
N1823 C1825 1.356 . S
N1823 H1828 0.984 . S
N1823 H1829 0.985 . S
C1824 C1818 1.379 . S
C1824 C1821 1.363 . S
C1824 N1822 1.356 . S
C1825 C1819 1.363 . S
C1825 C1820 1.379 . S
C1825 N1823 1.356 . S
N1826 C1818 1.356 . S
N1826 H1832 0.984 . S
N1826 H1833 0.984 . S
N1827 C1820 1.356 . S
N1827 H1830 0.984 . S
N1827 H1831 0.985 . S
H1828 N1823 0.984 . S
H1829 N1823 0.985 . S
H1830 N1827 0.984 . S
H1831 N1827 0.985 . S
H1832 N1826 0.984 . S
H1833 N1826 0.984 . S
H1834 N1822 0.984 . S
H1835 N1822 0.985 . S
C1836 C1837 1.363 . S
C1836 C1842 1.379 . S
C1836 N1844 1.356 . S
C1837 C1836 1.363 . S
C1837 C1843 1.363 . S
C1838 C1839 1.363 . S
C1838 C1843 1.379 . S
C1838 N1845 1.356 1_545 S
C1839 C1838 1.363 . S
C1839 C1842 1.363 . S
N1840 C1842 1.356 . S
N1840 H1852 0.984 . S
N1840 H1853 1.007 . S
N1841 C1843 1.356 . S
N1841 H1846 0.984 . S
N1841 H1847 0.985 . S
C1842 C1836 1.379 . S
C1842 C1839 1.363 . S
C1842 N1840 1.356 . S
C1843 C1837 1.363 . S
C1843 C1838 1.379 . S
C1843 N1841 1.356 . S
N1844 C1836 1.356 . S
N1844 H1850 0.984 . S
N1844 H1851 0.984 . S
N1845 C1838 1.356 1_565 S
N1845 H1848 0.984 . S
N1845 H1849 0.985 . S
H1846 N1841 0.984 . S
H1847 N1841 0.985 . S
H1848 N1845 0.984 . S
H1849 N1845 0.985 . S
H1850 N1844 0.984 . S
H1851 N1844 0.984 . S
H1852 N1840 0.984 . S
H1853 N1840 1.007 . S
C1854 C1855 1.363 . S
C1854 C1860 1.379 1_655 S
C1854 N1862 1.356 . S
C1855 C1854 1.363 . S
C1855 C1861 1.363 . S
C1856 C1857 1.363 1_655 S
C1856 C1861 1.379 . S
C1856 N1863 1.356 1_655 S
C1857 C1856 1.363 1_455 S
C1857 C1860 1.363 . S
N1858 C1860 1.356 . S
N1858 H1870 0.984 . S
N1858 H1871 0.985 . S
N1859 C1861 1.356 . S
N1859 H1864 0.984 . S
N1859 H1865 0.985 . S
C1860 C1854 1.379 1_455 S
C1860 C1857 1.363 . S
C1860 N1858 1.356 . S
C1861 C1855 1.363 . S
C1861 C1856 1.379 . S
C1861 N1859 1.356 . S
N1862 C1854 1.356 . S
N1862 H1868 0.984 . S
N1862 H1869 0.984 . S
N1863 C1856 1.356 1_455 S
N1863 H1866 0.984 . S
N1863 H1867 0.985 1_455 S
H1864 N1859 0.984 . S
H1865 N1859 0.985 . S
H1866 N1863 0.984 . S
H1867 N1863 0.985 1_655 S
H1868 N1862 0.984 . S
H1869 N1862 0.984 . S
H1870 N1858 0.984 . S
H1871 N1858 0.985 . S
C577 C54 1.468 . S
C579 C17 1.384 . S
C595 C49 1.384 . S
C597 C86 1.468 1_545 S
C613 C81 1.384 . S
C615 C22 1.468 . S
C631 C146 1.468 . S
C633 C117 1.384 . S
C649 C178 1.468 . S
C651 C149 1.384 . S
C667 C181 1.384 . S
C669 C114 1.468 . S
C685 C209 1.384 . S
C687 C246 1.468 1_554 S
C703 C241 1.384 . S
C705 C278 1.468 1_554 S
C721 C214 1.468 1_554 S
C723 C273 1.384 . S
C739 C309 1.384 . S
C741 C338 1.468 . S
C757 C370 1.468 . S
C759 C341 1.384 . S
C775 C373 1.384 . S
C777 C306 1.468 . S
C793 C401 1.384 . S
C795 C438 1.468 . S
C811 C433 1.384 . S
C813 C470 1.468 . S
C829 C465 1.384 . S
C831 C406 1.468 . S
C847 C530 1.468 1_556 S
C849 C501 1.384 . S
C865 C533 1.384 . S
C867 C562 1.468 1_556 S
C883 C565 1.384 . S
C885 C498 1.468 1_556 S
C901 C19 1.479 . S
C903 C180 1.493 . S
C919 C51 1.479 . S
C921 C116 1.493 . S
C937 C83 1.479 . S
C939 C148 1.493 . S
C955 C55 1.845 . S
C957 C176 1.797 . S
C973 C112 1.797 . S
C975 C87 1.844 . S
C991 C23 1.845 . S
C993 C144 1.798 . S
C1009 C80 1.493 . S
C1011 C119 1.479 . S
C1027 C151 1.479 . S
C1029 C16 1.493 . S
C1045 C183 1.479 . S
C1047 C48 1.493 . S
C1063 C147 1.845 . S
C1065 C84 1.798 . S
C1081 C179 1.845 . S
C1083 C20 1.797 . S
C1099 C52 1.797 . S
C1101 C115 1.845 . S
C1117 C211 1.479 . S
C1119 C372 1.493 . S
C1135 C308 1.493 . S
C1137 C243 1.479 . S
C1153 C340 1.493 . S
C1155 C275 1.479 . S
C1171 C247 1.845 . S
C1173 C368 1.798 . S
C1189 C304 1.797 . S
C1191 C279 1.845 . S
C1207 C336 1.797 . S
C1209 C215 1.845 . S
C1225 C311 1.479 . S
C1227 C272 1.493 . S
C1243 C208 1.493 . S
C1245 C343 1.479 . S
C1261 C240 1.493 . S
C1263 C375 1.479 . S
C1279 C276 1.797 . S
C1281 C339 1.845 . S
C1297 C371 1.844 . S
C1299 C212 1.797 . S
C1315 C307 1.845 . S
C1317 C244 1.797 . S
C1333 C403 1.479 . S
C1335 C564 1.493 . S
C1351 C435 1.479 . S
C1353 C500 1.493 . S
C1369 C532 1.493 . S
C1371 C467 1.479 . S
C1387 C439 1.845 . S
C1389 C560 1.797 . S
C1405 C471 1.844 . S
C1407 C496 1.797 . S
C1423 C528 1.797 . S
C1425 C407 1.845 . S
C1441 C503 1.479 . S
C1443 C464 1.493 . S
C1459 C535 1.479 . S
C1461 C400 1.493 . S
C1477 C567 1.479 . S
C1479 C432 1.493 . S
C1495 C531 1.845 . S
C1497 C468 1.797 . S
C1513 C563 1.844 . S
C1515 C404 1.797 . S
C1531 C499 1.845 . S
C1533 C436 1.798 . S
C1549 C21 2.224 . S
C1551 C434 2.131 . S
C1567 C53 2.224 . S
C1569 C466 2.131 . S
C1585 C402 2.131 . S
C1587 C85 2.224 . S
C1603 C213 2.224 1_556 S
C1605 C50 2.131 . S
C1621 C245 2.224 1_556 S
C1623 C82 2.131 . S
C1639 C18 2.131 . S
C1641 C277 2.224 1_556 S
C1657 C113 2.224 . S
C1659 C342 2.131 . S
C1675 C145 2.224 . S
C1677 C374 2.131 . S
C1693 C310 2.131 . S
C1695 C177 2.224 . S
C1711 C150 2.131 . S
C1713 C497 2.224 1_554 S
C1729 C529 2.224 1_554 S
C1731 C182 2.131 . S
C1747 C561 2.224 1_554 S
C1749 C118 2.131 . S
C1765 C242 2.131 . S
C1767 C405 2.224 . S
C1783 C274 2.131 . S
C1785 C437 2.224 . S
C1801 C469 2.224 . S
C1803 C210 2.131 . S
C1819 C305 2.224 . S
C1821 C534 2.131 . S
C1837 C337 2.224 . S
C1839 C566 2.131 1_545 S
C1855 C369 2.224 . S
C1857 C502 2.131 . S
