# Generated by pormake.
# Topology crs, (6)-cn, num edge types: 1
# Building blocks:
#     Node 0, Type 0, BuildingBlock: NUHQIS_clean_sbu_0, # of connection points: 6
#     Node 1, Type 0, BuildingBlock: NUHQIS_clean_sbu_0, # of connection points: 6
#     Node 2, Type 0, BuildingBlock: NUHQIS_clean_sbu_0, # of connection points: 6
#     Node 3, Type 0, BuildingBlock: NUHQIS_clean_sbu_0, # of connection points: 6
#     Node 4, Type 0, BuildingBlock: NUHQIS_clean_sbu_0, # of connection points: 6
#     Node 5, Type 0, BuildingBlock: NUHQIS_clean_sbu_0, # of connection points: 6
#     Node 6, Type 0, BuildingBlock: NUHQIS_clean_sbu_0, # of connection points: 6
#     Node 7, Type 0, BuildingBlock: NUHQIS_clean_sbu_0, # of connection points: 6
#     Node 8, Type 0, BuildingBlock: NUHQIS_clean_sbu_0, # of connection points: 6
#     Node 9, Type 0, BuildingBlock: NUHQIS_clean_sbu_0, # of connection points: 6
#     Node 10, Type 0, BuildingBlock: NUHQIS_clean_sbu_0, # of connection points: 6
#     Node 11, Type 0, BuildingBlock: NUHQIS_clean_sbu_0, # of connection points: 6
#     Node 12, Type 0, BuildingBlock: NUHQIS_clean_sbu_0, # of connection points: 6
#     Node 13, Type 0, BuildingBlock: NUHQIS_clean_sbu_0, # of connection points: 6
#     Node 14, Type 0, BuildingBlock: NUHQIS_clean_sbu_0, # of connection points: 6
#     Node 15, Type 0, BuildingBlock: NUHQIS_clean_sbu_0, # of connection points: 6
#     Edge 16, Type (0, 0), BuildingBlock: XUDNAN_clean_linker_2, # of connection points: 2
#     Edge 17, Type (0, 0), BuildingBlock: XUDNAN_clean_linker_2, # of connection points: 2
#     Edge 18, Type (0, 0), BuildingBlock: XUDNAN_clean_linker_2, # of connection points: 2
#     Edge 19, Type (0, 0), BuildingBlock: XUDNAN_clean_linker_2, # of connection points: 2
#     Edge 20, Type (0, 0), BuildingBlock: XUDNAN_clean_linker_2, # of connection points: 2
#     Edge 21, Type (0, 0), BuildingBlock: XUDNAN_clean_linker_2, # of connection points: 2
#     Edge 22, Type (0, 0), BuildingBlock: XUDNAN_clean_linker_2, # of connection points: 2
#     Edge 23, Type (0, 0), BuildingBlock: XUDNAN_clean_linker_2, # of connection points: 2
#     Edge 24, Type (0, 0), BuildingBlock: XUDNAN_clean_linker_2, # of connection points: 2
#     Edge 25, Type (0, 0), BuildingBlock: XUDNAN_clean_linker_2, # of connection points: 2
#     Edge 26, Type (0, 0), BuildingBlock: XUDNAN_clean_linker_2, # of connection points: 2
#     Edge 27, Type (0, 0), BuildingBlock: XUDNAN_clean_linker_2, # of connection points: 2
#     Edge 28, Type (0, 0), BuildingBlock: XUDNAN_clean_linker_2, # of connection points: 2
#     Edge 29, Type (0, 0), BuildingBlock: XUDNAN_clean_linker_2, # of connection points: 2
#     Edge 30, Type (0, 0), BuildingBlock: XUDNAN_clean_linker_2, # of connection points: 2
#     Edge 31, Type (0, 0), BuildingBlock: XUDNAN_clean_linker_2, # of connection points: 2
#     Edge 32, Type (0, 0), BuildingBlock: XUDNAN_clean_linker_2, # of connection points: 2
#     Edge 33, Type (0, 0), BuildingBlock: XUDNAN_clean_linker_2, # of connection points: 2
#     Edge 34, Type (0, 0), BuildingBlock: XUDNAN_clean_linker_2, # of connection points: 2
#     Edge 35, Type (0, 0), BuildingBlock: XUDNAN_clean_linker_2, # of connection points: 2
#     Edge 36, Type (0, 0), BuildingBlock: XUDNAN_clean_linker_2, # of connection points: 2
#     Edge 37, Type (0, 0), BuildingBlock: XUDNAN_clean_linker_2, # of connection points: 2
#     Edge 38, Type (0, 0), BuildingBlock: XUDNAN_clean_linker_2, # of connection points: 2
#     Edge 39, Type (0, 0), BuildingBlock: XUDNAN_clean_linker_2, # of connection points: 2
#     Edge 40, Type (0, 0), BuildingBlock: XUDNAN_clean_linker_2, # of connection points: 2
#     Edge 41, Type (0, 0), BuildingBlock: XUDNAN_clean_linker_2, # of connection points: 2
#     Edge 42, Type (0, 0), BuildingBlock: XUDNAN_clean_linker_2, # of connection points: 2
#     Edge 43, Type (0, 0), BuildingBlock: XUDNAN_clean_linker_2, # of connection points: 2
#     Edge 44, Type (0, 0), BuildingBlock: XUDNAN_clean_linker_2, # of connection points: 2
#     Edge 45, Type (0, 0), BuildingBlock: XUDNAN_clean_linker_2, # of connection points: 2
#     Edge 46, Type (0, 0), BuildingBlock: XUDNAN_clean_linker_2, # of connection points: 2
#     Edge 47, Type (0, 0), BuildingBlock: XUDNAN_clean_linker_2, # of connection points: 2
#     Edge 48, Type (0, 0), BuildingBlock: XUDNAN_clean_linker_2, # of connection points: 2
#     Edge 49, Type (0, 0), BuildingBlock: XUDNAN_clean_linker_2, # of connection points: 2
#     Edge 50, Type (0, 0), BuildingBlock: XUDNAN_clean_linker_2, # of connection points: 2
#     Edge 51, Type (0, 0), BuildingBlock: XUDNAN_clean_linker_2, # of connection points: 2
#     Edge 52, Type (0, 0), BuildingBlock: XUDNAN_clean_linker_2, # of connection points: 2
#     Edge 53, Type (0, 0), BuildingBlock: XUDNAN_clean_linker_2, # of connection points: 2
#     Edge 54, Type (0, 0), BuildingBlock: XUDNAN_clean_linker_2, # of connection points: 2
#     Edge 55, Type (0, 0), BuildingBlock: XUDNAN_clean_linker_2, # of connection points: 2
#     Edge 56, Type (0, 0), BuildingBlock: XUDNAN_clean_linker_2, # of connection points: 2
#     Edge 57, Type (0, 0), BuildingBlock: XUDNAN_clean_linker_2, # of connection points: 2
#     Edge 58, Type (0, 0), BuildingBlock: XUDNAN_clean_linker_2, # of connection points: 2
#     Edge 59, Type (0, 0), BuildingBlock: XUDNAN_clean_linker_2, # of connection points: 2
#     Edge 60, Type (0, 0), BuildingBlock: XUDNAN_clean_linker_2, # of connection points: 2
#     Edge 61, Type (0, 0), BuildingBlock: XUDNAN_clean_linker_2, # of connection points: 2
#     Edge 62, Type (0, 0), BuildingBlock: XUDNAN_clean_linker_2, # of connection points: 2
#     Edge 63, Type (0, 0), BuildingBlock: XUDNAN_clean_linker_2, # of connection points: 2
# Relax obj value: 0.463
# Max RMSD: 0.364
# Mean RMSD: 0.312
data_MOF--net-crs--node1-NUHQIS_clean_sbu_0--edge1-XUDNAN_clean_linker_2
_symmetry_space_group_name_H-M    P1
_symmetry_Int_Tables_number       1
_symmetry_cell_setting            triclinic
loop_
_symmetry_equiv_pos_as_xyz
'x, y, z'
_cell_length_a     51.50263
_cell_length_b     57.602485
_cell_length_c     44.277662
_cell_angle_alpha  74.649643
_cell_angle_beta   75.832017
_cell_angle_gamma 66.059106
loop_
_atom_site_label
_atom_site_type_symbol
_atom_site_fract_x
_atom_site_fract_y
_atom_site_fract_z
_atom_type_partial_charge
Tb0 Tb 0.00066 1.01222 1.00226 0.0
Eu1 Eu -0.00138 0.05561 0.93617 0.0
C2 C 0.05474 0.02529 0.96748 0.0
C3 C -0.00366 0.06837 1.00412 0.0
C4 C -0.01713 0.96031 0.05543 0.0
C5 C -0.02197 0.9203 0.05427 0.0
C6 C -0.00498 0.93357 0.05594 0.0
C7 C 0.95311 0.97322 0.05544 0.0
C8 C 0.93622 0.96 0.05384 0.0
C9 C 0.9487 0.93367 0.05198 0.0
C10 C 0.00169 0.97536 0.04791 0.0
O11 O 0.95515 0.03499 1.00294 0.0
O12 O 0.95468 0.05351 0.94996 0.0
O13 O 0.01348 1.01648 0.92356 0.0
O14 O -0.01136 0.99939 0.96739 0.0
C15 C 0.94156 0.04774 0.97866 0.0
O16 O -0.02315 0.09247 0.90704 0.0
O17 O 0.01814 0.06639 0.8877 0.0
O18 O 0.03892 0.04816 0.95399 0.0
O19 O 0.04454 1.00666 0.97823 0.0
O20 O 0.00486 0.04363 0.01726 0.0
O21 O -0.01108 0.07705 0.97566 0.0
C22 C 0.00136 0.99957 0.93786 0.0
O23 O 0.01923 0.97273 0.02119 0.0
O24 O -0.01072 0.99956 0.05097 0.0
C25 C 0.0102 0.11085 0.8771 0.0
C26 C 0.02607 0.1523 0.87601 0.0
C27 C 0.00083 0.15694 0.8648 0.0
C28 C -0.00712 0.13627 0.86546 0.0
C29 C 0.03629 0.10623 0.88643 0.0
C30 C 0.0442 0.12674 0.88571 0.0
C31 C -0.00097 0.08992 0.88453 0.0
H32 H -0.01181 0.89999 0.05283 0.0
H33 H 0.01796 0.9233 0.05548 0.0
H34 H 0.94304 0.99387 0.05474 0.0
H35 H 0.91354 0.97065 0.0528 0.0
H36 H -0.01344 0.17652 0.85717 0.0
H37 H 0.97252 0.1402 0.85849 0.0
H38 H 0.04997 0.08686 0.89581 0.0
H39 H 0.0641 0.12264 0.89385 0.0
Tb40 Tb -0.0166 0.28024 0.28494 0.0
Eu41 Eu 0.95913 0.25928 0.23827 0.0
C42 C 0.01446 0.22268 0.27274 0.0
C43 C 0.00813 0.28129 0.21229 0.0
C44 C -0.00872 0.31616 0.34028 0.0
C45 C -0.00813 0.32184 0.39254 0.0
C46 C -0.00092 0.30583 0.37062 0.0
C47 C 0.97556 0.34285 0.33247 0.0
C48 C 0.96853 0.35891 0.35435 0.0
C49 C -0.02307 0.34861 0.38447 0.0
C50 C 0.00206 0.29934 0.31636 0.0
O51 O 0.93944 0.30665 0.28291 0.0
O52 O 0.93644 0.30281 0.23381 0.0
O53 O 0.92981 0.25853 0.28471 0.0
O54 O 0.95652 0.26071 0.31825 0.0
C55 C 0.92795 0.31602 0.25689 0.0
O56 O 0.94833 0.26338 0.19199 0.0
O57 O 0.9404 0.23372 0.23078 0.0
O58 O -0.00732 0.22395 0.26109 0.0
O59 O 0.01681 0.2431 0.27811 0.0
O60 O -0.00314 0.29463 0.23523 0.0
O61 O 0.00128 0.26173 0.21267 0.0
C62 C 0.93523 0.25592 0.31315 0.0
O63 O 0.00063 0.27637 0.32534 0.0
O64 O -0.00456 0.31004 0.28807 0.0
C65 C 0.95272 0.22423 0.17924 0.0
C66 C 0.97365 0.18873 0.13756 0.0
C67 C 0.94701 0.1923 0.15749 0.0
C68 C 0.93665 0.20992 0.17805 0.0
C69 C -0.0203 0.22026 0.16001 0.0
C70 C -0.01 0.20276 0.13925 0.0
C71 C 0.94081 0.24319 0.20054 0.0
H72 H -0.00102 0.31337 0.41542 0.0
H73 H 0.01149 0.28542 0.37712 0.0
H74 H 0.96926 0.35147 0.30923 0.0
H75 H 0.95678 0.37943 0.34759 0.0
H76 H 0.93374 0.18205 0.15651 0.0
H77 H 0.91583 0.21263 0.19277 0.0
H78 H -0.00731 0.23085 0.16079 0.0
H79 H 0.01073 0.20024 0.12444 0.0
Tb80 Tb 0.73441 0.27706 0.53675 0.0
Eu81 Eu 0.70697 0.26292 0.48773 0.0
C82 C 0.66901 0.2864 0.54759 0.0
C83 C 0.72434 0.22254 0.55276 0.0
C84 C 0.77539 0.29871 0.57497 0.0
C85 C 0.79583 0.31845 0.60019 0.0
C86 C 0.77564 0.30773 0.60125 0.0
C87 C 0.79576 0.30015 0.54766 0.0
C88 C 0.81607 0.31081 0.5466 0.0
C89 C 0.81617 0.32027 0.57279 0.0
C90 C 0.75323 0.28858 0.57615 0.0
O91 O 0.77274 0.25753 0.5059 0.0
O92 O 0.75266 0.25597 0.46563 0.0
O93 O 0.70247 0.30495 0.4703 0.0
O94 O 0.73695 0.30667 0.49317 0.0
C95 C 0.77488 0.25262 0.47792 0.0
O96 O 0.71171 0.24158 0.45166 0.0
O97 O 0.6704 0.27074 0.46497 0.0
O98 O 0.67414 0.26857 0.53153 0.0
O99 O 0.68802 0.29681 0.54487 0.0
O100 O 0.72578 0.2414 0.56339 0.0
O101 O 0.72184 0.22559 0.52291 0.0
C102 C 0.71968 0.31641 0.47149 0.0
O103 O 0.73151 0.30443 0.5619 0.0
O104 O 0.76236 0.26546 0.56987 0.0
C105 C 0.6708 0.23443 0.44934 0.0
C106 C 0.64879 0.19686 0.44995 0.0
C107 C 0.65898 0.21022 0.42108 0.0
C108 C 0.66985 0.22886 0.42083 0.0
C109 C 0.66046 0.22141 0.47825 0.0
C110 C 0.64941 0.20283 0.47855 0.0
C111 C 0.68462 0.25236 0.44851 0.0
H112 H 0.79495 0.32598 0.62055 0.0
H113 H 0.75991 0.30686 0.62243 0.0
H114 H 0.79578 0.29327 0.52712 0.0
H115 H 0.8316 0.3117 0.52526 0.0
H116 H 0.65928 0.20581 0.39867 0.0
H117 H 0.67813 0.23854 0.39835 0.0
H118 H 0.66132 0.22537 0.50052 0.0
H119 H 0.64141 0.19313 0.50116 0.0
Tb120 Tb 0.71227 1.01186 0.75206 0.0
Eu121 Eu 0.7365 0.03603 0.79261 0.0
C122 C 0.77771 0.99135 0.75495 0.0
C123 C 0.7233 0.98343 0.82537 0.0
C124 C 0.68508 0.99686 0.69136 0.0
C125 C 0.68049 0.98218 0.64714 0.0
C126 C 0.69152 0.97699 0.67499 0.0
C127 C 0.66836 0.02228 0.67897 0.0
C128 C 0.6571 0.02748 0.65115 0.0
C129 C 0.66271 1.00737 0.63527 0.0
C130 C 0.69613 0.99042 0.7212 0.0
O131 O 0.6765 0.04703 0.76231 0.0
O132 O 0.68881 0.04834 0.80765 0.0
O133 O 0.73461 0.06288 0.74383 0.0
O134 O 0.71362 0.04699 0.71776 0.0
C135 C 0.67013 0.05629 0.78832 0.0
O136 O 0.72678 0.06172 0.8254 0.0
O137 O 0.77086 0.04407 0.80332 0.0
O138 O 0.77266 0.9994 0.78154 0.0
O139 O 0.75824 1.00099 0.73629 0.0
O140 O 0.71454 0.98482 0.79893 0.0
O141 O 0.73242 1.00098 0.82817 0.0
C142 C 0.72389 0.06438 0.71885 0.0
O143 O 0.72258 0.98861 0.71837 0.0
O144 O 0.67941 1.00264 0.74386 0.0
C145 C 0.76311 0.054 0.85469 0.0
C146 C 0.78326 0.05279 0.90899 0.0
C147 C 0.75489 0.0684 0.90426 0.0
C148 C 0.74497 0.06908 0.87729 0.0
C149 C 0.79089 0.03717 0.86035 0.0
C150 C 0.80086 0.03656 0.88728 0.0
C151 C 0.75365 0.05807 0.82423 0.0
H152 H 0.6848 0.96623 0.63575 0.0
H153 H 0.70461 0.9573 0.68415 0.0
H154 H 0.66356 0.03795 0.69108 0.0
H155 H 0.64354 0.04709 0.64241 0.0
H156 H 0.74079 0.08095 0.92069 0.0
H157 H 0.72345 0.08226 0.87347 0.0
H158 H 0.80541 0.02534 0.84335 0.0
H159 H 0.82299 0.02459 0.88996 0.0
Tb160 Tb 0.48721 0.77488 0.29568 0.0
Eu161 Eu 0.46392 0.76758 0.23611 0.0
C162 C 0.51089 0.71987 0.27519 0.0
C163 C 0.51714 0.78418 0.22682 0.0
C164 C 0.49574 0.80357 0.35844 0.0
C165 C 0.50327 0.83936 0.3697 0.0
C166 C 0.50982 0.82128 0.35065 0.0
C167 C 0.47483 0.80443 0.38578 0.0
C168 C 0.46835 0.8225 0.40498 0.0
C169 C 0.48264 0.84008 0.39725 0.0
C170 C 0.50452 0.78352 0.33889 0.0
O171 O 0.46209 0.81398 0.27358 0.0
O172 O 0.43333 0.80576 0.24847 0.0
O173 O 0.44414 0.74846 0.28189 0.0
O174 O 0.44425 0.77426 0.31327 0.0
C175 C 0.43917 0.82157 0.25997 0.0
O176 O 0.47338 0.76059 0.18778 0.0
O177 O 0.4305 0.76696 0.21441 0.0
O178 O 0.49984 0.73026 0.24882 0.0
O179 O 0.50608 0.73298 0.29763 0.0
O180 O 0.521 0.77046 0.25517 0.0
O181 O 0.49312 0.79029 0.21624 0.0
C182 C 0.4344 0.7582 0.30793 0.0
O183 O 0.48911 0.76918 0.34424 0.0
O184 O 0.51243 0.79035 0.30865 0.0
C185 C 0.4475 0.73856 0.17781 0.0
C186 C 0.44688 0.69691 0.15617 0.0
C187 C 0.44824 0.7194 0.13468 0.0
C188 C 0.44847 0.74006 0.14545 0.0
C189 C 0.44669 0.71597 0.19931 0.0
C190 C 0.44625 0.69538 0.1886 0.0
C191 C 0.44797 0.76044 0.1886 0.0
H192 H 0.51506 0.85227 0.36333 0.0
H193 H 0.52636 0.82087 0.33003 0.0
H194 H 0.46372 0.79095 0.39262 0.0
H195 H 0.4522 0.82267 0.42593 0.0
H196 H 0.44852 0.72124 0.10963 0.0
H197 H 0.44929 0.75729 0.1285 0.0
H198 H 0.44635 0.71429 0.22436 0.0
H199 H 0.4456 0.67817 0.20568 0.0
Tb200 Tb 0.23485 0.77425 0.53586 0.0
Eu201 Eu 0.20092 0.76465 0.48984 0.0
C202 C 0.16941 0.7828 0.55467 0.0
C203 C 0.22307 0.72032 0.55086 0.0
C204 C 0.28097 0.79059 0.57542 0.0
C205 C 0.30605 0.82065 0.55582 0.0
C206 C 0.28653 0.81069 0.55229 0.0
C207 C 0.29595 0.77989 0.60131 0.0
C208 C 0.31551 0.78972 0.60478 0.0
C209 C 0.32036 0.81054 0.58242 0.0
C210 C 0.25842 0.78152 0.57447 0.0
O211 O 0.26999 0.75732 0.49984 0.0
O212 O 0.24495 0.75876 0.46234 0.0
O213 O 0.19545 0.80712 0.47725 0.0
O214 O 0.23437 0.80625 0.49416 0.0
C215 C 0.26894 0.75466 0.47163 0.0
O216 O 0.1983 0.74521 0.45535 0.0
O217 O 0.16238 0.77949 0.46771 0.0
O218 O 0.17222 0.76697 0.53669 0.0
O219 O 0.1888 0.79308 0.55075 0.0
O220 O 0.22741 0.73778 0.5614 0.0
O221 O 0.21668 0.72545 0.5221 0.0
C222 C 0.21392 0.81794 0.47611 0.0
O223 O 0.23562 0.79867 0.56299 0.0
O224 O 0.26681 0.75966 0.56501 0.0
C225 C 0.15215 0.75033 0.44797 0.0
C226 C 0.11629 0.72846 0.4369 0.0
C227 C 0.11739 0.75206 0.41837 0.0
C228 C 0.13519 0.76287 0.42387 0.0
C229 C 0.15047 0.72724 0.46735 0.0
C230 C 0.1326 0.71637 0.46185 0.0
C231 C 0.17235 0.76124 0.45103 0.0
H232 H 0.30964 0.83649 0.53802 0.0
H233 H 0.2753 0.8191 0.53199 0.0
H234 H 0.29185 0.76439 0.6194 0.0
H235 H 0.32593 0.78172 0.62568 0.0
H236 H 0.10474 0.76201 0.39933 0.0
H237 H 0.13619 0.78079 0.40882 0.0
H238 H 0.16343 0.71736 0.48613 0.0
H239 H 0.13232 0.69807 0.47637 0.0
Tb240 Tb 0.20039 0.51343 0.74524 0.0
Eu241 Eu 0.22953 0.52992 0.7882 0.0
C242 C 0.2681 0.48582 0.74617 0.0
C243 C 0.21098 0.48077 0.81473 0.0
C244 C 0.18238 0.48909 0.68506 0.0
C245 C 0.19131 0.49579 0.62753 0.0
C246 C 0.19057 0.50301 0.65559 0.0
C247 C 0.17708 0.46688 0.68615 0.0
C248 C 0.17788 0.45963 0.65823 0.0
C249 C 0.1839 0.47457 0.62859 0.0
C250 C 0.17666 0.49832 0.7148 0.0
O251 O 0.1672 0.54831 0.75947 0.0
O252 O 0.18201 0.54572 0.80502 0.0
O253 O 0.22169 0.56252 0.74412 0.0
O254 O 0.21936 0.53974 0.71033 0.0
C255 C 0.16231 0.55548 0.78662 0.0
O256 O 0.22879 0.5372 0.83427 0.0
O257 O 0.25954 0.5457 0.79379 0.0
O258 O 0.26729 0.49925 0.76633 0.0
O259 O 0.24532 0.48932 0.73461 0.0
O260 O 0.19229 0.49316 0.79467 0.0
O261 O 0.23143 0.48927 0.81335 0.0
C262 C 0.22145 0.5606 0.71511 0.0
O263 O 0.19237 0.48309 0.73633 0.0
O264 O 0.17253 0.5225 0.71283 0.0
C265 C 0.27459 0.52925 0.84385 0.0
C266 C 0.31981 0.50545 0.87937 0.0
C267 C 0.29407 0.52424 0.89061 0.0
C268 C 0.27164 0.53614 0.87286 0.0
C269 C 0.29945 0.50915 0.83366 0.0
C270 C 0.32206 0.49745 0.85123 0.0
C271 C 0.25166 0.54325 0.82451 0.0
H272 H 0.19622 0.50755 0.60503 0.0
H273 H 0.19512 0.52009 0.65418 0.0
H274 H 0.1708 0.45587 0.70867 0.0
H275 H 0.1716 0.44344 0.66003 0.0
H276 H 0.29201 0.53102 0.91201 0.0
H277 H 0.25239 0.55135 0.88122 0.0
H278 H 0.3018 0.50315 0.81161 0.0
H279 H 0.34176 0.48303 0.84215 0.0
Tb280 Tb -0.01849 0.48316 0.56839 0.0
Eu281 Eu -0.01658 0.52279 0.49935 0.0
C282 C 0.04011 0.48597 0.52876 0.0
C283 C -0.01556 0.53698 0.56449 0.0
C284 C 0.95509 0.43833 0.62445 0.0
C285 C 0.94975 0.39792 0.62617 0.0
C286 C 0.96529 0.41119 0.63145 0.0
C287 C 0.9279 0.45195 0.61485 0.0
C288 C 0.91261 0.43876 0.6093 0.0
C289 C 0.92404 0.41171 0.61351 0.0
C290 C 0.97532 0.45182 0.61839 0.0
O291 O 0.93703 0.5085 0.56317 0.0
O292 O 0.94147 0.51769 0.50913 0.0
O293 O -0.00792 0.48394 0.48774 0.0
O294 O 0.97224 0.46631 0.53611 0.0
C295 C 0.92609 0.51461 0.53705 0.0
O296 O 0.96258 0.55972 0.46989 0.0
O297 O 0.00419 0.5334 0.45149 0.0
O298 O 0.02661 0.50913 0.5137 0.0
O299 O 0.0264 0.47077 0.54582 0.0
O300 O -0.00614 0.51228 0.57707 0.0
O301 O 0.97299 0.54544 0.53831 0.0
C302 C -0.01801 0.4663 0.50585 0.0
O303 O -0.00395 0.44549 0.59487 0.0
O304 O 0.96396 0.47687 0.61672 0.0
C305 C -0.00355 0.57754 0.44045 0.0
C306 C 0.01673 0.61809 0.42916 0.0
C307 C -0.00032 0.61791 0.4088 0.0
C308 C -0.01042 0.59773 0.41445 0.0
C309 C 0.01333 0.57769 0.46083 0.0
C310 C 0.02351 0.59768 0.45516 0.0
C311 C -0.01497 0.55688 0.44769 0.0
H312 H 0.95895 0.37701 0.62953 0.0
H313 H -0.01364 0.40029 0.63838 0.0
H314 H 0.91945 0.47287 0.60899 0.0
H315 H 0.89265 0.44978 0.59986 0.0
H316 H -0.00614 0.6335 0.38876 0.0
H317 H -0.02375 0.59799 0.39876 0.0
H318 H 0.0186 0.56232 0.48123 0.0
H319 H 0.03701 0.59692 0.47098 0.0
Tb320 Tb 0.23272 0.27878 0.04327 0.0
Eu321 Eu 0.2138 0.26176 0.98956 0.0
C322 C 0.16648 0.28869 0.04491 0.0
C323 C 0.22056 0.22484 0.05799 0.0
C324 C 0.26917 0.29895 0.09059 0.0
C325 C 0.28928 0.3098 0.12658 0.0
C326 C 0.2702 0.30022 0.12136 0.0
C327 C 0.28706 0.30778 0.06483 0.0
C328 C 0.30619 0.31746 0.07003 0.0
C329 C 0.30771 0.31826 0.10104 0.0
C330 C 0.25025 0.28713 0.08641 0.0
O331 O 0.26825 0.27347 1.00434 0.0
O332 O 0.26151 0.24236 0.98818 0.0
O333 O 0.21675 0.30099 0.96679 0.0
O334 O 0.22451 0.31502 1.00673 0.0
C335 C 0.278 0.25433 0.98906 0.0
O336 O 0.21543 0.23244 0.96563 0.0
O337 O 0.19723 0.27304 0.94511 0.0
O338 O 0.17137 0.27961 0.01901 0.0
O339 O 0.18673 0.28926 0.05753 0.0
O340 O 0.23485 0.23791 0.06279 0.0
O341 O 0.20681 0.2332 0.03354 0.0
C342 C 0.21956 0.319 0.9774 0.0
O343 O 0.2268 0.30265 0.07495 0.0
O344 O 0.26287 0.26638 0.07393 0.0
C345 C 0.17808 0.24575 0.9357 0.0
C346 C 0.1312 0.24119 0.91951 0.0
C347 C 0.15528 0.24185 0.89653 0.0
C348 C 0.17854 0.24413 0.90461 0.0
C349 C 0.15409 0.24527 0.95877 0.0
C350 C 0.1308 0.24291 0.95074 0.0
C351 C 0.20204 0.24947 0.94313 0.0
H352 H 0.28957 0.31062 0.15065 0.0
H353 H 0.25647 0.29348 0.14146 0.0
H354 H 0.28653 0.30679 0.0409 0.0
H355 H 0.32023 0.32374 0.04992 0.0
H356 H 0.15643 0.24007 0.87245 0.0
H357 H 0.1969 0.24467 0.88654 0.0
H358 H 0.15336 0.24686 0.98284 0.0
H359 H 0.11245 0.24253 0.96887 0.0
Tb360 Tb 0.20998 1.00971 0.24457 0.0
Eu361 Eu 0.23607 0.02883 0.28828 0.0
C362 C 0.27557 0.98685 0.249 0.0
C363 C 0.2157 0.97929 0.31613 0.0
C364 C 0.18119 0.99814 0.18094 0.0
C365 C 0.1718 0.02463 0.12916 0.0
C366 C 0.1798 0.02093 0.15868 0.0
C367 C 0.17379 0.97955 0.17389 0.0
C368 C 0.16607 0.98312 0.14452 0.0
C369 C 0.16557 1.00539 0.12161 0.0
C370 C 0.19291 0.99176 0.21033 0.0
O371 O 0.17701 0.04606 0.25555 0.0
O372 O 0.1884 0.04109 0.30388 0.0
O373 O 0.22964 0.06117 0.24429 0.0
O374 O 0.22293 0.04047 0.21069 0.0
C375 C 0.17043 0.05271 0.2834 0.0
O376 O 0.23303 0.05895 0.31155 0.0
O377 O 0.26946 0.02254 0.31492 0.0
O378 O 0.27272 1.00941 0.25312 0.0
O379 O 0.2526 0.98141 0.2522 0.0
O380 O 0.20037 0.98851 0.29269 0.0
O381 O 0.23389 0.98979 0.3174 0.0
C382 C 0.22652 0.06056 0.21583 0.0
O383 O 0.21926 0.99057 0.207 0.0
O384 O 0.17633 1.00282 0.23396 0.0
C385 C 0.25584 0.04548 0.35733 0.0
C386 C 0.26301 0.05256 0.41493 0.0
C387 C 0.23953 0.07004 0.39983 0.0
C388 C 0.23603 0.06659 0.37119 0.0
C389 C 0.27794 0.02698 0.3737 0.0
C390 C 0.28146 0.03043 0.40221 0.0
C391 C 0.25627 0.04478 0.32413 0.0
H392 H 0.17146 0.042 0.1119 0.0
H393 H 0.18563 0.03541 0.1638 0.0
H394 H 0.17481 0.96185 0.19081 0.0
H395 H 0.1608 0.96823 0.13956 0.0
H396 H 0.22483 0.08714 0.40919 0.0
H397 H 0.21878 0.08124 0.3591 0.0
H398 H 0.2937 1.01063 0.36352 0.0
H399 H 0.30009 1.01677 0.41282 0.0
Tb400 Tb 0.48379 0.28439 0.79117 0.0
Eu401 Eu 0.46009 0.26108 0.74617 0.0
C402 C 0.51523 0.22665 0.77782 0.0
C403 C 0.50952 0.28495 0.71825 0.0
C404 C 0.49724 0.31545 0.84955 0.0
C405 C 0.50968 0.32143 0.89568 0.0
C406 C 0.51338 0.3059 0.8744 0.0
C407 C 0.47677 0.34078 0.84659 0.0
C408 C 0.473 0.35643 0.86802 0.0
C409 C 0.4896 0.34696 0.89271 0.0
C410 C 0.50418 0.29897 0.8261 0.0
O411 O 0.45128 0.31867 0.76897 0.0
O412 O 0.42651 0.3 0.75204 0.0
O413 O 0.44717 0.24735 0.79801 0.0
O414 O 0.44334 0.28174 0.8174 0.0
C415 C 0.42934 0.32023 0.75722 0.0
O416 O 0.44579 0.26187 0.7032 0.0
O417 O 0.44271 0.23263 0.74483 0.0
O418 O 0.50463 0.23292 0.7515 0.0
O419 O 0.50537 0.24219 0.79854 0.0
O420 O 0.5138 0.28246 0.74717 0.0
O421 O 0.48841 0.28061 0.71205 0.0
C422 C 0.43671 0.26156 0.82 0.0
O423 O 0.49653 0.27892 0.83501 0.0
O424 O 0.50078 0.31022 0.79688 0.0
C425 C 0.44739 0.22205 0.69537 0.0
C426 C 0.46154 0.18501 0.65737 0.0
C427 C 0.43368 0.19452 0.67437 0.0
C428 C 0.42672 0.21286 0.69315 0.0
C429 C 0.47537 0.21248 0.67884 0.0
C430 C 0.48237 0.19413 0.65986 0.0
C431 C 0.43901 0.24144 0.71531 0.0
H432 H 0.52327 0.3136 0.91391 0.0
H433 H 0.5295 0.28652 0.87688 0.0
H434 H 0.46408 0.34857 0.82751 0.0
H435 H 0.4572 0.37592 0.86522 0.0
H436 H 0.41702 0.18824 0.6726 0.0
H437 H 0.40502 0.22003 0.70581 0.0
H438 H 0.49168 0.21923 0.68053 0.0
H439 H 0.50408 0.18701 0.64727 0.0
Tb440 Tb 0.97456 0.77906 0.79516 0.0
Eu441 Eu 0.95562 0.7622 0.73944 0.0
C442 C 0.00222 0.72078 0.78391 0.0
C443 C 0.00848 0.77991 0.72639 0.0
C444 C -0.01265 0.81702 0.84335 0.0
C445 C -0.00659 0.83933 0.8791 0.0
C446 C -0.00715 0.81702 0.87281 0.0
C447 C -0.01815 0.83975 0.82034 0.0
C448 C -0.01749 0.86209 0.82655 0.0
C449 C -0.01144 0.86205 0.85592 0.0
C450 C -0.01258 0.79316 0.83721 0.0
O451 O 0.93703 0.81175 0.78065 0.0
O452 O 0.93754 0.8058 0.73108 0.0
O453 O 0.92032 0.76653 0.7813 0.0
O454 O 0.94873 0.75573 0.81905 0.0
C455 C 0.92899 0.82047 0.75255 0.0
O456 O 0.95589 0.76338 0.6896 0.0
O457 O 0.9324 0.74288 0.72647 0.0
O458 O -0.01634 0.7247 0.7656 0.0
O459 O 0.0039 0.7394 0.79444 0.0
O460 O -0.00461 0.79349 0.74905 0.0
O461 O 0.00047 0.76177 0.7237 0.0
C462 C 0.92483 0.75822 0.81079 0.0
O463 O 0.96228 0.79245 0.83813 0.0
O464 O 0.00576 0.78391 0.81325 0.0
C465 C 0.95273 0.72629 0.67942 0.0
C466 C 0.97195 0.68197 0.6519 0.0
C467 C 0.94426 0.70088 0.64957 0.0
C468 C 0.93479 0.7228 0.66321 0.0
C469 C -0.01936 0.70793 0.68115 0.0
C470 C -0.00979 0.68601 0.66742 0.0
C471 C 0.94131 0.74819 0.69615 0.0
H472 H -0.00156 0.83857 0.90179 0.0
H473 H -0.00297 0.79963 0.89088 0.0
H474 H -0.02274 0.84014 0.79755 0.0
H475 H -0.02167 0.87938 0.80836 0.0
H476 H 0.92942 0.69829 0.63832 0.0
H477 H 0.91309 0.7367 0.66185 0.0
H478 H -0.00521 0.71027 0.69369 0.0
H479 H 0.01177 0.67205 0.66936 0.0
Tb480 Tb 0.72735 0.51558 0.24857 0.0
Eu481 Eu 0.73868 0.53223 0.30709 0.0
C482 C 0.78664 0.49152 0.26952 0.0
C483 C 0.72651 0.4792 0.3191 0.0
C484 C 0.71036 0.50899 0.17474 0.0
C485 C 0.70369 0.50159 0.12643 0.0
C486 C 0.71981 0.49455 0.15067 0.0
C487 C 0.68564 0.53153 0.17347 0.0
C488 C 0.66941 0.53859 0.14923 0.0
C489 C 0.67783 0.52317 0.12609 0.0
C490 C 0.72556 0.49926 0.20192 0.0
O491 O 0.68371 0.5391 0.26615 0.0
O492 O 0.6936 0.55836 0.29905 0.0
O493 O 0.74935 0.55872 0.26069 0.0
O494 O 0.7214 0.55644 0.22938 0.0
C495 C 0.67567 0.55652 0.28405 0.0
O496 O 0.72288 0.54722 0.35098 0.0
O497 O 0.76667 0.54203 0.3273 0.0
O498 O 0.77591 0.4952 0.29856 0.0
O499 O 0.77263 0.50726 0.24678 0.0
O500 O 0.7298 0.48204 0.28787 0.0
O501 O 0.72599 0.49742 0.33234 0.0
C502 C 0.73619 0.5683 0.23538 0.0
O503 O 0.74368 0.50978 0.20175 0.0
O504 O 0.70988 0.4965 0.22962 0.0
C505 C 0.75672 0.54028 0.3828 0.0
C506 C 0.7768 0.52555 0.44119 0.0
C507 C 0.76265 0.55178 0.42881 0.0
C508 C 0.75271 0.55903 0.39988 0.0
C509 C 0.76975 0.51401 0.39546 0.0
C510 C 0.77977 0.50668 0.4245 0.0
C511 C 0.74722 0.54883 0.35183 0.0
H512 H 0.71051 0.48912 0.10922 0.0
H513 H 0.73897 0.47715 0.15138 0.0
H514 H 0.67832 0.543 0.19187 0.0
H515 H 0.64966 0.55541 0.14934 0.0
H516 H 0.76048 0.56683 0.44066 0.0
H517 H 0.74251 0.5794 0.39042 0.0
H518 H 0.77267 0.4993 0.38262 0.0
H519 H 0.79045 0.48633 0.43354 0.0
Tb520 Tb 0.74808 0.78129 0.05059 0.0
Eu521 Eu 0.70697 0.7726 1.01283 0.0
C522 C 0.68203 0.79798 0.07304 0.0
C523 C 0.73436 0.72902 0.07315 0.0
C524 C 0.79934 0.80322 0.06989 0.0
C525 C 0.82645 0.82284 0.08542 0.0
C526 C 0.80911 0.80808 0.09354 0.0
C527 C 0.80723 0.81302 0.03794 0.0
C528 C 0.82467 0.82772 0.02976 0.0
C529 C 0.83433 0.83293 0.05345 0.0
C530 C 0.7802 0.78862 0.07889 0.0
O531 O 0.77264 0.77335 1.00471 0.0
O532 O 0.7522 0.74722 0.9974 0.0
O533 O 0.71559 0.80871 0.98247 0.0
O534 O 0.7321 0.81894 0.01901 0.0
C535 C 0.77349 0.75554 0.99082 0.0
O536 O 0.69732 0.76995 0.96893 0.0
O537 O 0.6673 0.76747 1.01255 0.0
O538 O 0.67874 0.80157 0.0436 0.0
O539 O 0.70743 0.7852 0.08167 0.0
O540 O 0.75224 0.74096 0.07009 0.0
O541 O 0.71355 0.73871 0.05564 0.0
C542 C 0.72347 0.82479 0.99125 0.0
O543 O 0.7529 0.80254 0.07929 0.0
O544 O 0.78813 0.76884 0.06518 0.0
C545 C 0.66937 0.74438 0.97454 0.0
C546 C 0.65845 0.70591 0.95721 0.0
C547 C 0.68573 0.70785 0.94791 0.0
C548 C 0.6912 0.72687 0.9566 0.0
C549 C 0.64224 0.74231 0.98396 0.0
C550 C 0.63684 0.72323 0.97549 0.0
C551 C 0.67387 0.76551 0.98271 0.0
H552 H 0.83306 0.82688 0.10426 0.0
H553 H 0.80299 0.80076 0.11832 0.0
H554 H 0.79972 0.80946 0.01939 0.0
H555 H 0.83059 0.835 1.00493 0.0
H556 H 0.70282 0.69462 0.934 0.0
H557 H 0.71239 0.72798 0.94904 0.0
H558 H 0.62504 0.75572 0.99759 0.0
H559 H 0.61548 0.72245 0.9826 0.0
Tb560 Tb 0.45734 1.00624 0.55451 0.0
Eu561 Eu 0.47664 0.03252 0.48116 0.0
C562 C 0.52003 1.00569 0.53171 0.0
C563 C 0.46512 0.06033 0.5402 0.0
C564 C 0.42707 0.96325 0.61138 0.0
C565 C 0.41999 0.92341 0.63953 0.0
C566 C 0.43005 0.94306 0.63776 0.0
C567 C 0.41365 0.96377 0.58707 0.0
C568 C 0.40363 0.94431 0.5888 0.0
C569 C 0.40689 0.92378 0.61488 0.0
C570 C 0.44094 0.982 0.60673 0.0
O571 O 0.42139 1.01868 0.52935 0.0
O572 O 0.42887 0.05255 0.49283 0.0
O573 O 0.46425 1.00025 0.4778 0.0
O574 O 0.4762 0.9762 0.52576 0.0
C575 C 0.41168 0.04073 0.51006 0.0
O576 O 0.47259 0.06567 0.4424 0.0
O577 O 0.50415 0.02806 0.43532 0.0
O578 O 0.51713 1.00768 0.50239 0.0
O579 O 0.49839 1.00765 0.55504 0.0
O580 O 0.4512 0.04541 0.55831 0.0
O581 O 0.47934 0.05644 0.51188 0.0
C582 C 0.4702 0.97818 0.49781 0.0
O583 O 0.46741 0.97465 0.59213 0.0
O584 O 0.42601 1.00583 0.595 0.0
C585 C 0.51882 0.06412 0.41684 0.0
C586 C 0.55817 0.08617 0.41866 0.0
C587 C 0.53052 0.10203 0.41136 0.0
C588 C 0.5111 0.09109 0.41029 0.0
C589 C 0.54728 0.04832 0.42129 0.0
C590 C 0.56676 0.05925 0.42211 0.0
C591 C 0.49608 0.05304 0.42514 0.0
H592 H 0.42271 0.90784 0.65995 0.0
H593 H 0.4408 0.94213 0.65648 0.0
H594 H 0.41174 0.97878 0.5661 0.0
H595 H 0.39427 0.9449 0.56907 0.0
H596 H 0.52312 0.12284 0.40866 0.0
H597 H 0.48935 0.10373 0.40672 0.0
H598 H 0.5541 0.02744 0.42616 0.0
H599 H 0.58815 0.04654 0.42694 0.0
Tb600 Tb 0.47047 0.49976 0.06107 0.0
Eu601 Eu 0.49029 0.53226 0.99218 0.0
C602 C 0.53077 0.50453 0.0437 0.0
C603 C 0.46439 0.55713 0.05457 0.0
C604 C 0.44423 0.45205 0.11441 0.0
C605 C 0.42177 0.42192 0.14625 0.0
C606 C 0.43322 0.44068 0.14409 0.0
C607 C 0.44409 0.44432 0.08699 0.0
C608 C 0.43279 0.42561 0.08909 0.0
C609 C 0.42117 0.41443 0.11869 0.0
C610 C 0.45472 0.47283 0.11127 0.0
O611 O 0.44113 0.50479 0.02993 0.0
O612 O 0.44265 0.54297 0.99972 0.0
O613 O 0.48778 0.49727 0.98119 0.0
O614 O 0.49577 0.47184 0.02996 0.0
C615 C 0.43131 0.52516 1.00819 0.0
O616 O 0.48561 0.5688 0.95907 0.0
O617 O 0.51821 0.53319 0.94649 0.0
O618 O 0.52929 0.50615 1.01416 0.0
O619 O 0.50813 0.50607 0.06578 0.0
O620 O 0.45154 0.54028 0.06524 0.0
O621 O 0.48465 0.55485 0.02959 0.0
C622 C 0.49386 0.47453 1.00001 0.0
O623 O 0.48157 0.46799 0.09828 0.0
O624 O 0.43801 0.49567 0.09893 0.0
C625 C 0.53087 0.56965 0.93417 0.0
C626 C 0.57018 0.5939 0.92713 0.0
C627 C 0.55245 0.60088 0.90404 0.0
C628 C 0.53285 0.58883 0.90759 0.0
C629 C 0.54906 0.56218 0.95677 0.0
C630 C 0.56864 0.57407 0.95321 0.0
C631 C 0.50883 0.55839 0.93986 0.0
H632 H 0.41269 0.41382 0.16935 0.0
H633 H 0.43303 0.4466 0.16544 0.0
H634 H 0.45237 0.45305 0.06384 0.0
H635 H 0.43305 0.42 0.06748 0.0
H636 H 0.55296 0.61629 0.88389 0.0
H637 H 0.51878 0.59491 0.89009 0.0
H638 H 0.54766 0.54749 0.97757 0.0
H639 H 0.58225 0.56803 0.97118 0.0
H640 H -0.01464 0.06931 0.06806 0.0
H641 H 0.01127 0.10995 0.97553 0.0
H642 H 0.01298 0.14273 1.00043 0.0
H643 H 0.93791 0.12502 0.09827 0.0
H644 H 0.9461 0.11287 0.13809 0.0
H645 H 0.95035 0.09072 0.11363 0.0
H646 H 0.00366 0.06629 0.12189 0.0
H647 H -0.00064 0.08832 0.14665 0.0
H648 H 0.02738 0.08401 0.11272 0.0
H649 H 0.00895 0.17256 0.0345 0.0
H650 H -0.00322 0.1989 0.0753 0.0
H651 H 0.97182 0.14021 0.14601 0.0
C652 C -0.00825 0.08494 0.0532 0.0
C653 C -0.00189 0.08717 0.01991 0.0
C654 C 0.00603 0.10804 1.00109 0.0
C655 C 0.00731 0.12664 1.01502 0.0
C656 C 0.00039 0.12424 0.04783 0.0
C657 C -0.00736 0.10402 0.06673 0.0
C658 C -0.01597 0.10722 0.10112 0.0
C659 C 0.95274 0.10907 0.11349 0.0
C660 C 0.00485 0.08515 0.12181 0.0
C661 C -0.01269 0.13274 0.09838 0.0
C662 C -0.00264 0.14192 0.06752 0.0
C663 C 0.00135 0.16547 0.05883 0.0
C664 C -0.00551 0.18026 0.08221 0.0
C665 C -0.01658 0.17162 0.11387 0.0
C666 C -0.01985 0.14736 0.122 0.0
H667 H 0.81825 0.27094 0.46816 0.0
H668 H 0.79406 0.21588 0.44211 0.0
H669 H 0.83773 0.20591 0.40205 0.0
H670 H 0.83924 0.29764 0.39238 0.0
H671 H 0.86914 0.30293 0.3997 0.0
H672 H 0.83977 0.30181 0.43114 0.0
H673 H 0.87507 0.26529 0.46631 0.0
H674 H 0.90473 0.26645 0.43504 0.0
H675 H 0.89914 0.23636 0.45146 0.0
H676 H 0.87775 0.20746 0.35953 0.0
H677 H 0.91353 0.21955 0.31702 0.0
H678 H 0.91324 0.27356 0.36934 0.0
C679 C 0.82292 0.25604 0.45485 0.0
C680 C 0.80324 0.24382 0.45835 0.0
C681 C 0.80916 0.2252 0.43979 0.0
C682 C 0.83392 0.21936 0.41712 0.0
C683 C 0.85245 0.23239 0.41327 0.0
C684 C 0.84745 0.25025 0.43168 0.0
C685 C 0.8688 0.2639 0.41978 0.0
C686 C 0.8533 0.2933 0.41018 0.0
C687 C 0.88808 0.25761 0.44463 0.0
C688 C 0.88572 0.25166 0.39112 0.0
C689 C 0.87608 0.2333 0.38817 0.0
C690 C 0.88604 0.22128 0.36194 0.0
C691 C 0.90617 0.22839 0.33786 0.0
C692 C 0.91623 0.2472 0.34026 0.0
C693 C 0.90634 0.25862 0.36748 0.0
H694 H 0.73602 0.10929 0.7124 0.0
H695 H 0.70917 0.07047 0.66094 0.0
H696 H 0.70678 0.10583 0.61479 0.0
H697 H 0.6901 0.1748 0.68102 0.0
H698 H 0.71602 0.18918 0.67835 0.0
H699 H 0.71621 0.1607 0.70774 0.0
H700 H 0.76958 0.137 0.68633 0.0
H701 H 0.76957 0.16541 0.65687 0.0
H702 H 0.78008 0.13486 0.64492 0.0
H703 H 0.70771 0.14503 0.57321 0.0
H704 H 0.71047 0.18559 0.53971 0.0
H705 H 0.73551 0.202 0.61627 0.0
C706 C 0.72973 0.10815 0.69139 0.0
C707 C 0.72295 0.08654 0.69076 0.0
C708 C 0.71459 0.08636 0.66257 0.0
C709 C 0.71315 0.10652 0.63599 0.0
C710 C 0.71994 0.12732 0.63739 0.0
C711 C 0.72796 0.12844 0.66438 0.0
C712 C 0.7337 0.15345 0.65937 0.0
C713 C 0.71276 0.17055 0.68303 0.0
C714 C 0.7651 0.14731 0.66204 0.0
C715 C 0.72782 0.16606 0.62536 0.0
C716 C 0.72001 0.15042 0.61332 0.0
C717 C 0.71379 0.15736 0.58252 0.0
C718 C 0.71554 0.18067 0.56348 0.0
C719 C 0.72333 0.19751 0.57479 0.0
C720 C 0.72946 0.18988 0.60653 0.0
H721 H 0.91625 1.01292 0.99017 0.0
H722 H 0.89901 0.09489 0.97303 0.0
H723 H 0.8487 0.10438 0.96837 0.0
H724 H 0.88599 1.01549 0.93155 0.0
H725 H 0.87138 0.99057 0.95027 0.0
H726 H 0.9016 0.99061 0.96344 0.0
H727 H 0.87273 0.99131 0.02126 0.0
H728 H 0.84317 0.99076 1.00684 0.0
H729 H 0.83765 1.01591 0.02746 0.0
H730 H 0.80584 0.10532 0.9532 0.0
H731 H 0.77588 0.09829 0.92375 0.0
H732 H 0.82083 1.01541 0.94723 0.0
C733 C 0.90124 0.03276 0.98711 0.0
C734 C 0.91078 0.05327 0.98276 0.0
C735 C 0.89152 0.07908 0.9771 0.0
C736 C 0.86296 0.08457 0.97464 0.0
C737 C 0.85429 0.06395 0.97754 0.0
C738 C 0.87287 0.03847 0.98371 0.0
C739 C 0.86052 0.0202 0.97873 0.0
C740 C 0.88107 1.00325 0.95455 0.0
C741 C 0.85307 1.00355 1.01045 0.0
C742 C 0.83351 0.03947 0.96591 0.0
C743 C 0.82959 0.06449 0.96697 0.0
C744 C 0.80815 0.08582 0.95306 0.0
C745 C 0.79113 0.0816 0.93641 0.0
C746 C 0.79597 0.05626 0.93332 0.0
C747 C 0.81658 0.03495 0.94945 0.0
H748 H 0.06258 0.05893 0.99358 0.0
H749 H 0.10458 0.98325 0.96788 0.0
H750 H 0.14412 0.97398 0.99684 0.0
H751 H 0.12961 0.06995 0.99879 0.0
H752 H 0.11152 0.08425 0.03346 0.0
H753 H 0.09142 0.08811 1.00318 0.0
H754 H 0.057 0.06946 0.04535 0.0
H755 H 0.07697 0.06502 0.07575 0.0
H756 H 0.07125 0.03791 0.06938 0.0
H757 H 0.17336 0.96959 0.03578 0.0
H758 H 0.1893 0.96915 0.08411 0.0
H759 H 0.12654 0.04651 0.08843 0.0
C760 C 0.08091 0.04099 0.99273 0.0
C761 C 0.08118 0.02202 0.97785 0.0
C762 C 0.10452 0.99815 0.97859 0.0
C763 C 0.12702 0.9928 0.99491 0.0
C764 C 0.12554 1.01143 1.01066 0.0
C765 C 0.10306 0.0351 1.00973 0.0
C766 C 0.10362 0.0497 0.03335 0.0
C767 C 0.1094 0.07447 0.01616 0.0
C768 C 0.07556 0.05584 0.05738 0.0
C769 C 0.12901 0.02995 0.04891 0.0
C770 C 0.14182 1.00839 0.03475 0.0
C771 C 0.16389 0.98653 0.04668 0.0
C772 C 0.17265 0.98638 0.07426 0.0
C773 C 0.1591 1.00779 0.08989 0.0
C774 C 0.1376 0.03013 0.07652 0.0
H775 H -0.00957 0.46279 0.44261 0.0
H776 H 0.96516 0.42621 0.5384 0.0
H777 H 0.95726 0.39482 0.51717 0.0
H778 H 0.93912 0.4537 0.40639 0.0
H779 H 0.96389 0.44699 0.37037 0.0
H780 H 0.9663 0.46791 0.39265 0.0
H781 H 0.0197 0.43891 0.39615 0.0
H782 H 0.01754 0.41806 0.37368 0.0
H783 H 0.02901 0.40481 0.41201 0.0
H784 H 0.95344 0.36639 0.48672 0.0
H785 H 0.95723 0.34071 0.4481 0.0
H786 H -0.01485 0.39471 0.37181 0.0
C787 C -0.01679 0.4482 0.45908 0.0
C788 C -0.02151 0.44707 0.49217 0.0
C789 C 0.96896 0.42764 0.51292 0.0
C790 C 0.9642 0.40972 0.50114 0.0
C791 C 0.96882 0.41146 0.46852 0.0
C792 C -0.02178 0.43006 0.44771 0.0
C793 C -0.01733 0.42673 0.41374 0.0
C794 C 0.96174 0.45023 0.39466 0.0
C795 C 0.0141 0.42183 0.39798 0.0
C796 C 0.97522 0.40289 0.41895 0.0
C797 C 0.96684 0.3947 0.45073 0.0
C798 C 0.95989 0.37261 0.46171 0.0
C799 C 0.96222 0.3581 0.43965 0.0
C800 C 0.97151 0.36568 0.40702 0.0
C801 C -0.02244 0.38866 0.39655 0.0
H802 H 0.62594 0.26682 0.56279 0.0
H803 H 0.65224 0.32228 0.58522 0.0
H804 H 0.61097 0.331 0.62822 0.0
H805 H 0.54692 0.30207 0.58168 0.0
H806 H 0.54032 0.27247 0.59841 0.0
H807 H 0.56987 0.2729 0.56675 0.0
H808 H 0.60503 0.23568 0.60153 0.0
H809 H 0.57571 0.23524 0.63334 0.0
H810 H 0.60644 0.23957 0.64012 0.0
H811 H 0.57178 0.32915 0.67301 0.0
H812 H 0.53449 0.31895 0.71515 0.0
H813 H 0.53167 0.26632 0.66287 0.0
C814 C 0.62263 0.28126 0.57623 0.0
C815 C 0.64231 0.29389 0.57059 0.0
C816 C 0.63744 0.31239 0.58902 0.0
C817 C 0.61401 0.31753 0.61348 0.0
C818 C 0.59548 0.30424 0.61898 0.0
C819 C 0.59924 0.28673 0.60068 0.0
C820 C 0.57726 0.27383 0.61298 0.0
C821 C 0.55741 0.28074 0.58849 0.0
C822 C 0.592 0.24434 0.62256 0.0
C823 C 0.56119 0.28623 0.64165 0.0
C824 C 0.57204 0.30378 0.64456 0.0
C825 C 0.56262 0.31593 0.67065 0.0
C826 C 0.54161 0.30993 0.69449 0.0
C827 C 0.53011 0.29215 0.69188 0.0
C828 C 0.5397 0.28046 0.66493 0.0
H829 H 0.71208 0.93784 0.83103 0.0
H830 H 0.73509 0.97815 0.88433 0.0
H831 H 0.73682 0.94314 0.93051 0.0
H832 H 0.66688 0.91201 0.89756 0.0
H833 H 0.67857 0.88116 0.88594 0.0
H834 H 0.6787 0.90947 0.85633 0.0
H835 H 0.73264 0.88625 0.83665 0.0
H836 H 0.73268 0.85788 0.8662 0.0
H837 H 0.75781 0.87289 0.86438 0.0
H838 H 0.73681 0.90379 0.97171 0.0
H839 H 0.73509 0.86281 1.00504 0.0
H840 H 0.71208 0.8453 0.92788 0.0
C841 C 0.71735 0.93939 0.85244 0.0
C842 C 0.72337 0.96133 0.85345 0.0
C843 C 0.73034 0.96202 0.88227 0.0
C844 C 0.7314 0.94204 0.90894 0.0
C845 C 0.72549 0.92089 0.90717 0.0
C846 C 0.7186 0.91928 0.87972 0.0
C847 C 0.71355 0.89394 0.88463 0.0
C848 C 0.68258 0.89948 0.88089 0.0
C849 C 0.73547 0.87672 0.86159 0.0
C850 C 0.71857 0.88176 0.91902 0.0
C851 C 0.72546 0.89784 0.93133 0.0
C852 C 0.73134 0.89114 0.96227 0.0
C853 C 0.73027 0.86757 0.98119 0.0
C854 C 0.72329 0.85033 0.96969 0.0
C855 C 0.71731 0.85781 0.93786 0.0
H856 H 0.12989 0.26258 0.06086 0.0
H857 H 0.13925 0.33118 0.07187 0.0
H858 H 0.09524 0.33974 0.11179 0.0
H859 H 0.04849 0.28629 0.07737 0.0
H860 H 0.04916 0.25496 0.09952 0.0
H861 H 0.07735 0.25746 0.06686 0.0
H862 H 0.11528 0.2305 0.10414 0.0
H863 H 0.08729 0.22827 0.13696 0.0
H864 H 0.11286 0.24134 0.13973 0.0
H865 H 0.05563 0.33718 0.15568 0.0
H866 H 0.02179 0.32438 0.20026 0.0
H867 H 0.03878 0.25637 0.16251 0.0
C868 C 0.12178 0.28002 0.07067 0.0
C869 C 0.13734 0.29662 0.06296 0.0
C870 C 0.12716 0.31858 0.07724 0.0
C871 C 0.10224 0.32356 0.09988 0.0
C872 C 0.08796 0.30625 0.10806 0.0
C873 C 0.09718 0.28499 0.09378 0.0
C874 C 0.08026 0.26761 0.10988 0.0
C875 C 0.06277 0.26653 0.08704 0.0
C876 C 0.10011 0.24033 0.12348 0.0
C877 C 0.06082 0.28197 0.13602 0.0
C878 C 0.06535 0.30438 0.13423 0.0
C879 C 0.05147 0.31993 0.15703 0.0
C880 C 0.03242 0.3124 0.18239 0.0
C881 C 0.02755 0.28943 0.18483 0.0
C882 C 0.04179 0.2742 0.16112 0.0
H883 H 0.73838 0.45452 0.38147 0.0
H884 H 0.70896 0.44632 0.30236 0.0
H885 H 0.70477 0.40517 0.33245 0.0
H886 H 0.78128 0.38556 0.40293 0.0
H887 H 0.77294 0.38473 0.4451 0.0
H888 H 0.77319 0.41424 0.41814 0.0
H889 H 0.72108 0.43839 0.4429 0.0
H890 H 0.72065 0.409 0.47 0.0
H891 H 0.69341 0.42622 0.44479 0.0
H892 H 0.70221 0.36542 0.37069 0.0
H893 H 0.70341 0.32831 0.41377 0.0
H894 H 0.73687 0.35814 0.46992 0.0
C895 C 0.73088 0.44414 0.37058 0.0
C896 C 0.7238 0.4542 0.3392 0.0
C897 C 0.71453 0.43948 0.32603 0.0
C898 C 0.71203 0.41591 0.34307 0.0
C899 C 0.71917 0.40656 0.37358 0.0
C900 C 0.72865 0.41999 0.38729 0.0
C901 C 0.7356 0.40474 0.42034 0.0
C902 C 0.76766 0.39685 0.42171 0.0
C903 C 0.71655 0.42054 0.44603 0.0
C904 C 0.72813 0.38094 0.42308 0.0
C905 C 0.7186 0.38272 0.39566 0.0
C906 C 0.70973 0.36384 0.39219 0.0
C907 C 0.71043 0.34269 0.41712 0.0
C908 C 0.72016 0.33982 0.44576 0.0
C909 C 0.72942 0.35937 0.4485 0.0
H910 H 0.5227 0.02939 0.57511 0.0
H911 H 0.57582 0.98557 0.50171 0.0
H912 H 0.61918 0.98743 0.51466 0.0
H913 H 0.56511 0.07094 0.56323 0.0
H914 H 0.5587 0.07115 0.60507 0.0
H915 H 0.5321 0.06885 0.58726 0.0
H916 H 0.53283 0.02696 0.62748 0.0
H917 H 0.5591 0.02909 0.64571 0.0
H918 H 0.56653 1.00018 0.63134 0.0
H919 H 0.65658 0.98863 0.54158 0.0
H920 H 0.6846 0.98906 0.57941 0.0
H921 H 0.60583 0.0339 0.63298 0.0
C922 C 0.54346 0.02023 0.56162 0.0
C923 C 0.5462 1.00681 0.53793 0.0
C924 C 0.5735 0.99567 0.52023 0.0
C925 C 0.59809 0.99684 0.52726 0.0
C926 C 0.59463 1.00989 0.55132 0.0
C927 C 0.56786 0.02168 0.56788 0.0
C928 C 0.5697 0.03311 0.59392 0.0
C929 C 0.55558 0.06277 0.58693 0.0
C930 C 0.55628 0.02162 0.62652 0.0
C931 C 0.60196 0.02438 0.59099 0.0
C932 C 0.61602 1.01147 0.5659 0.0
C933 C 0.64584 0.9992 0.5608 0.0
C934 C 0.66155 0.99943 0.58245 0.0
C935 C 0.64734 1.01173 0.60889 0.0
C936 C 0.61732 0.02505 0.61246 0.0
H937 H 0.97605 0.9629 0.95843 0.0
H938 H 0.02642 0.99459 0.87678 0.0
H939 H 0.02676 0.96411 0.8467 0.0
H940 H 0.01087 0.89716 0.95002 0.0
H941 H -0.02143 0.88978 0.96142 0.0
H942 H -0.01906 0.91492 0.97636 0.0
H943 H 0.93488 0.94782 0.95394 0.0
H944 H 0.93211 0.92246 0.93983 0.0
H945 H 0.93275 0.95187 0.91281 0.0
H946 H 0.02265 0.92996 0.82555 0.0
H947 H 0.01565 0.89303 0.81523 0.0
H948 H 0.96807 0.88302 0.91025 0.0
C949 C -0.01289 0.96347 0.9342 0.0
C950 C 0.00126 0.98117 0.92001 0.0
C951 C 0.01542 0.98127 0.88823 0.0
C952 C 0.0157 0.96404 0.87087 0.0
C953 C 0.00166 0.94685 0.88553 0.0
C954 C -0.01241 0.94639 0.91644 0.0
C955 C 0.97459 0.92559 0.92662 0.0
C956 C -0.01299 0.90568 0.95529 0.0
C957 C 0.94161 0.93765 0.93369 0.0
C958 C -0.01567 0.91399 0.89688 0.0
C959 C -0.00048 0.92684 0.87335 0.0
C960 C 0.01067 0.9198 0.84371 0.0
C961 C 0.00642 0.8989 0.83801 0.0
C962 C -0.00873 0.88515 0.86186 0.0
C963 C -0.02005 0.893 0.89162 0.0
H964 H 0.04237 0.15605 0.92769 0.0
H965 H 0.02603 0.19631 0.83259 0.0
H966 H 0.04416 0.22884 0.83722 0.0
H967 H 0.02751 0.21402 0.96188 0.0
H968 H 0.05644 0.19629 0.98481 0.0
H969 H 0.03669 0.17975 0.97627 0.0
H970 H 0.08434 0.14761 0.95172 0.0
H971 H 0.1042 0.16405 0.95988 0.0
H972 H 0.10762 0.15989 0.91996 0.0
H973 H 0.07144 0.25207 0.84885 0.0
H974 H 0.10544 0.26427 0.86631 0.0
H975 H 0.10472 0.20777 0.95325 0.0
C976 C 0.04208 0.17204 0.90807 0.0
C977 C 0.03302 0.17374 0.87972 0.0
C978 C 0.03275 0.19488 0.85457 0.0
C979 C 0.04295 0.21339 0.85705 0.0
C980 C 0.05285 0.21055 0.88497 0.0
C981 C 0.05221 0.19048 0.91016 0.0
C982 C 0.06713 0.18977 0.93601 0.0
C983 C 0.04565 0.1953 0.96655 0.0
C984 C 0.09231 0.16381 0.94221 0.0
C985 C 0.0776 0.2118 0.92079 0.0
C986 C 0.06868 0.2239 0.89165 0.0
C987 C 0.07806 0.24312 0.87188 0.0
C988 C 0.09751 0.24977 0.88186 0.0
C989 C 0.10753 0.23703 0.91118 0.0
C990 C 0.09683 0.2183 0.93113 0.0
H991 H 0.65334 0.59901 0.31261 0.0
H992 H 0.63169 0.56016 0.2561 0.0
H993 H 0.5849 0.59616 0.25236 0.0
H994 H 0.57994 0.62799 0.3553 0.0
H995 H 0.58493 0.65748 0.35396 0.0
H996 H 0.61524 0.62731 0.35535 0.0
H997 H 0.64209 0.6471 0.30425 0.0
H998 H 0.61189 0.67724 0.3026 0.0
H999 H 0.62525 0.66108 0.26912 0.0
H1000 H 0.54305 0.63819 0.24984 0.0
H1001 H 0.50865 0.68298 0.24932 0.0
H1002 H 0.55692 0.69469 0.30798 0.0
C1003 C 0.63855 0.5977 0.30004 0.0
C1004 C 0.64623 0.57655 0.28482 0.0
C1005 C 0.62632 0.57598 0.26815 0.0
C1006 C 0.59965 0.59636 0.26591 0.0
C1007 C 0.59308 0.61713 0.2806 0.0
C1008 C 0.61188 0.61789 0.29752 0.0
C1009 C 0.6005 0.64326 0.3092 0.0
C1010 C 0.59481 0.63873 0.34562 0.0
C1011 C 0.62116 0.65803 0.29546 0.0
C1012 C 0.57264 0.65694 0.29559 0.0
C1013 C 0.56873 0.64142 0.27935 0.0
C1014 C 0.54566 0.65035 0.26288 0.0
C1015 C 0.5263 0.67587 0.26264 0.0
C1016 C 0.52998 0.69226 0.27882 0.0
C1017 C 0.55322 0.68246 0.29597 0.0
H1018 H 0.30906 0.86216 0.57514 0.0
H1019 H 0.37263 0.78644 0.60335 0.0
H1020 H 0.40116 0.80703 0.61668 0.0
H1021 H 0.3592 0.89486 0.53924 0.0
H1022 H 0.33557 0.92442 0.55289 0.0
H1023 H 0.32076 0.90351 0.54516 0.0
H1024 H 0.29245 0.90149 0.60236 0.0
H1025 H 0.30747 0.92214 0.61036 0.0
H1026 H 0.31163 0.89101 0.63551 0.0
H1027 H 0.42241 0.83617 0.62733 0.0
H1028 H 0.4358 0.87161 0.63197 0.0
H1029 H 0.35754 0.92777 0.59763 0.0
C1030 C 0.32922 0.8499 0.58361 0.0
C1031 C 0.3387 0.82271 0.58812 0.0
C1032 C 0.3649 0.80733 0.59992 0.0
C1033 C 0.38124 0.81883 0.6075 0.0
C1034 C 0.37102 0.8457 0.6032 0.0
C1035 C 0.34569 0.86103 0.59135 0.0
C1036 C 0.33928 0.88942 0.58914 0.0
C1037 C 0.33868 0.9039 0.55455 0.0
C1038 C 0.31103 0.90172 0.61063 0.0
C1039 C 0.365 0.8877 0.60148 0.0
C1040 C 0.38306 0.86236 0.60956 0.0
C1041 C 0.40838 0.85609 0.62116 0.0
C1042 C 0.41569 0.87632 0.62398 0.0
C1043 C 0.39771 0.90243 0.61519 0.0
C1044 C 0.37185 0.90802 0.60429 0.0
H1045 H 0.02563 0.68233 0.74886 0.0
H1046 H 0.02613 0.70009 0.83797 0.0
H1047 H 0.06343 0.65705 0.85112 0.0
H1048 H 0.04043 0.61224 0.77644 0.0
H1049 H 0.06392 0.60414 0.74017 0.0
H1050 H 0.03448 0.63486 0.73957 0.0
H1051 H 0.06991 0.65856 0.71291 0.0
H1052 H 0.09944 0.628 0.71334 0.0
H1053 H 0.10016 0.6522 0.73157 0.0
H1054 H 0.10311 0.61402 0.85274 0.0
H1055 H 0.14458 0.57481 0.84149 0.0
H1056 H 0.11962 0.5853 0.75048 0.0
C1057 C 0.03312 0.67685 0.77147 0.0
C1058 C 0.02285 0.69434 0.7926 0.0
C1059 C 0.03371 0.68689 0.82153 0.0
C1060 C 0.05475 0.66245 0.82928 0.0
C1061 C 0.06482 0.64578 0.80774 0.0
C1062 C 0.05448 0.65266 0.77935 0.0
C1063 C 0.07103 0.63222 0.75899 0.0
C1064 C 0.05128 0.62015 0.75348 0.0
C1065 C 0.08603 0.64342 0.72735 0.0
C1066 C 0.09261 0.61304 0.78013 0.0
C1067 C 0.08834 0.62107 0.80832 0.0
C1068 C 0.10651 0.60736 0.83092 0.0
C1069 C 0.13004 0.5851 0.82427 0.0
C1070 C 0.13536 0.57689 0.79515 0.0
C1071 C 0.11599 0.59084 0.77313 0.0
H1072 H 0.84504 0.3165 0.61961 0.0
H1073 H 0.83217 0.35394 0.52262 0.0
H1074 H 0.86214 0.3785 0.52135 0.0
H1075 H 0.83812 0.37151 0.64482 0.0
H1076 H 0.8651 0.35512 0.67043 0.0
H1077 H 0.84586 0.33788 0.66259 0.0
H1078 H 0.89404 0.30352 0.6427 0.0
H1079 H 0.91348 0.32059 0.65067 0.0
H1080 H 0.91937 0.31366 0.61163 0.0
H1081 H 0.88896 0.40199 0.53214 0.0
H1082 H 0.91143 0.42311 0.55424 0.0
H1083 H 0.90728 0.37066 0.64426 0.0
C1084 C 0.84876 0.32967 0.59798 0.0
C1085 C 0.83636 0.33319 0.57114 0.0
C1086 C 0.84186 0.35054 0.54327 0.0
C1087 C 0.85875 0.36467 0.54236 0.0
C1088 C 0.8701 0.36113 0.56945 0.0
C1089 C 0.86553 0.34395 0.59669 0.0
C1090 C 0.87867 0.34503 0.62318 0.0
C1091 C 0.85555 0.35285 0.65194 0.0
C1092 C 0.90283 0.31916 0.63259 0.0
C1093 C 0.89054 0.36609 0.60686 0.0
C1094 C 0.88556 0.37491 0.57579 0.0
C1095 C 0.89309 0.39524 0.55635 0.0
C1096 C 0.90571 0.40712 0.56911 0.0
C1097 C 0.91098 0.39844 0.60085 0.0
C1098 C 0.90366 0.37744 0.61983 0.0
H1099 H 0.2889 0.93751 0.24113 0.0
H1100 H 0.32717 0.98856 0.25306 0.0
H1101 H 0.37384 0.95211 0.25562 0.0
H1102 H 0.32478 0.88322 0.29483 0.0
H1103 H 0.32933 0.85991 0.27182 0.0
H1104 H 0.29954 0.89035 0.26869 0.0
H1105 H 0.31539 0.89979 0.20787 0.0
H1106 H 0.34511 0.86924 0.21074 0.0
H1107 H 0.35158 0.89872 0.19243 0.0
H1108 H 0.41546 0.90894 0.26128 0.0
H1109 H 0.44926 0.86345 0.26571 0.0
H1110 H 0.38359 0.8414 0.24878 0.0
C1111 C 0.30717 0.94119 0.24378 0.0
C1112 C 0.30434 0.96595 0.24683 0.0
C1113 C 0.3288 0.96982 0.25049 0.0
C1114 C 0.3554 0.9492 0.25207 0.0
C1115 C 0.35724 0.9249 0.24972 0.0
C1116 C 0.33382 0.92091 0.24529 0.0
C1117 C 0.34115 0.89285 0.24431 0.0
C1118 C 0.3226 0.88089 0.27153 0.0
C1119 C 0.33813 0.88999 0.21191 0.0
C1120 C 0.3723 0.88159 0.24912 0.0
C1121 C 0.38121 0.90031 0.25234 0.0
C1122 C 0.40881 0.89419 0.2584 0.0
C1123 C 0.42781 0.86829 0.261 0.0
C1124 C 0.41919 0.84889 0.2573 0.0
C1125 C 0.39103 0.8558 0.25126 0.0
H1126 H 0.31377 0.46039 0.77925 0.0
H1127 H 0.28222 0.46094 0.69655 0.0
H1128 H 0.32256 0.42028 0.6884 0.0
H1129 H 0.39203 0.43091 0.74885 0.0
H1130 H 0.39993 0.41183 0.78725 0.0
H1131 H 0.37076 0.44277 0.78432 0.0
H1132 H 0.33583 0.42098 0.82 0.0
H1133 H 0.36472 0.38996 0.82277 0.0
H1134 H 0.33269 0.39452 0.80862 0.0
H1135 H 0.36166 0.37729 0.69308 0.0
H1136 H 0.40001 0.33548 0.70798 0.0
H1137 H 0.40804 0.36236 0.78678 0.0
C1138 C 0.31588 0.4524 0.75883 0.0
C1139 C 0.2949 0.46399 0.73838 0.0
C1140 C 0.29802 0.4525 0.71246 0.0
C1141 C 0.32089 0.42939 0.70761 0.0
C1142 C 0.34058 0.41801 0.7288 0.0
C1143 C 0.3386 0.4292 0.75369 0.0
C1144 C 0.36154 0.41191 0.77426 0.0
C1145 C 0.3823 0.42515 0.77362 0.0
C1146 C 0.34787 0.40387 0.80842 0.0
C1147 C 0.3763 0.38904 0.75734 0.0
C1148 C 0.36378 0.39307 0.7312 0.0
C1149 C 0.37202 0.37408 0.71312 0.0
C1150 C 0.39368 0.35034 0.7219 0.0
C1151 C 0.40708 0.3458 0.74835 0.0
C1152 C 0.39848 0.36553 0.7661 0.0
H1153 H 0.13085 0.75842 0.5759 0.0
H1154 H 0.15272 0.81871 0.59278 0.0
H1155 H 0.11318 0.8254 0.63829 0.0
H1156 H 0.05372 0.78788 0.59636 0.0
H1157 H 0.04966 0.75744 0.61513 0.0
H1158 H 0.07874 0.75851 0.58315 0.0
H1159 H 0.11534 0.72472 0.6191 0.0
H1160 H 0.08641 0.72366 0.65125 0.0
H1161 H 0.11552 0.73113 0.65673 0.0
H1162 H 0.07167 0.82445 0.68316 0.0
H1163 H 0.03195 0.81598 0.7231 0.0
H1164 H 0.03879 0.75585 0.67631 0.0
C1165 C 0.12715 0.77329 0.58884 0.0
C1166 C 0.14474 0.78818 0.58062 0.0
C1167 C 0.13942 0.80714 0.59856 0.0
C1168 C 0.11703 0.81108 0.62445 0.0
C1169 C 0.1003 0.79582 0.63211 0.0
C1170 C 0.10514 0.77732 0.61476 0.0
C1171 C 0.08487 0.76282 0.62835 0.0
C1172 C 0.0656 0.76692 0.60432 0.0
C1173 C 0.10154 0.73388 0.63952 0.0
C1174 C 0.06779 0.77605 0.65606 0.0
C1175 C 0.07689 0.79506 0.65791 0.0
C1176 C 0.06432 0.80965 0.68187 0.0
C1177 C 0.0418 0.8047 0.70445 0.0
C1178 C 0.03221 0.78528 0.70286 0.0
C1179 C 0.04551 0.77086 0.67827 0.0
H1180 H 0.25288 0.94064 0.35795 0.0
H1181 H 0.16815 0.96639 0.33209 0.0
H1182 H 0.15925 0.92986 0.37045 0.0
H1183 H 0.26788 0.87177 0.36721 0.0
H1184 H 0.28646 0.86179 0.40075 0.0
H1185 H 0.28654 0.89069 0.37231 0.0
H1186 H 0.26586 0.91719 0.41727 0.0
H1187 H 0.26572 0.88836 0.44585 0.0
H1188 H 0.23304 0.91641 0.44303 0.0
H1189 H 0.15867 0.89053 0.41052 0.0
H1190 H 0.16667 0.84998 0.449 0.0
H1191 H 0.25233 0.84573 0.45146 0.0
C1192 C 0.23232 0.93876 0.36066 0.0
C1193 C 0.21112 0.95701 0.34165 0.0
C1194 C 0.18483 0.95315 0.34592 0.0
C1195 C 0.17949 0.93229 0.36788 0.0
C1196 C 0.20064 0.91471 0.38586 0.0
C1197 C 0.22665 0.91749 0.38258 0.0
C1198 C 0.2458 0.89483 0.40451 0.0
C1199 C 0.2733 0.87882 0.38504 0.0
C1200 C 0.25304 0.9048 0.42913 0.0
C1201 C 0.22641 0.87911 0.42051 0.0
C1202 C 0.20047 0.89126 0.40917 0.0
C1203 C 0.17892 0.8809 0.41952 0.0
C1204 C 0.1838 0.85756 0.44163 0.0
C1205 C 0.21015 0.84403 0.4539 0.0
C1206 C 0.23178 0.85534 0.44311 0.0
H1207 H 0.96051 0.67489 0.59774 0.0
H1208 H 0.00258 0.63305 0.68041 0.0
H1209 H 0.01349 0.59189 0.66438 0.0
H1210 H 0.92602 0.63276 0.60155 0.0
H1211 H 0.93046 0.63497 0.55934 0.0
H1212 H 0.92905 0.66149 0.57472 0.0
H1213 H -0.02185 0.65972 0.54051 0.0
H1214 H -0.02017 0.63316 0.5249 0.0
H1215 H 0.00878 0.62983 0.54374 0.0
H1216 H 0.01596 0.55525 0.64269 0.0
H1217 H 0.01067 0.5253 0.61612 0.0
H1218 H 0.96614 0.5903 0.5477 0.0
C1219 C 0.97227 0.6571 0.61233 0.0
C1220 C -0.01919 0.65735 0.64031 0.0
C1221 C -0.00373 0.63354 0.65857 0.0
C1222 C 0.00246 0.60998 0.64975 0.0
C1223 C -0.0068 0.61043 0.6225 0.0
C1224 C -0.02136 0.63334 0.60386 0.0
C1225 C 0.96974 0.62827 0.57669 0.0
C1226 C 0.93687 0.64007 0.57819 0.0
C1227 C -0.01496 0.63834 0.54456 0.0
C1228 C -0.01941 0.59895 0.58376 0.0
C1229 C -0.00561 0.58912 0.61004 0.0
C1230 C 0.00539 0.5627 0.62194 0.0
C1231 C 0.00211 0.54584 0.60672 0.0
C1232 C -0.01221 0.55538 0.57988 0.0
C1233 C -0.02285 0.58235 0.56815 0.0
H1234 H 0.31371 0.77129 0.46173 0.0
H1235 H 0.28284 0.72457 0.42783 0.0
H1236 H 0.32409 0.71767 0.3843 0.0
H1237 H 0.33346 0.80384 0.38624 0.0
H1238 H 0.36477 0.80565 0.3953 0.0
H1239 H 0.33518 0.80409 0.42632 0.0
H1240 H 0.36957 0.76368 0.45851 0.0
H1241 H 0.39935 0.76525 0.42767 0.0
H1242 H 0.39166 0.73596 0.44031 0.0
H1243 H 0.36641 0.71847 0.34235 0.0
H1244 H 0.40663 0.72743 0.30431 0.0
H1245 H 0.40898 0.77506 0.36428 0.0
C1246 C 0.31619 0.759 0.44565 0.0
C1247 C 0.29546 0.74809 0.44831 0.0
C1248 C 0.29871 0.73289 0.42624 0.0
C1249 C 0.32205 0.72885 0.40151 0.0
C1250 C 0.34179 0.74036 0.399 0.0
C1251 C 0.33912 0.75515 0.42044 0.0
C1252 C 0.36184 0.76724 0.41071 0.0
C1253 C 0.34798 0.79696 0.40426 0.0
C1254 C 0.38179 0.75744 0.4358 0.0
C1255 C 0.37751 0.75707 0.38041 0.0
C1256 C 0.36576 0.74143 0.37423 0.0
C1257 C 0.37598 0.73051 0.34705 0.0
C1258 C 0.3988 0.73575 0.32555 0.0
C1259 C 0.41103 0.75193 0.33125 0.0
C1260 C 0.40024 0.76253 0.35922 0.0
H1261 H 0.23634 0.10627 0.21289 0.0
H1262 H 0.21446 0.06762 0.15636 0.0
H1263 H 0.21096 0.10445 0.11205 0.0
H1264 H 0.18939 0.17166 0.18341 0.0
H1265 H 0.2142 0.18677 0.18246 0.0
H1266 H 0.21522 0.15741 0.21045 0.0
H1267 H 0.26902 0.13552 0.18901 0.0
H1268 H 0.26818 0.16483 0.16099 0.0
H1269 H 0.2801 0.13481 0.14725 0.0
H1270 H 0.20808 0.14591 0.07361 0.0
H1271 H 0.20828 0.18801 0.0427 0.0
H1272 H 0.23383 0.20191 0.12075 0.0
C1273 C 0.23095 0.10546 0.19114 0.0
C1274 C 0.22577 0.08345 0.18864 0.0
C1275 C 0.21871 0.08371 0.15945 0.0
C1276 C 0.21657 0.10477 0.1339 0.0
C1277 C 0.22168 0.12596 0.13716 0.0
C1278 C 0.22894 0.12651 0.16491 0.0
C1279 C 0.2335 0.15191 0.16155 0.0
C1280 C 0.21179 0.16788 0.18592 0.0
C1281 C 0.26455 0.14644 0.16491 0.0
C1282 C 0.22768 0.16542 0.12766 0.0
C1283 C 0.22069 0.14996 0.11436 0.0
C1284 C 0.21368 0.15804 0.08383 0.0
C1285 C 0.2138 0.1823 0.06635 0.0
C1286 C 0.22113 0.19886 0.07873 0.0
C1287 C 0.22831 0.18998 0.11011 0.0
H1288 H 0.82578 0.76024 0.97852 0.0
H1289 H 0.77281 0.73475 0.9422 0.0
H1290 H 0.80828 0.72904 0.89316 0.0
H1291 H 0.84525 0.79719 0.90892 0.0
H1292 H 0.88166 0.78897 0.91454 0.0
H1293 H 0.85425 0.78772 0.94837 0.0
H1294 H 0.88432 0.73984 0.96867 0.0
H1295 H 0.91209 0.74099 0.93504 0.0
H1296 H 0.89646 0.71668 0.94292 0.0
H1297 H 0.84543 0.73289 0.84513 0.0
H1298 H 0.88436 0.74145 0.80387 0.0
H1299 H 0.91414 0.76209 0.87291 0.0
C1300 C 0.82199 0.75284 0.96058 0.0
C1301 C 0.79662 0.74791 0.9641 0.0
C1302 C 0.79228 0.73841 0.94007 0.0
C1303 C 0.81224 0.73519 0.91211 0.0
C1304 C 0.8366 0.74109 0.90893 0.0
C1305 C 0.84182 0.74921 0.9328 0.0
C1306 C 0.86879 0.75559 0.92294 0.0
C1307 C 0.86206 0.78405 0.92373 0.0
C1308 C 0.89178 0.73717 0.94362 0.0
C1309 C 0.87739 0.75068 0.88937 0.0
C1310 C 0.85858 0.74233 0.88168 0.0
C1311 C 0.8607 0.73881 0.85108 0.0
C1312 C 0.8827 0.74387 0.8278 0.0
C1313 C 0.90236 0.75208 0.83543 0.0
C1314 C 0.89978 0.75525 0.86666 0.0
H1315 H 0.22267 0.60998 0.71283 0.0
H1316 H 0.22314 0.56143 0.65244 0.0
H1317 H 0.22416 0.59589 0.60594 0.0
H1318 H 0.17682 0.67085 0.6705 0.0
H1319 H 0.19567 0.68987 0.67487 0.0
H1320 H 0.1953 0.6614 0.70403 0.0
H1321 H 0.2509 0.64299 0.6955 0.0
H1322 H 0.25141 0.67141 0.66631 0.0
H1323 H 0.27052 0.6398 0.65613 0.0
H1324 H 0.22425 0.63595 0.56496 0.0
H1325 H 0.22402 0.67798 0.53288 0.0
H1326 H 0.22407 0.70283 0.61725 0.0
C1327 C 0.22314 0.6065 0.68982 0.0
C1328 C 0.22293 0.58238 0.68689 0.0
C1329 C 0.22337 0.57923 0.65598 0.0
C1330 C 0.22392 0.5989 0.62913 0.0
C1331 C 0.22405 0.62221 0.63281 0.0
C1332 C 0.2237 0.6262 0.66235 0.0
C1333 C 0.22374 0.6534 0.65928 0.0
C1334 C 0.19625 0.66985 0.67831 0.0
C1335 C 0.25075 0.6518 0.66995 0.0
C1336 C 0.22427 0.66393 0.62352 0.0
C1337 C 0.22433 0.64547 0.60891 0.0
C1338 C 0.2243 0.65044 0.57628 0.0
C1339 C 0.22416 0.67464 0.55809 0.0
C1340 C 0.22417 0.69426 0.57194 0.0
C1341 C 0.22432 0.68851 0.60544 0.0
H1342 H 0.28583 0.02033 0.46742 0.0
H1343 H 0.26179 0.09985 0.41731 0.0
H1344 H 0.28993 0.10816 0.44776 0.0
H1345 H 0.29582 0.03259 0.54565 0.0
H1346 H 0.32654 1.00276 0.5488 0.0
H1347 H 0.29657 1.00535 0.53222 0.0
H1348 H 0.33143 0.99098 0.48179 0.0
H1349 H 0.36125 0.98882 0.49781 0.0
H1350 H 0.35379 1.00912 0.45985 0.0
H1351 H 0.33139 0.10449 0.46914 0.0
H1352 H 0.37923 0.08998 0.48467 0.0
H1353 H 0.37725 1.01298 0.5216 0.0
C1354 C 0.28547 0.03978 0.46399 0.0
C1355 C 0.27162 0.05939 0.44002 0.0
C1356 C 0.27175 0.08458 0.43591 0.0
C1357 C 0.28785 0.08949 0.45307 0.0
C1358 C 0.30335 0.06913 0.47457 0.0
C1359 C 0.30171 0.04486 0.48075 0.0
C1360 C 0.32415 0.02522 0.50057 0.0
C1361 C 0.30991 1.01595 0.53379 0.0
C1362 C 0.3438 1.00222 0.48398 0.0
C1363 C 0.34024 0.04169 0.50202 0.0
C1364 C 0.32752 0.0671 0.48758 0.0
C1365 C 0.34098 0.08492 0.48159 0.0
C1366 C 0.36826 0.07647 0.49017 0.0
C1367 C 0.38171 0.05047 0.50455 0.0
C1368 C 0.3671 0.03315 0.51137 0.0
H1369 H 0.88028 0.82662 0.07991 0.0
H1370 H 0.82695 0.87737 1.00875 0.0
H1371 H 0.85327 0.90693 0.99776 0.0
H1372 H 0.88093 0.87572 0.11204 0.0
H1373 H 0.91758 0.85964 0.1194 0.0
H1374 H 0.89695 0.84091 0.11908 0.0
H1375 H 0.93611 0.81814 0.07599 0.0
H1376 H 0.95695 0.83676 0.07626 0.0
H1377 H 0.94703 0.83738 0.03966 0.0
H1378 H 0.88229 0.93271 0.99773 0.0
H1379 H 0.91264 0.95268 1.00825 0.0
H1380 H 0.94615 0.88587 0.0804 0.0
C1381 C 0.87425 0.84386 0.06184 0.0
C1382 C 0.85161 0.84963 0.04511 0.0
C1383 C 0.84454 0.8723 0.0215 0.0
C1384 C 0.85927 0.88927 1.01518 0.0
C1385 C 0.88108 0.88323 0.03257 0.0
C1386 C 0.88867 0.86101 0.05531 0.0
C1387 C 0.91175 0.85977 0.07194 0.0
C1388 C 0.90115 0.85897 0.10773 0.0
C1389 C 0.93961 0.83664 0.06557 0.0
C1390 C 0.9154 0.88512 0.0556 0.0
C1391 C 0.89769 0.89822 0.03276 0.0
C1392 C 0.89635 0.92255 0.01542 0.0
C1393 C 0.91343 0.93384 0.02175 0.0
C1394 C 0.93149 0.9209 0.04527 0.0
C1395 C 0.93272 0.89608 0.0621 0.0
H1396 H 0.61591 0.19726 0.40935 0.0
H1397 H 0.65782 0.15012 0.49065 0.0
H1398 H 0.64071 0.11592 0.49024 0.0
H1399 H 0.55394 0.18014 0.43156 0.0
H1400 H 0.55189 0.17965 0.39169 0.0
H1401 H 0.56755 0.20031 0.39841 0.0
H1402 H 0.61431 0.17917 0.36131 0.0
H1403 H 0.59881 0.15837 0.35454 0.0
H1404 H 0.63268 0.14458 0.36916 0.0
H1405 H 0.61816 0.08736 0.48163 0.0
H1406 H 0.59092 0.06686 0.46625 0.0
H1407 H 0.56625 0.13166 0.38856 0.0
C1408 C 0.62179 0.17965 0.42689 0.0
C1409 C 0.63818 0.17641 0.45007 0.0
C1410 C 0.64492 0.15323 0.47295 0.0
C1411 C 0.63553 0.13359 0.47273 0.0
C1412 C 0.61959 0.13739 0.44939 0.0
C1413 C 0.61278 0.15982 0.42689 0.0
C1414 C 0.59508 0.15924 0.4046 0.0
C1415 C 0.56535 0.18113 0.40671 0.0
C1416 C 0.61119 0.1604 0.37038 0.0
C1417 C 0.59274 0.13304 0.41828 0.0
C1418 C 0.6071 0.12071 0.44404 0.0
C1419 C 0.60715 0.09668 0.46124 0.0
C1420 C 0.59181 0.08508 0.45211 0.0
C1421 C 0.57667 0.09749 0.42593 0.0
C1422 C 0.57753 0.12167 0.40867 0.0
H1423 H 0.81508 0.44811 0.31102 0.0
H1424 H 0.81337 0.48113 0.21089 0.0
H1425 H 0.84875 0.43992 0.19718 0.0
H1426 H 0.89292 0.40824 0.30191 0.0
H1427 H 0.88796 0.38187 0.33229 0.0
H1428 H 0.86364 0.41457 0.33444 0.0
H1429 H 0.8206 0.40109 0.33771 0.0
H1430 H 0.8448 0.36846 0.33509 0.0
H1431 H 0.82015 0.3861 0.30699 0.0
H1432 H 0.8808 0.39437 0.19387 0.0
H1433 H 0.91267 0.34836 0.20128 0.0
H1434 H 0.89578 0.34465 0.30313 0.0
C1435 C 0.82268 0.44683 0.28623 0.0
C1436 C 0.81139 0.46795 0.26207 0.0
C1437 C 0.82162 0.46532 0.22989 0.0
C1438 C 0.8417 0.44192 0.22178 0.0
C1439 C 0.85168 0.42126 0.24607 0.0
C1440 C 0.84301 0.42354 0.27762 0.0
C1441 C 0.85704 0.39808 0.29896 0.0
C1442 C 0.87655 0.40086 0.31802 0.0
C1443 C 0.83429 0.38784 0.32098 0.0
C1444 C 0.87454 0.3812 0.27441 0.0
C1445 C 0.87093 0.39495 0.24408 0.0
C1446 C 0.8841 0.38342 0.21749 0.0
C1447 C 0.90199 0.35722 0.22194 0.0
C1448 C 0.90681 0.34291 0.25272 0.0
C1449 C 0.89267 0.35511 0.27926 0.0
H1450 H 0.02174 0.64132 0.47297 0.0
H1451 H 0.03826 0.64163 0.37189 0.0
H1452 H 0.06162 0.67331 0.36258 0.0
H1453 H 0.01035 0.70971 0.46752 0.0
H1454 H 0.02861 0.70227 0.50075 0.0
H1455 H 0.00961 0.68255 0.49887 0.0
H1456 H 0.05597 0.64186 0.5049 0.0
H1457 H 0.07522 0.66141 0.50644 0.0
H1458 H 0.08838 0.64096 0.47723 0.0
H1459 H 0.08731 0.70128 0.36474 0.0
H1460 H 0.11352 0.72383 0.37809 0.0
H1461 H 0.08153 0.70426 0.47797 0.0
C1462 C 0.03004 0.6482 0.44882 0.0
C1463 C 0.02814 0.63902 0.42314 0.0
C1464 C 0.03905 0.64869 0.39189 0.0
C1465 C 0.05247 0.6666 0.38637 0.0
C1466 C 0.05468 0.67466 0.41234 0.0
C1467 C 0.04366 0.66587 0.44294 0.0
C1468 C 0.05071 0.67603 0.46691 0.0
C1469 C 0.02318 0.6937 0.48454 0.0
C1470 C 0.06864 0.65374 0.49023 0.0
C1471 C 0.06823 0.69127 0.44505 0.0
C1472 C 0.06989 0.69054 0.41365 0.0
C1473 C 0.08583 0.70233 0.38918 0.0
C1474 C 0.10055 0.71515 0.397 0.0
C1475 C 0.09938 0.71593 0.42905 0.0
C1476 C 0.08285 0.70393 0.45329 0.0
H1477 H 0.63526 0.09056 0.74529 0.0
H1478 H 0.64515 0.07302 0.84434 0.0
H1479 H 0.60524 0.11393 0.85271 0.0
H1480 H 0.62284 0.15631 0.73324 0.0
H1481 H 0.59654 0.16705 0.70725 0.0
H1482 H 0.62354 0.13498 0.70946 0.0
H1483 H 0.58395 0.11527 0.72384 0.0
H1484 H 0.55679 0.14732 0.72122 0.0
H1485 H 0.55579 0.12358 0.75697 0.0
H1486 H 0.56798 0.15839 0.84932 0.0
H1487 H 0.53297 0.20244 0.8353 0.0
H1488 H 0.54674 0.19151 0.73844 0.0
C1489 C 0.62843 0.09496 0.76895 0.0
C1490 C 0.64318 0.07848 0.79424 0.0
C1491 C 0.63411 0.08528 0.82465 0.0
C1492 C 0.61147 0.1085 0.82964 0.0
C1493 C 0.59806 0.12474 0.80401 0.0
C1494 C 0.60592 0.11819 0.77432 0.0
C1495 C 0.58904 0.13985 0.75043 0.0
C1496 C 0.6092 0.15015 0.72352 0.0
C1497 C 0.57028 0.13097 0.73735 0.0
C1498 C 0.57081 0.15967 0.77127 0.0
C1499 C 0.57637 0.15053 0.80207 0.0
C1500 C 0.56315 0.16567 0.82538 0.0
C1501 C 0.54341 0.19075 0.81711 0.0
C1502 C 0.53698 0.20045 0.78581 0.0
C1503 C 0.55097 0.18461 0.76264 0.0
H1504 H 0.70606 0.60002 0.18475 0.0
H1505 H 0.77327 0.5918 0.23428 0.0
H1506 H 0.77976 0.63037 0.19826 0.0
H1507 H 0.73834 0.62289 0.10534 0.0
H1508 H 0.70488 0.64608 0.09318 0.0
H1509 H 0.70525 0.61746 0.12242 0.0
H1510 H 0.66797 0.64583 0.16153 0.0
H1511 H 0.66744 0.67453 0.13239 0.0
H1512 H 0.67544 0.67076 0.17121 0.0
H1513 H 0.78019 0.6694 0.15674 0.0
H1514 H 0.77319 0.70755 0.11436 0.0
H1515 H 0.70433 0.69405 0.09007 0.0
C1516 C 0.7222 0.6063 0.188 0.0
C1517 C 0.73925 0.59236 0.21275 0.0
C1518 C 0.75987 0.6017 0.21592 0.0
C1519 C 0.76379 0.62374 0.19537 0.0
C1520 C 0.74683 0.63689 0.17143 0.0
C1521 C 0.72625 0.62872 0.16766 0.0
C1522 C 0.7106 0.64708 0.14014 0.0
C1523 C 0.71503 0.63251 0.1137 0.0
C1524 C 0.67845 0.66033 0.15203 0.0
C1525 C 0.72573 0.66668 0.12903 0.0
C1526 C 0.74663 0.66011 0.14754 0.0
C1527 C 0.76381 0.6747 0.14222 0.0
C1528 C 0.7596 0.69656 0.11773 0.0
C1529 C 0.73817 0.7044 0.09821 0.0
C1530 C 0.72097 0.68893 0.10418 0.0
H1531 H 0.91897 0.48509 0.5049 0.0
H1532 H 0.87249 0.53827 0.5698 0.0
H1533 H 0.82634 0.53904 0.56072 0.0
H1534 H 0.879 0.51484 0.44898 0.0
H1535 H 0.88038 0.48677 0.43691 0.0
H1536 H 0.90877 0.48454 0.45542 0.0
H1537 H 0.90082 0.44691 0.49854 0.0
H1538 H 0.87228 0.44872 0.48017 0.0
H1539 H 0.86555 0.45097 0.5214 0.0
H1540 H 0.78648 0.54148 0.53505 0.0
H1541 H 0.75706 0.54564 0.49603 0.0
H1542 H 0.83076 0.49098 0.44774 0.0
C1543 C 0.89907 0.49612 0.51812 0.0
C1544 C 0.89895 0.51164 0.53797 0.0
C1545 C 0.87276 0.5261 0.55472 0.0
C1546 C 0.84659 0.52654 0.54972 0.0
C1547 C 0.84738 0.51194 0.52853 0.0
C1548 C 0.87313 0.49661 0.51345 0.0
C1549 C 0.86872 0.48582 0.4883 0.0
C1550 C 0.88515 0.49349 0.4555 0.0
C1551 C 0.87736 0.45634 0.49768 0.0
C1552 C 0.83657 0.49907 0.4897 0.0
C1553 C 0.82444 0.51343 0.51363 0.0
C1554 C 0.79562 0.52978 0.51682 0.0
C1555 C 0.77912 0.53216 0.49443 0.0
C1556 C 0.79163 0.51851 0.46893 0.0
C1557 C 0.82037 0.50104 0.46745 0.0
H1558 H 0.15434 0.5118 0.58423 0.0
H1559 H 0.19575 0.42876 0.61041 0.0
H1560 H 0.16973 0.42266 0.57503 0.0
H1561 H 0.09035 0.51364 0.59041 0.0
H1562 H 0.0783 0.53915 0.55741 0.0
H1563 H 0.10674 0.53765 0.57523 0.0
H1564 H 0.1404 0.53647 0.52111 0.0
H1565 H 0.11169 0.53854 0.50276 0.0
H1566 H 0.14609 0.51253 0.49849 0.0
H1567 H 0.1289 0.42541 0.5527 0.0
H1568 H 0.08058 0.43709 0.53972 0.0
H1569 H 0.06745 0.51827 0.52461 0.0
C1570 C 0.15937 0.49239 0.58096 0.0
C1571 C 0.17699 0.47077 0.60008 0.0
C1572 C 0.1822 0.4456 0.59606 0.0
C1573 C 0.16762 0.44196 0.57587 0.0
C1574 C 0.14844 0.46371 0.55934 0.0
C1575 C 0.14496 0.48852 0.5609 0.0
C1576 C 0.11976 0.50853 0.54531 0.0
C1577 C 0.09751 0.5257 0.56848 0.0
C1578 C 0.13012 0.52498 0.51511 0.0
C1579 C 0.1081 0.49103 0.53735 0.0
C1580 C 0.1252 0.46525 0.54503 0.0
C1581 C 0.11597 0.44549 0.54526 0.0
C1582 C 0.08844 0.45226 0.53813 0.0
C1583 C 0.07065 0.47853 0.53067 0.0
C1584 C 0.08108 0.49802 0.52916 0.0
H1585 H 0.53029 0.79346 0.16176 0.0
H1586 H 0.55704 0.79289 0.24764 0.0
H1587 H 0.59866 0.80337 0.21585 0.0
H1588 H 0.59873 0.76122 0.12499 0.0
H1589 H 0.59357 0.77878 0.08532 0.0
H1590 H 0.56324 0.77561 0.11411 0.0
H1591 H 0.53782 0.82548 0.10471 0.0
H1592 H 0.56822 0.82877 0.07588 0.0
H1593 H 0.55588 0.84516 0.10911 0.0
H1594 H 0.64005 0.80824 0.17651 0.0
H1595 H 0.67996 0.80554 0.13179 0.0
H1596 H 0.62734 0.80289 0.07069 0.0
C1597 C 0.54453 0.79624 0.17368 0.0
C1598 C 0.54044 0.79254 0.20707 0.0
C1599 C 0.55987 0.79563 0.22205 0.0
C1600 C 0.58343 0.80178 0.20419 0.0
C1601 C 0.5873 0.80477 0.17137 0.0
C1602 C 0.56847 0.8021 0.15616 0.0
C1603 C 0.57947 0.80339 0.12094 0.0
C1604 C 0.58403 0.77826 0.11076 0.0
C1605 C 0.55913 0.82712 0.10152 0.0
C1606 C 0.60782 0.80631 0.11902 0.0
C1607 C 0.61163 0.8075 0.14833 0.0
C1608 C 0.63715 0.80784 0.15328 0.0
C1609 C 0.6597 0.80625 0.12779 0.0
C1610 C 0.65658 0.80431 0.09778 0.0
C1611 C 0.63004 0.80505 0.09318 0.0
H1612 H 0.62066 0.53242 0.14235 0.0
H1613 H 0.69036 0.5203 0.06294 0.0
H1614 H 0.65909 0.51606 0.03196 0.0
H1615 H 0.5971 0.48701 0.13771 0.0
H1616 H 0.55912 0.50464 0.14742 0.0
H1617 H 0.58459 0.51166 0.16145 0.0
H1618 H 0.56366 0.55983 0.13495 0.0
H1619 H 0.53754 0.55331 0.12123 0.0
H1620 H 0.5609 0.56813 0.09335 0.0
H1621 H 0.62291 0.507 1.01298 0.0
H1622 H 0.58233 0.49826 1.00478 0.0
H1623 H 0.53658 0.51618 0.0971 0.0
C1624 C 0.62897 0.53002 0.11797 0.0
C1625 C 0.65783 0.5268 0.10492 0.0
C1626 C 0.66826 0.52279 0.0733 0.0
C1627 C 0.65068 0.52039 0.05557 0.0
C1628 C 0.62278 0.52229 0.06981 0.0
C1629 C 0.61178 0.52754 0.10005 0.0
C1630 C 0.58191 0.52669 0.11085 0.0
C1631 C 0.58064 0.50628 0.14114 0.0
C1632 C 0.55967 0.55358 0.11537 0.0
C1633 C 0.57839 0.51888 0.08258 0.0
C1634 C 0.60202 0.51677 0.059 0.0
C1635 C 0.60411 0.50895 0.03107 0.0
C1636 C 0.58107 0.50381 0.02679 0.0
C1637 C 0.55637 0.50643 0.0504 0.0
C1638 C 0.55526 0.51377 0.07876 0.0
H1639 H 0.38577 0.41726 0.07965 0.0
H1640 H 0.42577 0.36942 0.16189 0.0
H1641 H 0.40252 0.33863 0.165 0.0
H1642 H 0.31899 0.40895 0.10583 0.0
H1643 H 0.31439 0.40803 0.06715 0.0
H1644 H 0.33501 0.42572 0.07075 0.0
H1645 H 0.37852 0.39942 0.03427 0.0
H1646 H 0.35813 0.38155 0.03048 0.0
H1647 H 0.39236 0.3646 0.04427 0.0
H1648 H 0.37411 0.31377 0.1598 0.0
H1649 H 0.34167 0.29684 0.14748 0.0
H1650 H 0.32048 0.36098 0.06843 0.0
C1651 C 0.39001 0.40011 0.09805 0.0
C1652 C 0.40767 0.39566 0.12049 0.0
C1653 C 0.41212 0.3733 0.14464 0.0
C1654 C 0.39919 0.35564 0.14644 0.0
C1655 C 0.38195 0.36064 0.12389 0.0
C1656 C 0.37734 0.38232 0.10017 0.0
C1657 C 0.35721 0.38362 0.07943 0.0
C1658 C 0.32978 0.40802 0.0809 0.0
C1659 C 0.37248 0.3822 0.04508 0.0
C1660 C 0.35092 0.35937 0.09543 0.0
C1661 C 0.36552 0.34634 0.12092 0.0
C1662 C 0.3626 0.32377 0.13988 0.0
C1663 C 0.34401 0.3144 0.1328 0.0
C1664 C 0.3285 0.32765 0.10707 0.0
C1665 C 0.33231 0.35027 0.08799 0.0
H1666 H 0.03621 0.18217 0.24078 0.0
H1667 H 0.0443 0.20609 0.32196 0.0
H1668 H 0.08212 0.16351 0.336 0.0
H1669 H 0.04979 0.11432 0.27553 0.0
H1670 H 0.07111 0.10294 0.23982 0.0
H1671 H 0.04305 0.13453 0.23735 0.0
H1672 H 0.07979 0.15527 0.20414 0.0
H1673 H 0.10788 0.12376 0.20629 0.0
H1674 H 0.11182 0.14902 0.21949 0.0
H1675 H 0.11891 0.11882 0.34118 0.0
H1676 H 0.15671 0.07672 0.33382 0.0
H1677 H 0.12738 0.08231 0.24721 0.0
C1678 C 0.04579 0.17826 0.26167 0.0
C1679 C 0.03724 0.19724 0.28052 0.0
C1680 C 0.05062 0.19176 0.30726 0.0
C1681 C 0.07195 0.1676 0.31552 0.0
C1682 C 0.07994 0.14927 0.29651 0.0
C1683 C 0.06764 0.15441 0.26985 0.0
C1684 C 0.08185 0.13202 0.25212 0.0
C1685 C 0.06015 0.12026 0.25116 0.0
C1686 C 0.09619 0.14053 0.21853 0.0
C1687 C 0.10405 0.11356 0.27298 0.0
C1688 C 0.1022 0.12378 0.29871 0.0
C1689 C 0.12059 0.11059 0.32114 0.0
C1690 C 0.14195 0.08659 0.31678 0.0
C1691 C 0.14507 0.07611 0.28993 0.0
C1692 C 0.12549 0.08968 0.26806 0.0
H1693 H 0.25171 0.35235 0.95649 0.0
H1694 H 0.17394 0.34471 0.94672 0.0
H1695 H 0.16346 0.38463 0.90642 0.0
H1696 H 0.22338 0.42412 0.94389 0.0
H1697 H 0.25629 0.42711 0.92067 0.0
H1698 H 0.25742 0.39861 0.95045 0.0
H1699 H 0.28568 0.36998 0.90828 0.0
H1700 H 0.28451 0.39838 0.87833 0.0
H1701 H 0.2709 0.37569 0.8729 0.0
H1702 H 0.16137 0.42454 0.8655 0.0
H1703 H 0.1677 0.46201 0.82678 0.0
H1704 H 0.24713 0.44622 0.85956 0.0
C1705 C 0.23218 0.35943 0.94634 0.0
C1706 C 0.21336 0.34524 0.95554 0.0
C1707 C 0.18858 0.35503 0.94064 0.0
C1708 C 0.18242 0.37782 0.91752 0.0
C1709 C 0.20132 0.39111 0.90866 0.0
C1710 C 0.22576 0.3824 0.92251 0.0
C1711 C 0.2428 0.40027 0.90719 0.0
C1712 C 0.24511 0.4133 0.93204 0.0
C1713 C 0.27275 0.38518 0.89071 0.0
C1714 C 0.22408 0.42021 0.88286 0.0
C1715 C 0.20027 0.41434 0.88435 0.0
C1716 C 0.17991 0.42933 0.86427 0.0
C1717 C 0.18374 0.45078 0.84215 0.0
C1718 C 0.20781 0.45767 0.83968 0.0
C1719 C 0.22829 0.44191 0.86064 0.0
H1720 H 0.30898 0.28582 0.96517 0.0
H1721 H 0.3105 0.20954 0.96712 0.0
H1722 H 0.35492 0.20151 0.92789 0.0
H1723 H 0.32781 0.30075 0.8844 0.0
H1724 H 0.34978 0.31824 0.88498 0.0
H1725 H 0.32113 0.31653 0.91717 0.0
H1726 H 0.35709 0.29743 0.95726 0.0
H1727 H 0.38591 0.29931 0.92516 0.0
H1728 H 0.38864 0.26894 0.95162 0.0
H1729 H 0.39479 0.20372 0.88425 0.0
H1730 H 0.42863 0.21563 0.83901 0.0
H1731 H 0.40121 0.29085 0.86442 0.0
C1732 C 0.31921 0.26711 0.9581 0.0
C1733 C 0.30655 0.24817 0.96931 0.0
C1734 C 0.31999 0.22424 0.95885 0.0
C1735 C 0.34524 0.21948 0.93669 0.0
C1736 C 0.35669 0.23886 0.92529 0.0
C1737 C 0.34426 0.26216 0.93572 0.0
C1738 C 0.35921 0.28069 0.91731 0.0
C1739 C 0.33823 0.3055 0.89994 0.0
C1740 C 0.37357 0.28695 0.93915 0.0
C1741 C 0.3814 0.26442 0.89426 0.0
C1742 C 0.37976 0.24026 0.89959 0.0
C1743 C 0.39665 0.2224 0.88012 0.0
C1744 C 0.41567 0.22943 0.85437 0.0
C1745 C 0.41759 0.25414 0.84827 0.0
C1746 C 0.40047 0.2717 0.86876 0.0
H1747 H 0.38968 0.50441 0.01895 0.0
H1748 H 0.44399 0.5377 0.94453 0.0
H1749 H 0.4284 0.526 0.90443 0.0
H1750 H 0.39598 0.45208 0.98061 0.0
H1751 H 0.3586 0.45613 0.99308 0.0
H1752 H 0.37708 0.46324 0.01713 0.0
H1753 H 0.33885 0.50974 0.01526 0.0
H1754 H 0.31992 0.50243 0.9921 0.0
H1755 H 0.3309 0.52992 0.97736 0.0
H1756 H 0.40686 0.51242 0.87237 0.0
H1757 H 0.37037 0.50933 0.84844 0.0
H1758 H 0.32609 0.48836 0.9421 0.0
C1759 C 0.39806 0.5093 0.99416 0.0
C1760 C 0.41783 0.52204 0.98474 0.0
C1761 C 0.42842 0.52829 0.95219 0.0
C1762 C 0.4202 0.52124 0.92928 0.0
C1763 C 0.40108 0.50828 0.93926 0.0
C1764 C 0.38941 0.50305 0.97075 0.0
C1765 C 0.36607 0.49246 0.97438 0.0
C1766 C 0.37497 0.46431 0.99236 0.0
C1767 C 0.33723 0.50968 0.99071 0.0
C1768 C 0.36548 0.49398 0.93982 0.0
C1769 C 0.38695 0.50185 0.92021 0.0
C1770 C 0.39001 0.50612 0.88734 0.0
C1771 C 0.36933 0.50411 0.87397 0.0
C1772 C 0.34559 0.49857 0.89354 0.0
C1773 C 0.34432 0.4923 0.92679 0.0
H1774 H 0.6294 0.67499 0.99353 0.0
H1775 H 0.6724 0.69352 0.8982 0.0
H1776 H 0.6575 0.66414 0.88048 0.0
H1777 H 0.64518 0.60673 0.99272 0.0
H1778 H 0.6106 0.60776 0.01527 0.0
H1779 H 0.62731 0.62805 0.02094 0.0
H1780 H 0.58182 0.66848 1.00871 0.0
H1781 H 0.56507 0.64832 1.00297 0.0
H1782 H 0.56876 0.67483 0.97198 0.0
H1783 H 0.63371 0.63606 0.87227 0.0
H1784 H 0.60461 0.61013 0.87483 0.0
H1785 H 0.57704 0.61092 0.97547 0.0
C1786 C 0.63594 0.67265 0.969 0.0
C1787 C 0.65204 0.68648 0.94721 0.0
C1788 C 0.66035 0.68283 0.91534 0.0
C1789 C 0.6519 0.66628 0.90506 0.0
C1790 C 0.63544 0.65338 0.92704 0.0
C1791 C 0.6278 0.65619 0.95842 0.0
C1792 C 0.60888 0.64121 0.977 0.0
C1793 C 0.6239 0.61966 1.00302 0.0
C1794 C 0.57939 0.65929 0.99097 0.0
C1795 C 0.60634 0.63016 0.95096 0.0
C1796 C 0.62196 0.63717 0.92236 0.0
C1797 C 0.62168 0.63019 0.89463 0.0
C1798 C 0.60496 0.61564 0.89625 0.0
C1799 C 0.5888 0.60833 0.92539 0.0
C1800 C 0.5897 0.61567 0.953 0.0
H1801 H 0.90146 0.85456 0.79355 0.0
H1802 H 0.91118 0.84796 0.69557 0.0
H1803 H 0.87708 0.89297 0.68439 0.0
H1804 H 0.82692 0.88995 0.80267 0.0
H1805 H 0.82762 0.90973 0.82769 0.0
H1806 H 0.85461 0.87787 0.8272 0.0
H1807 H 0.8946 0.89716 0.81276 0.0
H1808 H 0.86767 0.92915 0.81307 0.0
H1809 H 0.8943 0.92234 0.77835 0.0
H1810 H 0.83961 0.93744 0.68474 0.0
H1811 H 0.79994 0.97746 0.69697 0.0
H1812 H 0.81469 0.95522 0.79473 0.0
C1813 C 0.89674 0.86261 0.7696 0.0
C1814 C 0.90912 0.84768 0.74539 0.0
C1815 C 0.90202 0.85896 0.71452 0.0
C1816 C 0.88277 0.88457 0.70789 0.0
C1817 C 0.87087 0.89865 0.73237 0.0
C1818 C 0.87753 0.88806 0.76262 0.0
C1819 C 0.86044 0.90673 0.78517 0.0
C1820 C 0.84126 0.89539 0.81227 0.0
C1821 C 0.88045 0.91429 0.79809 0.0
C1822 C 0.84267 0.92936 0.76299 0.0
C1823 C 0.84925 0.92437 0.73257 0.0
C1824 C 0.83451 0.94168 0.70836 0.0
C1825 C 0.81199 0.96437 0.71556 0.0
C1826 C 0.80437 0.96959 0.74674 0.0
C1827 C 0.82039 0.95206 0.77054 0.0
H1828 H 0.44542 0.14297 0.66931 0.0
H1829 H 0.49214 0.18549 0.59731 0.0
H1830 H 0.49945 0.1572 0.56028 0.0
H1831 H 0.4891 0.07901 0.64757 0.0
H1832 H 0.45842 0.06947 0.6559 0.0
H1833 H 0.45927 0.09154 0.67755 0.0
H1834 H 0.41074 0.12464 0.66063 0.0
H1835 H 0.41 0.10281 0.63861 0.0
H1836 H 0.40772 0.13514 0.61907 0.0
H1837 H 0.4986 0.12659 0.52997 0.0
H1838 H 0.49176 0.09441 0.50888 0.0
H1839 H 0.44501 0.0718 0.6004 0.0
C1840 C 0.45737 0.14622 0.64582 0.0
C1841 C 0.46822 0.16647 0.6362 0.0
C1842 C 0.48396 0.16992 0.60535 0.0
C1843 C 0.48808 0.15404 0.5841 0.0
C1844 C 0.47652 0.13468 0.59413 0.0
C1845 C 0.46176 0.1305 0.62435 0.0
C1846 C 0.45085 0.10881 0.62886 0.0
C1847 C 0.46527 0.08585 0.65396 0.0
C1848 C 0.41787 0.11844 0.63728 0.0
C1849 C 0.46089 0.10206 0.59608 0.0
C1850 C 0.47589 0.11706 0.57655 0.0
C1851 C 0.487 0.11466 0.54509 0.0
C1852 C 0.48285 0.09633 0.53332 0.0
C1853 C 0.46763 0.08059 0.55289 0.0
C1854 C 0.45652 0.08361 0.58472 0.0
H1855 H 0.48286 0.39856 0.87883 0.0
H1856 H 0.49102 0.33292 0.95663 0.0
H1857 H 0.49313 0.35845 0.99204 0.0
H1858 H 0.53016 0.42065 0.89719 0.0
H1859 H 0.50925 0.45464 0.88735 0.0
H1860 H 0.50644 0.43204 0.86812 0.0
H1861 H 0.45115 0.44778 0.88664 0.0
H1862 H 0.45412 0.47094 0.90479 0.0
H1863 H 0.43734 0.44847 0.92808 0.0
H1864 H 0.49832 0.38952 0.01791 0.0
H1865 H 0.5015 0.42578 0.03429 0.0
H1866 H 0.48754 0.47243 0.94075 0.0
C1867 C 0.48442 0.38973 0.90348 0.0
C1868 C 0.4871 0.36357 0.91479 0.0
C1869 C 0.4895 0.35272 0.94718 0.0
C1870 C 0.49057 0.36711 0.96756 0.0
C1871 C 0.48882 0.3925 0.9554 0.0
C1872 C 0.48528 0.40392 0.9243 0.0
C1873 C 0.48438 0.43147 0.91724 0.0
C1874 C 0.50903 0.43488 0.89091 0.0
C1875 C 0.45499 0.4508 0.9087 0.0
C1876 C 0.48865 0.43348 0.94902 0.0
C1877 C 0.49116 0.41074 0.97065 0.0
C1878 C 0.49609 0.40753 1.00129 0.0
C1879 C 0.49802 0.42825 1.0103 0.0
C1880 C 0.49482 0.45204 0.98884 0.0
C1881 C 0.49022 0.45452 0.95771 0.0
H1882 H 0.47758 0.89109 0.3801 0.0
H1883 H 0.47592 0.83031 0.46222 0.0
H1884 H 0.47048 0.85962 0.49712 0.0
H1885 H 0.51947 0.91532 0.4062 0.0
H1886 H 0.50051 0.94876 0.39035 0.0
H1887 H 0.50205 0.92371 0.37205 0.0
H1888 H 0.44637 0.94119 0.37903 0.0
H1889 H 0.44467 0.9664 0.39722 0.0
H1890 H 0.42575 0.945 0.41787 0.0
H1891 H 0.46872 0.89459 0.52274 0.0
H1892 H 0.46878 0.93311 0.53726 0.0
H1893 H 0.47144 0.97112 0.43839 0.0
C1894 C 0.47594 0.88396 0.40544 0.0
C1895 C 0.47714 0.85837 0.4184 0.0
C1896 C 0.47465 0.84992 0.45174 0.0
C1897 C 0.47172 0.86638 0.47175 0.0
C1898 C 0.47112 0.89132 0.45812 0.0
C1899 C 0.4729 0.90016 0.42574 0.0
C1900 C 0.47246 0.92758 0.417 0.0
C1901 C 0.50028 0.92891 0.39511 0.0
C1902 C 0.44572 0.94614 0.40189 0.0
C1903 C 0.47076 0.93262 0.44944 0.0
C1904 C 0.46992 0.91149 0.47286 0.0
C1905 C 0.46922 0.91128 0.5046 0.0
C1906 C 0.46942 0.93321 0.51259 0.0
C1907 C 0.47022 0.95511 0.48895 0.0
C1908 C 0.47071 0.95475 0.45702 0.0
H1909 H 0.48878 0.59401 0.044 0.0
H1910 H 0.42291 0.56732 0.1063 0.0
H1911 H 0.4114 0.60016 0.13833 0.0
H1912 H 0.51336 0.60715 0.1048 0.0
H1913 H 0.51932 0.63556 0.08047 0.0
H1914 H 0.52213 0.60994 0.06229 0.0
H1915 H 0.4843 0.64315 0.02722 0.0
H1916 H 0.48123 0.66858 0.04591 0.0
H1917 H 0.44965 0.66234 0.04591 0.0
H1918 H 0.40784 0.63458 0.16491 0.0
H1919 H 0.41119 0.67005 0.18316 0.0
H1920 H 0.47875 0.67532 0.10384 0.0
C1921 C 0.47177 0.59522 0.0642 0.0
C1922 C 0.45673 0.57803 0.07251 0.0
C1923 C 0.43476 0.5802 0.09931 0.0
C1924 C 0.42804 0.59881 0.11776 0.0
C1925 C 0.44337 0.61525 0.10913 0.0
C1926 C 0.46468 0.6138 0.08293 0.0
C1927 C 0.47791 0.63384 0.07913 0.0
C1928 C 0.5101 0.62083 0.08183 0.0
C1929 C 0.47296 0.65312 0.04767 0.0
C1930 C 0.46075 0.64664 0.10736 0.0
C1931 C 0.44104 0.6355 0.12436 0.0
C1932 C 0.42313 0.64353 0.15177 0.0
C1933 C 0.42533 0.66357 0.16207 0.0
C1934 C 0.44523 0.67544 0.14499 0.0
C1935 C 0.46312 0.66681 0.11722 0.0
loop_
_geom_bond_atom_site_label_1
_geom_bond_atom_site_label_2
_geom_bond_distance
_geom_bond_site_symmetry_2
_ccdc_geom_bond_type
Tb0 C10 2.825 . S
Tb0 O11 2.347 1_564 S
Tb0 O14 2.366 1_654 S
Tb0 O19 2.418 1_655 S
Tb0 O20 2.384 1_565 S
Tb0 O23 2.479 . S
Tb0 O24 2.471 . S
Eu1 O12 2.418 1_455 S
Eu1 O13 2.384 1_545 S
Eu1 O16 2.479 . S
Eu1 O17 2.471 . S
Eu1 O18 2.347 1_546 S
Eu1 O21 2.366 1_456 S
Eu1 C31 2.825 . S
C2 O18 1.259 . S
C2 O19 1.265 . S
C3 O20 1.255 . S
C3 O21 1.265 . S
C4 C6 1.380 . S
C4 C7 1.374 . S
C4 C10 1.507 . S
C5 C6 1.384 . S
C5 C9 1.387 . S
C5 H32 0.930 . S
C6 C4 1.380 . S
C6 C5 1.384 . S
C6 H33 0.931 . S
C7 C4 1.374 . S
C7 C8 1.390 . S
C7 H34 0.936 . S
C8 C7 1.390 . S
C8 C9 1.391 . S
C8 H35 0.930 . S
C9 C5 1.387 . S
C9 C8 1.391 . S
C10 Tb0 2.825 . S
C10 C4 1.507 . S
C10 O23 1.238 . S
C10 O24 1.247 . S
O11 Tb0 2.347 1_546 S
O11 C15 1.259 . S
O12 Eu1 2.418 1_655 S
O12 C15 1.265 . S
O13 Eu1 2.384 1_565 S
O13 C22 1.255 . S
O14 Tb0 2.366 1_456 S
O14 C22 1.265 . S
C15 O11 1.259 . S
C15 O12 1.265 . S
O16 Eu1 2.479 . S
O16 C31 1.238 . S
O17 Eu1 2.471 . S
O17 C31 1.247 . S
O18 Eu1 2.347 1_564 S
O18 C2 1.259 . S
O19 Tb0 2.418 1_455 S
O19 C2 1.265 . S
O20 Tb0 2.384 1_545 S
O20 C3 1.255 . S
O21 Eu1 2.366 1_654 S
O21 C3 1.265 . S
C22 O13 1.255 . S
C22 O14 1.265 . S
O23 Tb0 2.479 . S
O23 C10 1.238 . S
O24 Tb0 2.471 . S
O24 C10 1.247 . S
C25 C28 1.380 . S
C25 C29 1.374 . S
C25 C31 1.507 . S
C26 C27 1.387 . S
C26 C30 1.391 . S
C27 C26 1.387 . S
C27 C28 1.384 . S
C27 H36 0.930 . S
C28 C25 1.380 . S
C28 C27 1.384 . S
C28 H37 0.931 . S
C29 C25 1.374 . S
C29 C30 1.390 . S
C29 H38 0.930 1_556 S
C30 C26 1.391 . S
C30 C29 1.390 . S
C30 H39 0.930 . S
C31 Eu1 2.825 . S
C31 O16 1.238 . S
C31 O17 1.247 . S
C31 C25 1.507 . S
H32 C5 0.930 . S
H33 C6 0.931 . S
H34 C7 0.936 . S
H35 C8 0.930 . S
H36 C27 0.930 . S
H37 C28 0.931 . S
H38 C29 0.930 1_554 S
H39 C30 0.930 . S
Tb40 C50 2.825 . S
Tb40 O51 2.347 1_455 S
Tb40 O54 2.366 1_455 S
Tb40 O59 2.418 . S
Tb40 O60 2.384 . S
Tb40 O63 2.479 . S
Tb40 O64 2.471 1_455 S
Eu41 O52 2.418 . S
Eu41 O53 2.384 . S
Eu41 O56 2.479 . S
Eu41 O57 2.471 1_655 S
Eu41 O58 2.347 1_655 S
Eu41 O61 2.366 1_655 S
Eu41 C71 2.825 . S
C42 O58 1.259 . S
C42 O59 1.265 . S
C43 O60 1.255 . S
C43 O61 1.265 . S
C44 C46 1.380 . S
C44 C47 1.374 1_455 S
C44 C50 1.507 . S
C45 C46 1.384 . S
C45 C49 1.387 1_455 S
C45 H72 0.930 . S
C46 C44 1.380 . S
C46 C45 1.384 . S
C46 H73 0.931 . S
C47 C44 1.374 1_655 S
C47 C48 1.390 . S
C47 H74 0.930 . S
C48 C47 1.390 . S
C48 C49 1.391 . S
C48 H75 0.930 . S
C49 C45 1.387 1_655 S
C49 C48 1.391 . S
C50 Tb40 2.825 . S
C50 C44 1.507 . S
C50 O63 1.238 . S
C50 O64 1.247 1_455 S
O51 Tb40 2.347 1_655 S
O51 C55 1.259 . S
O52 Eu41 2.418 . S
O52 C55 1.265 . S
O53 Eu41 2.384 . S
O53 C62 1.255 . S
O54 Tb40 2.366 1_655 S
O54 C62 1.265 . S
C55 O51 1.259 . S
C55 O52 1.265 . S
O56 Eu41 2.479 . S
O56 C71 1.238 . S
O57 Eu41 2.471 1_455 S
O57 C71 1.247 1_455 S
O58 Eu41 2.347 1_455 S
O58 C42 1.259 . S
O59 Tb40 2.418 . S
O59 C42 1.265 . S
O60 Tb40 2.384 . S
O60 C43 1.255 . S
O61 Eu41 2.366 1_455 S
O61 C43 1.265 . S
C62 O53 1.255 . S
C62 O54 1.265 . S
O63 Tb40 2.479 . S
O63 C50 1.238 . S
O64 Tb40 2.471 1_655 S
O64 C50 1.247 1_655 S
C65 C68 1.380 . S
C65 C69 1.374 1_655 S
C65 C71 1.507 . S
C66 C67 1.387 1_455 S
C66 C70 1.391 . S
C67 C66 1.387 1_655 S
C67 C68 1.384 . S
C67 H76 0.930 . S
C68 C65 1.380 . S
C68 C67 1.384 . S
C68 H77 0.931 . S
C69 C65 1.374 1_455 S
C69 C70 1.390 . S
C69 H78 0.930 . S
C70 C66 1.391 . S
C70 C69 1.390 . S
C70 H79 0.930 . S
C71 Eu41 2.825 . S
C71 O56 1.238 . S
C71 O57 1.247 1_655 S
C71 C65 1.507 . S
H72 C45 0.930 . S
H73 C46 0.931 . S
H74 C47 0.930 . S
H75 C48 0.930 . S
H76 C67 0.930 . S
H77 C68 0.931 . S
H78 C69 0.930 . S
H79 C70 0.930 . S
Tb80 C90 2.825 . S
Tb80 O91 2.347 . S
Tb80 O94 2.366 . S
Tb80 O99 2.418 . S
Tb80 O100 2.384 . S
Tb80 O103 2.479 . S
Tb80 O104 2.471 . S
Eu81 O92 2.418 . S
Eu81 O93 2.384 . S
Eu81 O96 2.479 . S
Eu81 O97 2.471 . S
Eu81 O98 2.347 . S
Eu81 O101 2.366 . S
Eu81 C111 2.825 . S
C82 O98 1.259 . S
C82 O99 1.265 . S
C83 O100 1.255 . S
C83 O101 1.265 . S
C84 C86 1.380 . S
C84 C87 1.374 . S
C84 C90 1.507 . S
C85 C86 1.384 . S
C85 C89 1.387 . S
C85 H112 0.930 . S
C86 C84 1.380 . S
C86 C85 1.384 . S
C86 H113 0.931 . S
C87 C84 1.374 . S
C87 C88 1.390 . S
C87 H114 0.930 . S
C88 C87 1.390 . S
C88 C89 1.391 . S
C88 H115 0.930 . S
C89 C85 1.387 . S
C89 C88 1.391 . S
C90 Tb80 2.825 . S
C90 C84 1.507 . S
C90 O103 1.238 . S
C90 O104 1.247 . S
O91 Tb80 2.347 . S
O91 C95 1.259 . S
O92 Eu81 2.418 . S
O92 C95 1.265 . S
O93 Eu81 2.384 . S
O93 C102 1.255 . S
O94 Tb80 2.366 . S
O94 C102 1.265 . S
C95 O91 1.259 . S
C95 O92 1.265 . S
O96 Eu81 2.479 . S
O96 C111 1.238 . S
O97 Eu81 2.471 . S
O97 C111 1.247 . S
O98 Eu81 2.347 . S
O98 C82 1.259 . S
O99 Tb80 2.418 . S
O99 C82 1.265 . S
O100 Tb80 2.384 . S
O100 C83 1.255 . S
O101 Eu81 2.366 . S
O101 C83 1.265 . S
C102 O93 1.255 . S
C102 O94 1.265 . S
O103 Tb80 2.479 . S
O103 C90 1.238 . S
O104 Tb80 2.471 . S
O104 C90 1.247 . S
C105 C108 1.380 . S
C105 C109 1.374 . S
C105 C111 1.507 . S
C106 C107 1.387 . S
C106 C110 1.391 . S
C107 C106 1.387 . S
C107 C108 1.384 . S
C107 H116 0.930 . S
C108 C105 1.380 . S
C108 C107 1.384 . S
C108 H117 0.931 . S
C109 C105 1.374 . S
C109 C110 1.390 . S
C109 H118 0.930 . S
C110 C106 1.391 . S
C110 C109 1.390 . S
C110 H119 0.930 . S
C111 Eu81 2.825 . S
C111 O96 1.238 . S
C111 O97 1.247 . S
C111 C105 1.507 . S
H112 C85 0.930 . S
H113 C86 0.931 . S
H114 C87 0.930 . S
H115 C88 0.930 . S
H116 C107 0.930 . S
H117 C108 0.931 . S
H118 C109 0.930 . S
H119 C110 0.930 . S
Tb120 C130 2.825 . S
Tb120 O131 2.347 1_565 S
Tb120 O134 2.366 1_565 S
Tb120 O139 2.418 . S
Tb120 O140 2.384 . S
Tb120 O143 2.479 . S
Tb120 O144 2.471 1_565 S
Eu121 O132 2.418 . S
Eu121 O133 2.384 . S
Eu121 O136 2.479 . S
Eu121 O137 2.471 1_545 S
Eu121 O138 2.347 1_545 S
Eu121 O141 2.366 1_545 S
Eu121 C151 2.825 . S
C122 O138 1.259 . S
C122 O139 1.265 . S
C123 O140 1.255 . S
C123 O141 1.265 . S
C124 C126 1.380 1_545 S
C124 C127 1.374 . S
C124 C130 1.507 1_545 S
C125 C126 1.384 . S
C125 C129 1.387 1_565 S
C125 H152 0.930 . S
C126 C124 1.380 1_565 S
C126 C125 1.384 . S
C126 H153 0.931 . S
C127 C124 1.374 . S
C127 C128 1.390 . S
C127 H154 0.930 . S
C128 C127 1.390 . S
C128 C129 1.391 . S
C128 H155 0.930 . S
C129 C125 1.387 1_545 S
C129 C128 1.391 . S
C130 Tb120 2.825 . S
C130 C124 1.507 1_565 S
C130 O143 1.238 . S
C130 O144 1.247 1_565 S
O131 Tb120 2.347 1_545 S
O131 C135 1.259 . S
O132 Eu121 2.418 . S
O132 C135 1.265 . S
O133 Eu121 2.384 . S
O133 C142 1.255 . S
O134 Tb120 2.366 1_545 S
O134 C142 1.265 . S
C135 O131 1.259 . S
C135 O132 1.265 . S
O136 Eu121 2.479 . S
O136 C151 1.238 . S
O137 Eu121 2.471 1_565 S
O137 C151 1.247 1_565 S
O138 Eu121 2.347 1_565 S
O138 C122 1.259 . S
O139 Tb120 2.418 . S
O139 C122 1.265 . S
O140 Tb120 2.384 . S
O140 C123 1.255 . S
O141 Eu121 2.366 1_565 S
O141 C123 1.265 . S
C142 O133 1.255 . S
C142 O134 1.265 . S
O143 Tb120 2.479 . S
O143 C130 1.238 . S
O144 Tb120 2.471 1_545 S
O144 C130 1.247 1_545 S
C145 C148 1.380 1_565 S
C145 C149 1.374 . S
C145 C151 1.507 1_565 S
C146 C147 1.387 1_565 S
C146 C150 1.391 . S
C147 C146 1.387 1_545 S
C147 C148 1.384 . S
C147 H156 0.930 . S
C148 C145 1.380 1_545 S
C148 C147 1.384 . S
C148 H157 0.931 . S
C149 C145 1.374 . S
C149 C150 1.390 . S
C149 H158 0.930 . S
C150 C146 1.391 . S
C150 C149 1.390 . S
C150 H159 0.930 . S
C151 Eu121 2.825 . S
C151 O136 1.238 . S
C151 O137 1.247 1_545 S
C151 C145 1.507 1_545 S
H152 C125 0.930 . S
H153 C126 0.931 . S
H154 C127 0.930 . S
H155 C128 0.930 . S
H156 C147 0.930 . S
H157 C148 0.931 . S
H158 C149 0.930 . S
H159 C150 0.930 . S
Tb160 C170 2.825 . S
Tb160 O171 2.347 . S
Tb160 O174 2.366 . S
Tb160 O179 2.418 . S
Tb160 O180 2.384 . S
Tb160 O183 2.479 . S
Tb160 O184 2.471 . S
Eu161 O172 2.418 . S
Eu161 O173 2.384 . S
Eu161 O176 2.479 . S
Eu161 O177 2.471 . S
Eu161 O178 2.347 . S
Eu161 O181 2.366 . S
Eu161 C191 2.825 . S
C162 O178 1.259 . S
C162 O179 1.265 . S
C163 O180 1.255 . S
C163 O181 1.265 . S
C164 C166 1.380 . S
C164 C167 1.374 . S
C164 C170 1.507 . S
C165 C166 1.384 . S
C165 C169 1.387 . S
C165 H192 0.930 . S
C166 C164 1.380 . S
C166 C165 1.384 . S
C166 H193 0.931 . S
C167 C164 1.374 . S
C167 C168 1.390 . S
C167 H194 0.930 . S
C168 C167 1.390 . S
C168 C169 1.391 . S
C168 H195 0.930 . S
C169 C165 1.387 . S
C169 C168 1.391 . S
C170 Tb160 2.825 . S
C170 C164 1.507 . S
C170 O183 1.238 . S
C170 O184 1.247 . S
O171 Tb160 2.347 . S
O171 C175 1.259 . S
O172 Eu161 2.418 . S
O172 C175 1.265 . S
O173 Eu161 2.384 . S
O173 C182 1.255 . S
O174 Tb160 2.366 . S
O174 C182 1.265 . S
C175 O171 1.259 . S
C175 O172 1.265 . S
O176 Eu161 2.479 . S
O176 C191 1.238 . S
O177 Eu161 2.471 . S
O177 C191 1.247 . S
O178 Eu161 2.347 . S
O178 C162 1.259 . S
O179 Tb160 2.418 . S
O179 C162 1.265 . S
O180 Tb160 2.384 . S
O180 C163 1.255 . S
O181 Eu161 2.366 . S
O181 C163 1.265 . S
C182 O173 1.255 . S
C182 O174 1.265 . S
O183 Tb160 2.479 . S
O183 C170 1.238 . S
O184 Tb160 2.471 . S
O184 C170 1.247 . S
C185 C188 1.380 . S
C185 C189 1.374 . S
C185 C191 1.507 . S
C186 C187 1.387 . S
C186 C190 1.391 . S
C187 C186 1.387 . S
C187 C188 1.384 . S
C187 H196 0.930 . S
C188 C185 1.380 . S
C188 C187 1.384 . S
C188 H197 0.931 . S
C189 C185 1.374 . S
C189 C190 1.390 . S
C189 H198 0.930 . S
C190 C186 1.391 . S
C190 C189 1.390 . S
C190 H199 0.930 . S
C191 Eu161 2.825 . S
C191 O176 1.238 . S
C191 O177 1.247 . S
C191 C185 1.507 . S
H192 C165 0.930 . S
H193 C166 0.931 . S
H194 C167 0.930 . S
H195 C168 0.930 . S
H196 C187 0.930 . S
H197 C188 0.931 . S
H198 C189 0.930 . S
H199 C190 0.930 . S
Tb200 C210 2.825 . S
Tb200 O211 2.347 . S
Tb200 O214 2.366 . S
Tb200 O219 2.418 . S
Tb200 O220 2.384 . S
Tb200 O223 2.479 . S
Tb200 O224 2.471 . S
Eu201 O212 2.418 . S
Eu201 O213 2.384 . S
Eu201 O216 2.479 . S
Eu201 O217 2.471 . S
Eu201 O218 2.347 . S
Eu201 O221 2.366 . S
Eu201 C231 2.825 . S
C202 O218 1.259 . S
C202 O219 1.265 . S
C203 O220 1.255 . S
C203 O221 1.265 . S
C204 C206 1.380 . S
C204 C207 1.374 . S
C204 C210 1.507 . S
C205 C206 1.384 . S
C205 C209 1.387 . S
C205 H232 0.930 . S
C206 C204 1.380 . S
C206 C205 1.384 . S
C206 H233 0.931 . S
C207 C204 1.374 . S
C207 C208 1.390 . S
C207 H234 0.930 . S
C208 C207 1.390 . S
C208 C209 1.391 . S
C208 H235 0.930 . S
C209 C205 1.387 . S
C209 C208 1.391 . S
C210 Tb200 2.825 . S
C210 C204 1.507 . S
C210 O223 1.238 . S
C210 O224 1.247 . S
O211 Tb200 2.347 . S
O211 C215 1.259 . S
O212 Eu201 2.418 . S
O212 C215 1.265 . S
O213 Eu201 2.384 . S
O213 C222 1.255 . S
O214 Tb200 2.366 . S
O214 C222 1.265 . S
C215 O211 1.259 . S
C215 O212 1.265 . S
O216 Eu201 2.479 . S
O216 C231 1.238 . S
O217 Eu201 2.471 . S
O217 C231 1.247 . S
O218 Eu201 2.347 . S
O218 C202 1.259 . S
O219 Tb200 2.418 . S
O219 C202 1.265 . S
O220 Tb200 2.384 . S
O220 C203 1.255 . S
O221 Eu201 2.366 . S
O221 C203 1.265 . S
C222 O213 1.255 . S
C222 O214 1.265 . S
O223 Tb200 2.479 . S
O223 C210 1.238 . S
O224 Tb200 2.471 . S
O224 C210 1.247 . S
C225 C228 1.380 . S
C225 C229 1.374 . S
C225 C231 1.507 . S
C226 C227 1.387 . S
C226 C230 1.391 . S
C227 C226 1.387 . S
C227 C228 1.384 . S
C227 H236 0.930 . S
C228 C225 1.380 . S
C228 C227 1.384 . S
C228 H237 0.931 . S
C229 C225 1.374 . S
C229 C230 1.390 . S
C229 H238 0.930 . S
C230 C226 1.391 . S
C230 C229 1.390 . S
C230 H239 0.930 . S
C231 Eu201 2.825 . S
C231 O216 1.238 . S
C231 O217 1.247 . S
C231 C225 1.507 . S
H232 C205 0.930 . S
H233 C206 0.931 . S
H234 C207 0.930 . S
H235 C208 0.930 . S
H236 C227 0.930 . S
H237 C228 0.931 . S
H238 C229 0.930 . S
H239 C230 0.930 . S
Tb240 C250 2.825 . S
Tb240 O251 2.347 . S
Tb240 O254 2.366 . S
Tb240 O259 2.418 . S
Tb240 O260 2.384 . S
Tb240 O263 2.479 . S
Tb240 O264 2.471 . S
Eu241 O252 2.418 . S
Eu241 O253 2.384 . S
Eu241 O256 2.479 . S
Eu241 O257 2.471 . S
Eu241 O258 2.347 . S
Eu241 O261 2.366 . S
Eu241 C271 2.825 . S
C242 O258 1.259 . S
C242 O259 1.265 . S
C243 O260 1.255 . S
C243 O261 1.265 . S
C244 C246 1.380 . S
C244 C247 1.374 . S
C244 C250 1.507 . S
C245 C246 1.384 . S
C245 C249 1.387 . S
C245 H272 0.930 . S
C246 C244 1.380 . S
C246 C245 1.384 . S
C246 H273 0.931 . S
C247 C244 1.374 . S
C247 C248 1.390 . S
C247 H274 0.930 . S
C248 C247 1.390 . S
C248 C249 1.391 . S
C248 H275 0.930 . S
C249 C245 1.387 . S
C249 C248 1.391 . S
C250 Tb240 2.825 . S
C250 C244 1.507 . S
C250 O263 1.238 . S
C250 O264 1.247 . S
O251 Tb240 2.347 . S
O251 C255 1.259 . S
O252 Eu241 2.418 . S
O252 C255 1.265 . S
O253 Eu241 2.384 . S
O253 C262 1.255 . S
O254 Tb240 2.366 . S
O254 C262 1.265 . S
C255 O251 1.259 . S
C255 O252 1.265 . S
O256 Eu241 2.479 . S
O256 C271 1.238 . S
O257 Eu241 2.471 . S
O257 C271 1.247 . S
O258 Eu241 2.347 . S
O258 C242 1.259 . S
O259 Tb240 2.418 . S
O259 C242 1.265 . S
O260 Tb240 2.384 . S
O260 C243 1.255 . S
O261 Eu241 2.366 . S
O261 C243 1.265 . S
C262 O253 1.255 . S
C262 O254 1.265 . S
O263 Tb240 2.479 . S
O263 C250 1.238 . S
O264 Tb240 2.471 . S
O264 C250 1.247 . S
C265 C268 1.380 . S
C265 C269 1.374 . S
C265 C271 1.507 . S
C266 C267 1.387 . S
C266 C270 1.391 . S
C267 C266 1.387 . S
C267 C268 1.384 . S
C267 H276 0.930 . S
C268 C265 1.380 . S
C268 C267 1.384 . S
C268 H277 0.931 . S
C269 C265 1.374 . S
C269 C270 1.390 . S
C269 H278 0.930 . S
C270 C266 1.391 . S
C270 C269 1.390 . S
C270 H279 0.930 . S
C271 Eu241 2.825 . S
C271 O256 1.238 . S
C271 O257 1.247 . S
C271 C265 1.507 . S
H272 C245 0.930 . S
H273 C246 0.931 . S
H274 C247 0.930 . S
H275 C248 0.930 . S
H276 C267 0.930 . S
H277 C268 0.931 . S
H278 C269 0.930 . S
H279 C270 0.930 . S
Tb280 C290 2.825 . S
Tb280 O291 2.347 . S
Tb280 O294 2.366 1_655 S
Tb280 O299 2.418 1_655 S
Tb280 O300 2.384 . S
Tb280 O303 2.479 . S
Tb280 O304 2.471 . S
Eu281 O292 2.418 1_455 S
Eu281 O293 2.384 . S
Eu281 O296 2.479 . S
Eu281 O297 2.471 . S
Eu281 O298 2.347 . S
Eu281 O301 2.366 1_455 S
Eu281 C311 2.825 . S
C282 O298 1.259 . S
C282 O299 1.265 . S
C283 O300 1.255 . S
C283 O301 1.265 . S
C284 C286 1.380 . S
C284 C287 1.374 . S
C284 C290 1.507 . S
C285 C286 1.384 . S
C285 C289 1.387 . S
C285 H312 0.930 . S
C286 C284 1.380 . S
C286 C285 1.384 . S
C286 H313 0.931 . S
C287 C284 1.374 . S
C287 C288 1.390 . S
C287 H314 0.930 . S
C288 C287 1.390 . S
C288 C289 1.391 . S
C288 H315 0.930 . S
C289 C285 1.387 . S
C289 C288 1.391 . S
C290 Tb280 2.825 . S
C290 C284 1.507 . S
C290 O303 1.238 . S
C290 O304 1.247 . S
O291 Tb280 2.347 . S
O291 C295 1.259 . S
O292 Eu281 2.418 1_655 S
O292 C295 1.265 . S
O293 Eu281 2.384 . S
O293 C302 1.255 . S
O294 Tb280 2.366 1_455 S
O294 C302 1.265 . S
C295 O291 1.259 . S
C295 O292 1.265 . S
O296 Eu281 2.479 . S
O296 C311 1.238 . S
O297 Eu281 2.471 . S
O297 C311 1.247 . S
O298 Eu281 2.347 . S
O298 C282 1.259 . S
O299 Tb280 2.418 1_455 S
O299 C282 1.265 . S
O300 Tb280 2.384 . S
O300 C283 1.255 . S
O301 Eu281 2.366 1_655 S
O301 C283 1.265 . S
C302 O293 1.255 . S
C302 O294 1.265 . S
O303 Tb280 2.479 . S
O303 C290 1.238 . S
O304 Tb280 2.471 . S
O304 C290 1.247 . S
C305 C308 1.380 . S
C305 C309 1.374 . S
C305 C311 1.507 . S
C306 C307 1.387 . S
C306 C310 1.391 . S
C307 C306 1.387 . S
C307 C308 1.384 . S
C307 H316 0.930 . S
C308 C305 1.380 . S
C308 C307 1.384 . S
C308 H317 0.931 . S
C309 C305 1.374 . S
C309 C310 1.390 . S
C309 H318 0.930 . S
C310 C306 1.391 . S
C310 C309 1.390 . S
C310 H319 0.930 . S
C311 Eu281 2.825 . S
C311 O296 1.238 . S
C311 O297 1.247 . S
C311 C305 1.507 . S
H312 C285 0.930 . S
H313 C286 0.931 . S
H314 C287 0.930 . S
H315 C288 0.930 . S
H316 C307 0.930 . S
H317 C308 0.931 . S
H318 C309 0.930 . S
H319 C310 0.930 . S
Tb320 C330 2.825 . S
Tb320 O331 2.347 1_554 S
Tb320 O334 2.366 1_554 S
Tb320 O339 2.418 . S
Tb320 O340 2.384 . S
Tb320 O343 2.479 . S
Tb320 O344 2.471 . S
Eu321 O332 2.418 . S
Eu321 O333 2.384 . S
Eu321 O336 2.479 . S
Eu321 O337 2.471 . S
Eu321 O338 2.347 1_556 S
Eu321 O341 2.366 1_556 S
Eu321 C351 2.825 . S
C322 O338 1.259 . S
C322 O339 1.265 . S
C323 O340 1.255 . S
C323 O341 1.265 . S
C324 C326 1.380 . S
C324 C327 1.374 1_554 S
C324 C330 1.507 . S
C325 C326 1.384 . S
C325 C329 1.387 . S
C325 H352 0.930 . S
C326 C324 1.380 . S
C326 C325 1.384 . S
C326 H353 0.931 . S
C327 C324 1.374 1_556 S
C327 C328 1.390 . S
C327 H354 0.930 . S
C328 C327 1.390 . S
C328 C329 1.391 1_556 S
C328 H355 0.930 . S
C329 C325 1.387 . S
C329 C328 1.391 1_554 S
C330 Tb320 2.825 . S
C330 C324 1.507 . S
C330 O343 1.238 . S
C330 O344 1.247 . S
O331 Tb320 2.347 1_556 S
O331 C335 1.259 . S
O332 Eu321 2.418 . S
O332 C335 1.265 . S
O333 Eu321 2.384 . S
O333 C342 1.255 . S
O334 Tb320 2.366 1_556 S
O334 C342 1.265 . S
C335 O331 1.259 . S
C335 O332 1.265 . S
O336 Eu321 2.479 . S
O336 C351 1.238 . S
O337 Eu321 2.471 . S
O337 C351 1.247 . S
O338 Eu321 2.347 1_554 S
O338 C322 1.259 . S
O339 Tb320 2.418 . S
O339 C322 1.265 . S
O340 Tb320 2.384 . S
O340 C323 1.255 . S
O341 Eu321 2.366 1_554 S
O341 C323 1.265 . S
C342 O333 1.255 . S
C342 O334 1.265 . S
O343 Tb320 2.479 . S
O343 C330 1.238 . S
O344 Tb320 2.471 . S
O344 C330 1.247 . S
C345 C348 1.380 . S
C345 C349 1.374 1_556 S
C345 C351 1.507 . S
C346 C347 1.387 . S
C346 C350 1.391 1_556 S
C347 C346 1.387 . S
C347 C348 1.384 . S
C347 H356 0.930 . S
C348 C345 1.380 . S
C348 C347 1.384 . S
C348 H357 0.931 . S
C349 C345 1.374 1_554 S
C349 C350 1.390 . S
C349 H358 0.930 . S
C350 C346 1.391 1_554 S
C350 C349 1.390 . S
C350 H359 0.930 . S
C351 Eu321 2.825 . S
C351 O336 1.238 . S
C351 O337 1.247 . S
C351 C345 1.507 . S
H352 C325 0.930 . S
H353 C326 0.931 . S
H354 C327 0.930 . S
H355 C328 0.930 . S
H356 C347 0.930 . S
H357 C348 0.931 . S
H358 C349 0.930 . S
H359 C350 0.930 . S
Tb360 C370 2.825 . S
Tb360 O371 2.347 1_565 S
Tb360 O374 2.366 1_565 S
Tb360 O379 2.418 . S
Tb360 O380 2.384 . S
Tb360 O383 2.479 . S
Tb360 O384 2.471 1_565 S
Eu361 O372 2.418 . S
Eu361 O373 2.384 . S
Eu361 O376 2.479 . S
Eu361 O377 2.471 1_545 S
Eu361 O378 2.347 1_545 S
Eu361 O381 2.366 1_545 S
Eu361 C391 2.825 . S
C362 O378 1.259 . S
C362 O379 1.265 . S
C363 O380 1.255 . S
C363 O381 1.265 . S
C364 C366 1.380 1_545 S
C364 C367 1.374 . S
C364 C370 1.507 1_545 S
C365 C366 1.384 . S
C365 C369 1.387 1_565 S
C365 H392 0.930 . S
C366 C364 1.380 1_565 S
C366 C365 1.384 . S
C366 H393 0.931 . S
C367 C364 1.374 . S
C367 C368 1.390 . S
C367 H394 0.930 . S
C368 C367 1.390 . S
C368 C369 1.391 . S
C368 H395 0.930 . S
C369 C365 1.387 1_545 S
C369 C368 1.391 . S
C370 Tb360 2.825 . S
C370 C364 1.507 1_565 S
C370 O383 1.238 . S
C370 O384 1.247 1_565 S
O371 Tb360 2.347 1_545 S
O371 C375 1.259 . S
O372 Eu361 2.418 . S
O372 C375 1.265 . S
O373 Eu361 2.384 . S
O373 C382 1.255 . S
O374 Tb360 2.366 1_545 S
O374 C382 1.265 . S
C375 O371 1.259 . S
C375 O372 1.265 . S
O376 Eu361 2.479 . S
O376 C391 1.238 . S
O377 Eu361 2.471 1_565 S
O377 C391 1.247 1_565 S
O378 Eu361 2.347 1_565 S
O378 C362 1.259 . S
O379 Tb360 2.418 . S
O379 C362 1.265 . S
O380 Tb360 2.384 . S
O380 C363 1.255 . S
O381 Eu361 2.366 1_565 S
O381 C363 1.265 . S
C382 O373 1.255 . S
C382 O374 1.265 . S
O383 Tb360 2.479 . S
O383 C370 1.238 . S
O384 Tb360 2.471 1_545 S
O384 C370 1.247 1_545 S
C385 C388 1.380 1_565 S
C385 C389 1.374 . S
C385 C391 1.507 1_565 S
C386 C387 1.387 1_565 S
C386 C390 1.391 . S
C387 C386 1.387 1_545 S
C387 C388 1.384 . S
C387 H396 0.930 . S
C388 C385 1.380 1_545 S
C388 C387 1.384 . S
C388 H397 0.931 . S
C389 C385 1.374 . S
C389 C390 1.390 . S
C389 H398 0.930 . S
C390 C386 1.391 . S
C390 C389 1.390 . S
C390 H399 0.930 . S
C391 Eu361 2.825 . S
C391 O376 1.238 . S
C391 O377 1.247 1_545 S
C391 C385 1.507 1_545 S
H392 C365 0.930 . S
H393 C366 0.931 . S
H394 C367 0.930 . S
H395 C368 0.930 . S
H396 C387 0.930 . S
H397 C388 0.931 . S
H398 C389 0.930 . S
H399 C390 0.930 . S
Tb400 C410 2.825 . S
Tb400 O411 2.347 . S
Tb400 O414 2.366 . S
Tb400 O419 2.418 . S
Tb400 O420 2.384 . S
Tb400 O423 2.479 . S
Tb400 O424 2.471 . S
Eu401 O412 2.418 . S
Eu401 O413 2.384 . S
Eu401 O416 2.479 . S
Eu401 O417 2.471 . S
Eu401 O418 2.347 . S
Eu401 O421 2.366 . S
Eu401 C431 2.825 . S
C402 O418 1.259 . S
C402 O419 1.265 . S
C403 O420 1.255 . S
C403 O421 1.265 . S
C404 C406 1.380 . S
C404 C407 1.374 . S
C404 C410 1.507 . S
C405 C406 1.384 . S
C405 C409 1.387 . S
C405 H432 0.930 . S
C406 C404 1.380 . S
C406 C405 1.384 . S
C406 H433 0.931 . S
C407 C404 1.374 . S
C407 C408 1.390 . S
C407 H434 0.930 . S
C408 C407 1.390 . S
C408 C409 1.391 . S
C408 H435 0.930 . S
C409 C405 1.387 . S
C409 C408 1.391 . S
C410 Tb400 2.825 . S
C410 C404 1.507 . S
C410 O423 1.238 . S
C410 O424 1.247 . S
O411 Tb400 2.347 . S
O411 C415 1.259 . S
O412 Eu401 2.418 . S
O412 C415 1.265 . S
O413 Eu401 2.384 . S
O413 C422 1.255 . S
O414 Tb400 2.366 . S
O414 C422 1.265 . S
C415 O411 1.259 . S
C415 O412 1.265 . S
O416 Eu401 2.479 . S
O416 C431 1.238 . S
O417 Eu401 2.471 . S
O417 C431 1.247 . S
O418 Eu401 2.347 . S
O418 C402 1.259 . S
O419 Tb400 2.418 . S
O419 C402 1.265 . S
O420 Tb400 2.384 . S
O420 C403 1.255 . S
O421 Eu401 2.366 . S
O421 C403 1.265 . S
C422 O413 1.255 . S
C422 O414 1.265 . S
O423 Tb400 2.479 . S
O423 C410 1.238 . S
O424 Tb400 2.471 . S
O424 C410 1.247 . S
C425 C428 1.380 . S
C425 C429 1.374 . S
C425 C431 1.507 . S
C426 C427 1.387 . S
C426 C430 1.391 . S
C427 C426 1.387 . S
C427 C428 1.384 . S
C427 H436 0.930 . S
C428 C425 1.380 . S
C428 C427 1.384 . S
C428 H437 0.931 . S
C429 C425 1.374 . S
C429 C430 1.390 . S
C429 H438 0.930 . S
C430 C426 1.391 . S
C430 C429 1.390 . S
C430 H439 0.930 . S
C431 Eu401 2.825 . S
C431 O416 1.238 . S
C431 O417 1.247 . S
C431 C425 1.507 . S
H432 C405 0.930 . S
H433 C406 0.931 . S
H434 C407 0.930 . S
H435 C408 0.930 . S
H436 C427 0.930 . S
H437 C428 0.931 . S
H438 C429 0.930 . S
H439 C430 0.930 . S
Tb440 C450 2.825 . S
Tb440 O451 2.347 1_455 S
Tb440 O454 2.366 1_455 S
Tb440 O459 2.418 . S
Tb440 O460 2.384 . S
Tb440 O463 2.479 . S
Tb440 O464 2.471 1_455 S
Eu441 O452 2.418 . S
Eu441 O453 2.384 . S
Eu441 O456 2.479 . S
Eu441 O457 2.471 1_655 S
Eu441 O458 2.347 1_655 S
Eu441 O461 2.366 1_655 S
Eu441 C471 2.825 . S
C442 O458 1.259 . S
C442 O459 1.265 . S
C443 O460 1.255 . S
C443 O461 1.265 . S
C444 C446 1.380 . S
C444 C447 1.374 1_455 S
C444 C450 1.507 . S
C445 C446 1.384 . S
C445 C449 1.387 1_455 S
C445 H472 0.930 . S
C446 C444 1.380 . S
C446 C445 1.384 . S
C446 H473 0.931 . S
C447 C444 1.374 1_655 S
C447 C448 1.390 . S
C447 H474 0.930 . S
C448 C447 1.390 . S
C448 C449 1.391 . S
C448 H475 0.930 . S
C449 C445 1.387 1_655 S
C449 C448 1.391 . S
C450 Tb440 2.825 . S
C450 C444 1.507 . S
C450 O463 1.238 . S
C450 O464 1.247 1_455 S
O451 Tb440 2.347 1_655 S
O451 C455 1.259 . S
O452 Eu441 2.418 . S
O452 C455 1.265 . S
O453 Eu441 2.384 . S
O453 C462 1.255 . S
O454 Tb440 2.366 1_655 S
O454 C462 1.265 . S
C455 O451 1.259 . S
C455 O452 1.265 . S
O456 Eu441 2.479 . S
O456 C471 1.238 . S
O457 Eu441 2.471 1_455 S
O457 C471 1.247 1_455 S
O458 Eu441 2.347 1_455 S
O458 C442 1.259 . S
O459 Tb440 2.418 . S
O459 C442 1.265 . S
O460 Tb440 2.384 . S
O460 C443 1.255 . S
O461 Eu441 2.366 1_455 S
O461 C443 1.265 . S
C462 O453 1.255 . S
C462 O454 1.265 . S
O463 Tb440 2.479 . S
O463 C450 1.238 . S
O464 Tb440 2.471 1_655 S
O464 C450 1.247 1_655 S
C465 C468 1.380 . S
C465 C469 1.374 1_655 S
C465 C471 1.507 . S
C466 C467 1.387 1_455 S
C466 C470 1.391 . S
C467 C466 1.387 1_655 S
C467 C468 1.384 . S
C467 H476 0.930 . S
C468 C465 1.380 . S
C468 C467 1.384 . S
C468 H477 0.931 . S
C469 C465 1.374 1_455 S
C469 C470 1.390 . S
C469 H478 0.930 . S
C470 C466 1.391 . S
C470 C469 1.390 . S
C470 H479 0.930 . S
C471 Eu441 2.825 . S
C471 O456 1.238 . S
C471 O457 1.247 1_655 S
C471 C465 1.507 . S
H472 C445 0.930 . S
H473 C446 0.931 . S
H474 C447 0.930 . S
H475 C448 0.930 . S
H476 C467 0.930 . S
H477 C468 0.931 . S
H478 C469 0.930 . S
H479 C470 0.930 . S
Tb480 C490 2.825 . S
Tb480 O491 2.347 . S
Tb480 O494 2.366 . S
Tb480 O499 2.418 . S
Tb480 O500 2.384 . S
Tb480 O503 2.479 . S
Tb480 O504 2.471 . S
Eu481 O492 2.418 . S
Eu481 O493 2.384 . S
Eu481 O496 2.479 . S
Eu481 O497 2.471 . S
Eu481 O498 2.347 . S
Eu481 O501 2.366 . S
Eu481 C511 2.825 . S
C482 O498 1.259 . S
C482 O499 1.265 . S
C483 O500 1.255 . S
C483 O501 1.265 . S
C484 C486 1.380 . S
C484 C487 1.374 . S
C484 C490 1.507 . S
C485 C486 1.384 . S
C485 C489 1.387 . S
C485 H512 0.930 . S
C486 C484 1.380 . S
C486 C485 1.384 . S
C486 H513 0.931 . S
C487 C484 1.374 . S
C487 C488 1.390 . S
C487 H514 0.930 . S
C488 C487 1.390 . S
C488 C489 1.391 . S
C488 H515 0.930 . S
C489 C485 1.387 . S
C489 C488 1.391 . S
C490 Tb480 2.825 . S
C490 C484 1.507 . S
C490 O503 1.238 . S
C490 O504 1.247 . S
O491 Tb480 2.347 . S
O491 C495 1.259 . S
O492 Eu481 2.418 . S
O492 C495 1.265 . S
O493 Eu481 2.384 . S
O493 C502 1.255 . S
O494 Tb480 2.366 . S
O494 C502 1.265 . S
C495 O491 1.259 . S
C495 O492 1.265 . S
O496 Eu481 2.479 . S
O496 C511 1.238 . S
O497 Eu481 2.471 . S
O497 C511 1.247 . S
O498 Eu481 2.347 . S
O498 C482 1.259 . S
O499 Tb480 2.418 . S
O499 C482 1.265 . S
O500 Tb480 2.384 . S
O500 C483 1.255 . S
O501 Eu481 2.366 . S
O501 C483 1.265 . S
C502 O493 1.255 . S
C502 O494 1.265 . S
O503 Tb480 2.479 . S
O503 C490 1.238 . S
O504 Tb480 2.471 . S
O504 C490 1.247 . S
C505 C508 1.380 . S
C505 C509 1.374 . S
C505 C511 1.507 . S
C506 C507 1.387 . S
C506 C510 1.391 . S
C507 C506 1.387 . S
C507 C508 1.384 . S
C507 H516 0.930 . S
C508 C505 1.380 . S
C508 C507 1.384 . S
C508 H517 0.931 . S
C509 C505 1.374 . S
C509 C510 1.390 . S
C509 H518 0.930 . S
C510 C506 1.391 . S
C510 C509 1.390 . S
C510 H519 0.930 . S
C511 Eu481 2.825 . S
C511 O496 1.238 . S
C511 O497 1.247 . S
C511 C505 1.507 . S
H512 C485 0.930 . S
H513 C486 0.931 . S
H514 C487 0.930 . S
H515 C488 0.930 . S
H516 C507 0.930 . S
H517 C508 0.931 . S
H518 C509 0.930 . S
H519 C510 0.930 . S
Tb520 C530 2.825 . S
Tb520 O531 2.347 1_554 S
Tb520 O534 2.366 1_554 S
Tb520 O539 2.418 . S
Tb520 O540 2.384 . S
Tb520 O543 2.479 . S
Tb520 O544 2.471 . S
Eu521 O532 2.418 . S
Eu521 O533 2.384 . S
Eu521 O536 2.479 . S
Eu521 O537 2.471 . S
Eu521 O538 2.347 1_556 S
Eu521 O541 2.366 1_556 S
Eu521 C551 2.825 . S
C522 O538 1.259 . S
C522 O539 1.265 . S
C523 O540 1.255 . S
C523 O541 1.265 . S
C524 C526 1.380 . S
C524 C527 1.374 1_554 S
C524 C530 1.507 . S
C525 C526 1.384 . S
C525 C529 1.387 . S
C525 H552 0.930 . S
C526 C524 1.380 . S
C526 C525 1.384 . S
C526 H553 0.931 . S
C527 C524 1.374 1_556 S
C527 C528 1.390 . S
C527 H554 0.930 . S
C528 C527 1.390 . S
C528 C529 1.391 1_556 S
C528 H555 0.930 . S
C529 C525 1.387 . S
C529 C528 1.391 1_554 S
C530 Tb520 2.825 . S
C530 C524 1.507 . S
C530 O543 1.238 . S
C530 O544 1.247 . S
O531 Tb520 2.347 1_556 S
O531 C535 1.259 . S
O532 Eu521 2.418 . S
O532 C535 1.265 . S
O533 Eu521 2.384 . S
O533 C542 1.255 . S
O534 Tb520 2.366 1_556 S
O534 C542 1.265 . S
C535 O531 1.259 . S
C535 O532 1.265 . S
O536 Eu521 2.479 . S
O536 C551 1.238 . S
O537 Eu521 2.471 . S
O537 C551 1.247 . S
O538 Eu521 2.347 1_554 S
O538 C522 1.259 . S
O539 Tb520 2.418 . S
O539 C522 1.265 . S
O540 Tb520 2.384 . S
O540 C523 1.255 . S
O541 Eu521 2.366 1_554 S
O541 C523 1.265 . S
C542 O533 1.255 . S
C542 O534 1.265 . S
O543 Tb520 2.479 . S
O543 C530 1.238 . S
O544 Tb520 2.471 . S
O544 C530 1.247 . S
C545 C548 1.380 . S
C545 C549 1.374 1_556 S
C545 C551 1.507 . S
C546 C547 1.387 . S
C546 C550 1.391 1_556 S
C547 C546 1.387 . S
C547 C548 1.384 . S
C547 H556 0.930 . S
C548 C545 1.380 . S
C548 C547 1.384 . S
C548 H557 0.931 . S
C549 C545 1.374 1_554 S
C549 C550 1.390 . S
C549 H558 0.930 . S
C550 C546 1.391 1_554 S
C550 C549 1.390 . S
C550 H559 0.930 . S
C551 Eu521 2.825 . S
C551 O536 1.238 . S
C551 O537 1.247 . S
C551 C545 1.507 . S
H552 C525 0.930 . S
H553 C526 0.931 . S
H554 C527 0.930 . S
H555 C528 0.930 . S
H556 C547 0.930 . S
H557 C548 0.931 . S
H558 C549 0.930 . S
H559 C550 0.930 . S
Tb560 C570 2.825 . S
Tb560 O571 2.347 1_565 S
Tb560 O574 2.366 . S
Tb560 O579 2.418 . S
Tb560 O580 2.384 1_565 S
Tb560 O583 2.479 . S
Tb560 O584 2.471 . S
Eu561 O572 2.418 . S
Eu561 O573 2.384 1_545 S
Eu561 O576 2.479 . S
Eu561 O577 2.471 . S
Eu561 O578 2.347 1_545 S
Eu561 O581 2.366 . S
Eu561 C591 2.825 . S
C562 O578 1.259 . S
C562 O579 1.265 . S
C563 O580 1.255 . S
C563 O581 1.265 . S
C564 C566 1.380 . S
C564 C567 1.374 . S
C564 C570 1.507 . S
C565 C566 1.384 . S
C565 C569 1.387 . S
C565 H592 0.930 . S
C566 C564 1.380 . S
C566 C565 1.384 . S
C566 H593 0.931 . S
C567 C564 1.374 . S
C567 C568 1.390 . S
C567 H594 0.930 . S
C568 C567 1.390 . S
C568 C569 1.391 . S
C568 H595 0.930 . S
C569 C565 1.387 . S
C569 C568 1.391 . S
C570 Tb560 2.825 . S
C570 C564 1.507 . S
C570 O583 1.238 . S
C570 O584 1.247 . S
O571 Tb560 2.347 1_545 S
O571 C575 1.259 . S
O572 Eu561 2.418 . S
O572 C575 1.265 . S
O573 Eu561 2.384 1_565 S
O573 C582 1.255 . S
O574 Tb560 2.366 . S
O574 C582 1.265 . S
C575 O571 1.259 . S
C575 O572 1.265 . S
O576 Eu561 2.479 . S
O576 C591 1.238 . S
O577 Eu561 2.471 . S
O577 C591 1.247 . S
O578 Eu561 2.347 1_565 S
O578 C562 1.259 . S
O579 Tb560 2.418 . S
O579 C562 1.265 . S
O580 Tb560 2.384 1_545 S
O580 C563 1.255 . S
O581 Eu561 2.366 . S
O581 C563 1.265 . S
C582 O573 1.255 . S
C582 O574 1.265 . S
O583 Tb560 2.479 . S
O583 C570 1.238 . S
O584 Tb560 2.471 . S
O584 C570 1.247 . S
C585 C588 1.380 . S
C585 C589 1.374 . S
C585 C591 1.507 . S
C586 C587 1.387 . S
C586 C590 1.391 . S
C587 C586 1.387 . S
C587 C588 1.384 . S
C587 H596 0.930 . S
C588 C585 1.380 . S
C588 C587 1.384 . S
C588 H597 0.931 . S
C589 C585 1.374 . S
C589 C590 1.390 . S
C589 H598 0.930 . S
C590 C586 1.391 . S
C590 C589 1.390 . S
C590 H599 0.930 . S
C591 Eu561 2.825 . S
C591 O576 1.238 . S
C591 O577 1.247 . S
C591 C585 1.507 . S
H592 C565 0.930 . S
H593 C566 0.931 . S
H594 C567 0.930 . S
H595 C568 0.930 . S
H596 C587 0.930 . S
H597 C588 0.931 . S
H598 C589 0.930 . S
H599 C590 0.930 . S
Tb600 C610 2.825 . S
Tb600 O611 2.347 1_554 S
Tb600 O614 2.366 1_554 S
Tb600 O619 2.418 . S
Tb600 O620 2.384 . S
Tb600 O623 2.479 . S
Tb600 O624 2.471 . S
Eu601 O612 2.418 . S
Eu601 O613 2.384 . S
Eu601 O616 2.479 . S
Eu601 O617 2.471 . S
Eu601 O618 2.347 1_556 S
Eu601 O621 2.366 1_556 S
Eu601 C631 2.825 . S
C602 O618 1.259 . S
C602 O619 1.265 . S
C603 O620 1.255 . S
C603 O621 1.265 . S
C604 C606 1.380 . S
C604 C607 1.374 . S
C604 C610 1.507 . S
C605 C606 1.384 . S
C605 C609 1.387 . S
C605 H632 0.930 . S
C606 C604 1.380 . S
C606 C605 1.384 . S
C606 H633 0.931 . S
C607 C604 1.374 . S
C607 C608 1.390 . S
C607 H634 0.937 . S
C608 C607 1.390 . S
C608 C609 1.391 . S
C608 H635 0.930 . S
C609 C605 1.387 . S
C609 C608 1.391 . S
C610 Tb600 2.825 . S
C610 C604 1.507 . S
C610 O623 1.238 . S
C610 O624 1.247 . S
O611 Tb600 2.347 1_556 S
O611 C615 1.259 . S
O612 Eu601 2.418 . S
O612 C615 1.265 . S
O613 Eu601 2.384 . S
O613 C622 1.255 . S
O614 Tb600 2.366 1_556 S
O614 C622 1.265 . S
C615 O611 1.259 . S
C615 O612 1.265 . S
O616 Eu601 2.479 . S
O616 C631 1.238 . S
O617 Eu601 2.471 . S
O617 C631 1.247 . S
O618 Eu601 2.347 1_554 S
O618 C602 1.259 . S
O619 Tb600 2.418 . S
O619 C602 1.265 . S
O620 Tb600 2.384 . S
O620 C603 1.255 . S
O621 Eu601 2.366 1_554 S
O621 C603 1.265 . S
C622 O613 1.255 . S
C622 O614 1.265 . S
O623 Tb600 2.479 . S
O623 C610 1.238 . S
O624 Tb600 2.471 . S
O624 C610 1.247 . S
C625 C628 1.380 . S
C625 C629 1.374 . S
C625 C631 1.507 . S
C626 C627 1.387 . S
C626 C630 1.391 . S
C627 C626 1.387 . S
C627 C628 1.384 . S
C627 H636 0.930 . S
C628 C625 1.380 . S
C628 C627 1.384 . S
C628 H637 0.931 . S
C629 C625 1.374 . S
C629 C630 1.390 . S
C629 H638 0.929 1_556 S
C630 C626 1.391 . S
C630 C629 1.390 . S
C630 H639 0.930 . S
C631 Eu601 2.825 . S
C631 O616 1.238 . S
C631 O617 1.247 . S
C631 C625 1.507 . S
H632 C605 0.930 . S
H633 C606 0.931 . S
H634 C607 0.937 . S
H635 C608 0.930 . S
H636 C627 0.930 . S
H637 C628 0.931 . S
H638 C629 0.929 1_554 S
H639 C630 0.930 . S
H640 C652 0.930 . S
H641 C654 0.930 . S
H642 C655 0.930 . S
H643 C659 0.959 . S
H644 C659 0.959 . S
H645 C659 0.961 . S
H646 C660 0.960 . S
H647 C660 0.961 . S
H648 C660 0.959 1_455 S
H649 C663 0.929 . S
H650 C664 0.931 . S
H651 C666 0.930 . S
C652 H640 0.930 . S
C652 C653 1.399 . S
C652 C657 1.399 . S
C653 C652 1.399 . S
C653 C654 1.376 1_655 S
C654 H641 0.930 . S
C654 C653 1.376 1_455 S
C654 C655 1.388 . S
C655 H642 0.930 . S
C655 C654 1.388 . S
C655 C656 1.390 . S
C656 C655 1.390 . S
C656 C657 1.394 1_455 S
C656 C662 1.465 . S
C657 C652 1.399 . S
C657 C656 1.394 1_655 S
C657 C658 1.516 . S
C658 C657 1.516 . S
C658 C659 1.502 . S
C658 C660 1.561 . S
C658 C661 1.526 . S
C659 H643 0.959 . S
C659 H644 0.959 . S
C659 H645 0.961 . S
C659 C658 1.502 . S
C660 H646 0.960 . S
C660 H647 0.961 . S
C660 H648 0.959 1_655 S
C660 C658 1.561 . S
C661 C658 1.526 . S
C661 C662 1.396 1_655 S
C661 C666 1.390 . S
C662 C656 1.465 . S
C662 C661 1.396 1_455 S
C662 C663 1.399 . S
C663 H649 0.929 . S
C663 C662 1.399 . S
C663 C664 1.385 . S
C664 H650 0.931 . S
C664 C663 1.385 . S
C664 C665 1.389 . S
C665 C664 1.389 . S
C665 C666 1.387 1_455 S
C666 H651 0.930 . S
C666 C661 1.390 . S
C666 C665 1.387 1_655 S
H667 C679 0.930 . S
H668 C681 0.930 . S
H669 C682 0.930 . S
H670 C686 0.959 . S
H671 C686 0.959 . S
H672 C686 0.961 . S
H673 C687 0.960 . S
H674 C687 0.961 . S
H675 C687 0.959 . S
H676 C690 0.929 . S
H677 C691 0.931 . S
H678 C693 0.930 . S
C679 H667 0.930 . S
C679 C680 1.399 . S
C679 C684 1.399 . S
C680 C679 1.399 . S
C680 C681 1.376 . S
C681 H668 0.930 . S
C681 C680 1.376 . S
C681 C682 1.388 . S
C682 H669 0.930 . S
C682 C681 1.388 . S
C682 C683 1.390 . S
C683 C682 1.390 . S
C683 C684 1.394 . S
C683 C689 1.465 . S
C684 C679 1.399 . S
C684 C683 1.394 . S
C684 C685 1.516 . S
C685 C684 1.516 . S
C685 C686 1.502 . S
C685 C687 1.561 . S
C685 C688 1.526 . S
C686 H670 0.959 . S
C686 H671 0.959 . S
C686 H672 0.961 . S
C686 C685 1.502 . S
C687 H673 0.960 . S
C687 H674 0.961 . S
C687 H675 0.959 . S
C687 C685 1.561 . S
C688 C685 1.526 . S
C688 C689 1.396 . S
C688 C693 1.390 . S
C689 C683 1.465 . S
C689 C688 1.396 . S
C689 C690 1.399 . S
C690 H676 0.929 . S
C690 C689 1.399 . S
C690 C691 1.385 . S
C691 H677 0.931 . S
C691 C690 1.385 . S
C691 C692 1.389 . S
C692 C691 1.389 . S
C692 C693 1.387 . S
C693 H678 0.930 . S
C693 C688 1.390 . S
C693 C692 1.387 . S
H694 C706 0.930 . S
H695 C708 0.930 . S
H696 C709 0.930 . S
H697 C713 0.959 . S
H698 C713 0.959 . S
H699 C713 0.961 . S
H700 C714 0.960 . S
H701 C714 0.961 . S
H702 C714 0.959 . S
H703 C717 0.929 . S
H704 C718 0.931 . S
H705 C720 0.930 . S
C706 H694 0.930 . S
C706 C707 1.399 . S
C706 C711 1.399 . S
C707 C706 1.399 . S
C707 C708 1.376 . S
C708 H695 0.930 . S
C708 C707 1.376 . S
C708 C709 1.388 . S
C709 H696 0.930 . S
C709 C708 1.388 . S
C709 C710 1.390 . S
C710 C709 1.390 . S
C710 C711 1.394 . S
C710 C716 1.465 . S
C711 C706 1.399 . S
C711 C710 1.394 . S
C711 C712 1.516 . S
C712 C711 1.516 . S
C712 C713 1.502 . S
C712 C714 1.561 . S
C712 C715 1.526 . S
C713 H697 0.959 . S
C713 H698 0.959 . S
C713 H699 0.961 . S
C713 C712 1.502 . S
C714 H700 0.960 . S
C714 H701 0.961 . S
C714 H702 0.959 . S
C714 C712 1.561 . S
C715 C712 1.526 . S
C715 C716 1.396 . S
C715 C720 1.390 . S
C716 C710 1.465 . S
C716 C715 1.396 . S
C716 C717 1.399 . S
C717 H703 0.929 . S
C717 C716 1.399 . S
C717 C718 1.385 . S
C718 H704 0.931 . S
C718 C717 1.385 . S
C718 C719 1.389 . S
C719 C718 1.389 . S
C719 C720 1.387 . S
C720 H705 0.930 . S
C720 C715 1.390 . S
C720 C719 1.387 . S
H721 C733 0.930 . S
H722 C735 0.930 . S
H723 C736 0.930 . S
H724 C740 0.959 . S
H725 C740 0.959 . S
H726 C740 0.961 1_554 S
H727 C741 0.960 1_554 S
H728 C741 0.973 1_554 S
H729 C741 0.959 . S
H730 C744 0.929 . S
H731 C745 0.931 . S
H732 C747 0.930 . S
C733 H721 0.930 . S
C733 C734 1.399 . S
C733 C738 1.399 . S
C734 C733 1.399 . S
C734 C735 1.376 . S
C735 H722 0.930 . S
C735 C734 1.376 . S
C735 C736 1.388 . S
C736 H723 0.930 . S
C736 C735 1.388 . S
C736 C737 1.390 . S
C737 C736 1.390 . S
C737 C738 1.394 . S
C737 C743 1.465 . S
C738 C733 1.399 . S
C738 C737 1.394 . S
C738 C739 1.516 1_545 S
C739 C738 1.516 1_565 S
C739 C740 1.502 . S
C739 C741 1.561 1_565 S
C739 C742 1.526 . S
C740 H724 0.959 . S
C740 H725 0.959 . S
C740 H726 0.961 1_556 S
C740 C739 1.502 . S
C741 H727 0.960 1_556 S
C741 H728 0.973 1_556 S
C741 H729 0.959 . S
C741 C739 1.561 1_545 S
C742 C739 1.526 . S
C742 C743 1.396 1_565 S
C742 C747 1.390 . S
C743 C737 1.465 . S
C743 C742 1.396 1_545 S
C743 C744 1.399 . S
C744 H730 0.929 . S
C744 C743 1.399 . S
C744 C745 1.385 1_545 S
C745 H731 0.931 . S
C745 C744 1.385 1_565 S
C745 C746 1.389 . S
C746 C745 1.389 . S
C746 C747 1.387 . S
C747 H732 0.930 . S
C747 C742 1.390 . S
C747 C746 1.387 . S
H748 C760 0.930 . S
H749 C762 0.930 . S
H750 C763 0.930 1_545 S
H751 C767 0.959 . S
H752 C767 0.959 . S
H753 C767 0.961 . S
H754 C768 0.960 1_556 S
H755 C768 0.961 1_556 S
H756 C768 0.959 . S
H757 C771 0.929 . S
H758 C772 0.931 . S
H759 C774 0.930 . S
C760 H748 0.930 . S
C760 C761 1.399 . S
C760 C765 1.399 . S
C761 C760 1.399 . S
C761 C762 1.376 . S
C762 H749 0.930 . S
C762 C761 1.376 . S
C762 C763 1.388 . S
C763 H750 0.930 1_565 S
C763 C762 1.388 . S
C763 C764 1.390 . S
C764 C763 1.390 . S
C764 C765 1.394 . S
C764 C770 1.465 1_565 S
C765 C760 1.399 . S
C765 C764 1.394 . S
C765 C766 1.516 . S
C766 C765 1.516 . S
C766 C767 1.502 . S
C766 C768 1.561 1_565 S
C766 C769 1.526 1_565 S
C767 H751 0.959 . S
C767 H752 0.959 . S
C767 H753 0.961 . S
C767 C766 1.502 . S
C768 H754 0.960 1_554 S
C768 H755 0.961 1_554 S
C768 H756 0.959 . S
C768 C766 1.561 1_545 S
C769 C766 1.526 1_545 S
C769 C770 1.396 . S
C769 C774 1.390 . S
C770 C764 1.465 1_545 S
C770 C769 1.396 . S
C770 C771 1.399 . S
C771 H757 0.929 . S
C771 C770 1.399 . S
C771 C772 1.385 . S
C772 H758 0.931 . S
C772 C771 1.385 . S
C772 C773 1.389 . S
C773 C772 1.389 . S
C773 C774 1.387 . S
C774 H759 0.930 . S
C774 C769 1.390 . S
C774 C773 1.387 . S
H775 C787 0.930 1_655 S
H776 C789 0.930 . S
H777 C790 0.930 . S
H778 C794 0.959 . S
H779 C794 0.959 . S
H780 C794 0.961 . S
H781 C795 0.960 . S
H782 C795 0.961 . S
H783 C795 0.959 1_455 S
H784 C798 0.929 . S
H785 C799 0.931 . S
H786 C801 0.930 . S
C787 H775 0.930 1_455 S
C787 C788 1.399 . S
C787 C792 1.399 . S
C788 C787 1.399 . S
C788 C789 1.376 . S
C789 H776 0.930 . S
C789 C788 1.376 . S
C789 C790 1.388 . S
C790 H777 0.930 . S
C790 C789 1.388 . S
C790 C791 1.390 . S
C791 C790 1.390 . S
C791 C792 1.394 . S
C791 C797 1.465 . S
C792 C787 1.399 . S
C792 C791 1.394 . S
C792 C793 1.516 1_455 S
C793 C792 1.516 1_655 S
C793 C794 1.502 . S
C793 C795 1.561 . S
C793 C796 1.526 . S
C794 H778 0.959 . S
C794 H779 0.959 . S
C794 H780 0.961 . S
C794 C793 1.502 . S
C795 H781 0.960 . S
C795 H782 0.961 . S
C795 H783 0.959 1_655 S
C795 C793 1.561 . S
C796 C793 1.526 . S
C796 C797 1.396 1_655 S
C796 C801 1.390 . S
C797 C791 1.465 . S
C797 C796 1.396 1_455 S
C797 C798 1.399 . S
C798 H784 0.929 . S
C798 C797 1.399 . S
C798 C799 1.385 . S
C799 H785 0.931 . S
C799 C798 1.385 . S
C799 C800 1.389 1_455 S
C800 C799 1.389 1_655 S
C800 C801 1.387 . S
C801 H786 0.930 . S
C801 C796 1.390 . S
C801 C800 1.387 . S
H802 C814 0.930 . S
H803 C816 0.930 . S
H804 C817 0.930 . S
H805 C821 0.959 . S
H806 C821 0.959 . S
H807 C821 0.961 . S
H808 C822 0.960 . S
H809 C822 0.961 . S
H810 C822 0.959 . S
H811 C825 0.929 . S
H812 C826 0.931 . S
H813 C828 0.930 . S
C814 H802 0.930 . S
C814 C815 1.399 . S
C814 C819 1.399 . S
C815 C814 1.399 . S
C815 C816 1.376 . S
C816 H803 0.930 . S
C816 C815 1.376 . S
C816 C817 1.388 . S
C817 H804 0.930 . S
C817 C816 1.388 . S
C817 C818 1.390 . S
C818 C817 1.390 . S
C818 C819 1.394 . S
C818 C824 1.465 . S
C819 C814 1.399 . S
C819 C818 1.394 . S
C819 C820 1.516 . S
C820 C819 1.516 . S
C820 C821 1.502 . S
C820 C822 1.561 . S
C820 C823 1.526 . S
C821 H805 0.959 . S
C821 H806 0.959 . S
C821 H807 0.961 . S
C821 C820 1.502 . S
C822 H808 0.960 . S
C822 H809 0.961 . S
C822 H810 0.959 . S
C822 C820 1.561 . S
C823 C820 1.526 . S
C823 C824 1.396 . S
C823 C828 1.390 . S
C824 C818 1.465 . S
C824 C823 1.396 . S
C824 C825 1.399 . S
C825 H811 0.929 . S
C825 C824 1.399 . S
C825 C826 1.385 . S
C826 H812 0.931 . S
C826 C825 1.385 . S
C826 C827 1.389 . S
C827 C826 1.389 . S
C827 C828 1.387 . S
C828 H813 0.930 . S
C828 C823 1.390 . S
C828 C827 1.387 . S
H829 C841 0.930 . S
H830 C843 0.930 . S
H831 C844 0.930 . S
H832 C848 0.959 . S
H833 C848 0.959 . S
H834 C848 0.961 . S
H835 C849 0.960 . S
H836 C849 0.961 . S
H837 C849 0.959 . S
H838 C852 0.929 . S
H839 C853 0.931 . S
H840 C855 0.930 . S
C841 H829 0.930 . S
C841 C842 1.399 . S
C841 C846 1.399 . S
C842 C841 1.399 . S
C842 C843 1.376 . S
C843 H830 0.930 . S
C843 C842 1.376 . S
C843 C844 1.388 . S
C844 H831 0.930 . S
C844 C843 1.388 . S
C844 C845 1.390 . S
C845 C844 1.390 . S
C845 C846 1.394 . S
C845 C851 1.465 . S
C846 C841 1.399 . S
C846 C845 1.394 . S
C846 C847 1.516 . S
C847 C846 1.516 . S
C847 C848 1.502 . S
C847 C849 1.561 . S
C847 C850 1.526 . S
C848 H832 0.959 . S
C848 H833 0.959 . S
C848 H834 0.961 . S
C848 C847 1.502 . S
C849 H835 0.960 . S
C849 H836 0.961 . S
C849 H837 0.959 . S
C849 C847 1.561 . S
C850 C847 1.526 . S
C850 C851 1.396 . S
C850 C855 1.390 . S
C851 C845 1.465 . S
C851 C850 1.396 . S
C851 C852 1.399 . S
C852 H838 0.929 . S
C852 C851 1.399 . S
C852 C853 1.385 . S
C853 H839 0.931 . S
C853 C852 1.385 . S
C853 C854 1.389 . S
C854 C853 1.389 . S
C854 C855 1.387 . S
C855 H840 0.930 . S
C855 C850 1.390 . S
C855 C854 1.387 . S
H856 C868 0.930 . S
H857 C870 0.930 . S
H858 C871 0.930 . S
H859 C875 0.959 . S
H860 C875 0.959 . S
H861 C875 0.961 . S
H862 C876 0.960 . S
H863 C876 0.961 . S
H864 C876 0.959 . S
H865 C879 0.929 . S
H866 C880 0.931 . S
H867 C882 0.930 . S
C868 H856 0.930 . S
C868 C869 1.399 . S
C868 C873 1.399 . S
C869 C868 1.399 . S
C869 C870 1.376 . S
C870 H857 0.930 . S
C870 C869 1.376 . S
C870 C871 1.388 . S
C871 H858 0.930 . S
C871 C870 1.388 . S
C871 C872 1.390 . S
C872 C871 1.390 . S
C872 C873 1.394 . S
C872 C878 1.465 . S
C873 C868 1.399 . S
C873 C872 1.394 . S
C873 C874 1.516 . S
C874 C873 1.516 . S
C874 C875 1.502 . S
C874 C876 1.561 . S
C874 C877 1.526 . S
C875 H859 0.959 . S
C875 H860 0.959 . S
C875 H861 0.961 . S
C875 C874 1.502 . S
C876 H862 0.960 . S
C876 H863 0.961 . S
C876 H864 0.959 . S
C876 C874 1.561 . S
C877 C874 1.526 . S
C877 C878 1.396 . S
C877 C882 1.390 . S
C878 C872 1.465 . S
C878 C877 1.396 . S
C878 C879 1.399 . S
C879 H865 0.929 . S
C879 C878 1.399 . S
C879 C880 1.385 . S
C880 H866 0.931 . S
C880 C879 1.385 . S
C880 C881 1.389 . S
C881 C880 1.389 . S
C881 C882 1.387 . S
C882 H867 0.930 . S
C882 C877 1.390 . S
C882 C881 1.387 . S
H883 C895 0.930 . S
H884 C897 0.930 . S
H885 C898 0.930 . S
H886 C902 0.959 . S
H887 C902 0.959 . S
H888 C902 0.961 . S
H889 C903 0.960 . S
H890 C903 0.961 . S
H891 C903 0.959 . S
H892 C906 0.929 . S
H893 C907 0.931 . S
H894 C909 0.930 . S
C895 H883 0.930 . S
C895 C896 1.399 . S
C895 C900 1.399 . S
C896 C895 1.399 . S
C896 C897 1.376 . S
C897 H884 0.930 . S
C897 C896 1.376 . S
C897 C898 1.388 . S
C898 H885 0.930 . S
C898 C897 1.388 . S
C898 C899 1.390 . S
C899 C898 1.390 . S
C899 C900 1.394 . S
C899 C905 1.465 . S
C900 C895 1.399 . S
C900 C899 1.394 . S
C900 C901 1.516 . S
C901 C900 1.516 . S
C901 C902 1.502 . S
C901 C903 1.561 . S
C901 C904 1.526 . S
C902 H886 0.959 . S
C902 H887 0.959 . S
C902 H888 0.961 . S
C902 C901 1.502 . S
C903 H889 0.960 . S
C903 H890 0.961 . S
C903 H891 0.959 . S
C903 C901 1.561 . S
C904 C901 1.526 . S
C904 C905 1.396 . S
C904 C909 1.390 . S
C905 C899 1.465 . S
C905 C904 1.396 . S
C905 C906 1.399 . S
C906 H892 0.929 . S
C906 C905 1.399 . S
C906 C907 1.385 . S
C907 H893 0.931 . S
C907 C906 1.385 . S
C907 C908 1.389 . S
C908 C907 1.389 . S
C908 C909 1.387 . S
C909 H894 0.930 . S
C909 C904 1.390 . S
C909 C908 1.387 . S
H910 C922 0.930 1_545 S
H911 C924 0.930 . S
H912 C925 0.930 . S
H913 C929 0.959 . S
H914 C929 0.959 . S
H915 C929 0.961 . S
H916 C930 0.960 . S
H917 C930 0.961 . S
H918 C930 0.959 . S
H919 C933 0.929 . S
H920 C934 0.931 . S
H921 C936 0.930 . S
C922 H910 0.930 1_565 S
C922 C923 1.399 . S
C922 C927 1.395 1_565 S
C923 C922 1.399 . S
C923 C924 1.376 . S
C924 H911 0.930 . S
C924 C923 1.376 . S
C924 C925 1.388 . S
C925 H912 0.930 . S
C925 C924 1.388 . S
C925 C926 1.390 . S
C926 C925 1.390 . S
C926 C927 1.391 1_565 S
C926 C932 1.465 . S
C927 C922 1.395 1_545 S
C927 C926 1.391 1_545 S
C927 C928 1.522 . S
C928 C927 1.522 . S
C928 C929 1.502 . S
C928 C930 1.561 . S
C928 C931 1.526 . S
C929 H913 0.959 . S
C929 H914 0.959 . S
C929 H915 0.961 . S
C929 C928 1.502 . S
C930 H916 0.960 . S
C930 H917 0.961 . S
C930 H918 0.959 . S
C930 C928 1.561 . S
C931 C928 1.526 . S
C931 C932 1.396 1_545 S
C931 C936 1.390 . S
C932 C926 1.465 . S
C932 C931 1.396 1_565 S
C932 C933 1.399 . S
C933 H919 0.929 . S
C933 C932 1.399 . S
C933 C934 1.385 . S
C934 H920 0.931 . S
C934 C933 1.385 . S
C934 C935 1.389 1_565 S
C935 C934 1.389 1_545 S
C935 C936 1.387 . S
C936 H921 0.930 . S
C936 C931 1.390 . S
C936 C935 1.387 . S
H937 C949 0.930 . S
H938 C951 0.930 . S
H939 C952 0.930 . S
H940 C956 0.959 . S
H941 C956 0.959 1_554 S
H942 C956 0.961 1_554 S
H943 C957 0.960 1_554 S
H944 C957 0.960 . S
H945 C957 0.959 . S
H946 C960 0.929 . S
H947 C961 0.931 . S
H948 C963 0.930 . S
C949 H937 0.930 . S
C949 C950 1.399 . S
C949 C954 1.399 . S
C950 C949 1.399 . S
C950 C951 1.376 . S
C951 H938 0.930 . S
C951 C950 1.376 . S
C951 C952 1.388 . S
C952 H939 0.930 . S
C952 C951 1.388 . S
C952 C953 1.390 . S
C953 C952 1.390 . S
C953 C954 1.394 . S
C953 C959 1.465 . S
C954 C949 1.399 . S
C954 C953 1.394 . S
C954 C955 1.516 1_455 S
C955 C954 1.516 1_655 S
C955 C956 1.502 1_655 S
C955 C957 1.561 . S
C955 C958 1.526 . S
C956 H940 0.959 . S
C956 H941 0.959 1_556 S
C956 H942 0.961 1_556 S
C956 C955 1.502 1_455 S
C957 H943 0.960 1_556 S
C957 H944 0.960 . S
C957 H945 0.959 . S
C957 C955 1.561 . S
C958 C955 1.526 . S
C958 C959 1.396 1_655 S
C958 C963 1.390 . S
C959 C953 1.465 . S
C959 C958 1.396 1_455 S
C959 C960 1.399 . S
C960 H946 0.929 . S
C960 C959 1.399 . S
C960 C961 1.385 1_455 S
C961 H947 0.931 . S
C961 C960 1.385 1_655 S
C961 C962 1.389 . S
C962 C961 1.389 . S
C962 C963 1.387 . S
C963 H948 0.930 . S
C963 C958 1.390 . S
C963 C962 1.387 . S
H964 C976 0.930 . S
H965 C978 0.930 . S
H966 C979 0.930 . S
H967 C983 0.959 . S
H968 C983 0.959 . S
H969 C983 0.961 . S
H970 C984 0.962 1_554 S
H971 C984 0.942 1_554 S
H972 C984 0.977 . S
H973 C987 0.929 . S
H974 C988 0.931 . S
H975 C990 0.930 . S
C976 H964 0.930 . S
C976 C977 1.399 . S
C976 C981 1.399 . S
C977 C976 1.399 . S
C977 C978 1.376 . S
C978 H965 0.930 . S
C978 C977 1.376 . S
C978 C979 1.388 . S
C979 H966 0.930 . S
C979 C978 1.388 . S
C979 C980 1.390 . S
C980 C979 1.390 . S
C980 C981 1.394 . S
C980 C986 1.465 . S
C981 C976 1.399 . S
C981 C980 1.394 . S
C981 C982 1.525 . S
C982 C981 1.525 . S
C982 C983 1.493 1_556 S
C982 C984 1.561 . S
C982 C985 1.527 . S
C983 H967 0.959 . S
C983 H968 0.959 . S
C983 H969 0.961 . S
C983 C982 1.493 1_554 S
C984 H970 0.962 1_556 S
C984 H971 0.942 1_556 S
C984 H972 0.977 . S
C984 C982 1.561 . S
C985 C982 1.527 . S
C985 C986 1.396 . S
C985 C990 1.390 1_556 S
C986 C980 1.465 . S
C986 C985 1.396 . S
C986 C987 1.399 . S
C987 H973 0.929 . S
C987 C986 1.399 . S
C987 C988 1.385 . S
C988 H974 0.931 . S
C988 C987 1.385 . S
C988 C989 1.389 . S
C989 C988 1.389 . S
C989 C990 1.387 1_556 S
C990 H975 0.930 . S
C990 C985 1.390 1_554 S
C990 C989 1.387 1_554 S
H991 C1003 0.930 . S
H992 C1005 0.930 . S
H993 C1006 0.930 . S
H994 C1010 0.959 . S
H995 C1010 0.959 . S
H996 C1010 0.961 . S
H997 C1011 0.960 . S
H998 C1011 0.961 . S
H999 C1011 0.959 . S
H1000 C1014 0.929 . S
H1001 C1015 0.931 . S
H1002 C1017 0.930 . S
C1003 H991 0.930 . S
C1003 C1004 1.399 . S
C1003 C1008 1.399 . S
C1004 C1003 1.399 . S
C1004 C1005 1.376 . S
C1005 H992 0.930 . S
C1005 C1004 1.376 . S
C1005 C1006 1.388 . S
C1006 H993 0.930 . S
C1006 C1005 1.388 . S
C1006 C1007 1.390 . S
C1007 C1006 1.390 . S
C1007 C1008 1.394 . S
C1007 C1013 1.465 . S
C1008 C1003 1.399 . S
C1008 C1007 1.394 . S
C1008 C1009 1.516 . S
C1009 C1008 1.516 . S
C1009 C1010 1.502 . S
C1009 C1011 1.561 . S
C1009 C1012 1.526 . S
C1010 H994 0.959 . S
C1010 H995 0.959 . S
C1010 H996 0.961 . S
C1010 C1009 1.502 . S
C1011 H997 0.960 . S
C1011 H998 0.961 . S
C1011 H999 0.959 . S
C1011 C1009 1.561 . S
C1012 C1009 1.526 . S
C1012 C1013 1.396 . S
C1012 C1017 1.390 . S
C1013 C1007 1.465 . S
C1013 C1012 1.396 . S
C1013 C1014 1.399 . S
C1014 H1000 0.929 . S
C1014 C1013 1.399 . S
C1014 C1015 1.385 . S
C1015 H1001 0.931 . S
C1015 C1014 1.385 . S
C1015 C1016 1.389 . S
C1016 C1015 1.389 . S
C1016 C1017 1.387 . S
C1017 H1002 0.930 . S
C1017 C1012 1.390 . S
C1017 C1016 1.387 . S
H1018 C1030 0.930 . S
H1019 C1032 0.930 . S
H1020 C1033 0.930 . S
H1021 C1037 0.959 . S
H1022 C1037 0.959 . S
H1023 C1037 0.961 . S
H1024 C1038 0.960 . S
H1025 C1038 0.961 . S
H1026 C1038 0.959 . S
H1027 C1041 0.929 . S
H1028 C1042 0.931 . S
H1029 C1044 0.930 . S
C1030 H1018 0.930 . S
C1030 C1031 1.399 . S
C1030 C1035 1.399 . S
C1031 C1030 1.399 . S
C1031 C1032 1.376 . S
C1032 H1019 0.930 . S
C1032 C1031 1.376 . S
C1032 C1033 1.388 . S
C1033 H1020 0.930 . S
C1033 C1032 1.388 . S
C1033 C1034 1.390 . S
C1034 C1033 1.390 . S
C1034 C1035 1.394 . S
C1034 C1040 1.465 . S
C1035 C1030 1.399 . S
C1035 C1034 1.394 . S
C1035 C1036 1.516 . S
C1036 C1035 1.516 . S
C1036 C1037 1.502 . S
C1036 C1038 1.561 . S
C1036 C1039 1.526 . S
C1037 H1021 0.959 . S
C1037 H1022 0.959 . S
C1037 H1023 0.961 . S
C1037 C1036 1.502 . S
C1038 H1024 0.960 . S
C1038 H1025 0.961 . S
C1038 H1026 0.959 . S
C1038 C1036 1.561 . S
C1039 C1036 1.526 . S
C1039 C1040 1.396 . S
C1039 C1044 1.390 . S
C1040 C1034 1.465 . S
C1040 C1039 1.396 . S
C1040 C1041 1.399 . S
C1041 H1027 0.929 . S
C1041 C1040 1.399 . S
C1041 C1042 1.385 . S
C1042 H1028 0.931 . S
C1042 C1041 1.385 . S
C1042 C1043 1.389 . S
C1043 C1042 1.389 . S
C1043 C1044 1.387 . S
C1044 H1029 0.930 . S
C1044 C1039 1.390 . S
C1044 C1043 1.387 . S
H1045 C1057 0.930 . S
H1046 C1059 0.930 . S
H1047 C1060 0.930 . S
H1048 C1064 0.959 . S
H1049 C1064 0.959 . S
H1050 C1064 0.961 . S
H1051 C1065 0.960 . S
H1052 C1065 0.961 . S
H1053 C1065 0.959 . S
H1054 C1068 0.929 . S
H1055 C1069 0.931 . S
H1056 C1071 0.930 . S
C1057 H1045 0.930 . S
C1057 C1058 1.399 . S
C1057 C1062 1.399 . S
C1058 C1057 1.399 . S
C1058 C1059 1.376 . S
C1059 H1046 0.930 . S
C1059 C1058 1.376 . S
C1059 C1060 1.388 . S
C1060 H1047 0.930 . S
C1060 C1059 1.388 . S
C1060 C1061 1.390 . S
C1061 C1060 1.390 . S
C1061 C1062 1.394 . S
C1061 C1067 1.465 . S
C1062 C1057 1.399 . S
C1062 C1061 1.394 . S
C1062 C1063 1.516 . S
C1063 C1062 1.516 . S
C1063 C1064 1.502 . S
C1063 C1065 1.561 . S
C1063 C1066 1.526 . S
C1064 H1048 0.959 . S
C1064 H1049 0.959 . S
C1064 H1050 0.961 . S
C1064 C1063 1.502 . S
C1065 H1051 0.960 . S
C1065 H1052 0.961 . S
C1065 H1053 0.959 . S
C1065 C1063 1.561 . S
C1066 C1063 1.526 . S
C1066 C1067 1.396 . S
C1066 C1071 1.390 . S
C1067 C1061 1.465 . S
C1067 C1066 1.396 . S
C1067 C1068 1.399 . S
C1068 H1054 0.929 . S
C1068 C1067 1.399 . S
C1068 C1069 1.385 . S
C1069 H1055 0.931 . S
C1069 C1068 1.385 . S
C1069 C1070 1.389 . S
C1070 C1069 1.389 . S
C1070 C1071 1.387 . S
C1071 H1056 0.930 . S
C1071 C1066 1.390 . S
C1071 C1070 1.387 . S
H1072 C1084 0.930 . S
H1073 C1086 0.930 . S
H1074 C1087 0.930 . S
H1075 C1091 0.959 . S
H1076 C1091 0.959 . S
H1077 C1091 0.961 . S
H1078 C1092 0.960 . S
H1079 C1092 0.961 . S
H1080 C1092 0.959 . S
H1081 C1095 0.929 . S
H1082 C1096 0.931 . S
H1083 C1098 0.930 . S
C1084 H1072 0.930 . S
C1084 C1085 1.399 . S
C1084 C1089 1.399 . S
C1085 C1084 1.399 . S
C1085 C1086 1.376 . S
C1086 H1073 0.930 . S
C1086 C1085 1.376 . S
C1086 C1087 1.388 . S
C1087 H1074 0.930 . S
C1087 C1086 1.388 . S
C1087 C1088 1.390 . S
C1088 C1087 1.390 . S
C1088 C1089 1.394 . S
C1088 C1094 1.465 . S
C1089 C1084 1.399 . S
C1089 C1088 1.394 . S
C1089 C1090 1.516 . S
C1090 C1089 1.516 . S
C1090 C1091 1.502 . S
C1090 C1092 1.561 . S
C1090 C1093 1.526 . S
C1091 H1075 0.959 . S
C1091 H1076 0.959 . S
C1091 H1077 0.961 . S
C1091 C1090 1.502 . S
C1092 H1078 0.960 . S
C1092 H1079 0.961 . S
C1092 H1080 0.959 . S
C1092 C1090 1.561 . S
C1093 C1090 1.526 . S
C1093 C1094 1.396 . S
C1093 C1098 1.390 . S
C1094 C1088 1.465 . S
C1094 C1093 1.396 . S
C1094 C1095 1.399 . S
C1095 H1081 0.929 . S
C1095 C1094 1.399 . S
C1095 C1096 1.385 . S
C1096 H1082 0.931 . S
C1096 C1095 1.385 . S
C1096 C1097 1.389 . S
C1097 C1096 1.389 . S
C1097 C1098 1.387 . S
C1098 H1083 0.930 . S
C1098 C1093 1.390 . S
C1098 C1097 1.387 . S
H1099 C1111 0.930 . S
H1100 C1113 0.930 . S
H1101 C1114 0.930 . S
H1102 C1118 0.959 . S
H1103 C1118 0.959 . S
H1104 C1118 0.961 . S
H1105 C1119 0.960 . S
H1106 C1119 0.961 . S
H1107 C1119 0.959 . S
H1108 C1122 0.929 . S
H1109 C1123 0.931 . S
H1110 C1125 0.930 . S
C1111 H1099 0.930 . S
C1111 C1112 1.399 . S
C1111 C1116 1.399 . S
C1112 C1111 1.399 . S
C1112 C1113 1.376 . S
C1113 H1100 0.930 . S
C1113 C1112 1.376 . S
C1113 C1114 1.388 . S
C1114 H1101 0.930 . S
C1114 C1113 1.388 . S
C1114 C1115 1.390 . S
C1115 C1114 1.390 . S
C1115 C1116 1.394 . S
C1115 C1121 1.465 . S
C1116 C1111 1.399 . S
C1116 C1115 1.394 . S
C1116 C1117 1.516 . S
C1117 C1116 1.516 . S
C1117 C1118 1.502 . S
C1117 C1119 1.561 . S
C1117 C1120 1.526 . S
C1118 H1102 0.959 . S
C1118 H1103 0.959 . S
C1118 H1104 0.961 . S
C1118 C1117 1.502 . S
C1119 H1105 0.960 . S
C1119 H1106 0.961 . S
C1119 H1107 0.959 . S
C1119 C1117 1.561 . S
C1120 C1117 1.526 . S
C1120 C1121 1.396 . S
C1120 C1125 1.390 . S
C1121 C1115 1.465 . S
C1121 C1120 1.396 . S
C1121 C1122 1.399 . S
C1122 H1108 0.929 . S
C1122 C1121 1.399 . S
C1122 C1123 1.385 . S
C1123 H1109 0.931 . S
C1123 C1122 1.385 . S
C1123 C1124 1.389 . S
C1124 C1123 1.389 . S
C1124 C1125 1.387 . S
C1125 H1110 0.930 . S
C1125 C1120 1.390 . S
C1125 C1124 1.387 . S
H1126 C1138 0.930 . S
H1127 C1140 0.930 . S
H1128 C1141 0.930 . S
H1129 C1145 0.959 . S
H1130 C1145 0.959 . S
H1131 C1145 0.961 . S
H1132 C1146 0.960 . S
H1133 C1146 0.961 . S
H1134 C1146 0.959 . S
H1135 C1149 0.929 . S
H1136 C1150 0.931 . S
H1137 C1152 0.930 . S
C1138 H1126 0.930 . S
C1138 C1139 1.399 . S
C1138 C1143 1.399 . S
C1139 C1138 1.399 . S
C1139 C1140 1.376 . S
C1140 H1127 0.930 . S
C1140 C1139 1.376 . S
C1140 C1141 1.388 . S
C1141 H1128 0.930 . S
C1141 C1140 1.388 . S
C1141 C1142 1.390 . S
C1142 C1141 1.390 . S
C1142 C1143 1.394 . S
C1142 C1148 1.465 . S
C1143 C1138 1.399 . S
C1143 C1142 1.394 . S
C1143 C1144 1.516 . S
C1144 C1143 1.516 . S
C1144 C1145 1.502 . S
C1144 C1146 1.561 . S
C1144 C1147 1.526 . S
C1145 H1129 0.959 . S
C1145 H1130 0.959 . S
C1145 H1131 0.961 . S
C1145 C1144 1.502 . S
C1146 H1132 0.960 . S
C1146 H1133 0.961 . S
C1146 H1134 0.959 . S
C1146 C1144 1.561 . S
C1147 C1144 1.526 . S
C1147 C1148 1.396 . S
C1147 C1152 1.390 . S
C1148 C1142 1.465 . S
C1148 C1147 1.396 . S
C1148 C1149 1.399 . S
C1149 H1135 0.929 . S
C1149 C1148 1.399 . S
C1149 C1150 1.385 . S
C1150 H1136 0.931 . S
C1150 C1149 1.385 . S
C1150 C1151 1.389 . S
C1151 C1150 1.389 . S
C1151 C1152 1.387 . S
C1152 H1137 0.930 . S
C1152 C1147 1.390 . S
C1152 C1151 1.387 . S
H1153 C1165 0.930 . S
H1154 C1167 0.930 . S
H1155 C1168 0.930 . S
H1156 C1172 0.959 . S
H1157 C1172 0.959 . S
H1158 C1172 0.961 . S
H1159 C1173 0.960 . S
H1160 C1173 0.961 . S
H1161 C1173 0.959 . S
H1162 C1176 0.929 . S
H1163 C1177 0.931 . S
H1164 C1179 0.930 . S
C1165 H1153 0.930 . S
C1165 C1166 1.399 . S
C1165 C1170 1.399 . S
C1166 C1165 1.399 . S
C1166 C1167 1.376 . S
C1167 H1154 0.930 . S
C1167 C1166 1.376 . S
C1167 C1168 1.388 . S
C1168 H1155 0.930 . S
C1168 C1167 1.388 . S
C1168 C1169 1.390 . S
C1169 C1168 1.390 . S
C1169 C1170 1.394 . S
C1169 C1175 1.465 . S
C1170 C1165 1.399 . S
C1170 C1169 1.394 . S
C1170 C1171 1.516 . S
C1171 C1170 1.516 . S
C1171 C1172 1.502 . S
C1171 C1173 1.561 . S
C1171 C1174 1.526 . S
C1172 H1156 0.959 . S
C1172 H1157 0.959 . S
C1172 H1158 0.961 . S
C1172 C1171 1.502 . S
C1173 H1159 0.960 . S
C1173 H1160 0.961 . S
C1173 H1161 0.959 . S
C1173 C1171 1.561 . S
C1174 C1171 1.526 . S
C1174 C1175 1.396 . S
C1174 C1179 1.390 . S
C1175 C1169 1.465 . S
C1175 C1174 1.396 . S
C1175 C1176 1.399 . S
C1176 H1162 0.929 . S
C1176 C1175 1.399 . S
C1176 C1177 1.385 . S
C1177 H1163 0.931 . S
C1177 C1176 1.385 . S
C1177 C1178 1.389 . S
C1178 C1177 1.389 . S
C1178 C1179 1.387 . S
C1179 H1164 0.930 . S
C1179 C1174 1.390 . S
C1179 C1178 1.387 . S
H1180 C1192 0.930 . S
H1181 C1194 0.930 . S
H1182 C1195 0.930 . S
H1183 C1199 0.959 . S
H1184 C1199 0.959 . S
H1185 C1199 0.961 . S
H1186 C1200 0.960 . S
H1187 C1200 0.961 . S
H1188 C1200 0.959 . S
H1189 C1203 0.929 . S
H1190 C1204 0.931 . S
H1191 C1206 0.930 . S
C1192 H1180 0.930 . S
C1192 C1193 1.399 . S
C1192 C1197 1.399 . S
C1193 C1192 1.399 . S
C1193 C1194 1.376 . S
C1194 H1181 0.930 . S
C1194 C1193 1.376 . S
C1194 C1195 1.388 . S
C1195 H1182 0.930 . S
C1195 C1194 1.388 . S
C1195 C1196 1.390 . S
C1196 C1195 1.390 . S
C1196 C1197 1.394 . S
C1196 C1202 1.465 . S
C1197 C1192 1.399 . S
C1197 C1196 1.394 . S
C1197 C1198 1.516 . S
C1198 C1197 1.516 . S
C1198 C1199 1.502 . S
C1198 C1200 1.561 . S
C1198 C1201 1.526 . S
C1199 H1183 0.959 . S
C1199 H1184 0.959 . S
C1199 H1185 0.961 . S
C1199 C1198 1.502 . S
C1200 H1186 0.960 . S
C1200 H1187 0.961 . S
C1200 H1188 0.959 . S
C1200 C1198 1.561 . S
C1201 C1198 1.526 . S
C1201 C1202 1.396 . S
C1201 C1206 1.390 . S
C1202 C1196 1.465 . S
C1202 C1201 1.396 . S
C1202 C1203 1.399 . S
C1203 H1189 0.929 . S
C1203 C1202 1.399 . S
C1203 C1204 1.385 . S
C1204 H1190 0.931 . S
C1204 C1203 1.385 . S
C1204 C1205 1.389 . S
C1205 C1204 1.389 . S
C1205 C1206 1.387 . S
C1206 H1191 0.930 . S
C1206 C1201 1.390 . S
C1206 C1205 1.387 . S
H1207 C1219 0.930 1_655 S
H1208 C1221 0.930 . S
H1209 C1222 0.930 . S
H1210 C1226 0.959 . S
H1211 C1226 0.959 . S
H1212 C1226 0.961 . S
H1213 C1227 0.960 . S
H1214 C1227 0.961 . S
H1215 C1227 0.959 . S
H1216 C1230 0.932 . S
H1217 C1231 0.931 . S
H1218 C1233 0.930 . S
C1219 H1207 0.930 1_455 S
C1219 C1220 1.399 . S
C1219 C1224 1.388 1_455 S
C1220 C1219 1.399 . S
C1220 C1221 1.376 . S
C1221 H1208 0.930 . S
C1221 C1220 1.376 . S
C1221 C1222 1.388 . S
C1222 H1209 0.930 . S
C1222 C1221 1.388 . S
C1222 C1223 1.390 . S
C1223 C1222 1.390 . S
C1223 C1224 1.393 1_455 S
C1223 C1229 1.465 1_455 S
C1224 C1219 1.388 1_655 S
C1224 C1223 1.393 1_655 S
C1224 C1225 1.529 . S
C1225 C1224 1.529 . S
C1225 C1226 1.502 . S
C1225 C1227 1.561 1_655 S
C1225 C1228 1.526 . S
C1226 H1210 0.959 . S
C1226 H1211 0.959 . S
C1226 H1212 0.961 . S
C1226 C1225 1.502 . S
C1227 H1213 0.960 . S
C1227 H1214 0.961 . S
C1227 H1215 0.959 . S
C1227 C1225 1.561 1_455 S
C1228 C1225 1.526 . S
C1228 C1229 1.396 . S
C1228 C1233 1.390 . S
C1229 C1223 1.465 1_655 S
C1229 C1228 1.396 . S
C1229 C1230 1.400 1_655 S
C1230 H1216 0.932 . S
C1230 C1229 1.400 1_455 S
C1230 C1231 1.382 1_455 S
C1231 H1217 0.931 . S
C1231 C1230 1.382 1_655 S
C1231 C1232 1.389 . S
C1232 C1231 1.389 . S
C1232 C1233 1.387 . S
C1233 H1218 0.930 . S
C1233 C1228 1.390 . S
C1233 C1232 1.387 . S
H1234 C1246 0.930 . S
H1235 C1248 0.930 . S
H1236 C1249 0.930 . S
H1237 C1253 0.959 . S
H1238 C1253 0.959 . S
H1239 C1253 0.961 . S
H1240 C1254 0.960 . S
H1241 C1254 0.961 . S
H1242 C1254 0.959 . S
H1243 C1257 0.929 . S
H1244 C1258 0.931 . S
H1245 C1260 0.930 . S
C1246 H1234 0.930 . S
C1246 C1247 1.399 . S
C1246 C1251 1.399 . S
C1247 C1246 1.399 . S
C1247 C1248 1.376 . S
C1248 H1235 0.930 . S
C1248 C1247 1.376 . S
C1248 C1249 1.388 . S
C1249 H1236 0.930 . S
C1249 C1248 1.388 . S
C1249 C1250 1.390 . S
C1250 C1249 1.390 . S
C1250 C1251 1.394 . S
C1250 C1256 1.465 . S
C1251 C1246 1.399 . S
C1251 C1250 1.394 . S
C1251 C1252 1.516 . S
C1252 C1251 1.516 . S
C1252 C1253 1.502 . S
C1252 C1254 1.561 . S
C1252 C1255 1.526 . S
C1253 H1237 0.959 . S
C1253 H1238 0.959 . S
C1253 H1239 0.961 . S
C1253 C1252 1.502 . S
C1254 H1240 0.960 . S
C1254 H1241 0.961 . S
C1254 H1242 0.959 . S
C1254 C1252 1.561 . S
C1255 C1252 1.526 . S
C1255 C1256 1.396 . S
C1255 C1260 1.390 . S
C1256 C1250 1.465 . S
C1256 C1255 1.396 . S
C1256 C1257 1.399 . S
C1257 H1243 0.929 . S
C1257 C1256 1.399 . S
C1257 C1258 1.385 . S
C1258 H1244 0.931 . S
C1258 C1257 1.385 . S
C1258 C1259 1.389 . S
C1259 C1258 1.389 . S
C1259 C1260 1.387 . S
C1260 H1245 0.930 . S
C1260 C1255 1.390 . S
C1260 C1259 1.387 . S
H1261 C1273 0.930 . S
H1262 C1275 0.930 . S
H1263 C1276 0.930 . S
H1264 C1280 0.959 . S
H1265 C1280 0.959 . S
H1266 C1280 0.961 . S
H1267 C1281 0.960 . S
H1268 C1281 0.961 . S
H1269 C1281 0.959 . S
H1270 C1284 0.929 . S
H1271 C1285 0.931 . S
H1272 C1287 0.930 . S
C1273 H1261 0.930 . S
C1273 C1274 1.399 . S
C1273 C1278 1.399 . S
C1274 C1273 1.399 . S
C1274 C1275 1.376 . S
C1275 H1262 0.930 . S
C1275 C1274 1.376 . S
C1275 C1276 1.388 . S
C1276 H1263 0.930 . S
C1276 C1275 1.388 . S
C1276 C1277 1.390 . S
C1277 C1276 1.390 . S
C1277 C1278 1.394 . S
C1277 C1283 1.465 . S
C1278 C1273 1.399 . S
C1278 C1277 1.394 . S
C1278 C1279 1.516 . S
C1279 C1278 1.516 . S
C1279 C1280 1.502 . S
C1279 C1281 1.561 . S
C1279 C1282 1.526 . S
C1280 H1264 0.959 . S
C1280 H1265 0.959 . S
C1280 H1266 0.961 . S
C1280 C1279 1.502 . S
C1281 H1267 0.960 . S
C1281 H1268 0.961 . S
C1281 H1269 0.959 . S
C1281 C1279 1.561 . S
C1282 C1279 1.526 . S
C1282 C1283 1.396 . S
C1282 C1287 1.390 . S
C1283 C1277 1.465 . S
C1283 C1282 1.396 . S
C1283 C1284 1.399 . S
C1284 H1270 0.929 . S
C1284 C1283 1.399 . S
C1284 C1285 1.385 . S
C1285 H1271 0.931 . S
C1285 C1284 1.385 . S
C1285 C1286 1.389 . S
C1286 C1285 1.389 . S
C1286 C1287 1.387 . S
C1287 H1272 0.930 . S
C1287 C1282 1.390 . S
C1287 C1286 1.387 . S
H1288 C1300 0.930 . S
H1289 C1302 0.930 . S
H1290 C1303 0.930 . S
H1291 C1307 0.959 . S
H1292 C1307 0.959 . S
H1293 C1307 0.961 . S
H1294 C1308 0.960 . S
H1295 C1308 0.961 . S
H1296 C1308 0.959 . S
H1297 C1311 0.929 . S
H1298 C1312 0.931 . S
H1299 C1314 0.930 . S
C1300 H1288 0.930 . S
C1300 C1301 1.399 . S
C1300 C1305 1.399 . S
C1301 C1300 1.399 . S
C1301 C1302 1.376 . S
C1302 H1289 0.930 . S
C1302 C1301 1.376 . S
C1302 C1303 1.388 . S
C1303 H1290 0.930 . S
C1303 C1302 1.388 . S
C1303 C1304 1.390 . S
C1304 C1303 1.390 . S
C1304 C1305 1.394 . S
C1304 C1310 1.465 . S
C1305 C1300 1.399 . S
C1305 C1304 1.394 . S
C1305 C1306 1.516 . S
C1306 C1305 1.516 . S
C1306 C1307 1.502 . S
C1306 C1308 1.561 . S
C1306 C1309 1.526 . S
C1307 H1291 0.959 . S
C1307 H1292 0.959 . S
C1307 H1293 0.961 . S
C1307 C1306 1.502 . S
C1308 H1294 0.960 . S
C1308 H1295 0.961 . S
C1308 H1296 0.959 . S
C1308 C1306 1.561 . S
C1309 C1306 1.526 . S
C1309 C1310 1.396 . S
C1309 C1314 1.390 . S
C1310 C1304 1.465 . S
C1310 C1309 1.396 . S
C1310 C1311 1.399 . S
C1311 H1297 0.929 . S
C1311 C1310 1.399 . S
C1311 C1312 1.385 . S
C1312 H1298 0.931 . S
C1312 C1311 1.385 . S
C1312 C1313 1.389 . S
C1313 C1312 1.389 . S
C1313 C1314 1.387 . S
C1314 H1299 0.930 . S
C1314 C1309 1.390 . S
C1314 C1313 1.387 . S
H1315 C1327 0.930 . S
H1316 C1329 0.930 . S
H1317 C1330 0.930 . S
H1318 C1334 0.959 . S
H1319 C1334 0.959 . S
H1320 C1334 0.961 . S
H1321 C1335 0.960 . S
H1322 C1335 0.961 . S
H1323 C1335 0.959 . S
H1324 C1338 0.929 . S
H1325 C1339 0.931 . S
H1326 C1341 0.930 . S
C1327 H1315 0.930 . S
C1327 C1328 1.399 . S
C1327 C1332 1.399 . S
C1328 C1327 1.399 . S
C1328 C1329 1.376 . S
C1329 H1316 0.930 . S
C1329 C1328 1.376 . S
C1329 C1330 1.388 . S
C1330 H1317 0.930 . S
C1330 C1329 1.388 . S
C1330 C1331 1.390 . S
C1331 C1330 1.390 . S
C1331 C1332 1.394 . S
C1331 C1337 1.465 . S
C1332 C1327 1.399 . S
C1332 C1331 1.394 . S
C1332 C1333 1.516 . S
C1333 C1332 1.516 . S
C1333 C1334 1.502 . S
C1333 C1335 1.561 . S
C1333 C1336 1.526 . S
C1334 H1318 0.959 . S
C1334 H1319 0.959 . S
C1334 H1320 0.961 . S
C1334 C1333 1.502 . S
C1335 H1321 0.960 . S
C1335 H1322 0.961 . S
C1335 H1323 0.959 . S
C1335 C1333 1.561 . S
C1336 C1333 1.526 . S
C1336 C1337 1.396 . S
C1336 C1341 1.390 . S
C1337 C1331 1.465 . S
C1337 C1336 1.396 . S
C1337 C1338 1.399 . S
C1338 H1324 0.929 . S
C1338 C1337 1.399 . S
C1338 C1339 1.385 . S
C1339 H1325 0.931 . S
C1339 C1338 1.385 . S
C1339 C1340 1.389 . S
C1340 C1339 1.389 . S
C1340 C1341 1.387 . S
C1341 H1326 0.930 . S
C1341 C1336 1.390 . S
C1341 C1340 1.387 . S
H1342 C1354 0.930 . S
H1343 C1356 0.930 . S
H1344 C1357 0.930 . S
H1345 C1361 0.959 . S
H1346 C1361 0.959 . S
H1347 C1361 0.961 . S
H1348 C1362 0.960 . S
H1349 C1362 0.961 . S
H1350 C1362 0.959 . S
H1351 C1365 0.929 . S
H1352 C1366 0.931 . S
H1353 C1368 0.930 1_565 S
C1354 H1342 0.930 . S
C1354 C1355 1.399 . S
C1354 C1359 1.399 . S
C1355 C1354 1.399 . S
C1355 C1356 1.376 1_565 S
C1356 H1343 0.930 . S
C1356 C1355 1.376 1_545 S
C1356 C1357 1.388 . S
C1357 H1344 0.930 . S
C1357 C1356 1.388 . S
C1357 C1358 1.390 . S
C1358 C1357 1.390 . S
C1358 C1359 1.394 1_545 S
C1358 C1364 1.465 . S
C1359 C1354 1.399 . S
C1359 C1358 1.394 1_565 S
C1359 C1360 1.516 . S
C1360 C1359 1.516 . S
C1360 C1361 1.502 . S
C1360 C1362 1.561 . S
C1360 C1363 1.529 . S
C1361 H1345 0.959 . S
C1361 H1346 0.959 . S
C1361 H1347 0.961 . S
C1361 C1360 1.502 . S
C1362 H1348 0.960 . S
C1362 H1349 0.961 . S
C1362 H1350 0.959 . S
C1362 C1360 1.561 . S
C1363 C1360 1.529 . S
C1363 C1364 1.395 1_565 S
C1363 C1368 1.388 1_565 S
C1364 C1358 1.465 . S
C1364 C1363 1.395 1_545 S
C1364 C1365 1.399 . S
C1365 H1351 0.929 . S
C1365 C1364 1.399 . S
C1365 C1366 1.385 . S
C1366 H1352 0.931 . S
C1366 C1365 1.385 . S
C1366 C1367 1.389 . S
C1367 C1366 1.389 . S
C1367 C1368 1.387 . S
C1368 H1353 0.930 1_545 S
C1368 C1363 1.388 1_545 S
C1368 C1367 1.387 . S
H1369 C1381 0.930 . S
H1370 C1383 0.930 . S
H1371 C1384 0.930 . S
H1372 C1388 0.959 . S
H1373 C1388 0.959 . S
H1374 C1388 0.961 . S
H1375 C1389 0.960 . S
H1376 C1389 0.961 . S
H1377 C1389 0.959 . S
H1378 C1392 0.929 1_556 S
H1379 C1393 0.931 . S
H1380 C1395 0.930 . S
C1381 H1369 0.930 . S
C1381 C1382 1.399 . S
C1381 C1386 1.399 . S
C1382 C1381 1.399 . S
C1382 C1383 1.376 1_554 S
C1383 H1370 0.930 . S
C1383 C1382 1.376 1_556 S
C1383 C1384 1.388 . S
C1384 H1371 0.930 . S
C1384 C1383 1.388 . S
C1384 C1385 1.390 1_556 S
C1385 C1384 1.390 1_554 S
C1385 C1386 1.394 . S
C1385 C1391 1.465 . S
C1386 C1381 1.399 . S
C1386 C1385 1.394 . S
C1386 C1387 1.516 . S
C1387 C1386 1.516 . S
C1387 C1388 1.502 . S
C1387 C1389 1.561 . S
C1387 C1390 1.526 . S
C1388 H1372 0.959 . S
C1388 H1373 0.959 . S
C1388 H1374 0.961 . S
C1388 C1387 1.502 . S
C1389 H1375 0.960 . S
C1389 H1376 0.961 . S
C1389 H1377 0.959 . S
C1389 C1387 1.561 . S
C1390 C1387 1.526 . S
C1390 C1391 1.396 . S
C1390 C1395 1.390 . S
C1391 C1385 1.465 . S
C1391 C1390 1.396 . S
C1391 C1392 1.399 . S
C1392 H1378 0.929 1_554 S
C1392 C1391 1.399 . S
C1392 C1393 1.385 . S
C1393 H1379 0.931 . S
C1393 C1392 1.385 . S
C1393 C1394 1.389 . S
C1394 C1393 1.389 . S
C1394 C1395 1.387 . S
C1395 H1380 0.930 . S
C1395 C1390 1.390 . S
C1395 C1394 1.387 . S
H1396 C1408 0.930 . S
H1397 C1410 0.930 . S
H1398 C1411 0.930 . S
H1399 C1415 0.959 . S
H1400 C1415 0.959 . S
H1401 C1415 0.961 . S
H1402 C1416 0.960 . S
H1403 C1416 0.961 . S
H1404 C1416 0.959 . S
H1405 C1419 0.929 . S
H1406 C1420 0.931 . S
H1407 C1422 0.930 . S
C1408 H1396 0.930 . S
C1408 C1409 1.399 . S
C1408 C1413 1.399 . S
C1409 C1408 1.399 . S
C1409 C1410 1.376 . S
C1410 H1397 0.930 . S
C1410 C1409 1.376 . S
C1410 C1411 1.388 . S
C1411 H1398 0.930 . S
C1411 C1410 1.388 . S
C1411 C1412 1.390 . S
C1412 C1411 1.390 . S
C1412 C1413 1.394 . S
C1412 C1418 1.465 . S
C1413 C1408 1.399 . S
C1413 C1412 1.394 . S
C1413 C1414 1.516 . S
C1414 C1413 1.516 . S
C1414 C1415 1.502 . S
C1414 C1416 1.561 . S
C1414 C1417 1.526 . S
C1415 H1399 0.959 . S
C1415 H1400 0.959 . S
C1415 H1401 0.961 . S
C1415 C1414 1.502 . S
C1416 H1402 0.960 . S
C1416 H1403 0.961 . S
C1416 H1404 0.959 . S
C1416 C1414 1.561 . S
C1417 C1414 1.526 . S
C1417 C1418 1.396 . S
C1417 C1422 1.390 . S
C1418 C1412 1.465 . S
C1418 C1417 1.396 . S
C1418 C1419 1.399 . S
C1419 H1405 0.929 . S
C1419 C1418 1.399 . S
C1419 C1420 1.385 . S
C1420 H1406 0.931 . S
C1420 C1419 1.385 . S
C1420 C1421 1.389 . S
C1421 C1420 1.389 . S
C1421 C1422 1.387 . S
C1422 H1407 0.930 . S
C1422 C1417 1.390 . S
C1422 C1421 1.387 . S
H1423 C1435 0.930 . S
H1424 C1437 0.930 . S
H1425 C1438 0.930 . S
H1426 C1442 0.959 . S
H1427 C1442 0.959 . S
H1428 C1442 0.961 . S
H1429 C1443 0.960 . S
H1430 C1443 0.961 . S
H1431 C1443 0.959 . S
H1432 C1446 0.929 . S
H1433 C1447 0.931 . S
H1434 C1449 0.930 . S
C1435 H1423 0.930 . S
C1435 C1436 1.399 . S
C1435 C1440 1.399 . S
C1436 C1435 1.399 . S
C1436 C1437 1.376 . S
C1437 H1424 0.930 . S
C1437 C1436 1.376 . S
C1437 C1438 1.388 . S
C1438 H1425 0.930 . S
C1438 C1437 1.388 . S
C1438 C1439 1.390 . S
C1439 C1438 1.390 . S
C1439 C1440 1.394 . S
C1439 C1445 1.465 . S
C1440 C1435 1.399 . S
C1440 C1439 1.394 . S
C1440 C1441 1.516 . S
C1441 C1440 1.516 . S
C1441 C1442 1.502 . S
C1441 C1443 1.561 . S
C1441 C1444 1.526 . S
C1442 H1426 0.959 . S
C1442 H1427 0.959 . S
C1442 H1428 0.961 . S
C1442 C1441 1.502 . S
C1443 H1429 0.960 . S
C1443 H1430 0.961 . S
C1443 H1431 0.959 . S
C1443 C1441 1.561 . S
C1444 C1441 1.526 . S
C1444 C1445 1.396 . S
C1444 C1449 1.390 . S
C1445 C1439 1.465 . S
C1445 C1444 1.396 . S
C1445 C1446 1.399 . S
C1446 H1432 0.929 . S
C1446 C1445 1.399 . S
C1446 C1447 1.385 . S
C1447 H1433 0.931 . S
C1447 C1446 1.385 . S
C1447 C1448 1.389 . S
C1448 C1447 1.389 . S
C1448 C1449 1.387 . S
C1449 H1434 0.930 . S
C1449 C1444 1.390 . S
C1449 C1448 1.387 . S
H1450 C1462 0.930 . S
H1451 C1464 0.930 . S
H1452 C1465 0.930 . S
H1453 C1469 0.959 . S
H1454 C1469 0.959 . S
H1455 C1469 0.961 . S
H1456 C1470 0.960 . S
H1457 C1470 0.961 . S
H1458 C1470 0.959 . S
H1459 C1473 0.929 . S
H1460 C1474 0.931 . S
H1461 C1476 0.930 . S
C1462 H1450 0.930 . S
C1462 C1463 1.399 . S
C1462 C1467 1.399 . S
C1463 C1462 1.399 . S
C1463 C1464 1.376 . S
C1464 H1451 0.930 . S
C1464 C1463 1.376 . S
C1464 C1465 1.388 . S
C1465 H1452 0.930 . S
C1465 C1464 1.388 . S
C1465 C1466 1.390 . S
C1466 C1465 1.390 . S
C1466 C1467 1.394 . S
C1466 C1472 1.465 . S
C1467 C1462 1.399 . S
C1467 C1466 1.394 . S
C1467 C1468 1.516 . S
C1468 C1467 1.516 . S
C1468 C1469 1.502 . S
C1468 C1470 1.561 . S
C1468 C1471 1.526 . S
C1469 H1453 0.959 . S
C1469 H1454 0.959 . S
C1469 H1455 0.961 . S
C1469 C1468 1.502 . S
C1470 H1456 0.960 . S
C1470 H1457 0.961 . S
C1470 H1458 0.959 . S
C1470 C1468 1.561 . S
C1471 C1468 1.526 . S
C1471 C1472 1.396 . S
C1471 C1476 1.390 . S
C1472 C1466 1.465 . S
C1472 C1471 1.396 . S
C1472 C1473 1.399 . S
C1473 H1459 0.929 . S
C1473 C1472 1.399 . S
C1473 C1474 1.385 . S
C1474 H1460 0.931 . S
C1474 C1473 1.385 . S
C1474 C1475 1.389 . S
C1475 C1474 1.389 . S
C1475 C1476 1.387 . S
C1476 H1461 0.930 . S
C1476 C1471 1.390 . S
C1476 C1475 1.387 . S
H1477 C1489 0.930 . S
H1478 C1491 0.930 . S
H1479 C1492 0.930 . S
H1480 C1496 0.959 . S
H1481 C1496 0.959 . S
H1482 C1496 0.961 . S
H1483 C1497 0.960 . S
H1484 C1497 0.961 . S
H1485 C1497 0.959 . S
H1486 C1500 0.929 . S
H1487 C1501 0.931 . S
H1488 C1503 0.930 . S
C1489 H1477 0.930 . S
C1489 C1490 1.399 . S
C1489 C1494 1.399 . S
C1490 C1489 1.399 . S
C1490 C1491 1.376 . S
C1491 H1478 0.930 . S
C1491 C1490 1.376 . S
C1491 C1492 1.388 . S
C1492 H1479 0.930 . S
C1492 C1491 1.388 . S
C1492 C1493 1.390 . S
C1493 C1492 1.390 . S
C1493 C1494 1.394 . S
C1493 C1499 1.465 . S
C1494 C1489 1.399 . S
C1494 C1493 1.394 . S
C1494 C1495 1.516 . S
C1495 C1494 1.516 . S
C1495 C1496 1.502 . S
C1495 C1497 1.561 . S
C1495 C1498 1.526 . S
C1496 H1480 0.959 . S
C1496 H1481 0.959 . S
C1496 H1482 0.961 . S
C1496 C1495 1.502 . S
C1497 H1483 0.960 . S
C1497 H1484 0.961 . S
C1497 H1485 0.959 . S
C1497 C1495 1.561 . S
C1498 C1495 1.526 . S
C1498 C1499 1.396 . S
C1498 C1503 1.390 . S
C1499 C1493 1.465 . S
C1499 C1498 1.396 . S
C1499 C1500 1.399 . S
C1500 H1486 0.929 . S
C1500 C1499 1.399 . S
C1500 C1501 1.385 . S
C1501 H1487 0.931 . S
C1501 C1500 1.385 . S
C1501 C1502 1.389 . S
C1502 C1501 1.389 . S
C1502 C1503 1.387 . S
C1503 H1488 0.930 . S
C1503 C1498 1.390 . S
C1503 C1502 1.387 . S
H1504 C1516 0.930 . S
H1505 C1518 0.930 . S
H1506 C1519 0.930 . S
H1507 C1523 0.959 . S
H1508 C1523 0.959 . S
H1509 C1523 0.961 . S
H1510 C1524 0.960 . S
H1511 C1524 0.961 . S
H1512 C1524 0.959 . S
H1513 C1527 0.929 . S
H1514 C1528 0.931 . S
H1515 C1530 0.930 . S
C1516 H1504 0.930 . S
C1516 C1517 1.399 . S
C1516 C1521 1.399 . S
C1517 C1516 1.399 . S
C1517 C1518 1.376 . S
C1518 H1505 0.930 . S
C1518 C1517 1.376 . S
C1518 C1519 1.388 . S
C1519 H1506 0.930 . S
C1519 C1518 1.388 . S
C1519 C1520 1.390 . S
C1520 C1519 1.390 . S
C1520 C1521 1.394 . S
C1520 C1526 1.465 . S
C1521 C1516 1.399 . S
C1521 C1520 1.394 . S
C1521 C1522 1.516 . S
C1522 C1521 1.516 . S
C1522 C1523 1.502 . S
C1522 C1524 1.561 . S
C1522 C1525 1.526 . S
C1523 H1507 0.959 . S
C1523 H1508 0.959 . S
C1523 H1509 0.961 . S
C1523 C1522 1.502 . S
C1524 H1510 0.960 . S
C1524 H1511 0.961 . S
C1524 H1512 0.959 . S
C1524 C1522 1.561 . S
C1525 C1522 1.526 . S
C1525 C1526 1.396 . S
C1525 C1530 1.390 . S
C1526 C1520 1.465 . S
C1526 C1525 1.396 . S
C1526 C1527 1.399 . S
C1527 H1513 0.929 . S
C1527 C1526 1.399 . S
C1527 C1528 1.385 . S
C1528 H1514 0.931 . S
C1528 C1527 1.385 . S
C1528 C1529 1.389 . S
C1529 C1528 1.389 . S
C1529 C1530 1.387 . S
C1530 H1515 0.930 . S
C1530 C1525 1.390 . S
C1530 C1529 1.387 . S
H1531 C1543 0.930 . S
H1532 C1545 0.930 . S
H1533 C1546 0.930 . S
H1534 C1550 0.959 . S
H1535 C1550 0.959 . S
H1536 C1550 0.961 . S
H1537 C1551 0.960 . S
H1538 C1551 0.961 . S
H1539 C1551 0.959 . S
H1540 C1554 0.929 . S
H1541 C1555 0.931 . S
H1542 C1557 0.930 . S
C1543 H1531 0.930 . S
C1543 C1544 1.399 . S
C1543 C1548 1.399 . S
C1544 C1543 1.399 . S
C1544 C1545 1.376 . S
C1545 H1532 0.930 . S
C1545 C1544 1.376 . S
C1545 C1546 1.388 . S
C1546 H1533 0.930 . S
C1546 C1545 1.388 . S
C1546 C1547 1.390 . S
C1547 C1546 1.390 . S
C1547 C1548 1.394 . S
C1547 C1553 1.465 . S
C1548 C1543 1.399 . S
C1548 C1547 1.394 . S
C1548 C1549 1.516 . S
C1549 C1548 1.516 . S
C1549 C1550 1.502 . S
C1549 C1551 1.561 . S
C1549 C1552 1.526 . S
C1550 H1534 0.959 . S
C1550 H1535 0.959 . S
C1550 H1536 0.961 . S
C1550 C1549 1.502 . S
C1551 H1537 0.960 . S
C1551 H1538 0.961 . S
C1551 H1539 0.959 . S
C1551 C1549 1.561 . S
C1552 C1549 1.526 . S
C1552 C1553 1.396 . S
C1552 C1557 1.390 . S
C1553 C1547 1.465 . S
C1553 C1552 1.396 . S
C1553 C1554 1.399 . S
C1554 H1540 0.929 . S
C1554 C1553 1.399 . S
C1554 C1555 1.385 . S
C1555 H1541 0.931 . S
C1555 C1554 1.385 . S
C1555 C1556 1.389 . S
C1556 C1555 1.389 . S
C1556 C1557 1.387 . S
C1557 H1542 0.930 . S
C1557 C1552 1.390 . S
C1557 C1556 1.387 . S
H1558 C1570 0.930 . S
H1559 C1572 0.930 . S
H1560 C1573 0.930 . S
H1561 C1577 0.959 . S
H1562 C1577 0.959 . S
H1563 C1577 0.961 . S
H1564 C1578 0.960 . S
H1565 C1578 0.961 . S
H1566 C1578 0.959 . S
H1567 C1581 0.929 . S
H1568 C1582 0.931 . S
H1569 C1584 0.930 . S
C1570 H1558 0.930 . S
C1570 C1571 1.399 . S
C1570 C1575 1.399 . S
C1571 C1570 1.399 . S
C1571 C1572 1.376 . S
C1572 H1559 0.930 . S
C1572 C1571 1.376 . S
C1572 C1573 1.388 . S
C1573 H1560 0.930 . S
C1573 C1572 1.388 . S
C1573 C1574 1.390 . S
C1574 C1573 1.390 . S
C1574 C1575 1.394 . S
C1574 C1580 1.465 . S
C1575 C1570 1.399 . S
C1575 C1574 1.394 . S
C1575 C1576 1.516 . S
C1576 C1575 1.516 . S
C1576 C1577 1.502 . S
C1576 C1578 1.561 . S
C1576 C1579 1.526 . S
C1577 H1561 0.959 . S
C1577 H1562 0.959 . S
C1577 H1563 0.961 . S
C1577 C1576 1.502 . S
C1578 H1564 0.960 . S
C1578 H1565 0.961 . S
C1578 H1566 0.959 . S
C1578 C1576 1.561 . S
C1579 C1576 1.526 . S
C1579 C1580 1.396 . S
C1579 C1584 1.390 . S
C1580 C1574 1.465 . S
C1580 C1579 1.396 . S
C1580 C1581 1.399 . S
C1581 H1567 0.929 . S
C1581 C1580 1.399 . S
C1581 C1582 1.385 . S
C1582 H1568 0.931 . S
C1582 C1581 1.385 . S
C1582 C1583 1.389 . S
C1583 C1582 1.389 . S
C1583 C1584 1.387 . S
C1584 H1569 0.930 . S
C1584 C1579 1.390 . S
C1584 C1583 1.387 . S
H1585 C1597 0.930 . S
H1586 C1599 0.930 . S
H1587 C1600 0.930 . S
H1588 C1604 0.959 . S
H1589 C1604 0.959 . S
H1590 C1604 0.961 . S
H1591 C1605 0.960 . S
H1592 C1605 0.961 . S
H1593 C1605 0.959 . S
H1594 C1608 0.929 . S
H1595 C1609 0.931 . S
H1596 C1611 0.930 . S
C1597 H1585 0.930 . S
C1597 C1598 1.399 . S
C1597 C1602 1.399 . S
C1598 C1597 1.399 . S
C1598 C1599 1.376 . S
C1599 H1586 0.930 . S
C1599 C1598 1.376 . S
C1599 C1600 1.388 . S
C1600 H1587 0.930 . S
C1600 C1599 1.388 . S
C1600 C1601 1.390 . S
C1601 C1600 1.390 . S
C1601 C1602 1.394 . S
C1601 C1607 1.465 . S
C1602 C1597 1.399 . S
C1602 C1601 1.394 . S
C1602 C1603 1.516 . S
C1603 C1602 1.516 . S
C1603 C1604 1.502 . S
C1603 C1605 1.561 . S
C1603 C1606 1.526 . S
C1604 H1588 0.959 . S
C1604 H1589 0.959 . S
C1604 H1590 0.961 . S
C1604 C1603 1.502 . S
C1605 H1591 0.960 . S
C1605 H1592 0.961 . S
C1605 H1593 0.959 . S
C1605 C1603 1.561 . S
C1606 C1603 1.526 . S
C1606 C1607 1.396 . S
C1606 C1611 1.390 . S
C1607 C1601 1.465 . S
C1607 C1606 1.396 . S
C1607 C1608 1.399 . S
C1608 H1594 0.929 . S
C1608 C1607 1.399 . S
C1608 C1609 1.385 . S
C1609 H1595 0.931 . S
C1609 C1608 1.385 . S
C1609 C1610 1.389 . S
C1610 C1609 1.389 . S
C1610 C1611 1.387 . S
C1611 H1596 0.930 . S
C1611 C1606 1.390 . S
C1611 C1610 1.387 . S
H1612 C1624 0.930 . S
H1613 C1626 0.930 . S
H1614 C1627 0.930 . S
H1615 C1631 0.959 . S
H1616 C1631 0.959 . S
H1617 C1631 0.961 . S
H1618 C1632 0.960 . S
H1619 C1632 0.961 . S
H1620 C1632 0.959 . S
H1621 C1635 0.929 . S
H1622 C1636 0.915 1_556 S
H1623 C1638 0.930 . S
C1624 H1612 0.930 . S
C1624 C1625 1.399 . S
C1624 C1629 1.399 . S
C1625 C1624 1.399 . S
C1625 C1626 1.376 . S
C1626 H1613 0.930 . S
C1626 C1625 1.376 . S
C1626 C1627 1.388 . S
C1627 H1614 0.930 . S
C1627 C1626 1.388 . S
C1627 C1628 1.390 . S
C1628 C1627 1.390 . S
C1628 C1629 1.394 . S
C1628 C1634 1.465 . S
C1629 C1624 1.399 . S
C1629 C1628 1.394 . S
C1629 C1630 1.516 . S
C1630 C1629 1.516 . S
C1630 C1631 1.502 . S
C1630 C1632 1.561 . S
C1630 C1633 1.526 . S
C1631 H1615 0.959 . S
C1631 H1616 0.959 . S
C1631 H1617 0.961 . S
C1631 C1630 1.502 . S
C1632 H1618 0.960 . S
C1632 H1619 0.961 . S
C1632 H1620 0.959 . S
C1632 C1630 1.561 . S
C1633 C1630 1.526 . S
C1633 C1634 1.396 . S
C1633 C1638 1.390 . S
C1634 C1628 1.465 . S
C1634 C1633 1.396 . S
C1634 C1635 1.399 . S
C1635 H1621 0.929 . S
C1635 C1634 1.399 . S
C1635 C1636 1.385 . S
C1636 H1622 0.915 1_554 S
C1636 C1635 1.385 . S
C1636 C1637 1.389 . S
C1637 C1636 1.389 . S
C1637 C1638 1.387 . S
C1638 H1623 0.930 . S
C1638 C1633 1.390 . S
C1638 C1637 1.387 . S
H1639 C1651 0.930 . S
H1640 C1653 0.930 . S
H1641 C1654 0.930 . S
H1642 C1658 0.959 . S
H1643 C1658 0.959 . S
H1644 C1658 0.961 . S
H1645 C1659 0.960 . S
H1646 C1659 0.961 . S
H1647 C1659 0.959 . S
H1648 C1662 0.929 . S
H1649 C1663 0.931 . S
H1650 C1665 0.930 . S
C1651 H1639 0.930 . S
C1651 C1652 1.399 . S
C1651 C1656 1.399 . S
C1652 C1651 1.399 . S
C1652 C1653 1.376 . S
C1653 H1640 0.930 . S
C1653 C1652 1.376 . S
C1653 C1654 1.388 . S
C1654 H1641 0.930 . S
C1654 C1653 1.388 . S
C1654 C1655 1.390 . S
C1655 C1654 1.390 . S
C1655 C1656 1.394 . S
C1655 C1661 1.465 . S
C1656 C1651 1.399 . S
C1656 C1655 1.394 . S
C1656 C1657 1.516 1_554 S
C1657 C1656 1.516 1_556 S
C1657 C1658 1.502 . S
C1657 C1659 1.561 . S
C1657 C1660 1.526 1_556 S
C1658 H1642 0.959 . S
C1658 H1643 0.959 . S
C1658 H1644 0.961 . S
C1658 C1657 1.502 . S
C1659 H1645 0.960 . S
C1659 H1646 0.961 . S
C1659 H1647 0.959 . S
C1659 C1657 1.561 . S
C1660 C1657 1.526 1_554 S
C1660 C1661 1.396 . S
C1660 C1665 1.390 1_554 S
C1661 C1655 1.465 . S
C1661 C1660 1.396 . S
C1661 C1662 1.399 . S
C1662 H1648 0.929 . S
C1662 C1661 1.399 . S
C1662 C1663 1.385 . S
C1663 H1649 0.931 . S
C1663 C1662 1.385 . S
C1663 C1664 1.389 . S
C1664 C1663 1.389 . S
C1664 C1665 1.387 1_554 S
C1665 H1650 0.930 . S
C1665 C1660 1.390 1_556 S
C1665 C1664 1.387 1_556 S
H1666 C1678 0.930 . S
H1667 C1680 0.930 . S
H1668 C1681 0.930 . S
H1669 C1685 0.959 . S
H1670 C1685 0.959 . S
H1671 C1685 0.961 . S
H1672 C1686 0.960 . S
H1673 C1686 0.961 . S
H1674 C1686 0.959 . S
H1675 C1689 0.929 . S
H1676 C1690 0.931 . S
H1677 C1692 0.930 . S
C1678 H1666 0.930 . S
C1678 C1679 1.399 . S
C1678 C1683 1.399 . S
C1679 C1678 1.399 . S
C1679 C1680 1.376 . S
C1680 H1667 0.930 . S
C1680 C1679 1.376 . S
C1680 C1681 1.388 . S
C1681 H1668 0.930 . S
C1681 C1680 1.388 . S
C1681 C1682 1.390 . S
C1682 C1681 1.390 . S
C1682 C1683 1.394 . S
C1682 C1688 1.465 . S
C1683 C1678 1.399 . S
C1683 C1682 1.394 . S
C1683 C1684 1.516 . S
C1684 C1683 1.516 . S
C1684 C1685 1.502 . S
C1684 C1686 1.561 . S
C1684 C1687 1.526 . S
C1685 H1669 0.959 . S
C1685 H1670 0.959 . S
C1685 H1671 0.961 . S
C1685 C1684 1.502 . S
C1686 H1672 0.960 . S
C1686 H1673 0.961 . S
C1686 H1674 0.959 . S
C1686 C1684 1.561 . S
C1687 C1684 1.526 . S
C1687 C1688 1.396 . S
C1687 C1692 1.390 . S
C1688 C1682 1.465 . S
C1688 C1687 1.396 . S
C1688 C1689 1.399 . S
C1689 H1675 0.929 . S
C1689 C1688 1.399 . S
C1689 C1690 1.385 . S
C1690 H1676 0.931 . S
C1690 C1689 1.385 . S
C1690 C1691 1.389 . S
C1691 C1690 1.389 . S
C1691 C1692 1.387 . S
C1692 H1677 0.930 . S
C1692 C1687 1.390 . S
C1692 C1691 1.387 . S
H1693 C1705 0.930 . S
H1694 C1707 0.930 . S
H1695 C1708 0.930 . S
H1696 C1712 0.959 . S
H1697 C1712 0.959 . S
H1698 C1712 0.961 . S
H1699 C1713 0.960 . S
H1700 C1713 0.961 . S
H1701 C1713 0.959 . S
H1702 C1716 0.929 . S
H1703 C1717 0.931 . S
H1704 C1719 0.930 . S
C1705 H1693 0.930 . S
C1705 C1706 1.399 . S
C1705 C1710 1.399 . S
C1706 C1705 1.399 . S
C1706 C1707 1.376 . S
C1707 H1694 0.930 . S
C1707 C1706 1.376 . S
C1707 C1708 1.388 . S
C1708 H1695 0.930 . S
C1708 C1707 1.388 . S
C1708 C1709 1.390 . S
C1709 C1708 1.390 . S
C1709 C1710 1.394 . S
C1709 C1715 1.465 . S
C1710 C1705 1.399 . S
C1710 C1709 1.394 . S
C1710 C1711 1.516 . S
C1711 C1710 1.516 . S
C1711 C1712 1.502 . S
C1711 C1713 1.561 . S
C1711 C1714 1.526 . S
C1712 H1696 0.959 . S
C1712 H1697 0.959 . S
C1712 H1698 0.961 . S
C1712 C1711 1.502 . S
C1713 H1699 0.960 . S
C1713 H1700 0.961 . S
C1713 H1701 0.959 . S
C1713 C1711 1.561 . S
C1714 C1711 1.526 . S
C1714 C1715 1.396 . S
C1714 C1719 1.390 . S
C1715 C1709 1.465 . S
C1715 C1714 1.396 . S
C1715 C1716 1.399 . S
C1716 H1702 0.929 . S
C1716 C1715 1.399 . S
C1716 C1717 1.385 . S
C1717 H1703 0.931 . S
C1717 C1716 1.385 . S
C1717 C1718 1.389 . S
C1718 C1717 1.389 . S
C1718 C1719 1.387 . S
C1719 H1704 0.930 . S
C1719 C1714 1.390 . S
C1719 C1718 1.387 . S
H1720 C1732 0.930 . S
H1721 C1734 0.930 . S
H1722 C1735 0.930 . S
H1723 C1739 0.959 . S
H1724 C1739 0.959 . S
H1725 C1739 0.961 . S
H1726 C1740 0.960 . S
H1727 C1740 0.961 . S
H1728 C1740 0.959 . S
H1729 C1743 0.929 . S
H1730 C1744 0.931 . S
H1731 C1746 0.930 . S
C1732 H1720 0.930 . S
C1732 C1733 1.399 . S
C1732 C1737 1.399 . S
C1733 C1732 1.399 . S
C1733 C1734 1.376 . S
C1734 H1721 0.930 . S
C1734 C1733 1.376 . S
C1734 C1735 1.388 . S
C1735 H1722 0.930 . S
C1735 C1734 1.388 . S
C1735 C1736 1.390 . S
C1736 C1735 1.390 . S
C1736 C1737 1.394 . S
C1736 C1742 1.465 . S
C1737 C1732 1.399 . S
C1737 C1736 1.394 . S
C1737 C1738 1.516 . S
C1738 C1737 1.516 . S
C1738 C1739 1.502 . S
C1738 C1740 1.561 . S
C1738 C1741 1.526 . S
C1739 H1723 0.959 . S
C1739 H1724 0.959 . S
C1739 H1725 0.961 . S
C1739 C1738 1.502 . S
C1740 H1726 0.960 . S
C1740 H1727 0.961 . S
C1740 H1728 0.959 . S
C1740 C1738 1.561 . S
C1741 C1738 1.526 . S
C1741 C1742 1.396 . S
C1741 C1746 1.390 . S
C1742 C1736 1.465 . S
C1742 C1741 1.396 . S
C1742 C1743 1.399 . S
C1743 H1729 0.929 . S
C1743 C1742 1.399 . S
C1743 C1744 1.385 . S
C1744 H1730 0.931 . S
C1744 C1743 1.385 . S
C1744 C1745 1.389 . S
C1745 C1744 1.389 . S
C1745 C1746 1.387 . S
C1746 H1731 0.930 . S
C1746 C1741 1.390 . S
C1746 C1745 1.387 . S
H1747 C1759 0.930 . S
H1748 C1761 0.930 . S
H1749 C1762 0.930 . S
H1750 C1766 0.959 . S
H1751 C1766 0.959 . S
H1752 C1766 0.961 . S
H1753 C1767 0.960 1_554 S
H1754 C1767 0.961 1_554 S
H1755 C1767 0.959 . S
H1756 C1770 0.929 . S
H1757 C1771 0.931 . S
H1758 C1773 0.930 . S
C1759 H1747 0.930 . S
C1759 C1760 1.399 . S
C1759 C1764 1.399 . S
C1760 C1759 1.399 . S
C1760 C1761 1.376 . S
C1761 H1748 0.930 . S
C1761 C1760 1.376 . S
C1761 C1762 1.388 . S
C1762 H1749 0.930 . S
C1762 C1761 1.388 . S
C1762 C1763 1.390 . S
C1763 C1762 1.390 . S
C1763 C1764 1.394 . S
C1763 C1769 1.465 . S
C1764 C1759 1.399 . S
C1764 C1763 1.394 . S
C1764 C1765 1.516 . S
C1765 C1764 1.516 . S
C1765 C1766 1.502 . S
C1765 C1767 1.561 . S
C1765 C1768 1.526 . S
C1766 H1750 0.959 . S
C1766 H1751 0.959 . S
C1766 H1752 0.961 . S
C1766 C1765 1.502 . S
C1767 H1753 0.960 1_556 S
C1767 H1754 0.961 1_556 S
C1767 H1755 0.959 . S
C1767 C1765 1.561 . S
C1768 C1765 1.526 . S
C1768 C1769 1.396 . S
C1768 C1773 1.390 . S
C1769 C1763 1.465 . S
C1769 C1768 1.396 . S
C1769 C1770 1.399 . S
C1770 H1756 0.929 . S
C1770 C1769 1.399 . S
C1770 C1771 1.385 . S
C1771 H1757 0.931 . S
C1771 C1770 1.385 . S
C1771 C1772 1.389 . S
C1772 C1771 1.389 . S
C1772 C1773 1.387 . S
C1773 H1758 0.930 . S
C1773 C1768 1.390 . S
C1773 C1772 1.387 . S
H1774 C1786 0.930 . S
H1775 C1788 0.930 . S
H1776 C1789 0.930 . S
H1777 C1793 0.959 . S
H1778 C1793 0.959 . S
H1779 C1793 0.961 . S
H1780 C1794 0.960 . S
H1781 C1794 0.961 . S
H1782 C1794 0.959 . S
H1783 C1797 0.929 . S
H1784 C1798 0.931 . S
H1785 C1800 0.930 . S
C1786 H1774 0.930 . S
C1786 C1787 1.399 1_554 S
C1786 C1791 1.399 1_554 S
C1787 C1786 1.399 1_556 S
C1787 C1788 1.376 . S
C1788 H1775 0.930 . S
C1788 C1787 1.376 . S
C1788 C1789 1.388 . S
C1789 H1776 0.930 . S
C1789 C1788 1.388 . S
C1789 C1790 1.390 . S
C1790 C1789 1.390 . S
C1790 C1791 1.394 . S
C1790 C1796 1.465 . S
C1791 C1786 1.399 1_556 S
C1791 C1790 1.394 . S
C1791 C1792 1.516 1_556 S
C1792 C1791 1.516 1_554 S
C1792 C1793 1.502 . S
C1792 C1794 1.561 . S
C1792 C1795 1.526 1_554 S
C1793 H1777 0.959 . S
C1793 H1778 0.959 . S
C1793 H1779 0.961 . S
C1793 C1792 1.502 . S
C1794 H1780 0.960 . S
C1794 H1781 0.961 . S
C1794 H1782 0.959 . S
C1794 C1792 1.561 . S
C1795 C1792 1.526 1_556 S
C1795 C1796 1.396 . S
C1795 C1800 1.390 . S
C1796 C1790 1.465 . S
C1796 C1795 1.396 . S
C1796 C1797 1.399 . S
C1797 H1783 0.929 . S
C1797 C1796 1.399 . S
C1797 C1798 1.385 . S
C1798 H1784 0.931 . S
C1798 C1797 1.385 . S
C1798 C1799 1.389 . S
C1799 C1798 1.389 . S
C1799 C1800 1.387 . S
C1800 H1785 0.930 . S
C1800 C1795 1.390 . S
C1800 C1799 1.387 . S
H1801 C1813 0.930 . S
H1802 C1815 0.930 . S
H1803 C1816 0.930 . S
H1804 C1820 0.959 . S
H1805 C1820 0.959 . S
H1806 C1820 0.961 . S
H1807 C1821 0.960 . S
H1808 C1821 0.961 . S
H1809 C1821 0.959 . S
H1810 C1824 0.929 . S
H1811 C1825 0.931 . S
H1812 C1827 0.930 . S
C1813 H1801 0.930 . S
C1813 C1814 1.399 . S
C1813 C1818 1.399 . S
C1814 C1813 1.399 . S
C1814 C1815 1.376 . S
C1815 H1802 0.930 . S
C1815 C1814 1.376 . S
C1815 C1816 1.388 . S
C1816 H1803 0.930 . S
C1816 C1815 1.388 . S
C1816 C1817 1.390 . S
C1817 C1816 1.390 . S
C1817 C1818 1.394 . S
C1817 C1823 1.465 . S
C1818 C1813 1.399 . S
C1818 C1817 1.394 . S
C1818 C1819 1.516 . S
C1819 C1818 1.516 . S
C1819 C1820 1.502 . S
C1819 C1821 1.561 . S
C1819 C1822 1.526 . S
C1820 H1804 0.959 . S
C1820 H1805 0.959 . S
C1820 H1806 0.961 . S
C1820 C1819 1.502 . S
C1821 H1807 0.960 . S
C1821 H1808 0.961 . S
C1821 H1809 0.959 . S
C1821 C1819 1.561 . S
C1822 C1819 1.526 . S
C1822 C1823 1.396 . S
C1822 C1827 1.390 . S
C1823 C1817 1.465 . S
C1823 C1822 1.396 . S
C1823 C1824 1.399 . S
C1824 H1810 0.929 . S
C1824 C1823 1.399 . S
C1824 C1825 1.385 . S
C1825 H1811 0.931 . S
C1825 C1824 1.385 . S
C1825 C1826 1.389 . S
C1826 C1825 1.389 . S
C1826 C1827 1.387 . S
C1827 H1812 0.930 . S
C1827 C1822 1.390 . S
C1827 C1826 1.387 . S
H1828 C1840 0.930 . S
H1829 C1842 0.930 . S
H1830 C1843 0.930 . S
H1831 C1847 0.959 . S
H1832 C1847 0.959 . S
H1833 C1847 0.961 . S
H1834 C1848 0.960 . S
H1835 C1848 0.961 . S
H1836 C1848 0.959 . S
H1837 C1851 0.929 . S
H1838 C1852 0.931 . S
H1839 C1854 0.930 . S
C1840 H1828 0.930 . S
C1840 C1841 1.399 . S
C1840 C1845 1.399 . S
C1841 C1840 1.399 . S
C1841 C1842 1.376 . S
C1842 H1829 0.930 . S
C1842 C1841 1.376 . S
C1842 C1843 1.388 . S
C1843 H1830 0.930 . S
C1843 C1842 1.388 . S
C1843 C1844 1.390 . S
C1844 C1843 1.390 . S
C1844 C1845 1.394 . S
C1844 C1850 1.465 . S
C1845 C1840 1.399 . S
C1845 C1844 1.394 . S
C1845 C1846 1.516 . S
C1846 C1845 1.516 . S
C1846 C1847 1.502 . S
C1846 C1848 1.561 . S
C1846 C1849 1.526 . S
C1847 H1831 0.959 . S
C1847 H1832 0.959 . S
C1847 H1833 0.961 . S
C1847 C1846 1.502 . S
C1848 H1834 0.960 . S
C1848 H1835 0.961 . S
C1848 H1836 0.959 . S
C1848 C1846 1.561 . S
C1849 C1846 1.526 . S
C1849 C1850 1.396 . S
C1849 C1854 1.390 . S
C1850 C1844 1.465 . S
C1850 C1849 1.396 . S
C1850 C1851 1.399 . S
C1851 H1837 0.929 . S
C1851 C1850 1.399 . S
C1851 C1852 1.385 . S
C1852 H1838 0.931 . S
C1852 C1851 1.385 . S
C1852 C1853 1.389 . S
C1853 C1852 1.389 . S
C1853 C1854 1.387 . S
C1854 H1839 0.930 . S
C1854 C1849 1.390 . S
C1854 C1853 1.387 . S
H1855 C1867 0.930 . S
H1856 C1869 0.930 . S
H1857 C1870 0.930 . S
H1858 C1874 0.959 . S
H1859 C1874 0.959 . S
H1860 C1874 0.961 . S
H1861 C1875 0.960 . S
H1862 C1875 0.961 . S
H1863 C1875 0.959 . S
H1864 C1878 0.929 1_554 S
H1865 C1879 0.931 1_554 S
H1866 C1881 0.930 . S
C1867 H1855 0.930 . S
C1867 C1868 1.399 . S
C1867 C1872 1.399 . S
C1868 C1867 1.399 . S
C1868 C1869 1.376 . S
C1869 H1856 0.930 . S
C1869 C1868 1.376 . S
C1869 C1870 1.388 . S
C1870 H1857 0.930 . S
C1870 C1869 1.388 . S
C1870 C1871 1.390 . S
C1871 C1870 1.390 . S
C1871 C1872 1.394 . S
C1871 C1877 1.465 . S
C1872 C1867 1.399 . S
C1872 C1871 1.394 . S
C1872 C1873 1.516 . S
C1873 C1872 1.516 . S
C1873 C1874 1.502 . S
C1873 C1875 1.561 . S
C1873 C1876 1.526 . S
C1874 H1858 0.959 . S
C1874 H1859 0.959 . S
C1874 H1860 0.961 . S
C1874 C1873 1.502 . S
C1875 H1861 0.960 . S
C1875 H1862 0.961 . S
C1875 H1863 0.959 . S
C1875 C1873 1.561 . S
C1876 C1873 1.526 . S
C1876 C1877 1.396 . S
C1876 C1881 1.390 . S
C1877 C1871 1.465 . S
C1877 C1876 1.396 . S
C1877 C1878 1.399 . S
C1878 H1864 0.929 1_556 S
C1878 C1877 1.399 . S
C1878 C1879 1.385 . S
C1879 H1865 0.931 1_556 S
C1879 C1878 1.385 . S
C1879 C1880 1.389 . S
C1880 C1879 1.389 . S
C1880 C1881 1.387 . S
C1881 H1866 0.930 . S
C1881 C1876 1.390 . S
C1881 C1880 1.387 . S
H1882 C1894 0.930 . S
H1883 C1896 0.930 . S
H1884 C1897 0.930 . S
H1885 C1901 0.959 . S
H1886 C1901 0.959 . S
H1887 C1901 0.961 . S
H1888 C1902 0.960 . S
H1889 C1902 0.961 . S
H1890 C1902 0.959 . S
H1891 C1905 0.929 . S
H1892 C1906 0.931 . S
H1893 C1908 0.930 . S
C1894 H1882 0.930 . S
C1894 C1895 1.399 . S
C1894 C1899 1.399 . S
C1895 C1894 1.399 . S
C1895 C1896 1.376 . S
C1896 H1883 0.930 . S
C1896 C1895 1.376 . S
C1896 C1897 1.388 . S
C1897 H1884 0.930 . S
C1897 C1896 1.388 . S
C1897 C1898 1.390 . S
C1898 C1897 1.390 . S
C1898 C1899 1.394 . S
C1898 C1904 1.465 . S
C1899 C1894 1.399 . S
C1899 C1898 1.394 . S
C1899 C1900 1.516 . S
C1900 C1899 1.516 . S
C1900 C1901 1.502 . S
C1900 C1902 1.561 . S
C1900 C1903 1.526 . S
C1901 H1885 0.959 . S
C1901 H1886 0.959 . S
C1901 H1887 0.961 . S
C1901 C1900 1.502 . S
C1902 H1888 0.960 . S
C1902 H1889 0.961 . S
C1902 H1890 0.959 . S
C1902 C1900 1.561 . S
C1903 C1900 1.526 . S
C1903 C1904 1.396 . S
C1903 C1908 1.390 . S
C1904 C1898 1.465 . S
C1904 C1903 1.396 . S
C1904 C1905 1.399 . S
C1905 H1891 0.929 . S
C1905 C1904 1.399 . S
C1905 C1906 1.385 . S
C1906 H1892 0.931 . S
C1906 C1905 1.385 . S
C1906 C1907 1.389 . S
C1907 C1906 1.389 . S
C1907 C1908 1.387 . S
C1908 H1893 0.930 . S
C1908 C1903 1.390 . S
C1908 C1907 1.387 . S
H1909 C1921 0.930 . S
H1910 C1923 0.930 . S
H1911 C1924 0.930 . S
H1912 C1928 0.967 . S
H1913 C1928 0.956 1_556 S
H1914 C1928 0.946 1_556 S
H1915 C1929 0.946 1_556 S
H1916 C1929 0.961 . S
H1917 C1929 0.959 . S
H1918 C1932 0.929 . S
H1919 C1933 0.931 . S
H1920 C1935 0.930 . S
C1921 H1909 0.930 . S
C1921 C1922 1.399 . S
C1921 C1926 1.399 . S
C1922 C1921 1.399 . S
C1922 C1923 1.376 . S
C1923 H1910 0.930 . S
C1923 C1922 1.376 . S
C1923 C1924 1.388 . S
C1924 H1911 0.930 . S
C1924 C1923 1.388 . S
C1924 C1925 1.390 . S
C1925 C1924 1.390 . S
C1925 C1926 1.394 . S
C1925 C1931 1.465 . S
C1926 C1921 1.399 . S
C1926 C1925 1.394 . S
C1926 C1927 1.516 . S
C1927 C1926 1.516 . S
C1927 C1928 1.512 . S
C1927 C1929 1.561 . S
C1927 C1930 1.526 . S
C1928 H1912 0.967 . S
C1928 H1913 0.956 1_554 S
C1928 H1914 0.946 1_554 S
C1928 C1927 1.512 . S
C1929 H1915 0.946 1_554 S
C1929 H1916 0.961 . S
C1929 H1917 0.959 . S
C1929 C1927 1.561 . S
C1930 C1927 1.526 . S
C1930 C1931 1.396 . S
C1930 C1935 1.390 . S
C1931 C1925 1.465 . S
C1931 C1930 1.396 . S
C1931 C1932 1.399 . S
C1932 H1918 0.929 . S
C1932 C1931 1.399 . S
C1932 C1933 1.385 . S
C1933 H1919 0.931 . S
C1933 C1932 1.385 . S
C1933 C1934 1.389 . S
C1934 C1933 1.389 . S
C1934 C1935 1.387 . S
C1935 H1920 0.930 . S
C1935 C1930 1.390 . S
C1935 C1934 1.387 . S
C653 C3 1.475 . S
C665 C66 1.495 . S
C680 C95 1.571 . S
C692 C62 1.530 . S
C707 C142 2.436 . S
C719 C83 2.467 . S
C734 C15 1.029 . S
C746 C146 0.859 . S
C761 C2 0.931 . S
C773 C369 0.915 . S
C788 C302 1.539 . S
C800 C49 1.450 . S
C815 C82 1.561 . S
C827 C403 1.531 . S
C842 C123 2.433 . S
C854 C542 2.462 . S
C869 C322 1.542 . S
C881 C43 1.514 . S
C896 C483 2.399 . S
C908 C102 2.458 . S
C923 C562 1.046 . S
C935 C129 0.889 . S
C950 C22 1.509 . S
C962 C449 1.401 . S
C977 C26 0.593 . S
C989 C346 0.470 . S
C1004 C495 1.743 . S
C1016 C162 1.795 . S
C1031 C209 0.545 . S
C1043 C569 0.534 . S
C1058 C442 1.783 . S
C1070 C255 1.729 . S
C1085 C89 0.594 . S
C1097 C289 0.484 . S
C1112 C362 1.778 . S
C1124 C175 1.805 . S
C1139 C242 1.730 . S
C1151 C415 1.780 . S
C1166 C202 1.565 . S
C1178 C443 1.537 . S
C1193 C363 2.398 . S
C1205 C222 2.457 . S
C1220 C466 1.433 . S
C1232 C283 1.503 . S
C1247 C215 1.571 . S
C1259 C182 1.530 . S
C1274 C382 2.425 . S
C1286 C323 2.451 . S
C1301 C535 1.569 . S
C1313 C462 1.526 . S
C1328 C262 2.435 . S
C1340 C203 2.468 . S
C1355 C386 0.855 . S
C1367 C575 1.041 . S
C1382 C529 0.621 . S
C1394 C9 0.457 . S
C1409 C106 0.654 . S
C1421 C586 0.470 . S
C1436 C482 1.759 . S
C1448 C55 1.806 . S
C1463 C306 0.487 . S
C1475 C226 0.574 . S
C1490 C135 1.781 . S
C1502 C402 1.809 . S
C1517 C502 2.414 . S
C1529 C523 2.471 . S
C1544 C295 1.044 . S
C1556 C506 0.900 . S
C1571 C249 0.874 . S
C1583 C282 1.039 . S
C1598 C163 1.522 . S
C1610 C522 1.518 . S
C1625 C489 1.034 . S
C1637 C602 0.945 . S
C1652 C609 0.638 . S
C1664 C329 0.460 . S
C1679 C42 1.791 . S
C1691 C375 1.754 . S
C1706 C342 2.449 . S
C1718 C243 2.399 . S
C1733 C335 1.573 . S
C1745 C422 1.539 . S
C1760 C615 1.036 . S
C1772 C266 0.857 . S
C1787 C546 0.443 . S
C1799 C626 0.622 . S
C1814 C455 1.816 . S
C1826 C122 1.778 . S
C1841 C426 1.490 . S
C1853 C563 1.475 . S
C1868 C409 1.498 . S
C1880 C622 1.499 . S
C1895 C169 1.490 . S
C1907 C582 1.480 . S
C1922 C603 1.532 . S
C1934 C186 1.399 . S
