# Generated by pormake.
# Topology rob, (6)-cn, num edge types: 1
# Building blocks:
#     Node 0, Type 0, BuildingBlock: BETFEN_clean_sbu_0, # of connection points: 6
#     Node 1, Type 0, BuildingBlock: BETFEN_clean_sbu_0, # of connection points: 6
#     Node 2, Type 0, BuildingBlock: BETFEN_clean_sbu_0, # of connection points: 6
#     Node 3, Type 0, BuildingBlock: BETFEN_clean_sbu_0, # of connection points: 6
#     Edge 4, Type (0, 0), BuildingBlock: FUNLAD_clean_linker_0, # of connection points: 2
#     Edge 5, Type (0, 0), BuildingBlock: FUNLAD_clean_linker_0, # of connection points: 2
#     Edge 6, Type (0, 0), BuildingBlock: FUNLAD_clean_linker_0, # of connection points: 2
#     Edge 7, Type (0, 0), BuildingBlock: FUNLAD_clean_linker_0, # of connection points: 2
#     Edge 8, Type (0, 0), BuildingBlock: FUNLAD_clean_linker_0, # of connection points: 2
#     Edge 9, Type (0, 0), BuildingBlock: FUNLAD_clean_linker_0, # of connection points: 2
#     Edge 10, Type (0, 0), BuildingBlock: FUNLAD_clean_linker_0, # of connection points: 2
#     Edge 11, Type (0, 0), BuildingBlock: FUNLAD_clean_linker_0, # of connection points: 2
#     Edge 12, Type (0, 0), BuildingBlock: FUNLAD_clean_linker_0, # of connection points: 2
#     Edge 13, Type (0, 0), BuildingBlock: FUNLAD_clean_linker_0, # of connection points: 2
#     Edge 14, Type (0, 0), BuildingBlock: FUNLAD_clean_linker_0, # of connection points: 2
#     Edge 15, Type (0, 0), BuildingBlock: FUNLAD_clean_linker_0, # of connection points: 2
# Relax obj value: 0.049
# Max RMSD: 0.157
# Mean RMSD: 0.157
data_MOF--net-rob--node1-BETFEN_clean_sbu_0--edge1-FUNLAD_clean_linker_0
_symmetry_space_group_name_H-M    P1
_symmetry_Int_Tables_number       1
_symmetry_cell_setting            triclinic
loop_
_symmetry_equiv_pos_as_xyz
'x, y, z'
_cell_length_a     16.769801
_cell_length_b     29.321734
_cell_length_c     41.866977
_cell_angle_alpha  96.008892
_cell_angle_beta   90.088522
_cell_angle_gamma 89.727313
loop_
_atom_site_label
_atom_site_type_symbol
_atom_site_fract_x
_atom_site_fract_y
_atom_site_fract_z
_atom_type_partial_charge
Pr0 Pr 0.16381 0.29289 0.02344 0.0
Pr1 Pr 0.33976 0.25787 0.99574 0.0
C2 C 0.02949 0.28964 0.0578 0.0
C3 C 0.01663 0.28966 0.09291 0.0
C4 C 0.97767 0.32664 0.11053 0.0
C5 C 0.96985 0.32805 0.14397 0.0
C6 C 0.00034 0.29232 0.16046 0.0
C7 C 0.03884 0.25523 0.14276 0.0
C8 C 0.04703 0.25393 0.10946 0.0
C9 C 0.26989 0.36655 0.02114 0.0
C10 C 0.31713 0.27254 0.07327 0.0
C11 C 0.47166 0.24251 0.95975 0.0
C12 C 0.4952 0.25186 0.92719 0.0
C13 C 0.53745 0.21838 0.90761 0.0
C14 C 0.55416 0.22472 0.87568 0.0
C15 C 0.52915 0.26481 0.86277 0.0
C16 C 0.48786 0.29869 0.88259 0.0
C17 C 0.47058 0.29216 0.91449 0.0
C18 C 0.23195 0.19103 1.00977 0.0
C19 C 0.19236 0.29159 0.94648 0.0
O20 O 0.06364 0.25304 0.04308 0.0
O21 O 0.05542 0.32786 0.04787 0.0
O22 O 0.28244 0.32447 0.01436 0.0
O23 O 0.19566 0.37261 0.02971 0.0
O24 O 0.37147 0.27121 0.05024 0.0
O25 O 0.2396 0.27427 0.06743 0.0
O26 O 0.464 0.27783 0.98149 0.0
O27 O 0.41522 0.21208 0.96096 0.0
O28 O 0.21494 0.22671 0.99665 0.0
O29 O 0.30822 0.18792 0.01503 0.0
O30 O 0.13641 0.29194 0.96885 0.0
O31 O 0.26917 0.28451 0.95231 0.0
H32 H 0.95391 0.35469 0.09847 0.0
H33 H 0.9392 0.3569 0.15688 0.0
H34 H 0.06397 0.22747 0.15474 0.0
H35 H 0.07832 0.22509 0.09683 0.0
H36 H 0.55634 0.18691 0.91688 0.0
H37 H 0.58678 0.19824 0.86108 0.0
H38 H 0.46716 0.3297 0.8732 0.0
H39 H 0.43671 0.31818 0.929 0.0
Pr40 Pr 0.63531 0.80878 0.0303 0.0
Pr41 Pr 0.80853 0.77854 0.99822 0.0
C42 C 0.50702 0.81732 0.0689 0.0
C43 C 0.49536 0.81193 0.10322 0.0
C44 C 0.44927 0.84407 0.12238 0.0
C45 C 0.44341 0.84167 0.1555 0.0
C46 C 0.48358 0.80702 0.17009 0.0
C47 C 0.52906 0.77457 0.15072 0.0
C48 C 0.53503 0.77705 0.11765 0.0
C49 C 0.73902 0.87863 0.01854 0.0
C50 C 0.79052 0.7782 0.07625 0.0
C51 C 0.94511 0.78481 0.96574 0.0
C52 C 0.96985 0.7742 0.93195 0.0
C53 C 0.95137 0.732 0.91446 0.0
C54 C 0.96867 0.72444 0.88163 0.0
C55 C 0.0037 0.75913 0.86564 0.0
C56 C 0.02317 0.80101 0.88333 0.0
C57 C 0.00664 0.80838 0.91617 0.0
C58 C 0.7042 0.70339 0.99631 0.0
C59 C 0.64989 0.80239 0.95247 0.0
O60 O 0.52256 0.77999 0.04983 0.0
O61 O 0.55073 0.85226 0.0629 0.0
O62 O 0.75907 0.84153 0.02927 0.0
O63 O 0.66214 0.88148 0.01461 0.0
O64 O 0.84197 0.77745 0.05224 0.0
O65 O 0.71304 0.78539 0.07262 0.0
O66 O 0.89451 0.81896 0.971 0.0
O67 O 0.92953 0.75021 0.98227 0.0
O68 O 0.69191 0.74438 1.00686 0.0
O69 O 0.77712 0.69921 0.98578 0.0
O70 O 0.59869 0.79893 0.97617 0.0
O71 O 0.72831 0.80177 0.9566 0.0
H72 H 0.4187 0.87144 0.11177 0.0
H73 H 0.40711 0.86684 0.16968 0.0
H74 H 0.56158 0.74783 0.16124 0.0
H75 H 0.57205 0.75222 0.10349 0.0
H76 H 0.92194 0.70523 0.92592 0.0
H77 H 0.9525 0.69195 0.86856 0.0
H78 H 0.05109 0.82816 0.87174 0.0
H79 H 0.02099 0.84126 0.92915 0.0
Pr80 Pr 0.13964 0.73752 0.49762 0.0
Pr81 Pr 0.31274 0.76948 0.52865 0.0
C82 C 0.00681 0.72728 0.46147 0.0
C83 C 0.98525 0.73202 0.4279 0.0
C84 C 0.92161 0.70661 0.4137 0.0
C85 C 0.90225 0.70926 0.38145 0.0
C86 C 0.94635 0.73738 0.36274 0.0
C87 C 0.01044 0.76274 0.37712 0.0
C88 C 0.02968 0.76009 0.40942 0.0
C89 C 0.2441 0.66859 0.51206 0.0
C90 C 0.29346 0.76472 0.45025 0.0
C91 C 0.44698 0.76346 0.56289 0.0
C92 C 0.46356 0.77232 0.59754 0.0
C93 C 0.41594 0.80317 0.61723 0.0
C94 C 0.42458 0.80688 0.65065 0.0
C95 C 0.48021 0.77931 0.66502 0.0
C96 C 0.52867 0.74902 0.64516 0.0
C97 C 0.52042 0.74561 0.61173 0.0
C98 C 0.20905 0.8448 0.52705 0.0
C99 C 0.15442 0.75121 0.57567 0.0
O100 O 0.0235 0.76512 0.47972 0.0
O101 O 0.05502 0.69328 0.46587 0.0
O102 O 0.26349 0.70462 0.49994 0.0
O103 O 0.16726 0.66632 0.51616 0.0
O104 O 0.34553 0.76802 0.47426 0.0
O105 O 0.21633 0.75727 0.45426 0.0
O106 O 0.4002 0.7284 0.55509 0.0
O107 O 0.43043 0.7991 0.54743 0.0
O108 O 0.19622 0.80336 0.51806 0.0
O109 O 0.28122 0.84917 0.53841 0.0
O110 O 0.10353 0.75148 0.55149 0.0
O111 O 0.23273 0.75165 0.57164 0.0
H112 H 0.88726 0.68437 0.42749 0.0
H113 H 0.85341 0.68869 0.37105 0.0
H114 H 0.04517 0.78504 0.36354 0.0
H115 H 0.07935 0.77984 0.41993 0.0
H116 H 0.37031 0.82335 0.60682 0.0
H117 H 0.38574 0.83009 0.66529 0.0
H118 H 0.57251 0.72764 0.65552 0.0
H119 H 0.55684 0.72111 0.59699 0.0
Pr120 Pr 0.6646 0.25013 0.49606 0.0
Pr121 Pr 0.84184 0.27766 0.52398 0.0
C122 C 0.53237 0.2424 0.45957 0.0
C123 C 0.51898 0.23993 0.42461 0.0
C124 C 0.57242 0.21597 0.40306 0.0
C125 C 0.56295 0.21664 0.36994 0.0
C126 C 0.4998 0.24128 0.35766 0.0
C127 C 0.44583 0.2648 0.37934 0.0
C128 C 0.45546 0.26416 0.4125 0.0
C129 C 0.76444 0.17898 0.50989 0.0
C130 C 0.81731 0.27193 0.44582 0.0
C131 C 0.97668 0.2666 0.55694 0.0
C132 C -0.00234 0.27427 0.59133 0.0
C133 C 0.96596 0.31161 0.61118 0.0
C134 C 0.97818 0.31521 0.64445 0.0
C135 C 0.02117 0.28117 0.65852 0.0
C136 C 0.05387 0.24428 0.63851 0.0
C137 C 0.04237 0.24096 0.60525 0.0
C138 C 0.74388 0.35574 0.52478 0.0
C139 C 0.68392 0.26728 0.57352 0.0
O140 O 0.55799 0.28182 0.47323 0.0
O141 O 0.56817 0.20715 0.47018 0.0
O142 O 0.78565 0.21371 0.49659 0.0
O143 O 0.68819 0.17937 0.51581 0.0
O144 O 0.87121 0.27579 0.46916 0.0
O145 O 0.74061 0.26478 0.4511 0.0
O146 O 0.92571 0.23341 0.54966 0.0
O147 O 0.96325 0.30289 0.54173 0.0
O148 O 0.72672 0.31476 0.5158 0.0
O149 O 0.81842 0.35809 0.53358 0.0
O150 O 0.63177 0.26779 0.54981 0.0
O151 O 0.76208 0.26517 0.56864 0.0
H152 H 0.62243 0.1973 0.41181 0.0
H153 H 0.60507 0.19777 0.35396 0.0
H154 H 0.39711 0.28459 0.37073 0.0
H155 H 0.41409 0.28326 0.42872 0.0
H156 H 0.92976 0.33727 0.60111 0.0
H157 H 0.95156 0.34374 0.65928 0.0
H158 H 0.0878 0.21774 0.64864 0.0
H159 H 0.06646 0.21159 0.59045 0.0
C160 C 0.67222 0.61968 0.99084 0.0
C161 C 0.647 0.66542 0.99742 0.0
C162 C 0.61845 0.58361 0.99253 0.0
C163 C 0.53809 0.59265 1.00093 0.0
C164 C 0.5129 0.63856 1.00672 0.0
C165 C 0.56673 0.67451 1.00505 0.0
C166 C 0.47817 0.55568 1.00323 0.0
C167 C 0.49691 0.51183 1.00737 0.0
C168 C 0.43657 0.47533 1.01053 0.0
C169 C 0.46017 0.42917 1.00455 0.0
C170 C 0.40608 0.39378 1.00787 0.0
C171 C 0.32726 0.40373 0.01741 0.0
H172 H 0.33715 0.5201 0.02642 0.0
C173 C 0.30354 0.44977 0.02375 0.0
C174 C 0.35752 0.48522 0.02046 0.0
H175 H 0.24325 0.45846 0.0315 0.0
H176 H 0.73371 0.61172 0.98449 0.0
H177 H 0.6402 0.54897 0.98679 0.0
H178 H 0.45131 0.64672 0.01279 0.0
H179 H 0.54533 0.70942 1.00945 0.0
H180 H 0.41597 0.56568 1.00202 0.0
H181 H 0.55903 0.50165 1.00843 0.0
H182 H 0.52073 0.42038 0.99721 0.0
H183 H 0.4261 0.35868 1.00318 0.0
C184 C 0.37977 0.63242 0.50657 0.0
C185 C 0.30011 0.63068 0.51666 0.0
C186 C 0.43147 0.59534 0.50918 0.0
C187 C 0.40465 0.55572 0.52225 0.0
C188 C 0.32505 0.55442 0.53259 0.0
C189 C 0.27342 0.59145 0.5299 0.0
C190 C 0.45592 0.51426 0.52411 0.0
C191 C 0.53626 0.51421 0.52203 0.0
C192 C 0.58715 0.47249 0.52325 0.0
C193 C 0.66854 0.47823 0.53056 0.0
C194 C 0.71913 0.44027 0.5312 0.0
C195 C 0.68969 0.3956 0.52425 0.0
H196 H 0.49606 0.42136 0.50963 0.0
C197 C 0.60849 0.3896 0.51691 0.0
C198 C 0.55771 0.42757 0.51623 0.0
H199 H 0.58415 0.35556 0.5117 0.0
H200 H 0.4018 0.66209 0.49598 0.0
H201 H 0.49141 0.59764 0.50007 0.0
H202 H 0.30237 0.52443 0.54259 0.0
H203 H 0.21227 0.58908 0.53783 0.0
H204 H 0.42563 0.48283 0.52832 0.0
H205 H 0.56719 0.54631 0.52051 0.0
H206 H 0.69321 0.51227 0.53585 0.0
H207 H 0.78153 0.44597 0.53697 0.0
C208 C 0.09676 0.15551 1.00219 0.0
C209 C 0.17479 0.15406 0.01425 0.0
C210 C 0.04417 0.11924 1.00505 0.0
C211 C 0.06893 0.08051 0.01986 0.0
C212 C 0.14642 0.07983 0.0326 0.0
C213 C 0.1989 0.11606 0.02971 0.0
C214 C 0.016 0.04054 0.02304 0.0
C215 C 0.9516 0.03022 1.00436 0.0
C216 C 0.89915 0.9902 1.00779 0.0
C217 C 0.81946 0.99208 0.99765 0.0
C218 C 0.7677 0.95561 1.00087 0.0
C219 C 0.79486 0.91618 0.01393 0.0
H220 H -0.01152 0.94659 0.02721 0.0
C221 C 0.8751 0.91354 0.02323 0.0
C222 C 0.92685 0.95014 0.02018 0.0
H223 H 0.89779 0.88332 0.03311 0.0
H224 H 0.07652 0.18449 0.99023 0.0
H225 H 0.9843 0.12209 0.99585 0.0
H226 H 0.16697 0.05079 0.04443 0.0
H227 H 0.25865 0.11411 0.03936 0.0
H228 H 0.03199 1.01844 0.04132 0.0
H229 H 0.93488 0.05223 0.98616 0.0
H230 H 0.79673 1.02221 0.98767 0.0
H231 H 0.70624 0.95846 0.9933 0.0
C232 C 0.88855 0.13248 0.49822 0.0
C233 C 0.81852 0.14107 0.51627 0.0
C234 C 0.93763 0.09512 0.50327 0.0
C235 C 0.91847 0.0664 0.52701 0.0
C236 C 0.84988 0.07597 0.54572 0.0
C237 C 0.79958 0.1125 0.54004 0.0
C238 C 0.9703 0.02709 0.5332 0.0
C239 C 0.00179 0.99834 0.50927 0.0
C240 C 0.05262 0.95843 0.5152 0.0
C241 C 0.04684 0.91755 0.49461 0.0
C242 C 0.09604 0.88 0.49905 0.0
C243 C 0.15352 0.88318 0.52357 0.0
H244 H 0.11647 0.99269 0.5559 0.0
C245 C 0.16002 0.92417 0.54396 0.0
C246 C 0.10946 0.96132 0.54006 0.0
H247 H 0.20429 0.92752 0.56292 0.0
H248 H 0.90454 0.15411 0.4798 0.0
H249 H -0.00894 0.08904 0.48892 0.0
H250 H 0.83435 0.05458 0.56435 0.0
H251 H 0.74619 0.11862 0.55442 0.0
H252 H 0.97844 1.01998 0.55796 0.0
H253 H 0.98651 1.00277 0.48453 0.0
H254 H 0.00407 0.91465 0.47509 0.0
H255 H 0.09089 0.84904 0.48267 0.0
C256 C 0.41436 0.23972 0.30827 0.0
C257 C 0.49042 0.24272 0.32242 0.0
C258 C 0.40501 0.24179 0.2753 0.0
C259 C 0.47157 0.24735 0.25562 0.0
C260 C 0.54779 0.24917 0.26957 0.0
C261 C 0.55717 0.24714 0.30264 0.0
C262 C 0.46304 0.25016 0.22045 0.0
C263 C 0.3973 0.26786 0.20779 0.0
C264 C 0.38152 0.26916 0.17287 0.0
C265 C 0.30322 0.27864 0.16372 0.0
C266 C 0.2833 0.27981 0.13155 0.0
C267 C 0.34129 0.27182 0.10734 0.0
H268 H 0.50176 0.25504 0.15473 0.0
C269 C 0.42029 0.26306 0.1163 0.0
C270 C 0.44034 0.26164 0.14879 0.0
H271 H 0.46643 0.25698 0.09826 0.0
H272 H 0.36192 0.23509 0.32264 0.0
H273 H 0.34554 0.23824 0.26532 0.0
H274 H 0.60014 0.25296 0.25496 0.0
H275 H 0.61662 0.24982 0.31277 0.0
H276 H 0.51228 0.23777 0.20512 0.0
H277 H 0.35042 0.28153 0.22398 0.0
H278 H 0.25659 0.28479 0.18158 0.0
H279 H 0.22186 0.28711 0.1258 0.0
C280 C 0.46693 0.76224 0.21759 0.0
C281 C 0.47768 0.8046 0.20532 0.0
C282 C 0.45807 0.76007 0.25059 0.0
C283 C 0.4596 0.8003 0.27211 0.0
C284 C 0.47356 0.8424 0.26 0.0
C285 C 0.48191 0.84462 0.22694 0.0
C286 C 0.44497 0.79942 0.3071 0.0
C287 C 0.39451 0.76925 0.31829 0.0
C288 C 0.37112 0.76992 0.35255 0.0
C289 C 0.29595 0.75275 0.35942 0.0
C290 C 0.27105 0.75175 0.39106 0.0
C291 C 0.32126 0.76725 0.41685 0.0
H292 H 0.48087 0.79824 0.37373 0.0
C293 C 0.39714 0.78409 0.41011 0.0
C294 C 0.42179 0.78564 0.3782 0.0
H295 H 0.43734 0.7961 0.42942 0.0
H296 H 0.46355 0.73077 0.20162 0.0
H297 H 0.44987 0.72682 0.25914 0.0
H298 H 0.47595 0.87383 0.27608 0.0
H299 H 0.49171 0.87768 0.2183 0.0
H300 H 0.47029 0.82669 0.32353 0.0
H301 H 0.36337 0.74507 0.30125 0.0
H302 H 0.25588 0.74018 0.34017 0.0
H303 H 0.21251 0.73809 0.39519 0.0
C304 C 0.54613 0.79038 0.90884 0.0
C305 C 0.62024 0.80799 0.91977 0.0
C306 C 0.52225 0.79316 0.87694 0.0
C307 C 0.57169 0.81426 0.85567 0.0
C308 C 0.64407 0.83336 0.8671 0.0
C309 C 0.66853 0.82981 0.89861 0.0
C310 C 0.55047 0.81708 0.82144 0.0
C311 C 0.51024 0.78395 0.80349 0.0
C312 C 0.49966 0.78391 0.76816 0.0
C313 C 0.49615 0.74178 0.74892 0.0
C314 C 0.49011 0.74034 0.71551 0.0
C315 C 0.48604 0.78106 0.70058 0.0
H316 H 0.49422 0.85785 0.76742 0.0
C317 C 0.48695 0.82328 0.71989 0.0
C318 C 0.49388 0.82474 0.75331 0.0
H319 H 0.48359 0.85524 0.7091 0.0
H320 H 0.50766 0.77346 0.92464 0.0
H321 H 0.46518 0.77898 0.86904 0.0
H322 H 0.68296 0.85013 0.85134 0.0
H323 H 0.72564 0.84416 0.90637 0.0
H324 H 0.57636 0.84501 0.80988 0.0
H325 H 0.49135 0.7537 0.81433 0.0
H326 H 0.49968 0.70983 0.75972 0.0
H327 H 0.48801 0.70726 0.70134 0.0
C328 C 0.70828 0.27596 0.63289 0.0
C329 C 0.65475 0.2682 0.607 0.0
C330 C 0.68194 0.27556 0.6645 0.0
C331 C 0.60132 0.26728 0.67101 0.0
C332 C 0.54787 0.25941 0.64518 0.0
C333 C 0.57406 0.26029 0.61351 0.0
C334 C 0.57254 0.2639 0.70426 0.0
C335 C 0.6063 0.28689 0.73037 0.0
C336 C 0.58148 0.28136 0.76382 0.0
C337 C 0.59456 0.31745 0.78804 0.0
C338 C 0.5761 0.31247 0.82006 0.0
C339 C 0.54558 0.27091 0.82863 0.0
H340 H 0.54094 0.21091 0.75453 0.0
C341 C 0.53236 0.23478 0.80441 0.0
C342 C 0.54996 0.23991 0.77235 0.0
H343 H 0.50849 0.20242 0.81028 0.0
H344 H 0.77093 0.28207 0.6288 0.0
H345 H 0.72543 0.28046 0.68366 0.0
H346 H 0.48561 0.2525 0.64951 0.0
H347 H 0.53133 0.25392 0.59415 0.0
H348 H 0.52069 0.24263 0.70712 0.0
H349 H 0.65288 0.31166 0.72725 0.0
H350 H 0.61953 0.34955 0.78219 0.0
H351 H 0.5876 0.34076 0.83824 0.0
C352 C 0.7678 0.77943 0.13541 0.0
C353 C 0.81984 0.77216 0.10903 0.0
C354 C 0.79435 0.7746 0.16648 0.0
C355 C 0.87378 0.76187 0.17208 0.0
C356 C 0.92619 0.75518 0.14581 0.0
C357 C 0.89954 0.7601 0.1146 0.0
C358 C 0.90434 0.75733 0.20508 0.0
C359 C 0.85672 0.7476 0.22943 0.0
C360 C 0.88312 0.74518 0.26327 0.0
C361 C 0.82411 0.74388 0.28694 0.0
C362 C 0.84463 0.74162 0.31906 0.0
C363 C 0.925 0.74034 0.32847 0.0
H364 H 0.01155 0.7438 0.25532 0.0
C365 C 0.98437 0.74152 0.30487 0.0
C366 C 0.96382 0.74382 0.27262 0.0
H367 H 0.04688 0.73985 0.31121 0.0
H368 H 0.70648 0.78969 0.13224 0.0
H369 H 0.75257 0.78203 0.18601 0.0
H370 H -0.01207 0.74591 0.14942 0.0
H371 H 0.94141 0.75448 0.09489 0.0
H372 H 0.96779 0.76212 0.20897 0.0
H373 H 0.79383 0.74149 0.22464 0.0
H374 H 0.76148 0.74494 0.28061 0.0
H375 H 0.7973 0.74141 0.33662 0.0
C376 C 0.92004 0.28499 0.4033 0.0
C377 C 0.84185 0.27387 0.41182 0.0
C378 C 0.94118 0.28549 0.37082 0.0
C379 C 0.88452 0.27444 0.34635 0.0
C380 C 0.80687 0.26343 0.355 0.0
C381 C 0.78564 0.26358 0.38715 0.0
C382 C 0.90381 0.27164 0.31151 0.0
C383 C 0.96009 0.29684 0.2987 0.0
C384 C 0.97253 0.29479 0.2633 0.0
C385 C -0.00318 0.33426 0.2497 0.0
C386 C 0.00553 0.33366 0.21636 0.0
C387 C -0.00851 0.29327 0.19594 0.0
H388 H 0.94351 0.22267 0.25251 0.0
C389 C 0.96935 0.25345 0.20967 0.0
C390 C 0.96004 0.25415 0.2429 0.0
H391 H 0.95806 0.22176 0.19465 0.0
H392 H 0.96491 0.29303 0.42163 0.0
H393 H 0.00208 0.29334 0.36496 0.0
H394 H 0.76204 0.25466 0.33674 0.0
H395 H 0.72486 0.255 0.39253 0.0
H396 H 0.86547 0.24998 0.29547 0.0
H397 H -0.0065 0.32201 0.31415 0.0
H398 H 0.00766 0.3659 0.26485 0.0
H399 H 0.02394 0.36472 0.20659 0.0
C400 C 0.05175 0.32404 0.71239 0.0
C401 C 0.02972 0.28315 0.69401 0.0
C402 C 0.06117 0.32538 0.74573 0.0
C403 C 0.04809 0.28586 0.76141 0.0
C404 C 0.0238 0.24545 0.74311 0.0
C405 C 0.01543 0.24395 0.70978 0.0
C406 C 0.0588 0.28551 0.79671 0.0
C407 C 0.11309 0.31165 0.81376 0.0
C408 C 0.13033 0.30773 0.84825 0.0
C409 C 0.20811 0.31627 0.85965 0.0
C410 C 0.22774 0.31142 0.89156 0.0
C411 C 0.16956 0.29882 0.91311 0.0
H412 H 0.01043 0.29026 0.8621 0.0
C413 C 0.09089 0.29179 0.90206 0.0
C414 C 0.07149 0.29597 0.86989 0.0
H415 H 0.04466 0.28217 0.91806 0.0
H416 H 0.06284 0.35483 0.70091 0.0
H417 H 0.07791 0.35747 0.75915 0.0
H418 H 0.01251 0.21465 0.75457 0.0
H419 H -0.00297 0.21216 0.69633 0.0
H420 H 0.0259 0.26004 0.80835 0.0
H421 H 0.1516 0.33379 0.80142 0.0
H422 H 0.25444 0.32575 0.84361 0.0
H423 H 0.28878 0.31752 0.89928 0.0
C424 C 0.1777 0.74516 0.63412 0.0
C425 C 0.12408 0.7505 0.60887 0.0
C426 C 0.15069 0.74581 0.66567 0.0
C427 C 0.06918 0.75178 0.67284 0.0
C428 C 0.01554 0.75737 0.64772 0.0
C429 C 0.04254 0.75638 0.61599 0.0
C430 C 0.03968 0.75509 0.70649 0.0
C431 C 0.07606 0.73387 0.72963 0.0
C432 C 0.05194 0.73991 0.76397 0.0
C433 C 0.07166 0.70559 0.78368 0.0
C434 C 0.0547 0.71138 0.81656 0.0
C435 C 0.0189 0.75206 0.83054 0.0
H436 H 0.00083 0.80816 0.76372 0.0
C437 C -0.00113 0.78637 0.81083 0.0
C438 C 0.01509 0.7804 0.7779 0.0
H439 H 0.97075 0.81797 0.82091 0.0
H440 H 0.24106 0.7409 0.62967 0.0
H441 H 0.19431 0.74293 0.68444 0.0
H442 H 0.95256 0.76257 0.65265 0.0
H443 H -0.00029 0.76091 0.59719 0.0
H444 H 0.98571 0.77494 0.71208 0.0
H445 H 0.12513 0.71038 0.72321 0.0
H446 H 0.10086 0.67429 0.77365 0.0
H447 H 0.07145 0.68452 0.8312 0.0
loop_
_geom_bond_atom_site_label_1
_geom_bond_atom_site_label_2
_geom_bond_distance
_geom_bond_site_symmetry_2
_ccdc_geom_bond_type
Pr0 C2 2.880 . S
Pr0 O20 2.562 . S
Pr0 O21 2.490 . S
Pr0 O22 2.695 1_554 S
Pr0 O23 2.512 . S
Pr0 O25 2.437 . S
Pr0 O28 2.436 . S
Pr0 O30 2.438 1_554 S
Pr1 C11 2.880 . S
Pr1 O22 2.436 . S
Pr1 O24 2.438 1_556 S
Pr1 O26 2.562 . S
Pr1 O27 2.490 . S
Pr1 O28 2.695 1_556 S
Pr1 O29 2.512 . S
Pr1 O31 2.437 . S
C2 Pr0 2.880 . S
C2 C3 1.491 . S
C2 O20 1.254 . S
C2 O21 1.225 . S
C3 C2 1.491 . S
C3 C4 1.392 . S
C3 C8 1.356 . S
C4 C3 1.392 . S
C4 C5 1.368 . S
C4 H32 0.929 . S
C5 C4 1.368 . S
C5 C6 1.386 . S
C5 H33 0.929 . S
C6 C5 1.386 . S
C6 C7 1.373 . S
C7 C6 1.373 . S
C7 C8 1.409 . S
C7 H34 0.931 . S
C8 C3 1.356 . S
C8 C7 1.409 . S
C8 H35 0.930 . S
C9 O22 1.270 1_554 S
C9 O23 1.248 . S
C10 O24 1.267 . S
C10 O25 1.278 . S
C11 Pr1 2.880 . S
C11 C12 1.491 . S
C11 O26 1.254 . S
C11 O27 1.225 . S
C12 C11 1.491 . S
C12 C13 1.392 . S
C12 C17 1.356 . S
C13 C12 1.392 . S
C13 C14 1.368 . S
C13 H36 0.929 . S
C14 C13 1.368 . S
C14 C15 1.386 . S
C14 H37 0.929 . S
C15 C14 1.386 . S
C15 C16 1.373 . S
C16 C15 1.373 . S
C16 C17 1.409 . S
C16 H38 0.931 . S
C17 C12 1.356 . S
C17 C16 1.409 . S
C17 H39 0.930 . S
C18 O28 1.270 1_556 S
C18 O29 1.248 . S
C19 O30 1.267 . S
C19 O31 1.278 . S
O20 Pr0 2.562 . S
O20 C2 1.254 . S
O21 Pr0 2.490 . S
O21 C2 1.225 . S
O22 Pr0 2.695 1_556 S
O22 Pr1 2.436 . S
O22 C9 1.270 1_556 S
O23 Pr0 2.512 . S
O23 C9 1.248 . S
O24 Pr1 2.438 1_554 S
O24 C10 1.267 . S
O25 Pr0 2.437 . S
O25 C10 1.278 . S
O26 Pr1 2.562 . S
O26 C11 1.254 . S
O27 Pr1 2.490 . S
O27 C11 1.225 . S
O28 Pr0 2.436 . S
O28 Pr1 2.695 1_554 S
O28 C18 1.270 1_554 S
O29 Pr1 2.512 . S
O29 C18 1.248 . S
O30 Pr0 2.438 1_556 S
O30 C19 1.267 . S
O31 Pr1 2.437 . S
O31 C19 1.278 . S
H32 C4 0.929 . S
H33 C5 0.929 . S
H34 C7 0.931 . S
H35 C8 0.930 . S
H36 C13 0.929 . S
H37 C14 0.929 . S
H38 C16 0.931 . S
H39 C17 0.930 . S
Pr40 C42 2.880 . S
Pr40 O60 2.562 . S
Pr40 O61 2.490 . S
Pr40 O62 2.695 1_554 S
Pr40 O63 2.512 . S
Pr40 O65 2.437 . S
Pr40 O68 2.436 . S
Pr40 O70 2.438 1_554 S
Pr41 C51 2.880 . S
Pr41 O62 2.436 . S
Pr41 O64 2.438 1_556 S
Pr41 O66 2.562 . S
Pr41 O67 2.490 . S
Pr41 O68 2.695 1_556 S
Pr41 O69 2.512 . S
Pr41 O71 2.437 . S
C42 Pr40 2.880 . S
C42 C43 1.491 . S
C42 O60 1.254 . S
C42 O61 1.225 . S
C43 C42 1.491 . S
C43 C44 1.392 . S
C43 C48 1.356 . S
C44 C43 1.392 . S
C44 C45 1.368 . S
C44 H72 0.929 . S
C45 C44 1.368 . S
C45 C46 1.386 . S
C45 H73 0.929 . S
C46 C45 1.386 . S
C46 C47 1.373 . S
C47 C46 1.373 . S
C47 C48 1.409 . S
C47 H74 0.931 . S
C48 C43 1.356 . S
C48 C47 1.409 . S
C48 H75 0.930 . S
C49 O62 1.270 1_554 S
C49 O63 1.248 . S
C50 O64 1.267 . S
C50 O65 1.278 . S
C51 Pr41 2.880 . S
C51 C52 1.491 . S
C51 O66 1.254 . S
C51 O67 1.225 . S
C52 C51 1.491 . S
C52 C53 1.392 . S
C52 C57 1.356 . S
C53 C52 1.392 . S
C53 C54 1.368 . S
C53 H76 0.929 . S
C54 C53 1.368 . S
C54 C55 1.386 . S
C54 H77 0.929 . S
C55 C54 1.386 . S
C55 C56 1.373 . S
C56 C55 1.373 . S
C56 C57 1.409 . S
C56 H78 0.931 . S
C57 C52 1.356 . S
C57 C56 1.409 . S
C57 H79 0.930 . S
C58 O68 1.270 1_556 S
C58 O69 1.248 . S
C59 O70 1.267 . S
C59 O71 1.278 . S
O60 Pr40 2.562 . S
O60 C42 1.254 . S
O61 Pr40 2.490 . S
O61 C42 1.225 . S
O62 Pr40 2.695 1_556 S
O62 Pr41 2.436 . S
O62 C49 1.270 1_556 S
O63 Pr40 2.512 . S
O63 C49 1.248 . S
O64 Pr41 2.438 1_554 S
O64 C50 1.267 . S
O65 Pr40 2.437 . S
O65 C50 1.278 . S
O66 Pr41 2.562 . S
O66 C51 1.254 . S
O67 Pr41 2.490 . S
O67 C51 1.225 . S
O68 Pr40 2.436 . S
O68 Pr41 2.695 1_554 S
O68 C58 1.270 1_554 S
O69 Pr41 2.512 . S
O69 C58 1.248 . S
O70 Pr40 2.438 1_556 S
O70 C59 1.267 . S
O71 Pr41 2.437 . S
O71 C59 1.278 . S
H72 C44 0.929 . S
H73 C45 0.929 . S
H74 C47 0.931 . S
H75 C48 0.930 . S
H76 C53 0.929 . S
H77 C54 0.929 . S
H78 C56 0.931 . S
H79 C57 0.930 . S
Pr80 C82 2.880 . S
Pr80 O100 2.562 . S
Pr80 O101 2.490 . S
Pr80 O102 2.695 . S
Pr80 O103 2.512 . S
Pr80 O105 2.437 . S
Pr80 O108 2.436 . S
Pr80 O110 2.438 . S
Pr81 C91 2.880 . S
Pr81 O102 2.436 . S
Pr81 O104 2.438 . S
Pr81 O106 2.562 . S
Pr81 O107 2.490 . S
Pr81 O108 2.695 . S
Pr81 O109 2.512 . S
Pr81 O111 2.437 . S
C82 Pr80 2.880 . S
C82 C83 1.491 . S
C82 O100 1.254 . S
C82 O101 1.225 . S
C83 C82 1.491 . S
C83 C84 1.392 . S
C83 C88 1.356 . S
C84 C83 1.392 . S
C84 C85 1.368 . S
C84 H112 0.929 . S
C85 C84 1.368 . S
C85 C86 1.386 . S
C85 H113 0.929 . S
C86 C85 1.386 . S
C86 C87 1.373 . S
C87 C86 1.373 . S
C87 C88 1.409 . S
C87 H114 0.931 . S
C88 C83 1.356 . S
C88 C87 1.409 . S
C88 H115 0.930 . S
C89 O102 1.270 . S
C89 O103 1.248 . S
C90 O104 1.267 . S
C90 O105 1.278 . S
C91 Pr81 2.880 . S
C91 C92 1.491 . S
C91 O106 1.254 . S
C91 O107 1.225 . S
C92 C91 1.491 . S
C92 C93 1.392 . S
C92 C97 1.356 . S
C93 C92 1.392 . S
C93 C94 1.368 . S
C93 H116 0.929 . S
C94 C93 1.368 . S
C94 C95 1.386 . S
C94 H117 0.929 . S
C95 C94 1.386 . S
C95 C96 1.373 . S
C96 C95 1.373 . S
C96 C97 1.409 . S
C96 H118 0.931 . S
C97 C92 1.356 . S
C97 C96 1.409 . S
C97 H119 0.930 . S
C98 O108 1.270 . S
C98 O109 1.248 . S
C99 O110 1.267 . S
C99 O111 1.278 . S
O100 Pr80 2.562 . S
O100 C82 1.254 . S
O101 Pr80 2.490 . S
O101 C82 1.225 . S
O102 Pr80 2.695 . S
O102 Pr81 2.436 . S
O102 C89 1.270 . S
O103 Pr80 2.512 . S
O103 C89 1.248 . S
O104 Pr81 2.438 . S
O104 C90 1.267 . S
O105 Pr80 2.437 . S
O105 C90 1.278 . S
O106 Pr81 2.562 . S
O106 C91 1.254 . S
O107 Pr81 2.490 . S
O107 C91 1.225 . S
O108 Pr80 2.436 . S
O108 Pr81 2.695 . S
O108 C98 1.270 . S
O109 Pr81 2.512 . S
O109 C98 1.248 . S
O110 Pr80 2.438 . S
O110 C99 1.267 . S
O111 Pr81 2.437 . S
O111 C99 1.278 . S
H112 C84 0.929 . S
H113 C85 0.929 . S
H114 C87 0.931 . S
H115 C88 0.930 . S
H116 C93 0.929 . S
H117 C94 0.929 . S
H118 C96 0.931 . S
H119 C97 0.930 . S
Pr120 C122 2.880 . S
Pr120 O140 2.562 . S
Pr120 O141 2.490 . S
Pr120 O142 2.695 . S
Pr120 O143 2.512 . S
Pr120 O145 2.437 . S
Pr120 O148 2.436 . S
Pr120 O150 2.438 . S
Pr121 C131 2.880 . S
Pr121 O142 2.436 . S
Pr121 O144 2.438 . S
Pr121 O146 2.562 . S
Pr121 O147 2.490 . S
Pr121 O148 2.695 . S
Pr121 O149 2.512 . S
Pr121 O151 2.437 . S
C122 Pr120 2.880 . S
C122 C123 1.491 . S
C122 O140 1.254 . S
C122 O141 1.225 . S
C123 C122 1.491 . S
C123 C124 1.392 . S
C123 C128 1.356 . S
C124 C123 1.392 . S
C124 C125 1.368 . S
C124 H152 0.929 . S
C125 C124 1.368 . S
C125 C126 1.386 . S
C125 H153 0.929 . S
C126 C125 1.386 . S
C126 C127 1.373 . S
C127 C126 1.373 . S
C127 C128 1.409 . S
C127 H154 0.931 . S
C128 C123 1.356 . S
C128 C127 1.409 . S
C128 H155 0.930 . S
C129 O142 1.270 . S
C129 O143 1.248 . S
C130 O144 1.267 . S
C130 O145 1.278 . S
C131 Pr121 2.880 . S
C131 C132 1.491 . S
C131 O146 1.254 . S
C131 O147 1.225 . S
C132 C131 1.491 . S
C132 C133 1.392 . S
C132 C137 1.356 . S
C133 C132 1.392 . S
C133 C134 1.368 . S
C133 H156 0.929 . S
C134 C133 1.368 . S
C134 C135 1.386 . S
C134 H157 0.929 . S
C135 C134 1.386 . S
C135 C136 1.373 . S
C136 C135 1.373 . S
C136 C137 1.409 . S
C136 H158 0.931 . S
C137 C132 1.356 . S
C137 C136 1.409 . S
C137 H159 0.930 . S
C138 O148 1.270 . S
C138 O149 1.248 . S
C139 O150 1.267 . S
C139 O151 1.278 . S
O140 Pr120 2.562 . S
O140 C122 1.254 . S
O141 Pr120 2.490 . S
O141 C122 1.225 . S
O142 Pr120 2.695 . S
O142 Pr121 2.436 . S
O142 C129 1.270 . S
O143 Pr120 2.512 . S
O143 C129 1.248 . S
O144 Pr121 2.438 . S
O144 C130 1.267 . S
O145 Pr120 2.437 . S
O145 C130 1.278 . S
O146 Pr121 2.562 . S
O146 C131 1.254 . S
O147 Pr121 2.490 . S
O147 C131 1.225 . S
O148 Pr120 2.436 . S
O148 Pr121 2.695 . S
O148 C138 1.270 . S
O149 Pr121 2.512 . S
O149 C138 1.248 . S
O150 Pr120 2.438 . S
O150 C139 1.267 . S
O151 Pr121 2.437 . S
O151 C139 1.278 . S
H152 C124 0.929 . S
H153 C125 0.929 . S
H154 C127 0.931 . S
H155 C128 0.930 . S
H156 C133 0.929 . S
H157 C134 0.929 . S
H158 C136 0.931 . S
H159 C137 0.930 . S
C160 C161 1.386 1_556 S
C160 C162 1.383 . S
C160 H176 0.951 . S
C161 C160 1.386 1_554 S
C161 C165 1.383 . S
C162 C160 1.383 . S
C162 C163 1.402 1_556 S
C162 H177 0.951 . S
C163 C162 1.402 1_554 S
C163 C164 1.375 . S
C163 C166 1.481 . S
C164 C163 1.375 . S
C164 C165 1.367 . S
C164 H178 0.951 . S
C165 C161 1.383 . S
C165 C164 1.367 . S
C165 H179 0.950 . S
C166 C163 1.481 . S
C166 C167 1.297 1_554 S
C166 H180 0.950 . S
C167 C166 1.297 1_556 S
C167 C168 1.479 . S
C167 H181 0.950 . S
C168 C167 1.479 . S
C168 C169 1.375 . S
C168 C174 1.404 1_556 S
C169 C168 1.375 . S
C169 C170 1.369 . S
C169 H182 0.950 . S
C170 C169 1.369 . S
C170 C171 1.362 1_556 S
C170 H183 0.951 . S
C171 C170 1.362 1_554 S
C171 C173 1.411 . S
H172 C174 0.949 . S
C173 C171 1.411 . S
C173 C174 1.385 . S
C173 H175 0.950 . S
C174 C168 1.404 1_554 S
C174 H172 0.949 . S
C174 C173 1.385 . S
H175 C173 0.950 . S
H176 C160 0.951 . S
H177 C162 0.951 . S
H178 C164 0.951 . S
H179 C165 0.950 . S
H180 C166 0.950 . S
H181 C167 0.950 . S
H182 C169 0.950 . S
H183 C170 0.951 . S
C184 C185 1.386 . S
C184 C186 1.383 . S
C184 H200 0.951 . S
C185 C184 1.386 . S
C185 C189 1.383 . S
C186 C184 1.383 . S
C186 C187 1.402 . S
C186 H201 0.951 . S
C187 C186 1.402 . S
C187 C188 1.375 . S
C187 C190 1.481 . S
C188 C187 1.375 . S
C188 C189 1.367 . S
C188 H202 0.951 . S
C189 C185 1.383 . S
C189 C188 1.367 . S
C189 H203 0.950 . S
C190 C187 1.481 . S
C190 C191 1.297 . S
C190 H204 0.950 . S
C191 C190 1.297 . S
C191 C192 1.479 . S
C191 H205 0.950 . S
C192 C191 1.479 . S
C192 C193 1.375 . S
C192 C198 1.404 . S
C193 C192 1.375 . S
C193 C194 1.369 . S
C193 H206 0.950 . S
C194 C193 1.369 . S
C194 C195 1.392 . S
C194 H207 0.951 . S
C195 C194 1.392 . S
C195 C197 1.384 . S
H196 C198 0.949 . S
C197 C195 1.384 . S
C197 C198 1.385 . S
C197 H199 0.950 . S
C198 C192 1.404 . S
C198 H196 0.949 . S
C198 C197 1.385 . S
H199 C197 0.950 . S
H200 C184 0.951 . S
H201 C186 0.951 . S
H202 C188 0.951 . S
H203 C189 0.950 . S
H204 C190 0.950 . S
H205 C191 0.950 . S
H206 C193 0.950 . S
H207 C194 0.951 . S
C208 C209 1.393 . S
C208 C210 1.383 . S
C208 H224 0.951 . S
C209 C208 1.393 . S
C209 C213 1.376 1_556 S
C210 C208 1.383 . S
C210 C211 1.402 . S
C210 H225 0.951 1_455 S
C211 C210 1.402 . S
C211 C212 1.375 1_556 S
C211 C214 1.481 1_545 S
C212 C211 1.375 1_554 S
C212 C213 1.367 . S
C212 H226 0.951 . S
C213 C209 1.376 1_554 S
C213 C212 1.367 . S
C213 H227 0.950 . S
C214 C211 1.481 1_565 S
C214 C215 1.297 1_455 S
C214 H228 0.950 1_556 S
C215 C214 1.297 1_655 S
C215 C216 1.479 . S
C215 H229 0.950 1_565 S
C216 C215 1.479 . S
C216 C217 1.375 . S
C216 C222 1.404 . S
C217 C216 1.375 . S
C217 C218 1.369 . S
C217 H230 0.950 . S
C218 C217 1.369 . S
C218 C219 1.392 . S
C218 H231 0.951 . S
C219 C218 1.392 . S
C219 C221 1.384 . S
H220 C222 0.949 1_455 S
C221 C219 1.384 . S
C221 C222 1.385 . S
C221 H223 0.950 1_556 S
C222 C216 1.404 . S
C222 H220 0.949 1_655 S
C222 C221 1.385 . S
H223 C221 0.950 1_554 S
H224 C208 0.951 . S
H225 C210 0.951 1_655 S
H226 C212 0.951 . S
H227 C213 0.950 . S
H228 C214 0.950 1_554 S
H229 C215 0.950 1_545 S
H230 C217 0.950 . S
H231 C218 0.951 . S
C232 C233 1.386 . S
C232 C234 1.383 . S
C232 H248 0.951 . S
C233 C232 1.386 . S
C233 C237 1.383 . S
C234 C232 1.383 . S
C234 C235 1.402 . S
C234 H249 0.951 . S
C235 C234 1.402 . S
C235 C236 1.375 . S
C235 C238 1.481 . S
C236 C235 1.375 . S
C236 C237 1.367 . S
C236 H250 0.951 . S
C237 C233 1.383 . S
C237 C236 1.367 . S
C237 H251 0.950 . S
C238 C235 1.481 . S
C238 C239 1.287 1_645 S
C238 H252 0.950 . S
C239 C238 1.287 1_465 S
C239 C240 1.503 . S
C239 H253 0.936 1_565 S
C240 C239 1.503 . S
C240 C241 1.375 . S
C240 C246 1.404 . S
C241 C240 1.375 . S
C241 C242 1.369 . S
C241 H254 0.950 . S
C242 C241 1.369 . S
C242 C243 1.392 . S
C242 H255 0.951 . S
C243 C242 1.392 . S
C243 C245 1.384 . S
H244 C246 0.949 . S
C245 C243 1.384 . S
C245 C246 1.385 . S
C245 H247 0.950 . S
C246 C240 1.404 . S
C246 H244 0.949 . S
C246 C245 1.385 . S
H247 C245 0.950 . S
H248 C232 0.951 . S
H249 C234 0.951 . S
H250 C236 0.951 . S
H251 C237 0.950 . S
H252 C238 0.950 . S
H253 C239 0.936 1_545 S
H254 C241 0.950 . S
H255 C242 0.951 . S
C256 C257 1.386 . S
C256 C258 1.383 . S
C256 H272 0.951 . S
C257 C256 1.386 . S
C257 C261 1.383 . S
C258 C256 1.383 . S
C258 C259 1.402 . S
C258 H273 0.951 . S
C259 C258 1.402 . S
C259 C260 1.375 . S
C259 C262 1.481 . S
C260 C259 1.375 . S
C260 C261 1.367 . S
C260 H274 0.951 . S
C261 C257 1.383 . S
C261 C260 1.367 . S
C261 H275 0.950 . S
C262 C259 1.481 . S
C262 C263 1.297 . S
C262 H276 0.950 . S
C263 C262 1.297 . S
C263 C264 1.479 . S
C263 H277 0.950 . S
C264 C263 1.479 . S
C264 C265 1.375 . S
C264 C270 1.404 . S
C265 C264 1.375 . S
C265 C266 1.369 . S
C265 H278 0.950 . S
C266 C265 1.369 . S
C266 C267 1.392 . S
C266 H279 0.951 . S
C267 C266 1.392 . S
C267 C269 1.384 . S
H268 C270 0.949 . S
C269 C267 1.384 . S
C269 C270 1.385 . S
C269 H271 0.950 . S
C270 C264 1.404 . S
C270 H268 0.949 . S
C270 C269 1.385 . S
H271 C269 0.950 . S
H272 C256 0.951 . S
H273 C258 0.951 . S
H274 C260 0.951 . S
H275 C261 0.950 . S
H276 C262 0.950 . S
H277 C263 0.950 . S
H278 C265 0.950 . S
H279 C266 0.951 . S
C280 C281 1.386 . S
C280 C282 1.383 . S
C280 H296 0.951 . S
C281 C280 1.386 . S
C281 C285 1.383 . S
C282 C280 1.383 . S
C282 C283 1.402 . S
C282 H297 0.951 . S
C283 C282 1.402 . S
C283 C284 1.375 . S
C283 C286 1.481 . S
C284 C283 1.375 . S
C284 C285 1.367 . S
C284 H298 0.951 . S
C285 C281 1.383 . S
C285 C284 1.367 . S
C285 H299 0.950 . S
C286 C283 1.481 . S
C286 C287 1.297 . S
C286 H300 0.950 . S
C287 C286 1.297 . S
C287 C288 1.479 . S
C287 H301 0.950 . S
C288 C287 1.479 . S
C288 C289 1.375 . S
C288 C294 1.404 . S
C289 C288 1.375 . S
C289 C290 1.369 . S
C289 H302 0.950 . S
C290 C289 1.369 . S
C290 C291 1.392 . S
C290 H303 0.951 . S
C291 C290 1.392 . S
C291 C293 1.384 . S
H292 C294 0.949 . S
C293 C291 1.384 . S
C293 C294 1.385 . S
C293 H295 0.950 . S
C294 C288 1.404 . S
C294 H292 0.949 . S
C294 C293 1.385 . S
H295 C293 0.950 . S
H296 C280 0.951 . S
H297 C282 0.951 . S
H298 C284 0.951 . S
H299 C285 0.950 . S
H300 C286 0.950 . S
H301 C287 0.950 . S
H302 C289 0.950 . S
H303 C290 0.951 . S
C304 C305 1.386 . S
C304 C306 1.383 . S
C304 H320 0.951 . S
C305 C304 1.386 . S
C305 C309 1.383 . S
C306 C304 1.383 . S
C306 C307 1.402 . S
C306 H321 0.951 . S
C307 C306 1.402 . S
C307 C308 1.375 . S
C307 C310 1.481 . S
C308 C307 1.375 . S
C308 C309 1.367 . S
C308 H322 0.951 . S
C309 C305 1.383 . S
C309 C308 1.367 . S
C309 H323 0.950 . S
C310 C307 1.481 . S
C310 C311 1.297 . S
C310 H324 0.950 . S
C311 C310 1.297 . S
C311 C312 1.479 . S
C311 H325 0.950 . S
C312 C311 1.479 . S
C312 C313 1.375 . S
C312 C318 1.404 . S
C313 C312 1.375 . S
C313 C314 1.369 . S
C313 H326 0.950 . S
C314 C313 1.369 . S
C314 C315 1.392 . S
C314 H327 0.951 . S
C315 C314 1.392 . S
C315 C317 1.384 . S
H316 C318 0.949 . S
C317 C315 1.384 . S
C317 C318 1.385 . S
C317 H319 0.950 . S
C318 C312 1.404 . S
C318 H316 0.949 . S
C318 C317 1.385 . S
H319 C317 0.950 . S
H320 C304 0.951 . S
H321 C306 0.951 . S
H322 C308 0.951 . S
H323 C309 0.950 . S
H324 C310 0.950 . S
H325 C311 0.950 . S
H326 C313 0.950 . S
H327 C314 0.951 . S
C328 C329 1.386 . S
C328 C330 1.383 . S
C328 H344 0.951 . S
C329 C328 1.386 . S
C329 C333 1.383 . S
C330 C328 1.383 . S
C330 C331 1.402 . S
C330 H345 0.951 . S
C331 C330 1.402 . S
C331 C332 1.375 . S
C331 C334 1.481 . S
C332 C331 1.375 . S
C332 C333 1.367 . S
C332 H346 0.951 . S
C333 C329 1.383 . S
C333 C332 1.367 . S
C333 H347 0.950 . S
C334 C331 1.481 . S
C334 C335 1.297 . S
C334 H348 0.950 . S
C335 C334 1.297 . S
C335 C336 1.479 . S
C335 H349 0.950 . S
C336 C335 1.479 . S
C336 C337 1.375 . S
C336 C342 1.404 . S
C337 C336 1.375 . S
C337 C338 1.369 . S
C337 H350 0.950 . S
C338 C337 1.369 . S
C338 C339 1.392 . S
C338 H351 0.951 . S
C339 C338 1.392 . S
C339 C341 1.384 . S
H340 C342 0.949 . S
C341 C339 1.384 . S
C341 C342 1.385 . S
C341 H343 0.950 . S
C342 C336 1.404 . S
C342 H340 0.949 . S
C342 C341 1.385 . S
H343 C341 0.950 . S
H344 C328 0.951 . S
H345 C330 0.951 . S
H346 C332 0.951 . S
H347 C333 0.950 . S
H348 C334 0.950 . S
H349 C335 0.950 . S
H350 C337 0.950 . S
H351 C338 0.951 . S
C352 C353 1.386 . S
C352 C354 1.383 . S
C352 H368 0.951 . S
C353 C352 1.386 . S
C353 C357 1.383 . S
C354 C352 1.383 . S
C354 C355 1.402 . S
C354 H369 0.951 . S
C355 C354 1.402 . S
C355 C356 1.375 . S
C355 C358 1.481 . S
C356 C355 1.375 . S
C356 C357 1.367 . S
C356 H370 0.951 1_655 S
C357 C353 1.383 . S
C357 C356 1.367 . S
C357 H371 0.950 . S
C358 C355 1.481 . S
C358 C359 1.297 . S
C358 H372 0.950 1_655 S
C359 C358 1.297 . S
C359 C360 1.479 . S
C359 H373 0.950 . S
C360 C359 1.479 . S
C360 C361 1.375 . S
C360 C366 1.404 1_655 S
C361 C360 1.375 . S
C361 C362 1.369 . S
C361 H374 0.950 . S
C362 C361 1.369 . S
C362 C363 1.392 . S
C362 H375 0.951 . S
C363 C362 1.392 . S
C363 C365 1.384 1_655 S
H364 C366 0.949 . S
C365 C363 1.384 1_455 S
C365 C366 1.385 . S
C365 H367 0.950 . S
C366 C360 1.404 1_455 S
C366 H364 0.949 . S
C366 C365 1.385 . S
H367 C365 0.950 . S
H368 C352 0.951 . S
H369 C354 0.951 . S
H370 C356 0.951 1_455 S
H371 C357 0.950 . S
H372 C358 0.950 1_455 S
H373 C359 0.950 . S
H374 C361 0.950 . S
H375 C362 0.951 . S
C376 C377 1.386 . S
C376 C378 1.383 . S
C376 H392 0.951 . S
C377 C376 1.386 . S
C377 C381 1.383 . S
C378 C376 1.383 . S
C378 C379 1.402 . S
C378 H393 0.951 . S
C379 C378 1.402 . S
C379 C380 1.375 . S
C379 C382 1.481 . S
C380 C379 1.375 . S
C380 C381 1.367 . S
C380 H394 0.951 . S
C381 C377 1.383 . S
C381 C380 1.367 . S
C381 H395 0.950 . S
C382 C379 1.481 . S
C382 C383 1.297 . S
C382 H396 0.950 . S
C383 C382 1.297 . S
C383 C384 1.479 . S
C383 H397 0.950 1_655 S
C384 C383 1.479 . S
C384 C385 1.375 1_655 S
C384 C390 1.404 . S
C385 C384 1.375 1_455 S
C385 C386 1.369 . S
C385 H398 0.950 . S
C386 C385 1.369 . S
C386 C387 1.392 . S
C386 H399 0.951 . S
C387 C386 1.392 . S
C387 C389 1.384 1_455 S
H388 C390 0.949 . S
C389 C387 1.384 1_655 S
C389 C390 1.385 . S
C389 H391 0.950 . S
C390 C384 1.404 . S
C390 H388 0.949 . S
C390 C389 1.385 . S
H391 C389 0.950 . S
H392 C376 0.951 . S
H393 C378 0.951 . S
H394 C380 0.951 . S
H395 C381 0.950 . S
H396 C382 0.950 . S
H397 C383 0.950 1_455 S
H398 C385 0.950 . S
H399 C386 0.951 . S
C400 C401 1.393 . S
C400 C402 1.383 . S
C400 H416 0.951 . S
C401 C400 1.393 . S
C401 C405 1.377 1_455 S
C402 C400 1.383 . S
C402 C403 1.402 . S
C402 H417 0.951 . S
C403 C402 1.402 . S
C403 C404 1.375 1_455 S
C403 C406 1.481 . S
C404 C403 1.375 1_655 S
C404 C405 1.367 . S
C404 H418 0.951 . S
C405 C401 1.377 1_655 S
C405 C404 1.367 . S
C405 H419 0.950 . S
C406 C403 1.481 . S
C406 C407 1.297 . S
C406 H420 0.950 . S
C407 C406 1.297 . S
C407 C408 1.479 . S
C407 H421 0.950 . S
C408 C407 1.479 . S
C408 C409 1.375 . S
C408 C414 1.404 . S
C409 C408 1.375 . S
C409 C410 1.369 . S
C409 H422 0.950 . S
C410 C409 1.369 . S
C410 C411 1.392 . S
C410 H423 0.951 . S
C411 C410 1.392 . S
C411 C413 1.384 . S
H412 C414 0.949 . S
C413 C411 1.384 . S
C413 C414 1.385 . S
C413 H415 0.950 . S
C414 C408 1.404 . S
C414 H412 0.949 . S
C414 C413 1.385 . S
H415 C413 0.950 . S
H416 C400 0.951 . S
H417 C402 0.951 . S
H418 C404 0.951 . S
H419 C405 0.950 . S
H420 C406 0.950 . S
H421 C407 0.950 . S
H422 C409 0.950 . S
H423 C410 0.951 . S
C424 C425 1.386 . S
C424 C426 1.383 . S
C424 H440 0.951 . S
C425 C424 1.386 . S
C425 C429 1.383 . S
C426 C424 1.383 . S
C426 C427 1.402 . S
C426 H441 0.951 . S
C427 C426 1.402 . S
C427 C428 1.375 . S
C427 C430 1.481 . S
C428 C427 1.375 . S
C428 C429 1.367 . S
C428 H442 0.951 . S
C429 C425 1.383 . S
C429 C428 1.367 . S
C429 H443 0.950 . S
C430 C427 1.481 . S
C430 C431 1.297 . S
C430 H444 0.950 . S
C431 C430 1.297 . S
C431 C432 1.479 . S
C431 H445 0.950 . S
C432 C431 1.479 . S
C432 C433 1.375 . S
C432 C438 1.404 . S
C433 C432 1.375 . S
C433 C434 1.369 . S
C433 H446 0.950 . S
C434 C433 1.369 . S
C434 C435 1.392 . S
C434 H447 0.951 . S
C435 C434 1.392 . S
C435 C437 1.384 1_455 S
H436 C438 0.949 . S
C437 C435 1.384 1_655 S
C437 C438 1.385 1_655 S
C437 H439 0.950 . S
C438 C432 1.404 . S
C438 H436 0.949 . S
C438 C437 1.385 1_455 S
H439 C437 0.950 . S
H440 C424 0.951 . S
H441 C426 0.951 . S
H442 C428 0.951 . S
H443 C429 0.950 . S
H444 C430 0.950 . S
H445 C431 0.950 . S
H446 C433 0.950 . S
H447 C434 0.951 . S
C161 C58 1.506 1_554 S
C171 C9 1.526 . S
C185 C89 1.499 . S
C195 C138 1.472 . S
C209 C18 1.489 . S
C219 C49 1.521 1_556 S
C233 C129 1.520 . S
C243 C98 1.466 . S
C257 C126 1.195 . S
C267 C10 1.183 . S
C281 C46 1.209 . S
C291 C90 1.198 . S
C305 C59 1.226 . S
C315 C95 1.209 . S
C329 C139 1.221 . S
C339 C15 1.178 . S
C353 C50 1.220 . S
C363 C86 1.226 1_655 S
C377 C130 1.199 . S
C387 C6 1.176 . S
C401 C135 1.192 1_455 S
C411 C19 1.222 . S
C425 C99 1.199 . S
C435 C55 1.204 1_455 S
