# Generated by pormake.
# Topology fee, (5)-cn, num edge types: 1
# Building blocks:
#     Node 0, Type 0, BuildingBlock: XOMCOT_clean_sbu_0, # of connection points: 5
#     Node 1, Type 0, BuildingBlock: XOMCOT_clean_sbu_0, # of connection points: 5
#     Node 2, Type 0, BuildingBlock: XOMCOT_clean_sbu_0, # of connection points: 5
#     Node 3, Type 0, BuildingBlock: XOMCOT_clean_sbu_0, # of connection points: 5
#     Edge 4, Type (0, 0), BuildingBlock: ZUJKAS_clean_linker_0, # of connection points: 2
#     Edge 5, Type (0, 0), BuildingBlock: ZUJKAS_clean_linker_0, # of connection points: 2
#     Edge 6, Type (0, 0), BuildingBlock: ZUJKAS_clean_linker_0, # of connection points: 2
#     Edge 7, Type (0, 0), BuildingBlock: ZUJKAS_clean_linker_0, # of connection points: 2
#     Edge 8, Type (0, 0), BuildingBlock: ZUJKAS_clean_linker_0, # of connection points: 2
#     Edge 9, Type (0, 0), BuildingBlock: ZUJKAS_clean_linker_0, # of connection points: 2
#     Edge 10, Type (0, 0), BuildingBlock: ZUJKAS_clean_linker_0, # of connection points: 2
#     Edge 11, Type (0, 0), BuildingBlock: ZUJKAS_clean_linker_0, # of connection points: 2
#     Edge 12, Type (0, 0), BuildingBlock: ZUJKAS_clean_linker_0, # of connection points: 2
#     Edge 13, Type (0, 0), BuildingBlock: ZUJKAS_clean_linker_0, # of connection points: 2
# Relax obj value: 0.155
# Max RMSD: 0.169
# Mean RMSD: 0.153
data_MOF--net-fee--node1-XOMCOT_clean_sbu_0--edge1-ZUJKAS_clean_linker_0
_symmetry_space_group_name_H-M    P1
_symmetry_Int_Tables_number       1
_symmetry_cell_setting            triclinic
loop_
_symmetry_equiv_pos_as_xyz
'x, y, z'
_cell_length_a     49.0298
_cell_length_b     49.061909
_cell_length_c     22.143562
_cell_angle_alpha  96.297821
_cell_angle_beta   96.226794
_cell_angle_gamma 89.869444
loop_
_atom_site_label
_atom_site_type_symbol
_atom_site_fract_x
_atom_site_fract_y
_atom_site_fract_z
_atom_type_partial_charge
Co0 Co 0.18798 0.52914 0.08604 0.0
C1 C 0.19491 0.52925 0.22088 0.0
C2 C 0.2073 0.56751 0.19301 0.0
C3 C 0.21047 0.56954 0.25576 0.0
N4 N 0.19779 0.54221 0.17117 0.0
N5 N 0.2026 0.54555 0.27328 0.0
H6 H 0.18709 0.50852 0.21868 0.0
H7 H 0.21091 0.58371 0.16542 0.0
C8 C 0.23759 0.55055 0.03492 0.0
O9 O 0.24139 0.52641 1.00507 0.0
N10 N 0.1772 0.51668 0.99962 0.0
C11 C 0.15905 0.49637 0.97746 0.0
C12 C 0.15547 0.49473 0.91488 0.0
C13 C 0.18315 0.52802 0.94944 0.0
N14 N 0.1707 0.51458 0.89708 0.0
C15 C 0.20611 0.47321 0.07259 0.0
C16 C 0.26044 0.48386 0.11606 0.0
C17 C 0.25289 0.45768 0.08727 0.0
C18 C 0.22516 0.45218 0.06775 0.0
C19 C 0.24065 0.50444 0.11938 0.0
N20 N 0.21428 0.49943 0.09336 0.0
H21 H 0.18486 0.46834 0.05875 0.0
H22 H 0.24688 0.52478 0.13992 0.0
H23 H 0.14842 0.48376 1.00457 0.0
H24 H 0.19536 0.54638 0.95085 0.0
O25 O 0.15604 0.51121 0.10787 0.0
O26 O 0.15735 0.55394 0.08409 0.0
O27 O 0.21683 0.5547 0.06488 0.0
C28 C 0.14319 0.53404 0.10028 0.0
H29 H 0.21697 0.58769 0.28619 0.0
H30 H 0.14265 0.47988 0.88494 0.0
H31 H 0.2816 0.48875 0.13318 0.0
H32 H 0.21829 0.43183 0.04808 0.0
Co33 Co 0.46613 0.19033 0.07389 0.0
C34 C 0.46384 0.19582 0.20797 0.0
C35 C 0.42476 0.20279 0.15848 0.0
C36 C 0.42171 0.20504 0.21981 0.0
N37 N 0.45117 0.19727 0.15117 0.0
N38 N 0.44625 0.2006 0.25093 0.0
H39 H 0.48536 0.19115 0.21747 0.0
H40 H 0.40864 0.20423 0.12165 0.0
C41 C 0.44436 0.23863 1.01035 0.0
O42 O 0.46842 0.24208 0.99111 0.0
N43 N 0.48064 0.18251 0.99502 0.0
C44 C 0.50414 0.16936 0.98421 0.0
C45 C 0.50607 0.16601 0.92247 0.0
C46 C 0.46794 0.1855 0.93871 0.0
N47 N 0.48335 0.17629 0.8937 0.0
C48 C 0.52145 0.21067 0.10547 0.0
C49 C 0.50803 0.26518 0.12951 0.0
C50 C 0.53552 0.25839 0.12349 0.0
C51 C 0.54224 0.23053 0.11494 0.0
C52 C 0.48795 0.2445 0.12053 0.0
N53 N 0.49455 0.218 0.10236 0.0
H54 H 0.52708 0.18943 0.09997 0.0
H55 H 0.46691 0.25007 0.1253 0.0
H56 H 0.51855 0.16141 0.01805 0.0
H57 H 0.44746 0.19347 0.93054 0.0
O58 O 0.48456 0.15852 0.10194 0.0
O59 O 0.44255 0.15843 0.05324 0.0
O60 O 0.44028 0.21867 0.04098 0.0
C61 C 0.46246 0.14474 0.07929 0.0
H62 H 0.40264 0.20861 0.23975 0.0
H63 H 0.523 0.15663 0.90064 0.0
H64 H 0.50178 0.28629 0.13816 0.0
H65 H 0.56335 0.22408 0.11427 0.0
Co66 Co 0.80713 0.53179 0.13927 0.0
C67 C 0.80451 0.53614 1.00616 0.0
C68 C 0.79621 0.57446 0.05728 0.0
C69 C 0.79522 0.57838 0.99656 0.0
N70 N 0.8019 0.54799 0.06319 0.0
N71 N 0.80056 0.55433 0.96428 0.0
H72 H 0.80981 0.51483 0.99601 0.0
H73 H 0.79333 0.58996 0.09461 0.0
C74 C 0.75716 0.55263 0.19702 0.0
O75 O 0.75262 0.52793 0.21181 0.0
N76 N 0.81329 0.51612 0.21714 0.0
C77 C 0.82713 0.49298 0.22782 0.0
C78 C 0.829 0.49005 0.28907 0.0
C79 C 0.8085 0.52773 0.27339 0.0
N80 N 0.81715 0.51182 0.31777 0.0
C81 C 0.78512 0.47699 0.10628 0.0
C82 C 0.73228 0.49269 0.06987 0.0
C83 C 0.73727 0.46509 0.07778 0.0
C84 C 0.76437 0.45711 0.09317 0.0
C85 C 0.75377 0.51181 0.08289 0.0
N86 N 0.77921 0.50417 0.10652 0.0
H87 H 0.8058 0.47043 0.11722 0.0
H88 H 0.74953 0.53305 0.07715 0.0
H89 H 0.83674 0.47968 0.19439 0.0
H90 H 0.79933 0.54762 0.28208 0.0
O91 O 0.83919 0.5133 0.11251 0.0
O92 O 0.8392 0.55474 0.16408 0.0
O93 O 0.77852 0.55751 0.17145 0.0
C94 C 0.85302 0.53502 0.13762 0.0
H95 H 0.79081 0.59758 0.97787 0.0
H96 H 0.83935 0.47367 0.31112 0.0
H97 H 0.71184 0.49955 0.05538 0.0
H98 H 0.76939 0.43589 0.09787 0.0
Co99 Co 0.46827 0.80827 0.11469 0.0
C100 C 0.46454 0.80753 0.98001 0.0
C101 C 0.42845 0.79028 1.00858 0.0
C102 C 0.42552 0.78863 0.94581 0.0
N103 N 0.45301 0.80187 0.02999 0.0
N104 N 0.44812 0.79955 0.92807 0.0
H105 H 0.48458 0.81694 0.9815 0.0
H106 H 0.41351 0.7836 0.03636 0.0
C107 C 0.44603 0.7598 0.16859 0.0
O108 O 0.46994 0.75649 0.19985 0.0
N109 N 0.48326 0.81511 0.20035 0.0
C110 C 0.50896 0.82351 0.22279 0.0
C111 C 0.51129 0.82558 0.28546 0.0
C112 C 0.46989 0.81381 0.2504 0.0
N113 N 0.48679 0.81939 0.3027 0.0
C114 C 0.5232 0.79042 0.09922 0.0
C115 C 0.51175 0.73491 0.07996 0.0
C116 C 0.53922 0.74364 0.09262 0.0
C117 C 0.54479 0.77187 0.09856 0.0
C118 C 0.49081 0.75433 0.08059 0.0
N119 N 0.49676 0.78151 0.09715 0.0
H120 H 0.52792 0.812 0.10283 0.0
H121 H 0.46984 0.74728 0.06975 0.0
H122 H 0.52499 0.82869 0.19643 0.0
H123 H 0.44844 0.80831 0.24874 0.0
O124 O 0.48643 0.841 0.09779 0.0
O125 O 0.44459 0.83952 0.12655 0.0
O126 O 0.44256 0.77927 0.13471 0.0
C127 C 0.46434 0.85405 0.11092 0.0
H128 H 0.4079 0.78052 0.91548 0.0
H129 H 0.52949 0.83158 0.31621 0.0
H130 H 0.50634 0.71333 0.07228 0.0
H131 H 0.56568 0.77963 0.10398 0.0
H132 H 0.1348 0.50031 0.79626 0.0
H133 H 0.14155 0.50477 0.69041 0.0
H134 H 0.21917 0.5456 0.74975 0.0
H135 H 0.2132 0.54004 0.85595 0.0
H136 H 0.14769 0.54918 0.63108 0.0
H137 H 0.24108 0.48526 0.62519 0.0
H138 H 0.21989 0.48668 0.68715 0.0
H139 H 0.24425 0.5137 0.6839 0.0
C140 C 0.15348 0.50998 0.78704 0.0
C141 C 0.17363 0.51946 0.83491 0.0
C142 C 0.15721 0.5127 0.72634 0.0
C143 C 0.18113 0.52497 0.71196 0.0
C144 C 0.20085 0.53542 0.75962 0.0
H145 H 0.23567 0.56563 0.3738 0.0
H146 H 0.23026 0.55959 0.48013 0.0
C147 C 0.19721 0.53258 0.82048 0.0
C148 C 0.18519 0.52687 0.64702 0.0
H149 H 0.22825 0.50865 0.53817 0.0
C150 C 0.16524 0.54021 0.61073 0.0
C151 C 0.20805 0.51503 0.62038 0.0
C152 C 0.22942 0.49913 0.65594 0.0
C153 C 0.16775 0.54243 0.54888 0.0
C154 C 0.1907 0.53081 0.52253 0.0
C155 C 0.21067 0.5175 0.55865 0.0
C156 C 0.19466 0.533 0.45786 0.0
C157 C 0.14613 0.55765 0.51239 0.0
C158 C 0.17681 0.51949 0.41012 0.0
C159 C 0.1799 0.52285 0.34924 0.0
C160 C 0.20082 0.5399 0.33524 0.0
C161 C 0.21914 0.55269 0.38322 0.0
C162 C 0.21616 0.54917 0.44392 0.0
H163 H 0.13258 0.56974 0.54212 0.0
H164 H 0.1558 0.57171 0.48472 0.0
H165 H 0.1332 0.54268 0.48049 0.0
H166 H 0.16027 0.50666 0.42003 0.0
H167 H 0.16538 0.51287 0.31335 0.0
H168 H 0.50397 0.14406 0.80193 0.0
H169 H 0.49764 0.14936 0.69319 0.0
H170 H 0.44238 0.21638 0.72755 0.0
H171 H 0.44958 0.21204 0.83713 0.0
H172 H 0.45249 0.14558 0.61063 0.0
H173 H 0.49667 0.25069 0.63225 0.0
H174 H 0.49979 0.22974 0.69467 0.0
H175 H 0.46844 0.24765 0.67641 0.0
C176 C 0.49067 0.16013 0.7867 0.0
C177 C 0.4776 0.17787 0.82874 0.0
C178 C 0.48691 0.163 0.72427 0.0
C179 C 0.47001 0.18364 0.70224 0.0
C180 C 0.45607 0.20073 0.74362 0.0
H181 H 0.42052 0.22915 0.33937 0.0
H182 H 0.42692 0.2248 0.44899 0.0
C183 C 0.45991 0.19797 0.80627 0.0
C184 C 0.46706 0.18707 0.63596 0.0
H185 H 0.47622 0.23282 0.53384 0.0
C186 C 0.45778 0.16462 0.59386 0.0
C187 C 0.47408 0.21191 0.61403 0.0
C188 C 0.48555 0.2363 0.65659 0.0
C189 C 0.45493 0.16646 0.53062 0.0
C190 C 0.46179 0.19132 0.50883 0.0
C191 C 0.471 0.21379 0.55077 0.0
C192 C 0.45892 0.19456 0.44262 0.0
C193 C 0.44408 0.14197 0.48757 0.0
C194 C 0.47522 0.17942 0.40285 0.0
C195 C 0.47162 0.18189 0.34006 0.0
C196 C 0.45157 0.19947 0.31599 0.0
C197 C 0.43582 0.21512 0.35633 0.0
C198 C 0.43955 0.21277 0.41901 0.0
H199 H 0.43449 0.12647 0.51184 0.0
H200 H 0.4287 0.14838 0.45135 0.0
H201 H 0.46127 0.13208 0.46501 0.0
H202 H 0.49056 0.16551 0.42033 0.0
H203 H 0.48397 0.16946 0.31022 0.0
H204 H 0.80969 0.59231 0.88783 0.0
H205 H 0.8111 0.58476 0.7778 0.0
H206 H 0.79854 0.49805 0.78165 0.0
H207 H 0.79578 0.50556 0.8918 0.0
H208 H 0.84598 0.55488 0.71169 0.0
H209 H 0.74002 0.51441 0.64762 0.0
H210 H 0.75144 0.53074 0.72312 0.0
H211 H 0.75995 0.49558 0.70159 0.0
C212 C 0.80674 0.57164 0.8655 0.0
C213 C 0.80225 0.5496 0.89912 0.0
C214 C 0.80781 0.56734 0.80239 0.0
C215 C 0.80444 0.54092 0.77113 0.0
C216 C 0.80055 0.51873 0.80449 0.0
H217 H 0.81328 0.47363 0.3958 0.0
H218 H 0.81031 0.48153 0.50575 0.0
C219 C 0.79933 0.52303 0.86775 0.0
C220 C 0.80562 0.53673 0.7039 0.0
H221 H 0.76934 0.51188 0.56853 0.0
C222 C 0.82915 0.54561 0.68039 0.0
C223 C 0.78362 0.52469 0.66298 0.0
C224 C 0.75721 0.51604 0.68493 0.0
C225 C 0.83149 0.54236 0.61732 0.0
C226 C 0.8096 0.53015 0.57658 0.0
C227 C 0.78607 0.52126 0.59994 0.0
C228 C 0.81106 0.52575 0.50962 0.0
C229 C 0.85759 0.55148 0.59479 0.0
C230 C 0.8121 0.54802 0.4751 0.0
C231 C 0.81383 0.54357 0.41202 0.0
C232 C 0.81466 0.51674 0.38245 0.0
C233 C 0.8132 0.49454 0.41724 0.0
C234 C 0.8113 0.499 0.48005 0.0
H235 H 0.87449 0.55529 0.63247 0.0
H236 H 0.86433 0.53586 0.55943 0.0
H237 H 0.85378 0.57082 0.57368 0.0
H238 H 0.81157 0.56885 0.49696 0.0
H239 H 0.81502 0.5611 0.38671 0.0
H240 H 0.4682 0.8442 0.88602 0.0
H241 H 0.47249 0.85043 0.77888 0.0
H242 H 0.4445 0.76709 0.72442 0.0
H243 H 0.43873 0.76159 0.83082 0.0
H244 H 0.50168 0.82921 0.69837 0.0
H245 H 0.39446 0.80364 0.60806 0.0
H246 H 0.40548 0.80813 0.68888 0.0
H247 H 0.40976 0.77563 0.64435 0.0
C248 C 0.46301 0.82732 0.8509 0.0
C249 C 0.45291 0.80253 0.86622 0.0
C250 C 0.46536 0.83085 0.78975 0.0
C251 C 0.45803 0.8095 0.74298 0.0
C252 C 0.44917 0.78429 0.75898 0.0
H253 H 0.51802 0.79546 0.38862 0.0
H254 H 0.50991 0.79401 0.49516 0.0
C255 C 0.44617 0.78102 0.8198 0.0
C256 C 0.46041 0.81325 0.67783 0.0
H257 H 0.42687 0.80201 0.53361 0.0
C258 C 0.48516 0.82354 0.66252 0.0
C259 C 0.43869 0.80661 0.63078 0.0
C260 C 0.41053 0.79821 0.644 0.0
C261 C 0.48914 0.82645 0.60168 0.0
C262 C 0.46826 0.81759 0.55418 0.0
C263 C 0.44314 0.80828 0.56964 0.0
C264 C 0.47231 0.8173 0.48836 0.0
C265 C 0.51558 0.83946 0.58943 0.0
C266 C 0.45301 0.82929 0.44763 0.0
C267 C 0.45723 0.82928 0.38599 0.0
C268 C 0.48099 0.81764 0.36442 0.0
C269 C 0.49983 0.80503 0.40466 0.0
C270 C 0.49531 0.80444 0.46565 0.0
H271 H 0.52419 0.85378 0.62929 0.0
H272 H 0.53098 0.82323 0.58146 0.0
H273 H 0.51259 0.85096 0.54878 0.0
H274 H 0.43492 0.83907 0.46374 0.0
H275 H 0.44245 0.83909 0.35563 0.0
H276 H 0.88784 0.57606 0.1928 0.0
H277 H 0.93746 0.5795 0.18842 0.0
H278 H 0.9354 0.50234 0.07412 0.0
H279 H 0.8859 0.49874 0.07812 0.0
H280 H 0.97887 0.54096 0.22441 0.0
H281 H 0.97466 0.55621 0.97882 0.0
H282 H 0.94537 0.5614 0.02157 0.0
H283 H 0.95509 0.52731 0.9942 0.0
C284 C 0.89795 0.55987 0.16662 0.0
C285 C 0.88296 0.53717 0.13562 0.0
C286 C 0.92627 0.56186 0.16422 0.0
C287 C 0.93997 0.54135 0.1303 0.0
C288 C 0.9251 0.5186 0.09973 0.0
H289 H 0.1098 0.49675 0.13917 0.0
H290 H 0.06077 0.50075 0.14948 0.0
C291 C 0.89685 0.51651 0.10233 0.0
C292 C 0.96995 0.54335 0.12778 0.0
H293 H 0.01843 0.54636 0.02901 0.0
C294 C 0.98756 0.54235 0.18183 0.0
C295 C 0.98116 0.54552 0.07228 0.0
C296 C 0.96314 0.54793 0.01343 0.0
C297 C 0.01618 0.54253 0.18145 0.0
C298 C 0.02738 0.54345 0.12545 0.0
C299 C 0.00977 0.54541 0.07179 0.0
C300 C 0.05728 0.54157 0.12121 0.0
C301 C 0.03421 0.54171 0.24092 0.0
C302 C 0.07148 0.56303 0.10095 0.0
C303 C 0.09953 0.56079 0.09488 0.0
C304 C 0.11375 0.5369 0.10838 0.0
C305 C 0.09944 0.51545 0.12861 0.0
C306 C 0.07146 0.51775 0.13488 0.0
H307 H 0.023 0.54838 0.28092 0.0
H308 H 0.04115 0.52037 0.24483 0.0
H309 H 0.05266 0.55497 0.24273 0.0
H310 H 0.06084 0.5815 0.08979 0.0
H311 H 0.10997 0.57762 0.079 0.0
H312 H 0.50162 0.88827 0.07484 0.0
H313 H 0.49795 0.93769 0.06993 0.0
H314 H 0.41801 0.93684 0.134 0.0
H315 H 0.42158 0.88728 0.13949 0.0
H316 H 0.45691 0.96643 1.00172 0.0
H317 H 0.46132 0.997 0.25211 0.0
H318 H 0.47152 0.96349 0.22059 0.0
H319 H 0.4358 0.97161 0.22053 0.0
C320 C 0.48327 0.89858 0.08806 0.0
C321 C 0.46193 0.88391 0.10784 0.0
C322 C 0.48119 0.9268 0.08509 0.0
C323 C 0.45785 0.94093 0.10219 0.0
C324 C 0.43638 0.92635 0.12146 0.0
H325 H 0.42029 0.10993 0.0302 0.0
H326 H 0.41736 0.06036 0.03528 0.0
C327 C 0.4384 0.89805 0.12433 0.0
C328 C 0.4561 0.97091 0.0993 0.0
H329 H 0.45504 0.03237 0.18786 0.0
C330 C 0.45634 0.98088 0.04231 0.0
C331 C 0.45562 0.98964 0.15248 0.0
C332 C 0.45626 0.98003 0.21506 0.0
C333 C 0.45626 0.00914 0.03709 0.0
C334 C 0.45568 0.02786 0.09024 0.0
C335 C 0.45529 0.0179 0.14719 0.0
C336 C 0.45692 0.05789 0.08806 0.0
C337 C 0.45763 0.01879 0.97509 0.0
C338 C 0.47989 0.07292 0.117 0.0
C339 C 0.48162 0.10116 0.11421 0.0
C340 C 0.4603 0.11492 0.08277 0.0
C341 C 0.43709 0.09988 0.05457 0.0
C342 C 0.43542 0.07157 0.05722 0.0
H343 H 0.46331 0.00202 0.94096 0.0
H344 H 0.43724 0.02659 0.95838 0.0
H345 H 0.47276 0.03583 0.97797 0.0
H346 H 0.49666 0.06272 0.14115 0.0
H347 H 0.49972 0.11217 0.13659 0.0
H348 H 0.39596 0.24189 0.06102 0.0
H349 H 0.36399 0.2798 0.06428 0.0
H350 H 0.41244 0.32244 0.9523 0.0
H351 H 0.44532 0.28473 0.95057 0.0
H352 H 0.39968 0.35574 0.04835 0.0
H353 H 0.30531 0.3016 0.9396 0.0
H354 H 0.32043 0.28496 1.00301 0.0
H355 H 0.33881 0.28648 0.93721 0.0
C356 C 0.39974 0.2591 0.03631 0.0
C357 C 0.42327 0.26021 1.00551 0.0
C358 C 0.38125 0.28076 0.0379 0.0
C359 C 0.38551 0.30381 1.00772 0.0
C360 C 0.40866 0.30478 0.97571 0.0
H361 H 0.25797 0.4271 0.97938 0.0
H362 H 0.29157 0.39155 0.95738 0.0
C363 C 0.42737 0.28317 0.97457 0.0
C364 C 0.36669 0.32751 0.01311 0.0
H365 H 0.29894 0.34445 1.00004 0.0
C366 C 0.37767 0.35336 0.03704 0.0
C367 C 0.338 0.32455 0.99757 0.0
C368 C 0.325 0.29795 0.9673 0.0
C369 C 0.36069 0.3761 0.04773 0.0
C370 C 0.33187 0.37269 0.03588 0.0
C371 C 0.32099 0.34703 1.01009 0.0
C372 C 0.3125 0.39537 0.04921 0.0
C373 C 0.37389 0.40356 0.07088 0.0
C374 C 0.31301 0.40942 0.10822 0.0
C375 C 0.29397 0.43005 0.12069 0.0
C376 C 0.27371 0.43647 0.07471 0.0
C377 C 0.27319 0.42233 0.01585 0.0
C378 C 0.29242 0.40207 1.0032 0.0
H379 H 0.39524 0.40463 0.05878 0.0
H380 H 0.36203 0.42059 0.05201 0.0
H381 H 0.37478 0.40662 0.12145 0.0
H382 H 0.32778 0.40412 0.14496 0.0
H383 H 0.29464 0.44049 0.16655 0.0
H384 H 0.7342 0.41196 0.02373 0.0
H385 H 0.69838 0.37789 0.02929 0.0
H386 H 0.6534 0.43874 0.13292 0.0
H387 H 0.68888 0.47289 0.12689 0.0
H388 H 0.6836 0.35974 0.13218 0.0
H389 H 0.59323 0.40517 1.00869 0.0
H390 H 0.62784 0.41686 1.00515 0.0
H391 H 0.6099 0.42829 0.06989 0.0
C392 C 0.71649 0.41813 0.047 0.0
C393 C 0.7143 0.44514 0.0746 0.0
C394 C 0.69604 0.39868 0.05011 0.0
C395 C 0.67303 0.40583 0.08088 0.0
C396 C 0.67058 0.4329 0.10757 0.0
H397 H 0.54099 0.30935 0.19053 0.0
H398 H 0.57445 0.34545 0.18234 0.0
C399 C 0.6909 0.45241 0.10409 0.0
C400 C 0.65263 0.38455 0.08873 0.0
H401 H 0.58434 0.36806 0.06506 0.0
C402 C 0.66192 0.3615 0.11715 0.0
C403 C 0.62432 0.38693 0.06942 0.0
C404 C 0.61323 0.41051 0.03607 0.0
C405 C 0.64367 0.3409 0.12718 0.0
C406 C 0.61542 0.34336 0.10806 0.0
C407 C 0.60603 0.36642 0.08005 0.0
C408 C 0.59552 0.32148 0.11414 0.0
C409 C 0.65462 0.31673 0.15859 0.0
C410 C 0.59629 0.29621 0.07824 0.0
C411 C 0.5771 0.27571 0.08221 0.0
C412 C 0.55674 0.27998 0.12243 0.0
C413 C 0.55618 0.30538 0.15871 0.0
C414 C 0.57533 0.326 0.15432 0.0
H415 H 0.67576 0.32059 0.18157 0.0
H416 H 0.64108 0.31171 0.19301 0.0
H417 H 0.65508 0.29854 0.12418 0.0
H418 H 0.61148 0.29253 0.04627 0.0
H419 H 0.57782 0.25675 0.05239 0.0
H420 H 0.58372 0.74971 0.17835 0.0
H421 H 0.62037 0.71713 0.19808 0.0
H422 H 0.58194 0.65934 0.05325 0.0
H423 H 0.54555 0.69232 0.03153 0.0
H424 H 0.61647 0.66486 0.23237 0.0
H425 H 0.66109 0.66302 1.01184 0.0
H426 H 0.63727 0.68894 0.03648 0.0
H427 H 0.625 0.65537 1.00463 0.0
C428 C 0.58328 0.7303 0.14976 0.0
C429 C 0.56181 0.7238 0.10279 0.0
C430 C 0.60412 0.71158 0.16161 0.0
C431 C 0.60404 0.68594 0.12677 0.0
C432 C 0.58262 0.6792 0.08008 0.0
H433 H 0.7037 0.54568 0.21796 0.0
H434 H 0.66626 0.57828 0.20505 0.0
C435 C 0.5617 0.69798 0.06808 0.0
C436 C 0.62628 0.66626 0.14027 0.0
H437 H 0.679 0.63152 0.0792 0.0
C438 C 0.63016 0.65753 0.19892 0.0
C439 C 0.6443 0.65703 0.09678 0.0
C440 C 0.64196 0.66671 0.03406 0.0
C441 C 0.65152 0.63972 0.21518 0.0
C442 C 0.66918 0.63007 0.17128 0.0
C443 C 0.66535 0.63887 0.11272 0.0
C444 C 0.69208 0.61113 0.18502 0.0
C445 C 0.65536 0.63191 0.27957 0.0
C446 C 0.71904 0.61878 0.1783 0.0
C447 C 0.74045 0.60018 0.18532 0.0
C448 C 0.7353 0.57347 0.19902 0.0
C449 C 0.70842 0.56617 0.208 0.0
C450 C 0.68698 0.5848 0.20071 0.0
H451 H 0.64494 0.64644 0.31147 0.0
H452 H 0.64639 0.6112 0.28007 0.0
H453 H 0.67747 0.63126 0.29668 0.0
H454 H 0.72344 0.63901 0.16624 0.0
H455 H 0.7609 0.6065 0.17822 0.0
H456 H 0.45021 0.7082 0.20568 0.0
H457 H 0.41607 0.67098 0.18291 0.0
H458 H 0.35926 0.72542 0.09534 0.0
H459 H 0.39298 0.76263 0.11799 0.0
H460 H 0.36027 0.66747 0.21164 0.0
H461 H 0.36728 0.66031 0.96191 0.0
H462 H 0.39278 0.67787 0.01757 0.0
H463 H 0.36087 0.69425 0.99652 0.0
C464 C 0.43032 0.71235 0.18232 0.0
C465 C 0.42446 0.7383 0.1629 0.0
C466 C 0.4109 0.69103 0.16913 0.0
C467 C 0.38544 0.69533 0.13618 0.0
C468 C 0.37906 0.72153 0.11952 0.0
H469 H 0.23434 0.60368 0.08492 0.0
H470 H 0.27141 0.63752 0.10828 0.0
C471 C 0.39836 0.7428 0.13271 0.0
C472 C 0.36553 0.67244 0.11824 0.0
H473 H 0.33039 0.63588 0.99382 0.0
C474 C 0.35387 0.6604 0.16409 0.0
C475 C 0.35754 0.66301 0.05612 0.0
C476 C 0.37042 0.67432 1.0051 0.0
C477 C 0.33362 0.63983 0.14936 0.0
C478 C 0.32468 0.63135 0.0872 0.0
C479 C 0.33709 0.64266 0.04139 0.0
C480 C 0.30194 0.61129 0.0691 0.0
C481 C 0.32193 0.62735 0.20043 0.0
C482 C 0.30654 0.58573 0.03687 0.0
C483 C 0.2853 0.56625 0.02321 0.0
C484 C 0.25911 0.57213 0.04138 0.0
C485 C 0.25433 0.5983 0.071 0.0
C486 C 0.27553 0.61766 0.08466 0.0
H487 H 0.33565 0.63081 0.24397 0.0
H488 H 0.30189 0.63693 0.20803 0.0
H489 H 0.31846 0.60495 0.18861 0.0
H490 H 0.32676 0.58056 0.02394 0.0
H491 H 0.28967 0.54631 1.00035 0.0
loop_
_geom_bond_atom_site_label_1
_geom_bond_atom_site_label_2
_geom_bond_distance
_geom_bond_site_symmetry_2
_ccdc_geom_bond_type
Co0 N4 2.148 . S
Co0 N10 2.128 1_554 S
Co0 N20 2.194 . S
Co0 O25 2.351 . S
Co0 O26 2.155 . S
Co0 O27 2.096 . S
C1 N4 1.301 . S
C1 N5 1.328 . S
C1 H6 0.930 . S
C2 C3 1.333 . S
C2 N4 1.317 . S
C2 H7 0.930 . S
C3 C2 1.333 . S
C3 N5 1.350 . S
C3 H29 0.931 . S
N4 Co0 2.148 . S
N4 C1 1.301 . S
N4 C2 1.317 . S
N5 C1 1.328 . S
N5 C3 1.350 . S
H6 C1 0.930 . S
H7 C2 0.930 . S
C8 O9 1.224 . S
C8 O27 1.247 . S
O9 C8 1.224 . S
N10 Co0 2.128 1_556 S
N10 C11 1.355 . S
N10 C13 1.311 . S
C11 N10 1.355 . S
C11 C12 1.363 . S
C11 H23 0.929 . S
C12 C11 1.363 . S
C12 N14 1.375 . S
C12 H30 0.931 . S
C13 N10 1.311 . S
C13 N14 1.347 . S
C13 H24 0.929 . S
N14 C12 1.375 . S
N14 C13 1.347 . S
C15 C18 1.365 . S
C15 N20 1.328 . S
C15 H21 0.929 . S
C16 C17 1.362 . S
C16 C19 1.378 . S
C16 H31 0.929 . S
C17 C16 1.362 . S
C17 C18 1.366 . S
C18 C15 1.365 . S
C18 C17 1.366 . S
C18 H32 0.930 . S
C19 C16 1.378 . S
C19 N20 1.315 . S
C19 H22 0.930 . S
N20 Co0 2.194 . S
N20 C15 1.328 . S
N20 C19 1.315 . S
H21 C15 0.929 . S
H22 C19 0.930 . S
H23 C11 0.929 . S
H24 C13 0.929 . S
O25 Co0 2.351 . S
O25 C28 1.244 . S
O26 Co0 2.155 . S
O26 C28 1.240 . S
O27 Co0 2.096 . S
O27 C8 1.247 . S
C28 O25 1.244 . S
C28 O26 1.240 . S
H29 C3 0.931 . S
H30 C12 0.931 . S
H31 C16 0.929 . S
H32 C18 0.930 . S
Co33 N37 2.148 . S
Co33 N43 2.128 1_554 S
Co33 N53 2.194 . S
Co33 O58 2.351 . S
Co33 O59 2.155 . S
Co33 O60 2.096 . S
C34 N37 1.301 . S
C34 N38 1.328 . S
C34 H39 0.930 . S
C35 C36 1.333 . S
C35 N37 1.317 . S
C35 H40 0.930 . S
C36 C35 1.333 . S
C36 N38 1.350 . S
C36 H62 0.931 . S
N37 Co33 2.148 . S
N37 C34 1.301 . S
N37 C35 1.317 . S
N38 C34 1.328 . S
N38 C36 1.350 . S
H39 C34 0.930 . S
H40 C35 0.930 . S
C41 O42 1.224 . S
C41 O60 1.247 . S
O42 C41 1.224 . S
N43 Co33 2.128 1_556 S
N43 C44 1.355 . S
N43 C46 1.311 . S
C44 N43 1.355 . S
C44 C45 1.363 . S
C44 H56 0.929 . S
C45 C44 1.363 . S
C45 N47 1.375 . S
C45 H63 0.931 . S
C46 N43 1.311 . S
C46 N47 1.347 . S
C46 H57 0.929 . S
N47 C45 1.375 . S
N47 C46 1.347 . S
C48 C51 1.365 . S
C48 N53 1.328 . S
C48 H54 0.929 . S
C49 C50 1.362 . S
C49 C52 1.378 . S
C49 H64 0.929 . S
C50 C49 1.362 . S
C50 C51 1.366 . S
C51 C48 1.365 . S
C51 C50 1.366 . S
C51 H65 0.930 . S
C52 C49 1.378 . S
C52 N53 1.315 . S
C52 H55 0.930 . S
N53 Co33 2.194 . S
N53 C48 1.328 . S
N53 C52 1.315 . S
H54 C48 0.929 . S
H55 C52 0.930 . S
H56 C44 0.929 . S
H57 C46 0.929 . S
O58 Co33 2.351 . S
O58 C61 1.244 . S
O59 Co33 2.155 . S
O59 C61 1.240 . S
O60 Co33 2.096 . S
O60 C41 1.247 . S
C61 O58 1.244 . S
C61 O59 1.240 . S
H62 C36 0.931 . S
H63 C45 0.931 . S
H64 C49 0.929 . S
H65 C51 0.930 . S
Co66 N70 2.148 . S
Co66 N76 2.128 . S
Co66 N86 2.194 . S
Co66 O91 2.351 . S
Co66 O92 2.155 . S
Co66 O93 2.096 . S
C67 N70 1.301 1_556 S
C67 N71 1.328 . S
C67 H72 0.930 . S
C68 C69 1.333 1_554 S
C68 N70 1.317 . S
C68 H73 0.930 . S
C69 C68 1.333 1_556 S
C69 N71 1.350 . S
C69 H95 0.931 . S
N70 Co66 2.148 . S
N70 C67 1.301 1_554 S
N70 C68 1.317 . S
N71 C67 1.328 . S
N71 C69 1.350 . S
H72 C67 0.930 . S
H73 C68 0.930 . S
C74 O75 1.224 . S
C74 O93 1.247 . S
O75 C74 1.224 . S
N76 Co66 2.128 . S
N76 C77 1.355 . S
N76 C79 1.311 . S
C77 N76 1.355 . S
C77 C78 1.363 . S
C77 H89 0.929 . S
C78 C77 1.363 . S
C78 N80 1.375 . S
C78 H96 0.931 . S
C79 N76 1.311 . S
C79 N80 1.347 . S
C79 H90 0.929 . S
N80 C78 1.375 . S
N80 C79 1.347 . S
C81 C84 1.365 . S
C81 N86 1.328 . S
C81 H87 0.929 . S
C82 C83 1.362 . S
C82 C85 1.378 . S
C82 H97 0.929 . S
C83 C82 1.362 . S
C83 C84 1.366 . S
C84 C81 1.365 . S
C84 C83 1.366 . S
C84 H98 0.930 . S
C85 C82 1.378 . S
C85 N86 1.315 . S
C85 H88 0.930 . S
N86 Co66 2.194 . S
N86 C81 1.328 . S
N86 C85 1.315 . S
H87 C81 0.929 . S
H88 C85 0.930 . S
H89 C77 0.929 . S
H90 C79 0.929 . S
O91 Co66 2.351 . S
O91 C94 1.244 . S
O92 Co66 2.155 . S
O92 C94 1.240 . S
O93 Co66 2.096 . S
O93 C74 1.247 . S
C94 O91 1.244 . S
C94 O92 1.240 . S
H95 C69 0.931 . S
H96 C78 0.931 . S
H97 C82 0.929 . S
H98 C84 0.930 . S
Co99 N103 2.148 . S
Co99 N109 2.128 . S
Co99 N119 2.194 . S
Co99 O124 2.351 . S
Co99 O125 2.155 . S
Co99 O126 2.096 . S
C100 N103 1.301 1_556 S
C100 N104 1.328 . S
C100 H105 0.930 . S
C101 C102 1.333 . S
C101 N103 1.317 1_556 S
C101 H106 0.930 1_556 S
C102 C101 1.333 . S
C102 N104 1.350 . S
C102 H128 0.931 . S
N103 Co99 2.148 . S
N103 C100 1.301 1_554 S
N103 C101 1.317 1_554 S
N104 C100 1.328 . S
N104 C102 1.350 . S
H105 C100 0.930 . S
H106 C101 0.930 1_554 S
C107 O108 1.224 . S
C107 O126 1.247 . S
O108 C107 1.224 . S
N109 Co99 2.128 . S
N109 C110 1.355 . S
N109 C112 1.311 . S
C110 N109 1.355 . S
C110 C111 1.363 . S
C110 H122 0.929 . S
C111 C110 1.363 . S
C111 N113 1.375 . S
C111 H129 0.931 . S
C112 N109 1.311 . S
C112 N113 1.347 . S
C112 H123 0.929 . S
N113 C111 1.375 . S
N113 C112 1.347 . S
C114 C117 1.365 . S
C114 N119 1.328 . S
C114 H120 0.929 . S
C115 C116 1.362 . S
C115 C118 1.378 . S
C115 H130 0.929 . S
C116 C115 1.362 . S
C116 C117 1.366 . S
C117 C114 1.365 . S
C117 C116 1.366 . S
C117 H131 0.930 . S
C118 C115 1.378 . S
C118 N119 1.315 . S
C118 H121 0.930 . S
N119 Co99 2.194 . S
N119 C114 1.328 . S
N119 C118 1.315 . S
H120 C114 0.929 . S
H121 C118 0.930 . S
H122 C110 0.929 . S
H123 C112 0.929 . S
O124 Co99 2.351 . S
O124 C127 1.244 . S
O125 Co99 2.155 . S
O125 C127 1.240 . S
O126 Co99 2.096 . S
O126 C107 1.247 . S
C127 O124 1.244 . S
C127 O125 1.240 . S
H128 C102 0.931 . S
H129 C111 0.931 . S
H130 C115 0.929 . S
H131 C117 0.930 . S
H132 C140 0.929 . S
H133 C142 0.930 . S
H134 C144 0.930 . S
H135 C147 0.929 . S
H136 C150 0.930 . S
H137 C152 0.960 . S
H138 C152 0.960 . S
H139 C152 0.960 . S
C140 H132 0.929 . S
C140 C141 1.377 . S
C140 C142 1.384 . S
C141 C140 1.377 . S
C141 C147 1.390 . S
C142 H133 0.930 . S
C142 C140 1.384 . S
C142 C143 1.372 . S
C143 C142 1.372 . S
C143 C144 1.400 . S
C143 C148 1.490 . S
C144 H134 0.930 . S
C144 C143 1.400 . S
C144 C147 1.386 . S
H145 C161 0.930 . S
H146 C162 0.931 . S
C147 H135 0.929 . S
C147 C141 1.390 . S
C147 C144 1.386 . S
C148 C143 1.490 . S
C148 C150 1.395 . S
C148 C151 1.403 . S
H149 C155 0.930 . S
C150 H136 0.930 . S
C150 C148 1.395 . S
C150 C153 1.403 . S
C151 C148 1.403 . S
C151 C152 1.524 . S
C151 C155 1.400 . S
C152 H137 0.960 . S
C152 H138 0.960 . S
C152 H139 0.960 . S
C152 C151 1.524 . S
C153 C150 1.403 . S
C153 C154 1.392 . S
C153 C157 1.495 . S
C154 C153 1.392 . S
C154 C155 1.385 . S
C154 C156 1.478 . S
C155 H149 0.930 . S
C155 C151 1.400 . S
C155 C154 1.385 . S
C156 C154 1.478 . S
C156 C158 1.381 . S
C156 C162 1.383 . S
C157 C153 1.495 . S
C157 H163 0.959 . S
C157 H164 0.961 . S
C157 H165 0.960 . S
C158 C156 1.381 . S
C158 C159 1.394 . S
C158 H166 0.930 . S
C159 C158 1.394 . S
C159 C160 1.383 . S
C159 H167 0.929 . S
C160 C159 1.383 . S
C160 C161 1.377 . S
C161 H145 0.930 . S
C161 C160 1.377 . S
C161 C162 1.379 . S
C162 H146 0.931 . S
C162 C156 1.383 . S
C162 C161 1.379 . S
H163 C157 0.959 . S
H164 C157 0.961 . S
H165 C157 0.960 . S
H166 C158 0.930 . S
H167 C159 0.929 . S
H168 C176 0.929 . S
H169 C178 0.930 . S
H170 C180 0.930 . S
H171 C183 0.929 . S
H172 C186 0.930 . S
H173 C188 0.960 . S
H174 C188 0.960 . S
H175 C188 0.960 . S
C176 H168 0.929 . S
C176 C177 1.377 . S
C176 C178 1.384 . S
C177 C176 1.377 . S
C177 C183 1.390 . S
C178 H169 0.930 . S
C178 C176 1.384 . S
C178 C179 1.372 . S
C179 C178 1.372 . S
C179 C180 1.400 . S
C179 C184 1.490 . S
C180 H170 0.930 . S
C180 C179 1.400 . S
C180 C183 1.386 . S
H181 C197 0.930 . S
H182 C198 0.931 . S
C183 H171 0.929 . S
C183 C177 1.390 . S
C183 C180 1.386 . S
C184 C179 1.490 . S
C184 C186 1.395 . S
C184 C187 1.403 . S
H185 C191 0.930 . S
C186 H172 0.930 . S
C186 C184 1.395 . S
C186 C189 1.403 . S
C187 C184 1.403 . S
C187 C188 1.524 . S
C187 C191 1.400 . S
C188 H173 0.960 . S
C188 H174 0.960 . S
C188 H175 0.960 . S
C188 C187 1.524 . S
C189 C186 1.403 . S
C189 C190 1.392 . S
C189 C193 1.495 . S
C190 C189 1.392 . S
C190 C191 1.385 . S
C190 C192 1.478 . S
C191 H185 0.930 . S
C191 C187 1.400 . S
C191 C190 1.385 . S
C192 C190 1.478 . S
C192 C194 1.381 . S
C192 C198 1.383 . S
C193 C189 1.495 . S
C193 H199 0.959 . S
C193 H200 0.961 . S
C193 H201 0.960 . S
C194 C192 1.381 . S
C194 C195 1.394 . S
C194 H202 0.930 . S
C195 C194 1.394 . S
C195 C196 1.383 . S
C195 H203 0.929 . S
C196 C195 1.383 . S
C196 C197 1.377 . S
C197 H181 0.930 . S
C197 C196 1.377 . S
C197 C198 1.379 . S
C198 H182 0.931 . S
C198 C192 1.383 . S
C198 C197 1.379 . S
H199 C193 0.959 . S
H200 C193 0.961 . S
H201 C193 0.960 . S
H202 C194 0.930 . S
H203 C195 0.929 . S
H204 C212 0.929 . S
H205 C214 0.930 . S
H206 C216 0.930 . S
H207 C219 0.929 . S
H208 C222 0.930 . S
H209 C224 0.960 . S
H210 C224 0.960 . S
H211 C224 0.960 . S
C212 H204 0.929 . S
C212 C213 1.377 . S
C212 C214 1.384 . S
C213 C212 1.377 . S
C213 C219 1.390 . S
C214 H205 0.930 . S
C214 C212 1.384 . S
C214 C215 1.372 . S
C215 C214 1.372 . S
C215 C216 1.400 . S
C215 C220 1.490 . S
C216 H206 0.930 . S
C216 C215 1.400 . S
C216 C219 1.386 . S
H217 C233 0.930 . S
H218 C234 0.931 . S
C219 H207 0.929 . S
C219 C213 1.390 . S
C219 C216 1.386 . S
C220 C215 1.490 . S
C220 C222 1.395 . S
C220 C223 1.403 . S
H221 C227 0.930 . S
C222 H208 0.930 . S
C222 C220 1.395 . S
C222 C225 1.403 . S
C223 C220 1.403 . S
C223 C224 1.524 . S
C223 C227 1.400 . S
C224 H209 0.960 . S
C224 H210 0.960 . S
C224 H211 0.960 . S
C224 C223 1.524 . S
C225 C222 1.403 . S
C225 C226 1.392 . S
C225 C229 1.495 . S
C226 C225 1.392 . S
C226 C227 1.385 . S
C226 C228 1.478 . S
C227 H221 0.930 . S
C227 C223 1.400 . S
C227 C226 1.385 . S
C228 C226 1.478 . S
C228 C230 1.381 . S
C228 C234 1.383 . S
C229 C225 1.495 . S
C229 H235 0.959 . S
C229 H236 0.961 . S
C229 H237 0.960 . S
C230 C228 1.381 . S
C230 C231 1.394 . S
C230 H238 0.930 . S
C231 C230 1.394 . S
C231 C232 1.383 . S
C231 H239 0.929 . S
C232 C231 1.383 . S
C232 C233 1.377 . S
C233 H217 0.930 . S
C233 C232 1.377 . S
C233 C234 1.379 . S
C234 H218 0.931 . S
C234 C228 1.383 . S
C234 C233 1.379 . S
H235 C229 0.959 . S
H236 C229 0.961 . S
H237 C229 0.960 . S
H238 C230 0.930 . S
H239 C231 0.929 . S
H240 C248 0.929 . S
H241 C250 0.930 . S
H242 C252 0.930 . S
H243 C255 0.929 . S
H244 C258 0.930 . S
H245 C260 0.960 . S
H246 C260 0.960 . S
H247 C260 0.960 . S
C248 H240 0.929 . S
C248 C249 1.377 . S
C248 C250 1.384 . S
C249 C248 1.377 . S
C249 C255 1.390 . S
C250 H241 0.930 . S
C250 C248 1.384 . S
C250 C251 1.372 . S
C251 C250 1.372 . S
C251 C252 1.400 . S
C251 C256 1.490 . S
C252 H242 0.930 . S
C252 C251 1.400 . S
C252 C255 1.386 . S
H253 C269 0.930 . S
H254 C270 0.931 . S
C255 H243 0.929 . S
C255 C249 1.390 . S
C255 C252 1.386 . S
C256 C251 1.490 . S
C256 C258 1.395 . S
C256 C259 1.403 . S
H257 C263 0.930 . S
C258 H244 0.930 . S
C258 C256 1.395 . S
C258 C261 1.403 . S
C259 C256 1.403 . S
C259 C260 1.524 . S
C259 C263 1.400 . S
C260 H245 0.960 . S
C260 H246 0.960 . S
C260 H247 0.960 . S
C260 C259 1.524 . S
C261 C258 1.403 . S
C261 C262 1.392 . S
C261 C265 1.495 . S
C262 C261 1.392 . S
C262 C263 1.385 . S
C262 C264 1.478 . S
C263 H257 0.930 . S
C263 C259 1.400 . S
C263 C262 1.385 . S
C264 C262 1.478 . S
C264 C266 1.381 . S
C264 C270 1.383 . S
C265 C261 1.495 . S
C265 H271 0.959 . S
C265 H272 0.961 . S
C265 H273 0.960 . S
C266 C264 1.381 . S
C266 C267 1.394 . S
C266 H274 0.930 . S
C267 C266 1.394 . S
C267 C268 1.383 . S
C267 H275 0.929 . S
C268 C267 1.383 . S
C268 C269 1.377 . S
C269 H253 0.930 . S
C269 C268 1.377 . S
C269 C270 1.379 . S
C270 H254 0.931 . S
C270 C264 1.383 . S
C270 C269 1.379 . S
H271 C265 0.959 . S
H272 C265 0.961 . S
H273 C265 0.960 . S
H274 C266 0.930 . S
H275 C267 0.929 . S
H276 C284 0.929 . S
H277 C286 0.930 . S
H278 C288 0.930 . S
H279 C291 0.929 . S
H280 C294 0.930 . S
H281 C296 0.960 . S
H282 C296 0.960 . S
H283 C296 0.960 . S
C284 H276 0.929 . S
C284 C285 1.377 . S
C284 C286 1.384 . S
C285 C284 1.377 . S
C285 C291 1.390 . S
C286 H277 0.930 . S
C286 C284 1.384 . S
C286 C287 1.372 . S
C287 C286 1.372 . S
C287 C288 1.400 . S
C287 C292 1.490 . S
C288 H278 0.930 . S
C288 C287 1.400 . S
C288 C291 1.386 . S
H289 C305 0.930 . S
H290 C306 0.931 . S
C291 H279 0.929 . S
C291 C285 1.390 . S
C291 C288 1.386 . S
C292 C287 1.490 . S
C292 C294 1.395 . S
C292 C295 1.403 . S
H293 C299 0.930 . S
C294 H280 0.930 . S
C294 C292 1.395 . S
C294 C297 1.403 1_655 S
C295 C292 1.403 . S
C295 C296 1.524 1_554 S
C295 C299 1.400 1_655 S
C296 H281 0.960 . S
C296 H282 0.960 . S
C296 H283 0.960 . S
C296 C295 1.524 1_556 S
C297 C294 1.403 1_455 S
C297 C298 1.392 . S
C297 C301 1.495 . S
C298 C297 1.392 . S
C298 C299 1.385 . S
C298 C300 1.478 . S
C299 H293 0.930 . S
C299 C295 1.400 1_455 S
C299 C298 1.385 . S
C300 C298 1.478 . S
C300 C302 1.381 . S
C300 C306 1.383 . S
C301 C297 1.495 . S
C301 H307 0.959 . S
C301 H308 0.961 . S
C301 H309 0.960 . S
C302 C300 1.381 . S
C302 C303 1.394 . S
C302 H310 0.930 . S
C303 C302 1.394 . S
C303 C304 1.383 . S
C303 H311 0.929 . S
C304 C303 1.383 . S
C304 C305 1.377 . S
C305 H289 0.930 . S
C305 C304 1.377 . S
C305 C306 1.379 . S
C306 H290 0.931 . S
C306 C300 1.383 . S
C306 C305 1.379 . S
H307 C301 0.959 . S
H308 C301 0.961 . S
H309 C301 0.960 . S
H310 C302 0.930 . S
H311 C303 0.929 . S
H312 C320 0.929 . S
H313 C322 0.930 . S
H314 C324 0.930 . S
H315 C327 0.929 . S
H316 C330 0.930 . S
H317 C332 0.960 1_545 S
H318 C332 0.960 . S
H319 C332 0.960 . S
C320 H312 0.929 . S
C320 C321 1.377 . S
C320 C322 1.384 . S
C321 C320 1.377 . S
C321 C327 1.390 . S
C322 H313 0.930 . S
C322 C320 1.384 . S
C322 C323 1.372 . S
C323 C322 1.372 . S
C323 C324 1.400 . S
C323 C328 1.490 . S
C324 H314 0.930 . S
C324 C323 1.400 . S
C324 C327 1.386 . S
H325 C341 0.930 . S
H326 C342 0.931 . S
C327 H315 0.929 . S
C327 C321 1.390 . S
C327 C324 1.386 . S
C328 C323 1.490 . S
C328 C330 1.395 . S
C328 C331 1.392 1_565 S
H329 C335 0.930 . S
C330 H316 0.930 . S
C330 C328 1.395 . S
C330 C333 1.403 1_565 S
C331 C328 1.392 1_545 S
C331 C332 1.518 1_545 S
C331 C335 1.417 . S
C332 H317 0.960 1_565 S
C332 H318 0.960 . S
C332 H319 0.960 . S
C332 C331 1.518 1_565 S
C333 C330 1.403 1_545 S
C333 C334 1.392 . S
C333 C337 1.495 1_554 S
C334 C333 1.392 . S
C334 C335 1.385 . S
C334 C336 1.478 . S
C335 H329 0.930 . S
C335 C331 1.417 . S
C335 C334 1.385 . S
C336 C334 1.478 . S
C336 C338 1.381 . S
C336 C342 1.383 . S
C337 C333 1.495 1_556 S
C337 H343 0.959 . S
C337 H344 0.961 . S
C337 H345 0.960 . S
C338 C336 1.381 . S
C338 C339 1.394 . S
C338 H346 0.930 . S
C339 C338 1.394 . S
C339 C340 1.383 . S
C339 H347 0.929 . S
C340 C339 1.383 . S
C340 C341 1.377 . S
C341 H325 0.930 . S
C341 C340 1.377 . S
C341 C342 1.379 . S
C342 H326 0.931 . S
C342 C336 1.383 . S
C342 C341 1.379 . S
H343 C337 0.959 . S
H344 C337 0.961 . S
H345 C337 0.960 . S
H346 C338 0.930 . S
H347 C339 0.929 . S
H348 C356 0.929 . S
H349 C358 0.930 . S
H350 C360 0.930 . S
H351 C363 0.929 . S
H352 C366 0.930 . S
H353 C368 0.960 . S
H354 C368 0.960 . S
H355 C368 0.960 . S
C356 H348 0.929 . S
C356 C357 1.377 . S
C356 C358 1.384 . S
C357 C356 1.377 . S
C357 C363 1.390 1_554 S
C358 H349 0.930 . S
C358 C356 1.384 . S
C358 C359 1.372 . S
C359 C358 1.372 . S
C359 C360 1.400 1_554 S
C359 C364 1.490 . S
C360 H350 0.930 . S
C360 C359 1.400 1_556 S
C360 C363 1.386 . S
H361 C377 0.930 . S
H362 C378 0.931 . S
C363 H351 0.929 . S
C363 C357 1.390 1_556 S
C363 C360 1.386 . S
C364 C359 1.490 . S
C364 C366 1.395 . S
C364 C367 1.403 . S
H365 C371 0.930 . S
C366 H352 0.930 . S
C366 C364 1.395 . S
C366 C369 1.403 . S
C367 C364 1.403 . S
C367 C368 1.524 . S
C367 C371 1.400 . S
C368 H353 0.960 . S
C368 H354 0.960 . S
C368 H355 0.960 . S
C368 C367 1.524 . S
C369 C366 1.403 . S
C369 C370 1.392 . S
C369 C373 1.495 . S
C370 C369 1.392 . S
C370 C371 1.385 . S
C370 C372 1.478 . S
C371 H365 0.930 . S
C371 C367 1.400 . S
C371 C370 1.385 . S
C372 C370 1.478 . S
C372 C374 1.381 . S
C372 C378 1.383 1_554 S
C373 C369 1.495 . S
C373 H379 0.959 . S
C373 H380 0.961 . S
C373 H381 0.960 . S
C374 C372 1.381 . S
C374 C375 1.394 . S
C374 H382 0.930 . S
C375 C374 1.394 . S
C375 C376 1.383 . S
C375 H383 0.929 . S
C376 C375 1.383 . S
C376 C377 1.377 1_554 S
C377 H361 0.930 . S
C377 C376 1.377 1_556 S
C377 C378 1.379 . S
C378 H362 0.931 . S
C378 C372 1.383 1_556 S
C378 C377 1.379 . S
H379 C373 0.959 . S
H380 C373 0.961 . S
H381 C373 0.960 . S
H382 C374 0.930 . S
H383 C375 0.929 . S
H384 C392 0.929 . S
H385 C394 0.930 . S
H386 C396 0.930 . S
H387 C399 0.929 . S
H388 C402 0.930 . S
H389 C404 0.960 . S
H390 C404 0.960 . S
H391 C404 0.960 . S
C392 H384 0.929 . S
C392 C393 1.377 . S
C392 C394 1.384 . S
C393 C392 1.377 . S
C393 C399 1.390 . S
C394 H385 0.930 . S
C394 C392 1.384 . S
C394 C395 1.372 . S
C395 C394 1.372 . S
C395 C396 1.400 . S
C395 C400 1.490 . S
C396 H386 0.930 . S
C396 C395 1.400 . S
C396 C399 1.386 . S
H397 C413 0.930 . S
H398 C414 0.931 . S
C399 H387 0.929 . S
C399 C393 1.390 . S
C399 C396 1.386 . S
C400 C395 1.490 . S
C400 C402 1.395 . S
C400 C403 1.403 . S
H401 C407 0.930 . S
C402 H388 0.930 . S
C402 C400 1.395 . S
C402 C405 1.403 . S
C403 C400 1.403 . S
C403 C404 1.524 . S
C403 C407 1.400 . S
C404 H389 0.960 . S
C404 H390 0.960 . S
C404 H391 0.960 . S
C404 C403 1.524 . S
C405 C402 1.403 . S
C405 C406 1.392 . S
C405 C409 1.495 . S
C406 C405 1.392 . S
C406 C407 1.385 . S
C406 C408 1.478 . S
C407 H401 0.930 . S
C407 C403 1.400 . S
C407 C406 1.385 . S
C408 C406 1.478 . S
C408 C410 1.381 . S
C408 C414 1.383 . S
C409 C405 1.495 . S
C409 H415 0.959 . S
C409 H416 0.961 . S
C409 H417 0.960 . S
C410 C408 1.381 . S
C410 C411 1.394 . S
C410 H418 0.934 . S
C411 C410 1.394 . S
C411 C412 1.383 . S
C411 H419 0.929 1_554 S
C412 C411 1.383 . S
C412 C413 1.377 . S
C413 H397 0.930 . S
C413 C412 1.377 . S
C413 C414 1.379 . S
C414 H398 0.931 . S
C414 C408 1.383 . S
C414 C413 1.379 . S
H415 C409 0.959 . S
H416 C409 0.961 . S
H417 C409 0.960 . S
H418 C410 0.934 . S
H419 C411 0.929 1_556 S
H420 C428 0.929 . S
H421 C430 0.930 . S
H422 C432 0.930 . S
H423 C435 0.929 . S
H424 C438 0.930 . S
H425 C440 0.960 . S
H426 C440 0.960 . S
H427 C440 0.960 . S
C428 H420 0.929 . S
C428 C429 1.377 . S
C428 C430 1.384 . S
C429 C428 1.377 . S
C429 C435 1.390 . S
C430 H421 0.930 . S
C430 C428 1.384 . S
C430 C431 1.372 . S
C431 C430 1.372 . S
C431 C432 1.400 . S
C431 C436 1.490 . S
C432 H422 0.930 . S
C432 C431 1.400 . S
C432 C435 1.386 . S
H433 C449 0.930 . S
H434 C450 0.931 . S
C435 H423 0.929 . S
C435 C429 1.390 . S
C435 C432 1.386 . S
C436 C431 1.490 . S
C436 C438 1.395 . S
C436 C439 1.403 . S
H437 C443 0.930 . S
C438 H424 0.930 . S
C438 C436 1.395 . S
C438 C441 1.403 . S
C439 C436 1.403 . S
C439 C440 1.524 . S
C439 C443 1.400 . S
C440 H425 0.960 . S
C440 H426 0.960 . S
C440 H427 0.960 . S
C440 C439 1.524 . S
C441 C438 1.403 . S
C441 C442 1.392 . S
C441 C445 1.495 . S
C442 C441 1.392 . S
C442 C443 1.385 . S
C442 C444 1.478 . S
C443 H437 0.930 . S
C443 C439 1.400 . S
C443 C442 1.385 . S
C444 C442 1.478 . S
C444 C446 1.381 . S
C444 C450 1.383 . S
C445 C441 1.495 . S
C445 H451 0.959 . S
C445 H452 0.961 . S
C445 H453 0.960 . S
C446 C444 1.381 . S
C446 C447 1.394 . S
C446 H454 0.930 . S
C447 C446 1.394 . S
C447 C448 1.383 . S
C447 H455 0.929 . S
C448 C447 1.383 . S
C448 C449 1.377 . S
C449 H433 0.930 . S
C449 C448 1.377 . S
C449 C450 1.379 . S
C450 H434 0.931 . S
C450 C444 1.383 . S
C450 C449 1.379 . S
H451 C445 0.959 . S
H452 C445 0.961 . S
H453 C445 0.960 . S
H454 C446 0.930 . S
H455 C447 0.929 . S
H456 C464 0.929 . S
H457 C466 0.930 . S
H458 C468 0.930 . S
H459 C471 0.929 . S
H460 C474 0.930 . S
H461 C476 0.960 . S
H462 C476 0.960 . S
H463 C476 0.960 1_554 S
C464 H456 0.929 . S
C464 C465 1.377 . S
C464 C466 1.384 . S
C465 C464 1.377 . S
C465 C471 1.390 . S
C466 H457 0.930 . S
C466 C464 1.384 . S
C466 C467 1.372 . S
C467 C466 1.372 . S
C467 C468 1.400 . S
C467 C472 1.490 . S
C468 H458 0.930 . S
C468 C467 1.400 . S
C468 C471 1.386 . S
H469 C485 0.930 . S
H470 C486 0.931 . S
C471 H459 0.929 . S
C471 C465 1.390 . S
C471 C468 1.386 . S
C472 C467 1.490 . S
C472 C474 1.395 . S
C472 C475 1.403 . S
H473 C479 0.930 . S
C474 H460 0.930 . S
C474 C472 1.395 . S
C474 C477 1.403 . S
C475 C472 1.403 . S
C475 C476 1.524 1_554 S
C475 C479 1.400 . S
C476 H461 0.960 . S
C476 H462 0.960 . S
C476 H463 0.960 1_556 S
C476 C475 1.524 1_556 S
C477 C474 1.403 . S
C477 C478 1.392 . S
C477 C481 1.495 . S
C478 C477 1.392 . S
C478 C479 1.385 . S
C478 C480 1.478 . S
C479 H473 0.930 . S
C479 C475 1.400 . S
C479 C478 1.385 . S
C480 C478 1.478 . S
C480 C482 1.381 . S
C480 C486 1.383 . S
C481 C477 1.495 . S
C481 H487 0.959 . S
C481 H488 0.961 . S
C481 H489 0.960 . S
C482 C480 1.381 . S
C482 C483 1.394 . S
C482 H490 0.930 . S
C483 C482 1.394 . S
C483 C484 1.383 . S
C483 H491 0.929 . S
C484 C483 1.383 . S
C484 C485 1.377 . S
C485 H469 0.930 . S
C485 C484 1.377 . S
C485 C486 1.379 . S
C486 H470 0.931 . S
C486 C480 1.383 . S
C486 C485 1.379 . S
H487 C481 0.959 . S
H488 C481 0.961 . S
H489 C481 0.960 . S
H490 C482 0.930 . S
H491 C483 0.929 . S
C141 N14 1.438 . S
C160 N5 1.434 . S
C177 N47 1.445 . S
C196 N38 1.447 . S
C213 N71 1.455 . S
C232 N80 1.426 . S
C249 N104 1.448 . S
C268 N113 1.415 . S
C285 C94 0.851 . S
C304 C28 0.851 . S
C321 C127 0.852 . S
C340 C61 0.852 . S
C357 C41 1.414 . S
C376 C17 1.419 . S
C393 C83 1.166 . S
C412 C50 1.180 . S
C429 C116 1.433 . S
C448 C74 1.424 . S
C465 C107 1.724 . S
C484 C8 1.713 . S
