# Generated by pormake.
# Topology uke, (4)-cn, num edge types: 1
# Building blocks:
#     Node 0, Type 0, BuildingBlock: GALJAG_clean_sbu_0, # of connection points: 4
#     Node 1, Type 0, BuildingBlock: GALJAG_clean_sbu_0, # of connection points: 4
#     Node 2, Type 0, BuildingBlock: GALJAG_clean_sbu_0, # of connection points: 4
#     Node 3, Type 0, BuildingBlock: GALJAG_clean_sbu_0, # of connection points: 4
#     Node 4, Type 0, BuildingBlock: GALJAG_clean_sbu_0, # of connection points: 4
#     Node 5, Type 0, BuildingBlock: GALJAG_clean_sbu_0, # of connection points: 4
#     Node 6, Type 0, BuildingBlock: GALJAG_clean_sbu_0, # of connection points: 4
#     Node 7, Type 0, BuildingBlock: GALJAG_clean_sbu_0, # of connection points: 4
#     Node 8, Type 0, BuildingBlock: GALJAG_clean_sbu_0, # of connection points: 4
#     Node 9, Type 0, BuildingBlock: GALJAG_clean_sbu_0, # of connection points: 4
#     Node 10, Type 0, BuildingBlock: GALJAG_clean_sbu_0, # of connection points: 4
#     Node 11, Type 0, BuildingBlock: GALJAG_clean_sbu_0, # of connection points: 4
#     Node 12, Type 0, BuildingBlock: GALJAG_clean_sbu_0, # of connection points: 4
#     Node 13, Type 0, BuildingBlock: GALJAG_clean_sbu_0, # of connection points: 4
#     Node 14, Type 0, BuildingBlock: GALJAG_clean_sbu_0, # of connection points: 4
#     Node 15, Type 0, BuildingBlock: GALJAG_clean_sbu_0, # of connection points: 4
#     Node 16, Type 0, BuildingBlock: GALJAG_clean_sbu_0, # of connection points: 4
#     Node 17, Type 0, BuildingBlock: GALJAG_clean_sbu_0, # of connection points: 4
#     Node 18, Type 0, BuildingBlock: GALJAG_clean_sbu_0, # of connection points: 4
#     Node 19, Type 0, BuildingBlock: GALJAG_clean_sbu_0, # of connection points: 4
#     Node 20, Type 0, BuildingBlock: GALJAG_clean_sbu_0, # of connection points: 4
#     Node 21, Type 0, BuildingBlock: GALJAG_clean_sbu_0, # of connection points: 4
#     Node 22, Type 0, BuildingBlock: GALJAG_clean_sbu_0, # of connection points: 4
#     Node 23, Type 0, BuildingBlock: GALJAG_clean_sbu_0, # of connection points: 4
#     Node 24, Type 0, BuildingBlock: GALJAG_clean_sbu_0, # of connection points: 4
#     Node 25, Type 0, BuildingBlock: GALJAG_clean_sbu_0, # of connection points: 4
#     Node 26, Type 0, BuildingBlock: GALJAG_clean_sbu_0, # of connection points: 4
#     Node 27, Type 0, BuildingBlock: GALJAG_clean_sbu_0, # of connection points: 4
#     Node 28, Type 0, BuildingBlock: GALJAG_clean_sbu_0, # of connection points: 4
#     Node 29, Type 0, BuildingBlock: GALJAG_clean_sbu_0, # of connection points: 4
#     Node 30, Type 0, BuildingBlock: GALJAG_clean_sbu_0, # of connection points: 4
#     Node 31, Type 0, BuildingBlock: GALJAG_clean_sbu_0, # of connection points: 4
#     Edge 32, Type (0, 0), BuildingBlock: OJICUG_clean_linker_0, # of connection points: 2
#     Edge 33, Type (0, 0), BuildingBlock: OJICUG_clean_linker_0, # of connection points: 2
#     Edge 34, Type (0, 0), BuildingBlock: OJICUG_clean_linker_0, # of connection points: 2
#     Edge 35, Type (0, 0), BuildingBlock: OJICUG_clean_linker_0, # of connection points: 2
#     Edge 36, Type (0, 0), BuildingBlock: OJICUG_clean_linker_0, # of connection points: 2
#     Edge 37, Type (0, 0), BuildingBlock: OJICUG_clean_linker_0, # of connection points: 2
#     Edge 38, Type (0, 0), BuildingBlock: OJICUG_clean_linker_0, # of connection points: 2
#     Edge 39, Type (0, 0), BuildingBlock: OJICUG_clean_linker_0, # of connection points: 2
#     Edge 40, Type (0, 0), BuildingBlock: OJICUG_clean_linker_0, # of connection points: 2
#     Edge 41, Type (0, 0), BuildingBlock: OJICUG_clean_linker_0, # of connection points: 2
#     Edge 42, Type (0, 0), BuildingBlock: OJICUG_clean_linker_0, # of connection points: 2
#     Edge 43, Type (0, 0), BuildingBlock: OJICUG_clean_linker_0, # of connection points: 2
#     Edge 44, Type (0, 0), BuildingBlock: OJICUG_clean_linker_0, # of connection points: 2
#     Edge 45, Type (0, 0), BuildingBlock: OJICUG_clean_linker_0, # of connection points: 2
#     Edge 46, Type (0, 0), BuildingBlock: OJICUG_clean_linker_0, # of connection points: 2
#     Edge 47, Type (0, 0), BuildingBlock: OJICUG_clean_linker_0, # of connection points: 2
#     Edge 48, Type (0, 0), BuildingBlock: OJICUG_clean_linker_0, # of connection points: 2
#     Edge 49, Type (0, 0), BuildingBlock: OJICUG_clean_linker_0, # of connection points: 2
#     Edge 50, Type (0, 0), BuildingBlock: OJICUG_clean_linker_0, # of connection points: 2
#     Edge 51, Type (0, 0), BuildingBlock: OJICUG_clean_linker_0, # of connection points: 2
#     Edge 52, Type (0, 0), BuildingBlock: OJICUG_clean_linker_0, # of connection points: 2
#     Edge 53, Type (0, 0), BuildingBlock: OJICUG_clean_linker_0, # of connection points: 2
#     Edge 54, Type (0, 0), BuildingBlock: OJICUG_clean_linker_0, # of connection points: 2
#     Edge 55, Type (0, 0), BuildingBlock: OJICUG_clean_linker_0, # of connection points: 2
#     Edge 56, Type (0, 0), BuildingBlock: OJICUG_clean_linker_0, # of connection points: 2
#     Edge 57, Type (0, 0), BuildingBlock: OJICUG_clean_linker_0, # of connection points: 2
#     Edge 58, Type (0, 0), BuildingBlock: OJICUG_clean_linker_0, # of connection points: 2
#     Edge 59, Type (0, 0), BuildingBlock: OJICUG_clean_linker_0, # of connection points: 2
#     Edge 60, Type (0, 0), BuildingBlock: OJICUG_clean_linker_0, # of connection points: 2
#     Edge 61, Type (0, 0), BuildingBlock: OJICUG_clean_linker_0, # of connection points: 2
#     Edge 62, Type (0, 0), BuildingBlock: OJICUG_clean_linker_0, # of connection points: 2
#     Edge 63, Type (0, 0), BuildingBlock: OJICUG_clean_linker_0, # of connection points: 2
#     Edge 64, Type (0, 0), BuildingBlock: OJICUG_clean_linker_0, # of connection points: 2
#     Edge 65, Type (0, 0), BuildingBlock: OJICUG_clean_linker_0, # of connection points: 2
#     Edge 66, Type (0, 0), BuildingBlock: OJICUG_clean_linker_0, # of connection points: 2
#     Edge 67, Type (0, 0), BuildingBlock: OJICUG_clean_linker_0, # of connection points: 2
#     Edge 68, Type (0, 0), BuildingBlock: OJICUG_clean_linker_0, # of connection points: 2
#     Edge 69, Type (0, 0), BuildingBlock: OJICUG_clean_linker_0, # of connection points: 2
#     Edge 70, Type (0, 0), BuildingBlock: OJICUG_clean_linker_0, # of connection points: 2
#     Edge 71, Type (0, 0), BuildingBlock: OJICUG_clean_linker_0, # of connection points: 2
#     Edge 72, Type (0, 0), BuildingBlock: OJICUG_clean_linker_0, # of connection points: 2
#     Edge 73, Type (0, 0), BuildingBlock: OJICUG_clean_linker_0, # of connection points: 2
#     Edge 74, Type (0, 0), BuildingBlock: OJICUG_clean_linker_0, # of connection points: 2
#     Edge 75, Type (0, 0), BuildingBlock: OJICUG_clean_linker_0, # of connection points: 2
#     Edge 76, Type (0, 0), BuildingBlock: OJICUG_clean_linker_0, # of connection points: 2
#     Edge 77, Type (0, 0), BuildingBlock: OJICUG_clean_linker_0, # of connection points: 2
#     Edge 78, Type (0, 0), BuildingBlock: OJICUG_clean_linker_0, # of connection points: 2
#     Edge 79, Type (0, 0), BuildingBlock: OJICUG_clean_linker_0, # of connection points: 2
#     Edge 80, Type (0, 0), BuildingBlock: OJICUG_clean_linker_0, # of connection points: 2
#     Edge 81, Type (0, 0), BuildingBlock: OJICUG_clean_linker_0, # of connection points: 2
#     Edge 82, Type (0, 0), BuildingBlock: OJICUG_clean_linker_0, # of connection points: 2
#     Edge 83, Type (0, 0), BuildingBlock: OJICUG_clean_linker_0, # of connection points: 2
#     Edge 84, Type (0, 0), BuildingBlock: OJICUG_clean_linker_0, # of connection points: 2
#     Edge 85, Type (0, 0), BuildingBlock: OJICUG_clean_linker_0, # of connection points: 2
#     Edge 86, Type (0, 0), BuildingBlock: OJICUG_clean_linker_0, # of connection points: 2
#     Edge 87, Type (0, 0), BuildingBlock: OJICUG_clean_linker_0, # of connection points: 2
#     Edge 88, Type (0, 0), BuildingBlock: OJICUG_clean_linker_0, # of connection points: 2
#     Edge 89, Type (0, 0), BuildingBlock: OJICUG_clean_linker_0, # of connection points: 2
#     Edge 90, Type (0, 0), BuildingBlock: OJICUG_clean_linker_0, # of connection points: 2
#     Edge 91, Type (0, 0), BuildingBlock: OJICUG_clean_linker_0, # of connection points: 2
#     Edge 92, Type (0, 0), BuildingBlock: OJICUG_clean_linker_0, # of connection points: 2
#     Edge 93, Type (0, 0), BuildingBlock: OJICUG_clean_linker_0, # of connection points: 2
#     Edge 94, Type (0, 0), BuildingBlock: OJICUG_clean_linker_0, # of connection points: 2
#     Edge 95, Type (0, 0), BuildingBlock: OJICUG_clean_linker_0, # of connection points: 2
# Relax obj value: 0.063
# Max RMSD: 0.130
# Mean RMSD: 0.130
data_MOF--net-uke--node1-GALJAG_clean_sbu_0--edge1-OJICUG_clean_linker_0
_symmetry_space_group_name_H-M    P1
_symmetry_Int_Tables_number       1
_symmetry_cell_setting            triclinic
loop_
_symmetry_equiv_pos_as_xyz
'x, y, z'
_cell_length_a     15.746147
_cell_length_b     82.801986
_cell_length_c     38.876634
_cell_angle_alpha  89.991973
_cell_angle_beta   89.974674
_cell_angle_gamma 90.000522
loop_
_atom_site_label
_atom_site_type_symbol
_atom_site_fract_x
_atom_site_fract_y
_atom_site_fract_z
_atom_type_partial_charge
In0 In 0.087 0.05544 0.25974 0.0
O1 O 0.9555 0.04989 0.28021 0.0
O2 O 0.06079 0.05008 0.31529 0.0
C3 C 0.09859 0.06019 0.19225 0.0
C4 C 0.10406 0.08649 0.27661 0.0
C5 C 0.16119 0.02662 0.2555 0.0
O6 O 0.02777 0.05711 0.20654 0.0
O7 O 0.16162 0.06117 0.21226 0.0
O8 O 0.19944 0.03866 0.26866 0.0
O9 O 0.08579 0.02922 0.24578 0.0
C10 C 0.98163 0.04834 0.31096 0.0
O11 O 0.16524 0.0766 0.28011 0.0
O12 O 0.03591 0.08056 0.265 0.0
In13 In 0.14984 0.18654 0.25939 0.0
O14 O 0.28103 0.19234 0.27997 0.0
O15 O 0.17544 0.19205 0.31492 0.0
C16 C 0.13947 0.18181 0.19183 0.0
C17 C 0.13354 0.15547 0.2764 0.0
C18 C 0.0731 0.21513 0.25523 0.0
O19 O 0.20988 0.18508 0.20623 0.0
O20 O 0.07635 0.18062 0.21176 0.0
O21 O 0.03591 0.20295 0.26834 0.0
O22 O 0.1487 0.21278 0.24547 0.0
C23 C 0.25455 0.19391 0.31067 0.0
O24 O 0.07212 0.16532 0.27977 0.0
O25 O 0.20164 0.16145 0.26484 0.0
In26 In 0.08592 0.18659 0.97729 0.0
O27 O 0.16492 0.16553 0.95689 0.0
O28 O 0.03566 0.16141 0.97188 0.0
C29 C 0.16078 0.21538 0.98108 0.0
C30 C 0.97939 0.19367 0.92643 0.0
C31 C 0.09725 0.18189 0.04486 0.0
O32 O 0.19854 0.20329 0.96788 0.0
O33 O 0.08556 0.21284 0.99111 0.0
O34 O 0.02651 0.18496 0.03053 0.0
O35 O 0.16033 0.1809 0.02486 0.0
C36 C 0.10405 0.15556 0.9603 0.0
O37 O 0.95385 0.19207 0.95725 0.0
O38 O 0.05849 0.19198 0.92184 0.0
In39 In 0.1518 0.05556 0.97773 0.0
O40 O 0.2834 0.04974 0.9575 0.0
O41 O 0.17834 0.04996 0.92235 0.0
C42 C 0.14129 0.06026 0.04531 0.0
C43 C 0.1353 0.08662 0.96058 0.0
C44 C 0.07404 0.02705 0.98149 0.0
O45 O 0.21168 0.05696 0.03091 0.0
O46 O 0.07827 0.06149 0.02537 0.0
O47 O 0.03752 0.03929 0.96837 0.0
O48 O 0.14948 0.02931 0.99153 0.0
C49 C 0.25737 0.0481 0.92677 0.0
O50 O 0.07405 0.07674 0.95722 0.0
O51 O 0.20341 0.08067 0.97219 0.0
In52 In 0.90053 0.9369 0.72474 0.0
O53 O 0.82311 0.91566 0.70421 0.0
O54 O 0.95212 0.91179 0.71985 0.0
C55 C 0.82563 0.96567 0.72877 0.0
C56 C 0.00666 0.94399 0.67376 0.0
C57 C 0.88783 0.93225 0.79224 0.0
O58 O 0.7878 0.95359 0.71557 0.0
O59 O 0.90103 0.96314 0.73859 0.0
O60 O 0.95885 0.93536 0.77813 0.0
O61 O 0.82521 0.93117 0.77204 0.0
C62 C 0.88436 0.9058 0.708 0.0
O63 O 0.03232 0.94248 0.70458 0.0
O64 O 0.92756 0.94224 0.66924 0.0
In65 In 0.83921 0.80583 0.7265 0.0
O66 O 0.70791 0.79996 0.70623 0.0
O67 O 0.81315 0.80006 0.67111 0.0
C68 C 0.84879 0.81091 0.79397 0.0
C69 C 0.85571 0.83682 0.70883 0.0
C70 C 0.91554 0.77721 0.7314 0.0
O71 O 0.77858 0.80758 0.77948 0.0
O72 O 0.9122 0.81197 0.77416 0.0
O73 O 0.95293 0.78929 0.71795 0.0
O74 O 0.84 0.77968 0.74112 0.0
C75 C 0.73407 0.79824 0.67552 0.0
O76 O 0.91719 0.82696 0.70579 0.0
O77 O 0.7875 0.83088 0.72038 0.0
In78 In 0.89851 0.80623 0.00853 0.0
O79 O 0.02973 0.80065 0.02925 0.0
O80 O 0.92398 0.80083 0.06413 0.0
C81 C 0.88852 0.81103 0.941 0.0
C82 C 0.87998 0.83726 0.02532 0.0
C83 C 0.8245 0.77739 0.00418 0.0
O84 O 0.95905 0.80798 0.95553 0.0
O85 O 0.82499 0.81192 0.96079 0.0
O86 O 0.78614 0.78942 0.01735 0.0
O87 O 0.89984 0.78002 -0.0056 0.0
C88 C 0.00316 0.79904 0.05993 0.0
O89 O 0.81902 0.8273 0.02851 0.0
O90 O 0.94875 0.8314 0.01415 0.0
In91 In 0.83073 0.93722 0.0066 0.0
O92 O 0.69887 0.94283 0.02689 0.0
O93 O 0.80404 0.94272 0.062 0.0
C94 C 0.84243 0.93251 0.93906 0.0
C95 C 0.84771 0.90618 0.02381 0.0
C96 C 0.90772 0.9658 0.00304 0.0
O97 O 0.77175 0.93579 0.95325 0.0
O98 O 0.90513 0.93132 0.95918 0.0
O99 O 0.94445 0.95358 0.01612 0.0
O100 O 0.83236 0.96351 -0.00706 0.0
C101 C 0.72491 0.94444 0.05763 0.0
O102 O 0.9087 0.91611 0.0273 0.0
O103 O 0.77966 0.91207 0.01199 0.0
In104 In 0.08454 0.55614 0.75892 0.0
O105 O 0.16315 0.57714 0.77979 0.0
O106 O 0.03394 0.58129 0.76484 0.0
C107 C 0.16017 0.52746 0.75408 0.0
C108 C 0.97901 0.54868 0.8099 0.0
C109 C 0.09552 0.56111 0.69145 0.0
O110 O 0.19775 0.5395 0.76752 0.0
O111 O 0.08468 0.52997 0.74438 0.0
O112 O 0.0249 0.55787 0.70575 0.0
O113 O 0.1585 0.56218 0.71146 0.0
C114 C 0.10225 0.58711 0.77657 0.0
O115 O 0.95287 0.55049 0.77922 0.0
O116 O 0.05818 0.55035 0.81427 0.0
In117 In 0.15276 0.68701 0.75994 0.0
O118 O 0.28486 0.69252 0.7799 0.0
O119 O 0.18015 0.69256 0.81529 0.0
C120 C 0.14066 0.68207 0.69251 0.0
C121 C 0.13487 0.65601 0.77726 0.0
C122 C 0.07789 0.71579 0.75571 0.0
O123 O 0.21157 0.68522 0.70663 0.0
O124 O 0.07784 0.68113 0.71265 0.0
O125 O 0.04027 0.70375 0.76917 0.0
O126 O 0.15306 0.71322 0.74564 0.0
C127 C 0.25928 0.69421 0.8107 0.0
O128 O 0.07406 0.66599 0.7807 0.0
O129 O 0.20316 0.66184 0.76553 0.0
In130 In 0.0852 0.6865 0.47819 0.0
O131 O 0.16315 0.6654 0.45743 0.0
O132 O 0.03386 0.66139 0.47251 0.0
C133 C 0.16157 0.71511 0.48253 0.0
C134 C 0.98025 0.69397 0.42708 0.0
C135 C 0.09638 0.68164 0.54568 0.0
O136 O 0.19879 0.70298 0.46926 0.0
O137 O 0.08607 0.71271 0.49238 0.0
O138 O 0.02576 0.68491 0.53144 0.0
O139 O 0.15927 0.68051 0.52562 0.0
C140 C 0.10199 0.6555 0.46076 0.0
O141 O 0.9538 0.69225 0.45775 0.0
O142 O 0.05939 0.6922 0.4228 0.0
In143 In 0.15148 0.55557 0.47714 0.0
O144 O 0.28363 0.55008 0.45712 0.0
O145 O 0.17898 0.55012 0.42174 0.0
C146 C 0.13942 0.56049 0.54459 0.0
C147 C 0.13355 0.58658 0.45995 0.0
C148 C 0.07651 0.52679 0.48102 0.0
O149 O 0.2103 0.55734 0.53044 0.0
O150 O 0.07657 0.56142 0.52449 0.0
O151 O 0.03903 0.53887 0.46765 0.0
O152 O 0.15155 0.52934 0.49124 0.0
C153 C 0.25808 0.54845 0.42631 0.0
O154 O 0.07265 0.57662 0.45659 0.0
O155 O 0.20192 0.58073 0.47153 0.0
In156 In 0.89642 0.43613 0.22586 0.0
O157 O 0.81741 0.41497 0.206 0.0
O158 O 0.94727 0.41101 0.22034 0.0
C159 C 0.82252 0.46497 0.23059 0.0
C160 C 0.00032 0.44329 0.17417 0.0
C161 C 0.88691 0.43134 0.29339 0.0
O162 O 0.78386 0.45295 0.21749 0.0
O163 O 0.8981 0.46233 0.24002 0.0
O164 O 0.9573 0.43442 0.27876 0.0
O165 O 0.82328 0.43038 0.27368 0.0
C166 C 0.87866 0.40507 0.2092 0.0
O167 O 0.02724 0.44175 0.20481 0.0
O168 O 0.9211 0.44148 0.17015 0.0
In169 In 0.83235 0.30505 0.22774 0.0
O170 O 0.90981 0.32623 0.20703 0.0
O171 O 0.78068 0.33015 0.22246 0.0
C172 C 0.90859 0.27641 0.23182 0.0
C173 C 0.72716 0.29778 0.17659 0.0
C174 C 0.84409 0.30983 0.29524 0.0
O175 O 0.94587 0.28856 0.21865 0.0
O176 O 0.83308 0.2788 0.24167 0.0
O177 O 0.77336 0.30657 0.28107 0.0
O178 O 0.90685 0.31097 0.2751 0.0
C179 C 0.84855 0.3361 0.21059 0.0
O180 O 0.70087 0.29935 0.20732 0.0
O181 O 0.8063 0.29955 0.17228 0.0
In182 In 0.90096 0.30549 0.50963 0.0
O183 O 0.03266 0.29985 0.52985 0.0
O184 O 0.92772 0.30017 0.56513 0.0
C185 C 0.88888 0.31006 0.44208 0.0
C186 C 0.88479 0.3366 0.52627 0.0
C187 C 0.825 0.2768 0.50597 0.0
O188 O 0.95971 0.30689 0.45625 0.0
O189 O 0.82616 0.31121 0.46222 0.0
O190 O 0.78765 0.28897 0.51904 0.0
O191 O 0.90043 0.27921 0.49603 0.0
C192 C 0.0068 0.29836 0.56066 0.0
O193 O 0.82353 0.32674 0.53004 0.0
O194 O 0.95263 0.3306 0.51449 0.0
In195 In 0.83809 0.43656 0.50798 0.0
O196 O 0.70638 0.44236 0.52803 0.0
O197 O 0.8111 0.44226 0.56335 0.0
C198 C 0.84777 0.43159 0.44047 0.0
C199 C 0.85528 0.40557 0.52555 0.0
C200 C 0.91443 0.4652 0.5036 0.0
O201 O 0.77752 0.43484 0.45501 0.0
O202 O 0.91122 0.43056 0.46024 0.0
O203 O 0.95164 0.4531 0.51698 0.0
O204 O 0.83911 0.46275 0.49364 0.0
C205 C 0.73207 0.44407 0.55879 0.0
O206 O 0.91657 0.41547 0.52857 0.0
O207 O 0.78693 0.41147 0.51408 0.0
In208 In 0.58675 0.05556 0.7595 0.0
O209 O 0.45615 0.04959 0.78031 0.0
O210 O 0.56207 0.04996 0.81508 0.0
C211 C 0.59674 0.06055 0.69206 0.0
C212 C 0.60184 0.08664 0.77662 0.0
C213 C 0.66297 0.02696 0.75433 0.0
O214 O 0.52642 0.0572 0.70649 0.0
O215 O 0.65999 0.06169 0.71193 0.0
O216 O 0.70064 0.03903 0.76764 0.0
O217 O 0.58717 0.02941 0.74495 0.0
C218 C 0.48296 0.04802 0.81095 0.0
O219 O 0.66365 0.07687 0.77998 0.0
O220 O 0.53398 0.08056 0.76505 0.0
In221 In 0.64558 0.18676 0.76021 0.0
O222 O 0.77707 0.19233 0.7806 0.0
O223 O 0.67198 0.19201 0.81582 0.0
C224 C 0.63438 0.18209 0.69268 0.0
C225 C 0.62894 0.15566 0.77688 0.0
C226 C 0.57175 0.21564 0.75611 0.0
O227 O 0.70511 0.18513 0.70705 0.0
O228 O 0.57117 0.18111 0.71262 0.0
O229 O 0.53329 0.2036 0.76922 0.0
O230 O 0.6471 0.213 0.74634 0.0
C231 C 0.75111 0.19379 0.8114 0.0
O232 O 0.56754 0.16551 0.78041 0.0
O233 O 0.69701 0.16167 0.76533 0.0
In234 In 0.58414 0.18689 0.47808 0.0
O235 O 0.66241 0.16571 0.45782 0.0
O236 O 0.53285 0.16177 0.47259 0.0
C237 C 0.66079 0.2155 0.48243 0.0
C238 C 0.47961 0.19417 0.42667 0.0
C239 C 0.59359 0.18212 0.54565 0.0
O240 O 0.69811 0.20333 0.46935 0.0
O241 O 0.58508 0.21313 0.49204 0.0
O242 O 0.52339 0.18541 0.53111 0.0
O243 O 0.65695 0.18094 0.52585 0.0
C244 C 0.60114 0.15583 0.46113 0.0
O245 O 0.45302 0.19262 0.45736 0.0
O246 O 0.55877 0.19235 0.4225 0.0
In247 In 0.64925 0.05579 0.47759 0.0
O248 O 0.78081 0.0502 0.4572 0.0
O249 O 0.67563 0.05043 0.42207 0.0
C250 C 0.63815 0.06053 0.5451 0.0
C251 C 0.6318 0.08686 0.46076 0.0
C252 C 0.57491 0.02696 0.48156 0.0
O253 O 0.70887 0.05747 0.53072 0.0
O254 O 0.57494 0.06147 0.52518 0.0
O255 O 0.53685 0.03903 0.4684 0.0
O256 O 0.65011 0.02955 0.49154 0.0
C257 C 0.75474 0.04864 0.42645 0.0
O258 O 0.57068 0.07694 0.45737 0.0
O259 O 0.70013 0.08093 0.47222 0.0
In260 In 0.39692 0.93639 0.22553 0.0
O261 O 0.52733 0.94225 0.20437 0.0
O262 O 0.42101 0.94186 0.16982 0.0
C263 C 0.38855 0.9315 0.29306 0.0
C264 C 0.37987 0.90532 0.20876 0.0
C265 C 0.32152 0.96507 0.23057 0.0
O266 O 0.4586 0.93472 0.2783 0.0
O267 O 0.32474 0.93045 0.27348 0.0
O268 O 0.2834 0.95301 0.21741 0.0
O269 O 0.39728 0.96256 0.2399 0.0
C270 C 0.50016 0.9438 0.17377 0.0
O271 O 0.31836 0.91517 0.2057 0.0
O272 O 0.44846 0.91132 0.21979 0.0
In273 In 0.33406 0.80525 0.22705 0.0
O274 O 0.41167 0.82646 0.20655 0.0
O275 O 0.2826 0.83037 0.22208 0.0
C276 C 0.41017 0.77658 0.23085 0.0
C277 C 0.22876 0.7982 0.17579 0.0
C278 C 0.34549 0.80983 0.29462 0.0
O279 O 0.44761 0.78877 0.21791 0.0
O280 O 0.33453 0.77895 0.24057 0.0
O281 O 0.27483 0.80662 0.28036 0.0
O282 O 0.40832 0.81104 0.27455 0.0
C283 C 0.35045 0.83633 0.21022 0.0
O284 O 0.20253 0.79968 0.20655 0.0
O285 O 0.30793 0.79994 0.1715 0.0
In286 In 0.4018 0.80511 0.50906 0.0
O287 O 0.53321 0.79932 0.52937 0.0
O288 O 0.42816 0.7998 0.56459 0.0
C289 C 0.38977 0.80968 0.44151 0.0
C290 C 0.38646 0.83625 0.52561 0.0
C291 C 0.32556 0.77647 0.50545 0.0
O292 O 0.46058 0.8065 0.45569 0.0
O293 O 0.32702 0.81084 0.46164 0.0
O294 O 0.28831 0.78865 0.51851 0.0
O295 O 0.40097 0.77885 0.49546 0.0
C296 C 0.50718 0.79788 0.56017 0.0
O297 O 0.32493 0.82645 0.5294 0.0
O298 O 0.45417 0.83017 0.51388 0.0
In299 In 0.34087 0.93627 0.50775 0.0
O300 O 0.20925 0.94195 0.52797 0.0
O301 O 0.3141 0.94173 0.56324 0.0
C302 C 0.35067 0.93148 0.44019 0.0
C303 C 0.35815 0.90524 0.52492 0.0
C304 C 0.41582 0.96505 0.50369 0.0
O305 O 0.28032 0.93459 0.4548 0.0
O306 O 0.41425 0.93051 0.45991 0.0
O307 O 0.45373 0.95297 0.51683 0.0
O308 O 0.34054 0.9625 0.49378 0.0
C309 C 0.23504 0.94354 0.55874 0.0
O310 O 0.41948 0.91513 0.52804 0.0
O311 O 0.28979 0.91118 0.51353 0.0
In312 In 0.59056 0.55562 0.25956 0.0
O313 O 0.45935 0.55004 0.28026 0.0
O314 O 0.56481 0.55036 0.31524 0.0
C315 C 0.60051 0.56022 0.19196 0.0
C316 C 0.60799 0.5867 0.27614 0.0
C317 C 0.66446 0.52676 0.25528 0.0
O318 O 0.53003 0.55721 0.20658 0.0
O319 O 0.66405 0.56121 0.2117 0.0
O320 O 0.7031 0.5388 0.26825 0.0
O321 O 0.58893 0.52938 0.24577 0.0
C322 C 0.48566 0.54856 0.31099 0.0
O323 O 0.66925 0.57681 0.27952 0.0
O324 O 0.53964 0.58074 0.26479 0.0
In325 In 0.65225 0.68684 0.25931 0.0
O326 O 0.78284 0.69276 0.28027 0.0
O327 O 0.67676 0.69225 0.31497 0.0
C328 C 0.64306 0.68212 0.19175 0.0
C329 C 0.63665 0.65572 0.27603 0.0
C330 C 0.57508 0.71538 0.25486 0.0
O331 O 0.71317 0.68545 0.20632 0.0
O332 O 0.57966 0.68087 0.21152 0.0
O333 O 0.53781 0.70319 0.26784 0.0
O334 O 0.65097 0.71308 0.24541 0.0
C335 C 0.75587 0.69421 0.31093 0.0
O336 O 0.57498 0.66551 0.27945 0.0
O337 O 0.70467 0.66179 0.26458 0.0
In338 In 0.5917 0.6867 0.97717 0.0
O339 O 0.46061 0.69247 0.95664 0.0
O340 O 0.56592 0.69196 0.92153 0.0
C341 C 0.60272 0.68208 0.04471 0.0
C342 C 0.60735 0.65558 0.96064 0.0
C343 C 0.66611 0.7155 0.98116 0.0
O344 O 0.53205 0.68513 0.0303 0.0
O345 O 0.66597 0.68107 0.02479 0.0
O346 O 0.70439 0.70342 0.96811 0.0
O347 O 0.59073 0.71292 0.99095 0.0
C348 C 0.48687 0.6939 0.92588 0.0
O349 O 0.66905 0.66536 0.95708 0.0
O350 O 0.53943 0.66166 0.97214 0.0
In351 In 0.64865 0.55537 0.9772 0.0
O352 O 0.77953 0.54951 0.9564 0.0
O353 O 0.67397 0.55015 0.9215 0.0
C354 C 0.63942 0.55997 0.04483 0.0
C355 C 0.63335 0.58652 0.96072 0.0
C356 C 0.57151 0.5268 0.98104 0.0
O357 O 0.7095 0.55667 0.03018 0.0
O358 O 0.57596 0.56121 0.02512 0.0
O359 O 0.53434 0.53904 0.9682 0.0
O360 O 0.64723 0.52909 0.99069 0.0
C361 C 0.75302 0.54817 0.92567 0.0
O362 O 0.5715 0.57677 0.9573 0.0
O363 O 0.7013 0.5804 0.97207 0.0
In364 In 0.39831 0.43741 0.72493 0.0
O365 O 0.52976 0.44315 0.70464 0.0
O366 O 0.42484 0.44274 0.66938 0.0
C367 C 0.38628 0.43266 0.79242 0.0
C368 C 0.38282 0.40628 0.70833 0.0
C369 C 0.32286 0.46612 0.72912 0.0
O370 O 0.45711 0.43584 0.77824 0.0
O371 O 0.32347 0.43159 0.77231 0.0
O372 O 0.28523 0.45403 0.71585 0.0
O373 O 0.39827 0.46363 0.73894 0.0
C374 C 0.50389 0.44461 0.67383 0.0
O375 O 0.32128 0.41608 0.7046 0.0
O376 O 0.45059 0.41235 0.71999 0.0
In377 In 0.3388 0.30624 0.72716 0.0
O378 O 0.41678 0.32741 0.70658 0.0
O379 O 0.2872 0.33131 0.72142 0.0
C380 C 0.41328 0.27745 0.73191 0.0
C381 C 0.23386 0.29885 0.67601 0.0
C382 C 0.34907 0.31113 0.79464 0.0
O383 O 0.4516 0.28947 0.71864 0.0
O384 O 0.33779 0.28006 0.74151 0.0
O385 O 0.27859 0.30799 0.78017 0.0
O386 O 0.41247 0.31212 0.7748 0.0
C387 C 0.3553 0.33727 0.7098 0.0
O388 O 0.20757 0.3005 0.70672 0.0
O389 O 0.31299 0.30066 0.67166 0.0
In390 In 0.39786 0.30564 0.00917 0.0
O391 O 0.52876 0.29985 0.02998 0.0
O392 O 0.42287 0.30016 0.06478 0.0
C393 C 0.38863 0.31059 0.94167 0.0
C394 C 0.38024 0.3367 0.02595 0.0
C395 C 0.32219 0.27695 0.00449 0.0
O396 O 0.45888 0.30735 0.95624 0.0
O397 O 0.32505 0.31158 0.96141 0.0
O398 O 0.28451 0.28903 0.01779 0.0
O399 O 0.39771 0.27945 -0.00522 0.0
C400 C 0.502 0.29828 0.06064 0.0
O401 O 0.319 0.32679 0.02912 0.0
O402 O 0.44891 0.33075 0.01486 0.0
In403 In 0.3312 0.4367 0.00692 0.0
O404 O 0.40957 0.41559 0.02742 0.0
O405 O 0.28053 0.41152 0.01214 0.0
C406 C 0.40723 0.46539 0.00332 0.0
C407 C 0.22551 0.44375 0.05809 0.0
C408 C 0.34237 0.43215 0.93931 0.0
O409 O 0.44459 0.45319 0.01623 0.0
O410 O 0.33174 0.46301 -0.00653 0.0
O411 O 0.27175 0.43533 0.95366 0.0
O412 O 0.40529 0.43096 0.95932 0.0
C413 C 0.34865 0.40564 0.02392 0.0
O414 O 0.19939 0.44219 0.02735 0.0
O415 O 0.30469 0.44208 0.0624 0.0
C416 C 0.04913 0.06201 0.09732 0.0
C417 C 0.13104 0.06154 0.08287 0.0
H418 H 0.97449 0.06187 0.14341 0.0
C419 C 0.20195 0.06151 0.10463 0.0
H420 H -0.00681 0.06203 0.08111 0.0
C421 C 0.1911 0.06159 0.14027 0.0
C422 C 0.10915 0.0615 0.15472 0.0
H423 H 0.2657 0.06118 0.09417 0.0
H424 H 0.247 0.06127 0.15649 0.0
C425 C 0.03827 0.06189 0.13295 0.0
C426 C 0.0367 0.18024 0.10416 0.0
C427 C 0.10765 0.18059 0.0824 0.0
H428 H 0.99145 0.18013 0.15599 0.0
C429 C 0.18955 0.18045 0.09687 0.0
H430 H 0.97296 0.18029 0.09368 0.0
C431 C 0.20029 0.18052 0.13251 0.0
C432 C 0.1293 0.18053 0.15427 0.0
H433 H 0.24552 0.18072 0.08066 0.0
H434 H 0.264 0.1808 0.14299 0.0
C435 C 0.04744 0.18011 0.13979 0.0
C436 C 0.93555 0.93072 0.88733 0.0
C437 C 0.85338 0.93118 0.90154 0.0
H438 H 0.01104 0.93078 0.84147 0.0
C439 C 0.78287 0.93112 0.87956 0.0
H440 H 0.99119 0.93077 0.90371 0.0
C441 C 0.79438 0.93095 0.84396 0.0
C442 C 0.8766 0.93104 0.82975 0.0
H443 H 0.71893 0.93143 0.88983 0.0
H444 H 0.73878 0.93119 0.82757 0.0
C445 C 0.94707 0.93075 0.85174 0.0
C446 C 0.95014 0.8127 0.88188 0.0
C447 C 0.87881 0.81236 0.90343 0.0
H448 H -0.00374 0.81274 0.83017 0.0
C449 C 0.79717 0.81249 0.88874 0.0
H450 H 0.0137 0.81265 0.89253 0.0
C451 C 0.78704 0.81238 0.85308 0.0
C452 C 0.85839 0.81232 0.83152 0.0
H453 H 0.74092 0.81223 0.90478 0.0
H454 H 0.7235 0.81207 0.84243 0.0
C455 C 0.94 0.81278 0.84621 0.0
C456 C 0.03539 0.56232 0.63204 0.0
C457 C 0.10612 0.56235 0.65391 0.0
H458 H 0.99077 0.56191 0.58013 0.0
C459 C 0.18816 0.56269 0.63955 0.0
H460 H 0.97155 0.56209 0.64242 0.0
C461 C 0.19931 0.56242 0.60394 0.0
C462 C 0.12861 0.56199 0.58209 0.0
H463 H 0.24396 0.56271 0.65584 0.0
H464 H 0.26318 0.56228 0.59357 0.0
C465 C 0.04655 0.56224 0.59642 0.0
C466 C 0.04766 0.68041 0.64075 0.0
C467 C 0.12976 0.68062 0.65502 0.0
H468 H 0.97254 0.68063 0.59481 0.0
C469 C 0.20041 0.68023 0.6331 0.0
H470 H 0.99192 0.68071 0.65708 0.0
C471 C 0.18915 0.68001 0.5975 0.0
C472 C 0.10708 0.68038 0.58322 0.0
H473 H 0.26429 0.68034 0.64343 0.0
H474 H 0.24492 0.68002 0.58117 0.0
C475 C 0.03641 0.68038 0.60514 0.0
C476 C 0.78585 0.42999 0.38142 0.0
C477 C 0.85728 0.43017 0.40291 0.0
H478 H 0.73951 0.43001 0.32977 0.0
C479 C 0.93885 0.42979 0.38813 0.0
H480 H 0.72234 0.43024 0.39214 0.0
C481 C 0.94884 0.42982 0.35246 0.0
C482 C 0.87741 0.43004 0.33097 0.0
H483 H -0.00483 0.42992 0.40412 0.0
H484 H 0.01235 0.42993 0.34174 0.0
C485 C 0.79583 0.42983 0.34575 0.0
C486 C 0.93711 0.3115 0.34699 0.0
C487 C 0.85498 0.31116 0.33275 0.0
H488 H 0.0124 0.31135 0.39288 0.0
C489 C 0.78439 0.31132 0.35471 0.0
H490 H 0.99281 0.31137 0.33062 0.0
C491 C 0.79575 0.31147 0.39032 0.0
C492 C 0.8779 0.31127 0.40455 0.0
H493 H 0.72047 0.31109 0.34442 0.0
H494 H 0.74006 0.31131 0.40668 0.0
C495 C 0.94848 0.31146 0.38259 0.0
C496 C 0.68846 0.06239 0.63994 0.0
C497 C 0.60669 0.06191 0.65451 0.0
H498 H 0.76269 0.06225 0.59375 0.0
C499 C 0.53558 0.0619 0.63285 0.0
H500 H 0.74455 0.0624 0.65607 0.0
C501 C 0.54611 0.06197 0.5972 0.0
C502 C 0.62793 0.06187 0.58264 0.0
H503 H 0.47192 0.06157 0.64341 0.0
H504 H 0.49006 0.06166 0.58107 0.0
C505 C 0.69901 0.06227 0.6043 0.0
C506 C 0.69537 0.18038 0.63348 0.0
C507 C 0.62422 0.1808 0.65512 0.0
H508 H 0.74114 0.18024 0.58173 0.0
C509 C 0.54246 0.18077 0.64053 0.0
H510 H 0.75901 0.18036 0.64405 0.0
C511 C 0.53208 0.18087 0.60487 0.0
C512 C 0.60328 0.18081 0.58323 0.0
H513 H 0.48636 0.1811 0.65665 0.0
H514 H 0.46848 0.18123 0.59429 0.0
C515 C 0.68498 0.18029 0.59783 0.0
C516 C 0.44151 0.93001 0.38773 0.0
C517 C 0.36005 0.93015 0.40261 0.0
H518 H 0.51458 0.93041 0.34122 0.0
C519 C 0.28846 0.92979 0.38123 0.0
H520 H 0.49795 0.93029 0.40364 0.0
C521 C 0.29813 0.92969 0.34555 0.0
C522 C 0.37955 0.93014 0.33065 0.0
H523 H 0.22503 0.92984 0.39203 0.0
H524 H 0.24165 0.92971 0.32965 0.0
C525 C 0.45118 0.93011 0.35203 0.0
C526 C 0.2968 0.81116 0.3897 0.0
C527 C 0.37889 0.81094 0.40398 0.0
H528 H 0.22169 0.8109 0.34375 0.0
C529 C 0.44955 0.8112 0.38206 0.0
H530 H 0.24105 0.81095 0.40603 0.0
C531 C 0.43831 0.81134 0.34645 0.0
C532 C 0.35623 0.81103 0.33217 0.0
H533 H 0.51343 0.81107 0.39239 0.0
H534 H 0.49407 0.81127 0.33012 0.0
C535 C 0.28556 0.81111 0.35409 0.0
C536 C 0.70156 0.5613 0.10389 0.0
C537 C 0.63008 0.56127 0.08242 0.0
H538 H 0.74797 0.56121 0.15554 0.0
C539 C 0.54856 0.56177 0.09722 0.0
H540 H 0.76503 0.56096 0.09315 0.0
C541 C 0.53863 0.56175 0.1329 0.0
C542 C 0.61008 0.56142 0.15436 0.0
H543 H 0.49221 0.56174 0.08125 0.0
H544 H 0.47513 0.56175 0.14363 0.0
C545 C 0.69164 0.56147 0.13957 0.0
C546 C 0.70476 0.68089 0.13257 0.0
C547 C 0.63348 0.68083 0.15417 0.0
H548 H 0.75064 0.68113 0.08081 0.0
C549 C 0.55183 0.6803 0.13952 0.0
H550 H 0.76832 0.68126 0.14318 0.0
C551 C 0.54155 0.68039 0.10388 0.0
C552 C 0.61277 0.68082 0.08227 0.0
H553 H 0.49562 0.68025 0.1556 0.0
H554 H 0.47794 0.68036 0.09327 0.0
C555 C 0.69449 0.68079 0.0969 0.0
C556 C 0.29341 0.43102 0.84427 0.0
C557 C 0.37547 0.43128 0.82993 0.0
H558 H 0.21842 0.43118 0.89027 0.0
C559 C 0.44618 0.43095 0.85179 0.0
H560 H 0.23763 0.43129 0.82798 0.0
C561 C 0.43503 0.43072 0.8874 0.0
C562 C 0.35299 0.43101 0.90175 0.0
H563 H 0.51004 0.4311 0.84141 0.0
H564 H 0.49084 0.43074 0.90368 0.0
C565 C 0.28226 0.43098 0.87989 0.0
C566 C 0.44049 0.31248 0.84691 0.0
C567 C 0.35885 0.31238 0.83221 0.0
H568 H 0.5141 0.3119 0.89325 0.0
C569 C 0.28751 0.31262 0.85376 0.0
H570 H 0.49674 0.31228 0.83087 0.0
C571 C 0.2976 0.31256 0.88942 0.0
C572 C 0.37919 0.31207 0.90412 0.0
H573 H 0.22395 0.31259 0.8431 0.0
H574 H 0.24131 0.31246 0.90544 0.0
C575 C 0.45058 0.31223 0.88258 0.0
C576 C 0.32604 0.99345 0.25218 0.0
C577 C 0.2804 0.98085 0.23643 0.0
H578 H 0.32401 0.0178 0.27084 0.0
C579 C 0.19513 0.98334 0.22755 0.0
H580 H 0.3919 0.99186 0.25947 0.0
C581 C 0.15629 -0.00182 0.23423 0.0
C582 C 0.20198 0.01079 0.24993 0.0
H583 H 0.15835 0.97383 0.21555 0.0
H584 H 0.09045 -0.00022 0.22692 0.0
C585 C 0.28719 0.00829 0.25887 0.0
C586 C 0.90599 0.24792 0.25288 0.0
C587 C 0.95054 0.26067 0.23715 0.0
H588 H 0.90992 0.22351 0.27118 0.0
C589 C 0.0357 0.25838 0.22783 0.0
H590 H 0.84023 0.24935 0.26048 0.0
C591 C 0.07557 0.24361 0.23413 0.0
C592 C 0.03104 0.23085 0.24986 0.0
H593 H 0.07167 0.26801 0.21583 0.0
H594 H 0.14134 0.24218 0.22653 0.0
C595 C 0.94586 0.23314 0.25917 0.0
C596 C 0.28681 0.23367 0.97682 0.0
C597 C 0.20189 0.2312 0.98629 0.0
H598 H 0.39155 0.25009 0.97543 0.0
C599 C 0.15677 0.24386 0.0021 0.0
H600 H 0.32319 0.22413 0.96474 0.0
C601 C 0.19588 0.25871 0.00838 0.0
C602 C 0.28085 0.26117 -0.00102 0.0
H603 H 0.09117 0.24229 0.0098 0.0
H604 H 0.15953 0.26825 0.0205 0.0
C605 C 0.32593 0.24852 0.98311 0.0
C606 C 0.07529 -0.0015 0.00214 0.0
C607 C 0.03147 0.01135 0.98643 0.0
H608 H 0.07039 0.97403 0.01995 0.0
C609 C 0.94657 0.00916 0.97666 0.0
H610 H 0.14083 -0.00014 0.01009 0.0
C611 C 0.90625 0.99438 0.98247 0.0
C612 C 0.9501 0.98153 -0.00184 0.0
H613 H 0.91119 0.01885 0.96465 0.0
H614 H 0.84072 0.99301 0.97451 0.0
C615 C 0.03498 0.98373 0.00795 0.0
C616 C 0.79006 0.00885 0.75711 0.0
C617 C 0.70468 0.01125 0.74829 0.0
H618 H 0.89539 0.99256 0.75755 0.0
C619 C 0.65955 -0.00138 0.73238 0.0
H620 H 0.82649 0.01838 0.76922 0.0
C621 C 0.69897 0.98386 0.72551 0.0
C622 C 0.78429 0.98144 0.73442 0.0
H623 H 0.59362 0.00014 0.72512 0.0
H624 H 0.66251 0.97432 0.71345 0.0
C625 C 0.82949 0.99409 0.75025 0.0
C626 C 0.08147 0.7442 0.73415 0.0
C627 C 0.03662 0.73158 0.75025 0.0
H628 H 0.07826 0.76853 0.71532 0.0
C629 C 0.95174 0.73406 0.75977 0.0
H630 H 0.14703 0.74263 0.72639 0.0
C631 C 0.9124 0.74886 0.75326 0.0
C632 C 0.95719 0.76147 0.73711 0.0
H633 H 0.91557 0.72454 0.77207 0.0
H634 H 0.84682 0.75043 0.761 0.0
C635 C 0.04212 0.75901 0.72765 0.0
C636 C 0.66082 0.744 0.00202 0.0
C637 C 0.70664 0.73138 0.98638 0.0
H638 H 0.66225 0.76843 0.02015 0.0
C639 C 0.79154 0.73397 0.97703 0.0
H640 H 0.59522 0.74234 0.00964 0.0
C641 C 0.8299 0.7489 0.9832 0.0
C642 C 0.78407 0.76151 -0.00114 0.0
H643 H 0.82844 0.72445 0.96508 0.0
H644 H 0.8955 0.75056 0.97559 0.0
C645 C 0.69917 0.75892 0.0082 0.0
C646 C 0.15679 0.4991 0.73224 0.0
C647 C 0.20173 0.51172 0.74826 0.0
H648 H 0.15996 0.47479 0.71335 0.0
C649 C 0.28689 0.5093 0.7574 0.0
H650 H 0.09104 0.50064 0.72475 0.0
C651 C 0.32633 0.49452 0.7507 0.0
C652 C 0.28136 0.48189 0.73472 0.0
H653 H 0.32316 0.51882 0.76961 0.0
H654 H 0.39207 0.49298 0.75821 0.0
C655 C 0.19624 0.48432 0.72554 0.0
C656 C 0.19869 0.75839 0.50982 0.0
C657 C 0.28372 0.76071 0.50034 0.0
H658 H 0.09327 0.74213 0.51136 0.0
C659 C 0.32828 0.74796 0.4846 0.0
H660 H 0.16274 0.76801 0.52185 0.0
C661 C 0.28853 0.73317 0.47843 0.0
C662 C 0.20348 0.73085 0.48787 0.0
H663 H 0.39393 0.74941 0.47688 0.0
H664 H 0.32447 0.72355 0.46639 0.0
C665 C 0.15894 0.74359 0.50366 0.0
C666 C 0.04069 0.48344 0.50814 0.0
C667 C 0.95601 0.48098 0.49833 0.0
H668 H 0.14532 0.49987 0.51009 0.0
C669 C 0.9114 0.49364 0.4823 0.0
H670 H 0.07668 0.47389 0.52039 0.0
C671 C 0.95066 0.5085 0.47625 0.0
C672 C 0.03529 0.51097 0.4861 0.0
H673 H 0.84602 0.49208 0.47431 0.0
H674 H 0.91463 0.51805 0.46402 0.0
C675 C 0.07996 0.4983 0.50209 0.0
C676 C 0.65861 0.49831 0.23415 0.0
C677 C 0.70484 0.51089 0.24969 0.0
H678 H 0.65965 0.47393 0.21566 0.0
C679 C 0.79007 0.5083 0.2585 0.0
H680 H 0.59275 0.49997 0.22693 0.0
C681 C 0.82835 0.4934 0.25188 0.0
C682 C 0.78213 0.48082 0.23631 0.0
H683 H 0.8273 0.51779 0.27035 0.0
H684 H 0.89422 0.49174 0.25909 0.0
C685 C 0.69689 0.48341 0.22752 0.0
C686 C 0.82787 0.24829 0.48508 0.0
C687 C 0.78317 0.26105 0.50073 0.0
H688 H 0.82412 0.22389 0.46677 0.0
C689 C 0.69795 0.25875 0.50995 0.0
H690 H 0.89368 0.24973 0.47755 0.0
C691 C 0.65815 0.24397 0.50361 0.0
C692 C 0.70281 0.23122 0.48791 0.0
H693 H 0.66188 0.26837 0.5219 0.0
H694 H 0.59232 0.24253 0.51112 0.0
C695 C 0.78807 0.23351 0.47873 0.0
C696 C 0.40796 0.24903 0.75333 0.0
C697 C 0.45387 0.2616 0.73756 0.0
H698 H 0.40931 0.22464 0.77182 0.0
C699 C 0.53892 0.259 0.72845 0.0
H700 H 0.34225 0.25069 0.76078 0.0
C701 C 0.57729 0.2441 0.73494 0.0
C702 C 0.53135 0.23152 0.75067 0.0
H703 H 0.57591 0.26848 0.71643 0.0
H704 H 0.64299 0.24243 0.72747 0.0
C705 C 0.44633 0.23412 0.75982 0.0
C706 C 0.57979 -0.00157 0.50229 0.0
C707 C 0.53432 0.01108 0.48661 0.0
H708 H 0.57789 0.97395 0.52022 0.0
C709 C 0.44962 0.00851 0.47697 0.0
H710 H 0.64523 7e-05 0.51013 0.0
C711 C 0.41111 0.99357 0.4829 0.0
C712 C 0.45656 0.98092 0.4986 0.0
H713 H 0.41298 0.01804 0.46498 0.0
H714 H 0.34567 0.99193 0.47507 0.0
C715 C 0.54127 0.98349 0.50822 0.0
C716 C 0.57756 0.74386 0.23374 0.0
C717 C 0.53284 0.73107 0.24928 0.0
H718 H 0.57372 0.76827 0.21546 0.0
C719 C 0.44735 0.7333 0.25817 0.0
H720 H 0.64356 0.74248 0.22645 0.0
C721 C 0.40738 0.74805 0.2517 0.0
C722 C 0.45214 0.76085 0.23621 0.0
H723 H 0.41125 0.72365 0.27001 0.0
H724 H 0.34139 0.74944 0.25901 0.0
C725 C 0.53759 0.75861 0.22727 0.0
C726 C 0.40438 0.49399 0.98291 0.0
C727 C 0.44905 0.48116 -0.0017 0.0
H728 H 0.40816 0.51849 0.96515 0.0
C729 C 0.53425 0.48342 0.00758 0.0
H730 H 0.33859 0.49259 0.97536 0.0
C731 C 0.57404 0.49823 0.00156 0.0
C732 C 0.52941 0.51106 0.98615 0.0
H733 H 0.5703 0.47374 0.01932 0.0
H734 H 0.63985 0.49962 0.00911 0.0
C735 C 0.44419 0.50881 0.9769 0.0
C736 C 0.19897 0.12821 0.28326 0.0
C737 C 0.12571 0.13794 0.28236 0.0
H738 H 0.24963 0.10418 0.28279 0.0
C739 C 0.04563 0.13058 0.28374 0.0
H740 H 0.26164 0.1336 0.28248 0.0
C741 C 0.03889 0.11375 0.28358 0.0
C742 C 0.11212 0.10402 0.2825 0.0
H743 H 0.9882 0.13778 0.28312 0.0
H744 H 0.9762 0.10837 0.28303 0.0
C745 C 0.19224 0.11138 0.28356 0.0
C746 C 0.03977 0.12824 0.95308 0.0
C747 C 0.11272 0.13804 0.95439 0.0
H748 H 0.9897 0.10418 0.95338 0.0
C749 C 0.19305 0.13076 0.95357 0.0
H750 H 0.97693 0.13357 0.95343 0.0
C751 C 0.20022 0.11394 0.9539 0.0
C752 C 0.1272 0.10414 0.95458 0.0
H753 H 0.25023 0.13802 0.95454 0.0
H754 H 0.26302 0.10861 0.95489 0.0
C755 C 0.04695 0.11143 0.95294 0.0
C756 C 0.95008 0.87856 0.70153 0.0
C757 C 0.87671 0.88826 0.7022 0.0
H758 H 0.00105 0.85455 0.70247 0.0
C759 C 0.79672 0.88086 0.70081 0.0
H760 H 0.01268 0.88397 0.70232 0.0
C761 C 0.79019 0.86403 0.70124 0.0
C762 C 0.86353 0.85433 0.7026 0.0
H763 H 0.73922 0.88803 0.70126 0.0
H764 H 0.72756 0.85861 0.70181 0.0
C765 C 0.94356 0.86173 0.70149 0.0
C766 C 0.93631 0.88145 0.03208 0.0
C767 C 0.85599 0.88868 0.03004 0.0
H768 H 0.00667 0.85935 0.03224 0.0
C769 C 0.7831 0.87885 0.03065 0.0
H770 H -0.00655 0.88873 0.03171 0.0
C771 C 0.79052 0.86204 0.03132 0.0
C772 C 0.87098 0.85479 0.03092 0.0
H773 H 0.72025 0.88414 0.02937 0.0
H774 H 0.73346 0.85474 0.03029 0.0
C775 C 0.94375 0.86464 0.03229 0.0
C776 C 0.19136 0.61183 0.78418 0.0
C777 C 0.11093 0.6046 0.78281 0.0
H778 H 0.26181 0.63393 0.78354 0.0
C779 C 0.03814 0.61445 0.78391 0.0
H780 H 0.24845 0.60454 0.78341 0.0
C781 C 0.04565 0.63127 0.78433 0.0
C782 C 0.12609 0.6385 0.7832 0.0
H783 H 0.97521 0.60917 0.78314 0.0
H784 H 0.98858 0.63857 0.78367 0.0
C785 C 0.19888 0.62864 0.78414 0.0
C786 C 0.03723 0.62819 0.45379 0.0
C787 C 0.11021 0.63799 0.45456 0.0
H788 H 0.98733 0.6041 0.45424 0.0
C789 C 0.19049 0.63072 0.45283 0.0
H790 H 0.97441 0.6335 0.45484 0.0
C791 C 0.19775 0.61391 0.45282 0.0
C792 C 0.12485 0.6041 0.45407 0.0
H793 H 0.2477 0.63799 0.45333 0.0
H794 H 0.26062 0.60859 0.45313 0.0
C795 C 0.04448 0.61137 0.45331 0.0
C796 C 0.78311 0.36336 0.20384 0.0
C797 C 0.85631 0.35361 0.20439 0.0
H798 H 0.73269 0.38741 0.20428 0.0
C799 C 0.93639 0.36094 0.20234 0.0
H800 H 0.72042 0.358 0.20514 0.0
C801 C 0.94328 0.37776 0.20217 0.0
C802 C 0.8702 0.38752 0.2036 0.0
H803 H -0.00624 0.35372 0.20267 0.0
H804 H 0.00604 0.38313 0.2022 0.0
C805 C 0.78998 0.38019 0.20321 0.0
C806 C 0.95032 0.36388 0.53253 0.0
C807 C 0.87705 0.35414 0.53204 0.0
H808 H 0.00096 0.3879 0.53151 0.0
C809 C 0.79699 0.36151 0.53361 0.0
H810 H 0.01298 0.35849 0.53159 0.0
C811 C 0.79025 0.37833 0.53323 0.0
C812 C 0.86345 0.38806 0.53172 0.0
H813 H 0.73957 0.3543 0.53331 0.0
H814 H 0.72755 0.38372 0.53283 0.0
C815 C 0.94358 0.3807 0.53261 0.0
C816 C 0.68875 0.11164 0.78412 0.0
C817 C 0.60896 0.10418 0.78259 0.0
H818 H 0.75741 0.13394 0.78355 0.0
C819 C 0.53535 0.11382 0.78334 0.0
H820 H 0.74644 0.10452 0.78362 0.0
C821 C 0.54148 0.13066 0.78364 0.0
C822 C 0.62135 0.13812 0.78274 0.0
H823 H 0.47287 0.10835 0.78243 0.0
H824 H 0.48385 0.13779 0.78275 0.0
C825 C 0.69489 0.12848 0.78397 0.0
C826 C 0.53622 0.12853 0.45423 0.0
C827 C 0.6093 0.1383 0.45518 0.0
H828 H 0.48596 0.10447 0.45463 0.0
C829 C 0.68952 0.13099 0.45382 0.0
H830 H 0.47345 0.13387 0.455 0.0
C831 C 0.69654 0.11417 0.45394 0.0
C832 C 0.62348 0.10439 0.45496 0.0
H833 H 0.74682 0.13822 0.45448 0.0
H834 H 0.75932 0.10882 0.45449 0.0
C835 C 0.54324 0.1117 0.45389 0.0
C836 C 0.29155 0.8804 0.20277 0.0
C837 C 0.37169 0.88777 0.2032 0.0
H838 H 0.2222 0.85819 0.20467 0.0
C839 C 0.44488 0.87803 0.20187 0.0
H840 H 0.23418 0.8876 0.20377 0.0
C841 C 0.43816 0.86121 0.20207 0.0
C842 C 0.35813 0.85385 0.20406 0.0
H843 H 0.50758 0.88342 0.20194 0.0
H844 H 0.49559 0.85401 0.20246 0.0
C845 C 0.28484 0.86357 0.20343 0.0
C846 C 0.29278 0.87805 0.53264 0.0
C847 C 0.36613 0.88773 0.53102 0.0
H848 H 0.24166 0.85405 0.53283 0.0
C849 C 0.44615 0.88032 0.53176 0.0
H850 H 0.23017 0.88347 0.53236 0.0
C851 C 0.45258 0.86349 0.53168 0.0
C852 C 0.37913 0.8538 0.53133 0.0
H853 H 0.50364 0.88749 0.53055 0.0
H854 H 0.51513 0.85806 0.53063 0.0
C855 C 0.29923 0.86122 0.53303 0.0
C856 C 0.54925 0.63077 0.28349 0.0
C857 C 0.6292 0.63817 0.28185 0.0
H858 H 0.48008 0.60853 0.28301 0.0
C859 C 0.7026 0.62847 0.28242 0.0
H860 H 0.49172 0.63794 0.28312 0.0
C861 C 0.69608 0.61164 0.2827 0.0
C862 C 0.61603 0.60424 0.28194 0.0
H863 H 0.76519 0.63389 0.28142 0.0
H864 H 0.75354 0.60446 0.28169 0.0
C865 C 0.54272 0.61394 0.28331 0.0
C866 C 0.69421 0.63051 0.9537 0.0
C867 C 0.61448 0.63802 0.95486 0.0
H868 H 0.76248 0.60817 0.95464 0.0
C869 C 0.54075 0.62843 0.95389 0.0
H870 H 0.75197 0.63761 0.95439 0.0
C871 C 0.54662 0.61159 0.9537 0.0
C872 C 0.62633 0.60408 0.95493 0.0
H873 H 0.47834 0.63392 0.95452 0.0
H874 H 0.48884 0.60449 0.95438 0.0
C875 C 0.70008 0.61367 0.95396 0.0
C876 C 0.29561 0.38126 0.70154 0.0
C877 C 0.37547 0.38872 0.70273 0.0
H878 H 0.22683 0.35898 0.70283 0.0
C879 C 0.44901 0.37906 0.70211 0.0
H880 H 0.23798 0.38841 0.70197 0.0
C881 C 0.44277 0.36222 0.70226 0.0
C882 C 0.36287 0.35478 0.70351 0.0
H883 H 0.51152 0.38451 0.70277 0.0
H884 H 0.50038 0.35508 0.70323 0.0
C885 C 0.28937 0.36443 0.70215 0.0
C886 C 0.28395 0.37834 0.03106 0.0
C887 C 0.35692 0.38815 0.03021 0.0
H888 H 0.23404 0.35426 0.03103 0.0
C889 C 0.43719 0.38089 0.03215 0.0
H890 H 0.22113 0.38365 0.02985 0.0
C891 C 0.44446 0.36407 0.03251 0.0
C892 C 0.37156 0.35425 0.03139 0.0
H893 H 0.4944 0.38815 0.03161 0.0
H894 H 0.50732 0.35875 0.03239 0.0
C895 C 0.2912 0.36153 0.03187 0.0
C896 C 0.95588 0.04578 0.37403 0.0
C897 C 0.9236 0.04617 0.34033 0.0
H898 H 0.9275 0.04617 0.42789 0.0
C899 C 0.83544 0.04578 0.33525 0.0
H900 H 0.02368 0.04599 0.37871 0.0
C901 C 0.78047 0.04585 0.36342 0.0
C902 C 0.81276 0.04634 0.39712 0.0
H903 H 0.80884 0.04601 0.30957 0.0
H904 H 0.71267 0.04612 0.35874 0.0
C905 C 0.9009 0.04587 0.4022 0.0
C906 C 0.40035 0.1967 0.33523 0.0
C907 C 0.31212 0.19627 0.34011 0.0
H908 H 0.52276 0.19653 0.35901 0.0
C909 C 0.27931 0.19679 0.37374 0.0
H910 H 0.42735 0.19638 0.30961 0.0
C911 C 0.33384 0.19684 0.40204 0.0
C912 C 0.42207 0.19641 0.39717 0.0
H913 H 0.21144 0.19655 0.37828 0.0
H914 H 0.30683 0.19663 0.42767 0.0
C915 C 0.45488 0.19679 0.36353 0.0
C916 C 0.77743 0.19621 0.87448 0.0
C917 C 0.80934 0.19596 0.8407 0.0
H918 H 0.80646 0.19576 0.92827 0.0
C919 C 0.89742 0.19653 0.83544 0.0
H920 H 0.70969 0.19584 0.8793 0.0
C921 C 0.95272 0.19651 0.86349 0.0
C922 C 0.92086 0.1959 0.89725 0.0
H923 H 0.92374 0.19642 0.80969 0.0
H924 H 0.02047 0.1964 0.85864 0.0
C925 C 0.83274 0.19616 0.90253 0.0
C926 C 0.40353 0.04549 0.90239 0.0
C927 C 0.31531 0.04571 0.89744 0.0
H928 H 0.52605 0.0459 0.87867 0.0
C929 C 0.28273 0.04498 0.86381 0.0
H930 H 0.43035 0.04598 0.92802 0.0
C931 C 0.3374 0.04497 0.83555 0.0
C932 C 0.42556 0.04566 0.84046 0.0
H933 H 0.21488 0.04503 0.85923 0.0
H934 H 0.3105 0.04503 0.80991 0.0
C935 C 0.45823 0.04546 0.87412 0.0
C936 C 0.08866 0.94641 0.5827 0.0
C937 C 0.17673 0.94589 0.58796 0.0
H938 H 0.96557 0.94637 0.60592 0.0
C939 C 0.20859 0.94636 0.62173 0.0
H940 H 0.06239 0.94613 0.55695 0.0
C941 C 0.15324 0.94647 0.64978 0.0
C942 C 0.06513 0.94614 0.64452 0.0
H943 H 0.27632 0.94605 0.62656 0.0
H944 H 0.17949 0.94623 0.67553 0.0
C945 C 0.03331 0.94655 0.61075 0.0
C946 C 0.58794 0.79539 0.65137 0.0
C947 C 0.67609 0.7958 0.64624 0.0
H948 H 0.46516 0.79557 0.62793 0.0
C949 C 0.70836 0.79523 0.61254 0.0
H950 H 0.56135 0.79576 0.67706 0.0
C951 C 0.65336 0.79515 0.58439 0.0
C952 C 0.56521 0.79563 0.5895 0.0
H953 H 0.77616 0.79545 0.60782 0.0
H954 H 0.67994 0.79533 0.55869 0.0
C955 C 0.53295 0.79529 0.62322 0.0
C956 C 0.20351 0.79578 0.11267 0.0
C957 C 0.17089 0.79616 0.14634 0.0
H958 H 0.17579 0.79633 0.05878 0.0
C959 C 0.08265 0.79592 0.15127 0.0
H960 H 0.27138 0.79589 0.10809 0.0
C961 C 0.028 0.79615 0.12302 0.0
C962 C 0.0607 0.79664 0.08937 0.0
H963 H 0.05578 0.79615 0.17693 0.0
H964 H 0.96016 0.79652 0.1276 0.0
C965 C 0.14888 0.79603 0.08442 0.0
C966 C 0.57871 0.94659 0.08221 0.0
C967 C 0.66698 0.94661 0.08704 0.0
H968 H 0.4564 0.94582 0.1061 0.0
C969 C 0.69976 0.94733 0.12064 0.0
H970 H 0.55173 0.9461 0.05661 0.0
C971 C 0.64533 0.94714 0.14897 0.0
C972 C 0.55719 0.94624 0.14417 0.0
H973 H 0.76764 0.94745 0.12514 0.0
H974 H 0.67244 0.9471 0.17457 0.0
C975 C 0.52423 0.94642 0.11056 0.0
C976 C 0.95354 0.54544 0.87285 0.0
C977 C 0.92104 0.54625 0.83922 0.0
H978 H 0.9256 0.5453 0.92675 0.0
C979 C 0.83283 0.54605 0.83424 0.0
H980 H 0.02139 0.54549 0.87746 0.0
C981 C 0.77806 0.54591 0.86249 0.0
C982 C 0.81063 0.54599 0.89616 0.0
H983 H 0.80606 0.54661 0.80861 0.0
H984 H 0.71025 0.54635 0.85791 0.0
C985 C 0.89879 0.54532 0.90109 0.0
C986 C 0.28579 0.69714 0.87362 0.0
C987 C 0.31778 0.69642 0.83989 0.0
H988 H 0.31447 0.697 0.92744 0.0
C989 C 0.40594 0.69647 0.83468 0.0
H990 H 0.21801 0.69719 0.87841 0.0
C991 C 0.4611 0.69639 0.86278 0.0
C992 C 0.42898 0.69623 0.89653 0.0
H993 H 0.43232 0.69598 0.80896 0.0
H994 H 0.52883 0.69586 0.85802 0.0
C995 C 0.34093 0.69703 0.90171 0.0
C996 C 0.83439 0.69659 0.40248 0.0
C997 C 0.92266 0.69637 0.39766 0.0
H998 H 0.71213 0.69623 0.37859 0.0
C999 C 0.95561 0.69712 0.36408 0.0
H1000 H 0.80728 0.69609 0.42807 0.0
C1001 C 0.90125 0.69717 0.33574 0.0
C1002 C 0.81304 0.6965 0.34052 0.0
H1003 H 0.02352 0.69706 0.3596 0.0
H1004 H 0.92842 0.69712 0.31014 0.0
C1005 C 0.78001 0.69666 0.37413 0.0
C1006 C 0.45989 0.54617 0.37413 0.0
C1007 C 0.42775 0.54633 0.34039 0.0
H1008 H 0.43114 0.54662 0.42796 0.0
C1009 C 0.33968 0.5456 0.33526 0.0
H1010 H 0.52763 0.54665 0.37885 0.0
C1011 C 0.28456 0.54555 0.36337 0.0
C1012 C 0.31658 0.54625 0.3971 0.0
H1013 H 0.31319 0.54564 0.30955 0.0
H1014 H 0.21678 0.54555 0.35862 0.0
C1015 C 0.40474 0.54614 0.40226 0.0
C1016 C 0.14578 0.44634 0.14945 0.0
C1017 C 0.05761 0.44561 0.1446 0.0
H1018 H 0.26819 0.44649 0.12567 0.0
C1019 C 0.02477 0.44586 0.11098 0.0
H1020 H 0.1728 0.44623 0.17507 0.0
C1021 C 0.07934 0.44599 0.08266 0.0
C1022 C 0.16759 0.44588 0.08752 0.0
H1023 H 0.95694 0.44538 0.10647 0.0
H1024 H 0.05241 0.44557 0.05704 0.0
C1025 C 0.20031 0.44649 0.12115 0.0
C1026 C 0.58112 0.29536 0.15206 0.0
C1027 C 0.66937 0.29558 0.14716 0.0
H1028 H 0.45871 0.2959 0.1283 0.0
C1029 C 0.7021 0.29505 0.11352 0.0
H1030 H 0.55417 0.2957 0.17769 0.0
C1031 C 0.64756 0.29521 0.08524 0.0
C1032 C 0.55938 0.29587 0.09013 0.0
H1033 H 0.76998 0.29513 0.10897 0.0
H1034 H 0.67457 0.29541 0.05961 0.0
C1035 C 0.52656 0.29549 0.12376 0.0
C1036 C 0.03282 0.29576 0.62369 0.0
C1037 C 0.06502 0.2962 0.58996 0.0
H1038 H 0.06125 0.29616 0.67752 0.0
C1039 C 0.15318 0.2959 0.58483 0.0
H1040 H 0.96502 0.2959 0.62842 0.0
C1041 C 0.20821 0.29602 0.61297 0.0
C1042 C 0.17596 0.29646 0.64669 0.0
H1043 H 0.17971 0.29618 0.55913 0.0
H1044 H 0.276 0.29637 0.60825 0.0
C1045 C 0.08783 0.2959 0.65182 0.0
C1046 C 0.65027 0.44729 0.64977 0.0
C1047 C 0.56218 0.4468 0.64454 0.0
H1048 H 0.77332 0.44696 0.62652 0.0
C1049 C 0.53029 0.44705 0.61077 0.0
H1050 H 0.67658 0.44717 0.67551 0.0
C1051 C 0.5856 0.4469 0.5827 0.0
C1052 C 0.6737 0.44651 0.58796 0.0
H1053 H 0.46254 0.44675 0.60596 0.0
H1054 H 0.5593 0.44648 0.55697 0.0
C1055 C 0.70558 0.44716 0.6217 0.0
loop_
_geom_bond_atom_site_label_1
_geom_bond_atom_site_label_2
_geom_bond_distance
_geom_bond_site_symmetry_2
_ccdc_geom_bond_type
In0 O1 2.294 1_455 S
In0 O2 2.326 . S
In0 O6 2.266 . S
In0 O7 2.326 . S
In0 O8 2.266 . S
In0 O9 2.326 . S
In0 O11 2.294 . S
In0 O12 2.326 . S
O1 In0 2.294 1_655 S
O1 C10 1.240 . S
O2 In0 2.326 . S
O2 C10 1.253 1_455 S
C3 O6 1.252 . S
C3 O7 1.260 . S
C4 O11 1.240 . S
C4 O12 1.252 . S
C5 O8 1.252 . S
C5 O9 1.260 . S
O6 In0 2.266 . S
O6 C3 1.252 . S
O7 In0 2.326 . S
O7 C3 1.260 . S
O8 In0 2.266 . S
O8 C5 1.252 . S
O9 In0 2.326 . S
O9 C5 1.260 . S
C10 O1 1.240 . S
C10 O2 1.253 1_655 S
O11 In0 2.294 . S
O11 C4 1.240 . S
O12 In0 2.326 . S
O12 C4 1.252 . S
In13 O14 2.294 . S
In13 O15 2.326 . S
In13 O19 2.266 . S
In13 O20 2.326 . S
In13 O21 2.266 . S
In13 O22 2.326 . S
In13 O24 2.294 . S
In13 O25 2.326 . S
O14 In13 2.294 . S
O14 C23 1.240 . S
O15 In13 2.326 . S
O15 C23 1.252 . S
C16 O19 1.252 . S
C16 O20 1.260 . S
C17 O24 1.240 . S
C17 O25 1.252 . S
C18 O21 1.252 . S
C18 O22 1.260 . S
O19 In13 2.266 . S
O19 C16 1.252 . S
O20 In13 2.326 . S
O20 C16 1.260 . S
O21 In13 2.266 . S
O21 C18 1.252 . S
O22 In13 2.326 . S
O22 C18 1.260 . S
C23 O14 1.240 . S
C23 O15 1.252 . S
O24 In13 2.294 . S
O24 C17 1.240 . S
O25 In13 2.326 . S
O25 C17 1.252 . S
In26 O27 2.294 . S
In26 O28 2.326 . S
In26 O32 2.266 . S
In26 O33 2.326 . S
In26 O34 2.266 1_556 S
In26 O35 2.326 1_556 S
In26 O37 2.294 1_455 S
In26 O38 2.326 . S
O27 In26 2.294 . S
O27 C36 1.240 . S
O28 In26 2.326 . S
O28 C36 1.252 . S
C29 O32 1.252 . S
C29 O33 1.260 . S
C30 O37 1.240 . S
C30 O38 1.252 1_655 S
C31 O34 1.252 . S
C31 O35 1.260 . S
O32 In26 2.266 . S
O32 C29 1.252 . S
O33 In26 2.326 . S
O33 C29 1.260 . S
O34 In26 2.266 1_554 S
O34 C31 1.252 . S
O35 In26 2.326 1_554 S
O35 C31 1.260 . S
C36 O27 1.240 . S
C36 O28 1.252 . S
O37 In26 2.294 1_655 S
O37 C30 1.240 . S
O38 In26 2.326 . S
O38 C30 1.252 1_455 S
In39 O40 2.294 . S
In39 O41 2.326 . S
In39 O45 2.266 1_556 S
In39 O46 2.326 1_556 S
In39 O47 2.266 . S
In39 O48 2.326 . S
In39 O50 2.294 . S
In39 O51 2.326 . S
O40 In39 2.294 . S
O40 C49 1.240 . S
O41 In39 2.326 . S
O41 C49 1.252 . S
C42 O45 1.252 . S
C42 O46 1.260 . S
C43 O50 1.240 . S
C43 O51 1.252 . S
C44 O47 1.252 . S
C44 O48 1.260 . S
O45 In39 2.266 1_554 S
O45 C42 1.252 . S
O46 In39 2.326 1_554 S
O46 C42 1.260 . S
O47 In39 2.266 . S
O47 C44 1.252 . S
O48 In39 2.326 . S
O48 C44 1.260 . S
C49 O40 1.240 . S
C49 O41 1.252 . S
O50 In39 2.294 . S
O50 C43 1.240 . S
O51 In39 2.326 . S
O51 C43 1.252 . S
In52 O53 2.294 . S
In52 O54 2.326 . S
In52 O58 2.266 . S
In52 O59 2.326 . S
In52 O60 2.266 . S
In52 O61 2.326 . S
In52 O63 2.294 1_655 S
In52 O64 2.326 . S
O53 In52 2.294 . S
O53 C62 1.240 . S
O54 In52 2.326 . S
O54 C62 1.252 . S
C55 O58 1.252 . S
C55 O59 1.260 . S
C56 O63 1.240 . S
C56 O64 1.253 1_455 S
C57 O60 1.252 . S
C57 O61 1.260 . S
O58 In52 2.266 . S
O58 C55 1.252 . S
O59 In52 2.326 . S
O59 C55 1.260 . S
O60 In52 2.266 . S
O60 C57 1.252 . S
O61 In52 2.326 . S
O61 C57 1.260 . S
C62 O53 1.240 . S
C62 O54 1.252 . S
O63 In52 2.294 1_455 S
O63 C56 1.240 . S
O64 In52 2.326 . S
O64 C56 1.253 1_655 S
In65 O66 2.294 . S
In65 O67 2.326 . S
In65 O71 2.266 . S
In65 O72 2.326 . S
In65 O73 2.266 . S
In65 O74 2.326 . S
In65 O76 2.294 . S
In65 O77 2.326 . S
O66 In65 2.294 . S
O66 C75 1.240 . S
O67 In65 2.326 . S
O67 C75 1.252 . S
C68 O71 1.252 . S
C68 O72 1.260 . S
C69 O76 1.240 . S
C69 O77 1.252 . S
C70 O73 1.252 . S
C70 O74 1.260 . S
O71 In65 2.266 . S
O71 C68 1.252 . S
O72 In65 2.326 . S
O72 C68 1.260 . S
O73 In65 2.266 . S
O73 C70 1.252 . S
O74 In65 2.326 . S
O74 C70 1.260 . S
C75 O66 1.240 . S
C75 O67 1.252 . S
O76 In65 2.294 . S
O76 C69 1.240 . S
O77 In65 2.326 . S
O77 C69 1.252 . S
In78 O79 2.294 1_655 S
In78 O80 2.326 . S
In78 O84 2.266 1_554 S
In78 O85 2.326 1_554 S
In78 O86 2.266 . S
In78 O87 2.326 . S
In78 O89 2.294 . S
In78 O90 2.326 . S
O79 In78 2.294 1_455 S
O79 C88 1.240 . S
O80 In78 2.326 . S
O80 C88 1.252 1_655 S
C81 O84 1.252 . S
C81 O85 1.260 . S
C82 O89 1.240 . S
C82 O90 1.252 . S
C83 O86 1.252 . S
C83 O87 1.260 . S
O84 In78 2.266 1_556 S
O84 C81 1.252 . S
O85 In78 2.326 1_556 S
O85 C81 1.260 . S
O86 In78 2.266 . S
O86 C83 1.252 . S
O87 In78 2.326 . S
O87 C83 1.260 . S
C88 O79 1.240 . S
C88 O80 1.252 1_455 S
O89 In78 2.294 . S
O89 C82 1.240 . S
O90 In78 2.326 . S
O90 C82 1.252 . S
In91 O92 2.294 . S
In91 O93 2.326 . S
In91 O97 2.266 1_554 S
In91 O98 2.326 1_554 S
In91 O99 2.266 . S
In91 O100 2.326 . S
In91 O102 2.294 . S
In91 O103 2.326 . S
O92 In91 2.294 . S
O92 C101 1.240 . S
O93 In91 2.326 . S
O93 C101 1.252 . S
C94 O97 1.252 . S
C94 O98 1.260 . S
C95 O102 1.240 . S
C95 O103 1.252 . S
C96 O99 1.252 . S
C96 O100 1.260 . S
O97 In91 2.266 1_556 S
O97 C94 1.252 . S
O98 In91 2.326 1_556 S
O98 C94 1.260 . S
O99 In91 2.266 . S
O99 C96 1.252 . S
O100 In91 2.326 . S
O100 C96 1.260 . S
C101 O92 1.240 . S
C101 O93 1.252 . S
O102 In91 2.294 . S
O102 C95 1.240 . S
O103 In91 2.326 . S
O103 C95 1.252 . S
In104 O105 2.294 . S
In104 O106 2.326 . S
In104 O110 2.266 . S
In104 O111 2.326 . S
In104 O112 2.266 . S
In104 O113 2.326 . S
In104 O115 2.294 1_455 S
In104 O116 2.326 . S
O105 In104 2.294 . S
O105 C114 1.240 . S
O106 In104 2.326 . S
O106 C114 1.252 . S
C107 O110 1.252 . S
C107 O111 1.260 . S
C108 O115 1.240 . S
C108 O116 1.253 1_655 S
C109 O112 1.252 . S
C109 O113 1.260 . S
O110 In104 2.266 . S
O110 C107 1.252 . S
O111 In104 2.326 . S
O111 C107 1.260 . S
O112 In104 2.266 . S
O112 C109 1.252 . S
O113 In104 2.326 . S
O113 C109 1.260 . S
C114 O105 1.240 . S
C114 O106 1.252 . S
O115 In104 2.294 1_655 S
O115 C108 1.240 . S
O116 In104 2.326 . S
O116 C108 1.253 1_455 S
In117 O118 2.294 . S
In117 O119 2.326 . S
In117 O123 2.266 . S
In117 O124 2.326 . S
In117 O125 2.266 . S
In117 O126 2.326 . S
In117 O128 2.294 . S
In117 O129 2.326 . S
O118 In117 2.294 . S
O118 C127 1.240 . S
O119 In117 2.326 . S
O119 C127 1.252 . S
C120 O123 1.252 . S
C120 O124 1.260 . S
C121 O128 1.240 . S
C121 O129 1.252 . S
C122 O125 1.252 . S
C122 O126 1.260 . S
O123 In117 2.266 . S
O123 C120 1.252 . S
O124 In117 2.326 . S
O124 C120 1.260 . S
O125 In117 2.266 . S
O125 C122 1.252 . S
O126 In117 2.326 . S
O126 C122 1.260 . S
C127 O118 1.240 . S
C127 O119 1.252 . S
O128 In117 2.294 . S
O128 C121 1.240 . S
O129 In117 2.326 . S
O129 C121 1.252 . S
In130 O131 2.294 . S
In130 O132 2.326 . S
In130 O136 2.266 . S
In130 O137 2.326 . S
In130 O138 2.266 . S
In130 O139 2.326 . S
In130 O141 2.294 1_455 S
In130 O142 2.326 . S
O131 In130 2.294 . S
O131 C140 1.240 . S
O132 In130 2.326 . S
O132 C140 1.252 . S
C133 O136 1.252 . S
C133 O137 1.260 . S
C134 O141 1.240 . S
C134 O142 1.252 1_655 S
C135 O138 1.252 . S
C135 O139 1.260 . S
O136 In130 2.266 . S
O136 C133 1.252 . S
O137 In130 2.326 . S
O137 C133 1.260 . S
O138 In130 2.266 . S
O138 C135 1.252 . S
O139 In130 2.326 . S
O139 C135 1.260 . S
C140 O131 1.240 . S
C140 O132 1.252 . S
O141 In130 2.294 1_655 S
O141 C134 1.240 . S
O142 In130 2.326 . S
O142 C134 1.252 1_455 S
In143 O144 2.294 . S
In143 O145 2.326 . S
In143 O149 2.266 . S
In143 O150 2.326 . S
In143 O151 2.266 . S
In143 O152 2.326 . S
In143 O154 2.294 . S
In143 O155 2.326 . S
O144 In143 2.294 . S
O144 C153 1.240 . S
O145 In143 2.326 . S
O145 C153 1.252 . S
C146 O149 1.252 . S
C146 O150 1.260 . S
C147 O154 1.240 . S
C147 O155 1.252 . S
C148 O151 1.252 . S
C148 O152 1.260 . S
O149 In143 2.266 . S
O149 C146 1.252 . S
O150 In143 2.326 . S
O150 C146 1.260 . S
O151 In143 2.266 . S
O151 C148 1.252 . S
O152 In143 2.326 . S
O152 C148 1.260 . S
C153 O144 1.240 . S
C153 O145 1.252 . S
O154 In143 2.294 . S
O154 C147 1.240 . S
O155 In143 2.326 . S
O155 C147 1.252 . S
In156 O157 2.294 . S
In156 O158 2.326 . S
In156 O162 2.266 . S
In156 O163 2.326 . S
In156 O164 2.266 . S
In156 O165 2.326 . S
In156 O167 2.294 1_655 S
In156 O168 2.326 . S
O157 In156 2.294 . S
O157 C166 1.240 . S
O158 In156 2.326 . S
O158 C166 1.252 . S
C159 O162 1.252 . S
C159 O163 1.260 . S
C160 O167 1.240 . S
C160 O168 1.253 1_455 S
C161 O164 1.252 . S
C161 O165 1.260 . S
O162 In156 2.266 . S
O162 C159 1.252 . S
O163 In156 2.326 . S
O163 C159 1.260 . S
O164 In156 2.266 . S
O164 C161 1.252 . S
O165 In156 2.326 . S
O165 C161 1.260 . S
C166 O157 1.240 . S
C166 O158 1.252 . S
O167 In156 2.294 1_455 S
O167 C160 1.240 . S
O168 In156 2.326 . S
O168 C160 1.253 1_655 S
In169 O170 2.294 . S
In169 O171 2.326 . S
In169 O175 2.266 . S
In169 O176 2.326 . S
In169 O177 2.266 . S
In169 O178 2.326 . S
In169 O180 2.294 . S
In169 O181 2.326 . S
O170 In169 2.294 . S
O170 C179 1.240 . S
O171 In169 2.326 . S
O171 C179 1.252 . S
C172 O175 1.252 . S
C172 O176 1.260 . S
C173 O180 1.240 . S
C173 O181 1.252 . S
C174 O177 1.252 . S
C174 O178 1.260 . S
O175 In169 2.266 . S
O175 C172 1.252 . S
O176 In169 2.326 . S
O176 C172 1.260 . S
O177 In169 2.266 . S
O177 C174 1.252 . S
O178 In169 2.326 . S
O178 C174 1.260 . S
C179 O170 1.240 . S
C179 O171 1.252 . S
O180 In169 2.294 . S
O180 C173 1.240 . S
O181 In169 2.326 . S
O181 C173 1.252 . S
In182 O183 2.294 1_655 S
In182 O184 2.326 . S
In182 O188 2.266 . S
In182 O189 2.326 . S
In182 O190 2.266 . S
In182 O191 2.326 . S
In182 O193 2.294 . S
In182 O194 2.326 . S
O183 In182 2.294 1_455 S
O183 C192 1.240 . S
O184 In182 2.326 . S
O184 C192 1.252 1_655 S
C185 O188 1.252 . S
C185 O189 1.260 . S
C186 O193 1.240 . S
C186 O194 1.252 . S
C187 O190 1.252 . S
C187 O191 1.260 . S
O188 In182 2.266 . S
O188 C185 1.252 . S
O189 In182 2.326 . S
O189 C185 1.260 . S
O190 In182 2.266 . S
O190 C187 1.252 . S
O191 In182 2.326 . S
O191 C187 1.260 . S
C192 O183 1.240 . S
C192 O184 1.252 1_455 S
O193 In182 2.294 . S
O193 C186 1.240 . S
O194 In182 2.326 . S
O194 C186 1.252 . S
In195 O196 2.294 . S
In195 O197 2.326 . S
In195 O201 2.266 . S
In195 O202 2.326 . S
In195 O203 2.266 . S
In195 O204 2.326 . S
In195 O206 2.294 . S
In195 O207 2.326 . S
O196 In195 2.294 . S
O196 C205 1.240 . S
O197 In195 2.326 . S
O197 C205 1.252 . S
C198 O201 1.252 . S
C198 O202 1.260 . S
C199 O206 1.240 . S
C199 O207 1.252 . S
C200 O203 1.252 . S
C200 O204 1.260 . S
O201 In195 2.266 . S
O201 C198 1.252 . S
O202 In195 2.326 . S
O202 C198 1.260 . S
O203 In195 2.266 . S
O203 C200 1.252 . S
O204 In195 2.326 . S
O204 C200 1.260 . S
C205 O196 1.240 . S
C205 O197 1.252 . S
O206 In195 2.294 . S
O206 C199 1.240 . S
O207 In195 2.326 . S
O207 C199 1.252 . S
In208 O209 2.294 . S
In208 O210 2.326 . S
In208 O214 2.266 . S
In208 O215 2.326 . S
In208 O216 2.266 . S
In208 O217 2.326 . S
In208 O219 2.294 . S
In208 O220 2.326 . S
O209 In208 2.294 . S
O209 C218 1.240 . S
O210 In208 2.326 . S
O210 C218 1.252 . S
C211 O214 1.252 . S
C211 O215 1.260 . S
C212 O219 1.240 . S
C212 O220 1.252 . S
C213 O216 1.252 . S
C213 O217 1.260 . S
O214 In208 2.266 . S
O214 C211 1.252 . S
O215 In208 2.326 . S
O215 C211 1.260 . S
O216 In208 2.266 . S
O216 C213 1.252 . S
O217 In208 2.326 . S
O217 C213 1.260 . S
C218 O209 1.240 . S
C218 O210 1.252 . S
O219 In208 2.294 . S
O219 C212 1.240 . S
O220 In208 2.326 . S
O220 C212 1.252 . S
In221 O222 2.294 . S
In221 O223 2.326 . S
In221 O227 2.266 . S
In221 O228 2.326 . S
In221 O229 2.266 . S
In221 O230 2.326 . S
In221 O232 2.294 . S
In221 O233 2.326 . S
O222 In221 2.294 . S
O222 C231 1.240 . S
O223 In221 2.326 . S
O223 C231 1.252 . S
C224 O227 1.252 . S
C224 O228 1.260 . S
C225 O232 1.240 . S
C225 O233 1.252 . S
C226 O229 1.252 . S
C226 O230 1.260 . S
O227 In221 2.266 . S
O227 C224 1.252 . S
O228 In221 2.326 . S
O228 C224 1.260 . S
O229 In221 2.266 . S
O229 C226 1.252 . S
O230 In221 2.326 . S
O230 C226 1.260 . S
C231 O222 1.240 . S
C231 O223 1.252 . S
O232 In221 2.294 . S
O232 C225 1.240 . S
O233 In221 2.326 . S
O233 C225 1.252 . S
In234 O235 2.294 . S
In234 O236 2.326 . S
In234 O240 2.266 . S
In234 O241 2.326 . S
In234 O242 2.266 . S
In234 O243 2.326 . S
In234 O245 2.294 . S
In234 O246 2.326 . S
O235 In234 2.294 . S
O235 C244 1.240 . S
O236 In234 2.326 . S
O236 C244 1.252 . S
C237 O240 1.252 . S
C237 O241 1.260 . S
C238 O245 1.240 . S
C238 O246 1.252 . S
C239 O242 1.252 . S
C239 O243 1.260 . S
O240 In234 2.266 . S
O240 C237 1.252 . S
O241 In234 2.326 . S
O241 C237 1.260 . S
O242 In234 2.266 . S
O242 C239 1.252 . S
O243 In234 2.326 . S
O243 C239 1.260 . S
C244 O235 1.240 . S
C244 O236 1.252 . S
O245 In234 2.294 . S
O245 C238 1.240 . S
O246 In234 2.326 . S
O246 C238 1.252 . S
In247 O248 2.294 . S
In247 O249 2.326 . S
In247 O253 2.266 . S
In247 O254 2.326 . S
In247 O255 2.266 . S
In247 O256 2.326 . S
In247 O258 2.294 . S
In247 O259 2.326 . S
O248 In247 2.294 . S
O248 C257 1.240 . S
O249 In247 2.326 . S
O249 C257 1.252 . S
C250 O253 1.252 . S
C250 O254 1.260 . S
C251 O258 1.240 . S
C251 O259 1.252 . S
C252 O255 1.252 . S
C252 O256 1.260 . S
O253 In247 2.266 . S
O253 C250 1.252 . S
O254 In247 2.326 . S
O254 C250 1.260 . S
O255 In247 2.266 . S
O255 C252 1.252 . S
O256 In247 2.326 . S
O256 C252 1.260 . S
C257 O248 1.240 . S
C257 O249 1.252 . S
O258 In247 2.294 . S
O258 C251 1.240 . S
O259 In247 2.326 . S
O259 C251 1.252 . S
In260 O261 2.294 . S
In260 O262 2.326 . S
In260 O266 2.266 . S
In260 O267 2.326 . S
In260 O268 2.266 . S
In260 O269 2.326 . S
In260 O271 2.294 . S
In260 O272 2.326 . S
O261 In260 2.294 . S
O261 C270 1.240 . S
O262 In260 2.326 . S
O262 C270 1.252 . S
C263 O266 1.252 . S
C263 O267 1.260 . S
C264 O271 1.240 . S
C264 O272 1.252 . S
C265 O268 1.252 . S
C265 O269 1.260 . S
O266 In260 2.266 . S
O266 C263 1.252 . S
O267 In260 2.326 . S
O267 C263 1.260 . S
O268 In260 2.266 . S
O268 C265 1.252 . S
O269 In260 2.326 . S
O269 C265 1.260 . S
C270 O261 1.240 . S
C270 O262 1.252 . S
O271 In260 2.294 . S
O271 C264 1.240 . S
O272 In260 2.326 . S
O272 C264 1.252 . S
In273 O274 2.294 . S
In273 O275 2.326 . S
In273 O279 2.266 . S
In273 O280 2.326 . S
In273 O281 2.266 . S
In273 O282 2.326 . S
In273 O284 2.294 . S
In273 O285 2.326 . S
O274 In273 2.294 . S
O274 C283 1.240 . S
O275 In273 2.326 . S
O275 C283 1.252 . S
C276 O279 1.252 . S
C276 O280 1.260 . S
C277 O284 1.240 . S
C277 O285 1.252 . S
C278 O281 1.252 . S
C278 O282 1.260 . S
O279 In273 2.266 . S
O279 C276 1.252 . S
O280 In273 2.326 . S
O280 C276 1.260 . S
O281 In273 2.266 . S
O281 C278 1.252 . S
O282 In273 2.326 . S
O282 C278 1.260 . S
C283 O274 1.240 . S
C283 O275 1.252 . S
O284 In273 2.294 . S
O284 C277 1.240 . S
O285 In273 2.326 . S
O285 C277 1.252 . S
In286 O287 2.294 . S
In286 O288 2.326 . S
In286 O292 2.266 . S
In286 O293 2.326 . S
In286 O294 2.266 . S
In286 O295 2.326 . S
In286 O297 2.294 . S
In286 O298 2.326 . S
O287 In286 2.294 . S
O287 C296 1.240 . S
O288 In286 2.326 . S
O288 C296 1.252 . S
C289 O292 1.252 . S
C289 O293 1.260 . S
C290 O297 1.240 . S
C290 O298 1.252 . S
C291 O294 1.252 . S
C291 O295 1.260 . S
O292 In286 2.266 . S
O292 C289 1.252 . S
O293 In286 2.326 . S
O293 C289 1.260 . S
O294 In286 2.266 . S
O294 C291 1.252 . S
O295 In286 2.326 . S
O295 C291 1.260 . S
C296 O287 1.240 . S
C296 O288 1.252 . S
O297 In286 2.294 . S
O297 C290 1.240 . S
O298 In286 2.326 . S
O298 C290 1.252 . S
In299 O300 2.294 . S
In299 O301 2.326 . S
In299 O305 2.266 . S
In299 O306 2.326 . S
In299 O307 2.266 . S
In299 O308 2.326 . S
In299 O310 2.294 . S
In299 O311 2.326 . S
O300 In299 2.294 . S
O300 C309 1.240 . S
O301 In299 2.326 . S
O301 C309 1.252 . S
C302 O305 1.252 . S
C302 O306 1.260 . S
C303 O310 1.240 . S
C303 O311 1.252 . S
C304 O307 1.252 . S
C304 O308 1.260 . S
O305 In299 2.266 . S
O305 C302 1.252 . S
O306 In299 2.326 . S
O306 C302 1.260 . S
O307 In299 2.266 . S
O307 C304 1.252 . S
O308 In299 2.326 . S
O308 C304 1.260 . S
C309 O300 1.240 . S
C309 O301 1.252 . S
O310 In299 2.294 . S
O310 C303 1.240 . S
O311 In299 2.326 . S
O311 C303 1.252 . S
In312 O313 2.294 . S
In312 O314 2.326 . S
In312 O318 2.266 . S
In312 O319 2.326 . S
In312 O320 2.266 . S
In312 O321 2.326 . S
In312 O323 2.294 . S
In312 O324 2.326 . S
O313 In312 2.294 . S
O313 C322 1.240 . S
O314 In312 2.326 . S
O314 C322 1.252 . S
C315 O318 1.252 . S
C315 O319 1.260 . S
C316 O323 1.240 . S
C316 O324 1.252 . S
C317 O320 1.252 . S
C317 O321 1.260 . S
O318 In312 2.266 . S
O318 C315 1.252 . S
O319 In312 2.326 . S
O319 C315 1.260 . S
O320 In312 2.266 . S
O320 C317 1.252 . S
O321 In312 2.326 . S
O321 C317 1.260 . S
C322 O313 1.240 . S
C322 O314 1.252 . S
O323 In312 2.294 . S
O323 C316 1.240 . S
O324 In312 2.326 . S
O324 C316 1.252 . S
In325 O326 2.294 . S
In325 O327 2.326 . S
In325 O331 2.266 . S
In325 O332 2.326 . S
In325 O333 2.266 . S
In325 O334 2.326 . S
In325 O336 2.294 . S
In325 O337 2.326 . S
O326 In325 2.294 . S
O326 C335 1.240 . S
O327 In325 2.326 . S
O327 C335 1.252 . S
C328 O331 1.252 . S
C328 O332 1.260 . S
C329 O336 1.240 . S
C329 O337 1.252 . S
C330 O333 1.252 . S
C330 O334 1.260 . S
O331 In325 2.266 . S
O331 C328 1.252 . S
O332 In325 2.326 . S
O332 C328 1.260 . S
O333 In325 2.266 . S
O333 C330 1.252 . S
O334 In325 2.326 . S
O334 C330 1.260 . S
C335 O326 1.240 . S
C335 O327 1.252 . S
O336 In325 2.294 . S
O336 C329 1.240 . S
O337 In325 2.326 . S
O337 C329 1.252 . S
In338 O339 2.294 . S
In338 O340 2.326 . S
In338 O344 2.266 1_556 S
In338 O345 2.326 1_556 S
In338 O346 2.266 . S
In338 O347 2.326 . S
In338 O349 2.294 . S
In338 O350 2.326 . S
O339 In338 2.294 . S
O339 C348 1.240 . S
O340 In338 2.326 . S
O340 C348 1.252 . S
C341 O344 1.252 . S
C341 O345 1.260 . S
C342 O349 1.240 . S
C342 O350 1.252 . S
C343 O346 1.252 . S
C343 O347 1.260 . S
O344 In338 2.266 1_554 S
O344 C341 1.252 . S
O345 In338 2.326 1_554 S
O345 C341 1.260 . S
O346 In338 2.266 . S
O346 C343 1.252 . S
O347 In338 2.326 . S
O347 C343 1.260 . S
C348 O339 1.240 . S
C348 O340 1.252 . S
O349 In338 2.294 . S
O349 C342 1.240 . S
O350 In338 2.326 . S
O350 C342 1.252 . S
In351 O352 2.294 . S
In351 O353 2.326 . S
In351 O357 2.266 1_556 S
In351 O358 2.326 1_556 S
In351 O359 2.266 . S
In351 O360 2.326 . S
In351 O362 2.294 . S
In351 O363 2.326 . S
O352 In351 2.294 . S
O352 C361 1.240 . S
O353 In351 2.326 . S
O353 C361 1.252 . S
C354 O357 1.252 . S
C354 O358 1.260 . S
C355 O362 1.240 . S
C355 O363 1.252 . S
C356 O359 1.252 . S
C356 O360 1.260 . S
O357 In351 2.266 1_554 S
O357 C354 1.252 . S
O358 In351 2.326 1_554 S
O358 C354 1.260 . S
O359 In351 2.266 . S
O359 C356 1.252 . S
O360 In351 2.326 . S
O360 C356 1.260 . S
C361 O352 1.240 . S
C361 O353 1.252 . S
O362 In351 2.294 . S
O362 C355 1.240 . S
O363 In351 2.326 . S
O363 C355 1.252 . S
In364 O365 2.294 . S
In364 O366 2.326 . S
In364 O370 2.266 . S
In364 O371 2.326 . S
In364 O372 2.266 . S
In364 O373 2.326 . S
In364 O375 2.294 . S
In364 O376 2.326 . S
O365 In364 2.294 . S
O365 C374 1.240 . S
O366 In364 2.326 . S
O366 C374 1.252 . S
C367 O370 1.252 . S
C367 O371 1.260 . S
C368 O375 1.240 . S
C368 O376 1.252 . S
C369 O372 1.252 . S
C369 O373 1.260 . S
O370 In364 2.266 . S
O370 C367 1.252 . S
O371 In364 2.326 . S
O371 C367 1.260 . S
O372 In364 2.266 . S
O372 C369 1.252 . S
O373 In364 2.326 . S
O373 C369 1.260 . S
C374 O365 1.240 . S
C374 O366 1.252 . S
O375 In364 2.294 . S
O375 C368 1.240 . S
O376 In364 2.326 . S
O376 C368 1.252 . S
In377 O378 2.294 . S
In377 O379 2.326 . S
In377 O383 2.266 . S
In377 O384 2.326 . S
In377 O385 2.266 . S
In377 O386 2.326 . S
In377 O388 2.294 . S
In377 O389 2.326 . S
O378 In377 2.294 . S
O378 C387 1.240 . S
O379 In377 2.326 . S
O379 C387 1.252 . S
C380 O383 1.252 . S
C380 O384 1.260 . S
C381 O388 1.240 . S
C381 O389 1.252 . S
C382 O385 1.252 . S
C382 O386 1.260 . S
O383 In377 2.266 . S
O383 C380 1.252 . S
O384 In377 2.326 . S
O384 C380 1.260 . S
O385 In377 2.266 . S
O385 C382 1.252 . S
O386 In377 2.326 . S
O386 C382 1.260 . S
C387 O378 1.240 . S
C387 O379 1.252 . S
O388 In377 2.294 . S
O388 C381 1.240 . S
O389 In377 2.326 . S
O389 C381 1.252 . S
In390 O391 2.294 . S
In390 O392 2.326 . S
In390 O396 2.266 1_554 S
In390 O397 2.326 1_554 S
In390 O398 2.266 . S
In390 O399 2.326 . S
In390 O401 2.294 . S
In390 O402 2.326 . S
O391 In390 2.294 . S
O391 C400 1.240 . S
O392 In390 2.326 . S
O392 C400 1.252 . S
C393 O396 1.252 . S
C393 O397 1.260 . S
C394 O401 1.240 . S
C394 O402 1.252 . S
C395 O398 1.252 . S
C395 O399 1.260 . S
O396 In390 2.266 1_556 S
O396 C393 1.252 . S
O397 In390 2.326 1_556 S
O397 C393 1.260 . S
O398 In390 2.266 . S
O398 C395 1.252 . S
O399 In390 2.326 . S
O399 C395 1.260 . S
C400 O391 1.240 . S
C400 O392 1.252 . S
O401 In390 2.294 . S
O401 C394 1.240 . S
O402 In390 2.326 . S
O402 C394 1.252 . S
In403 O404 2.294 . S
In403 O405 2.326 . S
In403 O409 2.266 . S
In403 O410 2.326 . S
In403 O411 2.266 1_554 S
In403 O412 2.326 1_554 S
In403 O414 2.294 . S
In403 O415 2.326 . S
O404 In403 2.294 . S
O404 C413 1.240 . S
O405 In403 2.326 . S
O405 C413 1.252 . S
C406 O409 1.252 . S
C406 O410 1.260 . S
C407 O414 1.240 . S
C407 O415 1.252 . S
C408 O411 1.252 . S
C408 O412 1.260 . S
O409 In403 2.266 . S
O409 C406 1.252 . S
O410 In403 2.326 . S
O410 C406 1.260 . S
O411 In403 2.266 1_556 S
O411 C408 1.252 . S
O412 In403 2.326 1_556 S
O412 C408 1.260 . S
C413 O404 1.240 . S
C413 O405 1.252 . S
O414 In403 2.294 . S
O414 C407 1.240 . S
O415 In403 2.326 . S
O415 C407 1.252 . S
C416 C417 1.387 . S
C416 H420 0.950 . S
C416 C425 1.390 . S
C417 C416 1.387 . S
C417 C419 1.387 . S
H418 C425 0.950 . S
C419 C417 1.387 . S
C419 C421 1.390 . S
C419 H423 0.950 . S
H420 C416 0.950 . S
C421 C419 1.390 . S
C421 C422 1.387 . S
C421 H424 0.950 . S
C422 C421 1.387 . S
C422 C425 1.387 . S
H423 C419 0.950 . S
H424 C421 0.950 . S
C425 C416 1.390 . S
C425 H418 0.950 . S
C425 C422 1.387 . S
C426 C427 1.387 . S
C426 H430 0.950 . S
C426 C435 1.390 . S
C427 C426 1.387 . S
C427 C429 1.387 . S
H428 C435 0.950 . S
C429 C427 1.387 . S
C429 C431 1.390 . S
C429 H433 0.950 . S
H430 C426 0.950 . S
C431 C429 1.390 . S
C431 C432 1.387 . S
C431 H434 0.950 . S
C432 C431 1.387 . S
C432 C435 1.387 . S
H433 C429 0.950 . S
H434 C431 0.950 . S
C435 C426 1.390 . S
C435 H428 0.950 . S
C435 C432 1.387 . S
C436 C437 1.387 . S
C436 H440 0.950 . S
C436 C445 1.390 . S
C437 C436 1.387 . S
C437 C439 1.387 . S
H438 C445 0.950 . S
C439 C437 1.387 . S
C439 C441 1.390 . S
C439 H443 0.950 . S
H440 C436 0.950 . S
C441 C439 1.390 . S
C441 C442 1.387 . S
C441 H444 0.950 . S
C442 C441 1.387 . S
C442 C445 1.387 . S
H443 C439 0.950 . S
H444 C441 0.950 . S
C445 C436 1.390 . S
C445 H438 0.950 . S
C445 C442 1.387 . S
C446 C447 1.387 . S
C446 H450 0.950 . S
C446 C455 1.390 . S
C447 C446 1.387 . S
C447 C449 1.387 . S
H448 C455 0.950 . S
C449 C447 1.387 . S
C449 C451 1.390 . S
C449 H453 0.950 . S
H450 C446 0.950 . S
C451 C449 1.390 . S
C451 C452 1.387 . S
C451 H454 0.950 . S
C452 C451 1.387 . S
C452 C455 1.387 . S
H453 C449 0.950 . S
H454 C451 0.950 . S
C455 C446 1.390 . S
C455 H448 0.950 . S
C455 C452 1.387 . S
C456 C457 1.387 . S
C456 H460 0.950 . S
C456 C465 1.390 . S
C457 C456 1.387 . S
C457 C459 1.387 . S
H458 C465 0.950 . S
C459 C457 1.387 . S
C459 C461 1.390 . S
C459 H463 0.950 . S
H460 C456 0.950 . S
C461 C459 1.390 . S
C461 C462 1.387 . S
C461 H464 0.950 . S
C462 C461 1.387 . S
C462 C465 1.387 . S
H463 C459 0.950 . S
H464 C461 0.950 . S
C465 C456 1.390 . S
C465 H458 0.950 . S
C465 C462 1.387 . S
C466 C467 1.387 . S
C466 H470 0.950 . S
C466 C475 1.390 . S
C467 C466 1.387 . S
C467 C469 1.387 . S
H468 C475 0.950 . S
C469 C467 1.387 . S
C469 C471 1.390 . S
C469 H473 0.950 . S
H470 C466 0.950 . S
C471 C469 1.390 . S
C471 C472 1.387 . S
C471 H474 0.950 . S
C472 C471 1.387 . S
C472 C475 1.387 . S
H473 C469 0.950 . S
H474 C471 0.950 . S
C475 C466 1.390 . S
C475 H468 0.950 . S
C475 C472 1.387 . S
C476 C477 1.387 . S
C476 H480 0.950 . S
C476 C485 1.390 . S
C477 C476 1.387 . S
C477 C479 1.387 . S
H478 C485 0.950 . S
C479 C477 1.387 . S
C479 C481 1.390 . S
C479 H483 0.950 . S
H480 C476 0.950 . S
C481 C479 1.390 . S
C481 C482 1.387 . S
C481 H484 0.950 . S
C482 C481 1.387 . S
C482 C485 1.387 . S
H483 C479 0.950 . S
H484 C481 0.950 . S
C485 C476 1.390 . S
C485 H478 0.950 . S
C485 C482 1.387 . S
C486 C487 1.387 . S
C486 H490 0.950 . S
C486 C495 1.390 . S
C487 C486 1.387 . S
C487 C489 1.387 . S
H488 C495 0.950 . S
C489 C487 1.387 . S
C489 C491 1.390 . S
C489 H493 0.950 . S
H490 C486 0.950 . S
C491 C489 1.390 . S
C491 C492 1.387 . S
C491 H494 0.950 . S
C492 C491 1.387 . S
C492 C495 1.387 . S
H493 C489 0.950 . S
H494 C491 0.950 . S
C495 C486 1.390 . S
C495 H488 0.950 . S
C495 C492 1.387 . S
C496 C497 1.387 . S
C496 H500 0.950 . S
C496 C505 1.390 . S
C497 C496 1.387 . S
C497 C499 1.387 . S
H498 C505 0.950 . S
C499 C497 1.387 . S
C499 C501 1.390 . S
C499 H503 0.950 . S
H500 C496 0.950 . S
C501 C499 1.390 . S
C501 C502 1.387 . S
C501 H504 0.950 . S
C502 C501 1.387 . S
C502 C505 1.387 . S
H503 C499 0.950 . S
H504 C501 0.950 . S
C505 C496 1.390 . S
C505 H498 0.950 . S
C505 C502 1.387 . S
C506 C507 1.387 . S
C506 H510 0.950 . S
C506 C515 1.390 . S
C507 C506 1.387 . S
C507 C509 1.387 . S
H508 C515 0.950 . S
C509 C507 1.387 . S
C509 C511 1.390 . S
C509 H513 0.950 . S
H510 C506 0.950 . S
C511 C509 1.390 . S
C511 C512 1.387 . S
C511 H514 0.950 . S
C512 C511 1.387 . S
C512 C515 1.387 . S
H513 C509 0.950 . S
H514 C511 0.950 . S
C515 C506 1.390 . S
C515 H508 0.950 . S
C515 C512 1.387 . S
C516 C517 1.387 . S
C516 H520 0.950 . S
C516 C525 1.390 . S
C517 C516 1.387 . S
C517 C519 1.387 . S
H518 C525 0.950 . S
C519 C517 1.387 . S
C519 C521 1.390 . S
C519 H523 0.950 . S
H520 C516 0.950 . S
C521 C519 1.390 . S
C521 C522 1.387 . S
C521 H524 0.950 . S
C522 C521 1.387 . S
C522 C525 1.387 . S
H523 C519 0.950 . S
H524 C521 0.950 . S
C525 C516 1.390 . S
C525 H518 0.950 . S
C525 C522 1.387 . S
C526 C527 1.387 . S
C526 H530 0.950 . S
C526 C535 1.390 . S
C527 C526 1.387 . S
C527 C529 1.387 . S
H528 C535 0.950 . S
C529 C527 1.387 . S
C529 C531 1.390 . S
C529 H533 0.950 . S
H530 C526 0.950 . S
C531 C529 1.390 . S
C531 C532 1.387 . S
C531 H534 0.950 . S
C532 C531 1.387 . S
C532 C535 1.387 . S
H533 C529 0.950 . S
H534 C531 0.950 . S
C535 C526 1.390 . S
C535 H528 0.950 . S
C535 C532 1.387 . S
C536 C537 1.387 . S
C536 H540 0.950 . S
C536 C545 1.390 . S
C537 C536 1.387 . S
C537 C539 1.387 . S
H538 C545 0.950 . S
C539 C537 1.387 . S
C539 C541 1.390 . S
C539 H543 0.950 . S
H540 C536 0.950 . S
C541 C539 1.390 . S
C541 C542 1.387 . S
C541 H544 0.950 . S
C542 C541 1.387 . S
C542 C545 1.387 . S
H543 C539 0.950 . S
H544 C541 0.950 . S
C545 C536 1.390 . S
C545 H538 0.950 . S
C545 C542 1.387 . S
C546 C547 1.387 . S
C546 H550 0.950 . S
C546 C555 1.390 . S
C547 C546 1.387 . S
C547 C549 1.387 . S
H548 C555 0.950 . S
C549 C547 1.387 . S
C549 C551 1.390 . S
C549 H553 0.950 . S
H550 C546 0.950 . S
C551 C549 1.390 . S
C551 C552 1.387 . S
C551 H554 0.950 . S
C552 C551 1.387 . S
C552 C555 1.387 . S
H553 C549 0.950 . S
H554 C551 0.950 . S
C555 C546 1.390 . S
C555 H548 0.950 . S
C555 C552 1.387 . S
C556 C557 1.387 . S
C556 H560 0.950 . S
C556 C565 1.390 . S
C557 C556 1.387 . S
C557 C559 1.387 . S
H558 C565 0.950 . S
C559 C557 1.387 . S
C559 C561 1.390 . S
C559 H563 0.950 . S
H560 C556 0.950 . S
C561 C559 1.390 . S
C561 C562 1.387 . S
C561 H564 0.950 . S
C562 C561 1.387 . S
C562 C565 1.387 . S
H563 C559 0.950 . S
H564 C561 0.950 . S
C565 C556 1.390 . S
C565 H558 0.950 . S
C565 C562 1.387 . S
C566 C567 1.387 . S
C566 H570 0.950 . S
C566 C575 1.390 . S
C567 C566 1.387 . S
C567 C569 1.387 . S
H568 C575 0.950 . S
C569 C567 1.387 . S
C569 C571 1.390 . S
C569 H573 0.950 . S
H570 C566 0.950 . S
C571 C569 1.390 . S
C571 C572 1.387 . S
C571 H574 0.950 . S
C572 C571 1.387 . S
C572 C575 1.387 . S
H573 C569 0.950 . S
H574 C571 0.950 . S
C575 C566 1.390 . S
C575 H568 0.950 . S
C575 C572 1.387 . S
C576 C577 1.387 . S
C576 H580 0.950 . S
C576 C585 1.390 1_565 S
C577 C576 1.387 . S
C577 C579 1.387 . S
H578 C585 0.950 . S
C579 C577 1.387 . S
C579 C581 1.390 1_565 S
C579 H583 0.950 . S
H580 C576 0.950 . S
C581 C579 1.390 1_545 S
C581 C582 1.387 . S
C581 H584 0.950 . S
C582 C581 1.387 . S
C582 C585 1.387 . S
H583 C579 0.950 . S
H584 C581 0.950 . S
C585 C576 1.390 1_545 S
C585 H578 0.950 . S
C585 C582 1.387 . S
C586 C587 1.387 . S
C586 H590 0.950 . S
C586 C595 1.390 . S
C587 C586 1.387 . S
C587 C589 1.387 1_655 S
H588 C595 0.950 . S
C589 C587 1.387 1_455 S
C589 C591 1.390 . S
C589 H593 0.950 . S
H590 C586 0.950 . S
C591 C589 1.390 . S
C591 C592 1.387 . S
C591 H594 0.950 . S
C592 C591 1.387 . S
C592 C595 1.387 1_455 S
H593 C589 0.950 . S
H594 C591 0.950 . S
C595 C586 1.390 . S
C595 H588 0.950 . S
C595 C592 1.387 1_655 S
C596 C597 1.387 . S
C596 H600 0.950 . S
C596 C605 1.390 . S
C597 C596 1.387 . S
C597 C599 1.387 1_556 S
H598 C605 0.950 . S
C599 C597 1.387 1_554 S
C599 C601 1.390 . S
C599 H603 0.950 . S
H600 C596 0.950 . S
C601 C599 1.390 . S
C601 C602 1.387 . S
C601 H604 0.950 . S
C602 C601 1.387 . S
C602 C605 1.387 1_554 S
H603 C599 0.950 . S
H604 C601 0.950 . S
C605 C596 1.390 . S
C605 H598 0.950 . S
C605 C602 1.387 1_556 S
C606 C607 1.387 . S
C606 H610 0.950 . S
C606 C615 1.390 1_545 S
C607 C606 1.387 . S
C607 C609 1.387 1_456 S
H608 C615 0.950 . S
C609 C607 1.387 1_654 S
C609 C611 1.390 1_545 S
C609 H613 0.950 . S
H610 C606 0.950 . S
C611 C609 1.390 1_565 S
C611 C612 1.387 . S
C611 H614 0.950 . S
C612 C611 1.387 . S
C612 C615 1.387 1_654 S
H613 C609 0.950 . S
H614 C611 0.950 . S
C615 C606 1.390 1_565 S
C615 H608 0.950 . S
C615 C612 1.387 1_456 S
C616 C617 1.387 . S
C616 H620 0.950 . S
C616 C625 1.390 1_545 S
C617 C616 1.387 . S
C617 C619 1.387 . S
H618 C625 0.950 . S
C619 C617 1.387 . S
C619 C621 1.390 1_545 S
C619 H623 0.950 . S
H620 C616 0.950 . S
C621 C619 1.390 1_565 S
C621 C622 1.387 . S
C621 H624 0.950 . S
C622 C621 1.387 . S
C622 C625 1.387 . S
H623 C619 0.950 . S
H624 C621 0.950 . S
C625 C616 1.390 1_565 S
C625 H618 0.950 . S
C625 C622 1.387 . S
C626 C627 1.387 . S
C626 H630 0.950 . S
C626 C635 1.390 . S
C627 C626 1.387 . S
C627 C629 1.387 1_455 S
H628 C635 0.950 . S
C629 C627 1.387 1_655 S
C629 C631 1.390 . S
C629 H633 0.950 . S
H630 C626 0.950 . S
C631 C629 1.390 . S
C631 C632 1.387 . S
C631 H634 0.950 . S
C632 C631 1.387 . S
C632 C635 1.387 1_655 S
H633 C629 0.950 . S
H634 C631 0.950 . S
C635 C626 1.390 . S
C635 H628 0.950 . S
C635 C632 1.387 1_455 S
C636 C637 1.387 1_554 S
C636 H640 0.950 . S
C636 C645 1.390 . S
C637 C636 1.387 1_556 S
C637 C639 1.387 . S
H638 C645 0.950 . S
C639 C637 1.387 . S
C639 C641 1.390 . S
C639 H643 0.950 . S
H640 C636 0.950 . S
C641 C639 1.390 . S
C641 C642 1.387 1_556 S
C641 H644 0.950 . S
C642 C641 1.387 1_554 S
C642 C645 1.387 . S
H643 C639 0.950 . S
H644 C641 0.950 . S
C645 C636 1.390 . S
C645 H638 0.950 . S
C645 C642 1.387 . S
C646 C647 1.387 . S
C646 H650 0.950 . S
C646 C655 1.390 . S
C647 C646 1.387 . S
C647 C649 1.387 . S
H648 C655 0.950 . S
C649 C647 1.387 . S
C649 C651 1.390 . S
C649 H653 0.950 . S
H650 C646 0.950 . S
C651 C649 1.390 . S
C651 C652 1.387 . S
C651 H654 0.950 . S
C652 C651 1.387 . S
C652 C655 1.387 . S
H653 C649 0.950 . S
H654 C651 0.950 . S
C655 C646 1.390 . S
C655 H648 0.950 . S
C655 C652 1.387 . S
C656 C657 1.387 . S
C656 H660 0.950 . S
C656 C665 1.390 . S
C657 C656 1.387 . S
C657 C659 1.387 . S
H658 C665 0.950 . S
C659 C657 1.387 . S
C659 C661 1.390 . S
C659 H663 0.950 . S
H660 C656 0.950 . S
C661 C659 1.390 . S
C661 C662 1.387 . S
C661 H664 0.950 . S
C662 C661 1.387 . S
C662 C665 1.387 . S
H663 C659 0.950 . S
H664 C661 0.950 . S
C665 C656 1.390 . S
C665 H658 0.950 . S
C665 C662 1.387 . S
C666 C667 1.387 1_455 S
C666 H670 0.950 . S
C666 C675 1.390 . S
C667 C666 1.387 1_655 S
C667 C669 1.387 . S
H668 C675 0.950 . S
C669 C667 1.387 . S
C669 C671 1.390 . S
C669 H673 0.950 . S
H670 C666 0.950 . S
C671 C669 1.390 . S
C671 C672 1.387 1_655 S
C671 H674 0.950 . S
C672 C671 1.387 1_455 S
C672 C675 1.387 . S
H673 C669 0.950 . S
H674 C671 0.950 . S
C675 C666 1.390 . S
C675 H668 0.950 . S
C675 C672 1.387 . S
C676 C677 1.387 . S
C676 H680 0.950 . S
C676 C685 1.390 . S
C677 C676 1.387 . S
C677 C679 1.387 . S
H678 C685 0.950 . S
C679 C677 1.387 . S
C679 C681 1.390 . S
C679 H683 0.950 . S
H680 C676 0.950 . S
C681 C679 1.390 . S
C681 C682 1.387 . S
C681 H684 0.950 . S
C682 C681 1.387 . S
C682 C685 1.387 . S
H683 C679 0.950 . S
H684 C681 0.950 . S
C685 C676 1.390 . S
C685 H678 0.950 . S
C685 C682 1.387 . S
C686 C687 1.387 . S
C686 H690 0.950 . S
C686 C695 1.390 . S
C687 C686 1.387 . S
C687 C689 1.387 . S
H688 C695 0.950 . S
C689 C687 1.387 . S
C689 C691 1.390 . S
C689 H693 0.950 . S
H690 C686 0.950 . S
C691 C689 1.390 . S
C691 C692 1.387 . S
C691 H694 0.950 . S
C692 C691 1.387 . S
C692 C695 1.387 . S
H693 C689 0.950 . S
H694 C691 0.950 . S
C695 C686 1.390 . S
C695 H688 0.950 . S
C695 C692 1.387 . S
C696 C697 1.387 . S
C696 H700 0.950 . S
C696 C705 1.390 . S
C697 C696 1.387 . S
C697 C699 1.387 . S
H698 C705 0.950 . S
C699 C697 1.387 . S
C699 C701 1.390 . S
C699 H703 0.950 . S
H700 C696 0.950 . S
C701 C699 1.390 . S
C701 C702 1.387 . S
C701 H704 0.950 . S
C702 C701 1.387 . S
C702 C705 1.387 . S
H703 C699 0.950 . S
H704 C701 0.950 . S
C705 C696 1.390 . S
C705 H698 0.950 . S
C705 C702 1.387 . S
C706 C707 1.387 . S
C706 H710 0.950 . S
C706 C715 1.390 1_545 S
C707 C706 1.387 . S
C707 C709 1.387 . S
H708 C715 0.950 . S
C709 C707 1.387 . S
C709 C711 1.390 1_545 S
C709 H713 0.950 . S
H710 C706 0.950 . S
C711 C709 1.390 1_565 S
C711 C712 1.387 . S
C711 H714 0.950 . S
C712 C711 1.387 . S
C712 C715 1.387 . S
H713 C709 0.950 . S
H714 C711 0.950 . S
C715 C706 1.390 1_565 S
C715 H708 0.950 . S
C715 C712 1.387 . S
C716 C717 1.387 . S
C716 H720 0.950 . S
C716 C725 1.390 . S
C717 C716 1.387 . S
C717 C719 1.387 . S
H718 C725 0.950 . S
C719 C717 1.387 . S
C719 C721 1.390 . S
C719 H723 0.950 . S
H720 C716 0.950 . S
C721 C719 1.390 . S
C721 C722 1.387 . S
C721 H724 0.950 . S
C722 C721 1.387 . S
C722 C725 1.387 . S
H723 C719 0.950 . S
H724 C721 0.950 . S
C725 C716 1.390 . S
C725 H718 0.950 . S
C725 C722 1.387 . S
C726 C727 1.387 1_556 S
C726 H730 0.950 . S
C726 C735 1.390 . S
C727 C726 1.387 1_554 S
C727 C729 1.387 . S
H728 C735 0.950 . S
C729 C727 1.387 . S
C729 C731 1.390 . S
C729 H733 0.950 . S
H730 C726 0.950 . S
C731 C729 1.390 . S
C731 C732 1.387 1_554 S
C731 H734 0.950 . S
C732 C731 1.387 1_556 S
C732 C735 1.387 . S
H733 C729 0.950 . S
H734 C731 0.950 . S
C735 C726 1.390 . S
C735 H728 0.950 . S
C735 C732 1.387 . S
C736 C737 1.387 . S
C736 H740 0.950 . S
C736 C745 1.390 . S
C737 C736 1.387 . S
C737 C739 1.387 . S
H738 C745 0.950 . S
C739 C737 1.387 . S
C739 C741 1.390 . S
C739 H743 0.950 . S
H740 C736 0.950 . S
C741 C739 1.390 . S
C741 C742 1.387 . S
C741 H744 0.950 . S
C742 C741 1.387 . S
C742 C745 1.387 . S
H743 C739 0.950 . S
H744 C741 0.950 . S
C745 C736 1.390 . S
C745 H738 0.950 . S
C745 C742 1.387 . S
C746 C747 1.387 . S
C746 H750 0.950 . S
C746 C755 1.390 . S
C747 C746 1.387 . S
C747 C749 1.387 . S
H748 C755 0.950 . S
C749 C747 1.387 . S
C749 C751 1.390 . S
C749 H753 0.950 1_556 S
H750 C746 0.950 . S
C751 C749 1.390 . S
C751 C752 1.387 . S
C751 H754 0.950 1_556 S
C752 C751 1.387 . S
C752 C755 1.387 . S
H753 C749 0.950 1_554 S
H754 C751 0.950 1_554 S
C755 C746 1.390 . S
C755 H748 0.950 . S
C755 C752 1.387 . S
C756 C757 1.387 . S
C756 H760 0.950 . S
C756 C765 1.390 . S
C757 C756 1.387 . S
C757 C759 1.387 . S
H758 C765 0.950 . S
C759 C757 1.387 . S
C759 C761 1.390 . S
C759 H763 0.950 . S
H760 C756 0.950 . S
C761 C759 1.390 . S
C761 C762 1.387 . S
C761 H764 0.950 . S
C762 C761 1.387 . S
C762 C765 1.387 . S
H763 C759 0.950 . S
H764 C761 0.950 . S
C765 C756 1.390 . S
C765 H758 0.950 . S
C765 C762 1.387 . S
C766 C767 1.387 . S
C766 H770 0.950 . S
C766 C775 1.390 . S
C767 C766 1.387 . S
C767 C769 1.387 . S
H768 C775 0.950 . S
C769 C767 1.387 . S
C769 C771 1.390 . S
C769 H773 0.950 1_554 S
H770 C766 0.950 . S
C771 C769 1.390 . S
C771 C772 1.387 . S
C771 H774 0.950 1_554 S
C772 C771 1.387 . S
C772 C775 1.387 . S
H773 C769 0.950 1_556 S
H774 C771 0.950 1_556 S
C775 C766 1.390 . S
C775 H768 0.950 . S
C775 C772 1.387 . S
C776 C777 1.387 . S
C776 H780 0.950 . S
C776 C785 1.390 . S
C777 C776 1.387 . S
C777 C779 1.387 . S
H778 C785 0.950 . S
C779 C777 1.387 . S
C779 C781 1.390 . S
C779 H783 0.950 . S
H780 C776 0.950 . S
C781 C779 1.390 . S
C781 C782 1.387 . S
C781 H784 0.950 . S
C782 C781 1.387 . S
C782 C785 1.387 . S
H783 C779 0.950 . S
H784 C781 0.950 . S
C785 C776 1.390 . S
C785 H778 0.950 . S
C785 C782 1.387 . S
C786 C787 1.387 . S
C786 H790 0.950 . S
C786 C795 1.390 . S
C787 C786 1.387 . S
C787 C789 1.387 . S
H788 C795 0.950 . S
C789 C787 1.387 . S
C789 C791 1.390 . S
C789 H793 0.950 . S
H790 C786 0.950 . S
C791 C789 1.390 . S
C791 C792 1.387 . S
C791 H794 0.950 . S
C792 C791 1.387 . S
C792 C795 1.387 . S
H793 C789 0.950 . S
H794 C791 0.950 . S
C795 C786 1.390 . S
C795 H788 0.950 . S
C795 C792 1.387 . S
C796 C797 1.387 . S
C796 H800 0.950 . S
C796 C805 1.390 . S
C797 C796 1.387 . S
C797 C799 1.387 . S
H798 C805 0.950 . S
C799 C797 1.387 . S
C799 C801 1.390 . S
C799 H803 0.950 . S
H800 C796 0.950 . S
C801 C799 1.390 . S
C801 C802 1.387 . S
C801 H804 0.950 . S
C802 C801 1.387 . S
C802 C805 1.387 . S
H803 C799 0.950 . S
H804 C801 0.950 . S
C805 C796 1.390 . S
C805 H798 0.950 . S
C805 C802 1.387 . S
C806 C807 1.387 . S
C806 H810 0.950 . S
C806 C815 1.390 . S
C807 C806 1.387 . S
C807 C809 1.387 . S
H808 C815 0.950 . S
C809 C807 1.387 . S
C809 C811 1.390 . S
C809 H813 0.950 . S
H810 C806 0.950 . S
C811 C809 1.390 . S
C811 C812 1.387 . S
C811 H814 0.950 . S
C812 C811 1.387 . S
C812 C815 1.387 . S
H813 C809 0.950 . S
H814 C811 0.950 . S
C815 C806 1.390 . S
C815 H808 0.950 . S
C815 C812 1.387 . S
C816 C817 1.387 . S
C816 H820 0.950 . S
C816 C825 1.390 . S
C817 C816 1.387 . S
C817 C819 1.387 . S
H818 C825 0.950 . S
C819 C817 1.387 . S
C819 C821 1.390 . S
C819 H823 0.950 . S
H820 C816 0.950 . S
C821 C819 1.390 . S
C821 C822 1.387 . S
C821 H824 0.950 . S
C822 C821 1.387 . S
C822 C825 1.387 . S
H823 C819 0.950 . S
H824 C821 0.950 . S
C825 C816 1.390 . S
C825 H818 0.950 . S
C825 C822 1.387 . S
C826 C827 1.387 . S
C826 H830 0.950 . S
C826 C835 1.390 . S
C827 C826 1.387 . S
C827 C829 1.387 . S
H828 C835 0.950 . S
C829 C827 1.387 . S
C829 C831 1.390 . S
C829 H833 0.950 . S
H830 C826 0.950 . S
C831 C829 1.390 . S
C831 C832 1.387 . S
C831 H834 0.950 . S
C832 C831 1.387 . S
C832 C835 1.387 . S
H833 C829 0.950 . S
H834 C831 0.950 . S
C835 C826 1.390 . S
C835 H828 0.950 . S
C835 C832 1.387 . S
C836 C837 1.387 . S
C836 H840 0.950 . S
C836 C845 1.390 . S
C837 C836 1.387 . S
C837 C839 1.387 . S
H838 C845 0.950 . S
C839 C837 1.387 . S
C839 C841 1.390 . S
C839 H843 0.950 . S
H840 C836 0.950 . S
C841 C839 1.390 . S
C841 C842 1.387 . S
C841 H844 0.950 . S
C842 C841 1.387 . S
C842 C845 1.387 . S
H843 C839 0.950 . S
H844 C841 0.950 . S
C845 C836 1.390 . S
C845 H838 0.950 . S
C845 C842 1.387 . S
C846 C847 1.387 . S
C846 H850 0.950 . S
C846 C855 1.390 . S
C847 C846 1.387 . S
C847 C849 1.387 . S
H848 C855 0.950 . S
C849 C847 1.387 . S
C849 C851 1.390 . S
C849 H853 0.950 . S
H850 C846 0.950 . S
C851 C849 1.390 . S
C851 C852 1.387 . S
C851 H854 0.950 . S
C852 C851 1.387 . S
C852 C855 1.387 . S
H853 C849 0.950 . S
H854 C851 0.950 . S
C855 C846 1.390 . S
C855 H848 0.950 . S
C855 C852 1.387 . S
C856 C857 1.387 . S
C856 H860 0.950 . S
C856 C865 1.390 . S
C857 C856 1.387 . S
C857 C859 1.387 . S
H858 C865 0.950 . S
C859 C857 1.387 . S
C859 C861 1.390 . S
C859 H863 0.950 . S
H860 C856 0.950 . S
C861 C859 1.390 . S
C861 C862 1.387 . S
C861 H864 0.950 . S
C862 C861 1.387 . S
C862 C865 1.387 . S
H863 C859 0.950 . S
H864 C861 0.950 . S
C865 C856 1.390 . S
C865 H858 0.950 . S
C865 C862 1.387 . S
C866 C867 1.387 . S
C866 H870 0.950 . S
C866 C875 1.390 . S
C867 C866 1.387 . S
C867 C869 1.387 . S
H868 C875 0.950 . S
C869 C867 1.387 . S
C869 C871 1.390 . S
C869 H873 0.950 1_556 S
H870 C866 0.950 . S
C871 C869 1.390 . S
C871 C872 1.387 . S
C871 H874 0.950 1_556 S
C872 C871 1.387 . S
C872 C875 1.387 . S
H873 C869 0.950 1_554 S
H874 C871 0.950 1_554 S
C875 C866 1.390 . S
C875 H868 0.950 . S
C875 C872 1.387 . S
C876 C877 1.387 . S
C876 H880 0.950 . S
C876 C885 1.390 . S
C877 C876 1.387 . S
C877 C879 1.387 . S
H878 C885 0.950 . S
C879 C877 1.387 . S
C879 C881 1.390 . S
C879 H883 0.950 . S
H880 C876 0.950 . S
C881 C879 1.390 . S
C881 C882 1.387 . S
C881 H884 0.950 . S
C882 C881 1.387 . S
C882 C885 1.387 . S
H883 C879 0.950 . S
H884 C881 0.950 . S
C885 C876 1.390 . S
C885 H878 0.950 . S
C885 C882 1.387 . S
C886 C887 1.387 . S
C886 H890 0.950 1_554 S
C886 C895 1.390 . S
C887 C886 1.387 . S
C887 C889 1.387 . S
H888 C895 0.950 1_556 S
C889 C887 1.387 . S
C889 C891 1.390 . S
C889 H893 0.950 . S
H890 C886 0.950 1_556 S
C891 C889 1.390 . S
C891 C892 1.387 . S
C891 H894 0.950 . S
C892 C891 1.387 . S
C892 C895 1.387 . S
H893 C889 0.950 . S
H894 C891 0.950 . S
C895 C886 1.390 . S
C895 H888 0.950 1_554 S
C895 C892 1.387 . S
C896 C897 1.387 . S
C896 H900 0.950 . S
C896 C905 1.390 . S
C897 C896 1.387 . S
C897 C899 1.387 . S
H898 C905 0.950 . S
C899 C897 1.387 . S
C899 C901 1.390 . S
C899 H903 0.950 . S
H900 C896 0.950 . S
C901 C899 1.390 . S
C901 C902 1.387 . S
C901 H904 0.950 . S
C902 C901 1.387 . S
C902 C905 1.387 . S
H903 C899 0.950 . S
H904 C901 0.950 . S
C905 C896 1.390 . S
C905 H898 0.950 . S
C905 C902 1.387 . S
C906 C907 1.387 . S
C906 H910 0.950 . S
C906 C915 1.390 . S
C907 C906 1.387 . S
C907 C909 1.387 . S
H908 C915 0.950 . S
C909 C907 1.387 . S
C909 C911 1.390 . S
C909 H913 0.950 . S
H910 C906 0.950 . S
C911 C909 1.390 . S
C911 C912 1.387 . S
C911 H914 0.950 . S
C912 C911 1.387 . S
C912 C915 1.387 . S
H913 C909 0.950 . S
H914 C911 0.950 . S
C915 C906 1.390 . S
C915 H908 0.950 . S
C915 C912 1.387 . S
C916 C917 1.387 . S
C916 H920 0.950 . S
C916 C925 1.390 . S
C917 C916 1.387 . S
C917 C919 1.387 . S
H918 C925 0.950 . S
C919 C917 1.387 . S
C919 C921 1.390 . S
C919 H923 0.950 . S
H920 C916 0.950 . S
C921 C919 1.390 . S
C921 C922 1.387 . S
C921 H924 0.950 . S
C922 C921 1.387 . S
C922 C925 1.387 . S
H923 C919 0.950 . S
H924 C921 0.950 . S
C925 C916 1.390 . S
C925 H918 0.950 . S
C925 C922 1.387 . S
C926 C927 1.387 . S
C926 H930 0.950 . S
C926 C935 1.390 . S
C927 C926 1.387 . S
C927 C929 1.387 . S
H928 C935 0.950 . S
C929 C927 1.387 . S
C929 C931 1.390 . S
C929 H933 0.950 . S
H930 C926 0.950 . S
C931 C929 1.390 . S
C931 C932 1.387 . S
C931 H934 0.950 . S
C932 C931 1.387 . S
C932 C935 1.387 . S
H933 C929 0.950 . S
H934 C931 0.950 . S
C935 C926 1.390 . S
C935 H928 0.950 . S
C935 C932 1.387 . S
C936 C937 1.387 . S
C936 H940 0.950 . S
C936 C945 1.390 . S
C937 C936 1.387 . S
C937 C939 1.387 . S
H938 C945 0.950 . S
C939 C937 1.387 . S
C939 C941 1.390 . S
C939 H943 0.950 . S
H940 C936 0.950 . S
C941 C939 1.390 . S
C941 C942 1.387 . S
C941 H944 0.950 . S
C942 C941 1.387 . S
C942 C945 1.387 . S
H943 C939 0.950 . S
H944 C941 0.950 . S
C945 C936 1.390 . S
C945 H938 0.950 . S
C945 C942 1.387 . S
C946 C947 1.387 . S
C946 H950 0.950 . S
C946 C955 1.390 . S
C947 C946 1.387 . S
C947 C949 1.387 . S
H948 C955 0.950 . S
C949 C947 1.387 . S
C949 C951 1.390 . S
C949 H953 0.950 . S
H950 C946 0.950 . S
C951 C949 1.390 . S
C951 C952 1.387 . S
C951 H954 0.950 . S
C952 C951 1.387 . S
C952 C955 1.387 . S
H953 C949 0.950 . S
H954 C951 0.950 . S
C955 C946 1.390 . S
C955 H948 0.950 . S
C955 C952 1.387 . S
C956 C957 1.387 . S
C956 H960 0.950 . S
C956 C965 1.390 . S
C957 C956 1.387 . S
C957 C959 1.387 . S
H958 C965 0.950 . S
C959 C957 1.387 . S
C959 C961 1.390 . S
C959 H963 0.950 . S
H960 C956 0.950 . S
C961 C959 1.390 . S
C961 C962 1.387 . S
C961 H964 0.950 . S
C962 C961 1.387 . S
C962 C965 1.387 . S
H963 C959 0.950 . S
H964 C961 0.950 . S
C965 C956 1.390 . S
C965 H958 0.950 . S
C965 C962 1.387 . S
C966 C967 1.387 . S
C966 H970 0.950 . S
C966 C975 1.390 . S
C967 C966 1.387 . S
C967 C969 1.387 . S
H968 C975 0.950 . S
C969 C967 1.387 . S
C969 C971 1.390 . S
C969 H973 0.950 . S
H970 C966 0.950 . S
C971 C969 1.390 . S
C971 C972 1.387 . S
C971 H974 0.950 . S
C972 C971 1.387 . S
C972 C975 1.387 . S
H973 C969 0.950 . S
H974 C971 0.950 . S
C975 C966 1.390 . S
C975 H968 0.950 . S
C975 C972 1.387 . S
C976 C977 1.387 . S
C976 H980 0.950 . S
C976 C985 1.390 . S
C977 C976 1.387 . S
C977 C979 1.387 . S
H978 C985 0.950 . S
C979 C977 1.387 . S
C979 C981 1.390 . S
C979 H983 0.950 . S
H980 C976 0.950 . S
C981 C979 1.390 . S
C981 C982 1.387 . S
C981 H984 0.950 . S
C982 C981 1.387 . S
C982 C985 1.387 . S
H983 C979 0.950 . S
H984 C981 0.950 . S
C985 C976 1.390 . S
C985 H978 0.950 . S
C985 C982 1.387 . S
C986 C987 1.387 . S
C986 H990 0.950 . S
C986 C995 1.390 . S
C987 C986 1.387 . S
C987 C989 1.387 . S
H988 C995 0.950 . S
C989 C987 1.387 . S
C989 C991 1.390 . S
C989 H993 0.950 . S
H990 C986 0.950 . S
C991 C989 1.390 . S
C991 C992 1.387 . S
C991 H994 0.950 . S
C992 C991 1.387 . S
C992 C995 1.387 . S
H993 C989 0.950 . S
H994 C991 0.950 . S
C995 C986 1.390 . S
C995 H988 0.950 . S
C995 C992 1.387 . S
C996 C997 1.387 . S
C996 H1000 0.950 . S
C996 C1005 1.390 . S
C997 C996 1.387 . S
C997 C999 1.387 . S
H998 C1005 0.950 . S
C999 C997 1.387 . S
C999 C1001 1.390 . S
C999 H1003 0.950 . S
H1000 C996 0.950 . S
C1001 C999 1.390 . S
C1001 C1002 1.387 . S
C1001 H1004 0.950 . S
C1002 C1001 1.387 . S
C1002 C1005 1.387 . S
H1003 C999 0.950 . S
H1004 C1001 0.950 . S
C1005 C996 1.390 . S
C1005 H998 0.950 . S
C1005 C1002 1.387 . S
C1006 C1007 1.387 . S
C1006 H1010 0.950 . S
C1006 C1015 1.390 . S
C1007 C1006 1.387 . S
C1007 C1009 1.387 . S
H1008 C1015 0.950 . S
C1009 C1007 1.387 . S
C1009 C1011 1.390 . S
C1009 H1013 0.950 . S
H1010 C1006 0.950 . S
C1011 C1009 1.390 . S
C1011 C1012 1.387 . S
C1011 H1014 0.950 . S
C1012 C1011 1.387 . S
C1012 C1015 1.387 . S
H1013 C1009 0.950 . S
H1014 C1011 0.950 . S
C1015 C1006 1.390 . S
C1015 H1008 0.950 . S
C1015 C1012 1.387 . S
C1016 C1017 1.387 . S
C1016 H1020 0.950 . S
C1016 C1025 1.390 . S
C1017 C1016 1.387 . S
C1017 C1019 1.387 . S
H1018 C1025 0.950 . S
C1019 C1017 1.387 . S
C1019 C1021 1.390 . S
C1019 H1023 0.950 . S
H1020 C1016 0.950 . S
C1021 C1019 1.390 . S
C1021 C1022 1.387 . S
C1021 H1024 0.950 . S
C1022 C1021 1.387 . S
C1022 C1025 1.387 . S
H1023 C1019 0.950 . S
H1024 C1021 0.950 . S
C1025 C1016 1.390 . S
C1025 H1018 0.950 . S
C1025 C1022 1.387 . S
C1026 C1027 1.387 . S
C1026 H1030 0.950 . S
C1026 C1035 1.390 . S
C1027 C1026 1.387 . S
C1027 C1029 1.387 . S
H1028 C1035 0.950 . S
C1029 C1027 1.387 . S
C1029 C1031 1.390 . S
C1029 H1033 0.950 . S
H1030 C1026 0.950 . S
C1031 C1029 1.390 . S
C1031 C1032 1.387 . S
C1031 H1034 0.950 . S
C1032 C1031 1.387 . S
C1032 C1035 1.387 . S
H1033 C1029 0.950 . S
H1034 C1031 0.950 . S
C1035 C1026 1.390 . S
C1035 H1028 0.950 . S
C1035 C1032 1.387 . S
C1036 C1037 1.387 . S
C1036 H1040 0.950 . S
C1036 C1045 1.390 . S
C1037 C1036 1.387 . S
C1037 C1039 1.387 . S
H1038 C1045 0.950 . S
C1039 C1037 1.387 . S
C1039 C1041 1.390 . S
C1039 H1043 0.950 . S
H1040 C1036 0.950 . S
C1041 C1039 1.390 . S
C1041 C1042 1.387 . S
C1041 H1044 0.950 . S
C1042 C1041 1.387 . S
C1042 C1045 1.387 . S
H1043 C1039 0.950 . S
H1044 C1041 0.950 . S
C1045 C1036 1.390 . S
C1045 H1038 0.950 . S
C1045 C1042 1.387 . S
C1046 C1047 1.387 . S
C1046 H1050 0.950 . S
C1046 C1055 1.390 . S
C1047 C1046 1.387 . S
C1047 C1049 1.387 . S
H1048 C1055 0.950 . S
C1049 C1047 1.387 . S
C1049 C1051 1.390 . S
C1049 H1053 0.950 . S
H1050 C1046 0.950 . S
C1051 C1049 1.390 . S
C1051 C1052 1.387 . S
C1051 H1054 0.950 . S
C1052 C1051 1.387 . S
C1052 C1055 1.387 . S
H1053 C1049 0.950 . S
H1054 C1051 0.950 . S
C1055 C1046 1.390 . S
C1055 H1048 0.950 . S
C1055 C1052 1.387 . S
C417 C42 1.418 . S
C422 C3 1.418 . S
C427 C31 1.417 . S
C432 C16 1.417 . S
C437 C94 1.417 . S
C442 C57 1.417 . S
C447 C81 1.417 . S
C452 C68 1.417 . S
C457 C109 1.417 . S
C462 C146 1.417 . S
C467 C120 1.418 . S
C472 C135 1.418 . S
C477 C198 1.418 . S
C482 C161 1.418 . S
C487 C174 1.417 . S
C492 C185 1.417 . S
C497 C211 1.418 . S
C502 C250 1.418 . S
C507 C224 1.418 . S
C512 C239 1.418 . S
C517 C302 1.418 . S
C522 C263 1.418 . S
C527 C289 1.418 . S
C532 C278 1.418 . S
C537 C354 1.417 . S
C542 C315 1.417 . S
C547 C328 1.418 . S
C552 C341 1.418 . S
C557 C367 1.418 . S
C562 C408 1.418 . S
C567 C382 1.418 . S
C572 C393 1.418 . S
C577 C265 1.432 . S
C582 C5 1.432 . S
C587 C172 1.432 . S
C592 C18 1.432 . S
C597 C29 1.435 . S
C602 C395 1.435 . S
C607 C44 1.435 . S
C612 C96 1.435 . S
C617 C213 1.432 . S
C622 C55 1.432 . S
C627 C122 1.433 . S
C632 C70 1.433 . S
C637 C343 1.433 . S
C642 C83 1.433 . S
C647 C107 1.433 . S
C652 C369 1.433 . S
C657 C291 1.434 . S
C662 C133 1.434 . S
C667 C200 1.433 . S
C672 C148 1.433 . S
C677 C317 1.435 . S
C682 C159 1.435 . S
C687 C187 1.433 . S
C692 C237 1.433 . S
C697 C380 1.433 . S
C702 C226 1.433 . S
C707 C252 1.434 . S
C712 C304 1.434 . S
C717 C330 1.435 . S
C722 C276 1.435 . S
C727 C406 1.435 . S
C732 C356 1.435 . S
C737 C17 1.480 . S
C742 C4 1.480 . S
C747 C36 1.480 . S
C752 C43 1.480 . S
C757 C62 1.480 . S
C762 C69 1.480 . S
C767 C95 1.482 . S
C772 C82 1.482 . S
C777 C114 1.482 . S
C782 C121 1.482 . S
C787 C140 1.482 . S
C792 C147 1.482 . S
C797 C179 1.480 . S
C802 C166 1.480 . S
C807 C186 1.480 . S
C812 C199 1.480 . S
C817 C212 1.480 . S
C822 C225 1.480 . S
C827 C244 1.480 . S
C832 C251 1.480 . S
C837 C264 1.480 . S
C842 C283 1.480 . S
C847 C303 1.482 . S
C852 C290 1.482 . S
C857 C329 1.480 . S
C862 C316 1.480 . S
C867 C342 1.480 . S
C872 C355 1.480 . S
C877 C368 1.480 . S
C882 C387 1.480 . S
C887 C413 1.480 . S
C892 C394 1.480 . S
C897 C10 1.512 . S
C902 C257 1.512 . S
C907 C23 1.512 . S
C912 C238 1.512 . S
C917 C231 1.512 . S
C922 C30 1.512 . S
C927 C49 1.512 . S
C932 C218 1.512 . S
C937 C309 1.512 . S
C942 C56 1.512 . S
C947 C75 1.512 . S
C952 C296 1.512 . S
C957 C277 1.512 . S
C962 C88 1.512 . S
C967 C101 1.512 . S
C972 C270 1.512 . S
C977 C108 1.512 . S
C982 C361 1.512 . S
C987 C127 1.512 . S
C992 C348 1.512 . S
C997 C134 1.512 . S
C1002 C335 1.512 . S
C1007 C322 1.512 . S
C1012 C153 1.512 . S
C1017 C160 1.512 . S
C1022 C407 1.512 . S
C1027 C173 1.512 . S
C1032 C400 1.512 . S
C1037 C192 1.512 . S
C1042 C381 1.512 . S
C1047 C374 1.512 . S
C1052 C205 1.512 . S
