# Generated by pormake.
# Topology ukg, (4)-cn, num edge types: 1
# Building blocks:
#     Node 0, Type 0, BuildingBlock: QUQFOY_clean_sbu_1, # of connection points: 4
#     Node 1, Type 0, BuildingBlock: QUQFOY_clean_sbu_1, # of connection points: 4
#     Node 2, Type 0, BuildingBlock: QUQFOY_clean_sbu_1, # of connection points: 4
#     Node 3, Type 0, BuildingBlock: QUQFOY_clean_sbu_1, # of connection points: 4
#     Node 4, Type 0, BuildingBlock: QUQFOY_clean_sbu_1, # of connection points: 4
#     Node 5, Type 0, BuildingBlock: QUQFOY_clean_sbu_1, # of connection points: 4
#     Node 6, Type 0, BuildingBlock: QUQFOY_clean_sbu_1, # of connection points: 4
#     Node 7, Type 0, BuildingBlock: QUQFOY_clean_sbu_1, # of connection points: 4
#     Edge 8, Type (0, 0), BuildingBlock: MIFKUJ_clean_linker_0, # of connection points: 2
#     Edge 9, Type (0, 0), BuildingBlock: MIFKUJ_clean_linker_0, # of connection points: 2
#     Edge 10, Type (0, 0), BuildingBlock: MIFKUJ_clean_linker_0, # of connection points: 2
#     Edge 11, Type (0, 0), BuildingBlock: MIFKUJ_clean_linker_0, # of connection points: 2
#     Edge 12, Type (0, 0), BuildingBlock: MIFKUJ_clean_linker_0, # of connection points: 2
#     Edge 13, Type (0, 0), BuildingBlock: MIFKUJ_clean_linker_0, # of connection points: 2
#     Edge 14, Type (0, 0), BuildingBlock: MIFKUJ_clean_linker_0, # of connection points: 2
#     Edge 15, Type (0, 0), BuildingBlock: MIFKUJ_clean_linker_0, # of connection points: 2
#     Edge 16, Type (0, 0), BuildingBlock: MIFKUJ_clean_linker_0, # of connection points: 2
#     Edge 17, Type (0, 0), BuildingBlock: MIFKUJ_clean_linker_0, # of connection points: 2
#     Edge 18, Type (0, 0), BuildingBlock: MIFKUJ_clean_linker_0, # of connection points: 2
#     Edge 19, Type (0, 0), BuildingBlock: MIFKUJ_clean_linker_0, # of connection points: 2
#     Edge 20, Type (0, 0), BuildingBlock: MIFKUJ_clean_linker_0, # of connection points: 2
#     Edge 21, Type (0, 0), BuildingBlock: MIFKUJ_clean_linker_0, # of connection points: 2
#     Edge 22, Type (0, 0), BuildingBlock: MIFKUJ_clean_linker_0, # of connection points: 2
#     Edge 23, Type (0, 0), BuildingBlock: MIFKUJ_clean_linker_0, # of connection points: 2
# Relax obj value: 0.022
# Max RMSD: 0.120
# Mean RMSD: 0.120
data_MOF--net-ukg--node1-QUQFOY_clean_sbu_1--edge1-MIFKUJ_clean_linker_0
_symmetry_space_group_name_H-M    P1
_symmetry_Int_Tables_number       1
_symmetry_cell_setting            triclinic
loop_
_symmetry_equiv_pos_as_xyz
'x, y, z'
_cell_length_a     41.438594
_cell_length_b     41.373053
_cell_length_c     49.110258
_cell_angle_alpha  89.884233
_cell_angle_beta   90.01117
_cell_angle_gamma 89.919574
loop_
_atom_site_label
_atom_site_type_symbol
_atom_site_fract_x
_atom_site_fract_y
_atom_site_fract_z
_atom_type_partial_charge
O0 O 0.97228 0.63077 0.17563 0.0
Cd1 Cd 0.98671 0.65705 0.14219 0.0
Cd2 Cd 0.03663 0.67295 0.1771 0.0
O3 O 0.01446 0.63927 0.20217 0.0
O4 O 0.96435 0.63689 0.11043 0.0
O5 O 0.01727 0.63509 0.11621 0.0
C6 C 0.99213 0.62647 0.10242 0.0
C7 C 0.09272 0.67826 0.17547 0.0
C8 C 0.98728 0.62596 0.19785 0.0
C9 C 0.99121 0.72627 0.15831 0.0
O10 O 0.01445 0.71708 0.17329 0.0
O11 O 0.97656 0.70633 0.14298 0.0
O12 O 0.07664 0.68457 0.19725 0.0
O13 O 0.07718 0.66678 0.15486 0.0
O14 O 0.37119 0.47426 0.6716 0.0
Cd15 Cd 0.34677 0.49398 0.63913 0.0
Cd16 Cd 0.33797 0.54237 0.67533 0.0
O17 O 0.37277 0.51764 0.69756 0.0
O18 O 0.36472 0.47275 0.6059 0.0
O19 O 0.37148 0.52466 0.61507 0.0
C20 C 0.37772 0.50012 0.59965 0.0
C21 C 0.33547 0.59874 0.67345 0.0
C22 C 0.38073 0.48841 0.69308 0.0
C23 C 0.27991 0.50236 0.65847 0.0
O24 O 0.29243 0.52267 0.67468 0.0
O25 O 0.29702 0.48866 0.64033 0.0
O26 O 0.33068 0.58321 0.69583 0.0
O27 O 0.3441 0.58236 0.65229 0.0
O28 O 0.52265 0.87661 0.17772 0.0
Cd29 Cd 0.50836 0.8509 0.144 0.0
Cd30 Cd 0.46116 0.83132 0.18079 0.0
O31 O 0.48381 0.86373 0.2066 0.0
O32 O 0.53197 0.8719 0.1132 0.0
O33 O 0.47887 0.87324 0.11716 0.0
C34 C 0.50455 0.88221 0.10428 0.0
C35 C 0.40511 0.82512 0.17993 0.0
C36 C 0.50962 0.87899 0.20106 0.0
C37 C 0.50765 0.78085 0.1591 0.0
O38 O 0.48452 0.78824 0.17484 0.0
O39 O 0.52066 0.80212 0.14391 0.0
O40 O 0.42196 0.81722 0.20095 0.0
O41 O 0.4199 0.83866 0.15975 0.0
O42 O 0.13111 0.02807 0.68103 0.0
Cd43 Cd 0.15621 0.01807 0.64592 0.0
Cd44 Cd 0.18143 0.96921 0.67987 0.0
O45 O 0.14958 0.98918 0.70777 0.0
O46 O 0.13212 0.0421 0.61696 0.0
O47 O 0.13541 0.98881 0.61813 0.0
C48 C 0.12388 0.0146 0.60682 0.0
C49 C 0.19105 0.91341 0.67894 0.0
C50 C 0.13171 0.0138 0.70396 0.0
C51 C 0.22704 0.02048 0.65783 0.0
O52 O 0.22244 0.99528 0.67207 0.0
O53 O 0.20384 0.03387 0.64507 0.0
O54 O 0.19949 0.93095 0.69934 0.0
O55 O 0.17537 0.92727 0.6594 0.0
O56 O 0.03477 0.36039 0.83451 0.0
Cd57 Cd 0.01093 0.33749 0.86584 0.0
Cd58 Cd 0.96784 0.3303 0.8261 0.0
O59 O 0.99398 0.36592 0.80607 0.0
O60 O 0.03037 0.35527 0.8999 0.0
O61 O 0.97965 0.36403 0.88789 0.0
C62 C 1.00323 0.36961 0.90448 0.0
C63 C 0.91162 0.32671 0.82754 0.0
C64 C 0.02319 0.37163 0.81245 0.0
C65 C 0.00475 0.27132 0.84523 0.0
O66 O 0.98841 0.28508 0.82662 0.0
O67 O 0.01426 0.28742 0.86578 0.0
O68 O 0.92732 0.32302 0.8051 0.0
O69 O 0.92769 0.33532 0.84889 0.0
O70 O 0.65004 0.53312 0.33115 0.0
Cd71 Cd 0.66879 0.50787 0.36377 0.0
Cd72 Cd 0.67037 0.46332 0.32618 0.0
O73 O 0.63573 0.49106 0.30645 0.0
O74 O 0.65136 0.52824 0.39759 0.0
O75 O 0.63894 0.47857 0.38457 0.0
C76 C 0.63479 0.50219 0.40144 0.0
C77 C 0.67179 0.40692 0.32814 0.0
C78 C 0.63563 0.52141 0.31057 0.0
C79 C 0.73273 0.49582 0.34267 0.0
O80 O 0.71653 0.4814 0.32441 0.0
O81 O 0.71873 0.50569 0.36416 0.0
O82 O 0.67506 0.42223 0.30543 0.0
O83 O 0.66458 0.42359 0.34953 0.0
O84 O 0.47167 0.15511 0.83601 0.0
Cd85 Cd 0.49571 0.17449 0.86866 0.0
Cd86 Cd 0.54138 0.18207 0.82987 0.0
O87 O 0.51249 0.15067 0.80741 0.0
O88 O 0.47484 0.15548 0.90165 0.0
O89 O 0.5256 0.14579 0.89026 0.0
C90 C 0.50147 0.1402 0.90629 0.0
C91 C 0.59782 0.18197 0.82943 0.0
C92 C 0.48295 0.14581 0.81328 0.0
C93 C 0.50696 0.24157 0.85201 0.0
O94 O 0.52463 0.22868 0.83388 0.0
O95 O 0.49388 0.22439 0.87043 0.0
O96 O 0.58132 0.18902 0.80799 0.0
O97 O 0.58226 0.17204 0.85065 0.0
O98 O 0.86324 0.97467 0.33511 0.0
Cd99 Cd 0.839 0.99666 0.36666 0.0
Cd100 Cd 0.83204 0.04176 0.32782 0.0
O101 O 0.86721 0.01605 0.30697 0.0
O102 O 0.85661 0.97582 0.40025 0.0
O103 O 0.86383 0.02752 0.39044 0.0
C104 C 0.86985 1.00314 0.40617 0.0
C105 C 0.82784 0.09806 0.3293 0.0
C106 C 0.87384 0.98687 0.31308 0.0
C107 C 0.77319 1.0034 0.34539 0.0
O108 O 0.78701 0.02128 0.32788 0.0
O109 O 0.78908 0.99224 0.36551 0.0
O110 O 0.82431 0.08235 0.30687 0.0
O111 O 0.83673 0.08199 0.35063 0.0
H112 H 0.04905 0.38661 0.94181 0.0
H113 H 0.04651 0.4301 0.97532 0.0
H114 H 0.94903 0.45181 0.95042 0.0
H115 H 0.95125 0.40801 0.91701 0.0
H116 H 0.03917 0.4936 0.96698 0.0
H117 H 0.9075 0.48353 1.00444 0.0
H118 H 0.86574 0.44188 0.01145 0.0
H119 H 0.93924 0.36972 0.02228 0.0
H120 H 0.98141 0.411 0.0157 0.0
H121 H 0.94473 0.60909 0.06665 0.0
H122 H 0.94671 0.56673 0.03211 0.0
H123 H 0.04607 0.54735 0.05284 0.0
H124 H 0.04448 0.59035 0.0869 0.0
H125 H 0.95461 0.50468 0.03778 0.0
H126 H 0.0863 0.51542 0.99924 0.0
H127 H 0.12758 0.55741 0.99172 0.0
H128 H 0.05332 0.62904 0.98219 0.0
H129 H 0.01161 0.58742 0.98929 0.0
C130 C 0.02687 0.40032 0.94368 0.0
C131 C 1.00031 0.39373 0.92673 0.0
C132 C 0.02554 0.42533 0.96278 0.0
C133 C 0.99758 0.44425 0.9655 0.0
C134 C 0.97076 0.43733 0.94898 0.0
C135 C 0.97206 0.41226 0.92985 0.0
C136 C 0.99702 0.47188 0.98494 0.0
C137 C 0.02092 0.4958 0.9827 0.0
C138 C 0.97272 0.47531 0.00499 0.0
C139 C 0.94758 0.45032 0.00928 0.0
C140 C 0.91474 0.45879 0.0084 0.0
C141 C 0.891 0.43525 0.01229 0.0
C142 C 0.89983 0.40315 0.01721 0.0
C143 C 0.93243 0.39456 0.01835 0.0
C144 C 0.95626 0.41802 0.0145 0.0
C145 C 0.96718 0.59617 0.06357 0.0
C146 C 0.99449 0.60322 0.0795 0.0
C147 C 0.96822 0.57179 0.04388 0.0
C148 C 0.99655 0.5538 0.03967 0.0
C149 C 0.02405 0.56118 0.05526 0.0
C150 C 0.02311 0.58579 0.07481 0.0
C151 C 0.99681 0.52647 0.01987 0.0
C152 C 0.97285 0.50258 0.02204 0.0
C153 C 0.02098 0.52314 0.99967 0.0
C154 C 0.04585 0.54833 0.99508 0.0
C155 C 0.07878 0.54011 0.99544 0.0
C156 C 0.10226 0.56385 0.99127 0.0
C157 C 0.09308 0.59589 0.98657 0.0
C158 C 0.0604 0.60424 0.98594 0.0
C159 C 0.03684 0.58059 0.99008 0.0
H160 H 0.11129 0.61424 0.98337 0.0
H161 H 0.88142 0.38496 0.02019 0.0
H162 H 0.41863 0.55012 0.58745 0.0
H163 H 0.4617 0.55076 0.55342 0.0
H164 H 0.43321 0.45584 0.52635 0.0
H165 H 0.39073 0.45471 0.56082 0.0
H166 H 0.49564 0.45723 0.53245 0.0
H167 H 0.4189 0.52661 0.48809 0.0
H168 H 0.38173 0.57298 0.48409 0.0
H169 H 0.46028 0.6385 0.49795 0.0
H170 H 0.49787 0.59249 0.50238 0.0
H171 H 0.59151 0.45358 0.41173 0.0
H172 H 0.54768 0.45347 0.44509 0.0
H173 H 0.57813 0.54697 0.474 0.0
H174 H 0.62161 0.54751 0.44038 0.0
H175 H 0.51473 0.5464 0.46681 0.0
H176 H 0.59133 0.47679 0.5112 0.0
H177 H 0.6284 0.43032 0.51508 0.0
H178 H 0.54972 0.36506 0.50086 0.0
H179 H 0.51224 0.41118 0.49654 0.0
C180 C 0.42122 0.52959 0.57398 0.0
C181 C 0.40117 0.50238 0.57686 0.0
C182 C 0.44587 0.52999 0.55445 0.0
C183 C 0.4507 0.50342 0.53709 0.0
C184 C 0.43013 0.4766 0.53951 0.0
C185 C 0.40569 0.47607 0.55916 0.0
C186 C 0.478 0.50286 0.51726 0.0
C187 C 0.49948 0.47653 0.51782 0.0
C188 C 0.48368 0.52838 0.49859 0.0
C189 C 0.46114 0.55608 0.49582 0.0
C190 C 0.42821 0.5509 0.49048 0.0
C191 C 0.40707 0.57712 0.4881 0.0
C192 C 0.41862 0.60866 0.49084 0.0
C193 C 0.45135 0.61405 0.49587 0.0
C194 C 0.4726 0.58791 0.49829 0.0
C195 C 0.58913 0.47396 0.4254 0.0
C196 C 0.61016 0.50052 0.42339 0.0
C197 C 0.56404 0.47385 0.44452 0.0
C198 C 0.55963 0.50014 0.46225 0.0
C199 C 0.58094 0.52644 0.46055 0.0
C200 C 0.60593 0.52661 0.44138 0.0
C201 C 0.53226 0.50075 0.48198 0.0
C202 C 0.51082 0.52709 0.48141 0.0
C203 C 0.52657 0.47522 0.50061 0.0
C204 C 0.54905 0.44746 0.50329 0.0
C205 C 0.58198 0.45254 0.5087 0.0
C206 C 0.60305 0.42626 0.51101 0.0
C207 C 0.59144 0.39476 0.50815 0.0
C208 C 0.5587 0.38947 0.50304 0.0
C209 C 0.53752 0.41567 0.50068 0.0
H210 H 0.60779 0.37444 0.50994 0.0
H211 H 0.40221 0.62892 0.48899 0.0
H212 H 0.4527 0.91789 0.08676 0.0
H213 H 0.45247 0.9609 0.0525 0.0
H214 H 0.55304 0.94262 0.03571 0.0
H215 H 0.55362 0.90025 0.0704 0.0
H216 H 0.5441 0.00463 0.04086 0.0
H217 H 0.49106 0.92107 0.99055 0.0
H218 H 0.45039 0.87884 0.98195 0.0
H219 H 0.37468 0.94942 0.98804 0.0
H220 H 0.41489 0.99202 0.99703 0.0
H221 H 0.55282 0.1014 0.91997 0.0
H222 H 0.55368 0.05719 0.95321 0.0
H223 H 0.45504 0.07821 0.97495 0.0
H224 H 0.45389 0.12214 0.94167 0.0
H225 H 0.46349 0.01449 0.96665 0.0
H226 H 0.51739 0.09788 0.0173 0.0
H227 H 0.55861 0.13971 0.02536 0.0
H228 H 0.63356 0.06854 0.01772 0.0
H229 H 0.59278 0.02633 0.00925 0.0
C230 C 0.47464 0.92272 0.0755 0.0
C231 C 0.50316 0.90558 0.08132 0.0
C232 C 0.47448 0.94732 0.05585 0.0
C233 C 0.50271 0.95499 0.0413 0.0
C234 C 0.53098 0.93732 0.04666 0.0
C235 C 0.53122 0.91294 0.06644 0.0
C236 C 0.50323 0.98227 0.02138 0.0
C237 C 0.52675 0.00647 0.02438 0.0
C238 C 0.4802 0.98522 1.00019 0.0
C239 C 0.45597 0.95968 0.99472 0.0
C240 C 0.46572 0.92754 0.99026 0.0
C241 C 0.44276 0.90355 0.98528 0.0
C242 C 0.40997 0.91143 0.98452 0.0
C243 C 0.40009 0.94335 0.98867 0.0
C244 C 0.42295 0.96743 0.99368 0.0
C245 C 0.53143 0.09686 0.93205 0.0
C246 C 0.50331 0.11539 0.92816 0.0
C247 C 0.53196 0.07157 0.95108 0.0
C248 C 0.50444 0.06439 0.96669 0.0
C249 C 0.47653 0.08319 0.96311 0.0
C250 C 0.47599 0.10845 0.94415 0.0
C251 C 0.50431 0.03675 0.98619 0.0
C252 C 0.48087 0.01253 0.9831 0.0
C253 C 0.5275 0.03368 0.00721 0.0
C254 C 0.55204 0.05901 0.01236 0.0
C255 C 0.54267 0.09119 0.01712 0.0
C256 C 0.56595 0.11497 0.02181 0.0
C257 C 0.59868 0.10681 0.02198 0.0
C258 C 0.6082 0.07483 0.01754 0.0
C259 C 0.58501 0.05097 0.01282 0.0
H260 H 0.61667 0.12524 0.02561 0.0
H261 H 0.39223 0.89282 0.98066 0.0
H262 H 0.8938 0.95399 0.43737 0.0
H263 H 0.93653 0.95656 0.47137 0.0
H264 H 0.94214 0.05996 0.46081 0.0
H265 H 0.89992 0.05737 0.42594 0.0
H266 H 1.00029 0.03589 0.4614 0.0
H267 H 0.90813 0.02318 0.51913 0.0
H268 H 0.85777 0.99821 0.53562 0.0
H269 H 0.90814 0.90924 0.55092 0.0
H270 H 0.95873 0.93356 0.5342 0.0
H271 H 0.09717 0.06494 0.5786 0.0
H272 H 0.0544 0.06291 0.54449 0.0
H273 H 0.05339 0.95885 0.54978 0.0
H274 H 0.0961 0.9607 0.58428 0.0
H275 H 0.99295 0.98364 0.55218 0.0
H276 H 0.08535 0.9974 0.49429 0.0
H277 H 0.13544 0.02341 0.47838 0.0
H278 H 0.08394 0.11199 0.46423 0.0
H279 H 0.0336 0.08663 0.4804 0.0
C280 C 0.90378 0.97739 0.44249 0.0
C281 C 0.89329 0.00551 0.42896 0.0
C282 C 0.92823 0.97883 0.46207 0.0
C283 C 0.94244 0.00851 0.46901 0.0
C284 C 0.93161 0.03675 0.45587 0.0
C285 C 0.90732 0.03528 0.43603 0.0
C286 C 0.96947 0.00979 0.48908 0.0
C287 C 0.99844 0.02491 0.48141 0.0
C288 C 0.96754 0.99477 0.515 0.0
C289 C 0.93716 0.98012 0.52518 0.0
C290 C 0.90842 0.99822 0.52583 0.0
C291 C 0.87984 0.9842 0.53525 0.0
C292 C 0.87974 0.95214 0.54425 0.0
C293 C 0.90824 0.93406 0.54392 0.0
C294 C 0.93689 0.94797 0.5345 0.0
C295 C 0.08816 0.04155 0.57232 0.0
C296 C 0.10016 0.01296 0.58417 0.0
C297 C 0.0637 0.04045 0.55272 0.0
C298 C 0.05075 0.01072 0.54438 0.0
C299 C 0.06299 0.98208 0.55588 0.0
C300 C 0.08754 0.98316 0.57549 0.0
C301 C 0.02366 0.0097 0.52445 0.0
C302 C 0.99471 0.99464 0.53216 0.0
C303 C 0.02554 0.02494 0.49865 0.0
C304 C 0.05576 0.04019 0.48879 0.0
C305 C 0.08475 0.0225 0.48798 0.0
C306 C 0.11318 0.03711 0.47888 0.0
C307 C 0.11289 0.06935 0.47036 0.0
C308 C 0.08414 0.08703 0.47086 0.0
C309 C 0.05564 0.07254 0.47996 0.0
H310 H 0.13493 0.08062 0.46333 0.0
H311 H 0.85758 0.94132 0.55153 0.0
H312 H 0.12742 0.69277 0.12971 0.0
H313 H 0.18046 0.71862 0.12784 0.0
H314 H 0.18843 0.71094 0.21526 0.0
H315 H 0.13495 0.6864 0.21726 0.0
H316 H 0.20179 0.76909 0.20105 0.0
H317 H 0.23527 0.66463 0.1685 0.0
H318 H 0.23395 0.61691 0.13851 0.0
H319 H 0.25384 0.67711 0.0692 0.0
H320 H 0.25488 0.72526 0.09875 0.0
H321 H 0.36727 0.80206 0.22087 0.0
H322 H 0.31339 0.77901 0.21717 0.0
H323 H 0.31111 0.80279 0.13164 0.0
H324 H 0.36551 0.82578 0.13513 0.0
H325 H 0.29375 0.73991 0.14132 0.0
H326 H 0.26406 0.84397 0.17587 0.0
H327 H 0.2667 0.89051 0.20708 0.0
H328 H 0.24085 0.82922 0.27425 0.0
H329 H 0.23849 0.7822 0.24352 0.0
C330 C 0.14085 0.69592 0.14844 0.0
C331 C 0.12706 0.68761 0.17363 0.0
C332 C 0.1712 0.71073 0.14737 0.0
C333 C 0.18858 0.71678 0.17143 0.0
C334 C 0.17545 0.70682 0.19644 0.0
C335 C 0.14496 0.69258 0.19755 0.0
C336 C 0.21928 0.73545 0.17097 0.0
C337 C 0.22202 0.76238 0.18822 0.0
C338 C 0.24536 0.72752 0.15357 0.0
C339 C 0.2448 0.69858 0.1358 0.0
C340 C 0.23911 0.66772 0.14684 0.0
C341 C 0.23846 0.64059 0.12992 0.0
C342 C 0.24371 0.64399 0.10196 0.0
C343 C 0.24972 0.67452 0.09086 0.0
C344 C 0.25037 0.70173 0.10768 0.0
C345 C 0.35517 0.80292 0.20133 0.0
C346 C 0.37069 0.81579 0.17828 0.0
C347 C 0.32428 0.78975 0.19927 0.0
C348 C 0.30814 0.78928 0.17415 0.0
C349 C 0.32315 0.80292 0.15122 0.0
C350 C 0.35412 0.81626 0.15329 0.0
C351 C 0.27636 0.77296 0.17182 0.0
C352 C 0.27339 0.74662 0.15401 0.0
C353 C 0.25014 0.78121 0.18888 0.0
C354 C 0.25132 0.80951 0.2074 0.0
C355 C 0.25916 0.84037 0.19733 0.0
C356 C 0.26056 0.86684 0.21493 0.0
C357 C 0.254 0.86281 0.24263 0.0
C358 C 0.24594 0.8323 0.25279 0.0
C359 C 0.24452 0.80574 0.23528 0.0
H360 H 0.25512 0.88334 0.25623 0.0
H361 H 0.2432 0.62295 0.0889 0.0
H362 H 0.32031 0.63388 0.62796 0.0
H363 H 0.296 0.68778 0.62659 0.0
H364 H 0.30735 0.69583 0.71368 0.0
H365 H 0.33052 0.64158 0.71522 0.0
H366 H 0.24881 0.71044 0.70093 0.0
H367 H 0.35248 0.74167 0.66601 0.0
H368 H 0.39935 0.73937 0.63514 0.0
H369 H 0.33795 0.76043 0.56691 0.0
H370 H 0.29062 0.76245 0.59734 0.0
H371 H 0.21728 0.8769 0.71949 0.0
H372 H 0.2409 0.82308 0.7159 0.0
H373 H 0.21351 0.8188 0.63126 0.0
H374 H 0.18978 0.87305 0.63466 0.0
H375 H 0.27738 0.80158 0.63983 0.0
H376 H 0.17408 0.77322 0.6766 0.0
H377 H 0.1284 0.77671 0.70863 0.0
H378 H 0.19109 0.75132 0.77496 0.0
H379 H 0.23725 0.74811 0.74338 0.0
C380 C 0.31833 0.64748 0.6467 0.0
C381 C 0.32726 0.63349 0.67171 0.0
C382 C 0.3044 0.67833 0.64591 0.0
C383 C 0.29976 0.69598 0.67005 0.0
C384 C 0.31038 0.68265 0.69481 0.0
C385 C 0.32384 0.6517 0.69565 0.0
C386 C 0.28174 0.72716 0.66998 0.0
C387 C 0.25542 0.73049 0.6878 0.0
C388 C 0.28954 0.75304 0.65224 0.0
C389 C 0.31796 0.75187 0.63392 0.0
C390 C 0.34893 0.74555 0.64439 0.0
C391 C 0.37559 0.74435 0.62698 0.0
C392 C 0.37162 0.74966 0.59907 0.0
C393 C 0.34099 0.75627 0.58853 0.0
C394 C 0.31424 0.75748 0.60585 0.0
C395 C 0.21584 0.86439 0.70017 0.0
C396 C 0.20159 0.87925 0.67735 0.0
C397 C 0.22934 0.83357 0.69817 0.0
C398 C 0.22888 0.81686 0.67334 0.0
C399 C 0.21412 0.8313 0.65061 0.0
C400 C 0.20037 0.86217 0.65264 0.0
C401 C 0.245 0.78489 0.67111 0.0
C402 C 0.27081 0.7814 0.65283 0.0
C403 C 0.23696 0.75892 0.6886 0.0
C404 C 0.20918 0.76067 0.70763 0.0
C405 C 0.17818 0.76861 0.69805 0.0
C406 C 0.15219 0.7705 0.71612 0.0
C407 C 0.15685 0.7643 0.74382 0.0
C408 C 0.18751 0.75613 0.7535 0.0
C409 C 0.21359 0.75424 0.73551 0.0
H410 H 0.1367 0.76578 0.75778 0.0
H411 H 0.39229 0.74872 0.58562 0.0
H412 H 0.63747 0.19667 0.78687 0.0
H413 H 0.69188 0.21892 0.78909 0.0
H414 H 0.69163 0.20798 0.87644 0.0
H415 H 0.63687 0.18574 0.87439 0.0
H416 H 0.70921 0.26886 0.86091 0.0
H417 H 0.74017 0.161 0.83781 0.0
H418 H 0.73904 0.1102 0.81167 0.0
H419 H 0.7674 0.16137 0.7394 0.0
H420 H 0.76826 0.21258 0.76502 0.0
H421 H 0.87543 0.31579 0.87334 0.0
H422 H 0.82234 0.29013 0.87569 0.0
H423 H 0.81714 0.28958 0.78794 0.0
H424 H 0.87044 0.31445 0.78548 0.0
H425 H 0.80328 0.23206 0.80676 0.0
H426 H 0.7692 0.34003 0.82839 0.0
H427 H 0.76953 0.39147 0.85365 0.0
H428 H 0.74633 0.34102 0.92757 0.0
H429 H 0.74627 0.28919 0.9028 0.0
C430 C 0.6492 0.19831 0.80653 0.0
C431 C 0.6328 0.1894 0.83046 0.0
C432 C 0.68038 0.21105 0.80776 0.0
C433 C 0.6959 0.21514 0.83293 0.0
C434 C 0.6801 0.20509 0.8568 0.0
C435 C 0.64891 0.19212 0.85557 0.0
C436 C 0.72762 0.23188 0.83427 0.0
C437 C 0.73 0.2605 0.84948 0.0
C438 C 0.75446 0.22147 0.81878 0.0
C439 C 0.75402 0.19069 0.80331 0.0
C440 C 0.74592 0.16147 0.81629 0.0
C441 C 0.74538 0.13259 0.80158 0.0
C442 C 0.75308 0.13257 0.77388 0.0
C443 C 0.76142 0.16143 0.76086 0.0
C444 C 0.76197 0.19038 0.77547 0.0
C445 C 0.86266 0.31087 0.85456 0.0
C446 C 0.8772 0.31714 0.82922 0.0
C447 C 0.83227 0.29614 0.85592 0.0
C448 C 0.81564 0.28782 0.83198 0.0
C449 C 0.82953 0.2955 0.8067 0.0
C450 C 0.85996 0.30995 0.80532 0.0
C451 C 0.78479 0.26939 0.83307 0.0
C452 C 0.78259 0.24038 0.81834 0.0
C453 C 0.75807 0.27956 0.84887 0.0
C454 C 0.75809 0.31069 0.86379 0.0
C455 C 0.76444 0.33987 0.85007 0.0
C456 C 0.76452 0.36911 0.86429 0.0
C457 C 0.75805 0.36951 0.89221 0.0
C458 C 0.75139 0.34067 0.90596 0.0
C459 C 0.7513 0.31136 0.89183 0.0
H460 H 0.75812 0.39217 0.90319 0.0
H461 H 0.75265 0.11018 0.76253 0.0
H462 H 0.68633 0.36608 0.28638 0.0
H463 H 0.71087 0.31268 0.28951 0.0
H464 H 0.70307 0.31573 0.37706 0.0
H465 H 0.67886 0.36972 0.37409 0.0
H466 H 0.7629 0.29899 0.3618 0.0
H467 H 0.65654 0.26374 0.3391 0.0
H468 H 0.60567 0.2626 0.31306 0.0
H469 H 0.65749 0.235 0.24104 0.0
H470 H 0.70874 0.2364 0.26655 0.0
H471 H 0.81589 0.13387 0.37512 0.0
H472 H 0.7885 0.18625 0.37737 0.0
H473 H 0.78828 0.19177 0.28963 0.0
H474 H 0.81495 0.13922 0.28725 0.0
H475 H 0.72994 0.20286 0.30851 0.0
H476 H 0.8364 0.2414 0.33019 0.0
H477 H 0.88758 0.24311 0.35578 0.0
H478 H 0.83583 0.26476 0.42927 0.0
H479 H 0.78428 0.26276 0.40418 0.0
C480 C 0.68916 0.35518 0.30631 0.0
C481 C 0.68061 0.37223 0.32999 0.0
C482 C 0.7032 0.32453 0.30807 0.0
C483 C 0.70878 0.31005 0.33352 0.0
C484 C 0.69906 0.32643 0.35719 0.0
C485 C 0.68496 0.35718 0.35545 0.0
C486 C 0.7267 0.2789 0.33529 0.0
C487 C 0.75536 0.27775 0.35056 0.0
C488 C 0.71734 0.25142 0.32011 0.0
C489 C 0.68652 0.25041 0.30472 0.0
C490 C 0.65712 0.25765 0.31767 0.0
C491 C 0.62821 0.25692 0.303 0.0
C492 C 0.62836 0.24879 0.2754 0.0
C493 C 0.65741 0.24131 0.26242 0.0
C494 C 0.68639 0.24202 0.27698 0.0
C495 C 0.81071 0.14661 0.35633 0.0
C496 C 0.81755 0.13233 0.331 0.0
C497 C 0.79498 0.17657 0.35764 0.0
C498 C 0.78619 0.193 0.33366 0.0
C499 C 0.79455 0.17949 0.30841 0.0
C500 C 0.81002 0.1495 0.30709 0.0
C501 C 0.76646 0.2231 0.33463 0.0
C502 C 0.73739 0.22402 0.31991 0.0
C503 C 0.77549 0.25035 0.35026 0.0
C504 C 0.80646 0.25158 0.36536 0.0
C505 C 0.83591 0.24626 0.35185 0.0
C506 C 0.86499 0.24734 0.36626 0.0
C507 C 0.86495 0.25395 0.39415 0.0
C508 C 0.83582 0.25959 0.40768 0.0
C509 C 0.80667 0.25851 0.39337 0.0
H510 H 0.88749 0.25477 0.40526 0.0
H511 H 0.60595 0.24825 0.26409 0.0
H512 H 0.77558 0.53133 0.37367 0.0
H513 H 0.83008 0.54851 0.36039 0.0
H514 H 0.82094 0.49534 0.28525 0.0
H515 H 0.76779 0.47724 0.29871 0.0
H516 H 0.87949 0.49055 0.30127 0.0
H517 H 0.80272 0.57965 0.29228 0.0
H518 H 0.76336 0.61933 0.30976 0.0
H519 H 0.83474 0.65677 0.36466 0.0
H520 H 0.87441 0.61704 0.34766 0.0
H521 H 0.94213 0.57899 0.1913 0.0
H522 H 0.91075 0.552 0.22671 0.0
H523 H 0.96403 0.60307 0.28854 0.0
H524 H 0.99612 0.62992 0.25303 0.0
H525 H 0.89481 0.60889 0.29162 0.0
H526 H 0.97502 0.52634 0.28724 0.0
H527 H 0.01171 0.48797 0.26451 0.0
H528 H 0.93062 0.43893 0.22926 0.0
H529 H 0.89344 0.47727 0.25145 0.0
C530 C 0.78553 0.52285 0.35459 0.0
C531 C 0.76712 0.50324 0.33712 0.0
C532 C 0.8166 0.53282 0.34694 0.0
C533 C 0.82948 0.5237 0.32156 0.0
C534 C 0.81171 0.50275 0.30492 0.0
C535 C 0.78106 0.49255 0.31262 0.0
C536 C 0.86008 0.53754 0.31081 0.0
C537 C 0.8829 0.51644 0.29929 0.0
C538 C 0.86513 0.57134 0.30878 0.0
C539 C 0.84134 0.59514 0.319 0.0
C540 C 0.80992 0.59621 0.30821 0.0
C541 C 0.78758 0.61872 0.31801 0.0
C542 C 0.79651 0.64048 0.33838 0.0
C543 C 0.82783 0.63984 0.34894 0.0
C544 C 0.85025 0.61734 0.33924 0.0
C545 C 0.94761 0.58405 0.21244 0.0
C546 C 0.97154 0.60659 0.2194 0.0
C547 C 0.92974 0.56852 0.23265 0.0
C548 C 0.93518 0.57546 0.26022 0.0
C549 C 0.95963 0.5973 0.26736 0.0
C550 C 0.97798 0.61248 0.24708 0.0
C551 C 0.91314 0.56186 0.28103 0.0
C552 C 0.89199 0.58302 0.29441 0.0
C553 C 0.90917 0.52815 0.28418 0.0
C554 C 0.93143 0.50478 0.27099 0.0
C555 C 0.965 0.50749 0.27452 0.0
C556 C 0.98589 0.48572 0.26174 0.0
C557 C 0.9735 0.46104 0.24544 0.0
C558 C 0.94019 0.45804 0.24192 0.0
C559 C 0.91919 0.47975 0.25464 0.0
H560 H 0.98972 0.44423 0.23555 0.0
H561 H 0.77919 0.65789 0.34593 0.0
H562 H 0.40663 0.50966 0.74153 0.0
H563 H 0.4352 0.47722 0.77586 0.0
H564 H 0.42397 0.39253 0.72566 0.0
H565 H 0.39649 0.42455 0.69127 0.0
H566 H 0.41704 0.42702 0.80621 0.0
H567 H 0.48545 0.34335 0.73007 0.0
H568 H 0.51155 0.34752 0.68508 0.0
H569 H 0.52605 0.44923 0.69712 0.0
H570 H 0.50046 0.44561 0.74234 0.0
H571 H 0.4477 0.26953 0.85544 0.0
H572 H 0.43258 0.32217 0.83675 0.0
H573 H 0.53312 0.34401 0.82268 0.0
H574 H 0.54791 0.29046 0.83971 0.0
H575 H 0.50488 0.35224 0.77906 0.0
H576 H 0.4813 0.38995 0.8675 0.0
H577 H 0.45874 0.38932 0.91394 0.0
H578 H 0.36271 0.38645 0.8812 0.0
H579 H 0.38467 0.38659 0.83455 0.0
C580 C 0.41062 0.48419 0.73771 0.0
C581 C 0.39948 0.46979 0.71352 0.0
C582 C 0.42679 0.46568 0.75741 0.0
C583 C 0.43214 0.43253 0.75319 0.0
C584 C 0.42082 0.41819 0.72915 0.0
C585 C 0.40497 0.4366 0.70948 0.0
C586 C 0.44887 0.41229 0.77387 0.0
C587 C 0.43649 0.41085 0.80047 0.0
C588 C 0.47494 0.39195 0.76662 0.0
C589 C 0.49087 0.39422 0.73958 0.0
C590 C 0.49441 0.36657 0.72321 0.0
C591 C 0.50906 0.36885 0.69764 0.0
C592 C 0.5204 0.39863 0.68823 0.0
C593 C 0.51718 0.42619 0.7044 0.0
C594 C 0.50257 0.42405 0.73 0.0
C595 C 0.46657 0.2861 0.84926 0.0
C596 C 0.49891 0.27606 0.84892 0.0
C597 C 0.45795 0.31631 0.83861 0.0
C598 C 0.48167 0.33729 0.82818 0.0
C599 C 0.51429 0.32826 0.8303 0.0
C600 C 0.52279 0.29776 0.84022 0.0
C601 C 0.47231 0.36585 0.81137 0.0
C602 C 0.48599 0.3688 0.78529 0.0
C603 C 0.44811 0.38809 0.81945 0.0
C604 C 0.43469 0.38813 0.84748 0.0
C605 C 0.45538 0.38898 0.87018 0.0
C606 C 0.44269 0.38874 0.89656 0.0
C607 C 0.40932 0.38781 0.90052 0.0
C608 C 0.38856 0.38718 0.8781 0.0
C609 C 0.40112 0.3874 0.85168 0.0
H610 H 0.39954 0.38762 0.92095 0.0
H611 H 0.5317 0.40035 0.66841 0.0
H612 H 0.54766 0.93173 0.19446 0.0
H613 H 0.58561 0.95408 0.22739 0.0
H614 H 0.5509 0.8876 0.28848 0.0
H615 H 0.51178 0.86592 0.2557 0.0
H616 H 0.56978 0.94455 0.3117 0.0
H617 H 0.61539 0.8671 0.25145 0.0
H618 H 0.62724 0.84149 0.20727 0.0
H619 H 0.67727 0.92687 0.18105 0.0
H620 H 0.66527 0.95321 0.22492 0.0
H621 H 0.73848 0.95342 0.36848 0.0
H622 H 0.68606 0.93263 0.35266 0.0
H623 H 0.67981 0.01048 0.29447 0.0
H624 H 0.73128 0.03155 0.31015 0.0
H625 H 0.68143 0.93947 0.27535 0.0
H626 H 0.63032 0.01714 0.33695 0.0
H627 H 0.61923 0.03934 0.38256 0.0
H628 H 0.58197 0.94748 0.40845 0.0
H629 H 0.5933 0.92461 0.36305 0.0
C630 C 0.54752 0.92246 0.21511 0.0
C631 C 0.52708 0.89687 0.22246 0.0
C632 C 0.56929 0.93514 0.23389 0.0
C633 C 0.57174 0.92184 0.26015 0.0
C634 C 0.54958 0.89805 0.26826 0.0
C635 C 0.52724 0.88572 0.24954 0.0
C636 C 0.59958 0.93055 0.27769 0.0
C637 C 0.59423 0.94303 0.30391 0.0
C638 C 0.63159 0.92809 0.26776 0.0
C639 C 0.63923 0.91221 0.24143 0.0
C640 C 0.62876 0.88049 0.2362 0.0
C641 C 0.63551 0.86584 0.21122 0.0
C642 C 0.65295 0.88256 0.19135 0.0
C643 C 0.66375 0.91395 0.19646 0.0
C644 C 0.657 0.92874 0.22139 0.0
C645 C 0.72546 0.96657 0.35286 0.0
C646 C 0.73927 0.99386 0.3403 0.0
C647 C 0.69558 0.95467 0.34387 0.0
C648 C 0.6793 0.97003 0.32236 0.0
C649 C 0.69208 0.99834 0.31109 0.0
C650 C 0.7216 0.01026 0.32006 0.0
C651 C 0.65148 0.95473 0.30871 0.0
C652 C 0.65698 0.94065 0.28322 0.0
C653 C 0.61992 0.95524 0.31957 0.0
C654 C 0.61307 0.96906 0.34675 0.0
C655 C 0.62012 1.00158 0.35246 0.0
C656 C 0.61369 0.01431 0.37825 0.0
C657 C 0.60001 0.9948 0.39842 0.0
C658 C 0.59263 0.96255 0.39282 0.0
C659 C 0.59902 0.9497 0.36707 0.0
H660 H 0.59505 0.00471 0.41837 0.0
H661 H 0.65815 0.87118 0.17201 0.0
H662 H 0.98006 0.22907 0.80852 0.0
H663 H 0.99989 0.17566 0.79705 0.0
H664 H 0.07059 0.18171 0.86135 0.0
H665 H 0.05107 0.23616 0.87272 0.0
H666 H 0.09815 0.16421 0.81496 0.0
H667 H 0.00841 0.12567 0.86463 0.0
H668 H 0.95191 0.12302 0.88016 0.0
H669 H 0.92121 0.0988 0.79924 0.0
H670 H 0.97745 0.10177 0.7831 0.0
H671 H 0.14826 0.01365 0.75786 0.0
H672 H 0.12467 0.04739 0.79383 0.0
H673 H 0.0521 0.0812 0.73759 0.0
H674 H 0.07587 0.04819 0.70154 0.0
H675 H 0.02894 0.07022 0.79233 0.0
H676 H 0.11566 0.12368 0.74237 0.0
H677 H 0.17154 0.1283 0.72554 0.0
H678 H 0.20705 0.12498 0.80765 0.0
H679 H 0.15131 0.11981 0.82493 0.0
C680 C 0.99951 0.21897 0.82059 0.0
C681 C 0.01411 0.23703 0.84145 0.0
C682 C 0.01066 0.18816 0.81414 0.0
C683 C 0.0365 0.17437 0.82853 0.0
C684 C 0.05048 0.19179 0.85007 0.0
C685 C 0.03924 0.22283 0.8566 0.0
C686 C 0.05067 0.14343 0.8188 0.0
C687 C 0.08322 0.14325 0.81087 0.0
C688 C 0.03116 0.11617 0.81303 0.0
C689 C 0.99723 0.11402 0.82264 0.0
C690 C 0.9896 0.11994 0.8501 0.0
C691 C 0.95761 0.11837 0.85902 0.0
C692 C 0.93298 0.11076 0.84069 0.0
C693 C 0.94031 0.10465 0.81342 0.0
C694 C 0.97227 0.1062 0.80439 0.0
C695 C 0.12673 0.02759 0.75342 0.0
C696 C 0.11394 0.02846 0.7269 0.0
C697 C 0.11339 0.04691 0.77393 0.0
C698 C 0.08677 0.06687 0.76828 0.0
C699 C 0.07257 0.06587 0.74237 0.0
C700 C 0.08623 0.04712 0.72178 0.0
C701 C 0.07587 0.09169 0.78794 0.0
C702 C 0.04401 0.09073 0.79749 0.0
C703 C 0.09595 0.11791 0.79524 0.0
C704 C 0.12941 0.12091 0.7849 0.0
C705 C 0.13541 0.1236 0.75681 0.0
C706 C 0.16704 0.12638 0.7472 0.0
C707 C 0.19283 0.12687 0.76551 0.0
C708 C 0.18704 0.12455 0.79349 0.0
C709 C 0.15545 0.12167 0.8032 0.0
H710 H 0.21729 0.12915 0.75802 0.0
H711 H 0.90822 0.10958 0.84763 0.0
H712 H 0.00768 0.40489 0.76543 0.0
H713 H 0.04516 0.43134 0.73372 0.0
H714 H 0.12526 0.40266 0.78455 0.0
H715 H 0.08831 0.37759 0.81646 0.0
H716 H 0.13469 0.46034 0.76953 0.0
H717 H 0.10313 0.36254 0.72338 0.0
H718 H 0.06472 0.32424 0.70273 0.0
H719 H 0.03368 0.39743 0.64637 0.0
H720 H 0.07165 0.43629 0.66692 0.0
H721 H 0.25326 0.44238 0.65236 0.0
H722 H 0.20225 0.42388 0.67229 0.0
H723 H 0.17941 0.52185 0.69534 0.0
H724 H 0.23082 0.54012 0.67653 0.0
H725 H 0.13797 0.43289 0.67126 0.0
H726 H 0.1538 0.52309 0.75996 0.0
H727 H 0.19705 0.55458 0.78203 0.0
H728 H 0.26723 0.4846 0.7562 0.0
H729 H 0.22436 0.4525 0.73435 0.0
C730 C 0.03328 0.40451 0.76989 0.0
C731 C 0.04494 0.38918 0.79354 0.0
C732 C 0.0547 0.41943 0.75166 0.0
C733 C 0.08815 0.41876 0.75655 0.0
C734 C 0.09962 0.40373 0.7803 0.0
C735 C 0.07835 0.3893 0.79859 0.0
C736 C 0.1117 0.43356 0.73733 0.0
C737 C 0.13512 0.45449 0.74801 0.0
C738 C 0.11273 0.42572 0.70925 0.0
C739 C 0.08993 0.40241 0.69689 0.0
C740 C 0.08793 0.37053 0.70672 0.0
C741 C 0.06628 0.34871 0.69501 0.0
C742 C 0.0467 0.35843 0.67331 0.0
C743 C 0.0488 0.38996 0.66322 0.0
C744 C 0.07039 0.41188 0.67488 0.0
C745 C 0.23688 0.46005 0.66095 0.0
C746 C 0.24614 0.49257 0.6633 0.0
C747 C 0.20773 0.44947 0.67234 0.0
C748 C 0.18738 0.47137 0.68592 0.0
C749 C 0.19506 0.50441 0.68552 0.0
C750 C 0.22439 0.51485 0.67469 0.0
C751 C 0.1609 0.45931 0.70364 0.0
C752 C 0.13705 0.43906 0.6927 0.0
C753 C 0.16004 0.46678 0.73178 0.0
C754 C 0.18593 0.48565 0.74525 0.0
C755 C 0.17845 0.5144 0.75908 0.0
C756 C 0.2029 0.53234 0.77155 0.0
C757 C 0.23488 0.52166 0.77043 0.0
C758 C 0.24247 0.49292 0.75697 0.0
C759 C 0.21812 0.47485 0.74453 0.0
H760 H 0.25377 0.53562 0.78005 0.0
H761 H 0.02995 0.3415 0.66427 0.0
H762 H 0.66345 0.57632 0.29307 0.0
H763 H 0.64304 0.61504 0.25991 0.0
H764 H 0.55752 0.55697 0.24898 0.0
H765 H 0.57933 0.51664 0.28108 0.0
H766 H 0.57225 0.58225 0.20254 0.0
H767 H 0.55933 0.62681 0.29103 0.0
H768 H 0.57499 0.64334 0.3374 0.0
H769 H 0.64466 0.70934 0.30431 0.0
H770 H 0.62971 0.69289 0.25773 0.0
H771 H 0.47595 0.72474 0.16955 0.0
H772 H 0.49981 0.6745 0.18667 0.0
H773 H 0.59498 0.7139 0.17454 0.0
H774 H 0.57124 0.76401 0.15669 0.0
H775 H 0.57429 0.69726 0.23088 0.0
H776 H 0.58057 0.65231 0.14051 0.0
H777 H 0.55838 0.63627 0.09597 0.0
H778 H 0.49197 0.57195 0.13556 0.0
H779 H 0.51344 0.58796 0.18039 0.0
C780 C 0.6403 0.57176 0.28355 0.0
C781 C 0.62263 0.54385 0.28994 0.0
C782 C 0.62857 0.59399 0.26465 0.0
C783 C 0.5982 0.58959 0.25254 0.0
C784 C 0.58089 0.56109 0.25821 0.0
C785 C 0.59322 0.53817 0.27661 0.0
C786 C 0.58447 0.6154 0.23476 0.0
C787 C 0.57237 0.60733 0.2089 0.0
C788 C 0.58462 0.64829 0.24289 0.0
C789 C 0.59359 0.6584 0.27089 0.0
C790 C 0.57813 0.6447 0.29364 0.0
C791 C 0.58687 0.65407 0.31996 0.0
C792 C 0.61086 0.67732 0.3238 0.0
C793 C 0.6261 0.69131 0.30131 0.0
C794 C 0.61749 0.682 0.27494 0.0
C795 C 0.50198 0.72219 0.16955 0.0
C796 C 0.52179 0.74824 0.16188 0.0
C797 C 0.51555 0.69349 0.1793 0.0
C798 C 0.5491 0.6906 0.18192 0.0
C799 C 0.56901 0.71569 0.17249 0.0
C800 C 0.55545 0.7442 0.16218 0.0
C801 C 0.5628 0.66413 0.19864 0.0
C802 C 0.5745 0.67215 0.2245 0.0
C803 C 0.56126 0.63132 0.19079 0.0
C804 C 0.54843 0.62158 0.16384 0.0
C805 C 0.56103 0.63498 0.13975 0.0
C806 C 0.54863 0.62584 0.11444 0.0
C807 C 0.52373 0.60317 0.11294 0.0
C808 C 0.51124 0.58953 0.13675 0.0
C809 C 0.52355 0.5986 0.16212 0.0
H810 H 0.51416 0.59612 0.09332 0.0
H811 H 0.61759 0.68453 0.34419 0.0
H812 H 0.49647 0.10679 0.76918 0.0
H813 H 0.45769 0.08481 0.73619 0.0
H814 H 0.38025 0.13403 0.77794 0.0
H815 H 0.41823 0.15427 0.81136 0.0
H816 H 0.36048 0.07878 0.76717 0.0
H817 H 0.4157 0.15959 0.71406 0.0
H818 H 0.46266 0.18634 0.693 0.0
H819 H 0.48406 0.10005 0.64801 0.0
H820 H 0.43743 0.07265 0.66907 0.0
H821 H 0.2388 0.08405 0.66721 0.0
H822 H 0.28881 0.10624 0.6862 0.0
H823 H 0.33639 0.01477 0.67378 0.0
H824 H 0.28609 0.99206 0.65587 0.0
H825 H 0.37325 0.08783 0.66696 0.0
H826 H 0.31661 0.00774 0.72565 0.0
H827 H 0.26618 0.98637 0.74532 0.0
H828 H 0.24529 0.07926 0.77993 0.0
H829 H 0.29503 0.1015 0.75954 0.0
C830 C 0.47113 0.11271 0.77127 0.0
C831 C 0.4604 0.13201 0.793 0.0
C832 C 0.44899 0.10038 0.75231 0.0
C833 C 0.41592 0.10795 0.75434 0.0
C834 C 0.40547 0.12751 0.77593 0.0
C835 C 0.42731 0.13912 0.7951 0.0
C836 C 0.39165 0.09514 0.7347 0.0
C837 C 0.36346 0.08104 0.7453 0.0
C838 C 0.39529 0.09755 0.70602 0.0
C839 C 0.42331 0.11397 0.69337 0.0
C840 C 0.43057 0.14625 0.69983 0.0
C841 C 0.4571 0.16154 0.68787 0.0
C842 C 0.47639 0.14487 0.66925 0.0
C843 C 0.46914 0.1129 0.66248 0.0
C844 C 0.44265 0.09749 0.67441 0.0
C845 C 0.26031 0.06914 0.66742 0.0
C846 C 0.2587 0.03639 0.66012 0.0
C847 C 0.2888 0.08179 0.67833 0.0
C848 C 0.31614 0.06204 0.68142 0.0
C849 C 0.31556 0.03037 0.67137 0.0
C850 C 0.28686 0.01746 0.66118 0.0
C851 C 0.34255 0.07223 0.69971 0.0
C852 C 0.37083 0.0856 0.68887 0.0
C853 C 0.3389 0.0698 0.72823 0.0
C854 C 0.30922 0.05638 0.74071 0.0
C855 C 0.301 0.02373 0.73709 0.0
C856 C 0.27254 0.01147 0.74836 0.0
C857 C 0.25239 0.03153 0.76367 0.0
C858 C 0.26074 0.06386 0.76782 0.0
C859 C 0.28902 0.07631 0.75637 0.0
H860 H 0.2304 0.022 0.77244 0.0
H861 H 0.49692 0.15675 0.66 0.0
H862 H 0.02774 0.78023 0.16299 0.0
H863 H 0.01026 0.83262 0.18061 0.0
H864 H 0.91163 0.79931 0.18138 0.0
H865 H 0.92898 0.74736 0.16236 0.0
H866 H 0.91244 0.86292 0.17394 0.0
H867 H 0.96166 0.78812 0.23675 0.0
H868 H 0.00478 0.75203 0.25349 0.0
H869 H 0.07046 0.83213 0.25671 0.0
H870 H 0.02781 0.86861 0.2396 0.0
H871 H 0.89204 0.92434 0.32107 0.0
H872 H 0.91448 0.88696 0.28808 0.0
H873 H 0.91834 0.96317 0.22806 0.0
H874 H 0.89478 1.00093 0.26106 0.0
H875 H 0.9679 0.88231 0.26197 0.0
H876 H 0.90558 0.92875 0.1645 0.0
H877 H 0.85697 0.9593 0.15084 0.0
H878 H 0.80804 0.92752 0.22315 0.0
H879 H 0.8562 0.89649 0.23704 0.0
C880 C 1.00219 0.78458 0.16597 0.0
C881 C 0.97969 0.75978 0.16155 0.0
C882 C 0.99224 0.81443 0.17619 0.0
C883 C 0.95976 0.81957 0.18313 0.0
C884 C 0.93684 0.79587 0.17634 0.0
C885 C 0.94674 0.76619 0.16544 0.0
C886 C 0.95052 0.84728 0.20077 0.0
C887 C 0.92475 0.86739 0.19305 0.0
C888 C 0.96611 0.85279 0.22604 0.0
C889 C 0.99168 0.831 0.23662 0.0
C890 C 0.98536 0.79798 0.24089 0.0
C891 C 0.0097 0.77746 0.25044 0.0
C892 C 0.04037 0.78976 0.25609 0.0
C893 C 0.04672 0.82263 0.25227 0.0
C894 C 0.02247 0.84324 0.24265 0.0
C895 C 0.89784 0.9334 0.30095 0.0
C896 C 0.89136 0.96568 0.29371 0.0
C897 C 0.9108 0.9119 0.28206 0.0
C898 C 0.91779 0.92205 0.25544 0.0
C899 C 0.91265 0.95461 0.24835 0.0
C900 C 0.89943 0.97624 0.2673 0.0
C901 C 0.92961 0.89793 0.23531 0.0
C902 C 0.95595 0.87839 0.24259 0.0
C903 C 0.91378 0.89232 0.21018 0.0
C904 C 0.88463 0.91068 0.20195 0.0
C905 C 0.88442 0.92826 0.17744 0.0
C906 C 0.85695 0.94565 0.16967 0.0
C907 C 0.82948 0.94546 0.18618 0.0
C908 C 0.82938 0.92777 0.21044 0.0
C909 C 0.85676 0.91031 0.21829 0.0
H910 H 0.80826 0.95895 0.18013 0.0
H911 H 0.05919 0.77384 0.26348 0.0
loop_
_geom_bond_atom_site_label_1
_geom_bond_atom_site_label_2
_geom_bond_distance
_geom_bond_site_symmetry_2
_ccdc_geom_bond_type
O0 Cd1 2.223 . S
O0 C8 1.315 . S
Cd1 O0 2.223 . S
Cd1 O4 2.297 . S
Cd1 O5 2.439 1_655 S
Cd1 O11 2.240 1_655 S
Cd2 O3 2.240 . S
Cd2 O10 2.223 . S
Cd2 O12 2.297 . S
Cd2 O13 2.439 . S
O3 Cd2 2.240 . S
O3 C8 1.279 1_455 S
O4 Cd1 2.297 . S
O4 C6 1.247 1_655 S
O5 Cd1 2.439 1_455 S
O5 C6 1.208 . S
C6 O4 1.247 1_455 S
C6 O5 1.208 . S
C7 O12 1.247 . S
C7 O13 1.208 . S
C8 O0 1.315 . S
C8 O3 1.279 1_655 S
C9 O10 1.315 . S
C9 O11 1.279 . S
O10 Cd2 2.223 . S
O10 C9 1.315 . S
O11 Cd1 2.240 1_455 S
O11 C9 1.279 . S
O12 Cd2 2.297 . S
O12 C7 1.247 . S
O13 Cd2 2.439 . S
O13 C7 1.208 . S
O14 Cd15 2.223 . S
O14 C22 1.315 . S
Cd15 O14 2.223 . S
Cd15 O18 2.297 . S
Cd15 O19 2.439 . S
Cd15 O25 2.240 . S
Cd16 O17 2.240 . S
Cd16 O24 2.223 . S
Cd16 O26 2.297 . S
Cd16 O27 2.439 . S
O17 Cd16 2.240 . S
O17 C22 1.279 . S
O18 Cd15 2.297 . S
O18 C20 1.247 . S
O19 Cd15 2.439 . S
O19 C20 1.208 . S
C20 O18 1.247 . S
C20 O19 1.208 . S
C21 O26 1.247 . S
C21 O27 1.208 . S
C22 O14 1.315 . S
C22 O17 1.279 . S
C23 O24 1.315 . S
C23 O25 1.279 . S
O24 Cd16 2.223 . S
O24 C23 1.315 . S
O25 Cd15 2.240 . S
O25 C23 1.279 . S
O26 Cd16 2.297 . S
O26 C21 1.247 . S
O27 Cd16 2.439 . S
O27 C21 1.208 . S
O28 Cd29 2.223 . S
O28 C36 1.315 . S
Cd29 O28 2.223 . S
Cd29 O32 2.297 . S
Cd29 O33 2.439 . S
Cd29 O39 2.240 . S
Cd30 O31 2.240 . S
Cd30 O38 2.223 . S
Cd30 O40 2.297 . S
Cd30 O41 2.439 . S
O31 Cd30 2.240 . S
O31 C36 1.279 . S
O32 Cd29 2.297 . S
O32 C34 1.247 . S
O33 Cd29 2.439 . S
O33 C34 1.208 . S
C34 O32 1.247 . S
C34 O33 1.208 . S
C35 O40 1.247 . S
C35 O41 1.208 . S
C36 O28 1.315 . S
C36 O31 1.279 . S
C37 O38 1.315 . S
C37 O39 1.279 . S
O38 Cd30 2.223 . S
O38 C37 1.315 . S
O39 Cd29 2.240 . S
O39 C37 1.279 . S
O40 Cd30 2.297 . S
O40 C35 1.247 . S
O41 Cd30 2.439 . S
O41 C35 1.208 . S
O42 Cd43 2.223 . S
O42 C50 1.315 . S
Cd43 O42 2.223 . S
Cd43 O46 2.297 . S
Cd43 O47 2.439 1_545 S
Cd43 O53 2.240 1_545 S
Cd44 O45 2.240 . S
Cd44 O52 2.223 . S
Cd44 O54 2.297 . S
Cd44 O55 2.439 . S
O45 Cd44 2.240 . S
O45 C50 1.279 1_565 S
O46 Cd43 2.297 . S
O46 C48 1.247 1_545 S
O47 Cd43 2.439 1_565 S
O47 C48 1.208 . S
C48 O46 1.247 1_565 S
C48 O47 1.208 . S
C49 O54 1.247 . S
C49 O55 1.208 . S
C50 O42 1.315 . S
C50 O45 1.279 1_545 S
C51 O52 1.315 . S
C51 O53 1.279 . S
O52 Cd44 2.223 . S
O52 C51 1.315 . S
O53 Cd43 2.240 1_565 S
O53 C51 1.279 . S
O54 Cd44 2.297 . S
O54 C49 1.247 . S
O55 Cd44 2.439 . S
O55 C49 1.208 . S
O56 Cd57 2.223 . S
O56 C64 1.315 . S
Cd57 O56 2.223 . S
Cd57 O60 2.297 . S
Cd57 O61 2.439 1_455 S
Cd57 O67 2.240 1_455 S
Cd58 O59 2.240 . S
Cd58 O66 2.223 . S
Cd58 O68 2.297 . S
Cd58 O69 2.439 . S
O59 Cd58 2.240 . S
O59 C64 1.279 1_655 S
O60 Cd57 2.297 . S
O60 C62 1.247 1_455 S
O61 Cd57 2.439 1_655 S
O61 C62 1.208 . S
C62 O60 1.247 1_655 S
C62 O61 1.208 . S
C63 O68 1.247 . S
C63 O69 1.208 . S
C64 O56 1.315 . S
C64 O59 1.279 1_455 S
C65 O66 1.315 . S
C65 O67 1.279 . S
O66 Cd58 2.223 . S
O66 C65 1.315 . S
O67 Cd57 2.240 1_655 S
O67 C65 1.279 . S
O68 Cd58 2.297 . S
O68 C63 1.247 . S
O69 Cd58 2.439 . S
O69 C63 1.208 . S
O70 Cd71 2.223 . S
O70 C78 1.315 . S
Cd71 O70 2.223 . S
Cd71 O74 2.297 . S
Cd71 O75 2.439 . S
Cd71 O81 2.240 . S
Cd72 O73 2.240 . S
Cd72 O80 2.223 . S
Cd72 O82 2.297 . S
Cd72 O83 2.439 . S
O73 Cd72 2.240 . S
O73 C78 1.279 . S
O74 Cd71 2.297 . S
O74 C76 1.247 . S
O75 Cd71 2.439 . S
O75 C76 1.208 . S
C76 O74 1.247 . S
C76 O75 1.208 . S
C77 O82 1.247 . S
C77 O83 1.208 . S
C78 O70 1.315 . S
C78 O73 1.279 . S
C79 O80 1.315 . S
C79 O81 1.279 . S
O80 Cd72 2.223 . S
O80 C79 1.315 . S
O81 Cd71 2.240 . S
O81 C79 1.279 . S
O82 Cd72 2.297 . S
O82 C77 1.247 . S
O83 Cd72 2.439 . S
O83 C77 1.208 . S
O84 Cd85 2.223 . S
O84 C92 1.315 . S
Cd85 O84 2.223 . S
Cd85 O88 2.297 . S
Cd85 O89 2.439 . S
Cd85 O95 2.240 . S
Cd86 O87 2.240 . S
Cd86 O94 2.223 . S
Cd86 O96 2.297 . S
Cd86 O97 2.439 . S
O87 Cd86 2.240 . S
O87 C92 1.279 . S
O88 Cd85 2.297 . S
O88 C90 1.247 . S
O89 Cd85 2.439 . S
O89 C90 1.208 . S
C90 O88 1.247 . S
C90 O89 1.208 . S
C91 O96 1.247 . S
C91 O97 1.208 . S
C92 O84 1.315 . S
C92 O87 1.279 . S
C93 O94 1.315 . S
C93 O95 1.279 . S
O94 Cd86 2.223 . S
O94 C93 1.315 . S
O95 Cd85 2.240 . S
O95 C93 1.279 . S
O96 Cd86 2.297 . S
O96 C91 1.247 . S
O97 Cd86 2.439 . S
O97 C91 1.208 . S
O98 Cd99 2.223 . S
O98 C106 1.315 . S
Cd99 O98 2.223 . S
Cd99 O102 2.297 . S
Cd99 O103 2.439 1_565 S
Cd99 O109 2.240 1_565 S
Cd100 O101 2.240 . S
Cd100 O108 2.223 . S
Cd100 O110 2.297 . S
Cd100 O111 2.439 . S
O101 Cd100 2.240 . S
O101 C106 1.279 1_545 S
O102 Cd99 2.297 . S
O102 C104 1.247 1_565 S
O103 Cd99 2.439 1_545 S
O103 C104 1.208 . S
C104 O102 1.247 1_545 S
C104 O103 1.208 . S
C105 O110 1.247 . S
C105 O111 1.208 . S
C106 O98 1.315 . S
C106 O101 1.279 1_565 S
C107 O108 1.315 . S
C107 O109 1.279 . S
O108 Cd100 2.223 . S
O108 C107 1.315 . S
O109 Cd99 2.240 1_545 S
O109 C107 1.279 . S
O110 Cd100 2.297 . S
O110 C105 1.247 . S
O111 Cd100 2.439 . S
O111 C105 1.208 . S
H112 C130 0.951 . S
H113 C132 0.951 . S
H114 C134 0.949 1_455 S
H115 C135 0.950 1_455 S
H116 C137 0.950 . S
H117 C140 0.950 . S
H118 C141 0.950 . S
H119 C143 0.950 . S
H120 C144 0.950 . S
H121 C145 0.951 . S
H122 C147 0.951 . S
H123 C149 0.949 1_655 S
H124 C150 0.950 1_655 S
H125 C152 0.950 . S
H126 C155 0.950 . S
H127 C156 0.950 . S
H128 C158 0.950 . S
H129 C159 0.950 . S
C130 H112 0.951 . S
C130 C131 1.366 . S
C130 C132 1.388 . S
C131 C130 1.366 . S
C131 C135 1.385 . S
C132 H113 0.951 . S
C132 C130 1.388 . S
C132 C133 1.366 . S
C133 C132 1.366 . S
C133 C134 1.415 . S
C133 C136 1.499 . S
C134 H114 0.949 1_655 S
C134 C133 1.415 . S
C134 C135 1.374 . S
C135 H115 0.950 1_655 S
C135 C131 1.385 . S
C135 C134 1.374 . S
C136 C133 1.499 . S
C136 C137 1.373 1_655 S
C136 C138 1.389 . S
C137 H116 0.950 . S
C137 C136 1.373 1_455 S
C137 C153 1.377 1_556 S
C138 C136 1.389 . S
C138 C139 1.524 . S
C138 C152 1.377 1_556 S
C139 C138 1.524 . S
C139 C140 1.397 . S
C139 C144 1.363 1_556 S
C140 H117 0.950 . S
C140 C139 1.397 . S
C140 C141 1.334 . S
C141 H118 0.950 . S
C141 C140 1.334 . S
C141 C142 1.287 . S
C142 C141 1.287 . S
C142 C143 1.524 1_556 S
C142 H161 0.913 . S
C143 H119 0.950 . S
C143 C142 1.524 1_554 S
C143 C144 1.415 . S
C144 H120 0.950 . S
C144 C139 1.363 1_554 S
C144 C143 1.415 . S
C145 H121 0.951 . S
C145 C146 1.366 . S
C145 C147 1.388 . S
C146 C145 1.366 . S
C146 C150 1.385 . S
C147 H122 0.951 . S
C147 C145 1.388 . S
C147 C148 1.366 . S
C148 C147 1.366 . S
C148 C149 1.415 . S
C148 C151 1.499 . S
C149 H123 0.949 1_455 S
C149 C148 1.415 . S
C149 C150 1.374 . S
C150 H124 0.950 1_455 S
C150 C146 1.385 . S
C150 C149 1.374 . S
C151 C148 1.499 . S
C151 C152 1.373 1_455 S
C151 C153 1.389 . S
C152 H125 0.950 . S
C152 C138 1.377 1_554 S
C152 C151 1.373 1_655 S
C153 C137 1.377 1_554 S
C153 C151 1.389 . S
C153 C154 1.524 . S
C154 C153 1.524 . S
C154 C155 1.397 . S
C154 C159 1.363 1_554 S
C155 H126 0.950 . S
C155 C154 1.397 . S
C155 C156 1.334 . S
C156 H127 0.950 . S
C156 C155 1.334 . S
C156 C157 1.287 . S
C157 C156 1.287 . S
C157 C158 1.524 1_554 S
C157 H160 0.999 . S
C158 H128 0.950 . S
C158 C157 1.524 1_556 S
C158 C159 1.415 . S
C159 H129 0.950 . S
C159 C154 1.363 1_556 S
C159 C158 1.415 . S
H160 C157 0.999 . S
H161 C142 0.913 . S
H162 C180 0.951 . S
H163 C182 0.951 . S
H164 C184 0.950 . S
H165 C185 0.950 . S
H166 C187 0.950 . S
H167 C190 0.950 . S
H168 C191 0.950 . S
H169 C193 0.950 . S
H170 C194 0.950 . S
H171 C195 0.951 . S
H172 C197 0.951 . S
H173 C199 0.950 . S
H174 C200 0.950 . S
H175 C202 0.950 . S
H176 C205 0.950 . S
H177 C206 0.950 . S
H178 C208 0.950 . S
H179 C209 0.950 . S
C180 H162 0.951 . S
C180 C181 1.366 . S
C180 C182 1.388 . S
C181 C180 1.366 . S
C181 C185 1.385 . S
C182 H163 0.951 . S
C182 C180 1.388 . S
C182 C183 1.366 . S
C183 C182 1.366 . S
C183 C184 1.414 . S
C183 C186 1.499 . S
C184 H164 0.950 . S
C184 C183 1.414 . S
C184 C185 1.374 . S
C185 H165 0.950 . S
C185 C181 1.385 . S
C185 C184 1.374 . S
C186 C183 1.499 . S
C186 C187 1.373 . S
C186 C188 1.389 . S
C187 H166 0.950 . S
C187 C186 1.373 . S
C187 C203 1.377 . S
C188 C186 1.389 . S
C188 C189 1.524 . S
C188 C202 1.377 . S
C189 C188 1.524 . S
C189 C190 1.397 . S
C189 C194 1.363 . S
C190 H167 0.950 . S
C190 C189 1.397 . S
C190 C191 1.334 . S
C191 H168 0.950 . S
C191 C190 1.334 . S
C191 C192 1.287 . S
C192 C191 1.287 . S
C192 C193 1.524 . S
C192 H211 0.913 . S
C193 H169 0.950 . S
C193 C192 1.524 . S
C193 C194 1.415 . S
C194 H170 0.950 . S
C194 C189 1.363 . S
C194 C193 1.415 . S
C195 H171 0.951 . S
C195 C196 1.366 . S
C195 C197 1.388 . S
C196 C195 1.366 . S
C196 C200 1.385 . S
C197 H172 0.951 . S
C197 C195 1.388 . S
C197 C198 1.366 . S
C198 C197 1.366 . S
C198 C199 1.414 . S
C198 C201 1.499 . S
C199 H173 0.950 . S
C199 C198 1.414 . S
C199 C200 1.374 . S
C200 H174 0.950 . S
C200 C196 1.385 . S
C200 C199 1.374 . S
C201 C198 1.499 . S
C201 C202 1.373 . S
C201 C203 1.389 . S
C202 H175 0.950 . S
C202 C188 1.377 . S
C202 C201 1.373 . S
C203 C187 1.377 . S
C203 C201 1.389 . S
C203 C204 1.524 . S
C204 C203 1.524 . S
C204 C205 1.397 . S
C204 C209 1.363 . S
C205 H176 0.950 . S
C205 C204 1.397 . S
C205 C206 1.334 . S
C206 H177 0.950 . S
C206 C205 1.334 . S
C206 C207 1.287 . S
C207 C206 1.287 . S
C207 C208 1.524 . S
C207 H210 0.999 . S
C208 H178 0.950 . S
C208 C207 1.524 . S
C208 C209 1.415 . S
C209 H179 0.950 . S
C209 C204 1.363 . S
C209 C208 1.415 . S
H210 C207 0.999 . S
H211 C192 0.913 . S
H212 C230 0.951 . S
H213 C232 0.951 . S
H214 C234 0.950 . S
H215 C235 0.950 . S
H216 C237 0.950 . S
H217 C240 0.950 . S
H218 C241 0.950 . S
H219 C243 0.950 . S
H220 C244 0.950 1_545 S
H221 C245 0.951 . S
H222 C247 0.951 . S
H223 C249 0.950 . S
H224 C250 0.950 . S
H225 C252 0.950 . S
H226 C255 0.950 . S
H227 C256 0.950 . S
H228 C258 0.950 . S
H229 C259 0.950 1_565 S
C230 H212 0.951 . S
C230 C231 1.366 . S
C230 C232 1.388 . S
C231 C230 1.366 . S
C231 C235 1.385 . S
C232 H213 0.951 . S
C232 C230 1.388 . S
C232 C233 1.366 . S
C233 C232 1.366 . S
C233 C234 1.414 . S
C233 C236 1.499 . S
C234 H214 0.950 . S
C234 C233 1.414 . S
C234 C235 1.374 . S
C235 H215 0.950 . S
C235 C231 1.385 . S
C235 C234 1.374 . S
C236 C233 1.499 . S
C236 C237 1.373 . S
C236 C238 1.389 . S
C237 H216 0.950 . S
C237 C236 1.373 . S
C237 C253 1.377 1_564 S
C238 C236 1.389 . S
C238 C239 1.524 . S
C238 C252 1.377 1_564 S
C239 C238 1.524 . S
C239 C240 1.397 . S
C239 C244 1.363 . S
C240 H217 0.950 . S
C240 C239 1.397 . S
C240 C241 1.334 . S
C241 H218 0.950 . S
C241 C240 1.334 . S
C241 C242 1.287 . S
C242 C241 1.287 . S
C242 C243 1.524 . S
C242 H261 0.913 . S
C243 H219 0.950 . S
C243 C242 1.524 . S
C243 C244 1.415 . S
C244 H220 0.950 1_565 S
C244 C239 1.363 . S
C244 C243 1.415 . S
C245 H221 0.951 . S
C245 C246 1.366 . S
C245 C247 1.388 . S
C246 C245 1.366 . S
C246 C250 1.385 . S
C247 H222 0.951 . S
C247 C245 1.388 . S
C247 C248 1.366 . S
C248 C247 1.366 . S
C248 C249 1.414 . S
C248 C251 1.499 . S
C249 H223 0.950 . S
C249 C248 1.414 . S
C249 C250 1.374 . S
C250 H224 0.950 . S
C250 C246 1.385 . S
C250 C249 1.374 . S
C251 C248 1.499 . S
C251 C252 1.373 . S
C251 C253 1.389 . S
C252 H225 0.950 . S
C252 C238 1.377 1_546 S
C252 C251 1.373 . S
C253 C237 1.377 1_546 S
C253 C251 1.389 . S
C253 C254 1.524 . S
C254 C253 1.524 . S
C254 C255 1.397 . S
C254 C259 1.363 . S
C255 H226 0.950 . S
C255 C254 1.397 . S
C255 C256 1.334 . S
C256 H227 0.950 . S
C256 C255 1.334 . S
C256 C257 1.287 . S
C257 C256 1.287 . S
C257 C258 1.524 . S
C257 H260 0.999 . S
C258 H228 0.950 . S
C258 C257 1.524 . S
C258 C259 1.415 . S
C259 H229 0.950 1_545 S
C259 C254 1.363 . S
C259 C258 1.415 . S
H260 C257 0.999 . S
H261 C242 0.913 . S
H262 C280 0.951 . S
H263 C282 0.951 . S
H264 C284 0.950 . S
H265 C285 0.950 . S
H266 C287 0.950 . S
H267 C290 0.950 . S
H268 C291 0.950 . S
H269 C293 0.950 1_455 S
H270 C294 0.950 . S
H271 C295 0.951 . S
H272 C297 0.951 . S
H273 C299 0.950 . S
H274 C300 0.950 . S
H275 C302 0.950 . S
H276 C305 0.950 . S
H277 C306 0.950 . S
H278 C308 0.950 1_655 S
H279 C309 0.950 . S
C280 H262 0.951 . S
C280 C281 1.366 1_565 S
C280 C282 1.388 . S
C281 C280 1.366 1_545 S
C281 C285 1.385 . S
C282 H263 0.951 . S
C282 C280 1.388 . S
C282 C283 1.366 1_565 S
C283 C282 1.366 1_545 S
C283 C284 1.414 . S
C283 C286 1.499 . S
C284 H264 0.950 . S
C284 C283 1.414 . S
C284 C285 1.374 . S
C285 H265 0.950 . S
C285 C281 1.385 . S
C285 C284 1.374 . S
C286 C283 1.499 . S
C286 C287 1.373 . S
C286 C288 1.389 1_545 S
C287 H266 0.950 . S
C287 C286 1.373 . S
C287 C303 1.377 1_655 S
C288 C286 1.389 1_565 S
C288 C289 1.524 . S
C288 C302 1.377 1_655 S
C289 C288 1.524 . S
C289 C290 1.397 . S
C289 C294 1.363 1_655 S
C290 H267 0.950 . S
C290 C289 1.397 . S
C290 C291 1.334 . S
C291 H268 0.950 . S
C291 C290 1.334 . S
C291 C292 1.287 . S
C292 C291 1.287 . S
C292 C293 1.524 . S
C292 H311 0.913 . S
C293 H269 0.950 1_655 S
C293 C292 1.524 . S
C293 C294 1.415 1_655 S
C294 H270 0.950 . S
C294 C289 1.363 1_455 S
C294 C293 1.415 1_455 S
C295 H271 0.951 . S
C295 C296 1.366 1_545 S
C295 C297 1.388 . S
C296 C295 1.366 1_565 S
C296 C300 1.385 . S
C297 H272 0.951 . S
C297 C295 1.388 . S
C297 C298 1.366 1_545 S
C298 C297 1.366 1_565 S
C298 C299 1.414 . S
C298 C301 1.499 . S
C299 H273 0.950 . S
C299 C298 1.414 . S
C299 C300 1.374 . S
C300 H274 0.950 . S
C300 C296 1.385 . S
C300 C299 1.374 . S
C301 C298 1.499 . S
C301 C302 1.373 . S
C301 C303 1.389 1_565 S
C302 H275 0.950 . S
C302 C288 1.377 1_455 S
C302 C301 1.373 . S
C303 C287 1.377 1_455 S
C303 C301 1.389 1_545 S
C303 C304 1.524 . S
C304 C303 1.524 . S
C304 C305 1.397 . S
C304 C309 1.363 1_455 S
C305 H276 0.950 . S
C305 C304 1.397 . S
C305 C306 1.334 . S
C306 H277 0.950 . S
C306 C305 1.334 . S
C306 C307 1.287 . S
C307 C306 1.287 . S
C307 C308 1.524 . S
C307 H310 0.999 . S
C308 H278 0.950 1_455 S
C308 C307 1.524 . S
C308 C309 1.415 1_455 S
C309 H279 0.950 . S
C309 C304 1.363 1_655 S
C309 C308 1.415 1_655 S
H310 C307 0.999 . S
H311 C292 0.913 . S
H312 C330 0.951 . S
H313 C332 0.951 . S
H314 C334 0.950 . S
H315 C335 0.950 . S
H316 C337 0.950 . S
H317 C340 0.950 . S
H318 C341 0.950 . S
H319 C343 0.950 . S
H320 C344 0.950 . S
H321 C345 0.951 . S
H322 C347 0.951 . S
H323 C349 0.950 . S
H324 C350 0.950 . S
H325 C352 0.950 . S
H326 C355 0.950 . S
H327 C356 0.950 . S
H328 C358 0.950 . S
H329 C359 0.950 . S
C330 H312 0.951 . S
C330 C331 1.366 . S
C330 C332 1.388 . S
C331 C330 1.366 . S
C331 C335 1.385 . S
C332 H313 0.951 . S
C332 C330 1.388 . S
C332 C333 1.366 . S
C333 C332 1.366 . S
C333 C334 1.414 . S
C333 C336 1.499 . S
C334 H314 0.950 . S
C334 C333 1.414 . S
C334 C335 1.374 . S
C335 H315 0.950 . S
C335 C331 1.385 . S
C335 C334 1.374 . S
C336 C333 1.499 . S
C336 C337 1.373 . S
C336 C338 1.389 . S
C337 H316 0.950 . S
C337 C336 1.373 . S
C337 C353 1.377 . S
C338 C336 1.389 . S
C338 C339 1.524 . S
C338 C352 1.377 . S
C339 C338 1.524 . S
C339 C340 1.397 . S
C339 C344 1.363 . S
C340 H317 0.950 . S
C340 C339 1.397 . S
C340 C341 1.334 . S
C341 H318 0.950 . S
C341 C340 1.334 . S
C341 C342 1.287 . S
C342 C341 1.287 . S
C342 C343 1.524 . S
C342 H361 0.913 . S
C343 H319 0.950 . S
C343 C342 1.524 . S
C343 C344 1.415 . S
C344 H320 0.950 . S
C344 C339 1.363 . S
C344 C343 1.415 . S
C345 H321 0.951 . S
C345 C346 1.366 . S
C345 C347 1.388 . S
C346 C345 1.366 . S
C346 C350 1.385 . S
C347 H322 0.951 . S
C347 C345 1.388 . S
C347 C348 1.366 . S
C348 C347 1.366 . S
C348 C349 1.414 . S
C348 C351 1.499 . S
C349 H323 0.950 . S
C349 C348 1.414 . S
C349 C350 1.374 . S
C350 H324 0.950 . S
C350 C346 1.385 . S
C350 C349 1.374 . S
C351 C348 1.499 . S
C351 C352 1.373 . S
C351 C353 1.389 . S
C352 H325 0.950 . S
C352 C338 1.377 . S
C352 C351 1.373 . S
C353 C337 1.377 . S
C353 C351 1.389 . S
C353 C354 1.524 . S
C354 C353 1.524 . S
C354 C355 1.397 . S
C354 C359 1.363 . S
C355 H326 0.950 . S
C355 C354 1.397 . S
C355 C356 1.334 . S
C356 H327 0.950 . S
C356 C355 1.334 . S
C356 C357 1.287 . S
C357 C356 1.287 . S
C357 C358 1.524 . S
C357 H360 0.999 . S
C358 H328 0.950 . S
C358 C357 1.524 . S
C358 C359 1.415 . S
C359 H329 0.950 . S
C359 C354 1.363 . S
C359 C358 1.415 . S
H360 C357 0.999 . S
H361 C342 0.913 . S
H362 C380 0.951 . S
H363 C382 0.951 . S
H364 C384 0.950 . S
H365 C385 0.950 . S
H366 C387 0.950 . S
H367 C390 0.950 . S
H368 C391 0.950 . S
H369 C393 0.950 . S
H370 C394 0.950 . S
H371 C395 0.951 . S
H372 C397 0.951 . S
H373 C399 0.950 . S
H374 C400 0.950 . S
H375 C402 0.950 . S
H376 C405 0.950 . S
H377 C406 0.950 . S
H378 C408 0.950 . S
H379 C409 0.950 . S
C380 H362 0.951 . S
C380 C381 1.366 . S
C380 C382 1.388 . S
C381 C380 1.366 . S
C381 C385 1.385 . S
C382 H363 0.951 . S
C382 C380 1.388 . S
C382 C383 1.366 . S
C383 C382 1.366 . S
C383 C384 1.414 . S
C383 C386 1.499 . S
C384 H364 0.950 . S
C384 C383 1.414 . S
C384 C385 1.374 . S
C385 H365 0.950 . S
C385 C381 1.385 . S
C385 C384 1.374 . S
C386 C383 1.499 . S
C386 C387 1.373 . S
C386 C388 1.389 . S
C387 H366 0.950 . S
C387 C386 1.373 . S
C387 C403 1.377 . S
C388 C386 1.389 . S
C388 C389 1.524 . S
C388 C402 1.377 . S
C389 C388 1.524 . S
C389 C390 1.397 . S
C389 C394 1.363 . S
C390 H367 0.950 . S
C390 C389 1.397 . S
C390 C391 1.334 . S
C391 H368 0.950 . S
C391 C390 1.334 . S
C391 C392 1.287 . S
C392 C391 1.287 . S
C392 C393 1.524 . S
C392 H411 0.913 . S
C393 H369 0.950 . S
C393 C392 1.524 . S
C393 C394 1.415 . S
C394 H370 0.950 . S
C394 C389 1.363 . S
C394 C393 1.415 . S
C395 H371 0.951 . S
C395 C396 1.366 . S
C395 C397 1.388 . S
C396 C395 1.366 . S
C396 C400 1.385 . S
C397 H372 0.951 . S
C397 C395 1.388 . S
C397 C398 1.366 . S
C398 C397 1.366 . S
C398 C399 1.414 . S
C398 C401 1.499 . S
C399 H373 0.950 . S
C399 C398 1.414 . S
C399 C400 1.374 . S
C400 H374 0.950 . S
C400 C396 1.385 . S
C400 C399 1.374 . S
C401 C398 1.499 . S
C401 C402 1.373 . S
C401 C403 1.389 . S
C402 H375 0.950 . S
C402 C388 1.377 . S
C402 C401 1.373 . S
C403 C387 1.377 . S
C403 C401 1.389 . S
C403 C404 1.524 . S
C404 C403 1.524 . S
C404 C405 1.397 . S
C404 C409 1.363 . S
C405 H376 0.950 . S
C405 C404 1.397 . S
C405 C406 1.334 . S
C406 H377 0.950 . S
C406 C405 1.334 . S
C406 C407 1.287 . S
C407 C406 1.287 . S
C407 C408 1.524 . S
C407 H410 0.999 . S
C408 H378 0.950 . S
C408 C407 1.524 . S
C408 C409 1.415 . S
C409 H379 0.950 . S
C409 C404 1.363 . S
C409 C408 1.415 . S
H410 C407 0.999 . S
H411 C392 0.913 . S
H412 C430 0.951 . S
H413 C432 0.951 . S
H414 C434 0.950 . S
H415 C435 0.950 . S
H416 C437 0.950 . S
H417 C440 0.950 . S
H418 C441 0.950 . S
H419 C443 0.950 . S
H420 C444 0.950 . S
H421 C445 0.951 . S
H422 C447 0.951 . S
H423 C449 0.950 . S
H424 C450 0.950 . S
H425 C452 0.950 . S
H426 C455 0.950 . S
H427 C456 0.950 . S
H428 C458 0.950 . S
H429 C459 0.950 . S
C430 H412 0.951 . S
C430 C431 1.366 . S
C430 C432 1.388 . S
C431 C430 1.366 . S
C431 C435 1.385 . S
C432 H413 0.951 . S
C432 C430 1.388 . S
C432 C433 1.366 . S
C433 C432 1.366 . S
C433 C434 1.414 . S
C433 C436 1.499 . S
C434 H414 0.950 . S
C434 C433 1.414 . S
C434 C435 1.374 . S
C435 H415 0.950 . S
C435 C431 1.385 . S
C435 C434 1.374 . S
C436 C433 1.499 . S
C436 C437 1.373 . S
C436 C438 1.389 . S
C437 H416 0.950 . S
C437 C436 1.373 . S
C437 C453 1.377 . S
C438 C436 1.389 . S
C438 C439 1.524 . S
C438 C452 1.377 . S
C439 C438 1.524 . S
C439 C440 1.397 . S
C439 C444 1.363 . S
C440 H417 0.950 . S
C440 C439 1.397 . S
C440 C441 1.334 . S
C441 H418 0.950 . S
C441 C440 1.334 . S
C441 C442 1.287 . S
C442 C441 1.287 . S
C442 C443 1.524 . S
C442 H461 0.913 . S
C443 H419 0.950 . S
C443 C442 1.524 . S
C443 C444 1.415 . S
C444 H420 0.950 . S
C444 C439 1.363 . S
C444 C443 1.415 . S
C445 H421 0.951 . S
C445 C446 1.366 . S
C445 C447 1.388 . S
C446 C445 1.366 . S
C446 C450 1.385 . S
C447 H422 0.951 . S
C447 C445 1.388 . S
C447 C448 1.366 . S
C448 C447 1.366 . S
C448 C449 1.414 . S
C448 C451 1.499 . S
C449 H423 0.950 . S
C449 C448 1.414 . S
C449 C450 1.374 . S
C450 H424 0.950 . S
C450 C446 1.385 . S
C450 C449 1.374 . S
C451 C448 1.499 . S
C451 C452 1.373 . S
C451 C453 1.389 . S
C452 H425 0.950 . S
C452 C438 1.377 . S
C452 C451 1.373 . S
C453 C437 1.377 . S
C453 C451 1.389 . S
C453 C454 1.524 . S
C454 C453 1.524 . S
C454 C455 1.397 . S
C454 C459 1.363 . S
C455 H426 0.950 . S
C455 C454 1.397 . S
C455 C456 1.334 . S
C456 H427 0.950 . S
C456 C455 1.334 . S
C456 C457 1.287 . S
C457 C456 1.287 . S
C457 C458 1.524 . S
C457 H460 0.999 . S
C458 H428 0.950 . S
C458 C457 1.524 . S
C458 C459 1.415 . S
C459 H429 0.950 . S
C459 C454 1.363 . S
C459 C458 1.415 . S
H460 C457 0.999 . S
H461 C442 0.913 . S
H462 C480 0.951 . S
H463 C482 0.951 . S
H464 C484 0.950 . S
H465 C485 0.950 . S
H466 C487 0.950 . S
H467 C490 0.950 . S
H468 C491 0.950 . S
H469 C493 0.950 . S
H470 C494 0.950 . S
H471 C495 0.951 . S
H472 C497 0.951 . S
H473 C499 0.950 . S
H474 C500 0.950 . S
H475 C502 0.950 . S
H476 C505 0.950 . S
H477 C506 0.950 . S
H478 C508 0.950 . S
H479 C509 0.950 . S
C480 H462 0.951 . S
C480 C481 1.366 . S
C480 C482 1.388 . S
C481 C480 1.366 . S
C481 C485 1.385 . S
C482 H463 0.951 . S
C482 C480 1.388 . S
C482 C483 1.366 . S
C483 C482 1.366 . S
C483 C484 1.414 . S
C483 C486 1.499 . S
C484 H464 0.950 . S
C484 C483 1.414 . S
C484 C485 1.374 . S
C485 H465 0.950 . S
C485 C481 1.385 . S
C485 C484 1.374 . S
C486 C483 1.499 . S
C486 C487 1.373 . S
C486 C488 1.389 . S
C487 H466 0.950 . S
C487 C486 1.373 . S
C487 C503 1.377 . S
C488 C486 1.389 . S
C488 C489 1.524 . S
C488 C502 1.377 . S
C489 C488 1.524 . S
C489 C490 1.397 . S
C489 C494 1.363 . S
C490 H467 0.950 . S
C490 C489 1.397 . S
C490 C491 1.334 . S
C491 H468 0.950 . S
C491 C490 1.334 . S
C491 C492 1.287 . S
C492 C491 1.287 . S
C492 C493 1.524 . S
C492 H511 0.913 . S
C493 H469 0.950 . S
C493 C492 1.524 . S
C493 C494 1.415 . S
C494 H470 0.950 . S
C494 C489 1.363 . S
C494 C493 1.415 . S
C495 H471 0.951 . S
C495 C496 1.366 . S
C495 C497 1.388 . S
C496 C495 1.366 . S
C496 C500 1.385 . S
C497 H472 0.951 . S
C497 C495 1.388 . S
C497 C498 1.366 . S
C498 C497 1.366 . S
C498 C499 1.414 . S
C498 C501 1.499 . S
C499 H473 0.950 . S
C499 C498 1.414 . S
C499 C500 1.374 . S
C500 H474 0.950 . S
C500 C496 1.385 . S
C500 C499 1.374 . S
C501 C498 1.499 . S
C501 C502 1.373 . S
C501 C503 1.389 . S
C502 H475 0.950 . S
C502 C488 1.377 . S
C502 C501 1.373 . S
C503 C487 1.377 . S
C503 C501 1.389 . S
C503 C504 1.524 . S
C504 C503 1.524 . S
C504 C505 1.397 . S
C504 C509 1.363 . S
C505 H476 0.950 . S
C505 C504 1.397 . S
C505 C506 1.334 . S
C506 H477 0.950 . S
C506 C505 1.334 . S
C506 C507 1.287 . S
C507 C506 1.287 . S
C507 C508 1.524 . S
C507 H510 0.999 . S
C508 H478 0.950 . S
C508 C507 1.524 . S
C508 C509 1.415 . S
C509 H479 0.950 . S
C509 C504 1.363 . S
C509 C508 1.415 . S
H510 C507 0.999 . S
H511 C492 0.913 . S
H512 C530 0.951 . S
H513 C532 0.951 . S
H514 C534 0.950 . S
H515 C535 0.950 . S
H516 C537 0.950 . S
H517 C540 0.950 . S
H518 C541 0.950 . S
H519 C543 0.950 . S
H520 C544 0.950 . S
H521 C545 0.951 . S
H522 C547 0.951 . S
H523 C549 0.950 . S
H524 C550 0.950 . S
H525 C552 0.950 . S
H526 C555 0.950 . S
H527 C556 0.950 . S
H528 C558 0.950 . S
H529 C559 0.950 . S
C530 H512 0.951 . S
C530 C531 1.366 . S
C530 C532 1.388 . S
C531 C530 1.366 . S
C531 C535 1.385 . S
C532 H513 0.951 . S
C532 C530 1.388 . S
C532 C533 1.366 . S
C533 C532 1.366 . S
C533 C534 1.414 . S
C533 C536 1.499 . S
C534 H514 0.950 . S
C534 C533 1.414 . S
C534 C535 1.374 . S
C535 H515 0.950 . S
C535 C531 1.385 . S
C535 C534 1.374 . S
C536 C533 1.499 . S
C536 C537 1.373 . S
C536 C538 1.389 . S
C537 H516 0.950 . S
C537 C536 1.373 . S
C537 C553 1.377 . S
C538 C536 1.389 . S
C538 C539 1.524 . S
C538 C552 1.377 . S
C539 C538 1.524 . S
C539 C540 1.397 . S
C539 C544 1.363 . S
C540 H517 0.950 . S
C540 C539 1.397 . S
C540 C541 1.334 . S
C541 H518 0.950 . S
C541 C540 1.334 . S
C541 C542 1.287 . S
C542 C541 1.287 . S
C542 C543 1.524 . S
C542 H561 0.913 . S
C543 H519 0.950 . S
C543 C542 1.524 . S
C543 C544 1.415 . S
C544 H520 0.950 . S
C544 C539 1.363 . S
C544 C543 1.415 . S
C545 H521 0.951 . S
C545 C546 1.366 . S
C545 C547 1.388 . S
C546 C545 1.366 . S
C546 C550 1.385 . S
C547 H522 0.951 . S
C547 C545 1.388 . S
C547 C548 1.366 . S
C548 C547 1.366 . S
C548 C549 1.414 . S
C548 C551 1.499 . S
C549 H523 0.950 . S
C549 C548 1.414 . S
C549 C550 1.374 . S
C550 H524 0.950 . S
C550 C546 1.385 . S
C550 C549 1.374 . S
C551 C548 1.499 . S
C551 C552 1.373 . S
C551 C553 1.389 . S
C552 H525 0.950 . S
C552 C538 1.377 . S
C552 C551 1.373 . S
C553 C537 1.377 . S
C553 C551 1.389 . S
C553 C554 1.524 . S
C554 C553 1.524 . S
C554 C555 1.397 . S
C554 C559 1.363 . S
C555 H526 0.950 . S
C555 C554 1.397 . S
C555 C556 1.334 . S
C556 H527 0.950 . S
C556 C555 1.334 . S
C556 C557 1.287 . S
C557 C556 1.287 . S
C557 C558 1.524 . S
C557 H560 0.999 . S
C558 H528 0.950 . S
C558 C557 1.524 . S
C558 C559 1.415 . S
C559 H529 0.950 . S
C559 C554 1.363 . S
C559 C558 1.415 . S
H560 C557 0.999 . S
H561 C542 0.913 . S
H562 C580 0.951 . S
H563 C582 0.951 . S
H564 C584 0.950 . S
H565 C585 0.950 . S
H566 C587 0.950 . S
H567 C590 0.950 . S
H568 C591 0.950 . S
H569 C593 0.950 . S
H570 C594 0.950 . S
H571 C595 0.951 . S
H572 C597 0.951 . S
H573 C599 0.950 . S
H574 C600 0.950 . S
H575 C602 0.950 . S
H576 C605 0.950 . S
H577 C606 0.950 . S
H578 C608 0.950 . S
H579 C609 0.950 . S
C580 H562 0.951 . S
C580 C581 1.366 . S
C580 C582 1.388 . S
C581 C580 1.366 . S
C581 C585 1.385 . S
C582 H563 0.951 . S
C582 C580 1.388 . S
C582 C583 1.366 . S
C583 C582 1.366 . S
C583 C584 1.414 . S
C583 C586 1.499 . S
C584 H564 0.950 . S
C584 C583 1.414 . S
C584 C585 1.374 . S
C585 H565 0.950 . S
C585 C581 1.385 . S
C585 C584 1.374 . S
C586 C583 1.499 . S
C586 C587 1.373 . S
C586 C588 1.389 . S
C587 H566 0.950 . S
C587 C586 1.373 . S
C587 C603 1.377 . S
C588 C586 1.389 . S
C588 C589 1.524 . S
C588 C602 1.377 . S
C589 C588 1.524 . S
C589 C590 1.397 . S
C589 C594 1.363 . S
C590 H567 0.950 . S
C590 C589 1.397 . S
C590 C591 1.334 . S
C591 H568 0.950 . S
C591 C590 1.334 . S
C591 C592 1.287 . S
C592 C591 1.287 . S
C592 C593 1.524 . S
C592 H611 0.913 . S
C593 H569 0.950 . S
C593 C592 1.524 . S
C593 C594 1.415 . S
C594 H570 0.950 . S
C594 C589 1.363 . S
C594 C593 1.415 . S
C595 H571 0.951 . S
C595 C596 1.366 . S
C595 C597 1.388 . S
C596 C595 1.366 . S
C596 C600 1.385 . S
C597 H572 0.951 . S
C597 C595 1.388 . S
C597 C598 1.366 . S
C598 C597 1.366 . S
C598 C599 1.414 . S
C598 C601 1.499 . S
C599 H573 0.950 . S
C599 C598 1.414 . S
C599 C600 1.374 . S
C600 H574 0.950 . S
C600 C596 1.385 . S
C600 C599 1.374 . S
C601 C598 1.499 . S
C601 C602 1.373 . S
C601 C603 1.389 . S
C602 H575 0.950 . S
C602 C588 1.377 . S
C602 C601 1.373 . S
C603 C587 1.377 . S
C603 C601 1.389 . S
C603 C604 1.524 . S
C604 C603 1.524 . S
C604 C605 1.397 . S
C604 C609 1.363 . S
C605 H576 0.950 . S
C605 C604 1.397 . S
C605 C606 1.334 . S
C606 H577 0.950 . S
C606 C605 1.334 . S
C606 C607 1.287 . S
C607 C606 1.287 . S
C607 C608 1.524 . S
C607 H610 0.999 . S
C608 H578 0.950 . S
C608 C607 1.524 . S
C608 C609 1.415 . S
C609 H579 0.950 . S
C609 C604 1.363 . S
C609 C608 1.415 . S
H610 C607 0.999 . S
H611 C592 0.913 . S
H612 C630 0.951 . S
H613 C632 0.951 . S
H614 C634 0.950 . S
H615 C635 0.950 . S
H616 C637 0.950 . S
H617 C640 0.950 . S
H618 C641 0.950 . S
H619 C643 0.950 . S
H620 C644 0.950 . S
H621 C645 0.951 . S
H622 C647 0.951 . S
H623 C649 0.950 1_545 S
H624 C650 0.950 . S
H625 C652 0.950 . S
H626 C655 0.950 . S
H627 C656 0.950 1_545 S
H628 C658 0.950 . S
H629 C659 0.950 . S
C630 H612 0.951 . S
C630 C631 1.366 . S
C630 C632 1.388 . S
C631 C630 1.366 . S
C631 C635 1.385 . S
C632 H613 0.951 . S
C632 C630 1.388 . S
C632 C633 1.366 . S
C633 C632 1.366 . S
C633 C634 1.414 . S
C633 C636 1.499 . S
C634 H614 0.950 . S
C634 C633 1.414 . S
C634 C635 1.374 . S
C635 H615 0.950 . S
C635 C631 1.385 . S
C635 C634 1.374 . S
C636 C633 1.499 . S
C636 C637 1.373 . S
C636 C638 1.389 . S
C637 H616 0.950 . S
C637 C636 1.373 . S
C637 C653 1.377 . S
C638 C636 1.389 . S
C638 C639 1.524 . S
C638 C652 1.377 . S
C639 C638 1.524 . S
C639 C640 1.397 . S
C639 C644 1.363 . S
C640 H617 0.950 . S
C640 C639 1.397 . S
C640 C641 1.334 . S
C641 H618 0.950 . S
C641 C640 1.334 . S
C641 C642 1.287 . S
C642 C641 1.287 . S
C642 C643 1.524 . S
C642 H661 0.913 . S
C643 H619 0.950 . S
C643 C642 1.524 . S
C643 C644 1.415 . S
C644 H620 0.950 . S
C644 C639 1.363 . S
C644 C643 1.415 . S
C645 H621 0.951 . S
C645 C646 1.366 . S
C645 C647 1.388 . S
C646 C645 1.366 . S
C646 C650 1.385 1_565 S
C647 H622 0.951 . S
C647 C645 1.388 . S
C647 C648 1.366 . S
C648 C647 1.366 . S
C648 C649 1.414 . S
C648 C651 1.499 . S
C649 H623 0.950 1_565 S
C649 C648 1.414 . S
C649 C650 1.374 1_565 S
C650 H624 0.950 . S
C650 C646 1.385 1_545 S
C650 C649 1.374 1_545 S
C651 C648 1.499 . S
C651 C652 1.373 . S
C651 C653 1.389 . S
C652 H625 0.950 . S
C652 C638 1.377 . S
C652 C651 1.373 . S
C653 C637 1.377 . S
C653 C651 1.389 . S
C653 C654 1.524 . S
C654 C653 1.524 . S
C654 C655 1.397 . S
C654 C659 1.363 . S
C655 H626 0.950 . S
C655 C654 1.397 . S
C655 C656 1.334 . S
C656 H627 0.950 1_565 S
C656 C655 1.334 . S
C656 C657 1.287 . S
C657 C656 1.287 . S
C657 C658 1.524 . S
C657 H660 0.999 . S
C658 H628 0.950 . S
C658 C657 1.524 . S
C658 C659 1.415 . S
C659 H629 0.950 . S
C659 C654 1.363 . S
C659 C658 1.415 . S
H660 C657 0.999 . S
H661 C642 0.913 . S
H662 C680 0.951 1_655 S
H663 C682 0.951 . S
H664 C684 0.950 . S
H665 C685 0.950 . S
H666 C687 0.950 . S
H667 C690 0.950 . S
H668 C691 0.950 . S
H669 C693 0.950 . S
H670 C694 0.950 . S
H671 C695 0.951 . S
H672 C697 0.951 . S
H673 C699 0.950 . S
H674 C700 0.950 . S
H675 C702 0.950 . S
H676 C705 0.950 . S
H677 C706 0.950 . S
H678 C708 0.950 . S
H679 C709 0.950 . S
C680 H662 0.951 1_455 S
C680 C681 1.366 . S
C680 C682 1.388 . S
C681 C680 1.366 . S
C681 C685 1.385 . S
C682 H663 0.951 . S
C682 C680 1.388 . S
C682 C683 1.366 . S
C683 C682 1.366 . S
C683 C684 1.414 . S
C683 C686 1.499 . S
C684 H664 0.950 . S
C684 C683 1.414 . S
C684 C685 1.374 . S
C685 H665 0.950 . S
C685 C681 1.385 . S
C685 C684 1.374 . S
C686 C683 1.499 . S
C686 C687 1.373 . S
C686 C688 1.389 . S
C687 H666 0.950 . S
C687 C686 1.373 . S
C687 C703 1.377 . S
C688 C686 1.389 . S
C688 C689 1.524 1_455 S
C688 C702 1.377 . S
C689 C688 1.524 1_655 S
C689 C690 1.397 . S
C689 C694 1.363 . S
C690 H667 0.950 . S
C690 C689 1.397 . S
C690 C691 1.334 . S
C691 H668 0.950 . S
C691 C690 1.334 . S
C691 C692 1.287 . S
C692 C691 1.287 . S
C692 C693 1.524 . S
C692 H711 0.913 . S
C693 H669 0.950 . S
C693 C692 1.524 . S
C693 C694 1.415 . S
C694 H670 0.950 . S
C694 C689 1.363 . S
C694 C693 1.415 . S
C695 H671 0.951 . S
C695 C696 1.366 . S
C695 C697 1.388 . S
C696 C695 1.366 . S
C696 C700 1.385 . S
C697 H672 0.951 . S
C697 C695 1.388 . S
C697 C698 1.366 . S
C698 C697 1.366 . S
C698 C699 1.414 . S
C698 C701 1.499 . S
C699 H673 0.950 . S
C699 C698 1.414 . S
C699 C700 1.374 . S
C700 H674 0.950 . S
C700 C696 1.385 . S
C700 C699 1.374 . S
C701 C698 1.499 . S
C701 C702 1.373 . S
C701 C703 1.389 . S
C702 H675 0.950 . S
C702 C688 1.377 . S
C702 C701 1.373 . S
C703 C687 1.377 . S
C703 C701 1.389 . S
C703 C704 1.524 . S
C704 C703 1.524 . S
C704 C705 1.397 . S
C704 C709 1.363 . S
C705 H676 0.950 . S
C705 C704 1.397 . S
C705 C706 1.334 . S
C706 H677 0.950 . S
C706 C705 1.334 . S
C706 C707 1.287 . S
C707 C706 1.287 . S
C707 C708 1.524 . S
C707 H710 0.999 . S
C708 H678 0.950 . S
C708 C707 1.524 . S
C708 C709 1.415 . S
C709 H679 0.950 . S
C709 C704 1.363 . S
C709 C708 1.415 . S
H710 C707 0.999 . S
H711 C692 0.913 . S
H712 C730 0.951 . S
H713 C732 0.951 . S
H714 C734 0.950 . S
H715 C735 0.950 . S
H716 C737 0.950 . S
H717 C740 0.950 . S
H718 C741 0.950 . S
H719 C743 0.950 . S
H720 C744 0.950 . S
H721 C745 0.951 . S
H722 C747 0.951 . S
H723 C749 0.950 . S
H724 C750 0.950 . S
H725 C752 0.950 . S
H726 C755 0.950 . S
H727 C756 0.950 . S
H728 C758 0.950 . S
H729 C759 0.950 . S
C730 H712 0.951 . S
C730 C731 1.366 . S
C730 C732 1.388 . S
C731 C730 1.366 . S
C731 C735 1.385 . S
C732 H713 0.951 . S
C732 C730 1.388 . S
C732 C733 1.366 . S
C733 C732 1.366 . S
C733 C734 1.414 . S
C733 C736 1.499 . S
C734 H714 0.950 . S
C734 C733 1.414 . S
C734 C735 1.374 . S
C735 H715 0.950 . S
C735 C731 1.385 . S
C735 C734 1.374 . S
C736 C733 1.499 . S
C736 C737 1.373 . S
C736 C738 1.389 . S
C737 H716 0.950 . S
C737 C736 1.373 . S
C737 C753 1.377 . S
C738 C736 1.389 . S
C738 C739 1.524 . S
C738 C752 1.377 . S
C739 C738 1.524 . S
C739 C740 1.397 . S
C739 C744 1.363 . S
C740 H717 0.950 . S
C740 C739 1.397 . S
C740 C741 1.334 . S
C741 H718 0.950 . S
C741 C740 1.334 . S
C741 C742 1.287 . S
C742 C741 1.287 . S
C742 C743 1.524 . S
C742 H761 0.913 . S
C743 H719 0.950 . S
C743 C742 1.524 . S
C743 C744 1.415 . S
C744 H720 0.950 . S
C744 C739 1.363 . S
C744 C743 1.415 . S
C745 H721 0.951 . S
C745 C746 1.366 . S
C745 C747 1.388 . S
C746 C745 1.366 . S
C746 C750 1.385 . S
C747 H722 0.951 . S
C747 C745 1.388 . S
C747 C748 1.366 . S
C748 C747 1.366 . S
C748 C749 1.414 . S
C748 C751 1.499 . S
C749 H723 0.950 . S
C749 C748 1.414 . S
C749 C750 1.374 . S
C750 H724 0.950 . S
C750 C746 1.385 . S
C750 C749 1.374 . S
C751 C748 1.499 . S
C751 C752 1.373 . S
C751 C753 1.389 . S
C752 H725 0.950 . S
C752 C738 1.377 . S
C752 C751 1.373 . S
C753 C737 1.377 . S
C753 C751 1.389 . S
C753 C754 1.524 . S
C754 C753 1.524 . S
C754 C755 1.397 . S
C754 C759 1.363 . S
C755 H726 0.950 . S
C755 C754 1.397 . S
C755 C756 1.334 . S
C756 H727 0.950 . S
C756 C755 1.334 . S
C756 C757 1.287 . S
C757 C756 1.287 . S
C757 C758 1.524 . S
C757 H760 0.999 . S
C758 H728 0.950 . S
C758 C757 1.524 . S
C758 C759 1.415 . S
C759 H729 0.950 . S
C759 C754 1.363 . S
C759 C758 1.415 . S
H760 C757 0.999 . S
H761 C742 0.913 . S
H762 C780 0.951 . S
H763 C782 0.951 . S
H764 C784 0.950 . S
H765 C785 0.950 . S
H766 C787 0.950 . S
H767 C790 0.950 . S
H768 C791 0.950 . S
H769 C793 0.950 . S
H770 C794 0.950 . S
H771 C795 0.951 . S
H772 C797 0.951 . S
H773 C799 0.950 . S
H774 C800 0.950 . S
H775 C802 0.950 . S
H776 C805 0.950 . S
H777 C806 0.950 . S
H778 C808 0.950 . S
H779 C809 0.950 . S
C780 H762 0.951 . S
C780 C781 1.366 . S
C780 C782 1.388 . S
C781 C780 1.366 . S
C781 C785 1.385 . S
C782 H763 0.951 . S
C782 C780 1.388 . S
C782 C783 1.366 . S
C783 C782 1.366 . S
C783 C784 1.414 . S
C783 C786 1.499 . S
C784 H764 0.950 . S
C784 C783 1.414 . S
C784 C785 1.374 . S
C785 H765 0.950 . S
C785 C781 1.385 . S
C785 C784 1.374 . S
C786 C783 1.499 . S
C786 C787 1.373 . S
C786 C788 1.389 . S
C787 H766 0.950 . S
C787 C786 1.373 . S
C787 C803 1.377 . S
C788 C786 1.389 . S
C788 C789 1.524 . S
C788 C802 1.377 . S
C789 C788 1.524 . S
C789 C790 1.397 . S
C789 C794 1.363 . S
C790 H767 0.950 . S
C790 C789 1.397 . S
C790 C791 1.334 . S
C791 H768 0.950 . S
C791 C790 1.334 . S
C791 C792 1.287 . S
C792 C791 1.287 . S
C792 C793 1.524 . S
C792 H811 0.913 . S
C793 H769 0.950 . S
C793 C792 1.524 . S
C793 C794 1.415 . S
C794 H770 0.950 . S
C794 C789 1.363 . S
C794 C793 1.415 . S
C795 H771 0.951 . S
C795 C796 1.366 . S
C795 C797 1.388 . S
C796 C795 1.366 . S
C796 C800 1.385 . S
C797 H772 0.951 . S
C797 C795 1.388 . S
C797 C798 1.366 . S
C798 C797 1.366 . S
C798 C799 1.414 . S
C798 C801 1.499 . S
C799 H773 0.950 . S
C799 C798 1.414 . S
C799 C800 1.374 . S
C800 H774 0.950 . S
C800 C796 1.385 . S
C800 C799 1.374 . S
C801 C798 1.499 . S
C801 C802 1.373 . S
C801 C803 1.389 . S
C802 H775 0.950 . S
C802 C788 1.377 . S
C802 C801 1.373 . S
C803 C787 1.377 . S
C803 C801 1.389 . S
C803 C804 1.524 . S
C804 C803 1.524 . S
C804 C805 1.397 . S
C804 C809 1.363 . S
C805 H776 0.950 . S
C805 C804 1.397 . S
C805 C806 1.334 . S
C806 H777 0.950 . S
C806 C805 1.334 . S
C806 C807 1.287 . S
C807 C806 1.287 . S
C807 C808 1.524 . S
C807 H810 0.999 . S
C808 H778 0.950 . S
C808 C807 1.524 . S
C808 C809 1.415 . S
C809 H779 0.950 . S
C809 C804 1.363 . S
C809 C808 1.415 . S
H810 C807 0.999 . S
H811 C792 0.913 . S
H812 C830 0.951 . S
H813 C832 0.951 . S
H814 C834 0.950 . S
H815 C835 0.950 . S
H816 C837 0.950 . S
H817 C840 0.950 . S
H818 C841 0.950 . S
H819 C843 0.950 . S
H820 C844 0.950 . S
H821 C845 0.951 . S
H822 C847 0.951 . S
H823 C849 0.950 1_565 S
H824 C850 0.950 . S
H825 C852 0.950 . S
H826 C855 0.950 . S
H827 C856 0.950 1_565 S
H828 C858 0.950 . S
H829 C859 0.950 . S
C830 H812 0.951 . S
C830 C831 1.366 . S
C830 C832 1.388 . S
C831 C830 1.366 . S
C831 C835 1.385 . S
C832 H813 0.951 . S
C832 C830 1.388 . S
C832 C833 1.366 . S
C833 C832 1.366 . S
C833 C834 1.414 . S
C833 C836 1.499 . S
C834 H814 0.950 . S
C834 C833 1.414 . S
C834 C835 1.374 . S
C835 H815 0.950 . S
C835 C831 1.385 . S
C835 C834 1.374 . S
C836 C833 1.499 . S
C836 C837 1.373 . S
C836 C838 1.389 . S
C837 H816 0.950 . S
C837 C836 1.373 . S
C837 C853 1.377 . S
C838 C836 1.389 . S
C838 C839 1.524 . S
C838 C852 1.377 . S
C839 C838 1.524 . S
C839 C840 1.397 . S
C839 C844 1.363 . S
C840 H817 0.950 . S
C840 C839 1.397 . S
C840 C841 1.334 . S
C841 H818 0.950 . S
C841 C840 1.334 . S
C841 C842 1.287 . S
C842 C841 1.287 . S
C842 C843 1.524 . S
C842 H861 0.913 . S
C843 H819 0.950 . S
C843 C842 1.524 . S
C843 C844 1.415 . S
C844 H820 0.950 . S
C844 C839 1.363 . S
C844 C843 1.415 . S
C845 H821 0.951 . S
C845 C846 1.366 . S
C845 C847 1.388 . S
C846 C845 1.366 . S
C846 C850 1.385 1_545 S
C847 H822 0.951 . S
C847 C845 1.388 . S
C847 C848 1.366 . S
C848 C847 1.366 . S
C848 C849 1.414 . S
C848 C851 1.499 . S
C849 H823 0.950 1_545 S
C849 C848 1.414 . S
C849 C850 1.374 1_545 S
C850 H824 0.950 . S
C850 C846 1.385 1_565 S
C850 C849 1.374 1_565 S
C851 C848 1.499 . S
C851 C852 1.373 . S
C851 C853 1.389 . S
C852 H825 0.950 . S
C852 C838 1.377 . S
C852 C851 1.373 . S
C853 C837 1.377 . S
C853 C851 1.389 . S
C853 C854 1.524 . S
C854 C853 1.524 . S
C854 C855 1.397 . S
C854 C859 1.363 . S
C855 H826 0.950 . S
C855 C854 1.397 . S
C855 C856 1.334 . S
C856 H827 0.950 1_545 S
C856 C855 1.334 . S
C856 C857 1.287 . S
C857 C856 1.287 . S
C857 C858 1.524 . S
C857 H860 0.999 . S
C858 H828 0.950 . S
C858 C857 1.524 . S
C858 C859 1.415 . S
C859 H829 0.950 . S
C859 C854 1.363 . S
C859 C858 1.415 . S
H860 C857 0.999 . S
H861 C842 0.913 . S
H862 C880 0.951 . S
H863 C882 0.951 1_455 S
H864 C884 0.950 . S
H865 C885 0.950 . S
H866 C887 0.950 . S
H867 C890 0.950 . S
H868 C891 0.950 . S
H869 C893 0.950 . S
H870 C894 0.950 . S
H871 C895 0.951 . S
H872 C897 0.951 . S
H873 C899 0.950 . S
H874 C900 0.950 . S
H875 C902 0.950 . S
H876 C905 0.950 . S
H877 C906 0.950 . S
H878 C908 0.950 . S
H879 C909 0.950 . S
C880 H862 0.951 . S
C880 C881 1.366 1_455 S
C880 C882 1.388 1_455 S
C881 C880 1.366 1_655 S
C881 C885 1.385 . S
C882 H863 0.951 1_655 S
C882 C880 1.388 1_655 S
C882 C883 1.366 . S
C883 C882 1.366 . S
C883 C884 1.414 . S
C883 C886 1.499 . S
C884 H864 0.950 . S
C884 C883 1.414 . S
C884 C885 1.374 . S
C885 H865 0.950 . S
C885 C881 1.385 . S
C885 C884 1.374 . S
C886 C883 1.499 . S
C886 C887 1.373 . S
C886 C888 1.389 . S
C887 H866 0.950 . S
C887 C886 1.373 . S
C887 C903 1.377 . S
C888 C886 1.389 . S
C888 C889 1.524 . S
C888 C902 1.377 . S
C889 C888 1.524 . S
C889 C890 1.397 . S
C889 C894 1.363 1_655 S
C890 H867 0.950 . S
C890 C889 1.397 . S
C890 C891 1.334 1_655 S
C891 H868 0.950 . S
C891 C890 1.334 1_455 S
C891 C892 1.287 . S
C892 C891 1.287 . S
C892 C893 1.524 . S
C892 H911 0.913 . S
C893 H869 0.950 . S
C893 C892 1.524 . S
C893 C894 1.415 . S
C894 H870 0.950 . S
C894 C889 1.363 1_455 S
C894 C893 1.415 . S
C895 H871 0.951 . S
C895 C896 1.366 . S
C895 C897 1.388 . S
C896 C895 1.366 . S
C896 C900 1.385 . S
C897 H872 0.951 . S
C897 C895 1.388 . S
C897 C898 1.366 . S
C898 C897 1.366 . S
C898 C899 1.414 . S
C898 C901 1.499 . S
C899 H873 0.950 . S
C899 C898 1.414 . S
C899 C900 1.374 . S
C900 H874 0.950 . S
C900 C896 1.385 . S
C900 C899 1.374 . S
C901 C898 1.499 . S
C901 C902 1.373 . S
C901 C903 1.389 . S
C902 H875 0.950 . S
C902 C888 1.377 . S
C902 C901 1.373 . S
C903 C887 1.377 . S
C903 C901 1.389 . S
C903 C904 1.524 . S
C904 C903 1.524 . S
C904 C905 1.397 . S
C904 C909 1.363 . S
C905 H876 0.950 . S
C905 C904 1.397 . S
C905 C906 1.334 . S
C906 H877 0.950 . S
C906 C905 1.334 . S
C906 C907 1.287 . S
C907 C906 1.287 . S
C907 C908 1.524 . S
C907 H910 0.999 . S
C908 H878 0.950 . S
C908 C907 1.524 . S
C908 C909 1.415 . S
C909 H879 0.950 . S
C909 C904 1.363 . S
C909 C908 1.415 . S
H910 C907 0.999 . S
H911 C892 0.913 . S
C131 C62 1.500 . S
C146 C6 1.500 . S
C181 C20 1.500 . S
C196 C76 1.500 . S
C231 C34 1.500 . S
C246 C90 1.500 . S
C281 C104 1.500 . S
C296 C48 1.500 . S
C331 C7 1.271 . S
C346 C35 1.272 . S
C381 C21 1.271 . S
C396 C49 1.272 . S
C431 C91 1.271 . S
C446 C63 1.271 . S
C481 C77 1.272 . S
C496 C105 1.271 . S
C531 C79 1.288 . S
C546 C8 1.263 . S
C581 C22 1.264 . S
C596 C93 1.289 . S
C631 C36 1.264 . S
C646 C107 1.289 1_565 S
C681 C65 1.289 1_455 S
C696 C50 1.264 . S
C731 C64 1.263 . S
C746 C23 1.289 . S
C781 C78 1.264 . S
C796 C37 1.289 . S
C831 C92 1.263 . S
C846 C51 1.289 1_545 S
C881 C9 1.290 1_655 S
C896 C106 1.263 . S
