# Generated by pormake.
# Topology wjh, (4)-cn, num edge types: 1
# Building blocks:
#     Node 0, Type 0, BuildingBlock: AZAVOO_clean_sbu_0, # of connection points: 4
#     Node 1, Type 0, BuildingBlock: AZAVOO_clean_sbu_0, # of connection points: 4
#     Node 2, Type 0, BuildingBlock: AZAVOO_clean_sbu_0, # of connection points: 4
#     Node 3, Type 0, BuildingBlock: AZAVOO_clean_sbu_0, # of connection points: 4
#     Node 4, Type 0, BuildingBlock: AZAVOO_clean_sbu_0, # of connection points: 4
#     Node 5, Type 0, BuildingBlock: AZAVOO_clean_sbu_0, # of connection points: 4
#     Node 6, Type 0, BuildingBlock: AZAVOO_clean_sbu_0, # of connection points: 4
#     Node 7, Type 0, BuildingBlock: AZAVOO_clean_sbu_0, # of connection points: 4
#     Node 8, Type 0, BuildingBlock: AZAVOO_clean_sbu_0, # of connection points: 4
#     Node 9, Type 0, BuildingBlock: AZAVOO_clean_sbu_0, # of connection points: 4
#     Node 10, Type 0, BuildingBlock: AZAVOO_clean_sbu_0, # of connection points: 4
#     Node 11, Type 0, BuildingBlock: AZAVOO_clean_sbu_0, # of connection points: 4
#     Edge 12, Type (0, 0), BuildingBlock: UVAHIK_clean_linker_0, # of connection points: 2
#     Edge 13, Type (0, 0), BuildingBlock: UVAHIK_clean_linker_0, # of connection points: 2
#     Edge 14, Type (0, 0), BuildingBlock: UVAHIK_clean_linker_0, # of connection points: 2
#     Edge 15, Type (0, 0), BuildingBlock: UVAHIK_clean_linker_0, # of connection points: 2
#     Edge 16, Type (0, 0), BuildingBlock: UVAHIK_clean_linker_0, # of connection points: 2
#     Edge 17, Type (0, 0), BuildingBlock: UVAHIK_clean_linker_0, # of connection points: 2
#     Edge 18, Type (0, 0), BuildingBlock: UVAHIK_clean_linker_0, # of connection points: 2
#     Edge 19, Type (0, 0), BuildingBlock: UVAHIK_clean_linker_0, # of connection points: 2
#     Edge 20, Type (0, 0), BuildingBlock: UVAHIK_clean_linker_0, # of connection points: 2
#     Edge 21, Type (0, 0), BuildingBlock: UVAHIK_clean_linker_0, # of connection points: 2
#     Edge 22, Type (0, 0), BuildingBlock: UVAHIK_clean_linker_0, # of connection points: 2
#     Edge 23, Type (0, 0), BuildingBlock: UVAHIK_clean_linker_0, # of connection points: 2
#     Edge 24, Type (0, 0), BuildingBlock: UVAHIK_clean_linker_0, # of connection points: 2
#     Edge 25, Type (0, 0), BuildingBlock: UVAHIK_clean_linker_0, # of connection points: 2
#     Edge 26, Type (0, 0), BuildingBlock: UVAHIK_clean_linker_0, # of connection points: 2
#     Edge 27, Type (0, 0), BuildingBlock: UVAHIK_clean_linker_0, # of connection points: 2
#     Edge 28, Type (0, 0), BuildingBlock: UVAHIK_clean_linker_0, # of connection points: 2
#     Edge 29, Type (0, 0), BuildingBlock: UVAHIK_clean_linker_0, # of connection points: 2
#     Edge 30, Type (0, 0), BuildingBlock: UVAHIK_clean_linker_0, # of connection points: 2
#     Edge 31, Type (0, 0), BuildingBlock: UVAHIK_clean_linker_0, # of connection points: 2
#     Edge 32, Type (0, 0), BuildingBlock: UVAHIK_clean_linker_0, # of connection points: 2
#     Edge 33, Type (0, 0), BuildingBlock: UVAHIK_clean_linker_0, # of connection points: 2
#     Edge 34, Type (0, 0), BuildingBlock: UVAHIK_clean_linker_0, # of connection points: 2
#     Edge 35, Type (0, 0), BuildingBlock: UVAHIK_clean_linker_0, # of connection points: 2
# Relax obj value: 0.169
# Max RMSD: 0.148
# Mean RMSD: 0.148
data_MOF--net-wjh--node1-AZAVOO_clean_sbu_0--edge1-UVAHIK_clean_linker_0
_symmetry_space_group_name_H-M    P1
_symmetry_Int_Tables_number       1
_symmetry_cell_setting            triclinic
loop_
_symmetry_equiv_pos_as_xyz
'x, y, z'
_cell_length_a     84.232637
_cell_length_b     84.060584
_cell_length_c     31.210639
_cell_angle_alpha  90.087552
_cell_angle_beta   90.125357
_cell_angle_gamma 119.71833
loop_
_atom_site_label
_atom_site_type_symbol
_atom_site_fract_x
_atom_site_fract_y
_atom_site_fract_z
_atom_type_partial_charge
Mg0 Mg 0.46051 0.10878 0.04779 0.0
O1 O 0.47801 0.10705 0.10255 0.0
O2 O 0.48792 0.08803 0.08163 0.0
Mg3 Mg 0.47617 0.07692 0.01538 0.0
C4 C 0.48717 0.09888 0.10913 0.0
C5 C 0.4483 0.13628 0.07901 0.0
O6 O 0.43292 0.12334 0.06243 0.0
O7 O 0.48605 0.12635 0.0079 0.0
O8 O 0.49429 0.10581 0.98844 0.0
O9 O 0.43546 0.0848 0.07487 0.0
O10 O 0.4536 0.08249 0.02741 0.0
C11 C 0.49664 0.12202 0.98823 0.0
C12 C 0.43957 0.07447 0.05202 0.0
O13 O 0.4623 0.13429 0.07848 0.0
Mg14 Mg 0.32519 0.47066 0.20938 0.0
O15 O 0.34412 0.48908 0.26351 0.0
O16 O 0.3729 0.49797 0.24464 0.0
Mg17 Mg 0.37266 0.48611 0.17888 0.0
C18 C 0.36131 0.49787 0.27107 0.0
C19 C 0.28639 0.45766 0.24619 0.0
O20 O 0.28555 0.44188 0.23862 0.0
O21 O 0.33288 0.49571 0.16746 0.0
O22 O 0.36172 0.50394 0.1502 0.0
O23 O 0.32463 0.44604 0.23907 0.0
O24 O 0.34475 0.4637 0.19088 0.0
C25 C 0.34784 0.50625 0.14825 0.0
C26 C 0.33903 0.45002 0.2166 0.0
O27 O 0.30116 0.47237 0.23814 0.0
Mg28 Mg 0.83124 0.33888 0.3871 0.0
O29 O 0.8313 0.35606 0.44491 0.0
O30 O 0.84958 0.38558 0.42844 0.0
Mg31 Mg 0.86215 0.38739 0.36279 0.0
C32 C 0.8387 0.37311 0.45402 0.0
C33 C 0.80549 0.29873 0.41812 0.0
O34 O 0.82036 0.29792 0.40986 0.0
O35 O 0.81368 0.34742 0.34808 0.0
O36 O 0.83375 0.37664 0.33299 0.0
O37 O 0.85522 0.33739 0.41406 0.0
O38 O 0.85758 0.35944 0.37162 0.0
C39 C 0.81779 0.36263 0.33023 0.0
C40 C 0.86552 0.35279 0.3949 0.0
O41 O 0.80566 0.31379 0.4125 0.0
Mg42 Mg 0.46747 0.84306 0.54728 0.0
O43 O 0.44993 0.84439 0.60244 0.0
O44 O 0.44119 0.86456 0.58386 0.0
Mg45 Mg 0.45241 0.8757 0.51758 0.0
C46 C 0.44143 0.85313 0.61035 0.0
C47 C 0.4803 0.817 0.58477 0.0
O48 O 0.49607 0.83193 0.57857 0.0
O49 O 0.44191 0.82605 0.50657 0.0
O50 O 0.43398 0.84702 0.48942 0.0
O51 O 0.49265 0.86686 0.57556 0.0
O52 O 0.4746 0.86956 0.52843 0.0
C53 C 0.43139 0.83072 0.48764 0.0
C54 C 0.48864 0.87737 0.55324 0.0
O55 O 0.46566 0.81718 0.5758 0.0
Mg56 Mg 0.60089 0.47925 0.71603 0.0
O57 O 0.58279 0.46158 0.77182 0.0
O58 O 0.55365 0.45058 0.75174 0.0
Mg59 Mg 0.55296 0.46199 0.68608 0.0
C60 C 0.56562 0.45186 0.77878 0.0
C61 C 0.64069 0.49331 0.74855 0.0
O62 O 0.64163 0.50887 0.73787 0.0
O63 O 0.59336 0.45366 0.67602 0.0
O64 O 0.56437 0.44454 0.65771 0.0
O65 O 0.60167 0.50425 0.74358 0.0
O66 O 0.58055 0.48533 0.69829 0.0
C67 C 0.57851 0.44269 0.65675 0.0
C68 C 0.58669 0.49957 0.72265 0.0
O69 O 0.62559 0.47851 0.74402 0.0
Mg70 Mg 0.09588 0.61354 0.8768 0.0
O71 O 0.09585 0.59485 0.93089 0.0
O72 O 0.07716 0.56584 0.91067 0.0
Mg73 Mg 0.06467 0.56583 0.84589 0.0
C74 C 0.08825 0.5776 0.93746 0.0
C75 C 0.12197 0.65309 0.91026 0.0
O76 O 0.10738 0.65425 0.90066 0.0
O77 O 0.1133 0.606 0.83449 0.0
O78 O 0.09313 0.5771 0.81629 0.0
O79 O 0.07191 0.614 0.90684 0.0
O80 O 0.06954 0.59366 0.85881 0.0
C81 C 0.10911 0.59113 0.81463 0.0
C82 C 0.06158 0.5994 0.88465 0.0
O83 O 0.12152 0.63787 0.90493 0.0
Mg84 Mg 0.83062 0.48047 0.92105 0.0
O85 O 0.83124 0.46224 0.8665 0.0
O86 O 0.84986 0.45179 0.88704 0.0
Mg87 Mg 0.86176 0.46381 0.95257 0.0
C88 C 0.83896 0.45266 0.85991 0.0
C89 C 0.80471 0.49411 0.88668 0.0
O90 O 0.81917 0.50975 0.897 0.0
O91 O 0.81294 0.45528 0.962 0.0
O92 O 0.83306 0.44641 0.98078 0.0
O93 O 0.85468 0.50501 0.89246 0.0
O94 O 0.85686 0.48681 0.94007 0.0
C95 C 0.81705 0.4445 0.98162 0.0
C96 C 0.86493 0.50065 0.91483 0.0
O97 O 0.80517 0.47935 0.89196 0.0
Mg98 Mg 0.32492 0.84285 0.07792 0.0
O99 O 0.3439 0.844 0.02324 0.0
O100 O 0.37262 0.8637 0.04299 0.0
Mg101 Mg 0.37232 0.87455 0.10968 0.0
C102 C 0.36109 0.85252 0.01592 0.0
C103 C 0.28565 0.81673 0.04399 0.0
O104 O 0.28426 0.83101 0.05577 0.0
O105 O 0.33288 0.82522 0.11829 0.0
O106 O 0.36171 0.8456 0.13649 0.0
O107 O 0.32404 0.86705 0.05012 0.0
O108 O 0.34432 0.86912 0.09787 0.0
C109 C 0.34789 0.82946 0.13735 0.0
C110 C 0.33845 0.87726 0.07293 0.0
O111 O 0.30097 0.81735 0.04816 0.0
Mg112 Mg 0.46011 0.33889 0.24956 0.0
O113 O 0.47728 0.35675 0.19312 0.0
O114 O 0.4879 0.38607 0.2112 0.0
Mg115 Mg 0.47701 0.38705 0.27736 0.0
C116 C 0.48663 0.37385 0.18488 0.0
C117 C 0.45655 0.30046 0.24531 0.0
O118 O 0.45215 0.30116 0.28537 0.0
O119 O 0.48593 0.34686 0.28887 0.0
O120 O 0.4948 0.37598 0.30563 0.0
O121 O 0.43505 0.33807 0.22245 0.0
O122 O 0.45396 0.35907 0.26798 0.0
C123 C 0.49688 0.36195 0.30743 0.0
C124 C 0.43968 0.35294 0.24393 0.0
O125 O 0.46074 0.31416 0.22123 0.0
Mg126 Mg 0.09655 0.47222 0.41 0.0
O127 O 0.09627 0.48897 0.35176 0.0
O128 O 0.07788 0.50025 0.36784 0.0
Mg129 Mg 0.06561 0.49001 0.43383 0.0
C130 C 0.08877 0.49853 0.34235 0.0
C131 C 0.12292 0.45791 0.38247 0.0
O132 O 0.10866 0.44246 0.39445 0.0
O133 O 0.11413 0.49843 0.4482 0.0
O134 O 0.09418 0.50799 0.46258 0.0
O135 O 0.0727 0.44677 0.38354 0.0
O136 O 0.07015 0.46648 0.42576 0.0
C137 C 0.11012 0.5098 0.46516 0.0
C138 C 0.06229 0.45183 0.40269 0.0
O139 O 0.12214 0.47261 0.38449 0.0
Mg140 Mg 0.60237 0.10906 0.58148 0.0
O141 O 0.58448 0.10829 0.52457 0.0
O142 O 0.55526 0.08968 0.54234 0.0
Mg143 Mg 0.55435 0.0779 0.60858 0.0
C144 C 0.56739 0.10052 0.51609 0.0
C145 C 0.64217 0.13493 0.55007 0.0
O146 O 0.64331 0.12047 0.56132 0.0
O147 O 0.59414 0.12682 0.62077 0.0
O148 O 0.56512 0.1066 0.63705 0.0
O149 O 0.60334 0.08474 0.5546 0.0
O150 O 0.58239 0.08286 0.59975 0.0
C151 C 0.57904 0.12267 0.63912 0.0
C152 C 0.58853 0.07462 0.57597 0.0
O153 O 0.62693 0.13448 0.55377 0.0
Mg154 Mg 0.46725 0.61223 0.74244 0.0
O155 O 0.45 0.59421 0.68564 0.0
O156 O 0.44076 0.56509 0.70293 0.0
Mg157 Mg 0.45152 0.56418 0.7693 0.0
C158 C 0.44132 0.57707 0.6769 0.0
C159 C 0.48032 0.65243 0.71573 0.0
O160 O 0.49564 0.65377 0.72988 0.0
O161 O 0.44137 0.6035 0.78161 0.0
O162 O 0.43295 0.57438 0.79721 0.0
O163 O 0.49277 0.61408 0.71518 0.0
O164 O 0.47394 0.59225 0.75889 0.0
C165 C 0.43055 0.58822 0.79924 0.0
C166 C 0.48822 0.5989 0.73498 0.0
O167 O 0.46588 0.63685 0.71596 0.0
C168 C 0.51279 0.09993 0.15182 0.0
C169 C 0.49721 0.10192 0.14999 0.0
C170 C 0.522 0.10211 0.19054 0.0
C171 C 0.52538 0.11879 0.30345 0.0
H172 H 0.54652 0.0876 0.32296 0.0
C173 C 0.54377 0.10178 0.46987 0.0
C174 C 0.56128 0.10377 0.47419 0.0
C175 C 0.53747 0.10379 0.42993 0.0
C176 C 0.54084 0.09653 0.31772 0.0
H177 H 0.47907 0.10784 0.18719 0.0
H178 H 0.49453 0.11076 0.25525 0.0
H179 H 0.53218 0.08635 0.25435 0.0
H180 H 0.58601 0.10963 0.44019 0.0
H181 H 0.57468 0.11257 0.36986 0.0
H182 H 0.53327 0.12811 0.36817 0.0
C183 C 0.5001 0.10813 0.22662 0.0
C184 C 0.53268 0.09592 0.27829 0.0
C185 C 0.49112 0.10634 0.18762 0.0
C186 C 0.57248 0.10808 0.43783 0.0
C187 C 0.566 0.1097 0.39766 0.0
C188 C 0.53322 0.11911 0.34322 0.0
C189 C 0.51562 0.10592 0.22871 0.0
C190 C 0.52478 0.10701 0.27053 0.0
C191 C 0.5484 0.10746 0.39338 0.0
C192 C 0.54099 0.10796 0.35068 0.0
H193 H 0.51795 0.09677 0.12318 0.0
H194 H 0.53415 0.1008 0.19038 0.0
H195 H 0.51981 0.12782 0.29861 0.0
H196 H 0.53487 0.09855 0.49736 0.0
H197 H 0.5238 0.10189 0.42737 0.0
C198 C 0.35608 0.50835 0.34265 0.0
C199 C 0.36817 0.50814 0.31191 0.0
C200 C 0.36271 0.51764 0.3816 0.0
C201 C 0.40522 0.55264 0.43574 0.0
H202 H 0.38007 0.52758 0.53942 0.0
C203 C 0.43178 0.58307 0.60486 0.0
C204 C 0.43157 0.57065 0.63532 0.0
C205 C 0.42272 0.57677 0.56553 0.0
C206 C 0.38727 0.53476 0.51076 0.0
H207 H 0.39678 0.51785 0.29798 0.0
H208 H 0.40821 0.53369 0.36574 0.0
H209 H 0.36696 0.51432 0.4699 0.0
H210 H 0.42151 0.54182 0.64819 0.0
H211 H 0.40606 0.53099 0.57989 0.0
H212 H 0.42595 0.57266 0.47667 0.0
C213 C 0.39364 0.52694 0.35961 0.0
C214 C 0.37963 0.52726 0.47088 0.0
C215 C 0.38703 0.51769 0.32079 0.0
C216 C 0.42197 0.55182 0.62566 0.0
C217 C 0.41294 0.54556 0.58651 0.0
C218 C 0.41288 0.56013 0.47565 0.0
C219 C 0.38157 0.52694 0.39063 0.0
C220 C 0.38871 0.53592 0.43288 0.0
C221 C 0.41323 0.55793 0.5559 0.0
C222 C 0.40418 0.55107 0.51363 0.0
H223 H 0.34148 0.50122 0.33684 0.0
H224 H 0.35307 0.51752 0.40465 0.0
H225 H 0.41243 0.5598 0.40707 0.0
H226 H 0.43899 0.59766 0.61126 0.0
H227 H 0.42309 0.58665 0.54273 0.0
C228 C 0.83119 0.44843 0.7816 0.0
C229 C 0.83542 0.44227 0.81941 0.0
C230 C 0.82917 0.43922 0.74281 0.0
C231 C 0.84084 0.40607 0.69226 0.0
H232 H 0.80951 0.40612 0.60113 0.0
C233 C 0.83035 0.36732 0.5318 0.0
C234 C 0.83491 0.3788 0.49585 0.0
C235 C 0.82824 0.37345 0.57197 0.0
C236 C 0.81826 0.40598 0.62644 0.0
H237 H 0.83985 0.42112 0.84686 0.0
H238 H 0.83543 0.40456 0.78002 0.0
H239 H 0.80949 0.41949 0.67065 0.0
H240 H 0.83998 0.40531 0.47333 0.0
H241 H 0.8358 0.41577 0.54327 0.0
H242 H 0.84928 0.39222 0.64797 0.0
C243 C 0.83446 0.41692 0.77956 0.0
C244 C 0.81839 0.41377 0.66618 0.0
C245 C 0.83687 0.42635 0.81805 0.0
C246 C 0.83659 0.39621 0.50052 0.0
C247 C 0.83409 0.40216 0.54042 0.0
C248 C 0.84042 0.39798 0.65284 0.0
C249 C 0.83096 0.42342 0.74116 0.0
C250 C 0.82989 0.41416 0.69951 0.0
C251 C 0.83021 0.39097 0.57662 0.0
C252 C 0.82932 0.39809 0.61942 0.0
H253 H 0.83009 0.46074 0.78169 0.0
H254 H 0.82677 0.44486 0.71398 0.0
H255 H 0.85019 0.40642 0.71656 0.0
H256 H 0.82902 0.35386 0.52917 0.0
H257 H 0.8252 0.36457 0.59949 0.0
C258 C 0.43174 0.8381 0.68266 0.0
C259 C 0.4316 0.85014 0.65159 0.0
C260 C 0.42274 0.83573 0.72179 0.0
C261 C 0.41312 0.8432 0.811 0.0
H262 H 0.36719 0.84337 0.81584 0.0
C263 C 0.38691 0.85915 0.96605 0.0
C264 C 0.36804 0.84963 0.97465 0.0
C265 C 0.39361 0.85689 0.92702 0.0
C266 C 0.37988 0.84305 0.81509 0.0
H267 H 0.42165 0.86898 0.6374 0.0
H268 H 0.40627 0.86502 0.70544 0.0
H269 H 0.38033 0.84309 0.74654 0.0
H270 H 0.34146 0.83002 0.94884 0.0
H271 H 0.35323 0.82599 0.88064 0.0
H272 H 0.41265 0.84312 0.87956 0.0
C273 C 0.41308 0.85719 0.69943 0.0
C274 C 0.38753 0.84311 0.77535 0.0
C275 C 0.42207 0.85957 0.66044 0.0
C276 C 0.35606 0.83762 0.94328 0.0
C277 C 0.36279 0.83536 0.90411 0.0
C278 C 0.40547 0.84313 0.85075 0.0
C279 C 0.41335 0.84531 0.73067 0.0
C280 C 0.40441 0.84353 0.77282 0.0
C281 C 0.38166 0.84503 0.89548 0.0
C282 C 0.38892 0.84339 0.85329 0.0
H283 H 0.43889 0.83057 0.6769 0.0
H284 H 0.42307 0.82635 0.74503 0.0
H285 H 0.42618 0.84363 0.81026 0.0
H286 H 0.39658 0.86855 0.98931 0.0
H287 H 0.40818 0.8648 0.92121 0.0
C288 C 0.48983 0.36835 0.10715 0.0
C289 C 0.49615 0.37987 0.14329 0.0
C290 C 0.49818 0.37462 0.06729 0.0
C291 C 0.54033 0.40782 0.01442 0.0
H292 H 0.5089 0.40642 0.92193 0.0
C293 C 0.56933 0.4487 0.85754 0.0
C294 C 0.55915 0.44185 0.81964 0.0
C295 C 0.56229 0.4399 0.89666 0.0
C296 C 0.51791 0.4066 0.94693 0.0
H297 H 0.51662 0.40668 0.16639 0.0
H298 H 0.53143 0.41741 0.09696 0.0
H299 H 0.49559 0.39267 -0.00948 0.0
H300 H 0.53416 0.41989 0.7924 0.0
H301 H 0.52233 0.40404 0.85984 0.0
H302 H 0.56265 0.4214 0.97087 0.0
C303 C 0.51992 0.40364 0.09946 0.0
C304 C 0.51023 0.39878 0.98635 0.0
C305 C 0.51136 0.39752 0.13907 0.0
C306 C 0.54219 0.42564 0.82126 0.0
C307 C 0.53535 0.41663 0.86009 0.0
C308 C 0.54802 0.41536 0.97467 0.0
C309 C 0.51323 0.39235 0.0631 0.0
C310 C 0.52138 0.39949 0.02057 0.0
C311 C 0.54507 0.42384 0.89856 0.0
C312 C 0.53693 0.41504 0.94045 0.0
H313 H 0.47811 0.3547 0.1094 0.0
H314 H 0.49282 0.36566 0.03966 0.0
H315 H 0.5492 0.40845 0.04035 0.0
H316 H 0.58241 0.46123 0.85721 0.0
H317 H 0.57012 0.44606 0.92551 0.0
C318 C 0.09088 0.52361 0.29566 0.0
C319 C 0.09255 0.50787 0.30045 0.0
C320 C 0.09347 0.53201 0.25576 0.0
C321 C 0.08739 0.52153 0.14333 0.0
H322 H 0.11834 0.57377 0.12601 0.0
C323 C 0.09078 0.55351 0.97863 0.0
C324 C 0.0921 0.57083 0.97762 0.0
C325 C 0.09333 0.5465 0.01691 0.0
C326 C 0.10944 0.5592 0.13034 0.0
H327 H 0.09847 0.48873 0.26734 0.0
H328 H 0.10244 0.50317 0.19696 0.0
H329 H 0.11825 0.56035 0.19541 0.0
H330 H 0.0974 0.59452 0.01572 0.0
H331 H 0.10098 0.58198 0.08307 0.0
H332 H 0.07768 0.52029 0.0796 0.0
C333 C 0.09936 0.50906 0.22441 0.0
C334 C 0.10953 0.55152 0.17001 0.0
C335 C 0.09715 0.50086 0.2646 0.0
C336 C 0.09639 0.58117 0.01554 0.0
C337 C 0.09856 0.57398 0.05412 0.0
C338 C 0.08702 0.52922 0.10397 0.0
C339 C 0.09743 0.52464 0.21966 0.0
C340 C 0.09844 0.53264 0.17687 0.0
C341 C 0.09686 0.55643 0.05544 0.0
C342 C 0.09796 0.54819 0.09692 0.0
H343 H 0.08746 0.52939 0.32277 0.0
H344 H 0.09178 0.54393 0.25283 0.0
H345 H 0.07851 0.50696 0.14807 0.0
H346 H 0.08775 0.54535 0.94972 0.0
H347 H 0.09243 0.5332 0.01619 0.0
C348 C 0.46126 0.28304 0.1859 0.0
C349 C 0.4563 0.28384 0.22851 0.0
C350 C 0.46075 0.26721 0.17008 0.0
C351 C 0.43952 0.21753 0.18984 0.0
H352 H 0.47816 0.22094 0.11643 0.0
C353 C 0.43375 0.15507 0.0984 0.0
C354 C 0.44937 0.1531 0.09709 0.0
C355 C 0.43477 0.17104 0.11481 0.0
C356 C 0.46733 0.21975 0.13713 0.0
H357 H 0.44708 0.26865 0.28799 0.0
H358 H 0.44628 0.24114 0.26046 0.0
H359 H 0.47987 0.24884 0.1447 0.0
H360 H 0.47831 0.16637 0.11221 0.0
H361 H 0.48005 0.19419 0.14106 0.0
H362 H 0.42708 0.18844 0.18273 0.0
C363 C 0.45037 0.25267 0.23912 0.0
C364 C 0.4682 0.23575 0.15295 0.0
C365 C 0.45093 0.2685 0.25497 0.0
C366 C 0.46602 0.16745 0.11269 0.0
C367 C 0.46705 0.18345 0.12898 0.0
C368 C 0.43861 0.20155 0.17391 0.0
C369 C 0.45521 0.2518 0.19646 0.0
C370 C 0.45432 0.23482 0.17953 0.0
C371 C 0.45143 0.18544 0.1302 0.0
C372 C 0.45249 0.20246 0.14736 0.0
H373 H 0.46546 0.29461 0.16465 0.0
H374 H 0.46439 0.26692 0.13694 0.0
H375 H 0.4285 0.21633 0.20988 0.0
H376 H 0.42071 0.14432 0.08656 0.0
H377 H 0.42253 0.17221 0.11481 0.0
C378 C 0.2704 0.47498 0.2673 0.0
C379 C 0.27013 0.45822 0.26235 0.0
C380 C 0.25481 0.47537 0.28122 0.0
C381 C 0.21095 0.44776 0.33765 0.0
H382 H 0.19677 0.47973 0.28033 0.0
C383 C 0.14054 0.44192 0.36501 0.0
C384 C 0.13985 0.45825 0.36807 0.0
C385 C 0.15661 0.44224 0.35242 0.0
C386 C 0.20064 0.47089 0.29705 0.0
H387 H 0.25331 0.42874 0.2686 0.0
H388 H 0.22618 0.42944 0.29269 0.0
H389 H 0.22465 0.47987 0.25876 0.0
H390 H 0.15553 0.48774 0.36008 0.0
H391 H 0.18362 0.4883 0.33859 0.0
H392 H 0.18699 0.43878 0.37598 0.0
C393 C 0.23847 0.44229 0.28617 0.0
C394 C 0.21664 0.47097 0.28467 0.0
C395 C 0.25401 0.44189 0.27212 0.0
C396 C 0.15557 0.4749 0.35793 0.0
C397 C 0.17166 0.47521 0.3454 0.0
C398 C 0.19499 0.44771 0.35009 0.0
C399 C 0.23864 0.45902 0.29068 0.0
C400 C 0.22193 0.45934 0.30468 0.0
C401 C 0.17241 0.45889 0.34264 0.0
C402 C 0.18958 0.45919 0.3298 0.0
H403 H 0.2826 0.48781 0.26013 0.0
H404 H 0.25546 0.4885 0.28485 0.0
H405 H 0.21478 0.43884 0.35417 0.0
H406 H 0.12867 0.42885 0.37239 0.0
H407 H 0.1566 0.42938 0.34996 0.0
C408 C 0.67534 0.152 0.53023 0.0
C409 C 0.65862 0.15173 0.535 0.0
C410 C 0.69103 0.16797 0.51742 0.0
C411 C 0.70663 0.21285 0.46502 0.0
H412 H 0.7528 0.22539 0.51964 0.0
C413 C 0.77232 0.2826 0.43868 0.0
C414 C 0.78866 0.2822 0.43269 0.0
C415 C 0.75636 0.26686 0.45151 0.0
C416 C 0.74005 0.222 0.50378 0.0
H417 H 0.64526 0.16805 0.52965 0.0
H418 H 0.67269 0.19598 0.50779 0.0
H419 H 0.72512 0.19762 0.5408 0.0
H420 H 0.80103 0.26491 0.43574 0.0
H421 H 0.77323 0.2375 0.45796 0.0
H422 H 0.72161 0.23731 0.42812 0.0
C423 C 0.67363 0.18377 0.51344 0.0
C424 C 0.72417 0.20605 0.51586 0.0
C425 C 0.65791 0.16777 0.52619 0.0
C426 C 0.7887 0.26573 0.44013 0.0
C427 C 0.77278 0.25002 0.4531 0.0
C428 C 0.72252 0.22884 0.45301 0.0
C429 C 0.69042 0.18411 0.50915 0.0
C430 C 0.70727 0.20122 0.49652 0.0
C431 C 0.7564 0.25037 0.45882 0.0
C432 C 0.73943 0.23356 0.47213 0.0
H433 H 0.67637 0.13987 0.53653 0.0
H434 H 0.70364 0.16764 0.51374 0.0
H435 H 0.6939 0.20943 0.44904 0.0
H436 H 0.7718 0.29507 0.43329 0.0
H437 H 0.74403 0.26765 0.4561 0.0
C438 C 0.46303 0.78346 0.60262 0.0
C439 C 0.4797 0.80001 0.59995 0.0
C440 C 0.46267 0.7673 0.61514 0.0
C441 C 0.4924 0.74649 0.6226 0.0
H442 H 0.4543 0.71148 0.69696 0.0
C443 C 0.49602 0.68601 0.69955 0.0
C444 C 0.47986 0.66896 0.70098 0.0
C445 C 0.49563 0.70171 0.68651 0.0
C446 C 0.46491 0.72102 0.67577 0.0
H447 H 0.50901 0.8126 0.60934 0.0
H448 H 0.50835 0.78456 0.63177 0.0
H449 H 0.45431 0.7395 0.6765 0.0
H450 H 0.45059 0.65504 0.68959 0.0
H451 H 0.44995 0.68248 0.66664 0.0
H452 H 0.50308 0.72809 0.62211 0.0
C453 C 0.49557 0.78396 0.62338 0.0
C454 C 0.46492 0.73709 0.66404 0.0
C455 C 0.49594 0.80008 0.61078 0.0
C456 C 0.46329 0.66796 0.68889 0.0
C457 C 0.4629 0.68371 0.67599 0.0
C458 C 0.49242 0.73047 0.63441 0.0
C459 C 0.47896 0.76732 0.62534 0.0
C460 C 0.47872 0.75007 0.63746 0.0
C461 C 0.47907 0.70077 0.67468 0.0
C462 C 0.47873 0.71758 0.6613 0.0
H463 H 0.45027 0.78291 0.5944 0.0
H464 H 0.44965 0.75471 0.6159 0.0
H465 H 0.50303 0.75599 0.60139 0.0
H466 H 0.50901 0.68729 0.70873 0.0
H467 H 0.5083 0.71468 0.68638 0.0
C468 C 0.6737 0.50948 0.7704 0.0
C469 C 0.65718 0.49303 0.76422 0.0
C470 C 0.6894 0.50927 0.78415 0.0
C471 C 0.71034 0.4798 0.78826 0.0
H472 H 0.74219 0.51496 0.87313 0.0
C473 C 0.7718 0.47692 0.86351 0.0
C474 C 0.78787 0.49367 0.87098 0.0
C475 C 0.75574 0.47658 0.85032 0.0
C476 C 0.73357 0.50519 0.84901 0.0
H477 H 0.6442 0.46342 0.76798 0.0
H478 H 0.67161 0.46307 0.79215 0.0
H479 H 0.71434 0.51481 0.85116 0.0
H480 H 0.79973 0.52321 0.86959 0.0
H481 H 0.77188 0.52261 0.84598 0.0
H482 H 0.72964 0.47026 0.78586 0.0
C483 C 0.67244 0.47614 0.78596 0.0
C484 C 0.71758 0.50509 0.83647 0.0
C485 C 0.6567 0.47635 0.77236 0.0
C486 C 0.78758 0.51006 0.86436 0.0
C487 C 0.77156 0.50972 0.85109 0.0
C488 C 0.72637 0.47993 0.80071 0.0
C489 C 0.68898 0.4926 0.79193 0.0
C490 C 0.7058 0.49243 0.80585 0.0
C491 C 0.75539 0.49298 0.84421 0.0
C492 C 0.73823 0.49267 0.83114 0.0
H493 H 0.67457 0.52258 0.76436 0.0
H494 H 0.70196 0.52219 0.78795 0.0
H495 H 0.70168 0.47003 0.76417 0.0
H496 H 0.77153 0.46403 0.86842 0.0
H497 H 0.74351 0.46344 0.84576 0.0
C498 C 0.15514 0.66889 0.93143 0.0
C499 C 0.13892 0.66951 0.9251 0.0
C500 C 0.17128 0.68462 0.94375 0.0
C501 C 0.19309 0.73526 0.94451 0.0
H502 H 0.22601 0.7325 0.02733 0.0
C503 C 0.25266 0.79959 0.02225 0.0
C504 C 0.26939 0.79994 0.02789 0.0
C505 C 0.23712 0.78362 0.00845 0.0
C506 C 0.21707 0.73347 0.00377 0.0
H507 H 0.1269 0.68711 0.92763 0.0
H508 H 0.15489 0.7144 0.94974 0.0
H509 H 0.19808 0.70468 0.00664 0.0
H510 H 0.28293 0.78377 0.02302 0.0
H511 H 0.25578 0.7559 -0.00123 0.0
H512 H 0.21199 0.76407 0.94194 0.0
C513 C 0.15526 0.70186 0.94438 0.0
C514 C 0.20105 0.71752 -0.0081 0.0
C515 C 0.13915 0.68615 0.93198 0.0
C516 C 0.27026 0.78397 0.01906 0.0
C517 C 0.25467 0.76796 0.00541 0.0
C518 C 0.20907 0.7512 0.95646 0.0
C519 C 0.17157 0.70134 0.95011 0.0
C520 C 0.18881 0.71823 0.96228 0.0
C521 C 0.23791 0.76759 8e-05 0.0
C522 C 0.22121 0.75052 0.98639 0.0
H523 H 0.15545 0.6563 0.92628 0.0
H524 H 0.18362 0.68376 0.94744 0.0
H525 H 0.18418 0.73629 0.92097 0.0
H526 H 0.25148 0.81162 0.02882 0.0
H527 H 0.22438 0.78375 0.00517 0.0
C528 C 0.56103 0.13543 0.673 0.0
C529 C 0.57784 0.13597 0.6679 0.0
C530 C 0.55828 0.14441 0.7074 0.0
C531 C 0.57054 0.1506 0.81703 0.0
H532 H 0.53982 0.17282 0.82322 0.0
C533 C 0.52935 0.14035 0.96798 0.0
C534 C 0.51109 0.13545 0.96047 0.0
C535 C 0.54251 0.14929 0.93627 0.0
C536 C 0.54835 0.16656 0.8222 0.0
H537 H 0.60545 0.14748 0.69252 0.0
H538 H 0.60044 0.16276 0.75375 0.0
H539 H 0.55421 0.17275 0.75542 0.0
H540 H 0.49221 0.13671 0.91553 0.0
H541 H 0.51469 0.15122 0.85918 0.0
H542 H 0.5634 0.14258 0.88178 0.0
C543 C 0.58951 0.15561 0.73071 0.0
C544 C 0.55676 0.16673 0.78341 0.0
C545 C 0.59238 0.14692 0.69567 0.0
C546 C 0.50632 0.14061 0.92205 0.0
C547 C 0.51933 0.14904 0.8898 0.0
C548 C 0.56185 0.15006 0.85543 0.0
C549 C 0.5722 0.15378 0.73781 0.0
C550 C 0.56737 0.15814 0.78014 0.0
C551 C 0.53747 0.15277 0.89572 0.0
C552 C 0.54998 0.15733 0.85816 0.0
H553 H 0.54963 0.12712 0.65189 0.0
H554 H 0.54476 0.14262 0.71225 0.0
H555 H 0.57846 0.14366 0.81533 0.0
H556 H 0.53326 0.13646 -0.00244 0.0
H557 H 0.55641 0.15249 0.94281 0.0
C558 C 0.39774 0.57284 0.81924 0.0
C559 C 0.41577 0.58667 0.82681 0.0
C560 C 0.38438 0.56838 0.85061 0.0
C561 C 0.37759 0.57991 0.96405 0.0
H562 H 0.34878 0.52701 0.97153 0.0
C563 C 0.36564 0.53671 0.11365 0.0
C564 C 0.34891 0.52048 0.11893 0.0
C565 C 0.36826 0.54825 0.07908 0.0
C566 C 0.35633 0.54183 0.96962 0.0
H567 H 0.43399 0.60739 0.87149 0.0
H568 H 0.41123 0.59898 0.9274 0.0
H569 H 0.36388 0.54093 0.90521 0.0
H570 H 0.32134 0.50421 0.09437 0.0
H571 H 0.32615 0.52415 0.03272 0.0
H572 H 0.37139 0.58029 0.03063 0.0
C573 C 0.40688 0.59195 0.89692 0.0
C574 C 0.36504 0.54994 0.93129 0.0
C575 C 0.42007 0.59678 0.86493 0.0
C576 C 0.33434 0.51671 0.09107 0.0
C577 C 0.33709 0.52807 0.05582 0.0
C578 C 0.3692 0.57172 0.0028 0.0
C579 C 0.38902 0.57712 0.89096 0.0
C580 C 0.37645 0.56907 0.92837 0.0
C581 C 0.35431 0.54354 0.04866 0.0
C582 C 0.35905 0.55257 0.00627 0.0
H583 H 0.39418 0.56492 0.78983 0.0
H584 H 0.37068 0.55737 0.84397 0.0
H585 H 0.38574 0.59469 0.96287 0.0
H586 H 0.37706 0.53992 0.13483 0.0
H587 H 0.38171 0.55998 0.07413 0.0
C588 C 0.79903 0.43532 0.04857 0.0
C589 C 0.80362 0.43026 0.00978 0.0
C590 C 0.79062 0.42237 0.08102 0.0
C591 C 0.78888 0.37939 0.11465 0.0
H592 H 0.76762 0.38787 0.21607 0.0
C593 C 0.79335 0.3493 0.27412 0.0
C594 C 0.80453 0.36391 0.30153 0.0
C595 C 0.78446 0.35214 0.23948 0.0
C596 C 0.77324 0.38509 0.1877 0.0
H597 H 0.8016 0.40771 0.97226 0.0
H598 H 0.78563 0.38471 0.02747 0.0
H599 H 0.76714 0.40222 0.14844 0.0
H600 H 0.81361 0.39225 0.3173 0.0
H601 H 0.79782 0.39709 0.2576 0.0
H602 H 0.79535 0.36264 0.15419 0.0
C603 C 0.78924 0.39876 0.03407 0.0
C604 C 0.77317 0.39346 0.149 0.0
C605 C 0.79816 0.41183 0.00214 0.0
C606 C 0.80515 0.3808 0.29644 0.0
C607 C 0.79599 0.38353 0.26244 0.0
C608 C 0.78859 0.37076 0.15299 0.0
C609 C 0.78635 0.40404 0.07492 0.0
C610 C 0.78191 0.39153 0.1125 0.0
C611 C 0.78633 0.36951 0.2324 0.0
C612 C 0.78161 0.37425 0.19037 0.0
H613 H 0.80336 0.44956 0.05518 0.0
H614 H 0.78888 0.42719 0.11187 0.0
H615 H 0.79597 0.3776 0.08782 0.0
H616 H 0.79269 0.33616 0.27729 0.0
H617 H 0.77708 0.34112 0.21674 0.0
C618 C 0.42004 0.80619 0.43165 0.0
C619 C 0.41686 0.81767 0.45876 0.0
C620 C 0.40838 0.79747 0.39685 0.0
C621 C 0.36464 0.78658 0.34453 0.0
H622 H 0.3946 0.80949 0.24483 0.0
C623 C 0.33934 0.8113 0.20414 0.0
C624 C 0.34905 0.81614 0.16557 0.0
C625 C 0.34414 0.80314 0.23687 0.0
C626 C 0.38581 0.80234 0.27159 0.0
H627 H 0.39813 0.82752 0.47377 0.0
H628 H 0.37754 0.81191 0.41387 0.0
H629 H 0.40896 0.80902 0.31141 0.0
H630 H 0.37004 0.81477 0.12875 0.0
H631 H 0.37751 0.79915 0.18435 0.0
H632 H 0.34145 0.78015 0.305 0.0
C633 C 0.38906 0.80976 0.41907 0.0
C634 C 0.39417 0.80215 0.31005 0.0
C635 C 0.4009 0.81879 0.45318 0.0
C636 C 0.3624 0.81113 0.15844 0.0
C637 C 0.36682 0.80243 0.19063 0.0
C638 C 0.35619 0.78636 0.30569 0.0
C639 C 0.39317 0.79976 0.3894 0.0
C640 C 0.38376 0.79508 0.34733 0.0
C641 C 0.35855 0.79935 0.2313 0.0
C642 C 0.36674 0.79514 0.26919 0.0
H643 H 0.43231 0.80518 0.43517 0.0
H644 H 0.41184 0.78985 0.37433 0.0
H645 H 0.35631 0.78091 0.37286 0.0
H646 H 0.32914 0.81529 0.21038 0.0
H647 H 0.33748 0.80125 0.26753 0.0
C648 C 0.5876 0.43337 0.5901 0.0
C649 C 0.57785 0.42839 0.6286 0.0
C650 C 0.5832 0.42042 0.55748 0.0
C651 C 0.54222 0.37764 0.52279 0.0
H652 H 0.57196 0.38617 0.42161 0.0
C653 C 0.50806 0.34823 0.36254 0.0
C654 C 0.51139 0.363 0.33585 0.0
C655 C 0.51974 0.35084 0.39711 0.0
C656 C 0.56357 0.38337 0.44991 0.0
H657 H 0.55728 0.40592 0.66552 0.0
H658 H 0.55051 0.38289 0.6101 0.0
H659 H 0.58661 0.40026 0.48965 0.0
H660 H 0.53045 0.3914 0.32116 0.0
H661 H 0.55101 0.39583 0.3807 0.0
H662 H 0.51921 0.36111 0.48278 0.0
C663 C 0.56091 0.3969 0.60378 0.0
C664 C 0.5719 0.3916 0.48885 0.0
C665 C 0.56492 0.40999 0.63585 0.0
C666 C 0.52753 0.37982 0.34147 0.0
C667 C 0.53937 0.38232 0.37538 0.0
C668 C 0.53399 0.36913 0.48421 0.0
C669 C 0.56917 0.40213 0.56314 0.0
C670 C 0.56123 0.38968 0.52528 0.0
C671 C 0.5351 0.36814 0.40478 0.0
C672 C 0.54447 0.37265 0.44693 0.0
H673 H 0.59748 0.44758 0.58379 0.0
H674 H 0.58983 0.42521 0.52682 0.0
H675 H 0.53335 0.37586 0.54953 0.0
H676 H 0.49567 0.33513 0.35893 0.0
H677 H 0.51616 0.3397 0.41937 0.0
C678 C 0.12922 0.52014 0.5308 0.0
C679 C 0.12349 0.52454 0.49271 0.0
C680 C 0.13758 0.53333 0.56298 0.0
C681 C 0.13735 0.57537 0.59772 0.0
H682 H 0.16057 0.56845 0.69779 0.0
C683 C 0.13317 0.60506 0.75824 0.0
C684 C 0.12237 0.59028 0.78533 0.0
C685 C 0.14209 0.60258 0.72319 0.0
C686 C 0.15441 0.57081 0.66977 0.0
H687 H 0.12359 0.54634 0.45589 0.0
H688 H 0.13955 0.56984 0.51036 0.0
H689 H 0.16113 0.55434 0.62976 0.0
H690 H 0.11397 0.56203 0.80013 0.0
H691 H 0.12987 0.55785 0.73978 0.0
H692 H 0.13035 0.5915 0.63803 0.0
C693 C 0.13678 0.55605 0.51684 0.0
C694 C 0.15451 0.56255 0.63085 0.0
C695 C 0.12786 0.54269 0.48529 0.0
C696 C 0.12215 0.5736 0.77952 0.0
C697 C 0.13137 0.57126 0.74517 0.0
C698 C 0.13764 0.58393 0.63625 0.0
C699 C 0.14072 0.55131 0.55723 0.0
C700 C 0.14507 0.56386 0.59487 0.0
C701 C 0.14065 0.58543 0.71549 0.0
C702 C 0.14535 0.58097 0.67314 0.0
H703 H 0.12578 0.50613 0.53724 0.0
H704 H 0.14016 0.52891 0.59345 0.0
H705 H 0.12971 0.57667 0.57138 0.0
H706 H 0.13349 0.61803 0.76199 0.0
H707 H 0.14914 0.6137 0.70067 0.0
C708 C 0.41368 0.04543 0.08191 0.0
C709 C 0.42886 0.05422 0.05459 0.0
C710 C 0.4034 0.02628 0.0833 0.0
C711 C 0.40669 -0.01496 0.06066 0.0
H712 H 0.35367 0.95975 0.06077 0.0
C713 C 0.34265 0.90654 0.04077 0.0
C714 C 0.34833 0.89751 0.06966 0.0
C715 C 0.35203 0.92571 0.03845 0.0
C716 C 0.36847 0.96664 0.06048 0.0
H717 H 0.44486 0.04969 0.0067 0.0
H718 H 0.42716 0.01646 0.00961 0.0
H719 H 0.37093 -0.00673 0.05803 0.0
H720 H 0.36802 0.90163 0.11955 0.0
H721 H 0.38441 0.93483 0.11501 0.0
H722 H 0.40431 0.95851 0.06298 0.0
C723 C 0.42331 0.02435 0.03028 0.0
C724 C 0.37834 -0.01419 0.05937 0.0
C725 C 0.43348 0.04344 0.02866 0.0
C726 C 0.36346 0.90806 0.09631 0.0
C727 C 0.37288 0.92713 0.09377 0.0
C728 C 0.39685 0.96593 0.06211 0.0
C729 C 0.40816 0.01554 0.05761 0.0
C730 C 0.39756 -0.00479 0.05938 0.0
C731 C 0.36733 0.93619 0.06477 0.0
C732 C 0.37764 0.95651 0.06211 0.0
H733 H 0.40972 0.05334 0.10216 0.0
H734 H 0.39188 0.01987 0.10492 0.0
H735 H 0.42148 -0.00812 0.06104 0.0
H736 H 0.33099 0.89881 0.01994 0.0
H737 H 0.3475 0.93232 0.01561 0.0
C738 C 0.43429 0.37857 0.26543 0.0
C739 C 0.42921 0.36278 0.24065 0.0
C740 C 0.42425 0.38769 0.26337 0.0
C741 C 0.37905 0.38142 0.23527 0.0
H742 H 0.40517 0.43446 0.2288 0.0
C743 C 0.3641 0.44403 0.1945 0.0
C744 C 0.34904 0.43976 0.221 0.0
C745 C 0.37358 0.43439 0.19792 0.0
C746 C 0.39767 0.41965 0.23047 0.0
H747 H 0.40944 0.34407 0.19453 0.0
H748 H 0.39187 0.36007 0.19094 0.0
H749 H 0.42225 0.41807 0.23145 0.0
H750 H 0.33195 0.42176 0.27148 0.0
H751 H 0.34857 0.40482 0.27738 0.0
H752 H 0.35444 0.38306 0.23385 0.0
C753 C 0.40362 0.36533 0.21206 0.0
C754 C 0.40745 0.41026 0.23234 0.0
C755 C 0.41376 0.35624 0.21392 0.0
C756 C 0.34354 0.42544 0.25073 0.0
C757 C 0.35299 0.41568 0.25396 0.0
C758 C 0.36924 0.39084 0.23371 0.0
C759 C 0.4088 0.38118 0.23672 0.0
C760 C 0.39827 0.39105 0.23462 0.0
C761 C 0.36818 0.42014 0.22769 0.0
C762 C 0.37846 0.41005 0.23103 0.0
H763 H 0.44592 0.38384 0.28689 0.0
H764 H 0.42844 0.39971 0.28324 0.0
H765 H 0.3716 0.36661 0.23743 0.0
H766 H 0.36853 0.45471 0.17067 0.0
H767 H 0.38502 0.43794 0.17671 0.0
C768 C 0.03332 0.42236 0.38881 0.0
C769 C 0.04215 0.44119 0.39827 0.0
C770 C 0.0142 0.41202 0.38755 0.0
C771 C -0.02675 0.41564 0.37029 0.0
H772 H 0.94818 0.37238 0.44139 0.0
C773 C 0.89584 0.38154 0.3965 0.0
C774 C 0.88563 0.36239 0.39924 0.0
C775 C 0.91492 0.39057 0.39702 0.0
C776 C 0.9549 0.38423 0.42077 0.0
H777 H 0.03781 0.46401 0.41227 0.0
H778 H 0.00459 0.44613 0.40905 0.0
H779 H -0.01846 0.38888 0.43822 0.0
H780 H 0.88732 0.33763 0.40569 0.0
H781 H 0.9207 0.35329 0.40507 0.0
H782 H 0.94687 0.41094 0.35179 0.0
C783 C 0.01245 0.43933 0.40317 0.0
C784 C -0.02597 0.3937 0.4191 0.0
C785 C 0.0315 0.44956 0.40526 0.0
C786 C 0.89488 0.35244 0.4037 0.0
C787 C 0.91402 0.36145 0.40346 0.0
C788 C 0.95417 0.40604 0.37139 0.0
C789 C 0.00361 0.42044 0.39479 0.0
C790 C -0.01664 0.40963 0.3943 0.0
C791 C 0.92432 0.38065 0.3995 0.0
C792 C 0.9447 0.39037 0.39718 0.0
H793 H 0.04117 0.41551 0.38345 0.0
H794 H 0.00769 0.39748 0.38079 0.0
H795 H -0.01987 0.42776 0.3505 0.0
H796 H 0.88914 0.38963 0.39414 0.0
H797 H 0.92228 0.40538 0.39539 0.0
C798 C 0.49504 0.90845 0.53009 0.0
C799 C 0.49935 0.89761 0.5566 0.0
C800 C 0.50511 0.92752 0.53244 0.0
C801 C 0.54948 0.96615 0.5654 0.0
H802 H 0.52308 -0.00695 0.56438 0.0
C803 C 0.56314 0.04391 0.59804 0.0
C804 C 0.57869 0.05437 0.57277 0.0
C805 C 0.55388 0.02482 0.59593 0.0
C806 C 0.53066 -0.01426 0.56488 0.0
H807 H 0.51787 0.89836 0.60595 0.0
H808 H 0.53554 0.93185 0.61006 0.0
H809 H 0.5062 0.95969 0.56247 0.0
H810 H 0.59688 0.05291 0.52585 0.0
H811 H 0.58061 0.01939 0.52215 0.0
H812 H 0.57398 -0.00768 0.56813 0.0
C813 C 0.52433 0.92549 0.58741 0.0
C814 C 0.52099 0.96664 0.56343 0.0
C815 C 0.51415 0.90632 0.58523 0.0
C816 C 0.58489 0.04525 0.54559 0.0
C817 C 0.57565 0.02607 0.54366 0.0
C818 C 0.55919 -0.01467 0.56656 0.0
C819 C 0.51983 0.93628 0.56116 0.0
C820 C 0.53027 0.9566 0.56365 0.0
C821 C 0.55999 0.01566 0.5687 0.0
C822 C 0.54986 -0.00468 0.56644 0.0
H823 H 0.48398 0.90226 0.50706 0.0
H824 H 0.50149 0.93544 0.51126 0.0
H825 H 0.55701 0.95879 0.56525 0.0
H826 H 0.55815 0.05042 0.61993 0.0
H827 H 0.54205 0.0172 0.61616 0.0
C828 C 0.58647 0.52862 0.73939 0.0
C829 C 0.57698 0.51012 0.72671 0.0
C830 C 0.57755 0.53893 0.74079 0.0
C831 C 0.53273 0.53488 0.7535 0.0
H832 H 0.55211 0.5802 0.68955 0.0
C833 C 0.48993 0.57014 0.72994 0.0
C834 C 0.49882 0.58933 0.73006 0.0
C835 C 0.49998 0.56102 0.72867 0.0
C836 C 0.54662 0.56775 0.70819 0.0
H837 H 0.55057 0.48787 0.70682 0.0
H838 H 0.53496 0.50566 0.71038 0.0
H839 H 0.56901 0.56355 0.69171 0.0
H840 H 0.52515 0.61412 0.7279 0.0
H841 H 0.54286 0.59827 0.72739 0.0
H842 H 0.51065 0.53912 0.7712 0.0
C843 C 0.54934 0.51223 0.71869 0.0
C844 C 0.55631 0.5582 0.70927 0.0
C845 C 0.55832 0.50205 0.71646 0.0
C846 C 0.51797 0.59928 0.72771 0.0
C847 C 0.52809 0.59016 0.72727 0.0
C848 C 0.52321 0.54455 0.75307 0.0
C849 C 0.55889 0.53079 0.73046 0.0
C850 C 0.54931 0.54156 0.73148 0.0
C851 C 0.51922 0.57087 0.72833 0.0
C852 C 0.52986 0.56099 0.72988 0.0
H853 H 0.60089 0.53525 0.74729 0.0
H854 H 0.58519 0.55321 0.75018 0.0
H855 H 0.52716 0.52218 0.77129 0.0
H856 H 0.47518 0.56212 0.73052 0.0
H857 H 0.49258 0.54619 0.728 0.0
C858 C 0.03268 0.59535 0.91817 0.0
C859 C 0.04142 0.58936 0.88927 0.0
C860 C 0.01359 0.58602 0.92139 0.0
C861 C -0.02723 0.56986 0.90065 0.0
H862 H 0.94681 0.51673 0.90237 0.0
C863 C 0.89391 0.52579 0.88296 0.0
C864 C 0.88512 0.51086 0.91105 0.0
C865 C 0.91302 0.53565 0.8805 0.0
C866 C 0.95386 0.53157 0.90211 0.0
H867 H 0.03685 0.56904 0.84058 0.0
H868 H 0.00376 0.55274 0.84665 0.0
H869 H -0.01988 0.53345 0.89925 0.0
H870 H 0.88958 0.49482 0.95907 0.0
H871 H 0.92273 0.51181 0.95434 0.0
H872 H 0.94643 0.56792 0.9037 0.0
C873 C 0.01163 0.5645 0.86716 0.0
C874 C -0.02707 0.54114 0.89998 0.0
C875 C 0.03065 0.57387 0.86372 0.0
C876 C 0.89584 0.50603 0.93657 0.0
C877 C 0.91489 0.51579 0.93389 0.0
C878 C 0.95365 0.56026 0.90244 0.0
C879 C 0.00287 0.57045 0.89598 0.0
C880 C -0.0174 0.56039 0.8992 0.0
C881 C 0.92371 0.53072 0.90588 0.0
C882 C 0.94399 0.541 0.90327 0.0
H883 H 0.04058 0.60727 0.9382 0.0
H884 H 0.00722 0.59085 0.94411 0.0
H885 H -0.02016 0.58468 0.89973 0.0
H886 H 0.88606 0.5299 0.86297 0.0
H887 H 0.91943 0.54701 0.85835 0.0
loop_
_geom_bond_atom_site_label_1
_geom_bond_atom_site_label_2
_geom_bond_distance
_geom_bond_site_symmetry_2
_ccdc_geom_bond_type
Mg0 O1 2.028 . S
Mg0 O7 1.986 . S
Mg0 O9 2.114 . S
Mg0 O10 2.251 . S
Mg0 O13 2.010 . S
O1 Mg0 2.028 . S
O1 C4 1.250 . S
O2 Mg3 2.028 . S
O2 C4 1.248 . S
Mg3 O2 2.028 . S
Mg3 O8 2.032 . S
Mg3 O10 2.079 . S
C4 O1 1.250 . S
C4 O2 1.248 . S
C5 O6 1.264 . S
C5 O13 1.249 . S
O6 C5 1.264 . S
O7 Mg0 1.986 . S
O7 C11 1.246 . S
O8 Mg3 2.032 . S
O8 C11 1.259 . S
O9 Mg0 2.114 . S
O9 C12 1.252 . S
O10 Mg0 2.251 . S
O10 Mg3 2.079 . S
O10 C12 1.273 . S
C11 O7 1.246 . S
C11 O8 1.259 . S
C12 O9 1.252 . S
C12 O10 1.273 . S
O13 Mg0 2.010 . S
O13 C5 1.249 . S
Mg14 O15 2.028 . S
Mg14 O21 1.986 . S
Mg14 O23 2.114 . S
Mg14 O24 2.251 . S
Mg14 O27 2.010 . S
O15 Mg14 2.028 . S
O15 C18 1.250 . S
O16 Mg17 2.028 . S
O16 C18 1.248 . S
Mg17 O16 2.028 . S
Mg17 O22 2.032 . S
Mg17 O24 2.079 . S
C18 O15 1.250 . S
C18 O16 1.248 . S
C19 O20 1.264 . S
C19 O27 1.249 . S
O20 C19 1.264 . S
O21 Mg14 1.986 . S
O21 C25 1.246 . S
O22 Mg17 2.032 . S
O22 C25 1.259 . S
O23 Mg14 2.114 . S
O23 C26 1.252 . S
O24 Mg14 2.251 . S
O24 Mg17 2.079 . S
O24 C26 1.273 . S
C25 O21 1.246 . S
C25 O22 1.259 . S
C26 O23 1.252 . S
C26 O24 1.273 . S
O27 Mg14 2.010 . S
O27 C19 1.249 . S
Mg28 O29 2.028 . S
Mg28 O35 1.986 . S
Mg28 O37 2.114 . S
Mg28 O38 2.251 . S
Mg28 O41 2.010 . S
O29 Mg28 2.028 . S
O29 C32 1.250 . S
O30 Mg31 2.028 . S
O30 C32 1.248 . S
Mg31 O30 2.028 . S
Mg31 O36 2.032 . S
Mg31 O38 2.079 . S
C32 O29 1.250 . S
C32 O30 1.248 . S
C33 O34 1.264 . S
C33 O41 1.249 . S
O34 C33 1.264 . S
O35 Mg28 1.986 . S
O35 C39 1.246 . S
O36 Mg31 2.032 . S
O36 C39 1.259 . S
O37 Mg28 2.114 . S
O37 C40 1.252 . S
O38 Mg28 2.251 . S
O38 Mg31 2.079 . S
O38 C40 1.273 . S
C39 O35 1.246 . S
C39 O36 1.259 . S
C40 O37 1.252 . S
C40 O38 1.273 . S
O41 Mg28 2.010 . S
O41 C33 1.249 . S
Mg42 O43 2.028 . S
Mg42 O49 1.986 . S
Mg42 O51 2.114 . S
Mg42 O52 2.251 . S
Mg42 O55 2.010 . S
O43 Mg42 2.028 . S
O43 C46 1.250 . S
O44 Mg45 2.028 . S
O44 C46 1.248 . S
Mg45 O44 2.028 . S
Mg45 O50 2.032 . S
Mg45 O52 2.079 . S
C46 O43 1.250 . S
C46 O44 1.248 . S
C47 O48 1.264 . S
C47 O55 1.249 . S
O48 C47 1.264 . S
O49 Mg42 1.986 . S
O49 C53 1.246 . S
O50 Mg45 2.032 . S
O50 C53 1.259 . S
O51 Mg42 2.114 . S
O51 C54 1.252 . S
O52 Mg42 2.251 . S
O52 Mg45 2.079 . S
O52 C54 1.273 . S
C53 O49 1.246 . S
C53 O50 1.259 . S
C54 O51 1.252 . S
C54 O52 1.273 . S
O55 Mg42 2.010 . S
O55 C47 1.249 . S
Mg56 O57 2.028 . S
Mg56 O63 1.986 . S
Mg56 O65 2.114 . S
Mg56 O66 2.251 . S
Mg56 O69 2.010 . S
O57 Mg56 2.028 . S
O57 C60 1.250 . S
O58 Mg59 2.028 . S
O58 C60 1.248 . S
Mg59 O58 2.028 . S
Mg59 O64 2.032 . S
Mg59 O66 2.079 . S
C60 O57 1.250 . S
C60 O58 1.248 . S
C61 O62 1.264 . S
C61 O69 1.249 . S
O62 C61 1.264 . S
O63 Mg56 1.986 . S
O63 C67 1.246 . S
O64 Mg59 2.032 . S
O64 C67 1.259 . S
O65 Mg56 2.114 . S
O65 C68 1.252 . S
O66 Mg56 2.251 . S
O66 Mg59 2.079 . S
O66 C68 1.273 . S
C67 O63 1.246 . S
C67 O64 1.259 . S
C68 O65 1.252 . S
C68 O66 1.273 . S
O69 Mg56 2.010 . S
O69 C61 1.249 . S
Mg70 O71 2.028 . S
Mg70 O77 1.986 . S
Mg70 O79 2.114 . S
Mg70 O80 2.251 . S
Mg70 O83 2.010 . S
O71 Mg70 2.028 . S
O71 C74 1.250 . S
O72 Mg73 2.028 . S
O72 C74 1.248 . S
Mg73 O72 2.028 . S
Mg73 O78 2.032 . S
Mg73 O80 2.079 . S
C74 O71 1.250 . S
C74 O72 1.248 . S
C75 O76 1.264 . S
C75 O83 1.249 . S
O76 C75 1.264 . S
O77 Mg70 1.986 . S
O77 C81 1.246 . S
O78 Mg73 2.032 . S
O78 C81 1.259 . S
O79 Mg70 2.114 . S
O79 C82 1.252 . S
O80 Mg70 2.251 . S
O80 Mg73 2.079 . S
O80 C82 1.273 . S
C81 O77 1.246 . S
C81 O78 1.259 . S
C82 O79 1.252 . S
C82 O80 1.273 . S
O83 Mg70 2.010 . S
O83 C75 1.249 . S
Mg84 O85 2.028 . S
Mg84 O91 1.986 . S
Mg84 O93 2.114 . S
Mg84 O94 2.251 . S
Mg84 O97 2.010 . S
O85 Mg84 2.028 . S
O85 C88 1.250 . S
O86 Mg87 2.028 . S
O86 C88 1.248 . S
Mg87 O86 2.028 . S
Mg87 O92 2.032 . S
Mg87 O94 2.079 . S
C88 O85 1.250 . S
C88 O86 1.248 . S
C89 O90 1.264 . S
C89 O97 1.249 . S
O90 C89 1.264 . S
O91 Mg84 1.986 . S
O91 C95 1.246 . S
O92 Mg87 2.032 . S
O92 C95 1.259 . S
O93 Mg84 2.114 . S
O93 C96 1.252 . S
O94 Mg84 2.251 . S
O94 Mg87 2.079 . S
O94 C96 1.273 . S
C95 O91 1.246 . S
C95 O92 1.259 . S
C96 O93 1.252 . S
C96 O94 1.273 . S
O97 Mg84 2.010 . S
O97 C89 1.249 . S
Mg98 O99 2.028 . S
Mg98 O105 1.986 . S
Mg98 O107 2.114 . S
Mg98 O108 2.251 . S
Mg98 O111 2.010 . S
O99 Mg98 2.028 . S
O99 C102 1.250 . S
O100 Mg101 2.028 . S
O100 C102 1.248 . S
Mg101 O100 2.028 . S
Mg101 O106 2.032 . S
Mg101 O108 2.079 . S
C102 O99 1.250 . S
C102 O100 1.248 . S
C103 O104 1.264 . S
C103 O111 1.249 . S
O104 C103 1.264 . S
O105 Mg98 1.986 . S
O105 C109 1.246 . S
O106 Mg101 2.032 . S
O106 C109 1.259 . S
O107 Mg98 2.114 . S
O107 C110 1.252 . S
O108 Mg98 2.251 . S
O108 Mg101 2.079 . S
O108 C110 1.273 . S
C109 O105 1.246 . S
C109 O106 1.259 . S
C110 O107 1.252 . S
C110 O108 1.273 . S
O111 Mg98 2.010 . S
O111 C103 1.249 . S
Mg112 O113 2.028 . S
Mg112 O119 1.986 . S
Mg112 O121 2.114 . S
Mg112 O122 2.251 . S
Mg112 O125 2.010 . S
O113 Mg112 2.028 . S
O113 C116 1.250 . S
O114 Mg115 2.028 . S
O114 C116 1.248 . S
Mg115 O114 2.028 . S
Mg115 O120 2.032 . S
Mg115 O122 2.079 . S
C116 O113 1.250 . S
C116 O114 1.248 . S
C117 O118 1.264 . S
C117 O125 1.249 . S
O118 C117 1.264 . S
O119 Mg112 1.986 . S
O119 C123 1.246 . S
O120 Mg115 2.032 . S
O120 C123 1.259 . S
O121 Mg112 2.114 . S
O121 C124 1.252 . S
O122 Mg112 2.251 . S
O122 Mg115 2.079 . S
O122 C124 1.273 . S
C123 O119 1.246 . S
C123 O120 1.259 . S
C124 O121 1.252 . S
C124 O122 1.273 . S
O125 Mg112 2.010 . S
O125 C117 1.249 . S
Mg126 O127 2.028 . S
Mg126 O133 1.986 . S
Mg126 O135 2.114 . S
Mg126 O136 2.251 . S
Mg126 O139 2.010 . S
O127 Mg126 2.028 . S
O127 C130 1.250 . S
O128 Mg129 2.028 . S
O128 C130 1.248 . S
Mg129 O128 2.028 . S
Mg129 O134 2.032 . S
Mg129 O136 2.079 . S
C130 O127 1.250 . S
C130 O128 1.248 . S
C131 O132 1.264 . S
C131 O139 1.249 . S
O132 C131 1.264 . S
O133 Mg126 1.986 . S
O133 C137 1.246 . S
O134 Mg129 2.032 . S
O134 C137 1.259 . S
O135 Mg126 2.114 . S
O135 C138 1.252 . S
O136 Mg126 2.251 . S
O136 Mg129 2.079 . S
O136 C138 1.273 . S
C137 O133 1.246 . S
C137 O134 1.259 . S
C138 O135 1.252 . S
C138 O136 1.273 . S
O139 Mg126 2.010 . S
O139 C131 1.249 . S
Mg140 O141 2.028 . S
Mg140 O147 1.986 . S
Mg140 O149 2.114 . S
Mg140 O150 2.251 . S
Mg140 O153 2.010 . S
O141 Mg140 2.028 . S
O141 C144 1.250 . S
O142 Mg143 2.028 . S
O142 C144 1.248 . S
Mg143 O142 2.028 . S
Mg143 O148 2.032 . S
Mg143 O150 2.079 . S
C144 O141 1.250 . S
C144 O142 1.248 . S
C145 O146 1.264 . S
C145 O153 1.249 . S
O146 C145 1.264 . S
O147 Mg140 1.986 . S
O147 C151 1.246 . S
O148 Mg143 2.032 . S
O148 C151 1.259 . S
O149 Mg140 2.114 . S
O149 C152 1.252 . S
O150 Mg140 2.251 . S
O150 Mg143 2.079 . S
O150 C152 1.273 . S
C151 O147 1.246 . S
C151 O148 1.259 . S
C152 O149 1.252 . S
C152 O150 1.273 . S
O153 Mg140 2.010 . S
O153 C145 1.249 . S
Mg154 O155 2.028 . S
Mg154 O161 1.986 . S
Mg154 O163 2.114 . S
Mg154 O164 2.251 . S
Mg154 O167 2.010 . S
O155 Mg154 2.028 . S
O155 C158 1.250 . S
O156 Mg157 2.028 . S
O156 C158 1.248 . S
Mg157 O156 2.028 . S
Mg157 O162 2.032 . S
Mg157 O164 2.079 . S
C158 O155 1.250 . S
C158 O156 1.248 . S
C159 O160 1.264 . S
C159 O167 1.249 . S
O160 C159 1.264 . S
O161 Mg154 1.986 . S
O161 C165 1.246 . S
O162 Mg157 2.032 . S
O162 C165 1.259 . S
O163 Mg154 2.114 . S
O163 C166 1.252 . S
O164 Mg154 2.251 . S
O164 Mg157 2.079 . S
O164 C166 1.273 . S
C165 O161 1.246 . S
C165 O162 1.259 . S
C166 O163 1.252 . S
C166 O164 1.273 . S
O167 Mg154 2.010 . S
O167 C159 1.249 . S
C168 C169 1.349 . S
C168 C170 1.327 . S
C168 H193 0.950 . S
C169 C168 1.349 . S
C169 C185 1.349 . S
C170 C168 1.327 . S
C170 C189 1.429 . S
C170 H194 0.950 . S
C171 C188 1.574 . S
C171 C190 1.368 . S
C171 H195 0.949 . S
H172 C176 0.949 . S
C173 C174 1.349 . S
C173 C175 1.327 . S
C173 H196 0.950 . S
C174 C173 1.349 . S
C174 C186 1.349 . S
C175 C173 1.327 . S
C175 C191 1.429 . S
C175 H197 0.950 . S
C176 H172 0.949 . S
C176 C184 1.574 . S
C176 C192 1.368 . S
H177 C185 0.950 . S
H178 C183 0.950 . S
H179 C184 0.949 . S
H180 C186 0.950 . S
H181 C187 0.950 . S
H182 C188 0.949 . S
C183 H178 0.950 . S
C183 C185 1.327 . S
C183 C189 1.429 . S
C184 C176 1.574 . S
C184 H179 0.949 . S
C184 C190 1.368 . S
C185 C169 1.349 . S
C185 H177 0.950 . S
C185 C183 1.327 . S
C186 C174 1.349 . S
C186 H180 0.950 . S
C186 C187 1.327 . S
C187 H181 0.950 . S
C187 C186 1.327 . S
C187 C191 1.429 . S
C188 C171 1.574 . S
C188 H182 0.949 . S
C188 C192 1.368 . S
C189 C170 1.429 . S
C189 C183 1.429 . S
C189 C190 1.523 . S
C190 C171 1.368 . S
C190 C184 1.368 . S
C190 C189 1.523 . S
C191 C175 1.429 . S
C191 C187 1.429 . S
C191 C192 1.523 . S
C192 C176 1.368 . S
C192 C188 1.368 . S
C192 C191 1.523 . S
H193 C168 0.950 . S
H194 C170 0.950 . S
H195 C171 0.949 . S
H196 C173 0.950 . S
H197 C175 0.950 . S
C198 C199 1.349 . S
C198 C200 1.327 . S
C198 H223 0.950 . S
C199 C198 1.349 . S
C199 C215 1.349 . S
C200 C198 1.327 . S
C200 C219 1.429 . S
C200 H224 0.950 . S
C201 C218 1.574 . S
C201 C220 1.368 . S
C201 H225 0.949 . S
H202 C206 0.949 . S
C203 C204 1.349 . S
C203 C205 1.327 . S
C203 H226 0.950 . S
C204 C203 1.349 . S
C204 C216 1.349 . S
C205 C203 1.327 . S
C205 C221 1.429 . S
C205 H227 0.950 . S
C206 H202 0.949 . S
C206 C214 1.574 . S
C206 C222 1.368 . S
H207 C215 0.950 . S
H208 C213 0.950 . S
H209 C214 0.949 . S
H210 C216 0.950 . S
H211 C217 0.950 . S
H212 C218 0.949 . S
C213 H208 0.950 . S
C213 C215 1.327 . S
C213 C219 1.429 . S
C214 C206 1.574 . S
C214 H209 0.949 . S
C214 C220 1.368 . S
C215 C199 1.349 . S
C215 H207 0.950 . S
C215 C213 1.327 . S
C216 C204 1.349 . S
C216 H210 0.950 . S
C216 C217 1.327 . S
C217 H211 0.950 . S
C217 C216 1.327 . S
C217 C221 1.429 . S
C218 C201 1.574 . S
C218 H212 0.949 . S
C218 C222 1.368 . S
C219 C200 1.429 . S
C219 C213 1.429 . S
C219 C220 1.523 . S
C220 C201 1.368 . S
C220 C214 1.368 . S
C220 C219 1.523 . S
C221 C205 1.429 . S
C221 C217 1.429 . S
C221 C222 1.523 . S
C222 C206 1.368 . S
C222 C218 1.368 . S
C222 C221 1.523 . S
H223 C198 0.950 . S
H224 C200 0.950 . S
H225 C201 0.949 . S
H226 C203 0.950 . S
H227 C205 0.950 . S
C228 C229 1.349 . S
C228 C230 1.327 . S
C228 H253 0.950 . S
C229 C228 1.349 . S
C229 C245 1.349 . S
C230 C228 1.327 . S
C230 C249 1.429 . S
C230 H254 0.950 . S
C231 C248 1.574 . S
C231 C250 1.368 . S
C231 H255 0.949 . S
H232 C236 0.949 . S
C233 C234 1.349 . S
C233 C235 1.327 . S
C233 H256 0.950 . S
C234 C233 1.349 . S
C234 C246 1.349 . S
C235 C233 1.327 . S
C235 C251 1.429 . S
C235 H257 0.950 . S
C236 H232 0.949 . S
C236 C244 1.574 . S
C236 C252 1.368 . S
H237 C245 0.950 . S
H238 C243 0.950 . S
H239 C244 0.949 . S
H240 C246 0.950 . S
H241 C247 0.950 . S
H242 C248 0.949 . S
C243 H238 0.950 . S
C243 C245 1.327 . S
C243 C249 1.429 . S
C244 C236 1.574 . S
C244 H239 0.949 . S
C244 C250 1.368 . S
C245 C229 1.349 . S
C245 H237 0.950 . S
C245 C243 1.327 . S
C246 C234 1.349 . S
C246 H240 0.950 . S
C246 C247 1.327 . S
C247 H241 0.950 . S
C247 C246 1.327 . S
C247 C251 1.429 . S
C248 C231 1.574 . S
C248 H242 0.949 . S
C248 C252 1.368 . S
C249 C230 1.429 . S
C249 C243 1.429 . S
C249 C250 1.523 . S
C250 C231 1.368 . S
C250 C244 1.368 . S
C250 C249 1.523 . S
C251 C235 1.429 . S
C251 C247 1.429 . S
C251 C252 1.523 . S
C252 C236 1.368 . S
C252 C248 1.368 . S
C252 C251 1.523 . S
H253 C228 0.950 . S
H254 C230 0.950 . S
H255 C231 0.949 . S
H256 C233 0.950 . S
H257 C235 0.950 . S
C258 C259 1.349 . S
C258 C260 1.327 . S
C258 H283 0.950 . S
C259 C258 1.349 . S
C259 C275 1.349 . S
C260 C258 1.327 . S
C260 C279 1.429 . S
C260 H284 0.950 . S
C261 C278 1.574 . S
C261 C280 1.368 . S
C261 H285 0.949 . S
H262 C266 0.949 . S
C263 C264 1.349 . S
C263 C265 1.327 . S
C263 H286 0.950 . S
C264 C263 1.349 . S
C264 C276 1.349 . S
C265 C263 1.327 . S
C265 C281 1.429 . S
C265 H287 0.950 . S
C266 H262 0.949 . S
C266 C274 1.574 . S
C266 C282 1.368 . S
H267 C275 0.950 . S
H268 C273 0.950 . S
H269 C274 0.949 . S
H270 C276 0.950 . S
H271 C277 0.950 . S
H272 C278 0.949 . S
C273 H268 0.950 . S
C273 C275 1.327 . S
C273 C279 1.429 . S
C274 C266 1.574 . S
C274 H269 0.949 . S
C274 C280 1.368 . S
C275 C259 1.349 . S
C275 H267 0.950 . S
C275 C273 1.327 . S
C276 C264 1.349 . S
C276 H270 0.950 . S
C276 C277 1.327 . S
C277 H271 0.950 . S
C277 C276 1.327 . S
C277 C281 1.429 . S
C278 C261 1.574 . S
C278 H272 0.949 . S
C278 C282 1.368 . S
C279 C260 1.429 . S
C279 C273 1.429 . S
C279 C280 1.523 . S
C280 C261 1.368 . S
C280 C274 1.368 . S
C280 C279 1.523 . S
C281 C265 1.429 . S
C281 C277 1.429 . S
C281 C282 1.523 . S
C282 C266 1.368 . S
C282 C278 1.368 . S
C282 C281 1.523 . S
H283 C258 0.950 . S
H284 C260 0.950 . S
H285 C261 0.949 . S
H286 C263 0.950 . S
H287 C265 0.950 . S
C288 C289 1.349 . S
C288 C290 1.327 . S
C288 H313 0.950 . S
C289 C288 1.349 . S
C289 C305 1.349 . S
C290 C288 1.327 . S
C290 C309 1.429 . S
C290 H314 0.950 . S
C291 C308 1.574 1_554 S
C291 C310 1.368 . S
C291 H315 0.949 . S
H292 C296 0.949 . S
C293 C294 1.349 . S
C293 C295 1.327 . S
C293 H316 0.950 . S
C294 C293 1.349 . S
C294 C306 1.349 . S
C295 C293 1.327 . S
C295 C311 1.429 . S
C295 H317 0.950 . S
C296 H292 0.949 . S
C296 C304 1.574 . S
C296 C312 1.368 . S
H297 C305 0.950 . S
H298 C303 0.950 . S
H299 C304 0.949 . S
H300 C306 0.950 . S
H301 C307 0.950 . S
H302 C308 0.949 . S
C303 H298 0.950 . S
C303 C305 1.327 . S
C303 C309 1.429 . S
C304 C296 1.574 . S
C304 H299 0.949 . S
C304 C310 1.368 1_556 S
C305 C289 1.349 . S
C305 H297 0.950 . S
C305 C303 1.327 . S
C306 C294 1.349 . S
C306 H300 0.950 . S
C306 C307 1.327 . S
C307 H301 0.950 . S
C307 C306 1.327 . S
C307 C311 1.429 . S
C308 C291 1.574 1_556 S
C308 H302 0.949 . S
C308 C312 1.368 . S
C309 C290 1.429 . S
C309 C303 1.429 . S
C309 C310 1.523 . S
C310 C291 1.368 . S
C310 C304 1.368 1_554 S
C310 C309 1.523 . S
C311 C295 1.429 . S
C311 C307 1.429 . S
C311 C312 1.523 . S
C312 C296 1.368 . S
C312 C308 1.368 . S
C312 C311 1.523 . S
H313 C288 0.950 . S
H314 C290 0.950 . S
H315 C291 0.949 . S
H316 C293 0.950 . S
H317 C295 0.950 . S
C318 C319 1.349 . S
C318 C320 1.327 . S
C318 H343 0.950 . S
C319 C318 1.349 . S
C319 C335 1.349 . S
C320 C318 1.327 . S
C320 C339 1.429 . S
C320 H344 0.950 . S
C321 C338 1.574 . S
C321 C340 1.368 . S
C321 H345 0.949 . S
H322 C326 0.949 . S
C323 C324 1.349 . S
C323 C325 1.327 . S
C323 H346 0.950 1_554 S
C324 C323 1.349 . S
C324 C336 1.349 . S
C325 C323 1.327 . S
C325 C341 1.429 . S
C325 H347 0.950 . S
C326 H322 0.949 . S
C326 C334 1.574 . S
C326 C342 1.368 . S
H327 C335 0.950 . S
H328 C333 0.950 . S
H329 C334 0.949 . S
H330 C336 0.950 . S
H331 C337 0.950 . S
H332 C338 0.949 . S
C333 H328 0.950 . S
C333 C335 1.327 . S
C333 C339 1.429 . S
C334 C326 1.574 . S
C334 H329 0.949 . S
C334 C340 1.368 . S
C335 C319 1.349 . S
C335 H327 0.950 . S
C335 C333 1.327 . S
C336 C324 1.349 . S
C336 H330 0.950 . S
C336 C337 1.327 . S
C337 H331 0.950 . S
C337 C336 1.327 . S
C337 C341 1.429 . S
C338 C321 1.574 . S
C338 H332 0.949 . S
C338 C342 1.368 . S
C339 C320 1.429 . S
C339 C333 1.429 . S
C339 C340 1.523 . S
C340 C321 1.368 . S
C340 C334 1.368 . S
C340 C339 1.523 . S
C341 C325 1.429 . S
C341 C337 1.429 . S
C341 C342 1.523 . S
C342 C326 1.368 . S
C342 C338 1.368 . S
C342 C341 1.523 . S
H343 C318 0.950 . S
H344 C320 0.950 . S
H345 C321 0.949 . S
H346 C323 0.950 1_556 S
H347 C325 0.950 . S
C348 C349 1.349 . S
C348 C350 1.327 . S
C348 H373 0.950 . S
C349 C348 1.349 . S
C349 C365 1.349 . S
C350 C348 1.327 . S
C350 C369 1.429 . S
C350 H374 0.950 . S
C351 C368 1.574 . S
C351 C370 1.368 . S
C351 H375 0.949 . S
H352 C356 0.949 . S
C353 C354 1.349 . S
C353 C355 1.327 . S
C353 H376 0.950 . S
C354 C353 1.349 . S
C354 C366 1.349 . S
C355 C353 1.327 . S
C355 C371 1.429 . S
C355 H377 0.950 . S
C356 H352 0.949 . S
C356 C364 1.574 . S
C356 C372 1.368 . S
H357 C365 0.950 . S
H358 C363 0.950 . S
H359 C364 0.949 . S
H360 C366 0.950 . S
H361 C367 0.950 . S
H362 C368 0.949 . S
C363 H358 0.950 . S
C363 C365 1.327 . S
C363 C369 1.429 . S
C364 C356 1.574 . S
C364 H359 0.949 . S
C364 C370 1.368 . S
C365 C349 1.349 . S
C365 H357 0.950 . S
C365 C363 1.327 . S
C366 C354 1.349 . S
C366 H360 0.950 . S
C366 C367 1.327 . S
C367 H361 0.950 . S
C367 C366 1.327 . S
C367 C371 1.429 . S
C368 C351 1.574 . S
C368 H362 0.949 . S
C368 C372 1.368 . S
C369 C350 1.429 . S
C369 C363 1.429 . S
C369 C370 1.523 . S
C370 C351 1.368 . S
C370 C364 1.368 . S
C370 C369 1.523 . S
C371 C355 1.429 . S
C371 C367 1.429 . S
C371 C372 1.523 . S
C372 C356 1.368 . S
C372 C368 1.368 . S
C372 C371 1.523 . S
H373 C348 0.950 . S
H374 C350 0.950 . S
H375 C351 0.949 . S
H376 C353 0.950 . S
H377 C355 0.950 . S
C378 C379 1.349 . S
C378 C380 1.327 . S
C378 H403 0.950 . S
C379 C378 1.349 . S
C379 C395 1.349 . S
C380 C378 1.327 . S
C380 C399 1.429 . S
C380 H404 0.950 . S
C381 C398 1.574 . S
C381 C400 1.368 . S
C381 H405 0.949 . S
H382 C386 0.949 . S
C383 C384 1.349 . S
C383 C385 1.327 . S
C383 H406 0.950 . S
C384 C383 1.349 . S
C384 C396 1.349 . S
C385 C383 1.327 . S
C385 C401 1.429 . S
C385 H407 0.950 . S
C386 H382 0.949 . S
C386 C394 1.574 . S
C386 C402 1.368 . S
H387 C395 0.950 . S
H388 C393 0.950 . S
H389 C394 0.949 . S
H390 C396 0.950 . S
H391 C397 0.950 . S
H392 C398 0.949 . S
C393 H388 0.950 . S
C393 C395 1.327 . S
C393 C399 1.429 . S
C394 C386 1.574 . S
C394 H389 0.949 . S
C394 C400 1.368 . S
C395 C379 1.349 . S
C395 H387 0.950 . S
C395 C393 1.327 . S
C396 C384 1.349 . S
C396 H390 0.950 . S
C396 C397 1.327 . S
C397 H391 0.950 . S
C397 C396 1.327 . S
C397 C401 1.429 . S
C398 C381 1.574 . S
C398 H392 0.949 . S
C398 C402 1.368 . S
C399 C380 1.429 . S
C399 C393 1.429 . S
C399 C400 1.523 . S
C400 C381 1.368 . S
C400 C394 1.368 . S
C400 C399 1.523 . S
C401 C385 1.429 . S
C401 C397 1.429 . S
C401 C402 1.523 . S
C402 C386 1.368 . S
C402 C398 1.368 . S
C402 C401 1.523 . S
H403 C378 0.950 . S
H404 C380 0.950 . S
H405 C381 0.949 . S
H406 C383 0.950 . S
H407 C385 0.950 . S
C408 C409 1.349 . S
C408 C410 1.327 . S
C408 H433 0.950 . S
C409 C408 1.349 . S
C409 C425 1.349 . S
C410 C408 1.327 . S
C410 C429 1.429 . S
C410 H434 0.950 . S
C411 C428 1.574 . S
C411 C430 1.368 . S
C411 H435 0.949 . S
H412 C416 0.949 . S
C413 C414 1.349 . S
C413 C415 1.327 . S
C413 H436 0.950 . S
C414 C413 1.349 . S
C414 C426 1.349 . S
C415 C413 1.327 . S
C415 C431 1.429 . S
C415 H437 0.950 . S
C416 H412 0.949 . S
C416 C424 1.574 . S
C416 C432 1.368 . S
H417 C425 0.950 . S
H418 C423 0.950 . S
H419 C424 0.949 . S
H420 C426 0.950 . S
H421 C427 0.950 . S
H422 C428 0.949 . S
C423 H418 0.950 . S
C423 C425 1.327 . S
C423 C429 1.429 . S
C424 C416 1.574 . S
C424 H419 0.949 . S
C424 C430 1.368 . S
C425 C409 1.349 . S
C425 H417 0.950 . S
C425 C423 1.327 . S
C426 C414 1.349 . S
C426 H420 0.950 . S
C426 C427 1.327 . S
C427 H421 0.950 . S
C427 C426 1.327 . S
C427 C431 1.429 . S
C428 C411 1.574 . S
C428 H422 0.949 . S
C428 C432 1.368 . S
C429 C410 1.429 . S
C429 C423 1.429 . S
C429 C430 1.523 . S
C430 C411 1.368 . S
C430 C424 1.368 . S
C430 C429 1.523 . S
C431 C415 1.429 . S
C431 C427 1.429 . S
C431 C432 1.523 . S
C432 C416 1.368 . S
C432 C428 1.368 . S
C432 C431 1.523 . S
H433 C408 0.950 . S
H434 C410 0.950 . S
H435 C411 0.949 . S
H436 C413 0.950 . S
H437 C415 0.950 . S
C438 C439 1.349 . S
C438 C440 1.327 . S
C438 H463 0.950 . S
C439 C438 1.349 . S
C439 C455 1.349 . S
C440 C438 1.327 . S
C440 C459 1.429 . S
C440 H464 0.950 . S
C441 C458 1.574 . S
C441 C460 1.368 . S
C441 H465 0.949 . S
H442 C446 0.949 . S
C443 C444 1.349 . S
C443 C445 1.327 . S
C443 H466 0.950 . S
C444 C443 1.349 . S
C444 C456 1.349 . S
C445 C443 1.327 . S
C445 C461 1.429 . S
C445 H467 0.950 . S
C446 H442 0.949 . S
C446 C454 1.574 . S
C446 C462 1.368 . S
H447 C455 0.950 . S
H448 C453 0.950 . S
H449 C454 0.949 . S
H450 C456 0.950 . S
H451 C457 0.950 . S
H452 C458 0.949 . S
C453 H448 0.950 . S
C453 C455 1.327 . S
C453 C459 1.429 . S
C454 C446 1.574 . S
C454 H449 0.949 . S
C454 C460 1.368 . S
C455 C439 1.349 . S
C455 H447 0.950 . S
C455 C453 1.327 . S
C456 C444 1.349 . S
C456 H450 0.950 . S
C456 C457 1.327 . S
C457 H451 0.950 . S
C457 C456 1.327 . S
C457 C461 1.429 . S
C458 C441 1.574 . S
C458 H452 0.949 . S
C458 C462 1.368 . S
C459 C440 1.429 . S
C459 C453 1.429 . S
C459 C460 1.523 . S
C460 C441 1.368 . S
C460 C454 1.368 . S
C460 C459 1.523 . S
C461 C445 1.429 . S
C461 C457 1.429 . S
C461 C462 1.523 . S
C462 C446 1.368 . S
C462 C458 1.368 . S
C462 C461 1.523 . S
H463 C438 0.950 . S
H464 C440 0.950 . S
H465 C441 0.949 . S
H466 C443 0.950 . S
H467 C445 0.950 . S
C468 C469 1.349 . S
C468 C470 1.327 . S
C468 H493 0.950 . S
C469 C468 1.349 . S
C469 C485 1.349 . S
C470 C468 1.327 . S
C470 C489 1.429 . S
C470 H494 0.950 . S
C471 C488 1.574 . S
C471 C490 1.368 . S
C471 H495 0.949 . S
H472 C476 0.949 . S
C473 C474 1.349 . S
C473 C475 1.327 . S
C473 H496 0.950 . S
C474 C473 1.349 . S
C474 C486 1.349 . S
C475 C473 1.327 . S
C475 C491 1.429 . S
C475 H497 0.950 . S
C476 H472 0.949 . S
C476 C484 1.574 . S
C476 C492 1.368 . S
H477 C485 0.950 . S
H478 C483 0.950 . S
H479 C484 0.949 . S
H480 C486 0.950 . S
H481 C487 0.950 . S
H482 C488 0.949 . S
C483 H478 0.950 . S
C483 C485 1.327 . S
C483 C489 1.429 . S
C484 C476 1.574 . S
C484 H479 0.949 . S
C484 C490 1.368 . S
C485 C469 1.349 . S
C485 H477 0.950 . S
C485 C483 1.327 . S
C486 C474 1.349 . S
C486 H480 0.950 . S
C486 C487 1.327 . S
C487 H481 0.950 . S
C487 C486 1.327 . S
C487 C491 1.429 . S
C488 C471 1.574 . S
C488 H482 0.949 . S
C488 C492 1.368 . S
C489 C470 1.429 . S
C489 C483 1.429 . S
C489 C490 1.523 . S
C490 C471 1.368 . S
C490 C484 1.368 . S
C490 C489 1.523 . S
C491 C475 1.429 . S
C491 C487 1.429 . S
C491 C492 1.523 . S
C492 C476 1.368 . S
C492 C488 1.368 . S
C492 C491 1.523 . S
H493 C468 0.950 . S
H494 C470 0.950 . S
H495 C471 0.949 . S
H496 C473 0.950 . S
H497 C475 0.950 . S
C498 C499 1.349 . S
C498 C500 1.327 . S
C498 H523 0.950 . S
C499 C498 1.349 . S
C499 C515 1.349 . S
C500 C498 1.327 . S
C500 C519 1.429 . S
C500 H524 0.962 . S
C501 C518 1.574 . S
C501 C520 1.368 . S
C501 H525 0.949 . S
H502 C506 0.949 . S
C503 C504 1.349 . S
C503 C505 1.327 . S
C503 H526 0.950 . S
C504 C503 1.349 . S
C504 C516 1.349 . S
C505 C503 1.327 . S
C505 C521 1.429 . S
C505 H527 0.950 1_554 S
C506 H502 0.949 . S
C506 C514 1.574 . S
C506 C522 1.368 . S
H507 C515 0.950 . S
H508 C513 0.950 . S
H509 C514 0.949 . S
H510 C516 0.950 . S
H511 C517 0.950 . S
H512 C518 0.949 . S
C513 H508 0.950 . S
C513 C515 1.327 . S
C513 C519 1.429 . S
C514 C506 1.574 . S
C514 H509 0.949 . S
C514 C520 1.368 1_554 S
C515 C499 1.349 . S
C515 H507 0.950 . S
C515 C513 1.327 . S
C516 C504 1.349 . S
C516 H510 0.950 . S
C516 C517 1.327 . S
C517 H511 0.950 . S
C517 C516 1.327 . S
C517 C521 1.429 . S
C518 C501 1.574 . S
C518 H512 0.949 . S
C518 C522 1.368 1_556 S
C519 C500 1.429 . S
C519 C513 1.429 . S
C519 C520 1.523 . S
C520 C501 1.368 . S
C520 C514 1.368 1_556 S
C520 C519 1.523 . S
C521 C505 1.429 . S
C521 C517 1.429 . S
C521 C522 1.523 . S
C522 C506 1.368 . S
C522 C518 1.368 1_554 S
C522 C521 1.523 . S
H523 C498 0.950 . S
H524 C500 0.962 . S
H525 C501 0.949 . S
H526 C503 0.950 . S
H527 C505 0.950 1_556 S
C528 C529 1.349 . S
C528 C530 1.327 . S
C528 H553 0.950 . S
C529 C528 1.349 . S
C529 C545 1.349 . S
C530 C528 1.327 . S
C530 C549 1.429 . S
C530 H554 0.950 . S
C531 C548 1.574 . S
C531 C550 1.368 . S
C531 H555 0.949 . S
H532 C536 0.949 . S
C533 C534 1.349 . S
C533 C535 1.327 . S
C533 H556 0.950 . S
C534 C533 1.349 . S
C534 C546 1.349 . S
C535 C533 1.327 . S
C535 C551 1.429 . S
C535 H557 0.950 . S
C536 H532 0.949 . S
C536 C544 1.574 . S
C536 C552 1.368 . S
H537 C545 0.950 . S
H538 C543 0.950 . S
H539 C544 0.949 . S
H540 C546 0.950 . S
H541 C547 0.950 . S
H542 C548 0.949 . S
C543 H538 0.950 . S
C543 C545 1.327 . S
C543 C549 1.429 . S
C544 C536 1.574 . S
C544 H539 0.949 . S
C544 C550 1.368 . S
C545 C529 1.349 . S
C545 H537 0.950 . S
C545 C543 1.327 . S
C546 C534 1.349 . S
C546 H540 0.950 . S
C546 C547 1.327 . S
C547 H541 0.950 . S
C547 C546 1.327 . S
C547 C551 1.429 . S
C548 C531 1.574 . S
C548 H542 0.949 . S
C548 C552 1.368 . S
C549 C530 1.429 . S
C549 C543 1.429 . S
C549 C550 1.523 . S
C550 C531 1.368 . S
C550 C544 1.368 . S
C550 C549 1.523 . S
C551 C535 1.429 . S
C551 C547 1.429 . S
C551 C552 1.523 . S
C552 C536 1.368 . S
C552 C548 1.368 . S
C552 C551 1.523 . S
H553 C528 0.950 . S
H554 C530 0.950 . S
H555 C531 0.949 . S
H556 C533 0.950 . S
H557 C535 0.950 . S
C558 C559 1.349 . S
C558 C560 1.327 . S
C558 H583 0.950 . S
C559 C558 1.349 . S
C559 C575 1.349 . S
C560 C558 1.327 . S
C560 C579 1.429 . S
C560 H584 0.950 . S
C561 C578 1.574 1_556 S
C561 C580 1.368 . S
C561 H585 0.949 . S
H562 C566 0.949 . S
C563 C564 1.349 . S
C563 C565 1.327 . S
C563 H586 0.950 . S
C564 C563 1.349 . S
C564 C576 1.349 . S
C565 C563 1.327 . S
C565 C581 1.429 . S
C565 H587 0.950 . S
C566 H562 0.949 . S
C566 C574 1.574 1_554 S
C566 C582 1.368 . S
H567 C575 0.950 . S
H568 C573 0.950 . S
H569 C574 0.949 . S
H570 C576 0.950 . S
H571 C577 0.950 . S
H572 C578 0.949 . S
C573 H568 0.950 . S
C573 C575 1.327 . S
C573 C579 1.429 . S
C574 C566 1.574 1_556 S
C574 H569 0.949 . S
C574 C580 1.368 . S
C575 C559 1.349 . S
C575 H567 0.950 . S
C575 C573 1.327 . S
C576 C564 1.349 . S
C576 H570 0.950 . S
C576 C577 1.327 . S
C577 H571 0.950 . S
C577 C576 1.327 . S
C577 C581 1.429 . S
C578 C561 1.574 1_554 S
C578 H572 0.949 . S
C578 C582 1.368 . S
C579 C560 1.429 . S
C579 C573 1.429 . S
C579 C580 1.523 . S
C580 C561 1.368 . S
C580 C574 1.368 . S
C580 C579 1.523 . S
C581 C565 1.429 . S
C581 C577 1.429 . S
C581 C582 1.523 . S
C582 C566 1.368 . S
C582 C578 1.368 . S
C582 C581 1.523 . S
H583 C558 0.950 . S
H584 C560 0.950 . S
H585 C561 0.949 . S
H586 C563 0.950 . S
H587 C565 0.950 . S
C588 C589 1.349 . S
C588 C590 1.327 . S
C588 H613 0.950 . S
C589 C588 1.349 . S
C589 C605 1.349 . S
C590 C588 1.327 . S
C590 C609 1.429 . S
C590 H614 0.950 . S
C591 C608 1.574 . S
C591 C610 1.368 . S
C591 H615 0.949 . S
H592 C596 0.949 . S
C593 C594 1.349 . S
C593 C595 1.327 . S
C593 H616 0.950 . S
C594 C593 1.349 . S
C594 C606 1.349 . S
C595 C593 1.327 . S
C595 C611 1.429 . S
C595 H617 0.950 . S
C596 H592 0.949 . S
C596 C604 1.574 . S
C596 C612 1.368 . S
H597 C605 0.950 1_556 S
H598 C603 0.950 . S
H599 C604 0.949 . S
H600 C606 0.950 . S
H601 C607 0.950 . S
H602 C608 0.949 . S
C603 H598 0.950 . S
C603 C605 1.327 . S
C603 C609 1.429 . S
C604 C596 1.574 . S
C604 H599 0.949 . S
C604 C610 1.368 . S
C605 C589 1.349 . S
C605 H597 0.950 1_554 S
C605 C603 1.327 . S
C606 C594 1.349 . S
C606 H600 0.950 . S
C606 C607 1.327 . S
C607 H601 0.950 . S
C607 C606 1.327 . S
C607 C611 1.429 . S
C608 C591 1.574 . S
C608 H602 0.949 . S
C608 C612 1.368 . S
C609 C590 1.429 . S
C609 C603 1.429 . S
C609 C610 1.523 . S
C610 C591 1.368 . S
C610 C604 1.368 . S
C610 C609 1.523 . S
C611 C595 1.429 . S
C611 C607 1.429 . S
C611 C612 1.523 . S
C612 C596 1.368 . S
C612 C608 1.368 . S
C612 C611 1.523 . S
H613 C588 0.950 . S
H614 C590 0.950 . S
H615 C591 0.949 . S
H616 C593 0.950 . S
H617 C595 0.950 . S
C618 C619 1.349 . S
C618 C620 1.327 . S
C618 H643 0.950 . S
C619 C618 1.349 . S
C619 C635 1.349 . S
C620 C618 1.327 . S
C620 C639 1.429 . S
C620 H644 0.950 . S
C621 C638 1.574 . S
C621 C640 1.368 . S
C621 H645 0.949 . S
H622 C626 0.949 . S
C623 C624 1.349 . S
C623 C625 1.327 . S
C623 H646 0.950 . S
C624 C623 1.349 . S
C624 C636 1.349 . S
C625 C623 1.327 . S
C625 C641 1.429 . S
C625 H647 0.950 . S
C626 H622 0.949 . S
C626 C634 1.574 . S
C626 C642 1.368 . S
H627 C635 0.950 . S
H628 C633 0.950 . S
H629 C634 0.949 . S
H630 C636 0.950 . S
H631 C637 0.950 . S
H632 C638 0.949 . S
C633 H628 0.950 . S
C633 C635 1.327 . S
C633 C639 1.429 . S
C634 C626 1.574 . S
C634 H629 0.949 . S
C634 C640 1.368 . S
C635 C619 1.349 . S
C635 H627 0.950 . S
C635 C633 1.327 . S
C636 C624 1.349 . S
C636 H630 0.950 . S
C636 C637 1.327 . S
C637 H631 0.950 . S
C637 C636 1.327 . S
C637 C641 1.429 . S
C638 C621 1.574 . S
C638 H632 0.949 . S
C638 C642 1.368 . S
C639 C620 1.429 . S
C639 C633 1.429 . S
C639 C640 1.523 . S
C640 C621 1.368 . S
C640 C634 1.368 . S
C640 C639 1.523 . S
C641 C625 1.429 . S
C641 C637 1.429 . S
C641 C642 1.523 . S
C642 C626 1.368 . S
C642 C638 1.368 . S
C642 C641 1.523 . S
H643 C618 0.950 . S
H644 C620 0.950 . S
H645 C621 0.949 . S
H646 C623 0.950 . S
H647 C625 0.950 . S
C648 C649 1.349 . S
C648 C650 1.327 . S
C648 H673 0.950 . S
C649 C648 1.349 . S
C649 C665 1.349 . S
C650 C648 1.327 . S
C650 C669 1.429 . S
C650 H674 0.950 . S
C651 C668 1.574 . S
C651 C670 1.368 . S
C651 H675 0.949 . S
H652 C656 0.949 . S
C653 C654 1.349 . S
C653 C655 1.327 . S
C653 H676 0.950 . S
C654 C653 1.349 . S
C654 C666 1.349 . S
C655 C653 1.327 . S
C655 C671 1.429 . S
C655 H677 0.950 . S
C656 H652 0.949 . S
C656 C664 1.574 . S
C656 C672 1.368 . S
H657 C665 0.950 . S
H658 C663 0.950 . S
H659 C664 0.949 . S
H660 C666 0.950 . S
H661 C667 0.950 . S
H662 C668 0.949 . S
C663 H658 0.950 . S
C663 C665 1.327 . S
C663 C669 1.429 . S
C664 C656 1.574 . S
C664 H659 0.949 . S
C664 C670 1.368 . S
C665 C649 1.349 . S
C665 H657 0.950 . S
C665 C663 1.327 . S
C666 C654 1.349 . S
C666 H660 0.950 . S
C666 C667 1.327 . S
C667 H661 0.950 . S
C667 C666 1.327 . S
C667 C671 1.429 . S
C668 C651 1.574 . S
C668 H662 0.949 . S
C668 C672 1.368 . S
C669 C650 1.429 . S
C669 C663 1.429 . S
C669 C670 1.523 . S
C670 C651 1.368 . S
C670 C664 1.368 . S
C670 C669 1.523 . S
C671 C655 1.429 . S
C671 C667 1.429 . S
C671 C672 1.523 . S
C672 C656 1.368 . S
C672 C668 1.368 . S
C672 C671 1.523 . S
H673 C648 0.950 . S
H674 C650 0.950 . S
H675 C651 0.949 . S
H676 C653 0.950 . S
H677 C655 0.950 . S
C678 C679 1.349 . S
C678 C680 1.327 . S
C678 H703 0.950 . S
C679 C678 1.349 . S
C679 C695 1.349 . S
C680 C678 1.327 . S
C680 C699 1.429 . S
C680 H704 0.950 . S
C681 C698 1.574 . S
C681 C700 1.368 . S
C681 H705 0.949 . S
H682 C686 0.949 . S
C683 C684 1.349 . S
C683 C685 1.327 . S
C683 H706 0.950 . S
C684 C683 1.349 . S
C684 C696 1.349 . S
C685 C683 1.327 . S
C685 C701 1.429 . S
C685 H707 0.950 . S
C686 H682 0.949 . S
C686 C694 1.574 . S
C686 C702 1.368 . S
H687 C695 0.950 . S
H688 C693 0.950 . S
H689 C694 0.949 . S
H690 C696 0.950 . S
H691 C697 0.950 . S
H692 C698 0.949 . S
C693 H688 0.950 . S
C693 C695 1.327 . S
C693 C699 1.429 . S
C694 C686 1.574 . S
C694 H689 0.949 . S
C694 C700 1.368 . S
C695 C679 1.349 . S
C695 H687 0.950 . S
C695 C693 1.327 . S
C696 C684 1.349 . S
C696 H690 0.950 . S
C696 C697 1.327 . S
C697 H691 0.950 . S
C697 C696 1.327 . S
C697 C701 1.429 . S
C698 C681 1.574 . S
C698 H692 0.949 . S
C698 C702 1.368 . S
C699 C680 1.429 . S
C699 C693 1.429 . S
C699 C700 1.523 . S
C700 C681 1.368 . S
C700 C694 1.368 . S
C700 C699 1.523 . S
C701 C685 1.429 . S
C701 C697 1.429 . S
C701 C702 1.523 . S
C702 C686 1.368 . S
C702 C698 1.368 . S
C702 C701 1.523 . S
H703 C678 0.950 . S
H704 C680 0.950 . S
H705 C681 0.949 . S
H706 C683 0.950 . S
H707 C685 0.950 . S
C708 C709 1.349 . S
C708 C710 1.327 . S
C708 H733 0.950 . S
C709 C708 1.349 . S
C709 C725 1.349 . S
C710 C708 1.327 . S
C710 C729 1.429 . S
C710 H734 0.950 . S
C711 C728 1.574 1_545 S
C711 C730 1.368 . S
C711 H735 0.949 . S
H712 C716 0.949 . S
C713 C714 1.349 . S
C713 C715 1.327 . S
C713 H736 0.950 . S
C714 C713 1.349 . S
C714 C726 1.349 . S
C715 C713 1.327 . S
C715 C731 1.429 . S
C715 H737 0.950 . S
C716 H712 0.949 . S
C716 C724 1.574 1_565 S
C716 C732 1.368 . S
H717 C725 0.950 . S
H718 C723 0.950 . S
H719 C724 0.949 . S
H720 C726 0.950 . S
H721 C727 0.950 . S
H722 C728 0.949 . S
C723 H718 0.950 . S
C723 C725 1.327 . S
C723 C729 1.429 . S
C724 C716 1.574 1_545 S
C724 H719 0.949 . S
C724 C730 1.368 . S
C725 C709 1.349 . S
C725 H717 0.950 . S
C725 C723 1.327 . S
C726 C714 1.349 . S
C726 H720 0.950 . S
C726 C727 1.327 . S
C727 H721 0.950 . S
C727 C726 1.327 . S
C727 C731 1.429 . S
C728 C711 1.574 1_565 S
C728 H722 0.949 . S
C728 C732 1.368 . S
C729 C710 1.429 . S
C729 C723 1.429 . S
C729 C730 1.523 . S
C730 C711 1.368 . S
C730 C724 1.368 . S
C730 C729 1.523 . S
C731 C715 1.429 . S
C731 C727 1.429 . S
C731 C732 1.523 . S
C732 C716 1.368 . S
C732 C728 1.368 . S
C732 C731 1.523 . S
H733 C708 0.950 . S
H734 C710 0.950 . S
H735 C711 0.949 . S
H736 C713 0.950 . S
H737 C715 0.950 . S
C738 C739 1.349 . S
C738 C740 1.327 . S
C738 H763 0.950 . S
C739 C738 1.349 . S
C739 C755 1.349 . S
C740 C738 1.327 . S
C740 C759 1.429 . S
C740 H764 0.950 . S
C741 C758 1.574 . S
C741 C760 1.368 . S
C741 H765 0.949 . S
H742 C746 0.949 . S
C743 C744 1.349 . S
C743 C745 1.327 . S
C743 H766 0.950 . S
C744 C743 1.349 . S
C744 C756 1.349 . S
C745 C743 1.327 . S
C745 C761 1.429 . S
C745 H767 0.950 . S
C746 H742 0.949 . S
C746 C754 1.574 . S
C746 C762 1.368 . S
H747 C755 0.950 . S
H748 C753 0.950 . S
H749 C754 0.949 . S
H750 C756 0.950 . S
H751 C757 0.950 . S
H752 C758 0.949 . S
C753 H748 0.950 . S
C753 C755 1.327 . S
C753 C759 1.429 . S
C754 C746 1.574 . S
C754 H749 0.949 . S
C754 C760 1.368 . S
C755 C739 1.349 . S
C755 H747 0.950 . S
C755 C753 1.327 . S
C756 C744 1.349 . S
C756 H750 0.950 . S
C756 C757 1.327 . S
C757 H751 0.950 . S
C757 C756 1.327 . S
C757 C761 1.429 . S
C758 C741 1.574 . S
C758 H752 0.949 . S
C758 C762 1.368 . S
C759 C740 1.429 . S
C759 C753 1.429 . S
C759 C760 1.523 . S
C760 C741 1.368 . S
C760 C754 1.368 . S
C760 C759 1.523 . S
C761 C745 1.429 . S
C761 C757 1.429 . S
C761 C762 1.523 . S
C762 C746 1.368 . S
C762 C758 1.368 . S
C762 C761 1.523 . S
H763 C738 0.950 . S
H764 C740 0.950 . S
H765 C741 0.949 . S
H766 C743 0.950 . S
H767 C745 0.950 . S
C768 C769 1.349 . S
C768 C770 1.327 . S
C768 H793 0.950 . S
C769 C768 1.349 . S
C769 C785 1.349 . S
C770 C768 1.327 . S
C770 C789 1.429 . S
C770 H794 0.950 . S
C771 C788 1.574 1_455 S
C771 C790 1.368 . S
C771 H795 0.949 . S
H772 C776 0.949 . S
C773 C774 1.349 . S
C773 C775 1.327 . S
C773 H796 0.950 . S
C774 C773 1.349 . S
C774 C786 1.349 . S
C775 C773 1.327 . S
C775 C791 1.429 . S
C775 H797 0.950 . S
C776 H772 0.949 . S
C776 C784 1.574 1_655 S
C776 C792 1.368 . S
H777 C785 0.950 . S
H778 C783 0.950 . S
H779 C784 0.949 . S
H780 C786 0.950 . S
H781 C787 0.950 . S
H782 C788 0.949 . S
C783 H778 0.950 . S
C783 C785 1.327 . S
C783 C789 1.429 . S
C784 C776 1.574 1_455 S
C784 H779 0.949 . S
C784 C790 1.368 . S
C785 C769 1.349 . S
C785 H777 0.950 . S
C785 C783 1.327 . S
C786 C774 1.349 . S
C786 H780 0.950 . S
C786 C787 1.327 . S
C787 H781 0.950 . S
C787 C786 1.327 . S
C787 C791 1.429 . S
C788 C771 1.574 1_655 S
C788 H782 0.949 . S
C788 C792 1.368 . S
C789 C770 1.429 . S
C789 C783 1.429 . S
C789 C790 1.523 . S
C790 C771 1.368 . S
C790 C784 1.368 . S
C790 C789 1.523 . S
C791 C775 1.429 . S
C791 C787 1.429 . S
C791 C792 1.523 . S
C792 C776 1.368 . S
C792 C788 1.368 . S
C792 C791 1.523 . S
H793 C768 0.950 . S
H794 C770 0.950 . S
H795 C771 0.949 . S
H796 C773 0.950 . S
H797 C775 0.950 . S
C798 C799 1.349 . S
C798 C800 1.327 . S
C798 H823 0.950 . S
C799 C798 1.349 . S
C799 C815 1.349 . S
C800 C798 1.327 . S
C800 C819 1.429 . S
C800 H824 0.950 . S
C801 C818 1.574 1_565 S
C801 C820 1.368 . S
C801 H825 0.949 . S
H802 C806 0.949 . S
C803 C804 1.349 . S
C803 C805 1.327 . S
C803 H826 0.950 . S
C804 C803 1.349 . S
C804 C816 1.349 . S
C805 C803 1.327 . S
C805 C821 1.429 . S
C805 H827 0.950 . S
C806 H802 0.949 . S
C806 C814 1.574 1_545 S
C806 C822 1.368 . S
H807 C815 0.950 . S
H808 C813 0.950 . S
H809 C814 0.949 . S
H810 C816 0.950 . S
H811 C817 0.950 . S
H812 C818 0.949 . S
C813 H808 0.950 . S
C813 C815 1.327 . S
C813 C819 1.429 . S
C814 C806 1.574 1_565 S
C814 H809 0.949 . S
C814 C820 1.368 . S
C815 C799 1.349 . S
C815 H807 0.950 . S
C815 C813 1.327 . S
C816 C804 1.349 . S
C816 H810 0.950 . S
C816 C817 1.327 . S
C817 H811 0.950 . S
C817 C816 1.327 . S
C817 C821 1.429 . S
C818 C801 1.574 1_545 S
C818 H812 0.949 . S
C818 C822 1.368 . S
C819 C800 1.429 . S
C819 C813 1.429 . S
C819 C820 1.523 . S
C820 C801 1.368 . S
C820 C814 1.368 . S
C820 C819 1.523 . S
C821 C805 1.429 . S
C821 C817 1.429 . S
C821 C822 1.523 . S
C822 C806 1.368 . S
C822 C818 1.368 . S
C822 C821 1.523 . S
H823 C798 0.950 . S
H824 C800 0.950 . S
H825 C801 0.949 . S
H826 C803 0.950 . S
H827 C805 0.950 . S
C828 C829 1.349 . S
C828 C830 1.327 . S
C828 H853 0.950 . S
C829 C828 1.349 . S
C829 C845 1.349 . S
C830 C828 1.327 . S
C830 C849 1.429 . S
C830 H854 0.950 . S
C831 C848 1.574 . S
C831 C850 1.368 . S
C831 H855 0.949 . S
H832 C836 0.949 . S
C833 C834 1.349 . S
C833 C835 1.327 . S
C833 H856 0.950 . S
C834 C833 1.349 . S
C834 C846 1.349 . S
C835 C833 1.327 . S
C835 C851 1.429 . S
C835 H857 0.950 . S
C836 H832 0.949 . S
C836 C844 1.574 . S
C836 C852 1.368 . S
H837 C845 0.950 . S
H838 C843 0.950 . S
H839 C844 0.949 . S
H840 C846 0.950 . S
H841 C847 0.950 . S
H842 C848 0.949 . S
C843 H838 0.950 . S
C843 C845 1.327 . S
C843 C849 1.429 . S
C844 C836 1.574 . S
C844 H839 0.949 . S
C844 C850 1.368 . S
C845 C829 1.349 . S
C845 H837 0.950 . S
C845 C843 1.327 . S
C846 C834 1.349 . S
C846 H840 0.950 . S
C846 C847 1.327 . S
C847 H841 0.950 . S
C847 C846 1.327 . S
C847 C851 1.429 . S
C848 C831 1.574 . S
C848 H842 0.949 . S
C848 C852 1.368 . S
C849 C830 1.429 . S
C849 C843 1.429 . S
C849 C850 1.523 . S
C850 C831 1.368 . S
C850 C844 1.368 . S
C850 C849 1.523 . S
C851 C835 1.429 . S
C851 C847 1.429 . S
C851 C852 1.523 . S
C852 C836 1.368 . S
C852 C848 1.368 . S
C852 C851 1.523 . S
H853 C828 0.950 . S
H854 C830 0.950 . S
H855 C831 0.949 . S
H856 C833 0.950 . S
H857 C835 0.950 . S
C858 C859 1.349 . S
C858 C860 1.327 . S
C858 H883 0.950 . S
C859 C858 1.349 . S
C859 C875 1.349 . S
C860 C858 1.327 . S
C860 C879 1.429 . S
C860 H884 0.950 . S
C861 C878 1.574 1_455 S
C861 C880 1.368 . S
C861 H885 0.949 . S
H862 C866 0.949 . S
C863 C864 1.349 . S
C863 C865 1.327 . S
C863 H886 0.950 . S
C864 C863 1.349 . S
C864 C876 1.349 . S
C865 C863 1.327 . S
C865 C881 1.429 . S
C865 H887 0.950 . S
C866 H862 0.949 . S
C866 C874 1.574 1_655 S
C866 C882 1.368 . S
H867 C875 0.950 . S
H868 C873 0.950 . S
H869 C874 0.949 . S
H870 C876 0.950 . S
H871 C877 0.950 . S
H872 C878 0.949 . S
C873 H868 0.950 . S
C873 C875 1.327 . S
C873 C879 1.429 . S
C874 C866 1.574 1_455 S
C874 H869 0.949 . S
C874 C880 1.368 . S
C875 C859 1.349 . S
C875 H867 0.950 . S
C875 C873 1.327 . S
C876 C864 1.349 . S
C876 H870 0.950 . S
C876 C877 1.327 . S
C877 H871 0.950 . S
C877 C876 1.327 . S
C877 C881 1.429 . S
C878 C861 1.574 1_655 S
C878 H872 0.949 . S
C878 C882 1.368 . S
C879 C860 1.429 . S
C879 C873 1.429 . S
C879 C880 1.523 . S
C880 C861 1.368 . S
C880 C874 1.368 . S
C880 C879 1.523 . S
C881 C865 1.429 . S
C881 C877 1.429 . S
C881 C882 1.523 . S
C882 C866 1.368 . S
C882 C878 1.368 . S
C882 C881 1.523 . S
H883 C858 0.950 . S
H884 C860 0.950 . S
H885 C861 0.949 . S
H886 C863 0.950 . S
H887 C865 0.950 . S
C169 C4 1.588 . S
C174 C144 1.588 . S
C199 C18 1.588 . S
C204 C158 1.588 . S
C229 C88 1.588 . S
C234 C32 1.588 . S
C259 C46 1.588 . S
C264 C102 1.588 1_556 S
C289 C116 1.588 . S
C294 C60 1.588 . S
C319 C130 1.588 . S
C324 C74 1.588 1_554 S
C349 C117 0.965 . S
C354 C5 0.965 . S
C379 C19 0.965 . S
C384 C131 0.965 . S
C409 C145 0.965 . S
C414 C33 0.965 . S
C439 C47 0.965 . S
C444 C159 0.965 . S
C469 C61 0.965 . S
C474 C89 0.965 . S
C499 C75 0.965 . S
C504 C103 0.965 . S
C529 C151 1.367 . S
C534 C11 1.367 1_556 S
C559 C165 1.367 . S
C564 C25 1.367 . S
C589 C95 1.367 1_554 S
C594 C39 1.367 . S
C619 C53 1.367 . S
C624 C109 1.367 . S
C649 C67 1.367 . S
C654 C123 1.367 . S
C679 C137 1.367 . S
C684 C81 1.367 . S
C709 C12 0.969 . S
C714 C110 0.969 . S
C739 C124 0.969 . S
C744 C26 0.969 . S
C769 C138 0.969 . S
C774 C40 0.969 . S
C799 C54 0.969 . S
C804 C152 0.969 . S
C829 C68 0.969 . S
C834 C166 0.969 . S
C859 C82 0.969 . S
C864 C96 0.969 . S
