# Generated by pormake.
# Topology vcm, (7)-cn, num edge types: 1
# Building blocks:
#     Node 0, Type 0, BuildingBlock: HICVOG_clean_sbu_0, # of connection points: 7
#     Node 1, Type 0, BuildingBlock: HICVOG_clean_sbu_0, # of connection points: 7
#     Node 2, Type 0, BuildingBlock: HICVOG_clean_sbu_0, # of connection points: 7
#     Node 3, Type 0, BuildingBlock: HICVOG_clean_sbu_0, # of connection points: 7
#     Node 4, Type 0, BuildingBlock: HICVOG_clean_sbu_0, # of connection points: 7
#     Node 5, Type 0, BuildingBlock: HICVOG_clean_sbu_0, # of connection points: 7
#     Node 6, Type 0, BuildingBlock: HICVOG_clean_sbu_0, # of connection points: 7
#     Node 7, Type 0, BuildingBlock: HICVOG_clean_sbu_0, # of connection points: 7
#     Edge 8, Type (0, 0), BuildingBlock: KIFKEQ_clean_linker_1, # of connection points: 2
#     Edge 9, Type (0, 0), BuildingBlock: KIFKEQ_clean_linker_1, # of connection points: 2
#     Edge 10, Type (0, 0), BuildingBlock: KIFKEQ_clean_linker_1, # of connection points: 2
#     Edge 11, Type (0, 0), BuildingBlock: KIFKEQ_clean_linker_1, # of connection points: 2
#     Edge 12, Type (0, 0), BuildingBlock: KIFKEQ_clean_linker_1, # of connection points: 2
#     Edge 13, Type (0, 0), BuildingBlock: KIFKEQ_clean_linker_1, # of connection points: 2
#     Edge 14, Type (0, 0), BuildingBlock: KIFKEQ_clean_linker_1, # of connection points: 2
#     Edge 15, Type (0, 0), BuildingBlock: KIFKEQ_clean_linker_1, # of connection points: 2
#     Edge 16, Type (0, 0), BuildingBlock: KIFKEQ_clean_linker_1, # of connection points: 2
#     Edge 17, Type (0, 0), BuildingBlock: KIFKEQ_clean_linker_1, # of connection points: 2
#     Edge 18, Type (0, 0), BuildingBlock: KIFKEQ_clean_linker_1, # of connection points: 2
#     Edge 19, Type (0, 0), BuildingBlock: KIFKEQ_clean_linker_1, # of connection points: 2
#     Edge 20, Type (0, 0), BuildingBlock: KIFKEQ_clean_linker_1, # of connection points: 2
#     Edge 21, Type (0, 0), BuildingBlock: KIFKEQ_clean_linker_1, # of connection points: 2
#     Edge 22, Type (0, 0), BuildingBlock: KIFKEQ_clean_linker_1, # of connection points: 2
#     Edge 23, Type (0, 0), BuildingBlock: KIFKEQ_clean_linker_1, # of connection points: 2
#     Edge 24, Type (0, 0), BuildingBlock: KIFKEQ_clean_linker_1, # of connection points: 2
#     Edge 25, Type (0, 0), BuildingBlock: KIFKEQ_clean_linker_1, # of connection points: 2
#     Edge 26, Type (0, 0), BuildingBlock: KIFKEQ_clean_linker_1, # of connection points: 2
#     Edge 27, Type (0, 0), BuildingBlock: KIFKEQ_clean_linker_1, # of connection points: 2
#     Edge 28, Type (0, 0), BuildingBlock: KIFKEQ_clean_linker_1, # of connection points: 2
#     Edge 29, Type (0, 0), BuildingBlock: KIFKEQ_clean_linker_1, # of connection points: 2
#     Edge 30, Type (0, 0), BuildingBlock: KIFKEQ_clean_linker_1, # of connection points: 2
#     Edge 31, Type (0, 0), BuildingBlock: KIFKEQ_clean_linker_1, # of connection points: 2
#     Edge 32, Type (0, 0), BuildingBlock: KIFKEQ_clean_linker_1, # of connection points: 2
#     Edge 33, Type (0, 0), BuildingBlock: KIFKEQ_clean_linker_1, # of connection points: 2
#     Edge 34, Type (0, 0), BuildingBlock: KIFKEQ_clean_linker_1, # of connection points: 2
#     Edge 35, Type (0, 0), BuildingBlock: KIFKEQ_clean_linker_1, # of connection points: 2
# Relax obj value: 0.270
# Max RMSD: 0.254
# Mean RMSD: 0.254
data_MOF--net-vcm--node1-HICVOG_clean_sbu_0--edge1-KIFKEQ_clean_linker_1
_symmetry_space_group_name_H-M    P1
_symmetry_Int_Tables_number       1
_symmetry_cell_setting            triclinic
loop_
_symmetry_equiv_pos_as_xyz
'x, y, z'
_cell_length_a     40.399602
_cell_length_b     34.211904
_cell_length_c     26.84807
_cell_angle_alpha  89.918039
_cell_angle_beta   90.102451
_cell_angle_gamma 89.997071
loop_
_atom_site_label
_atom_site_type_symbol
_atom_site_fract_x
_atom_site_fract_y
_atom_site_fract_z
_atom_type_partial_charge
Zn0 Zn 0.01526 0.30431 0.19267 0.0
C1 C 0.0595 0.37417 0.09518 0.0
N2 N 0.04414 0.35128 0.06187 0.0
C3 C 0.03291 0.32177 0.09015 0.0
N4 N 0.04117 0.32621 0.13861 0.0
N5 N 0.05843 0.35907 0.1417 0.0
C6 C 0.09616 0.44262 0.25417 0.0
O7 O 0.10889 0.41763 0.28606 0.0
O8 O 1.01091 0.24591 0.18591 0.0
Zn9 Zn 0.08927 0.37273 0.1949 0.0
N10 N 0.97178 0.32904 0.18963 0.0
C11 C 0.94104 0.38388 0.16045 0.0
C12 C 0.97107 0.36485 0.16759 0.0
C13 C 0.94337 0.31185 0.20632 0.0
N14 N 0.91278 0.36667 0.17636 0.0
C15 C 0.91284 0.33123 0.19947 0.0
O16 O 0.08231 0.34447 0.26044 0.0
C17 C 0.06067 0.32438 0.28346 0.0
O18 O 0.03497 0.31125 0.26161 0.0
H19 H 0.99366 0.37853 0.15514 0.0
H20 H 0.9445 0.28334 0.22376 0.0
C21 C 0.16096 0.37144 0.19792 0.0
C22 C 0.19276 0.36379 0.17886 0.0
C23 C 0.16839 0.33549 0.10704 0.0
C24 C 0.13701 0.3425 0.12641 0.0
N25 N 0.13376 0.36104 0.17096 0.0
N26 N 0.19544 0.34631 0.13356 0.0
H27 H 0.15787 0.38578 0.23346 0.0
C28 C 0.03728 0.22674 0.19452 0.0
O29 O 0.06503 0.24608 0.20127 0.0
O30 O 0.08635 0.43033 0.21191 0.0
H31 H 0.11554 0.33309 0.10579 0.0
H32 H 0.94016 0.41218 0.14247 0.0
H33 H 0.17125 0.32124 0.07137 0.0
Zn34 Zn 0.5112 0.63301 0.69471 0.0
C35 C 0.56678 0.68456 0.59029 0.0
N36 N 0.55544 0.65525 0.5618 0.0
C37 C 0.54083 0.63165 0.59507 0.0
N38 N 0.54243 0.64615 0.64183 0.0
N39 N 0.55929 0.67933 0.63887 0.0
C40 C 0.56474 0.77907 0.69399 0.0
O41 O 0.53672 0.76011 0.69988 0.0
O42 O 0.51068 0.57542 0.71154 0.0
Zn43 Zn 0.58569 0.70093 0.6929 0.0
N44 N 0.46736 0.64749 0.67119 0.0
C45 C 0.43309 0.67617 0.6088 0.0
C46 C 0.46439 0.66737 0.62747 0.0
C47 C 0.4401 0.63726 0.69795 0.0
N48 N 0.40592 0.66559 0.63513 0.0
C49 C 0.40842 0.64664 0.67958 0.0
O50 O 0.56542 0.69418 0.76109 0.0
C51 C 0.54037 0.68013 0.78355 0.0
O52 O 0.51885 0.6595 0.76106 0.0
H53 H 0.48603 0.67636 0.60698 0.0
H54 H 0.44315 0.62162 0.73273 0.0
C55 C 0.6564 0.68819 0.71556 0.0
C56 C 0.6853 0.66499 0.71619 0.0
C57 C 0.65735 0.61638 0.6692 0.0
C58 C 0.62874 0.63891 0.66942 0.0
N59 N 0.62858 0.67431 0.69249 0.0
N60 N 0.68471 0.62971 0.69287 0.0
H61 H 0.65564 0.71603 0.73462 0.0
C62 C 0.53525 0.55992 0.73371 0.0
O63 O 0.56193 0.58098 0.74168 0.0
O64 O 0.59101 0.75948 0.68628 0.0
H65 H 0.60666 0.62774 0.65193 0.0
H66 H 0.43039 0.69154 0.57379 0.0
H67 H 0.65767 0.58815 0.65111 0.0
Zn68 Zn 0.01573 0.702 0.84866 0.0
C69 C 0.05854 0.63179 0.94686 0.0
N70 N 0.04337 0.65506 0.97986 0.0
C71 C 0.03295 0.68494 0.95144 0.0
N72 N 0.04158 0.68036 0.9032 0.0
N73 N 0.0583 0.64709 0.90044 0.0
C74 C 0.09776 0.5632 0.78955 0.0
O75 O 0.11101 0.58821 0.75825 0.0
O76 O 1.01033 0.76038 0.85544 0.0
Zn77 Zn 0.08963 0.63319 0.84811 0.0
N78 N 0.97303 0.67529 0.84953 0.0
C79 C 0.94637 0.61515 0.86899 0.0
C80 C 0.97503 0.63712 0.86339 0.0
C81 C 0.94311 0.69221 0.83925 0.0
N82 N 0.91666 0.63201 0.85981 0.0
C83 C 0.91395 0.66989 0.84476 0.0
O84 O 0.08327 0.66119 0.78224 0.0
C85 C 0.06196 0.68176 0.75911 0.0
O86 O 0.03642 0.69538 0.78071 0.0
H87 H 0.9988 0.62381 0.87053 0.0
H88 H 0.942 0.72259 0.82807 0.0
C89 C 0.16114 0.63589 0.84522 0.0
C90 C 0.19295 0.64314 0.86457 0.0
C91 C 0.16871 0.66828 0.93823 0.0
C92 C 0.13729 0.66161 0.91863 0.0
N93 N 0.13398 0.64481 0.87295 0.0
N94 N 0.19573 0.65885 0.91091 0.0
H95 H 0.15801 0.62296 0.80882 0.0
C96 C 0.03671 0.7799 0.84839 0.0
O97 O 0.06474 0.76088 0.84296 0.0
O98 O 0.08697 0.57552 0.8312 0.0
H99 H 0.11585 0.66988 0.93996 0.0
H100 H 0.94767 0.58489 0.88059 0.0
H101 H 0.17162 0.68113 0.97476 0.0
Zn102 Zn 0.58651 0.30552 0.34778 0.0
C103 C 0.54247 0.37564 0.44514 0.0
N104 N 0.55812 0.35301 0.47854 0.0
C105 C 0.56954 0.32355 0.45045 0.0
N106 N 0.56107 0.32775 0.40201 0.0
N107 N 0.54356 0.36043 0.39873 0.0
C108 C 0.53703 0.44359 0.29942 0.0
O109 O 0.55947 0.41883 0.28341 0.0
O110 O 0.59116 0.24708 0.35485 0.0
Zn111 Zn 0.51255 0.37377 0.34552 0.0
N112 N 0.62981 0.33061 0.34944 0.0
C113 C 0.66007 0.38681 0.37506 0.0
C114 C 0.6302 0.36722 0.36909 0.0
C115 C 0.65837 0.31309 0.33398 0.0
N116 N 0.6885 0.36931 0.36039 0.0
C117 C 0.68874 0.33302 0.33963 0.0
O118 O 0.51912 0.34598 0.27955 0.0
C119 C 0.54072 0.32554 0.25699 0.0
O120 O 0.56619 0.31223 0.27929 0.0
H121 H 0.60746 0.3811 0.38053 0.0
H122 H 0.65747 0.28395 0.31842 0.0
C123 C 0.44115 0.37207 0.34249 0.0
C124 C 0.40934 0.36416 0.36137 0.0
C125 C 0.43367 0.33559 0.43318 0.0
C126 C 0.46505 0.34285 0.41401 0.0
N127 N 0.4683 0.36161 0.36954 0.0
N128 N 0.40663 0.34641 0.40657 0.0
H129 H 0.44437 0.38669 0.30706 0.0
C130 C 0.56489 0.22775 0.34617 0.0
O131 O 0.53706 0.24694 0.33935 0.0
O132 O 0.5144 0.43128 0.32836 0.0
H133 H 0.48655 0.33352 0.43469 0.0
H134 H 0.66071 0.41577 0.39116 0.0
H135 H 0.43078 0.32116 0.46879 0.0
Zn136 Zn 0.51599 0.80446 0.19023 0.0
C137 C 0.56404 0.87421 0.09503 0.0
N138 N 0.55111 0.84996 0.06093 0.0
C139 C 0.5383 0.8213 0.08909 0.0
N140 N 0.54305 0.82761 0.13821 0.0
N141 N 0.55968 0.86087 0.142 0.0
C142 C 0.56792 0.94461 0.24083 0.0
O143 O 0.54473 0.92064 0.25645 0.0
O144 O 0.51502 0.74571 0.1841 0.0
Zn145 Zn 0.58936 0.87366 0.19657 0.0
N146 N 0.47103 0.82467 0.18178 0.0
C147 C 0.43533 0.86728 0.13631 0.0
C148 C 0.46694 0.85383 0.14775 0.0
C149 C 0.44445 0.80938 0.20637 0.0
N150 N 0.40888 0.85159 0.15997 0.0
C151 C 0.41245 0.82316 0.195 0.0
O152 O 0.57905 0.84747 0.26215 0.0
C153 C 0.55699 0.82743 0.28426 0.0
O154 O 0.53223 0.81322 0.26104 0.0
H155 H 0.48797 0.86648 0.12904 0.0
H156 H 0.4481 0.7864 0.23358 0.0
C157 C 0.66094 0.8703 0.19872 0.0
C158 C 0.69213 0.85563 0.18422 0.0
C159 C 0.66533 0.81441 0.12537 0.0
C160 C 0.63469 0.82831 0.14069 0.0
N161 N 0.63303 0.85619 0.17664 0.0
N162 N 0.69313 0.82818 0.14752 0.0
H163 H 0.65855 0.89252 0.22704 0.0
C164 C 0.54137 0.7274 0.19547 0.0
O165 O 0.56831 0.74759 0.20509 0.0
O166 O 0.59029 0.93154 0.212 0.0
H167 H 0.61241 0.81666 0.12416 0.0
H168 H 0.43181 0.89007 0.10884 0.0
H169 H 0.66705 0.79241 0.0966 0.0
Zn170 Zn 1.01176 0.13276 0.69397 0.0
C171 C 0.0699 0.1829 0.59066 0.0
N172 N 0.05882 0.15337 0.56229 0.0
C173 C 0.04279 0.13079 0.59521 0.0
N174 N 0.04321 0.14615 0.64153 0.0
N175 N 0.0608 0.17879 0.63881 0.0
C176 C 0.0693 0.27941 0.69606 0.0
O177 O 0.04069 0.26264 0.70522 0.0
O178 O 1.0134 0.07531 0.71142 0.0
Zn179 Zn 0.08624 0.19999 0.69383 0.0
N180 N 0.96769 0.1446 0.66895 0.0
C181 C 0.93295 0.16942 0.6045 0.0
C182 C 0.96438 0.16245 0.62388 0.0
C183 C 0.94059 0.13471 0.69629 0.0
N184 N 0.90596 0.15922 0.63147 0.0
C185 C 0.90876 0.14234 0.67722 0.0
O186 O 0.06439 0.1948 0.76122 0.0
C187 C 0.03872 0.18159 0.7829 0.0
O188 O 0.01749 0.16078 0.76001 0.0
H189 H 0.98586 0.17128 0.60291 0.0
H190 H 0.94391 0.12074 0.73215 0.0
C191 C 0.15827 0.18772 0.704 0.0
C192 C 0.18678 0.1641 0.7004 0.0
C193 C 0.15289 0.10942 0.68129 0.0
C194 C 0.12483 0.13272 0.6849 0.0
N195 N 0.12792 0.17143 0.69533 0.0
N196 N 0.18308 0.12562 0.68882 0.0
H197 H 0.16023 0.21857 0.71236 0.0
C198 C 0.03465 0.06326 0.74291 0.0
O199 O 0.05608 0.08824 0.7614 0.0
O200 O 0.09404 0.25789 0.68584 0.0
H201 H 0.10067 0.12006 0.67888 0.0
H202 H 0.93 0.18315 0.56844 0.0
H203 H 0.15075 0.07869 0.67244 0.0
Zn204 Zn 0.51603 0.19962 0.84537 0.0
C205 C 0.55965 0.13161 0.94566 0.0
N206 N 0.54382 0.15459 0.97827 0.0
C207 C 0.5327 0.1839 0.94947 0.0
N208 N 0.54155 0.17924 0.90127 0.0
N209 N 0.55914 0.14654 0.89903 0.0
C210 C 0.56742 0.06279 0.79818 0.0
O211 O 0.54607 0.08779 0.77941 0.0
O212 O 0.50731 0.2575 0.85137 0.0
Zn213 Zn 0.59065 0.13251 0.84668 0.0
N214 N 0.47481 0.16986 0.84184 0.0
C215 C 0.44959 0.10815 0.85746 0.0
C216 C 0.47687 0.13277 0.85994 0.0
C217 C 0.44611 0.18337 0.82095 0.0
N218 N 0.42133 0.12124 0.83606 0.0
C219 C 0.41854 0.15814 0.81749 0.0
O220 O 0.58555 0.16053 0.7803 0.0
C221 C 0.56458 0.18176 0.75741 0.0
O222 O 0.53894 0.19503 0.77899 0.0
H223 H 0.49971 0.12201 0.8756 0.0
H224 H 0.44518 0.21268 0.80579 0.0
C225 C 0.66181 0.13403 0.84434 0.0
C226 C 0.6937 0.14148 0.86332 0.0
C227 C 0.6697 0.16839 0.93618 0.0
C228 C 0.63822 0.16165 0.91687 0.0
N229 N 0.63478 0.14393 0.8718 0.0
N230 N 0.69662 0.15817 0.9091 0.0
H231 H 0.65841 0.12025 0.80844 0.0
C232 C 0.53277 0.27936 0.8505 0.0
O233 O 0.56223 0.26309 0.85125 0.0
O234 O 0.58866 0.07491 0.82961 0.0
H235 H 0.61682 0.1706 0.93789 0.0
H236 H 0.45101 0.0786 0.87168 0.0
H237 H 0.67274 0.182 0.97224 0.0
Zn238 Zn 0.08739 0.80568 0.35168 0.0
C239 C 0.03911 0.87421 0.44728 0.0
N240 N 0.05311 0.85063 0.48129 0.0
C241 C 0.06608 0.82213 0.45312 0.0
N242 N 0.06029 0.82784 0.40411 0.0
N243 N 0.04296 0.86061 0.40041 0.0
C244 C 0.03467 0.94379 0.30107 0.0
O245 O 0.05781 0.91971 0.28565 0.0
O246 O 0.09099 0.74721 0.35922 0.0
Zn247 Zn 1.013 0.87317 0.34608 0.0
N248 N 0.13148 0.82845 0.35851 0.0
C249 C 0.16515 0.8759 0.39921 0.0
C250 C 0.13412 0.86035 0.3885 0.0
C251 C 0.1589 0.81225 0.33724 0.0
N252 N 0.19245 0.85935 0.37896 0.0
C253 C 0.19031 0.82808 0.34792 0.0
O254 O 0.02277 0.84664 0.2806 0.0
C255 C 0.04481 0.82676 0.25829 0.0
O256 O 0.06999 0.81318 0.28117 0.0
H257 H 0.11237 0.87347 0.40467 0.0
H258 H 0.15636 0.78695 0.31338 0.0
C259 C 0.94147 0.8702 0.34445 0.0
C260 C 0.91024 0.85601 0.35951 0.0
C261 C 0.93693 0.81562 0.41955 0.0
C262 C 0.96762 0.82903 0.40368 0.0
N263 N 0.96936 0.85625 0.36684 0.0
N264 N 0.90916 0.82921 0.39707 0.0
H265 H 0.94394 0.89192 0.31544 0.0
C266 C 0.06649 0.72687 0.3446 0.0
O267 O 0.03929 0.7449 0.33061 0.0
O268 O 1.01226 0.93088 0.32999 0.0
H269 H 0.98988 0.81753 0.42051 0.0
H270 H 0.16754 0.90092 0.42354 0.0
H271 H 0.93515 0.79414 0.44903 0.0
H272 H 0.20429 0.35459 0.27877 0.0
H273 H 0.25057 0.3919 0.14198 0.0
H274 H 0.25697 0.36057 0.32205 0.0
H275 H 0.30309 0.39983 0.18554 0.0
H276 H 0.39794 0.35522 0.26144 0.0
H277 H 0.34524 0.36097 0.2181 0.0
H278 H 0.2989 0.39968 0.35455 0.0
H279 H 0.35143 0.39196 0.39816 0.0
C280 C 0.22555 0.36522 0.2583 0.0
C281 C 0.22333 0.37282 0.20701 0.0
C282 C 0.25587 0.36875 0.28312 0.0
C283 C 0.28459 0.3805 0.25736 0.0
C284 C 0.28183 0.38984 0.20647 0.0
C285 C 0.25165 0.38563 0.18152 0.0
C286 C 0.37662 0.36569 0.28187 0.0
C287 C 0.37878 0.37318 0.33315 0.0
C288 C 0.34629 0.36908 0.25702 0.0
C289 C 0.31751 0.38059 0.28275 0.0
C290 C 0.32022 0.38986 0.33364 0.0
C291 C 0.35039 0.38578 0.35861 0.0
H292 H 0.20386 0.65622 0.76529 0.0
H293 H 0.25107 0.61395 0.89925 0.0
H294 H 0.25618 0.65158 0.72106 0.0
H295 H 0.30322 0.60735 0.85463 0.0
H296 H 0.39774 0.65313 0.77991 0.0
H297 H 0.34532 0.64688 0.82358 0.0
H298 H 0.29751 0.61317 0.68585 0.0
H299 H 0.3498 0.62141 0.642 0.0
C300 C 0.22525 0.64484 0.78488 0.0
C301 C 0.2234 0.6354 0.8357 0.0
C302 C 0.25536 0.64207 0.75951 0.0
C303 C 0.28422 0.62925 0.78419 0.0
C304 C 0.28183 0.61819 0.83457 0.0
C305 C 0.25188 0.62165 0.86011 0.0
C306 C 0.37614 0.64369 0.75922 0.0
C307 C 0.37784 0.6377 0.70758 0.0
C308 C 0.34598 0.64 0.78425 0.0
C309 C 0.31689 0.62968 0.75833 0.0
C310 C 0.31909 0.62203 0.70696 0.0
C311 C 0.34912 0.62642 0.68183 0.0
H312 H 0.71996 0.6189 0.77827 0.0
H313 H 0.72016 0.73458 0.71416 0.0
H314 H 0.774 0.63067 0.8148 0.0
H315 H 0.77519 0.74666 0.75105 0.0
H316 H 0.89178 0.71056 0.76259 0.0
H317 H 0.83369 0.71853 0.73727 0.0
H318 H 0.8023 0.67028 0.87816 0.0
H319 H 0.85991 0.66158 0.90263 0.0
C320 C 0.73142 0.64722 0.77278 0.0
C321 C 0.71579 0.67586 0.74364 0.0
C322 C 0.76239 0.65409 0.79394 0.0
C323 C 0.77893 0.68973 0.78614 0.0
C324 C 0.76306 0.71893 0.75776 0.0
C325 C 0.73152 0.71219 0.73706 0.0
C326 C 0.87239 0.70299 0.78869 0.0
C327 C 0.88029 0.68513 0.83439 0.0
C328 C 0.83912 0.7075 0.77422 0.0
C329 C 0.81338 0.69433 0.80535 0.0
C330 C 0.82152 0.67999 0.8529 0.0
C331 C 0.85452 0.67518 0.86705 0.0
H332 H 0.89948 0.29244 0.28721 0.0
H333 H 0.85344 0.33611 0.15301 0.0
H334 H 0.84468 0.27954 0.32257 0.0
H335 H 0.79903 0.32362 0.18819 0.0
H336 H 0.70241 0.29089 0.2547 0.0
H337 H 0.7573 0.27706 0.2203 0.0
H338 H 0.80262 0.32699 0.35139 0.0
H339 H 0.74811 0.34042 0.38564 0.0
C340 C 0.87775 0.29814 0.26468 0.0
C341 C 0.88076 0.31547 0.21741 0.0
C342 C 0.84635 0.29107 0.28507 0.0
C343 C 0.81743 0.30078 0.25834 0.0
C344 C 0.82066 0.3154 0.20967 0.0
C345 C 0.85191 0.32286 0.18962 0.0
C346 C 0.7241 0.29772 0.27679 0.0
C347 C 0.72095 0.31693 0.32279 0.0
C348 C 0.75555 0.29009 0.25694 0.0
C349 C 0.78439 0.30114 0.28294 0.0
C350 C 0.78105 0.31772 0.33052 0.0
C351 C 0.74975 0.32571 0.35002 0.0
H352 H 0.84811 0.84969 0.39754 0.0
H353 H 0.89993 0.88747 0.26499 0.0
H354 H 0.7958 0.85815 0.35495 0.0
H355 H 0.84733 0.89826 0.22356 0.0
H356 H 0.75421 0.84866 0.14632 0.0
H357 H 0.80655 0.85728 0.18876 0.0
H358 H 0.75514 0.89899 0.31931 0.0
H359 H 0.70249 0.88808 0.27803 0.0
C360 C 0.84846 0.86062 0.35966 0.0
C361 C 0.87859 0.86757 0.33494 0.0
C362 C 0.81824 0.86596 0.33534 0.0
C363 C 0.81718 0.87872 0.28559 0.0
C364 C 0.84718 0.8878 0.26164 0.0
C365 C 0.87752 0.8821 0.28586 0.0
C366 C 0.7539 0.85999 0.18398 0.0
C367 C 0.7238 0.86735 0.20853 0.0
C368 C 0.78413 0.86541 0.20821 0.0
C369 C 0.78523 0.87866 0.2577 0.0
C370 C 0.75525 0.88815 0.28144 0.0
C371 C 0.72489 0.88238 0.25731 0.0
H372 H 0.70428 0.15187 0.7634 0.0
H373 H 0.75207 0.11364 0.89887 0.0
H374 H 0.75655 0.14656 0.71915 0.0
H375 H 0.8042 0.1065 0.85432 0.0
H376 H 0.89805 0.15196 0.77721 0.0
H377 H 0.84576 0.14618 0.82131 0.0
H378 H 0.79821 0.10737 0.68561 0.0
H379 H 0.85037 0.11497 0.64122 0.0
C380 C 0.72578 0.1412 0.78337 0.0
C381 C 0.7241 0.1331 0.83457 0.0
C382 C 0.75586 0.13807 0.75799 0.0
C383 C 0.78487 0.12627 0.78309 0.0
C384 C 0.78267 0.11652 0.83391 0.0
C385 C 0.75273 0.12029 0.85942 0.0
C386 C 0.87656 0.14148 0.75707 0.0
C387 C 0.87829 0.13384 0.70578 0.0
C388 C 0.84647 0.13807 0.78237 0.0
C389 C 0.81749 0.12645 0.7571 0.0
C390 C 0.81972 0.11722 0.70617 0.0
C391 C 0.84968 0.12126 0.68075 0.0
H392 H 0.38306 0.22746 0.82236 0.0
H393 H 0.38236 0.11225 0.75705 0.0
H394 H 0.3274 0.23959 0.78788 0.0
H395 H 0.32762 0.12396 0.72343 0.0
H396 H 0.23957 0.15381 0.64055 0.0
H397 H 0.2977 0.16231 0.66211 0.0
H398 H 0.26948 0.21302 0.803 0.0
H399 H 0.21088 0.20555 0.78032 0.0
C400 C 0.37135 0.20513 0.79985 0.0
C401 C 0.38709 0.16892 0.79228 0.0
C402 C 0.33943 0.21191 0.78052 0.0
C403 C 0.32309 0.18285 0.75258 0.0
C404 C 0.33955 0.14732 0.7439 0.0
C405 C 0.37093 0.14045 0.76355 0.0
C406 C 0.24579 0.16791 0.67545 0.0
C407 C 0.2208 0.17881 0.70888 0.0
C408 C 0.27909 0.17257 0.68799 0.0
C409 C 0.28829 0.18751 0.73478 0.0
C410 C 0.26327 0.2015 0.76662 0.0
C411 C 0.22972 0.19726 0.75368 0.0
H412 H 0.20566 0.8221 0.24959 0.0
H413 H 0.24475 0.80209 0.3968 0.0
H414 H 0.26038 0.81173 0.21423 0.0
H415 H 0.29919 0.78859 0.36181 0.0
H416 H 0.39734 0.83044 0.29304 0.0
H417 H 0.343 0.8226 0.33067 0.0
H418 H 0.30552 0.77593 0.19171 0.0
H419 H 0.35953 0.7869 0.1537 0.0
C420 C 0.22584 0.81391 0.27411 0.0
C421 C 0.22113 0.81283 0.32577 0.0
C422 C 0.25737 0.80779 0.25395 0.0
C423 C 0.2848 0.79969 0.28501 0.0
C424 C 0.27919 0.79587 0.33658 0.0
C425 C 0.24787 0.80304 0.35674 0.0
C426 C 0.37758 0.8176 0.27116 0.0
C427 C 0.38249 0.80909 0.2207 0.0
C428 C 0.34627 0.81295 0.29264 0.0
C429 C 0.31926 0.79899 0.26429 0.0
C430 C 0.32517 0.78781 0.21458 0.0
C431 C 0.35626 0.79347 0.19286 0.0
H432 H 0.12017 0.68049 0.36511 0.0
H433 H 0.02072 0.67673 0.30573 0.0
H434 H 0.12755 0.61168 0.3438 0.0
H435 H 0.028 0.60797 0.28509 0.0
H436 H 0.06739 0.50162 0.20014 0.0
H437 H 0.06003 0.56968 0.2247 0.0
H438 H 0.1083 0.54571 0.36516 0.0
H439 H 0.11611 0.47785 0.34038 0.0
C440 C 0.09975 0.66489 0.3481 0.0
C441 C 0.06991 0.68418 0.33692 0.0
C442 C 0.10396 0.62543 0.33598 0.0
C443 C 0.07847 0.60445 0.31228 0.0
C444 C 0.04833 0.62348 0.30247 0.0
C445 C 0.04407 0.66284 0.31474 0.0
C446 C 0.07653 0.51087 0.23617 0.0
C447 C 0.09231 0.48424 0.26827 0.0
C448 C 0.0721 0.54983 0.25042 0.0
C449 C 0.08343 0.56308 0.29703 0.0
C450 C 0.09953 0.53654 0.32886 0.0
C451 C 0.10386 0.49757 0.31469 0.0
H452 H 0.48328 0.31751 0.80105 0.0
H453 H 0.57619 0.33651 0.87662 0.0
H454 H 0.48315 0.38522 0.77304 0.0
H455 H 0.57527 0.40491 0.85162 0.0
H456 H 0.58673 0.51056 0.75229 0.0
H457 H 0.5844 0.44375 0.78303 0.0
H458 H 0.47754 0.45103 0.78925 0.0
H459 H 0.48009 0.51706 0.75538 0.0
C460 C 0.50323 0.33655 0.81282 0.0
C461 C 0.52983 0.32174 0.84077 0.0
C462 C 0.50319 0.37553 0.79684 0.0
C463 C 0.52946 0.40084 0.80932 0.0
C464 C 0.55512 0.38627 0.83975 0.0
C465 C 0.5555 0.34711 0.85472 0.0
C466 C 0.56276 0.49773 0.76004 0.0
C467 C 0.53362 0.51898 0.75135 0.0
C468 C 0.56136 0.45946 0.77824 0.0
C469 C 0.53076 0.4417 0.78937 0.0
C470 C 0.50157 0.4632 0.78054 0.0
C471 C 0.50299 0.50121 0.76128 0.0
H472 H 0.06624 0.50458 0.84051 0.0
H473 H 0.12203 0.52743 0.7064 0.0
H474 H 0.05974 0.43646 0.81545 0.0
H475 H 0.11523 0.45946 0.68123 0.0
H476 H 0.12523 0.32397 0.68388 0.0
H477 H 0.13273 0.39268 0.70621 0.0
H478 H 0.03007 0.3995 0.7499 0.0
H479 H 0.02257 0.33106 0.72802 0.0
C480 C 0.07716 0.4951 0.80577 0.0
C481 C 0.09458 0.5215 0.77543 0.0
C482 C 0.07325 0.45612 0.79123 0.0
C483 C 0.08683 0.44263 0.74619 0.0
C484 C 0.10469 0.46888 0.71628 0.0
C485 C 0.10843 0.50789 0.73065 0.0
C486 C 0.10419 0.34025 0.69778 0.0
C487 C 0.07335 0.32195 0.70435 0.0
C488 C 0.10848 0.37961 0.71052 0.0
C489 C 0.08207 0.40138 0.73035 0.0
C490 C 0.05105 0.38333 0.73558 0.0
C491 C 0.04671 0.34415 0.7226 0.0
H492 H 0.59375 0.67987 0.21694 0.0
H493 H 0.48775 0.67824 0.19518 0.0
H494 H 0.59243 0.61118 0.24076 0.0
H495 H 0.48654 0.6092 0.21851 0.0
H496 H 0.49403 0.50246 0.32399 0.0
H497 H 0.49488 0.57018 0.29509 0.0
H498 H 0.58212 0.54574 0.20774 0.0
H499 H 0.58154 0.4783 0.23696 0.0
C500 C 0.5702 0.66474 0.21661 0.0
C501 C 0.54084 0.68462 0.20431 0.0
C502 C 0.56947 0.62528 0.23014 0.0
C503 C 0.53935 0.60475 0.23188 0.0
C504 C 0.51008 0.62434 0.21826 0.0
C505 C 0.51083 0.66381 0.20445 0.0
C506 C 0.51339 0.51154 0.29863 0.0
C507 C 0.53772 0.48494 0.28281 0.0
C508 C 0.51374 0.55028 0.28178 0.0
C509 C 0.5385 0.56334 0.24894 0.0
C510 C 0.56288 0.53674 0.23335 0.0
C511 C 0.56247 0.49802 0.25003 0.0
H512 H 0.61047 0.00344 0.21356 0.0
H513 H 0.52612 0.97887 0.30728 0.0
H514 H 0.61061 0.07109 0.24287 0.0
H515 H 0.52665 0.04594 0.33705 0.0
H516 H 0.51283 0.17889 0.32957 0.0
H517 H 0.51445 0.11051 0.30531 0.0
H518 H 0.62109 0.11115 0.31753 0.0
H519 H 0.61953 0.18016 0.3411 0.0
C520 C 0.59206 0.0124 0.24052 0.0
C521 C 0.56821 0.98578 0.25792 0.0
C522 C 0.59229 0.05107 0.25759 0.0
C523 C 0.56864 0.06394 0.29234 0.0
C524 C 0.54495 0.03718 0.30982 0.0
C525 C 0.54471 0.99863 0.2928 0.0
C526 C 0.53665 0.16443 0.3276 0.0
C527 C 0.56605 0.18506 0.33717 0.0
C528 C 0.53756 0.12511 0.31382 0.0
C529 C 0.56791 0.10535 0.30924 0.0
C530 C 0.59733 0.12568 0.32005 0.0
C531 C 0.59641 0.1651 0.33402 0.0
H532 H 0.98211 0.82718 0.83923 0.0
H533 H 0.08903 0.82927 0.83669 0.0
H534 H 0.98101 0.89628 0.81583 0.0
H535 H 0.0879 0.8978 0.81265 0.0
H536 H 0.07477 0.02978 0.81287 0.0
H537 H 0.07408 0.96259 0.84286 0.0
H538 H 0.99398 0.93595 0.74167 0.0
H539 H 0.99431 0.0035 0.71206 0.0
C540 C 1.00536 0.84244 0.8342 0.0
C541 C 0.03566 0.82267 0.83971 0.0
C542 C 1.00472 0.88192 0.82033 0.0
C543 C 0.03436 0.90251 0.81202 0.0
C544 C 0.06461 0.88298 0.81915 0.0
C545 C 0.06525 0.84357 0.83278 0.0
C546 C 0.05701 0.00963 0.79692 0.0
C547 C 0.03461 0.02204 0.76002 0.0
C548 C 0.05668 0.97105 0.81407 0.0
C549 C 0.03394 0.94388 0.79476 0.0
C550 C 1.01148 0.95629 0.75787 0.0
C551 C 1.01184 0.99493 0.74063 0.0
H552 H 0.51257 0.82859 0.70605 0.0
H553 H 0.61947 0.82623 0.70299 0.0
H554 H 0.51387 0.8971 0.72993 0.0
H555 H 0.62074 0.89533 0.72626 0.0
H556 H 0.60787 0.00304 0.82915 0.0
H557 H 0.60808 0.9354 0.80007 0.0
H558 H 0.5276 0.96181 0.69938 0.0
H559 H 0.52703 0.02907 0.72885 0.0
C560 C 0.53639 0.84283 0.70982 0.0
C561 C 0.56592 0.82184 0.70274 0.0
C562 C 0.53712 0.88223 0.72337 0.0
C563 C 0.56741 0.90172 0.73029 0.0
C564 C 0.597 0.88103 0.72192 0.0
C565 C 0.59627 0.84154 0.70812 0.0
C566 C 0.59022 0.99439 0.80082 0.0
C567 C 0.56739 0.02149 0.78142 0.0
C568 C 0.59051 0.95569 0.78387 0.0
C569 C 0.56791 0.94317 0.74727 0.0
C570 C 0.54511 0.97032 0.72796 0.0
C571 C 0.54486 0.00896 0.74481 0.0
H572 H 0.98284 0.17889 0.19935 0.0
H573 H 0.08952 0.17811 0.2113 0.0
H574 H 0.98147 0.10988 0.22305 0.0
H575 H 0.08809 0.10969 0.23569 0.0
H576 H 0.07657 0.9779 0.23448 0.0
H577 H 0.07604 0.04494 0.20427 0.0
H578 H 0.99199 0.0702 0.29813 0.0
H579 H 0.99213 0.00263 0.32789 0.0
C580 C 1.00599 0.16394 0.20655 0.0
C581 C 0.03629 0.18404 0.20351 0.0
C582 C 1.00518 0.12451 0.22059 0.0
C583 C 0.03465 0.10433 0.23158 0.0
C584 C 0.06495 0.1242 0.22705 0.0
C585 C 0.06575 0.16354 0.2132 0.0
C586 C 0.05796 0.99769 0.24879 0.0
C587 C 0.03443 0.9849 0.2837 0.0
C588 C 0.05772 0.0362 0.23151 0.0
C589 C 0.03399 0.06297 0.24876 0.0
C590 C 1.01033 0.05017 0.28357 0.0
C591 C 1.01056 0.01154 0.3009 0.0
H592 H 0.0612 0.2502 0.09208 0.0
H593 H 0.9797 0.31519 0.02978 0.0
H594 H 0.05839 0.20431 0.0225 0.0
H595 H 0.97664 0.26946 0.96031 0.0
H596 H 0.98056 0.17993 0.83586 0.0
H597 H 0.97168 0.20137 0.92195 0.0
H598 H 0.07604 0.22616 0.93616 0.0
H599 H 0.08487 0.20532 0.85061 0.0
C600 C 0.04125 0.25313 0.06533 0.0
C601 C 0.02044 0.28596 0.06647 0.0
C602 C 0.04002 0.2273 0.02493 0.0
C603 C 0.01774 0.23377 0.9854 0.0
C604 C 0.99404 0.26359 0.99015 0.0
C605 C 0.99557 0.28965 0.03019 0.0
C606 C 1.00165 0.18947 0.85765 0.0
C607 C 0.03339 0.19131 0.83619 0.0
C608 C 0.99655 0.20167 0.90692 0.0
C609 C 0.02318 0.21513 0.93601 0.0
C610 C 0.05507 0.21531 0.91512 0.0
C611 C 0.06008 0.2038 0.86579 0.0
H612 H 0.61931 0.69535 0.52986 0.0
H613 H 0.53476 0.75379 0.59281 0.0
H614 H 0.62002 0.74209 0.46118 0.0
H615 H 0.53507 0.80053 0.5238 0.0
H616 H 0.51046 0.80053 0.34991 0.0
H617 H 0.51905 0.77914 0.43564 0.0
H618 H 0.62207 0.81165 0.42618 0.0
H619 H 0.6135 0.83353 0.34035 0.0
C620 C 0.60218 0.71972 0.53058 0.0
C621 C 0.5773 0.72134 0.56689 0.0
C622 C 0.60234 0.74632 0.49098 0.0
C623 C 0.57719 0.77453 0.48662 0.0
C624 C 0.55457 0.77885 0.526 0.0
C625 C 0.55477 0.75257 0.56605 0.0
C626 C 0.53483 0.80375 0.36629 0.0
C627 C 0.56132 0.81844 0.33804 0.0
C628 C 0.53969 0.79186 0.41564 0.0
C629 C 0.57124 0.79388 0.43776 0.0
C630 C 0.5975 0.80983 0.41016 0.0
C631 C 0.59252 0.82233 0.361 0.0
H632 H 0.0909 0.79938 0.19233 0.0
H633 H 0.98801 0.83284 0.20279 0.0
H634 H 0.08191 0.77821 0.1067 0.0
H635 H 0.97904 0.81123 0.11702 0.0
H636 H 0.98056 0.69614 1.01203 0.0
H637 H 0.98043 0.74231 0.08116 0.0
H638 H 0.06596 0.79995 1.01893 0.0
H639 H 0.06574 0.75375 0.94951 0.0
C640 C 0.06647 0.80272 0.17619 0.0
C641 C 0.04015 0.81751 0.20466 0.0
C642 C 0.06138 0.79096 0.12688 0.0
C643 C 0.02977 0.79324 0.10498 0.0
C644 C 1.00366 0.8092 0.13285 0.0
C645 C 1.00886 0.82154 0.18199 0.0
C646 C 0.99798 0.72023 1.01152 0.0
C647 C 0.02287 0.72173 0.97518 0.0
C648 C 0.99815 0.7465 0.05139 0.0
C649 C 0.02361 0.77427 0.05598 0.0
C650 C 0.04624 0.77857 1.01659 0.0
C651 C 0.04572 0.75262 0.97628 0.0
H652 H 0.54206 0.25151 0.44843 0.0
H653 H 0.62252 0.31772 0.51144 0.0
H654 H 0.54534 0.20533 0.51783 0.0
H655 H 0.62603 0.27172 0.58075 0.0
H656 H 0.62297 0.18131 0.70486 0.0
H657 H 0.63184 0.20343 0.6189 0.0
H658 H 0.52721 0.22642 0.60413 0.0
H659 H 0.51842 0.20496 0.68949 0.0
C660 C 0.56191 0.25469 0.4753 0.0
C661 C 0.58228 0.2879 0.47438 0.0
C662 C 0.56339 0.22868 0.5156 0.0
C663 C 0.58551 0.23536 0.55528 0.0
C664 C 0.60879 0.26567 0.5508 0.0
C665 C 0.60699 0.2919 0.51085 0.0
C666 C 0.60184 0.1906 0.68295 0.0
C667 C 0.57003 0.19178 0.7042 0.0
C668 C 0.60694 0.2032 0.63377 0.0
C669 C 0.58021 0.21635 0.60456 0.0
C670 C 0.54826 0.21583 0.62525 0.0
C671 C 0.54327 0.20397 0.67447 0.0
H672 H 0.566 0.74955 0.09178 0.0
H673 H 0.48484 0.81504 0.02932 0.0
H674 H 0.56228 0.70286 0.02308 0.0
H675 H 0.48082 0.76849 0.96081 0.0
H676 H 0.48291 0.67812 0.83797 0.0
H677 H 0.47496 0.69972 0.92417 0.0
H678 H 0.57954 0.72402 0.93599 0.0
H679 H 0.58745 0.70303 0.85026 0.0
C680 C 0.54594 0.75246 0.06517 0.0
C681 C 0.52546 0.78555 0.06594 0.0
C682 C 0.54417 0.72614 0.02535 0.0
C683 C 0.52167 0.73247 0.98607 0.0
C684 C 0.49834 0.76272 0.99052 0.0
C685 C 0.50043 0.78926 0.02996 0.0
C686 C 0.50426 0.6875 0.85929 0.0
C687 C 0.53578 0.68926 0.8371 0.0
C688 C 0.49968 0.6998 0.90861 0.0
C689 C 0.52664 0.71328 0.93698 0.0
C690 C 0.55834 0.71317 0.91546 0.0
C691 C 0.56282 0.70157 0.86607 0.0
H692 H 0.04077 0.25405 0.59337 0.0
H693 H 0.12234 0.19067 0.52923 0.0
H694 H 0.04211 0.3001 0.52361 0.0
H695 H 0.12408 0.23672 0.45986 0.0
H696 H 0.11869 0.32725 0.3368 0.0
H697 H 0.12804 0.30548 0.42266 0.0
H698 H 0.02412 0.27842 0.43668 0.0
H699 H 1.01479 0.29958 0.35114 0.0
C700 C 0.06041 0.25151 0.56612 0.0
C701 C 0.08164 0.21904 0.5668 0.0
C702 C 0.06079 0.27743 0.52567 0.0
C703 C 0.08276 0.27154 0.48574 0.0
C704 C 0.1069 0.24213 0.49 0.0
C705 C 0.10614 0.21591 0.53001 0.0
C706 C 0.09776 0.31716 0.35846 0.0
C707 C 0.06602 0.31478 0.33688 0.0
C708 C 0.10315 0.30476 0.40763 0.0
C709 C 0.07681 0.29051 0.43658 0.0
C710 C 0.04486 0.28986 0.41569 0.0
C711 C 0.03957 0.30158 0.3664 0.0
H712 H 0.56456 0.25322 0.94963 0.0
H713 H 0.47908 0.19377 1.00815 0.0
H714 H 0.56274 0.29929 1.01883 0.0
H715 H 0.47728 0.23944 0.07782 0.0
H716 H 0.48319 0.3289 0.20229 0.0
H717 H 0.47454 0.307 0.11635 0.0
H718 H 0.57832 0.27824 0.10533 0.0
H719 H 0.58693 0.29971 0.19071 0.0
C720 C 0.54396 0.25169 0.9753 0.0
C721 C 0.52155 0.22041 0.97296 0.0
C722 C 0.54337 0.27753 1.0157 0.0
C723 C 0.52029 0.27251 0.05438 0.0
C724 C 0.49532 0.24423 0.04864 0.0
C725 C 0.49612 0.21823 1.00844 0.0
C726 C 0.50423 0.31842 0.18123 0.0
C727 C 0.53572 0.31574 0.20357 0.0
C728 C 0.49924 0.30589 0.13204 0.0
C729 C 0.52576 0.29115 0.10385 0.0
C730 C 0.55745 0.29007 0.12562 0.0
C731 C 0.56233 0.30198 0.17486 0.0
H732 H 0.11898 0.81708 0.5142 0.0
H733 H 0.03998 0.7495 0.44937 0.0
H734 H 0.12286 0.77069 0.58303 0.0
H735 H 0.04347 0.70305 0.51857 0.0
H736 H 0.01568 0.70427 0.69086 0.0
H737 H 0.02458 0.72495 0.60514 0.0
H738 H 0.12912 0.70167 0.62032 0.0
H739 H 0.12018 0.68027 0.70648 0.0
C740 C 0.10387 0.79091 0.51316 0.0
C741 C 0.07938 0.78661 0.47645 0.0
C742 C 0.10588 0.76446 0.55279 0.0
C743 C 0.08299 0.73369 0.5567 0.0
C744 C 0.0612 0.72675 0.51671 0.0
C745 C 0.05957 0.75295 0.47665 0.0
C746 C 0.04052 0.70299 0.67581 0.0
C747 C 0.06725 0.691 0.70569 0.0
C748 C 0.04556 0.71439 0.62643 0.0
C749 C 0.07754 0.71466 0.60583 0.0
C750 C 0.10421 0.70158 0.63516 0.0
C751 C 0.09906 0.68943 0.68445 0.0
H752 H 0.09837 0.38721 1.01511 0.0
H753 H 0.05046 0.44519 0.13775 0.0
H754 H 0.10938 0.4506 0.97602 0.0
H755 H 0.06294 0.50859 0.1003 0.0
H756 H 0.05016 0.56056 0.90434 0.0
H757 H 0.06322 0.4973 0.94191 0.0
H758 H 0.10863 0.55593 0.06682 0.0
H759 H 0.09699 0.61916 0.02769 0.0
C760 C 0.09165 0.41366 0.03483 0.0
C761 C 0.07457 0.41152 0.0803 0.0
C762 C 0.09781 0.4498 1.01239 0.0
C763 C 0.08716 0.48443 0.03524 0.0
C764 C 0.0721 0.48237 0.0824 0.0
C765 C 0.06545 0.44614 0.10441 0.0
C766 C 0.06498 0.55979 0.93794 0.0
C767 C 0.07363 0.59453 0.96221 0.0
C768 C 0.072 0.52365 0.95997 0.0
C769 C 0.08696 0.5218 1.0073 0.0
C770 C 0.09713 0.55658 0.03034 0.0
C771 C 0.09059 0.59263 1.00789 0.0
H772 H 0.55086 0.5602 0.63577 0.0
H773 H 0.50101 0.61939 0.51555 0.0
H774 H 0.53789 0.49718 0.59799 0.0
H775 H 0.4898 0.55639 0.47564 0.0
H776 H 0.50282 0.38739 0.52458 0.0
H777 H 0.49079 0.45028 0.56407 0.0
H778 H 0.53712 0.51005 0.44088 0.0
H779 H 0.55085 0.44716 0.4033 0.0
C780 C 0.53527 0.55956 0.60305 0.0
C781 C 0.52569 0.59443 0.57981 0.0
C782 C 0.52841 0.52355 0.58072 0.0
C783 C 0.51276 0.52198 0.53391 0.0
C784 C 0.50175 0.55683 0.51179 0.0
C785 C 0.50805 0.59274 0.5347 0.0
C786 C 0.50929 0.4141 0.50516 0.0
C787 C 0.52674 0.4126 0.45997 0.0
C788 C 0.50252 0.44996 0.52781 0.0
C789 C 0.51286 0.48494 0.5054 0.0
C790 C 0.5282 0.48353 0.45842 0.0
C791 C 0.53554 0.44758 0.43629 0.0
H792 H 0.55301 0.94514 0.13698 0.0
H793 H 0.6038 0.88833 1.0161 0.0
H794 H 0.56476 0.00878 0.09983 0.0
H795 H 0.61386 0.95193 0.97705 0.0
H796 H 0.59788 0.12016 0.02704 0.0
H797 H 0.61026 0.05737 0.06684 0.0
H798 H 0.56645 0.99716 0.94188 0.0
H799 H 0.55239 0.05992 0.90388 0.0
C800 C 0.56846 0.94643 0.10417 0.0
C801 C 0.57859 0.91199 0.08049 0.0
C802 C 0.57466 0.98281 0.08226 0.0
C803 C 0.59021 0.98521 0.0355 0.0
C804 C 0.60189 0.95086 1.0131 0.0
C805 C 0.59625 0.91459 0.03554 0.0
C806 C 0.59198 0.0934 1.00739 0.0
C807 C 0.57523 0.09473 0.96149 0.0
C808 C 0.59896 0.05759 0.03022 0.0
C809 C 0.58949 0.02248 1.00732 0.0
C810 C 0.57471 0.02379 0.95984 0.0
C811 C 0.56719 0.05967 0.93748 0.0
H812 H 0.04993 0.05922 0.6375 0.0
H813 H 1.0039 0.11948 0.51458 0.0
H814 H 0.03557 0.99649 0.6 0.0
H815 H 0.99114 0.05669 0.47529 0.0
H816 H 0.9993 0.88748 0.52632 0.0
H817 H 0.98855 0.9509 0.56526 0.0
H818 H 0.03662 0.00863 0.442 0.0
H819 H 0.04905 0.94524 0.405 0.0
C820 C 0.03495 0.05898 0.60408 0.0
C821 C 0.02689 0.09403 0.57993 0.0
C822 C 0.02723 0.0231 0.58202 0.0
C823 C 1.01221 0.02181 0.53471 0.0
C824 C 1.00263 0.05692 0.51179 0.0
C825 C 1.00983 0.09272 0.53431 0.0
C826 C 1.00643 0.91389 0.50674 0.0
C827 C 0.024 0.91164 0.46171 0.0
C828 C 1.0004 0.95005 0.52911 0.0
C829 C 1.01161 0.9846 0.50655 0.0
C830 C 0.02704 0.9825 0.45968 0.0
C831 C 0.03362 0.94625 0.43784 0.0
loop_
_geom_bond_atom_site_label_1
_geom_bond_atom_site_label_2
_geom_bond_distance
_geom_bond_site_symmetry_2
_ccdc_geom_bond_type
Zn0 N4 2.020 . S
Zn0 O8 2.019 . S
Zn0 N10 2.119 1_455 S
Zn0 O18 1.975 . S
C1 N2 1.334 . S
C1 N5 1.336 . S
N2 C1 1.334 . S
N2 C3 1.334 . S
C3 N2 1.334 . S
C3 N4 1.336 . S
N4 Zn0 2.020 . S
N4 C3 1.336 . S
N4 N5 1.354 . S
N5 C1 1.336 . S
N5 N4 1.354 . S
N5 Zn9 2.020 . S
C6 O7 1.244 . S
C6 O30 1.257 . S
O7 C6 1.244 . S
O8 Zn0 2.019 . S
O8 C28 1.257 . S
Zn9 N5 2.020 . S
Zn9 O16 1.975 . S
Zn9 N25 2.119 . S
Zn9 O30 2.019 . S
N10 Zn0 2.119 1_655 S
N10 C12 1.334 . S
N10 C13 1.328 . S
C11 C12 1.391 . S
C11 N14 1.329 . S
C11 H32 0.930 . S
C12 N10 1.334 . S
C12 C11 1.391 . S
C12 H19 0.930 . S
C13 N10 1.328 . S
C13 C15 1.392 . S
C13 H20 0.930 . S
N14 C11 1.329 . S
N14 C15 1.331 . S
C15 C13 1.392 . S
C15 N14 1.331 . S
O16 Zn9 1.975 . S
O16 C17 1.252 . S
C17 O16 1.252 . S
C17 O18 1.252 . S
O18 Zn0 1.975 . S
O18 C17 1.252 . S
H19 C12 0.930 . S
H20 C13 0.930 . S
C21 C22 1.392 . S
C21 N25 1.328 . S
C21 H27 0.930 . S
C22 C21 1.392 . S
C22 N26 1.331 . S
C23 C24 1.391 . S
C23 N26 1.329 . S
C23 H33 0.930 . S
C24 C23 1.391 . S
C24 N25 1.334 . S
C24 H31 0.930 . S
N25 Zn9 2.119 . S
N25 C21 1.328 . S
N25 C24 1.334 . S
N26 C22 1.331 . S
N26 C23 1.329 . S
H27 C21 0.930 . S
C28 O8 1.257 . S
C28 O29 1.244 . S
O29 C28 1.244 . S
O30 C6 1.257 . S
O30 Zn9 2.019 . S
H31 C24 0.930 . S
H32 C11 0.930 . S
H33 C23 0.930 . S
Zn34 N38 2.020 . S
Zn34 O42 2.019 . S
Zn34 N44 2.119 . S
Zn34 O52 1.975 . S
C35 N36 1.334 . S
C35 N39 1.336 . S
N36 C35 1.334 . S
N36 C37 1.334 . S
C37 N36 1.334 . S
C37 N38 1.336 . S
N38 Zn34 2.020 . S
N38 C37 1.336 . S
N38 N39 1.354 . S
N39 C35 1.336 . S
N39 N38 1.354 . S
N39 Zn43 2.020 . S
C40 O41 1.244 . S
C40 O64 1.257 . S
O41 C40 1.244 . S
O42 Zn34 2.019 . S
O42 C62 1.257 . S
Zn43 N39 2.020 . S
Zn43 O50 1.975 . S
Zn43 N59 2.119 . S
Zn43 O64 2.019 . S
N44 Zn34 2.119 . S
N44 C46 1.334 . S
N44 C47 1.328 . S
C45 C46 1.391 . S
C45 N48 1.329 . S
C45 H66 0.930 . S
C46 N44 1.334 . S
C46 C45 1.391 . S
C46 H53 0.930 . S
C47 N44 1.328 . S
C47 C49 1.392 . S
C47 H54 0.930 . S
N48 C45 1.329 . S
N48 C49 1.331 . S
C49 C47 1.392 . S
C49 N48 1.331 . S
O50 Zn43 1.975 . S
O50 C51 1.252 . S
C51 O50 1.252 . S
C51 O52 1.252 . S
O52 Zn34 1.975 . S
O52 C51 1.252 . S
H53 C46 0.930 . S
H54 C47 0.930 . S
C55 C56 1.392 . S
C55 N59 1.328 . S
C55 H61 0.930 . S
C56 C55 1.392 . S
C56 N60 1.331 . S
C57 C58 1.391 . S
C57 N60 1.329 . S
C57 H67 0.930 . S
C58 C57 1.391 . S
C58 N59 1.334 . S
C58 H65 0.930 . S
N59 Zn43 2.119 . S
N59 C55 1.328 . S
N59 C58 1.334 . S
N60 C56 1.331 . S
N60 C57 1.329 . S
H61 C55 0.930 . S
C62 O42 1.257 . S
C62 O63 1.244 . S
O63 C62 1.244 . S
O64 C40 1.257 . S
O64 Zn43 2.019 . S
H65 C58 0.930 . S
H66 C45 0.930 . S
H67 C57 0.930 . S
Zn68 N72 2.020 . S
Zn68 O76 2.019 . S
Zn68 N78 2.119 1_455 S
Zn68 O86 1.975 . S
C69 N70 1.334 . S
C69 N73 1.336 . S
N70 C69 1.334 . S
N70 C71 1.334 . S
C71 N70 1.334 . S
C71 N72 1.336 . S
N72 Zn68 2.020 . S
N72 C71 1.336 . S
N72 N73 1.354 . S
N73 C69 1.336 . S
N73 N72 1.354 . S
N73 Zn77 2.020 . S
C74 O75 1.244 . S
C74 O98 1.257 . S
O75 C74 1.244 . S
O76 Zn68 2.019 . S
O76 C96 1.257 . S
Zn77 N73 2.020 . S
Zn77 O84 1.975 . S
Zn77 N93 2.119 . S
Zn77 O98 2.019 . S
N78 Zn68 2.119 1_655 S
N78 C80 1.334 . S
N78 C81 1.328 . S
C79 C80 1.391 . S
C79 N82 1.329 . S
C79 H100 0.930 . S
C80 N78 1.334 . S
C80 C79 1.391 . S
C80 H87 0.930 . S
C81 N78 1.328 . S
C81 C83 1.392 . S
C81 H88 0.930 . S
N82 C79 1.329 . S
N82 C83 1.331 . S
C83 C81 1.392 . S
C83 N82 1.331 . S
O84 Zn77 1.975 . S
O84 C85 1.252 . S
C85 O84 1.252 . S
C85 O86 1.252 . S
O86 Zn68 1.975 . S
O86 C85 1.252 . S
H87 C80 0.930 . S
H88 C81 0.930 . S
C89 C90 1.392 . S
C89 N93 1.328 . S
C89 H95 0.930 . S
C90 C89 1.392 . S
C90 N94 1.331 . S
C91 C92 1.391 . S
C91 N94 1.329 . S
C91 H101 0.930 . S
C92 C91 1.391 . S
C92 N93 1.334 . S
C92 H99 0.930 . S
N93 Zn77 2.119 . S
N93 C89 1.328 . S
N93 C92 1.334 . S
N94 C90 1.331 . S
N94 C91 1.329 . S
H95 C89 0.930 . S
C96 O76 1.257 . S
C96 O97 1.244 . S
O97 C96 1.244 . S
O98 C74 1.257 . S
O98 Zn77 2.019 . S
H99 C92 0.930 . S
H100 C79 0.930 . S
H101 C91 0.930 . S
Zn102 N106 2.020 . S
Zn102 O110 2.019 . S
Zn102 N112 2.119 . S
Zn102 O120 1.975 . S
C103 N104 1.334 . S
C103 N107 1.336 . S
N104 C103 1.334 . S
N104 C105 1.334 . S
C105 N104 1.334 . S
C105 N106 1.336 . S
N106 Zn102 2.020 . S
N106 C105 1.336 . S
N106 N107 1.354 . S
N107 C103 1.336 . S
N107 N106 1.354 . S
N107 Zn111 2.020 . S
C108 O109 1.244 . S
C108 O132 1.257 . S
O109 C108 1.244 . S
O110 Zn102 2.019 . S
O110 C130 1.257 . S
Zn111 N107 2.020 . S
Zn111 O118 1.975 . S
Zn111 N127 2.119 . S
Zn111 O132 2.019 . S
N112 Zn102 2.119 . S
N112 C114 1.334 . S
N112 C115 1.328 . S
C113 C114 1.391 . S
C113 N116 1.329 . S
C113 H134 0.930 . S
C114 N112 1.334 . S
C114 C113 1.391 . S
C114 H121 0.930 . S
C115 N112 1.328 . S
C115 C117 1.392 . S
C115 H122 0.930 . S
N116 C113 1.329 . S
N116 C117 1.331 . S
C117 C115 1.392 . S
C117 N116 1.331 . S
O118 Zn111 1.975 . S
O118 C119 1.252 . S
C119 O118 1.252 . S
C119 O120 1.252 . S
O120 Zn102 1.975 . S
O120 C119 1.252 . S
H121 C114 0.930 . S
H122 C115 0.930 . S
C123 C124 1.392 . S
C123 N127 1.328 . S
C123 H129 0.930 . S
C124 C123 1.392 . S
C124 N128 1.331 . S
C125 C126 1.391 . S
C125 N128 1.329 . S
C125 H135 0.930 . S
C126 C125 1.391 . S
C126 N127 1.334 . S
C126 H133 0.930 . S
N127 Zn111 2.119 . S
N127 C123 1.328 . S
N127 C126 1.334 . S
N128 C124 1.331 . S
N128 C125 1.329 . S
H129 C123 0.930 . S
C130 O110 1.257 . S
C130 O131 1.244 . S
O131 C130 1.244 . S
O132 C108 1.257 . S
O132 Zn111 2.019 . S
H133 C126 0.930 . S
H134 C113 0.930 . S
H135 C125 0.930 . S
Zn136 N140 2.020 . S
Zn136 O144 2.019 . S
Zn136 N146 2.119 . S
Zn136 O154 1.975 . S
C137 N138 1.334 . S
C137 N141 1.336 . S
N138 C137 1.334 . S
N138 C139 1.334 . S
C139 N138 1.334 . S
C139 N140 1.336 . S
N140 Zn136 2.020 . S
N140 C139 1.336 . S
N140 N141 1.354 . S
N141 C137 1.336 . S
N141 N140 1.354 . S
N141 Zn145 2.020 . S
C142 O143 1.244 . S
C142 O166 1.257 . S
O143 C142 1.244 . S
O144 Zn136 2.019 . S
O144 C164 1.257 . S
Zn145 N141 2.020 . S
Zn145 O152 1.975 . S
Zn145 N161 2.119 . S
Zn145 O166 2.019 . S
N146 Zn136 2.119 . S
N146 C148 1.334 . S
N146 C149 1.328 . S
C147 C148 1.391 . S
C147 N150 1.329 . S
C147 H168 0.930 . S
C148 N146 1.334 . S
C148 C147 1.391 . S
C148 H155 0.930 . S
C149 N146 1.328 . S
C149 C151 1.392 . S
C149 H156 0.930 . S
N150 C147 1.329 . S
N150 C151 1.331 . S
C151 C149 1.392 . S
C151 N150 1.331 . S
O152 Zn145 1.975 . S
O152 C153 1.252 . S
C153 O152 1.252 . S
C153 O154 1.252 . S
O154 Zn136 1.975 . S
O154 C153 1.252 . S
H155 C148 0.930 . S
H156 C149 0.930 . S
C157 C158 1.392 . S
C157 N161 1.328 . S
C157 H163 0.930 . S
C158 C157 1.392 . S
C158 N162 1.331 . S
C159 C160 1.391 . S
C159 N162 1.329 . S
C159 H169 0.930 . S
C160 C159 1.391 . S
C160 N161 1.334 . S
C160 H167 0.930 . S
N161 Zn145 2.119 . S
N161 C157 1.328 . S
N161 C160 1.334 . S
N162 C158 1.331 . S
N162 C159 1.329 . S
H163 C157 0.930 . S
C164 O144 1.257 . S
C164 O165 1.244 . S
O165 C164 1.244 . S
O166 C142 1.257 . S
O166 Zn145 2.019 . S
H167 C160 0.930 . S
H168 C147 0.930 . S
H169 C159 0.930 . S
Zn170 N174 2.020 . S
Zn170 O178 2.019 1_455 S
Zn170 N180 2.119 1_455 S
Zn170 O188 1.975 . S
C171 N172 1.334 . S
C171 N175 1.336 . S
N172 C171 1.334 . S
N172 C173 1.334 . S
C173 N172 1.334 . S
C173 N174 1.336 . S
N174 Zn170 2.020 . S
N174 C173 1.336 . S
N174 N175 1.354 . S
N175 C171 1.336 . S
N175 N174 1.354 . S
N175 Zn179 2.020 . S
C176 O177 1.244 . S
C176 O200 1.257 . S
O177 C176 1.244 . S
O178 Zn170 2.019 1_655 S
O178 C198 1.257 1_655 S
Zn179 N175 2.020 . S
Zn179 O186 1.975 . S
Zn179 N195 2.119 . S
Zn179 O200 2.019 . S
N180 Zn170 2.119 1_655 S
N180 C182 1.334 . S
N180 C183 1.328 . S
C181 C182 1.391 . S
C181 N184 1.329 . S
C181 H202 0.930 . S
C182 N180 1.334 . S
C182 C181 1.391 . S
C182 H189 0.930 . S
C183 N180 1.328 . S
C183 C185 1.392 . S
C183 H190 0.930 . S
N184 C181 1.329 . S
N184 C185 1.331 . S
C185 C183 1.392 . S
C185 N184 1.331 . S
O186 Zn179 1.975 . S
O186 C187 1.252 . S
C187 O186 1.252 . S
C187 O188 1.252 . S
O188 Zn170 1.975 . S
O188 C187 1.252 . S
H189 C182 0.930 . S
H190 C183 0.930 . S
C191 C192 1.392 . S
C191 N195 1.328 . S
C191 H197 0.930 . S
C192 C191 1.392 . S
C192 N196 1.331 . S
C193 C194 1.391 . S
C193 N196 1.329 . S
C193 H203 0.930 . S
C194 C193 1.391 . S
C194 N195 1.334 . S
C194 H201 0.930 . S
N195 Zn179 2.119 . S
N195 C191 1.328 . S
N195 C194 1.334 . S
N196 C192 1.331 . S
N196 C193 1.329 . S
H197 C191 0.930 . S
C198 O178 1.257 1_455 S
C198 O199 1.244 . S
O199 C198 1.244 . S
O200 C176 1.257 . S
O200 Zn179 2.019 . S
H201 C194 0.930 . S
H202 C181 0.930 . S
H203 C193 0.930 . S
Zn204 N208 2.020 . S
Zn204 O212 2.019 . S
Zn204 N214 2.119 . S
Zn204 O222 1.975 . S
C205 N206 1.334 . S
C205 N209 1.336 . S
N206 C205 1.334 . S
N206 C207 1.334 . S
C207 N206 1.334 . S
C207 N208 1.336 . S
N208 Zn204 2.020 . S
N208 C207 1.336 . S
N208 N209 1.354 . S
N209 C205 1.336 . S
N209 N208 1.354 . S
N209 Zn213 2.020 . S
C210 O211 1.244 . S
C210 O234 1.257 . S
O211 C210 1.244 . S
O212 Zn204 2.019 . S
O212 C232 1.257 . S
Zn213 N209 2.020 . S
Zn213 O220 1.975 . S
Zn213 N229 2.119 . S
Zn213 O234 2.019 . S
N214 Zn204 2.119 . S
N214 C216 1.334 . S
N214 C217 1.328 . S
C215 C216 1.391 . S
C215 N218 1.329 . S
C215 H236 0.930 . S
C216 N214 1.334 . S
C216 C215 1.391 . S
C216 H223 0.930 . S
C217 N214 1.328 . S
C217 C219 1.392 . S
C217 H224 0.930 . S
N218 C215 1.329 . S
N218 C219 1.331 . S
C219 C217 1.392 . S
C219 N218 1.331 . S
O220 Zn213 1.975 . S
O220 C221 1.252 . S
C221 O220 1.252 . S
C221 O222 1.252 . S
O222 Zn204 1.975 . S
O222 C221 1.252 . S
H223 C216 0.930 . S
H224 C217 0.930 . S
C225 C226 1.392 . S
C225 N229 1.328 . S
C225 H231 0.930 . S
C226 C225 1.392 . S
C226 N230 1.331 . S
C227 C228 1.391 . S
C227 N230 1.329 . S
C227 H237 0.930 . S
C228 C227 1.391 . S
C228 N229 1.334 . S
C228 H235 0.930 . S
N229 Zn213 2.119 . S
N229 C225 1.328 . S
N229 C228 1.334 . S
N230 C226 1.331 . S
N230 C227 1.329 . S
H231 C225 0.930 . S
C232 O212 1.257 . S
C232 O233 1.244 . S
O233 C232 1.244 . S
O234 C210 1.257 . S
O234 Zn213 2.019 . S
H235 C228 0.930 . S
H236 C215 0.930 . S
H237 C227 0.930 . S
Zn238 N242 2.020 . S
Zn238 O246 2.019 . S
Zn238 N248 2.119 . S
Zn238 O256 1.975 . S
C239 N240 1.334 . S
C239 N243 1.336 . S
N240 C239 1.334 . S
N240 C241 1.334 . S
C241 N240 1.334 . S
C241 N242 1.336 . S
N242 Zn238 2.020 . S
N242 C241 1.336 . S
N242 N243 1.354 . S
N243 C239 1.336 . S
N243 N242 1.354 . S
N243 Zn247 2.020 . S
C244 O245 1.244 . S
C244 O268 1.257 1_455 S
O245 C244 1.244 . S
O246 Zn238 2.019 . S
O246 C266 1.257 . S
Zn247 N243 2.020 . S
Zn247 O254 1.975 . S
Zn247 N263 2.119 1_455 S
Zn247 O268 2.019 1_455 S
N248 Zn238 2.119 . S
N248 C250 1.334 . S
N248 C251 1.328 . S
C249 C250 1.391 . S
C249 N252 1.329 . S
C249 H270 0.930 . S
C250 N248 1.334 . S
C250 C249 1.391 . S
C250 H257 0.930 . S
C251 N248 1.328 . S
C251 C253 1.392 . S
C251 H258 0.930 . S
N252 C249 1.329 . S
N252 C253 1.331 . S
C253 C251 1.392 . S
C253 N252 1.331 . S
O254 Zn247 1.975 . S
O254 C255 1.252 . S
C255 O254 1.252 . S
C255 O256 1.252 . S
O256 Zn238 1.975 . S
O256 C255 1.252 . S
H257 C250 0.930 . S
H258 C251 0.930 . S
C259 C260 1.392 . S
C259 N263 1.328 . S
C259 H265 0.930 . S
C260 C259 1.392 . S
C260 N264 1.331 . S
C261 C262 1.391 . S
C261 N264 1.329 . S
C261 H271 0.930 . S
C262 C261 1.391 . S
C262 N263 1.334 . S
C262 H269 0.930 . S
N263 Zn247 2.119 1_655 S
N263 C259 1.328 . S
N263 C262 1.334 . S
N264 C260 1.331 . S
N264 C261 1.329 . S
H265 C259 0.930 . S
C266 O246 1.257 . S
C266 O267 1.244 . S
O267 C266 1.244 . S
O268 C244 1.257 1_655 S
O268 Zn247 2.019 1_655 S
H269 C262 0.930 . S
H270 C249 0.930 . S
H271 C261 0.930 . S
H272 C280 0.950 . S
H273 C285 0.950 . S
H274 C282 0.950 . S
H275 C284 0.950 . S
H276 C286 0.950 . S
H277 C288 0.950 . S
H278 C290 0.950 . S
H279 C291 0.950 . S
C280 H272 0.950 . S
C280 C281 1.386 . S
C280 C282 1.391 . S
C281 C280 1.386 . S
C281 C285 1.393 . S
C282 H274 0.950 . S
C282 C280 1.391 . S
C282 C283 1.400 . S
C283 C282 1.400 . S
C283 C284 1.398 . S
C283 C289 1.491 . S
C284 H275 0.950 . S
C284 C283 1.398 . S
C284 C285 1.391 . S
C285 H273 0.950 . S
C285 C281 1.393 . S
C285 C284 1.391 . S
C286 H276 0.950 . S
C286 C287 1.386 . S
C286 C288 1.391 . S
C287 C286 1.386 . S
C287 C291 1.393 . S
C288 H277 0.950 . S
C288 C286 1.391 . S
C288 C289 1.400 . S
C289 C283 1.491 . S
C289 C288 1.400 . S
C289 C290 1.398 . S
C290 H278 0.950 . S
C290 C289 1.398 . S
C290 C291 1.391 . S
C291 H279 0.950 . S
C291 C287 1.393 . S
C291 C290 1.391 . S
H292 C300 0.950 . S
H293 C305 0.950 . S
H294 C302 0.950 . S
H295 C304 0.950 . S
H296 C306 0.950 . S
H297 C308 0.950 . S
H298 C310 0.950 . S
H299 C311 0.950 . S
C300 H292 0.950 . S
C300 C301 1.386 . S
C300 C302 1.391 . S
C301 C300 1.386 . S
C301 C305 1.393 . S
C302 H294 0.950 . S
C302 C300 1.391 . S
C302 C303 1.400 . S
C303 C302 1.400 . S
C303 C304 1.398 . S
C303 C309 1.491 . S
C304 H295 0.950 . S
C304 C303 1.398 . S
C304 C305 1.391 . S
C305 H293 0.950 . S
C305 C301 1.393 . S
C305 C304 1.391 . S
C306 H296 0.950 . S
C306 C307 1.386 . S
C306 C308 1.391 . S
C307 C306 1.386 . S
C307 C311 1.393 . S
C308 H297 0.950 . S
C308 C306 1.391 . S
C308 C309 1.400 . S
C309 C303 1.491 . S
C309 C308 1.400 . S
C309 C310 1.398 . S
C310 H298 0.950 . S
C310 C309 1.398 . S
C310 C311 1.391 . S
C311 H299 0.950 . S
C311 C307 1.393 . S
C311 C310 1.391 . S
H312 C320 0.950 . S
H313 C325 0.950 . S
H314 C322 0.950 . S
H315 C324 0.950 . S
H316 C326 0.950 . S
H317 C328 0.950 . S
H318 C330 0.950 . S
H319 C331 0.950 . S
C320 H312 0.950 . S
C320 C321 1.386 . S
C320 C322 1.391 . S
C321 C320 1.386 . S
C321 C325 1.393 . S
C322 H314 0.950 . S
C322 C320 1.391 . S
C322 C323 1.400 . S
C323 C322 1.400 . S
C323 C324 1.398 . S
C323 C329 1.491 . S
C324 H315 0.950 . S
C324 C323 1.398 . S
C324 C325 1.391 . S
C325 H313 0.950 . S
C325 C321 1.393 . S
C325 C324 1.391 . S
C326 H316 0.950 . S
C326 C327 1.386 . S
C326 C328 1.391 . S
C327 C326 1.386 . S
C327 C331 1.393 . S
C328 H317 0.950 . S
C328 C326 1.391 . S
C328 C329 1.400 . S
C329 C323 1.491 . S
C329 C328 1.400 . S
C329 C330 1.398 . S
C330 H318 0.950 . S
C330 C329 1.398 . S
C330 C331 1.391 . S
C331 H319 0.950 . S
C331 C327 1.393 . S
C331 C330 1.391 . S
H332 C340 0.950 . S
H333 C345 0.950 . S
H334 C342 0.950 . S
H335 C344 0.950 . S
H336 C346 0.950 . S
H337 C348 0.950 . S
H338 C350 0.950 . S
H339 C351 0.950 . S
C340 H332 0.950 . S
C340 C341 1.386 . S
C340 C342 1.391 . S
C341 C340 1.386 . S
C341 C345 1.393 . S
C342 H334 0.950 . S
C342 C340 1.391 . S
C342 C343 1.400 . S
C343 C342 1.400 . S
C343 C344 1.398 . S
C343 C349 1.491 . S
C344 H335 0.950 . S
C344 C343 1.398 . S
C344 C345 1.391 . S
C345 H333 0.950 . S
C345 C341 1.393 . S
C345 C344 1.391 . S
C346 H336 0.950 . S
C346 C347 1.386 . S
C346 C348 1.391 . S
C347 C346 1.386 . S
C347 C351 1.393 . S
C348 H337 0.950 . S
C348 C346 1.391 . S
C348 C349 1.400 . S
C349 C343 1.491 . S
C349 C348 1.400 . S
C349 C350 1.398 . S
C350 H338 0.950 . S
C350 C349 1.398 . S
C350 C351 1.391 . S
C351 H339 0.950 . S
C351 C347 1.393 . S
C351 C350 1.391 . S
H352 C360 0.950 . S
H353 C365 0.950 . S
H354 C362 0.950 . S
H355 C364 0.950 . S
H356 C366 0.950 . S
H357 C368 0.950 . S
H358 C370 0.950 . S
H359 C371 0.950 . S
C360 H352 0.950 . S
C360 C361 1.386 . S
C360 C362 1.391 . S
C361 C360 1.386 . S
C361 C365 1.393 . S
C362 H354 0.950 . S
C362 C360 1.391 . S
C362 C363 1.400 . S
C363 C362 1.400 . S
C363 C364 1.398 . S
C363 C369 1.491 . S
C364 H355 0.950 . S
C364 C363 1.398 . S
C364 C365 1.391 . S
C365 H353 0.950 . S
C365 C361 1.393 . S
C365 C364 1.391 . S
C366 H356 0.950 . S
C366 C367 1.386 . S
C366 C368 1.391 . S
C367 C366 1.386 . S
C367 C371 1.393 . S
C368 H357 0.950 . S
C368 C366 1.391 . S
C368 C369 1.400 . S
C369 C363 1.491 . S
C369 C368 1.400 . S
C369 C370 1.398 . S
C370 H358 0.950 . S
C370 C369 1.398 . S
C370 C371 1.391 . S
C371 H359 0.950 . S
C371 C367 1.393 . S
C371 C370 1.391 . S
H372 C380 0.950 . S
H373 C385 0.950 . S
H374 C382 0.950 . S
H375 C384 0.950 . S
H376 C386 0.950 . S
H377 C388 0.950 . S
H378 C390 0.950 . S
H379 C391 0.950 . S
C380 H372 0.950 . S
C380 C381 1.386 . S
C380 C382 1.391 . S
C381 C380 1.386 . S
C381 C385 1.393 . S
C382 H374 0.950 . S
C382 C380 1.391 . S
C382 C383 1.400 . S
C383 C382 1.400 . S
C383 C384 1.398 . S
C383 C389 1.491 . S
C384 H375 0.950 . S
C384 C383 1.398 . S
C384 C385 1.391 . S
C385 H373 0.950 . S
C385 C381 1.393 . S
C385 C384 1.391 . S
C386 H376 0.950 . S
C386 C387 1.386 . S
C386 C388 1.391 . S
C387 C386 1.386 . S
C387 C391 1.393 . S
C388 H377 0.950 . S
C388 C386 1.391 . S
C388 C389 1.400 . S
C389 C383 1.491 . S
C389 C388 1.400 . S
C389 C390 1.398 . S
C390 H378 0.950 . S
C390 C389 1.398 . S
C390 C391 1.391 . S
C391 H379 0.950 . S
C391 C387 1.393 . S
C391 C390 1.391 . S
H392 C400 0.950 . S
H393 C405 0.950 . S
H394 C402 0.950 . S
H395 C404 0.950 . S
H396 C406 0.950 . S
H397 C408 0.950 . S
H398 C410 0.950 . S
H399 C411 0.950 . S
C400 H392 0.950 . S
C400 C401 1.386 . S
C400 C402 1.391 . S
C401 C400 1.386 . S
C401 C405 1.393 . S
C402 H394 0.950 . S
C402 C400 1.391 . S
C402 C403 1.400 . S
C403 C402 1.400 . S
C403 C404 1.398 . S
C403 C409 1.491 . S
C404 H395 0.950 . S
C404 C403 1.398 . S
C404 C405 1.391 . S
C405 H393 0.950 . S
C405 C401 1.393 . S
C405 C404 1.391 . S
C406 H396 0.950 . S
C406 C407 1.386 . S
C406 C408 1.391 . S
C407 C406 1.386 . S
C407 C411 1.393 . S
C408 H397 0.950 . S
C408 C406 1.391 . S
C408 C409 1.400 . S
C409 C403 1.491 . S
C409 C408 1.400 . S
C409 C410 1.398 . S
C410 H398 0.950 . S
C410 C409 1.398 . S
C410 C411 1.391 . S
C411 H399 0.950 . S
C411 C407 1.393 . S
C411 C410 1.391 . S
H412 C420 0.950 . S
H413 C425 0.950 . S
H414 C422 0.950 . S
H415 C424 0.950 . S
H416 C426 0.950 . S
H417 C428 0.950 . S
H418 C430 0.950 . S
H419 C431 0.950 . S
C420 H412 0.950 . S
C420 C421 1.386 . S
C420 C422 1.391 . S
C421 C420 1.386 . S
C421 C425 1.393 . S
C422 H414 0.950 . S
C422 C420 1.391 . S
C422 C423 1.400 . S
C423 C422 1.400 . S
C423 C424 1.398 . S
C423 C429 1.491 . S
C424 H415 0.950 . S
C424 C423 1.398 . S
C424 C425 1.391 . S
C425 H413 0.950 . S
C425 C421 1.393 . S
C425 C424 1.391 . S
C426 H416 0.950 . S
C426 C427 1.386 . S
C426 C428 1.391 . S
C427 C426 1.386 . S
C427 C431 1.393 . S
C428 H417 0.950 . S
C428 C426 1.391 . S
C428 C429 1.400 . S
C429 C423 1.491 . S
C429 C428 1.400 . S
C429 C430 1.398 . S
C430 H418 0.950 . S
C430 C429 1.398 . S
C430 C431 1.391 . S
C431 H419 0.950 . S
C431 C427 1.393 . S
C431 C430 1.391 . S
H432 C440 0.950 . S
H433 C445 0.950 . S
H434 C442 0.950 . S
H435 C444 0.950 . S
H436 C446 0.950 . S
H437 C448 0.950 . S
H438 C450 0.950 . S
H439 C451 0.950 . S
C440 H432 0.950 . S
C440 C441 1.386 . S
C440 C442 1.391 . S
C441 C440 1.386 . S
C441 C445 1.393 . S
C442 H434 0.950 . S
C442 C440 1.391 . S
C442 C443 1.400 . S
C443 C442 1.400 . S
C443 C444 1.398 . S
C443 C449 1.491 . S
C444 H435 0.950 . S
C444 C443 1.398 . S
C444 C445 1.391 . S
C445 H433 0.950 . S
C445 C441 1.393 . S
C445 C444 1.391 . S
C446 H436 0.950 . S
C446 C447 1.386 . S
C446 C448 1.391 . S
C447 C446 1.386 . S
C447 C451 1.393 . S
C448 H437 0.950 . S
C448 C446 1.391 . S
C448 C449 1.400 . S
C449 C443 1.491 . S
C449 C448 1.400 . S
C449 C450 1.398 . S
C450 H438 0.950 . S
C450 C449 1.398 . S
C450 C451 1.391 . S
C451 H439 0.950 . S
C451 C447 1.393 . S
C451 C450 1.391 . S
H452 C460 0.950 . S
H453 C465 0.950 . S
H454 C462 0.950 . S
H455 C464 0.950 . S
H456 C466 0.950 . S
H457 C468 0.950 . S
H458 C470 0.950 . S
H459 C471 0.950 . S
C460 H452 0.950 . S
C460 C461 1.386 . S
C460 C462 1.391 . S
C461 C460 1.386 . S
C461 C465 1.393 . S
C462 H454 0.950 . S
C462 C460 1.391 . S
C462 C463 1.400 . S
C463 C462 1.400 . S
C463 C464 1.398 . S
C463 C469 1.491 . S
C464 H455 0.950 . S
C464 C463 1.398 . S
C464 C465 1.391 . S
C465 H453 0.950 . S
C465 C461 1.393 . S
C465 C464 1.391 . S
C466 H456 0.950 . S
C466 C467 1.386 . S
C466 C468 1.391 . S
C467 C466 1.386 . S
C467 C471 1.393 . S
C468 H457 0.950 . S
C468 C466 1.391 . S
C468 C469 1.400 . S
C469 C463 1.491 . S
C469 C468 1.400 . S
C469 C470 1.398 . S
C470 H458 0.950 . S
C470 C469 1.398 . S
C470 C471 1.391 . S
C471 H459 0.950 . S
C471 C467 1.393 . S
C471 C470 1.391 . S
H472 C480 0.950 . S
H473 C485 0.950 . S
H474 C482 0.950 . S
H475 C484 0.950 . S
H476 C486 0.950 . S
H477 C488 0.950 . S
H478 C490 0.950 . S
H479 C491 0.950 . S
C480 H472 0.950 . S
C480 C481 1.386 . S
C480 C482 1.391 . S
C481 C480 1.386 . S
C481 C485 1.393 . S
C482 H474 0.950 . S
C482 C480 1.391 . S
C482 C483 1.400 . S
C483 C482 1.400 . S
C483 C484 1.398 . S
C483 C489 1.491 . S
C484 H475 0.950 . S
C484 C483 1.398 . S
C484 C485 1.391 . S
C485 H473 0.950 . S
C485 C481 1.393 . S
C485 C484 1.391 . S
C486 H476 0.950 . S
C486 C487 1.386 . S
C486 C488 1.391 . S
C487 C486 1.386 . S
C487 C491 1.393 . S
C488 H477 0.950 . S
C488 C486 1.391 . S
C488 C489 1.400 . S
C489 C483 1.491 . S
C489 C488 1.400 . S
C489 C490 1.398 . S
C490 H478 0.950 . S
C490 C489 1.398 . S
C490 C491 1.391 . S
C491 H479 0.950 . S
C491 C487 1.393 . S
C491 C490 1.391 . S
H492 C500 0.950 . S
H493 C505 0.950 . S
H494 C502 0.950 . S
H495 C504 0.950 . S
H496 C506 0.950 . S
H497 C508 0.950 . S
H498 C510 0.950 . S
H499 C511 0.950 . S
C500 H492 0.950 . S
C500 C501 1.386 . S
C500 C502 1.391 . S
C501 C500 1.386 . S
C501 C505 1.393 . S
C502 H494 0.950 . S
C502 C500 1.391 . S
C502 C503 1.400 . S
C503 C502 1.400 . S
C503 C504 1.398 . S
C503 C509 1.491 . S
C504 H495 0.950 . S
C504 C503 1.398 . S
C504 C505 1.391 . S
C505 H493 0.950 . S
C505 C501 1.393 . S
C505 C504 1.391 . S
C506 H496 0.950 . S
C506 C507 1.386 . S
C506 C508 1.391 . S
C507 C506 1.386 . S
C507 C511 1.393 . S
C508 H497 0.950 . S
C508 C506 1.391 . S
C508 C509 1.400 . S
C509 C503 1.491 . S
C509 C508 1.400 . S
C509 C510 1.398 . S
C510 H498 0.950 . S
C510 C509 1.398 . S
C510 C511 1.391 . S
C511 H499 0.950 . S
C511 C507 1.393 . S
C511 C510 1.391 . S
H512 C520 0.938 1_565 S
H513 C525 0.950 . S
H514 C522 0.950 . S
H515 C524 0.950 . S
H516 C526 0.950 . S
H517 C528 0.950 . S
H518 C530 0.950 . S
H519 C531 0.950 . S
C520 H512 0.938 1_545 S
C520 C521 1.372 1_545 S
C520 C522 1.417 . S
C521 C520 1.372 1_565 S
C521 C525 1.393 . S
C522 H514 0.950 . S
C522 C520 1.417 . S
C522 C523 1.400 . S
C523 C522 1.400 . S
C523 C524 1.398 . S
C523 C529 1.491 . S
C524 H515 0.950 . S
C524 C523 1.398 . S
C524 C525 1.391 1_545 S
C525 H513 0.950 . S
C525 C521 1.393 . S
C525 C524 1.391 1_565 S
C526 H516 0.950 . S
C526 C527 1.386 . S
C526 C528 1.391 . S
C527 C526 1.386 . S
C527 C531 1.393 . S
C528 H517 0.950 . S
C528 C526 1.391 . S
C528 C529 1.400 . S
C529 C523 1.491 . S
C529 C528 1.400 . S
C529 C530 1.398 . S
C530 H518 0.950 . S
C530 C529 1.398 . S
C530 C531 1.391 . S
C531 H519 0.950 . S
C531 C527 1.393 . S
C531 C530 1.391 . S
H532 C540 0.944 1_655 S
H533 C545 0.950 . S
H534 C542 0.950 . S
H535 C544 0.950 . S
H536 C546 0.950 . S
H537 C548 0.950 . S
H538 C550 0.950 . S
H539 C551 0.950 1_545 S
C540 H532 0.944 1_455 S
C540 C541 1.392 . S
C540 C542 1.391 1_455 S
C541 C540 1.392 . S
C541 C545 1.393 . S
C542 H534 0.950 . S
C542 C540 1.391 1_655 S
C542 C543 1.400 1_655 S
C543 C542 1.400 1_455 S
C543 C544 1.398 . S
C543 C549 1.491 . S
C544 H535 0.950 . S
C544 C543 1.398 . S
C544 C545 1.391 . S
C545 H533 0.950 . S
C545 C541 1.393 . S
C545 C544 1.391 . S
C546 H536 0.950 . S
C546 C547 1.386 . S
C546 C548 1.391 1_545 S
C547 C546 1.386 . S
C547 C551 1.393 1_445 S
C548 H537 0.950 . S
C548 C546 1.391 1_565 S
C548 C549 1.400 . S
C549 C543 1.491 . S
C549 C548 1.400 . S
C549 C550 1.398 1_455 S
C550 H538 0.950 . S
C550 C549 1.398 1_655 S
C550 C551 1.391 . S
C551 H539 0.950 1_565 S
C551 C547 1.393 1_665 S
C551 C550 1.391 . S
H552 C560 0.950 . S
H553 C565 0.950 . S
H554 C562 0.950 . S
H555 C564 0.950 . S
H556 C566 0.950 1_545 S
H557 C568 0.950 . S
H558 C570 0.950 . S
H559 C571 0.950 . S
C560 H552 0.950 . S
C560 C561 1.386 . S
C560 C562 1.391 . S
C561 C560 1.386 . S
C561 C565 1.393 . S
C562 H554 0.950 . S
C562 C560 1.391 . S
C562 C563 1.400 . S
C563 C562 1.400 . S
C563 C564 1.398 . S
C563 C569 1.491 . S
C564 H555 0.950 . S
C564 C563 1.398 . S
C564 C565 1.391 . S
C565 H553 0.950 . S
C565 C561 1.393 . S
C565 C564 1.391 . S
C566 H556 0.950 1_565 S
C566 C567 1.386 1_565 S
C566 C568 1.391 . S
C567 C566 1.386 1_545 S
C567 C571 1.393 . S
C568 H557 0.950 . S
C568 C566 1.391 . S
C568 C569 1.400 . S
C569 C563 1.491 . S
C569 C568 1.400 . S
C569 C570 1.398 . S
C570 H558 0.950 . S
C570 C569 1.398 . S
C570 C571 1.391 1_565 S
C571 H559 0.950 . S
C571 C567 1.393 . S
C571 C570 1.391 1_545 S
H572 C580 0.950 . S
H573 C585 0.950 . S
H574 C582 0.950 . S
H575 C584 0.950 . S
H576 C586 0.950 . S
H577 C588 0.950 . S
H578 C590 0.950 . S
H579 C591 0.950 1_565 S
C580 H572 0.950 . S
C580 C581 1.386 1_655 S
C580 C582 1.391 . S
C581 C580 1.386 1_455 S
C581 C585 1.393 . S
C582 H574 0.950 . S
C582 C580 1.391 . S
C582 C583 1.400 1_655 S
C583 C582 1.400 1_455 S
C583 C584 1.398 . S
C583 C589 1.491 . S
C584 H575 0.950 . S
C584 C583 1.398 . S
C584 C585 1.391 . S
C585 H573 0.950 . S
C585 C581 1.393 . S
C585 C584 1.391 . S
C586 H576 0.950 . S
C586 C587 1.386 . S
C586 C588 1.391 1_565 S
C587 C586 1.386 . S
C587 C591 1.393 1_465 S
C588 H577 0.950 . S
C588 C586 1.391 1_545 S
C588 C589 1.400 . S
C589 C583 1.491 . S
C589 C588 1.400 . S
C589 C590 1.398 1_455 S
C590 H578 0.950 . S
C590 C589 1.398 1_655 S
C590 C591 1.391 . S
C591 H579 0.950 1_545 S
C591 C587 1.393 1_645 S
C591 C590 1.391 . S
H592 C600 0.950 . S
H593 C605 0.950 . S
H594 C602 0.950 1_556 S
H595 C604 0.950 . S
H596 C606 0.970 . S
H597 C608 0.950 . S
H598 C610 0.950 . S
H599 C611 0.950 . S
C600 H592 0.950 . S
C600 C601 1.386 . S
C600 C602 1.391 . S
C601 C600 1.386 . S
C601 C605 1.393 1_455 S
C602 H594 0.950 1_554 S
C602 C600 1.391 . S
C602 C603 1.400 1_554 S
C603 C602 1.400 1_556 S
C603 C604 1.398 1_455 S
C603 C609 1.491 . S
C604 H595 0.950 . S
C604 C603 1.398 1_655 S
C604 C605 1.391 1_556 S
C605 H593 0.950 . S
C605 C601 1.393 1_655 S
C605 C604 1.391 1_554 S
C606 H596 0.970 . S
C606 C607 1.365 1_655 S
C606 C608 1.392 . S
C607 C606 1.365 1_455 S
C607 C611 1.393 . S
C608 H597 0.950 . S
C608 C606 1.392 . S
C608 C609 1.400 1_655 S
C609 C603 1.491 . S
C609 C608 1.400 1_455 S
C609 C610 1.398 . S
C610 H598 0.950 . S
C610 C609 1.398 . S
C610 C611 1.391 . S
C611 H599 0.950 . S
C611 C607 1.393 . S
C611 C610 1.391 . S
H612 C620 0.950 . S
H613 C625 0.950 . S
H614 C622 0.950 . S
H615 C624 0.950 . S
H616 C626 0.950 . S
H617 C628 0.950 . S
H618 C630 0.950 . S
H619 C631 0.950 . S
C620 H612 0.950 . S
C620 C621 1.386 . S
C620 C622 1.391 . S
C621 C620 1.386 . S
C621 C625 1.393 . S
C622 H614 0.950 . S
C622 C620 1.391 . S
C622 C623 1.400 . S
C623 C622 1.400 . S
C623 C624 1.398 . S
C623 C629 1.491 . S
C624 H615 0.950 . S
C624 C623 1.398 . S
C624 C625 1.391 . S
C625 H613 0.950 . S
C625 C621 1.393 . S
C625 C624 1.391 . S
C626 H616 0.950 . S
C626 C627 1.386 . S
C626 C628 1.391 . S
C627 C626 1.386 . S
C627 C631 1.393 . S
C628 H617 0.950 . S
C628 C626 1.391 . S
C628 C629 1.400 . S
C629 C623 1.491 . S
C629 C628 1.400 . S
C629 C630 1.398 . S
C630 H618 0.950 . S
C630 C629 1.398 . S
C630 C631 1.391 . S
C631 H619 0.950 . S
C631 C627 1.393 . S
C631 C630 1.391 . S
H632 C640 0.950 . S
H633 C645 0.950 1_655 S
H634 C642 0.950 . S
H635 C644 0.950 1_655 S
H636 C646 0.950 1_655 S
H637 C648 0.950 1_655 S
H638 C650 0.950 . S
H639 C651 0.950 . S
C640 H632 0.950 . S
C640 C641 1.386 . S
C640 C642 1.391 . S
C641 C640 1.386 . S
C641 C645 1.393 . S
C642 H634 0.950 . S
C642 C640 1.391 . S
C642 C643 1.400 . S
C643 C642 1.400 . S
C643 C644 1.398 . S
C643 C649 1.491 . S
C644 H635 0.950 1_455 S
C644 C643 1.398 . S
C644 C645 1.391 . S
C645 H633 0.950 1_455 S
C645 C641 1.393 . S
C645 C644 1.391 . S
C646 H636 0.950 1_455 S
C646 C647 1.386 . S
C646 C648 1.391 . S
C647 C646 1.386 . S
C647 C651 1.393 . S
C648 H637 0.950 1_455 S
C648 C646 1.391 . S
C648 C649 1.400 1_556 S
C649 C643 1.491 . S
C649 C648 1.400 1_554 S
C649 C650 1.398 . S
C650 H638 0.950 . S
C650 C649 1.398 . S
C650 C651 1.391 1_554 S
C651 H639 0.950 . S
C651 C647 1.393 . S
C651 C650 1.391 1_556 S
H652 C660 0.950 . S
H653 C665 0.950 . S
H654 C662 0.950 . S
H655 C664 0.950 . S
H656 C666 0.950 . S
H657 C668 0.950 . S
H658 C670 0.950 . S
H659 C671 0.950 . S
C660 H652 0.950 . S
C660 C661 1.386 . S
C660 C662 1.391 . S
C661 C660 1.386 . S
C661 C665 1.393 . S
C662 H654 0.950 . S
C662 C660 1.391 . S
C662 C663 1.400 . S
C663 C662 1.400 . S
C663 C664 1.398 . S
C663 C669 1.491 . S
C664 H655 0.950 . S
C664 C663 1.398 . S
C664 C665 1.391 . S
C665 H653 0.950 . S
C665 C661 1.393 . S
C665 C664 1.391 . S
C666 H656 0.950 . S
C666 C667 1.386 . S
C666 C668 1.391 . S
C667 C666 1.386 . S
C667 C671 1.393 . S
C668 H657 0.950 . S
C668 C666 1.391 . S
C668 C669 1.400 . S
C669 C663 1.491 . S
C669 C668 1.400 . S
C669 C670 1.398 . S
C670 H658 0.950 . S
C670 C669 1.398 . S
C670 C671 1.391 . S
C671 H659 0.950 . S
C671 C667 1.393 . S
C671 C670 1.391 . S
H672 C680 0.950 . S
H673 C685 0.950 . S
H674 C682 0.950 . S
H675 C684 0.950 1_556 S
H676 C686 0.950 . S
H677 C688 0.950 . S
H678 C690 0.950 . S
H679 C691 0.950 . S
C680 H672 0.950 . S
C680 C681 1.386 . S
C680 C682 1.391 1_554 S
C681 C680 1.386 . S
C681 C685 1.393 . S
C682 H674 0.950 . S
C682 C680 1.391 1_556 S
C682 C683 1.400 . S
C683 C682 1.400 . S
C683 C684 1.398 1_556 S
C683 C689 1.491 . S
C684 H675 0.950 1_554 S
C684 C683 1.398 1_554 S
C684 C685 1.391 . S
C685 H673 0.950 . S
C685 C681 1.393 . S
C685 C684 1.391 . S
C686 H676 0.950 . S
C686 C687 1.386 . S
C686 C688 1.391 . S
C687 C686 1.386 . S
C687 C691 1.393 . S
C688 H677 0.950 . S
C688 C686 1.391 . S
C688 C689 1.400 . S
C689 C683 1.491 . S
C689 C688 1.400 . S
C689 C690 1.398 . S
C690 H678 0.950 . S
C690 C689 1.398 . S
C690 C691 1.391 . S
C691 H679 0.950 . S
C691 C687 1.393 . S
C691 C690 1.391 . S
H692 C700 0.950 . S
H693 C705 0.950 . S
H694 C702 0.947 1_655 S
H695 C704 0.950 . S
H696 C706 0.950 . S
H697 C708 0.950 . S
H698 C710 0.950 1_655 S
H699 C711 0.950 1_655 S
C700 H692 0.950 . S
C700 C701 1.386 . S
C700 C702 1.391 . S
C701 C700 1.386 . S
C701 C705 1.393 . S
C702 H694 0.947 1_455 S
C702 C700 1.391 . S
C702 C703 1.400 . S
C703 C702 1.400 . S
C703 C704 1.398 . S
C703 C709 1.491 . S
C704 H695 0.950 . S
C704 C703 1.398 . S
C704 C705 1.391 . S
C705 H693 0.950 . S
C705 C701 1.393 . S
C705 C704 1.391 . S
C706 H696 0.950 . S
C706 C707 1.386 . S
C706 C708 1.391 . S
C707 C706 1.386 . S
C707 C711 1.393 . S
C708 H697 0.950 . S
C708 C706 1.391 . S
C708 C709 1.400 . S
C709 C703 1.491 . S
C709 C708 1.400 . S
C709 C710 1.398 . S
C710 H698 0.950 1_455 S
C710 C709 1.398 . S
C710 C711 1.391 . S
C711 H699 0.950 1_455 S
C711 C707 1.393 . S
C711 C710 1.391 . S
H712 C720 0.950 . S
H713 C725 0.950 . S
H714 C722 0.950 . S
H715 C724 0.950 . S
H716 C726 0.950 . S
H717 C728 0.950 . S
H718 C730 0.950 . S
H719 C731 0.950 . S
C720 H712 0.950 . S
C720 C721 1.386 . S
C720 C722 1.391 1_556 S
C721 C720 1.386 . S
C721 C725 1.393 . S
C722 H714 0.950 . S
C722 C720 1.391 1_554 S
C722 C723 1.400 . S
C723 C722 1.400 . S
C723 C724 1.398 1_554 S
C723 C729 1.491 . S
C724 H715 0.950 . S
C724 C723 1.398 1_556 S
C724 C725 1.391 . S
C725 H713 0.950 . S
C725 C721 1.393 . S
C725 C724 1.391 . S
C726 H716 0.950 . S
C726 C727 1.386 . S
C726 C728 1.391 . S
C727 C726 1.386 . S
C727 C731 1.393 . S
C728 H717 0.950 . S
C728 C726 1.391 . S
C728 C729 1.400 . S
C729 C723 1.491 . S
C729 C728 1.400 . S
C729 C730 1.398 . S
C730 H718 0.950 . S
C730 C729 1.398 . S
C730 C731 1.391 . S
C731 H719 0.950 . S
C731 C727 1.393 . S
C731 C730 1.391 . S
H732 C740 0.950 . S
H733 C745 0.950 . S
H734 C742 0.950 . S
H735 C744 0.981 . S
H736 C746 0.950 1_655 S
H737 C748 0.930 1_655 S
H738 C750 0.950 . S
H739 C751 0.950 . S
C740 H732 0.950 . S
C740 C741 1.386 . S
C740 C742 1.391 . S
C741 C740 1.386 . S
C741 C745 1.393 . S
C742 H734 0.950 . S
C742 C740 1.391 . S
C742 C743 1.400 . S
C743 C742 1.400 . S
C743 C744 1.398 . S
C743 C749 1.491 . S
C744 H735 0.981 . S
C744 C743 1.398 . S
C744 C745 1.391 . S
C745 H733 0.950 . S
C745 C741 1.393 . S
C745 C744 1.391 . S
C746 H736 0.950 1_455 S
C746 C747 1.386 . S
C746 C748 1.391 . S
C747 C746 1.386 . S
C747 C751 1.393 . S
C748 H737 0.930 1_455 S
C748 C746 1.391 . S
C748 C749 1.400 . S
C749 C743 1.491 . S
C749 C748 1.400 . S
C749 C750 1.398 . S
C750 H738 0.950 . S
C750 C749 1.398 . S
C750 C751 1.391 . S
C751 H739 0.950 . S
C751 C747 1.393 . S
C751 C750 1.391 . S
H752 C760 0.950 . S
H753 C765 0.950 . S
H754 C762 0.950 . S
H755 C764 0.950 . S
H756 C766 0.950 . S
H757 C768 0.950 . S
H758 C770 0.950 . S
H759 C771 0.950 . S
C760 H752 0.950 . S
C760 C761 1.386 . S
C760 C762 1.391 . S
C761 C760 1.386 . S
C761 C765 1.393 . S
C762 H754 0.950 . S
C762 C760 1.391 . S
C762 C763 1.400 . S
C763 C762 1.400 . S
C763 C764 1.398 . S
C763 C769 1.491 1_554 S
C764 H755 0.950 . S
C764 C763 1.398 . S
C764 C765 1.391 . S
C765 H753 0.950 . S
C765 C761 1.393 . S
C765 C764 1.391 . S
C766 H756 0.950 . S
C766 C767 1.386 . S
C766 C768 1.391 . S
C767 C766 1.386 . S
C767 C771 1.393 . S
C768 H757 0.950 . S
C768 C766 1.391 . S
C768 C769 1.400 . S
C769 C763 1.491 1_556 S
C769 C768 1.400 . S
C769 C770 1.398 . S
C770 H758 0.950 . S
C770 C769 1.398 . S
C770 C771 1.391 . S
C771 H759 0.950 . S
C771 C767 1.393 . S
C771 C770 1.391 . S
H772 C780 0.950 . S
H773 C785 0.950 . S
H774 C782 0.950 . S
H775 C784 0.950 . S
H776 C786 0.950 . S
H777 C788 0.950 . S
H778 C790 0.950 . S
H779 C791 0.950 . S
C780 H772 0.950 . S
C780 C781 1.386 . S
C780 C782 1.391 . S
C781 C780 1.386 . S
C781 C785 1.393 . S
C782 H774 0.950 . S
C782 C780 1.391 . S
C782 C783 1.400 . S
C783 C782 1.400 . S
C783 C784 1.398 . S
C783 C789 1.491 . S
C784 H775 0.950 . S
C784 C783 1.398 . S
C784 C785 1.391 . S
C785 H773 0.950 . S
C785 C781 1.393 . S
C785 C784 1.391 . S
C786 H776 0.950 . S
C786 C787 1.386 . S
C786 C788 1.391 . S
C787 C786 1.386 . S
C787 C791 1.393 . S
C788 H777 0.950 . S
C788 C786 1.391 . S
C788 C789 1.400 . S
C789 C783 1.491 . S
C789 C788 1.400 . S
C789 C790 1.398 . S
C790 H778 0.950 . S
C790 C789 1.398 . S
C790 C791 1.391 . S
C791 H779 0.950 . S
C791 C787 1.393 . S
C791 C790 1.391 . S
H792 C800 0.950 . S
H793 C805 0.950 . S
H794 C802 0.949 1_556 S
H795 C804 0.950 . S
H796 C806 0.950 . S
H797 C808 0.949 1_554 S
H798 C810 0.950 . S
H799 C811 0.950 . S
C800 H792 0.950 . S
C800 C801 1.386 . S
C800 C802 1.391 . S
C801 C800 1.386 . S
C801 C805 1.393 . S
C802 H794 0.949 1_554 S
C802 C800 1.391 . S
C802 C803 1.400 . S
C803 C802 1.400 . S
C803 C804 1.398 . S
C803 C809 1.491 1_564 S
C804 H795 0.950 . S
C804 C803 1.398 . S
C804 C805 1.391 . S
C805 H793 0.950 . S
C805 C801 1.393 . S
C805 C804 1.391 . S
C806 H796 0.950 . S
C806 C807 1.386 . S
C806 C808 1.391 . S
C807 C806 1.386 . S
C807 C811 1.393 . S
C808 H797 0.949 1_556 S
C808 C806 1.391 . S
C808 C809 1.400 . S
C809 C803 1.491 1_546 S
C809 C808 1.400 . S
C809 C810 1.398 . S
C810 H798 0.950 . S
C810 C809 1.398 . S
C810 C811 1.391 . S
C811 H799 0.950 . S
C811 C807 1.393 . S
C811 C810 1.391 . S
H812 C820 0.950 . S
H813 C825 0.950 . S
H814 C822 0.950 . S
H815 C824 0.950 . S
H816 C826 0.950 . S
H817 C828 0.950 . S
H818 C830 0.950 . S
H819 C831 0.950 . S
C820 H812 0.950 . S
C820 C821 1.386 . S
C820 C822 1.391 . S
C821 C820 1.386 . S
C821 C825 1.393 1_455 S
C822 H814 0.950 . S
C822 C820 1.391 . S
C822 C823 1.400 . S
C823 C822 1.400 . S
C823 C824 1.398 1_455 S
C823 C829 1.491 1_545 S
C824 H815 0.950 . S
C824 C823 1.398 1_655 S
C824 C825 1.391 . S
C825 H813 0.950 . S
C825 C821 1.393 1_655 S
C825 C824 1.391 . S
C826 H816 0.950 . S
C826 C827 1.386 1_655 S
C826 C828 1.391 . S
C827 C826 1.386 1_455 S
C827 C831 1.393 . S
C828 H817 0.950 . S
C828 C826 1.391 . S
C828 C829 1.400 1_655 S
C829 C823 1.491 1_565 S
C829 C828 1.400 1_455 S
C829 C830 1.398 . S
C830 H818 0.950 . S
C830 C829 1.398 . S
C830 C831 1.391 . S
C831 H819 0.950 . S
C831 C827 1.393 . S
C831 C830 1.391 . S
C281 C22 1.265 . S
C287 C124 1.300 . S
C301 C90 1.278 . S
C307 C49 1.283 . S
C321 C56 2.021 . S
C327 C83 2.030 . S
C341 C15 2.010 . S
C347 C117 2.031 . S
C361 C260 1.294 . S
C367 C158 1.274 . S
C381 C226 1.271 . S
C387 C185 1.291 . S
C401 C219 2.021 . S
C407 C192 2.015 . S
C421 C253 2.010 . S
C427 C151 2.034 . S
C441 C266 1.004 . S
C447 C6 1.011 . S
C461 C232 1.010 . S
C467 C62 1.009 . S
C481 C74 1.001 . S
C487 C176 1.001 . S
C501 C164 0.991 . S
C507 C108 1.007 . S
C521 C142 1.005 . S
C527 C130 1.011 . S
C541 C96 1.010 . S
C547 C198 1.003 . S
C561 C40 0.994 . S
C567 C210 1.011 . S
C581 C28 1.011 . S
C587 C244 1.004 . S
C601 C3 1.502 . S
C607 C187 1.578 . S
C621 C35 1.471 . S
C627 C153 1.592 . S
C641 C255 1.580 . S
C647 C71 1.487 . S
C661 C105 1.502 . S
C667 C221 1.578 . S
C681 C139 1.497 . S
C687 C51 1.578 . S
C701 C171 1.502 . S
C707 C17 1.578 . S
C721 C207 1.488 . S
C727 C119 1.580 . S
C741 C241 1.477 . S
C747 C85 1.593 . S
C761 C1 1.926 . S
C767 C69 1.935 . S
C781 C37 1.944 . S
C787 C103 1.946 . S
C801 C137 1.942 . S
C807 C205 1.948 . S
C821 C173 1.948 . S
C827 C239 1.942 . S
