# Generated by pormake.
# Topology wgu, (5)-cn, num edge types: 1
# Building blocks:
#     Node 0, Type 0, BuildingBlock: XOMCOT_clean_sbu_0, # of connection points: 5
#     Node 1, Type 0, BuildingBlock: XOMCOT_clean_sbu_0, # of connection points: 5
#     Node 2, Type 0, BuildingBlock: XOMCOT_clean_sbu_0, # of connection points: 5
#     Node 3, Type 0, BuildingBlock: XOMCOT_clean_sbu_0, # of connection points: 5
#     Node 4, Type 0, BuildingBlock: XOMCOT_clean_sbu_0, # of connection points: 5
#     Node 5, Type 0, BuildingBlock: XOMCOT_clean_sbu_0, # of connection points: 5
#     Node 6, Type 0, BuildingBlock: XOMCOT_clean_sbu_0, # of connection points: 5
#     Node 7, Type 0, BuildingBlock: XOMCOT_clean_sbu_0, # of connection points: 5
#     Edge 8, Type (0, 0), BuildingBlock: XUDNAN_clean_linker_2, # of connection points: 2
#     Edge 9, Type (0, 0), BuildingBlock: XUDNAN_clean_linker_2, # of connection points: 2
#     Edge 10, Type (0, 0), BuildingBlock: XUDNAN_clean_linker_2, # of connection points: 2
#     Edge 11, Type (0, 0), BuildingBlock: XUDNAN_clean_linker_2, # of connection points: 2
#     Edge 12, Type (0, 0), BuildingBlock: XUDNAN_clean_linker_2, # of connection points: 2
#     Edge 13, Type (0, 0), BuildingBlock: XUDNAN_clean_linker_2, # of connection points: 2
#     Edge 14, Type (0, 0), BuildingBlock: XUDNAN_clean_linker_2, # of connection points: 2
#     Edge 15, Type (0, 0), BuildingBlock: XUDNAN_clean_linker_2, # of connection points: 2
#     Edge 16, Type (0, 0), BuildingBlock: XUDNAN_clean_linker_2, # of connection points: 2
#     Edge 17, Type (0, 0), BuildingBlock: XUDNAN_clean_linker_2, # of connection points: 2
#     Edge 18, Type (0, 0), BuildingBlock: XUDNAN_clean_linker_2, # of connection points: 2
#     Edge 19, Type (0, 0), BuildingBlock: XUDNAN_clean_linker_2, # of connection points: 2
#     Edge 20, Type (0, 0), BuildingBlock: XUDNAN_clean_linker_2, # of connection points: 2
#     Edge 21, Type (0, 0), BuildingBlock: XUDNAN_clean_linker_2, # of connection points: 2
#     Edge 22, Type (0, 0), BuildingBlock: XUDNAN_clean_linker_2, # of connection points: 2
#     Edge 23, Type (0, 0), BuildingBlock: XUDNAN_clean_linker_2, # of connection points: 2
#     Edge 24, Type (0, 0), BuildingBlock: XUDNAN_clean_linker_2, # of connection points: 2
#     Edge 25, Type (0, 0), BuildingBlock: XUDNAN_clean_linker_2, # of connection points: 2
#     Edge 26, Type (0, 0), BuildingBlock: XUDNAN_clean_linker_2, # of connection points: 2
#     Edge 27, Type (0, 0), BuildingBlock: XUDNAN_clean_linker_2, # of connection points: 2
# Relax obj value: 0.158
# Max RMSD: 0.151
# Mean RMSD: 0.151
data_MOF--net-wgu--node1-XOMCOT_clean_sbu_0--edge1-XUDNAN_clean_linker_2
_symmetry_space_group_name_H-M    P1
_symmetry_Int_Tables_number       1
_symmetry_cell_setting            triclinic
loop_
_symmetry_equiv_pos_as_xyz
'x, y, z'
_cell_length_a     32.698181
_cell_length_b     32.758439
_cell_length_c     29.366651
_cell_angle_alpha  89.755972
_cell_angle_beta   89.995614
_cell_angle_gamma 89.723736
loop_
_atom_site_label
_atom_site_type_symbol
_atom_site_fract_x
_atom_site_fract_y
_atom_site_fract_z
_atom_type_partial_charge
Co0 Co 0.31501 0.3737 0.07367 0.0
C1 C 0.33947 0.28937 0.05941 0.0
C2 C 0.38272 0.31943 0.1026 0.0
C3 C 0.39242 0.27832 0.10101 0.0
N4 N 0.34948 0.32599 0.07645 0.0
N5 N 0.36509 0.25968 0.07372 0.0
H6 H 0.31204 0.28415 0.03967 0.0
H7 H 0.39729 0.34231 0.1234 0.0
C8 C 0.37828 0.43513 0.04043 0.0
O9 O 0.35455 0.44571 1.0062 0.0
N10 N 0.27864 0.42141 0.07196 0.0
C11 C 0.2373 0.41968 0.07057 0.0
C12 C 0.2214 0.45833 0.06927 0.0
C13 C 0.28694 0.46188 0.07423 0.0
N14 N 0.25252 0.48481 0.07135 0.0
C15 C 0.27303 0.36127 0.98923 0.0
C16 C 0.34092 0.34711 0.93564 0.0
C17 C 0.30189 0.34158 0.9166 0.0
C18 C 0.26781 0.3494 0.94409 0.0
C19 C 0.3448 0.35952 0.98119 0.0
N20 N 0.31099 0.3668 1.0075 0.0
H21 H 0.24618 0.36313 1.01008 0.0
H22 H 0.37503 0.36128 0.99591 0.0
H23 H 0.21916 0.39224 0.07103 0.0
H24 H 0.31708 0.47463 0.0782 0.0
O25 O 0.26954 0.33974 0.09102 0.0
O26 O 0.30949 0.37183 0.13983 0.0
O27 O 0.36617 0.40858 0.06951 0.0
C28 C 0.2787 0.34742 0.13317 0.0
H29 H 0.41659 0.26314 0.11982 0.0
H30 H 0.18928 0.46645 0.06771 0.0
H31 H 0.36822 0.34096 0.91592 0.0
H32 H 0.2371 0.34402 0.93175 0.0
Co33 Co 0.63266 0.31972 0.58522 0.0
C34 C 0.71563 0.32308 0.55086 0.0
C35 C 0.70383 0.37394 0.59454 0.0
C36 C 0.74543 0.37125 0.58712 0.0
N37 N 0.68509 0.34391 0.57129 0.0
N38 N 0.75272 0.33874 0.56027 0.0
H39 H 0.71106 0.2944 0.53349 0.0
H40 H 0.68883 0.39373 0.61883 0.0
C41 C 0.60883 0.40786 0.55794 0.0
O42 O 0.64517 0.41603 0.54141 0.0
N43 N 0.58046 0.29445 0.59999 0.0
C44 C 0.56695 0.28183 0.64119 0.0
C45 C 0.5295 0.26337 0.63601 0.0
C46 C 0.55034 0.28437 0.57067 0.0
N47 N 0.51947 0.26461 0.59158 0.0
C48 C 0.62784 0.25946 0.51663 0.0
C49 C 0.6378 0.30939 0.4415 0.0
C50 C 0.63834 0.26683 0.43543 0.0
C51 C 0.63247 0.24198 0.47379 0.0
C52 C 0.63273 0.3258 0.48529 0.0
N53 N 0.62843 0.30082 0.52235 0.0
H54 H 0.62487 0.23947 0.54578 0.0
H55 H 0.63425 0.35833 0.48929 0.0
H56 H 0.58327 0.28468 0.67298 0.0
H57 H 0.55104 0.29075 0.53451 0.0
O58 O 0.66194 0.27314 0.60847 0.0
O59 O 0.64451 0.32655 0.65019 0.0
O60 O 0.60058 0.3722 0.57351 0.0
C61 C 0.66321 0.29132 0.64753 0.0
H62 H 0.76868 0.38907 0.60403 0.0
H63 H 0.5119 0.24857 0.66253 0.0
H64 H 0.64204 0.32984 0.41283 0.0
H65 H 0.63331 0.20901 0.47127 0.0
Co66 Co 0.71054 0.63936 0.07076 0.0
C67 C 0.69642 0.71716 0.02473 0.0
C68 C 0.64621 0.70271 0.0686 0.0
C69 C 0.64205 0.74259 0.0542 0.0
N70 N 0.67993 0.68645 0.04931 0.0
N71 N 0.67403 0.75185 0.02698 0.0
H72 H 0.72665 0.71537 1.00988 0.0
H73 H 0.62758 0.68756 0.09394 0.0
C74 C 0.62829 0.60373 0.03994 0.0
O75 O 0.61894 0.63737 0.01787 0.0
N76 N 0.74285 0.59331 0.09343 0.0
C77 C 0.77196 0.59489 0.12601 0.0
C78 C 0.78926 0.55718 0.13121 0.0
C79 C 0.74332 0.55404 0.07897 0.0
N80 N 0.77132 0.53125 0.10197 0.0
C81 C 0.77563 0.63337 1.00788 0.0
C82 C 0.73031 0.64276 0.9291 0.0
C83 C 0.77273 0.64896 0.92731 0.0
C84 C 0.79555 0.64178 0.96695 0.0
C85 C 0.71149 0.63396 0.97097 0.0
N86 N 0.73397 0.63173 1.01017 0.0
H87 H 0.79368 0.6317 0.03864 0.0
H88 H 0.67876 0.63277 0.97198 0.0
H89 H 0.78155 0.6216 0.14436 0.0
H90 H 0.7239 0.54255 0.05212 0.0
O91 O 0.7505 0.67748 0.09286 0.0
O92 O 0.69806 0.65503 0.13346 0.0
O93 O 0.66312 0.59987 0.05984 0.0
C94 C 0.72994 0.67875 0.13067 0.0
H95 H 0.61862 0.7637 0.06538 0.0
H96 H 0.81433 0.54985 0.15392 0.0
H97 H 0.71143 0.64784 0.8993 0.0
H98 H 0.82849 0.64519 0.96703 0.0
Co99 Co 0.37806 0.72346 0.58507 0.0
C100 C 0.29353 0.70417 0.56209 0.0
C101 C 0.32373 0.65118 0.58963 0.0
C102 C 0.28461 0.6405 0.57669 0.0
N103 N 0.32924 0.69099 0.57985 0.0
N104 N 0.26588 0.67402 0.55967 0.0
H105 H 0.28853 0.73482 0.54923 0.0
H106 H 0.3466 0.63114 0.60421 0.0
C107 C 0.44003 0.65958 0.55181 0.0
O108 O 0.45238 0.68403 0.51904 0.0
N109 N 0.42661 0.75781 0.59106 0.0
C110 C 0.42668 0.79899 0.59393 0.0
C111 C 0.46623 0.81277 0.59338 0.0
C112 C 0.46664 0.74731 0.59152 0.0
N113 N 0.49146 0.78024 0.59124 0.0
C114 C 0.37365 0.77099 0.50259 0.0
C115 C 0.35901 0.70646 0.44472 0.0
C116 C 0.35496 0.7464 0.42772 0.0
C117 C 0.36353 0.77883 0.45711 0.0
C118 C 0.36934 0.69995 0.49043 0.0
N119 N 0.37638 0.732 0.51906 0.0
H120 H 0.37625 0.79661 0.52511 0.0
H121 H 0.36931 0.66904 0.50339 0.0
H122 H 0.39986 0.81836 0.59469 0.0
H123 H 0.47786 0.71642 0.5925 0.0
O124 O 0.34382 0.76879 0.60296 0.0
O125 O 0.37128 0.72415 0.65095 0.0
O126 O 0.41253 0.6715 0.58003 0.0
C127 C 0.34786 0.75599 0.6447 0.0
H128 H 0.27109 0.61048 0.57921 0.0
H129 H 0.4754 0.84444 0.59211 0.0
H130 H 0.35267 0.68037 0.42337 0.0
H131 H 0.35972 0.81019 0.44601 0.0
Co132 Co 0.80359 0.14766 0.99497 0.0
C133 C 0.83019 0.234 0.99723 0.0
C134 C 0.8804 0.19433 1.01287 0.0
C135 C 0.89206 0.23395 0.02096 0.0
N136 N 0.84083 0.19406 0.99974 0.0
N137 N 0.86018 0.25879 1.0117 0.0
H138 H 0.79983 0.24494 0.98897 0.0
H139 H 0.89945 0.16799 0.01865 0.0
C140 C 0.8722 0.09812 0.04437 0.0
O141 O 0.8676 0.11597 0.08396 0.0
N142 N 0.76602 0.10255 0.98972 0.0
C143 C 0.72538 0.10524 0.99673 0.0
C144 C 0.70898 0.06677 0.99481 0.0
C145 C 0.77387 0.06249 0.98311 0.0
N146 N 0.73944 0.03994 0.98641 0.0
C147 C 0.76957 0.19228 0.07002 0.0
C148 C 0.76528 0.12838 0.13127 0.0
C149 C 0.75101 0.16703 0.14463 0.0
C150 C 0.75334 0.1991 0.11321 0.0
C151 C 0.78203 0.12304 0.08764 0.0
N152 N 0.78537 0.15519 0.05799 0.0
H153 H 0.76718 0.2166 0.04566 0.0
H154 H 0.79146 0.09279 0.07736 0.0
H155 H 0.70903 0.13317 1.00435 0.0
H156 H 0.80416 0.04989 0.97798 0.0
O157 O 0.76371 0.18247 0.96396 0.0
O158 O 0.81264 0.14661 0.93041 0.0
O159 O 0.84972 0.10803 1.01034 0.0
C160 C 0.78192 0.17166 0.92638 0.0
H161 H 0.92074 0.24349 0.03586 0.0
H162 H 0.67715 0.05904 0.99989 0.0
H163 H 0.76319 0.10243 0.15411 0.0
H164 H 0.74085 0.22894 0.1211 0.0
Co165 Co 0.8831 0.80349 0.47805 0.0
C166 C 0.79882 0.83416 0.47903 0.0
C167 C 0.8357 0.8641 0.52859 0.0
C168 C 0.79512 0.86878 0.54054 0.0
N169 N 0.83815 0.841 0.49071 0.0
N170 N 0.77207 0.84872 0.50998 0.0
H171 H 0.78969 0.81427 0.45175 0.0
H172 H 0.86141 0.87136 0.55021 0.0
C173 C 0.94407 0.86843 0.47003 0.0
O174 O 0.94489 0.85751 0.4271 0.0
N175 N 0.92695 0.7644 0.46705 0.0
C176 C 0.92027 0.72422 0.46054 0.0
C177 C 0.95689 0.70415 0.45784 0.0
C178 C 0.96819 0.76792 0.46942 0.0
N179 N 0.98713 0.73143 0.46331 0.0
C180 C 0.84151 0.76464 0.5517 0.0
C181 C 0.90387 0.77005 0.61481 0.0
C182 C 0.86599 0.754 0.62883 0.0
C183 C 0.83478 0.75105 0.59619 0.0
C184 C 0.90911 0.78393 0.57002 0.0
N185 N 0.87781 0.78185 0.53944 0.0
H186 H 0.81701 0.76236 0.52721 0.0
H187 H 0.93827 0.79648 0.56 0.0
H188 H 0.89069 0.7097 0.45989 0.0
H189 H 0.98407 0.79596 0.4767 0.0
O190 O 0.84578 0.76695 0.44575 0.0
O191 O 0.88044 0.8169 0.41384 0.0
O192 O 0.92285 0.84754 0.49838 0.0
C193 C 0.85502 0.78703 0.40889 0.0
H194 H 0.7841 0.88079 0.57259 0.0
H195 H 0.96079 0.67147 0.45454 0.0
H196 H 0.92937 0.772 0.63819 0.0
H197 H 0.80487 0.73942 0.60503 0.0
Co198 Co 0.19636 0.88548 0.99277 0.0
C199 C 0.18863 0.80325 0.02898 0.0
C200 C 0.13769 0.81672 0.98561 0.0
C201 C 0.13644 0.77588 0.99763 0.0
N202 N 0.17014 0.83396 1.00615 0.0
N203 N 0.16872 0.76757 0.02491 0.0
H204 H 0.21833 0.80605 0.04463 0.0
H205 H 0.1177 0.83213 0.96167 0.0
C206 C 0.11102 0.91271 0.02648 0.0
O207 O 0.10149 0.87656 0.04259 0.0
N208 N 0.22398 0.93659 0.97897 0.0
C209 C 0.23178 0.95256 0.93738 0.0
C210 C 0.25226 0.98872 0.94239 0.0
C211 C 0.23933 0.96398 1.00868 0.0
N212 N 0.25712 0.99585 0.9872 0.0
C213 C 0.26009 0.87663 0.05926 0.0
C214 C 0.20887 0.87145 0.13388 0.0
C215 C 0.24948 0.85835 0.1384 0.0
C216 C 0.27587 0.86311 0.10117 0.0
C217 C 0.19449 0.88509 0.09172 0.0
N218 N 0.21932 0.88517 0.05433 0.0
H219 H 0.27997 0.87715 0.02987 0.0
H220 H 0.16265 0.8923 0.08899 0.0
H221 H 0.22345 0.93926 0.90514 0.0
H222 H 0.23705 0.96112 0.04527 0.0
O223 O 0.23899 0.8549 0.96096 0.0
O224 O 0.18241 0.87916 0.92938 0.0
O225 O 0.14671 0.91977 1.01023 0.0
C226 C 0.21664 0.85924 0.92451 0.0
H227 H 0.11454 0.7538 0.98547 0.0
H228 H 0.2633 1.00792 0.91499 0.0
H229 H 0.1877 0.86888 0.16212 0.0
H230 H 0.30754 0.85349 0.1034 0.0
Co231 Co 0.14543 0.19912 0.48229 0.0
C232 C 0.23057 0.1794 0.49964 0.0
C233 C 0.20208 0.13007 0.46397 0.0
C234 C 0.24332 0.12132 0.469 0.0
N235 N 0.19449 0.16651 0.48337 0.0
N236 N 0.26077 0.15237 0.49183 0.0
H237 H 0.23502 0.20904 0.51501 0.0
H238 H 0.17968 0.11198 0.4461 0.0
C239 C 0.08619 0.13298 0.47584 0.0
O240 O 0.07739 0.15047 0.43671 0.0
N241 N 0.09641 0.23311 0.48147 0.0
C242 C 0.09148 0.26911 0.4595 0.0
C243 C 0.05311 0.28416 0.46835 0.0
C244 C 0.0608 0.22713 0.50391 0.0
N245 N 0.03377 0.2578 0.49618 0.0
C246 C 0.16281 0.25495 0.55409 0.0
C247 C 0.18136 0.19624 0.61898 0.0
C248 C 0.19115 0.23712 0.6279 0.0
C249 C 0.18025 0.26682 0.59548 0.0
C250 C 0.16335 0.18572 0.57744 0.0
N251 N 0.1558 0.21478 0.54499 0.0
H252 H 0.15724 0.27779 0.52813 0.0
H253 H 0.15849 0.15383 0.57003 0.0
H254 H 0.11401 0.28405 0.43844 0.0
H255 H 0.05491 0.20127 0.52593 0.0
O256 O 0.17637 0.24159 0.4506 0.0
O257 O 0.14222 0.19212 0.41707 0.0
O258 O 0.11241 0.14976 0.50207 0.0
C259 C 0.16542 0.22394 0.41288 0.0
H260 H 0.25932 0.09473 0.45622 0.0
H261 H 0.04016 0.31205 0.45453 0.0
H262 H 0.18882 0.17239 0.64329 0.0
H263 H 0.18738 0.2987 0.60087 0.0
H264 H 0.26569 0.07146 0.95053 0.0
H265 H 0.29514 0.99826 0.06966 0.0
H266 H 0.33113 0.05716 0.10323 0.0
H267 H 0.36148 0.12704 0.9454 0.0
H268 H 0.33704 0.17385 0.92744 0.0
H269 H 0.31501 0.12543 0.91244 0.0
H270 H 0.24641 0.14706 0.94981 0.0
H271 H 0.26822 0.19553 0.96464 0.0
H272 H 0.24612 0.16367 1.00827 0.0
H273 H 0.3625 0.12539 0.12433 0.0
H274 H 0.38212 0.19787 0.13305 0.0
H275 H 0.33341 0.22443 0.99882 0.0
C276 C 0.28016 0.0675 0.98338 0.0
C277 C 0.27769 0.03013 1.00735 0.0
C278 C 0.29627 0.02668 0.05082 0.0
C279 C 0.31712 0.05985 0.06996 0.0
C280 C 0.31918 0.09615 0.04513 0.0
C281 C 0.30103 0.10012 1.00284 0.0
C282 C 0.30604 0.14273 0.98375 0.0
C283 C 0.33141 0.14221 0.93965 0.0
C284 C 0.26421 0.16346 0.9762 0.0
C285 C 0.32932 0.16239 0.02221 0.0
C286 C 0.33705 0.13507 0.05717 0.0
C287 C 0.35691 0.14695 0.09698 0.0
C288 C 0.36821 0.18807 0.10152 0.0
C289 C 0.35927 0.21669 0.06659 0.0
C290 C 0.34044 0.20325 0.02615 0.0
H291 H 0.99139 0.32782 0.51164 0.0
H292 H 0.98139 0.19586 0.51502 0.0
H293 H 0.908 0.20229 0.53433 0.0
H294 H 0.92019 0.34848 0.60471 0.0
H295 H 0.89983 0.39369 0.57765 0.0
H296 H 0.95201 0.3784 0.5673 0.0
H297 H 0.93786 0.37813 0.48047 0.0
H298 H 0.88561 0.3931 0.49053 0.0
H299 H 0.8967 0.34758 0.45845 0.0
H300 H 0.83476 0.22339 0.54763 0.0
H301 H 0.76802 0.2572 0.55877 0.0
H302 H 0.8258 0.37561 0.54623 0.0
C303 C 0.97384 0.30024 0.51666 0.0
C304 C 0.9921 0.26129 0.51171 0.0
C305 C 0.96817 0.22597 0.51914 0.0
C306 C 0.92643 0.22935 0.52983 0.0
C307 C 0.90925 0.26827 0.53334 0.0
C308 C 0.93231 0.30309 0.52747 0.0
C309 C 0.90639 0.34131 0.53209 0.0
C310 C 0.92044 0.36698 0.57287 0.0
C311 C 0.90666 0.3665 0.48774 0.0
C312 C 0.86487 0.32259 0.54069 0.0
C313 C 0.86719 0.28042 0.54129 0.0
C314 C 0.83263 0.25636 0.54737 0.0
C315 C 0.79476 0.27589 0.55319 0.0
C316 C 0.79167 0.3191 0.55291 0.0
C317 C 0.82734 0.3426 0.54678 0.0
H318 H 0.68803 0.99354 0.03666 0.0
H319 H 0.78283 0.98729 0.93379 0.0
H320 H 0.7747 0.91207 0.93043 0.0
H321 H 0.7173 0.90215 0.09594 0.0
H322 H 0.66542 0.88808 0.10925 0.0
H323 H 0.67854 0.94104 0.10228 0.0
H324 H 0.62231 0.94882 0.04054 0.0
H325 H 0.60924 0.89577 0.04709 0.0
H326 H 0.62291 0.91554 0.9918 0.0
H327 H 0.75443 0.83734 0.93777 0.0
H328 H 0.72825 0.7694 0.95918 0.0
H329 H 0.64876 0.82585 0.0596 0.0
C330 C 0.70681 0.9764 1.01309 0.0
C331 C 0.73577 0.99618 0.98507 0.0
C332 C 0.76054 0.97261 0.95555 0.0
C333 C 0.75593 0.93 0.95326 0.0
C334 C 0.72669 0.91154 0.98109 0.0
C335 C 0.7029 0.93403 1.01078 0.0
C336 C 0.67476 0.90696 0.03834 0.0
C337 C 0.68461 0.90972 0.08947 0.0
C338 C 0.62964 0.9174 0.02885 0.0
C339 C 0.68616 0.86561 0.01937 0.0
C340 C 0.71596 0.86881 0.9862 0.0
C341 C 0.73129 0.83452 0.96394 0.0
C342 C 0.7163 0.79598 0.97652 0.0
C343 C 0.68651 0.79186 1.01141 0.0
C344 C 0.67107 0.82748 0.03252 0.0
H345 H 0.04623 0.77058 0.51235 0.0
H346 H 0.02545 0.66886 0.42113 0.0
H347 H 0.09545 0.64411 0.43492 0.0
H348 H 0.15515 0.78589 0.47848 0.0
H349 H 0.17027 0.79921 0.53552 0.0
H350 H 0.11926 0.8108 0.51593 0.0
H351 H 0.08949 0.77093 0.5846 0.0
H352 H 0.14032 0.75871 0.60403 0.0
H353 H 0.10425 0.71839 0.59348 0.0
H354 H 0.164 0.62548 0.46529 0.0
H355 H 0.23145 0.61942 0.5031 0.0
H356 H 0.21071 0.73509 0.57044 0.0
C357 C 0.05677 0.74376 0.49439 0.0
C358 C 0.03004 0.72133 0.46619 0.0
C359 C 0.04499 0.68606 0.44368 0.0
C360 C 0.08481 0.67182 0.45108 0.0
C361 C 0.10979 0.69359 0.48044 0.0
C362 C 0.09682 0.72929 0.501 0.0
C363 C 0.12987 0.74622 0.53174 0.0
C364 C 0.14451 0.78801 0.51437 0.0
C365 C 0.11508 0.74869 0.5814 0.0
C366 C 0.16277 0.71383 0.52611 0.0
C367 C 0.15041 0.68367 0.4965 0.0
C368 C 0.17439 0.64923 0.48796 0.0
C369 C 0.21236 0.64581 0.50981 0.0
C370 C 0.22606 0.67683 0.53932 0.0
C371 C 0.20096 0.71126 0.54748 0.0
H372 H 0.76506 0.48377 0.0253 0.0
H373 H 0.80259 0.48186 0.16718 0.0
H374 H 0.8318 0.41348 0.15725 0.0
H375 H 0.7363 0.37439 0.0231 0.0
H376 H 0.75368 0.36742 0.96539 0.0
H377 H 0.73476 0.41652 0.98342 0.0
H378 H 0.80254 0.44967 0.95704 0.0
H379 H 0.82194 0.40057 0.9397 0.0
H380 H 0.85039 0.43095 0.97962 0.0
H381 H 0.86237 0.34894 0.13178 0.0
H382 H 0.88223 0.2844 0.09497 0.0
H383 H 0.82084 0.32273 0.97099 0.0
C384 C 0.77876 0.46863 0.05439 0.0
C385 C 0.78245 0.48882 0.09675 0.0
C386 C 0.80054 0.46777 0.13401 0.0
C387 C 0.81711 0.42874 0.12883 0.0
C388 C 0.81467 0.41048 0.08637 0.0
C389 C 0.79504 0.42899 0.05002 0.0
C390 C 0.79612 0.40147 1.00847 0.0
C391 C 0.75262 0.38922 0.99427 0.0
C392 C 0.81912 0.4219 0.96887 0.0
C393 C 0.81992 0.36514 0.02725 0.0
C394 C 0.83071 0.3715 0.07211 0.0
C395 C 0.85387 0.34333 0.09676 0.0
C396 C 0.86545 0.30702 0.07542 0.0
C397 C 0.85344 0.29887 0.03009 0.0
C398 C 0.83056 0.32846 1.00561 0.0
H399 H 0.5446 0.84282 0.60713 0.0
H400 H 0.53707 0.72003 0.55223 0.0
H401 H 0.60859 0.7244 0.52763 0.0
H402 H 0.60266 0.8842 0.51705 0.0
H403 H 0.63351 0.91678 0.55231 0.0
H404 H 0.58268 0.90314 0.57019 0.0
H405 H 0.61131 0.87447 0.64618 0.0
H406 H 0.66222 0.88847 0.62878 0.0
H407 H 0.6514 0.83651 0.64503 0.0
H408 H 0.6785 0.74311 0.504 0.0
H409 H 0.74499 0.77316 0.4868 0.0
H410 H 0.70825 0.88553 0.55385 0.0
C411 C 0.55797 0.81668 0.5903 0.0
C412 C 0.53481 0.78102 0.58187 0.0
C413 C 0.55392 0.74746 0.55997 0.0
C414 C 0.59461 0.74974 0.54543 0.0
C415 C 0.61594 0.78572 0.55306 0.0
C416 C 0.59857 0.81848 0.57534 0.0
C417 C 0.62805 0.85408 0.5777 0.0
C418 C 0.61068 0.89177 0.55282 0.0
C419 C 0.63889 0.86395 0.62738 0.0
C420 C 0.66446 0.83633 0.55255 0.0
C421 C 0.65663 0.79684 0.5388 0.0
C422 C 0.68502 0.77403 0.51451 0.0
C423 C 0.72267 0.79179 0.50433 0.0
C424 C 0.73182 0.83227 0.51813 0.0
C425 C 0.70214 0.85471 0.54267 0.0
H426 H 0.20237 0.52742 1.01604 0.0
H427 H 0.2929 0.54039 0.12252 0.0
H428 H 0.27981 0.61519 0.12396 0.0
H429 H 0.22717 0.62152 0.95621 0.0
H430 H 0.1747 0.63151 0.9408 0.0
H431 H 0.19226 0.57972 0.94824 0.0
H432 H 0.13472 0.56745 1.00741 0.0
H433 H 0.11737 0.61937 1.00067 0.0
H434 H 0.13089 0.60029 0.05635 0.0
H435 H 0.25265 0.68761 0.11679 0.0
H436 H 0.22088 0.75322 0.09547 0.0
H437 H 0.1507 0.69243 0.99032 0.0
C438 C 0.21952 0.54614 0.03949 0.0
C439 C 0.24841 0.52845 0.06944 0.0
C440 C 0.27082 0.55366 0.09925 0.0
C441 C 0.26333 0.59595 0.10045 0.0
C442 C 0.2338 0.6123 0.07112 0.0
C443 C 0.21283 0.5882 0.04062 0.0
C444 C 0.18331 0.61313 1.01199 0.0
C445 C 0.19508 0.61137 0.96131 0.0
C446 C 0.13895 0.59922 0.01959 0.0
C447 C 0.19043 0.65512 0.03153 0.0
C448 C 0.21941 0.65397 0.06581 0.0
C449 C 0.23044 0.68891 0.0895 0.0
C450 C 0.21223 0.72612 0.07696 0.0
C451 C 0.18363 0.72837 0.0406 0.0
C452 C 0.17222 0.69204 0.01827 0.0
H453 H 0.29104 0.18727 0.56754 0.0
H454 H 0.32579 0.13356 0.43858 0.0
H455 H 0.39755 0.15477 0.45143 0.0
H456 H 0.35133 0.27408 0.56004 0.0
H457 H 0.36521 0.27555 0.61941 0.0
H458 H 0.31777 0.25253 0.60244 0.0
H459 H 0.33823 0.18511 0.64279 0.0
H460 H 0.38545 0.20813 0.66072 0.0
H461 H 0.38637 0.16104 0.62918 0.0
H462 H 0.46325 0.1888 0.47456 0.0
H463 H 0.52028 0.22633 0.51012 0.0
H464 H 0.44263 0.25637 0.62497 0.0
C465 C 0.314 0.17939 0.54245 0.0
C466 C 0.30317 0.15883 0.50208 0.0
C467 C 0.33377 0.14886 0.46993 0.0
C468 C 0.37441 0.16104 0.47684 0.0
C469 C 0.3838 0.18251 0.51639 0.0
C470 C 0.35459 0.1909 0.54909 0.0
C471 C 0.3722 0.21534 0.58802 0.0
C472 C 0.35033 0.25683 0.59271 0.0
C473 C 0.37048 0.19093 0.63282 0.0
C474 C 0.41576 0.22037 0.57158 0.0
C475 C 0.42181 0.20129 0.53017 0.0
C476 C 0.45903 0.20341 0.50722 0.0
C477 C 0.49107 0.2251 0.52742 0.0
C478 C 0.48575 0.24417 0.57024 0.0
C479 C 0.44757 0.24167 0.59248 0.0
H480 H 0.55408 0.6002 0.99619 0.0
H481 H 0.63028 0.53362 0.0924 0.0
H482 H 0.57519 0.48272 0.10229 0.0
H483 H 0.45963 0.58604 0.05345 0.0
H484 H 0.43003 0.5802 1.00213 0.0
H485 H 0.47595 0.61031 1.00136 0.0
H486 H 0.50499 0.56598 0.93594 0.0
H487 H 0.45904 0.53586 0.93632 0.0
H488 H 0.50815 0.51136 0.9431 0.0
H489 H 0.50945 0.44099 0.10464 0.0
H490 H 0.44109 0.41011 0.09609 0.0
H491 H 0.40875 0.50333 0.99683 0.0
C492 C 0.55949 0.57477 0.01911 0.0
C493 C 0.59673 0.57107 0.04356 0.0
C494 C 0.60222 0.53719 0.07316 0.0
C495 C 0.57099 0.50814 0.07908 0.0
C496 C 0.53448 0.51315 0.05494 0.0
C497 C 0.52881 0.54546 0.02521 0.0
C498 C 0.48667 0.54421 1.00354 0.0
C499 C 0.4616 0.58246 1.01587 0.0
C500 C 0.48992 0.53903 0.95165 0.0
C501 C 0.46923 0.50632 0.02598 0.0
C502 C 0.4972 0.48889 0.05564 0.0
C503 C 0.48752 0.45429 0.08123 0.0
C504 C 0.44846 0.43702 0.07624 0.0
C505 C 0.41939 0.45411 0.04567 0.0
C506 C 0.43023 0.48925 0.02023 0.0
H507 H 0.61076 0.48476 0.51861 0.0
H508 H 0.53516 0.406 0.60259 0.0
H509 H 0.48415 0.46136 0.60977 0.0
H510 H 0.59081 0.57784 0.57833 0.0
H511 H 0.5892 0.60928 0.52785 0.0
H512 H 0.61976 0.56339 0.52864 0.0
H513 H 0.58168 0.53709 0.45731 0.0
H514 H 0.55111 0.583 0.45617 0.0
H515 H 0.52666 0.53382 0.45807 0.0
H516 H 0.44267 0.52658 0.61111 0.0
H517 H 0.41171 0.59498 0.60216 0.0
H518 H 0.51228 0.63098 0.51456 0.0
C519 C 0.58341 0.47903 0.53837 0.0
C520 C 0.57718 0.44082 0.56012 0.0
C521 C 0.54078 0.43479 0.58549 0.0
C522 C 0.51159 0.46617 0.58989 0.0
C523 C 0.51886 0.50348 0.5684 0.0
C524 C 0.55367 0.50995 0.54275 0.0
C525 C 0.55383 0.55286 0.52282 0.0
C526 C 0.59058 0.57728 0.54048 0.0
C527 C 0.55328 0.5516 0.47049 0.0
C528 C 0.51384 0.56959 0.54155 0.0
C529 C 0.4943 0.54066 0.568 0.0
C530 C 0.45755 0.54931 0.59011 0.0
C531 C 0.44019 0.58839 0.58488 0.0
C532 C 0.45922 0.61845 0.55735 0.0
C533 C 0.49662 0.60866 0.53543 0.0
H534 H 0.04481 0.92504 0.08379 0.0
H535 H 0.1054 0.97412 0.96417 0.0
H536 H 0.05072 0.02578 0.95596 0.0
H537 H 0.94146 0.9395 0.04677 0.0
H538 H 0.92223 0.9554 0.10145 0.0
H539 H 0.96588 0.92176 0.09827 0.0
H540 H 1.00834 0.97227 0.14637 0.0
H541 H 0.96474 1.00595 0.14996 0.0
H542 H 0.01264 0.02468 0.12805 0.0
H543 H 0.9869 0.06801 0.95641 0.0
H544 H 0.92283 0.10548 0.97189 0.0
H545 H 0.90602 0.03546 0.09612 0.0
C546 C 0.04659 0.94684 0.05605 0.0
C547 C 0.07935 0.9454 0.02444 0.0
C548 C 0.08079 0.97469 0.98887 0.0
C549 C 0.04973 1.00404 0.98378 0.0
C550 C 0.0177 1.00441 1.0151 0.0
C551 C 0.01627 0.97722 0.05115 0.0
C552 C 0.97901 0.98548 0.08086 0.0
C553 C 0.95046 0.94832 0.08188 0.0
C554 C 0.99196 0.99784 0.12918 0.0
C555 C 0.9595 0.02114 0.05546 0.0
C556 C 0.98211 0.03098 1.0172 0.0
C557 C 0.96931 0.06105 0.98666 0.0
C558 C 0.93275 0.08204 0.99564 0.0
C559 C 0.90969 0.07369 0.0354 0.0
C560 C 0.92336 0.04285 0.0658 0.0
H561 H 0.96897 0.92907 0.41354 0.0
H562 H 0.96837 0.89419 0.5561 0.0
H563 H 1.00572 0.95806 0.57487 0.0
H564 H 0.06788 0.97407 0.4098 0.0
H565 H 0.05224 0.01413 0.37121 0.0
H566 H 0.02664 0.96563 0.37025 0.0
H567 H 0.95699 1.00203 0.38295 0.0
H568 H 0.98238 0.05066 0.38394 0.0
H569 H 0.95066 0.03536 0.43116 0.0
H570 H 0.04631 0.02729 0.57584 0.0
H571 H 0.07997 0.09381 0.5597 0.0
H572 H 0.04875 0.0815 0.41697 0.0
C573 C 0.97682 0.9345 0.44881 0.0
C574 C 0.96611 0.90628 0.4833 0.0
C575 C 0.97639 0.91525 0.52906 0.0
C576 C 0.99767 0.95144 0.53994 0.0
C577 C 1.0079 0.97855 0.50476 0.0
C578 C 0.99727 0.97038 0.46018 0.0
C579 C 1.01021 1.00428 0.42829 0.0
C580 C 0.04108 0.98858 0.39281 0.0
C581 C 0.97283 0.02426 0.40525 0.0
C582 C 0.03016 0.03302 0.46156 0.0
C583 C 0.02904 0.01787 0.50556 0.0
C584 C 0.04693 0.03935 0.54148 0.0
C585 C 0.06606 0.07708 0.53205 0.0
C586 C 0.06669 0.09318 0.48716 0.0
C587 C 0.04842 0.07053 0.4518 0.0
H588 H 0.29067 0.35415 0.22654 0.0
H589 H 0.21497 0.29519 0.12485 0.0
H590 H 0.17793 0.25884 0.18533 0.0
H591 H 0.2992 0.26791 0.30172 0.0
H592 H 0.2961 0.29723 0.35342 0.0
H593 H 0.31652 0.32007 0.3024 0.0
H594 H 0.26336 0.3787 0.30804 0.0
H595 H 0.24287 0.35609 0.35918 0.0
H596 H 0.20971 0.36664 0.31149 0.0
H597 H 0.15078 0.2265 0.25516 0.0
H598 H 0.13287 0.20165 0.33174 0.0
H599 H 0.22393 0.28172 0.39069 0.0
C600 C 0.26608 0.33384 0.21712 0.0
C601 C 0.25576 0.32761 0.17081 0.0
C602 C 0.22351 0.3006 0.15994 0.0
C603 C 0.20222 0.27971 0.1941 0.0
C604 C 0.21327 0.28617 0.23922 0.0
C605 C 0.24421 0.31269 0.25104 0.0
C606 C 0.24986 0.31348 0.30245 0.0
C607 C 0.29298 0.29879 0.31577 0.0
C608 C 0.24091 0.35628 0.3214 0.0
C609 C 0.21748 0.28307 0.3174 0.0
C610 C 0.19692 0.26772 0.28016 0.0
C611 C 0.16645 0.23845 0.28465 0.0
C612 C 0.15658 0.22444 0.32837 0.0
C613 C 0.17687 0.23978 0.36727 0.0
C614 C 0.20768 0.26964 0.36163 0.0
H615 H 0.72315 0.23015 0.90508 0.0
H616 H 0.81211 0.14759 0.84475 0.0
H617 H 0.79261 0.17168 0.76848 0.0
H618 H 0.64574 0.21839 0.81908 0.0
H619 H 0.62993 0.27118 0.81926 0.0
H620 H 0.65119 0.24843 0.87001 0.0
H621 H 0.70621 0.30496 0.87291 0.0
H622 H 0.68515 0.32786 0.8221 0.0
H623 H 0.73843 0.31356 0.82401 0.0
H624 H 0.76333 0.20187 0.69935 0.0
H625 H 0.72498 0.23728 0.63906 0.0
H626 H 0.65454 0.30267 0.74102 0.0
C627 C 0.73847 0.21724 0.87576 0.0
C628 C 0.76918 0.18691 0.88096 0.0
C629 C 0.78858 0.17084 0.84178 0.0
C630 C 0.77776 0.18435 0.7982 0.0
C631 C 0.74755 0.21417 0.79416 0.0
C632 C 0.7281 0.23061 0.83163 0.0
C633 C 0.69629 0.2621 0.81698 0.0
C634 C 0.65323 0.24924 0.83224 0.0
C635 C 0.70718 0.30465 0.83508 0.0
C636 C 0.70069 0.26021 0.76546 0.0
C637 C 0.7306 0.23232 0.75342 0.0
C638 C 0.73991 0.22389 0.70825 0.0
C639 C 0.7178 0.24411 0.67424 0.0
C640 C 0.68671 0.27265 0.68533 0.0
C641 C 0.67836 0.28124 0.73162 0.0
H642 H 0.80068 0.72572 0.38643 0.0
H643 H 0.86776 0.82804 0.32954 0.0
H644 H 0.83817 0.81425 0.25418 0.0
H645 H 0.81323 0.65973 0.29094 0.0
H646 H 0.76291 0.63775 0.29466 0.0
H647 H 0.78744 0.65682 0.34512 0.0
H648 H 0.72508 0.70386 0.36039 0.0
H649 H 0.70043 0.68505 0.30979 0.0
H650 H 0.70835 0.73908 0.31681 0.0
H651 H 0.80512 0.78809 0.18464 0.0
H652 H 0.77144 0.74943 0.12353 0.0
H653 H 0.72391 0.66392 0.22331 0.0
C654 C 0.80888 0.74532 0.35812 0.0
C655 C 0.83654 0.77804 0.36396 0.0
C656 C 0.84668 0.80285 0.32603 0.0
C657 C 0.82991 0.79536 0.28303 0.0
C658 C 0.80285 0.76297 0.27834 0.0
C659 C 0.79234 0.73823 0.31468 0.0
C660 C 0.76372 0.70446 0.29948 0.0
C661 C 0.78299 0.66219 0.30805 0.0
C662 C 0.72191 0.70836 0.32303 0.0
C663 C 0.76046 0.71377 0.24884 0.0
C664 C 0.78316 0.74789 0.23768 0.0
C665 C 0.78691 0.76159 0.19296 0.0
C666 C 0.7677 0.73941 0.15849 0.0
C667 C 0.7448 0.704 0.16878 0.0
C668 C 0.7405 0.69142 0.21467 0.0
H669 H 0.28156 0.80819 0.90229 0.0
H670 H 0.18314 0.88039 0.84314 0.0
H671 H 0.20673 0.86209 0.76635 0.0
H672 H 0.35795 0.83177 0.81838 0.0
H673 H 0.37979 0.78116 0.81711 0.0
H674 H 0.35542 0.79947 0.86817 0.0
H675 H 0.30721 0.73699 0.86822 0.0
H676 H 0.33158 0.71836 0.8173 0.0
H677 H 0.27701 0.72633 0.81835 0.0
H678 H 0.24186 0.83919 0.69623 0.0
H679 H 0.2837 0.80822 0.63582 0.0
H680 H 0.35842 0.74736 0.73804 0.0
C681 C 0.26494 0.81995 0.87312 0.0
C682 C 0.23049 0.84583 0.87881 0.0
C683 C 0.20948 0.86046 0.83979 0.0
C684 C 0.22272 0.85035 0.79592 0.0
C685 C 0.25685 0.82515 0.79139 0.0
C686 C 0.27749 0.80967 0.82876 0.0
C687 C 0.31291 0.78258 0.81383 0.0
C688 C 0.35395 0.79978 0.83036 0.0
C689 C 0.3068 0.73845 0.83041 0.0
C690 C 0.30906 0.78571 0.76232 0.0
C691 C 0.27661 0.81072 0.75036 0.0
C692 C 0.26721 0.81934 0.70511 0.0
C693 C 0.29133 0.80171 0.67101 0.0
C694 C 0.32436 0.77534 0.68211 0.0
C695 C 0.33329 0.76726 0.72849 0.0
H696 H 0.76094 0.63135 0.83579 0.0
H697 H 0.82847 0.71045 0.92684 0.0
H698 H 0.86067 0.74404 0.86101 0.0
H699 H 0.8419 0.61938 0.75178 0.0
H700 H 0.8075 0.62038 0.70382 0.0
H701 H 0.79013 0.60154 0.75817 0.0
H702 H 0.73035 0.65373 0.75684 0.0
H703 H 0.74759 0.67276 0.70254 0.0
H704 H 0.74127 0.70727 0.74969 0.0
H705 H 0.88366 0.77124 0.78595 0.0
H706 H 0.89698 0.78955 0.70606 0.0
H707 H 0.81708 0.69154 0.66228 0.0
C708 C 0.7826 0.65564 0.8418 0.0
C709 C 0.79259 0.66776 0.88665 0.0
C710 C 0.82102 0.69983 0.89297 0.0
C711 C 0.8393 0.71938 0.85574 0.0
C712 C 0.829 0.70663 0.81212 0.0
C713 C 0.80146 0.67544 0.80483 0.0
C714 C 0.79571 0.66808 0.75422 0.0
C715 C 0.80965 0.62477 0.74124 0.0
C716 C 0.75108 0.67594 0.74 0.0
C717 C 0.82408 0.70017 0.73442 0.0
C718 C 0.84287 0.72206 0.7685 0.0
C719 C 0.86952 0.75399 0.75889 0.0
C720 C 0.87719 0.76393 0.7132 0.0
C721 C 0.85855 0.74188 0.67733 0.0
C722 C 0.83173 0.70938 0.6885 0.0
H723 H 0.3773 0.80548 0.36478 0.0
H724 H 0.29167 0.70643 0.38692 0.0
H725 H 0.25824 0.72254 0.31388 0.0
H726 H 0.30595 0.87526 0.31728 0.0
H727 H 0.34057 0.89641 0.27576 0.0
H728 H 0.36021 0.87541 0.32818 0.0
H729 H 0.40748 0.8267 0.28277 0.0
H730 H 0.38813 0.8477 0.23015 0.0
H731 H 0.38564 0.7935 0.24053 0.0
H732 H 0.23036 0.7523 0.24222 0.0
H733 H 0.21173 0.79206 0.17373 0.0
H734 H 0.31545 0.87165 0.19558 0.0
C735 C 0.35177 0.78694 0.35403 0.0
C736 C 0.33746 0.75434 0.38157 0.0
C737 C 0.30389 0.73091 0.36617 0.0
C738 C 0.28444 0.74003 0.32481 0.0
C739 C 0.29895 0.77257 0.29888 0.0
C740 C 0.33206 0.79549 0.31256 0.0
C741 C 0.34065 0.82958 0.27866 0.0
C742 C 0.33659 0.87165 0.30133 0.0
C743 C 0.38299 0.82402 0.25672 0.0
C744 C 0.30669 0.82268 0.24431 0.0
C745 C 0.28306 0.78958 0.25681 0.0
C746 C 0.24883 0.77805 0.23188 0.0
C747 C 0.23837 0.80094 0.19319 0.0
C748 C 0.26209 0.83491 0.1795 0.0
C749 C 0.29699 0.84564 0.20517 0.0
H750 H 0.17751 0.301 0.68686 0.0
H751 H 0.25922 0.19883 0.66187 0.0
H752 H 0.29961 0.21722 0.72986 0.0
H753 H 0.25501 0.37142 0.72828 0.0
H754 H 0.22182 0.39321 0.77084 0.0
H755 H 0.20052 0.37311 0.71902 0.0
H756 H 0.1534 0.3255 0.76603 0.0
H757 H 0.17441 0.34557 0.81792 0.0
H758 H 0.1757 0.29138 0.80758 0.0
H759 H 0.32973 0.24557 0.80269 0.0
H760 H 0.34501 0.27946 0.87574 0.0
H761 H 0.24418 0.36366 0.85264 0.0
C762 C 0.20407 0.28269 0.69555 0.0
C763 C 0.21505 0.24831 0.66919 0.0
C764 C 0.24984 0.22491 0.68195 0.0
C765 C 0.27318 0.23533 0.7203 0.0
C766 C 0.26137 0.26925 0.74574 0.0
C767 C 0.22755 0.2925 0.73395 0.0
C768 C 0.22041 0.32646 0.768 0.0
C769 C 0.22471 0.36854 0.74516 0.0
C770 C 0.1785 0.32193 0.79125 0.0
C771 C 0.25511 0.31837 0.80112 0.0
C772 C 0.27866 0.2855 0.78749 0.0
C773 C 0.31169 0.27158 0.81345 0.0
C774 C 0.32037 0.29126 0.85478 0.0
C775 C 0.29599 0.32441 0.87002 0.0
C776 C 0.26338 0.33836 0.84217 0.0
H777 H 0.76222 0.23112 0.20334 0.0
H778 H 0.69382 0.119 0.18679 0.0
H779 H 0.65596 0.13362 0.25785 0.0
H780 H 0.77094 0.22513 0.32646 0.0
H781 H 0.76578 0.27949 0.334 0.0
H782 H 0.78772 0.25962 0.28234 0.0
H783 H 0.73387 0.29978 0.23518 0.0
H784 H 0.71141 0.31934 0.28673 0.0
H785 H 0.68024 0.29216 0.24645 0.0
H786 H 0.62336 0.16216 0.32874 0.0
H787 H 0.60309 0.19865 0.39852 0.0
H788 H 0.69427 0.29134 0.37043 0.0
C789 C 0.73937 0.20957 0.21479 0.0
C790 C 0.73097 0.17386 0.1895 0.0
C791 C 0.70111 0.14625 0.20583 0.0
C792 C 0.67921 0.15451 0.24594 0.0
C793 C 0.68771 0.19035 0.26953 0.0
C794 C 0.71747 0.21717 0.25492 0.0
C795 C 0.72118 0.25317 0.28698 0.0
C796 C 0.76394 0.2544 0.30874 0.0
C797 C 0.71106 0.29349 0.26235 0.0
C798 C 0.68864 0.24257 0.32181 0.0
C799 C 0.66954 0.20635 0.31091 0.0
C800 C 0.63839 0.19033 0.33783 0.0
C801 C 0.62717 0.21128 0.37751 0.0
C802 C 0.64723 0.24779 0.39036 0.0
C803 C 0.67796 0.26383 0.3615 0.0
loop_
_geom_bond_atom_site_label_1
_geom_bond_atom_site_label_2
_geom_bond_distance
_geom_bond_site_symmetry_2
_ccdc_geom_bond_type
Co0 N4 2.148 . S
Co0 N10 2.128 . S
Co0 N20 2.194 1_554 S
Co0 O25 2.351 . S
Co0 O26 2.155 . S
Co0 O27 2.096 . S
C1 N4 1.301 . S
C1 N5 1.328 . S
C1 H6 0.930 . S
C2 C3 1.333 . S
C2 N4 1.317 . S
C2 H7 0.930 . S
C3 C2 1.333 . S
C3 N5 1.350 . S
C3 H29 0.931 . S
N4 Co0 2.148 . S
N4 C1 1.301 . S
N4 C2 1.317 . S
N5 C1 1.328 . S
N5 C3 1.350 . S
H6 C1 0.930 . S
H7 C2 0.930 . S
C8 O9 1.224 1_554 S
C8 O27 1.247 . S
O9 C8 1.224 1_556 S
N10 Co0 2.128 . S
N10 C11 1.355 . S
N10 C13 1.311 . S
C11 N10 1.355 . S
C11 C12 1.363 . S
C11 H23 0.929 . S
C12 C11 1.363 . S
C12 N14 1.375 . S
C12 H30 0.931 . S
C13 N10 1.311 . S
C13 N14 1.347 . S
C13 H24 0.929 . S
N14 C12 1.375 . S
N14 C13 1.347 . S
C15 C18 1.365 . S
C15 N20 1.328 . S
C15 H21 0.926 1_556 S
C16 C17 1.362 . S
C16 C19 1.378 . S
C16 H31 0.929 . S
C17 C16 1.362 . S
C17 C18 1.366 . S
C18 C15 1.365 . S
C18 C17 1.366 . S
C18 H32 0.930 . S
C19 C16 1.378 . S
C19 N20 1.315 . S
C19 H22 0.930 . S
N20 Co0 2.194 1_556 S
N20 C15 1.328 . S
N20 C19 1.315 . S
H21 C15 0.926 1_554 S
H22 C19 0.930 . S
H23 C11 0.929 . S
H24 C13 0.929 . S
O25 Co0 2.351 . S
O25 C28 1.244 . S
O26 Co0 2.155 . S
O26 C28 1.240 . S
O27 Co0 2.096 . S
O27 C8 1.247 . S
C28 O25 1.244 . S
C28 O26 1.240 . S
H29 C3 0.931 . S
H30 C12 0.931 . S
H31 C16 0.929 . S
H32 C18 0.930 . S
Co33 N37 2.148 . S
Co33 N43 2.128 . S
Co33 N53 2.194 . S
Co33 O58 2.351 . S
Co33 O59 2.155 . S
Co33 O60 2.096 . S
C34 N37 1.301 . S
C34 N38 1.328 . S
C34 H39 0.930 . S
C35 C36 1.333 . S
C35 N37 1.317 . S
C35 H40 0.930 . S
C36 C35 1.333 . S
C36 N38 1.350 . S
C36 H62 0.931 . S
N37 Co33 2.148 . S
N37 C34 1.301 . S
N37 C35 1.317 . S
N38 C34 1.328 . S
N38 C36 1.350 . S
H39 C34 0.930 . S
H40 C35 0.930 . S
C41 O42 1.224 . S
C41 O60 1.247 . S
O42 C41 1.224 . S
N43 Co33 2.128 . S
N43 C44 1.355 . S
N43 C46 1.311 . S
C44 N43 1.355 . S
C44 C45 1.363 . S
C44 H56 0.929 . S
C45 C44 1.363 . S
C45 N47 1.375 . S
C45 H63 0.931 . S
C46 N43 1.311 . S
C46 N47 1.347 . S
C46 H57 0.929 . S
N47 C45 1.375 . S
N47 C46 1.347 . S
C48 C51 1.365 . S
C48 N53 1.328 . S
C48 H54 0.929 . S
C49 C50 1.362 . S
C49 C52 1.378 . S
C49 H64 0.929 . S
C50 C49 1.362 . S
C50 C51 1.366 . S
C51 C48 1.365 . S
C51 C50 1.366 . S
C51 H65 0.930 . S
C52 C49 1.378 . S
C52 N53 1.315 . S
C52 H55 0.930 . S
N53 Co33 2.194 . S
N53 C48 1.328 . S
N53 C52 1.315 . S
H54 C48 0.929 . S
H55 C52 0.930 . S
H56 C44 0.929 . S
H57 C46 0.929 . S
O58 Co33 2.351 . S
O58 C61 1.244 . S
O59 Co33 2.155 . S
O59 C61 1.240 . S
O60 Co33 2.096 . S
O60 C41 1.247 . S
C61 O58 1.244 . S
C61 O59 1.240 . S
H62 C36 0.931 . S
H63 C45 0.931 . S
H64 C49 0.929 . S
H65 C51 0.930 . S
Co66 N70 2.148 . S
Co66 N76 2.128 . S
Co66 N86 2.194 1_554 S
Co66 O91 2.351 . S
Co66 O92 2.155 . S
Co66 O93 2.096 . S
C67 N70 1.301 . S
C67 N71 1.328 . S
C67 H72 0.930 . S
C68 C69 1.333 . S
C68 N70 1.317 . S
C68 H73 0.930 . S
C69 C68 1.333 . S
C69 N71 1.350 . S
C69 H95 0.931 . S
N70 Co66 2.148 . S
N70 C67 1.301 . S
N70 C68 1.317 . S
N71 C67 1.328 . S
N71 C69 1.350 . S
H72 C67 0.930 . S
H73 C68 0.930 . S
C74 O75 1.224 1_554 S
C74 O93 1.247 . S
O75 C74 1.224 1_556 S
N76 Co66 2.128 . S
N76 C77 1.355 . S
N76 C79 1.311 . S
C77 N76 1.355 . S
C77 C78 1.363 . S
C77 H89 0.929 . S
C78 C77 1.363 . S
C78 N80 1.375 . S
C78 H96 0.931 . S
C79 N76 1.311 . S
C79 N80 1.347 . S
C79 H90 0.929 . S
N80 C78 1.375 . S
N80 C79 1.347 . S
C81 C84 1.365 . S
C81 N86 1.328 . S
C81 H87 0.926 1_556 S
C82 C83 1.362 . S
C82 C85 1.378 . S
C82 H97 0.929 . S
C83 C82 1.362 . S
C83 C84 1.366 . S
C84 C81 1.365 . S
C84 C83 1.366 . S
C84 H98 0.930 . S
C85 C82 1.378 . S
C85 N86 1.315 . S
C85 H88 0.930 . S
N86 Co66 2.194 1_556 S
N86 C81 1.328 . S
N86 C85 1.315 . S
H87 C81 0.926 1_554 S
H88 C85 0.930 . S
H89 C77 0.929 . S
H90 C79 0.929 . S
O91 Co66 2.351 . S
O91 C94 1.244 . S
O92 Co66 2.155 . S
O92 C94 1.240 . S
O93 Co66 2.096 . S
O93 C74 1.247 . S
C94 O91 1.244 . S
C94 O92 1.240 . S
H95 C69 0.931 . S
H96 C78 0.931 . S
H97 C82 0.929 . S
H98 C84 0.930 . S
Co99 N103 2.148 . S
Co99 N109 2.128 . S
Co99 N119 2.194 . S
Co99 O124 2.351 . S
Co99 O125 2.155 . S
Co99 O126 2.096 . S
C100 N103 1.301 . S
C100 N104 1.328 . S
C100 H105 0.930 . S
C101 C102 1.333 . S
C101 N103 1.317 . S
C101 H106 0.930 . S
C102 C101 1.333 . S
C102 N104 1.350 . S
C102 H128 0.931 . S
N103 Co99 2.148 . S
N103 C100 1.301 . S
N103 C101 1.317 . S
N104 C100 1.328 . S
N104 C102 1.350 . S
H105 C100 0.930 . S
H106 C101 0.930 . S
C107 O108 1.224 . S
C107 O126 1.247 . S
O108 C107 1.224 . S
N109 Co99 2.128 . S
N109 C110 1.355 . S
N109 C112 1.311 . S
C110 N109 1.355 . S
C110 C111 1.363 . S
C110 H122 0.929 . S
C111 C110 1.363 . S
C111 N113 1.375 . S
C111 H129 0.931 . S
C112 N109 1.311 . S
C112 N113 1.347 . S
C112 H123 0.929 . S
N113 C111 1.375 . S
N113 C112 1.347 . S
C114 C117 1.365 . S
C114 N119 1.328 . S
C114 H120 0.929 . S
C115 C116 1.362 . S
C115 C118 1.378 . S
C115 H130 0.929 . S
C116 C115 1.362 . S
C116 C117 1.366 . S
C117 C114 1.365 . S
C117 C116 1.366 . S
C117 H131 0.930 . S
C118 C115 1.378 . S
C118 N119 1.315 . S
C118 H121 0.930 . S
N119 Co99 2.194 . S
N119 C114 1.328 . S
N119 C118 1.315 . S
H120 C114 0.929 . S
H121 C118 0.930 . S
H122 C110 0.929 . S
H123 C112 0.929 . S
O124 Co99 2.351 . S
O124 C127 1.244 . S
O125 Co99 2.155 . S
O125 C127 1.240 . S
O126 Co99 2.096 . S
O126 C107 1.247 . S
C127 O124 1.244 . S
C127 O125 1.240 . S
H128 C102 0.931 . S
H129 C111 0.931 . S
H130 C115 0.929 . S
H131 C117 0.930 . S
Co132 N136 2.148 . S
Co132 N142 2.128 . S
Co132 N152 2.194 1_556 S
Co132 O157 2.351 . S
Co132 O158 2.155 . S
Co132 O159 2.096 . S
C133 N136 1.301 . S
C133 N137 1.328 . S
C133 H138 0.930 . S
C134 C135 1.333 . S
C134 N136 1.317 . S
C134 H139 0.930 . S
C135 C134 1.333 . S
C135 N137 1.350 . S
C135 H161 0.931 . S
N136 Co132 2.148 . S
N136 C133 1.301 . S
N136 C134 1.317 . S
N137 C133 1.328 . S
N137 C135 1.350 . S
H138 C133 0.930 . S
H139 C134 0.930 . S
C140 O141 1.224 . S
C140 O159 1.247 1_554 S
O141 C140 1.224 . S
N142 Co132 2.128 . S
N142 C143 1.355 1_556 S
N142 C145 1.311 1_545 S
C143 N142 1.355 1_554 S
C143 C144 1.363 1_545 S
C143 H155 0.929 . S
C144 C143 1.363 1_565 S
C144 N146 1.370 1_554 S
C144 H162 0.931 . S
C145 N142 1.311 1_565 S
C145 N146 1.352 . S
C145 H156 0.929 . S
N146 C144 1.370 1_556 S
N146 C145 1.352 . S
C147 C150 1.365 . S
C147 N152 1.328 . S
C147 H153 0.929 . S
C148 C149 1.362 . S
C148 C151 1.378 . S
C148 H163 0.929 . S
C149 C148 1.362 . S
C149 C150 1.366 . S
C150 C147 1.365 . S
C150 C149 1.366 . S
C150 H164 0.930 . S
C151 C148 1.378 . S
C151 N152 1.315 . S
C151 H154 0.930 . S
N152 Co132 2.194 1_554 S
N152 C147 1.328 . S
N152 C151 1.315 . S
H153 C147 0.929 . S
H154 C151 0.930 . S
H155 C143 0.929 . S
H156 C145 0.929 . S
O157 Co132 2.351 . S
O157 C160 1.244 . S
O158 Co132 2.155 . S
O158 C160 1.240 . S
O159 Co132 2.096 . S
O159 C140 1.247 1_556 S
C160 O157 1.244 . S
C160 O158 1.240 . S
H161 C135 0.931 . S
H162 C144 0.931 . S
H163 C148 0.929 . S
H164 C150 0.930 . S
Co165 N169 2.148 . S
Co165 N175 2.128 . S
Co165 N185 2.194 . S
Co165 O190 2.351 . S
Co165 O191 2.155 . S
Co165 O192 2.096 . S
C166 N169 1.301 . S
C166 N170 1.328 . S
C166 H171 0.930 . S
C167 C168 1.333 . S
C167 N169 1.317 . S
C167 H172 0.930 . S
C168 C167 1.333 . S
C168 N170 1.350 . S
C168 H194 0.931 . S
N169 Co165 2.148 . S
N169 C166 1.301 . S
N169 C167 1.317 . S
N170 C166 1.328 . S
N170 C168 1.350 . S
H171 C166 0.930 . S
H172 C167 0.930 . S
C173 O174 1.224 . S
C173 O192 1.247 . S
O174 C173 1.224 . S
N175 Co165 2.128 . S
N175 C176 1.355 . S
N175 C178 1.311 1_655 S
C176 N175 1.355 . S
C176 C177 1.363 1_655 S
C176 H188 0.929 . S
C177 C176 1.363 1_455 S
C177 N179 1.375 . S
C177 H195 0.931 . S
C178 N175 1.311 1_455 S
C178 N179 1.347 . S
C178 H189 0.929 . S
N179 C177 1.375 . S
N179 C178 1.347 . S
C180 C183 1.365 . S
C180 N185 1.328 . S
C180 H186 0.929 . S
C181 C182 1.362 . S
C181 C184 1.378 . S
C181 H196 0.929 . S
C182 C181 1.362 . S
C182 C183 1.366 . S
C183 C180 1.365 . S
C183 C182 1.366 . S
C183 H197 0.930 . S
C184 C181 1.378 . S
C184 N185 1.315 . S
C184 H187 0.930 . S
N185 Co165 2.194 . S
N185 C180 1.328 . S
N185 C184 1.315 . S
H186 C180 0.929 . S
H187 C184 0.930 . S
H188 C176 0.929 . S
H189 C178 0.929 . S
O190 Co165 2.351 . S
O190 C193 1.244 . S
O191 Co165 2.155 . S
O191 C193 1.240 . S
O192 Co165 2.096 . S
O192 C173 1.247 . S
C193 O190 1.244 . S
C193 O191 1.240 . S
H194 C168 0.931 . S
H195 C177 0.931 . S
H196 C181 0.929 . S
H197 C183 0.930 . S
Co198 N202 2.148 . S
Co198 N208 2.128 . S
Co198 N218 2.194 1_556 S
Co198 O223 2.351 . S
Co198 O224 2.155 . S
Co198 O225 2.096 . S
C199 N202 1.301 . S
C199 N203 1.328 . S
C199 H204 0.930 . S
C200 C201 1.333 . S
C200 N202 1.317 . S
C200 H205 0.930 . S
C201 C200 1.333 . S
C201 N203 1.350 . S
C201 H227 0.931 . S
N202 Co198 2.148 . S
N202 C199 1.301 . S
N202 C200 1.317 . S
N203 C199 1.328 . S
N203 C201 1.350 . S
H204 C199 0.930 . S
H205 C200 0.930 . S
C206 O207 1.224 . S
C206 O225 1.247 1_554 S
O207 C206 1.224 . S
N208 Co198 2.128 . S
N208 C209 1.355 1_556 S
N208 C211 1.311 1_565 S
C209 N208 1.355 1_554 S
C209 C210 1.363 1_565 S
C209 H221 0.929 . S
C210 C209 1.363 1_545 S
C210 N212 1.370 1_554 S
C210 H228 0.931 . S
C211 N208 1.311 1_545 S
C211 N212 1.352 . S
C211 H222 0.929 . S
N212 C210 1.370 1_556 S
N212 C211 1.352 . S
C213 C216 1.365 . S
C213 N218 1.328 . S
C213 H219 0.929 . S
C214 C215 1.362 . S
C214 C217 1.378 . S
C214 H229 0.929 . S
C215 C214 1.362 . S
C215 C216 1.366 . S
C216 C213 1.365 . S
C216 C215 1.366 . S
C216 H230 0.930 . S
C217 C214 1.378 . S
C217 N218 1.315 . S
C217 H220 0.930 . S
N218 Co198 2.194 1_554 S
N218 C213 1.328 . S
N218 C217 1.315 . S
H219 C213 0.929 . S
H220 C217 0.930 . S
H221 C209 0.929 . S
H222 C211 0.929 . S
O223 Co198 2.351 . S
O223 C226 1.244 . S
O224 Co198 2.155 . S
O224 C226 1.240 . S
O225 Co198 2.096 . S
O225 C206 1.247 1_556 S
C226 O223 1.244 . S
C226 O224 1.240 . S
H227 C201 0.931 . S
H228 C210 0.931 . S
H229 C214 0.929 . S
H230 C216 0.930 . S
Co231 N235 2.148 . S
Co231 N241 2.128 . S
Co231 N251 2.194 . S
Co231 O256 2.351 . S
Co231 O257 2.155 . S
Co231 O258 2.096 . S
C232 N235 1.301 . S
C232 N236 1.328 . S
C232 H237 0.930 . S
C233 C234 1.333 . S
C233 N235 1.317 . S
C233 H238 0.930 . S
C234 C233 1.333 . S
C234 N236 1.350 . S
C234 H260 0.931 . S
N235 Co231 2.148 . S
N235 C232 1.301 . S
N235 C233 1.317 . S
N236 C232 1.328 . S
N236 C234 1.350 . S
H237 C232 0.930 . S
H238 C233 0.930 . S
C239 O240 1.224 . S
C239 O258 1.247 . S
O240 C239 1.224 . S
N241 Co231 2.128 . S
N241 C242 1.355 . S
N241 C244 1.311 1_455 S
C242 N241 1.355 . S
C242 C243 1.363 1_455 S
C242 H254 0.929 . S
C243 C242 1.363 1_655 S
C243 N245 1.375 . S
C243 H261 0.931 . S
C244 N241 1.311 1_655 S
C244 N245 1.347 . S
C244 H255 0.929 . S
N245 C243 1.375 . S
N245 C244 1.347 . S
C246 C249 1.365 . S
C246 N251 1.328 . S
C246 H252 0.929 . S
C247 C248 1.362 . S
C247 C250 1.378 . S
C247 H262 0.929 . S
C248 C247 1.362 . S
C248 C249 1.366 . S
C249 C246 1.365 . S
C249 C248 1.366 . S
C249 H263 0.930 . S
C250 C247 1.378 . S
C250 N251 1.315 . S
C250 H253 0.930 . S
N251 Co231 2.194 . S
N251 C246 1.328 . S
N251 C250 1.315 . S
H252 C246 0.929 . S
H253 C250 0.930 . S
H254 C242 0.929 . S
H255 C244 0.929 . S
O256 Co231 2.351 . S
O256 C259 1.244 . S
O257 Co231 2.155 . S
O257 C259 1.240 . S
O258 Co231 2.096 . S
O258 C239 1.247 . S
C259 O256 1.244 . S
C259 O257 1.240 . S
H260 C234 0.931 . S
H261 C243 0.931 . S
H262 C247 0.929 . S
H263 C249 0.930 . S
H264 C276 0.933 . S
H265 C278 0.930 . S
H266 C279 0.930 . S
H267 C283 0.959 . S
H268 C283 0.959 . S
H269 C283 0.961 . S
H270 C284 0.960 . S
H271 C284 0.961 . S
H272 C284 0.959 . S
H273 C287 0.929 . S
H274 C288 0.931 . S
H275 C290 0.930 . S
C276 H264 0.933 . S
C276 C277 1.400 . S
C276 C281 1.396 1_556 S
C277 C276 1.400 . S
C277 C278 1.376 1_556 S
C278 H265 0.930 . S
C278 C277 1.376 1_554 S
C278 C279 1.388 . S
C279 H266 0.930 . S
C279 C278 1.388 . S
C279 C280 1.390 . S
C280 C279 1.390 . S
C280 C281 1.394 . S
C280 C286 1.465 . S
C281 C276 1.396 1_554 S
C281 C280 1.394 . S
C281 C282 1.516 . S
C282 C281 1.516 . S
C282 C283 1.502 . S
C282 C284 1.561 1_554 S
C282 C285 1.526 . S
C283 H267 0.959 . S
C283 H268 0.959 . S
C283 H269 0.961 . S
C283 C282 1.502 . S
C284 H270 0.960 . S
C284 H271 0.961 . S
C284 H272 0.959 . S
C284 C282 1.561 1_556 S
C285 C282 1.526 . S
C285 C286 1.396 . S
C285 C290 1.390 . S
C286 C280 1.465 . S
C286 C285 1.396 . S
C286 C287 1.399 . S
C287 H273 0.929 . S
C287 C286 1.399 . S
C287 C288 1.385 . S
C288 H274 0.931 . S
C288 C287 1.385 . S
C288 C289 1.389 . S
C289 C288 1.389 . S
C289 C290 1.387 . S
C290 H275 0.930 . S
C290 C285 1.390 . S
C290 C289 1.387 . S
H291 C303 0.930 . S
H292 C305 0.930 . S
H293 C306 0.930 . S
H294 C310 0.959 . S
H295 C310 0.959 . S
H296 C310 0.961 . S
H297 C311 0.960 . S
H298 C311 0.961 . S
H299 C311 0.959 . S
H300 C314 0.929 . S
H301 C315 0.931 . S
H302 C317 0.930 . S
C303 H291 0.930 . S
C303 C304 1.399 . S
C303 C308 1.399 . S
C304 C303 1.399 . S
C304 C305 1.376 . S
C305 H292 0.930 . S
C305 C304 1.376 . S
C305 C306 1.388 . S
C306 H293 0.930 . S
C306 C305 1.388 . S
C306 C307 1.390 . S
C307 C306 1.390 . S
C307 C308 1.394 . S
C307 C313 1.465 . S
C308 C303 1.399 . S
C308 C307 1.394 . S
C308 C309 1.516 . S
C309 C308 1.516 . S
C309 C310 1.502 . S
C309 C311 1.561 . S
C309 C312 1.526 . S
C310 H294 0.959 . S
C310 H295 0.959 . S
C310 H296 0.961 . S
C310 C309 1.502 . S
C311 H297 0.960 . S
C311 H298 0.961 . S
C311 H299 0.959 . S
C311 C309 1.561 . S
C312 C309 1.526 . S
C312 C313 1.396 . S
C312 C317 1.390 . S
C313 C307 1.465 . S
C313 C312 1.396 . S
C313 C314 1.399 . S
C314 H300 0.929 . S
C314 C313 1.399 . S
C314 C315 1.385 . S
C315 H301 0.931 . S
C315 C314 1.385 . S
C315 C316 1.389 . S
C316 C315 1.389 . S
C316 C317 1.387 . S
C317 H302 0.930 . S
C317 C312 1.390 . S
C317 C316 1.387 . S
H318 C330 0.930 . S
H319 C332 0.930 . S
H320 C333 0.930 . S
H321 C337 0.959 . S
H322 C337 0.959 . S
H323 C337 0.961 . S
H324 C338 0.960 . S
H325 C338 0.961 . S
H326 C338 0.959 . S
H327 C341 0.929 . S
H328 C342 0.931 . S
H329 C344 0.930 . S
C330 H318 0.930 . S
C330 C331 1.399 1_554 S
C330 C335 1.399 . S
C331 C330 1.399 1_556 S
C331 C332 1.376 . S
C332 H319 0.930 . S
C332 C331 1.376 . S
C332 C333 1.388 . S
C333 H320 0.930 . S
C333 C332 1.388 . S
C333 C334 1.390 . S
C334 C333 1.390 . S
C334 C335 1.394 1_556 S
C334 C340 1.465 1_556 S
C335 C330 1.399 . S
C335 C334 1.394 1_554 S
C335 C336 1.516 . S
C336 C335 1.516 . S
C336 C337 1.502 . S
C336 C338 1.561 . S
C336 C339 1.526 . S
C337 H321 0.959 . S
C337 H322 0.959 . S
C337 H323 0.961 . S
C337 C336 1.502 . S
C338 H324 0.960 . S
C338 H325 0.961 . S
C338 H326 0.959 . S
C338 C336 1.561 . S
C339 C336 1.526 . S
C339 C340 1.396 . S
C339 C344 1.390 . S
C340 C334 1.465 1_554 S
C340 C339 1.396 . S
C340 C341 1.399 1_554 S
C341 H327 0.929 . S
C341 C340 1.399 1_556 S
C341 C342 1.385 . S
C342 H328 0.931 . S
C342 C341 1.385 . S
C342 C343 1.389 1_556 S
C343 C342 1.389 1_554 S
C343 C344 1.387 . S
C344 H329 0.930 . S
C344 C339 1.390 . S
C344 C343 1.387 . S
H345 C357 0.930 . S
H346 C359 0.930 . S
H347 C360 0.930 . S
H348 C364 0.959 . S
H349 C364 0.959 . S
H350 C364 0.961 . S
H351 C365 0.960 . S
H352 C365 0.961 . S
H353 C365 0.959 . S
H354 C368 0.929 . S
H355 C369 0.931 . S
H356 C371 0.930 . S
C357 H345 0.930 . S
C357 C358 1.399 . S
C357 C362 1.399 . S
C358 C357 1.399 . S
C358 C359 1.376 . S
C359 H346 0.930 . S
C359 C358 1.376 . S
C359 C360 1.388 . S
C360 H347 0.930 . S
C360 C359 1.388 . S
C360 C361 1.390 . S
C361 C360 1.390 . S
C361 C362 1.394 . S
C361 C367 1.465 . S
C362 C357 1.399 . S
C362 C361 1.394 . S
C362 C363 1.516 . S
C363 C362 1.516 . S
C363 C364 1.502 . S
C363 C365 1.561 . S
C363 C366 1.526 . S
C364 H348 0.959 . S
C364 H349 0.959 . S
C364 H350 0.961 . S
C364 C363 1.502 . S
C365 H351 0.960 . S
C365 H352 0.961 . S
C365 H353 0.959 . S
C365 C363 1.561 . S
C366 C363 1.526 . S
C366 C367 1.396 . S
C366 C371 1.390 . S
C367 C361 1.465 . S
C367 C366 1.396 . S
C367 C368 1.399 . S
C368 H354 0.929 . S
C368 C367 1.399 . S
C368 C369 1.385 . S
C369 H355 0.931 . S
C369 C368 1.385 . S
C369 C370 1.389 . S
C370 C369 1.389 . S
C370 C371 1.387 . S
C371 H356 0.930 . S
C371 C366 1.390 . S
C371 C370 1.387 . S
H372 C384 0.930 . S
H373 C386 0.930 . S
H374 C387 0.930 . S
H375 C391 0.959 . S
H376 C391 0.959 . S
H377 C391 0.961 . S
H378 C392 0.960 . S
H379 C392 0.961 . S
H380 C392 0.959 . S
H381 C395 0.929 . S
H382 C396 0.931 . S
H383 C398 0.930 . S
C384 H372 0.930 . S
C384 C385 1.399 1_556 S
C384 C389 1.399 . S
C385 C384 1.399 1_554 S
C385 C386 1.376 . S
C386 H373 0.930 . S
C386 C385 1.376 . S
C386 C387 1.388 . S
C387 H374 0.930 . S
C387 C386 1.388 . S
C387 C388 1.390 . S
C388 C387 1.390 . S
C388 C389 1.394 1_554 S
C388 C394 1.465 . S
C389 C384 1.399 . S
C389 C388 1.394 1_556 S
C389 C390 1.516 . S
C390 C389 1.516 . S
C390 C391 1.502 . S
C390 C392 1.561 . S
C390 C393 1.526 . S
C391 H375 0.959 . S
C391 H376 0.959 . S
C391 H377 0.961 . S
C391 C390 1.502 . S
C392 H378 0.960 . S
C392 H379 0.961 . S
C392 H380 0.959 . S
C392 C390 1.561 . S
C393 C390 1.526 . S
C393 C394 1.396 1_556 S
C393 C398 1.390 . S
C394 C388 1.465 . S
C394 C393 1.396 1_554 S
C394 C395 1.399 . S
C395 H381 0.929 . S
C395 C394 1.399 . S
C395 C396 1.385 . S
C396 H382 0.931 . S
C396 C395 1.385 . S
C396 C397 1.389 1_554 S
C397 C396 1.389 1_556 S
C397 C398 1.387 . S
C398 H383 0.930 . S
C398 C393 1.390 . S
C398 C397 1.387 . S
H399 C411 0.930 . S
H400 C413 0.930 . S
H401 C414 0.930 . S
H402 C418 0.959 . S
H403 C418 0.959 . S
H404 C418 0.961 . S
H405 C419 0.960 . S
H406 C419 0.961 . S
H407 C419 0.959 . S
H408 C422 0.929 . S
H409 C423 0.931 . S
H410 C425 0.930 . S
C411 H399 0.930 . S
C411 C412 1.399 . S
C411 C416 1.399 . S
C412 C411 1.399 . S
C412 C413 1.376 . S
C413 H400 0.930 . S
C413 C412 1.376 . S
C413 C414 1.388 . S
C414 H401 0.930 . S
C414 C413 1.388 . S
C414 C415 1.390 . S
C415 C414 1.390 . S
C415 C416 1.394 . S
C415 C421 1.465 . S
C416 C411 1.399 . S
C416 C415 1.394 . S
C416 C417 1.516 . S
C417 C416 1.516 . S
C417 C418 1.502 . S
C417 C419 1.561 . S
C417 C420 1.526 . S
C418 H402 0.959 . S
C418 H403 0.959 . S
C418 H404 0.961 . S
C418 C417 1.502 . S
C419 H405 0.960 . S
C419 H406 0.961 . S
C419 H407 0.959 . S
C419 C417 1.561 . S
C420 C417 1.526 . S
C420 C421 1.396 . S
C420 C425 1.390 . S
C421 C415 1.465 . S
C421 C420 1.396 . S
C421 C422 1.399 . S
C422 H408 0.929 . S
C422 C421 1.399 . S
C422 C423 1.385 . S
C423 H409 0.931 . S
C423 C422 1.385 . S
C423 C424 1.389 . S
C424 C423 1.389 . S
C424 C425 1.387 . S
C425 H410 0.930 . S
C425 C420 1.390 . S
C425 C424 1.387 . S
H426 C438 0.925 1_556 S
H427 C440 0.930 . S
H428 C441 0.930 . S
H429 C445 0.959 . S
H430 C445 0.959 . S
H431 C445 0.961 . S
H432 C446 0.960 . S
H433 C446 0.961 . S
H434 C446 0.959 . S
H435 C449 0.929 . S
H436 C450 0.931 . S
H437 C452 0.930 . S
C438 H426 0.925 1_554 S
C438 C439 1.404 . S
C438 C443 1.399 1_554 S
C439 C438 1.404 . S
C439 C440 1.376 . S
C440 H427 0.930 . S
C440 C439 1.376 . S
C440 C441 1.388 . S
C441 H428 0.930 . S
C441 C440 1.388 . S
C441 C442 1.390 . S
C442 C441 1.390 . S
C442 C443 1.394 1_554 S
C442 C448 1.465 . S
C443 C438 1.399 1_556 S
C443 C442 1.394 1_556 S
C443 C444 1.516 . S
C444 C443 1.516 . S
C444 C445 1.502 . S
C444 C446 1.561 . S
C444 C447 1.526 . S
C445 H429 0.959 . S
C445 H430 0.959 . S
C445 H431 0.961 . S
C445 C444 1.502 . S
C446 H432 0.960 . S
C446 H433 0.961 . S
C446 H434 0.959 . S
C446 C444 1.561 . S
C447 C444 1.526 . S
C447 C448 1.396 1_556 S
C447 C452 1.390 . S
C448 C442 1.465 . S
C448 C447 1.396 1_554 S
C448 C449 1.399 . S
C449 H435 0.929 . S
C449 C448 1.399 . S
C449 C450 1.385 . S
C450 H436 0.931 . S
C450 C449 1.385 . S
C450 C451 1.389 1_554 S
C451 C450 1.389 1_556 S
C451 C452 1.387 . S
C452 H437 0.930 . S
C452 C447 1.390 . S
C452 C451 1.387 . S
H453 C465 0.930 . S
H454 C467 0.930 . S
H455 C468 0.930 . S
H456 C472 0.959 . S
H457 C472 0.959 . S
H458 C472 0.961 . S
H459 C473 0.960 . S
H460 C473 0.961 . S
H461 C473 0.959 . S
H462 C476 0.929 . S
H463 C477 0.931 . S
H464 C479 0.930 . S
C465 H453 0.930 . S
C465 C466 1.399 . S
C465 C470 1.399 . S
C466 C465 1.399 . S
C466 C467 1.376 . S
C467 H454 0.930 . S
C467 C466 1.376 . S
C467 C468 1.388 . S
C468 H455 0.930 . S
C468 C467 1.388 . S
C468 C469 1.390 . S
C469 C468 1.390 . S
C469 C470 1.394 . S
C469 C475 1.465 . S
C470 C465 1.399 . S
C470 C469 1.394 . S
C470 C471 1.516 . S
C471 C470 1.516 . S
C471 C472 1.502 . S
C471 C473 1.561 . S
C471 C474 1.526 . S
C472 H456 0.959 . S
C472 H457 0.959 . S
C472 H458 0.961 . S
C472 C471 1.502 . S
C473 H459 0.960 . S
C473 H460 0.961 . S
C473 H461 0.959 . S
C473 C471 1.561 . S
C474 C471 1.526 . S
C474 C475 1.396 . S
C474 C479 1.390 . S
C475 C469 1.465 . S
C475 C474 1.396 . S
C475 C476 1.399 . S
C476 H462 0.929 . S
C476 C475 1.399 . S
C476 C477 1.385 . S
C477 H463 0.931 . S
C477 C476 1.385 . S
C477 C478 1.389 . S
C478 C477 1.389 . S
C478 C479 1.387 . S
C479 H464 0.930 . S
C479 C474 1.390 . S
C479 C478 1.387 . S
H480 C492 0.930 . S
H481 C494 0.930 . S
H482 C495 0.930 . S
H483 C499 0.959 . S
H484 C499 0.959 . S
H485 C499 0.961 . S
H486 C500 0.960 . S
H487 C500 0.961 . S
H488 C500 0.959 . S
H489 C503 0.929 . S
H490 C504 0.931 . S
H491 C506 0.949 . S
C492 H480 0.930 . S
C492 C493 1.399 1_556 S
C492 C497 1.399 1_556 S
C493 C492 1.399 1_554 S
C493 C494 1.376 . S
C494 H481 0.930 . S
C494 C493 1.376 . S
C494 C495 1.388 . S
C495 H482 0.930 . S
C495 C494 1.388 . S
C495 C496 1.390 . S
C496 C495 1.390 . S
C496 C497 1.394 . S
C496 C502 1.465 . S
C497 C492 1.399 1_554 S
C497 C496 1.394 . S
C497 C498 1.516 1_554 S
C498 C497 1.516 1_556 S
C498 C499 1.502 . S
C498 C500 1.561 . S
C498 C501 1.526 1_556 S
C499 H483 0.959 . S
C499 H484 0.959 . S
C499 H485 0.961 . S
C499 C498 1.502 . S
C500 H486 0.960 . S
C500 H487 0.961 . S
C500 H488 0.959 . S
C500 C498 1.561 . S
C501 C498 1.526 1_554 S
C501 C502 1.396 . S
C501 C506 1.386 1_554 S
C502 C496 1.465 . S
C502 C501 1.396 . S
C502 C503 1.399 . S
C503 H489 0.929 . S
C503 C502 1.399 . S
C503 C504 1.385 . S
C504 H490 0.931 . S
C504 C503 1.385 . S
C504 C505 1.389 . S
C505 C504 1.389 . S
C505 C506 1.371 1_554 S
C506 H491 0.949 . S
C506 C501 1.386 1_556 S
C506 C505 1.371 1_556 S
H507 C519 0.930 . S
H508 C521 0.930 . S
H509 C522 0.930 . S
H510 C526 0.959 . S
H511 C526 0.959 . S
H512 C526 0.961 . S
H513 C527 0.960 . S
H514 C527 0.961 . S
H515 C527 0.959 . S
H516 C530 0.929 . S
H517 C531 0.931 . S
H518 C533 0.930 . S
C519 H507 0.930 . S
C519 C520 1.399 . S
C519 C524 1.399 . S
C520 C519 1.399 . S
C520 C521 1.376 . S
C521 H508 0.930 . S
C521 C520 1.376 . S
C521 C522 1.388 . S
C522 H509 0.930 . S
C522 C521 1.388 . S
C522 C523 1.390 . S
C523 C522 1.390 . S
C523 C524 1.394 . S
C523 C529 1.465 . S
C524 C519 1.399 . S
C524 C523 1.394 . S
C524 C525 1.516 . S
C525 C524 1.516 . S
C525 C526 1.502 . S
C525 C527 1.561 . S
C525 C528 1.526 . S
C526 H510 0.959 . S
C526 H511 0.959 . S
C526 H512 0.961 . S
C526 C525 1.502 . S
C527 H513 0.960 . S
C527 H514 0.961 . S
C527 H515 0.959 . S
C527 C525 1.561 . S
C528 C525 1.526 . S
C528 C529 1.396 . S
C528 C533 1.390 . S
C529 C523 1.465 . S
C529 C528 1.396 . S
C529 C530 1.399 . S
C530 H516 0.929 . S
C530 C529 1.399 . S
C530 C531 1.385 . S
C531 H517 0.931 . S
C531 C530 1.385 . S
C531 C532 1.389 . S
C532 C531 1.389 . S
C532 C533 1.387 . S
C533 H518 0.930 . S
C533 C528 1.390 . S
C533 C532 1.387 . S
H534 C546 0.930 . S
H535 C548 0.930 . S
H536 C549 0.930 . S
H537 C553 0.959 . S
H538 C553 0.959 . S
H539 C553 0.961 1_455 S
H540 C554 0.960 . S
H541 C554 0.961 1_655 S
H542 C554 0.959 . S
H543 C557 0.929 . S
H544 C558 0.931 . S
H545 C560 0.930 . S
C546 H534 0.930 . S
C546 C547 1.405 . S
C546 C551 1.399 . S
C547 C546 1.405 . S
C547 C548 1.369 1_554 S
C548 H535 0.930 . S
C548 C547 1.369 1_556 S
C548 C549 1.388 1_565 S
C549 H536 0.930 . S
C549 C548 1.388 1_545 S
C549 C550 1.390 . S
C550 C549 1.390 . S
C550 C551 1.394 1_546 S
C550 C556 1.465 1_455 S
C551 C546 1.399 . S
C551 C550 1.394 1_564 S
C551 C552 1.516 1_455 S
C552 C551 1.516 1_655 S
C552 C553 1.502 . S
C552 C554 1.561 1_665 S
C552 C555 1.526 1_565 S
C553 H537 0.959 . S
C553 H538 0.959 . S
C553 H539 0.961 1_655 S
C553 C552 1.502 . S
C554 H540 0.960 . S
C554 H541 0.961 1_455 S
C554 H542 0.959 . S
C554 C552 1.561 1_445 S
C555 C552 1.526 1_545 S
C555 C556 1.396 1_554 S
C555 C560 1.390 . S
C556 C550 1.465 1_655 S
C556 C555 1.396 1_556 S
C556 C557 1.399 . S
C557 H543 0.929 . S
C557 C556 1.399 . S
C557 C558 1.385 . S
C558 H544 0.931 . S
C558 C557 1.385 . S
C558 C559 1.397 . S
C559 C558 1.397 . S
C559 C560 1.381 1_556 S
C560 H545 0.930 . S
C560 C555 1.390 . S
C560 C559 1.381 1_554 S
H561 C573 0.930 . S
H562 C575 0.930 . S
H563 C576 0.930 . S
H564 C580 0.959 . S
H565 C580 0.959 1_545 S
H566 C580 0.961 . S
H567 C581 0.960 1_565 S
H568 C581 0.961 . S
H569 C581 0.959 . S
H570 C584 0.929 . S
H571 C585 0.931 . S
H572 C587 0.930 . S
C573 H561 0.930 . S
C573 C574 1.399 . S
C573 C578 1.399 . S
C574 C573 1.399 . S
C574 C575 1.376 . S
C575 H562 0.930 . S
C575 C574 1.376 . S
C575 C576 1.388 . S
C576 H563 0.930 . S
C576 C575 1.388 . S
C576 C577 1.390 . S
C577 C576 1.390 . S
C577 C578 1.394 . S
C577 C583 1.465 1_565 S
C578 C573 1.399 . S
C578 C577 1.394 . S
C578 C579 1.516 1_655 S
C579 C578 1.516 1_455 S
C579 C580 1.502 . S
C579 C581 1.561 1_465 S
C579 C582 1.526 1_565 S
C580 H564 0.959 . S
C580 H565 0.959 1_565 S
C580 H566 0.961 . S
C580 C579 1.502 . S
C581 H567 0.960 1_545 S
C581 H568 0.961 . S
C581 H569 0.959 . S
C581 C579 1.561 1_645 S
C582 C579 1.526 1_545 S
C582 C583 1.396 1_455 S
C582 C587 1.390 . S
C583 C577 1.465 1_545 S
C583 C582 1.396 1_655 S
C583 C584 1.399 . S
C584 H570 0.929 . S
C584 C583 1.399 . S
C584 C585 1.385 1_655 S
C585 H571 0.931 . S
C585 C584 1.385 1_455 S
C585 C586 1.389 . S
C586 C585 1.389 . S
C586 C587 1.387 . S
C587 H572 0.930 . S
C587 C582 1.390 . S
C587 C586 1.387 . S
H588 C600 0.930 . S
H589 C602 0.930 . S
H590 C603 0.930 . S
H591 C607 0.959 . S
H592 C607 0.959 . S
H593 C607 0.961 . S
H594 C608 0.960 . S
H595 C608 0.961 . S
H596 C608 0.959 . S
H597 C611 0.929 . S
H598 C612 0.931 . S
H599 C614 0.930 . S
C600 H588 0.930 . S
C600 C601 1.399 . S
C600 C605 1.399 . S
C601 C600 1.399 . S
C601 C602 1.376 . S
C602 H589 0.930 . S
C602 C601 1.376 . S
C602 C603 1.388 . S
C603 H590 0.930 . S
C603 C602 1.388 . S
C603 C604 1.390 . S
C604 C603 1.390 . S
C604 C605 1.394 . S
C604 C610 1.465 . S
C605 C600 1.399 . S
C605 C604 1.394 . S
C605 C606 1.516 . S
C606 C605 1.516 . S
C606 C607 1.502 . S
C606 C608 1.561 . S
C606 C609 1.526 . S
C607 H591 0.959 . S
C607 H592 0.959 . S
C607 H593 0.961 . S
C607 C606 1.502 . S
C608 H594 0.960 . S
C608 H595 0.961 . S
C608 H596 0.959 . S
C608 C606 1.561 . S
C609 C606 1.526 . S
C609 C610 1.396 . S
C609 C614 1.390 . S
C610 C604 1.465 . S
C610 C609 1.396 . S
C610 C611 1.399 . S
C611 H597 0.929 . S
C611 C610 1.399 . S
C611 C612 1.385 . S
C612 H598 0.931 . S
C612 C611 1.385 . S
C612 C613 1.389 . S
C613 C612 1.389 . S
C613 C614 1.387 . S
C614 H599 0.930 . S
C614 C609 1.390 . S
C614 C613 1.387 . S
H615 C627 0.930 . S
H616 C629 0.930 . S
H617 C630 0.930 . S
H618 C634 0.959 . S
H619 C634 0.959 . S
H620 C634 0.961 . S
H621 C635 0.960 . S
H622 C635 0.961 . S
H623 C635 0.959 . S
H624 C638 0.929 . S
H625 C639 0.931 . S
H626 C641 0.930 . S
C627 H615 0.930 . S
C627 C628 1.399 . S
C627 C632 1.399 . S
C628 C627 1.399 . S
C628 C629 1.376 . S
C629 H616 0.930 . S
C629 C628 1.376 . S
C629 C630 1.388 . S
C630 H617 0.930 . S
C630 C629 1.388 . S
C630 C631 1.390 . S
C631 C630 1.390 . S
C631 C632 1.394 . S
C631 C637 1.465 . S
C632 C627 1.399 . S
C632 C631 1.394 . S
C632 C633 1.516 . S
C633 C632 1.516 . S
C633 C634 1.502 . S
C633 C635 1.561 . S
C633 C636 1.526 . S
C634 H618 0.959 . S
C634 H619 0.959 . S
C634 H620 0.961 . S
C634 C633 1.502 . S
C635 H621 0.960 . S
C635 H622 0.961 . S
C635 H623 0.959 . S
C635 C633 1.561 . S
C636 C633 1.526 . S
C636 C637 1.396 . S
C636 C641 1.390 . S
C637 C631 1.465 . S
C637 C636 1.396 . S
C637 C638 1.399 . S
C638 H624 0.929 . S
C638 C637 1.399 . S
C638 C639 1.385 . S
C639 H625 0.931 . S
C639 C638 1.385 . S
C639 C640 1.389 . S
C640 C639 1.389 . S
C640 C641 1.387 . S
C641 H626 0.930 . S
C641 C636 1.390 . S
C641 C640 1.387 . S
H642 C654 0.930 . S
H643 C656 0.930 . S
H644 C657 0.930 . S
H645 C661 0.959 . S
H646 C661 0.959 . S
H647 C661 0.961 . S
H648 C662 0.960 . S
H649 C662 0.961 . S
H650 C662 0.959 . S
H651 C665 0.929 . S
H652 C666 0.931 . S
H653 C668 0.930 . S
C654 H642 0.930 . S
C654 C655 1.399 . S
C654 C659 1.399 . S
C655 C654 1.399 . S
C655 C656 1.376 . S
C656 H643 0.930 . S
C656 C655 1.376 . S
C656 C657 1.388 . S
C657 H644 0.930 . S
C657 C656 1.388 . S
C657 C658 1.390 . S
C658 C657 1.390 . S
C658 C659 1.394 . S
C658 C664 1.465 . S
C659 C654 1.399 . S
C659 C658 1.394 . S
C659 C660 1.516 . S
C660 C659 1.516 . S
C660 C661 1.502 . S
C660 C662 1.561 . S
C660 C663 1.526 . S
C661 H645 0.959 . S
C661 H646 0.959 . S
C661 H647 0.961 . S
C661 C660 1.502 . S
C662 H648 0.960 . S
C662 H649 0.961 . S
C662 H650 0.959 . S
C662 C660 1.561 . S
C663 C660 1.526 . S
C663 C664 1.396 . S
C663 C668 1.390 . S
C664 C658 1.465 . S
C664 C663 1.396 . S
C664 C665 1.399 . S
C665 H651 0.929 . S
C665 C664 1.399 . S
C665 C666 1.385 . S
C666 H652 0.931 . S
C666 C665 1.385 . S
C666 C667 1.389 . S
C667 C666 1.389 . S
C667 C668 1.387 . S
C668 H653 0.930 . S
C668 C663 1.390 . S
C668 C667 1.387 . S
H669 C681 0.930 . S
H670 C683 0.930 . S
H671 C684 0.930 . S
H672 C688 0.959 . S
H673 C688 0.959 . S
H674 C688 0.961 . S
H675 C689 0.960 . S
H676 C689 0.961 . S
H677 C689 0.959 . S
H678 C692 0.929 . S
H679 C693 0.931 . S
H680 C695 0.930 . S
C681 H669 0.930 . S
C681 C682 1.399 . S
C681 C686 1.399 . S
C682 C681 1.399 . S
C682 C683 1.376 . S
C683 H670 0.930 . S
C683 C682 1.376 . S
C683 C684 1.388 . S
C684 H671 0.930 . S
C684 C683 1.388 . S
C684 C685 1.390 . S
C685 C684 1.390 . S
C685 C686 1.394 . S
C685 C691 1.465 . S
C686 C681 1.399 . S
C686 C685 1.394 . S
C686 C687 1.516 . S
C687 C686 1.516 . S
C687 C688 1.502 . S
C687 C689 1.561 . S
C687 C690 1.526 . S
C688 H672 0.959 . S
C688 H673 0.959 . S
C688 H674 0.961 . S
C688 C687 1.502 . S
C689 H675 0.960 . S
C689 H676 0.961 . S
C689 H677 0.959 . S
C689 C687 1.561 . S
C690 C687 1.526 . S
C690 C691 1.396 . S
C690 C695 1.390 . S
C691 C685 1.465 . S
C691 C690 1.396 . S
C691 C692 1.399 . S
C692 H678 0.929 . S
C692 C691 1.399 . S
C692 C693 1.385 . S
C693 H679 0.931 . S
C693 C692 1.385 . S
C693 C694 1.389 . S
C694 C693 1.389 . S
C694 C695 1.387 . S
C695 H680 0.930 . S
C695 C690 1.390 . S
C695 C694 1.387 . S
H696 C708 0.930 . S
H697 C710 0.930 . S
H698 C711 0.930 . S
H699 C715 0.959 . S
H700 C715 0.959 . S
H701 C715 0.961 . S
H702 C716 0.960 . S
H703 C716 0.961 . S
H704 C716 0.959 . S
H705 C719 0.929 . S
H706 C720 0.931 . S
H707 C722 0.930 . S
C708 H696 0.930 . S
C708 C709 1.399 . S
C708 C713 1.399 . S
C709 C708 1.399 . S
C709 C710 1.376 . S
C710 H697 0.930 . S
C710 C709 1.376 . S
C710 C711 1.388 . S
C711 H698 0.930 . S
C711 C710 1.388 . S
C711 C712 1.390 . S
C712 C711 1.390 . S
C712 C713 1.394 . S
C712 C718 1.465 . S
C713 C708 1.399 . S
C713 C712 1.394 . S
C713 C714 1.516 . S
C714 C713 1.516 . S
C714 C715 1.502 . S
C714 C716 1.561 . S
C714 C717 1.526 . S
C715 H699 0.959 . S
C715 H700 0.959 . S
C715 H701 0.961 . S
C715 C714 1.502 . S
C716 H702 0.960 . S
C716 H703 0.961 . S
C716 H704 0.959 . S
C716 C714 1.561 . S
C717 C714 1.526 . S
C717 C718 1.396 . S
C717 C722 1.390 . S
C718 C712 1.465 . S
C718 C717 1.396 . S
C718 C719 1.399 . S
C719 H705 0.929 . S
C719 C718 1.399 . S
C719 C720 1.385 . S
C720 H706 0.931 . S
C720 C719 1.385 . S
C720 C721 1.389 . S
C721 C720 1.389 . S
C721 C722 1.387 . S
C722 H707 0.930 . S
C722 C717 1.390 . S
C722 C721 1.387 . S
H723 C735 0.930 . S
H724 C737 0.930 . S
H725 C738 0.930 . S
H726 C742 0.959 . S
H727 C742 0.959 . S
H728 C742 0.961 . S
H729 C743 0.960 . S
H730 C743 0.961 . S
H731 C743 0.959 . S
H732 C746 0.929 . S
H733 C747 0.931 . S
H734 C749 0.930 . S
C735 H723 0.930 . S
C735 C736 1.399 . S
C735 C740 1.399 . S
C736 C735 1.399 . S
C736 C737 1.376 . S
C737 H724 0.930 . S
C737 C736 1.376 . S
C737 C738 1.388 . S
C738 H725 0.930 . S
C738 C737 1.388 . S
C738 C739 1.390 . S
C739 C738 1.390 . S
C739 C740 1.394 . S
C739 C745 1.465 . S
C740 C735 1.399 . S
C740 C739 1.394 . S
C740 C741 1.516 . S
C741 C740 1.516 . S
C741 C742 1.502 . S
C741 C743 1.561 . S
C741 C744 1.526 . S
C742 H726 0.959 . S
C742 H727 0.959 . S
C742 H728 0.961 . S
C742 C741 1.502 . S
C743 H729 0.960 . S
C743 H730 0.961 . S
C743 H731 0.959 . S
C743 C741 1.561 . S
C744 C741 1.526 . S
C744 C745 1.396 . S
C744 C749 1.390 . S
C745 C739 1.465 . S
C745 C744 1.396 . S
C745 C746 1.399 . S
C746 H732 0.929 . S
C746 C745 1.399 . S
C746 C747 1.385 . S
C747 H733 0.931 . S
C747 C746 1.385 . S
C747 C748 1.389 . S
C748 C747 1.389 . S
C748 C749 1.387 . S
C749 H734 0.930 . S
C749 C744 1.390 . S
C749 C748 1.387 . S
H750 C762 0.930 . S
H751 C764 0.930 . S
H752 C765 0.930 . S
H753 C769 0.959 . S
H754 C769 0.959 . S
H755 C769 0.961 . S
H756 C770 0.960 . S
H757 C770 0.961 . S
H758 C770 0.959 . S
H759 C773 0.929 . S
H760 C774 0.931 . S
H761 C776 0.930 . S
C762 H750 0.930 . S
C762 C763 1.399 . S
C762 C767 1.399 . S
C763 C762 1.399 . S
C763 C764 1.376 . S
C764 H751 0.930 . S
C764 C763 1.376 . S
C764 C765 1.388 . S
C765 H752 0.930 . S
C765 C764 1.388 . S
C765 C766 1.390 . S
C766 C765 1.390 . S
C766 C767 1.394 . S
C766 C772 1.465 . S
C767 C762 1.399 . S
C767 C766 1.394 . S
C767 C768 1.516 . S
C768 C767 1.516 . S
C768 C769 1.502 . S
C768 C770 1.561 . S
C768 C771 1.526 . S
C769 H753 0.959 . S
C769 H754 0.959 . S
C769 H755 0.961 . S
C769 C768 1.502 . S
C770 H756 0.960 . S
C770 H757 0.961 . S
C770 H758 0.959 . S
C770 C768 1.561 . S
C771 C768 1.526 . S
C771 C772 1.396 . S
C771 C776 1.390 . S
C772 C766 1.465 . S
C772 C771 1.396 . S
C772 C773 1.399 . S
C773 H759 0.929 . S
C773 C772 1.399 . S
C773 C774 1.385 . S
C774 H760 0.931 . S
C774 C773 1.385 . S
C774 C775 1.389 . S
C775 C774 1.389 . S
C775 C776 1.387 . S
C776 H761 0.930 . S
C776 C771 1.390 . S
C776 C775 1.387 . S
H777 C789 0.930 . S
H778 C791 0.930 . S
H779 C792 0.930 . S
H780 C796 0.959 . S
H781 C796 0.959 . S
H782 C796 0.961 . S
H783 C797 0.960 . S
H784 C797 0.961 . S
H785 C797 0.959 . S
H786 C800 0.929 . S
H787 C801 0.931 . S
H788 C803 0.930 . S
C789 H777 0.930 . S
C789 C790 1.399 . S
C789 C794 1.399 . S
C790 C789 1.399 . S
C790 C791 1.376 . S
C791 H778 0.930 . S
C791 C790 1.376 . S
C791 C792 1.388 . S
C792 H779 0.930 . S
C792 C791 1.388 . S
C792 C793 1.390 . S
C793 C792 1.390 . S
C793 C794 1.394 . S
C793 C799 1.465 . S
C794 C789 1.399 . S
C794 C793 1.394 . S
C794 C795 1.516 . S
C795 C794 1.516 . S
C795 C796 1.502 . S
C795 C797 1.561 . S
C795 C798 1.526 . S
C796 H780 0.959 . S
C796 H781 0.959 . S
C796 H782 0.961 . S
C796 C795 1.502 . S
C797 H783 0.960 . S
C797 H784 0.961 . S
C797 H785 0.959 . S
C797 C795 1.561 . S
C798 C795 1.526 . S
C798 C799 1.396 . S
C798 C803 1.390 . S
C799 C793 1.465 . S
C799 C798 1.396 . S
C799 C800 1.399 . S
C800 H786 0.929 . S
C800 C799 1.399 . S
C800 C801 1.385 . S
C801 H787 0.931 . S
C801 C800 1.385 . S
C801 C802 1.389 . S
C802 C801 1.389 . S
C802 C803 1.387 . S
C803 H788 0.930 . S
C803 C798 1.390 . S
C803 C802 1.387 . S
C277 N212 0.842 . S
C289 N5 0.824 . S
C304 N245 0.839 . S
C316 N38 0.829 . S
C331 N146 0.811 . S
C343 N71 0.764 . S
C358 N179 0.733 . S
C370 N104 0.755 . S
C385 N80 0.762 . S
C397 N137 0.742 . S
C412 N113 0.841 . S
C424 N170 0.810 . S
C439 N14 0.757 . S
C451 N203 0.741 . S
C466 N236 0.825 . S
C478 N47 0.785 . S
C493 C74 2.528 . S
C505 C8 2.530 . S
C520 C41 2.525 . S
C532 C107 2.529 . S
C547 C206 2.529 . S
C559 C140 2.530 1_556 S
C574 C173 2.526 . S
C586 C239 2.525 . S
C601 C28 1.954 . S
C613 C259 1.943 . S
C628 C160 1.946 . S
C640 C61 1.961 . S
C655 C193 1.944 . S
C667 C94 1.946 . S
C682 C226 1.952 . S
C694 C127 1.965 . S
C709 C83 1.071 . S
C721 C182 1.096 . S
C736 C116 1.123 . S
C748 C215 1.087 . S
C763 C248 1.110 . S
C775 C17 1.077 . S
C790 C149 1.138 . S
C802 C50 1.136 . S
