# Generated by pormake.
# Topology ukh, (4)-cn, num edge types: 1
# Building blocks:
#     Node 0, Type 0, BuildingBlock: GALJAG_clean_sbu_0, # of connection points: 4
#     Node 1, Type 0, BuildingBlock: GALJAG_clean_sbu_0, # of connection points: 4
#     Node 2, Type 0, BuildingBlock: GALJAG_clean_sbu_0, # of connection points: 4
#     Node 3, Type 0, BuildingBlock: GALJAG_clean_sbu_0, # of connection points: 4
#     Node 4, Type 0, BuildingBlock: GALJAG_clean_sbu_0, # of connection points: 4
#     Node 5, Type 0, BuildingBlock: GALJAG_clean_sbu_0, # of connection points: 4
#     Node 6, Type 0, BuildingBlock: GALJAG_clean_sbu_0, # of connection points: 4
#     Node 7, Type 0, BuildingBlock: GALJAG_clean_sbu_0, # of connection points: 4
#     Node 8, Type 0, BuildingBlock: GALJAG_clean_sbu_0, # of connection points: 4
#     Node 9, Type 0, BuildingBlock: GALJAG_clean_sbu_0, # of connection points: 4
#     Node 10, Type 0, BuildingBlock: GALJAG_clean_sbu_0, # of connection points: 4
#     Node 11, Type 0, BuildingBlock: GALJAG_clean_sbu_0, # of connection points: 4
#     Edge 12, Type (0, 0), BuildingBlock: ZUJKAS_clean_linker_0, # of connection points: 2
#     Edge 13, Type (0, 0), BuildingBlock: ZUJKAS_clean_linker_0, # of connection points: 2
#     Edge 14, Type (0, 0), BuildingBlock: ZUJKAS_clean_linker_0, # of connection points: 2
#     Edge 15, Type (0, 0), BuildingBlock: ZUJKAS_clean_linker_0, # of connection points: 2
#     Edge 16, Type (0, 0), BuildingBlock: ZUJKAS_clean_linker_0, # of connection points: 2
#     Edge 17, Type (0, 0), BuildingBlock: ZUJKAS_clean_linker_0, # of connection points: 2
#     Edge 18, Type (0, 0), BuildingBlock: ZUJKAS_clean_linker_0, # of connection points: 2
#     Edge 19, Type (0, 0), BuildingBlock: ZUJKAS_clean_linker_0, # of connection points: 2
#     Edge 20, Type (0, 0), BuildingBlock: ZUJKAS_clean_linker_0, # of connection points: 2
#     Edge 21, Type (0, 0), BuildingBlock: ZUJKAS_clean_linker_0, # of connection points: 2
#     Edge 22, Type (0, 0), BuildingBlock: ZUJKAS_clean_linker_0, # of connection points: 2
#     Edge 23, Type (0, 0), BuildingBlock: ZUJKAS_clean_linker_0, # of connection points: 2
#     Edge 24, Type (0, 0), BuildingBlock: ZUJKAS_clean_linker_0, # of connection points: 2
#     Edge 25, Type (0, 0), BuildingBlock: ZUJKAS_clean_linker_0, # of connection points: 2
#     Edge 26, Type (0, 0), BuildingBlock: ZUJKAS_clean_linker_0, # of connection points: 2
#     Edge 27, Type (0, 0), BuildingBlock: ZUJKAS_clean_linker_0, # of connection points: 2
#     Edge 28, Type (0, 0), BuildingBlock: ZUJKAS_clean_linker_0, # of connection points: 2
#     Edge 29, Type (0, 0), BuildingBlock: ZUJKAS_clean_linker_0, # of connection points: 2
#     Edge 30, Type (0, 0), BuildingBlock: ZUJKAS_clean_linker_0, # of connection points: 2
#     Edge 31, Type (0, 0), BuildingBlock: ZUJKAS_clean_linker_0, # of connection points: 2
#     Edge 32, Type (0, 0), BuildingBlock: ZUJKAS_clean_linker_0, # of connection points: 2
#     Edge 33, Type (0, 0), BuildingBlock: ZUJKAS_clean_linker_0, # of connection points: 2
#     Edge 34, Type (0, 0), BuildingBlock: ZUJKAS_clean_linker_0, # of connection points: 2
#     Edge 35, Type (0, 0), BuildingBlock: ZUJKAS_clean_linker_0, # of connection points: 2
# Relax obj value: 0.072
# Max RMSD: 0.081
# Mean RMSD: 0.081
data_MOF--net-ukh--node1-GALJAG_clean_sbu_0--edge1-ZUJKAS_clean_linker_0
_symmetry_space_group_name_H-M    P1
_symmetry_Int_Tables_number       1
_symmetry_cell_setting            triclinic
loop_
_symmetry_equiv_pos_as_xyz
'x, y, z'
_cell_length_a     40.659024
_cell_length_b     40.641955
_cell_length_c     87.696881
_cell_angle_alpha  89.998609
_cell_angle_beta   90.002887
_cell_angle_gamma 119.98988
loop_
_atom_site_label
_atom_site_type_symbol
_atom_site_fract_x
_atom_site_fract_y
_atom_site_fract_z
_atom_type_partial_charge
In0 In 0.31773 0.22168 0.05832 0.0
O1 O 0.3753 0.27192 0.05096 0.0
O2 O 0.3374 0.28332 0.06355 0.0
C3 C 0.31571 0.1607 0.0451 0.0
C4 C 0.31875 0.20526 0.08807 0.0
C5 C 0.26137 0.22286 0.04265 0.0
O6 O 0.34443 0.19361 0.04394 0.0
O7 O 0.28904 0.15895 0.05303 0.0
O8 O 0.26073 0.2197 0.057 0.0
O9 O 0.29043 0.22552 0.03628 0.0
C10 C 0.36898 0.29661 0.05688 0.0
O11 O 0.28921 0.2007 0.08144 0.0
O12 O 0.34786 0.21826 0.07971 0.0
In13 In 0.09982 0.32612 0.38906 0.0
O14 O 0.08942 0.29604 0.41195 0.0
O15 O 0.12853 0.35556 0.41124 0.0
C16 C 0.04505 0.26553 0.37406 0.0
C17 C 0.07539 0.3769 0.38789 0.0
C18 C 0.16201 0.33036 0.37579 0.0
O19 O 0.0502 0.26496 0.38824 0.0
O20 O 0.06759 0.29639 0.36755 0.0
O21 O 0.14492 0.34618 0.37009 0.0
O22 O 0.14848 0.31369 0.38825 0.0
C23 C 0.11229 0.32566 0.41919 0.0
O24 O 0.10978 0.38655 0.38568 0.0
O25 O 0.05391 0.34213 0.39072 0.0
In26 In 0.7757 0.09694 0.72513 0.0
O27 O 0.72692 0.10407 0.71565 0.0
O28 O 0.71479 0.06416 0.73345 0.0
C29 C 0.83768 0.15349 0.71156 0.0
C30 C 0.79319 0.1173 0.7545 0.0
C31 C 0.77355 0.03739 0.7105 0.0
O32 O 0.80497 0.14925 0.70955 0.0
O33 O 0.8388 0.12971 0.72047 0.0
O34 O 0.78227 0.04414 0.72442 0.0
O35 O 0.76553 0.06026 0.70413 0.0
C36 C 0.70224 0.07927 0.72436 0.0
O37 O 0.78533 0.08497 0.74957 0.0
O38 O 0.79196 0.13931 0.74463 0.0
In39 In 0.68152 0.77419 0.05759 0.0
O40 O 0.70751 0.78939 0.08137 0.0
O41 O 0.65263 0.78271 0.07829 0.0
C42 C 0.73802 0.77333 0.04192 0.0
C43 C 0.62917 0.6995 0.05647 0.0
C44 C 0.68548 0.83592 0.04425 0.0
O45 O 0.73997 0.77945 0.05611 0.0
O46 O 0.70753 0.76743 0.03572 0.0
O47 O 0.65654 0.80325 0.04283 0.0
O48 O 0.71144 0.8371 0.0525 0.0
C49 C 0.67963 0.79013 0.08733 0.0
O50 O 0.62355 0.7244 0.0503 0.0
O51 O 0.66064 0.71245 0.06319 0.0
In52 In 0.90258 0.68278 0.39218 0.0
O53 O 0.91415 0.70933 0.41588 0.0
O54 O 0.86672 0.65377 0.41323 0.0
C55 C 0.95954 0.74007 0.37661 0.0
C56 C 0.92631 0.63158 0.39172 0.0
C57 C 0.84373 0.68316 0.37797 0.0
O58 O 0.94967 0.74457 0.38974 0.0
O59 O 0.94082 0.70676 0.37139 0.0
O60 O 0.85046 0.65621 0.37622 0.0
O61 O 0.86605 0.70882 0.38694 0.0
C62 C 0.88625 0.68122 0.42209 0.0
O63 O 0.89452 0.62425 0.38627 0.0
O64 O 0.94548 0.66426 0.39748 0.0
In65 In 0.22312 0.90369 0.72325 0.0
O66 O 0.27428 0.89759 0.71635 0.0
O67 O 0.28443 0.94691 0.72863 0.0
C68 C 0.16454 0.8411 0.71068 0.0
C69 C 0.20962 0.88776 0.75315 0.0
C70 C 0.21794 0.95844 0.70778 0.0
O71 O 0.19817 0.8548 0.70588 0.0
O72 O 0.16088 0.85837 0.72189 0.0
O73 O 0.21386 0.95484 0.72205 0.0
O74 O 0.22457 0.93457 0.70142 0.0
C75 C 0.29838 0.92886 0.72225 0.0
O76 O 0.20361 0.91188 0.74652 0.0
O77 O 0.22256 0.8717 0.74467 0.0
In78 In 0.77559 0.67943 0.60985 0.0
O79 O 0.79803 0.70949 0.58706 0.0
O80 O 0.77408 0.64949 0.58767 0.0
C81 C 0.78019 0.73893 0.62532 0.0
C82 C 0.70046 0.62903 0.6115 0.0
C83 C 0.83313 0.67494 0.6232 0.0
O84 O 0.78025 0.73784 0.61092 0.0
O85 O 0.77804 0.71024 0.63181 0.0
O86 O 0.79903 0.6545 0.62739 0.0
O87 O 0.83779 0.69656 0.6121 0.0
C88 C 0.78967 0.67949 0.57979 0.0
O89 O 0.72518 0.61944 0.6139 0.0
O90 O 0.71372 0.6636 0.60828 0.0
In91 In 0.09906 0.77881 0.94095 0.0
O92 O 0.10695 0.72842 0.94746 0.0
O93 O 0.05482 0.71703 0.93726 0.0
C94 C 0.15853 0.83926 0.95419 0.0
C95 C 0.11588 0.79344 0.91105 0.0
C96 C 0.04244 0.77952 0.95657 0.0
O97 O 0.15231 0.8058 0.95618 0.0
O98 O 0.13541 0.84184 0.9454 0.0
O99 O 0.04488 0.78238 0.94222 0.0
O100 O 0.06856 0.77641 0.96297 0.0
C101 C 0.07427 0.70372 0.94288 0.0
O102 O 0.0913 0.79876 0.91761 0.0
O103 O 0.13186 0.78055 0.91956 0.0
In104 In 0.3214 0.09691 0.27578 0.0
O105 O 0.38093 0.10599 0.28032 0.0
O106 O 0.33913 0.05327 0.27082 0.0
C107 C 0.32566 0.15788 0.29021 0.0
C108 C 0.32203 0.11087 0.24573 0.0
C109 C 0.26214 0.04061 0.2909 0.0
O110 O 0.34431 0.14246 0.29464 0.0
O111 O 0.30599 0.1432 0.27845 0.0
O112 O 0.2581 0.05335 0.27834 0.0
O113 O 0.29578 0.05627 0.29576 0.0
C114 C 0.37275 0.07336 0.27557 0.0
O115 O 0.29334 0.0846 0.25238 0.0
O116 O 0.35045 0.12992 0.25422 0.0
In117 In 0.22331 0.31886 0.60626 0.0
O118 O 0.20354 0.29005 0.5831 0.0
O119 O 0.22407 0.34947 0.58439 0.0
C120 C 0.21785 0.25912 0.62184 0.0
C121 C 0.29817 0.3697 0.60869 0.0
C122 C 0.16418 0.32142 0.619 0.0
O123 O 0.21862 0.2604 0.60744 0.0
O124 O 0.2198 0.2878 0.62825 0.0
O125 O 0.19791 0.34247 0.62351 0.0
O126 O 0.16073 0.30025 0.60789 0.0
C127 C 0.21036 0.32005 0.57616 0.0
O128 O 0.27303 0.3786 0.61127 0.0
O129 O 0.28547 0.33558 0.60484 0.0
In130 In 0.90375 0.22592 0.94237 0.0
O131 O 0.91973 0.21954 0.91803 0.0
O132 O 0.86566 0.21436 0.92163 0.0
C133 C 0.95925 0.22315 0.95798 0.0
C134 C 0.92604 0.30046 0.94489 0.0
C135 C 0.84611 0.16385 0.95551 0.0
O136 O 0.95459 0.21675 0.9438 0.0
O137 O 0.93589 0.23084 0.9642 0.0
O138 O 0.85106 0.19677 0.9578 0.0
O139 O 0.8696 0.16259 0.94648 0.0
C140 C 0.88891 0.21384 0.91225 0.0
O141 O 0.89248 0.27486 0.94799 0.0
O142 O 0.9475 0.2883 0.94051 0.0
In143 In 0.68393 0.90659 0.27452 0.0
O144 O 0.70909 0.91791 0.25057 0.0
O145 O 0.65538 0.86832 0.25403 0.0
C146 C 0.74058 0.96406 0.29014 0.0
C147 C 0.63189 0.9293 0.27523 0.0
C148 C 0.68684 0.84834 0.28795 0.0
O149 O 0.74395 0.95738 0.27633 0.0
O150 O 0.70861 0.94195 0.29598 0.0
O151 O 0.65751 0.85158 0.28874 0.0
O152 O 0.71376 0.87396 0.28035 0.0
C153 C 0.68167 0.88852 0.24481 0.0
O154 O 0.6271 0.90019 0.28238 0.0
O155 O 0.66241 0.94627 0.26776 0.0
H156 H 0.55865 0.66336 0.04314 0.0
H157 H 0.51341 0.59472 0.04258 0.0
H158 H 0.59285 0.57431 0.06756 0.0
H159 H 0.63775 0.64246 0.06834 0.0
H160 H 0.52208 0.53478 0.0307 0.0
H161 H 0.49568 0.5194 0.09305 0.0
H162 H 0.51838 0.56498 0.08362 0.0
H163 H 0.54504 0.5418 0.08805 0.0
C164 C 0.56635 0.64419 0.04854 0.0
C165 C 0.60159 0.65829 0.05589 0.0
C166 C 0.54057 0.60505 0.04819 0.0
C167 C 0.54958 0.57952 0.05523 0.0
C168 C 0.58501 0.59356 0.06232 0.0
H169 H 0.44028 0.33348 0.04424 0.0
H170 H 0.48422 0.40231 0.04323 0.0
C171 C 0.61069 0.63253 0.0627 0.0
C172 C 0.52215 0.53813 0.0552 0.0
H173 H 0.47237 0.46228 0.0788 0.0
C174 C 0.51102 0.51889 0.04119 0.0
C175 C 0.50752 0.51759 0.06891 0.0
C176 C 0.51694 0.537 0.08426 0.0
C177 C 0.4861 0.47944 0.04056 0.0
C178 C 0.47248 0.45873 0.05431 0.0
C179 C 0.48318 0.47814 0.06828 0.0
C180 C 0.44602 0.41709 0.05453 0.0
C181 C 0.47408 0.46041 0.02519 0.0
C182 C 0.41038 0.40257 0.0615 0.0
C183 C 0.38553 0.36345 0.06222 0.0
C184 C 0.39581 0.33796 0.05602 0.0
C185 C 0.43155 0.35246 0.04906 0.0
C186 C 0.45653 0.39174 0.04838 0.0
H187 H 0.47919 0.4812 0.01597 0.0
H188 H 0.49075 0.44631 0.02251 0.0
H189 H 0.44351 0.43842 0.02519 0.0
H190 H 0.40174 0.42158 0.06637 0.0
H191 H 0.35819 0.3532 0.06766 0.0
H192 H 0.00166 0.35955 0.38681 0.0
H193 H 0.97689 0.40325 0.38636 0.0
H194 H 0.09119 0.4985 0.38801 0.0
H195 H 0.11624 0.45472 0.3879 0.0
H196 H 0.98249 0.45293 0.40715 0.0
H197 H 0.04842 0.53031 0.35356 0.0
H198 H 0.0483 0.48738 0.35888 0.0
H199 H 0.08254 0.53229 0.36704 0.0
C200 C 0.02156 0.38983 0.38694 0.0
C201 C 0.06091 0.40376 0.38732 0.0
C202 C 0.00735 0.41477 0.3867 0.0
C203 C 0.03213 0.4542 0.38692 0.0
C204 C 0.07151 0.46823 0.38741 0.0
H205 H 0.99688 0.64535 0.39951 0.0
H206 H 0.02163 0.60155 0.39817 0.0
C207 C 0.0858 0.44322 0.38746 0.0
C208 C 0.01644 0.4803 0.38727 0.0
H209 H 0.01872 0.55595 0.36921 0.0
C210 C 0.99024 0.47526 0.39878 0.0
C211 C 0.02645 0.50941 0.37632 0.0
C212 C 0.05267 0.51499 0.36316 0.0
C213 C 0.97426 0.49883 0.39975 0.0
C214 C 0.98475 0.52819 0.38897 0.0
C215 C 0.01086 0.53335 0.37746 0.0
C216 C 0.96942 0.55435 0.38967 0.0
C217 C 0.94667 0.4927 0.41242 0.0
C218 C 0.93188 0.54219 0.38525 0.0
C219 C 0.91766 0.56722 0.38592 0.0
C220 C 0.94076 0.60467 0.3911 0.0
C221 C 0.97833 0.61662 0.39553 0.0
C222 C 0.99257 0.59172 0.39474 0.0
H223 H 0.94489 0.47159 0.42092 0.0
H224 H 0.95516 0.51995 0.41835 0.0
H225 H 0.91798 0.48236 0.40752 0.0
H226 H 0.9137 0.51342 0.38124 0.0
H227 H 0.88864 0.55726 0.38241 0.0
H228 H 0.33733 0.9046 0.70438 0.0
H229 H 0.40628 0.9311 0.70322 0.0
H230 H 0.42134 0.01237 0.7381 0.0
H231 H 0.35282 0.98706 0.73885 0.0
H232 H 0.47125 0.04591 0.71596 0.0
H233 H 0.47147 0.91454 0.73289 0.0
H234 H 0.44386 0.9087 0.71611 0.0
H235 H 0.42952 0.91886 0.73409 0.0
C236 C 0.35541 0.92801 0.71183 0.0
C237 C 0.33975 0.94367 0.72175 0.0
C238 C 0.39477 0.943 0.71122 0.0
C239 C 0.41901 0.97334 0.72076 0.0
C240 C 0.40326 0.98896 0.73064 0.0
H241 H 0.6486 0.03955 0.74576 0.0
H242 H 0.58047 0.01606 0.74428 0.0
C243 C 0.36408 0.97439 0.73109 0.0
C244 C 0.46081 0.98936 0.72042 0.0
H245 H 0.53037 0.96657 0.72516 0.0
C246 C 0.48421 0.02857 0.71799 0.0
C247 C 0.47771 0.9668 0.72324 0.0
C248 C 0.45439 0.92498 0.72688 0.0
C249 C 0.52397 0.04592 0.71843 0.0
C250 C 0.54085 0.02322 0.7209 0.0
C251 C 0.51743 0.98394 0.72317 0.0
C252 C 0.58264 0.0396 0.72191 0.0
C253 C 0.54734 0.08854 0.7168 0.0
C254 C 0.60673 0.06098 0.70987 0.0
C255 C 0.64592 0.07509 0.71083 0.0
C256 C 0.66149 0.06729 0.72369 0.0
C257 C 0.63738 0.04598 0.73571 0.0
C258 C 0.59841 0.03244 0.73485 0.0
H259 H 0.53038 0.10244 0.71937 0.0
H260 H 0.57241 0.10062 0.72447 0.0
H261 H 0.55755 0.09569 0.70487 0.0
H262 H 0.59517 0.0661 0.69961 0.0
H263 H 0.66383 0.09107 0.70133 0.0
H264 H 0.66383 0.55147 0.61398 0.0
H265 H 0.59503 0.50742 0.614 0.0
H266 H 0.57544 0.60221 0.61108 0.0
H267 H 0.64383 0.64611 0.61064 0.0
H268 H 0.53926 0.50006 0.6335 0.0
H269 H 0.51302 0.53754 0.57574 0.0
H270 H 0.56013 0.55228 0.5827 0.0
H271 H 0.53645 0.5779 0.58813 0.0
C272 C 0.64479 0.56283 0.61331 0.0
C273 C 0.65916 0.60217 0.61215 0.0
C274 C 0.60555 0.53769 0.61334 0.0
C275 C 0.58012 0.5515 0.61221 0.0
C276 C 0.59449 0.59084 0.61152 0.0
H277 H 0.33369 0.44658 0.6133 0.0
H278 H 0.40234 0.49108 0.6149 0.0
C279 C 0.63361 0.61591 0.61136 0.0
C280 C 0.53854 0.5249 0.61189 0.0
H281 H 0.45845 0.4993 0.59093 0.0
C282 C 0.52162 0.49975 0.62415 0.0
C283 C 0.51556 0.5245 0.59967 0.0
C284 C 0.53223 0.54923 0.58574 0.0
C285 C 0.48226 0.47465 0.62463 0.0
C286 C 0.45936 0.47465 0.61251 0.0
C287 C 0.47617 0.49972 0.60026 0.0
C288 C 0.418 0.44781 0.61205 0.0
C289 C 0.46528 0.44856 0.63816 0.0
C290 C 0.40433 0.40897 0.6098 0.0
C291 C 0.36535 0.38365 0.60876 0.0
C292 C 0.33933 0.39675 0.61001 0.0
C293 C 0.35308 0.4357 0.61235 0.0
C294 C 0.39219 0.46109 0.61325 0.0
H295 H 0.48547 0.4572 0.64787 0.0
H296 H 0.43901 0.44804 0.64202 0.0
H297 H 0.4575 0.41924 0.63477 0.0
H298 H 0.42387 0.3983 0.60865 0.0
H299 H 0.35561 0.35381 0.60695 0.0
H300 H 0.99928 0.35755 0.94465 0.0
H301 H 0.02323 0.42573 0.94596 0.0
H302 H 0.90841 0.40494 0.94869 0.0
H303 H 0.88423 0.33621 0.94792 0.0
H304 H 0.01263 0.46898 0.92633 0.0
H305 H 0.95749 0.47988 0.98284 0.0
H306 H 0.95707 0.43734 0.97664 0.0
H307 H 0.92113 0.44752 0.97011 0.0
C308 C 0.97909 0.36744 0.94567 0.0
C309 C 0.93986 0.34157 0.94621 0.0
C310 C 0.99284 0.40645 0.94642 0.0
C311 C 0.96772 0.42054 0.94761 0.0
C312 C 0.92843 0.39476 0.94815 0.0
H313 H 0.00213 0.64716 0.93722 0.0
H314 H 0.97686 0.57858 0.93887 0.0
C315 C 0.91461 0.35552 0.94761 0.0
C316 C 0.98296 0.46224 0.9475 0.0
H317 H 0.98479 0.53552 0.96737 0.0
C318 C 0.0067 0.48349 0.93537 0.0
C319 C 0.97528 0.48124 0.95931 0.0
C320 C 0.95166 0.46041 0.97304 0.0
C321 C 0.02265 0.52305 0.93465 0.0
C322 C 0.01462 0.54185 0.94634 0.0
C323 C 0.99083 0.52082 0.95844 0.0
C324 C 0.03001 0.58334 0.9459 0.0
C325 C 0.04761 0.54461 0.92132 0.0
C326 C 0.06824 0.60859 0.94943 0.0
C327 C 0.08279 0.64787 0.94858 0.0
C328 C 0.05931 0.66236 0.94408 0.0
C329 C 0.02097 0.63687 0.94065 0.0
C330 C 0.00642 0.59771 0.94163 0.0
H331 H 0.04786 0.52537 0.91238 0.0
H332 H 0.0378 0.56317 0.91616 0.0
H333 H 0.07714 0.56318 0.92538 0.0
H334 H 0.08678 0.59786 0.95278 0.0
H335 H 0.1124 0.66684 0.9513 0.0
H336 H 0.44756 0.11129 0.28421 0.0
H337 H 0.49187 0.08682 0.28434 0.0
H338 H 0.40297 0.97862 0.26787 0.0
H339 H 0.35889 0.00294 0.26747 0.0
H340 H 0.4875 0.02478 0.3 0.0
H341 H 0.48858 0.00532 0.23742 0.0
H342 H 0.46987 0.03292 0.24602 0.0
H343 H 0.44188 0.98192 0.24563 0.0
C344 C 0.43757 0.08236 0.28055 0.0
C345 C 0.39986 0.05914 0.27571 0.0
C346 C 0.46284 0.0684 0.28066 0.0
C347 C 0.45084 0.03109 0.27589 0.0
C348 C 0.41305 0.00774 0.27128 0.0
H349 H 0.56475 0.89974 0.29101 0.0
H350 H 0.52038 0.92414 0.29164 0.0
C351 C 0.38786 0.02166 0.27112 0.0
C352 C 0.47762 0.01634 0.27583 0.0
H353 H 0.51769 0.97857 0.25261 0.0
C354 C 0.49424 0.01478 0.28965 0.0
C355 C 0.4866 0.00363 0.26227 0.0
C356 C 0.47111 0.00631 0.24696 0.0
C357 C 0.51923 0.00036 0.2903 0.0
C358 C 0.52733 0.98667 0.2768 0.0
C359 C 0.51108 0.98868 0.26297 0.0
C360 C 0.55388 0.97163 0.27662 0.0
C361 C 0.53733 0.00059 0.30534 0.0
C362 C 0.58691 0.98973 0.26772 0.0
C363 C 0.61205 0.97577 0.26728 0.0
C364 C 0.60458 0.94327 0.27567 0.0
C365 C 0.57129 0.9249 0.28448 0.0
C366 C 0.54608 0.93894 0.28492 0.0
H367 H 0.53518 0.01993 0.31372 0.0
H368 H 0.52268 0.97148 0.3102 0.0
H369 H 0.56776 0.00943 0.3038 0.0
H370 H 0.59338 0.01488 0.26118 0.0
H371 H 0.63742 0.99056 0.26036 0.0
H372 H 0.26183 0.0804 0.22611 0.0
H373 H 0.26171 0.09599 0.19911 0.0
H374 H 0.38187 0.17573 0.20136 0.0
H375 H 0.38226 0.16059 0.22839 0.0
H376 H 0.29197 0.17709 0.18725 0.0
H377 H 0.36252 0.10068 0.16378 0.0
H378 H 0.33721 0.08766 0.18171 0.0
H379 H 0.38308 0.12957 0.18049 0.0
C380 C 0.28826 0.10111 0.22083 0.0
C381 C 0.32207 0.11928 0.22934 0.0
C382 C 0.28811 0.11 0.20544 0.0
C383 C 0.32182 0.13677 0.19829 0.0
C384 C 0.35567 0.15474 0.20669 0.0
H385 H 0.3803 0.22108 0.10567 0.0
H386 H 0.38076 0.20545 0.1326 0.0
C387 C 0.3558 0.14613 0.22212 0.0
C388 C 0.32142 0.14679 0.18213 0.0
H389 H 0.34962 0.13736 0.14655 0.0
C390 C 0.30444 0.16837 0.1783 0.0
C391 C 0.33802 0.13555 0.17061 0.0
C392 C 0.35612 0.11189 0.17423 0.0
C393 C 0.30407 0.17956 0.16319 0.0
C394 C 0.32019 0.16786 0.15157 0.0
C395 C 0.33722 0.14626 0.15545 0.0
C396 C 0.31974 0.17771 0.13531 0.0
C397 C 0.28733 0.20464 0.15992 0.0
C398 C 0.28527 0.16696 0.12784 0.0
C399 C 0.28498 0.17622 0.11252 0.0
C400 C 0.31912 0.19583 0.10431 0.0
C401 C 0.35356 0.20602 0.11172 0.0
C402 C 0.35385 0.19707 0.12709 0.0
H403 H 0.28686 0.22012 0.17028 0.0
H404 H 0.30355 0.22573 0.15088 0.0
H405 H 0.2576 0.18677 0.15597 0.0
H406 H 0.25853 0.15109 0.13383 0.0
H407 H 0.25798 0.16766 0.10706 0.0
H408 H 0.08742 0.26381 0.43776 0.0
H409 H 0.1036 0.2629 0.46462 0.0
H410 H 0.17237 0.38506 0.46436 0.0
H411 H 0.15643 0.38626 0.4375 0.0
H412 H 0.1813 0.29558 0.47669 0.0
H413 H 0.09986 0.35856 0.50204 0.0
H414 H 0.08943 0.33691 0.48336 0.0
H415 H 0.12966 0.38351 0.48605 0.0
C416 C 0.10575 0.29049 0.44346 0.0
C417 C 0.12061 0.32512 0.43556 0.0
C418 C 0.11501 0.2899 0.45877 0.0
C419 C 0.13888 0.32392 0.46646 0.0
C420 C 0.15351 0.35855 0.45865 0.0
H421 H 0.22666 0.38169 0.55855 0.0
H422 H 0.21057 0.38222 0.53169 0.0
C423 C 0.14448 0.35916 0.44331 0.0
C424 C 0.14954 0.32314 0.48252 0.0
H425 H 0.14042 0.3492 0.51855 0.0
C426 C 0.17229 0.30713 0.48588 0.0
C427 C 0.13785 0.33846 0.4944 0.0
C428 C 0.11261 0.35512 0.49138 0.0
C429 C 0.18427 0.30662 0.50085 0.0
C430 C 0.17236 0.32171 0.51278 0.0
C431 C 0.14954 0.33767 0.50939 0.0
C432 C 0.18318 0.32123 0.5289 0.0
C433 C 0.21036 0.29084 0.50365 0.0
C434 C 0.17298 0.28675 0.53626 0.0
C435 C 0.18239 0.2864 0.55156 0.0
C436 C 0.20174 0.3205 0.55983 0.0
C437 C 0.21181 0.35497 0.55246 0.0
C438 C 0.20259 0.35531 0.53713 0.0
H439 H 0.2253 0.29067 0.49307 0.0
H440 H 0.2319 0.30754 0.51248 0.0
H441 H 0.19337 0.26108 0.50771 0.0
H442 H 0.15721 0.26004 0.53023 0.0
H443 H 0.17397 0.25937 0.55698 0.0
H444 H 0.82785 0.18898 0.76628 0.0
H445 H 0.84716 0.20796 0.79275 0.0
H446 H 0.79973 0.09024 0.80544 0.0
H447 H 0.78196 0.07131 0.77889 0.0
H448 H 0.80842 0.19456 0.81797 0.0
H449 H 0.90252 0.1335 0.82398 0.0
H450 H 0.88374 0.13691 0.8058 0.0
H451 H 0.85545 0.09805 0.81853 0.0
C452 C 0.82173 0.1672 0.77473 0.0
C453 C 0.80371 0.12871 0.77054 0.0
C454 C 0.83276 0.17806 0.78984 0.0
C455 C 0.82567 0.15061 0.80105 0.0
C456 C 0.80666 0.11204 0.79693 0.0
H457 H 0.81986 0.18395 0.89841 0.0
H458 H 0.8055 0.1701 0.87133 0.0
C459 C 0.79622 0.10122 0.78178 0.0
C460 C 0.83725 0.16226 0.81711 0.0
H461 H 0.88436 0.15129 0.84713 0.0
C462 C 0.82531 0.18536 0.82431 0.0
C463 C 0.85996 0.15094 0.82531 0.0
C464 C 0.8765 0.12885 0.81795 0.0
C465 C 0.83464 0.19669 0.83956 0.0
C466 C 0.85533 0.1834 0.84803 0.0
C467 C 0.86805 0.16106 0.84072 0.0
C468 C 0.86402 0.19212 0.86448 0.0
C469 C 0.82279 0.22337 0.84629 0.0
C470 C 0.90151 0.2078 0.86978 0.0
C471 C 0.90963 0.21483 0.88532 0.0
C472 C 0.88045 0.20663 0.89583 0.0
C473 C 0.84297 0.19098 0.89054 0.0
C474 C 0.83478 0.18334 0.87503 0.0
H475 H 0.81913 0.24054 0.8373 0.0
H476 H 0.79507 0.20655 0.85215 0.0
H477 H 0.84393 0.24302 0.85469 0.0
H478 H 0.92453 0.21462 0.86188 0.0
H479 H 0.93878 0.2269 0.8891 0.0
H480 H 0.73378 0.80563 0.10894 0.0
H481 H 0.73264 0.82145 0.13579 0.0
H482 H 0.62276 0.8112 0.12928 0.0
H483 H 0.62379 0.79563 0.10237 0.0
H484 H 0.67555 0.87765 0.145 0.0
H485 H 0.66683 0.74781 0.16984 0.0
H486 H 0.70499 0.77268 0.1565 0.0
H487 H 0.65667 0.75109 0.15003 0.0
C488 C 0.70931 0.8066 0.11324 0.0
C489 C 0.6788 0.79926 0.10358 0.0
C490 C 0.70863 0.81546 0.12859 0.0
C491 C 0.67739 0.81699 0.13454 0.0
C492 C 0.64703 0.80997 0.1249 0.0
H493 H 0.62649 0.82598 0.23015 0.0
H494 H 0.62474 0.80917 0.20323 0.0
C495 C 0.64765 0.80103 0.10955 0.0
C496 C 0.67677 0.82678 0.15076 0.0
H497 H 0.67797 0.79734 0.18711 0.0
C498 C 0.67595 0.86007 0.15422 0.0
C499 C 0.67687 0.80352 0.16273 0.0
C500 C 0.67605 0.76659 0.15965 0.0
C501 C 0.67594 0.87112 0.16939 0.0
C502 C 0.67722 0.84846 0.18135 0.0
C503 C 0.67732 0.8148 0.17789 0.0
C504 C 0.67824 0.85907 0.19757 0.0
C505 C 0.67407 0.90667 0.17248 0.0
C506 C 0.70909 0.8925 0.2033 0.0
C507 C 0.71018 0.90217 0.21866 0.0
C508 C 0.68048 0.87845 0.22855 0.0
C509 C 0.64973 0.84486 0.22279 0.0
C510 C 0.6487 0.8352 0.20744 0.0
H511 H 0.66385 0.91548 0.16238 0.0
H512 H 0.65503 0.90248 0.18227 0.0
H513 H 0.70289 0.93018 0.17538 0.0
H514 H 0.7325 0.91095 0.19593 0.0
H515 H 0.73433 0.92814 0.2228 0.0
H516 H 0.83047 0.74091 0.56137 0.0
H517 H 0.84611 0.74074 0.53438 0.0
H518 H 0.78411 0.61827 0.5343 0.0
H519 H 0.7685 0.61812 0.5613 0.0
H520 H 0.88488 0.69989 0.52175 0.0
H521 H 0.74197 0.65381 0.49729 0.0
H522 H 0.75628 0.67591 0.51582 0.0
H523 H 0.74418 0.62734 0.51333 0.0
C524 C 0.82001 0.71395 0.55558 0.0
C525 C 0.79823 0.67952 0.56342 0.0
C526 C 0.82901 0.71392 0.5402 0.0
C527 C 0.81599 0.67951 0.53239 0.0
C528 C 0.79406 0.6451 0.54014 0.0
H529 H 0.83351 0.62118 0.43871 0.0
H530 H 0.81772 0.62067 0.46569 0.0
C531 C 0.78529 0.64509 0.55555 0.0
C532 C 0.82627 0.67955 0.51622 0.0
H533 H 0.78947 0.65948 0.48025 0.0
C534 C 0.86414 0.69118 0.51263 0.0
C535 C 0.79897 0.66786 0.50447 0.0
C536 C 0.75806 0.65571 0.50781 0.0
C537 C 0.87542 0.69094 0.49753 0.0
C538 C 0.84822 0.67978 0.48568 0.0
C539 C 0.81029 0.66807 0.48933 0.0
C540 C 0.85847 0.6801 0.46943 0.0
C541 C 0.91612 0.7017 0.49448 0.0
C542 C 0.88637 0.71375 0.46253 0.0
C543 C 0.89572 0.714 0.44718 0.0
C544 C 0.87686 0.68075 0.43838 0.0
C545 C 0.84857 0.64721 0.44523 0.0
C546 C 0.8395 0.6469 0.46062 0.0
H547 H 0.92988 0.69822 0.50482 0.0
H548 H 0.91806 0.68427 0.48515 0.0
H549 H 0.93239 0.73201 0.49105 0.0
H550 H 0.90066 0.73995 0.46898 0.0
H551 H 0.91737 0.74036 0.44216 0.0
H552 H 0.09148 0.82896 0.89149 0.0
H553 H 0.10864 0.84447 0.8646 0.0
H554 H 0.17929 0.79333 0.86696 0.0
H555 H 0.1625 0.77789 0.89389 0.0
H556 H 0.18891 0.88933 0.8527 0.0
H557 H 0.10451 0.74275 0.82938 0.0
H558 H 0.09351 0.75638 0.84745 0.0
H559 H 0.13345 0.74918 0.84589 0.0
C560 C 0.11056 0.82089 0.88627 0.0
C561 C 0.12561 0.80216 0.89477 0.0
C562 C 0.12035 0.82982 0.87094 0.0
C563 C 0.14495 0.81976 0.86383 0.0
C564 C 0.15996 0.80097 0.87225 0.0
H565 H 0.22511 0.84118 0.7704 0.0
H566 H 0.21125 0.82593 0.79749 0.0
C567 C 0.15042 0.79229 0.88762 0.0
C568 C 0.15554 0.82966 0.84766 0.0
H569 H 0.14309 0.79127 0.81208 0.0
C570 C 0.17892 0.86798 0.84378 0.0
C571 C 0.14263 0.80161 0.83616 0.0
C572 C 0.11693 0.76013 0.83981 0.0
C573 C 0.19005 0.87906 0.82862 0.0
C574 C 0.17654 0.85107 0.81703 0.0
C575 C 0.15337 0.81267 0.82097 0.0
C576 C 0.18564 0.86104 0.80071 0.0
C577 C 0.21679 0.92052 0.82525 0.0
C578 C 0.1755 0.88552 0.79349 0.0
C579 C 0.18363 0.89448 0.77806 0.0
C580 C 0.20158 0.87869 0.76951 0.0
C581 C 0.21133 0.85384 0.77671 0.0
C582 C 0.2034 0.84508 0.79217 0.0
H583 H 0.23317 0.93605 0.83553 0.0
H584 H 0.23709 0.9241 0.81605 0.0
H585 H 0.2001 0.93384 0.82146 0.0
H586 H 0.1609 0.89739 0.79975 0.0
H587 H 0.17548 0.91346 0.7728 0.0
H588 H 0.17063 0.91116 0.95338 0.0
H589 H 0.21463 0.9652 0.96867 0.0
H590 H 0.25869 0.8981 0.98873 0.0
H591 H 0.21324 0.84294 0.9737 0.0
H592 H 0.2443 0.93326 0.01007 0.0
H593 H 0.32453 0.04017 0.96624 0.0
H594 H 0.27498 0.02125 0.96263 0.0
H595 H 0.29509 0.9905 0.96159 0.0
C596 C 0.19008 0.90795 0.96085 0.0
C597 C 0.18847 0.87276 0.96233 0.0
C598 C 0.21561 0.93912 0.96949 0.0
C599 C 0.24075 0.93616 0.97962 0.0
C600 C 0.23987 0.90123 0.98088 0.0
H601 H 0.36929 0.1544 0.02817 0.0
H602 H 0.36014 0.09863 0.01369 0.0
C603 C 0.21394 0.86975 0.97229 0.0
C604 C 0.26451 0.96844 0.98997 0.0
H605 H 0.31574 0.06531 0.99051 0.0
C606 C 0.26076 0.96206 0.00578 0.0
C607 C 0.2871 0.00605 0.98451 0.0
C608 C 0.29599 0.01474 0.9678 0.0
C609 C 0.27584 0.99242 0.01615 0.0
C610 C 0.29398 0.03016 0.01056 0.0
C611 C 0.30099 0.03646 0.99485 0.0
C612 C 0.30146 0.06287 0.02048 0.0
C613 C 0.27116 0.98359 0.03299 0.0
C614 C 0.27162 0.06145 0.02904 0.0
C615 C 0.27689 0.09291 0.03737 0.0
C616 C 0.31194 0.12693 0.03711 0.0
C617 C 0.34201 0.1285 0.02862 0.0
C618 C 0.3368 0.09668 0.02036 0.0
H619 H 0.2721 0.95723 0.03539 0.0
H620 H 0.29355 0.00716 0.03981 0.0
H621 H 0.24298 0.97863 0.03675 0.0
H622 H 0.2437 0.03633 0.02891 0.0
H623 H 0.25301 0.09086 0.04367 0.0
H624 H 0.17794 0.33831 0.3453 0.0
H625 H 0.21887 0.3198 0.3317 0.0
H626 H 0.25538 0.29699 0.37463 0.0
H627 H 0.21339 0.31393 0.38821 0.0
H628 H 0.29415 0.33999 0.33107 0.0
H629 H 0.20702 0.19423 0.35442 0.0
H630 H 0.19363 0.23008 0.35652 0.0
H631 H 0.2291 0.2301 0.36881 0.0
C632 C 0.19525 0.33002 0.35183 0.0
C633 C 0.19212 0.32699 0.36778 0.0
C634 C 0.21859 0.31942 0.34405 0.0
C635 C 0.23937 0.30599 0.35214 0.0
C636 C 0.23873 0.30616 0.36814 0.0
H637 H 0.35015 0.18223 0.3193 0.0
H638 H 0.33658 0.22437 0.33478 0.0
C639 C 0.21494 0.31609 0.37589 0.0
C640 C 0.25902 0.2889 0.34384 0.0
H641 H 0.2593 0.20558 0.33921 0.0
C642 C 0.2867 0.31067 0.3329 0.0
C643 C 0.24906 0.2505 0.34616 0.0
C644 C 0.21784 0.22472 0.35699 0.0
C645 C 0.30457 0.295 0.3242 0.0
C646 C 0.29438 0.25663 0.32649 0.0
C647 C 0.26736 0.23516 0.33763 0.0
C648 C 0.30851 0.23683 0.31659 0.0
C649 C 0.33402 0.31945 0.31256 0.0
C650 C 0.29768 0.23036 0.30121 0.0
C651 C 0.30507 0.20613 0.29242 0.0
C652 C 0.32348 0.18796 0.29885 0.0
C653 C 0.33607 0.19598 0.31403 0.0
C654 C 0.32833 0.22 0.32288 0.0
H655 H 0.34581 0.35019 0.31493 0.0
H656 H 0.35766 0.3132 0.31229 0.0
H657 H 0.3207 0.3133 0.3011 0.0
H658 H 0.28172 0.24247 0.29622 0.0
H659 H 0.295 0.20047 0.28075 0.0
H660 H 0.91079 0.17329 0.71742 0.0
H661 H 0.96672 0.21352 0.70204 0.0
H662 H 0.89805 0.2373 0.67148 0.0
H663 H 0.84176 0.1974 0.68708 0.0
H664 H 0.97071 0.19545 0.67216 0.0
H665 H 0.99441 0.34214 0.67661 0.0
H666 H 0.96586 0.30524 0.69015 0.0
H667 H 0.94684 0.30612 0.67177 0.0
C668 C 0.90767 0.18767 0.7076 0.0
C669 C 0.87189 0.18202 0.70338 0.0
C670 C 0.93968 0.21071 0.69884 0.0
C671 C 0.9366 0.22855 0.68566 0.0
C672 C 0.90119 0.22434 0.68176 0.0
H673 H 0.09056 0.2833 0.60968 0.0
H674 H 0.03427 0.26579 0.62522 0.0
C675 C 0.86905 0.20139 0.69062 0.0
C676 C 0.96947 0.24739 0.67517 0.0
H677 H 0.03174 0.33191 0.65836 0.0
C678 C 0.98405 0.2253 0.66917 0.0
C679 C 0.98687 0.28636 0.67134 0.0
C680 C 0.97299 0.31155 0.67788 0.0
C681 C 0.01556 0.24101 0.65945 0.0
C682 C 0.03259 0.27978 0.65538 0.0
C683 C 0.01828 0.3021 0.66141 0.0
C684 C 0.06586 0.29716 0.64509 0.0
C685 C 0.03079 0.21609 0.6538 0.0
C686 C 0.10212 0.3222 0.65091 0.0
C687 C 0.13442 0.33245 0.64201 0.0
C688 C 0.13076 0.3176 0.62723 0.0
C689 C 0.09426 0.2949 0.62108 0.0
C690 C 0.06208 0.28488 0.62993 0.0
H691 H 0.01954 0.1894 0.6605 0.0
H692 H 0.02231 0.20835 0.64172 0.0
H693 H 0.06229 0.23137 0.65437 0.0
H694 H 0.10552 0.33193 0.66261 0.0
H695 H 0.1622 0.35003 0.64703 0.0
H696 H 0.74832 0.90585 0.04388 0.0
H697 H 0.75918 0.96112 0.02923 0.0
H698 H 0.64462 0.89944 0.01189 0.0
H699 H 0.63389 0.84301 0.02629 0.0
H700 H 0.69223 0.93415 0.98952 0.0
H701 H 0.72891 0.03928 0.03525 0.0
H702 H 0.75804 0.01798 0.03713 0.0
H703 H 0.70719 0.98909 0.03919 0.0
C704 C 0.72517 0.90408 0.03713 0.0
C705 C 0.69019 0.87007 0.03627 0.0
C706 C 0.73132 0.93595 0.02886 0.0
C707 C 0.70245 0.9349 0.01974 0.0
C708 C 0.6672 0.90108 0.01899 0.0
H709 H 0.78917 0.15672 0.97454 0.0
H710 H 0.74433 0.10005 0.98899 0.0
C711 C 0.66109 0.8689 0.02722 0.0
C712 C 0.71089 0.9681 0.00997 0.0
H713 H 0.75873 0.06502 0.01047 0.0
C714 C 0.70593 0.96272 0.99414 0.0
C715 C 0.72773 0.00545 0.01591 0.0
C716 C 0.73031 0.01317 0.03283 0.0
C717 C 0.72042 0.99374 0.98408 0.0
C718 C 0.74152 0.03109 0.98999 0.0
C719 C 0.74339 0.03646 0.00585 0.0
C720 C 0.7654 0.06434 0.98009 0.0
C721 C 0.71367 0.986 0.96722 0.0
C722 C 0.79216 0.06323 0.97031 0.0
C723 C 0.81734 0.09525 0.96198 0.0
C724 C 0.81695 0.12947 0.96346 0.0
C725 C 0.79003 0.13068 0.97314 0.0
C726 C 0.76443 0.09835 0.98139 0.0
H727 H 0.68585 0.96002 0.96509 0.0
H728 H 0.71424 0.01017 0.96107 0.0
H729 H 0.73601 0.98093 0.96242 0.0
H730 H 0.79454 0.03792 0.96948 0.0
H731 H 0.83797 0.09346 0.95474 0.0
H732 H 0.75024 0.84255 0.28993 0.0
H733 H 0.75928 0.79651 0.3042 0.0
H734 H 0.64165 0.73941 0.31797 0.0
H735 H 0.63269 0.78677 0.30397 0.0
H736 H 0.68466 0.74898 0.34156 0.0
H737 H 0.7327 0.68994 0.29613 0.0
H738 H 0.76121 0.74062 0.2955 0.0
H739 H 0.71078 0.71813 0.29197 0.0
C740 C 0.72607 0.81994 0.29581 0.0
C741 C 0.6907 0.81824 0.2958 0.0
C742 C 0.73119 0.79328 0.30385 0.0
C743 C 0.70092 0.76376 0.31185 0.0
C744 C 0.66532 0.76165 0.31173 0.0
H745 H 0.7908 0.63236 0.3578 0.0
H746 H 0.74516 0.64146 0.34259 0.0
C747 C 0.66023 0.78869 0.30375 0.0
C748 C 0.70815 0.73791 0.32147 0.0
H749 H 0.7593 0.6922 0.3216 0.0
C750 C 0.7001 0.73569 0.33712 0.0
C751 C 0.72716 0.71932 0.31572 0.0
C752 C 0.73298 0.71678 0.29886 0.0
C753 C 0.7139 0.71881 0.34732 0.0
C754 C 0.73743 0.70496 0.34177 0.0
C755 C 0.74212 0.70366 0.32597 0.0
C756 C 0.76138 0.6967 0.35211 0.0
C757 C 0.70405 0.71711 0.36399 0.0
C758 C 0.78567 0.72462 0.36248 0.0
C759 C 0.81132 0.71935 0.3712 0.0
C760 C 0.81389 0.68633 0.36957 0.0
C761 C 0.78934 0.65804 0.35933 0.0
C762 C 0.76329 0.66322 0.35065 0.0
H763 H 0.67514 0.71316 0.36542 0.0
H764 H 0.70528 0.69365 0.36996 0.0
H765 H 0.72433 0.74442 0.36952 0.0
H766 H 0.78586 0.75127 0.36346 0.0
H767 H 0.83004 0.74186 0.37888 0.0
H768 H 0.09403 0.79653 0.72244 0.0
H769 H 0.0363 0.75297 0.70858 0.0
H770 H 0.10164 0.77444 0.66726 0.0
H771 H 0.15971 0.81685 0.68128 0.0
H772 H 0.00874 0.77618 0.68702 0.0
H773 H 0.03039 0.66286 0.66272 0.0
H774 H 0.06036 0.69421 0.6776 0.0
H775 H 0.06862 0.70924 0.65797 0.0
C776 C 0.0962 0.7911 0.71049 0.0
C777 C 0.13127 0.81009 0.70291 0.0
C778 C 0.0632 0.76621 0.70258 0.0
C779 C 0.06453 0.76014 0.68688 0.0
C780 C 0.09988 0.77781 0.67943 0.0
H781 H 0.90739 0.71162 0.6146 0.0
H782 H 0.96232 0.72536 0.63044 0.0
C783 C 0.13308 0.80227 0.68743 0.0
C784 C 0.02863 0.73986 0.67803 0.0
H785 H 0.98158 0.67161 0.65092 0.0
C786 C 0.00256 0.75283 0.67936 0.0
C787 C 0.02057 0.70953 0.66794 0.0
C788 C 0.04632 0.6929 0.66658 0.0
C789 C 0.96937 0.73721 0.67057 0.0
C790 C 0.96195 0.70778 0.66017 0.0
C791 C 0.98747 0.69419 0.65896 0.0
C792 C 0.92892 0.69304 0.64981 0.0
C793 C 0.94298 0.75312 0.67206 0.0
C794 C 0.89205 0.6693 0.65535 0.0
C795 C 0.86054 0.66128 0.6463 0.0
C796 C 0.86561 0.67721 0.63167 0.0
C797 C 0.90262 0.69908 0.62586 0.0
C798 C 0.93403 0.70684 0.63485 0.0
H799 H 0.95459 0.77828 0.67969 0.0
H800 H 0.9375 0.76136 0.66067 0.0
H801 H 0.91532 0.73095 0.67674 0.0
H802 H 0.88768 0.65854 0.66691 0.0
H803 H 0.83237 0.64438 0.65108 0.0
H804 H 0.01592 0.21229 0.9469 0.0
H805 H 0.06707 0.21148 0.9614 0.0
H806 H 0.02295 0.23119 0.00298 0.0
H807 H 0.97177 0.23199 0.98861 0.0
H808 H 0.12192 0.27216 0.98102 0.0
H809 H 0.03377 0.13625 0.01194 0.0
H810 H 0.01761 0.14868 0.99485 0.0
H811 H 0.01729 0.16984 0.01279 0.0
C812 C 0.01704 0.21628 0.95914 0.0
C813 C 0.98982 0.22209 0.96664 0.0
C814 C 0.04625 0.21585 0.96738 0.0
C815 C 0.04843 0.22084 0.98325 0.0
C816 C 0.02135 0.22672 0.99076 0.0
H817 H 0.19961 0.22462 0.05387 0.0
H818 H 0.14865 0.22548 0.03929 0.0
C819 C 0.99227 0.22732 0.98253 0.0
C820 C 0.07962 0.22093 0.99194 0.0
H821 H 0.0982 0.17285 0.01934 0.0
C822 C 0.11686 0.2504 0.98935 0.0
C823 C 0.0727 0.1926 0.00285 0.0
C824 C 0.03324 0.15983 0.00575 0.0
C825 C 0.14749 0.25268 0.99761 0.0
C826 C 0.14066 0.22416 0.00846 0.0
C827 C 0.10334 0.19467 0.01102 0.0
C828 C 0.17184 0.22421 0.01722 0.0
C829 C 0.18669 0.28612 0.99491 0.0
C830 C 0.20149 0.22278 0.00964 0.0
C831 C 0.23072 0.22258 0.01793 0.0
C832 C 0.23052 0.22327 0.03395 0.0
C833 C 0.20053 0.22414 0.04153 0.0
C834 C 0.17142 0.22461 0.03323 0.0
H835 H 0.18547 0.31045 0.98973 0.0
H836 H 0.20309 0.29578 0.0057 0.0
H837 H 0.20225 0.2776 0.98691 0.0
H838 H 0.20187 0.22147 0.99732 0.0
H839 H 0.2533 0.22155 0.01178 0.0
H840 H 0.73795 0.98648 0.31921 0.0
H841 H 0.78984 0.03718 0.33384 0.0
H842 H 0.86543 0.06169 0.29565 0.0
H843 H 0.81366 0.01103 0.2809 0.0
H844 H 0.89336 0.05367 0.32583 0.0
H845 H 0.83782 0.15411 0.32508 0.0
H846 H 0.80492 0.10608 0.33076 0.0
H847 H 0.82257 0.11564 0.31157 0.0
C848 C 0.76559 0.00274 0.31391 0.0
C849 C 0.77176 0.99492 0.29889 0.0
C850 C 0.79512 0.0317 0.32226 0.0
C851 C 0.83126 0.05325 0.31575 0.0
C852 C 0.83763 0.04534 0.30083 0.0
H853 H 0.02517 0.26379 0.34432 0.0
H854 H 0.97341 0.21104 0.33051 0.0
C855 C 0.80805 0.01652 0.29242 0.0
C856 C 0.86254 0.08391 0.32457 0.0
H857 H 0.89272 0.17163 0.33989 0.0
C858 C 0.89329 0.07946 0.32894 0.0
C859 C 0.86228 0.11751 0.32848 0.0
C860 C 0.83032 0.12398 0.32367 0.0
C861 C 0.92382 0.1078 0.33726 0.0
C862 C 0.92336 0.14123 0.3413 0.0
C863 C 0.89274 0.14577 0.33684 0.0
C864 C 0.95508 0.17248 0.3497 0.0
C865 C 0.95667 0.10222 0.34147 0.0
C866 C 0.9617 0.16815 0.36508 0.0
C867 C 0.99116 0.19833 0.37304 0.0
C868 C 0.01443 0.23317 0.3657 0.0
C869 C 0.00779 0.23724 0.35027 0.0
C870 C 0.97823 0.20721 0.34237 0.0
H871 H 0.95556 0.07769 0.3354 0.0
H872 H 0.98407 0.12817 0.3388 0.0
H873 H 0.95602 0.09704 0.35392 0.0
H874 H 0.9438 0.14161 0.37095 0.0
H875 H 0.9956 0.19444 0.38493 0.0
H876 H 0.78558 0.74917 0.65611 0.0
H877 H 0.78493 0.8003 0.67061 0.0
H878 H 0.77658 0.85125 0.62873 0.0
H879 H 0.77721 0.80015 0.6141 0.0
H880 H 0.83635 0.88239 0.66748 0.0
H881 H 0.68501 0.83663 0.65569 0.0
H882 H 0.7042 0.80533 0.6533 0.0
H883 H 0.71385 0.8414 0.63936 0.0
C884 C 0.78368 0.7713 0.64998 0.0
C885 C 0.78128 0.77062 0.63397 0.0
C886 C 0.78336 0.80046 0.65827 0.0
C887 C 0.78026 0.82919 0.65073 0.0
C888 C 0.77848 0.82898 0.63475 0.0
H889 H 0.76117 0.02182 0.68018 0.0
H890 H 0.76371 0.97139 0.666 0.0
C891 C 0.77902 0.79992 0.62642 0.0
C892 C 0.77885 0.85935 0.65962 0.0
H893 H 0.72076 0.8943 0.66908 0.0
C894 C 0.81111 0.88504 0.66789 0.0
C895 C 0.74583 0.86256 0.66008 0.0
C896 C 0.71007 0.8349 0.65174 0.0
C897 C 0.81149 0.91447 0.6764 0.0
C898 C 0.77837 0.91761 0.67693 0.0
C899 C 0.74607 0.89179 0.66868 0.0
C900 C 0.77679 0.94795 0.6857 0.0
C901 C 0.84764 0.94249 0.68441 0.0
C902 C 0.78275 0.95115 0.70154 0.0
C903 C 0.78152 0.98012 0.70967 0.0
C904 C 0.77386 0.00604 0.70211 0.0
C905 C 0.76716 0.00228 0.68632 0.0
C906 C 0.7686 0.97349 0.67819 0.0
H907 H 0.8728 0.94225 0.6796 0.0
H908 H 0.85233 0.9718 0.68359 0.0
H909 H 0.84553 0.9348 0.69665 0.0
H910 H 0.78823 0.93119 0.70761 0.0
H911 H 0.78655 0.98221 0.72186 0.0
H912 H 0.80464 0.7816 0.05287 0.0
H913 H 0.85656 0.78296 0.03813 0.0
H914 H 0.79356 0.76699 0.99659 0.0
H915 H 0.7416 0.76564 0.01119 0.0
H916 H 0.85142 0.72425 0.0174 0.0
H917 H 0.89938 0.86322 0.98892 0.0
H918 H 0.87042 0.84894 0.00592 0.0
H919 H 0.8494 0.82955 0.98773 0.0
C920 C 0.80189 0.77842 0.04059 0.0
C921 C 0.76916 0.77364 0.03316 0.0
C922 C 0.83151 0.77918 0.03222 0.0
C923 C 0.82898 0.77555 0.01629 0.0
C924 C 0.79621 0.77041 0.00886 0.0
H925 H 0.97957 0.77912 0.94534 0.0
H926 H 0.92717 0.7771 0.95991 0.0
C927 C 0.76653 0.76947 0.01722 0.0
C928 C 0.86037 0.77649 0.00745 0.0
H929 H 0.92805 0.82791 0.98082 0.0
C930 C 0.86832 0.74694 0.00944 0.0
C931 C 0.88208 0.80606 0.99703 0.0
C932 C 0.87523 0.83896 0.9948 0.0
C933 C 0.89718 0.74584 0.00108 0.0
C934 C 0.91919 0.77562 0.99075 0.0
C935 C 0.91114 0.80514 0.98875 0.0
C936 C 0.9509 0.77684 0.98198 0.0
C937 C 0.90323 0.71237 0.00314 0.0
C938 C 0.98183 0.77798 0.98956 0.0
C939 C 0.01161 0.7789 0.98128 0.0
C940 C 0.0112 0.7792 0.96526 0.0
C941 C 0.98059 0.77883 0.95768 0.0
C942 C 0.95068 0.77769 0.96598 0.0
H943 H 0.87765 0.6874 0.00796 0.0
H944 H 0.91045 0.70395 0.99215 0.0
H945 H 0.92708 0.72025 0.01119 0.0
H946 H 0.98303 0.77831 0.0019 0.0
H947 H 0.03499 0.77949 0.98744 0.0
H948 H 0.00027 0.73413 0.35326 0.0
H949 H 0.05201 0.78576 0.339 0.0
H950 H 0.03843 0.86772 0.36549 0.0
H951 H 0.98809 0.81615 0.38033 0.0
H952 H 0.05394 0.83697 0.321 0.0
H953 H 0.14962 0.91141 0.36952 0.0
H954 H 0.10784 0.86529 0.37154 0.0
H955 H 0.1041 0.90764 0.37191 0.0
C956 C 0.00859 0.76321 0.35611 0.0
C957 C 0.99051 0.77126 0.36797 0.0
C958 C 0.03809 0.79269 0.34794 0.0
C959 C 0.04969 0.83074 0.35134 0.0
C960 C 0.03092 0.83872 0.36297 0.0
H961 H 0.18635 0.01539 0.28776 0.0
H962 H 0.13404 0.96492 0.30232 0.0
C963 C 0.00198 0.80925 0.37137 0.0
C964 C 0.08078 0.86184 0.34244 0.0
H965 H 0.16523 0.94458 0.34588 0.0
C966 C 0.0784 0.86039 0.32645 0.0
C967 C 0.113 0.89214 0.34951 0.0
C968 C 0.11904 0.89404 0.36655 0.0
C969 C 0.1072 0.88834 0.31734 0.0
C970 C 0.13858 0.91953 0.32443 0.0
C971 C 0.14098 0.92093 0.34042 0.0
C972 C 0.16998 0.95037 0.31556 0.0
C973 C 0.10416 0.88338 0.30024 0.0
C974 C 0.20769 0.95999 0.31852 0.0
C975 C 0.23757 0.98945 0.31053 0.0
C976 C 0.23032 0.00957 0.29927 0.0
C977 C 0.19265 1.0 0.29626 0.0
C978 C 0.16275 0.97098 0.3045 0.0
H979 H 0.08549 0.85314 0.297 0.0
H980 H 0.09154 0.89982 0.29543 0.0
H981 H 0.13246 0.89369 0.29495 0.0
H982 H 0.21405 0.94461 0.32702 0.0
H983 H 0.26637 0.99622 0.31306 0.0
H984 H 0.20645 0.01479 0.71889 0.0
H985 H 0.20358 0.06479 0.70429 0.0
H986 H 0.22179 0.01977 0.66263 0.0
H987 H 0.22441 0.96969 0.67707 0.0
H988 H 0.26132 0.11953 0.68496 0.0
H989 H 0.12751 0.02923 0.65325 0.0
H990 H 0.14067 0.01288 0.67008 0.0
H991 H 0.16204 0.01407 0.652 0.0
C992 C 0.2096 0.01545 0.70661 0.0
C993 C 0.21554 0.9883 0.6991 0.0
C994 C 0.20797 0.04398 0.6983 0.0
C995 C 0.21193 0.04558 0.68237 0.0
C996 C 0.21793 0.01856 0.67488 0.0
H997 H 0.22069 0.1975 0.61098 0.0
H998 H 0.21936 0.14578 0.62588 0.0
C999 C 0.21963 0.99011 0.68316 0.0
C1000 C 0.21134 0.0764 0.67362 0.0
H1001 H 0.1641 0.09358 0.64537 0.0
C1002 C 0.23994 0.11396 0.67638 0.0
C1003 C 0.18353 0.06888 0.66237 0.0
C1004 C 0.15147 0.02913 0.65929 0.0
C1005 C 0.24197 0.14426 0.66795 0.0
C1006 C 0.21411 0.13678 0.65671 0.0
C1007 C 0.18542 0.0992 0.65399 0.0
C1008 C 0.21417 0.16765 0.6477 0.0
C1009 C 0.2745 0.18387 0.6709 0.0
C1010 C 0.21097 0.19661 0.65502 0.0
C1011 C 0.21194 0.22619 0.64657 0.0
C1012 C 0.21567 0.2271 0.63062 0.0
C1013 C 0.21789 0.19756 0.62326 0.0
C1014 C 0.21712 0.16804 0.63175 0.0
H1015 H 0.29861 0.1834 0.67666 0.0
H1016 H 0.28494 0.20017 0.66011 0.0
H1017 H 0.26463 0.1991 0.67845 0.0
H1018 H 0.20773 0.19634 0.66729 0.0
H1019 H 0.20981 0.24837 0.65255 0.0
loop_
_geom_bond_atom_site_label_1
_geom_bond_atom_site_label_2
_geom_bond_distance
_geom_bond_site_symmetry_2
_ccdc_geom_bond_type
In0 O1 2.294 . S
In0 O2 2.326 . S
In0 O6 2.266 . S
In0 O7 2.326 . S
In0 O8 2.266 . S
In0 O9 2.326 . S
In0 O11 2.294 . S
In0 O12 2.326 . S
O1 In0 2.294 . S
O1 C10 1.240 . S
O2 In0 2.326 . S
O2 C10 1.252 . S
C3 O6 1.252 . S
C3 O7 1.260 . S
C4 O11 1.240 . S
C4 O12 1.252 . S
C5 O8 1.252 . S
C5 O9 1.260 . S
O6 In0 2.266 . S
O6 C3 1.252 . S
O7 In0 2.326 . S
O7 C3 1.260 . S
O8 In0 2.266 . S
O8 C5 1.252 . S
O9 In0 2.326 . S
O9 C5 1.260 . S
C10 O1 1.240 . S
C10 O2 1.252 . S
O11 In0 2.294 . S
O11 C4 1.240 . S
O12 In0 2.326 . S
O12 C4 1.252 . S
In13 O14 2.294 . S
In13 O15 2.326 . S
In13 O19 2.266 . S
In13 O20 2.326 . S
In13 O21 2.266 . S
In13 O22 2.326 . S
In13 O24 2.294 . S
In13 O25 2.326 . S
O14 In13 2.294 . S
O14 C23 1.240 . S
O15 In13 2.326 . S
O15 C23 1.252 . S
C16 O19 1.252 . S
C16 O20 1.260 . S
C17 O24 1.240 . S
C17 O25 1.252 . S
C18 O21 1.252 . S
C18 O22 1.260 . S
O19 In13 2.266 . S
O19 C16 1.252 . S
O20 In13 2.326 . S
O20 C16 1.260 . S
O21 In13 2.266 . S
O21 C18 1.252 . S
O22 In13 2.326 . S
O22 C18 1.260 . S
C23 O14 1.240 . S
C23 O15 1.252 . S
O24 In13 2.294 . S
O24 C17 1.240 . S
O25 In13 2.326 . S
O25 C17 1.252 . S
In26 O27 2.294 . S
In26 O28 2.326 . S
In26 O32 2.266 . S
In26 O33 2.326 . S
In26 O34 2.266 . S
In26 O35 2.326 . S
In26 O37 2.294 . S
In26 O38 2.326 . S
O27 In26 2.294 . S
O27 C36 1.240 . S
O28 In26 2.326 . S
O28 C36 1.252 . S
C29 O32 1.252 . S
C29 O33 1.260 . S
C30 O37 1.240 . S
C30 O38 1.252 . S
C31 O34 1.252 . S
C31 O35 1.260 . S
O32 In26 2.266 . S
O32 C29 1.252 . S
O33 In26 2.326 . S
O33 C29 1.260 . S
O34 In26 2.266 . S
O34 C31 1.252 . S
O35 In26 2.326 . S
O35 C31 1.260 . S
C36 O27 1.240 . S
C36 O28 1.252 . S
O37 In26 2.294 . S
O37 C30 1.240 . S
O38 In26 2.326 . S
O38 C30 1.252 . S
In39 O40 2.294 . S
In39 O41 2.326 . S
In39 O45 2.266 . S
In39 O46 2.326 . S
In39 O47 2.266 . S
In39 O48 2.326 . S
In39 O50 2.294 . S
In39 O51 2.326 . S
O40 In39 2.294 . S
O40 C49 1.240 . S
O41 In39 2.326 . S
O41 C49 1.252 . S
C42 O45 1.252 . S
C42 O46 1.260 . S
C43 O50 1.240 . S
C43 O51 1.252 . S
C44 O47 1.252 . S
C44 O48 1.260 . S
O45 In39 2.266 . S
O45 C42 1.252 . S
O46 In39 2.326 . S
O46 C42 1.260 . S
O47 In39 2.266 . S
O47 C44 1.252 . S
O48 In39 2.326 . S
O48 C44 1.260 . S
C49 O40 1.240 . S
C49 O41 1.252 . S
O50 In39 2.294 . S
O50 C43 1.240 . S
O51 In39 2.326 . S
O51 C43 1.252 . S
In52 O53 2.294 . S
In52 O54 2.326 . S
In52 O58 2.266 . S
In52 O59 2.326 . S
In52 O60 2.266 . S
In52 O61 2.326 . S
In52 O63 2.294 . S
In52 O64 2.326 . S
O53 In52 2.294 . S
O53 C62 1.240 . S
O54 In52 2.326 . S
O54 C62 1.252 . S
C55 O58 1.252 . S
C55 O59 1.260 . S
C56 O63 1.240 . S
C56 O64 1.252 . S
C57 O60 1.252 . S
C57 O61 1.260 . S
O58 In52 2.266 . S
O58 C55 1.252 . S
O59 In52 2.326 . S
O59 C55 1.260 . S
O60 In52 2.266 . S
O60 C57 1.252 . S
O61 In52 2.326 . S
O61 C57 1.260 . S
C62 O53 1.240 . S
C62 O54 1.252 . S
O63 In52 2.294 . S
O63 C56 1.240 . S
O64 In52 2.326 . S
O64 C56 1.252 . S
In65 O66 2.294 . S
In65 O67 2.326 . S
In65 O71 2.266 . S
In65 O72 2.326 . S
In65 O73 2.266 . S
In65 O74 2.326 . S
In65 O76 2.294 . S
In65 O77 2.326 . S
O66 In65 2.294 . S
O66 C75 1.240 . S
O67 In65 2.326 . S
O67 C75 1.252 . S
C68 O71 1.252 . S
C68 O72 1.260 . S
C69 O76 1.240 . S
C69 O77 1.252 . S
C70 O73 1.252 . S
C70 O74 1.260 . S
O71 In65 2.266 . S
O71 C68 1.252 . S
O72 In65 2.326 . S
O72 C68 1.260 . S
O73 In65 2.266 . S
O73 C70 1.252 . S
O74 In65 2.326 . S
O74 C70 1.260 . S
C75 O66 1.240 . S
C75 O67 1.252 . S
O76 In65 2.294 . S
O76 C69 1.240 . S
O77 In65 2.326 . S
O77 C69 1.252 . S
In78 O79 2.294 . S
In78 O80 2.326 . S
In78 O84 2.266 . S
In78 O85 2.326 . S
In78 O86 2.266 . S
In78 O87 2.326 . S
In78 O89 2.294 . S
In78 O90 2.326 . S
O79 In78 2.294 . S
O79 C88 1.240 . S
O80 In78 2.326 . S
O80 C88 1.252 . S
C81 O84 1.252 . S
C81 O85 1.260 . S
C82 O89 1.240 . S
C82 O90 1.252 . S
C83 O86 1.252 . S
C83 O87 1.260 . S
O84 In78 2.266 . S
O84 C81 1.252 . S
O85 In78 2.326 . S
O85 C81 1.260 . S
O86 In78 2.266 . S
O86 C83 1.252 . S
O87 In78 2.326 . S
O87 C83 1.260 . S
C88 O79 1.240 . S
C88 O80 1.252 . S
O89 In78 2.294 . S
O89 C82 1.240 . S
O90 In78 2.326 . S
O90 C82 1.252 . S
In91 O92 2.294 . S
In91 O93 2.326 . S
In91 O97 2.266 . S
In91 O98 2.326 . S
In91 O99 2.266 . S
In91 O100 2.326 . S
In91 O102 2.294 . S
In91 O103 2.326 . S
O92 In91 2.294 . S
O92 C101 1.240 . S
O93 In91 2.326 . S
O93 C101 1.252 . S
C94 O97 1.252 . S
C94 O98 1.260 . S
C95 O102 1.240 . S
C95 O103 1.252 . S
C96 O99 1.252 . S
C96 O100 1.260 . S
O97 In91 2.266 . S
O97 C94 1.252 . S
O98 In91 2.326 . S
O98 C94 1.260 . S
O99 In91 2.266 . S
O99 C96 1.252 . S
O100 In91 2.326 . S
O100 C96 1.260 . S
C101 O92 1.240 . S
C101 O93 1.252 . S
O102 In91 2.294 . S
O102 C95 1.240 . S
O103 In91 2.326 . S
O103 C95 1.252 . S
In104 O105 2.294 . S
In104 O106 2.326 . S
In104 O110 2.266 . S
In104 O111 2.326 . S
In104 O112 2.266 . S
In104 O113 2.326 . S
In104 O115 2.294 . S
In104 O116 2.326 . S
O105 In104 2.294 . S
O105 C114 1.240 . S
O106 In104 2.326 . S
O106 C114 1.252 . S
C107 O110 1.252 . S
C107 O111 1.260 . S
C108 O115 1.240 . S
C108 O116 1.252 . S
C109 O112 1.252 . S
C109 O113 1.260 . S
O110 In104 2.266 . S
O110 C107 1.252 . S
O111 In104 2.326 . S
O111 C107 1.260 . S
O112 In104 2.266 . S
O112 C109 1.252 . S
O113 In104 2.326 . S
O113 C109 1.260 . S
C114 O105 1.240 . S
C114 O106 1.252 . S
O115 In104 2.294 . S
O115 C108 1.240 . S
O116 In104 2.326 . S
O116 C108 1.252 . S
In117 O118 2.294 . S
In117 O119 2.326 . S
In117 O123 2.266 . S
In117 O124 2.326 . S
In117 O125 2.266 . S
In117 O126 2.326 . S
In117 O128 2.294 . S
In117 O129 2.326 . S
O118 In117 2.294 . S
O118 C127 1.240 . S
O119 In117 2.326 . S
O119 C127 1.252 . S
C120 O123 1.252 . S
C120 O124 1.260 . S
C121 O128 1.240 . S
C121 O129 1.252 . S
C122 O125 1.252 . S
C122 O126 1.260 . S
O123 In117 2.266 . S
O123 C120 1.252 . S
O124 In117 2.326 . S
O124 C120 1.260 . S
O125 In117 2.266 . S
O125 C122 1.252 . S
O126 In117 2.326 . S
O126 C122 1.260 . S
C127 O118 1.240 . S
C127 O119 1.252 . S
O128 In117 2.294 . S
O128 C121 1.240 . S
O129 In117 2.326 . S
O129 C121 1.252 . S
In130 O131 2.294 . S
In130 O132 2.326 . S
In130 O136 2.266 . S
In130 O137 2.326 . S
In130 O138 2.266 . S
In130 O139 2.326 . S
In130 O141 2.294 . S
In130 O142 2.326 . S
O131 In130 2.294 . S
O131 C140 1.240 . S
O132 In130 2.326 . S
O132 C140 1.252 . S
C133 O136 1.252 . S
C133 O137 1.260 . S
C134 O141 1.240 . S
C134 O142 1.252 . S
C135 O138 1.252 . S
C135 O139 1.260 . S
O136 In130 2.266 . S
O136 C133 1.252 . S
O137 In130 2.326 . S
O137 C133 1.260 . S
O138 In130 2.266 . S
O138 C135 1.252 . S
O139 In130 2.326 . S
O139 C135 1.260 . S
C140 O131 1.240 . S
C140 O132 1.252 . S
O141 In130 2.294 . S
O141 C134 1.240 . S
O142 In130 2.326 . S
O142 C134 1.252 . S
In143 O144 2.294 . S
In143 O145 2.326 . S
In143 O149 2.266 . S
In143 O150 2.326 . S
In143 O151 2.266 . S
In143 O152 2.326 . S
In143 O154 2.294 . S
In143 O155 2.326 . S
O144 In143 2.294 . S
O144 C153 1.240 . S
O145 In143 2.326 . S
O145 C153 1.252 . S
C146 O149 1.252 . S
C146 O150 1.260 . S
C147 O154 1.240 . S
C147 O155 1.252 . S
C148 O151 1.252 . S
C148 O152 1.260 . S
O149 In143 2.266 . S
O149 C146 1.252 . S
O150 In143 2.326 . S
O150 C146 1.260 . S
O151 In143 2.266 . S
O151 C148 1.252 . S
O152 In143 2.326 . S
O152 C148 1.260 . S
C153 O144 1.240 . S
C153 O145 1.252 . S
O154 In143 2.294 . S
O154 C147 1.240 . S
O155 In143 2.326 . S
O155 C147 1.252 . S
H156 C164 0.929 . S
H157 C166 0.930 . S
H158 C168 0.930 . S
H159 C171 0.929 . S
H160 C174 0.930 . S
H161 C176 0.960 . S
H162 C176 0.960 . S
H163 C176 0.960 . S
C164 H156 0.929 . S
C164 C165 1.377 . S
C164 C166 1.384 . S
C165 C164 1.377 . S
C165 C171 1.390 . S
C166 H157 0.930 . S
C166 C164 1.384 . S
C166 C167 1.372 . S
C167 C166 1.372 . S
C167 C168 1.400 . S
C167 C172 1.490 . S
C168 H158 0.930 . S
C168 C167 1.400 . S
C168 C171 1.386 . S
H169 C185 0.930 . S
H170 C186 0.931 . S
C171 H159 0.929 . S
C171 C165 1.390 . S
C171 C168 1.386 . S
C172 C167 1.490 . S
C172 C174 1.395 . S
C172 C175 1.403 . S
H173 C179 0.930 . S
C174 H160 0.930 . S
C174 C172 1.395 . S
C174 C177 1.403 . S
C175 C172 1.403 . S
C175 C176 1.524 . S
C175 C179 1.400 . S
C176 H161 0.960 . S
C176 H162 0.960 . S
C176 H163 0.960 . S
C176 C175 1.524 . S
C177 C174 1.403 . S
C177 C178 1.392 . S
C177 C181 1.495 . S
C178 C177 1.392 . S
C178 C179 1.385 . S
C178 C180 1.478 . S
C179 H173 0.930 . S
C179 C175 1.400 . S
C179 C178 1.385 . S
C180 C178 1.478 . S
C180 C182 1.381 . S
C180 C186 1.383 . S
C181 C177 1.495 . S
C181 H187 0.959 . S
C181 H188 0.961 . S
C181 H189 0.960 . S
C182 C180 1.381 . S
C182 C183 1.394 . S
C182 H190 0.930 . S
C183 C182 1.394 . S
C183 C184 1.383 . S
C183 H191 0.929 . S
C184 C183 1.383 . S
C184 C185 1.377 . S
C185 H169 0.930 . S
C185 C184 1.377 . S
C185 C186 1.379 . S
C186 H170 0.931 . S
C186 C180 1.383 . S
C186 C185 1.379 . S
H187 C181 0.959 . S
H188 C181 0.961 . S
H189 C181 0.960 . S
H190 C182 0.930 . S
H191 C183 0.929 . S
H192 C200 0.929 . S
H193 C202 0.930 . S
H194 C204 0.930 . S
H195 C207 0.929 . S
H196 C210 0.930 . S
H197 C212 0.960 . S
H198 C212 0.960 . S
H199 C212 0.960 . S
C200 H192 0.929 . S
C200 C201 1.377 . S
C200 C202 1.384 . S
C201 C200 1.377 . S
C201 C207 1.390 . S
C202 H193 0.930 . S
C202 C200 1.384 . S
C202 C203 1.372 . S
C203 C202 1.372 . S
C203 C204 1.400 . S
C203 C208 1.490 . S
C204 H194 0.930 . S
C204 C203 1.400 . S
C204 C207 1.386 . S
H205 C221 0.930 . S
H206 C222 0.931 . S
C207 H195 0.929 . S
C207 C201 1.390 . S
C207 C204 1.386 . S
C208 C203 1.490 . S
C208 C210 1.395 1_455 S
C208 C211 1.403 . S
H209 C215 0.930 . S
C210 H196 0.930 . S
C210 C208 1.395 1_655 S
C210 C213 1.403 . S
C211 C208 1.403 . S
C211 C212 1.524 . S
C211 C215 1.400 . S
C212 H197 0.960 . S
C212 H198 0.960 . S
C212 H199 0.960 . S
C212 C211 1.524 . S
C213 C210 1.403 . S
C213 C214 1.392 . S
C213 C217 1.495 . S
C214 C213 1.392 . S
C214 C215 1.385 1_655 S
C214 C216 1.478 . S
C215 H209 0.930 . S
C215 C211 1.400 . S
C215 C214 1.385 1_455 S
C216 C214 1.478 . S
C216 C218 1.381 . S
C216 C222 1.383 . S
C217 C213 1.495 . S
C217 H223 0.959 . S
C217 H224 0.961 . S
C217 H225 0.960 . S
C218 C216 1.381 . S
C218 C219 1.394 . S
C218 H226 0.930 . S
C219 C218 1.394 . S
C219 C220 1.383 . S
C219 H227 0.929 . S
C220 C219 1.383 . S
C220 C221 1.377 . S
C221 H205 0.930 . S
C221 C220 1.377 . S
C221 C222 1.379 . S
C222 H206 0.931 . S
C222 C216 1.383 . S
C222 C221 1.379 . S
H223 C217 0.959 . S
H224 C217 0.961 . S
H225 C217 0.960 . S
H226 C218 0.930 . S
H227 C219 0.929 . S
H228 C236 0.929 . S
H229 C238 0.930 . S
H230 C240 0.930 . S
H231 C243 0.929 . S
H232 C246 0.930 . S
H233 C248 0.960 . S
H234 C248 0.960 . S
H235 C248 0.960 . S
C236 H228 0.929 . S
C236 C237 1.377 . S
C236 C238 1.384 . S
C237 C236 1.377 . S
C237 C243 1.390 . S
C238 H229 0.930 . S
C238 C236 1.384 . S
C238 C239 1.372 . S
C239 C238 1.372 . S
C239 C240 1.400 . S
C239 C244 1.490 . S
C240 H230 0.930 . S
C240 C239 1.400 . S
C240 C243 1.386 . S
H241 C257 0.930 . S
H242 C258 0.931 . S
C243 H231 0.929 . S
C243 C237 1.390 . S
C243 C240 1.386 . S
C244 C239 1.490 . S
C244 C246 1.395 1_565 S
C244 C247 1.403 . S
H245 C251 0.930 . S
C246 H232 0.930 . S
C246 C244 1.395 1_545 S
C246 C249 1.403 . S
C247 C244 1.403 . S
C247 C248 1.524 . S
C247 C251 1.400 . S
C248 H233 0.960 . S
C248 H234 0.960 . S
C248 H235 0.960 . S
C248 C247 1.524 . S
C249 C246 1.403 . S
C249 C250 1.392 . S
C249 C253 1.495 . S
C250 C249 1.392 . S
C250 C251 1.385 1_545 S
C250 C252 1.478 . S
C251 H245 0.930 . S
C251 C247 1.400 . S
C251 C250 1.385 1_565 S
C252 C250 1.478 . S
C252 C254 1.381 . S
C252 C258 1.383 . S
C253 C249 1.495 . S
C253 H259 0.959 . S
C253 H260 0.961 . S
C253 H261 0.960 . S
C254 C252 1.381 . S
C254 C255 1.394 . S
C254 H262 0.930 . S
C255 C254 1.394 . S
C255 C256 1.383 . S
C255 H263 0.929 . S
C256 C255 1.383 . S
C256 C257 1.377 . S
C257 H241 0.930 . S
C257 C256 1.377 . S
C257 C258 1.379 . S
C258 H242 0.931 . S
C258 C252 1.383 . S
C258 C257 1.379 . S
H259 C253 0.959 . S
H260 C253 0.961 . S
H261 C253 0.960 . S
H262 C254 0.930 . S
H263 C255 0.929 . S
H264 C272 0.929 . S
H265 C274 0.930 . S
H266 C276 0.930 . S
H267 C279 0.929 . S
H268 C282 0.930 . S
H269 C284 0.960 . S
H270 C284 0.960 . S
H271 C284 0.960 . S
C272 H264 0.929 . S
C272 C273 1.377 . S
C272 C274 1.384 . S
C273 C272 1.377 . S
C273 C279 1.390 . S
C274 H265 0.930 . S
C274 C272 1.384 . S
C274 C275 1.372 . S
C275 C274 1.372 . S
C275 C276 1.400 . S
C275 C280 1.490 . S
C276 H266 0.930 . S
C276 C275 1.400 . S
C276 C279 1.386 . S
H277 C293 0.930 . S
H278 C294 0.931 . S
C279 H267 0.929 . S
C279 C273 1.390 . S
C279 C276 1.386 . S
C280 C275 1.490 . S
C280 C282 1.395 . S
C280 C283 1.403 . S
H281 C287 0.930 . S
C282 H268 0.930 . S
C282 C280 1.395 . S
C282 C285 1.403 . S
C283 C280 1.403 . S
C283 C284 1.524 . S
C283 C287 1.400 . S
C284 H269 0.960 . S
C284 H270 0.960 . S
C284 H271 0.960 . S
C284 C283 1.524 . S
C285 C282 1.403 . S
C285 C286 1.392 . S
C285 C289 1.495 . S
C286 C285 1.392 . S
C286 C287 1.385 . S
C286 C288 1.478 . S
C287 H281 0.930 . S
C287 C283 1.400 . S
C287 C286 1.385 . S
C288 C286 1.478 . S
C288 C290 1.381 . S
C288 C294 1.383 . S
C289 C285 1.495 . S
C289 H295 0.959 . S
C289 H296 0.961 . S
C289 H297 0.960 . S
C290 C288 1.381 . S
C290 C291 1.394 . S
C290 H298 0.930 . S
C291 C290 1.394 . S
C291 C292 1.383 . S
C291 H299 0.929 . S
C292 C291 1.383 . S
C292 C293 1.377 . S
C293 H277 0.930 . S
C293 C292 1.377 . S
C293 C294 1.379 . S
C294 H278 0.931 . S
C294 C288 1.383 . S
C294 C293 1.379 . S
H295 C289 0.959 . S
H296 C289 0.961 . S
H297 C289 0.960 . S
H298 C290 0.930 . S
H299 C291 0.929 . S
H300 C308 0.929 . S
H301 C310 0.930 1_455 S
H302 C312 0.930 . S
H303 C315 0.929 . S
H304 C318 0.930 . S
H305 C320 0.960 . S
H306 C320 0.960 . S
H307 C320 0.960 . S
C308 H300 0.929 . S
C308 C309 1.377 . S
C308 C310 1.384 . S
C309 C308 1.377 . S
C309 C315 1.390 . S
C310 H301 0.930 1_655 S
C310 C308 1.384 . S
C310 C311 1.372 . S
C311 C310 1.372 . S
C311 C312 1.400 . S
C311 C316 1.490 . S
C312 H302 0.930 . S
C312 C311 1.400 . S
C312 C315 1.386 . S
H313 C329 0.930 . S
H314 C330 0.931 . S
C315 H303 0.929 . S
C315 C309 1.390 . S
C315 C312 1.386 . S
C316 C311 1.490 . S
C316 C318 1.395 1_655 S
C316 C319 1.403 . S
H317 C323 0.930 . S
C318 H304 0.930 . S
C318 C316 1.395 1_455 S
C318 C321 1.403 . S
C319 C316 1.403 . S
C319 C320 1.524 . S
C319 C323 1.400 . S
C320 H305 0.960 . S
C320 H306 0.960 . S
C320 H307 0.960 . S
C320 C319 1.524 . S
C321 C318 1.403 . S
C321 C322 1.392 . S
C321 C325 1.495 . S
C322 C321 1.392 . S
C322 C323 1.385 1_455 S
C322 C324 1.478 . S
C323 H317 0.930 . S
C323 C319 1.400 . S
C323 C322 1.385 1_655 S
C324 C322 1.478 . S
C324 C326 1.381 . S
C324 C330 1.383 . S
C325 C321 1.495 . S
C325 H331 0.959 . S
C325 H332 0.961 . S
C325 H333 0.960 . S
C326 C324 1.381 . S
C326 C327 1.394 . S
C326 H334 0.930 . S
C327 C326 1.394 . S
C327 C328 1.383 . S
C327 H335 0.929 . S
C328 C327 1.383 . S
C328 C329 1.377 . S
C329 H313 0.930 . S
C329 C328 1.377 . S
C329 C330 1.379 . S
C330 H314 0.931 . S
C330 C324 1.383 . S
C330 C329 1.379 . S
H331 C325 0.959 . S
H332 C325 0.961 . S
H333 C325 0.960 . S
H334 C326 0.930 . S
H335 C327 0.929 . S
H336 C344 0.929 . S
H337 C346 0.930 . S
H338 C348 0.930 1_565 S
H339 C351 0.929 . S
H340 C354 0.930 . S
H341 C356 0.960 . S
H342 C356 0.960 . S
H343 C356 0.960 . S
C344 H336 0.929 . S
C344 C345 1.377 . S
C344 C346 1.384 . S
C345 C344 1.377 . S
C345 C351 1.390 . S
C346 H337 0.930 . S
C346 C344 1.384 . S
C346 C347 1.372 . S
C347 C346 1.372 . S
C347 C348 1.400 . S
C347 C352 1.490 . S
C348 H338 0.930 1_545 S
C348 C347 1.400 . S
C348 C351 1.386 . S
H349 C365 0.930 . S
H350 C366 0.931 . S
C351 H339 0.929 . S
C351 C345 1.390 . S
C351 C348 1.386 . S
C352 C347 1.490 . S
C352 C354 1.395 . S
C352 C355 1.403 1_545 S
H353 C359 0.930 . S
C354 H340 0.930 . S
C354 C352 1.395 . S
C354 C357 1.403 . S
C355 C352 1.403 1_565 S
C355 C356 1.524 . S
C355 C359 1.400 . S
C356 H341 0.960 . S
C356 H342 0.960 . S
C356 H343 0.960 . S
C356 C355 1.524 . S
C357 C354 1.403 . S
C357 C358 1.392 1_545 S
C357 C361 1.495 . S
C358 C357 1.392 1_565 S
C358 C359 1.385 . S
C358 C360 1.478 . S
C359 H353 0.930 . S
C359 C355 1.400 . S
C359 C358 1.385 . S
C360 C358 1.478 . S
C360 C362 1.381 . S
C360 C366 1.383 . S
C361 C357 1.495 . S
C361 H367 0.959 . S
C361 H368 0.961 . S
C361 H369 0.960 . S
C362 C360 1.381 . S
C362 C363 1.394 . S
C362 H370 0.930 1_565 S
C363 C362 1.394 . S
C363 C364 1.383 . S
C363 H371 0.929 . S
C364 C363 1.383 . S
C364 C365 1.377 . S
C365 H349 0.930 . S
C365 C364 1.377 . S
C365 C366 1.379 . S
C366 H350 0.931 . S
C366 C360 1.383 . S
C366 C365 1.379 . S
H367 C361 0.959 . S
H368 C361 0.961 . S
H369 C361 0.960 . S
H370 C362 0.930 1_545 S
H371 C363 0.929 . S
H372 C380 0.929 . S
H373 C382 0.930 . S
H374 C384 0.930 . S
H375 C387 0.929 . S
H376 C390 0.930 . S
H377 C392 0.960 . S
H378 C392 0.960 . S
H379 C392 0.960 . S
C380 H372 0.929 . S
C380 C381 1.377 . S
C380 C382 1.384 . S
C381 C380 1.377 . S
C381 C387 1.390 . S
C382 H373 0.930 . S
C382 C380 1.384 . S
C382 C383 1.372 . S
C383 C382 1.372 . S
C383 C384 1.400 . S
C383 C388 1.490 . S
C384 H374 0.930 . S
C384 C383 1.400 . S
C384 C387 1.386 . S
H385 C401 0.930 . S
H386 C402 0.931 . S
C387 H375 0.929 . S
C387 C381 1.390 . S
C387 C384 1.386 . S
C388 C383 1.490 . S
C388 C390 1.395 . S
C388 C391 1.403 . S
H389 C395 0.930 . S
C390 H376 0.930 . S
C390 C388 1.395 . S
C390 C393 1.403 . S
C391 C388 1.403 . S
C391 C392 1.524 . S
C391 C395 1.400 . S
C392 H377 0.960 . S
C392 H378 0.960 . S
C392 H379 0.960 . S
C392 C391 1.524 . S
C393 C390 1.403 . S
C393 C394 1.392 . S
C393 C397 1.495 . S
C394 C393 1.392 . S
C394 C395 1.385 . S
C394 C396 1.478 . S
C395 H389 0.930 . S
C395 C391 1.400 . S
C395 C394 1.385 . S
C396 C394 1.478 . S
C396 C398 1.381 . S
C396 C402 1.383 . S
C397 C393 1.495 . S
C397 H403 0.959 . S
C397 H404 0.961 . S
C397 H405 0.960 . S
C398 C396 1.381 . S
C398 C399 1.394 . S
C398 H406 0.930 . S
C399 C398 1.394 . S
C399 C400 1.383 . S
C399 H407 0.929 . S
C400 C399 1.383 . S
C400 C401 1.377 . S
C401 H385 0.930 . S
C401 C400 1.377 . S
C401 C402 1.379 . S
C402 H386 0.931 . S
C402 C396 1.383 . S
C402 C401 1.379 . S
H403 C397 0.959 . S
H404 C397 0.961 . S
H405 C397 0.960 . S
H406 C398 0.930 . S
H407 C399 0.929 . S
H408 C416 0.929 . S
H409 C418 0.930 . S
H410 C420 0.930 . S
H411 C423 0.929 . S
H412 C426 0.930 . S
H413 C428 0.960 . S
H414 C428 0.960 . S
H415 C428 0.960 . S
C416 H408 0.929 . S
C416 C417 1.377 . S
C416 C418 1.384 . S
C417 C416 1.377 . S
C417 C423 1.390 . S
C418 H409 0.930 . S
C418 C416 1.384 . S
C418 C419 1.372 . S
C419 C418 1.372 . S
C419 C420 1.400 . S
C419 C424 1.490 . S
C420 H410 0.930 . S
C420 C419 1.400 . S
C420 C423 1.386 . S
H421 C437 0.930 . S
H422 C438 0.931 . S
C423 H411 0.929 . S
C423 C417 1.390 . S
C423 C420 1.386 . S
C424 C419 1.490 . S
C424 C426 1.395 . S
C424 C427 1.403 . S
H425 C431 0.930 . S
C426 H412 0.930 . S
C426 C424 1.395 . S
C426 C429 1.403 . S
C427 C424 1.403 . S
C427 C428 1.524 . S
C427 C431 1.400 . S
C428 H413 0.960 . S
C428 H414 0.960 . S
C428 H415 0.960 . S
C428 C427 1.524 . S
C429 C426 1.403 . S
C429 C430 1.392 . S
C429 C433 1.495 . S
C430 C429 1.392 . S
C430 C431 1.385 . S
C430 C432 1.478 . S
C431 H425 0.930 . S
C431 C427 1.400 . S
C431 C430 1.385 . S
C432 C430 1.478 . S
C432 C434 1.381 . S
C432 C438 1.383 . S
C433 C429 1.495 . S
C433 H439 0.959 . S
C433 H440 0.961 . S
C433 H441 0.960 . S
C434 C432 1.381 . S
C434 C435 1.394 . S
C434 H442 0.930 . S
C435 C434 1.394 . S
C435 C436 1.383 . S
C435 H443 0.929 . S
C436 C435 1.383 . S
C436 C437 1.377 . S
C437 H421 0.930 . S
C437 C436 1.377 . S
C437 C438 1.379 . S
C438 H422 0.931 . S
C438 C432 1.383 . S
C438 C437 1.379 . S
H439 C433 0.959 . S
H440 C433 0.961 . S
H441 C433 0.960 . S
H442 C434 0.930 . S
H443 C435 0.929 . S
H444 C452 0.929 . S
H445 C454 0.930 . S
H446 C456 0.930 . S
H447 C459 0.929 . S
H448 C462 0.930 . S
H449 C464 0.960 . S
H450 C464 0.960 . S
H451 C464 0.960 . S
C452 H444 0.929 . S
C452 C453 1.377 . S
C452 C454 1.384 . S
C453 C452 1.377 . S
C453 C459 1.390 . S
C454 H445 0.930 . S
C454 C452 1.384 . S
C454 C455 1.372 . S
C455 C454 1.372 . S
C455 C456 1.400 . S
C455 C460 1.490 . S
C456 H446 0.930 . S
C456 C455 1.400 . S
C456 C459 1.386 . S
H457 C473 0.930 . S
H458 C474 0.931 . S
C459 H447 0.929 . S
C459 C453 1.390 . S
C459 C456 1.386 . S
C460 C455 1.490 . S
C460 C462 1.395 . S
C460 C463 1.403 . S
H461 C467 0.930 . S
C462 H448 0.930 . S
C462 C460 1.395 . S
C462 C465 1.403 . S
C463 C460 1.403 . S
C463 C464 1.524 . S
C463 C467 1.400 . S
C464 H449 0.960 . S
C464 H450 0.960 . S
C464 H451 0.960 . S
C464 C463 1.524 . S
C465 C462 1.403 . S
C465 C466 1.392 . S
C465 C469 1.495 . S
C466 C465 1.392 . S
C466 C467 1.385 . S
C466 C468 1.478 . S
C467 H461 0.930 . S
C467 C463 1.400 . S
C467 C466 1.385 . S
C468 C466 1.478 . S
C468 C470 1.381 . S
C468 C474 1.383 . S
C469 C465 1.495 . S
C469 H475 0.959 . S
C469 H476 0.961 . S
C469 H477 0.960 . S
C470 C468 1.381 . S
C470 C471 1.394 . S
C470 H478 0.930 . S
C471 C470 1.394 . S
C471 C472 1.383 . S
C471 H479 0.929 . S
C472 C471 1.383 . S
C472 C473 1.377 . S
C473 H457 0.930 . S
C473 C472 1.377 . S
C473 C474 1.379 . S
C474 H458 0.931 . S
C474 C468 1.383 . S
C474 C473 1.379 . S
H475 C469 0.959 . S
H476 C469 0.961 . S
H477 C469 0.960 . S
H478 C470 0.930 . S
H479 C471 0.929 . S
H480 C488 0.929 . S
H481 C490 0.930 . S
H482 C492 0.930 . S
H483 C495 0.929 . S
H484 C498 0.930 . S
H485 C500 0.960 . S
H486 C500 0.960 . S
H487 C500 0.960 . S
C488 H480 0.929 . S
C488 C489 1.377 . S
C488 C490 1.384 . S
C489 C488 1.377 . S
C489 C495 1.390 . S
C490 H481 0.930 . S
C490 C488 1.384 . S
C490 C491 1.372 . S
C491 C490 1.372 . S
C491 C492 1.400 . S
C491 C496 1.490 . S
C492 H482 0.930 . S
C492 C491 1.400 . S
C492 C495 1.386 . S
H493 C509 0.930 . S
H494 C510 0.931 . S
C495 H483 0.929 . S
C495 C489 1.390 . S
C495 C492 1.386 . S
C496 C491 1.490 . S
C496 C498 1.395 . S
C496 C499 1.403 . S
H497 C503 0.930 . S
C498 H484 0.930 . S
C498 C496 1.395 . S
C498 C501 1.403 . S
C499 C496 1.403 . S
C499 C500 1.524 . S
C499 C503 1.400 . S
C500 H485 0.960 . S
C500 H486 0.960 . S
C500 H487 0.960 . S
C500 C499 1.524 . S
C501 C498 1.403 . S
C501 C502 1.392 . S
C501 C505 1.495 . S
C502 C501 1.392 . S
C502 C503 1.385 . S
C502 C504 1.478 . S
C503 H497 0.930 . S
C503 C499 1.400 . S
C503 C502 1.385 . S
C504 C502 1.478 . S
C504 C506 1.381 . S
C504 C510 1.383 . S
C505 C501 1.495 . S
C505 H511 0.959 . S
C505 H512 0.961 . S
C505 H513 0.960 . S
C506 C504 1.381 . S
C506 C507 1.394 . S
C506 H514 0.930 . S
C507 C506 1.394 . S
C507 C508 1.383 . S
C507 H515 0.929 . S
C508 C507 1.383 . S
C508 C509 1.377 . S
C509 H493 0.930 . S
C509 C508 1.377 . S
C509 C510 1.379 . S
C510 H494 0.931 . S
C510 C504 1.383 . S
C510 C509 1.379 . S
H511 C505 0.959 . S
H512 C505 0.961 . S
H513 C505 0.960 . S
H514 C506 0.930 . S
H515 C507 0.929 . S
H516 C524 0.929 . S
H517 C526 0.930 . S
H518 C528 0.930 . S
H519 C531 0.929 . S
H520 C534 0.930 . S
H521 C536 0.960 . S
H522 C536 0.960 . S
H523 C536 0.960 . S
C524 H516 0.929 . S
C524 C525 1.377 . S
C524 C526 1.384 . S
C525 C524 1.377 . S
C525 C531 1.390 . S
C526 H517 0.930 . S
C526 C524 1.384 . S
C526 C527 1.372 . S
C527 C526 1.372 . S
C527 C528 1.400 . S
C527 C532 1.490 . S
C528 H518 0.930 . S
C528 C527 1.400 . S
C528 C531 1.386 . S
H529 C545 0.930 . S
H530 C546 0.931 . S
C531 H519 0.929 . S
C531 C525 1.390 . S
C531 C528 1.386 . S
C532 C527 1.490 . S
C532 C534 1.395 . S
C532 C535 1.403 . S
H533 C539 0.930 . S
C534 H520 0.930 . S
C534 C532 1.395 . S
C534 C537 1.403 . S
C535 C532 1.403 . S
C535 C536 1.524 . S
C535 C539 1.400 . S
C536 H521 0.960 . S
C536 H522 0.960 . S
C536 H523 0.960 . S
C536 C535 1.524 . S
C537 C534 1.403 . S
C537 C538 1.392 . S
C537 C541 1.495 . S
C538 C537 1.392 . S
C538 C539 1.385 . S
C538 C540 1.478 . S
C539 H533 0.930 . S
C539 C535 1.400 . S
C539 C538 1.385 . S
C540 C538 1.478 . S
C540 C542 1.381 . S
C540 C546 1.383 . S
C541 C537 1.495 . S
C541 H547 0.959 . S
C541 H548 0.961 . S
C541 H549 0.960 . S
C542 C540 1.381 . S
C542 C543 1.394 . S
C542 H550 0.930 . S
C543 C542 1.394 . S
C543 C544 1.383 . S
C543 H551 0.929 . S
C544 C543 1.383 . S
C544 C545 1.377 . S
C545 H529 0.930 . S
C545 C544 1.377 . S
C545 C546 1.379 . S
C546 H530 0.931 . S
C546 C540 1.383 . S
C546 C545 1.379 . S
H547 C541 0.959 . S
H548 C541 0.961 . S
H549 C541 0.960 . S
H550 C542 0.930 . S
H551 C543 0.929 . S
H552 C560 0.929 . S
H553 C562 0.930 . S
H554 C564 0.930 . S
H555 C567 0.929 . S
H556 C570 0.930 . S
H557 C572 0.960 . S
H558 C572 0.960 . S
H559 C572 0.960 . S
C560 H552 0.929 . S
C560 C561 1.377 . S
C560 C562 1.384 . S
C561 C560 1.377 . S
C561 C567 1.390 . S
C562 H553 0.930 . S
C562 C560 1.384 . S
C562 C563 1.372 . S
C563 C562 1.372 . S
C563 C564 1.400 . S
C563 C568 1.490 . S
C564 H554 0.930 . S
C564 C563 1.400 . S
C564 C567 1.386 . S
H565 C581 0.930 . S
H566 C582 0.931 . S
C567 H555 0.929 . S
C567 C561 1.390 . S
C567 C564 1.386 . S
C568 C563 1.490 . S
C568 C570 1.395 . S
C568 C571 1.403 . S
H569 C575 0.930 . S
C570 H556 0.930 . S
C570 C568 1.395 . S
C570 C573 1.403 . S
C571 C568 1.403 . S
C571 C572 1.524 . S
C571 C575 1.400 . S
C572 H557 0.960 . S
C572 H558 0.960 . S
C572 H559 0.960 . S
C572 C571 1.524 . S
C573 C570 1.403 . S
C573 C574 1.392 . S
C573 C577 1.495 . S
C574 C573 1.392 . S
C574 C575 1.385 . S
C574 C576 1.478 . S
C575 H569 0.930 . S
C575 C571 1.400 . S
C575 C574 1.385 . S
C576 C574 1.478 . S
C576 C578 1.381 . S
C576 C582 1.383 . S
C577 C573 1.495 . S
C577 H583 0.959 . S
C577 H584 0.961 . S
C577 H585 0.960 . S
C578 C576 1.381 . S
C578 C579 1.394 . S
C578 H586 0.930 . S
C579 C578 1.394 . S
C579 C580 1.383 . S
C579 H587 0.929 . S
C580 C579 1.383 . S
C580 C581 1.377 . S
C581 H565 0.930 . S
C581 C580 1.377 . S
C581 C582 1.379 . S
C582 H566 0.931 . S
C582 C576 1.383 . S
C582 C581 1.379 . S
H583 C577 0.959 . S
H584 C577 0.961 . S
H585 C577 0.960 . S
H586 C578 0.930 . S
H587 C579 0.929 . S
H588 C596 0.929 . S
H589 C598 0.930 . S
H590 C600 0.930 . S
H591 C603 0.929 . S
H592 C606 0.930 . S
H593 C608 0.960 1_545 S
H594 C608 0.960 . S
H595 C608 0.960 . S
C596 H588 0.929 . S
C596 C597 1.377 . S
C596 C598 1.384 . S
C597 C596 1.377 . S
C597 C603 1.390 . S
C598 H589 0.930 . S
C598 C596 1.384 . S
C598 C599 1.372 . S
C599 C598 1.372 . S
C599 C600 1.400 . S
C599 C604 1.490 . S
C600 H590 0.930 . S
C600 C599 1.400 . S
C600 C603 1.386 . S
H601 C617 0.930 . S
H602 C618 0.931 . S
C603 H591 0.929 . S
C603 C597 1.390 . S
C603 C600 1.386 . S
C604 C599 1.490 . S
C604 C606 1.395 1_556 S
C604 C607 1.403 . S
H605 C611 0.930 . S
C606 H592 0.930 . S
C606 C604 1.395 1_554 S
C606 C609 1.403 1_565 S
C607 C604 1.403 . S
C607 C608 1.524 . S
C607 C611 1.400 1_565 S
C608 H593 0.960 1_565 S
C608 H594 0.960 . S
C608 H595 0.960 . S
C608 C607 1.524 . S
C609 C606 1.403 1_545 S
C609 C610 1.392 . S
C609 C613 1.495 . S
C610 C609 1.392 . S
C610 C611 1.385 1_554 S
C610 C612 1.478 . S
C611 H605 0.930 . S
C611 C607 1.400 1_545 S
C611 C610 1.385 1_556 S
C612 C610 1.478 . S
C612 C614 1.381 . S
C612 C618 1.383 . S
C613 C609 1.495 . S
C613 H619 0.959 1_545 S
C613 H620 0.961 . S
C613 H621 0.960 . S
C614 C612 1.381 . S
C614 C615 1.394 . S
C614 H622 0.930 . S
C615 C614 1.394 . S
C615 C616 1.383 . S
C615 H623 0.929 . S
C616 C615 1.383 . S
C616 C617 1.377 . S
C617 H601 0.930 . S
C617 C616 1.377 . S
C617 C618 1.379 . S
C618 H602 0.931 . S
C618 C612 1.383 . S
C618 C617 1.379 . S
H619 C613 0.959 1_565 S
H620 C613 0.961 . S
H621 C613 0.960 . S
H622 C614 0.930 . S
H623 C615 0.929 . S
H624 C632 0.929 . S
H625 C634 0.930 . S
H626 C636 0.930 . S
H627 C639 0.929 . S
H628 C642 0.930 . S
H629 C644 0.960 . S
H630 C644 0.960 . S
H631 C644 0.960 . S
C632 H624 0.929 . S
C632 C633 1.377 . S
C632 C634 1.384 . S
C633 C632 1.377 . S
C633 C639 1.390 . S
C634 H625 0.930 . S
C634 C632 1.384 . S
C634 C635 1.372 . S
C635 C634 1.372 . S
C635 C636 1.400 . S
C635 C640 1.490 . S
C636 H626 0.930 . S
C636 C635 1.400 . S
C636 C639 1.386 . S
H637 C653 0.930 . S
H638 C654 0.931 . S
C639 H627 0.929 . S
C639 C633 1.390 . S
C639 C636 1.386 . S
C640 C635 1.490 . S
C640 C642 1.395 . S
C640 C643 1.403 . S
H641 C647 0.930 . S
C642 H628 0.930 . S
C642 C640 1.395 . S
C642 C645 1.403 . S
C643 C640 1.403 . S
C643 C644 1.524 . S
C643 C647 1.400 . S
C644 H629 0.960 . S
C644 H630 0.960 . S
C644 H631 0.960 . S
C644 C643 1.524 . S
C645 C642 1.403 . S
C645 C646 1.392 . S
C645 C649 1.495 . S
C646 C645 1.392 . S
C646 C647 1.385 . S
C646 C648 1.478 . S
C647 H641 0.930 . S
C647 C643 1.400 . S
C647 C646 1.385 . S
C648 C646 1.478 . S
C648 C650 1.381 . S
C648 C654 1.383 . S
C649 C645 1.495 . S
C649 H655 0.959 . S
C649 H656 0.961 . S
C649 H657 0.960 . S
C650 C648 1.381 . S
C650 C651 1.394 . S
C650 H658 0.930 . S
C651 C650 1.394 . S
C651 C652 1.383 . S
C651 H659 0.929 . S
C652 C651 1.383 . S
C652 C653 1.377 . S
C653 H637 0.930 . S
C653 C652 1.377 . S
C653 C654 1.379 . S
C654 H638 0.931 . S
C654 C648 1.383 . S
C654 C653 1.379 . S
H655 C649 0.959 . S
H656 C649 0.961 . S
H657 C649 0.960 . S
H658 C650 0.930 . S
H659 C651 0.929 . S
H660 C668 0.929 . S
H661 C670 0.930 . S
H662 C672 0.930 . S
H663 C675 0.929 . S
H664 C678 0.930 . S
H665 C680 0.960 . S
H666 C680 0.960 . S
H667 C680 0.960 . S
C668 H660 0.929 . S
C668 C669 1.377 . S
C668 C670 1.384 . S
C669 C668 1.377 . S
C669 C675 1.390 . S
C670 H661 0.930 . S
C670 C668 1.384 . S
C670 C671 1.372 . S
C671 C670 1.372 . S
C671 C672 1.400 . S
C671 C676 1.490 . S
C672 H662 0.930 . S
C672 C671 1.400 . S
C672 C675 1.386 . S
H673 C689 0.930 . S
H674 C690 0.931 . S
C675 H663 0.929 . S
C675 C669 1.390 . S
C675 C672 1.386 . S
C676 C671 1.490 . S
C676 C678 1.395 . S
C676 C679 1.403 . S
H677 C683 0.930 . S
C678 H664 0.930 . S
C678 C676 1.395 . S
C678 C681 1.403 1_655 S
C679 C676 1.403 . S
C679 C680 1.524 . S
C679 C683 1.400 1_655 S
C680 H665 0.960 . S
C680 H666 0.960 . S
C680 H667 0.960 . S
C680 C679 1.524 . S
C681 C678 1.403 1_455 S
C681 C682 1.392 . S
C681 C685 1.495 . S
C682 C681 1.392 . S
C682 C683 1.385 . S
C682 C684 1.478 . S
C683 H677 0.930 . S
C683 C679 1.400 1_455 S
C683 C682 1.385 . S
C684 C682 1.478 . S
C684 C686 1.381 . S
C684 C690 1.383 . S
C685 C681 1.495 . S
C685 H691 0.959 . S
C685 H692 0.961 . S
C685 H693 0.960 . S
C686 C684 1.381 . S
C686 C687 1.394 . S
C686 H694 0.930 . S
C687 C686 1.394 . S
C687 C688 1.383 . S
C687 H695 0.929 . S
C688 C687 1.383 . S
C688 C689 1.377 . S
C689 H673 0.930 . S
C689 C688 1.377 . S
C689 C690 1.379 . S
C690 H674 0.931 . S
C690 C684 1.383 . S
C690 C689 1.379 . S
H691 C685 0.959 . S
H692 C685 0.961 . S
H693 C685 0.960 . S
H694 C686 0.930 . S
H695 C687 0.929 . S
H696 C704 0.929 . S
H697 C706 0.930 . S
H698 C708 0.930 . S
H699 C711 0.929 . S
H700 C714 0.930 . S
H701 C716 0.960 . S
H702 C716 0.954 1_565 S
H703 C716 0.960 1_565 S
C704 H696 0.929 . S
C704 C705 1.377 . S
C704 C706 1.384 . S
C705 C704 1.377 . S
C705 C711 1.390 . S
C706 H697 0.930 . S
C706 C704 1.384 . S
C706 C707 1.372 . S
C707 C706 1.372 . S
C707 C708 1.400 . S
C707 C712 1.490 . S
C708 H698 0.930 . S
C708 C707 1.400 . S
C708 C711 1.386 . S
H709 C725 0.930 . S
H710 C726 0.931 . S
C711 H699 0.929 . S
C711 C705 1.390 . S
C711 C708 1.386 . S
C712 C707 1.490 . S
C712 C714 1.395 1_554 S
C712 C715 1.394 1_565 S
H713 C719 0.930 . S
C714 H700 0.930 . S
C714 C712 1.395 1_556 S
C714 C717 1.403 . S
C715 C712 1.394 1_545 S
C715 C716 1.526 . S
C715 C719 1.406 . S
C716 H701 0.960 . S
C716 H702 0.954 1_545 S
C716 H703 0.960 1_545 S
C716 C715 1.526 . S
C717 C714 1.403 . S
C717 C718 1.392 1_565 S
C717 C721 1.495 . S
C718 C717 1.392 1_545 S
C718 C719 1.385 1_556 S
C718 C720 1.478 . S
C719 H713 0.930 . S
C719 C715 1.406 . S
C719 C718 1.385 1_554 S
C720 C718 1.478 . S
C720 C722 1.381 . S
C720 C726 1.383 . S
C721 C717 1.495 . S
C721 H727 0.959 . S
C721 H728 0.972 . S
C721 H729 0.960 1_565 S
C722 C720 1.381 . S
C722 C723 1.394 . S
C722 H730 0.930 . S
C723 C722 1.394 . S
C723 C724 1.383 . S
C723 H731 0.929 . S
C724 C723 1.383 . S
C724 C725 1.377 . S
C725 H709 0.930 . S
C725 C724 1.377 . S
C725 C726 1.379 . S
C726 H710 0.931 . S
C726 C720 1.383 . S
C726 C725 1.379 . S
H727 C721 0.959 . S
H728 C721 0.972 . S
H729 C721 0.960 1_545 S
H730 C722 0.930 . S
H731 C723 0.929 . S
H732 C740 0.929 . S
H733 C742 0.930 . S
H734 C744 0.930 . S
H735 C747 0.929 . S
H736 C750 0.930 . S
H737 C752 0.960 . S
H738 C752 0.960 . S
H739 C752 0.960 . S
C740 H732 0.929 . S
C740 C741 1.377 . S
C740 C742 1.384 . S
C741 C740 1.377 . S
C741 C747 1.390 . S
C742 H733 0.930 . S
C742 C740 1.384 . S
C742 C743 1.372 . S
C743 C742 1.372 . S
C743 C744 1.400 . S
C743 C748 1.490 . S
C744 H734 0.930 . S
C744 C743 1.400 . S
C744 C747 1.386 . S
H745 C761 0.930 . S
H746 C762 0.931 . S
C747 H735 0.929 . S
C747 C741 1.390 . S
C747 C744 1.386 . S
C748 C743 1.490 . S
C748 C750 1.395 . S
C748 C751 1.403 . S
H749 C755 0.930 . S
C750 H736 0.930 . S
C750 C748 1.395 . S
C750 C753 1.403 . S
C751 C748 1.403 . S
C751 C752 1.524 . S
C751 C755 1.400 . S
C752 H737 0.960 . S
C752 H738 0.960 . S
C752 H739 0.960 . S
C752 C751 1.524 . S
C753 C750 1.403 . S
C753 C754 1.392 . S
C753 C757 1.495 . S
C754 C753 1.392 . S
C754 C755 1.385 . S
C754 C756 1.478 . S
C755 H749 0.930 . S
C755 C751 1.400 . S
C755 C754 1.385 . S
C756 C754 1.478 . S
C756 C758 1.381 . S
C756 C762 1.383 . S
C757 C753 1.495 . S
C757 H763 0.959 . S
C757 H764 0.961 . S
C757 H765 0.960 . S
C758 C756 1.381 . S
C758 C759 1.394 . S
C758 H766 0.930 . S
C759 C758 1.394 . S
C759 C760 1.383 . S
C759 H767 0.929 . S
C760 C759 1.383 . S
C760 C761 1.377 . S
C761 H745 0.930 . S
C761 C760 1.377 . S
C761 C762 1.379 . S
C762 H746 0.931 . S
C762 C756 1.383 . S
C762 C761 1.379 . S
H763 C757 0.959 . S
H764 C757 0.961 . S
H765 C757 0.960 . S
H766 C758 0.930 . S
H767 C759 0.929 . S
H768 C776 0.929 . S
H769 C778 0.930 . S
H770 C780 0.930 . S
H771 C783 0.929 . S
H772 C786 0.930 . S
H773 C788 0.960 . S
H774 C788 0.960 . S
H775 C788 0.960 . S
C776 H768 0.929 . S
C776 C777 1.377 . S
C776 C778 1.384 . S
C777 C776 1.377 . S
C777 C783 1.390 . S
C778 H769 0.930 . S
C778 C776 1.384 . S
C778 C779 1.372 . S
C779 C778 1.372 . S
C779 C780 1.400 . S
C779 C784 1.490 . S
C780 H770 0.930 . S
C780 C779 1.400 . S
C780 C783 1.386 . S
H781 C797 0.930 . S
H782 C798 0.931 . S
C783 H771 0.929 . S
C783 C777 1.390 . S
C783 C780 1.386 . S
C784 C779 1.490 . S
C784 C786 1.395 . S
C784 C787 1.403 . S
H785 C791 0.930 . S
C786 H772 0.930 . S
C786 C784 1.395 . S
C786 C789 1.403 1_455 S
C787 C784 1.403 . S
C787 C788 1.524 . S
C787 C791 1.400 1_455 S
C788 H773 0.960 . S
C788 H774 0.960 . S
C788 H775 0.960 . S
C788 C787 1.524 . S
C789 C786 1.403 1_655 S
C789 C790 1.392 . S
C789 C793 1.495 . S
C790 C789 1.392 . S
C790 C791 1.385 . S
C790 C792 1.478 . S
C791 H785 0.930 . S
C791 C787 1.400 1_655 S
C791 C790 1.385 . S
C792 C790 1.478 . S
C792 C794 1.381 . S
C792 C798 1.383 . S
C793 C789 1.495 . S
C793 H799 0.959 . S
C793 H800 0.961 . S
C793 H801 0.960 . S
C794 C792 1.381 . S
C794 C795 1.394 . S
C794 H802 0.930 . S
C795 C794 1.394 . S
C795 C796 1.383 . S
C795 H803 0.929 . S
C796 C795 1.383 . S
C796 C797 1.377 . S
C797 H781 0.930 . S
C797 C796 1.377 . S
C797 C798 1.379 . S
C798 H782 0.931 . S
C798 C792 1.383 . S
C798 C797 1.379 . S
H799 C793 0.959 . S
H800 C793 0.961 . S
H801 C793 0.960 . S
H802 C794 0.930 . S
H803 C795 0.929 . S
H804 C812 0.929 . S
H805 C814 0.930 . S
H806 C816 0.930 . S
H807 C819 0.929 . S
H808 C822 0.930 . S
H809 C824 0.960 . S
H810 C824 0.960 . S
H811 C824 0.960 . S
C812 H804 0.929 . S
C812 C813 1.377 . S
C812 C814 1.384 1_655 S
C813 C812 1.377 . S
C813 C819 1.390 1_655 S
C814 H805 0.930 . S
C814 C812 1.384 1_455 S
C814 C815 1.372 . S
C815 C814 1.372 . S
C815 C816 1.400 . S
C815 C820 1.490 . S
C816 H806 0.930 . S
C816 C815 1.400 . S
C816 C819 1.386 . S
H817 C833 0.930 . S
H818 C834 0.931 . S
C819 H807 0.929 . S
C819 C813 1.390 1_455 S
C819 C816 1.386 . S
C820 C815 1.490 . S
C820 C822 1.395 . S
C820 C823 1.403 1_556 S
H821 C827 0.930 . S
C822 H808 0.930 . S
C822 C820 1.395 . S
C822 C825 1.403 . S
C823 C820 1.403 1_554 S
C823 C824 1.524 . S
C823 C827 1.400 . S
C824 H809 0.960 . S
C824 H810 0.960 . S
C824 H811 0.960 . S
C824 C823 1.524 . S
C825 C822 1.403 . S
C825 C826 1.392 1_556 S
C825 C829 1.495 . S
C826 C825 1.392 1_554 S
C826 C827 1.385 . S
C826 C828 1.478 . S
C827 H821 0.930 . S
C827 C823 1.400 . S
C827 C826 1.385 . S
C828 C826 1.478 . S
C828 C830 1.381 . S
C828 C834 1.383 . S
C829 C825 1.495 . S
C829 H835 0.959 . S
C829 H836 0.961 . S
C829 H837 0.960 . S
C830 C828 1.381 . S
C830 C831 1.394 . S
C830 H838 0.930 . S
C831 C830 1.394 . S
C831 C832 1.383 . S
C831 H839 0.929 . S
C832 C831 1.383 . S
C832 C833 1.377 . S
C833 H817 0.930 . S
C833 C832 1.377 . S
C833 C834 1.379 . S
C834 H818 0.931 . S
C834 C828 1.383 . S
C834 C833 1.379 . S
H835 C829 0.959 . S
H836 C829 0.961 . S
H837 C829 0.960 . S
H838 C830 0.930 . S
H839 C831 0.929 . S
H840 C848 0.929 . S
H841 C850 0.930 . S
H842 C852 0.930 . S
H843 C855 0.929 . S
H844 C858 0.930 . S
H845 C860 0.960 . S
H846 C860 0.960 . S
H847 C860 0.960 . S
C848 H840 0.929 . S
C848 C849 1.377 . S
C848 C850 1.384 1_565 S
C849 C848 1.377 . S
C849 C855 1.390 1_565 S
C850 H841 0.930 . S
C850 C848 1.384 1_545 S
C850 C851 1.372 . S
C851 C850 1.372 . S
C851 C852 1.400 . S
C851 C856 1.490 . S
C852 H842 0.930 . S
C852 C851 1.400 . S
C852 C855 1.386 . S
H853 C869 0.930 1_455 S
H854 C870 0.931 . S
C855 H843 0.929 . S
C855 C849 1.390 1_545 S
C855 C852 1.386 . S
C856 C851 1.490 . S
C856 C858 1.395 . S
C856 C859 1.403 . S
H857 C863 0.930 . S
C858 H844 0.930 . S
C858 C856 1.395 . S
C858 C861 1.403 . S
C859 C856 1.403 . S
C859 C860 1.524 . S
C859 C863 1.400 . S
C860 H845 0.960 . S
C860 H846 0.960 . S
C860 H847 0.960 . S
C860 C859 1.524 . S
C861 C858 1.403 . S
C861 C862 1.392 . S
C861 C865 1.495 . S
C862 C861 1.392 . S
C862 C863 1.385 . S
C862 C864 1.478 . S
C863 H857 0.930 . S
C863 C859 1.400 . S
C863 C862 1.385 . S
C864 C862 1.478 . S
C864 C866 1.381 . S
C864 C870 1.383 . S
C865 C861 1.495 . S
C865 H871 0.959 . S
C865 H872 0.961 . S
C865 H873 0.960 . S
C866 C864 1.381 . S
C866 C867 1.394 . S
C866 H874 0.930 . S
C867 C866 1.394 . S
C867 C868 1.383 1_655 S
C867 H875 0.929 . S
C868 C867 1.383 1_455 S
C868 C869 1.377 1_455 S
C869 H853 0.930 1_655 S
C869 C868 1.377 1_655 S
C869 C870 1.379 . S
C870 H854 0.931 . S
C870 C864 1.383 . S
C870 C869 1.379 . S
H871 C865 0.959 . S
H872 C865 0.961 . S
H873 C865 0.960 . S
H874 C866 0.930 . S
H875 C867 0.929 . S
H876 C884 0.929 . S
H877 C886 0.930 . S
H878 C888 0.930 . S
H879 C891 0.929 . S
H880 C894 0.930 . S
H881 C896 0.960 . S
H882 C896 0.960 . S
H883 C896 0.960 . S
C884 H876 0.929 . S
C884 C885 1.377 . S
C884 C886 1.384 . S
C885 C884 1.377 . S
C885 C891 1.390 . S
C886 H877 0.930 . S
C886 C884 1.384 . S
C886 C887 1.372 . S
C887 C886 1.372 . S
C887 C888 1.400 . S
C887 C892 1.490 . S
C888 H878 0.930 . S
C888 C887 1.400 . S
C888 C891 1.386 . S
H889 C905 0.930 . S
H890 C906 0.931 . S
C891 H879 0.929 . S
C891 C885 1.390 . S
C891 C888 1.386 . S
C892 C887 1.490 . S
C892 C894 1.395 . S
C892 C895 1.403 . S
H893 C899 0.930 . S
C894 H880 0.930 . S
C894 C892 1.395 . S
C894 C897 1.403 . S
C895 C892 1.403 . S
C895 C896 1.524 . S
C895 C899 1.400 . S
C896 H881 0.960 . S
C896 H882 0.960 . S
C896 H883 0.960 . S
C896 C895 1.524 . S
C897 C894 1.403 . S
C897 C898 1.392 . S
C897 C901 1.495 . S
C898 C897 1.392 . S
C898 C899 1.385 . S
C898 C900 1.478 . S
C899 H893 0.930 . S
C899 C895 1.400 . S
C899 C898 1.385 . S
C900 C898 1.478 . S
C900 C902 1.381 . S
C900 C906 1.383 . S
C901 C897 1.495 . S
C901 H907 0.959 . S
C901 H908 0.961 . S
C901 H909 0.960 . S
C902 C900 1.381 . S
C902 C903 1.394 . S
C902 H910 0.930 . S
C903 C902 1.394 . S
C903 C904 1.383 1_565 S
C903 H911 0.929 . S
C904 C903 1.383 1_545 S
C904 C905 1.377 . S
C905 H889 0.930 . S
C905 C904 1.377 . S
C905 C906 1.379 1_545 S
C906 H890 0.931 . S
C906 C900 1.383 . S
C906 C905 1.379 1_565 S
H907 C901 0.959 . S
H908 C901 0.961 . S
H909 C901 0.960 . S
H910 C902 0.930 . S
H911 C903 0.929 . S
H912 C920 0.929 . S
H913 C922 0.930 . S
H914 C924 0.930 . S
H915 C927 0.929 . S
H916 C930 0.930 . S
H917 C932 0.960 . S
H918 C932 0.960 . S
H919 C932 0.960 . S
C920 H912 0.929 . S
C920 C921 1.377 . S
C920 C922 1.384 . S
C921 C920 1.377 . S
C921 C927 1.390 . S
C922 H913 0.930 . S
C922 C920 1.384 . S
C922 C923 1.372 . S
C923 C922 1.372 . S
C923 C924 1.400 . S
C923 C928 1.490 . S
C924 H914 0.930 . S
C924 C923 1.400 . S
C924 C927 1.386 . S
H925 C941 0.930 . S
H926 C942 0.931 . S
C927 H915 0.929 . S
C927 C921 1.390 . S
C927 C924 1.386 . S
C928 C923 1.490 . S
C928 C930 1.395 . S
C928 C931 1.403 1_554 S
H929 C935 0.930 . S
C930 H916 0.930 . S
C930 C928 1.395 . S
C930 C933 1.403 . S
C931 C928 1.403 1_556 S
C931 C932 1.524 . S
C931 C935 1.400 . S
C932 H917 0.960 . S
C932 H918 0.960 . S
C932 H919 0.960 . S
C932 C931 1.524 . S
C933 C930 1.403 . S
C933 C934 1.392 1_554 S
C933 C937 1.495 . S
C934 C933 1.392 1_556 S
C934 C935 1.385 . S
C934 C936 1.478 . S
C935 H929 0.930 . S
C935 C931 1.400 . S
C935 C934 1.385 . S
C936 C934 1.478 . S
C936 C938 1.381 . S
C936 C942 1.383 . S
C937 C933 1.495 . S
C937 H943 0.959 . S
C937 H944 0.961 . S
C937 H945 0.960 . S
C938 C936 1.381 . S
C938 C939 1.394 1_655 S
C938 H946 0.930 . S
C939 C938 1.394 1_455 S
C939 C940 1.383 . S
C939 H947 0.929 . S
C940 C939 1.383 . S
C940 C941 1.377 1_455 S
C941 H925 0.930 . S
C941 C940 1.377 1_655 S
C941 C942 1.379 . S
C942 H926 0.931 . S
C942 C936 1.383 . S
C942 C941 1.379 . S
H943 C937 0.959 . S
H944 C937 0.961 . S
H945 C937 0.960 . S
H946 C938 0.930 . S
H947 C939 0.929 . S
H948 C956 0.929 . S
H949 C958 0.930 . S
H950 C960 0.930 . S
H951 C963 0.929 . S
H952 C966 0.930 . S
H953 C968 0.960 . S
H954 C968 0.960 . S
H955 C968 0.960 . S
C956 H948 0.929 . S
C956 C957 1.377 1_455 S
C956 C958 1.384 . S
C957 C956 1.377 1_655 S
C957 C963 1.390 . S
C958 H949 0.930 . S
C958 C956 1.384 . S
C958 C959 1.372 . S
C959 C958 1.372 . S
C959 C960 1.400 . S
C959 C964 1.490 . S
C960 H950 0.930 . S
C960 C959 1.400 . S
C960 C963 1.386 1_455 S
H961 C977 0.930 1_545 S
H962 C978 0.931 . S
C963 H951 0.929 . S
C963 C957 1.390 . S
C963 C960 1.386 1_655 S
C964 C959 1.490 . S
C964 C966 1.395 . S
C964 C967 1.403 . S
H965 C971 0.930 . S
C966 H952 0.930 . S
C966 C964 1.395 . S
C966 C969 1.403 . S
C967 C964 1.403 . S
C967 C968 1.524 . S
C967 C971 1.400 . S
C968 H953 0.960 . S
C968 H954 0.960 . S
C968 H955 0.960 . S
C968 C967 1.524 . S
C969 C966 1.403 . S
C969 C970 1.392 . S
C969 C973 1.495 . S
C970 C969 1.392 . S
C970 C971 1.385 . S
C970 C972 1.478 . S
C971 H965 0.930 . S
C971 C967 1.400 . S
C971 C970 1.385 . S
C972 C970 1.478 . S
C972 C974 1.381 . S
C972 C978 1.383 . S
C973 C969 1.495 . S
C973 H979 0.959 . S
C973 H980 0.961 . S
C973 H981 0.960 . S
C974 C972 1.381 . S
C974 C975 1.394 . S
C974 H982 0.930 . S
C975 C974 1.394 . S
C975 C976 1.383 1_565 S
C975 H983 0.929 . S
C976 C975 1.383 1_545 S
C976 C977 1.377 1_545 S
C977 H961 0.930 1_565 S
C977 C976 1.377 1_565 S
C977 C978 1.379 . S
C978 H962 0.931 . S
C978 C972 1.383 . S
C978 C977 1.379 . S
H979 C973 0.959 . S
H980 C973 0.961 . S
H981 C973 0.960 . S
H982 C974 0.930 . S
H983 C975 0.929 . S
H984 C992 0.929 1_565 S
H985 C994 0.930 . S
H986 C996 0.930 . S
H987 C999 0.929 . S
H988 C1002 0.930 . S
H989 C1004 0.960 . S
H990 C1004 0.960 . S
H991 C1004 0.960 . S
C992 H984 0.929 1_545 S
C992 C993 1.377 1_545 S
C992 C994 1.384 . S
C993 C992 1.377 1_565 S
C993 C999 1.390 1_565 S
C994 H985 0.930 . S
C994 C992 1.384 . S
C994 C995 1.372 . S
C995 C994 1.372 . S
C995 C996 1.400 . S
C995 C1000 1.490 . S
C996 H986 0.930 . S
C996 C995 1.400 . S
C996 C999 1.386 . S
H997 C1013 0.930 . S
H998 C1014 0.931 . S
C999 H987 0.929 . S
C999 C993 1.390 1_545 S
C999 C996 1.386 . S
C1000 C995 1.490 . S
C1000 C1002 1.395 . S
C1000 C1003 1.403 . S
H1001 C1007 0.930 . S
C1002 H988 0.930 . S
C1002 C1000 1.395 . S
C1002 C1005 1.403 . S
C1003 C1000 1.403 . S
C1003 C1004 1.524 . S
C1003 C1007 1.400 . S
C1004 H989 0.960 . S
C1004 H990 0.960 . S
C1004 H991 0.960 . S
C1004 C1003 1.524 . S
C1005 C1002 1.403 . S
C1005 C1006 1.392 . S
C1005 C1009 1.495 . S
C1006 C1005 1.392 . S
C1006 C1007 1.385 . S
C1006 C1008 1.478 . S
C1007 H1001 0.930 . S
C1007 C1003 1.400 . S
C1007 C1006 1.385 . S
C1008 C1006 1.478 . S
C1008 C1010 1.381 . S
C1008 C1014 1.383 . S
C1009 C1005 1.495 . S
C1009 H1015 0.959 . S
C1009 H1016 0.961 . S
C1009 H1017 0.960 . S
C1010 C1008 1.381 . S
C1010 C1011 1.394 . S
C1010 H1018 0.930 . S
C1011 C1010 1.394 . S
C1011 C1012 1.383 . S
C1011 H1019 0.929 . S
C1012 C1011 1.383 . S
C1012 C1013 1.377 . S
C1013 H997 0.930 . S
C1013 C1012 1.377 . S
C1013 C1014 1.379 . S
C1014 H998 0.931 . S
C1014 C1008 1.383 . S
C1014 C1013 1.379 . S
H1015 C1009 0.959 . S
H1016 C1009 0.961 . S
H1017 C1009 0.960 . S
H1018 C1010 0.930 . S
H1019 C1011 0.929 . S
C165 C43 1.537 . S
C184 C10 1.530 . S
C201 C17 1.535 . S
C220 C56 1.544 . S
C237 C75 1.536 . S
C256 C36 1.544 . S
C273 C82 1.535 . S
C292 C121 1.521 . S
C309 C134 1.534 . S
C328 C101 1.543 . S
C345 C114 1.536 . S
C364 C147 1.521 . S
C381 C108 1.692 . S
C400 C4 1.684 . S
C417 C23 1.691 . S
C436 C127 1.687 . S
C453 C30 1.691 . S
C472 C140 1.693 . S
C489 C49 1.691 . S
C508 C153 1.688 . S
C525 C88 1.692 . S
C544 C62 1.684 . S
C561 C95 1.691 . S
C580 C69 1.686 . S
C597 C94 1.188 . S
C616 C3 1.176 . S
C633 C18 1.186 . S
C652 C107 1.197 . S
C669 C29 1.191 . S
C688 C122 1.171 . S
C705 C44 1.187 . S
C724 C135 1.180 . S
C741 C148 1.186 . S
C760 C57 1.191 . S
C777 C68 1.193 . S
C796 C83 1.173 . S
C813 C133 1.379 . S
C832 C5 1.374 . S
C849 C146 1.379 . S
C868 C16 1.373 . S
C885 C81 1.380 . S
C904 C31 1.374 . S
C921 C42 1.379 . S
C940 C96 1.376 . S
C957 C55 1.380 . S
C976 C109 1.380 . S
C993 C70 1.379 . S
C1012 C120 1.375 . S
