# Generated by pormake.
# Topology why, (6)-cn, num edge types: 1
# Building blocks:
#     Node 0, Type 0, BuildingBlock: CUWYAW_clean_sbu_0, # of connection points: 6
#     Node 1, Type 0, BuildingBlock: CUWYAW_clean_sbu_0, # of connection points: 6
#     Node 2, Type 0, BuildingBlock: CUWYAW_clean_sbu_0, # of connection points: 6
#     Node 3, Type 0, BuildingBlock: CUWYAW_clean_sbu_0, # of connection points: 6
#     Node 4, Type 0, BuildingBlock: CUWYAW_clean_sbu_0, # of connection points: 6
#     Node 5, Type 0, BuildingBlock: CUWYAW_clean_sbu_0, # of connection points: 6
#     Node 6, Type 0, BuildingBlock: CUWYAW_clean_sbu_0, # of connection points: 6
#     Node 7, Type 0, BuildingBlock: CUWYAW_clean_sbu_0, # of connection points: 6
#     Node 8, Type 0, BuildingBlock: CUWYAW_clean_sbu_0, # of connection points: 6
#     Node 9, Type 0, BuildingBlock: CUWYAW_clean_sbu_0, # of connection points: 6
#     Node 10, Type 0, BuildingBlock: CUWYAW_clean_sbu_0, # of connection points: 6
#     Node 11, Type 0, BuildingBlock: CUWYAW_clean_sbu_0, # of connection points: 6
#     Node 12, Type 0, BuildingBlock: CUWYAW_clean_sbu_0, # of connection points: 6
#     Node 13, Type 0, BuildingBlock: CUWYAW_clean_sbu_0, # of connection points: 6
#     Node 14, Type 0, BuildingBlock: CUWYAW_clean_sbu_0, # of connection points: 6
#     Node 15, Type 0, BuildingBlock: CUWYAW_clean_sbu_0, # of connection points: 6
#     Edge 16, Type (0, 0), BuildingBlock: UVAHIK_clean_linker_0, # of connection points: 2
#     Edge 17, Type (0, 0), BuildingBlock: UVAHIK_clean_linker_0, # of connection points: 2
#     Edge 18, Type (0, 0), BuildingBlock: UVAHIK_clean_linker_0, # of connection points: 2
#     Edge 19, Type (0, 0), BuildingBlock: UVAHIK_clean_linker_0, # of connection points: 2
#     Edge 20, Type (0, 0), BuildingBlock: UVAHIK_clean_linker_0, # of connection points: 2
#     Edge 21, Type (0, 0), BuildingBlock: UVAHIK_clean_linker_0, # of connection points: 2
#     Edge 22, Type (0, 0), BuildingBlock: UVAHIK_clean_linker_0, # of connection points: 2
#     Edge 23, Type (0, 0), BuildingBlock: UVAHIK_clean_linker_0, # of connection points: 2
#     Edge 24, Type (0, 0), BuildingBlock: UVAHIK_clean_linker_0, # of connection points: 2
#     Edge 25, Type (0, 0), BuildingBlock: UVAHIK_clean_linker_0, # of connection points: 2
#     Edge 26, Type (0, 0), BuildingBlock: UVAHIK_clean_linker_0, # of connection points: 2
#     Edge 27, Type (0, 0), BuildingBlock: UVAHIK_clean_linker_0, # of connection points: 2
#     Edge 28, Type (0, 0), BuildingBlock: UVAHIK_clean_linker_0, # of connection points: 2
#     Edge 29, Type (0, 0), BuildingBlock: UVAHIK_clean_linker_0, # of connection points: 2
#     Edge 30, Type (0, 0), BuildingBlock: UVAHIK_clean_linker_0, # of connection points: 2
#     Edge 31, Type (0, 0), BuildingBlock: UVAHIK_clean_linker_0, # of connection points: 2
#     Edge 32, Type (0, 0), BuildingBlock: UVAHIK_clean_linker_0, # of connection points: 2
#     Edge 33, Type (0, 0), BuildingBlock: UVAHIK_clean_linker_0, # of connection points: 2
#     Edge 34, Type (0, 0), BuildingBlock: UVAHIK_clean_linker_0, # of connection points: 2
#     Edge 35, Type (0, 0), BuildingBlock: UVAHIK_clean_linker_0, # of connection points: 2
#     Edge 36, Type (0, 0), BuildingBlock: UVAHIK_clean_linker_0, # of connection points: 2
#     Edge 37, Type (0, 0), BuildingBlock: UVAHIK_clean_linker_0, # of connection points: 2
#     Edge 38, Type (0, 0), BuildingBlock: UVAHIK_clean_linker_0, # of connection points: 2
#     Edge 39, Type (0, 0), BuildingBlock: UVAHIK_clean_linker_0, # of connection points: 2
#     Edge 40, Type (0, 0), BuildingBlock: UVAHIK_clean_linker_0, # of connection points: 2
#     Edge 41, Type (0, 0), BuildingBlock: UVAHIK_clean_linker_0, # of connection points: 2
#     Edge 42, Type (0, 0), BuildingBlock: UVAHIK_clean_linker_0, # of connection points: 2
#     Edge 43, Type (0, 0), BuildingBlock: UVAHIK_clean_linker_0, # of connection points: 2
#     Edge 44, Type (0, 0), BuildingBlock: UVAHIK_clean_linker_0, # of connection points: 2
#     Edge 45, Type (0, 0), BuildingBlock: UVAHIK_clean_linker_0, # of connection points: 2
#     Edge 46, Type (0, 0), BuildingBlock: UVAHIK_clean_linker_0, # of connection points: 2
#     Edge 47, Type (0, 0), BuildingBlock: UVAHIK_clean_linker_0, # of connection points: 2
#     Edge 48, Type (0, 0), BuildingBlock: UVAHIK_clean_linker_0, # of connection points: 2
#     Edge 49, Type (0, 0), BuildingBlock: UVAHIK_clean_linker_0, # of connection points: 2
#     Edge 50, Type (0, 0), BuildingBlock: UVAHIK_clean_linker_0, # of connection points: 2
#     Edge 51, Type (0, 0), BuildingBlock: UVAHIK_clean_linker_0, # of connection points: 2
#     Edge 52, Type (0, 0), BuildingBlock: UVAHIK_clean_linker_0, # of connection points: 2
#     Edge 53, Type (0, 0), BuildingBlock: UVAHIK_clean_linker_0, # of connection points: 2
#     Edge 54, Type (0, 0), BuildingBlock: UVAHIK_clean_linker_0, # of connection points: 2
#     Edge 55, Type (0, 0), BuildingBlock: UVAHIK_clean_linker_0, # of connection points: 2
#     Edge 56, Type (0, 0), BuildingBlock: UVAHIK_clean_linker_0, # of connection points: 2
#     Edge 57, Type (0, 0), BuildingBlock: UVAHIK_clean_linker_0, # of connection points: 2
#     Edge 58, Type (0, 0), BuildingBlock: UVAHIK_clean_linker_0, # of connection points: 2
#     Edge 59, Type (0, 0), BuildingBlock: UVAHIK_clean_linker_0, # of connection points: 2
#     Edge 60, Type (0, 0), BuildingBlock: UVAHIK_clean_linker_0, # of connection points: 2
#     Edge 61, Type (0, 0), BuildingBlock: UVAHIK_clean_linker_0, # of connection points: 2
#     Edge 62, Type (0, 0), BuildingBlock: UVAHIK_clean_linker_0, # of connection points: 2
#     Edge 63, Type (0, 0), BuildingBlock: UVAHIK_clean_linker_0, # of connection points: 2
# Relax obj value: 0.348
# Max RMSD: 0.221
# Mean RMSD: 0.221
data_MOF--net-why--node1-CUWYAW_clean_sbu_0--edge1-UVAHIK_clean_linker_0
_symmetry_space_group_name_H-M    P1
_symmetry_Int_Tables_number       1
_symmetry_cell_setting            triclinic
loop_
_symmetry_equiv_pos_as_xyz
'x, y, z'
_cell_length_a     61.681701
_cell_length_b     61.675548
_cell_length_c     47.256326
_cell_angle_alpha  89.894777
_cell_angle_beta   89.967986
_cell_angle_gamma 89.862954
loop_
_atom_site_label
_atom_site_type_symbol
_atom_site_fract_x
_atom_site_fract_y
_atom_site_fract_z
_atom_type_partial_charge
C0 C 0.43337 0.23102 0.14261 0.0
Eu1 Eu 0.45064 0.21729 0.09569 0.0
C2 C 0.41605 0.24642 0.14892 0.0
C3 C 0.40556 0.25725 0.12671 0.0
C4 C 0.39294 0.27551 0.13219 0.0
C5 C 0.39044 0.28306 0.16005 0.0
C6 C 0.39952 0.27098 0.18245 0.0
C7 C 0.41243 0.25287 0.17687 0.0
C8 C 0.44837 0.23892 0.04585 0.0
C9 C 0.42149 0.19732 0.04448 0.0
C10 C 0.49735 0.17623 0.0147 0.0
Eu11 Eu 0.47291 0.19401 0.05316 0.0
C12 C 0.51248 0.18328 0.99263 0.0
C13 C 0.51487 0.1704 0.96848 0.0
C14 C 0.52715 0.17773 0.94564 0.0
C15 C 0.53733 0.19807 0.94664 0.0
C16 C 0.5354 0.21076 0.97119 0.0
C17 C 0.52286 0.20348 0.99399 0.0
C18 C 0.45982 0.16794 0.09799 0.0
C19 C 0.50003 0.23344 0.08519 0.0
O20 O 0.42769 0.21285 0.13048 0.0
O21 O 0.45033 0.23982 0.13079 0.0
O22 O 0.43304 0.23917 0.06459 0.0
O23 O 0.46464 0.22877 0.05493 0.0
O24 O 0.42152 0.20211 0.07193 0.0
O25 O 0.4402 0.19566 0.03105 0.0
O26 O 0.4772 0.18191 0.01045 0.0
O27 O 0.50341 0.17851 0.04109 0.0
O28 O 0.45658 0.16393 0.0716 0.0
O29 O 0.46905 0.18618 0.09987 0.0
O30 O 0.49956 0.21938 0.06385 0.0
O31 O 0.48316 0.23446 0.10245 0.0
H32 H 0.40822 0.25242 0.105 0.0
H33 H 0.38632 0.28443 0.11441 0.0
H34 H 0.3974 0.27602 0.20421 0.0
H35 H 0.42044 0.24461 0.19422 0.0
H36 H 0.50678 0.15485 0.96702 0.0
H37 H 0.52862 0.16752 0.9271 0.0
H38 H 0.54303 0.22653 0.97239 0.0
H39 H 0.52087 0.2138 0.01232 0.0
C40 C 0.67049 0.67881 0.39811 0.0
Eu41 Eu 0.68225 0.69177 0.34807 0.0
C42 C 0.6777 0.66376 0.42045 0.0
C43 C 0.67823 0.64125 0.41611 0.0
C44 C 0.68281 0.62727 0.4386 0.0
C45 C 0.68697 0.63553 0.4658 0.0
C46 C 0.68775 0.65811 0.4696 0.0
C47 C 0.68306 0.67207 0.44716 0.0
C48 C 0.66098 0.69263 0.29851 0.0
C49 C 0.70431 0.66282 0.30062 0.0
C50 C 0.72785 0.7334 0.26728 0.0
Eu51 Eu 0.70592 0.71602 0.30878 0.0
C52 C 0.72431 0.74721 0.24247 0.0
C53 C 0.74157 0.75969 0.23234 0.0
C54 C 0.73865 0.7734 0.20916 0.0
C55 C 0.71839 0.77481 0.19568 0.0
C56 C 0.7011 0.76213 0.20579 0.0
C57 C 0.70401 0.74848 0.22916 0.0
C58 C 0.72799 0.71095 0.35938 0.0
C59 C 0.66631 0.74275 0.33751 0.0
O60 O 0.68283 0.69571 0.39376 0.0
O61 O 0.66277 0.67055 0.37469 0.0
O62 O 0.66007 0.67642 0.3161 0.0
O63 O 0.67103 0.7085 0.30899 0.0
O64 O 0.69706 0.66196 0.32698 0.0
O65 O 0.70787 0.682 0.28878 0.0
O66 O 0.71978 0.71387 0.26644 0.0
O67 O 0.72512 0.74266 0.29179 0.0
O68 O 0.72485 0.72911 0.34647 0.0
O69 O 0.71819 0.69625 0.34582 0.0
O70 O 0.67965 0.74214 0.3155 0.0
O71 O 0.66577 0.72555 0.35451 0.0
H72 H 0.67432 0.63438 0.39567 0.0
H73 H 0.68178 0.60996 0.43501 0.0
H74 H 0.69114 0.66496 0.49021 0.0
H75 H 0.6829 0.68939 0.45093 0.0
H76 H 0.75733 0.75887 0.24242 0.0
H77 H 0.75234 0.78273 0.20158 0.0
H78 H 0.68527 0.76303 0.19592 0.0
H79 H 0.69046 0.73902 0.2369 0.0
C80 C 0.22886 0.91917 0.64447 0.0
Eu81 Eu 0.20895 0.92912 0.5978 0.0
C82 C 0.25185 0.91751 0.65297 0.0
C83 C 0.26125 0.89709 0.65764 0.0
C84 C 0.2831 0.89534 0.66499 0.0
C85 C 0.29595 0.914 0.66801 0.0
C86 C 0.2865 0.93445 0.66369 0.0
C87 C 0.26468 0.9362 0.6562 0.0
C88 C 0.20994 0.90843 0.54762 0.0
C89 C 0.23623 0.95053 0.54546 0.0
C90 C 0.15875 0.97115 0.51948 0.0
Eu91 Eu 0.18476 0.95256 0.55546 0.0
C92 C 0.14047 0.96716 0.50053 0.0
C93 C 0.13347 0.9841 0.4831 0.0
C94 C 0.11694 0.98075 0.46356 0.0
C95 C 0.10695 0.96035 0.46116 0.0
C96 C 0.11385 0.94338 0.47905 0.0
C97 C 0.13056 0.94677 0.49862 0.0
C98 C 0.19887 0.97854 0.59936 0.0
C99 C 0.15928 0.91256 0.58917 0.0
O100 O 0.22172 0.93868 0.63863 0.0
O101 O 0.22165 0.90454 0.62677 0.0
O102 O 0.22618 0.90845 0.56516 0.0
O103 O 0.19377 0.91813 0.55792 0.0
O104 O 0.23689 0.94556 0.57292 0.0
O105 O 0.21723 0.95199 0.53261 0.0
O106 O 0.17725 0.96225 0.51235 0.0
O107 O 0.15494 0.97035 0.54672 0.0
O108 O 0.20129 0.98267 0.57282 0.0
O109 O 0.19005 0.96005 0.60171 0.0
O110 O 0.1589 0.92702 0.56819 0.0
O111 O 0.17676 0.91119 0.6055 0.0
H112 H 0.25171 0.88245 0.65557 0.0
H113 H 0.28986 0.87937 0.66875 0.0
H114 H 0.29603 0.94908 0.66581 0.0
H115 H 0.25796 0.95224 0.65283 0.0
H116 H 0.14113 0.99988 0.48419 0.0
H117 H 0.11248 0.99405 0.44972 0.0
H118 H 0.10643 0.92752 0.47782 0.0
H119 H 0.13591 0.93348 0.51195 0.0
C120 C 0.98098 0.47811 0.89148 0.0
Eu121 Eu 0.97365 0.45341 0.84796 0.0
C122 C 0.98109 0.50157 0.89733 0.0
C123 C 0.99523 0.51564 0.88301 0.0
C124 C 0.99581 0.53762 0.88989 0.0
C125 C 0.98215 0.54606 0.91107 0.0
C126 C 0.9674 0.53207 0.92455 0.0
C127 C 0.96697 0.51003 0.91783 0.0
C128 C 0.99899 0.44491 0.80286 0.0
C129 C 0.95373 0.4828 0.79488 0.0
C130 C 0.93322 0.40559 0.76657 0.0
Eu131 Eu 0.94986 0.43097 0.80501 0.0
C132 C 0.93999 0.39375 0.74119 0.0
C133 C 0.92438 0.3824 0.72577 0.0
C134 C 0.93002 0.37205 0.7006 0.0
C135 C 0.9514 0.37298 0.69027 0.0
C136 C 0.96718 0.38404 0.70618 0.0
C137 C 0.96149 0.39437 0.7315 0.0
C138 C 0.92415 0.44141 0.85095 0.0
C139 C 0.98849 0.40425 0.83898 0.0
O140 O 0.96206 0.46955 0.8861 0.0
O141 O 0.99633 0.47048 0.87518 0.0
O142 O 1.00643 0.44562 0.82859 0.0
O143 O 0.97938 0.45055 0.80197 0.0
O144 O 0.96157 0.48288 0.82116 0.0
O145 O 0.94968 0.46392 0.7826 0.0
O146 O 0.93352 0.42669 0.76463 0.0
O147 O 0.94071 0.3986 0.79078 0.0
O148 O 0.91896 0.44377 0.82472 0.0
O149 O 0.94325 0.43358 0.85215 0.0
O150 O 0.977 0.40623 0.81534 0.0
O151 O 0.98684 0.41956 0.85861 0.0
H152 H 1.0062 0.50963 0.86692 0.0
H153 H 1.00763 0.54779 0.87938 0.0
H154 H 0.95645 0.53807 0.94066 0.0
H155 H 0.95579 0.49951 0.92897 0.0
H156 H 0.90773 0.38173 0.73305 0.0
H157 H 0.91758 0.3633 0.68921 0.0
H158 H 0.98375 0.38513 0.69876 0.0
H159 H 0.97373 0.40306 0.7433 0.0
C160 C 0.66199 0.96978 0.97625 0.0
Eu161 Eu 0.68692 0.95112 0.9391 0.0
C162 C 0.64442 0.96689 -0.00329 0.0
C163 C 0.64138 0.98301 0.01709 0.0
C164 C 0.62518 0.98094 0.03742 0.0
C165 C 0.61157 0.96269 0.03772 0.0
C166 C 0.61468 0.94643 0.01719 0.0
C167 C 0.63105 0.94852 -0.00324 0.0
C168 C 0.69987 0.97756 0.89482 0.0
C169 C 0.66067 0.91175 0.90549 0.0
C170 C 0.72936 0.91909 0.84823 0.0
Eu171 Eu 0.71018 0.92833 0.89557 0.0
C172 C 0.75211 0.91569 0.84002 0.0
C173 C 0.7656 0.90149 0.8552 0.0
C174 C 0.78752 0.89963 0.84824 0.0
C175 C 0.79645 0.91216 0.82623 0.0
C176 C 0.78288 0.92647 0.81121 0.0
C177 C 0.7609 0.92813 0.81798 0.0
C178 C 0.7124 0.90684 0.94513 0.0
C179 C 0.73849 0.94893 0.94768 0.0
O180 O 0.68063 0.96084 0.98255 0.0
O181 O 0.65719 0.96857 0.94932 0.0
O182 O 0.70299 0.98146 0.92128 0.0
O183 O 0.69108 0.9591 0.89271 0.0
O184 O 0.66084 0.92563 0.92708 0.0
O185 O 0.6777 0.91088 0.88831 0.0
O186 O 0.72464 0.93891 0.85598 0.0
O187 O 0.72034 0.90436 0.86441 0.0
O188 O 0.72813 0.90708 0.9268 0.0
O189 O 0.69593 0.91667 0.93584 0.0
O190 O 0.73866 0.9441 0.92018 0.0
O191 O 0.71972 0.95033 0.96109 0.0
H192 H 0.65172 0.9972 0.01745 0.0
H193 H 0.62363 0.99351 0.05328 0.0
H194 H 0.60443 0.9322 0.01683 0.0
H195 H 0.63331 0.93587 0.98116 0.0
H196 H 0.7593 0.89189 0.87256 0.0
H197 H 0.79736 0.88813 0.8599 0.0
H198 H 0.78924 0.93655 0.79438 0.0
H199 H 0.75082 0.93943 0.80629 0.0
C200 C 0.42816 0.40837 0.72137 0.0
Eu201 Eu 0.44939 0.4323 0.68536 0.0
C202 C 0.43085 0.39164 0.7432 0.0
C203 C 0.4163 0.39155 0.76592 0.0
C204 C 0.41851 0.37646 0.7877 0.0
C205 C 0.4353 0.36099 0.78716 0.0
C206 C 0.44996 0.36113 0.76428 0.0
C207 C 0.44777 0.37639 0.74244 0.0
C208 C 0.42497 0.44696 0.63965 0.0
C209 C 0.48922 0.40402 0.6559 0.0
C210 C 0.49243 0.4703 0.59966 0.0
Eu211 Eu 0.4747 0.45397 0.64495 0.0
C212 C 0.51103 0.48456 0.59506 0.0
C213 C 0.51835 0.49823 0.61674 0.0
C214 C 0.53846 0.50846 0.61442 0.0
C215 C 0.55157 0.50494 0.59053 0.0
C216 C 0.54373 0.49195 0.56838 0.0
C217 C 0.52361 0.48182 0.57067 0.0
C218 C 0.49461 0.45521 0.69595 0.0
C219 C 0.45359 0.48348 0.69495 0.0
O220 O 0.436 0.42747 0.72744 0.0
O221 O 0.43124 0.40285 0.69492 0.0
O222 O 0.42074 0.45046 0.66593 0.0
O223 O 0.44295 0.43705 0.63824 0.0
O224 O 0.47423 0.40466 0.67616 0.0
O225 O 0.49147 0.42109 0.63922 0.0
O226 O 0.47525 0.47868 0.61168 0.0
O227 O 0.49758 0.45147 0.61022 0.0
O228 O 0.4959 0.47063 0.67741 0.0
O229 O 0.48444 0.43927 0.68612 0.0
O230 O 0.45919 0.48343 0.66775 0.0
O231 O 0.4511 0.46473 0.7081 0.0
H232 H 0.40329 0.40337 0.76698 0.0
H233 H 0.40725 0.37723 0.80526 0.0
H234 H 0.46301 0.34938 0.76315 0.0
H235 H 0.45928 0.37636 0.72511 0.0
H236 H 0.50898 0.50026 0.63595 0.0
H237 H 0.54414 0.51835 0.63181 0.0
H238 H 0.55334 0.48929 0.54951 0.0
H239 H 0.51829 0.4711 0.55391 0.0
C240 C 0.99415 0.17916 0.47635 0.0
Eu241 Eu 0.9695 0.19614 0.43732 0.0
C242 C 1.00641 0.18638 0.50123 0.0
C243 C 1.00654 0.17328 0.52545 0.0
C244 C 1.01785 0.17971 0.54955 0.0
C245 C 1.02935 0.19936 0.54978 0.0
C246 C 1.02913 0.21257 0.5255 0.0
C247 C 1.0176 0.2062 0.50143 0.0
C248 C 0.95798 0.16997 0.39216 0.0
C249 C 0.99639 0.23533 0.40489 0.0
C250 C 0.92662 0.23206 0.34947 0.0
Eu251 Eu 0.94712 0.22001 0.39491 0.0
C252 C 0.92994 0.25009 0.32974 0.0
C253 C 0.94151 0.26855 0.33824 0.0
C254 C 0.94398 0.28604 0.31976 0.0
C255 C 0.93518 0.2852 0.29239 0.0
C256 C 0.9244 0.2663 0.28357 0.0
C257 C 0.92176 0.24888 0.30218 0.0
C258 C 0.95624 0.24568 0.43963 0.0
C259 C 0.91793 0.19906 0.44628 0.0
O260 O 0.97311 0.18049 0.47842 0.0
O261 O 1.00131 0.18515 0.45149 0.0
O262 O 0.95601 0.16514 0.41856 0.0
O263 O 0.96595 0.18892 0.3904 0.0
O264 O 0.99503 0.22257 0.42745 0.0
O265 O 0.98041 0.23516 0.38615 0.0
O266 O 0.92047 0.23743 0.375 0.0
O267 O 0.94181 0.21726 0.34945 0.0
O268 O 0.95561 0.25268 0.41371 0.0
O269 O 0.95037 0.22615 0.44104 0.0
O270 O 0.91795 0.20497 0.41916 0.0
O271 O 0.93672 0.19694 0.45951 0.0
H272 H 0.99792 0.15799 0.5257 0.0
H273 H 1.01797 0.1691 0.56784 0.0
H274 H 1.03773 0.22786 0.52521 0.0
H275 H 1.01745 0.21671 0.48304 0.0
H276 H 0.94828 0.26959 0.35934 0.0
H277 H 0.95243 0.30037 0.327 0.0
H278 H 0.91721 0.26536 0.2627 0.0
H279 H 0.91299 0.23465 0.29524 0.0
C280 C 0.22839 0.74262 0.22189 0.0
Eu281 Eu 0.20878 0.71612 0.18742 0.0
C282 C 0.2232 0.75838 0.24403 0.0
C283 C 0.23939 0.77253 0.2533 0.0
C284 C 0.23528 0.78692 0.27541 0.0
C285 C 0.21488 0.78733 0.28869 0.0
C286 C 0.1985 0.77336 0.27894 0.0
C287 C 0.20262 0.75904 0.25665 0.0
C288 C 0.23318 0.70192 0.14192 0.0
C289 C 0.16861 0.7422 0.15572 0.0
C290 C 0.16924 0.66996 0.10535 0.0
Eu291 Eu 0.18314 0.69243 0.14813 0.0
C292 C 0.14997 0.67161 0.0873 0.0
C293 C 0.13063 0.68058 0.09781 0.0
C294 C 0.11221 0.68165 0.08072 0.0
C295 C 0.11294 0.67404 0.05274 0.0
C296 C 0.13254 0.66575 0.042 0.0
C297 C 0.15091 0.6645 0.05921 0.0
C298 C 0.15923 0.70363 0.19377 0.0
C299 C 0.20542 0.66502 0.2004 0.0
O300 O 0.2244 0.72234 0.22783 0.0
O301 O 0.22286 0.74786 0.19609 0.0
O302 O 0.23856 0.7004 0.16818 0.0
O303 O 0.21438 0.71038 0.14054 0.0
O304 O 0.18211 0.74151 0.17757 0.0
O305 O 0.16799 0.72554 0.13807 0.0
O306 O 0.16577 0.66452 0.13171 0.0
O307 O 0.18322 0.68573 0.10282 0.0
O308 O 0.15114 0.70173 0.16854 0.0
O309 O 0.17878 0.69775 0.19419 0.0
O310 O 0.19868 0.66412 0.17366 0.0
O311 O 0.20854 0.68427 0.21209 0.0
H312 H 0.25537 0.77218 0.24376 0.0
H313 H 0.2483 0.79727 0.28268 0.0
H314 H 0.18258 0.77347 0.2886 0.0
H315 H 0.18988 0.7483 0.24952 0.0
H316 H 0.12969 0.68651 0.11934 0.0
H317 H 0.09735 0.68823 0.08943 0.0
H318 H 0.13346 0.65953 0.02061 0.0
H319 H 0.16577 0.65772 0.05071 0.0
C320 C 0.92701 0.73189 0.6422 0.0
Eu321 Eu 0.94781 0.71973 0.59707 0.0
C322 C 0.92959 0.75071 0.66077 0.0
C323 C 0.93987 0.76951 0.65076 0.0
C324 C 0.94164 0.78771 0.66806 0.0
C325 C 0.93341 0.78728 0.69575 0.0
C326 C 0.92392 0.76812 0.70609 0.0
C327 C 0.92198 0.74996 0.68865 0.0
C328 C 0.95663 0.74597 0.55258 0.0
C329 C 0.91877 0.69872 0.54577 0.0
C330 C 0.99509 0.67951 0.51587 0.0
Eu331 Eu 0.9702 0.69634 0.5547 0.0
C332 C 1.00777 0.68705 0.49147 0.0
C333 C 1.01935 0.70662 0.49219 0.0
C334 C 1.03116 0.7134 0.46851 0.0
C335 C 1.03126 0.70086 0.4437 0.0
C336 C 1.01942 0.68144 0.44302 0.0
C337 C 1.00783 0.67457 0.46674 0.0
C338 C 0.95859 0.66993 0.59969 0.0
C339 C 0.997 0.73531 0.58735 0.0
O340 O 0.92036 0.73613 0.61653 0.0
O341 O 0.94295 0.7179 0.64273 0.0
O342 O 0.95603 0.75259 0.57861 0.0
O343 O 0.95098 0.72639 0.55087 0.0
O344 O 0.91886 0.70428 0.57298 0.0
O345 O 0.93752 0.69699 0.53236 0.0
O346 O 0.9741 0.68119 0.51339 0.0
O347 O 1.00199 0.68496 0.54102 0.0
O348 O 0.95643 0.66531 0.57328 0.0
O349 O 0.96671 0.68878 0.60152 0.0
O350 O 0.99563 0.72281 0.56461 0.0
O351 O 0.98101 0.73491 0.60607 0.0
H352 H 0.94618 0.77026 0.6294 0.0
H353 H 0.94911 0.80225 0.65966 0.0
H354 H 0.91721 0.76747 0.72727 0.0
H355 H 0.9142 0.73548 0.69675 0.0
H356 H 1.01928 0.71664 0.51098 0.0
H357 H 1.04004 0.72851 0.46949 0.0
H358 H 1.01944 0.67132 0.4243 0.0
H359 H 0.99891 0.65948 0.46579 0.0
C360 C 0.16776 0.16718 0.88542 0.0
Eu361 Eu 0.18259 0.1929 0.846 0.0
C362 C 0.14615 0.15834 0.89089 0.0
C363 C 0.12974 0.16063 0.87054 0.0
C364 C 0.10939 0.15146 0.87502 0.0
C365 C 0.10519 0.13969 0.89985 0.0
C366 C 0.12162 0.1376 0.92035 0.0
C367 C 0.14197 0.14691 0.91589 0.0
C368 C 0.15819 0.20319 0.80005 0.0
C369 C 0.20464 0.16547 0.79385 0.0
C370 C 0.22739 0.24256 0.77328 0.0
Eu371 Eu 0.20775 0.21611 0.80795 0.0
C372 C 0.22265 0.2562 0.74834 0.0
C373 C 0.23108 0.25016 0.7219 0.0
C374 C 0.22761 0.26313 0.69813 0.0
C375 C 0.21581 0.28255 0.70035 0.0
C376 C 0.20729 0.28862 0.72677 0.0
C377 C 0.21062 0.27552 0.75058 0.0
C378 C 0.23241 0.20205 0.85355 0.0
C379 C 0.16733 0.24221 0.83867 0.0
O380 O 0.17689 0.16038 0.86222 0.0
O381 O 0.16993 0.18804 0.88878 0.0
O382 O 0.15034 0.2008 0.82523 0.0
O383 O 0.17784 0.19784 0.79956 0.0
O384 O 0.19804 0.16462 0.82057 0.0
O385 O 0.20733 0.18478 0.78214 0.0
O386 O 0.22637 0.22164 0.76951 0.0
O387 O 0.21949 0.24854 0.79773 0.0
O388 O 0.23743 0.20026 0.82723 0.0
O389 O 0.21367 0.2106 0.85515 0.0
O390 O 0.18081 0.24149 0.81683 0.0
O391 O 0.16713 0.22569 0.85655 0.0
H392 H 0.13276 0.16915 0.85093 0.0
H393 H 0.09713 0.1531 0.85874 0.0
H394 H 0.11871 0.12877 0.93982 0.0
H395 H 0.1545 0.14498 0.93177 0.0
H396 H 0.24061 0.23548 0.71967 0.0
H397 H 0.23463 0.25821 0.67812 0.0
H398 H 0.19803 0.30346 0.729 0.0
H399 H 0.20394 0.28065 0.77069 0.0
C400 C 0.7303 0.41805 0.14591 0.0
Eu401 Eu 0.7104 0.42864 0.09957 0.0
C402 C 0.7532 0.41398 0.15289 0.0
C403 C 0.76552 0.39867 0.13786 0.0
C404 C 0.78762 0.39623 0.14337 0.0
C405 C 0.79792 0.40924 0.16375 0.0
C406 C 0.78552 0.42457 0.17871 0.0
C407 C 0.76336 0.42682 0.17342 0.0
C408 C 0.71175 0.40814 0.04921 0.0
C409 C 0.73834 0.44972 0.04758 0.0
C410 C 0.66176 0.47173 0.02069 0.0
Eu411 Eu 0.68682 0.45249 0.05728 0.0
C412 C 0.64481 0.46874 -0.00066 0.0
C413 C 0.64356 0.48387 0.97732 0.0
C414 C 0.62813 0.48163 0.95607 0.0
C415 C 0.61346 0.46421 0.95643 0.0
C416 C 0.61478 0.44893 0.97859 0.0
C417 C 0.6304 0.45117 -6e-05 0.0
C418 C 0.70021 0.47801 0.10219 0.0
C419 C 0.66088 0.41219 0.08978 0.0
O420 O 0.72579 0.43812 0.13898 0.0
O421 O 0.72049 0.40386 0.12977 0.0
O422 O 0.72776 0.40783 0.06708 0.0
O423 O 0.69562 0.41798 0.05929 0.0
O424 O 0.73878 0.44455 0.07496 0.0
O425 O 0.71942 0.45158 0.03463 0.0
O426 O 0.68093 0.46399 0.01447 0.0
O427 O 0.65656 0.46923 0.04738 0.0
O428 O 0.70303 0.48242 0.0758 0.0
O429 O 0.6914 0.4595 0.1039 0.0
O430 O 0.66093 0.42653 0.06862 0.0
O431 O 0.67796 0.41108 0.10684 0.0
H432 H 0.75817 0.38867 0.12169 0.0
H433 H 0.79654 0.38394 0.13186 0.0
H434 H 0.79294 0.43502 0.19432 0.0
H435 H 0.75421 0.43892 0.18501 0.0
H436 H 0.65473 0.49741 0.97642 0.0
H437 H 0.62799 0.49339 0.93902 0.0
H438 H 0.60369 0.43536 0.97951 0.0
H439 H 0.63128 0.43925 0.01676 0.0
C440 C 0.48096 0.97519 0.3935 0.0
Eu441 Eu 0.47124 0.95476 0.34725 0.0
C442 C 0.48377 0.99821 0.40117 0.0
C443 C 0.50451 1.0061 0.40753 0.0
C444 C 0.50748 1.02795 0.41409 0.0
C445 C 0.48973 1.0423 0.41465 0.0
C446 C 0.46894 1.03437 0.40866 0.0
C447 C 0.46598 1.01255 0.4019 0.0
C448 C 0.49242 0.95613 0.29736 0.0
C449 C 0.45008 0.98121 0.29412 0.0
C450 C 0.43248 0.90364 0.26761 0.0
Eu451 Eu 0.44881 0.9299 0.30494 0.0
C452 C 0.4397 0.88801 0.24623 0.0
C453 C 0.42488 0.87286 0.23583 0.0
C454 C 0.43019 0.86011 0.21246 0.0
C455 C 0.45041 0.86241 0.19899 0.0
C456 C 0.46571 0.8768 0.21049 0.0
C457 C 0.46038 0.88952 0.23397 0.0
C458 C 0.42212 0.94297 0.34895 0.0
C459 C 0.48891 0.90526 0.33908 0.0
O460 O 0.46124 0.9691 0.38707 0.0
O461 O 0.49563 0.96673 0.37676 0.0
O462 O 0.49161 0.97245 0.3147 0.0
O463 O 0.48305 0.93977 0.30758 0.0
O464 O 0.45414 0.98216 0.3218 0.0
O465 O 0.44959 0.9621 0.28155 0.0
O466 O 0.43734 0.92389 0.26241 0.0
O467 O 0.43498 0.89831 0.29424 0.0
O468 O 0.41773 0.94473 0.3224 0.0
O469 O 0.44098 0.93495 0.35127 0.0
O470 O 0.47481 0.90466 0.3178 0.0
O471 O 0.48965 0.92275 0.35545 0.0
H472 H 0.51845 0.99538 0.40735 0.0
H473 H 0.52365 1.03355 0.41915 0.0
H474 H 0.45501 1.0451 0.40889 0.0
H475 H 0.44974 1.00701 0.39713 0.0
H476 H 0.40886 0.87148 0.2451 0.0
H477 H 0.41823 0.84886 0.20444 0.0
H478 H 0.48137 0.87903 0.20053 0.0
H479 H 0.47203 0.90118 0.24176 0.0
C480 C 0.15844 0.46617 0.48651 0.0
Eu481 Eu 0.18222 0.45332 0.44434 0.0
C482 C 0.14468 0.45659 0.50866 0.0
C483 C 0.12735 0.44264 0.5024 0.0
C484 C 0.11517 0.43339 0.52433 0.0
C485 C 0.12042 0.43774 0.5527 0.0
C486 C 0.13775 0.45169 0.55876 0.0
C487 C 0.14968 0.46108 0.53696 0.0
C488 C 0.19317 0.48201 0.4015 0.0
C489 C 0.15677 0.41441 0.40885 0.0
C490 C 0.22075 0.4273 0.34698 0.0
Eu491 Eu 0.20593 0.43303 0.3979 0.0
C492 C 0.24066 0.43013 0.33023 0.0
C493 C 0.2582 0.41574 0.3327 0.0
C494 C 0.27581 0.41743 0.31428 0.0
C495 C 0.27614 0.43349 0.29306 0.0
C496 C 0.25912 0.44857 0.29166 0.0
C497 C 0.2415 0.44684 0.31 0.0
C498 C 0.20891 0.40969 0.44587 0.0
C499 C 0.23436 0.45231 0.44999 0.0
O500 O 0.1791 0.46163 0.48867 0.0
O501 O 0.15144 0.46591 0.46031 0.0
O502 O 0.19488 0.48589 0.42819 0.0
O503 O 0.18566 0.46307 0.39867 0.0
O504 O 0.15632 0.42828 0.43043 0.0
O505 O 0.17414 0.41375 0.39215 0.0
O506 O 0.21153 0.44519 0.3556 0.0
O507 O 0.21996 0.4117 0.36583 0.0
O508 O 0.22466 0.41077 0.42749 0.0
O509 O 0.19234 0.41962 0.43717 0.0
O510 O 0.23425 0.44959 0.42196 0.0
O511 O 0.21581 0.45183 0.46403 0.0
H512 H 0.12327 0.43881 0.48069 0.0
H513 H 0.10184 0.4227 0.51917 0.0
H514 H 0.14188 0.45563 0.58043 0.0
H515 H 0.16296 0.47181 0.54224 0.0
H516 H 0.25799 0.40271 0.34808 0.0
H517 H 0.28852 0.40532 0.31559 0.0
H518 H 0.25901 0.46116 0.27565 0.0
H519 H 0.22815 0.45817 0.30768 0.0
C520 C 0.9304 0.91356 0.22941 0.0
Eu521 Eu 0.95102 0.93098 0.18678 0.0
C522 C 0.93577 0.90308 0.25638 0.0
C523 C 0.91973 0.89142 0.27072 0.0
C524 C 0.92454 0.88096 0.29616 0.0
C525 C 0.94552 0.88201 0.30777 0.0
C526 C 0.96161 0.89378 0.29326 0.0
C527 C 0.95676 0.90423 0.26772 0.0
C528 C 0.92872 0.93572 0.1361 0.0
C529 C 0.99116 0.90493 0.15761 0.0
C530 C 0.98685 0.96938 0.0975 0.0
Eu531 Eu 0.97473 0.95577 0.1471 0.0
C532 C 0.97977 0.98512 0.07619 0.0
C533 C 0.96804 1.00378 0.08366 0.0
C534 C 0.9627 1.01916 0.06302 0.0
C535 C 0.96888 1.01596 0.03467 0.0
C536 C 0.97966 0.99667 0.02722 0.0
C537 C 0.98506 0.98141 0.04783 0.0
C538 C 0.99531 0.95493 0.19713 0.0
C539 C 0.95258 0.98424 0.19499 0.0
O540 O 0.93467 0.93422 0.22745 0.0
O541 O 0.93579 0.90293 0.20664 0.0
O542 O 0.93132 0.91779 0.14978 0.0
O543 O 0.93877 0.95046 0.14929 0.0
O544 O 0.97772 0.90533 0.17955 0.0
O545 O 0.9916 0.92218 0.14066 0.0
O546 O 0.97403 0.95276 0.10126 0.0
O547 O 0.99454 0.97716 0.1212 0.0
O548 O 0.99623 0.97137 0.17992 0.0
O549 O 0.98567 0.93908 0.18607 0.0
O550 O 0.95924 0.98517 0.16835 0.0
O551 O 0.94966 0.96501 0.20706 0.0
H552 H 0.9035 0.89027 0.26211 0.0
H553 H 0.91188 0.87172 0.30649 0.0
H554 H 0.97786 0.89505 0.30174 0.0
H555 H 0.96934 0.91317 0.2568 0.0
H556 H 0.96351 1.00669 0.10549 0.0
H557 H 0.9543 1.03382 0.06933 0.0
H558 H 0.985 0.99387 0.00569 0.0
H559 H 0.99396 0.96698 0.04174 0.0
C560 C 0.49526 0.67645 0.9705 0.0
Eu561 Eu 0.47007 0.69575 0.93397 0.0
C562 C 0.50846 0.68116 -0.00436 0.0
C563 C 0.5048 0.66904 0.02026 0.0
C564 C 0.51749 0.67231 0.04424 0.0
C565 C 0.53432 0.68765 0.04402 0.0
C566 C 0.53769 0.70017 0.01949 0.0
C567 C 0.52484 0.69697 -0.00454 0.0
C568 C 0.45723 0.67103 0.88814 0.0
C569 C 0.49701 0.73547 0.90279 0.0
C570 C 0.42569 0.73516 0.85032 0.0
Eu571 Eu 0.4474 0.72112 0.89385 0.0
C572 C 0.42832 0.75409 0.83195 0.0
C573 C 0.44435 0.76956 0.83781 0.0
C574 C 0.4461 0.7882 0.82115 0.0
C575 C 0.43188 0.79156 0.79834 0.0
C576 C 0.41622 0.77566 0.79216 0.0
C577 C 0.41447 0.75707 0.80887 0.0
C578 C 0.45756 0.7452 0.93972 0.0
C579 C 0.41879 0.69908 0.94496 0.0
O580 O 0.47431 0.67822 0.97361 0.0
O581 O 0.50201 0.6837 0.94602 0.0
O582 O 0.45524 0.66579 0.91438 0.0
O583 O 0.46559 0.68983 0.88685 0.0
O584 O 0.49583 0.72217 0.92485 0.0
O585 O 0.48072 0.73595 0.88454 0.0
O586 O 0.42029 0.73942 0.87645 0.0
O587 O 0.44099 0.72053 0.84852 0.0
O588 O 0.45665 0.75308 0.91424 0.0
O589 O 0.45145 0.72576 0.94012 0.0
O590 O 0.41849 0.70552 0.91806 0.0
O591 O 0.43779 0.69654 0.95756 0.0
H592 H 0.49217 0.65686 0.02089 0.0
H593 H 0.51412 0.66275 0.06297 0.0
H594 H 0.55058 0.71204 0.01861 0.0
H595 H 0.52791 0.70663 0.97672 0.0
H596 H 0.45525 0.76739 0.85556 0.0
H597 H 0.45836 0.80009 0.82631 0.0
H598 H 0.40477 0.77796 0.77505 0.0
H599 H 0.40202 0.74526 0.80414 0.0
C600 C 0.72587 0.24069 0.7241 0.0
Eu601 Eu 0.7073 0.21518 0.68754 0.0
C602 C 0.72028 0.25433 0.74863 0.0
C603 C 0.72885 0.24892 0.77521 0.0
C604 C 0.7247 0.26194 0.79868 0.0
C605 C 0.71204 0.28079 0.79597 0.0
C606 C 0.70327 0.28614 0.76941 0.0
C607 C 0.70727 0.27297 0.74592 0.0
C608 C 0.73181 0.20216 0.64161 0.0
C609 C 0.66699 0.24132 0.65598 0.0
C610 C 0.66855 0.16971 0.60381 0.0
Eu611 Eu 0.68182 0.19174 0.64733 0.0
C612 C 0.65034 0.17231 0.58429 0.0
C613 C 0.63493 0.18875 0.58859 0.0
C614 C 0.61703 0.19057 0.57063 0.0
C615 C 0.61437 0.176 0.54808 0.0
C616 C 0.63021 0.15988 0.54355 0.0
C617 C 0.64805 0.15807 0.56153 0.0
C618 C 0.65815 0.20217 0.69345 0.0
C619 C 0.70447 0.16373 0.69868 0.0
O620 O 0.72393 0.21979 0.72766 0.0
O621 O 0.71951 0.24711 0.69905 0.0
O622 O 0.73741 0.2007 0.66778 0.0
O623 O 0.71285 0.21029 0.64047 0.0
O624 O 0.6804 0.24047 0.67795 0.0
O625 O 0.66668 0.22493 0.63787 0.0
O626 O 0.66335 0.1649 0.62987 0.0
O627 O 0.68349 0.18466 0.60225 0.0
O628 O 0.6498 0.20058 0.6683 0.0
O629 O 0.67767 0.19629 0.69343 0.0
O630 O 0.69775 0.16319 0.67192 0.0
O631 O 0.7071 0.1828 0.71105 0.0
H632 H 0.73906 0.23472 0.77777 0.0
H633 H 0.73192 0.25759 0.8188 0.0
H634 H 0.69334 0.30052 0.76683 0.0
H635 H 0.70039 0.27752 0.72567 0.0
H636 H 0.63657 0.19995 0.6061 0.0
H637 H 0.60519 0.20321 0.57455 0.0
H638 H 0.62843 0.14814 0.5267 0.0
H639 H 0.65984 0.1453 0.55799 0.0
C640 C 0.51815 0.26584 0.10941 0.0
C641 C 0.51788 0.25049 0.08724 0.0
C642 C 0.53354 0.28287 0.11025 0.0
C643 C 0.57338 0.31417 0.06424 0.0
H644 H 0.59358 0.33664 0.13599 0.0
C645 C 0.62709 0.39318 0.07022 0.0
C646 C 0.64327 0.39486 0.09128 0.0
C647 C 0.61193 0.37592 0.07006 0.0
C648 C 0.58835 0.33063 0.11561 0.0
H649 H 0.53437 0.24166 0.04846 0.0
H650 H 0.56109 0.2709 0.04996 0.0
H651 H 0.5684 0.30623 0.13508 0.0
H652 H 0.65549 0.37895 0.12895 0.0
H653 H 0.62932 0.34925 0.12882 0.0
H654 H 0.59357 0.33839 0.04476 0.0
C655 C 0.54922 0.26998 0.06679 0.0
C656 C 0.5735 0.31311 0.11508 0.0
C657 C 0.53388 0.25286 0.06605 0.0
C658 C 0.64334 0.37863 0.11243 0.0
C659 C 0.62811 0.36142 0.11237 0.0
C660 C 0.58814 0.33178 0.06477 0.0
C661 C 0.54938 0.28552 0.08884 0.0
C662 C 0.56562 0.30439 0.08938 0.0
C663 C 0.61212 0.35949 0.09102 0.0
C664 C 0.59603 0.34049 0.09047 0.0
H665 H 0.50615 0.26496 0.12611 0.0
H666 H 0.53257 0.29434 0.1275 0.0
H667 H 0.56782 0.30844 0.04387 0.0
H668 H 0.62632 0.40508 0.05337 0.0
H669 H 0.59993 0.37559 0.05338 0.0
C670 C 0.63383 0.76083 0.36204 0.0
C671 C 0.64915 0.76049 0.3398 0.0
C672 C 0.6169 0.77642 0.36293 0.0
C673 C 0.58593 0.81627 0.3166 0.0
H674 H 0.56387 0.83791 0.38794 0.0
C675 C 0.5076 0.8708 0.3213 0.0
C676 C 0.50619 0.88763 0.34148 0.0
C677 C 0.52467 0.85542 0.32177 0.0
C678 C 0.56978 0.83225 0.36769 0.0
H679 H 0.65811 0.777 0.30103 0.0
H680 H 0.62907 0.80396 0.30264 0.0
H681 H 0.59396 0.8121 0.38751 0.0
H682 H 0.52232 0.9008 0.37831 0.0
H683 H 0.5518 0.87414 0.37929 0.0
H684 H 0.56197 0.83658 0.29674 0.0
C685 C 0.6299 0.79204 0.31944 0.0
C686 C 0.5871 0.81707 0.36745 0.0
C687 C 0.64688 0.77655 0.31864 0.0
C688 C 0.52249 0.88814 0.36247 0.0
C689 C 0.53954 0.87266 0.36304 0.0
C690 C 0.56854 0.83132 0.31685 0.0
C691 C 0.61437 0.79229 0.3415 0.0
C692 C 0.59564 0.80872 0.34188 0.0
C693 C 0.5412 0.85604 0.3425 0.0
C694 C 0.56001 0.83971 0.34239 0.0
H695 H 0.6347 0.74879 0.3787 0.0
H696 H 0.60541 0.7756 0.38021 0.0
H697 H 0.59154 0.81032 0.29634 0.0
H698 H 0.49561 0.86964 0.30464 0.0
H699 H 0.5248 0.8429 0.30575 0.0
C700 C 0.12455 0.89444 0.5712 0.0
C701 C 0.14148 0.89548 0.59129 0.0
C702 C 0.10911 0.87745 0.57149 0.0
C703 C 0.08638 0.8317 0.61697 0.0
H704 H 1.06328 0.8112 0.54572 0.0
C705 C 1.01556 0.76731 0.61213 0.0
C706 C 1.01471 0.75247 0.5894 0.0
C707 C 1.03097 0.78434 0.61286 0.0
C708 C 1.06956 0.81645 0.56595 0.0
H709 H 0.15475 0.87877 0.62775 0.0
H710 H 0.12808 0.8495 0.62839 0.0
H711 H 0.08943 0.84075 0.54616 0.0
H712 H 1.0301 0.74459 0.5495 0.0
H713 H 1.05681 0.77374 0.55086 0.0
H714 H 1.06673 0.80716 0.63672 0.0
C715 C 0.12651 0.86197 0.61237 0.0
C716 C 0.08455 0.83384 0.56623 0.0
C717 C 0.14202 0.87891 0.61199 0.0
C718 C 1.03007 0.75538 0.56754 0.0
C719 C 1.04541 0.77245 0.5682 0.0
C720 C 1.07129 0.81438 0.6167 0.0
C721 C 0.10976 0.86066 0.59195 0.0
C722 C 0.09339 0.84192 0.59174 0.0
C723 C 1.04619 0.78747 0.5908 0.0
C724 C 1.06251 0.80625 0.59117 0.0
H725 H 0.12337 0.90663 0.55476 0.0
H726 H 0.09651 0.87761 0.55556 0.0
H727 H 0.09234 0.83725 0.63723 0.0
H728 H 1.004 0.76602 0.62931 0.0
H729 H 1.03051 0.79542 0.63058 0.0
C730 C 1.02046 0.38532 0.86402 0.0
C731 C 1.00589 0.38663 0.84101 0.0
C732 C 1.03772 0.37003 0.8645 0.0
C733 C 1.07037 0.33216 0.81658 0.0
H734 H 0.09206 0.3092 0.88743 0.0
C735 C 0.14835 0.27646 0.81992 0.0
C736 C 0.1501 0.26 0.84064 0.0
C737 C 0.1313 0.29194 0.82044 0.0
C738 C 0.08627 0.31518 0.86726 0.0
H739 H 0.99873 0.37213 0.80034 0.0
H740 H 1.02807 0.34561 0.80135 0.0
H741 H 1.06178 0.33466 0.88748 0.0
H742 H 0.13449 0.24753 0.87836 0.0
H743 H 0.10509 0.27412 0.87928 0.0
H744 H 0.09451 0.31235 0.7963 0.0
C745 C 1.02652 0.35657 0.81909 0.0
C746 C 1.06881 0.33023 0.86732 0.0
C747 C 1.00929 0.37182 0.81864 0.0
C748 C 0.13412 0.25991 0.86209 0.0
C749 C 0.11708 0.27541 0.86264 0.0
C750 C 0.08783 0.31715 0.81652 0.0
C751 C 1.04133 0.35534 0.84192 0.0
C752 C 1.06034 0.3391 0.84197 0.0
C753 C 0.11509 0.29176 0.8417 0.0
C754 C 0.09626 0.30821 0.84185 0.0
H755 H 1.0188 0.39644 0.88159 0.0
H756 H 1.04859 0.37017 0.88245 0.0
H757 H 1.06493 0.33851 0.79643 0.0
H758 H 0.16007 0.27727 0.80289 0.0
H759 H 0.13098 0.3042 0.80404 0.0
C760 C 0.64269 0.87899 0.88161 0.0
C761 C 0.64275 0.89478 0.90325 0.0
C762 C 0.62705 0.86216 0.88086 0.0
C763 C 0.58578 0.8326 0.92684 0.0
H764 H 0.56652 0.8086 0.85551 0.0
C765 C 0.53055 0.75461 0.92284 0.0
C766 C 0.51487 0.75254 0.90121 0.0
C767 C 0.54601 0.7716 0.9227 0.0
C768 C 0.57147 0.81506 0.87578 0.0
H769 H 0.62558 0.90464 0.94113 0.0
H770 H 0.5985 0.87581 0.93973 0.0
H771 H 0.59231 0.83852 0.85588 0.0
H772 H 0.50376 0.76752 0.86233 0.0
H773 H 0.53045 0.79675 0.86196 0.0
H774 H 0.56471 0.80937 0.94673 0.0
C775 C 0.61072 0.87618 0.92329 0.0
C776 C 0.58668 0.83229 0.876 0.0
C777 C 0.62629 0.89306 0.92395 0.0
C778 C 0.51554 0.76813 0.87928 0.0
C779 C 0.53107 0.78507 0.87906 0.0
C780 C 0.57067 0.8153 0.92662 0.0
C781 C 0.61076 0.86018 0.90184 0.0
C782 C 0.59423 0.84155 0.90154 0.0
C783 C 0.54662 0.78737 0.90089 0.0
C784 C 0.56309 0.80606 0.90108 0.0
H785 H 0.65503 0.87937 0.86532 0.0
H786 H 0.62818 0.85031 0.86406 0.0
H787 H 0.59106 0.83875 0.94712 0.0
H788 H 0.53072 0.74322 0.9403 0.0
H789 H 0.55764 0.77222 0.93982 0.0
C790 C 0.50749 0.36958 0.67559 0.0
C791 C 0.50598 0.3858 0.65452 0.0
C792 C 0.52443 0.35393 0.67544 0.0
C793 C 0.56873 0.32954 0.62872 0.0
H794 H 0.5918 0.30822 0.6997 0.0
C795 C 0.63403 0.25934 0.63248 0.0
C796 C 0.64963 0.25896 0.65437 0.0
C797 C 0.61679 0.27461 0.63225 0.0
C798 C 0.58582 0.314 0.67953 0.0
H799 H 0.52178 0.3976 0.61654 0.0
H800 H 0.55081 0.37073 0.61619 0.0
H801 H 0.56198 0.33428 0.69977 0.0
H802 H 0.65865 0.27502 0.69335 0.0
H803 H 0.62914 0.30152 0.69281 0.0
H804 H 0.59277 0.30956 0.60847 0.0
C805 C 0.53881 0.36978 0.63286 0.0
C806 C 0.56828 0.32894 0.67957 0.0
C807 C 0.52198 0.38544 0.6331 0.0
C808 C 0.64727 0.27465 0.67592 0.0
C809 C 0.62999 0.28986 0.67576 0.0
C810 C 0.58618 0.31454 0.62867 0.0
C811 C 0.54062 0.35371 0.65413 0.0
C812 C 0.55931 0.33717 0.65416 0.0
C813 C 0.61421 0.29018 0.654 0.0
C814 C 0.59525 0.30641 0.65407 0.0
H815 H 0.49576 0.36918 0.69264 0.0
H816 H 0.52472 0.3419 0.69213 0.0
H817 H 0.56247 0.33498 0.60852 0.0
H818 H 0.63486 0.24753 0.6156 0.0
H819 H 0.60513 0.27377 0.6152 0.0
C820 C 1.0293 0.25527 0.42525 0.0
C821 C 1.01398 0.25267 0.4033 0.0
C822 C 1.04445 0.27252 0.42515 0.0
C823 C 1.0698 0.31592 0.3781 0.0
H824 H 0.08787 0.34061 0.44955 0.0
C825 C 0.13978 0.38117 0.38485 0.0
C826 C 0.13921 0.39711 0.40628 0.0
C827 C 0.12446 0.36406 0.3839 0.0
C828 C 0.08301 0.33419 0.42923 0.0
H829 H 1.00315 0.26697 0.36385 0.0
H830 H 1.02933 0.29669 0.36355 0.0
H831 H 1.06203 0.31081 0.44896 0.0
H832 H 0.12126 0.40694 0.44356 0.0
H833 H 0.09472 0.37767 0.44179 0.0
H834 H 0.09055 0.33955 0.35837 0.0
C835 C 1.02991 0.28522 0.38089 0.0
C836 C 1.0682 0.31664 0.42891 0.0
C837 C 1.01469 0.268 0.38106 0.0
C838 C 0.12245 0.39526 0.42655 0.0
C839 C 0.10719 0.37812 0.42569 0.0
C840 C 0.08471 0.33341 0.37843 0.0
C841 C 1.04508 0.28805 0.40306 0.0
C842 C 1.06119 0.30703 0.40333 0.0
C843 C 0.10788 0.36195 0.40446 0.0
C844 C 0.09169 0.34304 0.40401 0.0
H845 H 1.02943 0.2441 0.44295 0.0
H846 H 1.05581 0.27354 0.44253 0.0
H847 H 1.06528 0.30918 0.35782 0.0
H848 H 0.15238 0.38165 0.36889 0.0
H849 H 0.12605 0.3521 0.36729 0.0
C850 C 0.14959 0.77609 0.175 0.0
C851 C 0.15151 0.76006 0.15382 0.0
C852 C 0.13258 0.79157 0.17469 0.0
C853 C 0.08873 0.8164 0.12789 0.0
H854 H 1.06533 0.83658 0.19921 0.0
C855 C 1.02418 0.88737 0.13359 0.0
C856 C 1.00849 0.88733 0.15538 0.0
C857 C 1.04122 0.87188 0.13281 0.0
C858 C 1.0714 0.83113 0.17894 0.0
H859 H 0.13631 0.74834 0.11549 0.0
H860 H 0.107 0.7751 0.11483 0.0
H861 H 0.09486 0.81029 0.1989 0.0
H862 H 0.99897 0.87021 0.19346 0.0
H863 H 1.02813 0.8434 0.19201 0.0
H864 H 1.06502 0.83701 0.10795 0.0
C865 C 0.11881 0.77596 0.13171 0.0
C866 C 0.08878 0.81606 0.17876 0.0
C867 C 0.13578 0.7604 0.1321 0.0
C868 C 1.01049 0.87098 0.1762 0.0
C869 C 1.02756 0.85556 0.1755 0.0
C870 C 1.07141 0.83157 0.12807 0.0
C871 C 0.11665 0.79183 0.15314 0.0
C872 C 0.0979 0.80827 0.15324 0.0
C873 C 1.04347 0.85569 0.1539 0.0
C874 C 1.06225 0.8393 0.15361 0.0
H875 H 0.16111 0.77652 0.19228 0.0
H876 H 0.13206 0.80348 0.19147 0.0
H877 H 0.09512 0.81125 0.10765 0.0
H878 H 1.02353 0.89965 0.1172 0.0
H879 H 1.05299 0.87303 0.11589 0.0
C880 C 0.24679 0.20829 0.90431 0.0
C881 C 0.24972 0.20086 0.87632 0.0
C882 C 0.26417 0.20794 0.92411 0.0
C883 C 0.32553 0.20484 0.92674 0.0
H884 H 0.3181 0.19135 0.0062 0.0
C885 C 0.401 0.19041 -0.00129 0.0
C886 C 0.40059 0.19635 0.02753 0.0
C887 C 0.38214 0.19101 0.98184 0.0
C888 C 0.3206 0.19541 0.98415 0.0
H889 H 0.27348 0.18663 0.84806 0.0
H890 H 0.30305 0.18591 0.88183 0.0
H891 H 0.28646 0.19266 0.97486 0.0
H892 H 0.37922 0.20756 0.06082 0.0
H893 H 0.34643 0.20879 0.03149 0.0
H894 H 0.35942 0.2079 0.93571 0.0
C895 C 0.28762 0.19246 0.8887 0.0
C896 C 0.30227 0.19616 0.96602 0.0
C897 C 0.2704 0.19272 0.86917 0.0
C898 C 0.38036 0.20264 0.03889 0.0
C899 C 0.3614 0.20332 0.02189 0.0
C900 C 0.34374 0.20419 0.94477 0.0
C901 C 0.28509 0.20029 0.91652 0.0
C902 C 0.30438 0.20059 0.93679 0.0
C903 C 0.36191 0.19775 0.99283 0.0
C904 C 0.34183 0.19917 0.97386 0.0
H905 H 0.23121 0.2147 0.91078 0.0
H906 H 0.26133 0.21418 0.94518 0.0
H907 H 0.32812 0.20891 0.9047 0.0
H908 H 0.41607 0.18541 0.98892 0.0
H909 H 0.38356 0.18602 0.95997 0.0
C910 C 0.69399 0.49217 0.15291 0.0
C911 C 0.70154 0.49526 0.125 0.0
C912 C 0.69455 0.50927 0.17305 0.0
C913 C 0.69962 0.57062 0.17755 0.0
H914 H 0.70996 0.56063 0.25732 0.0
C915 C 0.71329 0.64359 0.25434 0.0
C916 C 0.70595 0.64247 0.2826 0.0
C917 C 0.713 0.6253 0.2364 0.0
C918 C 0.7068 0.56387 0.23518 0.0
H919 H 0.71614 0.51904 0.09715 0.0
H920 H 0.71736 0.54819 0.1316 0.0
H921 H 0.70871 0.52993 0.22464 0.0
H922 H 0.69262 0.62037 0.31371 0.0
H923 H 0.69201 0.58863 0.28262 0.0
H924 H 0.69751 0.6044 0.18785 0.0
C925 C 0.71051 0.53284 0.13815 0.0
C926 C 0.70608 0.54606 0.21624 0.0
C927 C 0.70998 0.51586 0.11822 0.0
C928 C 0.69864 0.62207 0.29229 0.0
C929 C 0.69832 0.6037 0.27427 0.0
C930 C 0.70031 0.58835 0.1964 0.0
C931 C 0.7026 0.53011 0.16597 0.0
C932 C 0.70267 0.54904 0.1869 0.0
C933 C 0.70525 0.60494 0.24574 0.0
C934 C 0.70411 0.58549 0.22566 0.0
H935 H 0.68735 0.47664 0.15911 0.0
H936 H 0.68818 0.50624 0.19402 0.0
H937 H 0.69637 0.57395 0.15546 0.0
H938 H 0.71906 0.65882 0.24578 0.0
H939 H 0.71899 0.62723 0.21501 0.0
C940 C 0.38382 0.95177 0.36422 0.0
C941 C 0.40478 0.94455 0.37163 0.0
C942 C 0.36682 0.95254 0.38412 0.0
C943 C 0.35362 0.9517 0.46233 0.0
H944 H 0.29597 0.93861 0.43488 0.0
C945 C 0.2773 0.94576 0.53848 0.0
C946 C 0.25676 0.95167 0.52774 0.0
C947 C 0.29588 0.94501 0.52078 0.0
C948 C 0.31181 0.94269 0.44311 0.0
H949 H 0.42402 0.93288 0.40678 0.0
H950 H 0.39435 0.93417 0.44169 0.0
H951 H 0.32661 0.93699 0.40274 0.0
H952 H 0.24033 0.96188 0.48941 0.0
H953 H 0.27221 0.96108 0.45921 0.0
H954 H 0.33862 0.95738 0.50285 0.0
C955 C 0.39106 0.93935 0.42022 0.0
C956 C 0.32964 0.94172 0.42442 0.0
C957 C 0.40819 0.93852 0.4001 0.0
C958 C 0.25567 0.95719 0.49878 0.0
C959 C 0.27414 0.95649 0.48118 0.0
C960 C 0.33569 0.95273 0.48112 0.0
C961 C 0.36989 0.94614 0.41254 0.0
C962 C 0.35095 0.94642 0.43344 0.0
C963 C 0.29467 0.95009 0.49158 0.0
C964 C 0.3143 0.94846 0.47186 0.0
H965 H 0.38039 0.95676 0.34269 0.0
H966 H 0.35116 0.95839 0.37708 0.0
H967 H 0.36955 0.95561 0.47041 0.0
H968 H 0.27898 0.94117 0.56051 0.0
H969 H 0.31112 0.93982 0.52994 0.0
C970 C 0.94926 0.63195 0.6155 0.0
C971 C 0.95748 0.65258 0.62245 0.0
C972 C 0.94883 0.61484 0.63527 0.0
C973 C 0.95319 0.60089 0.71316 0.0
H974 H 0.96215 0.54295 0.68381 0.0
C975 C 0.96034 0.52356 0.78754 0.0
C976 C 0.95274 0.50345 0.77731 0.0
C977 C 0.96087 0.54226 0.77 0.0
C978 C 0.95926 0.55889 0.69261 0.0
H979 H 0.97139 0.67112 0.65674 0.0
H980 H 0.97078 0.64121 0.69143 0.0
H981 H 0.9634 0.57382 0.65198 0.0
H982 H 0.9393 0.48798 0.74014 0.0
H983 H 0.93983 0.52009 0.7102 0.0
H984 H 0.94915 0.58574 0.75395 0.0
C985 C 0.96449 0.63829 0.67041 0.0
C986 C 0.95999 0.57685 0.67409 0.0
C987 C 0.96492 0.65556 0.65041 0.0
C988 C 0.94535 0.50294 0.74906 0.0
C989 C 0.94587 0.52154 0.73161 0.0
C990 C 0.95244 0.58282 0.73178 0.0
C991 C 0.95667 0.61742 0.66311 0.0
C992 C 0.95674 0.59829 0.68379 0.0
C993 C 0.9539 0.5416 0.74147 0.0
C994 C 0.95524 0.56135 0.72187 0.0
H995 H 0.94315 0.62886 0.5944 0.0
H996 H 0.94212 0.59949 0.62857 0.0
H997 H 0.95043 0.6169 0.72179 0.0
H998 H 0.96633 0.5248 0.80901 0.0
H999 H 0.96734 0.55711 0.77871 0.0
C1000 C 0.75898 0.95664 0.9934 0.0
C1001 C 0.75935 0.95024 0.96471 0.0
C1002 C 0.77788 0.95638 0.01028 0.0
C1003 C 0.83399 0.93193 0.01495 0.0
H1004 H 0.84207 0.97432 0.07444 0.0
C1005 C 0.90024 0.92066 0.10285 0.0
C1006 C 0.91089 0.93885 0.11434 0.0
C1007 C 0.88283 0.92289 0.08368 0.0
C1008 C 0.84031 0.96237 0.05785 0.0
H1009 H 0.78072 0.93847 0.93174 0.0
H1010 H 0.81358 0.93806 0.96094 0.0
H1011 H 0.81063 0.97691 0.04319 0.0
H1012 H 0.9112 0.97393 0.11385 0.0
H1013 H 0.88085 0.97792 0.08048 0.0
H1014 H 0.86369 0.91743 0.02952 0.0
C1015 C 0.79851 0.94326 0.97055 0.0
C1016 C 0.82195 0.96371 0.03994 0.0
C1017 C 0.77957 0.9437 0.95355 0.0
C1018 C 0.90353 0.95948 0.10561 0.0
C1019 C 0.8859 0.96174 0.0865 0.0
C1020 C 0.85225 0.93048 0.033 0.0
C1021 C 0.79809 0.9495 -0.00062 0.0
C1022 C 0.81829 0.94846 0.01813 0.0
C1023 C 0.8751 0.94346 0.07515 0.0
C1024 C 0.8558 0.94559 0.055 0.0
H1025 H 0.74387 0.96165 0.00311 0.0
H1026 H 0.77645 0.96105 0.03227 0.0
H1027 H 0.83199 0.91968 -0.0012 0.0
H1028 H 0.90524 0.90446 0.10895 0.0
H1029 H 0.87506 0.9083 0.07606 0.0
C1030 C 0.46382 0.6571 0.83721 0.0
C1031 C 0.45621 0.65395 0.86509 0.0
C1032 C 0.46361 0.6399 0.81716 0.0
C1033 C 0.46039 0.57855 0.81371 0.0
H1034 H 0.4479 0.58675 0.73412 0.0
C1035 C 0.44614 0.50384 0.74068 0.0
C1036 C 0.45259 0.5043 0.71204 0.0
C1037 C 0.44667 0.52258 0.75774 0.0
C1038 C 0.45168 0.58403 0.75621 0.0
H1039 H 0.44175 0.63 0.89288 0.0
H1040 H 0.44124 0.60077 0.85868 0.0
H1041 H 0.44898 0.61813 0.76587 0.0
H1042 H 0.46464 0.52568 0.67924 0.0
H1043 H 0.46572 0.5583 0.70889 0.0
H1044 H 0.46336 0.5447 0.80438 0.0
C1045 C 0.44786 0.61621 0.85209 0.0
C1046 C 0.45229 0.60222 0.77457 0.0
C1047 C 0.448 0.63324 0.87187 0.0
C1048 C 0.45933 0.5245 0.70103 0.0
C1049 C 0.45992 0.54336 0.7182 0.0
C1050 C 0.45985 0.56049 0.79545 0.0
C1051 C 0.45591 0.61895 0.82438 0.0
C1052 C 0.45637 0.59983 0.80385 0.0
C1053 C 0.45384 0.54276 0.7471 0.0
C1054 C 0.45519 0.56268 0.76631 0.0
H1055 H 0.47028 0.67272 0.83102 0.0
H1056 H 0.47001 0.64291 0.79619 0.0
H1057 H 0.46421 0.57574 0.83577 0.0
H1058 H 0.44078 0.48879 0.75022 0.0
H1059 H 0.44131 0.52113 0.77947 0.0
C1060 C 0.74515 0.20844 0.59038 0.0
C1061 C 0.7486 0.20092 0.61824 0.0
C1062 C 0.76217 0.20817 0.57003 0.0
C1063 C 0.82344 0.20511 0.56569 0.0
H1064 H 0.81483 0.19233 0.48631 0.0
C1065 C 0.89772 0.19092 0.4919 0.0
C1066 C 0.89713 0.19766 0.46337 0.0
C1067 C 0.87903 0.19125 0.5091 0.0
C1068 C 0.81764 0.19618 0.50833 0.0
H1069 H 0.77283 0.18652 0.64571 0.0
H1070 H 0.80175 0.18587 0.61099 0.0
H1071 H 0.78364 0.19338 0.5185 0.0
H1072 H 0.87556 0.20981 0.43083 0.0
H1073 H 0.84301 0.21055 0.46075 0.0
H1074 H 0.85719 0.20816 0.55586 0.0
C1075 C 0.78622 0.19248 0.60464 0.0
C1076 C 0.79958 0.19678 0.52695 0.0
C1077 C 0.76938 0.1927 0.62471 0.0
C1078 C 0.87684 0.20434 0.45255 0.0
C1079 C 0.85804 0.20473 0.46986 0.0
C1080 C 0.84137 0.20457 0.54719 0.0
C1081 C 0.7832 0.20049 0.57695 0.0
C1082 C 0.80215 0.20096 0.55616 0.0
C1083 C 0.85879 0.19849 0.4987 0.0
C1084 C 0.83901 0.1998 0.51814 0.0
H1085 H 0.72946 0.21491 0.58443 0.0
H1086 H 0.75896 0.21453 0.54908 0.0
H1087 H 0.82636 0.20902 0.58769 0.0
H1088 H 0.91283 0.18554 0.50127 0.0
H1089 H 0.88058 0.18573 0.53076 0.0
C1090 C 0.18931 0.49602 0.35041 0.0
C1091 C 0.19519 0.49938 0.37891 0.0
C1092 C 0.19078 0.51298 0.33013 0.0
C1093 C 0.19544 0.5743 0.32486 0.0
H1094 H 0.21 0.56345 0.24642 0.0
C1095 C 0.21262 0.64628 0.24752 0.0
C1096 C 0.20633 0.64485 0.21887 0.0
C1097 C 0.21162 0.62819 0.26583 0.0
C1098 C 0.20567 0.56691 0.26815 0.0
H1099 H 0.20766 0.52352 0.40781 0.0
H1100 H 0.21043 0.55253 0.37308 0.0
H1101 H 0.20741 0.53315 0.27973 0.0
H1102 H 0.19425 0.62244 0.18741 0.0
H1103 H 0.19247 0.59101 0.21915 0.0
H1104 H 0.19357 0.60793 0.31348 0.0
C1105 C 0.20424 0.53703 0.36613 0.0
C1106 C 0.20416 0.54934 0.28745 0.0
C1107 C 0.2028 0.52017 0.38624 0.0
C1108 C 0.19942 0.62436 0.20915 0.0
C1109 C 0.19842 0.60619 0.22753 0.0
C1110 C 0.19694 0.59179 0.30564 0.0
C1111 C 0.19809 0.53396 0.33763 0.0
C1112 C 0.19918 0.55265 0.31634 0.0
C1113 C 0.20422 0.60776 0.25644 0.0
C1114 C 0.20226 0.58859 0.27686 0.0
H1115 H 0.1833 0.48035 0.34379 0.0
H1116 H 0.18569 0.50969 0.30865 0.0
H1117 H 0.19099 0.57786 0.34652 0.0
H1118 H 0.21807 0.66159 0.2561 0.0
H1119 H 0.21676 0.63034 0.28754 0.0
C1120 C 0.75627 0.726 0.39277 0.0
C1121 C 0.74586 0.7078 0.38097 0.0
C1122 C 0.77375 0.72376 0.41178 0.0
C1123 C 0.81678 0.68455 0.43646 0.0
H1124 H 0.82472 0.72672 0.49624 0.0
C1125 C 0.8982 0.69088 0.50026 0.0
C1126 C 0.89787 0.69716 0.52898 0.0
C1127 C 0.87922 0.69095 0.48357 0.0
C1128 C 0.82282 0.71461 0.47989 0.0
H1129 H 0.74599 0.67272 0.38066 0.0
H1130 H 0.77645 0.66871 0.41384 0.0
H1131 H 0.79286 0.72882 0.46586 0.0
H1132 H 0.87652 0.7083 0.56233 0.0
H1133 H 0.8435 0.70831 0.53349 0.0
H1134 H 0.8467 0.67027 0.45064 0.0
C1135 C 0.77117 0.68489 0.40817 0.0
C1136 C 0.80448 0.71598 0.46204 0.0
C1137 C 0.75349 0.68716 0.38919 0.0
C1138 C 0.87763 0.70326 0.54045 0.0
C1139 C 0.8586 0.70345 0.52367 0.0
C1140 C 0.83521 0.68326 0.45421 0.0
C1141 C 0.78174 0.70319 0.41982 0.0
C1142 C 0.80109 0.70108 0.43978 0.0
C1143 C 0.85899 0.69743 0.49478 0.0
C1144 C 0.83872 0.69834 0.47626 0.0
H1145 H 0.75103 0.7422 0.38703 0.0
H1146 H 0.78136 0.73835 0.41965 0.0
H1147 H 0.81513 0.67278 0.41964 0.0
H1148 H 0.91333 0.68618 0.49034 0.0
H1149 H 0.88061 0.68645 0.46152 0.0
C1150 C 0.21247 0.14618 0.74726 0.0
C1151 C 0.20589 0.14514 0.77583 0.0
C1152 C 0.2121 0.1277 0.72963 0.0
C1153 C 0.20701 1.06615 0.72998 0.0
H1154 H 0.19486 1.07497 0.65041 0.0
C1155 C 0.19329 0.9933 0.64986 0.0
C1156 C 0.20048 0.99605 0.62173 0.0
C1157 C 0.19404 1.01067 0.66957 0.0
C1158 C 0.19858 1.07201 0.67247 0.0
H1159 H 0.19383 0.12308 0.80786 0.0
H1160 H 0.19296 0.0911 0.77731 0.0
H1161 H 0.19617 0.10589 0.68205 0.0
H1162 H 0.21466 1.01948 0.59302 0.0
H1163 H 0.21616 1.04912 0.62675 0.0
H1164 H 0.20917 1.03209 0.72016 0.0
C1165 C 0.19877 0.10619 0.76845 0.0
C1166 C 0.19937 0.09 0.69087 0.0
C1167 C 0.19921 0.12471 0.78615 0.0
C1168 C 0.20878 1.01658 0.61429 0.0
C1169 C 0.20947 1.03382 0.63379 0.0
C1170 C 0.20615 1.04808 0.7115 0.0
C1171 C 0.20499 0.10729 0.73965 0.0
C1172 C 0.20379 0.08759 0.72005 0.0
C1173 C 0.2019 1.03143 0.66181 0.0
C1174 C 0.20211 1.05062 0.68224 0.0
H1175 H 0.21777 0.16144 0.73828 0.0
H1176 H 0.21753 0.12954 0.70798 0.0
H1177 H 0.21067 1.06325 0.75205 0.0
H1178 H 0.18677 0.97783 0.65655 0.0
H1179 H 0.18793 1.00791 0.69075 0.0
C1180 C 0.77936 0.44415 0.04093 0.0
C1181 C 0.75899 0.45053 0.03003 0.0
C1182 C 0.79804 0.44313 0.02342 0.0
C1183 C 0.81438 0.44091 0.94589 0.0
H1184 H 0.87226 0.45262 0.97368 0.0
C1185 C 0.88628 0.45038 0.86737 0.0
C1186 C 0.90719 0.44263 0.87419 0.0
C1187 C 0.86944 0.451 0.88745 0.0
C1188 C 0.85628 0.44905 0.96548 0.0
H1189 H 0.74301 0.46124 0.99163 0.0
H1190 H 0.77506 0.45996 0.96175 0.0
H1191 H 0.84121 0.45469 0.00598 0.0
H1192 H 0.92648 0.42989 0.90867 0.0
H1193 H 0.89698 0.43095 0.94402 0.0
H1194 H 0.82923 0.43527 0.90554 0.0
C1195 C 0.77677 0.45522 0.9837 0.0
C1196 C 0.83828 0.45025 0.98417 0.0
C1197 C 0.7582 0.4562 0.00111 0.0
C1198 C 0.9107 0.43592 0.9024 0.0
C1199 C 0.89368 0.43662 0.92276 0.0
C1200 C 0.83227 0.43977 0.92731 0.0
C1201 C 0.79712 0.44838 0.99425 0.0
C1202 C 0.81684 0.44646 0.9747 0.0
C1203 C 0.87255 0.44391 0.91555 0.0
C1204 C 0.85363 0.44408 0.93649 0.0
H1205 H 0.78082 0.43942 0.06293 0.0
H1206 H 0.81312 0.43761 0.0327 0.0
H1207 H 0.79852 0.43716 0.93749 0.0
H1208 H 0.88275 0.45595 0.84611 0.0
H1209 H 0.85385 0.45728 0.88078 0.0
C1210 C 0.45293 0.99973 0.24634 0.0
C1211 C 0.44971 1.00146 0.27581 0.0
C1212 C 0.45395 1.01816 0.22873 0.0
C1213 C 0.45837 1.08001 0.22935 0.0
H1214 H 0.44419 1.07252 0.15026 0.0
C1215 C 0.4698 0.15109 0.14606 0.0
C1216 C 0.45764 0.15083 0.12081 0.0
C1217 C 0.46862 0.13372 0.16578 0.0
C1218 C 0.44793 1.07537 0.17228 0.0
H1219 H 0.44515 1.02475 0.30949 0.0
H1220 H 0.44581 1.05685 0.2788 0.0
H1221 H 0.44134 1.04222 0.18213 0.0
H1222 H 0.43401 0.1322 0.09747 0.0
H1223 H 0.43098 0.10308 0.13176 0.0
H1224 H 0.46385 0.11361 0.2195 0.0
C1225 C 0.44811 1.04112 0.26916 0.0
C1226 C 0.44674 1.05747 0.19085 0.0
C1227 C 0.44749 1.02255 0.28696 0.0
C1228 C 0.44382 0.13301 0.11645 0.0
C1229 C 0.44231 0.11596 0.13626 0.0
C1230 C 0.45925 0.09809 0.21077 0.0
C1231 C 0.45137 1.03938 0.23952 0.0
C1232 C 0.4521 1.0592 0.21985 0.0
C1233 C 0.45498 0.11556 0.16121 0.0
C1234 C 0.45407 0.09622 0.18169 0.0
H1235 H 0.45524 0.98397 0.23671 0.0
H1236 H 0.45722 1.01553 0.20652 0.0
H1237 H 0.46293 0.08247 0.25121 0.0
H1238 H 0.48075 0.16441 0.15021 0.0
H1239 H 0.47891 0.13441 0.18428 0.0
C1240 C 0.25446 0.44937 0.49662 0.0
C1241 C 0.25524 0.45284 0.4671 0.0
C1242 C 0.27336 0.44887 0.51334 0.0
C1243 C 0.33518 0.44594 0.51035 0.0
H1244 H 0.329 0.46119 0.58933 0.0
C1245 C 0.40768 0.43605 0.59215 0.0
C1246 C 0.40776 0.44885 0.61686 0.0
C1247 C 0.39006 0.43685 0.57278 0.0
C1248 C 0.33147 0.45715 0.56731 0.0
H1249 H 0.27746 0.45831 0.43238 0.0
H1250 H 0.31044 0.45831 0.46157 0.0
H1251 H 0.298 0.46313 0.55849 0.0
H1252 H 0.38944 0.47321 0.6395 0.0
H1253 H 0.35986 0.47549 0.60584 0.0
H1254 H 0.36906 0.44092 0.51921 0.0
C1255 C 0.29503 0.45554 0.47189 0.0
C1256 C 0.3132 0.45782 0.54937 0.0
C1257 C 0.27596 0.45574 0.45496 0.0
C1258 C 0.39002 0.46292 0.62095 0.0
C1259 C 0.3727 0.464 0.60153 0.0
C1260 C 0.35363 0.4455 0.52833 0.0
C1261 C 0.29417 0.45216 0.5016 0.0
C1262 C 0.31444 0.45206 0.52046 0.0
C1263 C 0.37195 0.45068 0.57721 0.0
C1264 C 0.35224 0.45108 0.55734 0.0
H1265 H 0.23908 0.44657 0.50706 0.0
H1266 H 0.27145 0.44547 0.53566 0.0
H1267 H 0.33726 0.44115 0.4885 0.0
H1268 H 0.4209 0.42487 0.58821 0.0
H1269 H 0.39048 0.42611 0.55473 0.0
C1270 C 0.94939 0.1318 0.37647 0.0
C1271 C 0.95687 0.15271 0.36931 0.0
C1272 C 0.94888 0.1148 0.35661 0.0
C1273 C 0.9511 0.10146 0.27849 0.0
H1274 H 0.96268 1.04357 0.30671 0.0
C1275 C 0.95751 1.02517 0.20263 0.0
C1276 C 0.95125 1.00462 0.21302 0.0
C1277 C 0.9581 1.04366 0.22045 0.0
C1278 C 0.95902 1.05948 0.29823 0.0
H1279 H 0.96936 0.1718 0.3345 0.0
H1280 H 0.96855 0.14209 0.29963 0.0
H1281 H 0.96412 1.07424 0.33873 0.0
H1282 H 0.94039 0.98809 0.25094 0.0
H1283 H 0.94093 1.01986 0.2814 0.0
H1284 H 0.94603 0.08651 0.23786 0.0
C1285 C 0.96294 0.13887 0.32093 0.0
C1286 C 0.9599 1.07734 0.31687 0.0
C1287 C 0.9635 0.15603 0.34103 0.0
C1288 C 0.94529 1.00344 0.24182 0.0
C1289 C 0.94585 1.02185 0.25957 0.0
C1290 C 0.95018 0.0835 0.25976 0.0
C1291 C 0.95585 0.11776 0.32842 0.0
C1292 C 0.95575 0.09876 0.30759 0.0
C1293 C 0.95252 1.04239 0.24948 0.0
C1294 C 0.95392 1.06202 0.26926 0.0
H1295 H 0.94392 0.12841 0.39781 0.0
H1296 H 0.94277 0.09923 0.36352 0.0
H1297 H 0.94762 0.11745 0.27018 0.0
H1298 H 0.96246 1.02694 0.18076 0.0
H1299 H 0.96354 1.05886 0.21149 0.0
C1300 C 0.2709 0.69245 0.12526 0.0
C1301 C 0.25012 0.70062 0.11869 0.0
C1302 C 0.28779 0.69219 0.10522 0.0
C1303 C 0.30107 0.69652 0.02732 0.0
H1304 H 0.35888 0.70728 0.05594 0.0
C1305 C 0.37779 0.70437 0.95211 0.0
C1306 C 0.39819 0.69764 0.96251 0.0
C1307 C 0.35915 0.70466 0.96973 0.0
C1308 C 0.343 0.70386 0.04735 0.0
H1309 H 0.23106 0.71452 0.08474 0.0
H1310 H 0.26059 0.71407 0.0495 0.0
H1311 H 0.32819 0.70806 0.08802 0.0
H1312 H 0.41427 0.6854 6e-05 0.0
H1313 H 0.38229 0.68543 0.0301 0.0
H1314 H 0.31609 0.69234 0.9865 0.0
C1315 C 0.26379 0.70776 0.07048 0.0
C1316 C 0.32514 0.70435 0.06601 0.0
C1317 C 0.24674 0.70808 0.09078 0.0
C1318 C 0.39906 0.69079 0.99099 0.0
C1319 C 0.38053 0.69104 0.00851 0.0
C1320 C 0.31904 0.69598 0.00856 0.0
C1321 C 0.28482 0.70009 0.07745 0.0
C1322 C 0.30376 0.70046 0.05658 0.0
C1323 C 0.36016 0.69827 -0.0015 0.0
C1324 C 0.34049 0.6994 0.01821 0.0
H1325 H 0.27431 0.68635 0.14631 0.0
H1326 H 0.30331 0.6856 0.11165 0.0
H1327 H 0.28508 0.69329 0.01892 0.0
H1328 H 0.37627 0.70993 0.93045 0.0
H1329 H 0.34404 0.71051 0.96089 0.0
C1330 C 0.71301 0.14417 0.7448 0.0
C1331 C 0.706 0.14323 0.71641 0.0
C1332 C 0.71272 0.12571 0.76249 0.0
C1333 C 0.70731 1.06434 0.76293 0.0
H1334 H 0.6953 1.07368 0.84242 0.0
C1335 C 0.69399 0.99207 0.84429 0.0
C1336 C 0.70126 0.99503 0.87231 0.0
C1337 C 0.69463 1.0093 0.82431 0.0
C1338 C 0.69899 1.07057 0.8204 0.0
H1339 H 0.69338 0.12132 0.6847 0.0
H1340 H 0.69272 0.08926 0.71542 0.0
H1341 H 0.69648 0.10437 0.81028 0.0
H1342 H 0.71544 1.01866 0.90061 0.0
H1343 H 0.71676 1.04809 0.8664 0.0
H1344 H 0.7096 1.03036 0.7733 0.0
C1345 C 0.69874 0.10433 0.72406 0.0
C1346 C 0.6997 0.08843 0.80171 0.0
C1347 C 0.69908 0.12287 0.70627 0.0
C1348 C 0.7095 1.01561 0.87942 0.0
C1349 C 0.7101 1.03272 0.85965 0.0
C1350 C 0.70655 1.04639 0.78171 0.0
C1351 C 0.70529 0.1054 0.75273 0.0
C1352 C 0.70408 0.08582 0.77256 0.0
C1353 C 0.70247 1.03011 0.8317 0.0
C1354 C 0.70258 1.04914 0.81095 0.0
H1355 H 0.71854 0.15937 0.75364 0.0
H1356 H 0.71844 0.12749 0.784 0.0
H1357 H 0.71092 1.06132 0.74087 0.0
H1358 H 0.68752 0.97654 0.83787 0.0
H1359 H 0.68848 1.00639 0.80322 0.0
C1360 C 0.57084 0.21382 0.92482 0.0
C1361 C 0.54964 0.20591 0.9218 0.0
C1362 C 0.58315 0.21902 0.9009 0.0
C1363 C 0.58008 0.22993 0.82396 0.0
H1364 H 0.63564 0.20052 0.82144 0.0
C1365 C 0.62354 0.20897 0.71947 0.0
C1366 C 0.64625 0.20813 0.71925 0.0
C1367 C 0.61243 0.21324 0.74466 0.0
C1368 C 0.62042 0.20928 0.82188 0.0
H1369 H 0.52417 0.19854 0.89178 0.0
H1370 H 0.54563 0.2076 0.85006 0.0
H1371 H 0.61498 0.20081 0.86519 0.0
H1372 H 0.67529 0.21254 0.74438 0.0
H1373 H 0.65599 0.22058 0.7881 0.0
H1374 H 0.58536 0.23811 0.78046 0.0
C1375 C 0.55278 0.20977 0.87079 0.0
C1376 C 0.60856 0.20942 0.84702 0.0
C1377 C 0.54058 0.20437 0.89462 0.0
C1378 C 0.65772 0.21268 0.74417 0.0
C1379 C 0.64666 0.21722 0.76922 0.0
C1380 C 0.59204 0.22996 0.79882 0.0
C1381 C 0.57435 0.21666 0.87364 0.0
C1382 C 0.58807 0.21931 0.84814 0.0
C1383 C 0.62386 0.21703 0.76996 0.0
C1384 C 0.61214 0.2192 0.79731 0.0
H1385 H 0.57817 0.21514 0.94557 0.0
H1386 H 0.59971 0.22443 0.90368 0.0
H1387 H 0.5644 0.23787 0.82435 0.0
H1388 H 0.61438 0.20565 0.70043 0.0
H1389 H 0.59488 0.21274 0.74446 0.0
C1390 C 0.72431 0.81044 0.17156 0.0
C1391 C 0.71555 0.78944 0.17108 0.0
C1392 C 0.72291 0.82382 0.14781 0.0
C1393 C 0.69398 0.83136 0.07998 0.0
H1394 H 0.74533 0.86419 0.05993 0.0
C1395 C 0.69428 0.894 0.98918 0.0
C1396 C 0.71257 0.89416 0.9715 0.0
C1397 C 0.69426 0.88171 0.01401 0.0
C1398 C 0.73091 0.85502 0.06513 0.0
H1399 H 0.69812 0.7661 0.14556 0.0
H1400 H 0.69581 0.78944 0.10386 0.0
H1401 H 0.74558 0.84155 0.10216 0.0
H1402 H 0.74525 0.88197 0.96587 0.0
H1403 H 0.74515 0.86019 0.00905 0.0
H1404 H 0.67953 0.84438 0.04245 0.0
C1405 C 0.70352 0.79567 0.12275 0.0
C1406 C 0.73095 0.84226 0.08953 0.0
C1407 C 0.70485 0.78229 0.1466 0.0
C1408 C 0.73093 0.88206 0.97915 0.0
C1409 C 0.7309 0.86972 0.00395 0.0
C1410 C 0.69395 0.84411 0.05552 0.0
C1411 C 0.71278 0.81648 0.123 0.0
C1412 C 0.7125 0.83027 0.09724 0.0
C1413 C 0.71254 0.86935 0.02161 0.0
C1414 C 0.71244 0.85604 0.04779 0.0
H1415 H 0.73231 0.81651 0.19034 0.0
H1416 H 0.7298 0.83994 0.14889 0.0
H1417 H 0.67945 0.82247 0.08547 0.0
H1418 H 0.67996 0.90336 0.98382 0.0
H1419 H 0.68 0.88204 0.02738 0.0
C1420 C 1.01 0.93471 0.23866 0.0
C1421 C 1.00493 0.9545 0.22554 0.0
C1422 C 1.01893 0.93437 0.26582 0.0
C1423 C 1.04703 0.97036 0.31709 0.0
H1424 H 1.03544 0.9234 0.36968 0.0
C1425 C 1.07566 0.97349 0.43189 0.0
C1426 C 0.09037 0.95684 0.43884 0.0
C1427 C 1.06266 0.9719 0.40787 0.0
C1428 C 1.03874 0.93658 0.35512 0.0
H1429 H 1.00424 0.98936 0.23057 0.0
H1430 H 1.019 0.98889 0.27833 0.0
H1431 H 1.01757 0.92381 0.32344 0.0
H1432 H 0.10167 0.92473 0.42708 0.0
H1433 H 1.0783 0.92176 0.38546 0.0
H1434 H 1.06771 0.98335 0.34914 0.0
C1435 C 1.01698 0.9736 0.26745 0.0
C1436 C 1.02868 0.93678 0.32858 0.0
C1437 C 1.00845 0.97392 0.24011 0.0
C1438 C 0.09046 0.9378 0.42246 0.0
C1439 C 1.07716 0.9361 0.39859 0.0
C1440 C 1.05669 0.97035 0.34373 0.0
C1441 C 1.02261 0.95384 0.28057 0.0
C1442 C 1.03279 0.95366 0.30915 0.0
C1443 C 1.06375 0.95347 0.39061 0.0
C1444 C 1.0527 0.95346 0.36291 0.0
H1445 H 1.00734 0.9195 0.22776 0.0
H1446 H 1.02329 0.91886 0.27497 0.0
H1447 H 1.0511 0.98332 0.30256 0.0
H1448 H 1.07475 0.98813 0.44446 0.0
H1449 H 1.0522 0.98538 0.40226 0.0
C1450 C 0.96854 0.28054 0.46092 0.0
C1451 C 0.96074 0.25935 0.46445 0.0
C1452 C 0.97214 0.29376 0.48446 0.0
C1453 C 0.97699 0.29276 0.56317 0.0
H1454 H 0.95674 0.35212 0.55686 0.0
C1455 C 0.97612 0.35056 0.65948 0.0
C1456 C 0.95689 0.36258 0.66283 0.0
C1457 C 0.9803 0.33955 0.63416 0.0
C1458 C 0.96245 0.33558 0.55901 0.0
H1459 H 0.95128 0.235 0.49516 0.0
H1460 H 0.9569 0.25821 0.53616 0.0
H1461 H 0.95705 0.32908 0.5152 0.0
H1462 H 0.9276 0.37342 0.64168 0.0
H1463 H 0.93452 0.35385 0.59811 0.0
H1464 H 0.98121 0.29896 0.60736 0.0
C1465 C 0.96063 0.26461 0.51538 0.0
C1466 C 0.96291 0.32242 0.53501 0.0
C1467 C 0.95719 0.25137 0.49187 0.0
C1468 C 0.94237 0.36399 0.64 0.0
C1469 C 0.94652 0.353 0.6148 0.0
C1470 C 0.97641 0.30591 0.58723 0.0
C1471 C 0.96789 0.28608 0.51197 0.0
C1472 C 0.96973 0.30069 0.53688 0.0
C1473 C 0.96538 0.3404 0.61166 0.0
C1474 C 0.96865 0.32733 0.58557 0.0
H1475 H 0.97175 0.28694 0.44 0.0
H1476 H 0.97813 0.31006 0.48106 0.0
H1477 H 0.98272 0.27623 0.56529 0.0
H1478 H 0.98762 0.34912 0.6767 0.0
H1479 H 0.99511 0.33019 0.63232 0.0
C1480 C 0.59146 0.9408 0.07422 0.0
C1481 C 0.59481 0.96063 0.06015 0.0
C1482 C 0.57779 0.93975 0.09783 0.0
C1483 C 0.55983 0.97393 0.15558 0.0
H1484 H 0.51661 0.92975 0.17012 0.0
C1485 C 0.50761 0.97634 0.25624 0.0
C1486 C 0.50278 0.95654 0.26935 0.0
C1487 C 0.51709 0.97671 0.22941 0.0
C1488 C 0.52882 0.94205 0.16655 0.0
H1489 H 0.58505 0.99445 0.05842 0.0
H1490 H 0.56167 0.99264 0.09992 0.0
H1491 H 0.53601 0.93003 0.12497 0.0
H1492 H 0.50391 0.9216 0.26501 0.0
H1493 H 0.52128 0.92213 0.21866 0.0
H1494 H 0.55348 0.98556 0.19725 0.0
C1495 C 0.56983 0.97803 0.0929 0.0
C1496 C 0.53981 0.94224 0.14065 0.0
C1497 C 0.58327 0.97905 0.06922 0.0
C1498 C 0.50748 0.93709 0.25524 0.0
C1499 C 0.51727 0.93743 0.22859 0.0
C1500 C 0.5491 0.97358 0.18156 0.0
C1501 C 0.56739 0.95851 0.10784 0.0
C1502 C 0.55535 0.95824 0.13493 0.0
C1503 C 0.52228 0.95726 0.21535 0.0
C1504 C 0.53341 0.95768 0.1874 0.0
H1505 H 0.6002 0.92636 0.06788 0.0
H1506 H 0.57622 0.92451 0.10908 0.0
H1507 H 0.57203 0.98622 0.15188 0.0
H1508 H 0.50378 0.99155 0.26656 0.0
H1509 H 0.52023 0.99229 0.21965 0.0
C1510 C 0.45804 0.33995 0.82204 0.0
C1511 C 0.43754 0.34528 0.81092 0.0
C1512 C 0.4598 0.32687 0.84617 0.0
C1513 C 0.42948 0.31303 0.90974 0.0
H1514 H 0.4691 0.26448 0.91721 0.0
C1515 C 0.42776 0.25813 0.00806 0.0
C1516 C 0.44756 0.25032 0.01849 0.0
C1517 C 0.42687 0.26878 0.98199 0.0
C1518 C 0.45816 0.27818 0.91563 0.0
H1519 H 0.40295 0.33977 0.81539 0.0
H1520 H 0.40607 0.31746 0.85776 0.0
H1521 H 0.46738 0.28456 0.8726 0.0
H1522 H 0.48195 0.2472 0.00999 0.0
H1523 H 0.48061 0.26653 0.96491 0.0
H1524 H 0.42061 0.30728 0.95275 0.0
C1525 C 0.42072 0.32364 0.848 0.0
C1526 C 0.45714 0.2896 0.89004 0.0
C1527 C 0.41896 0.33648 0.82379 0.0
C1528 C 0.46647 0.25317 0.00238 0.0
C1529 C 0.46564 0.26408 0.97645 0.0
C1530 C 0.43068 0.30184 0.93537 0.0
C1531 C 0.44111 0.31904 0.85973 0.0
C1532 C 0.44265 0.307 0.88681 0.0
C1533 C 0.44583 0.2721 0.96595 0.0
C1534 C 0.4449 0.28415 0.93863 0.0
H1535 H 0.47267 0.34658 0.81281 0.0
H1536 H 0.47572 0.32361 0.85489 0.0
H1537 H 0.41843 0.32665 0.90797 0.0
H1538 H 0.4129 0.2558 0.01991 0.0
H1539 H 0.41124 0.27425 0.97432 0.0
C1540 C 0.12242 0.20698 0.77581 0.0
C1541 C 0.14514 0.20695 0.77447 0.0
C1542 C 0.11014 0.20962 0.75119 0.0
C1543 C 0.11467 0.20358 0.67359 0.0
H1544 H 1.05911 0.23315 0.67366 0.0
C1545 C 1.06372 0.21227 0.57226 0.0
C1546 C 1.0421 0.20549 0.57506 0.0
C1547 C 1.07647 0.21578 0.59624 0.0
C1548 C 1.0746 0.22484 0.67338 0.0
H1549 H 0.17293 0.21071 0.74685 0.0
H1550 H 0.15157 0.21586 0.70398 0.0
H1551 H 0.08136 0.23319 0.71641 0.0
H1552 H 1.01649 0.19823 0.60501 0.0
H1553 H 1.03876 0.20438 0.64694 0.0
H1554 H 0.10786 0.19518 0.63062 0.0
C1555 C 0.14316 0.2132 0.72379 0.0
C1556 C 0.08731 0.22477 0.69786 0.0
C1557 C 0.1554 0.21034 0.74834 0.0
C1558 C 1.03318 0.20324 0.60227 0.0
C1559 C 1.04586 0.20695 0.62624 0.0
C1560 C 0.10206 0.20382 0.64908 0.0
C1561 C 0.12037 0.21253 0.72482 0.0
C1562 C 0.10738 0.21389 0.69837 0.0
C1563 C 1.06776 0.21279 0.62346 0.0
C1564 C 0.08179 0.21422 0.64882 0.0
H1565 H 0.11414 0.20446 0.79577 0.0
H1566 H 0.09265 0.20875 0.75276 0.0
H1567 H 0.12983 0.19469 0.67331 0.0
H1568 H 1.07103 0.21402 0.55153 0.0
H1569 H 0.09326 0.22046 0.59352 0.0
C1570 C 0.19094 0.89759 0.50335 0.0
C1571 C 0.20967 0.89716 0.52021 0.0
C1572 C 0.19054 0.88683 0.47739 0.0
C1573 C 0.22636 0.86406 0.42219 0.0
H1574 H 0.17526 0.83117 0.40153 0.0
C1575 C 0.2191 0.82296 0.3135 0.0
C1576 C 0.21121 0.80161 0.31345 0.0
C1577 C 0.21746 0.83575 0.33775 0.0
C1578 C 0.18968 0.84021 0.40705 0.0
H1579 H 0.24274 0.88551 0.5232 0.0
H1580 H 0.24201 0.86638 0.47799 0.0
H1581 H 0.1759 0.85092 0.44618 0.0
H1582 H 0.19498 0.77708 0.33856 0.0
H1583 H 0.1922 0.79935 0.38098 0.0
H1584 H 0.24041 0.85283 0.38354 0.0
C1585 C 0.22769 0.87521 0.48464 0.0
C1586 C 0.18996 0.85172 0.43248 0.0
C1587 C 0.22808 0.886 0.5106 0.0
C1588 C 0.20099 0.79356 0.33786 0.0
C1589 C 0.1994 0.80633 0.36216 0.0
C1590 C 0.22608 0.85255 0.39679 0.0
C1591 C 0.20889 0.87544 0.46779 0.0
C1592 C 0.20836 0.86367 0.44042 0.0
C1593 C 0.20794 0.82745 0.36252 0.0
C1594 C 0.20778 0.8404 0.38899 0.0
H1595 H 0.17657 0.90626 0.5102 0.0
H1596 H 0.17593 0.8876 0.46473 0.0
H1597 H 0.24068 0.87332 0.42752 0.0
H1598 H 0.22676 0.82971 0.29483 0.0
H1599 H 0.22381 0.8521 0.33716 0.0
C1600 C 1.06595 0.71372 0.42196 0.0
C1601 C 1.04421 0.70749 0.41877 0.0
C1602 C 1.07884 0.71768 0.39819 0.0
C1603 C 1.07757 0.72887 0.32151 0.0
H1604 H 0.13137 0.69626 0.32031 0.0
C1605 C 0.12394 0.71014 0.21827 0.0
C1606 C 0.14659 0.70841 0.21941 0.0
C1607 C 0.11199 0.71346 0.24303 0.0
C1608 C 0.11666 0.70587 0.3204 0.0
H1609 H 1.01852 0.7017 0.38846 0.0
H1610 H 1.04104 0.70865 0.34689 0.0
H1611 H 0.10952 0.6968 0.36308 0.0
H1612 H 0.1747 0.70985 0.24682 0.0
H1613 H 0.154 0.7164 0.28987 0.0
H1614 H 0.08464 0.73787 0.27873 0.0
C1615 C 1.04812 0.71044 0.36772 0.0
C1616 C 0.10411 0.70612 0.34495 0.0
C1617 C 1.03531 0.70628 0.39147 0.0
C1618 C 0.15719 0.71089 0.24545 0.0
C1619 C 0.14531 0.71451 0.27012 0.0
C1620 C 0.09025 0.72881 0.29697 0.0
C1621 C 1.07014 0.7157 0.37084 0.0
C1622 C 0.0843 0.71735 0.34563 0.0
C1623 C 0.12252 0.71538 0.26933 0.0
C1624 C 0.10979 0.71702 0.29598 0.0
H1625 H 1.07324 0.71467 0.44278 0.0
H1626 H 0.09573 0.72186 0.40117 0.0
H1627 H 1.06243 0.73781 0.32157 0.0
H1628 H 0.11542 0.70836 0.19837 0.0
H1629 H 0.09447 0.71379 0.24162 0.0
C1630 C 0.21698 0.31905 0.67705 0.0
C1631 C 0.21308 0.29666 0.67521 0.0
C1632 C 0.21587 0.33209 0.65289 0.0
C1633 C 0.19336 0.33453 0.58095 0.0
H1634 H 0.24024 0.37494 0.56657 0.0
C1635 C 0.19075 0.39598 0.4893 0.0
C1636 C 0.20959 0.39764 0.47274 0.0
C1637 C 0.19104 0.3844 0.51466 0.0
C1638 C 0.22709 0.36367 0.57028 0.0
H1639 H 0.20426 0.27048 0.64696 0.0
H1640 H 0.20231 0.29327 0.60475 0.0
H1641 H 0.24041 0.35319 0.60988 0.0
H1642 H 0.24361 0.38917 0.46988 0.0
H1643 H 0.24414 0.36876 0.51442 0.0
H1644 H 0.18018 0.34478 0.54124 0.0
C1645 C 0.20623 0.30073 0.62483 0.0
C1646 C 0.22707 0.3514 0.59517 0.0
C1647 C 0.20751 0.28766 0.64892 0.0
C1648 C 0.22884 0.38793 0.48221 0.0
C1649 C 0.22917 0.37642 0.50773 0.0
C1650 C 0.19331 0.3469 0.5562 0.0
C1651 C 0.21065 0.32302 0.62651 0.0
C1652 C 0.21026 0.33663 0.60066 0.0
C1653 C 0.2102 0.37438 0.52406 0.0
C1654 C 0.21022 0.36152 0.55055 0.0
H1655 H 0.22147 0.32637 0.69701 0.0
H1656 H 0.21915 0.34927 0.65482 0.0
H1657 H 0.18013 0.32338 0.58474 0.0
H1658 H 0.17572 0.40352 0.4826 0.0
H1659 H 0.17627 0.38338 0.52701 0.0
C1660 C 0.51249 0.47512 0.73522 0.0
C1661 C 0.50536 0.45547 0.72372 0.0
C1662 C 0.52257 0.47552 0.76166 0.0
C1663 C 0.53168 0.44255 0.82684 0.0
H1664 H 0.57872 0.48329 0.83762 0.0
C1665 C 0.59305 0.44169 0.92092 0.0
C1666 C 0.5974 0.462 0.93316 0.0
C1667 C 0.57996 0.44019 0.8968 0.0
C1668 C 0.5655 0.47195 0.83497 0.0
H1669 H 0.50286 0.42083 0.73064 0.0
H1670 H 0.52128 0.42132 0.77634 0.0
H1671 H 0.56019 0.48191 0.79229 0.0
H1672 H 0.59002 0.4964 0.93092 0.0
H1673 H 0.56773 0.49377 0.88856 0.0
H1674 H 0.53773 0.4322 0.86954 0.0
C1675 C 0.51867 0.43654 0.76539 0.0
C1676 C 0.55477 0.47121 0.80902 0.0
C1677 C 0.50829 0.43621 0.73911 0.0
C1678 C 0.58749 0.48057 0.92161 0.0
C1679 C 0.57466 0.47909 0.89742 0.0
C1680 C 0.54267 0.4431 0.85274 0.0
C1681 C 0.52603 0.45621 0.77698 0.0
C1682 C 0.53758 0.45664 0.80464 0.0
C1683 C 0.57117 0.45897 0.88442 0.0
C1684 C 0.55954 0.45794 0.85707 0.0
H1685 H 0.51006 0.49024 0.72393 0.0
H1686 H 0.52749 0.49104 0.77015 0.0
H1687 H 0.51835 0.43132 0.82441 0.0
H1688 H 0.60053 0.42709 0.92916 0.0
H1689 H 0.57753 0.42448 0.88709 0.0
C1690 C 0.46769 0.7799 0.96343 0.0
C1691 C 0.46187 0.75798 0.96536 0.0
C1692 C 0.47077 0.79215 0.98797 0.0
C1693 C 0.47841 0.78763 0.0659 0.0
H1694 H 0.4502 0.84386 0.06684 0.0
C1695 C 0.47515 0.8418 0.16616 0.0
C1696 C 0.45477 0.85109 0.17189 0.0
C1697 C 0.47908 0.83156 0.14024 0.0
C1698 C 0.45816 0.82818 0.06692 0.0
H1699 H 0.45557 0.73135 0.9942 0.0
H1700 H 0.46048 0.75273 0.03693 0.0
H1701 H 0.45204 0.82348 0.02287 0.0
H1702 H 0.42276 0.85737 0.15465 0.0
H1703 H 0.42942 0.83914 0.10998 0.0
H1704 H 0.48358 0.79195 0.11034 0.0
C1705 C 0.46294 0.7605 0.01662 0.0
C1706 C 0.45947 0.81662 0.04162 0.0
C1707 C 0.45991 0.74828 0.99213 0.0
C1708 C 0.43852 0.85006 0.15112 0.0
C1709 C 0.44244 0.83991 0.1253 0.0
C1710 C 0.47708 0.79921 0.09125 0.0
C1711 C 0.4681 0.78265 0.01485 0.0
C1712 C 0.46917 0.79599 0.04094 0.0
C1713 C 0.46276 0.83056 0.11952 0.0
C1714 C 0.46646 0.81938 0.09215 0.0
H1715 H 0.46959 0.78765 0.94298 0.0
H1716 H 0.47505 0.80909 0.9859 0.0
H1717 H 0.48628 0.77191 0.06598 0.0
H1718 H 0.48797 0.84229 0.18179 0.0
H1719 H 0.49493 0.82459 0.13634 0.0
C1720 C 0.08486 0.43094 0.57655 0.0
C1721 C 0.1075 0.4287 0.57629 0.0
C1722 C 1.07309 0.42611 0.60105 0.0
C1723 C 0.08173 0.42654 0.67745 0.0
H1724 H 1.02242 0.40599 0.68038 0.0
C1725 C 1.03246 0.42971 0.7807 0.0
C1726 C 1.01153 0.43833 0.77783 0.0
C1727 C 1.04423 0.42351 0.75675 0.0
C1728 C 1.03898 0.41178 0.67986 0.0
H1729 H 0.13542 0.41776 0.60023 0.0
H1730 H 0.11487 0.40902 0.64287 0.0
H1731 H 1.04297 0.40304 0.63628 0.0
H1732 H 0.98612 0.44669 0.74803 0.0
H1733 H 1.00674 0.43631 0.70625 0.0
H1734 H 1.07761 0.43603 0.72054 0.0
C1735 C 0.10624 0.41503 0.6245 0.0
C1736 C 1.05073 0.41006 0.65465 0.0
C1737 C 0.11799 0.41998 0.60011 0.0
C1738 C 1.00232 0.44022 0.75079 0.0
C1739 C 1.01405 0.43403 0.72688 0.0
C1740 C 1.07001 0.42827 0.70257 0.0
C1741 C 0.08379 0.41886 0.62561 0.0
C1742 C 1.0721 0.41784 0.65303 0.0
C1743 C 1.03523 0.42585 0.72955 0.0
C1744 C 1.04836 0.42136 0.7039 0.0
H1745 H 1.07642 0.43773 0.55849 0.0
H1746 H 1.05583 0.42939 0.60127 0.0
H1747 H 0.09801 0.43306 0.67683 0.0
H1748 H 1.03975 0.42778 0.80141 0.0
H1749 H 1.06042 0.41699 0.75951 0.0
C1750 C 0.96993 0.8588 0.3379 0.0
C1751 C 0.95049 0.87049 0.33465 0.0
C1752 C 0.9738 0.84669 0.36246 0.0
C1753 C 0.95486 0.83904 0.43652 0.0
H1754 H 0.97803 0.781 0.42719 0.0
C1755 C 0.9663 0.78191 0.53195 0.0
C1756 C 0.95968 0.76038 0.52802 0.0
C1757 C 0.96831 0.79589 0.5088 0.0
C1758 C 0.97148 0.79714 0.43015 0.0
H1759 H 0.92034 0.87942 0.35523 0.0
H1760 H 0.92678 0.85796 0.39758 0.0
H1761 H 0.97535 0.805 0.38633 0.0
H1762 H 0.95065 0.73625 0.49691 0.0
H1763 H 0.95363 0.76076 0.45654 0.0
H1764 H 0.95 0.83087 0.48001 0.0
C1765 C 0.93917 0.85824 0.38134 0.0
C1766 C 0.97021 0.81102 0.40678 0.0
C1767 C 0.93533 0.87034 0.35686 0.0
C1768 C 0.9557 0.75285 0.50052 0.0
C1769 C 0.95758 0.76685 0.47737 0.0
C1770 C 0.95604 0.82515 0.45983 0.0
C1771 C 0.95833 0.84605 0.38432 0.0
C1772 C 0.96155 0.83202 0.4096 0.0
C1773 C 0.96366 0.78863 0.48126 0.0
C1774 C 0.96406 0.80391 0.45687 0.0
H1775 H 0.9819 0.85847 0.32111 0.0
H1776 H 0.98884 0.8377 0.36422 0.0
H1777 H 0.9484 0.85521 0.43952 0.0
H1778 H 0.96977 0.788 0.55293 0.0
H1779 H 0.97343 0.81243 0.51251 0.0
C1780 C 0.55531 0.71056 0.07853 0.0
C1781 C 0.54848 0.69002 0.06922 0.0
C1782 C 0.56783 0.71255 0.10308 0.0
C1783 C 0.57894 0.68421 0.16951 0.0
H1784 H 0.63183 0.71799 0.17262 0.0
C1785 C 0.63846 0.67506 0.26153 0.0
C1786 C 0.64844 0.69375 0.2721 0.0
C1787 C 0.62635 0.67598 0.23665 0.0
C1788 C 0.61693 0.70875 0.17221 0.0
H1789 H 0.55046 0.65545 0.07755 0.0
H1790 H 0.57184 0.65899 0.12047 0.0
H1791 H 0.61035 0.71753 0.12908 0.0
H1792 H 0.654 0.72802 0.26491 0.0
H1793 H 0.63244 0.72976 0.22157 0.0
H1794 H 0.58523 0.67548 0.21245 0.0
C1795 C 0.56723 0.67354 0.10907 0.0
C1796 C 0.60468 0.70848 0.14729 0.0
C1797 C 0.55493 0.67154 0.08453 0.0
C1798 C 0.64639 0.71337 0.25719 0.0
C1799 C 0.63415 0.71433 0.23232 0.0
C1800 C 0.59104 0.68461 0.19439 0.0
C1801 C 0.57358 0.69405 0.11879 0.0
C1802 C 0.5858 0.69587 0.1456 0.0
C1803 C 0.62385 0.69566 0.2219 0.0
C1804 C 0.61039 0.69654 0.19589 0.0
H1805 H 0.5505 0.72512 0.0673 0.0
H1806 H 0.5725 0.72855 0.11021 0.0
H1807 H 0.56421 0.67469 0.16892 0.0
H1808 H 0.64007 0.65967 0.27244 0.0
H1809 H 0.61907 0.66119 0.22887 0.0
C1810 C 0.69183 0.39499 0.00686 0.0
C1811 C 0.71127 0.39638 0.02218 0.0
C1812 C 0.69107 0.38353 0.98148 0.0
C1813 C 0.72491 0.36285 0.92357 0.0
H1814 H 0.67747 0.32261 0.91207 0.0
C1815 C 0.71228 0.31761 0.81814 0.0
C1816 C 0.70891 0.29517 0.82066 0.0
C1817 C 0.71131 0.33091 0.84201 0.0
C1818 C 0.6908 0.33378 0.91502 0.0
H1819 H 0.74526 0.3875 0.02286 0.0
H1820 H 0.74396 0.36736 0.97827 0.0
H1821 H 0.67899 0.34404 0.95543 0.0
H1822 H 0.70099 0.26916 0.84977 0.0
H1823 H 0.69927 0.29241 0.89148 0.0
H1824 H 0.73689 0.35234 0.88333 0.0
C1825 C 0.72933 0.37514 0.98592 0.0
C1826 C 0.69159 0.34615 0.9397 0.0
C1827 C 0.73006 0.3865 0.01147 0.0
C1828 C 0.70382 0.28639 0.84729 0.0
C1829 C 0.70268 0.29971 0.87109 0.0
C1830 C 0.72403 0.3506 0.89878 0.0
C1831 C 0.70977 0.37339 0.97082 0.0
C1832 C 0.70873 0.3607 0.9443 0.0
C1833 C 0.70676 0.32204 0.86876 0.0
C1834 C 0.70705 0.33583 0.89436 0.0
H1835 H 0.67714 0.40262 0.01459 0.0
H1836 H 0.67585 0.38268 0.9701 0.0
H1837 H 0.7382 0.37408 0.92649 0.0
H1838 H 0.71638 0.32477 0.79789 0.0
H1839 H 0.71431 0.34812 0.83958 0.0
C1840 C 0.38897 0.31836 0.1859 0.0
C1841 C 0.38021 0.30443 0.1654 0.0
C1842 C 0.37996 0.33875 0.19054 0.0
C1843 C 0.32861 0.36791 0.18219 0.0
H1844 H 0.36276 0.41503 0.21303 0.0
C1845 C 0.2855 0.43315 0.24174 0.0
C1846 C 0.29238 0.43221 0.27008 0.0
C1847 C 0.29901 0.42577 0.22015 0.0
C1848 C 0.35306 0.40218 0.20397 0.0
H1849 H 0.35528 0.30126 0.13329 0.0
H1850 H 0.34 0.33723 0.1407 0.0
H1851 H 0.38099 0.38435 0.19053 0.0
H1852 H 0.31974 0.42588 0.29764 0.0
H1853 H 0.34322 0.41254 0.26002 0.0
H1854 H 0.30078 0.38519 0.19654 0.0
C1855 C 0.35363 0.33217 0.15357 0.0
C1856 C 0.36345 0.38453 0.19134 0.0
C1857 C 0.36248 0.3116 0.1492 0.0
C1858 C 0.31391 0.42635 0.27603 0.0
C1859 C 0.32743 0.41897 0.25442 0.0
C1860 C 0.31826 0.38563 0.19443 0.0
C1861 C 0.36214 0.34591 0.17451 0.0
C1862 C 0.35134 0.36669 0.18166 0.0
C1863 C 0.31956 0.41731 0.2266 0.0
C1864 C 0.33041 0.40242 0.20665 0.0
H1865 H 0.40296 0.31362 0.19832 0.0
H1866 H 0.38668 0.34866 0.20725 0.0
H1867 H 0.31873 0.35445 0.17522 0.0
H1868 H 0.26899 0.4376 0.23644 0.0
H1869 H 0.29269 0.42488 0.1988 0.0
C1870 C 0.67464 0.62605 0.51452 0.0
C1871 C 0.68704 0.62073 0.49056 0.0
C1872 C 0.66983 0.61034 0.53476 0.0
C1873 C 0.65906 0.55293 0.53272 0.0
H1874 H 0.63812 0.56437 0.60863 0.0
C1875 C 0.59105 0.50167 0.57915 0.0
C1876 C 0.57359 0.51432 0.58884 0.0
C1877 C 0.61147 0.5109 0.5753 0.0
C1878 C 0.64404 0.56083 0.58755 0.0
H1879 H 0.70649 0.59559 0.47092 0.0
H1880 H 0.69807 0.56802 0.50644 0.0
H1881 H 0.66545 0.58811 0.58766 0.0
H1882 H 0.56401 0.54621 0.60347 0.0
H1883 H 0.59954 0.5625 0.5962 0.0
H1884 H 0.63681 0.52656 0.53178 0.0
C1885 C 0.69169 0.58425 0.50921 0.0
C1886 C 0.65972 0.57437 0.57557 0.0
C1887 C 0.69648 0.60001 0.48886 0.0
C1888 C 0.5772 0.53608 0.59603 0.0
C1889 C 0.59761 0.54534 0.59206 0.0
C1890 C 0.6435 0.53939 0.5447 0.0
C1891 C 0.67729 0.58894 0.53148 0.0
C1892 C 0.66648 0.57125 0.54744 0.0
C1893 C 0.61482 0.53299 0.58095 0.0
C1894 C 0.63501 0.54387 0.57165 0.0
H1895 H 0.66698 0.6418 0.51645 0.0
H1896 H 0.65854 0.61455 0.55143 0.0
H1897 H 0.66368 0.5501 0.51092 0.0
H1898 H 0.58882 0.48469 0.5741 0.0
H1899 H 0.62448 0.5009 0.56708 0.0
C1900 C 0.32749 0.92514 0.69805 0.0
C1901 C 0.31896 0.912 0.6765 0.0
C1902 C 0.34828 0.9212 0.70866 0.0
C1903 C 0.39821 0.88774 0.69813 0.0
H1904 H 0.39256 0.87779 0.77877 0.0
C1905 C 0.4283 0.81237 0.75309 0.0
C1906 C 0.43192 0.81227 0.7824 0.0
C1907 C 0.42359 0.83171 0.73903 0.0
C1908 C 0.39494 0.881 0.75645 0.0
H1909 H 0.3261 0.88582 0.64742 0.0
H1910 H 0.36206 0.87858 0.66628 0.0
H1911 H 0.36624 0.90027 0.75474 0.0
H1912 H 0.43572 0.8326 0.81948 0.0
H1913 H 0.42783 0.86646 0.7948 0.0
H1914 H 0.42615 0.8671 0.6997 0.0
C1915 C 0.3529 0.89203 0.67492 0.0
C1916 C 0.37974 0.89396 0.7426 0.0
C1917 C 0.33214 0.89593 0.66439 0.0
C1918 C 0.43292 0.83214 0.79687 0.0
C1919 C 0.42826 0.85153 0.78277 0.0
C1920 C 0.41349 0.87479 0.71203 0.0
C1921 C 0.3609 0.90412 0.69783 0.0
C1922 C 0.38047 0.89639 0.71305 0.0
C1923 C 0.42245 0.85137 0.75401 0.0
C1924 C 0.41122 0.87023 0.74104 0.0
H1925 H 0.31768 0.93767 0.70776 0.0
H1926 H 0.35408 0.93088 0.72618 0.0
H1927 H 0.39944 0.88975 0.67541 0.0
H1928 H 0.42787 0.79733 0.7413 0.0
H1929 H 0.4191 0.83089 0.71691 0.0
C1930 C 1.0741 0.6638 0.04709 0.0
C1931 C 0.09294 0.67295 0.03554 0.0
C1932 C 1.05629 0.65941 0.0299 0.0
C1933 C 1.04619 0.64562 0.95592 0.0
H1934 H 0.98805 0.63665 0.98482 0.0
C1935 C 0.99057 0.58535 0.9018 0.0
C1936 C 0.98496 0.56876 0.92091 0.0
C1937 C 0.99746 0.60552 0.91174 0.0
C1938 C 1.00411 0.63935 0.97626 0.0
H1939 H 0.10731 0.68652 -0.00236 0.0
H1940 H 1.07593 0.67932 0.96757 0.0
H1941 H 1.01293 0.66039 0.01029 0.0
H1942 H 0.98051 0.56106 0.9654 0.0
H1943 H 0.99218 0.59612 0.98255 0.0
H1944 H 1.03775 0.62386 0.92266 0.0
C1945 C 1.07512 0.67497 0.98975 0.0
C1946 C 1.01841 0.65283 0.99089 0.0
C1947 C 0.09307 0.67912 0.00692 0.0
C1948 C 0.98451 0.57345 0.95001 0.0
C1949 C 0.99119 0.59364 0.9599 0.0
C1950 C 1.03184 0.63237 0.94117 0.0
C1951 C 1.05684 0.66425 0.00079 0.0
C1952 C 1.04 0.65516 0.98171 0.0
C1953 C 0.99864 0.60953 0.94095 0.0
C1954 C 1.01105 0.62821 0.95198 0.0
H1955 H 1.07363 0.65874 0.06904 0.0
H1956 H 1.04271 0.65085 0.03916 0.0
H1957 H 1.06268 0.64681 0.94823 0.0
H1958 H 0.99058 0.58245 0.87921 0.0
H1959 H 1.0029 0.61759 0.89667 0.0
C1960 C 0.8355 0.90525 0.83874 0.0
C1961 C 0.81956 0.90941 0.81811 0.0
C1962 C 0.85654 0.89946 0.83074 0.0
C1963 C 0.89426 0.8947 0.76989 0.0
H1964 H 0.90382 0.8366 0.79866 0.0
C1965 C 0.92391 0.82632 0.7008 0.0
C1966 C 0.93252 0.80734 0.71277 0.0
C1967 C 0.91902 0.84411 0.7178 0.0
C1968 C 0.9021 0.85303 0.79087 0.0
H1969 H 0.81374 0.91218 0.77293 0.0
H1970 H 0.85037 0.90243 0.75913 0.0
H1971 H 0.87813 0.8601 0.82213 0.0
H1972 H 0.94492 0.79275 0.75121 0.0
H1973 H 0.93699 0.82415 0.78099 0.0
H1974 H 0.91759 0.88725 0.73783 0.0
C1975 C 0.84665 0.90375 0.78147 0.0
C1976 C 0.88723 0.86654 0.8044 0.0
C1977 C 0.82559 0.90929 0.78942 0.0
C1978 C 0.93793 0.80712 0.74161 0.0
C1979 C 0.93335 0.82508 0.75861 0.0
C1980 C 0.90941 0.88128 0.75656 0.0
C1981 C 0.86209 0.89801 0.802 0.0
C1982 C 0.88227 0.88699 0.79306 0.0
C1983 C 0.92285 0.84339 0.74715 0.0
C1984 C 0.91248 0.85979 0.76585 0.0
H1985 H 0.83155 0.90575 0.86106 0.0
H1986 H 0.86821 0.89522 0.84697 0.0
H1987 H 0.89093 0.91057 0.76101 0.0
H1988 H 0.91944 0.82687 0.67864 0.0
H1989 H 0.91068 0.85769 0.70814 0.0
C1990 C 0.82862 0.40681 0.19836 0.0
C1991 C 0.82127 0.40601 0.17023 0.0
C1992 C 0.84987 0.40097 0.20501 0.0
C1993 C 0.88841 0.36182 0.18165 0.0
H1994 H 0.92216 0.38417 0.24427 0.0
C1995 C 0.93944 0.30323 0.24514 0.0
C1996 C 0.93495 0.30471 0.2742 0.0
C1997 C 0.93504 0.32073 0.22719 0.0
C1998 C 0.91303 0.37774 0.22662 0.0
H1999 H 0.83113 0.40035 0.12674 0.0
H2000 H 0.86809 0.38931 0.13863 0.0
H2001 H 0.89515 0.40734 0.22142 0.0
H2002 H 0.92391 0.32604 0.30763 0.0
H2003 H 0.91549 0.3561 0.27656 0.0
H2004 H 0.90442 0.33167 0.18833 0.0
C2005 C 0.85732 0.3945 0.15543 0.0
C2006 C 0.89768 0.39106 0.21348 0.0
C2007 C 0.8361 0.40059 0.14871 0.0
C2008 C 0.92763 0.32449 0.28532 0.0
C2009 C 0.92294 0.34183 0.26739 0.0
C2010 C 0.90349 0.34842 0.19502 0.0
C2011 C 0.86417 0.39401 0.18374 0.0
C2012 C 0.88447 0.38281 0.19186 0.0
C2013 C 0.92566 0.33985 0.23793 0.0
C2014 C 0.91509 0.35583 0.21873 0.0
H2015 H 0.81765 0.41068 0.21553 0.0
H2016 H 0.85458 0.4004 0.22708 0.0
H2017 H 0.87837 0.35498 0.16513 0.0
H2018 H 0.94544 0.28822 0.23615 0.0
H2019 H 0.93784 0.31881 0.20471 0.0
C2020 C 0.08292 0.1077 0.91382 0.0
C2021 C 0.08391 0.12914 0.904 0.0
C2022 C 1.06296 0.09778 0.9184 0.0
C2023 C 1.01899 1.07704 0.91624 0.0
H2024 H 0.98087 0.10863 0.96683 0.0
C2025 C 0.96257 1.02923 0.98513 0.0
C2026 C 0.96724 1.03373 0.01363 0.0
C2027 C 0.96735 1.04443 0.9641 0.0
C2028 C 0.99112 0.09967 0.95234 0.0
H2029 H 1.06487 0.15694 0.89069 0.0
H2030 H 1.02976 0.13955 0.899 0.0
H2031 H 1.01016 0.12769 0.9427 0.0
H2032 H 0.97807 1.05858 0.04275 0.0
H2033 H 0.98657 0.08483 0.0064 0.0
H2034 H 1.00142 1.04868 0.92772 0.0
C2035 C 1.04449 0.13046 0.90303 0.0
C2036 C 1.00781 0.11062 0.93836 0.0
C2037 C 1.06453 0.14035 0.89823 0.0
C2038 C 0.97424 1.05461 0.021 0.0
C2039 C 0.97908 1.06975 2e-05 0.0
C2040 C 1.0024 1.0661 0.93025 0.0
C2041 C 1.04353 0.10912 0.91335 0.0
C2042 C 1.02265 0.09911 0.92151 0.0
C2043 C 0.97698 1.06432 0.97125 0.0
C2044 C 0.9891 1.07705 0.94977 0.0
H2045 H 0.09761 0.09859 0.91807 0.0
H2046 H 1.06277 0.08145 0.92685 0.0
H2047 H 1.02994 1.06788 0.90286 0.0
H2048 H 0.9567 1.01339 0.97893 0.0
H2049 H 0.96508 1.03996 0.94214 0.0
C2050 C 0.57395 0.1782 0.54358 0.0
C2051 C 0.5944 0.17623 0.53066 0.0
C2052 C 0.5551 0.17381 0.52827 0.0
C2053 C 0.53462 0.15815 0.4565 0.0
H2054 H 0.50479 0.11361 0.49931 0.0
C2055 C 0.51057 1.07687 0.41104 0.0
C2056 C 0.493 1.06531 0.42232 0.0
C2057 C 0.51547 0.09755 0.42099 0.0
C2058 C 0.51238 0.12638 0.48707 0.0
H2059 H 0.61101 0.1707 0.4909 0.0
H2060 H 0.57837 0.16232 0.46448 0.0
H2061 H 0.52758 0.13928 0.5238 0.0
H2062 H 0.46586 1.06682 0.45143 0.0
H2063 H 0.47445 0.10307 0.46891 0.0
H2064 H 0.52059 0.14394 0.41948 0.0
C2065 C 0.57669 0.16739 0.4863 0.0
C2066 C 0.5255 0.14121 0.50118 0.0
C2067 C 0.59549 0.17186 0.50155 0.0
C2068 C 0.47953 1.07538 0.44239 0.0
C2069 C 0.48448 0.09608 0.45245 0.0
C2070 C 0.52153 0.14323 0.44235 0.0
C2071 C 0.55637 0.16726 0.49983 0.0
C2072 C 0.53773 0.15648 0.4859 0.0
C2073 C 0.50292 0.10707 0.44251 0.0
C2074 C 0.51125 0.12647 0.45739 0.0
H2075 H 0.57256 0.18159 0.56599 0.0
H2076 H 0.53966 0.17421 0.53918 0.0
H2077 H 0.54346 0.17005 0.44421 0.0
H2078 H 0.52101 1.06961 0.39522 0.0
H2079 H 0.52993 0.10545 0.41309 0.0
loop_
_geom_bond_atom_site_label_1
_geom_bond_atom_site_label_2
_geom_bond_distance
_geom_bond_site_symmetry_2
_ccdc_geom_bond_type
C0 Eu1 2.835 . S
C0 C2 1.500 . S
C0 O20 1.257 . S
C0 O21 1.260 . S
Eu1 C0 2.835 . S
Eu1 O20 2.473 . S
Eu1 O21 2.480 . S
Eu1 O22 2.430 . S
Eu1 O23 2.670 . S
Eu1 O24 2.394 . S
Eu1 O29 2.355 . S
Eu1 O31 2.374 . S
C2 C0 1.500 . S
C2 C3 1.377 . S
C2 C7 1.377 . S
C3 C2 1.377 . S
C3 C4 1.395 . S
C3 H32 0.931 . S
C4 C3 1.395 . S
C4 C5 1.383 . S
C4 H33 0.931 . S
C5 C4 1.383 . S
C5 C6 1.394 . S
C6 C5 1.394 . S
C6 C7 1.378 . S
C6 H34 0.931 . S
C7 C2 1.377 . S
C7 C6 1.378 . S
C7 H35 0.931 . S
C8 O22 1.259 . S
C8 O23 1.270 . S
C9 O24 1.251 . S
C9 O25 1.251 . S
C10 Eu11 2.835 1_556 S
C10 C12 1.500 . S
C10 O26 1.257 . S
C10 O27 1.260 . S
Eu11 C10 2.835 1_554 S
Eu11 O23 2.355 . S
Eu11 O25 2.374 . S
Eu11 O26 2.473 1_554 S
Eu11 O27 2.480 1_554 S
Eu11 O28 2.430 . S
Eu11 O29 2.670 . S
Eu11 O30 2.394 . S
C12 C10 1.500 . S
C12 C13 1.377 . S
C12 C17 1.377 . S
C13 C12 1.377 . S
C13 C14 1.395 . S
C13 H36 0.931 . S
C14 C13 1.395 . S
C14 C15 1.383 . S
C14 H37 0.931 . S
C15 C14 1.383 . S
C15 C16 1.394 . S
C16 C15 1.394 . S
C16 C17 1.378 . S
C16 H38 0.931 . S
C17 C12 1.377 . S
C17 C16 1.378 . S
C17 H39 0.931 . S
C18 O28 1.259 . S
C18 O29 1.270 . S
C19 O30 1.251 . S
C19 O31 1.251 . S
O20 C0 1.257 . S
O20 Eu1 2.473 . S
O21 C0 1.260 . S
O21 Eu1 2.480 . S
O22 Eu1 2.430 . S
O22 C8 1.259 . S
O23 Eu1 2.670 . S
O23 C8 1.270 . S
O23 Eu11 2.355 . S
O24 Eu1 2.394 . S
O24 C9 1.251 . S
O25 C9 1.251 . S
O25 Eu11 2.374 . S
O26 C10 1.257 . S
O26 Eu11 2.473 1_556 S
O27 C10 1.260 . S
O27 Eu11 2.480 1_556 S
O28 Eu11 2.430 . S
O28 C18 1.259 . S
O29 Eu1 2.355 . S
O29 Eu11 2.670 . S
O29 C18 1.270 . S
O30 Eu11 2.394 . S
O30 C19 1.251 . S
O31 Eu1 2.374 . S
O31 C19 1.251 . S
H32 C3 0.931 . S
H33 C4 0.931 . S
H34 C6 0.931 . S
H35 C7 0.931 . S
H36 C13 0.931 . S
H37 C14 0.931 . S
H38 C16 0.931 . S
H39 C17 0.931 . S
C40 Eu41 2.835 . S
C40 C42 1.500 . S
C40 O60 1.257 . S
C40 O61 1.260 . S
Eu41 C40 2.835 . S
Eu41 O60 2.473 . S
Eu41 O61 2.480 . S
Eu41 O62 2.430 . S
Eu41 O63 2.670 . S
Eu41 O64 2.394 . S
Eu41 O69 2.355 . S
Eu41 O71 2.374 . S
C42 C40 1.500 . S
C42 C43 1.377 . S
C42 C47 1.377 . S
C43 C42 1.377 . S
C43 C44 1.395 . S
C43 H72 0.931 . S
C44 C43 1.395 . S
C44 C45 1.383 . S
C44 H73 0.931 . S
C45 C44 1.383 . S
C45 C46 1.394 . S
C46 C45 1.394 . S
C46 C47 1.378 . S
C46 H74 0.931 . S
C47 C42 1.377 . S
C47 C46 1.378 . S
C47 H75 0.931 . S
C48 O62 1.259 . S
C48 O63 1.270 . S
C49 O64 1.251 . S
C49 O65 1.251 . S
C50 Eu51 2.835 . S
C50 C52 1.500 . S
C50 O66 1.257 . S
C50 O67 1.260 . S
Eu51 C50 2.835 . S
Eu51 O63 2.355 . S
Eu51 O65 2.374 . S
Eu51 O66 2.473 . S
Eu51 O67 2.480 . S
Eu51 O68 2.430 . S
Eu51 O69 2.670 . S
Eu51 O70 2.394 . S
C52 C50 1.500 . S
C52 C53 1.377 . S
C52 C57 1.377 . S
C53 C52 1.377 . S
C53 C54 1.395 . S
C53 H76 0.931 . S
C54 C53 1.395 . S
C54 C55 1.383 . S
C54 H77 0.931 . S
C55 C54 1.383 . S
C55 C56 1.394 . S
C56 C55 1.394 . S
C56 C57 1.378 . S
C56 H78 0.931 . S
C57 C52 1.377 . S
C57 C56 1.378 . S
C57 H79 0.931 . S
C58 O68 1.259 . S
C58 O69 1.270 . S
C59 O70 1.251 . S
C59 O71 1.251 . S
O60 C40 1.257 . S
O60 Eu41 2.473 . S
O61 C40 1.260 . S
O61 Eu41 2.480 . S
O62 Eu41 2.430 . S
O62 C48 1.259 . S
O63 Eu41 2.670 . S
O63 C48 1.270 . S
O63 Eu51 2.355 . S
O64 Eu41 2.394 . S
O64 C49 1.251 . S
O65 C49 1.251 . S
O65 Eu51 2.374 . S
O66 C50 1.257 . S
O66 Eu51 2.473 . S
O67 C50 1.260 . S
O67 Eu51 2.480 . S
O68 Eu51 2.430 . S
O68 C58 1.259 . S
O69 Eu41 2.355 . S
O69 Eu51 2.670 . S
O69 C58 1.270 . S
O70 Eu51 2.394 . S
O70 C59 1.251 . S
O71 Eu41 2.374 . S
O71 C59 1.251 . S
H72 C43 0.931 . S
H73 C44 0.931 . S
H74 C46 0.931 . S
H75 C47 0.931 . S
H76 C53 0.931 . S
H77 C54 0.931 . S
H78 C56 0.931 . S
H79 C57 0.931 . S
C80 Eu81 2.835 . S
C80 C82 1.500 . S
C80 O100 1.257 . S
C80 O101 1.260 . S
Eu81 C80 2.835 . S
Eu81 O100 2.473 . S
Eu81 O101 2.480 . S
Eu81 O102 2.430 . S
Eu81 O103 2.670 . S
Eu81 O104 2.394 . S
Eu81 O109 2.355 . S
Eu81 O111 2.374 . S
C82 C80 1.500 . S
C82 C83 1.377 . S
C82 C87 1.377 . S
C83 C82 1.377 . S
C83 C84 1.395 . S
C83 H112 0.931 . S
C84 C83 1.395 . S
C84 C85 1.383 . S
C84 H113 0.931 . S
C85 C84 1.383 . S
C85 C86 1.394 . S
C86 C85 1.394 . S
C86 C87 1.378 . S
C86 H114 0.931 . S
C87 C82 1.377 . S
C87 C86 1.378 . S
C87 H115 0.931 . S
C88 O102 1.259 . S
C88 O103 1.270 . S
C89 O104 1.251 . S
C89 O105 1.251 . S
C90 Eu91 2.835 . S
C90 C92 1.500 . S
C90 O106 1.257 . S
C90 O107 1.260 . S
Eu91 C90 2.835 . S
Eu91 O103 2.355 . S
Eu91 O105 2.374 . S
Eu91 O106 2.473 . S
Eu91 O107 2.480 . S
Eu91 O108 2.430 . S
Eu91 O109 2.670 . S
Eu91 O110 2.394 . S
C92 C90 1.500 . S
C92 C93 1.377 . S
C92 C97 1.377 . S
C93 C92 1.377 . S
C93 C94 1.395 . S
C93 H116 0.931 . S
C94 C93 1.395 . S
C94 C95 1.383 . S
C94 H117 0.931 . S
C95 C94 1.383 . S
C95 C96 1.394 . S
C96 C95 1.394 . S
C96 C97 1.378 . S
C96 H118 0.931 . S
C97 C92 1.377 . S
C97 C96 1.378 . S
C97 H119 0.931 . S
C98 O108 1.259 . S
C98 O109 1.270 . S
C99 O110 1.251 . S
C99 O111 1.251 . S
O100 C80 1.257 . S
O100 Eu81 2.473 . S
O101 C80 1.260 . S
O101 Eu81 2.480 . S
O102 Eu81 2.430 . S
O102 C88 1.259 . S
O103 Eu81 2.670 . S
O103 C88 1.270 . S
O103 Eu91 2.355 . S
O104 Eu81 2.394 . S
O104 C89 1.251 . S
O105 C89 1.251 . S
O105 Eu91 2.374 . S
O106 C90 1.257 . S
O106 Eu91 2.473 . S
O107 C90 1.260 . S
O107 Eu91 2.480 . S
O108 Eu91 2.430 . S
O108 C98 1.259 . S
O109 Eu81 2.355 . S
O109 Eu91 2.670 . S
O109 C98 1.270 . S
O110 Eu91 2.394 . S
O110 C99 1.251 . S
O111 Eu81 2.374 . S
O111 C99 1.251 . S
H112 C83 0.931 . S
H113 C84 0.931 . S
H114 C86 0.931 . S
H115 C87 0.931 . S
H116 C93 0.931 . S
H117 C94 0.931 . S
H118 C96 0.931 . S
H119 C97 0.931 . S
C120 Eu121 2.835 . S
C120 C122 1.500 . S
C120 O140 1.257 . S
C120 O141 1.260 . S
Eu121 C120 2.835 . S
Eu121 O140 2.473 . S
Eu121 O141 2.480 . S
Eu121 O142 2.430 . S
Eu121 O143 2.670 . S
Eu121 O144 2.394 . S
Eu121 O149 2.355 . S
Eu121 O151 2.374 . S
C122 C120 1.500 . S
C122 C123 1.377 . S
C122 C127 1.377 . S
C123 C122 1.377 . S
C123 C124 1.395 . S
C123 H152 0.931 . S
C124 C123 1.395 . S
C124 C125 1.383 . S
C124 H153 0.931 . S
C125 C124 1.383 . S
C125 C126 1.394 . S
C126 C125 1.394 . S
C126 C127 1.378 . S
C126 H154 0.931 . S
C127 C122 1.377 . S
C127 C126 1.378 . S
C127 H155 0.931 . S
C128 O142 1.259 . S
C128 O143 1.270 . S
C129 O144 1.251 . S
C129 O145 1.251 . S
C130 Eu131 2.835 . S
C130 C132 1.500 . S
C130 O146 1.257 . S
C130 O147 1.260 . S
Eu131 C130 2.835 . S
Eu131 O143 2.355 . S
Eu131 O145 2.374 . S
Eu131 O146 2.473 . S
Eu131 O147 2.480 . S
Eu131 O148 2.430 . S
Eu131 O149 2.670 . S
Eu131 O150 2.394 . S
C132 C130 1.500 . S
C132 C133 1.377 . S
C132 C137 1.377 . S
C133 C132 1.377 . S
C133 C134 1.395 . S
C133 H156 0.931 . S
C134 C133 1.395 . S
C134 C135 1.383 . S
C134 H157 0.931 . S
C135 C134 1.383 . S
C135 C136 1.394 . S
C136 C135 1.394 . S
C136 C137 1.378 . S
C136 H158 0.931 . S
C137 C132 1.377 . S
C137 C136 1.378 . S
C137 H159 0.931 . S
C138 O148 1.259 . S
C138 O149 1.270 . S
C139 O150 1.251 . S
C139 O151 1.251 . S
O140 C120 1.257 . S
O140 Eu121 2.473 . S
O141 C120 1.260 . S
O141 Eu121 2.480 . S
O142 Eu121 2.430 . S
O142 C128 1.259 . S
O143 Eu121 2.670 . S
O143 C128 1.270 . S
O143 Eu131 2.355 . S
O144 Eu121 2.394 . S
O144 C129 1.251 . S
O145 C129 1.251 . S
O145 Eu131 2.374 . S
O146 C130 1.257 . S
O146 Eu131 2.473 . S
O147 C130 1.260 . S
O147 Eu131 2.480 . S
O148 Eu131 2.430 . S
O148 C138 1.259 . S
O149 Eu121 2.355 . S
O149 Eu131 2.670 . S
O149 C138 1.270 . S
O150 Eu131 2.394 . S
O150 C139 1.251 . S
O151 Eu121 2.374 . S
O151 C139 1.251 . S
H152 C123 0.931 . S
H153 C124 0.931 . S
H154 C126 0.931 . S
H155 C127 0.931 . S
H156 C133 0.931 . S
H157 C134 0.931 . S
H158 C136 0.931 . S
H159 C137 0.931 . S
C160 Eu161 2.835 1_554 S
C160 C162 1.500 . S
C160 O180 1.257 . S
C160 O181 1.260 . S
Eu161 C160 2.835 1_556 S
Eu161 O180 2.473 1_556 S
Eu161 O181 2.480 1_556 S
Eu161 O182 2.430 . S
Eu161 O183 2.670 . S
Eu161 O184 2.394 . S
Eu161 O189 2.355 . S
Eu161 O191 2.374 . S
C162 C160 1.500 . S
C162 C163 1.377 . S
C162 C167 1.377 . S
C163 C162 1.377 . S
C163 C164 1.395 . S
C163 H192 0.931 . S
C164 C163 1.395 . S
C164 C165 1.383 . S
C164 H193 0.931 . S
C165 C164 1.383 . S
C165 C166 1.394 . S
C166 C165 1.394 . S
C166 C167 1.378 . S
C166 H194 0.931 . S
C167 C162 1.377 . S
C167 C166 1.378 . S
C167 H195 0.931 . S
C168 O182 1.259 . S
C168 O183 1.270 . S
C169 O184 1.251 . S
C169 O185 1.251 . S
C170 Eu171 2.835 . S
C170 C172 1.500 . S
C170 O186 1.257 . S
C170 O187 1.260 . S
Eu171 C170 2.835 . S
Eu171 O183 2.355 . S
Eu171 O185 2.374 . S
Eu171 O186 2.473 . S
Eu171 O187 2.480 . S
Eu171 O188 2.430 . S
Eu171 O189 2.670 . S
Eu171 O190 2.394 . S
C172 C170 1.500 . S
C172 C173 1.377 . S
C172 C177 1.377 . S
C173 C172 1.377 . S
C173 C174 1.395 . S
C173 H196 0.931 . S
C174 C173 1.395 . S
C174 C175 1.383 . S
C174 H197 0.931 . S
C175 C174 1.383 . S
C175 C176 1.394 . S
C176 C175 1.394 . S
C176 C177 1.378 . S
C176 H198 0.931 . S
C177 C172 1.377 . S
C177 C176 1.378 . S
C177 H199 0.931 . S
C178 O188 1.259 . S
C178 O189 1.270 . S
C179 O190 1.251 . S
C179 O191 1.251 . S
O180 C160 1.257 . S
O180 Eu161 2.473 1_554 S
O181 C160 1.260 . S
O181 Eu161 2.480 1_554 S
O182 Eu161 2.430 . S
O182 C168 1.259 . S
O183 Eu161 2.670 . S
O183 C168 1.270 . S
O183 Eu171 2.355 . S
O184 Eu161 2.394 . S
O184 C169 1.251 . S
O185 C169 1.251 . S
O185 Eu171 2.374 . S
O186 C170 1.257 . S
O186 Eu171 2.473 . S
O187 C170 1.260 . S
O187 Eu171 2.480 . S
O188 Eu171 2.430 . S
O188 C178 1.259 . S
O189 Eu161 2.355 . S
O189 Eu171 2.670 . S
O189 C178 1.270 . S
O190 Eu171 2.394 . S
O190 C179 1.251 . S
O191 Eu161 2.374 . S
O191 C179 1.251 . S
H192 C163 0.931 . S
H193 C164 0.931 . S
H194 C166 0.931 . S
H195 C167 0.931 . S
H196 C173 0.931 . S
H197 C174 0.931 . S
H198 C176 0.931 . S
H199 C177 0.931 . S
C200 Eu201 2.835 . S
C200 C202 1.500 . S
C200 O220 1.257 . S
C200 O221 1.260 . S
Eu201 C200 2.835 . S
Eu201 O220 2.473 . S
Eu201 O221 2.480 . S
Eu201 O222 2.430 . S
Eu201 O223 2.670 . S
Eu201 O224 2.394 . S
Eu201 O229 2.355 . S
Eu201 O231 2.374 . S
C202 C200 1.500 . S
C202 C203 1.377 . S
C202 C207 1.377 . S
C203 C202 1.377 . S
C203 C204 1.395 . S
C203 H232 0.931 . S
C204 C203 1.395 . S
C204 C205 1.383 . S
C204 H233 0.931 . S
C205 C204 1.383 . S
C205 C206 1.394 . S
C206 C205 1.394 . S
C206 C207 1.378 . S
C206 H234 0.931 . S
C207 C202 1.377 . S
C207 C206 1.378 . S
C207 H235 0.931 . S
C208 O222 1.259 . S
C208 O223 1.270 . S
C209 O224 1.251 . S
C209 O225 1.251 . S
C210 Eu211 2.835 . S
C210 C212 1.500 . S
C210 O226 1.257 . S
C210 O227 1.260 . S
Eu211 C210 2.835 . S
Eu211 O223 2.355 . S
Eu211 O225 2.374 . S
Eu211 O226 2.473 . S
Eu211 O227 2.480 . S
Eu211 O228 2.430 . S
Eu211 O229 2.670 . S
Eu211 O230 2.394 . S
C212 C210 1.500 . S
C212 C213 1.377 . S
C212 C217 1.377 . S
C213 C212 1.377 . S
C213 C214 1.395 . S
C213 H236 0.931 . S
C214 C213 1.395 . S
C214 C215 1.383 . S
C214 H237 0.931 . S
C215 C214 1.383 . S
C215 C216 1.394 . S
C216 C215 1.394 . S
C216 C217 1.378 . S
C216 H238 0.931 . S
C217 C212 1.377 . S
C217 C216 1.378 . S
C217 H239 0.931 . S
C218 O228 1.259 . S
C218 O229 1.270 . S
C219 O230 1.251 . S
C219 O231 1.251 . S
O220 C200 1.257 . S
O220 Eu201 2.473 . S
O221 C200 1.260 . S
O221 Eu201 2.480 . S
O222 Eu201 2.430 . S
O222 C208 1.259 . S
O223 Eu201 2.670 . S
O223 C208 1.270 . S
O223 Eu211 2.355 . S
O224 Eu201 2.394 . S
O224 C209 1.251 . S
O225 C209 1.251 . S
O225 Eu211 2.374 . S
O226 C210 1.257 . S
O226 Eu211 2.473 . S
O227 C210 1.260 . S
O227 Eu211 2.480 . S
O228 Eu211 2.430 . S
O228 C218 1.259 . S
O229 Eu201 2.355 . S
O229 Eu211 2.670 . S
O229 C218 1.270 . S
O230 Eu211 2.394 . S
O230 C219 1.251 . S
O231 Eu201 2.374 . S
O231 C219 1.251 . S
H232 C203 0.931 . S
H233 C204 0.931 . S
H234 C206 0.931 . S
H235 C207 0.931 . S
H236 C213 0.931 . S
H237 C214 0.931 . S
H238 C216 0.931 . S
H239 C217 0.931 . S
C240 Eu241 2.835 . S
C240 C242 1.500 . S
C240 O260 1.257 . S
C240 O261 1.260 . S
Eu241 C240 2.835 . S
Eu241 O260 2.473 . S
Eu241 O261 2.480 . S
Eu241 O262 2.430 . S
Eu241 O263 2.670 . S
Eu241 O264 2.394 . S
Eu241 O269 2.355 . S
Eu241 O271 2.374 . S
C242 C240 1.500 . S
C242 C243 1.377 . S
C242 C247 1.377 . S
C243 C242 1.377 . S
C243 C244 1.395 . S
C243 H272 0.931 . S
C244 C243 1.395 . S
C244 C245 1.383 . S
C244 H273 0.931 . S
C245 C244 1.383 . S
C245 C246 1.394 . S
C246 C245 1.394 . S
C246 C247 1.378 . S
C246 H274 0.931 . S
C247 C242 1.377 . S
C247 C246 1.378 . S
C247 H275 0.931 . S
C248 O262 1.259 . S
C248 O263 1.270 . S
C249 O264 1.251 . S
C249 O265 1.251 . S
C250 Eu251 2.835 . S
C250 C252 1.500 . S
C250 O266 1.257 . S
C250 O267 1.260 . S
Eu251 C250 2.835 . S
Eu251 O263 2.355 . S
Eu251 O265 2.374 . S
Eu251 O266 2.473 . S
Eu251 O267 2.480 . S
Eu251 O268 2.430 . S
Eu251 O269 2.670 . S
Eu251 O270 2.394 . S
C252 C250 1.500 . S
C252 C253 1.377 . S
C252 C257 1.377 . S
C253 C252 1.377 . S
C253 C254 1.395 . S
C253 H276 0.931 . S
C254 C253 1.395 . S
C254 C255 1.383 . S
C254 H277 0.931 . S
C255 C254 1.383 . S
C255 C256 1.394 . S
C256 C255 1.394 . S
C256 C257 1.378 . S
C256 H278 0.931 . S
C257 C252 1.377 . S
C257 C256 1.378 . S
C257 H279 0.931 . S
C258 O268 1.259 . S
C258 O269 1.270 . S
C259 O270 1.251 . S
C259 O271 1.251 . S
O260 C240 1.257 . S
O260 Eu241 2.473 . S
O261 C240 1.260 . S
O261 Eu241 2.480 . S
O262 Eu241 2.430 . S
O262 C248 1.259 . S
O263 Eu241 2.670 . S
O263 C248 1.270 . S
O263 Eu251 2.355 . S
O264 Eu241 2.394 . S
O264 C249 1.251 . S
O265 C249 1.251 . S
O265 Eu251 2.374 . S
O266 C250 1.257 . S
O266 Eu251 2.473 . S
O267 C250 1.260 . S
O267 Eu251 2.480 . S
O268 Eu251 2.430 . S
O268 C258 1.259 . S
O269 Eu241 2.355 . S
O269 Eu251 2.670 . S
O269 C258 1.270 . S
O270 Eu251 2.394 . S
O270 C259 1.251 . S
O271 Eu241 2.374 . S
O271 C259 1.251 . S
H272 C243 0.931 . S
H273 C244 0.931 . S
H274 C246 0.931 . S
H275 C247 0.931 . S
H276 C253 0.931 . S
H277 C254 0.931 . S
H278 C256 0.931 . S
H279 C257 0.931 . S
C280 Eu281 2.835 . S
C280 C282 1.500 . S
C280 O300 1.257 . S
C280 O301 1.260 . S
Eu281 C280 2.835 . S
Eu281 O300 2.473 . S
Eu281 O301 2.480 . S
Eu281 O302 2.430 . S
Eu281 O303 2.670 . S
Eu281 O304 2.394 . S
Eu281 O309 2.355 . S
Eu281 O311 2.374 . S
C282 C280 1.500 . S
C282 C283 1.377 . S
C282 C287 1.377 . S
C283 C282 1.377 . S
C283 C284 1.395 . S
C283 H312 0.931 . S
C284 C283 1.395 . S
C284 C285 1.383 . S
C284 H313 0.931 . S
C285 C284 1.383 . S
C285 C286 1.394 . S
C286 C285 1.394 . S
C286 C287 1.378 . S
C286 H314 0.931 . S
C287 C282 1.377 . S
C287 C286 1.378 . S
C287 H315 0.931 . S
C288 O302 1.259 . S
C288 O303 1.270 . S
C289 O304 1.251 . S
C289 O305 1.251 . S
C290 Eu291 2.835 . S
C290 C292 1.500 . S
C290 O306 1.257 . S
C290 O307 1.260 . S
Eu291 C290 2.835 . S
Eu291 O303 2.355 . S
Eu291 O305 2.374 . S
Eu291 O306 2.473 . S
Eu291 O307 2.480 . S
Eu291 O308 2.430 . S
Eu291 O309 2.670 . S
Eu291 O310 2.394 . S
C292 C290 1.500 . S
C292 C293 1.377 . S
C292 C297 1.377 . S
C293 C292 1.377 . S
C293 C294 1.395 . S
C293 H316 0.931 . S
C294 C293 1.395 . S
C294 C295 1.383 . S
C294 H317 0.931 . S
C295 C294 1.383 . S
C295 C296 1.394 . S
C296 C295 1.394 . S
C296 C297 1.378 . S
C296 H318 0.931 . S
C297 C292 1.377 . S
C297 C296 1.378 . S
C297 H319 0.931 . S
C298 O308 1.259 . S
C298 O309 1.270 . S
C299 O310 1.251 . S
C299 O311 1.251 . S
O300 C280 1.257 . S
O300 Eu281 2.473 . S
O301 C280 1.260 . S
O301 Eu281 2.480 . S
O302 Eu281 2.430 . S
O302 C288 1.259 . S
O303 Eu281 2.670 . S
O303 C288 1.270 . S
O303 Eu291 2.355 . S
O304 Eu281 2.394 . S
O304 C289 1.251 . S
O305 C289 1.251 . S
O305 Eu291 2.374 . S
O306 C290 1.257 . S
O306 Eu291 2.473 . S
O307 C290 1.260 . S
O307 Eu291 2.480 . S
O308 Eu291 2.430 . S
O308 C298 1.259 . S
O309 Eu281 2.355 . S
O309 Eu291 2.670 . S
O309 C298 1.270 . S
O310 Eu291 2.394 . S
O310 C299 1.251 . S
O311 Eu281 2.374 . S
O311 C299 1.251 . S
H312 C283 0.931 . S
H313 C284 0.931 . S
H314 C286 0.931 . S
H315 C287 0.931 . S
H316 C293 0.931 . S
H317 C294 0.931 . S
H318 C296 0.931 . S
H319 C297 0.931 . S
C320 Eu321 2.835 . S
C320 C322 1.500 . S
C320 O340 1.257 . S
C320 O341 1.260 . S
Eu321 C320 2.835 . S
Eu321 O340 2.473 . S
Eu321 O341 2.480 . S
Eu321 O342 2.430 . S
Eu321 O343 2.670 . S
Eu321 O344 2.394 . S
Eu321 O349 2.355 . S
Eu321 O351 2.374 . S
C322 C320 1.500 . S
C322 C323 1.377 . S
C322 C327 1.377 . S
C323 C322 1.377 . S
C323 C324 1.395 . S
C323 H352 0.931 . S
C324 C323 1.395 . S
C324 C325 1.383 . S
C324 H353 0.931 . S
C325 C324 1.383 . S
C325 C326 1.394 . S
C326 C325 1.394 . S
C326 C327 1.378 . S
C326 H354 0.931 . S
C327 C322 1.377 . S
C327 C326 1.378 . S
C327 H355 0.931 . S
C328 O342 1.259 . S
C328 O343 1.270 . S
C329 O344 1.251 . S
C329 O345 1.251 . S
C330 Eu331 2.835 . S
C330 C332 1.500 . S
C330 O346 1.257 . S
C330 O347 1.260 . S
Eu331 C330 2.835 . S
Eu331 O343 2.355 . S
Eu331 O345 2.374 . S
Eu331 O346 2.473 . S
Eu331 O347 2.480 . S
Eu331 O348 2.430 . S
Eu331 O349 2.670 . S
Eu331 O350 2.394 . S
C332 C330 1.500 . S
C332 C333 1.377 . S
C332 C337 1.377 . S
C333 C332 1.377 . S
C333 C334 1.395 . S
C333 H356 0.931 . S
C334 C333 1.395 . S
C334 C335 1.383 . S
C334 H357 0.931 . S
C335 C334 1.383 . S
C335 C336 1.394 . S
C336 C335 1.394 . S
C336 C337 1.378 . S
C336 H358 0.931 . S
C337 C332 1.377 . S
C337 C336 1.378 . S
C337 H359 0.931 . S
C338 O348 1.259 . S
C338 O349 1.270 . S
C339 O350 1.251 . S
C339 O351 1.251 . S
O340 C320 1.257 . S
O340 Eu321 2.473 . S
O341 C320 1.260 . S
O341 Eu321 2.480 . S
O342 Eu321 2.430 . S
O342 C328 1.259 . S
O343 Eu321 2.670 . S
O343 C328 1.270 . S
O343 Eu331 2.355 . S
O344 Eu321 2.394 . S
O344 C329 1.251 . S
O345 C329 1.251 . S
O345 Eu331 2.374 . S
O346 C330 1.257 . S
O346 Eu331 2.473 . S
O347 C330 1.260 . S
O347 Eu331 2.480 . S
O348 Eu331 2.430 . S
O348 C338 1.259 . S
O349 Eu321 2.355 . S
O349 Eu331 2.670 . S
O349 C338 1.270 . S
O350 Eu331 2.394 . S
O350 C339 1.251 . S
O351 Eu321 2.374 . S
O351 C339 1.251 . S
H352 C323 0.931 . S
H353 C324 0.931 . S
H354 C326 0.931 . S
H355 C327 0.931 . S
H356 C333 0.931 . S
H357 C334 0.931 . S
H358 C336 0.931 . S
H359 C337 0.931 . S
C360 Eu361 2.835 . S
C360 C362 1.500 . S
C360 O380 1.257 . S
C360 O381 1.260 . S
Eu361 C360 2.835 . S
Eu361 O380 2.473 . S
Eu361 O381 2.480 . S
Eu361 O382 2.430 . S
Eu361 O383 2.670 . S
Eu361 O384 2.394 . S
Eu361 O389 2.355 . S
Eu361 O391 2.374 . S
C362 C360 1.500 . S
C362 C363 1.377 . S
C362 C367 1.377 . S
C363 C362 1.377 . S
C363 C364 1.395 . S
C363 H392 0.931 . S
C364 C363 1.395 . S
C364 C365 1.383 . S
C364 H393 0.931 . S
C365 C364 1.383 . S
C365 C366 1.394 . S
C366 C365 1.394 . S
C366 C367 1.378 . S
C366 H394 0.931 . S
C367 C362 1.377 . S
C367 C366 1.378 . S
C367 H395 0.931 . S
C368 O382 1.259 . S
C368 O383 1.270 . S
C369 O384 1.251 . S
C369 O385 1.251 . S
C370 Eu371 2.835 . S
C370 C372 1.500 . S
C370 O386 1.257 . S
C370 O387 1.260 . S
Eu371 C370 2.835 . S
Eu371 O383 2.355 . S
Eu371 O385 2.374 . S
Eu371 O386 2.473 . S
Eu371 O387 2.480 . S
Eu371 O388 2.430 . S
Eu371 O389 2.670 . S
Eu371 O390 2.394 . S
C372 C370 1.500 . S
C372 C373 1.377 . S
C372 C377 1.377 . S
C373 C372 1.377 . S
C373 C374 1.395 . S
C373 H396 0.931 . S
C374 C373 1.395 . S
C374 C375 1.383 . S
C374 H397 0.931 . S
C375 C374 1.383 . S
C375 C376 1.394 . S
C376 C375 1.394 . S
C376 C377 1.378 . S
C376 H398 0.931 . S
C377 C372 1.377 . S
C377 C376 1.378 . S
C377 H399 0.931 . S
C378 O388 1.259 . S
C378 O389 1.270 . S
C379 O390 1.251 . S
C379 O391 1.251 . S
O380 C360 1.257 . S
O380 Eu361 2.473 . S
O381 C360 1.260 . S
O381 Eu361 2.480 . S
O382 Eu361 2.430 . S
O382 C368 1.259 . S
O383 Eu361 2.670 . S
O383 C368 1.270 . S
O383 Eu371 2.355 . S
O384 Eu361 2.394 . S
O384 C369 1.251 . S
O385 C369 1.251 . S
O385 Eu371 2.374 . S
O386 C370 1.257 . S
O386 Eu371 2.473 . S
O387 C370 1.260 . S
O387 Eu371 2.480 . S
O388 Eu371 2.430 . S
O388 C378 1.259 . S
O389 Eu361 2.355 . S
O389 Eu371 2.670 . S
O389 C378 1.270 . S
O390 Eu371 2.394 . S
O390 C379 1.251 . S
O391 Eu361 2.374 . S
O391 C379 1.251 . S
H392 C363 0.931 . S
H393 C364 0.931 . S
H394 C366 0.931 . S
H395 C367 0.931 . S
H396 C373 0.931 . S
H397 C374 0.931 . S
H398 C376 0.931 . S
H399 C377 0.931 . S
C400 Eu401 2.835 . S
C400 C402 1.500 . S
C400 O420 1.257 . S
C400 O421 1.260 . S
Eu401 C400 2.835 . S
Eu401 O420 2.473 . S
Eu401 O421 2.480 . S
Eu401 O422 2.430 . S
Eu401 O423 2.670 . S
Eu401 O424 2.394 . S
Eu401 O429 2.355 . S
Eu401 O431 2.374 . S
C402 C400 1.500 . S
C402 C403 1.377 . S
C402 C407 1.377 . S
C403 C402 1.377 . S
C403 C404 1.395 . S
C403 H432 0.931 . S
C404 C403 1.395 . S
C404 C405 1.383 . S
C404 H433 0.931 . S
C405 C404 1.383 . S
C405 C406 1.394 . S
C406 C405 1.394 . S
C406 C407 1.378 . S
C406 H434 0.931 . S
C407 C402 1.377 . S
C407 C406 1.378 . S
C407 H435 0.931 . S
C408 O422 1.259 . S
C408 O423 1.270 . S
C409 O424 1.251 . S
C409 O425 1.251 . S
C410 Eu411 2.835 1_556 S
C410 C412 1.500 . S
C410 O426 1.257 . S
C410 O427 1.260 . S
Eu411 C410 2.835 1_554 S
Eu411 O423 2.355 . S
Eu411 O425 2.374 . S
Eu411 O426 2.473 1_554 S
Eu411 O427 2.480 1_554 S
Eu411 O428 2.430 . S
Eu411 O429 2.670 . S
Eu411 O430 2.394 . S
C412 C410 1.500 . S
C412 C413 1.377 . S
C412 C417 1.377 . S
C413 C412 1.377 . S
C413 C414 1.395 . S
C413 H436 0.931 . S
C414 C413 1.395 . S
C414 C415 1.383 . S
C414 H437 0.931 . S
C415 C414 1.383 . S
C415 C416 1.394 . S
C416 C415 1.394 . S
C416 C417 1.378 . S
C416 H438 0.931 . S
C417 C412 1.377 . S
C417 C416 1.378 . S
C417 H439 0.931 . S
C418 O428 1.259 . S
C418 O429 1.270 . S
C419 O430 1.251 . S
C419 O431 1.251 . S
O420 C400 1.257 . S
O420 Eu401 2.473 . S
O421 C400 1.260 . S
O421 Eu401 2.480 . S
O422 Eu401 2.430 . S
O422 C408 1.259 . S
O423 Eu401 2.670 . S
O423 C408 1.270 . S
O423 Eu411 2.355 . S
O424 Eu401 2.394 . S
O424 C409 1.251 . S
O425 C409 1.251 . S
O425 Eu411 2.374 . S
O426 C410 1.257 . S
O426 Eu411 2.473 1_556 S
O427 C410 1.260 . S
O427 Eu411 2.480 1_556 S
O428 Eu411 2.430 . S
O428 C418 1.259 . S
O429 Eu401 2.355 . S
O429 Eu411 2.670 . S
O429 C418 1.270 . S
O430 Eu411 2.394 . S
O430 C419 1.251 . S
O431 Eu401 2.374 . S
O431 C419 1.251 . S
H432 C403 0.931 . S
H433 C404 0.931 . S
H434 C406 0.931 . S
H435 C407 0.931 . S
H436 C413 0.931 . S
H437 C414 0.931 . S
H438 C416 0.931 . S
H439 C417 0.931 . S
C440 Eu441 2.835 . S
C440 C442 1.500 . S
C440 O460 1.257 . S
C440 O461 1.260 . S
Eu441 C440 2.835 . S
Eu441 O460 2.473 . S
Eu441 O461 2.480 . S
Eu441 O462 2.430 . S
Eu441 O463 2.670 . S
Eu441 O464 2.394 . S
Eu441 O469 2.355 . S
Eu441 O471 2.374 . S
C442 C440 1.500 . S
C442 C443 1.377 . S
C442 C447 1.377 . S
C443 C442 1.377 . S
C443 C444 1.395 . S
C443 H472 0.931 . S
C444 C443 1.395 . S
C444 C445 1.383 . S
C444 H473 0.931 . S
C445 C444 1.383 . S
C445 C446 1.394 . S
C446 C445 1.394 . S
C446 C447 1.378 . S
C446 H474 0.931 . S
C447 C442 1.377 . S
C447 C446 1.378 . S
C447 H475 0.931 . S
C448 O462 1.259 . S
C448 O463 1.270 . S
C449 O464 1.251 . S
C449 O465 1.251 . S
C450 Eu451 2.835 . S
C450 C452 1.500 . S
C450 O466 1.257 . S
C450 O467 1.260 . S
Eu451 C450 2.835 . S
Eu451 O463 2.355 . S
Eu451 O465 2.374 . S
Eu451 O466 2.473 . S
Eu451 O467 2.480 . S
Eu451 O468 2.430 . S
Eu451 O469 2.670 . S
Eu451 O470 2.394 . S
C452 C450 1.500 . S
C452 C453 1.377 . S
C452 C457 1.377 . S
C453 C452 1.377 . S
C453 C454 1.395 . S
C453 H476 0.931 . S
C454 C453 1.395 . S
C454 C455 1.383 . S
C454 H477 0.931 . S
C455 C454 1.383 . S
C455 C456 1.394 . S
C456 C455 1.394 . S
C456 C457 1.378 . S
C456 H478 0.931 . S
C457 C452 1.377 . S
C457 C456 1.378 . S
C457 H479 0.931 . S
C458 O468 1.259 . S
C458 O469 1.270 . S
C459 O470 1.251 . S
C459 O471 1.251 . S
O460 C440 1.257 . S
O460 Eu441 2.473 . S
O461 C440 1.260 . S
O461 Eu441 2.480 . S
O462 Eu441 2.430 . S
O462 C448 1.259 . S
O463 Eu441 2.670 . S
O463 C448 1.270 . S
O463 Eu451 2.355 . S
O464 Eu441 2.394 . S
O464 C449 1.251 . S
O465 C449 1.251 . S
O465 Eu451 2.374 . S
O466 C450 1.257 . S
O466 Eu451 2.473 . S
O467 C450 1.260 . S
O467 Eu451 2.480 . S
O468 Eu451 2.430 . S
O468 C458 1.259 . S
O469 Eu441 2.355 . S
O469 Eu451 2.670 . S
O469 C458 1.270 . S
O470 Eu451 2.394 . S
O470 C459 1.251 . S
O471 Eu441 2.374 . S
O471 C459 1.251 . S
H472 C443 0.931 . S
H473 C444 0.931 . S
H474 C446 0.931 . S
H475 C447 0.931 . S
H476 C453 0.931 . S
H477 C454 0.931 . S
H478 C456 0.931 . S
H479 C457 0.931 . S
C480 Eu481 2.835 . S
C480 C482 1.500 . S
C480 O500 1.257 . S
C480 O501 1.260 . S
Eu481 C480 2.835 . S
Eu481 O500 2.473 . S
Eu481 O501 2.480 . S
Eu481 O502 2.430 . S
Eu481 O503 2.670 . S
Eu481 O504 2.394 . S
Eu481 O509 2.355 . S
Eu481 O511 2.374 . S
C482 C480 1.500 . S
C482 C483 1.377 . S
C482 C487 1.377 . S
C483 C482 1.377 . S
C483 C484 1.395 . S
C483 H512 0.931 . S
C484 C483 1.395 . S
C484 C485 1.383 . S
C484 H513 0.931 . S
C485 C484 1.383 . S
C485 C486 1.394 . S
C486 C485 1.394 . S
C486 C487 1.378 . S
C486 H514 0.931 . S
C487 C482 1.377 . S
C487 C486 1.378 . S
C487 H515 0.931 . S
C488 O502 1.259 . S
C488 O503 1.270 . S
C489 O504 1.251 . S
C489 O505 1.251 . S
C490 Eu491 2.835 . S
C490 C492 1.500 . S
C490 O506 1.257 . S
C490 O507 1.260 . S
Eu491 C490 2.835 . S
Eu491 O503 2.355 . S
Eu491 O505 2.374 . S
Eu491 O506 2.473 . S
Eu491 O507 2.480 . S
Eu491 O508 2.430 . S
Eu491 O509 2.670 . S
Eu491 O510 2.394 . S
C492 C490 1.500 . S
C492 C493 1.377 . S
C492 C497 1.377 . S
C493 C492 1.377 . S
C493 C494 1.395 . S
C493 H516 0.931 . S
C494 C493 1.395 . S
C494 C495 1.383 . S
C494 H517 0.931 . S
C495 C494 1.383 . S
C495 C496 1.394 . S
C496 C495 1.394 . S
C496 C497 1.378 . S
C496 H518 0.931 . S
C497 C492 1.377 . S
C497 C496 1.378 . S
C497 H519 0.931 . S
C498 O508 1.259 . S
C498 O509 1.270 . S
C499 O510 1.251 . S
C499 O511 1.251 . S
O500 C480 1.257 . S
O500 Eu481 2.473 . S
O501 C480 1.260 . S
O501 Eu481 2.480 . S
O502 Eu481 2.430 . S
O502 C488 1.259 . S
O503 Eu481 2.670 . S
O503 C488 1.270 . S
O503 Eu491 2.355 . S
O504 Eu481 2.394 . S
O504 C489 1.251 . S
O505 C489 1.251 . S
O505 Eu491 2.374 . S
O506 C490 1.257 . S
O506 Eu491 2.473 . S
O507 C490 1.260 . S
O507 Eu491 2.480 . S
O508 Eu491 2.430 . S
O508 C498 1.259 . S
O509 Eu481 2.355 . S
O509 Eu491 2.670 . S
O509 C498 1.270 . S
O510 Eu491 2.394 . S
O510 C499 1.251 . S
O511 Eu481 2.374 . S
O511 C499 1.251 . S
H512 C483 0.931 . S
H513 C484 0.931 . S
H514 C486 0.931 . S
H515 C487 0.931 . S
H516 C493 0.931 . S
H517 C494 0.931 . S
H518 C496 0.931 . S
H519 C497 0.931 . S
C520 Eu521 2.835 . S
C520 C522 1.500 . S
C520 O540 1.257 . S
C520 O541 1.260 . S
Eu521 C520 2.835 . S
Eu521 O540 2.473 . S
Eu521 O541 2.480 . S
Eu521 O542 2.430 . S
Eu521 O543 2.670 . S
Eu521 O544 2.394 . S
Eu521 O549 2.355 . S
Eu521 O551 2.374 . S
C522 C520 1.500 . S
C522 C523 1.377 . S
C522 C527 1.377 . S
C523 C522 1.377 . S
C523 C524 1.395 . S
C523 H552 0.931 . S
C524 C523 1.395 . S
C524 C525 1.383 . S
C524 H553 0.931 . S
C525 C524 1.383 . S
C525 C526 1.394 . S
C526 C525 1.394 . S
C526 C527 1.378 . S
C526 H554 0.931 . S
C527 C522 1.377 . S
C527 C526 1.378 . S
C527 H555 0.931 . S
C528 O542 1.259 . S
C528 O543 1.270 . S
C529 O544 1.251 . S
C529 O545 1.251 . S
C530 Eu531 2.835 . S
C530 C532 1.500 . S
C530 O546 1.257 . S
C530 O547 1.260 . S
Eu531 C530 2.835 . S
Eu531 O543 2.355 . S
Eu531 O545 2.374 . S
Eu531 O546 2.473 . S
Eu531 O547 2.480 . S
Eu531 O548 2.430 . S
Eu531 O549 2.670 . S
Eu531 O550 2.394 . S
C532 C530 1.500 . S
C532 C533 1.377 . S
C532 C537 1.377 . S
C533 C532 1.377 . S
C533 C534 1.395 . S
C533 H556 0.931 . S
C534 C533 1.395 . S
C534 C535 1.383 . S
C534 H557 0.931 . S
C535 C534 1.383 . S
C535 C536 1.394 . S
C536 C535 1.394 . S
C536 C537 1.378 . S
C536 H558 0.931 . S
C537 C532 1.377 . S
C537 C536 1.378 . S
C537 H559 0.931 . S
C538 O548 1.259 . S
C538 O549 1.270 . S
C539 O550 1.251 . S
C539 O551 1.251 . S
O540 C520 1.257 . S
O540 Eu521 2.473 . S
O541 C520 1.260 . S
O541 Eu521 2.480 . S
O542 Eu521 2.430 . S
O542 C528 1.259 . S
O543 Eu521 2.670 . S
O543 C528 1.270 . S
O543 Eu531 2.355 . S
O544 Eu521 2.394 . S
O544 C529 1.251 . S
O545 C529 1.251 . S
O545 Eu531 2.374 . S
O546 C530 1.257 . S
O546 Eu531 2.473 . S
O547 C530 1.260 . S
O547 Eu531 2.480 . S
O548 Eu531 2.430 . S
O548 C538 1.259 . S
O549 Eu521 2.355 . S
O549 Eu531 2.670 . S
O549 C538 1.270 . S
O550 Eu531 2.394 . S
O550 C539 1.251 . S
O551 Eu521 2.374 . S
O551 C539 1.251 . S
H552 C523 0.931 . S
H553 C524 0.931 . S
H554 C526 0.931 . S
H555 C527 0.931 . S
H556 C533 0.931 . S
H557 C534 0.931 . S
H558 C536 0.931 . S
H559 C537 0.931 . S
C560 Eu561 2.835 1_554 S
C560 C562 1.500 . S
C560 O580 1.257 . S
C560 O581 1.260 . S
Eu561 C560 2.835 1_556 S
Eu561 O580 2.473 1_556 S
Eu561 O581 2.480 1_556 S
Eu561 O582 2.430 . S
Eu561 O583 2.670 . S
Eu561 O584 2.394 . S
Eu561 O589 2.355 . S
Eu561 O591 2.374 . S
C562 C560 1.500 . S
C562 C563 1.377 . S
C562 C567 1.377 . S
C563 C562 1.377 . S
C563 C564 1.395 . S
C563 H592 0.931 . S
C564 C563 1.395 . S
C564 C565 1.383 . S
C564 H593 0.931 . S
C565 C564 1.383 . S
C565 C566 1.394 . S
C566 C565 1.394 . S
C566 C567 1.378 . S
C566 H594 0.931 . S
C567 C562 1.377 . S
C567 C566 1.378 . S
C567 H595 0.931 . S
C568 O582 1.259 . S
C568 O583 1.270 . S
C569 O584 1.251 . S
C569 O585 1.251 . S
C570 Eu571 2.835 . S
C570 C572 1.500 . S
C570 O586 1.257 . S
C570 O587 1.260 . S
Eu571 C570 2.835 . S
Eu571 O583 2.355 . S
Eu571 O585 2.374 . S
Eu571 O586 2.473 . S
Eu571 O587 2.480 . S
Eu571 O588 2.430 . S
Eu571 O589 2.670 . S
Eu571 O590 2.394 . S
C572 C570 1.500 . S
C572 C573 1.377 . S
C572 C577 1.377 . S
C573 C572 1.377 . S
C573 C574 1.395 . S
C573 H596 0.931 . S
C574 C573 1.395 . S
C574 C575 1.383 . S
C574 H597 0.931 . S
C575 C574 1.383 . S
C575 C576 1.394 . S
C576 C575 1.394 . S
C576 C577 1.378 . S
C576 H598 0.931 . S
C577 C572 1.377 . S
C577 C576 1.378 . S
C577 H599 0.931 . S
C578 O588 1.259 . S
C578 O589 1.270 . S
C579 O590 1.251 . S
C579 O591 1.251 . S
O580 C560 1.257 . S
O580 Eu561 2.473 1_554 S
O581 C560 1.260 . S
O581 Eu561 2.480 1_554 S
O582 Eu561 2.430 . S
O582 C568 1.259 . S
O583 Eu561 2.670 . S
O583 C568 1.270 . S
O583 Eu571 2.355 . S
O584 Eu561 2.394 . S
O584 C569 1.251 . S
O585 C569 1.251 . S
O585 Eu571 2.374 . S
O586 C570 1.257 . S
O586 Eu571 2.473 . S
O587 C570 1.260 . S
O587 Eu571 2.480 . S
O588 Eu571 2.430 . S
O588 C578 1.259 . S
O589 Eu561 2.355 . S
O589 Eu571 2.670 . S
O589 C578 1.270 . S
O590 Eu571 2.394 . S
O590 C579 1.251 . S
O591 Eu561 2.374 . S
O591 C579 1.251 . S
H592 C563 0.931 . S
H593 C564 0.931 . S
H594 C566 0.931 . S
H595 C567 0.931 . S
H596 C573 0.931 . S
H597 C574 0.931 . S
H598 C576 0.931 . S
H599 C577 0.931 . S
C600 Eu601 2.835 . S
C600 C602 1.500 . S
C600 O620 1.257 . S
C600 O621 1.260 . S
Eu601 C600 2.835 . S
Eu601 O620 2.473 . S
Eu601 O621 2.480 . S
Eu601 O622 2.430 . S
Eu601 O623 2.670 . S
Eu601 O624 2.394 . S
Eu601 O629 2.355 . S
Eu601 O631 2.374 . S
C602 C600 1.500 . S
C602 C603 1.377 . S
C602 C607 1.377 . S
C603 C602 1.377 . S
C603 C604 1.395 . S
C603 H632 0.931 . S
C604 C603 1.395 . S
C604 C605 1.383 . S
C604 H633 0.931 . S
C605 C604 1.383 . S
C605 C606 1.394 . S
C606 C605 1.394 . S
C606 C607 1.378 . S
C606 H634 0.931 . S
C607 C602 1.377 . S
C607 C606 1.378 . S
C607 H635 0.931 . S
C608 O622 1.259 . S
C608 O623 1.270 . S
C609 O624 1.251 . S
C609 O625 1.251 . S
C610 Eu611 2.835 . S
C610 C612 1.500 . S
C610 O626 1.257 . S
C610 O627 1.260 . S
Eu611 C610 2.835 . S
Eu611 O623 2.355 . S
Eu611 O625 2.374 . S
Eu611 O626 2.473 . S
Eu611 O627 2.480 . S
Eu611 O628 2.430 . S
Eu611 O629 2.670 . S
Eu611 O630 2.394 . S
C612 C610 1.500 . S
C612 C613 1.377 . S
C612 C617 1.377 . S
C613 C612 1.377 . S
C613 C614 1.395 . S
C613 H636 0.931 . S
C614 C613 1.395 . S
C614 C615 1.383 . S
C614 H637 0.931 . S
C615 C614 1.383 . S
C615 C616 1.394 . S
C616 C615 1.394 . S
C616 C617 1.378 . S
C616 H638 0.931 . S
C617 C612 1.377 . S
C617 C616 1.378 . S
C617 H639 0.931 . S
C618 O628 1.259 . S
C618 O629 1.270 . S
C619 O630 1.251 . S
C619 O631 1.251 . S
O620 C600 1.257 . S
O620 Eu601 2.473 . S
O621 C600 1.260 . S
O621 Eu601 2.480 . S
O622 Eu601 2.430 . S
O622 C608 1.259 . S
O623 Eu601 2.670 . S
O623 C608 1.270 . S
O623 Eu611 2.355 . S
O624 Eu601 2.394 . S
O624 C609 1.251 . S
O625 C609 1.251 . S
O625 Eu611 2.374 . S
O626 C610 1.257 . S
O626 Eu611 2.473 . S
O627 C610 1.260 . S
O627 Eu611 2.480 . S
O628 Eu611 2.430 . S
O628 C618 1.259 . S
O629 Eu601 2.355 . S
O629 Eu611 2.670 . S
O629 C618 1.270 . S
O630 Eu611 2.394 . S
O630 C619 1.251 . S
O631 Eu601 2.374 . S
O631 C619 1.251 . S
H632 C603 0.931 . S
H633 C604 0.931 . S
H634 C606 0.931 . S
H635 C607 0.931 . S
H636 C613 0.931 . S
H637 C614 0.931 . S
H638 C616 0.931 . S
H639 C617 0.931 . S
C640 C641 1.349 . S
C640 C642 1.327 . S
C640 H665 0.950 . S
C641 C640 1.349 . S
C641 C657 1.349 . S
C642 C640 1.327 . S
C642 C661 1.429 . S
C642 H666 0.950 . S
C643 C660 1.574 . S
C643 C662 1.368 . S
C643 H667 0.949 . S
H644 C648 0.949 . S
C645 C646 1.349 . S
C645 C647 1.327 . S
C645 H668 0.950 . S
C646 C645 1.349 . S
C646 C658 1.349 . S
C647 C645 1.327 . S
C647 C663 1.429 . S
C647 H669 0.950 . S
C648 H644 0.949 . S
C648 C656 1.574 . S
C648 C664 1.368 . S
H649 C657 0.950 . S
H650 C655 0.950 . S
H651 C656 0.949 . S
H652 C658 0.950 . S
H653 C659 0.950 . S
H654 C660 0.949 . S
C655 H650 0.950 . S
C655 C657 1.327 . S
C655 C661 1.429 . S
C656 C648 1.574 . S
C656 H651 0.949 . S
C656 C662 1.368 . S
C657 C641 1.349 . S
C657 H649 0.950 . S
C657 C655 1.327 . S
C658 C646 1.349 . S
C658 H652 0.950 . S
C658 C659 1.327 . S
C659 H653 0.950 . S
C659 C658 1.327 . S
C659 C663 1.429 . S
C660 C643 1.574 . S
C660 H654 0.949 . S
C660 C664 1.368 . S
C661 C642 1.429 . S
C661 C655 1.429 . S
C661 C662 1.523 . S
C662 C643 1.368 . S
C662 C656 1.368 . S
C662 C661 1.523 . S
C663 C647 1.429 . S
C663 C659 1.429 . S
C663 C664 1.523 . S
C664 C648 1.368 . S
C664 C660 1.368 . S
C664 C663 1.523 . S
H665 C640 0.950 . S
H666 C642 0.950 . S
H667 C643 0.949 . S
H668 C645 0.950 . S
H669 C647 0.950 . S
C670 C671 1.349 . S
C670 C672 1.327 . S
C670 H695 0.950 . S
C671 C670 1.349 . S
C671 C687 1.349 . S
C672 C670 1.327 . S
C672 C691 1.429 . S
C672 H696 0.950 . S
C673 C690 1.574 . S
C673 C692 1.368 . S
C673 H697 0.949 . S
H674 C678 0.949 . S
C675 C676 1.349 . S
C675 C677 1.327 . S
C675 H698 0.950 . S
C676 C675 1.349 . S
C676 C688 1.349 . S
C677 C675 1.327 . S
C677 C693 1.429 . S
C677 H699 0.950 . S
C678 H674 0.949 . S
C678 C686 1.574 . S
C678 C694 1.368 . S
H679 C687 0.950 . S
H680 C685 0.950 . S
H681 C686 0.949 . S
H682 C688 0.950 . S
H683 C689 0.950 . S
H684 C690 0.949 . S
C685 H680 0.950 . S
C685 C687 1.327 . S
C685 C691 1.429 . S
C686 C678 1.574 . S
C686 H681 0.949 . S
C686 C692 1.368 . S
C687 C671 1.349 . S
C687 H679 0.950 . S
C687 C685 1.327 . S
C688 C676 1.349 . S
C688 H682 0.950 . S
C688 C689 1.327 . S
C689 H683 0.950 . S
C689 C688 1.327 . S
C689 C693 1.429 . S
C690 C673 1.574 . S
C690 H684 0.949 . S
C690 C694 1.368 . S
C691 C672 1.429 . S
C691 C685 1.429 . S
C691 C692 1.523 . S
C692 C673 1.368 . S
C692 C686 1.368 . S
C692 C691 1.523 . S
C693 C677 1.429 . S
C693 C689 1.429 . S
C693 C694 1.523 . S
C694 C678 1.368 . S
C694 C690 1.368 . S
C694 C693 1.523 . S
H695 C670 0.950 . S
H696 C672 0.950 . S
H697 C673 0.949 . S
H698 C675 0.950 . S
H699 C677 0.950 . S
C700 C701 1.349 . S
C700 C702 1.327 . S
C700 H725 0.950 . S
C701 C700 1.349 . S
C701 C717 1.349 . S
C702 C700 1.327 . S
C702 C721 1.429 . S
C702 H726 0.950 . S
C703 C720 1.557 1_455 S
C703 C722 1.384 . S
C703 H727 0.948 . S
H704 C708 0.948 . S
C705 C706 1.349 . S
C705 C707 1.327 . S
C705 H728 0.950 . S
C706 C705 1.349 . S
C706 C718 1.349 . S
C707 C705 1.327 . S
C707 C723 1.429 . S
C707 H729 0.950 . S
C708 H704 0.948 . S
C708 C716 1.557 1_655 S
C708 C724 1.384 . S
H709 C717 0.950 . S
H710 C715 0.950 . S
H711 C716 0.949 . S
H712 C718 0.950 . S
H713 C719 0.950 . S
H714 C720 0.949 . S
C715 H710 0.950 . S
C715 C717 1.327 . S
C715 C721 1.429 . S
C716 C708 1.557 1_455 S
C716 H711 0.949 . S
C716 C722 1.368 . S
C717 C701 1.349 . S
C717 H709 0.950 . S
C717 C715 1.327 . S
C718 C706 1.349 . S
C718 H712 0.950 . S
C718 C719 1.327 . S
C719 H713 0.950 . S
C719 C718 1.327 . S
C719 C723 1.429 . S
C720 C703 1.557 1_655 S
C720 H714 0.949 . S
C720 C724 1.368 . S
C721 C702 1.429 . S
C721 C715 1.429 . S
C721 C722 1.523 . S
C722 C703 1.384 . S
C722 C716 1.368 . S
C722 C721 1.523 . S
C723 C707 1.429 . S
C723 C719 1.429 . S
C723 C724 1.523 . S
C724 C708 1.384 . S
C724 C720 1.368 . S
C724 C723 1.523 . S
H725 C700 0.950 . S
H726 C702 0.950 . S
H727 C703 0.948 . S
H728 C705 0.950 . S
H729 C707 0.950 . S
C730 C731 1.349 . S
C730 C732 1.327 . S
C730 H755 0.950 . S
C731 C730 1.349 . S
C731 C747 1.349 . S
C732 C730 1.327 . S
C732 C751 1.429 . S
C732 H756 0.950 . S
C733 C750 1.542 1_655 S
C733 C752 1.397 . S
C733 H757 0.953 . S
H734 C738 0.953 . S
C735 C736 1.349 . S
C735 C737 1.327 . S
C735 H758 0.950 . S
C736 C735 1.349 . S
C736 C748 1.349 . S
C737 C735 1.327 . S
C737 C753 1.429 . S
C737 H759 0.950 . S
C738 H734 0.953 . S
C738 C746 1.542 1_455 S
C738 C754 1.397 . S
H739 C747 0.950 . S
H740 C745 0.950 . S
H741 C746 0.949 . S
H742 C748 0.950 . S
H743 C749 0.950 . S
H744 C750 0.949 . S
C745 H740 0.950 . S
C745 C747 1.327 . S
C745 C751 1.429 . S
C746 C738 1.542 1_655 S
C746 H741 0.949 . S
C746 C752 1.368 . S
C747 C731 1.349 . S
C747 H739 0.950 . S
C747 C745 1.327 . S
C748 C736 1.349 . S
C748 H742 0.950 . S
C748 C749 1.327 . S
C749 H743 0.950 . S
C749 C748 1.327 . S
C749 C753 1.429 . S
C750 C733 1.542 1_455 S
C750 H744 0.949 . S
C750 C754 1.368 . S
C751 C732 1.429 . S
C751 C745 1.429 . S
C751 C752 1.523 . S
C752 C733 1.397 . S
C752 C746 1.368 . S
C752 C751 1.523 . S
C753 C737 1.429 . S
C753 C749 1.429 . S
C753 C754 1.523 . S
C754 C738 1.397 . S
C754 C750 1.368 . S
C754 C753 1.523 . S
H755 C730 0.950 . S
H756 C732 0.950 . S
H757 C733 0.953 . S
H758 C735 0.950 . S
H759 C737 0.950 . S
C760 C761 1.349 . S
C760 C762 1.327 . S
C760 H785 0.950 . S
C761 C760 1.349 . S
C761 C777 1.349 . S
C762 C760 1.327 . S
C762 C781 1.429 . S
C762 H786 0.950 . S
C763 C780 1.574 . S
C763 C782 1.368 . S
C763 H787 0.949 . S
H764 C768 0.949 . S
C765 C766 1.349 . S
C765 C767 1.327 . S
C765 H788 0.950 . S
C766 C765 1.349 . S
C766 C778 1.349 . S
C767 C765 1.327 . S
C767 C783 1.429 . S
C767 H789 0.950 . S
C768 H764 0.949 . S
C768 C776 1.574 . S
C768 C784 1.368 . S
H769 C777 0.950 . S
H770 C775 0.950 . S
H771 C776 0.949 . S
H772 C778 0.950 . S
H773 C779 0.950 . S
H774 C780 0.949 . S
C775 H770 0.950 . S
C775 C777 1.327 . S
C775 C781 1.429 . S
C776 C768 1.574 . S
C776 H771 0.949 . S
C776 C782 1.368 . S
C777 C761 1.349 . S
C777 H769 0.950 . S
C777 C775 1.327 . S
C778 C766 1.349 . S
C778 H772 0.950 . S
C778 C779 1.327 . S
C779 H773 0.950 . S
C779 C778 1.327 . S
C779 C783 1.429 . S
C780 C763 1.574 . S
C780 H774 0.949 . S
C780 C784 1.368 . S
C781 C762 1.429 . S
C781 C775 1.429 . S
C781 C782 1.523 . S
C782 C763 1.368 . S
C782 C776 1.368 . S
C782 C781 1.523 . S
C783 C767 1.429 . S
C783 C779 1.429 . S
C783 C784 1.523 . S
C784 C768 1.368 . S
C784 C780 1.368 . S
C784 C783 1.523 . S
H785 C760 0.950 . S
H786 C762 0.950 . S
H787 C763 0.949 . S
H788 C765 0.950 . S
H789 C767 0.950 . S
C790 C791 1.349 . S
C790 C792 1.327 . S
C790 H815 0.950 . S
C791 C790 1.349 . S
C791 C807 1.349 . S
C792 C790 1.327 . S
C792 C811 1.429 . S
C792 H816 0.950 . S
C793 C810 1.574 . S
C793 C812 1.368 . S
C793 H817 0.949 . S
H794 C798 0.949 . S
C795 C796 1.349 . S
C795 C797 1.327 . S
C795 H818 0.950 . S
C796 C795 1.349 . S
C796 C808 1.349 . S
C797 C795 1.327 . S
C797 C813 1.429 . S
C797 H819 0.950 . S
C798 H794 0.949 . S
C798 C806 1.574 . S
C798 C814 1.368 . S
H799 C807 0.950 . S
H800 C805 0.950 . S
H801 C806 0.949 . S
H802 C808 0.950 . S
H803 C809 0.950 . S
H804 C810 0.949 . S
C805 H800 0.950 . S
C805 C807 1.327 . S
C805 C811 1.429 . S
C806 C798 1.574 . S
C806 H801 0.949 . S
C806 C812 1.368 . S
C807 C791 1.349 . S
C807 H799 0.950 . S
C807 C805 1.327 . S
C808 C796 1.349 . S
C808 H802 0.950 . S
C808 C809 1.327 . S
C809 H803 0.950 . S
C809 C808 1.327 . S
C809 C813 1.429 . S
C810 C793 1.574 . S
C810 H804 0.949 . S
C810 C814 1.368 . S
C811 C792 1.429 . S
C811 C805 1.429 . S
C811 C812 1.523 . S
C812 C793 1.368 . S
C812 C806 1.368 . S
C812 C811 1.523 . S
C813 C797 1.429 . S
C813 C809 1.429 . S
C813 C814 1.523 . S
C814 C798 1.368 . S
C814 C810 1.368 . S
C814 C813 1.523 . S
H815 C790 0.950 . S
H816 C792 0.950 . S
H817 C793 0.949 . S
H818 C795 0.950 . S
H819 C797 0.950 . S
C820 C821 1.349 . S
C820 C822 1.327 . S
C820 H845 0.950 . S
C821 C820 1.349 . S
C821 C837 1.349 . S
C822 C820 1.327 . S
C822 C841 1.429 . S
C822 H846 0.950 . S
C823 C840 1.557 1_655 S
C823 C842 1.368 . S
C823 H847 0.949 . S
H824 C828 0.949 . S
C825 C826 1.349 . S
C825 C827 1.327 . S
C825 H848 0.950 . S
C826 C825 1.349 . S
C826 C838 1.349 . S
C827 C825 1.327 . S
C827 C843 1.429 . S
C827 H849 0.950 . S
C828 H824 0.949 . S
C828 C836 1.557 1_455 S
C828 C844 1.368 . S
H829 C837 0.950 . S
H830 C835 0.950 . S
H831 C836 0.948 . S
H832 C838 0.950 . S
H833 C839 0.950 . S
H834 C840 0.948 . S
C835 H830 0.950 . S
C835 C837 1.327 . S
C835 C841 1.429 . S
C836 C828 1.557 1_655 S
C836 H831 0.948 . S
C836 C842 1.384 . S
C837 C821 1.349 . S
C837 H829 0.950 . S
C837 C835 1.327 . S
C838 C826 1.349 . S
C838 H832 0.950 . S
C838 C839 1.327 . S
C839 H833 0.950 . S
C839 C838 1.327 . S
C839 C843 1.429 . S
C840 C823 1.557 1_455 S
C840 H834 0.948 . S
C840 C844 1.384 . S
C841 C822 1.429 . S
C841 C835 1.429 . S
C841 C842 1.523 . S
C842 C823 1.368 . S
C842 C836 1.384 . S
C842 C841 1.523 . S
C843 C827 1.429 . S
C843 C839 1.429 . S
C843 C844 1.523 . S
C844 C828 1.368 . S
C844 C840 1.384 . S
C844 C843 1.523 . S
H845 C820 0.950 . S
H846 C822 0.950 . S
H847 C823 0.949 . S
H848 C825 0.950 . S
H849 C827 0.950 . S
C850 C851 1.349 . S
C850 C852 1.327 . S
C850 H875 0.950 . S
C851 C850 1.349 . S
C851 C867 1.349 . S
C852 C850 1.327 . S
C852 C871 1.429 . S
C852 H876 0.950 . S
C853 C870 1.542 1_455 S
C853 C872 1.397 . S
C853 H877 0.953 . S
H854 C858 0.953 . S
C855 C856 1.349 . S
C855 C857 1.327 . S
C855 H878 0.950 . S
C856 C855 1.349 . S
C856 C868 1.349 . S
C857 C855 1.327 . S
C857 C873 1.429 . S
C857 H879 0.950 . S
C858 H854 0.953 . S
C858 C866 1.542 1_655 S
C858 C874 1.397 . S
H859 C867 0.950 . S
H860 C865 0.950 . S
H861 C866 0.949 . S
H862 C868 0.950 . S
H863 C869 0.950 . S
H864 C870 0.949 . S
C865 H860 0.950 . S
C865 C867 1.327 . S
C865 C871 1.429 . S
C866 C858 1.542 1_455 S
C866 H861 0.949 . S
C866 C872 1.368 . S
C867 C851 1.349 . S
C867 H859 0.950 . S
C867 C865 1.327 . S
C868 C856 1.349 . S
C868 H862 0.950 . S
C868 C869 1.327 . S
C869 H863 0.950 . S
C869 C868 1.327 . S
C869 C873 1.429 . S
C870 C853 1.542 1_655 S
C870 H864 0.949 . S
C870 C874 1.368 . S
C871 C852 1.429 . S
C871 C865 1.429 . S
C871 C872 1.523 . S
C872 C853 1.397 . S
C872 C866 1.368 . S
C872 C871 1.523 . S
C873 C857 1.429 . S
C873 C869 1.429 . S
C873 C874 1.523 . S
C874 C858 1.397 . S
C874 C870 1.368 . S
C874 C873 1.523 . S
H875 C850 0.950 . S
H876 C852 0.950 . S
H877 C853 0.953 . S
H878 C855 0.950 . S
H879 C857 0.950 . S
C880 C881 1.349 . S
C880 C882 1.327 . S
C880 H905 0.950 . S
C881 C880 1.349 . S
C881 C897 1.349 . S
C882 C880 1.327 . S
C882 C901 1.429 . S
C882 H906 0.950 . S
C883 C900 1.574 . S
C883 C902 1.368 . S
C883 H907 0.949 . S
H884 C888 0.949 . S
C885 C886 1.349 . S
C885 C887 1.327 . S
C885 H908 0.950 . S
C886 C885 1.349 . S
C886 C898 1.349 . S
C887 C885 1.327 . S
C887 C903 1.429 . S
C887 H909 0.950 . S
C888 H884 0.949 . S
C888 C896 1.574 . S
C888 C904 1.368 . S
H889 C897 0.950 . S
H890 C895 0.950 . S
H891 C896 0.949 . S
H892 C898 0.950 1_554 S
H893 C899 0.950 . S
H894 C900 0.949 . S
C895 H890 0.950 . S
C895 C897 1.327 . S
C895 C901 1.429 . S
C896 C888 1.574 . S
C896 H891 0.949 . S
C896 C902 1.368 . S
C897 C881 1.349 . S
C897 H889 0.950 . S
C897 C895 1.327 . S
C898 C886 1.349 . S
C898 H892 0.950 1_556 S
C898 C899 1.327 . S
C899 H893 0.950 . S
C899 C898 1.327 . S
C899 C903 1.429 . S
C900 C883 1.574 . S
C900 H894 0.949 . S
C900 C904 1.368 . S
C901 C882 1.429 . S
C901 C895 1.429 . S
C901 C902 1.523 . S
C902 C883 1.368 . S
C902 C896 1.368 . S
C902 C901 1.523 . S
C903 C887 1.429 . S
C903 C899 1.429 . S
C903 C904 1.523 . S
C904 C888 1.368 . S
C904 C900 1.368 . S
C904 C903 1.523 . S
H905 C880 0.950 . S
H906 C882 0.950 . S
H907 C883 0.949 . S
H908 C885 0.950 . S
H909 C887 0.950 . S
C910 C911 1.349 . S
C910 C912 1.327 . S
C910 H935 0.950 . S
C911 C910 1.349 . S
C911 C927 1.349 . S
C912 C910 1.327 . S
C912 C931 1.429 . S
C912 H936 0.950 . S
C913 C930 1.574 . S
C913 C932 1.368 . S
C913 H937 0.949 . S
H914 C918 0.949 . S
C915 C916 1.349 . S
C915 C917 1.327 . S
C915 H938 0.950 . S
C916 C915 1.349 . S
C916 C928 1.349 . S
C917 C915 1.327 . S
C917 C933 1.429 . S
C917 H939 0.950 . S
C918 H914 0.949 . S
C918 C926 1.574 . S
C918 C934 1.368 . S
H919 C927 0.950 . S
H920 C925 0.950 . S
H921 C926 0.949 . S
H922 C928 0.950 . S
H923 C929 0.950 . S
H924 C930 0.949 . S
C925 H920 0.950 . S
C925 C927 1.327 . S
C925 C931 1.429 . S
C926 C918 1.574 . S
C926 H921 0.949 . S
C926 C932 1.368 . S
C927 C911 1.349 . S
C927 H919 0.950 . S
C927 C925 1.327 . S
C928 C916 1.349 . S
C928 H922 0.950 . S
C928 C929 1.327 . S
C929 H923 0.950 . S
C929 C928 1.327 . S
C929 C933 1.429 . S
C930 C913 1.574 . S
C930 H924 0.949 . S
C930 C934 1.368 . S
C931 C912 1.429 . S
C931 C925 1.429 . S
C931 C932 1.523 . S
C932 C913 1.368 . S
C932 C926 1.368 . S
C932 C931 1.523 . S
C933 C917 1.429 . S
C933 C929 1.429 . S
C933 C934 1.523 . S
C934 C918 1.368 . S
C934 C930 1.368 . S
C934 C933 1.523 . S
H935 C910 0.950 . S
H936 C912 0.950 . S
H937 C913 0.949 . S
H938 C915 0.950 . S
H939 C917 0.950 . S
C940 C941 1.349 . S
C940 C942 1.327 . S
C940 H965 0.950 . S
C941 C940 1.349 . S
C941 C957 1.349 . S
C942 C940 1.327 . S
C942 C961 1.429 . S
C942 H966 0.950 . S
C943 C960 1.574 . S
C943 C962 1.368 . S
C943 H967 0.949 . S
H944 C948 0.949 . S
C945 C946 1.349 . S
C945 C947 1.327 . S
C945 H968 0.950 . S
C946 C945 1.349 . S
C946 C958 1.349 . S
C947 C945 1.327 . S
C947 C963 1.429 . S
C947 H969 0.950 . S
C948 H944 0.949 . S
C948 C956 1.574 . S
C948 C964 1.368 . S
H949 C957 0.950 . S
H950 C955 0.950 . S
H951 C956 0.949 . S
H952 C958 0.950 . S
H953 C959 0.950 . S
H954 C960 0.949 . S
C955 H950 0.950 . S
C955 C957 1.327 . S
C955 C961 1.429 . S
C956 C948 1.574 . S
C956 H951 0.949 . S
C956 C962 1.368 . S
C957 C941 1.349 . S
C957 H949 0.950 . S
C957 C955 1.327 . S
C958 C946 1.349 . S
C958 H952 0.950 . S
C958 C959 1.327 . S
C959 H953 0.950 . S
C959 C958 1.327 . S
C959 C963 1.429 . S
C960 C943 1.574 . S
C960 H954 0.949 . S
C960 C964 1.368 . S
C961 C942 1.429 . S
C961 C955 1.429 . S
C961 C962 1.523 . S
C962 C943 1.368 . S
C962 C956 1.368 . S
C962 C961 1.523 . S
C963 C947 1.429 . S
C963 C959 1.429 . S
C963 C964 1.523 . S
C964 C948 1.368 . S
C964 C960 1.368 . S
C964 C963 1.523 . S
H965 C940 0.950 . S
H966 C942 0.950 . S
H967 C943 0.949 . S
H968 C945 0.950 . S
H969 C947 0.950 . S
C970 C971 1.349 . S
C970 C972 1.327 . S
C970 H995 0.950 . S
C971 C970 1.349 . S
C971 C987 1.349 . S
C972 C970 1.327 . S
C972 C991 1.429 . S
C972 H996 0.950 . S
C973 C990 1.574 . S
C973 C992 1.368 . S
C973 H997 0.949 . S
H974 C978 0.949 . S
C975 C976 1.349 . S
C975 C977 1.327 . S
C975 H998 0.950 . S
C976 C975 1.349 . S
C976 C988 1.349 . S
C977 C975 1.327 . S
C977 C993 1.429 . S
C977 H999 0.950 . S
C978 H974 0.949 . S
C978 C986 1.574 . S
C978 C994 1.368 . S
H979 C987 0.950 . S
H980 C985 0.950 . S
H981 C986 0.949 . S
H982 C988 0.950 . S
H983 C989 0.950 . S
H984 C990 0.949 . S
C985 H980 0.950 . S
C985 C987 1.327 . S
C985 C991 1.429 . S
C986 C978 1.574 . S
C986 H981 0.949 . S
C986 C992 1.368 . S
C987 C971 1.349 . S
C987 H979 0.950 . S
C987 C985 1.327 . S
C988 C976 1.349 . S
C988 H982 0.950 . S
C988 C989 1.327 . S
C989 H983 0.950 . S
C989 C988 1.327 . S
C989 C993 1.429 . S
C990 C973 1.574 . S
C990 H984 0.949 . S
C990 C994 1.368 . S
C991 C972 1.429 . S
C991 C985 1.429 . S
C991 C992 1.523 . S
C992 C973 1.368 . S
C992 C986 1.368 . S
C992 C991 1.523 . S
C993 C977 1.429 . S
C993 C989 1.429 . S
C993 C994 1.523 . S
C994 C978 1.368 . S
C994 C990 1.368 . S
C994 C993 1.523 . S
H995 C970 0.950 . S
H996 C972 0.950 . S
H997 C973 0.949 . S
H998 C975 0.950 . S
H999 C977 0.950 . S
C1000 C1001 1.349 . S
C1000 C1002 1.327 . S
C1000 H1025 0.950 . S
C1001 C1000 1.349 . S
C1001 C1017 1.349 . S
C1002 C1000 1.327 . S
C1002 C1021 1.429 . S
C1002 H1026 0.950 . S
C1003 C1020 1.574 . S
C1003 C1022 1.368 . S
C1003 H1027 0.949 . S
H1004 C1008 0.949 . S
C1005 C1006 1.349 . S
C1005 C1007 1.327 . S
C1005 H1028 0.950 . S
C1006 C1005 1.349 . S
C1006 C1018 1.349 . S
C1007 C1005 1.327 . S
C1007 C1023 1.429 . S
C1007 H1029 0.950 . S
C1008 H1004 0.949 . S
C1008 C1016 1.574 . S
C1008 C1024 1.368 . S
H1009 C1017 0.950 1_556 S
H1010 C1015 0.950 . S
H1011 C1016 0.949 . S
H1012 C1018 0.950 . S
H1013 C1019 0.950 . S
H1014 C1020 0.949 . S
C1015 H1010 0.950 . S
C1015 C1017 1.327 . S
C1015 C1021 1.429 . S
C1016 C1008 1.574 . S
C1016 H1011 0.949 . S
C1016 C1022 1.368 . S
C1017 C1001 1.349 . S
C1017 H1009 0.950 1_554 S
C1017 C1015 1.327 . S
C1018 C1006 1.349 . S
C1018 H1012 0.950 . S
C1018 C1019 1.327 . S
C1019 H1013 0.950 . S
C1019 C1018 1.327 . S
C1019 C1023 1.429 . S
C1020 C1003 1.574 . S
C1020 H1014 0.949 . S
C1020 C1024 1.368 . S
C1021 C1002 1.429 . S
C1021 C1015 1.429 . S
C1021 C1022 1.523 . S
C1022 C1003 1.368 . S
C1022 C1016 1.368 . S
C1022 C1021 1.523 . S
C1023 C1007 1.429 . S
C1023 C1019 1.429 . S
C1023 C1024 1.523 . S
C1024 C1008 1.368 . S
C1024 C1020 1.368 . S
C1024 C1023 1.523 . S
H1025 C1000 0.950 . S
H1026 C1002 0.950 . S
H1027 C1003 0.949 . S
H1028 C1005 0.950 . S
H1029 C1007 0.950 . S
C1030 C1031 1.349 . S
C1030 C1032 1.327 . S
C1030 H1055 0.950 . S
C1031 C1030 1.349 . S
C1031 C1047 1.349 . S
C1032 C1030 1.327 . S
C1032 C1051 1.429 . S
C1032 H1056 0.950 . S
C1033 C1050 1.574 . S
C1033 C1052 1.368 . S
C1033 H1057 0.949 . S
H1034 C1038 0.949 . S
C1035 C1036 1.349 . S
C1035 C1037 1.327 . S
C1035 H1058 0.950 . S
C1036 C1035 1.349 . S
C1036 C1048 1.349 . S
C1037 C1035 1.327 . S
C1037 C1053 1.429 . S
C1037 H1059 0.950 . S
C1038 H1034 0.949 . S
C1038 C1046 1.574 . S
C1038 C1054 1.368 . S
H1039 C1047 0.950 . S
H1040 C1045 0.950 . S
H1041 C1046 0.949 . S
H1042 C1048 0.950 . S
H1043 C1049 0.950 . S
H1044 C1050 0.949 . S
C1045 H1040 0.950 . S
C1045 C1047 1.327 . S
C1045 C1051 1.429 . S
C1046 C1038 1.574 . S
C1046 H1041 0.949 . S
C1046 C1052 1.368 . S
C1047 C1031 1.349 . S
C1047 H1039 0.950 . S
C1047 C1045 1.327 . S
C1048 C1036 1.349 . S
C1048 H1042 0.950 . S
C1048 C1049 1.327 . S
C1049 H1043 0.950 . S
C1049 C1048 1.327 . S
C1049 C1053 1.429 . S
C1050 C1033 1.574 . S
C1050 H1044 0.949 . S
C1050 C1054 1.368 . S
C1051 C1032 1.429 . S
C1051 C1045 1.429 . S
C1051 C1052 1.523 . S
C1052 C1033 1.368 . S
C1052 C1046 1.368 . S
C1052 C1051 1.523 . S
C1053 C1037 1.429 . S
C1053 C1049 1.429 . S
C1053 C1054 1.523 . S
C1054 C1038 1.368 . S
C1054 C1050 1.368 . S
C1054 C1053 1.523 . S
H1055 C1030 0.950 . S
H1056 C1032 0.950 . S
H1057 C1033 0.949 . S
H1058 C1035 0.950 . S
H1059 C1037 0.950 . S
C1060 C1061 1.349 . S
C1060 C1062 1.327 . S
C1060 H1085 0.950 . S
C1061 C1060 1.349 . S
C1061 C1077 1.349 . S
C1062 C1060 1.327 . S
C1062 C1081 1.429 . S
C1062 H1086 0.950 . S
C1063 C1080 1.574 . S
C1063 C1082 1.368 . S
C1063 H1087 0.949 . S
H1064 C1068 0.949 . S
C1065 C1066 1.349 . S
C1065 C1067 1.327 . S
C1065 H1088 0.950 . S
C1066 C1065 1.349 . S
C1066 C1078 1.349 . S
C1067 C1065 1.327 . S
C1067 C1083 1.429 . S
C1067 H1089 0.950 . S
C1068 H1064 0.949 . S
C1068 C1076 1.574 . S
C1068 C1084 1.368 . S
H1069 C1077 0.950 . S
H1070 C1075 0.950 . S
H1071 C1076 0.949 . S
H1072 C1078 0.950 . S
H1073 C1079 0.950 . S
H1074 C1080 0.949 . S
C1075 H1070 0.950 . S
C1075 C1077 1.327 . S
C1075 C1081 1.429 . S
C1076 C1068 1.574 . S
C1076 H1071 0.949 . S
C1076 C1082 1.368 . S
C1077 C1061 1.349 . S
C1077 H1069 0.950 . S
C1077 C1075 1.327 . S
C1078 C1066 1.349 . S
C1078 H1072 0.950 . S
C1078 C1079 1.327 . S
C1079 H1073 0.950 . S
C1079 C1078 1.327 . S
C1079 C1083 1.429 . S
C1080 C1063 1.574 . S
C1080 H1074 0.949 . S
C1080 C1084 1.368 . S
C1081 C1062 1.429 . S
C1081 C1075 1.429 . S
C1081 C1082 1.523 . S
C1082 C1063 1.368 . S
C1082 C1076 1.368 . S
C1082 C1081 1.523 . S
C1083 C1067 1.429 . S
C1083 C1079 1.429 . S
C1083 C1084 1.523 . S
C1084 C1068 1.368 . S
C1084 C1080 1.368 . S
C1084 C1083 1.523 . S
H1085 C1060 0.950 . S
H1086 C1062 0.950 . S
H1087 C1063 0.949 . S
H1088 C1065 0.950 . S
H1089 C1067 0.950 . S
C1090 C1091 1.349 . S
C1090 C1092 1.327 . S
C1090 H1115 0.950 . S
C1091 C1090 1.349 . S
C1091 C1107 1.349 . S
C1092 C1090 1.327 . S
C1092 C1111 1.429 . S
C1092 H1116 0.950 . S
C1093 C1110 1.574 . S
C1093 C1112 1.368 . S
C1093 H1117 0.949 . S
H1094 C1098 0.949 . S
C1095 C1096 1.349 . S
C1095 C1097 1.327 . S
C1095 H1118 0.950 . S
C1096 C1095 1.349 . S
C1096 C1108 1.349 . S
C1097 C1095 1.327 . S
C1097 C1113 1.429 . S
C1097 H1119 0.950 . S
C1098 H1094 0.949 . S
C1098 C1106 1.574 . S
C1098 C1114 1.368 . S
H1099 C1107 0.950 . S
H1100 C1105 0.950 . S
H1101 C1106 0.949 . S
H1102 C1108 0.950 . S
H1103 C1109 0.950 . S
H1104 C1110 0.949 . S
C1105 H1100 0.950 . S
C1105 C1107 1.327 . S
C1105 C1111 1.429 . S
C1106 C1098 1.574 . S
C1106 H1101 0.949 . S
C1106 C1112 1.368 . S
C1107 C1091 1.349 . S
C1107 H1099 0.950 . S
C1107 C1105 1.327 . S
C1108 C1096 1.349 . S
C1108 H1102 0.950 . S
C1108 C1109 1.327 . S
C1109 H1103 0.950 . S
C1109 C1108 1.327 . S
C1109 C1113 1.429 . S
C1110 C1093 1.574 . S
C1110 H1104 0.949 . S
C1110 C1114 1.368 . S
C1111 C1092 1.429 . S
C1111 C1105 1.429 . S
C1111 C1112 1.523 . S
C1112 C1093 1.368 . S
C1112 C1106 1.368 . S
C1112 C1111 1.523 . S
C1113 C1097 1.429 . S
C1113 C1109 1.429 . S
C1113 C1114 1.523 . S
C1114 C1098 1.368 . S
C1114 C1110 1.368 . S
C1114 C1113 1.523 . S
H1115 C1090 0.950 . S
H1116 C1092 0.950 . S
H1117 C1093 0.949 . S
H1118 C1095 0.950 . S
H1119 C1097 0.950 . S
C1120 C1121 1.349 . S
C1120 C1122 1.327 . S
C1120 H1145 0.950 . S
C1121 C1120 1.349 . S
C1121 C1137 1.349 . S
C1122 C1120 1.327 . S
C1122 C1141 1.429 . S
C1122 H1146 0.950 . S
C1123 C1140 1.574 . S
C1123 C1142 1.368 . S
C1123 H1147 0.949 . S
H1124 C1128 0.949 . S
C1125 C1126 1.349 . S
C1125 C1127 1.327 . S
C1125 H1148 0.950 . S
C1126 C1125 1.349 . S
C1126 C1138 1.349 . S
C1127 C1125 1.327 . S
C1127 C1143 1.429 . S
C1127 H1149 0.950 . S
C1128 H1124 0.949 . S
C1128 C1136 1.574 . S
C1128 C1144 1.368 . S
H1129 C1137 0.950 . S
H1130 C1135 0.950 . S
H1131 C1136 0.949 . S
H1132 C1138 0.950 . S
H1133 C1139 0.950 . S
H1134 C1140 0.949 . S
C1135 H1130 0.950 . S
C1135 C1137 1.327 . S
C1135 C1141 1.429 . S
C1136 C1128 1.574 . S
C1136 H1131 0.949 . S
C1136 C1142 1.368 . S
C1137 C1121 1.349 . S
C1137 H1129 0.950 . S
C1137 C1135 1.327 . S
C1138 C1126 1.349 . S
C1138 H1132 0.950 . S
C1138 C1139 1.327 . S
C1139 H1133 0.950 . S
C1139 C1138 1.327 . S
C1139 C1143 1.429 . S
C1140 C1123 1.574 . S
C1140 H1134 0.949 . S
C1140 C1144 1.368 . S
C1141 C1122 1.429 . S
C1141 C1135 1.429 . S
C1141 C1142 1.523 . S
C1142 C1123 1.368 . S
C1142 C1136 1.368 . S
C1142 C1141 1.523 . S
C1143 C1127 1.429 . S
C1143 C1139 1.429 . S
C1143 C1144 1.523 . S
C1144 C1128 1.368 . S
C1144 C1140 1.368 . S
C1144 C1143 1.523 . S
H1145 C1120 0.950 . S
H1146 C1122 0.950 . S
H1147 C1123 0.949 . S
H1148 C1125 0.950 . S
H1149 C1127 0.950 . S
C1150 C1151 1.349 . S
C1150 C1152 1.327 . S
C1150 H1175 0.950 . S
C1151 C1150 1.349 . S
C1151 C1167 1.349 . S
C1152 C1150 1.327 . S
C1152 C1171 1.429 . S
C1152 H1176 0.950 . S
C1153 C1170 1.574 . S
C1153 C1172 1.368 . S
C1153 H1177 0.949 . S
H1154 C1158 0.949 . S
C1155 C1156 1.349 . S
C1155 C1157 1.327 . S
C1155 H1178 0.950 . S
C1156 C1155 1.349 . S
C1156 C1168 1.349 . S
C1157 C1155 1.327 . S
C1157 C1173 1.429 . S
C1157 H1179 0.950 . S
C1158 H1154 0.949 . S
C1158 C1166 1.574 . S
C1158 C1174 1.368 . S
H1159 C1167 0.950 . S
H1160 C1165 0.950 . S
H1161 C1166 0.949 1_545 S
H1162 C1168 0.950 . S
H1163 C1169 0.950 . S
H1164 C1170 0.949 . S
C1165 H1160 0.950 . S
C1165 C1167 1.327 . S
C1165 C1171 1.429 . S
C1166 C1158 1.574 . S
C1166 H1161 0.949 1_565 S
C1166 C1172 1.368 . S
C1167 C1151 1.349 . S
C1167 H1159 0.950 . S
C1167 C1165 1.327 . S
C1168 C1156 1.349 . S
C1168 H1162 0.950 . S
C1168 C1169 1.327 . S
C1169 H1163 0.950 . S
C1169 C1168 1.327 . S
C1169 C1173 1.429 . S
C1170 C1153 1.574 . S
C1170 H1164 0.949 . S
C1170 C1174 1.368 . S
C1171 C1152 1.429 . S
C1171 C1165 1.429 . S
C1171 C1172 1.523 1_545 S
C1172 C1153 1.368 . S
C1172 C1166 1.368 . S
C1172 C1171 1.523 1_565 S
C1173 C1157 1.429 . S
C1173 C1169 1.429 . S
C1173 C1174 1.523 . S
C1174 C1158 1.368 . S
C1174 C1170 1.368 . S
C1174 C1173 1.523 . S
H1175 C1150 0.950 . S
H1176 C1152 0.950 . S
H1177 C1153 0.949 . S
H1178 C1155 0.950 . S
H1179 C1157 0.950 . S
C1180 C1181 1.349 . S
C1180 C1182 1.327 . S
C1180 H1205 0.950 1_556 S
C1181 C1180 1.349 . S
C1181 C1197 1.349 . S
C1182 C1180 1.327 . S
C1182 C1201 1.429 . S
C1182 H1206 0.950 . S
C1183 C1200 1.574 . S
C1183 C1202 1.368 . S
C1183 H1207 0.949 . S
H1184 C1188 0.949 . S
C1185 C1186 1.349 . S
C1185 C1187 1.327 . S
C1185 H1208 0.950 . S
C1186 C1185 1.349 . S
C1186 C1198 1.349 . S
C1187 C1185 1.327 . S
C1187 C1203 1.429 . S
C1187 H1209 0.950 . S
C1188 H1184 0.949 . S
C1188 C1196 1.574 . S
C1188 C1204 1.368 . S
H1189 C1197 0.950 . S
H1190 C1195 0.950 . S
H1191 C1196 0.949 . S
H1192 C1198 0.950 . S
H1193 C1199 0.950 . S
H1194 C1200 0.949 . S
C1195 H1190 0.950 . S
C1195 C1197 1.327 . S
C1195 C1201 1.429 . S
C1196 C1188 1.574 . S
C1196 H1191 0.949 . S
C1196 C1202 1.368 . S
C1197 C1181 1.349 . S
C1197 H1189 0.950 . S
C1197 C1195 1.327 . S
C1198 C1186 1.349 . S
C1198 H1192 0.950 . S
C1198 C1199 1.327 . S
C1199 H1193 0.950 . S
C1199 C1198 1.327 . S
C1199 C1203 1.429 . S
C1200 C1183 1.574 . S
C1200 H1194 0.949 . S
C1200 C1204 1.368 . S
C1201 C1182 1.429 . S
C1201 C1195 1.429 . S
C1201 C1202 1.523 . S
C1202 C1183 1.368 . S
C1202 C1196 1.368 . S
C1202 C1201 1.523 . S
C1203 C1187 1.429 . S
C1203 C1199 1.429 . S
C1203 C1204 1.523 . S
C1204 C1188 1.368 . S
C1204 C1200 1.368 . S
C1204 C1203 1.523 . S
H1205 C1180 0.950 1_554 S
H1206 C1182 0.950 . S
H1207 C1183 0.949 . S
H1208 C1185 0.950 . S
H1209 C1187 0.950 . S
C1210 C1211 1.349 . S
C1210 C1212 1.327 . S
C1210 H1235 0.950 . S
C1211 C1210 1.349 . S
C1211 C1227 1.349 . S
C1212 C1210 1.327 . S
C1212 C1231 1.429 . S
C1212 H1236 0.950 . S
C1213 C1230 1.574 . S
C1213 C1232 1.368 . S
C1213 H1237 0.949 . S
H1214 C1218 0.949 . S
C1215 C1216 1.349 . S
C1215 C1217 1.327 . S
C1215 H1238 0.950 . S
C1216 C1215 1.349 . S
C1216 C1228 1.349 . S
C1217 C1215 1.327 . S
C1217 C1233 1.429 . S
C1217 H1239 0.950 . S
C1218 H1214 0.949 . S
C1218 C1226 1.574 . S
C1218 C1234 1.368 . S
H1219 C1227 0.950 . S
H1220 C1225 0.950 . S
H1221 C1226 0.949 1_565 S
H1222 C1228 0.950 . S
H1223 C1229 0.950 . S
H1224 C1230 0.949 . S
C1225 H1220 0.950 . S
C1225 C1227 1.327 . S
C1225 C1231 1.429 . S
C1226 C1218 1.574 . S
C1226 H1221 0.949 1_545 S
C1226 C1232 1.368 . S
C1227 C1211 1.349 . S
C1227 H1219 0.950 . S
C1227 C1225 1.327 . S
C1228 C1216 1.349 . S
C1228 H1222 0.950 . S
C1228 C1229 1.327 . S
C1229 H1223 0.950 . S
C1229 C1228 1.327 . S
C1229 C1233 1.429 . S
C1230 C1213 1.574 . S
C1230 H1224 0.949 . S
C1230 C1234 1.368 . S
C1231 C1212 1.429 . S
C1231 C1225 1.429 . S
C1231 C1232 1.523 1_565 S
C1232 C1213 1.368 . S
C1232 C1226 1.368 . S
C1232 C1231 1.523 1_545 S
C1233 C1217 1.429 . S
C1233 C1229 1.429 . S
C1233 C1234 1.523 . S
C1234 C1218 1.368 . S
C1234 C1230 1.368 . S
C1234 C1233 1.523 . S
H1235 C1210 0.950 . S
H1236 C1212 0.950 . S
H1237 C1213 0.949 . S
H1238 C1215 0.950 . S
H1239 C1217 0.950 . S
C1240 C1241 1.349 . S
C1240 C1242 1.327 . S
C1240 H1265 0.950 . S
C1241 C1240 1.349 . S
C1241 C1257 1.349 . S
C1242 C1240 1.327 . S
C1242 C1261 1.429 . S
C1242 H1266 0.950 . S
C1243 C1260 1.574 . S
C1243 C1262 1.368 . S
C1243 H1267 0.949 . S
H1244 C1248 0.949 . S
C1245 C1246 1.349 . S
C1245 C1247 1.327 . S
C1245 H1268 0.950 . S
C1246 C1245 1.349 . S
C1246 C1258 1.349 . S
C1247 C1245 1.327 . S
C1247 C1263 1.429 . S
C1247 H1269 0.950 . S
C1248 H1244 0.949 . S
C1248 C1256 1.574 . S
C1248 C1264 1.368 . S
H1249 C1257 0.950 . S
H1250 C1255 0.950 . S
H1251 C1256 0.949 . S
H1252 C1258 0.950 . S
H1253 C1259 0.950 . S
H1254 C1260 0.949 . S
C1255 H1250 0.950 . S
C1255 C1257 1.327 . S
C1255 C1261 1.429 . S
C1256 C1248 1.574 . S
C1256 H1251 0.949 . S
C1256 C1262 1.368 . S
C1257 C1241 1.349 . S
C1257 H1249 0.950 . S
C1257 C1255 1.327 . S
C1258 C1246 1.349 . S
C1258 H1252 0.950 . S
C1258 C1259 1.327 . S
C1259 H1253 0.950 . S
C1259 C1258 1.327 . S
C1259 C1263 1.429 . S
C1260 C1243 1.574 . S
C1260 H1254 0.949 . S
C1260 C1264 1.368 . S
C1261 C1242 1.429 . S
C1261 C1255 1.429 . S
C1261 C1262 1.523 . S
C1262 C1243 1.368 . S
C1262 C1256 1.368 . S
C1262 C1261 1.523 . S
C1263 C1247 1.429 . S
C1263 C1259 1.429 . S
C1263 C1264 1.523 . S
C1264 C1248 1.368 . S
C1264 C1260 1.368 . S
C1264 C1263 1.523 . S
H1265 C1240 0.950 . S
H1266 C1242 0.950 . S
H1267 C1243 0.949 . S
H1268 C1245 0.950 . S
H1269 C1247 0.950 . S
C1270 C1271 1.349 . S
C1270 C1272 1.327 . S
C1270 H1295 0.950 . S
C1271 C1270 1.349 . S
C1271 C1287 1.349 . S
C1272 C1270 1.327 . S
C1272 C1291 1.429 . S
C1272 H1296 0.950 . S
C1273 C1290 1.574 . S
C1273 C1292 1.368 . S
C1273 H1297 0.949 . S
H1274 C1278 0.949 1_565 S
C1275 C1276 1.349 . S
C1275 C1277 1.327 . S
C1275 H1298 0.950 . S
C1276 C1275 1.349 . S
C1276 C1288 1.349 . S
C1277 C1275 1.327 . S
C1277 C1293 1.429 . S
C1277 H1299 0.950 . S
C1278 H1274 0.949 1_545 S
C1278 C1286 1.574 . S
C1278 C1294 1.368 . S
H1279 C1287 0.950 . S
H1280 C1285 0.950 . S
H1281 C1286 0.949 . S
H1282 C1288 0.950 . S
H1283 C1289 0.950 . S
H1284 C1290 0.949 . S
C1285 H1280 0.950 . S
C1285 C1287 1.327 . S
C1285 C1291 1.429 . S
C1286 C1278 1.574 . S
C1286 H1281 0.949 . S
C1286 C1292 1.368 . S
C1287 C1271 1.349 . S
C1287 H1279 0.950 . S
C1287 C1285 1.327 . S
C1288 C1276 1.349 . S
C1288 H1282 0.950 . S
C1288 C1289 1.327 . S
C1289 H1283 0.950 . S
C1289 C1288 1.327 . S
C1289 C1293 1.429 . S
C1290 C1273 1.574 . S
C1290 H1284 0.949 . S
C1290 C1294 1.368 . S
C1291 C1272 1.429 . S
C1291 C1285 1.429 . S
C1291 C1292 1.523 . S
C1292 C1273 1.368 . S
C1292 C1286 1.368 . S
C1292 C1291 1.523 . S
C1293 C1277 1.429 . S
C1293 C1289 1.429 . S
C1293 C1294 1.523 1_565 S
C1294 C1278 1.368 . S
C1294 C1290 1.368 . S
C1294 C1293 1.523 1_545 S
H1295 C1270 0.950 . S
H1296 C1272 0.950 . S
H1297 C1273 0.949 . S
H1298 C1275 0.950 . S
H1299 C1277 0.950 . S
C1300 C1301 1.349 . S
C1300 C1302 1.327 . S
C1300 H1325 0.950 . S
C1301 C1300 1.349 . S
C1301 C1317 1.349 . S
C1302 C1300 1.327 . S
C1302 C1321 1.429 . S
C1302 H1326 0.950 . S
C1303 C1320 1.574 . S
C1303 C1322 1.368 . S
C1303 H1327 0.949 . S
H1304 C1308 0.949 . S
C1305 C1306 1.349 1_556 S
C1305 C1307 1.327 1_556 S
C1305 H1328 0.950 . S
C1306 C1305 1.349 1_554 S
C1306 C1318 1.349 . S
C1307 C1305 1.327 1_554 S
C1307 C1323 1.429 . S
C1307 H1329 0.941 1_554 S
C1308 H1304 0.949 . S
C1308 C1316 1.574 . S
C1308 C1324 1.368 . S
H1309 C1317 0.950 . S
H1310 C1315 0.950 . S
H1311 C1316 0.949 . S
H1312 C1318 0.950 . S
H1313 C1319 0.950 . S
H1314 C1320 0.949 . S
C1315 H1310 0.950 . S
C1315 C1317 1.327 . S
C1315 C1321 1.429 . S
C1316 C1308 1.574 . S
C1316 H1311 0.949 . S
C1316 C1322 1.368 . S
C1317 C1301 1.349 . S
C1317 H1309 0.950 . S
C1317 C1315 1.327 . S
C1318 C1306 1.349 . S
C1318 H1312 0.950 . S
C1318 C1319 1.327 . S
C1319 H1313 0.950 . S
C1319 C1318 1.327 . S
C1319 C1323 1.429 . S
C1320 C1303 1.574 . S
C1320 H1314 0.949 . S
C1320 C1324 1.368 . S
C1321 C1302 1.429 . S
C1321 C1315 1.429 . S
C1321 C1322 1.523 . S
C1322 C1303 1.368 . S
C1322 C1316 1.368 . S
C1322 C1321 1.523 . S
C1323 C1307 1.429 . S
C1323 C1319 1.429 . S
C1323 C1324 1.523 . S
C1324 C1308 1.368 . S
C1324 C1320 1.368 . S
C1324 C1323 1.523 . S
H1325 C1300 0.950 . S
H1326 C1302 0.950 . S
H1327 C1303 0.949 . S
H1328 C1305 0.950 . S
H1329 C1307 0.941 1_556 S
C1330 C1331 1.349 . S
C1330 C1332 1.327 . S
C1330 H1355 0.950 . S
C1331 C1330 1.349 . S
C1331 C1347 1.349 . S
C1332 C1330 1.327 . S
C1332 C1351 1.429 . S
C1332 H1356 0.950 . S
C1333 C1350 1.574 . S
C1333 C1352 1.368 . S
C1333 H1357 0.949 . S
H1334 C1338 0.949 . S
C1335 C1336 1.349 . S
C1335 C1337 1.327 . S
C1335 H1358 0.950 . S
C1336 C1335 1.349 . S
C1336 C1348 1.349 . S
C1337 C1335 1.327 . S
C1337 C1353 1.429 . S
C1337 H1359 0.950 . S
C1338 H1334 0.949 . S
C1338 C1346 1.574 . S
C1338 C1354 1.368 . S
H1339 C1347 0.950 . S
H1340 C1345 0.950 . S
H1341 C1346 0.949 1_545 S
H1342 C1348 0.950 . S
H1343 C1349 0.950 . S
H1344 C1350 0.949 . S
C1345 H1340 0.950 . S
C1345 C1347 1.327 . S
C1345 C1351 1.429 . S
C1346 C1338 1.574 . S
C1346 H1341 0.949 1_565 S
C1346 C1352 1.368 . S
C1347 C1331 1.349 . S
C1347 H1339 0.950 . S
C1347 C1345 1.327 . S
C1348 C1336 1.349 . S
C1348 H1342 0.950 . S
C1348 C1349 1.327 . S
C1349 H1343 0.950 . S
C1349 C1348 1.327 . S
C1349 C1353 1.429 . S
C1350 C1333 1.574 . S
C1350 H1344 0.949 . S
C1350 C1354 1.368 . S
C1351 C1332 1.429 . S
C1351 C1345 1.429 . S
C1351 C1352 1.523 1_545 S
C1352 C1333 1.368 . S
C1352 C1346 1.368 . S
C1352 C1351 1.523 1_565 S
C1353 C1337 1.429 . S
C1353 C1349 1.429 . S
C1353 C1354 1.523 . S
C1354 C1338 1.368 . S
C1354 C1350 1.368 . S
C1354 C1353 1.523 . S
H1355 C1330 0.950 . S
H1356 C1332 0.950 . S
H1357 C1333 0.949 . S
H1358 C1335 0.950 . S
H1359 C1337 0.950 . S
C1360 C1361 1.349 . S
C1360 C1362 1.327 . S
C1360 H1385 0.950 . S
C1361 C1360 1.349 . S
C1361 C1377 1.349 . S
C1362 C1360 1.327 . S
C1362 C1381 1.429 . S
C1362 H1386 0.950 . S
C1363 C1380 1.574 . S
C1363 C1382 1.368 . S
C1363 H1387 0.949 . S
H1364 C1368 0.949 . S
C1365 C1366 1.349 . S
C1365 C1367 1.327 . S
C1365 H1388 0.950 . S
C1366 C1365 1.349 . S
C1366 C1378 1.349 . S
C1367 C1365 1.327 . S
C1367 C1383 1.429 . S
C1367 H1389 0.950 . S
C1368 H1364 0.949 . S
C1368 C1376 1.574 . S
C1368 C1384 1.368 . S
H1369 C1377 0.950 . S
H1370 C1375 0.950 . S
H1371 C1376 0.949 . S
H1372 C1378 0.950 . S
H1373 C1379 0.950 . S
H1374 C1380 0.949 . S
C1375 H1370 0.950 . S
C1375 C1377 1.327 . S
C1375 C1381 1.429 . S
C1376 C1368 1.574 . S
C1376 H1371 0.949 . S
C1376 C1382 1.368 . S
C1377 C1361 1.349 . S
C1377 H1369 0.950 . S
C1377 C1375 1.327 . S
C1378 C1366 1.349 . S
C1378 H1372 0.950 . S
C1378 C1379 1.327 . S
C1379 H1373 0.950 . S
C1379 C1378 1.327 . S
C1379 C1383 1.429 . S
C1380 C1363 1.574 . S
C1380 H1374 0.949 . S
C1380 C1384 1.368 . S
C1381 C1362 1.429 . S
C1381 C1375 1.429 . S
C1381 C1382 1.523 . S
C1382 C1363 1.368 . S
C1382 C1376 1.368 . S
C1382 C1381 1.523 . S
C1383 C1367 1.429 . S
C1383 C1379 1.429 . S
C1383 C1384 1.523 . S
C1384 C1368 1.368 . S
C1384 C1380 1.368 . S
C1384 C1383 1.523 . S
H1385 C1360 0.950 . S
H1386 C1362 0.950 . S
H1387 C1363 0.949 . S
H1388 C1365 0.950 . S
H1389 C1367 0.950 . S
C1390 C1391 1.349 . S
C1390 C1392 1.327 . S
C1390 H1415 0.950 . S
C1391 C1390 1.349 . S
C1391 C1407 1.349 . S
C1392 C1390 1.327 . S
C1392 C1411 1.429 . S
C1392 H1416 0.950 . S
C1393 C1410 1.574 . S
C1393 C1412 1.368 . S
C1393 H1417 0.949 . S
H1394 C1398 0.949 . S
C1395 C1396 1.349 . S
C1395 C1397 1.327 1_556 S
C1395 H1418 0.950 . S
C1396 C1395 1.349 . S
C1396 C1408 1.349 1_556 S
C1397 C1395 1.327 1_554 S
C1397 C1413 1.429 . S
C1397 H1419 0.950 . S
C1398 H1394 0.949 . S
C1398 C1406 1.574 . S
C1398 C1414 1.368 . S
H1399 C1407 0.950 . S
H1400 C1405 0.950 . S
H1401 C1406 0.949 . S
H1402 C1408 0.950 . S
H1403 C1409 0.950 . S
H1404 C1410 0.949 . S
C1405 H1400 0.950 . S
C1405 C1407 1.327 . S
C1405 C1411 1.429 . S
C1406 C1398 1.574 . S
C1406 H1401 0.949 . S
C1406 C1412 1.368 . S
C1407 C1391 1.349 . S
C1407 H1399 0.950 . S
C1407 C1405 1.327 . S
C1408 C1396 1.349 1_554 S
C1408 H1402 0.950 . S
C1408 C1409 1.327 . S
C1409 H1403 0.950 . S
C1409 C1408 1.327 . S
C1409 C1413 1.429 . S
C1410 C1393 1.574 . S
C1410 H1404 0.949 . S
C1410 C1414 1.368 . S
C1411 C1392 1.429 . S
C1411 C1405 1.429 . S
C1411 C1412 1.523 . S
C1412 C1393 1.368 . S
C1412 C1406 1.368 . S
C1412 C1411 1.523 . S
C1413 C1397 1.429 . S
C1413 C1409 1.429 . S
C1413 C1414 1.523 . S
C1414 C1398 1.368 . S
C1414 C1410 1.368 . S
C1414 C1413 1.523 . S
H1415 C1390 0.950 . S
H1416 C1392 0.950 . S
H1417 C1393 0.949 . S
H1418 C1395 0.950 . S
H1419 C1397 0.950 . S
C1420 C1421 1.349 . S
C1420 C1422 1.327 . S
C1420 H1445 0.950 . S
C1421 C1420 1.349 . S
C1421 C1437 1.349 . S
C1422 C1420 1.327 . S
C1422 C1441 1.429 . S
C1422 H1446 0.950 . S
C1423 C1440 1.574 . S
C1423 C1442 1.368 . S
C1423 H1447 0.949 . S
H1424 C1428 0.949 1_455 S
C1425 C1426 1.349 . S
C1425 C1427 1.327 . S
C1425 H1448 0.950 . S
C1426 C1425 1.349 . S
C1426 C1438 1.349 . S
C1427 C1425 1.327 . S
C1427 C1443 1.429 . S
C1427 H1449 0.950 1_455 S
C1428 H1424 0.949 1_655 S
C1428 C1436 1.574 . S
C1428 C1444 1.368 . S
H1429 C1437 0.950 . S
H1430 C1435 0.950 . S
H1431 C1436 0.949 . S
H1432 C1438 0.950 . S
H1433 C1439 0.950 . S
H1434 C1440 0.949 . S
C1435 H1430 0.950 . S
C1435 C1437 1.327 . S
C1435 C1441 1.429 . S
C1436 C1428 1.574 . S
C1436 H1431 0.949 . S
C1436 C1442 1.368 . S
C1437 C1421 1.349 . S
C1437 H1429 0.950 . S
C1437 C1435 1.327 . S
C1438 C1426 1.349 . S
C1438 H1432 0.950 . S
C1438 C1439 1.327 . S
C1439 H1433 0.950 . S
C1439 C1438 1.327 . S
C1439 C1443 1.429 . S
C1440 C1423 1.574 . S
C1440 H1434 0.949 . S
C1440 C1444 1.368 . S
C1441 C1422 1.429 . S
C1441 C1435 1.429 . S
C1441 C1442 1.523 . S
C1442 C1423 1.368 . S
C1442 C1436 1.368 . S
C1442 C1441 1.523 . S
C1443 C1427 1.429 . S
C1443 C1439 1.429 . S
C1443 C1444 1.523 1_455 S
C1444 C1428 1.368 . S
C1444 C1440 1.368 . S
C1444 C1443 1.523 1_655 S
H1445 C1420 0.950 . S
H1446 C1422 0.950 . S
H1447 C1423 0.949 . S
H1448 C1425 0.950 . S
H1449 C1427 0.950 1_655 S
C1450 C1451 1.349 . S
C1450 C1452 1.327 . S
C1450 H1475 0.950 . S
C1451 C1450 1.349 . S
C1451 C1467 1.349 . S
C1452 C1450 1.327 . S
C1452 C1471 1.429 . S
C1452 H1476 0.950 . S
C1453 C1470 1.574 . S
C1453 C1472 1.368 . S
C1453 H1477 0.949 . S
H1454 C1458 0.949 . S
C1455 C1456 1.349 . S
C1455 C1457 1.327 . S
C1455 H1478 0.950 . S
C1456 C1455 1.349 . S
C1456 C1468 1.349 . S
C1457 C1455 1.327 . S
C1457 C1473 1.429 . S
C1457 H1479 0.950 . S
C1458 H1454 0.949 . S
C1458 C1466 1.574 . S
C1458 C1474 1.368 . S
H1459 C1467 0.950 . S
H1460 C1465 0.950 . S
H1461 C1466 0.949 . S
H1462 C1468 0.950 . S
H1463 C1469 0.950 . S
H1464 C1470 0.949 . S
C1465 H1460 0.950 . S
C1465 C1467 1.327 . S
C1465 C1471 1.429 . S
C1466 C1458 1.574 . S
C1466 H1461 0.949 . S
C1466 C1472 1.368 . S
C1467 C1451 1.349 . S
C1467 H1459 0.950 . S
C1467 C1465 1.327 . S
C1468 C1456 1.349 . S
C1468 H1462 0.950 . S
C1468 C1469 1.327 . S
C1469 H1463 0.950 . S
C1469 C1468 1.327 . S
C1469 C1473 1.429 . S
C1470 C1453 1.574 . S
C1470 H1464 0.949 . S
C1470 C1474 1.368 . S
C1471 C1452 1.429 . S
C1471 C1465 1.429 . S
C1471 C1472 1.523 . S
C1472 C1453 1.368 . S
C1472 C1466 1.368 . S
C1472 C1471 1.523 . S
C1473 C1457 1.429 . S
C1473 C1469 1.429 . S
C1473 C1474 1.523 . S
C1474 C1458 1.368 . S
C1474 C1470 1.368 . S
C1474 C1473 1.523 . S
H1475 C1450 0.950 . S
H1476 C1452 0.950 . S
H1477 C1453 0.949 . S
H1478 C1455 0.950 . S
H1479 C1457 0.950 . S
C1480 C1481 1.349 . S
C1480 C1482 1.327 . S
C1480 H1505 0.950 . S
C1481 C1480 1.349 . S
C1481 C1497 1.349 . S
C1482 C1480 1.327 . S
C1482 C1501 1.429 . S
C1482 H1506 0.950 . S
C1483 C1500 1.574 . S
C1483 C1502 1.368 . S
C1483 H1507 0.949 . S
H1484 C1488 0.949 . S
C1485 C1486 1.349 . S
C1485 C1487 1.327 . S
C1485 H1508 0.950 . S
C1486 C1485 1.349 . S
C1486 C1498 1.349 . S
C1487 C1485 1.327 . S
C1487 C1503 1.429 . S
C1487 H1509 0.950 . S
C1488 H1484 0.949 . S
C1488 C1496 1.574 . S
C1488 C1504 1.368 . S
H1489 C1497 0.950 . S
H1490 C1495 0.950 . S
H1491 C1496 0.949 . S
H1492 C1498 0.950 . S
H1493 C1499 0.950 . S
H1494 C1500 0.949 . S
C1495 H1490 0.950 . S
C1495 C1497 1.327 . S
C1495 C1501 1.429 . S
C1496 C1488 1.574 . S
C1496 H1491 0.949 . S
C1496 C1502 1.368 . S
C1497 C1481 1.349 . S
C1497 H1489 0.950 . S
C1497 C1495 1.327 . S
C1498 C1486 1.349 . S
C1498 H1492 0.950 . S
C1498 C1499 1.327 . S
C1499 H1493 0.950 . S
C1499 C1498 1.327 . S
C1499 C1503 1.429 . S
C1500 C1483 1.574 . S
C1500 H1494 0.949 . S
C1500 C1504 1.368 . S
C1501 C1482 1.429 . S
C1501 C1495 1.429 . S
C1501 C1502 1.523 . S
C1502 C1483 1.368 . S
C1502 C1496 1.368 . S
C1502 C1501 1.523 . S
C1503 C1487 1.429 . S
C1503 C1499 1.429 . S
C1503 C1504 1.523 . S
C1504 C1488 1.368 . S
C1504 C1500 1.368 . S
C1504 C1503 1.523 . S
H1505 C1480 0.950 . S
H1506 C1482 0.950 . S
H1507 C1483 0.949 . S
H1508 C1485 0.950 . S
H1509 C1487 0.950 . S
C1510 C1511 1.349 . S
C1510 C1512 1.327 . S
C1510 H1535 0.950 . S
C1511 C1510 1.349 . S
C1511 C1527 1.349 . S
C1512 C1510 1.327 . S
C1512 C1531 1.429 . S
C1512 H1536 0.950 . S
C1513 C1530 1.574 . S
C1513 C1532 1.368 . S
C1513 H1537 0.949 . S
H1514 C1518 0.949 . S
C1515 C1516 1.349 1_556 S
C1515 C1517 1.327 . S
C1515 H1538 0.950 . S
C1516 C1515 1.349 1_554 S
C1516 C1528 1.349 . S
C1517 C1515 1.327 . S
C1517 C1533 1.429 . S
C1517 H1539 0.950 . S
C1518 H1514 0.949 . S
C1518 C1526 1.574 . S
C1518 C1534 1.368 . S
H1519 C1527 0.950 . S
H1520 C1525 0.950 . S
H1521 C1526 0.949 . S
H1522 C1528 0.950 . S
H1523 C1529 0.950 . S
H1524 C1530 0.949 . S
C1525 H1520 0.950 . S
C1525 C1527 1.327 . S
C1525 C1531 1.429 . S
C1526 C1518 1.574 . S
C1526 H1521 0.949 . S
C1526 C1532 1.368 . S
C1527 C1511 1.349 . S
C1527 H1519 0.950 . S
C1527 C1525 1.327 . S
C1528 C1516 1.349 . S
C1528 H1522 0.950 . S
C1528 C1529 1.327 1_554 S
C1529 H1523 0.950 . S
C1529 C1528 1.327 1_556 S
C1529 C1533 1.429 . S
C1530 C1513 1.574 . S
C1530 H1524 0.949 . S
C1530 C1534 1.368 . S
C1531 C1512 1.429 . S
C1531 C1525 1.429 . S
C1531 C1532 1.523 . S
C1532 C1513 1.368 . S
C1532 C1526 1.368 . S
C1532 C1531 1.523 . S
C1533 C1517 1.429 . S
C1533 C1529 1.429 . S
C1533 C1534 1.523 . S
C1534 C1518 1.368 . S
C1534 C1530 1.368 . S
C1534 C1533 1.523 . S
H1535 C1510 0.950 . S
H1536 C1512 0.950 . S
H1537 C1513 0.949 . S
H1538 C1515 0.950 . S
H1539 C1517 0.950 . S
C1540 C1541 1.349 . S
C1540 C1542 1.327 . S
C1540 H1565 0.950 . S
C1541 C1540 1.349 . S
C1541 C1557 1.349 . S
C1542 C1540 1.327 . S
C1542 C1561 1.429 . S
C1542 H1566 0.950 . S
C1543 C1560 1.574 . S
C1543 C1562 1.368 . S
C1543 H1567 0.949 . S
H1544 C1548 0.949 1_655 S
C1545 C1546 1.349 . S
C1545 C1547 1.327 . S
C1545 H1568 0.950 . S
C1546 C1545 1.349 . S
C1546 C1558 1.349 . S
C1547 C1545 1.327 . S
C1547 C1563 1.429 . S
C1547 H1569 0.950 1_655 S
C1548 H1544 0.949 1_455 S
C1548 C1556 1.574 . S
C1548 C1564 1.368 . S
H1549 C1557 0.950 . S
H1550 C1555 0.950 . S
H1551 C1556 0.949 . S
H1552 C1558 0.950 . S
H1553 C1559 0.950 . S
H1554 C1560 0.949 . S
C1555 H1550 0.950 . S
C1555 C1557 1.327 . S
C1555 C1561 1.429 . S
C1556 C1548 1.574 . S
C1556 H1551 0.949 . S
C1556 C1562 1.368 . S
C1557 C1541 1.349 . S
C1557 H1549 0.950 . S
C1557 C1555 1.327 . S
C1558 C1546 1.349 . S
C1558 H1552 0.950 . S
C1558 C1559 1.327 . S
C1559 H1553 0.950 . S
C1559 C1558 1.327 . S
C1559 C1563 1.429 . S
C1560 C1543 1.574 . S
C1560 H1554 0.949 . S
C1560 C1564 1.368 . S
C1561 C1542 1.429 . S
C1561 C1555 1.429 . S
C1561 C1562 1.523 . S
C1562 C1543 1.368 . S
C1562 C1556 1.368 . S
C1562 C1561 1.523 . S
C1563 C1547 1.429 . S
C1563 C1559 1.429 . S
C1563 C1564 1.523 1_655 S
C1564 C1548 1.368 . S
C1564 C1560 1.368 . S
C1564 C1563 1.523 1_455 S
H1565 C1540 0.950 . S
H1566 C1542 0.950 . S
H1567 C1543 0.949 . S
H1568 C1545 0.950 . S
H1569 C1547 0.950 1_455 S
C1570 C1571 1.349 . S
C1570 C1572 1.327 . S
C1570 H1595 0.950 . S
C1571 C1570 1.349 . S
C1571 C1587 1.349 . S
C1572 C1570 1.327 . S
C1572 C1591 1.429 . S
C1572 H1596 0.950 . S
C1573 C1590 1.574 . S
C1573 C1592 1.368 . S
C1573 H1597 0.949 . S
H1574 C1578 0.949 . S
C1575 C1576 1.349 . S
C1575 C1577 1.327 . S
C1575 H1598 0.950 . S
C1576 C1575 1.349 . S
C1576 C1588 1.349 . S
C1577 C1575 1.327 . S
C1577 C1593 1.429 . S
C1577 H1599 0.950 . S
C1578 H1574 0.949 . S
C1578 C1586 1.574 . S
C1578 C1594 1.368 . S
H1579 C1587 0.950 . S
H1580 C1585 0.950 . S
H1581 C1586 0.949 . S
H1582 C1588 0.950 . S
H1583 C1589 0.950 . S
H1584 C1590 0.949 . S
C1585 H1580 0.950 . S
C1585 C1587 1.327 . S
C1585 C1591 1.429 . S
C1586 C1578 1.574 . S
C1586 H1581 0.949 . S
C1586 C1592 1.368 . S
C1587 C1571 1.349 . S
C1587 H1579 0.950 . S
C1587 C1585 1.327 . S
C1588 C1576 1.349 . S
C1588 H1582 0.950 . S
C1588 C1589 1.327 . S
C1589 H1583 0.950 . S
C1589 C1588 1.327 . S
C1589 C1593 1.429 . S
C1590 C1573 1.574 . S
C1590 H1584 0.949 . S
C1590 C1594 1.368 . S
C1591 C1572 1.429 . S
C1591 C1585 1.429 . S
C1591 C1592 1.523 . S
C1592 C1573 1.368 . S
C1592 C1586 1.368 . S
C1592 C1591 1.523 . S
C1593 C1577 1.429 . S
C1593 C1589 1.429 . S
C1593 C1594 1.523 . S
C1594 C1578 1.368 . S
C1594 C1590 1.368 . S
C1594 C1593 1.523 . S
H1595 C1570 0.950 . S
H1596 C1572 0.950 . S
H1597 C1573 0.949 . S
H1598 C1575 0.950 . S
H1599 C1577 0.950 . S
C1600 C1601 1.349 . S
C1600 C1602 1.327 . S
C1600 H1625 0.950 . S
C1601 C1600 1.349 . S
C1601 C1617 1.349 . S
C1602 C1600 1.327 . S
C1602 C1621 1.429 . S
C1602 H1626 0.950 . S
C1603 C1620 1.574 . S
C1603 C1622 1.368 . S
C1603 H1627 0.949 . S
H1604 C1608 0.949 . S
C1605 C1606 1.349 . S
C1605 C1607 1.327 . S
C1605 H1628 0.950 . S
C1606 C1605 1.349 . S
C1606 C1618 1.349 . S
C1607 C1605 1.327 . S
C1607 C1623 1.429 . S
C1607 H1629 0.950 . S
C1608 H1604 0.949 . S
C1608 C1616 1.574 . S
C1608 C1624 1.368 . S
H1609 C1617 0.950 . S
H1610 C1615 0.950 1_455 S
H1611 C1616 0.949 1_655 S
H1612 C1618 0.950 . S
H1613 C1619 0.950 . S
H1614 C1620 0.949 . S
C1615 H1610 0.950 1_655 S
C1615 C1617 1.327 . S
C1615 C1621 1.429 . S
C1616 C1608 1.574 . S
C1616 H1611 0.949 1_455 S
C1616 C1622 1.368 . S
C1617 C1601 1.349 . S
C1617 H1609 0.950 . S
C1617 C1615 1.327 . S
C1618 C1606 1.349 . S
C1618 H1612 0.950 . S
C1618 C1619 1.327 . S
C1619 H1613 0.950 . S
C1619 C1618 1.327 . S
C1619 C1623 1.429 . S
C1620 C1603 1.574 . S
C1620 H1614 0.949 . S
C1620 C1624 1.368 . S
C1621 C1602 1.429 . S
C1621 C1615 1.429 . S
C1621 C1622 1.523 1_655 S
C1622 C1603 1.368 . S
C1622 C1616 1.368 . S
C1622 C1621 1.523 1_455 S
C1623 C1607 1.429 . S
C1623 C1619 1.429 . S
C1623 C1624 1.523 . S
C1624 C1608 1.368 . S
C1624 C1620 1.368 . S
C1624 C1623 1.523 . S
H1625 C1600 0.950 . S
H1626 C1602 0.950 . S
H1627 C1603 0.949 . S
H1628 C1605 0.950 . S
H1629 C1607 0.950 . S
C1630 C1631 1.349 . S
C1630 C1632 1.327 . S
C1630 H1655 0.950 . S
C1631 C1630 1.349 . S
C1631 C1647 1.349 . S
C1632 C1630 1.327 . S
C1632 C1651 1.429 . S
C1632 H1656 0.950 . S
C1633 C1650 1.574 . S
C1633 C1652 1.368 . S
C1633 H1657 0.949 . S
H1634 C1638 0.949 . S
C1635 C1636 1.349 . S
C1635 C1637 1.327 . S
C1635 H1658 0.950 . S
C1636 C1635 1.349 . S
C1636 C1648 1.349 . S
C1637 C1635 1.327 . S
C1637 C1653 1.429 . S
C1637 H1659 0.950 . S
C1638 H1634 0.949 . S
C1638 C1646 1.574 . S
C1638 C1654 1.368 . S
H1639 C1647 0.950 . S
H1640 C1645 0.950 . S
H1641 C1646 0.949 . S
H1642 C1648 0.950 . S
H1643 C1649 0.950 . S
H1644 C1650 0.949 . S
C1645 H1640 0.950 . S
C1645 C1647 1.327 . S
C1645 C1651 1.429 . S
C1646 C1638 1.574 . S
C1646 H1641 0.949 . S
C1646 C1652 1.368 . S
C1647 C1631 1.349 . S
C1647 H1639 0.950 . S
C1647 C1645 1.327 . S
C1648 C1636 1.349 . S
C1648 H1642 0.950 . S
C1648 C1649 1.327 . S
C1649 H1643 0.950 . S
C1649 C1648 1.327 . S
C1649 C1653 1.429 . S
C1650 C1633 1.574 . S
C1650 H1644 0.949 . S
C1650 C1654 1.368 . S
C1651 C1632 1.429 . S
C1651 C1645 1.429 . S
C1651 C1652 1.523 . S
C1652 C1633 1.368 . S
C1652 C1646 1.368 . S
C1652 C1651 1.523 . S
C1653 C1637 1.429 . S
C1653 C1649 1.429 . S
C1653 C1654 1.523 . S
C1654 C1638 1.368 . S
C1654 C1650 1.368 . S
C1654 C1653 1.523 . S
H1655 C1630 0.950 . S
H1656 C1632 0.950 . S
H1657 C1633 0.949 . S
H1658 C1635 0.950 . S
H1659 C1637 0.950 . S
C1660 C1661 1.349 . S
C1660 C1662 1.327 . S
C1660 H1685 0.950 . S
C1661 C1660 1.349 . S
C1661 C1677 1.349 . S
C1662 C1660 1.327 . S
C1662 C1681 1.429 . S
C1662 H1686 0.950 . S
C1663 C1680 1.574 . S
C1663 C1682 1.368 . S
C1663 H1687 0.949 . S
H1664 C1668 0.949 . S
C1665 C1666 1.349 . S
C1665 C1667 1.327 . S
C1665 H1688 0.950 . S
C1666 C1665 1.349 . S
C1666 C1678 1.349 . S
C1667 C1665 1.327 . S
C1667 C1683 1.429 . S
C1667 H1689 0.950 . S
C1668 H1664 0.949 . S
C1668 C1676 1.574 . S
C1668 C1684 1.368 . S
H1669 C1677 0.950 . S
H1670 C1675 0.950 . S
H1671 C1676 0.949 . S
H1672 C1678 0.950 . S
H1673 C1679 0.950 . S
H1674 C1680 0.949 . S
C1675 H1670 0.950 . S
C1675 C1677 1.327 . S
C1675 C1681 1.429 . S
C1676 C1668 1.574 . S
C1676 H1671 0.949 . S
C1676 C1682 1.368 . S
C1677 C1661 1.349 . S
C1677 H1669 0.950 . S
C1677 C1675 1.327 . S
C1678 C1666 1.349 . S
C1678 H1672 0.950 . S
C1678 C1679 1.327 . S
C1679 H1673 0.950 . S
C1679 C1678 1.327 . S
C1679 C1683 1.429 . S
C1680 C1663 1.574 . S
C1680 H1674 0.949 . S
C1680 C1684 1.368 . S
C1681 C1662 1.429 . S
C1681 C1675 1.429 . S
C1681 C1682 1.523 . S
C1682 C1663 1.368 . S
C1682 C1676 1.368 . S
C1682 C1681 1.523 . S
C1683 C1667 1.429 . S
C1683 C1679 1.429 . S
C1683 C1684 1.523 . S
C1684 C1668 1.368 . S
C1684 C1680 1.368 . S
C1684 C1683 1.523 . S
H1685 C1660 0.950 . S
H1686 C1662 0.950 . S
H1687 C1663 0.949 . S
H1688 C1665 0.950 . S
H1689 C1667 0.950 . S
C1690 C1691 1.349 . S
C1690 C1692 1.327 1_556 S
C1690 H1715 0.950 . S
C1691 C1690 1.349 . S
C1691 C1707 1.349 1_556 S
C1692 C1690 1.327 1_554 S
C1692 C1711 1.429 . S
C1692 H1716 0.950 . S
C1693 C1710 1.574 . S
C1693 C1712 1.368 . S
C1693 H1717 0.949 . S
H1694 C1698 0.949 . S
C1695 C1696 1.349 . S
C1695 C1697 1.327 . S
C1695 H1718 0.950 . S
C1696 C1695 1.349 . S
C1696 C1708 1.349 . S
C1697 C1695 1.327 . S
C1697 C1713 1.429 . S
C1697 H1719 0.950 . S
C1698 H1694 0.949 . S
C1698 C1706 1.574 . S
C1698 C1714 1.368 . S
H1699 C1707 0.950 . S
H1700 C1705 0.950 . S
H1701 C1706 0.949 . S
H1702 C1708 0.950 . S
H1703 C1709 0.950 . S
H1704 C1710 0.949 . S
C1705 H1700 0.950 . S
C1705 C1707 1.327 . S
C1705 C1711 1.429 . S
C1706 C1698 1.574 . S
C1706 H1701 0.949 . S
C1706 C1712 1.368 . S
C1707 C1691 1.349 1_554 S
C1707 H1699 0.950 . S
C1707 C1705 1.327 . S
C1708 C1696 1.349 . S
C1708 H1702 0.950 . S
C1708 C1709 1.327 . S
C1709 H1703 0.950 . S
C1709 C1708 1.327 . S
C1709 C1713 1.429 . S
C1710 C1693 1.574 . S
C1710 H1704 0.949 . S
C1710 C1714 1.368 . S
C1711 C1692 1.429 . S
C1711 C1705 1.429 . S
C1711 C1712 1.523 . S
C1712 C1693 1.368 . S
C1712 C1706 1.368 . S
C1712 C1711 1.523 . S
C1713 C1697 1.429 . S
C1713 C1709 1.429 . S
C1713 C1714 1.523 . S
C1714 C1698 1.368 . S
C1714 C1710 1.368 . S
C1714 C1713 1.523 . S
H1715 C1690 0.950 . S
H1716 C1692 0.950 . S
H1717 C1693 0.949 . S
H1718 C1695 0.950 . S
H1719 C1697 0.950 . S
C1720 C1721 1.349 . S
C1720 C1722 1.327 . S
C1720 H1745 0.950 . S
C1721 C1720 1.349 . S
C1721 C1737 1.349 . S
C1722 C1720 1.327 . S
C1722 C1741 1.429 . S
C1722 H1746 0.950 . S
C1723 C1740 1.574 . S
C1723 C1742 1.368 . S
C1723 H1747 0.949 . S
H1724 C1728 0.949 . S
C1725 C1726 1.349 . S
C1725 C1727 1.327 . S
C1725 H1748 0.950 . S
C1726 C1725 1.349 . S
C1726 C1738 1.349 . S
C1727 C1725 1.327 . S
C1727 C1743 1.429 . S
C1727 H1749 0.950 . S
C1728 H1724 0.949 . S
C1728 C1736 1.574 . S
C1728 C1744 1.368 . S
H1729 C1737 0.950 . S
H1730 C1735 0.950 . S
H1731 C1736 0.949 . S
H1732 C1738 0.950 . S
H1733 C1739 0.950 . S
H1734 C1740 0.949 . S
C1735 H1730 0.950 . S
C1735 C1737 1.327 . S
C1735 C1741 1.429 . S
C1736 C1728 1.574 . S
C1736 H1731 0.949 . S
C1736 C1742 1.368 . S
C1737 C1721 1.349 . S
C1737 H1729 0.950 . S
C1737 C1735 1.327 . S
C1738 C1726 1.349 . S
C1738 H1732 0.950 . S
C1738 C1739 1.327 . S
C1739 H1733 0.950 . S
C1739 C1738 1.327 . S
C1739 C1743 1.429 . S
C1740 C1723 1.574 . S
C1740 H1734 0.949 . S
C1740 C1744 1.368 . S
C1741 C1722 1.429 . S
C1741 C1735 1.429 . S
C1741 C1742 1.523 1_455 S
C1742 C1723 1.368 . S
C1742 C1736 1.368 . S
C1742 C1741 1.523 1_655 S
C1743 C1727 1.429 . S
C1743 C1739 1.429 . S
C1743 C1744 1.523 . S
C1744 C1728 1.368 . S
C1744 C1740 1.368 . S
C1744 C1743 1.523 . S
H1745 C1720 0.950 . S
H1746 C1722 0.950 . S
H1747 C1723 0.949 . S
H1748 C1725 0.950 . S
H1749 C1727 0.950 . S
C1750 C1751 1.349 . S
C1750 C1752 1.327 . S
C1750 H1775 0.950 . S
C1751 C1750 1.349 . S
C1751 C1767 1.349 . S
C1752 C1750 1.327 . S
C1752 C1771 1.429 . S
C1752 H1776 0.950 . S
C1753 C1770 1.574 . S
C1753 C1772 1.368 . S
C1753 H1777 0.949 . S
H1754 C1758 0.949 . S
C1755 C1756 1.349 . S
C1755 C1757 1.327 . S
C1755 H1778 0.950 . S
C1756 C1755 1.349 . S
C1756 C1768 1.349 . S
C1757 C1755 1.327 . S
C1757 C1773 1.429 . S
C1757 H1779 0.950 . S
C1758 H1754 0.949 . S
C1758 C1766 1.574 . S
C1758 C1774 1.368 . S
H1759 C1767 0.950 . S
H1760 C1765 0.950 . S
H1761 C1766 0.949 . S
H1762 C1768 0.950 . S
H1763 C1769 0.950 . S
H1764 C1770 0.949 . S
C1765 H1760 0.950 . S
C1765 C1767 1.327 . S
C1765 C1771 1.429 . S
C1766 C1758 1.574 . S
C1766 H1761 0.949 . S
C1766 C1772 1.368 . S
C1767 C1751 1.349 . S
C1767 H1759 0.950 . S
C1767 C1765 1.327 . S
C1768 C1756 1.349 . S
C1768 H1762 0.950 . S
C1768 C1769 1.327 . S
C1769 H1763 0.950 . S
C1769 C1768 1.327 . S
C1769 C1773 1.429 . S
C1770 C1753 1.574 . S
C1770 H1764 0.949 . S
C1770 C1774 1.368 . S
C1771 C1752 1.429 . S
C1771 C1765 1.429 . S
C1771 C1772 1.523 . S
C1772 C1753 1.368 . S
C1772 C1766 1.368 . S
C1772 C1771 1.523 . S
C1773 C1757 1.429 . S
C1773 C1769 1.429 . S
C1773 C1774 1.523 . S
C1774 C1758 1.368 . S
C1774 C1770 1.368 . S
C1774 C1773 1.523 . S
H1775 C1750 0.950 . S
H1776 C1752 0.950 . S
H1777 C1753 0.949 . S
H1778 C1755 0.950 . S
H1779 C1757 0.950 . S
C1780 C1781 1.349 . S
C1780 C1782 1.327 . S
C1780 H1805 0.950 . S
C1781 C1780 1.349 . S
C1781 C1797 1.349 . S
C1782 C1780 1.327 . S
C1782 C1801 1.429 . S
C1782 H1806 0.950 . S
C1783 C1800 1.574 . S
C1783 C1802 1.368 . S
C1783 H1807 0.949 . S
H1784 C1788 0.949 . S
C1785 C1786 1.349 . S
C1785 C1787 1.327 . S
C1785 H1808 0.950 . S
C1786 C1785 1.349 . S
C1786 C1798 1.349 . S
C1787 C1785 1.327 . S
C1787 C1803 1.429 . S
C1787 H1809 0.950 . S
C1788 H1784 0.949 . S
C1788 C1796 1.574 . S
C1788 C1804 1.368 . S
H1789 C1797 0.950 . S
H1790 C1795 0.950 . S
H1791 C1796 0.949 . S
H1792 C1798 0.950 . S
H1793 C1799 0.950 . S
H1794 C1800 0.949 . S
C1795 H1790 0.950 . S
C1795 C1797 1.327 . S
C1795 C1801 1.429 . S
C1796 C1788 1.574 . S
C1796 H1791 0.949 . S
C1796 C1802 1.368 . S
C1797 C1781 1.349 . S
C1797 H1789 0.950 . S
C1797 C1795 1.327 . S
C1798 C1786 1.349 . S
C1798 H1792 0.950 . S
C1798 C1799 1.327 . S
C1799 H1793 0.950 . S
C1799 C1798 1.327 . S
C1799 C1803 1.429 . S
C1800 C1783 1.574 . S
C1800 H1794 0.949 . S
C1800 C1804 1.368 . S
C1801 C1782 1.429 . S
C1801 C1795 1.429 . S
C1801 C1802 1.523 . S
C1802 C1783 1.368 . S
C1802 C1796 1.368 . S
C1802 C1801 1.523 . S
C1803 C1787 1.429 . S
C1803 C1799 1.429 . S
C1803 C1804 1.523 . S
C1804 C1788 1.368 . S
C1804 C1800 1.368 . S
C1804 C1803 1.523 . S
H1805 C1780 0.950 . S
H1806 C1782 0.950 . S
H1807 C1783 0.949 . S
H1808 C1785 0.950 . S
H1809 C1787 0.950 . S
C1810 C1811 1.349 . S
C1810 C1812 1.327 1_554 S
C1810 H1835 0.950 . S
C1811 C1810 1.349 . S
C1811 C1827 1.349 1_554 S
C1812 C1810 1.327 1_556 S
C1812 C1831 1.429 . S
C1812 H1836 0.950 . S
C1813 C1830 1.574 . S
C1813 C1832 1.368 . S
C1813 H1837 0.949 . S
H1814 C1818 0.949 . S
C1815 C1816 1.349 . S
C1815 C1817 1.327 . S
C1815 H1838 0.950 . S
C1816 C1815 1.349 . S
C1816 C1828 1.349 . S
C1817 C1815 1.327 . S
C1817 C1833 1.429 . S
C1817 H1839 0.950 . S
C1818 H1814 0.949 . S
C1818 C1826 1.574 . S
C1818 C1834 1.368 . S
H1819 C1827 0.950 . S
H1820 C1825 0.950 . S
H1821 C1826 0.949 . S
H1822 C1828 0.950 . S
H1823 C1829 0.950 . S
H1824 C1830 0.949 . S
C1825 H1820 0.950 . S
C1825 C1827 1.327 . S
C1825 C1831 1.429 . S
C1826 C1818 1.574 . S
C1826 H1821 0.949 . S
C1826 C1832 1.368 . S
C1827 C1811 1.349 1_556 S
C1827 H1819 0.950 . S
C1827 C1825 1.327 . S
C1828 C1816 1.349 . S
C1828 H1822 0.950 . S
C1828 C1829 1.327 . S
C1829 H1823 0.950 . S
C1829 C1828 1.327 . S
C1829 C1833 1.429 . S
C1830 C1813 1.574 . S
C1830 H1824 0.949 . S
C1830 C1834 1.368 . S
C1831 C1812 1.429 . S
C1831 C1825 1.429 . S
C1831 C1832 1.523 . S
C1832 C1813 1.368 . S
C1832 C1826 1.368 . S
C1832 C1831 1.523 . S
C1833 C1817 1.429 . S
C1833 C1829 1.429 . S
C1833 C1834 1.523 . S
C1834 C1818 1.368 . S
C1834 C1830 1.368 . S
C1834 C1833 1.523 . S
H1835 C1810 0.950 . S
H1836 C1812 0.950 . S
H1837 C1813 0.949 . S
H1838 C1815 0.950 . S
H1839 C1817 0.950 . S
C1840 C1841 1.349 . S
C1840 C1842 1.327 . S
C1840 H1865 0.950 . S
C1841 C1840 1.349 . S
C1841 C1857 1.349 . S
C1842 C1840 1.327 . S
C1842 C1861 1.429 . S
C1842 H1866 0.950 . S
C1843 C1860 1.574 . S
C1843 C1862 1.368 . S
C1843 H1867 0.949 . S
H1844 C1848 0.949 . S
C1845 C1846 1.349 . S
C1845 C1847 1.327 . S
C1845 H1868 0.950 . S
C1846 C1845 1.349 . S
C1846 C1858 1.349 . S
C1847 C1845 1.327 . S
C1847 C1863 1.429 . S
C1847 H1869 0.950 . S
C1848 H1844 0.949 . S
C1848 C1856 1.574 . S
C1848 C1864 1.368 . S
H1849 C1857 0.950 . S
H1850 C1855 0.950 . S
H1851 C1856 0.949 . S
H1852 C1858 0.950 . S
H1853 C1859 0.950 . S
H1854 C1860 0.949 . S
C1855 H1850 0.950 . S
C1855 C1857 1.327 . S
C1855 C1861 1.429 . S
C1856 C1848 1.574 . S
C1856 H1851 0.949 . S
C1856 C1862 1.368 . S
C1857 C1841 1.349 . S
C1857 H1849 0.950 . S
C1857 C1855 1.327 . S
C1858 C1846 1.349 . S
C1858 H1852 0.950 . S
C1858 C1859 1.327 . S
C1859 H1853 0.950 . S
C1859 C1858 1.327 . S
C1859 C1863 1.429 . S
C1860 C1843 1.574 . S
C1860 H1854 0.949 . S
C1860 C1864 1.368 . S
C1861 C1842 1.429 . S
C1861 C1855 1.429 . S
C1861 C1862 1.523 . S
C1862 C1843 1.368 . S
C1862 C1856 1.368 . S
C1862 C1861 1.523 . S
C1863 C1847 1.429 . S
C1863 C1859 1.429 . S
C1863 C1864 1.523 . S
C1864 C1848 1.368 . S
C1864 C1860 1.368 . S
C1864 C1863 1.523 . S
H1865 C1840 0.950 . S
H1866 C1842 0.950 . S
H1867 C1843 0.949 . S
H1868 C1845 0.950 . S
H1869 C1847 0.950 . S
C1870 C1871 1.349 . S
C1870 C1872 1.327 . S
C1870 H1895 0.950 . S
C1871 C1870 1.349 . S
C1871 C1887 1.349 . S
C1872 C1870 1.327 . S
C1872 C1891 1.429 . S
C1872 H1896 0.950 . S
C1873 C1890 1.574 . S
C1873 C1892 1.368 . S
C1873 H1897 0.949 . S
H1874 C1878 0.949 . S
C1875 C1876 1.349 . S
C1875 C1877 1.327 . S
C1875 H1898 0.950 . S
C1876 C1875 1.349 . S
C1876 C1888 1.349 . S
C1877 C1875 1.327 . S
C1877 C1893 1.429 . S
C1877 H1899 0.950 . S
C1878 H1874 0.949 . S
C1878 C1886 1.574 . S
C1878 C1894 1.368 . S
H1879 C1887 0.950 . S
H1880 C1885 0.950 . S
H1881 C1886 0.949 . S
H1882 C1888 0.950 . S
H1883 C1889 0.950 . S
H1884 C1890 0.949 . S
C1885 H1880 0.950 . S
C1885 C1887 1.327 . S
C1885 C1891 1.429 . S
C1886 C1878 1.574 . S
C1886 H1881 0.949 . S
C1886 C1892 1.368 . S
C1887 C1871 1.349 . S
C1887 H1879 0.950 . S
C1887 C1885 1.327 . S
C1888 C1876 1.349 . S
C1888 H1882 0.950 . S
C1888 C1889 1.327 . S
C1889 H1883 0.950 . S
C1889 C1888 1.327 . S
C1889 C1893 1.429 . S
C1890 C1873 1.574 . S
C1890 H1884 0.949 . S
C1890 C1894 1.368 . S
C1891 C1872 1.429 . S
C1891 C1885 1.429 . S
C1891 C1892 1.523 . S
C1892 C1873 1.368 . S
C1892 C1886 1.368 . S
C1892 C1891 1.523 . S
C1893 C1877 1.429 . S
C1893 C1889 1.429 . S
C1893 C1894 1.523 . S
C1894 C1878 1.368 . S
C1894 C1890 1.368 . S
C1894 C1893 1.523 . S
H1895 C1870 0.950 . S
H1896 C1872 0.950 . S
H1897 C1873 0.949 . S
H1898 C1875 0.950 . S
H1899 C1877 0.950 . S
C1900 C1901 1.349 . S
C1900 C1902 1.327 . S
C1900 H1925 0.950 . S
C1901 C1900 1.349 . S
C1901 C1917 1.349 . S
C1902 C1900 1.327 . S
C1902 C1921 1.429 . S
C1902 H1926 0.950 . S
C1903 C1920 1.574 . S
C1903 C1922 1.368 . S
C1903 H1927 0.949 . S
H1904 C1908 0.949 . S
C1905 C1906 1.349 . S
C1905 C1907 1.327 . S
C1905 H1928 0.950 . S
C1906 C1905 1.349 . S
C1906 C1918 1.349 . S
C1907 C1905 1.327 . S
C1907 C1923 1.429 . S
C1907 H1929 0.950 . S
C1908 H1904 0.949 . S
C1908 C1916 1.574 . S
C1908 C1924 1.368 . S
H1909 C1917 0.950 . S
H1910 C1915 0.950 . S
H1911 C1916 0.949 . S
H1912 C1918 0.950 . S
H1913 C1919 0.950 . S
H1914 C1920 0.949 . S
C1915 H1910 0.950 . S
C1915 C1917 1.327 . S
C1915 C1921 1.429 . S
C1916 C1908 1.574 . S
C1916 H1911 0.949 . S
C1916 C1922 1.368 . S
C1917 C1901 1.349 . S
C1917 H1909 0.950 . S
C1917 C1915 1.327 . S
C1918 C1906 1.349 . S
C1918 H1912 0.950 . S
C1918 C1919 1.327 . S
C1919 H1913 0.950 . S
C1919 C1918 1.327 . S
C1919 C1923 1.429 . S
C1920 C1903 1.574 . S
C1920 H1914 0.949 . S
C1920 C1924 1.368 . S
C1921 C1902 1.429 . S
C1921 C1915 1.429 . S
C1921 C1922 1.523 . S
C1922 C1903 1.368 . S
C1922 C1916 1.368 . S
C1922 C1921 1.523 . S
C1923 C1907 1.429 . S
C1923 C1919 1.429 . S
C1923 C1924 1.523 . S
C1924 C1908 1.368 . S
C1924 C1920 1.368 . S
C1924 C1923 1.523 . S
H1925 C1900 0.950 . S
H1926 C1902 0.950 . S
H1927 C1903 0.949 . S
H1928 C1905 0.950 . S
H1929 C1907 0.950 . S
C1930 C1931 1.349 . S
C1930 C1932 1.327 . S
C1930 H1955 0.950 . S
C1931 C1930 1.349 . S
C1931 C1947 1.349 . S
C1932 C1930 1.327 . S
C1932 C1951 1.429 . S
C1932 H1956 0.950 . S
C1933 C1950 1.574 . S
C1933 C1952 1.368 1_556 S
C1933 H1957 0.949 . S
H1934 C1938 0.949 . S
C1935 C1936 1.349 . S
C1935 C1937 1.327 . S
C1935 H1958 0.950 . S
C1936 C1935 1.349 . S
C1936 C1948 1.349 . S
C1937 C1935 1.327 . S
C1937 C1953 1.429 . S
C1937 H1959 0.950 . S
C1938 H1934 0.949 . S
C1938 C1946 1.574 . S
C1938 C1954 1.368 1_554 S
H1939 C1947 0.950 . S
H1940 C1945 0.950 . S
H1941 C1946 0.949 . S
H1942 C1948 0.950 . S
H1943 C1949 0.950 . S
H1944 C1950 0.949 . S
C1945 H1940 0.950 . S
C1945 C1947 1.327 . S
C1945 C1951 1.429 . S
C1946 C1938 1.574 . S
C1946 H1941 0.949 . S
C1946 C1952 1.368 1_655 S
C1947 C1931 1.349 . S
C1947 H1939 0.950 . S
C1947 C1945 1.327 . S
C1948 C1936 1.349 . S
C1948 H1942 0.950 . S
C1948 C1949 1.327 . S
C1949 H1943 0.950 . S
C1949 C1948 1.327 . S
C1949 C1953 1.429 . S
C1950 C1933 1.574 . S
C1950 H1944 0.949 . S
C1950 C1954 1.368 1_455 S
C1951 C1932 1.429 . S
C1951 C1945 1.429 . S
C1951 C1952 1.523 . S
C1952 C1933 1.368 1_554 S
C1952 C1946 1.368 1_455 S
C1952 C1951 1.523 . S
C1953 C1937 1.429 . S
C1953 C1949 1.429 . S
C1953 C1954 1.523 . S
C1954 C1938 1.368 1_556 S
C1954 C1950 1.368 1_655 S
C1954 C1953 1.523 . S
H1955 C1930 0.950 . S
H1956 C1932 0.950 . S
H1957 C1933 0.949 . S
H1958 C1935 0.950 . S
H1959 C1937 0.950 . S
C1960 C1961 1.349 . S
C1960 C1962 1.327 . S
C1960 H1985 0.950 . S
C1961 C1960 1.349 . S
C1961 C1977 1.349 . S
C1962 C1960 1.327 . S
C1962 C1981 1.429 . S
C1962 H1986 0.950 . S
C1963 C1980 1.574 . S
C1963 C1982 1.368 . S
C1963 H1987 0.949 . S
H1964 C1968 0.949 . S
C1965 C1966 1.349 . S
C1965 C1967 1.327 . S
C1965 H1988 0.950 . S
C1966 C1965 1.349 . S
C1966 C1978 1.349 . S
C1967 C1965 1.327 . S
C1967 C1983 1.429 . S
C1967 H1989 0.950 . S
C1968 H1964 0.949 . S
C1968 C1976 1.574 . S
C1968 C1984 1.368 . S
H1969 C1977 0.950 . S
H1970 C1975 0.950 . S
H1971 C1976 0.949 . S
H1972 C1978 0.950 . S
H1973 C1979 0.950 . S
H1974 C1980 0.949 . S
C1975 H1970 0.950 . S
C1975 C1977 1.327 . S
C1975 C1981 1.429 . S
C1976 C1968 1.574 . S
C1976 H1971 0.949 . S
C1976 C1982 1.368 . S
C1977 C1961 1.349 . S
C1977 H1969 0.950 . S
C1977 C1975 1.327 . S
C1978 C1966 1.349 . S
C1978 H1972 0.950 . S
C1978 C1979 1.327 . S
C1979 H1973 0.950 . S
C1979 C1978 1.327 . S
C1979 C1983 1.429 . S
C1980 C1963 1.574 . S
C1980 H1974 0.949 . S
C1980 C1984 1.368 . S
C1981 C1962 1.429 . S
C1981 C1975 1.429 . S
C1981 C1982 1.523 . S
C1982 C1963 1.368 . S
C1982 C1976 1.368 . S
C1982 C1981 1.523 . S
C1983 C1967 1.429 . S
C1983 C1979 1.429 . S
C1983 C1984 1.523 . S
C1984 C1968 1.368 . S
C1984 C1980 1.368 . S
C1984 C1983 1.523 . S
H1985 C1960 0.950 . S
H1986 C1962 0.950 . S
H1987 C1963 0.949 . S
H1988 C1965 0.950 . S
H1989 C1967 0.950 . S
C1990 C1991 1.349 . S
C1990 C1992 1.327 . S
C1990 H2015 0.950 . S
C1991 C1990 1.349 . S
C1991 C2007 1.349 . S
C1992 C1990 1.327 . S
C1992 C2011 1.429 . S
C1992 H2016 0.950 . S
C1993 C2010 1.574 . S
C1993 C2012 1.368 . S
C1993 H2017 0.949 . S
H1994 C1998 0.949 . S
C1995 C1996 1.349 . S
C1995 C1997 1.327 . S
C1995 H2018 0.950 . S
C1996 C1995 1.349 . S
C1996 C2008 1.349 . S
C1997 C1995 1.327 . S
C1997 C2013 1.429 . S
C1997 H2019 0.950 . S
C1998 H1994 0.949 . S
C1998 C2006 1.574 . S
C1998 C2014 1.368 . S
H1999 C2007 0.950 . S
H2000 C2005 0.950 . S
H2001 C2006 0.949 . S
H2002 C2008 0.950 . S
H2003 C2009 0.950 . S
H2004 C2010 0.949 . S
C2005 H2000 0.950 . S
C2005 C2007 1.327 . S
C2005 C2011 1.429 . S
C2006 C1998 1.574 . S
C2006 H2001 0.949 . S
C2006 C2012 1.368 . S
C2007 C1991 1.349 . S
C2007 H1999 0.950 . S
C2007 C2005 1.327 . S
C2008 C1996 1.349 . S
C2008 H2002 0.950 . S
C2008 C2009 1.327 . S
C2009 H2003 0.950 . S
C2009 C2008 1.327 . S
C2009 C2013 1.429 . S
C2010 C1993 1.574 . S
C2010 H2004 0.949 . S
C2010 C2014 1.368 . S
C2011 C1992 1.429 . S
C2011 C2005 1.429 . S
C2011 C2012 1.523 . S
C2012 C1993 1.368 . S
C2012 C2006 1.368 . S
C2012 C2011 1.523 . S
C2013 C1997 1.429 . S
C2013 C2009 1.429 . S
C2013 C2014 1.523 . S
C2014 C1998 1.368 . S
C2014 C2010 1.368 . S
C2014 C2013 1.523 . S
H2015 C1990 0.950 . S
H2016 C1992 0.950 . S
H2017 C1993 0.949 . S
H2018 C1995 0.950 . S
H2019 C1997 0.950 . S
C2020 C2021 1.349 . S
C2020 C2022 1.320 1_545 S
C2020 H2045 0.950 1_545 S
C2021 C2020 1.349 . S
C2021 C2037 1.349 . S
C2022 C2020 1.320 1_565 S
C2022 C2041 1.416 1_565 S
C2022 H2046 0.970 . S
C2023 C2040 1.544 1_456 S
C2023 C2042 1.396 . S
C2023 H2047 0.953 . S
H2024 C2028 0.953 . S
C2025 C2026 1.349 . S
C2025 C2027 1.320 1_565 S
C2025 H2048 0.950 1_565 S
C2026 C2025 1.349 . S
C2026 C2038 1.349 . S
C2027 C2025 1.320 1_545 S
C2027 C2043 1.416 1_545 S
C2027 H2049 0.970 . S
C2028 H2024 0.953 . S
C2028 C2036 1.544 1_654 S
C2028 C2044 1.396 . S
H2029 C2037 0.950 . S
H2030 C2035 0.950 . S
H2031 C2036 0.949 . S
H2032 C2038 0.950 . S
H2033 C2039 0.950 . S
H2034 C2040 0.949 . S
C2035 H2030 0.950 . S
C2035 C2037 1.327 . S
C2035 C2041 1.429 . S
C2036 C2028 1.544 1_456 S
C2036 H2031 0.949 . S
C2036 C2042 1.368 1_565 S
C2037 C2021 1.349 . S
C2037 H2029 0.950 . S
C2037 C2035 1.327 . S
C2038 C2026 1.349 . S
C2038 H2032 0.950 . S
C2038 C2039 1.327 . S
C2039 H2033 0.950 . S
C2039 C2038 1.327 . S
C2039 C2043 1.429 . S
C2040 C2023 1.544 1_654 S
C2040 H2034 0.949 . S
C2040 C2044 1.368 1_545 S
C2041 C2022 1.416 1_545 S
C2041 C2035 1.429 . S
C2041 C2042 1.523 . S
C2042 C2023 1.396 . S
C2042 C2036 1.368 1_545 S
C2042 C2041 1.523 . S
C2043 C2027 1.416 1_565 S
C2043 C2039 1.429 . S
C2043 C2044 1.523 . S
C2044 C2028 1.396 . S
C2044 C2040 1.368 1_565 S
C2044 C2043 1.523 . S
H2045 C2020 0.950 1_565 S
H2046 C2022 0.970 . S
H2047 C2023 0.953 . S
H2048 C2025 0.950 1_545 S
H2049 C2027 0.970 . S
C2050 C2051 1.349 . S
C2050 C2052 1.314 1_545 S
C2050 H2075 0.950 1_545 S
C2051 C2050 1.349 . S
C2051 C2067 1.349 . S
C2052 C2050 1.314 1_565 S
C2052 C2071 1.401 1_565 S
C2052 H2076 0.993 . S
C2053 C2070 1.574 . S
C2053 C2072 1.368 . S
C2053 H2077 0.949 . S
H2054 C2058 0.949 . S
C2055 C2056 1.349 . S
C2055 C2057 1.314 1_565 S
C2055 H2078 0.950 1_565 S
C2056 C2055 1.349 . S
C2056 C2068 1.349 . S
C2057 C2055 1.314 1_545 S
C2057 C2073 1.401 1_545 S
C2057 H2079 0.993 . S
C2058 H2054 0.949 . S
C2058 C2066 1.574 . S
C2058 C2074 1.368 . S
H2059 C2067 0.950 . S
H2060 C2065 0.950 . S
H2061 C2066 0.949 . S
H2062 C2068 0.950 . S
H2063 C2069 0.950 . S
H2064 C2070 0.949 . S
C2065 H2060 0.950 . S
C2065 C2067 1.327 . S
C2065 C2071 1.429 . S
C2066 C2058 1.574 . S
C2066 H2061 0.949 . S
C2066 C2072 1.368 1_565 S
C2067 C2051 1.349 . S
C2067 H2059 0.950 . S
C2067 C2065 1.327 . S
C2068 C2056 1.349 . S
C2068 H2062 0.950 . S
C2068 C2069 1.327 . S
C2069 H2063 0.950 . S
C2069 C2068 1.327 . S
C2069 C2073 1.429 . S
C2070 C2053 1.574 . S
C2070 H2064 0.949 . S
C2070 C2074 1.368 1_545 S
C2071 C2052 1.401 1_545 S
C2071 C2065 1.429 . S
C2071 C2072 1.523 . S
C2072 C2053 1.368 . S
C2072 C2066 1.368 1_545 S
C2072 C2071 1.523 . S
C2073 C2057 1.401 1_565 S
C2073 C2069 1.429 . S
C2073 C2074 1.523 . S
C2074 C2058 1.368 . S
C2074 C2070 1.368 1_565 S
C2074 C2073 1.523 . S
H2075 C2050 0.950 1_565 S
H2076 C2052 0.993 . S
H2077 C2053 0.949 . S
H2078 C2055 0.950 1_545 S
H2079 C2057 0.993 . S
C641 C19 2.948 . S
C646 C419 2.948 . S
C671 C59 2.948 . S
C676 C459 2.948 . S
C701 C99 2.948 . S
C706 C339 2.948 . S
C731 C139 2.948 . S
C736 C379 2.948 . S
C761 C169 2.948 . S
C766 C569 2.948 . S
C791 C209 2.948 . S
C796 C609 2.948 . S
C821 C249 2.948 . S
C826 C489 2.948 . S
C851 C289 2.948 . S
C856 C529 2.948 . S
C881 C378 3.705 . S
C886 C9 3.719 1_556 S
C911 C418 3.705 . S
C916 C49 3.719 . S
C941 C458 3.705 . S
C946 C89 3.719 . S
C971 C338 3.705 . S
C976 C129 3.719 . S
C1001 C179 3.719 1_554 S
C1006 C528 3.705 . S
C1031 C568 3.705 . S
C1036 C219 3.719 . S
C1061 C608 3.705 . S
C1066 C259 3.719 . S
C1091 C488 3.705 . S
C1096 C299 3.719 . S
C1121 C58 3.705 . S
C1126 C329 3.719 . S
C1151 C369 3.719 . S
C1156 C98 3.705 . S
C1181 C409 3.719 1_556 S
C1186 C138 3.705 . S
C1211 C449 3.719 . S
C1216 C18 3.705 . S
C1241 C499 3.719 . S
C1246 C208 3.705 . S
C1271 C248 3.705 . S
C1276 C539 3.719 . S
C1301 C288 3.705 . S
C1306 C579 3.719 1_554 S
C1331 C619 3.719 . S
C1336 C168 3.705 . S
C1361 C15 0.269 . S
C1366 C618 0.221 . S
C1391 C55 0.269 . S
C1396 C178 0.221 . S
C1421 C538 0.221 . S
C1426 C95 0.269 . S
C1451 C258 0.221 . S
C1456 C135 0.269 . S
C1481 C165 0.269 . S
C1486 C448 0.221 . S
C1511 C205 0.269 . S
C1516 C8 0.221 . S
C1541 C368 0.221 . S
C1546 C245 0.269 . S
C1571 C88 0.221 . S
C1576 C285 0.269 . S
C1601 C335 0.269 . S
C1606 C298 0.221 . S
C1631 C375 0.269 . S
C1636 C498 0.221 . S
C1661 C218 0.221 . S
C1666 C415 0.269 . S
C1691 C578 0.221 . S
C1696 C455 0.269 . S
C1721 C485 0.269 . S
C1726 C128 0.221 . S
C1751 C525 0.269 . S
C1756 C328 0.221 . S
C1781 C565 0.269 . S
C1786 C48 0.221 . S
C1811 C408 0.221 . S
C1816 C605 0.269 . S
C1841 C5 1.324 . S
C1846 C495 1.324 . S
C1871 C45 1.324 . S
C1876 C215 1.324 . S
C1901 C85 1.324 . S
C1906 C575 1.324 . S
C1931 C295 1.324 . S
C1936 C125 1.324 . S
C1961 C175 1.324 . S
C1966 C325 1.324 . S
C1991 C405 1.324 . S
C1996 C255 1.324 . S
C2021 C365 1.324 . S
C2026 C535 1.324 . S
C2051 C615 1.324 . S
C2056 C445 1.324 . S
