# Generated by pormake.
# Topology soh, (5)-cn, num edge types: 1
# Building blocks:
#     Node 0, Type 0, BuildingBlock: BEQFEK_clean_sbu_0, # of connection points: 5
#     Node 1, Type 0, BuildingBlock: BEQFEK_clean_sbu_0, # of connection points: 5
#     Node 2, Type 0, BuildingBlock: BEQFEK_clean_sbu_0, # of connection points: 5
#     Node 3, Type 0, BuildingBlock: BEQFEK_clean_sbu_0, # of connection points: 5
#     Node 4, Type 0, BuildingBlock: BEQFEK_clean_sbu_0, # of connection points: 5
#     Node 5, Type 0, BuildingBlock: BEQFEK_clean_sbu_0, # of connection points: 5
#     Node 6, Type 0, BuildingBlock: BEQFEK_clean_sbu_0, # of connection points: 5
#     Node 7, Type 0, BuildingBlock: BEQFEK_clean_sbu_0, # of connection points: 5
#     Node 8, Type 0, BuildingBlock: BEQFEK_clean_sbu_0, # of connection points: 5
#     Node 9, Type 0, BuildingBlock: BEQFEK_clean_sbu_0, # of connection points: 5
#     Node 10, Type 0, BuildingBlock: BEQFEK_clean_sbu_0, # of connection points: 5
#     Node 11, Type 0, BuildingBlock: BEQFEK_clean_sbu_0, # of connection points: 5
#     Node 12, Type 0, BuildingBlock: BEQFEK_clean_sbu_0, # of connection points: 5
#     Node 13, Type 0, BuildingBlock: BEQFEK_clean_sbu_0, # of connection points: 5
#     Node 14, Type 0, BuildingBlock: BEQFEK_clean_sbu_0, # of connection points: 5
#     Node 15, Type 0, BuildingBlock: BEQFEK_clean_sbu_0, # of connection points: 5
#     Node 16, Type 0, BuildingBlock: BEQFEK_clean_sbu_0, # of connection points: 5
#     Node 17, Type 0, BuildingBlock: BEQFEK_clean_sbu_0, # of connection points: 5
#     Node 18, Type 0, BuildingBlock: BEQFEK_clean_sbu_0, # of connection points: 5
#     Node 19, Type 0, BuildingBlock: BEQFEK_clean_sbu_0, # of connection points: 5
#     Node 20, Type 0, BuildingBlock: BEQFEK_clean_sbu_0, # of connection points: 5
#     Node 21, Type 0, BuildingBlock: BEQFEK_clean_sbu_0, # of connection points: 5
#     Node 22, Type 0, BuildingBlock: BEQFEK_clean_sbu_0, # of connection points: 5
#     Node 23, Type 0, BuildingBlock: BEQFEK_clean_sbu_0, # of connection points: 5
#     Node 24, Type 0, BuildingBlock: BEQFEK_clean_sbu_0, # of connection points: 5
#     Node 25, Type 0, BuildingBlock: BEQFEK_clean_sbu_0, # of connection points: 5
#     Node 26, Type 0, BuildingBlock: BEQFEK_clean_sbu_0, # of connection points: 5
#     Node 27, Type 0, BuildingBlock: BEQFEK_clean_sbu_0, # of connection points: 5
#     Node 28, Type 0, BuildingBlock: BEQFEK_clean_sbu_0, # of connection points: 5
#     Node 29, Type 0, BuildingBlock: BEQFEK_clean_sbu_0, # of connection points: 5
#     Node 30, Type 0, BuildingBlock: BEQFEK_clean_sbu_0, # of connection points: 5
#     Node 31, Type 0, BuildingBlock: BEQFEK_clean_sbu_0, # of connection points: 5
#     Edge 32, Type (0, 0), BuildingBlock: EZIPEK_clean_linker_0, # of connection points: 2
#     Edge 33, Type (0, 0), BuildingBlock: EZIPEK_clean_linker_0, # of connection points: 2
#     Edge 34, Type (0, 0), BuildingBlock: EZIPEK_clean_linker_0, # of connection points: 2
#     Edge 35, Type (0, 0), BuildingBlock: EZIPEK_clean_linker_0, # of connection points: 2
#     Edge 36, Type (0, 0), BuildingBlock: EZIPEK_clean_linker_0, # of connection points: 2
#     Edge 37, Type (0, 0), BuildingBlock: EZIPEK_clean_linker_0, # of connection points: 2
#     Edge 38, Type (0, 0), BuildingBlock: EZIPEK_clean_linker_0, # of connection points: 2
#     Edge 39, Type (0, 0), BuildingBlock: EZIPEK_clean_linker_0, # of connection points: 2
#     Edge 40, Type (0, 0), BuildingBlock: EZIPEK_clean_linker_0, # of connection points: 2
#     Edge 41, Type (0, 0), BuildingBlock: EZIPEK_clean_linker_0, # of connection points: 2
#     Edge 42, Type (0, 0), BuildingBlock: EZIPEK_clean_linker_0, # of connection points: 2
#     Edge 43, Type (0, 0), BuildingBlock: EZIPEK_clean_linker_0, # of connection points: 2
#     Edge 44, Type (0, 0), BuildingBlock: EZIPEK_clean_linker_0, # of connection points: 2
#     Edge 45, Type (0, 0), BuildingBlock: EZIPEK_clean_linker_0, # of connection points: 2
#     Edge 46, Type (0, 0), BuildingBlock: EZIPEK_clean_linker_0, # of connection points: 2
#     Edge 47, Type (0, 0), BuildingBlock: EZIPEK_clean_linker_0, # of connection points: 2
#     Edge 48, Type (0, 0), BuildingBlock: EZIPEK_clean_linker_0, # of connection points: 2
#     Edge 49, Type (0, 0), BuildingBlock: EZIPEK_clean_linker_0, # of connection points: 2
#     Edge 50, Type (0, 0), BuildingBlock: EZIPEK_clean_linker_0, # of connection points: 2
#     Edge 51, Type (0, 0), BuildingBlock: EZIPEK_clean_linker_0, # of connection points: 2
#     Edge 52, Type (0, 0), BuildingBlock: EZIPEK_clean_linker_0, # of connection points: 2
#     Edge 53, Type (0, 0), BuildingBlock: EZIPEK_clean_linker_0, # of connection points: 2
#     Edge 54, Type (0, 0), BuildingBlock: EZIPEK_clean_linker_0, # of connection points: 2
#     Edge 55, Type (0, 0), BuildingBlock: EZIPEK_clean_linker_0, # of connection points: 2
#     Edge 56, Type (0, 0), BuildingBlock: EZIPEK_clean_linker_0, # of connection points: 2
#     Edge 57, Type (0, 0), BuildingBlock: EZIPEK_clean_linker_0, # of connection points: 2
#     Edge 58, Type (0, 0), BuildingBlock: EZIPEK_clean_linker_0, # of connection points: 2
#     Edge 59, Type (0, 0), BuildingBlock: EZIPEK_clean_linker_0, # of connection points: 2
#     Edge 60, Type (0, 0), BuildingBlock: EZIPEK_clean_linker_0, # of connection points: 2
#     Edge 61, Type (0, 0), BuildingBlock: EZIPEK_clean_linker_0, # of connection points: 2
#     Edge 62, Type (0, 0), BuildingBlock: EZIPEK_clean_linker_0, # of connection points: 2
#     Edge 63, Type (0, 0), BuildingBlock: EZIPEK_clean_linker_0, # of connection points: 2
#     Edge 64, Type (0, 0), BuildingBlock: EZIPEK_clean_linker_0, # of connection points: 2
#     Edge 65, Type (0, 0), BuildingBlock: EZIPEK_clean_linker_0, # of connection points: 2
#     Edge 66, Type (0, 0), BuildingBlock: EZIPEK_clean_linker_0, # of connection points: 2
#     Edge 67, Type (0, 0), BuildingBlock: EZIPEK_clean_linker_0, # of connection points: 2
#     Edge 68, Type (0, 0), BuildingBlock: EZIPEK_clean_linker_0, # of connection points: 2
#     Edge 69, Type (0, 0), BuildingBlock: EZIPEK_clean_linker_0, # of connection points: 2
#     Edge 70, Type (0, 0), BuildingBlock: EZIPEK_clean_linker_0, # of connection points: 2
#     Edge 71, Type (0, 0), BuildingBlock: EZIPEK_clean_linker_0, # of connection points: 2
#     Edge 72, Type (0, 0), BuildingBlock: EZIPEK_clean_linker_0, # of connection points: 2
#     Edge 73, Type (0, 0), BuildingBlock: EZIPEK_clean_linker_0, # of connection points: 2
#     Edge 74, Type (0, 0), BuildingBlock: EZIPEK_clean_linker_0, # of connection points: 2
#     Edge 75, Type (0, 0), BuildingBlock: EZIPEK_clean_linker_0, # of connection points: 2
#     Edge 76, Type (0, 0), BuildingBlock: EZIPEK_clean_linker_0, # of connection points: 2
#     Edge 77, Type (0, 0), BuildingBlock: EZIPEK_clean_linker_0, # of connection points: 2
#     Edge 78, Type (0, 0), BuildingBlock: EZIPEK_clean_linker_0, # of connection points: 2
#     Edge 79, Type (0, 0), BuildingBlock: EZIPEK_clean_linker_0, # of connection points: 2
#     Edge 80, Type (0, 0), BuildingBlock: EZIPEK_clean_linker_0, # of connection points: 2
#     Edge 81, Type (0, 0), BuildingBlock: EZIPEK_clean_linker_0, # of connection points: 2
#     Edge 82, Type (0, 0), BuildingBlock: EZIPEK_clean_linker_0, # of connection points: 2
#     Edge 83, Type (0, 0), BuildingBlock: EZIPEK_clean_linker_0, # of connection points: 2
#     Edge 84, Type (0, 0), BuildingBlock: EZIPEK_clean_linker_0, # of connection points: 2
#     Edge 85, Type (0, 0), BuildingBlock: EZIPEK_clean_linker_0, # of connection points: 2
#     Edge 86, Type (0, 0), BuildingBlock: EZIPEK_clean_linker_0, # of connection points: 2
#     Edge 87, Type (0, 0), BuildingBlock: EZIPEK_clean_linker_0, # of connection points: 2
#     Edge 88, Type (0, 0), BuildingBlock: EZIPEK_clean_linker_0, # of connection points: 2
#     Edge 89, Type (0, 0), BuildingBlock: EZIPEK_clean_linker_0, # of connection points: 2
#     Edge 90, Type (0, 0), BuildingBlock: EZIPEK_clean_linker_0, # of connection points: 2
#     Edge 91, Type (0, 0), BuildingBlock: EZIPEK_clean_linker_0, # of connection points: 2
#     Edge 92, Type (0, 0), BuildingBlock: EZIPEK_clean_linker_0, # of connection points: 2
#     Edge 93, Type (0, 0), BuildingBlock: EZIPEK_clean_linker_0, # of connection points: 2
#     Edge 94, Type (0, 0), BuildingBlock: EZIPEK_clean_linker_0, # of connection points: 2
#     Edge 95, Type (0, 0), BuildingBlock: EZIPEK_clean_linker_0, # of connection points: 2
#     Edge 96, Type (0, 0), BuildingBlock: EZIPEK_clean_linker_0, # of connection points: 2
#     Edge 97, Type (0, 0), BuildingBlock: EZIPEK_clean_linker_0, # of connection points: 2
#     Edge 98, Type (0, 0), BuildingBlock: EZIPEK_clean_linker_0, # of connection points: 2
#     Edge 99, Type (0, 0), BuildingBlock: EZIPEK_clean_linker_0, # of connection points: 2
#     Edge 100, Type (0, 0), BuildingBlock: EZIPEK_clean_linker_0, # of connection points: 2
#     Edge 101, Type (0, 0), BuildingBlock: EZIPEK_clean_linker_0, # of connection points: 2
#     Edge 102, Type (0, 0), BuildingBlock: EZIPEK_clean_linker_0, # of connection points: 2
#     Edge 103, Type (0, 0), BuildingBlock: EZIPEK_clean_linker_0, # of connection points: 2
#     Edge 104, Type (0, 0), BuildingBlock: EZIPEK_clean_linker_0, # of connection points: 2
#     Edge 105, Type (0, 0), BuildingBlock: EZIPEK_clean_linker_0, # of connection points: 2
#     Edge 106, Type (0, 0), BuildingBlock: EZIPEK_clean_linker_0, # of connection points: 2
#     Edge 107, Type (0, 0), BuildingBlock: EZIPEK_clean_linker_0, # of connection points: 2
#     Edge 108, Type (0, 0), BuildingBlock: EZIPEK_clean_linker_0, # of connection points: 2
#     Edge 109, Type (0, 0), BuildingBlock: EZIPEK_clean_linker_0, # of connection points: 2
#     Edge 110, Type (0, 0), BuildingBlock: EZIPEK_clean_linker_0, # of connection points: 2
#     Edge 111, Type (0, 0), BuildingBlock: EZIPEK_clean_linker_0, # of connection points: 2
# Relax obj value: 0.493
# Max RMSD: 0.193
# Mean RMSD: 0.193
data_MOF--net-soh--node1-BEQFEK_clean_sbu_0--edge1-EZIPEK_clean_linker_0
_symmetry_space_group_name_H-M    P1
_symmetry_Int_Tables_number       1
_symmetry_cell_setting            triclinic
loop_
_symmetry_equiv_pos_as_xyz
'x, y, z'
_cell_length_a     56.751949
_cell_length_b     30.934321
_cell_length_c     37.034794
_cell_angle_alpha  90.007774
_cell_angle_beta   90.055731
_cell_angle_gamma 90.006421
loop_
_atom_site_label
_atom_site_type_symbol
_atom_site_fract_x
_atom_site_fract_y
_atom_site_fract_z
_atom_type_partial_charge
Co0 Co 0.30303 0.31965 0.18641 0.0
Co1 Co 0.28557 0.39123 0.23567 0.0
C2 C 0.33849 0.37877 0.22005 0.0
O3 O 0.33383 0.34621 0.20022 0.0
O4 O 0.3218 0.39941 0.23575 0.0
C5 C 0.32955 0.24691 0.15959 0.0
O6 O 0.34719 0.26533 0.17667 0.0
C7 C 0.28028 0.42281 0.30815 0.0
C8 C 0.24749 0.46106 0.30611 0.0
C9 C 0.26367 0.44281 0.32971 0.0
N10 N 0.27376 0.42708 0.2735 0.0
N11 N 0.25446 0.45101 0.27228 0.0
C12 C 0.30078 0.39617 0.32058 0.0
H13 H 0.30517 0.37102 0.30037 0.0
H14 H 0.29721 0.3809 0.34713 0.0
H15 H 0.31629 0.41768 0.32377 0.0
C16 C 0.28401 0.2619 0.24818 0.0
N17 N 0.28647 0.30043 0.23035 0.0
N18 N 0.27667 0.33098 0.24975 0.0
C19 C 0.26646 0.31187 0.27926 0.0
C20 C 0.27126 0.26745 0.28037 0.0
C21 C 0.29438 0.2203 0.2355 0.0
H22 H 0.31336 0.22487 0.22961 0.0
H23 H 0.2922 0.19426 0.25585 0.0
H24 H 0.28535 0.21062 0.21025 0.0
O25 O 0.28628 0.36251 0.1503 0.0
O26 O 0.27335 0.41457 0.18591 0.0
H27 H 0.23621 0.31291 0.31366 0.0
H28 H 0.26128 0.34121 0.33046 0.0
C29 C 0.25103 0.33431 0.30569 0.0
H30 H 0.24381 0.36429 0.29375 0.0
H31 H 0.24511 0.45776 0.24868 0.0
O32 O 0.30978 0.26613 0.15967 0.0
C33 C 0.27615 0.39945 0.1539 0.0
Co34 Co 0.96931 1.00298 0.18724 0.0
Co35 Co 0.98845 0.93244 0.23675 0.0
C36 C 0.93592 0.94019 0.22386 0.0
O37 O 0.94 0.97207 0.20308 0.0
O38 O 0.95293 0.92117 0.23993 0.0
C39 C 0.93572 0.06479 0.15897 0.0
O40 O 0.91956 0.03536 0.16505 0.0
C41 C 0.99567 0.899 0.30797 0.0
C42 C 0.0298 0.86502 0.30457 0.0
C43 C 0.01308 0.88017 0.32878 0.0
N44 N 1.00219 0.89714 0.27322 0.0
N45 N 0.02232 0.87576 0.27113 0.0
C46 C 0.97427 0.92253 0.32122 0.0
H47 H 0.97004 0.95004 0.30317 0.0
H48 H 0.97669 0.93437 0.34927 0.0
H49 H 0.95909 0.89993 0.32092 0.0
C50 C 0.99091 0.06286 0.24648 0.0
N51 N 0.98721 1.02376 0.22986 0.0
N52 N 0.99658 0.99334 0.25007 0.0
C53 C 1.00707 1.01281 0.27921 0.0
C54 C 1.00325 0.05746 0.27899 0.0
C55 C 0.9827 0.1056 0.2326 0.0
H56 H 0.97824 0.10416 0.20362 0.0
H57 H 0.9672 0.11606 0.24851 0.0
H58 H 0.99663 0.1303 0.2368 0.0
O59 O 0.98641 0.96203 0.15002 0.0
O60 O 0.99898 0.9099 0.18603 0.0
H61 H 0.03608 1.01229 0.31637 0.0
H62 H 1.01097 0.98181 0.33016 0.0
C63 C 0.02194 0.99043 0.30653 0.0
H64 H 0.03014 0.96141 0.29449 0.0
H65 H 0.03176 0.87121 0.24726 0.0
O66 O 0.95744 0.05583 0.16318 0.0
C67 C 0.9962 0.92476 0.1539 0.0
Co68 Co 0.3028 0.9904 0.12784 0.0
Co69 Co 0.28229 0.92236 0.07763 0.0
C70 C 0.33617 0.93226 0.09158 0.0
O71 O 0.33281 0.96308 0.11371 0.0
O72 O 0.31861 0.91456 0.0755 0.0
C73 C 0.32968 0.06209 0.15598 0.0
O74 O 0.34734 0.04376 0.13894 0.0
C75 C 0.27887 0.89302 1.0039 0.0
C76 C 0.24044 0.88541 0.99917 0.0
C77 C 0.26064 0.89191 0.97865 0.0
N78 N 0.26957 0.89099 0.03735 0.0
N79 N 0.24672 0.88403 0.03421 0.0
C80 C 0.30473 0.89754 0.99659 0.0
H81 H 0.31115 0.92914 1.0068 0.0
H82 H 0.30864 0.89465 0.96733 0.0
H83 H 0.31441 0.87197 1.01149 0.0
C84 C 0.28592 0.04968 0.06549 0.0
N85 N 0.28657 1.01158 0.08421 0.0
N86 N 0.27342 0.98332 0.06728 0.0
C87 C 0.26217 1.00404 0.03946 0.0
C88 C 0.27054 0.04658 0.0358 0.0
C89 C 0.29996 0.08867 0.07545 0.0
H90 H 0.29171 0.10391 0.09933 0.0
H91 H 0.31819 0.07904 0.08261 0.0
H92 H 0.30034 0.11263 0.05316 0.0
O93 O 0.28587 0.94692 0.16289 0.0
O94 O 0.27091 0.89678 0.12701 0.0
H95 H 0.22733 1.0139 1.01801 0.0
H96 H 0.24416 0.97541 0.99407 0.0
C97 C 0.24032 0.98749 1.02145 0.0
H98 H 0.23202 0.96205 0.0381 0.0
H99 H 0.23501 0.884 0.05591 0.0
O100 O 0.30989 0.04296 0.15556 0.0
C101 C 0.27489 0.91084 0.15911 0.0
Co102 Co 0.96742 0.31139 0.12827 0.0
Co103 Co 0.98695 0.3826 0.0796 0.0
C104 C 0.93417 0.37422 0.09164 0.0
O105 O 0.93817 0.34201 0.1121 0.0
O106 O 0.95127 0.39378 0.07626 0.0
C107 C 0.93418 0.24757 0.15408 0.0
O108 O 0.91776 0.2764 0.14758 0.0
C109 C 0.99453 0.41629 1.00843 0.0
C110 C 0.02865 0.45023 1.01245 0.0
C111 C 0.01208 0.43514 0.98793 0.0
N112 N 1.00083 0.41811 0.04332 0.0
N113 N 0.02097 0.43945 0.04576 0.0
C114 C 0.97319 0.39286 0.99478 0.0
H115 H 0.9687 0.36554 1.01287 0.0
H116 H 0.97585 0.38082 0.96685 0.0
H117 H 0.95809 0.41563 0.99456 0.0
C118 C 0.98895 0.25247 0.06917 0.0
N119 N 0.9855 0.29149 0.08588 0.0
N120 N 0.99512 0.32188 0.066 0.0
C121 C 1.00567 0.30239 0.03696 0.0
C122 C 1.00155 0.25778 0.0369 0.0
C123 C 0.9797 0.21032 0.08269 0.0
H124 H 0.98053 0.20901 0.11254 0.0
H125 H 0.96117 0.20698 0.07389 0.0
H126 H 0.98985 0.1829 0.07121 0.0
O127 O 0.98419 0.35224 0.1661 0.0
O128 O 0.99758 0.40434 0.13068 0.0
H129 H 0.03491 0.30278 1.00034 0.0
H130 H 1.00993 0.3334 0.98611 0.0
C131 C 0.02074 0.3247 1.00992 0.0
H132 H 0.0289 0.35369 1.02214 0.0
H133 H 0.03027 0.44396 0.06979 0.0
O134 O 0.95585 0.25757 0.15126 0.0
C135 C 0.99437 0.38925 0.16265 0.0
Co136 Co 0.71919 0.75359 0.87724 0.0
Co137 Co 0.73919 0.6831 0.82828 0.0
C138 C 0.68601 0.69139 0.84197 0.0
O139 O 0.68978 0.72345 0.86258 0.0
O140 O 0.70323 0.67257 0.82623 0.0
C141 C 0.68636 0.81554 0.90751 0.0
O142 O 0.67009 0.78604 0.90241 0.0
C143 C 0.74303 0.65083 0.75592 0.0
C144 C 0.78133 0.6407 0.75185 0.0
C145 C 0.76124 0.64743 0.7311 0.0
N146 N 0.75221 0.65008 0.78945 0.0
N147 N 0.77495 0.64173 0.78686 0.0
C148 C 0.71738 0.65699 0.74801 0.0
H149 H 0.70701 0.63261 0.76317 0.0
H150 H 0.7118 0.68938 0.75745 0.0
H151 H 0.71357 0.6536 0.71875 0.0
C152 C 0.73907 0.81227 0.81569 0.0
N153 N 0.73636 0.774 0.83389 0.0
N154 N 0.74814 0.74402 0.81649 0.0
C155 C 0.76021 0.76335 0.78876 0.0
C156 C 0.75375 0.80701 0.78559 0.0
C157 C 0.7283 0.85435 0.8263 0.0
H158 H 0.72319 0.85444 0.85501 0.0
H159 H 0.71271 0.86029 0.80896 0.0
H160 H 0.74092 0.88113 0.82132 0.0
O161 O 0.73677 0.71165 0.91383 0.0
O162 O 0.75008 0.65958 0.87826 0.0
H163 H 0.78982 0.72015 0.78983 0.0
H164 H 0.7953 0.77056 0.76752 0.0
C165 C 0.78198 0.74487 0.77189 0.0
H166 H 0.77828 0.73095 0.74512 0.0
H167 H 0.78659 0.64207 0.8087 0.0
O168 O 0.70796 0.80671 0.90186 0.0
C169 C 0.74693 0.67456 0.91027 0.0
Co170 Co 0.05384 0.05855 0.88047 0.0
Co171 Co 0.0333 0.12859 0.83272 0.0
C172 C 0.08686 0.12008 0.84573 0.0
O173 O 0.08357 0.08752 0.86592 0.0
O174 O 0.06928 0.1392 0.83123 0.0
C175 C 0.08581 0.99729 0.91294 0.0
O176 O 0.10171 1.02804 0.91137 0.0
C177 C 0.03113 0.15959 0.76052 0.0
C178 C 0.99331 0.17403 0.75393 0.0
C179 C 0.01385 0.16586 0.73484 0.0
N180 N 0.02107 0.16088 0.79334 0.0
N181 N 0.99862 0.17118 0.78935 0.0
C182 C 0.05637 0.1482 0.75375 0.0
H183 H 0.05998 0.11557 0.76484 0.0
H184 H 0.06065 0.14866 0.72452 0.0
H185 H 0.0679 0.17177 0.76781 0.0
C186 C 0.03433 1.00067 0.81782 0.0
N187 N 0.03666 0.03834 0.83698 0.0
N188 N 0.0242 0.06823 0.82075 0.0
C189 C 0.01194 0.04946 0.79297 0.0
C190 C 0.01889 1.00616 0.78845 0.0
C191 C 0.04685 0.95953 0.82646 0.0
H192 H 0.04997 0.95665 0.85583 0.0
H193 H 0.06395 0.95935 0.81207 0.0
H194 H 0.03651 0.93126 0.81692 0.0
O195 O 0.03647 0.10097 0.9172 0.0
O196 O 0.02201 0.15234 0.88196 0.0
H197 H 0.98219 0.09229 0.79594 0.0
H198 H 0.97665 0.04256 0.77225 0.0
C199 C 0.98988 0.06828 0.77715 0.0
H200 H 0.99321 0.08372 0.75089 0.0
H201 H 0.98642 0.17177 0.81042 0.0
O202 O 0.06446 1.00522 0.90484 0.0
C203 C 0.02577 0.13759 0.91386 0.0
Co204 Co 0.71936 0.06163 0.94139 0.0
Co205 Co 0.73907 0.13439 0.98893 0.0
C206 C 0.68636 0.12547 0.97747 0.0
O207 O 0.69048 0.09246 0.95799 0.0
O208 O 0.7034 0.14602 0.99223 0.0
C209 C 0.68547 0.99784 0.91624 0.0
O210 O 0.66936 1.02727 0.92267 0.0
C211 C 0.74857 0.17939 0.05664 0.0
C212 C 0.78589 0.19756 0.05019 0.0
C213 C 0.76822 0.19324 0.07577 0.0
N214 N 0.75486 0.17218 1.02221 0.0
N215 N 0.77695 0.18485 1.01816 0.0
C216 C 0.72462 0.16947 0.07157 0.0
H217 H 0.7167 0.14184 0.05701 0.0
H218 H 0.72532 0.16212 0.10087 0.0
H219 H 0.71306 0.19799 0.0675 0.0
C220 C 0.74016 1.00442 1.00102 0.0
N221 N 0.73817 0.04312 0.98348 0.0
N222 N 0.74733 0.07348 1.00361 0.0
C223 C 0.75669 0.05415 0.03369 0.0
C224 C 0.75447 1.00828 1.0326 0.0
C225 C 0.72199 0.97036 0.99443 0.0
H226 H 0.70572 0.98651 0.98531 0.0
H227 H 0.71737 0.95252 1.01935 0.0
H228 H 0.72778 0.94814 0.97266 0.0
O229 O 0.73569 0.10144 0.90242 0.0
O230 O 0.74914 0.15407 0.93716 0.0
H231 H 0.77591 0.10372 0.05948 0.0
H232 H 0.76785 0.06067 0.0903 0.0
C233 C 0.76235 0.07969 0.06665 0.0
H234 H 0.7462 0.09598 0.07559 0.0
H235 H 0.78653 0.18129 0.99432 0.0
O236 O 0.70728 1.00714 0.9191 0.0
C237 C 0.74588 0.13847 0.90541 0.0
Co238 Co 0.05338 0.75346 0.93669 0.0
Co239 Co 0.03484 0.68169 0.98556 0.0
C240 C 0.08719 0.69119 0.97202 0.0
O241 O 0.08284 0.72334 0.95179 0.0
O242 O 0.07046 0.67109 0.98778 0.0
C243 C 0.08656 0.81558 0.90823 0.0
O244 O 0.10265 0.7855 0.91218 0.0
C245 C 0.02819 0.64715 0.05654 0.0
C246 C 0.99443 0.61198 0.05278 0.0
C247 C 1.01094 0.62757 0.07717 0.0
N248 N 0.02169 0.64538 1.02176 0.0
N249 N 1.00181 0.62323 1.01944 0.0
C250 C 0.04942 0.67117 0.06997 0.0
H251 H 0.05376 0.69843 0.05172 0.0
H252 H 0.04675 0.68333 0.09786 0.0
H253 H 0.06468 0.64875 0.07023 0.0
C254 C 0.03208 0.81178 0.99721 0.0
N255 N 0.03568 0.77309 0.97987 0.0
N256 N 0.02653 0.74217 0.99975 0.0
C257 C 0.01622 0.7609 1.02933 0.0
C258 C 0.02001 0.80555 1.02984 0.0
C259 C 0.04018 0.85485 0.98393 0.0
H260 H 0.04429 0.85415 0.95481 0.0
H261 H 0.05589 0.8648 0.99961 0.0
H262 H 0.02635 0.8795 0.98893 0.0
O263 O 0.03679 0.71216 0.89925 0.0
O264 O 0.02382 0.65998 0.93496 0.0
H265 H 0.98707 0.75935 0.06607 0.0
H266 H 0.01232 0.72932 0.07999 0.0
C267 C 1.0014 0.73789 0.05628 0.0
H268 H 0.99344 0.70884 0.04389 0.0
H269 H 0.99243 0.61854 0.9955 0.0
O270 O 0.0649 0.80681 0.91326 0.0
C271 C 0.02681 0.67505 0.90298 0.0
Co272 Co 0.30622 0.81617 0.68607 0.0
Co273 Co 0.28488 0.88755 0.73387 0.0
C274 C 0.33829 0.87887 0.72323 0.0
O275 O 0.3351 0.84711 0.70198 0.0
O276 O 0.32065 0.89702 0.73849 0.0
C277 C 0.33891 0.7484 0.66474 0.0
O278 O 0.35565 0.77601 0.67284 0.0
C279 C 0.27688 0.91849 0.80575 0.0
C280 C 0.24369 0.95532 0.80206 0.0
C281 C 0.25955 0.93765 0.8265 0.0
N282 N 0.27107 0.92247 0.77078 0.0
N283 N 0.25149 0.9455 0.76858 0.0
C284 C 0.29767 0.89329 0.81919 0.0
H285 H 0.3028 0.86805 0.79949 0.0
H286 H 0.29394 0.87836 0.84582 0.0
H287 H 0.31278 0.91569 0.82252 0.0
C288 C 0.28601 0.75944 0.74724 0.0
N289 N 0.28801 0.79747 0.72865 0.0
N290 N 0.27633 0.82739 0.74613 0.0
C291 C 0.2653 0.80833 0.7748 0.0
C292 C 0.27162 0.76463 0.77787 0.0
C293 C 0.30002 0.72014 0.73836 0.0
H294 H 0.31872 0.72975 0.73717 0.0
H295 H 0.29786 0.69429 0.75883 0.0
H296 H 0.29476 0.70781 0.7114 0.0
O297 O 0.28974 0.85774 0.64808 0.0
O298 O 0.27494 0.90929 0.68303 0.0
H299 H 0.23333 0.80728 0.80549 0.0
H300 H 0.25619 0.84031 0.82366 0.0
C301 C 0.24763 0.83017 0.79822 0.0
H302 H 0.23995 0.85842 0.78412 0.0
H303 H 0.24261 0.95197 0.7445 0.0
O304 O 0.31744 0.76059 0.66437 0.0
C305 C 0.27898 0.89431 0.65128 0.0
Co306 Co 0.96761 0.50334 0.68788 0.0
Co307 Co 0.98838 0.43269 0.7364 0.0
C308 C 0.93479 0.44131 0.72381 0.0
O309 O 0.93828 0.47374 0.70351 0.0
O310 O 0.95227 0.42217 0.7387 0.0
C311 C 0.93462 0.56601 0.65887 0.0
O312 O 0.91829 0.53675 0.6645 0.0
C313 C 0.99223 0.40164 0.8094 0.0
C314 C 0.03041 0.39065 0.81392 0.0
C315 C 1.01033 0.39809 0.83448 0.0
N316 N 1.00144 0.4002 0.7759 0.0
N317 N 0.02413 0.39138 0.77881 0.0
C318 C 0.96665 0.40878 0.81704 0.0
H319 H 0.96157 0.44137 0.80744 0.0
H320 H 0.9627 0.40569 0.84626 0.0
H321 H 0.95605 0.38471 0.80188 0.0
C322 C 0.98816 0.56183 0.74893 0.0
N323 N 0.98532 0.52358 0.73075 0.0
N324 N 0.99737 0.49365 0.74779 0.0
C325 C 1.00976 0.51302 0.7752 0.0
C326 C 1.00329 0.55663 0.77856 0.0
C327 C 0.97676 0.60362 0.73903 0.0
H328 H 0.9721 0.60449 0.71011 0.0
H329 H 0.96075 0.60774 0.75575 0.0
H330 H 0.98872 0.63104 0.74527 0.0
O331 O 0.98477 0.46104 0.65094 0.0
O332 O 0.99922 0.40938 0.68603 0.0
H333 H 0.04501 0.51981 0.796 0.0
H334 H 0.02793 0.48073 0.81884 0.0
C335 C 0.03154 0.49432 0.79192 0.0
H336 H 0.03916 0.46933 0.77404 0.0
H337 H 0.03582 0.39107 0.75708 0.0
O338 O 0.95628 0.55673 0.66357 0.0
C339 C 0.99544 0.42435 0.65411 0.0
Co340 Co 0.30328 0.49994 0.63084 0.0
Co341 Co 0.28471 0.42893 0.58015 0.0
C342 C 0.33762 0.43932 0.5952 0.0
O343 O 0.33321 0.47097 0.61597 0.0
O344 O 0.32079 0.4201 0.57881 0.0
C345 C 0.3358 0.56435 0.65886 0.0
O346 O 0.35246 0.53613 0.65198 0.0
C347 C 0.28238 0.39822 0.50698 0.0
C348 C 0.24431 0.38721 0.50101 0.0
C349 C 0.26463 0.39553 0.48123 0.0
N350 N 0.2727 0.39594 0.54013 0.0
N351 N 0.2501 0.38684 0.53631 0.0
C352 C 0.30813 0.40473 0.5003 0.0
H353 H 0.31332 0.43717 0.51007 0.0
H354 H 0.3125 0.40156 0.47122 0.0
H355 H 0.31832 0.38045 0.51587 0.0
C356 C 0.2816 0.55903 0.57091 0.0
N357 N 0.28559 0.52023 0.5878 0.0
N358 N 0.27493 0.48982 0.56915 0.0
C359 C 0.26251 0.50918 0.54173 0.0
C360 C 0.26748 0.55353 0.54023 0.0
C361 C 0.28981 0.60214 0.58385 0.0
H362 H 0.29654 0.60069 0.61171 0.0
H363 H 0.30355 0.61436 0.56521 0.0
H364 H 0.275 0.62556 0.58273 0.0
O365 O 0.28593 0.45641 0.66657 0.0
O366 O 0.27389 0.40412 0.62999 0.0
H367 H 0.22782 0.51378 0.51842 0.0
H368 H 0.24651 0.47663 0.49639 0.0
C369 C 0.24172 0.48927 0.52318 0.0
H370 H 0.23409 0.46349 0.54021 0.0
H371 H 0.2381 0.38594 0.55762 0.0
O372 O 0.3142 0.55366 0.65565 0.0
C373 C 0.27642 0.41879 0.66229 0.0
Co374 Co 0.96638 0.81313 0.62652 0.0
Co375 Co 0.98834 0.88363 0.57926 0.0
C376 C 0.93465 0.87686 0.59086 0.0
O377 O 0.93743 0.84421 0.61116 0.0
O378 O 0.9525 0.89536 0.57661 0.0
C379 C 0.93304 0.74899 0.65199 0.0
O380 O 0.91662 0.77748 0.6445 0.0
C381 C 0.99235 0.91547 0.50679 0.0
C382 C 0.03066 0.92525 0.50246 0.0
C383 C 1.01051 0.91853 0.48183 0.0
N384 N 1.00159 0.91641 0.54031 0.0
N385 N 0.02436 0.92455 0.53754 0.0
C386 C 0.96665 0.90959 0.49898 0.0
H387 H 0.96086 0.87744 0.50876 0.0
H388 H 0.96283 0.91259 0.46969 0.0
H389 H 0.95642 0.93442 0.51383 0.0
C390 C 0.98652 0.75499 0.56504 0.0
N391 N 0.98413 0.79303 0.58364 0.0
N392 N 0.99679 0.8226 0.5673 0.0
C393 C 1.00915 0.80308 0.53997 0.0
C394 C 1.00206 0.75983 0.53585 0.0
C395 C 0.97396 0.71401 0.57391 0.0
H396 H 0.97119 0.711 0.60332 0.0
H397 H 0.95675 0.71419 0.55985 0.0
H398 H 0.98405 0.6856 0.56409 0.0
O399 O 0.98368 0.85443 0.66419 0.0
O400 O 0.99906 0.90593 0.6299 0.0
H401 H 0.03879 0.8462 0.54144 0.0
H402 H 0.04437 0.79581 0.51924 0.0
C403 C 0.03104 0.82147 0.52341 0.0
H404 H 0.02749 0.83528 0.49655 0.0
H405 H 0.03604 0.92429 0.55931 0.0
O406 O 0.95472 0.75934 0.64992 0.0
C407 C 0.99476 0.89077 0.66157 0.0
Co408 Co 0.71665 0.25248 0.3772 0.0
Co409 Co 0.7389 0.18524 0.32738 0.0
C410 C 0.68508 0.19072 0.33953 0.0
O411 O 0.68782 0.22196 0.36136 0.0
O412 O 0.703 0.17422 0.32372 0.0
C413 C 0.68367 0.3126 0.40988 0.0
O414 O 0.66743 0.28323 0.40395 0.0
C415 C 0.74381 0.15962 0.25314 0.0
C416 C 0.78194 0.14704 0.24995 0.0
C417 C 0.76234 0.15629 0.22876 0.0
N418 N 0.7524 0.15568 0.28693 0.0
N419 N 0.77504 0.14624 0.28474 0.0
C420 C 0.71842 0.16837 0.24473 0.0
H421 H 0.71304 0.19965 0.25686 0.0
H422 H 0.71515 0.16894 0.21518 0.0
H423 H 0.70739 0.14273 0.2571 0.0
C424 C 0.73572 0.31319 0.3164 0.0
N425 N 0.73399 0.27483 0.33469 0.0
N426 N 0.74729 0.2464 0.31823 0.0
C427 C 0.75948 0.26688 0.29132 0.0
C428 C 0.75162 0.30966 0.28746 0.0
C429 C 0.72202 0.3529 0.3253 0.0
H430 H 0.71926 0.35547 0.35478 0.0
H431 H 0.70472 0.35092 0.31153 0.0
H432 H 0.73123 0.38225 0.31538 0.0
O433 O 0.73405 0.20964 0.41298 0.0
O434 O 0.74981 0.1602 0.37695 0.0
H435 H 0.79531 0.27671 0.27427 0.0
H436 H 0.77979 0.23838 0.24808 0.0
C437 C 0.78215 0.25032 0.27587 0.0
H438 H 0.78949 0.22451 0.29323 0.0
H439 H 0.7863 0.14422 0.30696 0.0
O440 O 0.7052 0.3045 0.4031 0.0
C441 C 0.74544 0.17384 0.40906 0.0
Co442 Co 0.05335 0.5638 0.37777 0.0
Co443 Co 0.03203 0.63299 0.32853 0.0
C444 C 0.08539 0.62707 0.34236 0.0
O445 O 0.0823 0.59482 0.36298 0.0
O446 O 0.06773 0.64435 0.32655 0.0
C447 C 0.08704 0.5025 0.40676 0.0
O448 O 0.10301 0.53259 0.40179 0.0
C449 C 0.02915 0.66426 0.25576 0.0
C450 C 0.99089 0.67357 0.24985 0.0
C451 C 1.01138 0.66703 0.23007 0.0
N452 N 0.01935 0.66521 0.28887 0.0
N453 N 0.99662 0.67308 0.28516 0.0
C454 C 0.05504 0.65913 0.24898 0.0
H455 H 0.06111 0.62723 0.25903 0.0
H456 H 0.05927 0.66222 0.21984 0.0
H457 H 0.06478 0.68441 0.26414 0.0
C458 C 0.03355 0.50391 0.31667 0.0
N459 N 0.03598 0.54247 0.33461 0.0
N460 N 0.02378 0.57182 0.31712 0.0
C461 C 0.01184 0.55183 0.28955 0.0
C462 C 0.01864 0.50837 0.28665 0.0
C463 C 0.04492 0.46237 0.32738 0.0
H464 H 0.04953 0.46224 0.35632 0.0
H465 H 0.06093 0.45771 0.31076 0.0
H466 H 0.03293 0.43484 0.32162 0.0
O467 O 0.03609 0.60606 0.41415 0.0
O468 O 0.02086 0.65644 0.37842 0.0
H469 H 0.98212 0.59476 0.28911 0.0
H470 H 0.97717 0.54414 0.2668 0.0
C471 C 0.99034 0.56999 0.27165 0.0
H472 H 0.99456 0.5837 0.24499 0.0
H473 H 0.98459 0.6728 0.30645 0.0
O474 O 0.06528 0.51101 0.40218 0.0
C475 C 0.02501 0.64222 0.41044 0.0
Co476 Co 0.72031 0.56027 0.43817 0.0
Co477 Co 0.74021 0.63023 0.48707 0.0
C478 C 0.68746 0.62389 0.47421 0.0
O479 O 0.6911 0.59215 0.45307 0.0
O480 O 0.70479 0.64156 0.49057 0.0
C481 C 0.68831 0.49171 0.43024 0.0
O482 O 0.70657 0.50524 0.4119 0.0
C483 C 0.74733 0.66515 0.55761 0.0
C484 C 0.78161 0.69867 0.55387 0.0
C485 C 0.76474 0.68435 0.57817 0.0
N486 N 0.754 0.66601 0.52293 0.0
N487 N 0.77421 0.68713 0.52058 0.0
C488 C 0.72576 0.64229 0.57108 0.0
H489 H 0.72148 0.61429 0.55358 0.0
H490 H 0.72798 0.63129 0.5994 0.0
H491 H 0.71066 0.66505 0.57008 0.0
C492 C 0.74159 0.5004 0.49808 0.0
N493 N 0.73821 0.53934 0.48109 0.0
N494 N 0.74788 0.5697 0.50102 0.0
C495 C 0.7581 0.55045 0.53045 0.0
C496 C 0.75386 0.50594 0.53074 0.0
C497 C 0.73311 0.45794 0.48411 0.0
H498 H 0.7339 0.45717 0.45424 0.0
H499 H 0.71473 0.45324 0.49303 0.0
H500 H 0.74382 0.43102 0.49526 0.0
O501 O 0.73748 0.60037 0.4005 0.0
O502 O 0.75122 0.65169 0.43646 0.0
H503 H 0.78692 0.55094 0.56796 0.0
H504 H 0.76194 0.58219 0.58111 0.0
C505 C 0.77298 0.57294 0.55772 0.0
H506 H 0.78142 0.60161 0.54548 0.0
H507 H 0.78372 0.69099 0.49671 0.0
O508 O 0.70627 0.50656 0.41352 0.0
C509 C 0.74822 0.63668 0.40449 0.0
Co510 Co 0.05556 0.25725 0.43574 0.0
Co511 Co 0.03529 0.18618 0.48296 0.0
C512 C 0.08888 0.19523 0.46965 0.0
O513 O 0.08531 0.22823 0.45008 0.0
O514 O 0.07145 0.17585 0.48437 0.0
C515 C 0.08777 0.32019 0.40572 0.0
O516 O 0.10408 0.29037 0.40895 0.0
C517 C 0.0326 0.15467 0.555 0.0
C518 C 0.99627 0.12991 0.5592 0.0
C519 C 0.01557 0.14271 0.57961 0.0
N520 N 0.02341 0.15201 0.52165 0.0
N521 N 1.00197 0.13554 0.52412 0.0
C522 C 0.05646 0.17272 0.56324 0.0
H523 H 0.05837 0.20482 0.5502 0.0
H524 H 0.05955 0.17573 0.59272 0.0
H525 H 0.06997 0.15072 0.55186 0.0
C526 C 0.03581 0.31438 0.49858 0.0
N527 N 0.03829 0.27676 0.47935 0.0
N528 N 0.02582 0.24667 0.49535 0.0
C529 C 0.01338 0.26551 0.52292 0.0
C530 C 0.02029 0.30869 0.52768 0.0
C531 C 0.04799 0.35586 0.49013 0.0
H532 H 0.05193 0.35829 0.46102 0.0
H533 H 0.06455 0.35731 0.50592 0.0
H534 H 0.03695 0.38379 0.49841 0.0
O535 O 0.03822 0.215 0.39858 0.0
O536 O 0.02412 0.16302 0.4335 0.0
H537 H 0.97622 0.25757 0.51989 0.0
H538 H 0.98717 0.26126 0.56509 0.0
C539 C 0.99091 0.24777 0.53792 0.0
H540 H 0.99112 0.21239 0.53868 0.0
H541 H 0.99041 0.13234 0.50235 0.0
O542 O 0.06626 0.31113 0.41189 0.0
C543 C 0.02769 0.17815 0.40171 0.0
Co544 Co 0.80562 0.31047 0.69038 0.0
Co545 Co 0.78417 0.3805 0.73827 0.0
C546 C 0.83776 0.37405 0.72574 0.0
O547 O 0.83454 0.34147 0.70549 0.0
O548 O 0.82016 0.39244 0.74094 0.0
C549 C 0.83888 0.24817 0.66219 0.0
O550 O 0.85511 0.2777 0.66759 0.0
C551 C 0.77893 0.41273 0.81061 0.0
C552 C 0.74043 0.42043 0.81348 0.0
C553 C 0.76033 0.41498 0.83491 0.0
N554 N 0.77021 0.41302 0.77677 0.0
N555 N 0.7473 0.41997 0.77867 0.0
C556 C 0.80454 0.40761 0.81927 0.0
H557 H 0.81481 0.43231 0.80431 0.0
H558 H 0.81058 0.37539 0.81007 0.0
H559 H 0.80795 0.41123 0.84863 0.0
C560 C 0.78617 0.25173 0.75158 0.0
N561 N 0.78832 0.28997 0.73327 0.0
N562 N 0.77564 0.31927 0.74986 0.0
C563 C 0.76334 0.29927 0.77702 0.0
C564 C 0.77059 0.25606 0.78078 0.0
C565 C 0.79917 0.21128 0.74238 0.0
H566 H 0.80027 0.20714 0.71276 0.0
H567 H 0.81717 0.21368 0.75368 0.0
H568 H 0.79046 0.18257 0.75443 0.0
O569 O 0.788 0.35141 0.65307 0.0
O570 O 0.77361 0.40329 0.68783 0.0
H571 H 0.73319 0.34117 0.77498 0.0
H572 H 0.72803 0.29041 0.79689 0.0
C573 C 0.74107 0.3167 0.79311 0.0
H574 H 0.74418 0.33059 0.82009 0.0
H575 H 0.73597 0.41894 0.75648 0.0
O576 O 0.8172 0.25721 0.66661 0.0
C577 C 0.77737 0.38813 0.65602 0.0
Co578 Co 0.4697 0.99888 0.68848 0.0
Co579 Co 0.48985 0.9272 0.73709 0.0
C580 C 0.43665 0.93682 0.72362 0.0
O581 O 0.4402 0.96888 0.70291 0.0
O582 O 0.45406 0.91827 0.73905 0.0
C583 C 0.43739 0.0648 0.66268 0.0
O584 O 0.42054 0.03714 0.67009 0.0
C585 C 0.49249 0.8928 0.80896 0.0
C586 C 0.53054 0.88112 0.81447 0.0
C587 C 0.51016 0.88746 0.83466 0.0
N588 N 0.50225 0.8929 0.77583 0.0
N589 N 0.52484 0.8836 0.77922 0.0
C590 C 0.4666 0.8979 0.8156 0.0
H591 H 0.46089 0.93086 0.80763 0.0
H592 H 0.46209 0.89191 0.84433 0.0
H593 H 0.4568 0.87444 0.7986 0.0
C594 C 0.4897 0.05595 0.75112 0.0
N595 N 0.48707 1.01802 0.73234 0.0
N596 N 0.49837 0.98756 0.74997 0.0
C597 C 0.50964 1.00603 0.77885 0.0
C598 C 0.50347 0.04967 0.78212 0.0
C599 C 0.47967 0.09861 0.74037 0.0
H600 H 0.46378 0.10492 0.75685 0.0
H601 H 0.49247 0.12478 0.74646 0.0
H602 H 0.4753 0.09947 0.71138 0.0
O603 O 0.48674 0.95674 0.65159 0.0
O604 O 0.50111 0.90503 0.6868 0.0
H605 H 0.54311 1.0112 0.80599 0.0
H606 H 0.52427 0.97062 0.82324 0.0
C607 C 0.53008 0.98616 0.79814 0.0
H608 H 0.53899 0.96247 0.78042 0.0
H609 H 0.53688 0.88441 0.75795 0.0
O610 O 0.45891 0.05328 0.66476 0.0
C611 C 0.49749 0.92019 0.65495 0.0
Co612 Co 0.80384 1.005 0.62678 0.0
Co613 Co 0.78419 0.93346 0.57897 0.0
C614 C 0.83738 0.94277 0.59157 0.0
O615 O 0.83339 0.97636 0.61035 0.0
O616 O 0.82016 0.92222 0.57725 0.0
C617 C 0.83664 0.06612 0.65792 0.0
O618 O 0.85261 0.03572 0.65463 0.0
C619 C 0.77727 0.90386 0.50693 0.0
C620 C 0.74378 0.86768 0.50865 0.0
C621 C 0.75997 0.88619 0.48522 0.0
N622 N 0.77108 0.89857 0.54156 0.0
N623 N 0.75133 0.87587 0.5426 0.0
C624 C 0.79794 0.93027 0.49476 0.0
H625 H 0.80371 0.9528 0.51626 0.0
H626 H 0.79374 0.9488 0.46991 0.0
H627 H 0.81269 0.90807 0.48831 0.0
C628 C 0.7825 0.0634 0.56625 0.0
N629 N 0.78582 1.02499 0.58413 0.0
N630 N 0.77556 0.99418 0.56546 0.0
C631 C 0.76441 1.01293 0.53656 0.0
C632 C 0.76917 0.05721 0.53475 0.0
C633 C 0.79191 0.1062 0.57801 0.0
H634 H 0.80732 0.1145 0.56103 0.0
H635 H 0.77845 0.13166 0.57344 0.0
H636 H 0.79694 0.10596 0.6068 0.0
O637 O 0.78753 0.96256 0.66429 0.0
O638 O 0.77303 0.91112 0.62918 0.0
H639 H 0.73278 1.01202 0.50501 0.0
H640 H 0.75696 0.98328 0.48614 0.0
C641 C 0.7478 0.99051 0.51178 0.0
H642 H 0.74081 0.96091 0.52459 0.0
H643 H 0.7421 0.86884 0.56623 0.0
O644 O 0.81511 0.0581 0.65098 0.0
C645 C 0.7769 0.9259 0.66105 0.0
Co646 Co 0.46964 0.31379 0.62844 0.0
Co647 Co 0.4885 0.38454 0.57833 0.0
C648 C 0.43543 0.37486 0.59372 0.0
O649 O 0.43971 0.34277 0.6141 0.0
O650 O 0.45233 0.39397 0.57738 0.0
C651 C 0.43782 0.24888 0.65711 0.0
O652 O 0.42092 0.27676 0.65063 0.0
C653 C 0.49148 0.41373 0.50494 0.0
C654 C 0.52947 0.42651 0.50014 0.0
C655 C 0.50952 0.4171 0.47977 0.0
N656 N 0.5007 0.41701 0.53836 0.0
N657 N 0.52322 0.42696 0.53523 0.0
C658 C 0.46595 0.40547 0.49762 0.0
H659 H 0.45518 0.42987 0.5121 0.0
H660 H 0.46113 0.37322 0.50831 0.0
H661 H 0.4619 0.40712 0.46833 0.0
C662 C 0.4901 0.25508 0.56729 0.0
N663 N 0.48683 0.29353 0.58504 0.0
N664 N 0.49818 0.32375 0.5673 0.0
C665 C 0.51059 0.30449 0.53987 0.0
C666 C 0.50476 0.2605 0.53717 0.0
C667 C 0.47983 0.2127 0.57828 0.0
H668 H 0.47527 0.21239 0.60721 0.0
H669 H 0.46395 0.20648 0.56168 0.0
H670 H 0.49251 0.1862 0.57267 0.0
O671 O 0.48717 0.35726 0.66422 0.0
O672 O 0.49964 0.40927 0.62783 0.0
H673 H 0.54593 0.2991 0.51931 0.0
H674 H 0.52813 0.33598 0.4953 0.0
C675 C 0.532 0.32386 0.52263 0.0
H676 H 0.53919 0.34997 0.53981 0.0
H677 H 0.53493 0.42862 0.55694 0.0
O678 O 0.45931 0.25997 0.65341 0.0
C679 C 0.49694 0.39467 0.66009 0.0
Co680 Co 0.21599 0.75198 0.38191 0.0
Co681 Co 0.23645 0.67958 0.3358 0.0
C682 C 0.18287 0.69029 0.34807 0.0
O683 O 0.18599 0.72334 0.36781 0.0
O684 O 0.20064 0.67129 0.33419 0.0
C685 C 0.18471 0.81953 0.40762 0.0
O686 O 0.16755 0.7919 0.40203 0.0
C687 C 0.23712 0.64445 0.26487 0.0
C688 C 0.27492 0.63056 0.25742 0.0
C689 C 0.25408 0.63788 0.23882 0.0
N690 N 0.24772 0.6447 0.29736 0.0
N691 N 0.27012 0.63433 0.29292 0.0
C692 C 0.21154 0.6539 0.2585 0.0
H693 H 0.2073 0.68703 0.26795 0.0
H694 H 0.20688 0.65103 0.22949 0.0
H695 H 0.20068 0.63065 0.27408 0.0
C696 C 0.23645 0.80661 0.31779 0.0
N697 N 0.23378 0.76973 0.33792 0.0
N698 N 0.24603 0.73897 0.32242 0.0
C699 C 0.25829 0.75633 0.29407 0.0
C700 C 0.25167 0.79956 0.28845 0.0
C701 C 0.22448 0.84854 0.32535 0.0
H702 H 0.22129 0.85256 0.35456 0.0
H703 H 0.20752 0.84902 0.31056 0.0
H704 H 0.23526 0.87599 0.31535 0.0
O705 O 0.23247 0.70919 0.41958 0.0
O706 O 0.24768 0.65745 0.38528 0.0
H707 H 0.28737 0.71198 0.29655 0.0
H708 H 0.29316 0.76031 0.27125 0.0
C709 C 0.27961 0.73569 0.27757 0.0
H710 H 0.27531 0.71967 0.25187 0.0
H711 H 0.28263 0.63469 0.31358 0.0
O712 O 0.2061 0.80751 0.40467 0.0
C713 C 0.24344 0.67272 0.41681 0.0
Co714 Co 0.55514 0.06459 0.3776 0.0
Co715 Co 0.53438 0.1356 0.3298 0.0
C716 C 0.58742 0.12802 0.34025 0.0
O717 O 0.58415 0.0961 0.36133 0.0
O718 O 0.56981 0.14614 0.32497 0.0
C719 C 0.58877 0.99972 0.40104 0.0
O720 O 0.60513 1.02728 0.39121 0.0
C721 C 0.52628 0.16943 0.25915 0.0
C722 C 0.4927 0.20502 0.2639 0.0
C723 C 0.50877 0.18901 0.23905 0.0
N724 N 0.52035 0.17152 0.29412 0.0
N725 N 0.50058 0.19387 0.29704 0.0
C726 C 0.54722 0.14516 0.24506 0.0
H727 H 0.55192 0.11816 0.26336 0.0
H728 H 0.54397 0.1325 0.21746 0.0
H729 H 0.56247 0.16756 0.24383 0.0
C730 C 0.53294 1.00606 0.31734 0.0
N731 N 0.53651 0.04456 0.33505 0.0
N732 N 0.52613 0.07523 0.31632 0.0
C733 C 0.51511 0.05655 0.28732 0.0
C734 C 0.51967 1.01225 0.2858 0.0
C735 C 0.54179 0.96302 0.32941 0.0
H736 H 0.54796 0.96378 0.35763 0.0
H737 H 0.55615 0.95264 0.31112 0.0
H738 H 0.52751 0.93866 0.32687 0.0
O739 O 0.53881 0.10569 0.4158 0.0
O740 O 0.52431 0.15719 0.38072 0.0
H741 H 0.48458 0.05764 0.25325 0.0
H742 H 0.50911 0.08801 0.23715 0.0
C743 C 0.49915 0.07933 0.26178 0.0
H744 H 0.49153 0.10825 0.27483 0.0
H745 H 0.49164 0.19892 0.32129 0.0
O746 O 0.56716 1.01083 0.40076 0.0
C747 C 0.52818 0.14231 0.41252 0.0
Co748 Co 0.22001 0.06697 0.43622 0.0
Co749 Co 0.23917 0.13777 0.48622 0.0
C750 C 0.18614 0.12854 0.47131 0.0
O751 O 0.19029 0.09651 0.45083 0.0
O752 O 0.20312 0.14756 0.48751 0.0
C753 C 0.18737 1.00343 0.40757 0.0
O754 O 0.17087 1.03239 0.4131 0.0
C755 C 0.24204 0.16954 0.55899 0.0
C756 C 0.28034 0.17799 0.5644 0.0
C757 C 0.26 0.17101 0.5845 0.0
N758 N 0.25159 0.17106 0.52571 0.0
N759 N 0.27434 0.17881 0.52921 0.0
C760 C 0.21622 0.16467 0.56599 0.0
H761 H 0.2064 0.18947 0.55042 0.0
H762 H 0.21032 0.13256 0.55641 0.0
H763 H 0.21208 0.16826 0.59512 0.0
C764 C 0.24085 1.0078 0.49674 0.0
N765 N 0.23743 0.04651 0.47942 0.0
N766 N 0.2486 0.07667 0.49762 0.0
C767 C 0.26092 0.05705 0.52504 0.0
C768 C 0.25527 1.01298 0.52715 0.0
C769 C 0.23131 0.96518 0.48479 0.0
H770 H 0.22589 0.96583 0.45622 0.0
H771 H 0.21621 0.95649 0.50226 0.0
H772 H 0.24486 0.93967 0.48854 0.0
O773 O 0.23749 0.10976 0.40012 0.0
O774 O 0.25006 0.16193 0.43632 0.0
H775 H 0.2898 0.10179 0.52619 0.0
H776 H 0.29567 0.0514 0.548 0.0
C777 C 0.28198 0.07633 0.54334 0.0
H778 H 0.2774 0.08907 0.57019 0.0
H779 H 0.28624 0.17881 0.50774 0.0
O780 O 0.20899 1.01345 0.4116 0.0
C781 C 0.24729 0.14716 0.40411 0.0
Co782 Co 0.55729 0.75049 0.43814 0.0
Co783 Co 0.53621 0.68019 0.48635 0.0
C784 C 0.58976 0.68774 0.47347 0.0
O785 O 0.58665 0.71987 0.45265 0.0
O786 O 0.57206 0.67017 0.48893 0.0
C787 C 0.58971 0.8162 0.41256 0.0
O788 O 0.60651 0.78856 0.42031 0.0
C789 C 0.53296 0.64771 0.55846 0.0
C790 C 0.49459 0.63927 0.56332 0.0
C791 C 0.51489 0.64585 0.58363 0.0
N792 N 0.52351 0.64669 0.5251 0.0
N793 N 0.50072 0.63908 0.5282 0.0
C794 C 0.55884 0.65201 0.56595 0.0
H795 H 0.56534 0.68379 0.55634 0.0
H796 H 0.5627 0.6485 0.59519 0.0
H797 H 0.5685 0.62664 0.55082 0.0
C798 C 0.53732 0.80876 0.49965 0.0
N799 N 0.53973 0.77051 0.48136 0.0
N800 N 0.52722 0.74102 0.49806 0.0
C801 C 0.5149 0.76082 0.52531 0.0
C802 C 0.52185 0.8042 0.52903 0.0
C803 C 0.55009 0.84938 0.49033 0.0
H804 H 0.55027 0.85429 0.46073 0.0
H805 H 0.56842 0.84644 0.50019 0.0
H806 H 0.54186 0.87784 0.50354 0.0
O807 O 0.53996 0.70854 0.40115 0.0
O808 O 0.52551 0.65699 0.43639 0.0
H809 H 0.47998 0.76736 0.54737 0.0
H810 H 0.49769 0.72894 0.56984 0.0
C811 C 0.49348 0.74206 0.54295 0.0
H812 H 0.48564 0.71685 0.52552 0.0
H813 H 0.48892 0.6395 0.50658 0.0
O814 O 0.56818 0.80479 0.41449 0.0
C815 C 0.52927 0.6719 0.40453 0.0
Co816 Co 0.80389 0.813 0.19032 0.0
Co817 Co 0.78685 0.88397 0.24176 0.0
C818 C 0.83788 0.87813 0.22702 0.0
O819 O 0.83284 0.84654 0.20624 0.0
O820 O 0.82166 0.89715 0.24478 0.0
C821 C 0.83722 0.74617 0.17563 0.0
O822 O 0.85208 0.77112 0.19302 0.0
C823 C 0.77875 0.93515 0.30704 0.0
C824 C 0.74234 0.91396 0.31724 0.0
C825 C 0.7621 0.9306 0.33447 0.0
N826 N 0.76989 0.91794 0.27646 0.0
N827 N 0.74767 0.90761 0.28236 0.0
C828 C 0.80077 0.96197 0.3081 0.0
H829 H 0.79945 0.98792 0.28751 0.0
H830 H 0.81632 0.94212 0.30095 0.0
H831 H 0.80334 0.97677 0.33515 0.0
C832 C 0.78027 0.75277 0.24636 0.0
N833 N 0.78554 0.7925 0.232 0.0
N834 N 0.78075 0.82232 0.25609 0.0
C835 C 0.77358 0.80172 0.28695 0.0
C836 C 0.77269 0.75695 0.28233 0.0
C837 C 0.78163 0.71102 0.22619 0.0
H838 H 0.78432 0.71646 0.19694 0.0
H839 H 0.79606 0.69098 0.23728 0.0
H840 H 0.76506 0.69258 0.23029 0.0
O841 O 0.78716 0.85238 0.15288 0.0
O842 O 0.77637 0.90483 0.19001 0.0
H843 H 0.75169 0.8298 0.32713 0.0
H844 H 0.77671 0.80145 0.34477 0.0
C845 C 0.7706 0.82282 0.32256 0.0
H846 H 0.78116 0.85234 0.32263 0.0
H847 H 0.73716 0.89083 0.26396 0.0
O848 O 0.81657 0.75959 0.16817 0.0
C849 C 0.77818 0.89004 0.15765 0.0
Co850 Co 0.47144 0.50063 0.1875 0.0
Co851 Co 0.48927 0.42844 0.23686 0.0
C852 C 0.4373 0.43702 0.22283 0.0
O853 O 0.44202 0.46865 0.2021 0.0
O854 O 0.45384 0.41756 0.23956 0.0
C855 C 0.43832 0.56772 0.16929 0.0
O856 O 0.42253 0.54223 0.18397 0.0
C857 C 0.49577 0.3917 0.30711 0.0
C858 C 0.53045 0.35965 0.30369 0.0
C859 C 0.51332 0.37316 0.32792 0.0
N860 N 0.50271 0.39157 0.27252 0.0
N861 N 0.52312 0.37112 0.27035 0.0
C862 C 0.47389 0.41378 0.32028 0.0
H863 H 0.47011 0.44282 0.30371 0.0
H864 H 0.47533 0.42309 0.34913 0.0
H865 H 0.4588 0.39123 0.3173 0.0
C866 C 0.4941 0.55898 0.24708 0.0
N867 N 0.48946 0.52008 0.23064 0.0
N868 N 0.49738 0.489 0.25162 0.0
C869 C 0.50742 0.50776 0.28149 0.0
C870 C 0.50503 0.55276 0.28068 0.0
C871 C 0.48972 0.60251 0.231 0.0
H872 H 0.48253 0.60041 0.20341 0.0
H873 H 0.47776 0.62115 0.2488 0.0
H874 H 0.50658 0.62068 0.23009 0.0
O875 O 0.48849 0.46036 0.14981 0.0
O876 O 0.50011 0.40724 0.18567 0.0
H877 H 0.52923 0.45551 0.29832 0.0
H878 H 0.53422 0.50505 0.32253 0.0
C879 C 0.52054 0.48416 0.31013 0.0
H880 H 0.50823 0.47482 0.33192 0.0
H881 H 0.53289 0.368 0.24663 0.0
O882 O 0.4594 0.55457 0.1647 0.0
C883 C 0.49786 0.42271 0.15363 0.0
Co884 Co 0.80384 0.50144 0.12644 0.0
Co885 Co 0.78331 0.43051 0.07884 0.0
C886 C 0.8363 0.43696 0.09087 0.0
O887 O 0.83277 0.46953 0.11113 0.0
O888 O 0.81891 0.41799 0.07561 0.0
C889 C 0.837 0.5649 0.15241 0.0
O890 O 0.85345 0.53678 0.14419 0.0
C891 C 0.77491 0.39659 1.0081 0.0
C892 C 0.74086 0.36255 1.01293 0.0
C893 C 0.75718 0.37758 0.98804 0.0
N894 N 0.76894 0.395 0.04308 0.0
N895 N 0.74884 0.37365 0.04603 0.0
C896 C 0.79625 0.41958 0.99395 0.0
H897 H 0.80143 0.44625 1.01229 0.0
H898 H 0.79317 0.43239 0.96636 0.0
H899 H 0.81107 0.39626 0.99263 0.0
C900 C 0.78392 0.56014 0.06624 0.0
N901 N 0.78635 0.52137 0.08367 0.0
N902 N 0.77584 0.49131 0.06454 0.0
C903 C 0.76548 0.51093 0.03538 0.0
C904 C 0.77075 0.55517 0.03435 0.0
C905 C 0.79506 0.6012 0.07872 0.0
H906 H 0.79082 0.60681 0.10756 0.0
H907 H 0.81441 0.59801 0.0762 0.0
H908 H 0.78906 0.62921 0.06237 0.0
O909 O 0.78651 0.46219 0.16457 0.0
O910 O 0.77253 0.40984 0.13002 0.0
H911 H 0.73544 0.51164 1.0003 0.0
H912 H 0.75968 0.47989 0.98488 0.0
C913 C 0.74954 0.48913 1.00921 0.0
H914 H 0.74134 0.46054 1.02196 0.0
H915 H 0.7398 0.36921 0.07027 0.0
O916 O 0.81533 0.55489 0.1497 0.0
C917 C 0.77596 0.42551 0.16172 0.0
Co918 Co 0.46874 0.8173 0.12696 0.0
Co919 Co 0.48806 0.88844 0.07767 0.0
C920 C 0.43516 0.87819 0.09014 0.0
O921 O 0.43917 0.84706 0.11172 0.0
O922 O 0.45227 0.89685 0.07396 0.0
C923 C 0.43702 0.75096 0.15277 0.0
O924 O 0.41996 0.77807 0.14507 0.0
C925 C 0.4952 0.92 1.00574 0.0
C926 C 0.52851 0.95662 1.00907 0.0
C927 C 0.51249 0.9391 0.98482 0.0
N928 N 0.50125 0.92384 0.04063 0.0
N929 N 0.52086 0.94683 0.04262 0.0
C930 C 0.47444 0.89445 0.99258 0.0
H931 H 0.46971 0.86877 1.01213 0.0
H932 H 0.47791 0.87989 0.96572 0.0
H933 H 0.45912 0.91651 0.98991 0.0
C934 C 0.48899 0.75937 0.06638 0.0
N935 N 0.48637 0.79798 0.08402 0.0
N936 N 0.49676 0.82822 0.06497 0.0
C937 C 0.50728 0.80897 0.03589 0.0
C938 C 0.50211 0.76485 0.03458 0.0
C939 C 0.47797 0.71803 0.07835 0.0
H940 H 0.48169 0.71248 0.10737 0.0
H941 H 0.4587 0.72075 0.0747 0.0
H942 H 0.48451 0.69021 0.06229 0.0
O943 O 0.48552 0.85889 0.16404 0.0
O944 O 0.49857 0.91104 0.12829 0.0
H945 H 0.53792 0.80905 1.00231 0.0
H946 H 0.51337 0.83842 0.98501 0.0
C947 C 0.52326 0.83095 1.01001 0.0
H948 H 0.53071 0.86049 1.02236 0.0
H949 H 0.52992 0.95309 0.06659 0.0
O950 O 0.45844 0.76286 0.1505 0.0
C951 C 0.49559 0.89595 0.16028 0.0
Co952 Co 0.22005 0.24321 0.87809 0.0
Co953 Co 0.2377 0.17201 0.82882 0.0
C954 C 0.18477 0.18323 0.84511 0.0
O955 O 0.18941 0.21647 0.8641 0.0
O956 O 0.2015 0.16258 0.82948 0.0
C957 C 0.19283 0.31471 0.90483 0.0
O958 O 0.1755 0.29578 0.88742 0.0
C959 C 0.24371 0.14036 0.75644 0.0
C960 C 0.27656 0.10234 0.75937 0.0
C961 C 0.26068 0.12066 0.73533 0.0
N962 N 0.24983 0.13615 0.79125 0.0
N963 N 0.26915 0.11233 0.79299 0.0
C964 C 0.2231 0.1664 0.74354 0.0
H965 H 0.21814 0.19114 0.76379 0.0
H966 H 0.22686 0.18202 0.71719 0.0
H967 H 0.20789 0.14435 0.73966 0.0
C968 C 0.23927 0.30181 0.81707 0.0
N969 N 0.23661 0.26299 0.83439 0.0
N970 N 0.24626 0.23262 0.81463 0.0
C971 C 0.25653 0.25211 0.78533 0.0
C972 C 0.25193 0.29668 0.78473 0.0
C973 C 0.22932 0.3434 0.83058 0.0
H974 H 0.21015 0.33962 0.83535 0.0
H975 H 0.23235 0.3702 0.81121 0.0
H976 H 0.2379 0.35139 0.8566 0.0
O977 O 0.2368 0.20035 0.9141 0.0
O978 O 0.25021 0.14891 0.87831 0.0
H979 H 0.28673 0.25098 0.75064 0.0
H980 H 0.26158 0.22285 0.734 0.0
C981 C 0.27188 0.22977 0.75873 0.0
H982 H 0.27908 0.19983 0.77072 0.0
H983 H 0.27824 0.10561 0.81685 0.0
O984 O 0.21281 0.2962 0.90499 0.0
C985 C 0.24719 0.1637 0.91035 0.0
Co986 Co 0.55261 0.56983 0.87655 0.0
Co987 Co 0.5353 0.64075 0.82724 0.0
C988 C 0.58795 0.62953 0.84303 0.0
O989 O 0.58328 0.59722 0.86312 0.0
O990 O 0.57131 0.64965 0.82679 0.0
C991 C 0.57996 0.49932 0.90547 0.0
O992 O 0.59783 0.51883 0.88993 0.0
C993 C 0.52949 0.67347 0.75568 0.0
C994 C 0.49627 0.71046 0.75837 0.0
C995 C 0.5126 0.69325 0.73453 0.0
N996 N 0.523 0.67679 0.79033 0.0
N997 N 0.50345 0.69996 0.792 0.0
C998 C 0.55026 0.64776 0.74289 0.0
H999 H 0.55464 0.62186 0.76244 0.0
H1000 H 0.547 0.63351 0.71584 0.0
H1001 H 0.56567 0.66967 0.74072 0.0
C1002 C 0.53371 0.51127 0.81526 0.0
N1003 N 0.5362 0.55003 0.83272 0.0
N1004 N 0.52655 0.5804 0.81295 0.0
C1005 C 0.51646 0.56101 0.78343 0.0
C1006 C 0.52112 0.51647 0.78283 0.0
C1007 C 0.54395 0.46982 0.82859 0.0
H1008 H 0.53467 0.46044 0.85369 0.0
H1009 H 0.56286 0.47448 0.83504 0.0
H1010 H 0.54199 0.44354 0.80839 0.0
O1011 O 0.53539 0.61155 0.91254 0.0
O1012 O 0.52357 0.66421 0.87681 0.0
H1013 H 0.48678 0.56175 0.74769 0.0
H1014 H 0.51197 0.59073 0.73214 0.0
C1015 C 0.50135 0.58334 0.75642 0.0
H1016 H 0.49378 0.6131 0.76821 0.0
H1017 H 0.49409 0.70582 0.81574 0.0
O1018 O 0.55983 0.51704 0.90344 0.0
C1019 C 0.52583 0.64892 0.90881 0.0
Co1020 Co 0.21781 0.57061 0.93644 0.0
Co1021 Co 0.2403 0.63669 0.98297 0.0
C1022 C 0.18563 0.63251 0.96639 0.0
O1023 O 0.18767 0.59576 0.95146 0.0
O1024 O 0.20422 0.65109 0.97853 0.0
C1025 C 0.1919 0.49918 0.907 0.0
O1026 O 0.17403 0.51682 0.92404 0.0
C1027 C 0.23963 0.65764 0.05722 0.0
C1028 C 0.27578 0.68067 0.06784 0.0
C1029 C 0.25549 0.66577 0.08463 0.0
N1030 N 0.2503 0.66532 1.02547 0.0
N1031 N 0.27176 0.68003 1.03193 0.0
C1032 C 0.21543 0.63876 0.06096 0.0
H1033 H 0.21329 0.61096 0.04231 0.0
H1034 H 0.21166 0.62853 0.08906 0.0
H1035 H 0.20232 0.66357 0.05355 0.0
C1036 C 0.23529 0.51086 0.99894 0.0
N1037 N 0.23424 0.54828 0.97937 0.0
N1038 N 0.24813 0.57653 0.99452 0.0
C1039 C 0.26034 0.55686 1.02175 0.0
C1040 C 0.25182 0.51457 1.02725 0.0
C1041 C 0.22072 0.47186 0.99096 0.0
H1042 H 0.22965 0.45291 0.96963 0.0
H1043 H 0.2031 0.48165 0.98095 0.0
H1044 H 0.21885 0.45102 1.01517 0.0
O1045 O 0.23411 0.61736 0.90218 0.0
O1046 O 0.25577 0.65923 0.93689 0.0
H1047 H 0.29637 0.54883 0.0387 0.0
H1048 H 0.2806 0.58742 0.0644 0.0
C1049 C 0.28289 0.57464 0.03688 0.0
H1050 H 0.2897 0.60081 1.01929 0.0
H1051 H 0.28434 0.68584 1.01196 0.0
O1052 O 0.21147 0.519 0.90742 0.0
C1053 C 0.2484 0.64957 0.9052 0.0
Co1054 Co 0.5546 0.24455 0.94018 0.0
Co1055 Co 0.53449 0.17641 0.98991 0.0
C1056 C 0.58817 0.18571 0.97611 0.0
O1057 O 0.58461 0.21684 0.95435 0.0
O1058 O 0.57081 0.16731 0.99206 0.0
C1059 C 0.58176 0.31503 0.91067 0.0
O1060 O 0.59965 0.29674 0.92722 0.0
C1061 C 0.53016 0.14579 0.06286 0.0
C1062 C 0.49163 0.1389 0.06641 0.0
C1063 C 0.51166 0.14475 0.08745 0.0
N1064 N 0.52122 0.14453 1.02918 0.0
N1065 N 0.4983 0.13799 1.03155 0.0
C1066 C 0.55588 0.15038 0.07101 0.0
H1067 H 0.56217 0.18222 0.06134 0.0
H1068 H 0.55946 0.14717 0.10036 0.0
H1069 H 0.56585 0.1252 0.05611 0.0
C1070 C 0.5373 0.30454 1.00146 0.0
N1071 N 0.53842 0.26604 0.98343 0.0
N1072 N 0.52555 0.23763 1.00064 0.0
C1073 C 0.51392 0.25867 1.02795 0.0
C1074 C 0.52185 0.30164 1.03099 0.0
C1075 C 0.55088 0.34383 0.99082 0.0
H1076 H 0.56918 0.33472 0.98366 0.0
H1077 H 0.55107 0.36827 1.01276 0.0
H1078 H 0.54239 0.35822 0.96673 0.0
O1079 O 0.5371 0.20227 0.90482 0.0
O1080 O 0.52345 0.15092 0.94047 0.0
H1081 H 0.48365 0.21695 1.02836 0.0
H1082 H 0.47898 0.26879 0.04878 0.0
C1083 C 0.49188 0.24219 0.04539 0.0
H1084 H 0.49541 0.22955 0.07268 0.0
H1085 H 0.48683 0.13861 1.0095 0.0
O1086 O 0.56187 0.29642 0.9123 0.0
C1087 C 0.52676 0.16557 0.90842 0.0
C1088 C 0.27754 0.45696 0.39278 0.0
C1089 C 0.26136 0.43663 0.36929 0.0
C1090 C 0.2507 0.38605 0.41726 0.0
C1091 C 0.2649 0.4091 0.44228 0.0
N1092 N 0.28568 0.47678 0.45407 0.0
N1093 N 0.22688 0.39125 0.3635 0.0
C1094 C 0.27672 0.44743 0.43025 0.0
C1095 C 0.24603 0.40436 0.38291 0.0
N1096 N 0.29357 0.48583 0.37952 0.0
N1097 N 0.24252 0.34567 0.42538 0.0
H1098 H 0.22231 0.40475 0.33874 0.0
H1099 H 0.21424 0.37018 0.3739 0.0
H1100 H 0.24692 0.32956 0.44919 0.0
H1101 H 0.23384 0.32627 0.40656 0.0
H1102 H 0.30766 0.49743 0.3948 0.0
H1103 H 0.29362 0.49607 0.35267 0.0
H1104 H 0.29222 0.50672 0.44605 0.0
H1105 H 0.2841 0.47413 0.48181 0.0
C1106 C 0.99956 0.86914 0.42869 0.0
C1107 C 1.01058 0.90746 0.4424 0.0
C1108 C 0.02941 0.91753 0.38349 0.0
C1109 C 0.01517 0.88437 0.36855 0.0
N1110 N 0.98451 0.83139 0.37625 0.0
N1111 N 0.03167 0.97337 0.42886 0.0
C1112 C 0.99951 0.8612 0.39094 0.0
C1113 C 0.02433 0.9331 0.41864 0.0
N1114 N 0.99043 0.83859 0.45124 0.0
N1115 N 0.04793 0.93407 0.36451 0.0
H1116 H 0.02709 0.98727 0.45353 0.0
H1117 H 0.03985 0.99482 0.41114 0.0
H1118 H 0.05996 0.95575 0.37569 0.0
H1119 H 0.05276 0.92278 0.33911 0.0
H1120 H 0.98498 0.80833 0.44222 0.0
H1121 H 0.99056 0.84092 0.4791 0.0
H1122 H 0.97053 0.81781 0.39057 0.0
H1123 H 0.98514 0.82222 0.34915 0.0
C1124 C 0.2414 0.90032 0.88019 0.0
C1125 C 0.25687 0.93227 0.8662 0.0
C1126 C 0.27297 0.94251 0.92698 0.0
C1127 C 0.26056 0.90507 0.93951 0.0
N1128 N 0.23412 0.84593 0.92489 0.0
N1129 N 0.28924 0.9812 0.87591 0.0
C1130 C 0.2452 0.88338 0.91515 0.0
C1131 C 0.27327 0.95238 0.8895 0.0
N1132 N 0.22303 0.88437 0.86068 0.0
N1133 N 0.28287 0.97107 0.95057 0.0
H1134 H 0.28878 0.99215 0.84927 0.0
H1135 H 0.30374 0.99218 0.8906 0.0
H1136 H 0.28179 0.9683 0.97836 0.0
H1137 H 0.28971 1.00069 0.94244 0.0
H1138 H 0.21812 0.89565 0.83525 0.0
H1139 H 0.21812 0.89565 0.83525 0.0
H1140 H 0.22261 0.8296 0.90762 0.0
H1141 H 0.23793 0.82929 0.94866 0.0
C1142 C 0.99909 0.45485 0.92554 0.0
C1143 C 0.01441 0.43117 0.94815 0.0
C1144 C 0.02384 0.3829 0.89788 0.0
C1145 C 1.01039 0.40899 0.87398 0.0
N1146 N 0.99092 0.47849 0.86519 0.0
N1147 N 0.047 0.38115 0.95251 0.0
C1148 C 0.99952 0.4474 0.88772 0.0
C1149 C 0.02867 0.39804 0.93326 0.0
N1150 N 0.98408 0.48471 0.94007 0.0
N1151 N 0.03108 0.34262 0.88757 0.0
H1152 H 0.05168 0.39221 0.97806 0.0
H1153 H 0.05905 0.35946 0.94143 0.0
H1154 H 0.02663 0.32897 0.86273 0.0
H1155 H 0.03903 0.32092 0.90534 0.0
H1156 H 0.97036 0.49874 0.92545 0.0
H1157 H 0.98444 0.49347 0.96727 0.0
H1158 H 0.98558 0.50874 0.87435 0.0
H1159 H 0.9914 0.47651 0.83732 0.0
C1160 C 0.77525 0.63215 0.66826 0.0
C1161 C 0.76147 0.65818 0.69168 0.0
C1162 C 0.75104 0.70438 0.63994 0.0
C1163 C 0.76674 0.68078 0.61793 0.0
N1164 N 0.79925 0.63047 0.61459 0.0
N1165 N 0.74154 0.72738 0.69997 0.0
C1166 C 0.78069 0.64746 0.6332 0.0
C1167 C 0.75074 0.69661 0.67769 0.0
N1168 N 0.78225 0.59177 0.67872 0.0
N1169 N 0.73633 0.73438 0.62485 0.0
H1170 H 0.74142 0.72519 0.72783 0.0
H1171 H 0.73628 0.75767 0.69077 0.0
H1172 H 0.73726 0.74341 0.59774 0.0
H1173 H 0.7223 0.74828 0.63882 0.0
H1174 H 0.79044 0.57008 0.6612 0.0
H1175 H 0.77739 0.57807 0.70334 0.0
H1176 H 0.81107 0.60862 0.62605 0.0
H1177 H 0.80434 0.64154 0.58924 0.0
C1178 C 0.0194 0.11809 0.67988 0.0
C1179 C 0.01569 0.15989 0.69518 0.0
C1180 C 0.01579 0.19124 0.63471 0.0
C1181 C 0.01611 0.14892 0.61938 0.0
N1182 N 0.01543 0.07161 0.62764 0.0
N1183 N 1.00801 0.23597 0.68692 0.0
C1184 C 0.01693 0.11224 0.64208 0.0
C1185 C 0.01302 0.19629 0.67248 0.0
N1186 N 0.02623 0.08407 0.70086 0.0
N1187 N 0.01914 0.22681 0.61362 0.0
H1188 H 1.0079 0.24219 0.71459 0.0
H1189 H 1.00252 0.26225 0.67147 0.0
H1190 H 0.02198 0.22504 0.58613 0.0
H1191 H 0.02168 0.25781 0.62386 0.0
H1192 H 0.03183 0.05469 0.69021 0.0
H1193 H 0.02876 0.08607 0.7285 0.0
H1194 H 0.01262 0.044 0.64317 0.0
H1195 H 0.01531 0.06556 0.59995 0.0
C1196 C 0.75477 0.20766 0.17547 0.0
C1197 C 0.76334 0.16736 0.18933 0.0
C1198 C 0.78284 0.15438 0.13142 0.0
C1199 C 0.77093 0.19028 0.11576 0.0
N1200 N 0.74465 0.25062 0.12288 0.0
N1201 N 0.78325 0.09968 0.17722 0.0
C1202 C 0.75669 0.2168 0.1379 0.0
C1203 C 0.77655 0.14004 0.16624 0.0
N1204 N 0.74608 0.23869 0.19793 0.0
N1205 N 0.80035 0.13266 0.11413 0.0
H1206 H 0.7775 0.08574 0.20129 0.0
H1207 H 0.79302 0.07895 0.16077 0.0
H1208 H 0.80757 0.14178 0.08945 0.0
H1209 H 0.80757 0.14178 0.08945 0.0
H1210 H 0.7431 0.27028 0.18951 0.0
H1211 H 0.74394 0.23474 0.22547 0.0
H1212 H 0.73125 0.26719 0.13623 0.0
H1213 H 0.74723 0.26059 0.09625 0.0
C1214 C 0.99826 0.68078 0.16641 0.0
C1215 C 0.01197 0.65578 0.19071 0.0
C1216 C 0.0242 0.60972 0.13981 0.0
C1217 C 1.00849 0.63208 0.11686 0.0
N1218 N 0.97502 0.68012 0.11191 0.0
N1219 N 0.03253 0.58752 0.20051 0.0
C1220 C 0.99366 0.66467 0.13129 0.0
C1221 C 0.02353 0.61777 0.17754 0.0
N1222 N 0.99047 0.72092 0.17612 0.0
N1223 N 0.03974 0.5805 0.12571 0.0
H1224 H 0.03172 0.5897 0.22837 0.0
H1225 H 0.03855 0.55756 0.1917 0.0
H1226 H 0.03959 0.57126 0.09861 0.0
H1227 H 0.05367 0.56754 0.14056 0.0
H1228 H 0.98226 0.74188 0.15799 0.0
H1229 H 0.99471 0.73527 0.20077 0.0
H1230 H 0.96264 0.70135 0.12279 0.0
H1231 H 0.97046 0.66838 0.08653 0.0
C1232 C 0.77056 0.35772 0.92609 0.0
C1233 C 0.7547 0.38081 0.94824 0.0
C1234 C 0.74512 0.42862 0.89759 0.0
C1235 C 0.75979 0.40394 0.87436 0.0
N1236 N 0.7807 0.33582 0.86601 0.0
N1237 N 0.72256 0.43271 0.95148 0.0
C1238 C 0.77102 0.36598 0.88838 0.0
C1239 C 0.74049 0.41384 0.93293 0.0
N1240 N 0.78541 0.32786 0.94108 0.0
N1241 N 0.73559 0.4669 0.88636 0.0
H1242 H 0.717 0.42292 0.97702 0.0
H1243 H 0.717 0.42292 0.97702 0.0
H1244 H 0.74001 0.48154 0.86193 0.0
H1245 H 0.72468 0.48555 0.90286 0.0
H1246 H 0.79966 0.31459 0.92725 0.0
H1247 H 0.78431 0.31826 0.96804 0.0
H1248 H 0.78628 0.30568 0.87506 0.0
H1249 H 0.78086 0.3382 0.83816 0.0
C1250 C 0.49876 0.95217 0.92169 0.0
C1251 C 0.51525 0.93274 0.94528 0.0
C1252 C 0.5256 0.88023 0.89829 0.0
C1253 C 0.51012 0.90086 0.8737 0.0
N1254 N 0.48734 0.96368 0.85941 0.0
N1255 N 0.54898 0.88466 0.95139 0.0
C1256 C 0.49804 0.93894 0.88492 0.0
C1257 C 0.53021 0.89943 0.93216 0.0
N1258 N 0.48354 0.98275 0.93458 0.0
N1259 N 0.53601 0.84177 0.88973 0.0
H1260 H 0.55459 0.89794 0.9758 0.0
H1261 H 0.55459 0.89794 0.9758 0.0
H1262 H 0.53166 0.82424 0.8666 0.0
H1263 H 0.54755 0.82595 0.9073 0.0
H1264 H 0.4688 0.99339 0.92033 0.0
H1265 H 0.48489 0.99563 0.96055 0.0
H1266 H 0.4799 0.99393 0.86421 0.0
H1267 H 0.4799 0.99393 0.86421 0.0
C1268 C 0.77673 0.87741 0.42412 0.0
C1269 C 0.7582 0.89333 0.44563 0.0
C1270 C 0.74594 0.94121 0.39617 0.0
C1271 C 0.76493 0.9262 0.37463 0.0
N1272 N 0.80271 0.88833 0.37409 0.0
N1273 N 0.7227 0.93718 0.44943 0.0
C1274 C 0.78162 0.8968 0.39021 0.0
C1275 C 0.74217 0.924 0.43107 0.0
N1276 N 0.78917 0.84215 0.43567 0.0
N1277 N 0.7313 0.97274 0.38332 0.0
H1278 H 0.71765 0.92521 0.47455 0.0
H1279 H 0.71765 0.92521 0.47455 0.0
H1280 H 0.73426 0.98845 0.35878 0.0
H1281 H 0.71697 0.98451 0.39802 0.0
H1282 H 0.801 0.82531 0.4194 0.0
H1283 H 0.78567 0.82675 0.46018 0.0
H1284 H 0.81652 0.87257 0.38717 0.0
H1285 H 0.8076 0.89946 0.349 0.0
C1286 C 0.52956 0.41168 0.38216 0.0
C1287 C 0.51547 0.37801 0.36766 0.0
C1288 C 0.49941 0.36496 0.42789 0.0
C1289 C 0.50995 0.40419 0.44069 0.0
N1290 N 0.53063 0.47 0.42529 0.0
N1291 N 0.485 0.32488 0.37621 0.0
C1292 C 0.52381 0.42897 0.41645 0.0
C1293 C 0.49971 0.35552 0.39037 0.0
N1294 N 0.54855 0.42711 0.36365 0.0
N1295 N 0.49051 0.33493 0.4511 0.0
H1296 H 0.48596 0.31465 0.3494 0.0
H1297 H 0.47098 0.31161 0.39063 0.0
H1298 H 0.49081 0.33805 0.47889 0.0
H1299 H 0.48523 0.30431 0.44273 0.0
H1300 H 0.56034 0.4493 0.37478 0.0
H1301 H 0.554 0.41451 0.339 0.0
H1302 H 0.53896 0.49057 0.407 0.0
H1303 H 0.52543 0.48525 0.4491 0.0
C1304 C 0.25523 0.60919 0.17594 0.0
C1305 C 0.25195 0.64477 0.19933 0.0
C1306 C 0.25044 0.69393 0.14726 0.0
C1307 C 0.25247 0.65805 0.12387 0.0
N1308 N 0.24952 0.58048 0.11632 0.0
N1309 N 0.24012 0.71989 0.20624 0.0
C1310 C 0.25277 0.61535 0.13822 0.0
C1311 C 0.24762 0.68679 0.1848 0.0
N1312 N 0.26052 0.56926 0.18965 0.0
N1313 N 0.25135 0.73507 0.13373 0.0
H1314 H 0.23813 0.7176 0.23395 0.0
H1315 H 0.23369 0.74884 0.1959 0.0
H1316 H 0.25146 0.74198 0.10617 0.0
H1317 H 0.25345 0.76237 0.14992 0.0
H1318 H 0.26648 0.54367 0.17379 0.0
H1319 H 0.26038 0.5622 0.21718 0.0
H1320 H 0.24751 0.54922 0.1261 0.0
H1321 H 0.24588 0.58309 0.089 0.0
C1322 C 0.5229 0.19579 0.1393 0.0
C1323 C 0.51124 0.15765 0.12649 0.0
C1324 C 0.49139 0.15186 0.18496 0.0
C1325 C 0.50606 0.18478 0.19938 0.0
N1326 N 0.53761 0.23572 0.19088 0.0
N1327 N 0.4862 0.09641 0.14045 0.0
C1328 C 0.52239 0.20592 0.17669 0.0
C1329 C 0.4961 0.13491 0.15035 0.0
N1330 N 0.533 0.22446 0.11604 0.0
N1331 N 0.47295 0.13507 0.20375 0.0
H1332 H 0.49068 0.08017 0.11676 0.0
H1333 H 0.47494 0.07916 0.15747 0.0
H1334 H 0.46735 0.1465 0.22879 0.0
H1335 H 0.46735 0.1465 0.22879 0.0
H1336 H 0.53914 0.25457 0.12425 0.0
H1337 H 0.53286 0.22111 0.08826 0.0
H1338 H 0.55215 0.24754 0.17682 0.0
H1339 H 0.53647 0.24672 0.21746 0.0
C1340 C 0.24744 0.11862 0.63488 0.0
C1341 C 0.25979 0.15663 0.62328 0.0
C1342 C 0.27898 0.15919 0.68249 0.0
C1343 C 0.26344 0.12694 0.6958 0.0
N1344 N 0.23083 0.07886 0.68507 0.0
N1345 N 0.28534 0.21627 0.63986 0.0
C1346 C 0.24696 0.10779 0.67213 0.0
C1347 C 0.27487 0.1778 0.64827 0.0
N1348 N 0.23779 0.09049 0.61067 0.0
N1349 N 0.29777 0.17364 0.70186 0.0
H1350 H 0.28128 0.23376 0.61661 0.0
H1351 H 0.29657 0.23231 0.65776 0.0
H1352 H 0.30304 0.16073 0.72657 0.0
H1353 H 0.30304 0.16073 0.72657 0.0
H1354 H 0.23081 0.06073 0.61817 0.0
H1355 H 0.23929 0.09369 0.58297 0.0
H1356 H 0.21637 0.06841 0.67002 0.0
H1357 H 0.23111 0.06735 0.71156 0.0
C1358 C 0.50028 0.63661 0.64701 0.0
C1359 C 0.51492 0.65934 0.62248 0.0
C1360 C 0.52686 0.70771 0.67202 0.0
C1361 C 0.51034 0.68758 0.69498 0.0
N1362 N 0.47596 0.64185 0.70018 0.0
N1363 N 0.5366 0.72611 0.61104 0.0
C1364 C 0.49522 0.6551 0.68113 0.0
C1365 C 0.52679 0.69754 0.63468 0.0
N1366 N 0.49203 0.59634 0.63861 0.0
N1367 N 0.54261 0.73688 0.68575 0.0
H1368 H 0.53584 0.72291 0.58326 0.0
H1369 H 0.54313 0.75604 0.61904 0.0
H1370 H 0.542 0.74781 0.71239 0.0
H1371 H 0.55708 0.7481 0.67118 0.0
H1372 H 0.48307 0.577 0.65713 0.0
H1373 H 0.49659 0.58025 0.61487 0.0
H1374 H 0.46344 0.62069 0.68957 0.0
H1375 H 0.47118 0.6553 0.72486 0.0
C1376 C 0.37674 0.40021 0.18945 0.0
C1377 C 0.36376 0.39444 0.22199 0.0
C1378 C 0.39897 0.41862 0.25613 0.0
C1379 C 0.41236 0.42007 0.22369 0.0
N1380 N 0.41503 0.40051 0.16087 0.0
N1381 N 0.36446 0.39026 0.287 0.0
C1382 C 0.4015 0.40745 0.19079 0.0
C1383 C 0.3754 0.40159 0.2556 0.0
N1384 N 0.3653 0.40078 0.157 0.0
N1385 N 0.40843 0.43467 0.28727 0.0
H1386 H 0.37279 0.39073 0.31206 0.0
H1387 H 0.34776 0.37629 0.28754 0.0
H1388 H 0.42545 0.44727 0.28859 0.0
H1389 H 0.39877 0.43876 0.31093 0.0
H1390 H 0.3735 0.40928 0.13285 0.0
H1391 H 0.34712 0.39764 0.15472 0.0
H1392 H 0.40845 0.38717 0.13707 0.0
H1393 H 0.43333 0.40323 0.16131 0.0
C1394 C 0.89893 0.91885 0.25942 0.0
C1395 C 0.91107 0.92284 0.22596 0.0
C1396 C 0.87429 0.90403 0.19409 0.0
C1397 C 0.86285 0.89504 0.22742 0.0
N1398 N 0.86585 0.88771 0.29211 0.0
N1399 N 0.91127 0.90839 0.16193 0.0
C1400 C 0.8756 0.90083 0.26024 0.0
C1401 C 0.89898 0.91232 0.19346 0.0
N1402 N 0.90924 0.93386 0.2903 0.0
N1403 N 0.86142 0.90673 0.16294 0.0
H1404 H 0.92949 0.91205 0.16053 0.0
H1405 H 0.9038 0.89662 0.13816 0.0
H1406 H 0.84316 0.90311 0.16219 0.0
H1407 H 0.8685 0.91751 0.1386 0.0
H1408 H 0.90043 0.93602 0.3149 0.0
H1409 H 0.92594 0.94785 0.2906 0.0
H1410 H 0.87513 0.8869 0.31637 0.0
H1411 H 0.8491 0.87399 0.29379 0.0
C1412 C 0.37935 0.94909 0.08133 0.0
C1413 C 0.36122 0.91757 0.08508 0.0
C1414 C 0.39179 0.8611 0.08092 0.0
C1415 C 0.40994 0.89261 0.08472 0.0
N1416 N 0.41977 0.96783 0.09486 0.0
N1417 N 0.35133 0.84224 0.0942 0.0
C1418 C 0.40344 0.93703 0.08632 0.0
C1419 C 0.36769 0.87312 0.08611 0.0
N1420 N 0.37367 0.99056 0.07213 0.0
N1421 N 0.39744 0.81972 0.0714 0.0
H1422 H 0.35578 0.81006 0.09901 0.0
H1423 H 0.33376 0.84919 0.09979 0.0
H1424 H 0.41465 0.81018 0.06555 0.0
H1425 H 0.3848 0.79641 0.06522 0.0
H1426 H 0.38631 1.01389 0.06601 0.0
H1427 H 0.35644 1.00017 0.06643 0.0
H1428 H 0.41528 0.99992 0.09998 0.0
H1429 H 0.43731 0.96083 0.10068 0.0
C1430 C 0.89701 0.39656 0.05648 0.0
C1431 C 0.9093 0.39162 0.0898 0.0
C1432 C 0.87252 0.40834 0.12222 0.0
C1433 C 0.86091 0.41844 0.0893 0.0
N1434 N 0.86339 0.42771 1.02483 0.0
N1435 N 0.90958 0.4041 0.1541 0.0
C1436 C 0.8735 0.41397 0.05626 0.0
C1437 C 0.89724 0.40071 0.12255 0.0
N1438 N 0.90738 0.38315 1.02518 0.0
N1439 N 0.85976 0.40423 0.15327 0.0
H1440 H 0.92785 0.40132 0.15517 0.0
H1441 H 0.90208 0.41476 0.17818 0.0
H1442 H 0.84147 0.4071 0.15373 0.0
H1443 H 0.86692 0.39291 0.1774 0.0
H1444 H 0.89856 0.38181 1.00053 0.0
H1445 H 0.92424 0.36982 1.02448 0.0
H1446 H 0.87246 0.42954 1.00045 0.0
H1447 H 0.84644 0.44062 1.02378 0.0
C1448 C 0.65051 0.65992 0.87332 0.0
C1449 C 0.66139 0.67307 0.84059 0.0
C1450 C 0.6248 0.6535 0.80815 0.0
C1451 C 0.61309 0.64571 0.84155 0.0
N1452 N 0.61412 0.6526 0.90654 0.0
N1453 N 0.65713 0.68956 0.77738 0.0
C1454 C 0.6258 0.65195 0.8743 0.0
C1455 C 0.64805 0.67176 0.80807 0.0
N1456 N 0.66394 0.65367 0.90352 0.0
N1457 N 0.61419 0.64189 0.77651 0.0
H1458 H 0.67365 0.70424 0.77676 0.0
H1459 H 0.64743 0.69343 0.75371 0.0
H1460 H 0.59772 0.62707 0.77562 0.0
H1461 H 0.6227 0.64297 0.75162 0.0
H1462 H 0.65735 0.64007 0.92719 0.0
H1463 H 0.68219 0.65746 0.90354 0.0
H1464 H 0.62215 0.66123 0.93081 0.0
H1465 H 0.59589 0.64961 0.9085 0.0
C1466 C 0.12505 0.13678 0.81166 0.0
C1467 C 0.11131 0.1389 0.8437 0.0
C1468 C 0.14627 0.16464 0.87674 0.0
C1469 C 0.15954 0.16701 0.84408 0.0
N1470 N 0.15916 0.1636 0.77898 0.0
N1471 N 0.10769 0.16508 0.90464 0.0
C1472 C 0.14826 0.15527 0.81107 0.0
C1473 C 0.12161 0.156 0.87553 0.0
N1474 N 0.11631 0.11585 0.78211 0.0
N1475 N 0.15733 0.1682 0.90938 0.0
H1476 H 0.0895 0.16029 0.90444 0.0
H1477 H 0.11374 0.18169 0.92731 0.0
H1478 H 0.17543 0.17221 0.91198 0.0
H1479 H 0.14895 0.16216 0.93389 0.0
H1480 H 0.12632 0.10933 0.75918 0.0
H1481 H 0.09966 0.10162 0.78189 0.0
H1482 H 0.15097 0.15952 0.75403 0.0
H1483 H 0.17547 0.1789 0.7774 0.0
C1484 C 0.62392 0.15348 0.94641 0.0
C1485 C 0.61281 0.16775 0.97857 0.0
C1486 C 0.64952 0.15109 1.01182 0.0
C1487 C 0.66137 0.14227 0.97872 0.0
N1488 N 0.66045 0.147 0.91362 0.0
N1489 N 0.61661 0.18707 0.0413 0.0
C1490 C 0.6487 0.14684 0.94578 0.0
C1491 C 0.62604 0.16843 1.01121 0.0
N1492 N 0.61066 0.14476 0.91652 0.0
N1493 N 0.66019 0.14129 0.04381 0.0
H1494 H 0.59986 0.20085 0.0414 0.0
H1495 H 0.62618 0.19233 0.06491 0.0
H1496 H 0.67683 0.12718 0.04515 0.0
H1497 H 0.65163 0.14319 0.06863 0.0
H1498 H 0.61754 0.13052 0.89329 0.0
H1499 H 0.59234 0.1469 0.91668 0.0
H1500 H 0.65233 0.15421 0.88909 0.0
H1501 H 0.67873 0.14522 0.91198 0.0
C1502 C 0.12014 0.64838 0.94429 0.0
C1503 C 0.11206 0.67459 0.97305 0.0
C1504 C 0.15314 0.68195 0.99483 0.0
C1505 C 0.16113 0.65326 0.96705 0.0
N1506 N 0.15298 0.62801 0.90656 0.0
N1507 N 0.11996 0.71233 1.02831 0.0
C1508 C 0.14477 0.6415 0.9394 0.0
C1509 C 0.12834 0.69021 0.99907 0.0
N1510 N 0.10415 0.6291 0.92184 0.0
N1511 N 0.16905 0.70487 1.01479 0.0
H1512 H 0.1021 0.71929 1.03169 0.0
H1513 H 0.13018 0.72039 0.05067 0.0
H1514 H 0.16443 0.72827 0.03367 0.0
H1515 H 0.1869 0.70585 1.00892 0.0
H1516 H 0.10872 0.6057 0.90286 0.0
H1517 H 0.086 0.63319 0.92467 0.0
H1518 H 0.14216 0.62267 0.88427 0.0
H1519 H 0.17083 0.62841 0.89986 0.0
C1520 C 0.39314 0.95213 0.73306 0.0
C1521 C 0.41163 0.92135 0.72918 0.0
C1522 C 0.38171 0.86379 0.73334 0.0
C1523 C 0.36321 0.89452 0.72931 0.0
N1524 N 0.35259 0.9694 0.71909 0.0
N1525 N 0.4222 0.84638 0.71933 0.0
C1526 C 0.36921 0.93919 0.72776 0.0
C1527 C 0.40562 0.87668 0.72791 0.0
N1528 N 0.39828 0.99365 0.74284 0.0
N1529 N 0.37657 0.82233 0.74326 0.0
H1530 H 0.418 0.81406 0.7146 0.0
H1531 H 0.43959 0.85395 0.71299 0.0
H1532 H 0.3595 0.81223 0.74939 0.0
H1533 H 0.38952 0.79963 0.74952 0.0
H1534 H 0.38533 1.01641 0.74891 0.0
H1535 H 0.41534 1.0037 0.74916 0.0
H1536 H 0.35679 1.00166 0.71411 0.0
H1537 H 0.33516 0.96179 0.71307 0.0
C1538 C 0.89811 0.41272 0.69322 0.0
C1539 C 0.9101 0.42308 0.72582 0.0
C1540 C 0.8749 0.39897 0.75969 0.0
C1541 C 0.86217 0.39353 0.72688 0.0
N1542 N 0.86057 0.40685 0.66275 0.0
N1543 N 0.90748 0.43488 0.78998 0.0
C1544 C 0.8735 0.40382 0.69377 0.0
C1545 C 0.89782 0.4186 0.75912 0.0
N1546 N 0.9104 0.40962 0.66164 0.0
N1547 N 0.86563 0.3839 0.79122 0.0
H1548 H 0.89851 0.43601 0.8145 0.0
H1549 H 0.92343 0.45152 0.78999 0.0
H1550 H 0.84946 0.36801 0.79224 0.0
H1551 H 0.87498 0.38333 0.81543 0.0
H1552 H 0.90299 0.39811 0.63773 0.0
H1553 H 0.92858 0.41374 0.66036 0.0
H1554 H 0.86749 0.41819 0.63848 0.0
H1555 H 0.84233 0.40299 0.66235 0.0
C1556 C 0.37512 0.41843 0.56061 0.0
C1557 C 0.36258 0.42222 0.59372 0.0
C1558 C 0.39899 0.40215 0.62609 0.0
C1559 C 0.41058 0.39265 0.59296 0.0
N1560 N 0.40713 0.3833 0.52858 0.0
N1561 N 0.36182 0.40743 0.65771 0.0
C1562 C 0.39794 0.3985 0.56011 0.0
C1563 C 0.37434 0.41113 0.62638 0.0
N1564 N 0.36583 0.43568 0.52986 0.0
N1565 N 0.41168 0.40444 0.6574 0.0
H1566 H 0.34364 0.41176 0.65889 0.0
H1567 H 0.36905 0.39532 0.68153 0.0
H1568 H 0.42989 0.40036 0.65821 0.0
H1569 H 0.40456 0.41533 0.68169 0.0
H1570 H 0.37502 0.43715 0.50554 0.0
H1571 H 0.35009 0.45296 0.52991 0.0
H1572 H 0.39784 0.38326 0.5043 0.0
H1573 H 0.42297 0.36635 0.52771 0.0
C1574 C 0.87595 0.92319 0.62239 0.0
C1575 C 0.86241 0.92571 0.58999 0.0
C1576 C 0.89648 0.8949 0.557 0.0
C1577 C 0.91046 0.8968 0.58884 0.0
N1578 N 0.91479 0.92375 0.64943 0.0
N1579 N 0.86217 0.92214 0.52493 0.0
C1580 C 0.90055 0.91437 0.62073 0.0
C1581 C 0.87334 0.91372 0.5568 0.0
N1582 N 0.86517 0.92681 0.65521 0.0
N1583 N 0.90497 0.87404 0.52727 0.0
H1584 H 0.84594 0.93773 0.52374 0.0
H1585 H 0.87007 0.91782 0.49981 0.0
H1586 H 0.92165 0.85995 0.52669 0.0
H1587 H 0.89477 0.86766 0.50448 0.0
H1588 H 0.87378 0.9209 0.67958 0.0
H1589 H 0.84707 0.93065 0.65806 0.0
H1590 H 0.90897 0.94049 0.67216 0.0
H1591 H 0.93299 0.91927 0.64862 0.0
C1592 C 0.63117 0.11469 0.33004 0.0
C1593 C 0.61228 0.14451 0.33463 0.0
C1594 C 0.64134 0.20364 0.3306 0.0
C1595 C 0.66035 0.17378 0.33352 0.0
N1596 N 0.67222 0.09928 0.34218 0.0
N1597 N 0.60079 0.21869 0.34607 0.0
C1598 C 0.65501 0.12878 0.3346 0.0
C1599 C 0.61769 0.18944 0.33646 0.0
N1600 N 0.62647 0.07296 0.32035 0.0
N1601 N 0.64575 0.24565 0.32145 0.0
H1602 H 0.58362 0.2101 0.35285 0.0
H1603 H 0.60458 0.25108 0.35127 0.0
H1604 H 0.6626 0.25678 0.31507 0.0
H1605 H 0.63241 0.26788 0.31599 0.0
H1606 H 0.63963 0.05087 0.31363 0.0
H1607 H 0.60946 0.06198 0.31489 0.0
H1608 H 0.68965 0.10767 0.34741 0.0
H1609 H 0.66863 0.06674 0.34697 0.0
C1610 C 0.1392 0.70367 0.33677 0.0
C1611 C 0.15807 0.67386 0.34178 0.0
C1612 C 0.12925 0.61482 0.33497 0.0
C1613 C 0.11014 0.64439 0.33789 0.0
N1614 N 0.09801 0.71852 0.34795 0.0
N1615 N 0.16933 0.59937 0.35267 0.0
C1616 C 0.11535 0.68935 0.34028 0.0
C1617 C 0.15269 0.62888 0.34254 0.0
N1618 N 0.14389 0.7455 0.32743 0.0
N1619 N 0.12515 0.57335 0.32404 0.0
H1620 H 0.18622 0.6078 0.36113 0.0
H1621 H 0.16542 0.56681 0.35675 0.0
H1622 H 0.1085 0.56276 0.31598 0.0
H1623 H 0.13866 0.55143 0.31873 0.0
H1624 H 0.13072 0.76755 0.32062 0.0
H1625 H 0.16089 0.75654 0.32208 0.0
H1626 H 0.08054 0.7099 0.35255 0.0
H1627 H 0.10152 0.75093 0.3535 0.0
C1628 C 0.65733 0.68566 0.47744 0.0
C1629 C 0.66253 0.64061 0.47873 0.0
C1630 C 0.61974 0.6256 0.47658 0.0
C1631 C 0.61455 0.67062 0.47867 0.0
N1632 N 0.62932 0.74192 0.49255 0.0
N1633 N 0.64771 0.56884 0.49068 0.0
C1634 C 0.63365 0.70012 0.48271 0.0
C1635 C 0.64342 0.61096 0.48178 0.0
N1636 N 0.67451 0.71486 0.46896 0.0
N1637 N 0.60255 0.59667 0.46746 0.0
H1638 H 0.66455 0.55735 0.49668 0.0
H1639 H 0.63433 0.54678 0.49631 0.0
H1640 H 0.60608 0.56425 0.46204 0.0
H1641 H 0.5853 0.60557 0.46139 0.0
H1642 H 0.67096 0.74742 0.46419 0.0
H1643 H 0.69174 0.70613 0.46265 0.0
H1644 H 0.6427 0.76376 0.49886 0.0
H1645 H 0.61246 0.75321 0.4986 0.0
C1646 C 0.15009 0.15755 0.43905 0.0
C1647 C 0.16138 0.1466 0.47213 0.0
C1648 C 0.12578 0.17141 0.50453 0.0
C1649 C 0.11356 0.17689 0.47128 0.0
N1650 N 0.11322 0.16505 0.40687 0.0
N1651 N 0.15749 0.13465 0.53612 0.0
C1652 C 0.12551 0.16703 0.43855 0.0
C1653 C 0.14853 0.15123 0.50488 0.0
N1654 N 0.16303 0.16075 0.40808 0.0
N1655 N 0.11623 0.18722 0.53562 0.0
H1656 H 0.17328 0.1175 0.53676 0.0
H1657 H 0.14806 0.13373 0.56023 0.0
H1658 H 0.12523 0.18759 0.56016 0.0
H1659 H 0.10038 0.20419 0.5359 0.0
H1660 H 0.15618 0.17273 0.38395 0.0
H1661 H 0.18121 0.1562 0.4075 0.0
H1662 H 0.12053 0.15385 0.38282 0.0
H1663 H 0.09508 0.16991 0.40549 0.0
C1664 C 0.35233 0.13206 0.1622 0.0
C1665 C 0.33059 0.10943 0.16425 0.0
C1666 C 0.30929 0.17566 0.15097 0.0
C1667 C 0.33054 0.19955 0.15141 0.0
N1668 N 0.37266 0.19789 0.14451 0.0
N1669 N 0.28929 0.11649 0.1794 0.0
C1670 C 0.3523 0.17701 0.15354 0.0
C1671 C 0.30931 0.13324 0.16456 0.0
N1672 N 0.37272 0.11126 0.17125 0.0
N1673 N 0.28932 0.19224 0.13581 0.0
H1674 H 0.28942 0.08811 0.1946 0.0
H1675 H 0.27372 0.13425 0.18145 0.0
H1676 H 0.28946 0.22063 0.12062 0.0
H1677 H 0.27379 0.17437 0.13356 0.0
H1678 H 0.38903 0.12648 0.1731 0.0
H1679 H 0.37273 0.07979 0.18141 0.0
H1680 H 0.38899 0.18273 0.1427 0.0
H1681 H 0.37263 0.22934 0.13432 0.0
C1682 C 0.92664 0.13226 0.12431 0.0
C1683 C 0.92894 0.11074 0.15777 0.0
C1684 C 0.92921 0.17974 0.18999 0.0
C1685 C 0.92795 0.20138 0.15643 0.0
N1686 N 0.91752 0.19914 0.09324 0.0
N1687 N 0.92416 0.11233 0.22243 0.0
C1688 C 0.92389 0.17788 0.12407 0.0
C1689 C 0.92741 0.134 0.19068 0.0
N1690 N 0.92805 0.10934 0.09285 0.0
N1691 N 0.93297 0.20276 0.22095 0.0
H1692 H 0.92313 0.07871 0.22387 0.0
H1693 H 0.92067 0.12776 0.24685 0.0
H1694 H 0.93328 0.23649 0.22142 0.0
H1695 H 0.93693 0.18843 0.24568 0.0
H1696 H 0.92942 0.12376 0.06753 0.0
H1697 H 0.92912 0.07566 0.09233 0.0
H1698 H 0.91219 0.18337 0.06977 0.0
H1699 H 0.91587 0.23266 0.09188 0.0
C1700 C 0.67402 0.92754 0.94448 0.0
C1701 C 0.67862 0.95196 0.9128 0.0
C1702 C 0.6775 0.88557 0.87736 0.0
C1703 C 0.67949 0.86141 0.90973 0.0
N1704 N 0.67877 0.85853 0.97465 0.0
N1705 N 0.68366 0.95482 0.84831 0.0
C1706 C 0.67717 0.88205 0.94354 0.0
C1707 C 0.67974 0.9312 0.87886 0.0
N1708 N 0.6664 0.94765 0.97513 0.0
N1709 N 0.67327 0.86493 0.84542 0.0
H1710 H 0.68431 0.98855 0.84845 0.0
H1711 H 0.68738 0.94083 0.82336 0.0
H1712 H 0.67173 0.83139 0.84352 0.0
H1713 H 0.6694 0.88128 0.82154 0.0
H1714 H 0.66094 0.93093 0.99807 0.0
H1715 H 0.66355 0.9809 0.97644 0.0
H1716 H 0.67999 0.87262 1.00014 0.0
H1717 H 0.6802 0.82489 0.97466 0.0
C1718 C 0.09759 0.93113 0.8795 0.0
C1719 C 0.09334 0.95174 0.91307 0.0
C1720 C 0.09527 0.88199 0.94354 0.0
C1721 C 0.09357 0.86136 0.90943 0.0
N1722 N 0.09421 0.86507 0.84457 0.0
N1723 N 0.08933 0.94809 0.97763 0.0
C1724 C 0.09547 0.88551 0.87721 0.0
C1725 C 0.09294 0.92761 0.94543 0.0
N1726 N 0.10356 0.95522 0.84999 0.0
N1727 N 0.09903 0.85791 0.97393 0.0
H1728 H 0.08853 0.98171 0.97979 0.0
H1729 H 0.08609 0.93182 1.00174 0.0
H1730 H 0.10049 0.8243 0.97336 0.0
H1731 H 0.10254 0.87142 0.99913 0.0
H1732 H 0.10895 0.94171 0.82559 0.0
H1733 H 0.10495 0.98883 0.85083 0.0
H1734 H 0.09263 0.88142 0.8201 0.0
H1735 H 0.09359 0.83146 0.84223 0.0
C1736 C 0.34119 0.6802 0.62825 0.0
C1737 C 0.34427 0.70163 0.66168 0.0
C1738 C 0.34575 0.63199 0.69316 0.0
C1739 C 0.34186 0.61079 0.65991 0.0
N1740 N 0.34531 0.61316 0.59505 0.0
N1741 N 0.35871 0.69734 0.72308 0.0
C1742 C 0.34269 0.63441 0.62712 0.0
C1743 C 0.34967 0.67737 0.69325 0.0
N1744 N 0.33634 0.70342 0.59778 0.0
N1745 N 0.34499 0.60912 0.72468 0.0
H1746 H 0.36174 0.7305 0.72435 0.0
H1747 H 0.36499 0.68051 0.74547 0.0
H1748 H 0.34297 0.57559 0.72534 0.0
H1749 H 0.34492 0.62371 0.75004 0.0
H1750 H 0.33118 0.68915 0.57353 0.0
H1751 H 0.33637 0.73716 0.59734 0.0
H1752 H 0.34846 0.62901 0.5707 0.0
H1753 H 0.34616 0.57954 0.59323 0.0
C1754 C 0.92637 0.63313 0.6231 0.0
C1755 C 0.92793 0.61203 0.65684 0.0
C1756 C 0.92744 0.6815 0.68835 0.0
C1757 C 0.9269 0.70271 0.65456 0.0
N1758 N 0.91704 0.6993 0.5912 0.0
N1759 N 0.92089 0.61471 0.72098 0.0
C1760 C 0.92335 0.67869 0.62234 0.0
C1761 C 0.92541 0.63579 0.68935 0.0
N1762 N 0.92863 0.60994 0.59191 0.0
N1763 N 0.93064 0.70482 0.71929 0.0
H1764 H 0.91958 0.58113 0.72265 0.0
H1765 H 0.91662 0.63067 0.74487 0.0
H1766 H 0.93114 0.73855 0.71949 0.0
H1767 H 0.934 0.69063 0.74428 0.0
H1768 H 0.93049 0.62423 0.5666 0.0
H1769 H 0.92994 0.57628 0.59169 0.0
H1770 H 0.91204 0.68296 0.56782 0.0
H1771 H 0.91508 0.73274 0.58951 0.0
C1772 C 0.67462 0.42144 0.45438 0.0
C1773 C 0.67885 0.44779 0.42384 0.0
C1774 C 0.67378 0.38491 0.38476 0.0
C1775 C 0.67677 0.35805 0.41541 0.0
N1776 N 0.67773 0.34944 0.47995 0.0
N1777 N 0.67752 0.45684 0.35927 0.0
C1778 C 0.67604 0.37586 0.45053 0.0
C1779 C 0.6767 0.43026 0.38865 0.0
N1780 N 0.66963 0.44008 0.48691 0.0
N1781 N 0.66782 0.36696 0.35233 0.0
H1782 H 0.6769 0.49044 0.36161 0.0
H1783 H 0.67913 0.44568 0.33286 0.0
H1784 H 0.66554 0.33374 0.34898 0.0
H1785 H 0.66338 0.385 0.32959 0.0
H1786 H 0.66471 0.4225 0.50966 0.0
H1787 H 0.66847 0.47356 0.49004 0.0
H1788 H 0.68 0.3609 0.50617 0.0
H1789 H 0.6779 0.3158 0.47772 0.0
C1790 C 0.0949 0.38934 0.37238 0.0
C1791 C 0.09463 0.36613 0.40519 0.0
C1792 C 0.09534 0.43346 0.43976 0.0
C1793 C 0.09422 0.45668 0.40697 0.0
N1794 N 0.10194 0.45805 0.34296 0.0
N1795 N 0.10372 0.36493 0.46877 0.0
C1796 C 0.09712 0.435 0.3735 0.0
C1797 C 0.09799 0.38787 0.43851 0.0
N1798 N 0.09209 0.36799 0.34038 0.0
N1799 N 0.09296 0.45469 0.47188 0.0
H1800 H 0.1055 0.33136 0.4687 0.0
H1801 H 0.10853 0.37944 0.49306 0.0
H1802 H 0.09194 0.48832 0.47354 0.0
H1803 H 0.09083 0.43887 0.49649 0.0
H1804 H 0.08932 0.38369 0.31585 0.0
H1805 H 0.09136 0.33433 0.33877 0.0
H1806 H 0.10646 0.44368 0.31849 0.0
H1807 H 0.10322 0.49164 0.34287 0.0
C1808 C 0.8471 0.13339 0.69205 0.0
C1809 C 0.84406 0.11173 0.6588 0.0
C1810 C 0.84389 0.1804 0.62622 0.0
C1811 C 0.84558 0.20224 0.65964 0.0
N1812 N 0.85734 0.20032 0.72224 0.0
N1813 N 0.84863 0.11267 0.59415 0.0
C1814 C 0.85016 0.17894 0.6919 0.0
C1815 C 0.84552 0.13467 0.62576 0.0
N1816 N 0.846 0.11077 0.72367 0.0
N1817 N 0.83987 0.20321 0.59525 0.0
H1818 H 0.84974 0.07902 0.59307 0.0
H1819 H 0.85205 0.12787 0.56961 0.0
H1820 H 0.83966 0.23695 0.59465 0.0
H1821 H 0.83567 0.18867 0.57069 0.0
H1822 H 0.84523 0.12546 0.74895 0.0
H1823 H 0.84463 0.07713 0.7244 0.0
H1824 H 0.86299 0.18461 0.74557 0.0
H1825 H 0.8594 0.23379 0.72315 0.0
C1826 C 0.43162 0.13301 0.62713 0.0
C1827 C 0.4319 0.11145 0.66078 0.0
C1828 C 0.43176 0.18079 0.6927 0.0
C1829 C 0.43217 0.20232 0.65905 0.0
N1830 N 0.42387 0.19982 0.59517 0.0
N1831 N 0.42362 0.11418 0.72466 0.0
C1832 C 0.42919 0.17869 0.62651 0.0
C1833 C 0.42906 0.13516 0.69332 0.0
N1834 N 0.43439 0.11006 0.59591 0.0
N1835 N 0.4347 0.20369 0.72391 0.0
H1836 H 0.42204 0.08069 0.72633 0.0
H1837 H 0.41901 0.13025 0.74835 0.0
H1838 H 0.43579 0.23737 0.72436 0.0
H1839 H 0.43738 0.18914 0.74895 0.0
H1840 H 0.43714 0.12456 0.57088 0.0
H1841 H 0.43523 0.07636 0.59544 0.0
H1842 H 0.41917 0.18386 0.57145 0.0
H1843 H 0.42243 0.23336 0.59354 0.0
C1844 C 0.17585 0.88876 0.37554 0.0
C1845 C 0.17954 0.86635 0.40854 0.0
C1846 C 0.17878 0.93512 0.44085 0.0
C1847 C 0.18101 0.95715 0.40742 0.0
N1848 N 0.18126 0.95568 0.34247 0.0
N1849 N 0.18404 0.86764 0.47316 0.0
C1850 C 0.17913 0.93425 0.37454 0.0
C1851 C 0.1806 0.88935 0.44148 0.0
N1852 N 0.1691 0.86669 0.34533 0.0
N1853 N 0.17475 0.9579 0.47184 0.0
H1854 H 0.18445 0.83395 0.4746 0.0
H1855 H 0.18773 0.88308 0.49753 0.0
H1856 H 0.17375 0.99156 0.47243 0.0
H1857 H 0.17064 0.94326 0.49637 0.0
H1858 H 0.16391 0.8819 0.32152 0.0
H1859 H 0.16696 0.83324 0.34488 0.0
H1860 H 0.18286 0.93997 0.3177 0.0
H1861 H 0.18277 0.98926 0.34093 0.0
C1862 C 0.59541 0.92817 0.37162 0.0
C1863 C 0.59458 0.9533 0.40364 0.0
C1864 C 0.60014 0.88787 0.43953 0.0
C1865 C 0.59531 0.8626 0.40836 0.0
N1866 N 0.58862 0.85807 0.34426 0.0
N1867 N 0.59636 0.95788 0.46845 0.0
C1868 C 0.59327 0.88254 0.37414 0.0
C1869 C 0.59727 0.93344 0.43775 0.0
N1870 N 0.59843 0.94783 0.33892 0.0
N1871 N 0.60759 0.86851 0.47064 0.0
H1872 H 0.59524 0.99155 0.46791 0.0
H1873 H 0.59534 0.94462 0.49426 0.0
H1874 H 0.60954 0.83516 0.4732 0.0
H1875 H 0.61355 0.88573 0.49303 0.0
H1876 H 0.60157 0.93083 0.31513 0.0
H1877 H 0.59958 0.98128 0.33598 0.0
H1878 H 0.58411 0.8713 0.31932 0.0
H1879 H 0.58808 0.82435 0.34497 0.0
C1880 C 0.849 0.63808 0.13104 0.0
C1881 C 0.84319 0.61019 0.16013 0.0
C1882 C 0.84169 0.67195 0.20116 0.0
C1883 C 0.84268 0.69999 0.17082 0.0
N1884 N 0.84749 0.71089 0.10689 0.0
N1885 N 0.83421 0.59934 0.22298 0.0
C1886 C 0.84667 0.68341 0.13576 0.0
C1887 C 0.83991 0.62674 0.19537 0.0
N1888 N 0.85668 0.62126 0.09903 0.0
N1889 N 0.84228 0.68842 0.23541 0.0
H1890 H 0.83407 0.56578 0.22 0.0
H1891 H 0.82851 0.60983 0.24822 0.0
H1892 H 0.84236 0.72141 0.24101 0.0
H1893 H 0.84422 0.66934 0.25838 0.0
H1894 H 0.86333 0.64004 0.07806 0.0
H1895 H 0.85817 0.58815 0.09436 0.0
H1896 H 0.84737 0.7005 0.08014 0.0
H1897 H 0.84706 0.74446 0.10968 0.0
C1898 C 0.42912 0.6327 0.13155 0.0
C1899 C 0.43323 0.6143 0.16593 0.0
C1900 C 0.43553 0.68629 0.19318 0.0
C1901 C 0.43184 0.70473 0.15869 0.0
N1902 N 0.41768 0.69617 0.09754 0.0
N1903 N 0.43305 0.62249 0.23083 0.0
C1904 C 0.4261 0.67814 0.12866 0.0
C1905 C 0.43395 0.64076 0.19726 0.0
N1906 N 0.42879 0.60693 0.10157 0.0
N1907 N 0.44123 0.71218 0.2218 0.0
H1908 H 0.43287 0.58919 0.23512 0.0
H1909 H 0.43095 0.64037 0.25444 0.0
H1910 H 0.44127 0.74586 0.22015 0.0
H1911 H 0.44709 0.70026 0.24653 0.0
H1912 H 0.42877 0.61899 0.07532 0.0
H1913 H 0.42994 0.5733 0.10297 0.0
H1914 H 0.411 0.67806 0.07615 0.0
H1915 H 0.41566 0.72938 0.09407 0.0
C1916 C 0.21254 0.38606 0.91488 0.0
C1917 C 0.1914 0.36199 0.91295 0.0
C1918 C 0.1698 0.42901 0.89986 0.0
C1919 C 0.19151 0.4518 0.89912 0.0
N1920 N 0.23335 0.44504 0.88761 0.0
N1921 N 0.14911 0.36336 0.91693 0.0
C1922 C 0.21288 0.42831 0.90094 0.0
C1923 C 0.16967 0.38425 0.90904 0.0
N1924 N 0.23203 0.36964 0.93156 0.0
N1925 N 0.14965 0.44954 0.88923 0.0
H1926 H 0.14893 0.33214 0.92762 0.0
H1927 H 0.1327 0.37837 0.91737 0.0
H1928 H 0.14986 0.48099 0.87902 0.0
H1929 H 0.13345 0.43415 0.88631 0.0
H1930 H 0.24747 0.38752 0.93488 0.0
H1931 H 0.23144 0.34124 0.94672 0.0
H1932 H 0.24904 0.42747 0.88712 0.0
H1933 H 0.23369 0.47302 0.87191 0.0
C1934 C 0.60404 0.38541 0.90432 0.0
C1935 C 0.58254 0.36212 0.90172 0.0
C1936 C 0.56045 0.42762 0.91388 0.0
C1937 C 0.58145 0.45218 0.91404 0.0
N1938 N 0.6235 0.45198 0.9224 0.0
N1939 N 0.54145 0.36772 0.88492 0.0
C1940 C 0.60347 0.4304 0.91275 0.0
C1941 C 0.56106 0.38523 0.90043 0.0
N1942 N 0.62472 0.3652 0.89597 0.0
N1943 N 0.54014 0.44357 0.92837 0.0
H1944 H 0.54209 0.3391 0.87004 0.0
H1945 H 0.52572 0.3849 0.88222 0.0
H1946 H 0.53982 0.47205 0.94346 0.0
H1947 H 0.52475 0.42523 0.93012 0.0
H1948 H 0.64091 0.38092 0.89459 0.0
H1949 H 0.62512 0.33372 0.88585 0.0
H1950 H 0.63995 0.43738 0.92476 0.0
H1951 H 0.62302 0.48342 0.9326 0.0
C1952 C 0.27562 0.20029 0.37057 0.0
C1953 C 0.25423 0.17564 0.37086 0.0
C1954 C 0.24592 0.2066 0.30931 0.0
C1955 C 0.26578 0.23472 0.31114 0.0
N1956 N 0.29799 0.26153 0.34697 0.0
N1957 N 0.21679 0.16348 0.34119 0.0
C1958 C 0.28007 0.23246 0.34288 0.0
C1959 C 0.23892 0.18077 0.34019 0.0
N1960 N 0.29254 0.19141 0.39574 0.0
N1961 N 0.23352 0.20428 0.27775 0.0
H1962 H 0.21034 0.14592 0.36296 0.0
H1963 H 0.20388 0.17025 0.32201 0.0
H1964 H 0.23748 0.22341 0.25536 0.0
H1965 H 0.2207 0.18094 0.27275 0.0
H1966 H 0.30938 0.20475 0.39511 0.0
H1967 H 0.29073 0.16699 0.41493 0.0
H1968 H 0.30719 0.2656 0.37107 0.0
H1969 H 0.3025 0.28389 0.32707 0.0
C1970 C 0.99836 0.12889 0.36656 0.0
C1971 C 0.02066 0.1505 0.36813 0.0
C1972 C 0.02997 0.11591 0.30837 0.0
C1973 C 1.00891 0.09081 0.30911 0.0
N1974 N 0.97423 0.07036 0.34222 0.0
N1975 N 0.05929 0.15769 0.34126 0.0
C1976 C 0.99352 0.09652 0.33923 0.0
C1977 C 0.03676 0.14241 0.33897 0.0
N1978 N 0.9811 0.14088 0.39022 0.0
N1979 N 0.04364 0.11472 0.27807 0.0
H1980 H 0.06533 0.17646 0.3626 0.0
H1981 H 0.07267 0.14857 0.32362 0.0
H1982 H 0.03978 0.09492 0.25604 0.0
H1983 H 0.05762 0.13584 0.27351 0.0
H1984 H 0.96378 0.13 0.38852 0.0
H1985 H 0.98341 0.1654 0.40922 0.0
H1986 H 0.96389 0.06867 0.3654 0.0
H1987 H 0.96954 0.04788 0.32249 0.0
C1988 C 0.28243 0.08888 0.9777 0.0
C1989 C 0.26541 0.0796 1.00515 0.0
C1990 C 0.23679 0.12517 0.97084 0.0
C1991 C 0.25393 0.13595 0.94388 0.0
N1992 N 0.29466 0.1332 0.92626 0.0
N1993 N 0.2284 0.09946 1.03173 0.0
C1994 C 0.27719 0.11905 0.9487 0.0
C1995 C 0.24324 0.10096 1.00274 0.0
N1996 N 0.30366 0.06812 0.97888 0.0
N1997 N 0.21376 0.13587 0.96517 0.0
H1998 H 0.23254 0.08266 0.05533 0.0
H1999 H 0.21318 0.11812 0.03372 0.0
H2000 H 0.2081 0.15229 0.94228 0.0
H2001 H 0.2 0.12477 0.98129 0.0
H2002 H 0.316 0.06917 0.95815 0.0
H2003 H 0.30827 0.0468 0.99951 0.0
H2004 H 0.31243 0.1263 0.93 0.0
H2005 H 0.29162 0.15524 0.90546 0.0
C2006 C 0.99646 0.18665 0.94917 0.0
C2007 C 0.01884 0.16539 0.94734 0.0
C2008 C 0.02832 0.19984 1.00709 0.0
C2009 C 1.00715 0.22462 1.00663 0.0
N2010 N 0.97225 0.2448 0.97388 0.0
N2011 N 0.05772 0.15901 0.97366 0.0
C2012 C 0.99163 0.21885 0.97664 0.0
C2013 C 0.03509 0.1737 0.97631 0.0
N2014 N 0.97913 0.17452 0.92564 0.0
N2015 N 0.0421 0.20094 0.03732 0.0
H2016 H 0.06382 0.14072 0.95206 0.0
H2017 H 0.07113 0.16831 0.99122 0.0
H2018 H 0.03818 0.22036 0.05956 0.0
H2019 H 0.05621 0.18003 0.04161 0.0
H2020 H 0.96176 0.18514 0.92755 0.0
H2021 H 0.98143 0.15014 0.90653 0.0
H2022 H 0.96178 0.24643 0.95081 0.0
H2023 H 0.96761 0.26721 0.99369 0.0
C2024 C 0.78138 0.86139 0.75289 0.0
C2025 C 0.7593 0.83959 0.7548 0.0
C2026 C 0.74731 0.88022 0.69905 0.0
C2027 C 0.7704 0.89806 0.69471 0.0
N2028 N 0.8105 0.89906 0.7165 0.0
N2029 N 0.72143 0.82705 0.72752 0.0
C2030 C 0.78761 0.88706 0.72161 0.0
C2031 C 0.74235 0.84891 0.72726 0.0
N2032 N 0.79635 0.85873 0.7817 0.0
N2033 N 0.72965 0.89471 0.67708 0.0
H2034 H 0.71694 0.80497 0.74765 0.0
H2035 H 0.70933 0.82796 0.70641 0.0
H2036 H 0.73237 0.91791 0.65709 0.0
H2037 H 0.71196 0.88707 0.68073 0.0
H2038 H 0.81146 0.87757 0.78428 0.0
H2039 H 0.79249 0.84047 0.80463 0.0
H2040 H 0.82439 0.88779 0.73231 0.0
H2041 H 0.81599 0.9172 0.69446 0.0
C2042 C 0.02968 0.96644 0.72871 0.0
C2043 C 0.0131 0.97445 0.75701 0.0
C2044 C 0.9846 0.92733 0.72352 0.0
C2045 C 1.00149 0.91763 0.6958 0.0
N2046 N 0.04208 0.92216 0.67749 0.0
N2047 N 0.97656 0.9536 0.7845 0.0
C2048 C 0.02455 0.93581 0.70002 0.0
C2049 C 0.99112 0.95221 0.7552 0.0
N2050 N 0.05039 0.98895 0.7287 0.0
N2051 N 0.96172 0.91476 0.71902 0.0
H2052 H 0.98062 0.97125 0.80771 0.0
H2053 H 0.96162 0.93431 0.78716 0.0
H2054 H 0.95594 0.89658 0.69713 0.0
H2055 H 0.94801 0.92544 0.73542 0.0
H2056 H 0.06213 0.98902 0.70713 0.0
H2057 H 0.05498 1.01066 0.74908 0.0
H2058 H 0.05976 0.93007 0.68098 0.0
H2059 H 0.03935 0.89922 0.65728 0.0
C2060 C 0.75756 0.90539 0.09618 0.0
C2061 C 0.77276 0.91922 0.12465 0.0
C2062 C 0.78224 0.98314 0.08586 0.0
C2063 C 0.76323 0.97405 0.06162 0.0
N2064 N 0.75267 0.90799 1.03165 0.0
N2065 N 0.80097 0.97294 0.14431 0.0
C2066 C 0.75579 0.92992 0.06311 0.0
C2067 C 0.78539 0.9587 0.11883 0.0
N2068 N 0.74472 0.86845 0.10013 0.0
N2069 N 0.79969 1.01033 0.07451 0.0
H2070 H 0.80557 0.95506 0.16707 0.0
H2071 H 0.80842 1.00373 0.1436 0.0
H2072 H 0.79958 1.02403 0.04876 0.0
H2073 H 0.81539 1.01505 0.08857 0.0
H2074 H 0.73209 0.85896 0.08123 0.0
H2075 H 0.74535 0.84965 0.12349 0.0
H2076 H 0.74912 0.87493 1.03065 0.0
H2077 H 0.758 0.9214 1.00715 0.0
C2078 C 0.02974 0.84238 0.09114 0.0
C2079 C 0.01449 0.83812 0.06061 0.0
C2080 C 0.98692 0.88952 0.09118 0.0
C2081 C 1.003 0.89651 0.12061 0.0
N2082 N 0.04222 0.88458 0.14343 0.0
N2083 N 0.98003 0.86376 1.0297 0.0
C2084 C 0.02505 0.87406 0.1191 0.0
C2085 C 0.99363 0.86376 0.06014 0.0
N2086 N 0.04877 0.81554 0.09386 0.0
N2087 N 0.96446 0.90505 0.09365 0.0
H2088 H 0.98377 0.84442 1.00734 0.0
H2089 H 0.96625 0.88539 1.02542 0.0
H2090 H 0.95838 0.92282 0.11557 0.0
H2091 H 0.95109 0.89684 0.07564 0.0
H2092 H 0.05894 0.81274 0.11716 0.0
H2093 H 0.0534 0.79361 0.07368 0.0
H2094 H 0.05944 0.87313 0.14187 0.0
H2095 H 0.03999 0.90837 0.16307 0.0
C2096 C 0.27165 0.74636 0.84613 0.0
C2097 C 0.26682 0.73345 0.80994 0.0
C2098 C 0.25469 0.66208 0.83556 0.0
C2099 C 0.25525 0.67807 0.87198 0.0
N2100 N 0.25819 0.74375 0.90785 0.0
N2101 N 0.24912 0.67923 0.77189 0.0
C2102 C 0.2621 0.72252 0.87611 0.0
C2103 C 0.25697 0.69135 0.80521 0.0
N2104 N 0.28609 0.78082 0.85232 0.0
N2105 N 0.25334 0.61866 0.82937 0.0
H2106 H 0.25001 0.6996 0.7495 0.0
H2107 H 0.23974 0.65075 0.76747 0.0
H2108 H 0.25406 0.59579 0.84995 0.0
H2109 H 0.25479 0.60527 0.80364 0.0
H2110 H 0.29178 0.78951 0.8781 0.0
H2111 H 0.29464 0.79713 0.83147 0.0
H2112 H 0.26203 0.77643 0.91121 0.0
H2113 H 0.24803 0.7312 0.92873 0.0
C2114 C 0.03755 0.63564 0.84305 0.0
C2115 C 0.02027 0.64702 0.86963 0.0
C2116 C 0.992 0.59858 0.83684 0.0
C2117 C 1.00898 0.58899 0.80944 0.0
N2118 N 0.04628 0.60733 0.783 0.0
N2119 N 0.97953 0.64428 0.88719 0.0
C2120 C 0.03124 0.61021 0.81166 0.0
C2121 C 0.9971 0.62966 0.86515 0.0
N2122 N 0.06051 0.64712 0.84857 0.0
N2123 N 0.97096 0.5771 0.83639 0.0
H2124 H 0.98242 0.66706 0.90748 0.0
H2125 H 0.96179 0.63707 0.88342 0.0
H2126 H 0.96642 0.55499 0.8163 0.0
H2127 H 0.95879 0.5783 0.85735 0.0
H2128 H 0.07438 0.63555 0.8329 0.0
H2129 H 0.06611 0.66509 0.87076 0.0
H2130 H 0.06158 0.6257 0.78071 0.0
H2131 H 0.04232 0.5894 0.75991 0.0
C2132 C 0.23875 0.60565 0.50696 0.0
C2133 C 0.26155 0.58659 0.50999 0.0
C2134 C 0.27353 0.63034 0.45606 0.0
C2135 C 0.24999 0.6454 0.45052 0.0
N2136 N 0.20932 0.64065 0.46899 0.0
N2137 N 0.30045 0.57928 0.48489 0.0
C2138 C 0.23244 0.63144 0.47575 0.0
C2139 C 0.27885 0.59878 0.48384 0.0
N2140 N 0.22313 0.60019 0.53459 0.0
N2141 N 0.29117 0.64757 0.43551 0.0
H2142 H 0.3052 0.557 0.50472 0.0
H2143 H 0.313 0.58237 0.46459 0.0
H2144 H 0.28809 0.67083 0.41567 0.0
H2145 H 0.309 0.64206 0.44024 0.0
H2146 H 0.20723 0.61685 0.53636 0.0
H2147 H 0.22708 0.58184 0.55746 0.0
H2148 H 0.19545 0.62737 0.48368 0.0
H2149 H 0.20377 0.65842 0.44664 0.0
C2150 C 0.02995 0.70701 0.50176 0.0
C2151 C 1.00758 0.7277 0.50466 0.0
C2152 C 0.99536 0.68685 0.44915 0.0
C2153 C 0.01864 0.67034 0.44386 0.0
N2154 N 0.05924 0.67269 0.46331 0.0
N2155 N 0.9693 0.73913 0.47827 0.0
C2156 C 0.03616 0.68244 0.46988 0.0
C2157 C 0.9904 0.71788 0.47755 0.0
N2158 N 0.04521 0.70947 0.53021 0.0
N2159 N 0.97758 0.67151 0.42782 0.0
H2160 H 0.9649 0.76141 0.49829 0.0
H2161 H 0.95699 0.73769 0.45746 0.0
H2162 H 0.98035 0.64869 0.40753 0.0
H2163 H 0.95984 0.67811 0.43231 0.0
H2164 H 0.06066 0.69141 0.53181 0.0
H2165 H 0.04126 0.72652 0.55376 0.0
H2166 H 0.07309 0.68464 0.47888 0.0
H2167 H 0.06485 0.65637 0.44026 0.0
C2168 C 0.78566 0.38968 0.22393 0.0
C2169 C 0.76897 0.3989 0.19579 0.0
C2170 C 0.74058 0.35042 0.22835 0.0
C2171 C 0.75712 0.34233 0.25675 0.0
N2172 N 0.7932 0.36412 0.28523 0.0
N2173 N 0.72859 0.39401 0.17643 0.0
C2174 C 0.77897 0.36492 0.25548 0.0
C2175 C 0.7459 0.38075 0.19957 0.0
N2176 N 0.80851 0.40263 0.21996 0.0
N2177 N 0.71979 0.32812 0.22826 0.0
H2178 H 0.73155 0.41656 0.156 0.0
H2179 H 0.71088 0.38611 0.17946 0.0
H2180 H 0.71511 0.30652 0.24864 0.0
H2181 H 0.70805 0.32808 0.20666 0.0
H2182 H 0.82212 0.39224 0.23672 0.0
H2183 H 0.81437 0.42089 0.19821 0.0
H2184 H 0.80802 0.38366 0.28816 0.0
H2185 H 0.7889 0.34684 0.30851 0.0
C2186 C 0.99091 0.45332 0.25487 0.0
C2187 C 0.01296 0.47533 0.2562 0.0
C2188 C 0.02434 0.43496 0.20002 0.0
C2189 C 1.00124 0.4169 0.19628 0.0
N2190 N 0.9616 0.4141 0.21985 0.0
N2191 N 0.05066 0.48757 0.22846 0.0
C2192 C 0.98441 0.42728 0.22388 0.0
C2193 C 0.02965 0.466 0.22833 0.0
N2194 N 0.97628 0.45607 0.28404 0.0
N2195 N 0.04169 0.42087 0.17734 0.0
H2196 H 0.0554 0.50933 0.2487 0.0
H2197 H 0.06266 0.48664 0.20726 0.0
H2198 H 0.03872 0.39787 0.15725 0.0
H2199 H 0.05942 0.42864 0.18036 0.0
H2200 H 0.96127 0.4371 0.2872 0.0
H2201 H 0.98032 0.47465 0.30674 0.0
H2202 H 0.94783 0.42515 0.23594 0.0
H2203 H 0.95599 0.39465 0.19865 0.0
C2204 C 0.78665 0.42204 0.59259 0.0
C2205 C 0.77057 0.41543 0.62207 0.0
C2206 C 0.74382 0.46911 0.5919 0.0
C2207 C 0.75914 0.47318 0.5615 0.0
N2208 N 0.79348 0.44686 0.53083 0.0
N2209 N 0.73111 0.42695 0.644 0.0
C2210 C 0.77994 0.44741 0.56129 0.0
C2211 C 0.74844 0.4376 0.62004 0.0
N2212 N 0.80911 0.40652 0.59515 0.0
N2213 N 0.72479 0.49596 0.59436 0.0
H2214 H 0.73319 0.40299 0.66354 0.0
H2215 H 0.71388 0.43827 0.64205 0.0
H2216 H 0.72021 0.51775 0.57403 0.0
H2217 H 0.71458 0.49889 0.61757 0.0
H2218 H 0.82247 0.41471 0.57715 0.0
H2219 H 0.81521 0.38869 0.61701 0.0
H2220 H 0.80723 0.4251 0.52677 0.0
H2221 H 0.78967 0.46575 0.50823 0.0
C2222 C 0.02509 0.37735 0.61709 0.0
C2223 C 1.00233 0.397 0.6202 0.0
C2224 C 0.99252 0.36317 0.56018 0.0
C2225 C 0.01425 0.34012 0.55917 0.0
N2226 N 0.05021 0.32198 0.59004 0.0
N2227 N 0.96304 0.40178 0.59527 0.0
C2228 C 0.0302 0.34648 0.58861 0.0
C2229 C 0.9858 0.38824 0.59166 0.0
N2230 N 0.04246 0.38977 0.64046 0.0
N2231 N 0.97829 0.36201 0.53044 0.0
H2232 H 0.95714 0.41982 0.61712 0.0
H2233 H 0.94946 0.39198 0.5782 0.0
H2234 H 0.98237 0.34385 0.50753 0.0
H2235 H 0.96362 0.38184 0.52715 0.0
H2236 H 0.06002 0.38064 0.6377 0.0
H2237 H 0.03983 0.41293 0.66051 0.0
H2238 H 0.0612 0.32065 0.61254 0.0
H2239 H 0.05479 0.30001 0.56987 0.0
C2240 C 0.73621 0.17537 0.84357 0.0
C2241 C 0.75288 0.16557 0.87158 0.0
C2242 C 0.78128 0.21481 0.83979 0.0
C2243 C 0.7648 0.2234 0.81142 0.0
N2244 N 0.72858 0.20265 0.78278 0.0
N2245 N 0.79321 0.17024 0.89117 0.0
C2246 C 0.74289 0.2009 0.81241 0.0
C2247 C 0.77593 0.1839 0.86814 0.0
N2248 N 0.71339 0.16221 0.84736 0.0
N2249 N 0.8021 0.23696 0.84014 0.0
H2250 H 0.79024 0.14727 0.91127 0.0
H2251 H 0.81092 0.17825 0.88835 0.0
H2252 H 0.80687 0.25876 0.81995 0.0
H2253 H 0.81384 0.2366 0.86174 0.0
H2254 H 0.69974 0.17281 0.83076 0.0
H2255 H 0.70762 0.14345 0.86887 0.0
H2256 H 0.71372 0.18329 0.77954 0.0
H2257 H 0.7328 0.2207 0.75987 0.0
C2258 C 0.53109 0.10272 0.81592 0.0
C2259 C 0.50892 0.08139 0.81351 0.0
C2260 C 0.49719 0.11898 0.87089 0.0
C2261 C 0.52008 0.13809 0.87465 0.0
N2262 N 0.55989 0.14204 0.8517 0.0
N2263 N 0.46945 0.07456 0.83615 0.0
C2264 C 0.53715 0.12861 0.84713 0.0
C2265 C 0.49164 0.09102 0.84047 0.0
N2266 N 0.54621 0.0998 0.78731 0.0
N2267 N 0.48066 0.12745 0.89676 0.0
H2268 H 0.46502 0.05333 0.81535 0.0
H2269 H 0.45504 0.08257 0.85206 0.0
H2270 H 0.48307 0.15066 0.91682 0.0
H2271 H 0.46466 0.11138 0.89913 0.0
H2272 H 0.56129 0.11867 0.7846 0.0
H2273 H 0.54258 0.08115 0.7645 0.0
H2274 H 0.57388 0.13129 0.8359 0.0
H2275 H 0.56537 0.16127 0.87309 0.0
C2276 C 0.78054 0.09904 0.4764 0.0
C2277 C 0.76348 0.08914 0.50355 0.0
C2278 C 0.7344 0.13268 0.46805 0.0
C2279 C 0.75194 0.1456 0.44238 0.0
N2280 N 0.79307 0.14551 0.42668 0.0
N2281 N 0.72494 0.10324 0.5275 0.0
C2282 C 0.77536 0.12979 0.44788 0.0
C2283 C 0.74069 0.10811 0.49995 0.0
N2284 N 0.80169 0.07798 0.47712 0.0
N2285 N 0.71126 0.14148 0.46098 0.0
H2286 H 0.7287 0.08517 0.55059 0.0
H2287 H 0.70907 0.12003 0.52891 0.0
H2288 H 0.70566 0.15769 0.43785 0.0
H2289 H 0.69739 0.12897 0.4761 0.0
H2290 H 0.81388 0.07932 0.45616 0.0
H2291 H 0.80631 0.05632 0.49752 0.0
H2292 H 0.81084 0.13934 0.43139 0.0
H2293 H 0.79017 0.16815 0.40629 0.0
C2294 C 0.49311 0.21656 0.47998 0.0
C2295 C 0.51047 0.22793 0.5064 0.0
C2296 C 0.53933 0.18323 0.47161 0.0
C2297 C 0.52175 0.17007 0.44608 0.0
N2298 N 0.4806 0.16918 0.4307 0.0
N2299 N 0.54868 0.21252 0.53114 0.0
C2300 C 0.49829 0.18552 0.45169 0.0
C2301 C 0.53313 0.20838 0.5032 0.0
N2302 N 0.47159 0.23633 0.48131 0.0
N2303 N 0.56242 0.17379 0.46483 0.0
H2304 H 0.54474 0.23007 0.55443 0.0
H2305 H 0.56444 0.19539 0.53269 0.0
H2306 H 0.56792 0.15656 0.44217 0.0
H2307 H 0.57632 0.18651 0.47983 0.0
H2308 H 0.45899 0.23382 0.461 0.0
H2309 H 0.46699 0.25841 0.50137 0.0
H2310 H 0.46279 0.17491 0.43538 0.0
H2311 H 0.48358 0.14645 0.41041 0.0
C2312 C 0.27995 0.84887 0.25163 0.0
C2313 C 0.25729 0.82965 0.25591 0.0
C2314 C 0.24509 0.86796 0.1991 0.0
C2315 C 0.26853 0.88314 0.19277 0.0
N2316 N 0.30927 0.87985 0.21128 0.0
N2317 N 0.21856 0.81882 0.23095 0.0
C2318 C 0.28614 0.87147 0.21875 0.0
C2319 C 0.23996 0.83885 0.22884 0.0
N2320 N 0.29552 0.84702 0.27971 0.0
N2321 N 0.22734 0.88281 0.17746 0.0
H2322 H 0.21406 0.7979 0.25192 0.0
H2323 H 0.206 0.81978 0.21047 0.0
H2324 H 0.23027 0.90402 0.15605 0.0
H2325 H 0.20956 0.87735 0.18254 0.0
H2326 H 0.31128 0.86428 0.28025 0.0
H2327 H 0.29162 0.8314 0.30395 0.0
H2328 H 0.32314 0.86808 0.22687 0.0
H2329 H 0.3148 0.89473 0.1875 0.0
C2330 C 0.49185 0.95865 0.25276 0.0
C2331 C 0.51399 0.98029 0.25469 0.0
C2332 C 0.52525 0.94237 0.19746 0.0
C2333 C 0.50228 0.92381 0.19369 0.0
N2334 N 0.46231 0.92232 0.21585 0.0
N2335 N 0.55074 0.99653 0.22542 0.0
C2336 C 0.4853 0.93392 0.22106 0.0
C2337 C 0.53035 0.97308 0.226 0.0
N2338 N 0.47696 0.96127 0.28162 0.0
N2339 N 0.54268 0.92925 0.17454 0.0
H2340 H 0.55542 1.018 0.24593 0.0
H2341 H 0.56216 0.99721 0.20343 0.0
H2342 H 0.53989 0.90659 0.15413 0.0
H2343 H 0.56033 0.93755 0.17781 0.0
H2344 H 0.4618 0.94255 0.28417 0.0
H2345 H 0.48084 0.97958 0.30453 0.0
H2346 H 0.4486 0.93269 0.23237 0.0
H2347 H 0.45646 0.90587 0.19299 0.0
C2348 C 0.29004 0.93548 0.59232 0.0
C2349 C 0.27248 0.92194 0.61769 0.0
C2350 C 0.24368 0.96823 0.58385 0.0
C2351 C 0.26104 0.98005 0.55762 0.0
N2352 N 0.29937 0.96553 0.53307 0.0
N2353 N 0.23131 0.92028 0.63276 0.0
C2354 C 0.28378 0.96082 0.56084 0.0
C2355 C 0.24896 0.93706 0.612 0.0
N2356 N 0.31316 0.92626 0.59917 0.0
N2357 N 0.22208 0.98765 0.58247 0.0
H2358 H 0.23436 0.89741 0.65292 0.0
H2359 H 0.21348 0.92577 0.62799 0.0
H2360 H 0.21738 1.00966 0.5624 0.0
H2361 H 0.20946 0.98483 0.6027 0.0
H2362 H 0.32703 0.93925 0.58434 0.0
H2363 H 0.31869 0.90886 0.62174 0.0
H2364 H 0.31522 0.94867 0.5315 0.0
H2365 H 0.29542 0.98337 0.50993 0.0
C2366 C 0.52779 0.87774 0.61572 0.0
C2367 C 0.50425 0.89287 0.62124 0.0
C2368 C 0.49341 0.85603 0.56319 0.0
C2369 C 0.5161 0.83655 0.56004 0.0
N2370 N 0.55483 0.82793 0.58561 0.0
N2371 N 0.46373 0.88921 0.60171 0.0
C2372 C 0.53326 0.84744 0.58694 0.0
C2373 C 0.4869 0.88022 0.59516 0.0
N2374 N 0.54529 0.89368 0.63729 0.0
N2375 N 0.47812 0.85283 0.53483 0.0
H2376 H 0.458 0.90564 0.62465 0.0
H2377 H 0.45 0.87676 0.58621 0.0
H2378 H 0.48228 0.83608 0.51122 0.0
H2379 H 0.46237 0.87002 0.53334 0.0
H2380 H 0.56315 0.88823 0.63281 0.0
H2381 H 0.5421 0.9158 0.65797 0.0
H2382 H 0.56731 0.8301 0.60614 0.0
H2383 H 0.55961 0.80635 0.56528 0.0
C2384 C 0.777 0.66355 0.35461 0.0
C2385 C 0.75438 0.6651 0.37141 0.0
C2386 C 0.74288 0.7212 0.32597 0.0
C2387 C 0.76615 0.72263 0.3113 0.0
N2388 N 0.80633 0.69849 0.31617 0.0
N2389 N 0.71657 0.70006 0.37499 0.0
C2390 C 0.78339 0.69437 0.32673 0.0
C2391 C 0.73759 0.69524 0.35746 0.0
N2392 N 0.79244 0.63211 0.36509 0.0
N2393 N 0.72542 0.7438 0.30895 0.0
H2394 H 0.71166 0.68103 0.39699 0.0
H2395 H 0.70471 0.72487 0.36951 0.0
H2396 H 0.72845 0.76257 0.28602 0.0
H2397 H 0.70764 0.74095 0.31538 0.0
H2398 H 0.80816 0.62562 0.35168 0.0
H2399 H 0.78858 0.61016 0.38564 0.0
H2400 H 0.82029 0.68261 0.32868 0.0
H2401 H 0.8117 0.72066 0.29665 0.0
C2402 C 0.53473 0.59998 0.3169 0.0
C2403 C 0.51106 0.58603 0.31083 0.0
C2404 C 0.49906 0.62954 0.36502 0.0
C2405 C 0.52271 0.64403 0.37097 0.0
N2406 N 0.56308 0.64376 0.35074 0.0
N2407 N 0.47022 0.59182 0.3272 0.0
C2408 C 0.54045 0.62957 0.34613 0.0
C2409 C 0.49317 0.60216 0.33444 0.0
N2410 N 0.552 0.58386 0.29498 0.0
N2411 N 0.48205 0.6417 0.38907 0.0
H2412 H 0.46532 0.5708 0.3065 0.0
H2413 H 0.45582 0.60577 0.34003 0.0
H2414 H 0.48504 0.66421 0.40952 0.0
H2415 H 0.46521 0.6285 0.38992 0.0
H2416 H 0.56996 0.58793 0.29929 0.0
H2417 H 0.54837 0.56432 0.2727 0.0
H2418 H 0.5765 0.63945 0.33202 0.0
H2419 H 0.56857 0.66145 0.37314 0.0
C2420 C 0.77573 0.62359 0.94504 0.0
C2421 C 0.75384 0.64661 0.94377 0.0
C2422 C 0.74486 0.61455 1.00462 0.0
C2423 C 0.76538 0.58803 1.00371 0.0
N2424 N 0.79897 0.56401 0.96967 0.0
N2425 N 0.71563 0.65628 0.97159 0.0
C2426 C 0.78033 0.59168 0.97286 0.0
C2427 C 0.73801 0.64024 0.97359 0.0
N2428 N 0.79288 0.63374 0.92061 0.0
N2429 N 0.73174 0.61554 0.03551 0.0
H2430 H 0.70938 0.67402 0.94976 0.0
H2431 H 0.70243 0.64845 0.98998 0.0
H2432 H 0.7357 0.59655 0.058 0.0
H2433 H 0.71826 0.63774 0.03997 0.0
H2434 H 0.80999 0.62172 0.92199 0.0
H2435 H 0.79082 0.65789 0.90123 0.0
H2436 H 0.80886 0.5609 0.94614 0.0
H2437 H 0.80346 0.54173 0.98967 0.0
C2438 C 0.53459 0.6815 0.97252 0.0
C2439 C 0.51894 0.6766 0.94228 0.0
C2440 C 0.4926 0.73092 0.97215 0.0
C2441 C 0.50729 0.7328 1.00345 0.0
N2442 N 0.54046 0.70329 0.03525 0.0
N2443 N 0.48033 0.6916 0.91824 0.0
C2444 C 0.52762 0.70586 1.00412 0.0
C2445 C 0.49724 0.70014 0.94352 0.0
N2446 N 0.55697 0.66548 0.97036 0.0
N2447 N 0.47418 0.75915 0.96935 0.0
H2448 H 0.48248 0.66843 0.89806 0.0
H2449 H 0.4633 0.70403 0.91945 0.0
H2450 H 0.46957 0.78049 0.98998 0.0
H2451 H 0.46457 0.76359 0.94568 0.0
H2452 H 0.57003 0.67216 0.98933 0.0
H2453 H 0.5634 0.64933 0.94782 0.0
H2454 H 0.55378 0.68065 0.03931 0.0
H2455 H 0.53641 0.72133 0.05823 0.0
C2456 C 0.24068 0.34185 0.72791 0.0
C2457 C 0.25779 0.33008 0.75452 0.0
C2458 C 0.2862 0.37997 0.72346 0.0
C2459 C 0.26953 0.38993 0.69537 0.0
N2460 N 0.23058 0.37844 0.67139 0.0
N2461 N 0.29755 0.33628 0.77586 0.0
C2462 C 0.24672 0.37014 0.69792 0.0
C2463 C 0.28066 0.34902 0.75176 0.0
N2464 N 0.21823 0.32653 0.73177 0.0
N2465 N 0.30763 0.4001 0.72331 0.0
H2466 H 0.29395 0.31591 0.79762 0.0
H2467 H 0.31537 0.34347 0.77341 0.0
H2468 H 0.31351 0.4194 0.70221 0.0
H2469 H 0.31936 0.39964 0.7449 0.0
H2470 H 0.20394 0.33685 0.71645 0.0
H2471 H 0.21343 0.30488 0.75206 0.0
H2472 H 0.21498 0.3613 0.66801 0.0
H2473 H 0.23309 0.40202 0.65167 0.0
C2474 C 0.52985 0.4806 0.72066 0.0
C2475 C 0.51561 0.4833 0.75237 0.0
C2476 C 0.48871 0.42892 0.72383 0.0
C2477 C 0.50396 0.42341 0.69318 0.0
N2478 N 0.54224 0.43885 0.66815 0.0
N2479 N 0.4834 0.45329 0.78605 0.0
C2480 C 0.52535 0.44807 0.69326 0.0
C2481 C 0.49575 0.45517 0.75447 0.0
N2482 N 0.54778 0.50958 0.71631 0.0
N2483 N 0.46659 0.41154 0.72302 0.0
H2484 H 0.48736 0.47276 0.80825 0.0
H2485 H 0.47059 0.43001 0.79128 0.0
H2486 H 0.46014 0.39364 0.70143 0.0
H2487 H 0.45371 0.41853 0.74215 0.0
H2488 H 0.55695 0.51332 0.69217 0.0
H2489 H 0.55234 0.53218 0.73601 0.0
H2490 H 0.55908 0.45219 0.66864 0.0
H2491 H 0.54039 0.41418 0.64917 0.0
C2492 C 0.2861 0.43669 0.0925 0.0
C2493 C 0.26925 0.42688 0.12018 0.0
C2494 C 0.24076 0.47443 0.0868 0.0
C2495 C 0.25739 0.4826 0.05854 0.0
N2496 N 0.29388 0.46137 1.03108 0.0
N2497 N 0.22876 0.43112 0.13888 0.0
C2498 C 0.27944 0.46072 0.06054 0.0
C2499 C 0.2461 0.44445 0.11588 0.0
N2500 N 0.30907 0.42502 0.09738 0.0
N2501 N 0.21993 0.49661 0.08665 0.0
H2502 H 0.23181 0.4092 0.15976 0.0
H2503 H 0.21101 0.43845 0.13539 0.0
H2504 H 0.21531 0.51826 0.06627 0.0
H2505 H 0.20814 0.49659 0.10815 0.0
H2506 H 0.32272 0.43556 0.08079 0.0
H2507 H 0.31487 0.40813 0.11994 0.0
H2508 H 0.30893 0.44231 1.0288 0.0
H2509 H 0.28955 0.47788 1.00741 0.0
C2510 C 0.4946 0.35834 0.06161 0.0
C2511 C 0.51638 0.33541 0.06098 0.0
C2512 C 0.5277 0.37578 0.11725 0.0
C2513 C 0.50478 0.39472 0.12028 0.0
N2514 N 0.46547 0.39926 0.09554 0.0
N2515 N 0.55386 0.32251 0.08935 0.0
C2516 C 0.48812 0.38492 0.09226 0.0
C2517 C 0.53297 0.34449 0.08912 0.0
N2518 N 0.48027 0.35608 1.03202 0.0
N2519 N 0.54492 0.3892 0.14052 0.0
H2520 H 0.55856 0.30057 0.06924 0.0
H2521 H 0.56579 0.32327 0.11068 0.0
H2522 H 0.54194 0.41225 0.16055 0.0
H2523 H 0.56259 0.38072 0.13816 0.0
H2524 H 0.46553 0.37564 1.02837 0.0
H2525 H 0.48436 0.33731 1.00946 0.0
H2526 H 0.45171 0.38865 0.07916 0.0
H2527 H 0.45991 0.41935 0.11635 0.0
loop_
_geom_bond_atom_site_label_1
_geom_bond_atom_site_label_2
_geom_bond_distance
_geom_bond_site_symmetry_2
_ccdc_geom_bond_type
Co0 O3 1.970 . S
Co0 N17 1.989 . S
Co0 O25 1.967 . S
Co0 O32 1.920 . S
Co1 O4 1.966 . S
Co1 N10 2.022 . S
Co1 N18 1.993 . S
Co1 O26 1.941 . S
C2 O3 1.258 . S
C2 O4 1.263 . S
O3 Co0 1.970 . S
O3 C2 1.258 . S
O4 Co1 1.966 . S
O4 C2 1.263 . S
C5 O6 1.235 . S
C5 O32 1.289 . S
O6 C5 1.235 . S
C7 C9 1.400 . S
C7 N10 1.351 . S
C7 C12 1.501 . S
C8 C9 1.387 . S
C8 N11 1.341 . S
C9 C7 1.400 . S
C9 C8 1.387 . S
N10 Co1 2.022 . S
N10 C7 1.351 . S
N10 N11 1.365 . S
N11 C8 1.341 . S
N11 N10 1.365 . S
N11 H31 0.862 . S
C12 C7 1.501 . S
C12 H13 0.961 . S
C12 H14 0.961 . S
C12 H15 0.960 . S
H13 C12 0.961 . S
H14 C12 0.961 . S
H15 C12 0.960 . S
C16 N17 1.342 . S
C16 C20 1.401 . S
C16 C21 1.499 . S
N17 Co0 1.989 . S
N17 C16 1.342 . S
N17 N18 1.388 . S
N18 Co1 1.993 . S
N18 N17 1.388 . S
N18 C19 1.346 . S
C19 N18 1.346 . S
C19 C20 1.396 . S
C19 C29 1.510 . S
C20 C16 1.401 . S
C20 C19 1.396 . S
C21 C16 1.499 . S
C21 H22 0.959 . S
C21 H23 0.960 . S
C21 H24 0.961 . S
H22 C21 0.959 . S
H23 C21 0.960 . S
H24 C21 0.961 . S
O25 Co0 1.967 . S
O25 C33 1.258 . S
O26 Co1 1.941 . S
O26 C33 1.266 . S
H27 C29 0.959 . S
H28 C29 0.961 . S
C29 C19 1.510 . S
C29 H27 0.959 . S
C29 H28 0.961 . S
C29 H30 0.960 . S
H30 C29 0.960 . S
H31 N11 0.862 . S
O32 Co0 1.920 . S
O32 C5 1.289 . S
C33 O25 1.258 . S
C33 O26 1.266 . S
Co34 O37 1.969 . S
Co34 N51 1.990 1_565 S
Co34 O59 1.965 . S
Co34 O66 1.922 1_565 S
Co35 O38 1.966 . S
Co35 N44 2.022 . S
Co35 N52 1.993 . S
Co35 O60 1.941 . S
C36 O37 1.258 . S
C36 O38 1.263 . S
O37 Co34 1.969 . S
O37 C36 1.258 . S
O38 Co35 1.966 . S
O38 C36 1.263 . S
C39 O40 1.235 . S
C39 O66 1.289 . S
O40 C39 1.235 . S
C41 C43 1.400 . S
C41 N44 1.351 . S
C41 C46 1.501 . S
C42 C43 1.387 . S
C42 N45 1.341 . S
C43 C41 1.400 . S
C43 C42 1.387 . S
N44 Co35 2.022 . S
N44 C41 1.351 . S
N44 N45 1.365 . S
N45 C42 1.341 . S
N45 N44 1.365 . S
N45 H65 0.884 . S
C46 C41 1.501 . S
C46 H47 0.961 . S
C46 H48 0.961 . S
C46 H49 0.960 . S
H47 C46 0.961 . S
H48 C46 0.961 . S
H49 C46 0.960 . S
C50 N51 1.342 . S
C50 C54 1.401 . S
C50 C55 1.499 . S
N51 Co34 1.990 1_545 S
N51 C50 1.342 . S
N51 N52 1.388 1_545 S
N52 Co35 1.993 . S
N52 N51 1.388 1_565 S
N52 C53 1.346 1_565 S
C53 N52 1.346 1_545 S
C53 C54 1.396 . S
C53 C63 1.510 1_545 S
C54 C50 1.401 . S
C54 C53 1.396 . S
C55 C50 1.499 . S
C55 H56 0.959 . S
C55 H57 0.960 . S
C55 H58 0.961 . S
H56 C55 0.959 . S
H57 C55 0.960 . S
H58 C55 0.961 . S
O59 Co34 1.965 . S
O59 C67 1.258 . S
O60 Co35 1.941 . S
O60 C67 1.266 . S
H61 C63 1.003 . S
H62 C63 0.969 . S
C63 C53 1.510 1_565 S
C63 H61 1.003 . S
C63 H62 0.969 . S
C63 H64 0.960 . S
H64 C63 0.960 . S
H65 N45 0.884 . S
O66 Co34 1.922 1_545 S
O66 C39 1.289 . S
C67 O59 1.258 . S
C67 O60 1.266 . S
Co68 O71 1.969 . S
Co68 N85 1.990 1_565 S
Co68 O93 1.965 . S
Co68 O100 1.922 1_565 S
Co69 O72 1.966 . S
Co69 N78 2.022 1_554 S
Co69 N86 1.990 1_554 S
Co69 O94 1.941 . S
C70 O71 1.258 . S
C70 O72 1.263 . S
O71 Co68 1.969 . S
O71 C70 1.258 . S
O72 Co69 1.966 . S
O72 C70 1.263 . S
C73 O74 1.235 . S
C73 O100 1.289 . S
O74 C73 1.235 . S
C75 C77 1.400 . S
C75 N78 1.351 . S
C75 C80 1.501 . S
C76 C77 1.387 . S
C76 N79 1.341 . S
C77 C75 1.400 . S
C77 C76 1.387 . S
N78 Co69 2.022 1_556 S
N78 C75 1.351 . S
N78 N79 1.365 . S
N79 C76 1.341 . S
N79 N78 1.365 . S
N79 H99 0.862 . S
C80 C75 1.501 . S
C80 H81 0.961 . S
C80 H82 0.961 . S
C80 H83 0.960 . S
H81 C80 0.961 . S
H82 C80 0.961 . S
H83 C80 0.960 . S
C84 N85 1.342 . S
C84 C88 1.401 1_554 S
C84 C89 1.499 . S
N85 Co68 1.990 1_545 S
N85 C84 1.342 . S
N85 N86 1.377 1_544 S
N86 Co69 1.990 1_556 S
N86 N85 1.377 1_566 S
N86 C87 1.357 1_565 S
C87 N86 1.357 1_545 S
C87 C88 1.396 . S
C87 C97 1.510 1_545 S
C88 C84 1.401 1_556 S
C88 C87 1.396 . S
C89 C84 1.499 . S
C89 H90 0.959 . S
C89 H91 0.960 . S
C89 H92 0.961 . S
H90 C89 0.959 . S
H91 C89 0.960 . S
H92 C89 0.961 . S
O93 Co68 1.965 . S
O93 C101 1.258 . S
O94 Co69 1.941 . S
O94 C101 1.266 . S
H95 C97 0.959 . S
H96 C97 0.969 . S
C97 C87 1.510 1_565 S
C97 H95 0.959 . S
C97 H96 0.969 . S
C97 H98 0.960 . S
H98 C97 0.960 . S
H99 N79 0.862 . S
O100 Co68 1.922 1_545 S
O100 C73 1.289 . S
C101 O93 1.258 . S
C101 O94 1.266 . S
Co102 O105 1.970 . S
Co102 N119 1.989 . S
Co102 O127 1.967 . S
Co102 O134 1.920 . S
Co103 O106 1.966 . S
Co103 N112 2.022 1_554 S
Co103 N120 1.990 1_554 S
Co103 O128 1.941 . S
C104 O105 1.258 . S
C104 O106 1.263 . S
O105 Co102 1.970 . S
O105 C104 1.258 . S
O106 Co103 1.966 . S
O106 C104 1.263 . S
C107 O108 1.235 . S
C107 O134 1.289 . S
O108 C107 1.235 . S
C109 C111 1.400 . S
C109 N112 1.351 . S
C109 C114 1.501 . S
C110 C111 1.387 . S
C110 N113 1.341 . S
C111 C109 1.400 . S
C111 C110 1.387 . S
N112 Co103 2.022 1_556 S
N112 C109 1.351 . S
N112 N113 1.365 . S
N113 C110 1.341 . S
N113 N112 1.365 . S
N113 H133 0.884 . S
C114 C109 1.501 . S
C114 H115 0.961 . S
C114 H116 0.961 . S
C114 H117 0.960 . S
H115 C114 0.961 . S
H116 C114 0.961 . S
H117 C114 0.960 . S
C118 N119 1.342 . S
C118 C122 1.401 1_554 S
C118 C123 1.499 . S
N119 Co102 1.989 . S
N119 C118 1.342 . S
N119 N120 1.377 1_554 S
N120 Co103 1.990 1_556 S
N120 N119 1.377 1_556 S
N120 C121 1.357 . S
C121 N120 1.357 . S
C121 C122 1.396 . S
C121 C131 1.510 . S
C122 C118 1.401 1_556 S
C122 C121 1.396 . S
C123 C118 1.499 . S
C123 H124 0.959 . S
C123 H125 0.960 . S
C123 H126 0.961 . S
H124 C123 0.959 . S
H125 C123 0.960 . S
H126 C123 0.961 . S
O127 Co102 1.967 . S
O127 C135 1.258 . S
O128 Co103 1.941 . S
O128 C135 1.266 . S
H129 C131 1.003 . S
H130 C131 0.961 . S
C131 C121 1.510 . S
C131 H129 1.003 . S
C131 H130 0.961 . S
C131 H132 0.960 . S
H132 C131 0.960 . S
H133 N113 0.884 . S
O134 Co102 1.920 . S
O134 C107 1.289 . S
C135 O127 1.258 . S
C135 O128 1.266 . S
Co136 O139 1.970 . S
Co136 N153 1.989 . S
Co136 O161 1.967 . S
Co136 O168 1.920 . S
Co137 O140 1.966 . S
Co137 N146 2.022 . S
Co137 N154 1.993 . S
Co137 O162 1.941 . S
C138 O139 1.258 . S
C138 O140 1.263 . S
O139 Co136 1.970 . S
O139 C138 1.258 . S
O140 Co137 1.966 . S
O140 C138 1.263 . S
C141 O142 1.235 . S
C141 O168 1.289 . S
O142 C141 1.235 . S
C143 C145 1.400 . S
C143 N146 1.351 . S
C143 C148 1.501 . S
C144 C145 1.387 . S
C144 N147 1.341 . S
C145 C143 1.400 . S
C145 C144 1.387 . S
N146 Co137 2.022 . S
N146 C143 1.351 . S
N146 N147 1.365 . S
N147 C144 1.341 . S
N147 N146 1.365 . S
N147 H167 0.862 . S
C148 C143 1.501 . S
C148 H149 0.961 . S
C148 H150 0.961 . S
C148 H151 0.960 . S
H149 C148 0.961 . S
H150 C148 0.961 . S
H151 C148 0.960 . S
C152 N153 1.342 . S
C152 C156 1.401 . S
C152 C157 1.499 . S
N153 Co136 1.989 . S
N153 C152 1.342 . S
N153 N154 1.388 . S
N154 Co137 1.993 . S
N154 N153 1.388 . S
N154 C155 1.346 . S
C155 N154 1.346 . S
C155 C156 1.396 . S
C155 C165 1.510 . S
C156 C152 1.401 . S
C156 C155 1.396 . S
C157 C152 1.499 . S
C157 H158 0.959 . S
C157 H159 0.960 . S
C157 H160 0.961 . S
H158 C157 0.959 . S
H159 C157 0.960 . S
H160 C157 0.961 . S
O161 Co136 1.967 . S
O161 C169 1.258 . S
O162 Co137 1.941 . S
O162 C169 1.266 . S
H163 C165 0.959 . S
H164 C165 0.961 . S
C165 C155 1.510 . S
C165 H163 0.959 . S
C165 H164 0.961 . S
C165 H166 0.960 . S
H166 C165 0.960 . S
H167 N147 0.862 . S
O168 Co136 1.920 . S
O168 C141 1.289 . S
C169 O161 1.258 . S
C169 O162 1.266 . S
Co170 O173 1.969 . S
Co170 N187 1.990 1_545 S
Co170 O195 1.965 . S
Co170 O202 1.922 1_545 S
Co171 O174 1.966 . S
Co171 N180 2.022 . S
Co171 N188 1.993 . S
Co171 O196 1.941 . S
C172 O173 1.258 . S
C172 O174 1.263 . S
O173 Co170 1.969 . S
O173 C172 1.258 . S
O174 Co171 1.966 . S
O174 C172 1.263 . S
C175 O176 1.235 . S
C175 O202 1.289 . S
O176 C175 1.235 . S
C177 C179 1.400 . S
C177 N180 1.351 . S
C177 C182 1.501 . S
C178 C179 1.387 . S
C178 N181 1.341 . S
C179 C177 1.400 . S
C179 C178 1.387 . S
N180 Co171 2.022 . S
N180 C177 1.351 . S
N180 N181 1.365 . S
N181 C178 1.341 . S
N181 N180 1.365 . S
N181 H201 0.884 . S
C182 C177 1.501 . S
C182 H183 0.961 . S
C182 H184 0.961 . S
C182 H185 0.960 . S
H183 C182 0.961 . S
H184 C182 0.961 . S
H185 C182 0.960 . S
C186 N187 1.342 . S
C186 C190 1.401 . S
C186 C191 1.499 . S
N187 Co170 1.990 1_565 S
N187 C186 1.342 . S
N187 N188 1.388 1_565 S
N188 Co171 1.993 . S
N188 N187 1.388 1_545 S
N188 C189 1.346 1_545 S
C189 N188 1.346 1_565 S
C189 C190 1.396 . S
C189 C199 1.510 1_565 S
C190 C186 1.401 . S
C190 C189 1.396 . S
C191 C186 1.499 . S
C191 H192 0.959 . S
C191 H193 0.960 . S
C191 H194 0.961 . S
H192 C191 0.959 . S
H193 C191 0.960 . S
H194 C191 0.961 . S
O195 Co170 1.965 . S
O195 C203 1.258 . S
O196 Co171 1.941 . S
O196 C203 1.266 . S
H197 C199 1.003 . S
H198 C199 0.969 . S
C199 C189 1.510 1_545 S
C199 H197 1.003 . S
C199 H198 0.969 . S
C199 H200 0.960 . S
H200 C199 0.960 . S
H201 N181 0.884 . S
O202 Co170 1.922 1_565 S
O202 C175 1.289 . S
C203 O195 1.258 . S
C203 O196 1.266 . S
Co204 O207 1.969 . S
Co204 N221 1.990 1_545 S
Co204 O229 1.965 . S
Co204 O236 1.922 1_545 S
Co205 O208 1.966 . S
Co205 N214 2.022 1_556 S
Co205 N222 1.990 1_556 S
Co205 O230 1.941 . S
C206 O207 1.258 . S
C206 O208 1.263 . S
O207 Co204 1.969 . S
O207 C206 1.258 . S
O208 Co205 1.966 . S
O208 C206 1.263 . S
C209 O210 1.235 . S
C209 O236 1.289 . S
O210 C209 1.235 . S
C211 C213 1.400 . S
C211 N214 1.351 . S
C211 C216 1.501 . S
C212 C213 1.387 . S
C212 N215 1.341 . S
C213 C211 1.400 . S
C213 C212 1.387 . S
N214 Co205 2.022 1_554 S
N214 C211 1.351 . S
N214 N215 1.365 . S
N215 C212 1.341 . S
N215 N214 1.365 . S
N215 H235 0.862 . S
C216 C211 1.501 . S
C216 H217 0.961 . S
C216 H218 0.961 . S
C216 H219 0.960 . S
H217 C216 0.961 . S
H218 C216 0.961 . S
H219 C216 0.960 . S
C220 N221 1.342 . S
C220 C224 1.401 1_556 S
C220 C225 1.499 . S
N221 Co204 1.990 1_565 S
N221 C220 1.342 . S
N221 N222 1.377 1_566 S
N222 Co205 1.990 1_554 S
N222 N221 1.377 1_544 S
N222 C223 1.357 1_545 S
C223 N222 1.357 1_565 S
C223 C224 1.396 . S
C223 C233 1.510 1_565 S
C224 C220 1.401 1_554 S
C224 C223 1.396 . S
C225 C220 1.499 . S
C225 H226 0.959 . S
C225 H227 0.960 . S
C225 H228 0.961 . S
H226 C225 0.959 . S
H227 C225 0.960 . S
H228 C225 0.961 . S
O229 Co204 1.965 . S
O229 C237 1.258 . S
O230 Co205 1.941 . S
O230 C237 1.266 . S
H231 C233 0.959 . S
H232 C233 0.969 . S
C233 C223 1.510 1_545 S
C233 H231 0.959 . S
C233 H232 0.969 . S
C233 H234 0.960 . S
H234 C233 0.960 . S
H235 N215 0.862 . S
O236 Co204 1.922 1_565 S
O236 C209 1.289 . S
C237 O229 1.258 . S
C237 O230 1.266 . S
Co238 O241 1.970 . S
Co238 N255 1.989 . S
Co238 O263 1.967 . S
Co238 O270 1.920 . S
Co239 O242 1.966 . S
Co239 N248 2.022 1_556 S
Co239 N256 1.990 1_556 S
Co239 O264 1.941 . S
C240 O241 1.258 . S
C240 O242 1.263 . S
O241 Co238 1.970 . S
O241 C240 1.258 . S
O242 Co239 1.966 . S
O242 C240 1.263 . S
C243 O244 1.235 . S
C243 O270 1.289 . S
O244 C243 1.235 . S
C245 C247 1.400 . S
C245 N248 1.351 . S
C245 C250 1.501 . S
C246 C247 1.387 . S
C246 N249 1.341 . S
C247 C245 1.400 . S
C247 C246 1.387 . S
N248 Co239 2.022 1_554 S
N248 C245 1.351 . S
N248 N249 1.365 . S
N249 C246 1.341 . S
N249 N248 1.365 . S
N249 H269 0.884 . S
C250 C245 1.501 . S
C250 H251 0.961 . S
C250 H252 0.961 . S
C250 H253 0.960 . S
H251 C250 0.961 . S
H252 C250 0.961 . S
H253 C250 0.960 . S
C254 N255 1.342 . S
C254 C258 1.401 1_556 S
C254 C259 1.499 . S
N255 Co238 1.989 . S
N255 C254 1.342 . S
N255 N256 1.377 1_556 S
N256 Co239 1.990 1_554 S
N256 N255 1.377 1_554 S
N256 C257 1.357 . S
C257 N256 1.357 . S
C257 C258 1.396 . S
C257 C267 1.510 . S
C258 C254 1.401 1_554 S
C258 C257 1.396 . S
C259 C254 1.499 . S
C259 H260 0.959 . S
C259 H261 0.960 . S
C259 H262 0.961 . S
H260 C259 0.959 . S
H261 C259 0.960 . S
H262 C259 0.961 . S
O263 Co238 1.967 . S
O263 C271 1.258 . S
O264 Co239 1.941 . S
O264 C271 1.266 . S
H265 C267 1.003 . S
H266 C267 0.961 . S
C267 C257 1.510 . S
C267 H265 1.003 . S
C267 H266 0.961 . S
C267 H268 0.960 . S
H268 C267 0.960 . S
H269 N249 0.884 . S
O270 Co238 1.920 . S
O270 C243 1.289 . S
C271 O263 1.258 . S
C271 O264 1.266 . S
Co272 O275 1.970 . S
Co272 N289 1.989 . S
Co272 O297 1.967 . S
Co272 O304 1.920 . S
Co273 O276 1.966 . S
Co273 N282 2.022 . S
Co273 N290 1.993 . S
Co273 O298 1.941 . S
C274 O275 1.258 . S
C274 O276 1.263 . S
O275 Co272 1.970 . S
O275 C274 1.258 . S
O276 Co273 1.966 . S
O276 C274 1.263 . S
C277 O278 1.235 . S
C277 O304 1.289 . S
O278 C277 1.235 . S
C279 C281 1.400 . S
C279 N282 1.351 . S
C279 C284 1.501 . S
C280 C281 1.387 . S
C280 N283 1.341 . S
C281 C279 1.400 . S
C281 C280 1.387 . S
N282 Co273 2.022 . S
N282 C279 1.351 . S
N282 N283 1.365 . S
N283 C280 1.341 . S
N283 N282 1.365 . S
N283 H303 0.862 . S
C284 C279 1.501 . S
C284 H285 0.961 . S
C284 H286 0.961 . S
C284 H287 0.960 . S
H285 C284 0.961 . S
H286 C284 0.961 . S
H287 C284 0.960 . S
C288 N289 1.342 . S
C288 C292 1.401 . S
C288 C293 1.499 . S
N289 Co272 1.989 . S
N289 C288 1.342 . S
N289 N290 1.388 . S
N290 Co273 1.993 . S
N290 N289 1.388 . S
N290 C291 1.346 . S
C291 N290 1.346 . S
C291 C292 1.396 . S
C291 C301 1.510 . S
C292 C288 1.401 . S
C292 C291 1.396 . S
C293 C288 1.499 . S
C293 H294 0.959 . S
C293 H295 0.960 . S
C293 H296 0.961 . S
H294 C293 0.959 . S
H295 C293 0.960 . S
H296 C293 0.961 . S
O297 Co272 1.967 . S
O297 C305 1.258 . S
O298 Co273 1.941 . S
O298 C305 1.266 . S
H299 C301 0.959 . S
H300 C301 0.961 . S
C301 C291 1.510 . S
C301 H299 0.959 . S
C301 H300 0.961 . S
C301 H302 0.960 . S
H302 C301 0.960 . S
H303 N283 0.862 . S
O304 Co272 1.920 . S
O304 C277 1.289 . S
C305 O297 1.258 . S
C305 O298 1.266 . S
Co306 O309 1.970 . S
Co306 N323 1.989 . S
Co306 O331 1.967 . S
Co306 O338 1.920 . S
Co307 O310 1.966 . S
Co307 N316 2.022 . S
Co307 N324 1.993 . S
Co307 O332 1.941 . S
C308 O309 1.258 . S
C308 O310 1.263 . S
O309 Co306 1.970 . S
O309 C308 1.258 . S
O310 Co307 1.966 . S
O310 C308 1.263 . S
C311 O312 1.235 . S
C311 O338 1.289 . S
O312 C311 1.235 . S
C313 C315 1.400 . S
C313 N316 1.351 . S
C313 C318 1.501 . S
C314 C315 1.387 . S
C314 N317 1.341 . S
C315 C313 1.400 . S
C315 C314 1.387 . S
N316 Co307 2.022 . S
N316 C313 1.351 . S
N316 N317 1.365 . S
N317 C314 1.341 . S
N317 N316 1.365 . S
N317 H337 0.884 . S
C318 C313 1.501 . S
C318 H319 0.961 . S
C318 H320 0.961 . S
C318 H321 0.960 . S
H319 C318 0.961 . S
H320 C318 0.961 . S
H321 C318 0.960 . S
C322 N323 1.342 . S
C322 C326 1.401 . S
C322 C327 1.499 . S
N323 Co306 1.989 . S
N323 C322 1.342 . S
N323 N324 1.388 . S
N324 Co307 1.993 . S
N324 N323 1.388 . S
N324 C325 1.346 . S
C325 N324 1.346 . S
C325 C326 1.396 . S
C325 C335 1.510 . S
C326 C322 1.401 . S
C326 C325 1.396 . S
C327 C322 1.499 . S
C327 H328 0.959 . S
C327 H329 0.960 . S
C327 H330 0.961 . S
H328 C327 0.959 . S
H329 C327 0.960 . S
H330 C327 0.961 . S
O331 Co306 1.967 . S
O331 C339 1.258 . S
O332 Co307 1.941 . S
O332 C339 1.266 . S
H333 C335 1.003 . S
H334 C335 0.961 . S
C335 C325 1.510 . S
C335 H333 1.003 . S
C335 H334 0.961 . S
C335 H336 0.960 . S
H336 C335 0.960 . S
H337 N317 0.884 . S
O338 Co306 1.920 . S
O338 C311 1.289 . S
C339 O331 1.258 . S
C339 O332 1.266 . S
Co340 O343 1.970 . S
Co340 N357 1.989 . S
Co340 O365 1.967 . S
Co340 O372 1.920 . S
Co341 O344 1.966 . S
Co341 N350 2.022 . S
Co341 N358 1.993 . S
Co341 O366 1.941 . S
C342 O343 1.258 . S
C342 O344 1.263 . S
O343 Co340 1.970 . S
O343 C342 1.258 . S
O344 Co341 1.966 . S
O344 C342 1.263 . S
C345 O346 1.235 . S
C345 O372 1.289 . S
O346 C345 1.235 . S
C347 C349 1.400 . S
C347 N350 1.351 . S
C347 C352 1.501 . S
C348 C349 1.387 . S
C348 N351 1.341 . S
C349 C347 1.400 . S
C349 C348 1.387 . S
N350 Co341 2.022 . S
N350 C347 1.351 . S
N350 N351 1.365 . S
N351 C348 1.341 . S
N351 N350 1.365 . S
N351 H371 0.862 . S
C352 C347 1.501 . S
C352 H353 0.961 . S
C352 H354 0.961 . S
C352 H355 0.960 . S
H353 C352 0.961 . S
H354 C352 0.961 . S
H355 C352 0.960 . S
C356 N357 1.342 . S
C356 C360 1.401 . S
C356 C361 1.499 . S
N357 Co340 1.989 . S
N357 C356 1.342 . S
N357 N358 1.388 . S
N358 Co341 1.993 . S
N358 N357 1.388 . S
N358 C359 1.346 . S
C359 N358 1.346 . S
C359 C360 1.396 . S
C359 C369 1.510 . S
C360 C356 1.401 . S
C360 C359 1.396 . S
C361 C356 1.499 . S
C361 H362 0.959 . S
C361 H363 0.960 . S
C361 H364 0.961 . S
H362 C361 0.959 . S
H363 C361 0.960 . S
H364 C361 0.961 . S
O365 Co340 1.967 . S
O365 C373 1.258 . S
O366 Co341 1.941 . S
O366 C373 1.266 . S
H367 C369 0.959 . S
H368 C369 0.961 . S
C369 C359 1.510 . S
C369 H367 0.959 . S
C369 H368 0.961 . S
C369 H370 0.960 . S
H370 C369 0.960 . S
H371 N351 0.862 . S
O372 Co340 1.920 . S
O372 C345 1.289 . S
C373 O365 1.258 . S
C373 O366 1.266 . S
Co374 O377 1.970 . S
Co374 N391 1.989 . S
Co374 O399 1.967 . S
Co374 O406 1.920 . S
Co375 O378 1.966 . S
Co375 N384 2.022 . S
Co375 N392 1.993 . S
Co375 O400 1.941 . S
C376 O377 1.258 . S
C376 O378 1.263 . S
O377 Co374 1.970 . S
O377 C376 1.258 . S
O378 Co375 1.966 . S
O378 C376 1.263 . S
C379 O380 1.235 . S
C379 O406 1.289 . S
O380 C379 1.235 . S
C381 C383 1.400 . S
C381 N384 1.351 . S
C381 C386 1.501 . S
C382 C383 1.387 . S
C382 N385 1.341 . S
C383 C381 1.400 . S
C383 C382 1.387 . S
N384 Co375 2.022 . S
N384 C381 1.351 . S
N384 N385 1.365 . S
N385 C382 1.341 . S
N385 N384 1.365 . S
N385 H405 0.884 . S
C386 C381 1.501 . S
C386 H387 0.961 . S
C386 H388 0.961 . S
C386 H389 0.960 . S
H387 C386 0.961 . S
H388 C386 0.961 . S
H389 C386 0.960 . S
C390 N391 1.342 . S
C390 C394 1.401 . S
C390 C395 1.499 . S
N391 Co374 1.989 . S
N391 C390 1.342 . S
N391 N392 1.388 . S
N392 Co375 1.993 . S
N392 N391 1.388 . S
N392 C393 1.346 . S
C393 N392 1.346 . S
C393 C394 1.396 . S
C393 C403 1.510 . S
C394 C390 1.401 . S
C394 C393 1.396 . S
C395 C390 1.499 . S
C395 H396 0.959 . S
C395 H397 0.960 . S
C395 H398 0.961 . S
H396 C395 0.959 . S
H397 C395 0.960 . S
H398 C395 0.961 . S
O399 Co374 1.967 . S
O399 C407 1.258 . S
O400 Co375 1.941 . S
O400 C407 1.266 . S
H401 C403 1.003 . S
H402 C403 0.961 . S
C403 C393 1.510 . S
C403 H401 1.003 . S
C403 H402 0.961 . S
C403 H404 0.960 . S
H404 C403 0.960 . S
H405 N385 0.884 . S
O406 Co374 1.920 . S
O406 C379 1.289 . S
C407 O399 1.258 . S
C407 O400 1.266 . S
Co408 O411 1.970 . S
Co408 N425 1.989 . S
Co408 O433 1.967 . S
Co408 O440 1.920 . S
Co409 O412 1.966 . S
Co409 N418 2.022 . S
Co409 N426 1.993 . S
Co409 O434 1.941 . S
C410 O411 1.258 . S
C410 O412 1.263 . S
O411 Co408 1.970 . S
O411 C410 1.258 . S
O412 Co409 1.966 . S
O412 C410 1.263 . S
C413 O414 1.235 . S
C413 O440 1.289 . S
O414 C413 1.235 . S
C415 C417 1.400 . S
C415 N418 1.351 . S
C415 C420 1.501 . S
C416 C417 1.387 . S
C416 N419 1.341 . S
C417 C415 1.400 . S
C417 C416 1.387 . S
N418 Co409 2.022 . S
N418 C415 1.351 . S
N418 N419 1.365 . S
N419 C416 1.341 . S
N419 N418 1.365 . S
N419 H439 0.862 . S
C420 C415 1.501 . S
C420 H421 0.961 . S
C420 H422 0.961 . S
C420 H423 0.960 . S
H421 C420 0.961 . S
H422 C420 0.961 . S
H423 C420 0.960 . S
C424 N425 1.342 . S
C424 C428 1.401 . S
C424 C429 1.499 . S
N425 Co408 1.989 . S
N425 C424 1.342 . S
N425 N426 1.388 . S
N426 Co409 1.993 . S
N426 N425 1.388 . S
N426 C427 1.346 . S
C427 N426 1.346 . S
C427 C428 1.396 . S
C427 C437 1.510 . S
C428 C424 1.401 . S
C428 C427 1.396 . S
C429 C424 1.499 . S
C429 H430 0.959 . S
C429 H431 0.960 . S
C429 H432 0.961 . S
H430 C429 0.959 . S
H431 C429 0.960 . S
H432 C429 0.961 . S
O433 Co408 1.967 . S
O433 C441 1.258 . S
O434 Co409 1.941 . S
O434 C441 1.266 . S
H435 C437 0.959 . S
H436 C437 0.961 . S
C437 C427 1.510 . S
C437 H435 0.959 . S
C437 H436 0.961 . S
C437 H438 0.960 . S
H438 C437 0.960 . S
H439 N419 0.862 . S
O440 Co408 1.920 . S
O440 C413 1.289 . S
C441 O433 1.258 . S
C441 O434 1.266 . S
Co442 O445 1.970 . S
Co442 N459 1.989 . S
Co442 O467 1.967 . S
Co442 O474 1.920 . S
Co443 O446 1.966 . S
Co443 N452 2.022 . S
Co443 N460 1.993 . S
Co443 O468 1.941 . S
C444 O445 1.258 . S
C444 O446 1.263 . S
O445 Co442 1.970 . S
O445 C444 1.258 . S
O446 Co443 1.966 . S
O446 C444 1.263 . S
C447 O448 1.235 . S
C447 O474 1.289 . S
O448 C447 1.235 . S
C449 C451 1.400 . S
C449 N452 1.351 . S
C449 C454 1.501 . S
C450 C451 1.387 . S
C450 N453 1.341 . S
C451 C449 1.400 . S
C451 C450 1.387 . S
N452 Co443 2.022 . S
N452 C449 1.351 . S
N452 N453 1.365 . S
N453 C450 1.341 . S
N453 N452 1.365 . S
N453 H473 0.884 . S
C454 C449 1.501 . S
C454 H455 0.961 . S
C454 H456 0.961 . S
C454 H457 0.960 . S
H455 C454 0.961 . S
H456 C454 0.961 . S
H457 C454 0.960 . S
C458 N459 1.342 . S
C458 C462 1.401 . S
C458 C463 1.499 . S
N459 Co442 1.989 . S
N459 C458 1.342 . S
N459 N460 1.388 . S
N460 Co443 1.993 . S
N460 N459 1.388 . S
N460 C461 1.346 . S
C461 N460 1.346 . S
C461 C462 1.396 . S
C461 C471 1.510 . S
C462 C458 1.401 . S
C462 C461 1.396 . S
C463 C458 1.499 . S
C463 H464 0.959 . S
C463 H465 0.960 . S
C463 H466 0.961 . S
H464 C463 0.959 . S
H465 C463 0.960 . S
H466 C463 0.961 . S
O467 Co442 1.967 . S
O467 C475 1.258 . S
O468 Co443 1.941 . S
O468 C475 1.266 . S
H469 C471 1.003 . S
H470 C471 0.961 . S
C471 C461 1.510 . S
C471 H469 1.003 . S
C471 H470 0.961 . S
C471 H472 0.960 . S
H472 C471 0.960 . S
H473 N453 0.884 . S
O474 Co442 1.920 . S
O474 C447 1.289 . S
C475 O467 1.258 . S
C475 O468 1.266 . S
Co476 O479 1.970 . S
Co476 N493 1.989 . S
Co476 O501 1.967 . S
Co476 O508 1.920 . S
Co477 O480 1.966 . S
Co477 N486 2.022 . S
Co477 N494 1.993 . S
Co477 O502 1.941 . S
C478 O479 1.258 . S
C478 O480 1.263 . S
O479 Co476 1.970 . S
O479 C478 1.258 . S
O480 Co477 1.966 . S
O480 C478 1.263 . S
C481 O482 1.235 . S
C481 O508 1.289 . S
O482 C481 1.235 . S
C483 C485 1.400 . S
C483 N486 1.351 . S
C483 C488 1.501 . S
C484 C485 1.387 . S
C484 N487 1.341 . S
C485 C483 1.400 . S
C485 C484 1.387 . S
N486 Co477 2.022 . S
N486 C483 1.351 . S
N486 N487 1.365 . S
N487 C484 1.341 . S
N487 N486 1.365 . S
N487 H507 0.862 . S
C488 C483 1.501 . S
C488 H489 0.961 . S
C488 H490 0.961 . S
C488 H491 0.960 . S
H489 C488 0.961 . S
H490 C488 0.961 . S
H491 C488 0.960 . S
C492 N493 1.342 . S
C492 C496 1.401 . S
C492 C497 1.499 . S
N493 Co476 1.989 . S
N493 C492 1.342 . S
N493 N494 1.388 . S
N494 Co477 1.993 . S
N494 N493 1.388 . S
N494 C495 1.346 . S
C495 N494 1.346 . S
C495 C496 1.396 . S
C495 C505 1.510 . S
C496 C492 1.401 . S
C496 C495 1.396 . S
C497 C492 1.499 . S
C497 H498 0.959 . S
C497 H499 0.960 . S
C497 H500 0.961 . S
H498 C497 0.959 . S
H499 C497 0.960 . S
H500 C497 0.961 . S
O501 Co476 1.967 . S
O501 C509 1.258 . S
O502 Co477 1.941 . S
O502 C509 1.266 . S
H503 C505 0.959 . S
H504 C505 0.961 . S
C505 C495 1.510 . S
C505 H503 0.959 . S
C505 H504 0.961 . S
C505 H506 0.960 . S
H506 C505 0.960 . S
H507 N487 0.862 . S
O508 Co476 1.920 . S
O508 C481 1.289 . S
C509 O501 1.258 . S
C509 O502 1.266 . S
Co510 O513 1.970 . S
Co510 N527 1.989 . S
Co510 O535 1.967 . S
Co510 O542 1.920 . S
Co511 O514 1.966 . S
Co511 N520 2.022 . S
Co511 N528 1.993 . S
Co511 O536 1.941 . S
C512 O513 1.258 . S
C512 O514 1.263 . S
O513 Co510 1.970 . S
O513 C512 1.258 . S
O514 Co511 1.966 . S
O514 C512 1.263 . S
C515 O516 1.235 . S
C515 O542 1.289 . S
O516 C515 1.235 . S
C517 C519 1.400 . S
C517 N520 1.351 . S
C517 C522 1.501 . S
C518 C519 1.387 . S
C518 N521 1.341 . S
C519 C517 1.400 . S
C519 C518 1.387 . S
N520 Co511 2.022 . S
N520 C517 1.351 . S
N520 N521 1.365 . S
N521 C518 1.341 . S
N521 N520 1.365 . S
N521 H541 0.884 . S
C522 C517 1.501 . S
C522 H523 0.961 . S
C522 H524 0.961 . S
C522 H525 0.960 . S
H523 C522 0.961 . S
H524 C522 0.961 . S
H525 C522 0.960 . S
C526 N527 1.342 . S
C526 C530 1.401 . S
C526 C531 1.499 . S
N527 Co510 1.989 . S
N527 C526 1.342 . S
N527 N528 1.388 . S
N528 Co511 1.993 . S
N528 N527 1.388 . S
N528 C529 1.346 . S
C529 N528 1.346 . S
C529 C530 1.396 . S
C529 C539 1.510 . S
C530 C526 1.401 . S
C530 C529 1.396 . S
C531 C526 1.499 . S
C531 H532 0.959 . S
C531 H533 0.960 . S
C531 H534 0.961 . S
H532 C531 0.959 . S
H533 C531 0.960 . S
H534 C531 0.961 . S
O535 Co510 1.967 . S
O535 C543 1.258 . S
O536 Co511 1.941 . S
O536 C543 1.266 . S
H537 C539 1.003 . S
H538 C539 0.961 . S
C539 C529 1.510 . S
C539 H537 1.003 . S
C539 H538 0.961 . S
C539 H540 0.960 . S
H540 C539 0.960 . S
H541 N521 0.884 . S
O542 Co510 1.920 . S
O542 C515 1.289 . S
C543 O535 1.258 . S
C543 O536 1.266 . S
Co544 O547 1.970 . S
Co544 N561 1.989 . S
Co544 O569 1.967 . S
Co544 O576 1.920 . S
Co545 O548 1.966 . S
Co545 N554 2.022 . S
Co545 N562 1.993 . S
Co545 O570 1.941 . S
C546 O547 1.258 . S
C546 O548 1.263 . S
O547 Co544 1.970 . S
O547 C546 1.258 . S
O548 Co545 1.966 . S
O548 C546 1.263 . S
C549 O550 1.235 . S
C549 O576 1.289 . S
O550 C549 1.235 . S
C551 C553 1.400 . S
C551 N554 1.351 . S
C551 C556 1.501 . S
C552 C553 1.387 . S
C552 N555 1.341 . S
C553 C551 1.400 . S
C553 C552 1.387 . S
N554 Co545 2.022 . S
N554 C551 1.351 . S
N554 N555 1.365 . S
N555 C552 1.341 . S
N555 N554 1.365 . S
N555 H575 0.862 . S
C556 C551 1.501 . S
C556 H557 0.961 . S
C556 H558 0.961 . S
C556 H559 0.960 . S
H557 C556 0.961 . S
H558 C556 0.961 . S
H559 C556 0.960 . S
C560 N561 1.342 . S
C560 C564 1.401 . S
C560 C565 1.499 . S
N561 Co544 1.989 . S
N561 C560 1.342 . S
N561 N562 1.388 . S
N562 Co545 1.993 . S
N562 N561 1.388 . S
N562 C563 1.346 . S
C563 N562 1.346 . S
C563 C564 1.396 . S
C563 C573 1.510 . S
C564 C560 1.401 . S
C564 C563 1.396 . S
C565 C560 1.499 . S
C565 H566 0.959 . S
C565 H567 0.960 . S
C565 H568 0.961 . S
H566 C565 0.959 . S
H567 C565 0.960 . S
H568 C565 0.961 . S
O569 Co544 1.967 . S
O569 C577 1.258 . S
O570 Co545 1.941 . S
O570 C577 1.266 . S
H571 C573 0.959 . S
H572 C573 0.961 . S
C573 C563 1.510 . S
C573 H571 0.959 . S
C573 H572 0.961 . S
C573 H574 0.960 . S
H574 C573 0.960 . S
H575 N555 0.862 . S
O576 Co544 1.920 . S
O576 C549 1.289 . S
C577 O569 1.258 . S
C577 O570 1.266 . S
Co578 O581 1.969 . S
Co578 N595 1.990 1_565 S
Co578 O603 1.965 . S
Co578 O610 1.922 1_565 S
Co579 O582 1.966 . S
Co579 N588 2.022 . S
Co579 N596 1.993 . S
Co579 O604 1.941 . S
C580 O581 1.258 . S
C580 O582 1.263 . S
O581 Co578 1.969 . S
O581 C580 1.258 . S
O582 Co579 1.966 . S
O582 C580 1.263 . S
C583 O584 1.235 . S
C583 O610 1.289 . S
O584 C583 1.235 . S
C585 C587 1.400 . S
C585 N588 1.351 . S
C585 C590 1.501 . S
C586 C587 1.387 . S
C586 N589 1.341 . S
C587 C585 1.400 . S
C587 C586 1.387 . S
N588 Co579 2.022 . S
N588 C585 1.351 . S
N588 N589 1.365 . S
N589 C586 1.341 . S
N589 N588 1.365 . S
N589 H609 0.862 . S
C590 C585 1.501 . S
C590 H591 0.961 . S
C590 H592 0.961 . S
C590 H593 0.960 . S
H591 C590 0.961 . S
H592 C590 0.961 . S
H593 C590 0.960 . S
C594 N595 1.342 . S
C594 C598 1.401 . S
C594 C599 1.499 . S
N595 Co578 1.990 1_545 S
N595 C594 1.342 . S
N595 N596 1.388 1_545 S
N596 Co579 1.993 . S
N596 N595 1.388 1_565 S
N596 C597 1.346 1_565 S
C597 N596 1.346 1_545 S
C597 C598 1.396 . S
C597 C607 1.510 1_545 S
C598 C594 1.401 . S
C598 C597 1.396 . S
C599 C594 1.499 . S
C599 H600 0.959 . S
C599 H601 0.960 . S
C599 H602 0.961 . S
H600 C599 0.959 . S
H601 C599 0.960 . S
H602 C599 0.961 . S
O603 Co578 1.965 . S
O603 C611 1.258 . S
O604 Co579 1.941 . S
O604 C611 1.266 . S
H605 C607 0.959 . S
H606 C607 0.969 . S
C607 C597 1.510 1_565 S
C607 H605 0.959 . S
C607 H606 0.969 . S
C607 H608 0.960 . S
H608 C607 0.960 . S
H609 N589 0.862 . S
O610 Co578 1.922 1_545 S
O610 C583 1.289 . S
C611 O603 1.258 . S
C611 O604 1.266 . S
Co612 O615 1.969 . S
Co612 N629 1.990 1_565 S
Co612 O637 1.965 . S
Co612 O644 1.922 1_565 S
Co613 O616 1.966 . S
Co613 N622 2.022 . S
Co613 N630 1.993 . S
Co613 O638 1.941 . S
C614 O615 1.258 . S
C614 O616 1.263 . S
O615 Co612 1.969 . S
O615 C614 1.258 . S
O616 Co613 1.966 . S
O616 C614 1.263 . S
C617 O618 1.235 . S
C617 O644 1.289 . S
O618 C617 1.235 . S
C619 C621 1.400 . S
C619 N622 1.351 . S
C619 C624 1.501 . S
C620 C621 1.387 . S
C620 N623 1.341 . S
C621 C619 1.400 . S
C621 C620 1.387 . S
N622 Co613 2.022 . S
N622 C619 1.351 . S
N622 N623 1.365 . S
N623 C620 1.341 . S
N623 N622 1.365 . S
N623 H643 0.862 . S
C624 C619 1.501 . S
C624 H625 0.961 . S
C624 H626 0.961 . S
C624 H627 0.960 . S
H625 C624 0.961 . S
H626 C624 0.961 . S
H627 C624 0.960 . S
C628 N629 1.342 . S
C628 C632 1.401 . S
C628 C633 1.499 . S
N629 Co612 1.990 1_545 S
N629 C628 1.342 . S
N629 N630 1.388 1_545 S
N630 Co613 1.993 . S
N630 N629 1.388 1_565 S
N630 C631 1.346 1_565 S
C631 N630 1.346 1_545 S
C631 C632 1.396 . S
C631 C641 1.510 1_545 S
C632 C628 1.401 . S
C632 C631 1.396 . S
C633 C628 1.499 . S
C633 H634 0.959 . S
C633 H635 0.960 . S
C633 H636 0.961 . S
H634 C633 0.959 . S
H635 C633 0.960 . S
H636 C633 0.961 . S
O637 Co612 1.965 . S
O637 C645 1.258 . S
O638 Co613 1.941 . S
O638 C645 1.266 . S
H639 C641 0.959 . S
H640 C641 0.969 . S
C641 C631 1.510 1_565 S
C641 H639 0.959 . S
C641 H640 0.969 . S
C641 H642 0.960 . S
H642 C641 0.960 . S
H643 N623 0.862 . S
O644 Co612 1.922 1_545 S
O644 C617 1.289 . S
C645 O637 1.258 . S
C645 O638 1.266 . S
Co646 O649 1.970 . S
Co646 N663 1.989 . S
Co646 O671 1.967 . S
Co646 O678 1.920 . S
Co647 O650 1.966 . S
Co647 N656 2.022 . S
Co647 N664 1.993 . S
Co647 O672 1.941 . S
C648 O649 1.258 . S
C648 O650 1.263 . S
O649 Co646 1.970 . S
O649 C648 1.258 . S
O650 Co647 1.966 . S
O650 C648 1.263 . S
C651 O652 1.235 . S
C651 O678 1.289 . S
O652 C651 1.235 . S
C653 C655 1.400 . S
C653 N656 1.351 . S
C653 C658 1.501 . S
C654 C655 1.387 . S
C654 N657 1.341 . S
C655 C653 1.400 . S
C655 C654 1.387 . S
N656 Co647 2.022 . S
N656 C653 1.351 . S
N656 N657 1.365 . S
N657 C654 1.341 . S
N657 N656 1.365 . S
N657 H677 0.862 . S
C658 C653 1.501 . S
C658 H659 0.961 . S
C658 H660 0.961 . S
C658 H661 0.960 . S
H659 C658 0.961 . S
H660 C658 0.961 . S
H661 C658 0.960 . S
C662 N663 1.342 . S
C662 C666 1.401 . S
C662 C667 1.499 . S
N663 Co646 1.989 . S
N663 C662 1.342 . S
N663 N664 1.388 . S
N664 Co647 1.993 . S
N664 N663 1.388 . S
N664 C665 1.346 . S
C665 N664 1.346 . S
C665 C666 1.396 . S
C665 C675 1.510 . S
C666 C662 1.401 . S
C666 C665 1.396 . S
C667 C662 1.499 . S
C667 H668 0.959 . S
C667 H669 0.960 . S
C667 H670 0.961 . S
H668 C667 0.959 . S
H669 C667 0.960 . S
H670 C667 0.961 . S
O671 Co646 1.967 . S
O671 C679 1.258 . S
O672 Co647 1.941 . S
O672 C679 1.266 . S
H673 C675 0.959 . S
H674 C675 0.961 . S
C675 C665 1.510 . S
C675 H673 0.959 . S
C675 H674 0.961 . S
C675 H676 0.960 . S
H676 C675 0.960 . S
H677 N657 0.862 . S
O678 Co646 1.920 . S
O678 C651 1.289 . S
C679 O671 1.258 . S
C679 O672 1.266 . S
Co680 O683 1.970 . S
Co680 N697 1.989 . S
Co680 O705 1.967 . S
Co680 O712 1.920 . S
Co681 O684 1.966 . S
Co681 N690 2.022 . S
Co681 N698 1.993 . S
Co681 O706 1.941 . S
C682 O683 1.258 . S
C682 O684 1.263 . S
O683 Co680 1.970 . S
O683 C682 1.258 . S
O684 Co681 1.966 . S
O684 C682 1.263 . S
C685 O686 1.235 . S
C685 O712 1.289 . S
O686 C685 1.235 . S
C687 C689 1.400 . S
C687 N690 1.351 . S
C687 C692 1.501 . S
C688 C689 1.387 . S
C688 N691 1.341 . S
C689 C687 1.400 . S
C689 C688 1.387 . S
N690 Co681 2.022 . S
N690 C687 1.351 . S
N690 N691 1.365 . S
N691 C688 1.341 . S
N691 N690 1.365 . S
N691 H711 0.862 . S
C692 C687 1.501 . S
C692 H693 0.961 . S
C692 H694 0.961 . S
C692 H695 0.960 . S
H693 C692 0.961 . S
H694 C692 0.961 . S
H695 C692 0.960 . S
C696 N697 1.342 . S
C696 C700 1.401 . S
C696 C701 1.499 . S
N697 Co680 1.989 . S
N697 C696 1.342 . S
N697 N698 1.388 . S
N698 Co681 1.993 . S
N698 N697 1.388 . S
N698 C699 1.346 . S
C699 N698 1.346 . S
C699 C700 1.396 . S
C699 C709 1.510 . S
C700 C696 1.401 . S
C700 C699 1.396 . S
C701 C696 1.499 . S
C701 H702 0.959 . S
C701 H703 0.960 . S
C701 H704 0.961 . S
H702 C701 0.959 . S
H703 C701 0.960 . S
H704 C701 0.961 . S
O705 Co680 1.967 . S
O705 C713 1.258 . S
O706 Co681 1.941 . S
O706 C713 1.266 . S
H707 C709 0.959 . S
H708 C709 0.961 . S
C709 C699 1.510 . S
C709 H707 0.959 . S
C709 H708 0.961 . S
C709 H710 0.960 . S
H710 C709 0.960 . S
H711 N691 0.862 . S
O712 Co680 1.920 . S
O712 C685 1.289 . S
C713 O705 1.258 . S
C713 O706 1.266 . S
Co714 O717 1.969 . S
Co714 N731 1.990 1_545 S
Co714 O739 1.965 . S
Co714 O746 1.922 1_545 S
Co715 O718 1.966 . S
Co715 N724 2.022 . S
Co715 N732 1.993 . S
Co715 O740 1.941 . S
C716 O717 1.258 . S
C716 O718 1.263 . S
O717 Co714 1.969 . S
O717 C716 1.258 . S
O718 Co715 1.966 . S
O718 C716 1.263 . S
C719 O720 1.235 . S
C719 O746 1.289 . S
O720 C719 1.235 . S
C721 C723 1.400 . S
C721 N724 1.351 . S
C721 C726 1.501 . S
C722 C723 1.387 . S
C722 N725 1.341 . S
C723 C721 1.400 . S
C723 C722 1.387 . S
N724 Co715 2.022 . S
N724 C721 1.351 . S
N724 N725 1.365 . S
N725 C722 1.341 . S
N725 N724 1.365 . S
N725 H745 0.862 . S
C726 C721 1.501 . S
C726 H727 0.961 . S
C726 H728 0.961 . S
C726 H729 0.960 . S
H727 C726 0.961 . S
H728 C726 0.961 . S
H729 C726 0.960 . S
C730 N731 1.342 . S
C730 C734 1.401 . S
C730 C735 1.499 . S
N731 Co714 1.990 1_565 S
N731 C730 1.342 . S
N731 N732 1.388 1_565 S
N732 Co715 1.993 . S
N732 N731 1.388 1_545 S
N732 C733 1.346 1_545 S
C733 N732 1.346 1_565 S
C733 C734 1.396 . S
C733 C743 1.510 1_565 S
C734 C730 1.401 . S
C734 C733 1.396 . S
C735 C730 1.499 . S
C735 H736 0.959 . S
C735 H737 0.960 . S
C735 H738 0.961 . S
H736 C735 0.959 . S
H737 C735 0.960 . S
H738 C735 0.961 . S
O739 Co714 1.965 . S
O739 C747 1.258 . S
O740 Co715 1.941 . S
O740 C747 1.266 . S
H741 C743 0.959 . S
H742 C743 0.969 . S
C743 C733 1.510 1_545 S
C743 H741 0.959 . S
C743 H742 0.969 . S
C743 H744 0.960 . S
H744 C743 0.960 . S
H745 N725 0.862 . S
O746 Co714 1.922 1_565 S
O746 C719 1.289 . S
C747 O739 1.258 . S
C747 O740 1.266 . S
Co748 O751 1.969 . S
Co748 N765 1.990 1_545 S
Co748 O773 1.965 . S
Co748 O780 1.922 1_545 S
Co749 O752 1.966 . S
Co749 N758 2.022 . S
Co749 N766 1.993 . S
Co749 O774 1.941 . S
C750 O751 1.258 . S
C750 O752 1.263 . S
O751 Co748 1.969 . S
O751 C750 1.258 . S
O752 Co749 1.966 . S
O752 C750 1.263 . S
C753 O754 1.235 . S
C753 O780 1.289 . S
O754 C753 1.235 . S
C755 C757 1.400 . S
C755 N758 1.351 . S
C755 C760 1.501 . S
C756 C757 1.387 . S
C756 N759 1.341 . S
C757 C755 1.400 . S
C757 C756 1.387 . S
N758 Co749 2.022 . S
N758 C755 1.351 . S
N758 N759 1.365 . S
N759 C756 1.341 . S
N759 N758 1.365 . S
N759 H779 0.862 . S
C760 C755 1.501 . S
C760 H761 0.961 . S
C760 H762 0.961 . S
C760 H763 0.960 . S
H761 C760 0.961 . S
H762 C760 0.961 . S
H763 C760 0.960 . S
C764 N765 1.342 . S
C764 C768 1.401 . S
C764 C769 1.499 . S
N765 Co748 1.990 1_565 S
N765 C764 1.342 . S
N765 N766 1.388 1_565 S
N766 Co749 1.993 . S
N766 N765 1.388 1_545 S
N766 C767 1.346 1_545 S
C767 N766 1.346 1_565 S
C767 C768 1.396 . S
C767 C777 1.510 1_565 S
C768 C764 1.401 . S
C768 C767 1.396 . S
C769 C764 1.499 . S
C769 H770 0.959 . S
C769 H771 0.960 . S
C769 H772 0.961 . S
H770 C769 0.959 . S
H771 C769 0.960 . S
H772 C769 0.961 . S
O773 Co748 1.965 . S
O773 C781 1.258 . S
O774 Co749 1.941 . S
O774 C781 1.266 . S
H775 C777 0.959 . S
H776 C777 0.969 . S
C777 C767 1.510 1_545 S
C777 H775 0.959 . S
C777 H776 0.969 . S
C777 H778 0.960 . S
H778 C777 0.960 . S
H779 N759 0.862 . S
O780 Co748 1.922 1_565 S
O780 C753 1.289 . S
C781 O773 1.258 . S
C781 O774 1.266 . S
Co782 O785 1.970 . S
Co782 N799 1.989 . S
Co782 O807 1.967 . S
Co782 O814 1.920 . S
Co783 O786 1.966 . S
Co783 N792 2.022 . S
Co783 N800 1.993 . S
Co783 O808 1.941 . S
C784 O785 1.258 . S
C784 O786 1.263 . S
O785 Co782 1.970 . S
O785 C784 1.258 . S
O786 Co783 1.966 . S
O786 C784 1.263 . S
C787 O788 1.235 . S
C787 O814 1.289 . S
O788 C787 1.235 . S
C789 C791 1.400 . S
C789 N792 1.351 . S
C789 C794 1.501 . S
C790 C791 1.387 . S
C790 N793 1.341 . S
C791 C789 1.400 . S
C791 C790 1.387 . S
N792 Co783 2.022 . S
N792 C789 1.351 . S
N792 N793 1.365 . S
N793 C790 1.341 . S
N793 N792 1.365 . S
N793 H813 0.862 . S
C794 C789 1.501 . S
C794 H795 0.961 . S
C794 H796 0.961 . S
C794 H797 0.960 . S
H795 C794 0.961 . S
H796 C794 0.961 . S
H797 C794 0.960 . S
C798 N799 1.342 . S
C798 C802 1.401 . S
C798 C803 1.499 . S
N799 Co782 1.989 . S
N799 C798 1.342 . S
N799 N800 1.388 . S
N800 Co783 1.993 . S
N800 N799 1.388 . S
N800 C801 1.346 . S
C801 N800 1.346 . S
C801 C802 1.396 . S
C801 C811 1.510 . S
C802 C798 1.401 . S
C802 C801 1.396 . S
C803 C798 1.499 . S
C803 H804 0.959 . S
C803 H805 0.960 . S
C803 H806 0.961 . S
H804 C803 0.959 . S
H805 C803 0.960 . S
H806 C803 0.961 . S
O807 Co782 1.967 . S
O807 C815 1.258 . S
O808 Co783 1.941 . S
O808 C815 1.266 . S
H809 C811 0.959 . S
H810 C811 0.961 . S
C811 C801 1.510 . S
C811 H809 0.959 . S
C811 H810 0.961 . S
C811 H812 0.960 . S
H812 C811 0.960 . S
H813 N793 0.862 . S
O814 Co782 1.920 . S
O814 C787 1.289 . S
C815 O807 1.258 . S
C815 O808 1.266 . S
Co816 O819 1.970 . S
Co816 N833 1.989 . S
Co816 O841 1.967 . S
Co816 O848 1.920 . S
Co817 O820 1.966 . S
Co817 N826 2.022 . S
Co817 N834 1.993 . S
Co817 O842 1.941 . S
C818 O819 1.258 . S
C818 O820 1.263 . S
O819 Co816 1.970 . S
O819 C818 1.258 . S
O820 Co817 1.966 . S
O820 C818 1.263 . S
C821 O822 1.235 . S
C821 O848 1.289 . S
O822 C821 1.235 . S
C823 C825 1.400 . S
C823 N826 1.351 . S
C823 C828 1.501 . S
C824 C825 1.387 . S
C824 N827 1.341 . S
C825 C823 1.400 . S
C825 C824 1.387 . S
N826 Co817 2.022 . S
N826 C823 1.351 . S
N826 N827 1.365 . S
N827 C824 1.341 . S
N827 N826 1.365 . S
N827 H847 0.862 . S
C828 C823 1.501 . S
C828 H829 0.961 . S
C828 H830 0.961 . S
C828 H831 0.960 . S
H829 C828 0.961 . S
H830 C828 0.961 . S
H831 C828 0.960 . S
C832 N833 1.342 . S
C832 C836 1.401 . S
C832 C837 1.499 . S
N833 Co816 1.989 . S
N833 C832 1.342 . S
N833 N834 1.388 . S
N834 Co817 1.993 . S
N834 N833 1.388 . S
N834 C835 1.346 . S
C835 N834 1.346 . S
C835 C836 1.396 . S
C835 C845 1.510 . S
C836 C832 1.401 . S
C836 C835 1.396 . S
C837 C832 1.499 . S
C837 H838 0.959 . S
C837 H839 0.960 . S
C837 H840 0.961 . S
H838 C837 0.959 . S
H839 C837 0.960 . S
H840 C837 0.961 . S
O841 Co816 1.967 . S
O841 C849 1.258 . S
O842 Co817 1.941 . S
O842 C849 1.266 . S
H843 C845 0.959 . S
H844 C845 0.961 . S
C845 C835 1.510 . S
C845 H843 0.959 . S
C845 H844 0.961 . S
C845 H846 0.960 . S
H846 C845 0.960 . S
H847 N827 0.862 . S
O848 Co816 1.920 . S
O848 C821 1.289 . S
C849 O841 1.258 . S
C849 O842 1.266 . S
Co850 O853 1.970 . S
Co850 N867 1.989 . S
Co850 O875 1.967 . S
Co850 O882 1.920 . S
Co851 O854 1.966 . S
Co851 N860 2.022 . S
Co851 N868 1.993 . S
Co851 O876 1.941 . S
C852 O853 1.258 . S
C852 O854 1.263 . S
O853 Co850 1.970 . S
O853 C852 1.258 . S
O854 Co851 1.966 . S
O854 C852 1.263 . S
C855 O856 1.235 . S
C855 O882 1.289 . S
O856 C855 1.235 . S
C857 C859 1.400 . S
C857 N860 1.351 . S
C857 C862 1.501 . S
C858 C859 1.387 . S
C858 N861 1.341 . S
C859 C857 1.400 . S
C859 C858 1.387 . S
N860 Co851 2.022 . S
N860 C857 1.351 . S
N860 N861 1.365 . S
N861 C858 1.341 . S
N861 N860 1.365 . S
N861 H881 0.862 . S
C862 C857 1.501 . S
C862 H863 0.961 . S
C862 H864 0.961 . S
C862 H865 0.960 . S
H863 C862 0.961 . S
H864 C862 0.961 . S
H865 C862 0.960 . S
C866 N867 1.342 . S
C866 C870 1.401 . S
C866 C871 1.499 . S
N867 Co850 1.989 . S
N867 C866 1.342 . S
N867 N868 1.388 . S
N868 Co851 1.993 . S
N868 N867 1.388 . S
N868 C869 1.346 . S
C869 N868 1.346 . S
C869 C870 1.396 . S
C869 C879 1.510 . S
C870 C866 1.401 . S
C870 C869 1.396 . S
C871 C866 1.499 . S
C871 H872 0.959 . S
C871 H873 0.960 . S
C871 H874 0.961 . S
H872 C871 0.959 . S
H873 C871 0.960 . S
H874 C871 0.961 . S
O875 Co850 1.967 . S
O875 C883 1.258 . S
O876 Co851 1.941 . S
O876 C883 1.266 . S
H877 C879 0.959 . S
H878 C879 0.961 . S
C879 C869 1.510 . S
C879 H877 0.959 . S
C879 H878 0.961 . S
C879 H880 0.960 . S
H880 C879 0.960 . S
H881 N861 0.862 . S
O882 Co850 1.920 . S
O882 C855 1.289 . S
C883 O875 1.258 . S
C883 O876 1.266 . S
Co884 O887 1.970 . S
Co884 N901 1.989 . S
Co884 O909 1.967 . S
Co884 O916 1.920 . S
Co885 O888 1.966 . S
Co885 N894 2.022 1_554 S
Co885 N902 1.990 1_554 S
Co885 O910 1.941 . S
C886 O887 1.258 . S
C886 O888 1.263 . S
O887 Co884 1.970 . S
O887 C886 1.258 . S
O888 Co885 1.966 . S
O888 C886 1.263 . S
C889 O890 1.235 . S
C889 O916 1.289 . S
O890 C889 1.235 . S
C891 C893 1.400 . S
C891 N894 1.351 . S
C891 C896 1.501 . S
C892 C893 1.387 . S
C892 N895 1.341 . S
C893 C891 1.400 . S
C893 C892 1.387 . S
N894 Co885 2.022 1_556 S
N894 C891 1.351 . S
N894 N895 1.365 . S
N895 C892 1.341 . S
N895 N894 1.365 . S
N895 H915 0.862 . S
C896 C891 1.501 . S
C896 H897 0.961 . S
C896 H898 0.961 . S
C896 H899 0.960 . S
H897 C896 0.961 . S
H898 C896 0.961 . S
H899 C896 0.960 . S
C900 N901 1.342 . S
C900 C904 1.401 1_554 S
C900 C905 1.499 . S
N901 Co884 1.989 . S
N901 C900 1.342 . S
N901 N902 1.377 1_554 S
N902 Co885 1.990 1_556 S
N902 N901 1.377 1_556 S
N902 C903 1.357 . S
C903 N902 1.357 . S
C903 C904 1.396 . S
C903 C913 1.510 . S
C904 C900 1.401 1_556 S
C904 C903 1.396 . S
C905 C900 1.499 . S
C905 H906 0.959 . S
C905 H907 0.960 . S
C905 H908 0.961 . S
H906 C905 0.959 . S
H907 C905 0.960 . S
H908 C905 0.961 . S
O909 Co884 1.967 . S
O909 C917 1.258 . S
O910 Co885 1.941 . S
O910 C917 1.266 . S
H911 C913 0.959 . S
H912 C913 0.961 . S
C913 C903 1.510 . S
C913 H911 0.959 . S
C913 H912 0.961 . S
C913 H914 0.960 . S
H914 C913 0.960 . S
H915 N895 0.862 . S
O916 Co884 1.920 . S
O916 C889 1.289 . S
C917 O909 1.258 . S
C917 O910 1.266 . S
Co918 O921 1.970 . S
Co918 N935 1.989 . S
Co918 O943 1.967 . S
Co918 O950 1.920 . S
Co919 O922 1.966 . S
Co919 N928 2.022 1_554 S
Co919 N936 1.990 1_554 S
Co919 O944 1.941 . S
C920 O921 1.258 . S
C920 O922 1.263 . S
O921 Co918 1.970 . S
O921 C920 1.258 . S
O922 Co919 1.966 . S
O922 C920 1.263 . S
C923 O924 1.235 . S
C923 O950 1.289 . S
O924 C923 1.235 . S
C925 C927 1.400 . S
C925 N928 1.351 . S
C925 C930 1.501 . S
C926 C927 1.387 . S
C926 N929 1.341 . S
C927 C925 1.400 . S
C927 C926 1.387 . S
N928 Co919 2.022 1_556 S
N928 C925 1.351 . S
N928 N929 1.365 . S
N929 C926 1.341 . S
N929 N928 1.365 . S
N929 H949 0.862 . S
C930 C925 1.501 . S
C930 H931 0.961 . S
C930 H932 0.961 . S
C930 H933 0.960 . S
H931 C930 0.961 . S
H932 C930 0.961 . S
H933 C930 0.960 . S
C934 N935 1.342 . S
C934 C938 1.401 1_554 S
C934 C939 1.499 . S
N935 Co918 1.989 . S
N935 C934 1.342 . S
N935 N936 1.377 1_554 S
N936 Co919 1.990 1_556 S
N936 N935 1.377 1_556 S
N936 C937 1.357 . S
C937 N936 1.357 . S
C937 C938 1.396 . S
C937 C947 1.510 . S
C938 C934 1.401 1_556 S
C938 C937 1.396 . S
C939 C934 1.499 . S
C939 H940 0.959 . S
C939 H941 0.960 . S
C939 H942 0.961 . S
H940 C939 0.959 . S
H941 C939 0.960 . S
H942 C939 0.961 . S
O943 Co918 1.967 . S
O943 C951 1.258 . S
O944 Co919 1.941 . S
O944 C951 1.266 . S
H945 C947 0.959 . S
H946 C947 0.961 . S
C947 C937 1.510 . S
C947 H945 0.959 . S
C947 H946 0.961 . S
C947 H948 0.960 . S
H948 C947 0.960 . S
H949 N929 0.862 . S
O950 Co918 1.920 . S
O950 C923 1.289 . S
C951 O943 1.258 . S
C951 O944 1.266 . S
Co952 O955 1.970 . S
Co952 N969 1.989 . S
Co952 O977 1.967 . S
Co952 O984 1.920 . S
Co953 O956 1.966 . S
Co953 N962 2.022 . S
Co953 N970 1.993 . S
Co953 O978 1.941 . S
C954 O955 1.258 . S
C954 O956 1.263 . S
O955 Co952 1.970 . S
O955 C954 1.258 . S
O956 Co953 1.966 . S
O956 C954 1.263 . S
C957 O958 1.235 . S
C957 O984 1.289 . S
O958 C957 1.235 . S
C959 C961 1.400 . S
C959 N962 1.351 . S
C959 C964 1.501 . S
C960 C961 1.387 . S
C960 N963 1.341 . S
C961 C959 1.400 . S
C961 C960 1.387 . S
N962 Co953 2.022 . S
N962 C959 1.351 . S
N962 N963 1.365 . S
N963 C960 1.341 . S
N963 N962 1.365 . S
N963 H983 0.862 . S
C964 C959 1.501 . S
C964 H965 0.961 . S
C964 H966 0.961 . S
C964 H967 0.960 . S
H965 C964 0.961 . S
H966 C964 0.961 . S
H967 C964 0.960 . S
C968 N969 1.342 . S
C968 C972 1.401 . S
C968 C973 1.499 . S
N969 Co952 1.989 . S
N969 C968 1.342 . S
N969 N970 1.388 . S
N970 Co953 1.993 . S
N970 N969 1.388 . S
N970 C971 1.346 . S
C971 N970 1.346 . S
C971 C972 1.396 . S
C971 C981 1.510 . S
C972 C968 1.401 . S
C972 C971 1.396 . S
C973 C968 1.499 . S
C973 H974 0.959 . S
C973 H975 0.960 . S
C973 H976 0.961 . S
H974 C973 0.959 . S
H975 C973 0.960 . S
H976 C973 0.961 . S
O977 Co952 1.967 . S
O977 C985 1.258 . S
O978 Co953 1.941 . S
O978 C985 1.266 . S
H979 C981 0.959 . S
H980 C981 0.961 . S
C981 C971 1.510 . S
C981 H979 0.959 . S
C981 H980 0.961 . S
C981 H982 0.960 . S
H982 C981 0.960 . S
H983 N963 0.862 . S
O984 Co952 1.920 . S
O984 C957 1.289 . S
C985 O977 1.258 . S
C985 O978 1.266 . S
Co986 O989 1.970 . S
Co986 N1003 1.989 . S
Co986 O1011 1.967 . S
Co986 O1018 1.920 . S
Co987 O990 1.966 . S
Co987 N996 2.022 . S
Co987 N1004 1.993 . S
Co987 O1012 1.941 . S
C988 O989 1.258 . S
C988 O990 1.263 . S
O989 Co986 1.970 . S
O989 C988 1.258 . S
O990 Co987 1.966 . S
O990 C988 1.263 . S
C991 O992 1.235 . S
C991 O1018 1.289 . S
O992 C991 1.235 . S
C993 C995 1.400 . S
C993 N996 1.351 . S
C993 C998 1.501 . S
C994 C995 1.387 . S
C994 N997 1.341 . S
C995 C993 1.400 . S
C995 C994 1.387 . S
N996 Co987 2.022 . S
N996 C993 1.351 . S
N996 N997 1.365 . S
N997 C994 1.341 . S
N997 N996 1.365 . S
N997 H1017 0.862 . S
C998 C993 1.501 . S
C998 H999 0.961 . S
C998 H1000 0.961 . S
C998 H1001 0.960 . S
H999 C998 0.961 . S
H1000 C998 0.961 . S
H1001 C998 0.960 . S
C1002 N1003 1.342 . S
C1002 C1006 1.401 . S
C1002 C1007 1.499 . S
N1003 Co986 1.989 . S
N1003 C1002 1.342 . S
N1003 N1004 1.388 . S
N1004 Co987 1.993 . S
N1004 N1003 1.388 . S
N1004 C1005 1.346 . S
C1005 N1004 1.346 . S
C1005 C1006 1.396 . S
C1005 C1015 1.510 . S
C1006 C1002 1.401 . S
C1006 C1005 1.396 . S
C1007 C1002 1.499 . S
C1007 H1008 0.959 . S
C1007 H1009 0.960 . S
C1007 H1010 0.961 . S
H1008 C1007 0.959 . S
H1009 C1007 0.960 . S
H1010 C1007 0.961 . S
O1011 Co986 1.967 . S
O1011 C1019 1.258 . S
O1012 Co987 1.941 . S
O1012 C1019 1.266 . S
H1013 C1015 0.959 . S
H1014 C1015 0.961 . S
C1015 C1005 1.510 . S
C1015 H1013 0.959 . S
C1015 H1014 0.961 . S
C1015 H1016 0.960 . S
H1016 C1015 0.960 . S
H1017 N997 0.862 . S
O1018 Co986 1.920 . S
O1018 C991 1.289 . S
C1019 O1011 1.258 . S
C1019 O1012 1.266 . S
Co1020 O1023 1.970 . S
Co1020 N1037 1.989 . S
Co1020 O1045 1.967 . S
Co1020 O1052 1.920 . S
Co1021 O1024 1.966 . S
Co1021 N1030 2.022 1_556 S
Co1021 N1038 1.990 1_556 S
Co1021 O1046 1.941 . S
C1022 O1023 1.258 . S
C1022 O1024 1.263 . S
O1023 Co1020 1.970 . S
O1023 C1022 1.258 . S
O1024 Co1021 1.966 . S
O1024 C1022 1.263 . S
C1025 O1026 1.235 . S
C1025 O1052 1.289 . S
O1026 C1025 1.235 . S
C1027 C1029 1.400 . S
C1027 N1030 1.351 . S
C1027 C1032 1.501 . S
C1028 C1029 1.387 . S
C1028 N1031 1.341 . S
C1029 C1027 1.400 . S
C1029 C1028 1.387 . S
N1030 Co1021 2.022 1_554 S
N1030 C1027 1.351 . S
N1030 N1031 1.365 . S
N1031 C1028 1.341 . S
N1031 N1030 1.365 . S
N1031 H1051 0.862 . S
C1032 C1027 1.501 . S
C1032 H1033 0.961 . S
C1032 H1034 0.961 . S
C1032 H1035 0.960 . S
H1033 C1032 0.961 . S
H1034 C1032 0.961 . S
H1035 C1032 0.960 . S
C1036 N1037 1.342 . S
C1036 C1040 1.401 1_556 S
C1036 C1041 1.499 . S
N1037 Co1020 1.989 . S
N1037 C1036 1.342 . S
N1037 N1038 1.377 1_556 S
N1038 Co1021 1.990 1_554 S
N1038 N1037 1.377 1_554 S
N1038 C1039 1.357 . S
C1039 N1038 1.357 . S
C1039 C1040 1.396 . S
C1039 C1049 1.510 . S
C1040 C1036 1.401 1_554 S
C1040 C1039 1.396 . S
C1041 C1036 1.499 . S
C1041 H1042 0.959 . S
C1041 H1043 0.960 . S
C1041 H1044 0.961 . S
H1042 C1041 0.959 . S
H1043 C1041 0.960 . S
H1044 C1041 0.961 . S
O1045 Co1020 1.967 . S
O1045 C1053 1.258 . S
O1046 Co1021 1.941 . S
O1046 C1053 1.266 . S
H1047 C1049 0.959 . S
H1048 C1049 0.961 . S
C1049 C1039 1.510 . S
C1049 H1047 0.959 . S
C1049 H1048 0.961 . S
C1049 H1050 0.960 . S
H1050 C1049 0.960 . S
H1051 N1031 0.862 . S
O1052 Co1020 1.920 . S
O1052 C1025 1.289 . S
C1053 O1045 1.258 . S
C1053 O1046 1.266 . S
Co1054 O1057 1.970 . S
Co1054 N1071 1.989 . S
Co1054 O1079 1.967 . S
Co1054 O1086 1.920 . S
Co1055 O1058 1.966 . S
Co1055 N1064 2.022 1_556 S
Co1055 N1072 1.990 1_556 S
Co1055 O1080 1.941 . S
C1056 O1057 1.258 . S
C1056 O1058 1.263 . S
O1057 Co1054 1.970 . S
O1057 C1056 1.258 . S
O1058 Co1055 1.966 . S
O1058 C1056 1.263 . S
C1059 O1060 1.235 . S
C1059 O1086 1.289 . S
O1060 C1059 1.235 . S
C1061 C1063 1.400 . S
C1061 N1064 1.351 . S
C1061 C1066 1.501 . S
C1062 C1063 1.387 . S
C1062 N1065 1.341 . S
C1063 C1061 1.400 . S
C1063 C1062 1.387 . S
N1064 Co1055 2.022 1_554 S
N1064 C1061 1.351 . S
N1064 N1065 1.365 . S
N1065 C1062 1.341 . S
N1065 N1064 1.365 . S
N1065 H1085 0.862 . S
C1066 C1061 1.501 . S
C1066 H1067 0.961 . S
C1066 H1068 0.961 . S
C1066 H1069 0.960 . S
H1067 C1066 0.961 . S
H1068 C1066 0.961 . S
H1069 C1066 0.960 . S
C1070 N1071 1.342 . S
C1070 C1074 1.401 1_556 S
C1070 C1075 1.499 . S
N1071 Co1054 1.989 . S
N1071 C1070 1.342 . S
N1071 N1072 1.377 1_556 S
N1072 Co1055 1.990 1_554 S
N1072 N1071 1.377 1_554 S
N1072 C1073 1.357 . S
C1073 N1072 1.357 . S
C1073 C1074 1.396 . S
C1073 C1083 1.510 . S
C1074 C1070 1.401 1_554 S
C1074 C1073 1.396 . S
C1075 C1070 1.499 . S
C1075 H1076 0.959 . S
C1075 H1077 0.960 . S
C1075 H1078 0.961 . S
H1076 C1075 0.959 . S
H1077 C1075 0.960 . S
H1078 C1075 0.961 . S
O1079 Co1054 1.967 . S
O1079 C1087 1.258 . S
O1080 Co1055 1.941 . S
O1080 C1087 1.266 . S
H1081 C1083 0.959 . S
H1082 C1083 0.961 . S
C1083 C1073 1.510 . S
C1083 H1081 0.959 . S
C1083 H1082 0.961 . S
C1083 H1084 0.960 . S
H1084 C1083 0.960 . S
H1085 N1065 0.862 . S
O1086 Co1054 1.920 . S
O1086 C1059 1.289 . S
C1087 O1079 1.258 . S
C1087 O1080 1.266 . S
C1088 C1089 1.363 . S
C1088 C1094 1.379 . S
C1088 N1096 1.356 . S
C1089 C1088 1.363 . S
C1089 C1095 1.363 . S
C1090 C1091 1.363 . S
C1090 C1095 1.379 . S
C1090 N1097 1.356 . S
C1091 C1090 1.363 . S
C1091 C1094 1.363 . S
N1092 C1094 1.356 . S
N1092 H1104 0.984 . S
N1092 H1105 0.985 . S
N1093 C1095 1.356 . S
N1093 H1098 0.984 . S
N1093 H1099 0.985 . S
C1094 C1088 1.379 . S
C1094 C1091 1.363 . S
C1094 N1092 1.356 . S
C1095 C1089 1.363 . S
C1095 C1090 1.379 . S
C1095 N1093 1.356 . S
N1096 C1088 1.356 . S
N1096 H1102 0.984 . S
N1096 H1103 0.984 . S
N1097 C1090 1.356 . S
N1097 H1100 0.984 . S
N1097 H1101 0.985 . S
H1098 N1093 0.984 . S
H1099 N1093 0.985 . S
H1100 N1097 0.984 . S
H1101 N1097 0.985 . S
H1102 N1096 0.984 . S
H1103 N1096 0.984 . S
H1104 N1092 0.984 . S
H1105 N1092 0.985 . S
C1106 C1107 1.363 . S
C1106 C1112 1.379 . S
C1106 N1114 1.356 . S
C1107 C1106 1.363 . S
C1107 C1113 1.363 . S
C1108 C1109 1.363 . S
C1108 C1113 1.379 . S
C1108 N1115 1.356 . S
C1109 C1108 1.363 . S
C1109 C1112 1.363 . S
N1110 C1112 1.356 . S
N1110 H1122 0.984 . S
N1110 H1123 0.985 . S
N1111 C1113 1.356 . S
N1111 H1116 0.984 . S
N1111 H1117 0.985 . S
C1112 C1106 1.379 . S
C1112 C1109 1.363 . S
C1112 N1110 1.356 . S
C1113 C1107 1.363 . S
C1113 C1108 1.379 . S
C1113 N1111 1.356 . S
N1114 C1106 1.356 . S
N1114 H1120 0.984 . S
N1114 H1121 0.984 . S
N1115 C1108 1.356 . S
N1115 H1118 0.984 . S
N1115 H1119 0.985 . S
H1116 N1111 0.984 . S
H1117 N1111 0.985 . S
H1118 N1115 0.984 . S
H1119 N1115 0.985 . S
H1120 N1114 0.984 . S
H1121 N1114 0.984 . S
H1122 N1110 0.984 . S
H1123 N1110 0.985 . S
C1124 C1125 1.363 . S
C1124 C1130 1.379 . S
C1124 N1132 1.356 . S
C1125 C1124 1.363 . S
C1125 C1131 1.363 . S
C1126 C1127 1.363 . S
C1126 C1131 1.379 . S
C1126 N1133 1.356 . S
C1127 C1126 1.363 . S
C1127 C1130 1.363 . S
N1128 C1130 1.356 . S
N1128 H1140 0.984 . S
N1128 H1141 0.985 . S
N1129 C1131 1.356 . S
N1129 H1134 0.984 . S
N1129 H1135 0.985 . S
C1130 C1124 1.379 . S
C1130 C1127 1.363 . S
C1130 N1128 1.356 . S
C1131 C1125 1.363 . S
C1131 C1126 1.379 . S
C1131 N1129 1.356 . S
N1132 C1124 1.356 . S
N1132 H1138 0.984 . S
N1132 H1139 0.984 . S
N1133 C1126 1.356 . S
N1133 H1136 0.984 . S
N1133 H1137 0.985 . S
H1134 N1129 0.984 . S
H1135 N1129 0.985 . S
H1136 N1133 0.984 . S
H1137 N1133 0.985 . S
H1138 N1132 0.984 . S
H1139 N1132 0.984 . S
H1140 N1128 0.984 . S
H1141 N1128 0.985 . S
C1142 C1143 1.363 . S
C1142 C1148 1.379 . S
C1142 N1150 1.356 . S
C1143 C1142 1.363 . S
C1143 C1149 1.363 . S
C1144 C1145 1.363 . S
C1144 C1149 1.379 . S
C1144 N1151 1.356 . S
C1145 C1144 1.363 . S
C1145 C1148 1.363 . S
N1146 C1148 1.356 . S
N1146 H1158 0.984 . S
N1146 H1159 0.985 . S
N1147 C1149 1.356 . S
N1147 H1152 0.984 . S
N1147 H1153 0.985 . S
C1148 C1142 1.379 . S
C1148 C1145 1.363 . S
C1148 N1146 1.356 . S
C1149 C1143 1.363 . S
C1149 C1144 1.379 . S
C1149 N1147 1.356 . S
N1150 C1142 1.356 . S
N1150 H1156 0.984 . S
N1150 H1157 0.984 . S
N1151 C1144 1.356 . S
N1151 H1154 0.984 . S
N1151 H1155 0.985 . S
H1152 N1147 0.984 . S
H1153 N1147 0.985 . S
H1154 N1151 0.984 . S
H1155 N1151 0.985 . S
H1156 N1150 0.984 . S
H1157 N1150 0.984 . S
H1158 N1146 0.984 . S
H1159 N1146 0.985 . S
C1160 C1161 1.363 . S
C1160 C1166 1.379 . S
C1160 N1168 1.356 . S
C1161 C1160 1.363 . S
C1161 C1167 1.363 . S
C1162 C1163 1.363 . S
C1162 C1167 1.379 . S
C1162 N1169 1.356 . S
C1163 C1162 1.363 . S
C1163 C1166 1.363 . S
N1164 C1166 1.356 . S
N1164 H1176 0.984 . S
N1164 H1177 0.985 . S
N1165 C1167 1.356 . S
N1165 H1170 0.984 . S
N1165 H1171 0.985 . S
C1166 C1160 1.379 . S
C1166 C1163 1.363 . S
C1166 N1164 1.356 . S
C1167 C1161 1.363 . S
C1167 C1162 1.379 . S
C1167 N1165 1.356 . S
N1168 C1160 1.356 . S
N1168 H1174 0.984 . S
N1168 H1175 0.984 . S
N1169 C1162 1.356 . S
N1169 H1172 0.984 . S
N1169 H1173 0.985 . S
H1170 N1165 0.984 . S
H1171 N1165 0.985 . S
H1172 N1169 0.984 . S
H1173 N1169 0.985 . S
H1174 N1168 0.984 . S
H1175 N1168 0.984 . S
H1176 N1164 0.984 . S
H1177 N1164 0.985 . S
C1178 C1179 1.363 . S
C1178 C1184 1.379 . S
C1178 N1186 1.356 . S
C1179 C1178 1.363 . S
C1179 C1185 1.363 . S
C1180 C1181 1.363 . S
C1180 C1185 1.379 . S
C1180 N1187 1.356 . S
C1181 C1180 1.363 . S
C1181 C1184 1.363 . S
N1182 C1184 1.356 . S
N1182 H1194 0.984 . S
N1182 H1195 0.985 . S
N1183 C1185 1.356 . S
N1183 H1188 0.984 . S
N1183 H1189 0.985 . S
C1184 C1178 1.379 . S
C1184 C1181 1.363 . S
C1184 N1182 1.356 . S
C1185 C1179 1.363 . S
C1185 C1180 1.379 . S
C1185 N1183 1.356 . S
N1186 C1178 1.356 . S
N1186 H1192 0.984 . S
N1186 H1193 0.984 . S
N1187 C1180 1.356 . S
N1187 H1190 0.984 . S
N1187 H1191 0.985 . S
H1188 N1183 0.984 . S
H1189 N1183 0.985 . S
H1190 N1187 0.984 . S
H1191 N1187 0.985 . S
H1192 N1186 0.984 . S
H1193 N1186 0.984 . S
H1194 N1182 0.984 . S
H1195 N1182 0.985 . S
C1196 C1197 1.363 . S
C1196 C1202 1.379 . S
C1196 N1204 1.356 . S
C1197 C1196 1.363 . S
C1197 C1203 1.363 . S
C1198 C1199 1.363 . S
C1198 C1203 1.379 . S
C1198 N1205 1.356 . S
C1199 C1198 1.363 . S
C1199 C1202 1.363 . S
N1200 C1202 1.356 . S
N1200 H1212 0.984 . S
N1200 H1213 0.985 . S
N1201 C1203 1.356 . S
N1201 H1206 0.984 . S
N1201 H1207 0.985 . S
C1202 C1196 1.379 . S
C1202 C1199 1.363 . S
C1202 N1200 1.356 . S
C1203 C1197 1.363 . S
C1203 C1198 1.379 . S
C1203 N1201 1.356 . S
N1204 C1196 1.356 . S
N1204 H1210 0.984 . S
N1204 H1211 0.984 . S
N1205 C1198 1.356 . S
N1205 H1208 0.984 . S
N1205 H1209 0.985 . S
H1206 N1201 0.984 . S
H1207 N1201 0.985 . S
H1208 N1205 0.984 . S
H1209 N1205 0.985 . S
H1210 N1204 0.984 . S
H1211 N1204 0.984 . S
H1212 N1200 0.984 . S
H1213 N1200 0.985 . S
C1214 C1215 1.363 . S
C1214 C1220 1.379 . S
C1214 N1222 1.356 . S
C1215 C1214 1.363 . S
C1215 C1221 1.363 . S
C1216 C1217 1.363 . S
C1216 C1221 1.379 . S
C1216 N1223 1.356 . S
C1217 C1216 1.363 . S
C1217 C1220 1.363 . S
N1218 C1220 1.356 . S
N1218 H1230 0.984 . S
N1218 H1231 0.985 . S
N1219 C1221 1.356 . S
N1219 H1224 0.984 . S
N1219 H1225 0.985 . S
C1220 C1214 1.379 . S
C1220 C1217 1.363 . S
C1220 N1218 1.356 . S
C1221 C1215 1.363 . S
C1221 C1216 1.379 . S
C1221 N1219 1.356 . S
N1222 C1214 1.356 . S
N1222 H1228 0.984 . S
N1222 H1229 0.984 . S
N1223 C1216 1.356 . S
N1223 H1226 0.984 . S
N1223 H1227 0.985 . S
H1224 N1219 0.984 . S
H1225 N1219 0.985 . S
H1226 N1223 0.984 . S
H1227 N1223 0.985 . S
H1228 N1222 0.984 . S
H1229 N1222 0.984 . S
H1230 N1218 0.984 . S
H1231 N1218 0.985 . S
C1232 C1233 1.363 . S
C1232 C1238 1.379 . S
C1232 N1240 1.356 . S
C1233 C1232 1.363 . S
C1233 C1239 1.363 . S
C1234 C1235 1.363 . S
C1234 C1239 1.379 . S
C1234 N1241 1.356 . S
C1235 C1234 1.363 . S
C1235 C1238 1.363 . S
N1236 C1238 1.356 . S
N1236 H1248 0.984 . S
N1236 H1249 0.985 . S
N1237 C1239 1.356 . S
N1237 H1242 0.984 . S
N1237 H1243 0.985 . S
C1238 C1232 1.379 . S
C1238 C1235 1.363 . S
C1238 N1236 1.356 . S
C1239 C1233 1.363 . S
C1239 C1234 1.379 . S
C1239 N1237 1.356 . S
N1240 C1232 1.356 . S
N1240 H1246 0.984 . S
N1240 H1247 0.984 . S
N1241 C1234 1.356 . S
N1241 H1244 0.984 . S
N1241 H1245 0.985 . S
H1242 N1237 0.984 . S
H1243 N1237 0.985 . S
H1244 N1241 0.984 . S
H1245 N1241 0.985 . S
H1246 N1240 0.984 . S
H1247 N1240 0.984 . S
H1248 N1236 0.984 . S
H1249 N1236 0.985 . S
C1250 C1251 1.363 . S
C1250 C1256 1.379 . S
C1250 N1258 1.356 . S
C1251 C1250 1.363 . S
C1251 C1257 1.363 . S
C1252 C1253 1.363 . S
C1252 C1257 1.379 . S
C1252 N1259 1.356 . S
C1253 C1252 1.363 . S
C1253 C1256 1.363 . S
N1254 C1256 1.356 . S
N1254 H1266 0.984 . S
N1254 H1267 0.985 . S
N1255 C1257 1.356 . S
N1255 H1260 0.984 . S
N1255 H1261 0.985 . S
C1256 C1250 1.379 . S
C1256 C1253 1.363 . S
C1256 N1254 1.356 . S
C1257 C1251 1.363 . S
C1257 C1252 1.379 . S
C1257 N1255 1.356 . S
N1258 C1250 1.356 . S
N1258 H1264 0.984 . S
N1258 H1265 0.984 . S
N1259 C1252 1.356 . S
N1259 H1262 0.984 . S
N1259 H1263 0.985 . S
H1260 N1255 0.984 . S
H1261 N1255 0.985 . S
H1262 N1259 0.984 . S
H1263 N1259 0.985 . S
H1264 N1258 0.984 . S
H1265 N1258 0.984 . S
H1266 N1254 0.984 . S
H1267 N1254 0.985 . S
C1268 C1269 1.363 . S
C1268 C1274 1.379 . S
C1268 N1276 1.356 . S
C1269 C1268 1.363 . S
C1269 C1275 1.363 . S
C1270 C1271 1.363 . S
C1270 C1275 1.379 . S
C1270 N1277 1.356 . S
C1271 C1270 1.363 . S
C1271 C1274 1.363 . S
N1272 C1274 1.356 . S
N1272 H1284 0.984 . S
N1272 H1285 0.985 . S
N1273 C1275 1.356 . S
N1273 H1278 0.984 . S
N1273 H1279 0.985 . S
C1274 C1268 1.379 . S
C1274 C1271 1.363 . S
C1274 N1272 1.356 . S
C1275 C1269 1.363 . S
C1275 C1270 1.379 . S
C1275 N1273 1.356 . S
N1276 C1268 1.356 . S
N1276 H1282 0.984 . S
N1276 H1283 0.984 . S
N1277 C1270 1.356 . S
N1277 H1280 0.984 . S
N1277 H1281 0.985 . S
H1278 N1273 0.984 . S
H1279 N1273 0.985 . S
H1280 N1277 0.984 . S
H1281 N1277 0.985 . S
H1282 N1276 0.984 . S
H1283 N1276 0.984 . S
H1284 N1272 0.984 . S
H1285 N1272 0.985 . S
C1286 C1287 1.363 . S
C1286 C1292 1.379 . S
C1286 N1294 1.356 . S
C1287 C1286 1.363 . S
C1287 C1293 1.363 . S
C1288 C1289 1.363 . S
C1288 C1293 1.379 . S
C1288 N1295 1.356 . S
C1289 C1288 1.363 . S
C1289 C1292 1.363 . S
N1290 C1292 1.356 . S
N1290 H1302 0.984 . S
N1290 H1303 0.985 . S
N1291 C1293 1.356 . S
N1291 H1296 0.984 . S
N1291 H1297 0.985 . S
C1292 C1286 1.379 . S
C1292 C1289 1.363 . S
C1292 N1290 1.356 . S
C1293 C1287 1.363 . S
C1293 C1288 1.379 . S
C1293 N1291 1.356 . S
N1294 C1286 1.356 . S
N1294 H1300 0.984 . S
N1294 H1301 0.984 . S
N1295 C1288 1.356 . S
N1295 H1298 0.984 . S
N1295 H1299 0.985 . S
H1296 N1291 0.984 . S
H1297 N1291 0.985 . S
H1298 N1295 0.984 . S
H1299 N1295 0.985 . S
H1300 N1294 0.984 . S
H1301 N1294 0.984 . S
H1302 N1290 0.984 . S
H1303 N1290 0.985 . S
C1304 C1305 1.363 . S
C1304 C1310 1.379 . S
C1304 N1312 1.356 . S
C1305 C1304 1.363 . S
C1305 C1311 1.363 . S
C1306 C1307 1.363 . S
C1306 C1311 1.379 . S
C1306 N1313 1.356 . S
C1307 C1306 1.363 . S
C1307 C1310 1.363 . S
N1308 C1310 1.356 . S
N1308 H1320 0.984 . S
N1308 H1321 0.985 . S
N1309 C1311 1.356 . S
N1309 H1314 0.984 . S
N1309 H1315 0.985 . S
C1310 C1304 1.379 . S
C1310 C1307 1.363 . S
C1310 N1308 1.356 . S
C1311 C1305 1.363 . S
C1311 C1306 1.379 . S
C1311 N1309 1.356 . S
N1312 C1304 1.356 . S
N1312 H1318 0.984 . S
N1312 H1319 0.984 . S
N1313 C1306 1.356 . S
N1313 H1316 0.984 . S
N1313 H1317 0.985 . S
H1314 N1309 0.984 . S
H1315 N1309 0.985 . S
H1316 N1313 0.984 . S
H1317 N1313 0.985 . S
H1318 N1312 0.984 . S
H1319 N1312 0.984 . S
H1320 N1308 0.984 . S
H1321 N1308 0.985 . S
C1322 C1323 1.363 . S
C1322 C1328 1.379 . S
C1322 N1330 1.356 . S
C1323 C1322 1.363 . S
C1323 C1329 1.363 . S
C1324 C1325 1.363 . S
C1324 C1329 1.379 . S
C1324 N1331 1.356 . S
C1325 C1324 1.363 . S
C1325 C1328 1.363 . S
N1326 C1328 1.356 . S
N1326 H1338 0.984 . S
N1326 H1339 0.985 . S
N1327 C1329 1.356 . S
N1327 H1332 0.984 . S
N1327 H1333 0.985 . S
C1328 C1322 1.379 . S
C1328 C1325 1.363 . S
C1328 N1326 1.356 . S
C1329 C1323 1.363 . S
C1329 C1324 1.379 . S
C1329 N1327 1.356 . S
N1330 C1322 1.356 . S
N1330 H1336 0.984 . S
N1330 H1337 0.984 . S
N1331 C1324 1.356 . S
N1331 H1334 0.984 . S
N1331 H1335 0.985 . S
H1332 N1327 0.984 . S
H1333 N1327 0.985 . S
H1334 N1331 0.984 . S
H1335 N1331 0.985 . S
H1336 N1330 0.984 . S
H1337 N1330 0.984 . S
H1338 N1326 0.984 . S
H1339 N1326 0.985 . S
C1340 C1341 1.363 . S
C1340 C1346 1.379 . S
C1340 N1348 1.356 . S
C1341 C1340 1.363 . S
C1341 C1347 1.363 . S
C1342 C1343 1.363 . S
C1342 C1347 1.379 . S
C1342 N1349 1.356 . S
C1343 C1342 1.363 . S
C1343 C1346 1.363 . S
N1344 C1346 1.356 . S
N1344 H1356 0.984 . S
N1344 H1357 0.985 . S
N1345 C1347 1.356 . S
N1345 H1350 0.984 . S
N1345 H1351 0.985 . S
C1346 C1340 1.379 . S
C1346 C1343 1.363 . S
C1346 N1344 1.356 . S
C1347 C1341 1.363 . S
C1347 C1342 1.379 . S
C1347 N1345 1.356 . S
N1348 C1340 1.356 . S
N1348 H1354 0.984 . S
N1348 H1355 0.984 . S
N1349 C1342 1.356 . S
N1349 H1352 0.984 . S
N1349 H1353 0.985 . S
H1350 N1345 0.984 . S
H1351 N1345 0.985 . S
H1352 N1349 0.984 . S
H1353 N1349 0.985 . S
H1354 N1348 0.984 . S
H1355 N1348 0.984 . S
H1356 N1344 0.984 . S
H1357 N1344 0.985 . S
C1358 C1359 1.363 . S
C1358 C1364 1.379 . S
C1358 N1366 1.356 . S
C1359 C1358 1.363 . S
C1359 C1365 1.363 . S
C1360 C1361 1.363 . S
C1360 C1365 1.379 . S
C1360 N1367 1.356 . S
C1361 C1360 1.363 . S
C1361 C1364 1.363 . S
N1362 C1364 1.356 . S
N1362 H1374 0.984 . S
N1362 H1375 0.985 . S
N1363 C1365 1.356 . S
N1363 H1368 0.984 . S
N1363 H1369 0.985 . S
C1364 C1358 1.379 . S
C1364 C1361 1.363 . S
C1364 N1362 1.356 . S
C1365 C1359 1.363 . S
C1365 C1360 1.379 . S
C1365 N1363 1.356 . S
N1366 C1358 1.356 . S
N1366 H1372 0.984 . S
N1366 H1373 0.984 . S
N1367 C1360 1.356 . S
N1367 H1370 0.984 . S
N1367 H1371 0.985 . S
H1368 N1363 0.984 . S
H1369 N1363 0.985 . S
H1370 N1367 0.984 . S
H1371 N1367 0.985 . S
H1372 N1366 0.984 . S
H1373 N1366 0.984 . S
H1374 N1362 0.984 . S
H1375 N1362 0.985 . S
C1376 C1377 1.363 . S
C1376 C1382 1.379 . S
C1376 N1384 1.356 . S
C1377 C1376 1.363 . S
C1377 C1383 1.363 . S
C1378 C1379 1.363 . S
C1378 C1383 1.379 . S
C1378 N1385 1.356 . S
C1379 C1378 1.363 . S
C1379 C1382 1.363 . S
N1380 C1382 1.356 . S
N1380 H1392 0.984 . S
N1380 H1393 0.985 . S
N1381 C1383 1.356 . S
N1381 H1386 0.984 . S
N1381 H1387 0.985 . S
C1382 C1376 1.379 . S
C1382 C1379 1.363 . S
C1382 N1380 1.356 . S
C1383 C1377 1.363 . S
C1383 C1378 1.379 . S
C1383 N1381 1.356 . S
N1384 C1376 1.356 . S
N1384 H1390 0.984 . S
N1384 H1391 0.984 . S
N1385 C1378 1.356 . S
N1385 H1388 0.984 . S
N1385 H1389 0.985 . S
H1386 N1381 0.984 . S
H1387 N1381 0.985 . S
H1388 N1385 0.984 . S
H1389 N1385 0.985 . S
H1390 N1384 0.984 . S
H1391 N1384 0.984 . S
H1392 N1380 0.984 . S
H1393 N1380 0.985 . S
C1394 C1395 1.363 . S
C1394 C1400 1.379 . S
C1394 N1402 1.356 . S
C1395 C1394 1.363 . S
C1395 C1401 1.363 . S
C1396 C1397 1.363 . S
C1396 C1401 1.379 . S
C1396 N1403 1.356 . S
C1397 C1396 1.363 . S
C1397 C1400 1.363 . S
N1398 C1400 1.356 . S
N1398 H1410 0.984 . S
N1398 H1411 0.985 . S
N1399 C1401 1.356 . S
N1399 H1404 0.984 . S
N1399 H1405 0.985 . S
C1400 C1394 1.379 . S
C1400 C1397 1.363 . S
C1400 N1398 1.356 . S
C1401 C1395 1.363 . S
C1401 C1396 1.379 . S
C1401 N1399 1.356 . S
N1402 C1394 1.356 . S
N1402 H1408 0.984 . S
N1402 H1409 0.984 . S
N1403 C1396 1.356 . S
N1403 H1406 0.984 . S
N1403 H1407 0.985 . S
H1404 N1399 0.984 . S
H1405 N1399 0.985 . S
H1406 N1403 0.984 . S
H1407 N1403 0.985 . S
H1408 N1402 0.984 . S
H1409 N1402 0.984 . S
H1410 N1398 0.984 . S
H1411 N1398 0.985 . S
C1412 C1413 1.363 . S
C1412 C1418 1.379 . S
C1412 N1420 1.356 . S
C1413 C1412 1.363 . S
C1413 C1419 1.363 . S
C1414 C1415 1.363 . S
C1414 C1419 1.379 . S
C1414 N1421 1.356 . S
C1415 C1414 1.363 . S
C1415 C1418 1.363 . S
N1416 C1418 1.356 . S
N1416 H1428 0.984 . S
N1416 H1429 0.985 . S
N1417 C1419 1.356 . S
N1417 H1422 0.984 . S
N1417 H1423 0.985 1_554 S
C1418 C1412 1.379 . S
C1418 C1415 1.363 . S
C1418 N1416 1.356 . S
C1419 C1413 1.363 . S
C1419 C1414 1.379 . S
C1419 N1417 1.356 . S
N1420 C1412 1.356 . S
N1420 H1426 0.984 . S
N1420 H1427 0.984 . S
N1421 C1414 1.356 . S
N1421 H1424 0.984 . S
N1421 H1425 0.985 1_554 S
H1422 N1417 0.984 . S
H1423 N1417 0.985 1_556 S
H1424 N1421 0.984 . S
H1425 N1421 0.985 1_556 S
H1426 N1420 0.984 . S
H1427 N1420 0.984 . S
H1428 N1416 0.984 . S
H1429 N1416 0.985 . S
C1430 C1431 1.363 . S
C1430 C1436 1.379 . S
C1430 N1438 1.356 . S
C1431 C1430 1.363 . S
C1431 C1437 1.363 . S
C1432 C1433 1.363 . S
C1432 C1437 1.379 . S
C1432 N1439 1.356 . S
C1433 C1432 1.363 . S
C1433 C1436 1.363 . S
N1434 C1436 1.356 . S
N1434 H1446 0.984 1_554 S
N1434 H1447 0.985 . S
N1435 C1437 1.356 . S
N1435 H1440 0.984 . S
N1435 H1441 0.985 . S
C1436 C1430 1.379 . S
C1436 C1433 1.363 . S
C1436 N1434 1.356 . S
C1437 C1431 1.363 . S
C1437 C1432 1.379 . S
C1437 N1435 1.356 . S
N1438 C1430 1.356 . S
N1438 H1444 0.984 1_554 S
N1438 H1445 0.984 . S
N1439 C1432 1.356 . S
N1439 H1442 0.984 . S
N1439 H1443 0.985 . S
H1440 N1435 0.984 . S
H1441 N1435 0.985 . S
H1442 N1439 0.984 . S
H1443 N1439 0.985 . S
H1444 N1438 0.984 1_556 S
H1445 N1438 0.984 . S
H1446 N1434 0.984 1_556 S
H1447 N1434 0.985 . S
C1448 C1449 1.363 . S
C1448 C1454 1.379 . S
C1448 N1456 1.356 . S
C1449 C1448 1.363 . S
C1449 C1455 1.363 . S
C1450 C1451 1.363 . S
C1450 C1455 1.379 . S
C1450 N1457 1.356 . S
C1451 C1450 1.363 . S
C1451 C1454 1.363 . S
N1452 C1454 1.356 . S
N1452 H1464 0.984 . S
N1452 H1465 0.985 . S
N1453 C1455 1.356 . S
N1453 H1458 0.984 . S
N1453 H1459 0.985 . S
C1454 C1448 1.379 . S
C1454 C1451 1.363 . S
C1454 N1452 1.356 . S
C1455 C1449 1.363 . S
C1455 C1450 1.379 . S
C1455 N1453 1.356 . S
N1456 C1448 1.356 . S
N1456 H1462 0.984 . S
N1456 H1463 0.984 . S
N1457 C1450 1.356 . S
N1457 H1460 0.984 . S
N1457 H1461 0.985 . S
H1458 N1453 0.984 . S
H1459 N1453 0.985 . S
H1460 N1457 0.984 . S
H1461 N1457 0.985 . S
H1462 N1456 0.984 . S
H1463 N1456 0.984 . S
H1464 N1452 0.984 . S
H1465 N1452 0.985 . S
C1466 C1467 1.363 . S
C1466 C1472 1.379 . S
C1466 N1474 1.356 . S
C1467 C1466 1.363 . S
C1467 C1473 1.363 . S
C1468 C1469 1.363 . S
C1468 C1473 1.379 . S
C1468 N1475 1.356 . S
C1469 C1468 1.363 . S
C1469 C1472 1.363 . S
N1470 C1472 1.356 . S
N1470 H1482 0.984 . S
N1470 H1483 0.985 . S
N1471 C1473 1.356 . S
N1471 H1476 0.984 . S
N1471 H1477 0.985 . S
C1472 C1466 1.379 . S
C1472 C1469 1.363 . S
C1472 N1470 1.356 . S
C1473 C1467 1.363 . S
C1473 C1468 1.379 . S
C1473 N1471 1.356 . S
N1474 C1466 1.356 . S
N1474 H1480 0.984 . S
N1474 H1481 0.984 . S
N1475 C1468 1.356 . S
N1475 H1478 0.984 . S
N1475 H1479 0.985 . S
H1476 N1471 0.984 . S
H1477 N1471 0.985 . S
H1478 N1475 0.984 . S
H1479 N1475 0.985 . S
H1480 N1474 0.984 . S
H1481 N1474 0.984 . S
H1482 N1470 0.984 . S
H1483 N1470 0.985 . S
C1484 C1485 1.363 . S
C1484 C1490 1.379 . S
C1484 N1492 1.356 . S
C1485 C1484 1.363 . S
C1485 C1491 1.363 . S
C1486 C1487 1.363 . S
C1486 C1491 1.379 . S
C1486 N1493 1.356 . S
C1487 C1486 1.363 . S
C1487 C1490 1.363 . S
N1488 C1490 1.356 . S
N1488 H1500 0.984 . S
N1488 H1501 0.985 . S
N1489 C1491 1.356 . S
N1489 H1494 0.984 . S
N1489 H1495 0.985 1_556 S
C1490 C1484 1.379 . S
C1490 C1487 1.363 . S
C1490 N1488 1.356 . S
C1491 C1485 1.363 . S
C1491 C1486 1.379 . S
C1491 N1489 1.356 . S
N1492 C1484 1.356 . S
N1492 H1498 0.984 . S
N1492 H1499 0.984 . S
N1493 C1486 1.356 . S
N1493 H1496 0.984 . S
N1493 H1497 0.985 1_556 S
H1494 N1489 0.984 . S
H1495 N1489 0.985 1_554 S
H1496 N1493 0.984 . S
H1497 N1493 0.985 1_554 S
H1498 N1492 0.984 . S
H1499 N1492 0.984 . S
H1500 N1488 0.984 . S
H1501 N1488 0.985 . S
C1502 C1503 1.363 . S
C1502 C1508 1.379 . S
C1502 N1510 1.356 . S
C1503 C1502 1.363 . S
C1503 C1509 1.363 . S
C1504 C1505 1.363 . S
C1504 C1509 1.379 . S
C1504 N1511 1.356 . S
C1505 C1504 1.363 . S
C1505 C1508 1.363 . S
N1506 C1508 1.356 . S
N1506 H1518 0.984 . S
N1506 H1519 0.985 . S
N1507 C1509 1.356 . S
N1507 H1512 0.984 . S
N1507 H1513 0.985 1_556 S
C1508 C1502 1.379 . S
C1508 C1505 1.363 . S
C1508 N1506 1.356 . S
C1509 C1503 1.363 . S
C1509 C1504 1.379 . S
C1509 N1507 1.356 . S
N1510 C1502 1.356 . S
N1510 H1516 0.984 . S
N1510 H1517 0.984 . S
N1511 C1504 1.356 . S
N1511 H1514 0.984 . S
N1511 H1515 0.985 1_556 S
H1512 N1507 0.984 . S
H1513 N1507 0.985 1_554 S
H1514 N1511 0.984 . S
H1515 N1511 0.985 1_554 S
H1516 N1510 0.984 . S
H1517 N1510 0.984 . S
H1518 N1506 0.984 . S
H1519 N1506 0.985 . S
C1520 C1521 1.363 . S
C1520 C1526 1.379 . S
C1520 N1528 1.356 . S
C1521 C1520 1.363 . S
C1521 C1527 1.363 . S
C1522 C1523 1.363 . S
C1522 C1527 1.379 . S
C1522 N1529 1.356 . S
C1523 C1522 1.363 . S
C1523 C1526 1.363 . S
N1524 C1526 1.356 . S
N1524 H1536 0.984 . S
N1524 H1537 0.985 . S
N1525 C1527 1.356 . S
N1525 H1530 0.984 . S
N1525 H1531 0.985 . S
C1526 C1520 1.379 . S
C1526 C1523 1.363 . S
C1526 N1524 1.356 . S
C1527 C1521 1.363 . S
C1527 C1522 1.379 . S
C1527 N1525 1.356 . S
N1528 C1520 1.356 . S
N1528 H1534 0.984 . S
N1528 H1535 0.984 . S
N1529 C1522 1.356 . S
N1529 H1532 0.984 . S
N1529 H1533 0.985 . S
H1530 N1525 0.984 . S
H1531 N1525 0.985 . S
H1532 N1529 0.984 . S
H1533 N1529 0.985 . S
H1534 N1528 0.984 . S
H1535 N1528 0.984 . S
H1536 N1524 0.984 . S
H1537 N1524 0.985 . S
C1538 C1539 1.363 . S
C1538 C1544 1.379 . S
C1538 N1546 1.356 . S
C1539 C1538 1.363 . S
C1539 C1545 1.363 . S
C1540 C1541 1.363 . S
C1540 C1545 1.379 . S
C1540 N1547 1.356 . S
C1541 C1540 1.363 . S
C1541 C1544 1.363 . S
N1542 C1544 1.356 . S
N1542 H1554 0.984 . S
N1542 H1555 0.985 . S
N1543 C1545 1.356 . S
N1543 H1548 0.984 . S
N1543 H1549 0.985 . S
C1544 C1538 1.379 . S
C1544 C1541 1.363 . S
C1544 N1542 1.356 . S
C1545 C1539 1.363 . S
C1545 C1540 1.379 . S
C1545 N1543 1.356 . S
N1546 C1538 1.356 . S
N1546 H1552 0.984 . S
N1546 H1553 0.984 . S
N1547 C1540 1.356 . S
N1547 H1550 0.984 . S
N1547 H1551 0.985 . S
H1548 N1543 0.984 . S
H1549 N1543 0.985 . S
H1550 N1547 0.984 . S
H1551 N1547 0.985 . S
H1552 N1546 0.984 . S
H1553 N1546 0.984 . S
H1554 N1542 0.984 . S
H1555 N1542 0.985 . S
C1556 C1557 1.363 . S
C1556 C1562 1.379 . S
C1556 N1564 1.356 . S
C1557 C1556 1.363 . S
C1557 C1563 1.363 . S
C1558 C1559 1.363 . S
C1558 C1563 1.379 . S
C1558 N1565 1.356 . S
C1559 C1558 1.363 . S
C1559 C1562 1.363 . S
N1560 C1562 1.356 . S
N1560 H1572 0.984 . S
N1560 H1573 0.985 . S
N1561 C1563 1.356 . S
N1561 H1566 0.984 . S
N1561 H1567 0.985 . S
C1562 C1556 1.379 . S
C1562 C1559 1.363 . S
C1562 N1560 1.356 . S
C1563 C1557 1.363 . S
C1563 C1558 1.379 . S
C1563 N1561 1.356 . S
N1564 C1556 1.356 . S
N1564 H1570 0.984 . S
N1564 H1571 0.984 . S
N1565 C1558 1.356 . S
N1565 H1568 0.984 . S
N1565 H1569 0.985 . S
H1566 N1561 0.984 . S
H1567 N1561 0.985 . S
H1568 N1565 0.984 . S
H1569 N1565 0.985 . S
H1570 N1564 0.984 . S
H1571 N1564 0.984 . S
H1572 N1560 0.984 . S
H1573 N1560 0.985 . S
C1574 C1575 1.363 . S
C1574 C1580 1.379 . S
C1574 N1582 1.356 . S
C1575 C1574 1.363 . S
C1575 C1581 1.363 . S
C1576 C1577 1.363 . S
C1576 C1581 1.379 . S
C1576 N1583 1.356 . S
C1577 C1576 1.363 . S
C1577 C1580 1.363 . S
N1578 C1580 1.356 . S
N1578 H1590 0.984 . S
N1578 H1591 0.985 . S
N1579 C1581 1.356 . S
N1579 H1584 0.984 . S
N1579 H1585 0.985 . S
C1580 C1574 1.379 . S
C1580 C1577 1.363 . S
C1580 N1578 1.356 . S
C1581 C1575 1.363 . S
C1581 C1576 1.379 . S
C1581 N1579 1.356 . S
N1582 C1574 1.356 . S
N1582 H1588 0.984 . S
N1582 H1589 0.984 . S
N1583 C1576 1.356 . S
N1583 H1586 0.984 . S
N1583 H1587 0.985 . S
H1584 N1579 0.984 . S
H1585 N1579 0.985 . S
H1586 N1583 0.984 . S
H1587 N1583 0.985 . S
H1588 N1582 0.984 . S
H1589 N1582 0.984 . S
H1590 N1578 0.984 . S
H1591 N1578 0.985 . S
C1592 C1593 1.363 . S
C1592 C1598 1.379 . S
C1592 N1600 1.356 . S
C1593 C1592 1.363 . S
C1593 C1599 1.363 . S
C1594 C1595 1.363 . S
C1594 C1599 1.379 . S
C1594 N1601 1.356 . S
C1595 C1594 1.363 . S
C1595 C1598 1.363 . S
N1596 C1598 1.356 . S
N1596 H1608 0.984 . S
N1596 H1609 0.985 . S
N1597 C1599 1.356 . S
N1597 H1602 0.984 . S
N1597 H1603 0.985 . S
C1598 C1592 1.379 . S
C1598 C1595 1.363 . S
C1598 N1596 1.356 . S
C1599 C1593 1.363 . S
C1599 C1594 1.379 . S
C1599 N1597 1.356 . S
N1600 C1592 1.356 . S
N1600 H1606 0.984 . S
N1600 H1607 0.984 . S
N1601 C1594 1.356 . S
N1601 H1604 0.984 . S
N1601 H1605 0.985 . S
H1602 N1597 0.984 . S
H1603 N1597 0.985 . S
H1604 N1601 0.984 . S
H1605 N1601 0.985 . S
H1606 N1600 0.984 . S
H1607 N1600 0.984 . S
H1608 N1596 0.984 . S
H1609 N1596 0.985 . S
C1610 C1611 1.363 . S
C1610 C1616 1.379 . S
C1610 N1618 1.356 . S
C1611 C1610 1.363 . S
C1611 C1617 1.363 . S
C1612 C1613 1.363 . S
C1612 C1617 1.379 . S
C1612 N1619 1.356 . S
C1613 C1612 1.363 . S
C1613 C1616 1.363 . S
N1614 C1616 1.356 . S
N1614 H1626 0.984 . S
N1614 H1627 0.985 . S
N1615 C1617 1.356 . S
N1615 H1620 0.984 . S
N1615 H1621 0.985 . S
C1616 C1610 1.379 . S
C1616 C1613 1.363 . S
C1616 N1614 1.356 . S
C1617 C1611 1.363 . S
C1617 C1612 1.379 . S
C1617 N1615 1.356 . S
N1618 C1610 1.356 . S
N1618 H1624 0.984 . S
N1618 H1625 0.984 . S
N1619 C1612 1.356 . S
N1619 H1622 0.984 . S
N1619 H1623 0.985 . S
H1620 N1615 0.984 . S
H1621 N1615 0.985 . S
H1622 N1619 0.984 . S
H1623 N1619 0.985 . S
H1624 N1618 0.984 . S
H1625 N1618 0.984 . S
H1626 N1614 0.984 . S
H1627 N1614 0.985 . S
C1628 C1629 1.363 . S
C1628 C1634 1.379 . S
C1628 N1636 1.356 . S
C1629 C1628 1.363 . S
C1629 C1635 1.363 . S
C1630 C1631 1.363 . S
C1630 C1635 1.379 . S
C1630 N1637 1.356 . S
C1631 C1630 1.363 . S
C1631 C1634 1.363 . S
N1632 C1634 1.356 . S
N1632 H1644 0.984 . S
N1632 H1645 0.985 . S
N1633 C1635 1.356 . S
N1633 H1638 0.984 . S
N1633 H1639 0.985 . S
C1634 C1628 1.379 . S
C1634 C1631 1.363 . S
C1634 N1632 1.356 . S
C1635 C1629 1.363 . S
C1635 C1630 1.379 . S
C1635 N1633 1.356 . S
N1636 C1628 1.356 . S
N1636 H1642 0.984 . S
N1636 H1643 0.984 . S
N1637 C1630 1.356 . S
N1637 H1640 0.984 . S
N1637 H1641 0.985 . S
H1638 N1633 0.984 . S
H1639 N1633 0.985 . S
H1640 N1637 0.984 . S
H1641 N1637 0.985 . S
H1642 N1636 0.984 . S
H1643 N1636 0.984 . S
H1644 N1632 0.984 . S
H1645 N1632 0.985 . S
C1646 C1647 1.363 . S
C1646 C1652 1.379 . S
C1646 N1654 1.356 . S
C1647 C1646 1.363 . S
C1647 C1653 1.363 . S
C1648 C1649 1.363 . S
C1648 C1653 1.379 . S
C1648 N1655 1.356 . S
C1649 C1648 1.363 . S
C1649 C1652 1.363 . S
N1650 C1652 1.356 . S
N1650 H1662 0.984 . S
N1650 H1663 0.985 . S
N1651 C1653 1.356 . S
N1651 H1656 0.984 . S
N1651 H1657 0.985 . S
C1652 C1646 1.379 . S
C1652 C1649 1.363 . S
C1652 N1650 1.356 . S
C1653 C1647 1.363 . S
C1653 C1648 1.379 . S
C1653 N1651 1.356 . S
N1654 C1646 1.356 . S
N1654 H1660 0.984 . S
N1654 H1661 0.984 . S
N1655 C1648 1.356 . S
N1655 H1658 0.984 . S
N1655 H1659 0.985 . S
H1656 N1651 0.984 . S
H1657 N1651 0.985 . S
H1658 N1655 0.984 . S
H1659 N1655 0.985 . S
H1660 N1654 0.984 . S
H1661 N1654 0.984 . S
H1662 N1650 0.984 . S
H1663 N1650 0.985 . S
C1664 C1665 1.363 . S
C1664 C1670 1.379 . S
C1664 N1672 1.356 . S
C1665 C1664 1.363 . S
C1665 C1671 1.363 . S
C1666 C1667 1.363 . S
C1666 C1671 1.379 . S
C1666 N1673 1.356 . S
C1667 C1666 1.363 . S
C1667 C1670 1.363 . S
N1668 C1670 1.356 . S
N1668 H1680 0.984 . S
N1668 H1681 0.985 . S
N1669 C1671 1.356 . S
N1669 H1674 0.984 . S
N1669 H1675 0.985 . S
C1670 C1664 1.379 . S
C1670 C1667 1.363 . S
C1670 N1668 1.356 . S
C1671 C1665 1.363 . S
C1671 C1666 1.379 . S
C1671 N1669 1.356 . S
N1672 C1664 1.356 . S
N1672 H1678 0.984 . S
N1672 H1679 0.984 . S
N1673 C1666 1.356 . S
N1673 H1676 0.984 . S
N1673 H1677 0.985 . S
H1674 N1669 0.984 . S
H1675 N1669 0.985 . S
H1676 N1673 0.984 . S
H1677 N1673 0.985 . S
H1678 N1672 0.984 . S
H1679 N1672 0.984 . S
H1680 N1668 0.984 . S
H1681 N1668 0.985 . S
C1682 C1683 1.363 . S
C1682 C1688 1.379 . S
C1682 N1690 1.356 . S
C1683 C1682 1.363 . S
C1683 C1689 1.363 . S
C1684 C1685 1.363 . S
C1684 C1689 1.379 . S
C1684 N1691 1.356 . S
C1685 C1684 1.363 . S
C1685 C1688 1.363 . S
N1686 C1688 1.356 . S
N1686 H1698 0.984 . S
N1686 H1699 0.985 . S
N1687 C1689 1.356 . S
N1687 H1692 0.984 . S
N1687 H1693 0.985 . S
C1688 C1682 1.379 . S
C1688 C1685 1.363 . S
C1688 N1686 1.356 . S
C1689 C1683 1.363 . S
C1689 C1684 1.379 . S
C1689 N1687 1.356 . S
N1690 C1682 1.356 . S
N1690 H1696 0.984 . S
N1690 H1697 0.984 . S
N1691 C1684 1.356 . S
N1691 H1694 0.984 . S
N1691 H1695 0.985 . S
H1692 N1687 0.984 . S
H1693 N1687 0.985 . S
H1694 N1691 0.984 . S
H1695 N1691 0.985 . S
H1696 N1690 0.984 . S
H1697 N1690 0.984 . S
H1698 N1686 0.984 . S
H1699 N1686 0.985 . S
C1700 C1701 1.363 . S
C1700 C1706 1.379 . S
C1700 N1708 1.356 . S
C1701 C1700 1.363 . S
C1701 C1707 1.363 . S
C1702 C1703 1.363 . S
C1702 C1707 1.379 . S
C1702 N1709 1.356 . S
C1703 C1702 1.363 . S
C1703 C1706 1.363 . S
N1704 C1706 1.356 . S
N1704 H1716 0.984 . S
N1704 H1717 0.985 . S
N1705 C1707 1.356 . S
N1705 H1710 0.984 . S
N1705 H1711 0.985 . S
C1706 C1700 1.379 . S
C1706 C1703 1.363 . S
C1706 N1704 1.356 . S
C1707 C1701 1.363 . S
C1707 C1702 1.379 . S
C1707 N1705 1.356 . S
N1708 C1700 1.356 . S
N1708 H1714 0.984 . S
N1708 H1715 0.984 . S
N1709 C1702 1.356 . S
N1709 H1712 0.984 . S
N1709 H1713 0.985 . S
H1710 N1705 0.984 . S
H1711 N1705 0.985 . S
H1712 N1709 0.984 . S
H1713 N1709 0.985 . S
H1714 N1708 0.984 . S
H1715 N1708 0.984 . S
H1716 N1704 0.984 . S
H1717 N1704 0.985 . S
C1718 C1719 1.363 . S
C1718 C1724 1.379 . S
C1718 N1726 1.356 . S
C1719 C1718 1.363 . S
C1719 C1725 1.363 . S
C1720 C1721 1.363 . S
C1720 C1725 1.379 . S
C1720 N1727 1.356 . S
C1721 C1720 1.363 . S
C1721 C1724 1.363 . S
N1722 C1724 1.356 . S
N1722 H1734 0.984 . S
N1722 H1735 0.985 . S
N1723 C1725 1.356 . S
N1723 H1728 0.984 . S
N1723 H1729 0.985 . S
C1724 C1718 1.379 . S
C1724 C1721 1.363 . S
C1724 N1722 1.356 . S
C1725 C1719 1.363 . S
C1725 C1720 1.379 . S
C1725 N1723 1.356 . S
N1726 C1718 1.356 . S
N1726 H1732 0.984 . S
N1726 H1733 0.984 . S
N1727 C1720 1.356 . S
N1727 H1730 0.984 . S
N1727 H1731 0.985 . S
H1728 N1723 0.984 . S
H1729 N1723 0.985 . S
H1730 N1727 0.984 . S
H1731 N1727 0.985 . S
H1732 N1726 0.984 . S
H1733 N1726 0.984 . S
H1734 N1722 0.984 . S
H1735 N1722 0.985 . S
C1736 C1737 1.363 . S
C1736 C1742 1.379 . S
C1736 N1744 1.356 . S
C1737 C1736 1.363 . S
C1737 C1743 1.363 . S
C1738 C1739 1.363 . S
C1738 C1743 1.379 . S
C1738 N1745 1.356 . S
C1739 C1738 1.363 . S
C1739 C1742 1.363 . S
N1740 C1742 1.356 . S
N1740 H1752 0.984 . S
N1740 H1753 0.985 . S
N1741 C1743 1.356 . S
N1741 H1746 0.984 . S
N1741 H1747 0.985 . S
C1742 C1736 1.379 . S
C1742 C1739 1.363 . S
C1742 N1740 1.356 . S
C1743 C1737 1.363 . S
C1743 C1738 1.379 . S
C1743 N1741 1.356 . S
N1744 C1736 1.356 . S
N1744 H1750 0.984 . S
N1744 H1751 0.984 . S
N1745 C1738 1.356 . S
N1745 H1748 0.984 . S
N1745 H1749 0.985 . S
H1746 N1741 0.984 . S
H1747 N1741 0.985 . S
H1748 N1745 0.984 . S
H1749 N1745 0.985 . S
H1750 N1744 0.984 . S
H1751 N1744 0.984 . S
H1752 N1740 0.984 . S
H1753 N1740 0.985 . S
C1754 C1755 1.363 . S
C1754 C1760 1.379 . S
C1754 N1762 1.356 . S
C1755 C1754 1.363 . S
C1755 C1761 1.363 . S
C1756 C1757 1.363 . S
C1756 C1761 1.379 . S
C1756 N1763 1.356 . S
C1757 C1756 1.363 . S
C1757 C1760 1.363 . S
N1758 C1760 1.356 . S
N1758 H1770 0.984 . S
N1758 H1771 0.985 . S
N1759 C1761 1.356 . S
N1759 H1764 0.984 . S
N1759 H1765 0.985 . S
C1760 C1754 1.379 . S
C1760 C1757 1.363 . S
C1760 N1758 1.356 . S
C1761 C1755 1.363 . S
C1761 C1756 1.379 . S
C1761 N1759 1.356 . S
N1762 C1754 1.356 . S
N1762 H1768 0.984 . S
N1762 H1769 0.984 . S
N1763 C1756 1.356 . S
N1763 H1766 0.984 . S
N1763 H1767 0.985 . S
H1764 N1759 0.984 . S
H1765 N1759 0.985 . S
H1766 N1763 0.984 . S
H1767 N1763 0.985 . S
H1768 N1762 0.984 . S
H1769 N1762 0.984 . S
H1770 N1758 0.984 . S
H1771 N1758 0.985 . S
C1772 C1773 1.363 . S
C1772 C1778 1.379 . S
C1772 N1780 1.356 . S
C1773 C1772 1.363 . S
C1773 C1779 1.363 . S
C1774 C1775 1.363 . S
C1774 C1779 1.379 . S
C1774 N1781 1.356 . S
C1775 C1774 1.363 . S
C1775 C1778 1.363 . S
N1776 C1778 1.356 . S
N1776 H1788 0.984 . S
N1776 H1789 0.985 . S
N1777 C1779 1.356 . S
N1777 H1782 0.984 . S
N1777 H1783 0.985 . S
C1778 C1772 1.379 . S
C1778 C1775 1.363 . S
C1778 N1776 1.356 . S
C1779 C1773 1.363 . S
C1779 C1774 1.379 . S
C1779 N1777 1.356 . S
N1780 C1772 1.356 . S
N1780 H1786 0.984 . S
N1780 H1787 0.984 . S
N1781 C1774 1.356 . S
N1781 H1784 0.984 . S
N1781 H1785 0.985 . S
H1782 N1777 0.984 . S
H1783 N1777 0.985 . S
H1784 N1781 0.984 . S
H1785 N1781 0.985 . S
H1786 N1780 0.984 . S
H1787 N1780 0.984 . S
H1788 N1776 0.984 . S
H1789 N1776 0.985 . S
C1790 C1791 1.363 . S
C1790 C1796 1.379 . S
C1790 N1798 1.356 . S
C1791 C1790 1.363 . S
C1791 C1797 1.363 . S
C1792 C1793 1.363 . S
C1792 C1797 1.379 . S
C1792 N1799 1.356 . S
C1793 C1792 1.363 . S
C1793 C1796 1.363 . S
N1794 C1796 1.356 . S
N1794 H1806 0.984 . S
N1794 H1807 0.985 . S
N1795 C1797 1.356 . S
N1795 H1800 0.984 . S
N1795 H1801 0.985 . S
C1796 C1790 1.379 . S
C1796 C1793 1.363 . S
C1796 N1794 1.356 . S
C1797 C1791 1.363 . S
C1797 C1792 1.379 . S
C1797 N1795 1.356 . S
N1798 C1790 1.356 . S
N1798 H1804 0.984 . S
N1798 H1805 0.984 . S
N1799 C1792 1.356 . S
N1799 H1802 0.984 . S
N1799 H1803 0.985 . S
H1800 N1795 0.984 . S
H1801 N1795 0.985 . S
H1802 N1799 0.984 . S
H1803 N1799 0.985 . S
H1804 N1798 0.984 . S
H1805 N1798 0.984 . S
H1806 N1794 0.984 . S
H1807 N1794 0.985 . S
C1808 C1809 1.363 . S
C1808 C1814 1.379 . S
C1808 N1816 1.356 . S
C1809 C1808 1.363 . S
C1809 C1815 1.363 . S
C1810 C1811 1.363 . S
C1810 C1815 1.379 . S
C1810 N1817 1.356 . S
C1811 C1810 1.363 . S
C1811 C1814 1.363 . S
N1812 C1814 1.356 . S
N1812 H1824 0.984 . S
N1812 H1825 0.985 . S
N1813 C1815 1.356 . S
N1813 H1818 0.984 . S
N1813 H1819 0.985 . S
C1814 C1808 1.379 . S
C1814 C1811 1.363 . S
C1814 N1812 1.356 . S
C1815 C1809 1.363 . S
C1815 C1810 1.379 . S
C1815 N1813 1.356 . S
N1816 C1808 1.356 . S
N1816 H1822 0.984 . S
N1816 H1823 0.984 . S
N1817 C1810 1.356 . S
N1817 H1820 0.984 . S
N1817 H1821 0.985 . S
H1818 N1813 0.984 . S
H1819 N1813 0.985 . S
H1820 N1817 0.984 . S
H1821 N1817 0.985 . S
H1822 N1816 0.984 . S
H1823 N1816 0.984 . S
H1824 N1812 0.984 . S
H1825 N1812 0.985 . S
C1826 C1827 1.363 . S
C1826 C1832 1.379 . S
C1826 N1834 1.356 . S
C1827 C1826 1.363 . S
C1827 C1833 1.363 . S
C1828 C1829 1.363 . S
C1828 C1833 1.379 . S
C1828 N1835 1.356 . S
C1829 C1828 1.363 . S
C1829 C1832 1.363 . S
N1830 C1832 1.356 . S
N1830 H1842 0.984 . S
N1830 H1843 0.985 . S
N1831 C1833 1.356 . S
N1831 H1836 0.984 . S
N1831 H1837 0.985 . S
C1832 C1826 1.379 . S
C1832 C1829 1.363 . S
C1832 N1830 1.356 . S
C1833 C1827 1.363 . S
C1833 C1828 1.379 . S
C1833 N1831 1.356 . S
N1834 C1826 1.356 . S
N1834 H1840 0.984 . S
N1834 H1841 0.984 . S
N1835 C1828 1.356 . S
N1835 H1838 0.984 . S
N1835 H1839 0.985 . S
H1836 N1831 0.984 . S
H1837 N1831 0.985 . S
H1838 N1835 0.984 . S
H1839 N1835 0.985 . S
H1840 N1834 0.984 . S
H1841 N1834 0.984 . S
H1842 N1830 0.984 . S
H1843 N1830 0.985 . S
C1844 C1845 1.363 . S
C1844 C1850 1.379 . S
C1844 N1852 1.356 . S
C1845 C1844 1.363 . S
C1845 C1851 1.363 . S
C1846 C1847 1.363 . S
C1846 C1851 1.379 . S
C1846 N1853 1.356 . S
C1847 C1846 1.363 . S
C1847 C1850 1.363 . S
N1848 C1850 1.356 . S
N1848 H1860 0.984 . S
N1848 H1861 0.985 . S
N1849 C1851 1.356 . S
N1849 H1854 0.984 . S
N1849 H1855 0.985 . S
C1850 C1844 1.379 . S
C1850 C1847 1.363 . S
C1850 N1848 1.356 . S
C1851 C1845 1.363 . S
C1851 C1846 1.379 . S
C1851 N1849 1.356 . S
N1852 C1844 1.356 . S
N1852 H1858 0.984 . S
N1852 H1859 0.984 . S
N1853 C1846 1.356 . S
N1853 H1856 0.984 . S
N1853 H1857 0.985 . S
H1854 N1849 0.984 . S
H1855 N1849 0.985 . S
H1856 N1853 0.984 . S
H1857 N1853 0.985 . S
H1858 N1852 0.984 . S
H1859 N1852 0.984 . S
H1860 N1848 0.984 . S
H1861 N1848 0.985 . S
C1862 C1863 1.363 . S
C1862 C1868 1.379 . S
C1862 N1870 1.356 . S
C1863 C1862 1.363 . S
C1863 C1869 1.363 . S
C1864 C1865 1.363 . S
C1864 C1869 1.379 . S
C1864 N1871 1.356 . S
C1865 C1864 1.363 . S
C1865 C1868 1.363 . S
N1866 C1868 1.356 . S
N1866 H1878 0.984 . S
N1866 H1879 0.985 . S
N1867 C1869 1.356 . S
N1867 H1872 0.984 . S
N1867 H1873 0.985 . S
C1868 C1862 1.379 . S
C1868 C1865 1.363 . S
C1868 N1866 1.356 . S
C1869 C1863 1.363 . S
C1869 C1864 1.379 . S
C1869 N1867 1.356 . S
N1870 C1862 1.356 . S
N1870 H1876 0.984 . S
N1870 H1877 0.984 . S
N1871 C1864 1.356 . S
N1871 H1874 0.984 . S
N1871 H1875 0.985 . S
H1872 N1867 0.984 . S
H1873 N1867 0.985 . S
H1874 N1871 0.984 . S
H1875 N1871 0.985 . S
H1876 N1870 0.984 . S
H1877 N1870 0.984 . S
H1878 N1866 0.984 . S
H1879 N1866 0.985 . S
C1880 C1881 1.363 . S
C1880 C1886 1.379 . S
C1880 N1888 1.356 . S
C1881 C1880 1.363 . S
C1881 C1887 1.363 . S
C1882 C1883 1.363 . S
C1882 C1887 1.379 . S
C1882 N1889 1.356 . S
C1883 C1882 1.363 . S
C1883 C1886 1.363 . S
N1884 C1886 1.356 . S
N1884 H1896 0.984 . S
N1884 H1897 0.985 . S
N1885 C1887 1.356 . S
N1885 H1890 0.984 . S
N1885 H1891 0.985 . S
C1886 C1880 1.379 . S
C1886 C1883 1.363 . S
C1886 N1884 1.356 . S
C1887 C1881 1.363 . S
C1887 C1882 1.379 . S
C1887 N1885 1.356 . S
N1888 C1880 1.356 . S
N1888 H1894 0.984 . S
N1888 H1895 0.984 . S
N1889 C1882 1.356 . S
N1889 H1892 0.984 . S
N1889 H1893 0.985 . S
H1890 N1885 0.984 . S
H1891 N1885 0.985 . S
H1892 N1889 0.984 . S
H1893 N1889 0.985 . S
H1894 N1888 0.984 . S
H1895 N1888 0.984 . S
H1896 N1884 0.984 . S
H1897 N1884 0.985 . S
C1898 C1899 1.363 . S
C1898 C1904 1.379 . S
C1898 N1906 1.356 . S
C1899 C1898 1.363 . S
C1899 C1905 1.363 . S
C1900 C1901 1.363 . S
C1900 C1905 1.379 . S
C1900 N1907 1.356 . S
C1901 C1900 1.363 . S
C1901 C1904 1.363 . S
N1902 C1904 1.356 . S
N1902 H1914 0.984 . S
N1902 H1915 0.985 . S
N1903 C1905 1.356 . S
N1903 H1908 0.984 . S
N1903 H1909 0.985 . S
C1904 C1898 1.379 . S
C1904 C1901 1.363 . S
C1904 N1902 1.356 . S
C1905 C1899 1.363 . S
C1905 C1900 1.379 . S
C1905 N1903 1.356 . S
N1906 C1898 1.356 . S
N1906 H1912 0.984 . S
N1906 H1913 0.984 . S
N1907 C1900 1.356 . S
N1907 H1910 0.984 . S
N1907 H1911 0.985 . S
H1908 N1903 0.984 . S
H1909 N1903 0.985 . S
H1910 N1907 0.984 . S
H1911 N1907 0.985 . S
H1912 N1906 0.984 . S
H1913 N1906 0.984 . S
H1914 N1902 0.984 . S
H1915 N1902 0.985 . S
C1916 C1917 1.363 . S
C1916 C1922 1.379 . S
C1916 N1924 1.356 . S
C1917 C1916 1.363 . S
C1917 C1923 1.363 . S
C1918 C1919 1.363 . S
C1918 C1923 1.379 . S
C1918 N1925 1.356 . S
C1919 C1918 1.363 . S
C1919 C1922 1.363 . S
N1920 C1922 1.356 . S
N1920 H1932 0.984 . S
N1920 H1933 0.985 . S
N1921 C1923 1.356 . S
N1921 H1926 0.984 . S
N1921 H1927 0.985 . S
C1922 C1916 1.379 . S
C1922 C1919 1.363 . S
C1922 N1920 1.356 . S
C1923 C1917 1.363 . S
C1923 C1918 1.379 . S
C1923 N1921 1.356 . S
N1924 C1916 1.356 . S
N1924 H1930 0.984 . S
N1924 H1931 0.984 . S
N1925 C1918 1.356 . S
N1925 H1928 0.984 . S
N1925 H1929 0.985 . S
H1926 N1921 0.984 . S
H1927 N1921 0.985 . S
H1928 N1925 0.984 . S
H1929 N1925 0.985 . S
H1930 N1924 0.984 . S
H1931 N1924 0.984 . S
H1932 N1920 0.984 . S
H1933 N1920 0.985 . S
C1934 C1935 1.363 . S
C1934 C1940 1.379 . S
C1934 N1942 1.356 . S
C1935 C1934 1.363 . S
C1935 C1941 1.363 . S
C1936 C1937 1.363 . S
C1936 C1941 1.379 . S
C1936 N1943 1.356 . S
C1937 C1936 1.363 . S
C1937 C1940 1.363 . S
N1938 C1940 1.356 . S
N1938 H1950 0.984 . S
N1938 H1951 0.985 . S
N1939 C1941 1.356 . S
N1939 H1944 0.984 . S
N1939 H1945 0.985 . S
C1940 C1934 1.379 . S
C1940 C1937 1.363 . S
C1940 N1938 1.356 . S
C1941 C1935 1.363 . S
C1941 C1936 1.379 . S
C1941 N1939 1.356 . S
N1942 C1934 1.356 . S
N1942 H1948 0.984 . S
N1942 H1949 0.984 . S
N1943 C1936 1.356 . S
N1943 H1946 0.984 . S
N1943 H1947 0.985 . S
H1944 N1939 0.984 . S
H1945 N1939 0.985 . S
H1946 N1943 0.984 . S
H1947 N1943 0.985 . S
H1948 N1942 0.984 . S
H1949 N1942 0.984 . S
H1950 N1938 0.984 . S
H1951 N1938 0.985 . S
C1952 C1953 1.363 . S
C1952 C1958 1.379 . S
C1952 N1960 1.356 . S
C1953 C1952 1.363 . S
C1953 C1959 1.363 . S
C1954 C1955 1.363 . S
C1954 C1959 1.379 . S
C1954 N1961 1.356 . S
C1955 C1954 1.363 . S
C1955 C1958 1.363 . S
N1956 C1958 1.356 . S
N1956 H1968 0.984 . S
N1956 H1969 0.985 . S
N1957 C1959 1.356 . S
N1957 H1962 0.984 . S
N1957 H1963 0.985 . S
C1958 C1952 1.379 . S
C1958 C1955 1.363 . S
C1958 N1956 1.356 . S
C1959 C1953 1.363 . S
C1959 C1954 1.379 . S
C1959 N1957 1.356 . S
N1960 C1952 1.356 . S
N1960 H1966 0.984 . S
N1960 H1967 0.984 . S
N1961 C1954 1.356 . S
N1961 H1964 0.984 . S
N1961 H1965 0.985 . S
H1962 N1957 0.984 . S
H1963 N1957 0.985 . S
H1964 N1961 0.984 . S
H1965 N1961 0.985 . S
H1966 N1960 0.984 . S
H1967 N1960 0.984 . S
H1968 N1956 0.984 . S
H1969 N1956 0.985 . S
C1970 C1971 1.363 1_655 S
C1970 C1976 1.379 . S
C1970 N1978 1.356 . S
C1971 C1970 1.363 1_455 S
C1971 C1977 1.363 . S
C1972 C1973 1.363 1_455 S
C1972 C1977 1.379 . S
C1972 N1979 1.356 . S
C1973 C1972 1.363 1_655 S
C1973 C1976 1.363 . S
N1974 C1976 1.356 . S
N1974 H1986 0.984 . S
N1974 H1987 0.985 . S
N1975 C1977 1.356 . S
N1975 H1980 0.984 . S
N1975 H1981 0.985 . S
C1976 C1970 1.379 . S
C1976 C1973 1.363 . S
C1976 N1974 1.356 . S
C1977 C1971 1.363 . S
C1977 C1972 1.379 . S
C1977 N1975 1.356 . S
N1978 C1970 1.356 . S
N1978 H1984 0.984 . S
N1978 H1985 0.984 . S
N1979 C1972 1.356 . S
N1979 H1982 0.984 . S
N1979 H1983 0.985 . S
H1980 N1975 0.984 . S
H1981 N1975 0.985 . S
H1982 N1979 0.984 . S
H1983 N1979 0.985 . S
H1984 N1978 0.984 . S
H1985 N1978 0.984 . S
H1986 N1974 0.984 . S
H1987 N1974 0.985 . S
C1988 C1989 1.363 . S
C1988 C1994 1.379 . S
C1988 N1996 1.356 . S
C1989 C1988 1.363 . S
C1989 C1995 1.363 . S
C1990 C1991 1.363 . S
C1990 C1995 1.379 . S
C1990 N1997 1.356 . S
C1991 C1990 1.363 . S
C1991 C1994 1.363 . S
N1992 C1994 1.356 . S
N1992 H2004 0.984 . S
N1992 H2005 0.985 . S
N1993 C1995 1.356 . S
N1993 H1998 0.984 . S
N1993 H1999 0.985 . S
C1994 C1988 1.379 . S
C1994 C1991 1.363 . S
C1994 N1992 1.356 . S
C1995 C1989 1.363 . S
C1995 C1990 1.379 . S
C1995 N1993 1.356 . S
N1996 C1988 1.356 . S
N1996 H2002 0.984 . S
N1996 H2003 0.984 . S
N1997 C1990 1.356 . S
N1997 H2000 0.984 . S
N1997 H2001 0.985 . S
H1998 N1993 0.984 . S
H1999 N1993 0.985 . S
H2000 N1997 0.984 . S
H2001 N1997 0.985 . S
H2002 N1996 0.984 . S
H2003 N1996 0.984 . S
H2004 N1992 0.984 . S
H2005 N1992 0.985 . S
C2006 C2007 1.363 1_655 S
C2006 C2012 1.379 . S
C2006 N2014 1.356 . S
C2007 C2006 1.363 1_455 S
C2007 C2013 1.363 . S
C2008 C2009 1.363 1_455 S
C2008 C2013 1.379 . S
C2008 N2015 1.356 . S
C2009 C2008 1.363 1_655 S
C2009 C2012 1.363 . S
N2010 C2012 1.356 . S
N2010 H2022 0.984 . S
N2010 H2023 0.985 . S
N2011 C2013 1.356 . S
N2011 H2016 0.984 . S
N2011 H2017 0.985 . S
C2012 C2006 1.379 . S
C2012 C2009 1.363 . S
C2012 N2010 1.356 . S
C2013 C2007 1.363 . S
C2013 C2008 1.379 . S
C2013 N2011 1.356 . S
N2014 C2006 1.356 . S
N2014 H2020 0.984 . S
N2014 H2021 0.984 . S
N2015 C2008 1.356 . S
N2015 H2018 0.984 . S
N2015 H2019 0.985 . S
H2016 N2011 0.984 . S
H2017 N2011 0.985 . S
H2018 N2015 0.984 . S
H2019 N2015 0.985 . S
H2020 N2014 0.984 . S
H2021 N2014 0.984 . S
H2022 N2010 0.984 . S
H2023 N2010 0.985 . S
C2024 C2025 1.363 . S
C2024 C2030 1.379 . S
C2024 N2032 1.356 . S
C2025 C2024 1.363 . S
C2025 C2031 1.363 . S
C2026 C2027 1.363 . S
C2026 C2031 1.379 . S
C2026 N2033 1.356 . S
C2027 C2026 1.363 . S
C2027 C2030 1.363 . S
N2028 C2030 1.356 . S
N2028 H2040 0.984 . S
N2028 H2041 0.985 . S
N2029 C2031 1.356 . S
N2029 H2034 0.984 . S
N2029 H2035 0.985 . S
C2030 C2024 1.379 . S
C2030 C2027 1.363 . S
C2030 N2028 1.356 . S
C2031 C2025 1.363 . S
C2031 C2026 1.379 . S
C2031 N2029 1.356 . S
N2032 C2024 1.356 . S
N2032 H2038 0.984 . S
N2032 H2039 0.984 . S
N2033 C2026 1.356 . S
N2033 H2036 0.984 . S
N2033 H2037 0.985 . S
H2034 N2029 0.984 . S
H2035 N2029 0.985 . S
H2036 N2033 0.984 . S
H2037 N2033 0.985 . S
H2038 N2032 0.984 . S
H2039 N2032 0.984 . S
H2040 N2028 0.984 . S
H2041 N2028 0.985 . S
C2042 C2043 1.363 . S
C2042 C2048 1.379 . S
C2042 N2050 1.356 . S
C2043 C2042 1.363 . S
C2043 C2049 1.363 1_455 S
C2044 C2045 1.363 . S
C2044 C2049 1.379 . S
C2044 N2051 1.356 . S
C2045 C2044 1.363 . S
C2045 C2048 1.363 1_655 S
N2046 C2048 1.356 . S
N2046 H2058 0.984 . S
N2046 H2059 0.977 1_455 S
N2047 C2049 1.356 . S
N2047 H2052 0.984 . S
N2047 H2053 0.985 . S
C2048 C2042 1.379 . S
C2048 C2045 1.363 1_455 S
C2048 N2046 1.356 . S
C2049 C2043 1.363 1_655 S
C2049 C2044 1.379 . S
C2049 N2047 1.356 . S
N2050 C2042 1.356 . S
N2050 H2056 0.984 . S
N2050 H2057 0.984 . S
N2051 C2044 1.356 . S
N2051 H2054 0.984 . S
N2051 H2055 0.985 . S
H2052 N2047 0.984 . S
H2053 N2047 0.985 . S
H2054 N2051 0.984 . S
H2055 N2051 0.985 . S
H2056 N2050 0.984 . S
H2057 N2050 0.984 . S
H2058 N2046 0.984 . S
H2059 N2046 0.977 1_655 S
C2060 C2061 1.363 . S
C2060 C2066 1.379 . S
C2060 N2068 1.356 . S
C2061 C2060 1.363 . S
C2061 C2067 1.363 . S
C2062 C2063 1.363 . S
C2062 C2067 1.379 . S
C2062 N2069 1.356 . S
C2063 C2062 1.363 . S
C2063 C2066 1.363 . S
N2064 C2066 1.356 . S
N2064 H2076 0.984 . S
N2064 H2077 0.985 . S
N2065 C2067 1.356 . S
N2065 H2070 0.984 . S
N2065 H2071 0.985 . S
C2066 C2060 1.379 . S
C2066 C2063 1.363 . S
C2066 N2064 1.356 . S
C2067 C2061 1.363 . S
C2067 C2062 1.379 . S
C2067 N2065 1.356 . S
N2068 C2060 1.356 . S
N2068 H2074 0.984 . S
N2068 H2075 0.984 . S
N2069 C2062 1.356 . S
N2069 H2072 0.984 . S
N2069 H2073 0.985 . S
H2070 N2065 0.984 . S
H2071 N2065 0.985 . S
H2072 N2069 0.984 . S
H2073 N2069 0.985 . S
H2074 N2068 0.984 . S
H2075 N2068 0.984 . S
H2076 N2064 0.984 . S
H2077 N2064 0.985 . S
C2078 C2079 1.363 . S
C2078 C2084 1.379 . S
C2078 N2086 1.356 . S
C2079 C2078 1.363 . S
C2079 C2085 1.363 1_455 S
C2080 C2081 1.363 . S
C2080 C2085 1.379 . S
C2080 N2087 1.356 . S
C2081 C2080 1.363 . S
C2081 C2084 1.363 1_655 S
N2082 C2084 1.356 . S
N2082 H2094 0.984 . S
N2082 H2095 0.985 . S
N2083 C2085 1.356 . S
N2083 H2088 0.984 . S
N2083 H2089 0.985 . S
C2084 C2078 1.379 . S
C2084 C2081 1.363 1_455 S
C2084 N2082 1.356 . S
C2085 C2079 1.363 1_655 S
C2085 C2080 1.379 . S
C2085 N2083 1.356 . S
N2086 C2078 1.356 . S
N2086 H2092 0.984 . S
N2086 H2093 0.984 . S
N2087 C2080 1.356 . S
N2087 H2090 0.984 . S
N2087 H2091 0.985 . S
H2088 N2083 0.984 . S
H2089 N2083 0.985 . S
H2090 N2087 0.984 . S
H2091 N2087 0.985 . S
H2092 N2086 0.984 . S
H2093 N2086 0.984 . S
H2094 N2082 0.984 . S
H2095 N2082 0.985 . S
C2096 C2097 1.363 . S
C2096 C2102 1.379 . S
C2096 N2104 1.356 . S
C2097 C2096 1.363 . S
C2097 C2103 1.363 . S
C2098 C2099 1.363 . S
C2098 C2103 1.379 . S
C2098 N2105 1.356 . S
C2099 C2098 1.363 . S
C2099 C2102 1.363 . S
N2100 C2102 1.356 . S
N2100 H2112 0.984 . S
N2100 H2113 0.985 . S
N2101 C2103 1.356 . S
N2101 H2106 0.984 . S
N2101 H2107 0.985 . S
C2102 C2096 1.379 . S
C2102 C2099 1.363 . S
C2102 N2100 1.356 . S
C2103 C2097 1.363 . S
C2103 C2098 1.379 . S
C2103 N2101 1.356 . S
N2104 C2096 1.356 . S
N2104 H2110 0.984 . S
N2104 H2111 0.984 . S
N2105 C2098 1.356 . S
N2105 H2108 0.984 . S
N2105 H2109 0.985 . S
H2106 N2101 0.984 . S
H2107 N2101 0.985 . S
H2108 N2105 0.984 . S
H2109 N2105 0.985 . S
H2110 N2104 0.984 . S
H2111 N2104 0.984 . S
H2112 N2100 0.984 . S
H2113 N2100 0.985 . S
C2114 C2115 1.363 . S
C2114 C2120 1.379 . S
C2114 N2122 1.356 . S
C2115 C2114 1.363 . S
C2115 C2121 1.363 1_455 S
C2116 C2117 1.363 . S
C2116 C2121 1.379 . S
C2116 N2123 1.356 . S
C2117 C2116 1.363 . S
C2117 C2120 1.363 1_655 S
N2118 C2120 1.356 . S
N2118 H2130 0.984 . S
N2118 H2131 0.985 . S
N2119 C2121 1.356 . S
N2119 H2124 0.984 . S
N2119 H2125 0.985 . S
C2120 C2114 1.379 . S
C2120 C2117 1.363 1_455 S
C2120 N2118 1.356 . S
C2121 C2115 1.363 1_655 S
C2121 C2116 1.379 . S
C2121 N2119 1.356 . S
N2122 C2114 1.356 . S
N2122 H2128 0.984 . S
N2122 H2129 0.984 . S
N2123 C2116 1.356 . S
N2123 H2126 0.984 . S
N2123 H2127 0.985 . S
H2124 N2119 0.984 . S
H2125 N2119 0.985 . S
H2126 N2123 0.984 . S
H2127 N2123 0.985 . S
H2128 N2122 0.984 . S
H2129 N2122 0.984 . S
H2130 N2118 0.984 . S
H2131 N2118 0.985 . S
C2132 C2133 1.363 . S
C2132 C2138 1.379 . S
C2132 N2140 1.356 . S
C2133 C2132 1.363 . S
C2133 C2139 1.363 . S
C2134 C2135 1.363 . S
C2134 C2139 1.379 . S
C2134 N2141 1.356 . S
C2135 C2134 1.363 . S
C2135 C2138 1.363 . S
N2136 C2138 1.356 . S
N2136 H2148 0.984 . S
N2136 H2149 0.985 . S
N2137 C2139 1.356 . S
N2137 H2142 0.984 . S
N2137 H2143 0.985 . S
C2138 C2132 1.379 . S
C2138 C2135 1.363 . S
C2138 N2136 1.356 . S
C2139 C2133 1.363 . S
C2139 C2134 1.379 . S
C2139 N2137 1.356 . S
N2140 C2132 1.356 . S
N2140 H2146 0.984 . S
N2140 H2147 0.984 . S
N2141 C2134 1.356 . S
N2141 H2144 0.984 . S
N2141 H2145 0.985 . S
H2142 N2137 0.984 . S
H2143 N2137 0.985 . S
H2144 N2141 0.984 . S
H2145 N2141 0.985 . S
H2146 N2140 0.984 . S
H2147 N2140 0.984 . S
H2148 N2136 0.984 . S
H2149 N2136 0.985 . S
C2150 C2151 1.363 1_455 S
C2150 C2156 1.379 . S
C2150 N2158 1.356 1_455 S
C2151 C2150 1.363 1_655 S
C2151 C2157 1.361 1_655 S
C2152 C2153 1.363 . S
C2152 C2157 1.385 . S
C2152 N2159 1.356 . S
C2153 C2152 1.363 . S
C2153 C2156 1.363 . S
N2154 C2156 1.356 . S
N2154 H2166 0.984 . S
N2154 H2167 0.985 . S
N2155 C2157 1.352 1_655 S
N2155 H2160 0.984 . S
N2155 H2161 0.985 . S
C2156 C2150 1.379 . S
C2156 C2153 1.363 . S
C2156 N2154 1.356 . S
C2157 C2151 1.361 1_455 S
C2157 C2152 1.385 . S
C2157 N2155 1.352 1_455 S
N2158 C2150 1.356 1_655 S
N2158 H2164 0.984 . S
N2158 H2165 0.984 . S
N2159 C2152 1.356 . S
N2159 H2162 0.984 . S
N2159 H2163 0.985 . S
H2160 N2155 0.984 . S
H2161 N2155 0.985 . S
H2162 N2159 0.984 . S
H2163 N2159 0.985 . S
H2164 N2158 0.984 . S
H2165 N2158 0.984 . S
H2166 N2154 0.984 . S
H2167 N2154 0.985 . S
C2168 C2169 1.363 . S
C2168 C2174 1.379 . S
C2168 N2176 1.356 . S
C2169 C2168 1.363 . S
C2169 C2175 1.363 . S
C2170 C2171 1.363 . S
C2170 C2175 1.379 . S
C2170 N2177 1.356 . S
C2171 C2170 1.363 . S
C2171 C2174 1.363 . S
N2172 C2174 1.356 . S
N2172 H2184 0.984 . S
N2172 H2185 0.985 . S
N2173 C2175 1.356 . S
N2173 H2178 0.984 . S
N2173 H2179 0.985 . S
C2174 C2168 1.379 . S
C2174 C2171 1.363 . S
C2174 N2172 1.356 . S
C2175 C2169 1.363 . S
C2175 C2170 1.379 . S
C2175 N2173 1.356 . S
N2176 C2168 1.356 . S
N2176 H2182 0.984 . S
N2176 H2183 0.984 . S
N2177 C2170 1.356 . S
N2177 H2180 0.984 . S
N2177 H2181 0.985 . S
H2178 N2173 0.984 . S
H2179 N2173 0.985 . S
H2180 N2177 0.984 . S
H2181 N2177 0.985 . S
H2182 N2176 0.984 . S
H2183 N2176 0.984 . S
H2184 N2172 0.984 . S
H2185 N2172 0.985 . S
C2186 C2187 1.363 1_655 S
C2186 C2192 1.379 . S
C2186 N2194 1.356 . S
C2187 C2186 1.363 1_455 S
C2187 C2193 1.363 . S
C2188 C2189 1.363 . S
C2188 C2193 1.379 1_655 S
C2188 N2195 1.356 . S
C2189 C2188 1.363 . S
C2189 C2192 1.363 . S
N2190 C2192 1.356 . S
N2190 H2202 0.984 . S
N2190 H2203 0.985 . S
N2191 C2193 1.356 . S
N2191 H2196 0.984 . S
N2191 H2197 0.985 . S
C2192 C2186 1.379 . S
C2192 C2189 1.363 . S
C2192 N2190 1.356 . S
C2193 C2187 1.363 . S
C2193 C2188 1.379 1_455 S
C2193 N2191 1.356 . S
N2194 C2186 1.356 . S
N2194 H2200 0.984 . S
N2194 H2201 0.980 1_655 S
N2195 C2188 1.356 . S
N2195 H2198 0.984 . S
N2195 H2199 0.985 1_655 S
H2196 N2191 0.984 . S
H2197 N2191 0.985 . S
H2198 N2195 0.984 . S
H2199 N2195 0.985 1_455 S
H2200 N2194 0.984 . S
H2201 N2194 0.980 1_455 S
H2202 N2190 0.984 . S
H2203 N2190 0.985 . S
C2204 C2205 1.363 . S
C2204 C2210 1.379 . S
C2204 N2212 1.356 . S
C2205 C2204 1.363 . S
C2205 C2211 1.363 . S
C2206 C2207 1.363 . S
C2206 C2211 1.379 . S
C2206 N2213 1.356 . S
C2207 C2206 1.363 . S
C2207 C2210 1.363 . S
N2208 C2210 1.356 . S
N2208 H2220 0.984 . S
N2208 H2221 0.985 . S
N2209 C2211 1.356 . S
N2209 H2214 0.984 . S
N2209 H2215 0.985 . S
C2210 C2204 1.379 . S
C2210 C2207 1.363 . S
C2210 N2208 1.356 . S
C2211 C2205 1.363 . S
C2211 C2206 1.379 . S
C2211 N2209 1.356 . S
N2212 C2204 1.356 . S
N2212 H2218 0.984 . S
N2212 H2219 0.984 . S
N2213 C2206 1.356 . S
N2213 H2216 0.984 . S
N2213 H2217 0.985 . S
H2214 N2209 0.984 . S
H2215 N2209 0.985 . S
H2216 N2213 0.984 . S
H2217 N2213 0.985 . S
H2218 N2212 0.984 . S
H2219 N2212 0.984 . S
H2220 N2208 0.984 . S
H2221 N2208 0.985 . S
C2222 C2223 1.363 1_455 S
C2222 C2228 1.379 . S
C2222 N2230 1.356 . S
C2223 C2222 1.363 1_655 S
C2223 C2229 1.363 . S
C2224 C2225 1.363 1_655 S
C2224 C2229 1.379 . S
C2224 N2231 1.356 . S
C2225 C2224 1.363 1_455 S
C2225 C2228 1.363 . S
N2226 C2228 1.356 . S
N2226 H2238 0.984 . S
N2226 H2239 0.985 . S
N2227 C2229 1.356 . S
N2227 H2232 0.984 . S
N2227 H2233 0.985 . S
C2228 C2222 1.379 . S
C2228 C2225 1.363 . S
C2228 N2226 1.356 . S
C2229 C2223 1.363 . S
C2229 C2224 1.379 . S
C2229 N2227 1.356 . S
N2230 C2222 1.356 . S
N2230 H2236 0.984 . S
N2230 H2237 0.984 . S
N2231 C2224 1.356 . S
N2231 H2234 0.984 . S
N2231 H2235 0.985 . S
H2232 N2227 0.984 . S
H2233 N2227 0.985 . S
H2234 N2231 0.984 . S
H2235 N2231 0.985 . S
H2236 N2230 0.984 . S
H2237 N2230 0.984 . S
H2238 N2226 0.984 . S
H2239 N2226 0.985 . S
C2240 C2241 1.363 . S
C2240 C2246 1.379 . S
C2240 N2248 1.356 . S
C2241 C2240 1.363 . S
C2241 C2247 1.363 . S
C2242 C2243 1.363 . S
C2242 C2247 1.379 . S
C2242 N2249 1.356 . S
C2243 C2242 1.363 . S
C2243 C2246 1.363 . S
N2244 C2246 1.356 . S
N2244 H2256 0.984 . S
N2244 H2257 0.985 . S
N2245 C2247 1.356 . S
N2245 H2250 0.984 . S
N2245 H2251 0.985 . S
C2246 C2240 1.379 . S
C2246 C2243 1.363 . S
C2246 N2244 1.356 . S
C2247 C2241 1.363 . S
C2247 C2242 1.379 . S
C2247 N2245 1.356 . S
N2248 C2240 1.356 . S
N2248 H2254 0.984 . S
N2248 H2255 0.984 . S
N2249 C2242 1.356 . S
N2249 H2252 0.984 . S
N2249 H2253 0.985 . S
H2250 N2245 0.984 . S
H2251 N2245 0.985 . S
H2252 N2249 0.984 . S
H2253 N2249 0.985 . S
H2254 N2248 0.984 . S
H2255 N2248 0.984 . S
H2256 N2244 0.984 . S
H2257 N2244 0.985 . S
C2258 C2259 1.363 . S
C2258 C2264 1.379 . S
C2258 N2266 1.356 . S
C2259 C2258 1.363 . S
C2259 C2265 1.363 . S
C2260 C2261 1.363 . S
C2260 C2265 1.379 . S
C2260 N2267 1.356 . S
C2261 C2260 1.363 . S
C2261 C2264 1.363 . S
N2262 C2264 1.356 . S
N2262 H2274 0.984 . S
N2262 H2275 0.985 . S
N2263 C2265 1.356 . S
N2263 H2268 0.984 . S
N2263 H2269 0.985 . S
C2264 C2258 1.379 . S
C2264 C2261 1.363 . S
C2264 N2262 1.356 . S
C2265 C2259 1.363 . S
C2265 C2260 1.379 . S
C2265 N2263 1.356 . S
N2266 C2258 1.356 . S
N2266 H2272 0.984 . S
N2266 H2273 0.984 . S
N2267 C2260 1.356 . S
N2267 H2270 0.984 . S
N2267 H2271 0.985 . S
H2268 N2263 0.984 . S
H2269 N2263 0.985 . S
H2270 N2267 0.984 . S
H2271 N2267 0.985 . S
H2272 N2266 0.984 . S
H2273 N2266 0.984 . S
H2274 N2262 0.984 . S
H2275 N2262 0.985 . S
C2276 C2277 1.363 . S
C2276 C2282 1.379 . S
C2276 N2284 1.356 . S
C2277 C2276 1.363 . S
C2277 C2283 1.363 . S
C2278 C2279 1.363 . S
C2278 C2283 1.379 . S
C2278 N2285 1.356 . S
C2279 C2278 1.363 . S
C2279 C2282 1.363 . S
N2280 C2282 1.356 . S
N2280 H2292 0.984 . S
N2280 H2293 0.985 . S
N2281 C2283 1.356 . S
N2281 H2286 0.984 . S
N2281 H2287 0.985 . S
C2282 C2276 1.379 . S
C2282 C2279 1.363 . S
C2282 N2280 1.356 . S
C2283 C2277 1.363 . S
C2283 C2278 1.379 . S
C2283 N2281 1.356 . S
N2284 C2276 1.356 . S
N2284 H2290 0.984 . S
N2284 H2291 0.984 . S
N2285 C2278 1.356 . S
N2285 H2288 0.984 . S
N2285 H2289 0.985 . S
H2286 N2281 0.984 . S
H2287 N2281 0.985 . S
H2288 N2285 0.984 . S
H2289 N2285 0.985 . S
H2290 N2284 0.984 . S
H2291 N2284 0.984 . S
H2292 N2280 0.984 . S
H2293 N2280 0.985 . S
C2294 C2295 1.363 . S
C2294 C2300 1.379 . S
C2294 N2302 1.356 . S
C2295 C2294 1.363 . S
C2295 C2301 1.363 . S
C2296 C2297 1.363 . S
C2296 C2301 1.379 . S
C2296 N2303 1.356 . S
C2297 C2296 1.363 . S
C2297 C2300 1.363 . S
N2298 C2300 1.356 . S
N2298 H2310 0.984 . S
N2298 H2311 0.985 . S
N2299 C2301 1.356 . S
N2299 H2304 0.984 . S
N2299 H2305 0.985 . S
C2300 C2294 1.379 . S
C2300 C2297 1.363 . S
C2300 N2298 1.356 . S
C2301 C2295 1.363 . S
C2301 C2296 1.379 . S
C2301 N2299 1.356 . S
N2302 C2294 1.356 . S
N2302 H2308 0.984 . S
N2302 H2309 0.984 . S
N2303 C2296 1.356 . S
N2303 H2306 0.984 . S
N2303 H2307 0.985 . S
H2304 N2299 0.984 . S
H2305 N2299 0.985 . S
H2306 N2303 0.984 . S
H2307 N2303 0.985 . S
H2308 N2302 0.984 . S
H2309 N2302 0.984 . S
H2310 N2298 0.984 . S
H2311 N2298 0.985 . S
C2312 C2313 1.363 . S
C2312 C2318 1.379 . S
C2312 N2320 1.356 . S
C2313 C2312 1.363 . S
C2313 C2319 1.363 . S
C2314 C2315 1.363 . S
C2314 C2319 1.379 . S
C2314 N2321 1.356 . S
C2315 C2314 1.363 . S
C2315 C2318 1.363 . S
N2316 C2318 1.356 . S
N2316 H2328 0.984 . S
N2316 H2329 0.985 . S
N2317 C2319 1.356 . S
N2317 H2322 0.984 . S
N2317 H2323 0.985 . S
C2318 C2312 1.379 . S
C2318 C2315 1.363 . S
C2318 N2316 1.356 . S
C2319 C2313 1.363 . S
C2319 C2314 1.379 . S
C2319 N2317 1.356 . S
N2320 C2312 1.356 . S
N2320 H2326 0.984 . S
N2320 H2327 0.984 . S
N2321 C2314 1.356 . S
N2321 H2324 0.984 . S
N2321 H2325 0.985 . S
H2322 N2317 0.984 . S
H2323 N2317 0.985 . S
H2324 N2321 0.984 . S
H2325 N2321 0.985 . S
H2326 N2320 0.984 . S
H2327 N2320 0.984 . S
H2328 N2316 0.984 . S
H2329 N2316 0.985 . S
C2330 C2331 1.363 . S
C2330 C2336 1.379 . S
C2330 N2338 1.356 . S
C2331 C2330 1.363 . S
C2331 C2337 1.363 . S
C2332 C2333 1.363 . S
C2332 C2337 1.379 . S
C2332 N2339 1.356 . S
C2333 C2332 1.363 . S
C2333 C2336 1.363 . S
N2334 C2336 1.356 . S
N2334 H2346 0.984 . S
N2334 H2347 0.985 . S
N2335 C2337 1.356 . S
N2335 H2340 0.984 . S
N2335 H2341 0.985 . S
C2336 C2330 1.379 . S
C2336 C2333 1.363 . S
C2336 N2334 1.356 . S
C2337 C2331 1.363 . S
C2337 C2332 1.379 . S
C2337 N2335 1.356 . S
N2338 C2330 1.356 . S
N2338 H2344 0.984 . S
N2338 H2345 0.984 . S
N2339 C2332 1.356 . S
N2339 H2342 0.984 . S
N2339 H2343 0.985 . S
H2340 N2335 0.984 . S
H2341 N2335 0.985 . S
H2342 N2339 0.984 . S
H2343 N2339 0.985 . S
H2344 N2338 0.984 . S
H2345 N2338 0.984 . S
H2346 N2334 0.984 . S
H2347 N2334 0.985 . S
C2348 C2349 1.363 . S
C2348 C2354 1.379 . S
C2348 N2356 1.356 . S
C2349 C2348 1.363 . S
C2349 C2355 1.363 . S
C2350 C2351 1.363 . S
C2350 C2355 1.379 . S
C2350 N2357 1.356 . S
C2351 C2350 1.363 . S
C2351 C2354 1.363 . S
N2352 C2354 1.356 . S
N2352 H2364 0.984 . S
N2352 H2365 0.985 . S
N2353 C2355 1.356 . S
N2353 H2358 0.984 . S
N2353 H2359 0.985 . S
C2354 C2348 1.379 . S
C2354 C2351 1.363 . S
C2354 N2352 1.356 . S
C2355 C2349 1.363 . S
C2355 C2350 1.379 . S
C2355 N2353 1.356 . S
N2356 C2348 1.356 . S
N2356 H2362 0.984 . S
N2356 H2363 0.984 . S
N2357 C2350 1.356 . S
N2357 H2360 0.984 . S
N2357 H2361 0.985 . S
H2358 N2353 0.984 . S
H2359 N2353 0.985 . S
H2360 N2357 0.984 . S
H2361 N2357 0.985 . S
H2362 N2356 0.984 . S
H2363 N2356 0.984 . S
H2364 N2352 0.984 . S
H2365 N2352 0.985 . S
C2366 C2367 1.363 . S
C2366 C2372 1.379 . S
C2366 N2374 1.356 . S
C2367 C2366 1.363 . S
C2367 C2373 1.363 . S
C2368 C2369 1.363 . S
C2368 C2373 1.379 . S
C2368 N2375 1.356 . S
C2369 C2368 1.363 . S
C2369 C2372 1.363 . S
N2370 C2372 1.356 . S
N2370 H2382 0.984 . S
N2370 H2383 0.985 . S
N2371 C2373 1.356 . S
N2371 H2376 0.984 . S
N2371 H2377 0.985 . S
C2372 C2366 1.379 . S
C2372 C2369 1.363 . S
C2372 N2370 1.356 . S
C2373 C2367 1.363 . S
C2373 C2368 1.379 . S
C2373 N2371 1.356 . S
N2374 C2366 1.356 . S
N2374 H2380 0.984 . S
N2374 H2381 0.984 . S
N2375 C2368 1.356 . S
N2375 H2378 0.984 . S
N2375 H2379 0.985 . S
H2376 N2371 0.984 . S
H2377 N2371 0.985 . S
H2378 N2375 0.984 . S
H2379 N2375 0.985 . S
H2380 N2374 0.984 . S
H2381 N2374 0.984 . S
H2382 N2370 0.984 . S
H2383 N2370 0.985 . S
C2384 C2385 1.363 . S
C2384 C2390 1.379 . S
C2384 N2392 1.356 . S
C2385 C2384 1.363 . S
C2385 C2391 1.363 . S
C2386 C2387 1.363 . S
C2386 C2391 1.379 . S
C2386 N2393 1.356 . S
C2387 C2386 1.363 . S
C2387 C2390 1.363 . S
N2388 C2390 1.356 . S
N2388 H2400 0.984 . S
N2388 H2401 0.985 . S
N2389 C2391 1.356 . S
N2389 H2394 0.984 . S
N2389 H2395 0.985 . S
C2390 C2384 1.379 . S
C2390 C2387 1.363 . S
C2390 N2388 1.356 . S
C2391 C2385 1.363 . S
C2391 C2386 1.379 . S
C2391 N2389 1.356 . S
N2392 C2384 1.356 . S
N2392 H2398 0.984 . S
N2392 H2399 0.984 . S
N2393 C2386 1.356 . S
N2393 H2396 0.984 . S
N2393 H2397 0.985 . S
H2394 N2389 0.984 . S
H2395 N2389 0.985 . S
H2396 N2393 0.984 . S
H2397 N2393 0.985 . S
H2398 N2392 0.984 . S
H2399 N2392 0.984 . S
H2400 N2388 0.984 . S
H2401 N2388 0.985 . S
C2402 C2403 1.363 . S
C2402 C2408 1.379 . S
C2402 N2410 1.356 . S
C2403 C2402 1.363 . S
C2403 C2409 1.363 . S
C2404 C2405 1.363 . S
C2404 C2409 1.379 . S
C2404 N2411 1.356 . S
C2405 C2404 1.363 . S
C2405 C2408 1.363 . S
N2406 C2408 1.356 . S
N2406 H2418 0.984 . S
N2406 H2419 0.985 . S
N2407 C2409 1.356 . S
N2407 H2412 0.984 . S
N2407 H2413 0.985 . S
C2408 C2402 1.379 . S
C2408 C2405 1.363 . S
C2408 N2406 1.356 . S
C2409 C2403 1.363 . S
C2409 C2404 1.379 . S
C2409 N2407 1.356 . S
N2410 C2402 1.356 . S
N2410 H2416 0.984 . S
N2410 H2417 0.984 . S
N2411 C2404 1.356 . S
N2411 H2414 0.984 . S
N2411 H2415 0.985 . S
H2412 N2407 0.984 . S
H2413 N2407 0.985 . S
H2414 N2411 0.984 . S
H2415 N2411 0.985 . S
H2416 N2410 0.984 . S
H2417 N2410 0.984 . S
H2418 N2406 0.984 . S
H2419 N2406 0.985 . S
C2420 C2421 1.363 . S
C2420 C2426 1.379 . S
C2420 N2428 1.356 . S
C2421 C2420 1.363 . S
C2421 C2427 1.363 . S
C2422 C2423 1.363 . S
C2422 C2427 1.379 . S
C2422 N2429 1.356 . S
C2423 C2422 1.363 . S
C2423 C2426 1.363 . S
N2424 C2426 1.356 . S
N2424 H2436 0.984 . S
N2424 H2437 0.985 . S
N2425 C2427 1.356 . S
N2425 H2430 0.984 . S
N2425 H2431 0.985 . S
C2426 C2420 1.379 . S
C2426 C2423 1.363 . S
C2426 N2424 1.356 . S
C2427 C2421 1.363 . S
C2427 C2422 1.379 . S
C2427 N2425 1.356 . S
N2428 C2420 1.356 . S
N2428 H2434 0.984 . S
N2428 H2435 0.984 . S
N2429 C2422 1.356 . S
N2429 H2432 0.984 . S
N2429 H2433 0.985 . S
H2430 N2425 0.984 . S
H2431 N2425 0.985 . S
H2432 N2429 0.984 . S
H2433 N2429 0.985 . S
H2434 N2428 0.984 . S
H2435 N2428 0.984 . S
H2436 N2424 0.984 . S
H2437 N2424 0.985 . S
C2438 C2439 1.363 . S
C2438 C2444 1.379 . S
C2438 N2446 1.356 . S
C2439 C2438 1.363 . S
C2439 C2445 1.363 . S
C2440 C2441 1.363 . S
C2440 C2445 1.379 . S
C2440 N2447 1.356 . S
C2441 C2440 1.363 . S
C2441 C2444 1.363 . S
N2442 C2444 1.356 . S
N2442 H2454 0.984 . S
N2442 H2455 0.985 . S
N2443 C2445 1.356 . S
N2443 H2448 0.984 . S
N2443 H2449 0.985 . S
C2444 C2438 1.379 . S
C2444 C2441 1.363 . S
C2444 N2442 1.356 . S
C2445 C2439 1.363 . S
C2445 C2440 1.379 . S
C2445 N2443 1.356 . S
N2446 C2438 1.356 . S
N2446 H2452 0.984 . S
N2446 H2453 0.984 . S
N2447 C2440 1.356 . S
N2447 H2450 0.984 . S
N2447 H2451 0.985 . S
H2448 N2443 0.984 . S
H2449 N2443 0.985 . S
H2450 N2447 0.984 . S
H2451 N2447 0.985 . S
H2452 N2446 0.984 . S
H2453 N2446 0.984 . S
H2454 N2442 0.984 . S
H2455 N2442 0.985 . S
C2456 C2457 1.363 . S
C2456 C2462 1.379 . S
C2456 N2464 1.356 . S
C2457 C2456 1.363 . S
C2457 C2463 1.363 . S
C2458 C2459 1.363 . S
C2458 C2463 1.379 . S
C2458 N2465 1.356 . S
C2459 C2458 1.363 . S
C2459 C2462 1.363 . S
N2460 C2462 1.356 . S
N2460 H2472 0.984 . S
N2460 H2473 0.985 . S
N2461 C2463 1.356 . S
N2461 H2466 0.984 . S
N2461 H2467 0.985 . S
C2462 C2456 1.379 . S
C2462 C2459 1.363 . S
C2462 N2460 1.356 . S
C2463 C2457 1.363 . S
C2463 C2458 1.379 . S
C2463 N2461 1.356 . S
N2464 C2456 1.356 . S
N2464 H2470 0.984 . S
N2464 H2471 0.984 . S
N2465 C2458 1.356 . S
N2465 H2468 0.984 . S
N2465 H2469 0.985 . S
H2466 N2461 0.984 . S
H2467 N2461 0.985 . S
H2468 N2465 0.984 . S
H2469 N2465 0.985 . S
H2470 N2464 0.984 . S
H2471 N2464 0.984 . S
H2472 N2460 0.984 . S
H2473 N2460 0.985 . S
C2474 C2475 1.363 . S
C2474 C2480 1.379 . S
C2474 N2482 1.356 . S
C2475 C2474 1.363 . S
C2475 C2481 1.363 . S
C2476 C2477 1.363 . S
C2476 C2481 1.379 . S
C2476 N2483 1.356 . S
C2477 C2476 1.363 . S
C2477 C2480 1.363 . S
N2478 C2480 1.356 . S
N2478 H2490 0.984 . S
N2478 H2491 0.985 . S
N2479 C2481 1.356 . S
N2479 H2484 0.984 . S
N2479 H2485 0.985 . S
C2480 C2474 1.379 . S
C2480 C2477 1.363 . S
C2480 N2478 1.356 . S
C2481 C2475 1.363 . S
C2481 C2476 1.379 . S
C2481 N2479 1.356 . S
N2482 C2474 1.356 . S
N2482 H2488 0.984 . S
N2482 H2489 0.984 . S
N2483 C2476 1.356 . S
N2483 H2486 0.984 . S
N2483 H2487 0.985 . S
H2484 N2479 0.984 . S
H2485 N2479 0.985 . S
H2486 N2483 0.984 . S
H2487 N2483 0.985 . S
H2488 N2482 0.984 . S
H2489 N2482 0.984 . S
H2490 N2478 0.984 . S
H2491 N2478 0.985 . S
C2492 C2493 1.363 . S
C2492 C2498 1.379 . S
C2492 N2500 1.356 . S
C2493 C2492 1.363 . S
C2493 C2499 1.363 . S
C2494 C2495 1.363 . S
C2494 C2499 1.379 . S
C2494 N2501 1.356 . S
C2495 C2494 1.363 . S
C2495 C2498 1.363 . S
N2496 C2498 1.356 . S
N2496 H2508 0.984 . S
N2496 H2509 0.985 . S
N2497 C2499 1.356 . S
N2497 H2502 0.984 . S
N2497 H2503 0.985 . S
C2498 C2492 1.379 . S
C2498 C2495 1.363 . S
C2498 N2496 1.356 . S
C2499 C2493 1.363 . S
C2499 C2494 1.379 . S
C2499 N2497 1.356 . S
N2500 C2492 1.356 . S
N2500 H2506 0.984 . S
N2500 H2507 0.984 . S
N2501 C2494 1.356 . S
N2501 H2504 0.984 . S
N2501 H2505 0.985 . S
H2502 N2497 0.984 . S
H2503 N2497 0.985 . S
H2504 N2501 0.984 . S
H2505 N2501 0.985 . S
H2506 N2500 0.984 . S
H2507 N2500 0.984 . S
H2508 N2496 0.984 . S
H2509 N2496 0.985 . S
C2510 C2511 1.363 . S
C2510 C2516 1.379 . S
C2510 N2518 1.356 . S
C2511 C2510 1.363 . S
C2511 C2517 1.363 . S
C2512 C2513 1.363 . S
C2512 C2517 1.379 . S
C2512 N2519 1.356 . S
C2513 C2512 1.363 . S
C2513 C2516 1.363 . S
N2514 C2516 1.356 . S
N2514 H2526 0.984 . S
N2514 H2527 0.985 . S
N2515 C2517 1.356 . S
N2515 H2520 0.984 . S
N2515 H2521 0.985 . S
C2516 C2510 1.379 . S
C2516 C2513 1.363 . S
C2516 N2514 1.356 . S
C2517 C2511 1.363 . S
C2517 C2512 1.379 . S
C2517 N2515 1.356 . S
N2518 C2510 1.356 . S
N2518 H2524 0.984 . S
N2518 H2525 0.984 . S
N2519 C2512 1.356 . S
N2519 H2522 0.984 . S
N2519 H2523 0.985 . S
H2520 N2515 0.984 . S
H2521 N2515 0.985 . S
H2522 N2519 0.984 . S
H2523 N2519 0.985 . S
H2524 N2518 0.984 . S
H2525 N2518 0.984 . S
H2526 N2514 0.984 . S
H2527 N2514 0.985 . S
C1089 C9 0.556 . S
C1091 C349 0.556 . S
C1107 C383 0.556 . S
C1109 C43 0.556 . S
C1125 C281 0.556 . S
C1127 C77 0.556 . S
C1143 C111 0.556 . S
C1145 C315 0.556 . S
C1161 C145 0.556 . S
C1163 C485 0.556 . S
C1179 C179 0.556 . S
C1181 C519 0.556 . S
C1197 C417 0.556 . S
C1199 C213 0.556 . S
C1215 C451 0.556 . S
C1217 C247 0.556 . S
C1233 C893 0.556 . S
C1235 C553 0.556 . S
C1251 C927 0.556 . S
C1253 C587 0.556 . S
C1269 C621 0.556 . S
C1271 C825 0.556 . S
C1287 C859 0.556 . S
C1289 C655 0.556 . S
C1305 C689 0.556 . S
C1307 C1029 0.556 . S
C1323 C1063 0.556 . S
C1325 C723 0.556 . S
C1341 C757 0.556 . S
C1343 C961 0.556 . S
C1359 C791 0.556 . S
C1361 C995 0.556 . S
C1377 C2 1.873 . S
C1379 C852 1.873 . S
C1395 C36 1.873 . S
C1397 C818 1.873 . S
C1413 C70 1.873 . S
C1415 C920 1.873 . S
C1431 C104 1.873 . S
C1433 C886 1.873 . S
C1449 C138 1.873 . S
C1451 C988 1.873 . S
C1467 C172 1.873 . S
C1469 C954 1.873 . S
C1485 C1056 1.873 . S
C1487 C206 1.873 . S
C1503 C240 1.873 . S
C1505 C1022 1.873 . S
C1521 C580 1.873 . S
C1523 C274 1.873 . S
C1539 C308 1.873 . S
C1541 C546 1.873 . S
C1557 C342 1.873 . S
C1559 C648 1.873 . S
C1575 C614 1.873 . S
C1577 C376 1.873 . S
C1593 C716 1.873 . S
C1595 C410 1.873 . S
C1611 C682 1.873 . S
C1613 C444 1.873 . S
C1629 C478 1.873 . S
C1631 C784 1.873 . S
C1647 C750 1.873 . S
C1649 C512 1.873 . S
C1665 C73 0.751 . S
C1667 C5 0.751 . S
C1683 C39 0.751 . S
C1685 C107 0.751 . S
C1701 C209 0.751 . S
C1703 C141 0.751 . S
C1719 C175 0.751 . S
C1721 C243 0.751 . S
C1737 C277 0.751 . S
C1739 C345 0.751 . S
C1755 C311 0.751 . S
C1757 C379 0.751 . S
C1773 C481 0.751 . S
C1775 C413 0.751 . S
C1791 C515 0.751 . S
C1793 C447 0.751 . S
C1809 C617 0.751 . S
C1811 C549 0.751 . S
C1827 C583 0.751 . S
C1829 C651 0.751 . S
C1845 C685 0.751 . S
C1847 C753 0.751 . S
C1863 C719 0.751 . S
C1865 C787 0.751 . S
C1881 C889 0.751 . S
C1883 C821 0.751 . S
C1899 C855 0.751 . S
C1901 C923 0.751 . S
C1917 C957 0.751 . S
C1919 C1025 0.751 . S
C1935 C1059 0.751 . S
C1937 C991 0.751 . S
C1953 C781 2.439 . S
C1955 C20 2.416 . S
C1971 C543 2.439 . S
C1973 C54 2.416 . S
C1989 C88 2.416 . S
C1991 C985 2.439 . S
C2007 C203 2.439 . S
C2009 C122 2.416 . S
C2025 C156 2.416 . S
C2027 C645 2.439 . S
C2043 C190 2.416 . S
C2045 C407 2.439 . S
C2061 C849 2.439 . S
C2063 C224 2.416 . S
C2079 C258 2.416 . S
C2081 C67 2.439 . S
C2097 C292 2.416 . S
C2099 C1053 2.439 . S
C2115 C271 2.439 . S
C2117 C326 2.416 . S
C2133 C360 2.416 . S
C2135 C713 2.439 . S
C2151 C394 2.416 . S
C2153 C475 2.439 . S
C2169 C917 2.439 . S
C2171 C428 2.416 . S
C2187 C462 2.416 . S
C2189 C135 2.439 . S
C2205 C577 2.439 . S
C2207 C496 2.416 . S
C2223 C339 2.439 . S
C2225 C530 2.416 . S
C2241 C237 2.439 . S
C2243 C564 2.416 . S
C2259 C598 2.416 . S
C2261 C1087 2.439 . S
C2277 C632 2.416 . S
C2279 C441 2.439 . S
C2295 C666 2.416 . S
C2297 C747 2.439 . S
C2313 C700 2.416 . S
C2315 C101 2.439 . S
C2331 C734 2.416 . S
C2333 C951 2.439 . S
C2349 C305 2.439 . S
C2351 C768 2.416 . S
C2367 C611 2.439 . S
C2369 C802 2.416 . S
C2385 C509 2.439 . S
C2387 C836 2.416 . S
C2403 C870 2.416 . S
C2405 C815 2.439 . S
C2421 C169 2.439 . S
C2423 C904 2.416 . S
C2439 C1019 2.439 . S
C2441 C938 2.416 . S
C2457 C972 2.416 . S
C2459 C373 2.439 . S
C2475 C1006 2.416 . S
C2477 C679 2.439 . S
C2493 C33 2.439 . S
C2495 C1040 2.416 . S
C2511 C1074 2.416 . S
C2513 C883 2.439 . S
