# Generated by pormake.
# Topology ict, (4)-cn, num edge types: 1
# Building blocks:
#     Node 0, Type 0, BuildingBlock: KUFVIS_clean_sbu_0, # of connection points: 4
#     Node 1, Type 0, BuildingBlock: KUFVIS_clean_sbu_0, # of connection points: 4
#     Node 2, Type 0, BuildingBlock: KUFVIS_clean_sbu_0, # of connection points: 4
#     Node 3, Type 0, BuildingBlock: KUFVIS_clean_sbu_0, # of connection points: 4
#     Node 4, Type 0, BuildingBlock: KUFVIS_clean_sbu_0, # of connection points: 4
#     Node 5, Type 0, BuildingBlock: KUFVIS_clean_sbu_0, # of connection points: 4
#     Node 6, Type 0, BuildingBlock: KUFVIS_clean_sbu_0, # of connection points: 4
#     Node 7, Type 0, BuildingBlock: KUFVIS_clean_sbu_0, # of connection points: 4
#     Node 8, Type 0, BuildingBlock: KUFVIS_clean_sbu_0, # of connection points: 4
#     Node 9, Type 0, BuildingBlock: KUFVIS_clean_sbu_0, # of connection points: 4
#     Node 10, Type 0, BuildingBlock: KUFVIS_clean_sbu_0, # of connection points: 4
#     Node 11, Type 0, BuildingBlock: KUFVIS_clean_sbu_0, # of connection points: 4
#     Node 12, Type 0, BuildingBlock: KUFVIS_clean_sbu_0, # of connection points: 4
#     Node 13, Type 0, BuildingBlock: KUFVIS_clean_sbu_0, # of connection points: 4
#     Node 14, Type 0, BuildingBlock: KUFVIS_clean_sbu_0, # of connection points: 4
#     Node 15, Type 0, BuildingBlock: KUFVIS_clean_sbu_0, # of connection points: 4
#     Node 16, Type 0, BuildingBlock: KUFVIS_clean_sbu_0, # of connection points: 4
#     Node 17, Type 0, BuildingBlock: KUFVIS_clean_sbu_0, # of connection points: 4
#     Node 18, Type 0, BuildingBlock: KUFVIS_clean_sbu_0, # of connection points: 4
#     Node 19, Type 0, BuildingBlock: KUFVIS_clean_sbu_0, # of connection points: 4
#     Node 20, Type 0, BuildingBlock: KUFVIS_clean_sbu_0, # of connection points: 4
#     Node 21, Type 0, BuildingBlock: KUFVIS_clean_sbu_0, # of connection points: 4
#     Node 22, Type 0, BuildingBlock: KUFVIS_clean_sbu_0, # of connection points: 4
#     Node 23, Type 0, BuildingBlock: KUFVIS_clean_sbu_0, # of connection points: 4
#     Node 24, Type 0, BuildingBlock: KUFVIS_clean_sbu_0, # of connection points: 4
#     Node 25, Type 0, BuildingBlock: KUFVIS_clean_sbu_0, # of connection points: 4
#     Node 26, Type 0, BuildingBlock: KUFVIS_clean_sbu_0, # of connection points: 4
#     Node 27, Type 0, BuildingBlock: KUFVIS_clean_sbu_0, # of connection points: 4
#     Node 28, Type 0, BuildingBlock: KUFVIS_clean_sbu_0, # of connection points: 4
#     Node 29, Type 0, BuildingBlock: KUFVIS_clean_sbu_0, # of connection points: 4
#     Node 30, Type 0, BuildingBlock: KUFVIS_clean_sbu_0, # of connection points: 4
#     Node 31, Type 0, BuildingBlock: KUFVIS_clean_sbu_0, # of connection points: 4
#     Node 32, Type 0, BuildingBlock: KUFVIS_clean_sbu_0, # of connection points: 4
#     Node 33, Type 0, BuildingBlock: KUFVIS_clean_sbu_0, # of connection points: 4
#     Node 34, Type 0, BuildingBlock: KUFVIS_clean_sbu_0, # of connection points: 4
#     Node 35, Type 0, BuildingBlock: KUFVIS_clean_sbu_0, # of connection points: 4
#     Edge 36, Type (0, 0), BuildingBlock: UVAHIK_clean_linker_0, # of connection points: 2
#     Edge 37, Type (0, 0), BuildingBlock: UVAHIK_clean_linker_0, # of connection points: 2
#     Edge 38, Type (0, 0), BuildingBlock: UVAHIK_clean_linker_0, # of connection points: 2
#     Edge 39, Type (0, 0), BuildingBlock: UVAHIK_clean_linker_0, # of connection points: 2
#     Edge 40, Type (0, 0), BuildingBlock: UVAHIK_clean_linker_0, # of connection points: 2
#     Edge 41, Type (0, 0), BuildingBlock: UVAHIK_clean_linker_0, # of connection points: 2
#     Edge 42, Type (0, 0), BuildingBlock: UVAHIK_clean_linker_0, # of connection points: 2
#     Edge 43, Type (0, 0), BuildingBlock: UVAHIK_clean_linker_0, # of connection points: 2
#     Edge 44, Type (0, 0), BuildingBlock: UVAHIK_clean_linker_0, # of connection points: 2
#     Edge 45, Type (0, 0), BuildingBlock: UVAHIK_clean_linker_0, # of connection points: 2
#     Edge 46, Type (0, 0), BuildingBlock: UVAHIK_clean_linker_0, # of connection points: 2
#     Edge 47, Type (0, 0), BuildingBlock: UVAHIK_clean_linker_0, # of connection points: 2
#     Edge 48, Type (0, 0), BuildingBlock: UVAHIK_clean_linker_0, # of connection points: 2
#     Edge 49, Type (0, 0), BuildingBlock: UVAHIK_clean_linker_0, # of connection points: 2
#     Edge 50, Type (0, 0), BuildingBlock: UVAHIK_clean_linker_0, # of connection points: 2
#     Edge 51, Type (0, 0), BuildingBlock: UVAHIK_clean_linker_0, # of connection points: 2
#     Edge 52, Type (0, 0), BuildingBlock: UVAHIK_clean_linker_0, # of connection points: 2
#     Edge 53, Type (0, 0), BuildingBlock: UVAHIK_clean_linker_0, # of connection points: 2
#     Edge 54, Type (0, 0), BuildingBlock: UVAHIK_clean_linker_0, # of connection points: 2
#     Edge 55, Type (0, 0), BuildingBlock: UVAHIK_clean_linker_0, # of connection points: 2
#     Edge 56, Type (0, 0), BuildingBlock: UVAHIK_clean_linker_0, # of connection points: 2
#     Edge 57, Type (0, 0), BuildingBlock: UVAHIK_clean_linker_0, # of connection points: 2
#     Edge 58, Type (0, 0), BuildingBlock: UVAHIK_clean_linker_0, # of connection points: 2
#     Edge 59, Type (0, 0), BuildingBlock: UVAHIK_clean_linker_0, # of connection points: 2
#     Edge 60, Type (0, 0), BuildingBlock: UVAHIK_clean_linker_0, # of connection points: 2
#     Edge 61, Type (0, 0), BuildingBlock: UVAHIK_clean_linker_0, # of connection points: 2
#     Edge 62, Type (0, 0), BuildingBlock: UVAHIK_clean_linker_0, # of connection points: 2
#     Edge 63, Type (0, 0), BuildingBlock: UVAHIK_clean_linker_0, # of connection points: 2
#     Edge 64, Type (0, 0), BuildingBlock: UVAHIK_clean_linker_0, # of connection points: 2
#     Edge 65, Type (0, 0), BuildingBlock: UVAHIK_clean_linker_0, # of connection points: 2
#     Edge 66, Type (0, 0), BuildingBlock: UVAHIK_clean_linker_0, # of connection points: 2
#     Edge 67, Type (0, 0), BuildingBlock: UVAHIK_clean_linker_0, # of connection points: 2
#     Edge 68, Type (0, 0), BuildingBlock: UVAHIK_clean_linker_0, # of connection points: 2
#     Edge 69, Type (0, 0), BuildingBlock: UVAHIK_clean_linker_0, # of connection points: 2
#     Edge 70, Type (0, 0), BuildingBlock: UVAHIK_clean_linker_0, # of connection points: 2
#     Edge 71, Type (0, 0), BuildingBlock: UVAHIK_clean_linker_0, # of connection points: 2
#     Edge 72, Type (0, 0), BuildingBlock: UVAHIK_clean_linker_0, # of connection points: 2
#     Edge 73, Type (0, 0), BuildingBlock: UVAHIK_clean_linker_0, # of connection points: 2
#     Edge 74, Type (0, 0), BuildingBlock: UVAHIK_clean_linker_0, # of connection points: 2
#     Edge 75, Type (0, 0), BuildingBlock: UVAHIK_clean_linker_0, # of connection points: 2
#     Edge 76, Type (0, 0), BuildingBlock: UVAHIK_clean_linker_0, # of connection points: 2
#     Edge 77, Type (0, 0), BuildingBlock: UVAHIK_clean_linker_0, # of connection points: 2
#     Edge 78, Type (0, 0), BuildingBlock: UVAHIK_clean_linker_0, # of connection points: 2
#     Edge 79, Type (0, 0), BuildingBlock: UVAHIK_clean_linker_0, # of connection points: 2
#     Edge 80, Type (0, 0), BuildingBlock: UVAHIK_clean_linker_0, # of connection points: 2
#     Edge 81, Type (0, 0), BuildingBlock: UVAHIK_clean_linker_0, # of connection points: 2
#     Edge 82, Type (0, 0), BuildingBlock: UVAHIK_clean_linker_0, # of connection points: 2
#     Edge 83, Type (0, 0), BuildingBlock: UVAHIK_clean_linker_0, # of connection points: 2
#     Edge 84, Type (0, 0), BuildingBlock: UVAHIK_clean_linker_0, # of connection points: 2
#     Edge 85, Type (0, 0), BuildingBlock: UVAHIK_clean_linker_0, # of connection points: 2
#     Edge 86, Type (0, 0), BuildingBlock: UVAHIK_clean_linker_0, # of connection points: 2
#     Edge 87, Type (0, 0), BuildingBlock: UVAHIK_clean_linker_0, # of connection points: 2
#     Edge 88, Type (0, 0), BuildingBlock: UVAHIK_clean_linker_0, # of connection points: 2
#     Edge 89, Type (0, 0), BuildingBlock: UVAHIK_clean_linker_0, # of connection points: 2
#     Edge 90, Type (0, 0), BuildingBlock: UVAHIK_clean_linker_0, # of connection points: 2
#     Edge 91, Type (0, 0), BuildingBlock: UVAHIK_clean_linker_0, # of connection points: 2
#     Edge 92, Type (0, 0), BuildingBlock: UVAHIK_clean_linker_0, # of connection points: 2
#     Edge 93, Type (0, 0), BuildingBlock: UVAHIK_clean_linker_0, # of connection points: 2
#     Edge 94, Type (0, 0), BuildingBlock: UVAHIK_clean_linker_0, # of connection points: 2
#     Edge 95, Type (0, 0), BuildingBlock: UVAHIK_clean_linker_0, # of connection points: 2
#     Edge 96, Type (0, 0), BuildingBlock: UVAHIK_clean_linker_0, # of connection points: 2
#     Edge 97, Type (0, 0), BuildingBlock: UVAHIK_clean_linker_0, # of connection points: 2
#     Edge 98, Type (0, 0), BuildingBlock: UVAHIK_clean_linker_0, # of connection points: 2
#     Edge 99, Type (0, 0), BuildingBlock: UVAHIK_clean_linker_0, # of connection points: 2
#     Edge 100, Type (0, 0), BuildingBlock: UVAHIK_clean_linker_0, # of connection points: 2
#     Edge 101, Type (0, 0), BuildingBlock: UVAHIK_clean_linker_0, # of connection points: 2
#     Edge 102, Type (0, 0), BuildingBlock: UVAHIK_clean_linker_0, # of connection points: 2
#     Edge 103, Type (0, 0), BuildingBlock: UVAHIK_clean_linker_0, # of connection points: 2
#     Edge 104, Type (0, 0), BuildingBlock: UVAHIK_clean_linker_0, # of connection points: 2
#     Edge 105, Type (0, 0), BuildingBlock: UVAHIK_clean_linker_0, # of connection points: 2
#     Edge 106, Type (0, 0), BuildingBlock: UVAHIK_clean_linker_0, # of connection points: 2
#     Edge 107, Type (0, 0), BuildingBlock: UVAHIK_clean_linker_0, # of connection points: 2
# Relax obj value: 0.086
# Max RMSD: 0.111
# Mean RMSD: 0.111
data_MOF--net-ict--node1-KUFVIS_clean_sbu_0--edge1-UVAHIK_clean_linker_0
_symmetry_space_group_name_H-M    P1
_symmetry_Int_Tables_number       1
_symmetry_cell_setting            triclinic
loop_
_symmetry_equiv_pos_as_xyz
'x, y, z'
_cell_length_a     83.040397
_cell_length_b     83.003103
_cell_length_c     47.857152
_cell_angle_alpha  90.012485
_cell_angle_beta   90.001126
_cell_angle_gamma 120.0059
loop_
_atom_site_label
_atom_site_type_symbol
_atom_site_fract_x
_atom_site_fract_y
_atom_site_fract_z
_atom_type_partial_charge
Mn0 Mn 0.22742 0.22346 0.05725 0.0
Mn1 Mn 0.20577 0.20635 0.99561 0.0
C2 C 0.20718 0.23258 0.03928 0.0
C3 C 0.228 0.22102 0.106 0.0
C4 C 0.24674 0.23558 1.00066 0.0
O5 O 0.23083 0.20087 0.05068 0.0
O6 O 0.21277 0.18892 0.01238 0.0
C7 C 0.17156 0.17339 0.01632 0.0
N8 N 0.17986 0.18957 1.00153 0.0
C9 C 0.15021 0.18587 0.98848 0.0
C10 C 0.14134 0.16907 1.00333 0.0
C11 C 0.15207 0.16285 0.0174 0.0
C12 C 0.16968 0.19579 0.98816 0.0
H13 H 0.17977 0.16863 0.02728 0.0
C14 C 0.22285 0.1882 0.03207 0.0
O15 O 0.24313 0.23094 0.09176 0.0
O16 O 0.21269 0.21205 0.09185 0.0
N17 N 0.19808 0.22187 0.97725 0.0
C18 C 0.20878 0.23884 0.96517 0.0
C19 C 0.20019 0.24728 0.95081 0.0
C20 C 0.18071 0.23813 0.94881 0.0
C21 C 0.16999 0.2206 0.96123 0.0
C22 C 0.17933 0.21284 0.97513 0.0
H23 H 0.22376 0.24589 0.96648 0.0
O24 O 0.21939 0.2427 0.05798 0.0
O25 O 0.20716 0.21753 0.03201 0.0
O26 O 0.2469 0.23796 0.02704 0.0
O27 O 0.23232 0.22373 0.98724 0.0
C28 C 0.1504 0.21065 0.96067 0.0
C29 C 0.14051 0.19335 0.97441 0.0
H30 H 0.12631 0.16092 1.00429 0.0
H31 H 0.14532 0.14996 0.02908 0.0
H32 H 0.20856 0.26081 0.94129 0.0
H33 H 0.17413 0.24473 0.93785 0.0
H34 H 0.14278 0.21629 0.95005 0.0
H35 H 0.12545 0.18599 0.97426 0.0
Mn36 Mn 0.77701 0.00513 0.05273 0.0
Mn37 Mn 0.79259 0.00175 0.98888 0.0
C38 C 0.76844 0.97616 0.03322 0.0
C39 C 0.77962 0.0072 0.10154 0.0
C40 C 0.76227 0.01144 0.99749 0.0
O41 O 0.79913 0.03145 0.04676 0.0
O42 O 0.80882 0.02675 1.00505 0.0
C43 C 0.82797 0.00429 0.00656 0.0
N44 N 0.81143 0.99511 0.99279 0.0
C45 C 0.81845 0.97198 0.97605 0.0
C46 C 0.83567 0.98131 0.98975 0.0
C47 C 0.84038 0.99746 0.00525 0.0
C48 C 0.80659 0.97934 0.97835 0.0
H49 H 0.83164 0.01671 0.01845 0.0
C50 C 0.81045 0.037 0.0261 0.0
O51 O 0.76949 0.01244 0.08798 0.0
O52 O 0.78881 0.00141 0.08668 0.0
N53 N 0.77834 0.97817 0.97084 0.0
C54 C 0.76075 0.9702 0.96036 0.0
C55 C 0.75356 0.95351 0.94523 0.0
C56 C 0.76462 0.94533 0.94071 0.0
C57 C 0.78273 0.95388 0.95151 0.0
C58 C 0.78909 0.97043 0.96657 0.0
H59 H 0.75224 0.97647 0.96369 0.0
O60 O 0.75828 0.97765 0.05248 0.0
O61 O 0.78309 0.99153 0.02592 0.0
O62 O 0.76196 0.01056 0.0241 0.0
O63 O 0.77305 0.00829 0.98232 0.0
C64 C 0.7947 0.94658 0.94805 0.0
C65 C 0.81252 0.95559 0.9604 0.0
H66 H 0.84531 0.97612 0.98871 0.0
H67 H 0.85359 0.00466 0.01607 0.0
H68 H 0.73955 0.94699 0.93702 0.0
H69 H 0.75903 0.93246 0.92904 0.0
H70 H 0.79021 0.93385 0.93636 0.0
H71 H 0.82146 0.94964 0.95804 0.0
Mn72 Mn 0.99872 0.77017 0.05617 0.0
Mn73 Mn 0.00412 0.79208 0.99445 0.0
C74 C 0.02828 0.7903 0.03872 0.0
C75 C 0.99538 0.76945 0.10485 0.0
C76 C 0.99236 0.75113 0.99924 0.0
O77 O 0.97299 0.76719 0.04943 0.0
O78 O 0.97928 0.78444 0.01023 0.0
C79 C 0.00422 0.82571 0.01533 0.0
N80 N 0.01265 0.81784 1.00086 0.0
C81 C 0.03844 0.84789 0.98893 0.0
C82 C 0.02995 0.85632 1.0035 0.0
C83 C 0.0128 0.84517 0.01685 0.0
C84 C 0.02924 0.82842 0.98819 0.0
H85 H 0.99107 0.81718 0.02569 0.0
C86 C 0.96837 0.77476 0.0301 0.0
O87 O 0.9901 0.75432 0.09053 0.0
O88 O 0.00205 0.78483 0.09084 0.0
N89 N 0.02772 0.80041 0.97698 0.0
C90 C 0.03444 0.7901 0.96489 0.0
C91 C 0.05165 0.79914 0.95104 0.0
C92 C 0.06167 0.81865 0.94954 0.0
C93 C 0.05441 0.82897 0.96196 0.0
C94 C 0.03715 0.81919 0.97534 0.0
H95 H 0.02673 0.77509 0.96581 0.0
O96 O 0.0259 0.77787 0.05721 0.0
O97 O 0.01341 0.79052 0.0312 0.0
O98 O 0.99352 0.75067 0.02582 0.0
O99 O 0.99571 0.76576 0.98572 0.0
C100 C 0.06371 0.84856 0.96185 0.0
C101 C 0.05579 0.85802 0.97548 0.0
H102 H 0.03654 0.87133 1.00477 0.0
H103 H 0.00622 0.85158 0.02829 0.0
H104 H 0.05717 0.79108 0.94151 0.0
H105 H 0.07497 0.82557 0.93891 0.0
H106 H 0.07707 0.85651 0.95164 0.0
H107 H 0.06322 0.87309 0.97565 0.0
Mn108 Mn 0.22265 0.22955 0.45552 0.0
Mn109 Mn 0.20787 0.20989 0.51921 0.0
C110 C 0.23106 0.20868 0.47287 0.0
C111 C 0.21939 0.22979 0.4069 0.0
C112 C 0.23904 0.24949 0.51141 0.0
O113 O 0.20103 0.23416 0.46319 0.0
O114 O 0.19268 0.22064 0.5057 0.0
C115 C 0.17126 0.17886 0.50153 0.0
N116 N 0.188 0.18494 0.5142 0.0
C117 C 0.18033 0.15362 0.52529 0.0
C118 C 0.16295 0.14702 0.5125 0.0
C119 C 0.15842 0.1597 0.50052 0.0
C120 C 0.19254 0.17286 0.52568 0.0
H121 H 0.16775 0.18857 0.49224 0.0
C122 C 0.19094 0.22957 0.48518 0.0
O123 O 0.22992 0.24493 0.42079 0.0
O124 O 0.21016 0.21465 0.42138 0.0
N125 N 0.2213 0.19892 0.53503 0.0
C126 C 0.23881 0.20754 0.54589 0.0
C127 C 0.24559 0.19681 0.55848 0.0
C128 C 0.23423 0.17739 0.56001 0.0
C129 C 0.21616 0.16886 0.54904 0.0
C130 C 0.21011 0.18029 0.53698 0.0
H131 H 0.24757 0.22247 0.54485 0.0
O132 O 0.24103 0.22058 0.45373 0.0
O133 O 0.21656 0.20938 0.48134 0.0
O134 O 0.2385 0.2494 0.48472 0.0
O135 O 0.22847 0.23533 0.52634 0.0
C136 C 0.204 0.14947 0.54926 0.0
C137 C 0.18613 0.14185 0.53731 0.0
H138 H 0.15304 0.13225 0.5116 0.0
H139 H 0.14507 0.15471 0.4905 0.0
H140 H 0.25954 0.2035 0.56694 0.0
H141 H 0.23955 0.16916 0.56957 0.0
H142 H 0.20835 0.14027 0.55825 0.0
H143 H 0.17699 0.1269 0.53729 0.0
Mn144 Mn 0.77123 0.99235 0.45097 0.0
Mn145 Mn 0.79353 0.99857 0.51251 0.0
C146 C 0.79102 0.02217 0.46792 0.0
C147 C 0.77044 0.98873 0.40231 0.0
C148 C 0.7524 0.98613 0.50802 0.0
O149 O 0.76856 0.96677 0.45829 0.0
O150 O 0.78627 0.9737 0.49712 0.0
C151 C 0.82741 0.99931 0.49141 0.0
N152 N 0.81934 0.00755 0.50587 0.0
C153 C 0.84918 0.03386 0.51721 0.0
C154 C 0.85782 0.02556 0.50266 0.0
C155 C 0.84688 0.00825 0.48961 0.0
C156 C 0.82973 0.0243 0.51824 0.0
H157 H 0.81903 0.98604 0.48126 0.0
C158 C 0.77643 0.9625 0.47761 0.0
O159 O 0.75531 0.98331 0.41669 0.0
O160 O 0.78585 0.99562 0.41628 0.0
N161 N 0.80151 0.02221 0.5297 0.0
C162 C 0.79099 0.02865 0.5419 0.0
C163 C 0.79981 0.04595 0.55554 0.0
C164 C 0.81931 0.05635 0.55673 0.0
C165 C 0.82984 0.04937 0.54421 0.0
C166 C 0.82028 0.03198 0.53108 0.0
H167 H 0.776 0.02066 0.54124 0.0
O168 O 0.7785 0.01941 0.44939 0.0
O169 O 0.7916 0.00751 0.47568 0.0
O170 O 0.75182 0.98717 0.48143 0.0
O171 O 0.76715 0.98973 0.52144 0.0
C172 C 0.84943 0.05904 0.54401 0.0
C173 C 0.8591 0.05135 0.53036 0.0
H174 H 0.87283 0.03243 0.50118 0.0
H175 H 0.85344 0.00182 0.47819 0.0
H176 H 0.79159 0.05125 0.56516 0.0
H177 H 0.82605 0.06971 0.5672 0.0
H178 H 0.85721 0.07251 0.55399 0.0
H179 H 0.87416 0.05906 0.52996 0.0
Mn180 Mn 0.0041 0.77499 0.45502 0.0
Mn181 Mn 0.9987 0.79159 0.51667 0.0
C182 C 0.97454 0.76524 0.47268 0.0
C183 C 0.00733 0.77725 0.40632 0.0
C184 C 0.01094 0.76276 0.51195 0.0
O185 O 0.02973 0.798 0.46157 0.0
O186 O 0.02335 0.80913 0.50053 0.0
C187 C 0.99766 0.82459 0.49558 0.0
N188 N 0.98963 0.80838 0.51029 0.0
C189 C 0.96349 0.81199 0.5224 0.0
C190 C 0.97158 0.82883 0.50763 0.0
C191 C 0.9887 0.83511 0.49406 0.0
C192 C 0.97306 0.8021 0.52315 0.0
H193 H 0.01077 0.82941 0.485 0.0
C194 C 0.03424 0.81035 0.48064 0.0
O195 O 0.01282 0.7677 0.42091 0.0
O196 O 0.00054 0.78596 0.42009 0.0
N197 N 0.97529 0.77602 0.53447 0.0
C198 C 0.96896 0.75908 0.54671 0.0
C199 C 0.95181 0.75064 0.56073 0.0
C200 C 0.94143 0.75977 0.56225 0.0
C201 C 0.9483 0.77726 0.54969 0.0
C202 C 0.96554 0.78503 0.53616 0.0
H203 H 0.97693 0.75206 0.54578 0.0
O204 O 0.97702 0.75526 0.45419 0.0
O205 O 0.98931 0.78051 0.48002 0.0
O206 O 0.0095 0.76097 0.48543 0.0
O207 O 0.00768 0.77412 0.52547 0.0
C208 C 0.93863 0.78718 0.5498 0.0
C209 C 0.94616 0.80449 0.53602 0.0
H210 H 0.96468 0.83697 0.50634 0.0
H211 H 0.99497 0.84803 0.48244 0.0
H212 H 0.9466 0.73714 0.57037 0.0
H213 H 0.92818 0.75318 0.573 0.0
H214 H 0.92527 0.78153 0.5601 0.0
H215 H 0.93845 0.81183 0.53584 0.0
Mn216 Mn 0.77486 0.77673 0.95869 0.0
Mn217 Mn 0.79454 0.7938 0.02162 0.0
C218 C 0.79594 0.76908 0.97791 0.0
C219 C 0.77466 0.77894 0.90988 0.0
C220 C 0.75462 0.7627 0.01449 0.0
O221 O 0.76999 0.79846 0.96451 0.0
O222 O 0.78588 0.80988 1.00474 0.0
C223 C 0.82746 0.82878 1.00291 0.0
N224 N 0.82006 0.81239 0.01711 0.0
C225 C 0.85023 0.81927 0.03344 0.0
C226 C 0.85818 0.83632 0.01922 0.0
C227 C 0.84675 0.84103 1.00373 0.0
C228 C 0.83096 0.80756 0.03162 0.0
H229 H 0.8187 0.83245 0.99105 0.0
C230 C 0.77644 0.8106 0.9841 0.0
O231 O 0.75957 0.76852 0.9239 0.0
O232 O 0.78977 0.78857 0.92428 0.0
N233 N 0.80373 0.77964 0.04027 0.0
C234 C 0.79398 0.76231 0.05166 0.0
C235 C 0.80345 0.75517 0.06697 0.0
C236 C 0.82277 0.76604 0.07082 0.0
C237 C 0.83246 0.78393 0.05923 0.0
C238 C 0.8223 0.79025 0.04402 0.0
H239 H 0.7791 0.75399 0.04906 0.0
O240 O 0.78429 0.75859 0.95885 0.0
O241 O 0.79494 0.78363 0.98496 0.0
O242 O 0.75505 0.76138 0.98797 0.0
O243 O 0.76847 0.77459 0.0288 0.0
C244 C 0.85179 0.79573 0.06211 0.0
C245 C 0.86068 0.81338 0.04917 0.0
H246 H 0.87304 0.84583 0.01989 0.0
H247 H 0.85279 0.8541 0.99255 0.0
H248 H 0.79587 0.74137 0.0759 0.0
H249 H 0.83003 0.7605 0.08265 0.0
H250 H 0.86001 0.79126 0.07387 0.0
H251 H 0.87561 0.82219 0.05114 0.0
Mn252 Mn 0.22275 0.99575 0.95192 0.0
Mn253 Mn 0.20648 0.00092 0.01402 0.0
C254 C 0.23205 0.02528 0.96943 0.0
C255 C 0.21971 0.99232 0.90325 0.0
C256 C 0.23601 0.98966 0.00852 0.0
O257 O 0.20037 0.96983 0.95907 0.0
O258 O 0.18936 0.97596 0.99838 0.0
C259 C 0.17262 0.00059 0.99383 0.0
N260 N 0.18901 0.00918 0.00807 0.0
C261 C 0.18452 0.03479 0.02028 0.0
C262 C 0.16751 0.02614 0.00595 0.0
C263 C 0.16158 0.009 0.99258 0.0
C264 C 0.19494 0.02576 0.02078 0.0
H265 H 0.16806 0.98746 0.98344 0.0
C266 C 0.18829 0.96506 0.97858 0.0
O267 O 0.22983 0.98725 0.91729 0.0
O268 O 0.21095 0.99881 0.91757 0.0
N269 N 0.22166 0.02457 0.03148 0.0
C270 C 0.23877 0.03144 0.04336 0.0
C271 C 0.24687 0.04864 0.05725 0.0
C272 C 0.23724 0.05851 0.05898 0.0
C273 C 0.21959 0.0511 0.04677 0.0
C274 C 0.21216 0.03383 0.0334 0.0
H275 H 0.24618 0.02386 0.04224 0.0
O276 O 0.24197 0.023 0.95061 0.0
O277 O 0.21707 0.01033 0.97717 0.0
O278 O 0.23748 0.99087 0.98192 0.0
O279 O 0.22466 0.99279 0.02229 0.0
C280 C 0.20917 0.06026 0.04707 0.0
C281 C 0.19169 0.05216 0.0337 0.0
H282 H 0.15897 0.03261 1.00487 0.0
H283 H 0.14852 0.0023 0.98132 0.0
H284 H 0.2605 0.05428 0.06662 0.0
H285 H 0.24356 0.0718 0.06963 0.0
H286 H 0.21457 0.07366 0.05718 0.0
H287 H 0.18395 0.05948 0.03368 0.0
Mn288 Mn 0.00435 0.22814 0.95314 0.0
Mn289 Mn 0.99883 0.206 0.01464 0.0
C290 C 0.97476 0.20866 0.97101 0.0
C291 C 0.00725 0.22862 0.90438 0.0
C292 C 0.01138 0.24718 0.01018 0.0
O293 O 0.02993 0.23065 0.95953 0.0
O294 O 0.02348 0.21314 0.99847 0.0
C295 C 0.99769 0.17201 0.99309 0.0
N296 N 0.98968 0.18015 0.00794 0.0
C297 C 0.96338 0.15037 0.01955 0.0
C298 C 0.97143 0.14165 1.0046 0.0
C299 C 0.98863 0.15253 0.99122 0.0
C300 C 0.97305 0.16983 0.02064 0.0
H301 H 0.01085 0.18033 0.98267 0.0
C302 C 0.03442 0.22284 0.97864 0.0
O303 O 0.01297 0.24386 0.9186 0.0
O304 O 0.00046 0.21328 0.91854 0.0
N305 N 0.97546 0.19814 0.03258 0.0
C306 C 0.96926 0.20873 0.04524 0.0
C307 C 0.95213 0.19999 0.0593 0.0
C308 C 0.94163 0.18048 0.06041 0.0
C309 C 0.94836 0.16987 0.04743 0.0
C310 C 0.9656 0.17936 0.03392 0.0
H311 H 0.97733 0.22373 0.04461 0.0
O312 O 0.97737 0.22112 0.95247 0.0
O313 O 0.98942 0.20791 0.9782 0.0
O314 O 0.01009 0.24772 0.98362 0.0
O315 O 0.00786 0.23243 0.02356 0.0
C316 C 0.93857 0.15027 0.04713 0.0
C317 C 0.94602 0.14052 0.03306 0.0
H318 H 0.96447 0.12663 1.00306 0.0
H319 H 0.99487 0.1459 0.97949 0.0
H320 H 0.94702 0.20827 0.06928 0.0
H321 H 0.92839 0.1738 0.0712 0.0
H322 H 0.92519 0.14255 0.05737 0.0
H323 H 0.93822 0.12546 0.03261 0.0
Mn324 Mn 0.77719 0.77071 0.55999 0.0
Mn325 Mn 0.79339 0.79246 0.49808 0.0
C326 C 0.76772 0.79087 0.54277 0.0
C327 C 0.78016 0.77008 0.60862 0.0
C328 C 0.76403 0.75156 0.50325 0.0
O329 O 0.79972 0.76742 0.5527 0.0
O330 O 0.81066 0.7848 0.51361 0.0
C331 C 0.82704 0.82611 0.51855 0.0
N332 N 0.81068 0.81823 0.50423 0.0
C333 C 0.81495 0.84826 0.49214 0.0
C334 C 0.83193 0.85671 0.50655 0.0
C335 C 0.83796 0.84558 0.5199 0.0
C336 C 0.80465 0.82879 0.49156 0.0
H337 H 0.83168 0.81761 0.52892 0.0
C338 C 0.81184 0.77497 0.53328 0.0
O339 O 0.77015 0.75494 0.59441 0.0
O340 O 0.78888 0.78543 0.59451 0.0
N341 N 0.77807 0.80077 0.48073 0.0
C342 C 0.761 0.79044 0.46874 0.0
C343 C 0.75283 0.79945 0.45483 0.0
C344 C 0.76234 0.81896 0.45316 0.0
C345 C 0.77994 0.8293 0.46549 0.0
C346 C 0.78745 0.81954 0.47889 0.0
H347 H 0.75369 0.77544 0.46977 0.0
O348 O 0.75785 0.77856 0.5615 0.0
O349 O 0.78275 0.79105 0.53497 0.0
O350 O 0.76253 0.7512 0.52984 0.0
O351 O 0.77537 0.76612 0.4896 0.0
C352 C 0.79026 0.84889 0.46525 0.0
C353 C 0.80769 0.85837 0.47871 0.0
H354 H 0.84037 0.87172 0.50769 0.0
H355 H 0.85099 0.85201 0.53121 0.0
H356 H 0.73924 0.79138 0.44537 0.0
H357 H 0.75597 0.82585 0.44246 0.0
H358 H 0.7848 0.85682 0.45508 0.0
H359 H 0.81535 0.87344 0.47878 0.0
Mn360 Mn 0.22789 0.00579 0.55334 0.0
Mn361 Mn 0.21062 0.00319 0.48841 0.0
C362 C 0.20685 0.97723 0.53374 0.0
C363 C 0.22713 0.00801 0.60211 0.0
C364 C 0.2492 0.00977 0.49867 0.0
O365 O 0.23335 0.03246 0.5472 0.0
O366 O 0.22233 0.02895 0.50317 0.0
C367 C 0.18071 0.01096 0.50441 0.0
N368 N 0.18616 0.99974 0.49185 0.0
C369 C 0.15491 0.97848 0.47677 0.0
C370 C 0.14897 0.98984 0.48945 0.0
C371 C 0.16191 0.0061 0.50345 0.0
C372 C 0.17379 0.98394 0.47865 0.0
H373 H 0.19064 0.02352 0.51505 0.0
C374 C 0.23034 0.0389 0.52476 0.0
O375 O 0.24244 0.0126 0.58879 0.0
O376 O 0.21233 0.00278 0.58701 0.0
N377 N 0.19877 0.97914 0.4713 0.0
C378 C 0.20668 0.96947 0.46078 0.0
C379 C 0.19557 0.9527 0.44647 0.0
C380 C 0.17652 0.94622 0.44273 0.0
C381 C 0.16876 0.95658 0.45333 0.0
C382 C 0.1805 0.97313 0.4675 0.0
H383 H 0.22134 0.97447 0.46342 0.0
O384 O 0.21812 0.97822 0.5533 0.0
O385 O 0.20834 0.9929 0.52601 0.0
O386 O 0.24848 0.01034 0.52527 0.0
O387 O 0.23557 0.0064 0.4827 0.0
C388 C 0.14982 0.95109 0.45045 0.0
C389 C 0.14286 0.96194 0.46238 0.0
H390 H 0.13449 0.98619 0.48864 0.0
H391 H 0.15743 0.01492 0.51335 0.0
H392 H 0.20168 0.94482 0.4383 0.0
H393 H 0.16798 0.93326 0.43173 0.0
H394 H 0.14042 0.93841 0.43944 0.0
H395 H 0.12821 0.95741 0.46042 0.0
Mn396 Mn 0.99251 0.22089 0.55519 0.0
Mn397 Mn 0.99945 0.20641 0.49254 0.0
C398 C 0.02243 0.23084 0.53891 0.0
C399 C 0.9886 0.21771 0.60376 0.0
C400 C 0.98782 0.23552 0.4987 0.0
O401 O 0.967 0.19821 0.54697 0.0
O402 O 0.97391 0.18925 0.50627 0.0
C403 C 0.99767 0.17161 0.51154 0.0
N404 N 0.00698 0.18834 0.49831 0.0
C405 C 0.03252 0.18348 0.48739 0.0
C406 C 0.02312 0.1661 0.50065 0.0
C407 C 0.00566 0.16018 0.51286 0.0
C408 C 0.02386 0.19424 0.48668 0.0
H409 H 0.9843 0.16705 0.5211 0.0
C410 C 0.96264 0.18711 0.52615 0.0
O411 O 0.98327 0.2275 0.58941 0.0
O412 O 0.99543 0.20913 0.58976 0.0
N413 N 0.02371 0.22164 0.47696 0.0
C414 C 0.03141 0.2392 0.46644 0.0
C415 C 0.04908 0.24739 0.45398 0.0
C416 C 0.0586 0.2374 0.45236 0.0
C417 C 0.05038 0.21932 0.46326 0.0
C418 C 0.03266 0.21182 0.47517 0.0
H419 H 0.02419 0.24695 0.46773 0.0
O420 O 0.01957 0.24048 0.55754 0.0
O421 O 0.0078 0.21587 0.53031 0.0
O422 O 0.98757 0.23562 0.52537 0.0
O423 O 0.99216 0.22527 0.48435 0.0
C424 C 0.0592 0.20858 0.4632 0.0
C425 C 0.0503 0.19069 0.47534 0.0
H426 H 0.02927 0.15728 0.50182 0.0
H427 H 0.99838 0.14684 0.5233 0.0
H428 H 0.05537 0.26138 0.44573 0.0
H429 H 0.07228 0.24381 0.44291 0.0
H430 H 0.07294 0.21406 0.45427 0.0
H431 H 0.05735 0.18269 0.47558 0.0
Mn432 Mn 0.89288 0.55721 0.38636 0.0
Mn433 Mn 0.87029 0.54079 0.32506 0.0
C434 C 0.87233 0.56643 0.37011 0.0
C435 C 0.8943 0.55456 0.43493 0.0
C436 C 0.91108 0.57048 0.329 0.0
O437 O 0.89613 0.53468 0.37872 0.0
O438 O 0.8785 0.52379 0.33987 0.0
C439 C 0.83725 0.50688 0.34635 0.0
N440 N 0.84471 0.52324 0.33207 0.0
C441 C 0.81434 0.51859 0.32152 0.0
C442 C 0.80633 0.50161 0.33591 0.0
C443 C 0.81784 0.49577 0.34847 0.0
C444 C 0.83377 0.52908 0.32015 0.0
H445 H 0.84606 0.50238 0.35611 0.0
C446 C 0.8885 0.52259 0.35926 0.0
O447 O 0.90919 0.56454 0.4202 0.0
O448 O 0.87876 0.54565 0.42134 0.0
N449 N 0.86139 0.55585 0.30846 0.0
C450 C 0.87134 0.57292 0.29633 0.0
C451 C 0.8619 0.58091 0.28313 0.0
C452 C 0.84238 0.57121 0.28231 0.0
C453 C 0.83245 0.55359 0.29475 0.0
C454 C 0.84261 0.54628 0.30742 0.0
H455 H 0.88635 0.58039 0.29672 0.0
O456 O 0.88492 0.57646 0.3884 0.0
O457 O 0.87213 0.55142 0.36211 0.0
O458 O 0.91186 0.57187 0.35562 0.0
O459 O 0.89637 0.55907 0.31574 0.0
C460 C 0.81287 0.54309 0.29532 0.0
C461 C 0.80382 0.52565 0.30884 0.0
H462 H 0.79136 0.49302 0.33764 0.0
H463 H 0.81177 0.48273 0.35976 0.0
H464 H 0.86966 0.59451 0.27357 0.0
H465 H 0.83516 0.57744 0.27216 0.0
H466 H 0.80464 0.54839 0.28573 0.0
H467 H 0.78877 0.51785 0.30952 0.0
Mn468 Mn 0.44038 0.33759 0.39025 0.0
Mn469 Mn 0.45824 0.33295 0.32939 0.0
C470 C 0.43109 0.30819 0.37225 0.0
C471 C 0.44231 0.34056 0.43901 0.0
C472 C 0.42921 0.34503 0.33302 0.0
O473 O 0.46319 0.36347 0.38425 0.0
O474 O 0.4755 0.35738 0.34642 0.0
C475 C 0.49074 0.33151 0.35167 0.0
N476 N 0.47478 0.32367 0.33635 0.0
C477 C 0.47842 0.29752 0.32433 0.0
C478 C 0.49498 0.30538 0.33977 0.0
C479 C 0.50113 0.32242 0.35359 0.0
C480 C 0.46865 0.30721 0.3232 0.0
H481 H 0.49546 0.34456 0.3624 0.0
C482 C 0.47604 0.36817 0.36599 0.0
O483 O 0.43265 0.34593 0.42441 0.0
O484 O 0.45124 0.33402 0.42523 0.0
N485 N 0.44294 0.30978 0.31076 0.0
C486 C 0.42628 0.3037 0.29775 0.0
C487 C 0.41802 0.28668 0.28333 0.0
C488 C 0.42703 0.27619 0.28222 0.0
C489 C 0.44424 0.28281 0.29555 0.0
C490 C 0.45186 0.29992 0.30944 0.0
H491 H 0.41935 0.31177 0.29838 0.0
O492 O 0.42088 0.31043 0.39059 0.0
O493 O 0.44639 0.3231 0.36542 0.0
O494 O 0.42652 0.34289 0.35937 0.0
O495 O 0.44109 0.34224 0.32009 0.0
C496 C 0.45404 0.27302 0.29586 0.0
C497 C 0.47106 0.28031 0.31037 0.0
H498 H 0.50301 0.29839 0.34136 0.0
H499 H 0.51384 0.32852 0.3657 0.0
H500 H 0.40473 0.28167 0.27309 0.0
H501 H 0.42056 0.26303 0.27119 0.0
H502 H 0.44851 0.25975 0.28529 0.0
H503 H 0.47832 0.2725 0.31084 0.0
Mn504 Mn 0.66345 0.10394 0.38826 0.0
Mn505 Mn 0.66967 0.12538 0.32592 0.0
C506 C 0.69322 0.12311 0.37081 0.0
C507 C 0.65997 0.10373 0.43688 0.0
C508 C 0.65677 0.08423 0.33184 0.0
O509 O 0.63807 0.10169 0.38094 0.0
O510 O 0.64493 0.1186 0.3413 0.0
C511 C 0.67086 0.15974 0.3458 0.0
N512 N 0.67892 0.15133 0.33176 0.0
C513 C 0.70541 0.18089 0.31978 0.0
C514 C 0.69731 0.18988 0.3339 0.0
C515 C 0.67999 0.17924 0.34706 0.0
C516 C 0.69567 0.16142 0.31929 0.0
H517 H 0.65759 0.15161 0.35603 0.0
C518 C 0.63382 0.10931 0.36121 0.0
O519 O 0.65431 0.08842 0.42287 0.0
O520 O 0.66709 0.11904 0.42257 0.0
N521 N 0.6932 0.13289 0.30874 0.0
C522 C 0.69943 0.12207 0.29696 0.0
C523 C 0.71669 0.13056 0.28325 0.0
C524 C 0.72728 0.15004 0.28157 0.0
C525 C 0.7205 0.16089 0.29364 0.0
C526 C 0.70315 0.15165 0.30687 0.0
H527 H 0.69129 0.10709 0.298 0.0
O528 O 0.69037 0.11078 0.38974 0.0
O529 O 0.67868 0.12386 0.36294 0.0
O530 O 0.65783 0.08405 0.35846 0.0
O531 O 0.66054 0.09882 0.31783 0.0
C532 C 0.73036 0.18049 0.29329 0.0
C533 C 0.72288 0.19049 0.30651 0.0
H534 H 0.70433 0.20492 0.33496 0.0
H535 H 0.67371 0.18607 0.35815 0.0
H536 H 0.72183 0.1221 0.27397 0.0
H537 H 0.74061 0.15653 0.27105 0.0
H538 H 0.7438 0.18803 0.28318 0.0
H539 H 0.73072 0.20555 0.30649 0.0
Mn540 Mn 0.89082 0.56118 0.78485 0.0
Mn541 Mn 0.87493 0.53966 0.84702 0.0
C542 C 0.90056 0.5413 0.80222 0.0
C543 C 0.88799 0.56178 0.7362 0.0
C544 C 0.90401 0.58059 0.84144 0.0
O545 O 0.86812 0.56421 0.79208 0.0
O546 O 0.85747 0.54705 0.83144 0.0
C547 C 0.84134 0.50574 0.82701 0.0
N548 N 0.85777 0.51382 0.84118 0.0
C549 C 0.85386 0.48394 0.85338 0.0
C550 C 0.83682 0.4753 0.83915 0.0
C551 C 0.83057 0.48626 0.82582 0.0
C552 C 0.86399 0.50341 0.85386 0.0
H553 H 0.83655 0.51412 0.81662 0.0
C554 C 0.85609 0.55668 0.81162 0.0
O555 O 0.89781 0.57694 0.75046 0.0
O556 O 0.8793 0.54642 0.75029 0.0
N557 N 0.89046 0.5316 0.86438 0.0
C558 C 0.90758 0.5421 0.87611 0.0
C559 C 0.916 0.53326 0.88985 0.0
C560 C 0.90668 0.51376 0.89159 0.0
C561 C 0.889 0.50326 0.87957 0.0
C562 C 0.88124 0.51284 0.86635 0.0
H563 H 0.91477 0.55709 0.87498 0.0
O564 O 0.91035 0.55361 0.78344 0.0
O565 O 0.88545 0.54096 0.81003 0.0
O566 O 0.90538 0.58081 0.81485 0.0
O567 O 0.8928 0.56608 0.85528 0.0
C568 C 0.87888 0.48366 0.87985 0.0
C569 C 0.86136 0.474 0.86667 0.0
H570 H 0.82849 0.46028 0.83809 0.0
H571 H 0.81749 0.47969 0.81462 0.0
H572 H 0.92965 0.54146 0.89908 0.0
H573 H 0.91327 0.507 0.90208 0.0
H574 H 0.88457 0.47586 0.8898 0.0
H575 H 0.85385 0.45893 0.86664 0.0
Mn576 Mn 0.43769 0.33054 0.78912 0.0
Mn577 Mn 0.46001 0.33487 0.85003 0.0
C578 C 0.45832 0.35986 0.80694 0.0
C579 C 0.4364 0.32744 0.74037 0.0
C580 C 0.41904 0.32333 0.84625 0.0
O581 O 0.43419 0.30447 0.79525 0.0
O582 O 0.4527 0.31045 0.83296 0.0
C583 C 0.49388 0.33596 0.82815 0.0
N584 N 0.48582 0.34389 0.84339 0.0
C585 C 0.51569 0.36968 0.85607 0.0
C586 C 0.52431 0.36169 0.84074 0.0
C587 C 0.51336 0.3448 0.82662 0.0
C588 C 0.49622 0.36023 0.85681 0.0
H589 H 0.4855 0.32302 0.81717 0.0
C590 C 0.44235 0.2997 0.8134 0.0
O591 O 0.4215 0.32237 0.75513 0.0
O592 O 0.45191 0.33375 0.75399 0.0
N593 N 0.46803 0.35808 0.86862 0.0
C594 C 0.45753 0.36442 0.88119 0.0
C595 C 0.46637 0.38143 0.89564 0.0
C596 C 0.48587 0.39164 0.89725 0.0
C597 C 0.49637 0.38476 0.88433 0.0
C598 C 0.4868 0.3677 0.87033 0.0
H599 H 0.44254 0.35657 0.88019 0.0
O600 O 0.44592 0.35787 0.78867 0.0
O601 O 0.45829 0.34476 0.81388 0.0
O602 O 0.41862 0.32566 0.81995 0.0
O603 O 0.43358 0.32579 0.8592 0.0
C604 C 0.51597 0.39428 0.88448 0.0
C605 C 0.52562 0.3868 0.87023 0.0
H606 H 0.53933 0.3685 0.83944 0.0
H607 H 0.51991 0.33861 0.81458 0.0
H608 H 0.45817 0.38665 0.90555 0.0
H609 H 0.49263 0.40479 0.9083 0.0
H610 H 0.52376 0.4075 0.89516 0.0
H611 H 0.54068 0.39442 0.87007 0.0
Mn612 Mn 0.66824 0.10941 0.78702 0.0
Mn613 Mn 0.66195 0.12463 0.84942 0.0
C614 C 0.63847 0.09907 0.80439 0.0
C615 C 0.67159 0.1121 0.73835 0.0
C616 C 0.67454 0.09622 0.84366 0.0
O617 O 0.69357 0.1326 0.79404 0.0
O618 O 0.68702 0.14219 0.83445 0.0
C619 C 0.66202 0.15842 0.82937 0.0
N620 N 0.65346 0.14193 0.84337 0.0
C621 C 0.62751 0.14597 0.85505 0.0
C622 C 0.63614 0.16309 0.84101 0.0
C623 C 0.65343 0.1693 0.82802 0.0
C624 C 0.63673 0.13573 0.85568 0.0
H625 H 0.67526 0.16319 0.81924 0.0
C626 C 0.698 0.14418 0.81423 0.0
O627 O 0.67733 0.10269 0.75276 0.0
O628 O 0.66449 0.12046 0.75229 0.0
N629 N 0.63813 0.10908 0.86614 0.0
C630 C 0.6312 0.0918 0.87745 0.0
C631 C 0.61384 0.08342 0.89089 0.0
C632 C 0.60384 0.09292 0.89267 0.0
C633 C 0.61125 0.11069 0.88087 0.0
C634 C 0.62869 0.11841 0.86797 0.0
H635 H 0.6388 0.08444 0.87612 0.0
O636 O 0.64128 0.08934 0.78583 0.0
O637 O 0.65307 0.11433 0.8122 0.0
O638 O 0.67412 0.09549 0.81702 0.0
O639 O 0.67026 0.10657 0.85787 0.0
C640 C 0.60192 0.12095 0.8811 0.0
C641 C 0.60999 0.13853 0.86805 0.0
H642 H 0.62954 0.1715 0.83985 0.0
H643 H 0.66012 0.18243 0.81696 0.0
H644 H 0.60817 0.06967 0.89983 0.0
H645 H 0.59043 0.08637 0.90296 0.0
H646 H 0.58841 0.11534 0.89089 0.0
H647 H 0.60254 0.14614 0.86794 0.0
Mn648 Mn 0.44038 0.11238 0.28907 0.0
Mn649 Mn 0.46044 0.12847 0.35218 0.0
C650 C 0.46152 0.10442 0.30726 0.0
C651 C 0.43987 0.11481 0.24031 0.0
C652 C 0.42057 0.09743 0.34516 0.0
O653 O 0.43573 0.13416 0.29573 0.0
O654 O 0.45081 0.14418 0.33686 0.0
C655 C 0.49239 0.16419 0.33342 0.0
N656 N 0.48566 0.14771 0.34719 0.0
C657 C 0.51636 0.15542 0.3621 0.0
C658 C 0.52362 0.17257 0.34832 0.0
C659 C 0.51158 0.17691 0.33375 0.0
C660 C 0.49715 0.14323 0.36078 0.0
H661 H 0.48318 0.16758 0.32226 0.0
C662 C 0.44166 0.14553 0.31632 0.0
O663 O 0.42484 0.10448 0.2545 0.0
O664 O 0.45509 0.12429 0.25452 0.0
N665 N 0.47061 0.11473 0.36945 0.0
C666 C 0.46152 0.09723 0.38037 0.0
C667 C 0.47163 0.09047 0.39487 0.0
C668 C 0.49093 0.10186 0.39833 0.0
C669 C 0.49994 0.11988 0.38713 0.0
C670 C 0.48916 0.12581 0.37276 0.0
H671 H 0.4467 0.08846 0.37787 0.0
O672 O 0.4496 0.09406 0.28839 0.0
O673 O 0.46066 0.11894 0.31492 0.0
O674 O 0.42062 0.09708 0.31851 0.0
O675 O 0.43468 0.1085 0.35978 0.0
C676 C 0.51922 0.13216 0.38955 0.0
C677 C 0.52745 0.14989 0.37693 0.0
H678 H 0.5384 0.18245 0.34863 0.0
H679 H 0.51708 0.19007 0.32291 0.0
H680 H 0.46457 0.07653 0.40341 0.0
H681 H 0.49869 0.09659 0.40949 0.0
H682 H 0.52792 0.128 0.40068 0.0
H683 H 0.54234 0.15907 0.3785 0.0
Mn684 Mn 0.88828 0.32771 0.28664 0.0
Mn685 Mn 0.87266 0.33138 0.35029 0.0
C686 C 0.89642 0.35675 0.3054 0.0
C687 C 0.88537 0.32499 0.23788 0.0
C688 C 0.90342 0.32225 0.34212 0.0
O689 O 0.86656 0.30127 0.29326 0.0
O690 O 0.85668 0.30615 0.33468 0.0
C691 C 0.83698 0.32809 0.33251 0.0
N692 N 0.85356 0.33763 0.34607 0.0
C693 C 0.84624 0.36073 0.36192 0.0
C694 C 0.82898 0.35104 0.34839 0.0
C695 C 0.82439 0.33472 0.33345 0.0
C696 C 0.85828 0.35355 0.36 0.0
H697 H 0.8334 0.31553 0.32106 0.0
C698 C 0.85526 0.29575 0.31394 0.0
O699 O 0.89582 0.3202 0.25156 0.0
O700 O 0.8761 0.33074 0.2526 0.0
N701 N 0.88671 0.35518 0.3678 0.0
C702 C 0.90431 0.36342 0.3783 0.0
C703 C 0.91135 0.38027 0.39299 0.0
C704 C 0.90013 0.38832 0.39704 0.0
C705 C 0.88201 0.37949 0.38625 0.0
C706 C 0.8758 0.36279 0.37167 0.0
H707 H 0.91294 0.35725 0.37534 0.0
O708 O 0.90663 0.35527 0.28619 0.0
O709 O 0.88197 0.34131 0.31306 0.0
O710 O 0.90373 0.32296 0.31548 0.0
O711 O 0.89248 0.32526 0.35712 0.0
C712 C 0.86989 0.38664 0.38927 0.0
C713 C 0.85204 0.3773 0.37703 0.0
H714 H 0.81921 0.35607 0.34916 0.0
H715 H 0.81116 0.32723 0.32279 0.0
H716 H 0.92536 0.38701 0.40121 0.0
H717 H 0.90561 0.40132 0.40835 0.0
H718 H 0.87428 0.39949 0.40056 0.0
H719 H 0.84297 0.38312 0.37908 0.0
Mn720 Mn 0.6683 0.56077 0.28999 0.0
Mn721 Mn 0.66306 0.53938 0.35213 0.0
C722 C 0.6388 0.5413 0.30816 0.0
C723 C 0.67105 0.56095 0.24124 0.0
C724 C 0.67551 0.58045 0.34656 0.0
O725 O 0.69386 0.56327 0.29634 0.0
O726 O 0.68777 0.54657 0.3361 0.0
C727 C 0.66228 0.50532 0.33171 0.0
N728 N 0.65413 0.5135 0.34613 0.0
C729 C 0.62806 0.48372 0.35841 0.0
C730 C 0.63626 0.47497 0.3439 0.0
C731 C 0.65341 0.48583 0.33041 0.0
C732 C 0.63755 0.5032 0.35896 0.0
H733 H 0.67542 0.51362 0.3212 0.0
C734 C 0.69854 0.55591 0.3159 0.0
O735 O 0.67706 0.57629 0.2553 0.0
O736 O 0.66408 0.54566 0.25557 0.0
N737 N 0.63963 0.5315 0.36988 0.0
C738 C 0.6332 0.5421 0.38185 0.0
C739 C 0.61601 0.53337 0.39577 0.0
C740 C 0.6057 0.51387 0.39745 0.0
C741 C 0.61267 0.50326 0.38517 0.0
C742 C 0.62994 0.51273 0.37173 0.0
H743 H 0.64112 0.55709 0.38076 0.0
O744 O 0.64128 0.55367 0.2895 0.0
O745 O 0.65357 0.5408 0.31547 0.0
O746 O 0.67425 0.58065 0.31997 0.0
O747 O 0.6719 0.56586 0.36045 0.0
C748 C 0.60306 0.48366 0.38544 0.0
C749 C 0.6107 0.47389 0.37194 0.0
H750 H 0.62943 0.45994 0.34279 0.0
H751 H 0.65976 0.47918 0.31902 0.0
H752 H 0.61072 0.54166 0.40519 0.0
H753 H 0.59241 0.5072 0.40809 0.0
H754 H 0.58968 0.47594 0.39566 0.0
H755 H 0.60304 0.45882 0.3719 0.0
Mn756 Mn 0.44209 0.10671 0.89029 0.0
Mn757 Mn 0.45971 0.12916 0.82933 0.0
C758 C 0.43336 0.12743 0.8732 0.0
C759 C 0.44465 0.10558 0.93896 0.0
C760 C 0.42991 0.08831 0.8331 0.0
O761 O 0.46433 0.10286 0.88323 0.0
O762 O 0.47676 0.12151 0.84567 0.0
C763 C 0.49288 0.16277 0.85103 0.0
N764 N 0.47676 0.15491 0.8361 0.0
C765 C 0.48102 0.18495 0.82414 0.0
C766 C 0.49776 0.19338 0.83919 0.0
C767 C 0.50367 0.18223 0.85277 0.0
C768 C 0.47086 0.16549 0.82316 0.0
H769 H 0.49742 0.15423 0.86157 0.0
C770 C 0.47712 0.11093 0.86485 0.0
O771 O 0.43445 0.09062 0.92446 0.0
O772 O 0.45374 0.121 0.92512 0.0
N773 N 0.44458 0.13747 0.81133 0.0
C774 C 0.42769 0.12715 0.79881 0.0
C775 C 0.4196 0.13619 0.78473 0.0
C776 C 0.42902 0.15571 0.78344 0.0
C777 C 0.44645 0.16603 0.79628 0.0
C778 C 0.45387 0.15626 0.80985 0.0
H779 H 0.42045 0.11214 0.79957 0.0
O780 O 0.42317 0.11509 0.89169 0.0
O781 O 0.44835 0.12739 0.86573 0.0
O782 O 0.42738 0.08775 0.8595 0.0
O783 O 0.44204 0.10283 0.82017 0.0
C784 C 0.45664 0.18563 0.79646 0.0
C785 C 0.47387 0.19509 0.81049 0.0
H786 H 0.50609 0.20839 0.84065 0.0
H787 H 0.51651 0.18863 0.86457 0.0
H788 H 0.40615 0.12813 0.77488 0.0
H789 H 0.42269 0.16262 0.77266 0.0
H790 H 0.45123 0.19357 0.78619 0.0
H791 H 0.48142 0.21015 0.81088 0.0
Mn792 Mn 0.89396 0.33818 0.88776 0.0
Mn793 Mn 0.87564 0.33692 0.82407 0.0
C794 C 0.87157 0.31013 0.86854 0.0
C795 C 0.89399 0.34069 0.93658 0.0
C796 C 0.91378 0.34143 0.83182 0.0
O797 O 0.90103 0.36538 0.88196 0.0
O798 O 0.8883 0.36255 0.83927 0.0
C799 C 0.84677 0.34551 0.84269 0.0
N800 N 0.85154 0.3341 0.82908 0.0
C801 C 0.81981 0.31347 0.81542 0.0
C802 C 0.81455 0.32504 0.82918 0.0
C803 C 0.82808 0.34109 0.84298 0.0
C804 C 0.83861 0.31851 0.81606 0.0
H805 H 0.85715 0.3579 0.85321 0.0
C806 C 0.89752 0.37221 0.86043 0.0
O807 O 0.90891 0.34425 0.92287 0.0
O808 O 0.87922 0.33625 0.92187 0.0
N809 N 0.86294 0.31304 0.80648 0.0
C810 C 0.87028 0.30322 0.7946 0.0
C811 C 0.85856 0.28665 0.78022 0.0
C812 C 0.8395 0.28056 0.77776 0.0
C813 C 0.83235 0.29111 0.78965 0.0
C814 C 0.84468 0.30747 0.8038 0.0
H815 H 0.88496 0.30796 0.79617 0.0
O816 O 0.88275 0.31043 0.88773 0.0
O817 O 0.87377 0.32617 0.8612 0.0
O818 O 0.91351 0.34122 0.85854 0.0
O819 O 0.90018 0.33952 0.81693 0.0
C820 C 0.81345 0.28603 0.7881 0.0
C821 C 0.80715 0.29711 0.80119 0.0
H822 H 0.80017 0.32172 0.82937 0.0
H823 H 0.82412 0.35007 0.85371 0.0
H824 H 0.86421 0.27863 0.77098 0.0
H825 H 0.83049 0.26775 0.76672 0.0
H826 H 0.80359 0.27349 0.77719 0.0
H827 H 0.79253 0.29289 0.80021 0.0
Mn828 Mn 0.66359 0.55623 0.89145 0.0
Mn829 Mn 0.66816 0.53876 0.83012 0.0
C830 C 0.69293 0.56551 0.87342 0.0
C831 C 0.66069 0.55417 0.9402 0.0
C832 C 0.65658 0.5681 0.83444 0.0
O833 O 0.63768 0.53349 0.88528 0.0
O834 O 0.64361 0.52158 0.8468 0.0
C835 C 0.66903 0.5058 0.85172 0.0
N836 N 0.67709 0.52189 0.83671 0.0
C837 C 0.70298 0.51789 0.82443 0.0
C838 C 0.69488 0.50119 0.83956 0.0
C839 C 0.67787 0.49516 0.85335 0.0
C840 C 0.69354 0.52791 0.82359 0.0
H841 H 0.65599 0.50116 0.86242 0.0
C842 C 0.63287 0.52086 0.86658 0.0
O843 O 0.65509 0.56369 0.92573 0.0
O844 O 0.6673 0.54537 0.92628 0.0
N845 N 0.69144 0.55399 0.81176 0.0
C846 C 0.69777 0.5708 0.79911 0.0
C847 C 0.7148 0.57898 0.78476 0.0
C848 C 0.72505 0.56972 0.78335 0.0
C849 C 0.71818 0.55236 0.79634 0.0
C850 C 0.70106 0.54484 0.81017 0.0
H851 H 0.68989 0.57792 0.79995 0.0
O852 O 0.69074 0.57569 0.8919 0.0
O853 O 0.678 0.55028 0.8664 0.0
O854 O 0.65843 0.57037 0.86088 0.0
O855 O 0.65927 0.55628 0.82116 0.0
C856 C 0.72773 0.54232 0.79637 0.0
C857 C 0.72019 0.52515 0.81054 0.0
H858 H 0.70168 0.49297 0.84093 0.0
H859 H 0.67159 0.48234 0.86521 0.0
H860 H 0.72001 0.59238 0.77479 0.0
H861 H 0.73821 0.57611 0.77236 0.0
H862 H 0.741 0.54778 0.78588 0.0
H863 H 0.72781 0.51771 0.8108 0.0
Mn864 Mn 0.56123 0.88865 0.72165 0.0
Mn865 Mn 0.54013 0.87327 0.6591 0.0
C866 C 0.54281 0.89981 0.70311 0.0
C867 C 0.56076 0.88578 0.77042 0.0
C868 C 0.58146 0.90078 0.66548 0.0
O869 O 0.56275 0.86504 0.71531 0.0
O870 O 0.54613 0.85494 0.67538 0.0
C871 C 0.50513 0.84079 0.67876 0.0
N872 N 0.51403 0.85715 0.66448 0.0
C873 C 0.48496 0.85488 0.65155 0.0
C874 C 0.47547 0.83791 0.66588 0.0
C875 C 0.48561 0.83087 0.67963 0.0
C876 C 0.50442 0.86413 0.65138 0.0
H877 H 0.51287 0.8354 0.6895 0.0
C878 C 0.55508 0.85305 0.69575 0.0
O879 O 0.57631 0.89477 0.75677 0.0
O880 O 0.54564 0.87795 0.75567 0.0
N881 N 0.53337 0.88965 0.64112 0.0
C882 C 0.54464 0.90665 0.62947 0.0
C883 C 0.53669 0.91583 0.61544 0.0
C884 C 0.51726 0.9074 0.61336 0.0
C885 C 0.50595 0.88983 0.62531 0.0
C886 C 0.51467 0.88128 0.63883 0.0
H887 H 0.55958 0.91316 0.63091 0.0
O888 O 0.55514 0.90928 0.72205 0.0
O889 O 0.54169 0.88425 0.69577 0.0
O890 O 0.58152 0.90223 0.69207 0.0
O891 O 0.56685 0.89011 0.65139 0.0
C892 C 0.48637 0.88059 0.62469 0.0
C893 C 0.47588 0.86317 0.63789 0.0
H894 H 0.46042 0.83025 0.6667 0.0
H895 H 0.47839 0.81785 0.69091 0.0
H896 H 0.54551 0.92939 0.60629 0.0
H897 H 0.51118 0.91459 0.6027 0.0
H898 H 0.47923 0.88689 0.61447 0.0
H899 H 0.46084 0.85635 0.63768 0.0
Mn900 Mn 0.11443 0.67497 0.72264 0.0
Mn901 Mn 0.12906 0.66936 0.65925 0.0
C902 C 0.10514 0.64544 0.70541 0.0
C903 C 0.11758 0.67848 0.77128 0.0
C904 C 0.09868 0.679 0.66646 0.0
O905 O 0.13667 0.70087 0.71508 0.0
O906 O 0.14484 0.69522 0.67277 0.0
C907 C 0.16509 0.67376 0.67753 0.0
N908 N 0.14835 0.6635 0.66464 0.0
C909 C 0.15514 0.63921 0.65374 0.0
C910 C 0.1725 0.64956 0.66677 0.0
C911 C 0.17748 0.66689 0.67877 0.0
C912 C 0.14339 0.64677 0.65316 0.0
H913 H 0.16894 0.68706 0.68683 0.0
C914 C 0.14689 0.70606 0.69321 0.0
O915 O 0.10748 0.68355 0.75722 0.0
O916 O 0.12645 0.67209 0.75697 0.0
N917 N 0.11511 0.64502 0.64337 0.0
C918 C 0.09768 0.6366 0.63218 0.0
C919 C 0.09054 0.6191 0.61943 0.0
C920 C 0.10143 0.61052 0.61808 0.0
C921 C 0.11941 0.61956 0.62941 0.0
C922 C 0.12586 0.63707 0.6416 0.0
H923 H 0.08929 0.64317 0.63305 0.0
O924 O 0.09536 0.6478 0.7244 0.0
O925 O 0.11997 0.66035 0.69705 0.0
O926 O 0.09915 0.67959 0.69314 0.0
O927 O 0.10903 0.67497 0.65177 0.0
C928 C 0.13111 0.6118 0.62938 0.0
C929 C 0.14893 0.62158 0.64164 0.0
H930 H 0.18208 0.64429 0.66782 0.0
H931 H 0.19082 0.67492 0.68897 0.0
H932 H 0.07666 0.61222 0.6107 0.0
H933 H 0.09583 0.59698 0.60836 0.0
H934 H 0.12645 0.59821 0.6203 0.0
H935 H 0.15771 0.61537 0.64179 0.0
Mn936 Mn 0.32946 0.43981 0.72258 0.0
Mn937 Mn 0.33562 0.46181 0.6607 0.0
C938 C 0.3592 0.45957 0.70565 0.0
C939 C 0.32572 0.43906 0.77119 0.0
C940 C 0.32346 0.42077 0.66573 0.0
O941 O 0.30394 0.43718 0.71516 0.0
O942 O 0.31073 0.45456 0.67601 0.0
C943 C 0.33616 0.49577 0.68101 0.0
N944 N 0.34448 0.48765 0.66686 0.0
C945 C 0.37068 0.51749 0.65515 0.0
C946 C 0.36231 0.52617 0.66938 0.0
C947 C 0.34501 0.51526 0.68245 0.0
C948 C 0.36119 0.49801 0.65441 0.0
H949 H 0.32291 0.48742 0.69119 0.0
C950 C 0.29962 0.44492 0.69571 0.0
O951 O 0.32036 0.42393 0.75685 0.0
O952 O 0.33265 0.45448 0.7572 0.0
N953 N 0.35927 0.46977 0.64362 0.0
C954 C 0.36585 0.45922 0.63189 0.0
C955 C 0.3832 0.46801 0.61843 0.0
C956 C 0.39353 0.48752 0.61695 0.0
C957 C 0.3864 0.49807 0.62896 0.0
C958 C 0.36896 0.48854 0.6419 0.0
H959 H 0.35794 0.44422 0.63284 0.0
O960 O 0.35647 0.44711 0.72427 0.0
O961 O 0.34456 0.46013 0.69773 0.0
O962 O 0.32438 0.42029 0.69233 0.0
O963 O 0.32694 0.43542 0.65214 0.0
C964 C 0.39603 0.51767 0.62894 0.0
C965 C 0.38821 0.52737 0.64212 0.0
H966 H 0.36912 0.54119 0.67062 0.0
H967 H 0.33853 0.52185 0.69363 0.0
H968 H 0.38861 0.45977 0.60922 0.0
H969 H 0.40694 0.49424 0.60668 0.0
H970 H 0.40958 0.52543 0.6192 0.0
H971 H 0.39588 0.54244 0.64235 0.0
Mn972 Mn 0.55583 0.89229 0.12108 0.0
Mn973 Mn 0.54007 0.87126 0.1836 0.0
C974 C 0.5659 0.87286 0.13925 0.0
C975 C 0.55305 0.89217 0.07232 0.0
C976 C 0.56882 0.91222 0.17741 0.0
O977 O 0.53279 0.89478 0.12756 0.0
O978 O 0.52258 0.87856 0.16777 0.0
C979 C 0.50641 0.83722 0.1641 0.0
N980 N 0.52291 0.84538 0.17808 0.0
C981 C 0.51912 0.81558 0.19046 0.0
C982 C 0.50202 0.80686 0.17639 0.0
C983 C 0.49567 0.81773 0.16308 0.0
C984 C 0.5292 0.83505 0.19082 0.0
H985 H 0.50153 0.84554 0.15375 0.0
C986 C 0.52095 0.88768 0.14741 0.0
O987 O 0.56248 0.9076 0.08616 0.0
O988 O 0.54473 0.87699 0.08688 0.0
N989 N 0.55565 0.86331 0.20113 0.0
C990 C 0.57284 0.87388 0.21259 0.0
C991 C 0.5814 0.86512 0.22618 0.0
C992 C 0.57214 0.84562 0.22801 0.0
C993 C 0.55438 0.83505 0.21627 0.0
C994 C 0.54649 0.84455 0.20319 0.0
H995 H 0.58001 0.88887 0.2113 0.0
O996 O 0.57572 0.88517 0.12047 0.0
O997 O 0.55067 0.87238 0.14674 0.0
O998 O 0.56999 0.91235 0.15078 0.0
O999 O 0.55793 0.8977 0.19147 0.0
C1000 C 0.54432 0.81545 0.21664 0.0
C1001 C 0.52673 0.80572 0.20367 0.0
H1002 H 0.49373 0.79183 0.17544 0.0
H1003 H 0.48254 0.8111 0.15203 0.0
H1004 H 0.59511 0.87337 0.23517 0.0
H1005 H 0.57884 0.83891 0.23832 0.0
H1006 H 0.55011 0.80771 0.22649 0.0
H1007 H 0.51927 0.79065 0.20372 0.0
Mn1008 Mn 0.10307 0.65969 0.12075 0.0
Mn1009 Mn 0.11964 0.6594 0.18525 0.0
C1010 C 0.12457 0.68731 0.14211 0.0
C1011 C 0.10427 0.65858 0.07187 0.0
C1012 C 0.08183 0.65519 0.17577 0.0
O1013 O 0.09615 0.63244 0.12497 0.0
O1014 O 0.10696 0.63412 0.16872 0.0
C1015 C 0.14843 0.65052 0.16728 0.0
N1016 N 0.14362 0.66179 0.18124 0.0
C1017 C 0.17498 0.68126 0.19746 0.0
C1018 C 0.18027 0.66982 0.18337 0.0
C1019 C 0.16695 0.65443 0.1681 0.0
C1020 C 0.15637 0.67677 0.19565 0.0
H1021 H 0.13821 0.63862 0.15568 0.0
C1022 C 0.09864 0.62502 0.1467 0.0
O1023 O 0.08898 0.65445 0.08494 0.0
O1024 O 0.11873 0.6628 0.08724 0.0
N1025 N 0.13228 0.68275 0.20433 0.0
C1026 C 0.12496 0.69258 0.21629 0.0
C1027 C 0.13653 0.70857 0.23199 0.0
C1028 C 0.15536 0.71405 0.23573 0.0
C1029 C 0.16246 0.70346 0.22375 0.0
C1030 C 0.15031 0.68774 0.20818 0.0
H1031 H 0.11044 0.68828 0.21378 0.0
O1032 O 0.11382 0.68732 0.12246 0.0
O1033 O 0.12256 0.6712 0.14864 0.0
O1034 O 0.08265 0.65556 0.14908 0.0
O1035 O 0.09517 0.65716 0.19138 0.0
C1036 C 0.18113 0.70792 0.22659 0.0
C1037 C 0.18743 0.69694 0.21321 0.0
H1038 H 0.19452 0.67274 0.18407 0.0
H1039 H 0.17093 0.64556 0.15712 0.0
H1040 H 0.13092 0.71661 0.24128 0.0
H1041 H 0.16424 0.7264 0.24782 0.0
H1042 H 0.1908 0.71988 0.23876 0.0
H1043 H 0.20189 0.70069 0.21519 0.0
Mn1044 Mn 0.33852 0.44604 0.1215 0.0
Mn1045 Mn 0.3379 0.46579 0.18281 0.0
C1046 C 0.31034 0.43904 0.14213 0.0
C1047 C 0.33984 0.44705 0.07256 0.0
C1048 C 0.34761 0.43509 0.17746 0.0
O1049 O 0.36529 0.46789 0.1254 0.0
O1050 O 0.36147 0.48209 0.16305 0.0
C1051 C 0.33677 0.49882 0.16213 0.0
N1052 N 0.32933 0.48309 0.17795 0.0
C1053 C 0.30578 0.48905 0.19602 0.0
C1054 C 0.31335 0.50547 0.18023 0.0
C1055 C 0.32882 0.51029 0.16303 0.0
C1056 C 0.31419 0.4781 0.19407 0.0
H1057 H 0.34865 0.50254 0.14891 0.0
C1058 C 0.37115 0.48146 0.14269 0.0
O1059 O 0.34472 0.43686 0.0868 0.0
O1060 O 0.33466 0.45699 0.08676 0.0
N1061 N 0.31563 0.4514 0.20394 0.0
C1062 C 0.30933 0.43455 0.21644 0.0
C1063 C 0.29335 0.4272 0.23326 0.0
C1064 C 0.28418 0.43737 0.23739 0.0
C1065 C 0.29105 0.45478 0.22456 0.0
C1066 C 0.30695 0.46133 0.20788 0.0
H1067 H 0.31645 0.42678 0.21361 0.0
O1068 O 0.31092 0.42797 0.12353 0.0
O1069 O 0.32608 0.45378 0.14769 0.0
O1070 O 0.34368 0.43162 0.15159 0.0
O1071 O 0.34668 0.44804 0.1905 0.0
C1072 C 0.28268 0.46585 0.22754 0.0
C1073 C 0.29008 0.483 0.21334 0.0
H1074 H 0.30727 0.51437 0.18092 0.0
H1075 H 0.33464 0.52285 0.15059 0.0
H1076 H 0.28815 0.41377 0.24312 0.0
H1077 H 0.27186 0.43166 0.25038 0.0
H1078 H 0.27041 0.46119 0.2404 0.0
H1079 H 0.28338 0.49127 0.21549 0.0
Mn1080 Mn 0.10436 0.44406 0.62356 0.0
Mn1081 Mn 0.12313 0.46053 0.68721 0.0
C1082 C 0.12602 0.43726 0.64263 0.0
C1083 C 0.10455 0.4466 0.57471 0.0
C1084 C 0.08441 0.42779 0.67953 0.0
O1085 O 0.09857 0.4651 0.6294 0.0
O1086 O 0.11117 0.47424 0.67229 0.0
C1087 C 0.15278 0.49771 0.66877 0.0
N1088 N 0.14753 0.48136 0.68221 0.0
C1089 C 0.17906 0.49162 0.69607 0.0
C1090 C 0.1848 0.5086 0.68247 0.0
C1091 C 0.17161 0.51162 0.66865 0.0
C1092 C 0.16014 0.47821 0.69523 0.0
H1093 H 0.14266 0.50011 0.65827 0.0
C1094 C 0.10234 0.47532 0.65113 0.0
O1095 O 0.08936 0.43586 0.58834 0.0
O1096 O 0.11943 0.45633 0.58952 0.0
N1097 N 0.13525 0.44867 0.70452 0.0
C1098 C 0.12747 0.43139 0.71614 0.0
C1099 C 0.13882 0.42605 0.73046 0.0
C1100 C 0.15796 0.43864 0.73313 0.0
C1101 C 0.16557 0.45646 0.72146 0.0
C1102 C 0.1536 0.46097 0.70731 0.0
H1103 H 0.11273 0.42174 0.71441 0.0
O1104 O 0.1145 0.42658 0.62358 0.0
O1105 O 0.12448 0.45147 0.65001 0.0
O1106 O 0.08445 0.42809 0.65281 0.0
O1107 O 0.09832 0.43903 0.69435 0.0
C1108 C 0.18458 0.46994 0.72329 0.0
C1109 C 0.19135 0.48744 0.71039 0.0
H1110 H 0.19929 0.5194 0.68245 0.0
H1111 H 0.17593 0.52467 0.65805 0.0
H1112 H 0.13282 0.41229 0.7395 0.0
H1113 H 0.16668 0.43446 0.74415 0.0
H1114 H 0.19416 0.46689 0.73424 0.0
H1115 H 0.20605 0.49757 0.71155 0.0
Mn1116 Mn 0.55938 0.66069 0.62241 0.0
Mn1117 Mn 0.54155 0.66366 0.68448 0.0
C1118 C 0.5662 0.68939 0.64033 0.0
C1119 C 0.55736 0.65777 0.57366 0.0
C1120 C 0.57361 0.65621 0.67953 0.0
O1121 O 0.53821 0.63399 0.62853 0.0
O1122 O 0.52713 0.63805 0.66946 0.0
C1123 C 0.50568 0.65831 0.66347 0.0
N1124 N 0.52184 0.66873 0.67773 0.0
C1125 C 0.51355 0.692 0.68832 0.0
C1126 C 0.49676 0.68146 0.67388 0.0
C1127 C 0.49284 0.66457 0.66134 0.0
C1128 C 0.52581 0.68506 0.68972 0.0
H1129 H 0.50266 0.64534 0.65377 0.0
C1130 C 0.5269 0.6279 0.64912 0.0
O1131 O 0.56805 0.65359 0.58801 0.0
O1132 O 0.54743 0.66302 0.58771 0.0
N1133 N 0.55418 0.68768 0.70166 0.0
C1134 C 0.57119 0.69636 0.7142 0.0
C1135 C 0.5773 0.71349 0.72767 0.0
C1136 C 0.5658 0.72142 0.72831 0.0
C1137 C 0.54827 0.71212 0.71551 0.0
C1138 C 0.54286 0.695 0.70267 0.0
H1139 H 0.58003 0.69027 0.7139 0.0
O1140 O 0.57703 0.68826 0.62189 0.0
O1141 O 0.55178 0.67377 0.64764 0.0
O1142 O 0.57476 0.65698 0.65287 0.0
O1143 O 0.56185 0.6587 0.6933 0.0
C1144 C 0.53604 0.71925 0.71474 0.0
C1145 C 0.51872 0.70924 0.70105 0.0
H1146 H 0.48683 0.68626 0.67214 0.0
H1147 H 0.47994 0.6564 0.65006 0.0
H1148 H 0.59084 0.72057 0.73754 0.0
H1149 H 0.57059 0.73465 0.73865 0.0
H1150 H 0.5399 0.73252 0.72433 0.0
H1151 H 0.50953 0.71497 0.7003 0.0
Mn1152 Mn 0.34281 0.89972 0.61783 0.0
Mn1153 Mn 0.34035 0.87945 0.68027 0.0
C1154 C 0.3143 0.87762 0.63597 0.0
C1155 C 0.34562 0.90037 0.569 0.0
C1156 C 0.3469 0.91863 0.67477 0.0
O1157 O 0.36965 0.90571 0.62388 0.0
O1158 O 0.36598 0.89111 0.66521 0.0
C1159 C 0.34666 0.84939 0.65989 0.0
N1160 N 0.33594 0.85484 0.67399 0.0
C1161 C 0.3134 0.82315 0.68529 0.0
C1162 C 0.32425 0.8172 0.67103 0.0
C1163 C 0.34093 0.83038 0.65822 0.0
C1164 C 0.31984 0.84228 0.68629 0.0
H1165 H 0.35946 0.85949 0.64997 0.0
C1166 C 0.37596 0.9009 0.64467 0.0
O1167 O 0.34958 0.91526 0.58316 0.0
O1168 O 0.34064 0.88532 0.58326 0.0
N1169 N 0.31635 0.86764 0.69752 0.0
C1170 C 0.30721 0.87565 0.70958 0.0
C1171 C 0.29011 0.86436 0.72297 0.0
C1172 C 0.2827 0.84501 0.72404 0.0
C1173 C 0.29251 0.83712 0.71183 0.0
C1174 C 0.30955 0.84908 0.699 0.0
H1175 H 0.31288 0.89053 0.70889 0.0
O1176 O 0.31521 0.88942 0.61738 0.0
O1177 O 0.33003 0.87908 0.64333 0.0
O1178 O 0.34626 0.91891 0.64808 0.0
O1179 O 0.34462 0.9045 0.68869 0.0
C1180 C 0.2859 0.81783 0.71149 0.0
C1181 C 0.29631 0.81085 0.69816 0.0
H1182 H 0.31985 0.80254 0.66961 0.0
H1183 H 0.34933 0.82588 0.64707 0.0
H1184 H 0.28264 0.87056 0.73237 0.0
H1185 H 0.26944 0.83633 0.73417 0.0
H1186 H 0.2727 0.80822 0.72108 0.0
H1187 H 0.29097 0.79598 0.69771 0.0
Mn1188 Mn 0.10831 0.43864 0.22372 0.0
Mn1189 Mn 0.12383 0.45944 0.16098 0.0
C1190 C 0.09735 0.45714 0.20475 0.0
C1191 C 0.11107 0.4392 0.27256 0.0
C1192 C 0.0961 0.41821 0.16761 0.0
O1193 O 0.13189 0.43702 0.21777 0.0
O1194 O 0.14189 0.45315 0.17745 0.0
C1195 C 0.15659 0.49427 0.18051 0.0
N1196 N 0.14022 0.48551 0.16625 0.0
C1197 C 0.14294 0.51475 0.15307 0.0
C1198 C 0.15992 0.52409 0.16741 0.0
C1199 C 0.16674 0.51379 0.18127 0.0
C1200 C 0.13346 0.49527 0.15304 0.0
H1201 H 0.16184 0.4864 0.19128 0.0
C1202 C 0.1438 0.44437 0.19805 0.0
O1203 O 0.10206 0.42363 0.25894 0.0
O1204 O 0.11894 0.4543 0.25775 0.0
N1205 N 0.10773 0.46645 0.14278 0.0
C1206 C 0.09076 0.45532 0.13095 0.0
C1207 C 0.08183 0.46345 0.11667 0.0
C1208 C 0.09049 0.4829 0.1145 0.0
C1209 C 0.10802 0.49406 0.12663 0.0
C1210 C 0.11631 0.48518 0.14041 0.0
H1211 H 0.08408 0.44036 0.13244 0.0
O1212 O 0.08779 0.44488 0.22372 0.0
O1213 O 0.11287 0.45814 0.19759 0.0
O1214 O 0.09476 0.41823 0.19422 0.0
O1215 O 0.10674 0.43276 0.15341 0.0
C1216 C 0.1175 0.51366 0.1259 0.0
C1217 C 0.1349 0.52399 0.13921 0.0
H1218 H 0.16775 0.53914 0.16812 0.0
H1219 H 0.17977 0.5209 0.19253 0.0
H1220 H 0.06829 0.45474 0.10737 0.0
H1221 H 0.0835 0.48911 0.10361 0.0
H1222 H 0.1114 0.52092 0.11548 0.0
H1223 H 0.14191 0.53905 0.13888 0.0
Mn1224 Mn 0.56468 0.67155 0.22418 0.0
Mn1225 Mn 0.54434 0.66738 0.16126 0.0
C1226 C 0.5435 0.64248 0.20658 0.0
C1227 C 0.56545 0.67482 0.27285 0.0
C1228 C 0.58373 0.67498 0.16751 0.0
O1229 O 0.56955 0.69796 0.21739 0.0
O1230 O 0.55579 0.69331 0.17518 0.0
C1231 C 0.51412 0.67366 0.18092 0.0
N1232 N 0.51968 0.66283 0.16739 0.0
C1233 C 0.48803 0.63985 0.15669 0.0
C1234 C 0.48198 0.65081 0.17038 0.0
C1235 C 0.49508 0.66776 0.18261 0.0
C1236 C 0.50718 0.64644 0.15572 0.0
H1237 H 0.52416 0.68668 0.19038 0.0
C1238 C 0.56497 0.70376 0.19574 0.0
O1239 O 0.58041 0.67932 0.25858 0.0
O1240 O 0.5502 0.66909 0.25875 0.0
N1241 N 0.53267 0.6431 0.1449 0.0
C1242 C 0.5408 0.63404 0.13292 0.0
C1243 C 0.52963 0.61685 0.11971 0.0
C1244 C 0.51026 0.60925 0.1187 0.0
C1245 C 0.50223 0.61893 0.13087 0.0
C1246 C 0.51409 0.6361 0.14348 0.0
H1247 H 0.5557 0.63988 0.13348 0.0
O1248 O 0.55552 0.64416 0.22533 0.0
O1249 O 0.54419 0.65779 0.19872 0.0
O1250 O 0.5841 0.67552 0.19421 0.0
O1251 O 0.56943 0.67163 0.15312 0.0
C1252 C 0.48292 0.61214 0.13124 0.0
C1253 C 0.47582 0.62255 0.14426 0.0
H1254 H 0.4673 0.64629 0.17177 0.0
H1255 H 0.49051 0.67626 0.19331 0.0
H1256 H 0.53593 0.60947 0.11032 0.0
H1257 H 0.50168 0.59597 0.10854 0.0
H1258 H 0.47339 0.59883 0.12186 0.0
H1259 H 0.46093 0.61709 0.14469 0.0
Mn1260 Mn 0.32709 0.88869 0.2193 0.0
Mn1261 Mn 0.32878 0.87038 0.15704 0.0
C1262 C 0.35556 0.89644 0.19885 0.0
C1263 C 0.32585 0.8875 0.26827 0.0
C1264 C 0.31874 0.90074 0.16334 0.0
O1265 O 0.30064 0.86635 0.21512 0.0
O1266 O 0.30471 0.85394 0.17557 0.0
C1267 C 0.32897 0.83672 0.17708 0.0
N1268 N 0.3369 0.85271 0.16182 0.0
C1269 C 0.36063 0.84671 0.14469 0.0
C1270 C 0.35255 0.83003 0.15986 0.0
C1271 C 0.33673 0.82509 0.17631 0.0
C1272 C 0.35237 0.85781 0.14647 0.0
H1273 H 0.31685 0.83293 0.1898 0.0
C1274 C 0.29491 0.85355 0.19651 0.0
O1275 O 0.32049 0.89734 0.25415 0.0
O1276 O 0.33134 0.87787 0.25392 0.0
N1277 N 0.35154 0.88488 0.13705 0.0
C1278 C 0.35828 0.90196 0.12509 0.0
C1279 C 0.37461 0.90941 0.10906 0.0
C1280 C 0.38368 0.89912 0.10514 0.0
C1281 C 0.37636 0.88149 0.1174 0.0
C1282 C 0.3601 0.87483 0.13329 0.0
H1283 H 0.35126 0.90984 0.12779 0.0
O1284 O 0.35459 0.90727 0.21751 0.0
O1285 O 0.34 0.88162 0.19286 0.0
O1286 O 0.32141 0.90299 0.18965 0.0
O1287 O 0.32063 0.88863 0.1495 0.0
C1288 C 0.38459 0.87029 0.11459 0.0
C1289 C 0.3767 0.85289 0.12817 0.0
H1290 H 0.35848 0.821 0.15927 0.0
H1291 H 0.33052 0.81233 0.18831 0.0
H1292 H 0.38016 0.92302 0.09964 0.0
H1293 H 0.39627 0.90492 0.09276 0.0
H1294 H 0.39713 0.87504 0.10235 0.0
H1295 H 0.3833 0.84452 0.12616 0.0
C1296 C 0.39977 0.30846 0.88893 0.0
C1297 C 0.40169 0.31679 0.86264 0.0
C1298 C 0.38316 0.30141 0.90393 0.0
C1299 C 0.34986 0.29448 0.93843 0.0
H1300 H 0.30334 0.2715 0.89761 0.0
C1301 C 0.27912 0.26298 0.99584 0.0
C1302 C 0.26424 0.24664 0.98468 0.0
C1303 C 0.29573 0.27305 0.98084 0.0
C1304 C 0.31617 0.27768 0.90943 0.0
H1305 H 0.38777 0.32476 0.83192 0.0
H1306 H 0.35903 0.31311 0.85852 0.0
H1307 H 0.33249 0.28571 0.87214 0.0
H1308 H 0.25524 0.22801 0.949 0.0
H1309 H 0.28423 0.24501 0.92348 0.0
H1310 H 0.33354 0.28545 0.9757 0.0
C1311 C 0.37016 0.31147 0.86723 0.0
C1312 C 0.33299 0.28617 0.89474 0.0
C1313 C 0.38671 0.31828 0.852 0.0
C1314 C 0.26634 0.24064 0.95816 0.0
C1315 C 0.283 0.25052 0.94337 0.0
C1316 C 0.33304 0.28575 0.95311 0.0
C1317 C 0.36806 0.30274 0.8933 0.0
C1318 C 0.3501 0.29456 0.909 0.0
C1319 C 0.29797 0.26687 0.95446 0.0
C1320 C 0.31593 0.27706 0.93884 0.0
H1321 H 0.41095 0.30691 0.89768 0.0
H1322 H 0.38206 0.29447 0.92358 0.0
H1323 H 0.36269 0.30108 0.95026 0.0
H1324 H 0.27792 0.26808 0.01613 0.0
H1325 H 0.30677 0.28573 0.98993 0.0
C1326 C 0.69543 0.08272 0.84765 0.0
C1327 C 0.68122 0.08519 0.85894 0.0
C1328 C 0.70277 0.07348 0.86286 0.0
C1329 C 0.70392 0.05675 0.93547 0.0
H1330 H 0.72742 0.03308 0.89653 0.0
C1331 C 0.74799 0.03169 0.99483 0.0
C1332 C 0.75034 0.01745 0.98334 0.0
C1333 C 0.73833 0.03878 0.98011 0.0
C1334 C 0.72061 0.03923 0.90798 0.0
H1335 H 0.66313 0.07943 0.89464 0.0
H1336 H 0.67479 0.06211 0.92027 0.0
H1337 H 0.71207 0.0462 0.87006 0.0
H1338 H 0.74377 0.99888 0.94805 0.0
H1339 H 0.72568 0.01003 0.92341 0.0
H1340 H 0.71124 0.04855 0.97343 0.0
C1341 C 0.68104 0.06803 0.90029 0.0
C1342 C 0.7121 0.04724 0.89259 0.0
C1343 C 0.67413 0.07779 0.88543 0.0
C1344 C 0.74224 0.00993 0.95736 0.0
C1345 C 0.73206 0.01657 0.94304 0.0
C1346 C 0.71193 0.04824 0.95088 0.0
C1347 C 0.6957 0.06596 0.88948 0.0
C1348 C 0.70387 0.05643 0.90603 0.0
C1349 C 0.73028 0.03142 0.95384 0.0
C1350 C 0.72069 0.03958 0.93741 0.0
H1351 H 0.70136 0.08852 0.82744 0.0
H1352 H 0.71433 0.07273 0.85388 0.0
H1353 H 0.69807 0.06388 0.94687 0.0
H1354 H 0.75433 0.03792 0.01467 0.0
H1355 H 0.73775 0.05044 0.98909 0.0
C1356 C 0.97823 0.71634 0.99651 0.0
C1357 C 0.98614 0.73372 0.98306 0.0
C1358 C 0.97106 0.69989 0.98093 0.0
C1359 C 0.95308 0.68157 0.91024 0.0
H1360 H 0.95692 0.63915 0.93502 0.0
C1361 C 0.92602 0.61516 0.84313 0.0
C1362 C 0.91557 0.59812 0.85719 0.0
C1363 C 0.936 0.63177 0.85811 0.0
C1364 C 0.95563 0.65084 0.92792 0.0
H1365 H 0.99341 0.74737 0.94259 0.0
H1366 H 0.98127 0.71883 0.91562 0.0
H1367 H 0.97199 0.668 0.96195 0.0
H1368 H 0.90794 0.58524 0.8982 0.0
H1369 H 0.92526 0.61416 0.92417 0.0
H1370 H 0.93668 0.66442 0.87631 0.0
C1371 C 0.98017 0.71784 0.93818 0.0
C1372 C 0.96425 0.66738 0.94338 0.0
C1373 C 0.98724 0.73425 0.9537 0.0
C1374 C 0.91576 0.59808 0.8866 0.0
C1375 C 0.9258 0.61467 0.90155 0.0
C1376 C 0.94454 0.66508 0.89476 0.0
C1377 C 0.9717 0.70043 0.95153 0.0
C1378 C 0.96302 0.68293 0.93479 0.0
C1379 C 0.93587 0.63174 0.8875 0.0
C1380 C 0.94563 0.64949 0.90347 0.0
H1381 H 0.97709 0.71538 0.01907 0.0
H1382 H 0.96448 0.68673 0.99193 0.0
H1383 H 0.95152 0.69312 0.90326 0.0
H1384 H 0.92625 0.61575 0.82052 0.0
H1385 H 0.94381 0.64467 0.84665 0.0
C1386 C 0.31858 0.40398 0.62016 0.0
C1387 C 0.31773 0.40345 0.64954 0.0
C1388 C 0.31234 0.38766 0.60466 0.0
C1389 C 0.30009 0.33819 0.60972 0.0
H1390 H 0.27059 0.3327 0.54383 0.0
C1391 C 0.25329 0.26754 0.5554 0.0
C1392 C 0.25166 0.26718 0.5261 0.0
C1393 C 0.26349 0.28439 0.56965 0.0
C1394 C 0.27905 0.3341 0.56189 0.0
H1395 H 0.30995 0.38522 0.68559 0.0
H1396 H 0.29882 0.3567 0.65849 0.0
H1397 H 0.28409 0.36152 0.57042 0.0
H1398 H 0.26026 0.28434 0.48879 0.0
H1399 H 0.27819 0.31372 0.51369 0.0
H1400 H 0.29472 0.31056 0.60137 0.0
C1401 C 0.30455 0.36982 0.64747 0.0
C1402 C 0.28679 0.35065 0.57719 0.0
C1403 C 0.31085 0.38618 0.66302 0.0
C1404 C 0.26114 0.28406 0.51135 0.0
C1405 C 0.27131 0.30093 0.52564 0.0
C1406 C 0.29231 0.3216 0.59442 0.0
C1407 C 0.30501 0.37034 0.61807 0.0
C1408 C 0.29732 0.35288 0.60139 0.0
C1409 C 0.27232 0.30132 0.555 0.0
C1410 C 0.28159 0.31932 0.57041 0.0
H1411 H 0.32397 0.41702 0.60899 0.0
H1412 H 0.31324 0.38864 0.58209 0.0
H1413 H 0.30835 0.33953 0.62802 0.0
H1414 H 0.24626 0.25484 0.56751 0.0
H1415 H 0.26384 0.28418 0.59227 0.0
C1416 C 0.59931 0.91198 0.62054 0.0
C1417 C 0.59922 0.9117 0.64996 0.0
C1418 C 0.61601 0.92158 0.60576 0.0
C1419 C 0.6662 0.93894 0.61272 0.0
H1420 H 0.66994 0.967 0.54584 0.0
C1421 C 0.73561 0.98072 0.55373 0.0
C1422 C 0.73503 0.97986 0.52435 0.0
C1423 C 0.71924 0.97376 0.56933 0.0
C1424 C 0.66908 0.95907 0.56432 0.0
H1425 H 0.61676 0.92165 0.68681 0.0
H1426 H 0.64591 0.93843 0.66094 0.0
H1427 H 0.64109 0.95249 0.57273 0.0
H1428 H 0.71665 0.97127 0.4884 0.0
H1429 H 0.68808 0.9589 0.51565 0.0
H1430 H 0.69402 0.94522 0.60416 0.0
C1431 C 0.63301 0.93105 0.64936 0.0
C1432 C 0.65255 0.95078 0.57976 0.0
C1433 C 0.61628 0.92152 0.66419 0.0
C1434 C 0.71765 0.97223 0.51097 0.0
C1435 C 0.70125 0.9652 0.52662 0.0
C1436 C 0.6827 0.94718 0.59725 0.0
C1437 C 0.63308 0.93109 0.61996 0.0
C1438 C 0.65088 0.94054 0.60409 0.0
C1439 C 0.70182 0.96567 0.55602 0.0
C1440 C 0.68435 0.9573 0.57279 0.0
H1441 H 0.58648 0.90464 0.60881 0.0
H1442 H 0.61557 0.92114 0.58314 0.0
H1443 H 0.6653 0.93091 0.63108 0.0
H1444 H 0.74872 0.98665 0.5648 0.0
H1445 H 0.72026 0.97471 0.59189 0.0
C1446 C 0.02282 0.74022 0.51403 0.0
C1447 C 0.01722 0.75154 0.52793 0.0
C1448 C 0.02974 0.73053 0.52904 0.0
C1449 C 0.03214 0.71371 0.59992 0.0
H1450 H 0.07645 0.71523 0.57083 0.0
C1451 C 0.07796 0.69309 0.66532 0.0
C1452 C 0.0863 0.6842 0.65139 0.0
C1453 C 0.06789 0.69965 0.65039 0.0
C1454 C 0.06391 0.71439 0.57908 0.0
H1455 H 0.01404 0.76103 0.56878 0.0
H1456 H 0.02622 0.74426 0.59481 0.0
H1457 H 0.06187 0.72955 0.54444 0.0
H1458 H 0.08969 0.67439 0.61094 0.0
H1459 H 0.07194 0.6855 0.58517 0.0
H1460 H 0.03433 0.69867 0.63473 0.0
C1461 C 0.02514 0.74278 0.5723 0.0
C1462 C 0.05555 0.72263 0.56392 0.0
C1463 C 0.01827 0.75252 0.5573 0.0
C1464 C 0.08367 0.68137 0.62237 0.0
C1465 C 0.07356 0.68784 0.60752 0.0
C1466 C 0.04051 0.70543 0.6151 0.0
C1467 C 0.03118 0.73185 0.55834 0.0
C1468 C 0.0396 0.72246 0.57417 0.0
C1469 C 0.06587 0.69741 0.62122 0.0
C1470 C 0.05653 0.70571 0.60489 0.0
H1471 H 0.02216 0.73905 0.49146 0.0
H1472 H 0.03402 0.72201 0.51767 0.0
H1473 H 0.01975 0.71315 0.60826 0.0
H1474 H 0.07973 0.69556 0.68763 0.0
H1475 H 0.06227 0.70707 0.6616 0.0
C1476 C 0.61835 0.68814 0.16565 0.0
C1477 C 0.601 0.67956 0.15208 0.0
C1478 C 0.63478 0.69438 0.15034 0.0
C1479 C 0.65282 0.7093 0.07893 0.0
H1480 H 0.69609 0.70837 0.10723 0.0
C1481 C 0.72057 0.73868 0.01489 0.0
C1482 C 0.73709 0.75023 0.02957 0.0
C1483 C 0.70386 0.72789 0.02924 0.0
C1484 C 0.68413 0.7088 0.09911 0.0
H1485 H 0.58732 0.66983 0.11193 0.0
H1486 H 0.61585 0.68039 0.08547 0.0
H1487 H 0.66702 0.69313 0.13362 0.0
H1488 H 0.749 0.75893 0.07102 0.0
H1489 H 0.7199 0.74028 0.09587 0.0
H1490 H 0.66994 0.72518 0.04468 0.0
C1491 C 0.61682 0.68274 0.10783 0.0
C1492 C 0.66749 0.70009 0.11425 0.0
C1493 C 0.60043 0.67659 0.12307 0.0
C1494 C 0.73656 0.75028 0.05897 0.0
C1495 C 0.71988 0.73946 0.07328 0.0
C1496 C 0.66942 0.71797 0.0638 0.0
C1497 C 0.63422 0.6921 0.12115 0.0
C1498 C 0.65167 0.70038 0.10446 0.0
C1499 C 0.70328 0.72833 0.05859 0.0
C1500 C 0.68533 0.71799 0.07383 0.0
H1501 H 0.61932 0.6907 0.18795 0.0
H1502 H 0.64794 0.70167 0.16126 0.0
H1503 H 0.64103 0.71012 0.071 0.0
H1504 H 0.72045 0.73822 0.99227 0.0
H1505 H 0.69134 0.71927 0.01732 0.0
C1506 C 0.30698 0.92343 0.16235 0.0
C1507 C 0.31272 0.91239 0.14795 0.0
C1508 C 0.30035 0.93354 0.14773 0.0
C1509 C 0.29976 0.95254 0.07791 0.0
H1510 H 0.25439 0.94978 0.10463 0.0
C1511 C 0.25654 0.97539 0.01075 0.0
C1512 C 0.24739 0.98355 0.02441 0.0
C1513 C 0.26592 0.96824 0.02611 0.0
C1514 C 0.26724 0.95099 0.09706 0.0
H1515 H 0.31647 0.90383 0.10671 0.0
H1516 H 0.30491 0.92141 0.08137 0.0
H1517 H 0.26833 0.93483 0.1311 0.0
H1518 H 0.2417 0.99131 0.06499 0.0
H1519 H 0.25832 0.97925 0.09158 0.0
H1520 H 0.29865 0.96867 0.04381 0.0
C1521 C 0.30559 0.9223 0.10396 0.0
C1522 C 0.27522 0.94238 0.11227 0.0
C1523 C 0.3121 0.9121 0.11855 0.0
C1524 C 0.2484 0.98494 0.05373 0.0
C1525 C 0.25786 0.97791 0.06904 0.0
C1526 C 0.29183 0.96125 0.06274 0.0
C1527 C 0.29944 0.93298 0.11836 0.0
C1528 C 0.29151 0.94293 0.10279 0.0
C1529 C 0.26647 0.96917 0.05549 0.0
C1530 C 0.27538 0.96049 0.07203 0.0
H1531 H 0.30727 0.92402 0.18497 0.0
H1532 H 0.2959 0.9418 0.15943 0.0
H1533 H 0.31245 0.95342 0.07021 0.0
H1534 H 0.256 0.974 0.98821 0.0
H1535 H 0.27222 0.96144 0.01495 0.0
C1536 C 0.08466 0.40029 0.12278 0.0
C1537 C 0.08514 0.40041 0.15219 0.0
C1538 C 0.07512 0.38356 0.10804 0.0
C1539 C 0.05844 0.3335 0.11489 0.0
H1540 H 0.02992 0.32936 0.04838 0.0
C1541 C 0.0171 0.26399 0.05593 0.0
C1542 C 0.01775 0.26456 0.02654 0.0
C1543 C 0.02401 0.28035 0.07155 0.0
C1544 C 0.03798 0.33033 0.06675 0.0
H1545 H 0.07556 0.38289 0.18909 0.0
H1546 H 0.05886 0.35368 0.16329 0.0
H1547 H 0.04417 0.35819 0.07533 0.0
H1548 H 0.02594 0.28293 0.9906 0.0
H1549 H 0.03824 0.31149 0.01789 0.0
H1550 H 0.05256 0.30581 0.10614 0.0
C1551 C 0.06605 0.36658 0.15168 0.0
C1552 C 0.04612 0.34686 0.08223 0.0
C1553 C 0.07553 0.38335 0.16647 0.0
C1554 C 0.02515 0.28193 0.01318 0.0
C1555 C 0.03214 0.29833 0.02885 0.0
C1556 C 0.05036 0.31702 0.09938 0.0
C1557 C 0.06585 0.36649 0.12228 0.0
C1558 C 0.05652 0.34867 0.10642 0.0
C1559 C 0.03184 0.29776 0.05825 0.0
C1560 C 0.04007 0.31523 0.07504 0.0
H1561 H 0.09184 0.41313 0.11101 0.0
H1562 H 0.07542 0.38398 0.08542 0.0
H1563 H 0.06662 0.33453 0.13314 0.0
H1564 H 0.01135 0.25088 0.06699 0.0
H1565 H 0.0232 0.27933 0.09412 0.0
C1566 C 0.682 0.59816 0.39165 0.0
C1567 C 0.68209 0.59812 0.36223 0.0
C1568 C 0.68924 0.61486 0.40652 0.0
C1569 C 0.72256 0.6649 0.39931 0.0
H1570 H 0.69922 0.6693 0.46683 0.0
C1571 C 0.75191 0.73462 0.45783 0.0
C1572 C 0.75251 0.73417 0.48719 0.0
C1573 C 0.74207 0.71821 0.44244 0.0
C1574 C 0.70601 0.66825 0.44817 0.0
H1575 H 0.68951 0.61573 0.32547 0.0
H1576 H 0.70207 0.64484 0.35146 0.0
H1577 H 0.6842 0.64036 0.4401 0.0
H1578 H 0.74279 0.71597 0.52335 0.0
H1579 H 0.72585 0.68731 0.49645 0.0
H1580 H 0.74451 0.69258 0.40751 0.0
C1581 C 0.69655 0.63191 0.36299 0.0
C1582 C 0.69738 0.65167 0.43282 0.0
C1583 C 0.68923 0.6152 0.34809 0.0
C1584 C 0.74261 0.71688 0.50078 0.0
C1585 C 0.73281 0.70042 0.48534 0.0
C1586 C 0.73121 0.68143 0.41468 0.0
C1587 C 0.69682 0.63196 0.39238 0.0
C1588 C 0.70558 0.64978 0.40824 0.0
C1589 C 0.73261 0.70086 0.45594 0.0
C1590 C 0.72309 0.68332 0.43935 0.0
H1591 H 0.67657 0.5853 0.4033 0.0
H1592 H 0.68938 0.6144 0.42913 0.0
H1593 H 0.72942 0.6638 0.38076 0.0
H1594 H 0.75919 0.74767 0.4466 0.0
H1595 H 0.74191 0.71913 0.41988 0.0
C1596 C 0.28373 0.02957 0.49611 0.0
C1597 C 0.26717 0.01487 0.48533 0.0
C1598 C 0.30044 0.03624 0.48148 0.0
C1599 C 0.31827 0.03503 0.40994 0.0
H1600 H 0.36563 0.06221 0.4479 0.0
C1601 C 0.38591 0.08118 0.34866 0.0
C1602 C 0.40304 0.08503 0.36003 0.0
C1603 C 0.36945 0.07092 0.36384 0.0
C1604 C 0.35263 0.05437 0.43677 0.0
H1605 H 0.25521 0.9949 0.45167 0.0
H1606 H 0.28449 0.00546 0.42717 0.0
H1607 H 0.33743 0.04637 0.47502 0.0
H1608 H 0.41633 0.08048 0.39569 0.0
H1609 H 0.38767 0.06144 0.42125 0.0
H1610 H 0.33354 0.04194 0.37177 0.0
C1611 C 0.2846 0.01261 0.44614 0.0
C1612 C 0.33625 0.04554 0.45248 0.0
C1613 C 0.26778 0.00634 0.46036 0.0
C1614 C 0.40333 0.07782 0.38643 0.0
C1615 C 0.38682 0.06706 0.40126 0.0
C1616 C 0.33468 0.04339 0.39426 0.0
C1617 C 0.30114 0.02802 0.45604 0.0
C1618 C 0.31876 0.03605 0.43935 0.0
C1619 C 0.36963 0.06376 0.3905 0.0
C1620 C 0.35213 0.05355 0.40735 0.0
H1621 H 0.28359 0.03658 0.51514 0.0
H1622 H 0.31262 0.04833 0.48973 0.0
H1623 H 0.30521 0.02816 0.39875 0.0
H1624 H 0.3853 0.08678 0.32849 0.0
H1625 H 0.35671 0.06917 0.35488 0.0
C1626 C 0.92323 0.32392 0.38267 0.0
C1627 C 0.91544 0.31644 0.35651 0.0
C1628 C 0.93331 0.3173 0.39735 0.0
C1629 C 0.95361 0.28571 0.39051 0.0
H1630 H 0.95194 0.28702 0.47129 0.0
C1631 C 0.98963 0.25496 0.45746 0.0
C1632 C 0.98184 0.24715 0.48348 0.0
C1633 C 0.98325 0.26513 0.44243 0.0
C1634 C 0.95235 0.28619 0.44876 0.0
H1635 H 0.91195 0.29612 0.32521 0.0
H1636 H 0.92836 0.28368 0.35137 0.0
H1637 H 0.9372 0.30049 0.44414 0.0
H1638 H 0.96109 0.24359 0.51402 0.0
H1639 H 0.94908 0.26013 0.48726 0.0
H1640 H 0.9673 0.26995 0.39514 0.0
C1641 C 0.92761 0.29527 0.36024 0.0
C1642 C 0.94419 0.2944 0.433 0.0
C1643 C 0.91805 0.30233 0.34518 0.0
C1644 C 0.96754 0.2497 0.49418 0.0
C1645 C 0.96075 0.25935 0.47879 0.0
C1646 C 0.96128 0.27701 0.40627 0.0
C1647 C 0.93529 0.30253 0.38673 0.0
C1648 C 0.94463 0.29429 0.40357 0.0
C1649 C 0.96845 0.26722 0.45259 0.0
C1650 C 0.96076 0.27705 0.4357 0.0
H1651 H 0.9215 0.33487 0.39187 0.0
H1652 H 0.93941 0.32375 0.41715 0.0
H1653 H 0.95471 0.28558 0.36799 0.0
H1654 H 0.00072 0.25328 0.44871 0.0
H1655 H 0.98998 0.2713 0.42282 0.0
C1656 C 0.04754 0.64409 0.17433 0.0
C1657 C 0.06415 0.65099 0.18966 0.0
C1658 C 0.03056 0.63794 0.18806 0.0
C1659 C 0.00944 0.6389 0.25617 0.0
H1660 H 0.96935 0.59078 0.23241 0.0
C1661 C 0.9455 0.59292 0.32555 0.0
C1662 C 0.92813 0.5823 0.31243 0.0
C1663 C 0.96166 0.6031 0.30966 0.0
C1664 C 0.98027 0.60437 0.23909 0.0
H1665 H 0.07597 0.65775 0.23141 0.0
H1666 H 0.04648 0.64698 0.25516 0.0
H1667 H 0.99818 0.60587 0.20584 0.0
H1668 H 0.91415 0.57474 0.2722 0.0
H1669 H 0.94221 0.59263 0.24469 0.0
H1670 H 0.99158 0.63722 0.28972 0.0
C1671 C 0.04653 0.64635 0.23256 0.0
C1672 C 0.99681 0.61304 0.2238 0.0
C1673 C 0.06346 0.65242 0.21889 0.0
C1674 C 0.92728 0.58257 0.28308 0.0
C1675 C 0.94341 0.59278 0.26723 0.0
C1676 C 0.99286 0.63023 0.27146 0.0
C1677 C 0.02982 0.63865 0.21738 0.0
C1678 C 0.01169 0.63031 0.23232 0.0
C1679 C 0.96084 0.60297 0.28028 0.0
C1680 C 0.97814 0.61276 0.26328 0.0
H1681 H 0.04753 0.64281 0.15181 0.0
H1682 H 0.01795 0.63232 0.17573 0.0
H1683 H 0.02055 0.65231 0.26311 0.0
H1684 H 0.9467 0.59303 0.34809 0.0
H1685 H 0.97487 0.61063 0.3204 0.0
C1686 C 0.40254 0.35108 0.32749 0.0
C1687 C 0.41854 0.35169 0.31651 0.0
C1688 C 0.39299 0.35804 0.31212 0.0
C1689 C 0.38221 0.38394 0.28382 0.0
H1690 H 0.38153 0.38242 0.20286 0.0
C1691 C 0.36312 0.4304 0.21905 0.0
C1692 C 0.35394 0.42389 0.19332 0.0
C1693 C 0.36955 0.42026 0.23392 0.0
C1694 C 0.38131 0.38277 0.22546 0.0
H1695 H 0.43701 0.36012 0.28067 0.0
H1696 H 0.42087 0.37279 0.25448 0.0
H1697 H 0.39445 0.36632 0.22869 0.0
H1698 H 0.34401 0.40133 0.16333 0.0
H1699 H 0.35469 0.38328 0.18971 0.0
H1700 H 0.36847 0.39981 0.28066 0.0
C1701 C 0.41527 0.36645 0.27456 0.0
C1702 C 0.38903 0.37375 0.24034 0.0
C1703 C 0.42465 0.35927 0.28973 0.0
C1704 C 0.35114 0.40682 0.18299 0.0
C1705 C 0.35737 0.39652 0.19808 0.0
C1706 C 0.37428 0.39275 0.26897 0.0
C1707 C 0.39935 0.36602 0.28555 0.0
C1708 C 0.38988 0.37446 0.26973 0.0
C1709 C 0.36675 0.40314 0.22372 0.0
C1710 C 0.374 0.39258 0.23955 0.0
H1711 H 0.39736 0.3452 0.34795 0.0
H1712 H 0.3806 0.35712 0.32113 0.0
H1713 H 0.38273 0.38501 0.30639 0.0
H1714 H 0.36569 0.44358 0.22756 0.0
H1715 H 0.37706 0.42609 0.25319 0.0
C1716 C 0.58115 0.92962 0.2224 0.0
C1717 C 0.58023 0.92982 0.19306 0.0
C1718 C 0.59091 0.94618 0.23745 0.0
C1719 C 0.62635 0.99621 0.23078 0.0
H1720 H 0.60318 0.00072 0.29842 0.0
C1721 C 0.65023 0.06641 0.28686 0.0
C1722 C 0.65023 0.06654 0.31627 0.0
C1723 C 0.64303 0.04968 0.2721 0.0
C1724 C 0.60998 0.99961 0.27981 0.0
H1725 H 0.58929 0.94771 0.15655 0.0
H1726 H 0.60613 0.97666 0.18288 0.0
H1727 H 0.58816 0.9718 0.272 0.0
H1728 H 0.64305 0.04904 0.35314 0.0
H1729 H 0.63057 0.01989 0.32734 0.0
H1730 H 0.64805 0.0242 0.23847 0.0
C1731 C 0.59945 0.96363 0.19423 0.0
C1732 C 0.60137 0.98301 0.26463 0.0
C1733 C 0.58972 0.94702 0.17911 0.0
C1734 C 0.64324 0.04951 0.33053 0.0
C1735 C 0.63597 0.03276 0.31574 0.0
C1736 C 0.63495 0.01286 0.24595 0.0
C1737 C 0.59997 0.96342 0.22362 0.0
C1738 C 0.60941 0.98108 0.23989 0.0
C1739 C 0.63559 0.03263 0.28635 0.0
C1740 C 0.62685 0.01477 0.27062 0.0
H1741 H 0.57419 0.91665 0.23389 0.0
H1742 H 0.59133 0.94546 0.26002 0.0
H1743 H 0.63307 0.99513 0.21204 0.0
H1744 H 0.65555 0.07923 0.27512 0.0
H1745 H 0.6428 0.05007 0.24948 0.0
C1746 C 0.35101 0.95083 0.67853 0.0
C1747 C 0.35169 0.93579 0.69079 0.0
C1748 C 0.35658 0.96726 0.69369 0.0
C1749 C 0.38016 0.00422 0.7234 0.0
H1750 H 0.37607 0.00272 0.80415 0.0
C1751 C 0.42528 0.06901 0.79047 0.0
C1752 C 0.41865 0.07122 0.81637 0.0
C1753 C 0.41513 0.05278 0.77483 0.0
C1754 C 0.37711 0.00352 0.78159 0.0
H1755 H 0.3588 0.92633 0.72868 0.0
H1756 H 0.36907 0.95486 0.75438 0.0
H1757 H 0.36082 0.97398 0.77776 0.0
H1758 H 0.39582 0.05828 0.84579 0.0
H1759 H 0.37766 0.03022 0.818 0.0
H1760 H 0.3958 0.03382 0.72716 0.0
C1761 C 0.36367 0.95394 0.7335 0.0
C1762 C 0.36859 0.98691 0.76639 0.0
C1763 C 0.35787 0.93751 0.71857 0.0
C1764 C 0.4014 0.05693 0.82603 0.0
C1765 C 0.39103 0.04078 0.81011 0.0
C1766 C 0.3884 0.02086 0.73857 0.0
C1767 C 0.3632 0.96912 0.72132 0.0
C1768 C 0.37041 0.98696 0.73713 0.0
C1769 C 0.39783 0.03838 0.78436 0.0
C1770 C 0.38742 0.02075 0.76797 0.0
H1771 H 0.34625 0.94994 0.65722 0.0
H1772 H 0.35572 0.9785 0.68367 0.0
H1773 H 0.38202 0.00493 0.70096 0.0
H1774 H 0.43861 0.07967 0.78251 0.0
H1775 H 0.42114 0.0514 0.75555 0.0
C1776 C 0.06773 0.41188 0.72355 0.0
C1777 C 0.06718 0.41449 0.69458 0.0
C1778 C 0.0514 0.40106 0.73861 0.0
C1779 C 0.00116 0.36628 0.73212 0.0
H1780 H 0.99772 0.38825 0.80179 0.0
C1781 C 0.93153 0.34496 0.78764 0.0
C1782 C 0.93112 0.34536 0.81704 0.0
C1783 C 0.94823 0.35079 0.77338 0.0
C1784 C 0.99852 0.3817 0.78268 0.0
H1785 H 0.04894 0.40701 0.65859 0.0
H1786 H 0.02033 0.38824 0.68502 0.0
H1787 H 0.02652 0.40317 0.7753 0.0
H1788 H 0.94795 0.35133 0.85444 0.0
H1789 H 0.97707 0.36131 0.82949 0.0
H1790 H 0.97295 0.34498 0.73936 0.0
C1791 C 0.03349 0.39448 0.69601 0.0
C1792 C 0.01507 0.39029 0.76742 0.0
C1793 C 0.04989 0.40529 0.68086 0.0
C1794 C 0.94773 0.35092 0.83181 0.0
C1795 C 0.96446 0.35677 0.8175 0.0
C1796 C 0.98457 0.35766 0.74743 0.0
C1797 C 0.03403 0.39259 0.72518 0.0
C1798 C 0.01658 0.38278 0.74184 0.0
C1799 C 0.96498 0.35717 0.78809 0.0
C1800 C 0.98299 0.36537 0.77278 0.0
H1801 H 0.0808 0.41853 0.73482 0.0
H1802 H 0.05237 0.39956 0.76093 0.0
H1803 H 0.00193 0.36001 0.71269 0.0
H1804 H 0.91903 0.34068 0.77549 0.0
H1805 H 0.9481 0.35105 0.75075 0.0
C1806 C 0.64186 0.57317 0.79225 0.0
C1807 C 0.65079 0.57953 0.81815 0.0
C1808 C 0.63593 0.58362 0.77704 0.0
C1809 C 0.62557 0.62218 0.7852 0.0
H1810 H 0.62232 0.61845 0.70445 0.0
C1811 C 0.60114 0.65127 0.68337 0.0
C1812 C 0.58555 0.6509 0.69557 0.0
C1813 C 0.61147 0.645 0.69831 0.0
C1814 C 0.6234 0.61998 0.72694 0.0
H1815 H 0.66104 0.60217 0.84801 0.0
H1816 H 0.65144 0.62082 0.82099 0.0
H1817 H 0.63664 0.60362 0.72996 0.0
H1818 H 0.56871 0.64368 0.73316 0.0
H1819 H 0.58608 0.63221 0.75853 0.0
H1820 H 0.61307 0.63919 0.78213 0.0
C1821 C 0.64839 0.60743 0.81277 0.0
C1822 C 0.63134 0.61113 0.74171 0.0
C1823 C 0.654 0.59679 0.82825 0.0
C1824 C 0.58074 0.64438 0.72313 0.0
C1825 C 0.59084 0.63788 0.73785 0.0
C1826 C 0.61795 0.6313 0.77042 0.0
C1827 C 0.6391 0.60093 0.78704 0.0
C1828 C 0.63216 0.61174 0.77111 0.0
C1829 C 0.6063 0.63797 0.72566 0.0
C1830 C 0.61632 0.62996 0.74112 0.0
H1831 H 0.63902 0.55985 0.78398 0.0
H1832 H 0.62847 0.57785 0.75772 0.0
H1833 H 0.62576 0.62292 0.80779 0.0
H1834 H 0.60529 0.6563 0.66223 0.0
H1835 H 0.62346 0.64561 0.68834 0.0
C1836 C 0.22039 0.04745 0.9688 0.0
C1837 C 0.23479 0.0439 0.97511 0.0
C1838 C 0.22224 0.06473 0.97471 0.0
C1839 C 0.24601 0.10483 0.02116 0.0
H1840 H 0.22562 0.12608 0.96972 0.0
C1841 C 0.24233 0.17309 0.04049 0.0
C1842 C 0.22558 0.17188 0.03174 0.0
C1843 C 0.24575 0.15842 0.03504 0.0
C1844 C 0.23129 0.12029 0.9844 0.0
H1845 H 0.26292 0.05578 0.99063 0.0
H1846 H 0.26616 0.08628 1.00163 0.0
H1847 H 0.22831 0.09944 0.95531 0.0
H1848 H 0.19874 0.15378 0.01267 0.0
H1849 H 0.20451 0.12838 1.0038 0.0
H1850 H 0.24849 0.12557 0.05053 0.0
C1851 C 0.25333 0.07555 0.99243 0.0
C1852 C 0.23288 0.10505 0.9761 0.0
C1853 C 0.25153 0.05821 0.9861 0.0
C1854 C 0.21191 0.15531 0.01928 0.0
C1855 C 0.21526 0.14077 0.01401 0.0
C1856 C 0.24436 0.12015 0.02956 0.0
C1857 C 0.23861 0.07891 0.98698 0.0
C1858 C 0.23972 0.09679 0.99463 0.0
C1859 C 0.23245 0.14238 0.02083 0.0
C1860 C 0.23644 0.12765 0.0115 0.0
H1861 H 0.2075 0.03668 0.95975 0.0
H1862 H 0.21057 0.06677 0.97049 0.0
H1863 H 0.25134 0.09875 0.03589 0.0
H1864 H 0.25314 0.18571 0.05008 0.0
H1865 H 0.25909 0.15999 0.04068 0.0
C1866 C 0.95151 0.17514 0.96945 0.0
C1867 C 0.95591 0.19323 0.97675 0.0
C1868 C 0.93388 0.16013 0.97491 0.0
C1869 C 0.89452 0.14346 0.0216 0.0
H1870 H 0.87037 0.10558 0.96464 0.0
C1871 C 0.82599 0.07128 0.03804 0.0
C1872 C 0.82649 0.05623 0.02539 0.0
C1873 C 0.84047 0.08961 0.0334 0.0
C1874 C 0.87695 0.11598 0.98085 0.0
H1875 H 0.94528 0.21019 0.99388 0.0
H1876 H 0.91419 0.18359 1.00433 0.0
H1877 H 0.89779 0.13501 0.9527 0.0
H1878 H 0.84321 0.04855 0.99981 0.0
H1879 H 0.86825 0.07999 0.99247 0.0
H1880 H 0.87406 0.12391 0.05009 0.0
C1881 C 0.9245 0.1811 0.99454 0.0
C1882 C 0.89259 0.13286 0.97394 0.0
C1883 C 0.94217 0.19625 0.98855 0.0
C1884 C 0.84216 0.05979 0.0095 0.0
C1885 C 0.85651 0.07788 1.00508 0.0
C1886 C 0.87886 0.12637 0.02865 0.0
C1887 C 0.92025 0.1629 0.9878 0.0
C1888 C 0.9019 0.14653 0.9944 0.0
C1889 C 0.85561 0.09307 0.01614 0.0
C1890 C 0.87033 0.11222 0.0085 0.0
H1891 H 0.96183 0.17258 0.95981 0.0
H1892 H 0.93105 0.14625 0.96967 0.0
H1893 H 0.90144 0.15382 0.03774 0.0
H1894 H 0.81408 0.06895 0.05039 0.0
H1895 H 0.83946 0.10106 0.04236 0.0
C1896 C 0.81047 0.75096 0.99619 0.0
C1897 C 0.81226 0.76737 0.98495 0.0
C1898 C 0.82635 0.75016 1.00398 0.0
C1899 C 0.87672 0.78199 0.01927 0.0
H1900 H 0.88065 0.73759 0.01182 0.0
C1901 C 0.94665 0.78552 0.01492 0.0
C1902 C 0.94957 0.77267 0.03001 0.0
C1903 C 0.92903 0.78352 0.01306 0.0
C1904 C 0.87958 0.74998 0.01453 0.0
H1905 H 0.8317 0.79507 0.97026 0.0
H1906 H 0.85929 0.79354 0.98244 0.0
H1907 H 0.85139 0.73643 0.99993 0.0
H1908 H 0.93613 0.7476 0.05514 0.0
H1909 H 0.9049 0.744 0.05163 0.0
H1910 H 0.90493 0.79566 0.03313 0.0
C1911 C 0.84583 0.78158 0.98695 0.0
C1912 C 0.86284 0.74935 0.00767 0.0
C1913 C 0.83003 0.78246 0.97974 0.0
C1914 C 0.93434 0.75778 0.04349 0.0
C1915 C 0.91649 0.75564 0.04133 0.0
C1916 C 0.89329 0.78259 0.02615 0.0
C1917 C 0.84427 0.76563 0.99989 0.0
C1918 C 0.86135 0.76551 0.00933 0.0
C1919 C 0.91373 0.76856 0.02611 0.0
C1920 C 0.89511 0.76676 0.02312 0.0
H1921 H 0.79682 0.73905 0.99994 0.0
H1922 H 0.82455 0.73765 0.0139 0.0
H1923 H 0.87618 0.79466 0.02127 0.0
H1924 H 0.95801 0.7972 1.0043 0.0
H1925 H 0.92733 0.79357 1.00087 0.0
C1926 C 0.17336 0.23983 0.51505 0.0
C1927 C 0.17659 0.235 0.48836 0.0
C1928 C 0.15837 0.24257 0.51986 0.0
C1929 C 0.12127 0.24857 0.48675 0.0
H1930 H 0.09511 0.22485 0.5552 0.0
C1931 C 0.04451 0.21906 0.53966 0.0
C1932 C 0.04123 0.23377 0.53439 0.0
C1933 C 0.06195 0.22108 0.53456 0.0
C1934 C 0.10219 0.23151 0.53596 0.0
H1935 H 0.16729 0.23024 0.44535 0.0
H1936 H 0.14048 0.23455 0.45389 0.0
H1937 H 0.12362 0.22505 0.54362 0.0
H1938 H 0.05371 0.26257 0.52182 0.0
H1939 H 0.08454 0.26623 0.51261 0.0
H1940 H 0.09925 0.25442 0.47886 0.0
C1941 C 0.14978 0.23646 0.47104 0.0
C1942 C 0.1187 0.23183 0.52944 0.0
C1943 C 0.16508 0.23396 0.46612 0.0
C1944 C 0.05594 0.25095 0.52547 0.0
C1945 C 0.07346 0.25297 0.52008 0.0
C1946 C 0.10464 0.24825 0.49332 0.0
C1947 C 0.14596 0.24023 0.49821 0.0
C1948 C 0.12848 0.24035 0.50478 0.0
C1949 C 0.07658 0.23796 0.52431 0.0
C1950 C 0.09485 0.23955 0.51792 0.0
H1951 H 0.18224 0.24107 0.5325 0.0
H1952 H 0.15621 0.24603 0.54083 0.0
H1953 H 0.12849 0.25532 0.46766 0.0
H1954 H 0.03344 0.20581 0.54722 0.0
H1955 H 0.06378 0.20918 0.53785 0.0
C1956 C 0.74809 0.80414 0.52615 0.0
C1957 C 0.76484 0.80667 0.53725 0.0
C1958 C 0.7462 0.81963 0.51985 0.0
C1959 C 0.76633 0.86956 0.53621 0.0
H1960 H 0.75131 0.87441 0.46135 0.0
C1961 C 0.78722 0.94083 0.49278 0.0
C1962 C 0.77379 0.94351 0.47901 0.0
C1963 C 0.7839 0.923 0.49859 0.0
C1964 C 0.75527 0.87315 0.48245 0.0
H1965 H 0.79204 0.82684 0.55283 0.0
H1966 H 0.78879 0.85377 0.54217 0.0
H1967 H 0.74837 0.84478 0.47627 0.0
H1968 H 0.74674 0.92948 0.45908 0.0
H1969 H 0.74083 0.89796 0.46948 0.0
H1970 H 0.77342 0.89781 0.5425 0.0
C1971 C 0.77719 0.84002 0.53785 0.0
C1972 C 0.75357 0.8562 0.491 0.0
C1973 C 0.77914 0.82465 0.54371 0.0
C1974 C 0.75735 0.92783 0.46968 0.0
C1975 C 0.75396 0.90982 0.4757 0.0
C1976 C 0.76793 0.88636 0.52778 0.0
C1977 C 0.76083 0.83774 0.52545 0.0
C1978 C 0.75967 0.85446 0.51768 0.0
C1979 C 0.76699 0.90728 0.49104 0.0
C1980 C 0.76301 0.88858 0.50052 0.0
H1981 H 0.73678 0.7903 0.52148 0.0
H1982 H 0.73338 0.81747 0.51053 0.0
H1983 H 0.77075 0.86852 0.5571 0.0
H1984 H 0.80016 0.95258 0.49987 0.0
H1985 H 0.79448 0.92153 0.50965 0.0
C1986 C 0.06844 0.82731 0.46838 0.0
C1987 C 0.05294 0.82722 0.48043 0.0
C1988 C 0.08623 0.8431 0.47071 0.0
C1989 C 0.10953 0.89359 0.48361 0.0
H1990 H 0.15016 0.88909 0.51484 0.0
C1991 C 0.17266 0.95728 0.52991 0.0
C1992 C 0.19034 0.95929 0.52669 0.0
C1993 C 0.15676 0.94066 0.52269 0.0
C1994 C 0.1391 0.89065 0.50567 0.0
H1995 H 0.04392 0.84383 0.50357 0.0
H1996 H 0.07454 0.87109 0.50715 0.0
H1997 H 0.12101 0.86106 0.50252 0.0
H1998 H 0.20542 0.94529 0.51532 0.0
H1999 H 0.1776 0.91627 0.5013 0.0
H2000 H 0.127 0.92287 0.48722 0.0
C2001 C 0.07309 0.85907 0.49602 0.0
C2002 C 0.1224 0.87455 0.49859 0.0
C2003 C 0.05552 0.84335 0.49407 0.0
C2004 C 0.19187 0.94407 0.5175 0.0
C2005 C 0.17592 0.92746 0.50967 0.0
C2006 C 0.12611 0.90958 0.49061 0.0
C2007 C 0.08868 0.85912 0.48461 0.0
C2008 C 0.1073 0.87589 0.48813 0.0
C2009 C 0.15814 0.92564 0.51173 0.0
C2010 C 0.14103 0.9084 0.50233 0.0
H2011 H 0.0669 0.81506 0.45789 0.0
H2012 H 0.09804 0.84281 0.46166 0.0
H2013 H 0.09822 0.89508 0.47522 0.0
H2014 H 0.17114 0.96868 0.53786 0.0
H2015 H 0.14338 0.93969 0.52565 0.0
C2016 C 0.74989 0.94318 0.01601 0.0
C2017 C 0.76652 0.95797 0.02647 0.0
C2018 C 0.749 0.92644 0.00817 0.0
C2019 C 0.7808 0.90813 0.99106 0.0
H2020 H 0.73705 0.85956 1.00079 0.0
C2021 C 0.78583 0.84287 0.99864 0.0
C2022 C 0.77356 0.82685 0.98348 0.0
C2023 C 0.78323 0.85814 0.99982 0.0
C2024 C 0.74923 0.87308 0.9974 0.0
H2025 H 0.79451 0.96641 0.03984 0.0
H2026 H 0.79284 0.93725 0.02762 0.0
H2027 H 0.73564 0.88761 0.01244 0.0
H2028 H 0.7488 0.81437 0.95762 0.0
H2029 H 0.74409 0.84143 0.96002 0.0
H2030 H 0.79454 0.89372 0.9769 0.0
C2031 C 0.78076 0.93866 0.0237 0.0
C2032 C 0.74847 0.88917 1.00413 0.0
C2033 C 0.78173 0.95537 0.03095 0.0
C2034 C 0.75855 0.82656 0.96931 0.0
C2035 C 0.75578 0.84193 0.97084 0.0
C2036 C 0.78152 0.8922 0.98429 0.0
C2037 C 0.7646 0.92412 0.01142 0.0
C2038 C 0.76444 0.90691 1.00178 0.0
C2039 C 0.76821 0.85789 0.98604 0.0
C2040 C 0.76596 0.87449 0.9882 0.0
H2041 H 0.73789 0.94485 0.01283 0.0
H2042 H 0.73632 0.9156 0.99882 0.0
H2043 H 0.79333 0.9214 0.98852 0.0
H2044 H 0.79755 0.84368 0.00982 0.0
H2045 H 0.79289 0.87012 0.01199 0.0
C2046 C 0.15626 0.94232 0.99435 0.0
C2047 C 0.17238 0.94579 0.97981 0.0
C2048 C 0.1422 0.92419 0.99971 0.0
C2049 C 0.12224 0.87486 0.98091 0.0
H2050 H 0.10215 0.86807 0.05594 0.0
C2051 C 0.06134 0.8043 0.02235 0.0
C2052 C 0.04688 0.80635 0.03369 0.0
C2053 C 0.0786 0.82008 0.01652 0.0
C2054 C 0.10763 0.86971 0.03494 0.0
H2055 H 0.18592 0.93286 0.95813 0.0
H2056 H 0.16112 0.90083 0.96775 0.0
H2057 H 0.12828 0.898 0.04239 0.0
H2058 H 0.0393 0.82594 0.05011 0.0
H2059 H 0.06927 0.85334 0.04033 0.0
H2060 H 0.10127 0.84643 0.9736 0.0
C2061 C 0.15948 0.9123 0.97491 0.0
C2062 C 0.12255 0.88688 0.02711 0.0
C2063 C 0.17364 0.93061 0.96935 0.0
C2064 C 0.0502 0.82411 0.04083 0.0
C2065 C 0.0674 0.83976 0.03546 0.0
C2066 C 0.1073 0.85753 0.98887 0.0
C2067 C 0.14389 0.90896 0.99093 0.0
C2068 C 0.12962 0.88988 0.99973 0.0
C2069 C 0.08172 0.83798 0.02286 0.0
C2070 C 0.09946 0.85502 0.01569 0.0
H2071 H 0.15469 0.95368 1.00231 0.0
H2072 H 0.13011 0.92212 0.01133 0.0
H2073 H 0.12742 0.87672 0.9597 0.0
H2074 H 0.05907 0.79063 0.01712 0.0
H2075 H 0.08945 0.81832 0.00699 0.0
C2076 C 0.19352 0.25168 0.02176 0.0
C2077 C 0.19124 0.23517 0.03346 0.0
C2078 C 0.1779 0.25334 0.01547 0.0
C2079 C 0.12835 0.23348 0.03355 0.0
H2080 H 0.12196 0.24701 0.95847 0.0
C2081 C 0.05628 0.21216 0.99331 0.0
C2082 C 0.0534 0.2254 0.97936 0.0
C2083 C 0.07418 0.21545 0.99832 0.0
C2084 C 0.12366 0.24347 0.97962 0.0
H2085 H 0.17137 0.20815 0.04998 0.0
H2086 H 0.14421 0.21099 0.03936 0.0
H2087 H 0.15185 0.25009 0.9723 0.0
H2088 H 0.06712 0.25208 0.95828 0.0
H2089 H 0.09877 0.25794 0.96729 0.0
H2090 H 0.10031 0.22666 0.04101 0.0
C2091 C 0.15787 0.22258 0.03456 0.0
C2092 C 0.14075 0.24525 0.98755 0.0
C2093 C 0.17337 0.22086 0.04041 0.0
C2094 C 0.06891 0.24161 0.96906 0.0
C2095 C 0.087 0.24498 0.97426 0.0
C2096 C 0.11142 0.23179 0.02574 0.0
C2097 C 0.1599 0.23871 0.02168 0.0
C2098 C 0.14304 0.2397 0.01434 0.0
C2099 C 0.08978 0.23215 0.98977 0.0
C2100 C 0.10864 0.23618 0.99844 0.0
H2101 H 0.20728 0.263 0.0167 0.0
H2102 H 0.17986 0.26598 0.00576 0.0
H2103 H 0.12983 0.22948 0.05453 0.0
H2104 H 0.04465 0.19938 1.00113 0.0
H2105 H 0.07581 0.20502 0.00956 0.0
C2106 C 0.9417 0.7456 0.48959 0.0
C2107 C 0.95582 0.76226 0.47808 0.0
C2108 C 0.92425 0.74362 0.49562 0.0
C2109 C 0.89402 0.76277 0.47718 0.0
H2110 H 0.87448 0.74983 0.55254 0.0
C2111 C 0.84405 0.78497 0.51767 0.0
C2112 C 0.828 0.77201 0.53208 0.0
C2113 C 0.85842 0.78136 0.51239 0.0
C2114 C 0.87959 0.75318 0.53131 0.0
H2115 H 0.96261 0.78919 0.4616 0.0
H2116 H 0.93232 0.78576 0.47171 0.0
H2117 H 0.90125 0.74671 0.53871 0.0
H2118 H 0.81494 0.7455 0.55365 0.0
H2119 H 0.84031 0.73908 0.54418 0.0
H2120 H 0.87271 0.76946 0.46965 0.0
C2121 C 0.9346 0.77432 0.47658 0.0
C2122 C 0.89489 0.75138 0.52339 0.0
C2123 C 0.95199 0.77637 0.47101 0.0
C2124 C 0.82714 0.75575 0.54251 0.0
C2125 C 0.84162 0.75206 0.53704 0.0
C2126 C 0.87877 0.76445 0.48498 0.0
C2127 C 0.92061 0.75805 0.4893 0.0
C2128 C 0.90263 0.75678 0.49651 0.0
C2129 C 0.85714 0.76461 0.52113 0.0
C2130 C 0.87177 0.76032 0.51239 0.0
H2131 H 0.94436 0.73443 0.49475 0.0
H2132 H 0.91367 0.73089 0.50524 0.0
H2133 H 0.89943 0.76665 0.45615 0.0
H2134 H 0.84534 0.79779 0.50975 0.0
H2135 H 0.87043 0.79158 0.50085 0.0
C2136 C 0.25052 0.19482 0.48727 0.0
C2137 C 0.23337 0.19256 0.47865 0.0
C2138 C 0.25223 0.1792 0.49324 0.0
C2139 C 0.23041 0.12908 0.47807 0.0
H2140 H 0.25495 0.12673 0.54568 0.0
C2141 C 0.24126 0.06756 0.49651 0.0
C2142 C 0.23595 0.0588 0.52269 0.0
C2143 C 0.2436 0.08521 0.49249 0.0
C2144 C 0.24802 0.12719 0.52678 0.0
H2145 H 0.20508 0.17259 0.46706 0.0
H2146 H 0.20796 0.14537 0.47737 0.0
H2147 H 0.25353 0.15493 0.5351 0.0
H2148 H 0.23002 0.06211 0.5657 0.0
H2149 H 0.23383 0.09316 0.55855 0.0
H2150 H 0.22452 0.1014 0.46983 0.0
C2151 C 0.22003 0.15905 0.48007 0.0
C2152 C 0.24735 0.14337 0.5206 0.0
C2153 C 0.21831 0.1746 0.47442 0.0
C2154 C 0.23416 0.06858 0.54532 0.0
C2155 C 0.23634 0.08633 0.5412 0.0
C2156 C 0.23114 0.11304 0.48415 0.0
C2157 C 0.23694 0.16114 0.48986 0.0
C2158 C 0.23844 0.14442 0.49621 0.0
C2159 C 0.24045 0.09452 0.51445 0.0
C2160 C 0.23997 0.11187 0.50851 0.0
H2161 H 0.26241 0.20861 0.49007 0.0
H2162 H 0.26551 0.18124 0.50031 0.0
H2163 H 0.22358 0.12948 0.45901 0.0
H2164 H 0.24305 0.06047 0.47879 0.0
H2165 H 0.24728 0.09133 0.47183 0.0
C2166 C 0.94072 0.15561 0.50744 0.0
C2167 C 0.9436 0.17088 0.52382 0.0
C2168 C 0.92284 0.14103 0.50211 0.0
C2169 C 0.87375 0.1181 0.52427 0.0
H2170 H 0.86626 0.09817 0.44903 0.0
C2171 C 0.80396 0.0551 0.48429 0.0
C2172 C 0.80666 0.04101 0.47302 0.0
C2173 C 0.81931 0.0727 0.48992 0.0
C2174 C 0.86811 0.10362 0.47008 0.0
H2175 H 0.92988 0.18242 0.54846 0.0
H2176 H 0.89828 0.15679 0.53876 0.0
H2177 H 0.89562 0.12555 0.46131 0.0
H2178 H 0.82695 0.03442 0.45659 0.0
H2179 H 0.85363 0.06507 0.46591 0.0
H2180 H 0.84602 0.09594 0.53278 0.0
C2181 C 0.91003 0.15618 0.5302 0.0
C2182 C 0.88497 0.11924 0.47721 0.0
C2183 C 0.9281 0.17083 0.53578 0.0
C2184 C 0.82463 0.04502 0.46582 0.0
C2185 C 0.83985 0.06259 0.47095 0.0
C2186 C 0.8567 0.10251 0.51698 0.0
C2187 C 0.90722 0.14134 0.51269 0.0
C2188 C 0.88828 0.12629 0.50465 0.0
C2189 C 0.83741 0.07655 0.48341 0.0
C2190 C 0.85399 0.09476 0.49006 0.0
H2191 H 0.95233 0.155 0.49826 0.0
H2192 H 0.92128 0.12956 0.48934 0.0
H2193 H 0.87582 0.12319 0.54555 0.0
H2194 H 0.79011 0.0523 0.48954 0.0
H2195 H 0.81706 0.08327 0.49937 0.0
C2196 C 0.90601 0.50583 0.37135 0.0
C2197 C 0.89091 0.50605 0.3584 0.0
C2198 C 0.90841 0.49029 0.36849 0.0
C2199 C 0.88189 0.44022 0.35249 0.0
H2200 H 0.92821 0.44517 0.32573 0.0
C2201 C 0.88269 0.37718 0.3068 0.0
C2202 C 0.89803 0.37487 0.3117 0.0
C2203 C 0.88338 0.39384 0.31361 0.0
C2204 C 0.91523 0.44349 0.3336 0.0
H2205 H 0.8663 0.48994 0.33286 0.0
H2206 H 0.87038 0.46319 0.32825 0.0
H2207 H 0.92667 0.47302 0.33803 0.0
H2208 H 0.9266 0.3884 0.32566 0.0
H2209 H 0.92767 0.41748 0.33904 0.0
H2210 H 0.87014 0.41107 0.34749 0.0
C2211 C 0.88039 0.4749 0.34056 0.0
C2212 C 0.91439 0.45947 0.34069 0.0
C2213 C 0.87813 0.49034 0.34311 0.0
C2214 C 0.91451 0.38985 0.32215 0.0
C2215 C 0.91511 0.40651 0.32961 0.0
C2216 C 0.8827 0.42437 0.3454 0.0
C2217 C 0.89554 0.47466 0.3531 0.0
C2218 C 0.89755 0.45797 0.34955 0.0
C2219 C 0.89938 0.40858 0.32593 0.0
C2220 C 0.89924 0.42571 0.33529 0.0
H2221 H 0.91615 0.51775 0.38314 0.0
H2222 H 0.9202 0.49043 0.37844 0.0
H2223 H 0.86878 0.43858 0.35968 0.0
H2224 H 0.87002 0.36597 0.29792 0.0
H2225 H 0.87121 0.39502 0.30935 0.0
C2226 C 0.61651 0.50756 0.30651 0.0
C2227 C 0.62011 0.52545 0.31343 0.0
C2228 C 0.5992 0.4921 0.31203 0.0
C2229 C 0.55908 0.47503 0.35828 0.0
H2230 H 0.53786 0.43443 0.30496 0.0
C2231 C 0.49105 0.40264 0.37556 0.0
C2232 C 0.49229 0.38728 0.36588 0.0
C2233 C 0.50565 0.42085 0.37062 0.0
C2234 C 0.54364 0.4456 0.32016 0.0
H2235 H 0.6083 0.54158 0.32978 0.0
H2236 H 0.57772 0.51421 0.34011 0.0
H2237 H 0.56446 0.46407 0.29155 0.0
H2238 H 0.51038 0.37896 0.34562 0.0
H2239 H 0.53564 0.41035 0.33757 0.0
H2240 H 0.5384 0.45616 0.38716 0.0
C2241 C 0.58844 0.5122 0.33068 0.0
C2242 C 0.55884 0.4626 0.31243 0.0
C2243 C 0.60583 0.5278 0.32473 0.0
C2244 C 0.50881 0.39046 0.35293 0.0
C2245 C 0.52328 0.40848 0.34814 0.0
C2246 C 0.54379 0.45788 0.3661 0.0
C2247 C 0.58503 0.49418 0.32452 0.0
C2248 C 0.56711 0.47733 0.33163 0.0
C2249 C 0.52164 0.42389 0.35599 0.0
C2250 C 0.53631 0.44282 0.34734 0.0
H2251 H 0.62726 0.50549 0.29727 0.0
H2252 H 0.59712 0.47842 0.3073 0.0
H2253 H 0.56518 0.48615 0.37352 0.0
H2254 H 0.47848 0.40062 0.38557 0.0
H2255 H 0.50406 0.43248 0.37705 0.0
C2256 C 0.49566 0.1179 0.30816 0.0
C2257 C 0.47796 0.10269 0.31336 0.0
C2258 C 0.51157 0.11708 0.31482 0.0
C2259 C 0.52888 0.08489 0.33539 0.0
H2260 H 0.57097 0.13131 0.36046 0.0
C2261 C 0.59965 0.09283 0.37366 0.0
C2262 C 0.61518 0.10761 0.36054 0.0
C2263 C 0.58194 0.09092 0.37072 0.0
C2264 C 0.55934 0.11821 0.35354 0.0
H2265 H 0.46277 0.0742 0.32767 0.0
H2266 H 0.49066 0.07291 0.34086 0.0
H2267 H 0.54233 0.13034 0.34802 0.0
H2268 H 0.62432 0.13219 0.33472 0.0
H2269 H 0.59384 0.12897 0.32995 0.0
H2270 H 0.54656 0.07305 0.34039 0.0
C2271 C 0.49235 0.08547 0.33127 0.0
C2272 C 0.54282 0.11762 0.3463 0.0
C2273 C 0.47636 0.0862 0.32393 0.0
C2274 C 0.6127 0.12061 0.34508 0.0
C2275 C 0.59521 0.11883 0.34244 0.0
C2276 C 0.54556 0.0855 0.34264 0.0
C2277 C 0.51021 0.10107 0.32731 0.0
C2278 C 0.5274 0.10107 0.33661 0.0
C2279 C 0.57959 0.10396 0.35505 0.0
C2280 C 0.56108 0.10231 0.35117 0.0
H2281 H 0.49719 0.13058 0.29918 0.0
H2282 H 0.52495 0.12914 0.31033 0.0
H2283 H 0.51743 0.0719 0.3278 0.0
H2284 H 0.6011 0.08253 0.38558 0.0
H2285 H 0.57012 0.07935 0.38073 0.0
C2286 C 0.84036 0.57547 0.80212 0.0
C2287 C 0.83977 0.55938 0.81277 0.0
C2288 C 0.82573 0.57893 0.80752 0.0
C2289 C 0.7887 0.56642 0.85979 0.0
H2290 H 0.7656 0.58341 0.80593 0.0
C2291 C 0.71542 0.5543 0.87469 0.0
C2292 C 0.71154 0.56836 0.86753 0.0
C2293 C 0.73276 0.5563 0.86882 0.0
C2294 C 0.77213 0.57895 0.82129 0.0
H2295 H 0.82274 0.53366 0.83541 0.0
H2296 H 0.79739 0.53948 0.84419 0.0
H2297 H 0.7925 0.58052 0.79201 0.0
H2298 H 0.72285 0.59604 0.85037 0.0
H2299 H 0.75343 0.59949 0.83935 0.0
H2300 H 0.76812 0.56423 0.88877 0.0
C2301 C 0.80931 0.54974 0.83253 0.0
C2302 C 0.78749 0.57728 0.81331 0.0
C2303 C 0.82383 0.54636 0.82731 0.0
C2304 C 0.72555 0.58491 0.85559 0.0
C2305 C 0.74293 0.58683 0.84926 0.0
C2306 C 0.77338 0.56798 0.86765 0.0
C2307 C 0.81032 0.56633 0.82358 0.0
C2308 C 0.79556 0.57043 0.8323 0.0
C2309 C 0.74663 0.57246 0.8557 0.0
C2310 C 0.76458 0.57372 0.84829 0.0
H2311 H 0.85248 0.58576 0.79085 0.0
H2312 H 0.82683 0.5918 0.80022 0.0
H2313 H 0.79493 0.56162 0.87516 0.0
H2314 H 0.7049 0.54157 0.88446 0.0
H2315 H 0.7351 0.5449 0.8738 0.0
C2316 C 0.41407 0.14087 0.85583 0.0
C2317 C 0.43067 0.1433 0.86742 0.0
C2318 C 0.41223 0.15639 0.84963 0.0
C2319 C 0.43199 0.20606 0.86735 0.0
H2320 H 0.41732 0.21172 0.79265 0.0
C2321 C 0.45323 0.27762 0.82558 0.0
C2322 C 0.43958 0.28063 0.81333 0.0
C2323 C 0.44986 0.25968 0.83042 0.0
C2324 C 0.42118 0.21021 0.81369 0.0
H2325 H 0.45762 0.16334 0.88392 0.0
H2326 H 0.45449 0.19034 0.87336 0.0
H2327 H 0.41462 0.18201 0.80667 0.0
H2328 H 0.41206 0.26707 0.79485 0.0
H2329 H 0.4061 0.23529 0.80343 0.0
H2330 H 0.43889 0.2342 0.87438 0.0
C2331 C 0.44297 0.17663 0.86859 0.0
C2332 C 0.41961 0.19322 0.82174 0.0
C2333 C 0.44486 0.16122 0.87439 0.0
C2334 C 0.42285 0.26517 0.80431 0.0
C2335 C 0.41942 0.24702 0.80928 0.0
C2336 C 0.43351 0.2229 0.85939 0.0
C2337 C 0.42675 0.17445 0.85579 0.0
C2338 C 0.42557 0.19121 0.84839 0.0
C2339 C 0.4327 0.24418 0.82331 0.0
C2340 C 0.42869 0.22539 0.83222 0.0
H2341 H 0.40282 0.12706 0.8508 0.0
H2342 H 0.39952 0.15429 0.84 0.0
H2343 H 0.43629 0.2048 0.88823 0.0
H2344 H 0.4664 0.2892 0.83238 0.0
H2345 H 0.46057 0.25794 0.84052 0.0
C2346 C 0.71927 0.17664 0.83027 0.0
C2347 C 0.71667 0.16109 0.81486 0.0
C2348 C 0.73679 0.19242 0.8325 0.0
C2349 C 0.78616 0.2084 0.83242 0.0
H2350 H 0.79043 0.25683 0.82441 0.0
C2351 C 0.85595 0.27735 0.85085 0.0
C2352 C 0.85478 0.29254 0.86114 0.0
C2353 C 0.83978 0.26095 0.84308 0.0
C2354 C 0.78961 0.2435 0.82692 0.0
H2355 H 0.73053 0.14999 0.78956 0.0
H2356 H 0.76156 0.17779 0.79392 0.0
H2357 H 0.7614 0.22913 0.81279 0.0
H2358 H 0.83607 0.3021 0.87428 0.0
H2359 H 0.80789 0.27341 0.86218 0.0
H2360 H 0.81418 0.22272 0.84755 0.0
C2361 C 0.74982 0.1776 0.80409 0.0
C2362 C 0.7729 0.22758 0.8201 0.0
C2363 C 0.73209 0.16179 0.80146 0.0
C2364 C 0.83727 0.29072 0.86546 0.0
C2365 C 0.82114 0.27428 0.85831 0.0
C2366 C 0.80294 0.2244 0.83942 0.0
C2367 C 0.75228 0.19306 0.81964 0.0
C2368 C 0.77086 0.20985 0.8233 0.0
C2369 C 0.82213 0.25928 0.84635 0.0
C2370 C 0.80479 0.24218 0.83724 0.0
H2371 H 0.70773 0.17664 0.84084 0.0
H2372 H 0.73828 0.20402 0.84488 0.0
H2373 H 0.78489 0.19487 0.83533 0.0
H2374 H 0.86938 0.27842 0.84783 0.0
H2375 H 0.84119 0.24981 0.83387 0.0
C2376 C 0.4225 0.16067 0.30465 0.0
C2377 C 0.43805 0.16131 0.31752 0.0
C2378 C 0.41836 0.17494 0.30937 0.0
C2379 C 0.42762 0.21113 0.36217 0.0
H2380 H 0.41442 0.2355 0.30493 0.0
C2381 C 0.44185 0.28533 0.37401 0.0
C2382 C 0.42808 0.28951 0.36629 0.0
C2383 C 0.43957 0.26783 0.36846 0.0
C2384 C 0.41782 0.22861 0.32117 0.0
H2385 H 0.46212 0.17807 0.3437 0.0
H2386 H 0.4552 0.20274 0.35126 0.0
H2387 H 0.4174 0.20835 0.29272 0.0
H2388 H 0.40069 0.27862 0.34827 0.0
H2389 H 0.39682 0.24778 0.33767 0.0
H2390 H 0.42893 0.23176 0.3903 0.0
C2391 C 0.4458 0.19104 0.33837 0.0
C2392 C 0.4195 0.21309 0.3142 0.0
C2393 C 0.44983 0.1769 0.33384 0.0
C2394 C 0.41159 0.27569 0.35393 0.0
C2395 C 0.40942 0.25816 0.34786 0.0
C2396 C 0.42613 0.22664 0.36901 0.0
C2397 C 0.42974 0.19002 0.32697 0.0
C2398 C 0.42506 0.2046 0.33449 0.0
C2399 C 0.42345 0.25412 0.35505 0.0
C2400 C 0.42181 0.23591 0.34843 0.0
H2401 H 0.41317 0.14884 0.29194 0.0
H2402 H 0.40594 0.17385 0.30015 0.0
H2403 H 0.4314 0.20458 0.37848 0.0
H2404 H 0.45452 0.29571 0.38408 0.0
H2405 H 0.45067 0.26517 0.37405 0.0
C2406 C 0.84065 0.26142 0.30309 0.0
C2407 C 0.8396 0.27634 0.31512 0.0
C2408 C 0.8266 0.24298 0.30824 0.0
C2409 C 0.79039 0.21647 0.36112 0.0
H2410 H 0.76692 0.17776 0.3052 0.0
C2411 C 0.71628 0.15666 0.37227 0.0
C2412 C 0.71211 0.13856 0.36547 0.0
C2413 C 0.7339 0.17172 0.36701 0.0
C2414 C 0.77357 0.18837 0.32109 0.0
H2415 H 0.82236 0.28364 0.34011 0.0
H2416 H 0.79802 0.25197 0.34832 0.0
H2417 H 0.7938 0.20789 0.29233 0.0
H2418 H 0.72314 0.12167 0.34942 0.0
H2419 H 0.75424 0.14839 0.3393 0.0
H2420 H 0.76971 0.19746 0.38947 0.0
C2421 C 0.80987 0.25429 0.33582 0.0
C2422 C 0.78894 0.20558 0.31374 0.0
C2423 C 0.82381 0.27251 0.3309 0.0
C2424 C 0.72608 0.13561 0.35439 0.0
C2425 C 0.74375 0.15082 0.34859 0.0
C2426 C 0.77501 0.19946 0.36831 0.0
C2427 C 0.81134 0.23927 0.3254 0.0
C2428 C 0.79705 0.22004 0.33349 0.0
C2429 C 0.74776 0.16902 0.3548 0.0
C2430 C 0.76604 0.18547 0.34817 0.0
H2431 H 0.85267 0.26396 0.29085 0.0
H2432 H 0.82803 0.23166 0.29975 0.0
H2433 H 0.79668 0.22712 0.37706 0.0
H2434 H 0.70578 0.15917 0.38133 0.0
H2435 H 0.73654 0.18559 0.37179 0.0
C2436 C 0.85836 0.58568 0.35467 0.0
C2437 C 0.85629 0.56905 0.36553 0.0
C2438 C 0.84263 0.58734 0.34938 0.0
C2439 C 0.79332 0.56717 0.36889 0.0
H2440 H 0.78589 0.58071 0.29439 0.0
C2441 C 0.72063 0.54562 0.331 0.0
C2442 C 0.71756 0.55859 0.31662 0.0
C2443 C 0.7386 0.54903 0.33575 0.0
C2444 C 0.78787 0.57717 0.31541 0.0
H2445 H 0.8367 0.5418 0.38168 0.0
H2446 H 0.80935 0.54467 0.37285 0.0
H2447 H 0.81602 0.58406 0.30716 0.0
H2448 H 0.73098 0.58495 0.29464 0.0
H2449 H 0.76274 0.59107 0.30326 0.0
H2450 H 0.76533 0.56018 0.37733 0.0
C2451 C 0.82293 0.55634 0.36791 0.0
C2452 C 0.80511 0.5791 0.32271 0.0
C2453 C 0.83854 0.55461 0.37274 0.0
C2454 C 0.73293 0.57468 0.30575 0.0
C2455 C 0.75108 0.57819 0.31073 0.0
C2456 C 0.77624 0.56539 0.36173 0.0
C2457 C 0.82474 0.57259 0.35579 0.0
C2458 C 0.80777 0.57353 0.34925 0.0
C2459 C 0.75408 0.56562 0.32655 0.0
C2460 C 0.77307 0.56976 0.33463 0.0
H2461 H 0.87203 0.59709 0.34943 0.0
H2462 H 0.84442 0.60006 0.34023 0.0
H2463 H 0.79509 0.56314 0.3897 0.0
H2464 H 0.7091 0.53294 0.33928 0.0
H2465 H 0.74037 0.53876 0.34721 0.0
C2466 C 0.60523 0.07923 0.81967 0.0
C2467 C 0.61967 0.09607 0.80914 0.0
C2468 C 0.58779 0.07735 0.82544 0.0
C2469 C 0.55853 0.09798 0.80839 0.0
H2470 H 0.53787 0.08295 0.88283 0.0
C2471 C 0.50968 0.12087 0.85128 0.0
C2472 C 0.49306 0.1076 0.86411 0.0
C2473 C 0.52382 0.11695 0.84585 0.0
C2474 C 0.54331 0.0869 0.86184 0.0
H2475 H 0.62701 0.12346 0.794 0.0
H2476 H 0.59679 0.12024 0.80371 0.0
H2477 H 0.56432 0.07943 0.86846 0.0
H2478 H 0.47874 0.08017 0.88287 0.0
H2479 H 0.50375 0.07323 0.87322 0.0
H2480 H 0.5379 0.10575 0.80173 0.0
C2481 C 0.59879 0.10854 0.80799 0.0
C2482 C 0.55842 0.08487 0.8536 0.0
C2483 C 0.61615 0.11048 0.80267 0.0
C2484 C 0.4914 0.09067 0.87299 0.0
C2485 C 0.50567 0.08669 0.8674 0.0
C2486 C 0.54349 0.09994 0.81653 0.0
C2487 C 0.58448 0.09209 0.81985 0.0
C2488 C 0.56657 0.09101 0.82711 0.0
C2489 C 0.52175 0.09959 0.85289 0.0
C2490 C 0.53611 0.09504 0.84365 0.0
H2491 H 0.60765 0.06785 0.82436 0.0
H2492 H 0.57697 0.06447 0.83438 0.0
H2493 H 0.56423 0.10244 0.78763 0.0
H2494 H 0.51156 0.13417 0.84458 0.0
H2495 H 0.53627 0.12741 0.83541 0.0
C2496 C 0.92075 0.52869 0.81869 0.0
C2497 C 0.90376 0.52574 0.80802 0.0
C2498 C 0.92308 0.51348 0.82503 0.0
C2499 C 0.91785 0.47755 0.853 0.0
H2500 H 0.89916 0.43646 0.80065 0.0
C2501 C 0.90177 0.4022 0.88002 0.0
C2502 C 0.90459 0.39237 0.85851 0.0
C2503 C 0.90505 0.4203 0.87517 0.0
C2504 C 0.90468 0.44787 0.81544 0.0
H2505 H 0.87651 0.50506 0.79328 0.0
H2506 H 0.88049 0.47858 0.8041 0.0
H2507 H 0.89862 0.4645 0.78813 0.0
H2508 H 0.91458 0.39411 0.8162 0.0
H2509 H 0.92088 0.42565 0.80809 0.0
H2510 H 0.92377 0.46066 0.88041 0.0
C2511 C 0.89195 0.49247 0.80808 0.0
C2512 C 0.90418 0.46389 0.80833 0.0
C2513 C 0.88959 0.50759 0.80211 0.0
C2514 C 0.91208 0.40135 0.833 0.0
C2515 C 0.91557 0.41936 0.82831 0.0
C2516 C 0.91827 0.46139 0.86023 0.0
C2517 C 0.90862 0.4952 0.81997 0.0
C2518 C 0.91057 0.47885 0.82708 0.0
C2519 C 0.91132 0.42876 0.84884 0.0
C2520 C 0.91165 0.44634 0.84149 0.0
H2521 H 0.93197 0.54267 0.82289 0.0
H2522 H 0.93616 0.516 0.83383 0.0
H2523 H 0.92275 0.48882 0.86797 0.0
H2524 H 0.8959 0.3955 0.89981 0.0
H2525 H 0.90163 0.42717 0.89141 0.0
C2526 C 0.59845 0.50594 0.87634 0.0
C2527 C 0.6137 0.50471 0.86621 0.0
C2528 C 0.58019 0.49148 0.87128 0.0
C2529 C 0.55506 0.45397 0.82005 0.0
H2530 H 0.51464 0.43244 0.87356 0.0
C2531 C 0.49217 0.3817 0.80505 0.0
C2532 C 0.47445 0.37833 0.81253 0.0
C2533 C 0.50786 0.39881 0.81081 0.0
C2534 C 0.52572 0.43854 0.85828 0.0
H2535 H 0.6218 0.48675 0.84495 0.0
H2536 H 0.59033 0.46171 0.83669 0.0
H2537 H 0.54481 0.45886 0.88739 0.0
H2538 H 0.45886 0.39037 0.8301 0.0
H2539 H 0.4866 0.42057 0.84082 0.0
H2540 H 0.53636 0.43351 0.79119 0.0
C2541 C 0.59231 0.47398 0.84772 0.0
C2542 C 0.54298 0.45362 0.86622 0.0
C2543 C 0.61038 0.48831 0.85263 0.0
C2544 C 0.4725 0.39266 0.82462 0.0
C2545 C 0.48832 0.40983 0.83079 0.0
C2546 C 0.53795 0.43896 0.81221 0.0
C2547 C 0.57699 0.47563 0.85606 0.0
C2548 C 0.55799 0.46111 0.84738 0.0
C2549 C 0.50618 0.413 0.82409 0.0
C2550 C 0.52325 0.4307 0.83144 0.0
H2551 H 0.60058 0.51842 0.88684 0.0
H2552 H 0.56864 0.49309 0.87809 0.0
H2553 H 0.56618 0.45977 0.80479 0.0
H2554 H 0.49393 0.37092 0.79518 0.0
H2555 H 0.5214 0.4007 0.80563 0.0
C2556 C 0.55231 0.7097 0.63969 0.0
C2557 C 0.56749 0.70739 0.6461 0.0
C2558 C 0.553 0.72652 0.64524 0.0
C2559 C 0.57498 0.76742 0.69038 0.0
H2560 H 0.55497 0.78747 0.6362 0.0
C2561 C 0.57263 0.83623 0.70616 0.0
C2562 C 0.55686 0.83618 0.69533 0.0
C2563 C 0.57528 0.82101 0.70156 0.0
C2564 C 0.56041 0.78196 0.65174 0.0
H2565 H 0.59577 0.72098 0.66147 0.0
H2566 H 0.59693 0.75061 0.67188 0.0
H2567 H 0.55777 0.76055 0.62406 0.0
H2568 H 0.53087 0.8196 0.67316 0.0
H2569 H 0.53516 0.79309 0.66601 0.0
H2570 H 0.57716 0.78865 0.71834 0.0
C2571 C 0.5844 0.73928 0.66291 0.0
C2572 C 0.5621 0.76658 0.64469 0.0
C2573 C 0.58378 0.72244 0.65691 0.0
C2574 C 0.54332 0.82022 0.6814 0.0
C2575 C 0.54586 0.80505 0.67709 0.0
C2576 C 0.57315 0.78281 0.69757 0.0
C2577 C 0.56895 0.74142 0.65726 0.0
C2578 C 0.56906 0.75891 0.66407 0.0
C2579 C 0.56214 0.80547 0.68623 0.0
C2580 C 0.56547 0.79 0.67849 0.0
H2581 H 0.53976 0.69836 0.6307 0.0
H2582 H 0.54083 0.72768 0.64081 0.0
H2583 H 0.58037 0.76176 0.70575 0.0
H2584 H 0.58332 0.84837 0.71692 0.0
H2585 H 0.58797 0.82175 0.70893 0.0
C2586 C 0.16584 0.73357 0.66331 0.0
C2587 C 0.16181 0.72564 0.69012 0.0
C2588 C 0.18125 0.75108 0.65879 0.0
C2589 C 0.21787 0.7941 0.69258 0.0
H2590 H 0.24485 0.79643 0.6251 0.0
C2591 C 0.29407 0.84336 0.63761 0.0
C2592 C 0.29635 0.86103 0.64244 0.0
C2593 C 0.27726 0.8274 0.64389 0.0
C2594 C 0.2376 0.79603 0.64413 0.0
H2595 H 0.17021 0.7302 0.73356 0.0
H2596 H 0.19772 0.76094 0.72554 0.0
H2597 H 0.21653 0.76795 0.63668 0.0
H2598 H 0.28266 0.87613 0.6554 0.0
H2599 H 0.25298 0.84808 0.66649 0.0
H2600 H 0.23948 0.82219 0.70028 0.0
C2601 C 0.18873 0.75361 0.70807 0.0
C2602 C 0.22118 0.77973 0.65062 0.0
C2603 C 0.17302 0.73603 0.71269 0.0
C2604 C 0.28125 0.86257 0.65217 0.0
C2605 C 0.26438 0.84655 0.65865 0.0
C2606 C 0.23444 0.81049 0.68609 0.0
C2607 C 0.19328 0.76107 0.68086 0.0
C2608 C 0.21099 0.77855 0.67478 0.0
C2609 C 0.26225 0.82877 0.65479 0.0
C2610 C 0.24448 0.81162 0.66175 0.0
H2611 H 0.15723 0.72602 0.64559 0.0
H2612 H 0.18396 0.75662 0.63774 0.0
H2613 H 0.21035 0.79368 0.71131 0.0
H2614 H 0.30541 0.8419 0.62933 0.0
H2615 H 0.27619 0.81398 0.6408 0.0
C2616 C 0.26546 0.42793 0.70811 0.0
C2617 C 0.28088 0.44299 0.69526 0.0
C2618 C 0.24766 0.42586 0.7055 0.0
C2619 C 0.2244 0.45274 0.69012 0.0
H2620 H 0.18319 0.40657 0.66255 0.0
C2621 C 0.16026 0.45168 0.64481 0.0
C2622 C 0.1427 0.43611 0.64938 0.0
C2623 C 0.17634 0.45123 0.6517 0.0
C2624 C 0.19442 0.4195 0.67068 0.0
H2625 H 0.28976 0.46789 0.67031 0.0
H2626 H 0.25912 0.4644 0.66617 0.0
H2627 H 0.21252 0.40808 0.67472 0.0
H2628 H 0.12794 0.40741 0.66282 0.0
H2629 H 0.15609 0.40673 0.67632 0.0
H2630 H 0.20691 0.46444 0.68564 0.0
C2631 C 0.26064 0.45417 0.67816 0.0
C2632 C 0.21123 0.42032 0.67768 0.0
C2633 C 0.27823 0.4561 0.68043 0.0
C2634 C 0.14142 0.41968 0.65959 0.0
C2635 C 0.15756 0.41931 0.66711 0.0
C2636 C 0.20772 0.45193 0.6832 0.0
C2637 C 0.24513 0.439 0.69048 0.0
C2638 C 0.22651 0.4371 0.68685 0.0
C2639 C 0.17525 0.43521 0.66369 0.0
C2640 C 0.19257 0.43543 0.67284 0.0
H2641 H 0.26705 0.41756 0.71955 0.0
H2642 H 0.23592 0.41406 0.71526 0.0
H2643 H 0.23586 0.46581 0.69752 0.0
H2644 H 0.16155 0.46432 0.63607 0.0
H2645 H 0.18963 0.46354 0.64769 0.0
C2646 C 0.38797 0.91379 0.17926 0.0
C2647 C 0.3735 0.89788 0.19189 0.0
C2648 C 0.40448 0.91417 0.17155 0.0
C2649 C 0.42251 0.88152 0.1595 0.0
H2650 H 0.47108 0.92592 0.1631 0.0
C2651 C 0.48882 0.87761 0.16383 0.0
C2652 C 0.50427 0.88984 0.14762 0.0
C2653 C 0.47329 0.87979 0.16573 0.0
C2654 C 0.45755 0.9135 0.16149 0.0
H2655 H 0.36537 0.87076 0.20898 0.0
H2656 H 0.39418 0.87164 0.19698 0.0
H2657 H 0.44331 0.9278 0.17458 0.0
H2658 H 0.51544 0.91401 0.12055 0.0
H2659 H 0.48801 0.91791 0.1241 0.0
H2660 H 0.43665 0.86713 0.14714 0.0
C2661 C 0.39268 0.88345 0.19135 0.0
C2662 C 0.44162 0.91454 0.16811 0.0
C2663 C 0.37618 0.88296 0.19847 0.0
C2664 C 0.50371 0.9043 0.13308 0.0
C2665 C 0.48811 0.90662 0.13527 0.0
C2666 C 0.4383 0.8805 0.15289 0.0
C2667 C 0.4069 0.89882 0.17708 0.0
C2668 C 0.42389 0.89843 0.16783 0.0
C2669 C 0.47274 0.89432 0.1516 0.0
C2670 C 0.45603 0.89634 0.15453 0.0
H2671 H 0.38623 0.92557 0.17439 0.0
H2672 H 0.41506 0.92624 0.16058 0.0
H2673 H 0.40922 0.86885 0.15855 0.0
H2674 H 0.48869 0.86629 0.1753 0.0
H2675 H 0.46179 0.87023 0.17877 0.0
C2676 C 0.08286 0.59521 0.17242 0.0
C2677 C 0.09147 0.6048 0.14775 0.0
C2678 C 0.07933 0.57715 0.17675 0.0
C2679 C 0.07862 0.53604 0.14498 0.0
H2680 H 0.0962 0.53229 0.21849 0.0
C2681 C 0.07668 0.46899 0.18731 0.0
C2682 C 0.09368 0.47236 0.19858 0.0
C2683 C 0.07399 0.48395 0.18063 0.0
C2684 C 0.0912 0.53307 0.19792 0.0
H2685 H 0.1021 0.60272 0.10746 0.0
H2686 H 0.09625 0.57094 0.11525 0.0
H2687 H 0.09533 0.56016 0.20587 0.0
H2688 H 0.12055 0.49349 0.21392 0.0
H2689 H 0.11589 0.5195 0.20263 0.0
H2690 H 0.07501 0.50894 0.13704 0.0
C2691 C 0.092 0.57738 0.13108 0.0
C2692 C 0.09052 0.54899 0.19073 0.0
C2693 C 0.09534 0.59553 0.12658 0.0
C2694 C 0.10747 0.49065 0.20467 0.0
C2695 C 0.10473 0.50549 0.19841 0.0
C2696 C 0.07918 0.51995 0.15231 0.0
C2697 C 0.08463 0.56831 0.15673 0.0
C2698 C 0.08434 0.55076 0.16415 0.0
C2699 C 0.08807 0.50236 0.18599 0.0
C2700 C 0.08574 0.51846 0.17874 0.0
H2701 H 0.07956 0.60202 0.18894 0.0
H2702 H 0.0732 0.57039 0.19641 0.0
H2703 H 0.07376 0.53697 0.12438 0.0
H2704 H 0.06576 0.45491 0.1829 0.0
H2705 H 0.06094 0.48114 0.17136 0.0
C2706 C 0.52948 0.60934 0.19091 0.0
C2707 C 0.52734 0.62413 0.20052 0.0
C2708 C 0.51379 0.59222 0.18422 0.0
C2709 C 0.46295 0.56459 0.19639 0.0
H2710 H 0.46084 0.5417 0.12474 0.0
C2711 C 0.39354 0.51509 0.14824 0.0
C2712 C 0.3903 0.49737 0.14061 0.0
C2713 C 0.41151 0.52958 0.15312 0.0
C2714 C 0.46134 0.54784 0.14492 0.0
H2715 H 0.50755 0.63239 0.21337 0.0
H2716 H 0.48025 0.60275 0.20174 0.0
H2717 H 0.49023 0.56834 0.14073 0.0
H2718 H 0.40344 0.48127 0.13005 0.0
H2719 H 0.4353 0.50697 0.13868 0.0
H2720 H 0.43411 0.54449 0.20046 0.0
C2721 C 0.49386 0.60421 0.19891 0.0
C2722 C 0.47813 0.56305 0.15411 0.0
C2723 C 0.50946 0.62127 0.20526 0.0
C2724 C 0.40558 0.49484 0.13576 0.0
C2725 C 0.42376 0.50947 0.14082 0.0
C2726 C 0.44628 0.54953 0.18723 0.0
C2727 C 0.4958 0.58955 0.18788 0.0
C2728 C 0.47894 0.57191 0.17961 0.0
C2729 C 0.42673 0.52672 0.15071 0.0
C2730 C 0.44515 0.54133 0.16108 0.0
H2731 H 0.54323 0.61122 0.18769 0.0
H2732 H 0.51572 0.58111 0.17613 0.0
H2733 H 0.4632 0.57076 0.21645 0.0
H2734 H 0.38206 0.51753 0.15185 0.0
H2735 H 0.41343 0.54286 0.16005 0.0
C2736 C 0.11671 0.62315 0.70404 0.0
C2737 C 0.10212 0.62674 0.69961 0.0
C2738 C 0.11436 0.60564 0.69823 0.0
C2739 C 0.10257 0.5649 0.6995 0.0
H2740 H 0.07855 0.53932 0.6308 0.0
C2741 C 0.09055 0.49236 0.67906 0.0
C2742 C 0.09641 0.48935 0.65304 0.0
C2743 C 0.08824 0.50767 0.68333 0.0
C2744 C 0.08531 0.54634 0.65001 0.0
H2745 H 0.07325 0.61474 0.68767 0.0
H2746 H 0.06906 0.58385 0.67711 0.0
H2747 H 0.08067 0.56917 0.64213 0.0
H2748 H 0.10331 0.4993 0.61049 0.0
H2749 H 0.09955 0.52656 0.61807 0.0
H2750 H 0.10759 0.5425 0.70732 0.0
C2751 C 0.08245 0.59473 0.6845 0.0
C2752 C 0.08639 0.56332 0.65661 0.0
C2753 C 0.08478 0.61229 0.69065 0.0
C2754 C 0.09872 0.5013 0.63072 0.0
C2755 C 0.09657 0.51687 0.63509 0.0
C2756 C 0.10142 0.54799 0.69302 0.0
C2757 C 0.09729 0.59128 0.68804 0.0
C2758 C 0.09517 0.57283 0.68136 0.0
C2759 C 0.09199 0.52055 0.66178 0.0
C2760 C 0.09278 0.53847 0.66823 0.0
H2761 H 0.13006 0.63401 0.71164 0.0
H2762 H 0.12609 0.60349 0.70106 0.0
H2763 H 0.10929 0.57178 0.71882 0.0
H2764 H 0.08842 0.48319 0.69654 0.0
H2765 H 0.0842 0.50981 0.70391 0.0
C2766 C 0.39209 0.47206 0.68974 0.0
C2767 C 0.37804 0.47507 0.70021 0.0
C2768 C 0.40971 0.48724 0.68372 0.0
C2769 C 0.44079 0.52309 0.65637 0.0
H2770 H 0.46269 0.56428 0.7086 0.0
C2771 C 0.50087 0.59806 0.62959 0.0
C2772 C 0.51324 0.60792 0.65136 0.0
C2773 C 0.48581 0.5801 0.63442 0.0
C2774 C 0.45695 0.55284 0.69386 0.0
H2775 H 0.37151 0.49578 0.71498 0.0
H2776 H 0.40209 0.52219 0.70464 0.0
H2777 H 0.43402 0.53629 0.72078 0.0
H2778 H 0.52075 0.60641 0.69421 0.0
H2779 H 0.49511 0.57508 0.70232 0.0
H2780 H 0.46391 0.53988 0.62941 0.0
C2781 C 0.39963 0.5083 0.70059 0.0
C2782 C 0.44036 0.53685 0.70075 0.0
C2783 C 0.38208 0.49322 0.70628 0.0
C2784 C 0.51121 0.59914 0.67722 0.0
C2785 C 0.49646 0.58125 0.68189 0.0
C2786 C 0.45747 0.53922 0.64938 0.0
C2787 C 0.41359 0.50553 0.68889 0.0
C2788 C 0.43197 0.52186 0.68203 0.0
C2789 C 0.48311 0.5718 0.661 0.0
C2790 C 0.46571 0.55429 0.66808 0.0
H2791 H 0.38928 0.45808 0.68544 0.0
H2792 H 0.42028 0.48468 0.67507 0.0
H2793 H 0.43456 0.51181 0.64141 0.0
H2794 H 0.50217 0.60462 0.60952 0.0
H2795 H 0.47576 0.57319 0.61789 0.0
C2796 C 0.4057 0.90446 0.62527 0.0
C2797 C 0.396 0.90747 0.64675 0.0
C2798 C 0.42368 0.90747 0.63016 0.0
C2799 C 0.45115 0.90696 0.69007 0.0
H2800 H 0.49167 0.92369 0.63703 0.0
C2801 C 0.53113 0.92073 0.68627 0.0
C2802 C 0.52767 0.90362 0.69721 0.0
C2803 C 0.51625 0.92359 0.6799 0.0
C2804 C 0.48054 0.91919 0.65214 0.0
H2805 H 0.3978 0.91747 0.68906 0.0
H2806 H 0.4292 0.92337 0.69724 0.0
H2807 H 0.46384 0.92533 0.62467 0.0
H2808 H 0.50647 0.87671 0.71234 0.0
H2809 H 0.48059 0.88161 0.70146 0.0
H2810 H 0.46758 0.9007 0.71744 0.0
C2811 C 0.42289 0.91809 0.67702 0.0
C2812 C 0.46455 0.91996 0.64497 0.0
C2813 C 0.40496 0.91483 0.67229 0.0
C2814 C 0.50938 0.88987 0.70331 0.0
C2815 C 0.4946 0.89276 0.69731 0.0
C2816 C 0.46699 0.90615 0.69714 0.0
C2817 C 0.43217 0.91368 0.6565 0.0
C2818 C 0.44964 0.91377 0.66386 0.0
C2819 C 0.49781 0.90954 0.68522 0.0
C2820 C 0.48178 0.91203 0.67819 0.0
H2821 H 0.39897 0.89868 0.60545 0.0
H2822 H 0.43044 0.9039 0.61394 0.0
H2823 H 0.43984 0.90176 0.70499 0.0
H2824 H 0.54523 0.93162 0.6819 0.0
H2825 H 0.51913 0.93674 0.67091 0.0
C2826 C 0.16177 0.42853 0.21245 0.0
C2827 C 0.16086 0.44288 0.19818 0.0
C2828 C 0.17766 0.42671 0.21023 0.0
C2829 C 0.22747 0.45376 0.19211 0.0
H2830 H 0.22306 0.40681 0.16983 0.0
C2831 C 0.28947 0.45225 0.14376 0.0
C2832 C 0.29254 0.43754 0.15015 0.0
C2833 C 0.27299 0.45156 0.15169 0.0
C2834 C 0.22459 0.41998 0.17646 0.0
H2835 H 0.17614 0.46684 0.17111 0.0
H2836 H 0.20352 0.46375 0.16753 0.0
H2837 H 0.19514 0.40814 0.18221 0.0
H2838 H 0.28052 0.41004 0.16814 0.0
H2839 H 0.25175 0.409 0.18327 0.0
H2840 H 0.25654 0.46585 0.18556 0.0
C2841 C 0.19209 0.45389 0.1804 0.0
C2842 C 0.20857 0.42071 0.1836 0.0
C2843 C 0.17628 0.45558 0.18234 0.0
C2844 C 0.27848 0.42166 0.16343 0.0
C2845 C 0.262 0.42106 0.17189 0.0
C2846 C 0.24335 0.45305 0.18492 0.0
C2847 C 0.19297 0.43941 0.19413 0.0
C2848 C 0.20985 0.43773 0.19079 0.0
C2849 C 0.25919 0.43618 0.1665 0.0
C2850 C 0.24217 0.43627 0.17638 0.0
H2851 H 0.15007 0.41848 0.22469 0.0
H2852 H 0.178 0.41545 0.2211 0.0
H2853 H 0.22895 0.46703 0.19802 0.0
H2854 H 0.29994 0.46441 0.13275 0.0
H2855 H 0.27116 0.46319 0.14622 0.0
C2856 C 0.55461 0.8391 0.13898 0.0
C2857 C 0.56896 0.85718 0.14483 0.0
C2858 C 0.55678 0.82384 0.14472 0.0
C2859 C 0.56819 0.79473 0.14435 0.0
H2860 H 0.58967 0.79169 0.21476 0.0
C2861 C 0.57658 0.7321 0.16669 0.0
C2862 C 0.57077 0.72364 0.19297 0.0
C2863 C 0.57947 0.7499 0.16197 0.0
C2864 C 0.5836 0.79234 0.19506 0.0
H2865 H 0.59729 0.87383 0.15934 0.0
H2866 H 0.60119 0.84692 0.16974 0.0
H2867 H 0.58851 0.81989 0.2032 0.0
H2868 H 0.56437 0.72749 0.23543 0.0
H2869 H 0.56891 0.75871 0.22699 0.0
H2870 H 0.56261 0.76715 0.1364 0.0
C2871 C 0.5881 0.84456 0.16124 0.0
C2872 C 0.58312 0.80855 0.18831 0.0
C2873 C 0.58594 0.85991 0.1552 0.0
C2874 C 0.56889 0.73376 0.21499 0.0
C2875 C 0.57152 0.75162 0.21013 0.0
C2876 C 0.56865 0.77864 0.15104 0.0
C2877 C 0.57345 0.82634 0.15624 0.0
C2878 C 0.57525 0.80982 0.16295 0.0
C2879 C 0.57625 0.75961 0.18326 0.0
C2880 C 0.57634 0.77717 0.17646 0.0
H2881 H 0.54154 0.83674 0.13036 0.0
H2882 H 0.54517 0.81004 0.14082 0.0
H2883 H 0.56218 0.79531 0.12455 0.0
H2884 H 0.57842 0.72469 0.14946 0.0
H2885 H 0.58367 0.75583 0.14127 0.0
C2886 C 0.13828 0.71965 0.16111 0.0
C2887 C 0.14057 0.70494 0.15157 0.0
C2888 C 0.15366 0.73622 0.17047 0.0
C2889 C 0.20258 0.75478 0.19399 0.0
H2890 H 0.20825 0.80309 0.17761 0.0
C2891 C 0.27311 0.82013 0.18679 0.0
C2892 C 0.27615 0.8369 0.19874 0.0
C2893 C 0.25545 0.8045 0.18638 0.0
C2894 C 0.20665 0.78968 0.1829 0.0
H2895 H 0.16063 0.69648 0.14147 0.0
H2896 H 0.18749 0.72538 0.15695 0.0
H2897 H 0.17936 0.77481 0.16494 0.0
H2898 H 0.26295 0.85034 0.21992 0.0
H2899 H 0.23152 0.82269 0.21865 0.0
H2900 H 0.23005 0.76956 0.21093 0.0
C2901 C 0.17385 0.72398 0.15873 0.0
C2902 C 0.19013 0.77346 0.17557 0.0
C2903 C 0.1585 0.70742 0.14976 0.0
C2904 C 0.26103 0.83756 0.21075 0.0
C2905 C 0.24309 0.82184 0.20987 0.0
C2906 C 0.21896 0.77089 0.2013 0.0
C2907 C 0.17163 0.73849 0.16976 0.0
C2908 C 0.18813 0.75579 0.18028 0.0
C2909 C 0.2402 0.80517 0.19759 0.0
C2910 C 0.22143 0.7885 0.19503 0.0
H2911 H 0.12454 0.7181 0.16214 0.0
H2912 H 0.1514 0.74707 0.17878 0.0
H2913 H 0.20151 0.74152 0.1984 0.0
H2914 H 0.28438 0.81908 0.1773 0.0
H2915 H 0.25364 0.79197 0.17643 0.0
C2916 C 0.21201 0.20779 0.15169 0.0
C2917 C 0.22787 0.22089 0.13701 0.0
C2918 C 0.21127 0.20849 0.18087 0.0
C2919 C 0.23006 0.24097 0.23963 0.0
H2920 H 0.21242 0.19669 0.28515 0.0
C2921 C 0.23283 0.24456 0.36058 0.0
C2922 C 0.2191 0.2295 0.37589 0.0
C2923 C 0.23367 0.2436 0.33144 0.0
C2924 C 0.21707 0.20917 0.27282 0.0
H2925 H 0.25546 0.24489 0.14152 0.0
H2926 H 0.25404 0.24626 0.19251 0.0
H2927 H 0.21458 0.19455 0.23464 0.0
H2928 H 0.19506 0.20186 0.37248 0.0
H2929 H 0.19599 0.20045 0.32169 0.0
H2930 H 0.23208 0.25557 0.27747 0.0
C2931 C 0.24221 0.23543 0.18138 0.0
C2932 C 0.21842 0.20793 0.24381 0.0
C2933 C 0.24307 0.23455 0.15221 0.0
C2934 C 0.20587 0.21368 0.36132 0.0
C2935 C 0.20655 0.21281 0.33213 0.0
C2936 C 0.22847 0.24218 0.26859 0.0
C2937 C 0.22625 0.22248 0.19602 0.0
C2938 C 0.225 0.22382 0.2269 0.0
C2939 C 0.22064 0.22764 0.31675 0.0
C2940 C 0.222 0.22631 0.28568 0.0
H2941 H 0.20006 0.1971 0.1406 0.0
H2942 H 0.19874 0.19839 0.19153 0.0
H2943 H 0.23492 0.25342 0.2271 0.0
H2944 H 0.24334 0.25689 0.37118 0.0
H2945 H 0.24491 0.25522 0.32057 0.0
C2946 C 0.79257 0.0035 0.147 0.0
C2947 C 0.77961 0.00654 0.13255 0.0
C2948 C 0.79174 0.00164 0.17615 0.0
C2949 C 0.76989 0.00909 0.23983 0.0
H2950 H 0.78341 0.97502 0.27353 0.0
C2951 C 0.75515 0.98671 0.35612 0.0
C2952 C 0.77043 0.98844 0.3713 0.0
C2953 C 0.75595 0.98833 0.32693 0.0
C2954 C 0.77966 0.98464 0.26441 0.0
H2955 H 0.7556 0.01005 0.13741 0.0
H2956 H 0.7537 0.00619 0.18789 0.0
H2957 H 0.78564 0.97945 0.22302 0.0
H2958 H 0.79828 0.99258 0.36767 0.0
H2959 H 0.79947 0.99493 0.31672 0.0
H2960 H 0.76345 0.01382 0.28136 0.0
C2961 C 0.7649 0.00575 0.177 0.0
C2962 C 0.78106 0.98731 0.23541 0.0
C2963 C 0.76592 0.00789 0.14792 0.0
C2964 C 0.78627 0.99118 0.35659 0.0
C2965 C 0.78694 0.99248 0.3274 0.0
C2966 C 0.76823 0.00619 0.26876 0.0
C2967 C 0.77772 0.00248 0.1916 0.0
C2968 C 0.77627 0.99965 0.22264 0.0
C2969 C 0.77192 0.99139 0.31227 0.0
C2970 C 0.77316 0.99399 0.2814 0.0
H2971 H 0.80335 0.00247 0.13578 0.0
H2972 H 0.80214 0.99955 0.18652 0.0
H2973 H 0.76641 0.01899 0.23105 0.0
H2974 H 0.74278 0.98467 0.36683 0.0
H2975 H 0.7441 0.98727 0.31581 0.0
C2976 C 0.00974 0.7638 0.36056 0.0
C2977 C 0.00763 0.77728 0.37532 0.0
C2978 C 0.00849 0.76289 0.33135 0.0
C2979 C 0.01318 0.79032 0.26858 0.0
H2980 H 0.98023 0.74273 0.23391 0.0
C2981 C 0.99732 0.78517 0.15045 0.0
C2982 C 0.99498 0.76946 0.13585 0.0
C2983 C 0.99831 0.78582 0.17965 0.0
C2984 C 0.98973 0.7561 0.24309 0.0
H2985 H 0.00307 0.80069 0.37093 0.0
H2986 H 0.00135 0.79937 0.3199 0.0
H2987 H 0.98408 0.74473 0.28454 0.0
H2988 H 0.99171 0.74202 0.14048 0.0
H2989 H 0.99408 0.74333 0.19128 0.0
H2990 H 0.01933 0.80171 0.22736 0.0
C2991 C 0.00382 0.78943 0.33096 0.0
C2992 C 0.99187 0.75723 0.27219 0.0
C2993 C 0.00476 0.79015 0.36018 0.0
C2994 C 0.99337 0.75428 0.15113 0.0
C2995 C 0.99466 0.75503 0.18036 0.0
C2996 C 0.01127 0.78916 0.23947 0.0
C2997 C 0.00542 0.77564 0.31623 0.0
C2998 C 0.00354 0.77436 0.28526 0.0
C2999 C 0.99732 0.77089 0.19508 0.0
C3000 C 0.99942 0.77205 0.22624 0.0
H3001 H 0.01189 0.75364 0.37161 0.0
H3002 H 0.00993 0.75221 0.32055 0.0
H3003 H 0.02243 0.80368 0.27804 0.0
H3004 H 0.99847 0.79706 0.13929 0.0
H3005 H 0.99988 0.7981 0.19009 0.0
C3006 C 0.79054 0.79207 0.86401 0.0
C3007 C 0.77487 0.77888 0.87887 0.0
C3008 C 0.79116 0.79127 0.83481 0.0
C3009 C 0.76109 0.76921 0.77197 0.0
H3010 H 0.80832 0.78336 0.73649 0.0
C3011 C 0.76731 0.75486 0.65499 0.0
C3012 C 0.78069 0.77015 0.63962 0.0
C3013 C 0.76683 0.75565 0.68421 0.0
C3014 C 0.79505 0.77944 0.7461 0.0
H3015 H 0.74752 0.7545 0.87468 0.0
H3016 H 0.74877 0.7527 0.82406 0.0
H3017 H 0.8068 0.78545 0.78714 0.0
H3018 H 0.80441 0.79804 0.64293 0.0
H3019 H 0.80381 0.79923 0.69393 0.0
H3020 H 0.74935 0.76275 0.73078 0.0
C3021 C 0.76045 0.76402 0.83471 0.0
C3022 C 0.79416 0.78075 0.77518 0.0
C3023 C 0.75974 0.76499 0.86386 0.0
C3024 C 0.79393 0.78602 0.65415 0.0
C3025 C 0.79362 0.78669 0.68337 0.0
C3026 C 0.76195 0.76765 0.74294 0.0
C3027 C 0.77622 0.77709 0.81971 0.0
C3028 C 0.77718 0.77573 0.78859 0.0
C3029 C 0.7799 0.77163 0.69871 0.0
C3030 C 0.77895 0.77281 0.72966 0.0
H3031 H 0.80239 0.80301 0.87496 0.0
H3032 H 0.80338 0.80185 0.82413 0.0
H3033 H 0.74781 0.76554 0.78128 0.0
H3034 H 0.75689 0.74246 0.64441 0.0
H3035 H 0.75619 0.74376 0.69548 0.0
C3036 C 0.21042 0.00479 0.64742 0.0
C3037 C 0.22637 0.00749 0.63311 0.0
C3038 C 0.20936 0.00312 0.67661 0.0
C3039 C 0.22775 0.98917 0.7358 0.0
H3040 H 0.21113 0.01676 0.78115 0.0
C3041 C 0.23247 0.99019 0.85667 0.0
C3042 C 0.21908 0.99193 0.87226 0.0
C3043 C 0.23283 0.99152 0.82746 0.0
C3044 C 0.21549 0.00865 0.76887 0.0
H3045 H 0.25378 0.01072 0.6383 0.0
H3046 H 0.25181 0.00757 0.6891 0.0
H3047 H 0.21268 0.02042 0.73052 0.0
H3048 H 0.19515 0.99573 0.86934 0.0
H3049 H 0.19525 0.99724 0.81853 0.0
H3050 H 0.23015 0.97701 0.77383 0.0
C3051 C 0.24013 0.00675 0.67776 0.0
C3052 C 0.21646 0.01086 0.73979 0.0
C3053 C 0.24131 0.0087 0.64866 0.0
C3054 C 0.20573 0.99445 0.85794 0.0
C3055 C 0.20592 0.9955 0.82874 0.0
C3056 C 0.22652 0.98674 0.76483 0.0
C3057 C 0.22411 0.00383 0.69206 0.0
C3058 C 0.22273 0.00125 0.72294 0.0
C3059 C 0.21966 0.99436 0.81302 0.0
C3060 C 0.22048 0.99653 0.78188 0.0
H3061 H 0.19866 0.00377 0.63605 0.0
H3062 H 0.1968 0.0008 0.68704 0.0
H3063 H 0.23239 0.98137 0.72332 0.0
H3064 H 0.24305 0.9884 0.86708 0.0
H3065 H 0.24382 0.99083 0.81631 0.0
C3066 C 0.99156 0.20487 0.64973 0.0
C3067 C 0.98846 0.21765 0.63476 0.0
C3068 C 0.99307 0.20585 0.67891 0.0
C3069 C 0.00656 0.23882 0.73691 0.0
H3070 H 0.98038 0.19498 0.78343 0.0
C3071 C 0.00843 0.2434 0.85804 0.0
C3072 C 0.00713 0.22837 0.87338 0.0
C3073 C 0.00641 0.2423 0.82889 0.0
C3074 C 0.9881 0.20736 0.77082 0.0
H3075 H 0.98428 0.24133 0.63877 0.0
H3076 H 0.98721 0.24319 0.6897 0.0
H3077 H 0.97586 0.1923 0.73299 0.0
H3078 H 0.00349 0.20071 0.87008 0.0
H3079 H 0.00083 0.19907 0.81941 0.0
H3080 H 0.01927 0.25385 0.77442 0.0
C3081 C 0.98841 0.23239 0.67882 0.0
C3082 C 0.98537 0.20579 0.74186 0.0
C3083 C 0.98659 0.23123 0.64967 0.0
C3084 C 0.00442 0.21249 0.85888 0.0
C3085 C 0.00269 0.21149 0.82975 0.0
C3086 C 0.00952 0.24036 0.76585 0.0
C3087 C 0.99182 0.21981 0.69374 0.0
C3088 C 0.99453 0.2215 0.72458 0.0
C3089 C 0.0033 0.22623 0.81431 0.0
C3090 C 0.00032 0.22464 0.7833 0.0
H3091 H 0.9931 0.19427 0.63887 0.0
H3092 H 0.99578 0.19601 0.68982 0.0
H3093 H 0.014 0.25115 0.72408 0.0
H3094 H 0.01035 0.25578 0.86862 0.0
H3095 H 0.00673 0.25387 0.81797 0.0
C3096 C 0.91005 0.5681 0.48075 0.0
C3097 C 0.89469 0.55434 0.46592 0.0
C3098 C 0.90962 0.56891 0.50998 0.0
C3099 C 0.88708 0.54114 0.57271 0.0
H3100 H 0.90007 0.5884 0.6071 0.0
C3101 C 0.87479 0.54588 0.69045 0.0
C3102 C 0.88777 0.56174 0.70519 0.0
C3103 C 0.87545 0.54523 0.66126 0.0
C3104 C 0.89666 0.57513 0.598 0.0
H3105 H 0.8671 0.53031 0.47019 0.0
H3106 H 0.86656 0.53147 0.52119 0.0
H3107 H 0.90251 0.58651 0.55657 0.0
H3108 H 0.91155 0.58946 0.70081 0.0
H3109 H 0.91315 0.58818 0.65009 0.0
H3110 H 0.88169 0.52975 0.61395 0.0
C3111 C 0.87886 0.5417 0.51021 0.0
C3112 C 0.89802 0.57406 0.56896 0.0
C3113 C 0.87916 0.54107 0.48099 0.0
C3114 C 0.90125 0.57708 0.69005 0.0
C3115 C 0.9021 0.57635 0.66087 0.0
C3116 C 0.88598 0.54224 0.60178 0.0
C3117 C 0.89397 0.55579 0.52502 0.0
C3118 C 0.89315 0.55704 0.55597 0.0
C3119 C 0.88931 0.56034 0.64601 0.0
C3120 C 0.89063 0.55923 0.6149 0.0
H3121 H 0.92219 0.57857 0.46975 0.0
H3122 H 0.92154 0.57983 0.52084 0.0
H3123 H 0.88341 0.52786 0.56333 0.0
H3124 H 0.86415 0.53386 0.70149 0.0
H3125 H 0.86506 0.53283 0.6507 0.0
C3126 C 0.45543 0.33815 0.48493 0.0
C3127 C 0.44234 0.34074 0.47001 0.0
C3128 C 0.45472 0.33693 0.51411 0.0
C3129 C 0.43324 0.34543 0.57712 0.0
H3130 H 0.44715 0.312 0.61208 0.0
C3131 C 0.4206 0.3255 0.6947 0.0
C3132 C 0.43603 0.32716 0.70937 0.0
C3133 C 0.42092 0.32676 0.66548 0.0
C3134 C 0.44331 0.32145 0.60263 0.0
H3135 H 0.41829 0.34425 0.47407 0.0
H3136 H 0.41662 0.34153 0.52485 0.0
H3137 H 0.44863 0.31533 0.56144 0.0
H3138 H 0.46369 0.33093 0.70482 0.0
H3139 H 0.46406 0.33269 0.65383 0.0
H3140 H 0.42748 0.35111 0.61854 0.0
C3141 C 0.42778 0.34089 0.51418 0.0
C3142 C 0.44426 0.32349 0.57354 0.0
C3143 C 0.42867 0.34239 0.48497 0.0
C3144 C 0.45157 0.32959 0.69414 0.0
C3145 C 0.45177 0.33055 0.66493 0.0
C3146 C 0.43204 0.34318 0.60621 0.0
C3147 C 0.4407 0.33795 0.5292 0.0
C3148 C 0.43939 0.33563 0.56031 0.0
C3149 C 0.43655 0.32938 0.65028 0.0
C3150 C 0.43718 0.33127 0.6193 0.0
H3151 H 0.46623 0.33696 0.47404 0.0
H3152 H 0.46522 0.33516 0.5248 0.0
H3153 H 0.42964 0.35513 0.56793 0.0
H3154 H 0.40845 0.32369 0.70582 0.0
H3155 H 0.40893 0.32566 0.65474 0.0
C3156 C 0.6689 0.12507 0.69234 0.0
C3157 C 0.67191 0.11226 0.70736 0.0
C3158 C 0.66795 0.12442 0.6631 0.0
C3159 C 0.65596 0.09231 0.60433 0.0
H3160 H 0.68375 0.13663 0.5593 0.0
C3161 C 0.65759 0.08878 0.48345 0.0
C3162 C 0.65951 0.10398 0.46786 0.0
C3163 C 0.65881 0.08969 0.51267 0.0
C3164 C 0.67558 0.12413 0.57146 0.0
H3165 H 0.67643 0.08879 0.70343 0.0
H3166 H 0.67442 0.08745 0.65239 0.0
H3167 H 0.68676 0.13872 0.61 0.0
H3168 H 0.66352 0.1318 0.47073 0.0
H3169 H 0.66477 0.13312 0.52155 0.0
H3170 H 0.64426 0.07775 0.56613 0.0
C3171 C 0.67289 0.09805 0.66328 0.0
C3172 C 0.67745 0.12535 0.60058 0.0
C3173 C 0.67417 0.09891 0.69248 0.0
C3174 C 0.66211 0.11989 0.48215 0.0
C3175 C 0.66302 0.1207 0.51136 0.0
C3176 C 0.65384 0.09113 0.57524 0.0
C3177 C 0.66967 0.11073 0.64828 0.0
C3178 C 0.66772 0.10945 0.61733 0.0
C3179 C 0.66169 0.10574 0.52711 0.0
C3180 C 0.66367 0.10701 0.55829 0.0
H3181 H 0.66709 0.13552 0.70319 0.0
H3182 H 0.66538 0.13432 0.65211 0.0
H3183 H 0.64809 0.07985 0.61674 0.0
H3184 H 0.65574 0.07638 0.47304 0.0
H3185 H 0.658 0.07797 0.52381 0.0
C3186 C 0.45563 0.12763 0.19425 0.0
C3187 C 0.4399 0.1147 0.20928 0.0
C3188 C 0.45612 0.12669 0.16505 0.0
C3189 C 0.42572 0.10482 0.10244 0.0
H3190 H 0.47263 0.11782 0.06684 0.0
C3191 C 0.43139 0.09031 0.98521 0.0
C3192 C 0.44509 0.10546 0.96997 0.0
C3193 C 0.4309 0.09102 0.01445 0.0
C3194 C 0.45945 0.11422 0.07648 0.0
H3195 H 0.41228 0.09068 0.20538 0.0
H3196 H 0.41328 0.08865 0.15476 0.0
H3197 H 0.47127 0.12012 0.11747 0.0
H3198 H 0.46934 0.13298 0.97353 0.0
H3199 H 0.46871 0.13402 0.02451 0.0
H3200 H 0.4139 0.09851 0.06129 0.0
C3201 C 0.42513 0.09986 0.16527 0.0
C3202 C 0.45866 0.11565 0.10555 0.0
C3203 C 0.42457 0.10097 0.19443 0.0
C3204 C 0.45861 0.12107 0.98465 0.0
C3205 C 0.45829 0.12166 0.01386 0.0
C3206 C 0.42648 0.10315 0.0734 0.0
C3207 C 0.44097 0.11262 0.15011 0.0
C3208 C 0.4418 0.11107 0.119 0.0
C3209 C 0.44427 0.10676 0.0291 0.0
C3210 C 0.44337 0.10792 0.06007 0.0
H3211 H 0.46766 0.13844 0.20506 0.0
H3212 H 0.46841 0.13704 0.15424 0.0
H3213 H 0.41254 0.10147 0.11179 0.0
H3214 H 0.42074 0.07812 0.97452 0.0
H3215 H 0.42002 0.07926 0.02563 0.0
C3216 C 0.89836 0.32315 0.1914 0.0
C3217 C 0.88507 0.32516 0.20686 0.0
C3218 C 0.89909 0.32482 0.16225 0.0
C3219 C 0.8716 0.32187 0.10014 0.0
H3220 H 0.91959 0.35364 0.06578 0.0
C3221 C 0.87806 0.33902 0.98199 0.0
C3222 C 0.89351 0.34054 0.9676 0.0
C3223 C 0.8771 0.33771 0.0112 0.0
C3224 C 0.90609 0.34448 0.07487 0.0
H3225 H 0.86178 0.33 0.20368 0.0
H3226 H 0.86284 0.33255 0.1527 0.0
H3227 H 0.91744 0.34931 0.11627 0.0
H3228 H 0.92013 0.34197 0.97265 0.0
H3229 H 0.91826 0.33915 0.02332 0.0
H3230 H 0.86023 0.3166 0.05884 0.0
C3231 C 0.87276 0.32978 0.1632 0.0
C3232 C 0.90487 0.34206 0.1039 0.0
C3233 C 0.87219 0.32836 0.19241 0.0
C3234 C 0.90808 0.34096 0.9831 0.0
C3235 C 0.90703 0.33943 0.01227 0.0
C3236 C 0.87283 0.3241 0.07105 0.0
C3237 C 0.88639 0.32829 0.14781 0.0
C3238 C 0.88762 0.33074 0.11689 0.0
C3239 C 0.89146 0.33766 0.0268 0.0
C3240 C 0.8901 0.33546 0.05794 0.0
H3241 H 0.90852 0.32072 0.20187 0.0
H3242 H 0.90963 0.3234 0.15097 0.0
H3243 H 0.85812 0.31291 0.10949 0.0
H3244 H 0.86663 0.33874 0.97068 0.0
H3245 H 0.86506 0.33678 0.02152 0.0
C3246 C 0.68138 0.57702 0.19469 0.0
C3247 C 0.67092 0.56063 0.21025 0.0
C3248 C 0.68047 0.57665 0.16542 0.0
C3249 C 0.64979 0.55094 0.10713 0.0
H3250 H 0.69451 0.57249 0.06187 0.0
C3251 C 0.65066 0.56081 0.98636 0.0
C3252 C 0.66077 0.55429 0.97119 0.0
C3253 C 0.65157 0.56166 0.01562 0.0
C3254 C 0.68191 0.56643 0.07427 0.0
H3255 H 0.6513 0.53104 0.20727 0.0
H3256 H 0.64946 0.53052 0.15632 0.0
H3257 H 0.69704 0.57412 0.11294 0.0
H3258 H 0.67975 0.54359 0.97487 0.0
H3259 H 0.68159 0.54545 0.0258 0.0
H3260 H 0.63467 0.54339 0.06846 0.0
C3261 C 0.65843 0.5436 0.16675 0.0
C3262 C 0.68336 0.56747 0.10345 0.0
C3263 C 0.6596 0.5439 0.19592 0.0
C3264 C 0.67173 0.54861 0.98591 0.0
C3265 C 0.6729 0.54978 0.01507 0.0
C3266 C 0.64834 0.55021 0.07795 0.0
C3267 C 0.6688 0.55997 0.15118 0.0
C3268 C 0.66732 0.55956 0.12019 0.0
C3269 C 0.66289 0.55637 0.03024 0.0
C3270 C 0.66438 0.55778 0.06122 0.0
H3271 H 0.69022 0.59012 0.20513 0.0
H3272 H 0.68858 0.58948 0.15393 0.0
H3273 H 0.63719 0.54483 0.11953 0.0
H3274 H 0.64211 0.56531 0.97561 0.0
H3275 H 0.64374 0.56684 0.0268 0.0
C3276 C 0.56044 0.90807 0.02545 0.0
C3277 C 0.55277 0.89163 0.0413 0.0
C3278 C 0.56103 0.90741 0.9962 0.0
C3279 C 0.54104 0.87463 0.93573 0.0
H3280 H 0.58342 0.91358 0.89631 0.0
C3281 C 0.54292 0.87877 0.81523 0.0
C3282 C 0.56004 0.88543 0.80143 0.0
C3283 C 0.54212 0.87943 0.84436 0.0
C3284 C 0.57157 0.90244 0.90695 0.0
H3285 H 0.53972 0.8616 0.03881 0.0
H3286 H 0.54119 0.86045 0.98823 0.0
H3287 H 0.58183 0.91492 0.94695 0.0
H3288 H 0.58973 0.89769 0.80754 0.0
H3289 H 0.58833 0.89828 0.8585 0.0
H3290 H 0.53115 0.86173 0.89595 0.0
C3291 C 0.54634 0.87388 0.99811 0.0
C3292 C 0.5705 0.90338 0.93608 0.0
C3293 C 0.54558 0.87453 0.02725 0.0
C3294 C 0.57633 0.89248 0.81753 0.0
C3295 C 0.57552 0.89297 0.84677 0.0
C3296 C 0.5422 0.8736 0.90668 0.0
C3297 C 0.55413 0.8903 0.98209 0.0
C3298 C 0.5552 0.8895 0.95093 0.0
C3299 C 0.5584 0.88658 0.86063 0.0
C3300 C 0.55745 0.88751 0.89179 0.0
H3301 H 0.56606 0.92147 0.03563 0.0
H3302 H 0.56683 0.92035 0.98467 0.0
H3303 H 0.5289 0.86378 0.94622 0.0
H3304 H 0.53011 0.8734 0.80348 0.0
H3305 H 0.52871 0.8747 0.85405 0.0
C3306 C 0.12123 0.6615 0.02699 0.0
C3307 C 0.10545 0.65955 0.0409 0.0
C3308 C 0.12277 0.66346 0.99787 0.0
C3309 C 0.09486 0.65783 0.93332 0.0
H3310 H 0.1434 0.68989 0.9007 0.0
C3311 C 0.10446 0.68071 0.81742 0.0
C3312 C 0.11776 0.67851 0.80231 0.0
C3313 C 0.1034 0.67889 0.84656 0.0
C3314 C 0.12977 0.68082 0.9095 0.0
H3315 H 0.07889 0.65813 0.0351 0.0
H3316 H 0.08175 0.66211 0.98464 0.0
H3317 H 0.14044 0.68538 0.9512 0.0
H3318 H 0.14077 0.67329 0.80607 0.0
H3319 H 0.13915 0.67051 0.85703 0.0
H3320 H 0.08421 0.65371 0.89153 0.0
C3321 C 0.0928 0.66164 0.99596 0.0
C3322 C 0.12805 0.67811 0.93849 0.0
C3323 C 0.09117 0.65944 0.02501 0.0
C3324 C 0.13037 0.67507 0.81709 0.0
C3325 C 0.12948 0.67352 0.84628 0.0
C3326 C 0.09657 0.66075 0.9044 0.0
C3327 C 0.10866 0.66377 0.9819 0.0
C3328 C 0.11056 0.66654 0.95088 0.0
C3329 C 0.11578 0.6751 0.86131 0.0
C3330 C 0.11403 0.67225 0.89214 0.0
H3331 H 0.13246 0.66157 0.03862 0.0
H3332 H 0.13503 0.66467 0.98792 0.0
H3333 H 0.08121 0.64852 0.94181 0.0
H3334 H 0.0945 0.68331 0.80669 0.0
H3335 H 0.09281 0.68037 0.85757 0.0
C3336 C 0.33706 0.46001 0.0266 0.0
C3337 C 0.33929 0.44668 0.04156 0.0
C3338 C 0.33564 0.45917 0.99741 0.0
C3339 C 0.32177 0.42662 0.93855 0.0
H3340 H 0.35042 0.47083 0.89362 0.0
C3341 C 0.32302 0.42361 0.81745 0.0
C3342 C 0.32519 0.43903 0.80219 0.0
C3343 C 0.32427 0.42429 0.84668 0.0
C3344 C 0.34203 0.45838 0.90577 0.0
H3345 H 0.34183 0.42202 0.03755 0.0
H3346 H 0.33907 0.42041 0.98658 0.0
H3347 H 0.35378 0.4727 0.94426 0.0
H3348 H 0.32964 0.46699 0.80569 0.0
H3349 H 0.33102 0.46794 0.85651 0.0
H3350 H 0.30961 0.41233 0.90031 0.0
C3351 C 0.33847 0.43154 0.99748 0.0
C3352 C 0.34407 0.45947 0.93486 0.0
C3353 C 0.34018 0.43254 0.02665 0.0
C3354 C 0.32803 0.45491 0.81683 0.0
C3355 C 0.32902 0.45551 0.84604 0.0
C3356 C 0.31951 0.42557 0.90946 0.0
C3357 C 0.33614 0.44481 0.98254 0.0
C3358 C 0.33401 0.4436 0.95158 0.0
C3359 C 0.32748 0.44033 0.86144 0.0
C3360 C 0.32964 0.44143 0.89259 0.0
H3361 H 0.3363 0.47106 0.03745 0.0
H3362 H 0.33374 0.46953 0.98651 0.0
H3363 H 0.31365 0.4142 0.95091 0.0
H3364 H 0.32096 0.41121 0.80678 0.0
H3365 H 0.32326 0.41239 0.85759 0.0
C3366 C 0.0888 0.43821 0.52777 0.0
C3367 C 0.10521 0.44688 0.54369 0.0
C3368 C 0.08956 0.43766 0.49853 0.0
C3369 C 0.12208 0.45908 0.438 0.0
H3370 H 0.08436 0.41572 0.39874 0.0
C3371 C 0.11767 0.45698 0.31741 0.0
C3372 C 0.11146 0.43994 0.30358 0.0
C3373 C 0.11709 0.45775 0.34657 0.0
C3374 C 0.09518 0.42786 0.4093 0.0
H3375 H 0.13531 0.46173 0.54134 0.0
H3376 H 0.13669 0.4603 0.49073 0.0
H3377 H 0.08309 0.41718 0.44934 0.0
H3378 H 0.10014 0.41035 0.30965 0.0
H3379 H 0.09975 0.41172 0.3606 0.0
H3380 H 0.13465 0.46939 0.39815 0.0
C3381 C 0.12316 0.45434 0.50055 0.0
C3382 C 0.09426 0.42885 0.43845 0.0
C3383 C 0.12238 0.45509 0.52971 0.0
C3384 C 0.10496 0.4237 0.31966 0.0
C3385 C 0.1046 0.42449 0.34892 0.0
C3386 C 0.12312 0.45799 0.40892 0.0
C3387 C 0.10677 0.44556 0.48446 0.0
C3388 C 0.10766 0.44451 0.45327 0.0
C3389 C 0.11051 0.44152 0.36284 0.0
C3390 C 0.10964 0.44241 0.39406 0.0
H3391 H 0.07533 0.43179 0.53789 0.0
H3392 H 0.07661 0.43108 0.48699 0.0
H3393 H 0.13256 0.4715 0.44842 0.0
H3394 H 0.1226 0.46976 0.30567 0.0
H3395 H 0.12143 0.47109 0.35627 0.0
C3396 C 0.58073 0.67646 0.31885 0.0
C3397 C 0.56544 0.67487 0.30386 0.0
C3398 C 0.58005 0.67481 0.34801 0.0
C3399 C 0.55637 0.67845 0.41071 0.0
H3400 H 0.57115 0.64533 0.44438 0.0
C3401 C 0.54384 0.65981 0.52788 0.0
C3402 C 0.55738 0.65785 0.54266 0.0
C3403 C 0.54462 0.66139 0.49873 0.0
C3404 C 0.56722 0.65486 0.43547 0.0
H3405 H 0.53765 0.67084 0.30782 0.0
H3406 H 0.53662 0.66832 0.35874 0.0
H3407 H 0.57365 0.65012 0.39394 0.0
H3408 H 0.58226 0.6558 0.53838 0.0
H3409 H 0.58397 0.65906 0.48768 0.0
H3410 H 0.55032 0.68358 0.45209 0.0
C3411 C 0.5491 0.67075 0.34792 0.0
C3412 C 0.56862 0.65756 0.40648 0.0
C3413 C 0.54967 0.67214 0.31874 0.0
C3414 C 0.57153 0.65715 0.52759 0.0
C3415 C 0.57246 0.65896 0.49843 0.0
C3416 C 0.55518 0.67594 0.43972 0.0
C3417 C 0.56417 0.67179 0.36287 0.0
C3418 C 0.56313 0.66932 0.39376 0.0
C3419 C 0.55911 0.6613 0.48357 0.0
C3420 C 0.56048 0.66401 0.45255 0.0
H3421 H 0.59307 0.6785 0.30801 0.0
H3422 H 0.59196 0.67586 0.35896 0.0
H3423 H 0.55224 0.68777 0.40157 0.0
H3424 H 0.53268 0.66029 0.53886 0.0
H3425 H 0.53382 0.66271 0.48812 0.0
C3426 C 0.32509 0.90184 0.3141 0.0
C3427 C 0.32676 0.88813 0.29927 0.0
C3428 C 0.32732 0.90332 0.34318 0.0
C3429 C 0.34684 0.88892 0.40227 0.0
H3430 H 0.31892 0.9052 0.44757 0.0
C3431 C 0.34387 0.88466 0.52339 0.0
C3432 C 0.34552 0.90013 0.53798 0.0
C3433 C 0.34238 0.88374 0.49422 0.0
C3434 C 0.32695 0.9008 0.43517 0.0
H3435 H 0.33156 0.86487 0.30349 0.0
H3436 H 0.33475 0.86696 0.35417 0.0
H3437 H 0.31383 0.90176 0.39724 0.0
H3438 H 0.34712 0.92687 0.53326 0.0
H3439 H 0.34429 0.92514 0.48229 0.0
H3440 H 0.35956 0.88751 0.44051 0.0
C3441 C 0.33228 0.87699 0.34338 0.0
C3442 C 0.32408 0.89886 0.40622 0.0
C3443 C 0.33028 0.87566 0.31426 0.0
C3444 C 0.34592 0.91479 0.52266 0.0
C3445 C 0.34417 0.91374 0.49349 0.0
C3446 C 0.34953 0.89064 0.43125 0.0
C3447 C 0.33108 0.891 0.35828 0.0
C3448 C 0.33399 0.89291 0.38929 0.0
C3449 C 0.34225 0.89814 0.47894 0.0
C3450 C 0.33964 0.89663 0.44804 0.0
H3451 H 0.32254 0.91177 0.30317 0.0
H3452 H 0.32656 0.91448 0.35367 0.0
H3453 H 0.35506 0.88469 0.39004 0.0
H3454 H 0.34349 0.87313 0.53456 0.0
H3455 H 0.3408 0.87148 0.48367 0.0
loop_
_geom_bond_atom_site_label_1
_geom_bond_atom_site_label_2
_geom_bond_distance
_geom_bond_site_symmetry_2
_ccdc_geom_bond_type
Mn0 O5 2.095 . S
Mn0 O15 2.162 . S
Mn0 O16 2.297 . S
Mn0 O24 2.385 . S
Mn0 O25 2.209 . S
Mn0 O26 2.094 . S
Mn1 O6 2.121 1_556 S
Mn1 N8 2.257 . S
Mn1 N17 2.282 . S
Mn1 O25 2.215 1_556 S
Mn1 O27 2.117 . S
C2 O24 1.234 . S
C2 O25 1.283 . S
C3 O15 1.281 . S
C3 O16 1.236 . S
C4 O26 1.240 . S
C4 O27 1.264 1_554 S
O5 Mn0 2.095 . S
O5 C14 1.250 . S
O6 Mn1 2.121 1_554 S
O6 C14 1.258 . S
C7 N8 1.326 . S
C7 C11 1.460 . S
C7 H13 0.929 . S
N8 Mn1 2.257 . S
N8 C7 1.326 . S
N8 C12 1.362 . S
C9 C10 1.258 . S
C9 C12 1.431 . S
C9 C29 1.449 . S
C10 C9 1.258 . S
C10 C11 1.477 . S
C10 H30 0.931 . S
C11 C7 1.460 . S
C11 C10 1.477 . S
C11 H31 0.930 . S
C12 N8 1.362 . S
C12 C9 1.431 . S
C12 C22 1.476 . S
H13 C7 0.929 . S
C14 O5 1.250 . S
C14 O6 1.258 . S
O15 Mn0 2.162 . S
O15 C3 1.281 . S
O16 Mn0 2.297 . S
O16 C3 1.236 . S
N17 Mn1 2.282 . S
N17 C18 1.328 . S
N17 C22 1.318 . S
C18 N17 1.328 . S
C18 C19 1.457 . S
C18 H23 0.929 . S
C19 C18 1.457 . S
C19 C20 1.291 . S
C19 H32 0.931 . S
C20 C19 1.291 . S
C20 C21 1.373 . S
C20 H33 0.929 . S
C21 C20 1.373 . S
C21 C22 1.396 . S
C21 C28 1.403 . S
C22 C12 1.476 . S
C22 N17 1.318 . S
C22 C21 1.396 . S
H23 C18 0.929 . S
O24 Mn0 2.385 . S
O24 C2 1.234 . S
O25 Mn0 2.209 . S
O25 Mn1 2.215 1_554 S
O25 C2 1.283 . S
O26 Mn0 2.094 . S
O26 C4 1.240 . S
O27 Mn1 2.117 . S
O27 C4 1.264 1_556 S
C28 C21 1.403 . S
C28 C29 1.399 . S
C28 H34 0.929 . S
C29 C9 1.449 . S
C29 C28 1.399 . S
C29 H35 0.930 . S
H30 C10 0.931 . S
H31 C11 0.930 . S
H32 C19 0.931 . S
H33 C20 0.929 . S
H34 C28 0.929 . S
H35 C29 0.930 . S
Mn36 O41 2.095 . S
Mn36 O51 2.162 . S
Mn36 O52 2.297 . S
Mn36 O60 2.385 1_545 S
Mn36 O61 2.209 . S
Mn36 O62 2.094 . S
Mn37 O42 2.121 1_556 S
Mn37 N44 2.257 . S
Mn37 N53 2.282 1_545 S
Mn37 O61 2.215 1_556 S
Mn37 O63 2.117 . S
C38 O60 1.234 . S
C38 O61 1.283 1_565 S
C39 O51 1.281 . S
C39 O52 1.236 . S
C40 O62 1.240 . S
C40 O63 1.264 1_554 S
O41 Mn36 2.095 . S
O41 C50 1.250 . S
O42 Mn37 2.121 1_554 S
O42 C50 1.258 . S
C43 N44 1.326 . S
C43 C47 1.460 . S
C43 H49 0.929 . S
N44 Mn37 2.257 . S
N44 C43 1.326 . S
N44 C48 1.362 1_545 S
C45 C46 1.258 . S
C45 C48 1.431 . S
C45 C65 1.449 . S
C46 C45 1.258 . S
C46 C47 1.477 1_565 S
C46 H66 0.931 . S
C47 C43 1.460 . S
C47 C46 1.477 1_545 S
C47 H67 0.930 . S
C48 N44 1.362 1_565 S
C48 C45 1.431 . S
C48 C58 1.476 . S
H49 C43 0.929 . S
C50 O41 1.250 . S
C50 O42 1.258 . S
O51 Mn36 2.162 . S
O51 C39 1.281 . S
O52 Mn36 2.297 . S
O52 C39 1.236 . S
N53 Mn37 2.282 1_565 S
N53 C54 1.328 . S
N53 C58 1.318 . S
C54 N53 1.328 . S
C54 C55 1.457 . S
C54 H59 0.929 . S
C55 C54 1.457 . S
C55 C56 1.291 . S
C55 H68 0.931 . S
C56 C55 1.291 . S
C56 C57 1.373 . S
C56 H69 0.929 . S
C57 C56 1.373 . S
C57 C58 1.396 . S
C57 C64 1.403 . S
C58 C48 1.476 . S
C58 N53 1.318 . S
C58 C57 1.396 . S
H59 C54 0.929 . S
O60 Mn36 2.385 1_565 S
O60 C38 1.234 . S
O61 Mn36 2.209 . S
O61 Mn37 2.215 1_554 S
O61 C38 1.283 1_545 S
O62 Mn36 2.094 . S
O62 C40 1.240 . S
O63 Mn37 2.117 . S
O63 C40 1.264 1_556 S
C64 C57 1.403 . S
C64 C65 1.399 . S
C64 H70 0.929 . S
C65 C45 1.449 . S
C65 C64 1.399 . S
C65 H71 0.930 . S
H66 C46 0.931 . S
H67 C47 0.930 . S
H68 C55 0.931 . S
H69 C56 0.929 . S
H70 C64 0.929 . S
H71 C65 0.930 . S
Mn72 O77 2.095 . S
Mn72 O87 2.162 . S
Mn72 O88 2.297 . S
Mn72 O96 2.385 1_655 S
Mn72 O97 2.209 . S
Mn72 O98 2.094 . S
Mn73 O78 2.121 1_556 S
Mn73 N80 2.257 . S
Mn73 N89 2.282 1_655 S
Mn73 O97 2.215 1_556 S
Mn73 O99 2.117 . S
C74 O96 1.234 . S
C74 O97 1.283 1_455 S
C75 O87 1.281 . S
C75 O88 1.236 . S
C76 O98 1.240 . S
C76 O99 1.264 1_554 S
O77 Mn72 2.095 . S
O77 C86 1.250 . S
O78 Mn73 2.121 1_554 S
O78 C86 1.258 . S
C79 N80 1.326 . S
C79 C83 1.460 . S
C79 H85 0.929 . S
N80 Mn73 2.257 . S
N80 C79 1.326 . S
N80 C84 1.362 1_655 S
C81 C82 1.258 . S
C81 C84 1.431 . S
C81 C101 1.449 . S
C82 C81 1.258 . S
C82 C83 1.477 1_455 S
C82 H102 0.931 . S
C83 C79 1.460 . S
C83 C82 1.477 1_655 S
C83 H103 0.930 . S
C84 N80 1.362 1_455 S
C84 C81 1.431 . S
C84 C94 1.476 . S
H85 C79 0.929 . S
C86 O77 1.250 . S
C86 O78 1.258 . S
O87 Mn72 2.162 . S
O87 C75 1.281 . S
O88 Mn72 2.297 . S
O88 C75 1.236 . S
N89 Mn73 2.282 1_455 S
N89 C90 1.328 . S
N89 C94 1.318 . S
C90 N89 1.328 . S
C90 C91 1.457 . S
C90 H95 0.929 . S
C91 C90 1.457 . S
C91 C92 1.291 . S
C91 H104 0.931 . S
C92 C91 1.291 . S
C92 C93 1.373 . S
C92 H105 0.929 . S
C93 C92 1.373 . S
C93 C94 1.396 . S
C93 C100 1.403 . S
C94 C84 1.476 . S
C94 N89 1.318 . S
C94 C93 1.396 . S
H95 C90 0.929 . S
O96 Mn72 2.385 1_455 S
O96 C74 1.234 . S
O97 Mn72 2.209 . S
O97 Mn73 2.215 1_554 S
O97 C74 1.283 1_655 S
O98 Mn72 2.094 . S
O98 C76 1.240 . S
O99 Mn73 2.117 . S
O99 C76 1.264 1_556 S
C100 C93 1.403 . S
C100 C101 1.399 . S
C100 H106 0.929 . S
C101 C81 1.449 . S
C101 C100 1.399 . S
C101 H107 0.930 . S
H102 C82 0.931 . S
H103 C83 0.930 . S
H104 C91 0.931 . S
H105 C92 0.929 . S
H106 C100 0.929 . S
H107 C101 0.930 . S
Mn108 O113 2.095 . S
Mn108 O123 2.162 . S
Mn108 O124 2.297 . S
Mn108 O132 2.385 . S
Mn108 O133 2.209 . S
Mn108 O134 2.094 . S
Mn109 O114 2.121 . S
Mn109 N116 2.257 . S
Mn109 N125 2.282 . S
Mn109 O133 2.215 . S
Mn109 O135 2.117 . S
C110 O132 1.234 . S
C110 O133 1.283 . S
C111 O123 1.281 . S
C111 O124 1.236 . S
C112 O134 1.240 . S
C112 O135 1.264 . S
O113 Mn108 2.095 . S
O113 C122 1.250 . S
O114 Mn109 2.121 . S
O114 C122 1.258 . S
C115 N116 1.326 . S
C115 C119 1.460 . S
C115 H121 0.929 . S
N116 Mn109 2.257 . S
N116 C115 1.326 . S
N116 C120 1.362 . S
C117 C118 1.258 . S
C117 C120 1.431 . S
C117 C137 1.449 . S
C118 C117 1.258 . S
C118 C119 1.477 . S
C118 H138 0.931 . S
C119 C115 1.460 . S
C119 C118 1.477 . S
C119 H139 0.930 . S
C120 N116 1.362 . S
C120 C117 1.431 . S
C120 C130 1.476 . S
H121 C115 0.929 . S
C122 O113 1.250 . S
C122 O114 1.258 . S
O123 Mn108 2.162 . S
O123 C111 1.281 . S
O124 Mn108 2.297 . S
O124 C111 1.236 . S
N125 Mn109 2.282 . S
N125 C126 1.328 . S
N125 C130 1.318 . S
C126 N125 1.328 . S
C126 C127 1.457 . S
C126 H131 0.929 . S
C127 C126 1.457 . S
C127 C128 1.291 . S
C127 H140 0.931 . S
C128 C127 1.291 . S
C128 C129 1.373 . S
C128 H141 0.929 . S
C129 C128 1.373 . S
C129 C130 1.396 . S
C129 C136 1.403 . S
C130 C120 1.476 . S
C130 N125 1.318 . S
C130 C129 1.396 . S
H131 C126 0.929 . S
O132 Mn108 2.385 . S
O132 C110 1.234 . S
O133 Mn108 2.209 . S
O133 Mn109 2.215 . S
O133 C110 1.283 . S
O134 Mn108 2.094 . S
O134 C112 1.240 . S
O135 Mn109 2.117 . S
O135 C112 1.264 . S
C136 C129 1.403 . S
C136 C137 1.399 . S
C136 H142 0.929 . S
C137 C117 1.449 . S
C137 C136 1.399 . S
C137 H143 0.930 . S
H138 C118 0.931 . S
H139 C119 0.930 . S
H140 C127 0.931 . S
H141 C128 0.929 . S
H142 C136 0.929 . S
H143 C137 0.930 . S
Mn144 O149 2.095 . S
Mn144 O159 2.162 . S
Mn144 O160 2.297 . S
Mn144 O168 2.385 1_565 S
Mn144 O169 2.209 . S
Mn144 O170 2.094 . S
Mn145 O150 2.121 . S
Mn145 N152 2.257 . S
Mn145 N161 2.282 1_565 S
Mn145 O169 2.215 . S
Mn145 O171 2.117 . S
C146 O168 1.234 . S
C146 O169 1.283 1_545 S
C147 O159 1.281 . S
C147 O160 1.236 . S
C148 O170 1.240 . S
C148 O171 1.264 . S
O149 Mn144 2.095 . S
O149 C158 1.250 . S
O150 Mn145 2.121 . S
O150 C158 1.258 . S
C151 N152 1.326 . S
C151 C155 1.460 . S
C151 H157 0.929 . S
N152 Mn145 2.257 . S
N152 C151 1.326 . S
N152 C156 1.362 1_565 S
C153 C154 1.258 . S
C153 C156 1.431 . S
C153 C173 1.449 . S
C154 C153 1.258 . S
C154 C155 1.477 1_545 S
C154 H174 0.931 . S
C155 C151 1.460 . S
C155 C154 1.477 1_565 S
C155 H175 0.930 . S
C156 N152 1.362 1_545 S
C156 C153 1.431 . S
C156 C166 1.476 . S
H157 C151 0.929 . S
C158 O149 1.250 . S
C158 O150 1.258 . S
O159 Mn144 2.162 . S
O159 C147 1.281 . S
O160 Mn144 2.297 . S
O160 C147 1.236 . S
N161 Mn145 2.282 1_545 S
N161 C162 1.328 . S
N161 C166 1.318 . S
C162 N161 1.328 . S
C162 C163 1.457 . S
C162 H167 0.929 . S
C163 C162 1.457 . S
C163 C164 1.291 . S
C163 H176 0.931 . S
C164 C163 1.291 . S
C164 C165 1.373 . S
C164 H177 0.929 . S
C165 C164 1.373 . S
C165 C166 1.396 . S
C165 C172 1.403 . S
C166 C156 1.476 . S
C166 N161 1.318 . S
C166 C165 1.396 . S
H167 C162 0.929 . S
O168 Mn144 2.385 1_545 S
O168 C146 1.234 . S
O169 Mn144 2.209 . S
O169 Mn145 2.215 . S
O169 C146 1.283 1_565 S
O170 Mn144 2.094 . S
O170 C148 1.240 . S
O171 Mn145 2.117 . S
O171 C148 1.264 . S
C172 C165 1.403 . S
C172 C173 1.399 . S
C172 H178 0.929 . S
C173 C153 1.449 . S
C173 C172 1.399 . S
C173 H179 0.930 . S
H174 C154 0.931 . S
H175 C155 0.930 . S
H176 C163 0.931 . S
H177 C164 0.929 . S
H178 C172 0.929 . S
H179 C173 0.930 . S
Mn180 O185 2.095 . S
Mn180 O195 2.162 . S
Mn180 O196 2.297 . S
Mn180 O204 2.385 1_455 S
Mn180 O205 2.209 . S
Mn180 O206 2.094 . S
Mn181 O186 2.121 . S
Mn181 N188 2.257 . S
Mn181 N197 2.282 1_455 S
Mn181 O205 2.215 . S
Mn181 O207 2.117 . S
C182 O204 1.234 . S
C182 O205 1.283 1_655 S
C183 O195 1.281 . S
C183 O196 1.236 . S
C184 O206 1.240 . S
C184 O207 1.264 . S
O185 Mn180 2.095 . S
O185 C194 1.250 . S
O186 Mn181 2.121 . S
O186 C194 1.258 . S
C187 N188 1.326 . S
C187 C191 1.460 . S
C187 H193 0.929 . S
N188 Mn181 2.257 . S
N188 C187 1.326 . S
N188 C192 1.362 1_455 S
C189 C190 1.258 . S
C189 C192 1.431 . S
C189 C209 1.449 . S
C190 C189 1.258 . S
C190 C191 1.477 1_655 S
C190 H210 0.931 . S
C191 C187 1.460 . S
C191 C190 1.477 1_455 S
C191 H211 0.930 . S
C192 N188 1.362 1_655 S
C192 C189 1.431 . S
C192 C202 1.476 . S
H193 C187 0.929 . S
C194 O185 1.250 . S
C194 O186 1.258 . S
O195 Mn180 2.162 . S
O195 C183 1.281 . S
O196 Mn180 2.297 . S
O196 C183 1.236 . S
N197 Mn181 2.282 1_655 S
N197 C198 1.328 . S
N197 C202 1.318 . S
C198 N197 1.328 . S
C198 C199 1.457 . S
C198 H203 0.929 . S
C199 C198 1.457 . S
C199 C200 1.291 . S
C199 H212 0.931 . S
C200 C199 1.291 . S
C200 C201 1.373 . S
C200 H213 0.929 . S
C201 C200 1.373 . S
C201 C202 1.396 . S
C201 C208 1.403 . S
C202 C192 1.476 . S
C202 N197 1.318 . S
C202 C201 1.396 . S
H203 C198 0.929 . S
O204 Mn180 2.385 1_655 S
O204 C182 1.234 . S
O205 Mn180 2.209 . S
O205 Mn181 2.215 . S
O205 C182 1.283 1_455 S
O206 Mn180 2.094 . S
O206 C184 1.240 . S
O207 Mn181 2.117 . S
O207 C184 1.264 . S
C208 C201 1.403 . S
C208 C209 1.399 . S
C208 H214 0.929 . S
C209 C189 1.449 . S
C209 C208 1.399 . S
C209 H215 0.930 . S
H210 C190 0.931 . S
H211 C191 0.930 . S
H212 C199 0.931 . S
H213 C200 0.929 . S
H214 C208 0.929 . S
H215 C209 0.930 . S
Mn216 O221 2.095 . S
Mn216 O231 2.162 . S
Mn216 O232 2.297 . S
Mn216 O240 2.385 . S
Mn216 O241 2.209 . S
Mn216 O242 2.094 . S
Mn217 O222 2.121 1_554 S
Mn217 N224 2.257 . S
Mn217 N233 2.282 . S
Mn217 O241 2.215 1_554 S
Mn217 O243 2.117 . S
C218 O240 1.234 . S
C218 O241 1.283 . S
C219 O231 1.281 . S
C219 O232 1.236 . S
C220 O242 1.240 . S
C220 O243 1.264 1_556 S
O221 Mn216 2.095 . S
O221 C230 1.250 . S
O222 Mn217 2.121 1_556 S
O222 C230 1.258 . S
C223 N224 1.326 . S
C223 C227 1.460 . S
C223 H229 0.929 . S
N224 Mn217 2.257 . S
N224 C223 1.326 . S
N224 C228 1.362 . S
C225 C226 1.258 . S
C225 C228 1.431 . S
C225 C245 1.449 . S
C226 C225 1.258 . S
C226 C227 1.477 . S
C226 H246 0.931 . S
C227 C223 1.460 . S
C227 C226 1.477 . S
C227 H247 0.930 . S
C228 N224 1.362 . S
C228 C225 1.431 . S
C228 C238 1.476 . S
H229 C223 0.929 . S
C230 O221 1.250 . S
C230 O222 1.258 . S
O231 Mn216 2.162 . S
O231 C219 1.281 . S
O232 Mn216 2.297 . S
O232 C219 1.236 . S
N233 Mn217 2.282 . S
N233 C234 1.328 . S
N233 C238 1.318 . S
C234 N233 1.328 . S
C234 C235 1.457 . S
C234 H239 0.929 . S
C235 C234 1.457 . S
C235 C236 1.291 . S
C235 H248 0.931 . S
C236 C235 1.291 . S
C236 C237 1.373 . S
C236 H249 0.929 . S
C237 C236 1.373 . S
C237 C238 1.396 . S
C237 C244 1.403 . S
C238 C228 1.476 . S
C238 N233 1.318 . S
C238 C237 1.396 . S
H239 C234 0.929 . S
O240 Mn216 2.385 . S
O240 C218 1.234 . S
O241 Mn216 2.209 . S
O241 Mn217 2.215 1_556 S
O241 C218 1.283 . S
O242 Mn216 2.094 . S
O242 C220 1.240 . S
O243 Mn217 2.117 . S
O243 C220 1.264 1_554 S
C244 C237 1.403 . S
C244 C245 1.399 . S
C244 H250 0.929 . S
C245 C225 1.449 . S
C245 C244 1.399 . S
C245 H251 0.930 . S
H246 C226 0.931 . S
H247 C227 0.930 . S
H248 C235 0.931 . S
H249 C236 0.929 . S
H250 C244 0.929 . S
H251 C245 0.930 . S
Mn252 O257 2.095 . S
Mn252 O267 2.162 . S
Mn252 O268 2.297 . S
Mn252 O276 2.385 1_565 S
Mn252 O277 2.209 . S
Mn252 O278 2.094 . S
Mn253 O258 2.121 1_554 S
Mn253 N260 2.257 . S
Mn253 N269 2.282 1_565 S
Mn253 O277 2.215 1_554 S
Mn253 O279 2.117 . S
C254 O276 1.234 . S
C254 O277 1.283 1_545 S
C255 O267 1.281 . S
C255 O268 1.236 . S
C256 O278 1.240 . S
C256 O279 1.264 1_556 S
O257 Mn252 2.095 . S
O257 C266 1.250 . S
O258 Mn253 2.121 1_556 S
O258 C266 1.258 . S
C259 N260 1.326 . S
C259 C263 1.460 . S
C259 H265 0.929 . S
N260 Mn253 2.257 . S
N260 C259 1.326 . S
N260 C264 1.362 1_565 S
C261 C262 1.258 . S
C261 C264 1.431 . S
C261 C281 1.449 . S
C262 C261 1.258 . S
C262 C263 1.477 1_545 S
C262 H282 0.931 . S
C263 C259 1.460 . S
C263 C262 1.477 1_565 S
C263 H283 0.930 . S
C264 N260 1.362 1_545 S
C264 C261 1.431 . S
C264 C274 1.476 . S
H265 C259 0.929 . S
C266 O257 1.250 . S
C266 O258 1.258 . S
O267 Mn252 2.162 . S
O267 C255 1.281 . S
O268 Mn252 2.297 . S
O268 C255 1.236 . S
N269 Mn253 2.282 1_545 S
N269 C270 1.328 . S
N269 C274 1.318 . S
C270 N269 1.328 . S
C270 C271 1.457 . S
C270 H275 0.929 . S
C271 C270 1.457 . S
C271 C272 1.291 . S
C271 H284 0.931 . S
C272 C271 1.291 . S
C272 C273 1.373 . S
C272 H285 0.929 . S
C273 C272 1.373 . S
C273 C274 1.396 . S
C273 C280 1.403 . S
C274 C264 1.476 . S
C274 N269 1.318 . S
C274 C273 1.396 . S
H275 C270 0.929 . S
O276 Mn252 2.385 1_545 S
O276 C254 1.234 . S
O277 Mn252 2.209 . S
O277 Mn253 2.215 1_556 S
O277 C254 1.283 1_565 S
O278 Mn252 2.094 . S
O278 C256 1.240 . S
O279 Mn253 2.117 . S
O279 C256 1.264 1_554 S
C280 C273 1.403 . S
C280 C281 1.399 . S
C280 H286 0.929 . S
C281 C261 1.449 . S
C281 C280 1.399 . S
C281 H287 0.930 . S
H282 C262 0.931 . S
H283 C263 0.930 . S
H284 C271 0.931 . S
H285 C272 0.929 . S
H286 C280 0.929 . S
H287 C281 0.930 . S
Mn288 O293 2.095 . S
Mn288 O303 2.162 . S
Mn288 O304 2.297 . S
Mn288 O312 2.385 1_455 S
Mn288 O313 2.209 . S
Mn288 O314 2.094 . S
Mn289 O294 2.121 1_554 S
Mn289 N296 2.257 . S
Mn289 N305 2.282 1_455 S
Mn289 O313 2.215 1_554 S
Mn289 O315 2.117 . S
C290 O312 1.234 . S
C290 O313 1.283 1_655 S
C291 O303 1.281 . S
C291 O304 1.236 . S
C292 O314 1.240 . S
C292 O315 1.264 1_556 S
O293 Mn288 2.095 . S
O293 C302 1.250 . S
O294 Mn289 2.121 1_556 S
O294 C302 1.258 . S
C295 N296 1.326 . S
C295 C299 1.460 . S
C295 H301 0.929 . S
N296 Mn289 2.257 . S
N296 C295 1.326 . S
N296 C300 1.362 1_455 S
C297 C298 1.258 . S
C297 C300 1.431 . S
C297 C317 1.449 . S
C298 C297 1.258 . S
C298 C299 1.477 1_655 S
C298 H318 0.931 . S
C299 C295 1.460 . S
C299 C298 1.477 1_455 S
C299 H319 0.930 . S
C300 N296 1.362 1_655 S
C300 C297 1.431 . S
C300 C310 1.476 . S
H301 C295 0.929 . S
C302 O293 1.250 . S
C302 O294 1.258 . S
O303 Mn288 2.162 . S
O303 C291 1.281 . S
O304 Mn288 2.297 . S
O304 C291 1.236 . S
N305 Mn289 2.282 1_655 S
N305 C306 1.328 . S
N305 C310 1.318 . S
C306 N305 1.328 . S
C306 C307 1.457 . S
C306 H311 0.929 . S
C307 C306 1.457 . S
C307 C308 1.291 . S
C307 H320 0.931 . S
C308 C307 1.291 . S
C308 C309 1.373 . S
C308 H321 0.929 . S
C309 C308 1.373 . S
C309 C310 1.396 . S
C309 C316 1.403 . S
C310 C300 1.476 . S
C310 N305 1.318 . S
C310 C309 1.396 . S
H311 C306 0.929 . S
O312 Mn288 2.385 1_655 S
O312 C290 1.234 . S
O313 Mn288 2.209 . S
O313 Mn289 2.215 1_556 S
O313 C290 1.283 1_455 S
O314 Mn288 2.094 . S
O314 C292 1.240 . S
O315 Mn289 2.117 . S
O315 C292 1.264 1_554 S
C316 C309 1.403 . S
C316 C317 1.399 . S
C316 H322 0.929 . S
C317 C297 1.449 . S
C317 C316 1.399 . S
C317 H323 0.930 . S
H318 C298 0.931 . S
H319 C299 0.930 . S
H320 C307 0.931 . S
H321 C308 0.929 . S
H322 C316 0.929 . S
H323 C317 0.930 . S
Mn324 O329 2.095 . S
Mn324 O339 2.162 . S
Mn324 O340 2.297 . S
Mn324 O348 2.385 . S
Mn324 O349 2.209 . S
Mn324 O350 2.094 . S
Mn325 O330 2.121 . S
Mn325 N332 2.257 . S
Mn325 N341 2.282 . S
Mn325 O349 2.215 . S
Mn325 O351 2.117 . S
C326 O348 1.234 . S
C326 O349 1.283 . S
C327 O339 1.281 . S
C327 O340 1.236 . S
C328 O350 1.240 . S
C328 O351 1.264 . S
O329 Mn324 2.095 . S
O329 C338 1.250 . S
O330 Mn325 2.121 . S
O330 C338 1.258 . S
C331 N332 1.326 . S
C331 C335 1.460 . S
C331 H337 0.929 . S
N332 Mn325 2.257 . S
N332 C331 1.326 . S
N332 C336 1.362 . S
C333 C334 1.258 . S
C333 C336 1.431 . S
C333 C353 1.449 . S
C334 C333 1.258 . S
C334 C335 1.477 . S
C334 H354 0.931 . S
C335 C331 1.460 . S
C335 C334 1.477 . S
C335 H355 0.930 . S
C336 N332 1.362 . S
C336 C333 1.431 . S
C336 C346 1.476 . S
H337 C331 0.929 . S
C338 O329 1.250 . S
C338 O330 1.258 . S
O339 Mn324 2.162 . S
O339 C327 1.281 . S
O340 Mn324 2.297 . S
O340 C327 1.236 . S
N341 Mn325 2.282 . S
N341 C342 1.328 . S
N341 C346 1.318 . S
C342 N341 1.328 . S
C342 C343 1.457 . S
C342 H347 0.929 . S
C343 C342 1.457 . S
C343 C344 1.291 . S
C343 H356 0.931 . S
C344 C343 1.291 . S
C344 C345 1.373 . S
C344 H357 0.929 . S
C345 C344 1.373 . S
C345 C346 1.396 . S
C345 C352 1.403 . S
C346 C336 1.476 . S
C346 N341 1.318 . S
C346 C345 1.396 . S
H347 C342 0.929 . S
O348 Mn324 2.385 . S
O348 C326 1.234 . S
O349 Mn324 2.209 . S
O349 Mn325 2.215 . S
O349 C326 1.283 . S
O350 Mn324 2.094 . S
O350 C328 1.240 . S
O351 Mn325 2.117 . S
O351 C328 1.264 . S
C352 C345 1.403 . S
C352 C353 1.399 . S
C352 H358 0.929 . S
C353 C333 1.449 . S
C353 C352 1.399 . S
C353 H359 0.930 . S
H354 C334 0.931 . S
H355 C335 0.930 . S
H356 C343 0.931 . S
H357 C344 0.929 . S
H358 C352 0.929 . S
H359 C353 0.930 . S
Mn360 O365 2.095 . S
Mn360 O375 2.162 . S
Mn360 O376 2.297 . S
Mn360 O384 2.385 1_545 S
Mn360 O385 2.209 . S
Mn360 O386 2.094 . S
Mn361 O366 2.121 . S
Mn361 N368 2.257 . S
Mn361 N377 2.282 1_545 S
Mn361 O385 2.215 . S
Mn361 O387 2.117 . S
C362 O384 1.234 . S
C362 O385 1.283 1_565 S
C363 O375 1.281 . S
C363 O376 1.236 . S
C364 O386 1.240 . S
C364 O387 1.264 . S
O365 Mn360 2.095 . S
O365 C374 1.250 . S
O366 Mn361 2.121 . S
O366 C374 1.258 . S
C367 N368 1.326 . S
C367 C371 1.460 . S
C367 H373 0.929 . S
N368 Mn361 2.257 . S
N368 C367 1.326 . S
N368 C372 1.362 1_545 S
C369 C370 1.258 . S
C369 C372 1.431 . S
C369 C389 1.449 . S
C370 C369 1.258 . S
C370 C371 1.477 1_565 S
C370 H390 0.931 . S
C371 C367 1.460 . S
C371 C370 1.477 1_545 S
C371 H391 0.930 . S
C372 N368 1.362 1_565 S
C372 C369 1.431 . S
C372 C382 1.476 . S
H373 C367 0.929 . S
C374 O365 1.250 . S
C374 O366 1.258 . S
O375 Mn360 2.162 . S
O375 C363 1.281 . S
O376 Mn360 2.297 . S
O376 C363 1.236 . S
N377 Mn361 2.282 1_565 S
N377 C378 1.328 . S
N377 C382 1.318 . S
C378 N377 1.328 . S
C378 C379 1.457 . S
C378 H383 0.929 . S
C379 C378 1.457 . S
C379 C380 1.291 . S
C379 H392 0.931 . S
C380 C379 1.291 . S
C380 C381 1.373 . S
C380 H393 0.929 . S
C381 C380 1.373 . S
C381 C382 1.396 . S
C381 C388 1.403 . S
C382 C372 1.476 . S
C382 N377 1.318 . S
C382 C381 1.396 . S
H383 C378 0.929 . S
O384 Mn360 2.385 1_565 S
O384 C362 1.234 . S
O385 Mn360 2.209 . S
O385 Mn361 2.215 . S
O385 C362 1.283 1_545 S
O386 Mn360 2.094 . S
O386 C364 1.240 . S
O387 Mn361 2.117 . S
O387 C364 1.264 . S
C388 C381 1.403 . S
C388 C389 1.399 . S
C388 H394 0.929 . S
C389 C369 1.449 . S
C389 C388 1.399 . S
C389 H395 0.930 . S
H390 C370 0.931 . S
H391 C371 0.930 . S
H392 C379 0.931 . S
H393 C380 0.929 . S
H394 C388 0.929 . S
H395 C389 0.930 . S
Mn396 O401 2.095 . S
Mn396 O411 2.162 . S
Mn396 O412 2.297 . S
Mn396 O420 2.385 1_655 S
Mn396 O421 2.209 . S
Mn396 O422 2.094 . S
Mn397 O402 2.121 . S
Mn397 N404 2.257 . S
Mn397 N413 2.282 1_655 S
Mn397 O421 2.215 . S
Mn397 O423 2.117 . S
C398 O420 1.234 . S
C398 O421 1.283 1_455 S
C399 O411 1.281 . S
C399 O412 1.236 . S
C400 O422 1.240 . S
C400 O423 1.264 . S
O401 Mn396 2.095 . S
O401 C410 1.250 . S
O402 Mn397 2.121 . S
O402 C410 1.258 . S
C403 N404 1.326 . S
C403 C407 1.460 . S
C403 H409 0.929 . S
N404 Mn397 2.257 . S
N404 C403 1.326 . S
N404 C408 1.362 1_655 S
C405 C406 1.258 . S
C405 C408 1.431 . S
C405 C425 1.449 . S
C406 C405 1.258 . S
C406 C407 1.477 1_455 S
C406 H426 0.931 . S
C407 C403 1.460 . S
C407 C406 1.477 1_655 S
C407 H427 0.930 . S
C408 N404 1.362 1_455 S
C408 C405 1.431 . S
C408 C418 1.476 . S
H409 C403 0.929 . S
C410 O401 1.250 . S
C410 O402 1.258 . S
O411 Mn396 2.162 . S
O411 C399 1.281 . S
O412 Mn396 2.297 . S
O412 C399 1.236 . S
N413 Mn397 2.282 1_455 S
N413 C414 1.328 . S
N413 C418 1.318 . S
C414 N413 1.328 . S
C414 C415 1.457 . S
C414 H419 0.929 . S
C415 C414 1.457 . S
C415 C416 1.291 . S
C415 H428 0.931 . S
C416 C415 1.291 . S
C416 C417 1.373 . S
C416 H429 0.929 . S
C417 C416 1.373 . S
C417 C418 1.396 . S
C417 C424 1.403 . S
C418 C408 1.476 . S
C418 N413 1.318 . S
C418 C417 1.396 . S
H419 C414 0.929 . S
O420 Mn396 2.385 1_455 S
O420 C398 1.234 . S
O421 Mn396 2.209 . S
O421 Mn397 2.215 . S
O421 C398 1.283 1_655 S
O422 Mn396 2.094 . S
O422 C400 1.240 . S
O423 Mn397 2.117 . S
O423 C400 1.264 . S
C424 C417 1.403 . S
C424 C425 1.399 . S
C424 H430 0.929 . S
C425 C405 1.449 . S
C425 C424 1.399 . S
C425 H431 0.930 . S
H426 C406 0.931 . S
H427 C407 0.930 . S
H428 C415 0.931 . S
H429 C416 0.929 . S
H430 C424 0.929 . S
H431 C425 0.930 . S
Mn432 O437 2.095 . S
Mn432 O447 2.162 . S
Mn432 O448 2.297 . S
Mn432 O456 2.385 . S
Mn432 O457 2.209 . S
Mn432 O458 2.094 . S
Mn433 O438 2.121 . S
Mn433 N440 2.257 . S
Mn433 N449 2.282 . S
Mn433 O457 2.215 . S
Mn433 O459 2.117 . S
C434 O456 1.234 . S
C434 O457 1.283 . S
C435 O447 1.281 . S
C435 O448 1.236 . S
C436 O458 1.240 . S
C436 O459 1.264 . S
O437 Mn432 2.095 . S
O437 C446 1.250 . S
O438 Mn433 2.121 . S
O438 C446 1.258 . S
C439 N440 1.326 . S
C439 C443 1.460 . S
C439 H445 0.929 . S
N440 Mn433 2.257 . S
N440 C439 1.326 . S
N440 C444 1.362 . S
C441 C442 1.258 . S
C441 C444 1.431 . S
C441 C461 1.449 . S
C442 C441 1.258 . S
C442 C443 1.477 . S
C442 H462 0.931 . S
C443 C439 1.460 . S
C443 C442 1.477 . S
C443 H463 0.930 . S
C444 N440 1.362 . S
C444 C441 1.431 . S
C444 C454 1.476 . S
H445 C439 0.929 . S
C446 O437 1.250 . S
C446 O438 1.258 . S
O447 Mn432 2.162 . S
O447 C435 1.281 . S
O448 Mn432 2.297 . S
O448 C435 1.236 . S
N449 Mn433 2.282 . S
N449 C450 1.328 . S
N449 C454 1.318 . S
C450 N449 1.328 . S
C450 C451 1.457 . S
C450 H455 0.929 . S
C451 C450 1.457 . S
C451 C452 1.291 . S
C451 H464 0.931 . S
C452 C451 1.291 . S
C452 C453 1.373 . S
C452 H465 0.929 . S
C453 C452 1.373 . S
C453 C454 1.396 . S
C453 C460 1.403 . S
C454 C444 1.476 . S
C454 N449 1.318 . S
C454 C453 1.396 . S
H455 C450 0.929 . S
O456 Mn432 2.385 . S
O456 C434 1.234 . S
O457 Mn432 2.209 . S
O457 Mn433 2.215 . S
O457 C434 1.283 . S
O458 Mn432 2.094 . S
O458 C436 1.240 . S
O459 Mn433 2.117 . S
O459 C436 1.264 . S
C460 C453 1.403 . S
C460 C461 1.399 . S
C460 H466 0.929 . S
C461 C441 1.449 . S
C461 C460 1.399 . S
C461 H467 0.930 . S
H462 C442 0.931 . S
H463 C443 0.930 . S
H464 C451 0.931 . S
H465 C452 0.929 . S
H466 C460 0.929 . S
H467 C461 0.930 . S
Mn468 O473 2.095 . S
Mn468 O483 2.162 . S
Mn468 O484 2.297 . S
Mn468 O492 2.385 . S
Mn468 O493 2.209 . S
Mn468 O494 2.094 . S
Mn469 O474 2.121 . S
Mn469 N476 2.257 . S
Mn469 N485 2.282 . S
Mn469 O493 2.215 . S
Mn469 O495 2.117 . S
C470 O492 1.234 . S
C470 O493 1.283 . S
C471 O483 1.281 . S
C471 O484 1.236 . S
C472 O494 1.240 . S
C472 O495 1.264 . S
O473 Mn468 2.095 . S
O473 C482 1.250 . S
O474 Mn469 2.121 . S
O474 C482 1.258 . S
C475 N476 1.326 . S
C475 C479 1.460 . S
C475 H481 0.929 . S
N476 Mn469 2.257 . S
N476 C475 1.326 . S
N476 C480 1.362 . S
C477 C478 1.258 . S
C477 C480 1.431 . S
C477 C497 1.449 . S
C478 C477 1.258 . S
C478 C479 1.477 . S
C478 H498 0.931 . S
C479 C475 1.460 . S
C479 C478 1.477 . S
C479 H499 0.930 . S
C480 N476 1.362 . S
C480 C477 1.431 . S
C480 C490 1.476 . S
H481 C475 0.929 . S
C482 O473 1.250 . S
C482 O474 1.258 . S
O483 Mn468 2.162 . S
O483 C471 1.281 . S
O484 Mn468 2.297 . S
O484 C471 1.236 . S
N485 Mn469 2.282 . S
N485 C486 1.328 . S
N485 C490 1.318 . S
C486 N485 1.328 . S
C486 C487 1.457 . S
C486 H491 0.929 . S
C487 C486 1.457 . S
C487 C488 1.291 . S
C487 H500 0.931 . S
C488 C487 1.291 . S
C488 C489 1.373 . S
C488 H501 0.929 . S
C489 C488 1.373 . S
C489 C490 1.396 . S
C489 C496 1.403 . S
C490 C480 1.476 . S
C490 N485 1.318 . S
C490 C489 1.396 . S
H491 C486 0.929 . S
O492 Mn468 2.385 . S
O492 C470 1.234 . S
O493 Mn468 2.209 . S
O493 Mn469 2.215 . S
O493 C470 1.283 . S
O494 Mn468 2.094 . S
O494 C472 1.240 . S
O495 Mn469 2.117 . S
O495 C472 1.264 . S
C496 C489 1.403 . S
C496 C497 1.399 . S
C496 H502 0.929 . S
C497 C477 1.449 . S
C497 C496 1.399 . S
C497 H503 0.930 . S
H498 C478 0.931 . S
H499 C479 0.930 . S
H500 C487 0.931 . S
H501 C488 0.929 . S
H502 C496 0.929 . S
H503 C497 0.930 . S
Mn504 O509 2.095 . S
Mn504 O519 2.162 . S
Mn504 O520 2.297 . S
Mn504 O528 2.385 . S
Mn504 O529 2.209 . S
Mn504 O530 2.094 . S
Mn505 O510 2.121 . S
Mn505 N512 2.257 . S
Mn505 N521 2.282 . S
Mn505 O529 2.215 . S
Mn505 O531 2.117 . S
C506 O528 1.234 . S
C506 O529 1.283 . S
C507 O519 1.281 . S
C507 O520 1.236 . S
C508 O530 1.240 . S
C508 O531 1.264 . S
O509 Mn504 2.095 . S
O509 C518 1.250 . S
O510 Mn505 2.121 . S
O510 C518 1.258 . S
C511 N512 1.326 . S
C511 C515 1.460 . S
C511 H517 0.929 . S
N512 Mn505 2.257 . S
N512 C511 1.326 . S
N512 C516 1.362 . S
C513 C514 1.258 . S
C513 C516 1.431 . S
C513 C533 1.449 . S
C514 C513 1.258 . S
C514 C515 1.477 . S
C514 H534 0.931 . S
C515 C511 1.460 . S
C515 C514 1.477 . S
C515 H535 0.930 . S
C516 N512 1.362 . S
C516 C513 1.431 . S
C516 C526 1.476 . S
H517 C511 0.929 . S
C518 O509 1.250 . S
C518 O510 1.258 . S
O519 Mn504 2.162 . S
O519 C507 1.281 . S
O520 Mn504 2.297 . S
O520 C507 1.236 . S
N521 Mn505 2.282 . S
N521 C522 1.328 . S
N521 C526 1.318 . S
C522 N521 1.328 . S
C522 C523 1.457 . S
C522 H527 0.929 . S
C523 C522 1.457 . S
C523 C524 1.291 . S
C523 H536 0.931 . S
C524 C523 1.291 . S
C524 C525 1.373 . S
C524 H537 0.929 . S
C525 C524 1.373 . S
C525 C526 1.396 . S
C525 C532 1.403 . S
C526 C516 1.476 . S
C526 N521 1.318 . S
C526 C525 1.396 . S
H527 C522 0.929 . S
O528 Mn504 2.385 . S
O528 C506 1.234 . S
O529 Mn504 2.209 . S
O529 Mn505 2.215 . S
O529 C506 1.283 . S
O530 Mn504 2.094 . S
O530 C508 1.240 . S
O531 Mn505 2.117 . S
O531 C508 1.264 . S
C532 C525 1.403 . S
C532 C533 1.399 . S
C532 H538 0.929 . S
C533 C513 1.449 . S
C533 C532 1.399 . S
C533 H539 0.930 . S
H534 C514 0.931 . S
H535 C515 0.930 . S
H536 C523 0.931 . S
H537 C524 0.929 . S
H538 C532 0.929 . S
H539 C533 0.930 . S
Mn540 O545 2.095 . S
Mn540 O555 2.162 . S
Mn540 O556 2.297 . S
Mn540 O564 2.385 . S
Mn540 O565 2.209 . S
Mn540 O566 2.094 . S
Mn541 O546 2.121 . S
Mn541 N548 2.257 . S
Mn541 N557 2.282 . S
Mn541 O565 2.215 . S
Mn541 O567 2.117 . S
C542 O564 1.234 . S
C542 O565 1.283 . S
C543 O555 1.281 . S
C543 O556 1.236 . S
C544 O566 1.240 . S
C544 O567 1.264 . S
O545 Mn540 2.095 . S
O545 C554 1.250 . S
O546 Mn541 2.121 . S
O546 C554 1.258 . S
C547 N548 1.326 . S
C547 C551 1.460 . S
C547 H553 0.929 . S
N548 Mn541 2.257 . S
N548 C547 1.326 . S
N548 C552 1.362 . S
C549 C550 1.258 . S
C549 C552 1.431 . S
C549 C569 1.449 . S
C550 C549 1.258 . S
C550 C551 1.477 . S
C550 H570 0.931 . S
C551 C547 1.460 . S
C551 C550 1.477 . S
C551 H571 0.930 . S
C552 N548 1.362 . S
C552 C549 1.431 . S
C552 C562 1.476 . S
H553 C547 0.929 . S
C554 O545 1.250 . S
C554 O546 1.258 . S
O555 Mn540 2.162 . S
O555 C543 1.281 . S
O556 Mn540 2.297 . S
O556 C543 1.236 . S
N557 Mn541 2.282 . S
N557 C558 1.328 . S
N557 C562 1.318 . S
C558 N557 1.328 . S
C558 C559 1.457 . S
C558 H563 0.929 . S
C559 C558 1.457 . S
C559 C560 1.291 . S
C559 H572 0.931 . S
C560 C559 1.291 . S
C560 C561 1.373 . S
C560 H573 0.929 . S
C561 C560 1.373 . S
C561 C562 1.396 . S
C561 C568 1.403 . S
C562 C552 1.476 . S
C562 N557 1.318 . S
C562 C561 1.396 . S
H563 C558 0.929 . S
O564 Mn540 2.385 . S
O564 C542 1.234 . S
O565 Mn540 2.209 . S
O565 Mn541 2.215 . S
O565 C542 1.283 . S
O566 Mn540 2.094 . S
O566 C544 1.240 . S
O567 Mn541 2.117 . S
O567 C544 1.264 . S
C568 C561 1.403 . S
C568 C569 1.399 . S
C568 H574 0.929 . S
C569 C549 1.449 . S
C569 C568 1.399 . S
C569 H575 0.930 . S
H570 C550 0.931 . S
H571 C551 0.930 . S
H572 C559 0.931 . S
H573 C560 0.929 . S
H574 C568 0.929 . S
H575 C569 0.930 . S
Mn576 O581 2.095 . S
Mn576 O591 2.162 . S
Mn576 O592 2.297 . S
Mn576 O600 2.385 . S
Mn576 O601 2.209 . S
Mn576 O602 2.094 . S
Mn577 O582 2.121 . S
Mn577 N584 2.257 . S
Mn577 N593 2.282 . S
Mn577 O601 2.215 . S
Mn577 O603 2.117 . S
C578 O600 1.234 . S
C578 O601 1.283 . S
C579 O591 1.281 . S
C579 O592 1.236 . S
C580 O602 1.240 . S
C580 O603 1.264 . S
O581 Mn576 2.095 . S
O581 C590 1.250 . S
O582 Mn577 2.121 . S
O582 C590 1.258 . S
C583 N584 1.326 . S
C583 C587 1.460 . S
C583 H589 0.929 . S
N584 Mn577 2.257 . S
N584 C583 1.326 . S
N584 C588 1.362 . S
C585 C586 1.258 . S
C585 C588 1.431 . S
C585 C605 1.449 . S
C586 C585 1.258 . S
C586 C587 1.477 . S
C586 H606 0.931 . S
C587 C583 1.460 . S
C587 C586 1.477 . S
C587 H607 0.930 . S
C588 N584 1.362 . S
C588 C585 1.431 . S
C588 C598 1.476 . S
H589 C583 0.929 . S
C590 O581 1.250 . S
C590 O582 1.258 . S
O591 Mn576 2.162 . S
O591 C579 1.281 . S
O592 Mn576 2.297 . S
O592 C579 1.236 . S
N593 Mn577 2.282 . S
N593 C594 1.328 . S
N593 C598 1.318 . S
C594 N593 1.328 . S
C594 C595 1.457 . S
C594 H599 0.929 . S
C595 C594 1.457 . S
C595 C596 1.291 . S
C595 H608 0.931 . S
C596 C595 1.291 . S
C596 C597 1.373 . S
C596 H609 0.929 . S
C597 C596 1.373 . S
C597 C598 1.396 . S
C597 C604 1.403 . S
C598 C588 1.476 . S
C598 N593 1.318 . S
C598 C597 1.396 . S
H599 C594 0.929 . S
O600 Mn576 2.385 . S
O600 C578 1.234 . S
O601 Mn576 2.209 . S
O601 Mn577 2.215 . S
O601 C578 1.283 . S
O602 Mn576 2.094 . S
O602 C580 1.240 . S
O603 Mn577 2.117 . S
O603 C580 1.264 . S
C604 C597 1.403 . S
C604 C605 1.399 . S
C604 H610 0.929 . S
C605 C585 1.449 . S
C605 C604 1.399 . S
C605 H611 0.930 . S
H606 C586 0.931 . S
H607 C587 0.930 . S
H608 C595 0.931 . S
H609 C596 0.929 . S
H610 C604 0.929 . S
H611 C605 0.930 . S
Mn612 O617 2.095 . S
Mn612 O627 2.162 . S
Mn612 O628 2.297 . S
Mn612 O636 2.385 . S
Mn612 O637 2.209 . S
Mn612 O638 2.094 . S
Mn613 O618 2.121 . S
Mn613 N620 2.257 . S
Mn613 N629 2.282 . S
Mn613 O637 2.215 . S
Mn613 O639 2.117 . S
C614 O636 1.234 . S
C614 O637 1.283 . S
C615 O627 1.281 . S
C615 O628 1.236 . S
C616 O638 1.240 . S
C616 O639 1.264 . S
O617 Mn612 2.095 . S
O617 C626 1.250 . S
O618 Mn613 2.121 . S
O618 C626 1.258 . S
C619 N620 1.326 . S
C619 C623 1.460 . S
C619 H625 0.929 . S
N620 Mn613 2.257 . S
N620 C619 1.326 . S
N620 C624 1.362 . S
C621 C622 1.258 . S
C621 C624 1.431 . S
C621 C641 1.449 . S
C622 C621 1.258 . S
C622 C623 1.477 . S
C622 H642 0.931 . S
C623 C619 1.460 . S
C623 C622 1.477 . S
C623 H643 0.930 . S
C624 N620 1.362 . S
C624 C621 1.431 . S
C624 C634 1.476 . S
H625 C619 0.929 . S
C626 O617 1.250 . S
C626 O618 1.258 . S
O627 Mn612 2.162 . S
O627 C615 1.281 . S
O628 Mn612 2.297 . S
O628 C615 1.236 . S
N629 Mn613 2.282 . S
N629 C630 1.328 . S
N629 C634 1.318 . S
C630 N629 1.328 . S
C630 C631 1.457 . S
C630 H635 0.929 . S
C631 C630 1.457 . S
C631 C632 1.291 . S
C631 H644 0.931 . S
C632 C631 1.291 . S
C632 C633 1.373 . S
C632 H645 0.929 . S
C633 C632 1.373 . S
C633 C634 1.396 . S
C633 C640 1.403 . S
C634 C624 1.476 . S
C634 N629 1.318 . S
C634 C633 1.396 . S
H635 C630 0.929 . S
O636 Mn612 2.385 . S
O636 C614 1.234 . S
O637 Mn612 2.209 . S
O637 Mn613 2.215 . S
O637 C614 1.283 . S
O638 Mn612 2.094 . S
O638 C616 1.240 . S
O639 Mn613 2.117 . S
O639 C616 1.264 . S
C640 C633 1.403 . S
C640 C641 1.399 . S
C640 H646 0.929 . S
C641 C621 1.449 . S
C641 C640 1.399 . S
C641 H647 0.930 . S
H642 C622 0.931 . S
H643 C623 0.930 . S
H644 C631 0.931 . S
H645 C632 0.929 . S
H646 C640 0.929 . S
H647 C641 0.930 . S
Mn648 O653 2.095 . S
Mn648 O663 2.162 . S
Mn648 O664 2.297 . S
Mn648 O672 2.385 . S
Mn648 O673 2.209 . S
Mn648 O674 2.094 . S
Mn649 O654 2.121 . S
Mn649 N656 2.257 . S
Mn649 N665 2.282 . S
Mn649 O673 2.215 . S
Mn649 O675 2.117 . S
C650 O672 1.234 . S
C650 O673 1.283 . S
C651 O663 1.281 . S
C651 O664 1.236 . S
C652 O674 1.240 . S
C652 O675 1.264 . S
O653 Mn648 2.095 . S
O653 C662 1.250 . S
O654 Mn649 2.121 . S
O654 C662 1.258 . S
C655 N656 1.326 . S
C655 C659 1.460 . S
C655 H661 0.929 . S
N656 Mn649 2.257 . S
N656 C655 1.326 . S
N656 C660 1.362 . S
C657 C658 1.258 . S
C657 C660 1.431 . S
C657 C677 1.449 . S
C658 C657 1.258 . S
C658 C659 1.477 . S
C658 H678 0.931 . S
C659 C655 1.460 . S
C659 C658 1.477 . S
C659 H679 0.930 . S
C660 N656 1.362 . S
C660 C657 1.431 . S
C660 C670 1.476 . S
H661 C655 0.929 . S
C662 O653 1.250 . S
C662 O654 1.258 . S
O663 Mn648 2.162 . S
O663 C651 1.281 . S
O664 Mn648 2.297 . S
O664 C651 1.236 . S
N665 Mn649 2.282 . S
N665 C666 1.328 . S
N665 C670 1.318 . S
C666 N665 1.328 . S
C666 C667 1.457 . S
C666 H671 0.929 . S
C667 C666 1.457 . S
C667 C668 1.291 . S
C667 H680 0.931 . S
C668 C667 1.291 . S
C668 C669 1.373 . S
C668 H681 0.929 . S
C669 C668 1.373 . S
C669 C670 1.396 . S
C669 C676 1.403 . S
C670 C660 1.476 . S
C670 N665 1.318 . S
C670 C669 1.396 . S
H671 C666 0.929 . S
O672 Mn648 2.385 . S
O672 C650 1.234 . S
O673 Mn648 2.209 . S
O673 Mn649 2.215 . S
O673 C650 1.283 . S
O674 Mn648 2.094 . S
O674 C652 1.240 . S
O675 Mn649 2.117 . S
O675 C652 1.264 . S
C676 C669 1.403 . S
C676 C677 1.399 . S
C676 H682 0.929 . S
C677 C657 1.449 . S
C677 C676 1.399 . S
C677 H683 0.930 . S
H678 C658 0.931 . S
H679 C659 0.930 . S
H680 C667 0.931 . S
H681 C668 0.929 . S
H682 C676 0.929 . S
H683 C677 0.930 . S
Mn684 O689 2.095 . S
Mn684 O699 2.162 . S
Mn684 O700 2.297 . S
Mn684 O708 2.385 . S
Mn684 O709 2.209 . S
Mn684 O710 2.094 . S
Mn685 O690 2.121 . S
Mn685 N692 2.257 . S
Mn685 N701 2.282 . S
Mn685 O709 2.215 . S
Mn685 O711 2.117 . S
C686 O708 1.234 . S
C686 O709 1.283 . S
C687 O699 1.281 . S
C687 O700 1.236 . S
C688 O710 1.240 . S
C688 O711 1.264 . S
O689 Mn684 2.095 . S
O689 C698 1.250 . S
O690 Mn685 2.121 . S
O690 C698 1.258 . S
C691 N692 1.326 . S
C691 C695 1.460 . S
C691 H697 0.929 . S
N692 Mn685 2.257 . S
N692 C691 1.326 . S
N692 C696 1.362 . S
C693 C694 1.258 . S
C693 C696 1.431 . S
C693 C713 1.449 . S
C694 C693 1.258 . S
C694 C695 1.477 . S
C694 H714 0.931 . S
C695 C691 1.460 . S
C695 C694 1.477 . S
C695 H715 0.930 . S
C696 N692 1.362 . S
C696 C693 1.431 . S
C696 C706 1.476 . S
H697 C691 0.929 . S
C698 O689 1.250 . S
C698 O690 1.258 . S
O699 Mn684 2.162 . S
O699 C687 1.281 . S
O700 Mn684 2.297 . S
O700 C687 1.236 . S
N701 Mn685 2.282 . S
N701 C702 1.328 . S
N701 C706 1.318 . S
C702 N701 1.328 . S
C702 C703 1.457 . S
C702 H707 0.929 . S
C703 C702 1.457 . S
C703 C704 1.291 . S
C703 H716 0.931 . S
C704 C703 1.291 . S
C704 C705 1.373 . S
C704 H717 0.929 . S
C705 C704 1.373 . S
C705 C706 1.396 . S
C705 C712 1.403 . S
C706 C696 1.476 . S
C706 N701 1.318 . S
C706 C705 1.396 . S
H707 C702 0.929 . S
O708 Mn684 2.385 . S
O708 C686 1.234 . S
O709 Mn684 2.209 . S
O709 Mn685 2.215 . S
O709 C686 1.283 . S
O710 Mn684 2.094 . S
O710 C688 1.240 . S
O711 Mn685 2.117 . S
O711 C688 1.264 . S
C712 C705 1.403 . S
C712 C713 1.399 . S
C712 H718 0.929 . S
C713 C693 1.449 . S
C713 C712 1.399 . S
C713 H719 0.930 . S
H714 C694 0.931 . S
H715 C695 0.930 . S
H716 C703 0.931 . S
H717 C704 0.929 . S
H718 C712 0.929 . S
H719 C713 0.930 . S
Mn720 O725 2.095 . S
Mn720 O735 2.162 . S
Mn720 O736 2.297 . S
Mn720 O744 2.385 . S
Mn720 O745 2.209 . S
Mn720 O746 2.094 . S
Mn721 O726 2.121 . S
Mn721 N728 2.257 . S
Mn721 N737 2.282 . S
Mn721 O745 2.215 . S
Mn721 O747 2.117 . S
C722 O744 1.234 . S
C722 O745 1.283 . S
C723 O735 1.281 . S
C723 O736 1.236 . S
C724 O746 1.240 . S
C724 O747 1.264 . S
O725 Mn720 2.095 . S
O725 C734 1.250 . S
O726 Mn721 2.121 . S
O726 C734 1.258 . S
C727 N728 1.326 . S
C727 C731 1.460 . S
C727 H733 0.929 . S
N728 Mn721 2.257 . S
N728 C727 1.326 . S
N728 C732 1.362 . S
C729 C730 1.258 . S
C729 C732 1.431 . S
C729 C749 1.449 . S
C730 C729 1.258 . S
C730 C731 1.477 . S
C730 H750 0.931 . S
C731 C727 1.460 . S
C731 C730 1.477 . S
C731 H751 0.930 . S
C732 N728 1.362 . S
C732 C729 1.431 . S
C732 C742 1.476 . S
H733 C727 0.929 . S
C734 O725 1.250 . S
C734 O726 1.258 . S
O735 Mn720 2.162 . S
O735 C723 1.281 . S
O736 Mn720 2.297 . S
O736 C723 1.236 . S
N737 Mn721 2.282 . S
N737 C738 1.328 . S
N737 C742 1.318 . S
C738 N737 1.328 . S
C738 C739 1.457 . S
C738 H743 0.929 . S
C739 C738 1.457 . S
C739 C740 1.291 . S
C739 H752 0.931 . S
C740 C739 1.291 . S
C740 C741 1.373 . S
C740 H753 0.929 . S
C741 C740 1.373 . S
C741 C742 1.396 . S
C741 C748 1.403 . S
C742 C732 1.476 . S
C742 N737 1.318 . S
C742 C741 1.396 . S
H743 C738 0.929 . S
O744 Mn720 2.385 . S
O744 C722 1.234 . S
O745 Mn720 2.209 . S
O745 Mn721 2.215 . S
O745 C722 1.283 . S
O746 Mn720 2.094 . S
O746 C724 1.240 . S
O747 Mn721 2.117 . S
O747 C724 1.264 . S
C748 C741 1.403 . S
C748 C749 1.399 . S
C748 H754 0.929 . S
C749 C729 1.449 . S
C749 C748 1.399 . S
C749 H755 0.930 . S
H750 C730 0.931 . S
H751 C731 0.930 . S
H752 C739 0.931 . S
H753 C740 0.929 . S
H754 C748 0.929 . S
H755 C749 0.930 . S
Mn756 O761 2.095 . S
Mn756 O771 2.162 . S
Mn756 O772 2.297 . S
Mn756 O780 2.385 . S
Mn756 O781 2.209 . S
Mn756 O782 2.094 . S
Mn757 O762 2.121 . S
Mn757 N764 2.257 . S
Mn757 N773 2.282 . S
Mn757 O781 2.215 . S
Mn757 O783 2.117 . S
C758 O780 1.234 . S
C758 O781 1.283 . S
C759 O771 1.281 . S
C759 O772 1.236 . S
C760 O782 1.240 . S
C760 O783 1.264 . S
O761 Mn756 2.095 . S
O761 C770 1.250 . S
O762 Mn757 2.121 . S
O762 C770 1.258 . S
C763 N764 1.326 . S
C763 C767 1.460 . S
C763 H769 0.929 . S
N764 Mn757 2.257 . S
N764 C763 1.326 . S
N764 C768 1.362 . S
C765 C766 1.258 . S
C765 C768 1.431 . S
C765 C785 1.449 . S
C766 C765 1.258 . S
C766 C767 1.477 . S
C766 H786 0.931 . S
C767 C763 1.460 . S
C767 C766 1.477 . S
C767 H787 0.930 . S
C768 N764 1.362 . S
C768 C765 1.431 . S
C768 C778 1.476 . S
H769 C763 0.929 . S
C770 O761 1.250 . S
C770 O762 1.258 . S
O771 Mn756 2.162 . S
O771 C759 1.281 . S
O772 Mn756 2.297 . S
O772 C759 1.236 . S
N773 Mn757 2.282 . S
N773 C774 1.328 . S
N773 C778 1.318 . S
C774 N773 1.328 . S
C774 C775 1.457 . S
C774 H779 0.929 . S
C775 C774 1.457 . S
C775 C776 1.291 . S
C775 H788 0.931 . S
C776 C775 1.291 . S
C776 C777 1.373 . S
C776 H789 0.929 . S
C777 C776 1.373 . S
C777 C778 1.396 . S
C777 C784 1.403 . S
C778 C768 1.476 . S
C778 N773 1.318 . S
C778 C777 1.396 . S
H779 C774 0.929 . S
O780 Mn756 2.385 . S
O780 C758 1.234 . S
O781 Mn756 2.209 . S
O781 Mn757 2.215 . S
O781 C758 1.283 . S
O782 Mn756 2.094 . S
O782 C760 1.240 . S
O783 Mn757 2.117 . S
O783 C760 1.264 . S
C784 C777 1.403 . S
C784 C785 1.399 . S
C784 H790 0.929 . S
C785 C765 1.449 . S
C785 C784 1.399 . S
C785 H791 0.930 . S
H786 C766 0.931 . S
H787 C767 0.930 . S
H788 C775 0.931 . S
H789 C776 0.929 . S
H790 C784 0.929 . S
H791 C785 0.930 . S
Mn792 O797 2.095 . S
Mn792 O807 2.162 . S
Mn792 O808 2.297 . S
Mn792 O816 2.385 . S
Mn792 O817 2.209 . S
Mn792 O818 2.094 . S
Mn793 O798 2.121 . S
Mn793 N800 2.257 . S
Mn793 N809 2.282 . S
Mn793 O817 2.215 . S
Mn793 O819 2.117 . S
C794 O816 1.234 . S
C794 O817 1.283 . S
C795 O807 1.281 . S
C795 O808 1.236 . S
C796 O818 1.240 . S
C796 O819 1.264 . S
O797 Mn792 2.095 . S
O797 C806 1.250 . S
O798 Mn793 2.121 . S
O798 C806 1.258 . S
C799 N800 1.326 . S
C799 C803 1.460 . S
C799 H805 0.929 . S
N800 Mn793 2.257 . S
N800 C799 1.326 . S
N800 C804 1.362 . S
C801 C802 1.258 . S
C801 C804 1.431 . S
C801 C821 1.449 . S
C802 C801 1.258 . S
C802 C803 1.477 . S
C802 H822 0.931 . S
C803 C799 1.460 . S
C803 C802 1.477 . S
C803 H823 0.930 . S
C804 N800 1.362 . S
C804 C801 1.431 . S
C804 C814 1.476 . S
H805 C799 0.929 . S
C806 O797 1.250 . S
C806 O798 1.258 . S
O807 Mn792 2.162 . S
O807 C795 1.281 . S
O808 Mn792 2.297 . S
O808 C795 1.236 . S
N809 Mn793 2.282 . S
N809 C810 1.328 . S
N809 C814 1.318 . S
C810 N809 1.328 . S
C810 C811 1.457 . S
C810 H815 0.929 . S
C811 C810 1.457 . S
C811 C812 1.291 . S
C811 H824 0.931 . S
C812 C811 1.291 . S
C812 C813 1.373 . S
C812 H825 0.929 . S
C813 C812 1.373 . S
C813 C814 1.396 . S
C813 C820 1.403 . S
C814 C804 1.476 . S
C814 N809 1.318 . S
C814 C813 1.396 . S
H815 C810 0.929 . S
O816 Mn792 2.385 . S
O816 C794 1.234 . S
O817 Mn792 2.209 . S
O817 Mn793 2.215 . S
O817 C794 1.283 . S
O818 Mn792 2.094 . S
O818 C796 1.240 . S
O819 Mn793 2.117 . S
O819 C796 1.264 . S
C820 C813 1.403 . S
C820 C821 1.399 . S
C820 H826 0.929 . S
C821 C801 1.449 . S
C821 C820 1.399 . S
C821 H827 0.930 . S
H822 C802 0.931 . S
H823 C803 0.930 . S
H824 C811 0.931 . S
H825 C812 0.929 . S
H826 C820 0.929 . S
H827 C821 0.930 . S
Mn828 O833 2.095 . S
Mn828 O843 2.162 . S
Mn828 O844 2.297 . S
Mn828 O852 2.385 . S
Mn828 O853 2.209 . S
Mn828 O854 2.094 . S
Mn829 O834 2.121 . S
Mn829 N836 2.257 . S
Mn829 N845 2.282 . S
Mn829 O853 2.215 . S
Mn829 O855 2.117 . S
C830 O852 1.234 . S
C830 O853 1.283 . S
C831 O843 1.281 . S
C831 O844 1.236 . S
C832 O854 1.240 . S
C832 O855 1.264 . S
O833 Mn828 2.095 . S
O833 C842 1.250 . S
O834 Mn829 2.121 . S
O834 C842 1.258 . S
C835 N836 1.326 . S
C835 C839 1.460 . S
C835 H841 0.929 . S
N836 Mn829 2.257 . S
N836 C835 1.326 . S
N836 C840 1.362 . S
C837 C838 1.258 . S
C837 C840 1.431 . S
C837 C857 1.449 . S
C838 C837 1.258 . S
C838 C839 1.477 . S
C838 H858 0.931 . S
C839 C835 1.460 . S
C839 C838 1.477 . S
C839 H859 0.930 . S
C840 N836 1.362 . S
C840 C837 1.431 . S
C840 C850 1.476 . S
H841 C835 0.929 . S
C842 O833 1.250 . S
C842 O834 1.258 . S
O843 Mn828 2.162 . S
O843 C831 1.281 . S
O844 Mn828 2.297 . S
O844 C831 1.236 . S
N845 Mn829 2.282 . S
N845 C846 1.328 . S
N845 C850 1.318 . S
C846 N845 1.328 . S
C846 C847 1.457 . S
C846 H851 0.929 . S
C847 C846 1.457 . S
C847 C848 1.291 . S
C847 H860 0.931 . S
C848 C847 1.291 . S
C848 C849 1.373 . S
C848 H861 0.929 . S
C849 C848 1.373 . S
C849 C850 1.396 . S
C849 C856 1.403 . S
C850 C840 1.476 . S
C850 N845 1.318 . S
C850 C849 1.396 . S
H851 C846 0.929 . S
O852 Mn828 2.385 . S
O852 C830 1.234 . S
O853 Mn828 2.209 . S
O853 Mn829 2.215 . S
O853 C830 1.283 . S
O854 Mn828 2.094 . S
O854 C832 1.240 . S
O855 Mn829 2.117 . S
O855 C832 1.264 . S
C856 C849 1.403 . S
C856 C857 1.399 . S
C856 H862 0.929 . S
C857 C837 1.449 . S
C857 C856 1.399 . S
C857 H863 0.930 . S
H858 C838 0.931 . S
H859 C839 0.930 . S
H860 C847 0.931 . S
H861 C848 0.929 . S
H862 C856 0.929 . S
H863 C857 0.930 . S
Mn864 O869 2.095 . S
Mn864 O879 2.162 . S
Mn864 O880 2.297 . S
Mn864 O888 2.385 . S
Mn864 O889 2.209 . S
Mn864 O890 2.094 . S
Mn865 O870 2.121 . S
Mn865 N872 2.257 . S
Mn865 N881 2.282 . S
Mn865 O889 2.215 . S
Mn865 O891 2.117 . S
C866 O888 1.234 . S
C866 O889 1.283 . S
C867 O879 1.281 . S
C867 O880 1.236 . S
C868 O890 1.240 . S
C868 O891 1.264 . S
O869 Mn864 2.095 . S
O869 C878 1.250 . S
O870 Mn865 2.121 . S
O870 C878 1.258 . S
C871 N872 1.326 . S
C871 C875 1.460 . S
C871 H877 0.929 . S
N872 Mn865 2.257 . S
N872 C871 1.326 . S
N872 C876 1.362 . S
C873 C874 1.258 . S
C873 C876 1.431 . S
C873 C893 1.449 . S
C874 C873 1.258 . S
C874 C875 1.477 . S
C874 H894 0.931 . S
C875 C871 1.460 . S
C875 C874 1.477 . S
C875 H895 0.930 . S
C876 N872 1.362 . S
C876 C873 1.431 . S
C876 C886 1.476 . S
H877 C871 0.929 . S
C878 O869 1.250 . S
C878 O870 1.258 . S
O879 Mn864 2.162 . S
O879 C867 1.281 . S
O880 Mn864 2.297 . S
O880 C867 1.236 . S
N881 Mn865 2.282 . S
N881 C882 1.328 . S
N881 C886 1.318 . S
C882 N881 1.328 . S
C882 C883 1.457 . S
C882 H887 0.929 . S
C883 C882 1.457 . S
C883 C884 1.291 . S
C883 H896 0.931 . S
C884 C883 1.291 . S
C884 C885 1.373 . S
C884 H897 0.929 . S
C885 C884 1.373 . S
C885 C886 1.396 . S
C885 C892 1.403 . S
C886 C876 1.476 . S
C886 N881 1.318 . S
C886 C885 1.396 . S
H887 C882 0.929 . S
O888 Mn864 2.385 . S
O888 C866 1.234 . S
O889 Mn864 2.209 . S
O889 Mn865 2.215 . S
O889 C866 1.283 . S
O890 Mn864 2.094 . S
O890 C868 1.240 . S
O891 Mn865 2.117 . S
O891 C868 1.264 . S
C892 C885 1.403 . S
C892 C893 1.399 . S
C892 H898 0.929 . S
C893 C873 1.449 . S
C893 C892 1.399 . S
C893 H899 0.930 . S
H894 C874 0.931 . S
H895 C875 0.930 . S
H896 C883 0.931 . S
H897 C884 0.929 . S
H898 C892 0.929 . S
H899 C893 0.930 . S
Mn900 O905 2.095 . S
Mn900 O915 2.162 . S
Mn900 O916 2.297 . S
Mn900 O924 2.385 . S
Mn900 O925 2.209 . S
Mn900 O926 2.094 . S
Mn901 O906 2.121 . S
Mn901 N908 2.257 . S
Mn901 N917 2.282 . S
Mn901 O925 2.215 . S
Mn901 O927 2.117 . S
C902 O924 1.234 . S
C902 O925 1.283 . S
C903 O915 1.281 . S
C903 O916 1.236 . S
C904 O926 1.240 . S
C904 O927 1.264 . S
O905 Mn900 2.095 . S
O905 C914 1.250 . S
O906 Mn901 2.121 . S
O906 C914 1.258 . S
C907 N908 1.326 . S
C907 C911 1.460 . S
C907 H913 0.929 . S
N908 Mn901 2.257 . S
N908 C907 1.326 . S
N908 C912 1.362 . S
C909 C910 1.258 . S
C909 C912 1.431 . S
C909 C929 1.449 . S
C910 C909 1.258 . S
C910 C911 1.477 . S
C910 H930 0.931 . S
C911 C907 1.460 . S
C911 C910 1.477 . S
C911 H931 0.930 . S
C912 N908 1.362 . S
C912 C909 1.431 . S
C912 C922 1.476 . S
H913 C907 0.929 . S
C914 O905 1.250 . S
C914 O906 1.258 . S
O915 Mn900 2.162 . S
O915 C903 1.281 . S
O916 Mn900 2.297 . S
O916 C903 1.236 . S
N917 Mn901 2.282 . S
N917 C918 1.328 . S
N917 C922 1.318 . S
C918 N917 1.328 . S
C918 C919 1.457 . S
C918 H923 0.929 . S
C919 C918 1.457 . S
C919 C920 1.291 . S
C919 H932 0.931 . S
C920 C919 1.291 . S
C920 C921 1.373 . S
C920 H933 0.929 . S
C921 C920 1.373 . S
C921 C922 1.396 . S
C921 C928 1.403 . S
C922 C912 1.476 . S
C922 N917 1.318 . S
C922 C921 1.396 . S
H923 C918 0.929 . S
O924 Mn900 2.385 . S
O924 C902 1.234 . S
O925 Mn900 2.209 . S
O925 Mn901 2.215 . S
O925 C902 1.283 . S
O926 Mn900 2.094 . S
O926 C904 1.240 . S
O927 Mn901 2.117 . S
O927 C904 1.264 . S
C928 C921 1.403 . S
C928 C929 1.399 . S
C928 H934 0.929 . S
C929 C909 1.449 . S
C929 C928 1.399 . S
C929 H935 0.930 . S
H930 C910 0.931 . S
H931 C911 0.930 . S
H932 C919 0.931 . S
H933 C920 0.929 . S
H934 C928 0.929 . S
H935 C929 0.930 . S
Mn936 O941 2.095 . S
Mn936 O951 2.162 . S
Mn936 O952 2.297 . S
Mn936 O960 2.385 . S
Mn936 O961 2.209 . S
Mn936 O962 2.094 . S
Mn937 O942 2.121 . S
Mn937 N944 2.257 . S
Mn937 N953 2.282 . S
Mn937 O961 2.215 . S
Mn937 O963 2.117 . S
C938 O960 1.234 . S
C938 O961 1.283 . S
C939 O951 1.281 . S
C939 O952 1.236 . S
C940 O962 1.240 . S
C940 O963 1.264 . S
O941 Mn936 2.095 . S
O941 C950 1.250 . S
O942 Mn937 2.121 . S
O942 C950 1.258 . S
C943 N944 1.326 . S
C943 C947 1.460 . S
C943 H949 0.929 . S
N944 Mn937 2.257 . S
N944 C943 1.326 . S
N944 C948 1.362 . S
C945 C946 1.258 . S
C945 C948 1.431 . S
C945 C965 1.449 . S
C946 C945 1.258 . S
C946 C947 1.477 . S
C946 H966 0.931 . S
C947 C943 1.460 . S
C947 C946 1.477 . S
C947 H967 0.930 . S
C948 N944 1.362 . S
C948 C945 1.431 . S
C948 C958 1.476 . S
H949 C943 0.929 . S
C950 O941 1.250 . S
C950 O942 1.258 . S
O951 Mn936 2.162 . S
O951 C939 1.281 . S
O952 Mn936 2.297 . S
O952 C939 1.236 . S
N953 Mn937 2.282 . S
N953 C954 1.328 . S
N953 C958 1.318 . S
C954 N953 1.328 . S
C954 C955 1.457 . S
C954 H959 0.929 . S
C955 C954 1.457 . S
C955 C956 1.291 . S
C955 H968 0.931 . S
C956 C955 1.291 . S
C956 C957 1.373 . S
C956 H969 0.929 . S
C957 C956 1.373 . S
C957 C958 1.396 . S
C957 C964 1.403 . S
C958 C948 1.476 . S
C958 N953 1.318 . S
C958 C957 1.396 . S
H959 C954 0.929 . S
O960 Mn936 2.385 . S
O960 C938 1.234 . S
O961 Mn936 2.209 . S
O961 Mn937 2.215 . S
O961 C938 1.283 . S
O962 Mn936 2.094 . S
O962 C940 1.240 . S
O963 Mn937 2.117 . S
O963 C940 1.264 . S
C964 C957 1.403 . S
C964 C965 1.399 . S
C964 H970 0.929 . S
C965 C945 1.449 . S
C965 C964 1.399 . S
C965 H971 0.930 . S
H966 C946 0.931 . S
H967 C947 0.930 . S
H968 C955 0.931 . S
H969 C956 0.929 . S
H970 C964 0.929 . S
H971 C965 0.930 . S
Mn972 O977 2.095 . S
Mn972 O987 2.162 . S
Mn972 O988 2.297 . S
Mn972 O996 2.385 . S
Mn972 O997 2.209 . S
Mn972 O998 2.094 . S
Mn973 O978 2.121 . S
Mn973 N980 2.257 . S
Mn973 N989 2.282 . S
Mn973 O997 2.215 . S
Mn973 O999 2.117 . S
C974 O996 1.234 . S
C974 O997 1.283 . S
C975 O987 1.281 . S
C975 O988 1.236 . S
C976 O998 1.240 . S
C976 O999 1.264 . S
O977 Mn972 2.095 . S
O977 C986 1.250 . S
O978 Mn973 2.121 . S
O978 C986 1.258 . S
C979 N980 1.326 . S
C979 C983 1.460 . S
C979 H985 0.929 . S
N980 Mn973 2.257 . S
N980 C979 1.326 . S
N980 C984 1.362 . S
C981 C982 1.258 . S
C981 C984 1.431 . S
C981 C1001 1.449 . S
C982 C981 1.258 . S
C982 C983 1.477 . S
C982 H1002 0.931 . S
C983 C979 1.460 . S
C983 C982 1.477 . S
C983 H1003 0.930 . S
C984 N980 1.362 . S
C984 C981 1.431 . S
C984 C994 1.476 . S
H985 C979 0.929 . S
C986 O977 1.250 . S
C986 O978 1.258 . S
O987 Mn972 2.162 . S
O987 C975 1.281 . S
O988 Mn972 2.297 . S
O988 C975 1.236 . S
N989 Mn973 2.282 . S
N989 C990 1.328 . S
N989 C994 1.318 . S
C990 N989 1.328 . S
C990 C991 1.457 . S
C990 H995 0.929 . S
C991 C990 1.457 . S
C991 C992 1.291 . S
C991 H1004 0.931 . S
C992 C991 1.291 . S
C992 C993 1.373 . S
C992 H1005 0.929 . S
C993 C992 1.373 . S
C993 C994 1.396 . S
C993 C1000 1.403 . S
C994 C984 1.476 . S
C994 N989 1.318 . S
C994 C993 1.396 . S
H995 C990 0.929 . S
O996 Mn972 2.385 . S
O996 C974 1.234 . S
O997 Mn972 2.209 . S
O997 Mn973 2.215 . S
O997 C974 1.283 . S
O998 Mn972 2.094 . S
O998 C976 1.240 . S
O999 Mn973 2.117 . S
O999 C976 1.264 . S
C1000 C993 1.403 . S
C1000 C1001 1.399 . S
C1000 H1006 0.929 . S
C1001 C981 1.449 . S
C1001 C1000 1.399 . S
C1001 H1007 0.930 . S
H1002 C982 0.931 . S
H1003 C983 0.930 . S
H1004 C991 0.931 . S
H1005 C992 0.929 . S
H1006 C1000 0.929 . S
H1007 C1001 0.930 . S
Mn1008 O1013 2.095 . S
Mn1008 O1023 2.162 . S
Mn1008 O1024 2.297 . S
Mn1008 O1032 2.385 . S
Mn1008 O1033 2.209 . S
Mn1008 O1034 2.094 . S
Mn1009 O1014 2.121 . S
Mn1009 N1016 2.257 . S
Mn1009 N1025 2.282 . S
Mn1009 O1033 2.215 . S
Mn1009 O1035 2.117 . S
C1010 O1032 1.234 . S
C1010 O1033 1.283 . S
C1011 O1023 1.281 . S
C1011 O1024 1.236 . S
C1012 O1034 1.240 . S
C1012 O1035 1.264 . S
O1013 Mn1008 2.095 . S
O1013 C1022 1.250 . S
O1014 Mn1009 2.121 . S
O1014 C1022 1.258 . S
C1015 N1016 1.326 . S
C1015 C1019 1.460 . S
C1015 H1021 0.929 . S
N1016 Mn1009 2.257 . S
N1016 C1015 1.326 . S
N1016 C1020 1.362 . S
C1017 C1018 1.258 . S
C1017 C1020 1.431 . S
C1017 C1037 1.449 . S
C1018 C1017 1.258 . S
C1018 C1019 1.477 . S
C1018 H1038 0.931 . S
C1019 C1015 1.460 . S
C1019 C1018 1.477 . S
C1019 H1039 0.930 . S
C1020 N1016 1.362 . S
C1020 C1017 1.431 . S
C1020 C1030 1.476 . S
H1021 C1015 0.929 . S
C1022 O1013 1.250 . S
C1022 O1014 1.258 . S
O1023 Mn1008 2.162 . S
O1023 C1011 1.281 . S
O1024 Mn1008 2.297 . S
O1024 C1011 1.236 . S
N1025 Mn1009 2.282 . S
N1025 C1026 1.328 . S
N1025 C1030 1.318 . S
C1026 N1025 1.328 . S
C1026 C1027 1.457 . S
C1026 H1031 0.929 . S
C1027 C1026 1.457 . S
C1027 C1028 1.291 . S
C1027 H1040 0.931 . S
C1028 C1027 1.291 . S
C1028 C1029 1.373 . S
C1028 H1041 0.929 . S
C1029 C1028 1.373 . S
C1029 C1030 1.396 . S
C1029 C1036 1.403 . S
C1030 C1020 1.476 . S
C1030 N1025 1.318 . S
C1030 C1029 1.396 . S
H1031 C1026 0.929 . S
O1032 Mn1008 2.385 . S
O1032 C1010 1.234 . S
O1033 Mn1008 2.209 . S
O1033 Mn1009 2.215 . S
O1033 C1010 1.283 . S
O1034 Mn1008 2.094 . S
O1034 C1012 1.240 . S
O1035 Mn1009 2.117 . S
O1035 C1012 1.264 . S
C1036 C1029 1.403 . S
C1036 C1037 1.399 . S
C1036 H1042 0.929 . S
C1037 C1017 1.449 . S
C1037 C1036 1.399 . S
C1037 H1043 0.930 . S
H1038 C1018 0.931 . S
H1039 C1019 0.930 . S
H1040 C1027 0.931 . S
H1041 C1028 0.929 . S
H1042 C1036 0.929 . S
H1043 C1037 0.930 . S
Mn1044 O1049 2.095 . S
Mn1044 O1059 2.162 . S
Mn1044 O1060 2.297 . S
Mn1044 O1068 2.385 . S
Mn1044 O1069 2.209 . S
Mn1044 O1070 2.094 . S
Mn1045 O1050 2.121 . S
Mn1045 N1052 2.257 . S
Mn1045 N1061 2.282 . S
Mn1045 O1069 2.215 . S
Mn1045 O1071 2.117 . S
C1046 O1068 1.234 . S
C1046 O1069 1.283 . S
C1047 O1059 1.281 . S
C1047 O1060 1.236 . S
C1048 O1070 1.240 . S
C1048 O1071 1.264 . S
O1049 Mn1044 2.095 . S
O1049 C1058 1.250 . S
O1050 Mn1045 2.121 . S
O1050 C1058 1.258 . S
C1051 N1052 1.326 . S
C1051 C1055 1.460 . S
C1051 H1057 0.929 . S
N1052 Mn1045 2.257 . S
N1052 C1051 1.326 . S
N1052 C1056 1.362 . S
C1053 C1054 1.258 . S
C1053 C1056 1.431 . S
C1053 C1073 1.449 . S
C1054 C1053 1.258 . S
C1054 C1055 1.477 . S
C1054 H1074 0.931 . S
C1055 C1051 1.460 . S
C1055 C1054 1.477 . S
C1055 H1075 0.930 . S
C1056 N1052 1.362 . S
C1056 C1053 1.431 . S
C1056 C1066 1.476 . S
H1057 C1051 0.929 . S
C1058 O1049 1.250 . S
C1058 O1050 1.258 . S
O1059 Mn1044 2.162 . S
O1059 C1047 1.281 . S
O1060 Mn1044 2.297 . S
O1060 C1047 1.236 . S
N1061 Mn1045 2.282 . S
N1061 C1062 1.328 . S
N1061 C1066 1.318 . S
C1062 N1061 1.328 . S
C1062 C1063 1.457 . S
C1062 H1067 0.929 . S
C1063 C1062 1.457 . S
C1063 C1064 1.291 . S
C1063 H1076 0.931 . S
C1064 C1063 1.291 . S
C1064 C1065 1.373 . S
C1064 H1077 0.929 . S
C1065 C1064 1.373 . S
C1065 C1066 1.396 . S
C1065 C1072 1.403 . S
C1066 C1056 1.476 . S
C1066 N1061 1.318 . S
C1066 C1065 1.396 . S
H1067 C1062 0.929 . S
O1068 Mn1044 2.385 . S
O1068 C1046 1.234 . S
O1069 Mn1044 2.209 . S
O1069 Mn1045 2.215 . S
O1069 C1046 1.283 . S
O1070 Mn1044 2.094 . S
O1070 C1048 1.240 . S
O1071 Mn1045 2.117 . S
O1071 C1048 1.264 . S
C1072 C1065 1.403 . S
C1072 C1073 1.399 . S
C1072 H1078 0.929 . S
C1073 C1053 1.449 . S
C1073 C1072 1.399 . S
C1073 H1079 0.930 . S
H1074 C1054 0.931 . S
H1075 C1055 0.930 . S
H1076 C1063 0.931 . S
H1077 C1064 0.929 . S
H1078 C1072 0.929 . S
H1079 C1073 0.930 . S
Mn1080 O1085 2.095 . S
Mn1080 O1095 2.162 . S
Mn1080 O1096 2.297 . S
Mn1080 O1104 2.385 . S
Mn1080 O1105 2.209 . S
Mn1080 O1106 2.094 . S
Mn1081 O1086 2.121 . S
Mn1081 N1088 2.257 . S
Mn1081 N1097 2.282 . S
Mn1081 O1105 2.215 . S
Mn1081 O1107 2.117 . S
C1082 O1104 1.234 . S
C1082 O1105 1.283 . S
C1083 O1095 1.281 . S
C1083 O1096 1.236 . S
C1084 O1106 1.240 . S
C1084 O1107 1.264 . S
O1085 Mn1080 2.095 . S
O1085 C1094 1.250 . S
O1086 Mn1081 2.121 . S
O1086 C1094 1.258 . S
C1087 N1088 1.326 . S
C1087 C1091 1.460 . S
C1087 H1093 0.929 . S
N1088 Mn1081 2.257 . S
N1088 C1087 1.326 . S
N1088 C1092 1.362 . S
C1089 C1090 1.258 . S
C1089 C1092 1.431 . S
C1089 C1109 1.449 . S
C1090 C1089 1.258 . S
C1090 C1091 1.477 . S
C1090 H1110 0.931 . S
C1091 C1087 1.460 . S
C1091 C1090 1.477 . S
C1091 H1111 0.930 . S
C1092 N1088 1.362 . S
C1092 C1089 1.431 . S
C1092 C1102 1.476 . S
H1093 C1087 0.929 . S
C1094 O1085 1.250 . S
C1094 O1086 1.258 . S
O1095 Mn1080 2.162 . S
O1095 C1083 1.281 . S
O1096 Mn1080 2.297 . S
O1096 C1083 1.236 . S
N1097 Mn1081 2.282 . S
N1097 C1098 1.328 . S
N1097 C1102 1.318 . S
C1098 N1097 1.328 . S
C1098 C1099 1.457 . S
C1098 H1103 0.929 . S
C1099 C1098 1.457 . S
C1099 C1100 1.291 . S
C1099 H1112 0.931 . S
C1100 C1099 1.291 . S
C1100 C1101 1.373 . S
C1100 H1113 0.929 . S
C1101 C1100 1.373 . S
C1101 C1102 1.396 . S
C1101 C1108 1.403 . S
C1102 C1092 1.476 . S
C1102 N1097 1.318 . S
C1102 C1101 1.396 . S
H1103 C1098 0.929 . S
O1104 Mn1080 2.385 . S
O1104 C1082 1.234 . S
O1105 Mn1080 2.209 . S
O1105 Mn1081 2.215 . S
O1105 C1082 1.283 . S
O1106 Mn1080 2.094 . S
O1106 C1084 1.240 . S
O1107 Mn1081 2.117 . S
O1107 C1084 1.264 . S
C1108 C1101 1.403 . S
C1108 C1109 1.399 . S
C1108 H1114 0.929 . S
C1109 C1089 1.449 . S
C1109 C1108 1.399 . S
C1109 H1115 0.930 . S
H1110 C1090 0.931 . S
H1111 C1091 0.930 . S
H1112 C1099 0.931 . S
H1113 C1100 0.929 . S
H1114 C1108 0.929 . S
H1115 C1109 0.930 . S
Mn1116 O1121 2.095 . S
Mn1116 O1131 2.162 . S
Mn1116 O1132 2.297 . S
Mn1116 O1140 2.385 . S
Mn1116 O1141 2.209 . S
Mn1116 O1142 2.094 . S
Mn1117 O1122 2.121 . S
Mn1117 N1124 2.257 . S
Mn1117 N1133 2.282 . S
Mn1117 O1141 2.215 . S
Mn1117 O1143 2.117 . S
C1118 O1140 1.234 . S
C1118 O1141 1.283 . S
C1119 O1131 1.281 . S
C1119 O1132 1.236 . S
C1120 O1142 1.240 . S
C1120 O1143 1.264 . S
O1121 Mn1116 2.095 . S
O1121 C1130 1.250 . S
O1122 Mn1117 2.121 . S
O1122 C1130 1.258 . S
C1123 N1124 1.326 . S
C1123 C1127 1.460 . S
C1123 H1129 0.929 . S
N1124 Mn1117 2.257 . S
N1124 C1123 1.326 . S
N1124 C1128 1.362 . S
C1125 C1126 1.258 . S
C1125 C1128 1.431 . S
C1125 C1145 1.449 . S
C1126 C1125 1.258 . S
C1126 C1127 1.477 . S
C1126 H1146 0.931 . S
C1127 C1123 1.460 . S
C1127 C1126 1.477 . S
C1127 H1147 0.930 . S
C1128 N1124 1.362 . S
C1128 C1125 1.431 . S
C1128 C1138 1.476 . S
H1129 C1123 0.929 . S
C1130 O1121 1.250 . S
C1130 O1122 1.258 . S
O1131 Mn1116 2.162 . S
O1131 C1119 1.281 . S
O1132 Mn1116 2.297 . S
O1132 C1119 1.236 . S
N1133 Mn1117 2.282 . S
N1133 C1134 1.328 . S
N1133 C1138 1.318 . S
C1134 N1133 1.328 . S
C1134 C1135 1.457 . S
C1134 H1139 0.929 . S
C1135 C1134 1.457 . S
C1135 C1136 1.291 . S
C1135 H1148 0.931 . S
C1136 C1135 1.291 . S
C1136 C1137 1.373 . S
C1136 H1149 0.929 . S
C1137 C1136 1.373 . S
C1137 C1138 1.396 . S
C1137 C1144 1.403 . S
C1138 C1128 1.476 . S
C1138 N1133 1.318 . S
C1138 C1137 1.396 . S
H1139 C1134 0.929 . S
O1140 Mn1116 2.385 . S
O1140 C1118 1.234 . S
O1141 Mn1116 2.209 . S
O1141 Mn1117 2.215 . S
O1141 C1118 1.283 . S
O1142 Mn1116 2.094 . S
O1142 C1120 1.240 . S
O1143 Mn1117 2.117 . S
O1143 C1120 1.264 . S
C1144 C1137 1.403 . S
C1144 C1145 1.399 . S
C1144 H1150 0.929 . S
C1145 C1125 1.449 . S
C1145 C1144 1.399 . S
C1145 H1151 0.930 . S
H1146 C1126 0.931 . S
H1147 C1127 0.930 . S
H1148 C1135 0.931 . S
H1149 C1136 0.929 . S
H1150 C1144 0.929 . S
H1151 C1145 0.930 . S
Mn1152 O1157 2.095 . S
Mn1152 O1167 2.162 . S
Mn1152 O1168 2.297 . S
Mn1152 O1176 2.385 . S
Mn1152 O1177 2.209 . S
Mn1152 O1178 2.094 . S
Mn1153 O1158 2.121 . S
Mn1153 N1160 2.257 . S
Mn1153 N1169 2.282 . S
Mn1153 O1177 2.215 . S
Mn1153 O1179 2.117 . S
C1154 O1176 1.234 . S
C1154 O1177 1.283 . S
C1155 O1167 1.281 . S
C1155 O1168 1.236 . S
C1156 O1178 1.240 . S
C1156 O1179 1.264 . S
O1157 Mn1152 2.095 . S
O1157 C1166 1.250 . S
O1158 Mn1153 2.121 . S
O1158 C1166 1.258 . S
C1159 N1160 1.326 . S
C1159 C1163 1.460 . S
C1159 H1165 0.929 . S
N1160 Mn1153 2.257 . S
N1160 C1159 1.326 . S
N1160 C1164 1.362 . S
C1161 C1162 1.258 . S
C1161 C1164 1.431 . S
C1161 C1181 1.449 . S
C1162 C1161 1.258 . S
C1162 C1163 1.477 . S
C1162 H1182 0.931 . S
C1163 C1159 1.460 . S
C1163 C1162 1.477 . S
C1163 H1183 0.930 . S
C1164 N1160 1.362 . S
C1164 C1161 1.431 . S
C1164 C1174 1.476 . S
H1165 C1159 0.929 . S
C1166 O1157 1.250 . S
C1166 O1158 1.258 . S
O1167 Mn1152 2.162 . S
O1167 C1155 1.281 . S
O1168 Mn1152 2.297 . S
O1168 C1155 1.236 . S
N1169 Mn1153 2.282 . S
N1169 C1170 1.328 . S
N1169 C1174 1.318 . S
C1170 N1169 1.328 . S
C1170 C1171 1.457 . S
C1170 H1175 0.929 . S
C1171 C1170 1.457 . S
C1171 C1172 1.291 . S
C1171 H1184 0.931 . S
C1172 C1171 1.291 . S
C1172 C1173 1.373 . S
C1172 H1185 0.929 . S
C1173 C1172 1.373 . S
C1173 C1174 1.396 . S
C1173 C1180 1.403 . S
C1174 C1164 1.476 . S
C1174 N1169 1.318 . S
C1174 C1173 1.396 . S
H1175 C1170 0.929 . S
O1176 Mn1152 2.385 . S
O1176 C1154 1.234 . S
O1177 Mn1152 2.209 . S
O1177 Mn1153 2.215 . S
O1177 C1154 1.283 . S
O1178 Mn1152 2.094 . S
O1178 C1156 1.240 . S
O1179 Mn1153 2.117 . S
O1179 C1156 1.264 . S
C1180 C1173 1.403 . S
C1180 C1181 1.399 . S
C1180 H1186 0.929 . S
C1181 C1161 1.449 . S
C1181 C1180 1.399 . S
C1181 H1187 0.930 . S
H1182 C1162 0.931 . S
H1183 C1163 0.930 . S
H1184 C1171 0.931 . S
H1185 C1172 0.929 . S
H1186 C1180 0.929 . S
H1187 C1181 0.930 . S
Mn1188 O1193 2.095 . S
Mn1188 O1203 2.162 . S
Mn1188 O1204 2.297 . S
Mn1188 O1212 2.385 . S
Mn1188 O1213 2.209 . S
Mn1188 O1214 2.094 . S
Mn1189 O1194 2.121 . S
Mn1189 N1196 2.257 . S
Mn1189 N1205 2.282 . S
Mn1189 O1213 2.215 . S
Mn1189 O1215 2.117 . S
C1190 O1212 1.234 . S
C1190 O1213 1.283 . S
C1191 O1203 1.281 . S
C1191 O1204 1.236 . S
C1192 O1214 1.240 . S
C1192 O1215 1.264 . S
O1193 Mn1188 2.095 . S
O1193 C1202 1.250 . S
O1194 Mn1189 2.121 . S
O1194 C1202 1.258 . S
C1195 N1196 1.326 . S
C1195 C1199 1.460 . S
C1195 H1201 0.929 . S
N1196 Mn1189 2.257 . S
N1196 C1195 1.326 . S
N1196 C1200 1.362 . S
C1197 C1198 1.258 . S
C1197 C1200 1.431 . S
C1197 C1217 1.449 . S
C1198 C1197 1.258 . S
C1198 C1199 1.477 . S
C1198 H1218 0.931 . S
C1199 C1195 1.460 . S
C1199 C1198 1.477 . S
C1199 H1219 0.930 . S
C1200 N1196 1.362 . S
C1200 C1197 1.431 . S
C1200 C1210 1.476 . S
H1201 C1195 0.929 . S
C1202 O1193 1.250 . S
C1202 O1194 1.258 . S
O1203 Mn1188 2.162 . S
O1203 C1191 1.281 . S
O1204 Mn1188 2.297 . S
O1204 C1191 1.236 . S
N1205 Mn1189 2.282 . S
N1205 C1206 1.328 . S
N1205 C1210 1.318 . S
C1206 N1205 1.328 . S
C1206 C1207 1.457 . S
C1206 H1211 0.929 . S
C1207 C1206 1.457 . S
C1207 C1208 1.291 . S
C1207 H1220 0.931 . S
C1208 C1207 1.291 . S
C1208 C1209 1.373 . S
C1208 H1221 0.929 . S
C1209 C1208 1.373 . S
C1209 C1210 1.396 . S
C1209 C1216 1.403 . S
C1210 C1200 1.476 . S
C1210 N1205 1.318 . S
C1210 C1209 1.396 . S
H1211 C1206 0.929 . S
O1212 Mn1188 2.385 . S
O1212 C1190 1.234 . S
O1213 Mn1188 2.209 . S
O1213 Mn1189 2.215 . S
O1213 C1190 1.283 . S
O1214 Mn1188 2.094 . S
O1214 C1192 1.240 . S
O1215 Mn1189 2.117 . S
O1215 C1192 1.264 . S
C1216 C1209 1.403 . S
C1216 C1217 1.399 . S
C1216 H1222 0.929 . S
C1217 C1197 1.449 . S
C1217 C1216 1.399 . S
C1217 H1223 0.930 . S
H1218 C1198 0.931 . S
H1219 C1199 0.930 . S
H1220 C1207 0.931 . S
H1221 C1208 0.929 . S
H1222 C1216 0.929 . S
H1223 C1217 0.930 . S
Mn1224 O1229 2.095 . S
Mn1224 O1239 2.162 . S
Mn1224 O1240 2.297 . S
Mn1224 O1248 2.385 . S
Mn1224 O1249 2.209 . S
Mn1224 O1250 2.094 . S
Mn1225 O1230 2.121 . S
Mn1225 N1232 2.257 . S
Mn1225 N1241 2.282 . S
Mn1225 O1249 2.215 . S
Mn1225 O1251 2.117 . S
C1226 O1248 1.234 . S
C1226 O1249 1.283 . S
C1227 O1239 1.281 . S
C1227 O1240 1.236 . S
C1228 O1250 1.240 . S
C1228 O1251 1.264 . S
O1229 Mn1224 2.095 . S
O1229 C1238 1.250 . S
O1230 Mn1225 2.121 . S
O1230 C1238 1.258 . S
C1231 N1232 1.326 . S
C1231 C1235 1.460 . S
C1231 H1237 0.929 . S
N1232 Mn1225 2.257 . S
N1232 C1231 1.326 . S
N1232 C1236 1.362 . S
C1233 C1234 1.258 . S
C1233 C1236 1.431 . S
C1233 C1253 1.449 . S
C1234 C1233 1.258 . S
C1234 C1235 1.477 . S
C1234 H1254 0.931 . S
C1235 C1231 1.460 . S
C1235 C1234 1.477 . S
C1235 H1255 0.930 . S
C1236 N1232 1.362 . S
C1236 C1233 1.431 . S
C1236 C1246 1.476 . S
H1237 C1231 0.929 . S
C1238 O1229 1.250 . S
C1238 O1230 1.258 . S
O1239 Mn1224 2.162 . S
O1239 C1227 1.281 . S
O1240 Mn1224 2.297 . S
O1240 C1227 1.236 . S
N1241 Mn1225 2.282 . S
N1241 C1242 1.328 . S
N1241 C1246 1.318 . S
C1242 N1241 1.328 . S
C1242 C1243 1.457 . S
C1242 H1247 0.929 . S
C1243 C1242 1.457 . S
C1243 C1244 1.291 . S
C1243 H1256 0.931 . S
C1244 C1243 1.291 . S
C1244 C1245 1.373 . S
C1244 H1257 0.929 . S
C1245 C1244 1.373 . S
C1245 C1246 1.396 . S
C1245 C1252 1.403 . S
C1246 C1236 1.476 . S
C1246 N1241 1.318 . S
C1246 C1245 1.396 . S
H1247 C1242 0.929 . S
O1248 Mn1224 2.385 . S
O1248 C1226 1.234 . S
O1249 Mn1224 2.209 . S
O1249 Mn1225 2.215 . S
O1249 C1226 1.283 . S
O1250 Mn1224 2.094 . S
O1250 C1228 1.240 . S
O1251 Mn1225 2.117 . S
O1251 C1228 1.264 . S
C1252 C1245 1.403 . S
C1252 C1253 1.399 . S
C1252 H1258 0.929 . S
C1253 C1233 1.449 . S
C1253 C1252 1.399 . S
C1253 H1259 0.930 . S
H1254 C1234 0.931 . S
H1255 C1235 0.930 . S
H1256 C1243 0.931 . S
H1257 C1244 0.929 . S
H1258 C1252 0.929 . S
H1259 C1253 0.930 . S
Mn1260 O1265 2.095 . S
Mn1260 O1275 2.162 . S
Mn1260 O1276 2.297 . S
Mn1260 O1284 2.385 . S
Mn1260 O1285 2.209 . S
Mn1260 O1286 2.094 . S
Mn1261 O1266 2.121 . S
Mn1261 N1268 2.257 . S
Mn1261 N1277 2.282 . S
Mn1261 O1285 2.215 . S
Mn1261 O1287 2.117 . S
C1262 O1284 1.234 . S
C1262 O1285 1.283 . S
C1263 O1275 1.281 . S
C1263 O1276 1.236 . S
C1264 O1286 1.240 . S
C1264 O1287 1.264 . S
O1265 Mn1260 2.095 . S
O1265 C1274 1.250 . S
O1266 Mn1261 2.121 . S
O1266 C1274 1.258 . S
C1267 N1268 1.326 . S
C1267 C1271 1.460 . S
C1267 H1273 0.929 . S
N1268 Mn1261 2.257 . S
N1268 C1267 1.326 . S
N1268 C1272 1.362 . S
C1269 C1270 1.258 . S
C1269 C1272 1.431 . S
C1269 C1289 1.449 . S
C1270 C1269 1.258 . S
C1270 C1271 1.477 . S
C1270 H1290 0.931 . S
C1271 C1267 1.460 . S
C1271 C1270 1.477 . S
C1271 H1291 0.930 . S
C1272 N1268 1.362 . S
C1272 C1269 1.431 . S
C1272 C1282 1.476 . S
H1273 C1267 0.929 . S
C1274 O1265 1.250 . S
C1274 O1266 1.258 . S
O1275 Mn1260 2.162 . S
O1275 C1263 1.281 . S
O1276 Mn1260 2.297 . S
O1276 C1263 1.236 . S
N1277 Mn1261 2.282 . S
N1277 C1278 1.328 . S
N1277 C1282 1.318 . S
C1278 N1277 1.328 . S
C1278 C1279 1.457 . S
C1278 H1283 0.929 . S
C1279 C1278 1.457 . S
C1279 C1280 1.291 . S
C1279 H1292 0.931 . S
C1280 C1279 1.291 . S
C1280 C1281 1.373 . S
C1280 H1293 0.929 . S
C1281 C1280 1.373 . S
C1281 C1282 1.396 . S
C1281 C1288 1.403 . S
C1282 C1272 1.476 . S
C1282 N1277 1.318 . S
C1282 C1281 1.396 . S
H1283 C1278 0.929 . S
O1284 Mn1260 2.385 . S
O1284 C1262 1.234 . S
O1285 Mn1260 2.209 . S
O1285 Mn1261 2.215 . S
O1285 C1262 1.283 . S
O1286 Mn1260 2.094 . S
O1286 C1264 1.240 . S
O1287 Mn1261 2.117 . S
O1287 C1264 1.264 . S
C1288 C1281 1.403 . S
C1288 C1289 1.399 . S
C1288 H1294 0.929 . S
C1289 C1269 1.449 . S
C1289 C1288 1.399 . S
C1289 H1295 0.930 . S
H1290 C1270 0.931 . S
H1291 C1271 0.930 . S
H1292 C1279 0.931 . S
H1293 C1280 0.929 . S
H1294 C1288 0.929 . S
H1295 C1289 0.930 . S
C1296 C1297 1.349 . S
C1296 C1298 1.327 . S
C1296 H1321 0.950 . S
C1297 C1296 1.349 . S
C1297 C1313 1.349 . S
C1298 C1296 1.327 . S
C1298 C1317 1.429 . S
C1298 H1322 0.950 . S
C1299 C1316 1.574 . S
C1299 C1318 1.368 . S
C1299 H1323 0.949 . S
H1300 C1304 0.949 . S
C1301 C1302 1.349 . S
C1301 C1303 1.327 . S
C1301 H1324 0.950 . S
C1302 C1301 1.349 . S
C1302 C1314 1.349 . S
C1303 C1301 1.327 . S
C1303 C1319 1.429 . S
C1303 H1325 0.950 . S
C1304 H1300 0.949 . S
C1304 C1312 1.574 . S
C1304 C1320 1.368 . S
H1305 C1313 0.950 . S
H1306 C1311 0.950 . S
H1307 C1312 0.949 . S
H1308 C1314 0.950 . S
H1309 C1315 0.950 . S
H1310 C1316 0.949 . S
C1311 H1306 0.950 . S
C1311 C1313 1.327 . S
C1311 C1317 1.429 . S
C1312 C1304 1.574 . S
C1312 H1307 0.949 . S
C1312 C1318 1.368 . S
C1313 C1297 1.349 . S
C1313 H1305 0.950 . S
C1313 C1311 1.327 . S
C1314 C1302 1.349 . S
C1314 H1308 0.950 . S
C1314 C1315 1.327 . S
C1315 H1309 0.950 . S
C1315 C1314 1.327 . S
C1315 C1319 1.429 . S
C1316 C1299 1.574 . S
C1316 H1310 0.949 . S
C1316 C1320 1.368 . S
C1317 C1298 1.429 . S
C1317 C1311 1.429 . S
C1317 C1318 1.523 . S
C1318 C1299 1.368 . S
C1318 C1312 1.368 . S
C1318 C1317 1.523 . S
C1319 C1303 1.429 . S
C1319 C1315 1.429 . S
C1319 C1320 1.523 . S
C1320 C1304 1.368 . S
C1320 C1316 1.368 . S
C1320 C1319 1.523 . S
H1321 C1296 0.950 . S
H1322 C1298 0.950 . S
H1323 C1299 0.949 . S
H1324 C1301 0.950 . S
H1325 C1303 0.950 . S
C1326 C1327 1.349 . S
C1326 C1328 1.327 . S
C1326 H1351 0.950 . S
C1327 C1326 1.349 . S
C1327 C1343 1.349 . S
C1328 C1326 1.327 . S
C1328 C1347 1.429 . S
C1328 H1352 0.950 . S
C1329 C1346 1.574 . S
C1329 C1348 1.368 . S
C1329 H1353 0.949 . S
H1330 C1334 0.949 . S
C1331 C1332 1.349 1_554 S
C1331 C1333 1.327 1_554 S
C1331 H1354 0.950 . S
C1332 C1331 1.349 1_556 S
C1332 C1344 1.349 . S
C1333 C1331 1.327 1_556 S
C1333 C1349 1.429 . S
C1333 H1355 0.950 . S
C1334 H1330 0.949 . S
C1334 C1342 1.574 . S
C1334 C1350 1.368 . S
H1335 C1343 0.950 . S
H1336 C1341 0.950 . S
H1337 C1342 0.949 . S
H1338 C1344 0.950 . S
H1339 C1345 0.950 . S
H1340 C1346 0.949 . S
C1341 H1336 0.950 . S
C1341 C1343 1.327 . S
C1341 C1347 1.429 . S
C1342 C1334 1.574 . S
C1342 H1337 0.949 . S
C1342 C1348 1.368 . S
C1343 C1327 1.349 . S
C1343 H1335 0.950 . S
C1343 C1341 1.327 . S
C1344 C1332 1.349 . S
C1344 H1338 0.950 . S
C1344 C1345 1.327 . S
C1345 H1339 0.950 . S
C1345 C1344 1.327 . S
C1345 C1349 1.429 . S
C1346 C1329 1.574 . S
C1346 H1340 0.949 . S
C1346 C1350 1.368 . S
C1347 C1328 1.429 . S
C1347 C1341 1.429 . S
C1347 C1348 1.523 . S
C1348 C1329 1.368 . S
C1348 C1342 1.368 . S
C1348 C1347 1.523 . S
C1349 C1333 1.429 . S
C1349 C1345 1.429 . S
C1349 C1350 1.523 . S
C1350 C1334 1.368 . S
C1350 C1346 1.368 . S
C1350 C1349 1.523 . S
H1351 C1326 0.950 . S
H1352 C1328 0.950 . S
H1353 C1329 0.949 . S
H1354 C1331 0.950 . S
H1355 C1333 0.950 . S
C1356 C1357 1.350 1_554 S
C1356 C1358 1.329 1_554 S
C1356 H1381 0.947 . S
C1357 C1356 1.350 1_556 S
C1357 C1373 1.349 . S
C1358 C1356 1.329 1_556 S
C1358 C1377 1.429 . S
C1358 H1382 0.950 . S
C1359 C1376 1.574 . S
C1359 C1378 1.368 . S
C1359 H1383 0.949 . S
H1360 C1364 0.949 . S
C1361 C1362 1.349 . S
C1361 C1363 1.327 . S
C1361 H1384 0.950 . S
C1362 C1361 1.349 . S
C1362 C1374 1.349 . S
C1363 C1361 1.327 . S
C1363 C1379 1.429 . S
C1363 H1385 0.950 . S
C1364 H1360 0.949 . S
C1364 C1372 1.574 . S
C1364 C1380 1.368 . S
H1365 C1373 0.950 . S
H1366 C1371 0.950 . S
H1367 C1372 0.949 . S
H1368 C1374 0.950 . S
H1369 C1375 0.950 . S
H1370 C1376 0.949 . S
C1371 H1366 0.950 . S
C1371 C1373 1.327 . S
C1371 C1377 1.429 . S
C1372 C1364 1.574 . S
C1372 H1367 0.949 . S
C1372 C1378 1.368 . S
C1373 C1357 1.349 . S
C1373 H1365 0.950 . S
C1373 C1371 1.327 . S
C1374 C1362 1.349 . S
C1374 H1368 0.950 . S
C1374 C1375 1.327 . S
C1375 H1369 0.950 . S
C1375 C1374 1.327 . S
C1375 C1379 1.429 . S
C1376 C1359 1.574 . S
C1376 H1370 0.949 . S
C1376 C1380 1.368 . S
C1377 C1358 1.429 . S
C1377 C1371 1.429 . S
C1377 C1378 1.523 . S
C1378 C1359 1.368 . S
C1378 C1372 1.368 . S
C1378 C1377 1.523 . S
C1379 C1363 1.429 . S
C1379 C1375 1.429 . S
C1379 C1380 1.523 . S
C1380 C1364 1.368 . S
C1380 C1376 1.368 . S
C1380 C1379 1.523 . S
H1381 C1356 0.947 . S
H1382 C1358 0.950 . S
H1383 C1359 0.949 . S
H1384 C1361 0.950 . S
H1385 C1363 0.950 . S
C1386 C1387 1.349 . S
C1386 C1388 1.327 . S
C1386 H1411 0.950 . S
C1387 C1386 1.349 . S
C1387 C1403 1.349 . S
C1388 C1386 1.327 . S
C1388 C1407 1.429 . S
C1388 H1412 0.950 . S
C1389 C1406 1.574 . S
C1389 C1408 1.368 . S
C1389 H1413 0.949 . S
H1390 C1394 0.949 . S
C1391 C1392 1.349 . S
C1391 C1393 1.327 . S
C1391 H1414 0.950 . S
C1392 C1391 1.349 . S
C1392 C1404 1.349 . S
C1393 C1391 1.327 . S
C1393 C1409 1.429 . S
C1393 H1415 0.950 . S
C1394 H1390 0.949 . S
C1394 C1402 1.574 . S
C1394 C1410 1.368 . S
H1395 C1403 0.950 . S
H1396 C1401 0.950 . S
H1397 C1402 0.949 . S
H1398 C1404 0.950 . S
H1399 C1405 0.950 . S
H1400 C1406 0.949 . S
C1401 H1396 0.950 . S
C1401 C1403 1.327 . S
C1401 C1407 1.429 . S
C1402 C1394 1.574 . S
C1402 H1397 0.949 . S
C1402 C1408 1.368 . S
C1403 C1387 1.349 . S
C1403 H1395 0.950 . S
C1403 C1401 1.327 . S
C1404 C1392 1.349 . S
C1404 H1398 0.950 . S
C1404 C1405 1.327 . S
C1405 H1399 0.950 . S
C1405 C1404 1.327 . S
C1405 C1409 1.429 . S
C1406 C1389 1.574 . S
C1406 H1400 0.949 . S
C1406 C1410 1.368 . S
C1407 C1388 1.429 . S
C1407 C1401 1.429 . S
C1407 C1408 1.523 . S
C1408 C1389 1.368 . S
C1408 C1402 1.368 . S
C1408 C1407 1.523 . S
C1409 C1393 1.429 . S
C1409 C1405 1.429 . S
C1409 C1410 1.523 . S
C1410 C1394 1.368 . S
C1410 C1406 1.368 . S
C1410 C1409 1.523 . S
H1411 C1386 0.950 . S
H1412 C1388 0.950 . S
H1413 C1389 0.949 . S
H1414 C1391 0.950 . S
H1415 C1393 0.950 . S
C1416 C1417 1.349 . S
C1416 C1418 1.327 . S
C1416 H1441 0.950 . S
C1417 C1416 1.349 . S
C1417 C1433 1.349 . S
C1418 C1416 1.327 . S
C1418 C1437 1.429 . S
C1418 H1442 0.950 . S
C1419 C1436 1.574 . S
C1419 C1438 1.368 . S
C1419 H1443 0.949 . S
H1420 C1424 0.949 . S
C1421 C1422 1.349 . S
C1421 C1423 1.327 . S
C1421 H1444 0.950 . S
C1422 C1421 1.349 . S
C1422 C1434 1.349 . S
C1423 C1421 1.327 . S
C1423 C1439 1.429 . S
C1423 H1445 0.950 . S
C1424 H1420 0.949 . S
C1424 C1432 1.574 . S
C1424 C1440 1.368 . S
H1425 C1433 0.950 . S
H1426 C1431 0.950 . S
H1427 C1432 0.949 . S
H1428 C1434 0.950 . S
H1429 C1435 0.950 . S
H1430 C1436 0.949 . S
C1431 H1426 0.950 . S
C1431 C1433 1.327 . S
C1431 C1437 1.429 . S
C1432 C1424 1.574 . S
C1432 H1427 0.949 . S
C1432 C1438 1.368 . S
C1433 C1417 1.349 . S
C1433 H1425 0.950 . S
C1433 C1431 1.327 . S
C1434 C1422 1.349 . S
C1434 H1428 0.950 . S
C1434 C1435 1.327 . S
C1435 H1429 0.950 . S
C1435 C1434 1.327 . S
C1435 C1439 1.429 . S
C1436 C1419 1.574 . S
C1436 H1430 0.949 . S
C1436 C1440 1.368 . S
C1437 C1418 1.429 . S
C1437 C1431 1.429 . S
C1437 C1438 1.523 . S
C1438 C1419 1.368 . S
C1438 C1432 1.368 . S
C1438 C1437 1.523 . S
C1439 C1423 1.429 . S
C1439 C1435 1.429 . S
C1439 C1440 1.523 . S
C1440 C1424 1.368 . S
C1440 C1436 1.368 . S
C1440 C1439 1.523 . S
H1441 C1416 0.950 . S
H1442 C1418 0.950 . S
H1443 C1419 0.949 . S
H1444 C1421 0.950 . S
H1445 C1423 0.950 . S
C1446 C1447 1.349 . S
C1446 C1448 1.327 . S
C1446 H1471 0.950 . S
C1447 C1446 1.349 . S
C1447 C1463 1.349 . S
C1448 C1446 1.327 . S
C1448 C1467 1.429 . S
C1448 H1472 0.950 . S
C1449 C1466 1.574 . S
C1449 C1468 1.368 . S
C1449 H1473 0.949 . S
H1450 C1454 0.949 . S
C1451 C1452 1.349 . S
C1451 C1453 1.327 . S
C1451 H1474 0.950 . S
C1452 C1451 1.349 . S
C1452 C1464 1.349 . S
C1453 C1451 1.327 . S
C1453 C1469 1.429 . S
C1453 H1475 0.950 . S
C1454 H1450 0.949 . S
C1454 C1462 1.574 . S
C1454 C1470 1.368 . S
H1455 C1463 0.950 . S
H1456 C1461 0.950 . S
H1457 C1462 0.949 . S
H1458 C1464 0.950 . S
H1459 C1465 0.950 . S
H1460 C1466 0.949 . S
C1461 H1456 0.950 . S
C1461 C1463 1.327 . S
C1461 C1467 1.429 . S
C1462 C1454 1.574 . S
C1462 H1457 0.949 . S
C1462 C1468 1.368 . S
C1463 C1447 1.349 . S
C1463 H1455 0.950 . S
C1463 C1461 1.327 . S
C1464 C1452 1.349 . S
C1464 H1458 0.950 . S
C1464 C1465 1.327 . S
C1465 H1459 0.950 . S
C1465 C1464 1.327 . S
C1465 C1469 1.429 . S
C1466 C1449 1.574 . S
C1466 H1460 0.949 . S
C1466 C1470 1.368 . S
C1467 C1448 1.429 . S
C1467 C1461 1.429 . S
C1467 C1468 1.523 . S
C1468 C1449 1.368 . S
C1468 C1462 1.368 . S
C1468 C1467 1.523 . S
C1469 C1453 1.429 . S
C1469 C1465 1.429 . S
C1469 C1470 1.523 . S
C1470 C1454 1.368 . S
C1470 C1466 1.368 . S
C1470 C1469 1.523 . S
H1471 C1446 0.950 . S
H1472 C1448 0.950 . S
H1473 C1449 0.949 . S
H1474 C1451 0.950 . S
H1475 C1453 0.950 . S
C1476 C1477 1.349 . S
C1476 C1478 1.327 . S
C1476 H1501 0.950 . S
C1477 C1476 1.349 . S
C1477 C1493 1.349 . S
C1478 C1476 1.327 . S
C1478 C1497 1.429 . S
C1478 H1502 0.950 . S
C1479 C1496 1.574 . S
C1479 C1498 1.368 . S
C1479 H1503 0.949 . S
H1480 C1484 0.949 . S
C1481 C1482 1.349 . S
C1481 C1483 1.327 . S
C1481 H1504 0.950 . S
C1482 C1481 1.349 . S
C1482 C1494 1.349 . S
C1483 C1481 1.327 . S
C1483 C1499 1.429 . S
C1483 H1505 0.950 . S
C1484 H1480 0.949 . S
C1484 C1492 1.574 . S
C1484 C1500 1.368 . S
H1485 C1493 0.950 . S
H1486 C1491 0.950 . S
H1487 C1492 0.949 . S
H1488 C1494 0.950 . S
H1489 C1495 0.950 . S
H1490 C1496 0.949 . S
C1491 H1486 0.950 . S
C1491 C1493 1.327 . S
C1491 C1497 1.429 . S
C1492 C1484 1.574 . S
C1492 H1487 0.949 . S
C1492 C1498 1.368 . S
C1493 C1477 1.349 . S
C1493 H1485 0.950 . S
C1493 C1491 1.327 . S
C1494 C1482 1.349 . S
C1494 H1488 0.950 . S
C1494 C1495 1.327 . S
C1495 H1489 0.950 . S
C1495 C1494 1.327 . S
C1495 C1499 1.429 . S
C1496 C1479 1.574 . S
C1496 H1490 0.949 . S
C1496 C1500 1.368 . S
C1497 C1478 1.429 . S
C1497 C1491 1.429 . S
C1497 C1498 1.523 . S
C1498 C1479 1.368 . S
C1498 C1492 1.368 . S
C1498 C1497 1.523 . S
C1499 C1483 1.429 . S
C1499 C1495 1.429 . S
C1499 C1500 1.523 . S
C1500 C1484 1.368 . S
C1500 C1496 1.368 . S
C1500 C1499 1.523 . S
H1501 C1476 0.950 . S
H1502 C1478 0.950 . S
H1503 C1479 0.949 . S
H1504 C1481 0.950 . S
H1505 C1483 0.950 . S
C1506 C1507 1.349 . S
C1506 C1508 1.327 . S
C1506 H1531 0.950 . S
C1507 C1506 1.349 . S
C1507 C1523 1.349 . S
C1508 C1506 1.327 . S
C1508 C1527 1.429 . S
C1508 H1532 0.950 . S
C1509 C1526 1.574 . S
C1509 C1528 1.368 . S
C1509 H1533 0.949 . S
H1510 C1514 0.949 . S
C1511 C1512 1.349 . S
C1511 C1513 1.327 . S
C1511 H1534 0.950 1_554 S
C1512 C1511 1.349 . S
C1512 C1524 1.349 . S
C1513 C1511 1.327 . S
C1513 C1529 1.429 . S
C1513 H1535 0.950 . S
C1514 H1510 0.949 . S
C1514 C1522 1.574 . S
C1514 C1530 1.368 . S
H1515 C1523 0.950 . S
H1516 C1521 0.950 . S
H1517 C1522 0.949 . S
H1518 C1524 0.950 . S
H1519 C1525 0.950 . S
H1520 C1526 0.949 . S
C1521 H1516 0.950 . S
C1521 C1523 1.327 . S
C1521 C1527 1.429 . S
C1522 C1514 1.574 . S
C1522 H1517 0.949 . S
C1522 C1528 1.368 . S
C1523 C1507 1.349 . S
C1523 H1515 0.950 . S
C1523 C1521 1.327 . S
C1524 C1512 1.349 . S
C1524 H1518 0.950 . S
C1524 C1525 1.327 . S
C1525 H1519 0.950 . S
C1525 C1524 1.327 . S
C1525 C1529 1.429 . S
C1526 C1509 1.574 . S
C1526 H1520 0.949 . S
C1526 C1530 1.368 . S
C1527 C1508 1.429 . S
C1527 C1521 1.429 . S
C1527 C1528 1.523 . S
C1528 C1509 1.368 . S
C1528 C1522 1.368 . S
C1528 C1527 1.523 . S
C1529 C1513 1.429 . S
C1529 C1525 1.429 . S
C1529 C1530 1.523 . S
C1530 C1514 1.368 . S
C1530 C1526 1.368 . S
C1530 C1529 1.523 . S
H1531 C1506 0.950 . S
H1532 C1508 0.950 . S
H1533 C1509 0.949 . S
H1534 C1511 0.950 1_556 S
H1535 C1513 0.950 . S
C1536 C1537 1.349 . S
C1536 C1538 1.327 . S
C1536 H1561 0.950 . S
C1537 C1536 1.349 . S
C1537 C1553 1.349 . S
C1538 C1536 1.327 . S
C1538 C1557 1.429 . S
C1538 H1562 0.950 . S
C1539 C1556 1.574 . S
C1539 C1558 1.368 . S
C1539 H1563 0.949 . S
H1540 C1544 0.949 . S
C1541 C1542 1.349 . S
C1541 C1543 1.327 . S
C1541 H1564 0.950 . S
C1542 C1541 1.349 . S
C1542 C1554 1.349 . S
C1543 C1541 1.327 . S
C1543 C1559 1.429 . S
C1543 H1565 0.950 . S
C1544 H1540 0.949 . S
C1544 C1552 1.574 . S
C1544 C1560 1.368 . S
H1545 C1553 0.950 . S
H1546 C1551 0.950 . S
H1547 C1552 0.949 . S
H1548 C1554 0.950 1_556 S
H1549 C1555 0.950 . S
H1550 C1556 0.949 . S
C1551 H1546 0.950 . S
C1551 C1553 1.327 . S
C1551 C1557 1.429 . S
C1552 C1544 1.574 . S
C1552 H1547 0.949 . S
C1552 C1558 1.368 . S
C1553 C1537 1.349 . S
C1553 H1545 0.950 . S
C1553 C1551 1.327 . S
C1554 C1542 1.349 . S
C1554 H1548 0.950 1_554 S
C1554 C1555 1.327 . S
C1555 H1549 0.950 . S
C1555 C1554 1.327 . S
C1555 C1559 1.429 . S
C1556 C1539 1.574 . S
C1556 H1550 0.949 . S
C1556 C1560 1.368 . S
C1557 C1538 1.429 . S
C1557 C1551 1.429 . S
C1557 C1558 1.523 . S
C1558 C1539 1.368 . S
C1558 C1552 1.368 . S
C1558 C1557 1.523 . S
C1559 C1543 1.429 . S
C1559 C1555 1.429 . S
C1559 C1560 1.523 . S
C1560 C1544 1.368 . S
C1560 C1556 1.368 . S
C1560 C1559 1.523 . S
H1561 C1536 0.950 . S
H1562 C1538 0.950 . S
H1563 C1539 0.949 . S
H1564 C1541 0.950 . S
H1565 C1543 0.950 . S
C1566 C1567 1.349 . S
C1566 C1568 1.327 . S
C1566 H1591 0.950 . S
C1567 C1566 1.349 . S
C1567 C1583 1.349 . S
C1568 C1566 1.327 . S
C1568 C1587 1.429 . S
C1568 H1592 0.950 . S
C1569 C1586 1.574 . S
C1569 C1588 1.368 . S
C1569 H1593 0.949 . S
H1570 C1574 0.949 . S
C1571 C1572 1.349 . S
C1571 C1573 1.327 . S
C1571 H1594 0.950 . S
C1572 C1571 1.349 . S
C1572 C1584 1.349 . S
C1573 C1571 1.327 . S
C1573 C1589 1.429 . S
C1573 H1595 0.950 . S
C1574 H1570 0.949 . S
C1574 C1582 1.574 . S
C1574 C1590 1.368 . S
H1575 C1583 0.950 . S
H1576 C1581 0.950 . S
H1577 C1582 0.949 . S
H1578 C1584 0.950 . S
H1579 C1585 0.950 . S
H1580 C1586 0.949 . S
C1581 H1576 0.950 . S
C1581 C1583 1.327 . S
C1581 C1587 1.429 . S
C1582 C1574 1.574 . S
C1582 H1577 0.949 . S
C1582 C1588 1.368 . S
C1583 C1567 1.349 . S
C1583 H1575 0.950 . S
C1583 C1581 1.327 . S
C1584 C1572 1.349 . S
C1584 H1578 0.950 . S
C1584 C1585 1.327 . S
C1585 H1579 0.950 . S
C1585 C1584 1.327 . S
C1585 C1589 1.429 . S
C1586 C1569 1.574 . S
C1586 H1580 0.949 . S
C1586 C1590 1.368 . S
C1587 C1568 1.429 . S
C1587 C1581 1.429 . S
C1587 C1588 1.523 . S
C1588 C1569 1.368 . S
C1588 C1582 1.368 . S
C1588 C1587 1.523 . S
C1589 C1573 1.429 . S
C1589 C1585 1.429 . S
C1589 C1590 1.523 . S
C1590 C1574 1.368 . S
C1590 C1586 1.368 . S
C1590 C1589 1.523 . S
H1591 C1566 0.950 . S
H1592 C1568 0.950 . S
H1593 C1569 0.949 . S
H1594 C1571 0.950 . S
H1595 C1573 0.950 . S
C1596 C1597 1.349 . S
C1596 C1598 1.327 . S
C1596 H1621 0.950 . S
C1597 C1596 1.349 . S
C1597 C1613 1.349 . S
C1598 C1596 1.327 . S
C1598 C1617 1.429 . S
C1598 H1622 0.950 . S
C1599 C1616 1.574 . S
C1599 C1618 1.368 . S
C1599 H1623 0.949 . S
H1600 C1604 0.949 . S
C1601 C1602 1.349 . S
C1601 C1603 1.327 . S
C1601 H1624 0.950 . S
C1602 C1601 1.349 . S
C1602 C1614 1.349 . S
C1603 C1601 1.327 . S
C1603 C1619 1.429 . S
C1603 H1625 0.950 . S
C1604 H1600 0.949 . S
C1604 C1612 1.574 . S
C1604 C1620 1.368 . S
H1605 C1613 0.950 . S
H1606 C1611 0.950 . S
H1607 C1612 0.949 . S
H1608 C1614 0.950 . S
H1609 C1615 0.950 . S
H1610 C1616 0.949 . S
C1611 H1606 0.950 . S
C1611 C1613 1.327 . S
C1611 C1617 1.429 . S
C1612 C1604 1.574 . S
C1612 H1607 0.949 . S
C1612 C1618 1.368 . S
C1613 C1597 1.349 . S
C1613 H1605 0.950 . S
C1613 C1611 1.327 . S
C1614 C1602 1.349 . S
C1614 H1608 0.950 . S
C1614 C1615 1.327 . S
C1615 H1609 0.950 . S
C1615 C1614 1.327 . S
C1615 C1619 1.429 . S
C1616 C1599 1.574 . S
C1616 H1610 0.949 . S
C1616 C1620 1.368 . S
C1617 C1598 1.429 . S
C1617 C1611 1.429 . S
C1617 C1618 1.523 . S
C1618 C1599 1.368 . S
C1618 C1612 1.368 . S
C1618 C1617 1.523 . S
C1619 C1603 1.429 . S
C1619 C1615 1.429 . S
C1619 C1620 1.523 . S
C1620 C1604 1.368 . S
C1620 C1616 1.368 . S
C1620 C1619 1.523 . S
H1621 C1596 0.950 . S
H1622 C1598 0.950 . S
H1623 C1599 0.949 . S
H1624 C1601 0.950 . S
H1625 C1603 0.950 . S
C1626 C1627 1.349 . S
C1626 C1628 1.327 . S
C1626 H1651 0.950 . S
C1627 C1626 1.349 . S
C1627 C1643 1.349 . S
C1628 C1626 1.327 . S
C1628 C1647 1.429 . S
C1628 H1652 0.950 . S
C1629 C1646 1.574 . S
C1629 C1648 1.368 . S
C1629 H1653 0.949 . S
H1630 C1634 0.949 . S
C1631 C1632 1.349 . S
C1631 C1633 1.327 . S
C1631 H1654 0.950 . S
C1632 C1631 1.349 . S
C1632 C1644 1.349 . S
C1633 C1631 1.327 . S
C1633 C1649 1.429 . S
C1633 H1655 0.950 . S
C1634 H1630 0.949 . S
C1634 C1642 1.574 . S
C1634 C1650 1.368 . S
H1635 C1643 0.950 . S
H1636 C1641 0.950 . S
H1637 C1642 0.949 . S
H1638 C1644 0.950 . S
H1639 C1645 0.950 . S
H1640 C1646 0.949 . S
C1641 H1636 0.950 . S
C1641 C1643 1.327 . S
C1641 C1647 1.429 . S
C1642 C1634 1.574 . S
C1642 H1637 0.949 . S
C1642 C1648 1.368 . S
C1643 C1627 1.349 . S
C1643 H1635 0.950 . S
C1643 C1641 1.327 . S
C1644 C1632 1.349 . S
C1644 H1638 0.950 . S
C1644 C1645 1.327 . S
C1645 H1639 0.950 . S
C1645 C1644 1.327 . S
C1645 C1649 1.429 . S
C1646 C1629 1.574 . S
C1646 H1640 0.949 . S
C1646 C1650 1.368 . S
C1647 C1628 1.429 . S
C1647 C1641 1.429 . S
C1647 C1648 1.523 . S
C1648 C1629 1.368 . S
C1648 C1642 1.368 . S
C1648 C1647 1.523 . S
C1649 C1633 1.429 . S
C1649 C1645 1.429 . S
C1649 C1650 1.523 . S
C1650 C1634 1.368 . S
C1650 C1646 1.368 . S
C1650 C1649 1.523 . S
H1651 C1626 0.950 . S
H1652 C1628 0.950 . S
H1653 C1629 0.949 . S
H1654 C1631 0.950 . S
H1655 C1633 0.950 . S
C1656 C1657 1.349 . S
C1656 C1658 1.327 . S
C1656 H1681 0.950 . S
C1657 C1656 1.349 . S
C1657 C1673 1.349 . S
C1658 C1656 1.327 . S
C1658 C1677 1.429 . S
C1658 H1682 0.950 . S
C1659 C1676 1.574 1_455 S
C1659 C1678 1.368 . S
C1659 H1683 0.949 . S
H1660 C1664 0.949 . S
C1661 C1662 1.349 . S
C1661 C1663 1.327 . S
C1661 H1684 0.950 . S
C1662 C1661 1.349 . S
C1662 C1674 1.349 . S
C1663 C1661 1.327 . S
C1663 C1679 1.429 . S
C1663 H1685 0.950 . S
C1664 H1660 0.949 . S
C1664 C1672 1.574 1_655 S
C1664 C1680 1.368 . S
H1665 C1673 0.950 . S
H1666 C1671 0.950 . S
H1667 C1672 0.949 . S
H1668 C1674 0.950 . S
H1669 C1675 0.950 . S
H1670 C1676 0.949 . S
C1671 H1666 0.950 . S
C1671 C1673 1.327 . S
C1671 C1677 1.429 . S
C1672 C1664 1.574 1_455 S
C1672 H1667 0.949 . S
C1672 C1678 1.368 . S
C1673 C1657 1.349 . S
C1673 H1665 0.950 . S
C1673 C1671 1.327 . S
C1674 C1662 1.349 . S
C1674 H1668 0.950 . S
C1674 C1675 1.327 . S
C1675 H1669 0.950 . S
C1675 C1674 1.327 . S
C1675 C1679 1.429 . S
C1676 C1659 1.574 1_655 S
C1676 H1670 0.949 . S
C1676 C1680 1.368 . S
C1677 C1658 1.429 . S
C1677 C1671 1.429 . S
C1677 C1678 1.523 . S
C1678 C1659 1.368 . S
C1678 C1672 1.368 . S
C1678 C1677 1.523 . S
C1679 C1663 1.429 . S
C1679 C1675 1.429 . S
C1679 C1680 1.523 . S
C1680 C1664 1.368 . S
C1680 C1676 1.368 . S
C1680 C1679 1.523 . S
H1681 C1656 0.950 . S
H1682 C1658 0.950 . S
H1683 C1659 0.949 . S
H1684 C1661 0.950 . S
H1685 C1663 0.950 . S
C1686 C1687 1.349 . S
C1686 C1688 1.327 . S
C1686 H1711 0.950 . S
C1687 C1686 1.349 . S
C1687 C1703 1.349 . S
C1688 C1686 1.327 . S
C1688 C1707 1.429 . S
C1688 H1712 0.950 . S
C1689 C1706 1.574 . S
C1689 C1708 1.368 . S
C1689 H1713 0.949 . S
H1690 C1694 0.949 . S
C1691 C1692 1.349 . S
C1691 C1693 1.327 . S
C1691 H1714 0.950 . S
C1692 C1691 1.349 . S
C1692 C1704 1.349 . S
C1693 C1691 1.327 . S
C1693 C1709 1.429 . S
C1693 H1715 0.950 . S
C1694 H1690 0.949 . S
C1694 C1702 1.574 . S
C1694 C1710 1.368 . S
H1695 C1703 0.950 . S
H1696 C1701 0.950 . S
H1697 C1702 0.949 . S
H1698 C1704 0.950 . S
H1699 C1705 0.950 . S
H1700 C1706 0.949 . S
C1701 H1696 0.950 . S
C1701 C1703 1.327 . S
C1701 C1707 1.429 . S
C1702 C1694 1.574 . S
C1702 H1697 0.949 . S
C1702 C1708 1.368 . S
C1703 C1687 1.349 . S
C1703 H1695 0.950 . S
C1703 C1701 1.327 . S
C1704 C1692 1.349 . S
C1704 H1698 0.950 . S
C1704 C1705 1.327 . S
C1705 H1699 0.950 . S
C1705 C1704 1.327 . S
C1705 C1709 1.429 . S
C1706 C1689 1.574 . S
C1706 H1700 0.949 . S
C1706 C1710 1.368 . S
C1707 C1688 1.429 . S
C1707 C1701 1.429 . S
C1707 C1708 1.523 . S
C1708 C1689 1.368 . S
C1708 C1702 1.368 . S
C1708 C1707 1.523 . S
C1709 C1693 1.429 . S
C1709 C1705 1.429 . S
C1709 C1710 1.523 . S
C1710 C1694 1.368 . S
C1710 C1706 1.368 . S
C1710 C1709 1.523 . S
H1711 C1686 0.950 . S
H1712 C1688 0.950 . S
H1713 C1689 0.949 . S
H1714 C1691 0.950 . S
H1715 C1693 0.950 . S
C1716 C1717 1.349 . S
C1716 C1718 1.327 . S
C1716 H1741 0.950 . S
C1717 C1716 1.349 . S
C1717 C1733 1.349 . S
C1718 C1716 1.327 . S
C1718 C1737 1.429 . S
C1718 H1742 0.950 . S
C1719 C1736 1.574 1_565 S
C1719 C1738 1.368 . S
C1719 H1743 0.949 . S
H1720 C1724 0.949 . S
C1721 C1722 1.349 . S
C1721 C1723 1.327 . S
C1721 H1744 0.950 . S
C1722 C1721 1.349 . S
C1722 C1734 1.349 . S
C1723 C1721 1.327 . S
C1723 C1739 1.429 . S
C1723 H1745 0.950 . S
C1724 H1720 0.949 . S
C1724 C1732 1.574 1_545 S
C1724 C1740 1.368 . S
H1725 C1733 0.950 . S
H1726 C1731 0.950 . S
H1727 C1732 0.949 . S
H1728 C1734 0.950 . S
H1729 C1735 0.950 . S
H1730 C1736 0.949 . S
C1731 H1726 0.950 . S
C1731 C1733 1.327 . S
C1731 C1737 1.429 . S
C1732 C1724 1.574 1_565 S
C1732 H1727 0.949 . S
C1732 C1738 1.368 . S
C1733 C1717 1.349 . S
C1733 H1725 0.950 . S
C1733 C1731 1.327 . S
C1734 C1722 1.349 . S
C1734 H1728 0.950 . S
C1734 C1735 1.327 . S
C1735 H1729 0.950 . S
C1735 C1734 1.327 . S
C1735 C1739 1.429 . S
C1736 C1719 1.574 1_545 S
C1736 H1730 0.949 . S
C1736 C1740 1.368 . S
C1737 C1718 1.429 . S
C1737 C1731 1.429 . S
C1737 C1738 1.523 . S
C1738 C1719 1.368 . S
C1738 C1732 1.368 . S
C1738 C1737 1.523 . S
C1739 C1723 1.429 . S
C1739 C1735 1.429 . S
C1739 C1740 1.523 . S
C1740 C1724 1.368 . S
C1740 C1736 1.368 . S
C1740 C1739 1.523 . S
H1741 C1716 0.950 . S
H1742 C1718 0.950 . S
H1743 C1719 0.949 . S
H1744 C1721 0.950 . S
H1745 C1723 0.950 . S
C1746 C1747 1.349 . S
C1746 C1748 1.327 . S
C1746 H1771 0.950 . S
C1747 C1746 1.349 . S
C1747 C1763 1.349 . S
C1748 C1746 1.327 . S
C1748 C1767 1.429 . S
C1748 H1772 0.950 . S
C1749 C1766 1.574 1_565 S
C1749 C1768 1.368 . S
C1749 H1773 0.949 . S
H1750 C1754 0.949 . S
C1751 C1752 1.349 . S
C1751 C1753 1.327 . S
C1751 H1774 0.950 . S
C1752 C1751 1.349 . S
C1752 C1764 1.349 . S
C1753 C1751 1.327 . S
C1753 C1769 1.429 . S
C1753 H1775 0.950 . S
C1754 H1750 0.949 . S
C1754 C1762 1.574 1_545 S
C1754 C1770 1.368 . S
H1755 C1763 0.950 . S
H1756 C1761 0.950 . S
H1757 C1762 0.949 . S
H1758 C1764 0.950 . S
H1759 C1765 0.950 . S
H1760 C1766 0.949 . S
C1761 H1756 0.950 . S
C1761 C1763 1.327 . S
C1761 C1767 1.429 . S
C1762 C1754 1.574 1_565 S
C1762 H1757 0.949 . S
C1762 C1768 1.368 . S
C1763 C1747 1.349 . S
C1763 H1755 0.950 . S
C1763 C1761 1.327 . S
C1764 C1752 1.349 . S
C1764 H1758 0.950 . S
C1764 C1765 1.327 . S
C1765 H1759 0.950 . S
C1765 C1764 1.327 . S
C1765 C1769 1.429 . S
C1766 C1749 1.574 1_545 S
C1766 H1760 0.949 . S
C1766 C1770 1.368 . S
C1767 C1748 1.429 . S
C1767 C1761 1.429 . S
C1767 C1768 1.523 . S
C1768 C1749 1.368 . S
C1768 C1762 1.368 . S
C1768 C1767 1.523 . S
C1769 C1753 1.429 . S
C1769 C1765 1.429 . S
C1769 C1770 1.523 . S
C1770 C1754 1.368 . S
C1770 C1766 1.368 . S
C1770 C1769 1.523 . S
H1771 C1746 0.950 . S
H1772 C1748 0.950 . S
H1773 C1749 0.949 . S
H1774 C1751 0.950 . S
H1775 C1753 0.950 . S
C1776 C1777 1.349 . S
C1776 C1778 1.327 . S
C1776 H1801 0.950 . S
C1777 C1776 1.349 . S
C1777 C1793 1.349 . S
C1778 C1776 1.327 . S
C1778 C1797 1.429 . S
C1778 H1802 0.950 . S
C1779 C1796 1.574 1_455 S
C1779 C1798 1.368 . S
C1779 H1803 0.949 . S
H1780 C1784 0.949 . S
C1781 C1782 1.349 . S
C1781 C1783 1.327 . S
C1781 H1804 0.950 . S
C1782 C1781 1.349 . S
C1782 C1794 1.349 . S
C1783 C1781 1.327 . S
C1783 C1799 1.429 . S
C1783 H1805 0.950 . S
C1784 H1780 0.949 . S
C1784 C1792 1.574 1_655 S
C1784 C1800 1.368 . S
H1785 C1793 0.950 . S
H1786 C1791 0.950 . S
H1787 C1792 0.949 . S
H1788 C1794 0.950 . S
H1789 C1795 0.950 . S
H1790 C1796 0.949 . S
C1791 H1786 0.950 . S
C1791 C1793 1.327 . S
C1791 C1797 1.429 . S
C1792 C1784 1.574 1_455 S
C1792 H1787 0.949 . S
C1792 C1798 1.368 . S
C1793 C1777 1.349 . S
C1793 H1785 0.950 . S
C1793 C1791 1.327 . S
C1794 C1782 1.349 . S
C1794 H1788 0.950 . S
C1794 C1795 1.327 . S
C1795 H1789 0.950 . S
C1795 C1794 1.327 . S
C1795 C1799 1.429 . S
C1796 C1779 1.574 1_655 S
C1796 H1790 0.949 . S
C1796 C1800 1.368 . S
C1797 C1778 1.429 . S
C1797 C1791 1.429 . S
C1797 C1798 1.523 . S
C1798 C1779 1.368 . S
C1798 C1792 1.368 . S
C1798 C1797 1.523 . S
C1799 C1783 1.429 . S
C1799 C1795 1.429 . S
C1799 C1800 1.523 . S
C1800 C1784 1.368 . S
C1800 C1796 1.368 . S
C1800 C1799 1.523 . S
H1801 C1776 0.950 . S
H1802 C1778 0.950 . S
H1803 C1779 0.949 . S
H1804 C1781 0.950 . S
H1805 C1783 0.950 . S
C1806 C1807 1.349 . S
C1806 C1808 1.327 . S
C1806 H1831 0.950 . S
C1807 C1806 1.349 . S
C1807 C1823 1.349 . S
C1808 C1806 1.327 . S
C1808 C1827 1.429 . S
C1808 H1832 0.950 . S
C1809 C1826 1.574 . S
C1809 C1828 1.368 . S
C1809 H1833 0.949 . S
H1810 C1814 0.949 . S
C1811 C1812 1.349 . S
C1811 C1813 1.327 . S
C1811 H1834 0.950 . S
C1812 C1811 1.349 . S
C1812 C1824 1.349 . S
C1813 C1811 1.327 . S
C1813 C1829 1.429 . S
C1813 H1835 0.950 . S
C1814 H1810 0.949 . S
C1814 C1822 1.574 . S
C1814 C1830 1.368 . S
H1815 C1823 0.950 . S
H1816 C1821 0.950 . S
H1817 C1822 0.949 . S
H1818 C1824 0.950 . S
H1819 C1825 0.950 . S
H1820 C1826 0.949 . S
C1821 H1816 0.950 . S
C1821 C1823 1.327 . S
C1821 C1827 1.429 . S
C1822 C1814 1.574 . S
C1822 H1817 0.949 . S
C1822 C1828 1.368 . S
C1823 C1807 1.349 . S
C1823 H1815 0.950 . S
C1823 C1821 1.327 . S
C1824 C1812 1.349 . S
C1824 H1818 0.950 . S
C1824 C1825 1.327 . S
C1825 H1819 0.950 . S
C1825 C1824 1.327 . S
C1825 C1829 1.429 . S
C1826 C1809 1.574 . S
C1826 H1820 0.949 . S
C1826 C1830 1.368 . S
C1827 C1808 1.429 . S
C1827 C1821 1.429 . S
C1827 C1828 1.523 . S
C1828 C1809 1.368 . S
C1828 C1822 1.368 . S
C1828 C1827 1.523 . S
C1829 C1813 1.429 . S
C1829 C1825 1.429 . S
C1829 C1830 1.523 . S
C1830 C1814 1.368 . S
C1830 C1826 1.368 . S
C1830 C1829 1.523 . S
H1831 C1806 0.950 . S
H1832 C1808 0.950 . S
H1833 C1809 0.949 . S
H1834 C1811 0.950 . S
H1835 C1813 0.950 . S
C1836 C1837 1.349 . S
C1836 C1838 1.327 . S
C1836 H1861 0.950 . S
C1837 C1836 1.349 . S
C1837 C1853 1.349 1_556 S
C1838 C1836 1.327 . S
C1838 C1857 1.429 . S
C1838 H1862 0.950 . S
C1839 C1856 1.574 . S
C1839 C1858 1.368 1_554 S
C1839 H1863 0.949 . S
H1840 C1844 0.949 . S
C1841 C1842 1.349 . S
C1841 C1843 1.327 . S
C1841 H1864 0.950 . S
C1842 C1841 1.349 . S
C1842 C1854 1.349 . S
C1843 C1841 1.327 . S
C1843 C1859 1.429 . S
C1843 H1865 0.950 . S
C1844 H1840 0.949 . S
C1844 C1852 1.574 . S
C1844 C1860 1.368 1_556 S
H1845 C1853 0.950 . S
H1846 C1851 0.950 . S
H1847 C1852 0.949 . S
H1848 C1854 0.950 1_556 S
H1849 C1855 0.950 1_556 S
H1850 C1856 0.949 . S
C1851 H1846 0.950 . S
C1851 C1853 1.327 . S
C1851 C1857 1.429 1_554 S
C1852 C1844 1.574 . S
C1852 H1847 0.949 . S
C1852 C1858 1.368 . S
C1853 C1837 1.349 1_554 S
C1853 H1845 0.950 . S
C1853 C1851 1.327 . S
C1854 C1842 1.349 . S
C1854 H1848 0.950 1_554 S
C1854 C1855 1.327 . S
C1855 H1849 0.950 1_554 S
C1855 C1854 1.327 . S
C1855 C1859 1.429 . S
C1856 C1839 1.574 . S
C1856 H1850 0.949 . S
C1856 C1860 1.368 . S
C1857 C1838 1.429 . S
C1857 C1851 1.429 1_556 S
C1857 C1858 1.523 . S
C1858 C1839 1.368 1_556 S
C1858 C1852 1.368 . S
C1858 C1857 1.523 . S
C1859 C1843 1.429 . S
C1859 C1855 1.429 . S
C1859 C1860 1.523 . S
C1860 C1844 1.368 1_554 S
C1860 C1856 1.368 . S
C1860 C1859 1.523 . S
H1861 C1836 0.950 . S
H1862 C1838 0.950 . S
H1863 C1839 0.949 . S
H1864 C1841 0.950 . S
H1865 C1843 0.950 . S
C1866 C1867 1.349 . S
C1866 C1868 1.327 . S
C1866 H1891 0.950 . S
C1867 C1866 1.349 . S
C1867 C1883 1.349 1_556 S
C1868 C1866 1.327 . S
C1868 C1887 1.429 . S
C1868 H1892 0.950 . S
C1869 C1886 1.574 . S
C1869 C1888 1.368 1_554 S
C1869 H1893 0.949 . S
H1870 C1874 0.949 . S
C1871 C1872 1.349 . S
C1871 C1873 1.327 . S
C1871 H1894 0.950 . S
C1872 C1871 1.349 . S
C1872 C1884 1.349 . S
C1873 C1871 1.327 . S
C1873 C1889 1.429 . S
C1873 H1895 0.950 . S
C1874 H1870 0.949 . S
C1874 C1882 1.574 . S
C1874 C1890 1.368 1_556 S
H1875 C1883 0.950 . S
H1876 C1881 0.950 . S
H1877 C1882 0.949 . S
H1878 C1884 0.950 1_556 S
H1879 C1885 0.950 1_556 S
H1880 C1886 0.949 . S
C1881 H1876 0.950 . S
C1881 C1883 1.327 . S
C1881 C1887 1.429 1_554 S
C1882 C1874 1.574 . S
C1882 H1877 0.949 . S
C1882 C1888 1.368 . S
C1883 C1867 1.349 1_554 S
C1883 H1875 0.950 . S
C1883 C1881 1.327 . S
C1884 C1872 1.349 . S
C1884 H1878 0.950 1_554 S
C1884 C1885 1.327 . S
C1885 H1879 0.950 1_554 S
C1885 C1884 1.327 . S
C1885 C1889 1.429 . S
C1886 C1869 1.574 . S
C1886 H1880 0.949 . S
C1886 C1890 1.368 . S
C1887 C1868 1.429 . S
C1887 C1881 1.429 1_556 S
C1887 C1888 1.523 . S
C1888 C1869 1.368 1_556 S
C1888 C1882 1.368 . S
C1888 C1887 1.523 . S
C1889 C1873 1.429 . S
C1889 C1885 1.429 . S
C1889 C1890 1.523 . S
C1890 C1874 1.368 1_554 S
C1890 C1886 1.368 . S
C1890 C1889 1.523 . S
H1891 C1866 0.950 . S
H1892 C1868 0.950 . S
H1893 C1869 0.949 . S
H1894 C1871 0.950 . S
H1895 C1873 0.950 . S
C1896 C1897 1.349 . S
C1896 C1898 1.327 . S
C1896 H1921 0.950 . S
C1897 C1896 1.349 . S
C1897 C1913 1.349 . S
C1898 C1896 1.327 . S
C1898 C1917 1.429 . S
C1898 H1922 0.950 . S
C1899 C1916 1.574 . S
C1899 C1918 1.368 1_554 S
C1899 H1923 0.949 . S
H1900 C1904 0.949 . S
C1901 C1902 1.349 . S
C1901 C1903 1.327 . S
C1901 H1924 0.950 . S
C1902 C1901 1.349 . S
C1902 C1914 1.349 . S
C1903 C1901 1.327 . S
C1903 C1919 1.429 . S
C1903 H1925 0.950 . S
C1904 H1900 0.949 . S
C1904 C1912 1.574 . S
C1904 C1920 1.368 1_556 S
H1905 C1913 0.950 1_554 S
H1906 C1911 0.950 . S
H1907 C1912 0.949 . S
H1908 C1914 0.950 . S
H1909 C1915 0.950 1_556 S
H1910 C1916 0.949 . S
C1911 H1906 0.950 . S
C1911 C1913 1.327 1_554 S
C1911 C1917 1.429 1_554 S
C1912 C1904 1.574 . S
C1912 H1907 0.949 . S
C1912 C1918 1.368 . S
C1913 C1897 1.349 . S
C1913 H1905 0.950 1_556 S
C1913 C1911 1.327 1_556 S
C1914 C1902 1.349 . S
C1914 H1908 0.950 . S
C1914 C1915 1.327 . S
C1915 H1909 0.950 1_554 S
C1915 C1914 1.327 . S
C1915 C1919 1.429 . S
C1916 C1899 1.574 . S
C1916 H1910 0.949 . S
C1916 C1920 1.368 . S
C1917 C1898 1.429 . S
C1917 C1911 1.429 1_556 S
C1917 C1918 1.523 . S
C1918 C1899 1.368 1_556 S
C1918 C1912 1.368 . S
C1918 C1917 1.523 . S
C1919 C1903 1.429 . S
C1919 C1915 1.429 . S
C1919 C1920 1.523 . S
C1920 C1904 1.368 1_554 S
C1920 C1916 1.368 . S
C1920 C1919 1.523 . S
H1921 C1896 0.950 . S
H1922 C1898 0.950 . S
H1923 C1899 0.949 . S
H1924 C1901 0.950 . S
H1925 C1903 0.950 . S
C1926 C1927 1.349 . S
C1926 C1928 1.327 . S
C1926 H1951 0.950 . S
C1927 C1926 1.349 . S
C1927 C1943 1.349 . S
C1928 C1926 1.327 . S
C1928 C1947 1.429 . S
C1928 H1952 0.950 . S
C1929 C1946 1.574 . S
C1929 C1948 1.368 . S
C1929 H1953 0.949 . S
H1930 C1934 0.949 . S
C1931 C1932 1.349 . S
C1931 C1933 1.327 . S
C1931 H1954 0.950 . S
C1932 C1931 1.349 . S
C1932 C1944 1.349 . S
C1933 C1931 1.327 . S
C1933 C1949 1.429 . S
C1933 H1955 0.950 . S
C1934 H1930 0.949 . S
C1934 C1942 1.574 . S
C1934 C1950 1.368 . S
H1935 C1943 0.950 . S
H1936 C1941 0.950 . S
H1937 C1942 0.949 . S
H1938 C1944 0.950 . S
H1939 C1945 0.950 . S
H1940 C1946 0.949 . S
C1941 H1936 0.950 . S
C1941 C1943 1.327 . S
C1941 C1947 1.429 . S
C1942 C1934 1.574 . S
C1942 H1937 0.949 . S
C1942 C1948 1.368 . S
C1943 C1927 1.349 . S
C1943 H1935 0.950 . S
C1943 C1941 1.327 . S
C1944 C1932 1.349 . S
C1944 H1938 0.950 . S
C1944 C1945 1.327 . S
C1945 H1939 0.950 . S
C1945 C1944 1.327 . S
C1945 C1949 1.429 . S
C1946 C1929 1.574 . S
C1946 H1940 0.949 . S
C1946 C1950 1.368 . S
C1947 C1928 1.429 . S
C1947 C1941 1.429 . S
C1947 C1948 1.523 . S
C1948 C1929 1.368 . S
C1948 C1942 1.368 . S
C1948 C1947 1.523 . S
C1949 C1933 1.429 . S
C1949 C1945 1.429 . S
C1949 C1950 1.523 . S
C1950 C1934 1.368 . S
C1950 C1946 1.368 . S
C1950 C1949 1.523 . S
H1951 C1926 0.950 . S
H1952 C1928 0.950 . S
H1953 C1929 0.949 . S
H1954 C1931 0.950 . S
H1955 C1933 0.950 . S
C1956 C1957 1.349 . S
C1956 C1958 1.327 . S
C1956 H1981 0.950 . S
C1957 C1956 1.349 . S
C1957 C1973 1.349 . S
C1958 C1956 1.327 . S
C1958 C1977 1.429 . S
C1958 H1982 0.950 . S
C1959 C1976 1.574 . S
C1959 C1978 1.368 . S
C1959 H1983 0.949 . S
H1960 C1964 0.949 . S
C1961 C1962 1.349 . S
C1961 C1963 1.327 . S
C1961 H1984 0.950 . S
C1962 C1961 1.349 . S
C1962 C1974 1.349 . S
C1963 C1961 1.327 . S
C1963 C1979 1.429 . S
C1963 H1985 0.950 . S
C1964 H1960 0.949 . S
C1964 C1972 1.574 . S
C1964 C1980 1.368 . S
H1965 C1973 0.950 . S
H1966 C1971 0.950 . S
H1967 C1972 0.949 . S
H1968 C1974 0.950 . S
H1969 C1975 0.950 . S
H1970 C1976 0.949 . S
C1971 H1966 0.950 . S
C1971 C1973 1.327 . S
C1971 C1977 1.429 . S
C1972 C1964 1.574 . S
C1972 H1967 0.949 . S
C1972 C1978 1.368 . S
C1973 C1957 1.349 . S
C1973 H1965 0.950 . S
C1973 C1971 1.327 . S
C1974 C1962 1.349 . S
C1974 H1968 0.950 . S
C1974 C1975 1.327 . S
C1975 H1969 0.950 . S
C1975 C1974 1.327 . S
C1975 C1979 1.429 . S
C1976 C1959 1.574 . S
C1976 H1970 0.949 . S
C1976 C1980 1.368 . S
C1977 C1958 1.429 . S
C1977 C1971 1.429 . S
C1977 C1978 1.523 . S
C1978 C1959 1.368 . S
C1978 C1972 1.368 . S
C1978 C1977 1.523 . S
C1979 C1963 1.429 . S
C1979 C1975 1.429 . S
C1979 C1980 1.523 . S
C1980 C1964 1.368 . S
C1980 C1976 1.368 . S
C1980 C1979 1.523 . S
H1981 C1956 0.950 . S
H1982 C1958 0.950 . S
H1983 C1959 0.949 . S
H1984 C1961 0.950 . S
H1985 C1963 0.950 . S
C1986 C1987 1.349 . S
C1986 C1988 1.327 . S
C1986 H2011 0.950 . S
C1987 C1986 1.349 . S
C1987 C2003 1.349 . S
C1988 C1986 1.327 . S
C1988 C2007 1.429 . S
C1988 H2012 0.950 . S
C1989 C2006 1.574 . S
C1989 C2008 1.368 . S
C1989 H2013 0.949 . S
H1990 C1994 0.949 . S
C1991 C1992 1.349 . S
C1991 C1993 1.327 . S
C1991 H2014 0.950 . S
C1992 C1991 1.349 . S
C1992 C2004 1.349 . S
C1993 C1991 1.327 . S
C1993 C2009 1.429 . S
C1993 H2015 0.950 . S
C1994 H1990 0.949 . S
C1994 C2002 1.574 . S
C1994 C2010 1.368 . S
H1995 C2003 0.950 . S
H1996 C2001 0.950 . S
H1997 C2002 0.949 . S
H1998 C2004 0.950 . S
H1999 C2005 0.950 . S
H2000 C2006 0.949 . S
C2001 H1996 0.950 . S
C2001 C2003 1.327 . S
C2001 C2007 1.429 . S
C2002 C1994 1.574 . S
C2002 H1997 0.949 . S
C2002 C2008 1.368 . S
C2003 C1987 1.349 . S
C2003 H1995 0.950 . S
C2003 C2001 1.327 . S
C2004 C1992 1.349 . S
C2004 H1998 0.950 . S
C2004 C2005 1.327 . S
C2005 H1999 0.950 . S
C2005 C2004 1.327 . S
C2005 C2009 1.429 . S
C2006 C1989 1.574 . S
C2006 H2000 0.949 . S
C2006 C2010 1.368 . S
C2007 C1988 1.429 . S
C2007 C2001 1.429 . S
C2007 C2008 1.523 . S
C2008 C1989 1.368 . S
C2008 C2002 1.368 . S
C2008 C2007 1.523 . S
C2009 C1993 1.429 . S
C2009 C2005 1.429 . S
C2009 C2010 1.523 . S
C2010 C1994 1.368 . S
C2010 C2006 1.368 . S
C2010 C2009 1.523 . S
H2011 C1986 0.950 . S
H2012 C1988 0.950 . S
H2013 C1989 0.949 . S
H2014 C1991 0.950 . S
H2015 C1993 0.950 . S
C2016 C2017 1.349 . S
C2016 C2018 1.327 . S
C2016 H2041 0.950 . S
C2017 C2016 1.349 . S
C2017 C2033 1.349 . S
C2018 C2016 1.327 . S
C2018 C2037 1.429 . S
C2018 H2042 0.950 . S
C2019 C2036 1.574 . S
C2019 C2038 1.368 1_556 S
C2019 H2043 0.949 . S
H2020 C2024 0.949 . S
C2021 C2022 1.349 . S
C2021 C2023 1.327 . S
C2021 H2044 0.950 . S
C2022 C2021 1.349 . S
C2022 C2034 1.349 . S
C2023 C2021 1.327 . S
C2023 C2039 1.429 . S
C2023 H2045 0.950 . S
C2024 H2020 0.949 . S
C2024 C2032 1.574 . S
C2024 C2040 1.368 1_554 S
H2025 C2033 0.950 1_556 S
H2026 C2031 0.950 . S
H2027 C2032 0.949 . S
H2028 C2034 0.950 . S
H2029 C2035 0.950 1_554 S
H2030 C2036 0.949 . S
C2031 H2026 0.950 . S
C2031 C2033 1.327 1_556 S
C2031 C2037 1.429 1_556 S
C2032 C2024 1.574 . S
C2032 H2027 0.949 . S
C2032 C2038 1.368 . S
C2033 C2017 1.349 . S
C2033 H2025 0.950 1_554 S
C2033 C2031 1.327 1_554 S
C2034 C2022 1.349 . S
C2034 H2028 0.950 . S
C2034 C2035 1.327 . S
C2035 H2029 0.950 1_556 S
C2035 C2034 1.327 . S
C2035 C2039 1.429 . S
C2036 C2019 1.574 . S
C2036 H2030 0.949 . S
C2036 C2040 1.368 . S
C2037 C2018 1.429 . S
C2037 C2031 1.429 1_554 S
C2037 C2038 1.523 . S
C2038 C2019 1.368 1_554 S
C2038 C2032 1.368 . S
C2038 C2037 1.523 . S
C2039 C2023 1.429 . S
C2039 C2035 1.429 . S
C2039 C2040 1.523 . S
C2040 C2024 1.368 1_556 S
C2040 C2036 1.368 . S
C2040 C2039 1.523 . S
H2041 C2016 0.950 . S
H2042 C2018 0.950 . S
H2043 C2019 0.949 . S
H2044 C2021 0.950 . S
H2045 C2023 0.950 . S
C2046 C2047 1.349 . S
C2046 C2048 1.327 . S
C2046 H2071 0.950 . S
C2047 C2046 1.349 . S
C2047 C2063 1.349 . S
C2048 C2046 1.327 . S
C2048 C2067 1.429 . S
C2048 H2072 0.950 1_556 S
C2049 C2066 1.574 . S
C2049 C2068 1.368 . S
C2049 H2073 0.949 . S
H2050 C2054 0.949 . S
C2051 C2052 1.349 . S
C2051 C2053 1.327 1_554 S
C2051 H2074 0.950 1_554 S
C2052 C2051 1.349 . S
C2052 C2064 1.349 . S
C2053 C2051 1.327 1_556 S
C2053 C2069 1.429 1_556 S
C2053 H2075 0.950 . S
C2054 H2050 0.949 . S
C2054 C2062 1.574 . S
C2054 C2070 1.368 . S
H2055 C2063 0.950 . S
H2056 C2061 0.950 . S
H2057 C2062 0.949 . S
H2058 C2064 0.950 . S
H2059 C2065 0.950 . S
H2060 C2066 0.949 . S
C2061 H2056 0.950 . S
C2061 C2063 1.327 . S
C2061 C2067 1.429 . S
C2062 C2054 1.574 . S
C2062 H2057 0.949 . S
C2062 C2068 1.368 1_554 S
C2063 C2047 1.349 . S
C2063 H2055 0.950 . S
C2063 C2061 1.327 . S
C2064 C2052 1.349 . S
C2064 H2058 0.950 . S
C2064 C2065 1.327 . S
C2065 H2059 0.950 . S
C2065 C2064 1.327 . S
C2065 C2069 1.429 . S
C2066 C2049 1.574 . S
C2066 H2060 0.949 . S
C2066 C2070 1.368 1_556 S
C2067 C2048 1.429 . S
C2067 C2061 1.429 . S
C2067 C2068 1.523 . S
C2068 C2049 1.368 . S
C2068 C2062 1.368 1_556 S
C2068 C2067 1.523 . S
C2069 C2053 1.429 1_554 S
C2069 C2065 1.429 . S
C2069 C2070 1.523 . S
C2070 C2054 1.368 . S
C2070 C2066 1.368 1_554 S
C2070 C2069 1.523 . S
H2071 C2046 0.950 . S
H2072 C2048 0.950 1_554 S
H2073 C2049 0.949 . S
H2074 C2051 0.950 1_556 S
H2075 C2053 0.950 . S
C2076 C2077 1.349 . S
C2076 C2078 1.327 . S
C2076 H2101 0.950 . S
C2077 C2076 1.349 . S
C2077 C2093 1.349 . S
C2078 C2076 1.327 . S
C2078 C2097 1.429 . S
C2078 H2102 0.950 1_554 S
C2079 C2096 1.574 . S
C2079 C2098 1.368 . S
C2079 H2103 0.949 . S
H2080 C2084 0.949 . S
C2081 C2082 1.349 . S
C2081 C2083 1.327 . S
C2081 H2104 0.950 . S
C2082 C2081 1.349 . S
C2082 C2094 1.349 . S
C2083 C2081 1.327 . S
C2083 C2099 1.429 . S
C2083 H2105 0.950 . S
C2084 H2080 0.949 . S
C2084 C2092 1.574 . S
C2084 C2100 1.368 . S
H2085 C2093 0.950 . S
H2086 C2091 0.950 . S
H2087 C2092 0.949 . S
H2088 C2094 0.950 . S
H2089 C2095 0.950 . S
H2090 C2096 0.949 . S
C2091 H2086 0.950 . S
C2091 C2093 1.327 . S
C2091 C2097 1.429 . S
C2092 C2084 1.574 . S
C2092 H2087 0.949 . S
C2092 C2098 1.368 1_556 S
C2093 C2077 1.349 . S
C2093 H2085 0.950 . S
C2093 C2091 1.327 . S
C2094 C2082 1.349 . S
C2094 H2088 0.950 . S
C2094 C2095 1.327 . S
C2095 H2089 0.950 . S
C2095 C2094 1.327 . S
C2095 C2099 1.429 . S
C2096 C2079 1.574 . S
C2096 H2090 0.949 . S
C2096 C2100 1.368 1_554 S
C2097 C2078 1.429 . S
C2097 C2091 1.429 . S
C2097 C2098 1.523 . S
C2098 C2079 1.368 . S
C2098 C2092 1.368 1_554 S
C2098 C2097 1.523 . S
C2099 C2083 1.429 . S
C2099 C2095 1.429 . S
C2099 C2100 1.523 . S
C2100 C2084 1.368 . S
C2100 C2096 1.368 1_556 S
C2100 C2099 1.523 . S
H2101 C2076 0.950 . S
H2102 C2078 0.950 1_556 S
H2103 C2079 0.949 . S
H2104 C2081 0.950 . S
H2105 C2083 0.950 . S
C2106 C2107 1.349 . S
C2106 C2108 1.327 . S
C2106 H2131 0.950 . S
C2107 C2106 1.349 . S
C2107 C2123 1.349 . S
C2108 C2106 1.327 . S
C2108 C2127 1.429 . S
C2108 H2132 0.950 . S
C2109 C2126 1.574 . S
C2109 C2128 1.368 . S
C2109 H2133 0.949 . S
H2110 C2114 0.949 . S
C2111 C2112 1.349 . S
C2111 C2113 1.327 . S
C2111 H2134 0.950 . S
C2112 C2111 1.349 . S
C2112 C2124 1.349 . S
C2113 C2111 1.327 . S
C2113 C2129 1.429 . S
C2113 H2135 0.950 . S
C2114 H2110 0.949 . S
C2114 C2122 1.574 . S
C2114 C2130 1.368 . S
H2115 C2123 0.950 . S
H2116 C2121 0.950 . S
H2117 C2122 0.949 . S
H2118 C2124 0.950 . S
H2119 C2125 0.950 . S
H2120 C2126 0.949 . S
C2121 H2116 0.950 . S
C2121 C2123 1.327 . S
C2121 C2127 1.429 . S
C2122 C2114 1.574 . S
C2122 H2117 0.949 . S
C2122 C2128 1.368 . S
C2123 C2107 1.349 . S
C2123 H2115 0.950 . S
C2123 C2121 1.327 . S
C2124 C2112 1.349 . S
C2124 H2118 0.950 . S
C2124 C2125 1.327 . S
C2125 H2119 0.950 . S
C2125 C2124 1.327 . S
C2125 C2129 1.429 . S
C2126 C2109 1.574 . S
C2126 H2120 0.949 . S
C2126 C2130 1.368 . S
C2127 C2108 1.429 . S
C2127 C2121 1.429 . S
C2127 C2128 1.523 . S
C2128 C2109 1.368 . S
C2128 C2122 1.368 . S
C2128 C2127 1.523 . S
C2129 C2113 1.429 . S
C2129 C2125 1.429 . S
C2129 C2130 1.523 . S
C2130 C2114 1.368 . S
C2130 C2126 1.368 . S
C2130 C2129 1.523 . S
H2131 C2106 0.950 . S
H2132 C2108 0.950 . S
H2133 C2109 0.949 . S
H2134 C2111 0.950 . S
H2135 C2113 0.950 . S
C2136 C2137 1.349 . S
C2136 C2138 1.327 . S
C2136 H2161 0.950 . S
C2137 C2136 1.349 . S
C2137 C2153 1.349 . S
C2138 C2136 1.327 . S
C2138 C2157 1.429 . S
C2138 H2162 0.950 . S
C2139 C2156 1.574 . S
C2139 C2158 1.368 . S
C2139 H2163 0.949 . S
H2140 C2144 0.949 . S
C2141 C2142 1.349 . S
C2141 C2143 1.327 . S
C2141 H2164 0.950 . S
C2142 C2141 1.349 . S
C2142 C2154 1.349 . S
C2143 C2141 1.327 . S
C2143 C2159 1.429 . S
C2143 H2165 0.950 . S
C2144 H2140 0.949 . S
C2144 C2152 1.574 . S
C2144 C2160 1.368 . S
H2145 C2153 0.950 . S
H2146 C2151 0.950 . S
H2147 C2152 0.949 . S
H2148 C2154 0.950 . S
H2149 C2155 0.950 . S
H2150 C2156 0.949 . S
C2151 H2146 0.950 . S
C2151 C2153 1.327 . S
C2151 C2157 1.429 . S
C2152 C2144 1.574 . S
C2152 H2147 0.949 . S
C2152 C2158 1.368 . S
C2153 C2137 1.349 . S
C2153 H2145 0.950 . S
C2153 C2151 1.327 . S
C2154 C2142 1.349 . S
C2154 H2148 0.950 . S
C2154 C2155 1.327 . S
C2155 H2149 0.950 . S
C2155 C2154 1.327 . S
C2155 C2159 1.429 . S
C2156 C2139 1.574 . S
C2156 H2150 0.949 . S
C2156 C2160 1.368 . S
C2157 C2138 1.429 . S
C2157 C2151 1.429 . S
C2157 C2158 1.523 . S
C2158 C2139 1.368 . S
C2158 C2152 1.368 . S
C2158 C2157 1.523 . S
C2159 C2143 1.429 . S
C2159 C2155 1.429 . S
C2159 C2160 1.523 . S
C2160 C2144 1.368 . S
C2160 C2156 1.368 . S
C2160 C2159 1.523 . S
H2161 C2136 0.950 . S
H2162 C2138 0.950 . S
H2163 C2139 0.949 . S
H2164 C2141 0.950 . S
H2165 C2143 0.950 . S
C2166 C2167 1.349 . S
C2166 C2168 1.327 . S
C2166 H2191 0.950 . S
C2167 C2166 1.349 . S
C2167 C2183 1.349 . S
C2168 C2166 1.327 . S
C2168 C2187 1.429 . S
C2168 H2192 0.950 . S
C2169 C2186 1.574 . S
C2169 C2188 1.368 . S
C2169 H2193 0.949 . S
H2170 C2174 0.949 . S
C2171 C2172 1.349 . S
C2171 C2173 1.327 . S
C2171 H2194 0.950 . S
C2172 C2171 1.349 . S
C2172 C2184 1.349 . S
C2173 C2171 1.327 . S
C2173 C2189 1.429 . S
C2173 H2195 0.950 . S
C2174 H2170 0.949 . S
C2174 C2182 1.574 . S
C2174 C2190 1.368 . S
H2175 C2183 0.950 . S
H2176 C2181 0.950 . S
H2177 C2182 0.949 . S
H2178 C2184 0.950 . S
H2179 C2185 0.950 . S
H2180 C2186 0.949 . S
C2181 H2176 0.950 . S
C2181 C2183 1.327 . S
C2181 C2187 1.429 . S
C2182 C2174 1.574 . S
C2182 H2177 0.949 . S
C2182 C2188 1.368 . S
C2183 C2167 1.349 . S
C2183 H2175 0.950 . S
C2183 C2181 1.327 . S
C2184 C2172 1.349 . S
C2184 H2178 0.950 . S
C2184 C2185 1.327 . S
C2185 H2179 0.950 . S
C2185 C2184 1.327 . S
C2185 C2189 1.429 . S
C2186 C2169 1.574 . S
C2186 H2180 0.949 . S
C2186 C2190 1.368 . S
C2187 C2168 1.429 . S
C2187 C2181 1.429 . S
C2187 C2188 1.523 . S
C2188 C2169 1.368 . S
C2188 C2182 1.368 . S
C2188 C2187 1.523 . S
C2189 C2173 1.429 . S
C2189 C2185 1.429 . S
C2189 C2190 1.523 . S
C2190 C2174 1.368 . S
C2190 C2186 1.368 . S
C2190 C2189 1.523 . S
H2191 C2166 0.950 . S
H2192 C2168 0.950 . S
H2193 C2169 0.949 . S
H2194 C2171 0.950 . S
H2195 C2173 0.950 . S
C2196 C2197 1.349 . S
C2196 C2198 1.327 . S
C2196 H2221 0.950 . S
C2197 C2196 1.349 . S
C2197 C2213 1.349 . S
C2198 C2196 1.327 . S
C2198 C2217 1.429 . S
C2198 H2222 0.950 . S
C2199 C2216 1.574 . S
C2199 C2218 1.368 . S
C2199 H2223 0.949 . S
H2200 C2204 0.949 . S
C2201 C2202 1.349 . S
C2201 C2203 1.327 . S
C2201 H2224 0.950 . S
C2202 C2201 1.349 . S
C2202 C2214 1.349 . S
C2203 C2201 1.327 . S
C2203 C2219 1.429 . S
C2203 H2225 0.950 . S
C2204 H2200 0.949 . S
C2204 C2212 1.574 . S
C2204 C2220 1.368 . S
H2205 C2213 0.950 . S
H2206 C2211 0.950 . S
H2207 C2212 0.949 . S
H2208 C2214 0.950 . S
H2209 C2215 0.950 . S
H2210 C2216 0.949 . S
C2211 H2206 0.950 . S
C2211 C2213 1.327 . S
C2211 C2217 1.429 . S
C2212 C2204 1.574 . S
C2212 H2207 0.949 . S
C2212 C2218 1.368 . S
C2213 C2197 1.349 . S
C2213 H2205 0.950 . S
C2213 C2211 1.327 . S
C2214 C2202 1.349 . S
C2214 H2208 0.950 . S
C2214 C2215 1.327 . S
C2215 H2209 0.950 . S
C2215 C2214 1.327 . S
C2215 C2219 1.429 . S
C2216 C2199 1.574 . S
C2216 H2210 0.949 . S
C2216 C2220 1.368 . S
C2217 C2198 1.429 . S
C2217 C2211 1.429 . S
C2217 C2218 1.523 . S
C2218 C2199 1.368 . S
C2218 C2212 1.368 . S
C2218 C2217 1.523 . S
C2219 C2203 1.429 . S
C2219 C2215 1.429 . S
C2219 C2220 1.523 . S
C2220 C2204 1.368 . S
C2220 C2216 1.368 . S
C2220 C2219 1.523 . S
H2221 C2196 0.950 . S
H2222 C2198 0.950 . S
H2223 C2199 0.949 . S
H2224 C2201 0.950 . S
H2225 C2203 0.950 . S
C2226 C2227 1.349 . S
C2226 C2228 1.327 . S
C2226 H2251 0.950 . S
C2227 C2226 1.349 . S
C2227 C2243 1.349 . S
C2228 C2226 1.327 . S
C2228 C2247 1.429 . S
C2228 H2252 0.950 . S
C2229 C2246 1.574 . S
C2229 C2248 1.368 . S
C2229 H2253 0.949 . S
H2230 C2234 0.949 . S
C2231 C2232 1.349 . S
C2231 C2233 1.327 . S
C2231 H2254 0.950 . S
C2232 C2231 1.349 . S
C2232 C2244 1.349 . S
C2233 C2231 1.327 . S
C2233 C2249 1.429 . S
C2233 H2255 0.950 . S
C2234 H2230 0.949 . S
C2234 C2242 1.574 . S
C2234 C2250 1.368 . S
H2235 C2243 0.950 . S
H2236 C2241 0.950 . S
H2237 C2242 0.949 . S
H2238 C2244 0.950 . S
H2239 C2245 0.950 . S
H2240 C2246 0.949 . S
C2241 H2236 0.950 . S
C2241 C2243 1.327 . S
C2241 C2247 1.429 . S
C2242 C2234 1.574 . S
C2242 H2237 0.949 . S
C2242 C2248 1.368 . S
C2243 C2227 1.349 . S
C2243 H2235 0.950 . S
C2243 C2241 1.327 . S
C2244 C2232 1.349 . S
C2244 H2238 0.950 . S
C2244 C2245 1.327 . S
C2245 H2239 0.950 . S
C2245 C2244 1.327 . S
C2245 C2249 1.429 . S
C2246 C2229 1.574 . S
C2246 H2240 0.949 . S
C2246 C2250 1.368 . S
C2247 C2228 1.429 . S
C2247 C2241 1.429 . S
C2247 C2248 1.523 . S
C2248 C2229 1.368 . S
C2248 C2242 1.368 . S
C2248 C2247 1.523 . S
C2249 C2233 1.429 . S
C2249 C2245 1.429 . S
C2249 C2250 1.523 . S
C2250 C2234 1.368 . S
C2250 C2246 1.368 . S
C2250 C2249 1.523 . S
H2251 C2226 0.950 . S
H2252 C2228 0.950 . S
H2253 C2229 0.949 . S
H2254 C2231 0.950 . S
H2255 C2233 0.950 . S
C2256 C2257 1.349 . S
C2256 C2258 1.327 . S
C2256 H2281 0.950 . S
C2257 C2256 1.349 . S
C2257 C2273 1.349 . S
C2258 C2256 1.327 . S
C2258 C2277 1.429 . S
C2258 H2282 0.950 . S
C2259 C2276 1.574 . S
C2259 C2278 1.368 . S
C2259 H2283 0.949 . S
H2260 C2264 0.949 . S
C2261 C2262 1.349 . S
C2261 C2263 1.327 . S
C2261 H2284 0.950 . S
C2262 C2261 1.349 . S
C2262 C2274 1.349 . S
C2263 C2261 1.327 . S
C2263 C2279 1.429 . S
C2263 H2285 0.950 . S
C2264 H2260 0.949 . S
C2264 C2272 1.574 . S
C2264 C2280 1.368 . S
H2265 C2273 0.950 . S
H2266 C2271 0.950 . S
H2267 C2272 0.949 . S
H2268 C2274 0.950 . S
H2269 C2275 0.950 . S
H2270 C2276 0.949 . S
C2271 H2266 0.950 . S
C2271 C2273 1.327 . S
C2271 C2277 1.429 . S
C2272 C2264 1.574 . S
C2272 H2267 0.949 . S
C2272 C2278 1.368 . S
C2273 C2257 1.349 . S
C2273 H2265 0.950 . S
C2273 C2271 1.327 . S
C2274 C2262 1.349 . S
C2274 H2268 0.950 . S
C2274 C2275 1.327 . S
C2275 H2269 0.950 . S
C2275 C2274 1.327 . S
C2275 C2279 1.429 . S
C2276 C2259 1.574 . S
C2276 H2270 0.949 . S
C2276 C2280 1.368 . S
C2277 C2258 1.429 . S
C2277 C2271 1.429 . S
C2277 C2278 1.523 . S
C2278 C2259 1.368 . S
C2278 C2272 1.368 . S
C2278 C2277 1.523 . S
C2279 C2263 1.429 . S
C2279 C2275 1.429 . S
C2279 C2280 1.523 . S
C2280 C2264 1.368 . S
C2280 C2276 1.368 . S
C2280 C2279 1.523 . S
H2281 C2256 0.950 . S
H2282 C2258 0.950 . S
H2283 C2259 0.949 . S
H2284 C2261 0.950 . S
H2285 C2263 0.950 . S
C2286 C2287 1.349 . S
C2286 C2288 1.327 . S
C2286 H2311 0.950 . S
C2287 C2286 1.349 . S
C2287 C2303 1.349 . S
C2288 C2286 1.327 . S
C2288 C2307 1.429 . S
C2288 H2312 0.950 . S
C2289 C2306 1.574 . S
C2289 C2308 1.368 . S
C2289 H2313 0.949 . S
H2290 C2294 0.949 . S
C2291 C2292 1.349 . S
C2291 C2293 1.327 . S
C2291 H2314 0.950 . S
C2292 C2291 1.349 . S
C2292 C2304 1.349 . S
C2293 C2291 1.327 . S
C2293 C2309 1.429 . S
C2293 H2315 0.950 . S
C2294 H2290 0.949 . S
C2294 C2302 1.574 . S
C2294 C2310 1.368 . S
H2295 C2303 0.950 . S
H2296 C2301 0.950 . S
H2297 C2302 0.949 . S
H2298 C2304 0.950 . S
H2299 C2305 0.950 . S
H2300 C2306 0.949 . S
C2301 H2296 0.950 . S
C2301 C2303 1.327 . S
C2301 C2307 1.429 . S
C2302 C2294 1.574 . S
C2302 H2297 0.949 . S
C2302 C2308 1.368 . S
C2303 C2287 1.349 . S
C2303 H2295 0.950 . S
C2303 C2301 1.327 . S
C2304 C2292 1.349 . S
C2304 H2298 0.950 . S
C2304 C2305 1.327 . S
C2305 H2299 0.950 . S
C2305 C2304 1.327 . S
C2305 C2309 1.429 . S
C2306 C2289 1.574 . S
C2306 H2300 0.949 . S
C2306 C2310 1.368 . S
C2307 C2288 1.429 . S
C2307 C2301 1.429 . S
C2307 C2308 1.523 . S
C2308 C2289 1.368 . S
C2308 C2302 1.368 . S
C2308 C2307 1.523 . S
C2309 C2293 1.429 . S
C2309 C2305 1.429 . S
C2309 C2310 1.523 . S
C2310 C2294 1.368 . S
C2310 C2306 1.368 . S
C2310 C2309 1.523 . S
H2311 C2286 0.950 . S
H2312 C2288 0.950 . S
H2313 C2289 0.949 . S
H2314 C2291 0.950 . S
H2315 C2293 0.950 . S
C2316 C2317 1.349 . S
C2316 C2318 1.327 . S
C2316 H2341 0.950 . S
C2317 C2316 1.349 . S
C2317 C2333 1.349 . S
C2318 C2316 1.327 . S
C2318 C2337 1.429 . S
C2318 H2342 0.950 . S
C2319 C2336 1.574 . S
C2319 C2338 1.368 . S
C2319 H2343 0.949 . S
H2320 C2324 0.949 . S
C2321 C2322 1.349 . S
C2321 C2323 1.327 . S
C2321 H2344 0.950 . S
C2322 C2321 1.349 . S
C2322 C2334 1.349 . S
C2323 C2321 1.327 . S
C2323 C2339 1.429 . S
C2323 H2345 0.950 . S
C2324 H2320 0.949 . S
C2324 C2332 1.574 . S
C2324 C2340 1.368 . S
H2325 C2333 0.950 . S
H2326 C2331 0.950 . S
H2327 C2332 0.949 . S
H2328 C2334 0.950 . S
H2329 C2335 0.950 . S
H2330 C2336 0.949 . S
C2331 H2326 0.950 . S
C2331 C2333 1.327 . S
C2331 C2337 1.429 . S
C2332 C2324 1.574 . S
C2332 H2327 0.949 . S
C2332 C2338 1.368 . S
C2333 C2317 1.349 . S
C2333 H2325 0.950 . S
C2333 C2331 1.327 . S
C2334 C2322 1.349 . S
C2334 H2328 0.950 . S
C2334 C2335 1.327 . S
C2335 H2329 0.950 . S
C2335 C2334 1.327 . S
C2335 C2339 1.429 . S
C2336 C2319 1.574 . S
C2336 H2330 0.949 . S
C2336 C2340 1.368 . S
C2337 C2318 1.429 . S
C2337 C2331 1.429 . S
C2337 C2338 1.523 . S
C2338 C2319 1.368 . S
C2338 C2332 1.368 . S
C2338 C2337 1.523 . S
C2339 C2323 1.429 . S
C2339 C2335 1.429 . S
C2339 C2340 1.523 . S
C2340 C2324 1.368 . S
C2340 C2336 1.368 . S
C2340 C2339 1.523 . S
H2341 C2316 0.950 . S
H2342 C2318 0.950 . S
H2343 C2319 0.949 . S
H2344 C2321 0.950 . S
H2345 C2323 0.950 . S
C2346 C2347 1.349 . S
C2346 C2348 1.327 . S
C2346 H2371 0.950 . S
C2347 C2346 1.349 . S
C2347 C2363 1.349 . S
C2348 C2346 1.327 . S
C2348 C2367 1.429 . S
C2348 H2372 0.950 . S
C2349 C2366 1.574 . S
C2349 C2368 1.368 . S
C2349 H2373 0.949 . S
H2350 C2354 0.949 . S
C2351 C2352 1.349 . S
C2351 C2353 1.327 . S
C2351 H2374 0.950 . S
C2352 C2351 1.349 . S
C2352 C2364 1.349 . S
C2353 C2351 1.327 . S
C2353 C2369 1.429 . S
C2353 H2375 0.950 . S
C2354 H2350 0.949 . S
C2354 C2362 1.574 . S
C2354 C2370 1.368 . S
H2355 C2363 0.950 . S
H2356 C2361 0.950 . S
H2357 C2362 0.949 . S
H2358 C2364 0.950 . S
H2359 C2365 0.950 . S
H2360 C2366 0.949 . S
C2361 H2356 0.950 . S
C2361 C2363 1.327 . S
C2361 C2367 1.429 . S
C2362 C2354 1.574 . S
C2362 H2357 0.949 . S
C2362 C2368 1.368 . S
C2363 C2347 1.349 . S
C2363 H2355 0.950 . S
C2363 C2361 1.327 . S
C2364 C2352 1.349 . S
C2364 H2358 0.950 . S
C2364 C2365 1.327 . S
C2365 H2359 0.950 . S
C2365 C2364 1.327 . S
C2365 C2369 1.429 . S
C2366 C2349 1.574 . S
C2366 H2360 0.949 . S
C2366 C2370 1.368 . S
C2367 C2348 1.429 . S
C2367 C2361 1.429 . S
C2367 C2368 1.523 . S
C2368 C2349 1.368 . S
C2368 C2362 1.368 . S
C2368 C2367 1.523 . S
C2369 C2353 1.429 . S
C2369 C2365 1.429 . S
C2369 C2370 1.523 . S
C2370 C2354 1.368 . S
C2370 C2366 1.368 . S
C2370 C2369 1.523 . S
H2371 C2346 0.950 . S
H2372 C2348 0.950 . S
H2373 C2349 0.949 . S
H2374 C2351 0.950 . S
H2375 C2353 0.950 . S
C2376 C2377 1.349 . S
C2376 C2378 1.327 . S
C2376 H2401 0.950 . S
C2377 C2376 1.349 . S
C2377 C2393 1.349 . S
C2378 C2376 1.327 . S
C2378 C2397 1.429 . S
C2378 H2402 0.950 . S
C2379 C2396 1.574 . S
C2379 C2398 1.368 . S
C2379 H2403 0.949 . S
H2380 C2384 0.949 . S
C2381 C2382 1.349 . S
C2381 C2383 1.327 . S
C2381 H2404 0.950 . S
C2382 C2381 1.349 . S
C2382 C2394 1.349 . S
C2383 C2381 1.327 . S
C2383 C2399 1.429 . S
C2383 H2405 0.950 . S
C2384 H2380 0.949 . S
C2384 C2392 1.574 . S
C2384 C2400 1.368 . S
H2385 C2393 0.950 . S
H2386 C2391 0.950 . S
H2387 C2392 0.949 . S
H2388 C2394 0.950 . S
H2389 C2395 0.950 . S
H2390 C2396 0.949 . S
C2391 H2386 0.950 . S
C2391 C2393 1.327 . S
C2391 C2397 1.429 . S
C2392 C2384 1.574 . S
C2392 H2387 0.949 . S
C2392 C2398 1.368 . S
C2393 C2377 1.349 . S
C2393 H2385 0.950 . S
C2393 C2391 1.327 . S
C2394 C2382 1.349 . S
C2394 H2388 0.950 . S
C2394 C2395 1.327 . S
C2395 H2389 0.950 . S
C2395 C2394 1.327 . S
C2395 C2399 1.429 . S
C2396 C2379 1.574 . S
C2396 H2390 0.949 . S
C2396 C2400 1.368 . S
C2397 C2378 1.429 . S
C2397 C2391 1.429 . S
C2397 C2398 1.523 . S
C2398 C2379 1.368 . S
C2398 C2392 1.368 . S
C2398 C2397 1.523 . S
C2399 C2383 1.429 . S
C2399 C2395 1.429 . S
C2399 C2400 1.523 . S
C2400 C2384 1.368 . S
C2400 C2396 1.368 . S
C2400 C2399 1.523 . S
H2401 C2376 0.950 . S
H2402 C2378 0.950 . S
H2403 C2379 0.949 . S
H2404 C2381 0.950 . S
H2405 C2383 0.950 . S
C2406 C2407 1.349 . S
C2406 C2408 1.327 . S
C2406 H2431 0.950 . S
C2407 C2406 1.349 . S
C2407 C2423 1.349 . S
C2408 C2406 1.327 . S
C2408 C2427 1.429 . S
C2408 H2432 0.950 . S
C2409 C2426 1.574 . S
C2409 C2428 1.368 . S
C2409 H2433 0.949 . S
H2410 C2414 0.949 . S
C2411 C2412 1.349 . S
C2411 C2413 1.327 . S
C2411 H2434 0.950 . S
C2412 C2411 1.349 . S
C2412 C2424 1.349 . S
C2413 C2411 1.327 . S
C2413 C2429 1.429 . S
C2413 H2435 0.950 . S
C2414 H2410 0.949 . S
C2414 C2422 1.574 . S
C2414 C2430 1.368 . S
H2415 C2423 0.950 . S
H2416 C2421 0.950 . S
H2417 C2422 0.949 . S
H2418 C2424 0.950 . S
H2419 C2425 0.950 . S
H2420 C2426 0.949 . S
C2421 H2416 0.950 . S
C2421 C2423 1.327 . S
C2421 C2427 1.429 . S
C2422 C2414 1.574 . S
C2422 H2417 0.949 . S
C2422 C2428 1.368 . S
C2423 C2407 1.349 . S
C2423 H2415 0.950 . S
C2423 C2421 1.327 . S
C2424 C2412 1.349 . S
C2424 H2418 0.950 . S
C2424 C2425 1.327 . S
C2425 H2419 0.950 . S
C2425 C2424 1.327 . S
C2425 C2429 1.429 . S
C2426 C2409 1.574 . S
C2426 H2420 0.949 . S
C2426 C2430 1.368 . S
C2427 C2408 1.429 . S
C2427 C2421 1.429 . S
C2427 C2428 1.523 . S
C2428 C2409 1.368 . S
C2428 C2422 1.368 . S
C2428 C2427 1.523 . S
C2429 C2413 1.429 . S
C2429 C2425 1.429 . S
C2429 C2430 1.523 . S
C2430 C2414 1.368 . S
C2430 C2426 1.368 . S
C2430 C2429 1.523 . S
H2431 C2406 0.950 . S
H2432 C2408 0.950 . S
H2433 C2409 0.949 . S
H2434 C2411 0.950 . S
H2435 C2413 0.950 . S
C2436 C2437 1.349 . S
C2436 C2438 1.327 . S
C2436 H2461 0.950 . S
C2437 C2436 1.349 . S
C2437 C2453 1.349 . S
C2438 C2436 1.327 . S
C2438 C2457 1.429 . S
C2438 H2462 0.950 . S
C2439 C2456 1.574 . S
C2439 C2458 1.368 . S
C2439 H2463 0.949 . S
H2440 C2444 0.949 . S
C2441 C2442 1.349 . S
C2441 C2443 1.327 . S
C2441 H2464 0.950 . S
C2442 C2441 1.349 . S
C2442 C2454 1.349 . S
C2443 C2441 1.327 . S
C2443 C2459 1.429 . S
C2443 H2465 0.950 . S
C2444 H2440 0.949 . S
C2444 C2452 1.574 . S
C2444 C2460 1.368 . S
H2445 C2453 0.950 . S
H2446 C2451 0.950 . S
H2447 C2452 0.949 . S
H2448 C2454 0.950 . S
H2449 C2455 0.950 . S
H2450 C2456 0.949 . S
C2451 H2446 0.950 . S
C2451 C2453 1.327 . S
C2451 C2457 1.429 . S
C2452 C2444 1.574 . S
C2452 H2447 0.949 . S
C2452 C2458 1.368 . S
C2453 C2437 1.349 . S
C2453 H2445 0.950 . S
C2453 C2451 1.327 . S
C2454 C2442 1.349 . S
C2454 H2448 0.950 . S
C2454 C2455 1.327 . S
C2455 H2449 0.950 . S
C2455 C2454 1.327 . S
C2455 C2459 1.429 . S
C2456 C2439 1.574 . S
C2456 H2450 0.949 . S
C2456 C2460 1.368 . S
C2457 C2438 1.429 . S
C2457 C2451 1.429 . S
C2457 C2458 1.523 . S
C2458 C2439 1.368 . S
C2458 C2452 1.368 . S
C2458 C2457 1.523 . S
C2459 C2443 1.429 . S
C2459 C2455 1.429 . S
C2459 C2460 1.523 . S
C2460 C2444 1.368 . S
C2460 C2456 1.368 . S
C2460 C2459 1.523 . S
H2461 C2436 0.950 . S
H2462 C2438 0.950 . S
H2463 C2439 0.949 . S
H2464 C2441 0.950 . S
H2465 C2443 0.950 . S
C2466 C2467 1.349 . S
C2466 C2468 1.327 . S
C2466 H2491 0.950 . S
C2467 C2466 1.349 . S
C2467 C2483 1.349 . S
C2468 C2466 1.327 . S
C2468 C2487 1.429 . S
C2468 H2492 0.950 . S
C2469 C2486 1.574 . S
C2469 C2488 1.368 . S
C2469 H2493 0.949 . S
H2470 C2474 0.949 . S
C2471 C2472 1.349 . S
C2471 C2473 1.327 . S
C2471 H2494 0.950 . S
C2472 C2471 1.349 . S
C2472 C2484 1.349 . S
C2473 C2471 1.327 . S
C2473 C2489 1.429 . S
C2473 H2495 0.950 . S
C2474 H2470 0.949 . S
C2474 C2482 1.574 . S
C2474 C2490 1.368 . S
H2475 C2483 0.950 . S
H2476 C2481 0.950 . S
H2477 C2482 0.949 . S
H2478 C2484 0.950 . S
H2479 C2485 0.950 . S
H2480 C2486 0.949 . S
C2481 H2476 0.950 . S
C2481 C2483 1.327 . S
C2481 C2487 1.429 . S
C2482 C2474 1.574 . S
C2482 H2477 0.949 . S
C2482 C2488 1.368 . S
C2483 C2467 1.349 . S
C2483 H2475 0.950 . S
C2483 C2481 1.327 . S
C2484 C2472 1.349 . S
C2484 H2478 0.950 . S
C2484 C2485 1.327 . S
C2485 H2479 0.950 . S
C2485 C2484 1.327 . S
C2485 C2489 1.429 . S
C2486 C2469 1.574 . S
C2486 H2480 0.949 . S
C2486 C2490 1.368 . S
C2487 C2468 1.429 . S
C2487 C2481 1.429 . S
C2487 C2488 1.523 . S
C2488 C2469 1.368 . S
C2488 C2482 1.368 . S
C2488 C2487 1.523 . S
C2489 C2473 1.429 . S
C2489 C2485 1.429 . S
C2489 C2490 1.523 . S
C2490 C2474 1.368 . S
C2490 C2486 1.368 . S
C2490 C2489 1.523 . S
H2491 C2466 0.950 . S
H2492 C2468 0.950 . S
H2493 C2469 0.949 . S
H2494 C2471 0.950 . S
H2495 C2473 0.950 . S
C2496 C2497 1.349 . S
C2496 C2498 1.327 . S
C2496 H2521 0.950 . S
C2497 C2496 1.349 . S
C2497 C2513 1.349 . S
C2498 C2496 1.327 . S
C2498 C2517 1.429 . S
C2498 H2522 0.950 . S
C2499 C2516 1.574 . S
C2499 C2518 1.368 . S
C2499 H2523 0.949 . S
H2500 C2504 0.949 . S
C2501 C2502 1.349 . S
C2501 C2503 1.327 . S
C2501 H2524 0.950 . S
C2502 C2501 1.349 . S
C2502 C2514 1.349 . S
C2503 C2501 1.327 . S
C2503 C2519 1.429 . S
C2503 H2525 0.950 . S
C2504 H2500 0.949 . S
C2504 C2512 1.574 . S
C2504 C2520 1.368 . S
H2505 C2513 0.950 . S
H2506 C2511 0.950 . S
H2507 C2512 0.949 . S
H2508 C2514 0.950 . S
H2509 C2515 0.950 . S
H2510 C2516 0.949 . S
C2511 H2506 0.950 . S
C2511 C2513 1.327 . S
C2511 C2517 1.429 . S
C2512 C2504 1.574 . S
C2512 H2507 0.949 . S
C2512 C2518 1.368 . S
C2513 C2497 1.349 . S
C2513 H2505 0.950 . S
C2513 C2511 1.327 . S
C2514 C2502 1.349 . S
C2514 H2508 0.950 . S
C2514 C2515 1.327 . S
C2515 H2509 0.950 . S
C2515 C2514 1.327 . S
C2515 C2519 1.429 . S
C2516 C2499 1.574 . S
C2516 H2510 0.949 . S
C2516 C2520 1.368 . S
C2517 C2498 1.429 . S
C2517 C2511 1.429 . S
C2517 C2518 1.523 . S
C2518 C2499 1.368 . S
C2518 C2512 1.368 . S
C2518 C2517 1.523 . S
C2519 C2503 1.429 . S
C2519 C2515 1.429 . S
C2519 C2520 1.523 . S
C2520 C2504 1.368 . S
C2520 C2516 1.368 . S
C2520 C2519 1.523 . S
H2521 C2496 0.950 . S
H2522 C2498 0.950 . S
H2523 C2499 0.949 . S
H2524 C2501 0.950 . S
H2525 C2503 0.950 . S
C2526 C2527 1.349 . S
C2526 C2528 1.327 . S
C2526 H2551 0.950 . S
C2527 C2526 1.349 . S
C2527 C2543 1.349 . S
C2528 C2526 1.327 . S
C2528 C2547 1.429 . S
C2528 H2552 0.950 . S
C2529 C2546 1.574 . S
C2529 C2548 1.368 . S
C2529 H2553 0.949 . S
H2530 C2534 0.949 . S
C2531 C2532 1.349 . S
C2531 C2533 1.327 . S
C2531 H2554 0.950 . S
C2532 C2531 1.349 . S
C2532 C2544 1.349 . S
C2533 C2531 1.327 . S
C2533 C2549 1.429 . S
C2533 H2555 0.950 . S
C2534 H2530 0.949 . S
C2534 C2542 1.574 . S
C2534 C2550 1.368 . S
H2535 C2543 0.950 . S
H2536 C2541 0.950 . S
H2537 C2542 0.949 . S
H2538 C2544 0.950 . S
H2539 C2545 0.950 . S
H2540 C2546 0.949 . S
C2541 H2536 0.950 . S
C2541 C2543 1.327 . S
C2541 C2547 1.429 . S
C2542 C2534 1.574 . S
C2542 H2537 0.949 . S
C2542 C2548 1.368 . S
C2543 C2527 1.349 . S
C2543 H2535 0.950 . S
C2543 C2541 1.327 . S
C2544 C2532 1.349 . S
C2544 H2538 0.950 . S
C2544 C2545 1.327 . S
C2545 H2539 0.950 . S
C2545 C2544 1.327 . S
C2545 C2549 1.429 . S
C2546 C2529 1.574 . S
C2546 H2540 0.949 . S
C2546 C2550 1.368 . S
C2547 C2528 1.429 . S
C2547 C2541 1.429 . S
C2547 C2548 1.523 . S
C2548 C2529 1.368 . S
C2548 C2542 1.368 . S
C2548 C2547 1.523 . S
C2549 C2533 1.429 . S
C2549 C2545 1.429 . S
C2549 C2550 1.523 . S
C2550 C2534 1.368 . S
C2550 C2546 1.368 . S
C2550 C2549 1.523 . S
H2551 C2526 0.950 . S
H2552 C2528 0.950 . S
H2553 C2529 0.949 . S
H2554 C2531 0.950 . S
H2555 C2533 0.950 . S
C2556 C2557 1.349 . S
C2556 C2558 1.327 . S
C2556 H2581 0.950 . S
C2557 C2556 1.349 . S
C2557 C2573 1.349 . S
C2558 C2556 1.327 . S
C2558 C2577 1.429 . S
C2558 H2582 0.950 . S
C2559 C2576 1.574 . S
C2559 C2578 1.368 . S
C2559 H2583 0.949 . S
H2560 C2564 0.949 . S
C2561 C2562 1.349 . S
C2561 C2563 1.327 . S
C2561 H2584 0.950 . S
C2562 C2561 1.349 . S
C2562 C2574 1.349 . S
C2563 C2561 1.327 . S
C2563 C2579 1.429 . S
C2563 H2585 0.950 . S
C2564 H2560 0.949 . S
C2564 C2572 1.574 . S
C2564 C2580 1.368 . S
H2565 C2573 0.950 . S
H2566 C2571 0.950 . S
H2567 C2572 0.949 . S
H2568 C2574 0.950 . S
H2569 C2575 0.950 . S
H2570 C2576 0.949 . S
C2571 H2566 0.950 . S
C2571 C2573 1.327 . S
C2571 C2577 1.429 . S
C2572 C2564 1.574 . S
C2572 H2567 0.949 . S
C2572 C2578 1.368 . S
C2573 C2557 1.349 . S
C2573 H2565 0.950 . S
C2573 C2571 1.327 . S
C2574 C2562 1.349 . S
C2574 H2568 0.950 . S
C2574 C2575 1.327 . S
C2575 H2569 0.950 . S
C2575 C2574 1.327 . S
C2575 C2579 1.429 . S
C2576 C2559 1.574 . S
C2576 H2570 0.949 . S
C2576 C2580 1.368 . S
C2577 C2558 1.429 . S
C2577 C2571 1.429 . S
C2577 C2578 1.523 . S
C2578 C2559 1.368 . S
C2578 C2572 1.368 . S
C2578 C2577 1.523 . S
C2579 C2563 1.429 . S
C2579 C2575 1.429 . S
C2579 C2580 1.523 . S
C2580 C2564 1.368 . S
C2580 C2576 1.368 . S
C2580 C2579 1.523 . S
H2581 C2556 0.950 . S
H2582 C2558 0.950 . S
H2583 C2559 0.949 . S
H2584 C2561 0.950 . S
H2585 C2563 0.950 . S
C2586 C2587 1.349 . S
C2586 C2588 1.327 . S
C2586 H2611 0.950 . S
C2587 C2586 1.349 . S
C2587 C2603 1.349 . S
C2588 C2586 1.327 . S
C2588 C2607 1.429 . S
C2588 H2612 0.950 . S
C2589 C2606 1.574 . S
C2589 C2608 1.368 . S
C2589 H2613 0.949 . S
H2590 C2594 0.949 . S
C2591 C2592 1.349 . S
C2591 C2593 1.327 . S
C2591 H2614 0.950 . S
C2592 C2591 1.349 . S
C2592 C2604 1.349 . S
C2593 C2591 1.327 . S
C2593 C2609 1.429 . S
C2593 H2615 0.950 . S
C2594 H2590 0.949 . S
C2594 C2602 1.574 . S
C2594 C2610 1.368 . S
H2595 C2603 0.950 . S
H2596 C2601 0.950 . S
H2597 C2602 0.949 . S
H2598 C2604 0.950 . S
H2599 C2605 0.950 . S
H2600 C2606 0.949 . S
C2601 H2596 0.950 . S
C2601 C2603 1.327 . S
C2601 C2607 1.429 . S
C2602 C2594 1.574 . S
C2602 H2597 0.949 . S
C2602 C2608 1.368 . S
C2603 C2587 1.349 . S
C2603 H2595 0.950 . S
C2603 C2601 1.327 . S
C2604 C2592 1.349 . S
C2604 H2598 0.950 . S
C2604 C2605 1.327 . S
C2605 H2599 0.950 . S
C2605 C2604 1.327 . S
C2605 C2609 1.429 . S
C2606 C2589 1.574 . S
C2606 H2600 0.949 . S
C2606 C2610 1.368 . S
C2607 C2588 1.429 . S
C2607 C2601 1.429 . S
C2607 C2608 1.523 . S
C2608 C2589 1.368 . S
C2608 C2602 1.368 . S
C2608 C2607 1.523 . S
C2609 C2593 1.429 . S
C2609 C2605 1.429 . S
C2609 C2610 1.523 . S
C2610 C2594 1.368 . S
C2610 C2606 1.368 . S
C2610 C2609 1.523 . S
H2611 C2586 0.950 . S
H2612 C2588 0.950 . S
H2613 C2589 0.949 . S
H2614 C2591 0.950 . S
H2615 C2593 0.950 . S
C2616 C2617 1.349 . S
C2616 C2618 1.327 . S
C2616 H2641 0.950 . S
C2617 C2616 1.349 . S
C2617 C2633 1.349 . S
C2618 C2616 1.327 . S
C2618 C2637 1.429 . S
C2618 H2642 0.950 . S
C2619 C2636 1.574 . S
C2619 C2638 1.368 . S
C2619 H2643 0.949 . S
H2620 C2624 0.949 . S
C2621 C2622 1.349 . S
C2621 C2623 1.327 . S
C2621 H2644 0.950 . S
C2622 C2621 1.349 . S
C2622 C2634 1.349 . S
C2623 C2621 1.327 . S
C2623 C2639 1.429 . S
C2623 H2645 0.950 . S
C2624 H2620 0.949 . S
C2624 C2632 1.574 . S
C2624 C2640 1.368 . S
H2625 C2633 0.950 . S
H2626 C2631 0.950 . S
H2627 C2632 0.949 . S
H2628 C2634 0.950 . S
H2629 C2635 0.950 . S
H2630 C2636 0.949 . S
C2631 H2626 0.950 . S
C2631 C2633 1.327 . S
C2631 C2637 1.429 . S
C2632 C2624 1.574 . S
C2632 H2627 0.949 . S
C2632 C2638 1.368 . S
C2633 C2617 1.349 . S
C2633 H2625 0.950 . S
C2633 C2631 1.327 . S
C2634 C2622 1.349 . S
C2634 H2628 0.950 . S
C2634 C2635 1.327 . S
C2635 H2629 0.950 . S
C2635 C2634 1.327 . S
C2635 C2639 1.429 . S
C2636 C2619 1.574 . S
C2636 H2630 0.949 . S
C2636 C2640 1.368 . S
C2637 C2618 1.429 . S
C2637 C2631 1.429 . S
C2637 C2638 1.523 . S
C2638 C2619 1.368 . S
C2638 C2632 1.368 . S
C2638 C2637 1.523 . S
C2639 C2623 1.429 . S
C2639 C2635 1.429 . S
C2639 C2640 1.523 . S
C2640 C2624 1.368 . S
C2640 C2636 1.368 . S
C2640 C2639 1.523 . S
H2641 C2616 0.950 . S
H2642 C2618 0.950 . S
H2643 C2619 0.949 . S
H2644 C2621 0.950 . S
H2645 C2623 0.950 . S
C2646 C2647 1.349 . S
C2646 C2648 1.327 . S
C2646 H2671 0.950 . S
C2647 C2646 1.349 . S
C2647 C2663 1.349 . S
C2648 C2646 1.327 . S
C2648 C2667 1.429 . S
C2648 H2672 0.950 . S
C2649 C2666 1.574 . S
C2649 C2668 1.368 . S
C2649 H2673 0.949 . S
H2650 C2654 0.949 . S
C2651 C2652 1.349 . S
C2651 C2653 1.327 . S
C2651 H2674 0.950 . S
C2652 C2651 1.349 . S
C2652 C2664 1.349 . S
C2653 C2651 1.327 . S
C2653 C2669 1.429 . S
C2653 H2675 0.950 . S
C2654 H2650 0.949 . S
C2654 C2662 1.574 . S
C2654 C2670 1.368 . S
H2655 C2663 0.950 . S
H2656 C2661 0.950 . S
H2657 C2662 0.949 . S
H2658 C2664 0.950 . S
H2659 C2665 0.950 . S
H2660 C2666 0.949 . S
C2661 H2656 0.950 . S
C2661 C2663 1.327 . S
C2661 C2667 1.429 . S
C2662 C2654 1.574 . S
C2662 H2657 0.949 . S
C2662 C2668 1.368 . S
C2663 C2647 1.349 . S
C2663 H2655 0.950 . S
C2663 C2661 1.327 . S
C2664 C2652 1.349 . S
C2664 H2658 0.950 . S
C2664 C2665 1.327 . S
C2665 H2659 0.950 . S
C2665 C2664 1.327 . S
C2665 C2669 1.429 . S
C2666 C2649 1.574 . S
C2666 H2660 0.949 . S
C2666 C2670 1.368 . S
C2667 C2648 1.429 . S
C2667 C2661 1.429 . S
C2667 C2668 1.523 . S
C2668 C2649 1.368 . S
C2668 C2662 1.368 . S
C2668 C2667 1.523 . S
C2669 C2653 1.429 . S
C2669 C2665 1.429 . S
C2669 C2670 1.523 . S
C2670 C2654 1.368 . S
C2670 C2666 1.368 . S
C2670 C2669 1.523 . S
H2671 C2646 0.950 . S
H2672 C2648 0.950 . S
H2673 C2649 0.949 . S
H2674 C2651 0.950 . S
H2675 C2653 0.950 . S
C2676 C2677 1.349 . S
C2676 C2678 1.327 . S
C2676 H2701 0.950 . S
C2677 C2676 1.349 . S
C2677 C2693 1.349 . S
C2678 C2676 1.327 . S
C2678 C2697 1.429 . S
C2678 H2702 0.950 . S
C2679 C2696 1.574 . S
C2679 C2698 1.368 . S
C2679 H2703 0.949 . S
H2680 C2684 0.949 . S
C2681 C2682 1.349 . S
C2681 C2683 1.327 . S
C2681 H2704 0.950 . S
C2682 C2681 1.349 . S
C2682 C2694 1.349 . S
C2683 C2681 1.327 . S
C2683 C2699 1.429 . S
C2683 H2705 0.950 . S
C2684 H2680 0.949 . S
C2684 C2692 1.574 . S
C2684 C2700 1.368 . S
H2685 C2693 0.950 . S
H2686 C2691 0.950 . S
H2687 C2692 0.949 . S
H2688 C2694 0.950 . S
H2689 C2695 0.950 . S
H2690 C2696 0.949 . S
C2691 H2686 0.950 . S
C2691 C2693 1.327 . S
C2691 C2697 1.429 . S
C2692 C2684 1.574 . S
C2692 H2687 0.949 . S
C2692 C2698 1.368 . S
C2693 C2677 1.349 . S
C2693 H2685 0.950 . S
C2693 C2691 1.327 . S
C2694 C2682 1.349 . S
C2694 H2688 0.950 . S
C2694 C2695 1.327 . S
C2695 H2689 0.950 . S
C2695 C2694 1.327 . S
C2695 C2699 1.429 . S
C2696 C2679 1.574 . S
C2696 H2690 0.949 . S
C2696 C2700 1.368 . S
C2697 C2678 1.429 . S
C2697 C2691 1.429 . S
C2697 C2698 1.523 . S
C2698 C2679 1.368 . S
C2698 C2692 1.368 . S
C2698 C2697 1.523 . S
C2699 C2683 1.429 . S
C2699 C2695 1.429 . S
C2699 C2700 1.523 . S
C2700 C2684 1.368 . S
C2700 C2696 1.368 . S
C2700 C2699 1.523 . S
H2701 C2676 0.950 . S
H2702 C2678 0.950 . S
H2703 C2679 0.949 . S
H2704 C2681 0.950 . S
H2705 C2683 0.950 . S
C2706 C2707 1.349 . S
C2706 C2708 1.327 . S
C2706 H2731 0.950 . S
C2707 C2706 1.349 . S
C2707 C2723 1.349 . S
C2708 C2706 1.327 . S
C2708 C2727 1.429 . S
C2708 H2732 0.950 . S
C2709 C2726 1.574 . S
C2709 C2728 1.368 . S
C2709 H2733 0.949 . S
H2710 C2714 0.949 . S
C2711 C2712 1.349 . S
C2711 C2713 1.327 . S
C2711 H2734 0.950 . S
C2712 C2711 1.349 . S
C2712 C2724 1.349 . S
C2713 C2711 1.327 . S
C2713 C2729 1.429 . S
C2713 H2735 0.950 . S
C2714 H2710 0.949 . S
C2714 C2722 1.574 . S
C2714 C2730 1.368 . S
H2715 C2723 0.950 . S
H2716 C2721 0.950 . S
H2717 C2722 0.949 . S
H2718 C2724 0.950 . S
H2719 C2725 0.950 . S
H2720 C2726 0.949 . S
C2721 H2716 0.950 . S
C2721 C2723 1.327 . S
C2721 C2727 1.429 . S
C2722 C2714 1.574 . S
C2722 H2717 0.949 . S
C2722 C2728 1.368 . S
C2723 C2707 1.349 . S
C2723 H2715 0.950 . S
C2723 C2721 1.327 . S
C2724 C2712 1.349 . S
C2724 H2718 0.950 . S
C2724 C2725 1.327 . S
C2725 H2719 0.950 . S
C2725 C2724 1.327 . S
C2725 C2729 1.429 . S
C2726 C2709 1.574 . S
C2726 H2720 0.949 . S
C2726 C2730 1.368 . S
C2727 C2708 1.429 . S
C2727 C2721 1.429 . S
C2727 C2728 1.523 . S
C2728 C2709 1.368 . S
C2728 C2722 1.368 . S
C2728 C2727 1.523 . S
C2729 C2713 1.429 . S
C2729 C2725 1.429 . S
C2729 C2730 1.523 . S
C2730 C2714 1.368 . S
C2730 C2726 1.368 . S
C2730 C2729 1.523 . S
H2731 C2706 0.950 . S
H2732 C2708 0.950 . S
H2733 C2709 0.949 . S
H2734 C2711 0.950 . S
H2735 C2713 0.950 . S
C2736 C2737 1.349 . S
C2736 C2738 1.327 . S
C2736 H2761 0.950 . S
C2737 C2736 1.349 . S
C2737 C2753 1.349 . S
C2738 C2736 1.327 . S
C2738 C2757 1.429 . S
C2738 H2762 0.950 . S
C2739 C2756 1.574 . S
C2739 C2758 1.368 . S
C2739 H2763 0.949 . S
H2740 C2744 0.949 . S
C2741 C2742 1.349 . S
C2741 C2743 1.327 . S
C2741 H2764 0.950 . S
C2742 C2741 1.349 . S
C2742 C2754 1.349 . S
C2743 C2741 1.327 . S
C2743 C2759 1.429 . S
C2743 H2765 0.950 . S
C2744 H2740 0.949 . S
C2744 C2752 1.574 . S
C2744 C2760 1.368 . S
H2745 C2753 0.950 . S
H2746 C2751 0.950 . S
H2747 C2752 0.949 . S
H2748 C2754 0.950 . S
H2749 C2755 0.950 . S
H2750 C2756 0.949 . S
C2751 H2746 0.950 . S
C2751 C2753 1.327 . S
C2751 C2757 1.429 . S
C2752 C2744 1.574 . S
C2752 H2747 0.949 . S
C2752 C2758 1.368 . S
C2753 C2737 1.349 . S
C2753 H2745 0.950 . S
C2753 C2751 1.327 . S
C2754 C2742 1.349 . S
C2754 H2748 0.950 . S
C2754 C2755 1.327 . S
C2755 H2749 0.950 . S
C2755 C2754 1.327 . S
C2755 C2759 1.429 . S
C2756 C2739 1.574 . S
C2756 H2750 0.949 . S
C2756 C2760 1.368 . S
C2757 C2738 1.429 . S
C2757 C2751 1.429 . S
C2757 C2758 1.523 . S
C2758 C2739 1.368 . S
C2758 C2752 1.368 . S
C2758 C2757 1.523 . S
C2759 C2743 1.429 . S
C2759 C2755 1.429 . S
C2759 C2760 1.523 . S
C2760 C2744 1.368 . S
C2760 C2756 1.368 . S
C2760 C2759 1.523 . S
H2761 C2736 0.950 . S
H2762 C2738 0.950 . S
H2763 C2739 0.949 . S
H2764 C2741 0.950 . S
H2765 C2743 0.950 . S
C2766 C2767 1.349 . S
C2766 C2768 1.327 . S
C2766 H2791 0.950 . S
C2767 C2766 1.349 . S
C2767 C2783 1.349 . S
C2768 C2766 1.327 . S
C2768 C2787 1.429 . S
C2768 H2792 0.950 . S
C2769 C2786 1.574 . S
C2769 C2788 1.368 . S
C2769 H2793 0.949 . S
H2770 C2774 0.949 . S
C2771 C2772 1.349 . S
C2771 C2773 1.327 . S
C2771 H2794 0.950 . S
C2772 C2771 1.349 . S
C2772 C2784 1.349 . S
C2773 C2771 1.327 . S
C2773 C2789 1.429 . S
C2773 H2795 0.950 . S
C2774 H2770 0.949 . S
C2774 C2782 1.574 . S
C2774 C2790 1.368 . S
H2775 C2783 0.950 . S
H2776 C2781 0.950 . S
H2777 C2782 0.949 . S
H2778 C2784 0.950 . S
H2779 C2785 0.950 . S
H2780 C2786 0.949 . S
C2781 H2776 0.950 . S
C2781 C2783 1.327 . S
C2781 C2787 1.429 . S
C2782 C2774 1.574 . S
C2782 H2777 0.949 . S
C2782 C2788 1.368 . S
C2783 C2767 1.349 . S
C2783 H2775 0.950 . S
C2783 C2781 1.327 . S
C2784 C2772 1.349 . S
C2784 H2778 0.950 . S
C2784 C2785 1.327 . S
C2785 H2779 0.950 . S
C2785 C2784 1.327 . S
C2785 C2789 1.429 . S
C2786 C2769 1.574 . S
C2786 H2780 0.949 . S
C2786 C2790 1.368 . S
C2787 C2768 1.429 . S
C2787 C2781 1.429 . S
C2787 C2788 1.523 . S
C2788 C2769 1.368 . S
C2788 C2782 1.368 . S
C2788 C2787 1.523 . S
C2789 C2773 1.429 . S
C2789 C2785 1.429 . S
C2789 C2790 1.523 . S
C2790 C2774 1.368 . S
C2790 C2786 1.368 . S
C2790 C2789 1.523 . S
H2791 C2766 0.950 . S
H2792 C2768 0.950 . S
H2793 C2769 0.949 . S
H2794 C2771 0.950 . S
H2795 C2773 0.950 . S
C2796 C2797 1.349 . S
C2796 C2798 1.327 . S
C2796 H2821 0.950 . S
C2797 C2796 1.349 . S
C2797 C2813 1.349 . S
C2798 C2796 1.327 . S
C2798 C2817 1.429 . S
C2798 H2822 0.950 . S
C2799 C2816 1.574 . S
C2799 C2818 1.368 . S
C2799 H2823 0.949 . S
H2800 C2804 0.949 . S
C2801 C2802 1.349 . S
C2801 C2803 1.327 . S
C2801 H2824 0.950 . S
C2802 C2801 1.349 . S
C2802 C2814 1.349 . S
C2803 C2801 1.327 . S
C2803 C2819 1.429 . S
C2803 H2825 0.950 . S
C2804 H2800 0.949 . S
C2804 C2812 1.574 . S
C2804 C2820 1.368 . S
H2805 C2813 0.950 . S
H2806 C2811 0.950 . S
H2807 C2812 0.949 . S
H2808 C2814 0.950 . S
H2809 C2815 0.950 . S
H2810 C2816 0.949 . S
C2811 H2806 0.950 . S
C2811 C2813 1.327 . S
C2811 C2817 1.429 . S
C2812 C2804 1.574 . S
C2812 H2807 0.949 . S
C2812 C2818 1.368 . S
C2813 C2797 1.349 . S
C2813 H2805 0.950 . S
C2813 C2811 1.327 . S
C2814 C2802 1.349 . S
C2814 H2808 0.950 . S
C2814 C2815 1.327 . S
C2815 H2809 0.950 . S
C2815 C2814 1.327 . S
C2815 C2819 1.429 . S
C2816 C2799 1.574 . S
C2816 H2810 0.949 . S
C2816 C2820 1.368 . S
C2817 C2798 1.429 . S
C2817 C2811 1.429 . S
C2817 C2818 1.523 . S
C2818 C2799 1.368 . S
C2818 C2812 1.368 . S
C2818 C2817 1.523 . S
C2819 C2803 1.429 . S
C2819 C2815 1.429 . S
C2819 C2820 1.523 . S
C2820 C2804 1.368 . S
C2820 C2816 1.368 . S
C2820 C2819 1.523 . S
H2821 C2796 0.950 . S
H2822 C2798 0.950 . S
H2823 C2799 0.949 . S
H2824 C2801 0.950 . S
H2825 C2803 0.950 . S
C2826 C2827 1.349 . S
C2826 C2828 1.327 . S
C2826 H2851 0.950 . S
C2827 C2826 1.349 . S
C2827 C2843 1.349 . S
C2828 C2826 1.327 . S
C2828 C2847 1.429 . S
C2828 H2852 0.950 . S
C2829 C2846 1.574 . S
C2829 C2848 1.368 . S
C2829 H2853 0.949 . S
H2830 C2834 0.949 . S
C2831 C2832 1.349 . S
C2831 C2833 1.327 . S
C2831 H2854 0.950 . S
C2832 C2831 1.349 . S
C2832 C2844 1.349 . S
C2833 C2831 1.327 . S
C2833 C2849 1.429 . S
C2833 H2855 0.950 . S
C2834 H2830 0.949 . S
C2834 C2842 1.574 . S
C2834 C2850 1.368 . S
H2835 C2843 0.950 . S
H2836 C2841 0.950 . S
H2837 C2842 0.949 . S
H2838 C2844 0.950 . S
H2839 C2845 0.950 . S
H2840 C2846 0.949 . S
C2841 H2836 0.950 . S
C2841 C2843 1.327 . S
C2841 C2847 1.429 . S
C2842 C2834 1.574 . S
C2842 H2837 0.949 . S
C2842 C2848 1.368 . S
C2843 C2827 1.349 . S
C2843 H2835 0.950 . S
C2843 C2841 1.327 . S
C2844 C2832 1.349 . S
C2844 H2838 0.950 . S
C2844 C2845 1.327 . S
C2845 H2839 0.950 . S
C2845 C2844 1.327 . S
C2845 C2849 1.429 . S
C2846 C2829 1.574 . S
C2846 H2840 0.949 . S
C2846 C2850 1.368 . S
C2847 C2828 1.429 . S
C2847 C2841 1.429 . S
C2847 C2848 1.523 . S
C2848 C2829 1.368 . S
C2848 C2842 1.368 . S
C2848 C2847 1.523 . S
C2849 C2833 1.429 . S
C2849 C2845 1.429 . S
C2849 C2850 1.523 . S
C2850 C2834 1.368 . S
C2850 C2846 1.368 . S
C2850 C2849 1.523 . S
H2851 C2826 0.950 . S
H2852 C2828 0.950 . S
H2853 C2829 0.949 . S
H2854 C2831 0.950 . S
H2855 C2833 0.950 . S
C2856 C2857 1.349 . S
C2856 C2858 1.327 . S
C2856 H2881 0.950 . S
C2857 C2856 1.349 . S
C2857 C2873 1.349 . S
C2858 C2856 1.327 . S
C2858 C2877 1.429 . S
C2858 H2882 0.950 . S
C2859 C2876 1.574 . S
C2859 C2878 1.368 . S
C2859 H2883 0.949 . S
H2860 C2864 0.949 . S
C2861 C2862 1.349 . S
C2861 C2863 1.327 . S
C2861 H2884 0.950 . S
C2862 C2861 1.349 . S
C2862 C2874 1.349 . S
C2863 C2861 1.327 . S
C2863 C2879 1.429 . S
C2863 H2885 0.950 . S
C2864 H2860 0.949 . S
C2864 C2872 1.574 . S
C2864 C2880 1.368 . S
H2865 C2873 0.950 . S
H2866 C2871 0.950 . S
H2867 C2872 0.949 . S
H2868 C2874 0.950 . S
H2869 C2875 0.950 . S
H2870 C2876 0.949 . S
C2871 H2866 0.950 . S
C2871 C2873 1.327 . S
C2871 C2877 1.429 . S
C2872 C2864 1.574 . S
C2872 H2867 0.949 . S
C2872 C2878 1.368 . S
C2873 C2857 1.349 . S
C2873 H2865 0.950 . S
C2873 C2871 1.327 . S
C2874 C2862 1.349 . S
C2874 H2868 0.950 . S
C2874 C2875 1.327 . S
C2875 H2869 0.950 . S
C2875 C2874 1.327 . S
C2875 C2879 1.429 . S
C2876 C2859 1.574 . S
C2876 H2870 0.949 . S
C2876 C2880 1.368 . S
C2877 C2858 1.429 . S
C2877 C2871 1.429 . S
C2877 C2878 1.523 . S
C2878 C2859 1.368 . S
C2878 C2872 1.368 . S
C2878 C2877 1.523 . S
C2879 C2863 1.429 . S
C2879 C2875 1.429 . S
C2879 C2880 1.523 . S
C2880 C2864 1.368 . S
C2880 C2876 1.368 . S
C2880 C2879 1.523 . S
H2881 C2856 0.950 . S
H2882 C2858 0.950 . S
H2883 C2859 0.949 . S
H2884 C2861 0.950 . S
H2885 C2863 0.950 . S
C2886 C2887 1.349 . S
C2886 C2888 1.327 . S
C2886 H2911 0.950 . S
C2887 C2886 1.349 . S
C2887 C2903 1.349 . S
C2888 C2886 1.327 . S
C2888 C2907 1.429 . S
C2888 H2912 0.950 . S
C2889 C2906 1.574 . S
C2889 C2908 1.368 . S
C2889 H2913 0.949 . S
H2890 C2894 0.949 . S
C2891 C2892 1.349 . S
C2891 C2893 1.327 . S
C2891 H2914 0.950 . S
C2892 C2891 1.349 . S
C2892 C2904 1.349 . S
C2893 C2891 1.327 . S
C2893 C2909 1.429 . S
C2893 H2915 0.950 . S
C2894 H2890 0.949 . S
C2894 C2902 1.574 . S
C2894 C2910 1.368 . S
H2895 C2903 0.950 . S
H2896 C2901 0.950 . S
H2897 C2902 0.949 . S
H2898 C2904 0.950 . S
H2899 C2905 0.950 . S
H2900 C2906 0.949 . S
C2901 H2896 0.950 . S
C2901 C2903 1.327 . S
C2901 C2907 1.429 . S
C2902 C2894 1.574 . S
C2902 H2897 0.949 . S
C2902 C2908 1.368 . S
C2903 C2887 1.349 . S
C2903 H2895 0.950 . S
C2903 C2901 1.327 . S
C2904 C2892 1.349 . S
C2904 H2898 0.950 . S
C2904 C2905 1.327 . S
C2905 H2899 0.950 . S
C2905 C2904 1.327 . S
C2905 C2909 1.429 . S
C2906 C2889 1.574 . S
C2906 H2900 0.949 . S
C2906 C2910 1.368 . S
C2907 C2888 1.429 . S
C2907 C2901 1.429 . S
C2907 C2908 1.523 . S
C2908 C2889 1.368 . S
C2908 C2902 1.368 . S
C2908 C2907 1.523 . S
C2909 C2893 1.429 . S
C2909 C2905 1.429 . S
C2909 C2910 1.523 . S
C2910 C2894 1.368 . S
C2910 C2906 1.368 . S
C2910 C2909 1.523 . S
H2911 C2886 0.950 . S
H2912 C2888 0.950 . S
H2913 C2889 0.949 . S
H2914 C2891 0.950 . S
H2915 C2893 0.950 . S
C2916 C2917 1.349 . S
C2916 C2918 1.327 . S
C2916 H2941 0.950 . S
C2917 C2916 1.349 . S
C2917 C2933 1.349 . S
C2918 C2916 1.327 . S
C2918 C2937 1.429 . S
C2918 H2942 0.950 . S
C2919 C2936 1.574 . S
C2919 C2938 1.368 . S
C2919 H2943 0.949 . S
H2920 C2924 0.949 . S
C2921 C2922 1.349 . S
C2921 C2923 1.327 . S
C2921 H2944 0.950 . S
C2922 C2921 1.349 . S
C2922 C2934 1.349 . S
C2923 C2921 1.327 . S
C2923 C2939 1.429 . S
C2923 H2945 0.950 . S
C2924 H2920 0.949 . S
C2924 C2932 1.574 . S
C2924 C2940 1.368 . S
H2925 C2933 0.950 . S
H2926 C2931 0.950 . S
H2927 C2932 0.949 . S
H2928 C2934 0.950 . S
H2929 C2935 0.950 . S
H2930 C2936 0.949 . S
C2931 H2926 0.950 . S
C2931 C2933 1.327 . S
C2931 C2937 1.429 . S
C2932 C2924 1.574 . S
C2932 H2927 0.949 . S
C2932 C2938 1.368 . S
C2933 C2917 1.349 . S
C2933 H2925 0.950 . S
C2933 C2931 1.327 . S
C2934 C2922 1.349 . S
C2934 H2928 0.950 . S
C2934 C2935 1.327 . S
C2935 H2929 0.950 . S
C2935 C2934 1.327 . S
C2935 C2939 1.429 . S
C2936 C2919 1.574 . S
C2936 H2930 0.949 . S
C2936 C2940 1.368 . S
C2937 C2918 1.429 . S
C2937 C2931 1.429 . S
C2937 C2938 1.523 . S
C2938 C2919 1.368 . S
C2938 C2932 1.368 . S
C2938 C2937 1.523 . S
C2939 C2923 1.429 . S
C2939 C2935 1.429 . S
C2939 C2940 1.523 . S
C2940 C2924 1.368 . S
C2940 C2936 1.368 . S
C2940 C2939 1.523 . S
H2941 C2916 0.950 . S
H2942 C2918 0.950 . S
H2943 C2919 0.949 . S
H2944 C2921 0.950 . S
H2945 C2923 0.950 . S
C2946 C2947 1.349 1_565 S
C2946 C2948 1.327 . S
C2946 H2971 0.950 . S
C2947 C2946 1.349 1_545 S
C2947 C2963 1.349 . S
C2948 C2946 1.327 . S
C2948 C2967 1.429 1_565 S
C2948 H2972 0.950 . S
C2949 C2966 1.574 . S
C2949 C2968 1.368 . S
C2949 H2973 0.949 . S
H2950 C2954 0.949 . S
C2951 C2952 1.349 1_545 S
C2951 C2953 1.327 . S
C2951 H2974 0.950 . S
C2952 C2951 1.349 1_565 S
C2952 C2964 1.349 . S
C2953 C2951 1.327 . S
C2953 C2969 1.429 1_545 S
C2953 H2975 0.950 . S
C2954 H2950 0.949 . S
C2954 C2962 1.574 . S
C2954 C2970 1.368 . S
H2955 C2963 0.950 . S
H2956 C2961 0.950 . S
H2957 C2962 0.949 . S
H2958 C2964 0.950 . S
H2959 C2965 0.950 . S
H2960 C2966 0.949 . S
C2961 H2956 0.950 . S
C2961 C2963 1.327 . S
C2961 C2967 1.429 . S
C2962 C2954 1.574 . S
C2962 H2957 0.949 . S
C2962 C2968 1.368 1_565 S
C2963 C2947 1.349 . S
C2963 H2955 0.950 . S
C2963 C2961 1.327 . S
C2964 C2952 1.349 . S
C2964 H2958 0.950 . S
C2964 C2965 1.327 . S
C2965 H2959 0.950 . S
C2965 C2964 1.327 . S
C2965 C2969 1.429 . S
C2966 C2949 1.574 . S
C2966 H2960 0.949 . S
C2966 C2970 1.368 1_545 S
C2967 C2948 1.429 1_545 S
C2967 C2961 1.429 . S
C2967 C2968 1.523 . S
C2968 C2949 1.368 . S
C2968 C2962 1.368 1_545 S
C2968 C2967 1.523 . S
C2969 C2953 1.429 1_565 S
C2969 C2965 1.429 . S
C2969 C2970 1.523 . S
C2970 C2954 1.368 . S
C2970 C2966 1.368 1_565 S
C2970 C2969 1.523 . S
H2971 C2946 0.950 . S
H2972 C2948 0.950 . S
H2973 C2949 0.949 . S
H2974 C2951 0.950 . S
H2975 C2953 0.950 . S
C2976 C2977 1.349 1_655 S
C2976 C2978 1.327 . S
C2976 H3001 0.950 . S
C2977 C2976 1.349 1_455 S
C2977 C2993 1.349 . S
C2978 C2976 1.327 . S
C2978 C2997 1.429 1_655 S
C2978 H3002 0.950 . S
C2979 C2996 1.574 . S
C2979 C2998 1.368 . S
C2979 H3003 0.949 . S
H2980 C2984 0.949 . S
C2981 C2982 1.349 1_455 S
C2981 C2983 1.327 . S
C2981 H3004 0.950 . S
C2982 C2981 1.349 1_655 S
C2982 C2994 1.349 . S
C2983 C2981 1.327 . S
C2983 C2999 1.429 1_455 S
C2983 H3005 0.950 . S
C2984 H2980 0.949 . S
C2984 C2992 1.574 . S
C2984 C3000 1.368 . S
H2985 C2993 0.950 . S
H2986 C2991 0.950 . S
H2987 C2992 0.949 . S
H2988 C2994 0.950 . S
H2989 C2995 0.950 . S
H2990 C2996 0.949 . S
C2991 H2986 0.950 . S
C2991 C2993 1.327 . S
C2991 C2997 1.429 . S
C2992 C2984 1.574 . S
C2992 H2987 0.949 . S
C2992 C2998 1.368 1_655 S
C2993 C2977 1.349 . S
C2993 H2985 0.950 . S
C2993 C2991 1.327 . S
C2994 C2982 1.349 . S
C2994 H2988 0.950 . S
C2994 C2995 1.327 . S
C2995 H2989 0.950 . S
C2995 C2994 1.327 . S
C2995 C2999 1.429 . S
C2996 C2979 1.574 . S
C2996 H2990 0.949 . S
C2996 C3000 1.368 1_455 S
C2997 C2978 1.429 1_455 S
C2997 C2991 1.429 . S
C2997 C2998 1.523 . S
C2998 C2979 1.368 . S
C2998 C2992 1.368 1_455 S
C2998 C2997 1.523 . S
C2999 C2983 1.429 1_655 S
C2999 C2995 1.429 . S
C2999 C3000 1.523 . S
C3000 C2984 1.368 . S
C3000 C2996 1.368 1_655 S
C3000 C2999 1.523 . S
H3001 C2976 0.950 . S
H3002 C2978 0.950 . S
H3003 C2979 0.949 . S
H3004 C2981 0.950 . S
H3005 C2983 0.950 . S
C3006 C3007 1.349 . S
C3006 C3008 1.327 . S
C3006 H3031 0.950 . S
C3007 C3006 1.349 . S
C3007 C3023 1.349 . S
C3008 C3006 1.327 . S
C3008 C3027 1.429 . S
C3008 H3032 0.950 . S
C3009 C3026 1.574 . S
C3009 C3028 1.368 . S
C3009 H3033 0.949 . S
H3010 C3014 0.949 . S
C3011 C3012 1.349 . S
C3011 C3013 1.327 . S
C3011 H3034 0.950 . S
C3012 C3011 1.349 . S
C3012 C3024 1.349 . S
C3013 C3011 1.327 . S
C3013 C3029 1.429 . S
C3013 H3035 0.950 . S
C3014 H3010 0.949 . S
C3014 C3022 1.574 . S
C3014 C3030 1.368 . S
H3015 C3023 0.950 . S
H3016 C3021 0.950 . S
H3017 C3022 0.949 . S
H3018 C3024 0.950 . S
H3019 C3025 0.950 . S
H3020 C3026 0.949 . S
C3021 H3016 0.950 . S
C3021 C3023 1.327 . S
C3021 C3027 1.429 . S
C3022 C3014 1.574 . S
C3022 H3017 0.949 . S
C3022 C3028 1.368 . S
C3023 C3007 1.349 . S
C3023 H3015 0.950 . S
C3023 C3021 1.327 . S
C3024 C3012 1.349 . S
C3024 H3018 0.950 . S
C3024 C3025 1.327 . S
C3025 H3019 0.950 . S
C3025 C3024 1.327 . S
C3025 C3029 1.429 . S
C3026 C3009 1.574 . S
C3026 H3020 0.949 . S
C3026 C3030 1.368 . S
C3027 C3008 1.429 . S
C3027 C3021 1.429 . S
C3027 C3028 1.523 . S
C3028 C3009 1.368 . S
C3028 C3022 1.368 . S
C3028 C3027 1.523 . S
C3029 C3013 1.429 . S
C3029 C3025 1.429 . S
C3029 C3030 1.523 . S
C3030 C3014 1.368 . S
C3030 C3026 1.368 . S
C3030 C3029 1.523 . S
H3031 C3006 0.950 . S
H3032 C3008 0.950 . S
H3033 C3009 0.949 . S
H3034 C3011 0.950 . S
H3035 C3013 0.950 . S
C3036 C3037 1.349 . S
C3036 C3038 1.327 . S
C3036 H3061 0.950 . S
C3037 C3036 1.349 . S
C3037 C3053 1.349 1_545 S
C3038 C3036 1.327 . S
C3038 C3057 1.429 . S
C3038 H3062 0.950 . S
C3039 C3056 1.574 . S
C3039 C3058 1.368 1_565 S
C3039 H3063 0.949 . S
H3040 C3044 0.949 . S
C3041 C3042 1.349 . S
C3041 C3043 1.327 . S
C3041 H3064 0.950 . S
C3042 C3041 1.349 . S
C3042 C3054 1.349 1_565 S
C3043 C3041 1.327 . S
C3043 C3059 1.429 . S
C3043 H3065 0.950 . S
C3044 H3040 0.949 . S
C3044 C3052 1.574 . S
C3044 C3060 1.368 1_545 S
H3045 C3053 0.950 . S
H3046 C3051 0.950 . S
H3047 C3052 0.949 . S
H3048 C3054 0.950 . S
H3049 C3055 0.950 . S
H3050 C3056 0.949 . S
C3051 H3046 0.950 . S
C3051 C3053 1.327 . S
C3051 C3057 1.429 1_565 S
C3052 C3044 1.574 . S
C3052 H3047 0.949 . S
C3052 C3058 1.368 . S
C3053 C3037 1.349 1_565 S
C3053 H3045 0.950 . S
C3053 C3051 1.327 . S
C3054 C3042 1.349 1_545 S
C3054 H3048 0.950 . S
C3054 C3055 1.327 . S
C3055 H3049 0.950 . S
C3055 C3054 1.327 . S
C3055 C3059 1.429 1_545 S
C3056 C3039 1.574 . S
C3056 H3050 0.949 . S
C3056 C3060 1.368 . S
C3057 C3038 1.429 . S
C3057 C3051 1.429 1_545 S
C3057 C3058 1.523 . S
C3058 C3039 1.368 1_545 S
C3058 C3052 1.368 . S
C3058 C3057 1.523 . S
C3059 C3043 1.429 . S
C3059 C3055 1.429 1_565 S
C3059 C3060 1.523 . S
C3060 C3044 1.368 1_565 S
C3060 C3056 1.368 . S
C3060 C3059 1.523 . S
H3061 C3036 0.950 . S
H3062 C3038 0.950 . S
H3063 C3039 0.949 . S
H3064 C3041 0.950 . S
H3065 C3043 0.950 . S
C3066 C3067 1.349 . S
C3066 C3068 1.327 . S
C3066 H3091 0.950 . S
C3067 C3066 1.349 . S
C3067 C3083 1.349 . S
C3068 C3066 1.327 . S
C3068 C3087 1.429 . S
C3068 H3092 0.950 . S
C3069 C3086 1.579 . S
C3069 C3088 1.368 . S
C3069 H3093 0.949 . S
H3070 C3074 0.949 . S
C3071 C3072 1.349 . S
C3071 C3073 1.327 . S
C3071 H3094 0.950 . S
C3072 C3071 1.349 . S
C3072 C3084 1.349 . S
C3073 C3071 1.327 . S
C3073 C3089 1.429 . S
C3073 H3095 0.950 . S
C3074 H3070 0.949 . S
C3074 C3082 1.579 . S
C3074 C3090 1.368 . S
H3075 C3083 0.950 . S
H3076 C3081 0.950 . S
H3077 C3082 0.939 . S
H3078 C3084 0.950 . S
H3079 C3085 0.950 . S
H3080 C3086 0.939 . S
C3081 H3076 0.950 . S
C3081 C3083 1.327 . S
C3081 C3087 1.429 . S
C3082 C3074 1.579 . S
C3082 H3077 0.939 . S
C3082 C3088 1.345 1_455 S
C3083 C3067 1.349 . S
C3083 H3075 0.950 . S
C3083 C3081 1.327 . S
C3084 C3072 1.349 . S
C3084 H3078 0.950 . S
C3084 C3085 1.327 . S
C3085 H3079 0.950 . S
C3085 C3084 1.327 . S
C3085 C3089 1.429 . S
C3086 C3069 1.579 . S
C3086 H3080 0.939 . S
C3086 C3090 1.345 1_655 S
C3087 C3068 1.429 . S
C3087 C3081 1.429 . S
C3087 C3088 1.523 . S
C3088 C3069 1.368 . S
C3088 C3082 1.345 1_655 S
C3088 C3087 1.523 . S
C3089 C3073 1.429 . S
C3089 C3085 1.429 . S
C3089 C3090 1.523 . S
C3090 C3074 1.368 . S
C3090 C3086 1.345 1_455 S
C3090 C3089 1.523 . S
H3091 C3066 0.950 . S
H3092 C3068 0.950 . S
H3093 C3069 0.949 . S
H3094 C3071 0.950 . S
H3095 C3073 0.950 . S
C3096 C3097 1.349 . S
C3096 C3098 1.327 . S
C3096 H3121 0.950 . S
C3097 C3096 1.349 . S
C3097 C3113 1.349 . S
C3098 C3096 1.327 . S
C3098 C3117 1.429 . S
C3098 H3122 0.950 . S
C3099 C3116 1.574 . S
C3099 C3118 1.368 . S
C3099 H3123 0.949 . S
H3100 C3104 0.949 . S
C3101 C3102 1.349 . S
C3101 C3103 1.327 . S
C3101 H3124 0.950 . S
C3102 C3101 1.349 . S
C3102 C3114 1.349 . S
C3103 C3101 1.327 . S
C3103 C3119 1.429 . S
C3103 H3125 0.950 . S
C3104 H3100 0.949 . S
C3104 C3112 1.574 . S
C3104 C3120 1.368 . S
H3105 C3113 0.950 . S
H3106 C3111 0.950 . S
H3107 C3112 0.949 . S
H3108 C3114 0.950 . S
H3109 C3115 0.950 . S
H3110 C3116 0.949 . S
C3111 H3106 0.950 . S
C3111 C3113 1.327 . S
C3111 C3117 1.429 . S
C3112 C3104 1.574 . S
C3112 H3107 0.949 . S
C3112 C3118 1.368 . S
C3113 C3097 1.349 . S
C3113 H3105 0.950 . S
C3113 C3111 1.327 . S
C3114 C3102 1.349 . S
C3114 H3108 0.950 . S
C3114 C3115 1.327 . S
C3115 H3109 0.950 . S
C3115 C3114 1.327 . S
C3115 C3119 1.429 . S
C3116 C3099 1.574 . S
C3116 H3110 0.949 . S
C3116 C3120 1.368 . S
C3117 C3098 1.429 . S
C3117 C3111 1.429 . S
C3117 C3118 1.523 . S
C3118 C3099 1.368 . S
C3118 C3112 1.368 . S
C3118 C3117 1.523 . S
C3119 C3103 1.429 . S
C3119 C3115 1.429 . S
C3119 C3120 1.523 . S
C3120 C3104 1.368 . S
C3120 C3116 1.368 . S
C3120 C3119 1.523 . S
H3121 C3096 0.950 . S
H3122 C3098 0.950 . S
H3123 C3099 0.949 . S
H3124 C3101 0.950 . S
H3125 C3103 0.950 . S
C3126 C3127 1.349 . S
C3126 C3128 1.327 . S
C3126 H3151 0.950 . S
C3127 C3126 1.349 . S
C3127 C3143 1.349 . S
C3128 C3126 1.327 . S
C3128 C3147 1.429 . S
C3128 H3152 0.950 . S
C3129 C3146 1.574 . S
C3129 C3148 1.368 . S
C3129 H3153 0.949 . S
H3130 C3134 0.949 . S
C3131 C3132 1.349 . S
C3131 C3133 1.327 . S
C3131 H3154 0.950 . S
C3132 C3131 1.349 . S
C3132 C3144 1.349 . S
C3133 C3131 1.327 . S
C3133 C3149 1.429 . S
C3133 H3155 0.950 . S
C3134 H3130 0.949 . S
C3134 C3142 1.574 . S
C3134 C3150 1.368 . S
H3135 C3143 0.950 . S
H3136 C3141 0.950 . S
H3137 C3142 0.949 . S
H3138 C3144 0.950 . S
H3139 C3145 0.950 . S
H3140 C3146 0.949 . S
C3141 H3136 0.950 . S
C3141 C3143 1.327 . S
C3141 C3147 1.429 . S
C3142 C3134 1.574 . S
C3142 H3137 0.949 . S
C3142 C3148 1.368 . S
C3143 C3127 1.349 . S
C3143 H3135 0.950 . S
C3143 C3141 1.327 . S
C3144 C3132 1.349 . S
C3144 H3138 0.950 . S
C3144 C3145 1.327 . S
C3145 H3139 0.950 . S
C3145 C3144 1.327 . S
C3145 C3149 1.429 . S
C3146 C3129 1.574 . S
C3146 H3140 0.949 . S
C3146 C3150 1.368 . S
C3147 C3128 1.429 . S
C3147 C3141 1.429 . S
C3147 C3148 1.523 . S
C3148 C3129 1.368 . S
C3148 C3142 1.368 . S
C3148 C3147 1.523 . S
C3149 C3133 1.429 . S
C3149 C3145 1.429 . S
C3149 C3150 1.523 . S
C3150 C3134 1.368 . S
C3150 C3146 1.368 . S
C3150 C3149 1.523 . S
H3151 C3126 0.950 . S
H3152 C3128 0.950 . S
H3153 C3129 0.949 . S
H3154 C3131 0.950 . S
H3155 C3133 0.950 . S
C3156 C3157 1.349 . S
C3156 C3158 1.327 . S
C3156 H3181 0.950 . S
C3157 C3156 1.349 . S
C3157 C3173 1.349 . S
C3158 C3156 1.327 . S
C3158 C3177 1.429 . S
C3158 H3182 0.950 . S
C3159 C3176 1.574 . S
C3159 C3178 1.368 . S
C3159 H3183 0.949 . S
H3160 C3164 0.949 . S
C3161 C3162 1.349 . S
C3161 C3163 1.327 . S
C3161 H3184 0.950 . S
C3162 C3161 1.349 . S
C3162 C3174 1.349 . S
C3163 C3161 1.327 . S
C3163 C3179 1.429 . S
C3163 H3185 0.950 . S
C3164 H3160 0.949 . S
C3164 C3172 1.574 . S
C3164 C3180 1.368 . S
H3165 C3173 0.950 . S
H3166 C3171 0.950 . S
H3167 C3172 0.949 . S
H3168 C3174 0.950 . S
H3169 C3175 0.950 . S
H3170 C3176 0.949 . S
C3171 H3166 0.950 . S
C3171 C3173 1.327 . S
C3171 C3177 1.429 . S
C3172 C3164 1.574 . S
C3172 H3167 0.949 . S
C3172 C3178 1.368 . S
C3173 C3157 1.349 . S
C3173 H3165 0.950 . S
C3173 C3171 1.327 . S
C3174 C3162 1.349 . S
C3174 H3168 0.950 . S
C3174 C3175 1.327 . S
C3175 H3169 0.950 . S
C3175 C3174 1.327 . S
C3175 C3179 1.429 . S
C3176 C3159 1.574 . S
C3176 H3170 0.949 . S
C3176 C3180 1.368 . S
C3177 C3158 1.429 . S
C3177 C3171 1.429 . S
C3177 C3178 1.523 . S
C3178 C3159 1.368 . S
C3178 C3172 1.368 . S
C3178 C3177 1.523 . S
C3179 C3163 1.429 . S
C3179 C3175 1.429 . S
C3179 C3180 1.523 . S
C3180 C3164 1.368 . S
C3180 C3176 1.368 . S
C3180 C3179 1.523 . S
H3181 C3156 0.950 . S
H3182 C3158 0.950 . S
H3183 C3159 0.949 . S
H3184 C3161 0.950 . S
H3185 C3163 0.950 . S
C3186 C3187 1.349 . S
C3186 C3188 1.327 . S
C3186 H3211 0.950 . S
C3187 C3186 1.349 . S
C3187 C3203 1.349 . S
C3188 C3186 1.327 . S
C3188 C3207 1.429 . S
C3188 H3212 0.950 . S
C3189 C3206 1.574 . S
C3189 C3208 1.368 . S
C3189 H3213 0.949 . S
H3190 C3194 0.949 . S
C3191 C3192 1.349 . S
C3191 C3193 1.327 1_556 S
C3191 H3214 0.950 . S
C3192 C3191 1.349 . S
C3192 C3204 1.349 . S
C3193 C3191 1.327 1_554 S
C3193 C3209 1.429 . S
C3193 H3215 0.950 . S
C3194 H3190 0.949 . S
C3194 C3202 1.574 . S
C3194 C3210 1.368 . S
H3195 C3203 0.950 . S
H3196 C3201 0.950 . S
H3197 C3202 0.949 . S
H3198 C3204 0.950 . S
H3199 C3205 0.950 . S
H3200 C3206 0.949 . S
C3201 H3196 0.950 . S
C3201 C3203 1.327 . S
C3201 C3207 1.429 . S
C3202 C3194 1.574 . S
C3202 H3197 0.949 . S
C3202 C3208 1.368 . S
C3203 C3187 1.349 . S
C3203 H3195 0.950 . S
C3203 C3201 1.327 . S
C3204 C3192 1.349 . S
C3204 H3198 0.950 . S
C3204 C3205 1.327 1_556 S
C3205 H3199 0.950 . S
C3205 C3204 1.327 1_554 S
C3205 C3209 1.429 . S
C3206 C3189 1.574 . S
C3206 H3200 0.949 . S
C3206 C3210 1.368 . S
C3207 C3188 1.429 . S
C3207 C3201 1.429 . S
C3207 C3208 1.523 . S
C3208 C3189 1.368 . S
C3208 C3202 1.368 . S
C3208 C3207 1.523 . S
C3209 C3193 1.429 . S
C3209 C3205 1.429 . S
C3209 C3210 1.523 . S
C3210 C3194 1.368 . S
C3210 C3206 1.368 . S
C3210 C3209 1.523 . S
H3211 C3186 0.950 . S
H3212 C3188 0.950 . S
H3213 C3189 0.949 . S
H3214 C3191 0.950 . S
H3215 C3193 0.950 . S
C3216 C3217 1.349 . S
C3216 C3218 1.327 . S
C3216 H3241 0.950 . S
C3217 C3216 1.349 . S
C3217 C3233 1.349 . S
C3218 C3216 1.327 . S
C3218 C3237 1.429 . S
C3218 H3242 0.950 . S
C3219 C3236 1.574 . S
C3219 C3238 1.368 . S
C3219 H3243 0.949 . S
H3220 C3224 0.949 . S
C3221 C3222 1.349 . S
C3221 C3223 1.327 1_556 S
C3221 H3244 0.950 . S
C3222 C3221 1.349 . S
C3222 C3234 1.349 . S
C3223 C3221 1.327 1_554 S
C3223 C3239 1.429 . S
C3223 H3245 0.950 . S
C3224 H3220 0.949 . S
C3224 C3232 1.574 . S
C3224 C3240 1.368 . S
H3225 C3233 0.950 . S
H3226 C3231 0.950 . S
H3227 C3232 0.949 . S
H3228 C3234 0.950 . S
H3229 C3235 0.950 . S
H3230 C3236 0.949 . S
C3231 H3226 0.950 . S
C3231 C3233 1.327 . S
C3231 C3237 1.429 . S
C3232 C3224 1.574 . S
C3232 H3227 0.949 . S
C3232 C3238 1.368 . S
C3233 C3217 1.349 . S
C3233 H3225 0.950 . S
C3233 C3231 1.327 . S
C3234 C3222 1.349 . S
C3234 H3228 0.950 . S
C3234 C3235 1.327 1_556 S
C3235 H3229 0.950 . S
C3235 C3234 1.327 1_554 S
C3235 C3239 1.429 . S
C3236 C3219 1.574 . S
C3236 H3230 0.949 . S
C3236 C3240 1.368 . S
C3237 C3218 1.429 . S
C3237 C3231 1.429 . S
C3237 C3238 1.523 . S
C3238 C3219 1.368 . S
C3238 C3232 1.368 . S
C3238 C3237 1.523 . S
C3239 C3223 1.429 . S
C3239 C3235 1.429 . S
C3239 C3240 1.523 . S
C3240 C3224 1.368 . S
C3240 C3236 1.368 . S
C3240 C3239 1.523 . S
H3241 C3216 0.950 . S
H3242 C3218 0.950 . S
H3243 C3219 0.949 . S
H3244 C3221 0.950 . S
H3245 C3223 0.950 . S
C3246 C3247 1.349 . S
C3246 C3248 1.327 . S
C3246 H3271 0.950 . S
C3247 C3246 1.349 . S
C3247 C3263 1.349 . S
C3248 C3246 1.327 . S
C3248 C3267 1.429 . S
C3248 H3272 0.950 . S
C3249 C3266 1.574 . S
C3249 C3268 1.368 . S
C3249 H3273 0.949 . S
H3250 C3254 0.949 . S
C3251 C3252 1.349 . S
C3251 C3253 1.327 1_556 S
C3251 H3274 0.950 . S
C3252 C3251 1.349 . S
C3252 C3264 1.349 . S
C3253 C3251 1.327 1_554 S
C3253 C3269 1.429 . S
C3253 H3275 0.950 . S
C3254 H3250 0.949 . S
C3254 C3262 1.574 . S
C3254 C3270 1.368 . S
H3255 C3263 0.950 . S
H3256 C3261 0.950 . S
H3257 C3262 0.949 . S
H3258 C3264 0.950 . S
H3259 C3265 0.950 . S
H3260 C3266 0.949 . S
C3261 H3256 0.950 . S
C3261 C3263 1.327 . S
C3261 C3267 1.429 . S
C3262 C3254 1.574 . S
C3262 H3257 0.949 . S
C3262 C3268 1.368 . S
C3263 C3247 1.349 . S
C3263 H3255 0.950 . S
C3263 C3261 1.327 . S
C3264 C3252 1.349 . S
C3264 H3258 0.950 . S
C3264 C3265 1.327 1_556 S
C3265 H3259 0.950 . S
C3265 C3264 1.327 1_554 S
C3265 C3269 1.429 . S
C3266 C3249 1.574 . S
C3266 H3260 0.949 . S
C3266 C3270 1.368 . S
C3267 C3248 1.429 . S
C3267 C3261 1.429 . S
C3267 C3268 1.523 . S
C3268 C3249 1.368 . S
C3268 C3262 1.368 . S
C3268 C3267 1.523 . S
C3269 C3253 1.429 . S
C3269 C3265 1.429 . S
C3269 C3270 1.523 . S
C3270 C3254 1.368 . S
C3270 C3266 1.368 . S
C3270 C3269 1.523 . S
H3271 C3246 0.950 . S
H3272 C3248 0.950 . S
H3273 C3249 0.949 . S
H3274 C3251 0.950 . S
H3275 C3253 0.950 . S
C3276 C3277 1.349 . S
C3276 C3278 1.327 1_554 S
C3276 H3301 0.950 . S
C3277 C3276 1.349 . S
C3277 C3293 1.349 . S
C3278 C3276 1.327 1_556 S
C3278 C3297 1.429 . S
C3278 H3302 0.950 . S
C3279 C3296 1.574 . S
C3279 C3298 1.368 . S
C3279 H3303 0.949 . S
H3280 C3284 0.949 . S
C3281 C3282 1.349 . S
C3281 C3283 1.327 . S
C3281 H3304 0.950 . S
C3282 C3281 1.349 . S
C3282 C3294 1.349 . S
C3283 C3281 1.327 . S
C3283 C3299 1.429 . S
C3283 H3305 0.950 . S
C3284 H3280 0.949 . S
C3284 C3292 1.574 . S
C3284 C3300 1.368 . S
H3285 C3293 0.950 . S
H3286 C3291 0.950 . S
H3287 C3292 0.949 . S
H3288 C3294 0.950 . S
H3289 C3295 0.950 . S
H3290 C3296 0.949 . S
C3291 H3286 0.950 . S
C3291 C3293 1.327 1_556 S
C3291 C3297 1.429 . S
C3292 C3284 1.574 . S
C3292 H3287 0.949 . S
C3292 C3298 1.368 . S
C3293 C3277 1.349 . S
C3293 H3285 0.950 . S
C3293 C3291 1.327 1_554 S
C3294 C3282 1.349 . S
C3294 H3288 0.950 . S
C3294 C3295 1.327 . S
C3295 H3289 0.950 . S
C3295 C3294 1.327 . S
C3295 C3299 1.429 . S
C3296 C3279 1.574 . S
C3296 H3290 0.949 . S
C3296 C3300 1.368 . S
C3297 C3278 1.429 . S
C3297 C3291 1.429 . S
C3297 C3298 1.523 . S
C3298 C3279 1.368 . S
C3298 C3292 1.368 . S
C3298 C3297 1.523 . S
C3299 C3283 1.429 . S
C3299 C3295 1.429 . S
C3299 C3300 1.523 . S
C3300 C3284 1.368 . S
C3300 C3296 1.368 . S
C3300 C3299 1.523 . S
H3301 C3276 0.950 . S
H3302 C3278 0.950 . S
H3303 C3279 0.949 . S
H3304 C3281 0.950 . S
H3305 C3283 0.950 . S
C3306 C3307 1.349 . S
C3306 C3308 1.327 1_554 S
C3306 H3331 0.950 . S
C3307 C3306 1.349 . S
C3307 C3323 1.349 . S
C3308 C3306 1.327 1_556 S
C3308 C3327 1.429 . S
C3308 H3332 0.950 . S
C3309 C3326 1.574 . S
C3309 C3328 1.368 . S
C3309 H3333 0.949 . S
H3310 C3314 0.949 . S
C3311 C3312 1.349 . S
C3311 C3313 1.327 . S
C3311 H3334 0.950 . S
C3312 C3311 1.349 . S
C3312 C3324 1.349 . S
C3313 C3311 1.327 . S
C3313 C3329 1.429 . S
C3313 H3335 0.950 . S
C3314 H3310 0.949 . S
C3314 C3322 1.574 . S
C3314 C3330 1.368 . S
H3315 C3323 0.950 . S
H3316 C3321 0.950 . S
H3317 C3322 0.949 . S
H3318 C3324 0.950 . S
H3319 C3325 0.950 . S
H3320 C3326 0.949 . S
C3321 H3316 0.950 . S
C3321 C3323 1.327 1_556 S
C3321 C3327 1.429 . S
C3322 C3314 1.574 . S
C3322 H3317 0.949 . S
C3322 C3328 1.368 . S
C3323 C3307 1.349 . S
C3323 H3315 0.950 . S
C3323 C3321 1.327 1_554 S
C3324 C3312 1.349 . S
C3324 H3318 0.950 . S
C3324 C3325 1.327 . S
C3325 H3319 0.950 . S
C3325 C3324 1.327 . S
C3325 C3329 1.429 . S
C3326 C3309 1.574 . S
C3326 H3320 0.949 . S
C3326 C3330 1.368 . S
C3327 C3308 1.429 . S
C3327 C3321 1.429 . S
C3327 C3328 1.523 . S
C3328 C3309 1.368 . S
C3328 C3322 1.368 . S
C3328 C3327 1.523 . S
C3329 C3313 1.429 . S
C3329 C3325 1.429 . S
C3329 C3330 1.523 . S
C3330 C3314 1.368 . S
C3330 C3326 1.368 . S
C3330 C3329 1.523 . S
H3331 C3306 0.950 . S
H3332 C3308 0.950 . S
H3333 C3309 0.949 . S
H3334 C3311 0.950 . S
H3335 C3313 0.950 . S
C3336 C3337 1.349 . S
C3336 C3338 1.327 1_554 S
C3336 H3361 0.950 . S
C3337 C3336 1.349 . S
C3337 C3353 1.349 . S
C3338 C3336 1.327 1_556 S
C3338 C3357 1.429 . S
C3338 H3362 0.950 . S
C3339 C3356 1.574 . S
C3339 C3358 1.368 . S
C3339 H3363 0.949 . S
H3340 C3344 0.949 . S
C3341 C3342 1.349 . S
C3341 C3343 1.327 . S
C3341 H3364 0.950 . S
C3342 C3341 1.349 . S
C3342 C3354 1.349 . S
C3343 C3341 1.327 . S
C3343 C3359 1.429 . S
C3343 H3365 0.950 . S
C3344 H3340 0.949 . S
C3344 C3352 1.574 . S
C3344 C3360 1.368 . S
H3345 C3353 0.950 . S
H3346 C3351 0.950 . S
H3347 C3352 0.949 . S
H3348 C3354 0.950 . S
H3349 C3355 0.950 . S
H3350 C3356 0.949 . S
C3351 H3346 0.950 . S
C3351 C3353 1.327 1_556 S
C3351 C3357 1.429 . S
C3352 C3344 1.574 . S
C3352 H3347 0.949 . S
C3352 C3358 1.368 . S
C3353 C3337 1.349 . S
C3353 H3345 0.950 . S
C3353 C3351 1.327 1_554 S
C3354 C3342 1.349 . S
C3354 H3348 0.950 . S
C3354 C3355 1.327 . S
C3355 H3349 0.950 . S
C3355 C3354 1.327 . S
C3355 C3359 1.429 . S
C3356 C3339 1.574 . S
C3356 H3350 0.949 . S
C3356 C3360 1.368 . S
C3357 C3338 1.429 . S
C3357 C3351 1.429 . S
C3357 C3358 1.523 . S
C3358 C3339 1.368 . S
C3358 C3352 1.368 . S
C3358 C3357 1.523 . S
C3359 C3343 1.429 . S
C3359 C3355 1.429 . S
C3359 C3360 1.523 . S
C3360 C3344 1.368 . S
C3360 C3356 1.368 . S
C3360 C3359 1.523 . S
H3361 C3336 0.950 . S
H3362 C3338 0.950 . S
H3363 C3339 0.949 . S
H3364 C3341 0.950 . S
H3365 C3343 0.950 . S
C3366 C3367 1.349 . S
C3366 C3368 1.327 . S
C3366 H3391 0.950 . S
C3367 C3366 1.349 . S
C3367 C3383 1.349 . S
C3368 C3366 1.327 . S
C3368 C3387 1.429 . S
C3368 H3392 0.950 . S
C3369 C3386 1.574 . S
C3369 C3388 1.368 . S
C3369 H3393 0.949 . S
H3370 C3374 0.949 . S
C3371 C3372 1.349 . S
C3371 C3373 1.327 . S
C3371 H3394 0.950 . S
C3372 C3371 1.349 . S
C3372 C3384 1.349 . S
C3373 C3371 1.327 . S
C3373 C3389 1.429 . S
C3373 H3395 0.950 . S
C3374 H3370 0.949 . S
C3374 C3382 1.574 . S
C3374 C3390 1.368 . S
H3375 C3383 0.950 . S
H3376 C3381 0.950 . S
H3377 C3382 0.949 . S
H3378 C3384 0.950 . S
H3379 C3385 0.950 . S
H3380 C3386 0.949 . S
C3381 H3376 0.950 . S
C3381 C3383 1.327 . S
C3381 C3387 1.429 . S
C3382 C3374 1.574 . S
C3382 H3377 0.949 . S
C3382 C3388 1.368 . S
C3383 C3367 1.349 . S
C3383 H3375 0.950 . S
C3383 C3381 1.327 . S
C3384 C3372 1.349 . S
C3384 H3378 0.950 . S
C3384 C3385 1.327 . S
C3385 H3379 0.950 . S
C3385 C3384 1.327 . S
C3385 C3389 1.429 . S
C3386 C3369 1.574 . S
C3386 H3380 0.949 . S
C3386 C3390 1.368 . S
C3387 C3368 1.429 . S
C3387 C3381 1.429 . S
C3387 C3388 1.523 . S
C3388 C3369 1.368 . S
C3388 C3382 1.368 . S
C3388 C3387 1.523 . S
C3389 C3373 1.429 . S
C3389 C3385 1.429 . S
C3389 C3390 1.523 . S
C3390 C3374 1.368 . S
C3390 C3386 1.368 . S
C3390 C3389 1.523 . S
H3391 C3366 0.950 . S
H3392 C3368 0.950 . S
H3393 C3369 0.949 . S
H3394 C3371 0.950 . S
H3395 C3373 0.950 . S
C3396 C3397 1.349 . S
C3396 C3398 1.327 . S
C3396 H3421 0.950 . S
C3397 C3396 1.349 . S
C3397 C3413 1.349 . S
C3398 C3396 1.327 . S
C3398 C3417 1.429 . S
C3398 H3422 0.950 . S
C3399 C3416 1.574 . S
C3399 C3418 1.368 . S
C3399 H3423 0.949 . S
H3400 C3404 0.949 . S
C3401 C3402 1.349 . S
C3401 C3403 1.327 . S
C3401 H3424 0.950 . S
C3402 C3401 1.349 . S
C3402 C3414 1.349 . S
C3403 C3401 1.327 . S
C3403 C3419 1.429 . S
C3403 H3425 0.950 . S
C3404 H3400 0.949 . S
C3404 C3412 1.574 . S
C3404 C3420 1.368 . S
H3405 C3413 0.950 . S
H3406 C3411 0.950 . S
H3407 C3412 0.949 . S
H3408 C3414 0.950 . S
H3409 C3415 0.950 . S
H3410 C3416 0.949 . S
C3411 H3406 0.950 . S
C3411 C3413 1.327 . S
C3411 C3417 1.429 . S
C3412 C3404 1.574 . S
C3412 H3407 0.949 . S
C3412 C3418 1.368 . S
C3413 C3397 1.349 . S
C3413 H3405 0.950 . S
C3413 C3411 1.327 . S
C3414 C3402 1.349 . S
C3414 H3408 0.950 . S
C3414 C3415 1.327 . S
C3415 H3409 0.950 . S
C3415 C3414 1.327 . S
C3415 C3419 1.429 . S
C3416 C3399 1.574 . S
C3416 H3410 0.949 . S
C3416 C3420 1.368 . S
C3417 C3398 1.429 . S
C3417 C3411 1.429 . S
C3417 C3418 1.523 . S
C3418 C3399 1.368 . S
C3418 C3412 1.368 . S
C3418 C3417 1.523 . S
C3419 C3403 1.429 . S
C3419 C3415 1.429 . S
C3419 C3420 1.523 . S
C3420 C3404 1.368 . S
C3420 C3416 1.368 . S
C3420 C3419 1.523 . S
H3421 C3396 0.950 . S
H3422 C3398 0.950 . S
H3423 C3399 0.949 . S
H3424 C3401 0.950 . S
H3425 C3403 0.950 . S
C3426 C3427 1.349 . S
C3426 C3428 1.327 . S
C3426 H3451 0.950 . S
C3427 C3426 1.349 . S
C3427 C3443 1.349 . S
C3428 C3426 1.327 . S
C3428 C3447 1.429 . S
C3428 H3452 0.950 . S
C3429 C3446 1.574 . S
C3429 C3448 1.368 . S
C3429 H3453 0.949 . S
H3430 C3434 0.949 . S
C3431 C3432 1.349 . S
C3431 C3433 1.327 . S
C3431 H3454 0.950 . S
C3432 C3431 1.349 . S
C3432 C3444 1.349 . S
C3433 C3431 1.327 . S
C3433 C3449 1.429 . S
C3433 H3455 0.950 . S
C3434 H3430 0.949 . S
C3434 C3442 1.574 . S
C3434 C3450 1.368 . S
H3435 C3443 0.950 . S
H3436 C3441 0.950 . S
H3437 C3442 0.949 . S
H3438 C3444 0.950 . S
H3439 C3445 0.950 . S
H3440 C3446 0.949 . S
C3441 H3436 0.950 . S
C3441 C3443 1.327 . S
C3441 C3447 1.429 . S
C3442 C3434 1.574 . S
C3442 H3437 0.949 . S
C3442 C3448 1.368 . S
C3443 C3427 1.349 . S
C3443 H3435 0.950 . S
C3443 C3441 1.327 . S
C3444 C3432 1.349 . S
C3444 H3438 0.950 . S
C3444 C3445 1.327 . S
C3445 H3439 0.950 . S
C3445 C3444 1.327 . S
C3445 C3449 1.429 . S
C3446 C3429 1.574 . S
C3446 H3440 0.949 . S
C3446 C3450 1.368 . S
C3447 C3428 1.429 . S
C3447 C3441 1.429 . S
C3447 C3448 1.523 . S
C3448 C3429 1.368 . S
C3448 C3442 1.368 . S
C3448 C3447 1.523 . S
C3449 C3433 1.429 . S
C3449 C3445 1.429 . S
C3449 C3450 1.523 . S
C3450 C3434 1.368 . S
C3450 C3446 1.368 . S
C3450 C3449 1.523 . S
H3451 C3426 0.950 . S
H3452 C3428 0.950 . S
H3453 C3429 0.949 . S
H3454 C3431 0.950 . S
H3455 C3433 0.950 . S
C1297 C580 1.051 . S
C1302 C4 1.051 1_556 S
C1327 C616 1.051 . S
C1332 C40 1.051 1_556 S
C1357 C76 1.051 1_556 S
C1362 C544 1.051 . S
C1387 C940 1.051 . S
C1392 C112 1.051 . S
C1417 C868 1.051 . S
C1422 C148 1.051 . S
C1447 C184 1.051 . S
C1452 C904 1.051 . S
C1477 C1228 1.051 . S
C1482 C220 1.051 1_554 S
C1507 C1264 1.051 . S
C1512 C256 1.051 1_554 S
C1537 C1192 1.051 . S
C1542 C292 1.051 1_554 S
C1567 C724 1.051 . S
C1572 C328 1.051 . S
C1597 C364 1.051 . S
C1602 C652 1.051 . S
C1627 C688 1.051 . S
C1632 C400 1.051 . S
C1657 C1012 1.051 . S
C1662 C436 1.051 . S
C1687 C472 1.050 . S
C1692 C1048 1.050 . S
C1717 C976 1.051 . S
C1722 C508 1.051 . S
C1747 C1156 1.051 . S
C1752 C760 1.051 . S
C1777 C1084 1.051 . S
C1782 C796 1.051 . S
C1807 C832 1.050 . S
C1812 C1120 1.050 . S
C1837 C254 1.474 . S
C1842 C14 1.400 . S
C1867 C290 1.474 . S
C1872 C50 1.400 . S
C1897 C218 1.474 . S
C1902 C86 1.400 . S
C1927 C122 1.400 . S
C1932 C398 1.474 . S
C1957 C326 1.474 . S
C1962 C158 1.400 . S
C1987 C194 1.400 . S
C1992 C362 1.474 . S
C2017 C38 1.474 . S
C2022 C230 1.400 . S
C2047 C266 1.400 . S
C2052 C74 1.474 . S
C2077 C2 1.474 . S
C2082 C302 1.400 . S
C2107 C182 1.474 . S
C2112 C338 1.400 . S
C2137 C110 1.474 . S
C2142 C374 1.400 . S
C2167 C410 1.400 . S
C2172 C146 1.474 . S
C2197 C446 1.400 . S
C2202 C686 1.474 . S
C2227 C722 1.474 . S
C2232 C482 1.400 . S
C2257 C650 1.474 . S
C2262 C518 1.400 . S
C2287 C554 1.400 . S
C2292 C830 1.474 . S
C2317 C758 1.474 . S
C2322 C590 1.400 . S
C2347 C626 1.400 . S
C2352 C794 1.474 . S
C2377 C662 1.400 . S
C2382 C470 1.474 . S
C2407 C698 1.400 . S
C2412 C506 1.474 . S
C2437 C434 1.474 . S
C2442 C734 1.400 . S
C2467 C614 1.473 . S
C2472 C770 1.400 . S
C2497 C542 1.474 . S
C2502 C806 1.400 . S
C2527 C842 1.400 . S
C2532 C578 1.474 . S
C2557 C1118 1.474 . S
C2562 C878 1.400 . S
C2587 C914 1.400 . S
C2592 C1154 1.474 . S
C2617 C950 1.400 . S
C2622 C1082 1.474 . S
C2647 C1262 1.473 . S
C2652 C986 1.400 . S
C2677 C1022 1.400 . S
C2682 C1190 1.474 . S
C2707 C1226 1.474 . S
C2712 C1058 1.400 . S
C2737 C902 1.474 . S
C2742 C1094 1.400 . S
C2767 C938 1.474 . S
C2772 C1130 1.400 . S
C2797 C1166 1.400 . S
C2802 C866 1.474 . S
C2827 C1202 1.400 . S
C2832 C1046 1.474 . S
C2857 C974 1.474 . S
C2862 C1238 1.400 . S
C2887 C1010 1.474 . S
C2892 C1274 1.400 . S
C2917 C3 1.512 . S
C2922 C111 1.512 . S
C2947 C39 1.512 . S
C2952 C147 1.512 . S
C2977 C183 1.512 . S
C2982 C75 1.512 . S
C3007 C219 1.512 . S
C3012 C327 1.512 . S
C3037 C363 1.512 . S
C3042 C255 1.512 . S
C3067 C399 1.512 . S
C3072 C291 1.512 . S
C3097 C435 1.512 . S
C3102 C543 1.512 . S
C3127 C471 1.512 . S
C3132 C579 1.512 . S
C3157 C615 1.512 . S
C3162 C507 1.512 . S
C3187 C651 1.512 . S
C3192 C759 1.512 . S
C3217 C687 1.512 . S
C3222 C795 1.512 . S
C3247 C723 1.512 . S
C3252 C831 1.512 . S
C3277 C975 1.512 . S
C3282 C867 1.512 . S
C3307 C1011 1.512 . S
C3312 C903 1.512 . S
C3337 C1047 1.512 . S
C3342 C939 1.512 . S
C3367 C1083 1.512 . S
C3372 C1191 1.512 . S
C3397 C1227 1.512 . S
C3402 C1119 1.512 . S
C3427 C1263 1.512 . S
C3432 C1155 1.512 . S
