# Generated by pormake.
# Topology sxb, (6)-cn, num edge types: 1
# Building blocks:
#     Node 0, Type 0, BuildingBlock: KUMJIN_clean_sbu_1, # of connection points: 6
#     Node 1, Type 0, BuildingBlock: KUMJIN_clean_sbu_1, # of connection points: 6
#     Node 2, Type 0, BuildingBlock: KUMJIN_clean_sbu_1, # of connection points: 6
#     Node 3, Type 0, BuildingBlock: KUMJIN_clean_sbu_1, # of connection points: 6
#     Edge 4, Type (0, 0), BuildingBlock: TEMPAE_clean_linker_10, # of connection points: 2
#     Edge 5, Type (0, 0), BuildingBlock: TEMPAE_clean_linker_10, # of connection points: 2
#     Edge 6, Type (0, 0), BuildingBlock: TEMPAE_clean_linker_10, # of connection points: 2
#     Edge 7, Type (0, 0), BuildingBlock: TEMPAE_clean_linker_10, # of connection points: 2
#     Edge 8, Type (0, 0), BuildingBlock: TEMPAE_clean_linker_10, # of connection points: 2
#     Edge 9, Type (0, 0), BuildingBlock: TEMPAE_clean_linker_10, # of connection points: 2
#     Edge 10, Type (0, 0), BuildingBlock: TEMPAE_clean_linker_10, # of connection points: 2
#     Edge 11, Type (0, 0), BuildingBlock: TEMPAE_clean_linker_10, # of connection points: 2
#     Edge 12, Type (0, 0), BuildingBlock: TEMPAE_clean_linker_10, # of connection points: 2
#     Edge 13, Type (0, 0), BuildingBlock: TEMPAE_clean_linker_10, # of connection points: 2
#     Edge 14, Type (0, 0), BuildingBlock: TEMPAE_clean_linker_10, # of connection points: 2
#     Edge 15, Type (0, 0), BuildingBlock: TEMPAE_clean_linker_10, # of connection points: 2
# Relax obj value: 0.014
# Max RMSD: 0.057
# Mean RMSD: 0.057
data_MOF--net-sxb--node1-KUMJIN_clean_sbu_1--edge1-TEMPAE_clean_linker_10
_symmetry_space_group_name_H-M    P1
_symmetry_Int_Tables_number       1
_symmetry_cell_setting            triclinic
loop_
_symmetry_equiv_pos_as_xyz
'x, y, z'
_cell_length_a     15.208397
_cell_length_b     47.789762
_cell_length_c     30.228514
_cell_angle_alpha  115.08582
_cell_angle_beta   89.877087
_cell_angle_gamma 89.899415
loop_
_atom_site_label
_atom_site_type_symbol
_atom_site_fract_x
_atom_site_fract_y
_atom_site_fract_z
_atom_type_partial_charge
Eu0 Eu 1.02719 0.9612 0.96578 0.0
C1 C 0.18146 0.0898 0.09996 0.0
N2 N 0.10143 0.07812 0.10299 0.0
C3 C 0.11983 0.09531 0.18939 0.0
C4 C 0.23543 0.10369 0.14148 0.0
C5 C 0.06791 0.0826 0.14743 0.0
C6 C 0.20476 0.10537 0.18624 0.0
C7 C 0.28346 0.10554 0.053 0.0
C8 C 0.20581 0.09048 0.05626 0.0
C9 C 0.33976 0.11788 0.09345 0.0
C10 C 0.31601 0.11682 0.13755 0.0
Eu11 Eu 1.02065 0.05517 0.02924 0.0
N12 N 0.15029 0.07816 0.01769 0.0
C13 C 0.30051 0.10862 0.0097 0.0
C14 C 0.16429 0.08224 0.97619 0.0
C15 C 0.24009 0.09724 0.97134 0.0
H16 H 1.00036 0.07709 0.15087 0.0
H17 H 0.2519 0.09999 0.93809 0.0
H18 H 0.9893 0.94585 0.84879 0.0
H19 H 0.83103 0.93447 0.09509 0.0
H20 H 0.11701 0.07365 0.94685 0.0
H21 H 0.35922 0.12021 0.00586 0.0
H22 H 0.96259 0.9514 0.06605 0.0
H23 H 0.09356 0.098 0.22429 0.0
H24 H 0.40051 0.12911 0.09145 0.0
H25 H 0.35872 0.12732 0.16894 0.0
H26 H 0.8734 0.92185 0.78713 0.0
H27 H 0.24426 0.11579 0.21898 0.0
H28 H 0.70436 0.91318 0.0398 0.0
N29 N 0.91981 0.93971 0.90508 0.0
C30 C 0.84831 0.92752 0.91753 0.0
C31 C 0.8653 0.92349 0.82374 0.0
C32 C 0.7806 0.91363 0.8835 0.0
C33 C 0.93041 0.93732 0.85881 0.0
C34 C 0.78985 0.91174 0.83618 0.0
N35 N 0.90777 0.94364 -0.00273 0.0
C36 C 0.90623 0.94404 0.04263 0.0
C37 C 0.76579 0.91899 0.97955 0.0
C38 C 0.84121 0.93018 0.96515 0.0
C39 C 0.76132 0.92141 0.02729 0.0
C40 C 0.8324 0.93359 0.05872 0.0
H41 H 0.73918 0.90126 0.80903 0.0
H42 H 0.6522 0.8922 0.87248 0.0
H43 H 0.63912 0.89696 0.95647 0.0
O44 O 0.05806 0.91671 0.96711 0.0
O45 O 0.90349 0.9876 0.96201 0.0
O46 O 0.90001 0.02953 0.03603 0.0
O47 O 0.11101 0.9277 0.90889 0.0
O48 O 0.06119 0.98516 0.04605 0.0
O49 O 0.9807 0.03057 0.07638 0.0
O50 O 0.94909 0.08184 -0.00323 0.0
O51 O 0.15087 0.031 -0.00343 0.0
O52 O 0.14743 0.98665 0.00834 0.0
O53 O 0.96112 0.09975 0.0748 0.0
O54 O 0.99314 0.02851 0.94835 0.0
O55 O 0.07812 0.98425 0.91896 0.0
C56 C 0.85918 1.00796 -0.0008 0.0
C57 C 0.15033 0.87732 0.90594 0.0
C58 C 0.19913 0.82973 0.91019 0.0
C59 C 0.24313 0.82119 0.86544 0.0
C60 C 0.19436 0.8681 0.86105 0.0
C61 C 0.24014 0.84016 0.84094 0.0
C62 C 0.15175 0.85773 0.93018 0.0
C63 C 1.02234 1.00818 0.08224 0.0
C64 C 0.10571 0.90769 0.92765 0.0
C65 C 0.7053 0.90268 0.89798 0.0
C66 C 0.69773 0.9055 0.94589 0.0
C67 C 0.19141 0.00828 0.00193 0.0
C68 C 0.9665 0.13587 0.04079 0.0
C69 C 0.9425 0.18106 0.02437 0.0
C70 C 1.02479 0.19259 0.04483 0.0
C71 C 0.04771 0.14832 0.06217 0.0
C72 C 0.91331 0.15254 0.02216 0.0
C73 C 0.07689 0.17632 0.06374 0.0
C74 C 0.04482 0.0085 0.91478 0.0
C75 C 0.93785 0.10573 0.03834 0.0
H76 H 0.27951 0.79966 0.84929 0.0
H77 H 0.19395 0.88258 0.84152 0.0
H78 H 0.274 0.83329 0.80637 0.0
H79 H 0.11832 0.86452 0.96492 0.0
H80 H 0.04801 0.21454 0.04689 0.0
H81 H 0.08841 0.13662 0.07824 0.0
H82 H 0.85001 0.14346 0.00613 0.0
H83 H 0.13975 0.18557 0.08009 0.0
Eu84 Eu 0.04648 0.05765 0.52682 0.0
C85 C 0.21577 0.93019 0.41232 0.0
N86 N 0.13569 0.94032 0.40524 0.0
C87 C 0.16405 0.91998 0.31909 0.0
C88 C 0.27485 0.91578 0.37307 0.0
C89 C 0.1071 0.93343 0.35898 0.0
C90 C 0.24904 0.91169 0.3263 0.0
C91 C 0.31473 0.9191 0.46589 0.0
C92 C 0.23608 0.932 0.45822 0.0
C93 C 0.37565 0.90619 0.42752 0.0
C94 C 0.35597 0.90469 0.38129 0.0
Eu95 Eu 0.04747 0.96463 0.47625 0.0
N96 N 0.17725 0.94543 0.4951 0.0
C97 C 0.32879 0.91899 0.51163 0.0
C98 C 0.18834 0.94423 0.53904 0.0
C99 C 0.26478 0.93128 0.54819 0.0
H100 H 0.03979 0.93753 0.35237 0.0
H101 H 0.27438 0.93086 0.58336 0.0
H102 H 1.01167 0.08088 0.64679 0.0
H103 H 0.84644 0.07436 0.38938 0.0
H104 H 0.13834 0.95358 0.56701 0.0
H105 H 0.38819 0.90912 0.51887 0.0
H106 H 0.97916 0.06023 0.4214 0.0
H107 H 0.14165 0.91538 0.28269 0.0
H108 H 0.43726 0.89667 0.43293 0.0
H109 H 0.40257 0.89388 0.35169 0.0
H110 H 0.89721 0.10831 0.70782 0.0
H111 H 0.29255 0.90078 0.29521 0.0
H112 H 0.7209 0.09876 0.44461 0.0
N113 N 0.94021 0.08231 0.58741 0.0
C114 C 0.86831 0.09322 0.57298 0.0
C115 C 0.88794 0.10399 0.66997 0.0
C116 C 0.80162 0.10925 0.60676 0.0
C117 C 0.95216 0.08808 0.63519 0.0
C118 C 0.81212 0.11448 0.65568 0.0
N119 N 0.92577 0.07217 0.49203 0.0
C120 C 0.9231 0.06872 0.44492 0.0
C121 C 0.78406 0.09728 0.50773 0.0
C122 C 0.85992 0.08736 0.52387 0.0
C123 C 0.77826 0.09162 0.45845 0.0
C124 C 0.84866 0.07766 0.42708 0.0
H125 H 0.76225 0.12666 0.6827 0.0
H126 H 0.67388 0.13116 0.61597 0.0
H127 H 0.65815 0.12047 0.52936 0.0
O128 O 0.07019 0.10071 0.5199 0.0
O129 O 0.92252 0.03211 0.53271 0.0
O130 O 0.92259 0.98626 0.46381 0.0
O131 O 0.12941 0.09367 0.5793 0.0
O132 O 0.08166 0.02981 0.44713 0.0
O133 O 1.00461 0.984 0.42261 0.0
O134 O 0.97286 0.94104 0.51222 0.0
O135 O 0.17195 0.99184 0.50993 0.0
O136 O 0.16908 0.03172 0.48715 0.0
O137 O 1.01133 0.91615 0.43673 0.0
O138 O 1.01223 0.99449 0.55514 0.0
O139 O 0.09408 0.03918 0.58058 0.0
C140 C 0.8802 0.0096 0.49754 0.0
C141 C 0.20925 0.12294 0.54586 0.0
C142 C 0.28834 0.15947 0.52321 0.0
C143 C 0.36701 0.14363 0.52181 0.0
C144 C 0.28875 0.10754 0.54429 0.0
C145 C 0.3671 0.118 0.53261 0.0
C146 C 0.20946 0.14912 0.53568 0.0
C147 C 0.04322 1.00557 0.41322 0.0
C148 C 0.12549 0.11123 0.556 0.0
C149 C 0.72611 0.11904 0.59061 0.0
C150 C 0.71704 0.11286 0.54122 0.0
C151 C 0.21297 0.01166 0.49764 0.0
C152 C 0.88845 0.89752 0.46342 0.0
C153 C 0.80615 0.85326 0.46181 0.0
C154 C 0.7348 0.86216 0.4409 0.0
C155 C 0.81672 0.90615 0.443 0.0
C156 C 0.88283 0.87139 0.4732 0.0
C157 C 0.74003 0.88853 0.43194 0.0
C158 C 0.05897 0.01646 0.58841 0.0
C159 C 0.97092 0.9148 0.4737 0.0
H160 H 0.42867 0.15126 0.5127 0.0
H161 H 0.29035 0.08734 0.55185 0.0
H162 H 0.42815 0.10612 0.53175 0.0
H163 H 0.14816 0.16091 0.53628 0.0
H164 H 0.67527 0.84854 0.43072 0.0
H165 H 0.82051 0.92624 0.43527 0.0
H166 H 0.93838 0.86536 0.48988 0.0
H167 H 0.68477 0.89511 0.41588 0.0
Eu168 Eu 0.51736 0.46283 0.96507 0.0
C169 C 0.66495 0.59357 0.10009 0.0
N170 N 0.58426 0.58158 0.10076 0.0
C171 C 0.59139 0.60077 0.18802 0.0
C172 C 0.71354 0.60869 0.14346 0.0
C173 C 0.54487 0.58679 0.14424 0.0
C174 C 0.67683 0.61126 0.18754 0.0
C175 C 0.77393 0.6086 0.05552 0.0
C176 C 0.69549 0.59327 0.05663 0.0
C177 C 0.82495 0.62215 0.098 0.0
C178 C 0.79503 0.62205 0.14184 0.0
Eu179 Eu 0.51437 0.55633 0.02387 0.0
N180 N 0.64541 0.57971 0.01601 0.0
C181 C 0.79677 0.61092 0.01225 0.0
C182 C 0.66435 0.58331 0.97457 0.0
C183 C 0.74091 0.59867 0.97184 0.0
H184 H 0.47702 0.58062 0.1455 0.0
H185 H 0.75696 0.60093 0.93861 0.0
H186 H 0.48546 0.44506 0.84655 0.0
H187 H 0.30927 0.44175 0.09593 0.0
H188 H 0.62075 0.57384 0.94355 0.0
H189 H 0.85622 0.62272 0.01004 0.0
H190 H 0.44445 0.45684 0.06718 0.0
H191 H 0.56063 0.60401 0.2222 0.0
H192 H 0.88621 0.63361 0.09771 0.0
H193 H 0.83366 0.63349 0.1747 0.0
H194 H 0.37166 0.42059 0.78399 0.0
H195 H 0.71213 0.62263 0.22163 0.0
H196 H 0.18503 0.41966 0.03909 0.0
N197 N 0.41182 0.44109 0.90339 0.0
C198 C 0.3387 0.42966 0.91582 0.0
C199 C 0.36125 0.42323 0.821 0.0
C200 C 0.27216 0.41537 0.88118 0.0
C201 C 0.42514 0.43744 0.85664 0.0
C202 C 0.28419 0.4123 0.83336 0.0
N203 N 0.39409 0.44731 -0.00324 0.0
C204 C 0.38921 0.44915 0.04295 0.0
C205 C 0.2514 0.42322 0.97825 0.0
C206 C 0.32873 0.43347 0.96396 0.0
C207 C 0.24361 0.42708 0.02664 0.0
C208 C 0.3133 0.43974 0.05894 0.0
H209 H 0.23453 0.40148 0.80572 0.0
H210 H 0.14312 0.39438 0.86945 0.0
H211 H 0.12473 0.40137 0.95432 0.0
O212 O 0.54295 0.41928 0.97038 0.0
O213 O 0.39485 0.48985 0.96112 0.0
O214 O 0.39158 0.53301 0.03379 0.0
O215 O 0.59424 0.42631 0.90917 0.0
O216 O 0.55173 0.48784 0.04531 0.0
O217 O 0.47151 0.5332 0.07265 0.0
O218 O 0.44192 0.57815 0.98453 0.0
O219 O 0.64428 0.53178 0.99286 0.0
O220 O 0.64007 0.48771 0.00566 0.0
O221 O 0.46653 0.6038 0.06158 0.0
O222 O 0.48931 0.52785 0.94324 0.0
O223 O 0.57262 0.48346 0.91568 0.0
C224 C 0.35076 0.51063 -0.00198 0.0
C225 C 0.67944 0.39598 0.93824 0.0
C226 C 0.7638 0.35813 0.95562 0.0
C227 C 0.84182 0.372 0.94959 0.0
C228 C 0.75834 0.40964 0.93331 0.0
C229 C 0.83888 0.39754 0.93868 0.0
C230 C 0.68243 0.37022 0.94947 0.0
C231 C 0.51324 0.51155 0.08049 0.0
C232 C 0.59398 0.40856 0.93216 0.0
C233 C 0.19526 0.40518 0.89547 0.0
C234 C 0.18469 0.40926 0.94388 0.0
C235 C 0.6842 0.50949 -0.00035 0.0
C236 C 0.34566 0.61938 0.02833 0.0
C237 C 0.25723 0.65992 0.02163 0.0
C238 C 0.18538 0.65093 0.0418 0.0
C239 C 0.27322 0.61028 0.04777 0.0
C240 C 0.33717 0.64389 0.01465 0.0
C241 C 0.19324 0.62602 0.05434 0.0
C242 C 0.54127 0.50759 0.91039 0.0
C243 C 0.4313 0.60421 0.0227 0.0
H244 H 0.90555 0.36289 0.95279 0.0
H245 H 0.75796 0.42963 0.92515 0.0
H246 H 0.89938 0.40796 0.93419 0.0
H247 H 0.62157 0.35996 0.95408 0.0
H248 H 0.12314 0.66304 0.04742 0.0
H249 H 0.27882 0.59125 0.05814 0.0
H250 H 0.39319 0.6509 -0.00052 0.0
H251 H 0.13736 0.61902 0.06946 0.0
Eu252 Eu 0.52907 0.55264 0.51929 0.0
C253 C 0.70899 0.42389 0.43036 0.0
N254 N 0.64258 0.43543 0.41297 0.0
C255 C 0.7095 0.41514 0.33373 0.0
C256 C 0.78041 0.4083 0.4001 0.0
C257 C 0.64046 0.43069 0.36521 0.0
C258 C 0.78 0.40401 0.35128 0.0
C259 C 0.77549 0.41734 0.49826 0.0
C260 C 0.70625 0.42833 0.47889 0.0
C261 C 0.84804 0.4026 0.46862 0.0
C262 C 0.85024 0.39793 0.41963 0.0
Eu263 Eu 0.52663 0.45944 0.46741 0.0
N264 N 0.63487 0.44249 0.50667 0.0
C265 C 0.7688 0.42084 0.54652 0.0
C266 C 0.62477 0.44342 0.55211 0.0
C267 C 0.6924 0.43348 0.57329 0.0
H268 H 0.58535 0.43877 0.35133 0.0
H269 H 0.6847 0.43495 0.60982 0.0
H270 H 0.55322 0.57836 0.64247 0.0
H271 H 0.28619 0.59121 0.42575 0.0
H272 H 0.56359 0.45076 0.57153 0.0
H273 H 0.82072 0.41281 0.5628 0.0
H274 H 0.42626 0.56762 0.43531 0.0
H275 H 0.7082 0.41166 0.29595 0.0
H276 H 0.90213 0.39425 0.48303 0.0
H277 H 0.90625 0.38625 0.39713 0.0
H278 H 0.45954 0.59913 0.71586 0.0
H279 H 0.8337 0.39215 0.32687 0.0
H280 H 0.17807 0.61026 0.49362 0.0
N281 N 0.44951 0.57618 0.59379 0.0
C282 C 0.36711 0.5861 0.59025 0.0
C283 C 0.43214 0.59509 0.68064 0.0
C284 C 0.31242 0.59967 0.63175 0.0
C285 C 0.48453 0.58255 0.63865 0.0
C286 C 0.34502 0.6031 0.67704 0.0
N287 N 0.39551 0.573 0.50701 0.0
C288 C 0.37903 0.57607 0.4649 0.0
C289 C 0.2593 0.59837 0.54196 0.0
C290 C 0.34023 0.58523 0.54587 0.0
C291 C 0.23936 0.60013 0.49795 0.0
C292 C 0.30023 0.58942 0.45953 0.0
H293 H 0.30501 0.61333 0.70976 0.0
H294 H 0.18548 0.62086 0.65854 0.0
H295 H 0.1392 0.61989 0.57992 0.0
O296 O 0.59412 0.57649 0.48077 0.0
O297 O 0.40389 0.52583 0.48517 0.0
O298 O 0.40682 0.4863 0.50857 0.0
O299 O 0.57244 0.60049 0.55841 0.0
O300 O 0.5658 0.52304 0.44072 0.0
O301 O 0.48358 0.47853 0.41331 0.0
O302 O 0.49016 0.41566 0.47019 0.0
O303 O 0.65275 0.48398 0.4612 0.0
O304 O 0.65483 0.53045 0.52938 0.0
O305 O 0.4437 0.42625 0.41045 0.0
O306 O 0.49176 0.48794 0.5472 0.0
O307 O 0.57635 0.53185 0.57027 0.0
C308 C 0.36276 0.50569 0.49669 0.0
C309 C 0.68815 0.618 0.52447 0.0
C310 C 0.77021 0.66057 0.52061 0.0
C311 C 0.84614 0.65022 0.53557 0.0
C312 C 0.76448 0.6076 0.53876 0.0
C313 C 0.84333 0.62368 0.54415 0.0
C314 C 0.6914 0.6442 0.51477 0.0
C315 C 0.51797 0.5019 0.40697 0.0
C316 C 0.60414 0.60215 0.51961 0.0
C317 C 0.22881 0.61072 0.62719 0.0
C318 C 0.20248 0.61022 0.58244 0.0
C319 C 0.69594 0.50664 0.49574 0.0
C320 C 0.39967 0.37652 0.40771 0.0
C321 C 0.34464 0.32931 0.41131 0.0
C322 C 0.31761 0.31878 0.36235 0.0
C323 C 0.37046 0.36553 0.35927 0.0
C324 C 0.38683 0.35828 0.43371 0.0
C325 C 0.33005 0.33681 0.3368 0.0
C326 C 0.53658 0.51074 0.5802 0.0
C327 C 0.44573 0.4065 0.42978 0.0
H328 H 0.90761 0.66256 0.54023 0.0
H329 H 0.7628 0.58726 0.54593 0.0
H330 H 0.90225 0.61567 0.55526 0.0
H331 H 0.63227 0.65221 0.50364 0.0
H332 H 0.28762 0.29629 0.34333 0.0
H333 H 0.38004 0.37893 0.33838 0.0
H334 H 0.40854 0.36676 0.47127 0.0
H335 H 0.3088 0.32837 0.29921 0.0
C336 C 0.25433 0.68151 0.95956 0.0
C337 C 0.249 0.68627 0.00847 0.0
C338 C 0.24356 0.70623 0.94649 0.0
C339 C 0.22962 0.73649 0.98343 0.0
C340 C 0.22621 0.7414 0.03303 0.0
C341 C 0.2349 0.71611 0.0449 0.0
C342 C 0.24624 0.69993 0.89314 0.0
C343 C 0.21395 0.77334 0.07354 0.0
C344 C 0.28763 0.80087 0.94647 0.0
C345 C 0.20491 0.80916 0.93545 0.0
C346 C 0.29625 0.77817 0.9641 0.0
C347 C 0.22033 0.76299 0.97002 0.0
C348 C 0.13619 0.77207 0.96059 0.0
C349 C 0.12941 0.79533 0.9438 0.0
C350 C 0.38696 0.76965 0.97462 0.0
C351 C 0.05383 0.75614 0.96584 0.0
H352 H 0.26526 0.65833 0.93152 0.0
H353 H 0.2317 0.71965 0.08275 0.0
H354 H 0.18443 0.7081 0.88299 0.0
H355 H 0.30108 0.71289 0.88634 0.0
H356 H 0.25487 0.67498 0.86888 0.0
H357 H 0.21447 0.77328 0.11026 0.0
H358 H 0.26705 0.78879 0.07195 0.0
H359 H 0.15067 0.78331 0.06882 0.0
H360 H 0.34591 0.81173 0.94018 0.0
H361 H 0.06552 0.80162 0.9349 0.0
H362 H 0.40353 0.74582 0.94791 0.0
H363 H 0.38881 0.76998 0.01153 0.0
H364 H 0.43827 0.78555 0.97246 0.0
H365 H 0.0552 0.73157 0.93887 0.0
H366 H 0.99322 0.7671 0.95995 0.0
H367 H 0.05067 0.7564 0.00267 0.0
C368 C 0.83312 0.33041 0.00078 0.0
C369 C 0.76901 0.33107 0.96793 0.0
C370 C 0.84737 0.30388 0.00858 0.0
C371 C 0.79493 0.27736 0.98371 0.0
C372 C 0.7264 0.27841 0.95279 0.0
C373 C 0.71446 0.30522 0.94503 0.0
C374 C 0.92139 0.30384 0.04182 0.0
C375 C 0.66817 0.25079 0.9264 0.0
C376 C 0.91634 0.20416 0.966 0.0
C377 C 0.88842 0.19994 0.00685 0.0
C378 C 0.88113 0.22793 0.9558 0.0
C379 C 0.81717 0.24812 0.98766 0.0
C380 C 0.78434 0.24249 0.02705 0.0
C381 C 0.82057 0.21838 0.03623 0.0
C382 C 0.91804 0.23302 0.91339 0.0
C383 C 0.71615 0.26338 0.06178 0.0
H384 H 0.8739 0.35055 0.01971 0.0
H385 H 0.66471 0.30546 0.91958 0.0
H386 H 0.89642 0.29716 0.07048 0.0
H387 H 0.97171 0.2865 0.02043 0.0
H388 H 0.95377 0.32673 0.05987 0.0
H389 H 0.61152 0.25644 0.90849 0.0
H390 H 0.707 0.23205 0.89803 0.0
H391 H 0.64291 0.24167 0.95218 0.0
H392 H 0.96956 0.19 0.94371 0.0
H393 H 0.80015 0.2153 0.06827 0.0
H394 H 0.95888 0.25423 0.92748 0.0
H395 H 0.86424 0.23652 0.89152 0.0
H396 H 0.95947 0.21332 0.88899 0.0
H397 H 0.74699 0.28569 0.08579 0.0
H398 H 0.68725 0.25307 0.08524 0.0
H399 H 0.66257 0.26846 0.0414 0.0
C400 C 0.2528 0.21478 0.54209 0.0
C401 C 0.28957 0.18631 0.51059 0.0
C402 C 0.25931 0.24075 0.53164 0.0
C403 C 0.30214 0.23794 0.48825 0.0
C404 C 0.33763 0.20901 0.45591 0.0
C405 C 0.33135 0.18366 0.46763 0.0
C406 C 0.22152 0.27125 0.56726 0.0
C407 C 0.38221 0.20479 0.40877 0.0
C408 C 0.25164 0.29197 0.42904 0.0
C409 C 0.32921 0.30939 0.4376 0.0
C410 C 0.2406 0.26949 0.44687 0.0
C411 C 0.30768 0.26475 0.47532 0.0
C412 C 0.38338 0.28379 0.4873 0.0
C413 C 0.39361 0.30577 0.46802 0.0
C414 C 0.15921 0.24958 0.4328 0.0
C415 C 0.45557 0.27986 0.51841 0.0
H416 H 0.22097 0.2169 0.5755 0.0
H417 H 0.35894 0.16157 0.44298 0.0
H418 H 0.27419 0.28892 0.5802 0.0
H419 H 0.17143 0.2795 0.5489 0.0
H420 H 0.19066 0.26964 0.59944 0.0
H421 H 0.40545 0.1807 0.38739 0.0
H422 H 0.33607 0.21091 0.38584 0.0
H423 H 0.43941 0.22053 0.41668 0.0
H424 H 0.2002 0.29524 0.4069 0.0
H425 H 0.45376 0.31906 0.47501 0.0
H426 H 0.12732 0.24937 0.46567 0.0
H427 H 0.17786 0.2254 0.40861 0.0
H428 H 0.11051 0.2576 0.41333 0.0
H429 H 0.42752 0.27897 0.55171 0.0
H430 H 0.50445 0.29885 0.52955 0.0
H431 H 0.49024 0.25764 0.49766 0.0
C432 C 0.7214 0.8171 0.48672 0.0
C433 C 0.80079 0.82508 0.47127 0.0
C434 C 0.71438 0.79024 0.49446 0.0
C435 C 0.78898 0.77109 0.48756 0.0
C436 C 0.86978 0.77917 0.47282 0.0
C437 C 0.87458 0.8059 0.46448 0.0
C438 C 0.62697 0.78233 0.50998 0.0
C439 C 0.951 0.75944 0.46549 0.0
C440 C 0.79604 0.71706 0.55031 0.0
C441 C 0.7729 0.68883 0.51217 0.0
C442 C 0.80028 0.74411 0.54298 0.0
C443 C 0.78256 0.74269 0.49609 0.0
C444 C 0.75893 0.71414 0.4574 0.0
C445 C 0.75331 0.68755 0.4661 0.0
C446 C 0.82418 0.77417 0.58535 0.0
C447 C 0.74067 0.71163 0.40677 0.0
H448 H 0.6645 0.832 0.49315 0.0
H449 H 0.93601 0.81147 0.45189 0.0
H450 H 0.60513 0.75925 0.48303 0.0
H451 H 0.63379 0.78111 0.54564 0.0
H452 H 0.57504 0.7995 0.51334 0.0
H453 H 1.00934 0.76927 0.45503 0.0
H454 H 0.96633 0.75696 0.49953 0.0
H455 H 0.93897 0.7359 0.43655 0.0
H456 H 0.81016 0.71795 0.58603 0.0
H457 H 0.73546 0.6656 0.43667 0.0
H458 H 0.77177 0.7916 0.59139 0.0
H459 H 0.88563 0.78343 0.5769 0.0
H460 H 0.83377 0.77145 0.61974 0.0
H461 H 0.68611 0.7274 0.40807 0.0
H462 H 0.72305 0.68775 0.38072 0.0
H463 H 0.79947 0.7189 0.39255 0.0
C464 C 0.33764 0.02699 0.98646 0.0
C465 C 0.28954 1.00692 0.00024 0.0
C466 C 0.43 0.02714 0.98659 0.0
C467 C 0.47635 1.00581 -0.00091 0.0
C468 C 0.42852 0.98453 0.01109 0.0
C469 C 0.33584 0.98554 0.01203 0.0
C470 C 0.47771 0.05066 0.97434 0.0
C471 C 0.47537 0.96068 0.02291 0.0
C472 C 0.7148 0.99019 0.95613 0.0
C473 C 0.76128 1.00729 -0.00079 0.0
C474 C 0.62246 0.98876 0.95586 0.0
C475 C 0.57475 1.0058 -0.00058 0.0
C476 C 0.62114 0.02375 0.04284 0.0
C477 C 0.71369 0.02403 0.04233 0.0
C478 C 0.57588 0.96923 0.90878 0.0
C479 C 0.57293 0.04299 0.08973 0.0
H480 H 0.30317 0.04259 0.97521 0.0
H481 H 0.29975 0.96954 0.02205 0.0
H482 H 0.50581 0.0687 0.00828 0.0
H483 H 0.533 0.03988 0.94873 0.0
H484 H 0.43341 0.06205 0.95776 0.0
H485 H 0.4289 0.94503 0.02975 0.0
H486 H 0.51968 0.94656 0.9923 0.0
H487 H 0.51702 0.97229 0.05573 0.0
H488 H 0.75055 0.97822 0.92229 0.0
H489 H 0.74876 0.03751 0.07582 0.0
H490 H 0.5311 0.98383 0.8985 0.0
H491 H 0.53492 0.9516 0.91384 0.0
H492 H 0.62247 0.95726 0.87813 0.0
H493 H 0.52967 0.05998 0.08425 0.0
H494 H 0.61851 0.05568 0.12037 0.0
H495 H 0.53012 0.02802 0.10025 0.0
C496 C 0.35803 0.02815 0.47593 0.0
C497 C 0.31091 0.0122 0.49797 0.0
C498 C 0.4507 0.02826 0.47578 0.0
C499 C 0.49742 0.01124 0.49683 0.0
C500 C 0.45014 0.9952 0.51922 0.0
C501 C 0.35794 0.99652 0.52047 0.0
C502 C 0.49871 0.04672 0.45335 0.0
C503 C 0.49664 0.97609 0.5411 0.0
C504 C 0.73524 0.98887 0.45674 0.0
C505 C 0.78219 0.00964 0.49732 0.0
C506 C 0.64264 0.98874 0.45636 0.0
C507 C 0.59569 0.01079 0.49663 0.0
C508 C 0.64266 0.03182 0.53758 0.0
C509 C 0.73489 0.03039 0.5379 0.0
C510 C 0.59504 0.96475 0.4132 0.0
C511 C 0.59545 0.05589 0.58115 0.0
H512 H 0.32256 0.04065 0.45886 0.0
H513 H 0.32266 0.98529 0.53941 0.0
H514 H 0.54414 0.06331 0.48053 0.0
H515 H 0.5393 0.03111 0.42207 0.0
H516 H 0.45301 0.05976 0.44032 0.0
H517 H 0.4518 0.96906 0.5636 0.0
H518 H 0.52375 0.95492 0.51119 0.0
H519 H 0.55256 0.98888 0.56427 0.0
H520 H 0.77077 0.97255 0.42523 0.0
H521 H 0.76986 0.04542 0.57033 0.0
H522 H 0.55362 0.97618 0.39549 0.0
H523 H 0.55047 0.95118 0.42575 0.0
H524 H 0.64103 0.94857 0.38552 0.0
H525 H 0.55954 0.07197 0.56975 0.0
H526 H 0.64122 0.06947 0.61115 0.0
H527 H 0.54606 0.04486 0.59564 0.0
C528 C 0.82846 0.48776 0.01237 0.0
C529 C 0.78225 0.50857 -0.00075 0.0
C530 C 0.92112 0.48704 0.01206 0.0
C531 C 0.96879 0.50808 -0.00056 0.0
C532 C 0.92257 0.52903 0.98608 0.0
C533 C 0.83037 0.52856 0.98532 0.0
C534 C 0.96814 0.46372 0.02505 0.0
C535 C 0.97028 0.55236 0.97331 0.0
C536 C 0.20608 0.52692 0.04161 0.0
C537 C 0.25308 0.50988 -0.00157 0.0
C538 C 0.11365 0.52653 0.04253 0.0
C539 C 0.06697 0.50807 -0.00049 0.0
C540 C 0.11407 0.49075 0.95588 0.0
C541 C 0.20628 0.49237 0.95569 0.0
C542 C 0.0659 0.54626 0.08932 0.0
C543 C 0.06696 0.47079 0.9092 0.0
H544 H 0.79234 0.47195 0.02279 0.0
H545 H 0.79609 0.5438 0.9733 0.0
H546 H 1.01105 0.44889 0.99425 0.0
H547 H 1.01128 0.47573 0.05709 0.0
H548 H 0.92178 0.44873 0.03357 0.0
H549 H 0.92589 0.56373 0.95676 0.0
H550 H 0.99912 0.57044 0.00698 0.0
H551 H 1.02509 0.54137 0.94745 0.0
H552 H 0.24153 0.54073 0.07481 0.0
H553 H 0.24164 0.48021 0.92177 0.0
H554 H 1.02226 0.53169 0.10026 0.0
H555 H 1.02355 0.56333 0.08349 0.0
H556 H 0.1118 0.55893 0.11981 0.0
H557 H 1.02703 0.45316 0.91489 0.0
H558 H 0.11315 0.45881 0.87835 0.0
H559 H 1.02113 0.48507 0.89882 0.0
C560 C 0.2177 0.52054 0.47345 0.0
C561 C 0.26491 0.50464 0.4955 0.0
C562 C 0.12545 0.52147 0.47428 0.0
C563 C 0.07848 0.50481 0.49573 0.0
C564 C 0.12545 0.48749 0.51614 0.0
C565 C 0.21807 0.48792 0.51634 0.0
C566 C 0.07849 0.54081 0.45298 0.0
C567 C 0.07778 0.46844 0.53764 0.0
C568 C 0.84102 0.52696 0.53632 0.0
C569 C 0.79386 0.50633 0.49569 0.0
C570 C 0.93354 0.52703 0.5366 0.0
C571 C 0.98026 0.50518 0.49604 0.0
C572 C 0.9331 0.48426 0.45505 0.0
C573 C 0.84083 0.48566 0.45494 0.0
C574 C 0.98131 0.55073 0.58003 0.0
C575 C 0.98016 0.46038 0.41123 0.0
H576 H 0.25285 0.53224 0.45524 0.0
H577 H 0.2537 0.47517 0.53293 0.0
H578 H 1.02509 0.5275 0.42808 0.0
H579 H 0.04774 0.56108 0.483 0.0
H580 H 0.12375 0.54926 0.43246 0.0
H581 H 0.12372 0.45526 0.55027 0.0
H582 H 0.03679 0.48369 0.56906 0.0
H583 H 1.03278 0.45193 0.51006 0.0
H584 H 0.80568 0.54324 0.56796 0.0
H585 H 0.80556 0.47074 0.42254 0.0
H586 H 1.02524 0.56469 0.56793 0.0
H587 H 1.0234 0.53903 0.59702 0.0
H588 H 0.93542 0.56659 0.60819 0.0
H589 H 1.02829 0.47164 0.39644 0.0
H590 H 0.93417 0.44653 0.38156 0.0
H591 H 1.01752 0.44448 0.42243 0.0
C592 C 0.09589 0.02275 0.35071 0.0
C593 C 0.04028 1.00379 0.36318 0.0
C594 C 0.08974 0.02371 0.30523 0.0
C595 C 1.02887 1.00433 0.27056 0.0
C596 C 0.97418 0.98444 0.2822 0.0
C597 C 0.97937 0.98483 0.32882 0.0
C598 C 0.14762 0.0458 0.29456 0.0
C599 C 0.91025 0.96284 0.24545 0.0
C600 C 0.96287 0.02512 0.16725 0.0
C601 C 1.02281 1.00751 0.13069 0.0
C602 C 0.96416 0.02444 0.21319 0.0
C603 C 1.0241 1.00461 0.22181 0.0
C604 C 0.08248 0.98595 0.18447 0.0
C605 C 0.08223 0.98805 0.13973 0.0
C606 C 0.90247 0.04524 0.25272 0.0
C607 C 0.14559 0.96386 0.19185 0.0
H608 H 0.14319 0.03748 0.37702 0.0
H609 H 0.93507 0.97055 0.33845 0.0
H610 H 0.19196 0.03273 0.26339 0.0
H611 H 0.10655 0.06115 0.2839 0.0
H612 H 0.18841 0.06039 0.32645 0.0
H613 H 0.87557 0.94776 0.25941 0.0
H614 H 0.86056 0.97635 0.23585 0.0
H615 H 0.94548 0.94802 0.21127 0.0
H616 H 0.9149 0.03945 0.16005 0.0
H617 H 0.12846 0.97418 0.11159 0.0
H618 H 0.94079 0.06071 0.28504 0.0
H619 H 0.85892 0.03122 0.26481 0.0
H620 H 0.86094 0.0597 0.24035 0.0
H621 H 0.19422 0.97698 0.22038 0.0
H622 H 0.18172 0.94925 0.15782 0.0
H623 H 0.1095 0.94855 0.20475 0.0
C624 C 0.11895 0.993 0.83362 0.0
C625 C 0.05806 0.01169 0.86868 0.0
C626 C 0.12888 0.99519 0.78901 0.0
C627 C 0.07608 0.01633 0.77923 0.0
C628 C 1.0168 0.03595 0.81513 0.0
C629 C 1.00873 0.03345 0.85944 0.0
C630 C 0.19365 0.9742 0.75172 0.0
C631 C 0.95887 0.05864 0.80595 0.0
C632 C 0.12409 0.03625 0.67247 0.0
C633 C 0.06575 0.01651 0.63721 0.0
C634 C 0.12997 0.03602 0.71871 0.0
C635 C 0.07572 0.01577 0.7298 0.0
C636 C 1.01749 0.99564 0.69418 0.0
C637 C 1.01343 0.9962 0.64838 0.0
C638 C 0.19353 0.05752 0.75581 0.0
C639 C 0.95809 0.97384 0.70468 0.0
H640 H 0.15816 0.9764 0.84074 0.0
H641 H 0.9619 0.04814 0.88639 0.0
H642 H 0.15757 0.95707 0.71994 0.0
H643 H 0.23587 0.98773 0.73796 0.0
H644 H 0.23636 0.96153 0.76688 0.0
H645 H 0.9214 0.07389 0.83904 0.0
H646 H 0.99891 0.07329 0.79343 0.0
H647 H 0.91136 0.04585 0.77648 0.0
H648 H 0.16525 0.05181 0.66394 0.0
H649 H 0.96811 0.98083 0.62144 0.0
H650 H 0.2378 0.04418 0.76894 0.0
H651 H 0.15687 0.07414 0.78803 0.0
H652 H 0.23419 0.07072 0.74069 0.0
H653 H 0.99777 0.95844 0.71586 0.0
H654 H 0.91773 0.95926 0.67258 0.0
H655 H 0.91324 0.98722 0.73547 0.0
C656 C 0.55117 0.52769 0.35242 0.0
C657 C 0.50962 0.5036 0.35931 0.0
C658 C 0.54634 0.52993 0.30785 0.0
C659 C 0.499 0.50746 0.26882 0.0
C660 C 0.4552 0.4834 0.27555 0.0
C661 C 0.46103 0.48172 0.32083 0.0
C662 C 0.59396 0.55598 0.30221 0.0
C663 C 0.40382 0.45911 0.23461 0.0
C664 C 0.442 0.52669 0.1624 0.0
C665 C 0.5101 0.51167 0.12946 0.0
C666 C 0.43678 0.52529 0.20783 0.0
C667 C 0.50063 0.50821 0.22018 0.0
C668 C 0.56913 0.4929 0.18691 0.0
C669 C 0.57319 0.49492 0.14208 0.0
C670 C 0.36309 0.54203 0.24259 0.0
C671 C 0.63857 0.47449 0.19874 0.0
H672 H 0.58871 0.54484 0.38179 0.0
H673 H 0.42827 0.46315 0.32585 0.0
H674 H 0.64726 0.54641 0.2747 0.0
H675 H 0.54823 0.56873 0.28876 0.0
H676 H 0.62338 0.57261 0.33706 0.0
H677 H 0.36897 0.44307 0.24656 0.0
H678 H 0.35487 0.47021 0.21996 0.0
H679 H 0.44897 0.44544 0.20417 0.0
H680 H 0.39196 0.5391 0.15238 0.0
H681 H 0.62592 0.48323 0.11672 0.0
H682 H 0.3906 0.5594 0.27733 0.0
H683 H 0.32439 0.52546 0.25159 0.0
H684 H 0.31808 0.55397 0.22723 0.0
H685 H 0.67568 0.48985 0.23163 0.0
H686 H 0.68587 0.46319 0.16821 0.0
H687 H 0.60716 0.4564 0.20724 0.0
C688 C 0.47795 0.49813 0.6465 0.0
C689 C 0.54243 0.51239 0.63001 0.0
C690 C 0.48454 0.4977 0.69237 0.0
C691 C 0.55671 0.5123 0.72284 0.0
C692 C 0.62143 0.5272 0.70678 0.0
C693 C 0.6137 0.52695 0.66034 0.0
C694 C 0.41422 0.48153 0.70818 0.0
C695 C 0.69877 0.54325 0.73858 0.0
C696 C 0.51449 0.53452 0.85679 0.0
C697 C 0.55279 0.50976 0.86326 0.0
C698 C 0.51885 0.53633 0.81186 0.0
C699 C 0.56211 0.51269 0.77211 0.0
C700 C 0.60399 0.48822 0.77866 0.0
C701 C 0.59919 0.4871 0.82433 0.0
C702 C 0.47399 0.56296 0.80648 0.0
C703 C 0.65086 0.46263 0.73692 0.0
H704 H 0.42251 0.487 0.62323 0.0
H705 H 0.66404 0.53779 0.6475 0.0
H706 H 0.44435 0.46336 0.71702 0.0
H707 H 0.38131 0.49828 0.74181 0.0
H708 H 0.36352 0.47065 0.67961 0.0
H709 H 0.74316 0.55387 0.72078 0.0
H710 H 0.67521 0.56158 0.77369 0.0
H711 H 0.73717 0.52652 0.74739 0.0
H712 H 0.47928 0.55238 0.88664 0.0
H713 H 0.62986 0.46808 0.82909 0.0
H714 H 0.41695 0.55425 0.78157 0.0
H715 H 0.51961 0.57398 0.78998 0.0
H716 H 0.45014 0.58084 0.84202 0.0
H717 H 0.60249 0.44908 0.7085 0.0
H718 H 0.6862 0.44669 0.74891 0.0
H719 H 0.69873 0.47243 0.7196 0.0
loop_
_geom_bond_atom_site_label_1
_geom_bond_atom_site_label_2
_geom_bond_distance
_geom_bond_site_symmetry_2
_ccdc_geom_bond_type
Eu0 N29 2.600 . S
Eu0 N35 2.562 . S
Eu0 O44 2.462 1_655 S
Eu0 O45 2.373 . S
Eu0 O47 2.432 1_655 S
Eu0 O48 2.291 1_556 S
Eu0 O52 2.335 1_655 S
Eu0 O55 2.372 1_655 S
Eu0 C64 2.787 1_655 S
C1 N2 1.365 . S
C1 C4 1.405 . S
C1 C8 1.448 . S
N2 C1 1.365 . S
N2 C5 1.319 . S
N2 Eu11 2.600 . S
C3 C5 1.397 . S
C3 C6 1.367 . S
C3 H23 0.931 . S
C4 C1 1.405 . S
C4 C6 1.403 . S
C4 C10 1.439 . S
C5 N2 1.319 . S
C5 C3 1.397 . S
C5 H16 0.930 . S
C6 C3 1.367 . S
C6 C4 1.403 . S
C6 H27 0.929 . S
C7 C8 1.430 . S
C7 C9 1.387 . S
C7 C13 1.404 . S
C8 C1 1.448 . S
C8 C7 1.430 . S
C8 N12 1.351 . S
C9 C7 1.387 . S
C9 C10 1.374 . S
C9 H24 0.931 . S
C10 C4 1.439 . S
C10 C9 1.374 . S
C10 H25 0.931 . S
Eu11 N2 2.600 . S
Eu11 N12 2.562 . S
Eu11 O46 2.335 1_455 S
Eu11 O49 2.372 1_455 S
Eu11 O50 2.462 1_455 S
Eu11 O51 2.373 . S
Eu11 O53 2.432 1_455 S
Eu11 O54 2.291 1_554 S
Eu11 C75 2.787 1_455 S
N12 C8 1.351 . S
N12 Eu11 2.562 . S
N12 C14 1.325 1_554 S
C13 C7 1.404 . S
C13 C15 1.366 1_554 S
C13 H21 0.930 1_554 S
C14 N12 1.325 1_556 S
C14 C15 1.416 . S
C14 H20 0.929 . S
C15 C13 1.366 1_556 S
C15 C14 1.416 . S
C15 H17 0.930 . S
H16 C5 0.930 . S
H17 C15 0.930 . S
H18 C33 0.930 . S
H19 C40 0.930 . S
H20 C14 0.929 . S
H21 C13 0.930 1_556 S
H22 C36 0.929 . S
H23 C3 0.931 . S
H24 C9 0.931 . S
H25 C10 0.931 . S
H26 C31 0.931 . S
H27 C6 0.929 . S
H28 C39 0.930 1_554 S
N29 Eu0 2.600 . S
N29 C30 1.365 . S
N29 C33 1.319 . S
C30 N29 1.365 . S
C30 C32 1.405 . S
C30 C38 1.448 . S
C31 H26 0.931 . S
C31 C33 1.397 . S
C31 C34 1.367 . S
C32 C30 1.405 . S
C32 C34 1.403 . S
C32 C65 1.439 . S
C33 H18 0.930 . S
C33 N29 1.319 . S
C33 C31 1.397 . S
C34 C31 1.367 . S
C34 C32 1.403 . S
C34 H41 0.929 . S
N35 Eu0 2.562 . S
N35 C36 1.325 1_556 S
N35 C38 1.351 . S
C36 H22 0.929 . S
C36 N35 1.325 1_554 S
C36 C40 1.416 . S
C37 C38 1.430 . S
C37 C39 1.404 . S
C37 C66 1.387 . S
C38 C30 1.448 . S
C38 N35 1.351 . S
C38 C37 1.430 . S
C39 H28 0.930 1_556 S
C39 C37 1.404 . S
C39 C40 1.366 1_556 S
C40 H19 0.930 . S
C40 C36 1.416 . S
C40 C39 1.366 1_554 S
H41 C34 0.929 . S
H42 C65 0.931 . S
H43 C66 0.931 . S
O44 Eu0 2.462 1_455 S
O44 C64 1.252 . S
O45 Eu0 2.373 . S
O45 C56 1.249 1_565 S
O46 Eu11 2.335 1_655 S
O46 C56 1.264 1_554 S
O47 Eu0 2.432 1_455 S
O47 C64 1.268 . S
O48 Eu0 2.291 1_554 S
O48 C63 1.255 1_565 S
O49 Eu11 2.372 1_655 S
O49 C63 1.257 . S
O50 Eu11 2.462 1_655 S
O50 C75 1.252 . S
O51 Eu11 2.373 . S
O51 C67 1.249 1_545 S
O52 Eu0 2.335 1_455 S
O52 C67 1.264 1_556 S
O53 Eu11 2.432 1_655 S
O53 C75 1.268 . S
O54 Eu11 2.291 1_556 S
O54 C74 1.255 1_545 S
O55 Eu0 2.372 1_455 S
O55 C74 1.257 . S
C56 O45 1.249 1_545 S
C56 O46 1.264 1_556 S
C57 C60 1.382 . S
C57 C62 1.390 . S
C57 C64 1.506 . S
C58 C59 1.398 . S
C58 C62 1.392 . S
C59 C58 1.398 . S
C59 C61 1.372 . S
C59 H76 0.931 . S
C60 C57 1.382 . S
C60 C61 1.390 . S
C60 H77 0.931 . S
C61 C59 1.372 . S
C61 C60 1.390 . S
C61 H78 0.929 . S
C62 C57 1.390 . S
C62 C58 1.392 . S
C62 H79 0.930 1_556 S
C63 O48 1.255 1_545 S
C63 O49 1.257 . S
C64 Eu0 2.787 1_455 S
C64 O44 1.252 . S
C64 O47 1.268 . S
C64 C57 1.506 . S
C65 C32 1.439 . S
C65 H42 0.931 . S
C65 C66 1.374 . S
C66 C37 1.387 . S
C66 H43 0.931 . S
C66 C65 1.374 . S
C67 O51 1.249 1_565 S
C67 O52 1.264 1_554 S
C68 C71 1.382 . S
C68 C72 1.390 . S
C68 C75 1.506 . S
C69 C70 1.398 . S
C69 C72 1.392 . S
C70 C69 1.398 . S
C70 C73 1.372 . S
C70 H80 0.931 . S
C71 C68 1.382 . S
C71 C73 1.390 . S
C71 H81 0.931 . S
C72 C68 1.390 . S
C72 C69 1.392 . S
C72 H82 0.930 1_554 S
C73 C70 1.372 . S
C73 C71 1.390 . S
C73 H83 0.929 . S
C74 O54 1.255 1_565 S
C74 O55 1.257 . S
C75 Eu11 2.787 1_655 S
C75 O50 1.252 . S
C75 O53 1.268 . S
C75 C68 1.506 . S
H76 C59 0.931 . S
H77 C60 0.931 . S
H78 C61 0.929 . S
H79 C62 0.930 1_554 S
H80 C70 0.931 . S
H81 C71 0.931 . S
H82 C72 0.930 1_556 S
H83 C73 0.929 . S
Eu84 N113 2.600 . S
Eu84 N119 2.562 . S
Eu84 O128 2.462 1_655 S
Eu84 O129 2.373 . S
Eu84 O131 2.432 1_655 S
Eu84 O132 2.291 . S
Eu84 O136 2.335 1_655 S
Eu84 O139 2.372 1_655 S
Eu84 C148 2.787 1_655 S
C85 N86 1.365 . S
C85 C88 1.405 . S
C85 C92 1.448 . S
N86 C85 1.365 . S
N86 C89 1.319 . S
N86 Eu95 2.600 . S
C87 C89 1.397 . S
C87 C90 1.367 . S
C87 H107 0.931 . S
C88 C85 1.405 . S
C88 C90 1.403 . S
C88 C94 1.439 . S
C89 N86 1.319 . S
C89 C87 1.397 . S
C89 H100 0.930 . S
C90 C87 1.367 . S
C90 C88 1.403 . S
C90 H111 0.929 . S
C91 C92 1.430 . S
C91 C93 1.387 . S
C91 C97 1.404 . S
C92 C85 1.448 . S
C92 C91 1.430 . S
C92 N96 1.351 . S
C93 C91 1.387 . S
C93 C94 1.374 . S
C93 H108 0.931 . S
C94 C88 1.439 . S
C94 C93 1.374 . S
C94 H109 0.931 . S
Eu95 N86 2.600 . S
Eu95 N96 2.562 . S
Eu95 O130 2.335 1_455 S
Eu95 O133 2.372 1_455 S
Eu95 O134 2.462 1_455 S
Eu95 O135 2.373 . S
Eu95 O137 2.432 1_455 S
Eu95 O138 2.291 . S
Eu95 C159 2.787 1_455 S
N96 C92 1.351 . S
N96 Eu95 2.562 . S
N96 C98 1.325 . S
C97 C91 1.404 . S
C97 C99 1.366 . S
C97 H105 0.930 . S
C98 N96 1.325 . S
C98 C99 1.416 . S
C98 H104 0.929 . S
C99 C97 1.366 . S
C99 C98 1.416 . S
C99 H101 0.930 . S
H100 C89 0.930 . S
H101 C99 0.930 . S
H102 C117 0.930 . S
H103 C124 0.930 . S
H104 C98 0.929 . S
H105 C97 0.930 . S
H106 C120 0.929 . S
H107 C87 0.931 . S
H108 C93 0.931 . S
H109 C94 0.931 . S
H110 C115 0.931 . S
H111 C90 0.929 . S
H112 C123 0.930 . S
N113 Eu84 2.600 . S
N113 C114 1.365 . S
N113 C117 1.319 . S
C114 N113 1.365 . S
C114 C116 1.405 . S
C114 C122 1.448 . S
C115 H110 0.931 . S
C115 C117 1.397 . S
C115 C118 1.367 . S
C116 C114 1.405 . S
C116 C118 1.403 . S
C116 C149 1.439 . S
C117 H102 0.930 . S
C117 N113 1.319 . S
C117 C115 1.397 . S
C118 C115 1.367 . S
C118 C116 1.403 . S
C118 H125 0.929 . S
N119 Eu84 2.562 . S
N119 C120 1.325 . S
N119 C122 1.351 . S
C120 H106 0.929 . S
C120 N119 1.325 . S
C120 C124 1.416 . S
C121 C122 1.430 . S
C121 C123 1.404 . S
C121 C150 1.387 . S
C122 C114 1.448 . S
C122 N119 1.351 . S
C122 C121 1.430 . S
C123 H112 0.930 . S
C123 C121 1.404 . S
C123 C124 1.366 . S
C124 H103 0.930 . S
C124 C120 1.416 . S
C124 C123 1.366 . S
H125 C118 0.929 . S
H126 C149 0.931 . S
H127 C150 0.931 . S
O128 Eu84 2.462 1_455 S
O128 C148 1.252 . S
O129 Eu84 2.373 . S
O129 C140 1.249 1_545 S
O130 Eu95 2.335 1_655 S
O130 C140 1.264 . S
O131 Eu84 2.432 1_455 S
O131 C148 1.268 . S
O132 Eu84 2.291 . S
O132 C147 1.255 1_545 S
O133 Eu95 2.372 1_655 S
O133 C147 1.257 . S
O134 Eu95 2.462 1_655 S
O134 C159 1.252 . S
O135 Eu95 2.373 . S
O135 C151 1.249 1_565 S
O136 Eu84 2.335 1_455 S
O136 C151 1.264 . S
O137 Eu95 2.432 1_655 S
O137 C159 1.268 . S
O138 Eu95 2.291 . S
O138 C158 1.255 1_565 S
O139 Eu84 2.372 1_455 S
O139 C158 1.257 . S
C140 O129 1.249 1_565 S
C140 O130 1.264 . S
C141 C144 1.382 . S
C141 C146 1.390 . S
C141 C148 1.506 . S
C142 C143 1.398 . S
C142 C146 1.392 . S
C143 C142 1.398 . S
C143 C145 1.372 . S
C143 H160 0.931 . S
C144 C141 1.382 . S
C144 C145 1.390 . S
C144 H161 0.931 . S
C145 C143 1.372 . S
C145 C144 1.390 . S
C145 H162 0.929 . S
C146 C141 1.390 . S
C146 C142 1.392 . S
C146 H163 0.930 . S
C147 O132 1.255 1_565 S
C147 O133 1.257 . S
C148 Eu84 2.787 1_455 S
C148 O128 1.252 . S
C148 O131 1.268 . S
C148 C141 1.506 . S
C149 C116 1.439 . S
C149 H126 0.931 . S
C149 C150 1.374 . S
C150 C121 1.387 . S
C150 H127 0.931 . S
C150 C149 1.374 . S
C151 O135 1.249 1_545 S
C151 O136 1.264 . S
C152 C155 1.382 . S
C152 C156 1.390 . S
C152 C159 1.506 . S
C153 C154 1.398 . S
C153 C156 1.392 . S
C154 C153 1.398 . S
C154 C157 1.372 . S
C154 H164 0.931 . S
C155 C152 1.382 . S
C155 C157 1.390 . S
C155 H165 0.931 . S
C156 C152 1.390 . S
C156 C153 1.392 . S
C156 H166 0.930 . S
C157 C154 1.372 . S
C157 C155 1.390 . S
C157 H167 0.929 . S
C158 O138 1.255 1_545 S
C158 O139 1.257 . S
C159 Eu95 2.787 1_655 S
C159 O134 1.252 . S
C159 O137 1.268 . S
C159 C152 1.506 . S
H160 C143 0.931 . S
H161 C144 0.931 . S
H162 C145 0.929 . S
H163 C146 0.930 . S
H164 C154 0.931 . S
H165 C155 0.931 . S
H166 C156 0.930 . S
H167 C157 0.929 . S
Eu168 N197 2.600 . S
Eu168 N203 2.562 . S
Eu168 O212 2.462 . S
Eu168 O213 2.373 . S
Eu168 O215 2.432 . S
Eu168 O216 2.291 1_556 S
Eu168 O220 2.335 . S
Eu168 O223 2.372 . S
Eu168 C232 2.787 . S
C169 N170 1.365 . S
C169 C172 1.405 . S
C169 C176 1.448 . S
N170 C169 1.365 . S
N170 C173 1.319 . S
N170 Eu179 2.600 . S
C171 C173 1.397 . S
C171 C174 1.367 . S
C171 H191 0.931 . S
C172 C169 1.405 . S
C172 C174 1.403 . S
C172 C178 1.439 . S
C173 N170 1.319 . S
C173 C171 1.397 . S
C173 H184 0.930 . S
C174 C171 1.367 . S
C174 C172 1.403 . S
C174 H195 0.929 . S
C175 C176 1.430 . S
C175 C177 1.387 . S
C175 C181 1.404 . S
C176 C169 1.448 . S
C176 C175 1.430 . S
C176 N180 1.351 . S
C177 C175 1.387 . S
C177 C178 1.374 . S
C177 H192 0.931 . S
C178 C172 1.439 . S
C178 C177 1.374 . S
C178 H193 0.931 . S
Eu179 N170 2.600 . S
Eu179 N180 2.562 . S
Eu179 O214 2.335 . S
Eu179 O217 2.372 . S
Eu179 O218 2.462 . S
Eu179 O219 2.373 . S
Eu179 O221 2.432 . S
Eu179 O222 2.291 1_554 S
Eu179 C243 2.787 . S
N180 C176 1.351 . S
N180 Eu179 2.562 . S
N180 C182 1.325 1_554 S
C181 C175 1.404 . S
C181 C183 1.366 1_554 S
C181 H189 0.930 1_554 S
C182 N180 1.325 1_556 S
C182 C183 1.416 . S
C182 H188 0.929 . S
C183 C181 1.366 1_556 S
C183 C182 1.416 . S
C183 H185 0.930 . S
H184 C173 0.930 . S
H185 C183 0.930 . S
H186 C201 0.930 . S
H187 C208 0.930 . S
H188 C182 0.929 . S
H189 C181 0.930 1_556 S
H190 C204 0.929 . S
H191 C171 0.931 . S
H192 C177 0.931 . S
H193 C178 0.931 . S
H194 C199 0.931 . S
H195 C174 0.929 . S
H196 C207 0.930 1_554 S
N197 Eu168 2.600 . S
N197 C198 1.365 . S
N197 C201 1.319 . S
C198 N197 1.365 . S
C198 C200 1.405 . S
C198 C206 1.448 . S
C199 H194 0.931 . S
C199 C201 1.397 . S
C199 C202 1.367 . S
C200 C198 1.405 . S
C200 C202 1.403 . S
C200 C233 1.439 . S
C201 H186 0.930 . S
C201 N197 1.319 . S
C201 C199 1.397 . S
C202 C199 1.367 . S
C202 C200 1.403 . S
C202 H209 0.929 . S
N203 Eu168 2.562 . S
N203 C204 1.325 1_556 S
N203 C206 1.351 . S
C204 H190 0.929 . S
C204 N203 1.325 1_554 S
C204 C208 1.416 . S
C205 C206 1.430 . S
C205 C207 1.404 . S
C205 C234 1.387 . S
C206 C198 1.448 . S
C206 N203 1.351 . S
C206 C205 1.430 . S
C207 H196 0.930 1_556 S
C207 C205 1.404 . S
C207 C208 1.366 1_556 S
C208 H187 0.930 . S
C208 C204 1.416 . S
C208 C207 1.366 1_554 S
H209 C202 0.929 . S
H210 C233 0.931 . S
H211 C234 0.931 . S
O212 Eu168 2.462 . S
O212 C232 1.252 . S
O213 Eu168 2.373 . S
O213 C224 1.249 . S
O214 Eu179 2.335 . S
O214 C224 1.264 1_554 S
O215 Eu168 2.432 . S
O215 C232 1.268 . S
O216 Eu168 2.291 1_554 S
O216 C231 1.255 . S
O217 Eu179 2.372 . S
O217 C231 1.257 . S
O218 Eu179 2.462 . S
O218 C243 1.252 . S
O219 Eu179 2.373 . S
O219 C235 1.249 . S
O220 Eu168 2.335 . S
O220 C235 1.264 1_556 S
O221 Eu179 2.432 . S
O221 C243 1.268 . S
O222 Eu179 2.291 1_556 S
O222 C242 1.255 . S
O223 Eu168 2.372 . S
O223 C242 1.257 . S
C224 O213 1.249 . S
C224 O214 1.264 1_556 S
C225 C228 1.382 . S
C225 C230 1.390 . S
C225 C232 1.506 . S
C226 C227 1.398 . S
C226 C230 1.392 . S
C227 C226 1.398 . S
C227 C229 1.372 . S
C227 H244 0.931 . S
C228 C225 1.382 . S
C228 C229 1.390 . S
C228 H245 0.931 . S
C229 C227 1.372 . S
C229 C228 1.390 . S
C229 H246 0.929 . S
C230 C225 1.390 . S
C230 C226 1.392 . S
C230 H247 0.930 1_556 S
C231 O216 1.255 . S
C231 O217 1.257 . S
C232 Eu168 2.787 . S
C232 O212 1.252 . S
C232 O215 1.268 . S
C232 C225 1.506 . S
C233 C200 1.439 . S
C233 H210 0.931 . S
C233 C234 1.374 . S
C234 C205 1.387 . S
C234 H211 0.931 . S
C234 C233 1.374 . S
C235 O219 1.249 . S
C235 O220 1.264 1_554 S
C236 C239 1.382 . S
C236 C240 1.390 . S
C236 C243 1.506 . S
C237 C238 1.398 . S
C237 C240 1.392 . S
C238 C237 1.398 . S
C238 C241 1.372 . S
C238 H248 0.931 . S
C239 C236 1.382 . S
C239 C241 1.390 . S
C239 H249 0.931 . S
C240 C236 1.390 . S
C240 C237 1.392 . S
C240 H250 0.930 1_554 S
C241 C238 1.372 . S
C241 C239 1.390 . S
C241 H251 0.929 . S
C242 O222 1.255 . S
C242 O223 1.257 . S
C243 Eu179 2.787 . S
C243 O218 1.252 . S
C243 O221 1.268 . S
C243 C236 1.506 . S
H244 C227 0.931 . S
H245 C228 0.931 . S
H246 C229 0.929 . S
H247 C230 0.930 1_554 S
H248 C238 0.931 . S
H249 C239 0.931 . S
H250 C240 0.930 1_556 S
H251 C241 0.929 . S
Eu252 N281 2.600 . S
Eu252 N287 2.562 . S
Eu252 O296 2.462 . S
Eu252 O297 2.373 . S
Eu252 O299 2.432 . S
Eu252 O300 2.291 . S
Eu252 O304 2.335 . S
Eu252 O307 2.372 . S
Eu252 C316 2.787 . S
C253 N254 1.365 . S
C253 C256 1.405 . S
C253 C260 1.448 . S
N254 C253 1.365 . S
N254 C257 1.319 . S
N254 Eu263 2.600 . S
C255 C257 1.397 . S
C255 C258 1.367 . S
C255 H275 0.931 . S
C256 C253 1.405 . S
C256 C258 1.403 . S
C256 C262 1.439 . S
C257 N254 1.319 . S
C257 C255 1.397 . S
C257 H268 0.930 . S
C258 C255 1.367 . S
C258 C256 1.403 . S
C258 H279 0.929 . S
C259 C260 1.430 . S
C259 C261 1.387 . S
C259 C265 1.404 . S
C260 C253 1.448 . S
C260 C259 1.430 . S
C260 N264 1.351 . S
C261 C259 1.387 . S
C261 C262 1.374 . S
C261 H276 0.931 . S
C262 C256 1.439 . S
C262 C261 1.374 . S
C262 H277 0.931 . S
Eu263 N254 2.600 . S
Eu263 N264 2.562 . S
Eu263 O298 2.335 . S
Eu263 O301 2.372 . S
Eu263 O302 2.462 . S
Eu263 O303 2.373 . S
Eu263 O305 2.432 . S
Eu263 O306 2.291 . S
Eu263 C327 2.787 . S
N264 C260 1.351 . S
N264 Eu263 2.562 . S
N264 C266 1.325 . S
C265 C259 1.404 . S
C265 C267 1.366 . S
C265 H273 0.930 . S
C266 N264 1.325 . S
C266 C267 1.416 . S
C266 H272 0.929 . S
C267 C265 1.366 . S
C267 C266 1.416 . S
C267 H269 0.930 . S
H268 C257 0.930 . S
H269 C267 0.930 . S
H270 C285 0.930 . S
H271 C292 0.930 . S
H272 C266 0.929 . S
H273 C265 0.930 . S
H274 C288 0.929 . S
H275 C255 0.931 . S
H276 C261 0.931 . S
H277 C262 0.931 . S
H278 C283 0.931 . S
H279 C258 0.929 . S
H280 C291 0.930 . S
N281 Eu252 2.600 . S
N281 C282 1.365 . S
N281 C285 1.319 . S
C282 N281 1.365 . S
C282 C284 1.405 . S
C282 C290 1.448 . S
C283 H278 0.931 . S
C283 C285 1.397 . S
C283 C286 1.367 . S
C284 C282 1.405 . S
C284 C286 1.403 . S
C284 C317 1.439 . S
C285 H270 0.930 . S
C285 N281 1.319 . S
C285 C283 1.397 . S
C286 C283 1.367 . S
C286 C284 1.403 . S
C286 H293 0.929 . S
N287 Eu252 2.562 . S
N287 C288 1.325 . S
N287 C290 1.351 . S
C288 H274 0.929 . S
C288 N287 1.325 . S
C288 C292 1.416 . S
C289 C290 1.430 . S
C289 C291 1.404 . S
C289 C318 1.387 . S
C290 C282 1.448 . S
C290 N287 1.351 . S
C290 C289 1.430 . S
C291 H280 0.930 . S
C291 C289 1.404 . S
C291 C292 1.366 . S
C292 H271 0.930 . S
C292 C288 1.416 . S
C292 C291 1.366 . S
H293 C286 0.929 . S
H294 C317 0.931 . S
H295 C318 0.931 . S
O296 Eu252 2.462 . S
O296 C316 1.252 . S
O297 Eu252 2.373 . S
O297 C308 1.249 . S
O298 Eu263 2.335 . S
O298 C308 1.264 . S
O299 Eu252 2.432 . S
O299 C316 1.268 . S
O300 Eu252 2.291 . S
O300 C315 1.255 . S
O301 Eu263 2.372 . S
O301 C315 1.257 . S
O302 Eu263 2.462 . S
O302 C327 1.252 . S
O303 Eu263 2.373 . S
O303 C319 1.249 . S
O304 Eu252 2.335 . S
O304 C319 1.264 . S
O305 Eu263 2.432 . S
O305 C327 1.268 . S
O306 Eu263 2.291 . S
O306 C326 1.255 . S
O307 Eu252 2.372 . S
O307 C326 1.257 . S
C308 O297 1.249 . S
C308 O298 1.264 . S
C309 C312 1.382 . S
C309 C314 1.390 . S
C309 C316 1.506 . S
C310 C311 1.398 . S
C310 C314 1.392 . S
C311 C310 1.398 . S
C311 C313 1.372 . S
C311 H328 0.931 . S
C312 C309 1.382 . S
C312 C313 1.390 . S
C312 H329 0.931 . S
C313 C311 1.372 . S
C313 C312 1.390 . S
C313 H330 0.929 . S
C314 C309 1.390 . S
C314 C310 1.392 . S
C314 H331 0.930 . S
C315 O300 1.255 . S
C315 O301 1.257 . S
C316 Eu252 2.787 . S
C316 O296 1.252 . S
C316 O299 1.268 . S
C316 C309 1.506 . S
C317 C284 1.439 . S
C317 H294 0.931 . S
C317 C318 1.374 . S
C318 C289 1.387 . S
C318 H295 0.931 . S
C318 C317 1.374 . S
C319 O303 1.249 . S
C319 O304 1.264 . S
C320 C323 1.382 . S
C320 C324 1.390 . S
C320 C327 1.506 . S
C321 C322 1.398 . S
C321 C324 1.392 . S
C322 C321 1.398 . S
C322 C325 1.372 . S
C322 H332 0.931 . S
C323 C320 1.382 . S
C323 C325 1.390 . S
C323 H333 0.931 . S
C324 C320 1.390 . S
C324 C321 1.392 . S
C324 H334 0.930 . S
C325 C322 1.372 . S
C325 C323 1.390 . S
C325 H335 0.929 . S
C326 O306 1.255 . S
C326 O307 1.257 . S
C327 Eu263 2.787 . S
C327 O302 1.252 . S
C327 O305 1.268 . S
C327 C320 1.506 . S
H328 C311 0.931 . S
H329 C312 0.931 . S
H330 C313 0.929 . S
H331 C314 0.930 . S
H332 C322 0.931 . S
H333 C323 0.931 . S
H334 C324 0.930 . S
H335 C325 0.929 . S
C336 C337 1.410 . S
C336 C338 1.394 . S
C336 H352 0.931 . S
C337 C336 1.410 . S
C337 C341 1.365 1_556 S
C338 C336 1.394 . S
C338 C339 1.369 1_556 S
C338 C342 1.531 . S
C339 C338 1.369 1_554 S
C339 C340 1.410 . S
C339 C347 1.503 . S
C340 C339 1.410 . S
C340 C341 1.392 . S
C340 C343 1.511 . S
C341 C337 1.365 1_554 S
C341 C340 1.392 . S
C341 H353 0.929 . S
C342 C338 1.531 . S
C342 H354 0.960 . S
C342 H355 0.962 . S
C342 H356 0.960 . S
C343 C340 1.511 . S
C343 H357 0.961 . S
C343 H358 0.961 . S
C343 H359 0.961 . S
C344 C345 1.370 1_556 S
C344 C346 1.363 . S
C344 H360 0.931 . S
C345 C344 1.370 1_554 S
C345 C349 1.408 . S
C346 C344 1.363 . S
C346 C347 1.370 1_556 S
C346 C350 1.524 . S
C347 C339 1.503 . S
C347 C346 1.370 1_554 S
C347 C348 1.403 . S
C348 C347 1.403 . S
C348 C349 1.404 . S
C348 C351 1.539 . S
C349 C345 1.408 . S
C349 C348 1.404 . S
C349 H361 0.930 . S
C350 C346 1.524 . S
C350 H362 0.956 . S
C350 H363 0.961 1_556 S
C350 H364 0.961 . S
C351 C348 1.539 . S
C351 H365 0.958 1_554 S
C351 H366 0.961 . S
C351 H367 0.960 . S
H352 C336 0.931 . S
H353 C341 0.929 . S
H354 C342 0.960 . S
H355 C342 0.962 . S
H356 C342 0.960 . S
H357 C343 0.961 . S
H358 C343 0.961 . S
H359 C343 0.961 . S
H360 C344 0.931 . S
H361 C349 0.930 . S
H362 C350 0.956 . S
H363 C350 0.961 1_554 S
H364 C350 0.961 . S
H365 C351 0.958 1_556 S
H366 C351 0.961 . S
H367 C351 0.960 . S
C368 C369 1.391 . S
C368 C370 1.394 . S
C368 H384 0.931 . S
C369 C368 1.391 . S
C369 C373 1.376 1_554 S
C370 C368 1.394 . S
C370 C371 1.369 . S
C370 C374 1.531 . S
C371 C370 1.369 . S
C371 C372 1.410 1_554 S
C371 C379 1.503 . S
C372 C371 1.410 1_556 S
C372 C373 1.392 . S
C372 C375 1.511 . S
C373 C369 1.376 1_556 S
C373 C372 1.392 . S
C373 H385 0.929 . S
C374 C370 1.531 . S
C374 H386 0.960 . S
C374 H387 0.962 . S
C374 H388 0.960 . S
C375 C372 1.511 . S
C375 H389 0.961 . S
C375 H390 0.961 . S
C375 H391 0.961 . S
C376 C377 1.369 . S
C376 C378 1.363 . S
C376 H392 0.931 . S
C377 C376 1.369 . S
C377 C381 1.409 1_556 S
C378 C376 1.363 . S
C378 C379 1.370 1_556 S
C378 C382 1.524 . S
C379 C371 1.503 . S
C379 C378 1.370 1_554 S
C379 C380 1.403 . S
C380 C379 1.403 . S
C380 C381 1.404 . S
C380 C383 1.539 . S
C381 C377 1.409 1_554 S
C381 C380 1.404 . S
C381 H393 0.930 . S
C382 C378 1.524 . S
C382 H394 0.956 . S
C382 H395 0.961 . S
C382 H396 0.961 . S
C383 C380 1.539 . S
C383 H397 0.958 . S
C383 H398 0.961 . S
C383 H399 0.960 . S
H384 C368 0.931 . S
H385 C373 0.929 . S
H386 C374 0.960 . S
H387 C374 0.962 . S
H388 C374 0.960 . S
H389 C375 0.961 . S
H390 C375 0.961 . S
H391 C375 0.961 . S
H392 C376 0.931 . S
H393 C381 0.930 . S
H394 C382 0.956 . S
H395 C382 0.961 . S
H396 C382 0.961 . S
H397 C383 0.958 . S
H398 C383 0.961 . S
H399 C383 0.960 . S
C400 C401 1.391 . S
C400 C402 1.394 . S
C400 H416 0.931 . S
C401 C400 1.391 . S
C401 C405 1.376 . S
C402 C400 1.394 . S
C402 C403 1.369 . S
C402 C406 1.531 . S
C403 C402 1.369 . S
C403 C404 1.410 . S
C403 C411 1.503 . S
C404 C403 1.410 . S
C404 C405 1.392 . S
C404 C407 1.511 . S
C405 C401 1.376 . S
C405 C404 1.392 . S
C405 H417 0.929 . S
C406 C402 1.531 . S
C406 H418 0.960 . S
C406 H419 0.962 . S
C406 H420 0.960 . S
C407 C404 1.511 . S
C407 H421 0.961 . S
C407 H422 0.961 . S
C407 H423 0.961 . S
C408 C409 1.370 . S
C408 C410 1.363 . S
C408 H424 0.931 . S
C409 C408 1.370 . S
C409 C413 1.408 . S
C410 C408 1.363 . S
C410 C411 1.370 . S
C410 C414 1.524 . S
C411 C403 1.503 . S
C411 C410 1.370 . S
C411 C412 1.403 . S
C412 C411 1.403 . S
C412 C413 1.404 . S
C412 C415 1.539 . S
C413 C409 1.408 . S
C413 C412 1.404 . S
C413 H425 0.930 . S
C414 C410 1.524 . S
C414 H426 0.956 . S
C414 H427 0.961 . S
C414 H428 0.961 . S
C415 C412 1.539 . S
C415 H429 0.958 . S
C415 H430 0.961 . S
C415 H431 0.960 . S
H416 C400 0.931 . S
H417 C405 0.929 . S
H418 C406 0.960 . S
H419 C406 0.962 . S
H420 C406 0.960 . S
H421 C407 0.961 . S
H422 C407 0.961 . S
H423 C407 0.961 . S
H424 C408 0.931 . S
H425 C413 0.930 . S
H426 C414 0.956 . S
H427 C414 0.961 . S
H428 C414 0.961 . S
H429 C415 0.958 . S
H430 C415 0.961 . S
H431 C415 0.960 . S
C432 C433 1.391 . S
C432 C434 1.394 . S
C432 H448 0.931 . S
C433 C432 1.391 . S
C433 C437 1.376 . S
C434 C432 1.394 . S
C434 C435 1.369 . S
C434 C438 1.531 . S
C435 C434 1.369 . S
C435 C436 1.410 . S
C435 C443 1.503 . S
C436 C435 1.410 . S
C436 C437 1.392 . S
C436 C439 1.511 . S
C437 C433 1.376 . S
C437 C436 1.392 . S
C437 H449 0.929 . S
C438 C434 1.531 . S
C438 H450 0.960 . S
C438 H451 0.962 . S
C438 H452 0.960 . S
C439 C436 1.511 . S
C439 H453 0.961 . S
C439 H454 0.961 . S
C439 H455 0.961 . S
C440 C441 1.370 . S
C440 C442 1.363 . S
C440 H456 0.931 . S
C441 C440 1.370 . S
C441 C445 1.408 . S
C442 C440 1.363 . S
C442 C443 1.370 . S
C442 C446 1.524 . S
C443 C435 1.503 . S
C443 C442 1.370 . S
C443 C444 1.403 . S
C444 C443 1.403 . S
C444 C445 1.404 . S
C444 C447 1.539 . S
C445 C441 1.408 . S
C445 C444 1.404 . S
C445 H457 0.930 . S
C446 C442 1.524 . S
C446 H458 0.956 . S
C446 H459 0.961 . S
C446 H460 0.961 . S
C447 C444 1.539 . S
C447 H461 0.958 . S
C447 H462 0.961 . S
C447 H463 0.960 . S
H448 C432 0.931 . S
H449 C437 0.929 . S
H450 C438 0.960 . S
H451 C438 0.962 . S
H452 C438 0.960 . S
H453 C439 0.961 . S
H454 C439 0.961 . S
H455 C439 0.961 . S
H456 C440 0.931 . S
H457 C445 0.930 . S
H458 C446 0.956 . S
H459 C446 0.961 . S
H460 C446 0.961 . S
H461 C447 0.958 . S
H462 C447 0.961 . S
H463 C447 0.960 . S
C464 C465 1.391 1_545 S
C464 C466 1.394 . S
C464 H480 0.931 . S
C465 C464 1.391 1_565 S
C465 C469 1.376 1_554 S
C466 C464 1.394 . S
C466 C467 1.346 1_545 S
C466 C470 1.531 . S
C467 C466 1.346 1_565 S
C467 C468 1.434 1_554 S
C467 C475 1.500 1_565 S
C468 C467 1.434 1_556 S
C468 C469 1.392 . S
C468 C471 1.511 . S
C469 C465 1.376 1_556 S
C469 C468 1.392 . S
C469 H481 0.929 . S
C470 C466 1.531 . S
C470 H482 0.960 . S
C470 H483 0.962 . S
C470 H484 0.960 . S
C471 C468 1.511 . S
C471 H485 0.961 . S
C471 H486 0.961 . S
C471 H487 0.961 . S
C472 C473 1.370 1_556 S
C472 C474 1.363 . S
C472 H488 0.931 . S
C473 C472 1.370 1_554 S
C473 C477 1.397 1_545 S
C474 C472 1.363 . S
C474 C475 1.390 1_556 S
C474 C478 1.524 . S
C475 C467 1.500 1_545 S
C475 C474 1.390 1_554 S
C475 C476 1.387 1_545 S
C476 C475 1.387 1_565 S
C476 C477 1.405 . S
C476 C479 1.539 . S
C477 C473 1.397 1_565 S
C477 C476 1.405 . S
C477 H489 0.939 . S
C478 C474 1.524 . S
C478 H490 0.956 . S
C478 H491 0.961 1_545 S
C478 H492 0.961 . S
C479 C476 1.539 . S
C479 H493 0.958 1_565 S
C479 H494 0.961 . S
C479 H495 0.960 . S
H480 C464 0.931 . S
H481 C469 0.929 . S
H482 C470 0.960 . S
H483 C470 0.962 . S
H484 C470 0.960 . S
H485 C471 0.961 . S
H486 C471 0.961 . S
H487 C471 0.961 . S
H488 C472 0.931 . S
H489 C477 0.939 . S
H490 C478 0.956 . S
H491 C478 0.961 1_565 S
H492 C478 0.961 . S
H493 C479 0.958 1_545 S
H494 C479 0.961 . S
H495 C479 0.960 . S
C496 C497 1.391 . S
C496 C498 1.394 . S
C496 H512 0.931 . S
C497 C496 1.391 . S
C497 C501 1.376 1_545 S
C498 C496 1.394 . S
C498 C499 1.369 . S
C498 C502 1.531 . S
C499 C498 1.369 . S
C499 C500 1.410 1_545 S
C499 C507 1.503 . S
C500 C499 1.410 1_565 S
C500 C501 1.392 . S
C500 C503 1.511 . S
C501 C497 1.376 1_565 S
C501 C500 1.392 . S
C501 H513 0.929 . S
C502 C498 1.531 . S
C502 H514 0.960 . S
C502 H515 0.962 . S
C502 H516 0.960 . S
C503 C500 1.511 . S
C503 H517 0.961 . S
C503 H518 0.961 . S
C503 H519 0.961 . S
C504 C505 1.370 . S
C504 C506 1.363 . S
C504 H520 0.931 . S
C505 C504 1.370 . S
C505 C509 1.408 1_565 S
C506 C504 1.363 . S
C506 C507 1.370 1_565 S
C506 C510 1.524 . S
C507 C499 1.503 . S
C507 C506 1.370 1_545 S
C507 C508 1.403 . S
C508 C507 1.403 . S
C508 C509 1.404 . S
C508 C511 1.539 . S
C509 C505 1.408 1_545 S
C509 C508 1.404 . S
C509 H521 0.930 . S
C510 C506 1.524 . S
C510 H522 0.956 . S
C510 H523 0.961 . S
C510 H524 0.961 . S
C511 C508 1.539 . S
C511 H525 0.958 . S
C511 H526 0.961 . S
C511 H527 0.960 . S
H512 C496 0.931 . S
H513 C501 0.929 . S
H514 C502 0.960 . S
H515 C502 0.962 . S
H516 C502 0.960 . S
H517 C503 0.961 . S
H518 C503 0.961 . S
H519 C503 0.961 . S
H520 C504 0.931 . S
H521 C509 0.930 . S
H522 C510 0.956 . S
H523 C510 0.961 . S
H524 C510 0.961 . S
H525 C511 0.958 . S
H526 C511 0.961 . S
H527 C511 0.960 . S
C528 C529 1.391 . S
C528 C530 1.394 . S
C528 H544 0.931 . S
C529 C528 1.391 . S
C529 C533 1.376 1_556 S
C530 C528 1.394 . S
C530 C531 1.369 . S
C530 C534 1.531 . S
C531 C530 1.369 . S
C531 C532 1.410 1_556 S
C531 C539 1.503 1_655 S
C532 C531 1.410 1_554 S
C532 C533 1.392 . S
C532 C535 1.511 . S
C533 C529 1.376 1_554 S
C533 C532 1.392 . S
C533 H545 0.929 . S
C534 C530 1.531 . S
C534 H546 0.960 1_655 S
C534 H547 0.962 . S
C534 H548 0.960 . S
C535 C532 1.511 . S
C535 H549 0.961 . S
C535 H550 0.961 1_655 S
C535 H551 0.961 . S
C536 C537 1.363 1_554 S
C536 C538 1.363 . S
C536 H552 0.931 . S
C537 C536 1.363 1_556 S
C537 C541 1.416 . S
C538 C536 1.363 . S
C538 C539 1.370 1_554 S
C538 C542 1.524 . S
C539 C531 1.503 1_455 S
C539 C538 1.370 1_556 S
C539 C540 1.403 . S
C540 C539 1.403 . S
C540 C541 1.404 . S
C540 C543 1.539 . S
C541 C537 1.416 . S
C541 C540 1.404 . S
C541 H553 0.930 . S
C542 C538 1.524 . S
C542 H554 0.956 . S
C542 H555 0.961 1_455 S
C542 H556 0.961 . S
C543 C540 1.539 . S
C543 H557 0.958 . S
C543 H558 0.961 . S
C543 H559 0.960 1_455 S
H544 C528 0.931 . S
H545 C533 0.929 . S
H546 C534 0.960 1_455 S
H547 C534 0.962 . S
H548 C534 0.960 . S
H549 C535 0.961 . S
H550 C535 0.961 1_455 S
H551 C535 0.961 . S
H552 C536 0.931 . S
H553 C541 0.930 . S
H554 C542 0.956 . S
H555 C542 0.961 1_655 S
H556 C542 0.961 . S
H557 C543 0.958 . S
H558 C543 0.961 . S
H559 C543 0.960 1_655 S
C560 C561 1.391 . S
C560 C562 1.394 . S
C560 H576 0.931 . S
C561 C560 1.391 . S
C561 C565 1.376 . S
C562 C560 1.394 . S
C562 C563 1.369 . S
C562 C566 1.531 . S
C563 C562 1.369 . S
C563 C564 1.410 . S
C563 C571 1.503 1_455 S
C564 C563 1.410 . S
C564 C565 1.392 . S
C564 C567 1.511 . S
C565 C561 1.376 . S
C565 C564 1.392 . S
C565 H577 0.929 . S
C566 C562 1.531 . S
C566 H578 0.961 1_455 S
C566 H579 0.962 . S
C566 H580 0.960 . S
C567 C564 1.511 . S
C567 H581 0.961 . S
C567 H582 0.961 1_455 S
C567 H583 0.961 . S
C568 C569 1.370 . S
C568 C570 1.363 . S
C568 H584 0.931 . S
C569 C568 1.370 . S
C569 C573 1.408 . S
C570 C568 1.363 . S
C570 C571 1.370 . S
C570 C574 1.524 . S
C571 C563 1.503 1_655 S
C571 C570 1.370 . S
C571 C572 1.403 . S
C572 C571 1.403 . S
C572 C573 1.404 . S
C572 C575 1.539 . S
C573 C569 1.408 . S
C573 C572 1.404 . S
C573 H585 0.930 . S
C574 C570 1.524 . S
C574 H586 0.961 . S
C574 H587 0.961 1_655 S
C574 H588 0.961 . S
C575 C572 1.539 . S
C575 H589 0.958 . S
C575 H590 0.961 . S
C575 H591 0.960 . S
H576 C560 0.931 . S
H577 C565 0.929 . S
H578 C566 0.961 1_655 S
H579 C566 0.962 . S
H580 C566 0.960 . S
H581 C567 0.961 . S
H582 C567 0.961 1_655 S
H583 C567 0.961 . S
H584 C568 0.931 . S
H585 C573 0.930 . S
H586 C574 0.961 . S
H587 C574 0.961 1_455 S
H588 C574 0.961 . S
H589 C575 0.958 . S
H590 C575 0.961 . S
H591 C575 0.960 . S
C592 C593 1.391 1_455 S
C592 C594 1.394 . S
C592 H608 0.931 . S
C593 C592 1.391 1_655 S
C593 C597 1.374 1_565 S
C594 C592 1.394 . S
C594 C595 1.369 1_455 S
C594 C598 1.531 . S
C595 C594 1.369 1_655 S
C595 C596 1.410 . S
C595 C603 1.503 . S
C596 C595 1.410 . S
C596 C597 1.394 1_565 S
C596 C599 1.512 . S
C597 C593 1.374 1_545 S
C597 C596 1.394 1_545 S
C597 H609 0.928 . S
C598 C594 1.531 . S
C598 H610 0.960 . S
C598 H611 0.962 1_565 S
C598 H612 0.960 . S
C599 C596 1.512 . S
C599 H613 0.960 1_565 S
C599 H614 0.958 1_565 S
C599 H615 0.963 . S
C600 C601 1.351 1_445 S
C600 C602 1.363 . S
C600 H616 0.931 . S
C601 C600 1.351 1_665 S
C601 C605 1.449 . S
C602 C600 1.363 . S
C602 C603 1.370 1_445 S
C602 C606 1.524 . S
C603 C595 1.503 . S
C603 C602 1.370 1_665 S
C603 C604 1.403 . S
C604 C603 1.403 . S
C604 C605 1.404 . S
C604 C607 1.539 . S
C605 C601 1.449 . S
C605 C604 1.404 . S
C605 H617 0.930 . S
C606 C602 1.524 . S
C606 H618 0.956 . S
C606 H619 0.961 1_455 S
C606 H620 0.961 . S
C607 C604 1.539 . S
C607 H621 0.958 1_655 S
C607 H622 0.961 . S
C607 H623 0.960 . S
H608 C592 0.931 . S
H609 C597 0.928 . S
H610 C598 0.960 . S
H611 C598 0.962 1_545 S
H612 C598 0.960 . S
H613 C599 0.960 1_545 S
H614 C599 0.958 1_545 S
H615 C599 0.963 . S
H616 C600 0.931 . S
H617 C605 0.930 . S
H618 C606 0.956 . S
H619 C606 0.961 1_655 S
H620 C606 0.961 . S
H621 C607 0.958 1_455 S
H622 C607 0.961 . S
H623 C607 0.960 . S
C624 C625 1.391 1_455 S
C624 C626 1.394 . S
C624 H640 0.931 . S
C625 C624 1.391 1_655 S
C625 C629 1.376 1_565 S
C626 C624 1.394 . S
C626 C627 1.369 1_455 S
C626 C630 1.531 . S
C627 C626 1.369 1_655 S
C627 C628 1.410 1_565 S
C627 C635 1.503 . S
C628 C627 1.410 1_545 S
C628 C629 1.392 . S
C628 C631 1.511 . S
C629 C625 1.376 1_545 S
C629 C628 1.392 . S
C629 H641 0.929 . S
C630 C626 1.531 . S
C630 H642 0.960 . S
C630 H643 0.962 . S
C630 H644 0.960 . S
C631 C628 1.511 . S
C631 H645 0.961 . S
C631 H646 0.961 . S
C631 H647 0.961 . S
C632 C633 1.353 1_445 S
C632 C634 1.363 . S
C632 H648 0.931 . S
C633 C632 1.353 1_665 S
C633 C637 1.442 . S
C634 C632 1.363 . S
C634 C635 1.370 1_445 S
C634 C638 1.524 . S
C635 C627 1.503 . S
C635 C634 1.370 1_665 S
C635 C636 1.403 . S
C636 C635 1.403 . S
C636 C637 1.404 . S
C636 C639 1.539 . S
C637 C633 1.442 . S
C637 C636 1.404 . S
C637 H649 0.930 . S
C638 C634 1.524 . S
C638 H650 0.956 . S
C638 H651 0.961 . S
C638 H652 0.961 . S
C639 C636 1.539 . S
C639 H653 0.958 . S
C639 H654 0.961 . S
C639 H655 0.960 . S
H640 C624 0.931 . S
H641 C629 0.929 . S
H642 C630 0.960 . S
H643 C630 0.962 . S
H644 C630 0.960 . S
H645 C631 0.961 . S
H646 C631 0.961 . S
H647 C631 0.961 . S
H648 C632 0.931 . S
H649 C637 0.930 . S
H650 C638 0.956 . S
H651 C638 0.961 . S
H652 C638 0.961 . S
H653 C639 0.958 . S
H654 C639 0.961 . S
H655 C639 0.960 . S
C656 C657 1.391 . S
C656 C658 1.394 . S
C656 H672 0.931 . S
C657 C656 1.391 . S
C657 C661 1.376 . S
C658 C656 1.394 . S
C658 C659 1.369 . S
C658 C662 1.531 . S
C659 C658 1.369 . S
C659 C660 1.410 . S
C659 C667 1.503 . S
C660 C659 1.410 . S
C660 C661 1.392 . S
C660 C663 1.511 . S
C661 C657 1.376 . S
C661 C660 1.392 . S
C661 H673 0.929 . S
C662 C658 1.531 . S
C662 H674 0.960 . S
C662 H675 0.962 . S
C662 H676 0.960 . S
C663 C660 1.511 . S
C663 H677 0.961 . S
C663 H678 0.961 . S
C663 H679 0.961 . S
C664 C665 1.370 . S
C664 C666 1.363 . S
C664 H680 0.931 . S
C665 C664 1.370 . S
C665 C669 1.408 . S
C666 C664 1.363 . S
C666 C667 1.370 . S
C666 C670 1.524 . S
C667 C659 1.503 . S
C667 C666 1.370 . S
C667 C668 1.403 . S
C668 C667 1.403 . S
C668 C669 1.404 . S
C668 C671 1.539 . S
C669 C665 1.408 . S
C669 C668 1.404 . S
C669 H681 0.930 . S
C670 C666 1.524 . S
C670 H682 0.956 . S
C670 H683 0.961 . S
C670 H684 0.961 . S
C671 C668 1.539 . S
C671 H685 0.958 . S
C671 H686 0.961 . S
C671 H687 0.960 . S
H672 C656 0.931 . S
H673 C661 0.929 . S
H674 C662 0.960 . S
H675 C662 0.962 . S
H676 C662 0.960 . S
H677 C663 0.961 . S
H678 C663 0.961 . S
H679 C663 0.961 . S
H680 C664 0.931 . S
H681 C669 0.930 . S
H682 C670 0.956 . S
H683 C670 0.961 . S
H684 C670 0.961 . S
H685 C671 0.958 . S
H686 C671 0.961 . S
H687 C671 0.960 . S
C688 C689 1.391 . S
C688 C690 1.394 . S
C688 H704 0.931 . S
C689 C688 1.391 . S
C689 C693 1.376 . S
C690 C688 1.394 . S
C690 C691 1.369 . S
C690 C694 1.531 . S
C691 C690 1.369 . S
C691 C692 1.410 . S
C691 C699 1.503 . S
C692 C691 1.410 . S
C692 C693 1.392 . S
C692 C695 1.511 . S
C693 C689 1.376 . S
C693 C692 1.392 . S
C693 H705 0.929 . S
C694 C690 1.531 . S
C694 H706 0.960 . S
C694 H707 0.962 . S
C694 H708 0.960 . S
C695 C692 1.511 . S
C695 H709 0.961 . S
C695 H710 0.961 . S
C695 H711 0.961 . S
C696 C697 1.370 . S
C696 C698 1.363 . S
C696 H712 0.931 . S
C697 C696 1.370 . S
C697 C701 1.408 . S
C698 C696 1.363 . S
C698 C699 1.370 . S
C698 C702 1.524 . S
C699 C691 1.503 . S
C699 C698 1.370 . S
C699 C700 1.403 . S
C700 C699 1.403 . S
C700 C701 1.404 . S
C700 C703 1.539 . S
C701 C697 1.408 . S
C701 C700 1.404 . S
C701 H713 0.930 . S
C702 C698 1.524 . S
C702 H714 0.956 . S
C702 H715 0.961 . S
C702 H716 0.961 . S
C703 C700 1.539 . S
C703 H717 0.958 . S
C703 H718 0.961 . S
C703 H719 0.960 . S
H704 C688 0.931 . S
H705 C693 0.929 . S
H706 C694 0.960 . S
H707 C694 0.962 . S
H708 C694 0.960 . S
H709 C695 0.961 . S
H710 C695 0.961 . S
H711 C695 0.961 . S
H712 C696 0.931 . S
H713 C701 0.930 . S
H714 C702 0.956 . S
H715 C702 0.961 . S
H716 C702 0.961 . S
H717 C703 0.958 . S
H718 C703 0.961 . S
H719 C703 0.960 . S
C337 C237 1.387 1_556 S
C345 C58 1.409 1_554 S
C369 C226 1.442 1_554 S
C377 C69 1.393 1_556 S
C401 C142 1.374 . S
C409 C321 1.414 . S
C433 C153 1.358 . S
C441 C310 1.421 . S
C465 C67 1.951 . S
C473 C56 1.962 1_554 S
C497 C151 1.963 . S
C505 C140 1.958 . S
C529 C235 1.961 1_556 S
C537 C224 1.959 . S
C561 C308 1.963 . S
C569 C319 1.957 . S
C593 C147 1.460 . S
C601 C63 1.461 1_565 S
C625 C74 1.470 1_655 S
C633 C158 1.469 1_665 S
C657 C315 1.459 . S
C665 C231 1.483 . S
C689 C326 1.484 . S
C697 C242 1.471 . S
