# Generated by pormake.
# Topology wmb, (6)-cn, num edge types: 1
# Building blocks:
#     Node 0, Type 0, BuildingBlock: IZENUY_clean_sbu_0, # of connection points: 6
#     Node 1, Type 0, BuildingBlock: IZENUY_clean_sbu_0, # of connection points: 6
#     Node 2, Type 0, BuildingBlock: IZENUY_clean_sbu_0, # of connection points: 6
#     Node 3, Type 0, BuildingBlock: IZENUY_clean_sbu_0, # of connection points: 6
#     Node 4, Type 0, BuildingBlock: IZENUY_clean_sbu_0, # of connection points: 6
#     Node 5, Type 0, BuildingBlock: IZENUY_clean_sbu_0, # of connection points: 6
#     Edge 6, Type (0, 0), BuildingBlock: MIFKUJ_clean_linker_0, # of connection points: 2
#     Edge 7, Type (0, 0), BuildingBlock: MIFKUJ_clean_linker_0, # of connection points: 2
#     Edge 8, Type (0, 0), BuildingBlock: MIFKUJ_clean_linker_0, # of connection points: 2
#     Edge 9, Type (0, 0), BuildingBlock: MIFKUJ_clean_linker_0, # of connection points: 2
#     Edge 10, Type (0, 0), BuildingBlock: MIFKUJ_clean_linker_0, # of connection points: 2
#     Edge 11, Type (0, 0), BuildingBlock: MIFKUJ_clean_linker_0, # of connection points: 2
#     Edge 12, Type (0, 0), BuildingBlock: MIFKUJ_clean_linker_0, # of connection points: 2
#     Edge 13, Type (0, 0), BuildingBlock: MIFKUJ_clean_linker_0, # of connection points: 2
#     Edge 14, Type (0, 0), BuildingBlock: MIFKUJ_clean_linker_0, # of connection points: 2
#     Edge 15, Type (0, 0), BuildingBlock: MIFKUJ_clean_linker_0, # of connection points: 2
#     Edge 16, Type (0, 0), BuildingBlock: MIFKUJ_clean_linker_0, # of connection points: 2
#     Edge 17, Type (0, 0), BuildingBlock: MIFKUJ_clean_linker_0, # of connection points: 2
#     Edge 18, Type (0, 0), BuildingBlock: MIFKUJ_clean_linker_0, # of connection points: 2
#     Edge 19, Type (0, 0), BuildingBlock: MIFKUJ_clean_linker_0, # of connection points: 2
#     Edge 20, Type (0, 0), BuildingBlock: MIFKUJ_clean_linker_0, # of connection points: 2
#     Edge 21, Type (0, 0), BuildingBlock: MIFKUJ_clean_linker_0, # of connection points: 2
#     Edge 22, Type (0, 0), BuildingBlock: MIFKUJ_clean_linker_0, # of connection points: 2
#     Edge 23, Type (0, 0), BuildingBlock: MIFKUJ_clean_linker_0, # of connection points: 2
# Relax obj value: 0.258
# Max RMSD: 0.258
# Mean RMSD: 0.258
data_MOF--net-wmb--node1-IZENUY_clean_sbu_0--edge1-MIFKUJ_clean_linker_0
_symmetry_space_group_name_H-M    P1
_symmetry_Int_Tables_number       1
_symmetry_cell_setting            triclinic
loop_
_symmetry_equiv_pos_as_xyz
'x, y, z'
_cell_length_a     34.739601
_cell_length_b     34.61923
_cell_length_c     54.001062
_cell_angle_alpha  90.123982
_cell_angle_beta   89.880309
_cell_angle_gamma 119.98048
loop_
_atom_site_label
_atom_site_type_symbol
_atom_site_fract_x
_atom_site_fract_y
_atom_site_fract_z
_atom_type_partial_charge
Fe0 Fe 0.49092 0.18095 0.0352 0.0
Fe1 Fe 0.55648 0.15999 0.00848 0.0
O2 O 0.53925 0.19837 0.01695 0.0
Fe3 Fe 0.57077 0.25457 0.0074 0.0
O4 O 0.58238 0.27315 0.03919 0.0
O5 O 0.51284 0.23467 0.05159 0.0
O6 O 0.51419 0.16451 0.06013 0.0
C7 C 0.52854 0.13771 0.05828 0.0
C8 C 0.48142 0.23754 0.00447 0.0
O9 O 0.53699 0.12715 0.0373 0.0
C10 C 0.57111 0.21193 0.96514 0.0
O11 O 0.46086 0.12328 0.02253 0.0
O12 O 0.50475 0.12488 0.99283 0.0
O13 O 0.52301 0.26387 0.00613 0.0
O14 O 0.46466 0.19753 0.01158 0.0
C15 C 0.6375 0.23214 0.01781 0.0
O16 O 0.57872 0.18607 0.97824 0.0
O17 O 0.56079 0.23854 0.9751 0.0
C18 C 0.46751 0.1059 0.00339 0.0
O19 O 0.60985 0.19248 0.02346 0.0
O20 O 0.62474 0.25628 0.00701 0.0
C21 C 0.55286 0.26481 0.05528 0.0
Fe22 Fe 0.86066 0.4075 0.67185 0.0
Fe23 Fe 0.76615 0.32692 0.67326 0.0
O24 O 0.82255 0.35316 0.68249 0.0
Fe25 Fe 0.84073 0.32529 0.7027 0.0
O26 O 0.85739 0.36876 0.72571 0.0
O27 O 0.8943 0.42503 0.70035 0.0
O28 O 0.82869 0.43051 0.6852 0.0
C29 C 0.78863 0.41736 0.6802 0.0
C30 C 0.91441 0.37172 0.66973 0.0
O31 O 0.76394 0.37897 0.67098 0.0
C32 C 0.78461 0.25498 0.67401 0.0
O33 O 0.83392 0.39976 0.64156 0.0
O34 O 0.78107 0.32935 0.64089 0.0
O35 O 0.89768 0.35123 0.68987 0.0
O36 O 0.89542 0.38852 0.65769 0.0
C37 C 0.75675 0.30399 0.72205 0.0
O38 O 0.75783 0.26992 0.67398 0.0
O39 O 0.82427 0.27925 0.6812 0.0
C40 C 0.80738 0.36489 0.62967 0.0
O41 O 0.74787 0.32319 0.70505 0.0
O42 O 0.78779 0.29515 0.71949 0.0
C43 C 0.88473 0.40945 0.72212 0.0
Fe44 Fe 0.70114 0.52291 0.37051 0.0
Fe45 Fe 0.6145 0.4569 0.34378 0.0
O46 O 0.67092 0.47611 0.3509 0.0
Fe47 Fe 0.69735 0.44789 0.33853 0.0
O48 O 0.70576 0.43293 0.36929 0.0
O49 O 0.73452 0.50082 0.38458 0.0
O50 O 0.66237 0.49655 0.39569 0.0
C51 C 0.62095 0.48076 0.3947 0.0
C52 C 0.76685 0.53858 0.33775 0.0
O53 O 0.60077 0.47121 0.37412 0.0
C54 C 0.65199 0.45034 0.29816 0.0
O55 O 0.67214 0.55259 0.36032 0.0
O56 O 0.62749 0.51012 0.3308 0.0
O57 O 0.75329 0.49717 0.33792 0.0
O58 O 0.74295 0.55306 0.34683 0.0
C59 C 0.61043 0.37658 0.34829 0.0
O60 O 0.61868 0.43962 0.31212 0.0
O61 O 0.68964 0.46134 0.3072 0.0
C62 C 0.64677 0.54685 0.34212 0.0
O63 O 0.59672 0.4018 0.35624 0.0
O64 O 0.64691 0.3928 0.33671 0.0
C65 C 0.72616 0.46079 0.3863 0.0
Fe66 Fe 0.25449 0.55593 0.98711 0.0
Fe67 Fe 0.1745 0.47852 0.95973 0.0
O68 O 0.19774 0.52805 0.97789 0.0
Fe69 Fe 0.16322 0.55025 0.98655 0.0
O70 O 0.20699 0.60799 0.98916 0.0
O71 O 0.26568 0.60928 0.97392 0.0
O72 O 0.27516 0.54606 0.95784 0.0
C73 C 0.25666 0.53026 0.93717 0.0
C74 C 0.20609 0.55668 0.02999 0.0
O75 O 0.21505 0.50581 0.93534 0.0
C76 C 0.10329 0.45792 0.98962 0.0
O77 O 0.25037 0.50622 0.00102 0.0
O78 O 0.20759 0.45639 0.97344 0.0
O79 O 0.16911 0.54134 0.01901 0.0
O80 O 0.24218 0.56981 0.01804 0.0
C81 C 0.14205 0.53056 0.93789 0.0
O82 O 0.13106 0.44658 0.98278 0.0
O83 O 0.11156 0.49728 0.98615 0.0
C84 C 0.23457 0.46812 0.9913 0.0
O85 O 0.13838 0.49284 0.9421 0.0
O86 O 0.15612 0.5606 0.95433 0.0
C87 C 0.24508 0.62927 0.9798 0.0
Fe88 Fe 0.46028 0.70733 0.6557 0.0
Fe89 Fe 0.53523 0.70329 0.62697 0.0
O90 O 0.48707 0.67743 0.64599 0.0
Fe91 Fe 0.4655 0.62088 0.65486 0.0
O92 O 0.40748 0.60675 0.65648 0.0
O93 O 0.40702 0.66593 0.64271 0.0
O94 O 0.4699 0.73776 0.62636 0.0
C95 C 0.48175 0.73136 0.60522 0.0
C96 C 0.45792 0.6573 0.69842 0.0
O97 O 0.50525 0.71319 0.60291 0.0
C98 C 0.55882 0.65536 0.6566 0.0
O99 O 0.51088 0.75241 0.66949 0.0
O100 O 0.55636 0.75943 0.63938 0.0
O101 O 0.47369 0.63598 0.68738 0.0
O102 O 0.44578 0.68103 0.6865 0.0
C103 C 0.48577 0.61737 0.60632 0.0
O104 O 0.56877 0.69421 0.64981 0.0
O105 O 0.51927 0.62356 0.65499 0.0
C106 C 0.54713 0.77524 0.65808 0.0
O107 O 0.52254 0.65239 0.61023 0.0
O108 O 0.45574 0.60216 0.62269 0.0
C109 C 0.38706 0.62472 0.64718 0.0
Fe110 Fe 0.31026 0.75223 0.32236 0.0
Fe111 Fe 0.30988 0.82818 0.29354 0.0
O112 O 0.33767 0.80872 0.31291 0.0
Fe113 Fe 0.39296 0.84532 0.32253 0.0
O114 O 0.41292 0.811 0.30831 0.0
O115 O 0.36088 0.74794 0.32396 0.0
O116 O 0.30459 0.73358 0.29043 0.0
C117 C 0.28566 0.74348 0.27371 0.0
C118 C 0.35193 0.79254 0.36523 0.0
O119 O 0.27776 0.77516 0.27676 0.0
C120 C 0.35987 0.90171 0.32618 0.0
O121 O 0.25436 0.74569 0.32243 0.0
O122 O 0.26557 0.81312 0.31602 0.0
O123 O 0.38608 0.81821 0.35263 0.0
O124 O 0.31493 0.76786 0.3549 0.0
C125 C 0.39269 0.87073 0.27268 0.0
O126 O 0.33767 0.88503 0.30653 0.0
O127 O 0.37729 0.8824 0.33743 0.0
C128 C 0.24085 0.77358 0.32337 0.0
O129 O 0.35178 0.84411 0.26962 0.0
O130 O 0.40964 0.87895 0.29412 0.0
C131 C 0.39886 0.77088 0.31414 0.0
H132 H 0.31627 0.49369 0.01106 0.0
H133 H 0.35286 0.44902 0.0139 0.0
H134 H 0.23305 0.33303 0.98892 0.0
H135 H 0.19645 0.37776 0.98535 0.0
H136 H 0.28841 0.32294 0.0316 0.0
H137 H 0.29459 0.37594 0.94753 0.0
H138 H 0.30956 0.43634 0.91818 0.0
H139 H 0.44604 0.50763 0.9412 0.0
H140 H 0.4315 0.44829 0.97131 0.0
H141 H 0.38982 0.19436 0.00202 0.0
H142 H 0.34291 0.22851 -0.0008 0.0
H143 H 0.46002 0.35871 0.99437 0.0
H144 H 0.50676 0.32493 0.99622 0.0
H145 H 0.40141 0.35865 0.96588 0.0
H146 H 0.39992 0.31456 0.05002 0.0
H147 H 0.38915 0.26287 0.08415 0.0
H148 H 0.25111 0.18287 0.06526 0.0
H149 H 0.26122 0.23383 0.03078 0.0
C150 C 0.29728 0.45844 0.00677 0.0
C151 C 0.25344 0.43932 0.9979 0.0
C152 C 0.31832 0.433 0.00832 0.0
C153 C 0.29571 0.38781 0.00149 0.0
C154 C 0.25102 0.36783 0.99431 0.0
C155 C 0.23021 0.39346 0.99225 0.0
C156 C 0.32013 0.36288 -0.00055 0.0
C157 C 0.3126 0.3301 0.01703 0.0
C158 C 0.35253 0.37323 0.98081 0.0
C159 C 0.36182 0.40787 0.96187 0.0
C160 C 0.32771 0.40466 0.94648 0.0
C161 C 0.3361 0.43872 0.92972 0.0
C162 C 0.37871 0.47584 0.92785 0.0
C163 C 0.41304 0.47888 0.94269 0.0
C164 C 0.40472 0.44506 0.95964 0.0
C165 C 0.40556 0.23019 -4e-05 0.0
C166 C 0.45219 0.25679 -0.00045 0.0
C167 C 0.37867 0.24978 0.99856 0.0
C168 C 0.39779 0.29644 0.99712 0.0
C169 C 0.44424 0.32274 0.99555 0.0
C170 C 0.47104 0.30323 0.99667 0.0
C171 C 0.36995 0.31828 0.99813 0.0
C172 C 0.3769 0.35081 0.98035 0.0
C173 C 0.33767 0.30832 0.01693 0.0
C174 C 0.33144 0.27769 0.03765 0.0
C175 C 0.36734 0.28575 0.05303 0.0
C176 C 0.36135 0.25663 0.07246 0.0
C177 C 0.3195 0.21953 0.07682 0.0
C178 C 0.28353 0.21157 0.06182 0.0
C179 C 0.28936 0.24057 0.04234 0.0
H180 H 0.31492 0.19701 0.09187 0.0
H181 H 0.38512 0.50221 0.9149 0.0
H182 H 0.70957 0.19562 0.64912 0.0
H183 H 0.67381 0.1143 0.64899 0.0
H184 H 0.78042 0.12211 0.69359 0.0
H185 H 0.81731 0.20351 0.69275 0.0
H186 H 0.75744 0.05765 0.66435 0.0
H187 H 0.67565 0.09721 0.71843 0.0
H188 H 0.63452 0.13452 0.73195 0.0
H189 H 0.53482 0.06292 0.6768 0.0
H190 H 0.57575 0.0257 0.66267 0.0
H191 H 0.5466 0.82319 0.69907 0.0
H192 H 0.59202 0.90406 0.70571 0.0
H193 H 0.65596 0.91753 0.63511 0.0
H194 H 0.61297 0.8376 0.62908 0.0
H195 H 0.59673 0.97123 0.68461 0.0
H196 H 0.75659 1.0039 0.63072 0.0
H197 H 0.80107 0.96719 0.62432 0.0
H198 H 0.75031 0.89441 0.69212 0.0
H199 H 0.706 0.93113 0.69912 0.0
C200 C 0.72574 0.18002 0.65857 0.0
C201 C 0.76626 0.20615 0.67098 0.0
C202 C 0.705 0.1334 0.65873 0.0
C203 C 0.7236 0.11165 0.67189 0.0
C204 C 0.76508 0.13779 0.6834 0.0
C205 C 0.78628 0.18448 0.68284 0.0
C206 C 0.69946 0.06185 0.67399 0.0
C207 C 0.72232 0.03884 0.66881 0.0
C208 C 0.65396 0.03692 0.68082 0.0
C209 C 0.62897 0.05892 0.68936 0.0
C210 C 0.6451 0.08962 0.70908 0.0
C211 C 0.62181 0.11074 0.71686 0.0
C212 C 0.58212 0.10115 0.70521 0.0
C213 C 0.56559 0.07034 0.68579 0.0
C214 C 0.5888 0.04919 0.6779 0.0
C215 C 0.57098 0.84339 0.68523 0.0
C216 C 0.57633 0.82359 0.66368 0.0
C217 C 0.5968 0.88972 0.68895 0.0
C218 C 0.62822 0.91728 0.67112 0.0
C219 C 0.63324 0.89735 0.64961 0.0
C220 C 0.60823 0.85128 0.64611 0.0
C221 C 0.65436 0.96695 0.67412 0.0
C222 C 0.63192 0.98999 0.6803 0.0
C223 C 0.70071 0.99194 0.66928 0.0
C224 C 0.72769 0.97006 0.66533 0.0
C225 C 0.75509 0.98025 0.64433 0.0
C226 C 0.78024 0.95939 0.64058 0.0
C227 C 0.77843 0.9284 0.65776 0.0
C228 C 0.75157 0.91831 0.67878 0.0
C229 C 0.72638 0.9391 0.68263 0.0
H230 H 0.79789 0.91227 0.65482 0.0
H231 H 0.56414 0.11754 0.71126 0.0
H232 H 0.17583 0.68758 0.3317 0.0
H233 H 0.09582 0.65784 0.33295 0.0
H234 H 0.11576 0.79067 0.32662 0.0
H235 H 0.19656 0.82115 0.32497 0.0
H236 H 0.04529 0.72689 0.36302 0.0
H237 H 0.09113 0.7408 0.27748 0.0
H238 H 0.13304 0.7313 0.24339 0.0
H239 H 0.05958 0.58933 0.25342 0.0
H240 H 0.01781 0.59804 0.28791 0.0
H241 H 0.81322 0.63059 0.34027 0.0
H242 H 0.89359 0.67999 0.33554 0.0
H243 H 0.90849 0.56644 0.31818 0.0
H244 H 0.82871 0.51748 0.32195 0.0
H245 H 0.96329 0.63182 0.29112 0.0
H246 H 0.92601 0.61427 0.37793 0.0
H247 H 0.88747 0.61813 0.41546 0.0
H248 H 0.94592 0.75966 0.40616 0.0
H249 H 0.98435 0.75649 0.36836 0.0
C250 C 0.16352 0.71078 0.33093 0.0
C251 C 0.19283 0.75685 0.32799 0.0
C252 C 0.11764 0.69359 0.33162 0.0
C253 C 0.0999 0.722 0.32962 0.0
C254 C 0.12888 0.76822 0.32815 0.0
C255 C 0.17501 0.78553 0.32718 0.0
C256 C 0.05108 0.70253 0.32734 0.0
C257 C 0.02727 0.70692 0.34708 0.0
C258 C 0.02772 0.67559 0.3068 0.0
C259 C 0.05152 0.67012 0.2854 0.0
C260 C 0.08405 0.70756 0.2725 0.0
C261 C 0.1078 0.70232 0.2531 0.0
C262 C 0.09905 0.65974 0.24627 0.0
C263 C 0.06634 0.6223 0.25874 0.0
C264 C 0.04258 0.62736 0.27819 0.0
C265 C 0.83354 0.61627 0.33502 0.0
C266 C 0.81437 0.56991 0.33175 0.0
C267 C 0.8796 0.64454 0.33251 0.0
C268 C 0.90744 0.62695 0.327 0.0
C269 C 0.88798 0.581 0.32251 0.0
C270 C 0.84213 0.55291 0.32477 0.0
C271 C 0.9569 0.6554 0.32705 0.0
C272 C 0.98104 0.65257 0.30687 0.0
C273 C 0.98051 0.68306 0.34743 0.0
C274 C 0.95758 0.68506 0.37017 0.0
C275 C 0.93037 0.64615 0.3838 0.0
C276 C 0.90859 0.64822 0.40512 0.0
C277 C 0.91413 0.6891 0.41314 0.0
C278 C 0.94158 0.72801 0.39989 0.0
C279 C 0.96337 0.7261 0.37852 0.0
H280 H 0.89725 0.69065 0.42966 0.0
H281 H 0.11757 0.65577 0.2313 0.0
H282 H 0.4679 0.95247 0.27414 0.0
H283 H 0.50612 1.00169 0.23908 0.0
H284 H 0.41626 0.90008 0.18853 0.0
H285 H 0.37726 0.85084 0.2235 0.0
H286 H 0.51284 0.95152 0.17401 0.0
H287 H 0.38945 0.96963 0.20451 0.0
H288 H 0.35116 0.98561 0.23808 0.0
H289 H 0.46661 0.11419 0.24916 0.0
H290 H 0.50616 0.09851 0.2161 0.0
H291 H 0.50533 0.05054 0.06269 0.0
H292 H 0.49692 0.00974 0.10107 0.0
H293 H 0.54715 0.13193 0.1428 0.0
H294 H 0.55254 0.17215 0.10457 0.0
H295 H 0.48246 0.07652 0.16566 0.0
H296 H 0.60527 0.06781 0.13445 0.0
H297 H 0.65101 0.05557 0.10392 0.0
H298 H 0.54978 0.91801 0.09722 0.0
H299 H 0.50318 0.92953 0.12749 0.0
C300 C 0.45678 0.94026 0.25554 0.0
C301 C 0.41936 0.89795 0.25153 0.0
C302 C 0.47866 0.96842 0.23558 0.0
C303 C 0.46382 0.95443 0.21133 0.0
C304 C 0.42818 0.91128 0.20716 0.0
C305 C 0.40581 0.88337 0.22712 0.0
C306 C 0.48225 0.98611 0.19049 0.0
C307 C 0.50627 0.97887 0.172 0.0
C308 C 0.47513 0.02277 0.18862 0.0
C309 C 0.45095 0.03264 0.20805 0.0
C310 C 0.40685 1.00114 0.21427 0.0
C311 C 0.38495 0.01014 0.23321 0.0
C312 C 0.40658 0.0508 0.24585 0.0
C313 C 0.45008 0.08263 0.23947 0.0
C314 C 0.47225 0.07369 0.22064 0.0
C315 C 0.5152 0.06865 0.08005 0.0
C316 C 0.5295 0.11431 0.08078 0.0
C317 C 0.51067 0.04541 0.10197 0.0
C318 C 0.52187 0.06759 0.12494 0.0
C319 C 0.53803 0.11379 0.12544 0.0
C320 C 0.5413 0.13681 0.1036 0.0
C321 C 0.51285 0.04187 0.14843 0.0
C322 C 0.49027 0.05 0.16758 0.0
C323 C 0.52261 1.0069 0.15124 0.0
C324 C 0.55067 0.99961 0.13319 0.0
C325 C 0.59268 0.03499 0.12639 0.0
C326 C 0.61877 0.02818 0.10914 0.0
C327 C 0.6033 0.98605 0.09863 0.0
C328 C 0.56174 0.95062 0.1054 0.0
C329 C 0.53551 0.95724 0.12265 0.0
H330 H 0.62353 0.98085 0.08526 0.0
H331 H 0.38958 0.05774 0.2605 0.0
H332 H 0.96572 0.48642 0.72158 0.0
H333 H 0.01383 0.5231 0.75732 0.0
H334 H 0.91039 0.43168 0.80635 0.0
H335 H 0.86252 0.39422 0.77087 0.0
H336 H 0.01207 0.56226 0.80385 0.0
H337 H 0.95583 0.38711 0.84341 0.0
H338 H 0.92259 0.30959 0.82843 0.0
H339 H 0.98139 0.35675 0.75684 0.0
H340 H 0.01548 0.43447 0.77151 0.0
H341 H 0.08732 0.56492 0.92898 0.0
H342 H 0.0493 0.56 0.88974 0.0
H343 H 0.1234 0.50585 0.85401 0.0
H344 H 0.15945 0.50881 0.89321 0.0
H345 H 0.04061 0.45293 0.84734 0.0
H346 H 0.13673 0.61018 0.83915 0.0
H347 H 0.17341 0.68893 0.85224 0.0
H348 H 0.04658 0.68157 0.85767 0.0
H349 H 1.00905 0.60253 0.84499 0.0
C350 C 0.95286 0.47479 0.74002 0.0
C351 C 0.9107 0.43688 0.74343 0.0
C352 C 0.9803 0.49596 0.7604 0.0
C353 C 0.96577 0.47959 0.78439 0.0
C354 C 0.92224 0.44436 0.78792 0.0
C355 C 0.89508 0.42292 0.76764 0.0
C356 C 0.99766 0.49416 0.80521 0.0
C357 C 0.0185 0.53856 0.81343 0.0
C358 C 1.00672 0.46333 0.81724 0.0
C359 C 0.98775 0.41661 0.8085 0.0
C360 C 0.96191 0.38091 0.82453 0.0
C361 C 0.94288 0.33693 0.81608 0.0
C362 C 0.94976 0.32825 0.79168 0.0
C363 C 0.97594 0.36351 0.77571 0.0
C364 C 0.99508 0.40753 0.78408 0.0
C365 C 0.09607 0.55303 0.91253 0.0
C366 C 0.1258 0.5368 0.91398 0.0
C367 C 0.07452 0.55033 0.89013 0.0
C368 C 0.08333 0.53231 0.86892 0.0
C369 C 0.1157 0.51942 0.87014 0.0
C370 C 0.13634 0.52119 0.8925 0.0
C371 C 0.05525 0.52127 0.84642 0.0
C372 C 0.03471 0.47708 0.83785 0.0
C373 C 0.04755 0.55267 0.83387 0.0
C374 C 0.07004 0.60028 0.84132 0.0
C375 C 0.11661 0.62524 0.84332 0.0
C376 C 0.13757 0.66995 0.85064 0.0
C377 C 0.11233 0.69021 0.85584 0.0
C378 C 0.06609 0.66582 0.85366 0.0
C379 C 0.04495 0.62107 0.84638 0.0
H380 H 0.12862 0.72483 0.86151 0.0
H381 H 0.9349 0.29419 0.78516 0.0
H382 H 0.53105 0.44404 0.4015 0.0
H383 H 0.49311 0.45061 0.43815 0.0
H384 H 0.61886 0.52252 0.47606 0.0
H385 H 0.65665 0.51486 0.44002 0.0
H386 H 0.55841 0.47391 0.50807 0.0
H387 H 0.57416 0.57708 0.44429 0.0
H388 H 0.56554 0.59727 0.40169 0.0
H389 H 0.42359 0.51997 0.40886 0.0
H390 H 0.43142 0.49874 0.45141 0.0
H391 H 0.51941 0.65274 0.56173 0.0
H392 H 0.52593 0.61466 0.52539 0.0
H393 H 0.45037 0.48803 0.56243 0.0
H394 H 0.44379 0.52649 0.59924 0.0
H395 H 0.47423 0.55265 0.49298 0.0
H396 H 0.50686 0.42932 0.54925 0.0
H397 H 0.53195 0.42285 0.59101 0.0
H398 H 0.60121 0.56538 0.5988 0.0
H399 H 0.57765 0.57269 0.55694 0.0
C400 C 0.5505 0.46063 0.41779 0.0
C401 C 0.59697 0.47955 0.41767 0.0
C402 C 0.52877 0.46439 0.43872 0.0
C403 C 0.55322 0.48781 0.4597 0.0
C404 C 0.59923 0.50437 0.4601 0.0
C405 C 0.62087 0.50018 0.43936 0.0
C406 C 0.53207 0.49899 0.48032 0.0
C407 C 0.53932 0.49041 0.50476 0.0
C408 C 0.5083 0.52176 0.47606 0.0
C409 C 0.50337 0.53581 0.45088 0.0
C410 C 0.54111 0.56426 0.43674 0.0
C411 C 0.53639 0.57587 0.41262 0.0
C412 C 0.49406 0.55964 0.40253 0.0
C413 C 0.45636 0.5323 0.41667 0.0
C414 C 0.46091 0.52047 0.44079 0.0
C415 C 0.5034 0.61666 0.56197 0.0
C416 C 0.48151 0.59252 0.58333 0.0
C417 C 0.5069 0.59491 0.54111 0.0
C418 C 0.48905 0.54856 0.54126 0.0
C419 C 0.46463 0.5239 0.56202 0.0
C420 C 0.4607 0.54578 0.58295 0.0
C421 C 0.50063 0.52762 0.52073 0.0
C422 C 0.49185 0.53465 0.49628 0.0
C423 C 0.52504 0.50553 0.525 0.0
C424 C 0.53972 0.50143 0.55015 0.0
C425 C 0.5275 0.45923 0.55989 0.0
C426 C 0.54158 0.45545 0.58355 0.0
C427 C 0.56803 0.49366 0.5976 0.0
C428 C 0.58062 0.53577 0.58797 0.0
C429 C 0.56694 0.53975 0.56427 0.0
H430 H 0.57889 0.49064 0.6159 0.0
H431 H 0.49051 0.56818 0.38375 0.0
H432 H 0.38834 0.04583 0.02574 0.0
H433 H 0.34537 0.96521 0.0186 0.0
H434 H 0.43533 0.97788 0.95983 0.0
H435 H 0.47658 0.05803 0.96589 0.0
H436 H 0.36044 0.91634 0.94709 0.0
H437 H 0.44353 0.94095 0.02234 0.0
H438 H 0.47057 0.96724 0.06451 0.0
H439 H 0.3363 0.90155 0.09167 0.0
H440 H 0.30857 0.87365 0.04955 0.0
H441 H 0.32318 0.69045 0.95652 0.0
H442 H 0.35737 0.7723 0.95698 0.0
H443 H 0.2495 0.76071 0.00206 0.0
H444 H 0.2154 0.68019 0.00164 0.0
H445 H 0.3319 0.82043 0.02078 0.0
H446 H 0.25371 0.7864 0.9425 0.0
H447 H 0.23586 0.75418 0.90046 0.0
H448 H 0.37206 0.83726 0.87863 0.0
H449 H 0.39082 0.86959 0.92064 0.0
C450 C 0.39832 0.03155 0.01093 0.0
C451 C 0.43629 0.05857 0.99662 0.0
C452 C 0.37407 0.98527 0.00706 0.0
C453 C 0.38778 0.96498 0.98914 0.0
C454 C 0.42402 0.99233 0.97388 0.0
C455 C 0.44775 0.03844 0.97746 0.0
C456 C 0.366 0.9154 0.98687 0.0
C457 C 0.35459 0.89553 0.96324 0.0
C458 C 0.35797 0.88769 0.00777 0.0
C459 C 0.37403 0.90594 0.03281 0.0
C460 C 0.41979 0.93256 0.03728 0.0
C461 C 0.43523 0.94759 0.0612 0.0
C462 C 0.40517 0.93666 0.08079 0.0
C463 C 0.35955 0.91022 0.07648 0.0
C464 C 0.34397 0.89456 0.05261 0.0
C465 C 0.30676 0.70546 0.96639 0.0
C466 C 0.26654 0.67865 0.97898 0.0
C467 C 0.32616 0.75212 0.96656 0.0
C468 C 0.30576 0.7725 0.97946 0.0
C469 C 0.26574 0.74574 0.99194 0.0
C470 C 0.24626 0.69952 0.9916 0.0
C471 C 0.32652 0.82172 0.98115 0.0
C472 C 0.33761 0.84138 0.00469 0.0
C473 C 0.33517 0.84911 0.96011 0.0
C474 C 0.32374 0.83012 0.93477 0.0
C475 C 0.27991 0.79757 0.92878 0.0
C476 C 0.26961 0.77933 0.90495 0.0
C477 C 0.30282 0.79358 0.88691 0.0
C478 C 0.34637 0.82623 0.89263 0.0
C479 C 0.35684 0.84456 0.91643 0.0
H480 H 0.2948 0.77939 0.86848 0.0
H481 H 0.41717 0.94832 0.09933 0.0
H482 H 0.32548 0.65246 0.64498 0.0
H483 H 0.24421 0.60504 0.64528 0.0
H484 H 0.2574 0.48767 0.64302 0.0
H485 H 0.3382 0.53453 0.64291 0.0
H486 H 0.18884 0.48032 0.61277 0.0
H487 H 0.24209 0.51971 0.69638 0.0
H488 H 0.28325 0.57195 0.73029 0.0
H489 H 0.20147 0.63194 0.72314 0.0
H490 H 0.16032 0.58053 0.68885 0.0
H491 H 0.97616 0.36528 0.69834 0.0
H492 H 0.0564 0.40246 0.6913 0.0
H493 H 0.03974 0.45077 0.62085 0.0
H494 H 0.95965 0.41314 0.62749 0.0
H495 H 0.11102 0.48986 0.68769 0.0
H496 H 0.12395 0.46915 0.58205 0.0
H497 H 0.08381 0.41365 0.54927 0.0
H498 H 0.03408 0.3085 0.60314 0.0
H499 H 0.07432 0.36328 0.63619 0.0
C500 C 0.31102 0.61659 0.64416 0.0
C501 C 0.33824 0.59723 0.6442 0.0
C502 C 0.26464 0.58955 0.64441 0.0
C503 C 0.24484 0.54283 0.64441 0.0
C504 C 0.27197 0.5236 0.64306 0.0
C505 C 0.31816 0.55048 0.64313 0.0
C506 C 0.19612 0.51379 0.64756 0.0
C507 C 0.1717 0.48252 0.62906 0.0
C508 C 0.17404 0.51593 0.66911 0.0
C509 C 0.19846 0.5466 0.68987 0.0
C510 C 0.23313 0.54429 0.70189 0.0
C511 C 0.25643 0.57371 0.7212 0.0
C512 C 0.24506 0.60533 0.72882 0.0
C513 C 0.21029 0.60749 0.71718 0.0
C514 C 0.18697 0.57822 0.69781 0.0
C515 C 0.98939 0.38277 0.68104 0.0
C516 C 0.96137 0.38627 0.66351 0.0
C517 C 0.03537 0.40438 0.67714 0.0
C518 C 0.05421 0.42954 0.65558 0.0
C519 C 0.02607 0.43123 0.63752 0.0
C520 C 0.98017 0.40969 0.64139 0.0
C521 C 0.10332 0.4566 0.65272 0.0
C522 C 0.12794 0.48763 0.67131 0.0
C523 C 0.12562 0.45373 0.6314 0.0
C524 C 0.10185 0.4204 0.61162 0.0
C525 C 0.10461 0.43416 0.58688 0.0
C526 C 0.0818 0.40283 0.56826 0.0
C527 C 0.0563 0.35759 0.57413 0.0
C528 C 0.0537 0.34357 0.59863 0.0
C529 C 0.07645 0.37475 0.61732 0.0
H530 H 0.03864 0.3334 0.55969 0.0
H531 H 0.26313 0.62807 0.74377 0.0
H532 H 0.38126 0.68795 0.32835 0.0
H533 H 0.43331 0.66046 0.33195 0.0
H534 H 0.53861 0.78499 0.30336 0.0
H535 H 0.48647 0.8129 0.29948 0.0
H536 H 0.54259 0.71477 0.28408 0.0
H537 H 0.53578 0.76687 0.36441 0.0
H538 H 0.49992 0.77581 0.40174 0.0
H539 H 0.43601 0.63491 0.41531 0.0
H540 H 0.47067 0.62509 0.37771 0.0
H541 H 0.66802 0.62396 0.36753 0.0
H542 H 0.63698 0.67305 0.36131 0.0
H543 H 0.56127 0.59281 0.29911 0.0
H544 H 0.59287 0.54464 0.30471 0.0
H545 H 0.55528 0.6557 0.36547 0.0
H546 H 0.54024 0.65079 0.2578 0.0
H547 H 0.58242 0.64933 0.22137 0.0
H548 H 0.70282 0.7103 0.26396 0.0
H549 H 0.6615 0.71271 0.30055 0.0
C550 C 0.41537 0.70951 0.3226 0.0
C551 C 0.42968 0.75283 0.31378 0.0
C552 C 0.44518 0.69378 0.32483 0.0
C553 C 0.49005 0.72097 0.31839 0.0
C554 C 0.50419 0.76355 0.3086 0.0
C555 C 0.47431 0.77942 0.30639 0.0
C556 C 0.52193 0.70474 0.32224 0.0
C557 C 0.54561 0.70205 0.30187 0.0
C558 C 0.52697 0.6895 0.34565 0.0
C559 C 0.50591 0.69522 0.36827 0.0
C560 C 0.51388 0.73776 0.37528 0.0
C561 C 0.49373 0.743 0.39648 0.0
C562 C 0.46571 0.70596 0.4109 0.0
C563 C 0.45777 0.6636 0.40415 0.0
C564 C 0.47774 0.65818 0.38293 0.0
C565 C 0.64554 0.61736 0.35219 0.0
C566 C 0.63308 0.58032 0.3366 0.0
C567 C 0.62756 0.6453 0.34876 0.0
C568 C 0.59699 0.63695 0.32961 0.0
C569 C 0.58541 0.60064 0.31371 0.0
C570 C 0.60344 0.57289 0.31703 0.0
C571 C 0.57489 0.66417 0.32705 0.0
C572 C 0.55288 0.6689 0.34769 0.0
C573 C 0.57241 0.6824 0.30401 0.0
C574 C 0.59766 0.68164 0.28198 0.0
C575 C 0.57575 0.66412 0.25936 0.0
C576 C 0.59951 0.66307 0.23869 0.0
C577 C 0.64525 0.67961 0.24036 0.0
C578 C 0.66736 0.69736 0.2627 0.0
C579 C 0.64378 0.69853 0.28343 0.0
H580 H 0.66357 0.67873 0.22434 0.0
H581 H 0.45018 0.71006 0.42732 0.0
H582 H 0.0631 0.36564 0.99545 0.0
H583 H 0.98526 0.31427 0.00749 0.0
H584 H 0.96323 0.42603 0.01416 0.0
H585 H 0.03953 0.47646 0.00366 0.0
H586 H 0.92276 0.37409 0.04949 0.0
H587 H 0.93422 0.35199 0.96036 0.0
H588 H 0.96216 0.32927 0.92433 0.0
H589 H 0.91198 0.19893 0.95579 0.0
H590 H 0.88409 0.22108 0.99209 0.0
H591 H 0.70639 0.31778 0.01373 0.0
H592 H 0.78599 0.3438 0.01561 0.0
H593 H 0.7578 0.20946 0.02918 0.0
H594 H 0.67794 0.18306 0.02755 0.0
H595 H 0.82266 0.25515 0.99135 0.0
H596 H 0.79486 0.27717 0.07558 0.0
H597 H 0.76434 0.30293 0.10887 0.0
H598 H 0.84459 0.43815 0.08417 0.0
H599 H 0.87512 0.41315 0.0505 0.0
C600 C 0.04163 0.37905 -0.00018 0.0
C601 C 0.05773 0.42523 0.99834 0.0
C602 C 0.99707 0.3497 0.00655 0.0
C603 C 0.96796 0.36612 0.01154 0.0
C604 C 0.98467 0.41222 0.01062 0.0
C605 C 0.02869 0.44121 0.00435 0.0
C606 C 0.9196 0.33664 0.01682 0.0
C607 C 0.90099 0.34802 0.03675 0.0
C608 C 0.89089 0.30153 0.0008 0.0
C609 C 0.90763 0.28833 0.97903 0.0
C610 C 0.92942 0.31859 0.95963 0.0
C611 C 0.94519 0.30581 0.93916 0.0
C612 C 0.93898 0.26274 0.93781 0.0
C613 C 0.91686 0.23231 0.95689 0.0
C614 C 0.90107 0.24495 0.9774 0.0
C615 C 0.71704 0.29376 0.0173 0.0
C616 C 0.68573 0.24835 0.02051 0.0
C617 C 0.76256 0.30869 0.01841 0.0
C618 C 0.77779 0.27855 0.02262 0.0
C619 C 0.74673 0.23323 0.02592 0.0
C620 C 0.70112 0.21831 0.02511 0.0
C621 C 0.82626 0.29476 0.023 0.0
C622 C 0.84462 0.28054 0.00436 0.0
C623 C 0.85482 0.32794 0.0399 0.0
C624 C 0.83717 0.34322 0.06045 0.0
C625 C 0.80585 0.31237 0.07717 0.0
C626 C 0.78855 0.32684 0.09612 0.0
C627 C 0.80248 0.37214 0.09862 0.0
C628 C 0.83385 0.40308 0.08222 0.0
C629 C 0.85122 0.38878 0.06323 0.0
H630 H 0.78901 0.38327 0.11328 0.0
H631 H 0.95121 0.2529 0.92196 0.0
H632 H 0.63883 0.70113 0.68169 0.0
H633 H 0.69203 0.6746 0.68935 0.0
H634 H 0.60935 0.5558 0.64699 0.0
H635 H 0.5567 0.58131 0.63958 0.0
H636 H 0.66471 0.58091 0.71144 0.0
H637 H 0.68447 0.54373 0.60978 0.0
H638 H 0.68569 0.57365 0.56822 0.0
H639 H 0.73469 0.70439 0.59907 0.0
H640 H 0.73465 0.67545 0.64075 0.0
H641 H 0.70251 0.39913 0.68346 0.0
H642 H 0.67585 0.45277 0.68381 0.0
H643 H 0.81093 0.56151 0.68016 0.0
H644 H 0.83796 0.50834 0.68046 0.0
H645 H 0.74551 0.55799 0.64224 0.0
H646 H 0.76931 0.55658 0.73007 0.0
H647 H 0.76124 0.51977 0.77032 0.0
H648 H 0.61943 0.46066 0.76608 0.0
H649 H 0.62661 0.49657 0.7256 0.0
C650 C 0.63245 0.6696 0.67392 0.0
C651 C 0.59355 0.64314 0.66025 0.0
C652 C 0.66256 0.65441 0.67839 0.0
C653 C 0.65446 0.61328 0.66864 0.0
C654 C 0.61623 0.58764 0.65455 0.0
C655 C 0.58611 0.60227 0.65045 0.0
C656 C 0.68463 0.59541 0.67325 0.0
C657 C 0.68318 0.57667 0.69649 0.0
C658 C 0.70799 0.58928 0.65356 0.0
C659 C 0.70937 0.60733 0.62844 0.0
C660 C 0.69595 0.57896 0.60768 0.0
C661 C 0.6964 0.59574 0.58409 0.0
C662 C 0.7102 0.64088 0.58101 0.0
C663 C 0.72386 0.66939 0.60149 0.0
C664 C 0.72361 0.65281 0.62511 0.0
C665 C 0.72653 0.43447 0.68298 0.0
C666 C 0.77231 0.44947 0.68191 0.0
C667 C 0.71128 0.46502 0.68326 0.0
C668 C 0.7415 0.51101 0.68206 0.0
C669 C 0.78717 0.52614 0.68118 0.0
C670 C 0.80249 0.49568 0.68142 0.0
C671 C 0.72511 0.54304 0.68032 0.0
C672 C 0.72842 0.56359 0.65746 0.0
C673 C 0.70291 0.55021 0.70022 0.0
C674 C 0.69851 0.52906 0.72472 0.0
C675 C 0.73639 0.53547 0.73763 0.0
C676 C 0.73197 0.51481 0.76051 0.0
C677 C 0.68984 0.48783 0.77074 0.0
C678 C 0.65204 0.48156 0.75814 0.0
C679 C 0.65628 0.50211 0.73524 0.0
H680 H 0.68649 0.47184 0.78844 0.0
H681 H 0.71033 0.65376 0.56275 0.0
H682 H 0.63029 0.3127 0.33411 0.0
H683 H 0.5806 0.2322 0.33235 0.0
H684 H 0.47378 0.24813 0.36171 0.0
H685 H 0.52365 0.32889 0.36403 0.0
H686 H 0.47213 0.17829 0.38222 0.0
H687 H 0.48081 0.22971 0.29894 0.0
H688 H 0.51535 0.26722 0.25958 0.0
H689 H 0.57505 0.18519 0.25155 0.0
H690 H 0.54147 0.14767 0.29104 0.0
H691 H 0.33945 0.95885 0.30216 0.0
H692 H 0.37294 0.03911 0.30858 0.0
H693 H 0.44761 0.03197 0.37038 0.0
H694 H 0.41366 0.95163 0.36445 0.0
H695 H 0.45703 0.0983 0.3033 0.0
H696 H 0.47437 0.11747 0.41025 0.0
H697 H 0.43258 0.07767 0.44765 0.0
H698 H 0.31079 0.01812 0.4063 0.0
H699 H 0.35174 0.058 0.36875 0.0
C700 C 0.59629 0.29917 0.34035 0.0
C701 C 0.58093 0.32741 0.34905 0.0
C702 C 0.56781 0.25306 0.33917 0.0
C703 C 0.52314 0.23408 0.34641 0.0
C704 C 0.50802 0.26199 0.35588 0.0
C705 C 0.53661 0.30819 0.35719 0.0
C706 C 0.49234 0.1852 0.34398 0.0
C707 C 0.46877 0.16082 0.36495 0.0
C708 C 0.4872 0.16235 0.32134 0.0
C709 C 0.5088 0.18606 0.29804 0.0
C710 C 0.5017 0.22001 0.28893 0.0
C711 C 0.52102 0.2412 0.26656 0.0
C712 C 0.54726 0.22848 0.25306 0.0
C713 C 0.5547 0.19497 0.26203 0.0
C714 C 0.53554 0.17375 0.2844 0.0
C715 C 0.36217 0.97409 0.31751 0.0
C716 C 0.37393 0.94864 0.33273 0.0
C717 C 0.38152 0.02011 0.32105 0.0
C718 C 0.41285 0.0417 0.33995 0.0
C719 C 0.42311 0.0161 0.35587 0.0
C720 C 0.40371 0.97005 0.3524 0.0
C721 C 0.43757 0.09125 0.34167 0.0
C722 C 0.46016 0.11576 0.32056 0.0
C723 C 0.44124 0.1142 0.36406 0.0
C724 C 0.41622 0.09046 0.38663 0.0
C725 C 0.43865 0.09604 0.40916 0.0
C726 C 0.41511 0.07343 0.43039 0.0
C727 C 0.36908 0.04529 0.42933 0.0
C728 C 0.34647 0.0398 0.40707 0.0
C729 C 0.36984 0.06235 0.3858 0.0
H730 H 0.35093 0.0278 0.44578 0.0
H731 H 0.56165 0.24443 0.23558 0.0
H732 H 0.49698 0.26447 0.09119 0.0
H733 H 0.51757 0.30554 0.13031 0.0
H734 H 0.65619 0.3662 0.11068 0.0
H735 H 0.63605 0.32518 0.07156 0.0
H736 H 0.63792 0.32979 0.15747 0.0
H737 H 0.60642 0.42744 0.10922 0.0
H738 H 0.56048 0.44504 0.0819 0.0
H739 H 0.45851 0.39911 0.13749 0.0
H740 H 0.50359 0.38065 0.16503 0.0
H741 H 0.71454 0.46951 0.26203 0.0
H742 H 0.70118 0.44813 0.21836 0.0
H743 H 0.56013 0.39107 0.22981 0.0
H744 H 0.57313 0.41312 0.27324 0.0
H745 H 0.5835 0.4306 0.18565 0.0
H746 H 0.60864 0.32844 0.23252 0.0
H747 H 0.6488 0.30423 0.26025 0.0
H748 H 0.75646 0.35151 0.20814 0.0
H749 H 0.71713 0.37656 0.18022 0.0
C750 C 0.53184 0.28683 0.09508 0.0
C751 C 0.56488 0.2916 0.07825 0.0
C752 C 0.54352 0.3104 0.11739 0.0
C753 C 0.58837 0.33913 0.12324 0.0
C754 C 0.62139 0.34427 0.10642 0.0
C755 C 0.60977 0.32091 0.08406 0.0
C756 C 0.60091 0.36207 0.14748 0.0
C757 C 0.62684 0.35257 0.16347 0.0
C758 C 0.5851 0.39057 0.15549 0.0
C759 C 0.55827 0.40236 0.13912 0.0
C760 C 0.57409 0.42084 0.11557 0.0
C761 C 0.54821 0.43101 0.10004 0.0
C762 C 0.50656 0.42311 0.10793 0.0
C763 C 0.49077 0.40518 0.1314 0.0
C764 C 0.5165 0.39493 0.14699 0.0
C765 C 0.68073 0.45296 0.25519 0.0
C766 C 0.64486 0.44243 0.27121 0.0
C767 C 0.67316 0.44073 0.23024 0.0
C768 C 0.6296 0.41734 0.22098 0.0
C769 C 0.59399 0.40903 0.23659 0.0
C770 C 0.60152 0.4215 0.26147 0.0
C771 C 0.62072 0.39845 0.19563 0.0
C772 C 0.59524 0.40842 0.17951 0.0
C773 C 0.63631 0.36973 0.1876 0.0
C774 C 0.66013 0.35481 0.20439 0.0
C775 C 0.64103 0.33399 0.22705 0.0
C776 C 0.66362 0.32007 0.2428 0.0
C777 C 0.70521 0.32643 0.23599 0.0
C778 C 0.72426 0.34667 0.21341 0.0
C779 C 0.70182 0.36073 0.19761 0.0
H780 H 0.72265 0.3156 0.2482 0.0
H781 H 0.48656 0.43095 0.09588 0.0
H782 H 0.55621 0.26081 0.93051 0.0
H783 H 0.57951 0.27213 0.88703 0.0
H784 H 0.63196 0.18336 0.89582 0.0
H785 H 0.60881 0.17166 0.93911 0.0
H786 H 0.69276 0.26711 0.87664 0.0
H787 H 0.54139 0.14992 0.86296 0.0
H788 H 0.45991 0.11469 0.86621 0.0
H789 H 0.46413 0.22491 0.82745 0.0
H790 H 0.54576 0.26114 0.82428 0.0
H791 H 0.75463 0.24679 0.75727 0.0
H792 H 0.71503 0.22806 0.79663 0.0
H793 H 0.65866 0.31067 0.77831 0.0
H794 H 0.69774 0.32912 0.73845 0.0
H795 H 0.59823 0.23384 0.80193 0.0
H796 H 0.74548 0.35274 0.81625 0.0
H797 H 0.82718 0.39342 0.81372 0.0
H798 H 0.83124 0.28671 0.85176 0.0
H799 H 0.7493 0.24529 0.85452 0.0
C800 C 0.57225 0.2433 0.92311 0.0
C801 C 0.58104 0.21566 0.93833 0.0
C802 C 0.58533 0.24966 0.89826 0.0
C803 C 0.60742 0.22857 0.88832 0.0
C804 C 0.61498 0.19994 0.90323 0.0
C805 C 0.60166 0.19329 0.92796 0.0
C806 C 0.62582 0.23886 0.86297 0.0
C807 C 0.67204 0.25925 0.86029 0.0
C808 C 0.59881 0.2303 0.8418 0.0
C809 C 0.54974 0.20846 0.84362 0.0
C810 C 0.52499 0.16685 0.85533 0.0
C811 C 0.47877 0.14665 0.85711 0.0
C812 C 0.45687 0.16761 0.8471 0.0
C813 C 0.48114 0.20875 0.83522 0.0
C814 C 0.52739 0.22911 0.83341 0.0
C815 C 0.73357 0.26077 0.76147 0.0
C816 C 0.72971 0.28986 0.74487 0.0
C817 C 0.71098 0.25003 0.78399 0.0
C818 C 0.68458 0.26862 0.79053 0.0
C819 C 0.679 0.29611 0.77359 0.0
C820 C 0.70142 0.30667 0.75089 0.0
C821 C 0.66506 0.2611 0.81564 0.0
C822 C 0.61886 0.24161 0.81831 0.0
C823 C 0.69205 0.27115 0.83694 0.0
C824 C 0.74128 0.29578 0.8354 0.0
C825 C 0.76377 0.33781 0.82393 0.0
C826 C 0.81013 0.36102 0.82249 0.0
C827 C 0.8344 0.34256 0.83247 0.0
C828 C 0.81235 0.30092 0.84402 0.0
C829 C 0.76596 0.27762 0.8456 0.0
H830 H 0.87026 0.3606 0.83136 0.0
H831 H 0.42108 0.15192 0.8485 0.0
H832 H 0.69373 0.37618 0.40348 0.0
H833 H 0.71175 0.35351 0.44266 0.0
H834 H 0.80903 0.49042 0.45838 0.0
H835 H 0.79073 0.51361 0.4194 0.0
H836 H 0.8354 0.42308 0.46983 0.0
H837 H 0.72029 0.45988 0.48504 0.0
H838 H 0.6485 0.45576 0.47708 0.0
H839 H 0.58017 0.31439 0.48953 0.0
H840 H 0.65176 0.31769 0.49745 0.0
H841 H 0.8589 0.43565 0.59976 0.0
H842 H 0.84841 0.44379 0.55593 0.0
H843 H 0.73676 0.30968 0.55405 0.0
H844 H 0.74658 0.30135 0.59823 0.0
H845 H 0.71661 0.36807 0.53365 0.0
H846 H 0.83374 0.3349 0.52514 0.0
H847 H 0.90654 0.34186 0.534 0.0
H848 H 0.97252 0.47782 0.5092 0.0
H849 H 0.90008 0.47192 0.50054 0.0
C850 C 0.71947 0.40139 0.41508 0.0
C851 C 0.74068 0.4467 0.40847 0.0
C852 C 0.72964 0.38838 0.43743 0.0
C853 C 0.76157 0.42036 0.45331 0.0
C854 C 0.78438 0.46533 0.44625 0.0
C855 C 0.77372 0.47849 0.42408 0.0
C856 C 0.76854 0.40736 0.47818 0.0
C857 C 0.80966 0.41125 0.4839 0.0
C858 C 0.73446 0.39111 0.49619 0.0
C859 C 0.69136 0.38894 0.49152 0.0
C860 C 0.68998 0.42785 0.48586 0.0
C861 C 0.64933 0.42569 0.4814 0.0
C862 C 0.60979 0.38481 0.48265 0.0
C863 C 0.61083 0.34602 0.4885 0.0
C864 C 0.65143 0.34802 0.49302 0.0
C865 C 0.83234 0.40763 0.59004 0.0
C866 C 0.80337 0.36792 0.60257 0.0
C867 C 0.8266 0.41227 0.5649 0.0
C868 C 0.79205 0.37721 0.55168 0.0
C869 C 0.7637 0.3371 0.56393 0.0
C870 C 0.76942 0.33239 0.58915 0.0
C871 C 0.78377 0.38393 0.52558 0.0
C872 C 0.74229 0.37907 0.51957 0.0
C873 C 0.81769 0.39944 0.50738 0.0
C874 C 0.8614 0.40304 0.51235 0.0
C875 C 0.86375 0.36639 0.52173 0.0
C876 C 0.90496 0.37013 0.5267 0.0
C877 C 0.94413 0.41028 0.52221 0.0
C878 C 0.94215 0.44674 0.51268 0.0
C879 C 0.90102 0.4432 0.5077 0.0
H880 H 0.976 0.41312 0.52608 0.0
H881 H 0.57835 0.38322 0.47918 0.0
H882 H 0.22895 0.50136 0.88986 0.0
H883 H 0.27327 0.52365 0.8521 0.0
H884 H 0.39146 0.60578 0.8948 0.0
H885 H 0.34712 0.58419 0.93283 0.0
H886 H 0.38707 0.65078 0.85604 0.0
H887 H 0.37795 0.50989 0.86732 0.0
H888 H 0.34209 0.42902 0.8752 0.0
H889 H 0.26048 0.40265 0.81075 0.0
H890 H 0.29598 0.48335 0.80241 0.0
H891 H 0.48231 0.61264 0.731 0.0
H892 H 0.45917 0.59388 0.77418 0.0
H893 H 0.38519 0.66324 0.76941 0.0
H894 H 0.40893 0.68299 0.72655 0.0
H895 H 0.37969 0.54378 0.79236 0.0
H896 H 0.37796 0.70324 0.82505 0.0
H897 H 0.42054 0.7845 0.81816 0.0
H898 H 0.5352 0.77543 0.79751 0.0
H899 H 0.49355 0.69425 0.80463 0.0
C900 C 0.26441 0.52391 0.89134 0.0
C901 C 0.28435 0.54113 0.91446 0.0
C902 C 0.2898 0.53642 0.86968 0.0
C903 C 0.33579 0.56614 0.87059 0.0
C904 C 0.35602 0.5828 0.89364 0.0
C905 C 0.3306 0.57031 0.91538 0.0
C906 C 0.362 0.58154 0.84728 0.0
C907 C 0.38573 0.62743 0.84216 0.0
C908 C 0.36106 0.55119 0.82936 0.0
C909 C 0.33939 0.50266 0.83436 0.0
C910 C 0.35213 0.48684 0.85494 0.0
C911 C 0.33193 0.44105 0.85947 0.0
C912 C 0.29884 0.41075 0.84359 0.0
C913 C 0.28607 0.42617 0.82306 0.0
C914 C 0.30634 0.47191 0.81836 0.0
C915 C 0.46163 0.62446 0.73924 0.0
C916 C 0.44755 0.64939 0.72525 0.0
C917 C 0.44831 0.61357 0.76392 0.0
C918 C 0.42069 0.62738 0.77516 0.0
C919 C 0.4072 0.6529 0.76136 0.0
C920 C 0.42073 0.66406 0.73676 0.0
C921 C 0.40379 0.61302 0.80079 0.0
C922 C 0.3816 0.56727 0.80631 0.0
C923 C 0.40695 0.64362 0.81925 0.0
C924 C 0.43247 0.69256 0.81519 0.0
C925 C 0.41232 0.71861 0.81916 0.0
C926 C 0.43629 0.76466 0.81519 0.0
C927 C 0.4805 0.78509 0.80733 0.0
C928 C 0.5009 0.75954 0.80351 0.0
C929 C 0.47711 0.71349 0.80748 0.0
H930 H 0.49898 0.82074 0.80425 0.0
H931 H 0.28321 0.37532 0.84716 0.0
H932 H 0.41706 0.75433 0.60071 0.0
H933 H 0.38981 0.77015 0.56235 0.0
H934 H 0.4867 0.75406 0.52042 0.0
H935 H 0.51402 0.73828 0.5584 0.0
H936 H 0.48049 0.82764 0.50587 0.0
H937 H 0.38272 0.67023 0.52433 0.0
H938 H 0.33039 0.6086 0.55117 0.0
H939 H 0.24181 0.66143 0.55111 0.0
H940 H 0.294 0.7238 0.52456 0.0
H941 H 0.41934 0.78427 0.38363 0.0
H942 H 0.43484 0.77707 0.42676 0.0
H943 H 0.31611 0.77828 0.44916 0.0
H944 H 0.2992 0.78335 0.40534 0.0
H945 H 0.32753 0.72147 0.47711 0.0
H946 H 0.4206 0.87391 0.45441 0.0
H947 H 0.47297 0.93596 0.42782 0.0
H948 H 0.57005 0.89481 0.43659 0.0
H949 H 0.51807 0.83219 0.46298 0.0
C950 C 0.43291 0.75475 0.58335 0.0
C951 C 0.46767 0.745 0.5826 0.0
C952 C 0.41715 0.76355 0.56147 0.0
C953 C 0.43607 0.76295 0.53858 0.0
C954 C 0.47169 0.75471 0.53792 0.0
C955 C 0.48718 0.74559 0.55966 0.0
C956 C 0.41828 0.76936 0.51502 0.0
C957 C 0.44708 0.80446 0.49955 0.0
C958 C 0.3742 0.7399 0.50719 0.0
C959 C 0.34247 0.70193 0.52271 0.0
C960 C 0.35222 0.66886 0.53018 0.0
C961 C 0.32258 0.63378 0.54533 0.0
C962 C 0.28287 0.63118 0.55292 0.0
C963 C 0.27263 0.66354 0.54527 0.0
C964 C 0.30221 0.69875 0.53016 0.0
C965 C 0.39642 0.78285 0.39774 0.0
C966 C 0.35849 0.78515 0.39133 0.0
C967 C 0.40538 0.77889 0.42239 0.0
C968 C 0.37748 0.77865 0.44129 0.0
C969 C 0.3384 0.77897 0.43489 0.0
C970 C 0.32878 0.7819 0.40997 0.0
C971 C 0.3903 0.77901 0.46755 0.0
C972 C 0.36062 0.7453 0.48358 0.0
C973 C 0.43357 0.81001 0.47604 0.0
C974 C 0.46539 0.84832 0.46066 0.0
C975 C 0.45309 0.87806 0.45063 0.0
C976 C 0.4827 0.91331 0.43558 0.0
C977 C 0.52481 0.91932 0.43052 0.0
C978 C 0.53745 0.89016 0.44056 0.0
C979 C 0.50797 0.85484 0.45562 0.0
H980 H 0.54765 0.94659 0.41882 0.0
H981 H 0.25999 0.60403 0.56467 0.0
H982 H 0.14851 0.5712 0.05751 0.0
H983 H 0.15785 0.59702 0.10048 0.0
H984 H 0.27802 0.59009 0.10605 0.0
H985 H 0.26963 0.56534 0.06279 0.0
H986 H 0.2115 0.55417 0.14915 0.0
H987 H 0.29758 0.68263 0.09652 0.0
H988 H 0.30764 0.73122 0.06086 0.0
H989 H 0.20658 0.75597 0.08952 0.0
H990 H 0.19527 0.70673 0.12511 0.0
H991 H 0.31481 0.68947 0.25458 0.0
H992 H 0.29605 0.65166 0.21446 0.0
H993 H 0.20524 0.70002 0.20034 0.0
H994 H 0.22488 0.739 0.24009 0.0
H995 H 0.25402 0.71276 0.16125 0.0
H996 H 0.16874 0.58872 0.21438 0.0
H997 H 0.15455 0.53837 0.24974 0.0
H998 H 0.24815 0.50329 0.2206 0.0
H999 H 0.26337 0.55393 0.18522 0.0
C1000 C 0.17655 0.57446 0.06798 0.0
C1001 C 0.20848 0.56643 0.05677 0.0
C1002 C 0.18186 0.58931 0.09247 0.0
C1003 C 0.21868 0.59556 0.10627 0.0
C1004 C 0.24938 0.58537 0.09561 0.0
C1005 C 0.24461 0.57141 0.07093 0.0
C1006 C 0.22669 0.61562 0.13124 0.0
C1007 C 0.22127 0.58894 0.1519 0.0
C1008 C 0.23819 0.66063 0.13463 0.0
C1009 C 0.24517 0.6905 0.11332 0.0
C1010 C 0.27713 0.698 0.09508 0.0
C1011 C 0.28314 0.72575 0.0749 0.0
C1012 C 0.25768 0.74657 0.07289 0.0
C1013 C 0.22622 0.73975 0.09108 0.0
C1014 C 0.21999 0.71192 0.11125 0.0
C1015 C 0.29046 0.69161 0.24305 0.0
C1016 C 0.2714 0.71728 0.25049 0.0
C1017 C 0.27965 0.66987 0.22013 0.0
C1018 C 0.24894 0.67266 0.2044 0.0
C1019 C 0.22915 0.6975 0.21207 0.0
C1020 C 0.24034 0.71969 0.23484 0.0
C1021 C 0.23899 0.6514 0.17951 0.0
C1022 C 0.24406 0.6779 0.15872 0.0
C1023 C 0.22666 0.60606 0.17605 0.0
C1024 C 0.21749 0.57544 0.19726 0.0
C1025 C 0.18655 0.57053 0.2156 0.0
C1026 C 0.17828 0.54189 0.23563 0.0
C1027 C 0.20052 0.51773 0.23744 0.0
C1028 C 0.23099 0.52207 0.21918 0.0
C1029 C 0.23941 0.55069 0.19912 0.0
H1030 H 0.19407 0.49557 0.25297 0.0
H1031 H 0.26243 0.76808 0.05727 0.0
loop_
_geom_bond_atom_site_label_1
_geom_bond_atom_site_label_2
_geom_bond_distance
_geom_bond_site_symmetry_2
_ccdc_geom_bond_type
Fe0 O2 1.918 . S
Fe0 O5 1.997 . S
Fe0 O6 2.002 . S
Fe0 O11 1.976 . S
Fe0 O14 1.996 . S
Fe1 O2 1.918 . S
Fe1 O9 1.997 . S
Fe1 O12 1.996 . S
Fe1 O16 1.976 1_554 S
Fe1 O19 2.002 . S
O2 Fe0 1.918 . S
O2 Fe1 1.918 . S
O2 Fe3 1.918 . S
Fe3 O2 1.918 . S
Fe3 O4 2.002 . S
Fe3 O13 1.976 . S
Fe3 O17 1.996 1_554 S
Fe3 O20 1.997 . S
O4 Fe3 2.002 . S
O4 C21 1.295 . S
O5 Fe0 1.997 . S
O5 C21 1.235 . S
O6 Fe0 2.002 . S
O6 C7 1.295 . S
C7 O6 1.295 . S
C7 O9 1.235 . S
C8 O13 1.287 . S
C8 O14 1.255 . S
O9 Fe1 1.997 . S
O9 C7 1.235 . S
C10 O16 1.287 . S
C10 O17 1.255 . S
O11 Fe0 1.976 . S
O11 C18 1.287 . S
O12 Fe1 1.996 . S
O12 C18 1.255 . S
O13 Fe3 1.976 . S
O13 C8 1.287 . S
O14 Fe0 1.996 . S
O14 C8 1.255 . S
C15 O19 1.295 . S
C15 O20 1.235 . S
O16 Fe1 1.976 1_556 S
O16 C10 1.287 . S
O17 Fe3 1.996 1_556 S
O17 C10 1.255 . S
C18 O11 1.287 . S
C18 O12 1.255 . S
O19 Fe1 2.002 . S
O19 C15 1.295 . S
O20 Fe3 1.997 . S
O20 C15 1.235 . S
C21 O4 1.295 . S
C21 O5 1.235 . S
Fe22 O24 1.918 . S
Fe22 O27 1.997 . S
Fe22 O28 2.002 . S
Fe22 O33 1.976 . S
Fe22 O36 1.996 . S
Fe23 O24 1.918 . S
Fe23 O31 1.997 . S
Fe23 O34 1.996 . S
Fe23 O38 1.976 . S
Fe23 O41 2.002 . S
O24 Fe22 1.918 . S
O24 Fe23 1.918 . S
O24 Fe25 1.918 . S
Fe25 O24 1.918 . S
Fe25 O26 2.002 . S
Fe25 O35 1.976 . S
Fe25 O39 1.996 . S
Fe25 O42 1.997 . S
O26 Fe25 2.002 . S
O26 C43 1.295 . S
O27 Fe22 1.997 . S
O27 C43 1.235 . S
O28 Fe22 2.002 . S
O28 C29 1.295 . S
C29 O28 1.295 . S
C29 O31 1.235 . S
C30 O35 1.287 . S
C30 O36 1.255 . S
O31 Fe23 1.997 . S
O31 C29 1.235 . S
C32 O38 1.287 . S
C32 O39 1.255 . S
O33 Fe22 1.976 . S
O33 C40 1.287 . S
O34 Fe23 1.996 . S
O34 C40 1.255 . S
O35 Fe25 1.976 . S
O35 C30 1.287 . S
O36 Fe22 1.996 . S
O36 C30 1.255 . S
C37 O41 1.295 . S
C37 O42 1.235 . S
O38 Fe23 1.976 . S
O38 C32 1.287 . S
O39 Fe25 1.996 . S
O39 C32 1.255 . S
C40 O33 1.287 . S
C40 O34 1.255 . S
O41 Fe23 2.002 . S
O41 C37 1.295 . S
O42 Fe25 1.997 . S
O42 C37 1.235 . S
C43 O26 1.295 . S
C43 O27 1.235 . S
Fe44 O46 1.918 . S
Fe44 O49 1.997 . S
Fe44 O50 2.002 . S
Fe44 O55 1.976 . S
Fe44 O58 1.996 . S
Fe45 O46 1.918 . S
Fe45 O53 1.997 . S
Fe45 O56 1.996 . S
Fe45 O60 1.976 . S
Fe45 O63 2.002 . S
O46 Fe44 1.918 . S
O46 Fe45 1.918 . S
O46 Fe47 1.918 . S
Fe47 O46 1.918 . S
Fe47 O48 2.002 . S
Fe47 O57 1.976 . S
Fe47 O61 1.996 . S
Fe47 O64 1.997 . S
O48 Fe47 2.002 . S
O48 C65 1.295 . S
O49 Fe44 1.997 . S
O49 C65 1.235 . S
O50 Fe44 2.002 . S
O50 C51 1.295 . S
C51 O50 1.295 . S
C51 O53 1.235 . S
C52 O57 1.287 . S
C52 O58 1.255 . S
O53 Fe45 1.997 . S
O53 C51 1.235 . S
C54 O60 1.287 . S
C54 O61 1.255 . S
O55 Fe44 1.976 . S
O55 C62 1.287 . S
O56 Fe45 1.996 . S
O56 C62 1.255 . S
O57 Fe47 1.976 . S
O57 C52 1.287 . S
O58 Fe44 1.996 . S
O58 C52 1.255 . S
C59 O63 1.295 . S
C59 O64 1.235 . S
O60 Fe45 1.976 . S
O60 C54 1.287 . S
O61 Fe47 1.996 . S
O61 C54 1.255 . S
C62 O55 1.287 . S
C62 O56 1.255 . S
O63 Fe45 2.002 . S
O63 C59 1.295 . S
O64 Fe47 1.997 . S
O64 C59 1.235 . S
C65 O48 1.295 . S
C65 O49 1.235 . S
Fe66 O68 1.918 . S
Fe66 O71 1.997 . S
Fe66 O72 2.002 . S
Fe66 O77 1.976 . S
Fe66 O80 1.996 1_556 S
Fe67 O68 1.918 . S
Fe67 O75 1.997 . S
Fe67 O78 1.996 . S
Fe67 O82 1.976 . S
Fe67 O85 2.002 . S
O68 Fe66 1.918 . S
O68 Fe67 1.918 . S
O68 Fe69 1.918 . S
Fe69 O68 1.918 . S
Fe69 O70 2.002 . S
Fe69 O79 1.976 1_556 S
Fe69 O83 1.996 . S
Fe69 O86 1.997 . S
O70 Fe69 2.002 . S
O70 C87 1.295 . S
O71 Fe66 1.997 . S
O71 C87 1.235 . S
O72 Fe66 2.002 . S
O72 C73 1.295 . S
C73 O72 1.295 . S
C73 O75 1.235 . S
C74 O79 1.287 . S
C74 O80 1.255 . S
O75 Fe67 1.997 . S
O75 C73 1.235 . S
C76 O82 1.287 . S
C76 O83 1.255 . S
O77 Fe66 1.976 . S
O77 C84 1.287 . S
O78 Fe67 1.996 . S
O78 C84 1.255 . S
O79 Fe69 1.976 1_554 S
O79 C74 1.287 . S
O80 Fe66 1.996 1_554 S
O80 C74 1.255 . S
C81 O85 1.295 . S
C81 O86 1.235 . S
O82 Fe67 1.976 . S
O82 C76 1.287 . S
O83 Fe69 1.996 . S
O83 C76 1.255 . S
C84 O77 1.287 . S
C84 O78 1.255 . S
O85 Fe67 2.002 . S
O85 C81 1.295 . S
O86 Fe69 1.997 . S
O86 C81 1.235 . S
C87 O70 1.295 . S
C87 O71 1.235 . S
Fe88 O90 1.918 . S
Fe88 O93 1.997 . S
Fe88 O94 2.002 . S
Fe88 O99 1.976 . S
Fe88 O102 1.996 . S
Fe89 O90 1.918 . S
Fe89 O97 1.997 . S
Fe89 O100 1.996 . S
Fe89 O104 1.976 . S
Fe89 O107 2.002 . S
O90 Fe88 1.918 . S
O90 Fe89 1.918 . S
O90 Fe91 1.918 . S
Fe91 O90 1.918 . S
Fe91 O92 2.002 . S
Fe91 O101 1.976 . S
Fe91 O105 1.996 . S
Fe91 O108 1.997 . S
O92 Fe91 2.002 . S
O92 C109 1.295 . S
O93 Fe88 1.997 . S
O93 C109 1.235 . S
O94 Fe88 2.002 . S
O94 C95 1.295 . S
C95 O94 1.295 . S
C95 O97 1.235 . S
C96 O101 1.287 . S
C96 O102 1.255 . S
O97 Fe89 1.997 . S
O97 C95 1.235 . S
C98 O104 1.287 . S
C98 O105 1.255 . S
O99 Fe88 1.976 . S
O99 C106 1.287 . S
O100 Fe89 1.996 . S
O100 C106 1.255 . S
O101 Fe91 1.976 . S
O101 C96 1.287 . S
O102 Fe88 1.996 . S
O102 C96 1.255 . S
C103 O107 1.295 . S
C103 O108 1.235 . S
O104 Fe89 1.976 . S
O104 C98 1.287 . S
O105 Fe91 1.996 . S
O105 C98 1.255 . S
C106 O99 1.287 . S
C106 O100 1.255 . S
O107 Fe89 2.002 . S
O107 C103 1.295 . S
O108 Fe91 1.997 . S
O108 C103 1.235 . S
C109 O92 1.295 . S
C109 O93 1.235 . S
Fe110 O112 1.918 . S
Fe110 O115 1.997 . S
Fe110 O116 2.002 . S
Fe110 O121 1.976 . S
Fe110 O124 1.996 . S
Fe111 O112 1.918 . S
Fe111 O119 1.997 . S
Fe111 O122 1.996 . S
Fe111 O126 1.976 . S
Fe111 O129 2.002 . S
O112 Fe110 1.918 . S
O112 Fe111 1.918 . S
O112 Fe113 1.918 . S
Fe113 O112 1.918 . S
Fe113 O114 2.002 . S
Fe113 O123 1.976 . S
Fe113 O127 1.996 . S
Fe113 O130 1.997 . S
O114 Fe113 2.002 . S
O114 C131 1.295 . S
O115 Fe110 1.997 . S
O115 C131 1.235 . S
O116 Fe110 2.002 . S
O116 C117 1.295 . S
C117 O116 1.295 . S
C117 O119 1.235 . S
C118 O123 1.287 . S
C118 O124 1.255 . S
O119 Fe111 1.997 . S
O119 C117 1.235 . S
C120 O126 1.287 . S
C120 O127 1.255 . S
O121 Fe110 1.976 . S
O121 C128 1.287 . S
O122 Fe111 1.996 . S
O122 C128 1.255 . S
O123 Fe113 1.976 . S
O123 C118 1.287 . S
O124 Fe110 1.996 . S
O124 C118 1.255 . S
C125 O129 1.295 . S
C125 O130 1.235 . S
O126 Fe111 1.976 . S
O126 C120 1.287 . S
O127 Fe113 1.996 . S
O127 C120 1.255 . S
C128 O121 1.287 . S
C128 O122 1.255 . S
O129 Fe111 2.002 . S
O129 C125 1.295 . S
O130 Fe113 1.997 . S
O130 C125 1.235 . S
C131 O114 1.295 . S
C131 O115 1.235 . S
H132 C150 0.951 . S
H133 C152 0.951 . S
H134 C154 0.950 . S
H135 C155 0.950 . S
H136 C157 0.950 . S
H137 C160 0.950 . S
H138 C161 0.950 . S
H139 C163 0.950 . S
H140 C164 0.950 . S
H141 C165 0.951 . S
H142 C167 0.951 . S
H143 C169 0.950 . S
H144 C170 0.950 . S
H145 C172 0.950 . S
H146 C175 0.950 . S
H147 C176 0.950 . S
H148 C178 0.950 . S
H149 C179 0.950 . S
C150 H132 0.951 . S
C150 C151 1.366 1_554 S
C150 C152 1.388 . S
C151 C150 1.366 1_556 S
C151 C155 1.385 . S
C152 H133 0.951 . S
C152 C150 1.388 . S
C152 C153 1.366 1_554 S
C153 C152 1.366 1_556 S
C153 C154 1.414 . S
C153 C156 1.499 . S
C154 H134 0.950 . S
C154 C153 1.414 . S
C154 C155 1.374 . S
C155 H135 0.950 . S
C155 C151 1.385 . S
C155 C154 1.374 . S
C156 C153 1.499 . S
C156 C157 1.373 . S
C156 C158 1.397 . S
C157 H136 0.950 . S
C157 C156 1.373 . S
C157 C173 1.369 1_556 S
C158 C156 1.397 . S
C158 C159 1.530 . S
C158 C172 1.369 1_556 S
C159 C158 1.530 . S
C159 C160 1.397 . S
C159 C164 1.363 1_556 S
C160 H137 0.950 . S
C160 C159 1.397 . S
C160 C161 1.334 . S
C161 H138 0.950 . S
C161 C160 1.334 . S
C161 C162 1.287 . S
C162 C161 1.287 . S
C162 C163 1.524 1_556 S
C162 H181 0.913 . S
C163 H139 0.950 . S
C163 C162 1.524 1_554 S
C163 C164 1.415 . S
C164 H140 0.950 . S
C164 C159 1.363 1_554 S
C164 C163 1.415 . S
C165 H141 0.951 . S
C165 C166 1.366 1_556 S
C165 C167 1.388 . S
C166 C165 1.366 1_554 S
C166 C170 1.385 . S
C167 H142 0.951 . S
C167 C165 1.388 . S
C167 C168 1.366 1_556 S
C168 C167 1.366 1_554 S
C168 C169 1.414 . S
C168 C171 1.499 . S
C169 H143 0.950 . S
C169 C168 1.414 . S
C169 C170 1.374 . S
C170 H144 0.950 . S
C170 C166 1.385 . S
C170 C169 1.374 . S
C171 C168 1.499 . S
C171 C172 1.373 . S
C171 C173 1.397 . S
C172 H145 0.950 . S
C172 C158 1.369 1_554 S
C172 C171 1.373 . S
C173 C157 1.369 1_554 S
C173 C171 1.397 . S
C173 C174 1.530 . S
C174 C173 1.530 . S
C174 C175 1.397 . S
C174 C179 1.363 1_554 S
C175 H146 0.950 . S
C175 C174 1.397 . S
C175 C176 1.334 . S
C176 H147 0.950 . S
C176 C175 1.334 . S
C176 C177 1.287 . S
C177 C176 1.287 . S
C177 C178 1.524 1_554 S
C177 H180 0.999 . S
C178 H148 0.950 . S
C178 C177 1.524 1_556 S
C178 C179 1.415 . S
C179 H149 0.950 . S
C179 C174 1.363 1_556 S
C179 C178 1.415 . S
H180 C177 0.999 . S
H181 C162 0.913 . S
H182 C200 0.951 . S
H183 C202 0.951 . S
H184 C204 0.950 . S
H185 C205 0.950 . S
H186 C207 0.950 . S
H187 C210 0.950 . S
H188 C211 0.950 . S
H189 C213 0.950 . S
H190 C214 0.950 . S
H191 C215 0.951 . S
H192 C217 0.951 . S
H193 C219 0.950 . S
H194 C220 0.950 . S
H195 C222 0.950 . S
H196 C225 0.950 . S
H197 C226 0.950 . S
H198 C228 0.950 . S
H199 C229 0.950 . S
C200 H182 0.951 . S
C200 C201 1.366 . S
C200 C202 1.388 . S
C201 C200 1.366 . S
C201 C205 1.385 . S
C202 H183 0.951 . S
C202 C200 1.388 . S
C202 C203 1.366 . S
C203 C202 1.366 . S
C203 C204 1.414 . S
C203 C206 1.499 . S
C204 H184 0.950 . S
C204 C203 1.414 . S
C204 C205 1.374 . S
C205 H185 0.950 . S
C205 C201 1.385 . S
C205 C204 1.374 . S
C206 C203 1.499 . S
C206 C207 1.373 . S
C206 C208 1.389 . S
C207 H186 0.950 . S
C207 C206 1.373 . S
C207 C223 1.377 1_545 S
C208 C206 1.389 . S
C208 C209 1.524 . S
C208 C222 1.377 1_545 S
C209 C208 1.524 . S
C209 C210 1.397 . S
C209 C214 1.363 . S
C210 H187 0.950 . S
C210 C209 1.397 . S
C210 C211 1.334 . S
C211 H188 0.950 . S
C211 C210 1.334 . S
C211 C212 1.287 . S
C212 C211 1.287 . S
C212 C213 1.524 . S
C212 H231 0.913 . S
C213 H189 0.950 . S
C213 C212 1.524 . S
C213 C214 1.415 . S
C214 H190 0.950 . S
C214 C209 1.363 . S
C214 C213 1.415 . S
C215 H191 0.951 . S
C215 C216 1.366 . S
C215 C217 1.388 . S
C216 C215 1.366 . S
C216 C220 1.385 . S
C217 H192 0.951 . S
C217 C215 1.388 . S
C217 C218 1.366 . S
C218 C217 1.366 . S
C218 C219 1.414 . S
C218 C221 1.499 . S
C219 H193 0.950 . S
C219 C218 1.414 . S
C219 C220 1.374 . S
C220 H194 0.950 . S
C220 C216 1.385 . S
C220 C219 1.374 . S
C221 C218 1.499 . S
C221 C222 1.373 . S
C221 C223 1.389 . S
C222 H195 0.950 . S
C222 C208 1.377 1_565 S
C222 C221 1.373 . S
C223 C207 1.377 1_565 S
C223 C221 1.389 . S
C223 C224 1.524 . S
C224 C223 1.524 . S
C224 C225 1.397 . S
C224 C229 1.363 . S
C225 H196 0.950 . S
C225 C224 1.397 . S
C225 C226 1.334 . S
C226 H197 0.950 . S
C226 C225 1.334 . S
C226 C227 1.287 . S
C227 C226 1.287 . S
C227 C228 1.524 . S
C227 H230 0.999 . S
C228 H198 0.950 . S
C228 C227 1.524 . S
C228 C229 1.415 . S
C229 H199 0.950 . S
C229 C224 1.363 . S
C229 C228 1.415 . S
H230 C227 0.999 . S
H231 C212 0.913 . S
H232 C250 0.951 . S
H233 C252 0.951 . S
H234 C254 0.950 . S
H235 C255 0.950 . S
H236 C257 0.950 . S
H237 C260 0.950 . S
H238 C261 0.950 . S
H239 C263 0.950 . S
H240 C264 0.950 1_655 S
H241 C265 0.951 . S
H242 C267 0.951 . S
H243 C269 0.950 . S
H244 C270 0.950 . S
H245 C272 0.950 . S
H246 C275 0.950 . S
H247 C276 0.950 . S
H248 C278 0.950 . S
H249 C279 0.950 1_455 S
C250 H232 0.951 . S
C250 C251 1.366 . S
C250 C252 1.388 . S
C251 C250 1.366 . S
C251 C255 1.385 . S
C252 H233 0.951 . S
C252 C250 1.388 . S
C252 C253 1.366 . S
C253 C252 1.366 . S
C253 C254 1.414 . S
C253 C256 1.499 . S
C254 H234 0.950 . S
C254 C253 1.414 . S
C254 C255 1.374 . S
C255 H235 0.950 . S
C255 C251 1.385 . S
C255 C254 1.374 . S
C256 C253 1.499 . S
C256 C257 1.373 . S
C256 C258 1.389 . S
C257 H236 0.950 . S
C257 C256 1.373 . S
C257 C273 1.377 1_455 S
C258 C256 1.389 . S
C258 C259 1.524 . S
C258 C272 1.377 1_455 S
C259 C258 1.524 . S
C259 C260 1.397 . S
C259 C264 1.363 . S
C260 H237 0.950 . S
C260 C259 1.397 . S
C260 C261 1.334 . S
C261 H238 0.950 . S
C261 C260 1.334 . S
C261 C262 1.287 . S
C262 C261 1.287 . S
C262 C263 1.524 . S
C262 H281 0.913 . S
C263 H239 0.950 . S
C263 C262 1.524 . S
C263 C264 1.415 . S
C264 H240 0.950 1_455 S
C264 C259 1.363 . S
C264 C263 1.415 . S
C265 H241 0.951 . S
C265 C266 1.366 . S
C265 C267 1.388 . S
C266 C265 1.366 . S
C266 C270 1.385 . S
C267 H242 0.951 . S
C267 C265 1.388 . S
C267 C268 1.366 . S
C268 C267 1.366 . S
C268 C269 1.414 . S
C268 C271 1.499 . S
C269 H243 0.950 . S
C269 C268 1.414 . S
C269 C270 1.374 . S
C270 H244 0.950 . S
C270 C266 1.385 . S
C270 C269 1.374 . S
C271 C268 1.499 . S
C271 C272 1.373 . S
C271 C273 1.389 . S
C272 H245 0.950 . S
C272 C258 1.377 1_655 S
C272 C271 1.373 . S
C273 C257 1.377 1_655 S
C273 C271 1.389 . S
C273 C274 1.524 . S
C274 C273 1.524 . S
C274 C275 1.397 . S
C274 C279 1.363 . S
C275 H246 0.950 . S
C275 C274 1.397 . S
C275 C276 1.334 . S
C276 H247 0.950 . S
C276 C275 1.334 . S
C276 C277 1.287 . S
C277 C276 1.287 . S
C277 C278 1.524 . S
C277 H280 0.999 . S
C278 H248 0.950 . S
C278 C277 1.524 . S
C278 C279 1.415 . S
C279 H249 0.950 1_655 S
C279 C274 1.363 . S
C279 C278 1.415 . S
H280 C277 0.999 . S
H281 C262 0.913 . S
H282 C300 0.951 . S
H283 C302 0.951 . S
H284 C304 0.950 . S
H285 C305 0.950 . S
H286 C307 0.950 . S
H287 C310 0.950 1_565 S
H288 C311 0.950 1_565 S
H289 C313 0.950 . S
H290 C314 0.950 . S
H291 C315 0.951 . S
H292 C317 0.951 . S
H293 C319 0.950 . S
H294 C320 0.950 . S
H295 C322 0.950 . S
H296 C325 0.950 1_545 S
H297 C326 0.950 1_545 S
H298 C328 0.950 . S
H299 C329 0.950 . S
C300 H282 0.951 . S
C300 C301 1.366 . S
C300 C302 1.388 . S
C301 C300 1.366 . S
C301 C305 1.385 . S
C302 H283 0.951 . S
C302 C300 1.388 . S
C302 C303 1.366 . S
C303 C302 1.366 . S
C303 C304 1.414 . S
C303 C306 1.499 . S
C304 H284 0.950 . S
C304 C303 1.414 . S
C304 C305 1.374 . S
C305 H285 0.950 . S
C305 C301 1.385 . S
C305 C304 1.374 . S
C306 C303 1.499 . S
C306 C307 1.373 . S
C306 C308 1.389 1_565 S
C307 H286 0.950 . S
C307 C306 1.373 . S
C307 C323 1.377 . S
C308 C306 1.389 1_545 S
C308 C309 1.524 . S
C308 C322 1.377 . S
C309 C308 1.524 . S
C309 C310 1.397 . S
C309 C314 1.363 . S
C310 H287 0.950 1_545 S
C310 C309 1.397 . S
C310 C311 1.334 . S
C311 H288 0.950 1_545 S
C311 C310 1.334 . S
C311 C312 1.287 . S
C312 C311 1.287 . S
C312 C313 1.524 . S
C312 H331 0.913 . S
C313 H289 0.950 . S
C313 C312 1.524 . S
C313 C314 1.415 . S
C314 H290 0.950 . S
C314 C309 1.363 . S
C314 C313 1.415 . S
C315 H291 0.951 . S
C315 C316 1.366 . S
C315 C317 1.388 . S
C316 C315 1.366 . S
C316 C320 1.385 . S
C317 H292 0.951 . S
C317 C315 1.388 . S
C317 C318 1.366 . S
C318 C317 1.366 . S
C318 C319 1.414 . S
C318 C321 1.499 . S
C319 H293 0.950 . S
C319 C318 1.414 . S
C319 C320 1.374 . S
C320 H294 0.950 . S
C320 C316 1.385 . S
C320 C319 1.374 . S
C321 C318 1.499 . S
C321 C322 1.373 . S
C321 C323 1.389 1_545 S
C322 H295 0.950 . S
C322 C308 1.377 . S
C322 C321 1.373 . S
C323 C307 1.377 . S
C323 C321 1.389 1_565 S
C323 C324 1.524 . S
C324 C323 1.524 . S
C324 C325 1.397 . S
C324 C329 1.363 . S
C325 H296 0.950 1_565 S
C325 C324 1.397 . S
C325 C326 1.334 . S
C326 H297 0.950 1_565 S
C326 C325 1.334 . S
C326 C327 1.287 . S
C327 C326 1.287 . S
C327 C328 1.524 . S
C327 H330 0.999 . S
C328 H298 0.950 . S
C328 C327 1.524 . S
C328 C329 1.415 . S
C329 H299 0.950 . S
C329 C324 1.363 . S
C329 C328 1.415 . S
H330 C327 0.999 . S
H331 C312 0.913 . S
H332 C350 0.951 . S
H333 C352 0.951 . S
H334 C354 0.950 . S
H335 C355 0.950 . S
H336 C357 0.950 . S
H337 C360 0.950 . S
H338 C361 0.950 . S
H339 C363 0.950 . S
H340 C364 0.950 . S
H341 C365 0.951 . S
H342 C367 0.951 . S
H343 C369 0.950 . S
H344 C370 0.950 . S
H345 C372 0.950 . S
H346 C375 0.950 . S
H347 C376 0.950 . S
H348 C378 0.950 . S
H349 C379 0.950 . S
C350 H332 0.951 . S
C350 C351 1.366 . S
C350 C352 1.388 . S
C351 C350 1.366 . S
C351 C355 1.385 . S
C352 H333 0.951 . S
C352 C350 1.388 . S
C352 C353 1.366 . S
C353 C352 1.366 . S
C353 C354 1.414 . S
C353 C356 1.499 . S
C354 H334 0.950 . S
C354 C353 1.414 . S
C354 C355 1.374 . S
C355 H335 0.950 . S
C355 C351 1.385 . S
C355 C354 1.374 . S
C356 C353 1.499 . S
C356 C357 1.373 . S
C356 C358 1.389 . S
C357 H336 0.950 . S
C357 C356 1.373 . S
C357 C373 1.377 1_655 S
C358 C356 1.389 . S
C358 C359 1.524 . S
C358 C372 1.377 1_655 S
C359 C358 1.524 . S
C359 C360 1.397 . S
C359 C364 1.363 1_655 S
C360 H337 0.950 . S
C360 C359 1.397 . S
C360 C361 1.334 . S
C361 H338 0.950 . S
C361 C360 1.334 . S
C361 C362 1.287 . S
C362 C361 1.287 . S
C362 C363 1.524 1_655 S
C362 H381 0.913 . S
C363 H339 0.950 . S
C363 C362 1.524 1_455 S
C363 C364 1.415 . S
C364 H340 0.950 . S
C364 C359 1.363 1_455 S
C364 C363 1.415 . S
C365 H341 0.951 . S
C365 C366 1.366 . S
C365 C367 1.388 . S
C366 C365 1.366 . S
C366 C370 1.385 . S
C367 H342 0.951 . S
C367 C365 1.388 . S
C367 C368 1.366 . S
C368 C367 1.366 . S
C368 C369 1.414 . S
C368 C371 1.499 . S
C369 H343 0.950 . S
C369 C368 1.414 . S
C369 C370 1.374 . S
C370 H344 0.950 . S
C370 C366 1.385 . S
C370 C369 1.374 . S
C371 C368 1.499 . S
C371 C372 1.373 . S
C371 C373 1.389 . S
C372 H345 0.950 . S
C372 C358 1.377 1_455 S
C372 C371 1.373 . S
C373 C357 1.377 1_455 S
C373 C371 1.389 . S
C373 C374 1.524 . S
C374 C373 1.524 . S
C374 C375 1.397 . S
C374 C379 1.363 1_455 S
C375 H346 0.950 . S
C375 C374 1.397 . S
C375 C376 1.334 . S
C376 H347 0.950 . S
C376 C375 1.334 . S
C376 C377 1.287 . S
C377 C376 1.287 . S
C377 C378 1.524 1_455 S
C377 H380 0.999 . S
C378 H348 0.950 . S
C378 C377 1.524 1_655 S
C378 C379 1.415 . S
C379 H349 0.950 . S
C379 C374 1.363 1_655 S
C379 C378 1.415 . S
H380 C377 0.999 . S
H381 C362 0.913 . S
H382 C400 0.951 . S
H383 C402 0.951 . S
H384 C404 0.950 . S
H385 C405 0.950 . S
H386 C407 0.950 . S
H387 C410 0.950 . S
H388 C411 0.950 . S
H389 C413 0.950 . S
H390 C414 0.950 . S
H391 C415 0.951 . S
H392 C417 0.951 . S
H393 C419 0.950 . S
H394 C420 0.950 . S
H395 C422 0.950 . S
H396 C425 0.950 . S
H397 C426 0.950 . S
H398 C428 0.950 . S
H399 C429 0.950 . S
C400 H382 0.951 . S
C400 C401 1.366 . S
C400 C402 1.388 . S
C401 C400 1.366 . S
C401 C405 1.385 . S
C402 H383 0.951 . S
C402 C400 1.388 . S
C402 C403 1.366 . S
C403 C402 1.366 . S
C403 C404 1.414 . S
C403 C406 1.499 . S
C404 H384 0.950 . S
C404 C403 1.414 . S
C404 C405 1.374 . S
C405 H385 0.950 . S
C405 C401 1.385 . S
C405 C404 1.374 . S
C406 C403 1.499 . S
C406 C407 1.373 . S
C406 C408 1.389 . S
C407 H386 0.950 . S
C407 C406 1.373 . S
C407 C423 1.377 . S
C408 C406 1.389 . S
C408 C409 1.524 . S
C408 C422 1.377 . S
C409 C408 1.524 . S
C409 C410 1.397 . S
C409 C414 1.363 . S
C410 H387 0.950 . S
C410 C409 1.397 . S
C410 C411 1.334 . S
C411 H388 0.950 . S
C411 C410 1.334 . S
C411 C412 1.287 . S
C412 C411 1.287 . S
C412 C413 1.524 . S
C412 H431 0.913 . S
C413 H389 0.950 . S
C413 C412 1.524 . S
C413 C414 1.415 . S
C414 H390 0.950 . S
C414 C409 1.363 . S
C414 C413 1.415 . S
C415 H391 0.951 . S
C415 C416 1.366 . S
C415 C417 1.388 . S
C416 C415 1.366 . S
C416 C420 1.385 . S
C417 H392 0.951 . S
C417 C415 1.388 . S
C417 C418 1.366 . S
C418 C417 1.366 . S
C418 C419 1.414 . S
C418 C421 1.499 . S
C419 H393 0.950 . S
C419 C418 1.414 . S
C419 C420 1.374 . S
C420 H394 0.950 . S
C420 C416 1.385 . S
C420 C419 1.374 . S
C421 C418 1.499 . S
C421 C422 1.373 . S
C421 C423 1.389 . S
C422 H395 0.950 . S
C422 C408 1.377 . S
C422 C421 1.373 . S
C423 C407 1.377 . S
C423 C421 1.389 . S
C423 C424 1.524 . S
C424 C423 1.524 . S
C424 C425 1.397 . S
C424 C429 1.363 . S
C425 H396 0.950 . S
C425 C424 1.397 . S
C425 C426 1.334 . S
C426 H397 0.950 . S
C426 C425 1.334 . S
C426 C427 1.287 . S
C427 C426 1.287 . S
C427 C428 1.524 . S
C427 H430 0.999 . S
C428 H398 0.950 . S
C428 C427 1.524 . S
C428 C429 1.415 . S
C429 H399 0.950 . S
C429 C424 1.363 . S
C429 C428 1.415 . S
H430 C427 0.999 . S
H431 C412 0.913 . S
H432 C450 0.951 . S
H433 C452 0.951 . S
H434 C454 0.950 . S
H435 C455 0.950 . S
H436 C457 0.950 . S
H437 C460 0.950 . S
H438 C461 0.950 . S
H439 C463 0.950 . S
H440 C464 0.950 . S
H441 C465 0.951 . S
H442 C467 0.951 . S
H443 C469 0.950 . S
H444 C470 0.950 . S
H445 C472 0.950 . S
H446 C475 0.950 . S
H447 C476 0.950 . S
H448 C478 0.950 . S
H449 C479 0.950 . S
C450 H432 0.951 . S
C450 C451 1.366 . S
C450 C452 1.388 1_545 S
C451 C450 1.366 . S
C451 C455 1.385 . S
C452 H433 0.951 . S
C452 C450 1.388 1_565 S
C452 C453 1.366 1_554 S
C453 C452 1.366 1_556 S
C453 C454 1.414 . S
C453 C456 1.499 . S
C454 H434 0.950 . S
C454 C453 1.414 . S
C454 C455 1.374 1_566 S
C455 H435 0.950 . S
C455 C451 1.385 . S
C455 C454 1.374 1_544 S
C456 C453 1.499 . S
C456 C457 1.373 . S
C456 C458 1.389 1_556 S
C457 H436 0.950 . S
C457 C456 1.373 . S
C457 C473 1.377 . S
C458 C456 1.389 1_554 S
C458 C459 1.524 . S
C458 C472 1.377 . S
C459 C458 1.524 . S
C459 C460 1.397 . S
C459 C464 1.363 . S
C460 H437 0.950 . S
C460 C459 1.397 . S
C460 C461 1.334 . S
C461 H438 0.950 . S
C461 C460 1.334 . S
C461 C462 1.287 . S
C462 C461 1.287 . S
C462 C463 1.524 . S
C462 H481 0.913 . S
C463 H439 0.950 . S
C463 C462 1.524 . S
C463 C464 1.415 . S
C464 H440 0.950 . S
C464 C459 1.363 . S
C464 C463 1.415 . S
C465 H441 0.951 . S
C465 C466 1.366 . S
C465 C467 1.388 . S
C466 C465 1.366 . S
C466 C470 1.385 . S
C467 H442 0.951 . S
C467 C465 1.388 . S
C467 C468 1.366 . S
C468 C467 1.366 . S
C468 C469 1.414 . S
C468 C471 1.499 . S
C469 H443 0.950 . S
C469 C468 1.414 . S
C469 C470 1.374 . S
C470 H444 0.950 . S
C470 C466 1.385 . S
C470 C469 1.374 . S
C471 C468 1.499 . S
C471 C472 1.373 1_556 S
C471 C473 1.389 . S
C472 H445 0.950 . S
C472 C458 1.377 . S
C472 C471 1.373 1_554 S
C473 C457 1.377 . S
C473 C471 1.389 . S
C473 C474 1.524 . S
C474 C473 1.524 . S
C474 C475 1.397 . S
C474 C479 1.363 . S
C475 H446 0.950 . S
C475 C474 1.397 . S
C475 C476 1.334 . S
C476 H447 0.950 . S
C476 C475 1.334 . S
C476 C477 1.287 . S
C477 C476 1.287 . S
C477 C478 1.524 . S
C477 H480 0.999 . S
C478 H448 0.950 . S
C478 C477 1.524 . S
C478 C479 1.415 . S
C479 H449 0.950 . S
C479 C474 1.363 . S
C479 C478 1.415 . S
H480 C477 0.999 . S
H481 C462 0.913 . S
H482 C500 0.951 . S
H483 C502 0.951 . S
H484 C504 0.950 . S
H485 C505 0.950 . S
H486 C507 0.950 . S
H487 C510 0.950 . S
H488 C511 0.950 . S
H489 C513 0.950 . S
H490 C514 0.950 . S
H491 C515 0.951 . S
H492 C517 0.951 . S
H493 C519 0.950 . S
H494 C520 0.950 . S
H495 C522 0.950 . S
H496 C525 0.950 . S
H497 C526 0.950 . S
H498 C528 0.950 . S
H499 C529 0.950 . S
C500 H482 0.951 . S
C500 C501 1.366 . S
C500 C502 1.388 . S
C501 C500 1.366 . S
C501 C505 1.385 . S
C502 H483 0.951 . S
C502 C500 1.388 . S
C502 C503 1.366 . S
C503 C502 1.366 . S
C503 C504 1.414 . S
C503 C506 1.499 . S
C504 H484 0.950 . S
C504 C503 1.414 . S
C504 C505 1.374 . S
C505 H485 0.950 . S
C505 C501 1.385 . S
C505 C504 1.374 . S
C506 C503 1.499 . S
C506 C507 1.373 . S
C506 C508 1.389 . S
C507 H486 0.950 . S
C507 C506 1.373 . S
C507 C523 1.377 . S
C508 C506 1.389 . S
C508 C509 1.524 . S
C508 C522 1.377 . S
C509 C508 1.524 . S
C509 C510 1.397 . S
C509 C514 1.363 . S
C510 H487 0.950 . S
C510 C509 1.397 . S
C510 C511 1.334 . S
C511 H488 0.950 . S
C511 C510 1.334 . S
C511 C512 1.287 . S
C512 C511 1.287 . S
C512 C513 1.524 . S
C512 H531 0.913 . S
C513 H489 0.950 . S
C513 C512 1.524 . S
C513 C514 1.415 . S
C514 H490 0.950 . S
C514 C509 1.363 . S
C514 C513 1.415 . S
C515 H491 0.951 . S
C515 C516 1.366 . S
C515 C517 1.388 1_655 S
C516 C515 1.366 . S
C516 C520 1.385 . S
C517 H492 0.951 . S
C517 C515 1.388 1_455 S
C517 C518 1.366 . S
C518 C517 1.366 . S
C518 C519 1.414 . S
C518 C521 1.499 . S
C519 H493 0.950 . S
C519 C518 1.414 . S
C519 C520 1.374 1_455 S
C520 H494 0.950 . S
C520 C516 1.385 . S
C520 C519 1.374 1_655 S
C521 C518 1.499 . S
C521 C522 1.373 . S
C521 C523 1.389 . S
C522 H495 0.950 . S
C522 C508 1.377 . S
C522 C521 1.373 . S
C523 C507 1.377 . S
C523 C521 1.389 . S
C523 C524 1.524 . S
C524 C523 1.524 . S
C524 C525 1.397 . S
C524 C529 1.363 . S
C525 H496 0.950 . S
C525 C524 1.397 . S
C525 C526 1.334 . S
C526 H497 0.950 . S
C526 C525 1.334 . S
C526 C527 1.287 . S
C527 C526 1.287 . S
C527 C528 1.524 . S
C527 H530 0.999 . S
C528 H498 0.950 . S
C528 C527 1.524 . S
C528 C529 1.415 . S
C529 H499 0.950 . S
C529 C524 1.363 . S
C529 C528 1.415 . S
H530 C527 0.999 . S
H531 C512 0.913 . S
H532 C550 0.951 . S
H533 C552 0.951 . S
H534 C554 0.950 . S
H535 C555 0.950 . S
H536 C557 0.950 . S
H537 C560 0.950 . S
H538 C561 0.950 . S
H539 C563 0.950 . S
H540 C564 0.950 . S
H541 C565 0.951 . S
H542 C567 0.951 . S
H543 C569 0.950 . S
H544 C570 0.950 . S
H545 C572 0.950 . S
H546 C575 0.950 . S
H547 C576 0.950 . S
H548 C578 0.950 . S
H549 C579 0.950 . S
C550 H532 0.951 . S
C550 C551 1.366 . S
C550 C552 1.388 . S
C551 C550 1.366 . S
C551 C555 1.385 . S
C552 H533 0.951 . S
C552 C550 1.388 . S
C552 C553 1.366 . S
C553 C552 1.366 . S
C553 C554 1.414 . S
C553 C556 1.499 . S
C554 H534 0.950 . S
C554 C553 1.414 . S
C554 C555 1.374 . S
C555 H535 0.950 . S
C555 C551 1.385 . S
C555 C554 1.374 . S
C556 C553 1.499 . S
C556 C557 1.373 . S
C556 C558 1.389 . S
C557 H536 0.950 . S
C557 C556 1.373 . S
C557 C573 1.377 . S
C558 C556 1.389 . S
C558 C559 1.524 . S
C558 C572 1.377 . S
C559 C558 1.524 . S
C559 C560 1.397 . S
C559 C564 1.363 . S
C560 H537 0.950 . S
C560 C559 1.397 . S
C560 C561 1.334 . S
C561 H538 0.950 . S
C561 C560 1.334 . S
C561 C562 1.287 . S
C562 C561 1.287 . S
C562 C563 1.524 . S
C562 H581 0.913 . S
C563 H539 0.950 . S
C563 C562 1.524 . S
C563 C564 1.415 . S
C564 H540 0.950 . S
C564 C559 1.363 . S
C564 C563 1.415 . S
C565 H541 0.951 . S
C565 C566 1.366 . S
C565 C567 1.388 . S
C566 C565 1.366 . S
C566 C570 1.385 . S
C567 H542 0.951 . S
C567 C565 1.388 . S
C567 C568 1.366 . S
C568 C567 1.366 . S
C568 C569 1.414 . S
C568 C571 1.499 . S
C569 H543 0.950 . S
C569 C568 1.414 . S
C569 C570 1.374 . S
C570 H544 0.950 . S
C570 C566 1.385 . S
C570 C569 1.374 . S
C571 C568 1.499 . S
C571 C572 1.373 . S
C571 C573 1.389 . S
C572 H545 0.950 . S
C572 C558 1.377 . S
C572 C571 1.373 . S
C573 C557 1.377 . S
C573 C571 1.389 . S
C573 C574 1.524 . S
C574 C573 1.524 . S
C574 C575 1.397 . S
C574 C579 1.363 . S
C575 H546 0.950 . S
C575 C574 1.397 . S
C575 C576 1.334 . S
C576 H547 0.950 . S
C576 C575 1.334 . S
C576 C577 1.287 . S
C577 C576 1.287 . S
C577 C578 1.524 . S
C577 H580 0.999 . S
C578 H548 0.950 . S
C578 C577 1.524 . S
C578 C579 1.415 . S
C579 H549 0.950 . S
C579 C574 1.363 . S
C579 C578 1.415 . S
H580 C577 0.999 . S
H581 C562 0.913 . S
H582 C600 0.951 . S
H583 C602 0.951 . S
H584 C604 0.950 . S
H585 C605 0.950 . S
H586 C607 0.964 . S
H587 C610 0.950 . S
H588 C611 0.950 . S
H589 C613 0.950 . S
H590 C614 0.950 . S
H591 C615 0.938 1_556 S
H592 C617 0.951 1_556 S
H593 C619 0.950 . S
H594 C620 0.950 . S
H595 C622 0.950 . S
H596 C625 0.950 . S
H597 C626 0.950 . S
H598 C628 0.950 . S
H599 C629 0.950 . S
C600 H582 0.951 . S
C600 C601 1.366 1_554 S
C600 C602 1.388 1_455 S
C601 C600 1.366 1_556 S
C601 C605 1.385 . S
C602 H583 0.951 . S
C602 C600 1.388 1_655 S
C602 C603 1.366 . S
C603 C602 1.366 . S
C603 C604 1.414 1_554 S
C603 C606 1.499 . S
C604 H584 0.950 . S
C604 C603 1.414 1_556 S
C604 C605 1.374 1_655 S
C605 H585 0.950 . S
C605 C601 1.385 . S
C605 C604 1.374 1_455 S
C606 C603 1.499 . S
C606 C607 1.373 . S
C606 C608 1.389 . S
C607 H586 0.964 . S
C607 C606 1.373 . S
C607 C623 1.377 . S
C608 C606 1.389 . S
C608 C609 1.524 . S
C608 C622 1.377 . S
C609 C608 1.524 . S
C609 C610 1.397 1_554 S
C609 C614 1.363 . S
C610 H587 0.950 . S
C610 C609 1.397 1_556 S
C610 C611 1.334 . S
C611 H588 0.950 . S
C611 C610 1.334 . S
C611 C612 1.287 1_556 S
C612 C611 1.287 1_554 S
C612 C613 1.524 . S
C612 H631 0.913 . S
C613 H589 0.950 . S
C613 C612 1.524 . S
C613 C614 1.415 . S
C614 H590 0.950 . S
C614 C609 1.363 . S
C614 C613 1.415 . S
C615 H591 0.938 1_554 S
C615 C616 1.366 . S
C615 C617 1.388 . S
C616 C615 1.366 . S
C616 C620 1.385 . S
C617 H592 0.951 1_554 S
C617 C615 1.388 . S
C617 C618 1.366 . S
C618 C617 1.366 . S
C618 C619 1.414 . S
C618 C621 1.499 . S
C619 H593 0.950 . S
C619 C618 1.414 . S
C619 C620 1.374 . S
C620 H594 0.950 . S
C620 C616 1.385 . S
C620 C619 1.374 . S
C621 C618 1.499 . S
C621 C622 1.373 . S
C621 C623 1.389 . S
C622 H595 0.950 . S
C622 C608 1.377 . S
C622 C621 1.373 . S
C623 C607 1.377 . S
C623 C621 1.389 . S
C623 C624 1.524 . S
C624 C623 1.524 . S
C624 C625 1.397 . S
C624 C629 1.363 1_554 S
C625 H596 0.950 . S
C625 C624 1.397 . S
C625 C626 1.334 . S
C626 H597 0.950 . S
C626 C625 1.334 . S
C626 C627 1.287 . S
C627 C626 1.287 . S
C627 C628 1.524 1_554 S
C627 H630 0.999 . S
C628 H598 0.950 . S
C628 C627 1.524 1_556 S
C628 C629 1.415 . S
C629 H599 0.950 . S
C629 C624 1.363 1_556 S
C629 C628 1.415 . S
H630 C627 0.999 . S
H631 C612 0.913 . S
H632 C650 0.951 . S
H633 C652 0.951 . S
H634 C654 0.950 . S
H635 C655 0.950 . S
H636 C657 0.950 . S
H637 C660 0.950 . S
H638 C661 0.950 . S
H639 C663 0.950 . S
H640 C664 0.950 . S
H641 C665 0.951 . S
H642 C667 0.951 . S
H643 C669 0.950 . S
H644 C670 0.950 . S
H645 C672 0.950 . S
H646 C675 0.950 . S
H647 C676 0.950 . S
H648 C678 0.950 . S
H649 C679 0.950 . S
C650 H632 0.951 . S
C650 C651 1.366 . S
C650 C652 1.388 . S
C651 C650 1.366 . S
C651 C655 1.385 . S
C652 H633 0.951 . S
C652 C650 1.388 . S
C652 C653 1.366 . S
C653 C652 1.366 . S
C653 C654 1.414 . S
C653 C656 1.499 . S
C654 H634 0.950 . S
C654 C653 1.414 . S
C654 C655 1.374 . S
C655 H635 0.950 . S
C655 C651 1.385 . S
C655 C654 1.374 . S
C656 C653 1.499 . S
C656 C657 1.373 . S
C656 C658 1.389 . S
C657 H636 0.950 . S
C657 C656 1.373 . S
C657 C673 1.377 . S
C658 C656 1.389 . S
C658 C659 1.524 . S
C658 C672 1.377 . S
C659 C658 1.524 . S
C659 C660 1.397 . S
C659 C664 1.363 . S
C660 H637 0.950 . S
C660 C659 1.397 . S
C660 C661 1.334 . S
C661 H638 0.950 . S
C661 C660 1.334 . S
C661 C662 1.287 . S
C662 C661 1.287 . S
C662 C663 1.524 . S
C662 H681 0.913 . S
C663 H639 0.950 . S
C663 C662 1.524 . S
C663 C664 1.415 . S
C664 H640 0.950 . S
C664 C659 1.363 . S
C664 C663 1.415 . S
C665 H641 0.951 . S
C665 C666 1.366 . S
C665 C667 1.388 . S
C666 C665 1.366 . S
C666 C670 1.385 . S
C667 H642 0.951 . S
C667 C665 1.388 . S
C667 C668 1.366 . S
C668 C667 1.366 . S
C668 C669 1.414 . S
C668 C671 1.499 . S
C669 H643 0.950 . S
C669 C668 1.414 . S
C669 C670 1.374 . S
C670 H644 0.950 . S
C670 C666 1.385 . S
C670 C669 1.374 . S
C671 C668 1.499 . S
C671 C672 1.373 . S
C671 C673 1.389 . S
C672 H645 0.950 . S
C672 C658 1.377 . S
C672 C671 1.373 . S
C673 C657 1.377 . S
C673 C671 1.389 . S
C673 C674 1.524 . S
C674 C673 1.524 . S
C674 C675 1.397 . S
C674 C679 1.363 . S
C675 H646 0.950 . S
C675 C674 1.397 . S
C675 C676 1.334 . S
C676 H647 0.950 . S
C676 C675 1.334 . S
C676 C677 1.287 . S
C677 C676 1.287 . S
C677 C678 1.524 . S
C677 H680 0.999 . S
C678 H648 0.950 . S
C678 C677 1.524 . S
C678 C679 1.415 . S
C679 H649 0.950 . S
C679 C674 1.363 . S
C679 C678 1.415 . S
H680 C677 0.999 . S
H681 C662 0.913 . S
H682 C700 0.951 . S
H683 C702 0.951 . S
H684 C704 0.950 . S
H685 C705 0.950 . S
H686 C707 0.950 . S
H687 C710 0.950 . S
H688 C711 0.950 . S
H689 C713 0.950 . S
H690 C714 0.950 . S
H691 C715 0.951 . S
H692 C717 0.951 . S
H693 C719 0.950 . S
H694 C720 0.950 . S
H695 C722 0.950 . S
H696 C725 0.950 . S
H697 C726 0.950 . S
H698 C728 0.950 . S
H699 C729 0.950 . S
C700 H682 0.951 . S
C700 C701 1.366 . S
C700 C702 1.388 . S
C701 C700 1.366 . S
C701 C705 1.385 . S
C702 H683 0.951 . S
C702 C700 1.388 . S
C702 C703 1.366 . S
C703 C702 1.366 . S
C703 C704 1.414 . S
C703 C706 1.499 . S
C704 H684 0.950 . S
C704 C703 1.414 . S
C704 C705 1.374 . S
C705 H685 0.950 . S
C705 C701 1.385 . S
C705 C704 1.374 . S
C706 C703 1.499 . S
C706 C707 1.373 . S
C706 C708 1.389 . S
C707 H686 0.950 . S
C707 C706 1.373 . S
C707 C723 1.377 . S
C708 C706 1.389 . S
C708 C709 1.524 . S
C708 C722 1.377 . S
C709 C708 1.524 . S
C709 C710 1.397 . S
C709 C714 1.363 . S
C710 H687 0.950 . S
C710 C709 1.397 . S
C710 C711 1.334 . S
C711 H688 0.950 . S
C711 C710 1.334 . S
C711 C712 1.287 . S
C712 C711 1.287 . S
C712 C713 1.524 . S
C712 H731 0.913 . S
C713 H689 0.950 . S
C713 C712 1.524 . S
C713 C714 1.415 . S
C714 H690 0.950 . S
C714 C709 1.363 . S
C714 C713 1.415 . S
C715 H691 0.951 . S
C715 C716 1.366 . S
C715 C717 1.388 1_565 S
C716 C715 1.366 . S
C716 C720 1.385 . S
C717 H692 0.951 . S
C717 C715 1.388 1_545 S
C717 C718 1.366 . S
C718 C717 1.366 . S
C718 C719 1.414 . S
C718 C721 1.499 . S
C719 H693 0.950 . S
C719 C718 1.414 . S
C719 C720 1.374 1_545 S
C720 H694 0.950 . S
C720 C716 1.385 . S
C720 C719 1.374 1_565 S
C721 C718 1.499 . S
C721 C722 1.373 . S
C721 C723 1.389 . S
C722 H695 0.950 . S
C722 C708 1.377 . S
C722 C721 1.373 . S
C723 C707 1.377 . S
C723 C721 1.389 . S
C723 C724 1.524 . S
C724 C723 1.524 . S
C724 C725 1.397 . S
C724 C729 1.363 . S
C725 H696 0.950 . S
C725 C724 1.397 . S
C725 C726 1.334 . S
C726 H697 0.950 . S
C726 C725 1.334 . S
C726 C727 1.287 . S
C727 C726 1.287 . S
C727 C728 1.524 . S
C727 H730 0.999 . S
C728 H698 0.950 . S
C728 C727 1.524 . S
C728 C729 1.415 . S
C729 H699 0.950 . S
C729 C724 1.363 . S
C729 C728 1.415 . S
H730 C727 0.999 . S
H731 C712 0.913 . S
H732 C750 0.951 . S
H733 C752 0.951 . S
H734 C754 0.950 . S
H735 C755 0.950 . S
H736 C757 0.950 . S
H737 C760 0.950 . S
H738 C761 0.950 . S
H739 C763 0.950 . S
H740 C764 0.950 . S
H741 C765 0.951 . S
H742 C767 0.951 . S
H743 C769 0.950 . S
H744 C770 0.950 . S
H745 C772 0.950 . S
H746 C775 0.950 . S
H747 C776 0.950 . S
H748 C778 0.950 . S
H749 C779 0.950 . S
C750 H732 0.951 . S
C750 C751 1.366 . S
C750 C752 1.388 . S
C751 C750 1.366 . S
C751 C755 1.385 . S
C752 H733 0.951 . S
C752 C750 1.388 . S
C752 C753 1.366 . S
C753 C752 1.366 . S
C753 C754 1.414 . S
C753 C756 1.499 . S
C754 H734 0.950 . S
C754 C753 1.414 . S
C754 C755 1.374 . S
C755 H735 0.950 . S
C755 C751 1.385 . S
C755 C754 1.374 . S
C756 C753 1.499 . S
C756 C757 1.373 . S
C756 C758 1.389 . S
C757 H736 0.950 . S
C757 C756 1.373 . S
C757 C773 1.377 . S
C758 C756 1.389 . S
C758 C759 1.524 . S
C758 C772 1.377 . S
C759 C758 1.524 . S
C759 C760 1.397 . S
C759 C764 1.363 . S
C760 H737 0.950 . S
C760 C759 1.397 . S
C760 C761 1.334 . S
C761 H738 0.950 . S
C761 C760 1.334 . S
C761 C762 1.287 . S
C762 C761 1.287 . S
C762 C763 1.524 . S
C762 H781 0.913 . S
C763 H739 0.950 . S
C763 C762 1.524 . S
C763 C764 1.415 . S
C764 H740 0.950 . S
C764 C759 1.363 . S
C764 C763 1.415 . S
C765 H741 0.951 . S
C765 C766 1.366 . S
C765 C767 1.388 . S
C766 C765 1.366 . S
C766 C770 1.385 . S
C767 H742 0.951 . S
C767 C765 1.388 . S
C767 C768 1.366 . S
C768 C767 1.366 . S
C768 C769 1.414 . S
C768 C771 1.499 . S
C769 H743 0.950 . S
C769 C768 1.414 . S
C769 C770 1.374 . S
C770 H744 0.950 . S
C770 C766 1.385 . S
C770 C769 1.374 . S
C771 C768 1.499 . S
C771 C772 1.373 . S
C771 C773 1.389 . S
C772 H745 0.950 . S
C772 C758 1.377 . S
C772 C771 1.373 . S
C773 C757 1.377 . S
C773 C771 1.389 . S
C773 C774 1.524 . S
C774 C773 1.524 . S
C774 C775 1.397 . S
C774 C779 1.363 . S
C775 H746 0.950 . S
C775 C774 1.397 . S
C775 C776 1.334 . S
C776 H747 0.950 . S
C776 C775 1.334 . S
C776 C777 1.287 . S
C777 C776 1.287 . S
C777 C778 1.524 . S
C777 H780 0.999 . S
C778 H748 0.950 . S
C778 C777 1.524 . S
C778 C779 1.415 . S
C779 H749 0.950 . S
C779 C774 1.363 . S
C779 C778 1.415 . S
H780 C777 0.999 . S
H781 C762 0.913 . S
H782 C800 0.951 . S
H783 C802 0.951 . S
H784 C804 0.950 . S
H785 C805 0.950 . S
H786 C807 0.950 . S
H787 C810 0.950 . S
H788 C811 0.950 . S
H789 C813 0.950 . S
H790 C814 0.950 . S
H791 C815 0.951 . S
H792 C817 0.951 . S
H793 C819 0.950 . S
H794 C820 0.950 . S
H795 C822 0.950 . S
H796 C825 0.950 . S
H797 C826 0.950 . S
H798 C828 0.950 . S
H799 C829 0.950 . S
C800 H782 0.951 . S
C800 C801 1.366 . S
C800 C802 1.388 . S
C801 C800 1.366 . S
C801 C805 1.385 . S
C802 H783 0.951 . S
C802 C800 1.388 . S
C802 C803 1.366 . S
C803 C802 1.366 . S
C803 C804 1.414 . S
C803 C806 1.499 . S
C804 H784 0.950 . S
C804 C803 1.414 . S
C804 C805 1.374 . S
C805 H785 0.950 . S
C805 C801 1.385 . S
C805 C804 1.374 . S
C806 C803 1.499 . S
C806 C807 1.373 . S
C806 C808 1.389 . S
C807 H786 0.950 . S
C807 C806 1.373 . S
C807 C823 1.377 . S
C808 C806 1.389 . S
C808 C809 1.524 . S
C808 C822 1.377 . S
C809 C808 1.524 . S
C809 C810 1.397 . S
C809 C814 1.363 . S
C810 H787 0.950 . S
C810 C809 1.397 . S
C810 C811 1.334 . S
C811 H788 0.950 . S
C811 C810 1.334 . S
C811 C812 1.287 . S
C812 C811 1.287 . S
C812 C813 1.524 . S
C812 H831 0.913 . S
C813 H789 0.950 . S
C813 C812 1.524 . S
C813 C814 1.415 . S
C814 H790 0.950 . S
C814 C809 1.363 . S
C814 C813 1.415 . S
C815 H791 0.951 . S
C815 C816 1.366 . S
C815 C817 1.388 . S
C816 C815 1.366 . S
C816 C820 1.385 . S
C817 H792 0.951 . S
C817 C815 1.388 . S
C817 C818 1.366 . S
C818 C817 1.366 . S
C818 C819 1.414 . S
C818 C821 1.499 . S
C819 H793 0.950 . S
C819 C818 1.414 . S
C819 C820 1.374 . S
C820 H794 0.950 . S
C820 C816 1.385 . S
C820 C819 1.374 . S
C821 C818 1.499 . S
C821 C822 1.373 . S
C821 C823 1.389 . S
C822 H795 0.950 . S
C822 C808 1.377 . S
C822 C821 1.373 . S
C823 C807 1.377 . S
C823 C821 1.389 . S
C823 C824 1.524 . S
C824 C823 1.524 . S
C824 C825 1.397 . S
C824 C829 1.363 . S
C825 H796 0.950 . S
C825 C824 1.397 . S
C825 C826 1.334 . S
C826 H797 0.950 . S
C826 C825 1.334 . S
C826 C827 1.287 . S
C827 C826 1.287 . S
C827 C828 1.524 . S
C827 H830 0.999 . S
C828 H798 0.950 . S
C828 C827 1.524 . S
C828 C829 1.415 . S
C829 H799 0.950 . S
C829 C824 1.363 . S
C829 C828 1.415 . S
H830 C827 0.999 . S
H831 C812 0.913 . S
H832 C850 0.951 . S
H833 C852 0.951 . S
H834 C854 0.950 . S
H835 C855 0.950 . S
H836 C857 0.950 . S
H837 C860 0.950 . S
H838 C861 0.950 . S
H839 C863 0.950 . S
H840 C864 0.950 . S
H841 C865 0.951 . S
H842 C867 0.951 . S
H843 C869 0.950 . S
H844 C870 0.950 . S
H845 C872 0.950 . S
H846 C875 0.950 . S
H847 C876 0.950 . S
H848 C878 0.950 . S
H849 C879 0.950 . S
C850 H832 0.951 . S
C850 C851 1.366 . S
C850 C852 1.388 . S
C851 C850 1.366 . S
C851 C855 1.385 . S
C852 H833 0.951 . S
C852 C850 1.388 . S
C852 C853 1.366 . S
C853 C852 1.366 . S
C853 C854 1.414 . S
C853 C856 1.499 . S
C854 H834 0.950 . S
C854 C853 1.414 . S
C854 C855 1.374 . S
C855 H835 0.950 . S
C855 C851 1.385 . S
C855 C854 1.374 . S
C856 C853 1.499 . S
C856 C857 1.373 . S
C856 C858 1.389 . S
C857 H836 0.950 . S
C857 C856 1.373 . S
C857 C873 1.377 . S
C858 C856 1.389 . S
C858 C859 1.524 . S
C858 C872 1.377 . S
C859 C858 1.524 . S
C859 C860 1.397 . S
C859 C864 1.363 . S
C860 H837 0.950 . S
C860 C859 1.397 . S
C860 C861 1.334 . S
C861 H838 0.950 . S
C861 C860 1.334 . S
C861 C862 1.287 . S
C862 C861 1.287 . S
C862 C863 1.524 . S
C862 H881 0.913 . S
C863 H839 0.950 . S
C863 C862 1.524 . S
C863 C864 1.415 . S
C864 H840 0.950 . S
C864 C859 1.363 . S
C864 C863 1.415 . S
C865 H841 0.951 . S
C865 C866 1.366 . S
C865 C867 1.388 . S
C866 C865 1.366 . S
C866 C870 1.385 . S
C867 H842 0.951 . S
C867 C865 1.388 . S
C867 C868 1.366 . S
C868 C867 1.366 . S
C868 C869 1.414 . S
C868 C871 1.499 . S
C869 H843 0.950 . S
C869 C868 1.414 . S
C869 C870 1.374 . S
C870 H844 0.950 . S
C870 C866 1.385 . S
C870 C869 1.374 . S
C871 C868 1.499 . S
C871 C872 1.373 . S
C871 C873 1.389 . S
C872 H845 0.950 . S
C872 C858 1.377 . S
C872 C871 1.373 . S
C873 C857 1.377 . S
C873 C871 1.389 . S
C873 C874 1.524 . S
C874 C873 1.524 . S
C874 C875 1.397 . S
C874 C879 1.363 . S
C875 H846 0.950 . S
C875 C874 1.397 . S
C875 C876 1.334 . S
C876 H847 0.950 . S
C876 C875 1.334 . S
C876 C877 1.287 . S
C877 C876 1.287 . S
C877 C878 1.524 . S
C877 H880 0.999 . S
C878 H848 0.950 . S
C878 C877 1.524 . S
C878 C879 1.415 . S
C879 H849 0.950 . S
C879 C874 1.363 . S
C879 C878 1.415 . S
H880 C877 0.999 . S
H881 C862 0.913 . S
H882 C900 0.951 . S
H883 C902 0.951 . S
H884 C904 0.950 . S
H885 C905 0.950 . S
H886 C907 0.950 . S
H887 C910 0.950 . S
H888 C911 0.950 . S
H889 C913 0.950 . S
H890 C914 0.950 . S
H891 C915 0.951 . S
H892 C917 0.951 . S
H893 C919 0.950 . S
H894 C920 0.950 . S
H895 C922 0.950 . S
H896 C925 0.950 . S
H897 C926 0.950 . S
H898 C928 0.950 . S
H899 C929 0.950 . S
C900 H882 0.951 . S
C900 C901 1.366 . S
C900 C902 1.388 . S
C901 C900 1.366 . S
C901 C905 1.385 . S
C902 H883 0.951 . S
C902 C900 1.388 . S
C902 C903 1.366 . S
C903 C902 1.366 . S
C903 C904 1.414 . S
C903 C906 1.499 . S
C904 H884 0.950 . S
C904 C903 1.414 . S
C904 C905 1.374 . S
C905 H885 0.950 . S
C905 C901 1.385 . S
C905 C904 1.374 . S
C906 C903 1.499 . S
C906 C907 1.373 . S
C906 C908 1.389 . S
C907 H886 0.950 . S
C907 C906 1.373 . S
C907 C923 1.377 . S
C908 C906 1.389 . S
C908 C909 1.524 . S
C908 C922 1.377 . S
C909 C908 1.524 . S
C909 C910 1.397 . S
C909 C914 1.363 . S
C910 H887 0.950 . S
C910 C909 1.397 . S
C910 C911 1.334 . S
C911 H888 0.950 . S
C911 C910 1.334 . S
C911 C912 1.287 . S
C912 C911 1.287 . S
C912 C913 1.524 . S
C912 H931 0.913 . S
C913 H889 0.950 . S
C913 C912 1.524 . S
C913 C914 1.415 . S
C914 H890 0.950 . S
C914 C909 1.363 . S
C914 C913 1.415 . S
C915 H891 0.951 . S
C915 C916 1.366 . S
C915 C917 1.388 . S
C916 C915 1.366 . S
C916 C920 1.385 . S
C917 H892 0.951 . S
C917 C915 1.388 . S
C917 C918 1.366 . S
C918 C917 1.366 . S
C918 C919 1.414 . S
C918 C921 1.499 . S
C919 H893 0.950 . S
C919 C918 1.414 . S
C919 C920 1.374 . S
C920 H894 0.950 . S
C920 C916 1.385 . S
C920 C919 1.374 . S
C921 C918 1.499 . S
C921 C922 1.373 . S
C921 C923 1.389 . S
C922 H895 0.950 . S
C922 C908 1.377 . S
C922 C921 1.373 . S
C923 C907 1.377 . S
C923 C921 1.389 . S
C923 C924 1.524 . S
C924 C923 1.524 . S
C924 C925 1.397 . S
C924 C929 1.363 . S
C925 H896 0.950 . S
C925 C924 1.397 . S
C925 C926 1.334 . S
C926 H897 0.950 . S
C926 C925 1.334 . S
C926 C927 1.287 . S
C927 C926 1.287 . S
C927 C928 1.524 . S
C927 H930 0.999 . S
C928 H898 0.950 . S
C928 C927 1.524 . S
C928 C929 1.415 . S
C929 H899 0.950 . S
C929 C924 1.363 . S
C929 C928 1.415 . S
H930 C927 0.999 . S
H931 C912 0.913 . S
H932 C950 0.951 . S
H933 C952 0.951 . S
H934 C954 0.950 . S
H935 C955 0.950 . S
H936 C957 0.950 . S
H937 C960 0.950 . S
H938 C961 0.950 . S
H939 C963 0.950 . S
H940 C964 0.950 . S
H941 C965 0.951 . S
H942 C967 0.951 . S
H943 C969 0.950 . S
H944 C970 0.950 . S
H945 C972 0.950 . S
H946 C975 0.950 . S
H947 C976 0.950 . S
H948 C978 0.950 . S
H949 C979 0.950 . S
C950 H932 0.951 . S
C950 C951 1.366 . S
C950 C952 1.388 . S
C951 C950 1.366 . S
C951 C955 1.385 . S
C952 H933 0.951 . S
C952 C950 1.388 . S
C952 C953 1.366 . S
C953 C952 1.366 . S
C953 C954 1.414 . S
C953 C956 1.499 . S
C954 H934 0.950 . S
C954 C953 1.414 . S
C954 C955 1.374 . S
C955 H935 0.950 . S
C955 C951 1.385 . S
C955 C954 1.374 . S
C956 C953 1.499 . S
C956 C957 1.373 . S
C956 C958 1.389 . S
C957 H936 0.950 . S
C957 C956 1.373 . S
C957 C973 1.377 . S
C958 C956 1.389 . S
C958 C959 1.524 . S
C958 C972 1.377 . S
C959 C958 1.524 . S
C959 C960 1.397 . S
C959 C964 1.363 . S
C960 H937 0.950 . S
C960 C959 1.397 . S
C960 C961 1.334 . S
C961 H938 0.950 . S
C961 C960 1.334 . S
C961 C962 1.287 . S
C962 C961 1.287 . S
C962 C963 1.524 . S
C962 H981 0.913 . S
C963 H939 0.950 . S
C963 C962 1.524 . S
C963 C964 1.415 . S
C964 H940 0.950 . S
C964 C959 1.363 . S
C964 C963 1.415 . S
C965 H941 0.951 . S
C965 C966 1.366 . S
C965 C967 1.388 . S
C966 C965 1.366 . S
C966 C970 1.385 . S
C967 H942 0.951 . S
C967 C965 1.388 . S
C967 C968 1.366 . S
C968 C967 1.366 . S
C968 C969 1.414 . S
C968 C971 1.499 . S
C969 H943 0.950 . S
C969 C968 1.414 . S
C969 C970 1.374 . S
C970 H944 0.950 . S
C970 C966 1.385 . S
C970 C969 1.374 . S
C971 C968 1.499 . S
C971 C972 1.373 . S
C971 C973 1.389 . S
C972 H945 0.950 . S
C972 C958 1.377 . S
C972 C971 1.373 . S
C973 C957 1.377 . S
C973 C971 1.389 . S
C973 C974 1.524 . S
C974 C973 1.524 . S
C974 C975 1.397 . S
C974 C979 1.363 . S
C975 H946 0.950 . S
C975 C974 1.397 . S
C975 C976 1.334 . S
C976 H947 0.950 . S
C976 C975 1.334 . S
C976 C977 1.287 . S
C977 C976 1.287 . S
C977 C978 1.524 . S
C977 H980 0.999 . S
C978 H948 0.950 . S
C978 C977 1.524 . S
C978 C979 1.415 . S
C979 H949 0.950 . S
C979 C974 1.363 . S
C979 C978 1.415 . S
H980 C977 0.999 . S
H981 C962 0.913 . S
H982 C1000 0.951 . S
H983 C1002 0.951 . S
H984 C1004 0.950 . S
H985 C1005 0.950 . S
H986 C1007 0.950 . S
H987 C1010 0.950 . S
H988 C1011 0.950 . S
H989 C1013 0.950 . S
H990 C1014 0.950 . S
H991 C1015 0.951 . S
H992 C1017 0.951 . S
H993 C1019 0.950 . S
H994 C1020 0.950 . S
H995 C1022 0.950 . S
H996 C1025 0.950 . S
H997 C1026 0.950 . S
H998 C1028 0.950 . S
H999 C1029 0.950 . S
C1000 H982 0.951 . S
C1000 C1001 1.366 . S
C1000 C1002 1.388 . S
C1001 C1000 1.366 . S
C1001 C1005 1.385 . S
C1002 H983 0.951 . S
C1002 C1000 1.388 . S
C1002 C1003 1.366 . S
C1003 C1002 1.366 . S
C1003 C1004 1.414 . S
C1003 C1006 1.499 . S
C1004 H984 0.950 . S
C1004 C1003 1.414 . S
C1004 C1005 1.374 . S
C1005 H985 0.950 . S
C1005 C1001 1.385 . S
C1005 C1004 1.374 . S
C1006 C1003 1.499 . S
C1006 C1007 1.373 . S
C1006 C1008 1.389 . S
C1007 H986 0.950 . S
C1007 C1006 1.373 . S
C1007 C1023 1.377 . S
C1008 C1006 1.389 . S
C1008 C1009 1.524 . S
C1008 C1022 1.377 . S
C1009 C1008 1.524 . S
C1009 C1010 1.397 . S
C1009 C1014 1.363 . S
C1010 H987 0.950 . S
C1010 C1009 1.397 . S
C1010 C1011 1.334 . S
C1011 H988 0.950 . S
C1011 C1010 1.334 . S
C1011 C1012 1.287 . S
C1012 C1011 1.287 . S
C1012 C1013 1.524 . S
C1012 H1031 0.913 . S
C1013 H989 0.950 . S
C1013 C1012 1.524 . S
C1013 C1014 1.415 . S
C1014 H990 0.950 . S
C1014 C1009 1.363 . S
C1014 C1013 1.415 . S
C1015 H991 0.951 . S
C1015 C1016 1.366 . S
C1015 C1017 1.388 . S
C1016 C1015 1.366 . S
C1016 C1020 1.385 . S
C1017 H992 0.951 . S
C1017 C1015 1.388 . S
C1017 C1018 1.366 . S
C1018 C1017 1.366 . S
C1018 C1019 1.414 . S
C1018 C1021 1.499 . S
C1019 H993 0.950 . S
C1019 C1018 1.414 . S
C1019 C1020 1.374 . S
C1020 H994 0.950 . S
C1020 C1016 1.385 . S
C1020 C1019 1.374 . S
C1021 C1018 1.499 . S
C1021 C1022 1.373 . S
C1021 C1023 1.389 . S
C1022 H995 0.950 . S
C1022 C1008 1.377 . S
C1022 C1021 1.373 . S
C1023 C1007 1.377 . S
C1023 C1021 1.389 . S
C1023 C1024 1.524 . S
C1024 C1023 1.524 . S
C1024 C1025 1.397 . S
C1024 C1029 1.363 . S
C1025 H996 0.950 . S
C1025 C1024 1.397 . S
C1025 C1026 1.334 . S
C1026 H997 0.950 . S
C1026 C1025 1.334 . S
C1026 C1027 1.287 . S
C1027 C1026 1.287 . S
C1027 C1028 1.524 . S
C1027 H1030 0.999 . S
C1028 H998 0.950 . S
C1028 C1027 1.524 . S
C1028 C1029 1.415 . S
C1029 H999 0.950 . S
C1029 C1024 1.363 . S
C1029 C1028 1.415 . S
H1030 C1027 0.999 . S
H1031 C1012 0.913 . S
C151 C84 1.885 . S
C166 C8 1.885 . S
C201 C32 1.885 . S
C216 C106 1.885 . S
C251 C128 1.885 . S
C266 C52 1.885 . S
C301 C125 0.653 . S
C316 C7 0.651 . S
C351 C43 0.653 . S
C366 C81 0.651 . S
C401 C51 0.652 . S
C416 C103 0.654 . S
C451 C18 1.322 . S
C466 C87 1.322 . S
C501 C109 1.323 . S
C516 C30 1.322 . S
C551 C131 1.323 . S
C566 C62 1.322 . S
C601 C76 1.322 . S
C616 C15 1.323 . S
C651 C98 1.322 . S
C666 C29 1.322 . S
C701 C59 1.323 . S
C716 C120 1.322 . S
C751 C21 1.202 . S
C766 C54 1.196 . S
C801 C10 1.196 . S
C816 C37 1.203 . S
C851 C65 1.202 . S
C866 C40 1.195 . S
C901 C73 1.202 . S
C916 C96 1.196 . S
C951 C95 1.202 . S
C966 C118 1.196 . S
C1001 C74 1.196 . S
C1016 C117 1.202 . S
