# Generated by pormake.
# Topology ull, (4)-cn, num edge types: 1
# Building blocks:
#     Node 0, Type 0, BuildingBlock: NAHDIM_clean_sbu_0, # of connection points: 4
#     Node 1, Type 0, BuildingBlock: NAHDIM_clean_sbu_0, # of connection points: 4
#     Node 2, Type 0, BuildingBlock: NAHDIM_clean_sbu_0, # of connection points: 4
#     Node 3, Type 0, BuildingBlock: NAHDIM_clean_sbu_0, # of connection points: 4
#     Node 4, Type 0, BuildingBlock: NAHDIM_clean_sbu_0, # of connection points: 4
#     Node 5, Type 0, BuildingBlock: NAHDIM_clean_sbu_0, # of connection points: 4
#     Node 6, Type 0, BuildingBlock: NAHDIM_clean_sbu_0, # of connection points: 4
#     Node 7, Type 0, BuildingBlock: NAHDIM_clean_sbu_0, # of connection points: 4
#     Node 8, Type 0, BuildingBlock: NAHDIM_clean_sbu_0, # of connection points: 4
#     Node 9, Type 0, BuildingBlock: NAHDIM_clean_sbu_0, # of connection points: 4
#     Node 10, Type 0, BuildingBlock: NAHDIM_clean_sbu_0, # of connection points: 4
#     Node 11, Type 0, BuildingBlock: NAHDIM_clean_sbu_0, # of connection points: 4
#     Node 12, Type 0, BuildingBlock: NAHDIM_clean_sbu_0, # of connection points: 4
#     Node 13, Type 0, BuildingBlock: NAHDIM_clean_sbu_0, # of connection points: 4
#     Node 14, Type 0, BuildingBlock: NAHDIM_clean_sbu_0, # of connection points: 4
#     Node 15, Type 0, BuildingBlock: NAHDIM_clean_sbu_0, # of connection points: 4
#     Node 16, Type 0, BuildingBlock: NAHDIM_clean_sbu_0, # of connection points: 4
#     Node 17, Type 0, BuildingBlock: NAHDIM_clean_sbu_0, # of connection points: 4
#     Node 18, Type 0, BuildingBlock: NAHDIM_clean_sbu_0, # of connection points: 4
#     Node 19, Type 0, BuildingBlock: NAHDIM_clean_sbu_0, # of connection points: 4
#     Node 20, Type 0, BuildingBlock: NAHDIM_clean_sbu_0, # of connection points: 4
#     Node 21, Type 0, BuildingBlock: NAHDIM_clean_sbu_0, # of connection points: 4
#     Node 22, Type 0, BuildingBlock: NAHDIM_clean_sbu_0, # of connection points: 4
#     Node 23, Type 0, BuildingBlock: NAHDIM_clean_sbu_0, # of connection points: 4
#     Node 24, Type 0, BuildingBlock: NAHDIM_clean_sbu_0, # of connection points: 4
#     Node 25, Type 0, BuildingBlock: NAHDIM_clean_sbu_0, # of connection points: 4
#     Node 26, Type 0, BuildingBlock: NAHDIM_clean_sbu_0, # of connection points: 4
#     Node 27, Type 0, BuildingBlock: NAHDIM_clean_sbu_0, # of connection points: 4
#     Node 28, Type 0, BuildingBlock: NAHDIM_clean_sbu_0, # of connection points: 4
#     Node 29, Type 0, BuildingBlock: NAHDIM_clean_sbu_0, # of connection points: 4
#     Node 30, Type 0, BuildingBlock: NAHDIM_clean_sbu_0, # of connection points: 4
#     Node 31, Type 0, BuildingBlock: NAHDIM_clean_sbu_0, # of connection points: 4
#     Node 32, Type 0, BuildingBlock: NAHDIM_clean_sbu_0, # of connection points: 4
#     Node 33, Type 0, BuildingBlock: NAHDIM_clean_sbu_0, # of connection points: 4
#     Node 34, Type 0, BuildingBlock: NAHDIM_clean_sbu_0, # of connection points: 4
#     Node 35, Type 0, BuildingBlock: NAHDIM_clean_sbu_0, # of connection points: 4
#     Node 36, Type 0, BuildingBlock: NAHDIM_clean_sbu_0, # of connection points: 4
#     Node 37, Type 0, BuildingBlock: NAHDIM_clean_sbu_0, # of connection points: 4
#     Node 38, Type 0, BuildingBlock: NAHDIM_clean_sbu_0, # of connection points: 4
#     Node 39, Type 0, BuildingBlock: NAHDIM_clean_sbu_0, # of connection points: 4
#     Node 40, Type 0, BuildingBlock: NAHDIM_clean_sbu_0, # of connection points: 4
#     Node 41, Type 0, BuildingBlock: NAHDIM_clean_sbu_0, # of connection points: 4
#     Node 42, Type 0, BuildingBlock: NAHDIM_clean_sbu_0, # of connection points: 4
#     Node 43, Type 0, BuildingBlock: NAHDIM_clean_sbu_0, # of connection points: 4
#     Node 44, Type 0, BuildingBlock: NAHDIM_clean_sbu_0, # of connection points: 4
#     Node 45, Type 0, BuildingBlock: NAHDIM_clean_sbu_0, # of connection points: 4
#     Node 46, Type 0, BuildingBlock: NAHDIM_clean_sbu_0, # of connection points: 4
#     Node 47, Type 0, BuildingBlock: NAHDIM_clean_sbu_0, # of connection points: 4
#     Edge 48, Type (0, 0), BuildingBlock: KIFKEQ_clean_linker_1, # of connection points: 2
#     Edge 49, Type (0, 0), BuildingBlock: KIFKEQ_clean_linker_1, # of connection points: 2
#     Edge 50, Type (0, 0), BuildingBlock: KIFKEQ_clean_linker_1, # of connection points: 2
#     Edge 51, Type (0, 0), BuildingBlock: KIFKEQ_clean_linker_1, # of connection points: 2
#     Edge 52, Type (0, 0), BuildingBlock: KIFKEQ_clean_linker_1, # of connection points: 2
#     Edge 53, Type (0, 0), BuildingBlock: KIFKEQ_clean_linker_1, # of connection points: 2
#     Edge 54, Type (0, 0), BuildingBlock: KIFKEQ_clean_linker_1, # of connection points: 2
#     Edge 55, Type (0, 0), BuildingBlock: KIFKEQ_clean_linker_1, # of connection points: 2
#     Edge 56, Type (0, 0), BuildingBlock: KIFKEQ_clean_linker_1, # of connection points: 2
#     Edge 57, Type (0, 0), BuildingBlock: KIFKEQ_clean_linker_1, # of connection points: 2
#     Edge 58, Type (0, 0), BuildingBlock: KIFKEQ_clean_linker_1, # of connection points: 2
#     Edge 59, Type (0, 0), BuildingBlock: KIFKEQ_clean_linker_1, # of connection points: 2
#     Edge 60, Type (0, 0), BuildingBlock: KIFKEQ_clean_linker_1, # of connection points: 2
#     Edge 61, Type (0, 0), BuildingBlock: KIFKEQ_clean_linker_1, # of connection points: 2
#     Edge 62, Type (0, 0), BuildingBlock: KIFKEQ_clean_linker_1, # of connection points: 2
#     Edge 63, Type (0, 0), BuildingBlock: KIFKEQ_clean_linker_1, # of connection points: 2
#     Edge 64, Type (0, 0), BuildingBlock: KIFKEQ_clean_linker_1, # of connection points: 2
#     Edge 65, Type (0, 0), BuildingBlock: KIFKEQ_clean_linker_1, # of connection points: 2
#     Edge 66, Type (0, 0), BuildingBlock: KIFKEQ_clean_linker_1, # of connection points: 2
#     Edge 67, Type (0, 0), BuildingBlock: KIFKEQ_clean_linker_1, # of connection points: 2
#     Edge 68, Type (0, 0), BuildingBlock: KIFKEQ_clean_linker_1, # of connection points: 2
#     Edge 69, Type (0, 0), BuildingBlock: KIFKEQ_clean_linker_1, # of connection points: 2
#     Edge 70, Type (0, 0), BuildingBlock: KIFKEQ_clean_linker_1, # of connection points: 2
#     Edge 71, Type (0, 0), BuildingBlock: KIFKEQ_clean_linker_1, # of connection points: 2
#     Edge 72, Type (0, 0), BuildingBlock: KIFKEQ_clean_linker_1, # of connection points: 2
#     Edge 73, Type (0, 0), BuildingBlock: KIFKEQ_clean_linker_1, # of connection points: 2
#     Edge 74, Type (0, 0), BuildingBlock: KIFKEQ_clean_linker_1, # of connection points: 2
#     Edge 75, Type (0, 0), BuildingBlock: KIFKEQ_clean_linker_1, # of connection points: 2
#     Edge 76, Type (0, 0), BuildingBlock: KIFKEQ_clean_linker_1, # of connection points: 2
#     Edge 77, Type (0, 0), BuildingBlock: KIFKEQ_clean_linker_1, # of connection points: 2
#     Edge 78, Type (0, 0), BuildingBlock: KIFKEQ_clean_linker_1, # of connection points: 2
#     Edge 79, Type (0, 0), BuildingBlock: KIFKEQ_clean_linker_1, # of connection points: 2
#     Edge 80, Type (0, 0), BuildingBlock: KIFKEQ_clean_linker_1, # of connection points: 2
#     Edge 81, Type (0, 0), BuildingBlock: KIFKEQ_clean_linker_1, # of connection points: 2
#     Edge 82, Type (0, 0), BuildingBlock: KIFKEQ_clean_linker_1, # of connection points: 2
#     Edge 83, Type (0, 0), BuildingBlock: KIFKEQ_clean_linker_1, # of connection points: 2
#     Edge 84, Type (0, 0), BuildingBlock: KIFKEQ_clean_linker_1, # of connection points: 2
#     Edge 85, Type (0, 0), BuildingBlock: KIFKEQ_clean_linker_1, # of connection points: 2
#     Edge 86, Type (0, 0), BuildingBlock: KIFKEQ_clean_linker_1, # of connection points: 2
#     Edge 87, Type (0, 0), BuildingBlock: KIFKEQ_clean_linker_1, # of connection points: 2
#     Edge 88, Type (0, 0), BuildingBlock: KIFKEQ_clean_linker_1, # of connection points: 2
#     Edge 89, Type (0, 0), BuildingBlock: KIFKEQ_clean_linker_1, # of connection points: 2
#     Edge 90, Type (0, 0), BuildingBlock: KIFKEQ_clean_linker_1, # of connection points: 2
#     Edge 91, Type (0, 0), BuildingBlock: KIFKEQ_clean_linker_1, # of connection points: 2
#     Edge 92, Type (0, 0), BuildingBlock: KIFKEQ_clean_linker_1, # of connection points: 2
#     Edge 93, Type (0, 0), BuildingBlock: KIFKEQ_clean_linker_1, # of connection points: 2
#     Edge 94, Type (0, 0), BuildingBlock: KIFKEQ_clean_linker_1, # of connection points: 2
#     Edge 95, Type (0, 0), BuildingBlock: KIFKEQ_clean_linker_1, # of connection points: 2
#     Edge 96, Type (0, 0), BuildingBlock: KIFKEQ_clean_linker_1, # of connection points: 2
#     Edge 97, Type (0, 0), BuildingBlock: KIFKEQ_clean_linker_1, # of connection points: 2
#     Edge 98, Type (0, 0), BuildingBlock: KIFKEQ_clean_linker_1, # of connection points: 2
#     Edge 99, Type (0, 0), BuildingBlock: KIFKEQ_clean_linker_1, # of connection points: 2
#     Edge 100, Type (0, 0), BuildingBlock: KIFKEQ_clean_linker_1, # of connection points: 2
#     Edge 101, Type (0, 0), BuildingBlock: KIFKEQ_clean_linker_1, # of connection points: 2
#     Edge 102, Type (0, 0), BuildingBlock: KIFKEQ_clean_linker_1, # of connection points: 2
#     Edge 103, Type (0, 0), BuildingBlock: KIFKEQ_clean_linker_1, # of connection points: 2
#     Edge 104, Type (0, 0), BuildingBlock: KIFKEQ_clean_linker_1, # of connection points: 2
#     Edge 105, Type (0, 0), BuildingBlock: KIFKEQ_clean_linker_1, # of connection points: 2
#     Edge 106, Type (0, 0), BuildingBlock: KIFKEQ_clean_linker_1, # of connection points: 2
#     Edge 107, Type (0, 0), BuildingBlock: KIFKEQ_clean_linker_1, # of connection points: 2
#     Edge 108, Type (0, 0), BuildingBlock: KIFKEQ_clean_linker_1, # of connection points: 2
#     Edge 109, Type (0, 0), BuildingBlock: KIFKEQ_clean_linker_1, # of connection points: 2
#     Edge 110, Type (0, 0), BuildingBlock: KIFKEQ_clean_linker_1, # of connection points: 2
#     Edge 111, Type (0, 0), BuildingBlock: KIFKEQ_clean_linker_1, # of connection points: 2
#     Edge 112, Type (0, 0), BuildingBlock: KIFKEQ_clean_linker_1, # of connection points: 2
#     Edge 113, Type (0, 0), BuildingBlock: KIFKEQ_clean_linker_1, # of connection points: 2
#     Edge 114, Type (0, 0), BuildingBlock: KIFKEQ_clean_linker_1, # of connection points: 2
#     Edge 115, Type (0, 0), BuildingBlock: KIFKEQ_clean_linker_1, # of connection points: 2
#     Edge 116, Type (0, 0), BuildingBlock: KIFKEQ_clean_linker_1, # of connection points: 2
#     Edge 117, Type (0, 0), BuildingBlock: KIFKEQ_clean_linker_1, # of connection points: 2
#     Edge 118, Type (0, 0), BuildingBlock: KIFKEQ_clean_linker_1, # of connection points: 2
#     Edge 119, Type (0, 0), BuildingBlock: KIFKEQ_clean_linker_1, # of connection points: 2
#     Edge 120, Type (0, 0), BuildingBlock: KIFKEQ_clean_linker_1, # of connection points: 2
#     Edge 121, Type (0, 0), BuildingBlock: KIFKEQ_clean_linker_1, # of connection points: 2
#     Edge 122, Type (0, 0), BuildingBlock: KIFKEQ_clean_linker_1, # of connection points: 2
#     Edge 123, Type (0, 0), BuildingBlock: KIFKEQ_clean_linker_1, # of connection points: 2
#     Edge 124, Type (0, 0), BuildingBlock: KIFKEQ_clean_linker_1, # of connection points: 2
#     Edge 125, Type (0, 0), BuildingBlock: KIFKEQ_clean_linker_1, # of connection points: 2
#     Edge 126, Type (0, 0), BuildingBlock: KIFKEQ_clean_linker_1, # of connection points: 2
#     Edge 127, Type (0, 0), BuildingBlock: KIFKEQ_clean_linker_1, # of connection points: 2
#     Edge 128, Type (0, 0), BuildingBlock: KIFKEQ_clean_linker_1, # of connection points: 2
#     Edge 129, Type (0, 0), BuildingBlock: KIFKEQ_clean_linker_1, # of connection points: 2
#     Edge 130, Type (0, 0), BuildingBlock: KIFKEQ_clean_linker_1, # of connection points: 2
#     Edge 131, Type (0, 0), BuildingBlock: KIFKEQ_clean_linker_1, # of connection points: 2
#     Edge 132, Type (0, 0), BuildingBlock: KIFKEQ_clean_linker_1, # of connection points: 2
#     Edge 133, Type (0, 0), BuildingBlock: KIFKEQ_clean_linker_1, # of connection points: 2
#     Edge 134, Type (0, 0), BuildingBlock: KIFKEQ_clean_linker_1, # of connection points: 2
#     Edge 135, Type (0, 0), BuildingBlock: KIFKEQ_clean_linker_1, # of connection points: 2
#     Edge 136, Type (0, 0), BuildingBlock: KIFKEQ_clean_linker_1, # of connection points: 2
#     Edge 137, Type (0, 0), BuildingBlock: KIFKEQ_clean_linker_1, # of connection points: 2
#     Edge 138, Type (0, 0), BuildingBlock: KIFKEQ_clean_linker_1, # of connection points: 2
#     Edge 139, Type (0, 0), BuildingBlock: KIFKEQ_clean_linker_1, # of connection points: 2
#     Edge 140, Type (0, 0), BuildingBlock: KIFKEQ_clean_linker_1, # of connection points: 2
#     Edge 141, Type (0, 0), BuildingBlock: KIFKEQ_clean_linker_1, # of connection points: 2
#     Edge 142, Type (0, 0), BuildingBlock: KIFKEQ_clean_linker_1, # of connection points: 2
#     Edge 143, Type (0, 0), BuildingBlock: KIFKEQ_clean_linker_1, # of connection points: 2
# Relax obj value: 0.162
# Max RMSD: 0.220
# Mean RMSD: 0.213
data_MOF--net-ull--node1-NAHDIM_clean_sbu_0--edge1-KIFKEQ_clean_linker_1
_symmetry_space_group_name_H-M    P1
_symmetry_Int_Tables_number       1
_symmetry_cell_setting            triclinic
loop_
_symmetry_equiv_pos_as_xyz
'x, y, z'
_cell_length_a     60.133604
_cell_length_b     61.250938
_cell_length_c     61.237708
_cell_angle_alpha  89.997858
_cell_angle_beta   90.003152
_cell_angle_gamma 90.005207
loop_
_atom_site_label
_atom_site_type_symbol
_atom_site_fract_x
_atom_site_fract_y
_atom_site_fract_z
_atom_type_partial_charge
C0 C 0.03302 0.34851 0.13018 0.0
O1 O 0.01522 0.35962 0.12458 0.0
O2 O 0.00954 0.36647 0.18844 0.0
Zn3 Zn 0.00703 0.34015 0.16871 0.0
O4 O 0.97902 0.33966 0.15073 0.0
C5 C 0.9902 0.30315 0.19309 0.0
O6 O 0.97112 0.30911 0.18452 0.0
O7 O 0.0334 0.33878 0.14851 0.0
C8 C 0.96344 0.35363 0.15136 0.0
O9 O 0.96505 0.37044 0.16459 0.0
C10 C 0.01911 0.38424 0.18323 0.0
O11 O 0.02646 0.38679 0.16321 0.0
O12 O 0.0077 0.31374 0.18828 0.0
C13 C 0.58353 0.01737 0.19449 0.0
O14 O 0.58169 0.02171 0.17356 0.0
O15 O 0.63108 0.03251 0.16251 0.0
Zn16 Zn 0.62913 0.00678 0.18305 0.0
O17 O 0.65552 0.00682 0.20327 0.0
C18 C 0.61788 0.9777 0.14783 0.0
O19 O 0.60685 0.99491 0.14103 0.0
O20 O 0.60189 0.01013 0.2018 0.0
C21 C 0.6741 0.99803 0.19874 0.0
O22 O 0.67676 0.98844 0.17974 0.0
C23 C 0.64462 0.03237 0.14657 0.0
O24 O 0.65764 0.01538 0.14383 0.0
O25 O 0.62836 0.97871 0.16583 0.0
C26 C 0.94761 0.64816 0.1484 0.0
O27 O 0.94325 0.63488 0.1647 0.0
O28 O 0.98528 0.61874 0.18018 0.0
Zn29 Zn 0.99225 0.64779 0.1665 0.0
O30 O 0.01988 0.64643 0.14804 0.0
C31 C 0.97934 0.67832 0.20032 0.0
O32 O 0.95922 0.67137 0.19569 0.0
O33 O 0.9671 0.65594 0.1464 0.0
C34 C 0.03766 0.65667 0.15269 0.0
O35 O 0.03887 0.66759 0.17111 0.0
C36 C 0.99547 0.61113 0.19668 0.0
O37 O 0.01229 0.62208 0.2049 0.0
O38 O 0.99582 0.67053 0.18994 0.0
C39 C 0.40154 0.99026 0.21828 0.0
O40 O 0.38564 0.00258 0.22633 0.0
O41 O 0.36949 0.96266 0.15965 0.0
Zn42 Zn 0.37131 0.98693 0.1818 0.0
O43 O 0.34531 0.98593 0.20256 0.0
C44 C 0.38051 0.01654 0.14693 0.0
O45 O 0.39126 -0.00062 0.13958 0.0
O46 O 0.39944 0.98264 0.19909 0.0
C47 C 0.32713 0.9958 0.19873 0.0
O48 O 0.32482 0.00655 0.1803 0.0
C49 C 0.35533 0.94726 0.15947 0.0
O50 O 0.34014 0.94633 0.17486 0.0
O51 O 0.3712 0.01552 0.16553 0.0
C52 C 0.0265 0.64892 0.85983 0.0
O53 O 0.00656 0.646 0.86808 0.0
O54 O 0.00457 0.61389 0.80529 0.0
Zn55 Zn 0.00245 0.64359 0.81943 0.0
O56 O 0.97421 0.64774 0.83661 0.0
C57 C 0.00304 0.68608 0.79889 0.0
O58 O 0.00386 0.69305 0.81917 0.0
O59 O 0.02897 0.64867 0.83921 0.0
C60 C 0.95853 0.634 0.83872 0.0
O61 O 0.95983 0.6151 0.82865 0.0
C62 C 0.01875 0.59976 0.81141 0.0
O63 O 0.03107 0.60381 0.82865 0.0
O64 O 0.00262 0.66567 0.79522 0.0
C65 C 0.39452 0.03403 0.79148 0.0
O66 O 0.38141 0.04868 0.80041 0.0
O67 O 0.36896 0.03211 0.84089 0.0
Zn68 Zn 0.36669 0.00885 0.81769 0.0
O69 O 0.33764 0.01102 0.80125 0.0
C70 C 0.35485 0.97607 0.84771 0.0
O71 O 0.3392 0.99062 0.85118 0.0
O72 O 0.39164 0.01402 0.79623 0.0
C73 C 0.32724 0.99403 0.79509 0.0
O74 O 0.3353 0.9747 0.79998 0.0
C75 C 0.35302 0.04376 0.84795 0.0
O76 O 0.33293 0.04085 0.84005 0.0
O77 O 0.36933 0.97985 0.83305 0.0
C78 C 0.9514 0.34813 0.84941 0.0
O79 O 0.94463 0.35355 0.82975 0.0
O80 O 0.98546 0.38275 0.81685 0.0
Zn81 Zn 0.99452 0.35401 0.82997 0.0
O82 O 0.02455 0.356 0.84444 0.0
C83 C 0.98289 0.33182 0.78963 0.0
O84 O 0.97091 0.34942 0.78621 0.0
O85 O 0.97213 0.34684 0.85321 0.0
C86 C 0.03857 0.34052 0.84307 0.0
O87 O 0.03382 0.32341 0.83101 0.0
C88 C 0.99612 0.39303 0.80218 0.0
O89 O 0.01512 0.38515 0.79512 0.0
O90 O 0.99425 0.3303 0.80707 0.0
C91 C 0.59807 0.99397 0.77811 0.0
O92 O 0.61607 0.00282 0.76981 0.0
O93 O 0.62204 0.96744 0.83924 0.0
Zn94 Zn 0.62381 0.99292 0.81858 0.0
O95 O 0.65237 0.99238 0.80106 0.0
C96 C 0.63914 0.02249 0.85006 0.0
O97 O 0.65487 0.0076 0.85013 0.0
O98 O 0.59741 0.98982 0.79844 0.0
C99 C 0.66092 0.01029 0.79472 0.0
O100 O 0.651 0.02872 0.79978 0.0
C101 C 0.63798 0.95529 0.84537 0.0
O102 O 0.65807 0.95879 0.8377 0.0
O103 O 0.62282 0.0202 0.83704 0.0
C104 C 0.22587 0.99269 0.38367 0.0
O105 O 0.23656 0.98754 0.36568 0.0
O106 O 0.16562 0.01512 0.35367 0.0
Zn107 Zn 0.18673 0.98956 0.35591 0.0
O108 O 0.20687 0.98809 0.32953 0.0
C109 C 0.15635 0.95787 0.34082 0.0
O110 O 0.15713 0.97099 0.32385 0.0
O111 O 0.20475 0.9934 0.38343 0.0
C112 C 0.21193 0.00478 0.31824 0.0
O113 O 0.20362 0.02387 0.3236 0.0
C114 C 0.16984 0.03329 0.36284 0.0
O115 O 0.18877 0.03576 0.37326 0.0
O116 O 0.16833 0.96221 0.35735 0.0
C117 C 0.96335 0.15182 0.35669 0.0
O118 O 0.959 0.17138 0.36436 0.0
O119 O 0.00523 0.18957 0.37639 0.0
Zn120 Zn 0.00881 0.16829 0.35148 0.0
O121 O 0.03714 0.15083 0.35261 0.0
C122 C 0.9934 0.19975 0.32062 0.0
O123 O 0.97852 0.2028 0.33602 0.0
O124 O 0.98305 0.14719 0.35069 0.0
C125 C 0.04932 0.14762 0.36926 0.0
O126 O 0.04401 0.15677 0.38793 0.0
C127 C 0.99805 0.18468 0.3953 0.0
O128 O 0.99437 0.16409 0.40012 0.0
O129 O 0.00852 0.18555 0.32349 0.0
C130 C 0.77672 0.99357 0.38355 0.0
O131 O 0.76569 0.99452 0.36506 0.0
O132 O 0.83599 0.97901 0.35252 0.0
Zn133 Zn 0.81439 0.00396 0.35592 0.0
O134 O 0.79377 0.00613 0.3299 0.0
C135 C 0.84504 0.03606 0.34258 0.0
O136 O 0.84485 0.02339 0.32526 0.0
O137 O 0.79731 0.99825 0.38364 0.0
C138 C 0.79287 0.99163 0.31507 0.0
O139 O 0.80602 0.97456 0.31631 0.0
C140 C 0.83107 0.95985 0.35888 0.0
O141 O 0.81114 0.95607 0.36682 0.0
O142 O 0.83242 0.03138 0.35855 0.0
C143 C 0.03952 0.84012 0.34873 0.0
O144 O 0.04373 0.82033 0.35591 0.0
O145 O 0.99633 0.80673 0.37434 0.0
Zn146 Zn 0.99303 0.8257 0.34766 0.0
O147 O 0.96582 0.84467 0.34865 0.0
C148 C 0.00247 0.78877 0.32041 0.0
O149 O 0.01668 0.78457 0.33615 0.0
O150 O 0.0196 0.84546 0.34426 0.0
C151 C 0.95146 0.84532 0.36384 0.0
O152 O 0.95374 0.83251 0.3809 0.0
C153 C 0.00527 0.81266 0.39218 0.0
O154 O 0.01163 0.83305 0.39453 0.0
O155 O 0.99059 0.8059 0.32157 0.0
C156 C 0.18773 0.98473 0.60197 0.0
O157 O 0.16611 0.98207 0.60328 0.0
O158 O 0.16058 0.97616 0.65074 0.0
Zn159 Zn 0.18108 0.00166 0.64516 0.0
O160 O 0.20337 0.00444 0.66966 0.0
C161 C 0.14518 0.03058 0.63223 0.0
O162 O 0.13787 0.01298 0.6223 0.0
O163 O 0.19786 0.99414 0.61759 0.0
C164 C 0.19945 0.99804 0.68903 0.0
O165 O 0.17999 0.98949 0.69366 0.0
C166 C 0.14206 0.97708 0.66069 0.0
O167 O 0.13545 0.99571 0.6691 0.0
O168 O 0.16353 0.02975 0.64251 0.0
C169 C 0.04135 0.15914 0.64627 0.0
O170 O 0.04734 0.1791 0.64107 0.0
O171 O 0.00154 0.19563 0.62176 0.0
Zn172 Zn 0.99691 0.17786 0.64905 0.0
O173 O 0.96771 0.16173 0.64988 0.0
C174 C 0.98165 0.21094 0.67746 0.0
O175 O 0.96451 0.20917 0.66427 0.0
O176 O 0.02111 0.15527 0.65083 0.0
C177 C 0.95267 0.1616 0.63531 0.0
O178 O 0.95533 0.17329 0.61752 0.0
C179 C 0.00645 0.1873 0.60338 0.0
O180 O 0.00675 0.16595 0.60133 0.0
O181 O -0.00167 0.19853 0.67454 0.0
C182 C 0.77456 0.0106 0.61626 0.0
O183 O 0.76255 0.00308 0.63253 0.0
O184 O 0.83245 0.03305 0.65206 0.0
Zn185 Zn 0.81089 0.00824 0.64756 0.0
O186 O 0.78849 0.00622 0.67198 0.0
C187 C 0.84085 0.97494 0.66151 0.0
O188 O 0.8415 0.98731 0.67903 0.0
O189 O 0.79531 0.01344 0.61896 0.0
C190 C 0.79002 0.01661 0.68988 0.0
O191 O 0.80717 0.02949 0.69318 0.0
C192 C 0.82776 0.05231 0.64585 0.0
O193 O 0.80805 0.05624 0.63747 0.0
O194 O 0.82836 0.98046 0.64572 0.0
C195 C 0.95859 0.86056 0.63957 0.0
O196 O 0.96937 0.86082 0.62091 0.0
O197 O 0.98738 0.81506 0.61964 0.0
Zn198 Zn 0.99279 0.83055 0.64811 0.0
O199 O 0.01799 0.85195 0.646 0.0
C200 C 0.98558 0.79238 0.67417 0.0
O201 O 0.96944 0.7895 0.65999 0.0
O202 O 0.96544 0.8481 0.65473 0.0
C203 C 0.03731 0.84876 0.65376 0.0
O204 O 0.04205 0.82983 0.66272 0.0
C205 C 0.9982 0.79868 0.61263 0.0
O206 O 0.01504 0.7912 0.62407 0.0
O207 O 0.99808 0.809 0.67233 0.0
C208 C 0.40633 0.19061 0.03136 0.0
O209 O 0.40121 0.17521 0.0454 0.0
O210 O 0.36842 0.14886 0.03169 0.0
Zn211 Zn 0.36762 0.17348 0.00985 0.0
O212 O 0.34101 0.19284 0.01445 0.0
C213 C 0.3792 0.14378 0.97608 0.0
O214 O 0.39305 0.13728 0.99135 0.0
O215 O 0.39479 0.19257 0.01405 0.0
C216 C 0.32273 0.19084 0.00423 0.0
O217 O 0.32022 0.17465 0.99037 0.0
C218 C 0.35318 0.1432 0.04488 0.0
O219 O 0.33412 0.15368 0.04479 0.0
O220 O 0.36675 0.16012 0.97984 0.0
C221 C 0.4053 0.7925 0.98883 0.0
O222 O 0.39367 0.78257 0.00404 0.0
O223 O 0.36453 0.84969 0.96935 0.0
Zn224 Zn 0.37044 0.8257 0.99106 0.0
O225 O 0.34547 0.80357 0.99105 0.0
C226 C 0.35499 0.84722 0.02888 0.0
O227 O 0.33641 0.84524 0.01777 0.0
O228 O 0.39887 0.811 0.98188 0.0
C229 C 0.32748 0.8063 0.98047 0.0
O230 O 0.32474 0.8242 0.96897 0.0
C231 C 0.3684 0.84695 0.94912 0.0
O232 O 0.37569 0.82791 0.94232 0.0
O233 O 0.37282 0.83945 0.02085 0.0
C234 C 0.20133 0.39496 0.97768 0.0
O235 O 0.18035 0.39555 0.97169 0.0
O236 O 0.16956 0.35072 0.96204 0.0
Zn237 Zn 0.18886 0.3515 0.98887 0.0
O238 O 0.20741 0.32416 0.99036 0.0
C239 C 0.15863 0.33726 0.02206 0.0
O240 O 0.16234 0.31828 0.01276 0.0
O241 O 0.20891 0.3777 0.98647 0.0
C242 C 0.21636 0.31782 0.00806 0.0
O243 O 0.21346 0.32941 0.02588 0.0
C244 C 0.16142 0.33329 0.95413 0.0
O245 O 0.16604 0.3145 0.96344 0.0
O246 O 0.16869 0.35407 0.01494 0.0
C247 C 0.60109 0.19628 0.96722 0.0
O248 O 0.61555 0.18793 0.95348 0.0
O249 O 0.63107 0.14937 0.97149 0.0
Zn250 Zn 0.62978 0.17306 0.99436 0.0
O251 O 0.65733 0.19187 0.99329 0.0
C252 C 0.64528 0.14836 0.02983 0.0
O253 O 0.66331 0.15019 0.01784 0.0
O254 O 0.6033 0.19226 0.98749 0.0
C255 C 0.66201 0.20428 0.00927 0.0
O256 O 0.64886 0.20439 0.02641 0.0
C257 C 0.64802 0.14501 0.95989 0.0
O258 O 0.66643 0.15617 0.96282 0.0
O259 O 0.6276 0.15782 0.02349 0.0
C260 C 0.79621 0.60856 0.98405 0.0
O261 O 0.81734 0.60351 0.98619 0.0
O262 O 0.83419 0.64994 0.96365 0.0
Zn263 Zn 0.81257 0.65263 0.98857 0.0
O264 O 0.79573 0.68103 0.98788 0.0
C265 C 0.84083 0.66625 0.02313 0.0
O266 O 0.8408 0.68418 0.01134 0.0
O267 O 0.79037 0.62845 0.98538 0.0
C268 C 0.78397 0.68555 0.00452 0.0
O269 O 0.78402 0.67198 0.02115 0.0
C270 C 0.83941 0.66507 0.95042 0.0
O271 O 0.83043 0.68449 0.9527 0.0
O272 O 0.82947 0.64997 0.01672 0.0
C273 C 0.59389 0.79091 0.00905 0.0
O274 O 0.60725 0.78067 0.99552 0.0
O275 O 0.63174 0.8497 0.02818 0.0
Zn276 Zn 0.62718 0.82526 0.00676 0.0
O277 O 0.65222 0.80366 0.00885 0.0
C278 C 0.61442 0.85524 0.97362 0.0
O279 O 0.60235 0.86274 0.98985 0.0
O280 O 0.59866 0.81023 0.01499 0.0
C281 C 0.67137 0.80742 0.00094 0.0
O282 O 0.67519 0.82621 0.99128 0.0
C283 C 0.62854 0.84675 0.04848 0.0
O284 O 0.62339 0.82713 0.05552 0.0
O285 O 0.62612 0.83823 0.97663 0.0
C286 C 0.20561 0.62834 0.0271 0.0
O287 O 0.20144 0.64579 0.03888 0.0
O288 O 0.15872 0.65729 0.02331 0.0
Zn289 Zn 0.18182 0.65499 -0.00038 0.0
O290 O 0.20222 0.68113 -0.00058 0.0
C291 C 0.15113 0.66756 0.96789 0.0
O292 O 0.15019 0.68381 0.98188 0.0
O293 O 0.19949 0.62808 0.00722 0.0
C294 C 0.21063 0.68804 0.98168 0.0
O295 O 0.20546 0.67825 0.96328 0.0
C296 C 0.15568 0.67288 0.03664 0.0
O297 O 0.16805 0.69051 0.03525 0.0
O298 O 0.16495 0.65223 0.97133 0.0
C299 C 0.77545 0.38395 0.00397 0.0
O300 O 0.76515 0.3681 0.99364 0.0
O301 O 0.83382 0.35231 0.03102 0.0
Zn302 Zn 0.8118 0.35282 0.00627 0.0
O303 O 0.78932 0.32834 0.00891 0.0
C304 C 0.84569 0.33929 0.97673 0.0
O305 O 0.85116 0.3275 0.99383 0.0
O306 O 0.79561 0.38131 0.00957 0.0
C307 C 0.79073 0.30987 -0.00047 0.0
O308 O 0.80815 0.30551 0.98735 0.0
C309 C 0.83749 0.3366 0.04407 0.0
O310 O 0.82637 0.31827 0.04182 0.0
O311 O 0.82869 0.3516 0.97783 0.0
C312 C 0.55504 0.84428 0.64932 0.0
O313 O 0.5616 0.85219 0.6682 0.0
O314 O 0.5197 0.87655 0.68163 0.0
Zn315 Zn 0.51084 0.84775 0.66822 0.0
O316 O 0.48259 0.84937 0.65074 0.0
C317 C 0.50146 0.82835 0.71023 0.0
O318 O 0.49577 0.84848 0.71505 0.0
O319 O 0.53453 0.8403 0.64634 0.0
C320 C 0.46269 0.84823 0.65763 0.0
O321 O 0.45885 0.84709 0.67871 0.0
C322 C 0.50749 0.89171 0.6892 0.0
O323 O 0.48576 0.88956 0.68889 0.0
O324 O 0.50855 0.8241 0.69113 0.0
C325 C 0.08844 0.5155 0.69296 0.0
O326 O 0.08496 0.52232 0.67291 0.0
O327 O 0.12828 0.53105 0.65513 0.0
Zn328 Zn 0.13194 0.50568 0.67572 0.0
O329 O 0.16064 0.50815 0.69258 0.0
C330 C 0.1495 0.46902 0.65199 0.0
O331 O 0.16847 0.47812 0.65748 0.0
O332 O 0.10699 0.50673 0.69766 0.0
C333 C 0.16507 0.49296 0.70603 0.0
O334 O 0.15109 0.47658 0.70796 0.0
C335 C 0.14405 0.53961 0.64432 0.0
O336 O 0.16434 0.53199 0.6467 0.0
O337 O 0.13139 0.47778 0.65816 0.0
C338 C 0.45619 0.14721 0.64627 0.0
O339 O 0.44983 0.14439 0.6666 0.0
O340 O 0.49705 0.1219 0.68398 0.0
Zn341 Zn 0.50089 0.14837 0.66481 0.0
O342 O 0.53029 0.14871 0.64926 0.0
C343 C 0.48716 0.17459 0.7012 0.0
O344 O 0.47601 0.15676 0.70591 0.0
O345 O 0.47678 0.14929 0.64203 0.0
C346 C 0.54257 0.13211 0.64618 0.0
O347 O 0.53644 0.11311 0.65411 0.0
C348 C 0.48783 0.1042 0.67801 0.0
O349 O 0.48201 0.10175 0.65748 0.0
O350 O 0.49894 0.17509 0.68396 0.0
C351 C 0.89794 0.48812 0.71373 0.0
O352 O 0.8822 0.49995 0.72274 0.0
O353 O 0.86653 0.45979 0.6558 0.0
Zn354 Zn 0.86733 0.48509 0.67686 0.0
O355 O 0.84093 0.48483 0.69744 0.0
C356 C 0.85748 0.51402 0.64159 0.0
O357 O 0.8466 0.49664 0.63497 0.0
O358 O 0.89532 0.48114 0.69436 0.0
C359 C 0.8223 0.49355 0.69287 0.0
O360 O 0.81955 0.50283 0.67373 0.0
C361 C 0.84972 0.44801 0.65144 0.0
O362 O 0.83074 0.4519 0.66132 0.0
O363 O 0.8681 0.51322 0.65954 0.0
C364 C 0.53106 0.1347 0.35483 0.0
O365 O 0.51729 0.11831 0.35772 0.0
O366 O 0.50229 0.12181 0.3008 0.0
Zn367 Zn 0.49914 0.14677 0.32184 0.0
O368 O 0.47264 0.1437 0.3415 0.0
C369 C 0.51413 0.17866 0.29261 0.0
O370 O 0.53187 0.16628 0.29455 0.0
O371 O 0.52669 0.14891 0.34034 0.0
C372 C 0.45278 0.14718 0.33537 0.0
O373 O 0.44889 0.15237 0.3149 0.0
C374 C 0.49916 0.10157 0.30419 0.0
O375 O 0.49246 0.09491 0.32349 0.0
O376 O 0.49689 0.17392 0.30363 0.0
C377 C 0.9061 0.50712 0.28484 0.0
O378 O 0.89229 0.49339 0.27547 0.0
O379 O 0.87196 0.53053 0.34415 0.0
Zn380 Zn 0.87391 0.50749 0.32081 0.0
O381 O 0.8475 0.50937 0.3004 0.0
C382 C 0.85651 0.47127 0.34399 0.0
O383 O 0.83819 0.48252 0.34086 0.0
O384 O 0.90191 0.51397 0.30399 0.0
C385 C 0.8401 0.49288 0.29008 0.0
O386 O 0.84981 0.47384 0.29268 0.0
C387 C 0.85688 0.54497 0.3457 0.0
O388 O 0.84066 0.54534 0.33133 0.0
O389 O 0.87473 0.47844 0.33626 0.0
C390 C 0.44418 0.84942 0.35039 0.0
O391 O 0.43946 0.86199 0.33365 0.0
O392 O 0.481 0.88025 0.31972 0.0
Zn393 Zn 0.48879 0.85086 0.33246 0.0
O394 O 0.51635 0.85195 0.35104 0.0
C395 C 0.49684 0.83274 0.28919 0.0
O396 O 0.49999 0.85327 0.28387 0.0
O397 O 0.4639 0.8423 0.35269 0.0
C398 C 0.53523 0.84452 0.34539 0.0
O399 O 0.53794 0.83687 0.32553 0.0
C400 C 0.49381 0.89449 0.31137 0.0
O401 O 0.51532 0.89083 0.31052 0.0
O402 O 0.49189 0.82797 0.30881 0.0
C403 C 0.10389 0.45702 0.30125 0.0
O404 O 0.11388 0.44244 0.31352 0.0
O405 O 0.1403 0.46027 0.344 0.0
Zn406 Zn 0.137 0.4838 0.32121 0.0
O407 O 0.16431 0.48446 0.30211 0.0
C408 C 0.1219 0.51431 0.35379 0.0
O409 O 0.11068 0.49719 0.36057 0.0
O410 O 0.11053 0.47674 0.30191 0.0
C411 C 0.17967 0.49855 0.30437 0.0
O412 O 0.17817 0.51307 0.32009 0.0
C413 C 0.15269 0.46184 0.36071 0.0
O414 O 0.16467 0.47956 0.36352 0.0
O415 O 0.13357 0.51272 0.33656 0.0
C416 C 0.69344 0.51921 0.89494 0.0
O417 O 0.67224 0.5244 0.8947 0.0
O418 O 0.66136 0.52882 0.8487 0.0
Zn419 Zn 0.68414 0.50482 0.85092 0.0
O420 O 0.70562 0.50551 0.82576 0.0
C421 C 0.65971 0.46794 0.86852 0.0
O422 O 0.66351 0.47765 0.88727 0.0
O423 O 0.70186 0.5098 0.87838 0.0
C424 C 0.70068 0.4997 0.80644 0.0
O425 O 0.68027 0.49338 0.80211 0.0
C426 C 0.66432 0.54724 0.83962 0.0
O427 O 0.68333 0.55139 0.8299 0.0
O428 O 0.66764 0.47616 0.85114 0.0
C429 C 0.46184 0.64453 0.86303 0.0
O430 O 0.47287 0.64636 0.88147 0.0
O431 O 0.4909 0.68964 0.87963 0.0
Zn432 Zn 0.49571 0.67387 0.85113 0.0
O433 O 0.52234 0.65401 0.85205 0.0
C434 C 0.48395 0.71016 0.82405 0.0
O435 O 0.46658 0.71024 0.83707 0.0
O436 O 0.46861 0.6551 0.84643 0.0
C437 C 0.54226 0.66035 0.84928 0.0
O438 O 0.54632 0.68123 0.84645 0.0
C439 C 0.49903 0.70805 0.88488 0.0
O440 O 0.51307 0.71771 0.87158 0.0
O441 O 0.49886 0.69571 0.82675 0.0
C442 C 0.31017 0.4828 0.89539 0.0
O443 O 0.33085 0.47605 0.89401 0.0
O444 O 0.3374 0.467 0.84935 0.0
Zn445 Zn 0.31787 0.49361 0.85043 0.0
O446 O 0.29499 0.49253 0.82651 0.0
C447 C 0.33574 0.53655 0.8608 0.0
O448 O 0.32044 0.53651 0.87612 0.0
O449 O 0.30139 0.49227 0.87905 0.0
C450 C 0.29699 0.501 0.80767 0.0
O451 O 0.31546 0.51127 0.80256 0.0
C452 C 0.34719 0.45949 0.83259 0.0
O453 O 0.34452 0.46924 0.81367 0.0
O454 O 0.33723 0.5203 0.84799 0.0
C455 C 0.53381 0.36078 0.85604 0.0
O456 O 0.51487 0.36673 0.86492 0.0
O457 O 0.50719 0.30358 0.871 0.0
Zn458 Zn 0.50725 0.32385 0.84498 0.0
O459 O 0.48054 0.34359 0.84331 0.0
C460 C 0.48966 0.29481 0.8135 0.0
O461 O 0.47211 0.29777 0.82593 0.0
O462 O 0.53485 0.34261 0.84604 0.0
C463 C 0.46238 0.34175 0.85374 0.0
O464 O 0.45976 0.32551 0.86751 0.0
C465 C 0.51343 0.30892 0.89011 0.0
O466 O 0.51841 0.32939 0.8942 0.0
O467 O 0.50755 0.30484 0.81816 0.0
C468 C 0.69797 0.47051 0.11527 0.0
O469 O 0.69153 0.45676 0.13045 0.0
O470 O 0.65837 0.47683 0.15312 0.0
Zn471 Zn 0.6831 0.49855 0.14831 0.0
O472 O 0.70697 0.49585 0.17151 0.0
C473 C 0.65465 0.53243 0.16261 0.0
O474 O 0.65068 0.51752 0.17755 0.0
O475 O 0.69667 0.4909 0.11902 0.0
C476 C 0.71031 0.50971 0.18663 0.0
O477 O 0.6976 0.52708 0.18787 0.0
C478 C 0.65702 0.46275 0.16829 0.0
O479 O 0.67234 0.46223 0.18358 0.0
O480 O 0.66896 0.52843 0.14785 0.0
C481 C 0.54911 0.65923 0.15124 0.0
O482 O 0.55359 0.6765 0.13929 0.0
O483 O 0.50989 0.68959 0.12137 0.0
Zn484 Zn 0.50384 0.67617 0.15084 0.0
O485 O 0.47643 0.65738 0.15104 0.0
C486 C 0.51489 0.71499 0.17515 0.0
O487 O 0.53161 0.71565 0.16135 0.0
O488 O 0.52941 0.65634 0.15822 0.0
C489 C 0.45718 0.6626 0.14429 0.0
O490 O 0.45396 0.68196 0.13562 0.0
C491 C 0.50161 0.70755 0.1149 0.0
O492 O 0.48711 0.7177 0.12733 0.0
O493 O 0.50087 0.69954 0.17375 0.0
C494 C 0.27924 0.51352 0.11631 0.0
O495 O 0.26838 0.50318 0.1318 0.0
O496 O 0.33961 0.53034 0.15065 0.0
Zn497 Zn 0.31682 0.50702 0.1451 0.0
O498 O 0.29547 0.50433 0.17041 0.0
C499 C 0.3403 0.4679 0.15621 0.0
O500 O 0.33527 0.47433 0.17607 0.0
O501 O 0.30011 0.51611 0.11815 0.0
C502 C 0.29979 0.51045 0.18978 0.0
O503 O 0.31938 0.51887 0.19418 0.0
C504 C 0.33443 0.55044 0.15132 0.0
O505 O 0.31343 0.55609 0.14959 0.0
O506 O 0.33337 0.47897 0.14003 0.0
C507 C 0.46812 0.36384 0.13971 0.0
O508 O 0.48556 0.371 0.12895 0.0
O509 O 0.49525 0.30827 0.1194 0.0
Zn510 Zn 0.49689 0.32718 0.14639 0.0
O511 O 0.52312 0.34767 0.14618 0.0
C512 C 0.50831 0.28898 0.17081 0.0
O513 O 0.51727 0.28358 0.152 0.0
O514 O 0.46895 0.34517 0.14873 0.0
C515 C 0.54172 0.34362 0.15516 0.0
O516 O 0.54507 0.32445 0.16418 0.0
C517 C 0.48444 0.31323 0.10226 0.0
O518 O 0.47505 0.33253 0.10087 0.0
O519 O 0.49863 0.30734 0.17258 0.0
C520 C 0.91114 0.70828 0.50878 0.0
O521 O 0.89834 0.71727 0.4939 0.0
O522 O 0.87513 0.65013 0.53289 0.0
Zn523 Zn 0.87816 0.67282 0.50934 0.0
O524 O 0.8517 0.69312 0.50979 0.0
C525 C 0.86193 0.64732 0.47456 0.0
O526 O 0.84426 0.64864 0.48711 0.0
O527 O 0.90605 0.68963 0.51636 0.0
C528 C 0.84536 0.7029 0.49256 0.0
O529 O 0.85639 0.69983 0.4743 0.0
C530 C 0.85689 0.64468 0.54184 0.0
O531 O 0.83838 0.6543 0.53576 0.0
O532 O 0.87963 0.65705 0.48045 0.0
C533 C 0.8988 0.29578 0.4615 0.0
O534 O 0.88419 0.30235 0.44696 0.0
O535 O 0.86726 0.34176 0.46164 0.0
Zn536 Zn 0.86904 0.32019 0.48659 0.0
O537 O 0.84236 0.30002 0.48638 0.0
C538 C 0.85909 0.35392 0.51723 0.0
O539 O 0.84688 0.36026 0.50064 0.0
O540 O 0.89621 0.30145 0.48132 0.0
C541 C 0.82571 0.30203 0.49903 0.0
O542 O 0.8251 0.31832 0.51294 0.0
C543 C 0.8493 0.34802 0.45267 0.0
O544 O 0.83017 0.3406 0.45991 0.0
O545 O 0.87084 0.33674 0.5153 0.0
C546 C 0.72174 0.88003 0.48407 0.0
O547 O 0.73613 0.86496 0.48984 0.0
O548 O 0.66866 0.83945 0.46201 0.0
Zn549 Zn 0.68941 0.84476 0.48728 0.0
O550 O 0.71449 0.82303 0.48662 0.0
C551 C 0.65482 0.85385 0.5177 0.0
O552 O 0.64825 0.86627 0.50143 0.0
O553 O 0.70124 0.87514 0.48289 0.0
C554 C 0.71308 0.8044 0.49563 0.0
O555 O 0.69456 0.79891 0.50561 0.0
C556 C 0.65121 0.8278 0.46297 0.0
O557 O 0.6465 0.81738 0.48114 0.0
O558 O 0.67266 0.84293 0.51567 0.0
C559 C 0.09256 0.69585 0.46336 0.0
O560 O 0.10339 0.68497 0.44824 0.0
O561 O 0.1245 0.64981 0.46636 0.0
Zn562 Zn 0.12542 0.67456 0.48815 0.0
O563 O 0.15249 0.69349 0.48407 0.0
C564 C 0.11281 0.64551 0.52251 0.0
O565 O 0.0981 0.63955 0.5078 0.0
O566 O 0.0986 0.69387 0.48317 0.0
C567 C 0.17058 0.69068 0.49443 0.0
O568 O 0.17243 0.67401 0.50782 0.0
C569 C 0.1408 0.64294 0.4551 0.0
O570 O 0.16041 0.65209 0.45747 0.0
O571 O 0.12588 0.66123 0.51818 0.0
C572 C 0.30576 0.09114 0.48468 0.0
O573 O 0.32758 0.09077 0.48572 0.0
O574 O 0.33439 0.13813 0.46689 0.0
Zn575 Zn 0.31287 0.13682 0.49202 0.0
O576 O 0.29126 0.16205 0.49073 0.0
C577 C 0.34749 0.14926 0.52071 0.0
O578 O 0.35184 0.16179 0.50382 0.0
O579 O 0.29565 0.10903 0.48815 0.0
C580 C 0.29161 0.1786 0.50326 0.0
O581 O 0.30701 0.18006 0.51838 0.0
C582 C 0.33221 0.14997 0.44999 0.0
O583 O 0.31493 0.16298 0.44829 0.0
O584 O 0.33066 0.13671 0.51996 0.0
C585 C 0.10457 0.27859 0.51036 0.0
O586 O 0.12238 0.26905 0.50244 0.0
O587 O 0.13408 0.33775 0.53604 0.0
Zn588 Zn 0.1328 0.3173 0.51027 0.0
O589 O 0.15991 0.29777 0.51052 0.0
C590 C 0.15014 0.34554 0.4775 0.0
O591 O 0.1682 0.34204 0.48904 0.0
O592 O 0.10493 0.29906 0.51385 0.0
C593 C 0.16792 0.28951 0.49317 0.0
O594 O 0.15838 0.29379 0.47435 0.0
C595 C 0.15225 0.34507 0.5437 0.0
O596 O 0.17116 0.3387 0.53508 0.0
O597 O 0.13221 0.33598 0.483 0.0
C598 C 0.69793 0.09894 0.50347 0.0
O599 O 0.67665 0.09612 0.49947 0.0
O600 O 0.66532 0.14713 0.52012 0.0
Zn601 Zn 0.68684 0.14376 0.49501 0.0
O602 O 0.70596 0.17061 0.49181 0.0
C603 C 0.65655 0.15485 0.46167 0.0
O604 O 0.65748 0.17339 0.47243 0.0
O605 O 0.70626 0.11789 0.50132 0.0
C606 C 0.71311 0.18056 0.50862 0.0
O607 O 0.70762 0.17329 0.52806 0.0
C608 C 0.66929 0.13946 0.53903 0.0
O609 O 0.68849 0.12997 0.54285 0.0
O610 O 0.66865 0.13905 0.46795 0.0
C611 C 0.27079 0.87102 0.52071 0.0
O612 O 0.26179 0.85156 0.52246 0.0
O613 O 0.33133 0.84573 0.5385 0.0
Zn614 Zn 0.31088 0.84602 0.51243 0.0
O615 O 0.29237 0.81849 0.51144 0.0
C616 C 0.33826 0.83167 0.47659 0.0
O617 O 0.33514 0.81258 0.48586 0.0
O618 O 0.29127 0.87259 0.51582 0.0
C619 C 0.28228 0.81332 0.49394 0.0
O620 O 0.28423 0.82602 0.47675 0.0
C621 C 0.34325 0.82946 0.54385 0.0
O622 O 0.34213 0.81146 0.53225 0.0
O623 O 0.32932 0.84851 0.48498 0.0
H624 H 0.08387 0.41733 0.2993 0.0
H625 H 0.08495 0.4804 0.2677 0.0
H626 H 0.05894 0.40363 0.2714 0.0
H627 H 0.05944 0.46666 0.2397 0.0
H628 H 0.04671 0.41959 0.17969 0.0
H629 H 0.063 0.44057 0.20946 0.0
H630 H 0.02209 0.40562 0.25572 0.0
H631 H 0.00617 0.38426 0.22602 0.0
C632 C 0.0785 0.42841 0.28656 0.0
C633 C 0.08658 0.4499 0.28562 0.0
C634 C 0.06399 0.42059 0.27063 0.0
C635 C 0.05716 0.43404 0.2533 0.0
C636 C 0.06454 0.45584 0.25277 0.0
C637 C 0.07906 0.46373 0.26884 0.0
C638 C 0.04084 0.41668 0.19616 0.0
C639 C 0.02548 0.39994 0.20053 0.0
C640 C 0.05011 0.42882 0.21323 0.0
C641 C 0.04412 0.4245 0.23501 0.0
C642 C 0.02741 0.40899 0.23916 0.0
C643 C 0.01822 0.39682 0.22212 0.0
H644 H 0.54404 0.0375 0.18509 0.0
H645 H 0.58307 0.01258 0.23887 0.0
H646 H 0.51821 0.05408 0.21095 0.0
H647 H 0.55754 0.02949 0.26461 0.0
H648 H 0.50474 0.05724 0.30798 0.0
H649 H 0.52017 0.03244 0.28055 0.0
H650 H 0.5236 0.08573 0.23444 0.0
H651 H 0.50801 0.11025 0.26151 0.0
C652 C 0.54692 0.03524 0.20241 0.0
C653 C 0.56584 0.02406 0.20992 0.0
C654 C 0.53216 0.04481 0.21721 0.0
C655 C 0.536 0.04337 0.23982 0.0
C656 C 0.554 0.03081 0.24732 0.0
C657 C 0.56876 0.02125 0.23253 0.0
C658 C 0.50839 0.06352 0.29184 0.0
C659 C 0.50542 0.08576 0.287 0.0
C660 C 0.51731 0.04935 0.27618 0.0
C661 C 0.52322 0.05714 0.25535 0.0
C662 C 0.51901 0.0791 0.2502 0.0
C663 C 0.51025 0.09324 0.26583 0.0
H664 H 0.01139 0.59143 0.23372 0.0
H665 H 0.95946 0.58656 0.18516 0.0
H666 H 0.99403 0.56195 0.25446 0.0
H667 H 0.94191 0.55765 0.20606 0.0
H668 H 0.91747 0.49967 0.24214 0.0
H669 H 0.94324 0.52086 0.21982 0.0
H670 H 0.96081 0.55955 0.27625 0.0
H671 H 0.93562 0.53809 0.29859 0.0
C672 C 0.99643 0.58393 0.22734 0.0
C673 C 0.98668 0.59153 0.20791 0.0
C674 C 0.98643 0.5671 0.23927 0.0
C675 C 0.96647 0.55753 0.23204 0.0
C676 C 0.9574 0.56442 0.21203 0.0
C677 C 0.96739 0.58117 0.2001 0.0
C678 C 0.92717 0.51241 0.24987 0.0
C679 C 0.92424 0.51738 0.27209 0.0
C680 C 0.94185 0.52464 0.23704 0.0
C681 C 0.95388 0.54211 0.24616 0.0
C682 C 0.95198 0.54612 0.26869 0.0
C683 C 0.93737 0.53388 0.2815 0.0
H684 H 0.45242 0.91116 0.31755 0.0
H685 H 0.51256 0.92089 0.28021 0.0
H686 H 0.43384 0.93917 0.29617 0.0
H687 H 0.49383 0.94917 0.25869 0.0
H688 H 0.43728 0.96516 0.20675 0.0
H689 H 0.46305 0.94655 0.23118 0.0
H690 H 0.43274 0.97853 0.28652 0.0
H691 H 0.40679 0.99706 0.26213 0.0
C692 C 0.46179 0.91956 0.305 0.0
C693 C 0.48389 0.91367 0.30042 0.0
C694 C 0.45119 0.93576 0.29285 0.0
C695 C 0.46236 0.94635 0.27571 0.0
C696 C 0.48479 0.94117 0.27173 0.0
C697 C 0.49552 0.92507 0.2841 0.0
C698 C 0.43638 0.96858 0.22409 0.0
C699 C 0.41972 0.9823 0.23253 0.0
C700 C 0.45127 0.95802 0.23807 0.0
C701 C 0.44974 0.96089 0.26079 0.0
C702 C 0.4341 0.97578 0.2691 0.0
C703 C 0.41929 0.98644 0.2551 0.0
H704 H 0.08801 0.50082 0.73518 0.0
H705 H 0.05385 0.54419 0.69081 0.0
H706 H 0.06652 0.51557 0.76555 0.0
H707 H 0.03321 0.55963 0.7211 0.0
H708 H 0.99463 0.58411 0.77686 0.0
H709 H 0.00691 0.55799 0.74935 0.0
H710 H 0.06813 0.54841 0.78516 0.0
H711 H 0.0554 0.57361 0.81298 0.0
C712 C 0.07572 0.51332 0.73188 0.0
C713 C 0.07286 0.52156 0.71065 0.0
C714 C 0.06349 0.52189 0.74931 0.0
C715 C 0.04837 0.5391 0.74593 0.0
C716 C 0.04449 0.54627 0.72442 0.0
C717 C 0.05649 0.53749 0.70698 0.0
C718 C 0.01049 0.57602 0.77906 0.0
C719 C 0.02419 0.58118 0.79692 0.0
C720 C 0.01761 0.56114 0.76322 0.0
C721 C 0.03872 0.55133 0.76473 0.0
C722 C 0.0517 0.55541 0.78343 0.0
C723 C 0.04445 0.57005 0.7994 0.0
H724 H 0.41121 0.07482 0.78691 0.0
H725 H 0.41718 0.00938 0.76123 0.0
H726 H 0.43798 0.08777 0.76024 0.0
H727 H 0.44424 0.02254 0.7342 0.0
H728 H 0.4607 0.06863 0.67258 0.0
H729 H 0.44168 0.0482 0.70131 0.0
H730 H 0.47803 0.08431 0.75021 0.0
H731 H 0.49688 0.10485 0.72166 0.0
C732 C 0.4184 0.06314 0.77565 0.0
C733 C 0.412 0.04111 0.77609 0.0
C734 C 0.43391 0.07054 0.76049 0.0
C735 C 0.44331 0.05614 0.74522 0.0
C736 C 0.43723 0.03397 0.74579 0.0
C737 C 0.42183 0.02646 0.76126 0.0
C738 C 0.46503 0.07184 0.68944 0.0
C739 C 0.47997 0.08867 0.69484 0.0
C740 C 0.4542 0.06006 0.70589 0.0
C741 C 0.45812 0.06494 0.72798 0.0
C742 C 0.47441 0.08048 0.7333 0.0
C743 C 0.48524 0.09221 0.71692 0.0
H744 H 0.93206 0.46191 0.70038 0.0
H745 H 0.90652 0.4957 0.75703 0.0
H746 H 0.95913 0.44332 0.72316 0.0
H747 H 0.93411 0.47742 0.77983 0.0
H748 H 0.95684 0.41258 0.81277 0.0
H749 H 0.93683 0.4401 0.79217 0.0
H750 H 0.99149 0.44448 0.74657 0.0
H751 H 0.01144 0.41638 0.76702 0.0
C752 C 0.93254 0.46575 0.71764 0.0
C753 C 0.91685 0.48 0.72694 0.0
C754 C 0.94822 0.45519 0.73071 0.0
C755 C 0.94864 0.45867 0.75339 0.0
C756 C 0.93395 0.47408 0.76247 0.0
C757 C 0.91821 0.48464 0.74938 0.0
C758 C 0.96479 0.4196 0.79854 0.0
C759 C 0.98562 0.41204 0.79137 0.0
C760 C 0.95336 0.43558 0.7868 0.0
C761 C 0.96248 0.44443 0.76761 0.0
C762 C 0.98387 0.43776 0.76111 0.0
C763 C 0.99534 0.42172 0.77288 0.0
H764 H 0.59733 0.99413 0.73344 0.0
H765 H 0.55952 0.97321 0.78971 0.0
H766 H 0.57254 0.97336 0.70974 0.0
H767 H 0.53495 0.95228 0.766 0.0
H768 H 0.48836 0.92237 0.71598 0.0
H769 H 0.50721 0.95184 0.73572 0.0
H770 H 0.56944 0.9334 0.70572 0.0
H771 H 0.55076 0.90426 0.68604 0.0
C772 C 0.5835 0.98547 0.74074 0.0
C773 C 0.58064 0.98504 0.76352 0.0
C774 C 0.56936 0.97349 0.72715 0.0
C775 C 0.55201 0.96092 0.73603 0.0
C776 C 0.54811 0.96185 0.75864 0.0
C777 C 0.56229 0.97377 0.77225 0.0
C778 C 0.506 0.92485 0.71339 0.0
C779 C 0.51811 0.91088 0.69959 0.0
C780 C 0.51678 0.94166 0.72474 0.0
C781 C 0.5398 0.94495 0.72227 0.0
C782 C 0.55165 0.93151 0.70777 0.0
C783 C 0.54096 0.91465 0.69663 0.0
H784 H 0.20907 0.00431 0.42354 0.0
H785 H 0.27046 0.00046 0.38706 0.0
H786 H 0.22834 0.02365 0.45273 0.0
H787 H 0.28952 0.02033 0.41585 0.0
H788 H 0.32234 0.05122 0.47283 0.0
H789 H 0.30309 0.02255 0.45263 0.0
H790 H 0.2423 0.0601 0.45547 0.0
H791 H 0.26129 0.0883 0.47611 0.0
C792 C 0.22674 0.00733 0.42187 0.0
C793 C 0.23817 0.00111 0.40283 0.0
C794 C 0.23776 0.01851 0.43856 0.0
C795 C 0.26041 0.02384 0.43653 0.0
C796 C 0.27212 0.01637 0.4181 0.0
C797 C 0.26114 0.00507 0.40147 0.0
C798 C 0.30475 0.05312 0.46953 0.0
C799 C 0.29343 0.07219 0.47582 0.0
C800 C 0.29375 0.03675 0.45784 0.0
C801 C 0.27121 0.03912 0.45216 0.0
C802 C 0.25959 0.05757 0.4597 0.0
C803 C 0.27055 0.07387 0.47145 0.0
H804 H 0.92573 0.26989 0.48699 0.0
H805 H 0.91373 0.28948 0.42024 0.0
H806 H 0.95442 0.24431 0.47434 0.0
H807 H 0.94205 0.26419 0.40777 0.0
H808 H 0.0027 0.22867 0.38984 0.0
H809 H 0.98261 0.2574 0.40896 0.0
H810 H 0.9537 0.20941 0.4521 0.0
H811 H 0.97401 0.18057 0.43313 0.0
C812 C 0.9294 0.26893 0.4697 0.0
C813 C 0.9174 0.28159 0.45459 0.0
C814 C 0.94573 0.25427 0.46248 0.0
C815 C 0.95056 0.25233 0.44008 0.0
C816 C 0.939 0.26553 0.42515 0.0
C817 C 0.92259 0.2799 0.4323 0.0
C818 C 0.99245 0.22425 0.40369 0.0
C819 C 0.98964 0.20227 0.4097 0.0
C820 C 0.98089 0.24072 0.4146 0.0
C821 C 0.96629 0.23561 0.43176 0.0
C822 C 0.96488 0.21386 0.43896 0.0
C823 C 0.97646 0.19732 0.42802 0.0
H824 H 0.69645 0.9153 0.47255 0.0
H825 H 0.76447 0.89279 0.47591 0.0
H826 H 0.70858 0.9477 0.45276 0.0
H827 H 0.7765 0.92479 0.45562 0.0
H828 H 0.7351 0.97615 0.38708 0.0
H829 H 0.72125 0.95265 0.41595 0.0
H830 H 0.78143 0.96366 0.45295 0.0
H831 H 0.7956 0.98678 0.42368 0.0
C832 C 0.71403 0.9174 0.46933 0.0
C833 C 0.72947 0.9013 0.4755 0.0
C834 C 0.72096 0.93593 0.45789 0.0
C835 C 0.74346 0.93871 0.4523 0.0
C836 C 0.75906 0.92331 0.45979 0.0
C837 C 0.75215 0.90485 0.47133 0.0
C838 C 0.74522 0.97394 0.40155 0.0
C839 C 0.7666 0.98306 0.4029 0.0
C840 C 0.73721 0.96053 0.41822 0.0
C841 C 0.75035 0.95603 0.43669 0.0
C842 C 0.77107 0.96645 0.43875 0.0
C843 C 0.77913 0.97981 0.42202 0.0
H844 H 0.99208 0.77009 0.39377 0.0
H845 H 0.03425 0.81697 0.42644 0.0
H846 H 0.00874 0.74079 0.41509 0.0
H847 H 0.05125 0.78753 0.44745 0.0
H848 H 0.07416 0.72921 0.4874 0.0
H849 H 0.04823 0.75724 0.47435 0.0
H850 H 0.04594 0.72554 0.41136 0.0
H851 H 0.07139 0.69773 0.42432 0.0
C852 C 0.00464 0.7742 0.40577 0.0
C853 C 0.01213 0.79581 0.40813 0.0
C854 C 0.01423 0.75739 0.41793 0.0
C855 C 0.0316 0.76178 0.43265 0.0
C856 C 0.03785 0.78361 0.4363 0.0
C857 C 0.02817 0.80048 0.42417 0.0
C858 C 0.06777 0.72808 0.4709 0.0
C859 C 0.07494 0.71137 0.45682 0.0
C860 C 0.05303 0.74416 0.46341 0.0
C861 C 0.04502 0.74361 0.44183 0.0
C862 C 0.0515 0.72631 0.42817 0.0
C863 C 0.06628 0.71044 0.43555 0.0
H864 H 0.17122 0.96399 0.566 0.0
H865 H 0.23283 0.97926 0.59897 0.0
H866 H 0.19112 0.93956 0.54144 0.0
H867 H 0.25262 0.95444 0.57477 0.0
H868 H 0.2854 0.91335 0.5235 0.0
H869 H 0.26528 0.94462 0.53838 0.0
H870 H 0.20727 0.90403 0.5477 0.0
H871 H 0.22711 0.87304 0.53249 0.0
C872 C 0.18906 0.9624 0.56781 0.0
C873 C 0.20038 0.97331 0.58466 0.0
C874 C 0.20045 0.9483 0.55379 0.0
C875 C 0.22339 0.94475 0.55637 0.0
C876 C 0.23497 0.95687 0.57223 0.0
C877 C 0.22359 0.97105 0.5862 0.0
C878 C 0.26822 0.91121 0.52838 0.0
C879 C 0.25792 0.89063 0.52702 0.0
C880 C 0.25674 0.92911 0.53701 0.0
C881 C 0.23472 0.92682 0.54437 0.0
C882 C 0.22412 0.90649 0.54196 0.0
C883 C 0.23558 0.88863 0.53338 0.0
H884 H 0.0141 0.2312 0.6049 0.0
H885 H 0.01894 0.17538 0.56201 0.0
H886 H 0.03407 0.25324 0.57852 0.0
H887 H 0.03831 0.19775 0.53508 0.0
H888 H 0.06432 0.29269 0.5259 0.0
H889 H 0.03595 0.27094 0.54423 0.0
H890 H 0.07462 0.21262 0.53243 0.0
H891 H 0.10241 0.23419 0.51344 0.0
C892 C 0.01897 0.22374 0.58959 0.0
C893 C 0.01519 0.20142 0.58571 0.0
C894 C 0.03032 0.23647 0.57432 0.0
C895 C 0.03804 0.22728 0.55468 0.0
C896 C 0.03302 0.20528 0.55022 0.0
C897 C 0.02178 0.19247 0.5656 0.0
C898 C 0.06653 0.27516 0.52686 0.0
C899 C 0.08577 0.26522 0.51846 0.0
C900 C 0.05032 0.2627 0.5375 0.0
C901 C 0.0531 0.24003 0.54014 0.0
C902 C 0.07173 0.22997 0.53057 0.0
C903 C 0.08781 0.2424 0.51977 0.0
H904 H 0.73009 0.01463 0.60803 0.0
H905 H 0.79468 0.02401 0.57857 0.0
H906 H 0.71266 0.03222 0.5768 0.0
H907 H 0.77719 0.04101 0.54697 0.0
H908 H 0.74094 0.1011 0.51749 0.0
H909 H 0.75993 0.07573 0.54149 0.0
H910 H 0.70359 0.03202 0.53851 0.0
H911 H 0.68421 0.05784 0.51486 0.0
C912 C 0.74054 0.02001 0.59467 0.0
C913 C 0.76378 0.01823 0.59594 0.0
C914 C 0.73052 0.02997 0.57665 0.0
C915 C 0.74354 0.03823 0.55944 0.0
C916 C 0.76671 0.03521 0.56013 0.0
C917 C 0.77673 0.02539 0.57821 0.0
C918 C 0.73272 0.08591 0.5216 0.0
C919 C 0.71092 0.08165 0.5145 0.0
C920 C 0.7437 0.07125 0.5353 0.0
C921 C 0.73321 0.0519 0.54213 0.0
C922 C 0.71197 0.04697 0.53387 0.0
C923 C 0.70093 0.0617 0.52019 0.0
H924 H 0.93893 0.69518 0.54152 0.0
H925 H 0.92405 0.75028 0.49992 0.0
H926 H 0.96388 0.71779 0.56297 0.0
H927 H 0.94958 0.77285 0.52115 0.0
H928 H 0.96363 0.80986 0.58606 0.0
H929 H 0.94689 0.78815 0.5573 0.0
H930 H 0.99763 0.73892 0.56582 0.0
H931 H 0.01417 0.76053 0.59516 0.0
C932 C 0.94135 0.71201 0.53664 0.0
C933 C 0.92918 0.72102 0.51922 0.0
C934 C 0.95583 0.72497 0.54888 0.0
C935 C 0.95856 0.74722 0.54395 0.0
C936 C 0.94753 0.75586 0.52562 0.0
C937 C 0.93299 0.74289 0.51338 0.0
C938 C 0.97144 0.79455 0.58165 0.0
C939 C 0.99007 0.78679 0.59314 0.0
C940 C 0.96192 0.78215 0.56497 0.0
C941 C 0.97083 0.7617 0.5593 0.0
C942 C 0.99018 0.75446 0.57001 0.0
C943 C -0.00029 0.76689 0.58675 0.0
H944 H 0.4539 0.31502 0.06926 0.0
H945 H 0.50246 0.27238 0.09903 0.0
H946 H 0.43951 0.28454 0.04813 0.0
H947 H 0.48856 0.24199 0.07729 0.0
H948 H 0.43184 0.19175 0.06803 0.0
H949 H 0.45521 0.22131 0.08074 0.0
H950 H 0.44305 0.2566 0.02078 0.0
H951 H 0.41891 0.22704 0.00825 0.0
C952 C 0.46193 0.29927 0.07085 0.0
C953 C 0.47902 0.29602 0.08616 0.0
C954 C 0.45375 0.28177 0.0586 0.0
C955 C 0.46262 0.26069 0.06128 0.0
C956 C 0.48099 0.25789 0.07523 0.0
C957 C 0.48904 0.27535 0.08761 0.0
C958 C 0.43437 0.20564 0.05736 0.0
C959 C 0.42326 0.20715 0.03724 0.0
C960 C 0.44799 0.22257 0.06459 0.0
C961 C 0.45098 0.24144 0.05184 0.0
C962 C 0.44086 0.24243 0.03114 0.0
C963 C 0.42711 0.22545 0.02391 0.0
H964 H 0.42296 0.75233 0.99827 0.0
H965 H 0.42953 0.80687 0.95397 0.0
H966 H 0.45008 0.73186 0.97682 0.0
H967 H 0.45599 0.78628 0.93226 0.0
H968 H 0.51015 0.74882 0.89988 0.0
H969 H 0.4918 0.76953 0.92879 0.0
H970 H 0.44893 0.71443 0.94189 0.0
H971 H 0.46761 0.69363 0.91362 0.0
C972 C 0.43035 0.76004 0.98411 0.0
C973 C 0.42387 0.78113 0.9777 0.0
C974 C 0.44582 0.74827 0.97174 0.0
C975 C 0.45507 0.7573 0.95266 0.0
C976 C 0.44944 0.77885 0.94696 0.0
C977 C 0.43408 0.79063 0.95936 0.0
C978 C 0.49708 0.74101 0.90921 0.0
C979 C 0.49019 0.71966 0.90425 0.0
C980 C 0.48647 0.75293 0.9257 0.0
C981 C 0.46871 0.74376 0.93754 0.0
C982 C 0.46267 0.72198 0.93332 0.0
C983 C 0.47331 0.71008 0.91693 0.0
H984 H 0.26973 0.49899 0.90786 0.0
H985 H 0.31822 0.44946 0.92367 0.0
H986 H 0.24352 0.48235 0.93328 0.0
H987 H 0.29182 0.43207 0.94792 0.0
H988 H 0.24313 0.40333 0.99326 0.0
H989 H 0.26995 0.42953 0.97894 0.0
H990 H 0.22104 0.4517 0.93207 0.0
H991 H 0.19412 0.42654 0.94725 0.0
C992 C 0.27486 0.48468 0.91698 0.0
C993 C 0.29591 0.47537 0.91357 0.0
C994 C 0.25978 0.47501 0.93141 0.0
C995 C 0.26526 0.45552 0.94239 0.0
C996 C 0.28693 0.44713 0.94003 0.0
C997 C 0.30212 0.45706 0.92594 0.0
C998 C 0.23805 0.41415 0.98019 0.0
C999 C 0.21661 0.41271 0.97121 0.0
C1000 C 0.25346 0.42909 0.97185 0.0
C1001 C 0.2479 0.44261 0.95406 0.0
C1002 C 0.226 0.44188 0.94594 0.0
C1003 C 0.21051 0.42726 0.95455 0.0
H1004 H 0.57516 0.22543 0.99006 0.0
H1005 H 0.58701 0.19982 0.92537 0.0
H1006 H 0.54842 0.2516 0.9748 0.0
H1007 H 0.56072 0.22574 0.91029 0.0
H1008 H 0.50507 0.26518 0.887 0.0
H1009 H 0.52145 0.23618 0.90895 0.0
H1010 H 0.55208 0.28435 0.95075 0.0
H1011 H 0.53538 0.31342 0.92904 0.0
C1012 C 0.57183 0.22518 0.97268 0.0
C1013 C 0.5833 0.2107 0.95889 0.0
C1014 C 0.55661 0.24018 0.96395 0.0
C1015 C 0.5524 0.24069 0.94135 0.0
C1016 C 0.56327 0.22558 0.9278 0.0
C1017 C 0.57855 0.21084 0.93644 0.0
C1018 C 0.51488 0.26961 0.90116 0.0
C1019 C 0.51929 0.29162 0.906 0.0
C1020 C 0.52432 0.25298 0.91369 0.0
C1021 C 0.53841 0.25798 0.93132 0.0
C1022 C 0.54127 0.27996 0.9373 0.0
C1023 C 0.53177 0.29663 0.92477 0.0
H1024 H 0.68093 0.53872 0.93317 0.0
H1025 H 0.73879 0.51752 0.89708 0.0
H1026 H 0.70498 0.55653 0.95982 0.0
H1027 H 0.76273 0.53584 0.92324 0.0
H1028 H 0.80335 0.56505 0.97632 0.0
H1029 H 0.77764 0.53921 0.95945 0.0
H1030 H 0.72681 0.58909 0.95809 0.0
H1031 H 0.75213 0.61454 0.97544 0.0
C1032 C 0.69878 0.53763 0.93106 0.0
C1033 C 0.70794 0.52699 0.91283 0.0
C1034 C 0.71257 0.54792 0.94628 0.0
C1035 C 0.73579 0.5479 0.94352 0.0
C1036 C 0.74495 0.53605 0.92603 0.0
C1037 C 0.73118 0.52565 0.9109 0.0
C1038 C 0.78654 0.57034 0.9728 0.0
C1039 C 0.77988 0.59194 0.97695 0.0
C1040 C 0.77185 0.55557 0.96303 0.0
C1041 C 0.75022 0.56212 0.95718 0.0
C1042 C 0.74322 0.58335 0.96255 0.0
C1043 C 0.75785 0.59806 0.97237 0.0
H1044 H 0.53566 0.69353 0.08895 0.0
H1045 H 0.48815 0.74597 0.09618 0.0
H1046 H 0.55406 0.71352 0.05989 0.0
H1047 H 0.50622 0.76577 0.06651 0.0
H1048 H 0.56649 0.80603 0.04123 0.0
H1049 H 0.54062 0.78508 0.06327 0.0
H1050 H 0.55332 0.72806 0.02361 0.0
H1051 H 0.57985 0.74895 0.00188 0.0
C1052 C 0.52883 0.70914 0.08402 0.0
C1053 C 0.5106 0.71828 0.09511 0.0
C1054 C 0.53932 0.72056 0.06719 0.0
C1055 C 0.53176 0.74137 0.06093 0.0
C1056 C 0.51273 0.74996 0.07119 0.0
C1057 C 0.50229 0.73856 0.08813 0.0
C1058 C 0.56354 0.78911 0.03696 0.0
C1059 C 0.5755 0.77908 0.01997 0.0
C1060 C 0.54853 0.7771 0.04954 0.0
C1061 C 0.54501 0.75479 0.04538 0.0
C1062 C 0.55596 0.74511 0.02753 0.0
C1063 C 0.57107 0.75712 0.01498 0.0
H1064 H 0.2272 0.59373 0.00783 0.0
H1065 H 0.20604 0.61917 0.07029 0.0
H1066 H 0.24385 0.56207 0.02642 0.0
H1067 H 0.22215 0.58769 0.08852 0.0
H1068 H 0.2345 0.5205 0.11362 0.0
H1069 H 0.2153 0.54562 0.08912 0.0
H1070 H 0.27694 0.55857 0.05545 0.0
H1071 H 0.29634 0.53355 0.08006 0.0
C1072 C 0.22599 0.59248 0.02544 0.0
C1073 C 0.21546 0.60895 0.03764 0.0
C1074 C 0.23548 0.57444 0.03601 0.0
C1075 C 0.23404 0.57241 0.05883 0.0
C1076 C 0.2232 0.58871 0.07088 0.0
C1077 C 0.21417 0.60684 0.06044 0.0
C1078 C 0.24391 0.5283 0.10072 0.0
C1079 C 0.267 0.5253 0.09899 0.0
C1080 C 0.23291 0.5427 0.08673 0.0
C1081 C 0.24473 0.55413 0.07059 0.0
C1082 C 0.26747 0.54987 0.06774 0.0
C1083 C 0.27855 0.53566 0.0819 0.0
H1084 H 0.6904 0.4305 0.09815 0.0
H1085 H 0.72497 0.49099 0.08535 0.0
H1086 H 0.70709 0.41431 0.06594 0.0
H1087 H 0.74192 0.47457 0.05275 0.0
H1088 H 0.7916 0.41922 0.02629 0.0
H1089 H 0.77034 0.44444 0.04885 0.0
H1090 H 0.70921 0.41584 0.02538 0.0
H1091 H 0.73044 0.39039 0.00294 0.0
C1092 C 0.7014 0.44044 0.08827 0.0
C1093 C 0.70659 0.46193 0.09439 0.0
C1094 C 0.71077 0.43122 0.06964 0.0
C1095 C 0.72575 0.44319 0.05676 0.0
C1096 C 0.73042 0.46498 0.06242 0.0
C1097 C 0.72073 0.47436 0.08101 0.0
C1098 C 0.77361 0.41865 0.0255 0.0
C1099 C 0.76271 0.40245 0.01321 0.0
C1100 C 0.76143 0.43323 0.03833 0.0
C1101 C 0.73813 0.43185 0.03915 0.0
C1102 C 0.72719 0.41702 0.02531 0.0
C1103 C 0.73936 0.40249 0.01241 0.0
H1104 H 0.02342 0.20025 0.28696 0.0
H1105 H 0.96176 0.2293 0.30867 0.0
H1106 H 0.02259 0.22312 0.25428 0.0
H1107 H 0.96113 0.25228 0.27629 0.0
H1108 H 0.9559 0.27762 0.20741 0.0
H1109 H 0.95662 0.25062 0.23664 0.0
H1110 H 0.02693 0.26205 0.24558 0.0
H1111 H 0.02633 0.28876 0.2161 0.0
C1112 C 0.00967 0.21145 0.28474 0.0
C1113 C 0.9927 0.21302 0.30045 0.0
C1114 C 0.00925 0.22461 0.26608 0.0
C1115 C 0.99179 0.2395 0.2627 0.0
C1116 C 0.97466 0.24077 0.27825 0.0
C1117 C 0.97512 0.2277 0.29691 0.0
C1118 C 0.97156 0.27424 0.21546 0.0
C1119 C 0.99102 0.28548 0.20954 0.0
C1120 C 0.97194 0.25884 0.23228 0.0
C1121 C 0.99179 0.25434 0.24354 0.0
C1122 C 0.01141 0.26501 0.2371 0.0
C1123 C 0.01103 0.28042 0.22028 0.0
H1124 H 0.76461 0.02557 0.30651 0.0
H1125 H 0.78417 0.96192 0.28288 0.0
H1126 H 0.73696 0.02812 0.27755 0.0
H1127 H 0.75611 0.9642 0.25431 0.0
H1128 H 0.71674 0.98319 0.19375 0.0
H1129 H 0.74637 0.98276 0.22097 0.0
H1130 H 0.70188 0.01203 0.26802 0.0
H1131 H 0.67254 0.01301 0.24072 0.0
C1132 C 0.76301 0.01211 0.29516 0.0
C1133 C 0.77656 0.99351 0.29706 0.0
C1134 C 0.74706 0.01351 0.27862 0.0
C1135 C 0.74422 0.99632 0.26364 0.0
C1136 C 0.75802 0.97787 0.26537 0.0
C1137 C 0.77403 0.9765 0.28186 0.0
C1138 C 0.71333 0.98961 0.20987 0.0
C1139 C 0.69227 0.99811 0.21505 0.0
C1140 C 0.73027 0.98926 0.22552 0.0
C1141 C 0.72651 0.99734 0.24671 0.0
C1142 C 0.70548 0.00599 0.25179 0.0
C1143 C 0.6886 0.00642 0.23614 0.0
H1144 H 0.01889 0.69464 0.21506 0.0
H1145 H 0.94781 0.6997 0.22436 0.0
H1146 H 0.02475 0.72196 0.24342 0.0
H1147 H 0.95375 0.72683 0.25293 0.0
H1148 H 0.97245 0.79091 0.28688 0.0
H1149 H 0.96712 0.76466 0.25738 0.0
H1150 H 0.02047 0.72514 0.28323 0.0
H1151 H 0.02602 0.75147 0.31256 0.0
C1152 C 0.00451 0.70155 0.22317 0.0
C1153 C 0.98287 0.69497 0.21747 0.0
C1154 C 0.00789 0.71713 0.23949 0.0
C1155 C 0.98971 0.72653 0.25042 0.0
C1156 C 0.96807 0.72007 0.24463 0.0
C1157 C 0.96469 0.70442 0.22835 0.0
C1158 C 0.98312 0.77668 0.28622 0.0
C1159 C -0.00034 0.77327 0.30209 0.0
C1160 C 0.97996 0.76158 0.2694 0.0
C1161 C 0.99333 0.74281 0.26802 0.0
C1162 C 0.01005 0.73956 0.28372 0.0
C1163 C 0.01315 0.7546 0.30059 0.0
H1164 H 0.226 0.03702 0.2906 0.0
H1165 H 0.23351 0.96813 0.304 0.0
H1166 H 0.25303 0.0341 0.26108 0.0
H1167 H 0.26026 0.96517 0.27424 0.0
H1168 H 0.32681 0.97539 0.23842 0.0
H1169 H 0.29819 0.97713 0.2665 0.0
H1170 H 0.25818 0.01819 0.22472 0.0
H1171 H 0.28699 0.01676 0.1967 0.0
C1172 C 0.23329 0.02122 0.28716 0.0
C1173 C 0.22765 0.00283 0.29973 0.0
C1174 C 0.24868 0.01952 0.27014 0.0
C1175 C 0.25883 -0.00059 0.26533 0.0
C1176 C 0.25296 0.98096 0.27771 0.0
C1177 C 0.23754 0.98264 0.2947 0.0
C1178 C 0.31187 0.98471 0.23515 0.0
C1179 C 0.30922 0.99599 0.21532 0.0
C1180 C 0.2954 0.98561 0.25122 0.0
C1181 C 0.27591 0.99782 0.24786 0.0
C1182 C 0.27313 0.00886 0.22791 0.0
C1183 C 0.28959 0.00793 0.21181 0.0
H1184 H 0.00392 0.73073 0.8007 0.0
H1185 H -0.00085 0.67678 0.75543 0.0
H1186 H 0.00027 0.75637 0.7704 0.0
H1187 H 0.9958 0.70241 0.7252 0.0
H1188 H 0.96322 0.75426 0.68147 0.0
H1189 H 0.9682 0.72871 0.71158 0.0
H1190 H 0.0206 0.76924 0.73776 0.0
H1191 H 0.01547 0.79499 0.70777 0.0
C1192 C 0.00223 0.72433 0.7843 0.0
C1193 C 0.00174 0.70171 0.7805 0.0
C1194 C 0.00026 0.73903 0.76693 0.0
C1195 C 0.99767 0.7314 0.74542 0.0
C1196 C 0.99746 0.70878 0.74162 0.0
C1197 C -0.00049 0.69411 0.75895 0.0
C1198 C 0.97583 0.75773 0.69362 0.0
C1199 C 0.98893 0.77667 0.69223 0.0
C1200 C 0.97876 0.74301 0.71081 0.0
C1201 C 0.99481 0.74695 0.72703 0.0
C1202 C 0.00794 0.76588 0.72563 0.0
C1203 C 0.00508 0.78055 0.70838 0.0
H1204 H 0.24025 0.01754 0.68588 0.0
H1205 H 0.19846 0.98122 0.73038 0.0
H1206 H 0.26994 0.01777 0.71302 0.0
H1207 H 0.2282 0.98157 0.75752 0.0
H1208 H 0.29778 0.9618 0.78466 0.0
H1209 H 0.26582 0.96419 0.76026 0.0
H1210 H 0.27903 0.03275 0.75014 0.0
H1211 H 0.31108 0.03041 0.77457 0.0
C1212 C 0.23733 0.00974 0.7015 0.0
C1213 C 0.21702 -0.00074 0.70592 0.0
C1214 C 0.2543 0.01 0.71708 0.0
C1215 C 0.25139 -0.00035 0.73736 0.0
C1216 C 0.23097 0.9895 0.74194 0.0
C1217 C 0.21392 0.98939 0.72642 0.0
C1218 C 0.29379 0.97743 0.77736 0.0
C1219 C 0.30702 0.99589 0.78146 0.0
C1220 C 0.27541 0.97882 0.76349 0.0
C1221 C 0.26998 -0.00135 0.75326 0.0
C1222 C 0.28296 0.01721 0.75766 0.0
C1223 C 0.30123 0.01588 0.77173 0.0
H1224 H 0.94746 0.23748 0.68975 0.0
H1225 H 0.01614 0.22263 0.70427 0.0
H1226 H 0.9478 0.26611 0.71727 0.0
H1227 H 0.01667 0.25174 0.73145 0.0
H1228 H 0.0028 0.29179 0.79318 0.0
H1229 H 0.0023 0.26203 0.76675 0.0
H1230 H 0.96325 0.30177 0.72281 0.0
H1231 H 0.96323 0.33125 0.74945 0.0
C1232 C 0.96266 0.24035 0.69879 0.0
C1233 C 0.98179 0.2278 0.69477 0.0
C1234 C 0.9629 0.25688 0.71448 0.0
C1235 C 0.98231 0.26136 0.72648 0.0
C1236 C 0.00137 0.24859 0.72267 0.0
C1237 C 0.0011 0.23196 0.70702 0.0
C1238 C 0.9941 0.29417 0.77788 0.0
C1239 C 0.98299 0.31387 0.77345 0.0
C1240 C 0.99392 0.27714 0.76267 0.0
C1241 C 0.98268 0.27947 0.74266 0.0
C1242 C 0.97173 0.29927 0.7382 0.0
C1243 C 0.97184 0.31624 0.75343 0.0
H1244 H 0.75356 0.98999 0.68886 0.0
H1245 H 0.78623 0.03878 0.72851 0.0
H1246 H 0.72349 0.9878 0.71543 0.0
H1247 H 0.7562 0.03637 0.75522 0.0
H1248 H 0.68445 0.04578 0.78089 0.0
H1249 H 0.71656 0.04646 0.7567 0.0
H1250 H 0.71549 0.97604 0.7532 0.0
H1251 H 0.68311 0.97531 0.77728 0.0
C1252 C 0.75442 0.00015 0.70332 0.0
C1253 C 0.77226 0.01464 0.70651 0.0
C1254 C 0.73724 -0.00123 0.71862 0.0
C1255 C 0.73746 0.01192 0.73742 0.0
C1256 C 0.75545 0.02619 0.74078 0.0
C1257 C 0.7727 0.0275 0.72552 0.0
C1258 C 0.6911 0.03041 0.77507 0.0
C1259 C 0.68114 0.01049 0.78094 0.0
C1260 C 0.70961 0.03081 0.76131 0.0
C1261 C 0.71855 0.01131 0.75301 0.0
C1262 C 0.70882 0.99135 0.75915 0.0
C1263 C 0.69035 0.99094 0.77302 0.0
H1264 H 0.23619 0.29863 0.04337 0.0
H1265 H 0.22777 0.29172 0.97362 0.0
H1266 H 0.25993 0.26637 0.04378 0.0
H1267 H 0.25193 0.25983 0.97395 0.0
H1268 H 0.28229 0.19291 0.9837 0.0
H1269 H 0.25489 0.22224 0.98579 0.0
H1270 H 0.29674 0.25658 0.03174 0.0
H1271 H 0.32377 0.22714 0.03008 0.0
C1272 C 0.2394 0.29024 0.02812 0.0
C1273 C 0.23019 0.29783 0.00845 0.0
C1274 C 0.25308 0.27179 0.02834 0.0
C1275 C 0.25791 0.26054 0.00889 0.0
C1276 C 0.24833 0.26791 0.98928 0.0
C1277 C 0.2346 0.28631 0.98907 0.0
C1278 C 0.28552 0.20662 0.99442 0.0
C1279 C 0.30527 0.20772 0.00664 0.0
C1280 C 0.26989 0.22349 0.99551 0.0
C1281 C 0.27366 0.24183 0.00884 0.0
C1282 C 0.29314 0.2426 0.0215 0.0
C1283 C 0.30874 0.22575 0.02044 0.0
H1284 H 0.22943 0.70809 0.01711 0.0
H1285 H 0.22846 0.7092 0.94654 0.0
H1286 H 0.25713 0.73724 0.01715 0.0
H1287 H 0.25622 0.73823 0.94665 0.0
H1288 H 0.28908 0.8051 0.95663 0.0
H1289 H 0.2601 0.77723 0.95736 0.0
H1290 H 0.29689 0.74157 0.00631 0.0
H1291 H 0.32584 0.76948 0.00572 0.0
C1292 C 0.23505 0.71459 0.00161 0.0
C1293 C 0.22677 0.70629 0.98181 0.0
C1294 C 0.25101 0.7312 0.00165 0.0
C1295 C 0.25888 0.73998 0.98191 0.0
C1296 C 0.25032 0.73193 0.96213 0.0
C1297 C 0.23451 0.71521 0.96208 0.0
C1298 C 0.29098 0.79135 0.96759 0.0
C1299 C 0.3098 0.78949 0.98109 0.0
C1300 C 0.27442 0.77534 0.96792 0.0
C1301 C 0.27623 0.75721 0.98188 0.0
C1302 C 0.29492 0.75547 0.99554 0.0
C1303 C 0.31157 0.77139 0.9951 0.0
H1304 H 0.78935 0.26808 0.98376 0.0
H1305 H 0.75088 0.31513 0.02034 0.0
H1306 H 0.75903 0.24182 0.98686 0.0
H1307 H 0.7204 0.28913 0.02294 0.0
H1308 H 0.67799 0.23077 0.04157 0.0
H1309 H 0.70978 0.25535 0.03993 0.0
H1310 H 0.72197 0.23575 0.97321 0.0
H1311 H 0.69052 0.21072 0.97504 0.0
C1312 C 0.77442 0.27285 0.99243 0.0
C1313 C 0.77255 0.29372 0.0018 0.0
C1314 C 0.75698 0.25783 0.9941 0.0
C1315 C 0.73724 0.26335 0.00511 0.0
C1316 C 0.73547 0.28419 0.01461 0.0
C1317 C 0.75292 0.29917 0.01302 0.0
C1318 C 0.6875 0.23164 0.02656 0.0
C1319 C 0.68167 0.21882 0.00841 0.0
C1320 C 0.70567 0.24584 0.02559 0.0
C1321 C 0.7184 0.24763 0.00641 0.0
C1322 C 0.71271 0.2346 0.98834 0.0
C1323 C 0.69459 0.22033 0.98934 0.0
H1324 H 0.77686 0.71504 0.9716 0.0
H1325 H 0.75796 0.69999 0.03801 0.0
H1326 H 0.75054 0.74537 0.9713 0.0
H1327 H 0.73205 0.73052 0.03784 0.0
H1328 H 0.66842 0.76694 0.01931 0.0
H1329 H 0.69677 0.73868 0.02056 0.0
H1330 H 0.74262 0.78134 0.98693 0.0
H1331 H 0.71401 0.8096 0.98529 0.0
C1332 C 0.76728 0.71835 0.9862 0.0
C1333 C 0.76936 0.70499 0.00476 0.0
C1334 C 0.75228 0.7358 0.98607 0.0
C1335 C 0.73907 0.74025 0.00449 0.0
C1336 C 0.74168 0.72728 0.02325 0.0
C1337 C 0.75663 0.70984 0.02337 0.0
C1338 C 0.68455 0.77036 0.01223 0.0
C1339 C 0.68894 0.79054 0.00219 0.0
C1340 C 0.70087 0.75419 0.01307 0.0
C1341 C 0.72199 0.75778 0.00392 0.0
C1342 C 0.72644 0.77799 0.99395 0.0
C1343 C 0.71009 0.79422 0.99312 0.0
H1344 H 0.51812 0.71512 0.79491 0.0
H1345 H 0.45535 0.74344 0.81439 0.0
H1346 H 0.52253 0.74355 0.76736 0.0
H1347 H 0.45959 0.77159 0.78661 0.0
H1348 H 0.48667 0.83216 0.7522 0.0
H1349 H 0.48262 0.80343 0.77938 0.0
H1350 H 0.50668 0.75602 0.7328 0.0
H1351 H 0.51112 0.78487 0.70566 0.0
C1352 C 0.5052 0.72733 0.79324 0.0
C1353 C 0.4864 0.72703 0.80689 0.0
C1354 C 0.50768 0.74356 0.77737 0.0
C1355 C 0.49144 0.75988 0.77481 0.0
C1356 C 0.47257 0.75946 0.78836 0.0
C1357 C 0.47007 0.74323 0.80421 0.0
C1358 C 0.49113 0.81562 0.74773 0.0
C1359 C 0.49921 0.81082 0.72674 0.0
C1360 C 0.48867 0.79912 0.76329 0.0
C1361 C 0.49424 0.77741 0.75824 0.0
C1362 C 0.50245 0.77261 0.73728 0.0
C1363 C 0.50489 0.78913 0.72169 0.0
H1364 H 0.25598 0.48329 0.81447 0.0
H1365 H 0.29575 0.51547 0.76527 0.0
H1366 H 0.22499 0.48134 0.78914 0.0
H1367 H 0.26474 0.513 0.7396 0.0
H1368 H 0.19536 0.52623 0.70943 0.0
H1369 H 0.22786 0.52794 0.73327 0.0
H1370 H 0.21362 0.46281 0.75652 0.0
H1371 H 0.18091 0.46134 0.73321 0.0
C1372 C 0.25819 0.48981 0.79817 0.0
C1373 C 0.27838 0.49953 0.7919 0.0
C1374 C 0.24042 0.48856 0.78358 0.0
C1375 C 0.24239 0.4969 0.76228 0.0
C1376 C 0.2626 0.50661 0.75596 0.0
C1377 C 0.28041 0.50793 0.77063 0.0
C1378 C 0.19923 0.51226 0.71959 0.0
C1379 C 0.18544 0.49372 0.71957 0.0
C1380 C 0.21793 0.51319 0.73316 0.0
C1381 C 0.22327 0.49557 0.74693 0.0
C1382 C 0.20976 0.47684 0.74645 0.0
C1383 C 0.19105 0.47595 0.73299 0.0
H1384 H 0.45345 0.2727 0.79841 0.0
H1385 H 0.5239 0.28118 0.7873 0.0
H1386 H 0.4522 0.24506 0.7699 0.0
H1387 H 0.52272 0.25309 0.75904 0.0
H1388 H 0.50862 0.21387 0.69697 0.0
H1389 H 0.5086 0.24434 0.7227 0.0
H1390 H 0.46516 0.208 0.76557 0.0
H1391 H 0.46478 0.17786 0.73977 0.0
C1392 C 0.46868 0.26869 0.78986 0.0
C1393 C 0.48881 0.27904 0.79523 0.0
C1394 C 0.46797 0.25276 0.77358 0.0
C1395 C 0.48739 0.24672 0.76233 0.0
C1396 C 0.50742 0.2575 0.76727 0.0
C1397 C 0.50812 0.27351 0.78354 0.0
C1398 C 0.49896 0.21246 0.71184 0.0
C1399 C 0.4867 0.19343 0.71632 0.0
C1400 C 0.49906 0.22987 0.72663 0.0
C1401 C 0.48687 0.22861 0.74618 0.0
C1402 C 0.47445 0.20965 0.75052 0.0
C1403 C 0.47435 0.19229 0.73576 0.0
H1404 H 0.82337 0.47865 0.73497 0.0
H1405 H 0.78 0.50904 0.68759 0.0
H1406 H 0.79363 0.47998 0.76201 0.0
H1407 H 0.75038 0.51061 0.71475 0.0
H1408 H 0.69615 0.48851 0.76334 0.0
H1409 H 0.72531 0.48648 0.73565 0.0
H1410 H 0.77369 0.50785 0.78319 0.0
H1411 H 0.74472 0.50964 0.8109 0.0
C1412 C 0.80749 0.48559 0.73031 0.0
C1413 C 0.80408 0.49378 0.70913 0.0
C1414 C 0.7905 0.48648 0.74585 0.0
C1415 C 0.76968 0.49549 0.74055 0.0
C1416 C 0.76616 0.50339 0.71928 0.0
C1417 C 0.78319 0.50259 0.70376 0.0
C1418 C 0.713 0.49282 0.76787 0.0
C1419 C 0.7181 0.49918 0.78935 0.0
C1420 C 0.72968 0.49174 0.75198 0.0
C1421 C 0.75183 0.4969 0.75726 0.0
C1422 C 0.75686 0.50345 0.77869 0.0
C1423 C 0.7402 0.50461 0.79453 0.0
H1424 H 0.47928 0.2054 0.28185 0.0
H1425 H 0.54836 0.19269 0.26703 0.0
H1426 H 0.47826 0.23309 0.25318 0.0
H1427 H 0.5474 0.22055 0.23872 0.0
H1428 H 0.52854 0.24919 0.17227 0.0
H1429 H 0.5302 0.22387 0.2028 0.0
H1430 H 0.49289 0.26918 0.24256 0.0
H1431 H 0.49089 0.2945 0.21179 0.0
C1432 C 0.4943 0.20869 0.27266 0.0
C1433 C 0.51384 0.19672 0.27659 0.0
C1434 C 0.49374 0.22462 0.25631 0.0
C1435 C 0.5127 0.22887 0.24357 0.0
C1436 C 0.53241 0.21737 0.248 0.0
C1437 C 0.53298 0.20148 0.26431 0.0
C1438 C 0.52072 0.25381 0.18751 0.0
C1439 C 0.50957 0.27386 0.18959 0.0
C1440 C 0.5218 0.23934 0.20507 0.0
C1441 C 0.51176 0.24456 0.22513 0.0
C1442 C 0.50062 0.26462 0.22725 0.0
C1443 C 0.49958 0.27916 0.20966 0.0
H1444 H 0.81668 0.4603 0.27007 0.0
H1445 H 0.81972 0.53046 0.27672 0.0
H1446 H 0.78475 0.46392 0.24586 0.0
H1447 H 0.7883 0.53415 0.25193 0.0
H1448 H 0.71857 0.53292 0.22383 0.0
H1449 H 0.74928 0.52835 0.24934 0.0
H1450 H 0.77497 0.47546 0.20999 0.0
H1451 H 0.74381 0.47955 0.18492 0.0
C1452 C 0.81062 0.47652 0.26626 0.0
C1453 C 0.82074 0.4951 0.27532 0.0
C1454 C 0.79237 0.4786 0.25227 0.0
C1455 C 0.78392 0.49933 0.24688 0.0
C1456 C 0.7941 0.51791 0.25598 0.0
C1457 C 0.81224 0.51582 0.2701 0.0
C1458 C 0.73074 0.52026 0.22066 0.0
C1459 C 0.72876 0.50662 0.20232 0.0
C1460 C 0.74844 0.51773 0.23523 0.0
C1461 C 0.76471 0.5016 0.23171 0.0
C1462 C 0.76261 0.48785 0.21342 0.0
C1463 C 0.7448 0.49027 0.19894 0.0
H1464 H 0.5413 0.75067 0.18198 0.0
H1465 H 0.48258 0.71811 0.20643 0.0
H1466 H 0.53701 0.7789 0.20972 0.0
H1467 H 0.47812 0.74655 0.23393 0.0
H1468 H 0.49156 0.78867 0.29454 0.0
H1469 H 0.49614 0.76013 0.26712 0.0
H1470 H 0.51203 0.80905 0.21874 0.0
H1471 H 0.50782 0.83754 0.24618 0.0
C1472 C 0.52745 0.74956 0.19323 0.0
C1473 C 0.51229 0.73213 0.19199 0.0
C1474 C 0.52492 0.7658 0.20905 0.0
C1475 C 0.50721 0.76498 0.22402 0.0
C1476 C 0.4921 0.74752 0.22281 0.0
C1477 C 0.49459 0.73129 0.20696 0.0
C1478 C 0.49602 0.79334 0.27806 0.0
C1479 C 0.49934 0.81538 0.27256 0.0
C1480 C 0.49854 0.77699 0.26232 0.0
C1481 C 0.50447 0.78233 0.24075 0.0
C1482 C 0.50775 0.80437 0.23527 0.0
C1483 C 0.5052 0.82071 0.25099 0.0
H1484 H 0.25684 0.49668 0.18536 0.0
H1485 H 0.30431 0.5189 0.23347 0.0
H1486 H 0.22867 0.49333 0.21365 0.0
H1487 H 0.27621 0.51499 0.26195 0.0
H1488 H 0.2126 0.52923 0.3015 0.0
H1489 H 0.24206 0.53163 0.27428 0.0
H1490 H 0.21889 0.47166 0.24487 0.0
H1491 H 0.18909 0.46958 0.2717 0.0
C1492 C 0.26133 0.5007 0.20201 0.0
C1493 C 0.28283 0.50808 0.20715 0.0
C1494 C 0.24519 0.49864 0.21828 0.0
C1495 C 0.25017 0.50382 0.24011 0.0
C1496 C 0.27173 0.51111 0.24526 0.0
C1497 C 0.28787 0.51325 0.22895 0.0
C1498 C 0.21386 0.5165 0.28929 0.0
C1499 C 0.1984 0.49929 0.2887 0.0
C1500 C 0.23083 0.51781 0.27374 0.0
C1501 C 0.23279 0.50189 0.2573 0.0
C1502 C 0.21763 0.48441 0.25705 0.0
C1503 C 0.20061 0.48315 0.27253 0.0
H1504 H 0.81803 0.71187 0.52717 0.0
H1505 H 0.82826 0.72689 0.45893 0.0
H1506 H 0.78592 0.73621 0.52785 0.0
H1507 H 0.79599 0.75093 0.45957 0.0
H1508 H 0.75332 0.81067 0.47589 0.0
H1509 H 0.78505 0.78599 0.4753 0.0
H1510 H 0.74796 0.73899 0.51325 0.0
H1511 H 0.71624 0.76383 0.51413 0.0
C1512 C 0.8134 0.7203 0.5123 0.0
C1513 C 0.82575 0.71749 0.49301 0.0
C1514 C 0.79492 0.73415 0.51266 0.0
C1515 C 0.78842 0.74552 0.49377 0.0
C1516 C 0.80073 0.74262 0.47447 0.0
C1517 C 0.81917 0.72875 0.47409 0.0
C1518 C 0.75189 0.79507 0.4841 0.0
C1519 C 0.73223 0.78922 0.49506 0.0
C1520 C 0.77006 0.78087 0.48366 0.0
C1521 C 0.76902 0.76052 0.4942 0.0
C1522 C 0.74936 0.75466 0.50517 0.0
C1523 C 0.73115 0.76885 0.50557 0.0
H1524 H 0.73087 0.20539 0.54126 0.0
H1525 H 0.7294 0.19872 0.471 0.0
H1526 H 0.75692 0.2356 0.53788 0.0
H1527 H 0.75523 0.22927 0.46763 0.0
H1528 H 0.82274 0.26521 0.47389 0.0
H1529 H 0.79437 0.23683 0.47551 0.0
H1530 H 0.75949 0.27324 0.52528 0.0
H1531 H 0.78806 0.30143 0.52398 0.0
C1532 C 0.73596 0.21048 0.52507 0.0
C1533 C 0.72812 0.19958 0.5064 0.0
C1534 C 0.75079 0.22791 0.52313 0.0
C1535 C 0.75816 0.23485 0.50248 0.0
C1536 C 0.75008 0.22415 0.48378 0.0
C1537 C 0.73518 0.20672 0.48572 0.0
C1538 C 0.80895 0.26723 0.48509 0.0
C1539 C 0.80775 0.28551 0.49892 0.0
C1540 C 0.79262 0.25102 0.48592 0.0
C1541 C 0.77473 0.25273 0.5006 0.0
C1542 C 0.77325 0.27128 0.51404 0.0
C1543 C 0.78957 0.28749 0.5132 0.0
H1544 H 0.27071 0.78628 0.52765 0.0
H1545 H 0.26104 0.79623 0.45844 0.0
H1546 H 0.24506 0.75549 0.52666 0.0
H1547 H 0.23587 0.7651 0.45733 0.0
H1548 H 0.17071 0.72819 0.47033 0.0
H1549 H 0.19896 0.75656 0.46962 0.0
H1550 H 0.2398 0.7186 0.51356 0.0
H1551 H 0.21118 0.69036 0.51472 0.0
C1552 C 0.2633 0.78175 0.51218 0.0
C1553 C 0.26778 0.79381 0.49316 0.0
C1554 C 0.2487 0.76399 0.51158 0.0
C1555 C 0.23832 0.75785 0.49193 0.0
C1556 C 0.24328 0.7696 0.47281 0.0
C1557 C 0.2578 0.7874 0.47343 0.0
C1558 C 0.18577 0.72578 0.47973 0.0
C1559 C 0.18863 0.70704 0.49268 0.0
C1560 C 0.20206 0.74203 0.47922 0.0
C1561 C 0.22165 0.7399 0.49157 0.0
C1562 C 0.22476 0.7209 0.5041 0.0
C1563 C 0.20842 0.70464 0.50466 0.0
H1564 H 0.18961 0.27505 0.52964 0.0
H1565 H 0.18966 0.26985 0.45926 0.0
H1566 H 0.2201 0.24895 0.5316 0.0
H1567 H 0.22053 0.24414 0.4612 0.0
H1568 H 0.25623 0.17942 0.47524 0.0
H1569 H 0.22718 0.20695 0.47261 0.0
H1570 H 0.2592 0.24445 0.52345 0.0
H1571 H 0.28802 0.21661 0.52647 0.0
C1572 C 0.19626 0.26848 0.51457 0.0
C1573 C 0.18713 0.27445 0.4943 0.0
C1574 C 0.21384 0.25362 0.51569 0.0
C1575 C 0.22274 0.24441 0.49656 0.0
C1576 C 0.21384 0.25067 0.47626 0.0
C1577 C 0.19622 0.2655 0.47515 0.0
C1578 C 0.25713 0.19356 0.48583 0.0
C1579 C 0.27441 0.19576 0.50114 0.0
C1580 C 0.24053 0.20943 0.48422 0.0
C1581 C 0.24084 0.22792 0.49782 0.0
C1582 C 0.25829 0.23026 0.51294 0.0
C1583 C 0.27488 0.21435 0.51458 0.0
H1584 H 0.06994 0.32272 0.13407 0.0
H1585 H 0.03993 0.37182 0.0928 0.0
H1586 H 0.10157 0.32049 0.10915 0.0
H1587 H 0.07151 0.36949 0.06792 0.0
H1588 H 0.14184 0.37466 0.04003 0.0
H1589 H 0.11237 0.37782 0.06727 0.0
H1590 H 0.10784 0.30754 0.07077 0.0
H1591 H 0.13734 0.30432 0.04361 0.0
C1592 C 0.07011 0.33307 0.11973 0.0
C1593 C 0.0524 0.34741 0.11537 0.0
C1594 C 0.08818 0.33172 0.10543 0.0
C1595 C 0.08899 0.34482 0.08662 0.0
C1596 C 0.07144 0.35936 0.08242 0.0
C1597 C 0.05329 0.36058 0.0966 0.0
C1598 C 0.13469 0.35988 0.04674 0.0
C1599 C 0.14186 0.33924 0.0396 0.0
C1600 C 0.11773 0.3617 0.06223 0.0
C1601 C 0.10776 0.34293 0.07105 0.0
C1602 C 0.11535 0.32229 0.06437 0.0
C1603 C 0.13216 0.32046 0.04874 0.0
H1604 H 0.62022 0.07018 0.14747 0.0
H1605 H 0.67 0.03592 0.10984 0.0
H1606 H 0.62071 0.09994 0.12092 0.0
H1607 H 0.6701 0.06529 0.08315 0.0
H1608 H 0.68109 0.12921 0.04917 0.0
H1609 H 0.68124 0.10273 0.07875 0.0
H1610 H 0.60971 0.10754 0.08347 0.0
H1611 H 0.60962 0.13455 0.05413 0.0
C1612 C 0.63127 0.06899 0.13355 0.0
C1613 C 0.64511 0.05069 0.1308 0.0
C1614 C 0.63145 0.08599 0.11828 0.0
C1615 C 0.64549 0.08505 0.09993 0.0
C1616 C 0.65937 0.06676 0.09728 0.0
C1617 C 0.65921 0.04982 0.11253 0.0
C1618 C 0.66539 0.12479 0.05663 0.0
C1619 C 0.64532 0.13386 0.04917 0.0
C1620 C 0.66547 0.10948 0.07352 0.0
C1621 C 0.64546 0.10277 0.08331 0.0
C1622 C 0.62544 0.11245 0.0764 0.0
C1623 C 0.62537 0.12787 0.05952 0.0
H1624 H 0.95206 0.67287 0.11153 0.0
H1625 H 0.90456 0.63373 0.14724 0.0
H1626 H 0.92497 0.67814 0.08252 0.0
H1627 H 0.87723 0.63945 0.11836 0.0
H1628 H 0.84718 0.63071 0.04943 0.0
H1629 H 0.87179 0.62771 0.08088 0.0
H1630 H 0.89004 0.69556 0.07362 0.0
H1631 H 0.86583 0.69843 0.04185 0.0
C1632 C 0.93574 0.66561 0.11333 0.0
C1633 C 0.93052 0.65277 0.13165 0.0
C1634 C 0.92014 0.66874 0.09673 0.0
C1635 C 0.89894 0.65916 0.09808 0.0
C1636 C 0.89353 0.64678 0.11668 0.0
C1637 C 0.90915 0.64362 0.13328 0.0
C1638 C 0.85634 0.64502 0.05462 0.0
C1639 C 0.85467 0.66477 0.04304 0.0
C1640 C 0.87035 0.64334 0.07274 0.0
C1641 C 0.88295 0.66138 0.07973 0.0
C1642 C 0.88083 0.68127 0.06846 0.0
C1643 C 0.86686 0.68294 0.05031 0.0
H1644 H 0.39089 0.85717 0.05461 0.0
H1645 H 0.31964 0.86529 0.05017 0.0
H1646 H 0.39133 0.87956 0.08759 0.0
H1647 H 0.32016 0.88789 0.08285 0.0
H1648 H 0.3264 0.91341 0.1524 0.0
H1649 H 0.32678 0.88723 0.12232 0.0
H1650 H 0.38556 0.91818 0.09611 0.0
H1651 H 0.38541 0.94407 0.12623 0.0
C1652 C 0.37532 0.86362 0.06072 0.0
C1653 C 0.35525 0.85954 0.04968 0.0
C1654 C 0.37559 0.87654 0.07955 0.0
C1655 C 0.35579 0.88559 0.08778 0.0
C1656 C 0.33566 0.88098 0.07708 0.0
C1657 C 0.3354 0.86813 0.05824 0.0
C1658 C 0.33947 0.91454 0.14029 0.0
C1659 C 0.35582 0.93088 0.14169 0.0
C1660 C 0.33964 0.8996 0.12301 0.0
C1661 C 0.3562 0.90063 0.10682 0.0
C1662 C 0.37275 0.91674 0.10846 0.0
C1663 C 0.37255 0.9317 0.12566 0.0
H1664 H 0.07089 0.64801 0.84948 0.0
H1665 H 0.02555 0.65734 0.90345 0.0
H1666 H 0.10244 0.65334 0.87425 0.0
H1667 H 0.05693 0.66266 0.92798 0.0
H1668 H 0.11617 0.69475 0.9603 0.0
H1669 H 0.08707 0.6909 0.93296 0.0
H1670 H 0.1196 0.63353 0.90735 0.0
H1671 H 0.14892 0.6373 0.93486 0.0
C1672 C 0.06766 0.65126 0.86657 0.0
C1673 C 0.04573 0.65231 0.8745 0.0
C1674 C 0.0857 0.65419 0.88073 0.0
C1675 C 0.0821 0.65852 0.90298 0.0
C1676 C 0.06019 0.65961 0.91085 0.0
C1677 C 0.04222 0.65644 0.8968 0.0
C1678 C 0.1173 0.68141 0.94875 0.0
C1679 C 0.13478 0.66622 0.94987 0.0
C1680 C 0.10055 0.67917 0.93315 0.0
C1681 C 0.10098 0.66181 0.91819 0.0
C1682 C 0.11892 0.64711 0.91866 0.0
C1683 C 0.13563 0.64923 0.93445 0.0
H1684 H 0.32249 0.06811 0.87053 0.0
H1685 H 0.39311 0.05648 0.86448 0.0
H1686 H 0.32957 0.09364 0.90032 0.0
H1687 H 0.40019 0.08235 0.89379 0.0
H1688 H 0.4014 0.10673 0.96452 0.0
H1689 H 0.39526 0.08387 0.93266 0.0
H1690 H 0.34532 0.12898 0.90942 0.0
H1691 H 0.35109 0.15166 0.94172 0.0
C1692 C 0.33952 0.07115 0.8754 0.0
C1693 C 0.35721 0.06011 0.86526 0.0
C1694 C 0.3436 0.0859 0.89239 0.0
C1695 C 0.36545 0.08997 0.89953 0.0
C1696 C 0.38314 0.07931 0.88897 0.0
C1697 C 0.37907 0.06454 0.87209 0.0
C1698 C 0.38923 0.1119 0.95256 0.0
C1699 C 0.37669 0.13099 0.95571 0.0
C1700 C 0.38578 0.09883 0.93419 0.0
C1701 C 0.36976 0.10456 0.91847 0.0
C1702 C 0.35756 0.12393 0.92137 0.0
C1703 C 0.36099 0.13701 0.9398 0.0
H1704 H 0.8808 0.31242 0.96836 0.0
H1705 H 0.84238 0.36503 0.9403 0.0
H1706 H 0.90531 0.31276 0.93675 0.0
H1707 H 0.8673 0.36575 0.90887 0.0
H1708 H 0.90596 0.34946 0.847 0.0
H1709 H 0.87938 0.34563 0.87687 0.0
H1710 H 0.93368 0.33627 0.92214 0.0
H1711 H 0.96014 0.33955 0.89231 0.0
C1712 C 0.87757 0.32406 0.95543 0.0
C1713 C 0.85972 0.3388 0.95691 0.0
C1714 C 0.8917 0.32432 0.93735 0.0
C1715 C 0.88839 0.3394 0.92035 0.0
C1716 C 0.87019 0.35378 0.92157 0.0
C1717 C 0.85598 0.35345 0.93964 0.0
C1718 C 0.9122 0.34643 0.86331 0.0
C1719 C 0.93517 0.34484 0.86728 0.0
C1720 C 0.89697 0.34437 0.88044 0.0
C1721 C 0.90439 0.34068 0.9019 0.0
C1722 C 0.92736 0.33878 0.90577 0.0
C1723 C 0.94256 0.34079 0.88866 0.0
H1724 H 0.59262 0.89273 0.96271 0.0
H1725 H 0.64039 0.84617 0.93797 0.0
H1726 H 0.59789 0.91515 0.93036 0.0
H1727 H 0.64533 0.86848 0.90528 0.0
H1728 H 0.66862 0.92957 0.86628 0.0
H1729 H 0.66188 0.90368 0.89585 0.0
H1730 H 0.59134 0.91636 0.89145 0.0
H1731 H 0.59808 0.94251 0.8623 0.0
C1732 C 0.60403 0.88712 0.95023 0.0
C1733 C 0.61614 0.8677 0.95297 0.0
C1734 C 0.60697 0.89993 0.9316 0.0
C1735 C 0.62207 0.89363 0.91523 0.0
C1736 C 0.63378 0.87392 0.91771 0.0
C1737 C 0.63083 0.86107 0.93638 0.0
C1738 C 0.65167 0.9267 0.87151 0.0
C1739 C 0.63393 0.93826 0.86207 0.0
C1740 C 0.64779 0.91177 0.88838 0.0
C1741 C 0.62608 0.90807 0.89612 0.0
C1742 C 0.6083 0.91911 0.88615 0.0
C1743 C 0.61217 0.93404 0.86936 0.0
H1744 H 0.17285 0.0733 0.38246 0.0
H1745 H 0.12912 0.03357 0.34297 0.0
H1746 H 0.14483 0.10208 0.38338 0.0
H1747 H 0.10103 0.06219 0.34421 0.0
H1748 H 0.06389 0.12558 0.33323 0.0
H1749 H 0.09397 0.09911 0.33096 0.0
H1750 H 0.10798 0.10846 0.39951 0.0
H1751 H 0.07804 0.13529 0.40176 0.0
C1752 C 0.15729 0.07071 0.37393 0.0
C1753 C 0.15322 0.05112 0.36266 0.0
C1754 C 0.14119 0.08717 0.37458 0.0
C1755 C 0.12069 0.08441 0.36391 0.0
C1756 C 0.11675 0.06493 0.35238 0.0
C1757 C 0.13282 0.04847 0.35177 0.0
C1758 C 0.07345 0.12213 0.34782 0.0
C1759 C 0.06847 0.13249 0.36772 0.0
C1760 C 0.09062 0.10684 0.34652 0.0
C1761 C 0.10326 0.10156 0.36508 0.0
C1762 C 0.09866 0.11231 0.38487 0.0
C1763 C 0.08143 0.12761 0.38618 0.0
H1764 H 0.91982 0.15571 0.36913 0.0
H1765 H 0.96637 0.11073 0.33964 0.0
H1766 H 0.89022 0.12871 0.36516 0.0
H1767 H 0.9369 0.08373 0.33599 0.0
H1768 H 0.87492 0.04934 0.31179 0.0
H1769 H 0.90273 0.07806 0.31498 0.0
H1770 H 0.8793 0.09286 0.38 0.0
H1771 H 0.85118 0.06431 0.37672 0.0
C1772 C 0.92376 0.14006 0.36186 0.0
C1773 C 0.94544 0.13539 0.35467 0.0
C1774 C 0.90682 0.12457 0.35968 0.0
C1775 C 0.91121 0.10414 0.35018 0.0
C1776 C 0.93291 0.09946 0.34307 0.0
C1777 C 0.94984 0.11489 0.34531 0.0
C1778 C 0.87557 0.0588 0.32672 0.0
C1779 C 0.86091 0.05446 0.34405 0.0
C1780 C 0.89161 0.07518 0.32859 0.0
C1781 C 0.89333 0.0876 0.34781 0.0
C1782 C 0.87828 0.08367 0.36492 0.0
C1783 C 0.86224 0.06725 0.36307 0.0
H1784 H 0.87404 0.96255 0.34467 0.0
H1785 H 0.82632 0.91744 0.3721 0.0
H1786 H 0.90237 0.93419 0.34557 0.0
H1787 H 0.85463 0.88892 0.37259 0.0
H1788 H 0.91872 0.85297 0.39404 0.0
H1789 H 0.88901 0.88008 0.39209 0.0
H1790 H 0.91207 0.89986 0.32827 0.0
H1791 H 0.94192 0.87317 0.33035 0.0
C1792 C 0.86953 0.94653 0.35071 0.0
C1793 C 0.84793 0.94227 0.35834 0.0
C1794 C 0.88576 0.93023 0.35113 0.0
C1795 C 0.88076 0.90929 0.35916 0.0
C1796 C 0.85908 0.90496 0.36656 0.0
C1797 C 0.84283 0.92127 0.36614 0.0
C1798 C 0.91739 0.86305 0.37957 0.0
C1799 C 0.93277 0.86099 0.36242 0.0
C1800 C 0.9003 0.8785 0.3784 0.0
C1801 C 0.89825 0.89219 0.36006 0.0
C1802 C 0.9134 0.88981 0.34277 0.0
C1803 C 0.93045 0.87441 0.34394 0.0
H1804 H 0.14989 0.92794 0.37346 0.0
H1805 H 0.12757 0.94544 0.30869 0.0
H1806 H 0.12249 0.89855 0.37455 0.0
H1807 H 0.10046 0.91593 0.30971 0.0
H1808 H 0.03663 0.88138 0.33217 0.0
H1809 H 0.0659 0.90868 0.32965 0.0
H1810 H 0.11269 0.86311 0.35768 0.0
H1811 H 0.08326 0.83574 0.36048 0.0
C1812 C 0.1393 0.9254 0.35938 0.0
C1813 C 0.14081 0.93913 0.34105 0.0
C1814 C 0.12368 0.90849 0.35997 0.0
C1815 C 0.10923 0.905 0.34227 0.0
C1816 C 0.11114 0.91841 0.32374 0.0
C1817 C 0.12676 0.93526 0.32312 0.0
C1818 C 0.05316 0.87711 0.33774 0.0
C1819 C 0.05759 0.85638 0.34656 0.0
C1820 C 0.06998 0.89273 0.33616 0.0
C1821 C 0.09163 0.88804 0.34342 0.0
C1822 C 0.09612 0.86727 0.35213 0.0
C1823 C 0.07929 0.85156 0.35362 0.0
H1824 H 0.0806 0.84775 0.66774 0.0
H1825 H 0.03057 0.89101 0.64131 0.0
H1826 H 0.10644 0.87845 0.67055 0.0
H1827 H 0.05639 0.92149 0.64405 0.0
H1828 H 0.09908 0.97461 0.67502 0.0
H1829 H 0.07433 0.94306 0.67369 0.0
H1830 H 0.12719 0.90411 0.64611 0.0
H1831 H 0.15202 0.93557 0.64754 0.0
C1832 C 0.07516 0.86374 0.66242 0.0
C1833 C 0.05352 0.86693 0.65434 0.0
C1834 C 0.08997 0.88129 0.66399 0.0
C1835 C 0.08336 0.90239 0.65769 0.0
C1836 C 0.06183 0.90549 0.64936 0.0
C1837 C 0.04711 0.88797 0.64764 0.0
C1838 C 0.10548 0.95928 0.66883 0.0
C1839 C 0.12748 0.95763 0.66131 0.0
C1840 C 0.09127 0.94126 0.66794 0.0
C1841 C 0.0988 0.92117 0.65966 0.0
C1842 C 0.12097 0.91934 0.6527 0.0
C1843 C 0.13514 0.9374 0.65344 0.0
H1844 H 0.10358 0.03606 0.61535 0.0
H1845 H 0.15489 0.06991 0.65139 0.0
H1846 H 0.07933 0.06767 0.61892 0.0
H1847 H 0.13041 0.10155 0.65511 0.0
H1848 H 0.08592 0.16118 0.63699 0.0
H1849 H 0.11184 0.13068 0.63305 0.0
H1850 H 0.05919 0.08552 0.64918 0.0
H1851 H 0.0333 0.1158 0.65293 0.0
C1852 C 0.10975 0.05027 0.62395 0.0
C1853 C 0.13115 0.05041 0.63317 0.0
C1854 C 0.09577 0.06834 0.62612 0.0
C1855 C 0.10288 0.08701 0.63748 0.0
C1856 C 0.12451 0.08743 0.64618 0.0
C1857 C 0.13849 0.06928 0.6441 0.0
C1858 C 0.07991 0.14475 0.63981 0.0
C1859 C 0.05751 0.14093 0.64519 0.0
C1860 C 0.09478 0.1273 0.63761 0.0
C1861 C 0.0875 0.1057 0.64061 0.0
C1862 C 0.06521 0.10195 0.64639 0.0
C1863 C 0.05041 0.11935 0.64869 0.0
H1864 H 0.91879 0.15432 0.60624 0.0
H1865 H 0.9419 0.13661 0.67069 0.0
H1866 H 0.88773 0.12895 0.6101 0.0
H1867 H 0.9107 0.11164 0.67467 0.0
H1868 H 0.87037 0.0493 0.66109 0.0
H1869 H 0.89947 0.07686 0.65934 0.0
H1870 H 0.85321 0.12223 0.63011 0.0
H1871 H 0.82413 0.09448 0.63147 0.0
C1872 C 0.91713 0.14521 0.62131 0.0
C1873 C 0.93293 0.14738 0.63807 0.0
C1874 C 0.89925 0.13075 0.62357 0.0
C1875 C 0.8968 0.11817 0.64265 0.0
C1876 C 0.9123 0.1208 0.65962 0.0
C1877 C 0.93014 0.13522 0.65736 0.0
C1878 C 0.86633 0.06519 0.65443 0.0
C1879 C 0.84493 0.06964 0.64635 0.0
C1880 C 0.883 0.08105 0.65352 0.0
C1881 C 0.87868 0.10175 0.64453 0.0
C1882 C 0.85716 0.10636 0.63686 0.0
C1883 C 0.84045 0.09049 0.63779 0.0
H1884 H 0.94014 0.88871 0.61027 0.0
H1885 H 0.93382 0.86586 0.67677 0.0
H1886 H 0.91006 0.91451 0.61634 0.0
H1887 H 0.90333 0.89153 0.68272 0.0
H1888 H 0.87189 0.96054 0.69079 0.0
H1889 H 0.89876 0.93117 0.68584 0.0
H1890 H 0.87021 0.91658 0.62276 0.0
H1891 H 0.84363 0.94622 0.62749 0.0
C1892 C 0.93219 0.88904 0.62614 0.0
C1893 C 0.93945 0.8753 0.64306 0.0
C1894 C 0.91482 0.90374 0.62957 0.0
C1895 C 0.90428 0.90506 0.65001 0.0
C1896 C 0.91127 0.89106 0.66686 0.0
C1897 C 0.92866 0.87629 0.66341 0.0
C1898 C 0.87122 0.95095 0.67595 0.0
C1899 C 0.85577 0.95586 0.65944 0.0
C1900 C 0.88654 0.93402 0.67317 0.0
C1901 C 0.88672 0.92165 0.65384 0.0
C1902 C 0.87074 0.92606 0.63769 0.0
C1903 C 0.85544 0.94298 0.64045 0.0
H1904 H 0.39604 0.0226 0.10552 0.0
H1905 H 0.35816 0.05438 0.15638 0.0
H1906 H 0.38927 0.0534 0.08137 0.0
H1907 H 0.35183 0.08553 0.1323 0.0
H1908 H 0.32406 0.12496 0.07415 0.0
H1909 H 0.33118 0.09487 0.09939 0.0
H1910 H 0.39901 0.09113 0.07642 0.0
H1911 H 0.39181 0.1207 0.05093 0.0
C1912 C 0.38647 0.03627 0.11165 0.0
C1913 C 0.37764 0.03601 0.13289 0.0
C1914 C 0.38266 0.05399 0.09781 0.0
C1915 C 0.36999 0.07194 0.10489 0.0
C1916 C 0.36141 0.07183 0.12625 0.0
C1917 C 0.36519 0.05406 0.1401 0.0
C1918 C 0.34048 0.11769 0.0745 0.0
C1919 C 0.35731 0.12516 0.06044 0.0
C1920 C 0.34461 0.10055 0.08906 0.0
C1921 C 0.36566 0.09056 0.0899 0.0
C1922 C 0.38252 0.09821 0.07597 0.0
C1923 C 0.37839 0.11526 0.06141 0.0
H1924 H 0.38634 0.94371 0.84685 0.0
H1925 H 0.32572 0.96328 0.87932 0.0
H1926 H 0.38894 0.91196 0.87082 0.0
H1927 H 0.32808 0.9314 0.90289 0.0
H1928 H 0.35477 0.88852 0.95812 0.0
H1929 H 0.35109 0.91895 0.93284 0.0
H1930 H 0.37117 0.87715 0.87953 0.0
H1931 H 0.37532 0.84674 0.90495 0.0
C1932 C 0.37347 0.94114 0.85895 0.0
C1933 C 0.35591 0.9561 0.86126 0.0
C1934 C 0.37489 0.92288 0.87262 0.0
C1935 C 0.35878 0.91922 0.88886 0.0
C1936 C 0.34097 0.93394 0.8908 0.0
C1937 C 0.33956 0.95217 0.87719 0.0
C1938 C 0.35834 0.88577 0.94101 0.0
C1939 C 0.36537 0.8652 0.93357 0.0
C1940 C 0.35611 0.9032 0.92648 0.0
C1941 C 0.3608 0.90048 0.90415 0.0
C1942 C 0.36768 0.87985 0.89667 0.0
C1943 C 0.36992 0.8624 0.91122 0.0
H1944 H 0.07204 0.31032 0.84386 0.0
H1945 H 0.05102 0.37107 0.87323 0.0
H1946 H 0.10381 0.309 0.86856 0.0
H1947 H 0.08242 0.36946 0.89824 0.0
H1948 H 0.14981 0.36927 0.93035 0.0
H1949 H 0.12232 0.37165 0.90122 0.0
H1950 H 0.10973 0.30243 0.90707 0.0
H1951 H 0.13761 0.29994 0.93582 0.0
C1952 C 0.07426 0.32345 0.85549 0.0
C1953 C 0.05892 0.34073 0.85666 0.0
C1954 C 0.0924 0.32262 0.86974 0.0
C1955 C 0.09558 0.33903 0.88549 0.0
C1956 C 0.08063 0.35667 0.88615 0.0
C1957 C 0.06253 0.35754 0.87188 0.0
C1958 C 0.14131 0.35452 0.9253 0.0
C1959 C 0.1458 0.33443 0.9355 0.0
C1960 C 0.12547 0.35591 0.90867 0.0
C1961 C 0.11372 0.33727 0.90189 0.0
C1962 C 0.11866 0.31707 0.9117 0.0
C1963 C 0.13456 0.31566 0.92829 0.0
H1964 H 0.61191 0.12037 0.94864 0.0
H1965 H 0.68121 0.1306 0.93292 0.0
H1966 H 0.60985 0.09159 0.92127 0.0
H1967 H 0.67901 0.10199 0.90528 0.0
H1968 H 0.6727 0.03216 0.87835 0.0
H1969 H 0.67479 0.06231 0.90409 0.0
H1970 H 0.61108 0.08588 0.88159 0.0
H1971 H 0.60879 0.0554 0.85593 0.0
C1972 C 0.62669 0.11655 0.93929 0.0
C1973 C 0.64676 0.12773 0.94304 0.0
C1974 C 0.62545 0.10015 0.92348 0.0
C1975 C 0.64425 0.09451 0.91109 0.0
C1976 C 0.66429 0.1058 0.91473 0.0
C1977 C 0.66552 0.12224 0.93052 0.0
C1978 C 0.65914 0.04379 0.87881 0.0
C1979 C 0.64053 0.04133 0.86512 0.0
C1980 C 0.66042 0.06117 0.89349 0.0
C1981 C 0.64312 0.0765 0.89488 0.0
C1982 C 0.62458 0.07419 0.88106 0.0
C1983 C 0.62331 0.0568 0.86629 0.0
H1984 H 0.92227 0.60849 0.84789 0.0
H1985 H 0.95211 0.67092 0.86288 0.0
H1986 H 0.89215 0.61634 0.87345 0.0
H1987 H 0.92234 0.67852 0.88865 0.0
H1988 H 0.85548 0.69367 0.91983 0.0
H1989 H 0.88278 0.68637 0.89125 0.0
H1990 H 0.8876 0.61937 0.91282 0.0
H1991 H 0.86008 0.62651 0.94104 0.0
C1992 C 0.92238 0.62389 0.85657 0.0
C1993 C 0.93964 0.63903 0.85339 0.0
C1994 C 0.90519 0.62834 0.8713 0.0
C1995 C 0.90487 0.64803 0.88314 0.0
C1996 C 0.92191 0.66333 0.8796 0.0
C1997 C 0.93907 0.65889 0.8649 0.0
C1998 C 0.86229 0.67737 0.91841 0.0
C1999 C 0.85565 0.66071 0.93277 0.0
C2000 C 0.87801 0.6732 0.90209 0.0
C2001 C 0.88738 0.65229 0.89976 0.0
C2002 C 0.88049 0.63558 0.91396 0.0
C2003 C 0.86483 0.63974 0.93026 0.0
H2004 H 0.63907 0.93916 0.15694 0.0
H2005 H 0.59996 0.97155 0.10736 0.0
H2006 H 0.64269 0.90727 0.13327 0.0
H2007 H 0.6034 0.93964 0.08389 0.0
H2008 H 0.63498 0.88977 0.03851 0.0
H2009 H 0.63278 0.921 0.06303 0.0
H2010 H 0.61979 0.87771 0.11723 0.0
H2011 H 0.62224 0.84635 0.09274 0.0
C2012 C 0.63114 0.93943 0.14106 0.0
C2013 C 0.61926 0.95792 0.13402 0.0
C2014 C 0.63316 0.92114 0.12755 0.0
C2015 C 0.62345 0.921 0.10667 0.0
C2016 C 0.61137 0.93938 0.09975 0.0
C2017 C 0.60927 0.95761 0.11328 0.0
C2018 C 0.63182 0.88686 0.05568 0.0
C2019 C 0.62871 0.86556 0.06365 0.0
C2020 C 0.6304 0.90478 0.0697 0.0
C2021 C 0.62592 0.90183 0.09203 0.0
C2022 C 0.62339 0.8805 0.10013 0.0
C2023 C 0.62472 0.86255 0.08608 0.0
H2024 H 0.03849 0.63948 0.11158 0.0
H2025 H 0.07798 0.677 0.15709 0.0
H2026 H 0.06722 0.6437 0.08402 0.0
H2027 H 0.1071 0.68072 0.12958 0.0
H2028 H 0.14204 0.70353 0.06646 0.0
H2029 H 0.11409 0.69914 0.0951 0.0
H2030 H 0.10418 0.63209 0.0754 0.0
H2031 H 0.13149 0.63661 0.04657 0.0
C2032 C 0.05343 0.64841 0.11581 0.0
C2033 C 0.05592 0.65791 0.13655 0.0
C2034 C 0.06997 0.65076 0.1 0.0
C2035 C 0.08948 0.66257 0.10457 0.0
C2036 C 0.09214 0.6718 0.12543 0.0
C2037 C 0.07552 0.66951 0.14125 0.0
C2038 C 0.13385 0.68788 0.06825 0.0
C2039 C 0.13888 0.67049 0.05414 0.0
C2040 C 0.11795 0.68531 0.08475 0.0
C2041 C 0.10684 0.66527 0.0875 0.0
C2042 C 0.11211 0.64785 0.07351 0.0
C2043 C 0.12787 0.65044 0.05701 0.0
H2044 H 0.95416 0.31936 0.12439 0.0
H2045 H 0.92825 0.38156 0.14596 0.0
H2046 H 0.92262 0.31514 0.09986 0.0
H2047 H 0.89645 0.37714 0.12152 0.0
H2048 H 0.86093 0.37326 0.05459 0.0
H2049 H 0.89018 0.37711 0.08177 0.0
H2050 H 0.88206 0.30942 0.0999 0.0
H2051 H 0.85286 0.30543 0.07243 0.0
C2052 C 0.94167 0.33209 0.12401 0.0
C2053 C 0.94379 0.35087 0.13706 0.0
C2054 C 0.92349 0.32957 0.11005 0.0
C2055 C 0.90704 0.34579 0.10876 0.0
C2056 C 0.90899 0.36445 0.12201 0.0
C2057 C 0.92716 0.36694 0.13606 0.0
C2058 C 0.86529 0.35919 0.06441 0.0
C2059 C 0.85463 0.33899 0.06126 0.0
C2060 C 0.88196 0.36146 0.08011 0.0
C2061 C 0.88843 0.34358 0.09298 0.0
C2062 C 0.87757 0.32345 0.09006 0.0
C2063 C 0.86079 0.32119 0.0744 0.0
H2064 H 0.61295 0.86958 0.52421 0.0
H2065 H 0.66536 0.83325 0.55604 0.0
H2066 H 0.58964 0.86541 0.55647 0.0
H2067 H 0.64188 0.82908 0.58841 0.0
H2068 H 0.59999 0.85176 0.6494 0.0
H2069 H 0.62483 0.85304 0.61781 0.0
H2070 H 0.57034 0.83469 0.57574 0.0
H2071 H 0.54552 0.83345 0.60711 0.0
C2072 C 0.61953 0.86074 0.5381 0.0
C2073 C 0.641 0.85173 0.53756 0.0
C2074 C 0.6061 0.85822 0.55652 0.0
C2075 C 0.6139 0.84679 0.57488 0.0
C2076 C 0.63549 0.83804 0.57451 0.0
C2077 C 0.64887 0.84037 0.55596 0.0
C2078 C 0.59338 0.84775 0.63345 0.0
C2079 C 0.57073 0.84268 0.63077 0.0
C2080 C 0.60762 0.84843 0.61539 0.0
C2081 C 0.59944 0.8442 0.59431 0.0
C2082 C 0.57701 0.83836 0.59176 0.0
C2083 C 0.56283 0.83753 0.60978 0.0
H2084 H 0.10377 0.55796 0.63484 0.0
H2085 H 0.17346 0.56113 0.61781 0.0
H2086 H 0.09549 0.58554 0.60736 0.0
H2087 H 0.16507 0.58852 0.59008 0.0
H2088 H 0.14503 0.65014 0.55379 0.0
H2089 H 0.15216 0.62629 0.58495 0.0
H2090 H 0.09514 0.58711 0.56747 0.0
H2091 H 0.08781 0.61105 0.53656 0.0
C2092 C 0.11735 0.56459 0.6253 0.0
C2093 C 0.13928 0.55723 0.62844 0.0
C2094 C 0.11257 0.58034 0.60948 0.0
C2095 C 0.12959 0.58915 0.59647 0.0
C2096 C 0.1516 0.58222 0.6 0.0
C2097 C 0.15639 0.56641 0.6158 0.0
C2098 C 0.13385 0.6366 0.55675 0.0
C2099 C 0.11589 0.63245 0.54263 0.0
C2100 C 0.13804 0.62285 0.57452 0.0
C2101 C 0.1243 0.60473 0.57861 0.0
C2102 C 0.10592 0.60104 0.56491 0.0
C2103 C 0.10178 0.61472 0.54711 0.0
H2104 H 0.38318 0.17575 0.52766 0.0
H2105 H 0.34539 0.12359 0.55737 0.0
H2106 H 0.40859 0.17567 0.55853 0.0
H2107 H 0.37122 0.12321 0.58817 0.0
H2108 H 0.41086 0.14375 0.64931 0.0
H2109 H 0.3838 0.14476 0.61957 0.0
H2110 H 0.43727 0.15208 0.57302 0.0
H2111 H 0.46419 0.15153 0.60263 0.0
C2112 C 0.38029 0.16424 0.54077 0.0
C2113 C 0.36232 0.1496 0.53999 0.0
C2114 C 0.39495 0.16411 0.55843 0.0
C2115 C 0.39205 0.1493 0.57573 0.0
C2116 C 0.37381 0.13494 0.57519 0.0
C2117 C 0.35908 0.13508 0.55749 0.0
C2118 C 0.41681 0.14562 0.63273 0.0
C2119 C 0.43968 0.14765 0.62836 0.0
C2120 C 0.40132 0.14607 0.61569 0.0
C2121 C 0.40837 0.1486 0.59394 0.0
C2122 C 0.43124 0.15049 0.58961 0.0
C2123 C 0.4467 0.15005 0.6066 0.0
H2124 H 0.83003 0.38616 0.528 0.0
H2125 H 0.88525 0.34901 0.5537 0.0
H2126 H 0.8277 0.40651 0.56199 0.0
H2127 H 0.88284 0.36956 0.58797 0.0
H2128 H 0.88713 0.43328 0.63087 0.0
H2129 H 0.88934 0.40855 0.59972 0.0
H2130 H 0.81802 0.40048 0.60121 0.0
H2131 H 0.81572 0.42531 0.63233 0.0
C2132 C 0.84167 0.38229 0.54093 0.0
C2133 C 0.85789 0.36601 0.53812 0.0
C2134 C 0.84019 0.39384 0.56049 0.0
C2135 C 0.855 0.38954 0.57767 0.0
C2136 C 0.87126 0.37326 0.57494 0.0
C2137 C 0.8726 0.36149 0.55537 0.0
C2138 C 0.87192 0.42607 0.6247 0.0
C2139 C 0.85121 0.43142 0.63395 0.0
C2140 C 0.87323 0.4118 0.60695 0.0
C2141 C 0.85385 0.40271 0.59797 0.0
C2142 C 0.83322 0.40746 0.60766 0.0
C2143 C 0.83191 0.4216 0.62554 0.0
H2144 H 0.56183 0.16758 0.35428 0.0
H2145 H 0.54549 0.10707 0.38688 0.0
H2146 H 0.59391 0.1721 0.37822 0.0
H2147 H 0.57738 0.11178 0.411 0.0
H2148 H 0.64718 0.11751 0.43886 0.0
H2149 H 0.6183 0.11226 0.41133 0.0
H2150 H 0.59994 0.18021 0.41697 0.0
H2151 H 0.62893 0.18556 0.44419 0.0
C2152 C 0.5651 0.15521 0.36651 0.0
C2153 C 0.55103 0.13701 0.36876 0.0
C2154 C 0.58343 0.15786 0.38028 0.0
C2155 C 0.58814 0.14234 0.39654 0.0
C2156 C 0.57435 0.12391 0.39847 0.0
C2157 C 0.55598 0.12128 0.38474 0.0
C2158 C 0.63713 0.13138 0.43406 0.0
C2159 C 0.64029 0.15194 0.44379 0.0
C2160 C 0.6205 0.12833 0.4184 0.0
C2161 C 0.60677 0.14579 0.41206 0.0
C2162 C 0.61038 0.16648 0.42133 0.0
C2163 C 0.62693 0.16951 0.43704 0.0
H2164 H 0.88935 0.5498 0.3765 0.0
H2165 H 0.82653 0.57688 0.35543 0.0
H2166 H 0.89063 0.57585 0.40648 0.0
H2167 H 0.82801 0.6032 0.38535 0.0
H2168 H 0.82616 0.62612 0.45729 0.0
H2169 H 0.82513 0.60258 0.4253 0.0
H2170 H 0.89488 0.61503 0.41391 0.0
H2171 H 0.89603 0.63842 0.44621 0.0
C2172 C 0.87585 0.56138 0.37819 0.0
C2173 C 0.85778 0.56119 0.36361 0.0
C2174 C 0.87669 0.57643 0.39529 0.0
C2175 C 0.85945 0.59162 0.39827 0.0
C2176 C 0.84145 0.59156 0.3836 0.0
C2177 C 0.84065 0.57654 0.36641 0.0
C2178 C 0.84127 0.62395 0.44793 0.0
C2179 C 0.86122 0.63406 0.45437 0.0
C2180 C 0.84063 0.61056 0.42949 0.0
C2181 C 0.85993 0.6069 0.41709 0.0
C2182 C 0.87979 0.61733 0.42329 0.0
C2183 C 0.88043 0.63081 0.44172 0.0
H2184 H 0.36112 0.79915 0.45594 0.0
H2185 H 0.34736 0.86834 0.45265 0.0
H2186 H 0.38534 0.80229 0.42419 0.0
H2187 H 0.37185 0.87149 0.42105 0.0
H2188 H 0.40188 0.86567 0.35296 0.0
H2189 H 0.37505 0.86051 0.38241 0.0
H2190 H 0.42165 0.81865 0.416 0.0
H2191 H 0.44834 0.82353 0.38651 0.0
C2192 C 0.36322 0.81503 0.44843 0.0
C2193 C 0.35238 0.83352 0.45688 0.0
C2194 C 0.37718 0.81683 0.43029 0.0
C2195 C 0.38055 0.83714 0.42015 0.0
C2196 C 0.3694 0.85556 0.42836 0.0
C2197 C 0.35548 0.85378 0.44655 0.0
C2198 C 0.40633 0.85521 0.36653 0.0
C2199 C 0.42728 0.84507 0.36742 0.0
C2200 C 0.391 0.85237 0.38346 0.0
C2201 C 0.39627 0.83926 0.40157 0.0
C2202 C 0.417 0.82868 0.40217 0.0
C2203 C 0.43234 0.83158 0.3853 0.0
H2204 H 0.1756 0.4605 0.3993 0.0
H2205 H 0.12996 0.42321 0.35951 0.0
H2206 H 0.17486 0.43182 0.42688 0.0
H2207 H 0.1296 0.39437 0.38689 0.0
H2208 H 0.1153 0.35976 0.45234 0.0
H2209 H 0.11615 0.38755 0.42376 0.0
H2210 H 0.18708 0.39453 0.43259 0.0
H2211 H 0.18618 0.36717 0.46136 0.0
C2212 C 0.16553 0.44613 0.39636 0.0
C2213 C 0.15284 0.44416 0.3772 0.0
C2214 C 0.1652 0.42963 0.41212 0.0
C2215 C 0.15218 0.41078 0.40909 0.0
C2216 C 0.13958 0.40879 0.38987 0.0
C2217 C 0.13991 0.42528 0.37411 0.0
C2218 C 0.13108 0.36715 0.44809 0.0
C2219 C 0.15064 0.36132 0.4592 0.0
C2220 C 0.13159 0.38302 0.43165 0.0
C2221 C 0.15168 0.39336 0.42598 0.0
C2222 C 0.17128 0.38717 0.43682 0.0
C2223 C 0.17077 0.37136 0.45323 0.0
H2224 H 0.62657 0.5462 0.86424 0.0
H2225 H 0.66229 0.58648 0.81813 0.0
H2226 H 0.59781 0.57388 0.86709 0.0
H2227 H 0.63301 0.61401 0.82043 0.0
H2228 H 0.58712 0.66791 0.8465 0.0
H2229 H 0.6169 0.6409 0.84434 0.0
H2230 H 0.56814 0.5891 0.84658 0.0
H2231 H 0.53858 0.61596 0.84945 0.0
C2232 C 0.62819 0.56089 0.85454 0.0
C2233 C 0.64669 0.56408 0.84088 0.0
C2234 C 0.61161 0.57676 0.8561 0.0
C2235 C 0.61298 0.59617 0.8439 0.0
C2236 C 0.63154 0.59939 0.83027 0.0
C2237 C 0.64825 0.58354 0.82883 0.0
C2238 C 0.5828 0.65075 0.84662 0.0
C2239 C 0.56048 0.6441 0.84825 0.0
C2240 C 0.59985 0.63525 0.84522 0.0
C2241 C 0.59496 0.61279 0.84531 0.0
C2242 C 0.5726 0.60622 0.84686 0.0
C2243 C 0.55561 0.62167 0.8484 0.0
H2244 H 0.44157 0.62315 0.89655 0.0
H2245 H 0.43723 0.63366 0.82689 0.0
H2246 H 0.40968 0.59881 0.89486 0.0
H2247 H 0.40501 0.60933 0.82526 0.0
H2248 H 0.36856 0.54211 0.8304 0.0
H2249 H 0.39773 0.56975 0.83012 0.0
H2250 H 0.36936 0.59924 0.88781 0.0
H2251 H 0.34031 0.57145 0.8883 0.0
C2252 C 0.43374 0.62037 0.88087 0.0
C2253 C 0.44201 0.63028 0.86183 0.0
C2254 C 0.41533 0.60653 0.87994 0.0
C2255 C 0.40478 0.6022 0.85994 0.0
C2256 C 0.4129 0.61224 0.84089 0.0
C2257 C 0.43129 0.62623 0.84184 0.0
C2258 C 0.36842 0.55459 0.84293 0.0
C2259 C 0.35221 0.55446 0.85949 0.0
C2260 C 0.38506 0.57051 0.84267 0.0
C2261 C 0.38592 0.58659 0.85902 0.0
C2262 C 0.3693 0.58687 0.87517 0.0
C2263 C 0.3526 0.57101 0.87538 0.0
H2264 H 0.37175 0.43943 0.80069 0.0
H2265 H 0.35709 0.43684 0.86975 0.0
H2266 H 0.39824 0.40957 0.80509 0.0
H2267 H 0.38386 0.40742 0.87419 0.0
H2268 H 0.42065 0.3425 0.87181 0.0
H2269 H 0.39135 0.36944 0.86567 0.0
H2270 H 0.43452 0.40457 0.82153 0.0
H2271 H 0.4635 0.37754 0.82726 0.0
C2272 C 0.37412 0.43247 0.81678 0.0
C2273 C 0.36239 0.44061 0.83487 0.0
C2274 C 0.38939 0.41543 0.81933 0.0
C2275 C 0.39325 0.40618 0.84002 0.0
C2276 C 0.38111 0.41399 0.85799 0.0
C2277 C 0.36585 0.43098 0.85544 0.0
C2278 C 0.42384 0.35594 0.86075 0.0
C2279 C 0.44442 0.35788 0.85007 0.0
C2280 C 0.40709 0.37141 0.85728 0.0
C2281 C 0.41058 0.38914 0.84307 0.0
C2282 C 0.43112 0.39094 0.83229 0.0
C2283 C 0.44782 0.3755 0.83574 0.0
H2284 H 0.53773 0.39792 0.88015 0.0
H2285 H 0.57475 0.35557 0.83695 0.0
H2286 H 0.57 0.42157 0.8837 0.0
H2287 H 0.60726 0.37933 0.84069 0.0
H2288 H 0.6472 0.44478 0.8323 0.0
H2289 H 0.61809 0.41714 0.8298 0.0
H2290 H 0.60781 0.42125 0.89947 0.0
H2291 H 0.63671 0.44903 0.90201 0.0
C2292 C 0.55279 0.3936 0.87146 0.0
C2293 C 0.55365 0.37488 0.85822 0.0
C2294 C 0.57135 0.40708 0.87365 0.0
C2295 C 0.59121 0.40224 0.86258 0.0
C2296 C 0.59213 0.38352 0.84933 0.0
C2297 C 0.57356 0.3699 0.84725 0.0
C2298 C 0.63893 0.4396 0.84713 0.0
C2299 C 0.64412 0.44928 0.86732 0.0
C2300 C 0.62232 0.42369 0.84569 0.0
C2301 C 0.61051 0.41721 0.8644 0.0
C2302 C 0.61638 0.42619 0.88472 0.0
C2303 C 0.63303 0.44202 0.88618 0.0
H2304 H 0.53759 0.38648 0.1437 0.0
H2305 H 0.58424 0.34011 0.17074 0.0
H2306 H 0.56484 0.41547 0.148 0.0
H2307 H 0.61184 0.36907 0.17443 0.0
H2308 H 0.64806 0.4304 0.19801 0.0
H2309 H 0.62002 0.40168 0.19514 0.0
H2310 H 0.5991 0.42771 0.13283 0.0
H2311 H 0.62648 0.45662 0.136 0.0
C2312 C 0.55376 0.38242 0.15036 0.0
C2313 C 0.55876 0.36096 0.15683 0.0
C2314 C 0.56943 0.39905 0.15276 0.0
C2315 C 0.59056 0.39462 0.16155 0.0
C2316 C 0.59561 0.37312 0.16791 0.0
C2317 C 0.57986 0.35648 0.16562 0.0
C2318 C 0.63734 0.43005 0.18379 0.0
C2319 C 0.63947 0.44584 0.16728 0.0
C2320 C 0.62139 0.4135 0.18206 0.0
C2321 C 0.60731 0.41235 0.16373 0.0
C2322 C 0.6094 0.42827 0.14733 0.0
C2323 C 0.62521 0.44483 0.14912 0.0
H2324 H 0.65231 0.56325 0.13028 0.0
H2325 H 0.6279 0.54811 0.19488 0.0
H2326 H 0.62822 0.59528 0.12905 0.0
H2327 H 0.6044 0.58041 0.19397 0.0
H2328 H 0.54398 0.62002 0.17176 0.0
H2329 H 0.57115 0.59097 0.17557 0.0
H2330 H 0.62051 0.63109 0.14359 0.0
H2331 H 0.59299 0.66007 0.13918 0.0
C2332 C 0.64207 0.56696 0.14435 0.0
C2333 C 0.64182 0.55302 0.16257 0.0
C2334 C 0.62834 0.58538 0.14371 0.0
C2335 C 0.6142 0.59032 0.16134 0.0
C2336 C 0.61471 0.57684 0.17991 0.0
C2337 C 0.62828 0.55837 0.18048 0.0
C2338 C 0.56066 0.62276 0.16567 0.0
C2339 C 0.56627 0.64234 0.15507 0.0
C2340 C 0.57633 0.60612 0.16799 0.0
C2341 C 0.59806 0.60867 0.15989 0.0
C2342 C 0.60384 0.62847 0.14975 0.0
C2343 C 0.5881 0.64513 0.14734 0.0
H2344 H 0.45726 0.62404 0.16651 0.0
H2345 H 0.41513 0.66558 0.12724 0.0
H2346 H 0.4272 0.59778 0.16995 0.0
H2347 H 0.38515 0.63885 0.1301 0.0
H2348 H 0.32954 0.59475 0.15515 0.0
H2349 H 0.35876 0.62242 0.15473 0.0
H2350 H 0.40829 0.57172 0.14804 0.0
H2351 H 0.37928 0.54418 0.14917 0.0
C2352 C 0.44159 0.62753 0.15849 0.0
C2353 C 0.43863 0.64687 0.14648 0.0
C2354 C 0.42437 0.61239 0.16039 0.0
C2355 C 0.40378 0.61609 0.15017 0.0
C2356 C 0.4007 0.63559 0.13839 0.0
C2357 C 0.41793 0.65085 0.13662 0.0
C2358 C 0.3467 0.58953 0.15377 0.0
C2359 C 0.35208 0.56726 0.15221 0.0
C2360 C 0.36343 0.6054 0.15337 0.0
C2361 C 0.3859 0.59933 0.15131 0.0
C2362 C 0.39122 0.57701 0.15 0.0
C2363 C 0.37455 0.56118 0.15054 0.0
H2364 H 0.43025 0.35552 0.16312 0.0
H2365 H 0.45996 0.40265 0.11942 0.0
H2366 H 0.39712 0.37843 0.16602 0.0
H2367 H 0.42704 0.42554 0.12252 0.0
H2368 H 0.35798 0.45346 0.11768 0.0
H2369 H 0.38722 0.42632 0.11275 0.0
H2370 H 0.38793 0.41436 0.18226 0.0
H2371 H 0.35852 0.44128 0.18721 0.0
C2372 C 0.4297 0.37071 0.15409 0.0
C2373 C 0.44777 0.37731 0.14111 0.0
C2374 C 0.41076 0.38385 0.15581 0.0
C2375 C 0.40947 0.40375 0.14447 0.0
C2376 C 0.4274 0.41014 0.13122 0.0
C2377 C 0.44635 0.3971 0.12959 0.0
C2378 C 0.36415 0.44484 0.13188 0.0
C2379 C 0.35607 0.44968 0.15287 0.0
C2380 C 0.38099 0.42939 0.12906 0.0
C2381 C 0.39001 0.41838 0.14714 0.0
C2382 C 0.38121 0.42248 0.16799 0.0
C2383 C 0.36443 0.43799 0.17083 0.0
H2384 H 0.88185 0.55143 0.6473 0.0
H2385 H 0.83171 0.52227 0.60597 0.0
H2386 H 0.88113 0.58437 0.62471 0.0
H2387 H 0.83112 0.55502 0.58347 0.0
H2388 H 0.82061 0.62471 0.55994 0.0
H2389 H 0.82029 0.59422 0.58564 0.0
H2390 H 0.8921 0.59413 0.5865 0.0
H2391 H 0.89249 0.62464 0.56096 0.0
C2392 C 0.87065 0.55207 0.63346 0.0
C2393 C 0.8569 0.53422 0.62838 0.0
C2394 C 0.8703 0.57088 0.6205 0.0
C2395 C 0.85603 0.57226 0.60236 0.0
C2396 C 0.84208 0.55454 0.5975 0.0
C2397 C 0.84256 0.53571 0.61031 0.0
C2398 C 0.83632 0.6183 0.56573 0.0
C2399 C 0.85657 0.62701 0.55831 0.0
C2400 C 0.83613 0.60078 0.58037 0.0
C2401 C 0.85617 0.59176 0.58801 0.0
C2402 C 0.87639 0.60087 0.58105 0.0
C2403 C 0.8766 0.61825 0.5663 0.0
H2404 H 0.82101 0.44488 0.35185 0.0
H2405 H 0.89067 0.45288 0.36685 0.0
H2406 H 0.81925 0.41341 0.37605 0.0
H2407 H 0.88876 0.42225 0.39208 0.0
H2408 H 0.88387 0.35702 0.42536 0.0
H2409 H 0.88563 0.38483 0.39701 0.0
H2410 H 0.8185 0.40475 0.41288 0.0
H2411 H 0.81645 0.37607 0.44028 0.0
C2412 C 0.83595 0.4399 0.36041 0.0
C2413 C 0.85596 0.45134 0.35753 0.0
C2414 C 0.83492 0.42195 0.37444 0.0
C2415 C 0.85379 0.4153 0.38632 0.0
C2416 C 0.87394 0.42657 0.38303 0.0
C2417 C 0.87505 0.44425 0.36864 0.0
C2418 C 0.86946 0.36728 0.42263 0.0
C2419 C 0.85003 0.36443 0.43503 0.0
C2420 C 0.87049 0.38335 0.40647 0.0
C2421 C 0.85227 0.39725 0.40261 0.0
C2422 C 0.83275 0.39417 0.41498 0.0
C2423 C 0.83159 0.3778 0.43084 0.0
H2424 H 0.53269 0.85301 0.38906 0.0
H2425 H 0.57827 0.8312 0.33902 0.0
H2426 H 0.56132 0.84753 0.41662 0.0
H2427 H 0.60697 0.82568 0.36679 0.0
H2428 H 0.65752 0.84438 0.42198 0.0
H2429 H 0.63002 0.84804 0.39289 0.0
H2430 H 0.58124 0.81572 0.43329 0.0
H2431 H 0.60866 0.8121 0.46245 0.0
C2432 C 0.54885 0.84714 0.3839 0.0
C2433 C 0.55318 0.84251 0.36181 0.0
C2434 C 0.56519 0.84383 0.39974 0.0
C2435 C 0.58629 0.83597 0.39388 0.0
C2436 C 0.59085 0.8318 0.37176 0.0
C2437 C 0.57441 0.83493 0.35588 0.0
C2438 C 0.64099 0.83787 0.42459 0.0
C2439 C 0.63523 0.82806 0.44459 0.0
C2440 C 0.62528 0.83989 0.40789 0.0
C2441 C 0.60345 0.83233 0.4109 0.0
C2442 C 0.59787 0.82197 0.43064 0.0
C2443 C 0.61363 0.81976 0.44728 0.0
H2444 H 0.10202 0.6219 0.44527 0.0
H2445 H 0.17203 0.62302 0.42935 0.0
H2446 H 0.09644 0.59198 0.41969 0.0
H2447 H 0.1665 0.59273 0.40406 0.0
H2448 H 0.14533 0.55176 0.34566 0.0
H2449 H 0.14921 0.58357 0.3693 0.0
H2450 H 0.10538 0.55361 0.4165 0.0
H2451 H 0.10112 0.52204 0.3927 0.0
C2452 C 0.11625 0.61573 0.43636 0.0
C2453 C 0.1375 0.62483 0.43941 0.0
C2454 C 0.11305 0.5985 0.42176 0.0
C2455 C 0.13102 0.58992 0.40985 0.0
C2456 C 0.15224 0.59914 0.41276 0.0
C2457 C 0.15545 0.61641 0.42737 0.0
C2458 C 0.13634 0.55205 0.36098 0.0
C2459 C 0.12293 0.53434 0.3673 0.0
C2460 C 0.13872 0.57022 0.37461 0.0
C2461 C 0.12772 0.57109 0.39486 0.0
C2462 C 0.1139 0.55358 0.40092 0.0
C2463 C 0.11153 0.53543 0.3873 0.0
H2464 H 0.45608 0.14028 0.37923 0.0
H2465 H 0.40815 0.15286 0.32816 0.0
H2466 H 0.42651 0.1408 0.40621 0.0
H2467 H 0.37832 0.15278 0.35524 0.0
H2468 H 0.33557 0.17579 0.41358 0.0
H2469 H 0.36422 0.17449 0.38536 0.0
H2470 H 0.39517 0.11997 0.41827 0.0
H2471 H 0.36702 0.12165 0.44669 0.0
C2472 C 0.43918 0.14295 0.37371 0.0
C2473 C 0.43449 0.14654 0.35152 0.0
C2474 C 0.42218 0.14313 0.3892 0.0
C2475 C 0.40001 0.14678 0.3829 0.0
C2476 C 0.39526 0.15019 0.36067 0.0
C2477 C 0.41233 0.15009 0.34514 0.0
C2478 C 0.34849 0.16352 0.41476 0.0
C2479 C 0.34911 0.14893 0.43246 0.0
C2480 C 0.36483 0.16268 0.39851 0.0
C2481 C 0.38206 0.14719 0.3996 0.0
C2482 C 0.38239 0.13237 0.41712 0.0
C2483 C 0.36616 0.13328 0.43338 0.0
H2484 H 0.11506 0.45291 0.62774 0.0
H2485 H 0.1837 0.44083 0.64457 0.0
H2486 H 0.11578 0.42211 0.60261 0.0
H2487 H 0.18421 0.40938 0.6203 0.0
H2488 H 0.18601 0.37215 0.55593 0.0
H2489 H 0.18496 0.40113 0.58301 0.0
H2490 H 0.11707 0.38396 0.59882 0.0
H2491 H 0.11788 0.35562 0.57092 0.0
C2492 C 0.1302 0.44344 0.62632 0.0
C2493 C 0.14936 0.44937 0.63799 0.0
C2494 C 0.1306 0.42567 0.612 0.0
C2495 C 0.1501 0.41322 0.60928 0.0
C2496 C 0.16905 0.41883 0.62155 0.0
C2497 C 0.16873 0.43679 0.6356 0.0
C2498 C 0.1709 0.37449 0.56528 0.0
C2499 C 0.152 0.36166 0.56124 0.0
C2500 C 0.17032 0.39105 0.58094 0.0
C2501 C 0.15091 0.39499 0.59319 0.0
C2502 C 0.13217 0.38173 0.58946 0.0
C2503 C 0.13267 0.36536 0.57356 0.0
H2504 H 0.67075 0.12087 0.5796 0.0
H2505 H 0.6285 0.15902 0.5371 0.0
H2506 H 0.64129 0.11997 0.60699 0.0
H2507 H 0.59903 0.15788 0.56438 0.0
H2508 H 0.55825 0.16857 0.62565 0.0
H2509 H 0.59001 0.1714 0.60116 0.0
H2510 H 0.60413 0.10294 0.6108 0.0
H2511 H 0.57246 0.10009 0.63556 0.0
C2512 C 0.65524 0.12917 0.57614 0.0
C2513 C 0.65195 0.13999 0.55615 0.0
C2514 C 0.63833 0.12853 0.59178 0.0
C2515 C 0.61784 0.1388 0.58782 0.0
C2516 C 0.61473 0.15001 0.56802 0.0
C2517 C 0.63158 0.15056 0.55234 0.0
C2518 C 0.5682 0.15413 0.6227 0.0
C2519 C 0.56273 0.13405 0.63247 0.0
C2520 C 0.58634 0.15575 0.60857 0.0
C2521 C 0.59948 0.13737 0.60394 0.0
C2522 C 0.59442 0.11743 0.61419 0.0
C2523 C 0.5762 0.11578 0.62829 0.0
H2524 H 0.46606 0.84043 0.61398 0.0
H2525 H 0.41777 0.85118 0.66516 0.0
H2526 H 0.43613 0.83524 0.58776 0.0
H2527 H 0.38768 0.84612 0.63861 0.0
H2528 H 0.34518 0.86127 0.57516 0.0
H2529 H 0.37323 0.86569 0.60374 0.0
H2530 H 0.40565 0.80663 0.58219 0.0
H2531 H 0.37761 0.80205 0.55372 0.0
C2532 C 0.44906 0.84181 0.61964 0.0
C2533 C 0.4443 0.8462 0.64169 0.0
C2534 C 0.43192 0.83867 0.60462 0.0
C2535 C 0.40963 0.8401 0.61121 0.0
C2536 C 0.40476 0.84495 0.63313 0.0
C2537 C 0.42196 0.8478 0.6483 0.0
C2538 C 0.3582 0.84913 0.57663 0.0
C2539 C 0.35926 0.83137 0.5621 0.0
C2540 C 0.37416 0.85163 0.59305 0.0
C2541 C 0.39164 0.83658 0.59505 0.0
C2542 C 0.39244 0.81858 0.58085 0.0
C2543 C 0.37633 0.81592 0.56462 0.0
loop_
_geom_bond_atom_site_label_1
_geom_bond_atom_site_label_2
_geom_bond_distance
_geom_bond_site_symmetry_2
_ccdc_geom_bond_type
C0 O1 1.160 . S
C0 O7 1.185 . S
O1 C0 1.160 . S
O2 Zn3 1.899 . S
O2 C10 1.284 . S
Zn3 O2 1.899 . S
Zn3 O4 2.032 . S
Zn3 O7 2.086 . S
Zn3 O12 1.977 . S
O4 Zn3 2.032 . S
O4 C8 1.278 1_455 S
C5 O6 1.203 . S
C5 O12 1.267 . S
O6 C5 1.203 . S
O7 C0 1.185 . S
O7 Zn3 2.086 . S
C8 O4 1.278 1_655 S
C8 O9 1.211 . S
O9 C8 1.211 . S
C10 O2 1.284 . S
C10 O11 1.273 . S
O11 C10 1.273 . S
O12 Zn3 1.977 . S
O12 C5 1.267 . S
C13 O14 1.160 . S
C13 O20 1.185 . S
O14 C13 1.160 . S
O15 Zn16 1.899 . S
O15 C23 1.284 . S
Zn16 O15 1.899 . S
Zn16 O17 2.032 . S
Zn16 O20 2.086 . S
Zn16 O25 1.977 1_545 S
O17 Zn16 2.032 . S
O17 C21 1.278 . S
C18 O19 1.203 . S
C18 O25 1.267 . S
O19 C18 1.203 . S
O20 C13 1.185 . S
O20 Zn16 2.086 . S
C21 O17 1.278 . S
C21 O22 1.211 1_545 S
O22 C21 1.211 1_565 S
C23 O15 1.284 . S
C23 O24 1.273 . S
O24 C23 1.273 . S
O25 Zn16 1.977 1_565 S
O25 C18 1.267 . S
C26 O27 1.160 . S
C26 O33 1.185 . S
O27 C26 1.160 . S
O28 Zn29 1.899 . S
O28 C36 1.284 . S
Zn29 O28 1.899 . S
Zn29 O30 2.032 . S
Zn29 O33 2.086 . S
Zn29 O38 1.977 . S
O30 Zn29 2.032 . S
O30 C34 1.278 1_655 S
C31 O32 1.203 . S
C31 O38 1.267 . S
O32 C31 1.203 . S
O33 C26 1.185 . S
O33 Zn29 2.086 . S
C34 O30 1.278 1_455 S
C34 O35 1.211 . S
O35 C34 1.211 . S
C36 O28 1.284 . S
C36 O37 1.273 . S
O37 C36 1.273 . S
O38 Zn29 1.977 . S
O38 C31 1.267 . S
C39 O40 1.160 . S
C39 O46 1.185 . S
O40 C39 1.160 . S
O41 Zn42 1.899 . S
O41 C49 1.284 . S
Zn42 O41 1.899 . S
Zn42 O43 2.032 . S
Zn42 O46 2.086 . S
Zn42 O51 1.977 1_565 S
O43 Zn42 2.032 . S
O43 C47 1.278 . S
C44 O45 1.203 . S
C44 O51 1.267 . S
O45 C44 1.203 . S
O46 C39 1.185 . S
O46 Zn42 2.086 . S
C47 O43 1.278 . S
C47 O48 1.211 1_565 S
O48 C47 1.211 1_545 S
C49 O41 1.284 . S
C49 O50 1.273 . S
O50 C49 1.273 . S
O51 Zn42 1.977 1_545 S
O51 C44 1.267 . S
C52 O53 1.160 . S
C52 O59 1.185 . S
O53 C52 1.160 . S
O54 Zn55 1.899 . S
O54 C62 1.284 . S
Zn55 O54 1.899 . S
Zn55 O56 2.032 . S
Zn55 O59 2.086 . S
Zn55 O64 1.977 . S
O56 Zn55 2.032 . S
O56 C60 1.278 1_455 S
C57 O58 1.203 . S
C57 O64 1.267 . S
O58 C57 1.203 . S
O59 C52 1.185 . S
O59 Zn55 2.086 . S
C60 O56 1.278 1_655 S
C60 O61 1.211 . S
O61 C60 1.211 . S
C62 O54 1.284 . S
C62 O63 1.273 . S
O63 C62 1.273 . S
O64 Zn55 1.977 . S
O64 C57 1.267 . S
C65 O66 1.160 . S
C65 O72 1.185 . S
O66 C65 1.160 . S
O67 Zn68 1.899 . S
O67 C75 1.284 . S
Zn68 O67 1.899 . S
Zn68 O69 2.032 . S
Zn68 O72 2.086 . S
Zn68 O77 1.977 1_545 S
O69 Zn68 2.032 . S
O69 C73 1.278 . S
C70 O71 1.203 . S
C70 O77 1.267 . S
O71 C70 1.203 . S
O72 C65 1.185 . S
O72 Zn68 2.086 . S
C73 O69 1.278 . S
C73 O74 1.211 1_545 S
O74 C73 1.211 1_565 S
C75 O67 1.284 . S
C75 O76 1.273 . S
O76 C75 1.273 . S
O77 Zn68 1.977 1_565 S
O77 C70 1.267 . S
C78 O79 1.160 . S
C78 O85 1.185 . S
O79 C78 1.160 . S
O80 Zn81 1.899 . S
O80 C88 1.284 . S
Zn81 O80 1.899 . S
Zn81 O82 2.032 . S
Zn81 O85 2.086 . S
Zn81 O90 1.977 . S
O82 Zn81 2.032 . S
O82 C86 1.278 1_655 S
C83 O84 1.203 . S
C83 O90 1.267 . S
O84 C83 1.203 . S
O85 C78 1.185 . S
O85 Zn81 2.086 . S
C86 O82 1.278 1_455 S
C86 O87 1.211 . S
O87 C86 1.211 . S
C88 O80 1.284 . S
C88 O89 1.273 . S
O89 C88 1.273 . S
O90 Zn81 1.977 . S
O90 C83 1.267 . S
C91 O92 1.160 . S
C91 O98 1.185 . S
O92 C91 1.160 . S
O93 Zn94 1.899 . S
O93 C101 1.284 . S
Zn94 O93 1.899 . S
Zn94 O95 2.032 . S
Zn94 O98 2.086 . S
Zn94 O103 1.977 1_565 S
O95 Zn94 2.032 . S
O95 C99 1.278 . S
C96 O97 1.203 . S
C96 O103 1.267 . S
O97 C96 1.203 . S
O98 C91 1.185 . S
O98 Zn94 2.086 . S
C99 O95 1.278 . S
C99 O100 1.211 1_565 S
O100 C99 1.211 1_545 S
C101 O93 1.284 . S
C101 O102 1.273 . S
O102 C101 1.273 . S
O103 Zn94 1.977 1_545 S
O103 C96 1.267 . S
C104 O105 1.160 . S
C104 O111 1.185 . S
O105 C104 1.160 . S
O106 Zn107 1.899 . S
O106 C114 1.284 . S
Zn107 O106 1.899 . S
Zn107 O108 2.032 . S
Zn107 O111 2.086 . S
Zn107 O116 2.010 . S
O108 Zn107 2.032 . S
O108 C112 1.278 . S
C109 O110 1.196 1_565 S
C109 O116 1.252 1_565 S
O110 C109 1.196 1_545 S
O111 C104 1.185 . S
O111 Zn107 2.086 . S
C112 O108 1.278 . S
C112 O113 1.211 . S
O113 C112 1.211 . S
C114 O106 1.284 . S
C114 O115 1.273 . S
O115 C114 1.273 . S
O116 Zn107 2.010 . S
O116 C109 1.252 1_545 S
C117 O118 1.160 . S
C117 O124 1.185 . S
O118 C117 1.160 . S
O119 Zn120 1.899 . S
O119 C127 1.284 . S
Zn120 O119 1.899 . S
Zn120 O121 2.032 . S
Zn120 O124 2.086 . S
Zn120 O129 1.977 . S
O121 Zn120 2.032 . S
O121 C125 1.278 1_655 S
C122 O123 1.203 . S
C122 O129 1.267 . S
O123 C122 1.203 . S
O124 C117 1.185 . S
O124 Zn120 2.086 . S
C125 O121 1.278 1_455 S
C125 O126 1.211 . S
O126 C125 1.211 . S
C127 O119 1.284 . S
C127 O128 1.273 . S
O128 C127 1.273 . S
O129 Zn120 1.977 . S
O129 C122 1.267 . S
C130 O131 1.160 . S
C130 O137 1.185 . S
O131 C130 1.160 . S
O132 Zn133 1.899 . S
O132 C140 1.284 . S
Zn133 O132 1.899 . S
Zn133 O134 2.032 . S
Zn133 O137 2.086 . S
Zn133 O142 2.010 . S
O134 Zn133 2.032 . S
O134 C138 1.278 . S
C135 O136 1.196 1_545 S
C135 O142 1.252 1_545 S
O136 C135 1.196 1_565 S
O137 C130 1.185 . S
O137 Zn133 2.086 . S
C138 O134 1.278 . S
C138 O139 1.211 . S
O139 C138 1.211 . S
C140 O132 1.284 . S
C140 O141 1.273 . S
O141 C140 1.273 . S
O142 Zn133 2.010 . S
O142 C135 1.252 1_565 S
C143 O144 1.160 . S
C143 O150 1.185 . S
O144 C143 1.160 . S
O145 Zn146 1.899 . S
O145 C153 1.284 . S
Zn146 O145 1.899 . S
Zn146 O147 2.032 . S
Zn146 O150 2.086 . S
Zn146 O155 1.977 . S
O147 Zn146 2.032 . S
O147 C151 1.278 1_455 S
C148 O149 1.203 . S
C148 O155 1.267 . S
O149 C148 1.203 . S
O150 C143 1.185 . S
O150 Zn146 2.086 . S
C151 O147 1.278 1_655 S
C151 O152 1.211 . S
O152 C151 1.211 . S
C153 O145 1.284 . S
C153 O154 1.273 . S
O154 C153 1.273 . S
O155 Zn146 1.977 . S
O155 C148 1.267 . S
C156 O157 1.160 . S
C156 O163 1.185 . S
O157 C156 1.160 . S
O158 Zn159 1.899 . S
O158 C166 1.284 . S
Zn159 O158 1.899 . S
Zn159 O160 2.032 . S
Zn159 O163 2.086 . S
Zn159 O168 2.010 . S
O160 Zn159 2.032 . S
O160 C164 1.278 . S
C161 O162 1.196 1_545 S
C161 O168 1.252 1_545 S
O162 C161 1.196 1_565 S
O163 C156 1.185 . S
O163 Zn159 2.086 . S
C164 O160 1.278 . S
C164 O165 1.211 . S
O165 C164 1.211 . S
C166 O158 1.284 . S
C166 O167 1.273 . S
O167 C166 1.273 . S
O168 Zn159 2.010 . S
O168 C161 1.252 1_565 S
C169 O170 1.160 . S
C169 O176 1.185 . S
O170 C169 1.160 . S
O171 Zn172 1.899 . S
O171 C179 1.284 . S
Zn172 O171 1.899 . S
Zn172 O173 2.032 . S
Zn172 O176 2.086 . S
Zn172 O181 1.977 . S
O173 Zn172 2.032 . S
O173 C177 1.278 1_455 S
C174 O175 1.203 . S
C174 O181 1.267 . S
O175 C174 1.203 . S
O176 C169 1.185 . S
O176 Zn172 2.086 . S
C177 O173 1.278 1_655 S
C177 O178 1.211 . S
O178 C177 1.211 . S
C179 O171 1.284 . S
C179 O180 1.273 . S
O180 C179 1.273 . S
O181 Zn172 1.977 . S
O181 C174 1.267 . S
C182 O183 1.160 . S
C182 O189 1.185 . S
O183 C182 1.160 . S
O184 Zn185 1.899 . S
O184 C192 1.284 . S
Zn185 O184 1.899 . S
Zn185 O186 2.032 . S
Zn185 O189 2.086 . S
Zn185 O194 2.010 . S
O186 Zn185 2.032 . S
O186 C190 1.278 . S
C187 O188 1.196 1_565 S
C187 O194 1.252 1_565 S
O188 C187 1.196 1_545 S
O189 C182 1.185 . S
O189 Zn185 2.086 . S
C190 O186 1.278 . S
C190 O191 1.211 . S
O191 C190 1.211 . S
C192 O184 1.284 . S
C192 O193 1.273 . S
O193 C192 1.273 . S
O194 Zn185 2.010 . S
O194 C187 1.252 1_545 S
C195 O196 1.160 . S
C195 O202 1.185 . S
O196 C195 1.160 . S
O197 Zn198 1.899 . S
O197 C205 1.284 . S
Zn198 O197 1.899 . S
Zn198 O199 2.032 . S
Zn198 O202 2.086 . S
Zn198 O207 1.977 . S
O199 Zn198 2.032 . S
O199 C203 1.278 1_655 S
C200 O201 1.203 . S
C200 O207 1.267 . S
O201 C200 1.203 . S
O202 C195 1.185 . S
O202 Zn198 2.086 . S
C203 O199 1.278 1_455 S
C203 O204 1.211 . S
O204 C203 1.211 . S
C205 O197 1.284 . S
C205 O206 1.273 . S
O206 C205 1.273 . S
O207 Zn198 1.977 . S
O207 C200 1.267 . S
C208 O209 1.160 . S
C208 O215 1.185 . S
O209 C208 1.160 . S
O210 Zn211 1.899 . S
O210 C218 1.284 . S
Zn211 O210 1.899 . S
Zn211 O212 2.032 . S
Zn211 O215 2.086 . S
Zn211 O220 1.977 1_554 S
O212 Zn211 2.032 . S
O212 C216 1.278 . S
C213 O214 1.203 . S
C213 O220 1.267 . S
O214 C213 1.203 . S
O215 C208 1.185 . S
O215 Zn211 2.086 . S
C216 O212 1.278 . S
C216 O217 1.211 1_554 S
O217 C216 1.211 1_556 S
C218 O210 1.284 . S
C218 O219 1.273 . S
O219 C218 1.273 . S
O220 Zn211 1.977 1_556 S
O220 C213 1.267 . S
C221 O222 1.160 . S
C221 O228 1.185 . S
O222 C221 1.160 . S
O223 Zn224 1.899 . S
O223 C231 1.284 . S
Zn224 O223 1.899 . S
Zn224 O225 2.032 . S
Zn224 O228 2.086 . S
Zn224 O233 1.977 1_556 S
O225 Zn224 2.032 . S
O225 C229 1.278 . S
C226 O227 1.203 . S
C226 O233 1.267 . S
O227 C226 1.203 . S
O228 C221 1.185 . S
O228 Zn224 2.086 . S
C229 O225 1.278 . S
C229 O230 1.211 1_556 S
O230 C229 1.211 1_554 S
C231 O223 1.284 . S
C231 O232 1.273 . S
O232 C231 1.273 . S
O233 Zn224 1.977 1_554 S
O233 C226 1.267 . S
C234 O235 1.160 . S
C234 O241 1.185 . S
O235 C234 1.160 . S
O236 Zn237 1.899 . S
O236 C244 1.284 . S
Zn237 O236 1.899 . S
Zn237 O238 2.032 . S
Zn237 O241 2.086 . S
Zn237 O246 2.010 . S
O238 Zn237 2.032 . S
O238 C242 1.278 . S
C239 O240 1.196 1_554 S
C239 O246 1.252 1_554 S
O240 C239 1.196 1_556 S
O241 C234 1.185 . S
O241 Zn237 2.086 . S
C242 O238 1.278 . S
C242 O243 1.211 . S
O243 C242 1.211 . S
C244 O236 1.284 . S
C244 O245 1.273 . S
O245 C244 1.273 . S
O246 Zn237 2.010 . S
O246 C239 1.252 1_556 S
C247 O248 1.160 . S
C247 O254 1.185 . S
O248 C247 1.160 . S
O249 Zn250 1.899 . S
O249 C257 1.284 . S
Zn250 O249 1.899 . S
Zn250 O251 2.032 . S
Zn250 O254 2.086 . S
Zn250 O259 1.977 1_556 S
O251 Zn250 2.032 . S
O251 C255 1.278 . S
C252 O253 1.203 . S
C252 O259 1.267 . S
O253 C252 1.203 . S
O254 C247 1.185 . S
O254 Zn250 2.086 . S
C255 O251 1.278 . S
C255 O256 1.211 1_556 S
O256 C255 1.211 1_554 S
C257 O249 1.284 . S
C257 O258 1.273 . S
O258 C257 1.273 . S
O259 Zn250 1.977 1_554 S
O259 C252 1.267 . S
C260 O261 1.160 . S
C260 O267 1.185 . S
O261 C260 1.160 . S
O262 Zn263 1.899 . S
O262 C270 1.284 . S
Zn263 O262 1.899 . S
Zn263 O264 2.032 . S
Zn263 O267 2.086 . S
Zn263 O272 2.010 . S
O264 Zn263 2.032 . S
O264 C268 1.278 . S
C265 O266 1.196 1_554 S
C265 O272 1.252 1_554 S
O266 C265 1.196 1_556 S
O267 C260 1.185 . S
O267 Zn263 2.086 . S
C268 O264 1.278 . S
C268 O269 1.211 . S
O269 C268 1.211 . S
C270 O262 1.284 . S
C270 O271 1.273 . S
O271 C270 1.273 . S
O272 Zn263 2.010 . S
O272 C265 1.252 1_556 S
C273 O274 1.160 . S
C273 O280 1.185 . S
O274 C273 1.160 . S
O275 Zn276 1.899 . S
O275 C283 1.284 . S
Zn276 O275 1.899 . S
Zn276 O277 2.032 . S
Zn276 O280 2.086 . S
Zn276 O285 1.977 1_554 S
O277 Zn276 2.032 . S
O277 C281 1.278 . S
C278 O279 1.203 . S
C278 O285 1.267 . S
O279 C278 1.203 . S
O280 C273 1.185 . S
O280 Zn276 2.086 . S
C281 O277 1.278 . S
C281 O282 1.211 1_554 S
O282 C281 1.211 1_556 S
C283 O275 1.284 . S
C283 O284 1.273 . S
O284 C283 1.273 . S
O285 Zn276 1.977 1_556 S
O285 C278 1.267 . S
C286 O287 1.160 . S
C286 O293 1.185 . S
O287 C286 1.160 . S
O288 Zn289 1.899 . S
O288 C296 1.284 . S
Zn289 O288 1.899 . S
Zn289 O290 2.032 . S
Zn289 O293 2.086 . S
Zn289 O298 2.010 . S
O290 Zn289 2.032 . S
O290 C294 1.278 . S
C291 O292 1.196 1_556 S
C291 O298 1.252 1_556 S
O292 C291 1.196 1_554 S
O293 C286 1.185 . S
O293 Zn289 2.086 . S
C294 O290 1.278 . S
C294 O295 1.211 . S
O295 C294 1.211 . S
C296 O288 1.284 . S
C296 O297 1.273 . S
O297 C296 1.273 . S
O298 Zn289 2.010 . S
O298 C291 1.252 1_554 S
C299 O300 1.160 . S
C299 O306 1.185 . S
O300 C299 1.160 . S
O301 Zn302 1.899 . S
O301 C309 1.284 . S
Zn302 O301 1.899 . S
Zn302 O303 2.032 . S
Zn302 O306 2.086 . S
Zn302 O311 2.010 . S
O303 Zn302 2.032 . S
O303 C307 1.278 . S
C304 O305 1.196 1_556 S
C304 O311 1.252 1_556 S
O305 C304 1.196 1_554 S
O306 C299 1.185 . S
O306 Zn302 2.086 . S
C307 O303 1.278 . S
C307 O308 1.211 . S
O308 C307 1.211 . S
C309 O301 1.284 . S
C309 O310 1.273 . S
O310 C309 1.273 . S
O311 Zn302 2.010 . S
O311 C304 1.252 1_554 S
C312 O313 1.160 . S
C312 O319 1.185 . S
O313 C312 1.160 . S
O314 Zn315 1.899 . S
O314 C322 1.284 . S
Zn315 O314 1.899 . S
Zn315 O316 2.032 . S
Zn315 O319 2.086 . S
Zn315 O324 1.977 . S
O316 Zn315 2.032 . S
O316 C320 1.278 . S
C317 O318 1.203 . S
C317 O324 1.267 . S
O318 C317 1.203 . S
O319 C312 1.185 . S
O319 Zn315 2.086 . S
C320 O316 1.278 . S
C320 O321 1.211 . S
O321 C320 1.211 . S
C322 O314 1.284 . S
C322 O323 1.273 . S
O323 C322 1.273 . S
O324 Zn315 1.977 . S
O324 C317 1.267 . S
C325 O326 1.160 . S
C325 O332 1.185 . S
O326 C325 1.160 . S
O327 Zn328 1.899 . S
O327 C335 1.284 . S
Zn328 O327 1.899 . S
Zn328 O329 2.032 . S
Zn328 O332 2.086 . S
Zn328 O337 1.977 . S
O329 Zn328 2.032 . S
O329 C333 1.278 . S
C330 O331 1.203 . S
C330 O337 1.267 . S
O331 C330 1.203 . S
O332 C325 1.185 . S
O332 Zn328 2.086 . S
C333 O329 1.278 . S
C333 O334 1.211 . S
O334 C333 1.211 . S
C335 O327 1.284 . S
C335 O336 1.273 . S
O336 C335 1.273 . S
O337 Zn328 1.977 . S
O337 C330 1.267 . S
C338 O339 1.160 . S
C338 O345 1.185 . S
O339 C338 1.160 . S
O340 Zn341 1.899 . S
O340 C348 1.284 . S
Zn341 O340 1.899 . S
Zn341 O342 2.032 . S
Zn341 O345 2.086 . S
Zn341 O350 1.977 . S
O342 Zn341 2.032 . S
O342 C346 1.278 . S
C343 O344 1.203 . S
C343 O350 1.267 . S
O344 C343 1.203 . S
O345 C338 1.185 . S
O345 Zn341 2.086 . S
C346 O342 1.278 . S
C346 O347 1.211 . S
O347 C346 1.211 . S
C348 O340 1.284 . S
C348 O349 1.273 . S
O349 C348 1.273 . S
O350 Zn341 1.977 . S
O350 C343 1.267 . S
C351 O352 1.160 . S
C351 O358 1.185 . S
O352 C351 1.160 . S
O353 Zn354 1.899 . S
O353 C361 1.284 . S
Zn354 O353 1.899 . S
Zn354 O355 2.032 . S
Zn354 O358 2.086 . S
Zn354 O363 1.977 . S
O355 Zn354 2.032 . S
O355 C359 1.278 . S
C356 O357 1.203 . S
C356 O363 1.267 . S
O357 C356 1.203 . S
O358 C351 1.185 . S
O358 Zn354 2.086 . S
C359 O355 1.278 . S
C359 O360 1.211 . S
O360 C359 1.211 . S
C361 O353 1.284 . S
C361 O362 1.273 . S
O362 C361 1.273 . S
O363 Zn354 1.977 . S
O363 C356 1.267 . S
C364 O365 1.160 . S
C364 O371 1.185 . S
O365 C364 1.160 . S
O366 Zn367 1.899 . S
O366 C374 1.284 . S
Zn367 O366 1.899 . S
Zn367 O368 2.032 . S
Zn367 O371 2.086 . S
Zn367 O376 1.977 . S
O368 Zn367 2.032 . S
O368 C372 1.278 . S
C369 O370 1.203 . S
C369 O376 1.267 . S
O370 C369 1.203 . S
O371 C364 1.185 . S
O371 Zn367 2.086 . S
C372 O368 1.278 . S
C372 O373 1.211 . S
O373 C372 1.211 . S
C374 O366 1.284 . S
C374 O375 1.273 . S
O375 C374 1.273 . S
O376 Zn367 1.977 . S
O376 C369 1.267 . S
C377 O378 1.160 . S
C377 O384 1.185 . S
O378 C377 1.160 . S
O379 Zn380 1.899 . S
O379 C387 1.284 . S
Zn380 O379 1.899 . S
Zn380 O381 2.032 . S
Zn380 O384 2.086 . S
Zn380 O389 1.977 . S
O381 Zn380 2.032 . S
O381 C385 1.278 . S
C382 O383 1.203 . S
C382 O389 1.267 . S
O383 C382 1.203 . S
O384 C377 1.185 . S
O384 Zn380 2.086 . S
C385 O381 1.278 . S
C385 O386 1.211 . S
O386 C385 1.211 . S
C387 O379 1.284 . S
C387 O388 1.273 . S
O388 C387 1.273 . S
O389 Zn380 1.977 . S
O389 C382 1.267 . S
C390 O391 1.160 . S
C390 O397 1.185 . S
O391 C390 1.160 . S
O392 Zn393 1.899 . S
O392 C400 1.284 . S
Zn393 O392 1.899 . S
Zn393 O394 2.032 . S
Zn393 O397 2.086 . S
Zn393 O402 1.977 . S
O394 Zn393 2.032 . S
O394 C398 1.278 . S
C395 O396 1.203 . S
C395 O402 1.267 . S
O396 C395 1.203 . S
O397 C390 1.185 . S
O397 Zn393 2.086 . S
C398 O394 1.278 . S
C398 O399 1.211 . S
O399 C398 1.211 . S
C400 O392 1.284 . S
C400 O401 1.273 . S
O401 C400 1.273 . S
O402 Zn393 1.977 . S
O402 C395 1.267 . S
C403 O404 1.160 . S
C403 O410 1.185 . S
O404 C403 1.160 . S
O405 Zn406 1.899 . S
O405 C413 1.284 . S
Zn406 O405 1.899 . S
Zn406 O407 2.032 . S
Zn406 O410 2.086 . S
Zn406 O415 1.977 . S
O407 Zn406 2.032 . S
O407 C411 1.278 . S
C408 O409 1.203 . S
C408 O415 1.267 . S
O409 C408 1.203 . S
O410 C403 1.185 . S
O410 Zn406 2.086 . S
C411 O407 1.278 . S
C411 O412 1.211 . S
O412 C411 1.211 . S
C413 O405 1.284 . S
C413 O414 1.273 . S
O414 C413 1.273 . S
O415 Zn406 1.977 . S
O415 C408 1.267 . S
C416 O417 1.160 . S
C416 O423 1.185 . S
O417 C416 1.160 . S
O418 Zn419 1.899 . S
O418 C426 1.284 . S
Zn419 O418 1.899 . S
Zn419 O420 2.032 . S
Zn419 O423 2.086 . S
Zn419 O428 1.977 . S
O420 Zn419 2.032 . S
O420 C424 1.278 . S
C421 O422 1.203 . S
C421 O428 1.267 . S
O422 C421 1.203 . S
O423 C416 1.185 . S
O423 Zn419 2.086 . S
C424 O420 1.278 . S
C424 O425 1.211 . S
O425 C424 1.211 . S
C426 O418 1.284 . S
C426 O427 1.273 . S
O427 C426 1.273 . S
O428 Zn419 1.977 . S
O428 C421 1.267 . S
C429 O430 1.160 . S
C429 O436 1.185 . S
O430 C429 1.160 . S
O431 Zn432 1.899 . S
O431 C439 1.284 . S
Zn432 O431 1.899 . S
Zn432 O433 2.032 . S
Zn432 O436 2.086 . S
Zn432 O441 1.977 . S
O433 Zn432 2.032 . S
O433 C437 1.278 . S
C434 O435 1.203 . S
C434 O441 1.267 . S
O435 C434 1.203 . S
O436 C429 1.185 . S
O436 Zn432 2.086 . S
C437 O433 1.278 . S
C437 O438 1.211 . S
O438 C437 1.211 . S
C439 O431 1.284 . S
C439 O440 1.273 . S
O440 C439 1.273 . S
O441 Zn432 1.977 . S
O441 C434 1.267 . S
C442 O443 1.160 . S
C442 O449 1.185 . S
O443 C442 1.160 . S
O444 Zn445 1.899 . S
O444 C452 1.284 . S
Zn445 O444 1.899 . S
Zn445 O446 2.032 . S
Zn445 O449 2.086 . S
Zn445 O454 1.977 . S
O446 Zn445 2.032 . S
O446 C450 1.278 . S
C447 O448 1.203 . S
C447 O454 1.267 . S
O448 C447 1.203 . S
O449 C442 1.185 . S
O449 Zn445 2.086 . S
C450 O446 1.278 . S
C450 O451 1.211 . S
O451 C450 1.211 . S
C452 O444 1.284 . S
C452 O453 1.273 . S
O453 C452 1.273 . S
O454 Zn445 1.977 . S
O454 C447 1.267 . S
C455 O456 1.160 . S
C455 O462 1.185 . S
O456 C455 1.160 . S
O457 Zn458 1.899 . S
O457 C465 1.284 . S
Zn458 O457 1.899 . S
Zn458 O459 2.032 . S
Zn458 O462 2.086 . S
Zn458 O467 1.977 . S
O459 Zn458 2.032 . S
O459 C463 1.278 . S
C460 O461 1.203 . S
C460 O467 1.267 . S
O461 C460 1.203 . S
O462 C455 1.185 . S
O462 Zn458 2.086 . S
C463 O459 1.278 . S
C463 O464 1.211 . S
O464 C463 1.211 . S
C465 O457 1.284 . S
C465 O466 1.273 . S
O466 C465 1.273 . S
O467 Zn458 1.977 . S
O467 C460 1.267 . S
C468 O469 1.160 . S
C468 O475 1.185 . S
O469 C468 1.160 . S
O470 Zn471 1.899 . S
O470 C478 1.284 . S
Zn471 O470 1.899 . S
Zn471 O472 2.032 . S
Zn471 O475 2.086 . S
Zn471 O480 1.977 . S
O472 Zn471 2.032 . S
O472 C476 1.278 . S
C473 O474 1.203 . S
C473 O480 1.267 . S
O474 C473 1.203 . S
O475 C468 1.185 . S
O475 Zn471 2.086 . S
C476 O472 1.278 . S
C476 O477 1.211 . S
O477 C476 1.211 . S
C478 O470 1.284 . S
C478 O479 1.273 . S
O479 C478 1.273 . S
O480 Zn471 1.977 . S
O480 C473 1.267 . S
C481 O482 1.160 . S
C481 O488 1.185 . S
O482 C481 1.160 . S
O483 Zn484 1.899 . S
O483 C491 1.284 . S
Zn484 O483 1.899 . S
Zn484 O485 2.032 . S
Zn484 O488 2.086 . S
Zn484 O493 1.977 . S
O485 Zn484 2.032 . S
O485 C489 1.278 . S
C486 O487 1.203 . S
C486 O493 1.267 . S
O487 C486 1.203 . S
O488 C481 1.185 . S
O488 Zn484 2.086 . S
C489 O485 1.278 . S
C489 O490 1.211 . S
O490 C489 1.211 . S
C491 O483 1.284 . S
C491 O492 1.273 . S
O492 C491 1.273 . S
O493 Zn484 1.977 . S
O493 C486 1.267 . S
C494 O495 1.160 . S
C494 O501 1.185 . S
O495 C494 1.160 . S
O496 Zn497 1.899 . S
O496 C504 1.284 . S
Zn497 O496 1.899 . S
Zn497 O498 2.032 . S
Zn497 O501 2.086 . S
Zn497 O506 1.977 . S
O498 Zn497 2.032 . S
O498 C502 1.278 . S
C499 O500 1.203 . S
C499 O506 1.267 . S
O500 C499 1.203 . S
O501 C494 1.185 . S
O501 Zn497 2.086 . S
C502 O498 1.278 . S
C502 O503 1.211 . S
O503 C502 1.211 . S
C504 O496 1.284 . S
C504 O505 1.273 . S
O505 C504 1.273 . S
O506 Zn497 1.977 . S
O506 C499 1.267 . S
C507 O508 1.160 . S
C507 O514 1.185 . S
O508 C507 1.160 . S
O509 Zn510 1.899 . S
O509 C517 1.284 . S
Zn510 O509 1.899 . S
Zn510 O511 2.032 . S
Zn510 O514 2.086 . S
Zn510 O519 1.977 . S
O511 Zn510 2.032 . S
O511 C515 1.278 . S
C512 O513 1.203 . S
C512 O519 1.267 . S
O513 C512 1.203 . S
O514 C507 1.185 . S
O514 Zn510 2.086 . S
C515 O511 1.278 . S
C515 O516 1.211 . S
O516 C515 1.211 . S
C517 O509 1.284 . S
C517 O518 1.273 . S
O518 C517 1.273 . S
O519 Zn510 1.977 . S
O519 C512 1.267 . S
C520 O521 1.160 . S
C520 O527 1.185 . S
O521 C520 1.160 . S
O522 Zn523 1.899 . S
O522 C530 1.284 . S
Zn523 O522 1.899 . S
Zn523 O524 2.032 . S
Zn523 O527 2.086 . S
Zn523 O532 1.977 . S
O524 Zn523 2.032 . S
O524 C528 1.278 . S
C525 O526 1.203 . S
C525 O532 1.267 . S
O526 C525 1.203 . S
O527 C520 1.185 . S
O527 Zn523 2.086 . S
C528 O524 1.278 . S
C528 O529 1.211 . S
O529 C528 1.211 . S
C530 O522 1.284 . S
C530 O531 1.273 . S
O531 C530 1.273 . S
O532 Zn523 1.977 . S
O532 C525 1.267 . S
C533 O534 1.160 . S
C533 O540 1.185 . S
O534 C533 1.160 . S
O535 Zn536 1.899 . S
O535 C543 1.284 . S
Zn536 O535 1.899 . S
Zn536 O537 2.032 . S
Zn536 O540 2.086 . S
Zn536 O545 1.977 . S
O537 Zn536 2.032 . S
O537 C541 1.278 . S
C538 O539 1.203 . S
C538 O545 1.267 . S
O539 C538 1.203 . S
O540 C533 1.185 . S
O540 Zn536 2.086 . S
C541 O537 1.278 . S
C541 O542 1.211 . S
O542 C541 1.211 . S
C543 O535 1.284 . S
C543 O544 1.273 . S
O544 C543 1.273 . S
O545 Zn536 1.977 . S
O545 C538 1.267 . S
C546 O547 1.160 . S
C546 O553 1.185 . S
O547 C546 1.160 . S
O548 Zn549 1.899 . S
O548 C556 1.284 . S
Zn549 O548 1.899 . S
Zn549 O550 2.032 . S
Zn549 O553 2.086 . S
Zn549 O558 1.977 . S
O550 Zn549 2.032 . S
O550 C554 1.278 . S
C551 O552 1.203 . S
C551 O558 1.267 . S
O552 C551 1.203 . S
O553 C546 1.185 . S
O553 Zn549 2.086 . S
C554 O550 1.278 . S
C554 O555 1.211 . S
O555 C554 1.211 . S
C556 O548 1.284 . S
C556 O557 1.273 . S
O557 C556 1.273 . S
O558 Zn549 1.977 . S
O558 C551 1.267 . S
C559 O560 1.160 . S
C559 O566 1.185 . S
O560 C559 1.160 . S
O561 Zn562 1.899 . S
O561 C569 1.284 . S
Zn562 O561 1.899 . S
Zn562 O563 2.032 . S
Zn562 O566 2.086 . S
Zn562 O571 1.977 . S
O563 Zn562 2.032 . S
O563 C567 1.278 . S
C564 O565 1.203 . S
C564 O571 1.267 . S
O565 C564 1.203 . S
O566 C559 1.185 . S
O566 Zn562 2.086 . S
C567 O563 1.278 . S
C567 O568 1.211 . S
O568 C567 1.211 . S
C569 O561 1.284 . S
C569 O570 1.273 . S
O570 C569 1.273 . S
O571 Zn562 1.977 . S
O571 C564 1.267 . S
C572 O573 1.160 . S
C572 O579 1.185 . S
O573 C572 1.160 . S
O574 Zn575 1.899 . S
O574 C582 1.284 . S
Zn575 O574 1.899 . S
Zn575 O576 2.032 . S
Zn575 O579 2.086 . S
Zn575 O584 1.977 . S
O576 Zn575 2.032 . S
O576 C580 1.278 . S
C577 O578 1.203 . S
C577 O584 1.267 . S
O578 C577 1.203 . S
O579 C572 1.185 . S
O579 Zn575 2.086 . S
C580 O576 1.278 . S
C580 O581 1.211 . S
O581 C580 1.211 . S
C582 O574 1.284 . S
C582 O583 1.273 . S
O583 C582 1.273 . S
O584 Zn575 1.977 . S
O584 C577 1.267 . S
C585 O586 1.160 . S
C585 O592 1.185 . S
O586 C585 1.160 . S
O587 Zn588 1.899 . S
O587 C595 1.284 . S
Zn588 O587 1.899 . S
Zn588 O589 2.032 . S
Zn588 O592 2.086 . S
Zn588 O597 1.977 . S
O589 Zn588 2.032 . S
O589 C593 1.278 . S
C590 O591 1.203 . S
C590 O597 1.267 . S
O591 C590 1.203 . S
O592 C585 1.185 . S
O592 Zn588 2.086 . S
C593 O589 1.278 . S
C593 O594 1.211 . S
O594 C593 1.211 . S
C595 O587 1.284 . S
C595 O596 1.273 . S
O596 C595 1.273 . S
O597 Zn588 1.977 . S
O597 C590 1.267 . S
C598 O599 1.160 . S
C598 O605 1.185 . S
O599 C598 1.160 . S
O600 Zn601 1.899 . S
O600 C608 1.284 . S
Zn601 O600 1.899 . S
Zn601 O602 2.032 . S
Zn601 O605 2.086 . S
Zn601 O610 1.977 . S
O602 Zn601 2.032 . S
O602 C606 1.278 . S
C603 O604 1.203 . S
C603 O610 1.267 . S
O604 C603 1.203 . S
O605 C598 1.185 . S
O605 Zn601 2.086 . S
C606 O602 1.278 . S
C606 O607 1.211 . S
O607 C606 1.211 . S
C608 O600 1.284 . S
C608 O609 1.273 . S
O609 C608 1.273 . S
O610 Zn601 1.977 . S
O610 C603 1.267 . S
C611 O612 1.160 . S
C611 O618 1.185 . S
O612 C611 1.160 . S
O613 Zn614 1.899 . S
O613 C621 1.284 . S
Zn614 O613 1.899 . S
Zn614 O615 2.032 . S
Zn614 O618 2.086 . S
Zn614 O623 1.977 . S
O615 Zn614 2.032 . S
O615 C619 1.278 . S
C616 O617 1.203 . S
C616 O623 1.267 . S
O617 C616 1.203 . S
O618 C611 1.185 . S
O618 Zn614 2.086 . S
C619 O615 1.278 . S
C619 O620 1.211 . S
O620 C619 1.211 . S
C621 O613 1.284 . S
C621 O622 1.273 . S
O622 C621 1.273 . S
O623 Zn614 1.977 . S
O623 C616 1.267 . S
H624 C632 0.950 . S
H625 C637 0.950 . S
H626 C634 0.950 . S
H627 C636 0.950 . S
H628 C638 0.950 . S
H629 C640 0.950 . S
H630 C642 0.950 . S
H631 C643 0.950 . S
C632 H624 0.950 . S
C632 C633 1.386 . S
C632 C634 1.391 . S
C633 C632 1.386 . S
C633 C637 1.393 . S
C634 H626 0.950 . S
C634 C632 1.391 . S
C634 C635 1.400 . S
C635 C634 1.400 . S
C635 C636 1.398 . S
C635 C641 1.491 . S
C636 H627 0.950 . S
C636 C635 1.398 . S
C636 C637 1.391 . S
C637 H625 0.950 . S
C637 C633 1.393 . S
C637 C636 1.391 . S
C638 H628 0.950 . S
C638 C639 1.386 . S
C638 C640 1.391 . S
C639 C638 1.386 . S
C639 C643 1.393 . S
C640 H629 0.950 . S
C640 C638 1.391 . S
C640 C641 1.400 . S
C641 C635 1.491 . S
C641 C640 1.400 . S
C641 C642 1.398 . S
C642 H630 0.950 . S
C642 C641 1.398 . S
C642 C643 1.391 . S
C643 H631 0.950 . S
C643 C639 1.393 . S
C643 C642 1.391 . S
H644 C652 0.950 . S
H645 C657 0.950 . S
H646 C654 0.950 . S
H647 C656 0.950 . S
H648 C658 0.950 . S
H649 C660 0.950 . S
H650 C662 0.950 . S
H651 C663 0.950 . S
C652 H644 0.950 . S
C652 C653 1.386 . S
C652 C654 1.391 . S
C653 C652 1.386 . S
C653 C657 1.393 . S
C654 H646 0.950 . S
C654 C652 1.391 . S
C654 C655 1.400 . S
C655 C654 1.400 . S
C655 C656 1.398 . S
C655 C661 1.491 . S
C656 H647 0.950 . S
C656 C655 1.398 . S
C656 C657 1.391 . S
C657 H645 0.950 . S
C657 C653 1.393 . S
C657 C656 1.391 . S
C658 H648 0.950 . S
C658 C659 1.386 . S
C658 C660 1.391 . S
C659 C658 1.386 . S
C659 C663 1.393 . S
C660 H649 0.950 . S
C660 C658 1.391 . S
C660 C661 1.400 . S
C661 C655 1.491 . S
C661 C660 1.400 . S
C661 C662 1.398 . S
C662 H650 0.950 . S
C662 C661 1.398 . S
C662 C663 1.391 . S
C663 H651 0.950 . S
C663 C659 1.393 . S
C663 C662 1.391 . S
H664 C672 0.950 . S
H665 C677 0.950 . S
H666 C674 0.950 . S
H667 C676 0.950 . S
H668 C678 0.950 . S
H669 C680 0.950 . S
H670 C682 0.950 . S
H671 C683 0.950 . S
C672 H664 0.950 . S
C672 C673 1.386 . S
C672 C674 1.391 . S
C673 C672 1.386 . S
C673 C677 1.393 . S
C674 H666 0.950 . S
C674 C672 1.391 . S
C674 C675 1.400 . S
C675 C674 1.400 . S
C675 C676 1.398 . S
C675 C681 1.491 . S
C676 H667 0.950 . S
C676 C675 1.398 . S
C676 C677 1.391 . S
C677 H665 0.950 . S
C677 C673 1.393 . S
C677 C676 1.391 . S
C678 H668 0.950 . S
C678 C679 1.386 . S
C678 C680 1.391 . S
C679 C678 1.386 . S
C679 C683 1.393 . S
C680 H669 0.950 . S
C680 C678 1.391 . S
C680 C681 1.400 . S
C681 C675 1.491 . S
C681 C680 1.400 . S
C681 C682 1.398 . S
C682 H670 0.950 . S
C682 C681 1.398 . S
C682 C683 1.391 . S
C683 H671 0.950 . S
C683 C679 1.393 . S
C683 C682 1.391 . S
H684 C692 0.950 . S
H685 C697 0.950 . S
H686 C694 0.950 . S
H687 C696 0.950 . S
H688 C698 0.950 . S
H689 C700 0.950 . S
H690 C702 0.950 . S
H691 C703 0.950 . S
C692 H684 0.950 . S
C692 C693 1.386 . S
C692 C694 1.391 . S
C693 C692 1.386 . S
C693 C697 1.393 . S
C694 H686 0.950 . S
C694 C692 1.391 . S
C694 C695 1.400 . S
C695 C694 1.400 . S
C695 C696 1.398 . S
C695 C701 1.491 . S
C696 H687 0.950 . S
C696 C695 1.398 . S
C696 C697 1.391 . S
C697 H685 0.950 . S
C697 C693 1.393 . S
C697 C696 1.391 . S
C698 H688 0.950 . S
C698 C699 1.386 . S
C698 C700 1.391 . S
C699 C698 1.386 . S
C699 C703 1.393 . S
C700 H689 0.950 . S
C700 C698 1.391 . S
C700 C701 1.400 . S
C701 C695 1.491 . S
C701 C700 1.400 . S
C701 C702 1.398 . S
C702 H690 0.950 . S
C702 C701 1.398 . S
C702 C703 1.391 . S
C703 H691 0.950 . S
C703 C699 1.393 . S
C703 C702 1.391 . S
H704 C712 0.950 . S
H705 C717 0.950 . S
H706 C714 0.950 . S
H707 C716 0.950 . S
H708 C718 0.950 . S
H709 C720 0.950 . S
H710 C722 0.950 . S
H711 C723 0.950 . S
C712 H704 0.950 . S
C712 C713 1.386 . S
C712 C714 1.391 . S
C713 C712 1.386 . S
C713 C717 1.393 . S
C714 H706 0.950 . S
C714 C712 1.391 . S
C714 C715 1.400 . S
C715 C714 1.400 . S
C715 C716 1.398 . S
C715 C721 1.491 . S
C716 H707 0.950 . S
C716 C715 1.398 . S
C716 C717 1.391 . S
C717 H705 0.950 . S
C717 C713 1.393 . S
C717 C716 1.391 . S
C718 H708 0.950 . S
C718 C719 1.386 . S
C718 C720 1.391 . S
C719 C718 1.386 . S
C719 C723 1.393 . S
C720 H709 0.950 . S
C720 C718 1.391 . S
C720 C721 1.400 . S
C721 C715 1.491 . S
C721 C720 1.400 . S
C721 C722 1.398 . S
C722 H710 0.950 . S
C722 C721 1.398 . S
C722 C723 1.391 . S
C723 H711 0.950 . S
C723 C719 1.393 . S
C723 C722 1.391 . S
H724 C732 0.950 . S
H725 C737 0.950 . S
H726 C734 0.950 . S
H727 C736 0.950 . S
H728 C738 0.950 . S
H729 C740 0.950 . S
H730 C742 0.950 . S
H731 C743 0.950 . S
C732 H724 0.950 . S
C732 C733 1.386 . S
C732 C734 1.391 . S
C733 C732 1.386 . S
C733 C737 1.393 . S
C734 H726 0.950 . S
C734 C732 1.391 . S
C734 C735 1.400 . S
C735 C734 1.400 . S
C735 C736 1.398 . S
C735 C741 1.491 . S
C736 H727 0.950 . S
C736 C735 1.398 . S
C736 C737 1.391 . S
C737 H725 0.950 . S
C737 C733 1.393 . S
C737 C736 1.391 . S
C738 H728 0.950 . S
C738 C739 1.386 . S
C738 C740 1.391 . S
C739 C738 1.386 . S
C739 C743 1.393 . S
C740 H729 0.950 . S
C740 C738 1.391 . S
C740 C741 1.400 . S
C741 C735 1.491 . S
C741 C740 1.400 . S
C741 C742 1.398 . S
C742 H730 0.950 . S
C742 C741 1.398 . S
C742 C743 1.391 . S
C743 H731 0.950 . S
C743 C739 1.393 . S
C743 C742 1.391 . S
H744 C752 0.950 . S
H745 C757 0.950 . S
H746 C754 0.950 . S
H747 C756 0.950 . S
H748 C758 0.950 . S
H749 C760 0.950 . S
H750 C762 0.950 . S
H751 C763 0.950 . S
C752 H744 0.950 . S
C752 C753 1.386 . S
C752 C754 1.391 . S
C753 C752 1.386 . S
C753 C757 1.393 . S
C754 H746 0.950 . S
C754 C752 1.391 . S
C754 C755 1.400 . S
C755 C754 1.400 . S
C755 C756 1.398 . S
C755 C761 1.491 . S
C756 H747 0.950 . S
C756 C755 1.398 . S
C756 C757 1.391 . S
C757 H745 0.950 . S
C757 C753 1.393 . S
C757 C756 1.391 . S
C758 H748 0.950 . S
C758 C759 1.386 . S
C758 C760 1.391 . S
C759 C758 1.386 . S
C759 C763 1.393 . S
C760 H749 0.950 . S
C760 C758 1.391 . S
C760 C761 1.400 . S
C761 C755 1.491 . S
C761 C760 1.400 . S
C761 C762 1.398 . S
C762 H750 0.950 . S
C762 C761 1.398 . S
C762 C763 1.391 . S
C763 H751 0.950 . S
C763 C759 1.393 . S
C763 C762 1.391 . S
H764 C772 0.950 . S
H765 C777 0.950 . S
H766 C774 0.950 . S
H767 C776 0.950 . S
H768 C778 0.950 . S
H769 C780 0.950 . S
H770 C782 0.950 . S
H771 C783 0.950 . S
C772 H764 0.950 . S
C772 C773 1.386 . S
C772 C774 1.391 . S
C773 C772 1.386 . S
C773 C777 1.393 . S
C774 H766 0.950 . S
C774 C772 1.391 . S
C774 C775 1.400 . S
C775 C774 1.400 . S
C775 C776 1.398 . S
C775 C781 1.491 . S
C776 H767 0.950 . S
C776 C775 1.398 . S
C776 C777 1.391 . S
C777 H765 0.950 . S
C777 C773 1.393 . S
C777 C776 1.391 . S
C778 H768 0.950 . S
C778 C779 1.386 . S
C778 C780 1.391 . S
C779 C778 1.386 . S
C779 C783 1.393 . S
C780 H769 0.950 . S
C780 C778 1.391 . S
C780 C781 1.400 . S
C781 C775 1.491 . S
C781 C780 1.400 . S
C781 C782 1.398 . S
C782 H770 0.950 . S
C782 C781 1.398 . S
C782 C783 1.391 . S
C783 H771 0.950 . S
C783 C779 1.393 . S
C783 C782 1.391 . S
H784 C792 0.950 . S
H785 C797 0.950 . S
H786 C794 0.950 . S
H787 C796 0.950 . S
H788 C798 0.950 . S
H789 C800 0.950 . S
H790 C802 0.950 . S
H791 C803 0.950 . S
C792 H784 0.950 . S
C792 C793 1.386 . S
C792 C794 1.391 . S
C793 C792 1.386 . S
C793 C797 1.393 . S
C794 H786 0.950 . S
C794 C792 1.391 . S
C794 C795 1.400 . S
C795 C794 1.400 . S
C795 C796 1.398 . S
C795 C801 1.491 . S
C796 H787 0.950 . S
C796 C795 1.398 . S
C796 C797 1.391 . S
C797 H785 0.950 . S
C797 C793 1.393 . S
C797 C796 1.391 . S
C798 H788 0.950 . S
C798 C799 1.386 . S
C798 C800 1.391 . S
C799 C798 1.386 . S
C799 C803 1.393 . S
C800 H789 0.950 . S
C800 C798 1.391 . S
C800 C801 1.400 . S
C801 C795 1.491 . S
C801 C800 1.400 . S
C801 C802 1.398 . S
C802 H790 0.950 . S
C802 C801 1.398 . S
C802 C803 1.391 . S
C803 H791 0.950 . S
C803 C799 1.393 . S
C803 C802 1.391 . S
H804 C812 0.950 . S
H805 C817 0.950 . S
H806 C814 0.950 . S
H807 C816 0.950 . S
H808 C818 0.950 . S
H809 C820 0.950 . S
H810 C822 0.950 . S
H811 C823 0.950 . S
C812 H804 0.950 . S
C812 C813 1.386 . S
C812 C814 1.391 . S
C813 C812 1.386 . S
C813 C817 1.393 . S
C814 H806 0.950 . S
C814 C812 1.391 . S
C814 C815 1.400 . S
C815 C814 1.400 . S
C815 C816 1.398 . S
C815 C821 1.491 . S
C816 H807 0.950 . S
C816 C815 1.398 . S
C816 C817 1.391 . S
C817 H805 0.950 . S
C817 C813 1.393 . S
C817 C816 1.391 . S
C818 H808 0.950 . S
C818 C819 1.386 . S
C818 C820 1.391 . S
C819 C818 1.386 . S
C819 C823 1.393 . S
C820 H809 0.950 . S
C820 C818 1.391 . S
C820 C821 1.400 . S
C821 C815 1.491 . S
C821 C820 1.400 . S
C821 C822 1.398 . S
C822 H810 0.950 . S
C822 C821 1.398 . S
C822 C823 1.391 . S
C823 H811 0.950 . S
C823 C819 1.393 . S
C823 C822 1.391 . S
H824 C832 0.950 . S
H825 C837 0.950 . S
H826 C834 0.950 . S
H827 C836 0.950 . S
H828 C838 0.950 . S
H829 C840 0.950 . S
H830 C842 0.950 . S
H831 C843 0.950 . S
C832 H824 0.950 . S
C832 C833 1.386 . S
C832 C834 1.391 . S
C833 C832 1.386 . S
C833 C837 1.393 . S
C834 H826 0.950 . S
C834 C832 1.391 . S
C834 C835 1.400 . S
C835 C834 1.400 . S
C835 C836 1.398 . S
C835 C841 1.491 . S
C836 H827 0.950 . S
C836 C835 1.398 . S
C836 C837 1.391 . S
C837 H825 0.950 . S
C837 C833 1.393 . S
C837 C836 1.391 . S
C838 H828 0.950 . S
C838 C839 1.386 . S
C838 C840 1.391 . S
C839 C838 1.386 . S
C839 C843 1.393 . S
C840 H829 0.950 . S
C840 C838 1.391 . S
C840 C841 1.400 . S
C841 C835 1.491 . S
C841 C840 1.400 . S
C841 C842 1.398 . S
C842 H830 0.950 . S
C842 C841 1.398 . S
C842 C843 1.391 . S
C843 H831 0.950 . S
C843 C839 1.393 . S
C843 C842 1.391 . S
H844 C852 0.950 . S
H845 C857 0.950 . S
H846 C854 0.950 . S
H847 C856 0.950 . S
H848 C858 0.950 . S
H849 C860 0.950 . S
H850 C862 0.950 . S
H851 C863 0.950 . S
C852 H844 0.950 . S
C852 C853 1.386 . S
C852 C854 1.391 . S
C853 C852 1.386 . S
C853 C857 1.393 . S
C854 H846 0.950 . S
C854 C852 1.391 . S
C854 C855 1.400 . S
C855 C854 1.400 . S
C855 C856 1.398 . S
C855 C861 1.491 . S
C856 H847 0.950 . S
C856 C855 1.398 . S
C856 C857 1.391 . S
C857 H845 0.950 . S
C857 C853 1.393 . S
C857 C856 1.391 . S
C858 H848 0.950 . S
C858 C859 1.386 . S
C858 C860 1.391 . S
C859 C858 1.386 . S
C859 C863 1.393 . S
C860 H849 0.950 . S
C860 C858 1.391 . S
C860 C861 1.400 . S
C861 C855 1.491 . S
C861 C860 1.400 . S
C861 C862 1.398 . S
C862 H850 0.950 . S
C862 C861 1.398 . S
C862 C863 1.391 . S
C863 H851 0.950 . S
C863 C859 1.393 . S
C863 C862 1.391 . S
H864 C872 0.950 . S
H865 C877 0.950 . S
H866 C874 0.950 . S
H867 C876 0.950 . S
H868 C878 0.950 . S
H869 C880 0.950 . S
H870 C882 0.950 . S
H871 C883 0.950 . S
C872 H864 0.950 . S
C872 C873 1.386 . S
C872 C874 1.391 . S
C873 C872 1.386 . S
C873 C877 1.393 . S
C874 H866 0.950 . S
C874 C872 1.391 . S
C874 C875 1.400 . S
C875 C874 1.400 . S
C875 C876 1.398 . S
C875 C881 1.491 . S
C876 H867 0.950 . S
C876 C875 1.398 . S
C876 C877 1.391 . S
C877 H865 0.950 . S
C877 C873 1.393 . S
C877 C876 1.391 . S
C878 H868 0.950 . S
C878 C879 1.386 . S
C878 C880 1.391 . S
C879 C878 1.386 . S
C879 C883 1.393 . S
C880 H869 0.950 . S
C880 C878 1.391 . S
C880 C881 1.400 . S
C881 C875 1.491 . S
C881 C880 1.400 . S
C881 C882 1.398 . S
C882 H870 0.950 . S
C882 C881 1.398 . S
C882 C883 1.391 . S
C883 H871 0.950 . S
C883 C879 1.393 . S
C883 C882 1.391 . S
H884 C892 0.950 . S
H885 C897 0.950 . S
H886 C894 0.950 . S
H887 C896 0.950 . S
H888 C898 0.950 . S
H889 C900 0.950 . S
H890 C902 0.950 . S
H891 C903 0.950 . S
C892 H884 0.950 . S
C892 C893 1.386 . S
C892 C894 1.391 . S
C893 C892 1.386 . S
C893 C897 1.393 . S
C894 H886 0.950 . S
C894 C892 1.391 . S
C894 C895 1.400 . S
C895 C894 1.400 . S
C895 C896 1.398 . S
C895 C901 1.491 . S
C896 H887 0.950 . S
C896 C895 1.398 . S
C896 C897 1.391 . S
C897 H885 0.950 . S
C897 C893 1.393 . S
C897 C896 1.391 . S
C898 H888 0.950 . S
C898 C899 1.386 . S
C898 C900 1.391 . S
C899 C898 1.386 . S
C899 C903 1.393 . S
C900 H889 0.950 . S
C900 C898 1.391 . S
C900 C901 1.400 . S
C901 C895 1.491 . S
C901 C900 1.400 . S
C901 C902 1.398 . S
C902 H890 0.950 . S
C902 C901 1.398 . S
C902 C903 1.391 . S
C903 H891 0.950 . S
C903 C899 1.393 . S
C903 C902 1.391 . S
H904 C912 0.950 . S
H905 C917 0.950 . S
H906 C914 0.950 . S
H907 C916 0.950 . S
H908 C918 0.950 . S
H909 C920 0.950 . S
H910 C922 0.950 . S
H911 C923 0.950 . S
C912 H904 0.950 . S
C912 C913 1.386 . S
C912 C914 1.391 . S
C913 C912 1.386 . S
C913 C917 1.393 . S
C914 H906 0.950 . S
C914 C912 1.391 . S
C914 C915 1.400 . S
C915 C914 1.400 . S
C915 C916 1.398 . S
C915 C921 1.491 . S
C916 H907 0.950 . S
C916 C915 1.398 . S
C916 C917 1.391 . S
C917 H905 0.950 . S
C917 C913 1.393 . S
C917 C916 1.391 . S
C918 H908 0.950 . S
C918 C919 1.386 . S
C918 C920 1.391 . S
C919 C918 1.386 . S
C919 C923 1.393 . S
C920 H909 0.950 . S
C920 C918 1.391 . S
C920 C921 1.400 . S
C921 C915 1.491 . S
C921 C920 1.400 . S
C921 C922 1.398 . S
C922 H910 0.950 . S
C922 C921 1.398 . S
C922 C923 1.391 . S
C923 H911 0.950 . S
C923 C919 1.393 . S
C923 C922 1.391 . S
H924 C932 0.950 . S
H925 C937 0.950 . S
H926 C934 0.950 . S
H927 C936 0.950 . S
H928 C938 0.950 . S
H929 C940 0.950 . S
H930 C942 0.950 . S
H931 C943 0.950 . S
C932 H924 0.950 . S
C932 C933 1.386 . S
C932 C934 1.391 . S
C933 C932 1.386 . S
C933 C937 1.393 . S
C934 H926 0.950 . S
C934 C932 1.391 . S
C934 C935 1.400 . S
C935 C934 1.400 . S
C935 C936 1.398 . S
C935 C941 1.491 . S
C936 H927 0.950 . S
C936 C935 1.398 . S
C936 C937 1.391 . S
C937 H925 0.950 . S
C937 C933 1.393 . S
C937 C936 1.391 . S
C938 H928 0.950 . S
C938 C939 1.386 . S
C938 C940 1.391 . S
C939 C938 1.386 . S
C939 C943 1.393 . S
C940 H929 0.950 . S
C940 C938 1.391 . S
C940 C941 1.400 . S
C941 C935 1.491 . S
C941 C940 1.400 . S
C941 C942 1.398 . S
C942 H930 0.950 . S
C942 C941 1.398 . S
C942 C943 1.391 . S
C943 H931 0.950 . S
C943 C939 1.393 . S
C943 C942 1.391 . S
H944 C952 0.950 . S
H945 C957 0.950 . S
H946 C954 0.950 . S
H947 C956 0.950 . S
H948 C958 0.950 . S
H949 C960 0.950 . S
H950 C962 0.950 . S
H951 C963 0.950 . S
C952 H944 0.950 . S
C952 C953 1.386 . S
C952 C954 1.391 . S
C953 C952 1.386 . S
C953 C957 1.393 . S
C954 H946 0.950 . S
C954 C952 1.391 . S
C954 C955 1.400 . S
C955 C954 1.400 . S
C955 C956 1.398 . S
C955 C961 1.491 . S
C956 H947 0.950 . S
C956 C955 1.398 . S
C956 C957 1.391 . S
C957 H945 0.950 . S
C957 C953 1.393 . S
C957 C956 1.391 . S
C958 H948 0.950 . S
C958 C959 1.386 . S
C958 C960 1.391 . S
C959 C958 1.386 . S
C959 C963 1.393 . S
C960 H949 0.950 . S
C960 C958 1.391 . S
C960 C961 1.400 . S
C961 C955 1.491 . S
C961 C960 1.400 . S
C961 C962 1.398 . S
C962 H950 0.950 . S
C962 C961 1.398 . S
C962 C963 1.391 . S
C963 H951 0.950 . S
C963 C959 1.393 . S
C963 C962 1.391 . S
H964 C972 0.950 . S
H965 C977 0.950 . S
H966 C974 0.950 . S
H967 C976 0.950 . S
H968 C978 0.950 . S
H969 C980 0.950 . S
H970 C982 0.950 . S
H971 C983 0.950 . S
C972 H964 0.950 . S
C972 C973 1.386 . S
C972 C974 1.391 . S
C973 C972 1.386 . S
C973 C977 1.393 . S
C974 H966 0.950 . S
C974 C972 1.391 . S
C974 C975 1.400 . S
C975 C974 1.400 . S
C975 C976 1.398 . S
C975 C981 1.491 . S
C976 H967 0.950 . S
C976 C975 1.398 . S
C976 C977 1.391 . S
C977 H965 0.950 . S
C977 C973 1.393 . S
C977 C976 1.391 . S
C978 H968 0.950 . S
C978 C979 1.386 . S
C978 C980 1.391 . S
C979 C978 1.386 . S
C979 C983 1.393 . S
C980 H969 0.950 . S
C980 C978 1.391 . S
C980 C981 1.400 . S
C981 C975 1.491 . S
C981 C980 1.400 . S
C981 C982 1.398 . S
C982 H970 0.950 . S
C982 C981 1.398 . S
C982 C983 1.391 . S
C983 H971 0.950 . S
C983 C979 1.393 . S
C983 C982 1.391 . S
H984 C992 0.950 . S
H985 C997 0.950 . S
H986 C994 0.950 . S
H987 C996 0.950 . S
H988 C998 0.950 . S
H989 C1000 0.950 . S
H990 C1002 0.950 . S
H991 C1003 0.950 . S
C992 H984 0.950 . S
C992 C993 1.386 . S
C992 C994 1.391 . S
C993 C992 1.386 . S
C993 C997 1.393 . S
C994 H986 0.950 . S
C994 C992 1.391 . S
C994 C995 1.400 . S
C995 C994 1.400 . S
C995 C996 1.398 . S
C995 C1001 1.491 . S
C996 H987 0.950 . S
C996 C995 1.398 . S
C996 C997 1.391 . S
C997 H985 0.950 . S
C997 C993 1.393 . S
C997 C996 1.391 . S
C998 H988 0.950 . S
C998 C999 1.386 . S
C998 C1000 1.391 . S
C999 C998 1.386 . S
C999 C1003 1.393 . S
C1000 H989 0.950 . S
C1000 C998 1.391 . S
C1000 C1001 1.400 . S
C1001 C995 1.491 . S
C1001 C1000 1.400 . S
C1001 C1002 1.398 . S
C1002 H990 0.950 . S
C1002 C1001 1.398 . S
C1002 C1003 1.391 . S
C1003 H991 0.950 . S
C1003 C999 1.393 . S
C1003 C1002 1.391 . S
H1004 C1012 0.950 . S
H1005 C1017 0.950 . S
H1006 C1014 0.950 . S
H1007 C1016 0.950 . S
H1008 C1018 0.950 . S
H1009 C1020 0.950 . S
H1010 C1022 0.950 . S
H1011 C1023 0.950 . S
C1012 H1004 0.950 . S
C1012 C1013 1.386 . S
C1012 C1014 1.391 . S
C1013 C1012 1.386 . S
C1013 C1017 1.393 . S
C1014 H1006 0.950 . S
C1014 C1012 1.391 . S
C1014 C1015 1.400 . S
C1015 C1014 1.400 . S
C1015 C1016 1.398 . S
C1015 C1021 1.491 . S
C1016 H1007 0.950 . S
C1016 C1015 1.398 . S
C1016 C1017 1.391 . S
C1017 H1005 0.950 . S
C1017 C1013 1.393 . S
C1017 C1016 1.391 . S
C1018 H1008 0.950 . S
C1018 C1019 1.386 . S
C1018 C1020 1.391 . S
C1019 C1018 1.386 . S
C1019 C1023 1.393 . S
C1020 H1009 0.950 . S
C1020 C1018 1.391 . S
C1020 C1021 1.400 . S
C1021 C1015 1.491 . S
C1021 C1020 1.400 . S
C1021 C1022 1.398 . S
C1022 H1010 0.950 . S
C1022 C1021 1.398 . S
C1022 C1023 1.391 . S
C1023 H1011 0.950 . S
C1023 C1019 1.393 . S
C1023 C1022 1.391 . S
H1024 C1032 0.950 . S
H1025 C1037 0.950 . S
H1026 C1034 0.950 . S
H1027 C1036 0.950 . S
H1028 C1038 0.950 . S
H1029 C1040 0.950 . S
H1030 C1042 0.950 . S
H1031 C1043 0.950 . S
C1032 H1024 0.950 . S
C1032 C1033 1.386 . S
C1032 C1034 1.391 . S
C1033 C1032 1.386 . S
C1033 C1037 1.393 . S
C1034 H1026 0.950 . S
C1034 C1032 1.391 . S
C1034 C1035 1.400 . S
C1035 C1034 1.400 . S
C1035 C1036 1.398 . S
C1035 C1041 1.491 . S
C1036 H1027 0.950 . S
C1036 C1035 1.398 . S
C1036 C1037 1.391 . S
C1037 H1025 0.950 . S
C1037 C1033 1.393 . S
C1037 C1036 1.391 . S
C1038 H1028 0.950 . S
C1038 C1039 1.386 . S
C1038 C1040 1.391 . S
C1039 C1038 1.386 . S
C1039 C1043 1.393 . S
C1040 H1029 0.950 . S
C1040 C1038 1.391 . S
C1040 C1041 1.400 . S
C1041 C1035 1.491 . S
C1041 C1040 1.400 . S
C1041 C1042 1.398 . S
C1042 H1030 0.950 . S
C1042 C1041 1.398 . S
C1042 C1043 1.391 . S
C1043 H1031 0.950 . S
C1043 C1039 1.393 . S
C1043 C1042 1.391 . S
H1044 C1052 0.950 . S
H1045 C1057 0.950 . S
H1046 C1054 0.950 . S
H1047 C1056 0.950 . S
H1048 C1058 0.950 . S
H1049 C1060 0.950 . S
H1050 C1062 0.950 . S
H1051 C1063 0.950 . S
C1052 H1044 0.950 . S
C1052 C1053 1.386 . S
C1052 C1054 1.391 . S
C1053 C1052 1.386 . S
C1053 C1057 1.393 . S
C1054 H1046 0.950 . S
C1054 C1052 1.391 . S
C1054 C1055 1.400 . S
C1055 C1054 1.400 . S
C1055 C1056 1.398 . S
C1055 C1061 1.491 . S
C1056 H1047 0.950 . S
C1056 C1055 1.398 . S
C1056 C1057 1.391 . S
C1057 H1045 0.950 . S
C1057 C1053 1.393 . S
C1057 C1056 1.391 . S
C1058 H1048 0.950 . S
C1058 C1059 1.386 . S
C1058 C1060 1.391 . S
C1059 C1058 1.386 . S
C1059 C1063 1.393 . S
C1060 H1049 0.950 . S
C1060 C1058 1.391 . S
C1060 C1061 1.400 . S
C1061 C1055 1.491 . S
C1061 C1060 1.400 . S
C1061 C1062 1.398 . S
C1062 H1050 0.950 . S
C1062 C1061 1.398 . S
C1062 C1063 1.391 . S
C1063 H1051 0.950 . S
C1063 C1059 1.393 . S
C1063 C1062 1.391 . S
H1064 C1072 0.950 . S
H1065 C1077 0.950 . S
H1066 C1074 0.950 . S
H1067 C1076 0.950 . S
H1068 C1078 0.950 . S
H1069 C1080 0.950 . S
H1070 C1082 0.950 . S
H1071 C1083 0.950 . S
C1072 H1064 0.950 . S
C1072 C1073 1.386 . S
C1072 C1074 1.391 . S
C1073 C1072 1.386 . S
C1073 C1077 1.393 . S
C1074 H1066 0.950 . S
C1074 C1072 1.391 . S
C1074 C1075 1.400 . S
C1075 C1074 1.400 . S
C1075 C1076 1.398 . S
C1075 C1081 1.491 . S
C1076 H1067 0.950 . S
C1076 C1075 1.398 . S
C1076 C1077 1.391 . S
C1077 H1065 0.950 . S
C1077 C1073 1.393 . S
C1077 C1076 1.391 . S
C1078 H1068 0.950 . S
C1078 C1079 1.386 . S
C1078 C1080 1.391 . S
C1079 C1078 1.386 . S
C1079 C1083 1.393 . S
C1080 H1069 0.950 . S
C1080 C1078 1.391 . S
C1080 C1081 1.400 . S
C1081 C1075 1.491 . S
C1081 C1080 1.400 . S
C1081 C1082 1.398 . S
C1082 H1070 0.950 . S
C1082 C1081 1.398 . S
C1082 C1083 1.391 . S
C1083 H1071 0.950 . S
C1083 C1079 1.393 . S
C1083 C1082 1.391 . S
H1084 C1092 0.950 . S
H1085 C1097 0.950 . S
H1086 C1094 0.950 . S
H1087 C1096 0.950 . S
H1088 C1098 0.950 . S
H1089 C1100 0.950 . S
H1090 C1102 0.950 . S
H1091 C1103 0.950 . S
C1092 H1084 0.950 . S
C1092 C1093 1.386 . S
C1092 C1094 1.391 . S
C1093 C1092 1.386 . S
C1093 C1097 1.393 . S
C1094 H1086 0.950 . S
C1094 C1092 1.391 . S
C1094 C1095 1.400 . S
C1095 C1094 1.400 . S
C1095 C1096 1.398 . S
C1095 C1101 1.491 . S
C1096 H1087 0.950 . S
C1096 C1095 1.398 . S
C1096 C1097 1.391 . S
C1097 H1085 0.950 . S
C1097 C1093 1.393 . S
C1097 C1096 1.391 . S
C1098 H1088 0.950 . S
C1098 C1099 1.386 . S
C1098 C1100 1.391 . S
C1099 C1098 1.386 . S
C1099 C1103 1.393 . S
C1100 H1089 0.950 . S
C1100 C1098 1.391 . S
C1100 C1101 1.400 . S
C1101 C1095 1.491 . S
C1101 C1100 1.400 . S
C1101 C1102 1.398 . S
C1102 H1090 0.950 . S
C1102 C1101 1.398 . S
C1102 C1103 1.391 . S
C1103 H1091 0.950 . S
C1103 C1099 1.393 . S
C1103 C1102 1.391 . S
H1104 C1112 0.950 . S
H1105 C1117 0.950 . S
H1106 C1114 0.950 . S
H1107 C1116 0.950 . S
H1108 C1118 0.950 . S
H1109 C1120 0.950 . S
H1110 C1122 0.950 . S
H1111 C1123 0.950 . S
C1112 H1104 0.950 . S
C1112 C1113 1.386 1_455 S
C1112 C1114 1.391 . S
C1113 C1112 1.386 1_655 S
C1113 C1117 1.393 . S
C1114 H1106 0.950 . S
C1114 C1112 1.391 . S
C1114 C1115 1.400 1_455 S
C1115 C1114 1.400 1_655 S
C1115 C1116 1.398 . S
C1115 C1121 1.491 1_655 S
C1116 H1107 0.950 . S
C1116 C1115 1.398 . S
C1116 C1117 1.391 . S
C1117 H1105 0.950 . S
C1117 C1113 1.393 . S
C1117 C1116 1.391 . S
C1118 H1108 0.950 . S
C1118 C1119 1.386 1_655 S
C1118 C1120 1.391 . S
C1119 C1118 1.386 1_455 S
C1119 C1123 1.393 . S
C1120 H1109 0.950 . S
C1120 C1118 1.391 . S
C1120 C1121 1.400 1_655 S
C1121 C1115 1.491 1_455 S
C1121 C1120 1.400 1_455 S
C1121 C1122 1.398 . S
C1122 H1110 0.950 . S
C1122 C1121 1.398 . S
C1122 C1123 1.391 . S
C1123 H1111 0.950 . S
C1123 C1119 1.393 . S
C1123 C1122 1.391 . S
H1124 C1132 0.950 1_545 S
H1125 C1137 0.950 . S
H1126 C1134 0.950 . S
H1127 C1136 0.950 . S
H1128 C1138 0.950 . S
H1129 C1140 0.950 . S
H1130 C1142 0.950 . S
H1131 C1143 0.950 . S
C1132 H1124 0.950 1_565 S
C1132 C1133 1.386 . S
C1132 C1134 1.391 1_565 S
C1133 C1132 1.386 . S
C1133 C1137 1.393 . S
C1134 H1126 0.950 . S
C1134 C1132 1.391 1_545 S
C1134 C1135 1.400 1_545 S
C1135 C1134 1.400 1_565 S
C1135 C1136 1.398 . S
C1135 C1141 1.491 . S
C1136 H1127 0.950 . S
C1136 C1135 1.398 . S
C1136 C1137 1.391 . S
C1137 H1125 0.950 . S
C1137 C1133 1.393 . S
C1137 C1136 1.391 . S
C1138 H1128 0.950 . S
C1138 C1139 1.386 1_565 S
C1138 C1140 1.391 . S
C1139 C1138 1.386 1_545 S
C1139 C1143 1.393 . S
C1140 H1129 0.950 . S
C1140 C1138 1.391 . S
C1140 C1141 1.400 . S
C1141 C1135 1.491 . S
C1141 C1140 1.400 . S
C1141 C1142 1.398 1_565 S
C1142 H1130 0.950 . S
C1142 C1141 1.398 1_545 S
C1142 C1143 1.391 . S
C1143 H1131 0.950 . S
C1143 C1139 1.393 . S
C1143 C1142 1.391 . S
H1144 C1152 0.950 . S
H1145 C1157 0.950 . S
H1146 C1154 0.950 . S
H1147 C1156 0.950 . S
H1148 C1158 0.950 . S
H1149 C1160 0.950 . S
H1150 C1162 0.950 . S
H1151 C1163 0.950 . S
C1152 H1144 0.950 . S
C1152 C1153 1.386 1_455 S
C1152 C1154 1.391 . S
C1153 C1152 1.386 1_655 S
C1153 C1157 1.393 . S
C1154 H1146 0.950 . S
C1154 C1152 1.391 . S
C1154 C1155 1.400 1_455 S
C1155 C1154 1.400 1_655 S
C1155 C1156 1.398 . S
C1155 C1161 1.491 1_655 S
C1156 H1147 0.950 . S
C1156 C1155 1.398 . S
C1156 C1157 1.391 . S
C1157 H1145 0.950 . S
C1157 C1153 1.393 . S
C1157 C1156 1.391 . S
C1158 H1148 0.950 . S
C1158 C1159 1.386 1_655 S
C1158 C1160 1.391 . S
C1159 C1158 1.386 1_455 S
C1159 C1163 1.393 . S
C1160 H1149 0.950 . S
C1160 C1158 1.391 . S
C1160 C1161 1.400 1_655 S
C1161 C1155 1.491 1_455 S
C1161 C1160 1.400 1_455 S
C1161 C1162 1.398 . S
C1162 H1150 0.950 . S
C1162 C1161 1.398 . S
C1162 C1163 1.391 . S
C1163 H1151 0.950 . S
C1163 C1159 1.393 . S
C1163 C1162 1.391 . S
H1164 C1172 0.950 . S
H1165 C1177 0.950 1_565 S
H1166 C1174 0.950 . S
H1167 C1176 0.950 . S
H1168 C1178 0.950 . S
H1169 C1180 0.950 . S
H1170 C1182 0.950 . S
H1171 C1183 0.950 . S
C1172 H1164 0.950 . S
C1172 C1173 1.386 . S
C1172 C1174 1.391 . S
C1173 C1172 1.386 . S
C1173 C1177 1.393 . S
C1174 H1166 0.950 . S
C1174 C1172 1.391 . S
C1174 C1175 1.400 . S
C1175 C1174 1.400 . S
C1175 C1176 1.398 1_545 S
C1175 C1181 1.491 . S
C1176 H1167 0.950 . S
C1176 C1175 1.398 1_565 S
C1176 C1177 1.391 1_565 S
C1177 H1165 0.950 1_545 S
C1177 C1173 1.393 . S
C1177 C1176 1.391 1_545 S
C1178 H1168 0.950 . S
C1178 C1179 1.386 . S
C1178 C1180 1.391 . S
C1179 C1178 1.386 . S
C1179 C1183 1.393 1_565 S
C1180 H1169 0.950 . S
C1180 C1178 1.391 . S
C1180 C1181 1.400 1_565 S
C1181 C1175 1.491 . S
C1181 C1180 1.400 1_545 S
C1181 C1182 1.398 . S
C1182 H1170 0.950 . S
C1182 C1181 1.398 . S
C1182 C1183 1.391 . S
C1183 H1171 0.950 . S
C1183 C1179 1.393 1_545 S
C1183 C1182 1.391 . S
H1184 C1192 0.957 . S
H1185 C1197 0.950 . S
H1186 C1194 0.950 . S
H1187 C1196 0.950 . S
H1188 C1198 0.957 . S
H1189 C1200 0.950 . S
H1190 C1202 0.950 . S
H1191 C1203 0.950 . S
C1192 H1184 0.957 . S
C1192 C1193 1.386 . S
C1192 C1194 1.391 1_455 S
C1193 C1192 1.386 . S
C1193 C1197 1.393 . S
C1194 H1186 0.950 . S
C1194 C1192 1.391 1_655 S
C1194 C1195 1.400 1_655 S
C1195 C1194 1.400 1_455 S
C1195 C1196 1.398 . S
C1195 C1201 1.491 1_455 S
C1196 H1187 0.950 . S
C1196 C1195 1.398 . S
C1196 C1197 1.391 . S
C1197 H1185 0.950 . S
C1197 C1193 1.393 . S
C1197 C1196 1.391 . S
C1198 H1188 0.957 . S
C1198 C1199 1.386 . S
C1198 C1200 1.391 1_655 S
C1199 C1198 1.386 . S
C1199 C1203 1.393 . S
C1200 H1189 0.950 . S
C1200 C1198 1.391 1_455 S
C1200 C1201 1.400 1_455 S
C1201 C1195 1.491 1_655 S
C1201 C1200 1.400 1_655 S
C1201 C1202 1.398 . S
C1202 H1190 0.950 . S
C1202 C1201 1.398 . S
C1202 C1203 1.391 . S
C1203 H1191 0.950 . S
C1203 C1199 1.393 . S
C1203 C1202 1.391 . S
H1204 C1212 0.950 . S
H1205 C1217 0.950 1_545 S
H1206 C1214 0.950 . S
H1207 C1216 0.950 . S
H1208 C1218 0.950 . S
H1209 C1220 0.950 . S
H1210 C1222 0.950 . S
H1211 C1223 0.950 . S
C1212 H1204 0.950 . S
C1212 C1213 1.386 . S
C1212 C1214 1.391 . S
C1213 C1212 1.386 . S
C1213 C1217 1.393 . S
C1214 H1206 0.950 . S
C1214 C1212 1.391 . S
C1214 C1215 1.400 . S
C1215 C1214 1.400 . S
C1215 C1216 1.398 1_565 S
C1215 C1221 1.491 . S
C1216 H1207 0.950 . S
C1216 C1215 1.398 1_545 S
C1216 C1217 1.391 1_545 S
C1217 H1205 0.950 1_565 S
C1217 C1213 1.393 . S
C1217 C1216 1.391 1_565 S
C1218 H1208 0.950 . S
C1218 C1219 1.386 . S
C1218 C1220 1.391 . S
C1219 C1218 1.386 . S
C1219 C1223 1.393 1_545 S
C1220 H1209 0.950 . S
C1220 C1218 1.391 . S
C1220 C1221 1.400 1_545 S
C1221 C1215 1.491 . S
C1221 C1220 1.400 1_565 S
C1221 C1222 1.398 . S
C1222 H1210 0.950 . S
C1222 C1221 1.398 . S
C1222 C1223 1.391 . S
C1223 H1211 0.950 . S
C1223 C1219 1.393 1_565 S
C1223 C1222 1.391 . S
H1224 C1232 0.950 . S
H1225 C1237 0.950 . S
H1226 C1234 0.950 . S
H1227 C1236 0.950 . S
H1228 C1238 0.950 . S
H1229 C1240 0.950 . S
H1230 C1242 0.950 . S
H1231 C1243 0.950 . S
C1232 H1224 0.950 . S
C1232 C1233 1.386 1_655 S
C1232 C1234 1.391 . S
C1233 C1232 1.386 1_455 S
C1233 C1237 1.393 . S
C1234 H1226 0.950 . S
C1234 C1232 1.391 . S
C1234 C1235 1.400 1_655 S
C1235 C1234 1.400 1_455 S
C1235 C1236 1.398 . S
C1235 C1241 1.491 1_455 S
C1236 H1227 0.950 . S
C1236 C1235 1.398 . S
C1236 C1237 1.391 . S
C1237 H1225 0.950 . S
C1237 C1233 1.393 . S
C1237 C1236 1.391 . S
C1238 H1228 0.950 . S
C1238 C1239 1.386 1_455 S
C1238 C1240 1.391 . S
C1239 C1238 1.386 1_655 S
C1239 C1243 1.393 . S
C1240 H1229 0.950 . S
C1240 C1238 1.391 . S
C1240 C1241 1.400 1_455 S
C1241 C1235 1.491 1_655 S
C1241 C1240 1.400 1_655 S
C1241 C1242 1.398 . S
C1242 H1230 0.950 . S
C1242 C1241 1.398 . S
C1242 C1243 1.391 . S
C1243 H1231 0.950 . S
C1243 C1239 1.393 . S
C1243 C1242 1.391 . S
H1244 C1252 0.950 . S
H1245 C1257 0.950 . S
H1246 C1254 0.950 1_565 S
H1247 C1256 0.950 . S
H1248 C1258 0.950 . S
H1249 C1260 0.950 . S
H1250 C1262 0.950 . S
H1251 C1263 0.950 . S
C1252 H1244 0.950 . S
C1252 C1253 1.386 . S
C1252 C1254 1.391 . S
C1253 C1252 1.386 . S
C1253 C1257 1.393 . S
C1254 H1246 0.950 1_545 S
C1254 C1252 1.391 . S
C1254 C1255 1.400 . S
C1255 C1254 1.400 . S
C1255 C1256 1.398 . S
C1255 C1261 1.491 . S
C1256 H1247 0.950 . S
C1256 C1255 1.398 . S
C1256 C1257 1.391 . S
C1257 H1245 0.950 . S
C1257 C1253 1.393 . S
C1257 C1256 1.391 . S
C1258 H1248 0.950 . S
C1258 C1259 1.386 1_545 S
C1258 C1260 1.391 . S
C1259 C1258 1.386 1_565 S
C1259 C1263 1.393 . S
C1260 H1249 0.950 . S
C1260 C1258 1.391 . S
C1260 C1261 1.400 . S
C1261 C1255 1.491 . S
C1261 C1260 1.400 . S
C1261 C1262 1.398 1_545 S
C1262 H1250 0.950 . S
C1262 C1261 1.398 1_565 S
C1262 C1263 1.391 . S
C1263 H1251 0.950 . S
C1263 C1259 1.393 . S
C1263 C1262 1.391 . S
H1264 C1272 0.950 1_554 S
H1265 C1277 0.950 . S
H1266 C1274 0.950 . S
H1267 C1276 0.950 . S
H1268 C1278 0.950 . S
H1269 C1280 0.950 . S
H1270 C1282 0.950 . S
H1271 C1283 0.950 . S
C1272 H1264 0.950 1_556 S
C1272 C1273 1.385 . S
C1272 C1274 1.391 1_556 S
C1273 C1272 1.385 . S
C1273 C1277 1.393 . S
C1274 H1266 0.950 . S
C1274 C1272 1.391 1_554 S
C1274 C1275 1.400 1_554 S
C1275 C1274 1.400 1_556 S
C1275 C1276 1.398 . S
C1275 C1281 1.491 . S
C1276 H1267 0.950 . S
C1276 C1275 1.398 . S
C1276 C1277 1.391 . S
C1277 H1265 0.950 . S
C1277 C1273 1.393 . S
C1277 C1276 1.391 . S
C1278 H1268 0.950 . S
C1278 C1279 1.386 1_556 S
C1278 C1280 1.391 . S
C1279 C1278 1.386 1_554 S
C1279 C1283 1.393 . S
C1280 H1269 0.950 . S
C1280 C1278 1.391 . S
C1280 C1281 1.400 . S
C1281 C1275 1.491 . S
C1281 C1280 1.400 . S
C1281 C1282 1.398 1_556 S
C1282 H1270 0.950 . S
C1282 C1281 1.398 1_554 S
C1282 C1283 1.391 . S
C1283 H1271 0.950 . S
C1283 C1279 1.393 . S
C1283 C1282 1.391 . S
H1284 C1292 0.950 . S
H1285 C1297 0.950 . S
H1286 C1294 0.950 1_556 S
H1287 C1296 0.950 . S
H1288 C1298 0.960 . S
H1289 C1300 0.950 . S
H1290 C1302 0.950 . S
H1291 C1303 0.950 . S
C1292 H1284 0.950 . S
C1292 C1293 1.386 . S
C1292 C1294 1.391 . S
C1293 C1292 1.386 . S
C1293 C1297 1.393 . S
C1294 H1286 0.950 1_554 S
C1294 C1292 1.391 . S
C1294 C1295 1.400 . S
C1295 C1294 1.400 . S
C1295 C1296 1.398 . S
C1295 C1301 1.491 . S
C1296 H1287 0.950 . S
C1296 C1295 1.398 . S
C1296 C1297 1.391 . S
C1297 H1285 0.950 . S
C1297 C1293 1.393 . S
C1297 C1296 1.391 . S
C1298 H1288 0.960 . S
C1298 C1299 1.366 1_554 S
C1298 C1300 1.403 . S
C1299 C1298 1.366 1_556 S
C1299 C1303 1.393 . S
C1300 H1289 0.950 . S
C1300 C1298 1.403 . S
C1300 C1301 1.400 . S
C1301 C1295 1.491 . S
C1301 C1300 1.400 . S
C1301 C1302 1.398 1_554 S
C1302 H1290 0.950 . S
C1302 C1301 1.398 1_556 S
C1302 C1303 1.391 . S
C1303 H1291 0.950 . S
C1303 C1299 1.393 . S
C1303 C1302 1.391 . S
H1304 C1312 0.934 1_556 S
H1305 C1317 0.950 . S
H1306 C1314 0.950 . S
H1307 C1316 0.950 . S
H1308 C1318 0.950 . S
H1309 C1320 0.950 . S
H1310 C1322 0.950 . S
H1311 C1323 0.950 . S
C1312 H1304 0.934 1_554 S
C1312 C1313 1.408 . S
C1312 C1314 1.385 1_554 S
C1313 C1312 1.408 . S
C1313 C1317 1.393 . S
C1314 H1306 0.950 . S
C1314 C1312 1.385 1_556 S
C1314 C1315 1.400 1_556 S
C1315 C1314 1.400 1_554 S
C1315 C1316 1.398 . S
C1315 C1321 1.491 . S
C1316 H1307 0.950 . S
C1316 C1315 1.398 . S
C1316 C1317 1.391 . S
C1317 H1305 0.950 . S
C1317 C1313 1.393 . S
C1317 C1316 1.391 . S
C1318 H1308 0.950 . S
C1318 C1319 1.386 1_554 S
C1318 C1320 1.391 . S
C1319 C1318 1.386 1_556 S
C1319 C1323 1.393 . S
C1320 H1309 0.950 . S
C1320 C1318 1.391 . S
C1320 C1321 1.400 . S
C1321 C1315 1.491 . S
C1321 C1320 1.400 . S
C1321 C1322 1.398 1_554 S
C1322 H1310 0.950 . S
C1322 C1321 1.398 1_556 S
C1322 C1323 1.391 . S
C1323 H1311 0.950 . S
C1323 C1319 1.393 . S
C1323 C1322 1.391 . S
H1324 C1332 0.950 . S
H1325 C1337 0.956 . S
H1326 C1334 0.950 . S
H1327 C1336 0.950 . S
H1328 C1338 0.950 . S
H1329 C1340 0.950 . S
H1330 C1342 0.950 . S
H1331 C1343 0.950 . S
C1332 H1324 0.950 . S
C1332 C1333 1.386 . S
C1332 C1334 1.391 . S
C1333 C1332 1.386 . S
C1333 C1337 1.384 1_556 S
C1334 H1326 0.950 . S
C1334 C1332 1.391 . S
C1334 C1335 1.400 . S
C1335 C1334 1.400 . S
C1335 C1336 1.398 1_556 S
C1335 C1341 1.491 . S
C1336 H1327 0.950 . S
C1336 C1335 1.398 1_554 S
C1336 C1337 1.393 . S
C1337 H1325 0.956 . S
C1337 C1333 1.384 1_554 S
C1337 C1336 1.393 . S
C1338 H1328 0.950 . S
C1338 C1339 1.386 . S
C1338 C1340 1.391 . S
C1339 C1338 1.386 . S
C1339 C1343 1.393 1_554 S
C1340 H1329 0.950 . S
C1340 C1338 1.391 . S
C1340 C1341 1.400 1_554 S
C1341 C1335 1.491 . S
C1341 C1340 1.400 1_556 S
C1341 C1342 1.398 . S
C1342 H1330 0.950 . S
C1342 C1341 1.398 . S
C1342 C1343 1.391 . S
C1343 H1331 0.950 . S
C1343 C1339 1.393 1_556 S
C1343 C1342 1.391 . S
H1344 C1352 0.950 . S
H1345 C1357 0.950 . S
H1346 C1354 0.950 . S
H1347 C1356 0.950 . S
H1348 C1358 0.950 . S
H1349 C1360 0.950 . S
H1350 C1362 0.950 . S
H1351 C1363 0.950 . S
C1352 H1344 0.950 . S
C1352 C1353 1.386 . S
C1352 C1354 1.391 . S
C1353 C1352 1.386 . S
C1353 C1357 1.393 . S
C1354 H1346 0.950 . S
C1354 C1352 1.391 . S
C1354 C1355 1.400 . S
C1355 C1354 1.400 . S
C1355 C1356 1.398 . S
C1355 C1361 1.491 . S
C1356 H1347 0.950 . S
C1356 C1355 1.398 . S
C1356 C1357 1.391 . S
C1357 H1345 0.950 . S
C1357 C1353 1.393 . S
C1357 C1356 1.391 . S
C1358 H1348 0.950 . S
C1358 C1359 1.386 . S
C1358 C1360 1.391 . S
C1359 C1358 1.386 . S
C1359 C1363 1.393 . S
C1360 H1349 0.950 . S
C1360 C1358 1.391 . S
C1360 C1361 1.400 . S
C1361 C1355 1.491 . S
C1361 C1360 1.400 . S
C1361 C1362 1.398 . S
C1362 H1350 0.950 . S
C1362 C1361 1.398 . S
C1362 C1363 1.391 . S
C1363 H1351 0.950 . S
C1363 C1359 1.393 . S
C1363 C1362 1.391 . S
H1364 C1372 0.950 . S
H1365 C1377 0.950 . S
H1366 C1374 0.950 . S
H1367 C1376 0.950 . S
H1368 C1378 0.950 . S
H1369 C1380 0.950 . S
H1370 C1382 0.950 . S
H1371 C1383 0.950 . S
C1372 H1364 0.950 . S
C1372 C1373 1.386 . S
C1372 C1374 1.391 . S
C1373 C1372 1.386 . S
C1373 C1377 1.393 . S
C1374 H1366 0.950 . S
C1374 C1372 1.391 . S
C1374 C1375 1.400 . S
C1375 C1374 1.400 . S
C1375 C1376 1.398 . S
C1375 C1381 1.491 . S
C1376 H1367 0.950 . S
C1376 C1375 1.398 . S
C1376 C1377 1.391 . S
C1377 H1365 0.950 . S
C1377 C1373 1.393 . S
C1377 C1376 1.391 . S
C1378 H1368 0.950 . S
C1378 C1379 1.386 . S
C1378 C1380 1.391 . S
C1379 C1378 1.386 . S
C1379 C1383 1.393 . S
C1380 H1369 0.950 . S
C1380 C1378 1.391 . S
C1380 C1381 1.400 . S
C1381 C1375 1.491 . S
C1381 C1380 1.400 . S
C1381 C1382 1.398 . S
C1382 H1370 0.950 . S
C1382 C1381 1.398 . S
C1382 C1383 1.391 . S
C1383 H1371 0.950 . S
C1383 C1379 1.393 . S
C1383 C1382 1.391 . S
H1384 C1392 0.950 . S
H1385 C1397 0.950 . S
H1386 C1394 0.950 . S
H1387 C1396 0.950 . S
H1388 C1398 0.950 . S
H1389 C1400 0.950 . S
H1390 C1402 0.950 . S
H1391 C1403 0.950 . S
C1392 H1384 0.950 . S
C1392 C1393 1.386 . S
C1392 C1394 1.391 . S
C1393 C1392 1.386 . S
C1393 C1397 1.393 . S
C1394 H1386 0.950 . S
C1394 C1392 1.391 . S
C1394 C1395 1.400 . S
C1395 C1394 1.400 . S
C1395 C1396 1.398 . S
C1395 C1401 1.491 . S
C1396 H1387 0.950 . S
C1396 C1395 1.398 . S
C1396 C1397 1.391 . S
C1397 H1385 0.950 . S
C1397 C1393 1.393 . S
C1397 C1396 1.391 . S
C1398 H1388 0.950 . S
C1398 C1399 1.386 . S
C1398 C1400 1.391 . S
C1399 C1398 1.386 . S
C1399 C1403 1.393 . S
C1400 H1389 0.950 . S
C1400 C1398 1.391 . S
C1400 C1401 1.400 . S
C1401 C1395 1.491 . S
C1401 C1400 1.400 . S
C1401 C1402 1.398 . S
C1402 H1390 0.950 . S
C1402 C1401 1.398 . S
C1402 C1403 1.391 . S
C1403 H1391 0.950 . S
C1403 C1399 1.393 . S
C1403 C1402 1.391 . S
H1404 C1412 0.950 . S
H1405 C1417 0.950 . S
H1406 C1414 0.950 . S
H1407 C1416 0.950 . S
H1408 C1418 0.950 . S
H1409 C1420 0.950 . S
H1410 C1422 0.950 . S
H1411 C1423 0.950 . S
C1412 H1404 0.950 . S
C1412 C1413 1.386 . S
C1412 C1414 1.391 . S
C1413 C1412 1.386 . S
C1413 C1417 1.393 . S
C1414 H1406 0.950 . S
C1414 C1412 1.391 . S
C1414 C1415 1.400 . S
C1415 C1414 1.400 . S
C1415 C1416 1.398 . S
C1415 C1421 1.491 . S
C1416 H1407 0.950 . S
C1416 C1415 1.398 . S
C1416 C1417 1.391 . S
C1417 H1405 0.950 . S
C1417 C1413 1.393 . S
C1417 C1416 1.391 . S
C1418 H1408 0.950 . S
C1418 C1419 1.386 . S
C1418 C1420 1.391 . S
C1419 C1418 1.386 . S
C1419 C1423 1.393 . S
C1420 H1409 0.950 . S
C1420 C1418 1.391 . S
C1420 C1421 1.400 . S
C1421 C1415 1.491 . S
C1421 C1420 1.400 . S
C1421 C1422 1.398 . S
C1422 H1410 0.950 . S
C1422 C1421 1.398 . S
C1422 C1423 1.391 . S
C1423 H1411 0.950 . S
C1423 C1419 1.393 . S
C1423 C1422 1.391 . S
H1424 C1432 0.950 . S
H1425 C1437 0.950 . S
H1426 C1434 0.950 . S
H1427 C1436 0.950 . S
H1428 C1438 0.950 . S
H1429 C1440 0.950 . S
H1430 C1442 0.950 . S
H1431 C1443 0.950 . S
C1432 H1424 0.950 . S
C1432 C1433 1.386 . S
C1432 C1434 1.391 . S
C1433 C1432 1.386 . S
C1433 C1437 1.393 . S
C1434 H1426 0.950 . S
C1434 C1432 1.391 . S
C1434 C1435 1.400 . S
C1435 C1434 1.400 . S
C1435 C1436 1.398 . S
C1435 C1441 1.491 . S
C1436 H1427 0.950 . S
C1436 C1435 1.398 . S
C1436 C1437 1.391 . S
C1437 H1425 0.950 . S
C1437 C1433 1.393 . S
C1437 C1436 1.391 . S
C1438 H1428 0.950 . S
C1438 C1439 1.386 . S
C1438 C1440 1.391 . S
C1439 C1438 1.386 . S
C1439 C1443 1.393 . S
C1440 H1429 0.950 . S
C1440 C1438 1.391 . S
C1440 C1441 1.400 . S
C1441 C1435 1.491 . S
C1441 C1440 1.400 . S
C1441 C1442 1.398 . S
C1442 H1430 0.950 . S
C1442 C1441 1.398 . S
C1442 C1443 1.391 . S
C1443 H1431 0.950 . S
C1443 C1439 1.393 . S
C1443 C1442 1.391 . S
H1444 C1452 0.950 . S
H1445 C1457 0.950 . S
H1446 C1454 0.950 . S
H1447 C1456 0.950 . S
H1448 C1458 0.950 . S
H1449 C1460 0.950 . S
H1450 C1462 0.950 . S
H1451 C1463 0.950 . S
C1452 H1444 0.950 . S
C1452 C1453 1.386 . S
C1452 C1454 1.391 . S
C1453 C1452 1.386 . S
C1453 C1457 1.393 . S
C1454 H1446 0.950 . S
C1454 C1452 1.391 . S
C1454 C1455 1.400 . S
C1455 C1454 1.400 . S
C1455 C1456 1.398 . S
C1455 C1461 1.491 . S
C1456 H1447 0.950 . S
C1456 C1455 1.398 . S
C1456 C1457 1.391 . S
C1457 H1445 0.950 . S
C1457 C1453 1.393 . S
C1457 C1456 1.391 . S
C1458 H1448 0.950 . S
C1458 C1459 1.386 . S
C1458 C1460 1.391 . S
C1459 C1458 1.386 . S
C1459 C1463 1.393 . S
C1460 H1449 0.950 . S
C1460 C1458 1.391 . S
C1460 C1461 1.400 . S
C1461 C1455 1.491 . S
C1461 C1460 1.400 . S
C1461 C1462 1.398 . S
C1462 H1450 0.950 . S
C1462 C1461 1.398 . S
C1462 C1463 1.391 . S
C1463 H1451 0.950 . S
C1463 C1459 1.393 . S
C1463 C1462 1.391 . S
H1464 C1472 0.950 . S
H1465 C1477 0.950 . S
H1466 C1474 0.950 . S
H1467 C1476 0.950 . S
H1468 C1478 0.950 . S
H1469 C1480 0.950 . S
H1470 C1482 0.950 . S
H1471 C1483 0.950 . S
C1472 H1464 0.950 . S
C1472 C1473 1.386 . S
C1472 C1474 1.391 . S
C1473 C1472 1.386 . S
C1473 C1477 1.393 . S
C1474 H1466 0.950 . S
C1474 C1472 1.391 . S
C1474 C1475 1.400 . S
C1475 C1474 1.400 . S
C1475 C1476 1.398 . S
C1475 C1481 1.491 . S
C1476 H1467 0.950 . S
C1476 C1475 1.398 . S
C1476 C1477 1.391 . S
C1477 H1465 0.950 . S
C1477 C1473 1.393 . S
C1477 C1476 1.391 . S
C1478 H1468 0.950 . S
C1478 C1479 1.386 . S
C1478 C1480 1.391 . S
C1479 C1478 1.386 . S
C1479 C1483 1.393 . S
C1480 H1469 0.950 . S
C1480 C1478 1.391 . S
C1480 C1481 1.400 . S
C1481 C1475 1.491 . S
C1481 C1480 1.400 . S
C1481 C1482 1.398 . S
C1482 H1470 0.950 . S
C1482 C1481 1.398 . S
C1482 C1483 1.391 . S
C1483 H1471 0.950 . S
C1483 C1479 1.393 . S
C1483 C1482 1.391 . S
H1484 C1492 0.950 . S
H1485 C1497 0.950 . S
H1486 C1494 0.950 . S
H1487 C1496 0.950 . S
H1488 C1498 0.950 . S
H1489 C1500 0.950 . S
H1490 C1502 0.950 . S
H1491 C1503 0.950 . S
C1492 H1484 0.950 . S
C1492 C1493 1.386 . S
C1492 C1494 1.391 . S
C1493 C1492 1.386 . S
C1493 C1497 1.393 . S
C1494 H1486 0.950 . S
C1494 C1492 1.391 . S
C1494 C1495 1.400 . S
C1495 C1494 1.400 . S
C1495 C1496 1.398 . S
C1495 C1501 1.491 . S
C1496 H1487 0.950 . S
C1496 C1495 1.398 . S
C1496 C1497 1.391 . S
C1497 H1485 0.950 . S
C1497 C1493 1.393 . S
C1497 C1496 1.391 . S
C1498 H1488 0.950 . S
C1498 C1499 1.386 . S
C1498 C1500 1.391 . S
C1499 C1498 1.386 . S
C1499 C1503 1.393 . S
C1500 H1489 0.950 . S
C1500 C1498 1.391 . S
C1500 C1501 1.400 . S
C1501 C1495 1.491 . S
C1501 C1500 1.400 . S
C1501 C1502 1.398 . S
C1502 H1490 0.950 . S
C1502 C1501 1.398 . S
C1502 C1503 1.391 . S
C1503 H1491 0.950 . S
C1503 C1499 1.393 . S
C1503 C1502 1.391 . S
H1504 C1512 0.950 . S
H1505 C1517 0.950 . S
H1506 C1514 0.950 . S
H1507 C1516 0.950 . S
H1508 C1518 0.950 . S
H1509 C1520 0.950 . S
H1510 C1522 0.950 . S
H1511 C1523 0.950 . S
C1512 H1504 0.950 . S
C1512 C1513 1.386 . S
C1512 C1514 1.391 . S
C1513 C1512 1.386 . S
C1513 C1517 1.393 . S
C1514 H1506 0.950 . S
C1514 C1512 1.391 . S
C1514 C1515 1.400 . S
C1515 C1514 1.400 . S
C1515 C1516 1.398 . S
C1515 C1521 1.491 . S
C1516 H1507 0.950 . S
C1516 C1515 1.398 . S
C1516 C1517 1.391 . S
C1517 H1505 0.950 . S
C1517 C1513 1.393 . S
C1517 C1516 1.391 . S
C1518 H1508 0.950 . S
C1518 C1519 1.386 . S
C1518 C1520 1.391 . S
C1519 C1518 1.386 . S
C1519 C1523 1.393 . S
C1520 H1509 0.950 . S
C1520 C1518 1.391 . S
C1520 C1521 1.400 . S
C1521 C1515 1.491 . S
C1521 C1520 1.400 . S
C1521 C1522 1.398 . S
C1522 H1510 0.950 . S
C1522 C1521 1.398 . S
C1522 C1523 1.391 . S
C1523 H1511 0.950 . S
C1523 C1519 1.393 . S
C1523 C1522 1.391 . S
H1524 C1532 0.950 . S
H1525 C1537 0.950 . S
H1526 C1534 0.950 . S
H1527 C1536 0.950 . S
H1528 C1538 0.950 . S
H1529 C1540 0.950 . S
H1530 C1542 0.950 . S
H1531 C1543 0.950 . S
C1532 H1524 0.950 . S
C1532 C1533 1.386 . S
C1532 C1534 1.391 . S
C1533 C1532 1.386 . S
C1533 C1537 1.393 . S
C1534 H1526 0.950 . S
C1534 C1532 1.391 . S
C1534 C1535 1.400 . S
C1535 C1534 1.400 . S
C1535 C1536 1.398 . S
C1535 C1541 1.491 . S
C1536 H1527 0.950 . S
C1536 C1535 1.398 . S
C1536 C1537 1.391 . S
C1537 H1525 0.950 . S
C1537 C1533 1.393 . S
C1537 C1536 1.391 . S
C1538 H1528 0.950 . S
C1538 C1539 1.386 . S
C1538 C1540 1.391 . S
C1539 C1538 1.386 . S
C1539 C1543 1.393 . S
C1540 H1529 0.950 . S
C1540 C1538 1.391 . S
C1540 C1541 1.400 . S
C1541 C1535 1.491 . S
C1541 C1540 1.400 . S
C1541 C1542 1.398 . S
C1542 H1530 0.950 . S
C1542 C1541 1.398 . S
C1542 C1543 1.391 . S
C1543 H1531 0.950 . S
C1543 C1539 1.393 . S
C1543 C1542 1.391 . S
H1544 C1552 0.950 . S
H1545 C1557 0.950 . S
H1546 C1554 0.950 . S
H1547 C1556 0.950 . S
H1548 C1558 0.950 . S
H1549 C1560 0.950 . S
H1550 C1562 0.950 . S
H1551 C1563 0.950 . S
C1552 H1544 0.950 . S
C1552 C1553 1.386 . S
C1552 C1554 1.391 . S
C1553 C1552 1.386 . S
C1553 C1557 1.393 . S
C1554 H1546 0.950 . S
C1554 C1552 1.391 . S
C1554 C1555 1.400 . S
C1555 C1554 1.400 . S
C1555 C1556 1.398 . S
C1555 C1561 1.491 . S
C1556 H1547 0.950 . S
C1556 C1555 1.398 . S
C1556 C1557 1.391 . S
C1557 H1545 0.950 . S
C1557 C1553 1.393 . S
C1557 C1556 1.391 . S
C1558 H1548 0.950 . S
C1558 C1559 1.386 . S
C1558 C1560 1.391 . S
C1559 C1558 1.386 . S
C1559 C1563 1.393 . S
C1560 H1549 0.950 . S
C1560 C1558 1.391 . S
C1560 C1561 1.400 . S
C1561 C1555 1.491 . S
C1561 C1560 1.400 . S
C1561 C1562 1.398 . S
C1562 H1550 0.950 . S
C1562 C1561 1.398 . S
C1562 C1563 1.391 . S
C1563 H1551 0.950 . S
C1563 C1559 1.393 . S
C1563 C1562 1.391 . S
H1564 C1572 0.950 . S
H1565 C1577 0.950 . S
H1566 C1574 0.950 . S
H1567 C1576 0.950 . S
H1568 C1578 0.950 . S
H1569 C1580 0.950 . S
H1570 C1582 0.950 . S
H1571 C1583 0.950 . S
C1572 H1564 0.950 . S
C1572 C1573 1.386 . S
C1572 C1574 1.391 . S
C1573 C1572 1.386 . S
C1573 C1577 1.393 . S
C1574 H1566 0.950 . S
C1574 C1572 1.391 . S
C1574 C1575 1.400 . S
C1575 C1574 1.400 . S
C1575 C1576 1.398 . S
C1575 C1581 1.491 . S
C1576 H1567 0.950 . S
C1576 C1575 1.398 . S
C1576 C1577 1.391 . S
C1577 H1565 0.950 . S
C1577 C1573 1.393 . S
C1577 C1576 1.391 . S
C1578 H1568 0.950 . S
C1578 C1579 1.386 . S
C1578 C1580 1.391 . S
C1579 C1578 1.386 . S
C1579 C1583 1.393 . S
C1580 H1569 0.950 . S
C1580 C1578 1.391 . S
C1580 C1581 1.400 . S
C1581 C1575 1.491 . S
C1581 C1580 1.400 . S
C1581 C1582 1.398 . S
C1582 H1570 0.950 . S
C1582 C1581 1.398 . S
C1582 C1583 1.391 . S
C1583 H1571 0.950 . S
C1583 C1579 1.393 . S
C1583 C1582 1.391 . S
H1584 C1592 0.950 . S
H1585 C1597 0.950 . S
H1586 C1594 0.950 . S
H1587 C1596 0.950 . S
H1588 C1598 0.950 . S
H1589 C1600 0.950 . S
H1590 C1602 0.950 . S
H1591 C1603 0.950 . S
C1592 H1584 0.950 . S
C1592 C1593 1.386 . S
C1592 C1594 1.391 . S
C1593 C1592 1.386 . S
C1593 C1597 1.393 . S
C1594 H1586 0.950 . S
C1594 C1592 1.391 . S
C1594 C1595 1.400 . S
C1595 C1594 1.400 . S
C1595 C1596 1.398 . S
C1595 C1601 1.491 . S
C1596 H1587 0.950 . S
C1596 C1595 1.398 . S
C1596 C1597 1.391 . S
C1597 H1585 0.950 . S
C1597 C1593 1.393 . S
C1597 C1596 1.391 . S
C1598 H1588 0.950 . S
C1598 C1599 1.386 . S
C1598 C1600 1.391 . S
C1599 C1598 1.386 . S
C1599 C1603 1.393 . S
C1600 H1589 0.950 . S
C1600 C1598 1.391 . S
C1600 C1601 1.400 . S
C1601 C1595 1.491 . S
C1601 C1600 1.400 . S
C1601 C1602 1.398 . S
C1602 H1590 0.950 . S
C1602 C1601 1.398 . S
C1602 C1603 1.391 . S
C1603 H1591 0.950 . S
C1603 C1599 1.393 . S
C1603 C1602 1.391 . S
H1604 C1612 0.950 . S
H1605 C1617 0.950 . S
H1606 C1614 0.950 . S
H1607 C1616 0.950 . S
H1608 C1618 0.950 . S
H1609 C1620 0.950 . S
H1610 C1622 0.950 . S
H1611 C1623 0.950 . S
C1612 H1604 0.950 . S
C1612 C1613 1.386 . S
C1612 C1614 1.391 . S
C1613 C1612 1.386 . S
C1613 C1617 1.393 . S
C1614 H1606 0.950 . S
C1614 C1612 1.391 . S
C1614 C1615 1.400 . S
C1615 C1614 1.400 . S
C1615 C1616 1.398 . S
C1615 C1621 1.491 . S
C1616 H1607 0.950 . S
C1616 C1615 1.398 . S
C1616 C1617 1.391 . S
C1617 H1605 0.950 . S
C1617 C1613 1.393 . S
C1617 C1616 1.391 . S
C1618 H1608 0.950 . S
C1618 C1619 1.386 . S
C1618 C1620 1.391 . S
C1619 C1618 1.386 . S
C1619 C1623 1.393 . S
C1620 H1609 0.950 . S
C1620 C1618 1.391 . S
C1620 C1621 1.400 . S
C1621 C1615 1.491 . S
C1621 C1620 1.400 . S
C1621 C1622 1.398 . S
C1622 H1610 0.950 . S
C1622 C1621 1.398 . S
C1622 C1623 1.391 . S
C1623 H1611 0.950 . S
C1623 C1619 1.393 . S
C1623 C1622 1.391 . S
H1624 C1632 0.950 . S
H1625 C1637 0.950 . S
H1626 C1634 0.950 . S
H1627 C1636 0.950 . S
H1628 C1638 0.950 . S
H1629 C1640 0.950 . S
H1630 C1642 0.950 . S
H1631 C1643 0.950 . S
C1632 H1624 0.950 . S
C1632 C1633 1.386 . S
C1632 C1634 1.391 . S
C1633 C1632 1.386 . S
C1633 C1637 1.393 . S
C1634 H1626 0.950 . S
C1634 C1632 1.391 . S
C1634 C1635 1.400 . S
C1635 C1634 1.400 . S
C1635 C1636 1.398 . S
C1635 C1641 1.491 . S
C1636 H1627 0.950 . S
C1636 C1635 1.398 . S
C1636 C1637 1.391 . S
C1637 H1625 0.950 . S
C1637 C1633 1.393 . S
C1637 C1636 1.391 . S
C1638 H1628 0.950 . S
C1638 C1639 1.386 . S
C1638 C1640 1.391 . S
C1639 C1638 1.386 . S
C1639 C1643 1.393 . S
C1640 H1629 0.950 . S
C1640 C1638 1.391 . S
C1640 C1641 1.400 . S
C1641 C1635 1.491 . S
C1641 C1640 1.400 . S
C1641 C1642 1.398 . S
C1642 H1630 0.950 . S
C1642 C1641 1.398 . S
C1642 C1643 1.391 . S
C1643 H1631 0.950 . S
C1643 C1639 1.393 . S
C1643 C1642 1.391 . S
H1644 C1652 0.950 . S
H1645 C1657 0.950 . S
H1646 C1654 0.950 . S
H1647 C1656 0.950 . S
H1648 C1658 0.950 . S
H1649 C1660 0.950 . S
H1650 C1662 0.950 . S
H1651 C1663 0.950 . S
C1652 H1644 0.950 . S
C1652 C1653 1.386 . S
C1652 C1654 1.391 . S
C1653 C1652 1.386 . S
C1653 C1657 1.393 . S
C1654 H1646 0.950 . S
C1654 C1652 1.391 . S
C1654 C1655 1.400 . S
C1655 C1654 1.400 . S
C1655 C1656 1.398 . S
C1655 C1661 1.491 . S
C1656 H1647 0.950 . S
C1656 C1655 1.398 . S
C1656 C1657 1.391 . S
C1657 H1645 0.950 . S
C1657 C1653 1.393 . S
C1657 C1656 1.391 . S
C1658 H1648 0.950 . S
C1658 C1659 1.386 . S
C1658 C1660 1.391 . S
C1659 C1658 1.386 . S
C1659 C1663 1.393 . S
C1660 H1649 0.950 . S
C1660 C1658 1.391 . S
C1660 C1661 1.400 . S
C1661 C1655 1.491 . S
C1661 C1660 1.400 . S
C1661 C1662 1.398 . S
C1662 H1650 0.950 . S
C1662 C1661 1.398 . S
C1662 C1663 1.391 . S
C1663 H1651 0.950 . S
C1663 C1659 1.393 . S
C1663 C1662 1.391 . S
H1664 C1672 0.950 . S
H1665 C1677 0.950 . S
H1666 C1674 0.950 . S
H1667 C1676 0.950 . S
H1668 C1678 0.950 . S
H1669 C1680 0.950 . S
H1670 C1682 0.950 . S
H1671 C1683 0.950 . S
C1672 H1664 0.950 . S
C1672 C1673 1.386 . S
C1672 C1674 1.391 . S
C1673 C1672 1.386 . S
C1673 C1677 1.393 . S
C1674 H1666 0.950 . S
C1674 C1672 1.391 . S
C1674 C1675 1.400 . S
C1675 C1674 1.400 . S
C1675 C1676 1.398 . S
C1675 C1681 1.491 . S
C1676 H1667 0.950 . S
C1676 C1675 1.398 . S
C1676 C1677 1.391 . S
C1677 H1665 0.950 . S
C1677 C1673 1.393 . S
C1677 C1676 1.391 . S
C1678 H1668 0.950 . S
C1678 C1679 1.386 . S
C1678 C1680 1.391 . S
C1679 C1678 1.386 . S
C1679 C1683 1.393 . S
C1680 H1669 0.950 . S
C1680 C1678 1.391 . S
C1680 C1681 1.400 . S
C1681 C1675 1.491 . S
C1681 C1680 1.400 . S
C1681 C1682 1.398 . S
C1682 H1670 0.950 . S
C1682 C1681 1.398 . S
C1682 C1683 1.391 . S
C1683 H1671 0.950 . S
C1683 C1679 1.393 . S
C1683 C1682 1.391 . S
H1684 C1692 0.950 . S
H1685 C1697 0.950 . S
H1686 C1694 0.950 . S
H1687 C1696 0.950 . S
H1688 C1698 0.950 . S
H1689 C1700 0.950 . S
H1690 C1702 0.950 . S
H1691 C1703 0.950 . S
C1692 H1684 0.950 . S
C1692 C1693 1.386 . S
C1692 C1694 1.391 . S
C1693 C1692 1.386 . S
C1693 C1697 1.393 . S
C1694 H1686 0.950 . S
C1694 C1692 1.391 . S
C1694 C1695 1.400 . S
C1695 C1694 1.400 . S
C1695 C1696 1.398 . S
C1695 C1701 1.491 . S
C1696 H1687 0.950 . S
C1696 C1695 1.398 . S
C1696 C1697 1.391 . S
C1697 H1685 0.950 . S
C1697 C1693 1.393 . S
C1697 C1696 1.391 . S
C1698 H1688 0.950 . S
C1698 C1699 1.386 . S
C1698 C1700 1.391 . S
C1699 C1698 1.386 . S
C1699 C1703 1.393 . S
C1700 H1689 0.950 . S
C1700 C1698 1.391 . S
C1700 C1701 1.400 . S
C1701 C1695 1.491 . S
C1701 C1700 1.400 . S
C1701 C1702 1.398 . S
C1702 H1690 0.950 . S
C1702 C1701 1.398 . S
C1702 C1703 1.391 . S
C1703 H1691 0.950 . S
C1703 C1699 1.393 . S
C1703 C1702 1.391 . S
H1704 C1712 0.950 . S
H1705 C1717 0.950 . S
H1706 C1714 0.950 . S
H1707 C1716 0.950 . S
H1708 C1718 0.950 . S
H1709 C1720 0.950 . S
H1710 C1722 0.950 . S
H1711 C1723 0.950 . S
C1712 H1704 0.950 . S
C1712 C1713 1.386 . S
C1712 C1714 1.391 . S
C1713 C1712 1.386 . S
C1713 C1717 1.393 . S
C1714 H1706 0.950 . S
C1714 C1712 1.391 . S
C1714 C1715 1.400 . S
C1715 C1714 1.400 . S
C1715 C1716 1.398 . S
C1715 C1721 1.491 . S
C1716 H1707 0.950 . S
C1716 C1715 1.398 . S
C1716 C1717 1.391 . S
C1717 H1705 0.950 . S
C1717 C1713 1.393 . S
C1717 C1716 1.391 . S
C1718 H1708 0.950 . S
C1718 C1719 1.386 . S
C1718 C1720 1.391 . S
C1719 C1718 1.386 . S
C1719 C1723 1.393 . S
C1720 H1709 0.950 . S
C1720 C1718 1.391 . S
C1720 C1721 1.400 . S
C1721 C1715 1.491 . S
C1721 C1720 1.400 . S
C1721 C1722 1.398 . S
C1722 H1710 0.950 . S
C1722 C1721 1.398 . S
C1722 C1723 1.391 . S
C1723 H1711 0.950 . S
C1723 C1719 1.393 . S
C1723 C1722 1.391 . S
H1724 C1732 0.950 . S
H1725 C1737 0.950 . S
H1726 C1734 0.950 . S
H1727 C1736 0.950 . S
H1728 C1738 0.950 . S
H1729 C1740 0.950 . S
H1730 C1742 0.950 . S
H1731 C1743 0.950 . S
C1732 H1724 0.950 . S
C1732 C1733 1.386 . S
C1732 C1734 1.391 . S
C1733 C1732 1.386 . S
C1733 C1737 1.393 . S
C1734 H1726 0.950 . S
C1734 C1732 1.391 . S
C1734 C1735 1.400 . S
C1735 C1734 1.400 . S
C1735 C1736 1.398 . S
C1735 C1741 1.491 . S
C1736 H1727 0.950 . S
C1736 C1735 1.398 . S
C1736 C1737 1.391 . S
C1737 H1725 0.950 . S
C1737 C1733 1.393 . S
C1737 C1736 1.391 . S
C1738 H1728 0.950 . S
C1738 C1739 1.386 . S
C1738 C1740 1.391 . S
C1739 C1738 1.386 . S
C1739 C1743 1.393 . S
C1740 H1729 0.950 . S
C1740 C1738 1.391 . S
C1740 C1741 1.400 . S
C1741 C1735 1.491 . S
C1741 C1740 1.400 . S
C1741 C1742 1.398 . S
C1742 H1730 0.950 . S
C1742 C1741 1.398 . S
C1742 C1743 1.391 . S
C1743 H1731 0.950 . S
C1743 C1739 1.393 . S
C1743 C1742 1.391 . S
H1744 C1752 0.950 . S
H1745 C1757 0.950 . S
H1746 C1754 0.950 . S
H1747 C1756 0.950 . S
H1748 C1758 0.950 . S
H1749 C1760 0.950 . S
H1750 C1762 0.950 . S
H1751 C1763 0.950 . S
C1752 H1744 0.950 . S
C1752 C1753 1.386 . S
C1752 C1754 1.391 . S
C1753 C1752 1.386 . S
C1753 C1757 1.393 . S
C1754 H1746 0.950 . S
C1754 C1752 1.391 . S
C1754 C1755 1.400 . S
C1755 C1754 1.400 . S
C1755 C1756 1.398 . S
C1755 C1761 1.491 . S
C1756 H1747 0.950 . S
C1756 C1755 1.398 . S
C1756 C1757 1.391 . S
C1757 H1745 0.950 . S
C1757 C1753 1.393 . S
C1757 C1756 1.391 . S
C1758 H1748 0.950 . S
C1758 C1759 1.386 . S
C1758 C1760 1.391 . S
C1759 C1758 1.386 . S
C1759 C1763 1.393 . S
C1760 H1749 0.950 . S
C1760 C1758 1.391 . S
C1760 C1761 1.400 . S
C1761 C1755 1.491 . S
C1761 C1760 1.400 . S
C1761 C1762 1.398 . S
C1762 H1750 0.950 . S
C1762 C1761 1.398 . S
C1762 C1763 1.391 . S
C1763 H1751 0.950 . S
C1763 C1759 1.393 . S
C1763 C1762 1.391 . S
H1764 C1772 0.950 . S
H1765 C1777 0.950 . S
H1766 C1774 0.950 . S
H1767 C1776 0.950 . S
H1768 C1778 0.950 . S
H1769 C1780 0.950 . S
H1770 C1782 0.950 . S
H1771 C1783 0.950 . S
C1772 H1764 0.950 . S
C1772 C1773 1.386 . S
C1772 C1774 1.391 . S
C1773 C1772 1.386 . S
C1773 C1777 1.393 . S
C1774 H1766 0.950 . S
C1774 C1772 1.391 . S
C1774 C1775 1.400 . S
C1775 C1774 1.400 . S
C1775 C1776 1.398 . S
C1775 C1781 1.491 . S
C1776 H1767 0.950 . S
C1776 C1775 1.398 . S
C1776 C1777 1.391 . S
C1777 H1765 0.950 . S
C1777 C1773 1.393 . S
C1777 C1776 1.391 . S
C1778 H1768 0.950 . S
C1778 C1779 1.386 . S
C1778 C1780 1.391 . S
C1779 C1778 1.386 . S
C1779 C1783 1.393 . S
C1780 H1769 0.950 . S
C1780 C1778 1.391 . S
C1780 C1781 1.400 . S
C1781 C1775 1.491 . S
C1781 C1780 1.400 . S
C1781 C1782 1.398 . S
C1782 H1770 0.950 . S
C1782 C1781 1.398 . S
C1782 C1783 1.391 . S
C1783 H1771 0.950 . S
C1783 C1779 1.393 . S
C1783 C1782 1.391 . S
H1784 C1792 0.950 . S
H1785 C1797 0.950 . S
H1786 C1794 0.950 . S
H1787 C1796 0.950 . S
H1788 C1798 0.950 . S
H1789 C1800 0.950 . S
H1790 C1802 0.950 . S
H1791 C1803 0.950 . S
C1792 H1784 0.950 . S
C1792 C1793 1.386 . S
C1792 C1794 1.391 . S
C1793 C1792 1.386 . S
C1793 C1797 1.393 . S
C1794 H1786 0.950 . S
C1794 C1792 1.391 . S
C1794 C1795 1.400 . S
C1795 C1794 1.400 . S
C1795 C1796 1.398 . S
C1795 C1801 1.491 . S
C1796 H1787 0.950 . S
C1796 C1795 1.398 . S
C1796 C1797 1.391 . S
C1797 H1785 0.950 . S
C1797 C1793 1.393 . S
C1797 C1796 1.391 . S
C1798 H1788 0.950 . S
C1798 C1799 1.386 . S
C1798 C1800 1.391 . S
C1799 C1798 1.386 . S
C1799 C1803 1.393 . S
C1800 H1789 0.950 . S
C1800 C1798 1.391 . S
C1800 C1801 1.400 . S
C1801 C1795 1.491 . S
C1801 C1800 1.400 . S
C1801 C1802 1.398 . S
C1802 H1790 0.950 . S
C1802 C1801 1.398 . S
C1802 C1803 1.391 . S
C1803 H1791 0.950 . S
C1803 C1799 1.393 . S
C1803 C1802 1.391 . S
H1804 C1812 0.950 . S
H1805 C1817 0.950 . S
H1806 C1814 0.950 . S
H1807 C1816 0.950 . S
H1808 C1818 0.950 . S
H1809 C1820 0.950 . S
H1810 C1822 0.950 . S
H1811 C1823 0.950 . S
C1812 H1804 0.950 . S
C1812 C1813 1.386 . S
C1812 C1814 1.391 . S
C1813 C1812 1.386 . S
C1813 C1817 1.393 . S
C1814 H1806 0.950 . S
C1814 C1812 1.391 . S
C1814 C1815 1.400 . S
C1815 C1814 1.400 . S
C1815 C1816 1.398 . S
C1815 C1821 1.491 . S
C1816 H1807 0.950 . S
C1816 C1815 1.398 . S
C1816 C1817 1.391 . S
C1817 H1805 0.950 . S
C1817 C1813 1.393 . S
C1817 C1816 1.391 . S
C1818 H1808 0.950 . S
C1818 C1819 1.386 . S
C1818 C1820 1.391 . S
C1819 C1818 1.386 . S
C1819 C1823 1.393 . S
C1820 H1809 0.950 . S
C1820 C1818 1.391 . S
C1820 C1821 1.400 . S
C1821 C1815 1.491 . S
C1821 C1820 1.400 . S
C1821 C1822 1.398 . S
C1822 H1810 0.950 . S
C1822 C1821 1.398 . S
C1822 C1823 1.391 . S
C1823 H1811 0.950 . S
C1823 C1819 1.393 . S
C1823 C1822 1.391 . S
H1824 C1832 0.950 . S
H1825 C1837 0.950 . S
H1826 C1834 0.950 . S
H1827 C1836 0.950 . S
H1828 C1838 0.950 . S
H1829 C1840 0.950 . S
H1830 C1842 0.950 . S
H1831 C1843 0.950 . S
C1832 H1824 0.950 . S
C1832 C1833 1.386 . S
C1832 C1834 1.391 . S
C1833 C1832 1.386 . S
C1833 C1837 1.393 . S
C1834 H1826 0.950 . S
C1834 C1832 1.391 . S
C1834 C1835 1.400 . S
C1835 C1834 1.400 . S
C1835 C1836 1.398 . S
C1835 C1841 1.491 . S
C1836 H1827 0.950 . S
C1836 C1835 1.398 . S
C1836 C1837 1.391 . S
C1837 H1825 0.950 . S
C1837 C1833 1.393 . S
C1837 C1836 1.391 . S
C1838 H1828 0.950 . S
C1838 C1839 1.386 . S
C1838 C1840 1.391 . S
C1839 C1838 1.386 . S
C1839 C1843 1.393 . S
C1840 H1829 0.950 . S
C1840 C1838 1.391 . S
C1840 C1841 1.400 . S
C1841 C1835 1.491 . S
C1841 C1840 1.400 . S
C1841 C1842 1.398 . S
C1842 H1830 0.950 . S
C1842 C1841 1.398 . S
C1842 C1843 1.391 . S
C1843 H1831 0.950 . S
C1843 C1839 1.393 . S
C1843 C1842 1.391 . S
H1844 C1852 0.950 . S
H1845 C1857 0.950 . S
H1846 C1854 0.950 . S
H1847 C1856 0.950 . S
H1848 C1858 0.950 . S
H1849 C1860 0.950 . S
H1850 C1862 0.950 . S
H1851 C1863 0.950 . S
C1852 H1844 0.950 . S
C1852 C1853 1.386 . S
C1852 C1854 1.391 . S
C1853 C1852 1.386 . S
C1853 C1857 1.393 . S
C1854 H1846 0.950 . S
C1854 C1852 1.391 . S
C1854 C1855 1.400 . S
C1855 C1854 1.400 . S
C1855 C1856 1.398 . S
C1855 C1861 1.491 . S
C1856 H1847 0.950 . S
C1856 C1855 1.398 . S
C1856 C1857 1.391 . S
C1857 H1845 0.950 . S
C1857 C1853 1.393 . S
C1857 C1856 1.391 . S
C1858 H1848 0.950 . S
C1858 C1859 1.386 . S
C1858 C1860 1.391 . S
C1859 C1858 1.386 . S
C1859 C1863 1.393 . S
C1860 H1849 0.950 . S
C1860 C1858 1.391 . S
C1860 C1861 1.400 . S
C1861 C1855 1.491 . S
C1861 C1860 1.400 . S
C1861 C1862 1.398 . S
C1862 H1850 0.950 . S
C1862 C1861 1.398 . S
C1862 C1863 1.391 . S
C1863 H1851 0.950 . S
C1863 C1859 1.393 . S
C1863 C1862 1.391 . S
H1864 C1872 0.950 . S
H1865 C1877 0.950 . S
H1866 C1874 0.950 . S
H1867 C1876 0.950 . S
H1868 C1878 0.950 . S
H1869 C1880 0.950 . S
H1870 C1882 0.950 . S
H1871 C1883 0.950 . S
C1872 H1864 0.950 . S
C1872 C1873 1.386 . S
C1872 C1874 1.391 . S
C1873 C1872 1.386 . S
C1873 C1877 1.393 . S
C1874 H1866 0.950 . S
C1874 C1872 1.391 . S
C1874 C1875 1.400 . S
C1875 C1874 1.400 . S
C1875 C1876 1.398 . S
C1875 C1881 1.491 . S
C1876 H1867 0.950 . S
C1876 C1875 1.398 . S
C1876 C1877 1.391 . S
C1877 H1865 0.950 . S
C1877 C1873 1.393 . S
C1877 C1876 1.391 . S
C1878 H1868 0.950 . S
C1878 C1879 1.386 . S
C1878 C1880 1.391 . S
C1879 C1878 1.386 . S
C1879 C1883 1.393 . S
C1880 H1869 0.950 . S
C1880 C1878 1.391 . S
C1880 C1881 1.400 . S
C1881 C1875 1.491 . S
C1881 C1880 1.400 . S
C1881 C1882 1.398 . S
C1882 H1870 0.950 . S
C1882 C1881 1.398 . S
C1882 C1883 1.391 . S
C1883 H1871 0.950 . S
C1883 C1879 1.393 . S
C1883 C1882 1.391 . S
H1884 C1892 0.950 . S
H1885 C1897 0.950 . S
H1886 C1894 0.950 . S
H1887 C1896 0.950 . S
H1888 C1898 0.950 . S
H1889 C1900 0.950 . S
H1890 C1902 0.950 . S
H1891 C1903 0.950 . S
C1892 H1884 0.950 . S
C1892 C1893 1.386 . S
C1892 C1894 1.391 . S
C1893 C1892 1.386 . S
C1893 C1897 1.393 . S
C1894 H1886 0.950 . S
C1894 C1892 1.391 . S
C1894 C1895 1.400 . S
C1895 C1894 1.400 . S
C1895 C1896 1.398 . S
C1895 C1901 1.491 . S
C1896 H1887 0.950 . S
C1896 C1895 1.398 . S
C1896 C1897 1.391 . S
C1897 H1885 0.950 . S
C1897 C1893 1.393 . S
C1897 C1896 1.391 . S
C1898 H1888 0.950 . S
C1898 C1899 1.386 . S
C1898 C1900 1.391 . S
C1899 C1898 1.386 . S
C1899 C1903 1.393 . S
C1900 H1889 0.950 . S
C1900 C1898 1.391 . S
C1900 C1901 1.400 . S
C1901 C1895 1.491 . S
C1901 C1900 1.400 . S
C1901 C1902 1.398 . S
C1902 H1890 0.950 . S
C1902 C1901 1.398 . S
C1902 C1903 1.391 . S
C1903 H1891 0.950 . S
C1903 C1899 1.393 . S
C1903 C1902 1.391 . S
H1904 C1912 0.950 . S
H1905 C1917 0.950 . S
H1906 C1914 0.950 . S
H1907 C1916 0.950 . S
H1908 C1918 0.950 . S
H1909 C1920 0.950 . S
H1910 C1922 0.950 . S
H1911 C1923 0.950 . S
C1912 H1904 0.950 . S
C1912 C1913 1.386 . S
C1912 C1914 1.391 . S
C1913 C1912 1.386 . S
C1913 C1917 1.393 . S
C1914 H1906 0.950 . S
C1914 C1912 1.391 . S
C1914 C1915 1.400 . S
C1915 C1914 1.400 . S
C1915 C1916 1.398 . S
C1915 C1921 1.491 . S
C1916 H1907 0.950 . S
C1916 C1915 1.398 . S
C1916 C1917 1.391 . S
C1917 H1905 0.950 . S
C1917 C1913 1.393 . S
C1917 C1916 1.391 . S
C1918 H1908 0.950 . S
C1918 C1919 1.386 . S
C1918 C1920 1.391 . S
C1919 C1918 1.386 . S
C1919 C1923 1.393 . S
C1920 H1909 0.950 . S
C1920 C1918 1.391 . S
C1920 C1921 1.400 . S
C1921 C1915 1.491 . S
C1921 C1920 1.400 . S
C1921 C1922 1.398 . S
C1922 H1910 0.950 . S
C1922 C1921 1.398 . S
C1922 C1923 1.391 . S
C1923 H1911 0.950 . S
C1923 C1919 1.393 . S
C1923 C1922 1.391 . S
H1924 C1932 0.950 . S
H1925 C1937 0.950 . S
H1926 C1934 0.950 . S
H1927 C1936 0.950 . S
H1928 C1938 0.950 . S
H1929 C1940 0.950 . S
H1930 C1942 0.950 . S
H1931 C1943 0.950 . S
C1932 H1924 0.950 . S
C1932 C1933 1.386 . S
C1932 C1934 1.391 . S
C1933 C1932 1.386 . S
C1933 C1937 1.393 . S
C1934 H1926 0.950 . S
C1934 C1932 1.391 . S
C1934 C1935 1.400 . S
C1935 C1934 1.400 . S
C1935 C1936 1.398 . S
C1935 C1941 1.491 . S
C1936 H1927 0.950 . S
C1936 C1935 1.398 . S
C1936 C1937 1.391 . S
C1937 H1925 0.950 . S
C1937 C1933 1.393 . S
C1937 C1936 1.391 . S
C1938 H1928 0.950 . S
C1938 C1939 1.386 . S
C1938 C1940 1.391 . S
C1939 C1938 1.386 . S
C1939 C1943 1.393 . S
C1940 H1929 0.950 . S
C1940 C1938 1.391 . S
C1940 C1941 1.400 . S
C1941 C1935 1.491 . S
C1941 C1940 1.400 . S
C1941 C1942 1.398 . S
C1942 H1930 0.950 . S
C1942 C1941 1.398 . S
C1942 C1943 1.391 . S
C1943 H1931 0.950 . S
C1943 C1939 1.393 . S
C1943 C1942 1.391 . S
H1944 C1952 0.950 . S
H1945 C1957 0.950 . S
H1946 C1954 0.950 . S
H1947 C1956 0.950 . S
H1948 C1958 0.950 . S
H1949 C1960 0.950 . S
H1950 C1962 0.950 . S
H1951 C1963 0.950 . S
C1952 H1944 0.950 . S
C1952 C1953 1.386 . S
C1952 C1954 1.391 . S
C1953 C1952 1.386 . S
C1953 C1957 1.393 . S
C1954 H1946 0.950 . S
C1954 C1952 1.391 . S
C1954 C1955 1.400 . S
C1955 C1954 1.400 . S
C1955 C1956 1.398 . S
C1955 C1961 1.491 . S
C1956 H1947 0.950 . S
C1956 C1955 1.398 . S
C1956 C1957 1.391 . S
C1957 H1945 0.950 . S
C1957 C1953 1.393 . S
C1957 C1956 1.391 . S
C1958 H1948 0.950 . S
C1958 C1959 1.386 . S
C1958 C1960 1.391 . S
C1959 C1958 1.386 . S
C1959 C1963 1.393 . S
C1960 H1949 0.950 . S
C1960 C1958 1.391 . S
C1960 C1961 1.400 . S
C1961 C1955 1.491 . S
C1961 C1960 1.400 . S
C1961 C1962 1.398 . S
C1962 H1950 0.950 . S
C1962 C1961 1.398 . S
C1962 C1963 1.391 . S
C1963 H1951 0.950 . S
C1963 C1959 1.393 . S
C1963 C1962 1.391 . S
H1964 C1972 0.950 . S
H1965 C1977 0.950 . S
H1966 C1974 0.950 . S
H1967 C1976 0.950 . S
H1968 C1978 0.950 . S
H1969 C1980 0.950 . S
H1970 C1982 0.950 . S
H1971 C1983 0.950 . S
C1972 H1964 0.950 . S
C1972 C1973 1.386 . S
C1972 C1974 1.391 . S
C1973 C1972 1.386 . S
C1973 C1977 1.393 . S
C1974 H1966 0.950 . S
C1974 C1972 1.391 . S
C1974 C1975 1.400 . S
C1975 C1974 1.400 . S
C1975 C1976 1.398 . S
C1975 C1981 1.491 . S
C1976 H1967 0.950 . S
C1976 C1975 1.398 . S
C1976 C1977 1.391 . S
C1977 H1965 0.950 . S
C1977 C1973 1.393 . S
C1977 C1976 1.391 . S
C1978 H1968 0.950 . S
C1978 C1979 1.386 . S
C1978 C1980 1.391 . S
C1979 C1978 1.386 . S
C1979 C1983 1.393 . S
C1980 H1969 0.950 . S
C1980 C1978 1.391 . S
C1980 C1981 1.400 . S
C1981 C1975 1.491 . S
C1981 C1980 1.400 . S
C1981 C1982 1.398 . S
C1982 H1970 0.950 . S
C1982 C1981 1.398 . S
C1982 C1983 1.391 . S
C1983 H1971 0.950 . S
C1983 C1979 1.393 . S
C1983 C1982 1.391 . S
H1984 C1992 0.950 . S
H1985 C1997 0.950 . S
H1986 C1994 0.950 . S
H1987 C1996 0.950 . S
H1988 C1998 0.950 . S
H1989 C2000 0.950 . S
H1990 C2002 0.950 . S
H1991 C2003 0.950 . S
C1992 H1984 0.950 . S
C1992 C1993 1.386 . S
C1992 C1994 1.391 . S
C1993 C1992 1.386 . S
C1993 C1997 1.393 . S
C1994 H1986 0.950 . S
C1994 C1992 1.391 . S
C1994 C1995 1.400 . S
C1995 C1994 1.400 . S
C1995 C1996 1.398 . S
C1995 C2001 1.491 . S
C1996 H1987 0.950 . S
C1996 C1995 1.398 . S
C1996 C1997 1.391 . S
C1997 H1985 0.950 . S
C1997 C1993 1.393 . S
C1997 C1996 1.391 . S
C1998 H1988 0.950 . S
C1998 C1999 1.386 . S
C1998 C2000 1.391 . S
C1999 C1998 1.386 . S
C1999 C2003 1.393 . S
C2000 H1989 0.950 . S
C2000 C1998 1.391 . S
C2000 C2001 1.400 . S
C2001 C1995 1.491 . S
C2001 C2000 1.400 . S
C2001 C2002 1.398 . S
C2002 H1990 0.950 . S
C2002 C2001 1.398 . S
C2002 C2003 1.391 . S
C2003 H1991 0.950 . S
C2003 C1999 1.393 . S
C2003 C2002 1.391 . S
H2004 C2012 0.950 . S
H2005 C2017 0.950 . S
H2006 C2014 0.950 . S
H2007 C2016 0.950 . S
H2008 C2018 0.950 . S
H2009 C2020 0.950 . S
H2010 C2022 0.950 . S
H2011 C2023 0.950 . S
C2012 H2004 0.950 . S
C2012 C2013 1.386 . S
C2012 C2014 1.391 . S
C2013 C2012 1.386 . S
C2013 C2017 1.393 . S
C2014 H2006 0.950 . S
C2014 C2012 1.391 . S
C2014 C2015 1.400 . S
C2015 C2014 1.400 . S
C2015 C2016 1.398 . S
C2015 C2021 1.491 . S
C2016 H2007 0.950 . S
C2016 C2015 1.398 . S
C2016 C2017 1.391 . S
C2017 H2005 0.950 . S
C2017 C2013 1.393 . S
C2017 C2016 1.391 . S
C2018 H2008 0.950 . S
C2018 C2019 1.386 . S
C2018 C2020 1.391 . S
C2019 C2018 1.386 . S
C2019 C2023 1.393 . S
C2020 H2009 0.950 . S
C2020 C2018 1.391 . S
C2020 C2021 1.400 . S
C2021 C2015 1.491 . S
C2021 C2020 1.400 . S
C2021 C2022 1.398 . S
C2022 H2010 0.950 . S
C2022 C2021 1.398 . S
C2022 C2023 1.391 . S
C2023 H2011 0.950 . S
C2023 C2019 1.393 . S
C2023 C2022 1.391 . S
H2024 C2032 0.950 . S
H2025 C2037 0.950 . S
H2026 C2034 0.950 . S
H2027 C2036 0.950 . S
H2028 C2038 0.950 . S
H2029 C2040 0.950 . S
H2030 C2042 0.950 . S
H2031 C2043 0.950 . S
C2032 H2024 0.950 . S
C2032 C2033 1.386 . S
C2032 C2034 1.391 . S
C2033 C2032 1.386 . S
C2033 C2037 1.393 . S
C2034 H2026 0.950 . S
C2034 C2032 1.391 . S
C2034 C2035 1.400 . S
C2035 C2034 1.400 . S
C2035 C2036 1.398 . S
C2035 C2041 1.491 . S
C2036 H2027 0.950 . S
C2036 C2035 1.398 . S
C2036 C2037 1.391 . S
C2037 H2025 0.950 . S
C2037 C2033 1.393 . S
C2037 C2036 1.391 . S
C2038 H2028 0.950 . S
C2038 C2039 1.386 . S
C2038 C2040 1.391 . S
C2039 C2038 1.386 . S
C2039 C2043 1.393 . S
C2040 H2029 0.950 . S
C2040 C2038 1.391 . S
C2040 C2041 1.400 . S
C2041 C2035 1.491 . S
C2041 C2040 1.400 . S
C2041 C2042 1.398 . S
C2042 H2030 0.950 . S
C2042 C2041 1.398 . S
C2042 C2043 1.391 . S
C2043 H2031 0.950 . S
C2043 C2039 1.393 . S
C2043 C2042 1.391 . S
H2044 C2052 0.950 . S
H2045 C2057 0.950 . S
H2046 C2054 0.950 . S
H2047 C2056 0.950 . S
H2048 C2058 0.950 . S
H2049 C2060 0.950 . S
H2050 C2062 0.950 . S
H2051 C2063 0.950 . S
C2052 H2044 0.950 . S
C2052 C2053 1.386 . S
C2052 C2054 1.391 . S
C2053 C2052 1.386 . S
C2053 C2057 1.393 . S
C2054 H2046 0.950 . S
C2054 C2052 1.391 . S
C2054 C2055 1.400 . S
C2055 C2054 1.400 . S
C2055 C2056 1.398 . S
C2055 C2061 1.491 . S
C2056 H2047 0.950 . S
C2056 C2055 1.398 . S
C2056 C2057 1.391 . S
C2057 H2045 0.950 . S
C2057 C2053 1.393 . S
C2057 C2056 1.391 . S
C2058 H2048 0.950 . S
C2058 C2059 1.386 . S
C2058 C2060 1.391 . S
C2059 C2058 1.386 . S
C2059 C2063 1.393 . S
C2060 H2049 0.950 . S
C2060 C2058 1.391 . S
C2060 C2061 1.400 . S
C2061 C2055 1.491 . S
C2061 C2060 1.400 . S
C2061 C2062 1.398 . S
C2062 H2050 0.950 . S
C2062 C2061 1.398 . S
C2062 C2063 1.391 . S
C2063 H2051 0.950 . S
C2063 C2059 1.393 . S
C2063 C2062 1.391 . S
H2064 C2072 0.950 . S
H2065 C2077 0.950 . S
H2066 C2074 0.950 . S
H2067 C2076 0.950 . S
H2068 C2078 0.950 . S
H2069 C2080 0.950 . S
H2070 C2082 0.950 . S
H2071 C2083 0.950 . S
C2072 H2064 0.950 . S
C2072 C2073 1.386 . S
C2072 C2074 1.391 . S
C2073 C2072 1.386 . S
C2073 C2077 1.393 . S
C2074 H2066 0.950 . S
C2074 C2072 1.391 . S
C2074 C2075 1.400 . S
C2075 C2074 1.400 . S
C2075 C2076 1.398 . S
C2075 C2081 1.491 . S
C2076 H2067 0.950 . S
C2076 C2075 1.398 . S
C2076 C2077 1.391 . S
C2077 H2065 0.950 . S
C2077 C2073 1.393 . S
C2077 C2076 1.391 . S
C2078 H2068 0.950 . S
C2078 C2079 1.386 . S
C2078 C2080 1.391 . S
C2079 C2078 1.386 . S
C2079 C2083 1.393 . S
C2080 H2069 0.950 . S
C2080 C2078 1.391 . S
C2080 C2081 1.400 . S
C2081 C2075 1.491 . S
C2081 C2080 1.400 . S
C2081 C2082 1.398 . S
C2082 H2070 0.950 . S
C2082 C2081 1.398 . S
C2082 C2083 1.391 . S
C2083 H2071 0.950 . S
C2083 C2079 1.393 . S
C2083 C2082 1.391 . S
H2084 C2092 0.950 . S
H2085 C2097 0.950 . S
H2086 C2094 0.950 . S
H2087 C2096 0.950 . S
H2088 C2098 0.950 . S
H2089 C2100 0.950 . S
H2090 C2102 0.950 . S
H2091 C2103 0.950 . S
C2092 H2084 0.950 . S
C2092 C2093 1.386 . S
C2092 C2094 1.391 . S
C2093 C2092 1.386 . S
C2093 C2097 1.393 . S
C2094 H2086 0.950 . S
C2094 C2092 1.391 . S
C2094 C2095 1.400 . S
C2095 C2094 1.400 . S
C2095 C2096 1.398 . S
C2095 C2101 1.491 . S
C2096 H2087 0.950 . S
C2096 C2095 1.398 . S
C2096 C2097 1.391 . S
C2097 H2085 0.950 . S
C2097 C2093 1.393 . S
C2097 C2096 1.391 . S
C2098 H2088 0.950 . S
C2098 C2099 1.386 . S
C2098 C2100 1.391 . S
C2099 C2098 1.386 . S
C2099 C2103 1.393 . S
C2100 H2089 0.950 . S
C2100 C2098 1.391 . S
C2100 C2101 1.400 . S
C2101 C2095 1.491 . S
C2101 C2100 1.400 . S
C2101 C2102 1.398 . S
C2102 H2090 0.950 . S
C2102 C2101 1.398 . S
C2102 C2103 1.391 . S
C2103 H2091 0.950 . S
C2103 C2099 1.393 . S
C2103 C2102 1.391 . S
H2104 C2112 0.950 . S
H2105 C2117 0.950 . S
H2106 C2114 0.950 . S
H2107 C2116 0.950 . S
H2108 C2118 0.950 . S
H2109 C2120 0.950 . S
H2110 C2122 0.950 . S
H2111 C2123 0.950 . S
C2112 H2104 0.950 . S
C2112 C2113 1.386 . S
C2112 C2114 1.391 . S
C2113 C2112 1.386 . S
C2113 C2117 1.393 . S
C2114 H2106 0.950 . S
C2114 C2112 1.391 . S
C2114 C2115 1.400 . S
C2115 C2114 1.400 . S
C2115 C2116 1.398 . S
C2115 C2121 1.491 . S
C2116 H2107 0.950 . S
C2116 C2115 1.398 . S
C2116 C2117 1.391 . S
C2117 H2105 0.950 . S
C2117 C2113 1.393 . S
C2117 C2116 1.391 . S
C2118 H2108 0.950 . S
C2118 C2119 1.386 . S
C2118 C2120 1.391 . S
C2119 C2118 1.386 . S
C2119 C2123 1.393 . S
C2120 H2109 0.950 . S
C2120 C2118 1.391 . S
C2120 C2121 1.400 . S
C2121 C2115 1.491 . S
C2121 C2120 1.400 . S
C2121 C2122 1.398 . S
C2122 H2110 0.950 . S
C2122 C2121 1.398 . S
C2122 C2123 1.391 . S
C2123 H2111 0.950 . S
C2123 C2119 1.393 . S
C2123 C2122 1.391 . S
H2124 C2132 0.950 . S
H2125 C2137 0.950 . S
H2126 C2134 0.950 . S
H2127 C2136 0.950 . S
H2128 C2138 0.950 . S
H2129 C2140 0.950 . S
H2130 C2142 0.950 . S
H2131 C2143 0.950 . S
C2132 H2124 0.950 . S
C2132 C2133 1.386 . S
C2132 C2134 1.391 . S
C2133 C2132 1.386 . S
C2133 C2137 1.393 . S
C2134 H2126 0.950 . S
C2134 C2132 1.391 . S
C2134 C2135 1.400 . S
C2135 C2134 1.400 . S
C2135 C2136 1.398 . S
C2135 C2141 1.491 . S
C2136 H2127 0.950 . S
C2136 C2135 1.398 . S
C2136 C2137 1.391 . S
C2137 H2125 0.950 . S
C2137 C2133 1.393 . S
C2137 C2136 1.391 . S
C2138 H2128 0.950 . S
C2138 C2139 1.386 . S
C2138 C2140 1.391 . S
C2139 C2138 1.386 . S
C2139 C2143 1.393 . S
C2140 H2129 0.950 . S
C2140 C2138 1.391 . S
C2140 C2141 1.400 . S
C2141 C2135 1.491 . S
C2141 C2140 1.400 . S
C2141 C2142 1.398 . S
C2142 H2130 0.950 . S
C2142 C2141 1.398 . S
C2142 C2143 1.391 . S
C2143 H2131 0.950 . S
C2143 C2139 1.393 . S
C2143 C2142 1.391 . S
H2144 C2152 0.950 . S
H2145 C2157 0.950 . S
H2146 C2154 0.950 . S
H2147 C2156 0.950 . S
H2148 C2158 0.950 . S
H2149 C2160 0.950 . S
H2150 C2162 0.950 . S
H2151 C2163 0.950 . S
C2152 H2144 0.950 . S
C2152 C2153 1.386 . S
C2152 C2154 1.391 . S
C2153 C2152 1.386 . S
C2153 C2157 1.393 . S
C2154 H2146 0.950 . S
C2154 C2152 1.391 . S
C2154 C2155 1.400 . S
C2155 C2154 1.400 . S
C2155 C2156 1.398 . S
C2155 C2161 1.491 . S
C2156 H2147 0.950 . S
C2156 C2155 1.398 . S
C2156 C2157 1.391 . S
C2157 H2145 0.950 . S
C2157 C2153 1.393 . S
C2157 C2156 1.391 . S
C2158 H2148 0.950 . S
C2158 C2159 1.386 . S
C2158 C2160 1.391 . S
C2159 C2158 1.386 . S
C2159 C2163 1.393 . S
C2160 H2149 0.950 . S
C2160 C2158 1.391 . S
C2160 C2161 1.400 . S
C2161 C2155 1.491 . S
C2161 C2160 1.400 . S
C2161 C2162 1.398 . S
C2162 H2150 0.950 . S
C2162 C2161 1.398 . S
C2162 C2163 1.391 . S
C2163 H2151 0.950 . S
C2163 C2159 1.393 . S
C2163 C2162 1.391 . S
H2164 C2172 0.950 . S
H2165 C2177 0.950 . S
H2166 C2174 0.950 . S
H2167 C2176 0.950 . S
H2168 C2178 0.950 . S
H2169 C2180 0.950 . S
H2170 C2182 0.950 . S
H2171 C2183 0.950 . S
C2172 H2164 0.950 . S
C2172 C2173 1.386 . S
C2172 C2174 1.391 . S
C2173 C2172 1.386 . S
C2173 C2177 1.393 . S
C2174 H2166 0.950 . S
C2174 C2172 1.391 . S
C2174 C2175 1.400 . S
C2175 C2174 1.400 . S
C2175 C2176 1.398 . S
C2175 C2181 1.491 . S
C2176 H2167 0.950 . S
C2176 C2175 1.398 . S
C2176 C2177 1.391 . S
C2177 H2165 0.950 . S
C2177 C2173 1.393 . S
C2177 C2176 1.391 . S
C2178 H2168 0.950 . S
C2178 C2179 1.386 . S
C2178 C2180 1.391 . S
C2179 C2178 1.386 . S
C2179 C2183 1.393 . S
C2180 H2169 0.950 . S
C2180 C2178 1.391 . S
C2180 C2181 1.400 . S
C2181 C2175 1.491 . S
C2181 C2180 1.400 . S
C2181 C2182 1.398 . S
C2182 H2170 0.950 . S
C2182 C2181 1.398 . S
C2182 C2183 1.391 . S
C2183 H2171 0.950 . S
C2183 C2179 1.393 . S
C2183 C2182 1.391 . S
H2184 C2192 0.950 . S
H2185 C2197 0.950 . S
H2186 C2194 0.950 . S
H2187 C2196 0.950 . S
H2188 C2198 0.950 . S
H2189 C2200 0.950 . S
H2190 C2202 0.950 . S
H2191 C2203 0.950 . S
C2192 H2184 0.950 . S
C2192 C2193 1.386 . S
C2192 C2194 1.391 . S
C2193 C2192 1.386 . S
C2193 C2197 1.393 . S
C2194 H2186 0.950 . S
C2194 C2192 1.391 . S
C2194 C2195 1.400 . S
C2195 C2194 1.400 . S
C2195 C2196 1.398 . S
C2195 C2201 1.491 . S
C2196 H2187 0.950 . S
C2196 C2195 1.398 . S
C2196 C2197 1.391 . S
C2197 H2185 0.950 . S
C2197 C2193 1.393 . S
C2197 C2196 1.391 . S
C2198 H2188 0.950 . S
C2198 C2199 1.386 . S
C2198 C2200 1.391 . S
C2199 C2198 1.386 . S
C2199 C2203 1.393 . S
C2200 H2189 0.950 . S
C2200 C2198 1.391 . S
C2200 C2201 1.400 . S
C2201 C2195 1.491 . S
C2201 C2200 1.400 . S
C2201 C2202 1.398 . S
C2202 H2190 0.950 . S
C2202 C2201 1.398 . S
C2202 C2203 1.391 . S
C2203 H2191 0.950 . S
C2203 C2199 1.393 . S
C2203 C2202 1.391 . S
H2204 C2212 0.950 . S
H2205 C2217 0.950 . S
H2206 C2214 0.950 . S
H2207 C2216 0.950 . S
H2208 C2218 0.950 . S
H2209 C2220 0.950 . S
H2210 C2222 0.950 . S
H2211 C2223 0.950 . S
C2212 H2204 0.950 . S
C2212 C2213 1.386 . S
C2212 C2214 1.391 . S
C2213 C2212 1.386 . S
C2213 C2217 1.393 . S
C2214 H2206 0.950 . S
C2214 C2212 1.391 . S
C2214 C2215 1.400 . S
C2215 C2214 1.400 . S
C2215 C2216 1.398 . S
C2215 C2221 1.491 . S
C2216 H2207 0.950 . S
C2216 C2215 1.398 . S
C2216 C2217 1.391 . S
C2217 H2205 0.950 . S
C2217 C2213 1.393 . S
C2217 C2216 1.391 . S
C2218 H2208 0.950 . S
C2218 C2219 1.386 . S
C2218 C2220 1.391 . S
C2219 C2218 1.386 . S
C2219 C2223 1.393 . S
C2220 H2209 0.950 . S
C2220 C2218 1.391 . S
C2220 C2221 1.400 . S
C2221 C2215 1.491 . S
C2221 C2220 1.400 . S
C2221 C2222 1.398 . S
C2222 H2210 0.950 . S
C2222 C2221 1.398 . S
C2222 C2223 1.391 . S
C2223 H2211 0.950 . S
C2223 C2219 1.393 . S
C2223 C2222 1.391 . S
H2224 C2232 0.950 . S
H2225 C2237 0.950 . S
H2226 C2234 0.950 . S
H2227 C2236 0.950 . S
H2228 C2238 0.950 . S
H2229 C2240 0.950 . S
H2230 C2242 0.950 . S
H2231 C2243 0.950 . S
C2232 H2224 0.950 . S
C2232 C2233 1.386 . S
C2232 C2234 1.391 . S
C2233 C2232 1.386 . S
C2233 C2237 1.393 . S
C2234 H2226 0.950 . S
C2234 C2232 1.391 . S
C2234 C2235 1.400 . S
C2235 C2234 1.400 . S
C2235 C2236 1.398 . S
C2235 C2241 1.491 . S
C2236 H2227 0.950 . S
C2236 C2235 1.398 . S
C2236 C2237 1.391 . S
C2237 H2225 0.950 . S
C2237 C2233 1.393 . S
C2237 C2236 1.391 . S
C2238 H2228 0.950 . S
C2238 C2239 1.386 . S
C2238 C2240 1.391 . S
C2239 C2238 1.386 . S
C2239 C2243 1.393 . S
C2240 H2229 0.950 . S
C2240 C2238 1.391 . S
C2240 C2241 1.400 . S
C2241 C2235 1.491 . S
C2241 C2240 1.400 . S
C2241 C2242 1.398 . S
C2242 H2230 0.950 . S
C2242 C2241 1.398 . S
C2242 C2243 1.391 . S
C2243 H2231 0.950 . S
C2243 C2239 1.393 . S
C2243 C2242 1.391 . S
H2244 C2252 0.950 . S
H2245 C2257 0.950 . S
H2246 C2254 0.950 . S
H2247 C2256 0.950 . S
H2248 C2258 0.950 . S
H2249 C2260 0.950 . S
H2250 C2262 0.950 . S
H2251 C2263 0.950 . S
C2252 H2244 0.950 . S
C2252 C2253 1.386 . S
C2252 C2254 1.391 . S
C2253 C2252 1.386 . S
C2253 C2257 1.393 . S
C2254 H2246 0.950 . S
C2254 C2252 1.391 . S
C2254 C2255 1.400 . S
C2255 C2254 1.400 . S
C2255 C2256 1.398 . S
C2255 C2261 1.491 . S
C2256 H2247 0.950 . S
C2256 C2255 1.398 . S
C2256 C2257 1.391 . S
C2257 H2245 0.950 . S
C2257 C2253 1.393 . S
C2257 C2256 1.391 . S
C2258 H2248 0.950 . S
C2258 C2259 1.386 . S
C2258 C2260 1.391 . S
C2259 C2258 1.386 . S
C2259 C2263 1.393 . S
C2260 H2249 0.950 . S
C2260 C2258 1.391 . S
C2260 C2261 1.400 . S
C2261 C2255 1.491 . S
C2261 C2260 1.400 . S
C2261 C2262 1.398 . S
C2262 H2250 0.950 . S
C2262 C2261 1.398 . S
C2262 C2263 1.391 . S
C2263 H2251 0.950 . S
C2263 C2259 1.393 . S
C2263 C2262 1.391 . S
H2264 C2272 0.950 . S
H2265 C2277 0.950 . S
H2266 C2274 0.950 . S
H2267 C2276 0.950 . S
H2268 C2278 0.950 . S
H2269 C2280 0.950 . S
H2270 C2282 0.950 . S
H2271 C2283 0.950 . S
C2272 H2264 0.950 . S
C2272 C2273 1.386 . S
C2272 C2274 1.391 . S
C2273 C2272 1.386 . S
C2273 C2277 1.393 . S
C2274 H2266 0.950 . S
C2274 C2272 1.391 . S
C2274 C2275 1.400 . S
C2275 C2274 1.400 . S
C2275 C2276 1.398 . S
C2275 C2281 1.491 . S
C2276 H2267 0.950 . S
C2276 C2275 1.398 . S
C2276 C2277 1.391 . S
C2277 H2265 0.950 . S
C2277 C2273 1.393 . S
C2277 C2276 1.391 . S
C2278 H2268 0.950 . S
C2278 C2279 1.386 . S
C2278 C2280 1.391 . S
C2279 C2278 1.386 . S
C2279 C2283 1.393 . S
C2280 H2269 0.950 . S
C2280 C2278 1.391 . S
C2280 C2281 1.400 . S
C2281 C2275 1.491 . S
C2281 C2280 1.400 . S
C2281 C2282 1.398 . S
C2282 H2270 0.950 . S
C2282 C2281 1.398 . S
C2282 C2283 1.391 . S
C2283 H2271 0.950 . S
C2283 C2279 1.393 . S
C2283 C2282 1.391 . S
H2284 C2292 0.950 . S
H2285 C2297 0.950 . S
H2286 C2294 0.950 . S
H2287 C2296 0.950 . S
H2288 C2298 0.950 . S
H2289 C2300 0.950 . S
H2290 C2302 0.950 . S
H2291 C2303 0.950 . S
C2292 H2284 0.950 . S
C2292 C2293 1.386 . S
C2292 C2294 1.391 . S
C2293 C2292 1.386 . S
C2293 C2297 1.393 . S
C2294 H2286 0.950 . S
C2294 C2292 1.391 . S
C2294 C2295 1.400 . S
C2295 C2294 1.400 . S
C2295 C2296 1.398 . S
C2295 C2301 1.491 . S
C2296 H2287 0.950 . S
C2296 C2295 1.398 . S
C2296 C2297 1.391 . S
C2297 H2285 0.950 . S
C2297 C2293 1.393 . S
C2297 C2296 1.391 . S
C2298 H2288 0.950 . S
C2298 C2299 1.386 . S
C2298 C2300 1.391 . S
C2299 C2298 1.386 . S
C2299 C2303 1.393 . S
C2300 H2289 0.950 . S
C2300 C2298 1.391 . S
C2300 C2301 1.400 . S
C2301 C2295 1.491 . S
C2301 C2300 1.400 . S
C2301 C2302 1.398 . S
C2302 H2290 0.950 . S
C2302 C2301 1.398 . S
C2302 C2303 1.391 . S
C2303 H2291 0.950 . S
C2303 C2299 1.393 . S
C2303 C2302 1.391 . S
H2304 C2312 0.950 . S
H2305 C2317 0.950 . S
H2306 C2314 0.950 . S
H2307 C2316 0.950 . S
H2308 C2318 0.950 . S
H2309 C2320 0.950 . S
H2310 C2322 0.950 . S
H2311 C2323 0.950 . S
C2312 H2304 0.950 . S
C2312 C2313 1.386 . S
C2312 C2314 1.391 . S
C2313 C2312 1.386 . S
C2313 C2317 1.393 . S
C2314 H2306 0.950 . S
C2314 C2312 1.391 . S
C2314 C2315 1.400 . S
C2315 C2314 1.400 . S
C2315 C2316 1.398 . S
C2315 C2321 1.491 . S
C2316 H2307 0.950 . S
C2316 C2315 1.398 . S
C2316 C2317 1.391 . S
C2317 H2305 0.950 . S
C2317 C2313 1.393 . S
C2317 C2316 1.391 . S
C2318 H2308 0.950 . S
C2318 C2319 1.386 . S
C2318 C2320 1.391 . S
C2319 C2318 1.386 . S
C2319 C2323 1.393 . S
C2320 H2309 0.950 . S
C2320 C2318 1.391 . S
C2320 C2321 1.400 . S
C2321 C2315 1.491 . S
C2321 C2320 1.400 . S
C2321 C2322 1.398 . S
C2322 H2310 0.950 . S
C2322 C2321 1.398 . S
C2322 C2323 1.391 . S
C2323 H2311 0.950 . S
C2323 C2319 1.393 . S
C2323 C2322 1.391 . S
H2324 C2332 0.950 . S
H2325 C2337 0.950 . S
H2326 C2334 0.950 . S
H2327 C2336 0.950 . S
H2328 C2338 0.950 . S
H2329 C2340 0.950 . S
H2330 C2342 0.950 . S
H2331 C2343 0.950 . S
C2332 H2324 0.950 . S
C2332 C2333 1.386 . S
C2332 C2334 1.391 . S
C2333 C2332 1.386 . S
C2333 C2337 1.393 . S
C2334 H2326 0.950 . S
C2334 C2332 1.391 . S
C2334 C2335 1.400 . S
C2335 C2334 1.400 . S
C2335 C2336 1.398 . S
C2335 C2341 1.491 . S
C2336 H2327 0.950 . S
C2336 C2335 1.398 . S
C2336 C2337 1.391 . S
C2337 H2325 0.950 . S
C2337 C2333 1.393 . S
C2337 C2336 1.391 . S
C2338 H2328 0.950 . S
C2338 C2339 1.386 . S
C2338 C2340 1.391 . S
C2339 C2338 1.386 . S
C2339 C2343 1.393 . S
C2340 H2329 0.950 . S
C2340 C2338 1.391 . S
C2340 C2341 1.400 . S
C2341 C2335 1.491 . S
C2341 C2340 1.400 . S
C2341 C2342 1.398 . S
C2342 H2330 0.950 . S
C2342 C2341 1.398 . S
C2342 C2343 1.391 . S
C2343 H2331 0.950 . S
C2343 C2339 1.393 . S
C2343 C2342 1.391 . S
H2344 C2352 0.950 . S
H2345 C2357 0.950 . S
H2346 C2354 0.950 . S
H2347 C2356 0.950 . S
H2348 C2358 0.950 . S
H2349 C2360 0.950 . S
H2350 C2362 0.950 . S
H2351 C2363 0.950 . S
C2352 H2344 0.950 . S
C2352 C2353 1.386 . S
C2352 C2354 1.391 . S
C2353 C2352 1.386 . S
C2353 C2357 1.393 . S
C2354 H2346 0.950 . S
C2354 C2352 1.391 . S
C2354 C2355 1.400 . S
C2355 C2354 1.400 . S
C2355 C2356 1.398 . S
C2355 C2361 1.491 . S
C2356 H2347 0.950 . S
C2356 C2355 1.398 . S
C2356 C2357 1.391 . S
C2357 H2345 0.950 . S
C2357 C2353 1.393 . S
C2357 C2356 1.391 . S
C2358 H2348 0.950 . S
C2358 C2359 1.386 . S
C2358 C2360 1.391 . S
C2359 C2358 1.386 . S
C2359 C2363 1.393 . S
C2360 H2349 0.950 . S
C2360 C2358 1.391 . S
C2360 C2361 1.400 . S
C2361 C2355 1.491 . S
C2361 C2360 1.400 . S
C2361 C2362 1.398 . S
C2362 H2350 0.950 . S
C2362 C2361 1.398 . S
C2362 C2363 1.391 . S
C2363 H2351 0.950 . S
C2363 C2359 1.393 . S
C2363 C2362 1.391 . S
H2364 C2372 0.950 . S
H2365 C2377 0.950 . S
H2366 C2374 0.950 . S
H2367 C2376 0.950 . S
H2368 C2378 0.950 . S
H2369 C2380 0.950 . S
H2370 C2382 0.950 . S
H2371 C2383 0.950 . S
C2372 H2364 0.950 . S
C2372 C2373 1.386 . S
C2372 C2374 1.391 . S
C2373 C2372 1.386 . S
C2373 C2377 1.393 . S
C2374 H2366 0.950 . S
C2374 C2372 1.391 . S
C2374 C2375 1.400 . S
C2375 C2374 1.400 . S
C2375 C2376 1.398 . S
C2375 C2381 1.491 . S
C2376 H2367 0.950 . S
C2376 C2375 1.398 . S
C2376 C2377 1.391 . S
C2377 H2365 0.950 . S
C2377 C2373 1.393 . S
C2377 C2376 1.391 . S
C2378 H2368 0.950 . S
C2378 C2379 1.386 . S
C2378 C2380 1.391 . S
C2379 C2378 1.386 . S
C2379 C2383 1.393 . S
C2380 H2369 0.950 . S
C2380 C2378 1.391 . S
C2380 C2381 1.400 . S
C2381 C2375 1.491 . S
C2381 C2380 1.400 . S
C2381 C2382 1.398 . S
C2382 H2370 0.950 . S
C2382 C2381 1.398 . S
C2382 C2383 1.391 . S
C2383 H2371 0.950 . S
C2383 C2379 1.393 . S
C2383 C2382 1.391 . S
H2384 C2392 0.950 . S
H2385 C2397 0.950 . S
H2386 C2394 0.950 . S
H2387 C2396 0.950 . S
H2388 C2398 0.950 . S
H2389 C2400 0.950 . S
H2390 C2402 0.950 . S
H2391 C2403 0.950 . S
C2392 H2384 0.950 . S
C2392 C2393 1.386 . S
C2392 C2394 1.391 . S
C2393 C2392 1.386 . S
C2393 C2397 1.393 . S
C2394 H2386 0.950 . S
C2394 C2392 1.391 . S
C2394 C2395 1.400 . S
C2395 C2394 1.400 . S
C2395 C2396 1.398 . S
C2395 C2401 1.491 . S
C2396 H2387 0.950 . S
C2396 C2395 1.398 . S
C2396 C2397 1.391 . S
C2397 H2385 0.950 . S
C2397 C2393 1.393 . S
C2397 C2396 1.391 . S
C2398 H2388 0.950 . S
C2398 C2399 1.386 . S
C2398 C2400 1.391 . S
C2399 C2398 1.386 . S
C2399 C2403 1.393 . S
C2400 H2389 0.950 . S
C2400 C2398 1.391 . S
C2400 C2401 1.400 . S
C2401 C2395 1.491 . S
C2401 C2400 1.400 . S
C2401 C2402 1.398 . S
C2402 H2390 0.950 . S
C2402 C2401 1.398 . S
C2402 C2403 1.391 . S
C2403 H2391 0.950 . S
C2403 C2399 1.393 . S
C2403 C2402 1.391 . S
H2404 C2412 0.950 . S
H2405 C2417 0.950 . S
H2406 C2414 0.950 . S
H2407 C2416 0.950 . S
H2408 C2418 0.950 . S
H2409 C2420 0.950 . S
H2410 C2422 0.950 . S
H2411 C2423 0.950 . S
C2412 H2404 0.950 . S
C2412 C2413 1.386 . S
C2412 C2414 1.391 . S
C2413 C2412 1.386 . S
C2413 C2417 1.393 . S
C2414 H2406 0.950 . S
C2414 C2412 1.391 . S
C2414 C2415 1.400 . S
C2415 C2414 1.400 . S
C2415 C2416 1.398 . S
C2415 C2421 1.491 . S
C2416 H2407 0.950 . S
C2416 C2415 1.398 . S
C2416 C2417 1.391 . S
C2417 H2405 0.950 . S
C2417 C2413 1.393 . S
C2417 C2416 1.391 . S
C2418 H2408 0.950 . S
C2418 C2419 1.386 . S
C2418 C2420 1.391 . S
C2419 C2418 1.386 . S
C2419 C2423 1.393 . S
C2420 H2409 0.950 . S
C2420 C2418 1.391 . S
C2420 C2421 1.400 . S
C2421 C2415 1.491 . S
C2421 C2420 1.400 . S
C2421 C2422 1.398 . S
C2422 H2410 0.950 . S
C2422 C2421 1.398 . S
C2422 C2423 1.391 . S
C2423 H2411 0.950 . S
C2423 C2419 1.393 . S
C2423 C2422 1.391 . S
H2424 C2432 0.950 . S
H2425 C2437 0.950 . S
H2426 C2434 0.950 . S
H2427 C2436 0.950 . S
H2428 C2438 0.950 . S
H2429 C2440 0.950 . S
H2430 C2442 0.950 . S
H2431 C2443 0.950 . S
C2432 H2424 0.950 . S
C2432 C2433 1.386 . S
C2432 C2434 1.391 . S
C2433 C2432 1.386 . S
C2433 C2437 1.393 . S
C2434 H2426 0.950 . S
C2434 C2432 1.391 . S
C2434 C2435 1.400 . S
C2435 C2434 1.400 . S
C2435 C2436 1.398 . S
C2435 C2441 1.491 . S
C2436 H2427 0.950 . S
C2436 C2435 1.398 . S
C2436 C2437 1.391 . S
C2437 H2425 0.950 . S
C2437 C2433 1.393 . S
C2437 C2436 1.391 . S
C2438 H2428 0.950 . S
C2438 C2439 1.386 . S
C2438 C2440 1.391 . S
C2439 C2438 1.386 . S
C2439 C2443 1.393 . S
C2440 H2429 0.950 . S
C2440 C2438 1.391 . S
C2440 C2441 1.400 . S
C2441 C2435 1.491 . S
C2441 C2440 1.400 . S
C2441 C2442 1.398 . S
C2442 H2430 0.950 . S
C2442 C2441 1.398 . S
C2442 C2443 1.391 . S
C2443 H2431 0.950 . S
C2443 C2439 1.393 . S
C2443 C2442 1.391 . S
H2444 C2452 0.950 . S
H2445 C2457 0.950 . S
H2446 C2454 0.950 . S
H2447 C2456 0.950 . S
H2448 C2458 0.950 . S
H2449 C2460 0.950 . S
H2450 C2462 0.950 . S
H2451 C2463 0.950 . S
C2452 H2444 0.950 . S
C2452 C2453 1.386 . S
C2452 C2454 1.391 . S
C2453 C2452 1.386 . S
C2453 C2457 1.393 . S
C2454 H2446 0.950 . S
C2454 C2452 1.391 . S
C2454 C2455 1.400 . S
C2455 C2454 1.400 . S
C2455 C2456 1.398 . S
C2455 C2461 1.491 . S
C2456 H2447 0.950 . S
C2456 C2455 1.398 . S
C2456 C2457 1.391 . S
C2457 H2445 0.950 . S
C2457 C2453 1.393 . S
C2457 C2456 1.391 . S
C2458 H2448 0.950 . S
C2458 C2459 1.386 . S
C2458 C2460 1.391 . S
C2459 C2458 1.386 . S
C2459 C2463 1.393 . S
C2460 H2449 0.950 . S
C2460 C2458 1.391 . S
C2460 C2461 1.400 . S
C2461 C2455 1.491 . S
C2461 C2460 1.400 . S
C2461 C2462 1.398 . S
C2462 H2450 0.950 . S
C2462 C2461 1.398 . S
C2462 C2463 1.391 . S
C2463 H2451 0.950 . S
C2463 C2459 1.393 . S
C2463 C2462 1.391 . S
H2464 C2472 0.950 . S
H2465 C2477 0.950 . S
H2466 C2474 0.950 . S
H2467 C2476 0.950 . S
H2468 C2478 0.950 . S
H2469 C2480 0.950 . S
H2470 C2482 0.950 . S
H2471 C2483 0.950 . S
C2472 H2464 0.950 . S
C2472 C2473 1.386 . S
C2472 C2474 1.391 . S
C2473 C2472 1.386 . S
C2473 C2477 1.393 . S
C2474 H2466 0.950 . S
C2474 C2472 1.391 . S
C2474 C2475 1.400 . S
C2475 C2474 1.400 . S
C2475 C2476 1.398 . S
C2475 C2481 1.491 . S
C2476 H2467 0.950 . S
C2476 C2475 1.398 . S
C2476 C2477 1.391 . S
C2477 H2465 0.950 . S
C2477 C2473 1.393 . S
C2477 C2476 1.391 . S
C2478 H2468 0.950 . S
C2478 C2479 1.386 . S
C2478 C2480 1.391 . S
C2479 C2478 1.386 . S
C2479 C2483 1.393 . S
C2480 H2469 0.950 . S
C2480 C2478 1.391 . S
C2480 C2481 1.400 . S
C2481 C2475 1.491 . S
C2481 C2480 1.400 . S
C2481 C2482 1.398 . S
C2482 H2470 0.950 . S
C2482 C2481 1.398 . S
C2482 C2483 1.391 . S
C2483 H2471 0.950 . S
C2483 C2479 1.393 . S
C2483 C2482 1.391 . S
H2484 C2492 0.950 . S
H2485 C2497 0.950 . S
H2486 C2494 0.950 . S
H2487 C2496 0.950 . S
H2488 C2498 0.950 . S
H2489 C2500 0.950 . S
H2490 C2502 0.950 . S
H2491 C2503 0.950 . S
C2492 H2484 0.950 . S
C2492 C2493 1.386 . S
C2492 C2494 1.391 . S
C2493 C2492 1.386 . S
C2493 C2497 1.393 . S
C2494 H2486 0.950 . S
C2494 C2492 1.391 . S
C2494 C2495 1.400 . S
C2495 C2494 1.400 . S
C2495 C2496 1.398 . S
C2495 C2501 1.491 . S
C2496 H2487 0.950 . S
C2496 C2495 1.398 . S
C2496 C2497 1.391 . S
C2497 H2485 0.950 . S
C2497 C2493 1.393 . S
C2497 C2496 1.391 . S
C2498 H2488 0.950 . S
C2498 C2499 1.386 . S
C2498 C2500 1.391 . S
C2499 C2498 1.386 . S
C2499 C2503 1.393 . S
C2500 H2489 0.950 . S
C2500 C2498 1.391 . S
C2500 C2501 1.400 . S
C2501 C2495 1.491 . S
C2501 C2500 1.400 . S
C2501 C2502 1.398 . S
C2502 H2490 0.950 . S
C2502 C2501 1.398 . S
C2502 C2503 1.391 . S
C2503 H2491 0.950 . S
C2503 C2499 1.393 . S
C2503 C2502 1.391 . S
H2504 C2512 0.950 . S
H2505 C2517 0.950 . S
H2506 C2514 0.950 . S
H2507 C2516 0.950 . S
H2508 C2518 0.950 . S
H2509 C2520 0.950 . S
H2510 C2522 0.950 . S
H2511 C2523 0.950 . S
C2512 H2504 0.950 . S
C2512 C2513 1.386 . S
C2512 C2514 1.391 . S
C2513 C2512 1.386 . S
C2513 C2517 1.393 . S
C2514 H2506 0.950 . S
C2514 C2512 1.391 . S
C2514 C2515 1.400 . S
C2515 C2514 1.400 . S
C2515 C2516 1.398 . S
C2515 C2521 1.491 . S
C2516 H2507 0.950 . S
C2516 C2515 1.398 . S
C2516 C2517 1.391 . S
C2517 H2505 0.950 . S
C2517 C2513 1.393 . S
C2517 C2516 1.391 . S
C2518 H2508 0.950 . S
C2518 C2519 1.386 . S
C2518 C2520 1.391 . S
C2519 C2518 1.386 . S
C2519 C2523 1.393 . S
C2520 H2509 0.950 . S
C2520 C2518 1.391 . S
C2520 C2521 1.400 . S
C2521 C2515 1.491 . S
C2521 C2520 1.400 . S
C2521 C2522 1.398 . S
C2522 H2510 0.950 . S
C2522 C2521 1.398 . S
C2522 C2523 1.391 . S
C2523 H2511 0.950 . S
C2523 C2519 1.393 . S
C2523 C2522 1.391 . S
H2524 C2532 0.950 . S
H2525 C2537 0.950 . S
H2526 C2534 0.950 . S
H2527 C2536 0.950 . S
H2528 C2538 0.950 . S
H2529 C2540 0.950 . S
H2530 C2542 0.950 . S
H2531 C2543 0.950 . S
C2532 H2524 0.950 . S
C2532 C2533 1.386 . S
C2532 C2534 1.391 . S
C2533 C2532 1.386 . S
C2533 C2537 1.393 . S
C2534 H2526 0.950 . S
C2534 C2532 1.391 . S
C2534 C2535 1.400 . S
C2535 C2534 1.400 . S
C2535 C2536 1.398 . S
C2535 C2541 1.491 . S
C2536 H2527 0.950 . S
C2536 C2535 1.398 . S
C2536 C2537 1.391 . S
C2537 H2525 0.950 . S
C2537 C2533 1.393 . S
C2537 C2536 1.391 . S
C2538 H2528 0.950 . S
C2538 C2539 1.386 . S
C2538 C2540 1.391 . S
C2539 C2538 1.386 . S
C2539 C2543 1.393 . S
C2540 H2529 0.950 . S
C2540 C2538 1.391 . S
C2540 C2541 1.400 . S
C2541 C2535 1.491 . S
C2541 C2540 1.400 . S
C2541 C2542 1.398 . S
C2542 H2530 0.950 . S
C2542 C2541 1.398 . S
C2542 C2543 1.391 . S
C2543 H2531 0.950 . S
C2543 C2539 1.393 . S
C2543 C2542 1.391 . S
C633 C403 1.277 . S
C639 C10 1.339 . S
C653 C13 1.297 . S
C659 C374 1.338 . S
C673 C36 1.338 . S
C679 C377 1.302 . S
C693 C400 1.339 . S
C699 C39 1.275 . S
C713 C325 1.286 . S
C719 C62 1.338 . S
C733 C65 1.280 . S
C739 C348 1.339 . S
C753 C351 1.302 . S
C759 C88 1.338 . S
C773 C91 1.271 . S
C779 C322 1.339 . S
C793 C104 1.001 . S
C799 C572 0.972 . S
C813 C533 1.286 . S
C819 C127 1.338 . S
C833 C546 1.001 . S
C839 C130 0.982 . S
C853 C153 1.339 . S
C859 C559 1.275 . S
C873 C156 0.997 . S
C879 C611 0.967 . S
C893 C179 1.339 . S
C899 C585 1.273 . S
C913 C182 0.963 . S
C919 C598 0.986 . S
C933 C520 1.302 . S
C939 C205 1.338 . S
C953 C517 1.339 . S
C959 C208 1.277 . S
C973 C221 1.278 . S
C979 C439 1.339 . S
C993 C442 0.967 . S
C999 C234 0.997 . S
C1013 C247 1.275 . S
C1019 C465 1.339 . S
C1033 C416 1.001 . S
C1039 C260 0.973 . S
C1053 C491 1.339 . S
C1059 C273 1.272 . S
C1073 C286 0.983 . S
C1079 C494 1.001 . S
C1093 C468 0.980 . S
C1099 C299 0.964 . S
C1113 C122 1.129 . S
C1119 C5 1.104 . S
C1133 C138 1.297 . S
C1139 C21 1.300 . S
C1153 C31 1.128 . S
C1159 C148 1.099 . S
C1173 C112 1.311 . S
C1179 C47 1.314 . S
C1193 C57 1.123 . S
C1199 C200 1.115 . S
C1213 C164 1.294 . S
C1219 C73 1.297 . S
C1233 C174 1.125 . S
C1239 C83 1.099 . S
C1253 C190 1.295 . S
C1259 C99 1.298 . S
C1273 C242 1.310 . S
C1279 C216 1.313 . S
C1293 C294 1.294 . S
C1299 C229 1.297 . S
C1313 C307 1.311 . S
C1319 C255 1.314 . S
C1333 C268 1.305 . S
C1339 C281 1.308 . S
C1353 C434 1.128 . S
C1359 C317 1.107 . S
C1373 C450 1.309 . S
C1379 C333 1.312 . S
C1393 C460 1.128 . S
C1399 C343 1.099 . S
C1413 C359 1.300 . S
C1419 C424 1.297 . S
C1433 C369 1.128 . S
C1439 C512 1.106 . S
C1453 C385 1.302 . S
C1459 C476 1.299 . S
C1473 C486 1.107 . S
C1479 C395 1.111 . S
C1493 C502 1.291 . S
C1499 C411 1.294 . S
C1513 C528 1.306 . S
C1519 C554 1.303 . S
C1533 C606 1.313 . S
C1539 C541 1.316 . S
C1553 C619 1.302 . S
C1559 C567 1.305 . S
C1573 C593 1.303 . S
C1579 C580 1.300 . S
C1593 C0 1.150 . S
C1599 C239 1.133 . S
C1613 C23 1.401 . S
C1619 C252 1.300 . S
C1633 C26 1.136 . S
C1639 C265 1.117 . S
C1653 C226 1.306 . S
C1659 C49 1.402 . S
C1673 C52 1.160 . S
C1679 C291 1.140 . S
C1693 C75 1.402 . S
C1699 C213 1.319 . S
C1713 C304 1.127 . S
C1719 C78 1.144 . S
C1733 C278 1.284 . S
C1739 C101 1.398 . S
C1753 C114 1.322 . S
C1759 C125 1.265 . S
C1773 C117 1.139 . S
C1779 C135 1.110 . S
C1793 C140 1.314 . S
C1799 C151 1.235 . S
C1813 C109 1.115 . S
C1819 C143 1.144 . S
C1833 C203 1.264 . S
C1839 C166 1.320 . S
C1853 C161 1.110 . S
C1859 C169 1.131 . S
C1873 C177 1.269 . S
C1879 C192 1.322 . S
C1893 C195 1.125 . S
C1899 C187 1.099 . S
C1913 C44 1.285 . S
C1919 C218 1.398 . S
C1933 C70 1.321 . S
C1939 C231 1.403 . S
C1953 C86 1.263 . S
C1959 C244 1.322 . S
C1973 C257 1.403 . S
C1979 C96 1.318 . S
C1993 C60 1.264 . S
C1999 C270 1.320 . S
C2013 C18 1.320 . S
C2019 C283 1.403 . S
C2033 C34 1.248 . S
C2039 C296 1.316 . S
C2053 C8 1.235 . S
C2059 C309 1.315 . S
C2073 C551 1.111 . S
C2079 C312 1.131 . S
C2093 C335 1.399 . S
C2099 C564 1.285 . S
C2113 C577 1.130 . S
C2119 C338 1.147 . S
C2133 C538 1.302 . S
C2139 C361 1.400 . S
C2153 C364 1.130 . S
C2159 C603 1.109 . S
C2173 C387 1.401 . S
C2179 C525 1.302 . S
C2193 C616 1.123 . S
C2199 C390 1.141 . S
C2213 C413 1.400 . S
C2219 C590 1.302 . S
C2233 C426 1.315 . S
C2239 C437 1.244 . S
C2253 C429 1.132 . S
C2259 C447 1.102 . S
C2273 C452 1.316 . S
C2279 C463 1.236 . S
C2293 C455 1.126 . S
C2299 C421 1.098 . S
C2313 C515 1.249 . S
C2319 C478 1.316 . S
C2333 C473 1.113 . S
C2339 C481 1.142 . S
C2353 C489 1.249 . S
C2359 C504 1.316 . S
C2373 C507 1.156 . S
C2379 C499 1.139 . S
C2393 C356 1.315 . S
C2399 C530 1.403 . S
C2413 C382 1.307 . S
C2419 C543 1.401 . S
C2433 C398 1.237 . S
C2439 C556 1.316 . S
C2453 C569 1.399 . S
C2459 C408 1.286 . S
C2473 C372 1.236 . S
C2479 C582 1.314 . S
C2493 C330 1.295 . S
C2499 C595 1.400 . S
C2513 C608 1.322 . S
C2519 C346 1.268 . S
C2533 C320 1.233 . S
C2539 C621 1.314 . S
