# Generated by pormake.
# Topology vma, (5)-cn, num edge types: 1
# Building blocks:
#     Node 0, Type 0, BuildingBlock: XOMCOT_clean_sbu_1, # of connection points: 5
#     Node 1, Type 0, BuildingBlock: XOMCOT_clean_sbu_1, # of connection points: 5
#     Node 2, Type 0, BuildingBlock: XOMCOT_clean_sbu_1, # of connection points: 5
#     Node 3, Type 0, BuildingBlock: XOMCOT_clean_sbu_1, # of connection points: 5
#     Node 4, Type 0, BuildingBlock: XOMCOT_clean_sbu_1, # of connection points: 5
#     Node 5, Type 0, BuildingBlock: XOMCOT_clean_sbu_1, # of connection points: 5
#     Node 6, Type 0, BuildingBlock: XOMCOT_clean_sbu_1, # of connection points: 5
#     Node 7, Type 0, BuildingBlock: XOMCOT_clean_sbu_1, # of connection points: 5
#     Edge 8, Type (0, 0), BuildingBlock: ZUJKAS_clean_linker_0, # of connection points: 2
#     Edge 9, Type (0, 0), BuildingBlock: ZUJKAS_clean_linker_0, # of connection points: 2
#     Edge 10, Type (0, 0), BuildingBlock: ZUJKAS_clean_linker_0, # of connection points: 2
#     Edge 11, Type (0, 0), BuildingBlock: ZUJKAS_clean_linker_0, # of connection points: 2
#     Edge 12, Type (0, 0), BuildingBlock: ZUJKAS_clean_linker_0, # of connection points: 2
#     Edge 13, Type (0, 0), BuildingBlock: ZUJKAS_clean_linker_0, # of connection points: 2
#     Edge 14, Type (0, 0), BuildingBlock: ZUJKAS_clean_linker_0, # of connection points: 2
#     Edge 15, Type (0, 0), BuildingBlock: ZUJKAS_clean_linker_0, # of connection points: 2
#     Edge 16, Type (0, 0), BuildingBlock: ZUJKAS_clean_linker_0, # of connection points: 2
#     Edge 17, Type (0, 0), BuildingBlock: ZUJKAS_clean_linker_0, # of connection points: 2
#     Edge 18, Type (0, 0), BuildingBlock: ZUJKAS_clean_linker_0, # of connection points: 2
#     Edge 19, Type (0, 0), BuildingBlock: ZUJKAS_clean_linker_0, # of connection points: 2
#     Edge 20, Type (0, 0), BuildingBlock: ZUJKAS_clean_linker_0, # of connection points: 2
#     Edge 21, Type (0, 0), BuildingBlock: ZUJKAS_clean_linker_0, # of connection points: 2
#     Edge 22, Type (0, 0), BuildingBlock: ZUJKAS_clean_linker_0, # of connection points: 2
#     Edge 23, Type (0, 0), BuildingBlock: ZUJKAS_clean_linker_0, # of connection points: 2
#     Edge 24, Type (0, 0), BuildingBlock: ZUJKAS_clean_linker_0, # of connection points: 2
#     Edge 25, Type (0, 0), BuildingBlock: ZUJKAS_clean_linker_0, # of connection points: 2
#     Edge 26, Type (0, 0), BuildingBlock: ZUJKAS_clean_linker_0, # of connection points: 2
#     Edge 27, Type (0, 0), BuildingBlock: ZUJKAS_clean_linker_0, # of connection points: 2
# Relax obj value: 0.093
# Max RMSD: 0.173
# Mean RMSD: 0.170
data_MOF--net-vma--node1-XOMCOT_clean_sbu_1--edge1-ZUJKAS_clean_linker_0
_symmetry_space_group_name_H-M    P1
_symmetry_Int_Tables_number       1
_symmetry_cell_setting            triclinic
loop_
_symmetry_equiv_pos_as_xyz
'x, y, z'
_cell_length_a     51.929249
_cell_length_b     35.629733
_cell_length_c     46.415988
_cell_angle_alpha  89.904646
_cell_angle_beta   100.28017
_cell_angle_gamma 90.162085
loop_
_atom_site_label
_atom_site_type_symbol
_atom_site_fract_x
_atom_site_fract_y
_atom_site_fract_z
_atom_type_partial_charge
C0 C 0.35351 0.09621 0.31582 0.0
C1 C 0.37363 0.09717 0.30028 0.0
N2 N 0.39627 0.10284 0.3191 0.0
N3 N 0.36315 0.10097 0.34451 0.0
C4 C 0.38931 0.10505 0.34588 0.0
H5 H 0.33303 0.09221 0.30673 0.0
Co6 Co 0.34199 0.10185 0.37349 0.0
C7 C 0.37434 0.05981 0.42304 0.0
O8 O 0.35399 0.04015 0.42733 0.0
N9 N 0.31966 0.10327 0.40266 0.0
C10 C 0.29001 0.08762 0.43015 0.0
C11 C 0.30559 0.07467 0.41146 0.0
C12 C 0.31189 0.13356 0.41675 0.0
N13 N 0.29378 0.12477 0.4334 0.0
O14 O 0.35185 0.15297 0.38171 0.0
H15 H 0.30609 0.04576 0.40463 0.0
H16 H 0.31853 0.16188 0.41411 0.0
O17 O 0.37188 0.08425 0.40253 0.0
C18 C 0.33764 0.17172 0.36148 0.0
O19 O 0.32054 0.15366 0.34208 0.0
N20 N 0.33037 0.05368 0.36191 0.0
C21 C 0.30723 0.99041 0.3328 0.0
C22 C 0.33344 0.98952 0.34731 0.0
C23 C 0.34483 0.02179 0.36157 0.0
C24 C 0.30523 0.05519 0.3472 0.0
C25 C 0.29317 0.02385 0.33297 0.0
H26 H 0.36537 0.0216 0.37114 0.0
H27 H 0.29463 0.0814 0.34612 0.0
H28 H 0.40289 0.11014 0.36603 0.0
H29 H 0.37165 0.09337 0.27687 0.0
H30 H 0.27676 0.07086 0.44043 0.0
H31 H 0.34513 0.96442 0.34716 0.0
H32 H 0.27328 0.02634 0.32117 0.0
C33 C 0.68868 0.12794 0.22821 0.0
C34 C 0.6692 0.12935 0.24471 0.0
N35 N 0.64697 0.11585 0.22853 0.0
N36 N 0.67896 0.11363 0.20166 0.0
C37 C 0.65342 0.10658 0.20241 0.0
H38 H 0.70881 0.13652 0.23521 0.0
Co39 Co 0.69998 0.10565 0.1735 0.0
C40 C 0.66751 0.06292 0.12544 0.0
O41 O 0.68815 0.04344 0.12202 0.0
N42 N 0.72251 0.0982 0.14494 0.0
C43 C 0.75383 0.07721 0.1217 0.0
C44 C 0.73962 0.06991 0.14333 0.0
C45 C 0.72681 0.1221 0.1234 0.0
N46 N 0.74599 0.1103 0.1093 0.0
O47 O 0.69366 0.15625 0.16075 0.0
H48 H 0.74203 0.04512 0.1569 0.0
H49 H 0.7164 0.14817 0.11829 0.0
O50 O 0.6695 0.08795 0.14545 0.0
C51 C 0.71368 0.17492 0.17275 0.0
O52 O 0.73347 0.15695 0.18832 0.0
N53 N 0.70801 0.05846 0.18971 0.0
C54 C 0.72718 -0.00323 0.22359 0.0
C55 C 0.70225 0.99549 0.20583 0.0
C56 C 0.6928 0.02704 0.18913 0.0
C57 C 0.73149 0.06069 0.20815 0.0
C58 C 0.74166 0.03007 0.22482 0.0
H59 H 0.6732 0.02642 0.17657 0.0
H60 H 0.74254 0.08659 0.2096 0.0
H61 H 0.63996 0.09409 0.18451 0.0
H62 H 0.67125 0.13986 0.26686 0.0
H63 H 0.76954 0.06012 0.11643 0.0
H64 H 0.69022 0.97049 0.20493 0.0
H65 H 0.76056 0.03269 0.23901 0.0
C66 C 0.66109 0.9542 0.62191 0.0
C67 C 0.64293 0.97136 0.60088 0.0
N68 N 0.61997 0.95291 0.59894 0.0
N69 N 0.64973 0.92506 0.63333 0.0
C70 C 0.6247 0.92485 0.61888 0.0
H71 H 0.68127 0.96268 0.62877 0.0
Co72 Co 0.66671 0.89405 0.66313 0.0
C73 C 0.62301 0.85238 0.68104 0.0
O74 O 0.63367 0.8207 0.67481 0.0
N75 N 0.68384 0.86313 0.69332 0.0
C76 C 0.69541 0.83663 0.73706 0.0
C77 C 0.68014 0.86368 0.72138 0.0
C78 C 0.70169 0.83576 0.69258 0.0
N79 N 0.70892 0.81896 0.7189 0.0
O80 O 0.66329 0.85243 0.63609 0.0
H81 H 0.66692 0.88238 0.72987 0.0
H82 H 0.70882 0.82759 0.67302 0.0
O83 O 0.63365 0.88348 0.67599 0.0
C84 C 0.68224 0.85608 0.62209 0.0
O85 O 0.69812 0.88482 0.62872 0.0
N86 N 0.67269 0.93553 0.68788 0.0
C87 C 0.68812 0.00161 0.71812 0.0
C88 C 0.66155 0.99145 0.71162 0.0
C89 C 0.65416 0.95826 0.6961 0.0
C90 C 0.69853 0.94461 0.69458 0.0
C91 C 0.70669 0.97731 0.70986 0.0
H92 H 0.63363 0.95174 0.68963 0.0
H93 H 0.71287 0.92673 0.68723 0.0
H94 H 0.61031 0.90437 0.62283 0.0
H95 H 0.64632 -0.00391 0.58851 0.0
H96 H 0.69647 0.83054 0.76009 0.0
H97 H 0.64662 0.00978 0.71727 0.0
H98 H 0.72739 0.98389 0.71466 0.0
C99 C 0.38214 0.94885 0.92711 0.0
C100 C 0.4 0.96629 0.94826 0.0
N101 N 0.42365 0.95051 0.94867 0.0
N102 N 0.39436 0.92229 0.91394 0.0
C103 C 0.41961 0.92374 0.92764 0.0
H104 H 0.36154 0.95541 0.92131 0.0
Co105 Co 0.37764 0.89149 0.88365 0.0
C106 C 0.42073 0.89751 0.84725 0.0
O107 O 0.4068 0.92038 0.82856 0.0
N108 N 0.36041 0.85953 0.85391 0.0
C109 C 0.34569 0.82953 0.8122 0.0
C110 C 0.36304 0.8559 0.8256 0.0
C111 C 0.34118 0.8349 0.85702 0.0
N112 N 0.33191 0.81632 0.83197 0.0
O113 O 0.38446 0.84838 0.90923 0.0
H114 H 0.37621 0.87145 0.81474 0.0
H115 H 0.3337 0.83122 0.87712 0.0
O116 O 0.41146 0.88409 0.86904 0.0
C117 C 0.36868 0.84885 0.92746 0.0
O118 O 0.35215 0.87687 0.92633 0.0
N119 N 0.3679 0.93489 0.8602 0.0
C120 C 0.34773 -6e-05 0.83074 0.0
C121 C 0.37375 -0.00124 0.84541 0.0
C122 C 0.38327 0.9663 0.86062 0.0
C123 C 0.34223 0.9364 0.84698 0.0
C124 C 0.33192 0.96823 0.83173 0.0
H125 H 0.40319 0.96627 0.87247 0.0
H126 H 0.32919 0.91322 0.84886 0.0
H127 H 0.43462 0.9053 0.92239 0.0
H128 H 0.39587 0.9894 0.9618 0.0
H129 H 0.34366 0.82046 0.78966 0.0
H130 H 0.3864 0.02305 0.84588 0.0
H131 H 0.31158 0.96812 0.82109 0.0
C132 C 0.85539 0.61526 0.31343 0.0
C133 C 0.87557 0.61656 0.2979 0.0
N134 N 0.89836 0.61291 0.31681 0.0
N135 N 0.86521 0.6107 0.34209 0.0
C136 C 0.89152 0.60963 0.34355 0.0
H137 H 0.83474 0.61696 0.30436 0.0
Co138 Co 0.84397 0.60523 0.37053 0.0
C139 C 0.87715 0.55941 0.41636 0.0
O140 O 0.85787 0.53565 0.41667 0.0
N141 N 0.82155 0.60018 0.39956 0.0
C142 C 0.79284 0.57859 0.4263 0.0
C143 C 0.80818 0.56955 0.40615 0.0
C144 C 0.81378 0.62744 0.41662 0.0
N145 N 0.7961 0.61525 0.43279 0.0
O146 O 0.85169 0.6558 0.38221 0.0
H147 H 0.80907 0.54191 0.39688 0.0
H148 H 0.82043 0.65611 0.41679 0.0
O149 O 0.87402 0.58744 0.39888 0.0
C150 C 0.83401 0.67505 0.36622 0.0
O151 O 0.81556 0.65749 0.34814 0.0
N152 N 0.83454 0.55771 0.35539 0.0
C153 C 0.81485 0.49598 0.32171 0.0
C154 C 0.84121 0.49707 0.33562 0.0
C155 C 0.85084 0.52861 0.35214 0.0
C156 C 0.80929 0.55766 0.34094 0.0
C157 C 0.7989 0.52685 0.32454 0.0
H158 H 0.87145 0.53023 0.36129 0.0
H159 H 0.79719 0.58212 0.34195 0.0
H160 H 0.90536 0.60556 0.36367 0.0
H161 H 0.87356 0.62009 0.27445 0.0
H162 H 0.78018 0.55936 0.43527 0.0
H163 H 0.85431 0.47409 0.33337 0.0
H164 H 0.77875 0.52782 0.31328 0.0
C165 C 0.19366 0.61842 0.23139 0.0
C166 C 0.17391 0.62175 0.24739 0.0
N167 N 0.15074 0.61671 0.22934 0.0
N168 N 0.18322 0.61112 0.20329 0.0
C169 C 0.15702 0.61036 0.20262 0.0
H170 H 0.21442 0.62058 0.23977 0.0
Co171 Co 0.20347 0.60347 0.17425 0.0
C172 C 0.16892 0.5533 0.13283 0.0
O173 O 0.18741 0.52793 0.13493 0.0
N174 N 0.22476 0.59621 0.14433 0.0
C175 C 0.25211 0.57187 0.11717 0.0
C176 C 0.23717 0.56461 0.13813 0.0
C177 C 0.23252 0.62218 0.12605 0.0
N178 N 0.2494 0.60826 0.10966 0.0
O179 O 0.19529 0.65333 0.16097 0.0
H180 H 0.23612 0.53762 0.14847 0.0
H181 H 0.22666 0.65124 0.12521 0.0
O182 O 0.17284 0.58381 0.14745 0.0
C183 C 0.21409 0.67307 0.1746 0.0
O184 O 0.23411 0.65588 0.19047 0.0
N185 N 0.21354 0.55703 0.19148 0.0
C186 C 0.23399 0.50017 0.23022 0.0
C187 C 0.20743 0.4999 0.21702 0.0
C188 C 0.1974 0.52921 0.19814 0.0
C189 C 0.2392 0.5579 0.20458 0.0
C190 C 0.24992 0.52951 0.22351 0.0
H191 H 0.17657 0.53048 0.19009 0.0
H192 H 0.25134 0.58146 0.20078 0.0
H193 H 0.14285 0.60535 0.18292 0.0
H194 H 0.17662 0.62663 0.27073 0.0
H195 H 0.26424 0.55178 0.10837 0.0
H196 H 0.19433 0.47827 0.2223 0.0
H197 H 0.27049 0.5309 0.23319 0.0
C198 C 0.15994 0.4631 0.62772 0.0
C199 C 0.14269 0.48242 0.60708 0.0
N200 N 0.11924 0.46498 0.60349 0.0
N201 N 0.14754 0.43353 0.63715 0.0
C202 C 0.12283 0.43527 0.62198 0.0
H203 H 0.18028 0.47013 0.63545 0.0
Co204 Co 0.16276 0.39927 0.66537 0.0
C205 C 0.11673 0.35789 0.67839 0.0
O206 O 0.12675 0.32624 0.67105 0.0
N207 N 0.17814 0.36515 0.69381 0.0
C208 C 0.18845 0.33418 0.73577 0.0
C209 C 0.17265 0.36134 0.72101 0.0
C210 C 0.1975 0.34028 0.69263 0.0
N211 N 0.20415 0.32096 0.71794 0.0
O212 O 0.15927 0.36027 0.63605 0.0
H213 H 0.15809 0.37743 0.72961 0.0
H214 H 0.20684 0.3369 0.67376 0.0
O215 O 0.12873 0.3887 0.67588 0.0
C216 C 0.17731 0.36453 0.62085 0.0
O217 O 0.19354 0.39295 0.62699 0.0
N218 N 0.16865 0.43786 0.69288 0.0
C219 C 0.18373 0.49693 0.73148 0.0
C220 C 0.15713 0.49013 0.72049 0.0
C221 C 0.14995 0.46027 0.70109 0.0
C222 C 0.19451 0.44451 0.70294 0.0
C223 C 0.20247 0.47356 0.72249 0.0
H224 H 0.12952 0.45589 0.69204 0.0
H225 H 0.20909 0.42732 0.69535 0.0
H226 H 0.10771 0.41539 0.62483 0.0
H227 H 0.14728 0.5072 0.59546 0.0
H228 H 0.18808 0.32461 0.75783 0.0
H229 H 0.1421 0.5079 0.7266 0.0
H230 H 0.22321 0.47849 0.72969 0.0
C231 C 0.88448 0.44409 0.93197 0.0
C232 C 0.90298 0.46066 0.95301 0.0
N233 N 0.92668 0.4482 0.94959 0.0
N234 N 0.89641 0.42085 0.91561 0.0
C235 C 0.92223 0.42419 0.92673 0.0
H236 H 0.86359 0.44873 0.92873 0.0
Co237 Co 0.87857 0.39173 0.88504 0.0
C238 C 0.92117 0.35196 0.8639 0.0
O239 O 0.91021 0.31994 0.86906 0.0
N240 N 0.86039 0.36288 0.8542 0.0
C241 C 0.84631 0.34025 0.80962 0.0
C242 C 0.86292 0.36546 0.82584 0.0
C243 C 0.842 0.33605 0.85464 0.0
N244 N 0.83317 0.32157 0.82776 0.0
O245 O 0.88294 0.34809 0.91016 0.0
H246 H 0.876 0.3846 0.81743 0.0
H247 H 0.83542 0.32698 0.87433 0.0
O248 O 0.91099 0.38272 0.87034 0.0
C249 C 0.86524 0.34933 0.92603 0.0
O250 O 0.8486 0.37738 0.92216 0.0
N251 N 0.87183 0.43483 0.86229 0.0
C252 C 0.85495 0.50106 0.83306 0.0
C253 C 0.88149 0.49083 0.83742 0.0
C254 C 0.88964 0.45755 0.85246 0.0
C255 C 0.84607 0.44426 0.85809 0.0
C256 C 0.83718 0.47703 0.84336 0.0
H257 H 0.9102 0.45064 0.85683 0.0
H258 H 0.83238 0.42625 0.8666 0.0
H259 H 0.93747 0.40901 0.91859 0.0
H260 H 0.89938 0.4808 0.96927 0.0
H261 H 0.84394 0.33646 0.78618 0.0
H262 H 0.89585 0.50889 0.83011 0.0
H263 H 0.8165 0.48354 0.84019 0.0
H264 H 0.16976 0.28784 0.61887 0.0
H265 H 0.18587 0.24368 0.58526 0.0
H266 H 0.21276 0.33683 0.53903 0.0
H267 H 0.19695 0.38059 0.57226 0.0
H268 H 0.18719 0.27745 0.50201 0.0
H269 H 0.26675 0.22735 0.59026 0.0
H270 H 0.23383 0.22513 0.59741 0.0
H271 H 0.24875 0.26992 0.59366 0.0
C272 C 0.17855 0.29876 0.60108 0.0
C273 C 0.18213 0.3376 0.59816 0.0
C274 C 0.18798 0.27358 0.58212 0.0
C275 C 0.20084 0.28701 0.55988 0.0
C276 C 0.20302 0.32582 0.55605 0.0
H277 H 0.3118 0.1892 0.46144 0.0
H278 H 0.28861 0.22894 0.49177 0.0
C279 C 0.19395 0.35079 0.57508 0.0
C280 C 0.21338 0.26123 0.54134 0.0
H281 H 0.26576 0.20275 0.54299 0.0
C282 C 0.2042 0.26081 0.51099 0.0
C283 C 0.2359 0.24015 0.55303 0.0
C284 C 0.24713 0.24065 0.58533 0.0
C285 C 0.2169 0.23981 0.49205 0.0
C286 C 0.23936 0.21863 0.50375 0.0
C287 C 0.24855 0.21904 0.53408 0.0
C288 C 0.25327 0.19535 0.48484 0.0
C289 C 0.20657 0.24102 0.45955 0.0
C290 C 0.2411 0.16343 0.47092 0.0
C291 C 0.25428 0.14077 0.45376 0.0
C292 C 0.27997 0.14949 0.45007 0.0
C293 C 0.29201 0.18187 0.46369 0.0
C294 C 0.27884 0.20443 0.48113 0.0
H295 H 0.19249 0.26435 0.45349 0.0
H296 H 0.22288 0.24422 0.44717 0.0
H297 H 0.19637 0.21423 0.45269 0.0
H298 H 0.22147 0.15575 0.4736 0.0
H299 H 0.24426 0.11639 0.44328 0.0
H300 H 0.74893 0.18594 0.10283 0.0
H301 H 0.77331 0.22001 0.07055 0.0
H302 H 0.79602 0.11518 0.03633 0.0
H303 H 0.77134 0.08089 0.06823 0.0
H304 H 0.82883 0.21128 0.07091 0.0
H305 H 0.76858 0.17875 0.96213 0.0
H306 H 0.75603 0.17392 0.99582 0.0
H307 H 0.77823 0.13962 0.98613 0.0
C308 C 0.75866 0.17009 0.08809 0.0
C309 C 0.75817 0.1306 0.08825 0.0
C310 C 0.77277 0.18962 0.06977 0.0
C311 C 0.7864 0.17016 0.05094 0.0
C312 C 0.78544 0.13081 0.05046 0.0
H313 H 0.87355 0.27299 0.9231 0.0
H314 H 0.85875 0.22451 0.95461 0.0
C315 C 0.77147 0.11124 0.0689 0.0
C316 C 0.80256 0.19113 0.03286 0.0
H317 H 0.80647 0.21535 0.96248 0.0
C318 C 0.82404 0.21198 0.04719 0.0
C319 C 0.79656 0.19154 1.0019 0.0
C320 C 0.77352 0.17 0.98544 0.0
C321 C 0.83926 0.234 0.03146 0.0
C322 C 0.83252 0.23589 1.00056 0.0
C323 C 0.8117 0.2138 0.98614 0.0
C324 C 0.84447 0.26421 0.98332 0.0
C325 C 0.86227 0.25539 0.04814 0.0
C326 C 0.84162 0.30241 0.98915 0.0
C327 C 0.84994 0.32975 0.97135 0.0
C328 C 0.86133 0.31969 0.94719 0.0
C329 C 0.86521 0.28149 0.94186 0.0
C330 C 0.85658 0.25387 0.95968 0.0
H331 H 0.87027 0.24134 0.06922 0.0
H332 H 0.87817 0.25833 0.03515 0.0
H333 H 0.85579 0.28388 0.05325 0.0
H334 H 0.83189 0.31117 1.0068 0.0
H335 H 0.84658 0.35898 0.97592 0.0
H336 H 0.65971 0.78637 0.60705 0.0
H337 H 0.67324 0.7406 0.57284 0.0
H338 H 0.7328 0.81753 0.55517 0.0
H339 H 0.71922 0.86298 0.58812 0.0
H340 H 0.70661 0.78643 0.50533 0.0
H341 H 0.73887 0.67567 0.5886 0.0
H342 H 0.7054 0.69055 0.58497 0.0
H343 H 0.73135 0.72277 0.59862 0.0
C344 C 0.67553 0.79348 0.59565 0.0
C345 C 0.68842 0.82829 0.60048 0.0
C346 C 0.68341 0.76722 0.57632 0.0
C347 C 0.70434 0.77539 0.56171 0.0
C348 C 0.71667 0.81044 0.56614 0.0
H349 H 0.80901 0.68458 0.45625 0.0
H350 H 0.78463 0.72176 0.48636 0.0
C351 C 0.70885 0.83646 0.58517 0.0
C352 C 0.71403 0.74812 0.54181 0.0
H353 H 0.7461 0.66453 0.54073 0.0
C354 C 0.71502 0.75961 0.51303 0.0
C355 C 0.72507 0.71312 0.55181 0.0
C356 C 0.72538 0.69973 0.58273 0.0
C357 C 0.72729 0.73768 0.49433 0.0
C358 C 0.7391 0.70337 0.50466 0.0
C359 C 0.73719 0.69101 0.53296 0.0
C360 C 0.75406 0.68047 0.48659 0.0
C361 C 0.72774 0.75155 0.46369 0.0
C362 C 0.74525 0.64462 0.4771 0.0
C363 C 0.75903 0.6233 0.45962 0.0
C364 C 0.7822 0.63714 0.45145 0.0
C365 C 0.79116 0.67298 0.46152 0.0
C366 C 0.77724 0.69436 0.47886 0.0
H367 H 0.71267 0.77341 0.45681 0.0
H368 H 0.74721 0.76402 0.46289 0.0
H369 H 0.72448 0.72806 0.44774 0.0
H370 H 0.72743 0.63334 0.48282 0.0
H371 H 0.75111 0.59622 0.45217 0.0
H372 H 0.36116 0.85535 0.98305 0.0
H373 H 0.3462 0.80688 1.01342 0.0
H374 H 0.3529 0.7239 0.94764 0.0
H375 H 0.36809 0.77289 0.91695 0.0
H376 H 0.30324 0.72602 0.9647 0.0
H377 H 0.3817 0.7197 0.06238 0.0
H378 H 0.37144 0.76683 0.05274 0.0
H379 H 0.3868 0.73951 0.02798 0.0
C380 C 0.3603 0.82653 0.97548 0.0
C381 C 0.36615 0.81774 0.94787 0.0
C382 C 0.35174 0.79882 0.99288 0.0
C383 C 0.34864 0.76162 0.98301 0.0
C384 C 0.35539 0.75237 0.95582 0.0
H385 H 0.29644 0.59033 0.09549 0.0
H386 H 0.32029 0.62446 0.06295 0.0
C387 C 0.36433 0.78022 0.93846 0.0
C388 C 0.33586 0.73386 0.99997 0.0
H389 H 0.33944 0.69679 0.06853 0.0
C390 C 0.31134 0.71914 0.98726 0.0
C391 C 0.34641 0.72473 0.02939 0.0
C392 C 0.37316 0.73822 0.04386 0.0
C393 C 0.29665 0.69687 1.00353 0.0
C394 C 0.30658 0.68949 0.03343 0.0
C395 C 0.33161 0.70285 0.04575 0.0
C396 C 0.29133 0.66816 0.0524 0.0
C397 C 0.27058 0.68153 0.98857 0.0
C398 C 0.2671 0.68143 0.05757 0.0
C399 C 0.25325 0.6618 0.07617 0.0
C400 C 0.26336 0.62846 0.09006 0.0
C401 C 0.28771 0.61542 0.08485 0.0
C402 C 0.30154 0.63509 0.06635 0.0
H403 H 0.26909 0.68086 0.96439 0.0
H404 H 0.26731 0.65274 0.99639 0.0
H405 H 0.25473 0.69983 0.99365 0.0
H406 H 0.25902 0.70727 0.04752 0.0
H407 H 0.23457 0.67265 0.07952 0.0
H408 H 0.5986 0.11875 0.19442 0.0
H409 H 0.55629 0.11631 0.21098 0.0
H410 H 0.59617 0.10152 0.30002 0.0
H411 H 0.63827 0.10431 0.28371 0.0
H412 H 0.533 0.06254 0.23946 0.0
H413 H 0.54969 0.18949 0.30921 0.0
H414 H 0.57052 0.17734 0.28345 0.0
H415 H 0.57469 0.15472 0.31867 0.0
C416 C 0.59832 0.1148 0.21749 0.0
C417 C 0.62189 0.11227 0.23776 0.0
C418 C 0.57413 0.11356 0.22697 0.0
C419 C 0.57298 0.10971 0.25689 0.0
C420 C 0.59646 0.10578 0.27697 0.0
H421 H 0.44338 0.08968 0.35442 0.0
H422 H 0.4867 0.09098 0.34017 0.0
C423 C 0.62059 0.10729 0.26757 0.0
C424 C 0.5473 0.10929 0.26712 0.0
H425 H 0.51242 0.15244 0.31364 0.0
C426 C 0.5285 0.08232 0.25557 0.0
C427 C 0.54133 0.13505 0.28824 0.0
C428 C 0.56001 0.16602 0.30042 0.0
C429 C 0.50414 0.08012 0.26478 0.0
C430 C 0.49824 0.10579 0.28591 0.0
C431 C 0.51704 0.13261 0.29761 0.0
C432 C 0.47219 0.10622 0.29508 0.0
C433 C 0.48497 0.05002 0.25206 0.0
C434 C 0.44974 0.11535 0.27473 0.0
C435 C 0.42508 0.11499 0.28283 0.0
C436 C 0.42213 0.1054 0.31155 0.0
C437 C 0.4448 0.0973 0.33218 0.0
C438 C 0.4696 0.09784 0.32403 0.0
H439 H 0.49466 0.0272 0.24171 0.0
H440 H 0.47511 0.03764 0.2692 0.0
H441 H 0.46972 0.06262 0.23501 0.0
H442 H 0.45131 0.12277 0.25246 0.0
H443 H 0.40831 0.12238 0.26646 0.0
H444 H 0.59894 0.9126 0.70158 0.0
H445 H 0.5673 0.91195 0.73467 0.0
H446 H 0.56673 0.791 0.73367 0.0
H447 H 0.59854 0.7913 0.70048 0.0
H448 H 0.51606 0.8246 0.72828 0.0
H449 H 0.5855 0.88285 0.82223 0.0
H450 H 0.58335 0.91009 0.7893 0.0
H451 H 0.59606 0.86311 0.79047 0.0
C452 C 0.59208 0.8858 0.70822 0.0
C453 C 0.60157 0.852 0.69849 0.0
C454 C 0.57406 0.88549 0.72733 0.0
C455 C 0.56508 0.85142 0.73719 0.0
C456 C 0.5736 0.81762 0.7266 0.0
H457 H 0.44189 0.82678 0.84666 0.0
H458 H 0.47947 0.80942 0.82359 0.0
C459 C 0.59175 0.81788 0.70755 0.0
C460 C 0.54679 0.8514 0.75852 0.0
H461 H 0.5402 0.88368 0.82614 0.0
C462 C 0.52142 0.83692 0.74988 0.0
C463 C 0.55389 0.86724 0.78679 0.0
C464 C 0.58126 0.88139 0.79793 0.0
C465 C 0.50251 0.83991 0.76805 0.0
C466 C 0.5093 0.85726 0.79582 0.0
C467 C 0.53501 0.87027 0.80493 0.0
C468 C 0.48921 0.86666 0.81388 0.0
C469 C 0.475 0.82643 0.75672 0.0
C470 C 0.48312 0.90448 0.81743 0.0
C471 C 0.46193 0.91428 0.83055 0.0
C472 C 0.44654 0.88654 0.84083 0.0
C473 C 0.45369 0.8487 0.83928 0.0
C474 C 0.47489 0.83879 0.82576 0.0
H475 H 0.47203 0.81874 0.73317 0.0
H476 H 0.47087 0.8013 0.76932 0.0
H477 H 0.4606 0.84842 0.75972 0.0
H478 H 0.4939 0.92647 0.80858 0.0
H479 H 0.45674 0.94366 0.83136 0.0
H480 H 0.13697 0.64877 0.27759 0.0
H481 H 0.09453 0.64633 0.29286 0.0
H482 H 0.06266 0.58501 0.21456 0.0
H483 H 0.1055 0.58571 0.19969 0.0
H484 H 0.04774 0.67364 0.26852 0.0
H485 H 0.04023 0.51884 0.27607 0.0
H486 H 0.07019 0.54221 0.27183 0.0
H487 H 0.04467 0.53484 0.24061 0.0
C488 C 0.12115 0.63422 0.2637 0.0
C489 C 0.12503 0.61696 0.2375 0.0
C490 C 0.09671 0.63314 0.27242 0.0
C491 C 0.0754 0.61482 0.25524 0.0
C492 C 0.07891 0.59849 0.22865 0.0
H493 H 0.91143 0.58846 0.26606 0.0
H494 H 0.95468 0.58935 0.25229 0.0
C495 C 0.10344 0.59937 0.21994 0.0
C496 C 0.04954 0.61347 0.26508 0.0
H497 H 1.0022 0.55367 0.28074 0.0
C498 C 0.03788 0.64737 0.27135 0.0
C499 C 0.03663 0.57921 0.26894 0.0
C500 C 0.04866 0.54169 0.2643 0.0
C501 C 1.01356 0.64799 0.28072 0.0
C502 C 1.00055 0.61378 0.28423 0.0
C503 C 1.01218 0.57988 0.27806 0.0
C504 C 0.97445 0.61268 0.29331 0.0
C505 C 1.00162 0.6853 0.28614 0.0
C506 C 0.97116 0.62492 0.32121 0.0
C507 C 0.94633 0.62443 0.32921 0.0
C508 C 0.92427 0.61188 0.30938 0.0
C509 C 0.92782 0.59897 0.28169 0.0
C510 C 0.95261 0.59922 0.27383 0.0
H511 H 1.01147 0.70903 0.27692 0.0
H512 H 0.98047 0.68574 0.27646 0.0
H513 H 1.00351 0.68976 0.31009 0.0
H514 H 0.98781 0.63494 0.33678 0.0
H515 H 0.9443 0.63463 0.35064 0.0
H516 H 0.09099 0.29664 0.69543 0.0
H517 H 0.05706 0.29581 0.72589 0.0
H518 H 0.05825 0.41673 0.72887 0.0
H519 H 0.09173 0.41788 0.69803 0.0
H520 H 0.06129 0.32331 0.7821 0.0
H521 H 0.98031 0.39499 0.70867 0.0
H522 H 1.00857 0.37668 0.69577 0.0
H523 H 1.01044 0.421 0.71453 0.0
C524 C 0.08374 0.32312 0.70212 0.0
C525 C 0.09416 0.35735 0.6942 0.0
C526 C 0.0644 0.32257 0.71968 0.0
C527 C 0.05487 0.3562 0.7295 0.0
C528 C 0.06487 0.39042 0.72115 0.0
H529 H 0.94708 0.41307 0.84668 0.0
H530 H 0.98025 0.41375 0.81527 0.0
C531 C 0.08419 0.391 0.70361 0.0
C532 C 0.03557 0.35543 0.74975 0.0
H533 H 0.97503 0.38623 0.7581 0.0
C534 C 0.04236 0.33686 0.77676 0.0
C535 C 1.0109 0.37328 0.74289 0.0
C536 C 1.00196 0.39232 0.71378 0.0
C537 C 0.02539 0.33619 0.79725 0.0
C538 C 1.00075 0.35408 0.79041 0.0
C539 C 0.99395 0.37265 0.76341 0.0
C540 C 0.98154 0.3534 0.81074 0.0
C541 C 0.03428 0.31707 0.82634 0.0
C542 C 0.97122 0.31926 0.81878 0.0
C543 C 0.95224 0.31877 0.83677 0.0
C544 C 0.943 0.35245 0.847 0.0
C545 C 0.95367 0.3866 0.83925 0.0
C546 C 0.97263 0.38705 0.82121 0.0
H547 H 0.05589 0.31383 0.83131 0.0
H548 H 0.02798 0.33303 0.8444 0.0
H549 H 0.02541 0.28865 0.82572 0.0
H550 H 0.97739 0.29296 0.81058 0.0
H551 H 0.94439 0.29195 0.84209 0.0
H552 H 0.17619 0.71795 0.18931 0.0
H553 H 0.18384 0.78167 0.20925 0.0
H554 H 0.26008 0.78254 0.18449 0.0
H555 H 0.25243 0.71939 0.16473 0.0
H556 H 0.22447 0.78835 0.25578 0.0
H557 H 0.23849 0.89125 0.17072 0.0
H558 H 0.2212 0.84747 0.16211 0.0
H559 H 0.25641 0.84886 0.16794 0.0
C560 C 0.19388 0.73274 0.18666 0.0
C561 C 0.21369 0.71417 0.17538 0.0
C562 C 0.19836 0.76893 0.19828 0.0
C563 C 0.2225 0.78694 0.19827 0.0
C564 C 0.24112 0.76965 0.18425 0.0
H565 H 0.32825 0.94437 0.29587 0.0
H566 H 0.30568 0.89539 0.26381 0.0
C567 C 0.23677 0.73351 0.17297 0.0
C568 C 0.23063 0.81941 0.21772 0.0
H569 H 0.26075 0.90489 0.22005 0.0
C570 C 0.23185 0.81423 0.24794 0.0
C571 C 0.2406 0.85286 0.20748 0.0
C572 C 0.23888 0.86061 0.17524 0.0
C573 C 0.244 0.84072 0.26829 0.0
C574 C 0.25477 0.8736 0.25808 0.0
C575 C 0.25269 0.87946 0.22782 0.0
C576 C 0.26866 0.90196 0.27849 0.0
C577 C 0.24632 0.83239 0.30055 0.0
C578 C 0.25541 0.92146 0.29759 0.0
C579 C 0.26832 0.94901 0.31615 0.0
C580 C 0.29468 0.95792 0.31576 0.0
C581 C 0.30807 0.93781 0.297 0.0
C582 C 0.29513 0.91015 0.27844 0.0
H583 H 0.24285 0.80223 0.30469 0.0
H584 H 0.26598 0.84032 0.31269 0.0
H585 H 0.23151 0.84897 0.3095 0.0
H586 H 0.23492 0.9159 0.29773 0.0
H587 H 0.25751 0.96385 0.33048 0.0
H588 H 0.70322 0.95257 0.25939 0.0
H589 H 0.72353 0.9032 0.29284 0.0
H590 H 0.7963 0.91896 0.26176 0.0
H591 H 0.77627 0.96828 0.22865 0.0
H592 H 0.74611 0.83721 0.28106 0.0
H593 H 0.82004 0.92669 0.34971 0.0
H594 H 0.79263 0.94591 0.32464 0.0
H595 H 0.82135 0.93027 0.31145 0.0
C596 C 0.72347 0.94519 0.25957 0.0
C597 C 0.73826 0.96439 0.24164 0.0
C598 C 0.7351 0.91729 0.27882 0.0
C599 C 0.76164 0.90826 0.2804 0.0
C600 C 0.77608 0.92641 0.26166 0.0
H601 H 0.86156 0.72661 0.34154 0.0
H602 H 0.84528 0.78951 0.32648 0.0
C603 C 0.76455 0.95432 0.24258 0.0
C604 C 0.77406 0.87862 0.30058 0.0
H605 H 0.82696 0.86008 0.35396 0.0
C606 C 0.76353 0.84231 0.29732 0.0
C607 C 0.79684 0.88542 0.32176 0.0
C608 C 0.80823 0.92428 0.32734 0.0
C609 C 0.77575 0.81225 0.31378 0.0
C610 C 0.79892 0.81884 0.33437 0.0
C611 C 0.80918 0.85525 0.33818 0.0
C612 C 0.81328 0.78737 0.35059 0.0
C613 C 0.76433 0.77334 0.30823 0.0
C614 C 0.80172 0.76672 0.37067 0.0
C615 C 0.811 0.73097 0.37924 0.0
C616 C 0.8322 0.71585 0.36823 0.0
C617 C 0.8456 0.73821 0.35084 0.0
C618 C 0.83618 0.77394 0.34207 0.0
H619 H 0.74913 0.77212 0.2881 0.0
H620 H 0.77991 0.75276 0.3061 0.0
H621 H 0.75517 0.76462 0.32703 0.0
H622 H 0.78409 0.77677 0.37753 0.0
H623 H 0.80005 0.71382 0.39214 0.0
H624 H 0.72241 0.0509 0.70099 0.0
H625 H 0.73937 0.10903 0.72486 0.0
H626 H 0.69002 0.09427 0.78956 0.0
H627 H 0.67313 0.03519 0.76585 0.0
H628 H 0.71146 0.17498 0.73721 0.0
H629 H 0.76574 0.10561 0.83767 0.0
H630 H 0.75418 0.07967 0.80448 0.0
H631 H 0.73143 0.09527 0.82676 0.0
C632 C 0.71521 0.05988 0.72037 0.0
C633 C 0.69673 0.03821 0.73182 0.0
C634 C 0.72479 0.09323 0.73387 0.0
C635 C 0.71619 0.10569 0.75915 0.0
C636 C 0.69714 0.08483 0.77026 0.0
H637 H 0.7956 0.298 0.85806 0.0
H638 H 0.76347 0.2478 0.84408 0.0
C639 C 0.68739 0.05132 0.75661 0.0
C640 C 0.72797 0.14016 0.77377 0.0
H641 H 0.77358 0.16979 0.83168 0.0
C642 C 0.72467 0.17404 0.75813 0.0
C643 C 0.7451 0.13885 0.80113 0.0
C644 C 0.74956 0.10296 0.81858 0.0
C645 C 0.73901 0.20621 0.76841 0.0
C646 C 0.75741 0.20423 0.79478 0.0
C647 C 0.75951 0.17109 0.8114 0.0
C648 C 0.7766 0.23475 0.8036 0.0
C649 C 0.73497 0.24177 0.7505 0.0
C650 C 0.79493 0.2434 0.78578 0.0
C651 C 0.81345 0.27165 0.7938 0.0
C652 C 0.8141 0.29201 0.81987 0.0
C653 C 0.79586 0.28288 0.83794 0.0
C654 C 0.77735 0.25433 0.82992 0.0
H655 H 0.71538 0.24225 0.73621 0.0
H656 H 0.73704 0.26695 0.7648 0.0
H657 H 0.74995 0.24343 0.73622 0.0
H658 H 0.79508 0.22796 0.76572 0.0
H659 H 0.82748 0.27706 0.77964 0.0
H660 H 0.22256 0.2748 0.67958 0.0
H661 H 0.25291 0.22232 0.69183 0.0
H662 H 0.25913 0.24756 0.78366 0.0
H663 H 0.22992 0.30079 0.77163 0.0
H664 H 0.30651 0.22858 0.76924 0.0
H665 H 0.22928 0.12474 0.7249 0.0
H666 H 0.23672 0.15946 0.69948 0.0
H667 H 0.22201 0.17348 0.72998 0.0
C668 C 0.23073 0.26958 0.70234 0.0
C669 C 0.22344 0.29171 0.72466 0.0
C670 C 0.24788 0.23934 0.70931 0.0
C671 C 0.25786 0.23062 0.73869 0.0
C672 C 0.25152 0.25363 0.76085 0.0
H673 H 0.30075 0.03217 0.83349 0.0
H674 H 0.28161 0.08812 0.80795 0.0
C675 C 0.23455 0.28385 0.75394 0.0
C676 C 0.27378 0.19652 0.74691 0.0
H677 H 0.26967 0.10093 0.74828 0.0
C678 C 0.29866 0.20061 0.76436 0.0
C679 C 0.26332 0.16012 0.74065 0.0
C680 C 0.23631 0.15396 0.72293 0.0
C681 C 0.31294 0.16933 0.77673 0.0
C682 C 0.30219 0.13302 0.77101 0.0
C683 C 0.27783 0.12886 0.75253 0.0
C684 C 0.31446 0.09929 0.78631 0.0
C685 C 0.3387 0.17552 0.79706 0.0
C686 C 0.33934 0.08701 0.78263 0.0
C687 C 0.3504 0.05496 0.79734 0.0
C688 C 0.33658 0.03451 0.81563 0.0
C689 C 0.3117 0.04699 0.81921 0.0
C690 C 0.30077 0.07901 0.80469 0.0
H691 H 0.34178 0.20545 0.80349 0.0
H692 H 0.33979 0.1583 0.81721 0.0
H693 H 0.35493 0.16685 0.78592 0.0
H694 H 0.35004 0.10192 0.76817 0.0
H695 H 0.36949 0.04574 0.79396 0.0
H696 H 0.76779 0.46114 0.32007 0.0
H697 H 0.74824 0.41172 0.28658 0.0
H698 H 0.81728 0.41001 0.24693 0.0
H699 H 0.83702 0.45946 0.28046 0.0
H700 H 0.73715 0.41215 0.22488 0.0
H701 H 0.80776 0.30011 0.26863 0.0
H702 H 0.80516 0.34339 0.28802 0.0
H703 H 0.82245 0.3423 0.25776 0.0
C704 C 0.77884 0.45014 0.30426 0.0
C705 C 0.80399 0.46401 0.30296 0.0
C706 C 0.76762 0.42202 0.28513 0.0
C707 C 0.78136 0.40714 0.26441 0.0
C708 C 0.80652 0.42077 0.26308 0.0
H709 H 0.75057 0.21471 0.15239 0.0
H710 H 0.76427 0.27829 0.16774 0.0
C711 C 0.81782 0.44885 0.28232 0.0
C712 C 0.76935 0.37708 0.24441 0.0
H713 H 0.77652 0.28537 0.22691 0.0
C714 C 0.74576 0.38442 0.22517 0.0
C715 C 0.78061 0.34099 0.24499 0.0
C716 C 0.80526 0.33098 0.26611 0.0
C717 C 0.73318 0.3565 0.20633 0.0
C718 C 0.74441 0.32038 0.20706 0.0
C719 C 0.7681 0.31326 0.22613 0.0
C720 C 0.73156 0.28844 0.18973 0.0
C721 C 0.70814 0.36588 0.18576 0.0
C722 C 0.70768 0.27406 0.1953 0.0
C723 C 0.69951 0.23793 0.18588 0.0
C724 C 0.71536 0.21585 0.17121 0.0
C725 C 0.73783 0.23162 0.16321 0.0
C726 C 0.74577 0.26778 0.17219 0.0
H727 H 0.70619 0.39659 0.1818 0.0
H728 H 0.7071 0.35137 0.16443 0.0
H729 H 0.69126 0.35645 0.19562 0.0
H730 H 0.69667 0.28918 0.20926 0.0
H731 H 0.68248 0.22584 0.19291 0.0
H732 H 0.26683 0.51023 0.28259 0.0
H733 H 0.2888 0.46195 0.31556 0.0
H734 H 0.24858 0.37588 0.25946 0.0
H735 H 0.22648 0.42411 0.22629 0.0
H736 H 0.251 0.36278 0.32044 0.0
H737 H 0.34851 0.39824 0.29359 0.0
H738 H 0.33095 0.43609 0.30674 0.0
H739 H 0.31835 0.41494 0.27198 0.0
C740 C 0.26266 0.481 0.27726 0.0
C741 C 0.24523 0.4709 0.25159 0.0
C742 C 0.27522 0.4535 0.29614 0.0
C743 C 0.27069 0.4154 0.28965 0.0
C744 C 0.25242 0.4052 0.26477 0.0
H745 H 0.34251 0.2098 0.31307 0.0
H746 H 0.33069 0.27519 0.3026 0.0
C747 C 0.23976 0.43273 0.24589 0.0
C748 C 0.28568 0.386 0.30801 0.0
H749 H 0.3466 0.34731 0.32527 0.0
C750 C 0.27197 0.35965 0.32195 0.0
C751 C 0.31305 0.38214 0.30984 0.0
C752 C 0.32866 0.40912 0.29462 0.0
C753 C 0.28469 0.32852 0.33661 0.0
C754 C 0.31191 0.32395 0.33761 0.0
C755 C 0.32583 0.35124 0.32481 0.0
C756 C 0.32496 0.28782 0.3466 0.0
C757 C 0.26861 0.29949 0.34925 0.0
C758 C 0.3272 0.27386 0.37531 0.0
C759 C 0.33433 0.23633 0.38143 0.0
C760 C 0.33907 0.21267 0.3588 0.0
C761 C 0.33904 0.22769 0.33086 0.0
C762 C 0.33223 0.26499 0.32485 0.0
H763 H 0.24728 0.30521 0.34364 0.0
H764 H 0.27237 0.27109 0.34111 0.0
H765 H 0.2743 0.29923 0.37346 0.0
H766 H 0.32193 0.29125 0.39246 0.0
H767 H 0.33398 0.22518 0.40307 0.0
H768 H 0.16622 0.56932 0.72466 0.0
H769 H 0.187 0.62501 0.74981 0.0
H770 H 0.24226 0.5545 0.80537 0.0
H771 H 0.22152 0.49871 0.78057 0.0
H772 H 0.20449 0.64752 0.81523 0.0
H773 H 0.28306 0.62003 0.75045 0.0
H774 H 0.25076 0.59979 0.7409 0.0
H775 H 0.2735 0.58144 0.7713 0.0
C776 C 0.18224 0.56562 0.74287 0.0
C777 C 0.19249 0.52972 0.7504 0.0
C778 C 0.1941 0.59744 0.75717 0.0
C779 C 0.21626 0.59373 0.77919 0.0
C780 C 0.22524 0.55783 0.7883 0.0
H781 H 0.31922 0.76659 0.87168 0.0
H782 H 0.28871 0.71352 0.86149 0.0
C783 C 0.21346 0.52607 0.77402 0.0
C784 C 0.23218 0.6271 0.78959 0.0
H785 H 0.28881 0.67178 0.78222 0.0
C786 C 0.22299 0.65287 0.80821 0.0
C787 C 0.25615 0.63394 0.78008 0.0
C788 C 0.26651 0.60757 0.75943 0.0
C789 C 0.23735 0.68553 0.81761 0.0
C790 C 0.2613 0.69227 0.80804 0.0
C791 C 0.27045 0.66636 0.78955 0.0
C792 C 0.27684 0.72686 0.81556 0.0
C793 C 0.22663 0.71306 0.83704 0.0
C794 C 0.27999 0.75199 0.79319 0.0
C795 C 0.29731 0.78211 0.7989 0.0
C796 C 0.31202 0.78761 0.82708 0.0
C797 C 0.30803 0.76326 0.84981 0.0
C798 C 0.29061 0.73298 0.84404 0.0
H799 H 0.20614 0.70636 0.83916 0.0
H800 H 0.23894 0.71253 0.8592 0.0
H801 H 0.22735 0.742 0.82829 0.0
H802 H 0.26951 0.74768 0.77107 0.0
H803 H 0.29954 0.80075 0.78107 0.0
H804 H 0.74993 0.79933 0.69297 0.0
H805 H 0.77902 0.74517 0.70527 0.0
H806 H 0.73655 0.71366 0.77339 0.0
H807 H 0.70727 0.76681 0.76095 0.0
H808 H 0.81106 0.72693 0.76167 0.0
H809 H 0.73686 0.61748 0.72355 0.0
H810 H 0.73279 0.66592 0.7121 0.0
H811 H 0.72589 0.65152 0.74712 0.0
C812 C 0.74667 0.78064 0.71037 0.0
C813 C 0.72625 0.78742 0.72597 0.0
C814 C 0.76338 0.74988 0.71746 0.0
C815 C 0.75969 0.72522 0.73998 0.0
C816 C 0.73949 0.73209 0.75566 0.0
H817 H 0.82102 0.55068 0.85035 0.0
H818 H 0.80127 0.60578 0.82403 0.0
C819 C 0.72293 0.76276 0.74872 0.0
C820 C 0.77699 0.69244 0.74778 0.0
H821 H 0.77482 0.59764 0.75763 0.0
C822 C 0.80337 0.69853 0.7602 0.0
C823 C 0.7669 0.65545 0.74566 0.0
C824 C 0.73912 0.64707 0.73111 0.0
C825 C 0.81942 0.6687 0.77236 0.0
C826 C 0.80875 0.63218 0.77191 0.0
C827 C 0.78286 0.62582 0.75802 0.0
C828 C 0.82296 0.60093 0.78858 0.0
C829 C 0.8472 0.67648 0.78711 0.0
C830 C 0.84203 0.58038 0.77747 0.0
C831 C 0.85331 0.54856 0.79243 0.0
C832 C 0.84547 0.53686 0.81854 0.0
C833 C 0.8271 0.55853 0.83002 0.0
C834 C 0.8159 0.59013 0.81513 0.0
H835 H 0.85262 0.70651 0.78557 0.0
H836 H 0.84975 0.66843 0.81058 0.0
H837 H 0.86084 0.65911 0.77692 0.0
H838 H 0.84758 0.58831 0.75688 0.0
H839 H 0.86733 0.53231 0.78302 0.0
H840 H 0.38463 0.016 0.47188 0.0
H841 H 0.42708 -0.00048 0.5006 0.0
H842 H 0.46559 0.06646 0.44334 0.0
H843 H 0.42295 0.08386 0.4147 0.0
H844 H 0.46693 0.96177 0.48322 0.0
H845 H 0.50086 0.10336 0.52331 0.0
H846 H 0.4674 0.09392 0.50648 0.0
H847 H 0.49211 0.09987 0.4842 0.0
C848 C 0.40208 0.02753 0.46543 0.0
C849 C 0.40033 0.05137 0.44096 0.0
C850 C 0.42638 0.01799 0.48192 0.0
C851 C 0.44956 0.03202 0.47439 0.0
C852 C 0.44796 0.0559 0.44998 0.0
H853 H 0.61345 0.99195 0.54781 0.0
H854 H 0.57222 0.01034 0.51716 0.0
C855 C 0.42356 0.0657 0.43352 0.0
C856 C 0.47525 0.0204 0.49165 0.0
H857 H 0.53134 0.05367 0.5339 0.0
C858 C 0.48098 0.98189 0.49434 0.0
C859 C 0.49362 0.04663 0.50615 0.0
C860 C 0.48817 0.08824 0.50518 0.0
C861 C 0.50457 0.96892 0.51098 0.0
C862 C 0.52282 0.99512 0.5256 0.0
C863 C 0.51728 0.03364 0.52267 0.0
C864 C 0.54779 0.98314 0.54413 0.0
C865 C 0.50993 0.9273 0.51243 0.0
C866 C 0.54778 0.96183 0.56961 0.0
C867 C 0.57139 0.95143 0.58739 0.0
C868 C 0.59552 0.9623 0.5801 0.0
C869 C 0.59535 0.98349 0.55441 0.0
C870 C 0.57176 0.99392 0.53673 0.0
H871 H 0.4971 0.91186 0.49458 0.0
H872 H 0.53067 0.92149 0.51104 0.0
H873 H 0.50619 0.91618 0.53365 0.0
H874 H 0.52948 0.95375 0.57602 0.0
H875 H 0.57068 0.93566 0.60716 0.0
H876 H 0.61858 0.08777 0.13154 0.0
H877 H 0.57632 0.06848 0.10274 0.0
H878 H 0.61623 -0.00167 0.04924 0.0
H879 H 0.65823 0.0166 0.07811 0.0
H880 H 0.5562 0.07526 0.04397 0.0
H881 H 0.56503 0.9249 0.07453 0.0
H882 H 0.58642 0.96041 0.09351 0.0
H883 H 0.59234 0.94162 0.05931 0.0
C884 C 0.61833 0.06817 0.11369 0.0
C885 C 0.6418 0.05337 0.1074 0.0
C886 C 0.59417 0.05719 0.09725 0.0
C887 C 0.59308 0.03125 0.07427 0.0
C888 C 0.61652 0.01749 0.06739 0.0
H889 H 0.47322 0.93762 0.9393 0.0
H890 H 0.51414 0.95737 0.97036 0.0
C891 C 0.64057 0.0282 0.08386 0.0
C892 C 0.56758 0.01883 0.05709 0.0
H893 H 0.53129 0.94067 0.03432 0.0
C894 C 0.55064 0.04588 0.04208 0.0
C895 C 0.56031 0.98045 0.05466 0.0
C896 C 0.57685 0.95021 0.0716 0.0
C897 C 0.527 0.03547 0.02408 0.0
C898 C 0.52008 -0.00292 1.02118 0.0
C899 C 0.53682 0.97006 0.03641 0.0
C900 C 0.49532 0.98446 1.00271 0.0
C901 C 0.50979 0.06548 1.00777 0.0
C902 C 0.47127 0.99251 1.01096 0.0
C903 C 0.44787 0.98089 0.99349 0.0
C904 C 0.44799 0.96104 0.96727 0.0
C905 C 0.47226 0.95251 0.95936 0.0
C906 C 0.4957 0.96398 0.977 0.0
H907 H 0.52011 0.09288 1.00805 0.0
H908 H 0.50289 0.05698 0.98466 0.0
H909 H 0.49231 0.06935 1.01814 0.0
H910 H 0.47061 0.00771 0.03101 0.0
H911 H 0.42972 0.98733 1.00073 0.0
H912 H 0.07625 0.42181 0.58394 0.0
H913 H 0.03588 0.44135 0.55209 0.0
H914 H 0.06738 0.55262 0.5468 0.0
H915 H 0.10752 0.53391 0.57926 0.0
H916 H 1.00253 0.50694 0.56308 0.0
H917 H 0.04203 0.51612 0.45935 0.0
H918 H 0.05745 0.48816 0.49012 0.0
H919 H 0.06062 0.53829 0.49128 0.0
C920 C 0.07465 0.45053 0.57629 0.0
C921 C 0.09539 0.47617 0.5843 0.0
C922 C 0.05156 0.46156 0.55791 0.0
C923 C 0.04882 0.49827 0.54688 0.0
C924 C 0.06931 0.52398 0.55475 0.0
H925 H 0.92126 0.60386 0.4247 0.0
H926 H 0.96311 0.59147 0.4572 0.0
C927 C 0.09233 0.5131 0.57328 0.0
C928 C 0.02421 0.50994 0.52775 0.0
H929 H 0.99799 0.53362 0.45732 0.0
C930 C 1.00148 0.5128 0.53996 0.0
C931 C 0.02309 0.518 0.49773 0.0
C932 C 0.047 0.51486 0.48362 0.0
C933 C 0.97752 0.52346 0.52288 0.0
C934 C 0.97615 0.5304 0.49258 0.0
C935 C 0.99905 0.52822 0.48051 0.0
C936 C 0.95092 0.5382 0.47287 0.0
C937 C 0.954 0.52764 0.53757 0.0
C938 C 0.93039 0.51209 0.47049 0.0
C939 C 0.90653 0.51916 0.45219 0.0
C940 C 0.90272 0.55233 0.43549 0.0
C941 C 0.9235 0.57815 0.43737 0.0
C942 C 0.94742 0.5711 0.4559 0.0
H943 H 0.95991 0.53328 0.56138 0.0
H944 H 0.94109 0.55073 0.52758 0.0
H945 H 0.94257 0.50112 0.53513 0.0
H946 H 0.93286 0.48603 0.48271 0.0
H947 H 0.89109 0.49842 0.45106 0.0
H948 H 0.14655 0.48506 0.12012 0.0
H949 H 0.1054 0.47064 0.08774 0.0
H950 H 0.09277 0.58868 0.06969 0.0
H951 H 0.13346 0.60337 0.10368 0.0
H952 H 0.04884 0.5583 0.07422 0.0
H953 H 0.09353 0.46632 1.00154 0.0
H954 H 0.10048 0.44876 0.03826 0.0
H955 H 0.11301 0.494 0.02985 0.0
C956 C 0.13499 0.50797 0.10926 0.0
C957 C 0.14333 0.54533 0.11415 0.0
C958 C 0.11156 0.49966 0.09049 0.0
C959 C 0.09634 0.5284 0.07533 0.0
C960 C 0.10428 0.56591 0.08081 0.0
H961 H 0.97116 0.46539 0.92983 0.0
H962 H 1.0123 0.48828 0.95909 0.0
C963 C 0.1275 0.57433 0.10024 0.0
C964 C 0.07191 0.51913 0.05436 0.0
H965 H 0.04697 0.45996 0.99838 0.0
C966 C 0.04852 0.53711 0.05741 0.0
C967 C 0.07141 0.49222 0.03178 0.0
C968 C 0.09603 0.4746 0.02495 0.0
C969 C 0.02461 0.52798 0.03935 0.0
C970 C 0.02379 0.49875 1.01849 0.0
C971 C 0.04734 0.4818 1.0147 0.0
C972 C 0.99879 0.48502 1.00061 0.0
C973 C 1.00067 0.55038 0.04261 0.0
C974 C 0.97763 0.47473 1.01409 0.0
C975 C 0.95405 0.46253 0.99731 0.0
C976 C 0.9514 0.45906 0.9668 0.0
C977 C 0.97283 0.46774 0.95335 0.0
C978 C 0.99626 0.48088 0.97007 0.0
H979 H 1.0061 0.5791 0.05088 0.0
H980 H 0.98683 0.55283 1.0215 0.0
H981 H 0.99052 0.53638 0.05881 0.0
H982 H 0.97931 0.47604 0.03764 0.0
H983 H 0.93788 0.45542 1.00817 0.0
loop_
_geom_bond_atom_site_label_1
_geom_bond_atom_site_label_2
_geom_bond_distance
_geom_bond_site_symmetry_2
_ccdc_geom_bond_type
C0 C1 1.351 . S
C0 N3 1.368 . S
C0 H5 0.931 . S
C1 C0 1.351 . S
C1 N2 1.373 . S
C1 H29 0.930 . S
N2 C1 1.373 . S
N2 C4 1.340 . S
N3 C0 1.368 . S
N3 C4 1.321 . S
N3 Co6 2.135 . S
C4 N2 1.340 . S
C4 N3 1.321 . S
C4 H28 0.930 . S
H5 C0 0.931 . S
Co6 N3 2.135 . S
Co6 N9 2.121 . S
Co6 O14 2.055 . S
Co6 O17 2.039 . S
Co6 N20 2.140 . S
C7 O8 1.227 . S
C7 O17 1.265 . S
O8 C7 1.227 . S
N9 Co6 2.121 . S
N9 C11 1.375 . S
N9 C12 1.313 . S
C10 C11 1.338 . S
C10 N13 1.377 . S
C10 H30 0.930 . S
C11 N9 1.375 . S
C11 C10 1.338 . S
C11 H15 0.931 . S
C12 N9 1.313 . S
C12 N13 1.344 . S
C12 H16 0.930 . S
N13 C10 1.377 . S
N13 C12 1.344 . S
O14 Co6 2.055 . S
O14 C18 1.253 . S
H15 C11 0.931 . S
H16 C12 0.930 . S
O17 Co6 2.039 . S
O17 C7 1.265 . S
C18 O14 1.253 . S
C18 O19 1.227 . S
O19 C18 1.227 . S
N20 Co6 2.140 . S
N20 C23 1.346 . S
N20 C24 1.345 . S
C21 C22 1.387 . S
C21 C25 1.391 . S
C22 C21 1.387 . S
C22 C23 1.369 . S
C22 H31 0.929 . S
C23 N20 1.346 . S
C23 C22 1.369 . S
C23 H26 0.928 . S
C24 N20 1.345 . S
C24 C25 1.371 . S
C24 H27 0.931 . S
C25 C21 1.391 . S
C25 C24 1.371 . S
C25 H32 0.930 . S
H26 C23 0.928 . S
H27 C24 0.931 . S
H28 C4 0.930 . S
H29 C1 0.930 . S
H30 C10 0.930 . S
H31 C22 0.929 . S
H32 C25 0.930 . S
C33 C34 1.351 . S
C33 N36 1.368 . S
C33 H38 0.931 . S
C34 C33 1.351 . S
C34 N35 1.373 . S
C34 H62 0.930 . S
N35 C34 1.373 . S
N35 C37 1.340 . S
N36 C33 1.368 . S
N36 C37 1.321 . S
N36 Co39 2.135 . S
C37 N35 1.340 . S
C37 N36 1.321 . S
C37 H61 0.930 . S
H38 C33 0.931 . S
Co39 N36 2.135 . S
Co39 N42 2.121 . S
Co39 O47 2.055 . S
Co39 O50 2.039 . S
Co39 N53 2.140 . S
C40 O41 1.227 . S
C40 O50 1.265 . S
O41 C40 1.227 . S
N42 Co39 2.121 . S
N42 C44 1.375 . S
N42 C45 1.313 . S
C43 C44 1.338 . S
C43 N46 1.377 . S
C43 H63 0.930 . S
C44 N42 1.375 . S
C44 C43 1.338 . S
C44 H48 0.931 . S
C45 N42 1.313 . S
C45 N46 1.344 . S
C45 H49 0.930 . S
N46 C43 1.377 . S
N46 C45 1.344 . S
O47 Co39 2.055 . S
O47 C51 1.253 . S
H48 C44 0.931 . S
H49 C45 0.930 . S
O50 Co39 2.039 . S
O50 C40 1.265 . S
C51 O47 1.253 . S
C51 O52 1.227 . S
O52 C51 1.227 . S
N53 Co39 2.140 . S
N53 C56 1.346 . S
N53 C57 1.345 . S
C54 C55 1.387 . S
C54 C58 1.391 . S
C55 C54 1.387 . S
C55 C56 1.369 . S
C55 H64 0.929 . S
C56 N53 1.346 . S
C56 C55 1.369 . S
C56 H59 0.928 . S
C57 N53 1.345 . S
C57 C58 1.371 . S
C57 H60 0.931 . S
C58 C54 1.391 . S
C58 C57 1.371 . S
C58 H65 0.930 . S
H59 C56 0.928 . S
H60 C57 0.931 . S
H61 C37 0.930 . S
H62 C34 0.930 . S
H63 C43 0.930 . S
H64 C55 0.929 . S
H65 C58 0.930 . S
C66 C67 1.351 . S
C66 N69 1.368 . S
C66 H71 0.931 . S
C67 C66 1.351 . S
C67 N68 1.373 . S
C67 H95 0.930 . S
N68 C67 1.373 . S
N68 C70 1.340 . S
N69 C66 1.368 . S
N69 C70 1.321 . S
N69 Co72 2.135 . S
C70 N68 1.340 . S
C70 N69 1.321 . S
C70 H94 0.930 . S
H71 C66 0.931 . S
Co72 N69 2.135 . S
Co72 N75 2.121 . S
Co72 O80 2.055 . S
Co72 O83 2.039 . S
Co72 N86 2.140 . S
C73 O74 1.227 . S
C73 O83 1.265 . S
O74 C73 1.227 . S
N75 Co72 2.121 . S
N75 C77 1.375 . S
N75 C78 1.313 . S
C76 C77 1.338 . S
C76 N79 1.377 . S
C76 H96 0.930 . S
C77 N75 1.375 . S
C77 C76 1.338 . S
C77 H81 0.931 . S
C78 N75 1.313 . S
C78 N79 1.344 . S
C78 H82 0.930 . S
N79 C76 1.377 . S
N79 C78 1.344 . S
O80 Co72 2.055 . S
O80 C84 1.253 . S
H81 C77 0.931 . S
H82 C78 0.930 . S
O83 Co72 2.039 . S
O83 C73 1.265 . S
C84 O80 1.253 . S
C84 O85 1.227 . S
O85 C84 1.227 . S
N86 Co72 2.140 . S
N86 C89 1.346 . S
N86 C90 1.345 . S
C87 C88 1.387 . S
C87 C91 1.391 . S
C88 C87 1.387 . S
C88 C89 1.369 . S
C88 H97 0.929 1_565 S
C89 N86 1.346 . S
C89 C88 1.369 . S
C89 H92 0.928 . S
C90 N86 1.345 . S
C90 C91 1.371 . S
C90 H93 0.931 . S
C91 C87 1.391 . S
C91 C90 1.371 . S
C91 H98 0.930 . S
H92 C89 0.928 . S
H93 C90 0.931 . S
H94 C70 0.930 . S
H95 C67 0.930 . S
H96 C76 0.930 . S
H97 C88 0.929 1_545 S
H98 C91 0.930 . S
C99 C100 1.351 . S
C99 N102 1.368 . S
C99 H104 0.931 . S
C100 C99 1.351 . S
C100 N101 1.373 . S
C100 H128 0.930 . S
N101 C100 1.373 . S
N101 C103 1.340 . S
N102 C99 1.368 . S
N102 C103 1.321 . S
N102 Co105 2.135 . S
C103 N101 1.340 . S
C103 N102 1.321 . S
C103 H127 0.930 . S
H104 C99 0.931 . S
Co105 N102 2.135 . S
Co105 N108 2.121 . S
Co105 O113 2.055 . S
Co105 O116 2.039 . S
Co105 N119 2.140 . S
C106 O107 1.227 . S
C106 O116 1.265 . S
O107 C106 1.227 . S
N108 Co105 2.121 . S
N108 C110 1.375 . S
N108 C111 1.313 . S
C109 C110 1.338 . S
C109 N112 1.377 . S
C109 H129 0.930 . S
C110 N108 1.375 . S
C110 C109 1.338 . S
C110 H114 0.931 . S
C111 N108 1.313 . S
C111 N112 1.344 . S
C111 H115 0.930 . S
N112 C109 1.377 . S
N112 C111 1.344 . S
O113 Co105 2.055 . S
O113 C117 1.253 . S
H114 C110 0.931 . S
H115 C111 0.930 . S
O116 Co105 2.039 . S
O116 C106 1.265 . S
C117 O113 1.253 . S
C117 O118 1.227 . S
O118 C117 1.227 . S
N119 Co105 2.140 . S
N119 C122 1.346 . S
N119 C123 1.345 . S
C120 C121 1.387 . S
C120 C124 1.391 . S
C121 C120 1.387 . S
C121 C122 1.369 . S
C121 H130 0.929 1_565 S
C122 N119 1.346 . S
C122 C121 1.369 . S
C122 H125 0.928 . S
C123 N119 1.345 . S
C123 C124 1.371 . S
C123 H126 0.931 . S
C124 C120 1.391 . S
C124 C123 1.371 . S
C124 H131 0.930 . S
H125 C122 0.928 . S
H126 C123 0.931 . S
H127 C103 0.930 . S
H128 C100 0.930 . S
H129 C109 0.930 . S
H130 C121 0.929 1_545 S
H131 C124 0.930 . S
C132 C133 1.351 . S
C132 N135 1.368 . S
C132 H137 0.931 . S
C133 C132 1.351 . S
C133 N134 1.373 . S
C133 H161 0.930 . S
N134 C133 1.373 . S
N134 C136 1.340 . S
N135 C132 1.368 . S
N135 C136 1.321 . S
N135 Co138 2.135 . S
C136 N134 1.340 . S
C136 N135 1.321 . S
C136 H160 0.930 . S
H137 C132 0.931 . S
Co138 N135 2.135 . S
Co138 N141 2.121 . S
Co138 O146 2.055 . S
Co138 O149 2.039 . S
Co138 N152 2.140 . S
C139 O140 1.227 . S
C139 O149 1.265 . S
O140 C139 1.227 . S
N141 Co138 2.121 . S
N141 C143 1.375 . S
N141 C144 1.313 . S
C142 C143 1.338 . S
C142 N145 1.377 . S
C142 H162 0.930 . S
C143 N141 1.375 . S
C143 C142 1.338 . S
C143 H147 0.931 . S
C144 N141 1.313 . S
C144 N145 1.344 . S
C144 H148 0.930 . S
N145 C142 1.377 . S
N145 C144 1.344 . S
O146 Co138 2.055 . S
O146 C150 1.253 . S
H147 C143 0.931 . S
H148 C144 0.930 . S
O149 Co138 2.039 . S
O149 C139 1.265 . S
C150 O146 1.253 . S
C150 O151 1.227 . S
O151 C150 1.227 . S
N152 Co138 2.140 . S
N152 C155 1.346 . S
N152 C156 1.345 . S
C153 C154 1.387 . S
C153 C157 1.391 . S
C154 C153 1.387 . S
C154 C155 1.369 . S
C154 H163 0.929 . S
C155 N152 1.346 . S
C155 C154 1.369 . S
C155 H158 0.928 . S
C156 N152 1.345 . S
C156 C157 1.371 . S
C156 H159 0.931 . S
C157 C153 1.391 . S
C157 C156 1.371 . S
C157 H164 0.930 . S
H158 C155 0.928 . S
H159 C156 0.931 . S
H160 C136 0.930 . S
H161 C133 0.930 . S
H162 C142 0.930 . S
H163 C154 0.929 . S
H164 C157 0.930 . S
C165 C166 1.351 . S
C165 N168 1.368 . S
C165 H170 0.931 . S
C166 C165 1.351 . S
C166 N167 1.373 . S
C166 H194 0.930 . S
N167 C166 1.373 . S
N167 C169 1.340 . S
N168 C165 1.368 . S
N168 C169 1.321 . S
N168 Co171 2.135 . S
C169 N167 1.340 . S
C169 N168 1.321 . S
C169 H193 0.930 . S
H170 C165 0.931 . S
Co171 N168 2.135 . S
Co171 N174 2.121 . S
Co171 O179 2.055 . S
Co171 O182 2.039 . S
Co171 N185 2.140 . S
C172 O173 1.227 . S
C172 O182 1.265 . S
O173 C172 1.227 . S
N174 Co171 2.121 . S
N174 C176 1.375 . S
N174 C177 1.313 . S
C175 C176 1.338 . S
C175 N178 1.377 . S
C175 H195 0.930 . S
C176 N174 1.375 . S
C176 C175 1.338 . S
C176 H180 0.931 . S
C177 N174 1.313 . S
C177 N178 1.344 . S
C177 H181 0.930 . S
N178 C175 1.377 . S
N178 C177 1.344 . S
O179 Co171 2.055 . S
O179 C183 1.253 . S
H180 C176 0.931 . S
H181 C177 0.930 . S
O182 Co171 2.039 . S
O182 C172 1.265 . S
C183 O179 1.253 . S
C183 O184 1.227 . S
O184 C183 1.227 . S
N185 Co171 2.140 . S
N185 C188 1.346 . S
N185 C189 1.345 . S
C186 C187 1.387 . S
C186 C190 1.391 . S
C187 C186 1.387 . S
C187 C188 1.369 . S
C187 H196 0.929 . S
C188 N185 1.346 . S
C188 C187 1.369 . S
C188 H191 0.928 . S
C189 N185 1.345 . S
C189 C190 1.371 . S
C189 H192 0.931 . S
C190 C186 1.391 . S
C190 C189 1.371 . S
C190 H197 0.930 . S
H191 C188 0.928 . S
H192 C189 0.931 . S
H193 C169 0.930 . S
H194 C166 0.930 . S
H195 C175 0.930 . S
H196 C187 0.929 . S
H197 C190 0.930 . S
C198 C199 1.351 . S
C198 N201 1.368 . S
C198 H203 0.931 . S
C199 C198 1.351 . S
C199 N200 1.373 . S
C199 H227 0.930 . S
N200 C199 1.373 . S
N200 C202 1.340 . S
N201 C198 1.368 . S
N201 C202 1.321 . S
N201 Co204 2.135 . S
C202 N200 1.340 . S
C202 N201 1.321 . S
C202 H226 0.930 . S
H203 C198 0.931 . S
Co204 N201 2.135 . S
Co204 N207 2.121 . S
Co204 O212 2.055 . S
Co204 O215 2.039 . S
Co204 N218 2.140 . S
C205 O206 1.227 . S
C205 O215 1.265 . S
O206 C205 1.227 . S
N207 Co204 2.121 . S
N207 C209 1.375 . S
N207 C210 1.313 . S
C208 C209 1.338 . S
C208 N211 1.377 . S
C208 H228 0.930 . S
C209 N207 1.375 . S
C209 C208 1.338 . S
C209 H213 0.931 . S
C210 N207 1.313 . S
C210 N211 1.344 . S
C210 H214 0.930 . S
N211 C208 1.377 . S
N211 C210 1.344 . S
O212 Co204 2.055 . S
O212 C216 1.253 . S
H213 C209 0.931 . S
H214 C210 0.930 . S
O215 Co204 2.039 . S
O215 C205 1.265 . S
C216 O212 1.253 . S
C216 O217 1.227 . S
O217 C216 1.227 . S
N218 Co204 2.140 . S
N218 C221 1.346 . S
N218 C222 1.345 . S
C219 C220 1.387 . S
C219 C223 1.391 . S
C220 C219 1.387 . S
C220 C221 1.369 . S
C220 H229 0.929 . S
C221 N218 1.346 . S
C221 C220 1.369 . S
C221 H224 0.928 . S
C222 N218 1.345 . S
C222 C223 1.371 . S
C222 H225 0.931 . S
C223 C219 1.391 . S
C223 C222 1.371 . S
C223 H230 0.930 . S
H224 C221 0.928 . S
H225 C222 0.931 . S
H226 C202 0.930 . S
H227 C199 0.930 . S
H228 C208 0.930 . S
H229 C220 0.929 . S
H230 C223 0.930 . S
C231 C232 1.351 . S
C231 N234 1.368 . S
C231 H236 0.931 . S
C232 C231 1.351 . S
C232 N233 1.373 . S
C232 H260 0.930 . S
N233 C232 1.373 . S
N233 C235 1.340 . S
N234 C231 1.368 . S
N234 C235 1.321 . S
N234 Co237 2.135 . S
C235 N233 1.340 . S
C235 N234 1.321 . S
C235 H259 0.930 . S
H236 C231 0.931 . S
Co237 N234 2.135 . S
Co237 N240 2.121 . S
Co237 O245 2.055 . S
Co237 O248 2.039 . S
Co237 N251 2.140 . S
C238 O239 1.227 . S
C238 O248 1.265 . S
O239 C238 1.227 . S
N240 Co237 2.121 . S
N240 C242 1.375 . S
N240 C243 1.313 . S
C241 C242 1.338 . S
C241 N244 1.377 . S
C241 H261 0.930 . S
C242 N240 1.375 . S
C242 C241 1.338 . S
C242 H246 0.931 . S
C243 N240 1.313 . S
C243 N244 1.344 . S
C243 H247 0.930 . S
N244 C241 1.377 . S
N244 C243 1.344 . S
O245 Co237 2.055 . S
O245 C249 1.253 . S
H246 C242 0.931 . S
H247 C243 0.930 . S
O248 Co237 2.039 . S
O248 C238 1.265 . S
C249 O245 1.253 . S
C249 O250 1.227 . S
O250 C249 1.227 . S
N251 Co237 2.140 . S
N251 C254 1.346 . S
N251 C255 1.345 . S
C252 C253 1.387 . S
C252 C256 1.391 . S
C253 C252 1.387 . S
C253 C254 1.369 . S
C253 H262 0.929 . S
C254 N251 1.346 . S
C254 C253 1.369 . S
C254 H257 0.928 . S
C255 N251 1.345 . S
C255 C256 1.371 . S
C255 H258 0.931 . S
C256 C252 1.391 . S
C256 C255 1.371 . S
C256 H263 0.930 . S
H257 C254 0.928 . S
H258 C255 0.931 . S
H259 C235 0.930 . S
H260 C232 0.930 . S
H261 C241 0.930 . S
H262 C253 0.929 . S
H263 C256 0.930 . S
H264 C272 0.929 . S
H265 C274 0.930 . S
H266 C276 0.930 . S
H267 C279 0.929 . S
H268 C282 0.930 . S
H269 C284 0.960 . S
H270 C284 0.960 . S
H271 C284 0.960 . S
C272 H264 0.929 . S
C272 C273 1.377 . S
C272 C274 1.384 . S
C273 C272 1.377 . S
C273 C279 1.390 . S
C274 H265 0.930 . S
C274 C272 1.384 . S
C274 C275 1.372 . S
C275 C274 1.372 . S
C275 C276 1.400 . S
C275 C280 1.490 . S
C276 H266 0.930 . S
C276 C275 1.400 . S
C276 C279 1.386 . S
H277 C293 0.930 . S
H278 C294 0.931 . S
C279 H267 0.929 . S
C279 C273 1.390 . S
C279 C276 1.386 . S
C280 C275 1.490 . S
C280 C282 1.395 . S
C280 C283 1.403 . S
H281 C287 0.930 . S
C282 H268 0.930 . S
C282 C280 1.395 . S
C282 C285 1.403 . S
C283 C280 1.403 . S
C283 C284 1.524 . S
C283 C287 1.400 . S
C284 H269 0.960 . S
C284 H270 0.960 . S
C284 H271 0.960 . S
C284 C283 1.524 . S
C285 C282 1.403 . S
C285 C286 1.392 . S
C285 C289 1.495 . S
C286 C285 1.392 . S
C286 C287 1.385 . S
C286 C288 1.478 . S
C287 H281 0.930 . S
C287 C283 1.400 . S
C287 C286 1.385 . S
C288 C286 1.478 . S
C288 C290 1.381 . S
C288 C294 1.383 . S
C289 C285 1.495 . S
C289 H295 0.959 . S
C289 H296 0.961 . S
C289 H297 0.960 . S
C290 C288 1.381 . S
C290 C291 1.394 . S
C290 H298 0.930 . S
C291 C290 1.394 . S
C291 C292 1.383 . S
C291 H299 0.929 . S
C292 C291 1.383 . S
C292 C293 1.377 . S
C293 H277 0.930 . S
C293 C292 1.377 . S
C293 C294 1.379 . S
C294 H278 0.931 . S
C294 C288 1.383 . S
C294 C293 1.379 . S
H295 C289 0.959 . S
H296 C289 0.961 . S
H297 C289 0.960 . S
H298 C290 0.930 . S
H299 C291 0.929 . S
H300 C308 0.929 . S
H301 C310 0.930 . S
H302 C312 0.930 . S
H303 C315 0.929 . S
H304 C318 0.930 . S
H305 C320 0.960 . S
H306 C320 0.960 . S
H307 C320 0.960 . S
C308 H300 0.929 . S
C308 C309 1.377 . S
C308 C310 1.384 . S
C309 C308 1.377 . S
C309 C315 1.390 . S
C310 H301 0.930 . S
C310 C308 1.384 . S
C310 C311 1.372 . S
C311 C310 1.372 . S
C311 C312 1.400 . S
C311 C316 1.490 . S
C312 H302 0.930 . S
C312 C311 1.400 . S
C312 C315 1.386 . S
H313 C329 0.930 . S
H314 C330 0.931 . S
C315 H303 0.929 . S
C315 C309 1.390 . S
C315 C312 1.386 . S
C316 C311 1.490 . S
C316 C318 1.395 . S
C316 C319 1.403 1_554 S
H317 C323 0.930 . S
C318 H304 0.930 . S
C318 C316 1.395 . S
C318 C321 1.403 . S
C319 C316 1.403 1_556 S
C319 C320 1.524 . S
C319 C323 1.400 . S
C320 H305 0.960 . S
C320 H306 0.960 . S
C320 H307 0.960 . S
C320 C319 1.524 . S
C321 C318 1.403 . S
C321 C322 1.392 1_554 S
C321 C325 1.495 . S
C322 C321 1.392 1_556 S
C322 C323 1.385 . S
C322 C324 1.478 . S
C323 H317 0.930 . S
C323 C319 1.400 . S
C323 C322 1.385 . S
C324 C322 1.478 . S
C324 C326 1.381 . S
C324 C330 1.383 . S
C325 C321 1.495 . S
C325 H331 0.959 . S
C325 H332 0.961 . S
C325 H333 0.960 . S
C326 C324 1.381 . S
C326 C327 1.394 . S
C326 H334 0.930 . S
C327 C326 1.394 . S
C327 C328 1.383 . S
C327 H335 0.929 . S
C328 C327 1.383 . S
C328 C329 1.377 . S
C329 H313 0.930 . S
C329 C328 1.377 . S
C329 C330 1.379 . S
C330 H314 0.931 . S
C330 C324 1.383 . S
C330 C329 1.379 . S
H331 C325 0.959 . S
H332 C325 0.961 . S
H333 C325 0.960 . S
H334 C326 0.930 . S
H335 C327 0.929 . S
H336 C344 0.929 . S
H337 C346 0.930 . S
H338 C348 0.930 . S
H339 C351 0.929 . S
H340 C354 0.930 . S
H341 C356 0.960 . S
H342 C356 0.960 . S
H343 C356 0.960 . S
C344 H336 0.929 . S
C344 C345 1.377 . S
C344 C346 1.384 . S
C345 C344 1.377 . S
C345 C351 1.390 . S
C346 H337 0.930 . S
C346 C344 1.384 . S
C346 C347 1.372 . S
C347 C346 1.372 . S
C347 C348 1.400 . S
C347 C352 1.490 . S
C348 H338 0.930 . S
C348 C347 1.400 . S
C348 C351 1.386 . S
H349 C365 0.930 . S
H350 C366 0.931 . S
C351 H339 0.929 . S
C351 C345 1.390 . S
C351 C348 1.386 . S
C352 C347 1.490 . S
C352 C354 1.395 . S
C352 C355 1.403 . S
H353 C359 0.930 . S
C354 H340 0.930 . S
C354 C352 1.395 . S
C354 C357 1.403 . S
C355 C352 1.403 . S
C355 C356 1.524 . S
C355 C359 1.400 . S
C356 H341 0.960 . S
C356 H342 0.960 . S
C356 H343 0.960 . S
C356 C355 1.524 . S
C357 C354 1.403 . S
C357 C358 1.392 . S
C357 C361 1.495 . S
C358 C357 1.392 . S
C358 C359 1.385 . S
C358 C360 1.478 . S
C359 H353 0.930 . S
C359 C355 1.400 . S
C359 C358 1.385 . S
C360 C358 1.478 . S
C360 C362 1.381 . S
C360 C366 1.383 . S
C361 C357 1.495 . S
C361 H367 0.959 . S
C361 H368 0.961 . S
C361 H369 0.960 . S
C362 C360 1.381 . S
C362 C363 1.394 . S
C362 H370 0.930 . S
C363 C362 1.394 . S
C363 C364 1.383 . S
C363 H371 0.929 . S
C364 C363 1.383 . S
C364 C365 1.377 . S
C365 H349 0.930 . S
C365 C364 1.377 . S
C365 C366 1.379 . S
C366 H350 0.931 . S
C366 C360 1.383 . S
C366 C365 1.379 . S
H367 C361 0.959 . S
H368 C361 0.961 . S
H369 C361 0.960 . S
H370 C362 0.930 . S
H371 C363 0.929 . S
H372 C380 0.929 . S
H373 C382 0.930 . S
H374 C384 0.930 . S
H375 C387 0.929 . S
H376 C390 0.930 . S
H377 C392 0.960 . S
H378 C392 0.960 . S
H379 C392 0.960 . S
C380 H372 0.929 . S
C380 C381 1.377 . S
C380 C382 1.384 . S
C381 C380 1.377 . S
C381 C387 1.390 . S
C382 H373 0.930 . S
C382 C380 1.384 . S
C382 C383 1.372 . S
C383 C382 1.372 . S
C383 C384 1.400 . S
C383 C388 1.490 . S
C384 H374 0.930 . S
C384 C383 1.400 . S
C384 C387 1.386 . S
H385 C401 0.930 . S
H386 C402 0.931 . S
C387 H375 0.929 . S
C387 C381 1.390 . S
C387 C384 1.386 . S
C388 C383 1.490 . S
C388 C390 1.395 . S
C388 C391 1.403 1_556 S
H389 C395 0.930 . S
C390 H376 0.930 . S
C390 C388 1.395 . S
C390 C393 1.403 . S
C391 C388 1.403 1_554 S
C391 C392 1.524 . S
C391 C395 1.400 . S
C392 H377 0.960 . S
C392 H378 0.960 . S
C392 H379 0.960 . S
C392 C391 1.524 . S
C393 C390 1.403 . S
C393 C394 1.392 1_556 S
C393 C397 1.495 . S
C394 C393 1.392 1_554 S
C394 C395 1.385 . S
C394 C396 1.478 . S
C395 H389 0.930 . S
C395 C391 1.400 . S
C395 C394 1.385 . S
C396 C394 1.478 . S
C396 C398 1.381 . S
C396 C402 1.383 . S
C397 C393 1.495 . S
C397 H403 0.959 . S
C397 H404 0.961 . S
C397 H405 0.960 . S
C398 C396 1.381 . S
C398 C399 1.394 . S
C398 H406 0.930 . S
C399 C398 1.394 . S
C399 C400 1.383 . S
C399 H407 0.929 . S
C400 C399 1.383 . S
C400 C401 1.377 . S
C401 H385 0.930 . S
C401 C400 1.377 . S
C401 C402 1.379 . S
C402 H386 0.931 . S
C402 C396 1.383 . S
C402 C401 1.379 . S
H403 C397 0.959 . S
H404 C397 0.961 . S
H405 C397 0.960 . S
H406 C398 0.930 . S
H407 C399 0.929 . S
H408 C416 0.929 . S
H409 C418 0.930 . S
H410 C420 0.930 . S
H411 C423 0.929 . S
H412 C426 0.930 . S
H413 C428 0.960 . S
H414 C428 0.960 . S
H415 C428 0.960 . S
C416 H408 0.929 . S
C416 C417 1.377 . S
C416 C418 1.384 . S
C417 C416 1.377 . S
C417 C423 1.390 . S
C418 H409 0.930 . S
C418 C416 1.384 . S
C418 C419 1.372 . S
C419 C418 1.372 . S
C419 C420 1.400 . S
C419 C424 1.490 . S
C420 H410 0.930 . S
C420 C419 1.400 . S
C420 C423 1.386 . S
H421 C437 0.930 . S
H422 C438 0.931 . S
C423 H411 0.929 . S
C423 C417 1.390 . S
C423 C420 1.386 . S
C424 C419 1.490 . S
C424 C426 1.395 . S
C424 C427 1.403 . S
H425 C431 0.930 . S
C426 H412 0.930 . S
C426 C424 1.395 . S
C426 C429 1.403 . S
C427 C424 1.403 . S
C427 C428 1.524 . S
C427 C431 1.400 . S
C428 H413 0.960 . S
C428 H414 0.960 . S
C428 H415 0.960 . S
C428 C427 1.524 . S
C429 C426 1.403 . S
C429 C430 1.392 . S
C429 C433 1.495 . S
C430 C429 1.392 . S
C430 C431 1.385 . S
C430 C432 1.478 . S
C431 H425 0.930 . S
C431 C427 1.400 . S
C431 C430 1.385 . S
C432 C430 1.478 . S
C432 C434 1.381 . S
C432 C438 1.383 . S
C433 C429 1.495 . S
C433 H439 0.959 . S
C433 H440 0.961 . S
C433 H441 0.960 . S
C434 C432 1.381 . S
C434 C435 1.394 . S
C434 H442 0.930 . S
C435 C434 1.394 . S
C435 C436 1.383 . S
C435 H443 0.929 . S
C436 C435 1.383 . S
C436 C437 1.377 . S
C437 H421 0.930 . S
C437 C436 1.377 . S
C437 C438 1.379 . S
C438 H422 0.931 . S
C438 C432 1.383 . S
C438 C437 1.379 . S
H439 C433 0.959 . S
H440 C433 0.961 . S
H441 C433 0.960 . S
H442 C434 0.930 . S
H443 C435 0.929 . S
H444 C452 0.929 . S
H445 C454 0.930 . S
H446 C456 0.930 . S
H447 C459 0.929 . S
H448 C462 0.930 . S
H449 C464 0.960 . S
H450 C464 0.960 . S
H451 C464 0.960 . S
C452 H444 0.929 . S
C452 C453 1.377 . S
C452 C454 1.384 . S
C453 C452 1.377 . S
C453 C459 1.390 . S
C454 H445 0.930 . S
C454 C452 1.384 . S
C454 C455 1.372 . S
C455 C454 1.372 . S
C455 C456 1.400 . S
C455 C460 1.490 . S
C456 H446 0.930 . S
C456 C455 1.400 . S
C456 C459 1.386 . S
H457 C473 0.930 . S
H458 C474 0.931 . S
C459 H447 0.929 . S
C459 C453 1.390 . S
C459 C456 1.386 . S
C460 C455 1.490 . S
C460 C462 1.395 . S
C460 C463 1.403 . S
H461 C467 0.930 . S
C462 H448 0.930 . S
C462 C460 1.395 . S
C462 C465 1.403 . S
C463 C460 1.403 . S
C463 C464 1.524 . S
C463 C467 1.400 . S
C464 H449 0.960 . S
C464 H450 0.960 . S
C464 H451 0.960 . S
C464 C463 1.524 . S
C465 C462 1.403 . S
C465 C466 1.392 . S
C465 C469 1.495 . S
C466 C465 1.392 . S
C466 C467 1.385 . S
C466 C468 1.478 . S
C467 H461 0.930 . S
C467 C463 1.400 . S
C467 C466 1.385 . S
C468 C466 1.478 . S
C468 C470 1.381 . S
C468 C474 1.383 . S
C469 C465 1.495 . S
C469 H475 0.959 . S
C469 H476 0.961 . S
C469 H477 0.960 . S
C470 C468 1.381 . S
C470 C471 1.394 . S
C470 H478 0.930 . S
C471 C470 1.394 . S
C471 C472 1.383 . S
C471 H479 0.929 . S
C472 C471 1.383 . S
C472 C473 1.377 . S
C473 H457 0.930 . S
C473 C472 1.377 . S
C473 C474 1.379 . S
C474 H458 0.931 . S
C474 C468 1.383 . S
C474 C473 1.379 . S
H475 C469 0.959 . S
H476 C469 0.961 . S
H477 C469 0.960 . S
H478 C470 0.930 . S
H479 C471 0.929 . S
H480 C488 0.929 . S
H481 C490 0.930 . S
H482 C492 0.930 . S
H483 C495 0.929 . S
H484 C498 0.930 . S
H485 C500 0.960 . S
H486 C500 0.960 . S
H487 C500 0.960 . S
C488 H480 0.929 . S
C488 C489 1.377 . S
C488 C490 1.384 . S
C489 C488 1.377 . S
C489 C495 1.390 . S
C490 H481 0.930 . S
C490 C488 1.384 . S
C490 C491 1.372 . S
C491 C490 1.372 . S
C491 C492 1.400 . S
C491 C496 1.490 . S
C492 H482 0.930 . S
C492 C491 1.400 . S
C492 C495 1.386 . S
H493 C509 0.930 . S
H494 C510 0.931 . S
C495 H483 0.929 . S
C495 C489 1.390 . S
C495 C492 1.386 . S
C496 C491 1.490 . S
C496 C498 1.395 . S
C496 C499 1.403 . S
H497 C503 0.930 . S
C498 H484 0.930 . S
C498 C496 1.395 . S
C498 C501 1.403 1_455 S
C499 C496 1.403 . S
C499 C500 1.524 . S
C499 C503 1.400 1_455 S
C500 H485 0.960 . S
C500 H486 0.960 . S
C500 H487 0.960 . S
C500 C499 1.524 . S
C501 C498 1.403 1_655 S
C501 C502 1.392 . S
C501 C505 1.495 . S
C502 C501 1.392 . S
C502 C503 1.385 . S
C502 C504 1.478 . S
C503 H497 0.930 . S
C503 C499 1.400 1_655 S
C503 C502 1.385 . S
C504 C502 1.478 . S
C504 C506 1.381 . S
C504 C510 1.383 . S
C505 C501 1.495 . S
C505 H511 0.959 . S
C505 H512 0.961 . S
C505 H513 0.960 . S
C506 C504 1.381 . S
C506 C507 1.394 . S
C506 H514 0.930 . S
C507 C506 1.394 . S
C507 C508 1.383 . S
C507 H515 0.929 . S
C508 C507 1.383 . S
C508 C509 1.377 . S
C509 H493 0.930 . S
C509 C508 1.377 . S
C509 C510 1.379 . S
C510 H494 0.931 . S
C510 C504 1.383 . S
C510 C509 1.379 . S
H511 C505 0.959 . S
H512 C505 0.961 . S
H513 C505 0.960 . S
H514 C506 0.930 . S
H515 C507 0.929 . S
H516 C524 0.929 . S
H517 C526 0.930 . S
H518 C528 0.930 . S
H519 C531 0.929 . S
H520 C534 0.930 . S
H521 C536 0.960 . S
H522 C536 0.960 . S
H523 C536 0.960 1_455 S
C524 H516 0.929 . S
C524 C525 1.377 . S
C524 C526 1.384 . S
C525 C524 1.377 . S
C525 C531 1.390 . S
C526 H517 0.930 . S
C526 C524 1.384 . S
C526 C527 1.372 . S
C527 C526 1.372 . S
C527 C528 1.400 . S
C527 C532 1.490 . S
C528 H518 0.930 . S
C528 C527 1.400 . S
C528 C531 1.386 . S
H529 C545 0.930 . S
H530 C546 0.931 . S
C531 H519 0.929 . S
C531 C525 1.390 . S
C531 C528 1.386 . S
C532 C527 1.490 . S
C532 C534 1.395 . S
C532 C535 1.408 . S
H533 C539 0.930 . S
C534 H520 0.930 . S
C534 C532 1.395 . S
C534 C537 1.398 1_455 S
C535 C532 1.408 . S
C535 C536 1.524 1_455 S
C535 C539 1.394 1_455 S
C536 H521 0.960 . S
C536 H522 0.960 . S
C536 H523 0.960 1_655 S
C536 C535 1.524 1_655 S
C537 C534 1.398 1_655 S
C537 C538 1.397 . S
C537 C541 1.498 1_655 S
C538 C537 1.397 . S
C538 C539 1.385 . S
C538 C540 1.478 . S
C539 H533 0.930 . S
C539 C535 1.394 1_655 S
C539 C538 1.385 . S
C540 C538 1.478 . S
C540 C542 1.381 . S
C540 C546 1.383 . S
C541 C537 1.498 1_455 S
C541 H547 0.973 . S
C541 H548 0.961 . S
C541 H549 0.945 1_455 S
C542 C540 1.381 . S
C542 C543 1.394 . S
C542 H550 0.930 . S
C543 C542 1.394 . S
C543 C544 1.383 . S
C543 H551 0.929 . S
C544 C543 1.383 . S
C544 C545 1.377 . S
C545 H529 0.930 . S
C545 C544 1.377 . S
C545 C546 1.379 . S
C546 H530 0.931 . S
C546 C540 1.383 . S
C546 C545 1.379 . S
H547 C541 0.973 . S
H548 C541 0.961 . S
H549 C541 0.945 1_655 S
H550 C542 0.930 . S
H551 C543 0.929 . S
H552 C560 0.929 . S
H553 C562 0.930 . S
H554 C564 0.930 . S
H555 C567 0.929 . S
H556 C570 0.930 . S
H557 C572 0.960 . S
H558 C572 0.960 . S
H559 C572 0.960 . S
C560 H552 0.929 . S
C560 C561 1.377 . S
C560 C562 1.384 . S
C561 C560 1.377 . S
C561 C567 1.390 . S
C562 H553 0.930 . S
C562 C560 1.384 . S
C562 C563 1.372 . S
C563 C562 1.372 . S
C563 C564 1.400 . S
C563 C568 1.490 . S
C564 H554 0.930 . S
C564 C563 1.400 . S
C564 C567 1.386 . S
H565 C581 0.930 . S
H566 C582 0.931 . S
C567 H555 0.929 . S
C567 C561 1.390 . S
C567 C564 1.386 . S
C568 C563 1.490 . S
C568 C570 1.395 . S
C568 C571 1.403 . S
H569 C575 0.930 . S
C570 H556 0.930 . S
C570 C568 1.395 . S
C570 C573 1.403 . S
C571 C568 1.403 . S
C571 C572 1.524 . S
C571 C575 1.400 . S
C572 H557 0.960 . S
C572 H558 0.960 . S
C572 H559 0.960 . S
C572 C571 1.524 . S
C573 C570 1.403 . S
C573 C574 1.392 . S
C573 C577 1.495 . S
C574 C573 1.392 . S
C574 C575 1.385 . S
C574 C576 1.478 . S
C575 H569 0.930 . S
C575 C571 1.400 . S
C575 C574 1.385 . S
C576 C574 1.478 . S
C576 C578 1.381 . S
C576 C582 1.383 . S
C577 C573 1.495 . S
C577 H583 0.959 . S
C577 H584 0.961 . S
C577 H585 0.960 . S
C578 C576 1.381 . S
C578 C579 1.394 . S
C578 H586 0.930 . S
C579 C578 1.394 . S
C579 C580 1.383 . S
C579 H587 0.930 . S
C580 C579 1.383 . S
C580 C581 1.377 . S
C581 H565 0.930 . S
C581 C580 1.377 . S
C581 C582 1.379 . S
C582 H566 0.931 . S
C582 C576 1.383 . S
C582 C581 1.379 . S
H583 C577 0.959 . S
H584 C577 0.961 . S
H585 C577 0.960 . S
H586 C578 0.930 . S
H587 C579 0.930 . S
H588 C596 0.929 . S
H589 C598 0.930 . S
H590 C600 0.930 . S
H591 C603 0.929 . S
H592 C606 0.930 . S
H593 C608 0.960 . S
H594 C608 0.960 . S
H595 C608 0.960 . S
C596 H588 0.929 . S
C596 C597 1.377 . S
C596 C598 1.384 . S
C597 C596 1.377 . S
C597 C603 1.390 . S
C598 H589 0.930 . S
C598 C596 1.384 . S
C598 C599 1.372 . S
C599 C598 1.372 . S
C599 C600 1.400 . S
C599 C604 1.490 . S
C600 H590 0.930 . S
C600 C599 1.400 . S
C600 C603 1.386 . S
H601 C617 0.930 . S
H602 C618 0.931 . S
C603 H591 0.929 . S
C603 C597 1.390 . S
C603 C600 1.386 . S
C604 C599 1.490 . S
C604 C606 1.395 . S
C604 C607 1.403 . S
H605 C611 0.930 . S
C606 H592 0.930 . S
C606 C604 1.395 . S
C606 C609 1.403 . S
C607 C604 1.403 . S
C607 C608 1.524 . S
C607 C611 1.400 . S
C608 H593 0.960 . S
C608 H594 0.960 . S
C608 H595 0.960 . S
C608 C607 1.524 . S
C609 C606 1.403 . S
C609 C610 1.392 . S
C609 C613 1.495 . S
C610 C609 1.392 . S
C610 C611 1.385 . S
C610 C612 1.478 . S
C611 H605 0.930 . S
C611 C607 1.400 . S
C611 C610 1.385 . S
C612 C610 1.478 . S
C612 C614 1.381 . S
C612 C618 1.383 . S
C613 C609 1.495 . S
C613 H619 0.959 . S
C613 H620 0.961 . S
C613 H621 0.960 . S
C614 C612 1.381 . S
C614 C615 1.394 . S
C614 H622 0.930 . S
C615 C614 1.394 . S
C615 C616 1.383 . S
C615 H623 0.929 . S
C616 C615 1.383 . S
C616 C617 1.377 . S
C617 H601 0.930 . S
C617 C616 1.377 . S
C617 C618 1.379 . S
C618 H602 0.931 . S
C618 C612 1.383 . S
C618 C617 1.379 . S
H619 C613 0.959 . S
H620 C613 0.961 . S
H621 C613 0.960 . S
H622 C614 0.930 . S
H623 C615 0.929 . S
H624 C632 0.929 . S
H625 C634 0.930 . S
H626 C636 0.930 . S
H627 C639 0.929 . S
H628 C642 0.930 . S
H629 C644 0.960 . S
H630 C644 0.960 . S
H631 C644 0.960 . S
C632 H624 0.929 . S
C632 C633 1.377 . S
C632 C634 1.384 . S
C633 C632 1.377 . S
C633 C639 1.390 . S
C634 H625 0.930 . S
C634 C632 1.384 . S
C634 C635 1.372 . S
C635 C634 1.372 . S
C635 C636 1.400 . S
C635 C640 1.490 . S
C636 H626 0.930 . S
C636 C635 1.400 . S
C636 C639 1.386 . S
H637 C653 0.930 . S
H638 C654 0.931 . S
C639 H627 0.929 . S
C639 C633 1.390 . S
C639 C636 1.386 . S
C640 C635 1.490 . S
C640 C642 1.395 . S
C640 C643 1.403 . S
H641 C647 0.930 . S
C642 H628 0.930 . S
C642 C640 1.395 . S
C642 C645 1.403 . S
C643 C640 1.403 . S
C643 C644 1.524 . S
C643 C647 1.400 . S
C644 H629 0.960 . S
C644 H630 0.960 . S
C644 H631 0.960 . S
C644 C643 1.524 . S
C645 C642 1.403 . S
C645 C646 1.392 . S
C645 C649 1.495 . S
C646 C645 1.392 . S
C646 C647 1.385 . S
C646 C648 1.478 . S
C647 H641 0.930 . S
C647 C643 1.400 . S
C647 C646 1.385 . S
C648 C646 1.478 . S
C648 C650 1.381 . S
C648 C654 1.383 . S
C649 C645 1.495 . S
C649 H655 0.959 . S
C649 H656 0.961 . S
C649 H657 0.960 . S
C650 C648 1.381 . S
C650 C651 1.394 . S
C650 H658 0.930 . S
C651 C650 1.394 . S
C651 C652 1.383 . S
C651 H659 0.929 . S
C652 C651 1.383 . S
C652 C653 1.377 . S
C653 H637 0.930 . S
C653 C652 1.377 . S
C653 C654 1.379 . S
C654 H638 0.931 . S
C654 C648 1.383 . S
C654 C653 1.379 . S
H655 C649 0.959 . S
H656 C649 0.961 . S
H657 C649 0.960 . S
H658 C650 0.930 . S
H659 C651 0.929 . S
H660 C668 0.929 . S
H661 C670 0.930 . S
H662 C672 0.930 . S
H663 C675 0.929 . S
H664 C678 0.930 . S
H665 C680 0.960 . S
H666 C680 0.960 . S
H667 C680 0.960 . S
C668 H660 0.929 . S
C668 C669 1.377 . S
C668 C670 1.384 . S
C669 C668 1.377 . S
C669 C675 1.390 . S
C670 H661 0.930 . S
C670 C668 1.384 . S
C670 C671 1.372 . S
C671 C670 1.372 . S
C671 C672 1.400 . S
C671 C676 1.490 . S
C672 H662 0.930 . S
C672 C671 1.400 . S
C672 C675 1.386 . S
H673 C689 0.930 1_565 S
H674 C690 0.931 . S
C675 H663 0.929 . S
C675 C669 1.390 . S
C675 C672 1.386 . S
C676 C671 1.490 . S
C676 C678 1.395 . S
C676 C679 1.403 . S
H677 C683 0.930 . S
C678 H664 0.930 . S
C678 C676 1.395 . S
C678 C681 1.403 . S
C679 C676 1.403 . S
C679 C680 1.524 . S
C679 C683 1.400 . S
C680 H665 0.960 . S
C680 H666 0.960 . S
C680 H667 0.960 . S
C680 C679 1.524 . S
C681 C678 1.403 . S
C681 C682 1.392 . S
C681 C685 1.495 . S
C682 C681 1.392 . S
C682 C683 1.385 . S
C682 C684 1.478 . S
C683 H677 0.930 . S
C683 C679 1.400 . S
C683 C682 1.385 . S
C684 C682 1.478 . S
C684 C686 1.381 . S
C684 C690 1.383 . S
C685 C681 1.495 . S
C685 H691 0.959 . S
C685 H692 0.961 . S
C685 H693 0.960 . S
C686 C684 1.381 . S
C686 C687 1.394 . S
C686 H694 0.930 . S
C687 C686 1.394 . S
C687 C688 1.383 . S
C687 H695 0.929 . S
C688 C687 1.383 . S
C688 C689 1.377 . S
C689 H673 0.930 1_545 S
C689 C688 1.377 . S
C689 C690 1.379 . S
C690 H674 0.931 . S
C690 C684 1.383 . S
C690 C689 1.379 . S
H691 C685 0.959 . S
H692 C685 0.961 . S
H693 C685 0.960 . S
H694 C686 0.930 . S
H695 C687 0.929 . S
H696 C704 0.929 . S
H697 C706 0.930 . S
H698 C708 0.930 . S
H699 C711 0.929 . S
H700 C714 0.930 . S
H701 C716 0.960 . S
H702 C716 0.960 . S
H703 C716 0.960 . S
C704 H696 0.929 . S
C704 C705 1.377 . S
C704 C706 1.384 . S
C705 C704 1.377 . S
C705 C711 1.390 . S
C706 H697 0.930 . S
C706 C704 1.384 . S
C706 C707 1.372 . S
C707 C706 1.372 . S
C707 C708 1.400 . S
C707 C712 1.490 . S
C708 H698 0.930 . S
C708 C707 1.400 . S
C708 C711 1.386 . S
H709 C725 0.930 . S
H710 C726 0.931 . S
C711 H699 0.929 . S
C711 C705 1.390 . S
C711 C708 1.386 . S
C712 C707 1.490 . S
C712 C714 1.395 . S
C712 C715 1.403 . S
H713 C719 0.930 . S
C714 H700 0.930 . S
C714 C712 1.395 . S
C714 C717 1.403 . S
C715 C712 1.403 . S
C715 C716 1.524 . S
C715 C719 1.400 . S
C716 H701 0.960 . S
C716 H702 0.960 . S
C716 H703 0.960 . S
C716 C715 1.524 . S
C717 C714 1.403 . S
C717 C718 1.392 . S
C717 C721 1.495 . S
C718 C717 1.392 . S
C718 C719 1.385 . S
C718 C720 1.478 . S
C719 H713 0.930 . S
C719 C715 1.400 . S
C719 C718 1.385 . S
C720 C718 1.478 . S
C720 C722 1.381 . S
C720 C726 1.383 . S
C721 C717 1.495 . S
C721 H727 0.959 . S
C721 H728 0.961 . S
C721 H729 0.960 . S
C722 C720 1.381 . S
C722 C723 1.394 . S
C722 H730 0.930 . S
C723 C722 1.394 . S
C723 C724 1.383 . S
C723 H731 0.929 . S
C724 C723 1.383 . S
C724 C725 1.377 . S
C725 H709 0.930 . S
C725 C724 1.377 . S
C725 C726 1.379 . S
C726 H710 0.931 . S
C726 C720 1.383 . S
C726 C725 1.379 . S
H727 C721 0.959 . S
H728 C721 0.961 . S
H729 C721 0.960 . S
H730 C722 0.930 . S
H731 C723 0.929 . S
H732 C740 0.929 . S
H733 C742 0.930 . S
H734 C744 0.930 . S
H735 C747 0.929 . S
H736 C750 0.930 . S
H737 C752 0.960 . S
H738 C752 0.960 . S
H739 C752 0.960 . S
C740 H732 0.929 . S
C740 C741 1.377 . S
C740 C742 1.384 . S
C741 C740 1.377 . S
C741 C747 1.390 . S
C742 H733 0.930 . S
C742 C740 1.384 . S
C742 C743 1.372 . S
C743 C742 1.372 . S
C743 C744 1.400 . S
C743 C748 1.490 . S
C744 H734 0.930 . S
C744 C743 1.400 . S
C744 C747 1.386 . S
H745 C761 0.930 . S
H746 C762 0.931 . S
C747 H735 0.929 . S
C747 C741 1.390 . S
C747 C744 1.386 . S
C748 C743 1.490 . S
C748 C750 1.395 . S
C748 C751 1.403 . S
H749 C755 0.930 . S
C750 H736 0.930 . S
C750 C748 1.395 . S
C750 C753 1.403 . S
C751 C748 1.403 . S
C751 C752 1.524 . S
C751 C755 1.400 . S
C752 H737 0.960 . S
C752 H738 0.960 . S
C752 H739 0.960 . S
C752 C751 1.524 . S
C753 C750 1.403 . S
C753 C754 1.392 . S
C753 C757 1.495 . S
C754 C753 1.392 . S
C754 C755 1.385 . S
C754 C756 1.478 . S
C755 H749 0.930 . S
C755 C751 1.400 . S
C755 C754 1.385 . S
C756 C754 1.478 . S
C756 C758 1.381 . S
C756 C762 1.383 . S
C757 C753 1.495 . S
C757 H763 0.959 . S
C757 H764 0.961 . S
C757 H765 0.960 . S
C758 C756 1.381 . S
C758 C759 1.394 . S
C758 H766 0.930 . S
C759 C758 1.394 . S
C759 C760 1.383 . S
C759 H767 0.929 . S
C760 C759 1.383 . S
C760 C761 1.377 . S
C761 H745 0.930 . S
C761 C760 1.377 . S
C761 C762 1.379 . S
C762 H746 0.931 . S
C762 C756 1.383 . S
C762 C761 1.379 . S
H763 C757 0.959 . S
H764 C757 0.961 . S
H765 C757 0.960 . S
H766 C758 0.930 . S
H767 C759 0.929 . S
H768 C776 0.929 . S
H769 C778 0.930 . S
H770 C780 0.930 . S
H771 C783 0.929 . S
H772 C786 0.930 . S
H773 C788 0.960 . S
H774 C788 0.960 . S
H775 C788 0.960 . S
C776 H768 0.929 . S
C776 C777 1.377 . S
C776 C778 1.384 . S
C777 C776 1.377 . S
C777 C783 1.390 . S
C778 H769 0.930 . S
C778 C776 1.384 . S
C778 C779 1.372 . S
C779 C778 1.372 . S
C779 C780 1.400 . S
C779 C784 1.490 . S
C780 H770 0.930 . S
C780 C779 1.400 . S
C780 C783 1.386 . S
H781 C797 0.930 . S
H782 C798 0.931 . S
C783 H771 0.929 . S
C783 C777 1.390 . S
C783 C780 1.386 . S
C784 C779 1.490 . S
C784 C786 1.395 . S
C784 C787 1.403 . S
H785 C791 0.930 . S
C786 H772 0.930 . S
C786 C784 1.395 . S
C786 C789 1.403 . S
C787 C784 1.403 . S
C787 C788 1.524 . S
C787 C791 1.400 . S
C788 H773 0.960 . S
C788 H774 0.960 . S
C788 H775 0.960 . S
C788 C787 1.524 . S
C789 C786 1.403 . S
C789 C790 1.392 . S
C789 C793 1.495 . S
C790 C789 1.392 . S
C790 C791 1.385 . S
C790 C792 1.478 . S
C791 H785 0.930 . S
C791 C787 1.400 . S
C791 C790 1.385 . S
C792 C790 1.478 . S
C792 C794 1.381 . S
C792 C798 1.383 . S
C793 C789 1.495 . S
C793 H799 0.959 . S
C793 H800 0.961 . S
C793 H801 0.960 . S
C794 C792 1.381 . S
C794 C795 1.394 . S
C794 H802 0.930 . S
C795 C794 1.394 . S
C795 C796 1.383 . S
C795 H803 0.929 . S
C796 C795 1.383 . S
C796 C797 1.377 . S
C797 H781 0.930 . S
C797 C796 1.377 . S
C797 C798 1.379 . S
C798 H782 0.931 . S
C798 C792 1.383 . S
C798 C797 1.379 . S
H799 C793 0.959 . S
H800 C793 0.961 . S
H801 C793 0.960 . S
H802 C794 0.930 . S
H803 C795 0.929 . S
H804 C812 0.929 . S
H805 C814 0.930 . S
H806 C816 0.930 . S
H807 C819 0.929 . S
H808 C822 0.930 . S
H809 C824 0.960 . S
H810 C824 0.960 . S
H811 C824 0.960 . S
C812 H804 0.929 . S
C812 C813 1.377 . S
C812 C814 1.384 . S
C813 C812 1.377 . S
C813 C819 1.390 . S
C814 H805 0.930 . S
C814 C812 1.384 . S
C814 C815 1.372 . S
C815 C814 1.372 . S
C815 C816 1.400 . S
C815 C820 1.490 . S
C816 H806 0.930 . S
C816 C815 1.400 . S
C816 C819 1.386 . S
H817 C833 0.930 . S
H818 C834 0.931 . S
C819 H807 0.929 . S
C819 C813 1.390 . S
C819 C816 1.386 . S
C820 C815 1.490 . S
C820 C822 1.395 . S
C820 C823 1.403 . S
H821 C827 0.930 . S
C822 H808 0.930 . S
C822 C820 1.395 . S
C822 C825 1.403 . S
C823 C820 1.403 . S
C823 C824 1.524 . S
C823 C827 1.400 . S
C824 H809 0.960 . S
C824 H810 0.960 . S
C824 H811 0.960 . S
C824 C823 1.524 . S
C825 C822 1.403 . S
C825 C826 1.392 . S
C825 C829 1.495 . S
C826 C825 1.392 . S
C826 C827 1.385 . S
C826 C828 1.478 . S
C827 H821 0.930 . S
C827 C823 1.400 . S
C827 C826 1.385 . S
C828 C826 1.478 . S
C828 C830 1.381 . S
C828 C834 1.383 . S
C829 C825 1.495 . S
C829 H835 0.959 . S
C829 H836 0.961 . S
C829 H837 0.960 . S
C830 C828 1.381 . S
C830 C831 1.394 . S
C830 H838 0.930 . S
C831 C830 1.394 . S
C831 C832 1.383 . S
C831 H839 0.929 . S
C832 C831 1.383 . S
C832 C833 1.377 . S
C833 H817 0.930 . S
C833 C832 1.377 . S
C833 C834 1.379 . S
C834 H818 0.931 . S
C834 C828 1.383 . S
C834 C833 1.379 . S
H835 C829 0.959 . S
H836 C829 0.961 . S
H837 C829 0.960 . S
H838 C830 0.930 . S
H839 C831 0.929 . S
H840 C848 0.929 . S
H841 C850 0.930 . S
H842 C852 0.930 . S
H843 C855 0.929 . S
H844 C858 0.930 . S
H845 C860 0.960 . S
H846 C860 0.960 . S
H847 C860 0.960 . S
C848 H840 0.929 . S
C848 C849 1.377 . S
C848 C850 1.384 . S
C849 C848 1.377 . S
C849 C855 1.390 . S
C850 H841 0.930 . S
C850 C848 1.384 . S
C850 C851 1.372 . S
C851 C850 1.372 . S
C851 C852 1.400 . S
C851 C856 1.490 . S
C852 H842 0.930 . S
C852 C851 1.400 . S
C852 C855 1.386 . S
H853 C869 0.930 . S
H854 C870 0.931 . S
C855 H843 0.929 . S
C855 C849 1.390 . S
C855 C852 1.386 . S
C856 C851 1.490 . S
C856 C858 1.395 . S
C856 C859 1.403 . S
H857 C863 0.930 . S
C858 H844 0.930 . S
C858 C856 1.395 . S
C858 C861 1.403 1_545 S
C859 C856 1.403 . S
C859 C860 1.524 . S
C859 C863 1.400 . S
C860 H845 0.960 . S
C860 H846 0.960 . S
C860 H847 0.960 . S
C860 C859 1.524 . S
C861 C858 1.403 1_565 S
C861 C862 1.392 1_565 S
C861 C865 1.495 . S
C862 C861 1.392 1_545 S
C862 C863 1.385 . S
C862 C864 1.478 1_545 S
C863 H857 0.930 . S
C863 C859 1.400 . S
C863 C862 1.385 . S
C864 C862 1.478 1_565 S
C864 C866 1.379 1_565 S
C864 C870 1.383 . S
C865 C861 1.495 . S
C865 H871 0.959 . S
C865 H872 0.961 . S
C865 H873 0.960 . S
C866 C864 1.379 1_545 S
C866 C867 1.391 1_545 S
C866 H874 0.935 . S
C867 C866 1.391 1_565 S
C867 C868 1.383 . S
C867 H875 0.929 . S
C868 C867 1.383 . S
C868 C869 1.377 . S
C869 H853 0.930 . S
C869 C868 1.377 . S
C869 C870 1.379 . S
C870 H854 0.931 . S
C870 C864 1.383 . S
C870 C869 1.379 . S
H871 C865 0.959 . S
H872 C865 0.961 . S
H873 C865 0.960 . S
H874 C866 0.935 . S
H875 C867 0.929 . S
H876 C884 0.929 . S
H877 C886 0.930 . S
H878 C888 0.930 . S
H879 C891 0.929 . S
H880 C894 0.930 . S
H881 C896 0.960 . S
H882 C896 0.960 . S
H883 C896 0.960 . S
C884 H876 0.929 . S
C884 C885 1.377 . S
C884 C886 1.384 . S
C885 C884 1.377 . S
C885 C891 1.390 . S
C886 H877 0.930 . S
C886 C884 1.384 . S
C886 C887 1.372 . S
C887 C886 1.372 . S
C887 C888 1.400 . S
C887 C892 1.490 . S
C888 H878 0.930 . S
C888 C887 1.400 . S
C888 C891 1.386 . S
H889 C905 0.930 . S
H890 C906 0.931 . S
C891 H879 0.929 . S
C891 C885 1.390 . S
C891 C888 1.386 . S
C892 C887 1.490 . S
C892 C894 1.395 . S
C892 C895 1.403 . S
H893 C899 0.930 . S
C894 H880 0.930 . S
C894 C892 1.395 . S
C894 C897 1.403 1_554 S
C895 C892 1.403 . S
C895 C896 1.524 1_545 S
C895 C899 1.400 1_544 S
C896 H881 0.960 . S
C896 H882 0.960 . S
C896 H883 0.960 . S
C896 C895 1.524 1_565 S
C897 C894 1.403 1_556 S
C897 C898 1.392 . S
C897 C901 1.495 . S
C898 C897 1.392 . S
C898 C899 1.385 1_545 S
C898 C900 1.478 . S
C899 H893 0.930 . S
C899 C895 1.400 1_566 S
C899 C898 1.385 1_565 S
C900 C898 1.478 . S
C900 C902 1.381 1_545 S
C900 C906 1.383 1_545 S
C901 C897 1.495 . S
C901 H907 0.959 . S
C901 H908 0.961 . S
C901 H909 0.960 . S
C902 C900 1.381 1_565 S
C902 C903 1.394 . S
C902 H910 0.929 1_565 S
C903 C902 1.394 . S
C903 C904 1.383 . S
C903 H911 0.929 . S
C904 C903 1.383 . S
C904 C905 1.377 . S
C905 H889 0.930 . S
C905 C904 1.377 . S
C905 C906 1.379 . S
C906 H890 0.931 . S
C906 C900 1.383 1_565 S
C906 C905 1.379 . S
H907 C901 0.959 . S
H908 C901 0.961 . S
H909 C901 0.960 . S
H910 C902 0.929 1_545 S
H911 C903 0.929 . S
H912 C920 0.929 . S
H913 C922 0.930 . S
H914 C924 0.930 . S
H915 C927 0.929 . S
H916 C930 0.930 . S
H917 C932 0.960 . S
H918 C932 0.960 . S
H919 C932 0.960 . S
C920 H912 0.929 . S
C920 C921 1.377 . S
C920 C922 1.384 . S
C921 C920 1.377 . S
C921 C927 1.390 . S
C922 H913 0.930 . S
C922 C920 1.384 . S
C922 C923 1.372 . S
C923 C922 1.372 . S
C923 C924 1.400 . S
C923 C928 1.490 1_455 S
C924 H914 0.930 . S
C924 C923 1.400 . S
C924 C927 1.386 . S
H925 C941 0.930 . S
H926 C942 0.931 . S
C927 H915 0.929 . S
C927 C921 1.390 . S
C927 C924 1.386 . S
C928 C923 1.490 1_655 S
C928 C930 1.395 . S
C928 C931 1.399 1_655 S
H929 C935 0.930 . S
C930 H916 0.930 . S
C930 C928 1.395 . S
C930 C933 1.403 . S
C931 C928 1.399 1_455 S
C931 C932 1.539 . S
C931 C935 1.388 1_455 S
C932 H917 0.960 . S
C932 H918 0.960 . S
C932 H919 0.960 . S
C932 C931 1.539 . S
C933 C930 1.403 . S
C933 C934 1.392 . S
C933 C937 1.495 . S
C934 C933 1.392 . S
C934 C935 1.385 . S
C934 C936 1.478 . S
C935 H929 0.930 . S
C935 C931 1.388 1_655 S
C935 C934 1.385 . S
C936 C934 1.478 . S
C936 C938 1.381 . S
C936 C942 1.383 . S
C937 C933 1.495 . S
C937 H943 0.959 . S
C937 H944 0.961 . S
C937 H945 0.960 . S
C938 C936 1.381 . S
C938 C939 1.394 . S
C938 H946 0.930 . S
C939 C938 1.394 . S
C939 C940 1.383 . S
C939 H947 0.929 . S
C940 C939 1.383 . S
C940 C941 1.377 . S
C941 H925 0.930 . S
C941 C940 1.377 . S
C941 C942 1.379 . S
C942 H926 0.931 . S
C942 C936 1.383 . S
C942 C941 1.379 . S
H943 C937 0.959 . S
H944 C937 0.961 . S
H945 C937 0.960 . S
H946 C938 0.930 . S
H947 C939 0.929 . S
H948 C956 0.929 . S
H949 C958 0.930 . S
H950 C960 0.930 . S
H951 C963 0.929 . S
H952 C966 0.930 . S
H953 C968 0.960 . S
H954 C968 0.960 1_554 S
H955 C968 0.960 . S
C956 H948 0.929 . S
C956 C957 1.377 . S
C956 C958 1.384 . S
C957 C956 1.377 . S
C957 C963 1.390 . S
C958 H949 0.930 . S
C958 C956 1.384 . S
C958 C959 1.372 . S
C959 C958 1.372 . S
C959 C960 1.400 . S
C959 C964 1.490 . S
C960 H950 0.930 . S
C960 C959 1.400 . S
C960 C963 1.386 . S
H961 C977 0.930 . S
H962 C978 0.931 . S
C963 H951 0.929 . S
C963 C957 1.390 . S
C963 C960 1.386 . S
C964 C959 1.490 . S
C964 C966 1.395 . S
C964 C967 1.399 1_554 S
H965 C971 0.930 . S
C966 H952 0.930 . S
C966 C964 1.395 . S
C966 C969 1.403 1_455 S
C967 C964 1.399 1_556 S
C967 C968 1.526 . S
C967 C971 1.402 . S
C968 H953 0.960 . S
C968 H954 0.960 1_556 S
C968 H955 0.960 . S
C968 C967 1.526 . S
C969 C966 1.403 1_655 S
C969 C970 1.392 1_554 S
C969 C973 1.495 . S
C970 C969 1.392 1_556 S
C970 C971 1.385 1_655 S
C970 C972 1.478 . S
C971 H965 0.930 . S
C971 C967 1.402 . S
C971 C970 1.385 1_455 S
C972 C970 1.478 . S
C972 C974 1.381 . S
C972 C978 1.383 . S
C973 C969 1.495 . S
C973 H979 0.959 . S
C973 H980 0.961 . S
C973 H981 0.960 . S
C974 C972 1.381 . S
C974 C975 1.394 . S
C974 H982 0.930 . S
C975 C974 1.394 . S
C975 C976 1.383 . S
C975 H983 0.929 . S
C976 C975 1.383 . S
C976 C977 1.377 . S
C977 H961 0.930 . S
C977 C976 1.377 . S
C977 C978 1.379 . S
C978 H962 0.931 . S
C978 C972 1.383 . S
C978 C977 1.379 . S
H979 C973 0.959 . S
H980 C973 0.961 . S
H981 C973 0.960 . S
H982 C974 0.930 . S
H983 C975 0.929 . S
C273 C216 1.661 . S
C292 N13 1.639 . S
C309 N46 1.618 . S
C328 C249 1.666 . S
C345 C84 1.662 . S
C364 N145 1.633 . S
C381 C117 1.660 . S
C400 N178 1.595 . S
C417 N35 1.230 . S
C436 N2 1.232 . S
C453 C73 1.119 . S
C472 C106 1.118 . S
C489 N167 1.235 . S
C508 N134 1.207 . S
C525 C205 1.127 . S
C544 C238 1.147 . S
C561 C183 1.303 . S
C580 C21 1.308 1_565 S
C597 C54 1.304 1_565 S
C616 C150 1.286 . S
C633 C87 1.380 1_545 S
C652 N244 1.356 . S
C669 N211 1.358 . S
C688 C120 1.378 1_545 S
C705 C153 1.306 . S
C724 C51 1.310 . S
C741 C186 1.306 . S
C760 C18 1.299 . S
C777 C219 1.380 . S
C796 N112 1.372 . S
C813 N79 1.356 . S
C832 C252 1.377 . S
C849 C7 1.521 . S
C868 N68 1.489 . S
C885 C40 1.514 . S
C904 N101 1.496 . S
C921 N200 1.482 . S
C940 C139 1.514 . S
C957 C172 1.515 . S
C976 N233 1.470 . S
