# Generated by pormake.
# Topology unl, (4)-cn, num edge types: 1
# Building blocks:
#     Node 0, Type 0, BuildingBlock: AZAVOO_clean_sbu_0, # of connection points: 4
#     Node 1, Type 0, BuildingBlock: AZAVOO_clean_sbu_0, # of connection points: 4
#     Node 2, Type 0, BuildingBlock: AZAVOO_clean_sbu_0, # of connection points: 4
#     Node 3, Type 0, BuildingBlock: AZAVOO_clean_sbu_0, # of connection points: 4
#     Node 4, Type 0, BuildingBlock: AZAVOO_clean_sbu_0, # of connection points: 4
#     Node 5, Type 0, BuildingBlock: AZAVOO_clean_sbu_0, # of connection points: 4
#     Node 6, Type 0, BuildingBlock: AZAVOO_clean_sbu_0, # of connection points: 4
#     Node 7, Type 0, BuildingBlock: AZAVOO_clean_sbu_0, # of connection points: 4
#     Node 8, Type 0, BuildingBlock: AZAVOO_clean_sbu_0, # of connection points: 4
#     Node 9, Type 0, BuildingBlock: AZAVOO_clean_sbu_0, # of connection points: 4
#     Node 10, Type 0, BuildingBlock: AZAVOO_clean_sbu_0, # of connection points: 4
#     Node 11, Type 0, BuildingBlock: AZAVOO_clean_sbu_0, # of connection points: 4
#     Node 12, Type 0, BuildingBlock: AZAVOO_clean_sbu_0, # of connection points: 4
#     Node 13, Type 0, BuildingBlock: AZAVOO_clean_sbu_0, # of connection points: 4
#     Node 14, Type 0, BuildingBlock: AZAVOO_clean_sbu_0, # of connection points: 4
#     Node 15, Type 0, BuildingBlock: AZAVOO_clean_sbu_0, # of connection points: 4
#     Node 16, Type 0, BuildingBlock: AZAVOO_clean_sbu_0, # of connection points: 4
#     Node 17, Type 0, BuildingBlock: AZAVOO_clean_sbu_0, # of connection points: 4
#     Node 18, Type 0, BuildingBlock: AZAVOO_clean_sbu_0, # of connection points: 4
#     Node 19, Type 0, BuildingBlock: AZAVOO_clean_sbu_0, # of connection points: 4
#     Node 20, Type 0, BuildingBlock: AZAVOO_clean_sbu_0, # of connection points: 4
#     Node 21, Type 0, BuildingBlock: AZAVOO_clean_sbu_0, # of connection points: 4
#     Node 22, Type 0, BuildingBlock: AZAVOO_clean_sbu_0, # of connection points: 4
#     Node 23, Type 0, BuildingBlock: AZAVOO_clean_sbu_0, # of connection points: 4
#     Node 24, Type 0, BuildingBlock: AZAVOO_clean_sbu_0, # of connection points: 4
#     Node 25, Type 0, BuildingBlock: AZAVOO_clean_sbu_0, # of connection points: 4
#     Node 26, Type 0, BuildingBlock: AZAVOO_clean_sbu_0, # of connection points: 4
#     Node 27, Type 0, BuildingBlock: AZAVOO_clean_sbu_0, # of connection points: 4
#     Node 28, Type 0, BuildingBlock: AZAVOO_clean_sbu_0, # of connection points: 4
#     Node 29, Type 0, BuildingBlock: AZAVOO_clean_sbu_0, # of connection points: 4
#     Node 30, Type 0, BuildingBlock: AZAVOO_clean_sbu_0, # of connection points: 4
#     Node 31, Type 0, BuildingBlock: AZAVOO_clean_sbu_0, # of connection points: 4
#     Node 32, Type 0, BuildingBlock: AZAVOO_clean_sbu_0, # of connection points: 4
#     Node 33, Type 0, BuildingBlock: AZAVOO_clean_sbu_0, # of connection points: 4
#     Node 34, Type 0, BuildingBlock: AZAVOO_clean_sbu_0, # of connection points: 4
#     Node 35, Type 0, BuildingBlock: AZAVOO_clean_sbu_0, # of connection points: 4
#     Edge 36, Type (0, 0), BuildingBlock: KIFKEQ_clean_linker_1, # of connection points: 2
#     Edge 37, Type (0, 0), BuildingBlock: KIFKEQ_clean_linker_1, # of connection points: 2
#     Edge 38, Type (0, 0), BuildingBlock: KIFKEQ_clean_linker_1, # of connection points: 2
#     Edge 39, Type (0, 0), BuildingBlock: KIFKEQ_clean_linker_1, # of connection points: 2
#     Edge 40, Type (0, 0), BuildingBlock: KIFKEQ_clean_linker_1, # of connection points: 2
#     Edge 41, Type (0, 0), BuildingBlock: KIFKEQ_clean_linker_1, # of connection points: 2
#     Edge 42, Type (0, 0), BuildingBlock: KIFKEQ_clean_linker_1, # of connection points: 2
#     Edge 43, Type (0, 0), BuildingBlock: KIFKEQ_clean_linker_1, # of connection points: 2
#     Edge 44, Type (0, 0), BuildingBlock: KIFKEQ_clean_linker_1, # of connection points: 2
#     Edge 45, Type (0, 0), BuildingBlock: KIFKEQ_clean_linker_1, # of connection points: 2
#     Edge 46, Type (0, 0), BuildingBlock: KIFKEQ_clean_linker_1, # of connection points: 2
#     Edge 47, Type (0, 0), BuildingBlock: KIFKEQ_clean_linker_1, # of connection points: 2
#     Edge 48, Type (0, 0), BuildingBlock: KIFKEQ_clean_linker_1, # of connection points: 2
#     Edge 49, Type (0, 0), BuildingBlock: KIFKEQ_clean_linker_1, # of connection points: 2
#     Edge 50, Type (0, 0), BuildingBlock: KIFKEQ_clean_linker_1, # of connection points: 2
#     Edge 51, Type (0, 0), BuildingBlock: KIFKEQ_clean_linker_1, # of connection points: 2
#     Edge 52, Type (0, 0), BuildingBlock: KIFKEQ_clean_linker_1, # of connection points: 2
#     Edge 53, Type (0, 0), BuildingBlock: KIFKEQ_clean_linker_1, # of connection points: 2
#     Edge 54, Type (0, 0), BuildingBlock: KIFKEQ_clean_linker_1, # of connection points: 2
#     Edge 55, Type (0, 0), BuildingBlock: KIFKEQ_clean_linker_1, # of connection points: 2
#     Edge 56, Type (0, 0), BuildingBlock: KIFKEQ_clean_linker_1, # of connection points: 2
#     Edge 57, Type (0, 0), BuildingBlock: KIFKEQ_clean_linker_1, # of connection points: 2
#     Edge 58, Type (0, 0), BuildingBlock: KIFKEQ_clean_linker_1, # of connection points: 2
#     Edge 59, Type (0, 0), BuildingBlock: KIFKEQ_clean_linker_1, # of connection points: 2
#     Edge 60, Type (0, 0), BuildingBlock: KIFKEQ_clean_linker_1, # of connection points: 2
#     Edge 61, Type (0, 0), BuildingBlock: KIFKEQ_clean_linker_1, # of connection points: 2
#     Edge 62, Type (0, 0), BuildingBlock: KIFKEQ_clean_linker_1, # of connection points: 2
#     Edge 63, Type (0, 0), BuildingBlock: KIFKEQ_clean_linker_1, # of connection points: 2
#     Edge 64, Type (0, 0), BuildingBlock: KIFKEQ_clean_linker_1, # of connection points: 2
#     Edge 65, Type (0, 0), BuildingBlock: KIFKEQ_clean_linker_1, # of connection points: 2
#     Edge 66, Type (0, 0), BuildingBlock: KIFKEQ_clean_linker_1, # of connection points: 2
#     Edge 67, Type (0, 0), BuildingBlock: KIFKEQ_clean_linker_1, # of connection points: 2
#     Edge 68, Type (0, 0), BuildingBlock: KIFKEQ_clean_linker_1, # of connection points: 2
#     Edge 69, Type (0, 0), BuildingBlock: KIFKEQ_clean_linker_1, # of connection points: 2
#     Edge 70, Type (0, 0), BuildingBlock: KIFKEQ_clean_linker_1, # of connection points: 2
#     Edge 71, Type (0, 0), BuildingBlock: KIFKEQ_clean_linker_1, # of connection points: 2
#     Edge 72, Type (0, 0), BuildingBlock: KIFKEQ_clean_linker_1, # of connection points: 2
#     Edge 73, Type (0, 0), BuildingBlock: KIFKEQ_clean_linker_1, # of connection points: 2
#     Edge 74, Type (0, 0), BuildingBlock: KIFKEQ_clean_linker_1, # of connection points: 2
#     Edge 75, Type (0, 0), BuildingBlock: KIFKEQ_clean_linker_1, # of connection points: 2
#     Edge 76, Type (0, 0), BuildingBlock: KIFKEQ_clean_linker_1, # of connection points: 2
#     Edge 77, Type (0, 0), BuildingBlock: KIFKEQ_clean_linker_1, # of connection points: 2
#     Edge 78, Type (0, 0), BuildingBlock: KIFKEQ_clean_linker_1, # of connection points: 2
#     Edge 79, Type (0, 0), BuildingBlock: KIFKEQ_clean_linker_1, # of connection points: 2
#     Edge 80, Type (0, 0), BuildingBlock: KIFKEQ_clean_linker_1, # of connection points: 2
#     Edge 81, Type (0, 0), BuildingBlock: KIFKEQ_clean_linker_1, # of connection points: 2
#     Edge 82, Type (0, 0), BuildingBlock: KIFKEQ_clean_linker_1, # of connection points: 2
#     Edge 83, Type (0, 0), BuildingBlock: KIFKEQ_clean_linker_1, # of connection points: 2
#     Edge 84, Type (0, 0), BuildingBlock: KIFKEQ_clean_linker_1, # of connection points: 2
#     Edge 85, Type (0, 0), BuildingBlock: KIFKEQ_clean_linker_1, # of connection points: 2
#     Edge 86, Type (0, 0), BuildingBlock: KIFKEQ_clean_linker_1, # of connection points: 2
#     Edge 87, Type (0, 0), BuildingBlock: KIFKEQ_clean_linker_1, # of connection points: 2
#     Edge 88, Type (0, 0), BuildingBlock: KIFKEQ_clean_linker_1, # of connection points: 2
#     Edge 89, Type (0, 0), BuildingBlock: KIFKEQ_clean_linker_1, # of connection points: 2
#     Edge 90, Type (0, 0), BuildingBlock: KIFKEQ_clean_linker_1, # of connection points: 2
#     Edge 91, Type (0, 0), BuildingBlock: KIFKEQ_clean_linker_1, # of connection points: 2
#     Edge 92, Type (0, 0), BuildingBlock: KIFKEQ_clean_linker_1, # of connection points: 2
#     Edge 93, Type (0, 0), BuildingBlock: KIFKEQ_clean_linker_1, # of connection points: 2
#     Edge 94, Type (0, 0), BuildingBlock: KIFKEQ_clean_linker_1, # of connection points: 2
#     Edge 95, Type (0, 0), BuildingBlock: KIFKEQ_clean_linker_1, # of connection points: 2
#     Edge 96, Type (0, 0), BuildingBlock: KIFKEQ_clean_linker_1, # of connection points: 2
#     Edge 97, Type (0, 0), BuildingBlock: KIFKEQ_clean_linker_1, # of connection points: 2
#     Edge 98, Type (0, 0), BuildingBlock: KIFKEQ_clean_linker_1, # of connection points: 2
#     Edge 99, Type (0, 0), BuildingBlock: KIFKEQ_clean_linker_1, # of connection points: 2
#     Edge 100, Type (0, 0), BuildingBlock: KIFKEQ_clean_linker_1, # of connection points: 2
#     Edge 101, Type (0, 0), BuildingBlock: KIFKEQ_clean_linker_1, # of connection points: 2
#     Edge 102, Type (0, 0), BuildingBlock: KIFKEQ_clean_linker_1, # of connection points: 2
#     Edge 103, Type (0, 0), BuildingBlock: KIFKEQ_clean_linker_1, # of connection points: 2
#     Edge 104, Type (0, 0), BuildingBlock: KIFKEQ_clean_linker_1, # of connection points: 2
#     Edge 105, Type (0, 0), BuildingBlock: KIFKEQ_clean_linker_1, # of connection points: 2
#     Edge 106, Type (0, 0), BuildingBlock: KIFKEQ_clean_linker_1, # of connection points: 2
#     Edge 107, Type (0, 0), BuildingBlock: KIFKEQ_clean_linker_1, # of connection points: 2
# Relax obj value: 0.206
# Max RMSD: 0.223
# Mean RMSD: 0.216
data_MOF--net-unl--node1-AZAVOO_clean_sbu_0--edge1-KIFKEQ_clean_linker_1
_symmetry_space_group_name_H-M    P1
_symmetry_Int_Tables_number       1
_symmetry_cell_setting            triclinic
loop_
_symmetry_equiv_pos_as_xyz
'x, y, z'
_cell_length_a     65.552779
_cell_length_b     64.885447
_cell_length_c     38.250022
_cell_angle_alpha  90.678269
_cell_angle_beta   90.020101
_cell_angle_gamma 120.36412
loop_
_atom_site_label
_atom_site_type_symbol
_atom_site_fract_x
_atom_site_fract_y
_atom_site_fract_z
_atom_type_partial_charge
Mg0 Mg 0.20045 0.1047 0.07785 0.0
O1 O 0.17549 0.09704 0.12414 0.0
O2 O 0.13874 0.08187 0.10353 0.0
Mg3 Mg 0.14005 0.08 0.0441 0.0
C4 C 0.15343 0.0887 0.12895 0.0
C5 C 0.23788 0.12749 0.1368 0.0
O6 O 0.22874 0.14144 0.13698 0.0
O7 O 0.1877 0.06514 0.0691 0.0
O8 O 0.15165 0.05216 0.04654 0.0
O9 O 0.20537 0.14123 0.07221 0.0
O10 O 0.17742 0.10901 0.04516 0.0
C11 C 0.16832 0.04861 0.05584 0.0
C12 C 0.18712 0.13157 0.05162 0.0
O13 O 0.2296 0.10979 0.11562 0.0
Mg14 Mg 0.92611 0.10756 0.16514 0.0
O15 O 0.898 0.07679 0.13171 0.0
O16 O 0.87002 0.04923 0.16573 0.0
Mg17 Mg 0.87867 0.06467 0.22144 0.0
C18 C 0.87902 0.05677 0.13568 0.0
C19 C 0.96242 0.13149 0.10622 0.0
O20 O 0.97283 0.1234 0.12668 0.0
O21 O 0.90144 0.12245 0.17029 0.0
O22 O 0.87275 0.09506 0.20373 0.0
O23 O 0.94362 0.08607 0.17308 0.0
O24 O 0.91645 0.08524 0.20826 0.0
C25 C 0.88173 0.11428 0.18611 0.0
C26 C 0.92964 0.07666 0.19938 0.0
O27 O 0.9424 0.12842 0.11507 0.0
Mg28 Mg 0.90948 0.81367 0.14488 0.0
O29 O 0.93378 0.81485 0.10075 0.0
O30 O 0.95655 0.80115 0.1212 0.0
Mg31 Mg 0.94733 0.79176 0.17859 0.0
C32 C 0.94989 0.80951 0.09649 0.0
C33 C 0.89492 0.83868 0.08913 0.0
O34 O 0.91657 0.85586 0.09632 0.0
O35 O 0.8869 0.77312 0.13931 0.0
O36 O 0.91062 0.76126 0.16219 0.0
O37 O 0.93703 0.85041 0.16305 0.0
O38 O 0.93432 0.81712 0.18195 0.0
C39 C 0.89095 0.75665 0.14851 0.0
C40 C 0.94552 0.84011 0.18213 0.0
O41 O 0.88669 0.81892 0.10484 0.0
Mg42 Mg 0.09518 0.17796 0.36133 0.0
O43 O 0.12211 0.18224 0.40296 0.0
O44 O 0.15756 0.19689 0.37826 0.0
Mg45 Mg 0.15292 0.20086 0.31973 0.0
C46 C 0.14417 0.18952 0.40498 0.0
C47 C 0.04867 0.1693 0.39774 0.0
O48 O 0.04206 0.16784 0.36494 0.0
O49 O 0.11054 0.21845 0.36068 0.0
O50 O 0.14392 0.22998 0.33106 0.0
O51 O 0.08746 0.14077 0.34868 0.0
O52 O 0.1153 0.17321 0.32329 0.0
C53 C 0.12916 0.23456 0.34579 0.0
C54 C 0.10498 0.15044 0.32715 0.0
O55 O 0.06944 0.17356 0.40454 0.0
Mg56 Mg 0.81512 0.88519 0.33082 0.0
O57 O 0.81894 0.91687 0.36335 0.0
O58 O 0.81682 0.94307 0.32838 0.0
Mg59 Mg 0.80953 0.92682 0.27323 0.0
C60 C 0.81938 0.93654 0.35864 0.0
C61 C 0.81884 0.85039 0.38168 0.0
O62 O 0.82706 0.84629 0.35272 0.0
O63 O 0.77545 0.87061 0.32768 0.0
O64 O 0.77353 0.89712 0.29299 0.0
O65 O 0.85386 0.90584 0.32118 0.0
O66 O 0.82701 0.90657 0.28689 0.0
C67 C 0.76363 0.87846 0.31185 0.0
C68 C 0.84893 0.91504 0.29494 0.0
O69 O 0.81167 0.86529 0.38124 0.0
Mg70 Mg 0.10159 0.89833 0.41777 0.0
O71 O 0.08073 0.90294 0.37379 0.0
O72 O 0.06103 0.9199 0.3952 0.0
Mg73 Mg 0.06915 0.92606 0.45374 0.0
C74 C 0.06676 0.91102 0.36975 0.0
C75 C 0.11095 0.87061 0.35943 0.0
O76 O 0.08827 0.85626 0.36486 0.0
O77 O 0.12925 0.93813 0.41974 0.0
O78 O 0.10825 0.95296 0.4442 0.0
O79 O 0.07007 0.8629 0.4313 0.0
O80 O 0.07787 0.89739 0.45467 0.0
C81 C 0.1276 0.95559 0.43221 0.0
C82 C 0.06411 0.87464 0.45248 0.0
O83 O 0.1219 0.89005 0.37692 0.0
Mg84 Mg 0.78916 0.90774 0.87303 0.0
O85 O 0.80101 0.8868 0.90701 0.0
O86 O 0.79368 0.85337 0.87902 0.0
Mg87 Mg 0.7758 0.85226 0.82704 0.0
C88 C 0.80174 0.86753 0.9054 0.0
C89 C 0.81365 0.95262 0.91976 0.0
O90 O 0.82699 0.95893 0.89181 0.0
O91 O 0.75008 0.88205 0.88621 0.0
O92 O 0.7441 0.84992 0.85547 0.0
O93 O 0.82441 0.92421 0.846 0.0
O94 O 0.79239 0.89134 0.82801 0.0
C95 C 0.73654 0.86059 0.87524 0.0
C96 C 0.81456 0.90623 0.82447 0.0
O97 O 0.79514 0.93207 0.92026 0.0
Mg98 Mg 0.0869 0.88264 0.82735 0.0
O99 O 0.1093 0.91137 0.86809 0.0
O100 O 0.14402 0.938 0.84512 0.0
Mg101 Mg 0.14329 0.92636 0.78819 0.0
C102 C 0.12969 0.93008 0.8707 0.0
C103 C 0.04084 0.85436 0.87089 0.0
O104 O 0.03209 0.8589 0.84306 0.0
O105 O 0.11035 0.86608 0.83429 0.0
O106 O 0.14365 0.89375 0.80903 0.0
O107 O 0.07262 0.90568 0.80936 0.0
O108 O 0.10432 0.9067 0.78753 0.0
C109 C 0.13172 0.87396 0.82483 0.0
C110 C 0.09074 0.91566 0.78891 0.0
O111 O 0.06266 0.86085 0.87161 0.0
Mg112 Mg 0.08694 0.19676 0.83413 0.0
O113 O 0.05973 0.19396 0.87318 0.0
O114 O 0.03182 0.19893 0.84827 0.0
Mg115 Mg 0.04357 0.20741 0.79076 0.0
C116 C 0.04081 0.19485 0.87502 0.0
C117 C 0.13055 0.20775 0.88486 0.0
O118 O 0.14432 0.2214 0.85987 0.0
O119 O 0.10398 0.23699 0.83525 0.0
O120 O 0.07752 0.24269 0.80652 0.0
O121 O 0.06389 0.15825 0.82094 0.0
O122 O 0.0628 0.1875 0.79321 0.0
C123 C 0.0974 0.25077 0.82231 0.0
C124 C 0.05421 0.16493 0.79757 0.0
O125 O 0.10827 0.19679 0.88074 0.0
Mg126 Mg 0.88614 0.79055 0.66036 0.0
O127 O 0.8649 0.79483 0.6166 0.0
O128 O 0.82951 0.78608 0.6367 0.0
Mg129 Mg 0.82846 0.77636 0.69446 0.0
C130 C 0.84458 0.79258 0.61207 0.0
C131 C 0.93395 0.80382 0.62882 0.0
O132 O 0.93958 0.81195 0.66111 0.0
O133 O 0.86396 0.75011 0.65534 0.0
O134 O 0.82999 0.74264 0.68001 0.0
O135 O 0.89988 0.82845 0.67706 0.0
O136 O 0.86741 0.79755 0.69756 0.0
C137 C 0.84312 0.73553 0.66603 0.0
C138 C 0.8813 0.82034 0.69652 0.0
O139 O 0.91231 0.79265 0.61986 0.0
Mg140 Mg 0.21022 0.1154 0.66569 0.0
O141 O 0.20484 0.08851 0.62236 0.0
O142 O 0.21146 0.06041 0.64346 0.0
Mg143 Mg 0.2197 0.06879 0.70184 0.0
C144 C 0.20632 0.06977 0.61831 0.0
C145 C 0.19771 0.1494 0.6262 0.0
O146 O 0.18588 0.14656 0.6552 0.0
O147 O 0.25029 0.13116 0.66237 0.0
O148 O 0.25413 0.10201 0.68632 0.0
O149 O 0.17208 0.09255 0.68 0.0
O150 O 0.20121 0.08926 0.70302 0.0
C151 C 0.26305 0.12257 0.67247 0.0
C152 C 0.17886 0.08115 0.70004 0.0
O153 O 0.2104 0.1398 0.62336 0.0
Mg154 Mg 0.87844 0.08224 0.62169 0.0
O155 O 0.9116 0.10623 0.59017 0.0
O156 O 0.93787 0.13646 0.62361 0.0
Mg157 Mg 0.92011 0.13278 0.67659 0.0
C158 C 0.93178 0.12501 0.59454 0.0
C159 C 0.84775 0.0399 0.57259 0.0
O160 O 0.84335 0.02965 0.60326 0.0
O161 O 0.86574 0.10904 0.61558 0.0
O162 O 0.89193 0.13849 0.65046 0.0
O163 O 0.89658 0.06322 0.64112 0.0
O164 O 0.89758 0.09404 0.66828 0.0
C165 C 0.87402 0.12969 0.62988 0.0
C166 C 0.9048 0.07897 0.6662 0.0
O167 O 0.8609 0.06245 0.57115 0.0
Mg168 Mg 0.86967 0.4391 0.40877 0.0
O169 O 0.84705 0.43222 0.45768 0.0
O170 O 0.80895 0.41238 0.44169 0.0
Mg171 Mg 0.80714 0.40848 0.38225 0.0
C172 C 0.8251 0.42197 0.46507 0.0
C173 C 0.91092 0.46686 0.46173 0.0
O174 O 0.902 0.48099 0.46077 0.0
O175 O 0.85941 0.3999 0.40315 0.0
O176 O 0.82196 0.38327 0.38432 0.0
O177 O 0.87122 0.47404 0.40072 0.0
O178 O 0.84332 0.43933 0.37911 0.0
C179 C 0.84013 0.38188 0.39229 0.0
C180 C 0.85155 0.46185 0.38357 0.0
O181 O 0.90144 0.44781 0.44326 0.0
Mg182 Mg 0.59734 0.444 0.49003 0.0
O183 O 0.56615 0.41166 0.46344 0.0
O184 O 0.54004 0.38858 0.50356 0.0
Mg185 Mg 0.55428 0.40746 0.55646 0.0
C186 C 0.5468 0.39307 0.47184 0.0
C187 C 0.63062 0.47938 0.43427 0.0
O188 O 0.64327 0.48861 0.46289 0.0
O189 O 0.57419 0.4606 0.4963 0.0
O190 O 0.54881 0.43787 0.5375 0.0
O191 O 0.61447 0.42223 0.4978 0.0
O192 O 0.59055 0.42492 0.53603 0.0
C193 C 0.55659 0.45523 0.51618 0.0
C194 C 0.60245 0.41501 0.52641 0.0
O195 O 0.61021 0.46092 0.43664 0.0
Mg196 Mg 0.57425 0.14554 0.49027 0.0
O197 O 0.59923 0.14454 0.44952 0.0
O198 O 0.62095 0.13084 0.47377 0.0
Mg199 Mg 0.61022 0.12367 0.53131 0.0
C200 C 0.61504 0.13865 0.44746 0.0
C201 C 0.53681 0.15427 0.45204 0.0
O202 O 0.5305 0.15471 0.48452 0.0
O203 O 0.55087 0.10485 0.48676 0.0
O204 O 0.57329 0.09363 0.51562 0.0
O205 O 0.60228 0.18252 0.50739 0.0
O206 O 0.59764 0.14935 0.53011 0.0
C207 C 0.5541 0.08869 0.49995 0.0
C208 C 0.60956 0.17228 0.52887 0.0
O209 O 0.55385 0.15067 0.44614 0.0
Mg210 Mg 0.75684 0.50544 0.68945 0.0
O211 O 0.78034 0.50666 0.73489 0.0
O212 O 0.81655 0.5188 0.71433 0.0
Mg213 Mg 0.81615 0.52453 0.65551 0.0
C214 C 0.80181 0.51207 0.73945 0.0
C215 C 0.71088 0.48328 0.7343 0.0
O216 O 0.70771 0.46411 0.71746 0.0
O217 O 0.77544 0.54604 0.68938 0.0
O218 O 0.81063 0.55628 0.6663 0.0
O219 O 0.74678 0.46759 0.67646 0.0
O220 O 0.77783 0.49958 0.65508 0.0
C221 C 0.79581 0.56177 0.67846 0.0
C222 C 0.76578 0.47675 0.65784 0.0
O223 O 0.72938 0.50321 0.72838 0.0
Mg224 Mg 0.49312 0.22739 0.67359 0.0
O225 O 0.49305 0.25851 0.70194 0.0
O226 O 0.48893 0.28188 0.66363 0.0
Mg227 Mg 0.48513 0.26444 0.60968 0.0
C228 C 0.49144 0.27681 0.69491 0.0
C229 C 0.4948 0.19342 0.72878 0.0
O230 O 0.50059 0.18603 0.70036 0.0
O231 O 0.45319 0.20972 0.66754 0.0
O232 O 0.44979 0.23285 0.62779 0.0
O233 O 0.53195 0.25049 0.66572 0.0
O234 O 0.50475 0.24738 0.6283 0.0
C235 C 0.4406 0.21501 0.64828 0.0
C236 C 0.52664 0.25776 0.63762 0.0
O237 O 0.4899 0.20996 0.72634 0.0
Mg238 Mg 0.7807 0.24018 0.74718 0.0
O239 O 0.75638 0.24408 0.70692 0.0
O240 O 0.73377 0.25629 0.73363 0.0
Mg241 Mg 0.7541 0.27305 0.78398 0.0
C242 C 0.7392 0.2482 0.70674 0.0
C243 C 0.78423 0.20868 0.68848 0.0
O244 O 0.76179 0.19566 0.69663 0.0
O245 O 0.81118 0.27903 0.74657 0.0
O246 O 0.78434 0.28901 0.74553 0.0
O247 O 0.74931 0.20671 0.76449 0.0
O248 O 0.75995 0.242 0.78846 0.0
C249 C 0.80527 0.29451 0.75324 0.0
C250 C 0.74504 0.21934 0.78652 0.0
O251 O 0.79685 0.22876 0.7038 0.0
Mg252 Mg 0.45531 0.24066 0.22364 0.0
O253 O 0.46443 0.21695 0.25601 0.0
O254 O 0.46252 0.1878 0.22217 0.0
Mg255 Mg 0.45076 0.19236 0.16773 0.0
C256 C 0.46655 0.19859 0.25169 0.0
C257 C 0.46051 0.28095 0.27176 0.0
O258 O 0.46385 0.29042 0.2406 0.0
O259 O 0.41591 0.21267 0.22548 0.0
O260 O 0.415 0.18499 0.18909 0.0
O261 O 0.49314 0.26169 0.20775 0.0
O262 O 0.46539 0.23075 0.17784 0.0
C263 C 0.40456 0.19273 0.20892 0.0
C264 C 0.48731 0.24672 0.18183 0.0
O265 O 0.45465 0.25913 0.27399 0.0
Mg266 Mg 0.74862 0.21149 0.17669 0.0
O267 O 0.77429 0.24019 0.21485 0.0
O268 O 0.80686 0.26652 0.18667 0.0
Mg269 Mg 0.80112 0.25469 0.12892 0.0
C270 C 0.79478 0.25885 0.2146 0.0
C271 C 0.70546 0.1787 0.22222 0.0
O272 O 0.69498 0.17903 0.19312 0.0
O273 O 0.77216 0.19494 0.1759 0.0
O274 O 0.8027 0.22148 0.14421 0.0
O275 O 0.73313 0.23444 0.16614 0.0
O276 O 0.76248 0.23563 0.13586 0.0
C277 C 0.792 0.20194 0.16099 0.0
C278 C 0.74929 0.2446 0.1426 0.0
O279 O 0.7279 0.18958 0.22339 0.0
Mg280 Mg 0.75238 0.52722 0.15497 0.0
O281 O 0.7261 0.52491 0.19572 0.0
O282 O 0.69949 0.53257 0.17256 0.0
Mg283 Mg 0.71013 0.54103 0.11477 0.0
C284 C 0.70793 0.52708 0.19858 0.0
C285 C 0.76435 0.50715 0.21807 0.0
O286 O 0.74244 0.49082 0.21037 0.0
O287 O 0.77094 0.56768 0.15756 0.0
O288 O 0.74511 0.57505 0.13034 0.0
O289 O 0.72787 0.48909 0.14024 0.0
O290 O 0.7278 0.51966 0.11525 0.0
C291 C 0.76502 0.58221 0.14552 0.0
C292 C 0.71835 0.49691 0.1184 0.0
O293 O 0.77467 0.52576 0.1995 0.0
Mg294 Mg 0.57526 0.15289 0.00904 0.0
O295 O 0.55078 0.15433 0.96813 0.0
O296 O 0.51594 0.14496 0.99096 0.0
Mg297 Mg 0.51813 0.13589 0.04831 0.0
C298 C 0.53006 0.15124 0.96512 0.0
C299 C 0.61265 0.14793 0.96048 0.0
O300 O 0.61142 0.13238 0.98332 0.0
O301 O 0.55515 0.1122 0.00535 0.0
O302 O 0.52093 0.10334 0.03076 0.0
O303 O 0.58683 0.19034 0.02492 0.0
O304 O 0.55709 0.1584 0.04909 0.0
C305 C 0.53448 0.097 0.01608 0.0
C306 C 0.56956 0.18129 0.04693 0.0
O307 O 0.60009 0.15756 0.96462 0.0
Mg308 Mg 0.86057 0.44182 0.01548 0.0
O309 O 0.85494 0.41263 0.97608 0.0
O310 O 0.86117 0.38552 0.00179 0.0
Mg311 Mg 0.87091 0.39787 0.05885 0.0
C312 C 0.85584 0.39345 0.97502 0.0
C313 C 0.84632 0.47202 0.96988 0.0
O314 O 0.83358 0.46931 0.99782 0.0
O315 O 0.90056 0.45774 0.01188 0.0
O316 O 0.90516 0.43007 0.03926 0.0
O317 O 0.82269 0.41946 0.02993 0.0
O318 O 0.85196 0.41785 0.05619 0.0
C319 C 0.91366 0.44982 0.02307 0.0
C320 C 0.82958 0.40921 0.05199 0.0
O321 O 0.86016 0.46367 0.96973 0.0
Mg322 Mg 0.53932 0.42334 0.95014 0.0
O323 O 0.57241 0.44493 0.91716 0.0
O324 O 0.60029 0.47532 0.94857 0.0
Mg325 Mg 0.58341 0.47465 0.00126 0.0
C326 C 0.59324 0.46292 0.92037 0.0
C327 C 0.5075 0.38045 0.90229 0.0
O328 O 0.50316 0.37041 0.93312 0.0
O329 O 0.52821 0.45114 0.94279 0.0
O330 O 0.55597 0.48156 0.97472 0.0
O331 O 0.55602 0.40333 0.97052 0.0
O332 O 0.55931 0.43575 0.99595 0.0
C333 C 0.53757 0.47242 0.95513 0.0
C334 C 0.56544 0.41978 0.99455 0.0
O335 O 0.52075 0.40296 0.90051 0.0
Mg336 Mg 0.53436 0.77087 0.74783 0.0
O337 O 0.50957 0.7668 0.79266 0.0
O338 O 0.47292 0.75171 0.7718 0.0
Mg339 Mg 0.47415 0.74633 0.71297 0.0
C340 C 0.4877 0.75959 0.79713 0.0
C341 C 0.57152 0.79683 0.80601 0.0
O342 O 0.56309 0.81118 0.80147 0.0
O343 O 0.52032 0.73057 0.74456 0.0
O344 O 0.48481 0.71818 0.72051 0.0
O345 O 0.54021 0.8073 0.73641 0.0
O346 O 0.51196 0.77398 0.71221 0.0
C347 C 0.50075 0.71405 0.73164 0.0
C348 C 0.522 0.79679 0.71583 0.0
O349 O 0.56295 0.77759 0.78799 0.0
Mg350 Mg 0.25734 0.77087 0.831 0.0
O351 O 0.22665 0.74056 0.80078 0.0
O352 O 0.19944 0.71448 0.83732 0.0
Mg353 Mg 0.2114 0.73129 0.89198 0.0
C354 C 0.20729 0.72127 0.80652 0.0
C355 C 0.29234 0.80848 0.77791 0.0
O356 O 0.3047 0.81706 0.80692 0.0
O357 O 0.23479 0.78792 0.83826 0.0
O358 O 0.20693 0.76279 0.87489 0.0
O359 O 0.27297 0.74759 0.83656 0.0
O360 O 0.24847 0.74928 0.87477 0.0
C361 C 0.21608 0.78147 0.85604 0.0
C362 C 0.25989 0.73911 0.864 0.0
O363 O 0.27191 0.78997 0.77935 0.0
Mg364 Mg 0.24313 0.48232 0.81355 0.0
O365 O 0.2676 0.4814 0.77114 0.0
O366 O 0.28955 0.46759 0.79444 0.0
Mg367 Mg 0.27907 0.45938 0.85168 0.0
C368 C 0.28347 0.47557 0.76853 0.0
C369 C 0.23098 0.50191 0.7466 0.0
O370 O 0.25413 0.51353 0.74426 0.0
O371 O 0.21944 0.44171 0.80948 0.0
O372 O 0.24227 0.42953 0.83457 0.0
O373 O 0.27125 0.51909 0.83081 0.0
O374 O 0.26733 0.4858 0.85195 0.0
C375 C 0.22291 0.42511 0.81998 0.0
C376 C 0.27906 0.50878 0.85123 0.0
O377 O 0.22118 0.48788 0.77203 0.0
Mg378 Mg 0.43738 0.86474 0.02142 0.0
O379 O 0.45984 0.86187 0.06482 0.0
O380 O 0.49534 0.8719 0.04346 0.0
Mg381 Mg 0.49586 0.88171 0.98606 0.0
C382 C 0.48059 0.86504 0.06853 0.0
C383 C 0.3984 0.84073 0.07707 0.0
O384 O 0.40299 0.82378 0.06883 0.0
O385 O 0.45821 0.90559 0.02668 0.0
O386 O 0.49225 0.91394 0.00132 0.0
O387 O 0.42545 0.8272 0.00309 0.0
O388 O 0.45714 0.85917 0.98362 0.0
C389 C 0.47883 0.92058 0.01551 0.0
C390 C 0.44404 0.83629 0.9836 0.0
O391 O 0.41005 0.86085 0.06225 0.0
Mg392 Mg 0.14258 0.54857 0.9996 0.0
O393 O 0.14791 0.58228 0.02786 0.0
O394 O 0.14349 0.60565 0.98982 0.0
Mg395 Mg 0.13392 0.58585 0.93707 0.0
C396 C 0.1479 0.60144 0.02059 0.0
C397 C 0.14515 0.51458 0.05355 0.0
O398 O 0.1494 0.50668 0.02426 0.0
O399 O 0.10291 0.5338 0.9994 0.0
O400 O 0.09871 0.5567 0.96021 0.0
O401 O 0.18077 0.56841 0.98692 0.0
O402 O 0.1529 0.56743 0.95299 0.0
C403 C 0.08999 0.53963 0.98207 0.0
C404 C 0.17506 0.57653 0.96015 0.0
O405 O 0.141 0.5317 0.05232 0.0
Mg406 Mg 0.43286 0.56785 0.09273 0.0
O407 O 0.41155 0.57171 0.04836 0.0
O408 O 0.38831 0.58429 0.0709 0.0
Mg409 Mg 0.39458 0.58843 0.13001 0.0
C410 C 0.39598 0.57782 0.04482 0.0
C411 C 0.44747 0.54869 0.0279 0.0
O412 O 0.42442 0.53709 0.02344 0.0
O413 O 0.45747 0.60834 0.09802 0.0
O414 O 0.4329 0.61839 0.12337 0.0
O415 O 0.4033 0.53044 0.10259 0.0
O416 O 0.40709 0.56277 0.12851 0.0
C417 C 0.45333 0.62385 0.11204 0.0
C418 C 0.39526 0.53997 0.12443 0.0
O419 O 0.45648 0.56349 0.05329 0.0
Mg420 Mg 0.13026 0.57885 0.53885 0.0
O421 O 0.13968 0.55464 0.56985 0.0
O422 O 0.13711 0.52603 0.53394 0.0
Mg423 Mg 0.12278 0.52998 0.4814 0.0
C424 C 0.14196 0.53652 0.56378 0.0
C425 C 0.1452 0.62033 0.58881 0.0
O426 O 0.15614 0.62989 0.55947 0.0
O427 O 0.09078 0.55174 0.54293 0.0
O428 O 0.08817 0.5234 0.50628 0.0
O429 O 0.16777 0.59865 0.52079 0.0
O430 O 0.13853 0.56838 0.49186 0.0
C431 C 0.07865 0.53163 0.52707 0.0
C432 C 0.16074 0.58353 0.49492 0.0
O433 O 0.13112 0.5979 0.58956 0.0
Mg434 Mg 0.42332 0.55205 0.50481 0.0
O435 O 0.44744 0.57958 0.5458 0.0
O436 O 0.47981 0.60837 0.52031 0.0
Mg437 Mg 0.47712 0.59781 0.46237 0.0
C438 C 0.46725 0.59907 0.54743 0.0
C439 C 0.37856 0.51948 0.54726 0.0
O440 O 0.36932 0.52204 0.51831 0.0
O441 O 0.44739 0.53608 0.50499 0.0
O442 O 0.47934 0.5651 0.47866 0.0
O443 O 0.40779 0.57501 0.49356 0.0
O444 O 0.43834 0.57727 0.46546 0.0
C445 C 0.4684 0.54474 0.49331 0.0
C446 C 0.42456 0.58567 0.47102 0.0
O447 O 0.40086 0.52875 0.5494 0.0
Mg448 Mg 0.41621 0.85881 0.50095 0.0
O449 O 0.38977 0.85657 0.54134 0.0
O450 O 0.36331 0.8643 0.51782 0.0
Mg451 Mg 0.37452 0.87298 0.4603 0.0
C452 C 0.3716 0.85878 0.54398 0.0
C453 C 0.45965 0.87012 0.55194 0.0
O454 O 0.47303 0.88677 0.52969 0.0
O455 O 0.43495 0.89911 0.50308 0.0
O456 O 0.40926 0.90708 0.47677 0.0
O457 O 0.39175 0.8208 0.48657 0.0
O458 O 0.39218 0.85148 0.46081 0.0
C459 C 0.42919 0.9139 0.49169 0.0
C460 C 0.38271 0.82871 0.464 0.0
O461 O 0.4376 0.85721 0.54614 0.0
Mg462 Mg 0.2218 0.46286 0.32921 0.0
O463 O 0.19853 0.46606 0.28781 0.0
O464 O 0.16501 0.46002 0.3119 0.0
Mg465 Mg 0.1671 0.45216 0.3699 0.0
C466 C 0.17849 0.46473 0.28548 0.0
C467 C 0.26375 0.46234 0.29398 0.0
O468 O 0.26892 0.46252 0.32722 0.0
O469 O 0.19856 0.42279 0.3288 0.0
O470 O 0.16569 0.41662 0.35568 0.0
O471 O 0.23757 0.50141 0.3418 0.0
O472 O 0.20626 0.47245 0.36835 0.0
C473 C 0.17804 0.4088 0.34099 0.0
C474 C 0.22068 0.49497 0.36424 0.0
O475 O 0.24463 0.46159 0.28582 0.0
Mg476 Mg 0.53402 0.7841 0.34181 0.0
O477 O 0.53138 0.75736 0.30023 0.0
O478 O 0.53771 0.72996 0.32455 0.0
Mg479 Mg 0.54568 0.74014 0.38275 0.0
C480 C 0.53315 0.7387 0.29793 0.0
C481 C 0.51362 0.80642 0.29229 0.0
O482 O 0.49572 0.79358 0.31297 0.0
O483 O 0.57429 0.80169 0.33984 0.0
O484 O 0.5795 0.7743 0.36707 0.0
O485 O 0.49593 0.75939 0.3547 0.0
O486 O 0.52564 0.75884 0.38096 0.0
C487 C 0.58769 0.79442 0.35202 0.0
C488 C 0.50322 0.74938 0.37648 0.0
O489 O 0.53316 0.80728 0.29788 0.0
Mg490 Mg 0.21351 0.75692 0.27475 0.0
O491 O 0.24819 0.78111 0.246 0.0
O492 O 0.27328 0.81093 0.28107 0.0
Mg493 Mg 0.25369 0.80671 0.33248 0.0
C494 C 0.26828 0.79973 0.25181 0.0
C495 C 0.20921 0.72857 0.20903 0.0
O496 O 0.22932 0.73335 0.22354 0.0
O497 O 0.20133 0.78412 0.26728 0.0
O498 O 0.22617 0.81261 0.30463 0.0
O499 O 0.22995 0.73695 0.29695 0.0
O500 O 0.23099 0.76811 0.32287 0.0
C501 C 0.209 0.80435 0.28274 0.0
C502 C 0.23757 0.75251 0.32223 0.0
O503 O 0.19732 0.73691 0.22332 0.0
H504 H 0.20083 0.04493 0.01748 0.0
H505 H 0.13176 0.00303 0.06279 0.0
H506 H 0.19261 0.01247 0.97741 0.0
H507 H 0.12405 0.96929 0.02508 0.0
H508 H 0.10126 0.936 0.91607 0.0
H509 H 0.11264 0.96049 0.96866 0.0
H510 H 0.18494 0.9768 0.95553 0.0
H511 H 0.17351 0.95374 0.901 0.0
C512 C 0.18436 0.02817 0.02015 0.0
C513 C 0.16683 0.02648 0.04289 0.0
C514 C 0.17952 0.00939 0.99702 0.0
C515 C 0.15723 0.98826 0.99687 0.0
C516 C 0.14098 0.98559 0.0231 0.0
C517 C 0.14552 0.00472 0.04532 0.0
C518 C 0.11955 0.94476 0.92462 0.0
C519 C 0.13657 0.94332 0.90428 0.0
C520 C 0.12614 0.95863 0.9552 0.0
C521 C 0.14987 0.9709 0.96684 0.0
C522 C 0.16664 0.96826 0.94722 0.0
C523 C 0.16013 0.95495 0.91599 0.0
H524 H 0.00249 0.13603 0.07792 0.0
H525 H 0.94755 0.15279 0.05874 0.0
H526 H 0.02059 0.15357 0.0227 0.0
H527 H 0.96627 0.17123 0.00339 0.0
H528 H 0.99339 0.17506 0.88845 0.0
H529 H 0.97396 0.16157 0.9451 0.0
H530 H 0.04234 0.19101 0.99537 0.0
H531 H 0.06146 0.20349 0.939 0.0
C532 C 0.9944 0.14372 0.06208 0.0
C533 C 0.9736 0.14305 0.07285 0.0
C534 C 0.00491 0.15398 0.0304 0.0
C535 C 0.99508 0.16411 0.00865 0.0
C536 C 0.97424 0.16348 0.01938 0.0
C537 C 0.96359 0.15303 0.05117 0.0
C538 C 0.00419 0.17891 0.91175 0.0
C539 C 0.0289 0.18999 0.90927 0.0
C540 C 0.99309 0.17124 0.94422 0.0
C541 C 0.00656 0.17477 0.97476 0.0
C542 C 0.03135 0.18731 0.97232 0.0
C543 C 0.04235 0.19463 0.94 0.0
H544 H 0.8243 0.89515 0.96312 0.0
H545 H 0.80599 0.82786 0.91288 0.0
H546 H 0.84572 0.88759 0.00843 0.0
H547 H 0.82769 0.8205 0.95812 0.0
H548 H 0.85081 0.80598 0.06428 0.0
H549 H 0.827 0.81231 0.02131 0.0
H550 H 0.88239 0.88597 0.01195 0.0
H551 H 0.90608 0.87978 0.05504 0.0
C552 C 0.82471 0.87868 0.96178 0.0
C553 C 0.81346 0.86216 0.9342 0.0
C554 C 0.83714 0.87444 0.98767 0.0
C555 C 0.83854 0.85353 0.98674 0.0
C556 C 0.82679 0.8367 0.95972 0.0
C557 C 0.81444 0.84099 0.9337 0.0
C558 C 0.85789 0.82354 0.0531 0.0
C559 C 0.88035 0.84238 0.06312 0.0
C560 C 0.84429 0.82712 0.02837 0.0
C561 C 0.85278 0.84965 0.01329 0.0
C562 C 0.8752 0.86848 0.02343 0.0
C563 C 0.88885 0.86488 0.04798 0.0
H564 H 0.97723 0.16302 0.59377 0.0
H565 H 0.92493 0.10555 0.52871 0.0
H566 H 0.00546 0.17549 0.54594 0.0
H567 H 0.95327 0.11777 0.48134 0.0
H568 H 0.00265 0.15845 0.39243 0.0
H569 H 0.97451 0.14957 0.43964 0.0
H570 H 0.02834 0.16087 0.51518 0.0
H571 H 0.05659 0.17018 0.46811 0.0
C572 C 0.97171 0.15307 0.5693 0.0
C573 C 0.94878 0.13324 0.56518 0.0
C574 C 0.98795 0.16015 0.54194 0.0
C575 C 0.98164 0.14761 0.50983 0.0
C576 C 0.95862 0.12802 0.50556 0.0
C577 C 0.9424 0.12092 0.53287 0.0
C578 C 0.00853 0.15918 0.41911 0.0
C579 C 0.03185 0.16493 0.42646 0.0
C580 C 0.99236 0.15397 0.44617 0.0
C581 C -0.00086 0.15441 0.48118 0.0
C582 C 0.0226 0.16063 0.48855 0.0
C583 C 0.03876 0.16582 0.46151 0.0
H584 H 0.83365 0.81834 0.39134 0.0
H585 H 0.80606 0.85724 0.44709 0.0
H586 H 0.83775 0.80212 0.44628 0.0
H587 H 0.81059 0.84133 0.50216 0.0
H588 H 0.80458 0.79328 0.59265 0.0
H589 H 0.79618 0.80496 0.53643 0.0
H590 H 0.86335 0.81768 0.49738 0.0
H591 H 0.87159 0.80568 0.55307 0.0
C592 C 0.82835 0.82336 0.41529 0.0
C593 C 0.81966 0.83921 0.41482 0.0
C594 C 0.83083 0.81415 0.44682 0.0
C595 C 0.82468 0.82057 0.47866 0.0
C596 C 0.8153 0.83585 0.47809 0.0
C597 C 0.81282 0.84507 0.44652 0.0
C598 C 0.81748 0.7984 0.57199 0.0
C599 C 0.83879 0.79856 0.57749 0.0
C600 C 0.81271 0.80522 0.53983 0.0
C601 C 0.82909 0.81227 0.5124 0.0
C602 C 0.85019 0.81204 0.51775 0.0
C603 C 0.85498 0.80529 0.54985 0.0
H604 H 0.1374 0.00137 0.42376 0.0
H605 H 0.16519 0.95936 0.46664 0.0
H606 H 0.16418 0.03509 0.46094 0.0
H607 H 0.19009 0.99169 0.50628 0.0
H608 H 0.22757 0.04767 0.58656 0.0
H609 H 0.21731 0.02663 0.53034 0.0
H610 H 0.16151 0.04325 0.5174 0.0
H611 H 0.17338 0.06586 0.5717 0.0
C612 C 0.14984 -0.00031 0.44041 0.0
C613 C 0.14919 0.97781 0.44256 0.0
C614 C 0.16484 0.01879 0.46243 0.0
C615 C 0.1786 0.01596 0.48819 0.0
C616 C 0.17987 0.99489 0.48719 0.0
C617 C 0.16555 0.97617 0.46422 0.0
C618 C 0.21335 0.04701 0.57121 0.0
C619 C 0.20107 0.05811 0.58352 0.0
C620 C 0.20733 0.03484 0.53899 0.0
C621 C 0.18828 0.03275 0.51896 0.0
C622 C 0.1766 0.04467 0.53115 0.0
C623 C 0.18316 0.05746 0.56272 0.0
H624 H 0.84729 0.0087 0.13241 0.0
H625 H 0.88426 0.07113 0.06801 0.0
H626 H 0.83007 0.9839 0.08012 0.0
H627 H 0.86633 0.04664 0.01598 0.0
H628 H 0.85587 0.99341 0.93001 0.0
H629 H 0.87009 0.01836 0.98215 0.0
H630 H 0.80305 0.97337 0.0324 0.0
H631 H 0.78911 0.94765 0.98027 0.0
C632 C 0.85147 0.01717 0.10711 0.0
C633 C 0.86732 0.04183 0.10431 0.0
C634 C 0.84148 0.00298 0.07712 0.0
C635 C 0.84693 0.0132 0.04371 0.0
C636 C 0.86216 0.03803 0.04115 0.0
C637 C 0.87237 0.05212 0.07103 0.0
C638 C 0.84406 0.98887 0.95205 0.0
C639 C 0.82135 0.96852 0.95097 0.0
C640 C 0.85218 0.00332 0.98199 0.0
C641 C 0.83772 0.998 0.01156 0.0
C642 C 0.8148 0.97784 0.01029 0.0
C643 C 0.80673 0.96319 0.98034 0.0
H644 H 0.94555 0.8328 0.04023 0.0
H645 H 0.98078 0.79541 0.07466 0.0
H646 H 0.96643 0.84127 0.9849 0.0
H647 H 0.00111 0.80328 0.01894 0.0
H648 H 0.99343 0.83732 0.87783 0.0
H649 H 0.97008 0.82399 0.93108 0.0
H650 H 0.03205 0.8364 0.98886 0.0
H651 H 0.05516 0.84901 0.93555 0.0
C652 C 0.95754 0.82614 0.03588 0.0
C653 C 0.96159 0.81357 0.06205 0.0
C654 C 0.96941 0.83087 0.00401 0.0
C655 C 0.98552 0.82301 0.99744 0.0
C656 C 0.98914 0.80995 0.02332 0.0
C657 C 0.97738 0.80534 0.05525 0.0
C658 C 0.002 0.83694 0.90183 0.0
C659 C 0.02617 0.84431 0.90245 0.0
C660 C 0.98864 0.82946 0.93242 0.0
C661 C -0.0008 0.82927 0.96435 0.0
C662 C 0.02324 0.83602 0.9647 0.0
C663 C 0.03655 0.84337 0.9341 0.0
H664 H 0.10695 0.18462 0.94343 0.0
H665 H 0.17638 0.21903 0.89694 0.0
H666 H 0.12111 0.16995 0.9903 0.0
H667 H 0.1905 0.20408 0.94404 0.0
H668 H 0.21002 0.18015 0.04499 0.0
H669 H 0.19737 0.20321 0.01005 0.0
H670 H 0.13214 0.13836 0.98463 0.0
H671 H 0.14468 0.11554 0.01888 0.0
C672 C 0.12534 0.18936 0.94346 0.0
C673 C 0.14044 0.20258 0.91606 0.0
C674 C 0.13342 0.18095 0.97035 0.0
C675 C 0.15677 0.18558 0.97049 0.0
C676 C 0.17241 0.20032 0.9446 0.0
C677 C 0.1643 0.20877 0.91756 0.0
C678 C 0.1928 0.17093 0.03242 0.0
C679 C 0.17835 0.14598 0.03466 0.0
C680 C 0.18566 0.18411 0.01231 0.0
C681 C 0.16378 0.17257 0.99472 0.0
C682 C 0.14897 0.14781 0.99828 0.0
C683 C 0.15623 0.13466 0.01783 0.0
H684 H 0.92856 0.79135 0.55922 0.0
H685 H 0.98157 0.83136 0.63851 0.0
H686 H 0.9593 0.80671 0.5145 0.0
H687 H 0.01204 0.84653 0.59393 0.0
H688 H 0.05112 0.89502 0.50353 0.0
H689 H 0.01919 0.87532 0.54503 0.0
H690 H 0.99762 0.80722 0.49522 0.0
H691 H 0.02988 0.82707 0.45304 0.0
C692 C 0.94676 0.80312 0.56718 0.0
C693 C 0.9526 0.81038 0.60236 0.0
C694 C 0.96432 0.81183 0.54159 0.0
C695 C 0.98793 0.82805 0.55076 0.0
C696 C 0.99388 0.83435 0.58611 0.0
C697 C 0.97643 0.82556 0.61165 0.0
C698 C 0.03947 0.87589 0.50097 0.0
C699 C 0.04307 0.8626 0.47498 0.0
C700 C 0.0213 0.86459 0.52503 0.0
C701 C 0.00621 0.83973 0.52364 0.0
C702 C 0.0091 0.82643 0.49685 0.0
C703 C 0.02751 0.83777 0.47278 0.0
H704 H 0.1207 0.17206 0.46643 0.0
H705 H 0.19034 0.20384 0.42089 0.0
H706 H 0.13624 0.16648 0.52084 0.0
H707 H 0.20603 0.19879 0.4759 0.0
H708 H 0.21448 0.15246 0.55991 0.0
H709 H 0.20348 0.16585 0.50787 0.0
H710 H 0.16119 0.18565 0.57088 0.0
H711 H 0.17169 0.17159 0.62293 0.0
C712 C 0.13941 0.17819 0.46813 0.0
C713 C 0.1542 0.1882 0.43909 0.0
C714 C 0.14838 0.17515 0.49953 0.0
C715 C 0.17239 0.18212 0.50277 0.0
C716 C 0.18737 0.1929 0.47413 0.0
C717 C 0.17838 0.19589 0.44263 0.0
C718 C 0.20309 0.15997 0.56278 0.0
C719 C 0.19374 0.1607 0.59554 0.0
C720 C 0.19688 0.16779 0.5329 0.0
C721 C 0.18126 0.17664 0.5351 0.0
C722 C 0.1729 0.17851 0.56816 0.0
C723 C 0.17903 0.17058 0.59804 0.0
H724 H 0.86041 0.05476 0.5053 0.0
H725 H 0.81869 0.99161 0.56664 0.0
H726 H 0.8524 0.02983 0.45312 0.0
H727 H 0.81021 0.96674 0.51433 0.0
H728 H 0.82752 0.92987 0.42654 0.0
H729 H 0.83238 0.95495 0.47718 0.0
H730 H 0.82253 0.00305 0.41159 0.0
H731 H 0.8182 0.97821 0.36059 0.0
C732 C 0.84918 0.03559 0.50755 0.0
C733 C 0.84035 0.02515 0.54019 0.0
C734 C 0.84453 0.02129 0.47759 0.0
C735 C 0.83089 0.99627 0.47962 0.0
C736 C 0.8212 0.98594 0.512 0.0
C737 C 0.82592 0.0002 0.54195 0.0
C738 C 0.82638 0.94578 0.42282 0.0
C739 C 0.82249 0.952 0.38942 0.0
C740 C 0.82898 0.96008 0.45196 0.0
C741 C 0.82768 0.98094 0.4485 0.0
C742 C 0.82383 0.98721 0.41512 0.0
C743 C 0.82128 0.97292 0.3859 0.0
H744 H 0.76937 0.26315 0.267 0.0
H745 H 0.8409 0.28586 0.23619 0.0
H746 H 0.78387 0.28917 0.31776 0.0
H747 H 0.8558 0.31074 0.2889 0.0
H748 H 0.87107 0.37977 0.34827 0.0
H749 H 0.86239 0.34624 0.31017 0.0
H750 H 0.8002 0.30108 0.37131 0.0
H751 H 0.80796 0.33565 0.4071 0.0
C752 C 0.78828 0.27331 0.27171 0.0
C753 C 0.80402 0.27276 0.24743 0.0
C754 C 0.79672 0.28812 0.30125 0.0
C755 C 0.8212 0.30238 0.30792 0.0
C756 C 0.83689 0.30063 0.28448 0.0
C757 C 0.8284 0.28627 0.25428 0.0
C758 C 0.85604 0.36243 0.35427 0.0
C759 C 0.84005 0.36025 0.3803 0.0
C760 C 0.85094 0.34303 0.33229 0.0
C761 C 0.83 0.32087 0.33657 0.0
C762 C 0.81586 0.31805 0.36596 0.0
C763 C 0.82052 0.3377 0.38707 0.0
H764 H 0.60963 0.46425 0.36974 0.0
H765 H 0.67478 0.51655 0.4203 0.0
H766 H 0.62793 0.47801 0.31266 0.0
H767 H 0.69289 0.53038 0.36334 0.0
H768 H 0.72482 0.52179 0.2609 0.0
H769 H 0.70544 0.51241 0.31728 0.0
H770 H 0.64524 0.51261 0.27178 0.0
H771 H 0.66466 0.52189 0.21473 0.0
C772 C 0.62775 0.47886 0.36871 0.0
C773 C 0.64082 0.48913 0.39961 0.0
C774 C 0.63817 0.48683 0.33598 0.0
C775 C 0.66191 0.50515 0.33351 0.0
C776 C 0.67467 0.51599 0.3644 0.0
C777 C 0.66424 0.50811 0.39706 0.0
C778 C 0.7075 0.51998 0.26277 0.0
C779 C 0.69629 0.52257 0.23317 0.0
C780 C 0.69646 0.51476 0.29525 0.0
C781 C 0.67385 0.51186 0.29904 0.0
C782 C 0.66263 0.51462 0.26959 0.0
C783 C 0.6738 0.52006 0.23699 0.0
H784 H 0.50068 0.1638 0.45557 0.0
H785 H 0.54591 0.15507 0.38209 0.0
H786 H 0.482 0.17267 0.40749 0.0
H787 H 0.52753 0.16436 0.33415 0.0
H788 H 0.47537 0.1615 0.25276 0.0
H789 H 0.49069 0.14913 0.30131 0.0
H790 H 0.49239 0.20478 0.36654 0.0
H791 H 0.47671 0.21689 0.31841 0.0
C792 C 0.50663 0.16374 0.42918 0.0
C793 C 0.52485 0.15881 0.42272 0.0
C794 C 0.496 0.16895 0.40162 0.0
C795 C 0.50331 0.16931 0.36696 0.0
C796 C 0.52126 0.16396 0.36047 0.0
C797 C 0.53191 0.15878 0.38801 0.0
C798 C 0.47885 0.17101 0.27752 0.0
C799 C 0.47482 0.19023 0.28157 0.0
C800 C 0.48778 0.16399 0.3053 0.0
C801 C 0.49283 0.176 0.33781 0.0
C802 C 0.48842 0.19494 0.34202 0.0
C803 C 0.47954 0.20198 0.31428 0.0
H804 H 0.64097 0.49483 0.92026 0.0
H805 H 0.58377 0.44323 0.85453 0.0
H806 H 0.66908 0.50074 0.87428 0.0
H807 H 0.61179 0.44959 0.80837 0.0
H808 H 0.67061 0.44314 0.7545 0.0
H809 H 0.64218 0.43985 0.79813 0.0
H810 H 0.68255 0.51618 0.81617 0.0
H811 H 0.71139 0.51941 0.77294 0.0
C812 C 0.63432 0.48502 0.89584 0.0
C813 C 0.6101 0.46842 0.89124 0.0
C814 C 0.65046 0.48848 0.86939 0.0
C815 C 0.64273 0.47549 0.83772 0.0
C816 C 0.61841 0.45954 0.8327 0.0
C817 C 0.60231 0.45601 0.85913 0.0
C818 C 0.67343 0.45926 0.76767 0.0
C819 C 0.69331 0.48154 0.76024 0.0
C820 C 0.65701 0.45739 0.79256 0.0
C821 C 0.66001 0.47777 0.8106 0.0
C822 C 0.67983 0.5001 0.80302 0.0
C823 C 0.6963 0.50196 0.77812 0.0
H824 H 0.50685 0.15977 0.74303 0.0
H825 H 0.48602 0.20631 0.79308 0.0
H826 H 0.51277 0.14731 0.80014 0.0
H827 H 0.49227 0.19402 0.85029 0.0
H828 H 0.48977 0.15234 0.94838 0.0
H829 H 0.47842 0.16007 0.89119 0.0
H830 H 0.54223 0.16731 0.84669 0.0
H831 H 0.55343 0.1594 0.90324 0.0
C832 C 0.50336 0.16722 0.76619 0.0
C833 C 0.49617 0.18421 0.76345 0.0
C834 C 0.50686 0.16016 0.79894 0.0
C835 C 0.50323 0.16987 0.82975 0.0
C836 C 0.49508 0.1861 0.82706 0.0
C837 C 0.49163 0.19323 0.79425 0.0
C838 C 0.50129 0.15545 0.92633 0.0
C839 C 0.52253 0.15528 0.93049 0.0
C840 C 0.49483 0.15998 0.89363 0.0
C841 C 0.50938 0.16422 0.86438 0.0
C842 C 0.53044 0.16376 0.86853 0.0
C843 C 0.53695 0.1594 0.90112 0.0
H844 H 0.87371 0.36611 0.9506 0.0
H845 H 0.82552 0.39055 0.92415 0.0
H846 H 0.86503 0.34457 0.89492 0.0
H847 H 0.81541 0.36776 0.86975 0.0
H848 H 0.82411 0.28685 0.81188 0.0
H849 H 0.83743 0.3114 0.8647 0.0
H850 H 0.82644 0.36444 0.81425 0.0
H851 H 0.81141 0.33875 0.7624 0.0
C852 C 0.86103 0.36661 0.93297 0.0
C853 C 0.85029 0.37998 0.94163 0.0
C854 C 0.85591 0.35415 0.90106 0.0
C855 C 0.83945 0.35428 0.87747 0.0
C856 C 0.82863 0.36762 0.88653 0.0
C857 C 0.83422 0.38054 0.91797 0.0
C858 C 0.82489 0.30393 0.812 0.0
C859 C 0.81679 0.31099 0.7831 0.0
C860 C 0.83262 0.31813 0.84232 0.0
C861 C 0.83293 0.33999 0.84418 0.0
C862 C 0.82588 0.34748 0.8144 0.0
C863 C 0.81755 0.33296 0.78443 0.0
H864 H 0.5048 0.35078 0.47831 0.0
H865 H 0.55456 0.39758 0.40147 0.0
H866 H 0.48024 0.32351 0.43153 0.0
H867 H 0.53031 0.37024 0.35513 0.0
H868 H 0.4743 0.32825 0.27582 0.0
H869 H 0.49241 0.35526 0.32566 0.0
H870 H 0.48215 0.29602 0.3888 0.0
H871 H 0.46358 0.26889 0.33913 0.0
C872 C 0.51052 0.35528 0.45151 0.0
C873 C 0.5317 0.37639 0.4437 0.0
C874 C 0.49646 0.33961 0.42474 0.0
C875 C 0.50324 0.34478 0.38961 0.0
C876 C 0.52433 0.36594 0.38186 0.0
C877 C 0.53837 0.38153 0.40853 0.0
C878 C 0.47552 0.3209 0.30048 0.0
C879 C 0.46776 0.29647 0.30338 0.0
C880 C 0.48605 0.33641 0.32898 0.0
C881 C 0.48908 0.32785 0.361 0.0
C882 C 0.48 0.30318 0.36453 0.0
C883 C 0.46942 0.28763 0.33601 0.0
H884 H 0.72195 0.18017 0.28848 0.0
H885 H 0.65738 0.15438 0.22872 0.0
H886 H 0.69918 0.16787 0.34225 0.0
H887 H 0.63458 0.14157 0.28246 0.0
H888 H 0.60776 0.15535 0.3862 0.0
H889 H 0.62885 0.16188 0.33152 0.0
H890 H 0.67069 0.1345 0.37676 0.0
H891 H 0.64989 0.12841 0.43197 0.0
C892 C 0.70286 0.1715 0.28674 0.0
C893 C 0.6915 0.16848 0.25432 0.0
C894 C 0.68979 0.16434 0.31759 0.0
C895 C 0.66507 0.15394 0.3167 0.0
C896 C 0.65364 0.14994 0.28411 0.0
C897 C 0.66671 0.15715 0.25328 0.0
C898 C 0.62137 0.15059 0.38455 0.0
C899 C 0.62719 0.14146 0.41364 0.0
C900 C 0.63335 0.15417 0.35303 0.0
C901 C 0.65145 0.14868 0.34971 0.0
C902 C 0.65702 0.13916 0.37857 0.0
C903 C 0.64502 0.13558 0.41018 0.0
H904 H 0.87063 0.50222 0.34535 0.0
H905 H 0.80475 0.4466 0.38687 0.0
H906 H 0.84919 0.51571 0.30895 0.0
H907 H 0.78318 0.46085 0.35249 0.0
H908 H 0.75191 0.46509 0.24902 0.0
H909 H 0.77291 0.45737 0.29412 0.0
H910 H 0.82556 0.53262 0.29922 0.0
H911 H 0.80492 0.54006 0.25221 0.0
C912 C 0.85156 0.49344 0.34749 0.0
C913 C 0.83921 0.47319 0.36827 0.0
C914 C 0.83922 0.50117 0.32674 0.0
C915 C 0.81432 0.48903 0.32705 0.0
C916 C 0.80226 0.47009 0.35049 0.0
C917 C 0.81456 0.46201 0.37045 0.0
C918 C 0.76789 0.48004 0.25987 0.0
C919 C 0.77684 0.50315 0.24694 0.0
C920 C 0.77988 0.47567 0.28614 0.0
C921 C 0.80093 0.49439 0.30075 0.0
C922 C 0.80959 0.5177 0.28834 0.0
C923 C 0.79774 0.52201 0.2615 0.0
H924 H 0.64384 0.13287 0.94383 0.0
H925 H 0.62083 0.18167 0.912 0.0
H926 H 0.67465 0.14924 0.89928 0.0
H927 H 0.65145 0.19782 0.86774 0.0
H928 H 0.72903 0.24133 0.83084 0.0
H929 H 0.69561 0.2225 0.87055 0.0
H930 H 0.68015 0.15288 0.83361 0.0
H931 H 0.71361 0.1717 0.79369 0.0
C932 C 0.64518 0.14688 0.92716 0.0
C933 C 0.63001 0.15609 0.9317 0.0
C934 C 0.66275 0.15618 0.90159 0.0
C935 C 0.66555 0.17494 0.88029 0.0
C936 C 0.64992 0.18361 0.88414 0.0
C937 C 0.63231 0.17425 0.90944 0.0
C938 C 0.7184 0.22203 0.83089 0.0
C939 C 0.72394 0.20802 0.80906 0.0
C940 C 0.69921 0.21124 0.85358 0.0
C941 C 0.68531 0.18622 0.85516 0.0
C942 C 0.6907 0.1722 0.83312 0.0
C943 C 0.70976 0.183 0.81014 0.0
H944 H 0.86531 0.47457 0.90538 0.0
H945 H 0.81851 0.4919 0.96123 0.0
H946 H 0.85565 0.48683 0.85099 0.0
H947 H 0.80933 0.50484 0.90683 0.0
H948 H 0.77471 0.49276 0.79765 0.0
H949 H 0.78722 0.48612 0.85421 0.0
H950 H 0.85937 0.51978 0.81814 0.0
H951 H 0.84678 0.52584 0.7612 0.0
C952 C 0.85326 0.48139 0.90617 0.0
C953 C 0.84254 0.48208 0.93763 0.0
C954 C 0.8478 0.48855 0.87495 0.0
C955 C 0.83159 0.49671 0.87446 0.0
C956 C 0.82157 0.49826 0.90617 0.0
C957 C 0.82695 0.49099 0.9374 0.0
C958 C 0.79327 0.49891 0.80181 0.0
C959 C 0.80969 0.50965 0.77472 0.0
C960 C 0.80049 0.49524 0.83439 0.0
C961 C 0.8243 0.50233 0.84073 0.0
C962 C 0.84082 0.51373 0.81397 0.0
C963 C 0.8336 0.5173 0.78134 0.0
H964 H 0.52082 0.39498 0.83504 0.0
H965 H 0.479 0.33205 0.89677 0.0
H966 H 0.51489 0.36979 0.78387 0.0
H967 H 0.47261 0.3069 0.84539 0.0
H968 H 0.49727 0.27195 0.76441 0.0
H969 H 0.49808 0.29685 0.8128 0.0
H970 H 0.48712 0.34129 0.74094 0.0
H971 H 0.48678 0.31654 0.69205 0.0
C972 C 0.50993 0.37579 0.83753 0.0
C973 C 0.50062 0.3655 0.8701 0.0
C974 C 0.50647 0.36135 0.80813 0.0
C975 C 0.49357 0.33633 0.81067 0.0
C976 C 0.48309 0.32611 0.84277 0.0
C977 C 0.48661 0.34053 0.87216 0.0
C978 C 0.49501 0.287 0.75878 0.0
C979 C 0.49201 0.29224 0.72424 0.0
C980 C 0.49525 0.30117 0.78665 0.0
C981 C 0.49245 0.32094 0.78079 0.0
C982 C 0.48946 0.32625 0.74629 0.0
C983 C 0.48922 0.31204 0.7183 0.0
H984 H 0.44713 0.58342 0.61164 0.0
H985 H 0.50589 0.64312 0.56102 0.0
H986 H 0.45802 0.60579 0.66674 0.0
H987 H 0.51639 0.6656 0.61578 0.0
H988 H 0.53553 0.70434 0.71428 0.0
H989 H 0.53002 0.67143 0.67612 0.0
H990 H 0.45427 0.63918 0.68543 0.0
H991 H 0.45982 0.67163 0.72386 0.0
C992 C 0.4625 0.60122 0.61228 0.0
C993 C 0.47539 0.61163 0.58169 0.0
C994 C 0.46876 0.61402 0.64393 0.0
C995 C 0.48799 0.63755 0.64572 0.0
C996 C 0.50167 0.64741 0.61557 0.0
C997 C 0.49547 0.63459 0.58397 0.0
C998 C 0.51775 0.68962 0.70953 0.0
C999 C 0.49808 0.69076 0.72148 0.0
C1000 C 0.51458 0.67093 0.68725 0.0
C1001 C 0.49171 0.65305 0.67687 0.0
C1002 C 0.47215 0.65263 0.6927 0.0
C1003 C 0.47532 0.6713 0.71478 0.0
H1004 H 0.32813 0.85331 0.55952 0.0
H1005 H 0.38832 0.85376 0.60664 0.0
H1006 H 0.30835 0.84376 0.61627 0.0
H1007 H 0.36856 0.84406 0.66272 0.0
H1008 H 0.3366 0.84608 0.76543 0.0
H1009 H 0.35527 0.86089 0.70901 0.0
H1010 H 0.29088 0.80912 0.65638 0.0
H1011 H 0.27204 0.79446 0.71284 0.0
C1012 C 0.3372 0.85155 0.58193 0.0
C1013 C 0.35978 0.85424 0.57844 0.0
C1014 C 0.32582 0.84595 0.61438 0.0
C1015 C 0.33691 0.8432 0.64401 0.0
C1016 C 0.35965 0.84638 0.64057 0.0
C1017 C 0.37091 0.85178 0.60825 0.0
C1018 C 0.32631 0.83801 0.74187 0.0
C1019 C 0.30289 0.81892 0.74368 0.0
C1020 C 0.33706 0.84643 0.70952 0.0
C1021 C 0.32463 0.83603 0.67821 0.0
C1022 C 0.30089 0.81763 0.68 0.0
C1023 C 0.29014 0.80914 0.71239 0.0
H1024 H 0.14457 0.54575 0.63422 0.0
H1025 H 0.16325 0.50986 0.55561 0.0
H1026 H 0.16475 0.53561 0.67874 0.0
H1027 H 0.18359 0.50003 0.6001 0.0
H1028 H 0.24443 0.52012 0.6813 0.0
H1029 H 0.22106 0.52637 0.63747 0.0
H1030 H 0.16173 0.49797 0.70775 0.0
H1031 H 0.18501 0.49136 0.75162 0.0
C1032 C 0.15279 0.53553 0.62649 0.0
C1033 C 0.1523 0.52863 0.59136 0.0
C1034 C 0.16424 0.52966 0.652 0.0
C1035 C 0.1758 0.51714 0.64279 0.0
C1036 C 0.17495 0.50985 0.60784 0.0
C1037 C 0.16317 0.51535 0.58245 0.0
C1038 C 0.22638 0.51514 0.68741 0.0
C1039 C 0.21657 0.50528 0.71994 0.0
C1040 C 0.21298 0.51859 0.66223 0.0
C1041 C 0.1896 0.51262 0.66923 0.0
C1042 C 0.17976 0.50281 0.70177 0.0
C1043 C 0.19304 0.49895 0.72677 0.0
H1044 H 0.36697 0.79802 0.10561 0.0
H1045 H 0.38677 0.87246 0.10582 0.0
H1046 H 0.33537 0.78949 0.14655 0.0
H1047 H 0.35487 0.86379 0.147 0.0
H1048 H 0.31268 0.8396 0.25234 0.0
H1049 H 0.34396 0.85056 0.20936 0.0
H1050 H 0.29708 0.78865 0.14656 0.0
H1051 H 0.26587 0.77758 0.18934 0.0
C1052 C 0.3646 0.8126 0.11437 0.0
C1053 C 0.37941 0.83593 0.10237 0.0
C1054 C 0.34635 0.80766 0.13768 0.0
C1055 C 0.34252 0.82593 0.14983 0.0
C1056 C 0.35747 0.84936 0.1382 0.0
C1057 C 0.37566 0.85429 0.11453 0.0
C1058 C 0.30895 0.82842 0.22923 0.0
C1059 C 0.28675 0.80761 0.22449 0.0
C1060 C 0.32687 0.83478 0.20454 0.0
C1061 C 0.32304 0.82036 0.17473 0.0
C1062 C 0.30067 0.79993 0.16953 0.0
C1063 C 0.28274 0.79367 0.19401 0.0
H1064 H 0.13915 0.52798 0.11925 0.0
H1065 H 0.15515 0.47913 0.0649 0.0
H1066 H 0.14516 0.51399 0.17517 0.0
H1067 H 0.16079 0.46495 0.12072 0.0
H1068 H 0.20076 0.47144 0.22276 0.0
H1069 H 0.19048 0.48168 0.1672 0.0
H1070 H 0.12951 0.47936 0.21437 0.0
H1071 H 0.13998 0.46938 0.27048 0.0
C1072 C 0.14369 0.51408 0.11921 0.0
C1073 C 0.14686 0.50482 0.08757 0.0
C1074 C 0.147 0.50597 0.15128 0.0
C1075 C 0.15361 0.48847 0.15241 0.0
C1076 C 0.15607 0.47872 0.12076 0.0
C1077 C 0.15272 0.48678 0.08874 0.0
C1078 C 0.18507 0.47297 0.22139 0.0
C1079 C 0.17124 0.46963 0.25123 0.0
C1080 C 0.17909 0.4787 0.18939 0.0
C1081 C 0.15915 0.4813 0.1863 0.0
C1082 C 0.14511 0.47769 0.21597 0.0
C1083 C 0.15104 0.47183 0.24807 0.0
H1084 H 0.52983 0.69568 0.28303 0.0
H1085 H 0.52683 0.75396 0.23456 0.0
H1086 H 0.51787 0.67343 0.22801 0.0
H1087 H 0.51538 0.73186 0.17926 0.0
H1088 H 0.45234 0.66479 0.12271 0.0
H1089 H 0.47859 0.69736 0.16154 0.0
H1090 H 0.52534 0.66868 0.16684 0.0
H1091 H 0.49865 0.63566 0.12821 0.0
C1092 C 0.52708 0.70397 0.26049 0.0
C1093 C 0.52884 0.72641 0.26346 0.0
C1094 C 0.52047 0.6913 0.22874 0.0
C1095 C 0.51554 0.70081 0.19919 0.0
C1096 C 0.51874 0.72389 0.20163 0.0
C1097 C 0.52528 0.73653 0.23339 0.0
C1098 C 0.4687 0.66595 0.13103 0.0
C1099 C 0.4732 0.64744 0.12299 0.0
C1100 C 0.48383 0.68469 0.15332 0.0
C1101 C 0.50378 0.68529 0.16806 0.0
C1102 C 0.50981 0.66839 0.15652 0.0
C1103 C 0.49468 0.64964 0.134 0.0
H1104 H 0.12243 0.60861 0.65199 0.0
H1105 H 0.18168 0.66563 0.59821 0.0
H1106 H 0.13395 0.63309 0.70543 0.0
H1107 H 0.19382 0.68943 0.65141 0.0
H1108 H 0.20412 0.73623 0.74201 0.0
H1109 H 0.18541 0.7119 0.6901 0.0
H1110 H 0.16305 0.64796 0.7502 0.0
H1111 H 0.18068 0.67255 0.80268 0.0
C1112 C 0.13788 0.62636 0.65159 0.0
C1113 C 0.15111 0.63522 0.62089 0.0
C1114 C 0.14458 0.64034 0.68225 0.0
C1115 C 0.1648 0.66333 0.68286 0.0
C1116 C 0.17782 0.67211 0.65191 0.0
C1117 C 0.17095 0.65834 0.62131 0.0
C1118 C 0.19494 0.71696 0.74414 0.0
C1119 C 0.19401 0.70624 0.77618 0.0
C1120 C 0.18434 0.70297 0.71435 0.0
C1121 C 0.17309 0.67791 0.71567 0.0
C1122 C 0.17136 0.66717 0.74817 0.0
C1123 C 0.18156 0.68123 0.77823 0.0
H1124 H 0.27772 0.49454 0.70822 0.0
H1125 H 0.31712 0.46392 0.75207 0.0
H1126 H 0.29974 0.50224 0.65413 0.0
H1127 H 0.33866 0.47102 0.69753 0.0
H1128 H 0.33042 0.4975 0.55121 0.0
H1129 H 0.30614 0.48386 0.60352 0.0
H1130 H 0.36863 0.50462 0.66617 0.0
H1131 H 0.3928 0.51766 0.61382 0.0
C1132 C 0.29089 0.48922 0.70626 0.0
C1133 C 0.29576 0.47882 0.73471 0.0
C1134 C 0.30342 0.49347 0.67507 0.0
C1135 C 0.32104 0.48731 0.67147 0.0
C1136 C 0.32547 0.47633 0.69959 0.0
C1137 C 0.31301 0.47216 0.73083 0.0
C1138 C 0.33894 0.49886 0.57609 0.0
C1139 C 0.36356 0.50879 0.57835 0.0
C1140 C 0.32503 0.4912 0.60612 0.0
C1141 C 0.33544 0.49335 0.63912 0.0
C1142 C 0.35997 0.50246 0.64117 0.0
C1143 C 0.37386 0.51004 0.61112 0.0
H1144 H 0.48281 0.77866 0.67433 0.0
H1145 H 0.54104 0.84542 0.71334 0.0
H1146 H 0.46867 0.8002 0.64048 0.0
H1147 H 0.52686 0.86722 0.67831 0.0
H1148 H 0.50648 0.88593 0.56567 0.0
H1149 H 0.52221 0.87119 0.61093 0.0
H1150 H 0.45185 0.82728 0.65159 0.0
H1151 H 0.43613 0.84172 0.60667 0.0
C1152 C 0.49241 0.79793 0.67623 0.0
C1153 C 0.51289 0.81027 0.69697 0.0
C1154 C 0.48427 0.8103 0.65673 0.0
C1155 C 0.49655 0.83536 0.65706 0.0
C1156 C 0.51707 0.84788 0.67773 0.0
C1157 C 0.52508 0.8354 0.6978 0.0
C1158 C 0.49448 0.87349 0.58471 0.0
C1159 C 0.47002 0.86457 0.58215 0.0
C1160 C 0.5035 0.86517 0.61068 0.0
C1161 C 0.48815 0.84787 0.63435 0.0
C1162 C 0.46399 0.84034 0.63329 0.0
C1163 C 0.45501 0.8486 0.60749 0.0
H1164 H 0.31017 0.47632 0.30381 0.0
H1165 H 0.25776 0.45954 0.22287 0.0
H1166 H 0.34112 0.49162 0.25972 0.0
H1167 H 0.28896 0.47462 0.17876 0.0
H1168 H 0.36126 0.49249 0.11616 0.0
H1169 H 0.32793 0.46868 0.15554 0.0
H1170 H 0.34921 0.53113 0.22064 0.0
H1171 H 0.38179 0.55486 0.1816 0.0
C1172 C 0.30516 0.4753 0.27658 0.0
C1173 C 0.28158 0.46708 0.26686 0.0
C1174 C 0.32287 0.48404 0.25142 0.0
C1175 C 0.31728 0.48433 0.21609 0.0
C1176 C 0.29357 0.47441 0.2059 0.0
C1177 C 0.27582 0.46594 0.23116 0.0
C1178 C 0.3586 0.5011 0.13871 0.0
C1179 C 0.37409 0.52552 0.14578 0.0
C1180 C 0.33965 0.48751 0.16113 0.0
C1181 C 0.33639 0.49814 0.19116 0.0
C1182 C 0.35162 0.52255 0.19781 0.0
C1183 C 0.37015 0.53613 0.17526 0.0
H1184 H 0.47213 0.80034 0.26698 0.0
H1185 H 0.54728 0.83823 0.24755 0.0
H1186 H 0.46561 0.81655 0.21421 0.0
H1187 H 0.54088 0.85546 0.19517 0.0
H1188 H 0.51653 0.85643 0.08242 0.0
H1189 H 0.52561 0.84447 0.13763 0.0
H1190 H 0.46974 0.85071 0.18751 0.0
H1191 H 0.45999 0.86156 0.13191 0.0
C1192 C 0.48735 0.81248 0.25171 0.0
C1193 C 0.51023 0.81794 0.26143 0.0
C1194 C 0.48361 0.82196 0.22147 0.0
C1195 C 0.5027 0.83742 0.2003 0.0
C1196 C 0.52571 0.84333 0.2105 0.0
C1197 C 0.52942 0.8336 0.24065 0.0
C1198 C 0.50629 0.8554 0.10525 0.0
C1199 C 0.48739 0.85973 0.1027 0.0
C1200 C 0.5116 0.84868 0.13703 0.0
C1201 C 0.49833 0.84643 0.16713 0.0
C1202 C 0.48001 0.85169 0.16477 0.0
C1203 C 0.47448 0.85806 0.1329 0.0
H1204 H 0.22982 0.70619 0.17707 0.0
H1205 H 0.16741 0.71273 0.17291 0.0
H1206 H 0.21343 0.67571 0.13137 0.0
H1207 H 0.15099 0.68196 0.12658 0.0
H1208 H 0.16462 0.60182 0.08609 0.0
H1209 H 0.1784 0.63336 0.13031 0.0
H1210 H 0.16016 0.67455 0.0628 0.0
H1211 H 0.14626 0.64289 0.01813 0.0
C1212 C 0.21265 0.70126 0.16626 0.0
C1213 C 0.19982 0.71175 0.17889 0.0
C1214 C 0.20323 0.68368 0.14017 0.0
C1215 C 0.18082 0.67626 0.12584 0.0
C1216 C 0.16831 0.68738 0.13729 0.0
C1217 C 0.17769 0.70493 0.16378 0.0
C1218 C 0.16333 0.61747 0.08063 0.0
C1219 C 0.15449 0.61988 0.04839 0.0
C1220 C 0.17134 0.63558 0.10594 0.0
C1221 C 0.17056 0.65646 0.09978 0.0
C1222 C 0.16091 0.65859 0.06819 0.0
C1223 C 0.15306 0.64051 0.04261 0.0
H1224 H 0.07885 0.10312 0.30873 0.0
H1225 H 0.14853 0.16511 0.2997 0.0
H1226 H 0.08994 0.08146 0.26717 0.0
H1227 H 0.15935 0.14406 0.25819 0.0
H1228 H 0.17917 0.10317 0.18996 0.0
H1229 H 0.16708 0.1121 0.24564 0.0
H1230 H 0.0968 0.08594 0.20404 0.0
H1231 H 0.10861 0.07643 0.1488 0.0
C1232 C 0.09664 0.11198 0.29842 0.0
C1233 C 0.11266 0.13603 0.30693 0.0
C1234 C 0.10294 0.09964 0.27453 0.0
C1235 C 0.12547 0.11108 0.25914 0.0
C1236 C 0.14193 0.13457 0.26968 0.0
C1237 C 0.13558 0.14686 0.29321 0.0
C1238 C 0.16098 0.09878 0.19293 0.0
C1239 C 0.14501 0.08959 0.16461 0.0
C1240 C 0.15407 0.10396 0.22484 0.0
C1241 C 0.13111 0.10016 0.22906 0.0
C1242 C 0.11459 0.08902 0.20177 0.0
C1243 C 0.12146 0.08375 0.16991 0.0
H1244 H 0.84853 0.93029 0.22938 0.0
H1245 H 0.88984 0.95022 0.32473 0.0
H1246 H 0.87476 0.97001 0.2061 0.0
H1247 H 0.91582 0.99026 0.30164 0.0
H1248 H 0.91516 0.06129 0.26521 0.0
H1249 H 0.90165 0.02141 0.28785 0.0
H1250 H 0.91985 0.00092 0.19021 0.0
H1251 H 0.93397 0.04115 0.16775 0.0
C1252 C 0.86355 0.94302 0.245 0.0
C1253 C 0.86716 0.93729 0.27883 0.0
C1254 C 0.87861 0.96567 0.23162 0.0
C1255 C 0.89724 0.9831 0.25215 0.0
C1256 C 0.90157 0.97703 0.28535 0.0
C1257 C 0.88678 0.95416 0.29845 0.0
C1258 C 0.91687 0.04846 0.24896 0.0
C1259 C 0.92552 0.0542 0.21477 0.0
C1260 C 0.90927 0.02573 0.26196 0.0
C1261 C 0.90976 0.00819 0.24071 0.0
C1262 C 0.9194 0.01422 0.20705 0.0
C1263 C 0.92752 0.03719 0.19431 0.0
H1264 H 0.96861 0.82297 0.2206 0.0
H1265 H 0.97125 0.88867 0.19303 0.0
H1266 H 0.00224 0.84489 0.25921 0.0
H1267 H 0.0051 0.91079 0.23276 0.0
H1268 H 0.03473 0.92435 0.35084 0.0
H1269 H 0.00911 0.91094 0.29928 0.0
H1270 H 0.04548 0.87571 0.25969 0.0
H1271 H 0.07103 0.88888 0.3112 0.0
C1272 C 0.97662 0.84215 0.22215 0.0
C1273 C 0.96726 0.85402 0.20344 0.0
C1274 C 0.99603 0.85477 0.24433 0.0
C1275 C 0.00642 0.87958 0.2488 0.0
C1276 C 0.99741 0.89165 0.22972 0.0
C1277 C 0.97809 0.879 0.20699 0.0
C1278 C 0.03765 0.9142 0.33081 0.0
C1279 C 0.05463 0.90728 0.33556 0.0
C1280 C 0.02304 0.90666 0.30115 0.0
C1281 C 0.02511 0.89201 0.27577 0.0
C1282 C 0.0433 0.88671 0.27915 0.0
C1283 C 0.05796 0.89432 0.30867 0.0
H1284 H 0.845 0.80778 0.74149 0.0
H1285 H 0.90352 0.86937 0.69372 0.0
H1286 H 0.8322 0.83333 0.76847 0.0
H1287 H 0.89072 0.89521 0.72194 0.0
H1288 H 0.86195 0.92095 0.82716 0.0
H1289 H 0.88171 0.90357 0.79341 0.0
H1290 H 0.81753 0.86057 0.73407 0.0
H1291 H 0.79794 0.87777 0.76718 0.0
C1292 C 0.85514 0.82676 0.73664 0.0
C1293 C 0.87496 0.83647 0.71478 0.0
C1294 C 0.84784 0.84138 0.75227 0.0
C1295 C 0.86035 0.86608 0.7468 0.0
C1296 C 0.88082 0.87614 0.72631 0.0
C1297 C 0.88804 0.86138 0.71021 0.0
C1298 C 0.85236 0.90832 0.8062 0.0
C1299 C 0.82832 0.90032 0.80016 0.0
C1300 C 0.86364 0.89845 0.78696 0.0
C1301 C 0.85092 0.88059 0.76164 0.0
C1302 C 0.82755 0.87415 0.75377 0.0
C1303 C 0.81637 0.88395 0.77278 0.0
H1304 H 0.188 0.05729 0.74954 0.0
H1305 H 0.13139 0.05245 0.68536 0.0
H1306 H 0.16217 0.01658 0.76896 0.0
H1307 H 0.10527 0.01144 0.70573 0.0
H1308 H 0.12294 0.9361 0.73734 0.0
H1309 H 0.14057 0.97684 0.71635 0.0
H1310 H 0.09294 0.98829 0.78029 0.0
H1311 H 0.07528 0.94728 0.80215 0.0
C1312 C 0.16997 0.04765 0.73984 0.0
C1313 C 0.16187 0.0579 0.71536 0.0
C1314 C 0.1552 0.02443 0.75115 0.0
C1315 C 0.13193 0.01106 0.73858 0.0
C1316 C 0.1232 0.0216 0.71575 0.0
C1317 C 0.13813 0.04495 0.70414 0.0
C1318 C 0.11597 0.94712 0.7467 0.0
C1319 C 0.09805 0.93866 0.77191 0.0
C1320 C 0.12598 0.97035 0.7345 0.0
C1321 C 0.11811 0.9855 0.74694 0.0
C1322 C 0.09913 0.97672 0.77031 0.0
C1323 C 0.08911 0.95336 0.78277 0.0
H1324 H 0.91167 0.0906 0.73491 0.0
H1325 H 0.94386 0.07782 0.64518 0.0
H1326 H 0.94874 0.10616 0.76772 0.0
H1327 H 0.98132 0.09426 0.67773 0.0
H1328 H 0.04073 0.16997 0.73285 0.0
H1329 H 0.00426 0.14239 0.70153 0.0
H1330 H 0.98277 0.09343 0.78749 0.0
H1331 H 0.01981 0.12074 0.81856 0.0
C1332 C 0.92652 0.09049 0.72265 0.0
C1333 C 0.92504 0.08297 0.68773 0.0
C1334 C 0.94763 0.09931 0.74138 0.0
C1335 C 0.96771 0.10131 0.72511 0.0
C1336 C 0.96592 0.09266 0.69075 0.0
C1337 C 0.94456 0.0832 0.67228 0.0
C1338 C 0.02839 0.15315 0.74481 0.0
C1339 C 0.03295 0.14746 0.77809 0.0
C1340 C 0.0077 0.13733 0.7268 0.0
C1341 C 0.99098 0.11581 0.7421 0.0
C1342 C 0.99562 0.10987 0.77516 0.0
C1343 C 0.01669 0.12545 0.79284 0.0
H1344 H 0.80892 0.48066 0.66084 0.0
H1345 H 0.73997 0.44003 0.61303 0.0
H1346 H 0.82391 0.46134 0.62205 0.0
H1347 H 0.75504 0.42208 0.57211 0.0
H1348 H 0.78405 0.39146 0.49848 0.0
H1349 H 0.76987 0.39877 0.55348 0.0
H1350 H 0.83566 0.46596 0.5655 0.0
H1351 H 0.85018 0.45759 0.5123 0.0
C1352 C 0.79697 0.46736 0.64209 0.0
C1353 C 0.77343 0.46187 0.63951 0.0
C1354 C 0.80555 0.45645 0.61956 0.0
C1355 C 0.79097 0.44052 0.59304 0.0
C1356 C 0.76691 0.43397 0.5922 0.0
C1357 C 0.75818 0.44435 0.61554 0.0
C1358 C 0.79562 0.40746 0.51353 0.0
C1359 C 0.81811 0.42406 0.50101 0.0
C1360 C 0.78744 0.41182 0.54492 0.0
C1361 C 0.8013 0.43325 0.56392 0.0
C1362 C 0.82441 0.44909 0.55224 0.0
C1363 C 0.8328 0.44439 0.52141 0.0
H1364 H 0.56664 0.29554 0.6656 0.0
H1365 H 0.52551 0.26973 0.57028 0.0
H1366 H 0.59131 0.33468 0.63896 0.0
H1367 H 0.55032 0.30856 0.54361 0.0
H1368 H 0.60645 0.37823 0.4987 0.0
H1369 H 0.59359 0.33948 0.52552 0.0
H1370 H 0.57734 0.3644 0.62079 0.0
H1371 H 0.58979 0.40288 0.59394 0.0
C1372 C 0.56331 0.29804 0.63868 0.0
C1373 C 0.54411 0.27973 0.62001 0.0
C1374 C 0.57734 0.3204 0.62354 0.0
C1375 C 0.57267 0.32457 0.58929 0.0
C1376 C 0.55445 0.30574 0.56992 0.0
C1377 C 0.54018 0.28359 0.58524 0.0
C1378 C 0.60068 0.37559 0.52564 0.0
C1379 C 0.59892 0.39343 0.54421 0.0
C1380 C 0.59327 0.35344 0.54089 0.0
C1381 C 0.58449 0.34901 0.57515 0.0
C1382 C 0.58427 0.36743 0.59446 0.0
C1383 C 0.59123 0.38938 0.57902 0.0
H1384 H 0.63842 0.22106 0.5346 0.0
H1385 H 0.62903 0.15462 0.57378 0.0
H1386 H 0.67297 0.24312 0.57333 0.0
H1387 H 0.66356 0.17642 0.61081 0.0
H1388 H 0.73758 0.22057 0.65112 0.0
H1389 H 0.7088 0.20522 0.60334 0.0
H1390 H 0.67751 0.24543 0.64286 0.0
H1391 H 0.70621 0.2608 0.69098 0.0
C1392 C 0.64388 0.21116 0.55093 0.0
C1393 C 0.63112 0.18603 0.55062 0.0
C1394 C 0.66359 0.22377 0.57303 0.0
C1395 C 0.67106 0.21141 0.59458 0.0
C1396 C 0.65849 0.18638 0.59388 0.0
C1397 C 0.63865 0.17387 0.57248 0.0
C1398 C 0.72488 0.22653 0.64935 0.0
C1399 C 0.72398 0.24165 0.67517 0.0
C1400 C 0.7084 0.21771 0.622 0.0
C1401 C 0.69092 0.22408 0.61962 0.0
C1402 C 0.69093 0.24039 0.64404 0.0
C1403 C 0.70723 0.249 0.6717 0.0
H1404 H 0.57394 0.22392 0.02847 0.0
H1405 H 0.55032 0.17235 0.11132 0.0
H1406 H 0.55898 0.24648 0.06092 0.0
H1407 H 0.5363 0.19529 0.14406 0.0
H1408 H 0.53019 0.25397 0.20297 0.0
H1409 H 0.55576 0.24333 0.1699 0.0
H1410 H 0.50989 0.22545 0.07989 0.0
H1411 H 0.48394 0.2352 0.11315 0.0
C1412 C 0.56607 0.21777 0.05391 0.0
C1413 C 0.56308 0.19639 0.06743 0.0
C1414 C 0.55761 0.23064 0.07237 0.0
C1415 C 0.54682 0.22264 0.10498 0.0
C1416 C 0.54489 0.20191 0.11915 0.0
C1417 C 0.55271 0.18874 0.10034 0.0
C1418 C 0.52601 0.24842 0.17583 0.0
C1419 C 0.50516 0.24528 0.16049 0.0
C1420 C 0.54056 0.24234 0.15704 0.0
C1421 C 0.53473 0.23377 0.12246 0.0
C1422 C 0.51482 0.23233 0.10639 0.0
C1423 C 0.49998 0.23777 0.12542 0.0
H1424 H 0.78816 0.37392 0.02376 0.0
H1425 H 0.83369 0.3922 0.11438 0.0
H1426 H 0.76379 0.33311 0.0455 0.0
H1427 H 0.80886 0.35175 0.13656 0.0
H1428 H 0.74425 0.27982 0.17362 0.0
H1429 H 0.75966 0.32062 0.15248 0.0
H1430 H 0.78282 0.30232 0.05761 0.0
H1431 H 0.76823 0.26187 0.07911 0.0
C1432 C 0.79251 0.3694 0.04877 0.0
C1433 C 0.81276 0.38609 0.06747 0.0
C1434 C 0.77865 0.34613 0.06107 0.0
C1435 C 0.78449 0.33953 0.09268 0.0
C1436 C 0.80394 0.3566 0.11229 0.0
C1437 C 0.81814 0.37963 0.09957 0.0
C1438 C 0.7522 0.28441 0.14796 0.0
C1439 C 0.75512 0.26781 0.12793 0.0
C1440 C 0.76101 0.30768 0.13599 0.0
C1441 C 0.77221 0.31436 0.10344 0.0
C1442 C 0.77399 0.2974 0.08264 0.0
C1443 C 0.76576 0.27437 0.09497 0.0
H1444 H 0.57587 0.43599 0.06134 0.0
H1445 H 0.60106 0.41242 0.97408 0.0
H1446 H 0.61323 0.44924 0.09243 0.0
H1447 H 0.63885 0.42656 0.00483 0.0
H1448 H 0.70406 0.5039 0.05555 0.0
H1449 H 0.66601 0.47856 0.02631 0.0
H1450 H 0.6442 0.42847 0.11079 0.0
H1451 H 0.68277 0.45343 0.1397 0.0
C1452 C 0.5892 0.43311 0.04928 0.0
C1453 C 0.5857 0.42318 0.01549 0.0
C1454 C 0.61043 0.44058 0.06705 0.0
C1455 C 0.62864 0.43874 0.0509 0.0
C1456 C 0.62482 0.42784 0.01777 0.0
C1457 C 0.60329 0.41976 1.00032 0.0
C1458 C 0.6913 0.48727 0.06757 0.0
C1459 C 0.69621 0.48058 0.09982 0.0
C1460 C 0.6697 0.47276 0.05076 0.0
C1461 C 0.6525 0.45162 0.06633 0.0
C1462 C 0.65745 0.44463 0.09828 0.0
C1463 C 0.67938 0.45887 0.11471 0.0
H1464 H 0.4829 0.85106 0.94277 0.0
H1465 H 0.41936 0.78742 0.97522 0.0
H1466 H 0.4928 0.82724 0.90526 0.0
H1467 H 0.42915 0.76335 0.93625 0.0
H1468 H 0.44286 0.74745 0.81716 0.0
H1469 H 0.43191 0.76186 0.86893 0.0
H1470 H 0.50378 0.79505 0.90712 0.0
H1471 H 0.5149 0.78085 0.85541 0.0
C1472 C 0.47125 0.83193 0.94257 0.0
C1473 C 0.45046 0.82118 0.96243 0.0
C1474 C 0.47698 0.81822 0.92098 0.0
C1475 C 0.46189 0.79341 0.91814 0.0
C1476 C 0.44114 0.78246 0.93814 0.0
C1477 C 0.43557 0.79623 0.96037 0.0
C1478 C 0.45623 0.75732 0.83697 0.0
C1479 C 0.47989 0.76346 0.83171 0.0
C1480 C 0.44988 0.76542 0.86675 0.0
C1481 C 0.46709 0.77987 0.8917 0.0
C1482 C 0.49025 0.78421 0.88798 0.0
C1483 C 0.49658 0.77603 0.85835 0.0
H1484 H 0.24701 0.72408 0.93043 0.0
H1485 H 0.25917 0.70162 0.82972 0.0
H1486 H 0.23128 0.6836 0.95219 0.0
H1487 H 0.24285 0.66085 0.85136 0.0
H1488 H 0.17218 0.59214 0.89556 0.0
H1489 H 0.1983 0.63165 0.87134 0.0
H1490 H 0.24339 0.65076 0.96251 0.0
H1491 H 0.21755 0.6111 0.98654 0.0
C1492 C 0.24675 0.71057 0.91321 0.0
C1493 C 0.25431 0.71592 0.87847 0.0
C1494 C 0.23785 0.68747 0.92568 0.0
C1495 C 0.23589 0.6692 0.90339 0.0
C1496 C 0.24425 0.67471 0.869 0.0
C1497 C 0.25368 0.69799 0.85673 0.0
C1498 C 0.18797 0.60458 0.91002 0.0
C1499 C 0.19279 0.59862 0.94296 0.0
C1500 C 0.20296 0.6271 0.89609 0.0
C1501 C 0.22277 0.64417 0.91516 0.0
C1502 C 0.2282 0.63786 0.94737 0.0
C1503 C 0.21346 0.61516 0.96099 0.0
H1504 H 0.40291 0.55858 0.98503 0.0
H1505 H 0.36261 0.58936 0.02612 0.0
H1506 H 0.3785 0.54602 0.9323 0.0
H1507 H 0.33825 0.57672 0.97325 0.0
H1508 H 0.30332 0.55706 0.86477 0.0
H1509 H 0.33611 0.57895 0.90633 0.0
H1510 H 0.3355 0.51365 0.92909 0.0
H1511 H 0.3029 0.49195 0.88871 0.0
C1512 C 0.3892 0.56312 0.9826 0.0
C1513 C 0.38443 0.57456 0.0102 0.0
C1514 C 0.37521 0.55589 0.95236 0.0
C1515 C 0.35631 0.56012 0.94891 0.0
C1516 C 0.35276 0.57329 0.97515 0.0
C1517 C 0.36664 0.58039 0.00555 0.0
C1518 C 0.31046 0.54749 0.87828 0.0
C1519 C 0.30046 0.5227 0.87328 0.0
C1520 C 0.32916 0.56001 0.90208 0.0
C1521 C 0.33845 0.54802 0.92073 0.0
C1522 C 0.32902 0.52348 0.91466 0.0
C1523 C 0.31018 0.51097 0.89148 0.0
H1524 H 0.15848 0.57536 0.42533 0.0
H1525 H 0.19913 0.58197 0.51788 0.0
H1526 H 0.17949 0.55916 0.39278 0.0
H1527 H 0.21962 0.56492 0.48555 0.0
H1528 H 0.20031 0.4896 0.42757 0.0
H1529 H 0.19292 0.51814 0.45904 0.0
H1530 H 0.22527 0.56858 0.37564 0.0
H1531 H 0.23346 0.54023 0.34443 0.0
C1532 C 0.1725 0.57408 0.43827 0.0
C1533 C 0.17739 0.57997 0.47387 0.0
C1534 C 0.1845 0.56489 0.4197 0.0
C1535 C 0.20106 0.56087 0.43681 0.0
C1536 C 0.207 0.56809 0.4719 0.0
C1537 C 0.19542 0.57791 0.49025 0.0
C1538 C 0.20612 0.5069 0.41617 0.0
C1539 C 0.21732 0.51274 0.38356 0.0
C1540 C 0.20213 0.52326 0.43431 0.0
C1541 C 0.2088 0.54553 0.41979 0.0
C1542 C 0.22025 0.55156 0.38737 0.0
C1543 C 0.22482 0.53538 0.36959 0.0
H1544 H 0.41904 0.62098 0.5008 0.0
H1545 H 0.44336 0.60227 0.40738 0.0
H1546 H 0.43415 0.6615 0.47847 0.0
H1547 H 0.4576 0.64236 0.38468 0.0
H1548 H 0.4618 0.71345 0.34894 0.0
H1549 H 0.43779 0.67282 0.37162 0.0
H1550 H 0.48382 0.69253 0.46171 0.0
H1551 H 0.50829 0.73277 0.4386 0.0
C1552 C 0.42699 0.62534 0.47513 0.0
C1553 C 0.43012 0.60863 0.45576 0.0
C1554 C 0.43563 0.64843 0.46247 0.0
C1555 C 0.44682 0.65479 0.42987 0.0
C1556 C 0.44877 0.63768 0.40972 0.0
C1557 C 0.44074 0.61487 0.42275 0.0
C1558 C 0.46648 0.70918 0.37389 0.0
C1559 C 0.48687 0.72612 0.39206 0.0
C1560 C 0.45281 0.68603 0.38675 0.0
C1561 C 0.45898 0.67981 0.41842 0.0
C1562 C 0.47864 0.6971 0.43742 0.0
C1563 C 0.49264 0.71999 0.42414 0.0
H1564 H 0.34639 0.78489 0.48285 0.0
H1565 H 0.37128 0.83605 0.39935 0.0
H1566 H 0.30949 0.75967 0.44993 0.0
H1567 H 0.335 0.81051 0.36622 0.0
H1568 H 0.27435 0.74565 0.30741 0.0
H1569 H 0.31006 0.75917 0.34334 0.0
H1570 H 0.27882 0.77948 0.42618 0.0
H1571 H 0.24355 0.76684 0.38997 0.0
C1572 C 0.34414 0.79045 0.45724 0.0
C1573 C 0.36147 0.8124 0.44361 0.0
C1574 C 0.32319 0.77606 0.43851 0.0
C1575 C 0.31979 0.78318 0.40558 0.0
C1576 C 0.33752 0.80462 0.39142 0.0
C1577 C 0.35809 0.81925 0.41045 0.0
C1578 C 0.27487 0.7523 0.33371 0.0
C1579 C 0.25638 0.75534 0.34605 0.0
C1580 C 0.29521 0.76 0.35413 0.0
C1581 C 0.29688 0.77012 0.38739 0.0
C1582 C 0.27766 0.77141 0.40074 0.0
C1583 C 0.25763 0.76432 0.38003 0.0
H1584 H 0.25619 0.09925 0.15387 0.0
H1585 H 0.26822 0.17078 0.16658 0.0
H1586 H 0.29419 0.11169 0.1818 0.0
H1587 H 0.30665 0.18362 0.19257 0.0
H1588 H 0.37441 0.20319 0.24484 0.0
H1589 H 0.33167 0.18425 0.23694 0.0
H1590 H 0.33316 0.13374 0.16371 0.0
H1591 H 0.37517 0.15171 0.17287 0.0
C1592 C 0.26692 0.1176 0.16282 0.0
C1593 C 0.25939 0.13411 0.15759 0.0
C1594 C 0.28877 0.12481 0.17868 0.0
C1595 C 0.30381 0.14881 0.18896 0.0
C1596 C 0.29558 0.16495 0.18543 0.0
C1597 C 0.27355 0.15763 0.17019 0.0
C1598 C 0.36547 0.1877 0.22769 0.0
C1599 C 0.37833 0.17924 0.20911 0.0
C1600 C 0.34097 0.17693 0.22293 0.0
C1601 C 0.32887 0.15763 0.19926 0.0
C1602 C 0.34162 0.14833 0.18247 0.0
C1603 C 0.36594 0.15887 0.1875 0.0
H1604 H 0.82584 0.20314 0.11851 0.0
H1605 H 0.78476 0.1686 0.2102 0.0
H1606 H 0.84687 0.18149 0.1246 0.0
H1607 H 0.80656 0.14758 0.21728 0.0
H1608 H 0.8351 0.09704 0.20036 0.0
H1609 H 0.81265 0.11725 0.19363 0.0
H1610 H 0.87592 0.1808 0.16 0.0
H1611 H 0.89813 0.16019 0.16532 0.0
C1612 C 0.82137 0.19097 0.1401 0.0
C1613 C 0.80368 0.18762 0.16394 0.0
C1614 C 0.83358 0.17868 0.14377 0.0
C1615 C 0.82866 0.16298 0.17168 0.0
C1616 C 0.81066 0.15933 0.19525 0.0
C1617 C 0.79819 0.17142 0.19128 0.0
C1618 C 0.84424 0.11536 0.19161 0.0
C1619 C 0.8684 0.127 0.18327 0.0
C1620 C 0.83137 0.127 0.18792 0.0
C1621 C 0.84241 0.15066 0.17617 0.0
C1622 C 0.86669 0.16241 0.16841 0.0
C1623 C 0.8795 0.15066 0.17167 0.0
H1624 H 0.76395 0.61784 0.10957 0.0
H1625 H 0.8053 0.60531 0.18531 0.0
H1626 H 0.79401 0.66001 0.10873 0.0
H1627 H 0.83493 0.64762 0.18547 0.0
H1628 H 0.89586 0.71742 0.1493 0.0
H1629 H 0.86487 0.6757 0.14851 0.0
H1630 H 0.81207 0.6967 0.14111 0.0
H1631 H 0.84329 0.7386 0.14061 0.0
C1632 C 0.77929 0.62414 0.12644 0.0
C1633 C 0.7823 0.60816 0.14734 0.0
C1634 C 0.79651 0.64837 0.12604 0.0
C1635 C 0.81703 0.65723 0.14677 0.0
C1636 C 0.81963 0.64134 0.16852 0.0
C1637 C 0.80254 0.61709 0.16865 0.0
C1638 C 0.87765 0.71315 0.14727 0.0
C1639 C 0.87203 0.73133 0.14516 0.0
C1640 C 0.85984 0.6892 0.14714 0.0
C1641 C 0.83592 0.68279 0.1453 0.0
C1642 C 0.83031 0.70097 0.14231 0.0
C1643 C 0.84819 0.72499 0.14206 0.0
H1644 H 0.20255 0.38657 0.32397 0.0
H1645 H 0.13341 0.3721 0.35641 0.0
H1646 H 0.18913 0.34436 0.32538 0.0
H1647 H 0.11959 0.32934 0.35653 0.0
H1648 H 0.11331 0.25737 0.38962 0.0
H1649 H 0.12367 0.29931 0.3876 0.0
H1650 H 0.16461 0.30864 0.2944 0.0
H1651 H 0.15519 0.26751 0.29735 0.0
C1652 C 0.18433 0.37435 0.3309 0.0
C1653 C 0.16904 0.38277 0.33993 0.0
C1654 C 0.17657 0.35003 0.33155 0.0
C1655 C 0.15319 0.33336 0.34078 0.0
C1656 C 0.13777 0.34171 0.34963 0.0
C1657 C 0.14564 0.36619 0.34931 0.0
C1658 C 0.12448 0.26847 0.36875 0.0
C1659 C 0.13379 0.2593 0.34404 0.0
C1660 C 0.1303 0.29242 0.36743 0.0
C1661 C 0.14528 0.30747 0.34112 0.0
C1662 C 0.15363 0.29783 0.31563 0.0
C1663 C 0.14814 0.27417 0.31725 0.0
H1664 H 0.62161 0.79395 0.39218 0.0
H1665 H 0.61212 0.82725 0.30139 0.0
H1666 H 0.66398 0.81492 0.38252 0.0
H1667 H 0.65459 0.84753 0.2906 0.0
H1668 H 0.73461 0.89638 0.29932 0.0
H1669 H 0.6924 0.87747 0.31003 0.0
H1670 H 0.69165 0.8139 0.34472 0.0
H1671 H 0.73411 0.83329 0.33549 0.0
C1672 C 0.62862 0.80577 0.37006 0.0
C1673 C 0.61355 0.80891 0.34745 0.0
C1674 C 0.65292 0.81763 0.36431 0.0
C1675 C 0.66276 0.83266 0.33544 0.0
C1676 C 0.6477 0.83627 0.31329 0.0
C1677 C 0.62335 0.82464 0.31939 0.0
C1678 C 0.72541 0.87832 0.30912 0.0
C1679 C 0.73773 0.86634 0.31665 0.0
C1680 C 0.70115 0.86743 0.31513 0.0
C1681 C 0.68854 0.84417 0.32841 0.0
C1682 C 0.70083 0.83203 0.33524 0.0
C1683 C 0.72517 0.84306 0.32969 0.0
H1684 H 0.16539 0.78909 0.2525 0.0
H1685 H 0.22307 0.84931 0.30636 0.0
H1686 H 0.14109 0.80754 0.25975 0.0
H1687 H 0.19874 0.86695 0.31518 0.0
H1688 H 0.15423 0.89842 0.32971 0.0
H1689 H 0.17778 0.88501 0.29803 0.0
H1690 H 0.1211 0.81176 0.30758 0.0
H1691 H 0.09724 0.82537 0.33723 0.0
C1692 C 0.17305 0.80644 0.26525 0.0
C1693 C 0.19601 0.81746 0.27949 0.0
C1694 C 0.15904 0.81693 0.26977 0.0
C1695 C 0.16768 0.83854 0.28876 0.0
C1696 C 0.19135 0.85043 0.30023 0.0
C1697 C 0.20534 0.84011 0.29545 0.0
C1698 C 0.14671 0.8795 0.3244 0.0
C1699 C 0.12407 0.86292 0.33644 0.0
C1700 C 0.16022 0.87176 0.30637 0.0
C1701 C 0.15161 0.84721 0.30071 0.0
C1702 C 0.12835 0.8308 0.31098 0.0
C1703 C 0.11468 0.83859 0.32837 0.0
H1704 H 0.7038 0.81462 0.85844 0.0
H1705 H 0.71038 0.87905 0.90377 0.0
H1706 H 0.66189 0.79797 0.85173 0.0
H1707 H 0.6676 0.86158 0.8992 0.0
H1708 H 0.60441 0.84225 0.82492 0.0
H1709 H 0.64218 0.85575 0.85337 0.0
H1710 H 0.6235 0.78224 0.86835 0.0
H1711 H 0.58628 0.76891 0.83738 0.0
C1712 C 0.69618 0.82502 0.86803 0.0
C1713 C 0.71063 0.84851 0.88071 0.0
C1714 C 0.67186 0.81527 0.86451 0.0
C1715 C 0.66113 0.82854 0.87417 0.0
C1716 C 0.67528 0.85108 0.89038 0.0
C1717 C 0.69982 0.86104 0.89343 0.0
C1718 C 0.60826 0.82898 0.83469 0.0
C1719 C 0.59263 0.80455 0.8283 0.0
C1720 C 0.62992 0.83672 0.85143 0.0
C1721 C 0.63629 0.82017 0.86289 0.0
C1722 C 0.61966 0.7956 0.85898 0.0
C1723 C 0.59823 0.78789 0.84139 0.0
H1724 H 0.22518 0.81721 0.81054 0.0
H1725 H 0.1792 0.77705 0.89548 0.0
H1726 H 0.20412 0.83883 0.80441 0.0
H1727 H 0.15854 0.7993 0.89 0.0
H1728 H 0.11162 0.82669 0.84272 0.0
H1729 H 0.13195 0.80422 0.85153 0.0
H1730 H 0.19908 0.86836 0.8341 0.0
H1731 H 0.17892 0.89043 0.82432 0.0
C1732 C 0.21077 0.81318 0.82821 0.0
C1733 C 0.20395 0.79543 0.85357 0.0
C1734 C 0.19872 0.82566 0.82478 0.0
C1735 C 0.17968 0.82088 0.84683 0.0
C1736 C 0.17292 0.80321 0.87232 0.0
C1737 C 0.1849 0.79059 0.87562 0.0
C1738 C 0.13071 0.83594 0.84091 0.0
C1739 C 0.1436 0.86025 0.8324 0.0
C1740 C 0.14238 0.82311 0.8461 0.0
C1741 C 0.16714 0.83444 0.84311 0.0
C1742 C 0.17997 0.85892 0.83572 0.0
C1743 C 0.16837 0.87161 0.83027 0.0
H1744 H 0.22727 0.38565 0.82247 0.0
H1745 H 0.17529 0.40742 0.8112 0.0
H1746 H 0.19602 0.34411 0.82304 0.0
H1747 H 0.14373 0.36559 0.81294 0.0
H1748 H 0.13696 0.27523 0.86306 0.0
H1749 H 0.16616 0.31758 0.86178 0.0
H1750 H 0.12535 0.32775 0.78222 0.0
H1751 H 0.09563 0.2854 0.78438 0.0
C1752 C 0.20912 0.38156 0.82015 0.0
C1753 C 0.20376 0.39986 0.81704 0.0
C1754 C 0.19116 0.3577 0.82078 0.0
C1755 C 0.16731 0.35149 0.81872 0.0
C1756 C 0.16191 0.36974 0.81447 0.0
C1757 C 0.17999 0.39371 0.81349 0.0
C1758 C 0.13409 0.28651 0.84549 0.0
C1759 C 0.11403 0.27688 0.82366 0.0
C1760 C 0.15094 0.31079 0.84454 0.0
C1761 C 0.14833 0.32604 0.82145 0.0
C1762 C 0.12787 0.31657 0.80044 0.0
C1763 C 0.11086 0.29226 0.80163 0.0
H1764 H 0.86109 0.71207 0.62874 0.0
H1765 H 0.80594 0.70037 0.70154 0.0
H1766 H 0.84875 0.66984 0.63098 0.0
H1767 H 0.79431 0.65852 0.705 0.0
H1768 H 0.76607 0.57979 0.68134 0.0
H1769 H 0.7764 0.6213 0.67562 0.0
H1770 H 0.85035 0.64257 0.66959 0.0
H1771 H 0.83989 0.60101 0.67378 0.0
C1772 C 0.84633 0.70049 0.64518 0.0
C1773 C 0.83454 0.70961 0.66498 0.0
C1774 C 0.83937 0.6763 0.64673 0.0
C1775 C 0.82067 0.66075 0.66848 0.0
C1776 C 0.80857 0.66983 0.68762 0.0
C1777 C 0.81532 0.69392 0.68573 0.0
C1778 C 0.78454 0.59337 0.679 0.0
C1779 C 0.80215 0.58711 0.67794 0.0
C1780 C 0.79049 0.6172 0.67577 0.0
C1781 C 0.81423 0.63535 0.67189 0.0
C1782 C 0.83185 0.62906 0.67167 0.0
C1783 C 0.82588 0.60523 0.67442 0.0
H1784 H 0.29089 0.16955 0.65373 0.0
H1785 H 0.294 0.10664 0.68062 0.0
H1786 H 0.33388 0.19193 0.64782 0.0
H1787 H 0.33653 0.12868 0.67377 0.0
H1788 H 0.40811 0.21709 0.60589 0.0
H1789 H 0.36526 0.19495 0.61113 0.0
H1790 H 0.37121 0.15955 0.70229 0.0
H1791 H 0.41402 0.18117 0.6965 0.0
C1792 C 0.30068 0.16047 0.65816 0.0
C1793 C 0.289 0.13636 0.66786 0.0
C1794 C 0.32529 0.17324 0.65461 0.0
C1795 C 0.33866 0.16211 0.66051 0.0
C1796 C 0.32687 0.13794 0.66974 0.0
C1797 C 0.3024 0.12527 0.67347 0.0
C1798 C 0.40029 0.2045 0.62699 0.0
C1799 C 0.41452 0.20084 0.65073 0.0
C1800 C 0.37571 0.19195 0.63013 0.0
C1801 C 0.36479 0.17553 0.65716 0.0
C1802 C 0.37903 0.17182 0.68084 0.0
C1803 C 0.4036 0.18426 0.67759 0.0
H1804 H 0.88929 0.17536 0.65126 0.0
H1805 H 0.83072 0.11502 0.59895 0.0
H1806 H 0.86681 0.19538 0.6547 0.0
H1807 H 0.80826 0.13573 0.60109 0.0
H1808 H 0.76695 0.1618 0.67139 0.0
H1809 H 0.7887 0.14414 0.64628 0.0
H1810 H 0.84866 0.21471 0.6295 0.0
H1811 H 0.82719 0.2323 0.65643 0.0
C1812 C 0.87174 0.16654 0.63972 0.0
C1813 C 0.86165 0.14333 0.62547 0.0
C1814 C 0.85886 0.17823 0.64132 0.0
C1815 C 0.83555 0.16716 0.62844 0.0
C1816 C 0.82602 0.14462 0.61185 0.0
C1817 C 0.83895 0.1328 0.6104 0.0
C1818 C 0.78462 0.17356 0.66172 0.0
C1819 C 0.79557 0.19842 0.6666 0.0
C1820 C 0.79708 0.16342 0.64703 0.0
C1821 C 0.82067 0.17795 0.63642 0.0
C1822 C 0.83077 0.20293 0.63831 0.0
C1823 C 0.81845 0.21305 0.65358 0.0
H1824 H 0.05011 0.54474 0.56197 0.0
H1825 H 0.04775 0.48904 0.4959 0.0
H1826 H 0.00733 0.52655 0.55571 0.0
H1827 H 0.00566 0.47171 0.48836 0.0
H1828 H 0.92862 0.43876 0.48223 0.0
H1829 H 0.96705 0.45162 0.50891 0.0
H1830 H 0.98196 0.52463 0.51046 0.0
H1831 H 0.94311 0.51149 0.4856 0.0
C1832 C 0.04048 0.52846 0.54655 0.0
C1833 C 0.05247 0.51861 0.52899 0.0
C1834 C 0.01596 0.51813 0.5427 0.0
C1835 C 0.00298 0.49783 0.52106 0.0
C1836 C 0.01485 0.48715 0.50553 0.0
C1837 C 0.0392 0.49729 0.50962 0.0
C1838 C 0.94001 0.45749 0.48881 0.0
C1839 C 0.93302 0.47417 0.48136 0.0
C1840 C 0.96209 0.46491 0.50399 0.0
C1841 C 0.97788 0.48926 0.51139 0.0
C1842 C 0.97028 0.50572 0.50557 0.0
C1843 C 0.94803 0.49821 0.49097 0.0
H1844 H 0.51508 0.56095 0.48179 0.0
H1845 H 0.45041 0.49827 0.51374 0.0
H1846 H 0.53626 0.53955 0.48818 0.0
H1847 H 0.47164 0.47651 0.51912 0.0
H1848 H 0.52252 0.45325 0.55964 0.0
H1849 H 0.50108 0.47465 0.55446 0.0
H1850 H 0.54004 0.50846 0.46086 0.0
H1851 H 0.56199 0.48764 0.4666 0.0
C1852 C 0.50529 0.5425 0.48991 0.0
C1853 C 0.48098 0.5313 0.49715 0.0
C1854 C 0.51747 0.53018 0.49339 0.0
C1855 C 0.50565 0.50626 0.50395 0.0
C1856 C 0.48134 0.49502 0.51131 0.0
C1857 C 0.46913 0.50743 0.50806 0.0
C1858 C 0.5266 0.46533 0.538 0.0
C1859 C 0.54406 0.46879 0.51359 0.0
C1860 C 0.51415 0.47745 0.53491 0.0
C1861 C 0.51878 0.49324 0.50722 0.0
C1862 C 0.53626 0.49671 0.48282 0.0
C1863 C 0.54883 0.48471 0.48605 0.0
H1864 H 0.54927 0.05305 0.54175 0.0
H1865 H 0.5154 0.06727 0.456 0.0
H1866 H 0.51831 0.01152 0.54084 0.0
H1867 H 0.4846 0.02504 0.45405 0.0
H1868 H 0.4219 0.95153 0.48214 0.0
H1869 H 0.45135 0.99406 0.48436 0.0
H1870 H 0.50572 0.97689 0.50655 0.0
H1871 H 0.47631 0.93472 0.50577 0.0
C1872 C 0.53531 0.04723 0.52236 0.0
C1873 C 0.53492 0.06343 0.4987 0.0
C1874 C 0.51756 0.02331 0.52174 0.0
C1875 C 0.49908 0.01479 0.49708 0.0
C1876 C 0.49847 0.03104 0.47361 0.0
C1877 C 0.51616 0.05519 0.47455 0.0
C1878 C 0.44013 0.9569 0.48772 0.0
C1879 C 0.44672 0.93974 0.49403 0.0
C1880 C 0.45704 0.98127 0.48871 0.0
C1881 C 0.48092 0.98896 0.49574 0.0
C1882 C 0.48744 0.97171 0.50182 0.0
C1883 C 0.47055 0.94744 0.50125 0.0
H1884 H 0.48913 0.05968 0.01965 0.0
H1885 H 0.5613 0.07595 0.00785 0.0
H1886 H 0.47573 0.0172 0.01964 0.0
H1887 H 0.54809 0.03355 0.00944 0.0
H1888 H 0.51512 0.95559 0.97887 0.0
H1889 H 0.52802 0.99772 0.9776 0.0
H1890 H 0.47505 0.98689 0.05408 0.0
H1891 H 0.46134 0.9442 0.05409 0.0
C1892 C 0.50215 0.05417 0.01712 0.0
C1893 C 0.52628 0.07119 0.01367 0.0
C1894 C 0.49448 0.02979 0.01747 0.0
C1895 C 0.51079 0.02183 0.01482 0.0
C1896 C 0.53493 0.03892 0.01101 0.0
C1897 C 0.54256 0.06329 0.01016 0.0
C1898 C 0.50625 0.96215 0.99561 0.0
C1899 C 0.4872 0.94648 0.01668 0.0
C1900 C 0.51377 0.98643 0.99499 0.0
C1901 C 0.50268 0.99586 0.01579 0.0
C1902 C 0.48378 0.98024 0.03724 0.0
C1903 C 0.47601 0.95578 0.0375 0.0
H1904 H 0.94068 0.49589 1.00012 0.0
H1905 H 0.94508 0.43446 0.03148 0.0
H1906 H 0.98334 0.51804 0.99072 0.0
H1907 H 0.98729 0.45617 0.02101 0.0
H1908 H 0.05591 0.5415 0.94317 0.0
H1909 H 0.01341 0.52013 0.95279 0.0
H1910 H 0.02313 0.48776 0.04463 0.0
H1911 H 0.06549 0.50846 0.03434 0.0
C1912 C 0.9507 0.48707 0.00481 0.0
C1913 C 0.93946 0.46345 0.01676 0.0
C1914 C 0.97513 0.49971 0.99925 0.0
C1915 C 0.98881 0.48893 0.00525 0.0
C1916 C 0.97745 0.46523 0.01682 0.0
C1917 C 0.95315 0.45271 0.02264 0.0
C1918 C 0.04898 0.52978 0.9654 0.0
C1919 C 0.06412 0.5266 0.98789 0.0
C1920 C 0.0246 0.51766 0.97105 0.0
C1921 C 0.01479 0.50219 0.99947 0.0
C1922 C 0.02999 0.49919 0.02211 0.0
C1923 C 0.05434 0.51115 0.01629 0.0
H1924 H 0.55696 0.52074 0.95581 0.0
H1925 H 0.49022 0.45472 0.94654 0.0
H1926 H 0.53616 0.54273 0.96309 0.0
H1927 H 0.46933 0.47641 0.95557 0.0
H1928 H 0.43463 0.51952 0.96991 0.0
H1929 H 0.45741 0.50405 0.94097 0.0
H1930 H 0.51609 0.54641 0.01124 0.0
H1931 H 0.49377 0.56245 0.03895 0.0
C1932 C 0.53781 0.51099 0.95473 0.0
C1933 C 0.5252 0.486 0.9511 0.0
C1934 C 0.52587 0.52355 0.9592 0.0
C1935 C 0.50103 0.51134 0.96088 0.0
C1936 C 0.48843 0.48652 0.95429 0.0
C1937 C 0.50042 0.474 0.94918 0.0
C1938 C 0.45258 0.52585 0.97867 0.0
C1939 C 0.46229 0.542 0.00702 0.0
C1940 C 0.4656 0.51688 0.9622 0.0
C1941 C 0.48854 0.52373 0.9739 0.0
C1942 C 0.49864 0.5409 0.00103 0.0
C1943 C 0.48573 0.55002 0.01723 0.0
loop_
_geom_bond_atom_site_label_1
_geom_bond_atom_site_label_2
_geom_bond_distance
_geom_bond_site_symmetry_2
_ccdc_geom_bond_type
Mg0 O1 2.028 . S
Mg0 O7 1.986 . S
Mg0 O9 2.114 . S
Mg0 O10 2.251 . S
Mg0 O13 2.010 . S
O1 Mg0 2.028 . S
O1 C4 1.250 . S
O2 Mg3 2.028 . S
O2 C4 1.248 . S
Mg3 O2 2.028 . S
Mg3 O8 2.032 . S
Mg3 O10 2.079 . S
C4 O1 1.250 . S
C4 O2 1.248 . S
C5 O6 1.264 . S
C5 O13 1.249 . S
O6 C5 1.264 . S
O7 Mg0 1.986 . S
O7 C11 1.246 . S
O8 Mg3 2.032 . S
O8 C11 1.259 . S
O9 Mg0 2.114 . S
O9 C12 1.252 . S
O10 Mg0 2.251 . S
O10 Mg3 2.079 . S
O10 C12 1.273 . S
C11 O7 1.246 . S
C11 O8 1.259 . S
C12 O9 1.252 . S
C12 O10 1.273 . S
O13 Mg0 2.010 . S
O13 C5 1.249 . S
Mg14 O15 2.028 . S
Mg14 O21 1.986 . S
Mg14 O23 2.114 . S
Mg14 O24 2.251 . S
Mg14 O27 2.010 . S
O15 Mg14 2.028 . S
O15 C18 1.250 . S
O16 Mg17 2.028 . S
O16 C18 1.248 . S
Mg17 O16 2.028 . S
Mg17 O22 2.032 . S
Mg17 O24 2.079 . S
C18 O15 1.250 . S
C18 O16 1.248 . S
C19 O20 1.264 . S
C19 O27 1.249 . S
O20 C19 1.264 . S
O21 Mg14 1.986 . S
O21 C25 1.246 . S
O22 Mg17 2.032 . S
O22 C25 1.259 . S
O23 Mg14 2.114 . S
O23 C26 1.252 . S
O24 Mg14 2.251 . S
O24 Mg17 2.079 . S
O24 C26 1.273 . S
C25 O21 1.246 . S
C25 O22 1.259 . S
C26 O23 1.252 . S
C26 O24 1.273 . S
O27 Mg14 2.010 . S
O27 C19 1.249 . S
Mg28 O29 2.028 . S
Mg28 O35 1.986 . S
Mg28 O37 2.114 . S
Mg28 O38 2.251 . S
Mg28 O41 2.010 . S
O29 Mg28 2.028 . S
O29 C32 1.250 . S
O30 Mg31 2.028 . S
O30 C32 1.248 . S
Mg31 O30 2.028 . S
Mg31 O36 2.032 . S
Mg31 O38 2.079 . S
C32 O29 1.250 . S
C32 O30 1.248 . S
C33 O34 1.264 . S
C33 O41 1.249 . S
O34 C33 1.264 . S
O35 Mg28 1.986 . S
O35 C39 1.246 . S
O36 Mg31 2.032 . S
O36 C39 1.259 . S
O37 Mg28 2.114 . S
O37 C40 1.252 . S
O38 Mg28 2.251 . S
O38 Mg31 2.079 . S
O38 C40 1.273 . S
C39 O35 1.246 . S
C39 O36 1.259 . S
C40 O37 1.252 . S
C40 O38 1.273 . S
O41 Mg28 2.010 . S
O41 C33 1.249 . S
Mg42 O43 2.028 . S
Mg42 O49 1.986 . S
Mg42 O51 2.114 . S
Mg42 O52 2.251 . S
Mg42 O55 2.010 . S
O43 Mg42 2.028 . S
O43 C46 1.250 . S
O44 Mg45 2.028 . S
O44 C46 1.248 . S
Mg45 O44 2.028 . S
Mg45 O50 2.032 . S
Mg45 O52 2.079 . S
C46 O43 1.250 . S
C46 O44 1.248 . S
C47 O48 1.264 . S
C47 O55 1.249 . S
O48 C47 1.264 . S
O49 Mg42 1.986 . S
O49 C53 1.246 . S
O50 Mg45 2.032 . S
O50 C53 1.259 . S
O51 Mg42 2.114 . S
O51 C54 1.252 . S
O52 Mg42 2.251 . S
O52 Mg45 2.079 . S
O52 C54 1.273 . S
C53 O49 1.246 . S
C53 O50 1.259 . S
C54 O51 1.252 . S
C54 O52 1.273 . S
O55 Mg42 2.010 . S
O55 C47 1.249 . S
Mg56 O57 2.028 . S
Mg56 O63 1.986 . S
Mg56 O65 2.114 . S
Mg56 O66 2.251 . S
Mg56 O69 2.010 . S
O57 Mg56 2.028 . S
O57 C60 1.250 . S
O58 Mg59 2.028 . S
O58 C60 1.248 . S
Mg59 O58 2.028 . S
Mg59 O64 2.032 . S
Mg59 O66 2.079 . S
C60 O57 1.250 . S
C60 O58 1.248 . S
C61 O62 1.264 . S
C61 O69 1.249 . S
O62 C61 1.264 . S
O63 Mg56 1.986 . S
O63 C67 1.246 . S
O64 Mg59 2.032 . S
O64 C67 1.259 . S
O65 Mg56 2.114 . S
O65 C68 1.252 . S
O66 Mg56 2.251 . S
O66 Mg59 2.079 . S
O66 C68 1.273 . S
C67 O63 1.246 . S
C67 O64 1.259 . S
C68 O65 1.252 . S
C68 O66 1.273 . S
O69 Mg56 2.010 . S
O69 C61 1.249 . S
Mg70 O71 2.028 . S
Mg70 O77 1.986 . S
Mg70 O79 2.114 . S
Mg70 O80 2.251 . S
Mg70 O83 2.010 . S
O71 Mg70 2.028 . S
O71 C74 1.250 . S
O72 Mg73 2.028 . S
O72 C74 1.248 . S
Mg73 O72 2.028 . S
Mg73 O78 2.032 . S
Mg73 O80 2.079 . S
C74 O71 1.250 . S
C74 O72 1.248 . S
C75 O76 1.264 . S
C75 O83 1.249 . S
O76 C75 1.264 . S
O77 Mg70 1.986 . S
O77 C81 1.246 . S
O78 Mg73 2.032 . S
O78 C81 1.259 . S
O79 Mg70 2.114 . S
O79 C82 1.252 . S
O80 Mg70 2.251 . S
O80 Mg73 2.079 . S
O80 C82 1.273 . S
C81 O77 1.246 . S
C81 O78 1.259 . S
C82 O79 1.252 . S
C82 O80 1.273 . S
O83 Mg70 2.010 . S
O83 C75 1.249 . S
Mg84 O85 2.028 . S
Mg84 O91 1.986 . S
Mg84 O93 2.114 . S
Mg84 O94 2.251 . S
Mg84 O97 2.010 . S
O85 Mg84 2.028 . S
O85 C88 1.250 . S
O86 Mg87 2.028 . S
O86 C88 1.248 . S
Mg87 O86 2.028 . S
Mg87 O92 2.032 . S
Mg87 O94 2.079 . S
C88 O85 1.250 . S
C88 O86 1.248 . S
C89 O90 1.264 . S
C89 O97 1.249 . S
O90 C89 1.264 . S
O91 Mg84 1.986 . S
O91 C95 1.246 . S
O92 Mg87 2.032 . S
O92 C95 1.259 . S
O93 Mg84 2.114 . S
O93 C96 1.252 . S
O94 Mg84 2.251 . S
O94 Mg87 2.079 . S
O94 C96 1.273 . S
C95 O91 1.246 . S
C95 O92 1.259 . S
C96 O93 1.252 . S
C96 O94 1.273 . S
O97 Mg84 2.010 . S
O97 C89 1.249 . S
Mg98 O99 2.028 . S
Mg98 O105 1.986 . S
Mg98 O107 2.114 . S
Mg98 O108 2.251 . S
Mg98 O111 2.010 . S
O99 Mg98 2.028 . S
O99 C102 1.250 . S
O100 Mg101 2.028 . S
O100 C102 1.248 . S
Mg101 O100 2.028 . S
Mg101 O106 2.032 . S
Mg101 O108 2.079 . S
C102 O99 1.250 . S
C102 O100 1.248 . S
C103 O104 1.264 . S
C103 O111 1.249 . S
O104 C103 1.264 . S
O105 Mg98 1.986 . S
O105 C109 1.246 . S
O106 Mg101 2.032 . S
O106 C109 1.259 . S
O107 Mg98 2.114 . S
O107 C110 1.252 . S
O108 Mg98 2.251 . S
O108 Mg101 2.079 . S
O108 C110 1.273 . S
C109 O105 1.246 . S
C109 O106 1.259 . S
C110 O107 1.252 . S
C110 O108 1.273 . S
O111 Mg98 2.010 . S
O111 C103 1.249 . S
Mg112 O113 2.028 . S
Mg112 O119 1.986 . S
Mg112 O121 2.114 . S
Mg112 O122 2.251 . S
Mg112 O125 2.010 . S
O113 Mg112 2.028 . S
O113 C116 1.250 . S
O114 Mg115 2.028 . S
O114 C116 1.248 . S
Mg115 O114 2.028 . S
Mg115 O120 2.032 . S
Mg115 O122 2.079 . S
C116 O113 1.250 . S
C116 O114 1.248 . S
C117 O118 1.264 . S
C117 O125 1.249 . S
O118 C117 1.264 . S
O119 Mg112 1.986 . S
O119 C123 1.246 . S
O120 Mg115 2.032 . S
O120 C123 1.259 . S
O121 Mg112 2.114 . S
O121 C124 1.252 . S
O122 Mg112 2.251 . S
O122 Mg115 2.079 . S
O122 C124 1.273 . S
C123 O119 1.246 . S
C123 O120 1.259 . S
C124 O121 1.252 . S
C124 O122 1.273 . S
O125 Mg112 2.010 . S
O125 C117 1.249 . S
Mg126 O127 2.028 . S
Mg126 O133 1.986 . S
Mg126 O135 2.114 . S
Mg126 O136 2.251 . S
Mg126 O139 2.010 . S
O127 Mg126 2.028 . S
O127 C130 1.250 . S
O128 Mg129 2.028 . S
O128 C130 1.248 . S
Mg129 O128 2.028 . S
Mg129 O134 2.032 . S
Mg129 O136 2.079 . S
C130 O127 1.250 . S
C130 O128 1.248 . S
C131 O132 1.264 . S
C131 O139 1.249 . S
O132 C131 1.264 . S
O133 Mg126 1.986 . S
O133 C137 1.246 . S
O134 Mg129 2.032 . S
O134 C137 1.259 . S
O135 Mg126 2.114 . S
O135 C138 1.252 . S
O136 Mg126 2.251 . S
O136 Mg129 2.079 . S
O136 C138 1.273 . S
C137 O133 1.246 . S
C137 O134 1.259 . S
C138 O135 1.252 . S
C138 O136 1.273 . S
O139 Mg126 2.010 . S
O139 C131 1.249 . S
Mg140 O141 2.028 . S
Mg140 O147 1.986 . S
Mg140 O149 2.114 . S
Mg140 O150 2.251 . S
Mg140 O153 2.010 . S
O141 Mg140 2.028 . S
O141 C144 1.250 . S
O142 Mg143 2.028 . S
O142 C144 1.248 . S
Mg143 O142 2.028 . S
Mg143 O148 2.032 . S
Mg143 O150 2.079 . S
C144 O141 1.250 . S
C144 O142 1.248 . S
C145 O146 1.264 . S
C145 O153 1.249 . S
O146 C145 1.264 . S
O147 Mg140 1.986 . S
O147 C151 1.246 . S
O148 Mg143 2.032 . S
O148 C151 1.259 . S
O149 Mg140 2.114 . S
O149 C152 1.252 . S
O150 Mg140 2.251 . S
O150 Mg143 2.079 . S
O150 C152 1.273 . S
C151 O147 1.246 . S
C151 O148 1.259 . S
C152 O149 1.252 . S
C152 O150 1.273 . S
O153 Mg140 2.010 . S
O153 C145 1.249 . S
Mg154 O155 2.028 . S
Mg154 O161 1.986 . S
Mg154 O163 2.114 . S
Mg154 O164 2.251 . S
Mg154 O167 2.010 . S
O155 Mg154 2.028 . S
O155 C158 1.250 . S
O156 Mg157 2.028 . S
O156 C158 1.248 . S
Mg157 O156 2.028 . S
Mg157 O162 2.032 . S
Mg157 O164 2.079 . S
C158 O155 1.250 . S
C158 O156 1.248 . S
C159 O160 1.264 . S
C159 O167 1.249 . S
O160 C159 1.264 . S
O161 Mg154 1.986 . S
O161 C165 1.246 . S
O162 Mg157 2.032 . S
O162 C165 1.259 . S
O163 Mg154 2.114 . S
O163 C166 1.252 . S
O164 Mg154 2.251 . S
O164 Mg157 2.079 . S
O164 C166 1.273 . S
C165 O161 1.246 . S
C165 O162 1.259 . S
C166 O163 1.252 . S
C166 O164 1.273 . S
O167 Mg154 2.010 . S
O167 C159 1.249 . S
Mg168 O169 2.028 . S
Mg168 O175 1.986 . S
Mg168 O177 2.114 . S
Mg168 O178 2.251 . S
Mg168 O181 2.010 . S
O169 Mg168 2.028 . S
O169 C172 1.250 . S
O170 Mg171 2.028 . S
O170 C172 1.248 . S
Mg171 O170 2.028 . S
Mg171 O176 2.032 . S
Mg171 O178 2.079 . S
C172 O169 1.250 . S
C172 O170 1.248 . S
C173 O174 1.264 . S
C173 O181 1.249 . S
O174 C173 1.264 . S
O175 Mg168 1.986 . S
O175 C179 1.246 . S
O176 Mg171 2.032 . S
O176 C179 1.259 . S
O177 Mg168 2.114 . S
O177 C180 1.252 . S
O178 Mg168 2.251 . S
O178 Mg171 2.079 . S
O178 C180 1.273 . S
C179 O175 1.246 . S
C179 O176 1.259 . S
C180 O177 1.252 . S
C180 O178 1.273 . S
O181 Mg168 2.010 . S
O181 C173 1.249 . S
Mg182 O183 2.028 . S
Mg182 O189 1.986 . S
Mg182 O191 2.114 . S
Mg182 O192 2.251 . S
Mg182 O195 2.010 . S
O183 Mg182 2.028 . S
O183 C186 1.250 . S
O184 Mg185 2.028 . S
O184 C186 1.248 . S
Mg185 O184 2.028 . S
Mg185 O190 2.032 . S
Mg185 O192 2.079 . S
C186 O183 1.250 . S
C186 O184 1.248 . S
C187 O188 1.264 . S
C187 O195 1.249 . S
O188 C187 1.264 . S
O189 Mg182 1.986 . S
O189 C193 1.246 . S
O190 Mg185 2.032 . S
O190 C193 1.259 . S
O191 Mg182 2.114 . S
O191 C194 1.252 . S
O192 Mg182 2.251 . S
O192 Mg185 2.079 . S
O192 C194 1.273 . S
C193 O189 1.246 . S
C193 O190 1.259 . S
C194 O191 1.252 . S
C194 O192 1.273 . S
O195 Mg182 2.010 . S
O195 C187 1.249 . S
Mg196 O197 2.028 . S
Mg196 O203 1.986 . S
Mg196 O205 2.114 . S
Mg196 O206 2.251 . S
Mg196 O209 2.010 . S
O197 Mg196 2.028 . S
O197 C200 1.250 . S
O198 Mg199 2.028 . S
O198 C200 1.248 . S
Mg199 O198 2.028 . S
Mg199 O204 2.032 . S
Mg199 O206 2.079 . S
C200 O197 1.250 . S
C200 O198 1.248 . S
C201 O202 1.264 . S
C201 O209 1.249 . S
O202 C201 1.264 . S
O203 Mg196 1.986 . S
O203 C207 1.246 . S
O204 Mg199 2.032 . S
O204 C207 1.259 . S
O205 Mg196 2.114 . S
O205 C208 1.252 . S
O206 Mg196 2.251 . S
O206 Mg199 2.079 . S
O206 C208 1.273 . S
C207 O203 1.246 . S
C207 O204 1.259 . S
C208 O205 1.252 . S
C208 O206 1.273 . S
O209 Mg196 2.010 . S
O209 C201 1.249 . S
Mg210 O211 2.028 . S
Mg210 O217 1.986 . S
Mg210 O219 2.114 . S
Mg210 O220 2.251 . S
Mg210 O223 2.010 . S
O211 Mg210 2.028 . S
O211 C214 1.250 . S
O212 Mg213 2.028 . S
O212 C214 1.248 . S
Mg213 O212 2.028 . S
Mg213 O218 2.032 . S
Mg213 O220 2.079 . S
C214 O211 1.250 . S
C214 O212 1.248 . S
C215 O216 1.264 . S
C215 O223 1.249 . S
O216 C215 1.264 . S
O217 Mg210 1.986 . S
O217 C221 1.246 . S
O218 Mg213 2.032 . S
O218 C221 1.259 . S
O219 Mg210 2.114 . S
O219 C222 1.252 . S
O220 Mg210 2.251 . S
O220 Mg213 2.079 . S
O220 C222 1.273 . S
C221 O217 1.246 . S
C221 O218 1.259 . S
C222 O219 1.252 . S
C222 O220 1.273 . S
O223 Mg210 2.010 . S
O223 C215 1.249 . S
Mg224 O225 2.028 . S
Mg224 O231 1.986 . S
Mg224 O233 2.114 . S
Mg224 O234 2.251 . S
Mg224 O237 2.010 . S
O225 Mg224 2.028 . S
O225 C228 1.250 . S
O226 Mg227 2.028 . S
O226 C228 1.248 . S
Mg227 O226 2.028 . S
Mg227 O232 2.032 . S
Mg227 O234 2.079 . S
C228 O225 1.250 . S
C228 O226 1.248 . S
C229 O230 1.264 . S
C229 O237 1.249 . S
O230 C229 1.264 . S
O231 Mg224 1.986 . S
O231 C235 1.246 . S
O232 Mg227 2.032 . S
O232 C235 1.259 . S
O233 Mg224 2.114 . S
O233 C236 1.252 . S
O234 Mg224 2.251 . S
O234 Mg227 2.079 . S
O234 C236 1.273 . S
C235 O231 1.246 . S
C235 O232 1.259 . S
C236 O233 1.252 . S
C236 O234 1.273 . S
O237 Mg224 2.010 . S
O237 C229 1.249 . S
Mg238 O239 2.028 . S
Mg238 O245 1.986 . S
Mg238 O247 2.114 . S
Mg238 O248 2.251 . S
Mg238 O251 2.010 . S
O239 Mg238 2.028 . S
O239 C242 1.250 . S
O240 Mg241 2.028 . S
O240 C242 1.248 . S
Mg241 O240 2.028 . S
Mg241 O246 2.032 . S
Mg241 O248 2.079 . S
C242 O239 1.250 . S
C242 O240 1.248 . S
C243 O244 1.264 . S
C243 O251 1.249 . S
O244 C243 1.264 . S
O245 Mg238 1.986 . S
O245 C249 1.246 . S
O246 Mg241 2.032 . S
O246 C249 1.259 . S
O247 Mg238 2.114 . S
O247 C250 1.252 . S
O248 Mg238 2.251 . S
O248 Mg241 2.079 . S
O248 C250 1.273 . S
C249 O245 1.246 . S
C249 O246 1.259 . S
C250 O247 1.252 . S
C250 O248 1.273 . S
O251 Mg238 2.010 . S
O251 C243 1.249 . S
Mg252 O253 2.028 . S
Mg252 O259 1.986 . S
Mg252 O261 2.114 . S
Mg252 O262 2.251 . S
Mg252 O265 2.010 . S
O253 Mg252 2.028 . S
O253 C256 1.250 . S
O254 Mg255 2.028 . S
O254 C256 1.248 . S
Mg255 O254 2.028 . S
Mg255 O260 2.032 . S
Mg255 O262 2.079 . S
C256 O253 1.250 . S
C256 O254 1.248 . S
C257 O258 1.264 . S
C257 O265 1.249 . S
O258 C257 1.264 . S
O259 Mg252 1.986 . S
O259 C263 1.246 . S
O260 Mg255 2.032 . S
O260 C263 1.259 . S
O261 Mg252 2.114 . S
O261 C264 1.252 . S
O262 Mg252 2.251 . S
O262 Mg255 2.079 . S
O262 C264 1.273 . S
C263 O259 1.246 . S
C263 O260 1.259 . S
C264 O261 1.252 . S
C264 O262 1.273 . S
O265 Mg252 2.010 . S
O265 C257 1.249 . S
Mg266 O267 2.028 . S
Mg266 O273 1.986 . S
Mg266 O275 2.114 . S
Mg266 O276 2.251 . S
Mg266 O279 2.010 . S
O267 Mg266 2.028 . S
O267 C270 1.250 . S
O268 Mg269 2.028 . S
O268 C270 1.248 . S
Mg269 O268 2.028 . S
Mg269 O274 2.032 . S
Mg269 O276 2.079 . S
C270 O267 1.250 . S
C270 O268 1.248 . S
C271 O272 1.264 . S
C271 O279 1.249 . S
O272 C271 1.264 . S
O273 Mg266 1.986 . S
O273 C277 1.246 . S
O274 Mg269 2.032 . S
O274 C277 1.259 . S
O275 Mg266 2.114 . S
O275 C278 1.252 . S
O276 Mg266 2.251 . S
O276 Mg269 2.079 . S
O276 C278 1.273 . S
C277 O273 1.246 . S
C277 O274 1.259 . S
C278 O275 1.252 . S
C278 O276 1.273 . S
O279 Mg266 2.010 . S
O279 C271 1.249 . S
Mg280 O281 2.028 . S
Mg280 O287 1.986 . S
Mg280 O289 2.114 . S
Mg280 O290 2.251 . S
Mg280 O293 2.010 . S
O281 Mg280 2.028 . S
O281 C284 1.250 . S
O282 Mg283 2.028 . S
O282 C284 1.248 . S
Mg283 O282 2.028 . S
Mg283 O288 2.032 . S
Mg283 O290 2.079 . S
C284 O281 1.250 . S
C284 O282 1.248 . S
C285 O286 1.264 . S
C285 O293 1.249 . S
O286 C285 1.264 . S
O287 Mg280 1.986 . S
O287 C291 1.246 . S
O288 Mg283 2.032 . S
O288 C291 1.259 . S
O289 Mg280 2.114 . S
O289 C292 1.252 . S
O290 Mg280 2.251 . S
O290 Mg283 2.079 . S
O290 C292 1.273 . S
C291 O287 1.246 . S
C291 O288 1.259 . S
C292 O289 1.252 . S
C292 O290 1.273 . S
O293 Mg280 2.010 . S
O293 C285 1.249 . S
Mg294 O295 2.028 . S
Mg294 O301 1.986 . S
Mg294 O303 2.114 . S
Mg294 O304 2.251 1_556 S
Mg294 O307 2.010 . S
O295 Mg294 2.028 . S
O295 C298 1.250 . S
O296 Mg297 2.028 . S
O296 C298 1.248 . S
Mg297 O296 2.028 . S
Mg297 O302 2.032 . S
Mg297 O304 2.079 1_556 S
C298 O295 1.250 . S
C298 O296 1.248 . S
C299 O300 1.264 . S
C299 O307 1.249 . S
O300 C299 1.264 . S
O301 Mg294 1.986 . S
O301 C305 1.246 . S
O302 Mg297 2.032 . S
O302 C305 1.259 . S
O303 Mg294 2.114 . S
O303 C306 1.252 1_556 S
O304 Mg294 2.251 1_554 S
O304 Mg297 2.079 1_554 S
O304 C306 1.273 . S
C305 O301 1.246 . S
C305 O302 1.259 . S
C306 O303 1.252 1_554 S
C306 O304 1.273 . S
O307 Mg294 2.010 . S
O307 C299 1.249 . S
Mg308 O309 2.028 . S
Mg308 O315 1.986 . S
Mg308 O317 2.114 . S
Mg308 O318 2.251 . S
Mg308 O321 2.010 . S
O309 Mg308 2.028 . S
O309 C312 1.250 . S
O310 Mg311 2.028 . S
O310 C312 1.248 . S
Mg311 O310 2.028 . S
Mg311 O316 2.032 . S
Mg311 O318 2.079 . S
C312 O309 1.250 . S
C312 O310 1.248 . S
C313 O314 1.264 . S
C313 O321 1.249 . S
O314 C313 1.264 . S
O315 Mg308 1.986 . S
O315 C319 1.246 . S
O316 Mg311 2.032 . S
O316 C319 1.259 . S
O317 Mg308 2.114 . S
O317 C320 1.252 1_556 S
O318 Mg308 2.251 . S
O318 Mg311 2.079 . S
O318 C320 1.273 1_556 S
C319 O315 1.246 . S
C319 O316 1.259 . S
C320 O317 1.252 1_554 S
C320 O318 1.273 1_554 S
O321 Mg308 2.010 . S
O321 C313 1.249 . S
Mg322 O323 2.028 . S
Mg322 O329 1.986 . S
Mg322 O331 2.114 . S
Mg322 O332 2.251 . S
Mg322 O335 2.010 . S
O323 Mg322 2.028 . S
O323 C326 1.250 . S
O324 Mg325 2.028 . S
O324 C326 1.248 . S
Mg325 O324 2.028 . S
Mg325 O330 2.032 . S
Mg325 O332 2.079 . S
C326 O323 1.250 . S
C326 O324 1.248 . S
C327 O328 1.264 . S
C327 O335 1.249 . S
O328 C327 1.264 . S
O329 Mg322 1.986 . S
O329 C333 1.246 . S
O330 Mg325 2.032 . S
O330 C333 1.259 . S
O331 Mg322 2.114 . S
O331 C334 1.256 . S
O332 Mg322 2.251 . S
O332 Mg325 2.079 . S
O332 C334 1.275 . S
C333 O329 1.246 . S
C333 O330 1.259 . S
C334 O331 1.256 . S
C334 O332 1.275 . S
O335 Mg322 2.010 . S
O335 C327 1.249 . S
Mg336 O337 2.028 . S
Mg336 O343 1.986 . S
Mg336 O345 2.114 . S
Mg336 O346 2.251 . S
Mg336 O349 2.010 . S
O337 Mg336 2.028 . S
O337 C340 1.250 . S
O338 Mg339 2.028 . S
O338 C340 1.248 . S
Mg339 O338 2.028 . S
Mg339 O344 2.032 . S
Mg339 O346 2.079 . S
C340 O337 1.250 . S
C340 O338 1.248 . S
C341 O342 1.264 . S
C341 O349 1.249 . S
O342 C341 1.264 . S
O343 Mg336 1.986 . S
O343 C347 1.246 . S
O344 Mg339 2.032 . S
O344 C347 1.259 . S
O345 Mg336 2.114 . S
O345 C348 1.252 . S
O346 Mg336 2.251 . S
O346 Mg339 2.079 . S
O346 C348 1.273 . S
C347 O343 1.246 . S
C347 O344 1.259 . S
C348 O345 1.252 . S
C348 O346 1.273 . S
O349 Mg336 2.010 . S
O349 C341 1.249 . S
Mg350 O351 2.028 . S
Mg350 O357 1.986 . S
Mg350 O359 2.114 . S
Mg350 O360 2.251 . S
Mg350 O363 2.010 . S
O351 Mg350 2.028 . S
O351 C354 1.250 . S
O352 Mg353 2.028 . S
O352 C354 1.248 . S
Mg353 O352 2.028 . S
Mg353 O358 2.032 . S
Mg353 O360 2.079 . S
C354 O351 1.250 . S
C354 O352 1.248 . S
C355 O356 1.264 . S
C355 O363 1.249 . S
O356 C355 1.264 . S
O357 Mg350 1.986 . S
O357 C361 1.246 . S
O358 Mg353 2.032 . S
O358 C361 1.259 . S
O359 Mg350 2.114 . S
O359 C362 1.252 . S
O360 Mg350 2.251 . S
O360 Mg353 2.079 . S
O360 C362 1.273 . S
C361 O357 1.246 . S
C361 O358 1.259 . S
C362 O359 1.252 . S
C362 O360 1.273 . S
O363 Mg350 2.010 . S
O363 C355 1.249 . S
Mg364 O365 2.028 . S
Mg364 O371 1.986 . S
Mg364 O373 2.114 . S
Mg364 O374 2.251 . S
Mg364 O377 2.010 . S
O365 Mg364 2.028 . S
O365 C368 1.250 . S
O366 Mg367 2.028 . S
O366 C368 1.248 . S
Mg367 O366 2.028 . S
Mg367 O372 2.032 . S
Mg367 O374 2.079 . S
C368 O365 1.250 . S
C368 O366 1.248 . S
C369 O370 1.264 . S
C369 O377 1.249 . S
O370 C369 1.264 . S
O371 Mg364 1.986 . S
O371 C375 1.246 . S
O372 Mg367 2.032 . S
O372 C375 1.259 . S
O373 Mg364 2.114 . S
O373 C376 1.252 . S
O374 Mg364 2.251 . S
O374 Mg367 2.079 . S
O374 C376 1.273 . S
C375 O371 1.246 . S
C375 O372 1.259 . S
C376 O373 1.252 . S
C376 O374 1.273 . S
O377 Mg364 2.010 . S
O377 C369 1.249 . S
Mg378 O379 2.028 . S
Mg378 O385 1.986 . S
Mg378 O387 2.107 1_554 S
Mg378 O388 2.251 1_554 S
Mg378 O391 2.010 . S
O379 Mg378 2.028 . S
O379 C382 1.250 . S
O380 Mg381 2.028 . S
O380 C382 1.248 . S
Mg381 O380 2.028 . S
Mg381 O386 2.032 . S
Mg381 O388 2.079 1_554 S
C382 O379 1.250 . S
C382 O380 1.248 . S
C383 O384 1.264 . S
C383 O391 1.249 . S
O384 C383 1.264 . S
O385 Mg378 1.986 . S
O385 C389 1.246 . S
O386 Mg381 2.032 . S
O386 C389 1.259 . S
O387 Mg378 2.107 1_556 S
O387 C390 1.259 . S
O388 Mg378 2.251 1_556 S
O388 Mg381 2.079 1_556 S
O388 C390 1.273 . S
C389 O385 1.246 . S
C389 O386 1.259 . S
C390 O387 1.259 . S
C390 O388 1.273 . S
O391 Mg378 2.010 . S
O391 C383 1.249 . S
Mg392 O393 2.028 . S
Mg392 O399 1.986 . S
Mg392 O401 2.114 . S
Mg392 O402 2.251 1_554 S
Mg392 O405 2.010 . S
O393 Mg392 2.028 . S
O393 C396 1.250 . S
O394 Mg395 2.028 . S
O394 C396 1.248 . S
Mg395 O394 2.028 . S
Mg395 O400 2.032 . S
Mg395 O402 2.079 1_554 S
C396 O393 1.250 . S
C396 O394 1.248 . S
C397 O398 1.264 . S
C397 O405 1.249 . S
O398 C397 1.264 . S
O399 Mg392 1.986 . S
O399 C403 1.246 . S
O400 Mg395 2.032 . S
O400 C403 1.259 . S
O401 Mg392 2.114 . S
O401 C404 1.252 1_554 S
O402 Mg392 2.251 1_556 S
O402 Mg395 2.079 1_556 S
O402 C404 1.273 . S
C403 O399 1.246 . S
C403 O400 1.259 . S
C404 O401 1.252 1_556 S
C404 O402 1.273 . S
O405 Mg392 2.010 . S
O405 C397 1.249 . S
Mg406 O407 2.028 . S
Mg406 O413 1.986 . S
Mg406 O415 2.114 . S
Mg406 O416 2.251 . S
Mg406 O419 2.010 . S
O407 Mg406 2.028 . S
O407 C410 1.250 . S
O408 Mg409 2.028 . S
O408 C410 1.248 . S
Mg409 O408 2.028 . S
Mg409 O414 2.032 . S
Mg409 O416 2.079 . S
C410 O407 1.250 . S
C410 O408 1.248 . S
C411 O412 1.264 . S
C411 O419 1.249 . S
O412 C411 1.264 . S
O413 Mg406 1.986 . S
O413 C417 1.246 . S
O414 Mg409 2.032 . S
O414 C417 1.259 . S
O415 Mg406 2.114 . S
O415 C418 1.252 . S
O416 Mg406 2.251 . S
O416 Mg409 2.079 . S
O416 C418 1.273 . S
C417 O413 1.246 . S
C417 O414 1.259 . S
C418 O415 1.252 . S
C418 O416 1.273 . S
O419 Mg406 2.010 . S
O419 C411 1.249 . S
Mg420 O421 2.028 . S
Mg420 O427 1.986 . S
Mg420 O429 2.114 . S
Mg420 O430 2.251 . S
Mg420 O433 2.010 . S
O421 Mg420 2.028 . S
O421 C424 1.250 . S
O422 Mg423 2.028 . S
O422 C424 1.248 . S
Mg423 O422 2.028 . S
Mg423 O428 2.032 . S
Mg423 O430 2.079 . S
C424 O421 1.250 . S
C424 O422 1.248 . S
C425 O426 1.264 . S
C425 O433 1.249 . S
O426 C425 1.264 . S
O427 Mg420 1.986 . S
O427 C431 1.246 . S
O428 Mg423 2.032 . S
O428 C431 1.259 . S
O429 Mg420 2.114 . S
O429 C432 1.252 . S
O430 Mg420 2.251 . S
O430 Mg423 2.079 . S
O430 C432 1.273 . S
C431 O427 1.246 . S
C431 O428 1.259 . S
C432 O429 1.252 . S
C432 O430 1.273 . S
O433 Mg420 2.010 . S
O433 C425 1.249 . S
Mg434 O435 2.028 . S
Mg434 O441 1.986 . S
Mg434 O443 2.114 . S
Mg434 O444 2.251 . S
Mg434 O447 2.010 . S
O435 Mg434 2.028 . S
O435 C438 1.250 . S
O436 Mg437 2.028 . S
O436 C438 1.248 . S
Mg437 O436 2.028 . S
Mg437 O442 2.032 . S
Mg437 O444 2.079 . S
C438 O435 1.250 . S
C438 O436 1.248 . S
C439 O440 1.264 . S
C439 O447 1.249 . S
O440 C439 1.264 . S
O441 Mg434 1.986 . S
O441 C445 1.246 . S
O442 Mg437 2.032 . S
O442 C445 1.259 . S
O443 Mg434 2.114 . S
O443 C446 1.252 . S
O444 Mg434 2.251 . S
O444 Mg437 2.079 . S
O444 C446 1.273 . S
C445 O441 1.246 . S
C445 O442 1.259 . S
C446 O443 1.252 . S
C446 O444 1.273 . S
O447 Mg434 2.010 . S
O447 C439 1.249 . S
Mg448 O449 2.028 . S
Mg448 O455 1.986 . S
Mg448 O457 2.114 . S
Mg448 O458 2.251 . S
Mg448 O461 2.010 . S
O449 Mg448 2.028 . S
O449 C452 1.250 . S
O450 Mg451 2.028 . S
O450 C452 1.248 . S
Mg451 O450 2.028 . S
Mg451 O456 2.032 . S
Mg451 O458 2.079 . S
C452 O449 1.250 . S
C452 O450 1.248 . S
C453 O454 1.264 . S
C453 O461 1.249 . S
O454 C453 1.264 . S
O455 Mg448 1.986 . S
O455 C459 1.246 . S
O456 Mg451 2.032 . S
O456 C459 1.259 . S
O457 Mg448 2.114 . S
O457 C460 1.252 . S
O458 Mg448 2.251 . S
O458 Mg451 2.079 . S
O458 C460 1.273 . S
C459 O455 1.246 . S
C459 O456 1.259 . S
C460 O457 1.252 . S
C460 O458 1.273 . S
O461 Mg448 2.010 . S
O461 C453 1.249 . S
Mg462 O463 2.028 . S
Mg462 O469 1.986 . S
Mg462 O471 2.114 . S
Mg462 O472 2.251 . S
Mg462 O475 2.010 . S
O463 Mg462 2.028 . S
O463 C466 1.250 . S
O464 Mg465 2.028 . S
O464 C466 1.248 . S
Mg465 O464 2.028 . S
Mg465 O470 2.032 . S
Mg465 O472 2.079 . S
C466 O463 1.250 . S
C466 O464 1.248 . S
C467 O468 1.264 . S
C467 O475 1.249 . S
O468 C467 1.264 . S
O469 Mg462 1.986 . S
O469 C473 1.246 . S
O470 Mg465 2.032 . S
O470 C473 1.259 . S
O471 Mg462 2.114 . S
O471 C474 1.252 . S
O472 Mg462 2.251 . S
O472 Mg465 2.079 . S
O472 C474 1.273 . S
C473 O469 1.246 . S
C473 O470 1.259 . S
C474 O471 1.252 . S
C474 O472 1.273 . S
O475 Mg462 2.010 . S
O475 C467 1.249 . S
Mg476 O477 2.028 . S
Mg476 O483 1.986 . S
Mg476 O485 2.114 . S
Mg476 O486 2.251 . S
Mg476 O489 2.010 . S
O477 Mg476 2.028 . S
O477 C480 1.250 . S
O478 Mg479 2.028 . S
O478 C480 1.248 . S
Mg479 O478 2.028 . S
Mg479 O484 2.032 . S
Mg479 O486 2.079 . S
C480 O477 1.250 . S
C480 O478 1.248 . S
C481 O482 1.264 . S
C481 O489 1.249 . S
O482 C481 1.264 . S
O483 Mg476 1.986 . S
O483 C487 1.246 . S
O484 Mg479 2.032 . S
O484 C487 1.259 . S
O485 Mg476 2.114 . S
O485 C488 1.252 . S
O486 Mg476 2.251 . S
O486 Mg479 2.079 . S
O486 C488 1.273 . S
C487 O483 1.246 . S
C487 O484 1.259 . S
C488 O485 1.252 . S
C488 O486 1.273 . S
O489 Mg476 2.010 . S
O489 C481 1.249 . S
Mg490 O491 2.028 . S
Mg490 O497 1.986 . S
Mg490 O499 2.114 . S
Mg490 O500 2.251 . S
Mg490 O503 2.010 . S
O491 Mg490 2.028 . S
O491 C494 1.250 . S
O492 Mg493 2.028 . S
O492 C494 1.248 . S
Mg493 O492 2.028 . S
Mg493 O498 2.032 . S
Mg493 O500 2.079 . S
C494 O491 1.250 . S
C494 O492 1.248 . S
C495 O496 1.264 . S
C495 O503 1.249 . S
O496 C495 1.264 . S
O497 Mg490 1.986 . S
O497 C501 1.246 . S
O498 Mg493 2.032 . S
O498 C501 1.259 . S
O499 Mg490 2.114 . S
O499 C502 1.252 . S
O500 Mg490 2.251 . S
O500 Mg493 2.079 . S
O500 C502 1.273 . S
C501 O497 1.246 . S
C501 O498 1.259 . S
C502 O499 1.252 . S
C502 O500 1.273 . S
O503 Mg490 2.010 . S
O503 C495 1.249 . S
H504 C512 0.950 . S
H505 C517 0.950 . S
H506 C514 0.950 . S
H507 C516 0.950 1_565 S
H508 C518 0.950 . S
H509 C520 0.950 1_554 S
H510 C522 0.950 . S
H511 C523 0.950 . S
C512 H504 0.950 . S
C512 C513 1.386 . S
C512 C514 1.391 . S
C513 C512 1.386 . S
C513 C517 1.393 . S
C514 H506 0.950 . S
C514 C512 1.391 . S
C514 C515 1.400 . S
C515 C514 1.400 . S
C515 C516 1.398 . S
C515 C521 1.469 1_544 S
C516 H507 0.950 1_545 S
C516 C515 1.398 . S
C516 C517 1.391 . S
C517 H505 0.950 . S
C517 C513 1.393 . S
C517 C516 1.391 . S
C518 H508 0.950 . S
C518 C519 1.386 . S
C518 C520 1.391 . S
C519 C518 1.386 . S
C519 C523 1.393 . S
C520 H509 0.950 1_556 S
C520 C518 1.391 . S
C520 C521 1.404 . S
C521 C515 1.469 1_566 S
C521 C520 1.404 . S
C521 C522 1.417 . S
C522 H510 0.950 . S
C522 C521 1.417 . S
C522 C523 1.391 . S
C523 H511 0.950 . S
C523 C519 1.393 . S
C523 C522 1.391 . S
H524 C532 0.950 . S
H525 C537 0.950 . S
H526 C534 0.950 . S
H527 C536 0.950 1_556 S
H528 C538 0.950 . S
H529 C540 0.950 1_655 S
H530 C542 0.950 . S
H531 C543 0.950 . S
C532 H524 0.950 . S
C532 C533 1.386 . S
C532 C534 1.391 1_655 S
C533 C532 1.386 . S
C533 C537 1.393 . S
C534 H526 0.950 . S
C534 C532 1.391 1_455 S
C534 C535 1.404 . S
C535 C534 1.404 . S
C535 C536 1.383 1_455 S
C535 C541 1.503 1_554 S
C536 H527 0.950 1_554 S
C536 C535 1.383 1_655 S
C536 C537 1.391 . S
C537 H525 0.950 . S
C537 C533 1.393 . S
C537 C536 1.391 . S
C538 H528 0.950 . S
C538 C539 1.386 . S
C538 C540 1.391 . S
C539 C538 1.386 . S
C539 C543 1.393 . S
C540 H529 0.950 1_455 S
C540 C538 1.391 . S
C540 C541 1.400 . S
C541 C535 1.503 1_556 S
C541 C540 1.400 . S
C541 C542 1.398 1_556 S
C542 H530 0.950 . S
C542 C541 1.398 1_554 S
C542 C543 1.391 1_554 S
C543 H531 0.950 . S
C543 C539 1.393 . S
C543 C542 1.391 1_556 S
H544 C552 0.950 . S
H545 C557 0.950 . S
H546 C554 0.950 . S
H547 C556 0.950 . S
H548 C558 0.950 . S
H549 C560 0.921 1_556 S
H550 C562 0.950 . S
H551 C563 0.950 . S
C552 H544 0.950 . S
C552 C553 1.386 . S
C552 C554 1.391 1_556 S
C553 C552 1.386 . S
C553 C557 1.393 . S
C554 H546 0.950 . S
C554 C552 1.391 1_554 S
C554 C555 1.400 . S
C555 C554 1.400 . S
C555 C556 1.398 1_554 S
C555 C561 1.491 . S
C556 H547 0.950 . S
C556 C555 1.398 1_556 S
C556 C557 1.391 . S
C557 H545 0.950 . S
C557 C553 1.393 . S
C557 C556 1.391 . S
C558 H548 0.950 . S
C558 C559 1.386 . S
C558 C560 1.391 . S
C559 C558 1.386 . S
C559 C563 1.393 . S
C560 H549 0.921 1_554 S
C560 C558 1.391 . S
C560 C561 1.400 . S
C561 C555 1.491 . S
C561 C560 1.400 . S
C561 C562 1.398 . S
C562 H550 0.950 . S
C562 C561 1.398 . S
C562 C563 1.391 . S
C563 H551 0.950 . S
C563 C559 1.393 . S
C563 C562 1.391 . S
H564 C572 0.950 . S
H565 C577 0.950 . S
H566 C574 0.950 . S
H567 C576 0.950 . S
H568 C578 0.950 . S
H569 C580 0.950 . S
H570 C582 0.950 . S
H571 C583 0.950 . S
C572 H564 0.950 . S
C572 C573 1.386 . S
C572 C574 1.391 . S
C573 C572 1.386 . S
C573 C577 1.393 . S
C574 H566 0.950 . S
C574 C572 1.391 . S
C574 C575 1.400 . S
C575 C574 1.400 . S
C575 C576 1.398 . S
C575 C581 1.510 . S
C576 H567 0.950 . S
C576 C575 1.398 . S
C576 C577 1.391 . S
C577 H565 0.950 . S
C577 C573 1.393 . S
C577 C576 1.391 . S
C578 H568 0.950 . S
C578 C579 1.386 . S
C578 C580 1.391 1_455 S
C579 C578 1.386 . S
C579 C583 1.393 . S
C580 H569 0.950 . S
C580 C578 1.391 1_655 S
C580 C581 1.409 . S
C581 C575 1.510 . S
C581 C580 1.409 . S
C581 C582 1.370 1_655 S
C582 H570 0.950 . S
C582 C581 1.370 1_455 S
C582 C583 1.391 . S
C583 H571 0.950 . S
C583 C579 1.393 . S
C583 C582 1.391 . S
H584 C592 0.950 . S
H585 C597 0.950 . S
H586 C594 0.950 . S
H587 C596 0.950 . S
H588 C598 0.950 . S
H589 C600 0.950 . S
H590 C602 0.950 . S
H591 C603 0.950 . S
C592 H584 0.950 . S
C592 C593 1.386 . S
C592 C594 1.391 . S
C593 C592 1.386 . S
C593 C597 1.393 . S
C594 H586 0.950 . S
C594 C592 1.391 . S
C594 C595 1.400 . S
C595 C594 1.400 . S
C595 C596 1.398 . S
C595 C601 1.491 . S
C596 H587 0.950 . S
C596 C595 1.398 . S
C596 C597 1.391 . S
C597 H585 0.950 . S
C597 C593 1.393 . S
C597 C596 1.391 . S
C598 H588 0.950 . S
C598 C599 1.386 . S
C598 C600 1.391 . S
C599 C598 1.386 . S
C599 C603 1.393 . S
C600 H589 0.950 . S
C600 C598 1.391 . S
C600 C601 1.400 . S
C601 C595 1.491 . S
C601 C600 1.400 . S
C601 C602 1.398 . S
C602 H590 0.950 . S
C602 C601 1.398 . S
C602 C603 1.391 . S
C603 H591 0.950 . S
C603 C599 1.393 . S
C603 C602 1.391 . S
H604 C612 0.950 . S
H605 C617 0.950 . S
H606 C614 0.936 1_545 S
H607 C616 0.950 . S
H608 C618 0.950 . S
H609 C620 0.950 . S
H610 C622 0.950 . S
H611 C623 0.950 . S
C612 H604 0.950 . S
C612 C613 1.386 . S
C612 C614 1.399 . S
C613 C612 1.386 . S
C613 C617 1.393 . S
C614 H606 0.936 1_565 S
C614 C612 1.399 . S
C614 C615 1.406 . S
C615 C614 1.406 . S
C615 C616 1.398 . S
C615 C621 1.491 1_565 S
C616 H607 0.950 . S
C616 C615 1.398 . S
C616 C617 1.391 . S
C617 H605 0.950 . S
C617 C613 1.393 . S
C617 C616 1.391 . S
C618 H608 0.950 . S
C618 C619 1.386 . S
C618 C620 1.391 . S
C619 C618 1.386 . S
C619 C623 1.393 . S
C620 H609 0.950 . S
C620 C618 1.391 . S
C620 C621 1.400 . S
C621 C615 1.491 1_545 S
C621 C620 1.400 . S
C621 C622 1.398 . S
C622 H610 0.950 . S
C622 C621 1.398 . S
C622 C623 1.391 . S
C623 H611 0.950 . S
C623 C619 1.393 . S
C623 C622 1.391 . S
H624 C632 0.950 . S
H625 C637 0.950 . S
H626 C634 0.950 . S
H627 C636 0.950 1_556 S
H628 C638 0.950 . S
H629 C640 0.950 . S
H630 C642 0.950 1_554 S
H631 C643 0.950 . S
C632 H624 0.950 . S
C632 C633 1.386 . S
C632 C634 1.391 . S
C633 C632 1.386 . S
C633 C637 1.393 . S
C634 H626 0.950 . S
C634 C632 1.391 . S
C634 C635 1.400 . S
C635 C634 1.400 . S
C635 C636 1.398 . S
C635 C641 1.491 1_554 S
C636 H627 0.950 1_554 S
C636 C635 1.398 . S
C636 C637 1.391 . S
C637 H625 0.950 . S
C637 C633 1.393 . S
C637 C636 1.391 . S
C638 H628 0.950 . S
C638 C639 1.386 . S
C638 C640 1.391 1_565 S
C639 C638 1.386 . S
C639 C643 1.393 . S
C640 H629 0.950 . S
C640 C638 1.391 1_545 S
C640 C641 1.400 . S
C641 C635 1.491 1_556 S
C641 C640 1.400 . S
C641 C642 1.398 1_545 S
C642 H630 0.950 1_556 S
C642 C641 1.398 1_565 S
C642 C643 1.391 . S
C643 H631 0.950 . S
C643 C639 1.393 . S
C643 C642 1.391 . S
H644 C652 0.950 . S
H645 C657 0.950 . S
H646 C654 0.951 . S
H647 C656 0.950 1_556 S
H648 C658 0.950 . S
H649 C660 0.950 . S
H650 C662 0.950 1_554 S
H651 C663 0.950 . S
C652 H644 0.950 . S
C652 C653 1.386 . S
C652 C654 1.391 . S
C653 C652 1.386 . S
C653 C657 1.393 . S
C654 H646 0.951 . S
C654 C652 1.391 . S
C654 C655 1.400 . S
C655 C654 1.400 . S
C655 C656 1.398 . S
C655 C661 1.491 1_654 S
C656 H647 0.950 1_554 S
C656 C655 1.398 . S
C656 C657 1.391 . S
C657 H645 0.950 . S
C657 C653 1.393 . S
C657 C656 1.391 . S
C658 H648 0.950 . S
C658 C659 1.386 . S
C658 C660 1.391 1_455 S
C659 C658 1.386 . S
C659 C663 1.393 . S
C660 H649 0.950 . S
C660 C658 1.391 1_655 S
C660 C661 1.400 1_655 S
C661 C655 1.491 1_456 S
C661 C660 1.400 1_455 S
C661 C662 1.398 . S
C662 H650 0.950 1_556 S
C662 C661 1.398 . S
C662 C663 1.391 . S
C663 H651 0.950 . S
C663 C659 1.393 . S
C663 C662 1.391 . S
H664 C672 0.950 . S
H665 C677 0.950 . S
H666 C674 0.950 1_554 S
H667 C676 0.950 . S
H668 C678 0.950 . S
H669 C680 0.950 . S
H670 C682 0.950 . S
H671 C683 0.950 . S
C672 H664 0.950 . S
C672 C673 1.386 . S
C672 C674 1.391 . S
C673 C672 1.386 . S
C673 C677 1.393 . S
C674 H666 0.950 1_556 S
C674 C672 1.391 . S
C674 C675 1.400 . S
C675 C674 1.400 . S
C675 C676 1.398 . S
C675 C681 1.494 . S
C676 H667 0.950 . S
C676 C675 1.398 . S
C676 C677 1.391 . S
C677 H665 0.950 . S
C677 C673 1.393 . S
C677 C676 1.391 . S
C678 H668 0.950 . S
C678 C679 1.386 . S
C678 C680 1.391 1_554 S
C679 C678 1.386 . S
C679 C683 1.393 . S
C680 H669 0.950 . S
C680 C678 1.391 1_556 S
C680 C681 1.401 . S
C681 C675 1.494 . S
C681 C680 1.401 . S
C681 C682 1.394 1_556 S
C682 H670 0.950 . S
C682 C681 1.394 1_554 S
C682 C683 1.391 . S
C683 H671 0.950 . S
C683 C679 1.393 . S
C683 C682 1.391 . S
H684 C692 0.950 . S
H685 C697 0.950 . S
H686 C694 0.950 . S
H687 C696 0.948 1_455 S
H688 C698 0.950 . S
H689 C700 0.950 . S
H690 C702 0.950 . S
H691 C703 0.950 . S
C692 H684 0.950 . S
C692 C693 1.386 . S
C692 C694 1.391 . S
C693 C692 1.386 . S
C693 C697 1.393 . S
C694 H686 0.950 . S
C694 C692 1.391 . S
C694 C695 1.400 . S
C695 C694 1.400 . S
C695 C696 1.398 . S
C695 C701 1.491 1_655 S
C696 H687 0.948 1_655 S
C696 C695 1.398 . S
C696 C697 1.391 . S
C697 H685 0.950 . S
C697 C693 1.393 . S
C697 C696 1.391 . S
C698 H688 0.950 . S
C698 C699 1.386 . S
C698 C700 1.391 . S
C699 C698 1.386 . S
C699 C703 1.393 . S
C700 H689 0.950 . S
C700 C698 1.391 . S
C700 C701 1.400 . S
C701 C695 1.491 1_455 S
C701 C700 1.400 . S
C701 C702 1.398 . S
C702 H690 0.950 . S
C702 C701 1.398 . S
C702 C703 1.391 . S
C703 H691 0.950 . S
C703 C699 1.393 . S
C703 C702 1.391 . S
H704 C712 0.950 . S
H705 C717 0.950 . S
H706 C714 0.950 . S
H707 C716 0.950 . S
H708 C718 0.950 . S
H709 C720 0.950 . S
H710 C722 0.950 . S
H711 C723 0.950 . S
C712 H704 0.950 . S
C712 C713 1.386 . S
C712 C714 1.391 . S
C713 C712 1.386 . S
C713 C717 1.393 . S
C714 H706 0.950 . S
C714 C712 1.391 . S
C714 C715 1.400 . S
C715 C714 1.400 . S
C715 C716 1.398 . S
C715 C721 1.491 . S
C716 H707 0.950 . S
C716 C715 1.398 . S
C716 C717 1.391 . S
C717 H705 0.950 . S
C717 C713 1.393 . S
C717 C716 1.391 . S
C718 H708 0.950 . S
C718 C719 1.386 . S
C718 C720 1.391 . S
C719 C718 1.386 . S
C719 C723 1.393 . S
C720 H709 0.950 . S
C720 C718 1.391 . S
C720 C721 1.400 . S
C721 C715 1.491 . S
C721 C720 1.400 . S
C721 C722 1.398 . S
C722 H710 0.950 . S
C722 C721 1.398 . S
C722 C723 1.391 . S
C723 H711 0.950 . S
C723 C719 1.393 . S
C723 C722 1.391 . S
H724 C732 0.950 . S
H725 C737 0.950 . S
H726 C734 0.950 1_565 S
H727 C736 0.950 . S
H728 C738 0.950 . S
H729 C740 0.950 . S
H730 C742 0.950 . S
H731 C743 0.950 . S
C732 H724 0.950 . S
C732 C733 1.386 . S
C732 C734 1.391 . S
C733 C732 1.386 . S
C733 C737 1.393 . S
C734 H726 0.950 1_545 S
C734 C732 1.391 . S
C734 C735 1.400 1_545 S
C735 C734 1.400 1_565 S
C735 C736 1.398 1_565 S
C735 C741 1.491 . S
C736 H727 0.950 . S
C736 C735 1.398 1_545 S
C736 C737 1.391 . S
C737 H725 0.950 . S
C737 C733 1.393 . S
C737 C736 1.391 . S
C738 H728 0.950 . S
C738 C739 1.386 . S
C738 C740 1.391 . S
C739 C738 1.386 . S
C739 C743 1.393 . S
C740 H729 0.950 . S
C740 C738 1.391 . S
C740 C741 1.400 . S
C741 C735 1.491 . S
C741 C740 1.400 . S
C741 C742 1.398 . S
C742 H730 0.950 . S
C742 C741 1.398 . S
C742 C743 1.391 . S
C743 H731 0.950 . S
C743 C739 1.393 . S
C743 C742 1.391 . S
H744 C752 0.950 . S
H745 C757 0.950 . S
H746 C754 0.950 . S
H747 C756 0.950 . S
H748 C758 0.950 . S
H749 C760 0.950 . S
H750 C762 0.950 . S
H751 C763 0.950 . S
C752 H744 0.950 . S
C752 C753 1.386 . S
C752 C754 1.391 . S
C753 C752 1.386 . S
C753 C757 1.393 . S
C754 H746 0.950 . S
C754 C752 1.391 . S
C754 C755 1.400 . S
C755 C754 1.400 . S
C755 C756 1.398 . S
C755 C761 1.491 . S
C756 H747 0.950 . S
C756 C755 1.398 . S
C756 C757 1.391 . S
C757 H745 0.950 . S
C757 C753 1.393 . S
C757 C756 1.391 . S
C758 H748 0.950 . S
C758 C759 1.386 . S
C758 C760 1.391 . S
C759 C758 1.386 . S
C759 C763 1.393 . S
C760 H749 0.950 . S
C760 C758 1.391 . S
C760 C761 1.400 . S
C761 C755 1.491 . S
C761 C760 1.400 . S
C761 C762 1.398 . S
C762 H750 0.950 . S
C762 C761 1.398 . S
C762 C763 1.391 . S
C763 H751 0.950 . S
C763 C759 1.393 . S
C763 C762 1.391 . S
H764 C772 0.950 . S
H765 C777 0.950 . S
H766 C774 0.950 . S
H767 C776 0.950 . S
H768 C778 0.950 . S
H769 C780 0.950 . S
H770 C782 0.950 . S
H771 C783 0.950 . S
C772 H764 0.950 . S
C772 C773 1.386 . S
C772 C774 1.391 . S
C773 C772 1.386 . S
C773 C777 1.393 . S
C774 H766 0.950 . S
C774 C772 1.391 . S
C774 C775 1.400 . S
C775 C774 1.400 . S
C775 C776 1.398 . S
C775 C781 1.491 . S
C776 H767 0.950 . S
C776 C775 1.398 . S
C776 C777 1.391 . S
C777 H765 0.950 . S
C777 C773 1.393 . S
C777 C776 1.391 . S
C778 H768 0.950 . S
C778 C779 1.386 . S
C778 C780 1.391 . S
C779 C778 1.386 . S
C779 C783 1.393 . S
C780 H769 0.950 . S
C780 C778 1.391 . S
C780 C781 1.400 . S
C781 C775 1.491 . S
C781 C780 1.400 . S
C781 C782 1.398 . S
C782 H770 0.950 . S
C782 C781 1.398 . S
C782 C783 1.391 . S
C783 H771 0.950 . S
C783 C779 1.393 . S
C783 C782 1.391 . S
H784 C792 0.950 . S
H785 C797 0.950 . S
H786 C794 0.950 . S
H787 C796 0.950 . S
H788 C798 0.950 . S
H789 C800 0.950 . S
H790 C802 0.950 . S
H791 C803 0.950 . S
C792 H784 0.950 . S
C792 C793 1.386 . S
C792 C794 1.391 . S
C793 C792 1.386 . S
C793 C797 1.393 . S
C794 H786 0.950 . S
C794 C792 1.391 . S
C794 C795 1.400 . S
C795 C794 1.400 . S
C795 C796 1.398 . S
C795 C801 1.491 . S
C796 H787 0.950 . S
C796 C795 1.398 . S
C796 C797 1.391 . S
C797 H785 0.950 . S
C797 C793 1.393 . S
C797 C796 1.391 . S
C798 H788 0.950 . S
C798 C799 1.386 . S
C798 C800 1.391 . S
C799 C798 1.386 . S
C799 C803 1.393 . S
C800 H789 0.950 . S
C800 C798 1.391 . S
C800 C801 1.400 . S
C801 C795 1.491 . S
C801 C800 1.400 . S
C801 C802 1.398 . S
C802 H790 0.950 . S
C802 C801 1.398 . S
C802 C803 1.391 . S
C803 H791 0.950 . S
C803 C799 1.393 . S
C803 C802 1.391 . S
H804 C812 0.950 . S
H805 C817 0.950 . S
H806 C814 0.950 . S
H807 C816 0.950 . S
H808 C818 0.950 . S
H809 C820 0.950 . S
H810 C822 0.950 . S
H811 C823 0.950 . S
C812 H804 0.950 . S
C812 C813 1.386 . S
C812 C814 1.391 . S
C813 C812 1.386 . S
C813 C817 1.393 . S
C814 H806 0.950 . S
C814 C812 1.391 . S
C814 C815 1.400 . S
C815 C814 1.400 . S
C815 C816 1.398 . S
C815 C821 1.491 . S
C816 H807 0.950 . S
C816 C815 1.398 . S
C816 C817 1.391 . S
C817 H805 0.950 . S
C817 C813 1.393 . S
C817 C816 1.391 . S
C818 H808 0.950 . S
C818 C819 1.386 . S
C818 C820 1.391 . S
C819 C818 1.386 . S
C819 C823 1.393 . S
C820 H809 0.950 . S
C820 C818 1.391 . S
C820 C821 1.400 . S
C821 C815 1.491 . S
C821 C820 1.400 . S
C821 C822 1.398 . S
C822 H810 0.950 . S
C822 C821 1.398 . S
C822 C823 1.391 . S
C823 H811 0.950 . S
C823 C819 1.393 . S
C823 C822 1.391 . S
H824 C832 0.950 . S
H825 C837 0.950 . S
H826 C834 0.950 . S
H827 C836 0.950 . S
H828 C838 0.950 . S
H829 C840 0.950 . S
H830 C842 0.950 . S
H831 C843 0.950 . S
C832 H824 0.950 . S
C832 C833 1.386 . S
C832 C834 1.391 . S
C833 C832 1.386 . S
C833 C837 1.393 . S
C834 H826 0.950 . S
C834 C832 1.391 . S
C834 C835 1.400 . S
C835 C834 1.400 . S
C835 C836 1.398 . S
C835 C841 1.491 . S
C836 H827 0.950 . S
C836 C835 1.398 . S
C836 C837 1.391 . S
C837 H825 0.950 . S
C837 C833 1.393 . S
C837 C836 1.391 . S
C838 H828 0.950 . S
C838 C839 1.386 . S
C838 C840 1.391 . S
C839 C838 1.386 . S
C839 C843 1.393 . S
C840 H829 0.950 . S
C840 C838 1.391 . S
C840 C841 1.400 . S
C841 C835 1.491 . S
C841 C840 1.400 . S
C841 C842 1.398 . S
C842 H830 0.950 . S
C842 C841 1.398 . S
C842 C843 1.391 . S
C843 H831 0.950 . S
C843 C839 1.393 . S
C843 C842 1.391 . S
H844 C852 0.950 . S
H845 C857 0.950 . S
H846 C854 0.950 . S
H847 C856 0.950 . S
H848 C858 0.950 . S
H849 C860 0.950 . S
H850 C862 0.950 . S
H851 C863 0.950 . S
C852 H844 0.950 . S
C852 C853 1.386 . S
C852 C854 1.391 . S
C853 C852 1.386 . S
C853 C857 1.393 . S
C854 H846 0.950 . S
C854 C852 1.391 . S
C854 C855 1.400 . S
C855 C854 1.400 . S
C855 C856 1.398 . S
C855 C861 1.491 . S
C856 H847 0.950 . S
C856 C855 1.398 . S
C856 C857 1.391 . S
C857 H845 0.950 . S
C857 C853 1.393 . S
C857 C856 1.391 . S
C858 H848 0.950 . S
C858 C859 1.386 . S
C858 C860 1.391 . S
C859 C858 1.386 . S
C859 C863 1.393 . S
C860 H849 0.950 . S
C860 C858 1.391 . S
C860 C861 1.400 . S
C861 C855 1.491 . S
C861 C860 1.400 . S
C861 C862 1.398 . S
C862 H850 0.950 . S
C862 C861 1.398 . S
C862 C863 1.391 . S
C863 H851 0.950 . S
C863 C859 1.393 . S
C863 C862 1.391 . S
H864 C872 0.950 . S
H865 C877 0.950 . S
H866 C874 0.950 . S
H867 C876 0.950 . S
H868 C878 0.950 . S
H869 C880 0.950 . S
H870 C882 0.950 . S
H871 C883 0.950 . S
C872 H864 0.950 . S
C872 C873 1.386 . S
C872 C874 1.391 . S
C873 C872 1.386 . S
C873 C877 1.393 . S
C874 H866 0.950 . S
C874 C872 1.391 . S
C874 C875 1.400 . S
C875 C874 1.400 . S
C875 C876 1.398 . S
C875 C881 1.491 . S
C876 H867 0.950 . S
C876 C875 1.398 . S
C876 C877 1.391 . S
C877 H865 0.950 . S
C877 C873 1.393 . S
C877 C876 1.391 . S
C878 H868 0.950 . S
C878 C879 1.386 . S
C878 C880 1.391 . S
C879 C878 1.386 . S
C879 C883 1.393 . S
C880 H869 0.950 . S
C880 C878 1.391 . S
C880 C881 1.400 . S
C881 C875 1.491 . S
C881 C880 1.400 . S
C881 C882 1.398 . S
C882 H870 0.950 . S
C882 C881 1.398 . S
C882 C883 1.391 . S
C883 H871 0.950 . S
C883 C879 1.393 . S
C883 C882 1.391 . S
H884 C892 0.950 . S
H885 C897 0.950 . S
H886 C894 0.950 . S
H887 C896 0.950 . S
H888 C898 0.950 . S
H889 C900 0.950 . S
H890 C902 0.950 . S
H891 C903 0.950 . S
C892 H884 0.950 . S
C892 C893 1.386 . S
C892 C894 1.391 . S
C893 C892 1.386 . S
C893 C897 1.393 . S
C894 H886 0.950 . S
C894 C892 1.391 . S
C894 C895 1.400 . S
C895 C894 1.400 . S
C895 C896 1.398 . S
C895 C901 1.491 . S
C896 H887 0.950 . S
C896 C895 1.398 . S
C896 C897 1.391 . S
C897 H885 0.950 . S
C897 C893 1.393 . S
C897 C896 1.391 . S
C898 H888 0.950 . S
C898 C899 1.386 . S
C898 C900 1.391 . S
C899 C898 1.386 . S
C899 C903 1.393 . S
C900 H889 0.950 . S
C900 C898 1.391 . S
C900 C901 1.400 . S
C901 C895 1.491 . S
C901 C900 1.400 . S
C901 C902 1.398 . S
C902 H890 0.950 . S
C902 C901 1.398 . S
C902 C903 1.391 . S
C903 H891 0.950 . S
C903 C899 1.393 . S
C903 C902 1.391 . S
H904 C912 0.950 . S
H905 C917 0.950 . S
H906 C914 0.950 . S
H907 C916 0.950 . S
H908 C918 0.950 . S
H909 C920 0.950 . S
H910 C922 0.950 . S
H911 C923 0.950 . S
C912 H904 0.950 . S
C912 C913 1.386 . S
C912 C914 1.391 . S
C913 C912 1.386 . S
C913 C917 1.393 . S
C914 H906 0.950 . S
C914 C912 1.391 . S
C914 C915 1.400 . S
C915 C914 1.400 . S
C915 C916 1.398 . S
C915 C921 1.491 . S
C916 H907 0.950 . S
C916 C915 1.398 . S
C916 C917 1.391 . S
C917 H905 0.950 . S
C917 C913 1.393 . S
C917 C916 1.391 . S
C918 H908 0.950 . S
C918 C919 1.386 . S
C918 C920 1.391 . S
C919 C918 1.386 . S
C919 C923 1.393 . S
C920 H909 0.950 . S
C920 C918 1.391 . S
C920 C921 1.400 . S
C921 C915 1.491 . S
C921 C920 1.400 . S
C921 C922 1.398 . S
C922 H910 0.950 . S
C922 C921 1.398 . S
C922 C923 1.391 . S
C923 H911 0.950 . S
C923 C919 1.393 . S
C923 C922 1.391 . S
H924 C932 0.950 . S
H925 C937 0.950 . S
H926 C934 0.950 . S
H927 C936 0.950 . S
H928 C938 0.950 . S
H929 C940 0.950 . S
H930 C942 0.950 . S
H931 C943 0.950 . S
C932 H924 0.950 . S
C932 C933 1.386 . S
C932 C934 1.391 . S
C933 C932 1.386 . S
C933 C937 1.393 . S
C934 H926 0.950 . S
C934 C932 1.391 . S
C934 C935 1.400 . S
C935 C934 1.400 . S
C935 C936 1.398 . S
C935 C941 1.491 . S
C936 H927 0.950 . S
C936 C935 1.398 . S
C936 C937 1.391 . S
C937 H925 0.950 . S
C937 C933 1.393 . S
C937 C936 1.391 . S
C938 H928 0.950 . S
C938 C939 1.386 . S
C938 C940 1.391 . S
C939 C938 1.386 . S
C939 C943 1.393 . S
C940 H929 0.950 . S
C940 C938 1.391 . S
C940 C941 1.400 . S
C941 C935 1.491 . S
C941 C940 1.400 . S
C941 C942 1.398 . S
C942 H930 0.950 . S
C942 C941 1.398 . S
C942 C943 1.391 . S
C943 H931 0.950 . S
C943 C939 1.393 . S
C943 C942 1.391 . S
H944 C952 0.950 . S
H945 C957 0.950 . S
H946 C954 0.950 . S
H947 C956 0.950 . S
H948 C958 0.950 . S
H949 C960 0.950 . S
H950 C962 0.950 . S
H951 C963 0.950 . S
C952 H944 0.950 . S
C952 C953 1.386 . S
C952 C954 1.391 . S
C953 C952 1.386 . S
C953 C957 1.393 . S
C954 H946 0.950 . S
C954 C952 1.391 . S
C954 C955 1.400 . S
C955 C954 1.400 . S
C955 C956 1.398 . S
C955 C961 1.491 . S
C956 H947 0.950 . S
C956 C955 1.398 . S
C956 C957 1.391 . S
C957 H945 0.950 . S
C957 C953 1.393 . S
C957 C956 1.391 . S
C958 H948 0.950 . S
C958 C959 1.386 . S
C958 C960 1.391 . S
C959 C958 1.386 . S
C959 C963 1.393 . S
C960 H949 0.950 . S
C960 C958 1.391 . S
C960 C961 1.400 . S
C961 C955 1.491 . S
C961 C960 1.400 . S
C961 C962 1.398 . S
C962 H950 0.950 . S
C962 C961 1.398 . S
C962 C963 1.391 . S
C963 H951 0.950 . S
C963 C959 1.393 . S
C963 C962 1.391 . S
H964 C972 0.950 . S
H965 C977 0.950 . S
H966 C974 0.950 . S
H967 C976 0.950 . S
H968 C978 0.950 . S
H969 C980 0.950 . S
H970 C982 0.950 . S
H971 C983 0.950 . S
C972 H964 0.950 . S
C972 C973 1.386 . S
C972 C974 1.391 . S
C973 C972 1.386 . S
C973 C977 1.393 . S
C974 H966 0.950 . S
C974 C972 1.391 . S
C974 C975 1.400 . S
C975 C974 1.400 . S
C975 C976 1.398 . S
C975 C981 1.491 . S
C976 H967 0.950 . S
C976 C975 1.398 . S
C976 C977 1.391 . S
C977 H965 0.950 . S
C977 C973 1.393 . S
C977 C976 1.391 . S
C978 H968 0.950 . S
C978 C979 1.386 . S
C978 C980 1.391 . S
C979 C978 1.386 . S
C979 C983 1.393 . S
C980 H969 0.950 . S
C980 C978 1.391 . S
C980 C981 1.400 . S
C981 C975 1.491 . S
C981 C980 1.400 . S
C981 C982 1.398 . S
C982 H970 0.950 . S
C982 C981 1.398 . S
C982 C983 1.391 . S
C983 H971 0.950 . S
C983 C979 1.393 . S
C983 C982 1.391 . S
H984 C992 0.950 . S
H985 C997 0.950 . S
H986 C994 0.950 . S
H987 C996 0.950 . S
H988 C998 0.950 . S
H989 C1000 0.950 . S
H990 C1002 0.950 . S
H991 C1003 0.950 . S
C992 H984 0.950 . S
C992 C993 1.386 . S
C992 C994 1.391 . S
C993 C992 1.386 . S
C993 C997 1.393 . S
C994 H986 0.950 . S
C994 C992 1.391 . S
C994 C995 1.400 . S
C995 C994 1.400 . S
C995 C996 1.398 . S
C995 C1001 1.491 . S
C996 H987 0.950 . S
C996 C995 1.398 . S
C996 C997 1.391 . S
C997 H985 0.950 . S
C997 C993 1.393 . S
C997 C996 1.391 . S
C998 H988 0.950 . S
C998 C999 1.386 . S
C998 C1000 1.391 . S
C999 C998 1.386 . S
C999 C1003 1.393 . S
C1000 H989 0.950 . S
C1000 C998 1.391 . S
C1000 C1001 1.400 . S
C1001 C995 1.491 . S
C1001 C1000 1.400 . S
C1001 C1002 1.398 . S
C1002 H990 0.950 . S
C1002 C1001 1.398 . S
C1002 C1003 1.391 . S
C1003 H991 0.950 . S
C1003 C999 1.393 . S
C1003 C1002 1.391 . S
H1004 C1012 0.950 . S
H1005 C1017 0.950 . S
H1006 C1014 0.950 . S
H1007 C1016 0.950 . S
H1008 C1018 0.950 . S
H1009 C1020 0.950 . S
H1010 C1022 0.950 . S
H1011 C1023 0.950 . S
C1012 H1004 0.950 . S
C1012 C1013 1.386 . S
C1012 C1014 1.391 . S
C1013 C1012 1.386 . S
C1013 C1017 1.393 . S
C1014 H1006 0.950 . S
C1014 C1012 1.391 . S
C1014 C1015 1.400 . S
C1015 C1014 1.400 . S
C1015 C1016 1.398 . S
C1015 C1021 1.491 . S
C1016 H1007 0.950 . S
C1016 C1015 1.398 . S
C1016 C1017 1.391 . S
C1017 H1005 0.950 . S
C1017 C1013 1.393 . S
C1017 C1016 1.391 . S
C1018 H1008 0.950 . S
C1018 C1019 1.386 . S
C1018 C1020 1.391 . S
C1019 C1018 1.386 . S
C1019 C1023 1.393 . S
C1020 H1009 0.950 . S
C1020 C1018 1.391 . S
C1020 C1021 1.400 . S
C1021 C1015 1.491 . S
C1021 C1020 1.400 . S
C1021 C1022 1.398 . S
C1022 H1010 0.950 . S
C1022 C1021 1.398 . S
C1022 C1023 1.391 . S
C1023 H1011 0.950 . S
C1023 C1019 1.393 . S
C1023 C1022 1.391 . S
H1024 C1032 0.950 . S
H1025 C1037 0.950 . S
H1026 C1034 0.950 . S
H1027 C1036 0.950 . S
H1028 C1038 0.950 . S
H1029 C1040 0.950 . S
H1030 C1042 0.950 . S
H1031 C1043 0.950 . S
C1032 H1024 0.950 . S
C1032 C1033 1.386 . S
C1032 C1034 1.391 . S
C1033 C1032 1.386 . S
C1033 C1037 1.393 . S
C1034 H1026 0.950 . S
C1034 C1032 1.391 . S
C1034 C1035 1.400 . S
C1035 C1034 1.400 . S
C1035 C1036 1.398 . S
C1035 C1041 1.491 . S
C1036 H1027 0.950 . S
C1036 C1035 1.398 . S
C1036 C1037 1.391 . S
C1037 H1025 0.950 . S
C1037 C1033 1.393 . S
C1037 C1036 1.391 . S
C1038 H1028 0.950 . S
C1038 C1039 1.386 . S
C1038 C1040 1.391 . S
C1039 C1038 1.386 . S
C1039 C1043 1.393 . S
C1040 H1029 0.950 . S
C1040 C1038 1.391 . S
C1040 C1041 1.400 . S
C1041 C1035 1.491 . S
C1041 C1040 1.400 . S
C1041 C1042 1.398 . S
C1042 H1030 0.950 . S
C1042 C1041 1.398 . S
C1042 C1043 1.391 . S
C1043 H1031 0.950 . S
C1043 C1039 1.393 . S
C1043 C1042 1.391 . S
H1044 C1052 0.950 . S
H1045 C1057 0.950 . S
H1046 C1054 0.950 . S
H1047 C1056 0.950 . S
H1048 C1058 0.950 . S
H1049 C1060 0.950 . S
H1050 C1062 0.950 . S
H1051 C1063 0.950 . S
C1052 H1044 0.950 . S
C1052 C1053 1.386 . S
C1052 C1054 1.391 . S
C1053 C1052 1.386 . S
C1053 C1057 1.393 . S
C1054 H1046 0.950 . S
C1054 C1052 1.391 . S
C1054 C1055 1.400 . S
C1055 C1054 1.400 . S
C1055 C1056 1.398 . S
C1055 C1061 1.491 . S
C1056 H1047 0.950 . S
C1056 C1055 1.398 . S
C1056 C1057 1.391 . S
C1057 H1045 0.950 . S
C1057 C1053 1.393 . S
C1057 C1056 1.391 . S
C1058 H1048 0.950 . S
C1058 C1059 1.386 . S
C1058 C1060 1.391 . S
C1059 C1058 1.386 . S
C1059 C1063 1.393 . S
C1060 H1049 0.950 . S
C1060 C1058 1.391 . S
C1060 C1061 1.400 . S
C1061 C1055 1.491 . S
C1061 C1060 1.400 . S
C1061 C1062 1.398 . S
C1062 H1050 0.950 . S
C1062 C1061 1.398 . S
C1062 C1063 1.391 . S
C1063 H1051 0.950 . S
C1063 C1059 1.393 . S
C1063 C1062 1.391 . S
H1064 C1072 0.950 . S
H1065 C1077 0.950 . S
H1066 C1074 0.950 . S
H1067 C1076 0.950 . S
H1068 C1078 0.950 . S
H1069 C1080 0.950 . S
H1070 C1082 0.950 . S
H1071 C1083 0.950 . S
C1072 H1064 0.950 . S
C1072 C1073 1.386 . S
C1072 C1074 1.391 . S
C1073 C1072 1.386 . S
C1073 C1077 1.393 . S
C1074 H1066 0.950 . S
C1074 C1072 1.391 . S
C1074 C1075 1.400 . S
C1075 C1074 1.400 . S
C1075 C1076 1.398 . S
C1075 C1081 1.491 . S
C1076 H1067 0.950 . S
C1076 C1075 1.398 . S
C1076 C1077 1.391 . S
C1077 H1065 0.950 . S
C1077 C1073 1.393 . S
C1077 C1076 1.391 . S
C1078 H1068 0.950 . S
C1078 C1079 1.386 . S
C1078 C1080 1.391 . S
C1079 C1078 1.386 . S
C1079 C1083 1.393 . S
C1080 H1069 0.950 . S
C1080 C1078 1.391 . S
C1080 C1081 1.400 . S
C1081 C1075 1.491 . S
C1081 C1080 1.400 . S
C1081 C1082 1.398 . S
C1082 H1070 0.950 . S
C1082 C1081 1.398 . S
C1082 C1083 1.391 . S
C1083 H1071 0.950 . S
C1083 C1079 1.393 . S
C1083 C1082 1.391 . S
H1084 C1092 0.950 . S
H1085 C1097 0.950 . S
H1086 C1094 0.950 . S
H1087 C1096 0.950 . S
H1088 C1098 0.950 . S
H1089 C1100 0.950 . S
H1090 C1102 0.950 . S
H1091 C1103 0.950 . S
C1092 H1084 0.950 . S
C1092 C1093 1.386 . S
C1092 C1094 1.391 . S
C1093 C1092 1.386 . S
C1093 C1097 1.393 . S
C1094 H1086 0.950 . S
C1094 C1092 1.391 . S
C1094 C1095 1.400 . S
C1095 C1094 1.400 . S
C1095 C1096 1.398 . S
C1095 C1101 1.491 . S
C1096 H1087 0.950 . S
C1096 C1095 1.398 . S
C1096 C1097 1.391 . S
C1097 H1085 0.950 . S
C1097 C1093 1.393 . S
C1097 C1096 1.391 . S
C1098 H1088 0.950 . S
C1098 C1099 1.386 . S
C1098 C1100 1.391 . S
C1099 C1098 1.386 . S
C1099 C1103 1.393 . S
C1100 H1089 0.950 . S
C1100 C1098 1.391 . S
C1100 C1101 1.400 . S
C1101 C1095 1.491 . S
C1101 C1100 1.400 . S
C1101 C1102 1.398 . S
C1102 H1090 0.950 . S
C1102 C1101 1.398 . S
C1102 C1103 1.391 . S
C1103 H1091 0.950 . S
C1103 C1099 1.393 . S
C1103 C1102 1.391 . S
H1104 C1112 0.950 . S
H1105 C1117 0.950 . S
H1106 C1114 0.950 . S
H1107 C1116 0.950 . S
H1108 C1118 0.950 . S
H1109 C1120 0.950 . S
H1110 C1122 0.950 . S
H1111 C1123 0.950 . S
C1112 H1104 0.950 . S
C1112 C1113 1.386 . S
C1112 C1114 1.391 . S
C1113 C1112 1.386 . S
C1113 C1117 1.393 . S
C1114 H1106 0.950 . S
C1114 C1112 1.391 . S
C1114 C1115 1.400 . S
C1115 C1114 1.400 . S
C1115 C1116 1.398 . S
C1115 C1121 1.491 . S
C1116 H1107 0.950 . S
C1116 C1115 1.398 . S
C1116 C1117 1.391 . S
C1117 H1105 0.950 . S
C1117 C1113 1.393 . S
C1117 C1116 1.391 . S
C1118 H1108 0.950 . S
C1118 C1119 1.386 . S
C1118 C1120 1.391 . S
C1119 C1118 1.386 . S
C1119 C1123 1.393 . S
C1120 H1109 0.950 . S
C1120 C1118 1.391 . S
C1120 C1121 1.400 . S
C1121 C1115 1.491 . S
C1121 C1120 1.400 . S
C1121 C1122 1.398 . S
C1122 H1110 0.950 . S
C1122 C1121 1.398 . S
C1122 C1123 1.391 . S
C1123 H1111 0.950 . S
C1123 C1119 1.393 . S
C1123 C1122 1.391 . S
H1124 C1132 0.950 . S
H1125 C1137 0.950 . S
H1126 C1134 0.950 . S
H1127 C1136 0.950 . S
H1128 C1138 0.950 . S
H1129 C1140 0.950 . S
H1130 C1142 0.950 . S
H1131 C1143 0.950 . S
C1132 H1124 0.950 . S
C1132 C1133 1.386 . S
C1132 C1134 1.391 . S
C1133 C1132 1.386 . S
C1133 C1137 1.393 . S
C1134 H1126 0.950 . S
C1134 C1132 1.391 . S
C1134 C1135 1.400 . S
C1135 C1134 1.400 . S
C1135 C1136 1.398 . S
C1135 C1141 1.491 . S
C1136 H1127 0.950 . S
C1136 C1135 1.398 . S
C1136 C1137 1.391 . S
C1137 H1125 0.950 . S
C1137 C1133 1.393 . S
C1137 C1136 1.391 . S
C1138 H1128 0.950 . S
C1138 C1139 1.386 . S
C1138 C1140 1.391 . S
C1139 C1138 1.386 . S
C1139 C1143 1.393 . S
C1140 H1129 0.950 . S
C1140 C1138 1.391 . S
C1140 C1141 1.400 . S
C1141 C1135 1.491 . S
C1141 C1140 1.400 . S
C1141 C1142 1.398 . S
C1142 H1130 0.950 . S
C1142 C1141 1.398 . S
C1142 C1143 1.391 . S
C1143 H1131 0.950 . S
C1143 C1139 1.393 . S
C1143 C1142 1.391 . S
H1144 C1152 0.950 . S
H1145 C1157 0.950 . S
H1146 C1154 0.950 . S
H1147 C1156 0.950 . S
H1148 C1158 0.950 . S
H1149 C1160 0.950 . S
H1150 C1162 0.950 . S
H1151 C1163 0.950 . S
C1152 H1144 0.950 . S
C1152 C1153 1.386 . S
C1152 C1154 1.391 . S
C1153 C1152 1.386 . S
C1153 C1157 1.393 . S
C1154 H1146 0.950 . S
C1154 C1152 1.391 . S
C1154 C1155 1.400 . S
C1155 C1154 1.400 . S
C1155 C1156 1.398 . S
C1155 C1161 1.491 . S
C1156 H1147 0.950 . S
C1156 C1155 1.398 . S
C1156 C1157 1.391 . S
C1157 H1145 0.950 . S
C1157 C1153 1.393 . S
C1157 C1156 1.391 . S
C1158 H1148 0.950 . S
C1158 C1159 1.386 . S
C1158 C1160 1.391 . S
C1159 C1158 1.386 . S
C1159 C1163 1.393 . S
C1160 H1149 0.950 . S
C1160 C1158 1.391 . S
C1160 C1161 1.400 . S
C1161 C1155 1.491 . S
C1161 C1160 1.400 . S
C1161 C1162 1.398 . S
C1162 H1150 0.950 . S
C1162 C1161 1.398 . S
C1162 C1163 1.391 . S
C1163 H1151 0.950 . S
C1163 C1159 1.393 . S
C1163 C1162 1.391 . S
H1164 C1172 0.950 . S
H1165 C1177 0.950 . S
H1166 C1174 0.950 . S
H1167 C1176 0.950 . S
H1168 C1178 0.950 . S
H1169 C1180 0.950 . S
H1170 C1182 0.950 . S
H1171 C1183 0.950 . S
C1172 H1164 0.950 . S
C1172 C1173 1.386 . S
C1172 C1174 1.391 . S
C1173 C1172 1.386 . S
C1173 C1177 1.393 . S
C1174 H1166 0.950 . S
C1174 C1172 1.391 . S
C1174 C1175 1.400 . S
C1175 C1174 1.400 . S
C1175 C1176 1.398 . S
C1175 C1181 1.491 . S
C1176 H1167 0.950 . S
C1176 C1175 1.398 . S
C1176 C1177 1.391 . S
C1177 H1165 0.950 . S
C1177 C1173 1.393 . S
C1177 C1176 1.391 . S
C1178 H1168 0.950 . S
C1178 C1179 1.386 . S
C1178 C1180 1.391 . S
C1179 C1178 1.386 . S
C1179 C1183 1.393 . S
C1180 H1169 0.950 . S
C1180 C1178 1.391 . S
C1180 C1181 1.400 . S
C1181 C1175 1.491 . S
C1181 C1180 1.400 . S
C1181 C1182 1.398 . S
C1182 H1170 0.950 . S
C1182 C1181 1.398 . S
C1182 C1183 1.391 . S
C1183 H1171 0.950 . S
C1183 C1179 1.393 . S
C1183 C1182 1.391 . S
H1184 C1192 0.950 . S
H1185 C1197 0.950 . S
H1186 C1194 0.950 . S
H1187 C1196 0.950 . S
H1188 C1198 0.950 . S
H1189 C1200 0.950 . S
H1190 C1202 0.950 . S
H1191 C1203 0.950 . S
C1192 H1184 0.950 . S
C1192 C1193 1.386 . S
C1192 C1194 1.391 . S
C1193 C1192 1.386 . S
C1193 C1197 1.393 . S
C1194 H1186 0.950 . S
C1194 C1192 1.391 . S
C1194 C1195 1.400 . S
C1195 C1194 1.400 . S
C1195 C1196 1.398 . S
C1195 C1201 1.491 . S
C1196 H1187 0.950 . S
C1196 C1195 1.398 . S
C1196 C1197 1.391 . S
C1197 H1185 0.950 . S
C1197 C1193 1.393 . S
C1197 C1196 1.391 . S
C1198 H1188 0.950 . S
C1198 C1199 1.386 . S
C1198 C1200 1.391 . S
C1199 C1198 1.386 . S
C1199 C1203 1.393 . S
C1200 H1189 0.950 . S
C1200 C1198 1.391 . S
C1200 C1201 1.400 . S
C1201 C1195 1.491 . S
C1201 C1200 1.400 . S
C1201 C1202 1.398 . S
C1202 H1190 0.950 . S
C1202 C1201 1.398 . S
C1202 C1203 1.391 . S
C1203 H1191 0.950 . S
C1203 C1199 1.393 . S
C1203 C1202 1.391 . S
H1204 C1212 0.950 . S
H1205 C1217 0.950 . S
H1206 C1214 0.950 . S
H1207 C1216 0.950 . S
H1208 C1218 0.950 . S
H1209 C1220 0.950 . S
H1210 C1222 0.950 . S
H1211 C1223 0.950 . S
C1212 H1204 0.950 . S
C1212 C1213 1.386 . S
C1212 C1214 1.391 . S
C1213 C1212 1.386 . S
C1213 C1217 1.393 . S
C1214 H1206 0.950 . S
C1214 C1212 1.391 . S
C1214 C1215 1.400 . S
C1215 C1214 1.400 . S
C1215 C1216 1.398 . S
C1215 C1221 1.491 . S
C1216 H1207 0.950 . S
C1216 C1215 1.398 . S
C1216 C1217 1.391 . S
C1217 H1205 0.950 . S
C1217 C1213 1.393 . S
C1217 C1216 1.391 . S
C1218 H1208 0.950 . S
C1218 C1219 1.386 . S
C1218 C1220 1.391 . S
C1219 C1218 1.386 . S
C1219 C1223 1.393 . S
C1220 H1209 0.950 . S
C1220 C1218 1.391 . S
C1220 C1221 1.400 . S
C1221 C1215 1.491 . S
C1221 C1220 1.400 . S
C1221 C1222 1.398 . S
C1222 H1210 0.950 . S
C1222 C1221 1.398 . S
C1222 C1223 1.391 . S
C1223 H1211 0.950 . S
C1223 C1219 1.393 . S
C1223 C1222 1.391 . S
H1224 C1232 0.950 . S
H1225 C1237 0.950 . S
H1226 C1234 0.950 . S
H1227 C1236 0.950 . S
H1228 C1238 0.950 . S
H1229 C1240 0.950 . S
H1230 C1242 0.950 . S
H1231 C1243 0.950 . S
C1232 H1224 0.950 . S
C1232 C1233 1.386 . S
C1232 C1234 1.391 . S
C1233 C1232 1.386 . S
C1233 C1237 1.393 . S
C1234 H1226 0.950 . S
C1234 C1232 1.391 . S
C1234 C1235 1.400 . S
C1235 C1234 1.400 . S
C1235 C1236 1.398 . S
C1235 C1241 1.491 . S
C1236 H1227 0.950 . S
C1236 C1235 1.398 . S
C1236 C1237 1.391 . S
C1237 H1225 0.950 . S
C1237 C1233 1.393 . S
C1237 C1236 1.391 . S
C1238 H1228 0.950 . S
C1238 C1239 1.386 . S
C1238 C1240 1.391 . S
C1239 C1238 1.386 . S
C1239 C1243 1.393 . S
C1240 H1229 0.950 . S
C1240 C1238 1.391 . S
C1240 C1241 1.400 . S
C1241 C1235 1.491 . S
C1241 C1240 1.400 . S
C1241 C1242 1.398 . S
C1242 H1230 0.950 . S
C1242 C1241 1.398 . S
C1242 C1243 1.391 . S
C1243 H1231 0.950 . S
C1243 C1239 1.393 . S
C1243 C1242 1.391 . S
H1244 C1252 0.950 . S
H1245 C1257 0.950 . S
H1246 C1254 0.950 . S
H1247 C1256 0.950 . S
H1248 C1258 0.950 . S
H1249 C1260 0.950 . S
H1250 C1262 0.950 . S
H1251 C1263 0.950 . S
C1252 H1244 0.950 . S
C1252 C1253 1.386 . S
C1252 C1254 1.391 . S
C1253 C1252 1.386 . S
C1253 C1257 1.393 . S
C1254 H1246 0.950 . S
C1254 C1252 1.391 . S
C1254 C1255 1.400 . S
C1255 C1254 1.400 . S
C1255 C1256 1.398 . S
C1255 C1261 1.491 1_565 S
C1256 H1247 0.950 . S
C1256 C1255 1.398 . S
C1256 C1257 1.391 . S
C1257 H1245 0.950 . S
C1257 C1253 1.393 . S
C1257 C1256 1.391 . S
C1258 H1248 0.950 . S
C1258 C1259 1.386 . S
C1258 C1260 1.391 . S
C1259 C1258 1.386 . S
C1259 C1263 1.393 . S
C1260 H1249 0.950 . S
C1260 C1258 1.391 . S
C1260 C1261 1.400 . S
C1261 C1255 1.491 1_545 S
C1261 C1260 1.400 . S
C1261 C1262 1.398 . S
C1262 H1250 0.950 . S
C1262 C1261 1.398 . S
C1262 C1263 1.391 . S
C1263 H1251 0.950 . S
C1263 C1259 1.393 . S
C1263 C1262 1.391 . S
H1264 C1272 0.950 . S
H1265 C1277 0.950 . S
H1266 C1274 0.950 1_455 S
H1267 C1276 0.950 . S
H1268 C1278 0.950 . S
H1269 C1280 0.950 . S
H1270 C1282 0.950 . S
H1271 C1283 0.950 . S
C1272 H1264 0.950 . S
C1272 C1273 1.386 . S
C1272 C1274 1.391 . S
C1273 C1272 1.386 . S
C1273 C1277 1.393 . S
C1274 H1266 0.950 1_655 S
C1274 C1272 1.391 . S
C1274 C1275 1.400 . S
C1275 C1274 1.400 . S
C1275 C1276 1.398 . S
C1275 C1281 1.491 1_655 S
C1276 H1267 0.950 . S
C1276 C1275 1.398 . S
C1276 C1277 1.391 . S
C1277 H1265 0.950 . S
C1277 C1273 1.393 . S
C1277 C1276 1.391 . S
C1278 H1268 0.950 . S
C1278 C1279 1.386 . S
C1278 C1280 1.391 . S
C1279 C1278 1.386 . S
C1279 C1283 1.393 . S
C1280 H1269 0.950 . S
C1280 C1278 1.391 . S
C1280 C1281 1.400 . S
C1281 C1275 1.491 1_455 S
C1281 C1280 1.400 . S
C1281 C1282 1.398 . S
C1282 H1270 0.950 . S
C1282 C1281 1.398 . S
C1282 C1283 1.391 . S
C1283 H1271 0.950 . S
C1283 C1279 1.393 . S
C1283 C1282 1.391 . S
H1284 C1292 0.950 . S
H1285 C1297 0.950 . S
H1286 C1294 0.950 . S
H1287 C1296 0.950 . S
H1288 C1298 0.950 . S
H1289 C1300 0.950 . S
H1290 C1302 0.950 . S
H1291 C1303 0.950 . S
C1292 H1284 0.950 . S
C1292 C1293 1.386 . S
C1292 C1294 1.391 . S
C1293 C1292 1.386 . S
C1293 C1297 1.393 . S
C1294 H1286 0.950 . S
C1294 C1292 1.391 . S
C1294 C1295 1.400 . S
C1295 C1294 1.400 . S
C1295 C1296 1.398 . S
C1295 C1301 1.491 . S
C1296 H1287 0.950 . S
C1296 C1295 1.398 . S
C1296 C1297 1.391 . S
C1297 H1285 0.950 . S
C1297 C1293 1.393 . S
C1297 C1296 1.391 . S
C1298 H1288 0.950 . S
C1298 C1299 1.386 . S
C1298 C1300 1.391 . S
C1299 C1298 1.386 . S
C1299 C1303 1.393 . S
C1300 H1289 0.950 . S
C1300 C1298 1.391 . S
C1300 C1301 1.400 . S
C1301 C1295 1.491 . S
C1301 C1300 1.400 . S
C1301 C1302 1.398 . S
C1302 H1290 0.950 . S
C1302 C1301 1.398 . S
C1302 C1303 1.391 . S
C1303 H1291 0.950 . S
C1303 C1299 1.393 . S
C1303 C1302 1.391 . S
H1304 C1312 0.950 . S
H1305 C1317 0.950 . S
H1306 C1314 0.950 . S
H1307 C1316 0.961 . S
H1308 C1318 0.950 . S
H1309 C1320 0.950 . S
H1310 C1322 0.960 . S
H1311 C1323 0.950 . S
C1312 H1304 0.950 . S
C1312 C1313 1.386 . S
C1312 C1314 1.391 . S
C1313 C1312 1.386 . S
C1313 C1317 1.393 . S
C1314 H1306 0.950 . S
C1314 C1312 1.391 . S
C1314 C1315 1.400 . S
C1315 C1314 1.400 . S
C1315 C1316 1.398 . S
C1315 C1321 1.491 1_545 S
C1316 H1307 0.961 . S
C1316 C1315 1.398 . S
C1316 C1317 1.391 . S
C1317 H1305 0.950 . S
C1317 C1313 1.393 . S
C1317 C1316 1.391 . S
C1318 H1308 0.950 . S
C1318 C1319 1.386 . S
C1318 C1320 1.391 . S
C1319 C1318 1.386 . S
C1319 C1323 1.393 . S
C1320 H1309 0.950 . S
C1320 C1318 1.391 . S
C1320 C1321 1.400 . S
C1321 C1315 1.491 1_565 S
C1321 C1320 1.400 . S
C1321 C1322 1.398 . S
C1322 H1310 0.960 . S
C1322 C1321 1.398 . S
C1322 C1323 1.391 . S
C1323 H1311 0.950 . S
C1323 C1319 1.393 . S
C1323 C1322 1.391 . S
H1324 C1332 0.950 . S
H1325 C1337 0.950 . S
H1326 C1334 0.950 . S
H1327 C1336 0.950 1_455 S
H1328 C1338 0.950 . S
H1329 C1340 0.950 . S
H1330 C1342 0.950 1_655 S
H1331 C1343 0.950 . S
C1332 H1324 0.950 . S
C1332 C1333 1.386 . S
C1332 C1334 1.391 . S
C1333 C1332 1.386 . S
C1333 C1337 1.393 . S
C1334 H1326 0.950 . S
C1334 C1332 1.391 . S
C1334 C1335 1.400 . S
C1335 C1334 1.400 . S
C1335 C1336 1.398 . S
C1335 C1341 1.491 1_655 S
C1336 H1327 0.950 1_655 S
C1336 C1335 1.398 . S
C1336 C1337 1.391 . S
C1337 H1325 0.950 . S
C1337 C1333 1.393 . S
C1337 C1336 1.391 . S
C1338 H1328 0.950 . S
C1338 C1339 1.386 . S
C1338 C1340 1.391 . S
C1339 C1338 1.386 . S
C1339 C1343 1.393 . S
C1340 H1329 0.950 . S
C1340 C1338 1.391 . S
C1340 C1341 1.400 . S
C1341 C1335 1.491 1_455 S
C1341 C1340 1.400 . S
C1341 C1342 1.398 . S
C1342 H1330 0.950 1_455 S
C1342 C1341 1.398 . S
C1342 C1343 1.391 . S
C1343 H1331 0.950 . S
C1343 C1339 1.393 . S
C1343 C1342 1.391 . S
H1344 C1352 0.950 . S
H1345 C1357 0.950 . S
H1346 C1354 0.950 . S
H1347 C1356 0.950 . S
H1348 C1358 0.950 . S
H1349 C1360 0.950 . S
H1350 C1362 0.950 . S
H1351 C1363 0.950 . S
C1352 H1344 0.950 . S
C1352 C1353 1.386 . S
C1352 C1354 1.391 . S
C1353 C1352 1.386 . S
C1353 C1357 1.393 . S
C1354 H1346 0.950 . S
C1354 C1352 1.391 . S
C1354 C1355 1.400 . S
C1355 C1354 1.400 . S
C1355 C1356 1.398 . S
C1355 C1361 1.491 . S
C1356 H1347 0.950 . S
C1356 C1355 1.398 . S
C1356 C1357 1.391 . S
C1357 H1345 0.950 . S
C1357 C1353 1.393 . S
C1357 C1356 1.391 . S
C1358 H1348 0.950 . S
C1358 C1359 1.386 . S
C1358 C1360 1.391 . S
C1359 C1358 1.386 . S
C1359 C1363 1.393 . S
C1360 H1349 0.950 . S
C1360 C1358 1.391 . S
C1360 C1361 1.400 . S
C1361 C1355 1.491 . S
C1361 C1360 1.400 . S
C1361 C1362 1.398 . S
C1362 H1350 0.950 . S
C1362 C1361 1.398 . S
C1362 C1363 1.391 . S
C1363 H1351 0.950 . S
C1363 C1359 1.393 . S
C1363 C1362 1.391 . S
H1364 C1372 0.950 . S
H1365 C1377 0.950 . S
H1366 C1374 0.950 . S
H1367 C1376 0.950 . S
H1368 C1378 0.950 . S
H1369 C1380 0.950 . S
H1370 C1382 0.950 . S
H1371 C1383 0.950 . S
C1372 H1364 0.950 . S
C1372 C1373 1.386 . S
C1372 C1374 1.391 . S
C1373 C1372 1.386 . S
C1373 C1377 1.393 . S
C1374 H1366 0.950 . S
C1374 C1372 1.391 . S
C1374 C1375 1.400 . S
C1375 C1374 1.400 . S
C1375 C1376 1.398 . S
C1375 C1381 1.491 . S
C1376 H1367 0.950 . S
C1376 C1375 1.398 . S
C1376 C1377 1.391 . S
C1377 H1365 0.950 . S
C1377 C1373 1.393 . S
C1377 C1376 1.391 . S
C1378 H1368 0.950 . S
C1378 C1379 1.386 . S
C1378 C1380 1.391 . S
C1379 C1378 1.386 . S
C1379 C1383 1.393 . S
C1380 H1369 0.950 . S
C1380 C1378 1.391 . S
C1380 C1381 1.400 . S
C1381 C1375 1.491 . S
C1381 C1380 1.400 . S
C1381 C1382 1.398 . S
C1382 H1370 0.950 . S
C1382 C1381 1.398 . S
C1382 C1383 1.391 . S
C1383 H1371 0.950 . S
C1383 C1379 1.393 . S
C1383 C1382 1.391 . S
H1384 C1392 0.950 . S
H1385 C1397 0.950 . S
H1386 C1394 0.950 . S
H1387 C1396 0.950 . S
H1388 C1398 0.950 . S
H1389 C1400 0.950 . S
H1390 C1402 0.950 . S
H1391 C1403 0.950 . S
C1392 H1384 0.950 . S
C1392 C1393 1.386 . S
C1392 C1394 1.391 . S
C1393 C1392 1.386 . S
C1393 C1397 1.393 . S
C1394 H1386 0.950 . S
C1394 C1392 1.391 . S
C1394 C1395 1.400 . S
C1395 C1394 1.400 . S
C1395 C1396 1.398 . S
C1395 C1401 1.491 . S
C1396 H1387 0.950 . S
C1396 C1395 1.398 . S
C1396 C1397 1.391 . S
C1397 H1385 0.950 . S
C1397 C1393 1.393 . S
C1397 C1396 1.391 . S
C1398 H1388 0.950 . S
C1398 C1399 1.386 . S
C1398 C1400 1.391 . S
C1399 C1398 1.386 . S
C1399 C1403 1.393 . S
C1400 H1389 0.950 . S
C1400 C1398 1.391 . S
C1400 C1401 1.400 . S
C1401 C1395 1.491 . S
C1401 C1400 1.400 . S
C1401 C1402 1.398 . S
C1402 H1390 0.950 . S
C1402 C1401 1.398 . S
C1402 C1403 1.391 . S
C1403 H1391 0.950 . S
C1403 C1399 1.393 . S
C1403 C1402 1.391 . S
H1404 C1412 0.950 . S
H1405 C1417 0.950 . S
H1406 C1414 0.950 . S
H1407 C1416 0.950 . S
H1408 C1418 0.950 . S
H1409 C1420 0.950 . S
H1410 C1422 0.950 . S
H1411 C1423 0.950 . S
C1412 H1404 0.950 . S
C1412 C1413 1.386 . S
C1412 C1414 1.391 . S
C1413 C1412 1.386 . S
C1413 C1417 1.393 . S
C1414 H1406 0.950 . S
C1414 C1412 1.391 . S
C1414 C1415 1.400 . S
C1415 C1414 1.400 . S
C1415 C1416 1.398 . S
C1415 C1421 1.491 . S
C1416 H1407 0.950 . S
C1416 C1415 1.398 . S
C1416 C1417 1.391 . S
C1417 H1405 0.950 . S
C1417 C1413 1.393 . S
C1417 C1416 1.391 . S
C1418 H1408 0.950 . S
C1418 C1419 1.386 . S
C1418 C1420 1.391 . S
C1419 C1418 1.386 . S
C1419 C1423 1.393 . S
C1420 H1409 0.950 . S
C1420 C1418 1.391 . S
C1420 C1421 1.400 . S
C1421 C1415 1.491 . S
C1421 C1420 1.400 . S
C1421 C1422 1.398 . S
C1422 H1410 0.950 . S
C1422 C1421 1.398 . S
C1422 C1423 1.391 . S
C1423 H1411 0.950 . S
C1423 C1419 1.393 . S
C1423 C1422 1.391 . S
H1424 C1432 0.950 . S
H1425 C1437 0.950 . S
H1426 C1434 0.950 . S
H1427 C1436 0.950 . S
H1428 C1438 0.950 . S
H1429 C1440 0.950 . S
H1430 C1442 0.950 . S
H1431 C1443 0.950 . S
C1432 H1424 0.950 . S
C1432 C1433 1.386 . S
C1432 C1434 1.391 . S
C1433 C1432 1.386 . S
C1433 C1437 1.393 . S
C1434 H1426 0.950 . S
C1434 C1432 1.391 . S
C1434 C1435 1.400 . S
C1435 C1434 1.400 . S
C1435 C1436 1.398 . S
C1435 C1441 1.491 . S
C1436 H1427 0.950 . S
C1436 C1435 1.398 . S
C1436 C1437 1.391 . S
C1437 H1425 0.950 . S
C1437 C1433 1.393 . S
C1437 C1436 1.391 . S
C1438 H1428 0.950 . S
C1438 C1439 1.386 . S
C1438 C1440 1.391 . S
C1439 C1438 1.386 . S
C1439 C1443 1.393 . S
C1440 H1429 0.950 . S
C1440 C1438 1.391 . S
C1440 C1441 1.400 . S
C1441 C1435 1.491 . S
C1441 C1440 1.400 . S
C1441 C1442 1.398 . S
C1442 H1430 0.950 . S
C1442 C1441 1.398 . S
C1442 C1443 1.391 . S
C1443 H1431 0.950 . S
C1443 C1439 1.393 . S
C1443 C1442 1.391 . S
H1444 C1452 0.950 . S
H1445 C1457 0.950 1_556 S
H1446 C1454 0.950 . S
H1447 C1456 0.950 . S
H1448 C1458 0.950 . S
H1449 C1460 0.950 . S
H1450 C1462 0.950 . S
H1451 C1463 0.950 . S
C1452 H1444 0.950 . S
C1452 C1453 1.386 . S
C1452 C1454 1.391 . S
C1453 C1452 1.386 . S
C1453 C1457 1.393 . S
C1454 H1446 0.950 . S
C1454 C1452 1.391 . S
C1454 C1455 1.400 . S
C1455 C1454 1.400 . S
C1455 C1456 1.398 . S
C1455 C1461 1.491 . S
C1456 H1447 0.950 . S
C1456 C1455 1.398 . S
C1456 C1457 1.391 . S
C1457 H1445 0.950 1_554 S
C1457 C1453 1.393 . S
C1457 C1456 1.391 . S
C1458 H1448 0.950 . S
C1458 C1459 1.386 . S
C1458 C1460 1.391 . S
C1459 C1458 1.386 . S
C1459 C1463 1.393 . S
C1460 H1449 0.950 . S
C1460 C1458 1.391 . S
C1460 C1461 1.400 . S
C1461 C1455 1.491 . S
C1461 C1460 1.400 . S
C1461 C1462 1.398 . S
C1462 H1450 0.950 . S
C1462 C1461 1.398 . S
C1462 C1463 1.391 . S
C1463 H1451 0.950 . S
C1463 C1459 1.393 . S
C1463 C1462 1.391 . S
H1464 C1472 0.950 . S
H1465 C1477 0.950 . S
H1466 C1474 0.950 . S
H1467 C1476 0.950 . S
H1468 C1478 0.950 . S
H1469 C1480 0.950 . S
H1470 C1482 0.950 . S
H1471 C1483 0.950 . S
C1472 H1464 0.950 . S
C1472 C1473 1.386 . S
C1472 C1474 1.391 . S
C1473 C1472 1.386 . S
C1473 C1477 1.393 . S
C1474 H1466 0.950 . S
C1474 C1472 1.391 . S
C1474 C1475 1.400 . S
C1475 C1474 1.400 . S
C1475 C1476 1.398 . S
C1475 C1481 1.491 . S
C1476 H1467 0.950 . S
C1476 C1475 1.398 . S
C1476 C1477 1.391 . S
C1477 H1465 0.950 . S
C1477 C1473 1.393 . S
C1477 C1476 1.391 . S
C1478 H1468 0.950 . S
C1478 C1479 1.386 . S
C1478 C1480 1.391 . S
C1479 C1478 1.386 . S
C1479 C1483 1.393 . S
C1480 H1469 0.950 . S
C1480 C1478 1.391 . S
C1480 C1481 1.400 . S
C1481 C1475 1.491 . S
C1481 C1480 1.400 . S
C1481 C1482 1.398 . S
C1482 H1470 0.950 . S
C1482 C1481 1.398 . S
C1482 C1483 1.391 . S
C1483 H1471 0.950 . S
C1483 C1479 1.393 . S
C1483 C1482 1.391 . S
H1484 C1492 0.950 . S
H1485 C1497 0.950 . S
H1486 C1494 0.950 . S
H1487 C1496 0.950 . S
H1488 C1498 0.950 . S
H1489 C1500 0.950 . S
H1490 C1502 0.950 . S
H1491 C1503 0.950 . S
C1492 H1484 0.950 . S
C1492 C1493 1.386 . S
C1492 C1494 1.391 . S
C1493 C1492 1.386 . S
C1493 C1497 1.393 . S
C1494 H1486 0.950 . S
C1494 C1492 1.391 . S
C1494 C1495 1.400 . S
C1495 C1494 1.400 . S
C1495 C1496 1.398 . S
C1495 C1501 1.491 . S
C1496 H1487 0.950 . S
C1496 C1495 1.398 . S
C1496 C1497 1.391 . S
C1497 H1485 0.950 . S
C1497 C1493 1.393 . S
C1497 C1496 1.391 . S
C1498 H1488 0.950 . S
C1498 C1499 1.386 . S
C1498 C1500 1.391 . S
C1499 C1498 1.386 . S
C1499 C1503 1.393 . S
C1500 H1489 0.950 . S
C1500 C1498 1.391 . S
C1500 C1501 1.400 . S
C1501 C1495 1.491 . S
C1501 C1500 1.400 . S
C1501 C1502 1.398 . S
C1502 H1490 0.950 . S
C1502 C1501 1.398 . S
C1502 C1503 1.391 . S
C1503 H1491 0.950 . S
C1503 C1499 1.393 . S
C1503 C1502 1.391 . S
H1504 C1512 0.950 1_554 S
H1505 C1517 0.950 . S
H1506 C1514 0.950 . S
H1507 C1516 0.950 . S
H1508 C1518 0.950 . S
H1509 C1520 0.950 . S
H1510 C1522 0.950 . S
H1511 C1523 0.950 . S
C1512 H1504 0.950 1_556 S
C1512 C1513 1.386 . S
C1512 C1514 1.391 . S
C1513 C1512 1.386 . S
C1513 C1517 1.393 . S
C1514 H1506 0.950 . S
C1514 C1512 1.391 . S
C1514 C1515 1.400 . S
C1515 C1514 1.400 . S
C1515 C1516 1.398 . S
C1515 C1521 1.491 . S
C1516 H1507 0.950 . S
C1516 C1515 1.398 . S
C1516 C1517 1.391 . S
C1517 H1505 0.950 . S
C1517 C1513 1.393 . S
C1517 C1516 1.391 . S
C1518 H1508 0.950 . S
C1518 C1519 1.386 . S
C1518 C1520 1.391 . S
C1519 C1518 1.386 . S
C1519 C1523 1.393 . S
C1520 H1509 0.950 . S
C1520 C1518 1.391 . S
C1520 C1521 1.400 . S
C1521 C1515 1.491 . S
C1521 C1520 1.400 . S
C1521 C1522 1.398 . S
C1522 H1510 0.950 . S
C1522 C1521 1.398 . S
C1522 C1523 1.391 . S
C1523 H1511 0.950 . S
C1523 C1519 1.393 . S
C1523 C1522 1.391 . S
H1524 C1532 0.950 . S
H1525 C1537 0.950 . S
H1526 C1534 0.950 . S
H1527 C1536 0.950 . S
H1528 C1538 0.950 . S
H1529 C1540 0.950 . S
H1530 C1542 0.950 . S
H1531 C1543 0.950 . S
C1532 H1524 0.950 . S
C1532 C1533 1.386 . S
C1532 C1534 1.391 . S
C1533 C1532 1.386 . S
C1533 C1537 1.393 . S
C1534 H1526 0.950 . S
C1534 C1532 1.391 . S
C1534 C1535 1.400 . S
C1535 C1534 1.400 . S
C1535 C1536 1.398 . S
C1535 C1541 1.491 . S
C1536 H1527 0.950 . S
C1536 C1535 1.398 . S
C1536 C1537 1.391 . S
C1537 H1525 0.950 . S
C1537 C1533 1.393 . S
C1537 C1536 1.391 . S
C1538 H1528 0.950 . S
C1538 C1539 1.386 . S
C1538 C1540 1.391 . S
C1539 C1538 1.386 . S
C1539 C1543 1.393 . S
C1540 H1529 0.950 . S
C1540 C1538 1.391 . S
C1540 C1541 1.400 . S
C1541 C1535 1.491 . S
C1541 C1540 1.400 . S
C1541 C1542 1.398 . S
C1542 H1530 0.950 . S
C1542 C1541 1.398 . S
C1542 C1543 1.391 . S
C1543 H1531 0.950 . S
C1543 C1539 1.393 . S
C1543 C1542 1.391 . S
H1544 C1552 0.950 . S
H1545 C1557 0.950 . S
H1546 C1554 0.950 . S
H1547 C1556 0.950 . S
H1548 C1558 0.950 . S
H1549 C1560 0.950 . S
H1550 C1562 0.950 . S
H1551 C1563 0.950 . S
C1552 H1544 0.950 . S
C1552 C1553 1.386 . S
C1552 C1554 1.391 . S
C1553 C1552 1.386 . S
C1553 C1557 1.393 . S
C1554 H1546 0.950 . S
C1554 C1552 1.391 . S
C1554 C1555 1.400 . S
C1555 C1554 1.400 . S
C1555 C1556 1.398 . S
C1555 C1561 1.491 . S
C1556 H1547 0.950 . S
C1556 C1555 1.398 . S
C1556 C1557 1.391 . S
C1557 H1545 0.950 . S
C1557 C1553 1.393 . S
C1557 C1556 1.391 . S
C1558 H1548 0.950 . S
C1558 C1559 1.386 . S
C1558 C1560 1.391 . S
C1559 C1558 1.386 . S
C1559 C1563 1.393 . S
C1560 H1549 0.950 . S
C1560 C1558 1.391 . S
C1560 C1561 1.400 . S
C1561 C1555 1.491 . S
C1561 C1560 1.400 . S
C1561 C1562 1.398 . S
C1562 H1550 0.950 . S
C1562 C1561 1.398 . S
C1562 C1563 1.391 . S
C1563 H1551 0.950 . S
C1563 C1559 1.393 . S
C1563 C1562 1.391 . S
H1564 C1572 0.950 . S
H1565 C1577 0.950 . S
H1566 C1574 0.950 . S
H1567 C1576 0.950 . S
H1568 C1578 0.950 . S
H1569 C1580 0.950 . S
H1570 C1582 0.950 . S
H1571 C1583 0.950 . S
C1572 H1564 0.950 . S
C1572 C1573 1.386 . S
C1572 C1574 1.391 . S
C1573 C1572 1.386 . S
C1573 C1577 1.393 . S
C1574 H1566 0.950 . S
C1574 C1572 1.391 . S
C1574 C1575 1.400 . S
C1575 C1574 1.400 . S
C1575 C1576 1.398 . S
C1575 C1581 1.491 . S
C1576 H1567 0.950 . S
C1576 C1575 1.398 . S
C1576 C1577 1.391 . S
C1577 H1565 0.950 . S
C1577 C1573 1.393 . S
C1577 C1576 1.391 . S
C1578 H1568 0.950 . S
C1578 C1579 1.386 . S
C1578 C1580 1.391 . S
C1579 C1578 1.386 . S
C1579 C1583 1.393 . S
C1580 H1569 0.950 . S
C1580 C1578 1.391 . S
C1580 C1581 1.400 . S
C1581 C1575 1.491 . S
C1581 C1580 1.400 . S
C1581 C1582 1.398 . S
C1582 H1570 0.950 . S
C1582 C1581 1.398 . S
C1582 C1583 1.391 . S
C1583 H1571 0.950 . S
C1583 C1579 1.393 . S
C1583 C1582 1.391 . S
H1584 C1592 0.950 . S
H1585 C1597 0.950 . S
H1586 C1594 0.950 . S
H1587 C1596 0.950 . S
H1588 C1598 0.950 . S
H1589 C1600 0.950 . S
H1590 C1602 0.950 . S
H1591 C1603 0.950 . S
C1592 H1584 0.950 . S
C1592 C1593 1.386 . S
C1592 C1594 1.391 . S
C1593 C1592 1.386 . S
C1593 C1597 1.393 . S
C1594 H1586 0.950 . S
C1594 C1592 1.391 . S
C1594 C1595 1.400 . S
C1595 C1594 1.400 . S
C1595 C1596 1.398 . S
C1595 C1601 1.491 . S
C1596 H1587 0.950 . S
C1596 C1595 1.398 . S
C1596 C1597 1.391 . S
C1597 H1585 0.950 . S
C1597 C1593 1.393 . S
C1597 C1596 1.391 . S
C1598 H1588 0.950 . S
C1598 C1599 1.386 . S
C1598 C1600 1.391 . S
C1599 C1598 1.386 . S
C1599 C1603 1.393 . S
C1600 H1589 0.950 . S
C1600 C1598 1.391 . S
C1600 C1601 1.400 . S
C1601 C1595 1.491 . S
C1601 C1600 1.400 . S
C1601 C1602 1.398 . S
C1602 H1590 0.950 . S
C1602 C1601 1.398 . S
C1602 C1603 1.391 . S
C1603 H1591 0.950 . S
C1603 C1599 1.393 . S
C1603 C1602 1.391 . S
H1604 C1612 0.950 . S
H1605 C1617 0.950 . S
H1606 C1614 0.950 . S
H1607 C1616 0.950 . S
H1608 C1618 0.950 . S
H1609 C1620 0.950 . S
H1610 C1622 0.950 . S
H1611 C1623 0.950 . S
C1612 H1604 0.950 . S
C1612 C1613 1.386 . S
C1612 C1614 1.391 . S
C1613 C1612 1.386 . S
C1613 C1617 1.393 . S
C1614 H1606 0.950 . S
C1614 C1612 1.391 . S
C1614 C1615 1.400 . S
C1615 C1614 1.400 . S
C1615 C1616 1.398 . S
C1615 C1621 1.491 . S
C1616 H1607 0.950 . S
C1616 C1615 1.398 . S
C1616 C1617 1.391 . S
C1617 H1605 0.950 . S
C1617 C1613 1.393 . S
C1617 C1616 1.391 . S
C1618 H1608 0.950 . S
C1618 C1619 1.386 . S
C1618 C1620 1.391 . S
C1619 C1618 1.386 . S
C1619 C1623 1.393 . S
C1620 H1609 0.950 . S
C1620 C1618 1.391 . S
C1620 C1621 1.400 . S
C1621 C1615 1.491 . S
C1621 C1620 1.400 . S
C1621 C1622 1.398 . S
C1622 H1610 0.950 . S
C1622 C1621 1.398 . S
C1622 C1623 1.391 . S
C1623 H1611 0.950 . S
C1623 C1619 1.393 . S
C1623 C1622 1.391 . S
H1624 C1632 0.950 . S
H1625 C1637 0.950 . S
H1626 C1634 0.950 . S
H1627 C1636 0.950 . S
H1628 C1638 0.950 . S
H1629 C1640 0.950 . S
H1630 C1642 0.950 . S
H1631 C1643 0.950 . S
C1632 H1624 0.950 . S
C1632 C1633 1.386 . S
C1632 C1634 1.391 . S
C1633 C1632 1.386 . S
C1633 C1637 1.393 . S
C1634 H1626 0.950 . S
C1634 C1632 1.391 . S
C1634 C1635 1.400 . S
C1635 C1634 1.400 . S
C1635 C1636 1.398 . S
C1635 C1641 1.491 . S
C1636 H1627 0.950 . S
C1636 C1635 1.398 . S
C1636 C1637 1.391 . S
C1637 H1625 0.950 . S
C1637 C1633 1.393 . S
C1637 C1636 1.391 . S
C1638 H1628 0.950 . S
C1638 C1639 1.386 . S
C1638 C1640 1.391 . S
C1639 C1638 1.386 . S
C1639 C1643 1.393 . S
C1640 H1629 0.950 . S
C1640 C1638 1.391 . S
C1640 C1641 1.400 . S
C1641 C1635 1.491 . S
C1641 C1640 1.400 . S
C1641 C1642 1.398 . S
C1642 H1630 0.950 . S
C1642 C1641 1.398 . S
C1642 C1643 1.391 . S
C1643 H1631 0.950 . S
C1643 C1639 1.393 . S
C1643 C1642 1.391 . S
H1644 C1652 0.950 . S
H1645 C1657 0.950 . S
H1646 C1654 0.950 . S
H1647 C1656 0.950 . S
H1648 C1658 0.950 . S
H1649 C1660 0.950 . S
H1650 C1662 0.950 . S
H1651 C1663 0.950 . S
C1652 H1644 0.950 . S
C1652 C1653 1.386 . S
C1652 C1654 1.391 . S
C1653 C1652 1.386 . S
C1653 C1657 1.393 . S
C1654 H1646 0.950 . S
C1654 C1652 1.391 . S
C1654 C1655 1.400 . S
C1655 C1654 1.400 . S
C1655 C1656 1.398 . S
C1655 C1661 1.491 . S
C1656 H1647 0.950 . S
C1656 C1655 1.398 . S
C1656 C1657 1.391 . S
C1657 H1645 0.950 . S
C1657 C1653 1.393 . S
C1657 C1656 1.391 . S
C1658 H1648 0.950 . S
C1658 C1659 1.386 . S
C1658 C1660 1.391 . S
C1659 C1658 1.386 . S
C1659 C1663 1.393 . S
C1660 H1649 0.950 . S
C1660 C1658 1.391 . S
C1660 C1661 1.400 . S
C1661 C1655 1.491 . S
C1661 C1660 1.400 . S
C1661 C1662 1.398 . S
C1662 H1650 0.950 . S
C1662 C1661 1.398 . S
C1662 C1663 1.391 . S
C1663 H1651 0.950 . S
C1663 C1659 1.393 . S
C1663 C1662 1.391 . S
H1664 C1672 0.950 . S
H1665 C1677 0.950 . S
H1666 C1674 0.950 . S
H1667 C1676 0.950 . S
H1668 C1678 0.950 . S
H1669 C1680 0.950 . S
H1670 C1682 0.950 . S
H1671 C1683 0.950 . S
C1672 H1664 0.950 . S
C1672 C1673 1.386 . S
C1672 C1674 1.391 . S
C1673 C1672 1.386 . S
C1673 C1677 1.393 . S
C1674 H1666 0.950 . S
C1674 C1672 1.391 . S
C1674 C1675 1.400 . S
C1675 C1674 1.400 . S
C1675 C1676 1.398 . S
C1675 C1681 1.491 . S
C1676 H1667 0.950 . S
C1676 C1675 1.398 . S
C1676 C1677 1.391 . S
C1677 H1665 0.950 . S
C1677 C1673 1.393 . S
C1677 C1676 1.391 . S
C1678 H1668 0.950 . S
C1678 C1679 1.386 . S
C1678 C1680 1.391 . S
C1679 C1678 1.386 . S
C1679 C1683 1.393 . S
C1680 H1669 0.950 . S
C1680 C1678 1.391 . S
C1680 C1681 1.400 . S
C1681 C1675 1.491 . S
C1681 C1680 1.400 . S
C1681 C1682 1.398 . S
C1682 H1670 0.950 . S
C1682 C1681 1.398 . S
C1682 C1683 1.391 . S
C1683 H1671 0.950 . S
C1683 C1679 1.393 . S
C1683 C1682 1.391 . S
H1684 C1692 0.950 . S
H1685 C1697 0.950 . S
H1686 C1694 0.950 . S
H1687 C1696 0.950 . S
H1688 C1698 0.950 . S
H1689 C1700 0.950 . S
H1690 C1702 0.950 . S
H1691 C1703 0.950 . S
C1692 H1684 0.950 . S
C1692 C1693 1.386 . S
C1692 C1694 1.391 . S
C1693 C1692 1.386 . S
C1693 C1697 1.393 . S
C1694 H1686 0.950 . S
C1694 C1692 1.391 . S
C1694 C1695 1.400 . S
C1695 C1694 1.400 . S
C1695 C1696 1.398 . S
C1695 C1701 1.491 . S
C1696 H1687 0.950 . S
C1696 C1695 1.398 . S
C1696 C1697 1.391 . S
C1697 H1685 0.950 . S
C1697 C1693 1.393 . S
C1697 C1696 1.391 . S
C1698 H1688 0.950 . S
C1698 C1699 1.386 . S
C1698 C1700 1.391 . S
C1699 C1698 1.386 . S
C1699 C1703 1.393 . S
C1700 H1689 0.950 . S
C1700 C1698 1.391 . S
C1700 C1701 1.400 . S
C1701 C1695 1.491 . S
C1701 C1700 1.400 . S
C1701 C1702 1.398 . S
C1702 H1690 0.950 . S
C1702 C1701 1.398 . S
C1702 C1703 1.391 . S
C1703 H1691 0.950 . S
C1703 C1699 1.393 . S
C1703 C1702 1.391 . S
H1704 C1712 0.950 . S
H1705 C1717 0.950 . S
H1706 C1714 0.950 . S
H1707 C1716 0.950 . S
H1708 C1718 0.950 . S
H1709 C1720 0.950 . S
H1710 C1722 0.950 . S
H1711 C1723 0.950 . S
C1712 H1704 0.950 . S
C1712 C1713 1.386 . S
C1712 C1714 1.391 . S
C1713 C1712 1.386 . S
C1713 C1717 1.393 . S
C1714 H1706 0.950 . S
C1714 C1712 1.391 . S
C1714 C1715 1.400 . S
C1715 C1714 1.400 . S
C1715 C1716 1.398 . S
C1715 C1721 1.491 . S
C1716 H1707 0.950 . S
C1716 C1715 1.398 . S
C1716 C1717 1.391 . S
C1717 H1705 0.950 . S
C1717 C1713 1.393 . S
C1717 C1716 1.391 . S
C1718 H1708 0.950 . S
C1718 C1719 1.386 . S
C1718 C1720 1.391 . S
C1719 C1718 1.386 . S
C1719 C1723 1.393 . S
C1720 H1709 0.950 . S
C1720 C1718 1.391 . S
C1720 C1721 1.400 . S
C1721 C1715 1.491 . S
C1721 C1720 1.400 . S
C1721 C1722 1.398 . S
C1722 H1710 0.950 . S
C1722 C1721 1.398 . S
C1722 C1723 1.391 . S
C1723 H1711 0.950 . S
C1723 C1719 1.393 . S
C1723 C1722 1.391 . S
H1724 C1732 0.950 . S
H1725 C1737 0.950 . S
H1726 C1734 0.950 . S
H1727 C1736 0.950 . S
H1728 C1738 0.950 . S
H1729 C1740 0.950 . S
H1730 C1742 0.950 . S
H1731 C1743 0.950 . S
C1732 H1724 0.950 . S
C1732 C1733 1.386 . S
C1732 C1734 1.391 . S
C1733 C1732 1.386 . S
C1733 C1737 1.393 . S
C1734 H1726 0.950 . S
C1734 C1732 1.391 . S
C1734 C1735 1.400 . S
C1735 C1734 1.400 . S
C1735 C1736 1.398 . S
C1735 C1741 1.491 . S
C1736 H1727 0.950 . S
C1736 C1735 1.398 . S
C1736 C1737 1.391 . S
C1737 H1725 0.950 . S
C1737 C1733 1.393 . S
C1737 C1736 1.391 . S
C1738 H1728 0.950 . S
C1738 C1739 1.386 . S
C1738 C1740 1.391 . S
C1739 C1738 1.386 . S
C1739 C1743 1.393 . S
C1740 H1729 0.950 . S
C1740 C1738 1.391 . S
C1740 C1741 1.400 . S
C1741 C1735 1.491 . S
C1741 C1740 1.400 . S
C1741 C1742 1.398 . S
C1742 H1730 0.950 . S
C1742 C1741 1.398 . S
C1742 C1743 1.391 . S
C1743 H1731 0.950 . S
C1743 C1739 1.393 . S
C1743 C1742 1.391 . S
H1744 C1752 0.950 . S
H1745 C1757 0.950 . S
H1746 C1754 0.950 . S
H1747 C1756 0.950 . S
H1748 C1758 0.950 . S
H1749 C1760 0.950 . S
H1750 C1762 0.950 . S
H1751 C1763 0.950 . S
C1752 H1744 0.950 . S
C1752 C1753 1.386 . S
C1752 C1754 1.391 . S
C1753 C1752 1.386 . S
C1753 C1757 1.393 . S
C1754 H1746 0.950 . S
C1754 C1752 1.391 . S
C1754 C1755 1.400 . S
C1755 C1754 1.400 . S
C1755 C1756 1.398 . S
C1755 C1761 1.491 . S
C1756 H1747 0.950 . S
C1756 C1755 1.398 . S
C1756 C1757 1.391 . S
C1757 H1745 0.950 . S
C1757 C1753 1.393 . S
C1757 C1756 1.391 . S
C1758 H1748 0.950 . S
C1758 C1759 1.386 . S
C1758 C1760 1.391 . S
C1759 C1758 1.386 . S
C1759 C1763 1.393 . S
C1760 H1749 0.950 . S
C1760 C1758 1.391 . S
C1760 C1761 1.400 . S
C1761 C1755 1.491 . S
C1761 C1760 1.400 . S
C1761 C1762 1.398 . S
C1762 H1750 0.950 . S
C1762 C1761 1.398 . S
C1762 C1763 1.391 . S
C1763 H1751 0.950 . S
C1763 C1759 1.393 . S
C1763 C1762 1.391 . S
H1764 C1772 0.950 . S
H1765 C1777 0.950 . S
H1766 C1774 0.950 . S
H1767 C1776 0.950 . S
H1768 C1778 0.950 . S
H1769 C1780 0.950 . S
H1770 C1782 0.950 . S
H1771 C1783 0.950 . S
C1772 H1764 0.950 . S
C1772 C1773 1.386 . S
C1772 C1774 1.391 . S
C1773 C1772 1.386 . S
C1773 C1777 1.393 . S
C1774 H1766 0.950 . S
C1774 C1772 1.391 . S
C1774 C1775 1.400 . S
C1775 C1774 1.400 . S
C1775 C1776 1.398 . S
C1775 C1781 1.491 . S
C1776 H1767 0.950 . S
C1776 C1775 1.398 . S
C1776 C1777 1.391 . S
C1777 H1765 0.950 . S
C1777 C1773 1.393 . S
C1777 C1776 1.391 . S
C1778 H1768 0.950 . S
C1778 C1779 1.386 . S
C1778 C1780 1.391 . S
C1779 C1778 1.386 . S
C1779 C1783 1.393 . S
C1780 H1769 0.950 . S
C1780 C1778 1.391 . S
C1780 C1781 1.400 . S
C1781 C1775 1.491 . S
C1781 C1780 1.400 . S
C1781 C1782 1.398 . S
C1782 H1770 0.950 . S
C1782 C1781 1.398 . S
C1782 C1783 1.391 . S
C1783 H1771 0.950 . S
C1783 C1779 1.393 . S
C1783 C1782 1.391 . S
H1784 C1792 0.950 . S
H1785 C1797 0.950 . S
H1786 C1794 0.950 . S
H1787 C1796 0.950 . S
H1788 C1798 0.950 . S
H1789 C1800 0.950 . S
H1790 C1802 0.950 . S
H1791 C1803 0.950 . S
C1792 H1784 0.950 . S
C1792 C1793 1.386 . S
C1792 C1794 1.391 . S
C1793 C1792 1.386 . S
C1793 C1797 1.393 . S
C1794 H1786 0.950 . S
C1794 C1792 1.391 . S
C1794 C1795 1.400 . S
C1795 C1794 1.400 . S
C1795 C1796 1.398 . S
C1795 C1801 1.491 . S
C1796 H1787 0.950 . S
C1796 C1795 1.398 . S
C1796 C1797 1.391 . S
C1797 H1785 0.950 . S
C1797 C1793 1.393 . S
C1797 C1796 1.391 . S
C1798 H1788 0.950 . S
C1798 C1799 1.386 . S
C1798 C1800 1.391 . S
C1799 C1798 1.386 . S
C1799 C1803 1.393 . S
C1800 H1789 0.950 . S
C1800 C1798 1.391 . S
C1800 C1801 1.400 . S
C1801 C1795 1.491 . S
C1801 C1800 1.400 . S
C1801 C1802 1.398 . S
C1802 H1790 0.950 . S
C1802 C1801 1.398 . S
C1802 C1803 1.391 . S
C1803 H1791 0.950 . S
C1803 C1799 1.393 . S
C1803 C1802 1.391 . S
H1804 C1812 0.950 . S
H1805 C1817 0.950 . S
H1806 C1814 0.950 . S
H1807 C1816 0.950 . S
H1808 C1818 0.950 . S
H1809 C1820 0.950 . S
H1810 C1822 0.950 . S
H1811 C1823 0.950 . S
C1812 H1804 0.950 . S
C1812 C1813 1.386 . S
C1812 C1814 1.391 . S
C1813 C1812 1.386 . S
C1813 C1817 1.393 . S
C1814 H1806 0.950 . S
C1814 C1812 1.391 . S
C1814 C1815 1.400 . S
C1815 C1814 1.400 . S
C1815 C1816 1.398 . S
C1815 C1821 1.491 . S
C1816 H1807 0.950 . S
C1816 C1815 1.398 . S
C1816 C1817 1.391 . S
C1817 H1805 0.950 . S
C1817 C1813 1.393 . S
C1817 C1816 1.391 . S
C1818 H1808 0.950 . S
C1818 C1819 1.386 . S
C1818 C1820 1.391 . S
C1819 C1818 1.386 . S
C1819 C1823 1.393 . S
C1820 H1809 0.950 . S
C1820 C1818 1.391 . S
C1820 C1821 1.400 . S
C1821 C1815 1.491 . S
C1821 C1820 1.400 . S
C1821 C1822 1.398 . S
C1822 H1810 0.950 . S
C1822 C1821 1.398 . S
C1822 C1823 1.391 . S
C1823 H1811 0.950 . S
C1823 C1819 1.393 . S
C1823 C1822 1.391 . S
H1824 C1832 0.950 . S
H1825 C1837 0.950 . S
H1826 C1834 0.950 . S
H1827 C1836 0.950 . S
H1828 C1838 0.950 . S
H1829 C1840 0.950 . S
H1830 C1842 0.950 . S
H1831 C1843 0.950 . S
C1832 H1824 0.950 . S
C1832 C1833 1.386 . S
C1832 C1834 1.391 . S
C1833 C1832 1.386 . S
C1833 C1837 1.393 . S
C1834 H1826 0.950 . S
C1834 C1832 1.391 . S
C1834 C1835 1.400 . S
C1835 C1834 1.400 . S
C1835 C1836 1.398 . S
C1835 C1841 1.491 1_455 S
C1836 H1827 0.950 . S
C1836 C1835 1.398 . S
C1836 C1837 1.391 . S
C1837 H1825 0.950 . S
C1837 C1833 1.393 . S
C1837 C1836 1.391 . S
C1838 H1828 0.950 . S
C1838 C1839 1.386 . S
C1838 C1840 1.391 . S
C1839 C1838 1.386 . S
C1839 C1843 1.393 . S
C1840 H1829 0.950 . S
C1840 C1838 1.391 . S
C1840 C1841 1.400 . S
C1841 C1835 1.491 1_655 S
C1841 C1840 1.400 . S
C1841 C1842 1.398 . S
C1842 H1830 0.950 . S
C1842 C1841 1.398 . S
C1842 C1843 1.391 . S
C1843 H1831 0.950 . S
C1843 C1839 1.393 . S
C1843 C1842 1.391 . S
H1844 C1852 0.950 . S
H1845 C1857 0.950 . S
H1846 C1854 0.950 . S
H1847 C1856 0.950 . S
H1848 C1858 0.950 . S
H1849 C1860 0.950 . S
H1850 C1862 0.950 . S
H1851 C1863 0.950 . S
C1852 H1844 0.950 . S
C1852 C1853 1.386 . S
C1852 C1854 1.391 . S
C1853 C1852 1.386 . S
C1853 C1857 1.393 . S
C1854 H1846 0.950 . S
C1854 C1852 1.391 . S
C1854 C1855 1.400 . S
C1855 C1854 1.400 . S
C1855 C1856 1.398 . S
C1855 C1861 1.491 . S
C1856 H1847 0.950 . S
C1856 C1855 1.398 . S
C1856 C1857 1.391 . S
C1857 H1845 0.950 . S
C1857 C1853 1.393 . S
C1857 C1856 1.391 . S
C1858 H1848 0.950 . S
C1858 C1859 1.386 . S
C1858 C1860 1.391 . S
C1859 C1858 1.386 . S
C1859 C1863 1.393 . S
C1860 H1849 0.950 . S
C1860 C1858 1.391 . S
C1860 C1861 1.400 . S
C1861 C1855 1.491 . S
C1861 C1860 1.400 . S
C1861 C1862 1.398 . S
C1862 H1850 0.950 . S
C1862 C1861 1.398 . S
C1862 C1863 1.391 . S
C1863 H1851 0.950 . S
C1863 C1859 1.393 . S
C1863 C1862 1.391 . S
H1864 C1872 0.950 . S
H1865 C1877 0.950 . S
H1866 C1874 0.950 . S
H1867 C1876 0.950 . S
H1868 C1878 0.950 . S
H1869 C1880 0.950 . S
H1870 C1882 0.950 . S
H1871 C1883 0.950 . S
C1872 H1864 0.950 . S
C1872 C1873 1.386 . S
C1872 C1874 1.391 . S
C1873 C1872 1.386 . S
C1873 C1877 1.393 . S
C1874 H1866 0.950 . S
C1874 C1872 1.391 . S
C1874 C1875 1.400 . S
C1875 C1874 1.400 . S
C1875 C1876 1.398 . S
C1875 C1881 1.491 1_545 S
C1876 H1867 0.950 . S
C1876 C1875 1.398 . S
C1876 C1877 1.391 . S
C1877 H1865 0.950 . S
C1877 C1873 1.393 . S
C1877 C1876 1.391 . S
C1878 H1868 0.950 . S
C1878 C1879 1.386 . S
C1878 C1880 1.391 . S
C1879 C1878 1.386 . S
C1879 C1883 1.393 . S
C1880 H1869 0.950 . S
C1880 C1878 1.391 . S
C1880 C1881 1.400 . S
C1881 C1875 1.491 1_565 S
C1881 C1880 1.400 . S
C1881 C1882 1.398 . S
C1882 H1870 0.950 . S
C1882 C1881 1.398 . S
C1882 C1883 1.391 . S
C1883 H1871 0.950 . S
C1883 C1879 1.393 . S
C1883 C1882 1.391 . S
H1884 C1892 0.950 . S
H1885 C1897 0.950 . S
H1886 C1894 0.950 . S
H1887 C1896 0.950 . S
H1888 C1898 0.950 . S
H1889 C1900 0.950 . S
H1890 C1902 0.950 . S
H1891 C1903 0.950 . S
C1892 H1884 0.950 . S
C1892 C1893 1.386 . S
C1892 C1894 1.391 . S
C1893 C1892 1.386 . S
C1893 C1897 1.393 1_556 S
C1894 H1886 0.950 . S
C1894 C1892 1.391 . S
C1894 C1895 1.400 . S
C1895 C1894 1.400 . S
C1895 C1896 1.398 1_556 S
C1895 C1901 1.491 1_546 S
C1896 H1887 0.950 . S
C1896 C1895 1.398 1_554 S
C1896 C1897 1.391 . S
C1897 H1885 0.950 . S
C1897 C1893 1.393 1_554 S
C1897 C1896 1.391 . S
C1898 H1888 0.950 . S
C1898 C1899 1.386 . S
C1898 C1900 1.391 . S
C1899 C1898 1.386 . S
C1899 C1903 1.393 1_554 S
C1900 H1889 0.950 . S
C1900 C1898 1.391 . S
C1900 C1901 1.400 . S
C1901 C1895 1.491 1_564 S
C1901 C1900 1.400 . S
C1901 C1902 1.398 1_554 S
C1902 H1890 0.950 . S
C1902 C1901 1.398 1_556 S
C1902 C1903 1.391 . S
C1903 H1891 0.950 . S
C1903 C1899 1.393 1_556 S
C1903 C1902 1.391 . S
H1904 C1912 0.968 . S
H1905 C1917 0.950 . S
H1906 C1914 0.950 . S
H1907 C1916 0.950 . S
H1908 C1918 0.950 . S
H1909 C1920 0.950 . S
H1910 C1922 0.950 . S
H1911 C1923 0.950 . S
C1912 H1904 0.968 . S
C1912 C1913 1.359 1_554 S
C1912 C1914 1.400 . S
C1913 C1912 1.359 1_556 S
C1913 C1917 1.393 . S
C1914 H1906 0.950 . S
C1914 C1912 1.400 . S
C1914 C1915 1.400 1_554 S
C1915 C1914 1.400 1_556 S
C1915 C1916 1.398 . S
C1915 C1921 1.491 1_656 S
C1916 H1907 0.950 . S
C1916 C1915 1.398 . S
C1916 C1917 1.391 . S
C1917 H1905 0.950 . S
C1917 C1913 1.393 . S
C1917 C1916 1.391 . S
C1918 H1908 0.950 . S
C1918 C1919 1.386 1_556 S
C1918 C1920 1.391 . S
C1919 C1918 1.386 1_554 S
C1919 C1923 1.393 . S
C1920 H1909 0.950 . S
C1920 C1918 1.391 . S
C1920 C1921 1.400 1_556 S
C1921 C1915 1.491 1_454 S
C1921 C1920 1.400 1_554 S
C1921 C1922 1.398 . S
C1922 H1910 0.950 . S
C1922 C1921 1.398 . S
C1922 C1923 1.391 . S
C1923 H1911 0.950 . S
C1923 C1919 1.393 . S
C1923 C1922 1.391 . S
H1924 C1932 0.950 . S
H1925 C1937 0.950 . S
H1926 C1934 0.950 . S
H1927 C1936 0.950 . S
H1928 C1938 0.950 . S
H1929 C1940 0.950 . S
H1930 C1942 0.950 . S
H1931 C1943 0.950 . S
C1932 H1924 0.950 . S
C1932 C1933 1.386 . S
C1932 C1934 1.391 . S
C1933 C1932 1.386 . S
C1933 C1937 1.393 . S
C1934 H1926 0.950 . S
C1934 C1932 1.391 . S
C1934 C1935 1.400 . S
C1935 C1934 1.400 . S
C1935 C1936 1.398 . S
C1935 C1941 1.491 . S
C1936 H1927 0.950 . S
C1936 C1935 1.398 . S
C1936 C1937 1.391 . S
C1937 H1925 0.950 . S
C1937 C1933 1.393 . S
C1937 C1936 1.391 . S
C1938 H1928 0.950 . S
C1938 C1939 1.386 . S
C1938 C1940 1.391 1_554 S
C1939 C1938 1.386 . S
C1939 C1943 1.393 . S
C1940 H1929 0.950 . S
C1940 C1938 1.391 1_556 S
C1940 C1941 1.400 . S
C1941 C1935 1.491 . S
C1941 C1940 1.400 . S
C1941 C1942 1.398 1_556 S
C1942 H1930 0.950 . S
C1942 C1941 1.398 1_554 S
C1942 C1943 1.391 . S
C1943 H1931 0.950 . S
C1943 C1939 1.393 . S
C1943 C1942 1.391 . S
C513 C11 1.098 . S
C519 C102 1.108 . S
C533 C19 1.132 . S
C539 C116 1.181 . S
C553 C88 1.138 . S
C559 C33 1.086 . S
C573 C158 1.152 . S
C579 C47 1.081 . S
C593 C61 1.141 . S
C599 C130 1.191 . S
C613 C81 1.060 . S
C619 C144 1.121 . S
C633 C18 1.014 . S
C639 C89 0.979 . S
C653 C32 1.123 . S
C659 C103 1.073 . S
C673 C117 0.983 . S
C679 C12 1.047 . S
C693 C131 1.006 . S
C699 C82 1.042 . S
C713 C46 1.123 . S
C719 C145 1.048 . S
C733 C159 0.984 . S
C739 C60 1.033 . S
C753 C270 1.124 . S
C759 C179 1.062 . S
C773 C187 1.098 . S
C779 C284 1.178 . S
C793 C201 1.084 . S
C799 C256 1.152 . S
C813 C326 1.143 . S
C819 C215 1.057 . S
C833 C229 1.142 . S
C839 C298 1.190 . S
C853 C312 1.107 . S
C859 C249 1.082 . S
C873 C186 1.028 . S
C879 C257 0.997 . S
C893 C271 1.083 . S
C899 C200 1.141 . S
C913 C180 1.035 . S
C919 C285 0.993 . S
C933 C299 0.968 . S
C939 C250 1.032 . S
C953 C313 1.081 . S
C959 C214 1.141 . S
C973 C327 0.997 . S
C979 C228 1.030 . S
C993 C438 1.115 . S
C999 C347 1.063 . S
C1013 C452 1.176 . S
C1019 C355 1.108 . S
C1033 C424 1.133 . S
C1039 C369 1.065 . S
C1053 C383 1.095 . S
C1059 C494 1.143 . S
C1073 C397 1.115 . S
C1079 C466 1.191 . S
C1093 C480 1.113 . S
C1099 C417 1.099 . S
C1113 C425 0.970 . S
C1119 C354 1.011 . S
C1133 C368 1.122 . S
C1139 C439 1.069 . S
C1153 C348 1.047 . S
C1159 C453 0.995 . S
C1173 C467 0.953 . S
C1179 C418 1.037 . S
C1193 C481 1.059 . S
C1199 C382 1.136 . S
C1213 C495 0.960 . S
C1219 C396 1.009 . S
C1233 C54 1.481 . S
C1239 C4 1.414 . S
C1253 C68 1.437 . S
C1259 C26 1.440 . S
C1273 C40 1.472 . S
C1279 C74 1.393 . S
C1293 C138 1.399 . S
C1299 C96 1.393 . S
C1313 C152 1.462 . S
C1319 C110 1.456 . S
C1333 C166 1.386 . S
C1339 C124 1.380 . S
C1353 C222 1.465 . S
C1359 C172 1.382 . S
C1373 C236 1.448 . S
C1379 C194 1.440 . S
C1393 C208 1.482 . S
C1399 C242 1.414 . S
C1413 C306 1.395 . S
C1419 C264 1.397 . S
C1433 C320 1.475 . S
C1439 C278 1.478 . S
C1453 C334 1.375 1_554 S
C1459 C292 1.377 . S
C1473 C390 1.463 . S
C1479 C340 1.380 . S
C1493 C362 1.452 . S
C1499 C404 1.460 . S
C1513 C410 1.395 1_556 S
C1519 C376 1.467 . S
C1533 C432 1.384 . S
C1539 C474 1.379 . S
C1553 C446 1.464 . S
C1559 C488 1.473 . S
C1573 C460 1.396 . S
C1579 C502 1.396 . S
C1593 C5 1.215 . S
C1599 C263 1.403 . S
C1613 C277 1.418 . S
C1619 C25 1.420 . S
C1633 C291 1.431 . S
C1639 C39 1.430 . S
C1653 C473 1.423 . S
C1659 C53 1.422 . S
C1673 C487 1.418 . S
C1679 C67 1.420 . S
C1693 C501 1.387 . S
C1699 C75 1.265 . S
C1713 C95 1.402 . S
C1719 C341 1.237 . S
C1733 C361 1.408 . S
C1739 C109 1.406 . S
C1753 C375 1.410 . S
C1759 C123 1.411 . S
C1773 C137 1.416 . S
C1779 C221 1.414 . S
C1793 C151 1.398 . S
C1799 C235 1.400 . S
C1813 C165 1.405 . S
C1819 C243 1.226 . S
C1833 C431 1.382 . S
C1839 C173 1.262 . S
C1853 C445 1.417 . S
C1859 C193 1.419 . S
C1873 C207 1.417 . S
C1879 C459 1.418 . S
C1893 C305 1.428 . S
C1899 C389 1.427 . S
C1913 C319 1.399 . S
C1919 C403 1.401 . S
C1933 C333 1.399 . S
C1939 C411 1.217 . S
