# Generated by pormake.
# Topology snp, (6)-cn, num edge types: 1
# Building blocks:
#     Node 0, Type 0, BuildingBlock: LEVNOQ01_clean_sbu_1, # of connection points: 6
#     Node 1, Type 0, BuildingBlock: LEVNOQ01_clean_sbu_1, # of connection points: 6
#     Node 2, Type 0, BuildingBlock: LEVNOQ01_clean_sbu_1, # of connection points: 6
#     Node 3, Type 0, BuildingBlock: LEVNOQ01_clean_sbu_1, # of connection points: 6
#     Edge 4, Type (0, 0), BuildingBlock: XIVTED_clean_linker_0, # of connection points: 2
#     Edge 5, Type (0, 0), BuildingBlock: XIVTED_clean_linker_0, # of connection points: 2
#     Edge 6, Type (0, 0), BuildingBlock: XIVTED_clean_linker_0, # of connection points: 2
#     Edge 7, Type (0, 0), BuildingBlock: XIVTED_clean_linker_0, # of connection points: 2
#     Edge 8, Type (0, 0), BuildingBlock: XIVTED_clean_linker_0, # of connection points: 2
#     Edge 9, Type (0, 0), BuildingBlock: XIVTED_clean_linker_0, # of connection points: 2
#     Edge 10, Type (0, 0), BuildingBlock: XIVTED_clean_linker_0, # of connection points: 2
#     Edge 11, Type (0, 0), BuildingBlock: XIVTED_clean_linker_0, # of connection points: 2
#     Edge 12, Type (0, 0), BuildingBlock: XIVTED_clean_linker_0, # of connection points: 2
#     Edge 13, Type (0, 0), BuildingBlock: XIVTED_clean_linker_0, # of connection points: 2
#     Edge 14, Type (0, 0), BuildingBlock: XIVTED_clean_linker_0, # of connection points: 2
#     Edge 15, Type (0, 0), BuildingBlock: XIVTED_clean_linker_0, # of connection points: 2
# Relax obj value: 0.509
# Max RMSD: 0.249
# Mean RMSD: 0.247
data_MOF--net-snp--node1-LEVNOQ01_clean_sbu_1--edge1-XIVTED_clean_linker_0
_symmetry_space_group_name_H-M    P1
_symmetry_Int_Tables_number       1
_symmetry_cell_setting            triclinic
loop_
_symmetry_equiv_pos_as_xyz
'x, y, z'
_cell_length_a     29.51255
_cell_length_b     29.819876
_cell_length_c     23.761681
_cell_angle_alpha  98.444573
_cell_angle_beta   98.249004
_cell_angle_gamma 90.451803
loop_
_atom_site_label
_atom_site_type_symbol
_atom_site_fract_x
_atom_site_fract_y
_atom_site_fract_z
_atom_type_partial_charge
O0 O 0.18043 0.0578 0.0583 0.0
Mg1 Mg 0.13393 0.00204 1.02451 0.0
O2 O 0.22253 0.00193 0.03729 0.0
Mg3 Mg 0.1986 -0.04033 0.10743 0.0
O4 O 0.12343 -0.03586 0.08545 0.0
O5 O 0.0775 0.01823 0.06552 0.0
O6 O 0.1768 0.91069 0.17051 0.0
O7 O 0.19442 0.02494 0.17659 0.0
Mg8 Mg 0.26948 -0.03774 0.22099 0.0
O9 O 0.27495 -0.04657 0.13514 0.0
O10 O 0.23183 0.90981 0.2444 0.0
O11 O 0.25052 0.02856 0.24968 0.0
O12 O 0.33456 -0.04812 0.20459 0.0
C13 C 0.17046 0.90324 0.98092 0.0
C14 C 0.21228 0.04262 0.0324 0.0
C15 C 0.08969 -0.01173 0.09805 0.0
C16 C 0.19307 0.89591 0.21708 0.0
C17 C 0.21547 0.04547 0.22439 0.0
C18 C 0.3184 -0.05013 0.15083 0.0
O19 O 0.1503 -0.0604 0.96946 0.0
O20 O 0.19148 0.90001 0.03154 0.0
O21 O 0.92108 0.2077 0.73637 0.0
Mg22 Mg -0.02238 0.23697 0.71041 0.0
O23 O 0.92131 0.15524 0.66069 0.0
Mg24 Mg -0.0254 0.17745 0.60269 0.0
O25 O -0.03314 0.25628 0.62969 0.0
O26 O -0.0297 0.30325 0.71394 0.0
O27 O 0.02709 0.19541 0.53929 0.0
O28 O 0.91241 0.17598 0.52577 0.0
Mg29 Mg -0.01032 0.09122 0.49672 0.0
O30 O -0.01759 0.10632 0.57818 0.0
O31 O 0.04879 0.1294 0.49469 0.0
O32 O 0.92669 0.11718 0.4603 0.0
O33 O -0.00989 0.0358 0.54306 0.0
C34 C 0.059 0.1858 0.72189 0.0
C35 C 0.90521 0.17093 0.70665 0.0
C36 C -0.0355 0.29687 0.65847 0.0
C37 C 0.05289 0.1722 0.50712 0.0
C38 C 0.90176 0.1497 0.47733 0.0
C39 C -0.01739 0.06517 0.58599 0.0
O40 O 0.04345 0.22122 0.74729 0.0
O41 O 0.03804 0.16723 0.67318 0.0
O42 O 0.68243 -0.02123 0.8942 0.0
Mg43 Mg 0.64894 0.9208 0.91135 0.0
O44 O 0.73815 -0.02563 0.96642 0.0
Mg45 Mg 0.71852 0.92291 0.02653 0.0
O46 O 0.64193 0.92675 0.99641 0.0
O47 O 0.58297 0.92591 0.92532 0.0
O48 O 0.70286 0.87087 0.08981 0.0
O49 O 0.71587 -0.01405 0.10281 0.0
Mg50 Mg 0.8082 0.92276 0.13709 0.0
O51 O 0.78997 0.91731 0.05328 0.0
O52 O 0.76621 0.87126 0.15498 0.0
O53 O 0.78309 -0.0125 0.16151 0.0
O54 O 0.86165 0.91077 0.08591 0.0
C55 C 0.70887 0.8413 0.90492 0.0
C56 C 0.72111 -0.00802 0.92231 0.0
C57 C 0.59847 0.92893 0.97939 0.0
C58 C 0.72583 0.85677 0.13386 0.0
C59 C 0.74486 0.00475 0.14601 0.0
C60 C 0.83038 0.91142 0.04226 0.0
O61 O 0.67288 0.85682 0.87988 0.0
O62 O 0.72829 0.86108 0.95411 0.0
O63 O 0.87035 0.64343 0.3751 0.0
Mg64 Mg 0.93628 0.6342 0.41764 0.0
O65 O 0.87153 0.69744 0.44807 0.0
Mg66 Mg 0.93633 0.69491 0.51828 0.0
O67 O -0.05414 0.61532 0.49967 0.0
O68 O -0.0542 0.56861 0.41574 0.0
O69 O -0.00802 0.70839 0.59986 0.0
O70 O 0.89125 0.67486 0.5874 0.0
Mg71 Mg 0.88358 0.76161 0.5866 0.0
O72 O 0.92859 0.76963 0.53172 0.0
O73 O -0.0552 0.75283 0.64842 0.0
O74 O 0.83187 0.70965 0.55733 0.0
O75 O 0.86727 0.80961 0.53243 0.0
C76 C 0.00565 0.70003 0.41296 0.0
C77 C 0.85177 0.67724 0.39971 0.0
C78 C -0.05114 0.57477 0.47098 0.0
C79 C -0.0164 0.73369 0.64602 0.0
C80 C 0.84926 0.68277 0.58948 0.0
C81 C 0.90371 0.79961 0.51017 0.0
O82 O -0.0091 0.66193 0.38612 0.0
O83 O -0.01064 0.71638 0.45855 0.0
H84 H 0.86361 0.84487 0.96569 0.0
H85 H 0.02171 0.02927 0.15466 0.0
H86 H 0.8331 -0.01455 0.98624 0.0
H87 H 0.06976 0.89756 0.09794 0.0
H88 H -0.05028 0.0109 0.09065 0.0
H89 H -0.05546 0.86415 0.98534 0.0
C90 C 0.87378 0.88031 0.9703 0.0
C91 C 0.84309 0.91396 0.98564 0.0
C92 C -0.02377 -0.01399 0.09149 0.0
C93 C 0.93327 -0.06362 1.00672 0.0
C94 C 0.0163 -0.00448 0.13025 0.0
C95 C 0.05345 -0.03237 0.1226 0.0
C96 C -0.02714 -0.0543 0.05182 0.0
C97 C 0.0432 0.92243 0.09789 0.0
C98 C 0.92041 0.89126 0.98363 0.0
C99 C 0.85722 -0.04163 0.98308 0.0
N100 N 0.0046 0.91341 0.05928 0.0
N101 N 0.9022 -0.03057 1.00005 0.0
H102 H -0.00435 0.82283 0.52518 0.0
H103 H 0.89351 0.06285 0.60765 0.0
H104 H 0.86554 0.86511 0.44846 0.0
H105 H 0.02596 0.02623 0.68004 0.0
H106 H 0.87396 -0.0166 0.57027 0.0
H107 H 0.00858 0.89689 0.58411 0.0
C108 C -0.02956 0.84849 0.51873 0.0
C109 C 0.92631 0.8366 0.48936 0.0
C110 C 0.90743 -0.00767 0.59493 0.0
C111 C -0.0592 0.92029 0.55426 0.0
C112 C 0.91828 0.03752 0.61787 0.0
C113 C -0.03528 0.04996 0.63437 0.0
C114 C -0.05701 -0.03877 0.59705 0.0
C115 C -0.00794 0.01701 0.65706 0.0
C116 C -0.02292 0.89011 0.55428 0.0
C117 C 0.89796 0.87218 0.47637 0.0
N118 N -0.01702 -0.02677 0.63276 0.0
N119 N 0.90389 0.91216 0.51225 0.0
H120 H 0.56808 0.00729 0.02973 0.0
H121 H 0.34226 0.87833 0.0784 0.0
H122 H 0.55183 0.86204 1.01201 0.0
H123 H 0.36991 0.02077 0.13772 0.0
H124 H 0.41478 0.87408 0.03912 0.0
H125 H 0.49374 0.01513 0.06421 0.0
C126 C 0.54948 -0.02278 0.03557 0.0
C127 C 0.56569 -0.06593 1.01935 0.0
C128 C 0.40461 0.90646 0.05987 0.0
C129 C 0.48056 -0.05771 0.05502 0.0
C130 C 0.36299 0.90894 0.08106 0.0
C131 C 0.35075 -0.05008 0.11055 0.0
C132 C 0.43374 -0.05479 0.06915 0.0
C133 C 0.37863 -0.01129 0.11453 0.0
C134 C 0.50687 -0.01844 0.05401 0.0
C135 C 0.5403 0.89582 1.02533 0.0
N136 N 0.41937 -0.01463 0.0946 0.0
N137 N 0.4985 0.90078 0.04218 0.0
H138 H -0.0527 0.38214 0.70703 0.0
H139 H -0.03563 0.48886 0.42336 0.0
H140 H -0.03817 0.30251 0.54369 0.0
H141 H -0.06093 0.5679 0.58277 0.0
H142 H -0.03787 0.4204 0.46668 0.0
H143 H -0.05925 0.44986 0.66139 0.0
C144 C -0.05105 0.37882 0.66136 0.0
C145 C -0.04397 0.33671 0.62917 0.0
C146 C -0.04291 0.45263 0.4923 0.0
C147 C -0.05137 0.4144 0.57685 0.0
C148 C -0.04139 0.49191 0.46776 0.0
C149 C -0.048 0.53426 0.49967 0.0
C150 C -0.05083 0.45556 0.54936 0.0
C151 C -0.05529 0.53599 0.55686 0.0
C152 C -0.05488 0.41762 0.63539 0.0
C153 C -0.04301 0.33441 0.57013 0.0
N154 N -0.05653 0.49703 0.57998 0.0
N155 N -0.04622 0.37295 0.54587 0.0
H156 H 0.02258 0.19619 0.40412 0.0
H157 H 0.25854 0.10532 0.31428 0.0
H158 H 0.14566 0.18673 0.52249 0.0
H159 H 0.12713 0.07616 0.2085 0.0
H160 H 0.22267 0.15927 0.3805 0.0
H161 H 0.06607 0.1788 0.32379 0.0
C162 C 0.05944 0.19363 0.4134 0.0
C163 C 0.08048 0.19279 0.47018 0.0
C164 C 0.2018 0.14184 0.3422 0.0
C165 C 0.13039 0.17181 0.37839 0.0
C166 C 0.22226 0.111 0.30421 0.0
C167 C 0.19576 0.08562 0.25603 0.0
C168 C 0.15433 0.14757 0.33225 0.0
C169 C 0.14894 0.09485 0.2451 0.0
C170 C 0.08405 0.18256 0.36735 0.0
C171 C 0.12808 0.18792 0.4795 0.0
N172 N 0.12957 0.12453 0.28346 0.0
N173 N 0.15126 0.17663 0.43409 0.0
H174 H 0.82854 0.20025 0.75165 0.0
H175 H 0.80132 -0.02818 0.88486 0.0
H176 H 0.91032 0.08277 0.72167 0.0
H177 H 0.70202 0.07649 0.89424 0.0
H178 H 0.84417 0.01554 0.83008 0.0
H179 H 0.78226 0.1582 0.80594 0.0
C180 C 0.83587 0.16513 0.75512 0.0
C181 C 0.87223 0.14419 0.73032 0.0
C182 C 0.81341 0.0295 0.84469 0.0
C183 C 0.82073 0.09657 0.7937 0.0
C184 C 0.78967 0.00502 0.87732 0.0
C185 C 0.74954 0.02169 0.89643 0.0
C186 C 0.7965 0.07083 0.83011 0.0
C187 C 0.73364 0.0632 0.88145 0.0
C188 C 0.80968 0.14129 0.7863 0.0
C189 C 0.88116 0.0992 0.73726 0.0
N190 N 0.75729 0.08656 0.84925 0.0
N191 N 0.85585 0.07701 0.76852 0.0
H192 H 0.81622 0.7616 0.42505 0.0
H193 H 0.7191 0.765 0.104 0.0
H194 H 0.79805 0.63994 0.3 0.0
H195 H 0.69801 0.87326 0.23785 0.0
H196 H 0.73414 0.71414 0.176 0.0
H197 H 0.76288 0.79978 0.36055 0.0
C198 C 0.80009 0.74248 0.38476 0.0
C199 C 0.81214 0.69756 0.36769 0.0
C200 C 0.72444 0.74855 0.18955 0.0
C201 C 0.75125 0.74133 0.29317 0.0
C202 C 0.71487 0.77735 0.14808 0.0
C203 C 0.70726 0.82336 0.16498 0.0
C204 C 0.72733 0.76631 0.24824 0.0
C205 C 0.70354 0.83787 0.22308 0.0
C206 C 0.76958 0.76436 0.34781 0.0
C207 C 0.79026 0.67473 0.31469 0.0
N208 N 0.71514 0.80995 0.26292 0.0
N209 N 0.76158 0.69706 0.27896 0.0
H210 H 0.07728 0.71564 0.66015 0.0
H211 H 0.12338 0.82621 0.98828 0.0
H212 H -0.02784 0.77951 0.75054 0.0
H213 H 0.19188 0.89003 0.87126 0.0
H214 H 0.08509 0.77257 0.9065 0.0
H215 H 0.13493 0.74543 0.74422 0.0
C216 C 0.06613 0.73524 0.69751 0.0
C217 C 0.01952 0.74519 0.69769 0.0
C218 C 0.11006 0.7971 0.89921 0.0
C219 C 0.08497 0.77861 0.79334 0.0
C220 C 0.13217 0.82749 0.9458 0.0
C221 C 0.16104 0.86247 0.9365 0.0
C222 C 0.11749 0.80114 0.84311 0.0
C223 C 0.17002 0.86339 0.88014 0.0
C224 C 0.09905 0.75232 0.74515 0.0
C225 C 0.00737 0.7708 0.74773 0.0
N226 N 0.14792 0.83351 0.83535 0.0
N227 N 0.0397 0.78654 0.79308 0.0
H228 H 0.66769 0.76875 0.83151 0.0
H229 H 0.89656 0.69864 0.69933 0.0
H230 H 0.7999 0.831 0.89927 0.0
H231 H 0.76007 0.67569 0.60568 0.0
H232 H 0.86379 0.72886 0.78581 0.0
H233 H 0.70331 0.71666 0.76214 0.0
C234 C 0.70451 0.77062 0.83281 0.0
C235 C 0.73116 0.80378 0.87191 0.0
C236 C 0.84102 0.71601 0.74674 0.0
C237 C 0.77215 0.74481 0.79189 0.0
C238 C 0.85969 0.69824 0.69739 0.0
C239 C 0.83101 0.68466 0.64491 0.0
C240 C 0.79327 0.71927 0.74393 0.0
C241 C 0.78345 0.68556 0.64515 0.0
C242 C 0.7248 0.74104 0.79305 0.0
C243 C 0.7786 0.80499 0.87128 0.0
N244 N 0.76614 0.70294 0.69359 0.0
N245 N 0.7976 0.77635 0.83151 0.0
H246 H 0.17743 0.91049 0.32695 0.0
H247 H 0.04603 0.67326 0.317 0.0
H248 H 0.14656 0.81468 0.1713 0.0
H249 H 0.04052 0.78719 0.45049 0.0
H250 H 0.09259 0.71955 0.26901 0.0
H251 H 0.13569 0.8616 0.37715 0.0
C252 C 0.16166 0.87904 0.30334 0.0
C253 C 0.16508 0.86672 0.24486 0.0
C254 C 0.08122 0.7344 0.3088 0.0
C255 C 0.11791 0.80992 0.30247 0.0
C256 C 0.05476 0.70797 0.33655 0.0
C257 C 0.03858 0.72651 0.38771 0.0
C258 C 0.09207 0.77979 0.33241 0.0
C259 C 0.05173 0.7715 0.41105 0.0
C260 C 0.13788 0.85114 0.33204 0.0
C261 C 0.14413 0.82564 0.21624 0.0
N262 N 0.0775 0.79658 0.38315 0.0
N263 N 0.12167 0.79847 0.24548 0.0
H264 H 0.07662 0.09466 0.71232 0.0
H265 H 0.22915 0.12984 1.01974 0.0
H266 H 0.12627 0.22468 0.80607 0.0
H267 H 0.19554 -0.00247 0.9218 0.0
H268 H 0.20304 0.16404 0.93406 0.0
H269 H 0.12848 0.05739 0.78042 0.0
C270 C 0.09936 0.11537 0.74619 0.0
C271 C 0.09689 0.16289 0.75371 0.0
C272 C 0.20235 0.12743 0.93063 0.0
C273 C 0.15614 0.12055 0.83199 0.0
C274 C 0.21801 0.10786 0.97951 0.0
C275 C 0.21487 0.06074 0.97803 0.0
C276 C 0.18217 0.09984 0.87996 0.0
C277 C 0.19896 0.03397 0.92488 0.0
C278 C 0.12881 0.09408 0.78527 0.0
C279 C 0.12673 0.18799 0.79886 0.0
N280 N 0.18215 0.0539 0.87833 0.0
N281 N 0.15464 0.16658 0.83643 0.0
H282 H 0.70052 0.00778 0.23851 0.0
H283 H 0.88692 0.19625 0.3865 0.0
H284 H 0.77358 0.09173 0.14705 0.0
H285 H 0.82089 0.10581 0.47693 0.0
H286 H 0.82806 0.1756 0.30247 0.0
H287 H 0.72454 0.06003 0.3275 0.0
C288 C 0.71922 0.03878 0.23645 0.0
C289 C 0.73483 0.04549 0.1851 0.0
C290 C 0.82534 0.16142 0.34132 0.0
C291 C 0.7645 0.10456 0.28748 0.0
C292 C 0.85863 0.1738 0.38962 0.0
C293 C 0.85826 0.15341 0.4391 0.0
C294 C 0.79191 0.12765 0.34209 0.0
C295 C 0.82183 0.12308 0.44005 0.0
C296 C 0.73384 0.0682 0.28764 0.0
C297 C 0.76036 0.08549 0.18549 0.0
N298 N 0.79067 0.1105 0.39202 0.0
N299 N 0.77532 0.11286 0.236 0.0
loop_
_geom_bond_atom_site_label_1
_geom_bond_atom_site_label_2
_geom_bond_distance
_geom_bond_site_symmetry_2
_ccdc_geom_bond_type
O0 Mg1 1.990 . S
O0 C14 1.253 . S
Mg1 O0 1.990 . S
Mg1 O4 2.180 1_556 S
Mg1 O5 2.117 1_556 S
Mg1 O19 2.030 1_545 S
O2 Mg3 2.072 . S
O2 C14 1.260 1_554 S
Mg3 O2 2.072 . S
Mg3 O4 2.099 . S
Mg3 O6 2.079 1_545 S
Mg3 O7 2.072 . S
Mg3 O9 2.099 . S
Mg3 O20 2.079 1_544 S
O4 Mg1 2.180 1_554 S
O4 Mg3 2.099 . S
O4 C15 1.279 . S
O5 Mg1 2.117 1_554 S
O5 C15 1.250 . S
O6 Mg3 2.079 1_565 S
O6 C16 1.264 . S
O7 Mg3 2.072 . S
O7 C17 1.260 . S
Mg8 O9 2.180 . S
Mg8 O10 2.030 1_545 S
Mg8 O11 1.990 . S
Mg8 O12 2.117 . S
O9 Mg3 2.099 . S
O9 Mg8 2.180 . S
O9 C18 1.279 . S
O10 Mg8 2.030 1_565 S
O10 C16 1.248 . S
O11 Mg8 1.990 . S
O11 C17 1.253 . S
O12 Mg8 2.117 . S
O12 C18 1.250 . S
C13 O19 1.248 . S
C13 O20 1.264 . S
C14 O0 1.253 . S
C14 O2 1.260 1_556 S
C15 O4 1.279 . S
C15 O5 1.250 . S
C16 O6 1.264 . S
C16 O10 1.248 . S
C17 O7 1.260 . S
C17 O11 1.253 . S
C18 O9 1.279 . S
C18 O12 1.250 . S
O19 Mg1 2.030 1_565 S
O19 C13 1.248 . S
O20 Mg3 2.079 1_566 S
O20 C13 1.264 . S
O21 Mg22 1.990 1_655 S
O21 C35 1.253 . S
Mg22 O21 1.990 1_455 S
Mg22 O25 2.180 . S
Mg22 O26 2.117 1_455 S
Mg22 O40 2.030 . S
O23 Mg24 2.072 1_655 S
O23 C35 1.260 . S
Mg24 O23 2.072 1_455 S
Mg24 O25 2.099 . S
Mg24 O27 2.079 . S
Mg24 O28 2.072 1_455 S
Mg24 O30 2.099 . S
Mg24 O41 2.079 . S
O25 Mg22 2.180 . S
O25 Mg24 2.099 . S
O25 C36 1.279 . S
O26 Mg22 2.117 1_655 S
O26 C36 1.250 1_655 S
O27 Mg24 2.079 . S
O27 C37 1.264 . S
O28 Mg24 2.072 1_655 S
O28 C38 1.260 . S
Mg29 O30 2.180 . S
Mg29 O31 2.030 . S
Mg29 O32 1.990 1_455 S
Mg29 O33 2.117 1_455 S
O30 Mg24 2.099 . S
O30 Mg29 2.180 . S
O30 C39 1.279 . S
O31 Mg29 2.030 . S
O31 C37 1.248 . S
O32 Mg29 1.990 1_655 S
O32 C38 1.253 . S
O33 Mg29 2.117 1_655 S
O33 C39 1.250 1_655 S
C34 O40 1.248 . S
C34 O41 1.264 . S
C35 O21 1.253 . S
C35 O23 1.260 . S
C36 O25 1.279 . S
C36 O26 1.250 1_455 S
C37 O27 1.264 . S
C37 O31 1.248 . S
C38 O28 1.260 . S
C38 O32 1.253 . S
C39 O30 1.279 . S
C39 O33 1.250 1_455 S
O40 Mg22 2.030 . S
O40 C34 1.248 . S
O41 Mg24 2.079 . S
O41 C34 1.264 . S
O42 Mg43 1.990 1_545 S
O42 C56 1.253 . S
Mg43 O42 1.990 1_565 S
Mg43 O46 2.180 . S
Mg43 O47 2.117 1_565 S
Mg43 O61 2.030 . S
O44 Mg45 2.072 1_546 S
O44 C56 1.260 . S
Mg45 O44 2.072 1_564 S
Mg45 O46 2.099 1_554 S
Mg45 O48 2.079 . S
Mg45 O49 2.072 1_565 S
Mg45 O51 2.099 . S
Mg45 O62 2.079 1_554 S
O46 Mg43 2.180 . S
O46 Mg45 2.099 1_556 S
O46 C57 1.279 1_565 S
O47 Mg43 2.117 1_545 S
O47 C57 1.250 . S
O48 Mg45 2.079 . S
O48 C58 1.264 . S
O49 Mg45 2.072 1_545 S
O49 C59 1.260 . S
Mg50 O51 2.181 1_545 S
Mg50 O52 2.020 1_545 S
Mg50 O53 2.003 . S
Mg50 O54 2.124 . S
O51 Mg45 2.099 . S
O51 Mg50 2.181 1_565 S
O51 C60 1.279 1_565 S
O52 Mg50 2.020 1_565 S
O52 C58 1.248 . S
O53 Mg50 2.003 . S
O53 C59 1.253 . S
O54 Mg50 2.124 . S
O54 C60 1.250 . S
C55 O61 1.248 . S
C55 O62 1.264 . S
C56 O42 1.253 . S
C56 O44 1.260 . S
C57 O46 1.279 1_545 S
C57 O47 1.250 . S
C58 O48 1.264 . S
C58 O52 1.248 . S
C59 O49 1.260 . S
C59 O53 1.253 . S
C60 O51 1.279 1_545 S
C60 O54 1.250 . S
O61 Mg43 2.030 . S
O61 C55 1.248 . S
O62 Mg45 2.079 1_556 S
O62 C55 1.264 . S
O63 Mg64 1.990 1_655 S
O63 C77 1.253 . S
Mg64 O63 1.990 1_455 S
Mg64 O67 2.180 . S
Mg64 O68 2.117 1_455 S
Mg64 O82 2.030 . S
O65 Mg66 2.072 1_655 S
O65 C77 1.260 . S
Mg66 O65 2.072 1_455 S
Mg66 O67 2.099 . S
Mg66 O69 2.079 . S
Mg66 O70 2.072 1_455 S
Mg66 O72 2.099 . S
Mg66 O83 2.079 . S
O67 Mg64 2.180 . S
O67 Mg66 2.099 . S
O67 C78 1.279 1_455 S
O68 Mg64 2.117 1_655 S
O68 C78 1.250 . S
O69 Mg66 2.079 . S
O69 C79 1.264 . S
O70 Mg66 2.072 1_655 S
O70 C80 1.260 . S
Mg71 O72 2.180 . S
Mg71 O73 2.030 . S
Mg71 O74 1.990 1_455 S
Mg71 O75 2.117 1_455 S
O72 Mg66 2.099 . S
O72 Mg71 2.180 . S
O72 C81 1.279 1_455 S
O73 Mg71 2.030 . S
O73 C79 1.248 . S
O74 Mg71 1.990 1_655 S
O74 C80 1.253 . S
O75 Mg71 2.117 1_655 S
O75 C81 1.250 . S
C76 O82 1.248 . S
C76 O83 1.264 . S
C77 O63 1.253 . S
C77 O65 1.260 . S
C78 O67 1.279 1_655 S
C78 O68 1.250 . S
C79 O69 1.264 . S
C79 O73 1.248 . S
C80 O70 1.260 . S
C80 O74 1.253 . S
C81 O72 1.279 1_655 S
C81 O75 1.250 . S
O82 Mg64 2.030 . S
O82 C76 1.248 . S
O83 Mg66 2.079 . S
O83 C76 1.264 . S
H84 C90 0.930 . S
H85 C94 0.930 . S
H86 C99 0.929 . S
H87 C97 0.929 1_565 S
H88 C92 0.929 . S
H89 C98 0.929 . S
C90 H84 0.930 . S
C90 C91 1.367 1_565 S
C90 C98 1.378 . S
C91 C90 1.367 1_545 S
C91 C99 1.433 1_556 S
C92 H88 0.929 . S
C92 C94 1.378 . S
C92 C96 1.350 . S
C93 C96 1.463 1_655 S
C93 C98 1.350 1_544 S
C93 N101 1.427 . S
C94 H85 0.930 . S
C94 C92 1.378 . S
C94 C95 1.367 . S
C95 C94 1.367 . S
C95 C97 1.433 . S
C96 C92 1.350 . S
C96 C93 1.463 1_455 S
C96 N100 1.434 . S
C97 H87 0.929 1_545 S
C97 C95 1.433 . S
C97 N100 1.384 . S
C98 H89 0.929 . S
C98 C90 1.378 . S
C98 C93 1.350 1_566 S
C99 H86 0.929 . S
C99 C91 1.433 1_554 S
C99 N101 1.384 . S
N100 C96 1.434 . S
N100 C97 1.384 . S
N101 C93 1.427 . S
N101 C99 1.384 . S
H102 C108 0.930 . S
H103 C112 0.930 . S
H104 C117 0.929 . S
H105 C115 0.929 . S
H106 C110 0.929 . S
H107 C116 0.929 . S
C108 H102 0.930 . S
C108 C109 1.367 1_455 S
C108 C116 1.378 . S
C109 C108 1.367 1_655 S
C109 C117 1.433 . S
C110 H106 0.929 . S
C110 C112 1.378 . S
C110 C114 1.350 1_655 S
C111 C114 1.462 1_665 S
C111 C116 1.350 1_655 S
C111 N119 1.427 . S
C112 H103 0.930 . S
C112 C110 1.378 . S
C112 C113 1.367 1_655 S
C113 C112 1.367 1_455 S
C113 C115 1.433 . S
C114 C110 1.350 1_455 S
C114 C111 1.462 1_445 S
C114 N118 1.427 . S
C115 H105 0.929 . S
C115 C113 1.433 . S
C115 N118 1.384 . S
C116 H107 0.929 . S
C116 C108 1.378 . S
C116 C111 1.350 1_455 S
C117 H104 0.929 . S
C117 C109 1.433 . S
C117 N119 1.384 . S
N118 C114 1.427 . S
N118 C115 1.384 . S
N119 C111 1.427 . S
N119 C117 1.384 . S
H120 C126 0.930 . S
H121 C130 0.930 . S
H122 C135 0.929 1_556 S
H123 C133 0.929 . S
H124 C128 0.929 . S
H125 C134 0.929 . S
C126 H120 0.930 . S
C126 C127 1.367 . S
C126 C134 1.378 . S
C127 C126 1.367 . S
C127 C135 1.433 1_545 S
C128 H124 0.929 . S
C128 C130 1.378 . S
C128 C132 1.350 1_565 S
C129 C132 1.463 . S
C129 C134 1.350 . S
C129 N137 1.427 1_545 S
C130 H121 0.930 . S
C130 C128 1.378 . S
C130 C131 1.367 1_565 S
C131 C130 1.367 1_545 S
C131 C133 1.433 . S
C132 C128 1.350 1_545 S
C132 C129 1.463 . S
C132 N136 1.427 . S
C133 H123 0.929 . S
C133 C131 1.433 . S
C133 N136 1.384 . S
C134 H125 0.929 . S
C134 C126 1.378 . S
C134 C129 1.350 . S
C135 H122 0.929 1_554 S
C135 C127 1.433 1_565 S
C135 N137 1.384 . S
N136 C132 1.427 . S
N136 C133 1.384 . S
N137 C129 1.427 1_565 S
N137 C135 1.384 . S
H138 C144 0.930 . S
H139 C148 0.930 . S
H140 C153 0.929 . S
H141 C151 0.929 . S
H142 C146 0.929 . S
H143 C152 0.929 . S
C144 H138 0.930 . S
C144 C145 1.367 . S
C144 C152 1.378 . S
C145 C144 1.367 . S
C145 C153 1.433 . S
C146 H142 0.929 . S
C146 C148 1.378 1_455 S
C146 C150 1.352 . S
C147 C150 1.464 . S
C147 C152 1.350 . S
C147 N155 1.427 . S
C148 H139 0.930 . S
C148 C146 1.378 1_655 S
C148 C149 1.367 . S
C149 C148 1.367 . S
C149 C151 1.433 . S
C150 C146 1.352 . S
C150 C147 1.464 . S
C150 N154 1.424 1_455 S
C151 H141 0.929 . S
C151 C149 1.433 . S
C151 N154 1.384 . S
C152 H143 0.929 . S
C152 C144 1.378 . S
C152 C147 1.350 . S
C153 H140 0.929 . S
C153 C145 1.433 . S
C153 N155 1.384 . S
N154 C150 1.424 1_655 S
N154 C151 1.384 . S
N155 C147 1.427 . S
N155 C153 1.384 . S
H156 C162 0.930 . S
H157 C166 0.930 . S
H158 C171 0.929 . S
H159 C169 0.929 . S
H160 C164 0.929 . S
H161 C170 0.929 . S
C162 H156 0.930 . S
C162 C163 1.367 . S
C162 C170 1.378 . S
C163 C162 1.367 . S
C163 C171 1.433 . S
C164 H160 0.929 . S
C164 C166 1.378 . S
C164 C168 1.350 . S
C165 C168 1.463 . S
C165 C170 1.350 . S
C165 N173 1.427 . S
C166 H157 0.930 . S
C166 C164 1.378 . S
C166 C167 1.367 . S
C167 C166 1.367 . S
C167 C169 1.433 . S
C168 C164 1.350 . S
C168 C165 1.463 . S
C168 N172 1.427 . S
C169 H159 0.929 . S
C169 C167 1.433 . S
C169 N172 1.384 . S
C170 H161 0.929 . S
C170 C162 1.378 . S
C170 C165 1.350 . S
C171 H158 0.929 . S
C171 C163 1.433 . S
C171 N173 1.384 . S
N172 C168 1.427 . S
N172 C169 1.384 . S
N173 C165 1.427 . S
N173 C171 1.384 . S
H174 C180 0.930 . S
H175 C184 0.930 . S
H176 C189 0.929 . S
H177 C187 0.929 . S
H178 C182 0.929 . S
H179 C188 0.929 . S
C180 H174 0.930 . S
C180 C181 1.367 . S
C180 C188 1.378 . S
C181 C180 1.367 . S
C181 C189 1.433 . S
C182 H178 0.929 . S
C182 C184 1.378 . S
C182 C186 1.350 . S
C183 C186 1.463 . S
C183 C188 1.350 . S
C183 N191 1.427 . S
C184 H175 0.930 . S
C184 C182 1.378 . S
C184 C185 1.367 . S
C185 C184 1.367 . S
C185 C187 1.433 . S
C186 C182 1.350 . S
C186 C183 1.463 . S
C186 N190 1.427 . S
C187 H177 0.929 . S
C187 C185 1.433 . S
C187 N190 1.384 . S
C188 H179 0.929 . S
C188 C180 1.378 . S
C188 C183 1.350 . S
C189 H176 0.929 . S
C189 C181 1.433 . S
C189 N191 1.384 . S
N190 C186 1.427 . S
N190 C187 1.384 . S
N191 C183 1.427 . S
N191 C189 1.384 . S
H192 C198 0.930 . S
H193 C202 0.930 . S
H194 C207 0.929 . S
H195 C205 0.929 . S
H196 C200 0.929 . S
H197 C206 0.929 . S
C198 H192 0.930 . S
C198 C199 1.367 . S
C198 C206 1.378 . S
C199 C198 1.367 . S
C199 C207 1.433 . S
C200 H196 0.929 . S
C200 C202 1.378 . S
C200 C204 1.350 . S
C201 C204 1.463 . S
C201 C206 1.350 . S
C201 N209 1.427 . S
C202 H193 0.930 . S
C202 C200 1.378 . S
C202 C203 1.367 . S
C203 C202 1.367 . S
C203 C205 1.433 . S
C204 C200 1.350 . S
C204 C201 1.463 . S
C204 N208 1.427 . S
C205 H195 0.929 . S
C205 C203 1.433 . S
C205 N208 1.384 . S
C206 H197 0.929 . S
C206 C198 1.378 . S
C206 C201 1.350 . S
C207 H194 0.929 . S
C207 C199 1.433 . S
C207 N209 1.384 . S
N208 C204 1.427 . S
N208 C205 1.384 . S
N209 C201 1.427 . S
N209 C207 1.384 . S
H210 C216 0.930 . S
H211 C220 0.930 . S
H212 C225 0.929 . S
H213 C223 0.929 . S
H214 C218 0.929 . S
H215 C224 0.929 . S
C216 H210 0.930 . S
C216 C217 1.367 . S
C216 C224 1.378 . S
C217 C216 1.367 . S
C217 C225 1.433 . S
C218 H214 0.929 . S
C218 C220 1.378 . S
C218 C222 1.350 . S
C219 C222 1.463 . S
C219 C224 1.350 . S
C219 N227 1.427 . S
C220 H211 0.930 . S
C220 C218 1.378 . S
C220 C221 1.367 . S
C221 C220 1.367 . S
C221 C223 1.433 . S
C222 C218 1.350 . S
C222 C219 1.463 . S
C222 N226 1.427 . S
C223 H213 0.929 . S
C223 C221 1.433 . S
C223 N226 1.384 . S
C224 H215 0.929 . S
C224 C216 1.378 . S
C224 C219 1.350 . S
C225 H212 0.929 . S
C225 C217 1.433 . S
C225 N227 1.384 . S
N226 C222 1.427 . S
N226 C223 1.384 . S
N227 C219 1.427 . S
N227 C225 1.384 . S
H228 C234 0.930 . S
H229 C238 0.930 . S
H230 C243 0.929 . S
H231 C241 0.929 . S
H232 C236 0.929 . S
H233 C242 0.929 . S
C234 H228 0.930 . S
C234 C235 1.367 . S
C234 C242 1.378 . S
C235 C234 1.367 . S
C235 C243 1.433 . S
C236 H232 0.929 . S
C236 C238 1.378 . S
C236 C240 1.350 . S
C237 C240 1.463 . S
C237 C242 1.350 . S
C237 N245 1.427 . S
C238 H229 0.930 . S
C238 C236 1.378 . S
C238 C239 1.367 . S
C239 C238 1.367 . S
C239 C241 1.433 . S
C240 C236 1.350 . S
C240 C237 1.463 . S
C240 N244 1.427 . S
C241 H231 0.929 . S
C241 C239 1.433 . S
C241 N244 1.384 . S
C242 H233 0.929 . S
C242 C234 1.378 . S
C242 C237 1.350 . S
C243 H230 0.929 . S
C243 C235 1.433 . S
C243 N245 1.384 . S
N244 C240 1.427 . S
N244 C241 1.384 . S
N245 C237 1.427 . S
N245 C243 1.384 . S
H246 C252 0.930 . S
H247 C256 0.930 . S
H248 C261 0.929 . S
H249 C259 0.929 . S
H250 C254 0.929 . S
H251 C260 0.929 . S
C252 H246 0.930 . S
C252 C253 1.367 . S
C252 C260 1.378 . S
C253 C252 1.367 . S
C253 C261 1.433 . S
C254 H250 0.929 . S
C254 C256 1.378 . S
C254 C258 1.350 . S
C255 C258 1.463 . S
C255 C260 1.350 . S
C255 N263 1.427 . S
C256 H247 0.930 . S
C256 C254 1.378 . S
C256 C257 1.367 . S
C257 C256 1.367 . S
C257 C259 1.433 . S
C258 C254 1.350 . S
C258 C255 1.463 . S
C258 N262 1.427 . S
C259 H249 0.929 . S
C259 C257 1.433 . S
C259 N262 1.384 . S
C260 H251 0.929 . S
C260 C252 1.378 . S
C260 C255 1.350 . S
C261 H248 0.929 . S
C261 C253 1.433 . S
C261 N263 1.384 . S
N262 C258 1.427 . S
N262 C259 1.384 . S
N263 C255 1.427 . S
N263 C261 1.384 . S
H264 C270 0.930 . S
H265 C274 0.930 . S
H266 C279 0.929 . S
H267 C277 0.929 . S
H268 C272 0.929 . S
H269 C278 0.929 . S
C270 H264 0.930 . S
C270 C271 1.367 . S
C270 C278 1.378 . S
C271 C270 1.367 . S
C271 C279 1.433 . S
C272 H268 0.929 . S
C272 C274 1.378 . S
C272 C276 1.350 . S
C273 C276 1.463 . S
C273 C278 1.350 . S
C273 N281 1.427 . S
C274 H265 0.930 . S
C274 C272 1.378 . S
C274 C275 1.367 . S
C275 C274 1.367 . S
C275 C277 1.433 . S
C276 C272 1.350 . S
C276 C273 1.463 . S
C276 N280 1.427 . S
C277 H267 0.929 . S
C277 C275 1.433 . S
C277 N280 1.384 . S
C278 H269 0.929 . S
C278 C270 1.378 . S
C278 C273 1.350 . S
C279 H266 0.929 . S
C279 C271 1.433 . S
C279 N281 1.384 . S
N280 C276 1.427 . S
N280 C277 1.384 . S
N281 C273 1.427 . S
N281 C279 1.384 . S
H282 C288 0.930 . S
H283 C292 0.930 . S
H284 C297 0.929 . S
H285 C295 0.929 . S
H286 C290 0.929 . S
H287 C296 0.929 . S
C288 H282 0.930 . S
C288 C289 1.367 . S
C288 C296 1.378 . S
C289 C288 1.367 . S
C289 C297 1.433 . S
C290 H286 0.929 . S
C290 C292 1.378 . S
C290 C294 1.350 . S
C291 C294 1.463 . S
C291 C296 1.350 . S
C291 N299 1.427 . S
C292 H283 0.930 . S
C292 C290 1.378 . S
C292 C293 1.367 . S
C293 C292 1.367 . S
C293 C295 1.433 . S
C294 C290 1.350 . S
C294 C291 1.463 . S
C294 N298 1.427 . S
C295 H285 0.929 . S
C295 C293 1.433 . S
C295 N298 1.384 . S
C296 H287 0.929 . S
C296 C288 1.378 . S
C296 C291 1.350 . S
C297 H284 0.929 . S
C297 C289 1.433 . S
C297 N299 1.384 . S
N298 C294 1.427 . S
N298 C295 1.384 . S
N299 C291 1.427 . S
N299 C297 1.384 . S
C91 C60 1.144 1_556 S
C95 C15 1.144 . S
C109 C81 1.112 . S
C113 C39 1.112 . S
C127 C57 0.844 1_554 S
C131 C18 0.844 . S
C145 C36 0.823 . S
C149 C78 0.823 . S
C163 C37 1.272 . S
C167 C17 1.440 . S
C181 C35 1.777 . S
C185 C56 1.775 . S
C199 C77 1.442 . S
C203 C58 1.296 . S
C217 C79 1.048 . S
C221 C13 1.014 . S
C235 C55 1.468 . S
C239 C80 1.295 . S
C253 C16 1.636 . S
C257 C76 1.639 . S
C271 C34 1.458 . S
C275 C14 1.323 . S
C289 C59 1.160 . S
C293 C38 1.184 . S
