# Generated by pormake.
# Topology upa, (4)-cn, num edge types: 1
# Building blocks:
#     Node 0, Type 0, BuildingBlock: KUFVIS_clean_sbu_0, # of connection points: 4
#     Node 1, Type 0, BuildingBlock: KUFVIS_clean_sbu_0, # of connection points: 4
#     Node 2, Type 0, BuildingBlock: KUFVIS_clean_sbu_0, # of connection points: 4
#     Node 3, Type 0, BuildingBlock: KUFVIS_clean_sbu_0, # of connection points: 4
#     Node 4, Type 0, BuildingBlock: KUFVIS_clean_sbu_0, # of connection points: 4
#     Node 5, Type 0, BuildingBlock: KUFVIS_clean_sbu_0, # of connection points: 4
#     Node 6, Type 0, BuildingBlock: KUFVIS_clean_sbu_0, # of connection points: 4
#     Node 7, Type 0, BuildingBlock: KUFVIS_clean_sbu_0, # of connection points: 4
#     Edge 8, Type (0, 0), BuildingBlock: MIFKUJ_clean_linker_0, # of connection points: 2
#     Edge 9, Type (0, 0), BuildingBlock: MIFKUJ_clean_linker_0, # of connection points: 2
#     Edge 10, Type (0, 0), BuildingBlock: MIFKUJ_clean_linker_0, # of connection points: 2
#     Edge 11, Type (0, 0), BuildingBlock: MIFKUJ_clean_linker_0, # of connection points: 2
#     Edge 12, Type (0, 0), BuildingBlock: MIFKUJ_clean_linker_0, # of connection points: 2
#     Edge 13, Type (0, 0), BuildingBlock: MIFKUJ_clean_linker_0, # of connection points: 2
#     Edge 14, Type (0, 0), BuildingBlock: MIFKUJ_clean_linker_0, # of connection points: 2
#     Edge 15, Type (0, 0), BuildingBlock: MIFKUJ_clean_linker_0, # of connection points: 2
#     Edge 16, Type (0, 0), BuildingBlock: MIFKUJ_clean_linker_0, # of connection points: 2
#     Edge 17, Type (0, 0), BuildingBlock: MIFKUJ_clean_linker_0, # of connection points: 2
#     Edge 18, Type (0, 0), BuildingBlock: MIFKUJ_clean_linker_0, # of connection points: 2
#     Edge 19, Type (0, 0), BuildingBlock: MIFKUJ_clean_linker_0, # of connection points: 2
#     Edge 20, Type (0, 0), BuildingBlock: MIFKUJ_clean_linker_0, # of connection points: 2
#     Edge 21, Type (0, 0), BuildingBlock: MIFKUJ_clean_linker_0, # of connection points: 2
#     Edge 22, Type (0, 0), BuildingBlock: MIFKUJ_clean_linker_0, # of connection points: 2
#     Edge 23, Type (0, 0), BuildingBlock: MIFKUJ_clean_linker_0, # of connection points: 2
# Relax obj value: 0.193
# Max RMSD: 0.140
# Mean RMSD: 0.140
data_MOF--net-upa--node1-KUFVIS_clean_sbu_0--edge1-MIFKUJ_clean_linker_0
_symmetry_space_group_name_H-M    P1
_symmetry_Int_Tables_number       1
_symmetry_cell_setting            triclinic
loop_
_symmetry_equiv_pos_as_xyz
'x, y, z'
_cell_length_a     33.217576
_cell_length_b     33.206355
_cell_length_c     57.792625
_cell_angle_alpha  89.956017
_cell_angle_beta   90.040585
_cell_angle_gamma 89.963027
loop_
_atom_site_label
_atom_site_type_symbol
_atom_site_fract_x
_atom_site_fract_y
_atom_site_fract_z
_atom_type_partial_charge
Mn0 Mn 0.19439 0.19609 0.34185 0.0
Mn1 Mn 0.25457 0.11952 0.3579 0.0
C2 C 0.16746 0.13794 0.35745 0.0
C3 C 0.15073 0.22471 0.31438 0.0
C4 C 0.24036 0.19245 0.38819 0.0
O5 O 0.24701 0.21033 0.32503 0.0
O6 O 0.28479 0.15938 0.339 0.0
C7 C 0.26776 0.08521 0.31121 0.0
N8 N 0.25437 0.08094 0.33336 0.0
C9 C 0.23428 0.01247 0.3262 0.0
C10 C 0.24788 0.01614 0.30333 0.0
C11 C 0.26472 0.05267 0.29582 0.0
C12 C 0.23821 0.0459 0.34077 0.0
H13 H 0.28066 0.11323 0.30531 0.0
C14 C 0.28057 0.19165 0.32706 0.0
O15 O 0.16517 0.24632 0.33122 0.0
O16 O 0.16504 0.18875 0.31227 0.0
N17 N 0.22908 0.0786 0.37599 0.0
C18 C 0.21746 0.08003 0.39858 0.0
C19 C 0.20013 0.04584 0.4088 0.0
C20 C 0.19526 0.01052 0.39575 0.0
C21 C 0.20777 0.00966 0.37259 0.0
C22 C 0.22508 0.04457 0.36339 0.0
H23 H 0.22118 0.10712 0.40869 0.0
O24 O 0.14786 0.17157 0.35822 0.0
O25 O 0.20246 0.13918 0.3474 0.0
O26 O 0.21873 0.21223 0.37367 0.0
O27 O 0.25481 0.15752 0.38398 0.0
C28 C 0.20373 0.97558 0.35827 0.0
C29 C 0.21685 0.97702 0.33508 0.0
H30 H 0.2455 0.99112 0.29138 0.0
H31 H 0.2753 0.05574 0.2782 0.0
H32 H 0.19057 0.04667 0.42669 0.0
H33 H 0.18216 0.98422 0.40377 0.0
H34 H 0.19059 0.94809 0.36488 0.0
H35 H 0.21343 0.95066 0.32422 0.0
Mn36 Mn 0.30009 0.68745 0.84074 0.0
Mn37 Mn 0.37957 0.744 0.85704 0.0
C38 C 0.35709 0.65677 0.85518 0.0
C39 C 0.267 0.64808 0.81291 0.0
C40 C 0.30744 0.73005 0.88797 0.0
O41 O 0.28737 0.74157 0.82533 0.0
O42 O 0.34039 0.77659 0.83888 0.0
C43 C 0.41309 0.75825 0.81025 0.0
N44 N 0.41783 0.74471 0.83234 0.0
C45 C 0.48727 0.72808 0.82532 0.0
C46 C 0.48318 0.74202 0.80252 0.0
C47 C 0.44591 0.75712 0.79496 0.0
C48 C 0.45356 0.73017 0.8398 0.0
H49 H 0.38452 0.76985 0.80432 0.0
C50 C 0.30759 0.77412 0.82731 0.0
O51 O 0.24794 0.66186 0.8309 0.0
O52 O 0.30367 0.66025 0.81017 0.0
N53 N 0.42045 0.7171 0.87448 0.0
C54 C 0.41883 0.70309 0.89662 0.0
C55 C 0.45342 0.68616 0.90662 0.0
C56 C 0.48943 0.68437 0.89395 0.0
C57 C 0.49042 0.69918 0.87124 0.0
C58 C 0.45505 0.7159 0.86219 0.0
H59 H 0.3913 0.70454 0.90652 0.0
O60 O 0.32258 0.6388 0.85549 0.0
O61 O 0.35788 0.69259 0.84581 0.0
O62 O 0.28649 0.70985 0.87337 0.0
O63 O 0.34242 0.74392 0.88346 0.0
C64 C 0.5249 0.69733 0.8571 0.0
C65 C 0.5233 0.71171 0.83414 0.0
H66 H 0.50837 0.74103 0.79065 0.0
H67 H 0.44248 0.76784 0.77738 0.0
H68 H 0.45231 0.67453 0.92403 0.0
H69 H 0.51609 0.67146 0.90178 0.0
H70 H 0.55265 0.68446 0.86362 0.0
H71 H 0.54987 0.70972 0.82334 0.0
Mn72 Mn 0.81706 0.80795 0.33701 0.0
Mn73 Mn 0.75565 0.88368 0.35353 0.0
C74 C 0.84355 0.86752 0.35089 0.0
C75 C 0.85776 0.77629 0.30926 0.0
C76 C 0.77385 0.81202 0.38406 0.0
O77 O 0.76316 0.79161 0.3222 0.0
O78 O 0.72535 0.8435 0.33503 0.0
C79 C 0.74082 0.91787 0.30694 0.0
N80 N 0.75474 0.92228 0.32898 0.0
C81 C 0.77359 0.99108 0.32171 0.0
C82 C 0.75944 0.98729 0.29894 0.0
C83 C 0.74303 0.95051 0.29153 0.0
C84 C 0.77089 0.95743 0.33623 0.0
H85 H 0.72813 0.88969 0.30116 0.0
C86 C 0.72963 0.81042 0.32393 0.0
O87 O 0.84528 0.75714 0.32752 0.0
O88 O 0.84362 0.81226 0.30617 0.0
N89 N 0.78088 0.92494 0.37146 0.0
C90 C 0.79078 0.92437 0.39436 0.0
C91 C 0.80686 0.95912 0.40465 0.0
C92 C 0.81191 0.99423 0.39141 0.0
C93 C 0.8002 0.99446 0.36809 0.0
C94 C 0.78436 0.95895 0.35878 0.0
H95 H 0.78667 0.89756 0.40467 0.0
O96 O 0.86451 0.83467 0.3512 0.0
O97 O 0.80768 0.86487 0.34198 0.0
O98 O 0.79662 0.79355 0.36971 0.0
O99 O 0.7566 0.8456 0.37975 0.0
C100 C 0.80292 0.02876 0.35386 0.0
C101 C 0.78988 0.02703 0.33064 0.0
H102 H 0.76092 0.01246 0.28703 0.0
H103 H 0.73202 0.94735 0.274 0.0
H104 H 0.8153 0.95883 0.42274 0.0
H105 H 0.82433 0.02099 0.3994 0.0
H106 H 0.81463 0.05671 0.36073 0.0
H107 H 0.7921 0.05363 0.31986 0.0
Mn108 Mn 0.70999 0.32235 0.83925 0.0
Mn109 Mn 0.63792 0.26472 0.86365 0.0
C110 C 0.65629 0.35197 0.85796 0.0
C111 C 0.73274 0.36165 0.8081 0.0
C112 C 0.71777 0.28152 0.88681 0.0
O113 O 0.72007 0.26749 0.82395 0.0
O114 O 0.67161 0.23219 0.84222 0.0
C115 C 0.59049 0.24771 0.82138 0.0
N116 N 0.59265 0.26282 0.84325 0.0
C117 C 0.52263 0.2814 0.84251 0.0
C118 C 0.51962 0.26591 0.82001 0.0
C119 C 0.5537 0.24897 0.80941 0.0
C120 C 0.55997 0.27891 0.85368 0.0
H121 H 0.61662 0.23482 0.8131 0.0
C122 C 0.70112 0.23467 0.828 0.0
O123 O 0.7576 0.34899 0.82393 0.0
O124 O 0.69641 0.34783 0.80916 0.0
N125 N 0.60292 0.2925 0.88454 0.0
C126 C 0.61129 0.30753 0.90595 0.0
C127 C 0.58064 0.32646 0.91865 0.0
C128 C 0.54171 0.32948 0.90929 0.0
C129 C 0.53371 0.3133 0.88736 0.0
C130 C 0.56538 0.2945 0.87558 0.0
H131 H 0.64118 0.30541 0.9132 0.0
O132 O 0.68978 0.37119 0.85509 0.0
O133 O 0.65484 0.31558 0.84958 0.0
O134 O 0.7333 0.30256 0.87052 0.0
O135 O 0.68267 0.26604 0.8859 0.0
C136 C 0.49576 0.31575 0.87655 0.0
C137 C 0.49022 0.29981 0.85415 0.0
H138 H 0.49138 0.2671 0.81065 0.0
H139 H 0.55165 0.23702 0.79203 0.0
H140 H 0.58705 0.33881 0.93558 0.0
H141 H 0.51825 0.34443 0.91906 0.0
H142 H 0.47072 0.33021 0.88522 0.0
H143 H 0.461 0.30222 0.84594 0.0
Mn144 Mn 0.6922 0.29169 0.17776 0.0
Mn145 Mn 0.74674 0.36914 0.15662 0.0
C146 C 0.66001 0.34596 0.16082 0.0
C147 C 0.65384 0.26311 0.20762 0.0
C148 C 0.73529 0.2905 0.13087 0.0
O149 O 0.74739 0.28265 0.19309 0.0
O150 O 0.77972 0.33658 0.17846 0.0
C151 C 0.75753 0.41537 0.19998 0.0
N152 N 0.74483 0.41356 0.17759 0.0
C153 C 0.72465 0.48316 0.17825 0.0
C154 C 0.73777 0.48584 0.20126 0.0
C155 C 0.75421 0.45177 0.21218 0.0
C156 C 0.72907 0.44619 0.16689 0.0
H157 H 0.77004 0.38923 0.20847 0.0
C158 C 0.77861 0.30511 0.19132 0.0
O159 O 0.66776 0.24116 0.19079 0.0
O160 O 0.66581 0.30016 0.20825 0.0
N161 N 0.71836 0.40347 0.13557 0.0
C162 C 0.70449 0.39507 0.11391 0.0
C163 C 0.68599 0.42563 0.10088 0.0
C164 C 0.68212 0.46448 0.11022 0.0
C165 C 0.69653 0.47237 0.13256 0.0
C166 C 0.71512 0.44086 0.14462 0.0
H167 H 0.70748 0.3653 0.10661 0.0
O168 O 0.64259 0.31123 0.16237 0.0
O169 O 0.69623 0.34826 0.16944 0.0
O170 O 0.7133 0.27288 0.14595 0.0
O171 O 0.74992 0.3257 0.13352 0.0
C172 C 0.69251 0.51007 0.14347 0.0
C173 C 0.70651 0.51545 0.16632 0.0
H174 H 0.73497 0.51378 0.2108 0.0
H175 H 0.7642 0.45354 0.22998 0.0
H176 H 0.67482 0.41929 0.08367 0.0
H177 H 0.66794 0.48804 0.10015 0.0
H178 H 0.67817 0.53497 0.13458 0.0
H179 H 0.70269 0.54441 0.17465 0.0
Mn180 Mn 0.20027 0.19063 0.67813 0.0
Mn181 Mn 0.12694 0.25452 0.66111 0.0
C182 C 0.14215 0.16607 0.66168 0.0
C183 C 0.22788 0.14606 0.70555 0.0
C184 C 0.20002 0.23682 0.63173 0.0
O185 O 0.21558 0.24221 0.69537 0.0
O186 O 0.16765 0.28288 0.68049 0.0
C187 C 0.09159 0.27023 0.70728 0.0
N188 N 0.08735 0.25724 0.68506 0.0
C189 C 0.01685 0.24407 0.69084 0.0
C190 C 0.02046 0.25737 0.71377 0.0
C191 C 0.058 0.27055 0.72201 0.0
C192 C 0.05129 0.24485 0.67689 0.0
H193 H 0.12036 0.28033 0.71375 0.0
C194 C 0.1988 0.27664 0.69308 0.0
O195 O 0.2495 0.16023 0.68864 0.0
O196 O 0.19201 0.1608 0.70764 0.0
N197 N 0.08523 0.23147 0.64252 0.0
C198 C 0.08715 0.21813 0.62024 0.0
C199 C 0.05234 0.20288 0.60961 0.0
C200 C 0.01586 0.20193 0.62188 0.0
C201 C 0.01448 0.2164 0.64465 0.0
C202 C 0.05011 0.2314 0.65432 0.0
H203 H 0.11516 0.21863 0.61077 0.0
O204 O 0.17517 0.14538 0.66139 0.0
O205 O 0.14364 0.20105 0.67193 0.0
O206 O 0.21841 0.21474 0.6466 0.0
O207 O 0.16555 0.25255 0.63546 0.0
C208 C 0.97937 0.21569 0.65831 0.0
C209 C 0.98054 0.22954 0.68138 0.0
H210 H 0.99468 0.2574 0.72524 0.0
H211 H 0.06105 0.28087 0.73969 0.0
H212 H 0.05366 0.19174 0.59204 0.0
H213 H 0.98915 0.18983 0.61368 0.0
H214 H 0.9514 0.20416 0.65133 0.0
H215 H 0.95343 0.22852 0.69177 0.0
Mn216 Mn 0.32041 0.7077 0.18064 0.0
Mn217 Mn 0.2725 0.62202 0.1654 0.0
C218 C 0.35703 0.65221 0.16888 0.0
C219 C 0.35478 0.74694 0.2079 0.0
C220 C 0.28003 0.6938 0.1333 0.0
O221 O 0.26415 0.71654 0.1944 0.0
O222 O 0.23566 0.65826 0.18291 0.0
C223 C 0.26138 0.58846 0.21244 0.0
N224 N 0.27554 0.58453 0.19045 0.0
C225 C 0.30085 0.51806 0.19854 0.0
C226 C 0.28625 0.52128 0.22123 0.0
C227 C 0.26649 0.55666 0.22821 0.0
C228 C 0.29455 0.55059 0.18354 0.0
H229 H 0.24639 0.61569 0.21793 0.0
C230 C 0.23409 0.69249 0.19315 0.0
O231 O 0.34043 0.76276 0.18904 0.0
O232 O 0.34588 0.70962 0.21185 0.0
N233 N 0.30435 0.58397 0.14858 0.0
C234 C 0.31903 0.58677 0.12661 0.0
C235 C 0.34097 0.55449 0.11728 0.0
C236 C 0.34725 0.51954 0.13052 0.0
C237 C 0.33139 0.51714 0.15295 0.0
C238 C 0.30955 0.55018 0.16129 0.0
H239 H 0.31443 0.61362 0.11639 0.0
O240 O 0.37207 0.68806 0.16767 0.0
O241 O 0.32063 0.64946 0.17717 0.0
O242 O 0.2989 0.71673 0.14742 0.0
O243 O 0.26876 0.65815 0.13844 0.0
C244 C 0.3374 0.48375 0.16761 0.0
C245 C 0.32217 0.48423 0.1904 0.0
H246 H 0.29041 0.49695 0.2335 0.0
H247 H 0.25536 0.55947 0.24573 0.0
H248 H 0.35319 0.5566 0.09997 0.0
H249 H 0.36461 0.4949 0.12336 0.0
H250 H 0.35429 0.45784 0.16167 0.0
H251 H 0.32753 0.45863 0.20162 0.0
Mn252 Mn 0.793 0.82467 0.67757 0.0
Mn253 Mn 0.87161 0.77319 0.6554 0.0
C254 C 0.84614 0.85923 0.66116 0.0
C255 C 0.76339 0.86015 0.70814 0.0
C256 C 0.79286 0.78498 0.62973 0.0
O257 O 0.78491 0.76828 0.69145 0.0
O258 O 0.83972 0.7381 0.67645 0.0
C259 C 0.91743 0.76134 0.69886 0.0
N260 N 0.91569 0.77499 0.67665 0.0
C261 C 0.98471 0.7968 0.67808 0.0
C262 C 0.98735 0.78265 0.7009 0.0
C263 C 0.95352 0.76494 0.71135 0.0
C264 C 0.94801 0.79216 0.66645 0.0
H265 H 0.89146 0.74791 0.707 0.0
C266 C 0.80804 0.73769 0.6891 0.0
O267 O 0.74186 0.84687 0.69096 0.0
O268 O 0.80071 0.84898 0.70867 0.0
N269 N 0.90557 0.8033 0.63501 0.0
C270 C 0.89738 0.81742 0.61336 0.0
C271 C 0.92783 0.83672 0.6007 0.0
C272 C 0.96639 0.84109 0.61037 0.0
C273 C 0.9741 0.82635 0.63266 0.0
C274 C 0.94272 0.80692 0.64434 0.0
H275 H 0.86787 0.81395 0.60578 0.0
O276 O 0.81112 0.87577 0.66343 0.0
O277 O 0.84966 0.82258 0.66909 0.0
O278 O 0.77485 0.80552 0.6453 0.0
O279 O 0.82831 0.77066 0.63206 0.0
C280 C 0.01153 0.83067 0.64387 0.0
C281 C 0.0168 0.816 0.66659 0.0
H282 H 0.01507 0.78558 0.71064 0.0
H283 H 0.95525 0.75417 0.729 0.0
H284 H 0.92164 0.84805 0.5835 0.0
H285 H 0.98991 0.85578 0.60056 0.0
H286 H 0.03631 0.84568 0.63528 0.0
H287 H 0.04554 0.82 0.67514 0.0
H288 H 0.12363 0.1172 0.39504 0.0
H289 H 0.06988 0.06666 0.39611 0.0
H290 H 0.10264 0.02737 0.32758 0.0
H291 H 0.15685 0.07748 0.32663 0.0
H292 H 0.02037 0.06385 0.33554 0.0
H293 H 0.09815 0.93971 0.36192 0.0
H294 H 0.14538 0.90504 0.38838 0.0
H295 H 0.08795 0.96049 0.44678 0.0
H296 H 0.03958 0.99429 0.42068 0.0
H297 H 0.86565 0.91913 0.3173 0.0
H298 H 0.92097 0.96685 0.31972 0.0
H299 H 0.92457 0.9507 0.39398 0.0
H300 H 0.87376 0.89807 0.39067 0.0
H301 H 0.99185 0.94271 0.38275 0.0
H302 H 0.90452 0.05425 0.35877 0.0
H303 H 0.8569 0.09333 0.33468 0.0
H304 H 0.92932 0.07127 0.2746 0.0
H305 H 0.97822 0.03356 0.29841 0.0
C306 C 0.12043 0.09648 0.38068 0.0
C307 C 0.14464 0.10057 0.36094 0.0
C308 C 0.0898 0.0677 0.38129 0.0
C309 C 0.08243 0.04336 0.36193 0.0
C310 C 0.10819 0.04569 0.34275 0.0
C311 C 0.13925 0.07406 0.34229 0.0
C312 C 0.0439 0.02137 0.36017 0.0
C313 C 0.01393 0.03705 0.34565 0.0
C314 C 0.03527 0.98764 0.37397 0.0
C315 C 0.06568 0.96964 0.38945 0.0
C316 C 0.09584 0.94459 0.38041 0.0
C317 C 0.12252 0.92485 0.39532 0.0
C318 C 0.11974 0.93066 0.41923 0.0
C319 C 0.0901 0.95604 0.42828 0.0
C320 C 0.0629 0.97526 0.41346 0.0
C321 C 0.87752 0.92692 0.33419 0.0
C322 C 0.86505 0.9057 0.35389 0.0
C323 C 0.90909 0.95467 0.33566 0.0
C324 C 0.92745 0.96311 0.35711 0.0
C325 C 0.91178 0.94457 0.37711 0.0
C326 C 0.8821 0.91499 0.37537 0.0
C327 C 0.96649 0.98554 0.35841 0.0
C328 C 0.99714 0.96982 0.37273 0.0
C329 C 0.97522 0.02006 0.34479 0.0
C330 C 0.94469 0.04067 0.33031 0.0
C331 C 0.91005 0.05741 0.34039 0.0
C332 C 0.88296 0.07946 0.32682 0.0
C333 C 0.88973 0.08417 0.30312 0.0
C334 C 0.92395 0.06737 0.29294 0.0
C335 C 0.95154 0.04599 0.30649 0.0
H336 H 0.86861 0.10112 0.29267 0.0
H337 H 0.14058 0.91553 0.43072 0.0
H338 H 0.36348 0.60257 0.88958 0.0
H339 H 0.41433 0.55065 0.89377 0.0
H340 H 0.4832 0.60509 0.83851 0.0
H341 H 0.42828 0.65247 0.83177 0.0
H342 H 0.48753 0.5364 0.83076 0.0
H343 H 0.51571 0.59772 0.90372 0.0
H344 H 0.50163 0.62819 0.94187 0.0
H345 H 0.44334 0.51934 0.96381 0.0
H346 H 0.45762 0.48814 0.92592 0.0
H347 H 0.65079 0.40734 0.89192 0.0
H348 H 0.59966 0.45978 0.89538 0.0
H349 H 0.53003 0.40244 0.84152 0.0
H350 H 0.58368 0.35298 0.83626 0.0
H351 H 0.52914 0.4739 0.90494 0.0
H352 H 0.48473 0.46724 0.80725 0.0
H353 H 0.5156 0.44907 0.76983 0.0
H354 H 0.63323 0.47088 0.79802 0.0
H355 H 0.6031 0.48928 0.83549 0.0
C356 C 0.38994 0.6038 0.87864 0.0
C357 C 0.3929 0.6327 0.861 0.0
C358 C 0.4195 0.57433 0.88127 0.0
C359 C 0.45372 0.57407 0.86697 0.0
C360 C 0.45736 0.60422 0.84991 0.0
C361 C 0.42654 0.63227 0.84643 0.0
C362 C 0.48306 0.53996 0.86801 0.0
C363 C 0.49689 0.52334 0.8471 0.0
C364 C 0.49605 0.52244 0.88915 0.0
C365 C 0.48723 0.54092 0.91193 0.0
C366 C 0.4996 0.58051 0.91665 0.0
C367 C 0.49171 0.59782 0.93823 0.0
C368 C 0.47121 0.57588 0.95515 0.0
C369 C 0.45906 0.53637 0.95065 0.0
C370 C 0.46726 0.51878 0.92919 0.0
C371 C 0.62409 0.4056 0.88119 0.0
C372 C 0.62055 0.37559 0.86425 0.0
C373 C 0.59478 0.4355 0.88319 0.0
C374 C 0.56125 0.43575 0.86836 0.0
C375 C 0.5561 0.40367 0.85275 0.0
C376 C 0.58621 0.37467 0.85015 0.0
C377 C 0.53401 0.47135 0.86779 0.0
C378 C 0.52013 0.48769 0.88872 0.0
C379 C 0.5234 0.49053 0.84674 0.0
C380 C 0.54166 0.47912 0.82425 0.0
C381 C 0.51718 0.46811 0.80544 0.0
C382 C 0.53457 0.45773 0.78423 0.0
C383 C 0.57639 0.45857 0.78157 0.0
C384 C 0.60089 0.46991 0.80011 0.0
C385 C 0.58368 0.48025 0.82135 0.0
H386 H 0.5898 0.45061 0.76513 0.0
H387 H 0.46493 0.58944 0.97179 0.0
H388 H 0.59863 0.35039 0.13017 0.0
H389 H 0.54573 0.40111 0.12904 0.0
H390 H 0.61145 0.47222 0.17906 0.0
H391 H 0.65956 0.41757 0.18337 0.0
H392 H 0.54474 0.47442 0.19197 0.0
H393 H 0.59255 0.4953 0.11407 0.0
H394 H 0.61119 0.47646 0.0741 0.0
H395 H 0.49178 0.43187 0.06217 0.0
H396 H 0.47243 0.45023 0.10199 0.0
H397 H 0.41151 0.64314 0.1347 0.0
H398 H 0.46353 0.59162 0.13151 0.0
H399 H 0.41489 0.53162 0.19175 0.0
H400 H 0.36652 0.58643 0.19655 0.0
H401 H 0.47048 0.52157 0.12273 0.0
H402 H 0.47557 0.47567 0.21893 0.0
H403 H 0.47174 0.50477 0.25816 0.0
H404 H 0.50881 0.61966 0.23144 0.0
H405 H 0.51198 0.59139 0.19207 0.0
C406 C 0.60201 0.37734 0.14055 0.0
C407 C 0.6345 0.38119 0.15594 0.0
C408 C 0.57191 0.40669 0.13971 0.0
C409 C 0.57462 0.44147 0.1535 0.0
C410 C 0.60824 0.44594 0.16813 0.0
C411 C 0.63683 0.41536 0.17003 0.0
C412 C 0.54077 0.47102 0.15473 0.0
C413 C 0.52912 0.48506 0.17665 0.0
C414 C 0.51951 0.48495 0.13499 0.0
C415 C 0.53119 0.47378 0.11107 0.0
C416 C 0.57038 0.48123 0.10295 0.0
C417 C 0.58105 0.47068 0.08035 0.0
C418 C 0.55278 0.45282 0.06569 0.0
C419 C 0.51368 0.44563 0.07356 0.0
C420 C 0.50281 0.45617 0.09612 0.0
C421 C 0.41202 0.61877 0.14717 0.0
C422 C 0.38406 0.61768 0.16532 0.0
C423 C 0.44164 0.58914 0.14531 0.0
C424 C 0.44376 0.55752 0.16148 0.0
C425 C 0.41503 0.55607 0.17936 0.0
C426 C 0.38643 0.5867 0.18173 0.0
C427 C 0.4766 0.52695 0.15977 0.0
C428 C 0.48706 0.51167 0.13788 0.0
C429 C 0.49862 0.51373 0.17934 0.0
C430 C 0.49356 0.53158 0.2026 0.0
C431 C 0.48247 0.50724 0.22145 0.0
C432 C 0.48033 0.5236 0.24369 0.0
C433 C 0.48979 0.56411 0.2473 0.0
C434 C 0.50102 0.58842 0.22863 0.0
C435 C 0.50272 0.57234 0.20632 0.0
H436 H 0.48866 0.57657 0.26458 0.0
H437 H 0.56113 0.44467 0.04821 0.0
H438 H 0.07148 0.16565 0.68566 0.0
H439 H 0.01471 0.12004 0.67978 0.0
H440 H 0.07733 0.06582 0.62214 0.0
H441 H 0.13071 0.11556 0.62589 0.0
H442 H 0.00629 0.05488 0.61432 0.0
H443 H 0.08495 0.03807 0.68321 0.0
H444 H 0.11391 0.05728 0.72091 0.0
H445 H 0.99521 0.06728 0.74973 0.0
H446 H 0.9655 0.04934 0.712 0.0
H447 H 0.91958 0.86378 0.68205 0.0
H448 H 0.97111 0.91496 0.67592 0.0
H449 H 0.89363 0.97329 0.62593 0.0
H450 H 0.84603 0.91816 0.62919 0.0
H451 H 0.97158 0.98332 0.68687 0.0
H452 H 0.93363 0.04415 0.59545 0.0
H453 H 0.91533 0.0192 0.55664 0.0
H454 H 0.9734 0.90652 0.57113 0.0
H455 H 0.99195 0.93075 0.61017 0.0
C456 C 0.07165 0.14581 0.67082 0.0
C457 C 0.10467 0.14501 0.65574 0.0
C458 C 0.03978 0.11887 0.66783 0.0
C459 C 0.04226 0.0883 0.65104 0.0
C460 C 0.07445 0.08886 0.63529 0.0
C461 C 0.10516 0.11717 0.63751 0.0
C462 C 0.01427 0.05328 0.6513 0.0
C463 C 0.99881 0.03914 0.6302 0.0
C464 C 0.00508 0.03198 0.67192 0.0
C465 C 0.02297 0.0426 0.6947 0.0
C466 C 0.06499 0.04465 0.69754 0.0
C467 C 0.08156 0.05543 0.7189 0.0
C468 C 0.05643 0.0635 0.7377 0.0
C469 C 0.01466 0.061 0.73515 0.0
C470 C 0.99794 0.05062 0.71376 0.0
C471 C 0.91527 0.88576 0.66845 0.0
C472 C 0.88013 0.88555 0.65505 0.0
C473 C 0.9441 0.91595 0.66544 0.0
C474 C 0.93701 0.94824 0.65012 0.0
C475 C 0.90134 0.94818 0.63701 0.0
C476 C 0.87372 0.91676 0.63908 0.0
C477 C 0.96466 0.98372 0.64971 0.0
C478 C 0.97951 0.99845 0.67088 0.0
C479 C 0.97517 1.00418 0.62902 0.0
C480 C 0.96379 0.98909 0.60577 0.0
C481 C 0.94246 0.01402 0.59036 0.0
C482 C 0.93196 0.99997 0.56838 0.0
C483 C 0.94298 0.96117 0.56152 0.0
C484 C 0.96457 0.93637 0.57662 0.0
C485 C 0.97496 0.95018 0.59869 0.0
H486 H 0.93493 0.95037 0.54447 0.0
H487 H 0.06932 0.07165 0.75425 0.0
H488 H 0.19735 0.25125 0.41121 0.0
H489 H 0.19995 0.26647 0.45275 0.0
H490 H 0.29842 0.183 0.46098 0.0
H491 H 0.29603 0.16765 0.41983 0.0
H492 H 0.23864 0.167 0.49095 0.0
H493 H 0.31243 0.2846 0.46668 0.0
H494 H 0.32331 0.34696 0.44435 0.0
H495 H 0.21769 0.39934 0.47481 0.0
H496 H 0.20587 0.33707 0.4971 0.0
H497 H 0.26297 0.19596 0.61105 0.0
H498 H 0.28049 0.19608 0.56983 0.0
H499 H 0.19016 0.28679 0.55706 0.0
H500 H 0.17359 0.28792 0.59795 0.0
H501 H 0.25022 0.29997 0.52937 0.0
H502 H 0.17127 0.18446 0.55017 0.0
H503 H 0.15524 0.12283 0.57214 0.0
H504 H 0.26354 0.06697 0.54732 0.0
H505 H 0.28055 0.12858 0.52549 0.0
C506 C 0.22021 0.23693 0.42176 0.0
C507 C 0.24628 0.20803 0.41212 0.0
C508 C 0.22163 0.24558 0.44554 0.0
C509 C 0.2493 0.22572 0.46007 0.0
C510 C 0.27663 0.1985 0.45022 0.0
C511 C 0.27524 0.18986 0.42659 0.0
C512 C 0.24794 0.23057 0.48572 0.0
C513 C 0.24192 0.19603 0.49935 0.0
C514 C 0.25091 0.26852 0.49672 0.0
C515 C 0.25808 0.30603 0.4834 0.0
C516 C 0.29135 0.3093 0.46848 0.0
C517 C 0.29772 0.34466 0.45586 0.0
C518 C 0.27116 0.37706 0.45812 0.0
C519 C 0.23822 0.37421 0.47306 0.0
C520 C 0.2317 0.33891 0.48571 0.0
C521 C 0.24756 0.21664 0.59957 0.0
C522 C 0.21649 0.24152 0.6079 0.0
C523 C 0.25736 0.21646 0.57593 0.0
C524 C 0.23598 0.24078 0.56015 0.0
C525 C 0.207 0.26757 0.56873 0.0
C526 C 0.19742 0.26799 0.59225 0.0
C527 C 0.24116 0.23635 0.5346 0.0
C528 C 0.24753 0.2709 0.52098 0.0
C529 C 0.23776 0.19848 0.5235 0.0
C530 C 0.22742 0.16127 0.53642 0.0
C531 C 0.1918 0.15912 0.54952 0.0
C532 C 0.18253 0.1242 0.56194 0.0
C533 C 0.20841 0.09104 0.56117 0.0
C534 C 0.24357 0.09271 0.54793 0.0
C535 C 0.25305 0.12762 0.53554 0.0
H536 H 0.20119 0.06402 0.57079 0.0
H537 H 0.27614 0.4044 0.44833 0.0
H538 H 0.33482 0.7833 0.92019 0.0
H539 H 0.32263 0.78263 0.96169 0.0
H540 H 0.23735 0.68596 0.95321 0.0
H541 H 0.24947 0.68632 0.91125 0.0
H542 H 0.21324 0.74166 0.98681 0.0
H543 H 0.33012 0.6633 0.96916 0.0
H544 H 0.39703 0.64664 0.95336 0.0
H545 H 0.44969 0.74326 0.99232 0.0
H546 H 0.38302 0.76082 1.00814 0.0
H547 H 0.22869 0.66143 0.10136 0.0
H548 H 0.22556 0.67548 0.06001 0.0
H549 H 0.31407 0.76935 0.06815 0.0
H550 H 0.31763 0.75526 0.10975 0.0
H551 H 0.33476 0.71632 0.03465 0.0
H552 H 0.21677 0.79185 0.05396 0.0
H553 H 0.15034 0.80356 0.07172 0.0
H554 H 0.09956 0.70863 0.03062 0.0
H555 H 0.16585 0.69595 0.01284 0.0
C556 C 0.31293 0.76222 0.92698 0.0
C557 C 0.29342 0.73455 0.9123 0.0
C558 C 0.30612 0.76183 0.95081 0.0
C559 C 0.27974 0.7337 0.96066 0.0
C560 C 0.25805 0.70779 0.94599 0.0
C561 C 0.26488 0.70814 0.92199 0.0
C562 C 0.277 0.73006 0.9863 0.0
C563 C 0.2397 0.73567 0.99728 0.0
C564 C 0.31165 0.72296 1.00003 0.0
C565 C 0.35147 0.71362 0.98968 0.0
C566 C 0.35586 0.68135 0.97412 0.0
C567 C 0.39379 0.67164 0.96523 0.0
C568 C 0.42758 0.69387 0.97186 0.0
C569 C 0.42348 0.72606 0.98722 0.0
C570 C 0.38565 0.73589 0.99616 0.0
C571 C 0.24704 0.6856 0.0945 0.0
C572 C 0.27357 0.70711 0.10897 0.0
C573 C 0.24502 0.69372 0.07079 0.0
C574 C 0.26945 0.72357 0.0609 0.0
C575 C 0.29486 0.7462 0.07539 0.0
C576 C 0.29672 0.73826 0.09921 0.0
C577 C 0.27113 0.72844 0.03527 0.0
C578 C 0.3083 0.72274 0.02425 0.0
C579 C 0.23633 0.73512 0.02159 0.0
C580 C 0.19639 0.74272 0.03221 0.0
C581 C 0.19153 0.77324 0.04885 0.0
C582 C 0.15387 0.7801 0.05889 0.0
C583 C 0.12077 0.75679 0.05235 0.0
C584 C 0.12524 0.72664 0.03569 0.0
C585 C 0.16284 0.71964 0.0256 0.0
H586 H 0.09164 0.76215 0.06014 0.0
H587 H 0.45701 0.68606 0.96522 0.0
H588 H 0.77782 0.71868 0.60324 0.0
H589 H 0.76513 0.71783 0.56146 0.0
H590 H 0.76386 0.84792 0.5609 0.0
H591 H 0.77294 0.84838 0.60284 0.0
H592 H 0.71955 0.82842 0.52914 0.0
H593 H 0.85114 0.78717 0.5484 0.0
H594 H 0.90432 0.74801 0.56792 0.0
H595 H 0.86289 0.64016 0.53457 0.0
H596 H 0.80899 0.67863 0.51512 0.0
H597 H 0.83602 0.79516 0.41274 0.0
H598 H 0.83311 0.78617 0.45468 0.0
H599 H 0.70316 0.78577 0.4515 0.0
H600 H 0.7064 0.79835 0.40976 0.0
H601 H 0.81257 0.74018 0.48517 0.0
H602 H 0.66012 0.8258 0.49804 0.0
H603 H 0.62172 0.88019 0.479 0.0
H604 H 0.73045 0.92553 0.44842 0.0
H605 H 0.76954 0.87189 0.46758 0.0
C606 C 0.7732 0.74692 0.59422 0.0
C607 C 0.77579 0.78356 0.6062 0.0
C608 C 0.76664 0.74654 0.57028 0.0
C609 C 0.76482 0.78284 0.55768 0.0
C610 C 0.76514 0.81941 0.56998 0.0
C611 C 0.77018 0.81971 0.59403 0.0
C612 C 0.76562 0.78292 0.53176 0.0
C613 C 0.7398 0.80895 0.51958 0.0
C614 C 0.79323 0.75898 0.51902 0.0
C615 C 0.82576 0.73569 0.5305 0.0
C616 C 0.85322 0.75505 0.54533 0.0
C617 C 0.88349 0.73299 0.55639 0.0
C618 C 0.88692 0.6916 0.55253 0.0
C619 C 0.86014 0.67221 0.53757 0.0
C620 C 0.82972 0.69413 0.52652 0.0
C621 C 0.80688 0.79237 0.42101 0.0
C622 C 0.77143 0.7973 0.40811 0.0
C623 C 0.80516 0.7873 0.44504 0.0
C624 C 0.76788 0.78622 0.4566 0.0
C625 C 0.73237 0.7879 0.44329 0.0
C626 C 0.73414 0.79447 0.41937 0.0
C627 C 0.76633 0.78554 0.48251 0.0
C628 C 0.79207 0.75943 0.4947 0.0
C629 C 0.74093 0.81175 0.4953 0.0
C630 C 0.71764 0.8445 0.48403 0.0
C631 C 0.67583 0.84748 0.48733 0.0
C632 C 0.65395 0.87818 0.47651 0.0
C633 C 0.6736 0.90621 0.46245 0.0
C634 C 0.71522 0.90374 0.45926 0.0
C635 C 0.73725 0.8732 0.4701 0.0
H636 H 0.65659 0.92989 0.45406 0.0
H637 H 0.91038 0.67455 0.5611 0.0
H638 H 0.74273 0.21487 0.91017 0.0
H639 H 0.75589 0.21059 0.95182 0.0
H640 H 0.74306 0.33965 0.95724 0.0
H641 H 0.73293 0.34394 0.9154 0.0
H642 H 0.78985 0.32004 0.98873 0.0
H643 H 0.66276 0.2711 0.96629 0.0
H644 H 0.61352 0.23051 0.94453 0.0
H645 H 0.66242 0.12227 0.97405 0.0
H646 H 0.71246 0.16224 0.99571 0.0
H647 H 0.67454 0.26871 0.10232 0.0
H648 H 0.67864 0.26151 0.06029 0.0
H649 H 0.80835 0.26701 0.0643 0.0
H650 H 0.80383 0.27739 0.10617 0.0
H651 H 0.70317 0.21944 0.02805 0.0
H652 H 0.84891 0.31729 0.02045 0.0
H653 H 0.8827 0.37155 0.04223 0.0
H654 H 0.77006 0.40504 0.07319 0.0
H655 H 0.73555 0.35143 0.05137 0.0
C656 C 0.74463 0.24238 0.92018 0.0
C657 C 0.73753 0.27978 0.90961 0.0
C658 C 0.75141 0.23994 0.94405 0.0
C659 C 0.7492 0.27465 0.95797 0.0
C660 C 0.74489 0.31233 0.94708 0.0
C661 C 0.73936 0.31486 0.92309 0.0
C662 C 0.74777 0.27144 0.9838 0.0
C663 C 0.77111 0.2978 0.99727 0.0
C664 C 0.72186 0.24386 0.99523 0.0
C665 C 0.69165 0.21962 0.98242 0.0
C666 C 0.66318 0.23862 0.96803 0.0
C667 C 0.63513 0.21573 0.95572 0.0
C668 C 0.63491 0.17382 0.95786 0.0
C669 C 0.66269 0.15473 0.97238 0.0
C670 C 0.69092 0.17749 0.98468 0.0
C671 C 0.70393 0.26709 0.09425 0.0
C672 C 0.73889 0.27332 0.10744 0.0
C673 C 0.70632 0.26321 0.07016 0.0
C674 C 0.74379 0.26483 0.05884 0.0
C675 C 0.77896 0.267 0.07239 0.0
C676 C 0.77648 0.27224 0.09638 0.0
C677 C 0.74583 0.26753 0.03299 0.0
C678 C 0.72238 0.24127 0.01952 0.0
C679 C 0.76931 0.29724 0.02159 0.0
C680 C 0.78979 0.33002 0.03447 0.0
C681 C 0.83136 0.33635 0.03184 0.0
C682 C 0.85063 0.36698 0.0442 0.0
C683 C 0.82857 0.39162 0.05914 0.0
C684 C 0.78715 0.38584 0.06167 0.0
C685 C 0.76773 0.35534 0.04932 0.0
H686 H 0.84356 0.41525 0.06873 0.0
H687 H 0.61316 0.15614 0.94832 0.0
H688 H 0.60461 0.19735 0.20202 0.0
H689 H 0.53955 0.18568 0.22088 0.0
H690 H 0.55967 0.28852 0.26492 0.0
H691 H 0.62412 0.30071 0.24592 0.0
H692 H 0.51136 0.17005 0.26217 0.0
H693 H 0.47253 0.34096 0.27259 0.0
H694 H 0.48779 0.4051 0.25285 0.0
H695 H 0.51227 0.34135 0.18981 0.0
H696 H 0.49637 0.27696 0.209 0.0
H697 H 0.35756 0.1864 0.34213 0.0
H698 H 0.41913 0.20029 0.32075 0.0
H699 H 0.34906 0.24223 0.26267 0.0
H700 H 0.28668 0.22932 0.28453 0.0
H701 H 0.41708 0.2859 0.26654 0.0
H702 H 0.38567 0.14714 0.26325 0.0
H703 H 0.36594 0.08082 0.27871 0.0
H704 H 0.4751 0.07553 0.31845 0.0
H705 H 0.4951 0.14224 0.3036 0.0
C706 C 0.59561 0.21689 0.2161 0.0
C707 C 0.61957 0.25007 0.22238 0.0
C708 C 0.55823 0.21035 0.22679 0.0
C709 C 0.54405 0.23684 0.24394 0.0
C710 C 0.5693 0.26825 0.25132 0.0
C711 C 0.60645 0.27493 0.24059 0.0
C712 C 0.50257 0.23257 0.25368 0.0
C713 C 0.49084 0.19542 0.26311 0.0
C714 C 0.47491 0.26522 0.25418 0.0
C715 C 0.48367 0.30403 0.24236 0.0
C716 C 0.48094 0.34063 0.25449 0.0
C717 C 0.48972 0.37704 0.24338 0.0
C718 C 0.50115 0.37727 0.22012 0.0
C719 C 0.50356 0.34112 0.20785 0.0
C720 C 0.49468 0.30466 0.21884 0.0
C721 C 0.35514 0.19913 0.32492 0.0
C722 C 0.31718 0.20636 0.31493 0.0
C723 C 0.39046 0.20692 0.31265 0.0
C724 C 0.3889 0.22129 0.28981 0.0
C725 C 0.3511 0.23085 0.28019 0.0
C726 C 0.31547 0.22355 0.29269 0.0
C727 C 0.42678 0.2239 0.27592 0.0
C728 C 0.43768 0.26061 0.26559 0.0
C729 C 0.45317 0.19047 0.27384 0.0
C730 C 0.44177 0.14985 0.28241 0.0
C731 C 0.40539 0.13194 0.27537 0.0
C732 C 0.39414 0.09427 0.28404 0.0
C733 C 0.41924 0.07399 0.29956 0.0
C734 C 0.45568 0.09129 0.30642 0.0
C735 C 0.46701 0.12903 0.29787 0.0
H736 H 0.41047 0.04484 0.30627 0.0
H737 H 0.50808 0.40544 0.21157 0.0
H738 H 0.27063 0.7805 0.78488 0.0
H739 H 0.25887 0.84239 0.76259 0.0
H740 H 0.30233 0.91308 0.82005 0.0
H741 H 0.31595 0.8515 0.84171 0.0
H742 H 0.21625 0.90493 0.76426 0.0
H743 H 0.35015 0.99652 0.80357 0.0
H744 H 0.41789 0.98319 0.81934 0.0
H745 H 0.42406 0.8727 0.78094 0.0
H746 H 0.35672 0.88572 0.76461 0.0
H747 H 0.18587 0.10971 0.74031 0.0
H748 H 0.19988 0.04535 0.75897 0.0
H749 H 0.31013 0.03482 0.72006 0.0
H750 H 0.29635 0.09976 0.70135 0.0
H751 H 0.32334 0.00889 0.76156 0.0
H752 H 0.22627 0.97987 0.7052 0.0
H753 H 0.16447 0.97939 0.68157 0.0
H754 H 0.09405 0.95231 0.74184 0.0
H755 H 0.15535 0.95322 0.76595 0.0
C756 C 0.27723 0.80932 0.79278 0.0
C757 C 0.29447 0.81112 0.81497 0.0
C758 C 0.27063 0.84475 0.78002 0.0
C759 C 0.28068 0.88266 0.78931 0.0
C760 C 0.29558 0.88438 0.81206 0.0
C761 C 0.30299 0.84909 0.82456 0.0
C762 C 0.27611 0.9204 0.77532 0.0
C763 C 0.23964 0.92769 0.76377 0.0
C764 C 0.30723 0.94956 0.77367 0.0
C765 C 0.34818 0.94196 0.78304 0.0
C766 C 0.36605 0.96951 0.79838 0.0
C767 C 0.40438 0.96199 0.80743 0.0
C768 C 0.42522 0.92707 0.8012 0.0
C769 C 0.40786 0.89969 0.7858 0.0
C770 C 0.3696 0.90713 0.77665 0.0
C771 C 0.21346 0.09409 0.73592 0.0
C772 C 0.24005 0.11011 0.71932 0.0
C773 C 0.22121 0.05692 0.74645 0.0
C774 C 0.25567 0.03459 0.74065 0.0
C775 C 0.28319 0.05125 0.72479 0.0
C776 C 0.2754 0.08854 0.71417 0.0
C777 C 0.26281 0.99408 0.75128 0.0
C778 C 0.29985 0.98624 0.76215 0.0
C779 C 0.23289 0.9636 0.75137 0.0
C780 C 0.19546 0.96686 0.73743 0.0
C781 C 0.19755 0.9745 0.71351 0.0
C782 C 0.16263 0.97388 0.7 0.0
C783 C 0.12546 0.96537 0.71017 0.0
C784 C 0.12294 0.95852 0.73397 0.0
C785 C 0.15775 0.95916 0.74757 0.0
H786 H 0.09857 0.96416 0.69961 0.0
H787 H 0.45484 0.92127 0.80827 0.0
H788 H 0.71983 0.78815 0.27858 0.0
H789 H 0.65528 0.77699 0.25852 0.0
H790 H 0.59233 0.78818 0.32342 0.0
H791 H 0.65631 0.80028 0.34326 0.0
H792 H 0.56193 0.72536 0.29327 0.0
H793 H 0.59824 0.86682 0.2928 0.0
H794 H 0.64475 0.9228 0.28443 0.0
H795 H 0.64217 0.89305 0.21215 0.0
H796 H 0.59626 0.83631 0.22018 0.0
H797 H 0.36442 0.75142 0.25483 0.0
H798 H 0.42706 0.76666 0.27548 0.0
H799 H 0.48501 0.79347 0.21042 0.0
H800 H 0.42141 0.78211 0.19021 0.0
H801 H 0.52016 0.83529 0.2402 0.0
H802 H 0.48056 0.69629 0.23944 0.0
H803 H 0.43394 0.64025 0.24734 0.0
H804 H 0.44608 0.66032 0.32038 0.0
H805 H 0.49104 0.71794 0.31291 0.0
C806 C 0.69228 0.78703 0.28858 0.0
C807 C 0.69299 0.79479 0.31246 0.0
C808 C 0.65544 0.78098 0.27712 0.0
C809 C 0.61893 0.78199 0.28948 0.0
C810 C 0.62003 0.78717 0.31355 0.0
C811 C 0.6566 0.79403 0.32486 0.0
C812 C 0.57934 0.78118 0.27733 0.0
C813 C 0.55259 0.74943 0.28174 0.0
C814 C 0.56747 0.81229 0.26203 0.0
C815 C 0.59415 0.84707 0.25712 0.0
C816 C 0.60781 0.87203 0.27514 0.0
C817 C 0.63406 0.90391 0.27046 0.0
C818 C 0.64648 0.91142 0.24778 0.0
C819 C 0.63257 0.88715 0.22972 0.0
C820 C 0.60644 0.85513 0.23432 0.0
C821 C 0.39015 0.7622 0.24513 0.0
C822 C 0.38804 0.76586 0.22097 0.0
C823 C 0.42623 0.77027 0.25686 0.0
C824 C 0.4616 0.77955 0.24449 0.0
C825 C 0.45856 0.786 0.22049 0.0
C826 C 0.42204 0.77966 0.2089 0.0
C827 C 0.50211 0.77928 0.25604 0.0
C828 C 0.52923 0.8109 0.25155 0.0
C829 C 0.51452 0.74761 0.27106 0.0
C830 C 0.4889 0.71178 0.27559 0.0
C831 C 0.47311 0.68896 0.25719 0.0
C832 C 0.44678 0.65704 0.26159 0.0
C833 C 0.43714 0.64667 0.28434 0.0
C834 C 0.45358 0.66839 0.30275 0.0
C835 C 0.47928 0.70087 0.29844 0.0
H836 H 0.41698 0.62175 0.2877 0.0
H837 H 0.66682 0.9361 0.24418 0.0
H838 H 0.73956 0.22602 0.78585 0.0
H839 H 0.7495 0.16315 0.76403 0.0
H840 H 0.69835 0.09568 0.8206 0.0
H841 H 0.68755 0.15774 0.84201 0.0
H842 H 0.78904 0.09358 0.76919 0.0
H843 H 0.63855 0.02214 0.80156 0.0
H844 H 0.5713 0.04519 0.81391 0.0
H845 H 0.58573 0.15391 0.77452 0.0
H846 H 0.65266 0.13117 0.76154 0.0
H847 H 0.79832 0.88682 0.74799 0.0
H848 H 0.78631 0.95101 0.7674 0.0
H849 H 0.68764 0.97543 0.72089 0.0
H850 H 0.69892 0.9106 0.70175 0.0
H851 H 0.66993 1.00432 0.76141 0.0
H852 H 0.78191 0.01466 0.71148 0.0
H853 H 0.84715 0.99584 0.69426 0.0
H854 H 0.90615 0.01761 0.75917 0.0
H855 H 0.84109 0.03575 0.77695 0.0
C856 C 0.73087 0.1977 0.79368 0.0
C857 C 0.71223 0.19704 0.81554 0.0
C858 C 0.73653 0.16178 0.7812 0.0
C859 C 0.72381 0.12465 0.79042 0.0
C860 C 0.70744 0.12391 0.8128 0.0
C861 C 0.70139 0.15956 0.82508 0.0
C862 C 0.72594 0.08664 0.77665 0.0
C863 C 0.76302 0.07408 0.76749 0.0
C864 C 0.69166 0.06171 0.77358 0.0
C865 C 0.65082 0.07504 0.78074 0.0
C866 C 0.62726 0.05081 0.79539 0.0
C867 C 0.5892 0.06385 0.80251 0.0
C868 C 0.5743 0.10103 0.79505 0.0
C869 C 0.59733 0.12516 0.78033 0.0
C870 C 0.63533 0.1122 0.77308 0.0
C871 C 0.77337 0.90535 0.74226 0.0
C872 C 0.74966 0.89358 0.72326 0.0
C873 C 0.76683 0.94233 0.75322 0.0
C874 C 0.73684 0.96877 0.7452 0.0
C875 C 0.71123 0.95582 0.7273 0.0
C876 C 0.71753 0.91856 0.71645 0.0
C877 C 0.73344 0.01036 0.75487 0.0
C878 C 0.69601 0.02373 0.76312 0.0
C879 C 0.76709 0.03663 0.75628 0.0
C880 C 0.80647 0.0262 0.74562 0.0
C881 C 0.80873 0.01515 0.72215 0.0
C882 C 0.84568 0.00461 0.71228 0.0
C883 C 0.88074 0.0054 0.72563 0.0
C884 C 0.87893 0.01692 0.74886 0.0
C885 C 0.84201 0.02734 0.75885 0.0
H886 H 0.90929 0.99712 0.71797 0.0
H887 H 0.54489 0.11112 0.80065 0.0
H888 H 0.12721 0.29825 0.29584 0.0
H889 H 0.0641 0.31271 0.27507 0.0
H890 H 0.02535 0.19008 0.28643 0.0
H891 H 0.08908 0.17514 0.30506 0.0
H892 H 1.00324 0.2051 0.24775 0.0
H893 H 0.98896 0.28215 0.31746 0.0
H894 H 0.00706 0.33253 0.34704 0.0
H895 H 1.00379 0.42599 0.29567 0.0
H896 H 0.98614 0.37607 0.26574 0.0
H897 H 0.7948 0.23915 0.21931 0.0
H898 H 0.85659 0.22566 0.24142 0.0
H899 H 0.90798 0.33663 0.21641 0.0
H900 H 0.84696 0.35049 0.19466 0.0
H901 H 0.92179 0.32755 0.26224 0.0
H902 H 0.93381 0.24385 0.19313 0.0
H903 H 0.91104 0.19041 0.16653 0.0
H904 H 0.91246 0.10484 0.22229 0.0
H905 H 0.93477 0.15788 0.24927 0.0
C906 C 0.1052 0.27451 0.29364 0.0
C907 C 0.11329 0.2355 0.30179 0.0
C908 C 0.06883 0.2828 0.28201 0.0
C909 C 0.03912 0.25268 0.27929 0.0
C910 C 0.04743 0.21395 0.28786 0.0
C911 C 0.08406 0.2054 0.29862 0.0
C912 C 0.99974 0.26049 0.26724 0.0
C913 C 0.98534 0.2317 0.25135 0.0
C914 C 0.97594 0.29527 0.27139 0.0
C915 C 0.98667 0.32531 0.28933 0.0
C916 C 0.99239 0.3134 0.31245 0.0
C917 C 1.00252 0.34188 0.32928 0.0
C918 C 0.00669 0.38241 0.32323 0.0
C919 C 1.00063 0.39457 0.30033 0.0
C920 C 0.99053 0.36621 0.28343 0.0
C921 C 0.81925 0.26066 0.21852 0.0
C922 C 0.8157 0.29578 0.20499 0.0
C923 C 0.85465 0.25287 0.23114 0.0
C924 C 0.88722 0.28001 0.23049 0.0
C925 C 0.88342 0.31522 0.21727 0.0
C926 C 0.84834 0.32295 0.20468 0.0
C927 C 0.92561 0.27203 0.24319 0.0
C928 C 0.9398 0.30089 0.259 0.0
C929 C 0.94865 0.23677 0.23954 0.0
C930 C 0.93562 0.2049 0.22323 0.0
C931 C 0.92903 0.21369 0.19973 0.0
C932 C 0.91624 0.18346 0.18459 0.0
C933 C 0.91022 0.14428 0.19272 0.0
C934 C 0.91709 0.13521 0.21601 0.0
C935 C 0.92984 0.16532 0.23122 0.0
H936 H 0.9003 0.12093 0.18098 0.0
H937 H 0.01453 0.40441 0.33628 0.0
H938 H 0.20963 0.28339 0.73978 0.0
H939 H 0.22205 0.34595 0.76157 0.0
H940 H 0.23397 0.41128 0.69748 0.0
H941 H 0.21995 0.34938 0.67575 0.0
H942 H 0.29585 0.42384 0.74206 0.0
H943 H 0.15519 0.42615 0.71212 0.0
H944 H 0.08995 0.39135 0.70816 0.0
H945 H 0.08127 0.38098 0.78205 0.0
H946 H 0.14694 0.41499 0.78639 0.0
H947 H 0.28928 0.62749 0.76917 0.0
H948 H 0.27696 0.56355 0.74958 0.0
H949 H 0.20117 0.5255 0.8061 0.0
H950 H 0.21213 0.59039 0.82531 0.0
H951 H 0.17249 0.49427 0.76887 0.0
H952 H 0.3023 0.49694 0.80193 0.0
H953 H 0.37037 0.52182 0.81115 0.0
H954 H 0.40348 0.51339 0.73952 0.0
H955 H 0.33537 0.48906 0.72979 0.0
C956 C 0.21594 0.31094 0.73041 0.0
C957 C 0.21425 0.31163 0.70612 0.0
C958 C 0.22281 0.34661 0.74284 0.0
C959 C 0.22892 0.38318 0.7311 0.0
C960 C 0.2295 0.38335 0.70684 0.0
C961 C 0.22156 0.34804 0.69446 0.0
C962 C 0.2313 0.42188 0.7439 0.0
C963 C 0.26898 0.43958 0.74773 0.0
C964 C 0.19631 0.44137 0.75217 0.0
C965 C 0.15607 0.42273 0.74957 0.0
C966 C 0.13947 0.41621 0.72751 0.0
C967 C 0.10243 0.39665 0.72519 0.0
C968 C 0.08152 0.38387 0.74484 0.0
C969 C 0.09752 0.39084 0.76685 0.0
C970 C 0.13464 0.41026 0.76924 0.0
C971 C 0.26908 0.60595 0.77713 0.0
C972 C 0.25172 0.61401 0.79881 0.0
C973 C 0.26245 0.5691 0.76605 0.0
C974 C 0.23921 0.53891 0.77666 0.0
C975 C 0.21953 0.54799 0.79758 0.0
C976 C 0.22561 0.58527 0.80851 0.0
C977 C 0.23727 0.49752 0.76645 0.0
C978 C 0.19961 0.47896 0.76323 0.0
C979 C 0.27255 0.4766 0.75941 0.0
C980 C 0.31355 0.49153 0.7651 0.0
C981 C 0.32397 0.50072 0.7881 0.0
C982 C 0.36259 0.51467 0.79343 0.0
C983 C 0.39121 0.51925 0.77593 0.0
C984 C 0.38126 0.50987 0.75306 0.0
C985 C 0.34265 0.49598 0.74763 0.0
H986 H 0.42112 0.52997 0.78009 0.0
H987 H 0.0529 0.36863 0.74301 0.0
H988 H 0.15985 0.66281 0.18279 0.0
H989 H 0.09585 0.67718 0.20145 0.0
H990 H 0.15508 0.75995 0.24783 0.0
H991 H 0.21951 0.74663 0.22849 0.0
H992 H 0.06927 0.66326 0.24163 0.0
H993 H 0.08835 0.83037 0.26742 0.0
H994 H 0.12333 0.89149 0.25381 0.0
H995 H 0.12319 0.84554 0.18437 0.0
H996 H 0.08778 0.78441 0.19753 0.0
H997 H 0.91325 0.71839 0.3203 0.0
H998 H 0.97625 0.70372 0.30016 0.0
H999 H 0.94284 0.78636 0.24575 0.0
H1000 H 0.8807 0.80245 0.26643 0.0
H1001 H 0.01568 0.80037 0.25581 0.0
H1002 H 0.94429 0.67809 0.23978 0.0
H1003 H 0.90555 0.61674 0.24885 0.0
H1004 H 1.00331 0.57265 0.29042 0.0
H1005 H 0.04245 0.63399 0.28183 0.0
C1006 C 0.15939 0.68433 0.19687 0.0
C1007 C 0.195 0.70357 0.2041 0.0
C1008 C 0.12261 0.69242 0.20762 0.0
C1009 C 0.12022 0.71974 0.2261 0.0
C1010 C 0.15574 0.73923 0.23338 0.0
C1011 C 0.19267 0.73154 0.22233 0.0
C1012 C 0.08059 0.72682 0.23779 0.0
C1013 C 0.05765 0.69332 0.24472 0.0
C1014 C 0.0648 0.76589 0.24166 0.0
C1015 C 0.08584 0.80264 0.23353 0.0
C1016 C 0.0957 0.83338 0.24925 0.0
C1017 C 0.11561 0.86801 0.24161 0.0
C1018 C 0.12561 0.87232 0.21825 0.0
C1019 C 0.11558 0.84208 0.20247 0.0
C1020 C 0.09564 0.80742 0.21002 0.0
C1021 C 0.9189 0.73275 0.30378 0.0
C1022 C 0.89177 0.7614 0.2949 0.0
C1023 C 0.95509 0.72437 0.29224 0.0
C1024 C 0.96457 0.7437 0.27124 0.0
C1025 C 0.93663 0.77115 0.26195 0.0
C1026 C 0.90082 0.78005 0.27368 0.0
C1027 C 1.00418 0.73678 0.25947 0.0
C1028 C 0.02726 0.77031 0.25269 0.0
C1029 C 0.0196 0.6977 0.25513 0.0
C1030 C 0.99612 0.66081 0.26034 0.0
C1031 C 0.9574 0.65544 0.251 0.0
C1032 C 0.93539 0.62065 0.25603 0.0
C1033 C 0.95191 0.59086 0.27025 0.0
C1034 C 0.99053 0.59577 0.27943 0.0
C1035 C 0.01265 0.63052 0.27447 0.0
H1036 H 0.93483 0.56395 0.27412 0.0
H1037 H 0.14104 0.89914 0.21238 0.0
H1038 H 0.67903 0.41145 0.78751 0.0
H1039 H 0.69165 0.47435 0.76759 0.0
H1040 H 0.81971 0.45408 0.773 0.0
H1041 H 0.80687 0.39203 0.79502 0.0
H1042 H 0.80869 0.52689 0.7811 0.0
H1043 H 0.75797 0.44602 0.71877 0.0
H1044 H 0.71035 0.40011 0.69937 0.0
H1045 H 0.61602 0.48769 0.7065 0.0
H1046 H 0.66299 0.53399 0.7261 0.0
H1047 H 0.85936 0.67507 0.69733 0.0
H1048 H 0.84578 0.61172 0.71704 0.0
H1049 H 0.72331 0.64898 0.72922 0.0
H1050 H 0.73674 0.71327 0.70948 0.0
H1051 H 0.73136 0.5687 0.71164 0.0
H1052 H 0.78579 0.65005 0.77298 0.0
H1053 H 0.83585 0.69517 0.79085 0.0
H1054 H 0.92699 0.60441 0.78319 0.0
H1055 H 0.87758 0.55893 0.76495 0.0
C1056 C 0.70999 0.4199 0.78419 0.0
C1057 C 0.74198 0.39633 0.79268 0.0
C1058 C 0.71721 0.45605 0.77255 0.0
C1059 C 0.7567 0.46902 0.76805 0.0
C1060 C 0.78887 0.44497 0.77607 0.0
C1061 C 0.78159 0.40923 0.78848 0.0
C1062 C 0.7641 0.50852 0.7561 0.0
C1063 C 0.7922 0.53549 0.76566 0.0
C1064 C 0.74205 0.52083 0.73621 0.0
C1065 C 0.71395 0.49336 0.72402 0.0
C1066 C 0.72704 0.45543 0.71625 0.0
C1067 C 0.70017 0.42934 0.70522 0.0
C1068 C 0.66018 0.44095 0.70173 0.0
C1069 C 0.64701 0.47874 0.70919 0.0
C1070 C 0.67376 0.50495 0.72022 0.0
C1071 C 0.82943 0.67007 0.70418 0.0
C1072 C 0.79911 0.69951 0.70174 0.0
C1073 C 0.82181 0.63372 0.71556 0.0
C1074 C 0.78362 0.62557 0.72474 0.0
C1075 C 0.75306 0.65464 0.72229 0.0
C1076 C 0.76082 0.69144 0.71109 0.0
C1077 C 0.77591 0.58642 0.73662 0.0
C1078 C 0.74781 0.55971 0.72703 0.0
C1079 C 0.79841 0.57408 0.75621 0.0
C1080 C 0.82805 0.60121 0.76742 0.0
C1081 C 0.81657 0.63982 0.77495 0.0
C1082 C 0.84482 0.66544 0.78517 0.0
C1083 C 0.88459 0.6527 0.7881 0.0
C1084 C 0.89617 0.61425 0.78088 0.0
C1085 C 0.86805 0.58852 0.77063 0.0
H1086 H 0.90642 0.67259 0.79601 0.0
H1087 H 0.6394 0.42069 0.69323 0.0
loop_
_geom_bond_atom_site_label_1
_geom_bond_atom_site_label_2
_geom_bond_distance
_geom_bond_site_symmetry_2
_ccdc_geom_bond_type
Mn0 O5 2.095 . S
Mn0 O15 2.162 . S
Mn0 O16 2.297 . S
Mn0 O24 2.385 . S
Mn0 O25 2.209 . S
Mn0 O26 2.094 . S
Mn1 O6 2.121 . S
Mn1 N8 2.257 . S
Mn1 N17 2.282 . S
Mn1 O25 2.215 . S
Mn1 O27 2.117 . S
C2 O24 1.234 . S
C2 O25 1.283 . S
C3 O15 1.281 . S
C3 O16 1.236 . S
C4 O26 1.240 . S
C4 O27 1.264 . S
O5 Mn0 2.095 . S
O5 C14 1.250 . S
O6 Mn1 2.121 . S
O6 C14 1.258 . S
C7 N8 1.326 . S
C7 C11 1.460 . S
C7 H13 0.929 . S
N8 Mn1 2.257 . S
N8 C7 1.326 . S
N8 C12 1.362 . S
C9 C10 1.258 . S
C9 C12 1.431 . S
C9 C29 1.449 1_545 S
C10 C9 1.258 . S
C10 C11 1.477 . S
C10 H30 0.931 . S
C11 C7 1.460 . S
C11 C10 1.477 . S
C11 H31 0.930 . S
C12 N8 1.362 . S
C12 C9 1.431 . S
C12 C22 1.476 . S
H13 C7 0.929 . S
C14 O5 1.250 . S
C14 O6 1.258 . S
O15 Mn0 2.162 . S
O15 C3 1.281 . S
O16 Mn0 2.297 . S
O16 C3 1.236 . S
N17 Mn1 2.282 . S
N17 C18 1.328 . S
N17 C22 1.318 . S
C18 N17 1.328 . S
C18 C19 1.457 . S
C18 H23 0.929 . S
C19 C18 1.457 . S
C19 C20 1.291 . S
C19 H32 0.931 . S
C20 C19 1.291 . S
C20 C21 1.373 . S
C20 H33 0.929 . S
C21 C20 1.373 . S
C21 C22 1.396 . S
C21 C28 1.403 1_545 S
C22 C12 1.476 . S
C22 N17 1.318 . S
C22 C21 1.396 . S
H23 C18 0.929 . S
O24 Mn0 2.385 . S
O24 C2 1.234 . S
O25 Mn0 2.209 . S
O25 Mn1 2.215 . S
O25 C2 1.283 . S
O26 Mn0 2.094 . S
O26 C4 1.240 . S
O27 Mn1 2.117 . S
O27 C4 1.264 . S
C28 C21 1.403 1_565 S
C28 C29 1.399 . S
C28 H34 0.929 . S
C29 C9 1.449 1_565 S
C29 C28 1.399 . S
C29 H35 0.930 . S
H30 C10 0.931 . S
H31 C11 0.930 . S
H32 C19 0.931 . S
H33 C20 0.929 . S
H34 C28 0.929 . S
H35 C29 0.930 . S
Mn36 O41 2.095 . S
Mn36 O51 2.162 . S
Mn36 O52 2.297 . S
Mn36 O60 2.385 . S
Mn36 O61 2.209 . S
Mn36 O62 2.094 . S
Mn37 O42 2.121 . S
Mn37 N44 2.257 . S
Mn37 N53 2.282 . S
Mn37 O61 2.215 . S
Mn37 O63 2.117 . S
C38 O60 1.234 . S
C38 O61 1.283 . S
C39 O51 1.281 . S
C39 O52 1.236 . S
C40 O62 1.240 . S
C40 O63 1.264 . S
O41 Mn36 2.095 . S
O41 C50 1.250 . S
O42 Mn37 2.121 . S
O42 C50 1.258 . S
C43 N44 1.326 . S
C43 C47 1.460 . S
C43 H49 0.929 . S
N44 Mn37 2.257 . S
N44 C43 1.326 . S
N44 C48 1.362 . S
C45 C46 1.258 . S
C45 C48 1.431 . S
C45 C65 1.449 . S
C46 C45 1.258 . S
C46 C47 1.477 . S
C46 H66 0.931 . S
C47 C43 1.460 . S
C47 C46 1.477 . S
C47 H67 0.930 . S
C48 N44 1.362 . S
C48 C45 1.431 . S
C48 C58 1.476 . S
H49 C43 0.929 . S
C50 O41 1.250 . S
C50 O42 1.258 . S
O51 Mn36 2.162 . S
O51 C39 1.281 . S
O52 Mn36 2.297 . S
O52 C39 1.236 . S
N53 Mn37 2.282 . S
N53 C54 1.328 . S
N53 C58 1.318 . S
C54 N53 1.328 . S
C54 C55 1.457 . S
C54 H59 0.929 . S
C55 C54 1.457 . S
C55 C56 1.291 . S
C55 H68 0.931 . S
C56 C55 1.291 . S
C56 C57 1.373 . S
C56 H69 0.929 . S
C57 C56 1.373 . S
C57 C58 1.396 . S
C57 C64 1.403 . S
C58 C48 1.476 . S
C58 N53 1.318 . S
C58 C57 1.396 . S
H59 C54 0.929 . S
O60 Mn36 2.385 . S
O60 C38 1.234 . S
O61 Mn36 2.209 . S
O61 Mn37 2.215 . S
O61 C38 1.283 . S
O62 Mn36 2.094 . S
O62 C40 1.240 . S
O63 Mn37 2.117 . S
O63 C40 1.264 . S
C64 C57 1.403 . S
C64 C65 1.399 . S
C64 H70 0.929 . S
C65 C45 1.449 . S
C65 C64 1.399 . S
C65 H71 0.930 . S
H66 C46 0.931 . S
H67 C47 0.930 . S
H68 C55 0.931 . S
H69 C56 0.929 . S
H70 C64 0.929 . S
H71 C65 0.930 . S
Mn72 O77 2.095 . S
Mn72 O87 2.162 . S
Mn72 O88 2.297 . S
Mn72 O96 2.385 . S
Mn72 O97 2.209 . S
Mn72 O98 2.094 . S
Mn73 O78 2.121 . S
Mn73 N80 2.257 . S
Mn73 N89 2.282 . S
Mn73 O97 2.215 . S
Mn73 O99 2.117 . S
C74 O96 1.234 . S
C74 O97 1.283 . S
C75 O87 1.281 . S
C75 O88 1.236 . S
C76 O98 1.240 . S
C76 O99 1.264 . S
O77 Mn72 2.095 . S
O77 C86 1.250 . S
O78 Mn73 2.121 . S
O78 C86 1.258 . S
C79 N80 1.326 . S
C79 C83 1.460 . S
C79 H85 0.929 . S
N80 Mn73 2.257 . S
N80 C79 1.326 . S
N80 C84 1.362 . S
C81 C82 1.258 . S
C81 C84 1.431 . S
C81 C101 1.449 1_565 S
C82 C81 1.258 . S
C82 C83 1.477 . S
C82 H102 0.931 . S
C83 C79 1.460 . S
C83 C82 1.477 . S
C83 H103 0.930 . S
C84 N80 1.362 . S
C84 C81 1.431 . S
C84 C94 1.476 . S
H85 C79 0.929 . S
C86 O77 1.250 . S
C86 O78 1.258 . S
O87 Mn72 2.162 . S
O87 C75 1.281 . S
O88 Mn72 2.297 . S
O88 C75 1.236 . S
N89 Mn73 2.282 . S
N89 C90 1.328 . S
N89 C94 1.318 . S
C90 N89 1.328 . S
C90 C91 1.457 . S
C90 H95 0.929 . S
C91 C90 1.457 . S
C91 C92 1.291 . S
C91 H104 0.931 . S
C92 C91 1.291 . S
C92 C93 1.373 . S
C92 H105 0.929 . S
C93 C92 1.373 . S
C93 C94 1.396 . S
C93 C100 1.403 1_565 S
C94 C84 1.476 . S
C94 N89 1.318 . S
C94 C93 1.396 . S
H95 C90 0.929 . S
O96 Mn72 2.385 . S
O96 C74 1.234 . S
O97 Mn72 2.209 . S
O97 Mn73 2.215 . S
O97 C74 1.283 . S
O98 Mn72 2.094 . S
O98 C76 1.240 . S
O99 Mn73 2.117 . S
O99 C76 1.264 . S
C100 C93 1.403 1_545 S
C100 C101 1.399 . S
C100 H106 0.929 . S
C101 C81 1.449 1_545 S
C101 C100 1.399 . S
C101 H107 0.930 . S
H102 C82 0.931 . S
H103 C83 0.930 . S
H104 C91 0.931 . S
H105 C92 0.929 . S
H106 C100 0.929 . S
H107 C101 0.930 . S
Mn108 O113 2.095 . S
Mn108 O123 2.162 . S
Mn108 O124 2.297 . S
Mn108 O132 2.385 . S
Mn108 O133 2.209 . S
Mn108 O134 2.094 . S
Mn109 O114 2.121 . S
Mn109 N116 2.257 . S
Mn109 N125 2.282 . S
Mn109 O133 2.215 . S
Mn109 O135 2.117 . S
C110 O132 1.234 . S
C110 O133 1.283 . S
C111 O123 1.281 . S
C111 O124 1.236 . S
C112 O134 1.240 . S
C112 O135 1.264 . S
O113 Mn108 2.095 . S
O113 C122 1.250 . S
O114 Mn109 2.121 . S
O114 C122 1.258 . S
C115 N116 1.326 . S
C115 C119 1.460 . S
C115 H121 0.929 . S
N116 Mn109 2.257 . S
N116 C115 1.326 . S
N116 C120 1.362 . S
C117 C118 1.258 . S
C117 C120 1.431 . S
C117 C137 1.449 . S
C118 C117 1.258 . S
C118 C119 1.477 . S
C118 H138 0.931 . S
C119 C115 1.460 . S
C119 C118 1.477 . S
C119 H139 0.930 . S
C120 N116 1.362 . S
C120 C117 1.431 . S
C120 C130 1.476 . S
H121 C115 0.929 . S
C122 O113 1.250 . S
C122 O114 1.258 . S
O123 Mn108 2.162 . S
O123 C111 1.281 . S
O124 Mn108 2.297 . S
O124 C111 1.236 . S
N125 Mn109 2.282 . S
N125 C126 1.328 . S
N125 C130 1.318 . S
C126 N125 1.328 . S
C126 C127 1.457 . S
C126 H131 0.929 . S
C127 C126 1.457 . S
C127 C128 1.291 . S
C127 H140 0.931 . S
C128 C127 1.291 . S
C128 C129 1.373 . S
C128 H141 0.929 . S
C129 C128 1.373 . S
C129 C130 1.396 . S
C129 C136 1.403 . S
C130 C120 1.476 . S
C130 N125 1.318 . S
C130 C129 1.396 . S
H131 C126 0.929 . S
O132 Mn108 2.385 . S
O132 C110 1.234 . S
O133 Mn108 2.209 . S
O133 Mn109 2.215 . S
O133 C110 1.283 . S
O134 Mn108 2.094 . S
O134 C112 1.240 . S
O135 Mn109 2.117 . S
O135 C112 1.264 . S
C136 C129 1.403 . S
C136 C137 1.399 . S
C136 H142 0.929 . S
C137 C117 1.449 . S
C137 C136 1.399 . S
C137 H143 0.930 . S
H138 C118 0.931 . S
H139 C119 0.930 . S
H140 C127 0.931 . S
H141 C128 0.929 . S
H142 C136 0.929 . S
H143 C137 0.930 . S
Mn144 O149 2.095 . S
Mn144 O159 2.162 . S
Mn144 O160 2.297 . S
Mn144 O168 2.385 . S
Mn144 O169 2.209 . S
Mn144 O170 2.094 . S
Mn145 O150 2.121 . S
Mn145 N152 2.257 . S
Mn145 N161 2.282 . S
Mn145 O169 2.215 . S
Mn145 O171 2.117 . S
C146 O168 1.234 . S
C146 O169 1.283 . S
C147 O159 1.281 . S
C147 O160 1.236 . S
C148 O170 1.240 . S
C148 O171 1.264 . S
O149 Mn144 2.095 . S
O149 C158 1.250 . S
O150 Mn145 2.121 . S
O150 C158 1.258 . S
C151 N152 1.326 . S
C151 C155 1.460 . S
C151 H157 0.929 . S
N152 Mn145 2.257 . S
N152 C151 1.326 . S
N152 C156 1.362 . S
C153 C154 1.258 . S
C153 C156 1.431 . S
C153 C173 1.449 . S
C154 C153 1.258 . S
C154 C155 1.477 . S
C154 H174 0.931 . S
C155 C151 1.460 . S
C155 C154 1.477 . S
C155 H175 0.930 . S
C156 N152 1.362 . S
C156 C153 1.431 . S
C156 C166 1.476 . S
H157 C151 0.929 . S
C158 O149 1.250 . S
C158 O150 1.258 . S
O159 Mn144 2.162 . S
O159 C147 1.281 . S
O160 Mn144 2.297 . S
O160 C147 1.236 . S
N161 Mn145 2.282 . S
N161 C162 1.328 . S
N161 C166 1.318 . S
C162 N161 1.328 . S
C162 C163 1.457 . S
C162 H167 0.929 . S
C163 C162 1.457 . S
C163 C164 1.291 . S
C163 H176 0.931 . S
C164 C163 1.291 . S
C164 C165 1.373 . S
C164 H177 0.929 . S
C165 C164 1.373 . S
C165 C166 1.396 . S
C165 C172 1.403 . S
C166 C156 1.476 . S
C166 N161 1.318 . S
C166 C165 1.396 . S
H167 C162 0.929 . S
O168 Mn144 2.385 . S
O168 C146 1.234 . S
O169 Mn144 2.209 . S
O169 Mn145 2.215 . S
O169 C146 1.283 . S
O170 Mn144 2.094 . S
O170 C148 1.240 . S
O171 Mn145 2.117 . S
O171 C148 1.264 . S
C172 C165 1.403 . S
C172 C173 1.399 . S
C172 H178 0.929 . S
C173 C153 1.449 . S
C173 C172 1.399 . S
C173 H179 0.930 . S
H174 C154 0.931 . S
H175 C155 0.930 . S
H176 C163 0.931 . S
H177 C164 0.929 . S
H178 C172 0.929 . S
H179 C173 0.930 . S
Mn180 O185 2.095 . S
Mn180 O195 2.162 . S
Mn180 O196 2.297 . S
Mn180 O204 2.385 . S
Mn180 O205 2.209 . S
Mn180 O206 2.094 . S
Mn181 O186 2.121 . S
Mn181 N188 2.257 . S
Mn181 N197 2.282 . S
Mn181 O205 2.215 . S
Mn181 O207 2.117 . S
C182 O204 1.234 . S
C182 O205 1.283 . S
C183 O195 1.281 . S
C183 O196 1.236 . S
C184 O206 1.240 . S
C184 O207 1.264 . S
O185 Mn180 2.095 . S
O185 C194 1.250 . S
O186 Mn181 2.121 . S
O186 C194 1.258 . S
C187 N188 1.326 . S
C187 C191 1.460 . S
C187 H193 0.929 . S
N188 Mn181 2.257 . S
N188 C187 1.326 . S
N188 C192 1.362 . S
C189 C190 1.258 . S
C189 C192 1.431 . S
C189 C209 1.449 1_455 S
C190 C189 1.258 . S
C190 C191 1.477 . S
C190 H210 0.931 . S
C191 C187 1.460 . S
C191 C190 1.477 . S
C191 H211 0.930 . S
C192 N188 1.362 . S
C192 C189 1.431 . S
C192 C202 1.476 . S
H193 C187 0.929 . S
C194 O185 1.250 . S
C194 O186 1.258 . S
O195 Mn180 2.162 . S
O195 C183 1.281 . S
O196 Mn180 2.297 . S
O196 C183 1.236 . S
N197 Mn181 2.282 . S
N197 C198 1.328 . S
N197 C202 1.318 . S
C198 N197 1.328 . S
C198 C199 1.457 . S
C198 H203 0.929 . S
C199 C198 1.457 . S
C199 C200 1.291 . S
C199 H212 0.931 . S
C200 C199 1.291 . S
C200 C201 1.373 . S
C200 H213 0.929 . S
C201 C200 1.373 . S
C201 C202 1.396 . S
C201 C208 1.403 1_455 S
C202 C192 1.476 . S
C202 N197 1.318 . S
C202 C201 1.396 . S
H203 C198 0.929 . S
O204 Mn180 2.385 . S
O204 C182 1.234 . S
O205 Mn180 2.209 . S
O205 Mn181 2.215 . S
O205 C182 1.283 . S
O206 Mn180 2.094 . S
O206 C184 1.240 . S
O207 Mn181 2.117 . S
O207 C184 1.264 . S
C208 C201 1.403 1_655 S
C208 C209 1.399 . S
C208 H214 0.929 . S
C209 C189 1.449 1_655 S
C209 C208 1.399 . S
C209 H215 0.930 . S
H210 C190 0.931 . S
H211 C191 0.930 . S
H212 C199 0.931 . S
H213 C200 0.929 . S
H214 C208 0.929 . S
H215 C209 0.930 . S
Mn216 O221 2.095 . S
Mn216 O231 2.162 . S
Mn216 O232 2.297 . S
Mn216 O240 2.385 . S
Mn216 O241 2.209 . S
Mn216 O242 2.094 . S
Mn217 O222 2.121 . S
Mn217 N224 2.257 . S
Mn217 N233 2.282 . S
Mn217 O241 2.215 . S
Mn217 O243 2.117 . S
C218 O240 1.234 . S
C218 O241 1.283 . S
C219 O231 1.281 . S
C219 O232 1.236 . S
C220 O242 1.240 . S
C220 O243 1.264 . S
O221 Mn216 2.095 . S
O221 C230 1.250 . S
O222 Mn217 2.121 . S
O222 C230 1.258 . S
C223 N224 1.326 . S
C223 C227 1.460 . S
C223 H229 0.929 . S
N224 Mn217 2.257 . S
N224 C223 1.326 . S
N224 C228 1.362 . S
C225 C226 1.258 . S
C225 C228 1.431 . S
C225 C245 1.449 . S
C226 C225 1.258 . S
C226 C227 1.477 . S
C226 H246 0.931 . S
C227 C223 1.460 . S
C227 C226 1.477 . S
C227 H247 0.930 . S
C228 N224 1.362 . S
C228 C225 1.431 . S
C228 C238 1.476 . S
H229 C223 0.929 . S
C230 O221 1.250 . S
C230 O222 1.258 . S
O231 Mn216 2.162 . S
O231 C219 1.281 . S
O232 Mn216 2.297 . S
O232 C219 1.236 . S
N233 Mn217 2.282 . S
N233 C234 1.328 . S
N233 C238 1.318 . S
C234 N233 1.328 . S
C234 C235 1.457 . S
C234 H239 0.929 . S
C235 C234 1.457 . S
C235 C236 1.291 . S
C235 H248 0.931 . S
C236 C235 1.291 . S
C236 C237 1.373 . S
C236 H249 0.929 . S
C237 C236 1.373 . S
C237 C238 1.396 . S
C237 C244 1.403 . S
C238 C228 1.476 . S
C238 N233 1.318 . S
C238 C237 1.396 . S
H239 C234 0.929 . S
O240 Mn216 2.385 . S
O240 C218 1.234 . S
O241 Mn216 2.209 . S
O241 Mn217 2.215 . S
O241 C218 1.283 . S
O242 Mn216 2.094 . S
O242 C220 1.240 . S
O243 Mn217 2.117 . S
O243 C220 1.264 . S
C244 C237 1.403 . S
C244 C245 1.399 . S
C244 H250 0.929 . S
C245 C225 1.449 . S
C245 C244 1.399 . S
C245 H251 0.930 . S
H246 C226 0.931 . S
H247 C227 0.930 . S
H248 C235 0.931 . S
H249 C236 0.929 . S
H250 C244 0.929 . S
H251 C245 0.930 . S
Mn252 O257 2.095 . S
Mn252 O267 2.162 . S
Mn252 O268 2.297 . S
Mn252 O276 2.385 . S
Mn252 O277 2.209 . S
Mn252 O278 2.094 . S
Mn253 O258 2.121 . S
Mn253 N260 2.257 . S
Mn253 N269 2.282 . S
Mn253 O277 2.215 . S
Mn253 O279 2.117 . S
C254 O276 1.234 . S
C254 O277 1.283 . S
C255 O267 1.281 . S
C255 O268 1.236 . S
C256 O278 1.240 . S
C256 O279 1.264 . S
O257 Mn252 2.095 . S
O257 C266 1.250 . S
O258 Mn253 2.121 . S
O258 C266 1.258 . S
C259 N260 1.326 . S
C259 C263 1.460 . S
C259 H265 0.929 . S
N260 Mn253 2.257 . S
N260 C259 1.326 . S
N260 C264 1.362 . S
C261 C262 1.258 . S
C261 C264 1.431 . S
C261 C281 1.449 1_655 S
C262 C261 1.258 . S
C262 C263 1.477 . S
C262 H282 0.931 . S
C263 C259 1.460 . S
C263 C262 1.477 . S
C263 H283 0.930 . S
C264 N260 1.362 . S
C264 C261 1.431 . S
C264 C274 1.476 . S
H265 C259 0.929 . S
C266 O257 1.250 . S
C266 O258 1.258 . S
O267 Mn252 2.162 . S
O267 C255 1.281 . S
O268 Mn252 2.297 . S
O268 C255 1.236 . S
N269 Mn253 2.282 . S
N269 C270 1.328 . S
N269 C274 1.318 . S
C270 N269 1.328 . S
C270 C271 1.457 . S
C270 H275 0.929 . S
C271 C270 1.457 . S
C271 C272 1.291 . S
C271 H284 0.931 . S
C272 C271 1.291 . S
C272 C273 1.373 . S
C272 H285 0.929 . S
C273 C272 1.373 . S
C273 C274 1.396 . S
C273 C280 1.403 1_655 S
C274 C264 1.476 . S
C274 N269 1.318 . S
C274 C273 1.396 . S
H275 C270 0.929 . S
O276 Mn252 2.385 . S
O276 C254 1.234 . S
O277 Mn252 2.209 . S
O277 Mn253 2.215 . S
O277 C254 1.283 . S
O278 Mn252 2.094 . S
O278 C256 1.240 . S
O279 Mn253 2.117 . S
O279 C256 1.264 . S
C280 C273 1.403 1_455 S
C280 C281 1.399 . S
C280 H286 0.929 . S
C281 C261 1.449 1_455 S
C281 C280 1.399 . S
C281 H287 0.930 . S
H282 C262 0.931 . S
H283 C263 0.930 . S
H284 C271 0.931 . S
H285 C272 0.929 . S
H286 C280 0.929 . S
H287 C281 0.930 . S
H288 C306 0.951 . S
H289 C308 0.951 . S
H290 C310 0.950 . S
H291 C311 0.950 . S
H292 C313 0.950 . S
H293 C316 0.950 . S
H294 C317 0.950 . S
H295 C319 0.950 . S
H296 C320 0.950 1_655 S
H297 C321 0.951 . S
H298 C323 0.951 . S
H299 C325 0.950 . S
H300 C326 0.950 . S
H301 C328 0.950 . S
H302 C331 0.950 . S
H303 C332 0.950 . S
H304 C334 0.950 . S
H305 C335 0.950 1_455 S
C306 H288 0.951 . S
C306 C307 1.366 . S
C306 C308 1.388 . S
C307 C306 1.366 . S
C307 C311 1.385 . S
C308 H289 0.951 . S
C308 C306 1.388 . S
C308 C309 1.366 . S
C309 C308 1.366 . S
C309 C310 1.414 . S
C309 C312 1.499 . S
C310 H290 0.950 . S
C310 C309 1.414 . S
C310 C311 1.374 . S
C311 H291 0.950 . S
C311 C307 1.385 . S
C311 C310 1.374 . S
C312 C309 1.499 . S
C312 C313 1.373 . S
C312 C314 1.389 . S
C313 H292 0.950 . S
C313 C312 1.373 . S
C313 C329 1.377 1_445 S
C314 C312 1.389 . S
C314 C315 1.524 . S
C314 C328 1.377 1_445 S
C315 C314 1.524 . S
C315 C316 1.397 . S
C315 C320 1.363 . S
C316 H293 0.950 . S
C316 C315 1.397 . S
C316 C317 1.334 . S
C317 H294 0.950 . S
C317 C316 1.334 . S
C317 C318 1.287 . S
C318 C317 1.287 . S
C318 C319 1.524 . S
C318 H337 0.913 . S
C319 H295 0.950 . S
C319 C318 1.524 . S
C319 C320 1.415 . S
C320 H296 0.950 1_455 S
C320 C315 1.363 . S
C320 C319 1.415 . S
C321 H297 0.951 . S
C321 C322 1.366 . S
C321 C323 1.388 . S
C322 C321 1.366 . S
C322 C326 1.385 . S
C323 H298 0.951 . S
C323 C321 1.388 . S
C323 C324 1.366 . S
C324 C323 1.366 . S
C324 C325 1.414 . S
C324 C327 1.499 . S
C325 H299 0.950 . S
C325 C324 1.414 . S
C325 C326 1.374 . S
C326 H300 0.950 . S
C326 C322 1.385 . S
C326 C325 1.374 . S
C327 C324 1.499 . S
C327 C328 1.373 . S
C327 C329 1.389 . S
C328 H301 0.950 . S
C328 C314 1.377 1_665 S
C328 C327 1.373 . S
C329 C313 1.377 1_665 S
C329 C327 1.389 . S
C329 C330 1.524 . S
C330 C329 1.524 . S
C330 C331 1.397 . S
C330 C335 1.363 . S
C331 H302 0.950 . S
C331 C330 1.397 . S
C331 C332 1.334 . S
C332 H303 0.950 . S
C332 C331 1.334 . S
C332 C333 1.287 . S
C333 C332 1.287 . S
C333 C334 1.524 . S
C333 H336 0.999 . S
C334 H304 0.950 . S
C334 C333 1.524 . S
C334 C335 1.415 . S
C335 H305 0.950 1_655 S
C335 C330 1.363 . S
C335 C334 1.415 . S
H336 C333 0.999 . S
H337 C318 0.913 . S
H338 C356 0.951 . S
H339 C358 0.951 . S
H340 C360 0.950 . S
H341 C361 0.950 . S
H342 C363 0.950 . S
H343 C366 0.950 . S
H344 C367 0.950 . S
H345 C369 0.950 . S
H346 C370 0.950 . S
H347 C371 0.951 . S
H348 C373 0.951 . S
H349 C375 0.950 . S
H350 C376 0.950 . S
H351 C378 0.950 . S
H352 C381 0.950 . S
H353 C382 0.950 . S
H354 C384 0.950 . S
H355 C385 0.950 . S
C356 H338 0.951 . S
C356 C357 1.366 . S
C356 C358 1.388 . S
C357 C356 1.366 . S
C357 C361 1.385 . S
C358 H339 0.951 . S
C358 C356 1.388 . S
C358 C359 1.366 . S
C359 C358 1.366 . S
C359 C360 1.414 . S
C359 C362 1.499 . S
C360 H340 0.950 . S
C360 C359 1.414 . S
C360 C361 1.374 . S
C361 H341 0.950 . S
C361 C357 1.385 . S
C361 C360 1.374 . S
C362 C359 1.499 . S
C362 C363 1.373 . S
C362 C364 1.389 . S
C363 H342 0.950 . S
C363 C362 1.373 . S
C363 C379 1.377 . S
C364 C362 1.389 . S
C364 C365 1.524 . S
C364 C378 1.377 . S
C365 C364 1.524 . S
C365 C366 1.397 . S
C365 C370 1.363 . S
C366 H343 0.950 . S
C366 C365 1.397 . S
C366 C367 1.334 . S
C367 H344 0.950 . S
C367 C366 1.334 . S
C367 C368 1.287 . S
C368 C367 1.287 . S
C368 C369 1.524 . S
C368 H387 0.913 . S
C369 H345 0.950 . S
C369 C368 1.524 . S
C369 C370 1.415 . S
C370 H346 0.950 . S
C370 C365 1.363 . S
C370 C369 1.415 . S
C371 H347 0.951 . S
C371 C372 1.366 . S
C371 C373 1.388 . S
C372 C371 1.366 . S
C372 C376 1.385 . S
C373 H348 0.951 . S
C373 C371 1.388 . S
C373 C374 1.366 . S
C374 C373 1.366 . S
C374 C375 1.414 . S
C374 C377 1.499 . S
C375 H349 0.950 . S
C375 C374 1.414 . S
C375 C376 1.374 . S
C376 H350 0.950 . S
C376 C372 1.385 . S
C376 C375 1.374 . S
C377 C374 1.499 . S
C377 C378 1.373 . S
C377 C379 1.389 . S
C378 H351 0.950 . S
C378 C364 1.377 . S
C378 C377 1.373 . S
C379 C363 1.377 . S
C379 C377 1.389 . S
C379 C380 1.524 . S
C380 C379 1.524 . S
C380 C381 1.397 . S
C380 C385 1.363 . S
C381 H352 0.950 . S
C381 C380 1.397 . S
C381 C382 1.334 . S
C382 H353 0.950 . S
C382 C381 1.334 . S
C382 C383 1.287 . S
C383 C382 1.287 . S
C383 C384 1.524 . S
C383 H386 0.999 . S
C384 H354 0.950 . S
C384 C383 1.524 . S
C384 C385 1.415 . S
C385 H355 0.950 . S
C385 C380 1.363 . S
C385 C384 1.415 . S
H386 C383 0.999 . S
H387 C368 0.913 . S
H388 C406 0.951 . S
H389 C408 0.951 . S
H390 C410 0.950 . S
H391 C411 0.950 . S
H392 C413 0.950 . S
H393 C416 0.950 . S
H394 C417 0.950 . S
H395 C419 0.950 . S
H396 C420 0.950 . S
H397 C421 0.951 . S
H398 C423 0.951 . S
H399 C425 0.950 . S
H400 C426 0.950 . S
H401 C428 0.950 . S
H402 C431 0.950 . S
H403 C432 0.950 . S
H404 C434 0.950 . S
H405 C435 0.950 . S
C406 H388 0.951 . S
C406 C407 1.366 . S
C406 C408 1.388 . S
C407 C406 1.366 . S
C407 C411 1.385 . S
C408 H389 0.951 . S
C408 C406 1.388 . S
C408 C409 1.366 . S
C409 C408 1.366 . S
C409 C410 1.414 . S
C409 C412 1.499 . S
C410 H390 0.950 . S
C410 C409 1.414 . S
C410 C411 1.374 . S
C411 H391 0.950 . S
C411 C407 1.385 . S
C411 C410 1.374 . S
C412 C409 1.499 . S
C412 C413 1.373 . S
C412 C414 1.389 . S
C413 H392 0.950 . S
C413 C412 1.373 . S
C413 C429 1.377 . S
C414 C412 1.389 . S
C414 C415 1.524 . S
C414 C428 1.377 . S
C415 C414 1.524 . S
C415 C416 1.397 . S
C415 C420 1.363 . S
C416 H393 0.950 . S
C416 C415 1.397 . S
C416 C417 1.334 . S
C417 H394 0.950 . S
C417 C416 1.334 . S
C417 C418 1.287 . S
C418 C417 1.287 . S
C418 C419 1.524 . S
C418 H437 0.913 . S
C419 H395 0.950 . S
C419 C418 1.524 . S
C419 C420 1.415 . S
C420 H396 0.950 . S
C420 C415 1.363 . S
C420 C419 1.415 . S
C421 H397 0.951 . S
C421 C422 1.366 . S
C421 C423 1.388 . S
C422 C421 1.366 . S
C422 C426 1.385 . S
C423 H398 0.951 . S
C423 C421 1.388 . S
C423 C424 1.366 . S
C424 C423 1.366 . S
C424 C425 1.414 . S
C424 C427 1.499 . S
C425 H399 0.950 . S
C425 C424 1.414 . S
C425 C426 1.374 . S
C426 H400 0.950 . S
C426 C422 1.385 . S
C426 C425 1.374 . S
C427 C424 1.499 . S
C427 C428 1.373 . S
C427 C429 1.389 . S
C428 H401 0.950 . S
C428 C414 1.377 . S
C428 C427 1.373 . S
C429 C413 1.377 . S
C429 C427 1.389 . S
C429 C430 1.524 . S
C430 C429 1.524 . S
C430 C431 1.397 . S
C430 C435 1.363 . S
C431 H402 0.950 . S
C431 C430 1.397 . S
C431 C432 1.334 . S
C432 H403 0.950 . S
C432 C431 1.334 . S
C432 C433 1.287 . S
C433 C432 1.287 . S
C433 C434 1.524 . S
C433 H436 0.999 . S
C434 H404 0.950 . S
C434 C433 1.524 . S
C434 C435 1.415 . S
C435 H405 0.950 . S
C435 C430 1.363 . S
C435 C434 1.415 . S
H436 C433 0.999 . S
H437 C418 0.913 . S
H438 C456 0.951 . S
H439 C458 0.951 . S
H440 C460 0.950 1_565 S
H441 C461 0.950 . S
H442 C463 0.950 . S
H443 C466 0.950 . S
H444 C467 0.950 . S
H445 C469 0.950 . S
H446 C470 0.950 . S
H447 C471 0.951 . S
H448 C473 0.951 . S
H449 C475 0.950 1_545 S
H450 C476 0.950 . S
H451 C478 0.950 . S
H452 C481 0.950 . S
H453 C482 0.950 . S
H454 C484 0.950 . S
H455 C485 0.950 . S
C456 H438 0.951 . S
C456 C457 1.366 . S
C456 C458 1.388 . S
C457 C456 1.366 . S
C457 C461 1.385 . S
C458 H439 0.951 . S
C458 C456 1.388 . S
C458 C459 1.366 . S
C459 C458 1.366 . S
C459 C460 1.414 . S
C459 C462 1.499 . S
C460 H440 0.950 1_545 S
C460 C459 1.414 . S
C460 C461 1.374 . S
C461 H441 0.950 . S
C461 C457 1.385 . S
C461 C460 1.374 . S
C462 C459 1.499 . S
C462 C463 1.373 1_545 S
C462 C464 1.389 . S
C463 H442 0.950 . S
C463 C462 1.373 1_565 S
C463 C479 1.377 1_455 S
C464 C462 1.389 . S
C464 C465 1.524 . S
C464 C478 1.377 1_455 S
C465 C464 1.524 . S
C465 C466 1.397 . S
C465 C470 1.363 1_455 S
C466 H443 0.950 . S
C466 C465 1.397 . S
C466 C467 1.334 . S
C467 H444 0.950 . S
C467 C466 1.334 . S
C467 C468 1.287 . S
C468 C467 1.287 . S
C468 C469 1.524 1_455 S
C468 H487 0.913 . S
C469 H445 0.950 . S
C469 C468 1.524 1_655 S
C469 C470 1.415 . S
C470 H446 0.950 . S
C470 C465 1.363 1_655 S
C470 C469 1.415 . S
C471 H447 0.951 . S
C471 C472 1.366 . S
C471 C473 1.388 . S
C472 C471 1.366 . S
C472 C476 1.385 . S
C473 H448 0.951 . S
C473 C471 1.388 . S
C473 C474 1.366 . S
C474 C473 1.366 . S
C474 C475 1.414 . S
C474 C477 1.499 . S
C475 H449 0.950 1_565 S
C475 C474 1.414 . S
C475 C476 1.374 . S
C476 H450 0.950 . S
C476 C472 1.385 . S
C476 C475 1.374 . S
C477 C474 1.499 . S
C477 C478 1.373 1_565 S
C477 C479 1.389 . S
C478 H451 0.950 . S
C478 C464 1.377 1_655 S
C478 C477 1.373 1_545 S
C479 C463 1.377 1_655 S
C479 C477 1.389 . S
C479 C480 1.524 . S
C480 C479 1.524 . S
C480 C481 1.397 . S
C480 C485 1.363 1_655 S
C481 H452 0.950 . S
C481 C480 1.397 . S
C481 C482 1.334 . S
C482 H453 0.950 . S
C482 C481 1.334 . S
C482 C483 1.287 . S
C483 C482 1.287 . S
C483 C484 1.524 1_655 S
C483 H486 0.999 . S
C484 H454 0.950 . S
C484 C483 1.524 1_455 S
C484 C485 1.415 . S
C485 H455 0.950 . S
C485 C480 1.363 1_455 S
C485 C484 1.415 . S
H486 C483 0.999 . S
H487 C468 0.913 . S
H488 C506 0.951 . S
H489 C508 0.951 . S
H490 C510 0.950 . S
H491 C511 0.950 . S
H492 C513 0.950 . S
H493 C516 0.950 . S
H494 C517 0.950 . S
H495 C519 0.950 . S
H496 C520 0.950 . S
H497 C521 0.951 . S
H498 C523 0.951 . S
H499 C525 0.950 . S
H500 C526 0.950 . S
H501 C528 0.950 . S
H502 C531 0.950 . S
H503 C532 0.950 . S
H504 C534 0.950 . S
H505 C535 0.950 . S
C506 H488 0.951 . S
C506 C507 1.366 . S
C506 C508 1.388 . S
C507 C506 1.366 . S
C507 C511 1.385 . S
C508 H489 0.951 . S
C508 C506 1.388 . S
C508 C509 1.366 . S
C509 C508 1.366 . S
C509 C510 1.414 . S
C509 C512 1.499 . S
C510 H490 0.950 . S
C510 C509 1.414 . S
C510 C511 1.374 . S
C511 H491 0.950 . S
C511 C507 1.385 . S
C511 C510 1.374 . S
C512 C509 1.499 . S
C512 C513 1.373 . S
C512 C514 1.389 . S
C513 H492 0.950 . S
C513 C512 1.373 . S
C513 C529 1.377 . S
C514 C512 1.389 . S
C514 C515 1.524 . S
C514 C528 1.377 . S
C515 C514 1.524 . S
C515 C516 1.397 . S
C515 C520 1.363 . S
C516 H493 0.950 . S
C516 C515 1.397 . S
C516 C517 1.334 . S
C517 H494 0.950 . S
C517 C516 1.334 . S
C517 C518 1.287 . S
C518 C517 1.287 . S
C518 C519 1.524 . S
C518 H537 0.913 . S
C519 H495 0.950 . S
C519 C518 1.524 . S
C519 C520 1.415 . S
C520 H496 0.950 . S
C520 C515 1.363 . S
C520 C519 1.415 . S
C521 H497 0.951 . S
C521 C522 1.366 . S
C521 C523 1.388 . S
C522 C521 1.366 . S
C522 C526 1.385 . S
C523 H498 0.951 . S
C523 C521 1.388 . S
C523 C524 1.366 . S
C524 C523 1.366 . S
C524 C525 1.414 . S
C524 C527 1.499 . S
C525 H499 0.950 . S
C525 C524 1.414 . S
C525 C526 1.374 . S
C526 H500 0.950 . S
C526 C522 1.385 . S
C526 C525 1.374 . S
C527 C524 1.499 . S
C527 C528 1.373 . S
C527 C529 1.389 . S
C528 H501 0.950 . S
C528 C514 1.377 . S
C528 C527 1.373 . S
C529 C513 1.377 . S
C529 C527 1.389 . S
C529 C530 1.524 . S
C530 C529 1.524 . S
C530 C531 1.397 . S
C530 C535 1.363 . S
C531 H502 0.950 . S
C531 C530 1.397 . S
C531 C532 1.334 . S
C532 H503 0.950 . S
C532 C531 1.334 . S
C532 C533 1.287 . S
C533 C532 1.287 . S
C533 C534 1.524 . S
C533 H536 0.999 . S
C534 H504 0.950 . S
C534 C533 1.524 . S
C534 C535 1.415 . S
C535 H505 0.950 . S
C535 C530 1.363 . S
C535 C534 1.415 . S
H536 C533 0.999 . S
H537 C518 0.913 . S
H538 C556 0.951 . S
H539 C558 0.951 . S
H540 C560 0.950 . S
H541 C561 0.950 . S
H542 C563 0.950 . S
H543 C566 0.950 . S
H544 C567 0.950 . S
H545 C569 0.950 . S
H546 C570 0.950 . S
H547 C571 0.951 . S
H548 C573 0.951 . S
H549 C575 0.950 . S
H550 C576 0.950 . S
H551 C578 0.950 . S
H552 C581 0.950 . S
H553 C582 0.950 . S
H554 C584 0.950 . S
H555 C585 0.950 . S
C556 H538 0.951 . S
C556 C557 1.366 . S
C556 C558 1.388 . S
C557 C556 1.366 . S
C557 C561 1.385 . S
C558 H539 0.951 . S
C558 C556 1.388 . S
C558 C559 1.366 . S
C559 C558 1.366 . S
C559 C560 1.414 . S
C559 C562 1.499 . S
C560 H540 0.950 . S
C560 C559 1.414 . S
C560 C561 1.374 . S
C561 H541 0.950 . S
C561 C557 1.385 . S
C561 C560 1.374 . S
C562 C559 1.499 . S
C562 C563 1.373 . S
C562 C564 1.389 . S
C563 H542 0.950 . S
C563 C562 1.373 . S
C563 C579 1.377 1_556 S
C564 C562 1.389 . S
C564 C565 1.524 . S
C564 C578 1.377 1_556 S
C565 C564 1.524 . S
C565 C566 1.397 . S
C565 C570 1.363 . S
C566 H543 0.950 . S
C566 C565 1.397 . S
C566 C567 1.334 . S
C567 H544 0.950 . S
C567 C566 1.334 . S
C567 C568 1.287 . S
C568 C567 1.287 . S
C568 C569 1.524 . S
C568 H587 0.913 . S
C569 H545 0.950 . S
C569 C568 1.524 . S
C569 C570 1.415 . S
C570 H546 0.950 . S
C570 C565 1.363 . S
C570 C569 1.415 . S
C571 H547 0.951 . S
C571 C572 1.366 . S
C571 C573 1.388 . S
C572 C571 1.366 . S
C572 C576 1.385 . S
C573 H548 0.951 . S
C573 C571 1.388 . S
C573 C574 1.366 . S
C574 C573 1.366 . S
C574 C575 1.414 . S
C574 C577 1.499 . S
C575 H549 0.950 . S
C575 C574 1.414 . S
C575 C576 1.374 . S
C576 H550 0.950 . S
C576 C572 1.385 . S
C576 C575 1.374 . S
C577 C574 1.499 . S
C577 C578 1.373 . S
C577 C579 1.389 . S
C578 H551 0.950 . S
C578 C564 1.377 1_554 S
C578 C577 1.373 . S
C579 C563 1.377 1_554 S
C579 C577 1.389 . S
C579 C580 1.524 . S
C580 C579 1.524 . S
C580 C581 1.397 . S
C580 C585 1.363 . S
C581 H552 0.950 . S
C581 C580 1.397 . S
C581 C582 1.334 . S
C582 H553 0.950 . S
C582 C581 1.334 . S
C582 C583 1.287 . S
C583 C582 1.287 . S
C583 C584 1.524 . S
C583 H586 0.999 . S
C584 H554 0.950 . S
C584 C583 1.524 . S
C584 C585 1.415 . S
C585 H555 0.950 . S
C585 C580 1.363 . S
C585 C584 1.415 . S
H586 C583 0.999 . S
H587 C568 0.913 . S
H588 C606 0.951 . S
H589 C608 0.951 . S
H590 C610 0.950 . S
H591 C611 0.950 . S
H592 C613 0.950 . S
H593 C616 0.950 . S
H594 C617 0.950 . S
H595 C619 0.950 . S
H596 C620 0.950 . S
H597 C621 0.951 . S
H598 C623 0.951 . S
H599 C625 0.950 . S
H600 C626 0.950 . S
H601 C628 0.950 . S
H602 C631 0.950 . S
H603 C632 0.950 . S
H604 C634 0.950 . S
H605 C635 0.950 . S
C606 H588 0.951 . S
C606 C607 1.366 . S
C606 C608 1.388 . S
C607 C606 1.366 . S
C607 C611 1.385 . S
C608 H589 0.951 . S
C608 C606 1.388 . S
C608 C609 1.366 . S
C609 C608 1.366 . S
C609 C610 1.414 . S
C609 C612 1.499 . S
C610 H590 0.950 . S
C610 C609 1.414 . S
C610 C611 1.374 . S
C611 H591 0.950 . S
C611 C607 1.385 . S
C611 C610 1.374 . S
C612 C609 1.499 . S
C612 C613 1.373 . S
C612 C614 1.389 . S
C613 H592 0.950 . S
C613 C612 1.373 . S
C613 C629 1.377 . S
C614 C612 1.389 . S
C614 C615 1.524 . S
C614 C628 1.377 . S
C615 C614 1.524 . S
C615 C616 1.397 . S
C615 C620 1.363 . S
C616 H593 0.950 . S
C616 C615 1.397 . S
C616 C617 1.334 . S
C617 H594 0.950 . S
C617 C616 1.334 . S
C617 C618 1.287 . S
C618 C617 1.287 . S
C618 C619 1.524 . S
C618 H637 0.913 . S
C619 H595 0.950 . S
C619 C618 1.524 . S
C619 C620 1.415 . S
C620 H596 0.950 . S
C620 C615 1.363 . S
C620 C619 1.415 . S
C621 H597 0.951 . S
C621 C622 1.366 . S
C621 C623 1.388 . S
C622 C621 1.366 . S
C622 C626 1.385 . S
C623 H598 0.951 . S
C623 C621 1.388 . S
C623 C624 1.366 . S
C624 C623 1.366 . S
C624 C625 1.414 . S
C624 C627 1.499 . S
C625 H599 0.950 . S
C625 C624 1.414 . S
C625 C626 1.374 . S
C626 H600 0.950 . S
C626 C622 1.385 . S
C626 C625 1.374 . S
C627 C624 1.499 . S
C627 C628 1.373 . S
C627 C629 1.389 . S
C628 H601 0.950 . S
C628 C614 1.377 . S
C628 C627 1.373 . S
C629 C613 1.377 . S
C629 C627 1.389 . S
C629 C630 1.524 . S
C630 C629 1.524 . S
C630 C631 1.397 . S
C630 C635 1.363 . S
C631 H602 0.950 . S
C631 C630 1.397 . S
C631 C632 1.334 . S
C632 H603 0.950 . S
C632 C631 1.334 . S
C632 C633 1.287 . S
C633 C632 1.287 . S
C633 C634 1.524 . S
C633 H636 0.999 . S
C634 H604 0.950 . S
C634 C633 1.524 . S
C634 C635 1.415 . S
C635 H605 0.950 . S
C635 C630 1.363 . S
C635 C634 1.415 . S
H636 C633 0.999 . S
H637 C618 0.913 . S
H638 C656 0.951 . S
H639 C658 0.951 . S
H640 C660 0.950 . S
H641 C661 0.950 . S
H642 C663 0.950 . S
H643 C666 0.950 . S
H644 C667 0.950 . S
H645 C669 0.950 . S
H646 C670 0.950 . S
H647 C671 0.951 . S
H648 C673 0.951 . S
H649 C675 0.950 . S
H650 C676 0.950 . S
H651 C678 0.950 . S
H652 C681 0.950 . S
H653 C682 0.950 . S
H654 C684 0.950 . S
H655 C685 0.950 . S
C656 H638 0.951 . S
C656 C657 1.366 . S
C656 C658 1.388 . S
C657 C656 1.366 . S
C657 C661 1.385 . S
C658 H639 0.951 . S
C658 C656 1.388 . S
C658 C659 1.366 . S
C659 C658 1.366 . S
C659 C660 1.414 . S
C659 C662 1.499 . S
C660 H640 0.950 . S
C660 C659 1.414 . S
C660 C661 1.374 . S
C661 H641 0.950 . S
C661 C657 1.385 . S
C661 C660 1.374 . S
C662 C659 1.499 . S
C662 C663 1.373 . S
C662 C664 1.389 . S
C663 H642 0.950 . S
C663 C662 1.373 . S
C663 C679 1.377 1_556 S
C664 C662 1.389 . S
C664 C665 1.524 . S
C664 C678 1.377 1_556 S
C665 C664 1.524 . S
C665 C666 1.397 . S
C665 C670 1.363 . S
C666 H643 0.950 . S
C666 C665 1.397 . S
C666 C667 1.334 . S
C667 H644 0.950 . S
C667 C666 1.334 . S
C667 C668 1.287 . S
C668 C667 1.287 . S
C668 C669 1.524 . S
C668 H687 0.913 . S
C669 H645 0.950 . S
C669 C668 1.524 . S
C669 C670 1.415 . S
C670 H646 0.950 . S
C670 C665 1.363 . S
C670 C669 1.415 . S
C671 H647 0.951 . S
C671 C672 1.366 . S
C671 C673 1.388 . S
C672 C671 1.366 . S
C672 C676 1.385 . S
C673 H648 0.951 . S
C673 C671 1.388 . S
C673 C674 1.366 . S
C674 C673 1.366 . S
C674 C675 1.414 . S
C674 C677 1.499 . S
C675 H649 0.950 . S
C675 C674 1.414 . S
C675 C676 1.374 . S
C676 H650 0.950 . S
C676 C672 1.385 . S
C676 C675 1.374 . S
C677 C674 1.499 . S
C677 C678 1.373 . S
C677 C679 1.389 . S
C678 H651 0.950 . S
C678 C664 1.377 1_554 S
C678 C677 1.373 . S
C679 C663 1.377 1_554 S
C679 C677 1.389 . S
C679 C680 1.524 . S
C680 C679 1.524 . S
C680 C681 1.397 . S
C680 C685 1.363 . S
C681 H652 0.950 . S
C681 C680 1.397 . S
C681 C682 1.334 . S
C682 H653 0.950 . S
C682 C681 1.334 . S
C682 C683 1.287 . S
C683 C682 1.287 . S
C683 C684 1.524 . S
C683 H686 0.999 . S
C684 H654 0.950 . S
C684 C683 1.524 . S
C684 C685 1.415 . S
C685 H655 0.950 . S
C685 C680 1.363 . S
C685 C684 1.415 . S
H686 C683 0.999 . S
H687 C668 0.913 . S
H688 C706 0.951 . S
H689 C708 0.951 . S
H690 C710 0.950 . S
H691 C711 0.950 . S
H692 C713 0.950 . S
H693 C716 0.950 . S
H694 C717 0.950 . S
H695 C719 0.950 . S
H696 C720 0.950 . S
H697 C721 0.951 . S
H698 C723 0.951 . S
H699 C725 0.950 . S
H700 C726 0.950 . S
H701 C728 0.950 . S
H702 C731 0.950 . S
H703 C732 0.950 . S
H704 C734 0.950 . S
H705 C735 0.950 . S
C706 H688 0.951 . S
C706 C707 1.366 . S
C706 C708 1.388 . S
C707 C706 1.366 . S
C707 C711 1.385 . S
C708 H689 0.951 . S
C708 C706 1.388 . S
C708 C709 1.366 . S
C709 C708 1.366 . S
C709 C710 1.414 . S
C709 C712 1.499 . S
C710 H690 0.950 . S
C710 C709 1.414 . S
C710 C711 1.374 . S
C711 H691 0.950 . S
C711 C707 1.385 . S
C711 C710 1.374 . S
C712 C709 1.499 . S
C712 C713 1.373 . S
C712 C714 1.389 . S
C713 H692 0.950 . S
C713 C712 1.373 . S
C713 C729 1.377 . S
C714 C712 1.389 . S
C714 C715 1.524 . S
C714 C728 1.377 . S
C715 C714 1.524 . S
C715 C716 1.397 . S
C715 C720 1.363 . S
C716 H693 0.950 . S
C716 C715 1.397 . S
C716 C717 1.334 . S
C717 H694 0.950 . S
C717 C716 1.334 . S
C717 C718 1.287 . S
C718 C717 1.287 . S
C718 C719 1.524 . S
C718 H737 0.913 . S
C719 H695 0.950 . S
C719 C718 1.524 . S
C719 C720 1.415 . S
C720 H696 0.950 . S
C720 C715 1.363 . S
C720 C719 1.415 . S
C721 H697 0.951 . S
C721 C722 1.366 . S
C721 C723 1.388 . S
C722 C721 1.366 . S
C722 C726 1.385 . S
C723 H698 0.951 . S
C723 C721 1.388 . S
C723 C724 1.366 . S
C724 C723 1.366 . S
C724 C725 1.414 . S
C724 C727 1.499 . S
C725 H699 0.950 . S
C725 C724 1.414 . S
C725 C726 1.374 . S
C726 H700 0.950 . S
C726 C722 1.385 . S
C726 C725 1.374 . S
C727 C724 1.499 . S
C727 C728 1.373 . S
C727 C729 1.389 . S
C728 H701 0.950 . S
C728 C714 1.377 . S
C728 C727 1.373 . S
C729 C713 1.377 . S
C729 C727 1.389 . S
C729 C730 1.524 . S
C730 C729 1.524 . S
C730 C731 1.397 . S
C730 C735 1.363 . S
C731 H702 0.950 . S
C731 C730 1.397 . S
C731 C732 1.334 . S
C732 H703 0.950 . S
C732 C731 1.334 . S
C732 C733 1.287 . S
C733 C732 1.287 . S
C733 C734 1.524 . S
C733 H736 0.999 . S
C734 H704 0.950 . S
C734 C733 1.524 . S
C734 C735 1.415 . S
C735 H705 0.950 . S
C735 C730 1.363 . S
C735 C734 1.415 . S
H736 C733 0.999 . S
H737 C718 0.913 . S
H738 C756 0.951 . S
H739 C758 0.951 . S
H740 C760 0.950 . S
H741 C761 0.950 . S
H742 C763 0.950 . S
H743 C766 0.950 . S
H744 C767 0.950 . S
H745 C769 0.950 . S
H746 C770 0.950 . S
H747 C771 0.936 1_545 S
H748 C773 0.951 . S
H749 C775 0.950 . S
H750 C776 0.950 . S
H751 C778 0.950 . S
H752 C781 0.950 . S
H753 C782 0.950 . S
H754 C784 0.950 . S
H755 C785 0.950 . S
C756 H738 0.951 . S
C756 C757 1.366 . S
C756 C758 1.388 . S
C757 C756 1.366 . S
C757 C761 1.385 . S
C758 H739 0.951 . S
C758 C756 1.388 . S
C758 C759 1.366 . S
C759 C758 1.366 . S
C759 C760 1.414 . S
C759 C762 1.499 . S
C760 H740 0.950 . S
C760 C759 1.414 . S
C760 C761 1.374 . S
C761 H741 0.950 . S
C761 C757 1.385 . S
C761 C760 1.374 . S
C762 C759 1.499 . S
C762 C763 1.373 . S
C762 C764 1.389 . S
C763 H742 0.950 . S
C763 C762 1.373 . S
C763 C779 1.377 . S
C764 C762 1.389 . S
C764 C765 1.524 . S
C764 C778 1.377 . S
C765 C764 1.524 . S
C765 C766 1.397 . S
C765 C770 1.363 . S
C766 H743 0.950 . S
C766 C765 1.397 . S
C766 C767 1.334 . S
C767 H744 0.950 . S
C767 C766 1.334 . S
C767 C768 1.287 . S
C768 C767 1.287 . S
C768 C769 1.524 . S
C768 H787 0.913 . S
C769 H745 0.950 . S
C769 C768 1.524 . S
C769 C770 1.415 . S
C770 H746 0.950 . S
C770 C765 1.363 . S
C770 C769 1.415 . S
C771 H747 0.936 1_565 S
C771 C772 1.362 1_565 S
C771 C773 1.407 . S
C772 C771 1.362 1_545 S
C772 C776 1.385 1_545 S
C773 H748 0.951 . S
C773 C771 1.407 . S
C773 C774 1.366 . S
C774 C773 1.366 . S
C774 C775 1.414 . S
C774 C777 1.499 . S
C775 H749 0.950 . S
C775 C774 1.414 . S
C775 C776 1.374 . S
C776 H750 0.950 . S
C776 C772 1.385 1_565 S
C776 C775 1.374 . S
C777 C774 1.499 . S
C777 C778 1.373 . S
C777 C779 1.389 . S
C778 H751 0.950 . S
C778 C764 1.377 . S
C778 C777 1.373 . S
C779 C763 1.377 . S
C779 C777 1.389 . S
C779 C780 1.524 . S
C780 C779 1.524 . S
C780 C781 1.397 . S
C780 C785 1.363 . S
C781 H752 0.950 . S
C781 C780 1.397 . S
C781 C782 1.334 . S
C782 H753 0.950 . S
C782 C781 1.334 . S
C782 C783 1.287 . S
C783 C782 1.287 . S
C783 C784 1.524 . S
C783 H786 0.999 . S
C784 H754 0.950 . S
C784 C783 1.524 . S
C784 C785 1.415 . S
C785 H755 0.950 . S
C785 C780 1.363 . S
C785 C784 1.415 . S
H786 C783 0.999 . S
H787 C768 0.913 . S
H788 C806 0.951 . S
H789 C808 0.951 . S
H790 C810 0.950 . S
H791 C811 0.950 . S
H792 C813 0.950 . S
H793 C816 0.950 . S
H794 C817 0.950 . S
H795 C819 0.950 . S
H796 C820 0.950 . S
H797 C821 0.951 . S
H798 C823 0.951 . S
H799 C825 0.950 . S
H800 C826 0.950 . S
H801 C828 0.950 . S
H802 C831 0.950 . S
H803 C832 0.950 . S
H804 C834 0.950 . S
H805 C835 0.950 . S
C806 H788 0.951 . S
C806 C807 1.366 . S
C806 C808 1.388 . S
C807 C806 1.366 . S
C807 C811 1.385 . S
C808 H789 0.951 . S
C808 C806 1.388 . S
C808 C809 1.366 . S
C809 C808 1.366 . S
C809 C810 1.414 . S
C809 C812 1.499 . S
C810 H790 0.950 . S
C810 C809 1.414 . S
C810 C811 1.374 . S
C811 H791 0.950 . S
C811 C807 1.385 . S
C811 C810 1.374 . S
C812 C809 1.499 . S
C812 C813 1.373 . S
C812 C814 1.389 . S
C813 H792 0.950 . S
C813 C812 1.373 . S
C813 C829 1.377 . S
C814 C812 1.389 . S
C814 C815 1.524 . S
C814 C828 1.377 . S
C815 C814 1.524 . S
C815 C816 1.397 . S
C815 C820 1.363 . S
C816 H793 0.950 . S
C816 C815 1.397 . S
C816 C817 1.334 . S
C817 H794 0.950 . S
C817 C816 1.334 . S
C817 C818 1.287 . S
C818 C817 1.287 . S
C818 C819 1.524 . S
C818 H837 0.913 . S
C819 H795 0.950 . S
C819 C818 1.524 . S
C819 C820 1.415 . S
C820 H796 0.950 . S
C820 C815 1.363 . S
C820 C819 1.415 . S
C821 H797 0.951 . S
C821 C822 1.366 . S
C821 C823 1.388 . S
C822 C821 1.366 . S
C822 C826 1.385 . S
C823 H798 0.951 . S
C823 C821 1.388 . S
C823 C824 1.366 . S
C824 C823 1.366 . S
C824 C825 1.414 . S
C824 C827 1.499 . S
C825 H799 0.950 . S
C825 C824 1.414 . S
C825 C826 1.374 . S
C826 H800 0.950 . S
C826 C822 1.385 . S
C826 C825 1.374 . S
C827 C824 1.499 . S
C827 C828 1.373 . S
C827 C829 1.389 . S
C828 H801 0.950 . S
C828 C814 1.377 . S
C828 C827 1.373 . S
C829 C813 1.377 . S
C829 C827 1.389 . S
C829 C830 1.524 . S
C830 C829 1.524 . S
C830 C831 1.397 . S
C830 C835 1.363 . S
C831 H802 0.950 . S
C831 C830 1.397 . S
C831 C832 1.334 . S
C832 H803 0.950 . S
C832 C831 1.334 . S
C832 C833 1.287 . S
C833 C832 1.287 . S
C833 C834 1.524 . S
C833 H836 0.999 . S
C834 H804 0.950 . S
C834 C833 1.524 . S
C834 C835 1.415 . S
C835 H805 0.950 . S
C835 C830 1.363 . S
C835 C834 1.415 . S
H836 C833 0.999 . S
H837 C818 0.913 . S
H838 C856 0.951 . S
H839 C858 0.951 . S
H840 C860 0.950 . S
H841 C861 0.950 . S
H842 C863 0.950 . S
H843 C866 0.950 . S
H844 C867 0.950 . S
H845 C869 0.950 . S
H846 C870 0.950 . S
H847 C871 0.951 . S
H848 C873 0.951 . S
H849 C875 0.950 . S
H850 C876 0.950 . S
H851 C878 0.950 . S
H852 C881 0.950 . S
H853 C882 0.950 . S
H854 C884 0.950 . S
H855 C885 0.950 . S
C856 H838 0.951 . S
C856 C857 1.366 . S
C856 C858 1.388 . S
C857 C856 1.366 . S
C857 C861 1.385 . S
C858 H839 0.951 . S
C858 C856 1.388 . S
C858 C859 1.366 . S
C859 C858 1.366 . S
C859 C860 1.414 . S
C859 C862 1.499 . S
C860 H840 0.950 . S
C860 C859 1.414 . S
C860 C861 1.374 . S
C861 H841 0.950 . S
C861 C857 1.385 . S
C861 C860 1.374 . S
C862 C859 1.499 . S
C862 C863 1.373 . S
C862 C864 1.389 . S
C863 H842 0.950 . S
C863 C862 1.373 . S
C863 C879 1.377 . S
C864 C862 1.389 . S
C864 C865 1.524 . S
C864 C878 1.377 . S
C865 C864 1.524 . S
C865 C866 1.397 . S
C865 C870 1.363 . S
C866 H843 0.950 . S
C866 C865 1.397 . S
C866 C867 1.334 . S
C867 H844 0.950 . S
C867 C866 1.334 . S
C867 C868 1.287 . S
C868 C867 1.287 . S
C868 C869 1.524 . S
C868 H887 0.913 . S
C869 H845 0.950 . S
C869 C868 1.524 . S
C869 C870 1.415 . S
C870 H846 0.950 . S
C870 C865 1.363 . S
C870 C869 1.415 . S
C871 H847 0.951 . S
C871 C872 1.366 . S
C871 C873 1.388 1_565 S
C872 C871 1.366 . S
C872 C876 1.385 1_565 S
C873 H848 0.951 . S
C873 C871 1.388 1_545 S
C873 C874 1.366 . S
C874 C873 1.366 . S
C874 C875 1.414 . S
C874 C877 1.499 . S
C875 H849 0.950 . S
C875 C874 1.414 . S
C875 C876 1.374 . S
C876 H850 0.950 . S
C876 C872 1.385 1_545 S
C876 C875 1.374 . S
C877 C874 1.499 . S
C877 C878 1.373 . S
C877 C879 1.389 . S
C878 H851 0.950 . S
C878 C864 1.377 . S
C878 C877 1.373 . S
C879 C863 1.377 . S
C879 C877 1.389 . S
C879 C880 1.524 . S
C880 C879 1.524 . S
C880 C881 1.397 . S
C880 C885 1.363 . S
C881 H852 0.950 . S
C881 C880 1.397 . S
C881 C882 1.334 . S
C882 H853 0.950 . S
C882 C881 1.334 . S
C882 C883 1.287 . S
C883 C882 1.287 . S
C883 C884 1.524 . S
C883 H886 0.992 1_545 S
C884 H854 0.950 . S
C884 C883 1.524 . S
C884 C885 1.415 . S
C885 H855 0.950 . S
C885 C880 1.363 . S
C885 C884 1.415 . S
H886 C883 0.992 1_565 S
H887 C868 0.913 . S
H888 C906 0.951 . S
H889 C908 0.951 . S
H890 C910 0.950 . S
H891 C911 0.950 . S
H892 C913 0.950 . S
H893 C916 0.950 . S
H894 C917 0.950 . S
H895 C919 0.950 . S
H896 C920 0.950 . S
H897 C921 0.951 . S
H898 C923 0.951 . S
H899 C925 0.950 . S
H900 C926 0.950 . S
H901 C928 0.950 . S
H902 C931 0.950 . S
H903 C932 0.950 . S
H904 C934 0.950 . S
H905 C935 0.950 . S
C906 H888 0.951 . S
C906 C907 1.366 . S
C906 C908 1.388 1_455 S
C907 C906 1.366 . S
C907 C911 1.385 1_455 S
C908 H889 0.951 . S
C908 C906 1.388 1_655 S
C908 C909 1.366 . S
C909 C908 1.366 . S
C909 C910 1.414 . S
C909 C912 1.499 . S
C910 H890 0.950 . S
C910 C909 1.414 . S
C910 C911 1.374 . S
C911 H891 0.950 . S
C911 C907 1.385 1_655 S
C911 C910 1.374 . S
C912 C909 1.499 . S
C912 C913 1.373 . S
C912 C914 1.389 . S
C913 H892 0.950 . S
C913 C912 1.373 . S
C913 C929 1.377 . S
C914 C912 1.389 . S
C914 C915 1.524 . S
C914 C928 1.377 . S
C915 C914 1.524 . S
C915 C916 1.397 . S
C915 C920 1.363 . S
C916 H893 0.950 . S
C916 C915 1.397 . S
C916 C917 1.334 . S
C917 H894 0.950 . S
C917 C916 1.334 . S
C917 C918 1.287 . S
C918 C917 1.287 . S
C918 C919 1.524 . S
C918 H937 0.913 . S
C919 H895 0.950 . S
C919 C918 1.524 . S
C919 C920 1.415 . S
C920 H896 0.950 . S
C920 C915 1.363 . S
C920 C919 1.415 . S
C921 H897 0.951 . S
C921 C922 1.366 . S
C921 C923 1.388 . S
C922 C921 1.366 . S
C922 C926 1.385 . S
C923 H898 0.951 . S
C923 C921 1.388 . S
C923 C924 1.366 . S
C924 C923 1.366 . S
C924 C925 1.414 . S
C924 C927 1.499 . S
C925 H899 0.950 . S
C925 C924 1.414 . S
C925 C926 1.374 . S
C926 H900 0.950 . S
C926 C922 1.385 . S
C926 C925 1.374 . S
C927 C924 1.499 . S
C927 C928 1.373 . S
C927 C929 1.389 . S
C928 H901 0.950 . S
C928 C914 1.377 . S
C928 C927 1.373 . S
C929 C913 1.377 . S
C929 C927 1.389 . S
C929 C930 1.524 . S
C930 C929 1.524 . S
C930 C931 1.397 . S
C930 C935 1.363 . S
C931 H902 0.950 . S
C931 C930 1.397 . S
C931 C932 1.334 . S
C932 H903 0.950 . S
C932 C931 1.334 . S
C932 C933 1.287 . S
C933 C932 1.287 . S
C933 C934 1.524 . S
C933 H936 0.999 . S
C934 H904 0.950 . S
C934 C933 1.524 . S
C934 C935 1.415 . S
C935 H905 0.950 . S
C935 C930 1.363 . S
C935 C934 1.415 . S
H936 C933 0.999 . S
H937 C918 0.913 . S
H938 C956 0.951 . S
H939 C958 0.951 . S
H940 C960 0.950 . S
H941 C961 0.950 . S
H942 C963 0.950 . S
H943 C966 0.950 . S
H944 C967 0.950 . S
H945 C969 0.950 . S
H946 C970 0.950 . S
H947 C971 0.951 . S
H948 C973 0.951 . S
H949 C975 0.950 . S
H950 C976 0.950 . S
H951 C978 0.950 . S
H952 C981 0.950 . S
H953 C982 0.950 . S
H954 C984 0.950 . S
H955 C985 0.950 . S
C956 H938 0.951 . S
C956 C957 1.366 . S
C956 C958 1.388 . S
C957 C956 1.366 . S
C957 C961 1.385 . S
C958 H939 0.951 . S
C958 C956 1.388 . S
C958 C959 1.366 . S
C959 C958 1.366 . S
C959 C960 1.414 . S
C959 C962 1.499 . S
C960 H940 0.950 . S
C960 C959 1.414 . S
C960 C961 1.374 . S
C961 H941 0.950 . S
C961 C957 1.385 . S
C961 C960 1.374 . S
C962 C959 1.499 . S
C962 C963 1.373 . S
C962 C964 1.389 . S
C963 H942 0.950 . S
C963 C962 1.373 . S
C963 C979 1.377 . S
C964 C962 1.389 . S
C964 C965 1.524 . S
C964 C978 1.377 . S
C965 C964 1.524 . S
C965 C966 1.397 . S
C965 C970 1.363 . S
C966 H943 0.950 . S
C966 C965 1.397 . S
C966 C967 1.334 . S
C967 H944 0.950 . S
C967 C966 1.334 . S
C967 C968 1.287 . S
C968 C967 1.287 . S
C968 C969 1.524 . S
C968 H987 0.913 . S
C969 H945 0.950 . S
C969 C968 1.524 . S
C969 C970 1.415 . S
C970 H946 0.950 . S
C970 C965 1.363 . S
C970 C969 1.415 . S
C971 H947 0.951 . S
C971 C972 1.366 . S
C971 C973 1.388 . S
C972 C971 1.366 . S
C972 C976 1.385 . S
C973 H948 0.951 . S
C973 C971 1.388 . S
C973 C974 1.366 . S
C974 C973 1.366 . S
C974 C975 1.414 . S
C974 C977 1.499 . S
C975 H949 0.950 . S
C975 C974 1.414 . S
C975 C976 1.374 . S
C976 H950 0.950 . S
C976 C972 1.385 . S
C976 C975 1.374 . S
C977 C974 1.499 . S
C977 C978 1.373 . S
C977 C979 1.389 . S
C978 H951 0.950 . S
C978 C964 1.377 . S
C978 C977 1.373 . S
C979 C963 1.377 . S
C979 C977 1.389 . S
C979 C980 1.524 . S
C980 C979 1.524 . S
C980 C981 1.397 . S
C980 C985 1.363 . S
C981 H952 0.950 . S
C981 C980 1.397 . S
C981 C982 1.334 . S
C982 H953 0.950 . S
C982 C981 1.334 . S
C982 C983 1.287 . S
C983 C982 1.287 . S
C983 C984 1.524 . S
C983 H986 0.999 . S
C984 H954 0.950 . S
C984 C983 1.524 . S
C984 C985 1.415 . S
C985 H955 0.950 . S
C985 C980 1.363 . S
C985 C984 1.415 . S
H986 C983 0.999 . S
H987 C968 0.913 . S
H988 C1006 0.951 . S
H989 C1008 0.951 . S
H990 C1010 0.950 . S
H991 C1011 0.950 . S
H992 C1013 0.950 . S
H993 C1016 0.950 . S
H994 C1017 0.950 . S
H995 C1019 0.950 . S
H996 C1020 0.950 . S
H997 C1021 0.951 . S
H998 C1023 0.951 . S
H999 C1025 0.950 . S
H1000 C1026 0.950 . S
H1001 C1028 0.950 . S
H1002 C1031 0.950 . S
H1003 C1032 0.950 . S
H1004 C1034 0.950 . S
H1005 C1035 0.950 . S
C1006 H988 0.951 . S
C1006 C1007 1.366 . S
C1006 C1008 1.388 . S
C1007 C1006 1.366 . S
C1007 C1011 1.385 . S
C1008 H989 0.951 . S
C1008 C1006 1.388 . S
C1008 C1009 1.366 . S
C1009 C1008 1.366 . S
C1009 C1010 1.414 . S
C1009 C1012 1.499 . S
C1010 H990 0.950 . S
C1010 C1009 1.414 . S
C1010 C1011 1.374 . S
C1011 H991 0.950 . S
C1011 C1007 1.385 . S
C1011 C1010 1.374 . S
C1012 C1009 1.499 . S
C1012 C1013 1.373 . S
C1012 C1014 1.389 . S
C1013 H992 0.950 . S
C1013 C1012 1.373 . S
C1013 C1029 1.377 . S
C1014 C1012 1.389 . S
C1014 C1015 1.524 . S
C1014 C1028 1.377 . S
C1015 C1014 1.524 . S
C1015 C1016 1.397 . S
C1015 C1020 1.363 . S
C1016 H993 0.950 . S
C1016 C1015 1.397 . S
C1016 C1017 1.334 . S
C1017 H994 0.950 . S
C1017 C1016 1.334 . S
C1017 C1018 1.287 . S
C1018 C1017 1.287 . S
C1018 C1019 1.524 . S
C1018 H1037 0.913 . S
C1019 H995 0.950 . S
C1019 C1018 1.524 . S
C1019 C1020 1.415 . S
C1020 H996 0.950 . S
C1020 C1015 1.363 . S
C1020 C1019 1.415 . S
C1021 H997 0.951 . S
C1021 C1022 1.366 1_455 S
C1021 C1023 1.388 . S
C1022 C1021 1.366 1_655 S
C1022 C1026 1.385 . S
C1023 H998 0.951 . S
C1023 C1021 1.388 . S
C1023 C1024 1.366 . S
C1024 C1023 1.366 . S
C1024 C1025 1.414 . S
C1024 C1027 1.499 . S
C1025 H999 0.950 . S
C1025 C1024 1.414 . S
C1025 C1026 1.374 1_455 S
C1026 H1000 0.950 . S
C1026 C1022 1.385 . S
C1026 C1025 1.374 1_655 S
C1027 C1024 1.499 . S
C1027 C1028 1.373 . S
C1027 C1029 1.389 . S
C1028 H1001 0.950 . S
C1028 C1014 1.377 . S
C1028 C1027 1.373 . S
C1029 C1013 1.377 . S
C1029 C1027 1.389 . S
C1029 C1030 1.524 . S
C1030 C1029 1.524 . S
C1030 C1031 1.397 . S
C1030 C1035 1.363 . S
C1031 H1002 0.950 . S
C1031 C1030 1.397 . S
C1031 C1032 1.334 . S
C1032 H1003 0.950 . S
C1032 C1031 1.334 . S
C1032 C1033 1.287 . S
C1033 C1032 1.287 . S
C1033 C1034 1.524 . S
C1033 H1036 0.999 . S
C1034 H1004 0.950 . S
C1034 C1033 1.524 . S
C1034 C1035 1.415 . S
C1035 H1005 0.950 . S
C1035 C1030 1.363 . S
C1035 C1034 1.415 . S
H1036 C1033 0.999 . S
H1037 C1018 0.913 . S
H1038 C1056 0.951 . S
H1039 C1058 0.951 . S
H1040 C1060 0.950 . S
H1041 C1061 0.950 . S
H1042 C1063 0.950 . S
H1043 C1066 0.950 . S
H1044 C1067 0.950 . S
H1045 C1069 0.950 . S
H1046 C1070 0.950 . S
H1047 C1071 0.951 . S
H1048 C1073 0.951 . S
H1049 C1075 0.950 . S
H1050 C1076 0.950 . S
H1051 C1078 0.950 . S
H1052 C1081 0.950 . S
H1053 C1082 0.950 . S
H1054 C1084 0.950 . S
H1055 C1085 0.950 . S
C1056 H1038 0.951 . S
C1056 C1057 1.366 . S
C1056 C1058 1.388 . S
C1057 C1056 1.366 . S
C1057 C1061 1.385 . S
C1058 H1039 0.951 . S
C1058 C1056 1.388 . S
C1058 C1059 1.366 . S
C1059 C1058 1.366 . S
C1059 C1060 1.414 . S
C1059 C1062 1.499 . S
C1060 H1040 0.950 . S
C1060 C1059 1.414 . S
C1060 C1061 1.374 . S
C1061 H1041 0.950 . S
C1061 C1057 1.385 . S
C1061 C1060 1.374 . S
C1062 C1059 1.499 . S
C1062 C1063 1.373 . S
C1062 C1064 1.389 . S
C1063 H1042 0.950 . S
C1063 C1062 1.373 . S
C1063 C1079 1.377 . S
C1064 C1062 1.389 . S
C1064 C1065 1.524 . S
C1064 C1078 1.377 . S
C1065 C1064 1.524 . S
C1065 C1066 1.397 . S
C1065 C1070 1.363 . S
C1066 H1043 0.950 . S
C1066 C1065 1.397 . S
C1066 C1067 1.334 . S
C1067 H1044 0.950 . S
C1067 C1066 1.334 . S
C1067 C1068 1.287 . S
C1068 C1067 1.287 . S
C1068 C1069 1.524 . S
C1068 H1087 0.913 . S
C1069 H1045 0.950 . S
C1069 C1068 1.524 . S
C1069 C1070 1.415 . S
C1070 H1046 0.950 . S
C1070 C1065 1.363 . S
C1070 C1069 1.415 . S
C1071 H1047 0.951 . S
C1071 C1072 1.366 . S
C1071 C1073 1.388 . S
C1072 C1071 1.366 . S
C1072 C1076 1.385 . S
C1073 H1048 0.951 . S
C1073 C1071 1.388 . S
C1073 C1074 1.366 . S
C1074 C1073 1.366 . S
C1074 C1075 1.414 . S
C1074 C1077 1.499 . S
C1075 H1049 0.950 . S
C1075 C1074 1.414 . S
C1075 C1076 1.374 . S
C1076 H1050 0.950 . S
C1076 C1072 1.385 . S
C1076 C1075 1.374 . S
C1077 C1074 1.499 . S
C1077 C1078 1.373 . S
C1077 C1079 1.389 . S
C1078 H1051 0.950 . S
C1078 C1064 1.377 . S
C1078 C1077 1.373 . S
C1079 C1063 1.377 . S
C1079 C1077 1.389 . S
C1079 C1080 1.524 . S
C1080 C1079 1.524 . S
C1080 C1081 1.397 . S
C1080 C1085 1.363 . S
C1081 H1052 0.950 . S
C1081 C1080 1.397 . S
C1081 C1082 1.334 . S
C1082 H1053 0.950 . S
C1082 C1081 1.334 . S
C1082 C1083 1.287 . S
C1083 C1082 1.287 . S
C1083 C1084 1.524 . S
C1083 H1086 0.999 . S
C1084 H1054 0.950 . S
C1084 C1083 1.524 . S
C1084 C1085 1.415 . S
C1085 H1055 0.950 . S
C1085 C1080 1.363 . S
C1085 C1084 1.415 . S
H1086 C1083 0.999 . S
H1087 C1068 0.913 . S
C307 C2 0.274 . S
C322 C74 0.273 . S
C357 C38 0.276 . S
C372 C110 0.275 . S
C407 C146 0.275 . S
C422 C218 0.273 . S
C457 C182 0.273 . S
C472 C254 0.275 . S
C507 C4 1.379 . S
C522 C184 1.380 . S
C557 C40 1.381 . S
C572 C220 1.380 . S
C607 C256 1.380 . S
C622 C76 1.381 . S
C657 C112 1.381 . S
C672 C148 1.380 . S
C707 C147 1.691 . S
C722 C14 1.629 . S
C757 C50 1.629 . S
C772 C183 1.691 . S
C807 C86 1.628 . S
C822 C219 1.691 . S
C857 C122 1.628 . S
C872 C255 1.691 . S
C907 C3 1.691 . S
C922 C158 1.628 . S
C957 C194 1.628 . S
C972 C39 1.691 . S
C1007 C230 1.627 . S
C1022 C75 1.691 . S
C1057 C111 1.691 . S
C1072 C266 1.628 . S
