# Generated by pormake.
# Topology ukt, (4)-cn, num edge types: 1
# Building blocks:
#     Node 0, Type 0, BuildingBlock: UXUYUI_clean_sbu_0, # of connection points: 4
#     Node 1, Type 0, BuildingBlock: UXUYUI_clean_sbu_0, # of connection points: 4
#     Node 2, Type 0, BuildingBlock: UXUYUI_clean_sbu_0, # of connection points: 4
#     Node 3, Type 0, BuildingBlock: UXUYUI_clean_sbu_0, # of connection points: 4
#     Node 4, Type 0, BuildingBlock: UXUYUI_clean_sbu_0, # of connection points: 4
#     Node 5, Type 0, BuildingBlock: UXUYUI_clean_sbu_0, # of connection points: 4
#     Node 6, Type 0, BuildingBlock: UXUYUI_clean_sbu_0, # of connection points: 4
#     Node 7, Type 0, BuildingBlock: UXUYUI_clean_sbu_0, # of connection points: 4
#     Node 8, Type 0, BuildingBlock: UXUYUI_clean_sbu_0, # of connection points: 4
#     Node 9, Type 0, BuildingBlock: UXUYUI_clean_sbu_0, # of connection points: 4
#     Node 10, Type 0, BuildingBlock: UXUYUI_clean_sbu_0, # of connection points: 4
#     Node 11, Type 0, BuildingBlock: UXUYUI_clean_sbu_0, # of connection points: 4
#     Node 12, Type 0, BuildingBlock: UXUYUI_clean_sbu_0, # of connection points: 4
#     Node 13, Type 0, BuildingBlock: UXUYUI_clean_sbu_0, # of connection points: 4
#     Node 14, Type 0, BuildingBlock: UXUYUI_clean_sbu_0, # of connection points: 4
#     Node 15, Type 0, BuildingBlock: UXUYUI_clean_sbu_0, # of connection points: 4
#     Edge 16, Type (0, 0), BuildingBlock: TEMPAE_clean_linker_10, # of connection points: 2
#     Edge 17, Type (0, 0), BuildingBlock: TEMPAE_clean_linker_10, # of connection points: 2
#     Edge 18, Type (0, 0), BuildingBlock: TEMPAE_clean_linker_10, # of connection points: 2
#     Edge 19, Type (0, 0), BuildingBlock: TEMPAE_clean_linker_10, # of connection points: 2
#     Edge 20, Type (0, 0), BuildingBlock: TEMPAE_clean_linker_10, # of connection points: 2
#     Edge 21, Type (0, 0), BuildingBlock: TEMPAE_clean_linker_10, # of connection points: 2
#     Edge 22, Type (0, 0), BuildingBlock: TEMPAE_clean_linker_10, # of connection points: 2
#     Edge 23, Type (0, 0), BuildingBlock: TEMPAE_clean_linker_10, # of connection points: 2
#     Edge 24, Type (0, 0), BuildingBlock: TEMPAE_clean_linker_10, # of connection points: 2
#     Edge 25, Type (0, 0), BuildingBlock: TEMPAE_clean_linker_10, # of connection points: 2
#     Edge 26, Type (0, 0), BuildingBlock: TEMPAE_clean_linker_10, # of connection points: 2
#     Edge 27, Type (0, 0), BuildingBlock: TEMPAE_clean_linker_10, # of connection points: 2
#     Edge 28, Type (0, 0), BuildingBlock: TEMPAE_clean_linker_10, # of connection points: 2
#     Edge 29, Type (0, 0), BuildingBlock: TEMPAE_clean_linker_10, # of connection points: 2
#     Edge 30, Type (0, 0), BuildingBlock: TEMPAE_clean_linker_10, # of connection points: 2
#     Edge 31, Type (0, 0), BuildingBlock: TEMPAE_clean_linker_10, # of connection points: 2
#     Edge 32, Type (0, 0), BuildingBlock: TEMPAE_clean_linker_10, # of connection points: 2
#     Edge 33, Type (0, 0), BuildingBlock: TEMPAE_clean_linker_10, # of connection points: 2
#     Edge 34, Type (0, 0), BuildingBlock: TEMPAE_clean_linker_10, # of connection points: 2
#     Edge 35, Type (0, 0), BuildingBlock: TEMPAE_clean_linker_10, # of connection points: 2
#     Edge 36, Type (0, 0), BuildingBlock: TEMPAE_clean_linker_10, # of connection points: 2
#     Edge 37, Type (0, 0), BuildingBlock: TEMPAE_clean_linker_10, # of connection points: 2
#     Edge 38, Type (0, 0), BuildingBlock: TEMPAE_clean_linker_10, # of connection points: 2
#     Edge 39, Type (0, 0), BuildingBlock: TEMPAE_clean_linker_10, # of connection points: 2
#     Edge 40, Type (0, 0), BuildingBlock: TEMPAE_clean_linker_10, # of connection points: 2
#     Edge 41, Type (0, 0), BuildingBlock: TEMPAE_clean_linker_10, # of connection points: 2
#     Edge 42, Type (0, 0), BuildingBlock: TEMPAE_clean_linker_10, # of connection points: 2
#     Edge 43, Type (0, 0), BuildingBlock: TEMPAE_clean_linker_10, # of connection points: 2
#     Edge 44, Type (0, 0), BuildingBlock: TEMPAE_clean_linker_10, # of connection points: 2
#     Edge 45, Type (0, 0), BuildingBlock: TEMPAE_clean_linker_10, # of connection points: 2
#     Edge 46, Type (0, 0), BuildingBlock: TEMPAE_clean_linker_10, # of connection points: 2
#     Edge 47, Type (0, 0), BuildingBlock: TEMPAE_clean_linker_10, # of connection points: 2
# Relax obj value: 0.433
# Max RMSD: 0.238
# Mean RMSD: 0.238
data_MOF--net-ukt--node1-UXUYUI_clean_sbu_0--edge1-TEMPAE_clean_linker_10
_symmetry_space_group_name_H-M    P1
_symmetry_Int_Tables_number       1
_symmetry_cell_setting            triclinic
loop_
_symmetry_equiv_pos_as_xyz
'x, y, z'
_cell_length_a     61.05489
_cell_length_b     61.066096
_cell_length_c     55.09793
_cell_angle_alpha  89.989028
_cell_angle_beta   90.028953
_cell_angle_gamma 90.007403
loop_
_atom_site_label
_atom_site_type_symbol
_atom_site_fract_x
_atom_site_fract_y
_atom_site_fract_z
_atom_type_partial_charge
Li0 Li 0.56438 0.1433 0.11604 0.0
Li1 Li 0.55451 0.1113 0.08826 0.0
Li2 Li 0.59231 0.12196 0.09529 0.0
Li3 Li 0.56865 0.14549 0.07253 0.0
C4 C 0.5855 0.1015 0.13536 0.0
N5 N 0.61669 0.08209 0.16461 0.0
C6 C 0.588 0.07875 0.13534 0.0
C7 C 0.59877 0.11438 0.15031 0.0
C8 C 0.60389 0.06925 0.15025 0.0
C9 C 0.61447 0.10425 0.16496 0.0
C10 C 0.5271 0.15436 0.07789 0.0
C11 C 0.50647 0.16226 0.04158 0.0
N12 N 0.50096 0.18214 0.05088 0.0
C13 C 0.52106 0.17478 0.08718 0.0
C14 C 0.51959 0.14795 0.055 0.0
C15 C 0.50789 0.18862 0.07321 0.0
C16 C 0.56075 0.18248 0.13948 0.0
N17 N 0.55821 0.16069 0.14341 0.0
C18 C 0.55031 0.16696 0.18528 0.0
C19 C 0.55296 0.15265 0.16566 0.0
C20 C 0.55316 0.18962 0.18179 0.0
C21 C 0.55812 0.19731 0.15841 0.0
H22 H 0.56506 0.18831 0.12157 0.0
H23 H 0.55132 0.13517 0.16826 0.0
C24 C 0.54983 0.06853 0.0762 0.0
N25 N 0.53758 0.08666 0.08052 0.0
C26 C 0.54105 0.05111 0.06322 0.0
C27 C 0.5066 0.07064 0.06098 0.0
C28 C 0.51614 0.08784 0.07398 0.0
C29 C 0.51949 0.05247 0.05459 0.0
H30 H 0.567 0.06845 0.081 0.0
H31 H 0.50702 0.10276 0.07713 0.0
C32 C 0.60796 0.16493 0.09006 0.0
N33 N 0.6447 0.18701 0.074 0.0
C34 C 0.61689 0.16018 0.06733 0.0
C35 C 0.61765 0.18098 0.10461 0.0
C36 C 0.63547 0.1715 0.05953 0.0
C37 C 0.63624 0.19194 0.09618 0.0
C38 C 0.58015 0.10839 0.04141 0.0
C39 C 0.60097 0.10708 0.03091 0.0
C40 C 0.56187 0.10159 0.02808 0.0
C41 C 0.60311 0.09913 0.00726 0.0
C42 C 0.5647 0.09367 0.00451 0.0
N43 N 0.58509 0.09263 0.99466 0.0
C44 C 0.62189 0.08929 0.08527 0.0
C45 C 0.63892 0.11999 0.10369 0.0
C46 C 0.64217 0.08018 0.07976 0.0
N47 N 0.62067 0.10926 0.09601 0.0
C48 C 0.65964 0.11139 0.09864 0.0
C49 C 0.66132 0.09171 0.08558 0.0
H50 H 0.60705 0.0811 0.07957 0.0
H51 H 0.63747 0.13572 0.11251 0.0
C52 C 0.5675 0.18774 0.05534 0.0
N53 N 0.56777 0.16677 0.04716 0.0
C54 C 0.56885 0.20514 0.03911 0.0
C55 C 0.57021 0.17913 0.00608 0.0
C56 C 0.56872 0.16216 0.02303 0.0
C57 C 0.57074 0.20094 0.01414 0.0
H58 H 0.56671 0.19091 0.07463 0.0
H59 H 0.56887 0.14544 0.01685 0.0
O60 O 0.57054 0.11122 0.12036 0.0
O61 O 0.54043 0.1408 0.09104 0.0
O62 O 0.58977 0.15409 0.09814 0.0
O63 O 0.57781 0.11565 0.06482 0.0
H64 H 0.57786 0.06856 0.12388 0.0
H65 H 0.59717 0.13203 0.15033 0.0
H66 H 0.60607 0.05167 0.15038 0.0
H67 H 0.62494 0.11401 0.17652 0.0
H68 H 0.5007 0.15758 0.02375 0.0
H69 H 0.52652 0.17993 0.10494 0.0
H70 H 0.52404 0.13221 0.04756 0.0
H71 H 0.5032 0.20452 0.08013 0.0
H72 H 0.5467 0.16034 0.20307 0.0
H73 H 0.5601 0.21463 0.15478 0.0
H74 H 0.55139 0.03728 0.05871 0.0
H75 H 0.48995 0.07225 0.05442 0.0
H76 H 0.60948 0.14798 0.0558 0.0
H77 H 0.61091 0.18486 0.12226 0.0
H78 H 0.64254 0.16797 0.04197 0.0
H79 H 0.64395 0.20437 0.10726 0.0
H80 H 0.61538 0.11208 0.04088 0.0
H81 H 0.54564 0.10241 0.03574 0.0
H82 H 0.61912 0.09805 -0.00105 0.0
H83 H 0.55068 0.08834 0.99406 0.0
H84 H 0.64287 0.06486 0.06988 0.0
H85 H 0.67411 0.12074 0.10335 0.0
H86 H 0.56876 0.22172 0.04609 0.0
H87 H 0.57172 0.17519 0.98699 0.0
Li88 Li 0.35084 0.56678 0.11895 0.0
Li89 Li 0.3831 0.55755 0.09155 0.0
Li90 Li 0.3728 0.59521 0.10013 0.0
Li91 Li 0.34958 0.57279 0.07553 0.0
C92 C 0.39218 0.58662 0.14043 0.0
N93 N 0.41067 0.6165 0.17199 0.0
C94 C 0.41485 0.58974 0.14071 0.0
C95 C 0.3789 0.59863 0.15623 0.0
C96 C 0.42388 0.60494 0.1568 0.0
C97 C 0.38857 0.61367 0.17204 0.0
C98 C 0.33864 0.53142 0.08028 0.0
C99 C 0.328 0.51205 0.04398 0.0
N100 N 0.30857 0.50679 0.05454 0.0
C101 C 0.31865 0.52565 0.09085 0.0
C102 C 0.34345 0.5244 0.05673 0.0
C103 C 0.30364 0.51324 0.07752 0.0
C104 C 0.31185 0.5644 0.14376 0.0
N105 N 0.33338 0.5592 0.14589 0.0
C106 C 0.32752 0.54475 0.18565 0.0
C107 C 0.34148 0.54955 0.16623 0.0
C108 C 0.30512 0.54992 0.18392 0.0
C109 C 0.29737 0.55988 0.1626 0.0
H110 H 0.30594 0.57207 0.12732 0.0
H111 H 0.35874 0.54568 0.16738 0.0
C112 C 0.42656 0.54967 0.08124 0.0
N113 N 0.40691 0.53946 0.08361 0.0
C114 C 0.44327 0.53987 0.0679 0.0
C115 C 0.41945 0.50884 0.06068 0.0
C116 C 0.40334 0.51903 0.07465 0.0
C117 C 0.43934 0.51972 0.05654 0.0
H118 H 0.42854 0.56625 0.08777 0.0
H119 H 0.38736 0.51159 0.07639 0.0
C120 C 0.33037 0.61138 0.09307 0.0
N121 N 0.30999 0.64857 0.07555 0.0
C122 C 0.33725 0.6208 0.07125 0.0
C123 C 0.31308 0.62083 0.10595 0.0
C124 C 0.32676 0.63961 0.0627 0.0
C125 C 0.30299 0.63964 0.0968 0.0
C126 C 0.3879 0.5838 0.04595 0.0
C127 C 0.39139 0.60452 0.03582 0.0
C128 C 0.39317 0.56513 0.03247 0.0
C129 C 0.40009 0.60618 0.01245 0.0
C130 C 0.40191 0.56747 0.00919 0.0
N131 N 0.40515 0.58778 -0.00027 0.0
C132 C 0.40513 0.62654 0.09259 0.0
C133 C 0.37328 0.64099 0.11129 0.0
C134 C 0.41307 0.64757 0.08818 0.0
N135 N 0.3851 0.62373 0.10287 0.0
C136 C 0.38048 0.66234 0.10698 0.0
C137 C 0.40015 0.66574 0.09433 0.0
H138 H 0.41417 0.61245 0.0862 0.0
H139 H 0.35763 0.63828 0.11991 0.0
C140 C 0.30771 0.5721 0.05692 0.0
N141 N 0.32889 0.57306 0.04947 0.0
C142 C 0.29072 0.57352 0.04015 0.0
C143 C 0.31757 0.57667 0.00811 0.0
C144 C 0.3341 0.57509 0.02557 0.0
C145 C 0.29554 0.57622 0.0154 0.0
H146 H 0.30404 0.57054 0.07604 0.0
H147 H 0.35096 0.57594 0.01996 0.0
O148 O 0.38289 0.57236 0.12431 0.0
O149 O 0.35334 0.54396 0.09289 0.0
O150 O 0.34041 0.59297 0.10189 0.0
O151 O 0.37985 0.58192 0.06909 0.0
H152 H 0.42534 0.58061 0.12858 0.0
H153 H 0.3613 0.59656 0.15604 0.0
H154 H 0.4414 0.60759 0.15718 0.0
H155 H 0.3785 0.62317 0.18429 0.0
H156 H 0.33144 0.50669 0.02566 0.0
H157 H 0.31471 0.53072 0.10912 0.0
H158 H 0.3588 0.5287 0.04824 0.0
H159 H 0.28806 0.50877 0.08544 0.0
H160 H 0.33412 0.537 0.20175 0.0
H161 H 0.28033 0.56451 0.16065 0.0
H162 H 0.45832 0.5488 0.06468 0.0
H163 H 0.41595 0.49333 0.05196 0.0
H164 H 0.35049 0.61368 0.061 0.0
H165 H 0.30757 0.61377 0.1229 0.0
H166 H 0.33195 0.64707 0.04585 0.0
H167 H 0.28962 0.64716 0.1066 0.0
H168 H 0.38743 0.61921 0.04585 0.0
H169 H 0.39043 0.54898 0.03973 0.0
H170 H 0.40286 0.62211 0.00443 0.0
H171 H 0.40607 0.55313 -0.00138 0.0
H172 H 0.42826 0.64953 0.07825 0.0
H173 H 0.37021 0.676 0.11222 0.0
H174 H 0.27397 0.5727 0.04653 0.0
H175 H 0.32199 0.57891 0.98924 0.0
Li176 Li 0.9455 0.38013 0.08487 0.0
Li177 Li 0.9349 0.34797 0.11236 0.0
Li178 Li 0.93064 0.34633 0.06804 0.0
Li179 Li 0.90745 0.36963 0.09142 0.0
C180 C 0.97212 0.33754 0.07285 0.0
N181 N -0.0017 0.31158 0.04378 0.0
C182 C 0.97859 0.31679 0.08078 0.0
C183 C 0.97907 0.34513 0.05019 0.0
C184 C 0.99181 0.3039 0.0658 0.0
C185 C 0.99227 0.33176 0.03575 0.0
C186 C 0.91389 0.38986 0.13158 0.0
C187 C 0.88477 0.38711 0.161 0.0
N188 N 0.88229 0.40924 0.16031 0.0
C189 C 0.91111 0.41257 0.13124 0.0
C190 C 0.90066 0.37701 0.14662 0.0
C191 C 0.89502 0.42206 0.14588 0.0
C192 C 0.95247 0.42335 0.07404 0.0
N193 N 0.96337 0.40418 0.07726 0.0
C194 C 0.99422 0.41761 0.05532 0.0
C195 C 0.98423 0.40133 0.06926 0.0
C196 C 0.98267 0.43694 0.05029 0.0
C197 C 0.96203 0.44023 0.06076 0.0
H198 H 0.93559 0.42473 0.07973 0.0
H199 H 0.99236 0.3858 0.07188 0.0
C200 C 0.9412 0.30866 0.13582 0.0
N201 N 0.94134 0.33062 0.13969 0.0
C202 C 0.94485 0.29425 0.15499 0.0
C203 C 0.94826 0.32535 0.18194 0.0
C204 C 0.94489 0.33922 0.1621 0.0
C205 C 0.94825 0.30257 0.17841 0.0
H206 H 0.93792 0.30237 0.11783 0.0
H207 H 0.94475 0.35679 0.1646 0.0
C208 C 0.91758 0.38096 0.03751 0.0
N209 N 0.9077 0.39028 0.98967 0.0
C210 C 0.8972 0.37516 0.02791 0.0
C211 C 0.93288 0.39167 0.02282 0.0
C212 C 0.89254 0.37996 0.00367 0.0
C213 C 0.92759 0.3962 -0.00133 0.0
C214 C 0.89022 0.32741 0.09434 0.0
C215 C 0.8776 0.32534 0.07331 0.0
C216 C 0.8825 0.31884 0.11625 0.0
C217 C 0.85721 0.31505 0.07463 0.0
C218 C 0.86203 0.30864 0.11682 0.0
N219 N 0.8499 0.307 0.09618 0.0
C220 C 0.92636 0.30503 0.04758 0.0
C221 C 0.93621 0.33176 0.01838 0.0
C222 C 0.92533 0.28894 0.02969 0.0
N223 N 0.93135 0.32603 0.04164 0.0
C224 C 0.93539 0.31617 -0.00013 0.0
C225 C 0.92964 0.29447 0.00541 0.0
H226 H 0.92286 0.30085 0.06625 0.0
H227 H 0.94084 0.34834 0.01411 0.0
C228 C 0.87769 0.4012 0.07808 0.0
N229 N 0.87897 0.38266 0.09165 0.0
C230 C 0.85741 0.41037 0.07261 0.0
C231 C 0.84015 0.3826 0.09734 0.0
C232 C 0.86086 0.37381 0.10217 0.0
C233 C 0.83831 0.40056 0.08157 0.0
H234 H 0.8924 0.40827 0.07048 0.0
H235 H 0.86228 0.35948 0.11351 0.0
O236 O 0.95884 0.35025 0.08705 0.0
O237 O 0.92906 0.38013 0.11686 0.0
O238 O 0.92237 0.37667 0.0613 0.0
O239 O 0.91023 0.33738 0.09346 0.0
H240 H 0.97353 0.3107 0.09831 0.0
H241 H 0.9739 0.36099 0.04356 0.0
H242 H 0.9969 0.28779 0.0717 0.0
H243 H 0.9976 0.33737 0.01809 0.0
H244 H 0.87434 0.37735 0.1726 0.0
H245 H 0.92122 0.42277 0.11977 0.0
H246 H 0.90244 0.35938 0.1469 0.0
H247 H 0.89265 0.43961 0.14574 0.0
H248 H 0.01014 0.41462 0.04731 0.0
H249 H 0.95259 0.45483 0.0568 0.0
H250 H 0.94436 0.27676 0.15167 0.0
H251 H 0.95081 0.33229 0.19981 0.0
H252 H 0.88504 0.36717 0.0391 0.0
H253 H 0.94876 0.39625 0.02987 0.0
H254 H 0.87683 0.37554 0.996 0.0
H255 H 0.93931 0.40439 0.98708 0.0
H256 H 0.88353 0.33154 0.05615 0.0
H257 H 0.89217 0.32017 0.13266 0.0
H258 H 0.84721 0.31341 0.05852 0.0
H259 H 0.85577 0.30204 0.13367 0.0
H260 H 0.9206 0.27248 0.03477 0.0
H261 H 0.9392 0.32103 0.98145 0.0
H262 H 0.8566 0.42445 0.06067 0.0
H263 H 0.82572 0.37468 0.10466 0.0
Li264 Li 0.11113 0.93912 0.09406 0.0
Li265 Li 0.14448 0.92812 0.11957 0.0
Li266 Li 0.14424 0.92497 0.07565 0.0
Li267 Li 0.12151 0.90089 0.09886 0.0
C268 C 0.15296 0.96799 0.08368 0.0
N269 N 0.17738 -0.00053 0.05985 0.0
C270 C 0.17083 0.97781 0.09522 0.0
C271 C 0.14734 0.97443 0.06015 0.0
C272 C 0.18302 0.99364 0.08284 0.0
C273 C 0.15993 0.99029 0.04836 0.0
C274 C 0.10239 0.90683 0.13979 0.0
C275 C 0.10455 0.87682 0.16812 0.0
N276 N 0.08237 0.87484 0.16739 0.0
C277 C 0.07963 0.90456 0.13935 0.0
C278 C 0.11499 0.89291 0.1543 0.0
C279 C 0.06981 0.88826 0.15343 0.0
C280 C 0.06787 0.94838 0.08386 0.0
N281 N 0.08743 0.95805 0.08861 0.0
C282 C 0.07482 0.99211 0.07274 0.0
C283 C 0.09098 0.97964 0.08415 0.0
C284 C 0.05499 0.98213 0.06599 0.0
C285 C 0.05123 0.96024 0.07261 0.0
H286 H 0.06588 0.93099 0.08688 0.0
H287 H 0.10688 0.98673 0.08774 0.0
C288 C 0.18481 0.93542 0.13997 0.0
N289 N 0.16324 0.93424 0.14581 0.0
C290 C 0.20042 0.93939 0.15786 0.0
C291 C 0.17131 0.94058 0.18762 0.0
C292 C 0.15618 0.9368 0.16902 0.0
C293 C 0.19374 0.9419 0.18206 0.0
H294 H 0.18985 0.93322 0.12131 0.0
H295 H 0.13888 0.93572 0.17308 0.0
C296 C 0.10519 0.91552 0.0464 0.0
N297 N 0.08742 0.91346 0.00025 0.0
C298 C 0.10222 0.89528 0.03496 0.0
C299 C 0.099 0.93469 0.03431 0.0
C300 C 0.09327 0.89459 0.01164 0.0
C301 C 0.09007 0.93332 0.01102 0.0
C302 C 0.16646 0.88758 0.08901 0.0
C303 C 0.15865 0.87616 0.06881 0.0
C304 C 0.1876 0.88347 0.0976 0.0
C305 C 0.17213 0.86076 0.05752 0.0
C306 C 0.20058 0.86791 0.08583 0.0
N307 N 0.19264 0.85697 0.0662 0.0
C308 C 0.18489 0.93301 0.0548 0.0
C309 C 0.15923 0.91928 0.02637 0.0
C310 C 0.20142 0.93263 0.03739 0.0
N311 N 0.16428 0.92637 0.04908 0.0
C312 C 0.17537 0.91825 0.00847 0.0
C313 C 0.19691 0.92467 0.01398 0.0
H314 H 0.18862 0.93806 0.07314 0.0
H315 H 0.14298 0.91355 0.02225 0.0
C316 C 0.08899 0.87053 0.08949 0.0
N317 N 0.10923 0.87236 0.09951 0.0
C318 C 0.08049 0.84998 0.08394 0.0
C319 C 0.11287 0.83346 0.10144 0.0
C320 C 0.1209 0.85443 0.10641 0.0
C321 C 0.09286 0.83122 0.08915 0.0
H322 H 0.0801 0.88513 0.08431 0.0
H323 H 0.13695 0.85642 0.11442 0.0
O324 O 0.14097 0.95232 0.09548 0.0
O325 O 0.11241 0.92219 0.12556 0.0
O326 O 0.1137 0.91645 0.06941 0.0
O327 O 0.15366 0.90301 0.10007 0.0
H328 H 0.17521 0.97336 0.11358 0.0
H329 H 0.13359 0.96706 0.05094 0.0
H330 H 0.19694 0.0013 0.09154 0.0
H331 H 0.15585 0.99528 0.03007 0.0
H332 H 0.11409 0.86584 0.17934 0.0
H333 H 0.06967 0.91518 0.12816 0.0
H334 H 0.13266 0.89432 0.15461 0.0
H335 H 0.05221 0.88624 0.15322 0.0
H336 H 0.07824 0.00898 0.068 0.0
H337 H 0.03632 0.95187 0.06736 0.0
H338 H 0.21757 0.93998 0.1529 0.0
H339 H 0.16556 0.94251 0.20609 0.0
H340 H 0.10687 0.88021 0.04388 0.0
H341 H 0.10089 0.9505 0.04278 0.0
H342 H 0.09096 0.87903 0.00259 0.0
H343 H 0.08518 0.94804 0.00154 0.0
H344 H 0.14242 0.87929 0.06184 0.0
H345 H 0.19391 0.89218 0.11321 0.0
H346 H 0.16629 0.85184 0.04184 0.0
H347 H 0.21696 0.86453 0.0923 0.0
H348 H 0.21768 0.93805 0.04244 0.0
H349 H 0.17117 0.91158 0.99087 0.0
H350 H 0.06496 0.84877 0.07452 0.0
H351 H 0.12287 0.81928 0.10557 0.0
Li352 Li 0.59337 0.37126 0.39796 0.0
Li353 Li 0.56728 0.35238 0.42274 0.0
Li354 Li 0.56386 0.35105 0.37851 0.0
Li355 Li 0.5567 0.38623 0.40256 0.0
C356 C 0.60536 0.32722 0.40351 0.0
N357 N 0.64214 0.30231 0.41283 0.0
C358 C 0.61528 0.32799 0.42634 0.0
C359 C 0.61398 0.31365 0.38548 0.0
C360 C 0.63391 0.3153 0.43068 0.0
C361 C 0.63264 0.30122 0.39053 0.0
C362 C 0.5837 0.38906 0.45002 0.0
C363 C 0.57349 0.4087 0.48631 0.0
N364 N 0.59343 0.40412 0.4961 0.0
C365 C 0.60411 0.3846 0.46045 0.0
C366 C 0.56826 0.40122 0.46306 0.0
C367 C 0.60869 0.39233 0.48377 0.0
C368 C 0.62652 0.40054 0.40763 0.0
N369 N 0.62309 0.38086 0.39683 0.0
C370 C 0.66161 0.37579 0.39158 0.0
C371 C 0.64003 0.36882 0.38798 0.0
C372 C 0.66571 0.39522 0.40459 0.0
C373 C 0.64771 0.40794 0.41197 0.0
H374 H 0.61271 0.40998 0.41407 0.0
H375 H 0.63688 0.35353 0.37879 0.0
C376 C 0.56086 0.3123 0.44494 0.0
N377 N 0.56369 0.33381 0.45041 0.0
C378 C 0.55977 0.2967 0.46336 0.0
C379 C 0.56427 0.32567 0.49284 0.0
C380 C 0.56482 0.34078 0.47384 0.0
C381 C 0.562 0.30334 0.48759 0.0
H382 H 0.56002 0.30723 0.42615 0.0
H383 H 0.56662 0.3579 0.47795 0.0
C384 C 0.58954 0.38938 0.35621 0.0
N385 N 0.62339 0.40415 0.32729 0.0
C386 C 0.59435 0.41173 0.35509 0.0
C387 C 0.60187 0.37454 0.34257 0.0
C388 C 0.61156 0.41887 0.34038 0.0
C389 C 0.61893 0.38234 0.32806 0.0
C390 C 0.52507 0.34837 0.41779 0.0
C391 C 0.51542 0.32844 0.4114 0.0
C392 C 0.51966 0.35825 0.43987 0.0
C393 C 0.50064 0.31858 0.42738 0.0
C394 C 0.50481 0.34786 0.45535 0.0
N395 N 0.4957 0.3284 0.44885 0.0
C396 C 0.55419 0.31068 0.35948 0.0
C397 C 0.55498 0.33848 0.32943 0.0
C398 C 0.55082 0.29466 0.34189 0.0
N399 N 0.55636 0.33201 0.35297 0.0
C400 C 0.55182 0.32292 0.31114 0.0
C401 C 0.55004 0.30061 0.31728 0.0
H402 H 0.55561 0.30608 0.37837 0.0
H403 H 0.55704 0.35557 0.32482 0.0
C404 C 0.55457 0.43022 0.41119 0.0
N405 N 0.54152 0.41251 0.40758 0.0
C406 C 0.54652 0.44843 0.42346 0.0
C407 C 0.51124 0.43051 0.42621 0.0
C408 C 0.51999 0.41261 0.41377 0.0
C409 C 0.52495 0.44818 0.43226 0.0
H410 H 0.57179 0.4293 0.40675 0.0
H411 H 0.51017 0.39807 0.41107 0.0
O412 O 0.58719 0.33956 0.39875 0.0
O413 O 0.57902 0.38193 0.42704 0.0
O414 O 0.57323 0.38194 0.37107 0.0
O415 O 0.54002 0.35801 0.40269 0.0
H416 H 0.60865 0.33821 0.44055 0.0
H417 H 0.60641 0.31286 0.36772 0.0
H418 H 0.64181 0.31577 0.44825 0.0
H419 H 0.63957 0.29071 0.37672 0.0
H420 H 0.56169 0.41811 0.49657 0.0
H421 H 0.61634 0.37536 0.45064 0.0
H422 H 0.55232 0.40471 0.45546 0.0
H423 H 0.62441 0.38899 0.49204 0.0
H424 H 0.67489 0.3657 0.38495 0.0
H425 H 0.64981 0.42287 0.42231 0.0
H426 H 0.55828 0.27954 0.45867 0.0
H427 H 0.56602 0.33129 0.51139 0.0
H428 H 0.58497 0.42341 0.36554 0.0
H429 H 0.59854 0.35715 0.34351 0.0
H430 H 0.61553 0.43611 0.33939 0.0
H431 H 0.6287 0.37104 0.31752 0.0
H432 H 0.51935 0.32062 0.39434 0.0
H433 H 0.52713 0.37357 0.44519 0.0
H434 H 0.4931 0.30311 0.42272 0.0
H435 H 0.50061 0.35523 0.47258 0.0
H436 H 0.5492 0.27775 0.34751 0.0
H437 H 0.55161 0.32822 0.29239 0.0
H438 H 0.55751 0.46185 0.42759 0.0
H439 H 0.49457 0.42967 0.43284 0.0
Li440 Li 0.12647 0.592 0.39953 0.0
Li441 Li 0.1514 0.56851 0.42551 0.0
Li442 Li 0.14698 0.56268 0.38254 0.0
Li443 Li 0.11674 0.55481 0.40912 0.0
C444 C 0.17785 0.5929 0.38659 0.0
N445 N 0.21611 0.5988 0.36062 0.0
C446 C 0.19719 0.58268 0.39408 0.0
C447 C 0.17806 0.60643 0.36613 0.0
C448 C 0.21634 0.58581 0.38067 0.0
C449 C 0.19754 0.60911 0.35316 0.0
C450 C 0.1095 0.57486 0.45218 0.0
C451 C 0.10291 0.55337 0.48818 0.0
N452 N 0.08411 0.56476 0.49215 0.0
C453 C 0.09019 0.58646 0.4567 0.0
C454 C 0.116 0.55826 0.4681 0.0
C455 C 0.07756 0.58107 0.47698 0.0
C456 C 0.09231 0.62253 0.39943 0.0
N457 N 0.11443 0.62043 0.39812 0.0
C458 C 0.11928 0.6587 0.40477 0.0
C459 C 0.12794 0.63801 0.39996 0.0
C460 C 0.09656 0.66113 0.40793 0.0
C461 C 0.08295 0.64289 0.40423 0.0
H462 H 0.08203 0.60813 0.39828 0.0
H463 H 0.1455 0.63571 0.39932 0.0
C464 C 0.18546 0.55274 0.4555 0.0
N465 N 0.17033 0.56883 0.45256 0.0
C466 C 0.20028 0.55368 0.47477 0.0
C467 C 0.18309 0.58731 0.48802 0.0
C468 C 0.1687 0.58578 0.46841 0.0
C469 C 0.19935 0.5713 0.49116 0.0
H470 H 0.18632 0.53947 0.44254 0.0
H471 H 0.15646 0.59833 0.46551 0.0
C472 C 0.10297 0.58001 0.36037 0.0
N473 N 0.07743 0.60251 0.32727 0.0
C474 C 0.08159 0.5731 0.3555 0.0
C475 C 0.11147 0.59812 0.34805 0.0
C476 C 0.0689 0.58475 0.33879 0.0
C477 C 0.09828 0.60935 0.3315 0.0
C478 C 0.14451 0.51953 0.39974 0.0
C479 C 0.13004 0.51522 0.38064 0.0
C480 C 0.15743 0.50262 0.40907 0.0
C481 C 0.12877 0.49403 0.3712 0.0
C482 C 0.15568 0.48165 0.39913 0.0
N483 N 0.1415 0.47782 0.38056 0.0
C484 C 0.18222 0.54206 0.35925 0.0
C485 C 0.15852 0.56123 0.33261 0.0
C486 C 0.19705 0.53828 0.34046 0.0
N487 N 0.1637 0.55385 0.35514 0.0
C488 C 0.17284 0.55778 0.31326 0.0
C489 C 0.19269 0.54667 0.31722 0.0
H490 H 0.18603 0.53658 0.37744 0.0
H491 H 0.14369 0.5705 0.3298 0.0
C492 C 0.07258 0.54925 0.41694 0.0
N493 N 0.09197 0.5385 0.41889 0.0
C494 C 0.05447 0.54226 0.43015 0.0
C495 C 0.0763 0.51255 0.44622 0.0
C496 C 0.09403 0.52008 0.43256 0.0
C497 C 0.05649 0.52426 0.44584 0.0
H498 H 0.07174 0.56444 0.40692 0.0
H499 H 0.10988 0.51239 0.43455 0.0
O500 O 0.1588 0.5895 0.39912 0.0
O501 O 0.12168 0.57932 0.43193 0.0
O502 O 0.11557 0.56885 0.37682 0.0
O503 O 0.14623 0.54015 0.4093 0.0
H504 H 0.19733 0.57215 0.40985 0.0
H505 H 0.16337 0.61475 0.36026 0.0
H506 H 0.23137 0.57782 0.38613 0.0
H507 H 0.1979 0.61938 0.33717 0.0
H508 H 0.10763 0.54042 0.50052 0.0
H509 H 0.08489 0.59931 0.44455 0.0
H510 H 0.13076 0.54894 0.46472 0.0
H511 H 0.06249 0.58979 0.4806 0.0
H512 H 0.13038 0.67226 0.40785 0.0
H513 H 0.06536 0.64412 0.40639 0.0
H514 H 0.2125 0.54094 0.47667 0.0
H515 H 0.18201 0.60129 0.50006 0.0
H516 H 0.07491 0.55876 0.36432 0.0
H517 H 0.12801 0.60357 0.35145 0.0
H518 H 0.0523 0.57962 0.33493 0.0
H519 H 0.10462 0.62352 0.32203 0.0
H520 H 0.11986 0.52799 0.37313 0.0
H521 H 0.16871 0.50567 0.42385 0.0
H522 H 0.11765 0.49046 0.35643 0.0
H523 H 0.16559 0.46841 0.40618 0.0
H524 H 0.21224 0.52984 0.34439 0.0
H525 H 0.16866 0.56419 0.29553 0.0
H526 H 0.03944 0.55164 0.42922 0.0
H527 H 0.0786 0.49877 0.45833 0.0
Li528 Li 0.92558 0.14667 0.42159 0.0
Li529 Li 0.90268 0.12372 0.39762 0.0
Li530 Li 0.94035 0.11284 0.40515 0.0
Li531 Li 0.93075 0.14528 0.37763 0.0
C532 C 0.91229 0.11223 0.45207 0.0
N533 N 0.90305 0.10303 0.50009 0.0
C534 C 0.89175 0.11733 0.46172 0.0
C535 C 0.92806 0.10224 0.46679 0.0
C536 C 0.88742 0.11262 0.48606 0.0
C537 C 0.92309 0.09778 0.49103 0.0
C538 C 0.88559 0.1657 0.39547 0.0
C539 C 0.85695 0.18474 0.37398 0.0
N540 N 0.84499 0.18558 0.39479 0.0
C541 C 0.87315 0.16696 0.41669 0.0
C542 C 0.87757 0.17482 0.37397 0.0
C543 C 0.8526 0.17699 0.41595 0.0
C544 C 0.92207 0.18823 0.44066 0.0
N545 N 0.92595 0.16727 0.44768 0.0
C546 C 0.92806 0.17828 0.48927 0.0
C547 C 0.92945 0.16212 0.47139 0.0
C548 C 0.92324 0.19995 0.48258 0.0
C549 C 0.92069 0.20488 0.45783 0.0
H550 H 0.91988 0.19198 0.42163 0.0
H551 H 0.93325 0.14555 0.47657 0.0
C552 C 0.87239 0.09247 0.41007 0.0
N553 N 0.8742 0.11085 0.39635 0.0
C554 C 0.85194 0.08335 0.4147 0.0
C555 C 0.83566 0.11086 0.38884 0.0
C556 C 0.85652 0.11958 0.38486 0.0
C557 C 0.83309 0.09302 0.40476 0.0
H558 H 0.88678 0.08554 0.41853 0.0
H559 H 0.85842 0.13373 0.37332 0.0
C560 C 0.9671 0.15427 0.41899 0.0
N561 N 0.9921 0.17848 0.45104 0.0
C562 C 0.97278 0.17587 0.41345 0.0
C563 C 0.97424 0.14494 0.44077 0.0
C564 C 0.9854 0.18785 0.42991 0.0
C565 C 0.98685 0.15746 0.45675 0.0
C566 C 0.90991 0.10328 0.3578 0.0
C567 C 0.90685 0.08063 0.35894 0.0
C568 C 0.89734 0.1158 0.34176 0.0
C569 C 0.89111 0.07086 0.34404 0.0
C570 C 0.88179 0.1054 0.32715 0.0
N571 N 0.87901 0.08334 0.3286 0.0
C572 C 0.94516 0.07015 0.41726 0.0
C573 C 0.97924 0.08882 0.41681 0.0
C574 C 0.95464 0.05209 0.42844 0.0
N575 N 0.95736 0.08817 0.41236 0.0
C576 C 0.98948 0.071 0.42801 0.0
C577 C 0.97695 0.05261 0.43465 0.0
H578 H 0.92767 0.07048 0.41413 0.0
H579 H 0.98842 0.10357 0.41299 0.0
C580 C 0.93761 0.18477 0.35498 0.0
N581 N 0.93794 0.16286 0.35076 0.0
C582 C 0.94178 0.19945 0.3362 0.0
C583 C 0.94622 0.16872 0.30892 0.0
C584 C 0.94225 0.15457 0.32838 0.0
C585 C 0.94598 0.19146 0.3128 0.0
H586 H 0.93374 0.19081 0.37293 0.0
H587 H 0.94225 0.13703 0.32559 0.0
O588 O 0.91675 0.11643 0.42818 0.0
O589 O 0.9057 0.15589 0.39575 0.0
O590 O 0.95419 0.14247 0.40348 0.0
O591 O 0.92474 0.11329 0.37273 0.0
H592 H 0.87922 0.1247 0.45051 0.0
H593 H 0.94406 0.09817 0.45969 0.0
H594 H 0.8716 0.11651 0.49377 0.0
H595 H 0.93517 0.09016 0.50266 0.0
H596 H 0.85045 0.19175 0.35745 0.0
H597 H 0.87932 0.16032 0.43355 0.0
H598 H 0.8871 0.17407 0.35743 0.0
H599 H 0.84273 0.17799 0.43221 0.0
H600 H 0.93025 0.17377 0.50812 0.0
H601 H 0.91759 0.22146 0.45175 0.0
H602 H 0.85091 0.06974 0.42724 0.0
H603 H 0.82163 0.11853 0.38032 0.0
H604 H 0.96741 0.18333 0.39668 0.0
H605 H 0.96978 0.12834 0.44548 0.0
H606 H 0.98983 0.20462 0.4259 0.0
H607 H 0.99236 0.1505 0.47374 0.0
H608 H 0.91643 0.07072 0.37127 0.0
H609 H 0.89933 0.13339 0.34089 0.0
H610 H 0.8885 0.05335 0.34479 0.0
H611 H 0.87185 0.11489 0.31476 0.0
H612 H 0.94423 0.03852 0.43364 0.0
H613 H 0.00676 0.07196 0.43231 0.0
H614 H 0.94108 0.21688 0.33979 0.0
H615 H 0.94941 0.16201 0.29107 0.0
Li616 Li 0.35095 0.92839 0.422 0.0
Li617 Li 0.37394 0.90385 0.40011 0.0
Li618 Li 0.38595 0.94138 0.40654 0.0
Li619 Li 0.3542 0.93191 0.37791 0.0
C620 C 0.38309 0.91467 0.45458 0.0
N621 N 0.38887 0.90605 0.50339 0.0
C622 C 0.37577 0.8949 0.46445 0.0
C623 C 0.39356 0.92997 0.46949 0.0
C624 C 0.37878 0.89088 0.48918 0.0
C625 C 0.39627 0.92533 0.49413 0.0
C626 C 0.33156 0.8882 0.39505 0.0
C627 C 0.31316 0.86058 0.37132 0.0
N628 N 0.31022 0.84843 0.39176 0.0
C629 C 0.32814 0.87557 0.41585 0.0
C630 C 0.32385 0.88078 0.37262 0.0
C631 C 0.31741 0.85545 0.41379 0.0
C632 C 0.30894 0.92501 0.44015 0.0
N633 N 0.32959 0.93028 0.44723 0.0
C634 C 0.31751 0.93577 0.48808 0.0
C635 C 0.33406 0.93605 0.47058 0.0
C636 C 0.29626 0.92943 0.48139 0.0
C637 C 0.29198 0.92436 0.457 0.0
H638 H 0.30568 0.92104 0.42138 0.0
H639 H 0.35042 0.94083 0.47572 0.0
C640 C 0.40339 0.87314 0.41603 0.0
N641 N 0.38577 0.87488 0.40107 0.0
C642 C 0.41126 0.85265 0.42274 0.0
C643 C 0.38434 0.83599 0.39638 0.0
C644 C 0.37682 0.85692 0.39031 0.0
C645 C 0.40114 0.83379 0.41361 0.0
H646 H 0.41061 0.8877 0.42379 0.0
H647 H 0.36329 0.85869 0.37787 0.0
C648 C 0.3448 0.97013 0.41693 0.0
N649 N 0.32006 0.9976 0.44583 0.0
C650 C 0.32396 0.97672 0.40943 0.0
C651 C 0.35311 0.9776 0.43908 0.0
C652 C 0.31169 0.99059 0.42431 0.0
C653 C 0.34035 0.99147 0.45344 0.0
C654 C 0.39564 0.90872 0.36069 0.0
C655 C 0.41809 0.90453 0.36247 0.0
C656 C 0.38276 0.89624 0.34493 0.0
C657 C 0.42726 0.88778 0.34852 0.0
C658 C 0.39255 0.87964 0.33127 0.0
N659 N 0.41441 0.87578 0.33336 0.0
C660 C 0.42869 0.94494 0.41943 0.0
C661 C 0.41051 0.97926 0.42056 0.0
C662 C 0.44647 0.95351 0.432 0.0
N663 N 0.41098 0.95766 0.41466 0.0
C664 C 0.42792 0.9885 0.43349 0.0
C665 C 0.44578 0.97526 0.44022 0.0
H666 H 0.42825 0.92768 0.41512 0.0
H667 H 0.39603 0.98887 0.41682 0.0
C668 C 0.31557 0.93909 0.35417 0.0
N669 N 0.33751 0.93873 0.35019 0.0
C670 C 0.30115 0.94293 0.33508 0.0
C671 C 0.33219 0.94566 0.30794 0.0
C672 C 0.3461 0.94202 0.32773 0.0
C673 C 0.3094 0.94612 0.31159 0.0
H674 H 0.30929 0.93598 0.37219 0.0
H675 H 0.36365 0.94144 0.32513 0.0
O676 O 0.38056 0.91881 0.43034 0.0
O677 O 0.34199 0.90795 0.39667 0.0
O678 O 0.35688 0.95615 0.4029 0.0
O679 O 0.38616 0.92456 0.37473 0.0
H680 H 0.368 0.88272 0.45311 0.0
H681 H 0.39936 0.94535 0.46219 0.0
H682 H 0.37316 0.87565 0.49707 0.0
H683 H 0.40424 0.93706 0.5059 0.0
H684 H 0.30722 0.85457 0.35407 0.0
H685 H 0.33365 0.88127 0.4334 0.0
H686 H 0.3262 0.89046 0.35637 0.0
H687 H 0.31474 0.84545 0.42973 0.0
H688 H 0.32138 0.93991 0.50671 0.0
H689 H 0.27568 0.91987 0.45103 0.0
H690 H 0.42448 0.85153 0.43582 0.0
H691 H 0.37624 0.82172 0.38891 0.0
H692 H 0.3173 0.97119 0.39232 0.0
H693 H 0.36906 0.97236 0.44538 0.0
H694 H 0.2955 0.99576 0.41876 0.0
H695 H 0.34651 0.99723 0.4707 0.0
H696 H 0.42831 0.91406 0.37452 0.0
H697 H 0.36533 0.89914 0.3435 0.0
H698 H 0.4446 0.8843 0.34977 0.0
H699 H 0.38276 0.86977 0.31911 0.0
H700 H 0.46008 0.94286 0.43644 0.0
H701 H 0.4267 0.00531 0.43957 0.0
H702 H 0.28368 0.94274 0.33853 0.0
H703 H 0.3391 0.94802 0.29003 0.0
Li704 Li 0.4338 0.87671 0.90455 0.0
Li705 Li 0.39796 0.86349 0.9004 0.0
Li706 Li 0.42618 0.84114 0.92 0.0
Li707 Li 0.42801 0.84871 0.8755 0.0
C708 C 0.42106 0.87544 0.95267 0.0
N709 N 0.43666 0.88945 0.99709 0.0
C710 C 0.40747 0.88722 0.96832 0.0
C711 C 0.4426 0.87078 0.95959 0.0
C712 C 0.41565 0.89415 0.99072 0.0
C713 C 0.45018 0.87802 0.98213 0.0
C714 C 0.42372 0.89703 0.86511 0.0
C715 C 0.4536 0.91601 0.8457 0.0
N716 N 0.44209 0.93504 0.84703 0.0
C717 C 0.41215 0.91676 0.86624 0.0
C718 C 0.44458 0.89662 0.85472 0.0
C719 C 0.42173 0.9358 0.85701 0.0
C720 C 0.47063 0.90322 0.91641 0.0
N721 N 0.44856 0.9027 0.91337 0.0
C722 C 0.44462 0.93777 0.93187 0.0
C723 C 0.43556 0.91957 0.92047 0.0
C724 C 0.46722 0.93836 0.93637 0.0
C725 C 0.4804 0.92107 0.92801 0.0
H726 H 0.48044 0.8893 0.91105 0.0
H727 H 0.41798 0.91828 0.91852 0.0
C728 C 0.35758 0.86174 0.92277 0.0
N729 N 0.36802 0.87078 0.90346 0.0
C730 C 0.33605 0.86749 0.92799 0.0
C731 C 0.33639 0.89194 0.89341 0.0
C732 C 0.35787 0.88533 0.88853 0.0
C733 C 0.32538 0.88307 0.91348 0.0
H734 H 0.36623 0.85041 0.93444 0.0
H735 H 0.36658 0.89214 0.87324 0.0
C736 C 0.46591 0.83271 0.89708 0.0
N737 N 0.4934 0.79729 0.89008 0.0
C738 C 0.45731 0.81237 0.89021 0.0
C739 C 0.48849 0.83497 0.90037 0.0
C740 C 0.47149 0.7947 0.88674 0.0
C741 C 0.50211 0.81688 0.89678 0.0
C742 C 0.38541 0.82205 0.89312 0.0
C743 C 0.37986 0.8055 0.90952 0.0
C744 C 0.37026 0.82851 0.87547 0.0
C745 C 0.3591 0.79595 0.90828 0.0
C746 C 0.34965 0.81859 0.87484 0.0
N747 N 0.34453 0.80267 0.89114 0.0
C748 C 0.41209 0.82042 0.96178 0.0
C749 C 0.44783 0.80895 0.95086 0.0
C750 C 0.41202 0.80621 0.98159 0.0
N751 N 0.42963 0.82124 0.9466 0.0
C752 C 0.44832 0.79423 0.97025 0.0
C753 C 0.43014 0.79262 0.9857 0.0
H754 H 0.39795 0.83059 0.95818 0.0
H755 H 0.46198 0.81036 0.93931 0.0
C756 C 0.45631 0.83581 0.83659 0.0
N757 N 0.43541 0.83575 0.84516 0.0
C758 C 0.46179 0.82341 0.81615 0.0
C759 C 0.42395 0.81206 0.81317 0.0
C760 C 0.41927 0.8245 0.83368 0.0
C761 C 0.44551 0.81108 0.80441 0.0
H762 H 0.46892 0.84477 0.84616 0.0
H763 H 0.40291 0.82452 0.84094 0.0
O764 O 0.4134 0.86905 0.93043 0.0
O765 O 0.41485 0.87825 0.87442 0.0
O766 O 0.45257 0.85054 0.90007 0.0
O767 O 0.40561 0.83177 0.8943 0.0
H768 H 0.39079 0.89104 0.96313 0.0
H769 H 0.45343 0.86185 0.94762 0.0
H770 H 0.40532 0.9033 0.00302 0.0
H771 H 0.46683 0.8746 0.98768 0.0
H772 H 0.46979 0.91594 0.83772 0.0
H773 H 0.39609 0.91747 0.87447 0.0
H774 H 0.45384 0.88156 0.85394 0.0
H775 H 0.41302 0.95121 0.85788 0.0
H776 H 0.43388 0.95057 0.93845 0.0
H777 H 0.49791 0.921 0.93119 0.0
H778 H 0.32815 0.86059 0.94384 0.0
H779 H 0.3286 0.90405 0.88192 0.0
H780 H 0.43994 0.81014 0.88757 0.0
H781 H 0.49544 0.85058 0.9056 0.0
H782 H 0.46506 0.77891 0.8814 0.0
H783 H 0.51962 0.81842 0.89927 0.0
H784 H 0.39151 0.79994 0.92295 0.0
H785 H 0.37419 0.84141 0.86272 0.0
H786 H 0.35458 0.78317 0.92091 0.0
H787 H 0.33769 0.82362 0.86146 0.0
H788 H 0.39764 0.8053 0.99305 0.0
H789 H 0.46268 0.78414 0.97309 0.0
H790 H 0.47859 0.82314 0.80988 0.0
H791 H 0.41097 0.80253 0.80492 0.0
Li792 Li 0.62516 0.41048 0.91113 0.0
Li793 Li 0.61569 0.44787 0.91175 0.0
Li794 Li 0.64751 0.4349 0.88651 0.0
Li795 Li 0.64884 0.43632 0.93208 0.0
C796 C 0.60554 0.41313 0.86815 0.0
N797 N 0.58503 0.3827 0.83876 0.0
C798 C 0.58502 0.40475 0.87457 0.0
C799 C 0.6156 0.40603 0.84677 0.0
C800 C 0.57494 0.38937 0.85948 0.0
C801 C 0.60497 0.39064 0.83216 0.0
C802 C 0.602 0.43463 0.95466 0.0
C803 C 0.58806 0.45661 0.9876 0.0
N804 N 0.56778 0.44799 0.98396 0.0
C805 C 0.581 0.42605 0.95122 0.0
C806 C 0.60559 0.45001 0.97303 0.0
C807 C 0.56394 0.43294 0.96627 0.0
C808 C 0.60747 0.37604 0.9374 0.0
N809 N 0.61443 0.38104 0.91466 0.0
C810 C 0.60693 0.34446 0.90134 0.0
C811 C 0.61463 0.36564 0.89676 0.0
C812 C 0.5991 0.33916 0.92457 0.0
C813 C 0.59957 0.35525 0.94273 0.0
H814 H 0.60844 0.38809 0.95167 0.0
H815 H 0.62097 0.36966 0.87903 0.0
C816 C 0.57199 0.46062 0.90471 0.0
N817 N 0.59141 0.46727 0.91422 0.0
C818 C 0.55243 0.46961 0.91316 0.0
C819 C 0.57346 0.49398 0.93871 0.0
C820 C 0.5926 0.48446 0.92981 0.0
C821 C 0.55307 0.48562 0.93141 0.0
H822 H 0.57153 0.4471 0.89216 0.0
H823 H 0.60822 0.48933 0.93719 0.0
C824 C 0.6636 0.39128 0.9117 0.0
N825 N 0.67392 0.3474 0.916 0.0
C826 C 0.66553 0.38171 0.93464 0.0
C827 C 0.66699 0.37857 0.89093 0.0
C828 C 0.67072 0.35948 0.93643 0.0
C829 C 0.6722 0.35641 0.8935 0.0
C830 C 0.65983 0.47674 0.91602 0.0
C831 C 0.67761 0.48247 0.90135 0.0
C832 C 0.65714 0.48691 0.93856 0.0
C833 C 0.69249 0.4982 0.90956 0.0
C834 C 0.6724 0.50253 0.94613 0.0
N835 N 0.68961 0.50781 0.9316 0.0
C836 C 0.65936 0.45085 0.83954 0.0
C837 C 0.68536 0.42856 0.8599 0.0
C838 C 0.67353 0.45326 0.81977 0.0
N839 N 0.66548 0.43849 0.85892 0.0
C840 C 0.69986 0.43031 0.84052 0.0
C841 C 0.69397 0.4427 0.82011 0.0
H842 H 0.64351 0.45876 0.83946 0.0
H843 H 0.69002 0.41935 0.87583 0.0
C844 C 0.66264 0.43105 0.98066 0.0
N845 N 0.66867 0.43887 0.95854 0.0
C846 C 0.67788 0.42991 -0.00047 0.0
C847 C 0.70505 0.44548 0.97267 0.0
C848 C 0.68943 0.4459 0.95421 0.0
C849 C 0.69942 0.43704 0.99551 0.0
H850 H 0.64627 0.42475 0.98334 0.0
H851 H 0.6941 0.45106 0.93619 0.0
O852 O 0.61559 0.42846 0.88246 0.0
O853 O 0.61895 0.42797 0.94015 0.0
O854 O 0.65791 0.41285 0.90958 0.0
O855 O 0.64512 0.46136 0.90826 0.0
H856 H 0.57714 0.40968 0.89126 0.0
H857 H 0.63148 0.41227 0.84151 0.0
H858 H 0.55914 0.38264 0.86431 0.0
H859 H 0.61259 0.38499 0.81558 0.0
H860 H 0.59057 0.46861 0.00177 0.0
H861 H 0.57787 0.41424 0.93699 0.0
H862 H 0.62167 0.45697 0.97586 0.0
H863 H 0.54765 0.42635 0.96385 0.0
H864 H 0.60711 0.3324 0.88694 0.0
H865 H 0.59443 0.35163 0.96111 0.0
H866 H 0.537 0.46297 0.90684 0.0
H867 H 0.57465 0.50622 0.95289 0.0
H868 H 0.66277 0.39126 0.95088 0.0
H869 H 0.66524 0.38565 0.87303 0.0
H870 H 0.67213 0.35182 0.95407 0.0
H871 H 0.67474 0.34635 0.87759 0.0
H872 H 0.67993 0.47487 0.88382 0.0
H873 H 0.64371 0.48245 0.95032 0.0
H874 H 0.70635 0.50276 0.89842 0.0
H875 H 0.67061 0.51039 0.96361 0.0
H876 H 0.66847 0.46294 0.80428 0.0
H877 H 0.71564 0.42225 0.84159 0.0
H878 H 0.67309 0.42301 0.01684 0.0
H879 H 0.72167 0.45059 0.96875 0.0
Li880 Li 0.06221 0.6477 0.88434 0.0
Li881 Li 0.06059 0.64735 0.92996 0.0
Li882 Li 0.08698 0.62502 0.90812 0.0
Li883 Li 0.04983 0.61473 0.90798 0.0
C884 C 0.10535 0.66396 0.90925 0.0
N885 N 0.14905 0.67539 0.91179 0.0
C886 C 0.11582 0.66534 0.93176 0.0
C887 C 0.11704 0.66849 0.88804 0.0
C888 C 0.13795 0.6711 0.93265 0.0
C889 C 0.13914 0.67425 0.88971 0.0
C890 C 0.01983 0.65793 0.91398 0.0
C891 C 0.99352 0.66877 0.94435 0.0
N892 N 0.98764 0.68612 0.93031 0.0
C893 C 0.01346 0.67583 0.89982 0.0
C894 C 0.00971 0.6543 0.93639 0.0
C895 C 0.99718 0.68991 0.90841 0.0
C896 C 0.04805 0.66047 0.83693 0.0
N897 N 0.05826 0.66669 0.85775 0.0
C898 C 0.0635 0.70288 0.84257 0.0
C899 C 0.06568 0.68745 0.86099 0.0
C900 C 0.05343 0.69693 0.82065 0.0
C901 C 0.04544 0.67547 0.81797 0.0
H902 H 0.0421 0.64387 0.83504 0.0
H903 H 0.07326 0.69203 0.87799 0.0
C904 C 0.06696 0.65954 0.97867 0.0
N905 N 0.05784 0.66607 0.95734 0.0
C906 C 0.06825 0.67403 -0.00177 0.0
C907 C 0.05009 0.70143 0.97373 0.0
C908 C 0.0496 0.68659 0.9545 0.0
C909 C 0.05989 0.6953 0.99573 0.0
H910 H 0.07416 0.64341 0.98014 0.0
H911 H 0.04342 0.69176 0.93704 0.0
C912 C 0.0852 0.60673 0.86462 0.0
N913 N 0.11659 0.58755 0.83539 0.0
C914 C 0.09379 0.58618 0.87058 0.0
C915 C 0.0926 0.61751 0.8438 0.0
C916 C 0.10965 0.57677 0.85558 0.0
C917 C 0.10846 0.60754 0.82925 0.0
C918 C 0.06291 0.60005 0.95068 0.0
C919 C 0.07165 0.5792 0.94669 0.0
C920 C 0.04752 0.60312 0.96915 0.0
C921 C 0.0649 0.56177 0.9613 0.0
C922 C 0.04104 0.58522 0.98324 0.0
N923 N 0.04981 0.5651 0.97907 0.0
C924 C 0.12146 0.60717 0.9341 0.0
C925 C 0.13232 0.6162 0.89407 0.0
C926 C 0.1424 0.59976 0.93955 0.0
N927 N 0.11664 0.61487 0.9116 0.0
C928 C 0.15367 0.60904 0.8988 0.0
C929 C 0.15883 0.60054 0.92179 0.0
H930 H 0.10915 0.60722 0.94813 0.0
H931 H 0.12841 0.62309 0.87655 0.0
C932 C 0.03779 0.57112 0.89889 0.0
N933 N 0.03087 0.59009 0.90923 0.0
C934 C 0.02911 0.55116 0.90653 0.0
C935 C 0.00446 0.57091 0.93296 0.0
C936 C 0.01367 0.59048 0.92485 0.0
C937 C 0.01315 0.55092 0.92485 0.0
H938 H 0.05131 0.57131 0.88632 0.0
H939 H 0.00857 0.60575 0.93288 0.0
O940 O 0.08388 0.65772 0.90797 0.0
O941 O 0.03575 0.64398 0.90583 0.0
O942 O 0.06941 0.61611 0.87885 0.0
O943 O 0.06947 0.61737 0.93666 0.0
H944 H 0.10702 0.66172 0.94832 0.0
H945 H 0.10923 0.66724 0.87046 0.0
H946 H 0.14632 0.67209 0.94993 0.0
H947 H 0.14844 0.67768 0.87344 0.0
H948 H 0.98569 0.66625 0.96174 0.0
H949 H 0.02097 0.67883 0.88237 0.0
H950 H 0.01463 0.64076 0.94777 0.0
H951 H 0.99213 0.70384 0.89765 0.0
H952 H 0.06952 0.71936 0.84551 0.0
H953 H 0.03765 0.67026 0.80127 0.0
H954 H 0.07621 0.66892 0.01486 0.0
H955 H 0.044 0.71791 0.971 0.0
H956 H 0.08863 0.57776 0.88686 0.0
H957 H 0.08626 0.63344 0.83895 0.0
H958 H 0.11653 0.56096 0.86006 0.0
H959 H 0.11435 0.61572 0.8131 0.0
H960 H 0.08351 0.57649 0.93242 0.0
H961 H 0.04051 0.6191 0.97246 0.0
H962 H 0.07165 0.5456 0.95849 0.0
H963 H 0.02904 0.58733 0.99748 0.0
H964 H 0.14586 0.59408 0.95778 0.0
H965 H 0.16598 0.61018 0.88472 0.0
H966 H 0.036 0.53606 0.8996 0.0
H967 H 0.99226 0.57145 0.94722 0.0
Li968 Li 0.86639 0.09358 0.90089 0.0
Li969 Li 0.88255 0.05883 0.90937 0.0
Li970 Li 0.84902 0.06097 0.88263 0.0
Li971 Li 0.84763 0.06651 0.92749 0.0
C972 C 0.8853 0.08646 0.85835 0.0
N973 N 0.89744 0.11503 0.82189 0.0
C974 C 0.90745 0.09035 0.85366 0.0
C975 C 0.86932 0.09699 0.84443 0.0
C976 C 0.91326 0.10489 0.83517 0.0
C977 C 0.87579 0.1114 0.8261 0.0
C978 C 0.89042 0.08083 0.95124 0.0
C979 C 0.90545 0.06182 0.9859 0.0
N980 N 0.92181 0.07687 0.98726 0.0
C981 C 0.90721 0.09631 0.95327 0.0
C982 C 0.88938 0.06365 0.96796 0.0
C983 C 0.92298 0.09395 0.97149 0.0
C984 C 0.85844 0.14011 0.89587 0.0
N985 N 0.87367 0.12389 0.89684 0.0
C986 C 0.90238 0.15016 0.90164 0.0
C987 C 0.89539 0.12861 0.89834 0.0
C988 C 0.8868 0.167 0.9032 0.0
C989 C 0.86468 0.1619 0.89899 0.0
H990 H 0.84134 0.13626 0.89401 0.0
H991 H 0.90721 0.11543 0.89871 0.0
C992 C 0.91014 0.02513 0.92595 0.0
N993 N 0.90972 0.04555 0.91621 0.0
C994 C 0.92878 0.01783 0.93815 0.0
C995 C 0.94662 0.0521 0.92835 0.0
C996 C 0.92769 0.05866 0.91621 0.0
C997 C 0.94693 0.03183 0.94036 0.0
H998 H 0.89552 0.01517 0.92582 0.0
H999 H 0.92666 0.07498 0.90866 0.0
C1000 C 0.81897 0.09981 0.90115 0.0
N1001 N 0.78618 0.131 0.90143 0.0
C1002 C 0.8131 0.11017 0.92281 0.0
C1003 C 0.80824 0.10542 0.87959 0.0
C1004 C 0.79645 0.12586 0.92259 0.0
C1005 C 0.79169 0.12121 0.88012 0.0
C1006 C 0.84475 0.02217 0.91898 0.0
C1007 C 0.82789 0.01218 0.90584 0.0
C1008 C 0.85006 0.01417 0.94203 0.0
C1009 C 0.81616 0.99494 0.91627 0.0
C1010 C 0.83795 0.99691 0.95186 0.0
N1011 N 0.82135 0.98775 0.93891 0.0
C1012 C 0.83996 0.04571 0.83422 0.0
C1013 C 0.80989 0.05129 0.86073 0.0
C1014 C 0.82571 0.04036 0.81522 0.0
N1015 N 0.83177 0.0512 0.85633 0.0
C1016 C 0.79514 0.0461 0.84239 0.0
C1017 C 0.80294 0.04074 0.81917 0.0
H1018 H 0.85747 0.04594 0.83124 0.0
H1019 H 0.8039 0.0558 0.87852 0.0
C1020 C 0.83333 0.0751 0.97522 0.0
N1021 N 0.82864 0.06378 0.95461 0.0
C1022 C 0.81838 0.07557 0.99435 0.0
C1023 C 0.79435 0.05217 0.97099 0.0
C1024 C 0.8096 0.05244 0.95216 0.0
C1025 C 0.79852 0.06419 0.9922 0.0
H1026 H 0.84821 0.08461 0.97639 0.0
H1027 H 0.80589 0.04429 0.93525 0.0
O1028 O 0.87926 0.07263 0.87667 0.0
O1029 O 0.87512 0.08245 0.93306 0.0
O1030 O 0.83514 0.08432 0.90099 0.0
O1031 O 0.85632 0.03922 0.90902 0.0
H1032 H 0.92002 0.0823 0.86427 0.0
H1033 H 0.85211 0.09422 0.84792 0.0
H1034 H 0.93034 0.10812 0.83138 0.0
H1035 H 0.8636 0.11975 0.81525 0.0
H1036 H 0.90488 0.04846 -0.00122 0.0
H1037 H 0.90818 0.11 0.94098 0.0
H1038 H 0.87624 0.05192 0.96716 0.0
H1039 H 0.93615 0.10572 0.97308 0.0
H1040 H 0.9196 0.15329 0.90484 0.0
H1041 H 0.85219 0.17449 0.89949 0.0
H1042 H 0.92835 0.00215 0.94732 0.0
H1043 H 0.96037 0.06325 0.92952 0.0
H1044 H 0.82146 0.10636 0.93957 0.0
H1045 H 0.81275 0.09781 0.86259 0.0
H1046 H 0.79175 0.13401 0.93922 0.0
H1047 H 0.78327 0.12571 0.86358 0.0
H1048 H 0.82398 0.01747 0.88769 0.0
H1049 H 0.86343 0.02106 0.95224 0.0
H1050 H 0.803 0.98719 0.90631 0.0
H1051 H 0.84181 0.99073 0.96976 0.0
H1052 H 0.8324 0.03625 0.7976 0.0
H1053 H 0.77776 0.04708 0.84618 0.0
H1054 H 0.82201 0.08519 0.01037 0.0
H1055 H 0.77896 0.04362 0.9685 0.0
Li1056 Li 0.43068 0.64758 0.61575 0.0
Li1057 Li 0.42454 0.64687 0.57213 0.0
Li1058 Li 0.40008 0.62758 0.59852 0.0
Li1059 Li 0.43642 0.61291 0.59073 0.0
C1060 C 0.38878 0.67148 0.58823 0.0
N1061 N 0.35489 0.69582 0.56882 0.0
C1062 C 0.37769 0.66408 0.56761 0.0
C1063 C 0.38269 0.69131 0.59893 0.0
C1064 C 0.36059 0.6766 0.55808 0.0
C1065 C 0.36549 0.70337 0.58886 0.0
C1066 C 0.46791 0.65258 0.57661 0.0
C1067 C 0.48907 0.65744 0.54003 0.0
N1068 N 0.49818 0.67583 0.54963 0.0
C1069 C 0.47767 0.67139 0.58621 0.0
C1070 C 0.47383 0.64541 0.55343 0.0
C1071 C 0.49286 0.68296 0.57226 0.0
C1072 C 0.44645 0.65775 0.66326 0.0
N1073 N 0.44025 0.66565 0.64125 0.0
C1074 C 0.4457 0.70246 0.65435 0.0
C1075 C 0.43981 0.68745 0.63649 0.0
C1076 C 0.45188 0.69492 0.67742 0.0
C1077 C 0.45233 0.67223 0.68181 0.0
H1078 H 0.44649 0.64027 0.66649 0.0
H1079 H 0.43466 0.69316 0.61879 0.0
C1080 C 0.41961 0.65973 0.5218 0.0
N1081 N 0.42631 0.66568 0.54443 0.0
C1082 C 0.41956 0.67499 0.50294 0.0
C1083 C 0.43392 0.70202 0.53076 0.0
C1084 C 0.43332 0.68638 0.54916 0.0
C1085 C 0.42668 0.69644 0.50741 0.0
H1086 H 0.41368 0.64343 0.5184 0.0
H1087 H 0.43794 0.69086 0.56744 0.0
C1088 C 0.40717 0.60804 0.63922 0.0
N1089 N 0.37611 0.59098 0.67034 0.0
C1090 C 0.40283 0.58557 0.63924 0.0
C1091 C 0.39583 0.62183 0.65507 0.0
C1092 C 0.38703 0.57726 0.65511 0.0
C1093 C 0.38016 0.61288 0.67065 0.0
C1094 C 0.40936 0.60796 0.54571 0.0
C1095 C 0.38825 0.60578 0.53614 0.0
C1096 C 0.42728 0.60032 0.53236 0.0
C1097 C 0.38544 0.59604 0.51341 0.0
C1098 C 0.42379 0.59063 0.50973 0.0
N1099 N 0.40312 0.58872 0.50079 0.0
C1100 C 0.35437 0.63208 0.6097 0.0
C1101 C 0.36606 0.59785 0.59408 0.0
C1102 C 0.33245 0.62607 0.60678 0.0
N1103 N 0.37055 0.61834 0.60228 0.0
C1104 C 0.34443 0.59112 0.591 0.0
C1105 C 0.32731 0.60568 0.59639 0.0
H1106 H 0.35841 0.64816 0.61656 0.0
H1107 H 0.37931 0.58729 0.5884 0.0
C1108 C 0.47433 0.5891 0.57975 0.0
N1109 N 0.45259 0.58743 0.58458 0.0
C1110 C 0.48507 0.57216 0.56767 0.0
C1111 C 0.45118 0.55159 0.56756 0.0
C1112 C 0.44111 0.56891 0.57967 0.0
C1113 C 0.47318 0.55356 0.56046 0.0
H1114 H 0.48289 0.60421 0.58357 0.0
H1115 H 0.42368 0.56842 0.58314 0.0
O1116 O 0.40568 0.65959 0.59785 0.0
O1117 O 0.45276 0.64121 0.5899 0.0
O1118 O 0.42209 0.6166 0.62336 0.0
O1119 O 0.41235 0.61728 0.5681 0.0
H1120 H 0.38224 0.64886 0.55905 0.0
H1121 H 0.39115 0.69729 0.61488 0.0
H1122 H 0.35186 0.67103 0.54215 0.0
H1123 H 0.36058 0.71873 0.59697 0.0
H1124 H 0.49365 0.65217 0.52199 0.0
H1125 H 0.47357 0.67701 0.60423 0.0
H1126 H 0.46659 0.63085 0.54576 0.0
H1127 H 0.50045 0.69761 0.57942 0.0
H1128 H 0.44473 0.7198 0.65037 0.0
H1129 H 0.45701 0.66582 0.69939 0.0
H1130 H 0.41371 0.67021 0.48515 0.0
H1131 H 0.43909 0.71856 0.53498 0.0
H1132 H 0.41144 0.57471 0.62702 0.0
H1133 H 0.39892 0.63929 0.6551 0.0
H1134 H 0.38341 0.55992 0.65527 0.0
H1135 H 0.37116 0.62337 0.68293 0.0
H1136 H 0.37414 0.61163 0.54605 0.0
H1137 H 0.44372 0.60175 0.53935 0.0
H1138 H 0.3692 0.59431 0.5058 0.0
H1139 H 0.43753 0.58461 0.49928 0.0
H1140 H 0.31968 0.63765 0.61144 0.0
H1141 H 0.34125 0.57535 0.58273 0.0
H1142 H 0.50213 0.57415 0.56274 0.0
H1143 H 0.44137 0.53767 0.56207 0.0
Li1144 Li 0.87215 0.40623 0.59273 0.0
Li1145 Li 0.87986 0.44402 0.59084 0.0
Li1146 Li 0.84963 0.43014 0.61776 0.0
Li1147 Li 0.84654 0.43052 0.57222 0.0
C1148 C 0.89256 0.4106 0.63534 0.0
N1149 N 0.91417 0.38177 0.66574 0.0
C1150 C 0.91344 0.40293 0.62927 0.0
C1151 C 0.88269 0.4036 0.65688 0.0
C1152 C 0.92408 0.38836 0.64488 0.0
C1153 C 0.89388 0.38902 0.672 0.0
C1154 C 0.89257 0.43063 0.54771 0.0
C1155 C 0.90458 0.45372 0.51477 0.0
N1156 N 0.92522 0.44564 0.51721 0.0
C1157 C 0.91389 0.42246 0.5498 0.0
C1158 C 0.88783 0.44629 0.52997 0.0
C1159 C 0.93016 0.43028 0.53423 0.0
C1160 C 0.88851 0.37223 0.56533 0.0
N1161 N 0.88394 0.37723 0.5888 0.0
C1162 C 0.89443 0.34114 0.60132 0.0
C1163 C 0.88638 0.36205 0.60673 0.0
C1164 C 0.89978 0.33587 0.57723 0.0
C1165 C 0.89656 0.35171 0.55914 0.0
H1166 H 0.88544 0.38404 0.55117 0.0
H1167 H 0.88176 0.36595 0.62513 0.0
C1168 C 0.89853 0.48347 0.57395 0.0
N1169 N 0.90276 0.46478 0.58645 0.0
C1170 C 0.91562 0.49506 0.56315 0.0
C1171 C 0.9412 0.46922 0.5805 0.0
C1172 C 0.92361 0.45824 0.5911 0.0
C1173 C 0.93716 0.48717 0.56519 0.0
H1174 H 0.88184 0.48841 0.57069 0.0
H1175 H 0.9265 0.4433 0.60101 0.0
C1176 C 0.83481 0.38525 0.59492 0.0
N1177 N 0.82694 0.34073 0.5932 0.0
C1178 C 0.83157 0.37485 0.57261 0.0
C1179 C 0.83397 0.37304 0.61637 0.0
C1180 C 0.82765 0.35231 0.57212 0.0
C1181 C 0.82996 0.35055 0.61511 0.0
C1182 C 0.83454 0.47097 0.58785 0.0
C1183 C 0.81714 0.47642 0.6032 0.0
C1184 C 0.8361 0.48088 0.56503 0.0
C1185 C 0.80154 0.49161 0.5954 0.0
C1186 C 0.82015 0.49596 0.55789 0.0
N1187 N 0.80335 0.50097 0.57309 0.0
C1188 C 0.83772 0.44835 0.66366 0.0
C1189 C 0.8129 0.42308 0.64602 0.0
C1190 C 0.82326 0.45214 0.68289 0.0
N1191 N 0.83222 0.43406 0.64575 0.0
C1192 C 0.79811 0.42619 0.6649 0.0
C1193 C 0.80303 0.44111 0.68353 0.0
H1194 H 0.85309 0.45713 0.66269 0.0
H1195 H 0.80876 0.41216 0.63128 0.0
C1196 C 0.83161 0.42333 0.5245 0.0
N1197 N 0.82591 0.43177 0.54642 0.0
C1198 C 0.81609 0.42159 0.50597 0.0
C1199 C 0.78935 0.43803 0.53268 0.0
C1200 C 0.80521 0.43887 0.55085 0.0
C1201 C 0.79449 0.4288 0.50998 0.0
H1202 H 0.848 0.41711 0.52173 0.0
H1203 H 0.80084 0.44477 0.56868 0.0
O1204 O 0.88199 0.4252 0.62057 0.0
O1205 O 0.87649 0.42345 0.5631 0.0
O1206 O 0.83935 0.40716 0.59571 0.0
O1207 O 0.84997 0.45611 0.59521 0.0
H1208 H 0.92117 0.40776 0.61247 0.0
H1209 H 0.86657 0.4093 0.66189 0.0
H1210 H 0.94017 0.38219 0.64033 0.0
H1211 H 0.88643 0.38346 0.68871 0.0
H1212 H 0.90118 0.46596 0.50109 0.0
H1213 H 0.9179 0.41046 0.56356 0.0
H1214 H 0.87144 0.45276 0.52805 0.0
H1215 H 0.94676 0.42425 0.53578 0.0
H1216 H 0.89637 0.32927 0.61576 0.0
H1217 H 0.89964 0.3481 0.5402 0.0
H1218 H 0.91185 0.50916 0.55198 0.0
H1219 H 0.9575 0.46247 0.58252 0.0
H1220 H 0.83234 0.38404 0.55585 0.0
H1221 H 0.83674 0.3808 0.63376 0.0
H1222 H 0.82525 0.34402 0.55498 0.0
H1223 H 0.8294 0.34087 0.63154 0.0
H1224 H 0.81565 0.46903 0.62094 0.0
H1225 H 0.84922 0.47665 0.55275 0.0
H1226 H 0.78798 0.49594 0.60708 0.0
H1227 H 0.82109 0.50362 0.54021 0.0
H1228 H 0.82763 0.46393 0.69674 0.0
H1229 H 0.78293 0.41701 0.66483 0.0
H1230 H 0.82081 0.41388 0.48908 0.0
H1231 H 0.77311 0.44416 0.53663 0.0
Li1232 Li 0.09223 0.87246 0.59226 0.0
Li1233 Li 0.05363 0.87788 0.58773 0.0
Li1234 Li 0.06887 0.85123 0.61838 0.0
Li1235 Li 0.07062 0.84423 0.57451 0.0
C1236 C 0.08263 0.89528 0.63514 0.0
N1237 N 0.10449 0.91811 0.67109 0.0
C1238 C 0.0825 0.91818 0.63522 0.0
C1239 C 0.09374 0.88402 0.65349 0.0
C1240 C 0.0937 0.92942 0.65349 0.0
C1241 C 0.10472 0.89585 0.67147 0.0
C1242 C 0.07806 0.89293 0.54943 0.0
C1243 C 0.08041 0.91327 0.51197 0.0
N1244 N 0.08334 0.93205 0.52484 0.0
C1245 C 0.0811 0.91245 0.56226 0.0
C1246 C 0.07772 0.89333 0.52407 0.0
C1247 C 0.08371 0.93204 0.54952 0.0
C1248 C 0.12801 0.88342 0.56473 0.0
N1249 N 0.12039 0.88614 0.58771 0.0
C1250 C 0.1525 0.90653 0.59839 0.0
C1251 C 0.1323 0.89723 0.60463 0.0
C1252 C 0.16018 0.90453 0.5745 0.0
C1253 C 0.14778 0.89266 0.55766 0.0
H1254 H 0.11872 0.87391 0.55179 0.0
H1255 H 0.12638 0.89882 0.62294 0.0
C1256 C 0.02995 0.91816 0.58889 0.0
N1257 N 0.03253 0.89843 0.57783 0.0
C1258 C 0.02108 0.93574 0.57591 0.0
C1259 C 0.01645 0.91172 0.54134 0.0
C1260 C 0.02519 0.89468 0.55494 0.0
C1261 C 0.01527 0.93269 0.5515 0.0
H1262 H 0.03656 0.92076 0.60686 0.0
H1263 H 0.02839 0.8791 0.54634 0.0
C1264 C 0.11574 0.83704 0.59677 0.0
N1265 N 0.16049 0.8318 0.59184 0.0
C1266 C 0.12461 0.83025 0.57462 0.0
C1267 C 0.12964 0.84105 0.61644 0.0
C1268 C 0.14727 0.82771 0.5725 0.0
C1269 C 0.15221 0.83835 0.61357 0.0
C1270 C 0.0321 0.82958 0.5886 0.0
C1271 C 0.03605 0.80951 0.59999 0.0
C1272 C 0.01651 0.83086 0.57008 0.0
C1273 C 0.02441 0.79099 0.59254 0.0
C1274 C 0.00522 0.81197 0.56313 0.0
N1275 N 0.00938 0.79259 0.5744 0.0
C1276 C 0.0461 0.83868 0.66146 0.0
C1277 C 0.07952 0.82037 0.65311 0.0
C1278 C 0.04196 0.82458 0.68095 0.0
N1279 N 0.06452 0.83609 0.6479 0.0
C1280 C 0.07608 0.80602 0.67231 0.0
C1281 C 0.05687 0.80768 0.68616 0.0
H1282 H 0.03425 0.85108 0.65653 0.0
H1283 H 0.09379 0.81843 0.64175 0.0
C1284 C 0.06306 0.82664 0.52786 0.0
N1285 N 0.06921 0.82186 0.55096 0.0
C1286 C 0.06332 0.81036 0.51006 0.0
C1287 C 0.07538 0.78449 0.54054 0.0
C1288 C 0.07503 0.80127 0.55764 0.0
C1289 C 0.06988 0.78902 0.51626 0.0
H1290 H 0.05831 0.84316 0.52321 0.0
H1291 H 0.07972 0.79801 0.57623 0.0
O1292 O 0.0715 0.88401 0.61753 0.0
O1293 O 0.07522 0.87351 0.56153 0.0
O1294 O 0.09364 0.84021 0.599 0.0
O1295 O 0.0437 0.8478 0.59529 0.0
H1296 H 0.07386 0.92724 0.62133 0.0
H1297 H 0.09412 0.86637 0.65378 0.0
H1298 H 0.0938 0.94713 0.6537 0.0
H1299 H 0.11347 0.88732 0.6857 0.0
H1300 H 0.08015 0.91381 0.49235 0.0
H1301 H 0.08143 0.91246 0.58183 0.0
H1302 H 0.07541 0.87841 0.51382 0.0
H1303 H 0.08603 0.94725 0.55925 0.0
H1304 H 0.16187 0.91537 0.61191 0.0
H1305 H 0.15348 0.89026 0.53923 0.0
H1306 H 0.02055 0.95186 0.5841 0.0
H1307 H 0.01223 0.90895 0.52248 0.0
H1308 H 0.11418 0.82736 0.55908 0.0
H1309 H 0.12313 0.84645 0.63367 0.0
H1310 H 0.15435 0.82261 0.55542 0.0
H1311 H 0.16316 0.84154 0.6286 0.0
H1312 H 0.04819 0.80812 0.61418 0.0
H1313 H 0.01316 0.84624 0.56112 0.0
H1314 H 0.0274 0.77533 0.6011 0.0
H1315 H 0.99316 0.81271 0.54876 0.0
H1316 H 0.02691 0.8263 0.69117 0.0
H1317 H 0.08815 0.79344 0.67598 0.0
H1318 H 0.05907 0.81459 0.49157 0.0
H1319 H 0.08008 0.76818 0.54623 0.0
Li1320 Li 0.65562 0.0719 0.57715 0.0
Li1321 Li 0.64892 0.07156 0.62159 0.0
Li1322 Li 0.61962 0.06209 0.59168 0.0
Li1323 Li 0.63172 0.09951 0.59648 0.0
C1324 C 0.66144 0.0303 0.59054 0.0
N1325 N 0.69016 -0.00165 0.57473 0.0
C1326 C 0.67937 0.02431 0.60487 0.0
C1327 C 0.65812 0.02 0.56818 0.0
C1328 C 0.69369 0.00811 0.59657 0.0
C1329 C 0.67284 0.00392 0.56049 0.0
C1330 C 0.67397 0.1141 0.59976 0.0
C1331 C 0.68051 0.15081 0.61437 0.0
N1332 N 0.69375 0.15466 0.595 0.0
C1333 C 0.68778 0.11842 0.58007 0.0
C1334 C 0.67044 0.13042 0.61714 0.0
C1335 C 0.69757 0.13901 0.57796 0.0
C1336 C 0.67126 0.07434 0.52934 0.0
N1337 N 0.67657 0.06755 0.55208 0.0
C1338 C 0.71253 0.05769 0.53903 0.0
C1339 C 0.69676 0.05944 0.55725 0.0
C1340 C 0.70768 0.06498 0.51541 0.0
C1341 C 0.68661 0.07321 0.51066 0.0
H1342 H 0.65535 0.0814 0.52587 0.0
H1343 H 0.70083 0.05485 0.57563 0.0
C1344 C 0.65915 0.04556 0.66287 0.0
N1345 N 0.66246 0.06509 0.65161 0.0
C1346 C 0.67177 0.03984 0.68309 0.0
C1347 C 0.68993 0.07497 0.68038 0.0
C1348 C 0.67732 0.0798 0.66002 0.0
C1349 C 0.68752 0.05462 0.69185 0.0
H1350 H 0.64741 0.03407 0.65551 0.0
H1351 H 0.67986 0.09503 0.65047 0.0
C1352 C 0.61168 0.08103 0.54879 0.0
N1353 N 0.57867 0.07534 0.51501 0.0
C1354 C 0.59456 0.09617 0.54723 0.0
C1355 C 0.61215 0.06316 0.53293 0.0
C1356 C 0.57801 0.09299 0.53005 0.0
C1357 C 0.59525 0.0605 0.51608 0.0
C1358 C 0.60798 0.09082 0.64057 0.0
C1359 C 0.58546 0.08889 0.64458 0.0
C1360 C 0.62073 0.10314 0.65659 0.0
C1361 C 0.57602 0.09961 0.66439 0.0
C1362 C 0.6107 0.11361 0.67619 0.0
N1363 N 0.58873 0.11167 0.67964 0.0
C1364 C 0.59616 0.02451 0.57639 0.0
C1365 C 0.57526 0.05677 0.58247 0.0
C1366 C 0.57866 0.01461 0.56437 0.0
N1367 N 0.59439 0.04552 0.58418 0.0
C1368 C 0.5574 0.04758 0.57047 0.0
C1369 C 0.55932 0.02657 0.56034 0.0
H1370 H 0.61153 0.01592 0.57818 0.0
H1371 H 0.5745 0.07358 0.58855 0.0
C1372 C 0.63262 0.13987 0.57436 0.0
N1373 N 0.62212 0.12895 0.59239 0.0
C1374 C 0.62543 0.1604 0.56698 0.0
C1375 C 0.59608 0.15802 0.59625 0.0
C1376 C 0.60425 0.13765 0.60356 0.0
C1377 C 0.60648 0.16949 0.57734 0.0
H1378 H 0.64612 0.13222 0.56498 0.0
H1379 H 0.59561 0.12841 0.61721 0.0
O1380 O 0.64724 0.04616 0.59834 0.0
O1381 O 0.66413 0.09402 0.60203 0.0
O1382 O 0.62773 0.08352 0.56594 0.0
O1383 O 0.61741 0.08047 0.62118 0.0
H1384 H 0.6824 0.03223 0.62207 0.0
H1385 H 0.6445 0.02454 0.55672 0.0
H1386 H 0.70766 0.00338 0.60745 0.0
H1387 H 0.67051 0.9959 0.54317 0.0
H1388 H 0.67775 0.1636 0.6276 0.0
H1389 H 0.69088 0.10611 0.56646 0.0
H1390 H 0.65982 0.12756 0.63245 0.0
H1391 H 0.7082 0.14256 0.56276 0.0
H1392 H 0.72847 0.05108 0.54355 0.0
H1393 H 0.68226 0.07955 0.49295 0.0
H1394 H 0.66954 0.02398 0.69153 0.0
H1395 H 0.70212 0.08665 0.68644 0.0
H1396 H 0.59385 0.11007 0.55935 0.0
H1397 H 0.62528 0.05132 0.53382 0.0
H1398 H 0.56459 0.10449 0.52878 0.0
H1399 H 0.59528 0.04661 0.5039 0.0
H1400 H 0.57535 0.07923 0.63252 0.0
H1401 H 0.63816 0.10453 0.65399 0.0
H1402 H 0.5586 0.09833 0.66765 0.0
H1403 H 0.6204 0.12325 0.68868 0.0
H1404 H 0.58061 -0.00181 0.55727 0.0
H1405 H 0.54291 0.05746 0.5676 0.0
H1406 H 0.63432 0.16873 0.5527 0.0
H1407 H 0.58123 0.16416 0.60453 0.0
C1408 C 0.56335 0.22004 0.97453 0.0
C1409 C 0.57426 0.21929 0.99694 0.0
C1410 C 0.56615 0.2379 0.95873 0.0
C1411 C 0.58008 0.25535 0.96564 0.0
C1412 C 0.59155 0.25436 0.98794 0.0
C1413 C 0.58859 0.23631 0.00322 0.0
C1414 C 0.55381 0.23836 0.93499 0.0
C1415 C 0.6066 0.27263 0.996 0.0
C1416 C 0.6042 0.29848 0.92427 0.0
C1417 C 0.5916 0.31677 0.93071 0.0
C1418 C 0.59951 0.27774 0.93397 0.0
C1419 C 0.58193 0.27539 0.95053 0.0
C1420 C 0.56811 0.29345 0.95545 0.0
C1421 C 0.57308 0.31391 0.94541 0.0
C1422 C 0.61443 0.25879 0.92801 0.0
C1423 C 0.54915 0.29163 0.97294 0.0
H1424 H 0.55222 0.20694 0.96961 0.0
H1425 H 0.59749 0.23555 0.02022 0.0
H1426 H 0.54137 0.25158 0.93544 0.0
H1427 H 0.56513 0.24204 0.91978 0.0
H1428 H 0.54538 0.2226 0.93122 0.0
H1429 H 0.61474 0.26902 0.01358 0.0
H1430 H 0.61942 0.27552 0.98211 0.0
H1431 H 0.59714 0.28804 0.99794 0.0
H1432 H 0.61854 0.30062 0.91292 0.0
H1433 H 0.56305 0.32796 0.95 0.0
H1434 H 0.60481 0.24367 0.9247 0.0
H1435 H 0.62542 0.25558 0.94366 0.0
H1436 H 0.62472 0.2622 0.91183 0.0
H1437 H 0.53915 0.27692 0.96889 0.0
H1438 H 0.53838 0.30629 0.97235 0.0
H1439 H 0.55555 0.28982 0.99169 0.0
C1440 C 0.18472 0.575 0.9424 0.0
C1441 C 0.1814 0.59378 0.92824 0.0
C1442 C 0.2051 0.57071 0.95304 0.0
C1443 C 0.22261 0.5855 0.94923 0.0
C1444 C 0.21992 0.60337 0.93313 0.0
C1445 C 0.19925 0.60737 0.92284 0.0
C1446 C 0.2073 0.55141 0.97001 0.0
C1447 C 0.23831 0.61929 0.92831 0.0
C1448 C 0.25971 0.59269 0.00361 0.0
C1449 C 0.27757 0.57935 0.9976 0.0
C1450 C 0.24201 0.59517 0.98772 0.0
C1451 C 0.24224 0.58422 0.96508 0.0
C1452 C 0.26054 0.5713 0.95847 0.0
C1453 C 0.27802 0.56896 0.97489 0.0
C1454 C 0.2228 0.60913 0.99546 0.0
C1455 C 0.2614 0.55955 0.9344 0.0
H1456 H 0.17103 0.56421 0.94618 0.0
H1457 H 0.19676 0.62192 0.91191 0.0
H1458 H 0.2226 0.54225 0.96628 0.0
H1459 H 0.2082 0.5574 0.98901 0.0
H1460 H 0.19321 0.53997 0.96852 0.0
H1461 H 0.23491 0.62979 0.91227 0.0
H1462 H 0.24051 0.63005 0.94436 0.0
H1463 H 0.25397 0.61048 0.92534 0.0
H1464 H 0.25951 0.6012 0.02087 0.0
H1465 H 0.29176 0.55856 0.97019 0.0
H1466 H 0.20779 0.59891 0.9965 0.0
H1467 H 0.21973 0.62215 0.98184 0.0
H1468 H 0.22546 0.61696 0.01341 0.0
H1469 H 0.24883 0.54645 0.93401 0.0
H1470 H 0.27768 0.55203 0.93099 0.0
H1471 H 0.25759 0.57104 0.91938 0.0
C1472 C 0.91283 0.19887 0.90578 0.0
C1473 C 0.89315 0.18882 0.91279 0.0
C1474 C 0.92036 0.21784 0.91757 0.0
C1475 C 0.908 0.22674 0.93694 0.0
C1476 C 0.88766 0.21724 0.94331 0.0
C1477 C 0.88049 0.19844 0.93115 0.0
C1478 C 0.94197 0.22774 0.91007 0.0
C1479 C 0.87402 0.22616 0.96394 0.0
C1480 C 0.93412 0.25624 0.98985 0.0
C1481 C 0.92709 0.27782 0.986 0.0
C1482 C 0.92913 0.23964 0.9732 0.0
C1483 C 0.91693 0.24477 0.95209 0.0
C1484 C 0.91107 0.26676 0.94727 0.0
C1485 C 0.91615 0.28304 0.96435 0.0
C1486 C 0.93577 0.21638 0.97898 0.0
C1487 C 0.89824 0.27289 0.92485 0.0
H1488 H 0.92259 0.19159 0.89146 0.0
H1489 H 0.86548 0.19058 0.937 0.0
H1490 H 0.94038 0.24574 0.9079 0.0
H1491 H 0.95434 0.22477 0.92444 0.0
H1492 H 0.94814 0.22066 0.8928 0.0
H1493 H 0.85794 0.21776 0.96553 0.0
H1494 H 0.883 0.22412 0.9813 0.0
H1495 H 0.87107 0.24394 0.96139 0.0
H1496 H 0.94301 0.25221 0.0063 0.0
H1497 H 0.91057 0.29966 0.96128 0.0
H1498 H 0.94404 0.2088 0.96316 0.0
H1499 H 0.92094 0.2065 0.98293 0.0
H1500 H 0.9469 0.21545 0.9949 0.0
H1501 H 0.90528 0.26488 0.90855 0.0
H1502 H 0.89794 0.29088 0.92188 0.0
H1503 H 0.88112 0.26705 0.92673 0.0
C1504 C 0.30082 0.91359 0.92589 0.0
C1505 C 0.30368 0.89128 0.92096 0.0
C1506 C 0.28202 0.92105 0.93796 0.0
C1507 C 0.26571 0.90579 0.94488 0.0
C1508 C 0.26773 0.88354 0.93803 0.0
C1509 C 0.28685 0.8765 0.92634 0.0
C1510 C 0.28056 0.94486 0.94514 0.0
C1511 C 0.2505 0.86685 0.94466 0.0
C1512 C 0.23542 0.91404 0.00402 0.0
C1513 C 0.21487 0.92144 0.99611 0.0
C1514 C 0.25226 0.90965 0.98751 0.0
C1515 C 0.24838 0.91226 0.96235 0.0
C1516 C 0.22783 0.92001 0.95416 0.0
C1517 C 0.21134 0.92465 0.97117 0.0
C1518 C 0.27405 0.9016 0.99702 0.0
C1519 C 0.2231 0.92281 0.92745 0.0
H1520 H 0.31396 0.92497 0.92187 0.0
H1521 H 0.28908 0.85925 0.92232 0.0
H1522 H 0.26391 0.9514 0.94167 0.0
H1523 H 0.28378 0.94642 0.96489 0.0
H1524 H 0.29266 0.95509 0.93523 0.0
H1525 H 0.25293 0.85109 0.93495 0.0
H1526 H 0.25116 0.86361 0.96447 0.0
H1527 H 0.23389 0.87315 0.94044 0.0
H1528 H 0.23824 0.91102 0.02315 0.0
H1529 H 0.19562 0.93063 0.96489 0.0
H1530 H 0.28754 0.91189 0.98981 0.0
H1531 H 0.27696 0.88458 0.99076 0.0
H1532 H 0.27486 0.90184 0.01716 0.0
H1533 H 0.23575 0.93333 0.91889 0.0
H1534 H 0.20674 0.93017 0.92411 0.0
H1535 H 0.22379 0.90665 0.91829 0.0
C1536 C 0.5838 0.28613 0.52047 0.0
C1537 C 0.56448 0.28671 0.5068 0.0
C1538 C 0.58863 0.26813 0.53531 0.0
C1539 C 0.57352 0.25059 0.53681 0.0
C1540 C 0.55311 0.25206 0.52469 0.0
C1541 C 0.54897 0.27 0.50946 0.0
C1542 C 0.61076 0.26702 0.54751 0.0
C1543 C 0.53631 0.23399 0.52643 0.0
C1544 C 0.59837 0.19413 0.54221 0.0
C1545 C 0.59705 0.19005 0.56724 0.0
C1546 C 0.59068 0.21371 0.53221 0.0
C1547 C 0.58064 0.22942 0.54744 0.0
C1548 C 0.57828 0.2251 0.57254 0.0
C1549 C 0.58676 0.20556 0.58223 0.0
C1550 C 0.59373 0.21774 0.50534 0.0
C1551 C 0.56709 0.24124 0.58916 0.0
H1552 H 0.59585 0.29902 0.5182 0.0
H1553 H 0.53395 0.27061 0.49896 0.0
H1554 H 0.60908 0.26179 0.56669 0.0
H1555 H 0.62105 0.25466 0.53815 0.0
H1556 H 0.61944 0.28301 0.54702 0.0
H1557 H 0.51996 0.23944 0.51995 0.0
H1558 H 0.5416 0.21991 0.51515 0.0
H1559 H 0.53478 0.22811 0.54541 0.0
H1560 H 0.6055 0.18198 0.53026 0.0
H1561 H 0.58566 0.20263 0.60158 0.0
H1562 H 0.6033 0.23297 0.50246 0.0
H1563 H 0.57759 0.22003 0.49646 0.0
H1564 H 0.60236 0.20403 0.49616 0.0
H1565 H 0.57706 0.25637 0.59058 0.0
H1566 H 0.56463 0.2345 0.60769 0.0
H1567 H 0.55093 0.246 0.58158 0.0
C1568 C 0.29606 0.57967 0.58978 0.0
C1569 C 0.30483 0.60082 0.58771 0.0
C1570 C 0.27684 0.57384 0.57736 0.0
C1571 C 0.26634 0.58949 0.56239 0.0
C1572 C 0.2743 0.61125 0.56158 0.0
C1573 C 0.29343 0.61666 0.5743 0.0
C1574 C 0.26862 0.55058 0.579 0.0
C1575 C 0.26364 0.62842 0.54576 0.0
C1576 C 0.23838 0.57102 0.50457 0.0
C1577 C 0.21622 0.57388 0.51032 0.0
C1578 C 0.25479 0.57536 0.52168 0.0
C1579 C 0.24889 0.58262 0.54519 0.0
C1580 C 0.22651 0.58472 0.55145 0.0
C1581 C 0.21041 0.58044 0.53386 0.0
C1582 C 0.2785 0.57306 0.51422 0.0
C1583 C 0.21962 0.59212 0.57644 0.0
H1584 H 0.30472 0.56744 0.60034 0.0
H1585 H 0.30025 0.63296 0.57236 0.0
H1586 H 0.25059 0.55027 0.58151 0.0
H1587 H 0.2723 0.54187 0.56181 0.0
H1588 H 0.27642 0.54146 0.59417 0.0
H1589 H 0.27038 0.64504 0.54916 0.0
H1590 H 0.26632 0.62427 0.52638 0.0
H1591 H 0.2457 0.62881 0.54887 0.0
H1592 H 0.24297 0.56623 0.48632 0.0
H1593 H 0.19326 0.58244 0.53843 0.0
H1594 H 0.2873 0.56221 0.52709 0.0
H1595 H 0.28662 0.58931 0.51482 0.0
H1596 H 0.28029 0.56627 0.49562 0.0
H1597 H 0.22804 0.58226 0.59055 0.0
H1598 H 0.20164 0.59078 0.57916 0.0
H1599 H 0.2245 0.60944 0.57919 0.0
C1600 C 0.89695 0.29492 0.57907 0.0
C1601 C 0.90747 0.31372 0.57022 0.0
C1602 C 0.90122 0.27427 0.56888 0.0
C1603 C 0.91608 0.27256 0.54925 0.0
C1604 C 0.92805 0.29119 0.54169 0.0
C1605 C 0.92372 0.3115 0.55242 0.0
C1606 C 0.88857 0.25465 0.57786 0.0
C1607 C 0.94404 0.29011 0.52081 0.0
C1608 C 0.93452 0.2188 0.52122 0.0
C1609 C 0.92048 0.21738 0.5011 0.0
C1610 C 0.93267 0.23613 0.53788 0.0
C1611 C 0.91661 0.25248 0.53408 0.0
C1612 C 0.9019 0.25066 0.51432 0.0
C1613 C 0.90391 0.23306 0.49823 0.0
C1614 C 0.94838 0.23734 0.559 0.0
C1615 C 0.88453 0.26777 0.50957 0.0
H1616 H 0.8844 0.2965 0.59287 0.0
H1617 H 0.93229 0.32592 0.54597 0.0
H1618 H 0.87526 0.25078 0.56484 0.0
H1619 H 0.89933 0.24005 0.57909 0.0
H1620 H 0.88109 0.2577 0.59593 0.0
H1621 H 0.95375 0.30541 0.51897 0.0
H1622 H 0.95548 0.27617 0.52315 0.0
H1623 H 0.93492 0.28738 0.50364 0.0
H1624 H 0.9474 0.20677 0.52355 0.0
H1625 H 0.8926 0.23173 0.48312 0.0
H1626 H 0.93948 0.24116 0.57603 0.0
H1627 H 0.96033 0.25073 0.55588 0.0
H1628 H 0.95759 0.22181 0.56149 0.0
H1629 H 0.874 0.26981 0.52581 0.0
H1630 H 0.87395 0.26353 0.49386 0.0
H1631 H 0.89242 0.28381 0.5059 0.0
C1632 C 0.20074 0.90837 0.57875 0.0
C1633 C 0.18131 0.91399 0.56676 0.0
C1634 C 0.22117 0.91336 0.56842 0.0
C1635 C 0.22199 0.92422 0.54572 0.0
C1636 C 0.20238 0.9316 0.53471 0.0
C1637 C 0.18225 0.92632 0.54536 0.0
C1638 C 0.24174 0.90538 0.58078 0.0
C1639 C 0.20251 0.94341 0.51063 0.0
C1640 C 0.27463 0.9443 0.51643 0.0
C1641 C 0.27857 0.92751 0.49963 0.0
C1642 C 0.25673 0.94315 0.53241 0.0
C1643 C 0.24263 0.92475 0.53151 0.0
C1644 C 0.24719 0.90734 0.51531 0.0
C1645 C 0.26508 0.90896 0.49957 0.0
C1646 C 0.25237 0.96197 0.54947 0.0
C1647 C 0.23266 0.88735 0.51388 0.0
H1648 H 0.19996 0.89879 0.5953 0.0
H1649 H 0.16716 0.93088 0.53628 0.0
H1650 H 0.24798 0.89071 0.57113 0.0
H1651 H 0.25474 0.91805 0.58011 0.0
H1652 H 0.23871 0.90087 0.60003 0.0
H1653 H 0.18626 0.95058 0.5062 0.0
H1654 H 0.21489 0.9567 0.51064 0.0
H1655 H 0.20701 0.93174 0.49602 0.0
H1656 H 0.28505 0.95867 0.51646 0.0
H1657 H 0.26839 0.89577 0.48692 0.0
H1658 H 0.24907 0.95585 0.56807 0.0
H1659 H 0.23757 0.97098 0.54338 0.0
H1660 H 0.26632 0.97365 0.55018 0.0
H1661 H 0.23067 0.87995 0.53214 0.0
H1662 H 0.23928 0.87469 0.5014 0.0
H1663 H 0.21613 0.89215 0.5074 0.0
C1664 C 0.43348 0.75386 -0.00083 0.0
C1665 C 0.42934 0.77579 0.00498 0.0
C1666 C 0.43021 0.73724 0.01633 0.0
C1667 C 0.42302 0.74277 0.03999 0.0
C1668 C 0.41999 0.76503 0.04634 0.0
C1669 C 0.42293 0.7813 0.02863 0.0
C1670 C 0.43327 0.71368 0.0087 0.0
C1671 C 0.41285 0.77157 0.07153 0.0
C1672 C 0.38948 0.69852 0.0704 0.0
C1673 C 0.40542 0.68749 0.08402 0.0
C1674 C 0.39484 0.71712 0.05678 0.0
C1675 C 0.41661 0.72508 0.05708 0.0
C1676 C 0.43249 0.71481 0.07199 0.0
C1677 C 0.42676 0.69592 0.08508 0.0
C1678 C 0.3775 0.72736 0.04082 0.0
C1679 C 0.45572 0.72316 0.07321 0.0
H1680 H 0.43824 0.74961 0.98081 0.0
H1681 H 0.41992 0.79832 0.03313 0.0
H1682 H 0.44443 0.70513 0.02145 0.0
H1683 H 0.41728 0.70505 0.00929 0.0
H1684 H 0.44005 0.71222 0.99006 0.0
H1685 H 0.414 0.78954 0.07443 0.0
H1686 H 0.39563 0.76646 0.0745 0.0
H1687 H 0.42302 0.76316 0.08539 0.0
H1688 H 0.37306 0.69183 0.06923 0.0
H1689 H 0.43907 0.68739 0.09566 0.0
H1690 H 0.38204 0.72521 0.02147 0.0
H1691 H 0.3764 0.74521 0.04431 0.0
H1692 H 0.36108 0.71998 0.04375 0.0
H1693 H 0.46418 0.7197 0.05581 0.0
H1694 H 0.46516 0.71533 0.08812 0.0
H1695 H 0.4559 0.74116 0.07588 0.0
C1696 C 0.7202 0.41244 0.02321 0.0
C1697 C 0.71666 0.4335 0.01393 0.0
C1698 C 0.73874 0.40781 0.03733 0.0
C1699 C 0.75384 0.42477 0.04257 0.0
C1700 C 0.74945 0.44642 0.03472 0.0
C1701 C 0.73101 0.45048 0.02019 0.0
C1702 C 0.74301 0.38445 0.04496 0.0
C1703 C 0.76492 0.46501 0.04038 0.0
C1704 C 0.79934 0.41241 0.08782 0.0
C1705 C 0.81673 0.40749 0.07216 0.0
C1706 C 0.77879 0.41858 0.07854 0.0
C1707 C 0.77557 0.41927 0.05308 0.0
C1708 C 0.79312 0.41418 0.03727 0.0
C1709 C 0.8135 0.40853 0.04702 0.0
C1710 C 0.76055 0.42432 0.09587 0.0
C1711 C 0.79029 0.41431 0.01002 0.0
H1712 H 0.70918 0.39928 0.01815 0.0
H1713 H 0.72815 0.46679 0.0131 0.0
H1714 H 0.75701 0.37783 0.03441 0.0
H1715 H 0.74756 0.38367 0.06443 0.0
H1716 H 0.72857 0.37373 0.04187 0.0
H1717 H 0.75751 0.48122 0.03633 0.0
H1718 H 0.76984 0.46461 0.05976 0.0
H1719 H 0.78001 0.46325 0.02935 0.0
H1720 H 0.80191 0.41162 0.10727 0.0
H1721 H 0.82689 0.40439 0.03493 0.0
H1722 H 0.74671 0.41274 0.09354 0.0
H1723 H 0.75423 0.44096 0.09177 0.0
H1724 H 0.76596 0.42383 0.11512 0.0
H1725 H 0.77713 0.40272 0.00472 0.0
H1726 H 0.80555 0.40967 0.00032 0.0
H1727 H 0.78525 0.43084 0.00381 0.0
C1728 C 0.04602 0.72452 0.02346 0.0
C1729 C 0.0635 0.71191 0.0148 0.0
C1730 C 0.04976 0.74238 0.03893 0.0
C1731 C 0.07153 0.74805 0.04523 0.0
C1732 C 0.08914 0.73471 0.03738 0.0
C1733 C 0.08486 0.71664 0.02242 0.0
C1734 C 0.03054 0.7559 0.0474 0.0
C1735 C 0.11261 0.74046 0.04322 0.0
C1736 C 0.08351 0.80839 0.05346 0.0
C1737 C 0.08644 0.80994 0.0786 0.0
C1738 C 0.07861 0.78833 0.04248 0.0
C1739 C 0.07614 0.76941 0.05708 0.0
C1740 C 0.07866 0.77095 0.08259 0.0
C1741 C 0.08412 0.79123 0.09307 0.0
C1742 C 0.07657 0.78733 0.01516 0.0
C1743 C 0.07565 0.75121 0.09872 0.0
H1744 H 0.02949 0.72073 0.01759 0.0
H1745 H 0.09837 0.70697 0.01548 0.0
H1746 H 0.032 0.75957 0.06706 0.0
H1747 H 0.03036 0.77176 0.03758 0.0
H1748 H 0.01468 0.74749 0.04409 0.0
H1749 H 0.12417 0.72727 0.03784 0.0
H1750 H 0.11722 0.75567 0.03344 0.0
H1751 H 0.11459 0.74369 0.0629 0.0
H1752 H 0.08565 0.82286 0.04229 0.0
H1753 H 0.08642 0.79254 0.11253 0.0
H1754 H 0.06004 0.78138 0.01001 0.0
H1755 H 0.08866 0.77554 0.00771 0.0
H1756 H 0.07929 0.80352 0.00646 0.0
H1757 H 0.05934 0.74375 0.09544 0.0
H1758 H 0.07707 0.75539 0.11828 0.0
H1759 H 0.08812 0.73863 0.0943 0.0
C1760 C 0.70148 0.08357 0.08922 0.0
C1761 C 0.68249 0.08487 0.07502 0.0
C1762 C 0.72178 0.07852 0.07859 0.0
C1763 C 0.72305 0.07528 0.05317 0.0
C1764 C 0.70381 0.07631 0.03887 0.0
C1765 C 0.68376 0.08092 0.05001 0.0
C1766 C 0.74191 0.07709 0.09441 0.0
C1767 C 0.70449 0.07338 0.01164 0.0
C1768 C 0.77452 0.08774 0.01764 0.0
C1769 C 0.78121 0.06672 0.01072 0.0
C1770 C 0.75618 0.09073 0.03253 0.0
C1771 C 0.74451 0.07221 0.04099 0.0
C1772 C 0.75202 0.05089 0.03525 0.0
C1773 C 0.77017 0.04839 0.01989 0.0
C1774 C 0.74846 0.11374 0.03783 0.0
C1775 C 0.74025 0.03076 0.04435 0.0
H1776 H 0.70044 0.08659 0.10857 0.0
H1777 H 0.66911 0.08229 0.03897 0.0
H1778 H 0.75078 0.06156 0.09087 0.0
H1779 H 0.75326 0.0907 0.08995 0.0
H1780 H 0.73785 0.078 0.11403 0.0
H1781 H 0.68795 0.07421 0.00328 0.0
H1782 H 0.71487 0.08631 0.0034 0.0
H1783 H 0.71194 0.05736 0.00699 0.0
H1784 H 0.78294 0.10191 0.01031 0.0
H1785 H 0.77549 0.03213 0.01462 0.0
H1786 H 0.74567 0.11594 0.05756 0.0
H1787 H 0.73259 0.11667 0.02854 0.0
H1788 H 0.76035 0.12631 0.0316 0.0
H1789 H 0.73673 0.03226 0.06403 0.0
H1790 H 0.7499 0.0156 0.04123 0.0
H1791 H 0.72432 0.0291 0.03483 0.0
C1792 C 0.40467 0.71717 0.47708 0.0
C1793 C 0.42482 0.71353 0.48854 0.0
C1794 C 0.40158 0.73538 0.46196 0.0
C1795 C 0.4192 0.75002 0.45797 0.0
C1796 C 0.44001 0.74553 0.46817 0.0
C1797 C 0.44251 0.72744 0.48361 0.0
C1798 C 0.37904 0.73979 0.45178 0.0
C1799 C 0.45929 0.76054 0.46396 0.0
C1800 C 0.412 0.7943 0.40997 0.0
C1801 C 0.40628 0.81227 0.42442 0.0
C1802 C 0.41669 0.77389 0.42061 0.0
C1803 C 0.41505 0.77147 0.44612 0.0
C1804 C 0.40904 0.78961 0.46066 0.0
C1805 C 0.40491 0.80981 0.44963 0.0
C1806 C 0.42346 0.75499 0.40465 0.0
C1807 C 0.40669 0.78764 0.48789 0.0
H1808 H 0.39095 0.70649 0.48109 0.0
H1809 H 0.45815 0.72446 0.49235 0.0
H1810 H 0.37185 0.75423 0.46106 0.0
H1811 H 0.37999 0.74372 0.43216 0.0
H1812 H 0.36782 0.72565 0.45428 0.0
H1813 H 0.47494 0.75307 0.47008 0.0
H1814 H 0.46069 0.76477 0.44444 0.0
H1815 H 0.45681 0.77603 0.4741 0.0
H1816 H 0.41306 0.7963 0.39046 0.0
H1817 H 0.40016 0.82369 0.46073 0.0
H1818 H 0.41152 0.74139 0.40643 0.0
H1819 H 0.43961 0.74862 0.4106 0.0
H1820 H 0.42455 0.75973 0.38523 0.0
H1821 H 0.39445 0.77483 0.49237 0.0
H1822 H 0.4015 0.80326 0.49646 0.0
H1823 H 0.4225 0.78254 0.49606 0.0
C1824 C 0.78197 0.42653 0.46637 0.0
C1825 C 0.77712 0.42543 0.49128 0.0
C1826 C 0.76586 0.42219 0.44878 0.0
C1827 C 0.74428 0.41717 0.45627 0.0
C1828 C 0.73914 0.41656 0.4813 0.0
C1829 C 0.75564 0.42034 0.49843 0.0
C1830 C 0.77201 0.42254 0.42225 0.0
C1831 C 0.71621 0.41158 0.49006 0.0
C1832 C 0.69418 0.42306 0.41633 0.0
C1833 C 0.6882 0.40105 0.41295 0.0
C1834 C 0.7132 0.42869 0.4292 0.0
C1835 C 0.72694 0.41191 0.43825 0.0
C1836 C 0.7222 0.38977 0.43278 0.0
C1837 C 0.70276 0.38458 0.42048 0.0
C1838 C 0.71755 0.45249 0.43484 0.0
C1839 C 0.73676 0.37142 0.44154 0.0
H1840 H 0.79838 0.43074 0.46054 0.0
H1841 H 0.7517 0.41882 0.51752 0.0
H1842 H 0.76919 0.40613 0.41419 0.0
H1843 H 0.76148 0.43427 0.41224 0.0
H1844 H 0.78942 0.42714 0.41939 0.0
H1845 H 0.71462 0.41317 0.51007 0.0
H1846 H 0.70429 0.42283 0.48134 0.0
H1847 H 0.71162 0.39465 0.48485 0.0
H1848 H 0.68345 0.43596 0.40996 0.0
H1849 H 0.69841 0.36751 0.41818 0.0
H1850 H 0.73498 0.45665 0.43166 0.0
H1851 H 0.71406 0.45558 0.45431 0.0
H1852 H 0.70715 0.46362 0.4238 0.0
H1853 H 0.75426 0.37543 0.43841 0.0
H1854 H 0.73295 0.35567 0.43236 0.0
H1855 H 0.73449 0.36915 0.46136 0.0
C1856 C 0.07345 0.68025 0.43859 0.0
C1857 C 0.0877 0.68155 0.41868 0.0
C1858 C 0.06812 0.6989 0.45213 0.0
C1859 C 0.07721 0.71937 0.44554 0.0
C1860 C 0.09026 0.72109 0.42439 0.0
C1861 C 0.09546 0.7021 0.41125 0.0
C1862 C 0.05423 0.69635 0.47464 0.0
C1863 C 0.09995 0.74271 0.41658 0.0
C1864 C 0.05613 0.76953 0.47905 0.0
C1865 C 0.07186 0.77171 0.49748 0.0
C1866 C 0.05787 0.7529 0.46153 0.0
C1867 C 0.07565 0.73807 0.46266 0.0
C1868 C 0.09173 0.74042 0.48099 0.0
C1869 C 0.08971 0.75727 0.49804 0.0
C1870 C 0.04052 0.75093 0.44214 0.0
C1871 C 0.11095 0.7249 0.48286 0.0
H1872 H 0.06761 0.6644 0.44465 0.0
H1873 H 0.10627 0.70319 0.3957 0.0
H1874 H 0.06469 0.69832 0.49097 0.0
H1875 H 0.04141 0.70918 0.47536 0.0
H1876 H 0.0462 0.68004 0.47553 0.0
H1877 H 0.10679 0.74194 0.39792 0.0
H1878 H 0.08742 0.75585 0.4173 0.0
H1879 H 0.11332 0.74734 0.42923 0.0
H1880 H 0.04222 0.78055 0.47858 0.0
H1881 H 0.10221 0.75917 0.51186 0.0
H1882 H 0.0314 0.73537 0.44449 0.0
H1883 H 0.04822 0.75045 0.42391 0.0
H1884 H 0.02865 0.76471 0.44268 0.0
H1885 H 0.10496 0.70794 0.48571 0.0
H1886 H 0.12216 0.7292 0.49801 0.0
H1887 H 0.12042 0.72502 0.46569 0.0
C1888 C 0.71972 0.06158 0.47189 0.0
C1889 C 0.7249 0.0656 0.49633 0.0
C1890 C 0.73551 0.0641 0.45356 0.0
C1891 C 0.75702 0.07053 0.4599 0.0
C1892 C 0.76256 0.0738 0.48459 0.0
C1893 C 0.74642 0.07147 0.50244 0.0
C1894 C 0.729 0.0606 0.42742 0.0
C1895 C 0.78541 0.08047 0.49213 0.0
C1896 C 0.80689 0.06435 0.41982 0.0
C1897 C 0.8111 0.08627 0.41368 0.0
C1898 C 0.78842 0.05862 0.43355 0.0
C1899 C 0.77363 0.07516 0.4409 0.0
C1900 C 0.77663 0.09693 0.43273 0.0
C1901 C 0.79541 0.10226 0.41937 0.0
C1902 C 0.78578 0.03521 0.44187 0.0
C1903 C 0.76099 0.11498 0.43983 0.0
H1904 H 0.70323 0.0567 0.46701 0.0
H1905 H 0.75056 0.07503 0.52116 0.0
H1906 H 0.72986 0.07639 0.4175 0.0
H1907 H 0.74055 0.04919 0.41841 0.0
H1908 H 0.71213 0.05397 0.42566 0.0
H1909 H 0.78741 0.0809 0.51216 0.0
H1910 H 0.79763 0.06894 0.48449 0.0
H1911 H 0.78919 0.09698 0.48482 0.0
H1912 H 0.81865 0.05179 0.41498 0.0
H1913 H 0.79848 0.11927 0.41491 0.0
H1914 H 0.76854 0.02977 0.43996 0.0
H1915 H 0.79013 0.03405 0.46139 0.0
H1916 H 0.79649 0.02383 0.43156 0.0
H1917 H 0.74377 0.10964 0.43734 0.0
H1918 H 0.76372 0.13013 0.42908 0.0
H1919 H 0.76325 0.11896 0.45932 0.0
C1920 C 0.48971 0.95027 0.97174 0.0
C1921 C 0.47641 0.95582 0.95194 0.0
C1922 C 0.4967 0.96626 0.98825 0.0
C1923 C 0.49034 0.98832 0.98473 0.0
C1924 C 0.47735 0.99412 0.96444 0.0
C1925 C 0.47044 0.97774 0.94831 0.0
C1926 C 0.51047 0.95948 0.00975 0.0
C1927 C 0.47053 0.01754 0.95995 0.0
C1928 C 0.49128 0.02595 0.03959 0.0
C1929 C 0.51158 0.03628 0.03671 0.0
C1930 C 0.48405 0.01034 0.02268 0.0
C1931 C 0.49734 0.00531 0.00234 0.0
C1932 C 0.51762 0.01611 -0.00088 0.0
C1933 C 0.52453 0.03141 0.01641 0.0
C1934 C 0.46239 -0.001 0.02674 0.0
C1935 C 0.53208 0.01141 0.9775 0.0
H1936 H 0.49401 0.93327 0.97481 0.0
H1937 H 0.46021 0.98203 0.93294 0.0
H1938 H 0.52615 0.96866 0.00979 0.0
H1939 H 0.50179 0.96356 0.02685 0.0
H1940 H 0.51418 0.94166 0.00971 0.0
H1941 H 0.46096 0.01939 0.94291 0.0
H1942 H 0.46041 0.02349 0.97531 0.0
H1943 H 0.48519 0.02822 0.95891 0.0
H1944 H 0.48129 0.0298 0.05528 0.0
H1945 H 0.54004 0.03976 0.01396 0.0
H1946 H 0.46502 0.98109 0.02854 0.0
H1947 H 0.45151 0.00156 0.01086 0.0
H1948 H 0.45389 0.00501 0.04327 0.0
H1949 H 0.5372 0.99398 0.9777 0.0
H1950 H 0.547 0.02183 0.97726 0.0
H1951 H 0.52284 0.01416 0.96043 0.0
C1952 C 0.47652 0.50831 0.04279 0.0
C1953 C 0.45444 0.51209 0.03751 0.0
C1954 C 0.49141 0.50337 0.02421 0.0
C1955 C 0.48404 0.50285 -0.00019 0.0
C1956 C 0.46167 0.50649 0.99448 0.0
C1957 C 0.44706 0.51087 0.01348 0.0
C1958 C 0.51507 0.49908 0.03062 0.0
C1959 C 0.45331 0.5065 0.96868 0.0
C1960 C 0.52871 0.51218 0.95315 0.0
C1961 C 0.53323 0.4907 0.94578 0.0
C1962 C 0.51198 0.5165 0.96994 0.0
C1963 C 0.4999 0.49886 0.97991 0.0
C1964 C 0.50387 0.47724 0.97185 0.0
C1965 C 0.52032 0.47347 0.95465 0.0
C1966 C 0.5078 0.53984 0.97769 0.0
C1967 C 0.4916 0.45796 0.98235 0.0
H1968 H 0.48212 0.50945 0.06143 0.0
H1969 H 0.43 0.51424 0.00947 0.0
H1970 H 0.52041 0.48316 0.02292 0.0
H1971 H 0.52561 0.51196 0.02255 0.0
H1972 H 0.51785 0.49881 0.05054 0.0
H1973 H 0.43533 0.50918 0.96769 0.0
H1974 H 0.46161 0.51961 0.95818 0.0
H1975 H 0.45724 0.49072 0.95972 0.0
H1976 H 0.5386 0.52553 0.9462 0.0
H1977 H 0.52386 0.45682 0.94917 0.0
H1978 H 0.51264 0.54196 0.99695 0.0
H1979 H 0.49008 0.5437 0.97635 0.0
H1980 H 0.51709 0.55181 0.96652 0.0
H1981 H 0.49561 0.45631 0.00191 0.0
H1982 H 0.49578 0.44235 0.97309 0.0
H1983 H 0.47368 0.46061 0.98096 0.0
C1984 C 0.98737 0.52559 0.94636 0.0
C1985 C 0.00864 0.53063 0.93866 0.0
C1986 C 0.98365 0.50869 0.96311 0.0
C1987 C 0.00171 0.49698 0.97273 0.0
C1988 C 0.02309 0.50135 0.96419 0.0
C1989 C 0.02625 0.51795 0.94701 0.0
C1990 C 0.96053 0.50405 0.97134 0.0
C1991 C 0.0428 0.48949 0.97429 0.0
C1992 C 0.99364 0.47406 0.03603 0.0
C1993 C 0.99012 0.45189 0.03107 0.0
C1994 C 0.99812 0.48883 0.01718 0.0
C1995 C -0.00161 0.48123 0.99287 0.0
C1996 C 0.99506 0.45875 0.98787 0.0
C1997 C 0.99116 0.44428 0.00713 0.0
C1998 C 0.00211 0.51262 0.02323 0.0
C1999 C 0.99478 0.45016 0.96218 0.0
H2000 H 0.97372 0.53529 0.93979 0.0
H2001 H 0.04275 0.52186 0.94124 0.0
H2002 H 0.95706 0.48623 0.97036 0.0
H2003 H 0.95858 0.5091 0.99056 0.0
H2004 H 0.94819 0.51292 0.96024 0.0
H2005 H 0.05811 0.49374 0.96449 0.0
H2006 H 0.04489 0.49381 0.99372 0.0
H2007 H 0.04037 0.47151 0.97332 0.0
H2008 H 0.9926 0.47982 0.0546 0.0
H2009 H 0.98796 0.42713 0.0034 0.0
H2010 H 0.98884 0.52284 0.01541 0.0
H2011 H 0.01775 0.5182 0.01505 0.0
H2012 H 0.00276 0.51556 0.04311 0.0
H2013 H 0.98122 0.45797 0.95193 0.0
H2014 H 0.9926 0.43211 0.96147 0.0
H2015 H 0.01025 0.45446 0.95277 0.0
C2016 C 0.01697 0.99172 0.05275 0.0
C2017 C 0.03965 0.99325 0.04923 0.0
C2018 C 0.00232 -0.00047 0.03515 0.0
C2019 C 0.0106 0.00888 0.0135 0.0
C2020 C 0.03346 0.01118 0.01026 0.0
C2021 C 0.04773 0.00336 0.02821 0.0
C2022 C 0.978 0.99704 0.03934 0.0
C2023 C 0.04289 0.02098 0.98736 0.0
C2024 C 0.97367 0.00531 0.9583 0.0
C2025 C 0.96477 0.02644 0.95754 0.0
C2026 C 0.989 -0.00047 0.97614 0.0
C2027 C 0.99536 0.01521 0.99373 0.0
C2028 C 0.98676 0.03669 0.99275 0.0
C2029 C 0.97161 0.04207 0.97459 0.0
C2030 C 0.99804 0.97651 0.97648 0.0
C2031 C 0.99304 0.05377 0.01131 0.0
H2032 H 0.01072 0.98399 0.06905 0.0
H2033 H 0.06526 0.00421 0.02522 0.0
H2034 H 0.96962 0.01299 0.03677 0.0
H2035 H 0.97107 0.98547 0.02585 0.0
H2036 H 0.97423 0.99083 0.05782 0.0
H2037 H 0.06095 0.02296 0.98839 0.0
H2038 H 0.03896 0.01028 0.97168 0.0
H2039 H 0.03541 0.03721 0.98373 0.0
H2040 H 0.96845 0.99326 0.94506 0.0
H2041 H 0.9645 0.05833 0.9743 0.0
H2042 H 0.99317 0.9682 0.99355 0.0
H2043 H 0.0162 0.97693 0.97603 0.0
H2044 H 0.99212 0.96658 0.9609 0.0
H2045 H 0.98779 0.04837 0.02963 0.0
H2046 H 0.98548 0.06995 0.00744 0.0
H2047 H 0.01109 0.05576 0.01183 0.0
C2048 C 0.47881 0.51528 0.54527 0.0
C2049 C 0.48264 0.53781 0.54292 0.0
C2050 C 0.48589 0.50056 0.52737 0.0
C2051 C 0.49698 0.50864 0.50666 0.0
C2052 C 0.50122 0.53131 0.50439 0.0
C2053 C 0.49398 0.54563 0.52254 0.0
C2054 C 0.48125 0.47643 0.53044 0.0
C2055 C 0.51299 0.54051 0.48254 0.0
C2056 C 0.53186 0.46957 0.46996 0.0
C2057 C 0.51792 0.46453 0.45049 0.0
C2058 C 0.52523 0.4839 0.48836 0.0
C2059 C 0.50415 0.4934 0.48727 0.0
C2060 C 0.49001 0.48848 0.46762 0.0
C2061 C 0.49705 0.47399 0.44946 0.0
C2062 C 0.54071 0.48867 0.5091 0.0
C2063 C 0.46743 0.49844 0.46587 0.0
H2064 H 0.47011 0.5092 0.56104 0.0
H2065 H 0.49657 0.56308 0.52036 0.0
H2066 H 0.47079 0.47057 0.51531 0.0
H2067 H 0.49676 0.46699 0.52972 0.0
H2068 H 0.47286 0.47277 0.54787 0.0
H2069 H 0.5154 0.55851 0.48381 0.0
H2070 H 0.52924 0.5326 0.48053 0.0
H2071 H 0.5035 0.53689 0.46583 0.0
H2072 H 0.54781 0.46184 0.47114 0.0
H2073 H 0.48627 0.47007 0.43444 0.0
H2074 H 0.53309 0.48375 0.52655 0.0
H2075 H 0.54399 0.50651 0.51015 0.0
H2076 H 0.55658 0.47994 0.50718 0.0
H2077 H 0.45763 0.49388 0.48205 0.0
H2078 H 0.45851 0.49302 0.44934 0.0
H2079 H 0.46866 0.51656 0.46562 0.0
C2080 C 0.02871 0.53647 0.47618 0.0
C2081 C 0.03889 0.51932 0.46354 0.0
C2082 C 0.01239 0.53231 0.49343 0.0
C2083 C 0.00616 0.51044 0.49823 0.0
C2084 C 0.01648 0.493 0.48571 0.0
C2085 C 0.03278 0.49766 0.4685 0.0
C2086 C 0.00177 0.55131 0.50643 0.0
C2087 C 0.01021 0.46946 0.4904 0.0
C2088 C 0.97636 0.49718 0.5569 0.0
C2089 C 0.95465 0.49537 0.54883 0.0
C2090 C 0.99332 0.50234 0.54068 0.0
C2091 C 0.98838 0.50583 0.51587 0.0
C2092 C 0.96644 0.50463 0.50775 0.0
C2093 C 0.94987 0.49935 0.5243 0.0
C2094 C 0.01656 0.50354 0.54996 0.0
C2095 C 0.96053 0.50833 0.48144 0.0
H2096 H 0.03374 0.55323 0.47284 0.0
H2097 H 0.04059 0.48437 0.45875 0.0
H2098 H 0.98392 0.55147 0.50264 0.0
H2099 H 0.00381 0.54946 0.52633 0.0
H2100 H 0.00878 0.56734 0.50086 0.0
H2101 H 0.02012 0.4578 0.47951 0.0
H2102 H 0.01236 0.46553 0.50991 0.0
H2103 H 0.99265 0.46694 0.48599 0.0
H2104 H 0.98014 0.49425 0.57584 0.0
H2105 H 0.93323 0.49752 0.51776 0.0
H2106 H 0.02385 0.51968 0.54545 0.0
H2107 H 0.02669 0.49086 0.5409 0.0
H2108 H 0.01757 0.50106 0.5699 0.0
H2109 H 0.96662 0.52454 0.47534 0.0
H2110 H 0.94257 0.50759 0.47827 0.0
H2111 H 0.96855 0.49575 0.46996 0.0
C2112 C 0.99348 0.96547 0.53907 0.0
C2113 C 0.01136 0.95156 0.53547 0.0
C2114 C 0.98919 0.98254 0.52266 0.0
C2115 C 0.00343 0.98587 0.50267 0.0
C2116 C 0.02202 0.97235 0.49965 0.0
C2117 C 0.02561 0.95519 0.51598 0.0
C2118 C 0.96906 0.99652 0.52624 0.0
C2119 C 0.03784 0.97568 0.47891 0.0
C2120 C 0.97971 0.01325 0.44689 0.0
C2121 C 0.98615 0.03509 0.45027 0.0
C2122 C 0.98544 0.99703 0.46371 0.0
C2123 C -0.00175 0.00272 0.48416 0.0
C2124 C 0.00575 0.02448 0.48706 0.0
C2125 C -0.00051 0.04046 0.47015 0.0
C2126 C 0.97716 0.97396 0.46001 0.0
C2127 C 0.0198 0.03102 0.50843 0.0
H2128 H 0.98255 0.96254 0.55423 0.0
H2129 H 0.03956 0.94444 0.51346 0.0
H2130 H 0.97367 0.01407 0.52697 0.0
H2131 H 0.95782 0.99442 0.51057 0.0
H2132 H 0.96008 0.99226 0.54313 0.0
H2133 H 0.05239 0.96482 0.48031 0.0
H2134 H 0.02948 0.97232 0.46142 0.0
H2135 H 0.04349 0.99295 0.47841 0.0
H2136 H 0.96969 0.00894 0.43137 0.0
H2137 H 0.00429 0.05734 0.47308 0.0
H2138 H 0.96659 0.96915 0.4755 0.0
H2139 H 0.99109 0.96232 0.45947 0.0
H2140 H 0.96759 0.97219 0.44296 0.0
H2141 H 0.01026 0.02934 0.52546 0.0
H2142 H 0.0257 0.04818 0.507 0.0
H2143 H 0.03418 0.02 0.50992 0.0
C2144 C 0.51997 0.02157 0.54846 0.0
C2145 C 0.54226 0.01826 0.54355 0.0
C2146 C 0.50386 0.01517 0.53174 0.0
C2147 C 0.51023 0.00515 0.50969 0.0
C2148 C 0.53267 0.00159 0.50472 0.0
C2149 C 0.54842 0.00828 0.52166 0.0
C2150 C 0.48004 0.01922 0.53761 0.0
C2151 C 0.54007 0.99083 0.48143 0.0
C2152 C 0.46928 0.96941 0.4767 0.0
C2153 C 0.46242 0.98318 0.45776 0.0
C2154 C 0.48476 0.97641 0.49375 0.0
C2155 C 0.49343 0.99781 0.49202 0.0
C2156 C 0.48639 0.01195 0.47318 0.0
C2157 C 0.47094 0.00444 0.45622 0.0
C2158 C 0.49188 0.96086 0.51357 0.0
C2159 C 0.49526 0.03494 0.4709 0.0
H2160 H 0.51512 0.02918 0.56539 0.0
H2161 H 0.56563 0.00615 0.51747 0.0
H2162 H 0.47246 0.02946 0.52324 0.0
H2163 H 0.47101 0.00346 0.53801 0.0
H2164 H 0.47785 0.02754 0.55537 0.0
H2165 H 0.55817 0.98921 0.48039 0.0
H2166 H 0.53268 0.97429 0.47986 0.0
H2167 H 0.53437 0.00053 0.46562 0.0
H2168 H 0.46232 0.95315 0.47841 0.0
H2169 H 0.46571 0.01513 0.44161 0.0
H2170 H 0.48846 0.96812 0.53163 0.0
H2171 H 0.50981 0.95808 0.51246 0.0
H2172 H 0.48346 0.94476 0.5124 0.0
H2173 H 0.49228 0.04414 0.48794 0.0
H2174 H 0.4877 0.04405 0.45559 0.0
H2175 H 0.51325 0.03441 0.46808 0.0
C2176 C 0.53595 0.28684 0.27724 0.0
C2177 C 0.54861 0.2835 0.29816 0.0
C2178 C 0.5354 0.27114 0.25863 0.0
C2179 C 0.54773 0.25163 0.26109 0.0
C2180 C 0.56011 0.24793 0.28239 0.0
C2181 C 0.56051 0.26395 0.30059 0.0
C2182 C 0.52208 0.27567 0.23609 0.0
C2183 C 0.57347 0.22732 0.28568 0.0
C2184 C 0.5353 0.20315 0.22005 0.0
C2185 C 0.5517 0.20526 0.20237 0.0
C2186 C 0.53372 0.21817 0.23927 0.0
C2187 C 0.54884 0.2357 0.24076 0.0
C2188 C 0.56545 0.23786 0.22303 0.0
C2189 C 0.56674 0.22256 0.20415 0.0
C2190 C 0.51589 0.21531 0.25798 0.0
C2191 C 0.58193 0.2563 0.22402 0.0
H2192 H 0.5265 0.30176 0.27536 0.0
H2193 H 0.57066 0.26137 0.31647 0.0
H2194 H 0.53309 0.27682 0.22013 0.0
H2195 H 0.51054 0.26199 0.23264 0.0
H2196 H 0.51258 0.29114 0.23749 0.0
H2197 H 0.58097 0.22626 0.30402 0.0
H2198 H 0.56306 0.21266 0.28279 0.0
H2199 H 0.58675 0.22679 0.27195 0.0
H2200 H 0.52352 0.18993 0.21866 0.0
H2201 H 0.57973 0.22406 0.19085 0.0
H2202 H 0.50535 0.2301 0.25847 0.0
H2203 H 0.52325 0.21346 0.27628 0.0
H2204 H 0.50544 0.20081 0.25424 0.0
H2205 H 0.57334 0.27231 0.22397 0.0
H2206 H 0.59353 0.25591 0.2085 0.0
H2207 H 0.59147 0.25533 0.24112 0.0
C2208 C 0.21362 0.56334 0.2829 0.0
C2209 C 0.20934 0.54513 0.29767 0.0
C2210 C 0.22972 0.56255 0.26482 0.0
C2211 C 0.24198 0.54311 0.26149 0.0
C2212 C 0.23781 0.52466 0.27633 0.0
C2213 C 0.22151 0.52588 0.29426 0.0
C2214 C 0.23368 0.58259 0.24934 0.0
C2215 C 0.25059 0.50367 0.27329 0.0
C2216 C 0.26866 0.53778 0.19972 0.0
C2217 C 0.28983 0.54569 0.20433 0.0
C2218 C 0.25315 0.53602 0.21837 0.0
C2219 C 0.259 0.54223 0.24224 0.0
C2220 C 0.28064 0.54923 0.24726 0.0
C2221 C 0.29582 0.5509 0.22822 0.0
C2222 C 0.23025 0.52842 0.21231 0.0
C2223 C 0.28749 0.5559 0.27253 0.0
H2224 H 0.20462 0.57842 0.28577 0.0
H2225 H 0.21818 0.51171 0.30551 0.0
H2226 H 0.25089 0.58814 0.25143 0.0
H2227 H 0.23119 0.57852 0.22991 0.0
H2228 H 0.22264 0.59637 0.25418 0.0
H2229 H 0.24547 0.49087 0.28644 0.0
H2230 H 0.24834 0.49723 0.25463 0.0
H2231 H 0.26834 0.50689 0.27573 0.0
H2232 H 0.26407 0.53334 0.18135 0.0
H2233 H 0.31209 0.55717 0.23188 0.0
H2234 H 0.21856 0.54211 0.21498 0.0
H2235 H 0.22523 0.51499 0.22466 0.0
H2236 H 0.22884 0.52258 0.19327 0.0
H2237 H 0.2787 0.57106 0.27784 0.0
H2238 H 0.30539 0.55898 0.27385 0.0
H2239 H 0.28298 0.54302 0.28582 0.0
C2240 C 0.96539 0.26977 0.19773 0.0
C2241 C 0.95067 0.28734 0.1991 0.0
C2242 C 0.96654 0.25415 0.21635 0.0
C2243 C 0.95234 0.25599 0.23654 0.0
C2244 C 0.93778 0.27398 0.23824 0.0
C2245 C 0.93724 0.28956 0.21954 0.0
C2246 C 0.98256 0.23543 0.21415 0.0
C2247 C 0.9222 0.27635 0.25936 0.0
C2248 C 0.93675 0.20462 0.27115 0.0
C2249 C 0.94904 0.20698 0.29246 0.0
C2250 C 0.93793 0.22032 0.25262 0.0
C2251 C 0.95197 0.23862 0.25539 0.0
C2252 C 0.96498 0.24067 0.27653 0.0
C2253 C 0.96323 0.22489 0.29492 0.0
C2254 C 0.92362 0.2177 0.23044 0.0
C2255 C 0.98041 0.25976 0.27993 0.0
H2256 H 0.97588 0.26819 0.18195 0.0
H2257 H 0.92571 0.30303 0.22045 0.0
H2258 H 0.99277 0.23429 0.23077 0.0
H2259 H 0.97351 0.21975 0.21241 0.0
H2260 H 0.99352 0.23725 0.19818 0.0
H2261 H 0.91242 0.29165 0.25832 0.0
H2262 H 0.9108 0.2622 0.25978 0.0
H2263 H 0.93141 0.27628 0.27672 0.0
H2264 H 0.92559 0.19089 0.26937 0.0
H2265 H 0.97286 0.2266 0.31135 0.0
H2266 H 0.9338 0.2179 0.21377 0.0
H2267 H 0.91204 0.23166 0.22919 0.0
H2268 H 0.91404 0.20224 0.2308 0.0
H2269 H 0.99159 0.26112 0.26413 0.0
H2270 H 0.99039 0.2582 0.2967 0.0
H2271 H 0.97093 0.27523 0.28093 0.0
C2272 C 0.27611 0.96299 0.293 0.0
C2273 C 0.29402 0.94873 0.29103 0.0
C2274 C 0.26 0.96381 0.27488 0.0
C2275 C 0.26177 0.94986 0.25448 0.0
C2276 C 0.28022 0.93599 0.25198 0.0
C2277 C 0.29622 0.93568 0.27027 0.0
C2278 C 0.24073 0.97905 0.27798 0.0
C2279 C 0.2826 0.92079 0.23053 0.0
C2280 C 0.20963 0.93232 0.22246 0.0
C2281 C 0.21033 0.94508 0.20135 0.0
C2282 C 0.22618 0.93391 0.24003 0.0
C2283 C 0.2437 0.94878 0.23647 0.0
C2284 C 0.24416 0.96214 0.2155 0.0
C2285 C 0.2275 0.96005 0.19811 0.0
C2286 C 0.22521 0.91927 0.26211 0.0
C2287 C 0.26241 0.97839 0.21127 0.0
H2288 H 0.27453 0.97325 0.30896 0.0
H2289 H 0.30995 0.92449 0.26885 0.0
H2290 H 0.23847 0.98917 0.26144 0.0
H2291 H 0.22554 0.96934 0.28052 0.0
H2292 H 0.24273 0.99011 0.29383 0.0
H2293 H 0.29851 0.91196 0.23063 0.0
H2294 H 0.26918 0.90853 0.23074 0.0
H2295 H 0.28119 0.9301 0.21332 0.0
H2296 H 0.1965 0.92057 0.22487 0.0
H2297 H 0.22793 0.97009 0.18188 0.0
H2298 H 0.22556 0.9293 0.27888 0.0
H2299 H 0.23979 0.90843 0.26252 0.0
H2300 H 0.21026 0.9089 0.26237 0.0
H2301 H 0.26383 0.98964 0.227 0.0
H2302 H 0.2598 0.98828 0.19459 0.0
H2303 H 0.27825 0.96961 0.2096 0.0
C2304 C 0.46901 0.78192 0.78591 0.0
C2305 C 0.45093 0.79602 0.7842 0.0
C2306 C 0.47251 0.76551 0.7685 0.0
C2307 C 0.45753 0.76316 0.74907 0.0
C2308 C 0.4399 0.77806 0.74662 0.0
C2309 C 0.43685 0.79434 0.76419 0.0
C2310 C 0.49159 0.75004 0.77157 0.0
C2311 C 0.42363 0.77618 0.72605 0.0
C2312 C 0.4687 0.72974 0.69251 0.0
C2313 C 0.45625 0.71087 0.69709 0.0
C2314 C 0.47035 0.74646 0.70986 0.0
C2315 C 0.45914 0.74428 0.7322 0.0
C2316 C 0.44756 0.72475 0.73743 0.0
C2317 C 0.44629 0.70824 0.71981 0.0
C2318 C 0.48311 0.76692 0.70378 0.0
C2319 C 0.43538 0.72182 0.76106 0.0
H2320 H 0.47983 0.78304 0.80145 0.0
H2321 H 0.42306 0.80543 0.76263 0.0
H2322 H 0.48543 0.73358 0.7767 0.0
H2323 H 0.50064 0.74822 0.75422 0.0
H2324 H 0.50318 0.75567 0.78581 0.0
H2325 H 0.41159 0.78982 0.726 0.0
H2326 H 0.43229 0.77605 0.70836 0.0
H2327 H 0.41456 0.76049 0.72759 0.0
H2328 H 0.47669 0.73166 0.67507 0.0
H2329 H 0.43651 0.69377 0.72335 0.0
H2330 H 0.49411 0.77144 0.71901 0.0
H2331 H 0.4716 0.78075 0.70099 0.0
H2332 H 0.49309 0.76492 0.68707 0.0
H2333 H 0.44628 0.72545 0.77666 0.0
H2334 H 0.42881 0.70496 0.76319 0.0
H2335 H 0.4215 0.73353 0.76185 0.0
C2336 C 0.76446 0.44551 0.69821 0.0
C2337 C 0.78698 0.44495 0.70335 0.0
C2338 C 0.74892 0.44695 0.71684 0.0
C2339 C 0.75606 0.44824 0.74121 0.0
C2340 C 0.77875 0.44886 0.74649 0.0
C2341 C 0.79396 0.44708 0.72749 0.0
C2342 C 0.72486 0.44613 0.71049 0.0
C2343 C 0.78696 0.4505 0.77228 0.0
C2344 C 0.71476 0.46472 0.78948 0.0
C2345 C 0.7092 0.4443 0.79933 0.0
C2346 C 0.73012 0.46634 0.7706 0.0
C2347 C 0.73982 0.44705 0.76123 0.0
C2348 C 0.73392 0.42638 0.77086 0.0
C2349 C 0.71877 0.42528 0.78989 0.0
C2350 C 0.73623 0.48865 0.76094 0.0
C2351 C 0.74363 0.40541 0.76108 0.0
H2352 H 0.75892 0.44444 0.67955 0.0
H2353 H 0.8113 0.44657 0.73166 0.0
H2354 H 0.71753 0.43088 0.71786 0.0
H2355 H 0.71607 0.46009 0.7189 0.0
H2356 H 0.72201 0.44653 0.69058 0.0
H2357 H 0.80496 0.45308 0.77314 0.0
H2358 H 0.77872 0.46418 0.78187 0.0
H2359 H 0.78295 0.43521 0.78221 0.0
H2360 H 0.70748 0.47944 0.79696 0.0
H2361 H 0.71429 0.40948 0.79737 0.0
H2362 H 0.73292 0.4895 0.74117 0.0
H2363 H 0.75403 0.49149 0.76349 0.0
H2364 H 0.72708 0.50203 0.7701 0.0
H2365 H 0.74023 0.40402 0.74136 0.0
H2366 H 0.737 0.39066 0.77033 0.0
H2367 H 0.76168 0.40559 0.76337 0.0
C2368 C 0.04508 0.79774 0.72835 0.0
C2369 C 0.05237 0.79127 0.70533 0.0
C2370 C 0.04285 0.78239 0.74716 0.0
C2371 C 0.04804 0.76013 0.74275 0.0
C2372 C 0.05435 0.75338 0.71922 0.0
C2373 C 0.05639 0.76903 0.70079 0.0
C2374 C 0.03595 0.79013 0.77203 0.0
C2375 C 0.05995 0.7298 0.71375 0.0
C2376 C 0.06994 0.726 0.7947 0.0
C2377 C 0.05177 0.71304 0.80065 0.0
C2378 C 0.06879 0.74156 0.77609 0.0
C2379 C 0.04896 0.74426 0.76312 0.0
C2380 C 0.03051 0.73128 0.76905 0.0
C2381 C 0.03216 0.71572 0.78773 0.0
C2382 C 0.08891 0.75492 0.77011 0.0
C2383 C 0.00909 0.73381 0.75563 0.0
H2384 H 0.04196 0.81492 0.73191 0.0
H2385 H 0.06155 0.7639 0.68285 0.0
H2386 H 0.02262 0.77965 0.77923 0.0
H2387 H 0.04999 0.78878 0.78474 0.0
H2388 H 0.03027 0.80742 0.77185 0.0
H2389 H 0.06284 0.72696 0.6941 0.0
H2390 H 0.07496 0.72508 0.72385 0.0
H2391 H 0.04658 0.71882 0.71989 0.0
H2392 H 0.08521 0.72375 0.80443 0.0
H2393 H 0.01804 0.70585 0.79248 0.0
H2394 H 0.08516 0.77265 0.77159 0.0
H2395 H 0.09399 0.75175 0.7511 0.0
H2396 H 0.10291 0.75112 0.78228 0.0
H2397 H 0.00329 0.75098 0.75694 0.0
H2398 H 0.99615 0.7228 0.76285 0.0
H2399 H 0.01148 0.73015 0.73609 0.0
C2400 C 0.7149 0.0293 0.71043 0.0
C2401 C 0.70252 0.04858 0.71181 0.0
C2402 C 0.7314 0.0249 0.72752 0.0
C2403 C 0.73532 0.04005 0.74646 0.0
C2404 C 0.72212 0.05904 0.74852 0.0
C2405 C 0.70597 0.06314 0.73105 0.0
C2406 C 0.74526 0.0046 0.72464 0.0
C2407 C 0.72557 0.07542 0.7687 0.0
C2408 C 0.76739 0.02609 0.80323 0.0
C2409 C 0.78713 0.03726 0.79905 0.0
C2410 C 0.75069 0.02588 0.78574 0.0
C2411 C 0.75393 0.03691 0.76346 0.0
C2412 C 0.77438 0.04689 0.75846 0.0
C2413 C 0.79071 0.04702 0.77636 0.0
C2414 C 0.72914 0.01502 0.79173 0.0
C2415 C 0.77853 0.05859 0.73475 0.0
H2416 H 0.71237 0.01817 0.69536 0.0
H2417 H 0.69626 0.07798 0.73214 0.0
H2418 H 0.76222 0.00938 0.71972 0.0
H2419 H 0.74617 0.99546 0.742 0.0
H2420 H 0.73881 0.9935 0.71034 0.0
H2421 H 0.71298 0.08856 0.76862 0.0
H2422 H 0.72515 0.06706 0.78658 0.0
H2423 H 0.74194 0.08312 0.76682 0.0
H2424 H 0.76469 0.01812 0.82055 0.0
H2425 H 0.80583 0.05582 0.77302 0.0
H2426 H 0.72378 0.00431 0.77659 0.0
H2427 H 0.71636 0.02774 0.7942 0.0
H2428 H 0.73009 0.00508 0.80858 0.0
H2429 H 0.7737 0.04809 0.71921 0.0
H2430 H 0.796 0.06329 0.73258 0.0
H2431 H 0.76841 0.07366 0.73392 0.0
loop_
_geom_bond_atom_site_label_1
_geom_bond_atom_site_label_2
_geom_bond_distance
_geom_bond_site_symmetry_2
_ccdc_geom_bond_type
Li0 N17 1.990 . S
Li0 O60 1.956 . S
Li0 O61 1.970 . S
Li0 O62 1.961 . S
Li1 N25 1.990 . S
Li1 O60 1.970 . S
Li1 O61 1.956 . S
Li1 O63 1.961 . S
Li2 N47 1.990 . S
Li2 O60 1.961 . S
Li2 O62 1.956 . S
Li2 O63 1.970 . S
Li3 N53 1.990 . S
Li3 O61 1.961 . S
Li3 O62 1.970 . S
Li3 O63 1.956 . S
C4 C6 1.348 . S
C4 C7 1.356 . S
C4 O60 1.325 . S
N5 C8 1.314 . S
N5 C9 1.279 . S
C6 C4 1.348 . S
C6 C8 1.353 . S
C6 H64 0.929 . S
C7 C4 1.356 . S
C7 C9 1.358 . S
C7 H65 0.930 . S
C8 N5 1.314 . S
C8 C6 1.353 . S
C8 H66 0.930 . S
C9 N5 1.279 . S
C9 C7 1.358 . S
C9 H67 0.930 . S
C10 C13 1.348 . S
C10 C14 1.356 . S
C10 O61 1.325 . S
C11 N12 1.279 . S
C11 C14 1.358 . S
C11 H68 0.930 . S
N12 C11 1.279 . S
N12 C15 1.314 . S
C13 C10 1.348 . S
C13 C15 1.353 . S
C13 H69 0.929 . S
C14 C10 1.356 . S
C14 C11 1.358 . S
C14 H70 0.930 . S
C15 N12 1.314 . S
C15 C13 1.353 . S
C15 H71 0.930 . S
C16 N17 1.314 . S
C16 C21 1.353 . S
C16 H22 0.930 . S
N17 Li0 1.990 . S
N17 C16 1.314 . S
N17 C19 1.279 . S
C18 C19 1.358 . S
C18 C20 1.356 . S
C18 H72 0.930 . S
C19 N17 1.279 . S
C19 C18 1.358 . S
C19 H23 0.930 . S
C20 C18 1.356 . S
C20 C21 1.348 . S
C21 C16 1.353 . S
C21 C20 1.348 . S
C21 H73 0.929 . S
H22 C16 0.930 . S
H23 C19 0.930 . S
C24 N25 1.314 . S
C24 C26 1.353 . S
C24 H30 0.930 . S
N25 Li1 1.990 . S
N25 C24 1.314 . S
N25 C28 1.279 . S
C26 C24 1.353 . S
C26 C29 1.348 . S
C26 H74 0.929 . S
C27 C28 1.358 . S
C27 C29 1.356 . S
C27 H75 0.930 . S
C28 N25 1.279 . S
C28 C27 1.358 . S
C28 H31 0.930 . S
C29 C26 1.348 . S
C29 C27 1.356 . S
H30 C24 0.930 . S
H31 C28 0.930 . S
C32 C34 1.348 . S
C32 C35 1.356 . S
C32 O62 1.325 . S
N33 C36 1.314 . S
N33 C37 1.279 . S
C34 C32 1.348 . S
C34 C36 1.353 . S
C34 H76 0.929 . S
C35 C32 1.356 . S
C35 C37 1.358 . S
C35 H77 0.930 . S
C36 N33 1.314 . S
C36 C34 1.353 . S
C36 H78 0.930 . S
C37 N33 1.279 . S
C37 C35 1.358 . S
C37 H79 0.930 . S
C38 C39 1.348 . S
C38 C40 1.356 . S
C38 O63 1.325 . S
C39 C38 1.348 . S
C39 C41 1.353 1_554 S
C39 H80 0.929 . S
C40 C38 1.356 . S
C40 C42 1.358 1_554 S
C40 H81 0.930 . S
C41 C39 1.353 1_556 S
C41 N43 1.314 . S
C41 H82 0.930 . S
C42 C40 1.358 1_556 S
C42 N43 1.279 . S
C42 H83 0.930 . S
N43 C41 1.314 . S
N43 C42 1.279 . S
C44 C46 1.353 . S
C44 N47 1.314 . S
C44 H50 0.930 . S
C45 N47 1.279 . S
C45 C48 1.358 . S
C45 H51 0.930 . S
C46 C44 1.353 . S
C46 C49 1.348 . S
C46 H84 0.929 . S
N47 Li2 1.990 . S
N47 C44 1.314 . S
N47 C45 1.279 . S
C48 C45 1.358 . S
C48 C49 1.356 . S
C48 H85 0.930 . S
C49 C46 1.348 . S
C49 C48 1.356 . S
H50 C44 0.930 . S
H51 C45 0.930 . S
C52 N53 1.314 . S
C52 C54 1.353 . S
C52 H58 0.930 . S
N53 Li3 1.990 . S
N53 C52 1.314 . S
N53 C56 1.279 . S
C54 C52 1.353 . S
C54 C57 1.348 . S
C54 H86 0.929 . S
C55 C56 1.358 . S
C55 C57 1.356 . S
C55 H87 0.930 1_554 S
C56 N53 1.279 . S
C56 C55 1.358 . S
C56 H59 0.930 . S
C57 C54 1.348 . S
C57 C55 1.356 . S
H58 C52 0.930 . S
H59 C56 0.930 . S
O60 Li0 1.956 . S
O60 Li1 1.970 . S
O60 Li2 1.961 . S
O60 C4 1.325 . S
O61 Li0 1.970 . S
O61 Li1 1.956 . S
O61 Li3 1.961 . S
O61 C10 1.325 . S
O62 Li0 1.961 . S
O62 Li2 1.956 . S
O62 Li3 1.970 . S
O62 C32 1.325 . S
O63 Li1 1.961 . S
O63 Li2 1.970 . S
O63 Li3 1.956 . S
O63 C38 1.325 . S
H64 C6 0.929 . S
H65 C7 0.930 . S
H66 C8 0.930 . S
H67 C9 0.930 . S
H68 C11 0.930 . S
H69 C13 0.929 . S
H70 C14 0.930 . S
H71 C15 0.930 . S
H72 C18 0.930 . S
H73 C21 0.929 . S
H74 C26 0.929 . S
H75 C27 0.930 . S
H76 C34 0.929 . S
H77 C35 0.930 . S
H78 C36 0.930 . S
H79 C37 0.930 . S
H80 C39 0.929 . S
H81 C40 0.930 . S
H82 C41 0.930 . S
H83 C42 0.930 . S
H84 C46 0.929 . S
H85 C48 0.930 . S
H86 C54 0.929 . S
H87 C55 0.930 1_556 S
Li88 N105 1.990 . S
Li88 O148 1.956 . S
Li88 O149 1.970 . S
Li88 O150 1.961 . S
Li89 N113 1.990 . S
Li89 O148 1.970 . S
Li89 O149 1.956 . S
Li89 O151 1.961 . S
Li90 N135 1.990 . S
Li90 O148 1.961 . S
Li90 O150 1.956 . S
Li90 O151 1.970 . S
Li91 N141 1.990 . S
Li91 O149 1.961 . S
Li91 O150 1.970 . S
Li91 O151 1.956 . S
C92 C94 1.348 . S
C92 C95 1.356 . S
C92 O148 1.325 . S
N93 C96 1.314 . S
N93 C97 1.279 . S
C94 C92 1.348 . S
C94 C96 1.353 . S
C94 H152 0.929 . S
C95 C92 1.356 . S
C95 C97 1.358 . S
C95 H153 0.930 . S
C96 N93 1.314 . S
C96 C94 1.353 . S
C96 H154 0.930 . S
C97 N93 1.279 . S
C97 C95 1.358 . S
C97 H155 0.930 . S
C98 C101 1.348 . S
C98 C102 1.356 . S
C98 O149 1.325 . S
C99 N100 1.279 . S
C99 C102 1.358 . S
C99 H156 0.930 . S
N100 C99 1.279 . S
N100 C103 1.314 . S
C101 C98 1.348 . S
C101 C103 1.353 . S
C101 H157 0.929 . S
C102 C98 1.356 . S
C102 C99 1.358 . S
C102 H158 0.930 . S
C103 N100 1.314 . S
C103 C101 1.353 . S
C103 H159 0.930 . S
C104 N105 1.314 . S
C104 C109 1.353 . S
C104 H110 0.930 . S
N105 Li88 1.990 . S
N105 C104 1.314 . S
N105 C107 1.279 . S
C106 C107 1.358 . S
C106 C108 1.356 . S
C106 H160 0.930 . S
C107 N105 1.279 . S
C107 C106 1.358 . S
C107 H111 0.930 . S
C108 C106 1.356 . S
C108 C109 1.348 . S
C109 C104 1.353 . S
C109 C108 1.348 . S
C109 H161 0.929 . S
H110 C104 0.930 . S
H111 C107 0.930 . S
C112 N113 1.314 . S
C112 C114 1.353 . S
C112 H118 0.930 . S
N113 Li89 1.990 . S
N113 C112 1.314 . S
N113 C116 1.279 . S
C114 C112 1.353 . S
C114 C117 1.348 . S
C114 H162 0.929 . S
C115 C116 1.358 . S
C115 C117 1.356 . S
C115 H163 0.930 . S
C116 N113 1.279 . S
C116 C115 1.358 . S
C116 H119 0.930 . S
C117 C114 1.348 . S
C117 C115 1.356 . S
H118 C112 0.930 . S
H119 C116 0.930 . S
C120 C122 1.348 . S
C120 C123 1.356 . S
C120 O150 1.325 . S
N121 C124 1.314 . S
N121 C125 1.279 . S
C122 C120 1.348 . S
C122 C124 1.353 . S
C122 H164 0.929 . S
C123 C120 1.356 . S
C123 C125 1.358 . S
C123 H165 0.930 . S
C124 N121 1.314 . S
C124 C122 1.353 . S
C124 H166 0.930 . S
C125 N121 1.279 . S
C125 C123 1.358 . S
C125 H167 0.930 . S
C126 C127 1.348 . S
C126 C128 1.356 . S
C126 O151 1.325 . S
C127 C126 1.348 . S
C127 C129 1.353 1_554 S
C127 H168 0.929 . S
C128 C126 1.356 . S
C128 C130 1.358 1_554 S
C128 H169 0.930 . S
C129 C127 1.353 1_556 S
C129 N131 1.314 . S
C129 H170 0.930 . S
C130 C128 1.358 1_556 S
C130 N131 1.279 . S
C130 H171 0.930 . S
N131 C129 1.314 . S
N131 C130 1.279 . S
C132 C134 1.353 . S
C132 N135 1.314 . S
C132 H138 0.930 . S
C133 N135 1.279 . S
C133 C136 1.358 . S
C133 H139 0.930 . S
C134 C132 1.353 . S
C134 C137 1.348 . S
C134 H172 0.929 . S
N135 Li90 1.990 . S
N135 C132 1.314 . S
N135 C133 1.279 . S
C136 C133 1.358 . S
C136 C137 1.356 . S
C136 H173 0.930 . S
C137 C134 1.348 . S
C137 C136 1.356 . S
H138 C132 0.930 . S
H139 C133 0.930 . S
C140 N141 1.314 . S
C140 C142 1.353 . S
C140 H146 0.930 . S
N141 Li91 1.990 . S
N141 C140 1.314 . S
N141 C144 1.279 . S
C142 C140 1.353 . S
C142 C145 1.348 . S
C142 H174 0.929 . S
C143 C144 1.358 . S
C143 C145 1.356 . S
C143 H175 0.930 1_554 S
C144 N141 1.279 . S
C144 C143 1.358 . S
C144 H147 0.930 . S
C145 C142 1.348 . S
C145 C143 1.356 . S
H146 C140 0.930 . S
H147 C144 0.930 . S
O148 Li88 1.956 . S
O148 Li89 1.970 . S
O148 Li90 1.961 . S
O148 C92 1.325 . S
O149 Li88 1.970 . S
O149 Li89 1.956 . S
O149 Li91 1.961 . S
O149 C98 1.325 . S
O150 Li88 1.961 . S
O150 Li90 1.956 . S
O150 Li91 1.970 . S
O150 C120 1.325 . S
O151 Li89 1.961 . S
O151 Li90 1.970 . S
O151 Li91 1.956 . S
O151 C126 1.325 . S
H152 C94 0.929 . S
H153 C95 0.930 . S
H154 C96 0.930 . S
H155 C97 0.930 . S
H156 C99 0.930 . S
H157 C101 0.929 . S
H158 C102 0.930 . S
H159 C103 0.930 . S
H160 C106 0.930 . S
H161 C109 0.929 . S
H162 C114 0.929 . S
H163 C115 0.930 . S
H164 C122 0.929 . S
H165 C123 0.930 . S
H166 C124 0.930 . S
H167 C125 0.930 . S
H168 C127 0.929 . S
H169 C128 0.930 . S
H170 C129 0.930 . S
H171 C130 0.930 . S
H172 C134 0.929 . S
H173 C136 0.930 . S
H174 C142 0.929 . S
H175 C143 0.930 1_556 S
Li176 N193 1.990 . S
Li176 O236 1.956 . S
Li176 O237 1.970 . S
Li176 O238 1.961 . S
Li177 N201 1.990 . S
Li177 O236 1.970 . S
Li177 O237 1.956 . S
Li177 O239 1.961 . S
Li178 N223 1.990 . S
Li178 O236 1.961 . S
Li178 O238 1.956 . S
Li178 O239 1.970 . S
Li179 N229 1.990 . S
Li179 O237 1.961 . S
Li179 O238 1.970 . S
Li179 O239 1.956 . S
C180 C182 1.348 . S
C180 C183 1.356 . S
C180 O236 1.325 . S
N181 C184 1.314 1_455 S
N181 C185 1.279 1_455 S
C182 C180 1.348 . S
C182 C184 1.353 . S
C182 H240 0.929 . S
C183 C180 1.356 . S
C183 C185 1.358 . S
C183 H241 0.930 . S
C184 N181 1.314 1_655 S
C184 C182 1.353 . S
C184 H242 0.930 . S
C185 N181 1.279 1_655 S
C185 C183 1.358 . S
C185 H243 0.930 1_655 S
C186 C189 1.348 . S
C186 C190 1.356 . S
C186 O237 1.325 . S
C187 N188 1.279 . S
C187 C190 1.358 . S
C187 H244 0.930 . S
N188 C187 1.279 . S
N188 C191 1.314 . S
C189 C186 1.348 . S
C189 C191 1.353 . S
C189 H245 0.929 . S
C190 C186 1.356 . S
C190 C187 1.358 . S
C190 H246 0.930 . S
C191 N188 1.314 . S
C191 C189 1.353 . S
C191 H247 0.930 . S
C192 N193 1.314 . S
C192 C197 1.353 . S
C192 H198 0.930 . S
N193 Li176 1.990 . S
N193 C192 1.314 . S
N193 C195 1.279 . S
C194 C195 1.358 . S
C194 C196 1.356 . S
C194 H248 0.930 1_655 S
C195 N193 1.279 . S
C195 C194 1.358 . S
C195 H199 0.930 . S
C196 C194 1.356 . S
C196 C197 1.348 . S
C197 C192 1.353 . S
C197 C196 1.348 . S
C197 H249 0.929 . S
H198 C192 0.930 . S
H199 C195 0.930 . S
C200 N201 1.314 . S
C200 C202 1.353 . S
C200 H206 0.930 . S
N201 Li177 1.990 . S
N201 C200 1.314 . S
N201 C204 1.279 . S
C202 C200 1.353 . S
C202 C205 1.348 . S
C202 H250 0.929 . S
C203 C204 1.358 . S
C203 C205 1.356 . S
C203 H251 0.930 . S
C204 N201 1.279 . S
C204 C203 1.358 . S
C204 H207 0.930 . S
C205 C202 1.348 . S
C205 C203 1.356 . S
H206 C200 0.930 . S
H207 C204 0.930 . S
C208 C210 1.348 . S
C208 C211 1.356 . S
C208 O238 1.325 . S
N209 C212 1.314 . S
N209 C213 1.279 . S
C210 C208 1.348 . S
C210 C212 1.353 1_554 S
C210 H252 0.929 . S
C211 C208 1.356 . S
C211 C213 1.358 1_554 S
C211 H253 0.930 . S
C212 N209 1.314 . S
C212 C210 1.353 1_556 S
C212 H254 0.930 . S
C213 N209 1.279 . S
C213 C211 1.358 1_556 S
C213 H255 0.930 . S
C214 C215 1.348 . S
C214 C216 1.356 . S
C214 O239 1.325 . S
C215 C214 1.348 . S
C215 C217 1.353 . S
C215 H256 0.929 . S
C216 C214 1.356 . S
C216 C218 1.358 . S
C216 H257 0.930 . S
C217 C215 1.353 . S
C217 N219 1.314 . S
C217 H258 0.930 . S
C218 C216 1.358 . S
C218 N219 1.279 . S
C218 H259 0.930 . S
N219 C217 1.314 . S
N219 C218 1.279 . S
C220 C222 1.353 . S
C220 N223 1.314 . S
C220 H226 0.930 . S
C221 N223 1.279 . S
C221 C224 1.358 . S
C221 H227 0.930 . S
C222 C220 1.353 . S
C222 C225 1.348 . S
C222 H260 0.929 . S
N223 Li178 1.990 . S
N223 C220 1.314 . S
N223 C221 1.279 . S
C224 C221 1.358 . S
C224 C225 1.356 . S
C224 H261 0.930 1_554 S
C225 C222 1.348 . S
C225 C224 1.356 . S
H226 C220 0.930 . S
H227 C221 0.930 . S
C228 N229 1.314 . S
C228 C230 1.353 . S
C228 H234 0.930 . S
N229 Li179 1.990 . S
N229 C228 1.314 . S
N229 C232 1.279 . S
C230 C228 1.353 . S
C230 C233 1.348 . S
C230 H262 0.929 . S
C231 C232 1.358 . S
C231 C233 1.356 . S
C231 H263 0.930 . S
C232 N229 1.279 . S
C232 C231 1.358 . S
C232 H235 0.930 . S
C233 C230 1.348 . S
C233 C231 1.356 . S
H234 C228 0.930 . S
H235 C232 0.930 . S
O236 Li176 1.956 . S
O236 Li177 1.970 . S
O236 Li178 1.961 . S
O236 C180 1.325 . S
O237 Li176 1.970 . S
O237 Li177 1.956 . S
O237 Li179 1.961 . S
O237 C186 1.325 . S
O238 Li176 1.961 . S
O238 Li178 1.956 . S
O238 Li179 1.970 . S
O238 C208 1.325 . S
O239 Li177 1.961 . S
O239 Li178 1.970 . S
O239 Li179 1.956 . S
O239 C214 1.325 . S
H240 C182 0.929 . S
H241 C183 0.930 . S
H242 C184 0.930 . S
H243 C185 0.930 1_455 S
H244 C187 0.930 . S
H245 C189 0.929 . S
H246 C190 0.930 . S
H247 C191 0.930 . S
H248 C194 0.930 1_455 S
H249 C197 0.929 . S
H250 C202 0.929 . S
H251 C203 0.930 . S
H252 C210 0.929 . S
H253 C211 0.930 . S
H254 C212 0.930 . S
H255 C213 0.930 . S
H256 C215 0.929 . S
H257 C216 0.930 . S
H258 C217 0.930 . S
H259 C218 0.930 . S
H260 C222 0.929 . S
H261 C224 0.930 1_556 S
H262 C230 0.929 . S
H263 C231 0.930 . S
Li264 N281 1.990 . S
Li264 O324 1.956 . S
Li264 O325 1.970 . S
Li264 O326 1.961 . S
Li265 N289 1.990 . S
Li265 O324 1.970 . S
Li265 O325 1.956 . S
Li265 O327 1.961 . S
Li266 N311 1.990 . S
Li266 O324 1.961 . S
Li266 O326 1.956 . S
Li266 O327 1.970 . S
Li267 N317 1.990 . S
Li267 O325 1.961 . S
Li267 O326 1.970 . S
Li267 O327 1.956 . S
C268 C270 1.348 . S
C268 C271 1.356 . S
C268 O324 1.325 . S
N269 C272 1.314 1_545 S
N269 C273 1.279 1_545 S
C270 C268 1.348 . S
C270 C272 1.353 . S
C270 H328 0.929 . S
C271 C268 1.356 . S
C271 C273 1.358 . S
C271 H329 0.930 . S
C272 N269 1.314 1_565 S
C272 C270 1.353 . S
C272 H330 0.930 . S
C273 N269 1.279 1_565 S
C273 C271 1.358 . S
C273 H331 0.930 1_565 S
C274 C277 1.348 . S
C274 C278 1.356 . S
C274 O325 1.325 . S
C275 N276 1.279 . S
C275 C278 1.358 . S
C275 H332 0.930 . S
N276 C275 1.279 . S
N276 C279 1.314 . S
C277 C274 1.348 . S
C277 C279 1.353 . S
C277 H333 0.929 . S
C278 C274 1.356 . S
C278 C275 1.358 . S
C278 H334 0.930 . S
C279 N276 1.314 . S
C279 C277 1.353 . S
C279 H335 0.930 . S
C280 N281 1.314 . S
C280 C285 1.353 . S
C280 H286 0.930 . S
N281 Li264 1.990 . S
N281 C280 1.314 . S
N281 C283 1.279 . S
C282 C283 1.358 . S
C282 C284 1.356 . S
C282 H336 0.930 1_565 S
C283 N281 1.279 . S
C283 C282 1.358 . S
C283 H287 0.930 . S
C284 C282 1.356 . S
C284 C285 1.348 . S
C285 C280 1.353 . S
C285 C284 1.348 . S
C285 H337 0.929 . S
H286 C280 0.930 . S
H287 C283 0.930 . S
C288 N289 1.314 . S
C288 C290 1.353 . S
C288 H294 0.930 . S
N289 Li265 1.990 . S
N289 C288 1.314 . S
N289 C292 1.279 . S
C290 C288 1.353 . S
C290 C293 1.348 . S
C290 H338 0.929 . S
C291 C292 1.358 . S
C291 C293 1.356 . S
C291 H339 0.930 . S
C292 N289 1.279 . S
C292 C291 1.358 . S
C292 H295 0.930 . S
C293 C290 1.348 . S
C293 C291 1.356 . S
H294 C288 0.930 . S
H295 C292 0.930 . S
C296 C298 1.348 . S
C296 C299 1.356 . S
C296 O326 1.325 . S
N297 C300 1.314 . S
N297 C301 1.279 . S
C298 C296 1.348 . S
C298 C300 1.353 1_554 S
C298 H340 0.929 . S
C299 C296 1.356 . S
C299 C301 1.358 1_554 S
C299 H341 0.930 . S
C300 N297 1.314 . S
C300 C298 1.353 1_556 S
C300 H342 0.930 . S
C301 N297 1.279 . S
C301 C299 1.358 1_556 S
C301 H343 0.930 . S
C302 C303 1.348 . S
C302 C304 1.356 . S
C302 O327 1.325 . S
C303 C302 1.348 . S
C303 C305 1.353 . S
C303 H344 0.929 . S
C304 C302 1.356 . S
C304 C306 1.358 . S
C304 H345 0.930 . S
C305 C303 1.353 . S
C305 N307 1.314 . S
C305 H346 0.930 . S
C306 C304 1.358 . S
C306 N307 1.279 . S
C306 H347 0.930 . S
N307 C305 1.314 . S
N307 C306 1.279 . S
C308 C310 1.353 . S
C308 N311 1.314 . S
C308 H314 0.930 . S
C309 N311 1.279 . S
C309 C312 1.358 . S
C309 H315 0.930 . S
C310 C308 1.353 . S
C310 C313 1.348 . S
C310 H348 0.929 . S
N311 Li266 1.990 . S
N311 C308 1.314 . S
N311 C309 1.279 . S
C312 C309 1.358 . S
C312 C313 1.356 . S
C312 H349 0.930 1_554 S
C313 C310 1.348 . S
C313 C312 1.356 . S
H314 C308 0.930 . S
H315 C309 0.930 . S
C316 N317 1.314 . S
C316 C318 1.353 . S
C316 H322 0.930 . S
N317 Li267 1.990 . S
N317 C316 1.314 . S
N317 C320 1.279 . S
C318 C316 1.353 . S
C318 C321 1.348 . S
C318 H350 0.929 . S
C319 C320 1.358 . S
C319 C321 1.356 . S
C319 H351 0.930 . S
C320 N317 1.279 . S
C320 C319 1.358 . S
C320 H323 0.930 . S
C321 C318 1.348 . S
C321 C319 1.356 . S
H322 C316 0.930 . S
H323 C320 0.930 . S
O324 Li264 1.956 . S
O324 Li265 1.970 . S
O324 Li266 1.961 . S
O324 C268 1.325 . S
O325 Li264 1.970 . S
O325 Li265 1.956 . S
O325 Li267 1.961 . S
O325 C274 1.325 . S
O326 Li264 1.961 . S
O326 Li266 1.956 . S
O326 Li267 1.970 . S
O326 C296 1.325 . S
O327 Li265 1.961 . S
O327 Li266 1.970 . S
O327 Li267 1.956 . S
O327 C302 1.325 . S
H328 C270 0.929 . S
H329 C271 0.930 . S
H330 C272 0.930 . S
H331 C273 0.930 1_545 S
H332 C275 0.930 . S
H333 C277 0.929 . S
H334 C278 0.930 . S
H335 C279 0.930 . S
H336 C282 0.930 1_545 S
H337 C285 0.929 . S
H338 C290 0.929 . S
H339 C291 0.930 . S
H340 C298 0.929 . S
H341 C299 0.930 . S
H342 C300 0.930 . S
H343 C301 0.930 . S
H344 C303 0.929 . S
H345 C304 0.930 . S
H346 C305 0.930 . S
H347 C306 0.930 . S
H348 C310 0.929 . S
H349 C312 0.930 1_556 S
H350 C318 0.929 . S
H351 C319 0.930 . S
Li352 N369 1.990 . S
Li352 O412 1.956 . S
Li352 O413 1.970 . S
Li352 O414 1.961 . S
Li353 N377 1.990 . S
Li353 O412 1.970 . S
Li353 O413 1.956 . S
Li353 O415 1.961 . S
Li354 N399 1.990 . S
Li354 O412 1.961 . S
Li354 O414 1.956 . S
Li354 O415 1.970 . S
Li355 N405 1.990 . S
Li355 O413 1.961 . S
Li355 O414 1.970 . S
Li355 O415 1.956 . S
C356 C358 1.348 . S
C356 C359 1.356 . S
C356 O412 1.325 . S
N357 C360 1.314 . S
N357 C361 1.279 . S
C358 C356 1.348 . S
C358 C360 1.353 . S
C358 H416 0.929 . S
C359 C356 1.356 . S
C359 C361 1.358 . S
C359 H417 0.930 . S
C360 N357 1.314 . S
C360 C358 1.353 . S
C360 H418 0.930 . S
C361 N357 1.279 . S
C361 C359 1.358 . S
C361 H419 0.930 . S
C362 C365 1.348 . S
C362 C366 1.356 . S
C362 O413 1.325 . S
C363 N364 1.279 . S
C363 C366 1.358 . S
C363 H420 0.930 . S
N364 C363 1.279 . S
N364 C367 1.314 . S
C365 C362 1.348 . S
C365 C367 1.353 . S
C365 H421 0.929 . S
C366 C362 1.356 . S
C366 C363 1.358 . S
C366 H422 0.930 . S
C367 N364 1.314 . S
C367 C365 1.353 . S
C367 H423 0.930 . S
C368 N369 1.314 . S
C368 C373 1.353 . S
C368 H374 0.930 . S
N369 Li352 1.990 . S
N369 C368 1.314 . S
N369 C371 1.279 . S
C370 C371 1.358 . S
C370 C372 1.356 . S
C370 H424 0.930 . S
C371 N369 1.279 . S
C371 C370 1.358 . S
C371 H375 0.930 . S
C372 C370 1.356 . S
C372 C373 1.348 . S
C373 C368 1.353 . S
C373 C372 1.348 . S
C373 H425 0.929 . S
H374 C368 0.930 . S
H375 C371 0.930 . S
C376 N377 1.314 . S
C376 C378 1.353 . S
C376 H382 0.930 . S
N377 Li353 1.990 . S
N377 C376 1.314 . S
N377 C380 1.279 . S
C378 C376 1.353 . S
C378 C381 1.348 . S
C378 H426 0.929 . S
C379 C380 1.358 . S
C379 C381 1.356 . S
C379 H427 0.930 . S
C380 N377 1.279 . S
C380 C379 1.358 . S
C380 H383 0.930 . S
C381 C378 1.348 . S
C381 C379 1.356 . S
H382 C376 0.930 . S
H383 C380 0.930 . S
C384 C386 1.348 . S
C384 C387 1.356 . S
C384 O414 1.325 . S
N385 C388 1.314 . S
N385 C389 1.279 . S
C386 C384 1.348 . S
C386 C388 1.353 . S
C386 H428 0.929 . S
C387 C384 1.356 . S
C387 C389 1.358 . S
C387 H429 0.930 . S
C388 N385 1.314 . S
C388 C386 1.353 . S
C388 H430 0.930 . S
C389 N385 1.279 . S
C389 C387 1.358 . S
C389 H431 0.930 . S
C390 C391 1.348 . S
C390 C392 1.356 . S
C390 O415 1.325 . S
C391 C390 1.348 . S
C391 C393 1.353 . S
C391 H432 0.929 . S
C392 C390 1.356 . S
C392 C394 1.358 . S
C392 H433 0.930 . S
C393 C391 1.353 . S
C393 N395 1.314 . S
C393 H434 0.930 . S
C394 C392 1.358 . S
C394 N395 1.279 . S
C394 H435 0.930 . S
N395 C393 1.314 . S
N395 C394 1.279 . S
C396 C398 1.353 . S
C396 N399 1.314 . S
C396 H402 0.930 . S
C397 N399 1.279 . S
C397 C400 1.358 . S
C397 H403 0.930 . S
C398 C396 1.353 . S
C398 C401 1.348 . S
C398 H436 0.929 . S
N399 Li354 1.990 . S
N399 C396 1.314 . S
N399 C397 1.279 . S
C400 C397 1.358 . S
C400 C401 1.356 . S
C400 H437 0.930 . S
C401 C398 1.348 . S
C401 C400 1.356 . S
H402 C396 0.930 . S
H403 C397 0.930 . S
C404 N405 1.314 . S
C404 C406 1.353 . S
C404 H410 0.930 . S
N405 Li355 1.990 . S
N405 C404 1.314 . S
N405 C408 1.279 . S
C406 C404 1.353 . S
C406 C409 1.348 . S
C406 H438 0.929 . S
C407 C408 1.358 . S
C407 C409 1.356 . S
C407 H439 0.930 . S
C408 N405 1.279 . S
C408 C407 1.358 . S
C408 H411 0.930 . S
C409 C406 1.348 . S
C409 C407 1.356 . S
H410 C404 0.930 . S
H411 C408 0.930 . S
O412 Li352 1.956 . S
O412 Li353 1.970 . S
O412 Li354 1.961 . S
O412 C356 1.325 . S
O413 Li352 1.970 . S
O413 Li353 1.956 . S
O413 Li355 1.961 . S
O413 C362 1.325 . S
O414 Li352 1.961 . S
O414 Li354 1.956 . S
O414 Li355 1.970 . S
O414 C384 1.325 . S
O415 Li353 1.961 . S
O415 Li354 1.970 . S
O415 Li355 1.956 . S
O415 C390 1.325 . S
H416 C358 0.929 . S
H417 C359 0.930 . S
H418 C360 0.930 . S
H419 C361 0.930 . S
H420 C363 0.930 . S
H421 C365 0.929 . S
H422 C366 0.930 . S
H423 C367 0.930 . S
H424 C370 0.930 . S
H425 C373 0.929 . S
H426 C378 0.929 . S
H427 C379 0.930 . S
H428 C386 0.929 . S
H429 C387 0.930 . S
H430 C388 0.930 . S
H431 C389 0.930 . S
H432 C391 0.929 . S
H433 C392 0.930 . S
H434 C393 0.930 . S
H435 C394 0.930 . S
H436 C398 0.929 . S
H437 C400 0.930 . S
H438 C406 0.929 . S
H439 C407 0.930 . S
Li440 N457 1.990 . S
Li440 O500 1.956 . S
Li440 O501 1.970 . S
Li440 O502 1.961 . S
Li441 N465 1.990 . S
Li441 O500 1.970 . S
Li441 O501 1.956 . S
Li441 O503 1.961 . S
Li442 N487 1.990 . S
Li442 O500 1.961 . S
Li442 O502 1.956 . S
Li442 O503 1.970 . S
Li443 N493 1.990 . S
Li443 O501 1.961 . S
Li443 O502 1.970 . S
Li443 O503 1.956 . S
C444 C446 1.348 . S
C444 C447 1.356 . S
C444 O500 1.325 . S
N445 C448 1.314 . S
N445 C449 1.279 . S
C446 C444 1.348 . S
C446 C448 1.353 . S
C446 H504 0.929 . S
C447 C444 1.356 . S
C447 C449 1.358 . S
C447 H505 0.930 . S
C448 N445 1.314 . S
C448 C446 1.353 . S
C448 H506 0.930 . S
C449 N445 1.279 . S
C449 C447 1.358 . S
C449 H507 0.930 . S
C450 C453 1.348 . S
C450 C454 1.356 . S
C450 O501 1.325 . S
C451 N452 1.279 . S
C451 C454 1.358 . S
C451 H508 0.930 . S
N452 C451 1.279 . S
N452 C455 1.314 . S
C453 C450 1.348 . S
C453 C455 1.353 . S
C453 H509 0.929 . S
C454 C450 1.356 . S
C454 C451 1.358 . S
C454 H510 0.930 . S
C455 N452 1.314 . S
C455 C453 1.353 . S
C455 H511 0.930 . S
C456 N457 1.314 . S
C456 C461 1.353 . S
C456 H462 0.930 . S
N457 Li440 1.990 . S
N457 C456 1.314 . S
N457 C459 1.279 . S
C458 C459 1.358 . S
C458 C460 1.356 . S
C458 H512 0.930 . S
C459 N457 1.279 . S
C459 C458 1.358 . S
C459 H463 0.930 . S
C460 C458 1.356 . S
C460 C461 1.348 . S
C461 C456 1.353 . S
C461 C460 1.348 . S
C461 H513 0.929 . S
H462 C456 0.930 . S
H463 C459 0.930 . S
C464 N465 1.314 . S
C464 C466 1.353 . S
C464 H470 0.930 . S
N465 Li441 1.990 . S
N465 C464 1.314 . S
N465 C468 1.279 . S
C466 C464 1.353 . S
C466 C469 1.348 . S
C466 H514 0.929 . S
C467 C468 1.358 . S
C467 C469 1.356 . S
C467 H515 0.930 . S
C468 N465 1.279 . S
C468 C467 1.358 . S
C468 H471 0.930 . S
C469 C466 1.348 . S
C469 C467 1.356 . S
H470 C464 0.930 . S
H471 C468 0.930 . S
C472 C474 1.348 . S
C472 C475 1.356 . S
C472 O502 1.325 . S
N473 C476 1.314 . S
N473 C477 1.279 . S
C474 C472 1.348 . S
C474 C476 1.353 . S
C474 H516 0.929 . S
C475 C472 1.356 . S
C475 C477 1.358 . S
C475 H517 0.930 . S
C476 N473 1.314 . S
C476 C474 1.353 . S
C476 H518 0.930 . S
C477 N473 1.279 . S
C477 C475 1.358 . S
C477 H519 0.930 . S
C478 C479 1.348 . S
C478 C480 1.356 . S
C478 O503 1.325 . S
C479 C478 1.348 . S
C479 C481 1.353 . S
C479 H520 0.929 . S
C480 C478 1.356 . S
C480 C482 1.358 . S
C480 H521 0.930 . S
C481 C479 1.353 . S
C481 N483 1.314 . S
C481 H522 0.930 . S
C482 C480 1.358 . S
C482 N483 1.279 . S
C482 H523 0.930 . S
N483 C481 1.314 . S
N483 C482 1.279 . S
C484 C486 1.353 . S
C484 N487 1.314 . S
C484 H490 0.930 . S
C485 N487 1.279 . S
C485 C488 1.358 . S
C485 H491 0.930 . S
C486 C484 1.353 . S
C486 C489 1.348 . S
C486 H524 0.929 . S
N487 Li442 1.990 . S
N487 C484 1.314 . S
N487 C485 1.279 . S
C488 C485 1.358 . S
C488 C489 1.356 . S
C488 H525 0.930 . S
C489 C486 1.348 . S
C489 C488 1.356 . S
H490 C484 0.930 . S
H491 C485 0.930 . S
C492 N493 1.314 . S
C492 C494 1.353 . S
C492 H498 0.930 . S
N493 Li443 1.990 . S
N493 C492 1.314 . S
N493 C496 1.279 . S
C494 C492 1.353 . S
C494 C497 1.348 . S
C494 H526 0.929 . S
C495 C496 1.358 . S
C495 C497 1.356 . S
C495 H527 0.930 . S
C496 N493 1.279 . S
C496 C495 1.358 . S
C496 H499 0.930 . S
C497 C494 1.348 . S
C497 C495 1.356 . S
H498 C492 0.930 . S
H499 C496 0.930 . S
O500 Li440 1.956 . S
O500 Li441 1.970 . S
O500 Li442 1.961 . S
O500 C444 1.325 . S
O501 Li440 1.970 . S
O501 Li441 1.956 . S
O501 Li443 1.961 . S
O501 C450 1.325 . S
O502 Li440 1.961 . S
O502 Li442 1.956 . S
O502 Li443 1.970 . S
O502 C472 1.325 . S
O503 Li441 1.961 . S
O503 Li442 1.970 . S
O503 Li443 1.956 . S
O503 C478 1.325 . S
H504 C446 0.929 . S
H505 C447 0.930 . S
H506 C448 0.930 . S
H507 C449 0.930 . S
H508 C451 0.930 . S
H509 C453 0.929 . S
H510 C454 0.930 . S
H511 C455 0.930 . S
H512 C458 0.930 . S
H513 C461 0.929 . S
H514 C466 0.929 . S
H515 C467 0.930 . S
H516 C474 0.929 . S
H517 C475 0.930 . S
H518 C476 0.930 . S
H519 C477 0.930 . S
H520 C479 0.929 . S
H521 C480 0.930 . S
H522 C481 0.930 . S
H523 C482 0.930 . S
H524 C486 0.929 . S
H525 C488 0.930 . S
H526 C494 0.929 . S
H527 C495 0.930 . S
Li528 N545 1.990 . S
Li528 O588 1.956 . S
Li528 O589 1.970 . S
Li528 O590 1.961 . S
Li529 N553 1.990 . S
Li529 O588 1.970 . S
Li529 O589 1.956 . S
Li529 O591 1.961 . S
Li530 N575 1.990 . S
Li530 O588 1.961 . S
Li530 O590 1.956 . S
Li530 O591 1.970 . S
Li531 N581 1.990 . S
Li531 O589 1.961 . S
Li531 O590 1.970 . S
Li531 O591 1.956 . S
C532 C534 1.348 . S
C532 C535 1.356 . S
C532 O588 1.325 . S
N533 C536 1.314 . S
N533 C537 1.279 . S
C534 C532 1.348 . S
C534 C536 1.353 . S
C534 H592 0.929 . S
C535 C532 1.356 . S
C535 C537 1.358 . S
C535 H593 0.930 . S
C536 N533 1.314 . S
C536 C534 1.353 . S
C536 H594 0.930 . S
C537 N533 1.279 . S
C537 C535 1.358 . S
C537 H595 0.930 . S
C538 C541 1.348 . S
C538 C542 1.356 . S
C538 O589 1.325 . S
C539 N540 1.279 . S
C539 C542 1.358 . S
C539 H596 0.930 . S
N540 C539 1.279 . S
N540 C543 1.314 . S
C541 C538 1.348 . S
C541 C543 1.353 . S
C541 H597 0.929 . S
C542 C538 1.356 . S
C542 C539 1.358 . S
C542 H598 0.930 . S
C543 N540 1.314 . S
C543 C541 1.353 . S
C543 H599 0.930 . S
C544 N545 1.314 . S
C544 C549 1.353 . S
C544 H550 0.930 . S
N545 Li528 1.990 . S
N545 C544 1.314 . S
N545 C547 1.279 . S
C546 C547 1.358 . S
C546 C548 1.356 . S
C546 H600 0.930 . S
C547 N545 1.279 . S
C547 C546 1.358 . S
C547 H551 0.930 . S
C548 C546 1.356 . S
C548 C549 1.348 . S
C549 C544 1.353 . S
C549 C548 1.348 . S
C549 H601 0.929 . S
H550 C544 0.930 . S
H551 C547 0.930 . S
C552 N553 1.314 . S
C552 C554 1.353 . S
C552 H558 0.930 . S
N553 Li529 1.990 . S
N553 C552 1.314 . S
N553 C556 1.279 . S
C554 C552 1.353 . S
C554 C557 1.348 . S
C554 H602 0.929 . S
C555 C556 1.358 . S
C555 C557 1.356 . S
C555 H603 0.930 . S
C556 N553 1.279 . S
C556 C555 1.358 . S
C556 H559 0.930 . S
C557 C554 1.348 . S
C557 C555 1.356 . S
H558 C552 0.930 . S
H559 C556 0.930 . S
C560 C562 1.348 . S
C560 C563 1.356 . S
C560 O590 1.325 . S
N561 C564 1.314 1_455 S
N561 C565 1.279 1_455 S
C562 C560 1.348 . S
C562 C564 1.353 . S
C562 H604 0.929 . S
C563 C560 1.356 . S
C563 C565 1.358 . S
C563 H605 0.930 . S
C564 N561 1.314 1_655 S
C564 C562 1.353 . S
C564 H606 0.930 . S
C565 N561 1.279 1_655 S
C565 C563 1.358 . S
C565 H607 0.930 1_655 S
C566 C567 1.348 . S
C566 C568 1.356 . S
C566 O591 1.325 . S
C567 C566 1.348 . S
C567 C569 1.353 . S
C567 H608 0.929 . S
C568 C566 1.356 . S
C568 C570 1.358 . S
C568 H609 0.930 . S
C569 C567 1.353 . S
C569 N571 1.314 . S
C569 H610 0.930 . S
C570 C568 1.358 . S
C570 N571 1.279 . S
C570 H611 0.930 . S
N571 C569 1.314 . S
N571 C570 1.279 . S
C572 C574 1.353 . S
C572 N575 1.314 . S
C572 H578 0.930 . S
C573 N575 1.279 . S
C573 C576 1.358 . S
C573 H579 0.930 . S
C574 C572 1.353 . S
C574 C577 1.348 . S
C574 H612 0.929 . S
N575 Li530 1.990 . S
N575 C572 1.314 . S
N575 C573 1.279 . S
C576 C573 1.358 . S
C576 C577 1.356 . S
C576 H613 0.930 1_655 S
C577 C574 1.348 . S
C577 C576 1.356 . S
H578 C572 0.930 . S
H579 C573 0.930 . S
C580 N581 1.314 . S
C580 C582 1.353 . S
C580 H586 0.930 . S
N581 Li531 1.990 . S
N581 C580 1.314 . S
N581 C584 1.279 . S
C582 C580 1.353 . S
C582 C585 1.348 . S
C582 H614 0.929 . S
C583 C584 1.358 . S
C583 C585 1.356 . S
C583 H615 0.930 . S
C584 N581 1.279 . S
C584 C583 1.358 . S
C584 H587 0.930 . S
C585 C582 1.348 . S
C585 C583 1.356 . S
H586 C580 0.930 . S
H587 C584 0.930 . S
O588 Li528 1.956 . S
O588 Li529 1.970 . S
O588 Li530 1.961 . S
O588 C532 1.325 . S
O589 Li528 1.970 . S
O589 Li529 1.956 . S
O589 Li531 1.961 . S
O589 C538 1.325 . S
O590 Li528 1.961 . S
O590 Li530 1.956 . S
O590 Li531 1.970 . S
O590 C560 1.325 . S
O591 Li529 1.961 . S
O591 Li530 1.970 . S
O591 Li531 1.956 . S
O591 C566 1.325 . S
H592 C534 0.929 . S
H593 C535 0.930 . S
H594 C536 0.930 . S
H595 C537 0.930 . S
H596 C539 0.930 . S
H597 C541 0.929 . S
H598 C542 0.930 . S
H599 C543 0.930 . S
H600 C546 0.930 . S
H601 C549 0.929 . S
H602 C554 0.929 . S
H603 C555 0.930 . S
H604 C562 0.929 . S
H605 C563 0.930 . S
H606 C564 0.930 . S
H607 C565 0.930 1_455 S
H608 C567 0.929 . S
H609 C568 0.930 . S
H610 C569 0.930 . S
H611 C570 0.930 . S
H612 C574 0.929 . S
H613 C576 0.930 1_455 S
H614 C582 0.929 . S
H615 C583 0.930 . S
Li616 N633 1.990 . S
Li616 O676 1.956 . S
Li616 O677 1.970 . S
Li616 O678 1.961 . S
Li617 N641 1.990 . S
Li617 O676 1.970 . S
Li617 O677 1.956 . S
Li617 O679 1.961 . S
Li618 N663 1.990 . S
Li618 O676 1.961 . S
Li618 O678 1.956 . S
Li618 O679 1.970 . S
Li619 N669 1.990 . S
Li619 O677 1.961 . S
Li619 O678 1.970 . S
Li619 O679 1.956 . S
C620 C622 1.348 . S
C620 C623 1.356 . S
C620 O676 1.325 . S
N621 C624 1.314 . S
N621 C625 1.279 . S
C622 C620 1.348 . S
C622 C624 1.353 . S
C622 H680 0.929 . S
C623 C620 1.356 . S
C623 C625 1.358 . S
C623 H681 0.930 . S
C624 N621 1.314 . S
C624 C622 1.353 . S
C624 H682 0.930 . S
C625 N621 1.279 . S
C625 C623 1.358 . S
C625 H683 0.930 . S
C626 C629 1.348 . S
C626 C630 1.356 . S
C626 O677 1.325 . S
C627 N628 1.279 . S
C627 C630 1.358 . S
C627 H684 0.930 . S
N628 C627 1.279 . S
N628 C631 1.314 . S
C629 C626 1.348 . S
C629 C631 1.353 . S
C629 H685 0.929 . S
C630 C626 1.356 . S
C630 C627 1.358 . S
C630 H686 0.930 . S
C631 N628 1.314 . S
C631 C629 1.353 . S
C631 H687 0.930 . S
C632 N633 1.314 . S
C632 C637 1.353 . S
C632 H638 0.930 . S
N633 Li616 1.990 . S
N633 C632 1.314 . S
N633 C635 1.279 . S
C634 C635 1.358 . S
C634 C636 1.356 . S
C634 H688 0.930 . S
C635 N633 1.279 . S
C635 C634 1.358 . S
C635 H639 0.930 . S
C636 C634 1.356 . S
C636 C637 1.348 . S
C637 C632 1.353 . S
C637 C636 1.348 . S
C637 H689 0.929 . S
H638 C632 0.930 . S
H639 C635 0.930 . S
C640 N641 1.314 . S
C640 C642 1.353 . S
C640 H646 0.930 . S
N641 Li617 1.990 . S
N641 C640 1.314 . S
N641 C644 1.279 . S
C642 C640 1.353 . S
C642 C645 1.348 . S
C642 H690 0.929 . S
C643 C644 1.358 . S
C643 C645 1.356 . S
C643 H691 0.930 . S
C644 N641 1.279 . S
C644 C643 1.358 . S
C644 H647 0.930 . S
C645 C642 1.348 . S
C645 C643 1.356 . S
H646 C640 0.930 . S
H647 C644 0.930 . S
C648 C650 1.348 . S
C648 C651 1.356 . S
C648 O678 1.325 . S
N649 C652 1.314 1_545 S
N649 C653 1.279 1_545 S
C650 C648 1.348 . S
C650 C652 1.353 . S
C650 H692 0.929 . S
C651 C648 1.356 . S
C651 C653 1.358 . S
C651 H693 0.930 . S
C652 N649 1.314 1_565 S
C652 C650 1.353 . S
C652 H694 0.930 . S
C653 N649 1.279 1_565 S
C653 C651 1.358 . S
C653 H695 0.930 1_565 S
C654 C655 1.348 . S
C654 C656 1.356 . S
C654 O679 1.325 . S
C655 C654 1.348 . S
C655 C657 1.353 . S
C655 H696 0.929 . S
C656 C654 1.356 . S
C656 C658 1.358 . S
C656 H697 0.930 . S
C657 C655 1.353 . S
C657 N659 1.314 . S
C657 H698 0.930 . S
C658 C656 1.358 . S
C658 N659 1.279 . S
C658 H699 0.930 . S
N659 C657 1.314 . S
N659 C658 1.279 . S
C660 C662 1.353 . S
C660 N663 1.314 . S
C660 H666 0.930 . S
C661 N663 1.279 . S
C661 C664 1.358 . S
C661 H667 0.930 . S
C662 C660 1.353 . S
C662 C665 1.348 . S
C662 H700 0.929 . S
N663 Li618 1.990 . S
N663 C660 1.314 . S
N663 C661 1.279 . S
C664 C661 1.358 . S
C664 C665 1.356 . S
C664 H701 0.930 1_565 S
C665 C662 1.348 . S
C665 C664 1.356 . S
H666 C660 0.930 . S
H667 C661 0.930 . S
C668 N669 1.314 . S
C668 C670 1.353 . S
C668 H674 0.930 . S
N669 Li619 1.990 . S
N669 C668 1.314 . S
N669 C672 1.279 . S
C670 C668 1.353 . S
C670 C673 1.348 . S
C670 H702 0.929 . S
C671 C672 1.358 . S
C671 C673 1.356 . S
C671 H703 0.930 . S
C672 N669 1.279 . S
C672 C671 1.358 . S
C672 H675 0.930 . S
C673 C670 1.348 . S
C673 C671 1.356 . S
H674 C668 0.930 . S
H675 C672 0.930 . S
O676 Li616 1.956 . S
O676 Li617 1.970 . S
O676 Li618 1.961 . S
O676 C620 1.325 . S
O677 Li616 1.970 . S
O677 Li617 1.956 . S
O677 Li619 1.961 . S
O677 C626 1.325 . S
O678 Li616 1.961 . S
O678 Li618 1.956 . S
O678 Li619 1.970 . S
O678 C648 1.325 . S
O679 Li617 1.961 . S
O679 Li618 1.970 . S
O679 Li619 1.956 . S
O679 C654 1.325 . S
H680 C622 0.929 . S
H681 C623 0.930 . S
H682 C624 0.930 . S
H683 C625 0.930 . S
H684 C627 0.930 . S
H685 C629 0.929 . S
H686 C630 0.930 . S
H687 C631 0.930 . S
H688 C634 0.930 . S
H689 C637 0.929 . S
H690 C642 0.929 . S
H691 C643 0.930 . S
H692 C650 0.929 . S
H693 C651 0.930 . S
H694 C652 0.930 . S
H695 C653 0.930 1_545 S
H696 C655 0.929 . S
H697 C656 0.930 . S
H698 C657 0.930 . S
H699 C658 0.930 . S
H700 C662 0.929 . S
H701 C664 0.930 1_545 S
H702 C670 0.929 . S
H703 C671 0.930 . S
Li704 N721 1.990 . S
Li704 O764 1.956 . S
Li704 O765 1.970 . S
Li704 O766 1.961 . S
Li705 N729 1.990 . S
Li705 O764 1.970 . S
Li705 O765 1.956 . S
Li705 O767 1.961 . S
Li706 N751 1.990 . S
Li706 O764 1.961 . S
Li706 O766 1.956 . S
Li706 O767 1.970 . S
Li707 N757 1.990 . S
Li707 O765 1.961 . S
Li707 O766 1.970 . S
Li707 O767 1.956 . S
C708 C710 1.348 . S
C708 C711 1.356 . S
C708 O764 1.325 . S
N709 C712 1.314 . S
N709 C713 1.279 . S
C710 C708 1.348 . S
C710 C712 1.353 1_556 S
C710 H768 0.929 . S
C711 C708 1.356 . S
C711 C713 1.358 1_556 S
C711 H769 0.930 . S
C712 N709 1.314 . S
C712 C710 1.353 1_554 S
C712 H770 0.930 . S
C713 N709 1.279 . S
C713 C711 1.358 1_554 S
C713 H771 0.930 . S
C714 C717 1.348 . S
C714 C718 1.356 . S
C714 O765 1.325 . S
C715 N716 1.279 . S
C715 C718 1.358 . S
C715 H772 0.930 . S
N716 C715 1.279 . S
N716 C719 1.314 . S
C717 C714 1.348 . S
C717 C719 1.353 . S
C717 H773 0.929 . S
C718 C714 1.356 . S
C718 C715 1.358 . S
C718 H774 0.930 . S
C719 N716 1.314 . S
C719 C717 1.353 . S
C719 H775 0.930 . S
C720 N721 1.314 . S
C720 C725 1.353 . S
C720 H726 0.930 . S
N721 Li704 1.990 . S
N721 C720 1.314 . S
N721 C723 1.279 . S
C722 C723 1.358 . S
C722 C724 1.356 . S
C722 H776 0.930 . S
C723 N721 1.279 . S
C723 C722 1.358 . S
C723 H727 0.930 . S
C724 C722 1.356 . S
C724 C725 1.348 . S
C725 C720 1.353 . S
C725 C724 1.348 . S
C725 H777 0.929 . S
H726 C720 0.930 . S
H727 C723 0.930 . S
C728 N729 1.314 . S
C728 C730 1.353 . S
C728 H734 0.930 . S
N729 Li705 1.990 . S
N729 C728 1.314 . S
N729 C732 1.279 . S
C730 C728 1.353 . S
C730 C733 1.348 . S
C730 H778 0.929 . S
C731 C732 1.358 . S
C731 C733 1.356 . S
C731 H779 0.930 . S
C732 N729 1.279 . S
C732 C731 1.358 . S
C732 H735 0.930 . S
C733 C730 1.348 . S
C733 C731 1.356 . S
H734 C728 0.930 . S
H735 C732 0.930 . S
C736 C738 1.348 . S
C736 C739 1.356 . S
C736 O766 1.325 . S
N737 C740 1.314 . S
N737 C741 1.279 . S
C738 C736 1.348 . S
C738 C740 1.353 . S
C738 H780 0.929 . S
C739 C736 1.356 . S
C739 C741 1.358 . S
C739 H781 0.930 . S
C740 N737 1.314 . S
C740 C738 1.353 . S
C740 H782 0.930 . S
C741 N737 1.279 . S
C741 C739 1.358 . S
C741 H783 0.930 . S
C742 C743 1.348 . S
C742 C744 1.356 . S
C742 O767 1.325 . S
C743 C742 1.348 . S
C743 C745 1.353 . S
C743 H784 0.929 . S
C744 C742 1.356 . S
C744 C746 1.358 . S
C744 H785 0.930 . S
C745 C743 1.353 . S
C745 N747 1.314 . S
C745 H786 0.930 . S
C746 C744 1.358 . S
C746 N747 1.279 . S
C746 H787 0.930 . S
N747 C745 1.314 . S
N747 C746 1.279 . S
C748 C750 1.353 . S
C748 N751 1.314 . S
C748 H754 0.930 . S
C749 N751 1.279 . S
C749 C752 1.358 . S
C749 H755 0.930 . S
C750 C748 1.353 . S
C750 C753 1.348 . S
C750 H788 0.929 1_556 S
N751 Li706 1.990 . S
N751 C748 1.314 . S
N751 C749 1.279 . S
C752 C749 1.358 . S
C752 C753 1.356 . S
C752 H789 0.930 . S
C753 C750 1.348 . S
C753 C752 1.356 . S
H754 C748 0.930 . S
H755 C749 0.930 . S
C756 N757 1.314 . S
C756 C758 1.353 . S
C756 H762 0.930 . S
N757 Li707 1.990 . S
N757 C756 1.314 . S
N757 C760 1.279 . S
C758 C756 1.353 . S
C758 C761 1.348 . S
C758 H790 0.929 . S
C759 C760 1.358 . S
C759 C761 1.356 . S
C759 H791 0.930 . S
C760 N757 1.279 . S
C760 C759 1.358 . S
C760 H763 0.930 . S
C761 C758 1.348 . S
C761 C759 1.356 . S
H762 C756 0.930 . S
H763 C760 0.930 . S
O764 Li704 1.956 . S
O764 Li705 1.970 . S
O764 Li706 1.961 . S
O764 C708 1.325 . S
O765 Li704 1.970 . S
O765 Li705 1.956 . S
O765 Li707 1.961 . S
O765 C714 1.325 . S
O766 Li704 1.961 . S
O766 Li706 1.956 . S
O766 Li707 1.970 . S
O766 C736 1.325 . S
O767 Li705 1.961 . S
O767 Li706 1.970 . S
O767 Li707 1.956 . S
O767 C742 1.325 . S
H768 C710 0.929 . S
H769 C711 0.930 . S
H770 C712 0.930 . S
H771 C713 0.930 . S
H772 C715 0.930 . S
H773 C717 0.929 . S
H774 C718 0.930 . S
H775 C719 0.930 . S
H776 C722 0.930 . S
H777 C725 0.929 . S
H778 C730 0.929 . S
H779 C731 0.930 . S
H780 C738 0.929 . S
H781 C739 0.930 . S
H782 C740 0.930 . S
H783 C741 0.930 . S
H784 C743 0.929 . S
H785 C744 0.930 . S
H786 C745 0.930 . S
H787 C746 0.930 . S
H788 C750 0.929 1_554 S
H789 C752 0.930 . S
H790 C758 0.929 . S
H791 C759 0.930 . S
Li792 N809 1.990 . S
Li792 O852 1.956 . S
Li792 O853 1.970 . S
Li792 O854 1.961 . S
Li793 N817 1.990 . S
Li793 O852 1.970 . S
Li793 O853 1.956 . S
Li793 O855 1.961 . S
Li794 N839 1.990 . S
Li794 O852 1.961 . S
Li794 O854 1.956 . S
Li794 O855 1.970 . S
Li795 N845 1.990 . S
Li795 O853 1.961 . S
Li795 O854 1.970 . S
Li795 O855 1.956 . S
C796 C798 1.348 . S
C796 C799 1.356 . S
C796 O852 1.325 . S
N797 C800 1.314 . S
N797 C801 1.279 . S
C798 C796 1.348 . S
C798 C800 1.353 . S
C798 H856 0.929 . S
C799 C796 1.356 . S
C799 C801 1.358 . S
C799 H857 0.930 . S
C800 N797 1.314 . S
C800 C798 1.353 . S
C800 H858 0.930 . S
C801 N797 1.279 . S
C801 C799 1.358 . S
C801 H859 0.930 . S
C802 C805 1.348 . S
C802 C806 1.356 . S
C802 O853 1.325 . S
C803 N804 1.279 . S
C803 C806 1.358 1_554 S
C803 H860 0.930 . S
N804 C803 1.279 . S
N804 C807 1.314 . S
C805 C802 1.348 . S
C805 C807 1.353 1_556 S
C805 H861 0.929 . S
C806 C802 1.356 . S
C806 C803 1.358 1_556 S
C806 H862 0.930 . S
C807 N804 1.314 . S
C807 C805 1.353 1_554 S
C807 H863 0.930 . S
C808 N809 1.314 . S
C808 C813 1.353 . S
C808 H814 0.930 . S
N809 Li792 1.990 . S
N809 C808 1.314 . S
N809 C811 1.279 . S
C810 C811 1.358 . S
C810 C812 1.356 . S
C810 H864 0.930 . S
C811 N809 1.279 . S
C811 C810 1.358 . S
C811 H815 0.930 . S
C812 C810 1.356 . S
C812 C813 1.348 . S
C813 C808 1.353 . S
C813 C812 1.348 . S
C813 H865 0.929 . S
H814 C808 0.930 . S
H815 C811 0.930 . S
C816 N817 1.314 . S
C816 C818 1.353 . S
C816 H822 0.930 . S
N817 Li793 1.990 . S
N817 C816 1.314 . S
N817 C820 1.279 . S
C818 C816 1.353 . S
C818 C821 1.348 . S
C818 H866 0.929 . S
C819 C820 1.358 . S
C819 C821 1.356 . S
C819 H867 0.930 . S
C820 N817 1.279 . S
C820 C819 1.358 . S
C820 H823 0.930 . S
C821 C818 1.348 . S
C821 C819 1.356 . S
H822 C816 0.930 . S
H823 C820 0.930 . S
C824 C826 1.348 . S
C824 C827 1.356 . S
C824 O854 1.325 . S
N825 C828 1.314 . S
N825 C829 1.279 . S
C826 C824 1.348 . S
C826 C828 1.353 . S
C826 H868 0.929 . S
C827 C824 1.356 . S
C827 C829 1.358 . S
C827 H869 0.930 . S
C828 N825 1.314 . S
C828 C826 1.353 . S
C828 H870 0.930 . S
C829 N825 1.279 . S
C829 C827 1.358 . S
C829 H871 0.930 . S
C830 C831 1.348 . S
C830 C832 1.356 . S
C830 O855 1.325 . S
C831 C830 1.348 . S
C831 C833 1.353 . S
C831 H872 0.929 . S
C832 C830 1.356 . S
C832 C834 1.358 . S
C832 H873 0.930 . S
C833 C831 1.353 . S
C833 N835 1.314 . S
C833 H874 0.930 . S
C834 C832 1.358 . S
C834 N835 1.279 . S
C834 H875 0.930 . S
N835 C833 1.314 . S
N835 C834 1.279 . S
C836 C838 1.353 . S
C836 N839 1.314 . S
C836 H842 0.930 . S
C837 N839 1.279 . S
C837 C840 1.358 . S
C837 H843 0.930 . S
C838 C836 1.353 . S
C838 C841 1.348 . S
C838 H876 0.929 . S
N839 Li794 1.990 . S
N839 C836 1.314 . S
N839 C837 1.279 . S
C840 C837 1.358 . S
C840 C841 1.356 . S
C840 H877 0.930 . S
C841 C838 1.348 . S
C841 C840 1.356 . S
H842 C836 0.930 . S
H843 C837 0.930 . S
C844 N845 1.314 . S
C844 C846 1.353 . S
C844 H850 0.930 . S
N845 Li795 1.990 . S
N845 C844 1.314 . S
N845 C848 1.279 . S
C846 C844 1.353 . S
C846 C849 1.348 . S
C846 H878 0.929 1_556 S
C847 C848 1.358 . S
C847 C849 1.356 . S
C847 H879 0.930 . S
C848 N845 1.279 . S
C848 C847 1.358 . S
C848 H851 0.930 . S
C849 C846 1.348 . S
C849 C847 1.356 . S
H850 C844 0.930 . S
H851 C848 0.930 . S
O852 Li792 1.956 . S
O852 Li793 1.970 . S
O852 Li794 1.961 . S
O852 C796 1.325 . S
O853 Li792 1.970 . S
O853 Li793 1.956 . S
O853 Li795 1.961 . S
O853 C802 1.325 . S
O854 Li792 1.961 . S
O854 Li794 1.956 . S
O854 Li795 1.970 . S
O854 C824 1.325 . S
O855 Li793 1.961 . S
O855 Li794 1.970 . S
O855 Li795 1.956 . S
O855 C830 1.325 . S
H856 C798 0.929 . S
H857 C799 0.930 . S
H858 C800 0.930 . S
H859 C801 0.930 . S
H860 C803 0.930 . S
H861 C805 0.929 . S
H862 C806 0.930 . S
H863 C807 0.930 . S
H864 C810 0.930 . S
H865 C813 0.929 . S
H866 C818 0.929 . S
H867 C819 0.930 . S
H868 C826 0.929 . S
H869 C827 0.930 . S
H870 C828 0.930 . S
H871 C829 0.930 . S
H872 C831 0.929 . S
H873 C832 0.930 . S
H874 C833 0.930 . S
H875 C834 0.930 . S
H876 C838 0.929 . S
H877 C840 0.930 . S
H878 C846 0.929 1_554 S
H879 C847 0.930 . S
Li880 N897 1.990 . S
Li880 O940 1.956 . S
Li880 O941 1.970 . S
Li880 O942 1.961 . S
Li881 N905 1.990 . S
Li881 O940 1.970 . S
Li881 O941 1.956 . S
Li881 O943 1.961 . S
Li882 N927 1.990 . S
Li882 O940 1.961 . S
Li882 O942 1.956 . S
Li882 O943 1.970 . S
Li883 N933 1.990 . S
Li883 O941 1.961 . S
Li883 O942 1.970 . S
Li883 O943 1.956 . S
C884 C886 1.348 . S
C884 C887 1.356 . S
C884 O940 1.325 . S
N885 C888 1.314 . S
N885 C889 1.279 . S
C886 C884 1.348 . S
C886 C888 1.353 . S
C886 H944 0.929 . S
C887 C884 1.356 . S
C887 C889 1.358 . S
C887 H945 0.930 . S
C888 N885 1.314 . S
C888 C886 1.353 . S
C888 H946 0.930 . S
C889 N885 1.279 . S
C889 C887 1.358 . S
C889 H947 0.930 . S
C890 C893 1.348 . S
C890 C894 1.356 . S
C890 O941 1.325 . S
C891 N892 1.291 . S
C891 C894 1.320 1_655 S
C891 H948 0.961 . S
N892 C891 1.291 . S
N892 C895 1.314 1_655 S
C893 C890 1.348 . S
C893 C895 1.353 . S
C893 H949 0.929 . S
C894 C890 1.356 . S
C894 C891 1.320 1_455 S
C894 H950 0.930 . S
C895 N892 1.314 1_455 S
C895 C893 1.353 . S
C895 H951 0.930 . S
C896 N897 1.314 . S
C896 C901 1.353 . S
C896 H902 0.930 . S
N897 Li880 1.990 . S
N897 C896 1.314 . S
N897 C899 1.279 . S
C898 C899 1.358 . S
C898 C900 1.356 . S
C898 H952 0.930 . S
C899 N897 1.279 . S
C899 C898 1.358 . S
C899 H903 0.930 . S
C900 C898 1.356 . S
C900 C901 1.348 . S
C901 C896 1.353 . S
C901 C900 1.348 . S
C901 H953 0.929 . S
H902 C896 0.930 . S
H903 C899 0.930 . S
C904 N905 1.314 . S
C904 C906 1.353 . S
C904 H910 0.930 . S
N905 Li881 1.990 . S
N905 C904 1.314 . S
N905 C908 1.279 . S
C906 C904 1.353 . S
C906 C909 1.348 . S
C906 H954 0.929 1_556 S
C907 C908 1.358 . S
C907 C909 1.356 . S
C907 H955 0.930 . S
C908 N905 1.279 . S
C908 C907 1.358 . S
C908 H911 0.930 . S
C909 C906 1.348 . S
C909 C907 1.356 . S
H910 C904 0.930 . S
H911 C908 0.930 . S
C912 C914 1.348 . S
C912 C915 1.356 . S
C912 O942 1.325 . S
N913 C916 1.314 . S
N913 C917 1.279 . S
C914 C912 1.348 . S
C914 C916 1.353 . S
C914 H956 0.929 . S
C915 C912 1.356 . S
C915 C917 1.358 . S
C915 H957 0.930 . S
C916 N913 1.314 . S
C916 C914 1.353 . S
C916 H958 0.930 . S
C917 N913 1.279 . S
C917 C915 1.358 . S
C917 H959 0.930 . S
C918 C919 1.348 . S
C918 C920 1.356 . S
C918 O943 1.325 . S
C919 C918 1.348 . S
C919 C921 1.353 1_556 S
C919 H960 0.929 . S
C920 C918 1.356 . S
C920 C922 1.358 1_556 S
C920 H961 0.930 . S
C921 C919 1.353 1_554 S
C921 N923 1.314 . S
C921 H962 0.930 . S
C922 C920 1.358 1_554 S
C922 N923 1.279 . S
C922 H963 0.930 . S
N923 C921 1.314 . S
N923 C922 1.279 . S
C924 C926 1.353 . S
C924 N927 1.314 . S
C924 H930 0.930 . S
C925 N927 1.279 . S
C925 C928 1.358 . S
C925 H931 0.930 . S
C926 C924 1.353 . S
C926 C929 1.348 . S
C926 H964 0.929 . S
N927 Li882 1.990 . S
N927 C924 1.314 . S
N927 C925 1.279 . S
C928 C925 1.358 . S
C928 C929 1.356 . S
C928 H965 0.930 . S
C929 C926 1.348 . S
C929 C928 1.356 . S
H930 C924 0.930 . S
H931 C925 0.930 . S
C932 N933 1.314 . S
C932 C934 1.353 . S
C932 H938 0.930 . S
N933 Li883 1.990 . S
N933 C932 1.314 . S
N933 C936 1.279 . S
C934 C932 1.353 . S
C934 C937 1.348 . S
C934 H966 0.929 1_455 S
C935 C936 1.358 . S
C935 C937 1.356 . S
C935 H967 0.930 . S
C936 N933 1.279 . S
C936 C935 1.358 . S
C936 H939 0.930 . S
C937 C934 1.348 . S
C937 C935 1.356 . S
H938 C932 0.930 . S
H939 C936 0.930 . S
O940 Li880 1.956 . S
O940 Li881 1.970 . S
O940 Li882 1.961 . S
O940 C884 1.325 . S
O941 Li880 1.970 . S
O941 Li881 1.956 . S
O941 Li883 1.961 . S
O941 C890 1.325 . S
O942 Li880 1.961 . S
O942 Li882 1.956 . S
O942 Li883 1.970 . S
O942 C912 1.325 . S
O943 Li881 1.961 . S
O943 Li882 1.970 . S
O943 Li883 1.956 . S
O943 C918 1.325 . S
H944 C886 0.929 . S
H945 C887 0.930 . S
H946 C888 0.930 . S
H947 C889 0.930 . S
H948 C891 0.961 . S
H949 C893 0.929 . S
H950 C894 0.930 . S
H951 C895 0.930 . S
H952 C898 0.930 . S
H953 C901 0.929 . S
H954 C906 0.929 1_554 S
H955 C907 0.930 . S
H956 C914 0.929 . S
H957 C915 0.930 . S
H958 C916 0.930 . S
H959 C917 0.930 . S
H960 C919 0.929 . S
H961 C920 0.930 . S
H962 C921 0.930 . S
H963 C922 0.930 . S
H964 C926 0.929 . S
H965 C928 0.930 . S
H966 C934 0.929 1_655 S
H967 C935 0.930 . S
Li968 N985 1.990 . S
Li968 O1028 1.956 . S
Li968 O1029 1.970 . S
Li968 O1030 1.961 . S
Li969 N993 1.990 . S
Li969 O1028 1.970 . S
Li969 O1029 1.956 . S
Li969 O1031 1.961 . S
Li970 N1015 1.990 . S
Li970 O1028 1.961 . S
Li970 O1030 1.956 . S
Li970 O1031 1.970 . S
Li971 N1021 1.990 . S
Li971 O1029 1.961 . S
Li971 O1030 1.970 . S
Li971 O1031 1.956 . S
C972 C974 1.348 . S
C972 C975 1.356 . S
C972 O1028 1.325 . S
N973 C976 1.314 . S
N973 C977 1.279 . S
C974 C972 1.348 . S
C974 C976 1.353 . S
C974 H1032 0.929 . S
C975 C972 1.356 . S
C975 C977 1.358 . S
C975 H1033 0.930 . S
C976 N973 1.314 . S
C976 C974 1.353 . S
C976 H1034 0.930 . S
C977 N973 1.279 . S
C977 C975 1.358 . S
C977 H1035 0.930 . S
C978 C981 1.348 . S
C978 C982 1.356 . S
C978 O1029 1.325 . S
C979 N980 1.279 . S
C979 C982 1.358 1_554 S
C979 H1036 0.930 . S
N980 C979 1.279 . S
N980 C983 1.314 . S
C981 C978 1.348 . S
C981 C983 1.353 1_556 S
C981 H1037 0.929 . S
C982 C978 1.356 . S
C982 C979 1.358 1_556 S
C982 H1038 0.930 . S
C983 N980 1.314 . S
C983 C981 1.353 1_554 S
C983 H1039 0.930 . S
C984 N985 1.314 . S
C984 C989 1.353 . S
C984 H990 0.930 . S
N985 Li968 1.990 . S
N985 C984 1.314 . S
N985 C987 1.279 . S
C986 C987 1.358 . S
C986 C988 1.356 . S
C986 H1040 0.930 . S
C987 N985 1.279 . S
C987 C986 1.358 . S
C987 H991 0.930 . S
C988 C986 1.356 . S
C988 C989 1.348 . S
C989 C984 1.353 . S
C989 C988 1.348 . S
C989 H1041 0.929 . S
H990 C984 0.930 . S
H991 C987 0.930 . S
C992 N993 1.314 . S
C992 C994 1.353 . S
C992 H998 0.930 . S
N993 Li969 1.990 . S
N993 C992 1.314 . S
N993 C996 1.279 . S
C994 C992 1.353 . S
C994 C997 1.348 . S
C994 H1042 0.929 1_545 S
C995 C996 1.358 . S
C995 C997 1.356 . S
C995 H1043 0.930 . S
C996 N993 1.279 . S
C996 C995 1.358 . S
C996 H999 0.930 . S
C997 C994 1.348 . S
C997 C995 1.356 . S
H998 C992 0.930 . S
H999 C996 0.930 . S
C1000 C1002 1.348 . S
C1000 C1003 1.356 . S
C1000 O1030 1.325 . S
N1001 C1004 1.314 . S
N1001 C1005 1.279 . S
C1002 C1000 1.348 . S
C1002 C1004 1.353 . S
C1002 H1044 0.929 . S
C1003 C1000 1.356 . S
C1003 C1005 1.358 . S
C1003 H1045 0.930 . S
C1004 N1001 1.314 . S
C1004 C1002 1.353 . S
C1004 H1046 0.930 . S
C1005 N1001 1.279 . S
C1005 C1003 1.358 . S
C1005 H1047 0.930 . S
C1006 C1007 1.348 . S
C1006 C1008 1.356 . S
C1006 O1031 1.325 . S
C1007 C1006 1.348 . S
C1007 C1009 1.353 . S
C1007 H1048 0.929 . S
C1008 C1006 1.356 . S
C1008 C1010 1.320 1_545 S
C1008 H1049 0.930 . S
C1009 C1007 1.353 . S
C1009 N1011 1.314 1_545 S
C1009 H1050 0.930 . S
C1010 C1008 1.320 1_565 S
C1010 N1011 1.291 . S
C1010 H1051 0.961 . S
N1011 C1009 1.314 1_565 S
N1011 C1010 1.291 . S
C1012 C1014 1.353 . S
C1012 N1015 1.314 . S
C1012 H1018 0.930 . S
C1013 N1015 1.279 . S
C1013 C1016 1.358 . S
C1013 H1019 0.930 . S
C1014 C1012 1.353 . S
C1014 C1017 1.348 . S
C1014 H1052 0.929 . S
N1015 Li970 1.990 . S
N1015 C1012 1.314 . S
N1015 C1013 1.279 . S
C1016 C1013 1.358 . S
C1016 C1017 1.356 . S
C1016 H1053 0.930 . S
C1017 C1014 1.348 . S
C1017 C1016 1.356 . S
H1018 C1012 0.930 . S
H1019 C1013 0.930 . S
C1020 N1021 1.314 . S
C1020 C1022 1.353 . S
C1020 H1026 0.930 . S
N1021 Li971 1.990 . S
N1021 C1020 1.314 . S
N1021 C1024 1.279 . S
C1022 C1020 1.353 . S
C1022 C1025 1.348 . S
C1022 H1054 0.929 1_556 S
C1023 C1024 1.358 . S
C1023 C1025 1.356 . S
C1023 H1055 0.930 . S
C1024 N1021 1.279 . S
C1024 C1023 1.358 . S
C1024 H1027 0.930 . S
C1025 C1022 1.348 . S
C1025 C1023 1.356 . S
H1026 C1020 0.930 . S
H1027 C1024 0.930 . S
O1028 Li968 1.956 . S
O1028 Li969 1.970 . S
O1028 Li970 1.961 . S
O1028 C972 1.325 . S
O1029 Li968 1.970 . S
O1029 Li969 1.956 . S
O1029 Li971 1.961 . S
O1029 C978 1.325 . S
O1030 Li968 1.961 . S
O1030 Li970 1.956 . S
O1030 Li971 1.970 . S
O1030 C1000 1.325 . S
O1031 Li969 1.961 . S
O1031 Li970 1.970 . S
O1031 Li971 1.956 . S
O1031 C1006 1.325 . S
H1032 C974 0.929 . S
H1033 C975 0.930 . S
H1034 C976 0.930 . S
H1035 C977 0.930 . S
H1036 C979 0.930 . S
H1037 C981 0.929 . S
H1038 C982 0.930 . S
H1039 C983 0.930 . S
H1040 C986 0.930 . S
H1041 C989 0.929 . S
H1042 C994 0.929 1_565 S
H1043 C995 0.930 . S
H1044 C1002 0.929 . S
H1045 C1003 0.930 . S
H1046 C1004 0.930 . S
H1047 C1005 0.930 . S
H1048 C1007 0.929 . S
H1049 C1008 0.930 . S
H1050 C1009 0.930 . S
H1051 C1010 0.961 . S
H1052 C1014 0.929 . S
H1053 C1016 0.930 . S
H1054 C1022 0.929 1_554 S
H1055 C1023 0.930 . S
Li1056 N1073 1.990 . S
Li1056 O1116 1.956 . S
Li1056 O1117 1.970 . S
Li1056 O1118 1.961 . S
Li1057 N1081 1.990 . S
Li1057 O1116 1.970 . S
Li1057 O1117 1.956 . S
Li1057 O1119 1.961 . S
Li1058 N1103 1.990 . S
Li1058 O1116 1.961 . S
Li1058 O1118 1.956 . S
Li1058 O1119 1.970 . S
Li1059 N1109 1.990 . S
Li1059 O1117 1.961 . S
Li1059 O1118 1.970 . S
Li1059 O1119 1.956 . S
C1060 C1062 1.348 . S
C1060 C1063 1.356 . S
C1060 O1116 1.325 . S
N1061 C1064 1.314 . S
N1061 C1065 1.279 . S
C1062 C1060 1.348 . S
C1062 C1064 1.353 . S
C1062 H1120 0.929 . S
C1063 C1060 1.356 . S
C1063 C1065 1.358 . S
C1063 H1121 0.930 . S
C1064 N1061 1.314 . S
C1064 C1062 1.353 . S
C1064 H1122 0.930 . S
C1065 N1061 1.279 . S
C1065 C1063 1.358 . S
C1065 H1123 0.930 . S
C1066 C1069 1.348 . S
C1066 C1070 1.356 . S
C1066 O1117 1.325 . S
C1067 N1068 1.279 . S
C1067 C1070 1.358 . S
C1067 H1124 0.930 . S
N1068 C1067 1.279 . S
N1068 C1071 1.314 . S
C1069 C1066 1.348 . S
C1069 C1071 1.353 . S
C1069 H1125 0.929 . S
C1070 C1066 1.356 . S
C1070 C1067 1.358 . S
C1070 H1126 0.930 . S
C1071 N1068 1.314 . S
C1071 C1069 1.353 . S
C1071 H1127 0.930 . S
C1072 N1073 1.314 . S
C1072 C1077 1.353 . S
C1072 H1078 0.930 . S
N1073 Li1056 1.990 . S
N1073 C1072 1.314 . S
N1073 C1075 1.279 . S
C1074 C1075 1.358 . S
C1074 C1076 1.356 . S
C1074 H1128 0.930 . S
C1075 N1073 1.279 . S
C1075 C1074 1.358 . S
C1075 H1079 0.930 . S
C1076 C1074 1.356 . S
C1076 C1077 1.348 . S
C1077 C1072 1.353 . S
C1077 C1076 1.348 . S
C1077 H1129 0.929 . S
H1078 C1072 0.930 . S
H1079 C1075 0.930 . S
C1080 N1081 1.314 . S
C1080 C1082 1.353 . S
C1080 H1086 0.930 . S
N1081 Li1057 1.990 . S
N1081 C1080 1.314 . S
N1081 C1084 1.279 . S
C1082 C1080 1.353 . S
C1082 C1085 1.348 . S
C1082 H1130 0.929 . S
C1083 C1084 1.358 . S
C1083 C1085 1.356 . S
C1083 H1131 0.930 . S
C1084 N1081 1.279 . S
C1084 C1083 1.358 . S
C1084 H1087 0.930 . S
C1085 C1082 1.348 . S
C1085 C1083 1.356 . S
H1086 C1080 0.930 . S
H1087 C1084 0.930 . S
C1088 C1090 1.348 . S
C1088 C1091 1.356 . S
C1088 O1118 1.325 . S
N1089 C1092 1.314 . S
N1089 C1093 1.279 . S
C1090 C1088 1.348 . S
C1090 C1092 1.353 . S
C1090 H1132 0.929 . S
C1091 C1088 1.356 . S
C1091 C1093 1.358 . S
C1091 H1133 0.930 . S
C1092 N1089 1.314 . S
C1092 C1090 1.353 . S
C1092 H1134 0.930 . S
C1093 N1089 1.279 . S
C1093 C1091 1.358 . S
C1093 H1135 0.930 . S
C1094 C1095 1.348 . S
C1094 C1096 1.356 . S
C1094 O1119 1.325 . S
C1095 C1094 1.348 . S
C1095 C1097 1.353 . S
C1095 H1136 0.929 . S
C1096 C1094 1.356 . S
C1096 C1098 1.358 . S
C1096 H1137 0.930 . S
C1097 C1095 1.353 . S
C1097 N1099 1.314 . S
C1097 H1138 0.930 . S
C1098 C1096 1.358 . S
C1098 N1099 1.279 . S
C1098 H1139 0.930 . S
N1099 C1097 1.314 . S
N1099 C1098 1.279 . S
C1100 C1102 1.353 . S
C1100 N1103 1.314 . S
C1100 H1106 0.930 . S
C1101 N1103 1.279 . S
C1101 C1104 1.358 . S
C1101 H1107 0.930 . S
C1102 C1100 1.353 . S
C1102 C1105 1.348 . S
C1102 H1140 0.929 . S
N1103 Li1058 1.990 . S
N1103 C1100 1.314 . S
N1103 C1101 1.279 . S
C1104 C1101 1.358 . S
C1104 C1105 1.356 . S
C1104 H1141 0.930 . S
C1105 C1102 1.348 . S
C1105 C1104 1.356 . S
H1106 C1100 0.930 . S
H1107 C1101 0.930 . S
C1108 N1109 1.314 . S
C1108 C1110 1.353 . S
C1108 H1114 0.930 . S
N1109 Li1059 1.990 . S
N1109 C1108 1.314 . S
N1109 C1112 1.279 . S
C1110 C1108 1.353 . S
C1110 C1113 1.348 . S
C1110 H1142 0.929 . S
C1111 C1112 1.358 . S
C1111 C1113 1.356 . S
C1111 H1143 0.930 . S
C1112 N1109 1.279 . S
C1112 C1111 1.358 . S
C1112 H1115 0.930 . S
C1113 C1110 1.348 . S
C1113 C1111 1.356 . S
H1114 C1108 0.930 . S
H1115 C1112 0.930 . S
O1116 Li1056 1.956 . S
O1116 Li1057 1.970 . S
O1116 Li1058 1.961 . S
O1116 C1060 1.325 . S
O1117 Li1056 1.970 . S
O1117 Li1057 1.956 . S
O1117 Li1059 1.961 . S
O1117 C1066 1.325 . S
O1118 Li1056 1.961 . S
O1118 Li1058 1.956 . S
O1118 Li1059 1.970 . S
O1118 C1088 1.325 . S
O1119 Li1057 1.961 . S
O1119 Li1058 1.970 . S
O1119 Li1059 1.956 . S
O1119 C1094 1.325 . S
H1120 C1062 0.929 . S
H1121 C1063 0.930 . S
H1122 C1064 0.930 . S
H1123 C1065 0.930 . S
H1124 C1067 0.930 . S
H1125 C1069 0.929 . S
H1126 C1070 0.930 . S
H1127 C1071 0.930 . S
H1128 C1074 0.930 . S
H1129 C1077 0.929 . S
H1130 C1082 0.929 . S
H1131 C1083 0.930 . S
H1132 C1090 0.929 . S
H1133 C1091 0.930 . S
H1134 C1092 0.930 . S
H1135 C1093 0.930 . S
H1136 C1095 0.929 . S
H1137 C1096 0.930 . S
H1138 C1097 0.930 . S
H1139 C1098 0.930 . S
H1140 C1102 0.929 . S
H1141 C1104 0.930 . S
H1142 C1110 0.929 . S
H1143 C1111 0.930 . S
Li1144 N1161 1.990 . S
Li1144 O1204 1.956 . S
Li1144 O1205 1.970 . S
Li1144 O1206 1.961 . S
Li1145 N1169 1.990 . S
Li1145 O1204 1.970 . S
Li1145 O1205 1.956 . S
Li1145 O1207 1.961 . S
Li1146 N1191 1.990 . S
Li1146 O1204 1.961 . S
Li1146 O1206 1.956 . S
Li1146 O1207 1.970 . S
Li1147 N1197 1.990 . S
Li1147 O1205 1.961 . S
Li1147 O1206 1.970 . S
Li1147 O1207 1.956 . S
C1148 C1150 1.348 . S
C1148 C1151 1.356 . S
C1148 O1204 1.325 . S
N1149 C1152 1.314 . S
N1149 C1153 1.279 . S
C1150 C1148 1.348 . S
C1150 C1152 1.353 . S
C1150 H1208 0.929 . S
C1151 C1148 1.356 . S
C1151 C1153 1.358 . S
C1151 H1209 0.930 . S
C1152 N1149 1.314 . S
C1152 C1150 1.353 . S
C1152 H1210 0.930 . S
C1153 N1149 1.279 . S
C1153 C1151 1.358 . S
C1153 H1211 0.930 . S
C1154 C1157 1.348 . S
C1154 C1158 1.356 . S
C1154 O1205 1.325 . S
C1155 N1156 1.279 . S
C1155 C1158 1.358 . S
C1155 H1212 0.930 . S
N1156 C1155 1.279 . S
N1156 C1159 1.314 . S
C1157 C1154 1.348 . S
C1157 C1159 1.353 . S
C1157 H1213 0.929 . S
C1158 C1154 1.356 . S
C1158 C1155 1.358 . S
C1158 H1214 0.930 . S
C1159 N1156 1.314 . S
C1159 C1157 1.353 . S
C1159 H1215 0.930 . S
C1160 N1161 1.314 . S
C1160 C1165 1.353 . S
C1160 H1166 0.930 . S
N1161 Li1144 1.990 . S
N1161 C1160 1.314 . S
N1161 C1163 1.279 . S
C1162 C1163 1.358 . S
C1162 C1164 1.356 . S
C1162 H1216 0.930 . S
C1163 N1161 1.279 . S
C1163 C1162 1.358 . S
C1163 H1167 0.930 . S
C1164 C1162 1.356 . S
C1164 C1165 1.348 . S
C1165 C1160 1.353 . S
C1165 C1164 1.348 . S
C1165 H1217 0.929 . S
H1166 C1160 0.930 . S
H1167 C1163 0.930 . S
C1168 N1169 1.314 . S
C1168 C1170 1.353 . S
C1168 H1174 0.930 . S
N1169 Li1145 1.990 . S
N1169 C1168 1.314 . S
N1169 C1172 1.279 . S
C1170 C1168 1.353 . S
C1170 C1173 1.348 . S
C1170 H1218 0.929 . S
C1171 C1172 1.358 . S
C1171 C1173 1.356 . S
C1171 H1219 0.930 . S
C1172 N1169 1.279 . S
C1172 C1171 1.358 . S
C1172 H1175 0.930 . S
C1173 C1170 1.348 . S
C1173 C1171 1.356 . S
H1174 C1168 0.930 . S
H1175 C1172 0.930 . S
C1176 C1178 1.348 . S
C1176 C1179 1.356 . S
C1176 O1206 1.325 . S
N1177 C1180 1.314 . S
N1177 C1181 1.279 . S
C1178 C1176 1.348 . S
C1178 C1180 1.353 . S
C1178 H1220 0.929 . S
C1179 C1176 1.356 . S
C1179 C1181 1.358 . S
C1179 H1221 0.930 . S
C1180 N1177 1.314 . S
C1180 C1178 1.353 . S
C1180 H1222 0.930 . S
C1181 N1177 1.279 . S
C1181 C1179 1.358 . S
C1181 H1223 0.930 . S
C1182 C1183 1.348 . S
C1182 C1184 1.356 . S
C1182 O1207 1.325 . S
C1183 C1182 1.348 . S
C1183 C1185 1.353 . S
C1183 H1224 0.929 . S
C1184 C1182 1.356 . S
C1184 C1186 1.358 . S
C1184 H1225 0.930 . S
C1185 C1183 1.353 . S
C1185 N1187 1.314 . S
C1185 H1226 0.930 . S
C1186 C1184 1.358 . S
C1186 N1187 1.279 . S
C1186 H1227 0.930 . S
N1187 C1185 1.314 . S
N1187 C1186 1.279 . S
C1188 C1190 1.353 . S
C1188 N1191 1.314 . S
C1188 H1194 0.930 . S
C1189 N1191 1.279 . S
C1189 C1192 1.358 . S
C1189 H1195 0.930 . S
C1190 C1188 1.353 . S
C1190 C1193 1.348 . S
C1190 H1228 0.929 . S
N1191 Li1146 1.990 . S
N1191 C1188 1.314 . S
N1191 C1189 1.279 . S
C1192 C1189 1.358 . S
C1192 C1193 1.356 . S
C1192 H1229 0.930 . S
C1193 C1190 1.348 . S
C1193 C1192 1.356 . S
H1194 C1188 0.930 . S
H1195 C1189 0.930 . S
C1196 N1197 1.314 . S
C1196 C1198 1.353 . S
C1196 H1202 0.930 . S
N1197 Li1147 1.990 . S
N1197 C1196 1.314 . S
N1197 C1200 1.279 . S
C1198 C1196 1.353 . S
C1198 C1201 1.348 . S
C1198 H1230 0.929 . S
C1199 C1200 1.358 . S
C1199 C1201 1.356 . S
C1199 H1231 0.930 . S
C1200 N1197 1.279 . S
C1200 C1199 1.358 . S
C1200 H1203 0.930 . S
C1201 C1198 1.348 . S
C1201 C1199 1.356 . S
H1202 C1196 0.930 . S
H1203 C1200 0.930 . S
O1204 Li1144 1.956 . S
O1204 Li1145 1.970 . S
O1204 Li1146 1.961 . S
O1204 C1148 1.325 . S
O1205 Li1144 1.970 . S
O1205 Li1145 1.956 . S
O1205 Li1147 1.961 . S
O1205 C1154 1.325 . S
O1206 Li1144 1.961 . S
O1206 Li1146 1.956 . S
O1206 Li1147 1.970 . S
O1206 C1176 1.325 . S
O1207 Li1145 1.961 . S
O1207 Li1146 1.970 . S
O1207 Li1147 1.956 . S
O1207 C1182 1.325 . S
H1208 C1150 0.929 . S
H1209 C1151 0.930 . S
H1210 C1152 0.930 . S
H1211 C1153 0.930 . S
H1212 C1155 0.930 . S
H1213 C1157 0.929 . S
H1214 C1158 0.930 . S
H1215 C1159 0.930 . S
H1216 C1162 0.930 . S
H1217 C1165 0.929 . S
H1218 C1170 0.929 . S
H1219 C1171 0.930 . S
H1220 C1178 0.929 . S
H1221 C1179 0.930 . S
H1222 C1180 0.930 . S
H1223 C1181 0.930 . S
H1224 C1183 0.929 . S
H1225 C1184 0.930 . S
H1226 C1185 0.930 . S
H1227 C1186 0.930 . S
H1228 C1190 0.929 . S
H1229 C1192 0.930 . S
H1230 C1198 0.929 . S
H1231 C1199 0.930 . S
Li1232 N1249 1.990 . S
Li1232 O1292 1.956 . S
Li1232 O1293 1.970 . S
Li1232 O1294 1.961 . S
Li1233 N1257 1.990 . S
Li1233 O1292 1.970 . S
Li1233 O1293 1.956 . S
Li1233 O1295 1.961 . S
Li1234 N1279 1.990 . S
Li1234 O1292 1.961 . S
Li1234 O1294 1.956 . S
Li1234 O1295 1.970 . S
Li1235 N1285 1.990 . S
Li1235 O1293 1.961 . S
Li1235 O1294 1.970 . S
Li1235 O1295 1.956 . S
C1236 C1238 1.348 . S
C1236 C1239 1.356 . S
C1236 O1292 1.325 . S
N1237 C1240 1.314 . S
N1237 C1241 1.279 . S
C1238 C1236 1.348 . S
C1238 C1240 1.353 . S
C1238 H1296 0.929 . S
C1239 C1236 1.356 . S
C1239 C1241 1.358 . S
C1239 H1297 0.930 . S
C1240 N1237 1.314 . S
C1240 C1238 1.353 . S
C1240 H1298 0.930 . S
C1241 N1237 1.279 . S
C1241 C1239 1.358 . S
C1241 H1299 0.930 . S
C1242 C1245 1.348 . S
C1242 C1246 1.356 . S
C1242 O1293 1.325 . S
C1243 N1244 1.279 . S
C1243 C1246 1.358 . S
C1243 H1300 0.930 . S
N1244 C1243 1.279 . S
N1244 C1247 1.314 . S
C1245 C1242 1.348 . S
C1245 C1247 1.353 . S
C1245 H1301 0.929 . S
C1246 C1242 1.356 . S
C1246 C1243 1.358 . S
C1246 H1302 0.930 . S
C1247 N1244 1.314 . S
C1247 C1245 1.353 . S
C1247 H1303 0.930 . S
C1248 N1249 1.314 . S
C1248 C1253 1.353 . S
C1248 H1254 0.930 . S
N1249 Li1232 1.990 . S
N1249 C1248 1.314 . S
N1249 C1251 1.279 . S
C1250 C1251 1.358 . S
C1250 C1252 1.356 . S
C1250 H1304 0.930 . S
C1251 N1249 1.279 . S
C1251 C1250 1.358 . S
C1251 H1255 0.930 . S
C1252 C1250 1.356 . S
C1252 C1253 1.348 . S
C1253 C1248 1.353 . S
C1253 C1252 1.348 . S
C1253 H1305 0.929 . S
H1254 C1248 0.930 . S
H1255 C1251 0.930 . S
C1256 N1257 1.314 . S
C1256 C1258 1.353 . S
C1256 H1262 0.930 . S
N1257 Li1233 1.990 . S
N1257 C1256 1.314 . S
N1257 C1260 1.279 . S
C1258 C1256 1.353 . S
C1258 C1261 1.348 . S
C1258 H1306 0.929 1_455 S
C1259 C1260 1.358 . S
C1259 C1261 1.356 . S
C1259 H1307 0.930 . S
C1260 N1257 1.279 . S
C1260 C1259 1.358 . S
C1260 H1263 0.930 . S
C1261 C1258 1.348 . S
C1261 C1259 1.356 . S
H1262 C1256 0.930 . S
H1263 C1260 0.930 . S
C1264 C1266 1.348 . S
C1264 C1267 1.356 . S
C1264 O1294 1.325 . S
N1265 C1268 1.314 . S
N1265 C1269 1.279 . S
C1266 C1264 1.348 . S
C1266 C1268 1.353 . S
C1266 H1308 0.929 . S
C1267 C1264 1.356 . S
C1267 C1269 1.358 . S
C1267 H1309 0.930 . S
C1268 N1265 1.314 . S
C1268 C1266 1.353 . S
C1268 H1310 0.930 . S
C1269 N1265 1.279 . S
C1269 C1267 1.358 . S
C1269 H1311 0.930 . S
C1270 C1271 1.348 . S
C1270 C1272 1.356 . S
C1270 O1295 1.325 . S
C1271 C1270 1.348 . S
C1271 C1273 1.353 . S
C1271 H1312 0.929 . S
C1272 C1270 1.356 . S
C1272 C1274 1.320 1_455 S
C1272 H1313 0.930 . S
C1273 C1271 1.353 . S
C1273 N1275 1.314 1_455 S
C1273 H1314 0.930 . S
C1274 C1272 1.320 1_655 S
C1274 N1275 1.291 . S
C1274 H1315 0.961 . S
N1275 C1273 1.314 1_655 S
N1275 C1274 1.291 . S
C1276 C1278 1.353 . S
C1276 N1279 1.314 . S
C1276 H1282 0.930 . S
C1277 N1279 1.279 . S
C1277 C1280 1.358 . S
C1277 H1283 0.930 . S
C1278 C1276 1.353 . S
C1278 C1281 1.348 . S
C1278 H1316 0.929 . S
N1279 Li1234 1.990 . S
N1279 C1276 1.314 . S
N1279 C1277 1.279 . S
C1280 C1277 1.358 . S
C1280 C1281 1.356 . S
C1280 H1317 0.930 . S
C1281 C1278 1.348 . S
C1281 C1280 1.356 . S
H1282 C1276 0.930 . S
H1283 C1277 0.930 . S
C1284 N1285 1.314 . S
C1284 C1286 1.353 . S
C1284 H1290 0.930 . S
N1285 Li1235 1.990 . S
N1285 C1284 1.314 . S
N1285 C1288 1.279 . S
C1286 C1284 1.353 . S
C1286 C1289 1.348 . S
C1286 H1318 0.929 . S
C1287 C1288 1.358 . S
C1287 C1289 1.356 . S
C1287 H1319 0.930 . S
C1288 N1285 1.279 . S
C1288 C1287 1.358 . S
C1288 H1291 0.930 . S
C1289 C1286 1.348 . S
C1289 C1287 1.356 . S
H1290 C1284 0.930 . S
H1291 C1288 0.930 . S
O1292 Li1232 1.956 . S
O1292 Li1233 1.970 . S
O1292 Li1234 1.961 . S
O1292 C1236 1.325 . S
O1293 Li1232 1.970 . S
O1293 Li1233 1.956 . S
O1293 Li1235 1.961 . S
O1293 C1242 1.325 . S
O1294 Li1232 1.961 . S
O1294 Li1234 1.956 . S
O1294 Li1235 1.970 . S
O1294 C1264 1.325 . S
O1295 Li1233 1.961 . S
O1295 Li1234 1.970 . S
O1295 Li1235 1.956 . S
O1295 C1270 1.325 . S
H1296 C1238 0.929 . S
H1297 C1239 0.930 . S
H1298 C1240 0.930 . S
H1299 C1241 0.930 . S
H1300 C1243 0.930 . S
H1301 C1245 0.929 . S
H1302 C1246 0.930 . S
H1303 C1247 0.930 . S
H1304 C1250 0.930 . S
H1305 C1253 0.929 . S
H1306 C1258 0.929 1_655 S
H1307 C1259 0.930 . S
H1308 C1266 0.929 . S
H1309 C1267 0.930 . S
H1310 C1268 0.930 . S
H1311 C1269 0.930 . S
H1312 C1271 0.929 . S
H1313 C1272 0.930 . S
H1314 C1273 0.930 . S
H1315 C1274 0.961 . S
H1316 C1278 0.929 . S
H1317 C1280 0.930 . S
H1318 C1286 0.929 . S
H1319 C1287 0.930 . S
Li1320 N1337 1.990 . S
Li1320 O1380 1.956 . S
Li1320 O1381 1.970 . S
Li1320 O1382 1.961 . S
Li1321 N1345 1.990 . S
Li1321 O1380 1.970 . S
Li1321 O1381 1.956 . S
Li1321 O1383 1.961 . S
Li1322 N1367 1.990 . S
Li1322 O1380 1.961 . S
Li1322 O1382 1.956 . S
Li1322 O1383 1.970 . S
Li1323 N1373 1.990 . S
Li1323 O1381 1.961 . S
Li1323 O1382 1.970 . S
Li1323 O1383 1.956 . S
C1324 C1326 1.348 . S
C1324 C1327 1.356 . S
C1324 O1380 1.325 . S
N1325 C1328 1.314 1_565 S
N1325 C1329 1.291 . S
C1326 C1324 1.348 . S
C1326 C1328 1.353 . S
C1326 H1384 0.929 . S
C1327 C1324 1.356 . S
C1327 C1329 1.320 1_545 S
C1327 H1385 0.930 . S
C1328 N1325 1.314 1_545 S
C1328 C1326 1.353 . S
C1328 H1386 0.930 . S
C1329 N1325 1.291 . S
C1329 C1327 1.320 1_565 S
C1329 H1387 0.961 . S
C1330 C1333 1.348 . S
C1330 C1334 1.356 . S
C1330 O1381 1.325 . S
C1331 N1332 1.279 . S
C1331 C1334 1.358 . S
C1331 H1388 0.930 . S
N1332 C1331 1.279 . S
N1332 C1335 1.314 . S
C1333 C1330 1.348 . S
C1333 C1335 1.353 . S
C1333 H1389 0.929 . S
C1334 C1330 1.356 . S
C1334 C1331 1.358 . S
C1334 H1390 0.930 . S
C1335 N1332 1.314 . S
C1335 C1333 1.353 . S
C1335 H1391 0.930 . S
C1336 N1337 1.314 . S
C1336 C1341 1.353 . S
C1336 H1342 0.930 . S
N1337 Li1320 1.990 . S
N1337 C1336 1.314 . S
N1337 C1339 1.279 . S
C1338 C1339 1.358 . S
C1338 C1340 1.356 . S
C1338 H1392 0.930 . S
C1339 N1337 1.279 . S
C1339 C1338 1.358 . S
C1339 H1343 0.930 . S
C1340 C1338 1.356 . S
C1340 C1341 1.348 . S
C1341 C1336 1.353 . S
C1341 C1340 1.348 . S
C1341 H1393 0.929 . S
H1342 C1336 0.930 . S
H1343 C1339 0.930 . S
C1344 N1345 1.314 . S
C1344 C1346 1.353 . S
C1344 H1350 0.930 . S
N1345 Li1321 1.990 . S
N1345 C1344 1.314 . S
N1345 C1348 1.279 . S
C1346 C1344 1.353 . S
C1346 C1349 1.348 . S
C1346 H1394 0.929 . S
C1347 C1348 1.358 . S
C1347 C1349 1.356 . S
C1347 H1395 0.930 . S
C1348 N1345 1.279 . S
C1348 C1347 1.358 . S
C1348 H1351 0.930 . S
C1349 C1346 1.348 . S
C1349 C1347 1.356 . S
H1350 C1344 0.930 . S
H1351 C1348 0.930 . S
C1352 C1354 1.348 . S
C1352 C1355 1.356 . S
C1352 O1382 1.325 . S
N1353 C1356 1.314 . S
N1353 C1357 1.279 . S
C1354 C1352 1.348 . S
C1354 C1356 1.353 . S
C1354 H1396 0.929 . S
C1355 C1352 1.356 . S
C1355 C1357 1.358 . S
C1355 H1397 0.930 . S
C1356 N1353 1.314 . S
C1356 C1354 1.353 . S
C1356 H1398 0.930 . S
C1357 N1353 1.279 . S
C1357 C1355 1.358 . S
C1357 H1399 0.930 . S
C1358 C1359 1.348 . S
C1358 C1360 1.356 . S
C1358 O1383 1.325 . S
C1359 C1358 1.348 . S
C1359 C1361 1.353 . S
C1359 H1400 0.929 . S
C1360 C1358 1.356 . S
C1360 C1362 1.358 . S
C1360 H1401 0.930 . S
C1361 C1359 1.353 . S
C1361 N1363 1.314 . S
C1361 H1402 0.930 . S
C1362 C1360 1.358 . S
C1362 N1363 1.279 . S
C1362 H1403 0.930 . S
N1363 C1361 1.314 . S
N1363 C1362 1.279 . S
C1364 C1366 1.353 . S
C1364 N1367 1.314 . S
C1364 H1370 0.930 . S
C1365 N1367 1.279 . S
C1365 C1368 1.358 . S
C1365 H1371 0.930 . S
C1366 C1364 1.353 . S
C1366 C1369 1.348 . S
C1366 H1404 0.929 1_545 S
N1367 Li1322 1.990 . S
N1367 C1364 1.314 . S
N1367 C1365 1.279 . S
C1368 C1365 1.358 . S
C1368 C1369 1.356 . S
C1368 H1405 0.930 . S
C1369 C1366 1.348 . S
C1369 C1368 1.356 . S
H1370 C1364 0.930 . S
H1371 C1365 0.930 . S
C1372 N1373 1.314 . S
C1372 C1374 1.353 . S
C1372 H1378 0.930 . S
N1373 Li1323 1.990 . S
N1373 C1372 1.314 . S
N1373 C1376 1.279 . S
C1374 C1372 1.353 . S
C1374 C1377 1.348 . S
C1374 H1406 0.929 . S
C1375 C1376 1.358 . S
C1375 C1377 1.356 . S
C1375 H1407 0.930 . S
C1376 N1373 1.279 . S
C1376 C1375 1.358 . S
C1376 H1379 0.930 . S
C1377 C1374 1.348 . S
C1377 C1375 1.356 . S
H1378 C1372 0.930 . S
H1379 C1376 0.930 . S
O1380 Li1320 1.956 . S
O1380 Li1321 1.970 . S
O1380 Li1322 1.961 . S
O1380 C1324 1.325 . S
O1381 Li1320 1.970 . S
O1381 Li1321 1.956 . S
O1381 Li1323 1.961 . S
O1381 C1330 1.325 . S
O1382 Li1320 1.961 . S
O1382 Li1322 1.956 . S
O1382 Li1323 1.970 . S
O1382 C1352 1.325 . S
O1383 Li1321 1.961 . S
O1383 Li1322 1.970 . S
O1383 Li1323 1.956 . S
O1383 C1358 1.325 . S
H1384 C1326 0.929 . S
H1385 C1327 0.930 . S
H1386 C1328 0.930 . S
H1387 C1329 0.961 . S
H1388 C1331 0.930 . S
H1389 C1333 0.929 . S
H1390 C1334 0.930 . S
H1391 C1335 0.930 . S
H1392 C1338 0.930 . S
H1393 C1341 0.929 . S
H1394 C1346 0.929 . S
H1395 C1347 0.930 . S
H1396 C1354 0.929 . S
H1397 C1355 0.930 . S
H1398 C1356 0.930 . S
H1399 C1357 0.930 . S
H1400 C1359 0.929 . S
H1401 C1360 0.930 . S
H1402 C1361 0.930 . S
H1403 C1362 0.930 . S
H1404 C1366 0.929 1_565 S
H1405 C1368 0.930 . S
H1406 C1374 0.929 . S
H1407 C1375 0.930 . S
C1408 C1409 1.391 1_556 S
C1408 C1410 1.394 . S
C1408 H1424 0.931 . S
C1409 C1408 1.391 1_554 S
C1409 C1413 1.376 . S
C1410 C1408 1.394 . S
C1410 C1411 1.369 . S
C1410 C1414 1.531 . S
C1411 C1410 1.369 . S
C1411 C1412 1.410 1_556 S
C1411 C1419 1.503 . S
C1412 C1411 1.410 1_554 S
C1412 C1413 1.392 . S
C1412 C1415 1.511 . S
C1413 C1409 1.376 . S
C1413 C1412 1.392 . S
C1413 H1425 0.929 . S
C1414 C1410 1.531 . S
C1414 H1426 0.960 . S
C1414 H1427 0.962 . S
C1414 H1428 0.960 . S
C1415 C1412 1.511 . S
C1415 H1429 0.961 . S
C1415 H1430 0.961 . S
C1415 H1431 0.961 . S
C1416 C1417 1.370 . S
C1416 C1418 1.363 . S
C1416 H1432 0.931 . S
C1417 C1416 1.370 . S
C1417 C1421 1.408 . S
C1418 C1416 1.363 . S
C1418 C1419 1.370 . S
C1418 C1422 1.524 . S
C1419 C1411 1.503 . S
C1419 C1418 1.370 . S
C1419 C1420 1.403 . S
C1420 C1419 1.403 . S
C1420 C1421 1.404 . S
C1420 C1423 1.539 . S
C1421 C1417 1.408 . S
C1421 C1420 1.404 . S
C1421 H1433 0.930 . S
C1422 C1418 1.524 . S
C1422 H1434 0.956 . S
C1422 H1435 0.961 . S
C1422 H1436 0.961 . S
C1423 C1420 1.539 . S
C1423 H1437 0.958 . S
C1423 H1438 0.961 . S
C1423 H1439 0.960 . S
H1424 C1408 0.931 . S
H1425 C1413 0.929 . S
H1426 C1414 0.960 . S
H1427 C1414 0.962 . S
H1428 C1414 0.960 . S
H1429 C1415 0.961 . S
H1430 C1415 0.961 . S
H1431 C1415 0.961 . S
H1432 C1416 0.931 . S
H1433 C1421 0.930 . S
H1434 C1422 0.956 . S
H1435 C1422 0.961 . S
H1436 C1422 0.961 . S
H1437 C1423 0.958 . S
H1438 C1423 0.961 . S
H1439 C1423 0.960 . S
C1440 C1441 1.391 . S
C1440 C1442 1.394 . S
C1440 H1456 0.931 . S
C1441 C1440 1.391 . S
C1441 C1445 1.376 . S
C1442 C1440 1.394 . S
C1442 C1443 1.369 . S
C1442 C1446 1.531 1_556 S
C1443 C1442 1.369 . S
C1443 C1444 1.410 . S
C1443 C1451 1.503 . S
C1444 C1443 1.410 . S
C1444 C1445 1.392 . S
C1444 C1447 1.511 . S
C1445 C1441 1.376 . S
C1445 C1444 1.392 . S
C1445 H1457 0.929 . S
C1446 C1442 1.531 1_554 S
C1446 H1458 0.960 . S
C1446 H1459 0.962 . S
C1446 H1460 0.960 . S
C1447 C1444 1.511 . S
C1447 H1461 0.961 . S
C1447 H1462 0.961 . S
C1447 H1463 0.961 . S
C1448 C1449 1.370 . S
C1448 C1450 1.363 1_554 S
C1448 H1464 0.931 . S
C1449 C1448 1.370 . S
C1449 C1453 1.408 . S
C1450 C1448 1.363 1_556 S
C1450 C1451 1.370 . S
C1450 C1454 1.524 . S
C1451 C1443 1.503 . S
C1451 C1450 1.370 . S
C1451 C1452 1.403 . S
C1452 C1451 1.403 . S
C1452 C1453 1.404 1_556 S
C1452 C1455 1.539 . S
C1453 C1449 1.408 . S
C1453 C1452 1.404 1_554 S
C1453 H1465 0.930 . S
C1454 C1450 1.524 . S
C1454 H1466 0.956 . S
C1454 H1467 0.961 . S
C1454 H1468 0.978 . S
C1455 C1452 1.539 . S
C1455 H1469 0.958 . S
C1455 H1470 0.961 . S
C1455 H1471 0.960 . S
H1456 C1440 0.931 . S
H1457 C1445 0.929 . S
H1458 C1446 0.960 . S
H1459 C1446 0.962 . S
H1460 C1446 0.960 . S
H1461 C1447 0.961 . S
H1462 C1447 0.961 . S
H1463 C1447 0.961 . S
H1464 C1448 0.931 . S
H1465 C1453 0.930 . S
H1466 C1454 0.956 . S
H1467 C1454 0.961 . S
H1468 C1454 0.978 . S
H1469 C1455 0.958 . S
H1470 C1455 0.961 . S
H1471 C1455 0.960 . S
C1472 C1473 1.391 . S
C1472 C1474 1.394 . S
C1472 H1488 0.931 . S
C1473 C1472 1.391 . S
C1473 C1477 1.376 . S
C1474 C1472 1.394 . S
C1474 C1475 1.369 . S
C1474 C1478 1.531 . S
C1475 C1474 1.369 . S
C1475 C1476 1.410 . S
C1475 C1483 1.503 . S
C1476 C1475 1.410 . S
C1476 C1477 1.392 . S
C1476 C1479 1.511 . S
C1477 C1473 1.376 . S
C1477 C1476 1.392 . S
C1477 H1489 0.929 . S
C1478 C1474 1.531 . S
C1478 H1490 0.960 . S
C1478 H1491 0.962 . S
C1478 H1492 0.960 . S
C1479 C1476 1.511 . S
C1479 H1493 0.961 1_556 S
C1479 H1494 0.961 1_556 S
C1479 H1495 0.961 . S
C1480 C1481 1.370 . S
C1480 C1482 1.363 1_554 S
C1480 H1496 0.931 . S
C1481 C1480 1.370 . S
C1481 C1485 1.408 1_554 S
C1482 C1480 1.363 1_556 S
C1482 C1483 1.370 . S
C1482 C1486 1.525 . S
C1483 C1475 1.503 . S
C1483 C1482 1.370 . S
C1483 C1484 1.403 . S
C1484 C1483 1.403 . S
C1484 C1485 1.404 . S
C1484 C1487 1.539 . S
C1485 C1481 1.408 1_556 S
C1485 C1484 1.404 . S
C1485 H1497 0.930 . S
C1486 C1482 1.525 . S
C1486 H1498 0.969 . S
C1486 H1499 0.959 1_556 S
C1486 H1500 0.949 1_556 S
C1487 C1484 1.539 . S
C1487 H1501 0.958 . S
C1487 H1502 0.961 . S
C1487 H1503 0.960 . S
H1488 C1472 0.931 . S
H1489 C1477 0.929 . S
H1490 C1478 0.960 . S
H1491 C1478 0.962 . S
H1492 C1478 0.960 . S
H1493 C1479 0.961 1_554 S
H1494 C1479 0.961 1_554 S
H1495 C1479 0.961 . S
H1496 C1480 0.931 . S
H1497 C1485 0.930 . S
H1498 C1486 0.969 . S
H1499 C1486 0.959 1_554 S
H1500 C1486 0.949 1_554 S
H1501 C1487 0.958 . S
H1502 C1487 0.961 . S
H1503 C1487 0.960 . S
C1504 C1505 1.391 . S
C1504 C1506 1.394 . S
C1504 H1520 0.931 . S
C1505 C1504 1.391 . S
C1505 C1509 1.376 . S
C1506 C1504 1.394 . S
C1506 C1507 1.369 . S
C1506 C1510 1.531 . S
C1507 C1506 1.369 . S
C1507 C1508 1.410 . S
C1507 C1515 1.503 . S
C1508 C1507 1.410 . S
C1508 C1509 1.392 . S
C1508 C1511 1.511 . S
C1509 C1505 1.376 . S
C1509 C1508 1.392 . S
C1509 H1521 0.929 . S
C1510 C1506 1.531 . S
C1510 H1522 0.960 . S
C1510 H1523 0.962 . S
C1510 H1524 0.960 . S
C1511 C1508 1.511 . S
C1511 H1525 0.961 . S
C1511 H1526 0.961 . S
C1511 H1527 0.961 . S
C1512 C1513 1.370 . S
C1512 C1514 1.363 . S
C1512 H1528 0.931 . S
C1513 C1512 1.370 . S
C1513 C1517 1.408 1_554 S
C1514 C1512 1.363 . S
C1514 C1515 1.370 1_554 S
C1514 C1518 1.524 . S
C1515 C1507 1.503 . S
C1515 C1514 1.370 1_556 S
C1515 C1516 1.403 . S
C1516 C1515 1.403 . S
C1516 C1517 1.404 . S
C1516 C1519 1.539 . S
C1517 C1513 1.408 1_556 S
C1517 C1516 1.404 . S
C1517 H1529 0.930 . S
C1518 C1514 1.524 . S
C1518 H1530 0.956 . S
C1518 H1531 0.961 . S
C1518 H1532 0.961 . S
C1519 C1516 1.539 . S
C1519 H1533 0.958 . S
C1519 H1534 0.961 . S
C1519 H1535 0.960 . S
H1520 C1504 0.931 . S
H1521 C1509 0.929 . S
H1522 C1510 0.960 . S
H1523 C1510 0.962 . S
H1524 C1510 0.960 . S
H1525 C1511 0.961 . S
H1526 C1511 0.961 . S
H1527 C1511 0.961 . S
H1528 C1512 0.931 . S
H1529 C1517 0.930 . S
H1530 C1518 0.956 . S
H1531 C1518 0.961 . S
H1532 C1518 0.961 . S
H1533 C1519 0.958 . S
H1534 C1519 0.961 . S
H1535 C1519 0.960 . S
C1536 C1537 1.391 . S
C1536 C1538 1.394 . S
C1536 H1552 0.931 . S
C1537 C1536 1.391 . S
C1537 C1541 1.376 . S
C1538 C1536 1.394 . S
C1538 C1539 1.369 . S
C1538 C1542 1.531 . S
C1539 C1538 1.369 . S
C1539 C1540 1.410 . S
C1539 C1547 1.503 . S
C1540 C1539 1.410 . S
C1540 C1541 1.392 . S
C1540 C1543 1.511 . S
C1541 C1537 1.376 . S
C1541 C1540 1.392 . S
C1541 H1553 0.929 . S
C1542 C1538 1.531 . S
C1542 H1554 0.960 . S
C1542 H1555 0.962 . S
C1542 H1556 0.960 . S
C1543 C1540 1.511 . S
C1543 H1557 0.961 . S
C1543 H1558 0.961 . S
C1543 H1559 0.961 . S
C1544 C1545 1.370 . S
C1544 C1546 1.363 . S
C1544 H1560 0.931 . S
C1545 C1544 1.370 . S
C1545 C1549 1.408 . S
C1546 C1544 1.363 . S
C1546 C1547 1.370 . S
C1546 C1550 1.524 . S
C1547 C1539 1.503 . S
C1547 C1546 1.370 . S
C1547 C1548 1.403 . S
C1548 C1547 1.403 . S
C1548 C1549 1.404 . S
C1548 C1551 1.539 . S
C1549 C1545 1.408 . S
C1549 C1548 1.404 . S
C1549 H1561 0.930 . S
C1550 C1546 1.524 . S
C1550 H1562 0.956 . S
C1550 H1563 0.961 . S
C1550 H1564 0.961 . S
C1551 C1548 1.539 . S
C1551 H1565 0.958 . S
C1551 H1566 0.961 . S
C1551 H1567 0.960 . S
H1552 C1536 0.931 . S
H1553 C1541 0.929 . S
H1554 C1542 0.960 . S
H1555 C1542 0.962 . S
H1556 C1542 0.960 . S
H1557 C1543 0.961 . S
H1558 C1543 0.961 . S
H1559 C1543 0.961 . S
H1560 C1544 0.931 . S
H1561 C1549 0.930 . S
H1562 C1550 0.956 . S
H1563 C1550 0.961 . S
H1564 C1550 0.961 . S
H1565 C1551 0.958 . S
H1566 C1551 0.961 . S
H1567 C1551 0.960 . S
C1568 C1569 1.391 . S
C1568 C1570 1.394 . S
C1568 H1584 0.931 . S
C1569 C1568 1.391 . S
C1569 C1573 1.376 . S
C1570 C1568 1.394 . S
C1570 C1571 1.369 . S
C1570 C1574 1.531 . S
C1571 C1570 1.369 . S
C1571 C1572 1.410 . S
C1571 C1579 1.503 . S
C1572 C1571 1.410 . S
C1572 C1573 1.392 . S
C1572 C1575 1.511 . S
C1573 C1569 1.376 . S
C1573 C1572 1.392 . S
C1573 H1585 0.929 . S
C1574 C1570 1.531 . S
C1574 H1586 0.960 . S
C1574 H1587 0.962 . S
C1574 H1588 0.960 . S
C1575 C1572 1.511 . S
C1575 H1589 0.961 . S
C1575 H1590 0.961 . S
C1575 H1591 0.961 . S
C1576 C1577 1.370 . S
C1576 C1578 1.363 . S
C1576 H1592 0.931 . S
C1577 C1576 1.370 . S
C1577 C1581 1.408 . S
C1578 C1576 1.363 . S
C1578 C1579 1.370 . S
C1578 C1582 1.524 . S
C1579 C1571 1.503 . S
C1579 C1578 1.370 . S
C1579 C1580 1.403 . S
C1580 C1579 1.403 . S
C1580 C1581 1.404 . S
C1580 C1583 1.539 . S
C1581 C1577 1.408 . S
C1581 C1580 1.404 . S
C1581 H1593 0.930 . S
C1582 C1578 1.524 . S
C1582 H1594 0.956 . S
C1582 H1595 0.961 . S
C1582 H1596 0.961 . S
C1583 C1580 1.539 . S
C1583 H1597 0.958 . S
C1583 H1598 0.961 . S
C1583 H1599 0.960 . S
H1584 C1568 0.931 . S
H1585 C1573 0.929 . S
H1586 C1574 0.960 . S
H1587 C1574 0.962 . S
H1588 C1574 0.960 . S
H1589 C1575 0.961 . S
H1590 C1575 0.961 . S
H1591 C1575 0.961 . S
H1592 C1576 0.931 . S
H1593 C1581 0.930 . S
H1594 C1582 0.956 . S
H1595 C1582 0.961 . S
H1596 C1582 0.961 . S
H1597 C1583 0.958 . S
H1598 C1583 0.961 . S
H1599 C1583 0.960 . S
C1600 C1601 1.391 . S
C1600 C1602 1.394 . S
C1600 H1616 0.931 . S
C1601 C1600 1.391 . S
C1601 C1605 1.376 . S
C1602 C1600 1.394 . S
C1602 C1603 1.369 . S
C1602 C1606 1.531 . S
C1603 C1602 1.369 . S
C1603 C1604 1.410 . S
C1603 C1611 1.503 . S
C1604 C1603 1.410 . S
C1604 C1605 1.392 . S
C1604 C1607 1.511 . S
C1605 C1601 1.376 . S
C1605 C1604 1.392 . S
C1605 H1617 0.929 . S
C1606 C1602 1.531 . S
C1606 H1618 0.960 . S
C1606 H1619 0.962 . S
C1606 H1620 0.960 . S
C1607 C1604 1.511 . S
C1607 H1621 0.961 . S
C1607 H1622 0.961 . S
C1607 H1623 0.961 . S
C1608 C1609 1.370 . S
C1608 C1610 1.363 . S
C1608 H1624 0.931 . S
C1609 C1608 1.370 . S
C1609 C1613 1.408 . S
C1610 C1608 1.363 . S
C1610 C1611 1.370 . S
C1610 C1614 1.524 . S
C1611 C1603 1.503 . S
C1611 C1610 1.370 . S
C1611 C1612 1.403 . S
C1612 C1611 1.403 . S
C1612 C1613 1.404 . S
C1612 C1615 1.539 . S
C1613 C1609 1.408 . S
C1613 C1612 1.404 . S
C1613 H1625 0.930 . S
C1614 C1610 1.524 . S
C1614 H1626 0.956 . S
C1614 H1627 0.961 . S
C1614 H1628 0.961 . S
C1615 C1612 1.539 . S
C1615 H1629 0.958 . S
C1615 H1630 0.961 . S
C1615 H1631 0.960 . S
H1616 C1600 0.931 . S
H1617 C1605 0.929 . S
H1618 C1606 0.960 . S
H1619 C1606 0.962 . S
H1620 C1606 0.960 . S
H1621 C1607 0.961 . S
H1622 C1607 0.961 . S
H1623 C1607 0.961 . S
H1624 C1608 0.931 . S
H1625 C1613 0.930 . S
H1626 C1614 0.956 . S
H1627 C1614 0.961 . S
H1628 C1614 0.961 . S
H1629 C1615 0.958 . S
H1630 C1615 0.961 . S
H1631 C1615 0.960 . S
C1632 C1633 1.391 . S
C1632 C1634 1.394 . S
C1632 H1648 0.931 . S
C1633 C1632 1.391 . S
C1633 C1637 1.376 . S
C1634 C1632 1.394 . S
C1634 C1635 1.369 . S
C1634 C1638 1.531 . S
C1635 C1634 1.369 . S
C1635 C1636 1.410 . S
C1635 C1643 1.503 . S
C1636 C1635 1.410 . S
C1636 C1637 1.392 . S
C1636 C1639 1.511 . S
C1637 C1633 1.376 . S
C1637 C1636 1.392 . S
C1637 H1649 0.929 . S
C1638 C1634 1.531 . S
C1638 H1650 0.960 . S
C1638 H1651 0.962 . S
C1638 H1652 0.960 . S
C1639 C1636 1.511 . S
C1639 H1653 0.961 . S
C1639 H1654 0.961 . S
C1639 H1655 0.961 . S
C1640 C1641 1.370 . S
C1640 C1642 1.363 . S
C1640 H1656 0.931 . S
C1641 C1640 1.370 . S
C1641 C1645 1.408 . S
C1642 C1640 1.363 . S
C1642 C1643 1.370 . S
C1642 C1646 1.524 . S
C1643 C1635 1.503 . S
C1643 C1642 1.370 . S
C1643 C1644 1.403 . S
C1644 C1643 1.403 . S
C1644 C1645 1.404 . S
C1644 C1647 1.539 . S
C1645 C1641 1.408 . S
C1645 C1644 1.404 . S
C1645 H1657 0.930 . S
C1646 C1642 1.524 . S
C1646 H1658 0.956 . S
C1646 H1659 0.961 . S
C1646 H1660 0.961 . S
C1647 C1644 1.539 . S
C1647 H1661 0.958 . S
C1647 H1662 0.961 . S
C1647 H1663 0.960 . S
H1648 C1632 0.931 . S
H1649 C1637 0.929 . S
H1650 C1638 0.960 . S
H1651 C1638 0.962 . S
H1652 C1638 0.960 . S
H1653 C1639 0.961 . S
H1654 C1639 0.961 . S
H1655 C1639 0.961 . S
H1656 C1640 0.931 . S
H1657 C1645 0.930 . S
H1658 C1646 0.956 . S
H1659 C1646 0.961 . S
H1660 C1646 0.961 . S
H1661 C1647 0.958 . S
H1662 C1647 0.961 . S
H1663 C1647 0.960 . S
C1664 C1665 1.391 . S
C1664 C1666 1.394 1_556 S
C1664 H1680 0.931 . S
C1665 C1664 1.391 . S
C1665 C1669 1.376 1_556 S
C1666 C1664 1.394 1_554 S
C1666 C1667 1.369 . S
C1666 C1670 1.531 . S
C1667 C1666 1.369 . S
C1667 C1668 1.410 . S
C1667 C1675 1.503 . S
C1668 C1667 1.410 . S
C1668 C1669 1.392 . S
C1668 C1671 1.511 . S
C1669 C1665 1.376 1_554 S
C1669 C1668 1.392 . S
C1669 H1681 0.929 . S
C1670 C1666 1.531 . S
C1670 H1682 0.960 . S
C1670 H1683 0.962 1_554 S
C1670 H1684 0.960 1_554 S
C1671 C1668 1.511 . S
C1671 H1685 0.961 . S
C1671 H1686 0.961 . S
C1671 H1687 0.961 . S
C1672 C1673 1.370 . S
C1672 C1674 1.363 . S
C1672 H1688 0.931 . S
C1673 C1672 1.370 . S
C1673 C1677 1.408 . S
C1674 C1672 1.363 . S
C1674 C1675 1.370 . S
C1674 C1678 1.523 1_554 S
C1675 C1667 1.503 . S
C1675 C1674 1.370 . S
C1675 C1676 1.403 . S
C1676 C1675 1.403 . S
C1676 C1677 1.404 . S
C1676 C1679 1.539 . S
C1677 C1673 1.408 . S
C1677 C1676 1.404 . S
C1677 H1689 0.930 . S
C1678 C1674 1.523 1_556 S
C1678 H1690 0.956 . S
C1678 H1691 0.961 . S
C1678 H1692 0.961 . S
C1679 C1676 1.539 . S
C1679 H1693 0.958 . S
C1679 H1694 0.961 . S
C1679 H1695 0.960 . S
H1680 C1664 0.931 . S
H1681 C1669 0.929 . S
H1682 C1670 0.960 . S
H1683 C1670 0.962 1_556 S
H1684 C1670 0.960 1_556 S
H1685 C1671 0.961 . S
H1686 C1671 0.961 . S
H1687 C1671 0.961 . S
H1688 C1672 0.931 . S
H1689 C1677 0.930 . S
H1690 C1678 0.956 . S
H1691 C1678 0.961 . S
H1692 C1678 0.961 . S
H1693 C1679 0.958 . S
H1694 C1679 0.961 . S
H1695 C1679 0.960 . S
C1696 C1697 1.391 . S
C1696 C1698 1.394 1_556 S
C1696 H1712 0.931 . S
C1697 C1696 1.391 . S
C1697 C1701 1.376 . S
C1698 C1696 1.394 1_554 S
C1698 C1699 1.369 . S
C1698 C1702 1.531 . S
C1699 C1698 1.369 . S
C1699 C1700 1.410 . S
C1699 C1707 1.503 . S
C1700 C1699 1.410 . S
C1700 C1701 1.392 1_554 S
C1700 C1703 1.511 . S
C1701 C1697 1.376 . S
C1701 C1700 1.392 1_556 S
C1701 H1713 0.929 . S
C1702 C1698 1.531 . S
C1702 H1714 0.960 . S
C1702 H1715 0.962 . S
C1702 H1716 0.960 . S
C1703 C1700 1.511 . S
C1703 H1717 0.961 . S
C1703 H1718 0.961 . S
C1703 H1719 0.961 1_554 S
C1704 C1705 1.370 . S
C1704 C1706 1.363 . S
C1704 H1720 0.931 . S
C1705 C1704 1.370 . S
C1705 C1709 1.408 . S
C1706 C1704 1.363 . S
C1706 C1707 1.370 . S
C1706 C1710 1.524 . S
C1707 C1699 1.503 . S
C1707 C1706 1.370 . S
C1707 C1708 1.403 . S
C1708 C1707 1.403 . S
C1708 C1709 1.404 . S
C1708 C1711 1.539 1_554 S
C1709 C1705 1.408 . S
C1709 C1708 1.404 . S
C1709 H1721 0.930 . S
C1710 C1706 1.524 . S
C1710 H1722 0.956 . S
C1710 H1723 0.961 . S
C1710 H1724 0.961 . S
C1711 C1708 1.539 1_556 S
C1711 H1725 0.958 . S
C1711 H1726 0.961 . S
C1711 H1727 0.960 . S
H1712 C1696 0.931 . S
H1713 C1701 0.929 . S
H1714 C1702 0.960 . S
H1715 C1702 0.962 . S
H1716 C1702 0.960 . S
H1717 C1703 0.961 . S
H1718 C1703 0.961 . S
H1719 C1703 0.961 1_556 S
H1720 C1704 0.931 . S
H1721 C1709 0.930 . S
H1722 C1710 0.956 . S
H1723 C1710 0.961 . S
H1724 C1710 0.961 . S
H1725 C1711 0.958 . S
H1726 C1711 0.961 . S
H1727 C1711 0.960 . S
C1728 C1729 1.391 . S
C1728 C1730 1.394 1_556 S
C1728 H1744 0.931 . S
C1729 C1728 1.391 . S
C1729 C1733 1.376 . S
C1730 C1728 1.394 1_554 S
C1730 C1731 1.369 . S
C1730 C1734 1.531 . S
C1731 C1730 1.369 . S
C1731 C1732 1.410 . S
C1731 C1739 1.503 . S
C1732 C1731 1.410 . S
C1732 C1733 1.392 1_554 S
C1732 C1735 1.511 . S
C1733 C1729 1.376 . S
C1733 C1732 1.392 1_556 S
C1733 H1745 0.929 . S
C1734 C1730 1.531 . S
C1734 H1746 0.960 . S
C1734 H1747 0.962 . S
C1734 H1748 0.960 . S
C1735 C1732 1.511 . S
C1735 H1749 0.961 . S
C1735 H1750 0.961 . S
C1735 H1751 0.961 . S
C1736 C1737 1.370 . S
C1736 C1738 1.363 . S
C1736 H1752 0.931 . S
C1737 C1736 1.370 . S
C1737 C1741 1.408 . S
C1738 C1736 1.363 . S
C1738 C1739 1.370 . S
C1738 C1742 1.524 1_554 S
C1739 C1731 1.503 . S
C1739 C1738 1.370 . S
C1739 C1740 1.403 . S
C1740 C1739 1.403 . S
C1740 C1741 1.404 . S
C1740 C1743 1.539 . S
C1741 C1737 1.408 . S
C1741 C1740 1.404 . S
C1741 H1753 0.930 . S
C1742 C1738 1.524 1_556 S
C1742 H1754 0.956 . S
C1742 H1755 0.961 . S
C1742 H1756 0.961 . S
C1743 C1740 1.539 . S
C1743 H1757 0.958 . S
C1743 H1758 0.961 . S
C1743 H1759 0.960 . S
H1744 C1728 0.931 . S
H1745 C1733 0.929 . S
H1746 C1734 0.960 . S
H1747 C1734 0.962 . S
H1748 C1734 0.960 . S
H1749 C1735 0.961 . S
H1750 C1735 0.961 . S
H1751 C1735 0.961 . S
H1752 C1736 0.931 . S
H1753 C1741 0.930 . S
H1754 C1742 0.956 . S
H1755 C1742 0.961 . S
H1756 C1742 0.961 . S
H1757 C1743 0.958 . S
H1758 C1743 0.961 . S
H1759 C1743 0.960 . S
C1760 C1761 1.391 . S
C1760 C1762 1.394 . S
C1760 H1776 0.931 . S
C1761 C1760 1.391 . S
C1761 C1765 1.376 . S
C1762 C1760 1.394 . S
C1762 C1763 1.369 . S
C1762 C1766 1.531 . S
C1763 C1762 1.369 . S
C1763 C1764 1.410 . S
C1763 C1771 1.503 . S
C1764 C1763 1.410 . S
C1764 C1765 1.392 . S
C1764 C1767 1.511 1_554 S
C1765 C1761 1.376 . S
C1765 C1764 1.392 . S
C1765 H1777 0.929 . S
C1766 C1762 1.531 . S
C1766 H1778 0.960 . S
C1766 H1779 0.962 . S
C1766 H1780 0.960 . S
C1767 C1764 1.511 1_556 S
C1767 H1781 0.961 . S
C1767 H1782 0.961 . S
C1767 H1783 0.961 . S
C1768 C1769 1.370 . S
C1768 C1770 1.363 1_556 S
C1768 H1784 0.931 . S
C1769 C1768 1.370 . S
C1769 C1773 1.408 . S
C1770 C1768 1.363 1_554 S
C1770 C1771 1.370 . S
C1770 C1774 1.524 . S
C1771 C1763 1.503 . S
C1771 C1770 1.370 . S
C1771 C1772 1.403 . S
C1772 C1771 1.403 . S
C1772 C1773 1.404 1_554 S
C1772 C1775 1.539 . S
C1773 C1769 1.408 . S
C1773 C1772 1.404 1_556 S
C1773 H1785 0.930 . S
C1774 C1770 1.524 . S
C1774 H1786 0.956 . S
C1774 H1787 0.961 . S
C1774 H1788 0.961 1_554 S
C1775 C1772 1.539 . S
C1775 H1789 0.958 . S
C1775 H1790 0.961 . S
C1775 H1791 0.960 . S
H1776 C1760 0.931 . S
H1777 C1765 0.929 . S
H1778 C1766 0.960 . S
H1779 C1766 0.962 . S
H1780 C1766 0.960 . S
H1781 C1767 0.961 . S
H1782 C1767 0.961 . S
H1783 C1767 0.961 . S
H1784 C1768 0.931 . S
H1785 C1773 0.930 . S
H1786 C1774 0.956 . S
H1787 C1774 0.961 . S
H1788 C1774 0.961 1_556 S
H1789 C1775 0.958 . S
H1790 C1775 0.961 . S
H1791 C1775 0.960 . S
C1792 C1793 1.391 . S
C1792 C1794 1.394 . S
C1792 H1808 0.931 . S
C1793 C1792 1.391 . S
C1793 C1797 1.376 . S
C1794 C1792 1.394 . S
C1794 C1795 1.369 . S
C1794 C1798 1.531 . S
C1795 C1794 1.369 . S
C1795 C1796 1.410 . S
C1795 C1803 1.503 . S
C1796 C1795 1.410 . S
C1796 C1797 1.392 . S
C1796 C1799 1.511 . S
C1797 C1793 1.376 . S
C1797 C1796 1.392 . S
C1797 H1809 0.929 . S
C1798 C1794 1.531 . S
C1798 H1810 0.960 . S
C1798 H1811 0.962 . S
C1798 H1812 0.960 . S
C1799 C1796 1.511 . S
C1799 H1813 0.961 . S
C1799 H1814 0.961 . S
C1799 H1815 0.961 . S
C1800 C1801 1.370 . S
C1800 C1802 1.363 . S
C1800 H1816 0.931 . S
C1801 C1800 1.370 . S
C1801 C1805 1.408 . S
C1802 C1800 1.363 . S
C1802 C1803 1.370 . S
C1802 C1806 1.524 . S
C1803 C1795 1.503 . S
C1803 C1802 1.370 . S
C1803 C1804 1.403 . S
C1804 C1803 1.403 . S
C1804 C1805 1.404 . S
C1804 C1807 1.539 . S
C1805 C1801 1.408 . S
C1805 C1804 1.404 . S
C1805 H1817 0.930 . S
C1806 C1802 1.524 . S
C1806 H1818 0.956 . S
C1806 H1819 0.961 . S
C1806 H1820 0.961 . S
C1807 C1804 1.539 . S
C1807 H1821 0.958 . S
C1807 H1822 0.961 . S
C1807 H1823 0.960 . S
H1808 C1792 0.931 . S
H1809 C1797 0.929 . S
H1810 C1798 0.960 . S
H1811 C1798 0.962 . S
H1812 C1798 0.960 . S
H1813 C1799 0.961 . S
H1814 C1799 0.961 . S
H1815 C1799 0.961 . S
H1816 C1800 0.931 . S
H1817 C1805 0.930 . S
H1818 C1806 0.956 . S
H1819 C1806 0.961 . S
H1820 C1806 0.961 . S
H1821 C1807 0.958 . S
H1822 C1807 0.961 . S
H1823 C1807 0.960 . S
C1824 C1825 1.391 . S
C1824 C1826 1.394 . S
C1824 H1840 0.931 . S
C1825 C1824 1.391 . S
C1825 C1829 1.376 . S
C1826 C1824 1.394 . S
C1826 C1827 1.369 . S
C1826 C1830 1.531 . S
C1827 C1826 1.369 . S
C1827 C1828 1.410 . S
C1827 C1835 1.503 . S
C1828 C1827 1.410 . S
C1828 C1829 1.392 . S
C1828 C1831 1.511 . S
C1829 C1825 1.376 . S
C1829 C1828 1.392 . S
C1829 H1841 0.929 . S
C1830 C1826 1.531 . S
C1830 H1842 0.960 . S
C1830 H1843 0.962 . S
C1830 H1844 0.960 . S
C1831 C1828 1.511 . S
C1831 H1845 0.961 . S
C1831 H1846 0.961 . S
C1831 H1847 0.961 . S
C1832 C1833 1.370 . S
C1832 C1834 1.363 . S
C1832 H1848 0.931 . S
C1833 C1832 1.370 . S
C1833 C1837 1.408 . S
C1834 C1832 1.363 . S
C1834 C1835 1.370 . S
C1834 C1838 1.524 . S
C1835 C1827 1.503 . S
C1835 C1834 1.370 . S
C1835 C1836 1.403 . S
C1836 C1835 1.403 . S
C1836 C1837 1.404 . S
C1836 C1839 1.539 . S
C1837 C1833 1.408 . S
C1837 C1836 1.404 . S
C1837 H1849 0.930 . S
C1838 C1834 1.524 . S
C1838 H1850 0.956 . S
C1838 H1851 0.961 . S
C1838 H1852 0.961 . S
C1839 C1836 1.539 . S
C1839 H1853 0.958 . S
C1839 H1854 0.961 . S
C1839 H1855 0.960 . S
H1840 C1824 0.931 . S
H1841 C1829 0.929 . S
H1842 C1830 0.960 . S
H1843 C1830 0.962 . S
H1844 C1830 0.960 . S
H1845 C1831 0.961 . S
H1846 C1831 0.961 . S
H1847 C1831 0.961 . S
H1848 C1832 0.931 . S
H1849 C1837 0.930 . S
H1850 C1838 0.956 . S
H1851 C1838 0.961 . S
H1852 C1838 0.961 . S
H1853 C1839 0.958 . S
H1854 C1839 0.961 . S
H1855 C1839 0.960 . S
C1856 C1857 1.391 . S
C1856 C1858 1.394 . S
C1856 H1872 0.931 . S
C1857 C1856 1.391 . S
C1857 C1861 1.376 . S
C1858 C1856 1.394 . S
C1858 C1859 1.369 . S
C1858 C1862 1.531 . S
C1859 C1858 1.369 . S
C1859 C1860 1.410 . S
C1859 C1867 1.503 . S
C1860 C1859 1.410 . S
C1860 C1861 1.392 . S
C1860 C1863 1.511 . S
C1861 C1857 1.376 . S
C1861 C1860 1.392 . S
C1861 H1873 0.929 . S
C1862 C1858 1.531 . S
C1862 H1874 0.960 . S
C1862 H1875 0.962 . S
C1862 H1876 0.960 . S
C1863 C1860 1.511 . S
C1863 H1877 0.961 . S
C1863 H1878 0.961 . S
C1863 H1879 0.961 . S
C1864 C1865 1.370 . S
C1864 C1866 1.363 . S
C1864 H1880 0.931 . S
C1865 C1864 1.370 . S
C1865 C1869 1.408 . S
C1866 C1864 1.363 . S
C1866 C1867 1.370 . S
C1866 C1870 1.524 . S
C1867 C1859 1.503 . S
C1867 C1866 1.370 . S
C1867 C1868 1.403 . S
C1868 C1867 1.403 . S
C1868 C1869 1.404 . S
C1868 C1871 1.539 . S
C1869 C1865 1.408 . S
C1869 C1868 1.404 . S
C1869 H1881 0.930 . S
C1870 C1866 1.524 . S
C1870 H1882 0.956 . S
C1870 H1883 0.961 . S
C1870 H1884 0.961 . S
C1871 C1868 1.539 . S
C1871 H1885 0.958 . S
C1871 H1886 0.961 . S
C1871 H1887 0.960 . S
H1872 C1856 0.931 . S
H1873 C1861 0.929 . S
H1874 C1862 0.960 . S
H1875 C1862 0.962 . S
H1876 C1862 0.960 . S
H1877 C1863 0.961 . S
H1878 C1863 0.961 . S
H1879 C1863 0.961 . S
H1880 C1864 0.931 . S
H1881 C1869 0.930 . S
H1882 C1870 0.956 . S
H1883 C1870 0.961 . S
H1884 C1870 0.961 . S
H1885 C1871 0.958 . S
H1886 C1871 0.961 . S
H1887 C1871 0.960 . S
C1888 C1889 1.391 . S
C1888 C1890 1.394 . S
C1888 H1904 0.931 . S
C1889 C1888 1.391 . S
C1889 C1893 1.376 . S
C1890 C1888 1.394 . S
C1890 C1891 1.369 . S
C1890 C1894 1.531 . S
C1891 C1890 1.369 . S
C1891 C1892 1.410 . S
C1891 C1899 1.503 . S
C1892 C1891 1.410 . S
C1892 C1893 1.392 . S
C1892 C1895 1.511 . S
C1893 C1889 1.376 . S
C1893 C1892 1.392 . S
C1893 H1905 0.929 . S
C1894 C1890 1.531 . S
C1894 H1906 0.960 . S
C1894 H1907 0.962 . S
C1894 H1908 0.960 . S
C1895 C1892 1.511 . S
C1895 H1909 0.961 . S
C1895 H1910 0.961 . S
C1895 H1911 0.961 . S
C1896 C1897 1.370 . S
C1896 C1898 1.363 . S
C1896 H1912 0.931 . S
C1897 C1896 1.370 . S
C1897 C1901 1.408 . S
C1898 C1896 1.363 . S
C1898 C1899 1.370 . S
C1898 C1902 1.524 . S
C1899 C1891 1.503 . S
C1899 C1898 1.370 . S
C1899 C1900 1.403 . S
C1900 C1899 1.403 . S
C1900 C1901 1.404 . S
C1900 C1903 1.539 . S
C1901 C1897 1.408 . S
C1901 C1900 1.404 . S
C1901 H1913 0.930 . S
C1902 C1898 1.524 . S
C1902 H1914 0.956 . S
C1902 H1915 0.961 . S
C1902 H1916 0.961 . S
C1903 C1900 1.539 . S
C1903 H1917 0.958 . S
C1903 H1918 0.961 . S
C1903 H1919 0.960 . S
H1904 C1888 0.931 . S
H1905 C1893 0.929 . S
H1906 C1894 0.960 . S
H1907 C1894 0.962 . S
H1908 C1894 0.960 . S
H1909 C1895 0.961 . S
H1910 C1895 0.961 . S
H1911 C1895 0.961 . S
H1912 C1896 0.931 . S
H1913 C1901 0.930 . S
H1914 C1902 0.956 . S
H1915 C1902 0.961 . S
H1916 C1902 0.961 . S
H1917 C1903 0.958 . S
H1918 C1903 0.961 . S
H1919 C1903 0.960 . S
C1920 C1921 1.391 . S
C1920 C1922 1.394 . S
C1920 H1936 0.931 . S
C1921 C1920 1.391 . S
C1921 C1925 1.376 . S
C1922 C1920 1.394 . S
C1922 C1923 1.369 . S
C1922 C1926 1.546 . S
C1923 C1922 1.369 . S
C1923 C1924 1.410 . S
C1923 C1931 1.503 1_566 S
C1924 C1923 1.410 . S
C1924 C1925 1.392 . S
C1924 C1927 1.511 1_565 S
C1925 C1921 1.376 . S
C1925 C1924 1.392 . S
C1925 H1937 0.929 . S
C1926 C1922 1.546 . S
C1926 H1938 0.958 1_566 S
C1926 H1939 0.933 1_556 S
C1926 H1940 0.977 . S
C1927 C1924 1.511 1_545 S
C1927 H1941 0.961 1_545 S
C1927 H1942 0.961 . S
C1927 H1943 0.961 . S
C1928 C1929 1.370 . S
C1928 C1930 1.363 . S
C1928 H1944 0.931 . S
C1929 C1928 1.370 . S
C1929 C1933 1.408 . S
C1930 C1928 1.363 . S
C1930 C1931 1.370 . S
C1930 C1934 1.524 1_545 S
C1931 C1923 1.503 1_544 S
C1931 C1930 1.370 . S
C1931 C1932 1.403 1_554 S
C1932 C1931 1.403 1_556 S
C1932 C1933 1.404 1_556 S
C1932 C1935 1.539 . S
C1933 C1929 1.408 . S
C1933 C1932 1.404 1_554 S
C1933 H1945 0.930 . S
C1934 C1930 1.524 1_565 S
C1934 H1946 0.956 . S
C1934 H1947 0.961 . S
C1934 H1948 0.961 . S
C1935 C1932 1.539 . S
C1935 H1949 0.958 . S
C1935 H1950 0.961 . S
C1935 H1951 0.960 . S
H1936 C1920 0.931 . S
H1937 C1925 0.929 . S
H1938 C1926 0.958 1_544 S
H1939 C1926 0.933 1_554 S
H1940 C1926 0.977 . S
H1941 C1927 0.961 1_565 S
H1942 C1927 0.961 . S
H1943 C1927 0.961 . S
H1944 C1928 0.931 . S
H1945 C1933 0.930 . S
H1946 C1934 0.956 . S
H1947 C1934 0.961 . S
H1948 C1934 0.961 . S
H1949 C1935 0.958 . S
H1950 C1935 0.961 . S
H1951 C1935 0.960 . S
C1952 C1953 1.391 . S
C1952 C1954 1.394 . S
C1952 H1968 0.931 . S
C1953 C1952 1.391 . S
C1953 C1957 1.376 . S
C1954 C1952 1.394 . S
C1954 C1955 1.369 . S
C1954 C1958 1.531 . S
C1955 C1954 1.369 . S
C1955 C1956 1.410 1_554 S
C1955 C1963 1.503 1_554 S
C1956 C1955 1.410 1_556 S
C1956 C1957 1.392 1_556 S
C1956 C1959 1.511 . S
C1957 C1953 1.376 . S
C1957 C1956 1.392 1_554 S
C1957 H1969 0.929 . S
C1958 C1954 1.531 . S
C1958 H1970 0.960 . S
C1958 H1971 0.962 . S
C1958 H1972 0.960 . S
C1959 C1956 1.511 . S
C1959 H1973 0.961 . S
C1959 H1974 0.961 . S
C1959 H1975 0.961 . S
C1960 C1961 1.370 . S
C1960 C1962 1.363 . S
C1960 H1976 0.931 . S
C1961 C1960 1.370 . S
C1961 C1965 1.408 . S
C1962 C1960 1.363 . S
C1962 C1963 1.370 . S
C1962 C1966 1.524 . S
C1963 C1955 1.503 1_556 S
C1963 C1962 1.370 . S
C1963 C1964 1.403 . S
C1964 C1963 1.403 . S
C1964 C1965 1.404 . S
C1964 C1967 1.539 . S
C1965 C1961 1.408 . S
C1965 C1964 1.404 . S
C1965 H1977 0.930 . S
C1966 C1962 1.524 . S
C1966 H1978 0.956 1_556 S
C1966 H1979 0.961 . S
C1966 H1980 0.961 . S
C1967 C1964 1.539 . S
C1967 H1981 0.958 1_556 S
C1967 H1982 0.961 . S
C1967 H1983 0.960 . S
H1968 C1952 0.931 . S
H1969 C1957 0.929 . S
H1970 C1958 0.960 . S
H1971 C1958 0.962 . S
H1972 C1958 0.960 . S
H1973 C1959 0.961 . S
H1974 C1959 0.961 . S
H1975 C1959 0.961 . S
H1976 C1960 0.931 . S
H1977 C1965 0.930 . S
H1978 C1966 0.956 1_554 S
H1979 C1966 0.961 . S
H1980 C1966 0.961 . S
H1981 C1967 0.958 1_554 S
H1982 C1967 0.961 . S
H1983 C1967 0.960 . S
C1984 C1985 1.354 1_655 S
C1984 C1986 1.394 . S
C1984 H2000 0.931 . S
C1985 C1984 1.354 1_455 S
C1985 C1989 1.414 . S
C1986 C1984 1.394 . S
C1986 C1987 1.369 1_655 S
C1986 C1990 1.531 . S
C1987 C1986 1.369 1_455 S
C1987 C1988 1.410 . S
C1987 C1995 1.504 1_556 S
C1988 C1987 1.410 . S
C1988 C1989 1.392 . S
C1988 C1991 1.515 . S
C1989 C1985 1.414 . S
C1989 C1988 1.392 . S
C1989 H2001 0.929 . S
C1990 C1986 1.531 . S
C1990 H2002 0.960 . S
C1990 H2003 0.962 . S
C1990 H2004 0.960 . S
C1991 C1988 1.515 . S
C1991 H2005 0.959 1_556 S
C1991 H2006 0.954 1_556 S
C1991 H2007 0.965 . S
C1992 C1993 1.381 . S
C1992 C1994 1.363 . S
C1992 H2008 0.931 . S
C1993 C1992 1.381 . S
C1993 C1997 1.398 1_655 S
C1994 C1992 1.363 . S
C1994 C1995 1.363 1_655 S
C1994 C1998 1.524 . S
C1995 C1987 1.504 1_554 S
C1995 C1994 1.363 1_455 S
C1995 C1996 1.409 1_554 S
C1996 C1995 1.409 1_556 S
C1996 C1997 1.404 1_556 S
C1996 C1999 1.539 . S
C1997 C1993 1.398 1_455 S
C1997 C1996 1.404 1_554 S
C1997 H2009 0.930 . S
C1998 C1994 1.524 . S
C1998 H2010 0.956 . S
C1998 H2011 0.961 . S
C1998 H2012 0.961 . S
C1999 C1996 1.539 . S
C1999 H2013 0.958 . S
C1999 H2014 0.961 . S
C1999 H2015 0.960 . S
H2000 C1984 0.931 . S
H2001 C1989 0.929 . S
H2002 C1990 0.960 . S
H2003 C1990 0.962 . S
H2004 C1990 0.960 . S
H2005 C1991 0.959 1_554 S
H2006 C1991 0.954 1_554 S
H2007 C1991 0.965 . S
H2008 C1992 0.931 . S
H2009 C1997 0.930 . S
H2010 C1998 0.956 . S
H2011 C1998 0.961 . S
H2012 C1998 0.961 . S
H2013 C1999 0.958 . S
H2014 C1999 0.961 . S
H2015 C1999 0.960 . S
C2016 C2017 1.391 . S
C2016 C2018 1.394 . S
C2016 H2032 0.931 . S
C2017 C2016 1.391 . S
C2017 C2021 1.376 1_565 S
C2018 C2016 1.394 . S
C2018 C2019 1.369 . S
C2018 C2022 1.531 . S
C2019 C2018 1.369 . S
C2019 C2020 1.410 1_565 S
C2019 C2027 1.504 1_454 S
C2020 C2019 1.410 1_545 S
C2020 C2021 1.392 . S
C2020 C2023 1.511 . S
C2021 C2017 1.376 1_545 S
C2021 C2020 1.392 . S
C2021 H2033 0.929 . S
C2022 C2018 1.531 . S
C2022 H2034 0.960 1_455 S
C2022 H2035 0.962 1_554 S
C2022 H2036 0.960 . S
C2023 C2020 1.511 . S
C2023 H2037 0.961 . S
C2023 H2038 0.929 1_454 S
C2023 H2039 0.961 1_455 S
C2024 C2025 1.370 . S
C2024 C2026 1.363 . S
C2024 H2040 0.931 . S
C2025 C2024 1.370 . S
C2025 C2029 1.407 1_545 S
C2026 C2024 1.363 . S
C2026 C2027 1.369 1_545 S
C2026 C2030 1.525 1_655 S
C2027 C2019 1.504 1_656 S
C2027 C2026 1.369 1_565 S
C2027 C2028 1.404 1_556 S
C2028 C2027 1.404 1_554 S
C2028 C2029 1.406 1_554 S
C2028 C2031 1.539 . S
C2029 C2025 1.407 1_565 S
C2029 C2028 1.406 1_556 S
C2029 H2041 0.932 . S
C2030 C2026 1.525 1_455 S
C2030 H2042 0.956 1_545 S
C2030 H2043 0.961 . S
C2030 H2044 0.961 . S
C2031 C2028 1.539 . S
C2031 H2045 0.958 . S
C2031 H2046 0.961 1_565 S
C2031 H2047 0.960 1_565 S
H2032 C2016 0.931 . S
H2033 C2021 0.929 . S
H2034 C2022 0.960 1_655 S
H2035 C2022 0.962 1_556 S
H2036 C2022 0.960 . S
H2037 C2023 0.961 . S
H2038 C2023 0.929 1_656 S
H2039 C2023 0.961 1_655 S
H2040 C2024 0.931 . S
H2041 C2029 0.932 . S
H2042 C2030 0.956 1_565 S
H2043 C2030 0.961 . S
H2044 C2030 0.961 . S
H2045 C2031 0.958 . S
H2046 C2031 0.961 1_545 S
H2047 C2031 0.960 1_545 S
C2048 C2049 1.391 . S
C2048 C2050 1.394 . S
C2048 H2064 0.931 . S
C2049 C2048 1.391 . S
C2049 C2053 1.376 . S
C2050 C2048 1.394 . S
C2050 C2051 1.369 . S
C2050 C2054 1.531 . S
C2051 C2050 1.369 . S
C2051 C2052 1.410 . S
C2051 C2059 1.503 . S
C2052 C2051 1.410 . S
C2052 C2053 1.392 . S
C2052 C2055 1.511 . S
C2053 C2049 1.376 . S
C2053 C2052 1.392 . S
C2053 H2065 0.929 . S
C2054 C2050 1.531 . S
C2054 H2066 0.960 . S
C2054 H2067 0.962 . S
C2054 H2068 0.960 . S
C2055 C2052 1.511 . S
C2055 H2069 0.961 . S
C2055 H2070 0.961 . S
C2055 H2071 0.961 . S
C2056 C2057 1.370 . S
C2056 C2058 1.363 . S
C2056 H2072 0.931 . S
C2057 C2056 1.370 . S
C2057 C2061 1.408 . S
C2058 C2056 1.363 . S
C2058 C2059 1.370 . S
C2058 C2062 1.524 . S
C2059 C2051 1.503 . S
C2059 C2058 1.370 . S
C2059 C2060 1.403 . S
C2060 C2059 1.403 . S
C2060 C2061 1.404 . S
C2060 C2063 1.539 . S
C2061 C2057 1.408 . S
C2061 C2060 1.404 . S
C2061 H2073 0.930 . S
C2062 C2058 1.524 . S
C2062 H2074 0.956 . S
C2062 H2075 0.961 . S
C2062 H2076 0.961 . S
C2063 C2060 1.539 . S
C2063 H2077 0.958 . S
C2063 H2078 0.961 . S
C2063 H2079 0.960 . S
H2064 C2048 0.931 . S
H2065 C2053 0.929 . S
H2066 C2054 0.960 . S
H2067 C2054 0.962 . S
H2068 C2054 0.960 . S
H2069 C2055 0.961 . S
H2070 C2055 0.961 . S
H2071 C2055 0.961 . S
H2072 C2056 0.931 . S
H2073 C2061 0.930 . S
H2074 C2062 0.956 . S
H2075 C2062 0.961 . S
H2076 C2062 0.961 . S
H2077 C2063 0.958 . S
H2078 C2063 0.961 . S
H2079 C2063 0.960 . S
C2080 C2081 1.391 . S
C2080 C2082 1.394 . S
C2080 H2096 0.931 . S
C2081 C2080 1.391 . S
C2081 C2085 1.376 . S
C2082 C2080 1.394 . S
C2082 C2083 1.369 . S
C2082 C2086 1.531 . S
C2083 C2082 1.369 . S
C2083 C2084 1.410 . S
C2083 C2091 1.503 1_455 S
C2084 C2083 1.410 . S
C2084 C2085 1.392 . S
C2084 C2087 1.511 1_455 S
C2085 C2081 1.376 . S
C2085 C2084 1.392 . S
C2085 H2097 0.929 . S
C2086 C2082 1.531 . S
C2086 H2098 0.960 . S
C2086 H2099 0.962 . S
C2086 H2100 0.960 . S
C2087 C2084 1.511 1_655 S
C2087 H2101 0.961 . S
C2087 H2102 0.961 . S
C2087 H2103 0.961 . S
C2088 C2089 1.370 . S
C2088 C2090 1.363 . S
C2088 H2104 0.931 . S
C2089 C2088 1.370 . S
C2089 C2093 1.408 . S
C2090 C2088 1.363 . S
C2090 C2091 1.370 . S
C2090 C2094 1.524 1_655 S
C2091 C2083 1.503 1_655 S
C2091 C2090 1.370 . S
C2091 C2092 1.403 . S
C2092 C2091 1.403 . S
C2092 C2093 1.404 . S
C2092 C2095 1.539 . S
C2093 C2089 1.408 . S
C2093 C2092 1.404 . S
C2093 H2105 0.930 . S
C2094 C2090 1.524 1_455 S
C2094 H2106 0.956 . S
C2094 H2107 0.961 . S
C2094 H2108 0.961 . S
C2095 C2092 1.539 . S
C2095 H2109 0.958 . S
C2095 H2110 0.961 . S
C2095 H2111 0.960 . S
H2096 C2080 0.931 . S
H2097 C2085 0.929 . S
H2098 C2086 0.960 . S
H2099 C2086 0.962 . S
H2100 C2086 0.960 . S
H2101 C2087 0.961 . S
H2102 C2087 0.961 . S
H2103 C2087 0.961 . S
H2104 C2088 0.931 . S
H2105 C2093 0.930 . S
H2106 C2094 0.956 . S
H2107 C2094 0.961 . S
H2108 C2094 0.961 . S
H2109 C2095 0.958 . S
H2110 C2095 0.961 . S
H2111 C2095 0.960 . S
C2112 C2113 1.391 1_655 S
C2112 C2114 1.394 . S
C2112 H2128 0.931 . S
C2113 C2112 1.391 1_455 S
C2113 C2117 1.376 . S
C2114 C2112 1.394 . S
C2114 C2115 1.369 1_655 S
C2114 C2118 1.531 1_565 S
C2115 C2114 1.369 1_455 S
C2115 C2116 1.410 . S
C2115 C2123 1.503 1_565 S
C2116 C2115 1.410 . S
C2116 C2117 1.392 . S
C2116 C2119 1.511 . S
C2117 C2113 1.376 . S
C2117 C2116 1.392 . S
C2117 H2129 0.929 . S
C2118 C2114 1.531 1_545 S
C2118 H2130 0.960 . S
C2118 H2131 0.962 . S
C2118 H2132 0.960 . S
C2119 C2116 1.511 . S
C2119 H2133 0.961 . S
C2119 H2134 0.961 . S
C2119 H2135 0.961 . S
C2120 C2121 1.383 . S
C2120 C2122 1.363 . S
C2120 H2136 0.931 . S
C2121 C2120 1.383 . S
C2121 C2125 1.395 1_655 S
C2122 C2120 1.363 . S
C2122 C2123 1.370 1_655 S
C2122 C2126 1.524 1_545 S
C2123 C2115 1.503 1_545 S
C2123 C2122 1.370 1_455 S
C2123 C2124 1.403 . S
C2124 C2123 1.403 . S
C2124 C2125 1.404 . S
C2124 C2127 1.539 . S
C2125 C2121 1.395 1_455 S
C2125 C2124 1.404 . S
C2125 H2137 0.930 . S
C2126 C2122 1.524 1_565 S
C2126 H2138 0.956 . S
C2126 H2139 0.961 . S
C2126 H2140 0.961 . S
C2127 C2124 1.539 . S
C2127 H2141 0.958 . S
C2127 H2142 0.961 . S
C2127 H2143 0.960 . S
H2128 C2112 0.931 . S
H2129 C2117 0.929 . S
H2130 C2118 0.960 . S
H2131 C2118 0.962 . S
H2132 C2118 0.960 . S
H2133 C2119 0.961 . S
H2134 C2119 0.961 . S
H2135 C2119 0.961 . S
H2136 C2120 0.931 . S
H2137 C2125 0.930 . S
H2138 C2126 0.956 . S
H2139 C2126 0.961 . S
H2140 C2126 0.961 . S
H2141 C2127 0.958 . S
H2142 C2127 0.961 . S
H2143 C2127 0.960 . S
C2144 C2145 1.391 . S
C2144 C2146 1.394 . S
C2144 H2160 0.931 . S
C2145 C2144 1.391 . S
C2145 C2149 1.376 1_545 S
C2146 C2144 1.394 . S
C2146 C2147 1.369 . S
C2146 C2150 1.531 . S
C2147 C2146 1.369 . S
C2147 C2148 1.410 1_545 S
C2147 C2155 1.503 . S
C2148 C2147 1.410 1_565 S
C2148 C2149 1.392 . S
C2148 C2151 1.511 . S
C2149 C2145 1.376 1_565 S
C2149 C2148 1.392 . S
C2149 H2161 0.929 . S
C2150 C2146 1.531 . S
C2150 H2162 0.960 . S
C2150 H2163 0.962 . S
C2150 H2164 0.960 . S
C2151 C2148 1.511 . S
C2151 H2165 0.961 . S
C2151 H2166 0.961 . S
C2151 H2167 0.961 . S
C2152 C2153 1.387 . S
C2152 C2154 1.363 . S
C2152 H2168 0.931 . S
C2153 C2152 1.387 . S
C2153 C2157 1.389 1_565 S
C2154 C2152 1.363 . S
C2154 C2155 1.370 1_565 S
C2154 C2158 1.524 . S
C2155 C2147 1.503 . S
C2155 C2154 1.370 1_545 S
C2155 C2156 1.403 . S
C2156 C2155 1.403 . S
C2156 C2157 1.404 . S
C2156 C2159 1.539 . S
C2157 C2153 1.389 1_545 S
C2157 C2156 1.404 . S
C2157 H2169 0.930 . S
C2158 C2154 1.524 . S
C2158 H2170 0.956 . S
C2158 H2171 0.961 . S
C2158 H2172 0.961 . S
C2159 C2156 1.539 . S
C2159 H2173 0.958 . S
C2159 H2174 0.961 . S
C2159 H2175 0.960 . S
H2160 C2144 0.931 . S
H2161 C2149 0.929 . S
H2162 C2150 0.960 . S
H2163 C2150 0.962 . S
H2164 C2150 0.960 . S
H2165 C2151 0.961 . S
H2166 C2151 0.961 . S
H2167 C2151 0.961 . S
H2168 C2152 0.931 . S
H2169 C2157 0.930 . S
H2170 C2158 0.956 . S
H2171 C2158 0.961 . S
H2172 C2158 0.961 . S
H2173 C2159 0.958 . S
H2174 C2159 0.961 . S
H2175 C2159 0.960 . S
C2176 C2177 1.391 . S
C2176 C2178 1.394 . S
C2176 H2192 0.931 . S
C2177 C2176 1.391 . S
C2177 C2181 1.376 . S
C2178 C2176 1.394 . S
C2178 C2179 1.369 . S
C2178 C2182 1.531 . S
C2179 C2178 1.369 . S
C2179 C2180 1.410 . S
C2179 C2187 1.503 . S
C2180 C2179 1.410 . S
C2180 C2181 1.392 . S
C2180 C2183 1.511 . S
C2181 C2177 1.376 . S
C2181 C2180 1.392 . S
C2181 H2193 0.929 . S
C2182 C2178 1.531 . S
C2182 H2194 0.960 . S
C2182 H2195 0.962 . S
C2182 H2196 0.960 . S
C2183 C2180 1.511 . S
C2183 H2197 0.961 . S
C2183 H2198 0.961 . S
C2183 H2199 0.961 . S
C2184 C2185 1.370 . S
C2184 C2186 1.363 . S
C2184 H2200 0.931 . S
C2185 C2184 1.370 . S
C2185 C2189 1.408 . S
C2186 C2184 1.363 . S
C2186 C2187 1.370 . S
C2186 C2190 1.524 . S
C2187 C2179 1.503 . S
C2187 C2186 1.370 . S
C2187 C2188 1.403 . S
C2188 C2187 1.403 . S
C2188 C2189 1.404 . S
C2188 C2191 1.539 . S
C2189 C2185 1.408 . S
C2189 C2188 1.404 . S
C2189 H2201 0.930 . S
C2190 C2186 1.524 . S
C2190 H2202 0.956 . S
C2190 H2203 0.961 . S
C2190 H2204 0.961 . S
C2191 C2188 1.539 . S
C2191 H2205 0.958 . S
C2191 H2206 0.961 . S
C2191 H2207 0.960 . S
H2192 C2176 0.931 . S
H2193 C2181 0.929 . S
H2194 C2182 0.960 . S
H2195 C2182 0.962 . S
H2196 C2182 0.960 . S
H2197 C2183 0.961 . S
H2198 C2183 0.961 . S
H2199 C2183 0.961 . S
H2200 C2184 0.931 . S
H2201 C2189 0.930 . S
H2202 C2190 0.956 . S
H2203 C2190 0.961 . S
H2204 C2190 0.961 . S
H2205 C2191 0.958 . S
H2206 C2191 0.961 . S
H2207 C2191 0.960 . S
C2208 C2209 1.391 . S
C2208 C2210 1.394 . S
C2208 H2224 0.931 . S
C2209 C2208 1.391 . S
C2209 C2213 1.376 . S
C2210 C2208 1.394 . S
C2210 C2211 1.369 . S
C2210 C2214 1.531 . S
C2211 C2210 1.369 . S
C2211 C2212 1.410 . S
C2211 C2219 1.503 . S
C2212 C2211 1.410 . S
C2212 C2213 1.392 . S
C2212 C2215 1.511 . S
C2213 C2209 1.376 . S
C2213 C2212 1.392 . S
C2213 H2225 0.929 . S
C2214 C2210 1.531 . S
C2214 H2226 0.960 . S
C2214 H2227 0.962 . S
C2214 H2228 0.960 . S
C2215 C2212 1.511 . S
C2215 H2229 0.961 . S
C2215 H2230 0.961 . S
C2215 H2231 0.961 . S
C2216 C2217 1.370 . S
C2216 C2218 1.363 . S
C2216 H2232 0.931 . S
C2217 C2216 1.370 . S
C2217 C2221 1.408 . S
C2218 C2216 1.363 . S
C2218 C2219 1.370 . S
C2218 C2222 1.524 . S
C2219 C2211 1.503 . S
C2219 C2218 1.370 . S
C2219 C2220 1.403 . S
C2220 C2219 1.403 . S
C2220 C2221 1.404 . S
C2220 C2223 1.539 . S
C2221 C2217 1.408 . S
C2221 C2220 1.404 . S
C2221 H2233 0.930 . S
C2222 C2218 1.524 . S
C2222 H2234 0.956 . S
C2222 H2235 0.961 . S
C2222 H2236 0.961 . S
C2223 C2220 1.539 . S
C2223 H2237 0.958 . S
C2223 H2238 0.961 . S
C2223 H2239 0.960 . S
H2224 C2208 0.931 . S
H2225 C2213 0.929 . S
H2226 C2214 0.960 . S
H2227 C2214 0.962 . S
H2228 C2214 0.960 . S
H2229 C2215 0.961 . S
H2230 C2215 0.961 . S
H2231 C2215 0.961 . S
H2232 C2216 0.931 . S
H2233 C2221 0.930 . S
H2234 C2222 0.956 . S
H2235 C2222 0.961 . S
H2236 C2222 0.961 . S
H2237 C2223 0.958 . S
H2238 C2223 0.961 . S
H2239 C2223 0.960 . S
C2240 C2241 1.391 . S
C2240 C2242 1.394 . S
C2240 H2256 0.931 . S
C2241 C2240 1.391 . S
C2241 C2245 1.376 . S
C2242 C2240 1.394 . S
C2242 C2243 1.369 . S
C2242 C2246 1.531 . S
C2243 C2242 1.369 . S
C2243 C2244 1.410 . S
C2243 C2251 1.503 . S
C2244 C2243 1.410 . S
C2244 C2245 1.392 . S
C2244 C2247 1.511 . S
C2245 C2241 1.376 . S
C2245 C2244 1.392 . S
C2245 H2257 0.929 . S
C2246 C2242 1.531 . S
C2246 H2258 0.960 . S
C2246 H2259 0.962 . S
C2246 H2260 0.960 . S
C2247 C2244 1.511 . S
C2247 H2261 0.961 . S
C2247 H2262 0.961 . S
C2247 H2263 0.961 . S
C2248 C2249 1.370 . S
C2248 C2250 1.363 . S
C2248 H2264 0.931 . S
C2249 C2248 1.370 . S
C2249 C2253 1.408 . S
C2250 C2248 1.363 . S
C2250 C2251 1.370 . S
C2250 C2254 1.524 . S
C2251 C2243 1.503 . S
C2251 C2250 1.370 . S
C2251 C2252 1.403 . S
C2252 C2251 1.403 . S
C2252 C2253 1.404 . S
C2252 C2255 1.539 . S
C2253 C2249 1.408 . S
C2253 C2252 1.404 . S
C2253 H2265 0.930 . S
C2254 C2250 1.524 . S
C2254 H2266 0.956 . S
C2254 H2267 0.961 . S
C2254 H2268 0.961 . S
C2255 C2252 1.539 . S
C2255 H2269 0.958 . S
C2255 H2270 0.961 . S
C2255 H2271 0.960 . S
H2256 C2240 0.931 . S
H2257 C2245 0.929 . S
H2258 C2246 0.960 . S
H2259 C2246 0.962 . S
H2260 C2246 0.960 . S
H2261 C2247 0.961 . S
H2262 C2247 0.961 . S
H2263 C2247 0.961 . S
H2264 C2248 0.931 . S
H2265 C2253 0.930 . S
H2266 C2254 0.956 . S
H2267 C2254 0.961 . S
H2268 C2254 0.961 . S
H2269 C2255 0.958 . S
H2270 C2255 0.961 . S
H2271 C2255 0.960 . S
C2272 C2273 1.391 . S
C2272 C2274 1.394 . S
C2272 H2288 0.931 . S
C2273 C2272 1.391 . S
C2273 C2277 1.376 . S
C2274 C2272 1.394 . S
C2274 C2275 1.369 . S
C2274 C2278 1.531 . S
C2275 C2274 1.369 . S
C2275 C2276 1.410 . S
C2275 C2283 1.503 . S
C2276 C2275 1.410 . S
C2276 C2277 1.392 . S
C2276 C2279 1.511 . S
C2277 C2273 1.376 . S
C2277 C2276 1.392 . S
C2277 H2289 0.929 . S
C2278 C2274 1.531 . S
C2278 H2290 0.960 . S
C2278 H2291 0.962 . S
C2278 H2292 0.960 . S
C2279 C2276 1.511 . S
C2279 H2293 0.961 . S
C2279 H2294 0.961 . S
C2279 H2295 0.961 . S
C2280 C2281 1.370 . S
C2280 C2282 1.363 . S
C2280 H2296 0.931 . S
C2281 C2280 1.370 . S
C2281 C2285 1.408 . S
C2282 C2280 1.363 . S
C2282 C2283 1.370 . S
C2282 C2286 1.524 . S
C2283 C2275 1.503 . S
C2283 C2282 1.370 . S
C2283 C2284 1.403 . S
C2284 C2283 1.403 . S
C2284 C2285 1.404 . S
C2284 C2287 1.539 . S
C2285 C2281 1.408 . S
C2285 C2284 1.404 . S
C2285 H2297 0.930 . S
C2286 C2282 1.524 . S
C2286 H2298 0.956 . S
C2286 H2299 0.961 . S
C2286 H2300 0.961 . S
C2287 C2284 1.539 . S
C2287 H2301 0.958 . S
C2287 H2302 0.961 . S
C2287 H2303 0.960 . S
H2288 C2272 0.931 . S
H2289 C2277 0.929 . S
H2290 C2278 0.960 . S
H2291 C2278 0.962 . S
H2292 C2278 0.960 . S
H2293 C2279 0.961 . S
H2294 C2279 0.961 . S
H2295 C2279 0.961 . S
H2296 C2280 0.931 . S
H2297 C2285 0.930 . S
H2298 C2286 0.956 . S
H2299 C2286 0.961 . S
H2300 C2286 0.961 . S
H2301 C2287 0.958 . S
H2302 C2287 0.961 . S
H2303 C2287 0.960 . S
C2304 C2305 1.391 . S
C2304 C2306 1.394 . S
C2304 H2320 0.931 . S
C2305 C2304 1.391 . S
C2305 C2309 1.376 . S
C2306 C2304 1.394 . S
C2306 C2307 1.369 . S
C2306 C2310 1.531 . S
C2307 C2306 1.369 . S
C2307 C2308 1.410 . S
C2307 C2315 1.503 . S
C2308 C2307 1.410 . S
C2308 C2309 1.392 . S
C2308 C2311 1.511 . S
C2309 C2305 1.376 . S
C2309 C2308 1.392 . S
C2309 H2321 0.929 . S
C2310 C2306 1.531 . S
C2310 H2322 0.960 . S
C2310 H2323 0.962 . S
C2310 H2324 0.960 . S
C2311 C2308 1.511 . S
C2311 H2325 0.961 . S
C2311 H2326 0.961 . S
C2311 H2327 0.961 . S
C2312 C2313 1.370 . S
C2312 C2314 1.363 . S
C2312 H2328 0.931 . S
C2313 C2312 1.370 . S
C2313 C2317 1.408 . S
C2314 C2312 1.363 . S
C2314 C2315 1.370 . S
C2314 C2318 1.524 . S
C2315 C2307 1.503 . S
C2315 C2314 1.370 . S
C2315 C2316 1.403 . S
C2316 C2315 1.403 . S
C2316 C2317 1.404 . S
C2316 C2319 1.539 . S
C2317 C2313 1.408 . S
C2317 C2316 1.404 . S
C2317 H2329 0.930 . S
C2318 C2314 1.524 . S
C2318 H2330 0.956 . S
C2318 H2331 0.961 . S
C2318 H2332 0.961 . S
C2319 C2316 1.539 . S
C2319 H2333 0.958 . S
C2319 H2334 0.961 . S
C2319 H2335 0.960 . S
H2320 C2304 0.931 . S
H2321 C2309 0.929 . S
H2322 C2310 0.960 . S
H2323 C2310 0.962 . S
H2324 C2310 0.960 . S
H2325 C2311 0.961 . S
H2326 C2311 0.961 . S
H2327 C2311 0.961 . S
H2328 C2312 0.931 . S
H2329 C2317 0.930 . S
H2330 C2318 0.956 . S
H2331 C2318 0.961 . S
H2332 C2318 0.961 . S
H2333 C2319 0.958 . S
H2334 C2319 0.961 . S
H2335 C2319 0.960 . S
C2336 C2337 1.391 . S
C2336 C2338 1.394 . S
C2336 H2352 0.931 . S
C2337 C2336 1.391 . S
C2337 C2341 1.376 . S
C2338 C2336 1.394 . S
C2338 C2339 1.369 . S
C2338 C2342 1.531 . S
C2339 C2338 1.369 . S
C2339 C2340 1.410 . S
C2339 C2347 1.503 . S
C2340 C2339 1.410 . S
C2340 C2341 1.392 . S
C2340 C2343 1.511 . S
C2341 C2337 1.376 . S
C2341 C2340 1.392 . S
C2341 H2353 0.929 . S
C2342 C2338 1.531 . S
C2342 H2354 0.960 . S
C2342 H2355 0.962 . S
C2342 H2356 0.960 . S
C2343 C2340 1.511 . S
C2343 H2357 0.961 . S
C2343 H2358 0.961 . S
C2343 H2359 0.961 . S
C2344 C2345 1.370 . S
C2344 C2346 1.363 . S
C2344 H2360 0.931 . S
C2345 C2344 1.370 . S
C2345 C2349 1.408 . S
C2346 C2344 1.363 . S
C2346 C2347 1.370 . S
C2346 C2350 1.524 . S
C2347 C2339 1.503 . S
C2347 C2346 1.370 . S
C2347 C2348 1.403 . S
C2348 C2347 1.403 . S
C2348 C2349 1.404 . S
C2348 C2351 1.539 . S
C2349 C2345 1.408 . S
C2349 C2348 1.404 . S
C2349 H2361 0.930 . S
C2350 C2346 1.524 . S
C2350 H2362 0.956 . S
C2350 H2363 0.961 . S
C2350 H2364 0.961 . S
C2351 C2348 1.539 . S
C2351 H2365 0.958 . S
C2351 H2366 0.961 . S
C2351 H2367 0.960 . S
H2352 C2336 0.931 . S
H2353 C2341 0.929 . S
H2354 C2342 0.960 . S
H2355 C2342 0.962 . S
H2356 C2342 0.960 . S
H2357 C2343 0.961 . S
H2358 C2343 0.961 . S
H2359 C2343 0.961 . S
H2360 C2344 0.931 . S
H2361 C2349 0.930 . S
H2362 C2350 0.956 . S
H2363 C2350 0.961 . S
H2364 C2350 0.961 . S
H2365 C2351 0.958 . S
H2366 C2351 0.961 . S
H2367 C2351 0.960 . S
C2368 C2369 1.391 . S
C2368 C2370 1.394 . S
C2368 H2384 0.931 . S
C2369 C2368 1.391 . S
C2369 C2373 1.376 . S
C2370 C2368 1.394 . S
C2370 C2371 1.369 . S
C2370 C2374 1.531 . S
C2371 C2370 1.369 . S
C2371 C2372 1.410 . S
C2371 C2379 1.503 . S
C2372 C2371 1.410 . S
C2372 C2373 1.392 . S
C2372 C2375 1.511 . S
C2373 C2369 1.376 . S
C2373 C2372 1.392 . S
C2373 H2385 0.929 . S
C2374 C2370 1.531 . S
C2374 H2386 0.960 . S
C2374 H2387 0.962 . S
C2374 H2388 0.960 . S
C2375 C2372 1.511 . S
C2375 H2389 0.961 . S
C2375 H2390 0.961 . S
C2375 H2391 0.961 . S
C2376 C2377 1.370 . S
C2376 C2378 1.363 . S
C2376 H2392 0.931 . S
C2377 C2376 1.370 . S
C2377 C2381 1.408 . S
C2378 C2376 1.363 . S
C2378 C2379 1.370 . S
C2378 C2382 1.524 . S
C2379 C2371 1.503 . S
C2379 C2378 1.370 . S
C2379 C2380 1.403 . S
C2380 C2379 1.403 . S
C2380 C2381 1.404 . S
C2380 C2383 1.539 . S
C2381 C2377 1.408 . S
C2381 C2380 1.404 . S
C2381 H2393 0.930 . S
C2382 C2378 1.524 . S
C2382 H2394 0.956 . S
C2382 H2395 0.961 . S
C2382 H2396 0.961 . S
C2383 C2380 1.539 . S
C2383 H2397 0.958 . S
C2383 H2398 0.961 . S
C2383 H2399 0.960 . S
H2384 C2368 0.931 . S
H2385 C2373 0.929 . S
H2386 C2374 0.960 . S
H2387 C2374 0.962 . S
H2388 C2374 0.960 . S
H2389 C2375 0.961 . S
H2390 C2375 0.961 . S
H2391 C2375 0.961 . S
H2392 C2376 0.931 . S
H2393 C2381 0.930 . S
H2394 C2382 0.956 . S
H2395 C2382 0.961 . S
H2396 C2382 0.961 . S
H2397 C2383 0.958 . S
H2398 C2383 0.961 . S
H2399 C2383 0.960 . S
C2400 C2401 1.391 . S
C2400 C2402 1.394 . S
C2400 H2416 0.931 . S
C2401 C2400 1.391 . S
C2401 C2405 1.376 . S
C2402 C2400 1.394 . S
C2402 C2403 1.369 . S
C2402 C2406 1.531 . S
C2403 C2402 1.369 . S
C2403 C2404 1.410 . S
C2403 C2411 1.503 . S
C2404 C2403 1.410 . S
C2404 C2405 1.392 . S
C2404 C2407 1.511 . S
C2405 C2401 1.376 . S
C2405 C2404 1.392 . S
C2405 H2417 0.929 . S
C2406 C2402 1.531 . S
C2406 H2418 0.960 . S
C2406 H2419 0.962 . S
C2406 H2420 0.960 . S
C2407 C2404 1.511 . S
C2407 H2421 0.961 . S
C2407 H2422 0.961 . S
C2407 H2423 0.961 . S
C2408 C2409 1.370 . S
C2408 C2410 1.363 . S
C2408 H2424 0.931 . S
C2409 C2408 1.370 . S
C2409 C2413 1.408 . S
C2410 C2408 1.363 . S
C2410 C2411 1.370 . S
C2410 C2414 1.524 . S
C2411 C2403 1.503 . S
C2411 C2410 1.370 . S
C2411 C2412 1.403 . S
C2412 C2411 1.403 . S
C2412 C2413 1.404 . S
C2412 C2415 1.539 . S
C2413 C2409 1.408 . S
C2413 C2412 1.404 . S
C2413 H2425 0.930 . S
C2414 C2410 1.524 . S
C2414 H2426 0.956 . S
C2414 H2427 0.961 . S
C2414 H2428 0.961 . S
C2415 C2412 1.539 . S
C2415 H2429 0.958 . S
C2415 H2430 0.961 . S
C2415 H2431 0.960 . S
H2416 C2400 0.931 . S
H2417 C2405 0.929 . S
H2418 C2406 0.960 . S
H2419 C2406 0.962 . S
H2420 C2406 0.960 . S
H2421 C2407 0.961 . S
H2422 C2407 0.961 . S
H2423 C2407 0.961 . S
H2424 C2408 0.931 . S
H2425 C2413 0.930 . S
H2426 C2414 0.956 . S
H2427 C2414 0.961 . S
H2428 C2414 0.961 . S
H2429 C2415 0.958 . S
H2430 C2415 0.961 . S
H2431 C2415 0.960 . S
C1409 C57 0.474 . S
C1417 C812 0.296 . S
C1441 C929 0.354 . S
C1449 C145 0.410 . S
C1473 C988 0.401 . S
C1481 C225 0.322 . S
C1505 C733 0.432 . S
C1513 C313 0.358 . S
C1537 C381 0.375 . S
C1545 C1377 0.368 . S
C1569 C1105 0.419 . S
C1577 C469 0.330 . S
C1601 C1164 0.329 . S
C1609 C548 0.323 . S
C1633 C1252 0.296 . S
C1641 C636 0.332 . S
C1665 C753 0.424 . S
C1673 C137 0.362 . S
C1697 C849 0.355 . S
C1705 C233 0.272 . S
C1729 C909 0.361 . S
C1737 C321 0.365 . S
C1761 C49 0.356 . S
C1769 C1025 0.402 . S
C1793 C1085 0.352 . S
C1801 C645 0.272 . S
C1825 C1201 0.256 . S
C1833 C372 0.296 . S
C1857 C460 0.236 . S
C1865 C1289 0.324 . S
C1889 C1340 0.248 . S
C1897 C557 0.301 . S
C1921 C724 1.774 . S
C1929 C29 1.757 . S
C1953 C117 1.793 . S
C1961 C821 1.742 . S
C1985 C937 1.764 . S
C1993 C196 1.778 . S
C2017 C284 1.772 . S
C2025 C997 1.751 . S
C2049 C1113 1.730 . S
C2057 C409 1.770 . S
C2081 C497 1.748 . S
C2089 C1173 1.758 . S
C2113 C1261 1.737 . S
C2121 C577 1.779 . S
C2145 C1369 1.723 . S
C2153 C665 1.788 . S
C2177 C401 2.427 . S
C2185 C20 2.412 . S
C2209 C489 2.386 . S
C2217 C108 2.430 . S
C2241 C205 2.441 . S
C2249 C585 2.407 . S
C2273 C673 2.440 . S
C2281 C293 2.408 . S
C2305 C761 2.390 . S
C2313 C1076 2.421 . S
C2337 C1193 2.424 . S
C2345 C841 2.407 . S
C2369 C1281 2.410 . S
C2377 C900 2.423 . S
C2401 C1349 2.391 . S
C2409 C1017 2.421 . S
