# Generated by pormake.
# Topology rob, (6)-cn, num edge types: 1
# Building blocks:
#     Node 0, Type 0, BuildingBlock: KUMBUR_clean_sbu_0, # of connection points: 6
#     Node 1, Type 0, BuildingBlock: KUMBUR_clean_sbu_0, # of connection points: 6
#     Node 2, Type 0, BuildingBlock: KUMBUR_clean_sbu_0, # of connection points: 6
#     Node 3, Type 0, BuildingBlock: KUMBUR_clean_sbu_0, # of connection points: 6
#     Edge 4, Type (0, 0), BuildingBlock: OJICUG_clean_linker_0, # of connection points: 2
#     Edge 5, Type (0, 0), BuildingBlock: OJICUG_clean_linker_0, # of connection points: 2
#     Edge 6, Type (0, 0), BuildingBlock: OJICUG_clean_linker_0, # of connection points: 2
#     Edge 7, Type (0, 0), BuildingBlock: OJICUG_clean_linker_0, # of connection points: 2
#     Edge 8, Type (0, 0), BuildingBlock: OJICUG_clean_linker_0, # of connection points: 2
#     Edge 9, Type (0, 0), BuildingBlock: OJICUG_clean_linker_0, # of connection points: 2
#     Edge 10, Type (0, 0), BuildingBlock: OJICUG_clean_linker_0, # of connection points: 2
#     Edge 11, Type (0, 0), BuildingBlock: OJICUG_clean_linker_0, # of connection points: 2
#     Edge 12, Type (0, 0), BuildingBlock: OJICUG_clean_linker_0, # of connection points: 2
#     Edge 13, Type (0, 0), BuildingBlock: OJICUG_clean_linker_0, # of connection points: 2
#     Edge 14, Type (0, 0), BuildingBlock: OJICUG_clean_linker_0, # of connection points: 2
#     Edge 15, Type (0, 0), BuildingBlock: OJICUG_clean_linker_0, # of connection points: 2
# Relax obj value: 0.040
# Max RMSD: 0.176
# Mean RMSD: 0.176
data_MOF--net-rob--node1-KUMBUR_clean_sbu_0--edge1-OJICUG_clean_linker_0
_symmetry_space_group_name_H-M    P1
_symmetry_Int_Tables_number       1
_symmetry_cell_setting            triclinic
loop_
_symmetry_equiv_pos_as_xyz
'x, y, z'
_cell_length_a     12.703203
_cell_length_b     19.042219
_cell_length_c     26.364412
_cell_angle_alpha  116.35678
_cell_angle_beta   90.034702
_cell_angle_gamma 90.039574
loop_
_atom_site_label
_atom_site_type_symbol
_atom_site_fract_x
_atom_site_fract_y
_atom_site_fract_z
_atom_type_partial_charge
Tb0 Tb 0.158 0.29759 0.06965 0.0
C1 C 0.49106 0.02867 0.97375 0.0
C2 C 0.65199 0.08618 0.02383 0.0
C3 C 0.63557 0.94503 0.97242 0.0
C4 C 0.54814 0.094 1.00823 0.0
C5 C 0.53273 0.95318 0.95664 0.0
C6 C 0.69587 0.01143 1.00451 0.0
C7 C 0.37188 0.8997 0.90509 0.0
N8 N 0.39429 0.03915 0.95714 0.0
C9 C 0.33657 0.97593 0.92072 0.0
C10 C 0.4703 0.88838 0.9236 0.0
Tb11 Tb 0.34696 0.1654 0.98072 0.0
N12 N 0.50198 0.16505 0.02618 0.0
C13 C 0.55687 0.23116 0.06109 0.0
C14 C 0.70797 0.15339 0.05911 0.0
C15 C 0.65954 0.22619 0.07835 0.0
H16 H 0.26296 -0.01549 0.90376 0.0
H17 H 0.70189 0.27883 0.10579 0.0
H18 H 0.77549 0.0046 0.01511 0.0
H19 H 0.3245 0.84992 0.87778 0.0
H20 H 0.52398 0.28895 0.07586 0.0
H21 H 0.80306 0.18402 0.94461 0.0
H22 H 0.78786 0.14963 0.07216 0.0
H23 H 0.24192 0.4785 0.14655 0.0
H24 H 0.98098 0.17397 0.97454 0.0
H25 H 0.18022 0.61307 0.17258 0.0
H26 H 0.66897 0.88799 0.96035 0.0
H27 H 0.71697 0.31319 0.97826 0.0
H28 H 0.7292 0.45821 0.03537 0.0
H29 H 0.49797 0.82968 0.91146 0.0
H30 H 0.83562 0.57488 0.09015 0.0
N31 N 0.0029 0.29788 0.02422 0.0
C32 C 0.94806 0.23174 0.98931 0.0
C33 C 0.79688 0.30945 0.9913 0.0
C34 C 0.85283 0.37668 0.02658 0.0
C35 C 0.84537 0.23667 0.97205 0.0
C36 C 0.95671 0.36891 0.04216 0.0
H37 H 0.00664 0.63326 0.13897 0.0
N38 N 0.11057 0.42382 0.0932 0.0
C39 C 0.13287 0.56328 0.14527 0.0
C40 C 0.01375 0.43426 0.07662 0.0
C41 C 0.16827 0.48705 0.1296 0.0
C42 C 0.03439 0.57456 0.1268 0.0
C43 C 0.972 0.50973 0.09376 0.0
O44 O 0.14846 0.3562 0.15734 0.0
O45 O 0.28663 0.22291 0.06547 0.0
O46 O 0.24039 0.09282 1.0062 0.0
O47 O 0.09772 0.17704 0.04309 0.0
O48 O 0.29584 0.33617 0.12416 0.0
O49 O 0.04129 0.2594 0.11091 0.0
O50 O 0.3565 0.10686 0.89303 0.0
O51 O 0.21841 0.24002 0.98494 0.0
O52 O 0.26457 0.37016 0.04416 0.0
O53 O 0.40726 0.28596 1.00732 0.0
O54 O 0.20901 0.12689 0.92624 0.0
O55 O 0.46374 0.20358 0.93949 0.0
C56 C 0.33672 0.2683 0.10932 0.0
C57 C 0.03022 0.32429 0.21543 0.0
C58 C 0.90522 0.302 0.2767 0.0
C59 C 0.956 0.27502 0.2236 0.0
C60 C 0.91708 0.3809 0.31596 0.0
C61 C 0.06285 0.39158 0.26254 0.0
C62 C 1.00021 0.42385 0.3105 0.0
C63 C 0.14063 0.10641 0.02402 0.0
C64 C 0.07465 0.3108 0.16011 0.0
C65 C 0.86911 0.51784 0.07802 0.0
C66 C 0.80886 0.45141 0.04592 0.0
C67 C 0.16815 0.19477 0.94113 0.0
C68 C 0.47486 0.13874 0.83497 0.0
C69 C 0.54903 0.18805 0.8268 0.0
C70 C 0.59992 0.16106 0.77373 0.0
C71 C 0.58824 0.08211 0.73452 0.0
C72 C 0.44238 0.0714 0.78787 0.0
C73 C 0.50515 0.03911 0.73996 0.0
C74 C 0.36434 0.35657 0.02637 0.0
C75 C 0.43038 0.15223 0.89029 0.0
H76 H 0.94095 0.21659 0.1907 0.0
H77 H 0.87269 0.40571 0.35494 0.0
H78 H 0.13432 0.42049 0.26052 0.0
H79 H 0.01841 0.48049 0.3446 0.0
H80 H 0.56395 0.24652 0.85968 0.0
H81 H 0.63271 0.05729 0.69556 0.0
H82 H 0.37092 0.04246 0.78985 0.0
H83 H 0.48707 -0.01757 0.70587 0.0
Tb84 Tb 0.65848 0.79788 0.06987 0.0
C85 C 0.98899 0.52755 0.97349 0.0
C86 C 0.15036 0.58414 0.02343 0.0
C87 C 0.13241 0.44309 0.97214 0.0
C88 C 0.04669 0.59255 1.00792 0.0
C89 C 0.02984 0.45181 0.95634 0.0
C90 C 0.19337 0.50914 1.00416 0.0
C91 C 0.86878 0.39925 0.90473 0.0
N92 N 0.89251 0.53858 0.95686 0.0
C93 C 0.83432 0.4757 0.9204 0.0
C94 C 0.96693 0.38734 0.92321 0.0
Tb95 Tb 0.84653 0.66515 0.98063 0.0
N96 N 1.00139 0.66389 0.02585 0.0
C97 C 0.05696 0.7297 0.06062 0.0
C98 C 0.20706 0.65104 0.05859 0.0
C99 C 0.1595 0.72414 0.07779 0.0
H100 H 0.761 0.48471 0.90341 0.0
H101 H 0.2024 0.77653 0.10512 0.0
H102 H 0.27275 0.50184 0.0148 0.0
H103 H 0.82102 0.34975 0.87737 0.0
H104 H 0.02471 0.78767 0.07534 0.0
H105 H 0.30253 0.68657 0.94543 0.0
H106 H 0.28684 0.64681 0.07158 0.0
H107 H 0.74404 0.97832 0.14709 0.0
H108 H 0.48019 0.6754 0.97522 0.0
H109 H 0.68406 0.11328 0.17315 0.0
H110 H 0.16504 0.38586 0.96021 0.0
H111 H 0.21816 0.81632 0.97894 0.0
H112 H 0.23233 0.96129 0.03569 0.0
H113 H 0.99405 0.32844 0.91095 0.0
H114 H 0.34007 0.07725 0.09027 0.0
N115 N 0.50357 0.79918 0.0247 0.0
C116 C 0.44798 0.73338 0.98993 0.0
C117 C 0.29793 0.81207 0.99194 0.0
C118 C 0.35466 0.87896 0.02708 0.0
C119 C 0.34545 0.73896 0.97275 0.0
C120 C 0.45831 0.87053 0.0426 0.0
H121 H 0.51105 0.13463 0.13956 0.0
N122 N 0.61252 0.92447 0.09364 0.0
C123 C 0.63628 0.0638 0.14578 0.0
C124 C 0.51604 0.93552 0.07701 0.0
C125 C 0.67072 -0.01266 0.1301 0.0
C126 C 0.53815 0.07572 0.1273 0.0
C127 C 0.47522 0.01127 0.09416 0.0
O128 O 0.6492 0.85617 0.15759 0.0
O129 O 0.78675 0.72283 0.06549 0.0
O130 O 0.73988 0.59289 1.00633 0.0
O131 O 0.59755 0.67743 0.04322 0.0
O132 O 0.79657 0.83602 0.12421 0.0
O133 O 0.54103 0.76014 0.11104 0.0
O134 O 0.85579 0.60688 0.89291 0.0
O135 O 0.71832 0.74013 0.98505 0.0
O136 O 0.76509 0.87013 0.04414 0.0
O137 O 0.90745 0.78561 1.00729 0.0
O138 O 0.70833 0.62707 0.92632 0.0
O139 O 0.96398 0.70289 0.93946 0.0
C140 C 0.83714 0.76805 0.10928 0.0
C141 C 0.52995 0.82481 0.21557 0.0
C142 C 0.40488 0.80233 0.27674 0.0
C143 C 0.45613 0.77531 0.22376 0.0
C144 C 0.41581 0.88143 0.31578 0.0
C145 C 0.56171 0.8925 0.2626 0.0
C146 C 0.4986 0.92471 0.31038 0.0
C147 C 0.64017 0.60671 0.02417 0.0
C148 C 0.57472 0.81118 0.16027 0.0
C149 C 0.37267 0.02001 0.07835 0.0
C150 C 0.3117 0.95398 0.04633 0.0
C151 C 0.66775 0.69505 0.9413 0.0
C152 C 0.97505 0.63824 0.83494 0.0
C153 C 0.04887 0.68774 0.82674 0.0
C154 C 0.10016 0.66071 0.77377 0.0
C155 C 0.08928 0.5816 0.73475 0.0
C156 C 0.94333 0.57054 0.7879 0.0
C157 C 0.00648 0.53832 0.74014 0.0
C158 C 0.86481 0.85632 0.02632 0.0
C159 C 0.93028 0.65186 0.89023 0.0
H160 H 0.44178 0.71668 0.19098 0.0
H161 H 0.37105 0.90623 0.35464 0.0
H162 H 0.63292 0.92168 0.26066 0.0
H163 H 0.51621 0.98153 0.34442 0.0
H164 H 0.0632 0.74638 0.85951 0.0
H165 H 0.13408 0.55678 0.6959 0.0
H166 H 0.87212 0.54134 0.78984 0.0
H167 H 0.98889 0.48149 0.7061 0.0
Tb168 Tb 0.15861 0.66503 0.48058 0.0
C169 C 0.48876 0.93594 0.57724 0.0
C170 C 0.65018 0.87968 0.52751 0.0
C171 C 0.63198 0.0207 0.57864 0.0
C172 C 0.54653 0.87105 0.5429 0.0
C173 C 0.52948 0.01177 0.59437 0.0
C174 C 0.69304 0.95479 0.54677 0.0
C175 C 0.36845 0.064 0.64586 0.0
N176 N 0.39235 0.92471 0.59381 0.0
C177 C 0.33415 -0.01252 0.63023 0.0
C178 C 0.4665 0.0761 0.62742 0.0
Tb179 Tb 0.34649 0.79804 0.56997 0.0
N180 N 0.50132 0.79962 0.52494 0.0
C181 C 0.55697 0.73393 0.49025 0.0
C182 C 0.70697 0.81291 0.49246 0.0
C183 C 0.65951 0.73971 0.47322 0.0
H184 H 0.26094 0.97832 0.64721 0.0
H185 H 0.70247 0.6874 0.44596 0.0
H186 H 0.7724 0.96227 0.53624 0.0
H187 H 0.32065 0.11339 0.67317 0.0
H188 H 0.52479 0.67589 0.4755 0.0
H189 H 0.80252 0.77553 0.60451 0.0
H190 H 0.78674 0.81731 0.47957 0.0
H191 H 0.24427 0.48477 0.40335 0.0
H192 H 0.98019 0.78711 0.57497 0.0
H193 H 0.18464 0.34968 0.37736 0.0
H194 H 0.66446 0.07799 0.59049 0.0
H195 H 0.71834 0.64558 0.57091 0.0
H196 H 0.73278 0.50063 0.51423 0.0
H197 H 0.4935 0.13506 0.63965 0.0
H198 H 0.84079 0.38494 0.45998 0.0
N199 N 0.00374 0.66338 0.52557 0.0
C200 C 0.94806 0.72906 0.56024 0.0
C201 C 0.79811 0.65001 0.55803 0.0
C202 C 0.85496 0.58326 0.523 0.0
C203 C 0.84552 0.72324 0.57727 0.0
C204 C 0.95861 0.59192 0.50762 0.0
H205 H 0.01177 0.32793 0.41083 0.0
N206 N 0.11284 0.53833 0.45675 0.0
C207 C 0.13681 0.39905 0.40467 0.0
C208 C 0.01643 0.52706 0.4733 0.0
C209 C 0.17108 0.47558 0.42033 0.0
C210 C 0.03876 0.3869 0.42309 0.0
C211 C 0.97575 0.45122 0.45615 0.0
O212 O 0.14933 0.60666 0.39286 0.0
O213 O 0.28677 0.74033 0.48502 0.0
O214 O 0.2398 0.87018 0.5442 0.0
O215 O 0.09753 0.7854 0.50713 0.0
O216 O 0.29674 0.62708 0.42645 0.0
O217 O 0.04109 0.70247 0.43927 0.0
O218 O 0.35576 0.85641 0.6577 0.0
O219 O 0.21837 0.72282 0.5655 0.0
O220 O 0.26528 0.59291 0.50638 0.0
O221 O 0.40757 0.67767 0.54342 0.0
O222 O 0.20824 0.83595 0.62408 0.0
O223 O 0.46396 0.76057 0.61129 0.0
C224 C 0.33719 0.69512 0.44131 0.0
C225 C 0.02995 0.63772 0.33475 0.0
C226 C 0.90496 0.66012 0.27349 0.0
C227 C 0.95626 0.68717 0.3265 0.0
C228 C 0.91571 0.58103 0.23445 0.0
C229 C 0.06155 0.57002 0.28776 0.0
C230 C 0.99839 0.53777 0.23992 0.0
C231 C 0.14008 0.85623 0.52626 0.0
C232 C 0.07479 0.65147 0.39008 0.0
C233 C 0.87324 0.44224 0.47185 0.0
C234 C 0.81214 0.50814 0.50372 0.0
C235 C 0.16778 0.7679 0.60917 0.0
C236 C 0.4751 0.82533 0.7158 0.0
C237 C 0.54883 0.77589 0.72406 0.0
C238 C 0.60016 0.80295 0.77706 0.0
C239 C 0.58944 0.88206 0.81608 0.0
C240 C 0.44351 0.89303 0.7628 0.0
C241 C 0.50673 0.9253 0.81061 0.0
C242 C 0.36501 0.60685 0.5243 0.0
C243 C 0.43028 0.81159 0.66048 0.0
H244 H 0.94207 0.74582 0.35925 0.0
H245 H 0.87089 0.5562 0.19557 0.0
H246 H 0.13268 0.54086 0.28978 0.0
H247 H 0.01591 0.48095 0.2059 0.0
H248 H 0.56301 0.71724 0.69131 0.0
H249 H 0.63428 0.90689 0.85496 0.0
H250 H 0.37234 0.92215 0.7608 0.0
H251 H 0.48923 -0.01787 0.84463 0.0
Tb252 Tb 0.6581 0.16532 0.48071 0.0
C253 C 0.99143 0.43448 0.57677 0.0
C254 C 0.15231 0.37703 0.52692 0.0
C255 C 0.13613 0.51817 0.57825 0.0
C256 C 0.0484 0.36917 0.54238 0.0
C257 C 0.03324 0.50998 0.59389 0.0
C258 C 0.19636 0.4518 0.54629 0.0
C259 C 0.87241 0.56341 0.64524 0.0
N260 N 0.89461 0.42396 0.59329 0.0
C261 C 0.83699 0.48716 0.62962 0.0
C262 C 0.97088 0.57475 0.62681 0.0
Tb263 Tb 0.84705 0.2977 0.56972 0.0
N264 N 1.00209 0.2981 0.52438 0.0
C265 C 0.05687 0.23202 0.48952 0.0
C266 C 0.20819 0.30985 0.49171 0.0
C267 C 0.1596 0.23703 0.47239 0.0
H268 H 0.76339 0.47855 0.64656 0.0
H269 H 0.20185 0.18442 0.44501 0.0
H270 H 0.27605 0.45867 0.53587 0.0
H271 H 0.8251 0.61316 0.67247 0.0
H272 H 0.02385 0.17421 0.47471 0.0
H273 H 0.30314 0.27824 0.60533 0.0
H274 H 0.28813 0.31365 0.47876 0.0
H275 H 0.74198 -0.01546 0.40379 0.0
H276 H 0.48106 0.28862 0.57561 0.0
H277 H 0.68055 0.84987 0.37787 0.0
H278 H 0.16966 0.57523 0.59034 0.0
H279 H 0.21716 0.1489 0.57163 0.0
H280 H 0.22956 0.00388 0.51462 0.0
H281 H 0.99864 0.63346 0.63894 0.0
H282 H 0.33616 0.88744 0.46015 0.0
N283 N 0.50305 0.16475 0.52598 0.0
C284 C 0.44817 0.23079 0.56082 0.0
C285 C 0.29706 0.15279 0.55867 0.0
C286 C 0.35306 0.08566 0.52349 0.0
C287 C 0.34549 0.22566 0.57796 0.0
C288 C 0.45692 0.09363 0.50801 0.0
H289 H 0.50714 0.82937 0.41143 0.0
N290 N 0.61076 0.039 0.4571 0.0
C291 C 0.63318 0.89958 0.40512 0.0
C292 C 0.514 0.02838 0.47363 0.0
C293 C 0.66844 0.97586 0.42074 0.0
C294 C 0.53479 0.88812 0.42357 0.0
C295 C 0.47235 0.95283 0.45652 0.0
O296 O 0.64845 0.10663 0.39302 0.0
O297 O 0.78666 0.2402 0.4849 0.0
O298 O 0.74042 0.37021 0.54422 0.0
O299 O 0.59774 0.28581 0.50719 0.0
O300 O 0.79591 0.12687 0.42636 0.0
O301 O 0.54132 0.20327 0.43933 0.0
O302 O 0.85667 0.35646 0.65741 0.0
O303 O 0.71852 0.22292 0.56549 0.0
O304 O 0.76468 0.09283 0.50625 0.0
O305 O 0.90737 0.17722 0.54327 0.0
O306 O 0.70912 0.33613 0.62404 0.0
O307 O 0.96371 0.25974 0.61113 0.0
C308 C 0.83671 0.19479 0.44111 0.0
C309 C 0.53007 0.13827 0.33483 0.0
C310 C 0.40511 0.1605 0.27348 0.0
C311 C 0.45602 0.18753 0.32658 0.0
C312 C 0.41664 0.08157 0.23427 0.0
C313 C 0.56242 0.07092 0.28777 0.0
C314 C 0.49963 0.0386 0.23979 0.0
C315 C 0.64064 0.35652 0.52633 0.0
C316 C 0.57461 0.15189 0.39018 0.0
C317 C 0.36953 0.94453 0.4722 0.0
C318 C 0.30919 0.01084 0.50416 0.0
C319 C 0.6683 0.2682 0.60924 0.0
C320 C 0.97494 0.3248 0.71564 0.0
C321 C 0.04903 0.27557 0.72387 0.0
C322 C 0.09992 0.3026 0.77699 0.0
C323 C 0.08832 0.38153 0.8162 0.0
C324 C 0.94251 0.39211 0.7627 0.0
C325 C 0.00527 0.42445 0.81069 0.0
C326 C 0.86447 0.10651 0.52413 0.0
C327 C 0.93045 0.31118 0.66028 0.0
H328 H 0.44125 0.24601 0.35944 0.0
H329 H 0.37214 0.05673 0.19528 0.0
H330 H 0.6338 0.04203 0.28983 0.0
H331 H 0.51764 -0.01806 0.20571 0.0
H332 H 0.06387 0.21711 0.69101 0.0
H333 H 0.1328 0.40637 0.8552 0.0
H334 H 0.8711 0.42097 0.76063 0.0
H335 H 0.98721 0.48109 0.84477 0.0
C336 C 0.50591 0.55549 0.0715 0.0
C337 C 0.57086 0.54188 0.02456 0.0
H338 H 0.39284 0.50952 0.10989 0.0
C339 C 0.56482 0.46702 0.97802 0.0
H340 H 0.50786 0.61195 0.10816 0.0
C341 C 0.49828 0.40791 0.979 0.0
C342 C 0.43343 0.4215 0.02596 0.0
H343 H 0.61119 0.45391 0.94057 0.0
H344 H 0.49636 0.35146 0.94233 0.0
C345 C 0.43931 0.4964 0.07247 0.0
C346 C 0.43974 0.467 0.4782 0.0
C347 C 0.43439 0.54201 0.52463 0.0
H348 H 0.5074 0.35128 0.44258 0.0
C349 C 0.49994 0.55569 0.57142 0.0
H350 H 0.39293 0.45379 0.44084 0.0
C351 C 0.56638 0.49654 0.57236 0.0
C352 C 0.57152 0.42147 0.52598 0.0
H353 H 0.49861 0.61224 0.60799 0.0
H354 H 0.61333 0.50976 0.60968 0.0
C355 C 0.50608 0.40783 0.47916 0.0
C356 C 0.06573 0.96656 0.97799 0.0
C357 C 0.07155 0.0415 0.02446 0.0
H358 H 0.99723 0.851 0.94234 0.0
C359 C 0.00662 0.05513 0.0714 0.0
H360 H 0.11226 0.9534 0.94057 0.0
C361 C 0.94009 -0.00396 0.07241 0.0
C362 C 0.93412 0.92115 0.0259 0.0
H363 H 0.0085 0.11162 0.10805 0.0
H364 H 0.89366 0.00919 0.10984 0.0
C365 C 0.99913 0.90748 0.97898 0.0
C366 C 0.93866 0.96647 0.47816 0.0
C367 C 0.93358 0.04157 0.52451 0.0
H368 H 0.00637 0.85075 0.44259 0.0
C369 C 0.9991 0.05526 0.57131 0.0
H370 H 0.89168 0.95321 0.44085 0.0
C371 C 0.06545 -0.00389 0.5723 0.0
C372 C 0.07071 0.92106 0.52591 0.0
H373 H 0.99784 0.11184 0.60787 0.0
H374 H 0.11234 0.00937 0.60963 0.0
C375 C 0.0051 0.90734 0.47913 0.0
C376 C 0.44113 0.26292 0.24217 0.0
C377 C 0.3673 0.21319 0.2498 0.0
H378 H 0.49096 0.31731 0.18992 0.0
C379 C 0.277 0.19112 0.21557 0.0
H380 H 0.512 0.28051 0.2677 0.0
C381 C 0.26919 0.20751 0.16922 0.0
C382 C 0.34943 0.2487 0.15717 0.0
H383 H 0.21875 0.153 0.22051 0.0
H384 H 0.20228 0.18464 0.14132 0.0
C385 C 0.43138 0.28142 0.19645 0.0
C386 C 0.27702 0.77156 0.33466 0.0
C387 C 0.36736 0.74968 0.30054 0.0
H388 H 0.20232 0.77804 0.40889 0.0
C389 C 0.44132 0.70025 0.30837 0.0
H390 H 0.21861 0.8094 0.32954 0.0
C391 C 0.43168 0.68193 0.35418 0.0
C392 C 0.34972 0.71456 0.39337 0.0
H393 H 0.5122 0.68277 0.28293 0.0
H394 H 0.49138 0.64628 0.36086 0.0
C395 C 0.26932 0.75537 0.38111 0.0
C396 C 0.73559 0.75577 0.88142 0.0
C397 C 0.65515 0.71477 0.8935 0.0
H398 H 0.78639 0.81014 0.83011 0.0
C399 C 0.57313 0.6822 0.85423 0.0
H400 H 0.80265 0.77838 0.90925 0.0
C401 C 0.56352 0.70073 0.80852 0.0
C402 C 0.63757 0.75031 0.80087 0.0
H403 H 0.5134 0.64642 0.86077 0.0
H404 H 0.49262 0.68327 0.78301 0.0
C405 C 0.72792 0.77218 0.83508 0.0
C406 C 0.57378 0.28156 0.6964 0.0
C407 C 0.65567 0.24879 0.6572 0.0
H408 H 0.49318 0.28089 0.76768 0.0
C409 C 0.73592 0.20785 0.66944 0.0
H410 H 0.51422 0.31731 0.68973 0.0
C411 C 0.72812 0.19169 0.7159 0.0
C412 C 0.63781 0.21374 0.75005 0.0
H413 H 0.8028 0.18496 0.64161 0.0
H414 H 0.78634 0.15369 0.72098 0.0
C415 C 0.56404 0.2633 0.74223 0.0
C416 C 0.76941 0.70732 0.16916 0.0
C417 C 0.84979 0.74837 0.15709 0.0
H418 H 0.7187 0.65291 0.22046 0.0
C419 C 0.93184 0.78094 0.19634 0.0
H420 H 0.70235 0.68469 0.14133 0.0
C421 C 0.94152 0.76238 0.24204 0.0
C422 C 0.8675 0.71278 0.2497 0.0
H423 H 0.99154 0.81673 0.1898 0.0
H424 H 0.01243 0.77984 0.26753 0.0
C425 C 0.77714 0.69089 0.2155 0.0
C426 C 0.76911 0.25517 0.38093 0.0
C427 C 0.84933 0.21418 0.39315 0.0
H428 H 0.71874 0.30941 0.32945 0.0
C429 C 0.93121 0.1814 0.35394 0.0
H430 H 0.70225 0.27808 0.40879 0.0
C431 C 0.94096 0.1997 0.30812 0.0
C432 C 0.86722 0.2493 0.30034 0.0
H433 H 0.99075 0.14564 0.36059 0.0
H434 H 0.01182 0.1821 0.28267 0.0
C435 C 0.77692 0.27136 0.33449 0.0
C436 C 0.22796 0.27198 0.83491 0.0
C437 C 0.13767 0.2499 0.80066 0.0
H438 H 0.30267 0.27843 0.90916 0.0
C439 C 0.06383 0.20018 0.80828 0.0
H440 H 0.28621 0.3101 0.82997 0.0
C441 C 0.07355 0.18169 0.85401 0.0
C442 C 0.15548 0.21442 0.8933 0.0
H443 H 0.99298 0.18257 0.78274 0.0
H444 H 0.01396 0.1458 0.86053 0.0
C445 C 0.23575 0.25559 0.88126 0.0
C446 C 0.07327 0.78104 0.69628 0.0
C447 C 0.15524 0.74841 0.65709 0.0
H448 H 0.99277 0.78021 0.76753 0.0
C449 C 0.23566 0.70764 0.66936 0.0
H450 H 0.01357 0.81667 0.68959 0.0
C451 C 0.228 0.69147 0.71583 0.0
C452 C 0.13765 0.71334 0.74995 0.0
H453 H 0.30269 0.685 0.6416 0.0
H454 H 0.28644 0.65366 0.72095 0.0
C455 C 0.06366 0.76275 0.74211 0.0
loop_
_geom_bond_atom_site_label_1
_geom_bond_atom_site_label_2
_geom_bond_distance
_geom_bond_site_symmetry_2
_ccdc_geom_bond_type
Tb0 N31 2.660 1_455 S
Tb0 N38 2.600 . S
Tb0 O44 2.546 . S
Tb0 O45 2.610 . S
Tb0 O47 2.320 . S
Tb0 O48 2.552 . S
Tb0 O49 2.413 . S
Tb0 O51 2.362 1_554 S
Tb0 O52 2.421 . S
Tb0 C64 2.833 . S
C1 C4 1.432 . S
C1 C5 1.414 1_545 S
C1 N8 1.359 . S
C2 C4 1.417 1_554 S
C2 C6 1.432 . S
C2 C14 1.410 . S
C3 C5 1.444 . S
C3 C6 1.317 1_566 S
C3 H26 0.929 . S
C4 C1 1.432 . S
C4 C2 1.417 1_556 S
C4 N12 1.360 1_556 S
C5 C1 1.414 1_565 S
C5 C3 1.444 . S
C5 C10 1.385 . S
C6 C2 1.432 . S
C6 C3 1.317 1_544 S
C6 H18 0.930 . S
C7 C9 1.392 . S
C7 C10 1.370 . S
C7 H19 0.931 . S
N8 C1 1.359 . S
N8 C9 1.327 1_545 S
N8 Tb11 2.600 . S
C9 C7 1.392 . S
C9 N8 1.327 1_565 S
C9 H16 0.930 . S
C10 C5 1.385 . S
C10 C7 1.370 . S
C10 H29 0.930 . S
Tb11 N8 2.600 . S
Tb11 N12 2.660 1_556 S
Tb11 O45 2.362 1_556 S
Tb11 O46 2.421 . S
Tb11 O50 2.546 . S
Tb11 O51 2.610 . S
Tb11 O53 2.320 . S
Tb11 O54 2.552 . S
Tb11 O55 2.413 . S
Tb11 C75 2.833 . S
N12 C4 1.360 1_554 S
N12 Tb11 2.660 1_554 S
N12 C13 1.305 . S
C13 N12 1.305 . S
C13 C15 1.407 . S
C13 H20 0.930 . S
C14 C2 1.410 . S
C14 C15 1.345 . S
C14 H22 0.930 . S
C15 C13 1.407 . S
C15 C14 1.345 . S
C15 H17 0.930 . S
H16 C9 0.930 . S
H17 C15 0.930 . S
H18 C6 0.930 . S
H19 C7 0.931 . S
H20 C13 0.930 . S
H21 C35 0.930 . S
H22 C14 0.930 . S
H23 C41 0.930 . S
H24 C32 0.930 . S
H25 C39 0.931 . S
H26 C3 0.929 . S
H27 C33 0.930 . S
H28 C66 0.941 . S
H29 C10 0.930 . S
H30 C65 0.929 . S
N31 Tb0 2.660 1_655 S
N31 C32 1.305 1_554 S
N31 C36 1.360 . S
C32 H24 0.930 . S
C32 N31 1.305 1_556 S
C32 C35 1.407 . S
C33 H27 0.930 . S
C33 C34 1.410 1_556 S
C33 C35 1.345 . S
C34 C33 1.410 1_554 S
C34 C36 1.417 . S
C34 C66 1.432 . S
C35 H21 0.930 . S
C35 C32 1.407 . S
C35 C33 1.345 . S
C36 N31 1.360 . S
C36 C34 1.417 . S
C36 C40 1.432 . S
H37 C42 0.930 . S
N38 Tb0 2.600 . S
N38 C40 1.359 1_455 S
N38 C41 1.327 . S
C39 H25 0.931 . S
C39 C41 1.392 . S
C39 C42 1.370 1_455 S
C40 C36 1.432 . S
C40 N38 1.359 1_655 S
C40 C43 1.414 . S
C41 H23 0.930 . S
C41 N38 1.327 . S
C41 C39 1.392 . S
C42 H37 0.930 . S
C42 C39 1.370 1_655 S
C42 C43 1.385 . S
C43 C40 1.414 . S
C43 C42 1.385 . S
C43 C65 1.444 . S
O44 Tb0 2.546 . S
O44 C64 1.251 . S
O45 Tb0 2.610 . S
O45 Tb11 2.362 1_554 S
O45 C56 1.283 . S
O46 Tb11 2.421 . S
O46 C63 1.273 . S
O47 Tb0 2.320 . S
O47 C63 1.258 1_554 S
O48 Tb0 2.552 . S
O48 C56 1.243 . S
O49 Tb0 2.413 . S
O49 C64 1.256 . S
O50 Tb11 2.546 . S
O50 C75 1.251 . S
O51 Tb0 2.362 1_556 S
O51 Tb11 2.610 . S
O51 C67 1.283 . S
O52 Tb0 2.421 . S
O52 C74 1.262 . S
O53 Tb11 2.320 . S
O53 C74 1.260 1_556 S
O54 Tb11 2.552 . S
O54 C67 1.243 . S
O55 Tb11 2.413 . S
O55 C75 1.256 . S
C56 O45 1.283 . S
C56 O48 1.243 . S
C57 C59 1.382 1_455 S
C57 C61 1.393 1_455 S
C57 C64 1.500 . S
C58 C59 1.400 . S
C58 C60 1.384 . S
C59 C57 1.382 1_655 S
C59 C58 1.400 . S
C59 H76 0.930 . S
C60 C58 1.384 . S
C60 C62 1.392 . S
C60 H77 0.931 . S
C61 C57 1.393 1_655 S
C61 C62 1.401 . S
C61 H78 0.930 1_655 S
C62 C60 1.392 . S
C62 C61 1.401 . S
C62 H79 0.930 . S
C63 O46 1.273 . S
C63 O47 1.258 1_556 S
C64 Tb0 2.833 . S
C64 O44 1.251 . S
C64 O49 1.256 . S
C64 C57 1.500 . S
C65 H30 0.929 . S
C65 C43 1.444 . S
C65 C66 1.317 . S
C66 H28 0.941 . S
C66 C34 1.432 . S
C66 C65 1.317 . S
C67 O51 1.283 . S
C67 O54 1.243 . S
C68 C69 1.382 . S
C68 C72 1.393 1_545 S
C68 C75 1.500 . S
C69 C68 1.382 . S
C69 C70 1.400 . S
C69 H80 0.930 . S
C70 C69 1.400 . S
C70 C71 1.384 . S
C71 C70 1.384 . S
C71 C73 1.392 1_545 S
C71 H81 0.931 . S
C72 C68 1.393 1_565 S
C72 C73 1.401 . S
C72 H82 0.930 . S
C73 C71 1.392 1_565 S
C73 C72 1.401 . S
C73 H83 0.930 . S
C74 O52 1.262 . S
C74 O53 1.260 1_554 S
C75 Tb11 2.833 . S
C75 O50 1.251 . S
C75 O55 1.256 . S
C75 C68 1.500 . S
H76 C59 0.930 . S
H77 C60 0.931 . S
H78 C61 0.930 1_455 S
H79 C62 0.930 . S
H80 C69 0.930 . S
H81 C71 0.931 . S
H82 C72 0.930 . S
H83 C73 0.930 . S
Tb84 N115 2.660 . S
Tb84 N122 2.600 . S
Tb84 O128 2.546 . S
Tb84 O129 2.610 . S
Tb84 O131 2.320 . S
Tb84 O132 2.552 . S
Tb84 O133 2.413 . S
Tb84 O135 2.362 1_554 S
Tb84 O136 2.421 . S
Tb84 C148 2.833 . S
C85 C88 1.432 . S
C85 C89 1.414 . S
C85 N92 1.359 1_455 S
C86 C88 1.417 1_554 S
C86 C90 1.432 . S
C86 C98 1.410 . S
C87 C89 1.444 . S
C87 C90 1.317 1_556 S
C87 H110 0.929 . S
C88 C85 1.432 . S
C88 C86 1.417 1_556 S
C88 N96 1.360 1_556 S
C89 C85 1.414 . S
C89 C87 1.444 . S
C89 C94 1.385 . S
C90 C86 1.432 . S
C90 C87 1.317 1_554 S
C90 H102 0.930 . S
C91 C93 1.392 . S
C91 C94 1.370 1_655 S
C91 H103 0.931 . S
N92 C85 1.359 1_655 S
N92 C93 1.327 . S
N92 Tb95 2.600 . S
C93 C91 1.392 . S
C93 N92 1.327 . S
C93 H100 0.930 . S
C94 C89 1.385 . S
C94 C91 1.370 1_455 S
C94 H113 0.930 . S
Tb95 N92 2.600 . S
Tb95 N96 2.660 1_656 S
Tb95 O129 2.362 1_556 S
Tb95 O130 2.421 . S
Tb95 O134 2.546 . S
Tb95 O135 2.610 . S
Tb95 O137 2.320 . S
Tb95 O138 2.552 . S
Tb95 O139 2.413 . S
Tb95 C159 2.833 . S
N96 C88 1.360 1_554 S
N96 Tb95 2.660 1_454 S
N96 C97 1.305 . S
C97 N96 1.305 . S
C97 C99 1.407 . S
C97 H104 0.930 . S
C98 C86 1.410 . S
C98 C99 1.345 . S
C98 H106 0.930 . S
C99 C97 1.407 . S
C99 C98 1.345 . S
C99 H101 0.930 . S
H100 C93 0.930 . S
H101 C99 0.930 . S
H102 C90 0.930 . S
H103 C91 0.931 . S
H104 C97 0.930 . S
H105 C119 0.930 . S
H106 C98 0.930 . S
H107 C125 0.930 . S
H108 C116 0.930 . S
H109 C123 0.931 . S
H110 C87 0.929 . S
H111 C117 0.930 . S
H112 C150 0.941 . S
H113 C94 0.930 . S
H114 C149 0.929 . S
N115 Tb84 2.660 . S
N115 C116 1.305 1_554 S
N115 C120 1.360 . S
C116 H108 0.930 . S
C116 N115 1.305 1_556 S
C116 C119 1.407 . S
C117 H111 0.930 . S
C117 C118 1.410 1_556 S
C117 C119 1.345 . S
C118 C117 1.410 1_554 S
C118 C120 1.417 . S
C118 C150 1.432 . S
C119 H105 0.930 . S
C119 C116 1.407 . S
C119 C117 1.345 . S
C120 N115 1.360 . S
C120 C118 1.417 . S
C120 C124 1.432 . S
H121 C126 0.930 . S
N122 Tb84 2.600 . S
N122 C124 1.359 . S
N122 C125 1.327 1_565 S
C123 H109 0.931 . S
C123 C125 1.392 . S
C123 C126 1.370 . S
C124 C120 1.432 . S
C124 N122 1.359 . S
C124 C127 1.414 1_565 S
C125 H107 0.930 . S
C125 N122 1.327 1_545 S
C125 C123 1.392 . S
C126 H121 0.930 . S
C126 C123 1.370 . S
C126 C127 1.385 . S
C127 C124 1.414 1_545 S
C127 C126 1.385 . S
C127 C149 1.444 . S
O128 Tb84 2.546 . S
O128 C148 1.251 . S
O129 Tb84 2.610 . S
O129 Tb95 2.362 1_554 S
O129 C140 1.283 . S
O130 Tb95 2.421 . S
O130 C147 1.273 . S
O131 Tb84 2.320 . S
O131 C147 1.258 1_554 S
O132 Tb84 2.552 . S
O132 C140 1.243 . S
O133 Tb84 2.413 . S
O133 C148 1.256 . S
O134 Tb95 2.546 . S
O134 C159 1.251 . S
O135 Tb84 2.362 1_556 S
O135 Tb95 2.610 . S
O135 C151 1.283 . S
O136 Tb84 2.421 . S
O136 C158 1.262 . S
O137 Tb95 2.320 . S
O137 C158 1.260 1_556 S
O138 Tb95 2.552 . S
O138 C151 1.243 . S
O139 Tb95 2.413 . S
O139 C159 1.256 . S
C140 O129 1.283 . S
C140 O132 1.243 . S
C141 C143 1.382 . S
C141 C145 1.393 1_565 S
C141 C148 1.500 . S
C142 C143 1.400 . S
C142 C144 1.384 . S
C143 C141 1.382 . S
C143 C142 1.400 . S
C143 H160 0.930 . S
C144 C142 1.384 . S
C144 C146 1.392 1_565 S
C144 H161 0.931 . S
C145 C141 1.393 1_545 S
C145 C146 1.401 . S
C145 H162 0.930 . S
C146 C144 1.392 1_545 S
C146 C145 1.401 . S
C146 H163 0.930 . S
C147 O130 1.273 . S
C147 O131 1.258 1_556 S
C148 Tb84 2.833 . S
C148 O128 1.251 . S
C148 O133 1.256 . S
C148 C141 1.500 . S
C149 H114 0.929 . S
C149 C127 1.444 . S
C149 C150 1.317 1_545 S
C150 H112 0.941 . S
C150 C118 1.432 . S
C150 C149 1.317 1_565 S
C151 O135 1.283 . S
C151 O138 1.243 . S
C152 C153 1.382 1_655 S
C152 C156 1.393 1_655 S
C152 C159 1.500 . S
C153 C152 1.382 1_455 S
C153 C154 1.400 . S
C153 H164 0.930 . S
C154 C153 1.400 . S
C154 C155 1.384 . S
C155 C154 1.384 . S
C155 C157 1.392 . S
C155 H165 0.931 . S
C156 C152 1.393 1_455 S
C156 C157 1.401 . S
C156 H166 0.930 1_455 S
C157 C155 1.392 . S
C157 C156 1.401 . S
C157 H167 0.930 . S
C158 O136 1.262 . S
C158 O137 1.260 1_554 S
C159 Tb95 2.833 . S
C159 O134 1.251 . S
C159 O139 1.256 . S
C159 C152 1.500 . S
H160 C143 0.930 . S
H161 C144 0.931 . S
H162 C145 0.930 . S
H163 C146 0.930 . S
H164 C153 0.930 . S
H165 C155 0.931 . S
H166 C156 0.930 1_655 S
H167 C157 0.930 . S
Tb168 N199 2.660 1_455 S
Tb168 N206 2.600 . S
Tb168 O212 2.546 . S
Tb168 O213 2.610 . S
Tb168 O215 2.320 . S
Tb168 O216 2.552 . S
Tb168 O217 2.413 . S
Tb168 O219 2.362 . S
Tb168 O220 2.421 . S
Tb168 C232 2.833 . S
C169 C172 1.432 . S
C169 C173 1.414 1_565 S
C169 N176 1.359 . S
C170 C172 1.417 . S
C170 C174 1.432 . S
C170 C182 1.410 . S
C171 C173 1.444 . S
C171 C174 1.317 1_545 S
C171 H194 0.929 . S
C172 C169 1.432 . S
C172 C170 1.417 . S
C172 N180 1.360 . S
C173 C169 1.414 1_545 S
C173 C171 1.444 . S
C173 C178 1.385 . S
C174 C170 1.432 . S
C174 C171 1.317 1_565 S
C174 H186 0.930 . S
C175 C177 1.392 . S
C175 C178 1.370 . S
C175 H187 0.931 . S
N176 C169 1.359 . S
N176 C177 1.327 1_565 S
N176 Tb179 2.600 . S
C177 C175 1.392 . S
C177 N176 1.327 1_545 S
C177 H184 0.930 . S
C178 C173 1.385 . S
C178 C175 1.370 . S
C178 H197 0.930 . S
Tb179 N176 2.600 . S
Tb179 N180 2.660 . S
Tb179 O213 2.362 . S
Tb179 O214 2.421 . S
Tb179 O218 2.546 . S
Tb179 O219 2.610 . S
Tb179 O221 2.320 . S
Tb179 O222 2.552 . S
Tb179 O223 2.413 . S
Tb179 C243 2.833 . S
N180 C172 1.360 . S
N180 Tb179 2.660 . S
N180 C181 1.305 . S
C181 N180 1.305 . S
C181 C183 1.407 . S
C181 H188 0.930 . S
C182 C170 1.410 . S
C182 C183 1.345 . S
C182 H190 0.930 . S
C183 C181 1.407 . S
C183 C182 1.345 . S
C183 H185 0.930 . S
H184 C177 0.930 . S
H185 C183 0.930 . S
H186 C174 0.930 . S
H187 C175 0.931 . S
H188 C181 0.930 . S
H189 C203 0.930 . S
H190 C182 0.930 . S
H191 C209 0.930 . S
H192 C200 0.930 . S
H193 C207 0.931 . S
H194 C171 0.929 . S
H195 C201 0.930 . S
H196 C234 0.930 . S
H197 C178 0.930 . S
H198 C233 0.929 . S
N199 Tb168 2.660 1_655 S
N199 C200 1.305 . S
N199 C204 1.360 . S
C200 H192 0.930 . S
C200 N199 1.305 . S
C200 C203 1.407 . S
C201 H195 0.930 . S
C201 C202 1.410 . S
C201 C203 1.345 . S
C202 C201 1.410 . S
C202 C204 1.417 . S
C202 C234 1.432 . S
C203 H189 0.930 . S
C203 C200 1.407 . S
C203 C201 1.345 . S
C204 N199 1.360 . S
C204 C202 1.417 . S
C204 C208 1.432 . S
H205 C210 0.930 . S
N206 Tb168 2.600 . S
N206 C208 1.359 1_455 S
N206 C209 1.327 . S
C207 H193 0.931 . S
C207 C209 1.392 . S
C207 C210 1.370 1_455 S
C208 C204 1.432 . S
C208 N206 1.359 1_655 S
C208 C211 1.414 . S
C209 H191 0.930 . S
C209 N206 1.327 . S
C209 C207 1.392 . S
C210 H205 0.930 . S
C210 C207 1.370 1_655 S
C210 C211 1.385 . S
C211 C208 1.414 . S
C211 C210 1.385 . S
C211 C233 1.444 . S
O212 Tb168 2.546 . S
O212 C232 1.251 . S
O213 Tb168 2.610 . S
O213 Tb179 2.362 . S
O213 C224 1.283 . S
O214 Tb179 2.421 . S
O214 C231 1.262 . S
O215 Tb168 2.320 . S
O215 C231 1.260 . S
O216 Tb168 2.552 . S
O216 C224 1.243 . S
O217 Tb168 2.413 . S
O217 C232 1.256 . S
O218 Tb179 2.546 . S
O218 C243 1.251 . S
O219 Tb168 2.362 . S
O219 Tb179 2.610 . S
O219 C235 1.283 . S
O220 Tb168 2.421 . S
O220 C242 1.262 . S
O221 Tb179 2.320 . S
O221 C242 1.260 . S
O222 Tb179 2.552 . S
O222 C235 1.243 . S
O223 Tb179 2.413 . S
O223 C243 1.256 . S
C224 O213 1.283 . S
C224 O216 1.243 . S
C225 C227 1.382 1_455 S
C225 C229 1.393 1_455 S
C225 C232 1.500 . S
C226 C227 1.400 . S
C226 C228 1.384 . S
C227 C225 1.382 1_655 S
C227 C226 1.400 . S
C227 H244 0.930 . S
C228 C226 1.384 . S
C228 C230 1.392 . S
C228 H245 0.931 . S
C229 C225 1.393 1_655 S
C229 C230 1.401 . S
C229 H246 0.930 1_655 S
C230 C228 1.392 . S
C230 C229 1.401 . S
C230 H247 0.930 . S
C231 O214 1.262 . S
C231 O215 1.260 . S
C232 Tb168 2.833 . S
C232 O212 1.251 . S
C232 O217 1.256 . S
C232 C225 1.500 . S
C233 H198 0.929 . S
C233 C211 1.444 . S
C233 C234 1.317 . S
C234 H196 0.930 . S
C234 C202 1.432 . S
C234 C233 1.317 . S
C235 O219 1.283 . S
C235 O222 1.243 . S
C236 C237 1.382 . S
C236 C240 1.393 1_565 S
C236 C243 1.500 . S
C237 C236 1.382 . S
C237 C238 1.400 . S
C237 H248 0.930 . S
C238 C237 1.400 . S
C238 C239 1.384 . S
C239 C238 1.384 . S
C239 C241 1.392 1_565 S
C239 H249 0.931 . S
C240 C236 1.393 1_545 S
C240 C241 1.401 . S
C240 H250 0.930 . S
C241 C239 1.392 1_545 S
C241 C240 1.401 . S
C241 H251 0.930 . S
C242 O220 1.262 . S
C242 O221 1.260 . S
C243 Tb179 2.833 . S
C243 O218 1.251 . S
C243 O223 1.256 . S
C243 C236 1.500 . S
H244 C227 0.930 . S
H245 C228 0.931 . S
H246 C229 0.930 1_455 S
H247 C230 0.930 . S
H248 C237 0.930 . S
H249 C239 0.931 . S
H250 C240 0.930 . S
H251 C241 0.930 . S
Tb252 N283 2.660 . S
Tb252 N290 2.600 . S
Tb252 O296 2.546 . S
Tb252 O297 2.610 . S
Tb252 O299 2.320 . S
Tb252 O300 2.552 . S
Tb252 O301 2.413 . S
Tb252 O303 2.362 . S
Tb252 O304 2.421 . S
Tb252 C316 2.833 . S
C253 C256 1.432 . S
C253 C257 1.414 . S
C253 N260 1.359 1_455 S
C254 C256 1.417 . S
C254 C258 1.432 . S
C254 C266 1.410 . S
C255 C257 1.444 . S
C255 C258 1.317 . S
C255 H278 0.929 . S
C256 C253 1.432 . S
C256 C254 1.417 . S
C256 N264 1.360 . S
C257 C253 1.414 . S
C257 C255 1.444 . S
C257 C262 1.385 . S
C258 C254 1.432 . S
C258 C255 1.317 . S
C258 H270 0.930 . S
C259 C261 1.392 . S
C259 C262 1.370 1_655 S
C259 H271 0.931 . S
N260 C253 1.359 1_655 S
N260 C261 1.327 . S
N260 Tb263 2.600 . S
C261 C259 1.392 . S
C261 N260 1.327 . S
C261 H268 0.930 . S
C262 C257 1.385 . S
C262 C259 1.370 1_455 S
C262 H281 0.930 . S
Tb263 N260 2.600 . S
Tb263 N264 2.660 1_655 S
Tb263 O297 2.362 . S
Tb263 O298 2.421 . S
Tb263 O302 2.546 . S
Tb263 O303 2.610 . S
Tb263 O305 2.320 . S
Tb263 O306 2.552 . S
Tb263 O307 2.413 . S
Tb263 C327 2.833 . S
N264 C256 1.360 . S
N264 Tb263 2.660 1_455 S
N264 C265 1.305 . S
C265 N264 1.305 . S
C265 C267 1.407 . S
C265 H272 0.930 . S
C266 C254 1.410 . S
C266 C267 1.345 . S
C266 H274 0.930 . S
C267 C265 1.407 . S
C267 C266 1.345 . S
C267 H269 0.930 . S
H268 C261 0.930 . S
H269 C267 0.930 . S
H270 C258 0.930 . S
H271 C259 0.931 . S
H272 C265 0.930 . S
H273 C287 0.930 . S
H274 C266 0.930 . S
H275 C293 0.930 . S
H276 C284 0.930 . S
H277 C291 0.931 . S
H278 C255 0.929 . S
H279 C285 0.930 . S
H280 C318 0.930 . S
H281 C262 0.930 . S
H282 C317 0.929 . S
N283 Tb252 2.660 . S
N283 C284 1.305 . S
N283 C288 1.360 . S
C284 H276 0.930 . S
C284 N283 1.305 . S
C284 C287 1.407 . S
C285 H279 0.930 . S
C285 C286 1.410 . S
C285 C287 1.345 . S
C286 C285 1.410 . S
C286 C288 1.417 . S
C286 C318 1.432 . S
C287 H273 0.930 . S
C287 C284 1.407 . S
C287 C285 1.345 . S
C288 N283 1.360 . S
C288 C286 1.417 . S
C288 C292 1.432 . S
H289 C294 0.930 . S
N290 Tb252 2.600 . S
N290 C292 1.359 . S
N290 C293 1.327 1_545 S
C291 H277 0.931 . S
C291 C293 1.392 . S
C291 C294 1.370 . S
C292 C288 1.432 . S
C292 N290 1.359 . S
C292 C295 1.414 1_545 S
C293 H275 0.930 . S
C293 N290 1.327 1_565 S
C293 C291 1.392 . S
C294 H289 0.930 . S
C294 C291 1.370 . S
C294 C295 1.385 . S
C295 C292 1.414 1_565 S
C295 C294 1.385 . S
C295 C317 1.444 . S
O296 Tb252 2.546 . S
O296 C316 1.251 . S
O297 Tb252 2.610 . S
O297 Tb263 2.362 . S
O297 C308 1.283 . S
O298 Tb263 2.421 . S
O298 C315 1.262 . S
O299 Tb252 2.320 . S
O299 C315 1.260 . S
O300 Tb252 2.552 . S
O300 C308 1.243 . S
O301 Tb252 2.413 . S
O301 C316 1.256 . S
O302 Tb263 2.546 . S
O302 C327 1.251 . S
O303 Tb252 2.362 . S
O303 Tb263 2.610 . S
O303 C319 1.283 . S
O304 Tb252 2.421 . S
O304 C326 1.262 . S
O305 Tb263 2.320 . S
O305 C326 1.260 . S
O306 Tb263 2.552 . S
O306 C319 1.243 . S
O307 Tb263 2.413 . S
O307 C327 1.256 . S
C308 O297 1.283 . S
C308 O300 1.243 . S
C309 C311 1.382 . S
C309 C313 1.393 1_545 S
C309 C316 1.500 . S
C310 C311 1.400 . S
C310 C312 1.384 . S
C311 C309 1.382 . S
C311 C310 1.400 . S
C311 H328 0.930 . S
C312 C310 1.384 . S
C312 C314 1.392 1_545 S
C312 H329 0.931 . S
C313 C309 1.393 1_565 S
C313 C314 1.401 . S
C313 H330 0.930 . S
C314 C312 1.392 1_565 S
C314 C313 1.401 . S
C314 H331 0.930 . S
C315 O298 1.262 . S
C315 O299 1.260 . S
C316 Tb252 2.833 . S
C316 O296 1.251 . S
C316 O301 1.256 . S
C316 C309 1.500 . S
C317 H282 0.929 . S
C317 C295 1.444 . S
C317 C318 1.317 1_565 S
C318 H280 0.930 . S
C318 C286 1.432 . S
C318 C317 1.317 1_545 S
C319 O303 1.283 . S
C319 O306 1.243 . S
C320 C321 1.382 1_655 S
C320 C324 1.393 1_655 S
C320 C327 1.500 . S
C321 C320 1.382 1_455 S
C321 C322 1.400 . S
C321 H332 0.930 . S
C322 C321 1.400 . S
C322 C323 1.384 . S
C323 C322 1.384 . S
C323 C325 1.392 . S
C323 H333 0.931 . S
C324 C320 1.393 1_455 S
C324 C325 1.401 . S
C324 H334 0.930 1_455 S
C325 C323 1.392 . S
C325 C324 1.401 . S
C325 H335 0.930 . S
C326 O304 1.262 . S
C326 O305 1.260 . S
C327 Tb263 2.833 . S
C327 O302 1.251 . S
C327 O307 1.256 . S
C327 C320 1.500 . S
H328 C311 0.930 . S
H329 C312 0.931 . S
H330 C313 0.930 . S
H331 C314 0.930 . S
H332 C321 0.930 . S
H333 C323 0.931 . S
H334 C324 0.930 1_655 S
H335 C325 0.930 . S
C336 C337 1.387 . S
C336 H340 0.950 . S
C336 C345 1.390 . S
C337 C336 1.387 . S
C337 C339 1.387 1_554 S
H338 C345 0.950 . S
C339 C337 1.387 1_556 S
C339 C341 1.390 . S
C339 H343 0.950 . S
H340 C336 0.950 . S
C341 C339 1.390 . S
C341 C342 1.387 1_556 S
C341 H344 0.950 . S
C342 C341 1.387 1_554 S
C342 C345 1.387 . S
H343 C339 0.950 . S
H344 C341 0.950 . S
C345 C336 1.390 . S
C345 H338 0.950 . S
C345 C342 1.387 . S
C346 C347 1.387 . S
C346 H350 0.950 . S
C346 C355 1.390 . S
C347 C346 1.387 . S
C347 C349 1.387 . S
H348 C355 0.950 . S
C349 C347 1.387 . S
C349 C351 1.390 . S
C349 H353 0.950 . S
H350 C346 0.950 . S
C351 C349 1.390 . S
C351 C352 1.387 . S
C351 H354 0.950 . S
C352 C351 1.387 . S
C352 C355 1.387 . S
H353 C349 0.950 . S
H354 C351 0.950 . S
C355 C346 1.390 . S
C355 H348 0.950 . S
C355 C352 1.387 . S
C356 C357 1.387 1_656 S
C356 H360 0.950 . S
C356 C365 1.390 1_545 S
C357 C356 1.387 1_454 S
C357 C359 1.387 . S
H358 C365 0.950 . S
C359 C357 1.387 . S
C359 C361 1.390 1_545 S
C359 H363 0.950 . S
H360 C356 0.950 . S
C361 C359 1.390 1_565 S
C361 C362 1.387 1_455 S
C361 H364 0.950 . S
C362 C361 1.387 1_655 S
C362 C365 1.387 1_554 S
H363 C359 0.950 . S
H364 C361 0.950 . S
C365 C356 1.390 1_565 S
C365 H358 0.950 . S
C365 C362 1.387 1_556 S
C366 C367 1.387 1_565 S
C366 H370 0.950 . S
C366 C375 1.390 1_655 S
C367 C366 1.387 1_545 S
C367 C369 1.387 . S
H368 C375 0.950 . S
C369 C367 1.387 . S
C369 C371 1.390 1_655 S
C369 H373 0.950 . S
H370 C366 0.950 . S
C371 C369 1.390 1_455 S
C371 C372 1.387 1_545 S
C371 H374 0.950 . S
C372 C371 1.387 1_565 S
C372 C375 1.387 . S
H373 C369 0.950 . S
H374 C371 0.950 . S
C375 C366 1.390 1_455 S
C375 H368 0.950 . S
C375 C372 1.387 . S
C376 C377 1.387 . S
C376 H380 0.950 . S
C376 C385 1.390 . S
C377 C376 1.387 . S
C377 C379 1.387 . S
H378 C385 0.950 . S
C379 C377 1.387 . S
C379 C381 1.390 . S
C379 H383 0.950 . S
H380 C376 0.950 . S
C381 C379 1.390 . S
C381 C382 1.387 . S
C381 H384 0.950 . S
C382 C381 1.387 . S
C382 C385 1.387 . S
H383 C379 0.950 . S
H384 C381 0.950 . S
C385 C376 1.390 . S
C385 H378 0.950 . S
C385 C382 1.387 . S
C386 C387 1.387 . S
C386 H390 0.950 . S
C386 C395 1.390 . S
C387 C386 1.387 . S
C387 C389 1.387 . S
H388 C395 0.950 . S
C389 C387 1.387 . S
C389 C391 1.390 . S
C389 H393 0.950 . S
H390 C386 0.950 . S
C391 C389 1.390 . S
C391 C392 1.387 . S
C391 H394 0.950 . S
C392 C391 1.387 . S
C392 C395 1.387 . S
H393 C389 0.950 . S
H394 C391 0.950 . S
C395 C386 1.390 . S
C395 H388 0.950 . S
C395 C392 1.387 . S
C396 C397 1.387 . S
C396 H400 0.950 . S
C396 C405 1.390 . S
C397 C396 1.387 . S
C397 C399 1.387 . S
H398 C405 0.950 . S
C399 C397 1.387 . S
C399 C401 1.390 . S
C399 H403 0.950 . S
H400 C396 0.950 . S
C401 C399 1.390 . S
C401 C402 1.387 . S
C401 H404 0.950 . S
C402 C401 1.387 . S
C402 C405 1.387 . S
H403 C399 0.950 . S
H404 C401 0.950 . S
C405 C396 1.390 . S
C405 H398 0.950 . S
C405 C402 1.387 . S
C406 C407 1.387 . S
C406 H410 0.950 . S
C406 C415 1.390 . S
C407 C406 1.387 . S
C407 C409 1.387 . S
H408 C415 0.950 . S
C409 C407 1.387 . S
C409 C411 1.390 . S
C409 H413 0.950 . S
H410 C406 0.950 . S
C411 C409 1.390 . S
C411 C412 1.387 . S
C411 H414 0.950 . S
C412 C411 1.387 . S
C412 C415 1.387 . S
H413 C409 0.950 . S
H414 C411 0.950 . S
C415 C406 1.390 . S
C415 H408 0.950 . S
C415 C412 1.387 . S
C416 C417 1.387 . S
C416 H420 0.950 . S
C416 C425 1.390 . S
C417 C416 1.387 . S
C417 C419 1.387 . S
H418 C425 0.950 . S
C419 C417 1.387 . S
C419 C421 1.390 . S
C419 H423 0.950 . S
H420 C416 0.950 . S
C421 C419 1.390 . S
C421 C422 1.387 . S
C421 H424 0.950 . S
C422 C421 1.387 . S
C422 C425 1.387 . S
H423 C419 0.950 . S
H424 C421 0.950 . S
C425 C416 1.390 . S
C425 H418 0.950 . S
C425 C422 1.387 . S
C426 C427 1.387 . S
C426 H430 0.950 . S
C426 C435 1.390 . S
C427 C426 1.387 . S
C427 C429 1.387 . S
H428 C435 0.950 . S
C429 C427 1.387 . S
C429 C431 1.390 . S
C429 H433 0.950 . S
H430 C426 0.950 . S
C431 C429 1.390 . S
C431 C432 1.387 . S
C431 H434 0.950 1_655 S
C432 C431 1.387 . S
C432 C435 1.387 . S
H433 C429 0.950 . S
H434 C431 0.950 1_455 S
C435 C426 1.390 . S
C435 H428 0.950 . S
C435 C432 1.387 . S
C436 C437 1.387 . S
C436 H440 0.950 . S
C436 C445 1.390 . S
C437 C436 1.387 . S
C437 C439 1.387 . S
H438 C445 0.950 . S
C439 C437 1.387 . S
C439 C441 1.390 . S
C439 H443 0.950 . S
H440 C436 0.950 . S
C441 C439 1.390 . S
C441 C442 1.387 . S
C441 H444 0.950 . S
C442 C441 1.387 . S
C442 C445 1.387 . S
H443 C439 0.950 . S
H444 C441 0.950 . S
C445 C436 1.390 . S
C445 H438 0.950 . S
C445 C442 1.387 . S
C446 C447 1.387 . S
C446 H450 0.950 . S
C446 C455 1.390 . S
C447 C446 1.387 . S
C447 C449 1.387 . S
H448 C455 0.950 1_655 S
C449 C447 1.387 . S
C449 C451 1.390 . S
C449 H453 0.950 . S
H450 C446 0.950 . S
C451 C449 1.390 . S
C451 C452 1.387 . S
C451 H454 0.950 . S
C452 C451 1.387 . S
C452 C455 1.387 . S
H453 C449 0.950 . S
H454 C451 0.950 . S
C455 C446 1.390 . S
C455 H448 0.950 1_455 S
C455 C452 1.387 . S
C337 C147 1.516 1_554 S
C342 C74 1.524 . S
C347 C242 1.525 . S
C352 C315 1.525 . S
C357 C63 1.515 1_554 S
C362 C158 1.523 . S
C367 C326 1.525 . S
C372 C231 1.525 . S
C377 C310 1.402 . S
C382 C56 1.354 . S
C387 C142 1.400 . S
C392 C224 1.351 . S
C397 C151 1.353 . S
C402 C238 1.403 . S
C407 C319 1.350 . S
C412 C70 1.400 . S
C417 C140 1.350 . S
C422 C226 1.401 . S
C427 C308 1.350 . S
C432 C58 1.400 . S
C437 C322 1.400 . S
C442 C67 1.353 . S
C447 C235 1.352 . S
C452 C154 1.400 . S
