# Generated by pormake.
# Topology wld, (5)-cn, num edge types: 1
# Building blocks:
#     Node 0, Type 0, BuildingBlock: XOMCOT_clean_sbu_1, # of connection points: 5
#     Node 1, Type 0, BuildingBlock: XOMCOT_clean_sbu_1, # of connection points: 5
#     Node 2, Type 0, BuildingBlock: XOMCOT_clean_sbu_1, # of connection points: 5
#     Node 3, Type 0, BuildingBlock: XOMCOT_clean_sbu_1, # of connection points: 5
#     Node 4, Type 0, BuildingBlock: XOMCOT_clean_sbu_1, # of connection points: 5
#     Node 5, Type 0, BuildingBlock: XOMCOT_clean_sbu_1, # of connection points: 5
#     Node 6, Type 0, BuildingBlock: XOMCOT_clean_sbu_1, # of connection points: 5
#     Node 7, Type 0, BuildingBlock: XOMCOT_clean_sbu_1, # of connection points: 5
#     Node 8, Type 0, BuildingBlock: XOMCOT_clean_sbu_1, # of connection points: 5
#     Node 9, Type 0, BuildingBlock: XOMCOT_clean_sbu_1, # of connection points: 5
#     Node 10, Type 0, BuildingBlock: XOMCOT_clean_sbu_1, # of connection points: 5
#     Node 11, Type 0, BuildingBlock: XOMCOT_clean_sbu_1, # of connection points: 5
#     Edge 12, Type (0, 0), BuildingBlock: KIFKEQ_clean_linker_1, # of connection points: 2
#     Edge 13, Type (0, 0), BuildingBlock: KIFKEQ_clean_linker_1, # of connection points: 2
#     Edge 14, Type (0, 0), BuildingBlock: KIFKEQ_clean_linker_1, # of connection points: 2
#     Edge 15, Type (0, 0), BuildingBlock: KIFKEQ_clean_linker_1, # of connection points: 2
#     Edge 16, Type (0, 0), BuildingBlock: KIFKEQ_clean_linker_1, # of connection points: 2
#     Edge 17, Type (0, 0), BuildingBlock: KIFKEQ_clean_linker_1, # of connection points: 2
#     Edge 18, Type (0, 0), BuildingBlock: KIFKEQ_clean_linker_1, # of connection points: 2
#     Edge 19, Type (0, 0), BuildingBlock: KIFKEQ_clean_linker_1, # of connection points: 2
#     Edge 20, Type (0, 0), BuildingBlock: KIFKEQ_clean_linker_1, # of connection points: 2
#     Edge 21, Type (0, 0), BuildingBlock: KIFKEQ_clean_linker_1, # of connection points: 2
#     Edge 22, Type (0, 0), BuildingBlock: KIFKEQ_clean_linker_1, # of connection points: 2
#     Edge 23, Type (0, 0), BuildingBlock: KIFKEQ_clean_linker_1, # of connection points: 2
#     Edge 24, Type (0, 0), BuildingBlock: KIFKEQ_clean_linker_1, # of connection points: 2
#     Edge 25, Type (0, 0), BuildingBlock: KIFKEQ_clean_linker_1, # of connection points: 2
#     Edge 26, Type (0, 0), BuildingBlock: KIFKEQ_clean_linker_1, # of connection points: 2
#     Edge 27, Type (0, 0), BuildingBlock: KIFKEQ_clean_linker_1, # of connection points: 2
#     Edge 28, Type (0, 0), BuildingBlock: KIFKEQ_clean_linker_1, # of connection points: 2
#     Edge 29, Type (0, 0), BuildingBlock: KIFKEQ_clean_linker_1, # of connection points: 2
#     Edge 30, Type (0, 0), BuildingBlock: KIFKEQ_clean_linker_1, # of connection points: 2
#     Edge 31, Type (0, 0), BuildingBlock: KIFKEQ_clean_linker_1, # of connection points: 2
#     Edge 32, Type (0, 0), BuildingBlock: KIFKEQ_clean_linker_1, # of connection points: 2
#     Edge 33, Type (0, 0), BuildingBlock: KIFKEQ_clean_linker_1, # of connection points: 2
#     Edge 34, Type (0, 0), BuildingBlock: KIFKEQ_clean_linker_1, # of connection points: 2
#     Edge 35, Type (0, 0), BuildingBlock: KIFKEQ_clean_linker_1, # of connection points: 2
#     Edge 36, Type (0, 0), BuildingBlock: KIFKEQ_clean_linker_1, # of connection points: 2
#     Edge 37, Type (0, 0), BuildingBlock: KIFKEQ_clean_linker_1, # of connection points: 2
#     Edge 38, Type (0, 0), BuildingBlock: KIFKEQ_clean_linker_1, # of connection points: 2
#     Edge 39, Type (0, 0), BuildingBlock: KIFKEQ_clean_linker_1, # of connection points: 2
#     Edge 40, Type (0, 0), BuildingBlock: KIFKEQ_clean_linker_1, # of connection points: 2
#     Edge 41, Type (0, 0), BuildingBlock: KIFKEQ_clean_linker_1, # of connection points: 2
# Relax obj value: 0.226
# Max RMSD: 0.209
# Mean RMSD: 0.209
data_MOF--net-wld--node1-XOMCOT_clean_sbu_1--edge1-KIFKEQ_clean_linker_1
_symmetry_space_group_name_H-M    P1
_symmetry_Int_Tables_number       1
_symmetry_cell_setting            triclinic
loop_
_symmetry_equiv_pos_as_xyz
'x, y, z'
_cell_length_a     37.632576
_cell_length_b     37.618726
_cell_length_c     53.537424
_cell_angle_alpha  90.058937
_cell_angle_beta   89.976137
_cell_angle_gamma 119.99253
loop_
_atom_site_label
_atom_site_type_symbol
_atom_site_fract_x
_atom_site_fract_y
_atom_site_fract_z
_atom_type_partial_charge
C0 C 0.40132 0.22353 0.11089 0.0
C1 C 0.42172 0.20163 0.11185 0.0
N2 N 0.45491 0.22042 0.09693 0.0
N3 N 0.42163 0.25574 0.09539 0.0
C4 C 0.45403 0.25296 0.08717 0.0
H5 H 0.37287 0.21581 0.12025 0.0
Co6 Co 0.40511 0.29189 0.08435 0.0
C7 C 0.48042 0.35467 0.05915 0.0
O8 O 0.45999 0.35269 0.0388 0.0
N9 N 0.38818 0.32812 0.07331 0.0
C10 C 0.38352 0.38413 0.06752 0.0
C11 C 0.40673 0.36888 0.07767 0.0
C12 C 0.35345 0.31915 0.0609 0.0
N13 N 0.34993 0.35277 0.05703 0.0
O14 O 0.39936 0.26953 0.05168 0.0
H15 H 0.43504 0.38635 0.08796 0.0
H16 H 0.33114 0.28854 0.05483 0.0
O17 O 0.46165 0.33234 0.07791 0.0
C18 C 0.36664 0.23493 0.04949 0.0
O19 O 0.3396 0.22269 0.06769 0.0
N20 N 0.40838 0.31089 0.11677 0.0
C21 C 0.40331 0.33097 0.16608 0.0
C22 C 0.44163 0.34534 0.15469 0.0
C23 C 0.44357 0.33448 0.12998 0.0
C24 C 0.37095 0.29679 0.12753 0.0
C25 C 0.36766 0.30641 0.15223 0.0
H26 H 0.47331 0.34456 0.12177 0.0
H27 H 0.34349 0.2776 0.11683 0.0
H28 H 0.47553 0.27319 0.0733 0.0
H29 H 0.41268 0.17392 0.12245 0.0
H30 H 0.39034 0.41568 0.06837 0.0
H31 H 0.46978 0.3639 0.16498 0.0
H32 H 0.33753 0.29491 0.16039 0.0
C33 C 0.79461 0.18218 0.10636 0.0
C34 C 0.81669 0.2245 0.10727 0.0
N35 N 0.79662 0.23902 0.09362 0.0
N36 N 0.76096 0.17033 0.09215 0.0
C37 C 0.76311 0.2056 0.08466 0.0
H38 H 0.8032 0.16141 0.11474 0.0
Co39 Co 0.72405 0.11773 0.08121 0.0
C40 C 0.65926 0.13046 0.0594 0.0
O41 O 0.65939 0.11232 0.03844 0.0
N42 N 0.6871 0.06466 0.07014 0.0
C43 C 0.63103 0.00378 0.06491 0.0
C44 C 0.64661 0.0422 0.07526 0.0
C45 C 0.69556 0.03905 0.05709 0.0
N46 N 0.66195 1.00182 0.05356 0.0
O47 O 0.7433 0.13516 0.04812 0.0
H48 H 0.62962 0.05279 0.08628 0.0
H49 H 0.72584 0.04742 0.05038 0.0
O50 O 0.68309 0.13366 0.07721 0.0
C51 C 0.77635 0.13518 0.0431 0.0
O52 O 0.79029 0.11886 0.0593 0.0
N53 N 0.70762 0.10104 0.11395 0.0
C54 C 0.68483 0.06888 0.16192 0.0
C55 C 0.67321 0.09644 0.15251 0.0
C56 C 0.68527 0.11254 0.1285 0.0
C57 C 0.72031 0.07545 0.12299 0.0
C58 C 0.70927 0.05899 0.14692 0.0
H59 H 0.67635 0.13396 0.1217 0.0
H60 H 0.73883 0.06749 0.11136 0.0
H61 H 0.74173 0.20691 0.07171 0.0
H62 H 0.84549 0.24312 0.1169 0.0
H63 H 0.59965 0.97887 0.06624 0.0
H64 H 0.65437 0.105 0.16337 0.0
H65 H 0.72 0.03883 0.15359 0.0
C66 C 0.83458 0.62096 0.09593 0.0
C67 C 0.79232 0.60095 0.09726 0.0
N68 N 0.7773 0.56519 0.08475 0.0
N69 N 0.84589 0.59783 0.08261 0.0
C70 C 0.81038 0.56417 0.07602 0.0
H71 H 0.85569 0.65087 0.10356 0.0
Co72 Co 0.89829 0.61202 0.07206 0.0
C73 C 0.88481 0.53254 0.05307 0.0
O74 O 0.90222 0.54928 0.03168 0.0
N75 N 0.95123 0.62672 0.06125 0.0
C76 C 0.01273 0.63233 0.05779 0.0
C77 C 0.9738 0.60922 0.06742 0.0
C78 C 0.97712 0.66047 0.0481 0.0
N79 N 0.01479 0.66468 0.04567 0.0
O80 O 0.88079 0.61162 0.03862 0.0
H81 H 0.96308 0.58213 0.07892 0.0
H82 H 0.96911 0.68266 0.04147 0.0
O83 O 0.88195 0.55449 0.07021 0.0
C84 C 0.8815 0.6449 0.03312 0.0
O85 O 0.89842 0.67561 0.04902 0.0
N86 N 0.91488 0.6147 0.10511 0.0
C87 C 0.94175 0.62617 0.15454 0.0
C88 C 0.90959 0.58801 0.14642 0.0
C89 C 0.89657 0.58288 0.12158 0.0
C90 C 0.94539 0.65218 0.11272 0.0
C91 C 0.95978 0.65841 0.1372 0.0
H92 H 0.87117 0.55368 0.11575 0.0
H93 H 0.95876 0.67742 0.09963 0.0
H94 H 0.80867 0.54018 0.06404 0.0
H95 H 0.7741 0.61195 0.10656 0.0
H96 H 0.03763 0.626 0.05985 0.0
H97 H 0.89395 0.56252 0.15922 0.0
H98 H 0.98498 0.68827 0.14236 0.0
C99 C 0.23276 0.38418 0.3871 0.0
C100 C 0.20808 0.4005 0.38154 0.0
N101 N 0.22229 0.43609 0.39415 0.0
N102 N 0.26228 0.40945 0.4031 0.0
C103 C 0.25502 0.44067 0.40711 0.0
H104 H 0.22899 0.35539 0.38035 0.0
Co105 Co 0.30098 0.40026 0.41842 0.0
C106 C 0.35417 0.48227 0.4403 0.0
O107 O 0.34954 0.46688 0.46287 0.0
N108 N 0.33967 0.39038 0.43361 0.0
C109 C 0.39795 0.39184 0.44278 0.0
C110 C 0.38095 0.41386 0.43321 0.0
C111 C 0.33233 0.35418 0.44319 0.0
N112 N 0.3673 0.35411 0.44889 0.0
O113 O 0.2761 0.39851 0.44971 0.0
H114 H 0.39785 0.44417 0.42511 0.0
H115 H 0.30198 0.32751 0.44427 0.0
O116 O 0.33679 0.45867 0.42173 0.0
C117 C 0.24388 0.3649 0.45506 0.0
O118 O 0.2334 0.33283 0.44067 0.0
N119 N 0.32316 0.39987 0.38741 0.0
C120 C 0.35044 0.38992 0.34095 0.0
C121 C 0.36009 0.42906 0.34947 0.0
C122 C 0.34581 0.43338 0.37269 0.0
C123 C 0.31335 0.36166 0.3795 0.0
C124 C 0.32664 0.35594 0.35633 0.0
H125 H 0.35271 0.46361 0.37851 0.0
H126 H 0.29459 0.3354 0.3912 0.0
H127 H 0.27236 0.46549 0.42009 0.0
H128 H 0.18168 0.38715 0.36927 0.0
H129 H 0.4304 0.40246 0.4443 0.0
H130 H 0.37852 0.4562 0.33832 0.0
H131 H 0.31751 0.32503 0.35035 0.0
C132 C 0.60149 0.8367 0.38593 0.0
C133 C 0.58234 0.79445 0.38464 0.0
N134 N 0.55166 0.77865 0.40154 0.0
N135 N 0.58255 0.84723 0.40336 0.0
C136 C 0.55244 0.81132 0.41246 0.0
H137 H 0.6282 0.85826 0.37544 0.0
Co138 Co 0.59688 0.89859 0.41586 0.0
C139 C 0.51685 0.88061 0.43674 0.0
O140 O 0.53329 0.89504 0.45872 0.0
N141 N 0.61165 0.95032 0.42844 0.0
C142 C 0.6161 0.01061 0.43559 0.0
C143 C 0.59241 0.97217 0.42541 0.0
C144 C 0.64717 0.97623 0.44005 0.0
N145 N 0.65067 0.01315 0.44467 0.0
O146 O 0.59689 0.87839 0.44856 0.0
H147 H 0.5637 0.96145 0.4156 0.0
H148 H 0.6704 0.96841 0.44462 0.0
O149 O 0.53926 0.88129 0.41869 0.0
C150 C 0.62933 0.8772 0.45358 0.0
O151 O 0.66052 0.89502 0.4381 0.0
N152 N 0.59938 0.91813 0.38364 0.0
C153 C 0.61364 0.9496 0.33539 0.0
C154 C 0.57342 0.9251 0.34418 0.0
C155 C 0.56686 0.90919 0.36839 0.0
C156 C 0.63858 0.94207 0.37545 0.0
C157 C 0.64646 0.95808 0.35134 0.0
H158 H 0.53574 0.88933 0.37457 0.0
H159 H 0.66388 0.94833 0.38773 0.0
H160 H 0.53194 0.80929 0.42726 0.0
H161 H 0.5913 0.77685 0.37287 0.0
H162 H 0.60917 0.03529 0.43543 0.0
H163 H 0.54734 0.91748 0.33222 0.0
H164 H 0.67794 0.97705 0.34527 0.0
C165 C 0.15872 0.77245 0.39421 0.0
C166 C 0.20075 0.79737 0.39334 0.0
N167 N 0.21801 0.77583 0.40193 0.0
N168 N 0.14971 0.73548 0.40326 0.0
C169 C 0.18639 0.7384 0.40769 0.0
H170 H 0.13618 0.78139 0.38994 0.0
Co171 Co 0.09881 0.6951 0.41456 0.0
C172 C 0.09898 0.61956 0.39874 0.0
O173 O 0.06356 0.60665 0.38748 0.0
N174 N 0.04729 0.65556 0.42768 0.0
C175 C 0.99491 0.60184 0.4463 0.0
C176 C 0.03356 0.61707 0.43638 0.0
C177 C 0.01735 0.66372 0.43419 0.0
N178 N 0.98486 0.63137 0.44489 0.0
O179 O 0.12081 0.70677 0.4474 0.0
H180 H 0.05098 0.60142 0.437 0.0
H181 H 0.01963 0.6933 0.43159 0.0
O182 O 0.11567 0.65361 0.4107 0.0
C183 C 0.11797 0.73505 0.45863 0.0
O184 O 0.09354 0.74721 0.44931 0.0
N185 N 0.0783 0.68638 0.38124 0.0
C186 C 0.04921 0.67536 0.33205 0.0
C187 C 0.08671 0.67757 0.33751 0.0
C188 C 0.10084 0.68346 0.36209 0.0
C189 C 0.04335 0.68737 0.37594 0.0
C190 C 0.02774 0.68087 0.35169 0.0
H191 H 0.12995 0.68528 0.36575 0.0
H192 H 0.0274 0.69386 0.39022 0.0
H193 H 0.18985 0.71472 0.41692 0.0
H194 H 0.21728 0.82926 0.3877 0.0
H195 H 0.97655 0.5722 0.45509 0.0
H196 H 0.10537 0.67524 0.32291 0.0
H197 H 0.99894 0.68005 0.34852 0.0
C198 C 0.6168 0.79018 0.87738 0.0
C199 C 0.59627 0.8115 0.87391 0.0
N200 N 0.56303 0.79526 0.88896 0.0
N201 N 0.59651 0.7605 0.89441 0.0
C202 C 0.56411 0.76447 0.90124 0.0
H203 H 0.64502 0.79626 0.86837 0.0
Co204 Co 0.61201 0.72434 0.90693 0.0
C205 C 0.53492 0.66341 0.93088 0.0
O206 O 0.55362 0.66751 0.9523 0.0
N207 N 0.62774 0.68796 0.91935 0.0
C208 C 0.63226 0.63185 0.92497 0.0
C209 C 0.60868 0.64706 0.9154 0.0
C210 C 0.66295 0.69697 0.93117 0.0
N211 N 0.6665 0.66331 0.93482 0.0
O212 O 0.61521 0.7467 0.93937 0.0
H213 H 0.58007 0.62954 0.90541 0.0
H214 H 0.68636 0.72787 0.93598 0.0
O215 O 0.55516 0.68417 0.91198 0.0
C216 C 0.64807 0.78063 0.94307 0.0
O217 O 0.67698 0.79375 0.92598 0.0
N218 N 0.61123 0.70494 0.87478 0.0
C219 C 0.6193 0.68024 0.82703 0.0
C220 C 0.58041 0.66901 0.83677 0.0
C221 C 0.57703 0.68203 0.86064 0.0
C222 C 0.64923 0.71679 0.86554 0.0
C223 C 0.65401 0.70482 0.84172 0.0
H224 H 0.54696 0.67374 0.86758 0.0
H225 H 0.67601 0.73577 0.87682 0.0
H226 H 0.54184 0.74516 0.91505 0.0
H227 H 0.6058 0.83761 0.86169 0.0
H228 H 0.6249 0.60013 0.92447 0.0
H229 H 0.55274 0.65002 0.82617 0.0
H230 H 0.68471 0.71524 0.83482 0.0
C231 C 0.21551 0.82714 0.88817 0.0
C232 C 0.19523 0.78504 0.89005 0.0
N233 N 0.21925 0.77433 0.90287 0.0
N234 N 0.25213 0.84281 0.8997 0.0
C235 C 0.25357 0.80992 0.90849 0.0
H236 H 0.20378 0.84533 0.87973 0.0
Co237 Co 0.28711 0.89813 0.90589 0.0
C238 C 0.37095 0.90736 0.90087 0.0
O239 O 0.38392 0.94114 0.88798 0.0
N240 N 0.32186 0.95589 0.9126 0.0
C241 C 0.36167 0.02365 0.90754 0.0
C242 C 0.34675 0.98603 0.89657 0.0
C243 C 0.32204 0.97699 0.93326 0.0
N244 N 0.34573 0.0182 0.93059 0.0
O245 O 0.27572 0.88633 0.94052 0.0
H246 H 0.3529 0.9818 0.87743 0.0
H247 H 0.30342 0.96272 0.94954 0.0
O248 O 0.33385 0.88797 0.90869 0.0
C249 C 0.24239 0.88507 0.94661 0.0
O250 O 0.22621 0.89977 0.93083 0.0
N251 N 0.29377 0.90721 0.8715 0.0
C252 C 0.29935 0.92433 0.82056 0.0
C253 C 0.31201 0.89766 0.83018 0.0
C254 C 0.30863 0.8892 0.85574 0.0
C255 C 0.27742 0.92959 0.86222 0.0
C256 C 0.28104 0.93964 0.83698 0.0
H257 H 0.31762 0.86795 0.86279 0.0
H258 H 0.26322 0.94137 0.8748 0.0
H259 H 0.2782 0.81208 0.91999 0.0
H260 H 0.16495 0.76398 0.88286 0.0
H261 H 0.38186 0.05279 0.89873 0.0
H262 H 0.32431 0.88329 0.81815 0.0
H263 H 0.2706 0.96021 0.8307 0.0
C264 C 0.18281 0.40105 0.88382 0.0
C265 C 0.22501 0.42082 0.88228 0.0
N266 N 0.24066 0.45039 0.89991 0.0
N267 N 0.17214 0.41852 0.90213 0.0
C268 C 0.20794 0.44825 0.91161 0.0
H269 H 0.16134 0.37529 0.87259 0.0
Co270 Co 0.12038 0.40375 0.914 0.0
C271 C 0.13651 0.48116 0.93772 0.0
O272 O 0.11943 0.46202 0.95865 0.0
N273 N 0.06825 0.38864 0.92586 0.0
C274 C 0.0074 0.38367 0.93128 0.0
C275 C 0.04605 0.40716 0.9214 0.0
C276 C 0.04252 0.35397 0.93827 0.0
N277 N 0.00524 0.35017 0.94185 0.0
O278 O 0.13841 0.40005 0.94674 0.0
H279 H 0.05689 0.43537 0.91103 0.0
H280 H 0.05044 0.33111 0.94366 0.0
O281 O 0.13805 0.46107 0.91899 0.0
C282 C 0.13945 0.36712 0.95026 0.0
O283 O 0.12394 0.3385 0.93295 0.0
N284 N 0.10284 0.40483 0.88167 0.0
C285 C 0.07329 0.39572 0.83313 0.0
C286 C 0.09836 0.43496 0.84321 0.0
C287 C 0.11333 0.43892 0.86757 0.0
C288 C 0.07843 0.36657 0.87218 0.0
C289 C 0.06335 0.36127 0.84791 0.0
H290 H 0.1336 0.46928 0.87481 0.0
H291 H 0.07092 0.34 0.88358 0.0
H292 H 0.20989 0.46795 0.92691 0.0
H293 H 0.24272 0.41342 0.86954 0.0
H294 H 0.98277 0.39063 0.93059 0.0
H295 H 0.10705 0.46223 0.83219 0.0
H296 H 0.04387 0.33048 0.84081 0.0
C297 C 0.76834 0.60555 0.59593 0.0
C298 C 0.79218 0.58735 0.59793 0.0
N299 N 0.77249 0.55064 0.58636 0.0
N300 N 0.73395 0.58039 0.58313 0.0
C301 C 0.73733 0.54719 0.57759 0.0
H302 H 0.77634 0.63591 0.60239 0.0
Co303 Co 0.69588 0.59354 0.57111 0.0
C304 C 0.63283 0.514 0.55089 0.0
O305 O 0.63417 0.53116 0.52929 0.0
N306 N 0.65808 0.60769 0.55906 0.0
C307 C 0.60223 0.61304 0.55444 0.0
C308 C 0.61753 0.58943 0.564 0.0
C309 C 0.66676 0.64237 0.54672 0.0
N310 N 0.63333 0.64644 0.54362 0.0
O311 O 0.71463 0.59232 0.53825 0.0
H312 H 0.60045 0.5616 0.57477 0.0
H313 H 0.69745 0.66538 0.54134 0.0
O314 O 0.65553 0.53578 0.56885 0.0
C315 C 0.74715 0.62456 0.53144 0.0
O316 O 0.7614 0.65761 0.54543 0.0
N317 N 0.68019 0.59674 0.6036 0.0
C318 C 0.66427 0.61121 0.65215 0.0
C319 C 0.64897 0.57096 0.64349 0.0
C320 C 0.6577 0.56431 0.61914 0.0
C321 C 0.6952 0.636 0.61169 0.0
C322 C 0.68768 0.64398 0.63595 0.0
H323 H 0.64682 0.53318 0.61308 0.0
H324 H 0.71345 0.66124 0.59919 0.0
H325 H 0.71575 0.52211 0.56595 0.0
H326 H 0.82202 0.60044 0.60671 0.0
H327 H 0.57082 0.60645 0.55578 0.0
H328 H 0.63131 0.54493 0.65564 0.0
H329 H 0.6999 0.67548 0.64195 0.0
C330 C 0.37943 0.15407 0.58581 0.0
C331 C 0.39627 0.19598 0.58794 0.0
N332 N 0.43542 0.21409 0.5799 0.0
N333 N 0.40795 0.14601 0.57652 0.0
C334 C 0.44167 0.18311 0.57314 0.0
H335 H 0.34791 0.13104 0.58953 0.0
Co336 Co 0.39914 0.09614 0.56432 0.0
C337 C 0.47409 0.09635 0.58135 0.0
O338 O 0.45084 0.05982 0.59117 0.0
N339 N 0.38926 0.04574 0.55027 0.0
C340 C 0.39384 0.99551 0.531 0.0
C341 C 0.41557 0.03426 0.54111 0.0
C342 C 0.35191 0.01453 0.54367 0.0
N343 N 0.35371 0.98317 0.53271 0.0
O344 O 0.41069 0.11984 0.53197 0.0
H345 H 0.44853 0.05322 0.54055 0.0
H346 H 0.32372 0.01508 0.54633 0.0
O347 O 0.45756 0.11389 0.56944 0.0
C348 C 0.379 0.1164 0.52118 0.0
O349 O 0.34283 0.09077 0.53063 0.0
N350 N 0.38553 0.07372 0.59713 0.0
C351 C 0.36408 0.04144 0.64549 0.0
C352 C 0.39963 0.07939 0.64125 0.0
C353 C 0.4096 0.09507 0.61705 0.0
C354 C 0.34916 0.03864 0.60131 0.0
C355 C 0.33849 0.02134 0.62506 0.0
H356 H 0.437 0.12448 0.61432 0.0
H357 H 0.32745 0.02397 0.58654 0.0
H358 H 0.46931 0.18745 0.56413 0.0
H359 H 0.38058 0.2119 0.59416 0.0
H360 H 0.4066 0.9785 0.52213 0.0
H361 H 0.41952 0.09722 0.65647 0.0
H362 H 0.31035 0.99231 0.62718 0.0
C363 C 0.84003 0.22882 0.61112 0.0
C364 C 0.79839 0.20498 0.6149 0.0
N365 N 0.77938 0.22013 0.60079 0.0
N366 N 0.84709 0.2588 0.59473 0.0
C367 C 0.80961 0.25272 0.58876 0.0
H368 H 0.86358 0.22392 0.61919 0.0
Co369 Co 0.89707 0.29582 0.58068 0.0
C370 C 0.8776 0.35545 0.55835 0.0
O371 O 0.89293 0.35294 0.5368 0.0
N372 N 0.94764 0.33265 0.56669 0.0
C373 C 0.00797 0.38835 0.55959 0.0
C374 C 0.96986 0.37363 0.57019 0.0
C375 C 0.97284 0.32312 0.5541 0.0
N376 N 0.00983 0.35647 0.54954 0.0
O377 O 0.87527 0.27287 0.54873 0.0
H378 H 0.95964 0.39146 0.58068 0.0
H379 H 0.96501 0.29202 0.54957 0.0
O380 O 0.87819 0.33472 0.57698 0.0
C381 C 0.87395 0.23895 0.54445 0.0
O382 O 0.89162 0.22618 0.56046 0.0
N383 N 0.91822 0.31577 0.61227 0.0
C384 C 0.95193 0.33723 0.65987 0.0
C385 C 0.92528 0.3504 0.65114 0.0
C386 C 0.90827 0.33891 0.62725 0.0
C387 C 0.94427 0.30302 0.62039 0.0
C388 C 0.96148 0.31337 0.64416 0.0
H389 H 0.88667 0.34804 0.62114 0.0
H390 H 0.95126 0.28422 0.60834 0.0
H391 H 0.80443 0.27057 0.5749 0.0
H392 H 0.78326 0.17826 0.62684 0.0
H393 H 0.03262 0.41996 0.55969 0.0
H394 H 0.91679 0.3684 0.66292 0.0
H395 H 0.9821 0.30279 0.65019 0.0
H396 H 0.66564 0.18786 0.09278 0.0
H397 H 0.5866 0.10607 0.03515 0.0
H398 H 0.61586 0.20988 0.10121 0.0
H399 H 0.53644 0.12798 0.04385 0.0
H400 H 0.44033 0.14259 0.09259 0.0
H401 H 0.49035 0.12128 0.08202 0.0
H402 H 0.58569 0.24839 0.07774 0.0
H403 H 0.53573 0.26958 0.08823 0.0
C404 C 0.63766 0.17467 0.08187 0.0
C405 C 0.62994 0.14519 0.06332 0.0
C406 C 0.60928 0.18742 0.08664 0.0
C407 C 0.57232 0.17052 0.07324 0.0
C408 C 0.56463 0.14123 0.05456 0.0
C409 C 0.5934 0.12895 0.04948 0.0
C410 C 0.47202 0.16585 0.08952 0.0
C411 C 0.48426 0.20769 0.09128 0.0
C412 C 0.50048 0.15372 0.08324 0.0
C413 C 0.54179 0.18323 0.07903 0.0
C414 C 0.55405 0.22504 0.08098 0.0
C415 C 0.5255 0.23714 0.08686 0.0
H416 H 0.74744 0.27143 0.08742 0.0
H417 H 0.87421 0.30178 0.08709 0.0
H418 H 0.76833 0.34251 0.07688 0.0
H419 H 0.8952 0.37297 0.07649 0.0
H420 H 0.90738 0.48253 0.02915 0.0
H421 H 0.88604 0.41106 0.03908 0.0
H422 H 0.80899 0.41248 0.09836 0.0
H423 H 0.83044 0.48384 0.08865 0.0
C424 C 0.77976 0.29335 0.08505 0.0
C425 C 0.80923 0.28117 0.08813 0.0
C426 C 0.79172 0.334 0.07916 0.0
C427 C 0.83337 0.36319 0.07583 0.0
C428 C 0.86286 0.35101 0.07878 0.0
C429 C 0.85092 0.31045 0.08508 0.0
C430 C 0.88573 0.46749 0.04421 0.0
C431 C 0.87065 0.4888 0.05814 0.0
C432 C 0.87377 0.42674 0.04999 0.0
C433 C 0.84596 0.40632 0.06953 0.0
C434 C 0.8303 0.42741 0.08313 0.0
C435 C 0.84274 0.46829 0.07763 0.0
H436 H 0.7135 0.57863 0.07882 0.0
H437 H 0.74533 0.48324 0.08087 0.0
H438 H 0.64164 0.52695 0.07122 0.0
H439 H 0.67366 0.43164 0.0732 0.0
H440 H 0.53478 0.35309 0.09201 0.0
H441 H 0.60706 0.40418 0.09743 0.0
H442 H 0.59872 0.47542 0.03691 0.0
H443 H 0.52614 0.42406 0.03134 0.0
C444 C 0.70507 0.54662 0.07775 0.0
C445 C 0.73494 0.53492 0.0805 0.0
C446 C 0.66409 0.51713 0.07315 0.0
C447 C 0.65212 0.47531 0.07159 0.0
C448 C 0.68199 0.46363 0.07443 0.0
C449 C 0.72299 0.49314 0.07867 0.0
C450 C 0.54837 0.37956 0.07978 0.0
C451 C 0.52476 0.38462 0.06128 0.0
C452 C 0.5898 0.40869 0.08281 0.0
C453 C 0.60845 0.4438 0.06764 0.0
C454 C 0.58499 0.44877 0.04899 0.0
C455 C 0.54359 0.41926 0.0457 0.0
H456 H 0.26361 0.51851 0.40014 0.0
H457 H 0.14241 0.41427 0.3896 0.0
H458 H 0.23485 0.564 0.40112 0.0
H459 H 0.11333 0.45932 0.3912 0.0
H460 H 0.07817 0.55332 0.36903 0.0
H461 H 0.10905 0.5101 0.36758 0.0
H462 H 0.19429 0.58352 0.42558 0.0
H463 H 0.16415 0.62789 0.42634 0.0
C464 C 0.23075 0.50532 0.39826 0.0
C465 C 0.20526 0.46287 0.39468 0.0
C466 C 0.21422 0.53134 0.3989 0.0
C467 C 0.17174 0.51542 0.39619 0.0
C468 C 0.14627 0.47283 0.39283 0.0
C469 C 0.16286 0.44692 0.39194 0.0
C470 C 0.10352 0.56032 0.38149 0.0
C471 C 0.11855 0.59391 0.39791 0.0
C472 C 0.1211 0.53532 0.38076 0.0
C473 C 0.15395 0.54299 0.39662 0.0
C474 C 0.1693 0.57692 0.41291 0.0
C475 C 0.1519 0.60223 0.41346 0.0
H476 H 0.5274 0.71293 0.37108 0.0
H477 H 0.51498 0.7476 0.44612 0.0
H478 H 0.48025 0.64111 0.38124 0.0
H479 H 0.46671 0.67627 0.45595 0.0
H480 H 0.41292 0.53867 0.47159 0.0
H481 H 0.46228 0.61046 0.46248 0.0
H482 H 0.40767 0.59732 0.38961 0.0
H483 H 0.3589 0.52573 0.39856 0.0
C484 C 0.51472 0.70525 0.38973 0.0
C485 C 0.52471 0.73609 0.40768 0.0
C486 C 0.48734 0.66416 0.3955 0.0
C487 C 0.46943 0.65299 0.41936 0.0
C488 C 0.48009 0.68376 0.43745 0.0
C489 C 0.50741 0.72478 0.43168 0.0
C490 C 0.41135 0.55124 0.45371 0.0
C491 C 0.3823 0.52644 0.43572 0.0
C492 C 0.43959 0.59236 0.44848 0.0
C493 C 0.43918 0.60951 0.4252 0.0
C494 C 0.40946 0.58485 0.40748 0.0
C495 C 0.38137 0.54382 0.41267 0.0
H496 H 0.47059 0.83338 0.39784 0.0
H497 H 0.46283 0.89115 0.46582 0.0
H498 H 0.39804 0.80792 0.38986 0.0
H499 H 0.38992 0.86542 0.4578 0.0
H500 H 0.27475 0.85234 0.41686 0.0
H501 H 0.3471 0.87728 0.42612 0.0
H502 H 0.33002 0.75767 0.40851 0.0
H503 H 0.25778 0.73294 0.39906 0.0
C504 C 0.4534 0.84067 0.41109 0.0
C505 C 0.47252 0.86444 0.43243 0.0
C506 C 0.41176 0.82582 0.40659 0.0
C507 C 0.38831 0.83469 0.42319 0.0
C508 C 0.40734 0.85839 0.44457 0.0
C509 C 0.44899 0.8729 0.44923 0.0
C510 C 0.2866 0.83155 0.41475 0.0
C511 C 0.26076 0.7908 0.40702 0.0
C512 C 0.32785 0.84567 0.42033 0.0
C513 C 0.34423 0.81944 0.41801 0.0
C514 C 0.31836 0.77869 0.41026 0.0
C515 C 0.27701 0.76446 0.40499 0.0
H516 H 0.35239 0.82977 0.91627 0.0
H517 H 0.45212 0.9455 0.89 0.0
H518 H 0.39769 0.80027 0.91453 0.0
H519 H 0.49663 0.91624 0.8883 0.0
H520 H 0.54526 0.83803 0.85538 0.0
H521 H 0.49768 0.8634 0.8605 0.0
H522 H 0.46418 0.80768 0.93349 0.0
H523 H 0.51257 0.78273 0.92867 0.0
C524 C 0.38395 0.84902 0.91047 0.0
C525 C 0.39844 0.88984 0.903 0.0
C526 C 0.40985 0.83215 0.90946 0.0
C527 C 0.45048 0.85579 0.90085 0.0
C528 C 0.46524 0.89699 0.89448 0.0
C529 C 0.43965 0.91378 0.89557 0.0
C530 C 0.52816 0.83139 0.87264 0.0
C531 C 0.5333 0.80866 0.89168 0.0
C532 C 0.50071 0.84583 0.87553 0.0
C533 C 0.47747 0.83783 0.8975 0.0
C534 C 0.48152 0.8141 0.9163 0.0
C535 C 0.50928 0.7998 0.91348 0.0
H536 H 0.1182 0.52988 0.9667 0.0
H537 H 0.1895 0.53295 0.90262 0.0
H538 H 0.14035 0.60248 0.96031 0.0
H539 H 0.21167 0.60534 0.89636 0.0
H540 H 0.27145 0.74493 0.90709 0.0
H541 H 0.25386 0.67469 0.91789 0.0
H542 H 0.12683 0.64153 0.92613 0.0
H543 H 0.14446 0.7116 0.91539 0.0
C544 C 0.13889 0.54613 0.95143 0.0
C545 C 0.15191 0.52566 0.93508 0.0
C546 C 0.15139 0.58758 0.94771 0.0
C547 C 0.17766 0.60949 0.92782 0.0
C548 C 0.19167 0.58932 0.91196 0.0
C549 C 0.17873 0.5478 0.91545 0.0
C550 C 0.23989 0.72266 0.91144 0.0
C551 C 0.20926 0.73356 0.91021 0.0
C552 C 0.22979 0.68249 0.91747 0.0
C553 C 0.18897 0.65268 0.92281 0.0
C554 C 0.15857 0.66393 0.92226 0.0
C555 C 0.16857 0.70388 0.91587 0.0
H556 H 0.48516 0.65608 0.89196 0.0
H557 H 0.48539 0.60098 0.96271 0.0
H558 H 0.41433 0.60307 0.88512 0.0
H559 H 0.41418 0.54745 0.95572 0.0
H560 H 0.27362 0.48594 0.94444 0.0
H561 H 0.34475 0.53762 0.95275 0.0
H562 H 0.37579 0.52969 0.87603 0.0
H563 H 0.30432 0.47908 0.86751 0.0
C564 C 0.47016 0.6325 0.90602 0.0
C565 C 0.49106 0.63249 0.92777 0.0
C566 C 0.42956 0.602 0.90204 0.0
C567 C 0.4088 0.57075 0.91972 0.0
C568 C 0.42932 0.57124 0.94179 0.0
C569 C 0.47009 0.60185 0.94578 0.0
C570 C 0.29556 0.49542 0.9293 0.0
C571 C 0.28322 0.47875 0.90522 0.0
C572 C 0.33642 0.52468 0.93415 0.0
C573 C 0.36584 0.53798 0.91501 0.0
C574 C 0.3537 0.52053 0.89109 0.0
C575 C 0.31286 0.4912 0.88626 0.0
H576 H 0.85087 0.56966 0.57783 0.0
H577 H 0.72733 0.468 0.58504 0.0
H578 H 0.8757 0.52162 0.57007 0.0
H579 H 0.75211 0.41988 0.57738 0.0
H580 H 0.82543 0.35268 0.59458 0.0
H581 H 0.79935 0.39986 0.60081 0.0
H582 H 0.8663 0.46879 0.53588 0.0
H583 H 0.8922 0.42131 0.52942 0.0
C584 C 0.82913 0.53703 0.57793 0.0
C585 C 0.78724 0.52246 0.58217 0.0
C586 C 0.84324 0.50961 0.57325 0.0
C587 C 0.81579 0.46709 0.57313 0.0
C588 C 0.77393 0.45252 0.5775 0.0
C589 C 0.75974 0.47997 0.58176 0.0
C590 C 0.83453 0.37784 0.58159 0.0
C591 C 0.86094 0.38338 0.56153 0.0
C592 C 0.81941 0.40468 0.58509 0.0
C593 C 0.8309 0.43797 0.56886 0.0
C594 C 0.85723 0.4435 0.54877 0.0
C595 C 0.87183 0.41623 0.545 0.0
H596 H 0.56765 0.46175 0.52174 0.0
H597 H 0.63291 0.46612 0.58912 0.0
H598 H 0.51949 0.38891 0.52898 0.0
H599 H 0.58473 0.39351 0.59635 0.0
H600 H 0.5179 0.25327 0.58399 0.0
H601 H 0.56601 0.32603 0.57653 0.0
H602 H 0.46455 0.34533 0.56014 0.0
H603 H 0.41651 0.27242 0.56738 0.0
C604 C 0.57177 0.44718 0.53805 0.0
C605 C 0.60403 0.46972 0.55488 0.0
C606 C 0.54403 0.40556 0.54228 0.0
C607 C 0.54831 0.38555 0.56326 0.0
C608 C 0.58083 0.40802 0.57993 0.0
C609 C 0.60827 0.44968 0.57585 0.0
C610 C 0.50596 0.27311 0.57878 0.0
C611 C 0.46349 0.25726 0.57639 0.0
C612 C 0.53343 0.31475 0.57467 0.0
C613 C 0.51903 0.34136 0.56776 0.0
C614 C 0.47654 0.32549 0.56528 0.0
C615 C 0.44903 0.2839 0.56969 0.0
H616 H 0.72073 0.1402 0.60264 0.0
H617 H 0.73965 0.26205 0.59159 0.0
H618 H 0.64724 0.11145 0.59717 0.0
H619 H 0.66573 0.23355 0.58682 0.0
H620 H 0.53371 0.1633 0.55617 0.0
H621 H 0.60807 0.19398 0.56027 0.0
H622 H 0.58992 0.10633 0.61811 0.0
H623 H 0.51625 0.07497 0.61329 0.0
C624 C 0.70904 0.16087 0.59937 0.0
C625 C 0.73587 0.20336 0.59772 0.0
C626 C 0.66686 0.14445 0.59627 0.0
C627 C 0.65034 0.17017 0.59176 0.0
C628 C 0.67732 0.21275 0.58995 0.0
C629 C 0.71965 0.22913 0.59278 0.0
C630 C 0.54575 0.15066 0.56971 0.0
C631 C 0.51913 0.11643 0.58419 0.0
C632 C 0.58835 0.16836 0.57218 0.0
C633 C 0.60513 0.15241 0.58936 0.0
C634 C 0.57827 0.11881 0.60422 0.0
C635 C 0.53589 0.10093 0.60156 0.0
H636 H 0.30297 0.15726 0.04285 0.0
H637 H 0.42096 0.24518 0.0121 0.0
H638 H 0.29886 0.10527 0.01406 0.0
H639 H 0.41666 0.19277 0.98316 0.0
H640 H 0.36915 0.09741 0.9189 0.0
H641 H 0.37467 0.15068 0.9468 0.0
H642 H 0.33561 0.06565 0.00851 0.0
H643 H 0.33086 0.01203 0.98066 0.0
C644 C 0.3279 0.16567 0.02978 0.0
C645 C 0.36235 0.20542 0.02979 0.0
C646 C 0.32565 0.13568 0.01345 0.0
C647 C 0.35763 0.14479 -0.00342 0.0
C648 C 0.39149 0.18491 -0.00406 0.0
C649 C 0.3939 0.21493 0.01245 0.0
C650 C 0.36235 0.08989 0.93844 0.0
C651 C 0.34965 0.05008 0.94742 0.0
C652 C 0.36544 0.12063 0.95444 0.0
C653 C 0.35553 0.11236 0.9798 0.0
C654 C 0.34296 0.07276 0.98893 0.0
C655 C 0.34018 0.042 0.97294 0.0
H656 H 0.77702 0.20005 0.01964 0.0
H657 H 0.83772 0.1284 0.02118 0.0
H658 H 0.83098 0.25025 0.99259 0.0
H659 H 0.8909 0.17771 0.99351 0.0
H660 H 0.00595 0.30147 0.97868 0.0
H661 H 0.94701 0.24578 -0.00048 0.0
H662 H 0.86564 0.26675 0.95279 0.0
H663 H 0.92492 0.32297 0.93214 0.0
C664 C 0.80121 0.19438 0.01355 0.0
C665 C 0.8034 0.16051 0.02264 0.0
C666 C 0.83219 0.22317 -0.00194 0.0
C667 C 0.8657 0.21839 0.99123 0.0
C668 C 0.86614 0.1829 -0.00105 0.0
C669 C 0.83547 0.15443 0.0146 0.0
C670 C 0.97551 0.29391 0.97266 0.0
C671 C 0.97016 0.31669 0.95379 0.0
C672 C 0.94163 0.26185 0.98454 0.0
C673 C 0.90148 0.25155 0.97772 0.0
C674 C 0.8961 0.27414 0.95869 0.0
C675 C 0.93008 0.3064 0.94688 0.0
H676 H 0.81435 0.5811 0.01094 0.0
H677 H 0.89053 0.71308 0.01009 0.0
H678 H 0.76424 0.5861 0.98443 0.0
H679 H 0.84122 0.71813 0.98305 0.0
H680 H 0.7187 0.71395 0.97015 0.0
H681 H 0.77439 0.70939 0.99009 0.0
H682 H 0.74725 0.60385 0.94457 0.0
H683 H 0.69125 0.60829 0.9248 0.0
C684 C 0.82101 0.61106 0.0044 0.0
C685 C 0.85617 0.64673 0.01268 0.0
C686 C 0.79226 0.61398 0.98925 0.0
C687 C 0.79835 0.65261 0.98197 0.0
C688 C 0.83505 0.68799 0.98884 0.0
C689 C 0.8635 0.68508 0.00413 0.0
C690 C 0.72492 0.6901 0.9642 0.0
C691 C 0.70038 0.66141 0.94598 0.0
C692 C 0.75696 0.6875 0.97556 0.0
C693 C 0.76544 0.65628 0.96888 0.0
C694 C 0.74125 0.62793 0.95039 0.0
C695 C 0.70909 0.63045 0.93909 0.0
H696 H 0.09017 0.40968 0.55903 0.0
H697 H 0.00899 0.30525 0.51376 0.0
H698 H 0.14935 0.41127 0.53933 0.0
H699 H 0.06799 0.30713 0.49369 0.0
H700 H 0.17872 0.29739 0.47531 0.0
H701 H 0.12359 0.29491 0.50047 0.0
H702 H 0.18525 0.42748 0.50039 0.0
H703 H 0.24103 0.42988 0.4759 0.0
C704 C 0.08496 0.38728 0.5447 0.0
C705 C 0.04485 0.35738 0.53791 0.0
C706 C 0.11891 0.38816 0.53341 0.0
C707 C 0.11357 0.35929 0.51494 0.0
C708 C 0.07337 0.32934 0.50821 0.0
C709 C 0.03947 0.32832 0.51963 0.0
C710 C 0.18083 0.32601 0.48105 0.0
C711 C 0.21415 0.36381 0.47356 0.0
C712 C 0.14902 0.3246 0.49527 0.0
C713 C 0.14956 0.36096 0.50215 0.0
C714 C 0.1839 0.39884 0.49562 0.0
C715 C 0.21593 0.40025 0.48156 0.0
H716 H 0.69531 0.87779 0.4745 0.0
H717 H 0.56284 0.81062 0.47436 0.0
H718 H 0.69592 0.82338 0.49873 0.0
H719 H 0.56333 0.75528 0.49789 0.0
H720 H 0.5806 0.67377 0.55472 0.0
H721 H 0.57926 0.73248 0.53643 0.0
H722 H 0.68145 0.75529 0.48899 0.0
H723 H 0.68294 0.697 0.50743 0.0
C724 C 0.66628 0.8516 0.47997 0.0
C725 C 0.62905 0.84836 0.47241 0.0
C726 C 0.66661 0.82019 0.49363 0.0
C727 C 0.6297 0.78451 0.49982 0.0
C728 C 0.59234 0.78237 0.49354 0.0
C729 C 0.59203 0.81411 0.48007 0.0
C730 C 0.60259 0.69116 0.54028 0.0
C731 C 0.63197 0.68071 0.53258 0.0
C732 C 0.60186 0.72488 0.52981 0.0
C733 C 0.63046 0.74889 0.51138 0.0
C734 C 0.65958 0.73815 0.50358 0.0
C735 C 0.66039 0.7046 0.51408 0.0
H736 H 0.34905 0.90903 0.53204 0.0
H737 H 0.28135 0.97048 0.51445 0.0
H738 H 0.29056 0.84362 0.51896 0.0
H739 H 0.22346 0.90579 0.50084 0.0
H740 H 0.11295 0.78465 0.4936 0.0
H741 H 0.16996 0.84191 0.51502 0.0
H742 H 0.25367 0.80728 0.48273 0.0
H743 H 0.19627 0.74878 0.46256 0.0
C744 C 0.32176 0.90855 0.52518 0.0
C745 C 0.31969 0.94482 0.52435 0.0
C746 C 0.28822 0.8711 0.51772 0.0
C747 C 0.252 0.86921 0.50908 0.0
C748 C 0.25029 0.90572 0.50806 0.0
C749 C 0.2836 0.94296 0.51572 0.0
C750 C 0.1434 0.78861 0.49175 0.0
C751 C 0.15019 0.76246 0.4763 0.0
C752 C 0.17619 0.82174 0.50373 0.0
C753 C 0.21664 0.82994 0.50009 0.0
C754 C 0.223 0.80193 0.48608 0.0
C755 C 0.19002 0.76829 0.47447 0.0
H756 H 0.59683 0.94281 0.0283 0.0
H757 H 0.72162 0.98185 0.04966 0.0
H758 H 0.59362 0.88569 0.00492 0.0
H759 H 0.71834 0.92429 0.0267 0.0
H760 H 0.71426 0.85423 0.95519 0.0
H761 H 0.71715 0.90504 0.98428 0.0
H762 H 0.5923 0.82121 0.00696 0.0
H763 H 0.58899 0.77051 0.97704 0.0
C764 C 0.62338 0.93881 0.02831 0.0
C765 C 0.6596 0.96707 0.04064 0.0
C766 C 0.62151 0.90591 0.015 0.0
C767 C 0.65575 0.90033 0.01385 0.0
C768 C 0.69162 0.92803 0.02679 0.0
C769 C 0.69356 0.96109 0.03993 0.0
C770 C 0.68753 0.84632 0.96659 0.0
C771 C 0.65129 0.8084 0.96365 0.0
C772 C 0.68929 0.87547 0.98344 0.0
C773 C 0.65488 0.86742 -0.00209 0.0
C774 C 0.61916 0.82869 -0.00419 0.0
C775 C 0.61737 0.79947 0.97885 0.0
H776 H 0.01489 0.71331 0.0084 0.0
H777 H 0.09529 0.6918 0.05563 0.0
H778 H 0.07409 0.77004 0.98855 0.0
H779 H 0.15483 0.74877 0.03559 0.0
H780 H 0.18197 0.89047 0.97077 0.0
H781 H 0.12926 0.83891 -0.00231 0.0
H782 H 0.19046 0.76771 -0.00501 0.0
H783 H 0.24389 0.82002 0.96847 0.0
C784 C 0.04517 0.72093 0.01477 0.0
C785 C 0.05017 0.698 0.03372 0.0
C786 C 0.07921 0.75359 0.00341 0.0
C787 C 0.11926 0.76428 0.01068 0.0
C788 C 0.12441 0.74119 0.02948 0.0
C789 C 0.09024 0.70844 0.0409 0.0
C790 C 0.18473 0.86432 0.97646 0.0
C791 C 0.2169 0.85917 0.96744 0.0
C792 C 0.15431 0.83457 0.99167 0.0
C793 C 0.15515 0.79875 -0.00197 0.0
C794 C 0.18896 0.79498 0.99049 0.0
C795 C 0.21967 0.82502 0.97536 0.0
H796 H 0.19065 0.42673 0.98329 0.0
H797 H 0.14521 0.30014 0.96271 0.0
H798 H 0.23887 0.42319 0.01235 0.0
H799 H 0.19397 0.29698 0.9909 0.0
H800 H 0.26989 0.29349 0.05464 0.0
H801 H 0.2148 0.29686 0.03277 0.0
H802 H 0.30094 0.42037 0.00885 0.0
H803 H 0.3556 0.4171 0.03112 0.0
C804 C 0.19051 0.398 0.98524 0.0
C805 C 0.16422 0.36378 0.97061 0.0
C806 C 0.21844 0.39607 0.00169 0.0
C807 C 0.22066 0.3599 0.00382 0.0
C808 C 0.19294 0.3252 0.99002 0.0
C809 C 0.16506 0.3271 0.97368 0.0
C810 C 0.277 0.32129 0.04467 0.0
C811 C 0.31715 0.35494 0.04451 0.0
C812 C 0.24543 0.3233 0.03215 0.0
C813 C 0.25334 0.3589 0.01899 0.0
C814 C 0.29345 0.39275 0.01917 0.0
C815 C 0.32491 0.39082 0.03184 0.0
H816 H 0.97899 0.69232 0.46752 0.0
H817 H 0.90795 0.56642 0.44341 0.0
H818 H 0.91756 0.68896 0.48465 0.0
H819 H 0.84561 0.56316 0.45945 0.0
H820 H 0.75576 0.55874 0.51991 0.0
H821 H 0.81163 0.55971 0.4965 0.0
H822 H 0.85589 0.68649 0.47654 0.0
H823 H 0.80136 0.68591 0.50141 0.0
C824 C 0.94995 0.66412 0.46551 0.0
C825 C 0.94816 0.62961 0.45422 0.0
C826 C 0.91454 0.66216 0.47517 0.0
C827 C 0.87624 0.62581 0.47337 0.0
C828 C 0.87449 0.59148 0.46159 0.0
C829 C 0.91013 0.59329 0.45232 0.0
C830 C 0.7769 0.58647 0.51 0.0
C831 C 0.77439 0.62231 0.5125 0.0
C832 C 0.80906 0.58711 0.49653 0.0
C833 C 0.83894 0.62342 0.48486 0.0
C834 C 0.83433 0.65832 0.48587 0.0
C835 C 0.80276 0.65791 0.49982 0.0
H836 H 0.32007 0.1126 0.49026 0.0
H837 H 0.44476 0.19358 0.51431 0.0
H838 H 0.31897 0.17007 0.47009 0.0
H839 H 0.44336 0.25132 0.49457 0.0
H840 H 0.43213 0.34195 0.44203 0.0
H841 H 0.43774 0.28312 0.45554 0.0
H842 H 0.31657 0.22882 0.48787 0.0
H843 H 0.31102 0.28767 0.47457 0.0
C844 C 0.34755 0.14253 0.49077 0.0
C845 C 0.38239 0.14861 0.50398 0.0
C846 C 0.34677 0.17552 0.47945 0.0
C847 C 0.38075 0.21537 0.48119 0.0
C848 C 0.41671 0.22096 0.49283 0.0
C849 C 0.41756 0.18783 0.50408 0.0
C850 C 0.4068 0.31771 0.45222 0.0
C851 C 0.37105 0.31963 0.45719 0.0
C852 C 0.41001 0.28389 0.45987 0.0
C853 C 0.37748 0.25113 0.47255 0.0
C854 C 0.34185 0.25313 0.47763 0.0
C855 C 0.33868 0.28695 0.47005 0.0
H856 H 0.86552 0.16536 0.53109 0.0
H857 H 0.81985 0.24762 0.51422 0.0
H858 H 0.81329 0.1133 0.50444 0.0
H859 H 0.76799 0.19565 0.48677 0.0
H860 H 0.64829 0.07257 0.47187 0.0
H861 H 0.70569 0.13085 0.49238 0.0
H862 H 0.78834 0.09263 0.46297 0.0
H863 H 0.73073 0.03402 0.44286 0.0
C864 C 0.84484 0.17267 0.52126 0.0
C865 C 0.84668 0.21055 0.52493 0.0
C866 C 0.81494 0.14281 0.50582 0.0
C867 C 0.78616 0.15009 0.49356 0.0
C868 C 0.78925 0.18878 0.49626 0.0
C869 C 0.81923 0.21873 0.51179 0.0
C870 C 0.67879 0.0769 0.46959 0.0
C871 C 0.68489 0.04845 0.45596 0.0
C872 C 0.71177 0.11043 0.48124 0.0
C873 C 0.75171 0.11646 0.47939 0.0
C874 C 0.75791 0.08856 0.46516 0.0
C875 C 0.72488 0.05489 0.45367 0.0
H876 H 0.37596 0.33599 0.32731 0.0
H877 H 0.35497 0.43084 0.29764 0.0
H878 H 0.39256 0.32301 0.28546 0.0
H879 H 0.37296 0.41862 0.25604 0.0
H880 H 0.44214 0.40621 0.18849 0.0
H881 H 0.43395 0.42277 0.23166 0.0
H882 H 0.34926 0.29449 0.24584 0.0
H883 H 0.35741 0.27802 0.20283 0.0
C884 C 0.37495 0.35413 0.31193 0.0
C885 C 0.36378 0.38424 0.31586 0.0
C886 C 0.38467 0.34681 0.28802 0.0
C887 C 0.38394 0.36979 0.26759 0.0
C888 C 0.37419 0.40081 0.27156 0.0
C889 C 0.364 0.40783 0.29542 0.0
C890 C 0.42213 0.38162 0.20097 0.0
C891 C 0.40024 0.34091 0.19241 0.0
C892 C 0.41729 0.39109 0.22554 0.0
C893 C 0.391 0.35988 0.242 0.0
C894 C 0.36998 0.31906 0.23358 0.0
C895 C 0.37437 0.30969 0.20896 0.0
H896 H 0.66189 0.99051 0.17638 0.0
H897 H 0.67739 0.10515 0.20467 0.0
H898 H 0.64298 0.96091 0.21804 0.0
H899 H 0.65712 0.07483 0.2462 0.0
H900 H 0.57931 0.98888 0.31104 0.0
H901 H 0.59431 0.01707 0.26859 0.0
H902 H 0.68102 0.97463 0.25934 0.0
H903 H 0.66601 0.94647 0.3016 0.0
C904 C 0.66145 0.0095 0.19146 0.0
C905 C 0.67157 0.0504 0.18716 0.0
C906 C 0.6504 0.99241 0.21528 0.0
C907 C 0.64871 0.01563 0.2353 0.0
C908 C 0.6578 0.05614 0.231 0.0
C909 C 0.66932 0.07343 0.2072 0.0
C910 C 0.60134 0.9854 0.29981 0.0
C911 C 0.62161 0.96565 0.30955 0.0
C912 C 0.61012 1.00174 0.27567 0.0
C913 C 0.63881 0.99799 0.26075 0.0
C914 C 0.65856 0.97767 0.27039 0.0
C915 C 0.65021 0.96186 0.29459 0.0
H916 H 0.9689 0.69559 0.18311 0.0
H917 H 0.9473 0.57145 0.18599 0.0
H918 H 0.99574 0.70746 0.22526 0.0
H919 H 0.9708 0.58222 0.22904 0.0
H920 H 0.05535 0.62658 0.29616 0.0
H921 H 0.03004 0.61541 0.25356 0.0
H922 H 0.97744 0.69289 0.26706 0.0
H923 H 0.00589 0.70699 0.30888 0.0
C924 C 0.96977 0.67072 0.1927 0.0
C925 C 0.95621 0.63263 0.18092 0.0
C926 C 0.98454 0.67734 0.21716 0.0
C927 C 0.98545 0.64582 0.23072 0.0
C928 C 0.97122 0.60747 0.2191 0.0
C929 C 0.95705 0.60105 0.19447 0.0
C930 C 0.03904 0.64187 0.28994 0.0
C931 C 0.03289 0.66784 0.30608 0.0
C932 C 0.02383 0.63484 0.26556 0.0
C933 C 1.00149 0.65309 0.25676 0.0
C934 C 0.99499 0.67874 0.27298 0.0
C935 C 0.01077 0.6863 0.29721 0.0
H936 H 0.5913 0.57606 0.6772 0.0
H937 H 0.72019 0.66429 0.68553 0.0
H938 H 0.57887 0.59045 0.71999 0.0
H939 H 0.7078 0.67862 0.72819 0.0
H940 H 0.67453 0.65751 0.81156 0.0
H941 H 0.68459 0.63938 0.76949 0.0
H942 H 0.58387 0.65314 0.74295 0.0
H943 H 0.5745 0.67275 0.78485 0.0
C944 C 0.61693 0.59832 0.68825 0.0
C945 C 0.65667 0.61916 0.67811 0.0
C946 C 0.60979 0.60672 0.7126 0.0
C947 C 0.6424 0.6356 0.72733 0.0
C948 C 0.68219 0.656 0.71728 0.0
C949 C 0.68922 0.64805 0.69285 0.0
C950 C 0.65474 0.65713 0.79676 0.0
C951 C 0.62391 0.66697 0.80163 0.0
C952 C 0.66042 0.64653 0.7727 0.0
C953 C 0.63508 0.64499 0.75302 0.0
C954 C 0.60357 0.65373 0.75789 0.0
C955 C 0.59817 0.66483 0.78191 0.0
H956 H 0.25199 0.9431 0.79014 0.0
H957 H 0.36283 0.93523 0.79014 0.0
H958 H 0.26793 0.97191 0.74858 0.0
H959 H 0.37622 0.95958 0.74749 0.0
H960 H 0.41679 0.04739 0.68284 0.0
H961 H 0.39997 0.01857 0.72441 0.0
H962 H 0.2707 0.96099 0.70673 0.0
H963 H 0.28749 0.99367 0.66622 0.0
C964 C 0.27963 0.94715 0.78128 0.0
C965 C 0.30637 0.93727 0.79387 0.0
C966 C 0.2884 0.96303 0.75709 0.0
C967 C 0.3236 0.96847 0.74451 0.0
C968 C 0.34937 0.95688 0.75669 0.0
C969 C 0.34115 0.94198 0.78111 0.0
C970 C 0.38474 0.02937 0.68793 0.0
C971 C 0.35361 0.02311 0.67096 0.0
C972 C 0.37502 0.01198 0.71174 0.0
C973 C 0.33388 0.98699 0.71908 0.0
C974 C 0.30275 0.98045 0.70203 0.0
C975 C 0.31246 0.99867 0.67845 0.0
H976 H 0.07636 0.34609 0.79735 0.0
H977 H 0.03548 0.43314 0.81057 0.0
H978 H 0.04792 0.33393 0.75535 0.0
H979 H 0.00558 0.42006 0.76869 0.0
H980 H 0.98872 0.41192 0.68325 0.0
H981 H 0.01983 0.42838 0.72483 0.0
H982 H 0.9829 0.30063 0.73585 0.0
H983 H 0.9532 0.28475 0.69418 0.0
C984 C 0.06103 0.36244 0.79124 0.0
C985 C 0.05782 0.39031 0.8072 0.0
C986 C 0.04452 0.35535 0.76723 0.0
C987 C 0.02391 0.37557 0.75871 0.0
C988 C 0.02154 0.40422 0.77454 0.0
C989 C 0.03854 0.41167 0.79853 0.0
C990 C 0.9872 0.38747 0.6947 0.0
C991 C 0.96896 0.34717 0.68547 0.0
C992 C 0.00489 0.39682 0.71851 0.0
C993 C 0.00429 0.36592 0.73362 0.0
C994 C 0.98496 0.32542 0.72451 0.0
C995 C 0.96774 0.31622 0.70068 0.0
loop_
_geom_bond_atom_site_label_1
_geom_bond_atom_site_label_2
_geom_bond_distance
_geom_bond_site_symmetry_2
_ccdc_geom_bond_type
C0 C1 1.351 . S
C0 N3 1.368 . S
C0 H5 0.931 . S
C1 C0 1.351 . S
C1 N2 1.373 . S
C1 H29 0.930 . S
N2 C1 1.373 . S
N2 C4 1.340 . S
N3 C0 1.368 . S
N3 C4 1.321 . S
N3 Co6 2.135 . S
C4 N2 1.340 . S
C4 N3 1.321 . S
C4 H28 0.930 . S
H5 C0 0.931 . S
Co6 N3 2.135 . S
Co6 N9 2.121 . S
Co6 O14 2.055 . S
Co6 O17 2.039 . S
Co6 N20 2.140 . S
C7 O8 1.227 . S
C7 O17 1.265 . S
O8 C7 1.227 . S
N9 Co6 2.121 . S
N9 C11 1.375 . S
N9 C12 1.313 . S
C10 C11 1.338 . S
C10 N13 1.377 . S
C10 H30 0.930 . S
C11 N9 1.375 . S
C11 C10 1.338 . S
C11 H15 0.931 . S
C12 N9 1.313 . S
C12 N13 1.344 . S
C12 H16 0.930 . S
N13 C10 1.377 . S
N13 C12 1.344 . S
O14 Co6 2.055 . S
O14 C18 1.253 . S
H15 C11 0.931 . S
H16 C12 0.930 . S
O17 Co6 2.039 . S
O17 C7 1.265 . S
C18 O14 1.253 . S
C18 O19 1.227 . S
O19 C18 1.227 . S
N20 Co6 2.140 . S
N20 C23 1.346 . S
N20 C24 1.345 . S
C21 C22 1.387 . S
C21 C25 1.391 . S
C22 C21 1.387 . S
C22 C23 1.369 . S
C22 H31 0.929 . S
C23 N20 1.346 . S
C23 C22 1.369 . S
C23 H26 0.928 . S
C24 N20 1.345 . S
C24 C25 1.371 . S
C24 H27 0.931 . S
C25 C21 1.391 . S
C25 C24 1.371 . S
C25 H32 0.930 . S
H26 C23 0.928 . S
H27 C24 0.931 . S
H28 C4 0.930 . S
H29 C1 0.930 . S
H30 C10 0.930 . S
H31 C22 0.929 . S
H32 C25 0.930 . S
C33 C34 1.351 . S
C33 N36 1.368 . S
C33 H38 0.931 . S
C34 C33 1.351 . S
C34 N35 1.373 . S
C34 H62 0.930 . S
N35 C34 1.373 . S
N35 C37 1.340 . S
N36 C33 1.368 . S
N36 C37 1.321 . S
N36 Co39 2.135 . S
C37 N35 1.340 . S
C37 N36 1.321 . S
C37 H61 0.930 . S
H38 C33 0.931 . S
Co39 N36 2.135 . S
Co39 N42 2.121 . S
Co39 O47 2.055 . S
Co39 O50 2.039 . S
Co39 N53 2.140 . S
C40 O41 1.227 . S
C40 O50 1.265 . S
O41 C40 1.227 . S
N42 Co39 2.121 . S
N42 C44 1.375 . S
N42 C45 1.313 . S
C43 C44 1.338 . S
C43 N46 1.377 . S
C43 H63 0.930 . S
C44 N42 1.375 . S
C44 C43 1.338 . S
C44 H48 0.931 . S
C45 N42 1.313 . S
C45 N46 1.344 . S
C45 H49 0.930 . S
N46 C43 1.377 . S
N46 C45 1.344 . S
O47 Co39 2.055 . S
O47 C51 1.253 . S
H48 C44 0.931 . S
H49 C45 0.930 . S
O50 Co39 2.039 . S
O50 C40 1.265 . S
C51 O47 1.253 . S
C51 O52 1.227 . S
O52 C51 1.227 . S
N53 Co39 2.140 . S
N53 C56 1.346 . S
N53 C57 1.345 . S
C54 C55 1.387 . S
C54 C58 1.391 . S
C55 C54 1.387 . S
C55 C56 1.369 . S
C55 H64 0.929 . S
C56 N53 1.346 . S
C56 C55 1.369 . S
C56 H59 0.928 . S
C57 N53 1.345 . S
C57 C58 1.371 . S
C57 H60 0.931 . S
C58 C54 1.391 . S
C58 C57 1.371 . S
C58 H65 0.930 . S
H59 C56 0.928 . S
H60 C57 0.931 . S
H61 C37 0.930 . S
H62 C34 0.930 . S
H63 C43 0.930 . S
H64 C55 0.929 . S
H65 C58 0.930 . S
C66 C67 1.351 . S
C66 N69 1.368 . S
C66 H71 0.931 . S
C67 C66 1.351 . S
C67 N68 1.373 . S
C67 H95 0.930 . S
N68 C67 1.373 . S
N68 C70 1.340 . S
N69 C66 1.368 . S
N69 C70 1.321 . S
N69 Co72 2.135 . S
C70 N68 1.340 . S
C70 N69 1.321 . S
C70 H94 0.930 . S
H71 C66 0.931 . S
Co72 N69 2.135 . S
Co72 N75 2.121 . S
Co72 O80 2.055 . S
Co72 O83 2.039 . S
Co72 N86 2.140 . S
C73 O74 1.227 . S
C73 O83 1.265 . S
O74 C73 1.227 . S
N75 Co72 2.121 . S
N75 C77 1.375 . S
N75 C78 1.313 . S
C76 C77 1.338 . S
C76 N79 1.377 . S
C76 H96 0.930 . S
C77 N75 1.375 . S
C77 C76 1.338 . S
C77 H81 0.931 . S
C78 N75 1.313 . S
C78 N79 1.344 . S
C78 H82 0.930 . S
N79 C76 1.377 . S
N79 C78 1.344 . S
O80 Co72 2.055 . S
O80 C84 1.253 . S
H81 C77 0.931 . S
H82 C78 0.930 . S
O83 Co72 2.039 . S
O83 C73 1.265 . S
C84 O80 1.253 . S
C84 O85 1.227 . S
O85 C84 1.227 . S
N86 Co72 2.140 . S
N86 C89 1.346 . S
N86 C90 1.345 . S
C87 C88 1.387 . S
C87 C91 1.391 . S
C88 C87 1.387 . S
C88 C89 1.369 . S
C88 H97 0.929 . S
C89 N86 1.346 . S
C89 C88 1.369 . S
C89 H92 0.928 . S
C90 N86 1.345 . S
C90 C91 1.371 . S
C90 H93 0.931 . S
C91 C87 1.391 . S
C91 C90 1.371 . S
C91 H98 0.930 . S
H92 C89 0.928 . S
H93 C90 0.931 . S
H94 C70 0.930 . S
H95 C67 0.930 . S
H96 C76 0.930 . S
H97 C88 0.929 . S
H98 C91 0.930 . S
C99 C100 1.351 . S
C99 N102 1.368 . S
C99 H104 0.931 . S
C100 C99 1.351 . S
C100 N101 1.373 . S
C100 H128 0.930 . S
N101 C100 1.373 . S
N101 C103 1.340 . S
N102 C99 1.368 . S
N102 C103 1.321 . S
N102 Co105 2.135 . S
C103 N101 1.340 . S
C103 N102 1.321 . S
C103 H127 0.930 . S
H104 C99 0.931 . S
Co105 N102 2.135 . S
Co105 N108 2.121 . S
Co105 O113 2.055 . S
Co105 O116 2.039 . S
Co105 N119 2.140 . S
C106 O107 1.227 . S
C106 O116 1.265 . S
O107 C106 1.227 . S
N108 Co105 2.121 . S
N108 C110 1.375 . S
N108 C111 1.313 . S
C109 C110 1.338 . S
C109 N112 1.377 . S
C109 H129 0.930 . S
C110 N108 1.375 . S
C110 C109 1.338 . S
C110 H114 0.931 . S
C111 N108 1.313 . S
C111 N112 1.344 . S
C111 H115 0.930 . S
N112 C109 1.377 . S
N112 C111 1.344 . S
O113 Co105 2.055 . S
O113 C117 1.253 . S
H114 C110 0.931 . S
H115 C111 0.930 . S
O116 Co105 2.039 . S
O116 C106 1.265 . S
C117 O113 1.253 . S
C117 O118 1.227 . S
O118 C117 1.227 . S
N119 Co105 2.140 . S
N119 C122 1.346 . S
N119 C123 1.345 . S
C120 C121 1.387 . S
C120 C124 1.391 . S
C121 C120 1.387 . S
C121 C122 1.369 . S
C121 H130 0.929 . S
C122 N119 1.346 . S
C122 C121 1.369 . S
C122 H125 0.928 . S
C123 N119 1.345 . S
C123 C124 1.371 . S
C123 H126 0.931 . S
C124 C120 1.391 . S
C124 C123 1.371 . S
C124 H131 0.930 . S
H125 C122 0.928 . S
H126 C123 0.931 . S
H127 C103 0.930 . S
H128 C100 0.930 . S
H129 C109 0.930 . S
H130 C121 0.929 . S
H131 C124 0.930 . S
C132 C133 1.351 . S
C132 N135 1.368 . S
C132 H137 0.931 . S
C133 C132 1.351 . S
C133 N134 1.373 . S
C133 H161 0.930 . S
N134 C133 1.373 . S
N134 C136 1.340 . S
N135 C132 1.368 . S
N135 C136 1.321 . S
N135 Co138 2.135 . S
C136 N134 1.340 . S
C136 N135 1.321 . S
C136 H160 0.930 . S
H137 C132 0.931 . S
Co138 N135 2.135 . S
Co138 N141 2.121 . S
Co138 O146 2.055 . S
Co138 O149 2.039 . S
Co138 N152 2.140 . S
C139 O140 1.227 . S
C139 O149 1.265 . S
O140 C139 1.227 . S
N141 Co138 2.121 . S
N141 C143 1.375 . S
N141 C144 1.313 . S
C142 C143 1.338 . S
C142 N145 1.377 . S
C142 H162 0.930 . S
C143 N141 1.375 . S
C143 C142 1.338 . S
C143 H147 0.931 . S
C144 N141 1.313 . S
C144 N145 1.344 . S
C144 H148 0.930 . S
N145 C142 1.377 . S
N145 C144 1.344 . S
O146 Co138 2.055 . S
O146 C150 1.253 . S
H147 C143 0.931 . S
H148 C144 0.930 . S
O149 Co138 2.039 . S
O149 C139 1.265 . S
C150 O146 1.253 . S
C150 O151 1.227 . S
O151 C150 1.227 . S
N152 Co138 2.140 . S
N152 C155 1.346 . S
N152 C156 1.345 . S
C153 C154 1.387 . S
C153 C157 1.391 . S
C154 C153 1.387 . S
C154 C155 1.369 . S
C154 H163 0.929 . S
C155 N152 1.346 . S
C155 C154 1.369 . S
C155 H158 0.928 . S
C156 N152 1.345 . S
C156 C157 1.371 . S
C156 H159 0.931 . S
C157 C153 1.391 . S
C157 C156 1.371 . S
C157 H164 0.930 . S
H158 C155 0.928 . S
H159 C156 0.931 . S
H160 C136 0.930 . S
H161 C133 0.930 . S
H162 C142 0.930 . S
H163 C154 0.929 . S
H164 C157 0.930 . S
C165 C166 1.351 . S
C165 N168 1.368 . S
C165 H170 0.931 . S
C166 C165 1.351 . S
C166 N167 1.373 . S
C166 H194 0.930 . S
N167 C166 1.373 . S
N167 C169 1.340 . S
N168 C165 1.368 . S
N168 C169 1.321 . S
N168 Co171 2.135 . S
C169 N167 1.340 . S
C169 N168 1.321 . S
C169 H193 0.930 . S
H170 C165 0.931 . S
Co171 N168 2.135 . S
Co171 N174 2.121 . S
Co171 O179 2.055 . S
Co171 O182 2.039 . S
Co171 N185 2.140 . S
C172 O173 1.227 . S
C172 O182 1.265 . S
O173 C172 1.227 . S
N174 Co171 2.121 . S
N174 C176 1.375 . S
N174 C177 1.313 . S
C175 C176 1.338 . S
C175 N178 1.377 . S
C175 H195 0.930 . S
C176 N174 1.375 . S
C176 C175 1.338 . S
C176 H180 0.931 . S
C177 N174 1.313 . S
C177 N178 1.344 . S
C177 H181 0.930 . S
N178 C175 1.377 . S
N178 C177 1.344 . S
O179 Co171 2.055 . S
O179 C183 1.253 . S
H180 C176 0.931 . S
H181 C177 0.930 . S
O182 Co171 2.039 . S
O182 C172 1.265 . S
C183 O179 1.253 . S
C183 O184 1.227 . S
O184 C183 1.227 . S
N185 Co171 2.140 . S
N185 C188 1.346 . S
N185 C189 1.345 . S
C186 C187 1.387 . S
C186 C190 1.391 . S
C187 C186 1.387 . S
C187 C188 1.369 . S
C187 H196 0.929 . S
C188 N185 1.346 . S
C188 C187 1.369 . S
C188 H191 0.928 . S
C189 N185 1.345 . S
C189 C190 1.371 . S
C189 H192 0.931 . S
C190 C186 1.391 . S
C190 C189 1.371 . S
C190 H197 0.930 . S
H191 C188 0.928 . S
H192 C189 0.931 . S
H193 C169 0.930 . S
H194 C166 0.930 . S
H195 C175 0.930 . S
H196 C187 0.929 . S
H197 C190 0.930 . S
C198 C199 1.351 . S
C198 N201 1.368 . S
C198 H203 0.931 . S
C199 C198 1.351 . S
C199 N200 1.373 . S
C199 H227 0.930 . S
N200 C199 1.373 . S
N200 C202 1.340 . S
N201 C198 1.368 . S
N201 C202 1.321 . S
N201 Co204 2.135 . S
C202 N200 1.340 . S
C202 N201 1.321 . S
C202 H226 0.930 . S
H203 C198 0.931 . S
Co204 N201 2.135 . S
Co204 N207 2.121 . S
Co204 O212 2.055 . S
Co204 O215 2.039 . S
Co204 N218 2.140 . S
C205 O206 1.227 . S
C205 O215 1.265 . S
O206 C205 1.227 . S
N207 Co204 2.121 . S
N207 C209 1.375 . S
N207 C210 1.313 . S
C208 C209 1.338 . S
C208 N211 1.377 . S
C208 H228 0.930 . S
C209 N207 1.375 . S
C209 C208 1.338 . S
C209 H213 0.931 . S
C210 N207 1.313 . S
C210 N211 1.344 . S
C210 H214 0.930 . S
N211 C208 1.377 . S
N211 C210 1.344 . S
O212 Co204 2.055 . S
O212 C216 1.253 . S
H213 C209 0.931 . S
H214 C210 0.930 . S
O215 Co204 2.039 . S
O215 C205 1.265 . S
C216 O212 1.253 . S
C216 O217 1.227 . S
O217 C216 1.227 . S
N218 Co204 2.140 . S
N218 C221 1.346 . S
N218 C222 1.345 . S
C219 C220 1.387 . S
C219 C223 1.391 . S
C220 C219 1.387 . S
C220 C221 1.369 . S
C220 H229 0.929 . S
C221 N218 1.346 . S
C221 C220 1.369 . S
C221 H224 0.928 . S
C222 N218 1.345 . S
C222 C223 1.371 . S
C222 H225 0.931 . S
C223 C219 1.391 . S
C223 C222 1.371 . S
C223 H230 0.930 . S
H224 C221 0.928 . S
H225 C222 0.931 . S
H226 C202 0.930 . S
H227 C199 0.930 . S
H228 C208 0.930 . S
H229 C220 0.929 . S
H230 C223 0.930 . S
C231 C232 1.351 . S
C231 N234 1.368 . S
C231 H236 0.931 . S
C232 C231 1.351 . S
C232 N233 1.373 . S
C232 H260 0.930 . S
N233 C232 1.373 . S
N233 C235 1.340 . S
N234 C231 1.368 . S
N234 C235 1.321 . S
N234 Co237 2.135 . S
C235 N233 1.340 . S
C235 N234 1.321 . S
C235 H259 0.930 . S
H236 C231 0.931 . S
Co237 N234 2.135 . S
Co237 N240 2.121 . S
Co237 O245 2.055 . S
Co237 O248 2.039 . S
Co237 N251 2.140 . S
C238 O239 1.227 . S
C238 O248 1.265 . S
O239 C238 1.227 . S
N240 Co237 2.121 . S
N240 C242 1.375 . S
N240 C243 1.313 . S
C241 C242 1.338 . S
C241 N244 1.377 . S
C241 H261 0.930 . S
C242 N240 1.375 . S
C242 C241 1.338 . S
C242 H246 0.931 . S
C243 N240 1.313 . S
C243 N244 1.344 . S
C243 H247 0.930 . S
N244 C241 1.377 . S
N244 C243 1.344 . S
O245 Co237 2.055 . S
O245 C249 1.253 . S
H246 C242 0.931 . S
H247 C243 0.930 . S
O248 Co237 2.039 . S
O248 C238 1.265 . S
C249 O245 1.253 . S
C249 O250 1.227 . S
O250 C249 1.227 . S
N251 Co237 2.140 . S
N251 C254 1.346 . S
N251 C255 1.345 . S
C252 C253 1.387 . S
C252 C256 1.391 . S
C253 C252 1.387 . S
C253 C254 1.369 . S
C253 H262 0.929 . S
C254 N251 1.346 . S
C254 C253 1.369 . S
C254 H257 0.928 . S
C255 N251 1.345 . S
C255 C256 1.371 . S
C255 H258 0.931 . S
C256 C252 1.391 . S
C256 C255 1.371 . S
C256 H263 0.930 . S
H257 C254 0.928 . S
H258 C255 0.931 . S
H259 C235 0.930 . S
H260 C232 0.930 . S
H261 C241 0.930 . S
H262 C253 0.929 . S
H263 C256 0.930 . S
C264 C265 1.351 . S
C264 N267 1.368 . S
C264 H269 0.931 . S
C265 C264 1.351 . S
C265 N266 1.373 . S
C265 H293 0.930 . S
N266 C265 1.373 . S
N266 C268 1.340 . S
N267 C264 1.368 . S
N267 C268 1.321 . S
N267 Co270 2.135 . S
C268 N266 1.340 . S
C268 N267 1.321 . S
C268 H292 0.930 . S
H269 C264 0.931 . S
Co270 N267 2.135 . S
Co270 N273 2.121 . S
Co270 O278 2.055 . S
Co270 O281 2.039 . S
Co270 N284 2.140 . S
C271 O272 1.227 . S
C271 O281 1.265 . S
O272 C271 1.227 . S
N273 Co270 2.121 . S
N273 C275 1.375 . S
N273 C276 1.313 . S
C274 C275 1.338 . S
C274 N277 1.377 . S
C274 H294 0.930 . S
C275 N273 1.375 . S
C275 C274 1.338 . S
C275 H279 0.931 . S
C276 N273 1.313 . S
C276 N277 1.344 . S
C276 H280 0.930 . S
N277 C274 1.377 . S
N277 C276 1.344 . S
O278 Co270 2.055 . S
O278 C282 1.253 . S
H279 C275 0.931 . S
H280 C276 0.930 . S
O281 Co270 2.039 . S
O281 C271 1.265 . S
C282 O278 1.253 . S
C282 O283 1.227 . S
O283 C282 1.227 . S
N284 Co270 2.140 . S
N284 C287 1.346 . S
N284 C288 1.345 . S
C285 C286 1.387 . S
C285 C289 1.391 . S
C286 C285 1.387 . S
C286 C287 1.369 . S
C286 H295 0.929 . S
C287 N284 1.346 . S
C287 C286 1.369 . S
C287 H290 0.928 . S
C288 N284 1.345 . S
C288 C289 1.371 . S
C288 H291 0.931 . S
C289 C285 1.391 . S
C289 C288 1.371 . S
C289 H296 0.930 . S
H290 C287 0.928 . S
H291 C288 0.931 . S
H292 C268 0.930 . S
H293 C265 0.930 . S
H294 C274 0.930 . S
H295 C286 0.929 . S
H296 C289 0.930 . S
C297 C298 1.351 . S
C297 N300 1.368 . S
C297 H302 0.931 . S
C298 C297 1.351 . S
C298 N299 1.373 . S
C298 H326 0.930 . S
N299 C298 1.373 . S
N299 C301 1.340 . S
N300 C297 1.368 . S
N300 C301 1.321 . S
N300 Co303 2.135 . S
C301 N299 1.340 . S
C301 N300 1.321 . S
C301 H325 0.930 . S
H302 C297 0.931 . S
Co303 N300 2.135 . S
Co303 N306 2.121 . S
Co303 O311 2.055 . S
Co303 O314 2.039 . S
Co303 N317 2.140 . S
C304 O305 1.227 . S
C304 O314 1.265 . S
O305 C304 1.227 . S
N306 Co303 2.121 . S
N306 C308 1.375 . S
N306 C309 1.313 . S
C307 C308 1.338 . S
C307 N310 1.377 . S
C307 H327 0.930 . S
C308 N306 1.375 . S
C308 C307 1.338 . S
C308 H312 0.931 . S
C309 N306 1.313 . S
C309 N310 1.344 . S
C309 H313 0.930 . S
N310 C307 1.377 . S
N310 C309 1.344 . S
O311 Co303 2.055 . S
O311 C315 1.253 . S
H312 C308 0.931 . S
H313 C309 0.930 . S
O314 Co303 2.039 . S
O314 C304 1.265 . S
C315 O311 1.253 . S
C315 O316 1.227 . S
O316 C315 1.227 . S
N317 Co303 2.140 . S
N317 C320 1.346 . S
N317 C321 1.345 . S
C318 C319 1.387 . S
C318 C322 1.391 . S
C319 C318 1.387 . S
C319 C320 1.369 . S
C319 H328 0.929 . S
C320 N317 1.346 . S
C320 C319 1.369 . S
C320 H323 0.928 . S
C321 N317 1.345 . S
C321 C322 1.371 . S
C321 H324 0.931 . S
C322 C318 1.391 . S
C322 C321 1.371 . S
C322 H329 0.930 . S
H323 C320 0.928 . S
H324 C321 0.931 . S
H325 C301 0.930 . S
H326 C298 0.930 . S
H327 C307 0.930 . S
H328 C319 0.929 . S
H329 C322 0.930 . S
C330 C331 1.351 . S
C330 N333 1.368 . S
C330 H335 0.931 . S
C331 C330 1.351 . S
C331 N332 1.373 . S
C331 H359 0.930 . S
N332 C331 1.373 . S
N332 C334 1.340 . S
N333 C330 1.368 . S
N333 C334 1.321 . S
N333 Co336 2.135 . S
C334 N332 1.340 . S
C334 N333 1.321 . S
C334 H358 0.930 . S
H335 C330 0.931 . S
Co336 N333 2.135 . S
Co336 N339 2.121 . S
Co336 O344 2.055 . S
Co336 O347 2.039 . S
Co336 N350 2.140 . S
C337 O338 1.227 . S
C337 O347 1.265 . S
O338 C337 1.227 . S
N339 Co336 2.121 . S
N339 C341 1.375 . S
N339 C342 1.313 . S
C340 C341 1.338 . S
C340 N343 1.377 . S
C340 H360 0.930 . S
C341 N339 1.375 . S
C341 C340 1.338 . S
C341 H345 0.931 . S
C342 N339 1.313 . S
C342 N343 1.344 . S
C342 H346 0.930 . S
N343 C340 1.377 . S
N343 C342 1.344 . S
O344 Co336 2.055 . S
O344 C348 1.253 . S
H345 C341 0.931 . S
H346 C342 0.930 . S
O347 Co336 2.039 . S
O347 C337 1.265 . S
C348 O344 1.253 . S
C348 O349 1.227 . S
O349 C348 1.227 . S
N350 Co336 2.140 . S
N350 C353 1.346 . S
N350 C354 1.345 . S
C351 C352 1.387 . S
C351 C355 1.391 . S
C352 C351 1.387 . S
C352 C353 1.369 . S
C352 H361 0.929 . S
C353 N350 1.346 . S
C353 C352 1.369 . S
C353 H356 0.928 . S
C354 N350 1.345 . S
C354 C355 1.371 . S
C354 H357 0.931 . S
C355 C351 1.391 . S
C355 C354 1.371 . S
C355 H362 0.930 . S
H356 C353 0.928 . S
H357 C354 0.931 . S
H358 C334 0.930 . S
H359 C331 0.930 . S
H360 C340 0.930 . S
H361 C352 0.929 . S
H362 C355 0.930 . S
C363 C364 1.351 . S
C363 N366 1.368 . S
C363 H368 0.931 . S
C364 C363 1.351 . S
C364 N365 1.373 . S
C364 H392 0.930 . S
N365 C364 1.373 . S
N365 C367 1.340 . S
N366 C363 1.368 . S
N366 C367 1.321 . S
N366 Co369 2.135 . S
C367 N365 1.340 . S
C367 N366 1.321 . S
C367 H391 0.930 . S
H368 C363 0.931 . S
Co369 N366 2.135 . S
Co369 N372 2.121 . S
Co369 O377 2.055 . S
Co369 O380 2.039 . S
Co369 N383 2.140 . S
C370 O371 1.227 . S
C370 O380 1.265 . S
O371 C370 1.227 . S
N372 Co369 2.121 . S
N372 C374 1.375 . S
N372 C375 1.313 . S
C373 C374 1.338 . S
C373 N376 1.377 . S
C373 H393 0.930 . S
C374 N372 1.375 . S
C374 C373 1.338 . S
C374 H378 0.931 . S
C375 N372 1.313 . S
C375 N376 1.344 . S
C375 H379 0.930 . S
N376 C373 1.377 . S
N376 C375 1.344 . S
O377 Co369 2.055 . S
O377 C381 1.253 . S
H378 C374 0.931 . S
H379 C375 0.930 . S
O380 Co369 2.039 . S
O380 C370 1.265 . S
C381 O377 1.253 . S
C381 O382 1.227 . S
O382 C381 1.227 . S
N383 Co369 2.140 . S
N383 C386 1.346 . S
N383 C387 1.345 . S
C384 C385 1.387 . S
C384 C388 1.391 . S
C385 C384 1.387 . S
C385 C386 1.369 . S
C385 H394 0.929 . S
C386 N383 1.346 . S
C386 C385 1.369 . S
C386 H389 0.928 . S
C387 N383 1.345 . S
C387 C388 1.371 . S
C387 H390 0.931 . S
C388 C384 1.391 . S
C388 C387 1.371 . S
C388 H395 0.930 . S
H389 C386 0.928 . S
H390 C387 0.931 . S
H391 C367 0.930 . S
H392 C364 0.930 . S
H393 C373 0.930 . S
H394 C385 0.929 . S
H395 C388 0.930 . S
H396 C404 0.950 . S
H397 C409 0.950 . S
H398 C406 0.950 . S
H399 C408 0.950 . S
H400 C410 0.950 . S
H401 C412 0.950 . S
H402 C414 0.950 . S
H403 C415 0.950 . S
C404 H396 0.950 . S
C404 C405 1.386 . S
C404 C406 1.391 . S
C405 C404 1.386 . S
C405 C409 1.393 . S
C406 H398 0.950 . S
C406 C404 1.391 . S
C406 C407 1.400 . S
C407 C406 1.400 . S
C407 C408 1.398 . S
C407 C413 1.491 . S
C408 H399 0.950 . S
C408 C407 1.398 . S
C408 C409 1.391 . S
C409 H397 0.950 . S
C409 C405 1.393 . S
C409 C408 1.391 . S
C410 H400 0.950 . S
C410 C411 1.386 . S
C410 C412 1.391 . S
C411 C410 1.386 . S
C411 C415 1.393 . S
C412 H401 0.950 . S
C412 C410 1.391 . S
C412 C413 1.400 . S
C413 C407 1.491 . S
C413 C412 1.400 . S
C413 C414 1.398 . S
C414 H402 0.950 . S
C414 C413 1.398 . S
C414 C415 1.391 . S
C415 H403 0.950 . S
C415 C411 1.393 . S
C415 C414 1.391 . S
H416 C424 0.950 . S
H417 C429 0.950 . S
H418 C426 0.950 . S
H419 C428 0.950 . S
H420 C430 0.950 . S
H421 C432 0.950 . S
H422 C434 0.950 . S
H423 C435 0.950 . S
C424 H416 0.950 . S
C424 C425 1.386 . S
C424 C426 1.391 . S
C425 C424 1.386 . S
C425 C429 1.393 . S
C426 H418 0.950 . S
C426 C424 1.391 . S
C426 C427 1.400 . S
C427 C426 1.400 . S
C427 C428 1.398 . S
C427 C433 1.491 . S
C428 H419 0.950 . S
C428 C427 1.398 . S
C428 C429 1.391 . S
C429 H417 0.950 . S
C429 C425 1.393 . S
C429 C428 1.391 . S
C430 H420 0.950 . S
C430 C431 1.386 . S
C430 C432 1.391 . S
C431 C430 1.386 . S
C431 C435 1.393 . S
C432 H421 0.950 . S
C432 C430 1.391 . S
C432 C433 1.400 . S
C433 C427 1.491 . S
C433 C432 1.400 . S
C433 C434 1.398 . S
C434 H422 0.950 . S
C434 C433 1.398 . S
C434 C435 1.391 . S
C435 H423 0.950 . S
C435 C431 1.393 . S
C435 C434 1.391 . S
H436 C444 0.950 . S
H437 C449 0.950 . S
H438 C446 0.950 . S
H439 C448 0.950 . S
H440 C450 0.950 . S
H441 C452 0.950 . S
H442 C454 0.950 . S
H443 C455 0.950 . S
C444 H436 0.950 . S
C444 C445 1.386 . S
C444 C446 1.391 . S
C445 C444 1.386 . S
C445 C449 1.393 . S
C446 H438 0.950 . S
C446 C444 1.391 . S
C446 C447 1.400 . S
C447 C446 1.400 . S
C447 C448 1.398 . S
C447 C453 1.491 . S
C448 H439 0.950 . S
C448 C447 1.398 . S
C448 C449 1.391 . S
C449 H437 0.950 . S
C449 C445 1.393 . S
C449 C448 1.391 . S
C450 H440 0.950 . S
C450 C451 1.386 . S
C450 C452 1.391 . S
C451 C450 1.386 . S
C451 C455 1.393 . S
C452 H441 0.950 . S
C452 C450 1.391 . S
C452 C453 1.400 . S
C453 C447 1.491 . S
C453 C452 1.400 . S
C453 C454 1.398 . S
C454 H442 0.950 . S
C454 C453 1.398 . S
C454 C455 1.391 . S
C455 H443 0.950 . S
C455 C451 1.393 . S
C455 C454 1.391 . S
H456 C464 0.950 . S
H457 C469 0.950 . S
H458 C466 0.950 . S
H459 C468 0.950 . S
H460 C470 0.950 . S
H461 C472 0.950 . S
H462 C474 0.950 . S
H463 C475 0.950 . S
C464 H456 0.950 . S
C464 C465 1.386 . S
C464 C466 1.391 . S
C465 C464 1.386 . S
C465 C469 1.393 . S
C466 H458 0.950 . S
C466 C464 1.391 . S
C466 C467 1.400 . S
C467 C466 1.400 . S
C467 C468 1.398 . S
C467 C473 1.491 . S
C468 H459 0.950 . S
C468 C467 1.398 . S
C468 C469 1.391 . S
C469 H457 0.950 . S
C469 C465 1.393 . S
C469 C468 1.391 . S
C470 H460 0.950 . S
C470 C471 1.386 . S
C470 C472 1.391 . S
C471 C470 1.386 . S
C471 C475 1.393 . S
C472 H461 0.950 . S
C472 C470 1.391 . S
C472 C473 1.400 . S
C473 C467 1.491 . S
C473 C472 1.400 . S
C473 C474 1.398 . S
C474 H462 0.950 . S
C474 C473 1.398 . S
C474 C475 1.391 . S
C475 H463 0.950 . S
C475 C471 1.393 . S
C475 C474 1.391 . S
H476 C484 0.950 . S
H477 C489 0.950 . S
H478 C486 0.950 . S
H479 C488 0.950 . S
H480 C490 0.950 . S
H481 C492 0.950 . S
H482 C494 0.950 . S
H483 C495 0.950 . S
C484 H476 0.950 . S
C484 C485 1.386 . S
C484 C486 1.391 . S
C485 C484 1.386 . S
C485 C489 1.393 . S
C486 H478 0.950 . S
C486 C484 1.391 . S
C486 C487 1.400 . S
C487 C486 1.400 . S
C487 C488 1.398 . S
C487 C493 1.491 . S
C488 H479 0.950 . S
C488 C487 1.398 . S
C488 C489 1.391 . S
C489 H477 0.950 . S
C489 C485 1.393 . S
C489 C488 1.391 . S
C490 H480 0.950 . S
C490 C491 1.386 . S
C490 C492 1.391 . S
C491 C490 1.386 . S
C491 C495 1.393 . S
C492 H481 0.950 . S
C492 C490 1.391 . S
C492 C493 1.400 . S
C493 C487 1.491 . S
C493 C492 1.400 . S
C493 C494 1.398 . S
C494 H482 0.950 . S
C494 C493 1.398 . S
C494 C495 1.391 . S
C495 H483 0.950 . S
C495 C491 1.393 . S
C495 C494 1.391 . S
H496 C504 0.950 . S
H497 C509 0.950 . S
H498 C506 0.950 . S
H499 C508 0.950 . S
H500 C510 0.950 . S
H501 C512 0.950 . S
H502 C514 0.950 . S
H503 C515 0.950 . S
C504 H496 0.950 . S
C504 C505 1.386 . S
C504 C506 1.391 . S
C505 C504 1.386 . S
C505 C509 1.393 . S
C506 H498 0.950 . S
C506 C504 1.391 . S
C506 C507 1.400 . S
C507 C506 1.400 . S
C507 C508 1.398 . S
C507 C513 1.491 . S
C508 H499 0.950 . S
C508 C507 1.398 . S
C508 C509 1.391 . S
C509 H497 0.950 . S
C509 C505 1.393 . S
C509 C508 1.391 . S
C510 H500 0.950 . S
C510 C511 1.386 . S
C510 C512 1.391 . S
C511 C510 1.386 . S
C511 C515 1.393 . S
C512 H501 0.950 . S
C512 C510 1.391 . S
C512 C513 1.400 . S
C513 C507 1.491 . S
C513 C512 1.400 . S
C513 C514 1.398 . S
C514 H502 0.950 . S
C514 C513 1.398 . S
C514 C515 1.391 . S
C515 H503 0.950 . S
C515 C511 1.393 . S
C515 C514 1.391 . S
H516 C524 0.950 . S
H517 C529 0.950 . S
H518 C526 0.950 . S
H519 C528 0.950 . S
H520 C530 0.950 . S
H521 C532 0.950 . S
H522 C534 0.950 . S
H523 C535 0.950 . S
C524 H516 0.950 . S
C524 C525 1.386 . S
C524 C526 1.391 . S
C525 C524 1.386 . S
C525 C529 1.393 . S
C526 H518 0.950 . S
C526 C524 1.391 . S
C526 C527 1.400 . S
C527 C526 1.400 . S
C527 C528 1.398 . S
C527 C533 1.491 . S
C528 H519 0.950 . S
C528 C527 1.398 . S
C528 C529 1.391 . S
C529 H517 0.950 . S
C529 C525 1.393 . S
C529 C528 1.391 . S
C530 H520 0.950 . S
C530 C531 1.386 . S
C530 C532 1.391 . S
C531 C530 1.386 . S
C531 C535 1.393 . S
C532 H521 0.950 . S
C532 C530 1.391 . S
C532 C533 1.400 . S
C533 C527 1.491 . S
C533 C532 1.400 . S
C533 C534 1.398 . S
C534 H522 0.950 . S
C534 C533 1.398 . S
C534 C535 1.391 . S
C535 H523 0.950 . S
C535 C531 1.393 . S
C535 C534 1.391 . S
H536 C544 0.950 . S
H537 C549 0.950 . S
H538 C546 0.950 . S
H539 C548 0.950 . S
H540 C550 0.950 . S
H541 C552 0.950 . S
H542 C554 0.950 . S
H543 C555 0.950 . S
C544 H536 0.950 . S
C544 C545 1.386 . S
C544 C546 1.391 . S
C545 C544 1.386 . S
C545 C549 1.393 . S
C546 H538 0.950 . S
C546 C544 1.391 . S
C546 C547 1.400 . S
C547 C546 1.400 . S
C547 C548 1.398 . S
C547 C553 1.491 . S
C548 H539 0.950 . S
C548 C547 1.398 . S
C548 C549 1.391 . S
C549 H537 0.950 . S
C549 C545 1.393 . S
C549 C548 1.391 . S
C550 H540 0.950 . S
C550 C551 1.386 . S
C550 C552 1.391 . S
C551 C550 1.386 . S
C551 C555 1.393 . S
C552 H541 0.950 . S
C552 C550 1.391 . S
C552 C553 1.400 . S
C553 C547 1.491 . S
C553 C552 1.400 . S
C553 C554 1.398 . S
C554 H542 0.950 . S
C554 C553 1.398 . S
C554 C555 1.391 . S
C555 H543 0.950 . S
C555 C551 1.393 . S
C555 C554 1.391 . S
H556 C564 0.950 . S
H557 C569 0.950 . S
H558 C566 0.950 . S
H559 C568 0.950 . S
H560 C570 0.950 . S
H561 C572 0.950 . S
H562 C574 0.950 . S
H563 C575 0.950 . S
C564 H556 0.950 . S
C564 C565 1.386 . S
C564 C566 1.391 . S
C565 C564 1.386 . S
C565 C569 1.393 . S
C566 H558 0.950 . S
C566 C564 1.391 . S
C566 C567 1.400 . S
C567 C566 1.400 . S
C567 C568 1.398 . S
C567 C573 1.491 . S
C568 H559 0.950 . S
C568 C567 1.398 . S
C568 C569 1.391 . S
C569 H557 0.950 . S
C569 C565 1.393 . S
C569 C568 1.391 . S
C570 H560 0.950 . S
C570 C571 1.386 . S
C570 C572 1.391 . S
C571 C570 1.386 . S
C571 C575 1.393 . S
C572 H561 0.950 . S
C572 C570 1.391 . S
C572 C573 1.400 . S
C573 C567 1.491 . S
C573 C572 1.400 . S
C573 C574 1.398 . S
C574 H562 0.950 . S
C574 C573 1.398 . S
C574 C575 1.391 . S
C575 H563 0.950 . S
C575 C571 1.393 . S
C575 C574 1.391 . S
H576 C584 0.950 . S
H577 C589 0.950 . S
H578 C586 0.950 . S
H579 C588 0.950 . S
H580 C590 0.950 . S
H581 C592 0.950 . S
H582 C594 0.950 . S
H583 C595 0.950 . S
C584 H576 0.950 . S
C584 C585 1.386 . S
C584 C586 1.391 . S
C585 C584 1.386 . S
C585 C589 1.393 . S
C586 H578 0.950 . S
C586 C584 1.391 . S
C586 C587 1.400 . S
C587 C586 1.400 . S
C587 C588 1.398 . S
C587 C593 1.491 . S
C588 H579 0.950 . S
C588 C587 1.398 . S
C588 C589 1.391 . S
C589 H577 0.950 . S
C589 C585 1.393 . S
C589 C588 1.391 . S
C590 H580 0.950 . S
C590 C591 1.386 . S
C590 C592 1.391 . S
C591 C590 1.386 . S
C591 C595 1.393 . S
C592 H581 0.950 . S
C592 C590 1.391 . S
C592 C593 1.400 . S
C593 C587 1.491 . S
C593 C592 1.400 . S
C593 C594 1.398 . S
C594 H582 0.950 . S
C594 C593 1.398 . S
C594 C595 1.391 . S
C595 H583 0.950 . S
C595 C591 1.393 . S
C595 C594 1.391 . S
H596 C604 0.950 . S
H597 C609 0.950 . S
H598 C606 0.950 . S
H599 C608 0.950 . S
H600 C610 0.950 . S
H601 C612 0.950 . S
H602 C614 0.950 . S
H603 C615 0.950 . S
C604 H596 0.950 . S
C604 C605 1.386 . S
C604 C606 1.391 . S
C605 C604 1.386 . S
C605 C609 1.393 . S
C606 H598 0.950 . S
C606 C604 1.391 . S
C606 C607 1.400 . S
C607 C606 1.400 . S
C607 C608 1.398 . S
C607 C613 1.491 . S
C608 H599 0.950 . S
C608 C607 1.398 . S
C608 C609 1.391 . S
C609 H597 0.950 . S
C609 C605 1.393 . S
C609 C608 1.391 . S
C610 H600 0.950 . S
C610 C611 1.386 . S
C610 C612 1.391 . S
C611 C610 1.386 . S
C611 C615 1.393 . S
C612 H601 0.950 . S
C612 C610 1.391 . S
C612 C613 1.400 . S
C613 C607 1.491 . S
C613 C612 1.400 . S
C613 C614 1.398 . S
C614 H602 0.950 . S
C614 C613 1.398 . S
C614 C615 1.391 . S
C615 H603 0.950 . S
C615 C611 1.393 . S
C615 C614 1.391 . S
H616 C624 0.950 . S
H617 C629 0.950 . S
H618 C626 0.950 . S
H619 C628 0.950 . S
H620 C630 0.950 . S
H621 C632 0.950 . S
H622 C634 0.950 . S
H623 C635 0.950 . S
C624 H616 0.950 . S
C624 C625 1.386 . S
C624 C626 1.391 . S
C625 C624 1.386 . S
C625 C629 1.393 . S
C626 H618 0.950 . S
C626 C624 1.391 . S
C626 C627 1.400 . S
C627 C626 1.400 . S
C627 C628 1.398 . S
C627 C633 1.491 . S
C628 H619 0.950 . S
C628 C627 1.398 . S
C628 C629 1.391 . S
C629 H617 0.950 . S
C629 C625 1.393 . S
C629 C628 1.391 . S
C630 H620 0.950 . S
C630 C631 1.386 . S
C630 C632 1.391 . S
C631 C630 1.386 . S
C631 C635 1.393 . S
C632 H621 0.950 . S
C632 C630 1.391 . S
C632 C633 1.400 . S
C633 C627 1.491 . S
C633 C632 1.400 . S
C633 C634 1.398 . S
C634 H622 0.950 . S
C634 C633 1.398 . S
C634 C635 1.391 . S
C635 H623 0.950 . S
C635 C631 1.393 . S
C635 C634 1.391 . S
H636 C644 0.950 . S
H637 C649 0.950 . S
H638 C646 0.950 . S
H639 C648 0.950 1_556 S
H640 C650 0.950 . S
H641 C652 0.950 . S
H642 C654 0.950 1_554 S
H643 C655 0.950 . S
C644 H636 0.950 . S
C644 C645 1.386 . S
C644 C646 1.391 . S
C645 C644 1.386 . S
C645 C649 1.393 . S
C646 H638 0.950 . S
C646 C644 1.391 . S
C646 C647 1.400 . S
C647 C646 1.400 . S
C647 C648 1.398 . S
C647 C653 1.491 1_554 S
C648 H639 0.950 1_554 S
C648 C647 1.398 . S
C648 C649 1.391 . S
C649 H637 0.950 . S
C649 C645 1.393 . S
C649 C648 1.391 . S
C650 H640 0.950 . S
C650 C651 1.386 1_545 S
C650 C652 1.391 . S
C651 C650 1.386 1_565 S
C651 C655 1.393 . S
C652 H641 0.950 . S
C652 C650 1.391 . S
C652 C653 1.400 . S
C653 C647 1.491 1_556 S
C653 C652 1.400 . S
C653 C654 1.398 1_545 S
C654 H642 0.950 1_556 S
C654 C653 1.398 1_565 S
C654 C655 1.391 . S
C655 H643 0.950 . S
C655 C651 1.393 . S
C655 C654 1.391 . S
H656 C664 0.950 . S
H657 C669 0.950 . S
H658 C666 0.950 . S
H659 C668 0.950 . S
H660 C670 0.962 . S
H661 C672 0.950 . S
H662 C674 0.950 . S
H663 C675 0.950 . S
C664 H656 0.950 . S
C664 C665 1.386 . S
C664 C666 1.391 . S
C665 C664 1.386 . S
C665 C669 1.393 . S
C666 H658 0.950 . S
C666 C664 1.391 . S
C666 C667 1.400 . S
C667 C666 1.400 . S
C667 C668 1.398 . S
C667 C673 1.491 1_554 S
C668 H659 0.950 . S
C668 C667 1.398 . S
C668 C669 1.391 . S
C669 H657 0.950 . S
C669 C665 1.393 . S
C669 C668 1.391 . S
C670 H660 0.962 . S
C670 C671 1.383 . S
C670 C672 1.382 1_455 S
C671 C670 1.383 . S
C671 C675 1.393 . S
C672 H661 0.950 . S
C672 C670 1.382 1_655 S
C672 C673 1.400 . S
C673 C667 1.491 1_556 S
C673 C672 1.400 . S
C673 C674 1.398 . S
C674 H662 0.950 . S
C674 C673 1.398 . S
C674 C675 1.391 1_655 S
C675 H663 0.950 . S
C675 C671 1.393 . S
C675 C674 1.391 1_455 S
H676 C684 0.950 . S
H677 C689 0.950 . S
H678 C686 0.950 . S
H679 C688 0.950 . S
H680 C690 0.950 . S
H681 C692 0.950 . S
H682 C694 0.950 . S
H683 C695 0.950 . S
C684 H676 0.950 . S
C684 C685 1.386 . S
C684 C686 1.391 . S
C685 C684 1.386 . S
C685 C689 1.393 . S
C686 H678 0.950 . S
C686 C684 1.391 . S
C686 C687 1.400 . S
C687 C686 1.400 . S
C687 C688 1.398 . S
C687 C693 1.491 1_554 S
C688 H679 0.950 . S
C688 C687 1.398 . S
C688 C689 1.391 . S
C689 H677 0.950 . S
C689 C685 1.393 . S
C689 C688 1.391 . S
C690 H680 0.950 . S
C690 C691 1.386 . S
C690 C692 1.391 . S
C691 C690 1.386 . S
C691 C695 1.393 . S
C692 H681 0.950 . S
C692 C690 1.391 . S
C692 C693 1.400 . S
C693 C687 1.491 1_556 S
C693 C692 1.400 . S
C693 C694 1.398 . S
C694 H682 0.950 . S
C694 C693 1.398 . S
C694 C695 1.391 . S
C695 H683 0.950 . S
C695 C691 1.393 . S
C695 C694 1.391 . S
H696 C704 0.950 . S
H697 C709 0.950 . S
H698 C706 0.950 . S
H699 C708 0.950 . S
H700 C710 0.950 . S
H701 C712 0.950 . S
H702 C714 0.950 . S
H703 C715 0.950 . S
C704 H696 0.950 . S
C704 C705 1.386 1_455 S
C704 C706 1.391 . S
C705 C704 1.386 1_655 S
C705 C709 1.393 . S
C706 H698 0.950 . S
C706 C704 1.391 . S
C706 C707 1.400 . S
C707 C706 1.400 . S
C707 C708 1.398 . S
C707 C713 1.491 . S
C708 H699 0.950 . S
C708 C707 1.398 . S
C708 C709 1.391 1_455 S
C709 H697 0.950 . S
C709 C705 1.393 . S
C709 C708 1.391 1_655 S
C710 H700 0.950 . S
C710 C711 1.386 . S
C710 C712 1.391 . S
C711 C710 1.386 . S
C711 C715 1.393 . S
C712 H701 0.950 . S
C712 C710 1.391 . S
C712 C713 1.400 . S
C713 C707 1.491 . S
C713 C712 1.400 . S
C713 C714 1.398 . S
C714 H702 0.950 . S
C714 C713 1.398 . S
C714 C715 1.391 . S
C715 H703 0.950 . S
C715 C711 1.393 . S
C715 C714 1.391 . S
H716 C724 0.950 . S
H717 C729 0.950 . S
H718 C726 0.950 . S
H719 C728 0.950 . S
H720 C730 0.950 . S
H721 C732 0.950 . S
H722 C734 0.950 . S
H723 C735 0.950 . S
C724 H716 0.950 . S
C724 C725 1.386 . S
C724 C726 1.391 . S
C725 C724 1.386 . S
C725 C729 1.393 . S
C726 H718 0.950 . S
C726 C724 1.391 . S
C726 C727 1.400 . S
C727 C726 1.400 . S
C727 C728 1.398 . S
C727 C733 1.491 . S
C728 H719 0.950 . S
C728 C727 1.398 . S
C728 C729 1.391 . S
C729 H717 0.950 . S
C729 C725 1.393 . S
C729 C728 1.391 . S
C730 H720 0.950 . S
C730 C731 1.386 . S
C730 C732 1.391 . S
C731 C730 1.386 . S
C731 C735 1.393 . S
C732 H721 0.950 . S
C732 C730 1.391 . S
C732 C733 1.400 . S
C733 C727 1.491 . S
C733 C732 1.400 . S
C733 C734 1.398 . S
C734 H722 0.950 . S
C734 C733 1.398 . S
C734 C735 1.391 . S
C735 H723 0.950 . S
C735 C731 1.393 . S
C735 C734 1.391 . S
H736 C744 0.950 . S
H737 C749 0.950 . S
H738 C746 0.950 . S
H739 C748 0.950 . S
H740 C750 0.950 . S
H741 C752 0.950 . S
H742 C754 0.950 . S
H743 C755 0.950 . S
C744 H736 0.950 . S
C744 C745 1.386 1_565 S
C744 C746 1.391 . S
C745 C744 1.386 1_545 S
C745 C749 1.393 . S
C746 H738 0.950 . S
C746 C744 1.391 . S
C746 C747 1.400 . S
C747 C746 1.400 . S
C747 C748 1.398 . S
C747 C753 1.491 . S
C748 H739 0.950 . S
C748 C747 1.398 . S
C748 C749 1.391 1_565 S
C749 H737 0.950 . S
C749 C745 1.393 . S
C749 C748 1.391 1_545 S
C750 H740 0.950 . S
C750 C751 1.386 . S
C750 C752 1.391 . S
C751 C750 1.386 . S
C751 C755 1.393 . S
C752 H741 0.950 . S
C752 C750 1.391 . S
C752 C753 1.400 . S
C753 C747 1.491 . S
C753 C752 1.400 . S
C753 C754 1.398 . S
C754 H742 0.950 . S
C754 C753 1.398 . S
C754 C755 1.391 . S
C755 H743 0.950 . S
C755 C751 1.393 . S
C755 C754 1.391 . S
H756 C764 0.950 . S
H757 C769 0.950 . S
H758 C766 0.950 . S
H759 C768 0.950 . S
H760 C770 0.950 . S
H761 C772 0.950 . S
H762 C774 0.950 . S
H763 C775 0.950 . S
C764 H756 0.950 . S
C764 C765 1.386 . S
C764 C766 1.391 1_545 S
C765 C764 1.386 . S
C765 C769 1.393 . S
C766 H758 0.950 . S
C766 C764 1.391 1_565 S
C766 C767 1.400 . S
C767 C766 1.400 . S
C767 C768 1.398 . S
C767 C773 1.491 1_554 S
C768 H759 0.950 . S
C768 C767 1.398 . S
C768 C769 1.391 1_565 S
C769 H757 0.950 . S
C769 C765 1.393 . S
C769 C768 1.391 1_545 S
C770 H760 0.950 . S
C770 C771 1.386 . S
C770 C772 1.391 . S
C771 C770 1.386 . S
C771 C775 1.393 . S
C772 H761 0.950 . S
C772 C770 1.391 . S
C772 C773 1.400 . S
C773 C767 1.491 1_556 S
C773 C772 1.400 . S
C773 C774 1.398 . S
C774 H762 0.950 . S
C774 C773 1.398 . S
C774 C775 1.391 . S
C775 H763 0.950 . S
C775 C771 1.393 . S
C775 C774 1.391 . S
H776 C784 0.950 . S
H777 C789 0.950 . S
H778 C786 0.950 1_556 S
H779 C788 0.950 . S
H780 C790 0.950 . S
H781 C792 0.950 1_554 S
H782 C794 0.950 . S
H783 C795 0.950 . S
C784 H776 0.950 . S
C784 C785 1.386 . S
C784 C786 1.391 1_655 S
C785 C784 1.386 . S
C785 C789 1.393 1_655 S
C786 H778 0.950 1_554 S
C786 C784 1.391 1_455 S
C786 C787 1.400 . S
C787 C786 1.400 . S
C787 C788 1.398 . S
C787 C793 1.491 1_554 S
C788 H779 0.950 . S
C788 C787 1.398 . S
C788 C789 1.391 . S
C789 H777 0.950 . S
C789 C785 1.393 1_455 S
C789 C788 1.391 . S
C790 H780 0.950 . S
C790 C791 1.386 . S
C790 C792 1.391 . S
C791 C790 1.386 . S
C791 C795 1.393 . S
C792 H781 0.950 1_556 S
C792 C790 1.391 . S
C792 C793 1.400 . S
C793 C787 1.491 1_556 S
C793 C792 1.400 . S
C793 C794 1.398 . S
C794 H782 0.950 . S
C794 C793 1.398 . S
C794 C795 1.391 . S
C795 H783 0.950 . S
C795 C791 1.393 . S
C795 C794 1.391 . S
H796 C804 0.950 . S
H797 C809 0.950 . S
H798 C806 0.950 . S
H799 C808 0.950 . S
H800 C810 0.950 . S
H801 C812 0.950 1_556 S
H802 C814 0.950 . S
H803 C815 0.950 . S
C804 H796 0.950 . S
C804 C805 1.386 . S
C804 C806 1.391 . S
C805 C804 1.386 . S
C805 C809 1.393 . S
C806 H798 0.950 . S
C806 C804 1.391 . S
C806 C807 1.400 . S
C807 C806 1.400 . S
C807 C808 1.398 . S
C807 C813 1.491 1_556 S
C808 H799 0.950 . S
C808 C807 1.398 . S
C808 C809 1.391 . S
C809 H797 0.950 . S
C809 C805 1.393 . S
C809 C808 1.391 . S
C810 H800 0.950 . S
C810 C811 1.386 . S
C810 C812 1.391 . S
C811 C810 1.386 . S
C811 C815 1.393 . S
C812 H801 0.950 1_554 S
C812 C810 1.391 . S
C812 C813 1.400 . S
C813 C807 1.491 1_554 S
C813 C812 1.400 . S
C813 C814 1.398 . S
C814 H802 0.950 . S
C814 C813 1.398 . S
C814 C815 1.391 . S
C815 H803 0.950 . S
C815 C811 1.393 . S
C815 C814 1.391 . S
H816 C824 0.950 . S
H817 C829 0.950 . S
H818 C826 0.950 1_455 S
H819 C828 0.950 . S
H820 C830 0.950 . S
H821 C832 0.950 . S
H822 C834 0.950 . S
H823 C835 0.950 . S
C824 H816 0.950 . S
C824 C825 1.386 . S
C824 C826 1.380 1_455 S
C825 C824 1.386 . S
C825 C829 1.393 1_455 S
C826 H818 0.950 1_655 S
C826 C824 1.380 1_655 S
C826 C827 1.412 . S
C827 C826 1.412 . S
C827 C828 1.398 . S
C827 C833 1.491 . S
C828 H819 0.950 . S
C828 C827 1.398 . S
C828 C829 1.391 . S
C829 H817 0.950 . S
C829 C825 1.393 1_655 S
C829 C828 1.391 . S
C830 H820 0.950 . S
C830 C831 1.386 . S
C830 C832 1.391 . S
C831 C830 1.386 . S
C831 C835 1.393 . S
C832 H821 0.950 . S
C832 C830 1.391 . S
C832 C833 1.400 . S
C833 C827 1.491 . S
C833 C832 1.400 . S
C833 C834 1.398 . S
C834 H822 0.950 . S
C834 C833 1.398 . S
C834 C835 1.391 . S
C835 H823 0.950 . S
C835 C831 1.393 . S
C835 C834 1.391 . S
H836 C844 0.950 . S
H837 C849 0.950 . S
H838 C846 0.950 . S
H839 C848 0.950 . S
H840 C850 0.950 . S
H841 C852 0.950 . S
H842 C854 0.950 . S
H843 C855 0.950 . S
C844 H836 0.950 . S
C844 C845 1.386 . S
C844 C846 1.391 . S
C845 C844 1.386 . S
C845 C849 1.393 . S
C846 H838 0.950 . S
C846 C844 1.391 . S
C846 C847 1.400 . S
C847 C846 1.400 . S
C847 C848 1.398 . S
C847 C853 1.491 . S
C848 H839 0.950 . S
C848 C847 1.398 . S
C848 C849 1.391 . S
C849 H837 0.950 . S
C849 C845 1.393 . S
C849 C848 1.391 . S
C850 H840 0.950 . S
C850 C851 1.386 . S
C850 C852 1.391 . S
C851 C850 1.386 . S
C851 C855 1.393 . S
C852 H841 0.950 . S
C852 C850 1.391 . S
C852 C853 1.400 . S
C853 C847 1.491 . S
C853 C852 1.400 . S
C853 C854 1.398 . S
C854 H842 0.950 . S
C854 C853 1.398 . S
C854 C855 1.391 . S
C855 H843 0.950 . S
C855 C851 1.393 . S
C855 C854 1.391 . S
H856 C864 0.950 . S
H857 C869 0.950 . S
H858 C866 0.950 . S
H859 C868 0.950 . S
H860 C870 0.950 . S
H861 C872 0.950 . S
H862 C874 0.950 1_565 S
H863 C875 0.950 . S
C864 H856 0.950 . S
C864 C865 1.386 . S
C864 C866 1.391 . S
C865 C864 1.386 . S
C865 C869 1.393 . S
C866 H858 0.950 . S
C866 C864 1.391 . S
C866 C867 1.400 . S
C867 C866 1.400 . S
C867 C868 1.398 . S
C867 C873 1.491 . S
C868 H859 0.950 . S
C868 C867 1.398 . S
C868 C869 1.391 . S
C869 H857 0.950 . S
C869 C865 1.393 . S
C869 C868 1.391 . S
C870 H860 0.950 . S
C870 C871 1.386 1_545 S
C870 C872 1.391 . S
C871 C870 1.386 1_565 S
C871 C875 1.393 . S
C872 H861 0.950 . S
C872 C870 1.391 . S
C872 C873 1.400 . S
C873 C867 1.491 . S
C873 C872 1.400 . S
C873 C874 1.400 . S
C874 H862 0.950 1_545 S
C874 C873 1.400 . S
C874 C875 1.389 1_545 S
C875 H863 0.950 . S
C875 C871 1.393 . S
C875 C874 1.389 1_565 S
H876 C884 0.950 . S
H877 C889 0.950 . S
H878 C886 0.950 . S
H879 C888 0.950 . S
H880 C890 0.950 . S
H881 C892 0.950 . S
H882 C894 0.950 . S
H883 C895 0.950 . S
C884 H876 0.950 . S
C884 C885 1.386 . S
C884 C886 1.391 . S
C885 C884 1.386 . S
C885 C889 1.393 . S
C886 H878 0.950 . S
C886 C884 1.391 . S
C886 C887 1.400 . S
C887 C886 1.400 . S
C887 C888 1.398 . S
C887 C893 1.491 . S
C888 H879 0.950 . S
C888 C887 1.398 . S
C888 C889 1.391 . S
C889 H877 0.950 . S
C889 C885 1.393 . S
C889 C888 1.391 . S
C890 H880 0.950 . S
C890 C891 1.386 . S
C890 C892 1.391 . S
C891 C890 1.386 . S
C891 C895 1.393 . S
C892 H881 0.950 . S
C892 C890 1.391 . S
C892 C893 1.400 . S
C893 C887 1.491 . S
C893 C892 1.400 . S
C893 C894 1.398 . S
C894 H882 0.950 . S
C894 C893 1.398 . S
C894 C895 1.391 . S
C895 H883 0.950 . S
C895 C891 1.393 . S
C895 C894 1.391 . S
H896 C904 0.950 . S
H897 C909 0.950 . S
H898 C906 0.950 1_565 S
H899 C908 0.950 . S
H900 C910 0.950 . S
H901 C912 0.950 1_545 S
H902 C914 0.950 . S
H903 C915 0.950 . S
C904 H896 0.950 . S
C904 C905 1.386 . S
C904 C906 1.391 . S
C905 C904 1.386 . S
C905 C909 1.393 . S
C906 H898 0.950 1_545 S
C906 C904 1.391 . S
C906 C907 1.400 . S
C907 C906 1.400 . S
C907 C908 1.398 . S
C907 C913 1.491 1_545 S
C908 H899 0.950 . S
C908 C907 1.398 . S
C908 C909 1.391 . S
C909 H897 0.950 . S
C909 C905 1.393 . S
C909 C908 1.391 . S
C910 H900 0.950 . S
C910 C911 1.386 . S
C910 C912 1.391 . S
C911 C910 1.386 . S
C911 C915 1.393 . S
C912 H901 0.950 1_565 S
C912 C910 1.391 . S
C912 C913 1.400 . S
C913 C907 1.491 1_565 S
C913 C912 1.400 . S
C913 C914 1.398 . S
C914 H902 0.950 . S
C914 C913 1.398 . S
C914 C915 1.391 . S
C915 H903 0.950 . S
C915 C911 1.393 . S
C915 C914 1.391 . S
H916 C924 0.950 . S
H917 C929 0.950 . S
H918 C926 0.950 . S
H919 C928 0.950 1_455 S
H920 C930 0.950 . S
H921 C932 0.950 . S
H922 C934 0.950 1_655 S
H923 C935 0.950 . S
C924 H916 0.950 . S
C924 C925 1.386 . S
C924 C926 1.391 . S
C925 C924 1.386 . S
C925 C929 1.393 . S
C926 H918 0.950 . S
C926 C924 1.391 . S
C926 C927 1.400 . S
C927 C926 1.400 . S
C927 C928 1.398 . S
C927 C933 1.491 1_655 S
C928 H919 0.950 1_655 S
C928 C927 1.398 . S
C928 C929 1.391 . S
C929 H917 0.950 . S
C929 C925 1.393 . S
C929 C928 1.391 . S
C930 H920 0.950 . S
C930 C931 1.386 . S
C930 C932 1.391 . S
C931 C930 1.386 . S
C931 C935 1.393 . S
C932 H921 0.950 . S
C932 C930 1.391 . S
C932 C933 1.400 . S
C933 C927 1.491 1_455 S
C933 C932 1.400 . S
C933 C934 1.398 . S
C934 H922 0.950 1_455 S
C934 C933 1.398 . S
C934 C935 1.391 . S
C935 H923 0.950 . S
C935 C931 1.393 . S
C935 C934 1.391 . S
H936 C944 0.950 . S
H937 C949 0.950 . S
H938 C946 0.950 . S
H939 C948 0.950 . S
H940 C950 0.950 . S
H941 C952 0.950 . S
H942 C954 0.950 . S
H943 C955 0.950 . S
C944 H936 0.950 . S
C944 C945 1.386 . S
C944 C946 1.391 . S
C945 C944 1.386 . S
C945 C949 1.393 . S
C946 H938 0.950 . S
C946 C944 1.391 . S
C946 C947 1.400 . S
C947 C946 1.400 . S
C947 C948 1.398 . S
C947 C953 1.491 . S
C948 H939 0.950 . S
C948 C947 1.398 . S
C948 C949 1.391 . S
C949 H937 0.950 . S
C949 C945 1.393 . S
C949 C948 1.391 . S
C950 H940 0.950 . S
C950 C951 1.386 . S
C950 C952 1.391 . S
C951 C950 1.386 . S
C951 C955 1.393 . S
C952 H941 0.950 . S
C952 C950 1.391 . S
C952 C953 1.400 . S
C953 C947 1.491 . S
C953 C952 1.400 . S
C953 C954 1.398 . S
C954 H942 0.950 . S
C954 C953 1.398 . S
C954 C955 1.391 . S
C955 H943 0.950 . S
C955 C951 1.393 . S
C955 C954 1.391 . S
H956 C964 0.950 . S
H957 C969 0.950 . S
H958 C966 0.950 . S
H959 C968 0.950 . S
H960 C970 0.950 . S
H961 C972 0.950 . S
H962 C974 0.950 . S
H963 C975 0.950 . S
C964 H956 0.950 . S
C964 C965 1.386 . S
C964 C966 1.391 . S
C965 C964 1.386 . S
C965 C969 1.393 . S
C966 H958 0.950 . S
C966 C964 1.391 . S
C966 C967 1.400 . S
C967 C966 1.400 . S
C967 C968 1.398 . S
C967 C973 1.491 1_565 S
C968 H959 0.950 . S
C968 C967 1.398 . S
C968 C969 1.391 . S
C969 H957 0.950 . S
C969 C965 1.393 . S
C969 C968 1.391 . S
C970 H960 0.950 . S
C970 C971 1.386 . S
C970 C972 1.391 . S
C971 C970 1.386 . S
C971 C975 1.393 . S
C972 H961 0.950 . S
C972 C970 1.391 . S
C972 C973 1.400 . S
C973 C967 1.491 1_545 S
C973 C972 1.400 . S
C973 C974 1.398 . S
C974 H962 0.950 . S
C974 C973 1.398 . S
C974 C975 1.391 . S
C975 H963 0.950 . S
C975 C971 1.393 . S
C975 C974 1.391 . S
H976 C984 0.950 . S
H977 C989 0.950 . S
H978 C986 0.950 . S
H979 C988 0.950 . S
H980 C990 0.950 . S
H981 C992 0.950 . S
H982 C994 0.950 . S
H983 C995 0.950 . S
C984 H976 0.950 . S
C984 C985 1.386 . S
C984 C986 1.391 . S
C985 C984 1.386 . S
C985 C989 1.393 . S
C986 H978 0.950 . S
C986 C984 1.391 . S
C986 C987 1.400 . S
C987 C986 1.400 . S
C987 C988 1.398 . S
C987 C993 1.491 1_455 S
C988 H979 0.950 . S
C988 C987 1.398 . S
C988 C989 1.391 . S
C989 H977 0.950 . S
C989 C985 1.393 . S
C989 C988 1.391 . S
C990 H980 0.950 . S
C990 C991 1.386 . S
C990 C992 1.391 . S
C991 C990 1.386 . S
C991 C995 1.393 . S
C992 H981 0.950 . S
C992 C990 1.391 . S
C992 C993 1.400 . S
C993 C987 1.491 1_655 S
C993 C992 1.400 . S
C993 C994 1.398 . S
C994 H982 0.950 . S
C994 C993 1.398 . S
C994 C995 1.391 . S
C995 H983 0.950 . S
C995 C991 1.393 . S
C995 C994 1.391 . S
C405 C40 1.547 . S
C411 N2 1.458 . S
C425 N35 1.460 . S
C431 C73 1.549 . S
C445 N68 1.434 . S
C451 C7 1.529 . S
C465 N101 1.451 . S
C471 C172 1.541 . S
C485 N134 1.446 . S
C491 C106 1.539 . S
C505 C139 1.546 . S
C511 N167 1.457 . S
C525 C238 1.530 . S
C531 N200 1.433 . S
C545 C271 1.552 . S
C551 N233 1.465 . S
C565 C205 1.537 . S
C571 N266 1.445 . S
C585 N299 1.464 . S
C591 C370 1.550 . S
C605 C304 1.545 . S
C611 N332 1.455 . S
C625 N365 1.449 . S
C631 C337 1.539 . S
C645 C18 1.334 . S
C651 N244 1.296 . S
C665 C51 1.338 . S
C671 N277 1.307 . S
C685 C84 1.337 . S
C691 N211 1.309 . S
C705 N376 1.317 . S
C711 C117 1.333 . S
C725 C150 1.336 . S
C731 N310 1.296 . S
C745 N343 1.314 . S
C751 C183 1.335 . S
C765 N46 1.307 . S
C771 C216 1.327 . S
C785 N79 1.315 . S
C791 C249 1.326 . S
C805 C282 1.332 . S
C811 N13 1.298 . S
C825 N178 1.319 . S
C831 C315 1.332 . S
C845 C348 1.334 . S
C851 N112 1.316 . S
C865 C381 1.327 . S
C871 N145 1.316 . S
C885 C120 1.368 . S
C891 C21 1.356 . S
C905 C54 1.369 . S
C911 C153 1.358 . S
C925 C87 1.358 . S
C931 C186 1.369 . S
C945 C318 1.357 . S
C951 C219 1.369 . S
C965 C252 1.348 . S
C971 C351 1.350 . S
C985 C285 1.347 . S
C991 C384 1.354 . S
