# Generated by pormake.
# Topology fnr, (5)-cn, num edge types: 1
# Building blocks:
#     Node 0, Type 0, BuildingBlock: XOMCOT_clean_sbu_1, # of connection points: 5
#     Node 1, Type 0, BuildingBlock: XOMCOT_clean_sbu_1, # of connection points: 5
#     Node 2, Type 0, BuildingBlock: XOMCOT_clean_sbu_1, # of connection points: 5
#     Node 3, Type 0, BuildingBlock: XOMCOT_clean_sbu_1, # of connection points: 5
#     Node 4, Type 0, BuildingBlock: XOMCOT_clean_sbu_1, # of connection points: 5
#     Node 5, Type 0, BuildingBlock: XOMCOT_clean_sbu_1, # of connection points: 5
#     Node 6, Type 0, BuildingBlock: XOMCOT_clean_sbu_1, # of connection points: 5
#     Node 7, Type 0, BuildingBlock: XOMCOT_clean_sbu_1, # of connection points: 5
#     Node 8, Type 0, BuildingBlock: XOMCOT_clean_sbu_1, # of connection points: 5
#     Node 9, Type 0, BuildingBlock: XOMCOT_clean_sbu_1, # of connection points: 5
#     Node 10, Type 0, BuildingBlock: XOMCOT_clean_sbu_1, # of connection points: 5
#     Node 11, Type 0, BuildingBlock: XOMCOT_clean_sbu_1, # of connection points: 5
#     Edge 12, Type (0, 0), BuildingBlock: CIFDUS_clean_linker_0, # of connection points: 2
#     Edge 13, Type (0, 0), BuildingBlock: CIFDUS_clean_linker_0, # of connection points: 2
#     Edge 14, Type (0, 0), BuildingBlock: CIFDUS_clean_linker_0, # of connection points: 2
#     Edge 15, Type (0, 0), BuildingBlock: CIFDUS_clean_linker_0, # of connection points: 2
#     Edge 16, Type (0, 0), BuildingBlock: CIFDUS_clean_linker_0, # of connection points: 2
#     Edge 17, Type (0, 0), BuildingBlock: CIFDUS_clean_linker_0, # of connection points: 2
#     Edge 18, Type (0, 0), BuildingBlock: CIFDUS_clean_linker_0, # of connection points: 2
#     Edge 19, Type (0, 0), BuildingBlock: CIFDUS_clean_linker_0, # of connection points: 2
#     Edge 20, Type (0, 0), BuildingBlock: CIFDUS_clean_linker_0, # of connection points: 2
#     Edge 21, Type (0, 0), BuildingBlock: CIFDUS_clean_linker_0, # of connection points: 2
#     Edge 22, Type (0, 0), BuildingBlock: CIFDUS_clean_linker_0, # of connection points: 2
#     Edge 23, Type (0, 0), BuildingBlock: CIFDUS_clean_linker_0, # of connection points: 2
#     Edge 24, Type (0, 0), BuildingBlock: CIFDUS_clean_linker_0, # of connection points: 2
#     Edge 25, Type (0, 0), BuildingBlock: CIFDUS_clean_linker_0, # of connection points: 2
#     Edge 26, Type (0, 0), BuildingBlock: CIFDUS_clean_linker_0, # of connection points: 2
#     Edge 27, Type (0, 0), BuildingBlock: CIFDUS_clean_linker_0, # of connection points: 2
#     Edge 28, Type (0, 0), BuildingBlock: CIFDUS_clean_linker_0, # of connection points: 2
#     Edge 29, Type (0, 0), BuildingBlock: CIFDUS_clean_linker_0, # of connection points: 2
#     Edge 30, Type (0, 0), BuildingBlock: CIFDUS_clean_linker_0, # of connection points: 2
#     Edge 31, Type (0, 0), BuildingBlock: CIFDUS_clean_linker_0, # of connection points: 2
#     Edge 32, Type (0, 0), BuildingBlock: CIFDUS_clean_linker_0, # of connection points: 2
#     Edge 33, Type (0, 0), BuildingBlock: CIFDUS_clean_linker_0, # of connection points: 2
#     Edge 34, Type (0, 0), BuildingBlock: CIFDUS_clean_linker_0, # of connection points: 2
#     Edge 35, Type (0, 0), BuildingBlock: CIFDUS_clean_linker_0, # of connection points: 2
#     Edge 36, Type (0, 0), BuildingBlock: CIFDUS_clean_linker_0, # of connection points: 2
#     Edge 37, Type (0, 0), BuildingBlock: CIFDUS_clean_linker_0, # of connection points: 2
#     Edge 38, Type (0, 0), BuildingBlock: CIFDUS_clean_linker_0, # of connection points: 2
#     Edge 39, Type (0, 0), BuildingBlock: CIFDUS_clean_linker_0, # of connection points: 2
#     Edge 40, Type (0, 0), BuildingBlock: CIFDUS_clean_linker_0, # of connection points: 2
#     Edge 41, Type (0, 0), BuildingBlock: CIFDUS_clean_linker_0, # of connection points: 2
# Relax obj value: 0.277
# Max RMSD: 0.192
# Mean RMSD: 0.190
data_MOF--net-fnr--node1-XOMCOT_clean_sbu_1--edge1-CIFDUS_clean_linker_0
_symmetry_space_group_name_H-M    P1
_symmetry_Int_Tables_number       1
_symmetry_cell_setting            triclinic
loop_
_symmetry_equiv_pos_as_xyz
'x, y, z'
_cell_length_a     36.108981
_cell_length_b     36.084747
_cell_length_c     45.854879
_cell_angle_alpha  90.227241
_cell_angle_beta   89.63231
_cell_angle_gamma 119.99854
loop_
_atom_site_label
_atom_site_type_symbol
_atom_site_fract_x
_atom_site_fract_y
_atom_site_fract_z
_atom_type_partial_charge
C0 C 0.4284 0.23145 0.08816 0.0
C1 C 0.40439 0.2499 0.08076 0.0
N2 N 0.38358 0.23179 0.0558 0.0
N3 N 0.42256 0.20168 0.06804 0.0
C4 C 0.39514 0.20263 0.04858 0.0
H5 H 0.44994 0.24015 0.10647 0.0
Co6 Co 0.45411 0.17365 0.06521 0.0
C7 C 0.37941 0.0869 0.04821 0.0
O8 O 0.37426 0.07276 0.07505 0.0
N9 N 0.48709 0.14607 0.06123 0.0
C10 C 0.50808 0.09757 0.05973 0.0
C11 C 0.47515 0.10479 0.06662 0.0
C12 C 0.52784 0.16323 0.05134 0.0
N13 N 0.54137 0.13445 0.05003 0.0
O14 O 0.47984 0.20634 0.03049 0.0
H15 H 0.44496 0.08127 0.07577 0.0
H16 H 0.54793 0.19656 0.04595 0.0
O17 O 0.40814 0.12563 0.04225 0.0
C18 C 0.50989 0.24142 0.04089 0.0
O19 O 0.51764 0.24371 0.069 0.0
N20 N 0.43293 0.14822 0.10224 0.0
C21 C 0.41628 0.14345 0.16232 0.0
C22 C 0.38378 0.13403 0.14203 0.0
C23 C 0.39296 0.13748 0.11219 0.0
C24 C 0.46428 0.15547 0.12175 0.0
C25 C 0.45655 0.15277 0.15174 0.0
H26 H 0.36862 0.13435 0.09712 0.0
H27 H 0.49677 0.16746 0.11435 0.0
H28 H 0.38591 0.18417 0.0286 0.0
H29 H 0.40308 0.2753 0.09251 0.0
H30 H 0.50747 0.06746 0.06206 0.0
H31 H 0.35212 0.12656 0.14911 0.0
H32 H 0.48306 0.16158 0.16641 0.0
C33 C 0.17055 0.38648 0.59599 0.0
C34 C 0.1309 0.35846 0.58499 0.0
N35 N 0.135 0.35312 0.55626 0.0
N36 N 0.20003 0.39845 0.57452 0.0
C37 C 0.17741 0.37764 0.55056 0.0
H38 H 0.17714 0.39851 0.61809 0.0
Co39 Co 0.25783 0.44146 0.57713 0.0
C40 C 0.30444 0.3972 0.55793 0.0
O41 O 0.32587 0.40946 0.5824 0.0
N42 N 0.31682 0.48618 0.57913 0.0
C43 C 0.38551 0.52876 0.59099 0.0
C44 C 0.34783 0.49272 0.59846 0.0
C45 C 0.33715 0.51946 0.56028 0.0
N46 N 0.37859 0.54556 0.56702 0.0
O47 O 0.24971 0.46914 0.54386 0.0
H48 H 0.34401 0.47268 0.61697 0.0
H49 H 0.32238 0.5249 0.54169 0.0
O50 O 0.27529 0.40685 0.55287 0.0
C51 C 0.23336 0.48957 0.55619 0.0
O52 O 0.22718 0.48584 0.58456 0.0
N53 N 0.26143 0.41748 0.61246 0.0
C54 C 0.24152 0.3868 0.66949 0.0
C55 C 0.23922 0.35965 0.64663 0.0
C56 C 0.24861 0.37551 0.61797 0.0
C57 C 0.26469 0.44416 0.63466 0.0
C58 C 0.25572 0.42978 0.66324 0.0
H59 H 0.24237 0.35348 0.60015 0.0
H60 H 0.27208 0.47647 0.62987 0.0
H61 H 0.1916 0.38239 0.52907 0.0
H62 H 0.10128 0.34393 0.59727 0.0
H63 H 0.41531 0.54245 0.60287 0.0
H64 H 0.22771 0.32605 0.6506 0.0
H65 H 0.25829 0.45191 0.68021 0.0
C66 C 0.82846 0.19334 0.09204 0.0
C67 C 0.81461 0.15167 0.08381 0.0
N68 N 0.82274 0.15111 0.05509 0.0
N69 N 0.84571 0.21911 0.0687 0.0
C70 C 0.84215 0.19255 0.04671 0.0
H71 H 0.8236 0.20373 0.11315 0.0
Co72 Co 0.85851 0.276 0.06415 0.0
C73 C 0.94811 0.31796 0.04304 0.0
O74 O 0.9586 0.34578 0.06428 0.0
N75 N 0.8704 0.33392 0.05854 0.0
C76 C 0.89192 0.40363 0.06264 0.0
C77 C 0.89708 0.3707 0.0728 0.0
C78 C 0.84964 0.34616 0.03973 0.0
N79 N 0.86173 0.38797 0.04194 0.0
O80 O 0.82152 0.25773 0.03087 0.0
H81 H 0.91783 0.37366 0.0906 0.0
H82 H 0.82483 0.32483 0.02508 0.0
O83 O 0.90918 0.28796 0.0404 0.0
C84 C 0.78515 0.24302 0.04343 0.0
O85 O 0.78393 0.2467 0.07191 0.0
N86 N 0.88821 0.29005 0.0996 0.0
C87 C 0.90306 0.28604 0.15875 0.0
C88 C 0.92427 0.27503 0.13764 0.0
C89 C 0.91651 0.27743 0.10796 0.0
C90 C 0.86801 0.30135 0.12001 0.0
C91 C 0.87594 0.30084 0.14956 0.0
H92 H 0.92988 0.26523 0.09198 0.0
H93 H 0.84321 0.308 0.11342 0.0
H94 H 0.84995 0.20317 0.02433 0.0
H95 H 0.79782 0.12386 0.09767 0.0
H96 H 0.90697 0.43583 0.07135 0.0
H97 H 0.94452 0.26229 0.14407 0.0
H98 H 0.85786 0.30816 0.16519 0.0
C99 C 0.66657 0.80649 0.60138 0.0
C100 C 0.69328 0.79268 0.59078 0.0
N101 N 0.70089 0.80316 0.56232 0.0
N102 N 0.65774 0.82625 0.57987 0.0
C103 C 0.67919 0.82381 0.55635 0.0
H104 H 0.65268 0.8005 0.62301 0.0
Co105 Co 0.61512 0.84152 0.581 0.0
C106 C 0.66213 0.93213 0.56181 0.0
O107 O 0.65167 0.94292 0.58653 0.0
N108 N 0.57029 0.85575 0.58145 0.0
C109 C 0.52629 0.88112 0.5915 0.0
C110 C 0.56437 0.88327 0.59842 0.0
C111 C 0.53478 0.83738 0.56454 0.0
N112 N 0.50773 0.852 0.57025 0.0
O113 O 0.58999 0.80587 0.54736 0.0
H114 H 0.5853 0.90273 0.61571 0.0
H115 H 0.52777 0.81291 0.54849 0.0
O116 O 0.6507 0.8928 0.55688 0.0
C117 C 0.56843 0.76892 0.55907 0.0
O118 O 0.56796 0.76596 0.58764 0.0
N119 N 0.63746 0.86984 0.61653 0.0
C120 C 0.66688 0.8763 0.67329 0.0
C121 C 0.69541 0.90007 0.65086 0.0
C122 C 0.68001 0.89613 0.62231 0.0
C123 C 0.60933 0.84866 0.6386 0.0
C124 C 0.62325 0.852 0.66715 0.0
H125 H 0.70273 0.91023 0.6046 0.0
H126 H 0.5764 0.82565 0.63366 0.0
H127 H 0.67624 0.83408 0.53478 0.0
H128 H 0.70493 0.77496 0.60292 0.0
H129 H 0.51208 0.89765 0.60249 0.0
H130 H 0.72949 0.91829 0.65487 0.0
H131 H 0.6005 0.83273 0.68392 0.0
C132 C 0.83252 0.61899 0.0954 0.0
C133 C 0.87502 0.64582 0.08866 0.0
N134 N 0.8776 0.66285 0.06207 0.0
N135 N 0.80824 0.61942 0.07334 0.0
C136 C 0.83654 0.64638 0.05343 0.0
H137 H 0.82017 0.59896 0.11455 0.0
Co138 Co 0.74952 0.5823 0.06792 0.0
C139 C 0.72293 0.64669 0.05374 0.0
O140 O 0.69892 0.63639 0.07721 0.0
N141 N 0.68945 0.54324 0.06142 0.0
C142 C 0.61824 0.50602 0.06544 0.0
C143 C 0.65501 0.54161 0.07459 0.0
C144 C 0.67195 0.50793 0.04406 0.0
N145 N 0.62884 0.4845 0.04627 0.0
O146 O 0.76365 0.56486 0.03213 0.0
H147 H 0.65606 0.56286 0.09157 0.0
H148 H 0.6903 0.49858 0.03044 0.0
O149 O 0.74456 0.62813 0.04813 0.0
C150 C 0.77106 0.53574 0.04103 0.0
O151 O 0.76272 0.52347 0.06841 0.0
N152 N 0.73889 0.59632 0.10545 0.0
C153 C 0.74269 0.60721 0.16597 0.0
C154 C 0.76063 0.64284 0.14727 0.0
C155 C 0.75869 0.6367 0.11698 0.0
C156 C 0.72045 0.56158 0.12339 0.0
C157 C 0.72077 0.56628 0.1535 0.0
H158 H 0.77611 0.66418 0.10295 0.0
H159 H 0.70756 0.52977 0.11439 0.0
H160 H 0.82714 0.65122 0.03206 0.0
H161 H 0.90186 0.65113 0.10198 0.0
H162 H 0.58648 0.49538 0.07396 0.0
H163 H 0.7787 0.67502 0.15587 0.0
H164 H 0.70598 0.53779 0.16693 0.0
C165 C 0.24931 0.87412 0.60342 0.0
C166 C 0.26464 0.91434 0.59204 0.0
N167 N 0.25242 0.91052 0.56396 0.0
N168 N 0.22673 0.84463 0.58289 0.0
C169 C 0.22927 0.86776 0.55902 0.0
H170 H 0.25566 0.86701 0.62506 0.0
Co171 Co 0.20581 0.78579 0.58677 0.0
C172 C 0.11639 0.74299 0.56669 0.0
O173 O 0.10603 0.72043 0.59078 0.0
N174 N 0.18568 0.72535 0.59027 0.0
C175 C 0.15625 0.65771 0.60556 0.0
C176 C 0.16471 0.69816 0.6126 0.0
C177 C 0.18961 0.69987 0.56997 0.0
N178 N 0.17204 0.65882 0.57879 0.0
O179 O 0.24003 0.78921 0.55376 0.0
H180 H 0.15457 0.70613 0.63265 0.0
H181 H 0.20465 0.71082 0.54887 0.0
O182 O 0.15549 0.77201 0.56219 0.0
C183 C 0.27364 0.79281 0.56547 0.0
O184 O 0.27467 0.78982 0.59395 0.0
N185 N 0.17869 0.78669 0.62162 0.0
C186 C 0.16165 0.80444 0.67768 0.0
C187 C 0.13844 0.80629 0.65386 0.0
C188 C 0.14841 0.79849 0.62565 0.0
C189 C 0.2017 0.78553 0.6447 0.0
C190 C 0.19344 0.79382 0.67284 0.0
H191 H 0.13324 0.80379 0.60718 0.0
H192 H 0.22752 0.77906 0.64103 0.0
H193 H 0.21629 0.85345 0.53805 0.0
H194 H 0.28395 0.94407 0.60359 0.0
H195 H 0.14028 0.62966 0.61933 0.0
H196 H 0.11428 0.81539 0.65692 0.0
H197 H 0.2122 0.79247 0.69073 0.0
C198 C 0.88942 0.57915 0.40611 0.0
C199 C 0.89264 0.54275 0.40698 0.0
N200 N 0.86189 0.51439 0.42491 0.0
N201 N 0.85688 0.57379 0.42348 0.0
C202 C 0.84064 0.53395 0.43465 0.0
H203 H 0.90986 0.60801 0.39398 0.0
Co204 Co 0.84328 0.61617 0.43153 0.0
C205 C 0.74966 0.56695 0.43878 0.0
O206 O 0.74882 0.59735 0.42358 0.0
N207 N 0.83177 0.66085 0.44096 0.0
C208 C 0.84231 0.72674 0.44752 0.0
C209 C 0.85578 0.70228 0.4329 0.0
C210 C 0.80578 0.66183 0.46209 0.0
N211 N 0.81063 0.70123 0.4659 0.0
O212 O 0.87029 0.62482 0.46885 0.0
H213 H 0.88392 0.71507 0.41924 0.0
H214 H 0.78474 0.63445 0.47527 0.0
O215 O 0.7859 0.57147 0.44629 0.0
C216 C 0.9096 0.65323 0.46514 0.0
O217 O 0.92192 0.6697 0.43895 0.0
N218 N 0.82119 0.60969 0.3929 0.0
C219 C 0.7964 0.60067 0.33433 0.0
C220 C 0.77974 0.56509 0.35287 0.0
C221 C 0.79318 0.57013 0.38181 0.0
C222 C 0.83925 0.64412 0.37461 0.0
C223 C 0.8266 0.64058 0.34553 0.0
H224 H 0.78161 0.5418 0.39511 0.0
H225 H 0.86532 0.67413 0.38175 0.0
H226 H 0.81461 0.51994 0.45027 0.0
H227 H 0.91573 0.53746 0.39527 0.0
H228 H 0.85675 0.76116 0.44607 0.0
H229 H 0.75702 0.53341 0.34497 0.0
H230 H 0.84195 0.66849 0.33157 0.0
C231 C 0.11936 0.76655 0.92551 0.0
C232 C 0.08271 0.75812 0.94013 0.0
N233 N 0.0907 0.76167 0.96894 0.0
N234 N 0.15099 0.77623 0.94484 0.0
C235 C 0.13241 0.77286 0.97122 0.0
H236 H 0.12178 0.76324 0.90225 0.0
Co237 Co 0.20518 0.78294 0.93618 0.0
C238 C 0.26282 0.875 0.95148 0.0
O239 O 0.28267 0.88116 0.9263 0.0
N240 N 0.2588 0.78746 0.92826 0.0
C241 C 0.30338 0.76305 0.91792 0.0
C242 C 0.26338 0.75765 0.91319 0.0
C243 C 0.29638 0.80972 0.94275 0.0
N244 N 0.32392 0.79581 0.93653 0.0
O245 O 0.20285 0.75058 0.96989 0.0
H246 H 0.23804 0.73087 0.90174 0.0
H247 H 0.30248 0.83295 0.95965 0.0
O248 O 0.23235 0.83747 0.95822 0.0
C249 C 0.17824 0.7104 0.96609 0.0
O250 O 0.14593 0.69804 0.94814 0.0
N251 N 0.20612 0.8101 0.90071 0.0
C252 C 0.19418 0.83271 0.84489 0.0
C253 C 0.19787 0.85848 0.86889 0.0
C254 C 0.20254 0.84584 0.89692 0.0
C255 C 0.20138 0.78451 0.87745 0.0
C256 C 0.19581 0.79534 0.84944 0.0
H257 H 0.20145 0.86377 0.91549 0.0
H258 H 0.19904 0.75393 0.88076 0.0
H259 H 0.14859 0.77638 0.9917 0.0
H260 H 0.05171 0.74705 0.93035 0.0
H261 H 0.3158 0.74341 0.90933 0.0
H262 H 0.19551 0.88702 0.86612 0.0
H263 H 0.19205 0.77417 0.83146 0.0
C264 C 0.45883 0.31279 0.39598 0.0
C265 C 0.49377 0.35238 0.39131 0.0
N266 N 0.52597 0.35689 0.40852 0.0
N267 N 0.46843 0.29193 0.41608 0.0
C268 C 0.50954 0.31966 0.42361 0.0
H269 H 0.42799 0.3 0.38562 0.0
Co270 Co 0.42721 0.23776 0.42892 0.0
C271 C 0.47538 0.19306 0.43964 0.0
O272 O 0.44405 0.16032 0.42608 0.0
N273 N 0.38316 0.18319 0.44276 0.0
C274 C 0.31816 0.12711 0.45091 0.0
C275 C 0.34144 0.1642 0.43531 0.0
C276 C 0.38338 0.15816 0.46477 0.0
N277 N 0.34464 0.12294 0.46933 0.0
O278 O 0.42234 0.26265 0.46497 0.0
H279 H 0.32766 0.17747 0.42086 0.0
H280 H 0.41138 0.1658 0.4775 0.0
O281 O 0.47324 0.22722 0.44374 0.0
C282 C 0.39341 0.27273 0.46092 0.0
O283 O 0.37447 0.26401 0.43541 0.0
N284 N 0.42931 0.21554 0.39151 0.0
C285 C 0.42902 0.18849 0.33406 0.0
C286 C 0.4666 0.20688 0.35064 0.0
C287 C 0.46634 0.22122 0.379 0.0
C288 C 0.3935 0.20058 0.37486 0.0
C289 C 0.39224 0.18583 0.34652 0.0
H290 H 0.49629 0.23787 0.39056 0.0
H291 H 0.36624 0.20208 0.38275 0.0
H292 H 0.52698 0.31266 0.43969 0.0
H293 H 0.49484 0.37638 0.37671 0.0
H294 H 0.28394 0.10589 0.44962 0.0
H295 H 0.49637 0.21166 0.34143 0.0
H296 H 0.36276 0.17316 0.33435 0.0
C297 C 0.23931 0.34161 0.92732 0.0
C298 C 0.25147 0.31607 0.94161 0.0
N299 N 0.27237 0.33637 0.966 0.0
N300 N 0.25269 0.37858 0.94228 0.0
C301 C 0.27183 0.37359 0.96613 0.0
H302 H 0.22187 0.33313 0.90707 0.0
Co303 Co 0.24937 0.42848 0.93186 0.0
C304 C 0.16232 0.37001 0.95683 0.0
O305 O 0.15819 0.33701 0.94195 0.0
N306 N 0.2467 0.47732 0.9225 0.0
C307 C 0.26887 0.54455 0.90939 0.0
C308 C 0.27534 0.51015 0.90597 0.0
C309 C 0.22285 0.49216 0.93539 0.0
N310 N 0.23584 0.53295 0.92794 0.0
O311 O 0.2833 0.4597 0.96464 0.0
H312 H 0.30093 0.50994 0.89372 0.0
H313 H 0.19815 0.47466 0.95143 0.0
O314 O 0.19637 0.40641 0.95431 0.0
C315 C 0.32204 0.47411 0.95664 0.0
O316 O 0.32942 0.45903 0.93253 0.0
N317 N 0.22206 0.40338 0.89692 0.0
C318 C 0.20113 0.38042 0.83858 0.0
C319 C 0.17078 0.38019 0.85817 0.0
C320 C 0.18214 0.39245 0.88736 0.0
C321 C 0.25204 0.40513 0.87794 0.0
C322 C 0.24215 0.39312 0.84899 0.0
H323 H 0.1596 0.39484 0.90173 0.0
H324 H 0.28429 0.41648 0.88542 0.0
H325 H 0.28553 0.39697 0.98337 0.0
H326 H 0.24651 0.28555 0.93391 0.0
H327 H 0.28758 0.5759 0.89963 0.0
H328 H 0.13908 0.3718 0.85085 0.0
H329 H 0.26728 0.39583 0.83459 0.0
C330 C 0.7265 0.16328 0.40064 0.0
C331 C 0.6881 0.16265 0.40219 0.0
N332 N 0.69302 0.19484 0.4197 0.0
N333 N 0.75547 0.19556 0.41722 0.0
C334 C 0.73414 0.21437 0.42855 0.0
H335 H 0.73263 0.14079 0.38894 0.0
Co336 Co 0.80989 0.20431 0.42521 0.0
C337 C 0.86286 0.29699 0.43589 0.0
O338 O 0.89335 0.2955 0.42103 0.0
N339 N 0.86477 0.21171 0.43458 0.0
C340 C 0.92445 0.20786 0.43725 0.0
C341 C 0.88758 0.19556 0.42183 0.0
C342 C 0.88774 0.2316 0.45876 0.0
N343 N 0.92484 0.231 0.46043 0.0
O344 O 0.78958 0.17753 0.46243 0.0
H345 H 0.87809 0.17471 0.40318 0.0
H346 H 0.8776 0.247 0.47462 0.0
O347 O 0.82722 0.2624 0.44032 0.0
C348 C 0.77845 0.13816 0.45875 0.0
O349 O 0.78361 0.12604 0.43269 0.0
N350 N 0.82724 0.22576 0.38692 0.0
C351 C 0.85357 0.25057 0.32909 0.0
C352 C 0.84038 0.27377 0.34693 0.0
C353 C 0.82678 0.2605 0.37559 0.0
C354 C 0.83428 0.19992 0.36883 0.0
C355 C 0.8494 0.21254 0.34047 0.0
H356 H 0.8153 0.2779 0.38843 0.0
H357 H 0.82742 0.16881 0.37626 0.0
H358 H 0.74768 0.24041 0.4441 0.0
H359 H 0.65861 0.13992 0.39161 0.0
H360 H 0.94855 0.19937 0.43206 0.0
H361 H 0.83968 0.30153 0.33883 0.0
H362 H 0.85763 0.19229 0.32787 0.0
C363 C 0.65509 0.91299 0.91911 0.0
C364 C 0.68119 0.95146 0.93258 0.0
N365 N 0.68793 0.94351 0.96012 0.0
N366 N 0.64602 0.8808 0.9379 0.0
C367 C 0.66602 0.90046 0.96288 0.0
H368 H 0.64324 0.90864 0.89702 0.0
Co369 Co 0.61072 0.82205 0.93051 0.0
C370 C 0.67293 0.79603 0.95345 0.0
O371 O 0.68701 0.79494 0.92723 0.0
N372 N 0.57471 0.76224 0.92432 0.0
C373 C 0.55248 0.69257 0.92091 0.0
C374 C 0.58629 0.7332 0.91667 0.0
C375 C 0.53298 0.73804 0.93192 0.0
N376 N 0.51907 0.69571 0.93092 0.0
O377 O 0.57341 0.81885 0.96223 0.0
H378 H 0.61756 0.74066 0.9091 0.0
H379 H 0.51348 0.75102 0.93923 0.0
O380 O 0.64497 0.80774 0.95706 0.0
C381 C 0.55236 0.83656 0.95345 0.0
O382 O 0.56194 0.85499 0.92771 0.0
N383 N 0.64359 0.82742 0.89646 0.0
C384 C 0.67981 0.84995 0.84069 0.0
C385 C 0.70523 0.86762 0.86546 0.0
C386 C 0.6865 0.8558 0.89325 0.0
C387 C 0.61882 0.81036 0.87229 0.0
C388 C 0.63641 0.82018 0.84441 0.0
H389 H 0.70596 0.87152 0.91213 0.0
H390 H 0.58446 0.79127 0.87426 0.0
H391 H 0.66434 0.88355 0.98273 0.0
H392 H 0.69322 0.98292 0.92316 0.0
H393 H 0.55273 0.66301 0.91742 0.0
H394 H 0.73874 0.89151 0.86334 0.0
H395 H 0.61543 0.80708 0.82577 0.0
H396 H 0.72571 0.16179 0.05072 0.0
H397 H 0.75188 0.27658 0.00535 0.0
H398 H 0.67499 0.24941 1.00003 0.0
H399 H 0.60157 0.19928 0.01708 0.0
H400 H 0.57778 0.08793 0.0668 0.0
H401 H 0.652 0.10687 0.06114 0.0
C402 C 0.7144 0.17986 0.03846 0.0
C403 C 0.74404 0.22086 0.02829 0.0
C404 C 0.67045 0.16506 0.03703 0.0
C405 C 0.7295 0.2446 0.01291 0.0
C406 C 0.68553 0.22936 0.01041 0.0
C407 C 0.61248 0.179 0.02656 0.0
C408 C 0.58393 0.14268 0.04297 0.0
C409 C 0.65584 0.19073 0.0239 0.0
C410 C 0.59862 0.11611 0.05419 0.0
C411 C 0.64132 0.12701 0.05107 0.0
H412 H 0.4616 0.57585 0.55507 0.0
H413 H 0.3611 0.60682 0.5508 0.0
H414 H 0.41319 0.68102 0.53852 0.0
H415 H 0.48819 0.73895 0.53942 0.0
H416 H 0.58879 0.70854 0.54644 0.0
H417 H 0.53624 0.63214 0.54571 0.0
C418 C 0.45123 0.59877 0.55072 0.0
C419 C 0.40786 0.58629 0.55418 0.0
C420 C 0.48147 0.64139 0.54396 0.0
C421 C 0.39437 0.61583 0.54818 0.0
C422 C 0.42418 0.65827 0.54132 0.0
C423 C 0.49865 0.71558 0.53921 0.0
C424 C 0.5422 0.7292 0.54284 0.0
C425 C 0.468 0.67179 0.54041 0.0
C426 C 0.55541 0.69865 0.5431 0.0
C427 C 0.52528 0.65498 0.54335 0.0
H428 H 0.89627 0.47138 0.02803 0.0
H429 H 0.77743 0.35128 0.02988 0.0
H430 H 0.73784 0.38805 0.0202 0.0
H431 H 0.73615 0.45495 0.02276 0.0
H432 H 0.85386 0.57551 0.02383 0.0
H433 H 0.89485 0.53841 0.01981 0.0
C434 C 0.86181 0.45333 0.02567 0.0
C435 C 0.83986 0.40878 0.0302 0.0
C436 C 0.83903 0.47488 0.02061 0.0
C437 C 0.79523 0.38553 0.02651 0.0
C438 C 0.77245 0.4066 0.02115 0.0
C439 C 0.7707 0.47303 0.0204 0.0
C440 C 0.7921 0.51768 0.02339 0.0
C441 C 0.79385 0.45135 0.0196 0.0
C442 C 0.83682 0.54108 0.02098 0.0
C443 C 0.86023 0.51977 0.01936 0.0
H444 H 0.46783 0.89412 0.55288 0.0
H445 H 0.45007 0.76824 0.56645 0.0
H446 H 0.37343 0.73617 0.5578 0.0
H447 H 0.31066 0.74557 0.55606 0.0
H448 H 0.32739 0.87113 0.5434 0.0
H449 H 0.40508 0.90182 0.54089 0.0
C450 C 0.44709 0.85968 0.55329 0.0
C451 C 0.46425 0.83352 0.56053 0.0
C452 C 0.40295 0.84151 0.54833 0.0
C453 C 0.43747 0.78887 0.56074 0.0
C454 C 0.39365 0.77058 0.55596 0.0
C455 C 0.33133 0.77927 0.55114 0.0
C456 C 0.31366 0.8061 0.5496 0.0
C457 C 0.37585 0.7967 0.55087 0.0
C458 C 0.34045 0.84985 0.54396 0.0
C459 C 0.3849 0.86748 0.54319 0.0
H460 H 0.65079 0.42636 0.02764 0.0
H461 H 0.54276 0.44546 0.03946 0.0
H462 H 0.49396 0.36959 0.0307 0.0
H463 H 0.48251 0.29637 0.02931 0.0
H464 H 0.59048 0.27736 0.01987 0.0
H465 H 0.63869 0.35468 0.01652 0.0
C466 C 0.6167 0.41448 0.02748 0.0
C467 C 0.60071 0.44179 0.03513 0.0
C468 C 0.58867 0.37056 0.02257 0.0
C469 C 0.55616 0.42517 0.03465 0.0
C470 C 0.52811 0.38171 0.02942 0.0
C471 C 0.51631 0.3092 0.02482 0.0
C472 C 0.53296 0.28137 0.02429 0.0
C473 C 0.544 0.3538 0.02464 0.0
C474 C 0.57694 0.29823 0.01958 0.0
C475 C 0.60457 0.3425 0.01831 0.0
H476 H 0.15712 0.48372 0.55366 0.0
H477 H 0.28875 0.56481 0.52892 0.0
H478 H 0.2791 0.62732 0.52949 0.0
H479 H 0.23734 0.66005 0.54873 0.0
H480 H 0.10728 0.57778 0.57697 0.0
H481 H 0.11166 0.51471 0.56312 0.0
C482 C 0.18303 0.51479 0.54687 0.0
C483 C 0.22356 0.51974 0.54135 0.0
C484 C 0.1777 0.55065 0.54885 0.0
C485 C 0.25716 0.56011 0.53303 0.0
C486 C 0.25178 0.59603 0.53391 0.0
C487 C 0.20966 0.62832 0.5509 0.0
C488 C 0.17224 0.62338 0.56434 0.0
C489 C 0.21289 0.59199 0.54362 0.0
C490 C 0.13657 0.58216 0.56718 0.0
C491 C 0.13908 0.54615 0.55923 0.0
H492 H 0.921 0.49206 0.43489 0.0
H493 H 0.78513 0.44227 0.43122 0.0
H494 H 0.77225 0.36929 0.43824 0.0
H495 H 0.80063 0.3193 0.44016 0.0
H496 H 0.93714 0.37085 0.44376 0.0
H497 H 0.94883 0.44338 0.44253 0.0
C498 C 0.88861 0.46518 0.43582 0.0
C499 C 0.85409 0.47226 0.43211 0.0
C500 C 0.88162 0.42365 0.4399 0.0
C501 C 0.81217 0.43743 0.43398 0.0
C502 C 0.80487 0.39577 0.43789 0.0
C503 C 0.8328 0.34642 0.44148 0.0
C504 C 0.86799 0.33966 0.44183 0.0
C505 C 0.83943 0.38837 0.44024 0.0
C506 C 0.90954 0.37518 0.44325 0.0
C507 C 0.91631 0.41672 0.44242 0.0
H508 H 0.35669 0.75139 0.96196 0.0
H509 H 0.38642 0.87766 0.93554 0.0
H510 H 0.46229 0.90501 0.94564 0.0
H511 H 0.52029 0.88943 0.95317 0.0
H512 H 0.49143 0.76451 0.98265 0.0
H513 H 0.41482 0.7402 0.98123 0.0
C514 C 0.37985 0.78498 0.95904 0.0
C515 C 0.36656 0.81248 0.94743 0.0
C516 C 0.42327 0.80049 0.96536 0.0
C517 C 0.39632 0.85612 0.94422 0.0
C518 C 0.43956 0.87163 0.94996 0.0
C519 C 0.49729 0.85734 0.96039 0.0
C520 C 0.51129 0.82816 0.96655 0.0
C521 C 0.45351 0.84372 0.9594 0.0
C522 C 0.48141 0.78716 0.97673 0.0
C523 C 0.43753 0.77315 0.97572 0.0
H524 H 0.69419 0.53322 0.39503 0.0
H525 H 0.71828 0.5039 0.48136 0.0
H526 H 0.65104 0.43451 0.47961 0.0
H527 H 0.58324 0.38385 0.45358 0.0
H528 H 0.56563 0.41453 0.3656 0.0
H529 H 0.6324 0.48157 0.36804 0.0
C530 C 0.68474 0.51179 0.41361 0.0
C531 C 0.71058 0.52406 0.43857 0.0
C532 C 0.64702 0.47213 0.41212 0.0
C533 C 0.69859 0.49532 0.46203 0.0
C534 C 0.66018 0.45572 0.46097 0.0
C535 C 0.59426 0.40498 0.43487 0.0
C536 C 0.56835 0.39433 0.40972 0.0
C537 C 0.63378 0.4439 0.43615 0.0
C538 C 0.58368 0.42218 0.38562 0.0
C539 C 0.62221 0.4606 0.38686 0.0
H540 H 0.13337 0.62414 0.96208 0.0
H541 H 0.26051 0.72901 0.97837 0.0
H542 H 0.29013 0.68234 0.9681 0.0
H543 H 0.28045 0.61408 0.9478 0.0
H544 H 0.15296 0.50926 0.93337 0.0
H545 H 0.12288 0.55362 0.94925 0.0
C546 C 0.16752 0.63664 0.96408 0.0
C547 C 0.19474 0.68039 0.97012 0.0
C548 C 0.18434 0.60987 0.95769 0.0
C549 C 0.23878 0.6957 0.97329 0.0
C550 C 0.25584 0.66913 0.96709 0.0
C551 C 0.24613 0.60115 0.94827 0.0
C552 C 0.21882 0.55887 0.93886 0.0
C553 C 0.22908 0.62668 0.95799 0.0
C554 C 0.1744 0.54186 0.94027 0.0
C555 C 0.15728 0.56717 0.94938 0.0
H556 H 0.55977 0.25718 0.43615 0.0
H557 H 0.47854 0.12281 0.45467 0.0
H558 H 0.53977 0.11192 0.45196 0.0
H559 H 0.61448 0.13829 0.43823 0.0
H560 H 0.69763 0.27207 0.4205 0.0
H561 H 0.63813 0.28575 0.42907 0.0
C562 C 0.55584 0.22589 0.4405 0.0
C563 C 0.51455 0.19077 0.44543 0.0
C564 C 0.59144 0.21959 0.43842 0.0
C565 C 0.5099 0.15028 0.45067 0.0
C566 C 0.54487 0.14393 0.44895 0.0
C567 C 0.61953 0.17047 0.43659 0.0
C568 C 0.65996 0.20401 0.42833 0.0
C569 C 0.58542 0.17794 0.44177 0.0
C570 C 0.66659 0.24578 0.42674 0.0
C571 C 0.63255 0.2535 0.43155 0.0
H572 H 0.3301 0.55254 0.95517 0.0
H573 H 0.39501 0.48485 0.97993 0.0
H574 H 0.46397 0.55096 0.97669 0.0
H575 H 0.50579 0.62393 0.9576 0.0
H576 H 0.44166 0.69065 0.9286 0.0
H577 H 0.37241 0.62918 0.94225 0.0
C578 C 0.35926 0.55281 0.96102 0.0
C579 C 0.35766 0.51411 0.96797 0.0
C580 C 0.39896 0.59041 0.95713 0.0
C581 C 0.39559 0.51451 0.97505 0.0
C582 C 0.43503 0.55212 0.9726 0.0
C583 C 0.47666 0.62503 0.95433 0.0
C584 C 0.47871 0.66126 0.94133 0.0
C585 C 0.43715 0.58955 0.96202 0.0
C586 C 0.44084 0.66289 0.93821 0.0
C587 C 0.40128 0.62777 0.94605 0.0
H588 H 0.38979 0.20014 0.28736 0.0
H589 H 0.46796 0.14592 0.31173 0.0
H590 H 0.46878 0.1247 0.26111 0.0
H591 H 0.4485 0.12302 0.2097 0.0
H592 H 0.37165 0.17913 0.18591 0.0
H593 H 0.36758 0.19627 0.23672 0.0
C594 C 0.40645 0.18304 0.28177 0.0
C595 C 0.42873 0.17461 0.3034 0.0
C596 C 0.40664 0.1708 0.25271 0.0
C597 C 0.45095 0.15328 0.29549 0.0
C598 C 0.4512 0.14089 0.26657 0.0
C599 C 0.43078 0.13892 0.21562 0.0
C600 C 0.41025 0.14947 0.19383 0.0
C601 C 0.4294 0.14976 0.24495 0.0
C602 C 0.38705 0.16968 0.20209 0.0
C603 C 0.38511 0.18005 0.23119 0.0
H604 H 0.18924 0.40146 0.70412 0.0
H605 H 0.26256 0.33696 0.70253 0.0
H606 H 0.24968 0.32242 0.75491 0.0
H607 H 0.22639 0.33737 0.80192 0.0
H608 H 0.15822 0.4073 0.80343 0.0
H609 H 0.15923 0.40938 0.75026 0.0
C610 C 0.20208 0.38387 0.71522 0.0
C611 C 0.22761 0.37109 0.69968 0.0
C612 C 0.19549 0.37671 0.74532 0.0
C613 C 0.24303 0.3473 0.71407 0.0
C614 C 0.23588 0.33926 0.74403 0.0
C615 C 0.21131 0.35264 0.79059 0.0
C616 C 0.19288 0.37278 0.80673 0.0
C617 C 0.21352 0.35523 0.76002 0.0
C618 C 0.17249 0.39142 0.7917 0.0
C619 C 0.17351 0.39308 0.76124 0.0
H620 H 0.84953 0.20149 0.28158 0.0
H621 H 0.89566 0.33288 0.30734 0.0
H622 H 0.91797 0.35596 0.25741 0.0
H623 H 0.92067 0.33845 0.20562 0.0
H624 H 0.88077 0.20837 0.1813 0.0
H625 H 0.86216 0.18566 0.23202 0.0
C626 C 0.86551 0.23539 0.27686 0.0
C627 C 0.86994 0.26504 0.29869 0.0
C628 C 0.88007 0.2489 0.24827 0.0
C629 C 0.89013 0.30875 0.29117 0.0
C630 C 0.90358 0.32224 0.26256 0.0
C631 C 0.90894 0.30537 0.21167 0.0
C632 C 0.90221 0.27511 0.1899 0.0
C633 C 0.89815 0.29253 0.24085 0.0
C634 C 0.8868 0.23229 0.1978 0.0
C635 C 0.87562 0.21923 0.22672 0.0
H636 H 0.67703 0.8033 0.79383 0.0
H637 H 0.71575 0.9319 0.82101 0.0
H638 H 0.72177 0.95427 0.76997 0.0
H639 H 0.70317 0.93345 0.71805 0.0
H640 H 0.66235 0.80382 0.692 0.0
H641 H 0.67045 0.78561 0.74185 0.0
C642 C 0.6881 0.83649 0.78845 0.0
C643 C 0.69572 0.86588 0.81094 0.0
C644 C 0.69041 0.84871 0.7592 0.0
C645 C 0.71001 0.90884 0.80393 0.0
C646 C 0.71295 0.92148 0.77477 0.0
C647 C 0.69736 0.90169 0.7233 0.0
C648 C 0.68183 0.86983 0.70169 0.0
C649 C 0.70136 0.89122 0.75225 0.0
C650 C 0.67411 0.82865 0.70852 0.0
C651 C 0.67858 0.8182 0.73698 0.0
H652 H 0.76036 0.5575 0.20082 0.0
H653 H 0.74442 0.66833 0.2031 0.0
H654 H 0.75972 0.67627 0.25545 0.0
H655 H 0.77748 0.65122 0.30064 0.0
H656 H 0.7911 0.53905 0.2974 0.0
H657 H 0.77535 0.53134 0.24541 0.0
C658 C 0.75924 0.58293 0.21275 0.0
C659 C 0.75068 0.61196 0.19798 0.0
C660 C 0.76744 0.58691 0.24274 0.0
C661 C 0.75104 0.64559 0.21382 0.0
C662 C 0.7596 0.65003 0.24378 0.0
C663 C 0.77698 0.62513 0.28849 0.0
C664 C 0.78523 0.59562 0.30291 0.0
C665 C 0.76791 0.62087 0.25846 0.0
C666 C 0.78421 0.56179 0.28696 0.0
C667 C 0.77551 0.55753 0.25718 0.0
H668 H 0.12482 0.78823 0.81101 0.0
H669 H 0.25093 0.89925 0.8116 0.0
H670 H 0.24896 0.90482 0.75842 0.0
H671 H 0.21646 0.86987 0.71173 0.0
H672 H 0.09095 0.75799 0.71112 0.0
H673 H 0.08684 0.76121 0.76438 0.0
C674 C 0.15118 0.81442 0.79946 0.0
C675 C 0.18805 0.84323 0.81489 0.0
C676 C 0.15 0.81684 0.76896 0.0
C677 C 0.22221 0.87698 0.8 0.0
C678 C 0.2212 0.87987 0.76964 0.0
C679 C 0.18771 0.84714 0.72331 0.0
C680 C 0.15408 0.81364 0.70782 0.0
C681 C 0.18604 0.84884 0.75385 0.0
C682 C 0.11698 0.78413 0.72275 0.0
C683 C 0.11487 0.78578 0.75316 0.0
H684 H 0.32106 0.95911 0.9416 0.0
H685 H 0.23589 0.87324 0.00763 0.0
H686 H 0.26155 0.93255 0.04222 0.0
H687 H 0.31115 1.00732 0.05468 0.0
H688 H 0.39755 0.09354 0.98939 0.0
H689 H 0.36762 0.03564 0.9533 0.0
C690 C 0.30794 0.95331 0.96353 0.0
C691 C 0.27685 0.9115 0.97206 0.0
C692 C 0.3229 0.98766 0.98337 0.0
C693 C 0.25996 0.90487 1.00048 0.0
C694 C 0.27462 0.93883 0.02028 0.0
C695 C 0.32323 1.01373 0.03247 0.0
C696 C 0.35687 0.05477 0.02486 0.0
C697 C 0.30648 0.98016 0.01209 0.0
C698 C 0.37167 0.06241 0.99587 0.0
C699 C 0.35478 0.02916 0.9753 0.0
H700 H 0.36407 0.37265 0.56405 0.0
H701 H 0.26828 0.36499 0.50449 0.0
H702 H 0.28707 0.32507 0.4699 0.0
H703 H 0.33132 0.29374 0.45632 0.0
H704 H 0.42748 0.30158 0.51553 0.0
H705 H 0.40761 0.3401 0.55075 0.0
C706 C 0.34711 0.36225 0.54353 0.0
C707 C 0.31474 0.37204 0.5369 0.0
C708 C 0.35817 0.3394 0.52375 0.0
C709 C 0.29327 0.35808 0.51019 0.0
C710 C 0.30404 0.33524 0.49041 0.0
C711 C 0.34804 0.30373 0.47694 0.0
C712 C 0.38107 0.29478 0.48319 0.0
C713 C 0.33655 0.32594 0.49692 0.0
C714 C 0.40205 0.30796 0.51011 0.0
C715 C 0.39069 0.33005 0.53021 0.0
H716 H 0.02987 0.38289 0.04037 0.0
H717 H 0.94421 0.25976 0.00226 0.0
H718 H 1.00316 0.26468 0.97241 0.0
H719 H 0.07953 0.30392 0.95778 0.0
H720 H 0.16375 0.42726 0.99636 0.0
H721 H 0.1047 0.42207 0.0255 0.0
C722 C 0.02387 0.35699 0.02555 0.0
C723 C 0.9826 0.3209 0.02367 0.0
C724 C 0.05775 0.36004 0.00861 0.0
C725 C 0.97559 0.28794 0.00412 0.0
C726 C 1.00935 0.2907 0.98713 0.0
C727 C 0.085 0.32959 0.97265 0.0
C728 C 0.12618 0.36593 0.97488 0.0
C729 C 0.05066 0.32653 0.98933 0.0
C730 C 0.13251 0.39901 0.99409 0.0
C731 C 0.09872 0.39607 0.01081 0.0
H732 H 0.68962 0.01711 0.567 0.0
H733 H 0.68906 0.92397 0.50725 0.0
H734 H 0.72615 0.98012 0.47072 0.0
H735 H 0.75657 0.05472 0.45539 0.0
H736 H 0.75664 0.14796 0.51473 0.0
H737 H 0.72183 0.09233 0.55203 0.0
C738 C 0.69769 1.00894 0.54603 0.0
C739 C 0.68634 0.96615 0.53988 0.0
C740 C 0.71879 0.04133 0.52512 0.0
C741 C 0.69726 0.95646 0.51259 0.0
C742 C 0.71844 0.98858 0.49169 0.0
C743 C 0.74914 0.0631 0.4765 0.0
C744 C 0.7591 0.10558 0.48219 0.0
C745 C 0.72901 0.03099 0.49767 0.0
C746 C 0.74934 0.11564 0.50974 0.0
C747 C 0.72938 0.0838 0.53103 0.0
H748 H 0.68067 0.69094 0.06033 0.0
H749 H 0.76531 0.6746 1.00147 0.0
H750 H 0.76048 0.72311 0.96661 0.0
H751 H 0.72818 0.76561 0.95145 0.0
H752 H 0.64156 0.77999 0.00954 0.0
H753 H 0.65191 0.73721 0.0464 0.0
C754 C 0.69835 0.69812 0.03997 0.0
C755 C 0.72299 0.67868 0.03344 0.0
C756 C 0.69509 0.72568 0.01992 0.0
C757 C 0.74589 0.68879 0.00702 0.0
C758 C 0.74313 0.71654 0.98706 0.0
C759 C 0.71183 0.75987 0.97228 0.0
C760 C 0.68379 0.77581 0.97757 0.0
C761 C 0.71722 0.73452 0.99308 0.0
C762 C 0.66324 0.76816 0.00481 0.0
C763 C 0.66898 0.74348 0.02584 0.0
H764 H 0.9925 0.7162 0.46197 0.0
H765 H 0.90038 0.62128 0.52081 0.0
H766 H 0.9563 0.64211 0.55766 0.0
H767 H 0.03158 0.68521 0.57217 0.0
H768 H 0.12369 0.77948 0.51292 0.0
H769 H 0.0671 0.76083 0.47705 0.0
C770 C 0.98441 0.70003 0.48288 0.0
C771 C 0.94217 0.66696 0.48854 0.0
C772 C 1.01672 0.71198 0.50378 0.0
C773 C 0.93249 0.64673 0.51586 0.0
C774 C 0.96452 0.6586 0.53688 0.0
C775 C 0.03944 0.70192 0.55147 0.0
C776 C 0.08209 0.73368 0.54524 0.0
C777 C 1.0068 0.69087 0.53093 0.0
C778 C 0.09134 0.75494 0.51831 0.0
C779 C 0.05896 0.74422 0.49778 0.0
H780 H 0.75675 0.07079 0.06546 0.0
H781 H 0.85229 0.14776 1.00117 0.0
H782 H 0.81947 0.08929 0.96618 0.0
H783 H 0.76086 0.01792 0.95266 0.0
H784 H 0.66711 0.93986 0.01716 0.0
H785 H 0.70262 0.99676 0.05351 0.0
C786 C 0.77107 0.07472 0.04406 0.0
C787 C 0.80667 0.1143 0.03597 0.0
C788 C 0.75222 0.0407 0.02401 0.0
C789 C 0.82435 0.1183 0.00791 0.0
C790 C 0.8057 0.08472 0.98785 0.0
C791 C 0.74845 1.01341 0.97475 0.0
C792 C 0.71126 0.97504 0.98221 0.0
C793 C 0.7691 0.04616 0.99545 0.0
C794 C 0.6958 0.9691 0.01099 0.0
C795 C 0.71596 1.00171 0.03168 0.0
H796 H 0.79934 0.76956 0.46157 0.0
H797 H 0.77225 0.66228 0.51689 0.0
H798 H 0.73557 0.68442 0.55154 0.0
H799 H 0.71126 0.73415 0.56627 0.0
H800 H 0.7399 0.84264 0.51187 0.0
H801 H 0.77605 0.82013 0.47677 0.0
C802 C 0.78584 0.75121 0.48133 0.0
C803 C 0.78875 0.71425 0.48647 0.0
C804 C 0.76503 0.76434 0.50137 0.0
C805 C 0.77019 0.6905 0.51202 0.0
C806 C 0.74939 0.70332 0.53202 0.0
C807 C 0.72587 0.75329 0.54698 0.0
C808 C 0.72298 0.79026 0.54188 0.0
C809 C 0.7467 0.74022 0.52695 0.0
C810 C 0.74131 0.81393 0.51629 0.0
C811 C 0.76214 0.80115 0.49626 0.0
H812 H 0.9554 0.66924 0.06812 0.0
H813 H 0.88633 0.71449 0.0166 0.0
H814 H 0.94794 0.75199 0.9843 0.0
H815 H 1.01978 0.76828 0.96879 0.0
H816 H 0.08897 0.72328 0.02011 0.0
H817 H 0.0296 0.69072 0.05495 0.0
C818 C 0.95389 0.68786 0.05019 0.0
C819 C 0.9157 0.68836 0.04473 0.0
C820 C 0.98964 0.70961 0.03166 0.0
C821 C 0.91471 0.71259 0.02109 0.0
C822 C 0.95011 0.73433 0.00265 0.0
C823 C 1.02195 0.75159 0.98773 0.0
C824 C 0.05867 0.74799 0.99168 0.0
C825 C 0.98742 0.73238 0.0074 0.0
C826 C 0.06132 0.72688 0.01661 0.0
C827 C 0.02715 0.70788 0.03641 0.0
H828 H 0.32066 0.99081 0.56696 0.0
H829 H 0.21115 0.90864 0.51414 0.0
H830 H 0.23056 0.96725 0.47984 0.0
H831 H 0.27818 0.04196 0.46512 0.0
H832 H 0.38606 0.12456 0.51909 0.0
H833 H 0.36751 0.06553 0.5527 0.0
C834 C 0.30058 0.98563 0.5482 0.0
C835 C 0.26419 0.94509 0.54341 0.0
C836 C 0.31169 0.01963 0.5287 0.0
C837 C 0.23945 0.93916 0.5184 0.0
C838 C 0.25042 0.97281 0.49882 0.0
C839 C 0.29742 0.04735 0.48439 0.0
C840 C 0.33347 0.08803 0.48947 0.0
C841 C 0.28637 1.01324 0.50382 0.0
C842 C 0.35844 0.09377 0.51432 0.0
C843 C 0.3477 0.05998 0.53369 0.0
H844 H 0.25853 0.25606 0.97417 0.0
H845 H 0.33728 0.38688 0.00279 0.0
H846 H 0.37729 0.36545 0.03415 0.0
H847 H 0.39266 0.31039 0.05173 0.0
H848 H 0.31651 0.18036 0.0216 0.0
H849 H 0.27358 0.20093 0.99195 0.0
C850 C 0.28452 0.28005 0.98709 0.0
C851 C 0.29453 0.32313 0.9859 0.0
C852 C 0.30828 0.26771 0.00466 0.0
C853 C 0.32807 0.35341 0.00337 0.0
C854 C 0.35139 0.34125 0.02122 0.0
C855 C 0.36632 0.28645 0.03898 0.0
C856 C 0.35769 0.24385 0.03894 0.0
C857 C 0.34204 0.29859 0.02184 0.0
C858 C 0.324 0.21339 0.0218 0.0
C859 C 0.29935 0.22512 0.00496 0.0
H860 H 0.05119 0.32877 0.56296 0.0
H861 H 0.14101 0.32363 0.50278 0.0
H862 H 0.08362 0.28518 0.46772 0.0
H863 H 1.00825 0.25394 0.45389 0.0
H864 H 0.91821 0.25647 0.51516 0.0
H865 H 0.97559 0.29488 0.55008 0.0
C866 C 0.05841 0.31882 0.54243 0.0
C867 C 0.10076 0.32933 0.53573 0.0
C868 C 0.02515 0.29629 0.52244 0.0
C869 C 0.10906 0.31664 0.50855 0.0
C870 C 0.07612 0.29437 0.48849 0.0
C871 C 1.00086 0.26225 0.47499 0.0
C872 C 0.95862 0.25217 0.48166 0.0
C873 C 0.03406 0.28411 0.49518 0.0
C874 C 0.95025 0.26414 0.50908 0.0
C875 C 0.98311 0.28599 0.5292 0.0
loop_
_geom_bond_atom_site_label_1
_geom_bond_atom_site_label_2
_geom_bond_distance
_geom_bond_site_symmetry_2
_ccdc_geom_bond_type
C0 C1 1.351 . S
C0 N3 1.368 . S
C0 H5 0.931 . S
C1 C0 1.351 . S
C1 N2 1.373 . S
C1 H29 0.930 . S
N2 C1 1.373 . S
N2 C4 1.340 . S
N3 C0 1.368 . S
N3 C4 1.321 . S
N3 Co6 2.135 . S
C4 N2 1.340 . S
C4 N3 1.321 . S
C4 H28 0.930 . S
H5 C0 0.931 . S
Co6 N3 2.135 . S
Co6 N9 2.121 . S
Co6 O14 2.055 . S
Co6 O17 2.039 . S
Co6 N20 2.140 . S
C7 O8 1.227 . S
C7 O17 1.265 . S
O8 C7 1.227 . S
N9 Co6 2.121 . S
N9 C11 1.375 . S
N9 C12 1.313 . S
C10 C11 1.338 . S
C10 N13 1.377 . S
C10 H30 0.930 . S
C11 N9 1.375 . S
C11 C10 1.338 . S
C11 H15 0.931 . S
C12 N9 1.313 . S
C12 N13 1.344 . S
C12 H16 0.930 . S
N13 C10 1.377 . S
N13 C12 1.344 . S
O14 Co6 2.055 . S
O14 C18 1.253 . S
H15 C11 0.931 . S
H16 C12 0.930 . S
O17 Co6 2.039 . S
O17 C7 1.265 . S
C18 O14 1.253 . S
C18 O19 1.227 . S
O19 C18 1.227 . S
N20 Co6 2.140 . S
N20 C23 1.346 . S
N20 C24 1.345 . S
C21 C22 1.387 . S
C21 C25 1.391 . S
C22 C21 1.387 . S
C22 C23 1.369 . S
C22 H31 0.929 . S
C23 N20 1.346 . S
C23 C22 1.369 . S
C23 H26 0.928 . S
C24 N20 1.345 . S
C24 C25 1.371 . S
C24 H27 0.931 . S
C25 C21 1.391 . S
C25 C24 1.371 . S
C25 H32 0.930 . S
H26 C23 0.928 . S
H27 C24 0.931 . S
H28 C4 0.930 . S
H29 C1 0.930 . S
H30 C10 0.930 . S
H31 C22 0.929 . S
H32 C25 0.930 . S
C33 C34 1.351 . S
C33 N36 1.368 . S
C33 H38 0.931 . S
C34 C33 1.351 . S
C34 N35 1.373 . S
C34 H62 0.930 . S
N35 C34 1.373 . S
N35 C37 1.340 . S
N36 C33 1.368 . S
N36 C37 1.321 . S
N36 Co39 2.135 . S
C37 N35 1.340 . S
C37 N36 1.321 . S
C37 H61 0.930 . S
H38 C33 0.931 . S
Co39 N36 2.135 . S
Co39 N42 2.121 . S
Co39 O47 2.055 . S
Co39 O50 2.039 . S
Co39 N53 2.140 . S
C40 O41 1.227 . S
C40 O50 1.265 . S
O41 C40 1.227 . S
N42 Co39 2.121 . S
N42 C44 1.375 . S
N42 C45 1.313 . S
C43 C44 1.338 . S
C43 N46 1.377 . S
C43 H63 0.930 . S
C44 N42 1.375 . S
C44 C43 1.338 . S
C44 H48 0.931 . S
C45 N42 1.313 . S
C45 N46 1.344 . S
C45 H49 0.930 . S
N46 C43 1.377 . S
N46 C45 1.344 . S
O47 Co39 2.055 . S
O47 C51 1.253 . S
H48 C44 0.931 . S
H49 C45 0.930 . S
O50 Co39 2.039 . S
O50 C40 1.265 . S
C51 O47 1.253 . S
C51 O52 1.227 . S
O52 C51 1.227 . S
N53 Co39 2.140 . S
N53 C56 1.346 . S
N53 C57 1.345 . S
C54 C55 1.387 . S
C54 C58 1.391 . S
C55 C54 1.387 . S
C55 C56 1.369 . S
C55 H64 0.929 . S
C56 N53 1.346 . S
C56 C55 1.369 . S
C56 H59 0.928 . S
C57 N53 1.345 . S
C57 C58 1.371 . S
C57 H60 0.931 . S
C58 C54 1.391 . S
C58 C57 1.371 . S
C58 H65 0.930 . S
H59 C56 0.928 . S
H60 C57 0.931 . S
H61 C37 0.930 . S
H62 C34 0.930 . S
H63 C43 0.930 . S
H64 C55 0.929 . S
H65 C58 0.930 . S
C66 C67 1.351 . S
C66 N69 1.368 . S
C66 H71 0.931 . S
C67 C66 1.351 . S
C67 N68 1.373 . S
C67 H95 0.930 . S
N68 C67 1.373 . S
N68 C70 1.340 . S
N69 C66 1.368 . S
N69 C70 1.321 . S
N69 Co72 2.135 . S
C70 N68 1.340 . S
C70 N69 1.321 . S
C70 H94 0.930 . S
H71 C66 0.931 . S
Co72 N69 2.135 . S
Co72 N75 2.121 . S
Co72 O80 2.055 . S
Co72 O83 2.039 . S
Co72 N86 2.140 . S
C73 O74 1.227 . S
C73 O83 1.265 . S
O74 C73 1.227 . S
N75 Co72 2.121 . S
N75 C77 1.375 . S
N75 C78 1.313 . S
C76 C77 1.338 . S
C76 N79 1.377 . S
C76 H96 0.930 . S
C77 N75 1.375 . S
C77 C76 1.338 . S
C77 H81 0.931 . S
C78 N75 1.313 . S
C78 N79 1.344 . S
C78 H82 0.930 . S
N79 C76 1.377 . S
N79 C78 1.344 . S
O80 Co72 2.055 . S
O80 C84 1.253 . S
H81 C77 0.931 . S
H82 C78 0.930 . S
O83 Co72 2.039 . S
O83 C73 1.265 . S
C84 O80 1.253 . S
C84 O85 1.227 . S
O85 C84 1.227 . S
N86 Co72 2.140 . S
N86 C89 1.346 . S
N86 C90 1.345 . S
C87 C88 1.387 . S
C87 C91 1.391 . S
C88 C87 1.387 . S
C88 C89 1.369 . S
C88 H97 0.929 . S
C89 N86 1.346 . S
C89 C88 1.369 . S
C89 H92 0.928 . S
C90 N86 1.345 . S
C90 C91 1.371 . S
C90 H93 0.931 . S
C91 C87 1.391 . S
C91 C90 1.371 . S
C91 H98 0.930 . S
H92 C89 0.928 . S
H93 C90 0.931 . S
H94 C70 0.930 . S
H95 C67 0.930 . S
H96 C76 0.930 . S
H97 C88 0.929 . S
H98 C91 0.930 . S
C99 C100 1.351 . S
C99 N102 1.368 . S
C99 H104 0.931 . S
C100 C99 1.351 . S
C100 N101 1.373 . S
C100 H128 0.930 . S
N101 C100 1.373 . S
N101 C103 1.340 . S
N102 C99 1.368 . S
N102 C103 1.321 . S
N102 Co105 2.135 . S
C103 N101 1.340 . S
C103 N102 1.321 . S
C103 H127 0.930 . S
H104 C99 0.931 . S
Co105 N102 2.135 . S
Co105 N108 2.121 . S
Co105 O113 2.055 . S
Co105 O116 2.039 . S
Co105 N119 2.140 . S
C106 O107 1.227 . S
C106 O116 1.265 . S
O107 C106 1.227 . S
N108 Co105 2.121 . S
N108 C110 1.375 . S
N108 C111 1.313 . S
C109 C110 1.338 . S
C109 N112 1.377 . S
C109 H129 0.930 . S
C110 N108 1.375 . S
C110 C109 1.338 . S
C110 H114 0.931 . S
C111 N108 1.313 . S
C111 N112 1.344 . S
C111 H115 0.930 . S
N112 C109 1.377 . S
N112 C111 1.344 . S
O113 Co105 2.055 . S
O113 C117 1.253 . S
H114 C110 0.931 . S
H115 C111 0.930 . S
O116 Co105 2.039 . S
O116 C106 1.265 . S
C117 O113 1.253 . S
C117 O118 1.227 . S
O118 C117 1.227 . S
N119 Co105 2.140 . S
N119 C122 1.346 . S
N119 C123 1.345 . S
C120 C121 1.387 . S
C120 C124 1.391 . S
C121 C120 1.387 . S
C121 C122 1.369 . S
C121 H130 0.929 . S
C122 N119 1.346 . S
C122 C121 1.369 . S
C122 H125 0.928 . S
C123 N119 1.345 . S
C123 C124 1.371 . S
C123 H126 0.931 . S
C124 C120 1.391 . S
C124 C123 1.371 . S
C124 H131 0.930 . S
H125 C122 0.928 . S
H126 C123 0.931 . S
H127 C103 0.930 . S
H128 C100 0.930 . S
H129 C109 0.930 . S
H130 C121 0.929 . S
H131 C124 0.930 . S
C132 C133 1.351 . S
C132 N135 1.368 . S
C132 H137 0.931 . S
C133 C132 1.351 . S
C133 N134 1.373 . S
C133 H161 0.930 . S
N134 C133 1.373 . S
N134 C136 1.340 . S
N135 C132 1.368 . S
N135 C136 1.321 . S
N135 Co138 2.135 . S
C136 N134 1.340 . S
C136 N135 1.321 . S
C136 H160 0.930 . S
H137 C132 0.931 . S
Co138 N135 2.135 . S
Co138 N141 2.121 . S
Co138 O146 2.055 . S
Co138 O149 2.039 . S
Co138 N152 2.140 . S
C139 O140 1.227 . S
C139 O149 1.265 . S
O140 C139 1.227 . S
N141 Co138 2.121 . S
N141 C143 1.375 . S
N141 C144 1.313 . S
C142 C143 1.338 . S
C142 N145 1.377 . S
C142 H162 0.930 . S
C143 N141 1.375 . S
C143 C142 1.338 . S
C143 H147 0.931 . S
C144 N141 1.313 . S
C144 N145 1.344 . S
C144 H148 0.930 . S
N145 C142 1.377 . S
N145 C144 1.344 . S
O146 Co138 2.055 . S
O146 C150 1.253 . S
H147 C143 0.931 . S
H148 C144 0.930 . S
O149 Co138 2.039 . S
O149 C139 1.265 . S
C150 O146 1.253 . S
C150 O151 1.227 . S
O151 C150 1.227 . S
N152 Co138 2.140 . S
N152 C155 1.346 . S
N152 C156 1.345 . S
C153 C154 1.387 . S
C153 C157 1.391 . S
C154 C153 1.387 . S
C154 C155 1.369 . S
C154 H163 0.929 . S
C155 N152 1.346 . S
C155 C154 1.369 . S
C155 H158 0.928 . S
C156 N152 1.345 . S
C156 C157 1.371 . S
C156 H159 0.931 . S
C157 C153 1.391 . S
C157 C156 1.371 . S
C157 H164 0.930 . S
H158 C155 0.928 . S
H159 C156 0.931 . S
H160 C136 0.930 . S
H161 C133 0.930 . S
H162 C142 0.930 . S
H163 C154 0.929 . S
H164 C157 0.930 . S
C165 C166 1.351 . S
C165 N168 1.368 . S
C165 H170 0.931 . S
C166 C165 1.351 . S
C166 N167 1.373 . S
C166 H194 0.930 . S
N167 C166 1.373 . S
N167 C169 1.340 . S
N168 C165 1.368 . S
N168 C169 1.321 . S
N168 Co171 2.135 . S
C169 N167 1.340 . S
C169 N168 1.321 . S
C169 H193 0.930 . S
H170 C165 0.931 . S
Co171 N168 2.135 . S
Co171 N174 2.121 . S
Co171 O179 2.055 . S
Co171 O182 2.039 . S
Co171 N185 2.140 . S
C172 O173 1.227 . S
C172 O182 1.265 . S
O173 C172 1.227 . S
N174 Co171 2.121 . S
N174 C176 1.375 . S
N174 C177 1.313 . S
C175 C176 1.338 . S
C175 N178 1.377 . S
C175 H195 0.930 . S
C176 N174 1.375 . S
C176 C175 1.338 . S
C176 H180 0.931 . S
C177 N174 1.313 . S
C177 N178 1.344 . S
C177 H181 0.930 . S
N178 C175 1.377 . S
N178 C177 1.344 . S
O179 Co171 2.055 . S
O179 C183 1.253 . S
H180 C176 0.931 . S
H181 C177 0.930 . S
O182 Co171 2.039 . S
O182 C172 1.265 . S
C183 O179 1.253 . S
C183 O184 1.227 . S
O184 C183 1.227 . S
N185 Co171 2.140 . S
N185 C188 1.346 . S
N185 C189 1.345 . S
C186 C187 1.387 . S
C186 C190 1.391 . S
C187 C186 1.387 . S
C187 C188 1.369 . S
C187 H196 0.929 . S
C188 N185 1.346 . S
C188 C187 1.369 . S
C188 H191 0.928 . S
C189 N185 1.345 . S
C189 C190 1.371 . S
C189 H192 0.931 . S
C190 C186 1.391 . S
C190 C189 1.371 . S
C190 H197 0.930 . S
H191 C188 0.928 . S
H192 C189 0.931 . S
H193 C169 0.930 . S
H194 C166 0.930 . S
H195 C175 0.930 . S
H196 C187 0.929 . S
H197 C190 0.930 . S
C198 C199 1.351 . S
C198 N201 1.368 . S
C198 H203 0.931 . S
C199 C198 1.351 . S
C199 N200 1.373 . S
C199 H227 0.930 . S
N200 C199 1.373 . S
N200 C202 1.340 . S
N201 C198 1.368 . S
N201 C202 1.321 . S
N201 Co204 2.135 . S
C202 N200 1.340 . S
C202 N201 1.321 . S
C202 H226 0.930 . S
H203 C198 0.931 . S
Co204 N201 2.135 . S
Co204 N207 2.121 . S
Co204 O212 2.055 . S
Co204 O215 2.039 . S
Co204 N218 2.140 . S
C205 O206 1.227 . S
C205 O215 1.265 . S
O206 C205 1.227 . S
N207 Co204 2.121 . S
N207 C209 1.375 . S
N207 C210 1.313 . S
C208 C209 1.338 . S
C208 N211 1.377 . S
C208 H228 0.930 . S
C209 N207 1.375 . S
C209 C208 1.338 . S
C209 H213 0.931 . S
C210 N207 1.313 . S
C210 N211 1.344 . S
C210 H214 0.930 . S
N211 C208 1.377 . S
N211 C210 1.344 . S
O212 Co204 2.055 . S
O212 C216 1.253 . S
H213 C209 0.931 . S
H214 C210 0.930 . S
O215 Co204 2.039 . S
O215 C205 1.265 . S
C216 O212 1.253 . S
C216 O217 1.227 . S
O217 C216 1.227 . S
N218 Co204 2.140 . S
N218 C221 1.346 . S
N218 C222 1.345 . S
C219 C220 1.387 . S
C219 C223 1.391 . S
C220 C219 1.387 . S
C220 C221 1.369 . S
C220 H229 0.929 . S
C221 N218 1.346 . S
C221 C220 1.369 . S
C221 H224 0.928 . S
C222 N218 1.345 . S
C222 C223 1.371 . S
C222 H225 0.931 . S
C223 C219 1.391 . S
C223 C222 1.371 . S
C223 H230 0.930 . S
H224 C221 0.928 . S
H225 C222 0.931 . S
H226 C202 0.930 . S
H227 C199 0.930 . S
H228 C208 0.930 . S
H229 C220 0.929 . S
H230 C223 0.930 . S
C231 C232 1.351 . S
C231 N234 1.368 . S
C231 H236 0.931 . S
C232 C231 1.351 . S
C232 N233 1.373 . S
C232 H260 0.930 . S
N233 C232 1.373 . S
N233 C235 1.340 . S
N234 C231 1.368 . S
N234 C235 1.321 . S
N234 Co237 2.135 . S
C235 N233 1.340 . S
C235 N234 1.321 . S
C235 H259 0.930 . S
H236 C231 0.931 . S
Co237 N234 2.135 . S
Co237 N240 2.121 . S
Co237 O245 2.055 . S
Co237 O248 2.039 . S
Co237 N251 2.140 . S
C238 O239 1.227 . S
C238 O248 1.265 . S
O239 C238 1.227 . S
N240 Co237 2.121 . S
N240 C242 1.375 . S
N240 C243 1.313 . S
C241 C242 1.338 . S
C241 N244 1.377 . S
C241 H261 0.930 . S
C242 N240 1.375 . S
C242 C241 1.338 . S
C242 H246 0.931 . S
C243 N240 1.313 . S
C243 N244 1.344 . S
C243 H247 0.930 . S
N244 C241 1.377 . S
N244 C243 1.344 . S
O245 Co237 2.055 . S
O245 C249 1.253 . S
H246 C242 0.931 . S
H247 C243 0.930 . S
O248 Co237 2.039 . S
O248 C238 1.265 . S
C249 O245 1.253 . S
C249 O250 1.227 . S
O250 C249 1.227 . S
N251 Co237 2.140 . S
N251 C254 1.346 . S
N251 C255 1.345 . S
C252 C253 1.387 . S
C252 C256 1.391 . S
C253 C252 1.387 . S
C253 C254 1.369 . S
C253 H262 0.929 . S
C254 N251 1.346 . S
C254 C253 1.369 . S
C254 H257 0.928 . S
C255 N251 1.345 . S
C255 C256 1.371 . S
C255 H258 0.931 . S
C256 C252 1.391 . S
C256 C255 1.371 . S
C256 H263 0.930 . S
H257 C254 0.928 . S
H258 C255 0.931 . S
H259 C235 0.930 . S
H260 C232 0.930 . S
H261 C241 0.930 . S
H262 C253 0.929 . S
H263 C256 0.930 . S
C264 C265 1.351 . S
C264 N267 1.368 . S
C264 H269 0.931 . S
C265 C264 1.351 . S
C265 N266 1.373 . S
C265 H293 0.930 . S
N266 C265 1.373 . S
N266 C268 1.340 . S
N267 C264 1.368 . S
N267 C268 1.321 . S
N267 Co270 2.135 . S
C268 N266 1.340 . S
C268 N267 1.321 . S
C268 H292 0.930 . S
H269 C264 0.931 . S
Co270 N267 2.135 . S
Co270 N273 2.121 . S
Co270 O278 2.055 . S
Co270 O281 2.039 . S
Co270 N284 2.140 . S
C271 O272 1.227 . S
C271 O281 1.265 . S
O272 C271 1.227 . S
N273 Co270 2.121 . S
N273 C275 1.375 . S
N273 C276 1.313 . S
C274 C275 1.338 . S
C274 N277 1.377 . S
C274 H294 0.930 . S
C275 N273 1.375 . S
C275 C274 1.338 . S
C275 H279 0.931 . S
C276 N273 1.313 . S
C276 N277 1.344 . S
C276 H280 0.930 . S
N277 C274 1.377 . S
N277 C276 1.344 . S
O278 Co270 2.055 . S
O278 C282 1.253 . S
H279 C275 0.931 . S
H280 C276 0.930 . S
O281 Co270 2.039 . S
O281 C271 1.265 . S
C282 O278 1.253 . S
C282 O283 1.227 . S
O283 C282 1.227 . S
N284 Co270 2.140 . S
N284 C287 1.346 . S
N284 C288 1.345 . S
C285 C286 1.387 . S
C285 C289 1.391 . S
C286 C285 1.387 . S
C286 C287 1.369 . S
C286 H295 0.929 . S
C287 N284 1.346 . S
C287 C286 1.369 . S
C287 H290 0.928 . S
C288 N284 1.345 . S
C288 C289 1.371 . S
C288 H291 0.931 . S
C289 C285 1.391 . S
C289 C288 1.371 . S
C289 H296 0.930 . S
H290 C287 0.928 . S
H291 C288 0.931 . S
H292 C268 0.930 . S
H293 C265 0.930 . S
H294 C274 0.930 . S
H295 C286 0.929 . S
H296 C289 0.930 . S
C297 C298 1.351 . S
C297 N300 1.368 . S
C297 H302 0.931 . S
C298 C297 1.351 . S
C298 N299 1.373 . S
C298 H326 0.930 . S
N299 C298 1.373 . S
N299 C301 1.340 . S
N300 C297 1.368 . S
N300 C301 1.321 . S
N300 Co303 2.135 . S
C301 N299 1.340 . S
C301 N300 1.321 . S
C301 H325 0.930 . S
H302 C297 0.931 . S
Co303 N300 2.135 . S
Co303 N306 2.121 . S
Co303 O311 2.055 . S
Co303 O314 2.039 . S
Co303 N317 2.140 . S
C304 O305 1.227 . S
C304 O314 1.265 . S
O305 C304 1.227 . S
N306 Co303 2.121 . S
N306 C308 1.375 . S
N306 C309 1.313 . S
C307 C308 1.338 . S
C307 N310 1.377 . S
C307 H327 0.930 . S
C308 N306 1.375 . S
C308 C307 1.338 . S
C308 H312 0.931 . S
C309 N306 1.313 . S
C309 N310 1.344 . S
C309 H313 0.930 . S
N310 C307 1.377 . S
N310 C309 1.344 . S
O311 Co303 2.055 . S
O311 C315 1.253 . S
H312 C308 0.931 . S
H313 C309 0.930 . S
O314 Co303 2.039 . S
O314 C304 1.265 . S
C315 O311 1.253 . S
C315 O316 1.227 . S
O316 C315 1.227 . S
N317 Co303 2.140 . S
N317 C320 1.346 . S
N317 C321 1.345 . S
C318 C319 1.387 . S
C318 C322 1.391 . S
C319 C318 1.387 . S
C319 C320 1.369 . S
C319 H328 0.929 . S
C320 N317 1.346 . S
C320 C319 1.369 . S
C320 H323 0.928 . S
C321 N317 1.345 . S
C321 C322 1.371 . S
C321 H324 0.931 . S
C322 C318 1.391 . S
C322 C321 1.371 . S
C322 H329 0.930 . S
H323 C320 0.928 . S
H324 C321 0.931 . S
H325 C301 0.930 . S
H326 C298 0.930 . S
H327 C307 0.930 . S
H328 C319 0.929 . S
H329 C322 0.930 . S
C330 C331 1.351 . S
C330 N333 1.368 . S
C330 H335 0.931 . S
C331 C330 1.351 . S
C331 N332 1.373 . S
C331 H359 0.930 . S
N332 C331 1.373 . S
N332 C334 1.340 . S
N333 C330 1.368 . S
N333 C334 1.321 . S
N333 Co336 2.135 . S
C334 N332 1.340 . S
C334 N333 1.321 . S
C334 H358 0.930 . S
H335 C330 0.931 . S
Co336 N333 2.135 . S
Co336 N339 2.121 . S
Co336 O344 2.055 . S
Co336 O347 2.039 . S
Co336 N350 2.140 . S
C337 O338 1.227 . S
C337 O347 1.265 . S
O338 C337 1.227 . S
N339 Co336 2.121 . S
N339 C341 1.375 . S
N339 C342 1.313 . S
C340 C341 1.338 . S
C340 N343 1.377 . S
C340 H360 0.930 . S
C341 N339 1.375 . S
C341 C340 1.338 . S
C341 H345 0.931 . S
C342 N339 1.313 . S
C342 N343 1.344 . S
C342 H346 0.930 . S
N343 C340 1.377 . S
N343 C342 1.344 . S
O344 Co336 2.055 . S
O344 C348 1.253 . S
H345 C341 0.931 . S
H346 C342 0.930 . S
O347 Co336 2.039 . S
O347 C337 1.265 . S
C348 O344 1.253 . S
C348 O349 1.227 . S
O349 C348 1.227 . S
N350 Co336 2.140 . S
N350 C353 1.346 . S
N350 C354 1.345 . S
C351 C352 1.387 . S
C351 C355 1.391 . S
C352 C351 1.387 . S
C352 C353 1.369 . S
C352 H361 0.929 . S
C353 N350 1.346 . S
C353 C352 1.369 . S
C353 H356 0.928 . S
C354 N350 1.345 . S
C354 C355 1.371 . S
C354 H357 0.931 . S
C355 C351 1.391 . S
C355 C354 1.371 . S
C355 H362 0.930 . S
H356 C353 0.928 . S
H357 C354 0.931 . S
H358 C334 0.930 . S
H359 C331 0.930 . S
H360 C340 0.930 . S
H361 C352 0.929 . S
H362 C355 0.930 . S
C363 C364 1.351 . S
C363 N366 1.368 . S
C363 H368 0.931 . S
C364 C363 1.351 . S
C364 N365 1.373 . S
C364 H392 0.930 . S
N365 C364 1.373 . S
N365 C367 1.340 . S
N366 C363 1.368 . S
N366 C367 1.321 . S
N366 Co369 2.135 . S
C367 N365 1.340 . S
C367 N366 1.321 . S
C367 H391 0.930 . S
H368 C363 0.931 . S
Co369 N366 2.135 . S
Co369 N372 2.121 . S
Co369 O377 2.055 . S
Co369 O380 2.039 . S
Co369 N383 2.140 . S
C370 O371 1.227 . S
C370 O380 1.265 . S
O371 C370 1.227 . S
N372 Co369 2.121 . S
N372 C374 1.375 . S
N372 C375 1.313 . S
C373 C374 1.338 . S
C373 N376 1.377 . S
C373 H393 0.930 . S
C374 N372 1.375 . S
C374 C373 1.338 . S
C374 H378 0.931 . S
C375 N372 1.313 . S
C375 N376 1.344 . S
C375 H379 0.930 . S
N376 C373 1.377 . S
N376 C375 1.344 . S
O377 Co369 2.055 . S
O377 C381 1.253 . S
H378 C374 0.931 . S
H379 C375 0.930 . S
O380 Co369 2.039 . S
O380 C370 1.265 . S
C381 O377 1.253 . S
C381 O382 1.227 . S
O382 C381 1.227 . S
N383 Co369 2.140 . S
N383 C386 1.346 . S
N383 C387 1.345 . S
C384 C385 1.387 . S
C384 C388 1.391 . S
C385 C384 1.387 . S
C385 C386 1.369 . S
C385 H394 0.929 . S
C386 N383 1.346 . S
C386 C385 1.369 . S
C386 H389 0.928 . S
C387 N383 1.345 . S
C387 C388 1.371 . S
C387 H390 0.931 . S
C388 C384 1.391 . S
C388 C387 1.371 . S
C388 H395 0.930 . S
H389 C386 0.928 . S
H390 C387 0.931 . S
H391 C367 0.930 . S
H392 C364 0.930 . S
H393 C373 0.930 . S
H394 C385 0.929 . S
H395 C388 0.930 . S
H396 C402 0.930 . S
H397 C405 0.930 . S
H398 C406 0.930 . S
H399 C407 0.930 . S
H400 C410 0.930 . S
H401 C411 0.930 . S
C402 H396 0.930 . S
C402 C403 1.355 . S
C402 C404 1.415 . S
C403 C402 1.355 . S
C403 C405 1.419 . S
C404 C402 1.415 . S
C404 C409 1.425 . S
C404 C411 1.409 . S
C405 H397 0.930 . S
C405 C403 1.419 . S
C405 C406 1.362 . S
C406 H398 0.930 . S
C406 C405 1.362 . S
C406 C409 1.409 . S
C407 H399 0.930 . S
C407 C408 1.355 . S
C407 C409 1.415 . S
C408 C407 1.355 . S
C408 C410 1.419 . S
C409 C404 1.425 . S
C409 C406 1.409 . S
C409 C407 1.415 . S
C410 H400 0.930 . S
C410 C408 1.419 . S
C410 C411 1.362 . S
C411 H401 0.930 . S
C411 C404 1.409 . S
C411 C410 1.362 . S
H412 C418 0.930 . S
H413 C421 0.930 . S
H414 C422 0.930 . S
H415 C423 0.930 . S
H416 C426 0.930 . S
H417 C427 0.930 . S
C418 H412 0.930 . S
C418 C419 1.355 . S
C418 C420 1.415 . S
C419 C418 1.355 . S
C419 C421 1.419 . S
C420 C418 1.415 . S
C420 C425 1.425 . S
C420 C427 1.409 . S
C421 H413 0.930 . S
C421 C419 1.419 . S
C421 C422 1.362 . S
C422 H414 0.930 . S
C422 C421 1.362 . S
C422 C425 1.409 . S
C423 H415 0.930 . S
C423 C424 1.355 . S
C423 C425 1.415 . S
C424 C423 1.355 . S
C424 C426 1.419 . S
C425 C420 1.425 . S
C425 C422 1.409 . S
C425 C423 1.415 . S
C426 H416 0.930 . S
C426 C424 1.419 . S
C426 C427 1.362 . S
C427 H417 0.930 . S
C427 C420 1.409 . S
C427 C426 1.362 . S
H428 C434 0.930 . S
H429 C437 0.930 . S
H430 C438 0.930 . S
H431 C439 0.930 . S
H432 C442 0.930 . S
H433 C443 0.930 . S
C434 H428 0.930 . S
C434 C435 1.355 . S
C434 C436 1.415 . S
C435 C434 1.355 . S
C435 C437 1.419 . S
C436 C434 1.415 . S
C436 C441 1.425 . S
C436 C443 1.409 . S
C437 H429 0.930 . S
C437 C435 1.419 . S
C437 C438 1.362 . S
C438 H430 0.930 . S
C438 C437 1.362 . S
C438 C441 1.409 . S
C439 H431 0.930 . S
C439 C440 1.355 . S
C439 C441 1.415 . S
C440 C439 1.355 . S
C440 C442 1.419 . S
C441 C436 1.425 . S
C441 C438 1.409 . S
C441 C439 1.415 . S
C442 H432 0.930 . S
C442 C440 1.419 . S
C442 C443 1.362 . S
C443 H433 0.930 . S
C443 C436 1.409 . S
C443 C442 1.362 . S
H444 C450 0.930 . S
H445 C453 0.930 . S
H446 C454 0.930 . S
H447 C455 0.930 . S
H448 C458 0.930 . S
H449 C459 0.930 . S
C450 H444 0.930 . S
C450 C451 1.355 . S
C450 C452 1.415 . S
C451 C450 1.355 . S
C451 C453 1.419 . S
C452 C450 1.415 . S
C452 C457 1.425 . S
C452 C459 1.409 . S
C453 H445 0.930 . S
C453 C451 1.419 . S
C453 C454 1.362 . S
C454 H446 0.930 . S
C454 C453 1.362 . S
C454 C457 1.409 . S
C455 H447 0.930 . S
C455 C456 1.355 . S
C455 C457 1.415 . S
C456 C455 1.355 . S
C456 C458 1.419 . S
C457 C452 1.425 . S
C457 C454 1.409 . S
C457 C455 1.415 . S
C458 H448 0.930 . S
C458 C456 1.419 . S
C458 C459 1.362 . S
C459 H449 0.930 . S
C459 C452 1.409 . S
C459 C458 1.362 . S
H460 C466 0.930 . S
H461 C469 0.930 . S
H462 C470 0.930 . S
H463 C471 0.930 . S
H464 C474 0.930 . S
H465 C475 0.930 . S
C466 H460 0.930 . S
C466 C467 1.355 . S
C466 C468 1.415 . S
C467 C466 1.355 . S
C467 C469 1.419 . S
C468 C466 1.415 . S
C468 C473 1.425 . S
C468 C475 1.409 . S
C469 H461 0.930 . S
C469 C467 1.419 . S
C469 C470 1.362 . S
C470 H462 0.930 . S
C470 C469 1.362 . S
C470 C473 1.409 . S
C471 H463 0.930 . S
C471 C472 1.355 . S
C471 C473 1.415 . S
C472 C471 1.355 . S
C472 C474 1.419 . S
C473 C468 1.425 . S
C473 C470 1.409 . S
C473 C471 1.415 . S
C474 H464 0.930 . S
C474 C472 1.419 . S
C474 C475 1.362 . S
C475 H465 0.930 . S
C475 C468 1.409 . S
C475 C474 1.362 . S
H476 C482 0.930 . S
H477 C485 0.930 . S
H478 C486 0.930 . S
H479 C487 0.930 . S
H480 C490 0.930 . S
H481 C491 0.930 . S
C482 H476 0.930 . S
C482 C483 1.355 . S
C482 C484 1.415 . S
C483 C482 1.355 . S
C483 C485 1.419 . S
C484 C482 1.415 . S
C484 C489 1.425 . S
C484 C491 1.409 . S
C485 H477 0.930 . S
C485 C483 1.419 . S
C485 C486 1.362 . S
C486 H478 0.930 . S
C486 C485 1.362 . S
C486 C489 1.409 . S
C487 H479 0.930 . S
C487 C488 1.355 . S
C487 C489 1.415 . S
C488 C487 1.355 . S
C488 C490 1.419 . S
C489 C484 1.425 . S
C489 C486 1.409 . S
C489 C487 1.415 . S
C490 H480 0.930 . S
C490 C488 1.419 . S
C490 C491 1.362 . S
C491 H481 0.930 . S
C491 C484 1.409 . S
C491 C490 1.362 . S
H492 C498 0.930 . S
H493 C501 0.930 . S
H494 C502 0.930 . S
H495 C503 0.930 . S
H496 C506 0.930 . S
H497 C507 0.930 . S
C498 H492 0.930 . S
C498 C499 1.355 . S
C498 C500 1.415 . S
C499 C498 1.355 . S
C499 C501 1.419 . S
C500 C498 1.415 . S
C500 C505 1.425 . S
C500 C507 1.409 . S
C501 H493 0.930 . S
C501 C499 1.419 . S
C501 C502 1.362 . S
C502 H494 0.930 . S
C502 C501 1.362 . S
C502 C505 1.409 . S
C503 H495 0.930 . S
C503 C504 1.355 . S
C503 C505 1.415 . S
C504 C503 1.355 . S
C504 C506 1.419 . S
C505 C500 1.425 . S
C505 C502 1.409 . S
C505 C503 1.415 . S
C506 H496 0.930 . S
C506 C504 1.419 . S
C506 C507 1.362 . S
C507 H497 0.930 . S
C507 C500 1.409 . S
C507 C506 1.362 . S
H508 C514 0.930 . S
H509 C517 0.930 . S
H510 C518 0.930 . S
H511 C519 0.930 . S
H512 C522 0.930 . S
H513 C523 0.930 . S
C514 H508 0.930 . S
C514 C515 1.355 . S
C514 C516 1.415 . S
C515 C514 1.355 . S
C515 C517 1.419 . S
C516 C514 1.415 . S
C516 C521 1.425 . S
C516 C523 1.409 . S
C517 H509 0.930 . S
C517 C515 1.419 . S
C517 C518 1.362 . S
C518 H510 0.930 . S
C518 C517 1.362 . S
C518 C521 1.409 . S
C519 H511 0.930 . S
C519 C520 1.355 . S
C519 C521 1.415 . S
C520 C519 1.355 . S
C520 C522 1.419 . S
C521 C516 1.425 . S
C521 C518 1.409 . S
C521 C519 1.415 . S
C522 H512 0.930 . S
C522 C520 1.419 . S
C522 C523 1.362 . S
C523 H513 0.930 . S
C523 C516 1.409 . S
C523 C522 1.362 . S
H524 C530 0.930 . S
H525 C533 0.930 . S
H526 C534 0.930 . S
H527 C535 0.930 . S
H528 C538 0.930 . S
H529 C539 0.930 . S
C530 H524 0.930 . S
C530 C531 1.355 . S
C530 C532 1.415 . S
C531 C530 1.355 . S
C531 C533 1.419 . S
C532 C530 1.415 . S
C532 C537 1.425 . S
C532 C539 1.409 . S
C533 H525 0.930 . S
C533 C531 1.419 . S
C533 C534 1.362 . S
C534 H526 0.930 . S
C534 C533 1.362 . S
C534 C537 1.409 . S
C535 H527 0.930 . S
C535 C536 1.355 . S
C535 C537 1.415 . S
C536 C535 1.355 . S
C536 C538 1.419 . S
C537 C532 1.425 . S
C537 C534 1.409 . S
C537 C535 1.415 . S
C538 H528 0.930 . S
C538 C536 1.419 . S
C538 C539 1.362 . S
C539 H529 0.930 . S
C539 C532 1.409 . S
C539 C538 1.362 . S
H540 C546 0.930 . S
H541 C549 0.930 . S
H542 C550 0.930 . S
H543 C551 0.930 . S
H544 C554 0.930 . S
H545 C555 0.930 . S
C546 H540 0.930 . S
C546 C547 1.355 . S
C546 C548 1.415 . S
C547 C546 1.355 . S
C547 C549 1.419 . S
C548 C546 1.415 . S
C548 C553 1.425 . S
C548 C555 1.409 . S
C549 H541 0.930 . S
C549 C547 1.419 . S
C549 C550 1.362 . S
C550 H542 0.930 . S
C550 C549 1.362 . S
C550 C553 1.409 . S
C551 H543 0.930 . S
C551 C552 1.355 . S
C551 C553 1.415 . S
C552 C551 1.355 . S
C552 C554 1.419 . S
C553 C548 1.425 . S
C553 C550 1.409 . S
C553 C551 1.415 . S
C554 H544 0.930 . S
C554 C552 1.419 . S
C554 C555 1.362 . S
C555 H545 0.930 . S
C555 C548 1.409 . S
C555 C554 1.362 . S
H556 C562 0.930 . S
H557 C565 0.930 . S
H558 C566 0.930 . S
H559 C567 0.930 . S
H560 C570 0.930 . S
H561 C571 0.930 . S
C562 H556 0.930 . S
C562 C563 1.355 . S
C562 C564 1.415 . S
C563 C562 1.355 . S
C563 C565 1.419 . S
C564 C562 1.415 . S
C564 C569 1.425 . S
C564 C571 1.409 . S
C565 H557 0.930 . S
C565 C563 1.419 . S
C565 C566 1.362 . S
C566 H558 0.930 . S
C566 C565 1.362 . S
C566 C569 1.409 . S
C567 H559 0.930 . S
C567 C568 1.355 . S
C567 C569 1.415 . S
C568 C567 1.355 . S
C568 C570 1.419 . S
C569 C564 1.425 . S
C569 C566 1.409 . S
C569 C567 1.415 . S
C570 H560 0.930 . S
C570 C568 1.419 . S
C570 C571 1.362 . S
C571 H561 0.930 . S
C571 C564 1.409 . S
C571 C570 1.362 . S
H572 C578 0.930 . S
H573 C581 0.930 . S
H574 C582 0.930 . S
H575 C583 0.930 . S
H576 C586 0.930 . S
H577 C587 0.930 . S
C578 H572 0.930 . S
C578 C579 1.355 . S
C578 C580 1.415 . S
C579 C578 1.355 . S
C579 C581 1.419 . S
C580 C578 1.415 . S
C580 C585 1.425 . S
C580 C587 1.409 . S
C581 H573 0.930 . S
C581 C579 1.419 . S
C581 C582 1.362 . S
C582 H574 0.930 . S
C582 C581 1.362 . S
C582 C585 1.409 . S
C583 H575 0.930 . S
C583 C584 1.355 . S
C583 C585 1.415 . S
C584 C583 1.355 . S
C584 C586 1.419 . S
C585 C580 1.425 . S
C585 C582 1.409 . S
C585 C583 1.415 . S
C586 H576 0.930 . S
C586 C584 1.419 . S
C586 C587 1.362 . S
C587 H577 0.930 . S
C587 C580 1.409 . S
C587 C586 1.362 . S
H588 C594 0.930 . S
H589 C597 0.930 . S
H590 C598 0.930 . S
H591 C599 0.930 . S
H592 C602 0.930 . S
H593 C603 0.930 . S
C594 H588 0.930 . S
C594 C595 1.355 . S
C594 C596 1.415 . S
C595 C594 1.355 . S
C595 C597 1.419 . S
C596 C594 1.415 . S
C596 C601 1.425 . S
C596 C603 1.409 . S
C597 H589 0.930 . S
C597 C595 1.419 . S
C597 C598 1.362 . S
C598 H590 0.930 . S
C598 C597 1.362 . S
C598 C601 1.409 . S
C599 H591 0.930 . S
C599 C600 1.355 . S
C599 C601 1.415 . S
C600 C599 1.355 . S
C600 C602 1.419 . S
C601 C596 1.425 . S
C601 C598 1.409 . S
C601 C599 1.415 . S
C602 H592 0.930 . S
C602 C600 1.419 . S
C602 C603 1.362 . S
C603 H593 0.930 . S
C603 C596 1.409 . S
C603 C602 1.362 . S
H604 C610 0.930 . S
H605 C613 0.930 . S
H606 C614 0.930 . S
H607 C615 0.930 . S
H608 C618 0.930 . S
H609 C619 0.930 . S
C610 H604 0.930 . S
C610 C611 1.355 . S
C610 C612 1.415 . S
C611 C610 1.355 . S
C611 C613 1.419 . S
C612 C610 1.415 . S
C612 C617 1.425 . S
C612 C619 1.409 . S
C613 H605 0.930 . S
C613 C611 1.419 . S
C613 C614 1.362 . S
C614 H606 0.930 . S
C614 C613 1.362 . S
C614 C617 1.409 . S
C615 H607 0.930 . S
C615 C616 1.355 . S
C615 C617 1.415 . S
C616 C615 1.355 . S
C616 C618 1.419 . S
C617 C612 1.425 . S
C617 C614 1.409 . S
C617 C615 1.415 . S
C618 H608 0.930 . S
C618 C616 1.419 . S
C618 C619 1.362 . S
C619 H609 0.930 . S
C619 C612 1.409 . S
C619 C618 1.362 . S
H620 C626 0.930 . S
H621 C629 0.930 . S
H622 C630 0.930 . S
H623 C631 0.930 . S
H624 C634 0.930 . S
H625 C635 0.930 . S
C626 H620 0.930 . S
C626 C627 1.355 . S
C626 C628 1.415 . S
C627 C626 1.355 . S
C627 C629 1.419 . S
C628 C626 1.415 . S
C628 C633 1.425 . S
C628 C635 1.409 . S
C629 H621 0.930 . S
C629 C627 1.419 . S
C629 C630 1.362 . S
C630 H622 0.930 . S
C630 C629 1.362 . S
C630 C633 1.409 . S
C631 H623 0.930 . S
C631 C632 1.355 . S
C631 C633 1.415 . S
C632 C631 1.355 . S
C632 C634 1.419 . S
C633 C628 1.425 . S
C633 C630 1.409 . S
C633 C631 1.415 . S
C634 H624 0.930 . S
C634 C632 1.419 . S
C634 C635 1.362 . S
C635 H625 0.930 . S
C635 C628 1.409 . S
C635 C634 1.362 . S
H636 C642 0.930 . S
H637 C645 0.930 . S
H638 C646 0.930 . S
H639 C647 0.930 . S
H640 C650 0.930 . S
H641 C651 0.930 . S
C642 H636 0.930 . S
C642 C643 1.355 . S
C642 C644 1.415 . S
C643 C642 1.355 . S
C643 C645 1.419 . S
C644 C642 1.415 . S
C644 C649 1.425 . S
C644 C651 1.409 . S
C645 H637 0.930 . S
C645 C643 1.419 . S
C645 C646 1.362 . S
C646 H638 0.930 . S
C646 C645 1.362 . S
C646 C649 1.409 . S
C647 H639 0.930 . S
C647 C648 1.355 . S
C647 C649 1.415 . S
C648 C647 1.355 . S
C648 C650 1.419 . S
C649 C644 1.425 . S
C649 C646 1.409 . S
C649 C647 1.415 . S
C650 H640 0.930 . S
C650 C648 1.419 . S
C650 C651 1.362 . S
C651 H641 0.930 . S
C651 C644 1.409 . S
C651 C650 1.362 . S
H652 C658 0.930 . S
H653 C661 0.930 . S
H654 C662 0.930 . S
H655 C663 0.930 . S
H656 C666 0.930 . S
H657 C667 0.930 . S
C658 H652 0.930 . S
C658 C659 1.355 . S
C658 C660 1.415 . S
C659 C658 1.355 . S
C659 C661 1.419 . S
C660 C658 1.415 . S
C660 C665 1.425 . S
C660 C667 1.409 . S
C661 H653 0.930 . S
C661 C659 1.419 . S
C661 C662 1.362 . S
C662 H654 0.930 . S
C662 C661 1.362 . S
C662 C665 1.409 . S
C663 H655 0.930 . S
C663 C664 1.355 . S
C663 C665 1.415 . S
C664 C663 1.355 . S
C664 C666 1.419 . S
C665 C660 1.425 . S
C665 C662 1.409 . S
C665 C663 1.415 . S
C666 H656 0.930 . S
C666 C664 1.419 . S
C666 C667 1.362 . S
C667 H657 0.930 . S
C667 C660 1.409 . S
C667 C666 1.362 . S
H668 C674 0.930 . S
H669 C677 0.930 . S
H670 C678 0.930 . S
H671 C679 0.930 . S
H672 C682 0.930 . S
H673 C683 0.930 . S
C674 H668 0.930 . S
C674 C675 1.355 . S
C674 C676 1.415 . S
C675 C674 1.355 . S
C675 C677 1.419 . S
C676 C674 1.415 . S
C676 C681 1.425 . S
C676 C683 1.409 . S
C677 H669 0.930 . S
C677 C675 1.419 . S
C677 C678 1.362 . S
C678 H670 0.930 . S
C678 C677 1.362 . S
C678 C681 1.409 . S
C679 H671 0.930 . S
C679 C680 1.355 . S
C679 C681 1.415 . S
C680 C679 1.355 . S
C680 C682 1.419 . S
C681 C676 1.425 . S
C681 C678 1.409 . S
C681 C679 1.415 . S
C682 H672 0.930 . S
C682 C680 1.419 . S
C682 C683 1.362 . S
C683 H673 0.930 . S
C683 C676 1.409 . S
C683 C682 1.362 . S
H684 C690 0.930 . S
H685 C693 0.930 . S
H686 C694 0.930 . S
H687 C695 0.930 . S
H688 C698 0.930 . S
H689 C699 0.930 . S
C690 H684 0.930 . S
C690 C691 1.355 . S
C690 C692 1.415 . S
C691 C690 1.355 . S
C691 C693 1.419 . S
C692 C690 1.415 . S
C692 C697 1.425 1_566 S
C692 C699 1.409 1_565 S
C693 H685 0.930 . S
C693 C691 1.419 . S
C693 C694 1.362 1_556 S
C694 H686 0.930 . S
C694 C693 1.362 1_554 S
C694 C697 1.409 1_565 S
C695 H687 0.930 . S
C695 C696 1.355 . S
C695 C697 1.415 . S
C696 C695 1.355 . S
C696 C698 1.419 . S
C697 C692 1.425 1_544 S
C697 C694 1.409 1_545 S
C697 C695 1.415 . S
C698 H688 0.930 . S
C698 C696 1.419 . S
C698 C699 1.362 1_554 S
C699 H689 0.930 . S
C699 C692 1.409 1_545 S
C699 C698 1.362 1_556 S
H700 C706 0.930 . S
H701 C709 0.930 . S
H702 C710 0.930 . S
H703 C711 0.930 . S
H704 C714 0.930 . S
H705 C715 0.930 . S
C706 H700 0.930 . S
C706 C707 1.355 . S
C706 C708 1.415 . S
C707 C706 1.355 . S
C707 C709 1.419 . S
C708 C706 1.415 . S
C708 C713 1.425 . S
C708 C715 1.409 . S
C709 H701 0.930 . S
C709 C707 1.419 . S
C709 C710 1.362 . S
C710 H702 0.930 . S
C710 C709 1.362 . S
C710 C713 1.409 . S
C711 H703 0.930 . S
C711 C712 1.355 . S
C711 C713 1.415 . S
C712 C711 1.355 . S
C712 C714 1.419 . S
C713 C708 1.425 . S
C713 C710 1.409 . S
C713 C711 1.415 . S
C714 H704 0.930 . S
C714 C712 1.419 . S
C714 C715 1.362 . S
C715 H705 0.930 . S
C715 C708 1.409 . S
C715 C714 1.362 . S
H716 C722 0.930 . S
H717 C725 0.930 . S
H718 C726 0.938 . S
H719 C727 0.930 . S
H720 C730 0.930 . S
H721 C731 0.923 1_554 S
C722 H716 0.930 . S
C722 C723 1.355 . S
C722 C724 1.415 . S
C723 C722 1.355 . S
C723 C725 1.419 . S
C724 C722 1.415 . S
C724 C729 1.425 1_654 S
C724 C731 1.406 1_654 S
C725 H717 0.930 . S
C725 C723 1.419 . S
C725 C726 1.351 1_554 S
C726 H718 0.938 . S
C726 C725 1.351 1_556 S
C726 C729 1.413 1_655 S
C727 H719 0.930 . S
C727 C728 1.355 . S
C727 C729 1.415 . S
C728 C727 1.355 . S
C728 C730 1.419 . S
C729 C724 1.425 1_456 S
C729 C726 1.413 1_455 S
C729 C727 1.415 . S
C730 H720 0.930 . S
C730 C728 1.419 . S
C730 C731 1.373 . S
C731 H721 0.923 1_556 S
C731 C724 1.406 1_456 S
C731 C730 1.373 . S
H732 C738 0.930 . S
H733 C741 0.930 . S
H734 C742 0.930 . S
H735 C743 0.930 . S
H736 C746 0.930 . S
H737 C747 0.930 . S
C738 H732 0.930 . S
C738 C739 1.355 . S
C738 C740 1.415 . S
C739 C738 1.355 . S
C739 C741 1.419 . S
C740 C738 1.415 . S
C740 C745 1.425 1_565 S
C740 C747 1.409 1_565 S
C741 H733 0.930 . S
C741 C739 1.419 . S
C741 C742 1.362 . S
C742 H734 0.930 . S
C742 C741 1.362 . S
C742 C745 1.409 1_565 S
C743 H735 0.930 . S
C743 C744 1.355 . S
C743 C745 1.415 . S
C744 C743 1.355 . S
C744 C746 1.419 . S
C745 C740 1.425 1_545 S
C745 C742 1.409 1_545 S
C745 C743 1.415 . S
C746 H736 0.930 . S
C746 C744 1.419 . S
C746 C747 1.362 . S
C747 H737 0.930 . S
C747 C740 1.409 1_545 S
C747 C746 1.362 . S
H748 C754 0.930 . S
H749 C757 0.930 . S
H750 C758 0.930 . S
H751 C759 0.930 . S
H752 C762 0.930 . S
H753 C763 0.930 . S
C754 H748 0.930 . S
C754 C755 1.355 . S
C754 C756 1.415 . S
C755 C754 1.355 . S
C755 C757 1.419 1_554 S
C756 C754 1.415 . S
C756 C761 1.425 1_554 S
C756 C763 1.409 . S
C757 H749 0.930 . S
C757 C755 1.419 1_556 S
C757 C758 1.362 . S
C758 H750 0.930 . S
C758 C757 1.362 . S
C758 C761 1.409 . S
C759 H751 0.930 . S
C759 C760 1.355 . S
C759 C761 1.415 . S
C760 C759 1.355 . S
C760 C762 1.419 1_556 S
C761 C756 1.425 1_556 S
C761 C758 1.409 . S
C761 C759 1.415 . S
C762 H752 0.930 . S
C762 C760 1.419 1_554 S
C762 C763 1.362 . S
C763 H753 0.930 . S
C763 C756 1.409 . S
C763 C762 1.362 . S
H764 C770 0.930 . S
H765 C773 0.930 . S
H766 C774 0.930 . S
H767 C775 0.930 . S
H768 C778 0.930 . S
H769 C779 0.930 . S
C770 H764 0.930 . S
C770 C771 1.355 . S
C770 C772 1.415 . S
C771 C770 1.355 . S
C771 C773 1.419 . S
C772 C770 1.415 . S
C772 C777 1.425 1_655 S
C772 C779 1.409 1_655 S
C773 H765 0.930 . S
C773 C771 1.419 . S
C773 C774 1.362 . S
C774 H766 0.930 . S
C774 C773 1.362 . S
C774 C777 1.409 1_655 S
C775 H767 0.930 . S
C775 C776 1.355 . S
C775 C777 1.415 . S
C776 C775 1.355 . S
C776 C778 1.419 . S
C777 C772 1.425 1_455 S
C777 C774 1.409 1_455 S
C777 C775 1.415 . S
C778 H768 0.930 . S
C778 C776 1.419 . S
C778 C779 1.362 . S
C779 H769 0.930 . S
C779 C772 1.409 1_455 S
C779 C778 1.362 . S
H780 C786 0.930 . S
H781 C789 0.930 . S
H782 C790 0.930 . S
H783 C791 0.930 . S
H784 C794 0.930 . S
H785 C795 0.930 . S
C786 H780 0.930 . S
C786 C787 1.355 . S
C786 C788 1.415 . S
C787 C786 1.355 . S
C787 C789 1.419 . S
C788 C786 1.415 . S
C788 C793 1.437 1_554 S
C788 C795 1.409 1_545 S
C789 H781 0.930 . S
C789 C787 1.419 . S
C789 C790 1.362 1_554 S
C790 H782 0.930 . S
C790 C789 1.362 1_556 S
C790 C793 1.417 . S
C791 H783 0.930 . S
C791 C792 1.355 . S
C791 C793 1.396 1_565 S
C792 C791 1.355 . S
C792 C794 1.419 . S
C793 C788 1.437 1_556 S
C793 C790 1.417 . S
C793 C791 1.396 1_545 S
C794 H784 0.930 . S
C794 C792 1.419 . S
C794 C795 1.362 1_556 S
C795 H785 0.930 . S
C795 C788 1.409 1_565 S
C795 C794 1.362 1_554 S
H796 C802 0.930 . S
H797 C805 0.930 . S
H798 C806 0.930 . S
H799 C807 0.930 . S
H800 C810 0.930 . S
H801 C811 0.930 . S
C802 H796 0.930 . S
C802 C803 1.355 . S
C802 C804 1.415 . S
C803 C802 1.355 . S
C803 C805 1.419 . S
C804 C802 1.415 . S
C804 C809 1.425 . S
C804 C811 1.409 . S
C805 H797 0.930 . S
C805 C803 1.419 . S
C805 C806 1.362 . S
C806 H798 0.930 . S
C806 C805 1.362 . S
C806 C809 1.409 . S
C807 H799 0.930 . S
C807 C808 1.355 . S
C807 C809 1.415 . S
C808 C807 1.355 . S
C808 C810 1.419 . S
C809 C804 1.425 . S
C809 C806 1.409 . S
C809 C807 1.415 . S
C810 H800 0.930 . S
C810 C808 1.419 . S
C810 C811 1.362 . S
C811 H801 0.930 . S
C811 C804 1.409 . S
C811 C810 1.362 . S
H812 C818 0.930 . S
H813 C821 0.930 . S
H814 C822 0.917 1_556 S
H815 C823 0.930 . S
H816 C826 0.930 . S
H817 C827 0.930 1_554 S
C818 H812 0.930 . S
C818 C819 1.355 . S
C818 C820 1.415 . S
C819 C818 1.355 . S
C819 C821 1.419 . S
C820 C818 1.415 . S
C820 C825 1.425 1_654 S
C820 C827 1.409 1_654 S
C821 H813 0.930 . S
C821 C819 1.419 . S
C821 C822 1.387 . S
C822 H814 0.917 1_554 S
C822 C821 1.387 . S
C822 C825 1.400 1_654 S
C823 H815 0.930 . S
C823 C824 1.355 . S
C823 C825 1.415 . S
C824 C823 1.355 . S
C824 C826 1.419 . S
C825 C820 1.425 1_456 S
C825 C822 1.400 1_456 S
C825 C823 1.415 . S
C826 H816 0.930 . S
C826 C824 1.419 . S
C826 C827 1.362 . S
C827 H817 0.930 1_556 S
C827 C820 1.409 1_456 S
C827 C826 1.362 . S
H828 C834 0.930 . S
H829 C837 0.930 . S
H830 C838 0.930 . S
H831 C839 0.930 . S
H832 C842 0.930 . S
H833 C843 0.930 . S
C834 H828 0.930 . S
C834 C835 1.355 . S
C834 C836 1.415 1_565 S
C835 C834 1.355 . S
C835 C837 1.419 . S
C836 C834 1.415 1_545 S
C836 C841 1.430 . S
C836 C843 1.409 . S
C837 H829 0.930 . S
C837 C835 1.419 . S
C837 C838 1.362 . S
C838 H830 0.930 . S
C838 C837 1.362 . S
C838 C841 1.399 1_565 S
C839 H831 0.930 . S
C839 C840 1.355 . S
C839 C841 1.420 . S
C840 C839 1.355 . S
C840 C842 1.419 . S
C841 C836 1.430 . S
C841 C838 1.399 1_545 S
C841 C839 1.420 . S
C842 H832 0.930 . S
C842 C840 1.419 . S
C842 C843 1.362 . S
C843 H833 0.930 . S
C843 C836 1.409 . S
C843 C842 1.362 . S
H844 C850 0.930 . S
H845 C853 0.930 . S
H846 C854 0.930 . S
H847 C855 0.930 . S
H848 C858 0.930 . S
H849 C859 0.930 . S
C850 H844 0.930 . S
C850 C851 1.355 . S
C850 C852 1.415 . S
C851 C850 1.355 . S
C851 C853 1.419 . S
C852 C850 1.415 . S
C852 C857 1.425 1_556 S
C852 C859 1.409 . S
C853 H845 0.930 . S
C853 C851 1.419 . S
C853 C854 1.362 1_556 S
C854 H846 0.930 . S
C854 C853 1.362 1_554 S
C854 C857 1.409 . S
C855 H847 0.930 . S
C855 C856 1.355 . S
C855 C857 1.415 . S
C856 C855 1.355 . S
C856 C858 1.419 . S
C857 C852 1.425 1_554 S
C857 C854 1.409 . S
C857 C855 1.415 . S
C858 H848 0.930 . S
C858 C856 1.419 . S
C858 C859 1.362 1_554 S
C859 H849 0.930 . S
C859 C852 1.409 . S
C859 C858 1.362 1_556 S
H860 C866 0.930 . S
H861 C869 0.930 . S
H862 C870 0.930 . S
H863 C871 0.930 . S
H864 C874 0.930 . S
H865 C875 0.930 . S
C866 H860 0.930 . S
C866 C867 1.355 . S
C866 C868 1.415 1_455 S
C867 C866 1.355 . S
C867 C869 1.419 . S
C868 C866 1.415 1_655 S
C868 C873 1.425 1_655 S
C868 C875 1.409 . S
C869 H861 0.930 . S
C869 C867 1.419 . S
C869 C870 1.362 . S
C870 H862 0.930 . S
C870 C869 1.362 . S
C870 C873 1.409 . S
C871 H863 0.930 . S
C871 C872 1.355 . S
C871 C873 1.415 1_655 S
C872 C871 1.355 . S
C872 C874 1.419 . S
C873 C868 1.425 1_455 S
C873 C870 1.409 . S
C873 C871 1.415 1_455 S
C874 H864 0.930 . S
C874 C872 1.419 . S
C874 C875 1.362 . S
C875 H865 0.930 . S
C875 C868 1.409 . S
C875 C874 1.362 . S
C403 C84 1.537 . S
C408 N13 1.551 . S
C419 N46 1.641 . S
C424 C117 1.623 . S
C435 N79 1.549 . S
C440 C150 1.527 . S
C451 N112 1.645 . S
C456 C183 1.631 . S
C467 N145 1.497 . S
C472 C18 1.466 . S
C483 C51 1.572 . S
C488 N178 1.592 . S
C499 N200 1.616 . S
C504 C337 1.615 . S
C515 N244 1.602 . S
C520 C381 1.588 . S
C531 C205 1.630 . S
C536 N266 1.631 . S
C547 C249 1.584 . S
C552 N310 1.598 . S
C563 C271 1.601 . S
C568 N332 1.602 . S
C579 C315 1.589 . S
C584 N376 1.612 . S
C595 C285 1.417 . S
C600 C21 1.396 . S
C611 C54 1.428 . S
C616 C318 1.411 . S
C627 C351 1.433 . S
C632 C87 1.385 . S
C643 C384 1.415 . S
C648 C120 1.374 . S
C659 C153 1.441 . S
C664 C219 1.427 . S
C675 C252 1.395 . S
C680 C186 1.431 . S
C691 C238 1.432 . S
C696 C7 1.436 . S
C707 C40 1.518 . S
C712 C282 1.519 . S
C723 C73 1.425 . S
C728 C304 1.430 . S
C739 C106 1.517 . S
C744 C348 1.512 . S
C755 C139 1.439 . S
C760 C370 1.439 . S
C771 C216 1.525 . S
C776 C172 1.525 . S
C787 N68 1.388 . S
C792 N365 1.277 . S
C803 N211 1.456 . S
C808 N101 1.391 . S
C819 N134 1.392 . S
C824 N233 1.281 . S
C835 N167 1.383 . S
C840 N277 1.465 . S
C851 N299 1.280 . S
C856 N2 1.368 . S
C867 N35 1.403 . S
C872 N343 1.444 . S
