# Generated by pormake.
# Topology yfw, (5)-cn, num edge types: 1
# Building blocks:
#     Node 0, Type 0, BuildingBlock: BEQFEK_clean_sbu_0, # of connection points: 5
#     Node 1, Type 0, BuildingBlock: BEQFEK_clean_sbu_0, # of connection points: 5
#     Node 2, Type 0, BuildingBlock: BEQFEK_clean_sbu_0, # of connection points: 5
#     Node 3, Type 0, BuildingBlock: BEQFEK_clean_sbu_0, # of connection points: 5
#     Node 4, Type 0, BuildingBlock: BEQFEK_clean_sbu_0, # of connection points: 5
#     Node 5, Type 0, BuildingBlock: BEQFEK_clean_sbu_0, # of connection points: 5
#     Node 6, Type 0, BuildingBlock: BEQFEK_clean_sbu_0, # of connection points: 5
#     Node 7, Type 0, BuildingBlock: BEQFEK_clean_sbu_0, # of connection points: 5
#     Node 8, Type 0, BuildingBlock: BEQFEK_clean_sbu_0, # of connection points: 5
#     Node 9, Type 0, BuildingBlock: BEQFEK_clean_sbu_0, # of connection points: 5
#     Node 10, Type 0, BuildingBlock: BEQFEK_clean_sbu_0, # of connection points: 5
#     Node 11, Type 0, BuildingBlock: BEQFEK_clean_sbu_0, # of connection points: 5
#     Node 12, Type 0, BuildingBlock: BEQFEK_clean_sbu_0, # of connection points: 5
#     Node 13, Type 0, BuildingBlock: BEQFEK_clean_sbu_0, # of connection points: 5
#     Node 14, Type 0, BuildingBlock: BEQFEK_clean_sbu_0, # of connection points: 5
#     Node 15, Type 0, BuildingBlock: BEQFEK_clean_sbu_0, # of connection points: 5
#     Edge 16, Type (0, 0), BuildingBlock: MIFKUJ_clean_linker_0, # of connection points: 2
#     Edge 17, Type (0, 0), BuildingBlock: MIFKUJ_clean_linker_0, # of connection points: 2
#     Edge 18, Type (0, 0), BuildingBlock: MIFKUJ_clean_linker_0, # of connection points: 2
#     Edge 19, Type (0, 0), BuildingBlock: MIFKUJ_clean_linker_0, # of connection points: 2
#     Edge 20, Type (0, 0), BuildingBlock: MIFKUJ_clean_linker_0, # of connection points: 2
#     Edge 21, Type (0, 0), BuildingBlock: MIFKUJ_clean_linker_0, # of connection points: 2
#     Edge 22, Type (0, 0), BuildingBlock: MIFKUJ_clean_linker_0, # of connection points: 2
#     Edge 23, Type (0, 0), BuildingBlock: MIFKUJ_clean_linker_0, # of connection points: 2
#     Edge 24, Type (0, 0), BuildingBlock: MIFKUJ_clean_linker_0, # of connection points: 2
#     Edge 25, Type (0, 0), BuildingBlock: MIFKUJ_clean_linker_0, # of connection points: 2
#     Edge 26, Type (0, 0), BuildingBlock: MIFKUJ_clean_linker_0, # of connection points: 2
#     Edge 27, Type (0, 0), BuildingBlock: MIFKUJ_clean_linker_0, # of connection points: 2
#     Edge 28, Type (0, 0), BuildingBlock: MIFKUJ_clean_linker_0, # of connection points: 2
#     Edge 29, Type (0, 0), BuildingBlock: MIFKUJ_clean_linker_0, # of connection points: 2
#     Edge 30, Type (0, 0), BuildingBlock: MIFKUJ_clean_linker_0, # of connection points: 2
#     Edge 31, Type (0, 0), BuildingBlock: MIFKUJ_clean_linker_0, # of connection points: 2
#     Edge 32, Type (0, 0), BuildingBlock: MIFKUJ_clean_linker_0, # of connection points: 2
#     Edge 33, Type (0, 0), BuildingBlock: MIFKUJ_clean_linker_0, # of connection points: 2
#     Edge 34, Type (0, 0), BuildingBlock: MIFKUJ_clean_linker_0, # of connection points: 2
#     Edge 35, Type (0, 0), BuildingBlock: MIFKUJ_clean_linker_0, # of connection points: 2
#     Edge 36, Type (0, 0), BuildingBlock: MIFKUJ_clean_linker_0, # of connection points: 2
#     Edge 37, Type (0, 0), BuildingBlock: MIFKUJ_clean_linker_0, # of connection points: 2
#     Edge 38, Type (0, 0), BuildingBlock: MIFKUJ_clean_linker_0, # of connection points: 2
#     Edge 39, Type (0, 0), BuildingBlock: MIFKUJ_clean_linker_0, # of connection points: 2
#     Edge 40, Type (0, 0), BuildingBlock: MIFKUJ_clean_linker_0, # of connection points: 2
#     Edge 41, Type (0, 0), BuildingBlock: MIFKUJ_clean_linker_0, # of connection points: 2
#     Edge 42, Type (0, 0), BuildingBlock: MIFKUJ_clean_linker_0, # of connection points: 2
#     Edge 43, Type (0, 0), BuildingBlock: MIFKUJ_clean_linker_0, # of connection points: 2
#     Edge 44, Type (0, 0), BuildingBlock: MIFKUJ_clean_linker_0, # of connection points: 2
#     Edge 45, Type (0, 0), BuildingBlock: MIFKUJ_clean_linker_0, # of connection points: 2
#     Edge 46, Type (0, 0), BuildingBlock: MIFKUJ_clean_linker_0, # of connection points: 2
#     Edge 47, Type (0, 0), BuildingBlock: MIFKUJ_clean_linker_0, # of connection points: 2
#     Edge 48, Type (0, 0), BuildingBlock: MIFKUJ_clean_linker_0, # of connection points: 2
#     Edge 49, Type (0, 0), BuildingBlock: MIFKUJ_clean_linker_0, # of connection points: 2
#     Edge 50, Type (0, 0), BuildingBlock: MIFKUJ_clean_linker_0, # of connection points: 2
#     Edge 51, Type (0, 0), BuildingBlock: MIFKUJ_clean_linker_0, # of connection points: 2
#     Edge 52, Type (0, 0), BuildingBlock: MIFKUJ_clean_linker_0, # of connection points: 2
#     Edge 53, Type (0, 0), BuildingBlock: MIFKUJ_clean_linker_0, # of connection points: 2
#     Edge 54, Type (0, 0), BuildingBlock: MIFKUJ_clean_linker_0, # of connection points: 2
#     Edge 55, Type (0, 0), BuildingBlock: MIFKUJ_clean_linker_0, # of connection points: 2
# Relax obj value: 0.081
# Max RMSD: 0.128
# Mean RMSD: 0.128
data_MOF--net-yfw--node1-BEQFEK_clean_sbu_0--edge1-MIFKUJ_clean_linker_0
_symmetry_space_group_name_H-M    P1
_symmetry_Int_Tables_number       1
_symmetry_cell_setting            triclinic
loop_
_symmetry_equiv_pos_as_xyz
'x, y, z'
_cell_length_a     69.479447
_cell_length_b     69.480301
_cell_length_c     35.291313
_cell_angle_alpha  90.005419
_cell_angle_beta   90.011645
_cell_angle_gamma 89.996763
loop_
_atom_site_label
_atom_site_type_symbol
_atom_site_fract_x
_atom_site_fract_y
_atom_site_fract_z
_atom_type_partial_charge
Co0 Co 0.11896 0.06875 0.03619 0.0
Co1 Co 0.16268 0.0785 0.02454 0.0
C2 C 0.13362 0.10914 0.04191 0.0
O3 O 0.11983 0.09705 0.04327 0.0
O4 O 0.15078 0.10385 0.03459 0.0
C5 C 0.07747 0.06643 0.02167 0.0
O6 O 0.07944 0.08168 3e-05 0.0
C7 C 0.19632 0.09414 0.98448 0.0
C8 C 0.21948 0.07528 0.00607 0.0
C9 C 0.21578 0.08998 0.98053 0.0
N10 N 0.18891 0.08222 0.01072 0.0
N11 N 0.20289 0.07124 0.02398 0.0
C12 C 0.18444 0.10769 0.96128 0.0
H13 H 0.169 0.10363 0.96259 0.0
H14 H 0.1894 0.10776 0.93138 0.0
H15 H 0.18603 0.12246 0.97283 0.0
C16 C 0.12462 0.05034 0.96117 0.0
N17 N 0.13093 0.06108 0.99046 0.0
N18 N 0.14932 0.06498 0.98557 0.0
C19 C 0.15523 0.0569 0.95281 0.0
C20 C 0.13976 0.04757 0.93632 0.0
C21 C 0.10465 0.04246 0.95755 0.0
H22 H 0.10059 0.03489 0.98403 0.0
H23 H 0.09448 0.05453 0.95313 0.0
H24 H 0.10329 0.03242 0.93327 0.0
O25 O 0.13193 0.05588 0.07877 0.0
O26 O 0.16283 0.0632 0.07191 0.0
H27 H 0.18539 0.05299 0.96333 0.0
H28 H 0.17774 0.04519 0.91703 0.0
C29 C 0.17566 0.05626 0.93932 0.0
H30 H 0.1796 0.07045 0.9273 0.0
H31 H 0.20095 0.06044 0.04416 0.0
O32 O 0.09207 0.05946 0.03843 0.0
C33 C 0.14931 0.05486 0.08983 0.0
Co34 Co 0.93212 0.62447 0.27819 0.0
Co35 Co 0.91981 0.66788 0.27486 0.0
C36 C 0.89074 0.63611 0.28045 0.0
O37 O 0.90355 0.62295 0.28098 0.0
O38 O 0.89524 0.65382 0.27781 0.0
C39 C 0.93855 0.58399 0.25614 0.0
O40 O 0.92342 0.58527 0.23395 0.0
C41 C 0.90234 0.70277 0.24284 0.0
C42 C 0.91921 0.72544 0.27157 0.0
C43 C 0.90505 0.7226 0.24441 0.0
N44 N 0.91456 0.69445 0.26742 0.0
N45 N 0.92431 0.70809 0.28504 0.0
C46 C 0.88979 0.69161 0.21623 0.0
H47 H 0.89445 0.67635 0.21487 0.0
H48 H 0.89021 0.698 0.18743 0.0
H49 H 0.87473 0.69205 0.22661 0.0
C50 C 0.95251 0.63575 0.20779 0.0
N51 N 0.94066 0.63976 0.23692 0.0
N52 N 0.9356 0.65801 0.23525 0.0
C53 C 0.94395 0.66615 0.20464 0.0
C54 C 0.95485 0.65226 0.18616 0.0
C55 C 0.96278 0.61697 0.20276 0.0
H56 H 0.96849 0.61199 0.2304 0.0
H57 H 0.95249 0.60607 0.19199 0.0
H58 H 0.97496 0.6182 0.18259 0.0
O59 O 0.94219 0.63538 0.32551 0.0
O60 O 0.93332 0.66603 0.32415 0.0
H61 H 0.94418 0.69637 0.21685 0.0
H62 H 0.95002 0.69072 0.16819 0.0
C63 C 0.94102 0.68664 0.19275 0.0
H64 H 0.92583 0.68865 0.18434 0.0
H65 H 0.93499 0.70551 0.30521 0.0
O66 O 0.94364 0.59844 0.2758 0.0
C67 C 0.94169 0.65201 0.34046 0.0
Co68 Co 0.37959 0.43128 0.51965 0.0
Co69 Co 0.33625 0.41862 0.52297 0.0
C70 C 0.36913 0.39045 0.53255 0.0
O71 O 0.38216 0.40323 0.52889 0.0
O72 O 0.35133 0.39474 0.53033 0.0
C73 C 0.42134 0.43773 0.52066 0.0
O74 O 0.42295 0.42103 0.53785 0.0
C75 C 0.30209 0.40161 0.48814 0.0
C76 C 0.27887 0.41125 0.52642 0.0
C77 C 0.28235 0.4013 0.49314 0.0
N78 N 0.30998 0.41147 0.51696 0.0
N79 N 0.29606 0.41696 0.54007 0.0
C80 C 0.31334 0.39231 0.45694 0.0
H81 H 0.32875 0.39641 0.45853 0.0
H82 H 0.30734 0.39633 0.42893 0.0
H83 H 0.31206 0.37645 0.45961 0.0
C84 C 0.36688 0.44695 0.44646 0.0
N85 N 0.36346 0.4366 0.47796 0.0
N86 N 0.34495 0.43271 0.48013 0.0
C87 C 0.33594 0.44101 0.45042 0.0
C88 C 0.34959 0.45002 0.42804 0.0
C89 C 0.38625 0.45438 0.43509 0.0
H90 H 0.39011 0.46673 0.45352 0.0
H91 H 0.39723 0.44296 0.439 0.0
H92 H 0.38635 0.45919 0.4051 0.0
O93 O 0.36899 0.44403 0.56519 0.0
O94 O 0.33845 0.43469 0.5689 0.0
H95 H 0.30735 0.44199 0.47401 0.0
H96 H 0.31081 0.45675 0.43247 0.0
C97 C 0.31459 0.44285 0.44611 0.0
H98 H 0.30928 0.43119 0.42746 0.0
H99 H 0.29822 0.42512 0.56453 0.0
O100 O 0.40481 0.44374 0.51088 0.0
C101 C 0.3527 0.44418 0.58169 0.0
Co102 Co 0.56838 0.87847 0.77082 0.0
Co103 Co 0.58101 0.83505 0.77459 0.0
C104 C 0.60962 0.86796 0.77668 0.0
O105 O 0.59669 0.88094 0.77436 0.0
O106 O 0.60533 0.8501 0.77648 0.0
C107 C 0.56033 0.91938 0.75085 0.0
O108 O 0.57724 0.9206 0.73435 0.0
C109 C 0.59679 0.7993 0.74251 0.0
C110 C 0.58337 0.7776 0.77989 0.0
C111 C 0.59463 0.77957 0.74771 0.0
N112 N 0.58694 0.80841 0.76997 0.0
N113 N 0.5793 0.79536 0.79264 0.0
C114 C 0.6063 0.80945 0.71016 0.0
H115 H 0.60122 0.82456 0.70825 0.0
H116 H 0.60342 0.80181 0.68312 0.0
H117 H 0.62209 0.80958 0.7149 0.0
C118 C 0.54945 0.8646 0.70116 0.0
N119 N 0.56082 0.86164 0.73146 0.0
N120 N 0.56491 0.84318 0.73402 0.0
C121 C 0.55575 0.83373 0.70588 0.0
C122 C 0.54579 0.84701 0.68409 0.0
C123 C 0.54269 0.88401 0.68847 0.0
H124 H 0.55486 0.8943 0.68949 0.0
H125 H 0.53691 0.88364 0.65918 0.0
H126 H 0.53132 0.88919 0.70805 0.0
O127 O 0.5585 0.8687 0.81942 0.0
O128 O 0.56733 0.83812 0.82317 0.0
H129 H 0.54128 0.80788 0.68737 0.0
H130 H 0.56706 0.8071 0.68535 0.0
C131 C 0.55466 0.81229 0.70221 0.0
H132 H 0.55498 0.80544 0.73053 0.0
H133 H 0.57055 0.79857 0.81582 0.0
O134 O 0.5551 0.90361 0.76586 0.0
C135 C 0.55892 0.85275 0.83704 0.0
Co136 Co 0.88338 0.07092 0.51478 0.0
Co137 Co 0.83902 0.07748 0.50376 0.0
C138 C 0.86599 0.11044 0.5172 0.0
O139 O 0.88063 0.09935 0.51768 0.0
O140 O 0.84905 0.10385 0.51229 0.0
C141 C 0.92403 0.06823 0.49324 0.0
O142 O 0.92008 0.08043 0.46588 0.0
C143 C 0.80222 0.09079 0.47036 0.0
C144 C 0.78307 0.06687 0.48714 0.0
C145 C 0.7835 0.08389 0.46668 0.0
N146 N 0.8123 0.07821 0.49154 0.0
N147 N 0.80067 0.06414 0.50192 0.0
C148 C 0.81102 0.10787 0.4512 0.0
H149 H 0.8269 0.10633 0.44972 0.0
H150 H 0.80508 0.10962 0.42221 0.0
H151 H 0.80764 0.12101 0.46779 0.0
C152 C 0.87762 0.04875 0.44332 0.0
N153 N 0.87125 0.06045 0.47112 0.0
N154 N 0.85298 0.06443 0.46508 0.0
C155 C 0.84738 0.05606 0.4324 0.0
C156 C 0.8628 0.04578 0.41761 0.0
C157 C 0.89664 0.0386 0.44373 0.0
H158 H 0.90111 0.0355 0.47324 0.0
H159 H 0.90762 0.04786 0.43004 0.0
H160 H 0.89591 0.02483 0.42788 0.0
O161 O 0.87211 0.05961 0.56054 0.0
O162 O 0.84062 0.06265 0.55191 0.0
H163 H 0.81711 0.05045 0.43198 0.0
H164 H 0.82744 0.05342 0.38528 0.0
C165 C 0.82788 0.0585 0.41503 0.0
H166 H 0.82396 0.07391 0.41518 0.0
H167 H 0.80494 0.05232 0.51812 0.0
O168 O 0.91085 0.06336 0.51626 0.0
C169 C 0.8549 0.05694 0.5715 0.0
Co170 Co 0.92907 0.37577 0.77249 0.0
Co171 Co 0.92004 0.33151 0.76665 0.0
C172 C 0.88917 0.36052 0.78383 0.0
O173 O 0.90087 0.37467 0.78233 0.0
O174 O 0.89478 0.34331 0.77798 0.0
C175 C 0.93235 0.41725 0.7533 0.0
O176 O 0.91719 0.4155 0.73129 0.0
C177 C 0.90375 0.29619 0.73336 0.0
C178 C 0.92494 0.27457 0.75257 0.0
C179 C 0.9088 0.27689 0.72991 0.0
N180 N 0.91661 0.30481 0.75628 0.0
N181 N 0.92895 0.29171 0.76833 0.0
C182 C 0.88837 0.30684 0.7123 0.0
H183 H 0.89135 0.32253 0.71237 0.0
H184 H 0.88732 0.30158 0.68267 0.0
H185 H 0.87434 0.30434 0.72644 0.0
C186 C 0.94535 0.36832 0.69605 0.0
N187 N 0.93593 0.36256 0.72744 0.0
N188 N 0.93226 0.34399 0.72484 0.0
C189 C 0.93915 0.33742 0.69147 0.0
C190 C 0.94751 0.35266 0.67214 0.0
C191 C 0.95379 0.38795 0.69057 0.0
H192 H 0.9606 0.39289 0.71724 0.0
H193 H 0.94217 0.39813 0.68276 0.0
H194 H 0.96482 0.38804 0.66783 0.0
O195 O 0.94289 0.36422 0.8154 0.0
O196 O 0.93647 0.33299 0.8126 0.0
H197 H 0.94304 0.30713 0.69993 0.0
H198 H 0.94516 0.31452 0.65106 0.0
C199 C 0.93741 0.31706 0.678 0.0
H200 H 0.92207 0.31374 0.67296 0.0
H201 H 0.94067 0.29468 0.78588 0.0
O202 O 0.93847 0.40274 0.77161 0.0
C203 C 0.9447 0.34725 0.82835 0.0
Co204 Co 0.62263 0.43076 0.02026 0.0
Co205 Co 0.66593 0.41759 0.02354 0.0
C206 C 0.63284 0.38977 0.03376 0.0
O207 O 0.61995 0.40268 0.02971 0.0
O208 O 0.6507 0.39385 0.03173 0.0
C209 C 0.58074 0.43664 0.01868 0.0
O210 O 0.57897 0.41891 0.03113 0.0
C211 C 0.70021 0.39788 0.99384 0.0
C212 C 0.72357 0.41451 0.02089 0.0
C213 C 0.72009 0.40002 0.9948 0.0
N214 N 0.69237 0.41091 0.01742 0.0
N215 N 0.70643 0.42055 0.03402 0.0
C216 C 0.68878 0.38349 0.97162 0.0
H217 H 0.67627 0.37853 0.98843 0.0
H218 H 0.68314 0.39027 0.94545 0.0
H219 H 0.69776 0.3709 0.96374 0.0
C220 C 0.63539 0.44569 0.94628 0.0
N221 N 0.63878 0.43582 0.9784 0.0
N222 N 0.65715 0.43131 0.98021 0.0
C223 C 0.66617 0.43859 0.9495 0.0
C224 C 0.65262 0.44775 0.92689 0.0
C225 C 0.61639 0.45459 0.93658 0.0
H226 H 0.6126 0.46532 0.95863 0.0
H227 H 0.60509 0.44331 0.9366 0.0
H228 H 0.61664 0.4619 0.90868 0.0
O229 O 0.63332 0.4434 0.06569 0.0
O230 O 0.66382 0.43398 0.06923 0.0
H231 H 0.69538 0.44085 0.96863 0.0
H232 H 0.69216 0.44683 0.91924 0.0
C233 C 0.68739 0.43722 0.94241 0.0
H234 H 0.69106 0.42233 0.93408 0.0
H235 H 0.7043 0.43176 0.05323 0.0
O236 O 0.59739 0.4434 0.01211 0.0
C237 C 0.64963 0.44353 0.08211 0.0
Co238 Co 0.56981 0.11947 0.2734 0.0
Co239 Co 0.57699 0.16411 0.27216 0.0
C240 C 0.6094 0.13496 0.27849 0.0
O241 O 0.5981 0.12056 0.27619 0.0
O242 O 0.60303 0.15218 0.2774 0.0
C243 C 0.56652 0.07834 0.25191 0.0
O244 O 0.58172 0.08039 0.23014 0.0
C245 C 0.58979 0.19994 0.23628 0.0
C246 C 0.57352 0.22168 0.26888 0.0
C247 C 0.58588 0.21954 0.23834 0.0
N248 N 0.58 0.19102 0.26401 0.0
N249 N 0.57056 0.20412 0.28378 0.0
C250 C 0.60096 0.18948 0.20643 0.0
H251 H 0.59692 0.17403 0.2059 0.0
H252 H 0.59842 0.19603 0.17818 0.0
H253 H 0.61654 0.19054 0.213 0.0
C254 C 0.54952 0.12907 0.20169 0.0
N255 N 0.56028 0.13408 0.2319 0.0
N256 N 0.56239 0.15291 0.23231 0.0
C257 C 0.55242 0.16053 0.20312 0.0
C258 C 0.5441 0.14567 0.1826 0.0
C259 C 0.54535 0.10871 0.19047 0.0
H260 H 0.55907 0.10068 0.1888 0.0
H261 H 0.53826 0.1077 0.16242 0.0
H262 H 0.53611 0.10186 0.21226 0.0
O263 O 0.55903 0.12939 0.32168 0.0
O264 O 0.56282 0.1611 0.31992 0.0
H265 H 0.53554 0.18421 0.1813 0.0
H266 H 0.56115 0.18784 0.18115 0.0
C267 C 0.54901 0.18161 0.19741 0.0
H268 H 0.54794 0.18901 0.22511 0.0
H269 H 0.56149 0.20098 0.30652 0.0
O270 O 0.56025 0.09257 0.27087 0.0
C271 C 0.55684 0.14598 0.33638 0.0
Co272 Co 0.62691 0.56854 0.52399 0.0
Co273 Co 0.67021 0.58113 0.52328 0.0
C274 C 0.63769 0.60922 0.53768 0.0
O275 O 0.62462 0.59644 0.53446 0.0
O276 O 0.65543 0.60503 0.53368 0.0
C277 C 0.58547 0.56335 0.50871 0.0
O278 O 0.5846 0.58163 0.49931 0.0
C279 C 0.70318 0.59999 0.48778 0.0
C280 C 0.72761 0.58544 0.51586 0.0
C281 C 0.72309 0.5985 0.48755 0.0
N282 N 0.69627 0.58796 0.5143 0.0
N283 N 0.71095 0.57957 0.53145 0.0
C284 C 0.69083 0.61293 0.46406 0.0
H285 H 0.67894 0.61884 0.48147 0.0
H286 H 0.68424 0.60462 0.44063 0.0
H287 H 0.69937 0.62495 0.45197 0.0
C288 C 0.63741 0.55415 0.44806 0.0
N289 N 0.64173 0.56363 0.4802 0.0
N290 N 0.66028 0.5675 0.48075 0.0
C291 C 0.66849 0.5599 0.44945 0.0
C292 C 0.65419 0.55152 0.42754 0.0
C293 C 0.61791 0.54617 0.43908 0.0
H294 H 0.60723 0.55803 0.43909 0.0
H295 H 0.6176 0.53876 0.41125 0.0
H296 H 0.61372 0.53573 0.46138 0.0
O297 O 0.63882 0.5556 0.568 0.0
O298 O 0.66948 0.56458 0.56871 0.0
H299 H 0.69783 0.55798 0.46835 0.0
H300 H 0.6937 0.54789 0.42201 0.0
C301 C 0.68968 0.55967 0.44159 0.0
H302 H 0.69392 0.57336 0.42794 0.0
H303 H 0.70956 0.56928 0.55281 0.0
O304 O 0.6014 0.55614 0.51916 0.0
C305 C 0.65552 0.55514 0.5828 0.0
Co306 Co 0.42289 0.12059 0.76881 0.0
Co307 Co 0.41757 0.16536 0.77455 0.0
C308 C 0.38412 0.13717 0.77951 0.0
O309 O 0.39469 0.12235 0.77476 0.0
O310 O 0.39128 0.15409 0.77989 0.0
C311 C 0.43119 0.08008 0.78176 0.0
O312 O 0.42272 0.08255 0.81469 0.0
C313 C 0.4055 0.20236 0.74354 0.0
C314 C 0.42287 0.2228 0.77716 0.0
C315 C 0.41012 0.22173 0.74701 0.0
N316 N 0.41525 0.19252 0.7701 0.0
N317 N 0.42534 0.20484 0.79056 0.0
C318 C 0.39382 0.19292 0.71311 0.0
H319 H 0.39712 0.17732 0.7115 0.0
H320 H 0.39661 0.19982 0.68528 0.0
H321 H 0.37831 0.19459 0.71984 0.0
C322 C 0.44102 0.13203 0.69657 0.0
N323 N 0.43151 0.13648 0.72859 0.0
N324 N 0.43066 0.1553 0.732 0.0
C325 C 0.44043 0.16344 0.70309 0.0
C326 C 0.4472 0.14894 0.67955 0.0
C327 C 0.44374 0.11195 0.68219 0.0
H328 H 0.43088 0.10311 0.68877 0.0
H329 H 0.44616 0.11181 0.6511 0.0
H330 H 0.45642 0.10549 0.69639 0.0
O331 O 0.43536 0.12807 0.81748 0.0
O332 O 0.43267 0.15992 0.82023 0.0
H333 H 0.45896 0.18664 0.68485 0.0
H334 H 0.43368 0.19208 0.68534 0.0
C335 C 0.44532 0.18439 0.70059 0.0
H336 H 0.44686 0.19061 0.72932 0.0
H337 H 0.43459 0.20089 0.81252 0.0
O338 O 0.43174 0.09396 0.75836 0.0
C339 C 0.43849 0.14406 0.83404 0.0
Co340 Co 0.88157 0.92375 0.00266 0.0
Co341 Co 0.83698 0.9182 0.01023 0.0
C342 C 0.86562 0.88523 0.01736 0.0
O343 O 0.88031 0.8958 0.01144 0.0
O344 O 0.84864 0.89221 0.01738 0.0
C345 C 0.92006 0.93358 0.02012 0.0
O346 O 0.91523 0.92623 0.05308 0.0
C347 C 0.80055 0.90508 0.97847 0.0
C348 C 0.77924 0.92084 0.01303 0.0
C349 C 0.78096 0.90857 0.98222 0.0
N350 N 0.80991 0.91517 0.00521 0.0
N351 N 0.79709 0.92438 0.02609 0.0
C352 C 0.81036 0.892 0.9508 0.0
H353 H 0.8239 0.88631 0.96305 0.0
H354 H 0.81414 0.90015 0.92485 0.0
H355 H 0.80079 0.87987 0.9428 0.0
C356 C 0.86985 0.94013 0.92939 0.0
N357 N 0.86558 0.93131 0.96222 0.0
N358 N 0.8468 0.93069 0.96645 0.0
C359 C 0.83848 0.93993 0.93705 0.0
C360 C 0.85282 0.94603 0.91236 0.0
C361 C 0.88991 0.94257 0.91469 0.0
H362 H 0.89873 0.92983 0.92224 0.0
H363 H 0.89 0.9444 0.88346 0.0
H364 H 0.89648 0.95545 0.92802 0.0
O365 O 0.8739 0.93722 0.04974 0.0
O366 O 0.84232 0.93378 0.05585 0.0
H367 H 0.81158 0.94673 0.96418 0.0
H368 H 0.81564 0.95915 0.92003 0.0
C369 C 0.81761 0.94531 0.93527 0.0
H370 H 0.80952 0.93407 0.91969 0.0
H371 H 0.80057 0.93351 0.04855 0.0
O372 O 0.90811 0.93275 0.99294 0.0
C373 C 0.85835 0.94023 0.06783 0.0
Co374 Co 0.07214 0.38029 0.2636 0.0
Co375 Co 0.07958 0.33593 0.27112 0.0
C376 C 0.11067 0.36571 0.28461 0.0
O377 O 0.10001 0.38003 0.27624 0.0
O378 O 0.10425 0.34855 0.28382 0.0
C379 C 0.06397 0.42037 0.27564 0.0
O380 O 0.07258 0.41755 0.30833 0.0
C381 C 0.09604 0.30039 0.24192 0.0
C382 C 0.07911 0.27814 0.27174 0.0
C383 C 0.09302 0.28068 0.24402 0.0
N384 N 0.0841 0.30907 0.26649 0.0
N385 N 0.07422 0.29571 0.28467 0.0
C386 C 0.11022 0.31097 0.21767 0.0
H387 H 0.11524 0.32416 0.23231 0.0
H388 H 0.10321 0.31549 0.19089 0.0
H389 H 0.12275 0.3017 0.21079 0.0
C390 C 0.05748 0.36792 0.18913 0.0
N391 N 0.06657 0.36415 0.22197 0.0
N392 N 0.06885 0.34543 0.2254 0.0
C393 C 0.06089 0.33667 0.19504 0.0
C394 C 0.0537 0.35068 0.171 0.0
C395 C 0.05125 0.38755 0.17677 0.0
H396 H 0.06334 0.39783 0.18016 0.0
H397 H 0.04641 0.38756 0.14679 0.0
H398 H 0.03921 0.39241 0.19506 0.0
O399 O 0.05685 0.3719 0.30825 0.0
O400 O 0.06159 0.34036 0.31318 0.0
H401 H 0.05428 0.30926 0.2201 0.0
H402 H 0.04502 0.31238 0.17272 0.0
C403 C 0.05733 0.31546 0.19183 0.0
H404 H 0.07023 0.30836 0.17984 0.0
H405 H 0.06368 0.2986 0.30494 0.0
O406 O 0.06311 0.40664 0.25195 0.0
C407 C 0.05378 0.35587 0.32471 0.0
Co408 Co 0.37482 0.56843 0.02175 0.0
Co409 Co 0.33156 0.58171 0.0224 0.0
C410 C 0.36467 0.60917 0.03671 0.0
O411 O 0.37751 0.59616 0.0334 0.0
O412 O 0.34683 0.6054 0.03247 0.0
C413 C 0.41667 0.56301 0.0115 0.0
O414 O 0.4184 0.58183 0.01091 0.0
C415 C 0.29842 0.60035 0.98672 0.0
C416 C 0.27413 0.5865 0.01654 0.0
C417 C 0.27848 0.59893 0.98705 0.0
N418 N 0.30547 0.58885 0.01404 0.0
N419 N 0.29087 0.5809 0.03222 0.0
C420 C 0.31067 0.61271 0.9617 0.0
H421 H 0.32324 0.61817 0.97784 0.0
H422 H 0.3163 0.60411 0.93772 0.0
H423 H 0.30228 0.62501 0.95027 0.0
C424 C 0.36365 0.55528 0.94543 0.0
N425 N 0.35959 0.5643 0.97821 0.0
N426 N 0.34103 0.56805 0.97962 0.0
C427 C 0.33253 0.56063 0.94846 0.0
C428 C 0.34666 0.55271 0.92558 0.0
C429 C 0.38315 0.54778 0.93507 0.0
H430 H 0.38702 0.53585 0.95452 0.0
H431 H 0.39399 0.55937 0.93866 0.0
H432 H 0.38359 0.54236 0.90552 0.0
O433 O 0.36292 0.55543 0.06574 0.0
O434 O 0.33248 0.5651 0.06769 0.0
H435 H 0.30344 0.55894 0.9691 0.0
H436 H 0.3073 0.54714 0.92432 0.0
C437 C 0.31125 0.55978 0.94181 0.0
H438 H 0.30658 0.57277 0.92617 0.0
H439 H 0.29236 0.57102 0.05429 0.0
O440 O 0.40011 0.5555 0.01538 0.0
C441 C 0.34636 0.5553 0.08114 0.0
Co442 Co 0.42894 0.88137 0.27687 0.0
Co443 Co 0.41927 0.83706 0.27159 0.0
C444 C 0.38835 0.86651 0.28254 0.0
O445 O 0.40043 0.88034 0.2818 0.0
O446 O 0.39372 0.84907 0.27869 0.0
C447 C 0.43343 0.92084 0.24923 0.0
O448 O 0.4215 0.91607 0.2219 0.0
C449 C 0.40426 0.79954 0.24316 0.0
C450 C 0.42814 0.78044 0.26034 0.0
C451 C 0.41094 0.78065 0.24049 0.0
N452 N 0.4173 0.80995 0.26261 0.0
N453 N 0.43132 0.79833 0.27334 0.0
C454 C 0.38578 0.8076 0.2282 0.0
H455 H 0.38071 0.81949 0.24647 0.0
H456 H 0.38815 0.81345 0.19934 0.0
H457 H 0.3745 0.79631 0.22693 0.0
C458 C 0.44981 0.87179 0.20554 0.0
N459 N 0.43797 0.86717 0.23444 0.0
N460 N 0.43307 0.84891 0.23133 0.0
C461 C 0.44114 0.84157 0.19972 0.0
C462 C 0.452 0.8558 0.18253 0.0
C463 C 0.46079 0.89025 0.20236 0.0
H464 H 0.4643 0.8959 0.23089 0.0
H465 H 0.45197 0.90095 0.18685 0.0
H466 H 0.47439 0.88815 0.18638 0.0
O467 O 0.44045 0.87079 0.32319 0.0
O468 O 0.43401 0.83958 0.31952 0.0
H469 H 0.44577 0.81126 0.2047 0.0
H470 H 0.4436 0.81955 0.15641 0.0
C471 C 0.43818 0.82146 0.18572 0.0
H472 H 0.42264 0.81805 0.18592 0.0
H473 H 0.44345 0.80278 0.28843 0.0
O474 O 0.43771 0.90854 0.27451 0.0
C475 C 0.44149 0.85385 0.33668 0.0
Co476 Co 0.1214 0.92807 0.52422 0.0
Co477 Co 0.16563 0.91891 0.52907 0.0
C478 C 0.13462 0.88826 0.53652 0.0
O479 O 0.12055 0.89963 0.53032 0.0
O480 O 0.15193 0.8943 0.53695 0.0
C481 C 0.08047 0.93369 0.50107 0.0
O482 O 0.08066 0.91698 0.48365 0.0
C483 C 0.20068 0.90141 0.49832 0.0
C484 C 0.22333 0.91879 0.52587 0.0
C485 C 0.22043 0.90454 0.49898 0.0
N486 N 0.19235 0.9137 0.52277 0.0
N487 N 0.20599 0.92377 0.53968 0.0
C488 C 0.18978 0.88692 0.47534 0.0
H489 H 0.17746 0.88126 0.49183 0.0
H490 H 0.18391 0.89388 0.44953 0.0
H491 H 0.19921 0.87477 0.46685 0.0
C492 C 0.13394 0.94605 0.4522 0.0
N493 N 0.13753 0.93567 0.48365 0.0
N494 N 0.15618 0.93255 0.48626 0.0
C495 C 0.16509 0.94119 0.45684 0.0
C496 C 0.15126 0.94987 0.43425 0.0
C497 C 0.11451 0.95363 0.44152 0.0
H498 H 0.10861 0.96222 0.46532 0.0
H499 H 0.10465 0.94137 0.43626 0.0
H500 H 0.11508 0.96285 0.4159 0.0
O501 O 0.13092 0.93985 0.57172 0.0
O502 O 0.16237 0.93454 0.57513 0.0
H503 H 0.19381 0.94512 0.47768 0.0
H504 H 0.19083 0.95177 0.42859 0.0
C505 C 0.18643 0.94142 0.45081 0.0
H506 H 0.19124 0.92698 0.44164 0.0
H507 H 0.2034 0.9346 0.55953 0.0
O508 O 0.09548 0.93954 0.51812 0.0
C509 C 0.147 0.94176 0.58859 0.0
Co510 Co 0.06914 0.61979 0.77651 0.0
Co511 Co 0.08157 0.66328 0.77488 0.0
C512 C 0.11038 0.63059 0.77649 0.0
O513 O 0.09764 0.61738 0.77673 0.0
O514 O 0.10575 0.64831 0.77547 0.0
C515 C 0.06104 0.57977 0.75374 0.0
O516 O 0.0761 0.5808 0.73134 0.0
C517 C 0.09788 0.69674 0.73647 0.0
C518 C 0.0886 0.72074 0.77321 0.0
C519 C 0.09822 0.71657 0.73986 0.0
N520 N 0.08831 0.68946 0.76627 0.0
N521 N 0.08304 0.70386 0.78845 0.0
C522 C 0.10681 0.68482 0.70584 0.0
H523 H 0.10114 0.66989 0.70658 0.0
H524 H 0.10418 0.69133 0.67762 0.0
H525 H 0.12261 0.68438 0.7103 0.0
C526 C 0.04771 0.63238 0.70793 0.0
N527 N 0.05997 0.63582 0.73673 0.0
N528 N 0.06433 0.65428 0.73706 0.0
C529 C 0.05458 0.66321 0.70903 0.0
C530 C 0.04397 0.64956 0.68945 0.0
C531 C 0.03867 0.61326 0.69982 0.0
H532 H 0.03203 0.60752 0.72603 0.0
H533 H 0.04995 0.60306 0.69029 0.0
H534 H 0.02741 0.61431 0.67761 0.0
O535 O 0.06088 0.63063 0.82565 0.0
O536 O 0.06915 0.66149 0.82502 0.0
H537 H 0.05652 0.69258 0.72774 0.0
H538 H 0.04264 0.68941 0.68518 0.0
C539 C 0.05544 0.68435 0.70096 0.0
H540 H 0.06819 0.68737 0.68315 0.0
H541 H 0.07516 0.7022 0.81341 0.0
O542 O 0.05654 0.59418 0.77407 0.0
C543 C 0.06153 0.64708 0.84149 0.0
H544 H 0.94832 0.939 0.07291 0.0
H545 H 0.97446 0.96246 0.07085 0.0
H546 H 0.95711 0.97952 0.95839 0.0
H547 H 0.93117 0.95578 0.95984 0.0
H548 H 0.9956 0.97904 0.96432 0.0
H549 H 0.94318 0.00562 0.03473 0.0
H550 H 0.91804 0.00582 0.08407 0.0
H551 H 0.96136 0.00221 0.17055 0.0
H552 H 0.98676 0.00168 0.12171 0.0
H553 H 0.04793 0.06731 0.97029 0.0
H554 H 0.01973 0.04607 0.96856 0.0
H555 H 0.03765 0.01992 0.07361 0.0
H556 H 0.06588 0.04087 0.07536 0.0
H557 H 0.9973 0.02693 0.0687 0.0
H558 H 0.0494 0.99871 0.99643 0.0
H559 H 0.07412 0.99905 0.94632 0.0
H560 H 0.03029 0.00674 0.86187 0.0
H561 H 0.00532 0.00687 0.91161 0.0
C562 C 0.95022 0.94753 0.04749 0.0
C563 C 0.93752 0.94566 0.01671 0.0
C564 C 0.96511 0.96102 0.04645 0.0
C565 C 0.96744 0.97306 0.01482 0.0
C566 C 0.95548 0.97048 0.98319 0.0
C567 C 0.94065 0.95689 0.9841 0.0
C568 C 0.98181 0.98885 0.01549 0.0
C569 C 0.99579 0.98967 0.98683 0.0
C570 C 0.98211 0.00269 0.045 0.0
C571 C 0.96688 0.00344 0.07451 0.0
C572 C 0.94735 0.00476 0.06426 0.0
C573 C 0.93305 0.00494 0.09213 0.0
C574 C 0.9381 0.00397 0.1304 0.0
C575 C 0.95747 0.00293 0.14088 0.0
C576 C 0.97183 0.00271 0.11312 0.0
C577 C 0.04566 0.05728 0.99334 0.0
C578 C 0.05915 0.05566 0.02284 0.0
C579 C 0.0296 0.04513 0.99223 0.0
C580 C 0.02673 0.03136 0.02082 0.0
C581 C 0.03963 0.03045 0.05131 0.0
C582 C 0.05578 0.04238 0.05216 0.0
C583 C 0.01114 0.01693 0.01782 0.0
C584 C 0.99695 0.01638 0.04604 0.0
C585 C 0.01054 0.00346 0.98776 0.0
C586 C 0.02551 0.00303 0.95778 0.0
C587 C 0.04504 0.00064 0.96721 0.0
C588 C 0.0591 0.00073 0.93887 0.0
C589 C 0.05379 0.00296 0.90094 0.0
C590 C 0.03439 0.00505 0.89127 0.0
C591 C 0.02028 0.00505 0.91952 0.0
H592 H 0.06469 0.00302 0.87904 0.0
H593 H 0.92702 0.00403 0.15194 0.0
H594 H 0.96959 0.57677 0.30113 0.0
H595 H 0.9911 0.54913 0.29928 0.0
H596 H 0.95744 0.52419 0.20906 0.0
H597 H 0.93551 0.55185 0.21109 0.0
H598 H 0.9675 0.49741 0.26073 0.0
H599 H -7e-05 0.54571 0.18973 0.0
H600 H 0.01315 0.57794 0.17654 0.0
H601 H 0.05154 0.57258 0.2713 0.0
H602 H 0.03832 0.54042 0.28548 0.0
H603 H 0.03905 0.42787 0.21755 0.0
H604 H 0.01841 0.45605 0.20976 0.0
H605 H 0.0436 0.48181 0.30923 0.0
H606 H 0.06425 0.45354 0.31755 0.0
H607 H 0.03785 0.50789 0.24715 0.0
H608 H 0.00309 0.46023 0.31978 0.0
H609 H 0.98984 0.42784 0.33138 0.0
H610 H 0.95586 0.43203 0.23007 0.0
H611 H 0.96915 0.46435 0.21756 0.0
C612 C 0.96666 0.56541 0.28092 0.0
C613 C 0.95086 0.56658 0.25609 0.0
C614 C 0.97906 0.54964 0.27978 0.0
C615 C 0.9761 0.53477 0.25355 0.0
C616 C 0.96005 0.53558 0.22938 0.0
C617 C 0.94754 0.55139 0.23057 0.0
C618 C 0.98983 0.51843 0.25171 0.0
C619 C 0.98283 0.49969 0.25707 0.0
C620 C 0.00989 0.52141 0.24745 0.0
C621 C 0.01801 0.5407 0.23886 0.0
C622 C 0.01109 0.55145 0.20794 0.0
C623 C 0.0186 0.56971 0.20026 0.0
C624 C 0.03315 0.57732 0.22311 0.0
C625 C 0.04026 0.56667 0.25364 0.0
C626 C 0.03277 0.54842 0.2615 0.0
C627 C 0.04041 0.4396 0.23756 0.0
C628 C 0.0532 0.43838 0.2684 0.0
C629 C 0.02856 0.45568 0.23307 0.0
C630 C 0.02937 0.47089 0.25914 0.0
C631 C 0.04276 0.47018 0.28886 0.0
C632 C 0.0545 0.454 0.29362 0.0
C633 C 0.01549 0.48702 0.25663 0.0
C634 C 0.02248 0.50568 0.25046 0.0
C635 C 0.99542 0.48395 0.25983 0.0
C636 C 0.98727 0.46461 0.26752 0.0
C637 C 0.99291 0.45418 0.29981 0.0
C638 C 0.98538 0.43584 0.30658 0.0
C639 C 0.97206 0.42786 0.28142 0.0
C640 C 0.9662 0.43822 0.2495 0.0
C641 C 0.97372 0.45655 0.24257 0.0
H642 H 0.96624 0.41366 0.28671 0.0
H643 H 0.03894 0.59145 0.21711 0.0
H644 H 0.54882 0.57305 0.48651 0.0
H645 H 0.52055 0.55199 0.48398 0.0
H646 H 0.55493 0.50448 0.52419 0.0
H647 H 0.58317 0.5252 0.52612 0.0
H648 H 0.53221 0.49306 0.46813 0.0
H649 H 0.52463 0.52936 0.58344 0.0
H650 H 0.52209 0.55879 0.62219 0.0
H651 H 0.47238 0.57642 0.55874 0.0
H652 H 0.47478 0.5472 0.51927 0.0
H653 H 0.45915 0.42981 0.53687 0.0
H654 H 0.48679 0.45141 0.52996 0.0
H655 H 0.44963 0.49541 0.48432 0.0
H656 H 0.422 0.47405 0.49121 0.0
H657 H 0.47296 0.50935 0.53967 0.0
H658 H 0.47964 0.47165 0.4268 0.0
H659 H 0.48224 0.44185 0.38921 0.0
H660 H 0.53373 0.42641 0.44926 0.0
H661 H 0.53129 0.456 0.48762 0.0
C662 C 0.55034 0.55812 0.49476 0.0
C663 C 0.56823 0.55086 0.50672 0.0
C664 C 0.53417 0.54611 0.4934 0.0
C665 C 0.53559 0.5267 0.50426 0.0
C666 C 0.55349 0.51939 0.51565 0.0
C667 C 0.56962 0.53132 0.5169 0.0
C668 C 0.51847 0.51392 0.50431 0.0
C669 C 0.51932 0.49654 0.48406 0.0
C670 C 0.50149 0.51864 0.52444 0.0
C671 C 0.50002 0.53621 0.54813 0.0
C672 C 0.51325 0.53959 0.57755 0.0
C673 C 0.51182 0.55622 0.59968 0.0
C674 C 0.49712 0.5695 0.59286 0.0
C675 C 0.48378 0.56614 0.56395 0.0
C676 C 0.48517 0.54955 0.54171 0.0
C677 C 0.45688 0.44403 0.52511 0.0
C678 C 0.43836 0.4502 0.51466 0.0
C679 C 0.4727 0.45633 0.52106 0.0
C680 C 0.47025 0.47499 0.50647 0.0
C681 C 0.45182 0.48109 0.49567 0.0
C682 C 0.43605 0.4688 0.49954 0.0
C683 C 0.48677 0.48843 0.50376 0.0
C684 C 0.4858 0.50593 0.52353 0.0
C685 C 0.50366 0.48377 0.48335 0.0
C686 C 0.50517 0.46596 0.46034 0.0
C687 C 0.49143 0.46182 0.43223 0.0
C688 C 0.49289 0.44498 0.41073 0.0
C689 C 0.50811 0.43222 0.41691 0.0
C690 C 0.52193 0.4363 0.44454 0.0
C691 C 0.52052 0.45311 0.46615 0.0
H692 H 0.50923 0.4192 0.40023 0.0
H693 H 0.49603 0.58236 0.61003 0.0
H694 H 0.56314 0.95357 0.71211 0.0
H695 H 0.54041 0.98053 0.71329 0.0
H696 H 0.50485 0.94972 0.79311 0.0
H697 H 0.52708 0.92265 0.7912 0.0
H698 H 0.48287 0.96565 0.74276 0.0
H699 H 0.53538 0.98728 0.82009 0.0
H700 H 0.56916 0.99492 0.8354 0.0
H701 H 0.57067 0.03632 0.74511 0.0
H702 H 0.53696 0.02873 0.72894 0.0
H703 H 0.43093 0.0461 0.82133 0.0
H704 H 0.45187 0.01812 0.81144 0.0
H705 H 0.47798 0.04625 0.71548 0.0
H706 H 0.45699 0.074 0.72464 0.0
H707 H 0.50451 0.03216 0.771 0.0
H708 H 0.45039 0.01091 0.69719 0.0
H709 H 0.41622 0.00335 0.68559 0.0
H710 H 0.41744 0.96119 0.77451 0.0
H711 H 0.45156 0.96871 0.78703 0.0
C712 C 0.55049 0.95258 0.72993 0.0
C713 C 0.54696 0.93599 0.75163 0.0
C714 C 0.53753 0.96802 0.73068 0.0
C715 C 0.52099 0.96726 0.75362 0.0
C716 C 0.51745 0.95066 0.77511 0.0
C717 C 0.53025 0.9352 0.77408 0.0
C718 C 0.5073 0.9837 0.75547 0.0
C719 C 0.48762 0.98015 0.74933 0.0
C720 C 0.51345 0.00271 0.76343 0.0
C721 C 0.53372 0.00727 0.77303 0.0
C722 C 0.54297 0.99789 0.8033 0.0
C723 C 0.56209 0.00224 0.81217 0.0
C724 C 0.57208 0.01605 0.79117 0.0
C725 C 0.56294 0.02559 0.7613 0.0
C726 C 0.54382 0.02128 0.75229 0.0
C727 C 0.44095 0.04622 0.79783 0.0
C728 C 0.44232 0.06233 0.77386 0.0
C729 C 0.45288 0.03023 0.79221 0.0
C730 C 0.46649 0.03019 0.76279 0.0
C731 C 0.4676 0.04605 0.73839 0.0
C732 C 0.45552 0.06187 0.74362 0.0
C733 C 0.48021 0.01402 0.75854 0.0
C734 C 0.49986 0.01765 0.76427 0.0
C735 C 0.474 0.99506 0.75076 0.0
C736 C 0.45348 0.99052 0.74331 0.0
C737 C 0.44332 0.00017 0.71453 0.0
C738 C 0.42398 0.99586 0.70773 0.0
C739 C 0.41465 0.98184 0.72938 0.0
C740 C 0.42467 0.97207 0.75781 0.0
C741 C 0.44402 0.97634 0.76474 0.0
H742 H 0.39967 0.97852 0.72406 0.0
H743 H 0.58688 0.0194 0.79809 0.0
H744 H 0.04726 0.92895 0.45954 0.0
H745 H 0.02059 0.9519 0.45308 0.0
H746 H 0.04887 0.99048 0.53098 0.0
H747 H 0.07549 0.96796 0.53721 0.0
H748 H 0.99523 0.96744 0.50272 0.0
H749 H 0.043 0.03627 0.5027 0.0
H750 H 0.07563 0.04586 0.48267 0.0
H751 H 0.07636 0.00034 0.4004 0.0
H752 H 0.04361 0.99068 0.41944 0.0
H753 H 0.93894 0.04679 0.55075 0.0
H754 H 0.9659 0.02435 0.54763 0.0
H755 H 0.97658 0.0411 0.43181 0.0
H756 H 0.9498 0.064 0.43503 0.0
H757 H 0.00969 0.03517 0.46802 0.0
H758 H 0.95101 0.0008 0.45183 0.0
H759 H 0.91787 0.99113 0.46796 0.0
H760 H 0.93786 0.96638 0.57228 0.0
H761 H 0.97108 0.97632 0.55721 0.0
C762 C 0.04773 0.94229 0.47541 0.0
C763 C 0.06359 0.94667 0.49865 0.0
C764 C 0.03248 0.95537 0.4717 0.0
C765 C 0.03291 0.97304 0.49104 0.0
C766 C 0.04842 0.97711 0.51517 0.0
C767 C 0.06361 0.96414 0.51881 0.0
C768 C 0.01733 0.98745 0.48608 0.0
C769 C 0.99836 0.98222 0.49497 0.0
C770 C 0.02135 0.00664 0.47506 0.0
C771 C 0.04089 0.01267 0.46274 0.0
C772 C 0.05006 0.02839 0.48016 0.0
C773 C 0.06859 0.03382 0.469 0.0
C774 C 0.07808 0.02369 0.44035 0.0
C775 C 0.06902 0.00815 0.42266 0.0
C776 C 0.05047 0.00268 0.43364 0.0
C777 C 0.94721 0.04593 0.52478 0.0
C778 C 0.94215 0.05706 0.49303 0.0
C779 C 0.96254 0.03301 0.52297 0.0
C780 C 0.97294 0.03069 0.48918 0.0
C781 C 0.96865 0.04256 0.45809 0.0
C782 C 0.95338 0.05567 0.46 0.0
C783 C 0.98772 0.01533 0.48606 0.0
C784 C 0.00652 0.02037 0.47552 0.0
C785 C 0.98345 0.99586 0.49474 0.0
C786 C 0.96354 0.98943 0.50349 0.0
C787 C 0.94834 0.99339 0.47832 0.0
C788 C 0.92953 0.98788 0.4873 0.0
C789 C 0.92576 0.9782 0.52119 0.0
C790 C 0.9408 0.97393 0.54609 0.0
C791 C 0.95963 0.9795 0.53734 0.0
H792 H 0.91119 0.97396 0.52812 0.0
H793 H 0.09243 0.02789 0.43182 0.0
H794 H 0.96013 0.42732 0.80389 0.0
H795 H 0.98107 0.45543 0.80233 0.0
H796 H 0.95244 0.47548 0.70124 0.0
H797 H 0.93101 0.44747 0.70321 0.0
H798 H 0.00676 0.46568 0.75288 0.0
H799 H 0.95553 0.52469 0.69718 0.0
H800 H 0.921 0.53301 0.69847 0.0
H801 H 0.9143 0.50225 0.80317 0.0
H802 H 0.94882 0.49396 0.80273 0.0
H803 H 0.06203 0.54886 0.70527 0.0
H804 H 0.03957 0.52171 0.70288 0.0
H805 H 0.00862 0.54507 0.79836 0.0
H806 H 0.03065 0.57235 0.8004 0.0
H807 H 0.98402 0.53327 0.7471 0.0
H808 H 0.04015 0.50673 0.80753 0.0
H809 H 0.07456 0.4985 0.81338 0.0
H810 H 0.07116 0.4644 0.71211 0.0
H811 H 0.03677 0.47264 0.70541 0.0
C812 C 0.95813 0.43779 0.7815 0.0
C813 C 0.94387 0.43518 0.7537 0.0
C814 C 0.9702 0.45383 0.78055 0.0
C815 C 0.96837 0.46761 0.75171 0.0
C816 C 0.95398 0.46518 0.72408 0.0
C817 C 0.94173 0.44917 0.72523 0.0
C818 C 0.98189 0.48419 0.75041 0.0
C819 C 0.00176 0.48045 0.75148 0.0
C820 C 0.97544 0.5035 0.74891 0.0
C821 C 0.9547 0.50852 0.74965 0.0
C822 C 0.94669 0.51975 0.72051 0.0
C823 C 0.92712 0.52445 0.7211 0.0
C824 C 0.91545 0.5181 0.75081 0.0
C825 C 0.92334 0.50709 0.78009 0.0
C826 C 0.94289 0.50236 0.77965 0.0
C827 C 0.0505 0.54815 0.72587 0.0
C828 C 0.04818 0.56275 0.7531 0.0
C829 C 0.03767 0.53262 0.72448 0.0
C830 C 0.02245 0.53128 0.75059 0.0
C831 C 0.02018 0.54582 0.77781 0.0
C832 C 0.03288 0.56137 0.77905 0.0
C833 C 0.00886 0.51475 0.7499 0.0
C834 C 0.989 0.51848 0.74822 0.0
C835 C 0.0153 0.49544 0.75177 0.0
C836 C 0.03596 0.49047 0.75574 0.0
C837 C 0.04678 0.4976 0.78635 0.0
C838 C 0.06627 0.49291 0.78985 0.0
C839 C 0.07505 0.48098 0.76307 0.0
C840 C 0.06435 0.47367 0.73279 0.0
C841 C 0.04486 0.47833 0.72914 0.0
H842 H 0.09014 0.47736 0.76584 0.0
H843 H 0.90031 0.52175 0.7512 0.0
H844 H 0.58026 0.47497 0.00158 0.0
H845 H 0.55245 0.49634 -0.00175 0.0
H846 H 0.51479 0.44869 0.02328 0.0
H847 H 0.54264 0.42708 0.02682 0.0
H848 H 0.5016 0.47241 0.96387 0.0
H849 H 0.52513 0.47903 0.09165 0.0
H850 H 0.54985 0.48507 0.14036 0.0
H851 H 0.55933 0.54171 0.09542 0.0
H852 H 0.53484 0.53591 0.04607 0.0
H853 H 0.41757 0.52373 0.01263 0.0
H854 H 0.44564 0.50278 0.01064 0.0
H855 H 0.48273 0.55236 0.00142 0.0
H856 H 0.45459 0.57357 0.00423 0.0
H857 H 0.49679 0.52799 0.05171 0.0
H858 H 0.47562 0.5223 0.92369 0.0
H859 H 0.45308 0.51705 0.87091 0.0
H860 H 0.44046 0.46038 0.9126 0.0
H861 H 0.46315 0.46526 0.9656 0.0
C862 C 0.56608 0.46895 0.00624 0.0
C863 C 0.56369 0.4493 0.01468 0.0
C864 C 0.55021 0.48124 0.00445 0.0
C865 C 0.53161 0.47414 0.01095 0.0
C866 C 0.52906 0.45445 0.01831 0.0
C867 C 0.54498 0.44213 0.02039 0.0
C868 C 0.51487 0.48737 0.01043 0.0
C869 C 0.50037 0.4844 0.98343 0.0
C870 C 0.51366 0.50339 0.0351 0.0
C871 C 0.52828 0.50696 0.06494 0.0
C872 C 0.53259 0.49272 0.09197 0.0
C873 C 0.54654 0.49611 0.11973 0.0
C874 C 0.55619 0.51375 0.12093 0.0
C875 C 0.55186 0.52805 0.09443 0.0
C876 C 0.53793 0.52472 0.06658 0.0
C877 C 0.43167 0.53024 0.01 0.0
C878 C 0.43382 0.55037 0.00863 0.0
C879 C 0.44774 0.51819 0.00862 0.0
C880 C 0.46632 0.52595 0.00541 0.0
C881 C 0.46853 0.54604 0.00384 0.0
C882 C 0.45243 0.55814 0.00535 0.0
C883 C 0.48339 0.51303 0.00515 0.0
C884 C 0.49797 0.51603 0.03208 0.0
C885 C 0.48481 0.49717 0.9801 0.0
C886 C 0.47092 0.49422 0.94877 0.0
C887 C 0.46791 0.50878 0.92178 0.0
C888 C 0.45513 0.50585 0.89177 0.0
C889 C 0.4452 0.48844 0.8885 0.0
C890 C 0.44813 0.47388 0.91519 0.0
C891 C 0.46101 0.47668 0.94515 0.0
H892 H 0.43533 0.4862 0.86519 0.0
H893 H 0.56699 0.51634 0.14244 0.0
H894 H 0.45027 0.93999 0.30771 0.0
H895 H 0.47188 0.96775 0.30402 0.0
H896 H 0.46436 0.96964 0.18281 0.0
H897 H 0.44232 0.94206 0.18636 0.0
H898 H 0.5045 0.96896 0.21155 0.0
H899 H 0.44484 0.00339 0.22591 0.0
H900 H 0.4137 0.01083 0.25604 0.0
H901 H 0.44256 0.02398 0.36049 0.0
H902 H 0.47386 0.01634 0.33112 0.0
H903 H 0.5595 0.05542 0.19065 0.0
H904 H 0.5362 0.02906 0.18649 0.0
H905 H 0.52404 0.03508 0.30595 0.0
H906 H 0.54641 0.06214 0.30942 0.0
H907 H 0.49241 0.03212 0.27254 0.0
H908 H 0.55113 0.99584 0.26351 0.0
H909 H 0.58286 0.98684 0.23768 0.0
H910 H 0.55719 0.97532 0.12934 0.0
H911 H 0.52533 0.98449 0.15442 0.0
C912 C 0.45297 0.94651 0.28034 0.0
C913 C 0.44456 0.93893 0.24735 0.0
C914 C 0.46532 0.96234 0.27828 0.0
C915 C 0.4697 0.97068 0.24314 0.0
C916 C 0.46111 0.96336 0.21017 0.0
C917 C 0.44844 0.94773 0.21229 0.0
C918 C 0.48388 0.98654 0.24105 0.0
C919 C 0.50182 0.98293 0.22427 0.0
C920 C 0.48049 0.00446 0.2587 0.0
C921 C 0.46168 0.00912 0.27639 0.0
C922 C 0.44453 0.0077 0.25539 0.0
C923 C 0.42686 0.01199 0.27232 0.0
C924 C 0.42615 0.01783 0.31018 0.0
C925 C 0.44313 0.01944 0.33117 0.0
C926 C 0.46084 0.01515 0.31439 0.0
C927 C 0.55207 0.05084 0.21608 0.0
C928 C 0.55479 0.06068 0.2504 0.0
C929 C 0.53876 0.03575 0.21374 0.0
C930 C 0.5284 0.02986 0.246 0.0
C931 C 0.5317 0.03935 0.28057 0.0
C932 C 0.54459 0.05473 0.28264 0.0
C933 C 0.51342 0.01454 0.24367 0.0
C934 C 0.49523 0.01824 0.25958 0.0
C935 C 0.51675 0.99655 0.22587 0.0
C936 C 0.53589 0.99105 0.21073 0.0
C937 C 0.55228 0.99153 0.2341 0.0
C938 C 0.57028 0.98637 0.21961 0.0
C939 C 0.57205 0.98057 0.18186 0.0
C940 C 0.5558 0.97985 0.15855 0.0
C941 C 0.53777 0.98501 0.1729 0.0
H942 H 0.586 0.97657 0.17069 0.0
H943 H 0.41245 0.02115 0.32323 0.0
H944 H 0.13632 0.9426 0.36496 0.0
H945 H 0.1413 0.96097 0.30658 0.0
H946 H 0.17825 0.00047 0.36691 0.0
H947 H 0.17262 0.98242 0.42568 0.0
H948 H 0.15477 0.01959 0.32267 0.0
H949 H 0.197 0.96714 0.3067 0.0
H950 H 0.20746 0.93327 0.30645 0.0
H951 H 0.16777 0.92079 0.21653 0.0
H952 H 0.15661 0.95447 0.21694 0.0
H953 H 0.17911 0.06005 0.13947 0.0
H954 H 0.18487 0.04238 0.19875 0.0
H955 H 0.13554 0.00654 0.17596 0.0
H956 H 0.12939 0.02436 0.1175 0.0
H957 H 0.17219 0.98705 0.20223 0.0
H958 H 0.12683 0.03946 0.23039 0.0
H959 H 0.11769 0.07375 0.2318 0.0
H960 H 0.16743 0.0866 0.29947 0.0
H961 H 0.17701 0.05238 0.29796 0.0
C962 C 0.14546 0.95522 0.36558 0.0
C963 C 0.1543 0.96105 0.39936 0.0
C964 C 0.14845 0.9656 0.3323 0.0
C965 C 0.16049 0.98185 0.33225 0.0
C966 C 0.16906 0.98787 0.36626 0.0
C967 C 0.16595 0.97754 0.39964 0.0
C968 C 0.1635 0.99284 0.29682 0.0
C969 C 0.159 0.01253 0.29654 0.0
C970 C 0.16908 0.98366 0.2627 0.0
C971 C 0.17586 0.96337 0.26202 0.0
C972 C 0.19037 0.95716 0.28705 0.0
C973 C 0.19645 0.93799 0.28686 0.0
C974 C 0.18832 0.9249 0.26144 0.0
C975 C 0.17406 0.93095 0.23619 0.0
C976 C 0.16784 0.95009 0.2364 0.0
C977 C 0.16962 0.0483 0.14704 0.0
C978 C 0.15373 0.04363 0.12415 0.0
C979 C 0.17293 0.03825 0.18075 0.0
C980 C 0.16062 0.0232 0.19144 0.0
C981 C 0.1452 0.01808 0.16795 0.0
C982 C 0.14164 0.02835 0.13478 0.0
C983 C 0.16288 0.01346 0.22823 0.0
C984 C 0.16839 0.99406 0.22866 0.0
C985 C 0.15859 0.02295 0.26258 0.0
C986 C 0.15277 0.04345 0.26363 0.0
C987 C 0.13592 0.04964 0.24523 0.0
C988 C 0.13063 0.06905 0.24613 0.0
C989 C 0.14201 0.08236 0.2656 0.0
C990 C 0.15866 0.07628 0.28432 0.0
C991 C 0.16402 0.05689 0.28347 0.0
H992 H 0.13789 0.09738 0.26627 0.0
H993 H 0.19307 0.91006 0.26132 0.0
H994 H 0.01267 0.67278 0.67983 0.0
H995 H 0.99441 0.67795 0.62119 0.0
H996 H 0.0306 0.63669 0.56372 0.0
H997 H 0.04936 0.63228 0.62179 0.0
H998 H 0.02531 0.66707 0.52055 0.0
H999 H 0.98476 0.62557 0.59583 0.0
H1000 H 0.96609 0.61637 0.65242 0.0
H1001 H 0.93044 0.66642 0.63913 0.0
H1002 H 0.94909 0.67605 0.5827 0.0
H1003 H 0.96958 0.62974 0.37188 0.0
H1004 H 0.98592 0.63448 0.43234 0.0
H1005 H 0.95215 0.68549 0.45291 0.0
H1006 H 0.93582 0.68106 0.39174 0.0
H1007 H 0.95475 0.65632 0.51532 0.0
H1008 H 0.99389 0.69473 0.43323 0.0
H1009 H 0.01242 0.70164 0.37525 0.0
H1010 H 0.05077 0.65488 0.40037 0.0
H1011 H 0.03227 0.64749 0.45822 0.0
C1012 C 0.0168 0.66506 0.65444 0.0
C1013 C 0.03247 0.65233 0.65486 0.0
C1014 C 0.00629 0.66785 0.62116 0.0
C1015 C 0.0111 0.65763 0.58815 0.0
C1016 C 0.02671 0.6448 0.58881 0.0
C1017 C 0.03731 0.64218 0.62192 0.0
C1018 C -9e-05 0.66009 0.55279 0.0
C1019 C 0.0099 0.66465 0.51942 0.0
C1020 C 0.97971 0.65746 0.55152 0.0
C1021 C 0.96846 0.65165 0.58534 0.0
C1022 C 0.97303 0.63469 0.60516 0.0
C1023 C 0.96244 0.62939 0.63717 0.0
C1024 C 0.94713 0.64084 0.64943 0.0
C1025 C 0.94233 0.65758 0.62964 0.0
C1026 C 0.9529 0.66297 0.59764 0.0
C1027 C 0.96559 0.64198 0.3892 0.0
C1028 C 0.95141 0.65503 0.37712 0.0
C1029 C 0.97498 0.64469 0.42362 0.0
C1030 C 0.97025 0.66036 0.44677 0.0
C1031 C 0.95596 0.67334 0.4352 0.0
C1032 C 0.94673 0.67082 0.40032 0.0
C1033 C 0.98028 0.66278 0.48324 0.0
C1034 C 0.97009 0.65913 0.51673 0.0
C1035 C 0.00034 0.66599 0.4846 0.0
C1036 C 0.0116 0.67047 0.44995 0.0
C1037 C 0.00618 0.68581 0.42624 0.0
C1038 C 0.01669 0.68984 0.39342 0.0
C1039 C 0.03274 0.67869 0.3841 0.0
C1040 C 0.03833 0.66351 0.40762 0.0
C1041 C 0.02785 0.65941 0.44046 0.0
H1042 H 0.04087 0.68183 0.35868 0.0
H1043 H 0.93894 0.6367 0.67422 0.0
H1044 H 0.32845 0.4377 0.64117 0.0
H1045 H 0.32552 0.45677 0.69917 0.0
H1046 H 0.36794 0.49672 0.6565 0.0
H1047 H 0.37171 0.47706 0.59971 0.0
H1048 H 0.37556 0.49072 0.72468 0.0
H1049 H 0.31709 0.5062 0.66014 0.0
H1050 H 0.28644 0.49994 0.62712 0.0
H1051 H 0.26416 0.47206 0.72644 0.0
H1052 H 0.29479 0.47792 0.75991 0.0
H1053 H 0.35951 0.56468 0.85736 0.0
H1054 H 0.35766 0.54731 0.79692 0.0
H1055 H 0.32692 0.50114 0.85197 0.0
H1056 H 0.32868 0.51863 0.9124 0.0
H1057 H 0.31264 0.51069 0.77837 0.0
H1058 H 0.37369 0.4974 0.8415 0.0
H1059 H 0.40335 0.50891 0.87257 0.0
H1060 H 0.42026 0.53761 0.7701 0.0
H1061 H 0.39051 0.52661 0.73867 0.0
C1062 C 0.33709 0.45059 0.64425 0.0
C1063 C 0.35033 0.45592 0.6161 0.0
C1064 C 0.33532 0.46156 0.67726 0.0
C1065 C 0.34629 0.47839 0.68205 0.0
C1066 C 0.35936 0.48379 0.65361 0.0
C1067 C 0.36149 0.47257 0.62113 0.0
C1068 C 0.34473 0.49007 0.71714 0.0
C1069 C 0.36177 0.49525 0.73599 0.0
C1070 C 0.32676 0.49586 0.73241 0.0
C1071 C 0.30831 0.49233 0.71239 0.0
C1072 C 0.30571 0.4986 0.67485 0.0
C1073 C 0.28833 0.49515 0.65606 0.0
C1074 C 0.27339 0.48556 0.67463 0.0
C1075 C 0.27577 0.47945 0.71207 0.0
C1076 C 0.29312 0.48286 0.73097 0.0
C1077 C 0.35217 0.55094 0.85624 0.0
C1078 C 0.34421 0.54288 0.88907 0.0
C1079 C 0.35109 0.54107 0.8219 0.0
C1080 C 0.34227 0.52291 0.82019 0.0
C1081 C 0.3337 0.51518 0.85279 0.0
C1082 C 0.33474 0.52509 0.88715 0.0
C1083 C 0.3434 0.51132 0.78519 0.0
C1084 C 0.32634 0.50609 0.7667 0.0
C1085 C 0.36134 0.50587 0.76966 0.0
C1086 C 0.37981 0.51131 0.78784 0.0
C1087 C 0.38374 0.50616 0.82561 0.0
C1088 C 0.40054 0.51263 0.8433 0.0
C1089 C 0.41363 0.52404 0.82333 0.0
C1090 C 0.41008 0.5288 0.78552 0.0
C1091 C 0.39326 0.52245 0.76776 0.0
H1092 H 0.42648 0.52927 0.83715 0.0
H1093 H 0.25994 0.48289 0.66005 0.0
H1094 H 0.47953 0.82903 0.16718 0.0
H1095 H 0.49875 0.8261 0.10915 0.0
H1096 H 0.47061 0.87637 0.06331 0.0
H1097 H 0.45117 0.87908 0.12101 0.0
H1098 H 0.47213 0.84691 0.01243 0.0
H1099 H 0.51529 0.87958 0.09746 0.0
H1100 H 0.53369 0.88399 0.15656 0.0
H1101 H 0.56435 0.8314 0.1355 0.0
H1102 H 0.54591 0.82653 0.0765 0.0
H1103 H 0.53335 0.87814 0.86725 0.0
H1104 H 0.51616 0.87552 0.9272 0.0
H1105 H 0.54466 0.82168 0.95051 0.0
H1106 H 0.56196 0.82404 0.89005 0.0
H1107 H 0.54355 0.84898 0.01297 0.0
H1108 H 0.50158 0.81792 0.9247 0.0
H1109 H 0.48342 0.81459 0.86504 0.0
H1110 H 0.45065 0.86516 0.89202 0.0
H1111 H 0.46883 0.86897 0.95161 0.0
C1112 C 0.47745 0.83935 0.14453 0.0
C1113 C 0.46387 0.8542 0.14814 0.0
C1114 C 0.48847 0.83776 0.11164 0.0
C1115 C 0.48612 0.85106 0.0821 0.0
C1116 C 0.47259 0.86594 0.08582 0.0
C1117 C 0.4616 0.86755 0.11872 0.0
C1118 C 0.49757 0.84943 0.04701 0.0
C1119 C 0.48774 0.8475 0.01251 0.0
C1120 C 0.51793 0.84966 0.04738 0.0
C1121 C 0.52905 0.85257 0.0828 0.0
C1122 C 0.52582 0.86886 0.10561 0.0
C1123 C 0.53629 0.87147 0.13905 0.0
C1124 C 0.55014 0.85795 0.14985 0.0
C1125 C 0.55359 0.84184 0.12715 0.0
C1126 C 0.54314 0.83915 0.09369 0.0
C1127 C 0.53606 0.86574 0.88509 0.0
C1128 C 0.54897 0.85125 0.87386 0.0
C1129 C 0.52617 0.86427 0.91927 0.0
C1130 C 0.52909 0.84835 0.94295 0.0
C1131 C 0.54225 0.83403 0.9324 0.0
C1132 C 0.55203 0.83538 0.89788 0.0
C1133 C 0.51807 0.8468 0.9785 0.0
C1134 C 0.52796 0.84812 0.01302 0.0
C1135 C 0.49774 0.8461 0.97821 0.0
C1136 C 0.48668 0.84381 0.94249 0.0
C1137 C 0.49061 0.82842 0.91777 0.0
C1138 C 0.4803 0.82643 0.88399 0.0
C1139 C 0.46592 0.83968 0.8747 0.0
C1140 C 0.4618 0.85492 0.89923 0.0
C1141 C 0.47209 0.85699 0.93304 0.0
H1142 H 0.45794 0.83811 0.84853 0.0
H1143 H 0.55823 0.86 0.17574 0.0
H1144 H 0.87873 0.05561 0.63225 0.0
H1145 H 0.8751 0.03638 0.6895 0.0
H1146 H 0.82068 0.01482 0.64846 0.0
H1147 H 0.82387 0.03487 0.59153 0.0
H1148 H 0.81867 0.02015 0.72202 0.0
H1149 H 0.86243 0.98794 0.64031 0.0
H1150 H 0.8904 0.98467 0.59774 0.0
H1151 H 0.92844 0.99931 0.68919 0.0
H1152 H 0.90069 0.00294 0.7322 0.0
H1153 H 0.82703 0.94038 0.85506 0.0
H1154 H 0.82405 0.95894 0.7961 0.0
H1155 H 0.87081 0.99555 0.8317 0.0
H1156 H 0.8733 0.97765 0.89111 0.0
H1157 H 0.87436 0.97904 0.75681 0.0
H1158 H 0.82824 0.01243 0.83699 0.0
H1159 H 0.79933 0.01414 0.87736 0.0
H1160 H 0.76446 0.99415 0.78492 0.0
H1161 H 0.79323 0.99193 0.74423 0.0
C1162 C 0.86592 0.04689 0.63554 0.0
C1163 C 0.8517 0.04652 0.6073 0.0
C1164 C 0.86389 0.03583 0.66818 0.0
C1165 C 0.84789 0.02371 0.67274 0.0
C1166 C 0.83322 0.02394 0.64535 0.0
C1167 C 0.83506 0.03537 0.61289 0.0
C1168 C 0.84696 0.01048 0.70564 0.0
C1169 C 0.83071 0.01091 0.72927 0.0
C1170 C 0.86265 0.99836 0.71505 0.0
C1171 C 0.87945 0.99584 0.68943 0.0
C1172 C 0.87675 0.99056 0.65131 0.0
C1173 C 0.89257 0.98863 0.62709 0.0
C1174 C 0.91117 0.99183 0.64074 0.0
C1175 C 0.91401 0.99686 0.67866 0.0
C1176 C 0.89825 0.99882 0.70299 0.0
C1177 C 0.83647 0.95256 0.85044 0.0
C1178 C 0.85056 0.95746 0.87734 0.0
C1179 C 0.8348 0.96306 0.81681 0.0
C1180 C 0.84728 0.97851 0.80965 0.0
C1181 C 0.86117 0.98355 0.83669 0.0
C1182 C 0.86267 0.97324 0.87043 0.0
C1183 C 0.84638 0.9892 0.77357 0.0
C1184 C 0.86227 0.98815 0.74924 0.0
C1185 C 0.83021 0.00038 0.7632 0.0
C1186 C 0.81293 0.00178 0.78771 0.0
C1187 C 0.81444 0.00819 0.82539 0.0
C1188 C 0.79807 0.00928 0.84833 0.0
C1189 C 0.78008 0.00418 0.83377 0.0
C1190 C 0.77841 0.99803 0.79622 0.0
C1191 C 0.79474 0.99685 0.77321 0.0
H1192 H 0.76742 0.00505 0.85156 0.0
H1193 H 0.92339 0.9904 0.62194 0.0
H1194 H 0.94239 0.31779 0.87978 0.0
H1195 H 0.95958 0.31527 0.94032 0.0
H1196 H 0.99085 0.36727 0.9142 0.0
H1197 H 0.97329 0.37026 0.85475 0.0
H1198 H 0.99548 0.31188 0.96344 0.0
H1199 H 0.99638 0.39465 0.98971 0.0
H1200 H 0.97647 0.42304 0.97465 0.0
H1201 H 0.92658 0.38698 0.96391 0.0
H1202 H 0.94612 0.35843 0.97943 0.0
H1203 H 0.06447 0.33605 0.10309 0.0
H1204 H 0.04438 0.33222 0.04642 0.0
H1205 H 0.99527 0.35363 0.10864 0.0
H1206 H 0.01571 0.35844 0.16441 0.0
H1207 H 0.99543 0.36984 0.04558 0.0
H1208 H 0.00141 0.3045 0.08254 0.0
H1209 H 0.01796 0.27468 0.10189 0.0
H1210 H 0.04752 0.27281 0.99513 0.0
H1211 H 0.03139 0.3028 0.97535 0.0
C1212 C 0.95303 0.32859 0.88694 0.0
C1213 C 0.95629 0.34439 0.86291 0.0
C1214 C 0.96286 0.32711 0.92145 0.0
C1215 C 0.97617 0.34132 0.93214 0.0
C1216 C 0.98024 0.35644 0.90702 0.0
C1217 C 0.97024 0.3581 0.873 0.0
C1218 C 0.98531 0.34097 0.97007 0.0
C1219 C 0.99544 0.32449 0.98155 0.0
C1220 C 0.98471 0.35722 0.99423 0.0
C1221 C 0.97277 0.37438 0.98544 0.0
C1222 C 0.98114 0.3928 0.98433 0.0
C1223 C 0.96992 0.40891 0.97567 0.0
C1224 C 0.95028 0.40681 0.96822 0.0
C1225 C 0.9418 0.38859 0.96956 0.0
C1226 C 0.95295 0.37243 0.97825 0.0
C1227 C 0.04936 0.33988 0.10437 0.0
C1228 C 0.04152 0.34767 0.13754 0.0
C1229 C 0.03785 0.33753 0.07225 0.0
C1230 C 0.01821 0.34239 0.07333 0.0
C1231 C 0.01037 0.34982 0.10701 0.0
C1232 C 0.02198 0.35256 0.1388 0.0
C1233 C 0.00611 0.3409 0.03878 0.0
C1234 C 0.99539 0.35709 0.02783 0.0
C1235 C 0.00564 0.32413 0.01593 0.0
C1236 C 0.01528 0.306 0.02757 0.0
C1237 C 0.01154 0.29781 0.06328 0.0
C1238 C 0.02083 0.28086 0.07431 0.0
C1239 C 0.03381 0.27188 0.04978 0.0
C1240 C 0.03748 0.2798 0.01412 0.0
C1241 C 0.02825 0.29676 0.00296 0.0
H1242 H 0.04099 0.25876 0.05838 0.0
H1243 H 0.94163 0.4193 0.96148 0.0
H1244 H 0.6382 0.56121 0.36041 0.0
H1245 H 0.63955 0.54305 0.30083 0.0
H1246 H 0.67579 0.50051 0.35419 0.0
H1247 H 0.6743 0.51862 0.41392 0.0
H1248 H 0.68761 0.51077 0.27982 0.0
H1249 H 0.63031 0.49135 0.34682 0.0
H1250 H 0.59981 0.49745 0.38047 0.0
H1251 H 0.5763 0.52386 0.28069 0.0
H1252 H 0.6068 0.51826 0.24664 0.0
H1253 H 0.67517 0.43788 0.13997 0.0
H1254 H 0.67765 0.45628 0.1989 0.0
H1255 H 0.63231 0.49408 0.16051 0.0
H1256 H 0.62914 0.47516 0.10265 0.0
H1257 H 0.62589 0.48563 0.22925 0.0
H1258 H 0.68229 0.50676 0.16215 0.0
H1259 H 0.71292 0.50287 0.12767 0.0
H1260 H 0.73807 0.47553 0.22492 0.0
H1261 H 0.7075 0.47903 0.25981 0.0
C1262 C 0.64658 0.54807 0.35913 0.0
C1263 C 0.65625 0.54127 0.39131 0.0
C1264 C 0.64734 0.53775 0.32528 0.0
C1265 C 0.65769 0.52043 0.32331 0.0
C1266 C 0.66783 0.51391 0.3552 0.0
C1267 C 0.66699 0.52422 0.38914 0.0
C1268 C 0.65703 0.50862 0.28854 0.0
C1269 C 0.67418 0.50504 0.26886 0.0
C1270 C 0.63942 0.50157 0.27408 0.0
C1271 C 0.62091 0.50453 0.29428 0.0
C1272 C 0.61868 0.49857 0.33212 0.0
C1273 C 0.60139 0.50194 0.35127 0.0
C1274 C 0.58614 0.51107 0.33275 0.0
C1275 C 0.58813 0.51681 0.29501 0.0
C1276 C 0.60541 0.51353 0.27577 0.0
C1277 C 0.66582 0.45018 0.14412 0.0
C1278 C 0.65194 0.45509 0.11684 0.0
C1279 C 0.66731 0.46076 0.17769 0.0
C1280 C 0.65534 0.47675 0.184 0.0
C1281 C 0.64167 0.48178 0.15641 0.0
C1282 C 0.63989 0.47098 0.12331 0.0
C1283 C 0.65649 0.48794 0.21977 0.0
C1284 C 0.63938 0.49133 0.23992 0.0
C1285 C 0.67413 0.49502 0.23433 0.0
C1286 C 0.69255 0.49299 0.21345 0.0
C1287 C 0.69431 0.4998 0.17608 0.0
C1288 C 0.71167 0.49768 0.15648 0.0
C1289 C 0.72741 0.48891 0.17406 0.0
C1290 C 0.72585 0.4823 0.21132 0.0
C1291 C 0.70852 0.48436 0.23103 0.0
H1292 H 0.74084 0.48729 0.15884 0.0
H1293 H 0.57277 0.51367 0.34763 0.0
H1294 H 0.53637 0.17665 0.36266 0.0
H1295 H 0.51833 0.17883 0.42189 0.0
H1296 H 0.53737 0.12173 0.45253 0.0
H1297 H 0.55452 0.11911 0.39234 0.0
H1298 H 0.502 0.12414 0.46754 0.0
H1299 H 0.55564 0.16514 0.49405 0.0
H1300 H 0.57845 0.1918 0.48357 0.0
H1301 H 0.53201 0.23249 0.48846 0.0
H1302 H 0.50886 0.20605 0.49848 0.0
H1303 H 0.47965 0.12868 0.66303 0.0
H1304 H 0.49881 0.13018 0.60499 0.0
H1305 H 0.46261 0.17583 0.56286 0.0
H1306 H 0.44279 0.17382 0.62037 0.0
H1307 H 0.50585 0.1802 0.55437 0.0
H1308 H 0.45267 0.13674 0.52911 0.0
H1309 H 0.43192 0.10905 0.54461 0.0
H1310 H 0.48102 0.07153 0.54229 0.0
H1311 H 0.50212 0.09908 0.52742 0.0
C1312 C 0.53677 0.16462 0.38218 0.0
C1313 C 0.54681 0.1477 0.37298 0.0
C1314 C 0.52655 0.16592 0.41614 0.0
C1315 C 0.5267 0.15056 0.44204 0.0
C1316 C 0.53698 0.13376 0.43302 0.0
C1317 C 0.54681 0.13228 0.39867 0.0
C1318 C 0.51552 0.15162 0.47781 0.0
C1319 C 0.5031 0.13632 0.48665 0.0
C1320 C 0.51661 0.16765 0.50261 0.0
C1321 C 0.53049 0.18359 0.49662 0.0
C1322 C 0.55027 0.17976 0.4926 0.0
C1323 C 0.56326 0.19484 0.4868 0.0
C1324 C 0.55668 0.21382 0.48524 0.0
C1325 C 0.53709 0.21778 0.48961 0.0
C1326 C 0.52402 0.20276 0.49538 0.0
C1327 C 0.47567 0.13891 0.64126 0.0
C1328 C 0.45956 0.15089 0.64575 0.0
C1329 C 0.48672 0.13988 0.60839 0.0
C1330 C 0.48199 0.15303 0.57978 0.0
C1331 C 0.46644 0.16563 0.58482 0.0
C1332 C 0.45518 0.16447 0.61756 0.0
C1333 C 0.49267 0.15272 0.54373 0.0
C1334 C 0.50488 0.16812 0.53496 0.0
C1335 C 0.49173 0.13664 0.51936 0.0
C1336 C 0.47899 0.12 0.52749 0.0
C1337 C 0.45906 0.12261 0.53219 0.0
C1338 C 0.44723 0.10694 0.54083 0.0
C1339 C 0.45515 0.08855 0.54453 0.0
C1340 C 0.47491 0.08579 0.53946 0.0
C1341 C 0.4868 0.10142 0.5309 0.0
H1342 H 0.44597 0.07643 0.55123 0.0
H1343 H 0.56676 0.22547 0.48075 0.0
H1344 H 0.67639 0.4783 0.91501 0.0
H1345 H 0.68122 0.49601 0.85571 0.0
H1346 H 0.63985 0.45918 0.80017 0.0
H1347 H 0.6358 0.44089 0.85902 0.0
H1348 H 0.66899 0.46549 0.75467 0.0
H1349 H 0.62817 0.50471 0.83291 0.0
H1350 H 0.61902 0.5226 0.8905 0.0
H1351 H 0.66839 0.5592 0.87759 0.0
H1352 H 0.67798 0.54133 0.82017 0.0
H1353 H 0.63357 0.52529 0.60774 0.0
H1354 H 0.6377 0.5066 0.66577 0.0
H1355 H 0.68801 0.53997 0.69416 0.0
H1356 H 0.68419 0.55865 0.63558 0.0
H1357 H 0.65862 0.53617 0.75329 0.0
H1358 H 0.69663 0.49771 0.66888 0.0
H1359 H 0.70324 0.47987 0.60991 0.0
H1360 H 0.65597 0.44186 0.63315 0.0
H1361 H 0.64888 0.45966 0.692 0.0
C1362 C 0.66861 0.47386 0.88988 0.0
C1363 C 0.65583 0.45825 0.8912 0.0
C1364 C 0.67122 0.48406 0.85619 0.0
C1365 C 0.66072 0.47905 0.82362 0.0
C1366 C 0.64812 0.46327 0.82492 0.0
C1367 C 0.6457 0.45294 0.85848 0.0
C1368 C 0.66243 0.49052 0.7884 0.0
C1369 C 0.66661 0.48093 0.75437 0.0
C1370 C 0.6597 0.51073 0.7881 0.0
C1371 C 0.65391 0.52154 0.82251 0.0
C1372 C 0.63715 0.51648 0.84252 0.0
C1373 C 0.63188 0.52663 0.8751 0.0
C1374 C 0.64315 0.54199 0.88776 0.0
C1375 C 0.6597 0.54727 0.86779 0.0
C1376 C 0.66506 0.53714 0.83522 0.0
C1377 C 0.64558 0.52862 0.6262 0.0
C1378 C 0.65854 0.54346 0.61719 0.0
C1379 C 0.64795 0.51788 0.65921 0.0
C1380 C 0.66319 0.52191 0.68398 0.0
C1381 C 0.6762 0.53667 0.67518 0.0
C1382 C 0.67403 0.54725 0.64175 0.0
C1383 C 0.66491 0.51107 0.71976 0.0
C1384 C 0.66131 0.52078 0.75382 0.0
C1385 C 0.66784 0.49095 0.71999 0.0
C1386 C 0.67213 0.48012 0.68472 0.0
C1387 C 0.68754 0.48565 0.66127 0.0
C1388 C 0.69139 0.47552 0.62789 0.0
C1389 C 0.68001 0.45977 0.61775 0.0
C1390 C 0.66477 0.45408 0.64103 0.0
C1391 C 0.66084 0.46416 0.67442 0.0
H1392 H 0.68301 0.45195 0.59189 0.0
H1393 H 0.63904 0.54984 0.91299 0.0
H1394 H 0.50954 0.12829 0.16989 0.0
H1395 H 0.49058 0.1288 0.11128 0.0
H1396 H 0.53139 0.16804 0.06125 0.0
H1397 H 0.5509 0.16687 0.11919 0.0
H1398 H 0.48842 0.17632 0.05202 0.0
H1399 H 0.53767 0.12683 0.0363 0.0
H1400 H 0.55498 0.09786 0.05792 0.0
H1401 H 0.50207 0.06592 0.05814 0.0
H1402 H 0.48439 0.09484 0.03715 0.0
H1403 H 0.4625 0.17194 0.85996 0.0
H1404 H 0.47983 0.17263 0.9201 0.0
H1405 H 0.45463 0.11795 0.9507 0.0
H1406 H 0.43832 0.11666 0.88927 0.0
H1407 H 0.48888 0.11739 0.97248 0.0
H1408 H 0.43894 0.16375 0.9877 0.0
H1409 H 0.4189 0.19192 0.97184 0.0
H1410 H 0.46851 0.22861 0.97871 0.0
H1411 H 0.4889 0.20061 0.99413 0.0
C1412 C 0.5145 0.13691 0.14626 0.0
C1413 C 0.53182 0.14725 0.14861 0.0
C1414 C 0.50361 0.13732 0.11307 0.0
C1415 C 0.50972 0.14837 0.08212 0.0
C1416 C 0.5265 0.15946 0.08501 0.0
C1417 C 0.53758 0.15879 0.118 0.0
C1418 C 0.49916 0.14747 0.04597 0.0
C1419 C 0.48863 0.16357 0.03426 0.0
C1420 C 0.49897 0.13053 0.02387 0.0
C1421 C 0.50969 0.11304 0.03551 0.0
C1422 C 0.52971 0.11367 0.04123 0.0
C1423 C 0.53959 0.09726 0.05334 0.0
C1424 C 0.52962 0.08007 0.0595 0.0
C1425 C 0.50976 0.07925 0.0534 0.0
C1426 C 0.49981 0.09564 0.04138 0.0
C1427 C 0.46071 0.16007 0.87956 0.0
C1428 C 0.44903 0.14429 0.8702 0.0
C1429 C 0.47049 0.16053 0.91406 0.0
C1430 C 0.46817 0.14558 0.9405 0.0
C1431 C 0.45662 0.1297 0.9309 0.0
C1432 C 0.44729 0.12897 0.89587 0.0
C1433 C 0.47802 0.14639 0.97783 0.0
C1434 C 0.48848 0.13022 0.98998 0.0
C1435 C 0.4777 0.16314 0.00084 0.0
C1436 C 0.46548 0.18004 0.99173 0.0
C1437 C 0.4456 0.1778 0.98558 0.0
C1438 C 0.43418 0.19374 0.9767 0.0
C1439 C 0.44244 0.21203 0.97417 0.0
C1440 C 0.46214 0.21443 0.98063 0.0
C1441 C 0.47363 0.19853 0.98948 0.0
H1442 H 0.43357 0.22435 0.96729 0.0
H1443 H 0.53729 0.06738 0.06891 0.0
H1444 H 0.83639 0.01934 0.39371 0.0
H1445 H 0.83659 0.00115 0.3345 0.0
H1446 H 0.89153 0.02618 0.30539 0.0
H1447 H 0.89055 0.04555 0.36324 0.0
H1448 H 0.87071 0.02627 0.24638 0.0
H1449 H 0.88598 0.97811 0.33714 0.0
H1450 H 0.88247 0.95886 0.3954 0.0
H1451 H 0.82782 0.93782 0.35644 0.0
H1452 H 0.83087 0.95718 0.29815 0.0
H1453 H 0.88919 0.95937 0.09768 0.0
H1454 H 0.89087 0.97662 0.15783 0.0
H1455 H 0.8314 0.96283 0.18001 0.0
H1456 H 0.82953 0.94544 0.1198 0.0
H1457 H 0.85607 0.95641 0.24217 0.0
H1458 H 0.84274 0.00667 0.14997 0.0
H1459 H 0.84949 0.02474 0.0913 0.0
H1460 H 0.90527 0.04022 0.13394 0.0
H1461 H 0.89892 0.02206 0.1927 0.0
C1462 C 0.84837 0.02112 0.37439 0.0
C1463 C 0.86335 0.03398 0.38276 0.0
C1464 C 0.84864 0.01049 0.34085 0.0
C1465 C 0.86422 0.01205 0.31564 0.0
C1466 C 0.87936 0.0247 0.32435 0.0
C1467 C 0.87888 0.03563 0.35753 0.0
C1468 C 0.86441 0.00098 0.27965 0.0
C1469 C 0.8678 0.01093 0.24564 0.0
C1470 C 0.86045 0.98098 0.27845 0.0
C1471 C 0.85858 0.96924 0.31341 0.0
C1472 C 0.87314 0.96949 0.34111 0.0
C1473 C 0.87125 0.95854 0.37413 0.0
C1474 C 0.85491 0.94716 0.37966 0.0
C1475 C 0.84046 0.94666 0.35213 0.0
C1476 C 0.84227 0.95761 0.31908 0.0
C1477 C 0.87643 0.96 0.11526 0.0
C1478 C 0.85919 0.95107 0.10387 0.0
C1479 C 0.87743 0.9699 0.14961 0.0
C1480 C 0.86123 0.97106 0.17317 0.0
C1481 C 0.84405 0.96206 0.16212 0.0
C1482 C 0.84299 0.95223 0.12765 0.0
C1483 C 0.86217 0.98177 0.20932 0.0
C1484 C 0.85902 0.97173 0.24322 0.0
C1485 C 0.86681 0.00157 0.21052 0.0
C1486 C 0.87042 0.01287 0.17558 0.0
C1487 C 0.85648 0.01385 0.14674 0.0
C1488 C 0.86023 0.02412 0.11349 0.0
C1489 C 0.87782 0.03359 0.10886 0.0
C1490 C 0.89165 0.03289 0.13757 0.0
C1491 C 0.88797 0.02263 0.17086 0.0
H1492 H 0.88071 0.04149 0.08306 0.0
H1493 H 0.85347 0.93869 0.40524 0.0
H1494 H 0.05157 0.32767 0.37829 0.0
H1495 H 0.03157 0.32725 0.43502 0.0
H1496 H 0.00701 0.38203 0.40339 0.0
H1497 H 0.02761 0.3829 0.34727 0.0
H1498 H 0.01494 0.38264 0.47449 0.0
H1499 H 0.98177 0.33838 0.39489 0.0
H1500 H 0.97766 0.31053 0.35236 0.0
H1501 H 0.99601 0.27244 0.44109 0.0
H1502 H 0.00051 0.3001 0.48402 0.0
H1503 H 0.93971 0.37575 0.61214 0.0
H1504 H 0.95609 0.3763 0.55053 0.0
H1505 H 0.99274 0.32966 0.58665 0.0
H1506 H 0.97678 0.32948 0.64866 0.0
H1507 H 0.97634 0.32558 0.51158 0.0
H1508 H 0.01049 0.37177 0.58959 0.0
H1509 H 0.01228 0.40022 0.63121 0.0
H1510 H 0.98907 0.43556 0.54245 0.0
H1511 H 0.98682 0.40722 0.5005 0.0
C1512 C 0.04184 0.33958 0.38329 0.0
C1513 C 0.04114 0.35531 0.35829 0.0
C1514 C 0.03032 0.33928 0.41564 0.0
C1515 C 0.01753 0.35446 0.42317 0.0
C1516 C 0.01674 0.37014 0.39814 0.0
C1517 C 0.0285 0.37061 0.36606 0.0
C1518 C 0.00553 0.35426 0.45792 0.0
C1519 C 0.00625 0.37027 0.48218 0.0
C1520 C 0.99434 0.33805 0.46831 0.0
C1521 C 0.99164 0.32135 0.44257 0.0
C1522 C 0.98508 0.32409 0.40525 0.0
C1523 C 0.98266 0.30833 0.38108 0.0
C1524 C 0.98662 0.28973 0.39398 0.0
C1525 C 0.99297 0.28686 0.43112 0.0
C1526 C 0.99544 0.30257 0.4554 0.0
C1527 C 0.95126 0.36564 0.60677 0.0
C1528 C 0.95693 0.35245 0.63474 0.0
C1529 C 0.96053 0.36593 0.57171 0.0
C1530 C 0.97555 0.35299 0.56421 0.0
C1531 C 0.98106 0.33963 0.59194 0.0
C1532 C 0.97193 0.33949 0.62716 0.0
C1533 C 0.98599 0.3538 0.52787 0.0
C1534 C 0.98495 0.33794 0.50348 0.0
C1535 C 0.99662 0.37024 0.51706 0.0
C1536 C 0.9983 0.38734 0.54205 0.0
C1537 C 0.00563 0.38558 0.57904 0.0
C1538 C 0.00674 0.40168 0.60268 0.0
C1539 C 0.00074 0.41968 0.58952 0.0
C1540 C 0.99368 0.42161 0.55263 0.0
C1541 C 0.99249 0.40553 0.52891 0.0
H1542 H 0.00161 0.43213 0.60787 0.0
H1543 H 0.98473 0.27755 0.37523 0.0
H1544 H 0.3178 0.55919 0.13405 0.0
H1545 H 0.31532 0.54255 0.19504 0.0
H1546 H 0.36565 0.50895 0.16745 0.0
H1547 H 0.36859 0.5259 0.10726 0.0
H1548 H 0.31072 0.50677 0.21877 0.0
H1549 H 0.3935 0.50308 0.24284 0.0
H1550 H 0.42253 0.52165 0.226 0.0
H1551 H 0.38842 0.57283 0.21409 0.0
H1552 H 0.35924 0.55464 0.23138 0.0
H1553 H 0.33379 0.43893 0.36139 0.0
H1554 H 0.33002 0.45837 0.30393 0.0
H1555 H 0.35301 0.50773 0.36311 0.0
H1556 H 0.3577 0.48792 0.41978 0.0
H1557 H 0.36914 0.5059 0.29966 0.0
H1558 H 0.30369 0.50275 0.33808 0.0
H1559 H 0.27353 0.48732 0.35888 0.0
H1560 H 0.27042 0.45615 0.25401 0.0
H1561 H 0.30072 0.47117 0.23279 0.0
C1562 C 0.32824 0.54815 0.14092 0.0
C1563 C 0.34356 0.54404 0.11617 0.0
C1564 C 0.32678 0.53864 0.17571 0.0
C1565 C 0.34053 0.52481 0.18608 0.0
C1566 C 0.35516 0.51993 0.16041 0.0
C1567 C 0.3568 0.52959 0.12599 0.0
C1568 C 0.34019 0.51599 0.22427 0.0
C1569 C 0.32344 0.5066 0.2366 0.0
C1570 C 0.35662 0.51631 0.24797 0.0
C1571 C 0.37416 0.52744 0.23809 0.0
C1572 C 0.39221 0.51832 0.23681 0.0
C1573 C 0.40869 0.52877 0.22715 0.0
C1574 C 0.40731 0.54839 0.21888 0.0
C1575 C 0.38946 0.55762 0.22038 0.0
C1576 C 0.37294 0.54723 0.23007 0.0
C1577 C 0.3379 0.45397 0.36191 0.0
C1578 C 0.34615 0.46203 0.39447 0.0
C1579 C 0.33561 0.46511 0.32931 0.0
C1580 C 0.34102 0.48461 0.32926 0.0
C1581 C 0.34879 0.49273 0.36238 0.0
C1582 C 0.35146 0.48147 0.39467 0.0
C1583 C 0.33979 0.49621 0.29406 0.0
C1584 C 0.3563 0.50615 0.28217 0.0
C1585 C 0.32293 0.49691 0.2715 0.0
C1586 C 0.30457 0.488 0.28396 0.0
C1587 C 0.29664 0.49252 0.31954 0.0
C1588 C 0.27951 0.48385 0.3314 0.0
C1589 C 0.27008 0.47073 0.30781 0.0
C1590 C 0.27774 0.4663 0.27226 0.0
C1591 C 0.29488 0.47491 0.26028 0.0
H1592 H 0.25683 0.46403 0.31706 0.0
H1593 H 0.42008 0.55645 0.21136 0.0
H1594 H 0.44871 0.8197 0.37304 0.0
H1595 H 0.46598 0.81505 0.43282 0.0
H1596 H 0.4743 0.8764 0.44214 0.0
H1597 H 0.45741 0.88119 0.38245 0.0
H1598 H 0.50676 0.85771 0.45707 0.0
H1599 H 0.44011 0.85333 0.49396 0.0
H1600 H 0.40713 0.84026 0.49125 0.0
H1601 H 0.42833 0.7843 0.52165 0.0
H1602 H 0.46149 0.79699 0.52399 0.0
H1603 H 0.50894 0.85863 0.67206 0.0
H1604 H 0.49026 0.85547 0.61346 0.0
H1605 H 0.5368 0.82346 0.56262 0.0
H1606 H 0.55562 0.82686 0.62108 0.0
H1607 H 0.47721 0.82538 0.56818 0.0
H1608 H 0.54243 0.84201 0.47289 0.0
H1609 H 0.57419 0.85777 0.47722 0.0
H1610 H 0.55335 0.89416 0.56661 0.0
H1611 H 0.52141 0.87885 0.56236 0.0
C1612 C 0.4542 0.8322 0.38785 0.0
C1613 C 0.45168 0.85082 0.37296 0.0
C1614 C 0.46401 0.82951 0.42202 0.0
C1615 C 0.47132 0.8454 0.44194 0.0
C1616 C 0.46883 0.86395 0.42711 0.0
C1617 C 0.45911 0.86665 0.39301 0.0
C1618 C 0.48171 0.84288 0.47818 0.0
C1619 C 0.50034 0.85051 0.48125 0.0
C1620 C 0.47324 0.83366 0.50981 0.0
C1621 C 0.4533 0.82606 0.50875 0.0
C1622 C 0.43775 0.83821 0.49979 0.0
C1623 C 0.41903 0.83088 0.49836 0.0
C1624 C 0.41565 0.81145 0.50617 0.0
C1625 C 0.43098 0.79934 0.51554 0.0
C1626 C 0.44974 0.80659 0.51695 0.0
C1627 C 0.51505 0.8508 0.6484 0.0
C1628 C 0.53375 0.84325 0.65056 0.0
C1629 C 0.50434 0.84883 0.61519 0.0
C1630 C 0.51225 0.83939 0.58372 0.0
C1631 C 0.53053 0.8309 0.5866 0.0
C1632 C 0.54122 0.83283 0.61987 0.0
C1633 C 0.5022 0.84019 0.54687 0.0
C1634 C 0.48369 0.83228 0.54373 0.0
C1635 C 0.51058 0.84952 0.51532 0.0
C1636 C 0.52962 0.8591 0.5176 0.0
C1637 C 0.54462 0.85342 0.49336 0.0
C1638 C 0.56265 0.86228 0.4958 0.0
C1639 C 0.56581 0.87691 0.52227 0.0
C1640 C 0.55091 0.88278 0.54622 0.0
C1641 C 0.53285 0.87401 0.54382 0.0
H1642 H 0.57978 0.88372 0.52415 0.0
H1643 H 0.40114 0.8058 0.50503 0.0
H1644 H 0.17561 0.94166 0.64198 0.0
H1645 H 0.17542 0.9579 0.70356 0.0
H1646 H 0.11988 0.98248 0.67778 0.0
H1647 H 0.11969 0.96588 0.61699 0.0
H1648 H 0.17465 0.99382 0.72522 0.0
H1649 H 0.09258 0.98574 0.75515 0.0
H1650 H 0.06634 0.96287 0.74131 0.0
H1651 H 0.10744 0.91716 0.72877 0.0
H1652 H 0.13389 0.93968 0.74309 0.0
H1653 H 0.14663 0.06001 0.86506 0.0
H1654 H 0.14871 0.04048 0.80735 0.0
H1655 H 0.13673 0.98936 0.87288 0.0
H1656 H 0.13395 0.00909 0.9303 0.0
H1657 H 0.11798 0.98764 0.80996 0.0
H1658 H 0.18283 0.00109 0.84345 0.0
H1659 H 0.21048 0.02138 0.86137 0.0
H1660 H 0.20721 0.05074 0.75451 0.0
H1661 H 0.17929 0.03086 0.7362 0.0
C1662 C 0.16338 0.95055 0.64947 0.0
C1663 C 0.14757 0.95233 0.62484 0.0
C1664 C 0.1633 0.95983 0.6846 0.0
C1665 C 0.14748 0.9711 0.69553 0.0
C1666 C 0.13203 0.97345 0.67035 0.0
C1667 C 0.13198 0.96401 0.63553 0.0
C1668 C 0.14698 0.98042 0.73325 0.0
C1669 C 0.1623 0.99243 0.74384 0.0
C1670 C 0.13109 0.97818 0.75797 0.0
C1671 C 0.11523 0.96445 0.74988 0.0
C1672 C 0.09601 0.97079 0.74963 0.0
C1673 C 0.0811 0.95789 0.74167 0.0
C1674 C 0.08523 0.93859 0.73406 0.0
C1675 C 0.10427 0.93213 0.73454 0.0
C1676 C 0.11923 0.94496 0.74254 0.0
C1677 C 0.1443 0.04461 0.86683 0.0
C1678 C 0.14005 0.03592 0.90163 0.0
C1679 C 0.14563 0.03347 0.83408 0.0
C1680 C 0.14321 0.01341 0.83594 0.0
C1681 C 0.13867 0.00479 0.87081 0.0
C1682 C 0.13707 0.016 0.90348 0.0
C1683 C 0.1454 0.00146 0.80147 0.0
C1684 C 0.13039 0.98895 0.7915 0.0
C1685 C 0.16186 0.00278 0.77794 0.0
C1686 C 0.17886 0.01456 0.78857 0.0
C1687 C 0.18793 0.01195 0.82385 0.0
C1688 C 0.20365 0.02338 0.83408 0.0
C1689 C 0.21058 0.03736 0.80912 0.0
C1690 C 0.20182 0.03991 0.77382 0.0
C1691 C 0.18605 0.02855 0.76349 0.0
H1692 H 0.22275 0.0462 0.8171 0.0
H1693 H 0.07367 0.92863 0.72785 0.0
H1694 H 0.98233 0.67919 0.1699 0.0
H1695 H 0.00158 0.68171 0.11169 0.0
H1696 H 0.97348 0.63122 0.06717 0.0
H1697 H 0.95339 0.62933 0.12415 0.0
H1698 H 0.01977 0.63533 0.07433 0.0
H1699 H 0.9594 0.661 0.02515 0.0
H1700 H 0.93199 0.68348 0.02251 0.0
H1701 H 0.97093 0.73108 0.01084 0.0
H1702 H 0.99862 0.70889 0.01441 0.0
H1703 H 0.04412 0.61951 0.88451 0.0
H1704 H 0.02857 0.62346 0.94575 0.0
H1705 H 0.04364 0.6837 0.94621 0.0
H1706 H 0.05908 0.67998 0.88427 0.0
H1707 H 0.0066 0.67839 0.96519 0.0
H1708 H 0.06673 0.65275 0.00475 0.0
H1709 H 0.09439 0.63053 0.0049 0.0
H1710 H 0.05709 0.5836 0.03441 0.0
H1711 H 0.02914 0.60548 0.03388 0.0
C1712 C 0.97994 0.66897 0.14721 0.0
C1713 C 0.96624 0.65423 0.1511 0.0
C1714 C 0.99099 0.67034 0.11425 0.0
C1715 C 0.98873 0.65674 0.08529 0.0
C1716 C 0.97524 0.6419 0.08927 0.0
C1717 C 0.96389 0.6408 0.12176 0.0
C1718 C 0.0012 0.65725 0.05163 0.0
C1719 C 0.01691 0.64465 0.05031 0.0
C1720 C 0.99768 0.66991 0.02113 0.0
C1721 C 0.98109 0.68332 0.02082 0.0
C1722 C 0.96214 0.67629 0.02287 0.0
C1723 C 0.94655 0.68897 0.02097 0.0
C1724 C 0.94972 0.70869 0.01655 0.0
C1725 C 0.9685 0.7158 0.01429 0.0
C1726 C 0.98415 0.70318 0.01637 0.0
C1727 C 0.04428 0.63361 0.89762 0.0
C1728 C 0.05286 0.64944 0.87945 0.0
C1729 C 0.03546 0.6358 0.9328 0.0
C1730 C 0.03519 0.65381 0.95073 0.0
C1731 C 0.04379 0.66966 0.93285 0.0
C1732 C 0.05262 0.66749 0.89752 0.0
C1733 C 0.02503 0.65609 0.98728 0.0
C1734 C 0.00975 0.66926 0.98935 0.0
C1735 C 0.02902 0.64399 0.01858 0.0
C1736 C 0.0458 0.63076 0.01901 0.0
C1737 C 0.06439 0.63767 0.01099 0.0
C1738 C 0.08013 0.62513 0.01119 0.0
C1739 C 0.07749 0.60566 0.01959 0.0
C1740 C 0.05911 0.59869 0.02789 0.0
C1741 C 0.04331 0.61116 0.02769 0.0
H1742 H 0.0897 0.59598 0.01974 0.0
H1743 H 0.93763 0.71846 0.01473 0.0
H1744 H 0.10145 0.24385 0.26363 0.0
H1745 H 0.11102 0.21748 0.22173 0.0
H1746 H 0.11038 0.25626 0.12625 0.0
H1747 H 0.1001 0.28242 0.16766 0.0
H1748 H 0.09214 0.22419 0.1094 0.0
H1749 H 0.15304 0.23999 0.16235 0.0
H1750 H 0.1765 0.2471 0.21289 0.0
H1751 H 0.16838 0.19054 0.25923 0.0
H1752 H 0.14466 0.18318 0.20927 0.0
H1753 H 0.15905 0.1392 0.04001 0.0
H1754 H 0.15423 0.17164 0.06494 0.0
H1755 H 0.09556 0.15736 0.09346 0.0
H1756 H 0.10012 0.12504 0.06806 0.0
H1757 H 0.14718 0.18072 0.13566 0.0
H1758 H 0.06771 0.19725 0.09351 0.0
H1759 H 0.04579 0.19179 0.03961 0.0
H1760 H 0.09414 0.18665 0.96454 0.0
H1761 H 0.11635 0.19237 0.01785 0.0
C1762 C 0.10359 0.24678 0.23378 0.0
C1763 C 0.10055 0.26532 0.21915 0.0
C1764 C 0.10914 0.23175 0.2099 0.0
C1765 C 0.11172 0.23499 0.17096 0.0
C1766 C 0.10868 0.2535 0.15628 0.0
C1767 C 0.1031 0.26853 0.18014 0.0
C1768 C 0.11661 0.21881 0.14537 0.0
C1769 C 0.10423 0.21473 0.11496 0.0
C1770 C 0.13265 0.20676 0.15213 0.0
C1771 C 0.14697 0.21109 0.18218 0.0
C1772 C 0.15615 0.22912 0.18347 0.0
C1773 C 0.16951 0.23318 0.21199 0.0
C1774 C 0.1739 0.2193 0.23929 0.0
C1775 C 0.16496 0.20129 0.23807 0.0
C1776 C 0.15158 0.19715 0.20962 0.0
C1777 C 0.14501 0.14305 0.05101 0.0
C1778 C 0.13 0.12946 0.05229 0.0
C1779 C 0.14231 0.16159 0.06531 0.0
C1780 C 0.12454 0.16694 0.081 0.0
C1781 C 0.10932 0.15366 0.08099 0.0
C1782 C 0.11198 0.13513 0.06658 0.0
C1783 C 0.12237 0.18575 0.10033 0.0
C1784 C 0.13522 0.1903 0.12971 0.0
C1785 C 0.10698 0.19843 0.09213 0.0
C1786 C 0.09371 0.19508 0.0598 0.0
C1787 C 0.07367 0.19504 0.06548 0.0
C1788 C 0.06119 0.19189 0.03503 0.0
C1789 C 0.06857 0.18882 -0.0013 0.0
C1790 C 0.08845 0.18896 0.99273 0.0
C1791 C 0.10099 0.19212 0.02307 0.0
H1792 H 0.05888 0.18638 0.97516 0.0
H1793 H 0.18425 0.22247 0.26135 0.0
H1794 H 0.87635 0.60331 0.31241 0.0
H1795 H 0.84357 0.59814 0.33498 0.0
H1796 H 0.82621 0.65243 0.28633 0.0
H1797 H 0.85914 0.65798 0.26479 0.0
H1798 H 0.81587 0.65155 0.35589 0.0
H1799 H 0.80861 0.60808 0.25301 0.0
H1800 H 0.8171 0.5813 0.21032 0.0
H1801 H 0.81464 0.54171 0.3036 0.0
H1802 H 0.80639 0.56828 0.34697 0.0
H1803 H 0.71861 0.60091 0.41071 0.0
H1804 H 0.74312 0.60965 0.36398 0.0
H1805 H 0.78372 0.62013 0.45416 0.0
H1806 H 0.75919 0.61159 0.50101 0.0
H1807 H 0.77748 0.59139 0.35224 0.0
H1808 H 0.81309 0.6567 0.42834 0.0
H1809 H 0.80324 0.68427 0.46788 0.0
H1810 H 0.74636 0.6819 0.42055 0.0
H1811 H 0.75592 0.65452 0.38032 0.0
C1812 C 0.86545 0.61392 0.30569 0.0
C1813 C 0.87036 0.63114 0.28719 0.0
C1814 C 0.84666 0.61092 0.3185 0.0
C1815 C 0.83237 0.62489 0.31232 0.0
C1816 C 0.837 0.64151 0.29162 0.0
C1817 C 0.85582 0.64463 0.27927 0.0
C1818 C 0.81338 0.62323 0.33128 0.0
C1819 C 0.80739 0.63845 0.3547 0.0
C1820 C 0.80209 0.6063 0.32931 0.0
C1821 C 0.80697 0.59023 0.30329 0.0
C1822 C 0.81 0.59369 0.26448 0.0
C1823 C 0.81475 0.57854 0.24015 0.0
C1824 C 0.81643 0.55982 0.25425 0.0
C1825 C 0.81333 0.55622 0.29271 0.0
C1826 C 0.80858 0.57132 0.31717 0.0
C1827 C 0.73257 0.60567 0.42061 0.0
C1828 C 0.73692 0.60601 0.45951 0.0
C1829 C 0.74661 0.61041 0.39386 0.0
C1830 C 0.76515 0.61568 0.40565 0.0
C1831 C 0.7694 0.61636 0.44452 0.0
C1832 C 0.75543 0.61147 0.47121 0.0
C1833 C 0.7805 0.61943 0.37755 0.0
C1834 C 0.78582 0.60459 0.35268 0.0
C1835 C 0.79102 0.63683 0.37764 0.0
C1836 C 0.7852 0.65345 0.4015 0.0
C1837 C 0.79851 0.66212 0.42622 0.0
C1838 C 0.79297 0.67771 0.44879 0.0
C1839 C 0.77418 0.6848 0.4468 0.0
C1840 C 0.76089 0.67635 0.42216 0.0
C1841 C 0.76636 0.66078 0.39951 0.0
H1842 H 0.76992 0.69686 0.4643 0.0
H1843 H 0.82012 0.54812 0.23537 0.0
H1844 H 0.34575 0.35889 0.53548 0.0
H1845 H 0.35295 0.32778 0.56422 0.0
H1846 H 0.41144 0.34589 0.58439 0.0
H1847 H 0.40445 0.37707 0.55522 0.0
H1848 H 0.40901 0.30723 0.56514 0.0
H1849 H 0.37919 0.35137 0.65266 0.0
H1850 H 0.35408 0.37399 0.67395 0.0
H1851 H 0.31167 0.3292 0.66654 0.0
H1852 H 0.33651 0.30637 0.64463 0.0
H1853 H 0.43376 0.25058 0.72451 0.0
H1854 H 0.42652 0.27698 0.68105 0.0
H1855 H 0.36865 0.25557 0.66757 0.0
H1856 H 0.37569 0.22932 0.71179 0.0
H1857 H 0.3697 0.29429 0.67982 0.0
H1858 H 0.40062 0.24918 0.59795 0.0
H1859 H 0.42618 0.22675 0.57807 0.0
H1860 H 0.46694 0.27319 0.5759 0.0
H1861 H 0.44168 0.29586 0.59642 0.0
C1862 C 0.36026 0.35618 0.54539 0.0
C1863 C 0.37445 0.37059 0.54363 0.0
C1864 C 0.36433 0.33838 0.56183 0.0
C1865 C 0.3826 0.33471 0.5771 0.0
C1866 C 0.39721 0.34849 0.57291 0.0
C1867 C 0.39318 0.36632 0.55629 0.0
C1868 C 0.3859 0.31734 0.60057 0.0
C1869 C 0.40053 0.30444 0.59036 0.0
C1870 C 0.37458 0.31357 0.6331 0.0
C1871 C 0.35966 0.32722 0.64662 0.0
C1872 C 0.36448 0.34638 0.6553 0.0
C1873 C 0.3503 0.35924 0.66751 0.0
C1874 C 0.33128 0.35305 0.67149 0.0
C1875 C 0.3264 0.33398 0.66338 0.0
C1876 C 0.34053 0.32107 0.65108 0.0
C1877 C 0.41948 0.25151 0.71232 0.0
C1878 C 0.40537 0.23771 0.72104 0.0
C1879 C 0.41542 0.26649 0.68726 0.0
C1880 C 0.39716 0.26801 0.67057 0.0
C1881 C 0.3829 0.25449 0.67982 0.0
C1882 C 0.38699 0.23942 0.7048 0.0
C1883 C 0.39284 0.28414 0.64451 0.0
C1884 C 0.37805 0.29691 0.65435 0.0
C1885 C 0.40407 0.28777 0.61179 0.0
C1886 C 0.41927 0.27421 0.59904 0.0
C1887 C 0.41506 0.2546 0.59352 0.0
C1888 C 0.4295 0.24184 0.58209 0.0
C1889 C 0.44818 0.24853 0.57579 0.0
C1890 C 0.45246 0.26802 0.58082 0.0
C1891 C 0.43808 0.28084 0.59232 0.0
H1892 H 0.45934 0.23863 0.56696 0.0
H1893 H 0.32032 0.36303 0.68095 0.0
H1894 H 0.64196 0.84571 0.77101 0.0
H1895 H 0.67372 0.85284 0.79722 0.0
H1896 H 0.65429 0.90954 0.82917 0.0
H1897 H 0.62271 0.90277 0.80196 0.0
H1898 H 0.69122 0.91085 0.81099 0.0
H1899 H 0.65111 0.87157 0.89101 0.0
H1900 H 0.63084 0.84344 0.90603 0.0
H1901 H 0.67861 0.80573 0.88487 0.0
H1902 H 0.69909 0.83365 0.86921 0.0
H1903 H 0.74429 0.90022 0.00291 0.0
H1904 H 0.71693 0.89317 0.9615 0.0
H1905 H 0.75401 0.89694 0.86374 0.0
H1906 H 0.78116 0.90476 0.90476 0.0
H1907 H 0.70904 0.86499 0.91301 0.0
H1908 H 0.72871 0.9171 0.79102 0.0
H1909 H 0.74671 0.94738 0.78176 0.0
H1910 H 0.73588 0.96331 0.89736 0.0
H1911 H 0.71762 0.93328 0.90715 0.0
C1912 C 0.64459 0.85987 0.7828 0.0
C1913 C 0.62972 0.87356 0.785 0.0
C1914 C 0.66273 0.8639 0.79786 0.0
C1915 C 0.6662 0.88153 0.81606 0.0
C1916 C 0.6519 0.89579 0.81547 0.0
C1917 C 0.63382 0.89187 0.79993 0.0
C1918 C 0.6838 0.88438 0.83921 0.0
C1919 C 0.69522 0.90074 0.83305 0.0
C1920 C 0.68876 0.87145 0.86869 0.0
C1921 C 0.67656 0.85467 0.87858 0.0
C1922 C 0.65725 0.85727 0.88936 0.0
C1923 C 0.64573 0.84137 0.898 0.0
C1924 C 0.65342 0.82281 0.89631 0.0
C1925 C 0.67267 0.82011 0.8861 0.0
C1926 C 0.68424 0.83597 0.87736 0.0
C1927 C 0.74661 0.89939 0.9726 0.0
C1928 C 0.76496 0.90263 0.9572 0.0
C1929 C 0.73101 0.8953 0.949 0.0
C1930 C 0.73342 0.89459 0.90954 0.0
C1931 C 0.75181 0.8975 0.89411 0.0
C1932 C 0.76741 0.90164 0.9177 0.0
C1933 C 0.71655 0.89137 0.88461 0.0
C1934 C 0.70523 0.87495 0.89055 0.0
C1935 C 0.71138 0.90455 0.85574 0.0
C1936 C 0.722 0.92284 0.84989 0.0
C1937 C 0.73012 0.9271 0.8144 0.0
C1938 C 0.74037 0.94422 0.80907 0.0
C1939 C 0.74249 0.95721 0.839 0.0
C1940 C 0.73429 0.95319 0.87426 0.0
C1941 C 0.72401 0.93612 0.87971 0.0
H1942 H 0.75044 0.97043 0.83488 0.0
H1943 H 0.64448 0.81051 0.90298 0.0
H1944 H 0.9299 0.25026 0.6925 0.0
H1945 H 0.91886 0.22606 0.64761 0.0
H1946 H 0.86047 0.24613 0.6606 0.0
H1947 H 0.87143 0.27019 0.70674 0.0
H1948 H 0.86281 0.20724 0.66363 0.0
H1949 H 0.88459 0.25596 0.57988 0.0
H1950 H 0.90681 0.2805 0.55477 0.0
H1951 H 0.94913 0.23688 0.53281 0.0
H1952 H 0.9273 0.21209 0.55837 0.0
H1953 H 0.83802 0.13802 0.5249 0.0
H1954 H 0.84179 0.17035 0.55118 0.0
H1955 H 0.90317 0.16181 0.55834 0.0
H1956 H 0.89962 0.12959 0.53179 0.0
H1957 H 0.89412 0.19885 0.53829 0.0
H1958 H 0.8748 0.15205 0.6334 0.0
H1959 H 0.85327 0.12733 0.66023 0.0
H1960 H 0.80659 0.16783 0.66124 0.0
H1961 H 0.8278 0.19273 0.63391 0.0
C1962 C 0.91469 0.24956 0.68588 0.0
C1963 C 0.90157 0.26234 0.70275 0.0
C1964 C 0.90843 0.23583 0.65988 0.0
C1965 C 0.88891 0.23458 0.65008 0.0
C1966 C 0.87565 0.24707 0.66736 0.0
C1967 C 0.88195 0.2609 0.69346 0.0
C1968 C 0.8825 0.2195 0.62315 0.0
C1969 C 0.86927 0.20568 0.63581 0.0
C1970 C 0.89116 0.21733 0.58707 0.0
C1971 C 0.90431 0.23216 0.57125 0.0
C1972 C 0.89868 0.2516 0.56992 0.0
C1973 C 0.91121 0.26556 0.55558 0.0
C1974 C 0.92938 0.26025 0.54224 0.0
C1975 C 0.93505 0.24097 0.54315 0.0
C1976 C 0.92259 0.22695 0.55751 0.0
C1977 C 0.85237 0.14313 0.53137 0.0
C1978 C 0.8685 0.13107 0.52678 0.0
C1979 C 0.85448 0.16161 0.54646 0.0
C1980 C 0.87271 0.16833 0.55732 0.0
C1981 C 0.88895 0.15688 0.55027 0.0
C1982 C 0.88688 0.13841 0.5352 0.0
C1983 C 0.87485 0.18641 0.57925 0.0
C1984 C 0.8873 0.20072 0.56569 0.0
C1985 C 0.8655 0.18906 0.61453 0.0
C1986 C 0.8528 0.17416 0.63119 0.0
C1987 C 0.8599 0.15563 0.63908 0.0
C1988 C 0.84777 0.1416 0.65442 0.0
C1989 C 0.82856 0.14599 0.66232 0.0
C1990 C 0.82146 0.16444 0.65502 0.0
C1991 C 0.83353 0.17852 0.63962 0.0
H1992 H 0.81918 0.13511 0.6742 0.0
H1993 H 0.93906 0.27109 0.53116 0.0
H1994 H 0.85956 0.33458 0.78423 0.0
H1995 H 0.82753 0.3388 0.81145 0.0
H1996 H 0.84131 0.39768 0.83932 0.0
H1997 H 0.87322 0.39372 0.81152 0.0
H1998 H 0.81899 0.3455 0.88224 0.0
H1999 H 0.80127 0.42488 0.84229 0.0
H2000 H 0.80613 0.44714 0.78869 0.0
H2001 H 0.81073 0.39923 0.71236 0.0
H2002 H 0.80564 0.3767 0.76538 0.0
H2003 H 0.75686 0.39066 0.013 0.0
H2004 H 0.78262 0.38073 0.97003 0.0
H2005 H 0.74269 0.38132 0.8764 0.0
H2006 H 0.71707 0.39188 0.91898 0.0
H2007 H 0.77449 0.4 0.8584 0.0
H2008 H 0.75994 0.33872 0.91057 0.0
H2009 H 0.75353 0.31486 0.96072 0.0
H2010 H 0.81039 0.32331 0.0054 0.0
H2011 H 0.81705 0.34744 0.95584 0.0
C2012 C 0.85569 0.34854 0.79561 0.0
C2013 C 0.86901 0.3638 0.79586 0.0
C2014 C 0.83737 0.3509 0.81125 0.0
C2015 C 0.83198 0.36855 0.82737 0.0
C2016 C 0.84501 0.384 0.82653 0.0
C2017 C 0.86331 0.38169 0.81071 0.0
C2018 C 0.81334 0.37042 0.8476 0.0
C2019 C 0.8092 0.35735 0.87684 0.0
C2020 C 0.80034 0.38563 0.84007 0.0
C2021 C 0.80322 0.3991 0.80791 0.0
C2022 C 0.80323 0.4191 0.81405 0.0
C2023 C 0.80604 0.43176 0.78376 0.0
C2024 C 0.80879 0.4246 0.74716 0.0
C2025 C 0.80867 0.40476 0.74075 0.0
C2026 C 0.80585 0.39203 0.77092 0.0
C2027 C 0.75352 0.38835 0.98336 0.0
C2028 C 0.73484 0.39158 0.96958 0.0
C2029 C 0.76822 0.38261 0.95886 0.0
C2030 C 0.76452 0.38004 0.92006 0.0
C2031 C 0.74581 0.38305 0.90628 0.0
C2032 C 0.7311 0.38879 0.9308 0.0
C2033 C 0.78049 0.37542 0.89369 0.0
C2034 C 0.78416 0.38801 0.86343 0.0
C2035 C 0.79285 0.35954 0.89976 0.0
C2036 C 0.78894 0.34499 0.92961 0.0
C2037 C 0.77103 0.3356 0.93125 0.0
C2038 C 0.76736 0.32201 0.95955 0.0
C2039 C 0.78153 0.3176 0.98626 0.0
C2040 C 0.79942 0.32675 0.98469 0.0
C2041 C 0.80316 0.34036 0.95646 0.0
H2042 H 0.77866 0.30707 0.00815 0.0
H2043 H 0.81097 0.43443 0.72377 0.0
H2044 H 0.5637 0.24958 0.21622 0.0
H2045 H 0.5722 0.27583 0.17343 0.0
H2046 H 0.62856 0.25106 0.15751 0.0
H2047 H 0.62028 0.22494 0.20119 0.0
H2048 H 0.63016 0.28934 0.17219 0.0
H2049 H 0.59572 0.24844 0.0874 0.0
H2050 H 0.56866 0.22819 0.06613 0.0
H2051 H 0.53088 0.27706 0.07 0.0
H2052 H 0.55766 0.29756 0.09189 0.0
H2053 H 0.65564 0.35775 0.0351 0.0
H2054 H 0.64776 0.32622 0.0612 0.0
H2055 H 0.58979 0.3453 0.08356 0.0
H2056 H 0.59742 0.37685 0.05673 0.0
H2057 H 0.59053 0.30779 0.0609 0.0
H2058 H 0.62357 0.34748 0.15227 0.0
H2059 H 0.65009 0.36801 0.1752 0.0
H2060 H 0.68993 0.32136 0.1603 0.0
H2061 H 0.66367 0.30064 0.13676 0.0
C2062 C 0.57789 0.24968 0.20353 0.0
C2063 C 0.59122 0.23503 0.2116 0.0
C2064 C 0.58267 0.2646 0.17883 0.0
C2065 C 0.60088 0.2652 0.16176 0.0
C2066 C 0.61433 0.25071 0.17005 0.0
C2067 C 0.60952 0.2357 0.19471 0.0
C2068 C 0.60611 0.28156 0.13687 0.0
C2069 C 0.62174 0.29314 0.14738 0.0
C2070 C 0.59481 0.28675 0.10507 0.0
C2071 C 0.57869 0.27451 0.09157 0.0
C2072 C 0.58162 0.25485 0.08399 0.0
C2073 C 0.56633 0.24333 0.07178 0.0
C2074 C 0.54805 0.25133 0.06678 0.0
C2075 C 0.54504 0.27088 0.0739 0.0
C2076 C 0.56028 0.28246 0.08617 0.0
C2077 C 0.64111 0.35519 0.04501 0.0
C2078 C 0.62723 0.36993 0.04432 0.0
C2079 C 0.63665 0.33715 0.05998 0.0
C2080 C 0.61832 0.33356 0.07504 0.0
C2081 C 0.60406 0.34781 0.07223 0.0
C2082 C 0.60847 0.36585 0.05695 0.0
C2083 C 0.61449 0.3156 0.09643 0.0
C2084 C 0.59909 0.30379 0.08538 0.0
C2085 C 0.62594 0.3102 0.1279 0.0
C2086 C 0.6417 0.32258 0.14238 0.0
C2087 C 0.63801 0.34165 0.15364 0.0
C2088 C 0.65299 0.35331 0.16677 0.0
C2089 C 0.67169 0.34601 0.1691 0.0
C2090 C 0.67544 0.32701 0.15841 0.0
C2091 C 0.66052 0.31529 0.14519 0.0
H2092 H 0.68327 0.35506 0.17927 0.0
H2093 H 0.53623 0.24238 0.05734 0.0
H2094 H 0.6284 0.10052 0.28034 0.0
H2095 H 0.66034 0.0943 0.30619 0.0
H2096 H 0.66899 0.15514 0.32314 0.0
H2097 H 0.63704 0.16161 0.29687 0.0
H2098 H 0.70298 0.13565 0.30175 0.0
H2099 H 0.65278 0.13067 0.39442 0.0
H2100 H 0.62166 0.11948 0.41971 0.0
H2101 H 0.64109 0.06089 0.41358 0.0
H2102 H 0.67224 0.07173 0.38765 0.0
H2103 H 0.77332 0.12148 0.45062 0.0
H2104 H 0.74587 0.13238 0.41264 0.0
H2105 H 0.72954 0.07335 0.39269 0.0
H2106 H 0.75695 0.06239 0.42994 0.0
H2107 H 0.69964 0.09474 0.41686 0.0
H2108 H 0.75003 0.10003 0.32337 0.0
H2109 H 0.78107 0.11159 0.2983 0.0
H2110 H 0.76154 0.17005 0.30731 0.0
H2111 H 0.73046 0.15884 0.33298 0.0
C2112 C 0.6372 0.11265 0.28882 0.0
C2113 C 0.62999 0.13155 0.28716 0.0
C2114 C 0.65547 0.10905 0.30361 0.0
C2115 C 0.66683 0.12423 0.31726 0.0
C2116 C 0.66038 0.14323 0.31291 0.0
C2117 C 0.64208 0.14687 0.29798 0.0
C2118 C 0.68438 0.12002 0.33963 0.0
C2119 C 0.70228 0.1269 0.32717 0.0
C2120 C 0.68341 0.10857 0.37273 0.0
C2121 C 0.66478 0.102 0.38877 0.0
C2122 C 0.65037 0.11539 0.39821 0.0
C2123 C 0.63273 0.10911 0.41269 0.0
C2124 C 0.62938 0.08948 0.41817 0.0
C2125 C 0.6437 0.07609 0.40927 0.0
C2126 C 0.66135 0.0823 0.39471 0.0
C2127 C 0.76417 0.11083 0.4374 0.0
C2128 C 0.76748 0.09106 0.44286 0.0
C2129 C 0.74842 0.11709 0.41588 0.0
C2130 C 0.73575 0.10366 0.39963 0.0
C2131 C 0.73912 0.08395 0.40499 0.0
C2132 C 0.75478 0.07773 0.42636 0.0
C2133 C 0.7184 0.1099 0.37852 0.0
C2134 C 0.70042 0.10351 0.39147 0.0
C2135 C 0.71937 0.12186 0.34609 0.0
C2136 C 0.738 0.12861 0.33049 0.0
C2137 C 0.75241 0.11536 0.32032 0.0
C2138 C 0.77 0.12185 0.30594 0.0
C2139 C 0.77329 0.14155 0.30132 0.0
C2140 C 0.75898 0.1548 0.31097 0.0
C2141 C 0.74137 0.14839 0.32541 0.0
H2142 H 0.78692 0.14654 0.29018 0.0
H2143 H 0.61571 0.08465 0.42937 0.0
H2144 H 0.57325 0.7481 0.73191 0.0
H2145 H 0.58144 0.72101 0.69118 0.0
H2146 H 0.63602 0.74743 0.66492 0.0
H2147 H 0.62782 0.77481 0.70581 0.0
H2148 H 0.61956 0.73143 0.60201 0.0
H2149 H 0.63438 0.71128 0.7276 0.0
H2150 H 0.62885 0.7061 0.79585 0.0
H2151 H 0.58157 0.66843 0.77055 0.0
H2152 H 0.58663 0.67361 0.70212 0.0
H2153 H 0.66067 0.64121 0.53954 0.0
H2154 H 0.65342 0.67222 0.56907 0.0
H2155 H 0.59591 0.6527 0.59423 0.0
H2156 H 0.60296 0.62168 0.5647 0.0
H2157 H 0.61612 0.66585 0.65725 0.0
H2158 H 0.60206 0.68676 0.53012 0.0
H2159 H 0.60899 0.69192 0.46237 0.0
H2160 H 0.6571 0.7278 0.4914 0.0
H2161 H 0.65062 0.72263 0.55937 0.0
C2162 C 0.58702 0.74817 0.71751 0.0
C2163 C 0.59987 0.76361 0.72198 0.0
C2164 C 0.59167 0.73268 0.69421 0.0
C2165 C 0.60944 0.73209 0.67539 0.0
C2166 C 0.62221 0.74764 0.67915 0.0
C2167 C 0.61748 0.76329 0.7024 0.0
C2168 C 0.61465 0.71489 0.65273 0.0
C2169 C 0.61911 0.7171 0.61417 0.0
C2170 C 0.61386 0.69619 0.66856 0.0
C2171 C 0.61079 0.69297 0.70972 0.0
C2172 C 0.62271 0.70201 0.73659 0.0
C2173 C 0.61967 0.69905 0.77531 0.0
C2174 C 0.60484 0.68698 0.78753 0.0
C2175 C 0.59304 0.6778 0.76104 0.0
C2176 C 0.596 0.68072 0.72228 0.0
C2177 C 0.64636 0.64362 0.55076 0.0
C2178 C 0.63244 0.62889 0.55007 0.0
C2179 C 0.64223 0.66138 0.56749 0.0
C2180 C 0.62415 0.6647 0.58389 0.0
C2181 C 0.60997 0.65037 0.58176 0.0
C2182 C 0.61401 0.63267 0.56475 0.0
C2183 C 0.62059 0.68233 0.60636 0.0
C2184 C 0.61659 0.68018 0.64506 0.0
C2185 C 0.62206 0.70102 0.5907 0.0
C2186 C 0.62598 0.70413 0.54985 0.0
C2187 C 0.61423 0.6956 0.52207 0.0
C2188 C 0.61805 0.69856 0.48362 0.0
C2189 C 0.63351 0.71014 0.47258 0.0
C2190 C 0.64515 0.71882 0.49998 0.0
C2191 C 0.6414 0.71589 0.53848 0.0
H2192 H 0.63644 0.71242 0.4428 0.0
H2193 H 0.60252 0.6847 0.81752 0.0
H2194 H 0.36434 0.10339 0.78803 0.0
H2195 H 0.33158 0.09925 0.81118 0.0
H2196 H 0.32405 0.16087 0.81403 0.0
H2197 H 0.35701 0.16519 0.79141 0.0
H2198 H 0.31415 0.14568 0.87934 0.0
H2199 H 0.29845 0.13272 0.75125 0.0
H2200 H 0.30147 0.11809 0.68791 0.0
H2201 H 0.29244 0.06199 0.73572 0.0
H2202 H 0.28965 0.07624 0.79946 0.0
H2203 H 0.22032 0.12705 0.95443 0.0
H2204 H 0.24467 0.13868 0.9096 0.0
H2205 H 0.26734 0.08111 0.89945 0.0
H2206 H 0.24294 0.0694 0.94349 0.0
H2207 H 0.26563 0.09955 0.83052 0.0
H2208 H 0.28775 0.11269 0.95886 0.0
H2209 H 0.28509 0.12728 0.02237 0.0
H2210 H 0.28196 0.18355 0.97241 0.0
H2211 H 0.28436 0.16924 0.90855 0.0
C2212 C 0.35564 0.11609 0.79289 0.0
C2213 C 0.3634 0.13463 0.78814 0.0
C2214 C 0.33683 0.11369 0.80595 0.0
C2215 C 0.32528 0.12976 0.81414 0.0
C2216 C 0.33269 0.14828 0.80789 0.0
C2217 C 0.35155 0.1507 0.79491 0.0
C2218 C 0.30633 0.12711 0.83285 0.0
C2219 C 0.30332 0.13597 0.86812 0.0
C2220 C 0.29229 0.11425 0.81855 0.0
C2221 C 0.29396 0.10557 0.78023 0.0
C2222 C 0.29726 0.11725 0.74833 0.0
C2223 C 0.2989 0.10902 0.71233 0.0
C2224 C 0.29718 0.08912 0.7078 0.0
C2225 C 0.29378 0.07741 0.73927 0.0
C2226 C 0.29213 0.08556 0.77534 0.0
C2227 C 0.23023 0.11683 0.942 0.0
C2228 C 0.22967 0.0973 0.95226 0.0
C2229 C 0.24421 0.12351 0.91664 0.0
C2230 C 0.25782 0.11075 0.90129 0.0
C2231 C 0.25692 0.09118 0.91081 0.0
C2232 C 0.24308 0.08455 0.93622 0.0
C2233 C 0.27385 0.1177 0.87721 0.0
C2234 C 0.27628 0.10962 0.84108 0.0
C2235 C 0.28737 0.1313 0.89062 0.0
C2236 C 0.28598 0.13989 0.92897 0.0
C2237 C 0.28633 0.12816 0.96143 0.0
C2238 C 0.2849 0.13638 0.99748 0.0
C2239 C 0.28329 0.15633 0.00142 0.0
C2240 C 0.28316 0.1681 0.96931 0.0
C2241 C 0.28456 0.15995 0.93319 0.0
H2242 H 0.28219 0.16266 0.02935 0.0
H2243 H 0.29846 0.08278 0.6799 0.0
H2244 H 0.83863 0.85653 0.02021 0.0
H2245 H 0.84232 0.82467 0.04878 0.0
H2246 H 0.90227 0.83663 0.07046 0.0
H2247 H 0.89888 0.86808 0.04076 0.0
H2248 H 0.89847 0.80032 0.05435 0.0
H2249 H 0.86564 0.84526 0.13746 0.0
H2250 H 0.83968 0.8678 0.15495 0.0
H2251 H 0.79785 0.82282 0.14138 0.0
H2252 H 0.82357 0.80007 0.12335 0.0
H2253 H 0.92437 0.75423 0.22092 0.0
H2254 H 0.91417 0.77832 0.17514 0.0
H2255 H 0.85961 0.74944 0.1624 0.0
H2256 H 0.86942 0.72558 0.20981 0.0
H2257 H 0.85645 0.7894 0.16606 0.0
H2258 H 0.89327 0.74298 0.09628 0.0
H2259 H 0.92164 0.72202 0.08831 0.0
H2260 H 0.9583 0.77167 0.08259 0.0
H2261 H 0.93023 0.79292 0.09134 0.0
C2262 C 0.85268 0.85221 0.03041 0.0
C2263 C 0.86841 0.86493 0.0287 0.0
C2264 C 0.85475 0.83402 0.04685 0.0
C2265 C 0.87246 0.82844 0.06261 0.0
C2266 C 0.88845 0.84063 0.05863 0.0
C2267 C 0.88647 0.85866 0.04169 0.0
C2268 C 0.87415 0.81081 0.08613 0.0
C2269 C 0.88924 0.79791 0.07868 0.0
C2270 C 0.86191 0.80743 0.1176 0.0
C2271 C 0.84647 0.82105 0.12861 0.0
C2272 C 0.85088 0.84022 0.13797 0.0
C2273 C 0.83622 0.85302 0.14801 0.0
C2274 C 0.81712 0.84676 0.14915 0.0
C2275 C 0.81265 0.82766 0.14039 0.0
C2276 C 0.82726 0.81481 0.13027 0.0
C2277 C 0.91011 0.75303 0.20871 0.0
C2278 C 0.89791 0.73764 0.21825 0.0
C2279 C 0.90437 0.76674 0.18229 0.0
C2280 C 0.88636 0.76533 0.16461 0.0
C2281 C 0.87372 0.75055 0.17528 0.0
C2282 C 0.87944 0.73679 0.20199 0.0
C2283 C 0.88107 0.77935 0.13483 0.0
C2284 C 0.86531 0.79151 0.14109 0.0
C2285 C 0.8929 0.78225 0.10268 0.0
C2286 C 0.90962 0.76955 0.09465 0.0
C2287 C 0.90738 0.74943 0.09331 0.0
C2288 C 0.92341 0.7375 0.08877 0.0
C2289 C 0.94176 0.74552 0.08515 0.0
C2290 C 0.94408 0.76549 0.08549 0.0
C2291 C 0.9281 0.77749 0.09019 0.0
H2292 H 0.95419 0.73627 0.08217 0.0
H2293 H 0.80579 0.85669 0.15693 0.0
H2294 H 0.25387 0.37495 0.50238 0.0
H2295 H 0.22725 0.36814 0.45835 0.0
H2296 H 0.25024 0.4096 0.37949 0.0
H2297 H 0.27704 0.41605 0.42294 0.0
H2298 H 0.20852 0.41329 0.4054 0.0
H2299 H 0.25471 0.3696 0.35022 0.0
H2300 H 0.27847 0.34327 0.3524 0.0
H2301 H 0.23523 0.30471 0.39472 0.0
H2302 H 0.21127 0.33091 0.39337 0.0
H2303 H 0.13415 0.39683 0.272 0.0
H2304 H 0.16618 0.4025 0.29885 0.0
H2305 H 0.1631 0.34803 0.35747 0.0
H2306 H 0.13182 0.34185 0.32906 0.0
H2307 H 0.19732 0.35221 0.33604 0.0
H2308 H 0.1525 0.39395 0.40003 0.0
H2309 H 0.12775 0.41928 0.40498 0.0
H2310 H 0.16656 0.46015 0.35507 0.0
H2311 H 0.19147 0.43498 0.34941 0.0
C2312 C 0.25337 0.38226 0.47528 0.0
C2313 C 0.26756 0.39571 0.46552 0.0
C2314 C 0.23824 0.37841 0.45029 0.0
C2315 C 0.23694 0.38832 0.41573 0.0
C2316 C 0.25115 0.40173 0.40594 0.0
C2317 C 0.26647 0.40528 0.43055 0.0
C2318 C 0.22006 0.38552 0.39096 0.0
C2319 C 0.20615 0.4001 0.38961 0.0
C2320 C 0.21689 0.36808 0.37146 0.0
C2321 C 0.23124 0.35227 0.37203 0.0
C2322 C 0.25031 0.35556 0.36033 0.0
C2323 C 0.26381 0.34065 0.36134 0.0
C2324 C 0.25838 0.32234 0.37378 0.0
C2325 C 0.23942 0.3189 0.38513 0.0
C2326 C 0.22587 0.33378 0.38421 0.0
C2327 C 0.14045 0.38601 0.29031 0.0
C2328 C 0.13045 0.36895 0.29857 0.0
C2329 C 0.1587 0.3893 0.30583 0.0
C2330 C 0.16694 0.37587 0.33089 0.0
C2331 C 0.15713 0.35862 0.33823 0.0
C2332 C 0.13918 0.35512 0.32203 0.0
C2333 C 0.18539 0.3799 0.35076 0.0
C2334 C 0.19966 0.36554 0.35134 0.0
C2335 C 0.18868 0.39739 0.37044 0.0
C2336 C 0.17375 0.41254 0.37387 0.0
C2337 C 0.1557 0.40831 0.38987 0.0
C2338 C 0.14165 0.42264 0.39284 0.0
C2339 C 0.14556 0.4413 0.38023 0.0
C2340 C 0.16354 0.44568 0.36474 0.0
C2341 C 0.17763 0.4314 0.36166 0.0
H2342 H 0.13466 0.45237 0.38255 0.0
H2343 H 0.26885 0.31082 0.37453 0.0
H2344 H 0.38992 0.78106 0.17372 0.0
H2345 H 0.3804 0.75343 0.1354 0.0
H2346 H 0.40806 0.71529 0.21473 0.0
H2347 H 0.41661 0.74271 0.25473 0.0
H2348 H 0.41812 0.7149 0.12625 0.0
H2349 H 0.36743 0.71037 0.22285 0.0
H2350 H 0.34036 0.72399 0.25923 0.0
H2351 H 0.30997 0.73567 0.15578 0.0
H2352 H 0.33703 0.72236 0.11877 0.0
H2353 H 0.39694 0.61944 0.07566 0.0
H2354 H 0.40398 0.65051 0.1044 0.0
H2355 H 0.35239 0.67424 0.05463 0.0
H2356 H 0.34475 0.64277 0.02745 0.0
H2357 H 0.35335 0.68492 0.12265 0.0
H2358 H 0.40008 0.68696 0.02505 0.0
H2359 H 0.42658 0.6757 0.98421 0.0
H2360 H 0.46391 0.672 0.08091 0.0
H2361 H 0.43756 0.68298 0.12244 0.0
C2362 C 0.39326 0.76683 0.18411 0.0
C2363 C 0.40353 0.76415 0.21812 0.0
C2364 C 0.38809 0.75105 0.16169 0.0
C2365 C 0.39351 0.73242 0.17242 0.0
C2366 C 0.40374 0.72962 0.20614 0.0
C2367 C 0.40857 0.74531 0.22893 0.0
C2368 C 0.38919 0.71582 0.14776 0.0
C2369 C 0.40404 0.70817 0.12553 0.0
C2370 C 0.3706 0.70773 0.14581 0.0
C2371 C 0.35434 0.71562 0.16806 0.0
C2372 C 0.35507 0.71605 0.20786 0.0
C2373 C 0.33971 0.72365 0.22859 0.0
C2374 C 0.32348 0.73076 0.20983 0.0
C2375 C 0.32256 0.7302 0.17028 0.0
C2376 C 0.3379 0.72262 0.14942 0.0
C2377 C 0.38726 0.63136 0.07028 0.0
C2378 C 0.37029 0.62866 0.0493 0.0
C2379 C 0.39135 0.6492 0.08661 0.0
C2380 C 0.37886 0.6649 0.08138 0.0
C2381 C 0.36225 0.66238 0.05921 0.0
C2382 C 0.35793 0.64441 0.04354 0.0
C2383 C 0.38246 0.68343 0.10132 0.0
C2384 C 0.36746 0.6916 0.12272 0.0
C2385 C 0.40085 0.69228 0.10176 0.0
C2386 C 0.41678 0.68566 0.07691 0.0
C2387 C 0.4139 0.68361 0.03766 0.0
C2388 C 0.4289 0.6773 0.01438 0.0
C2389 C 0.4469 0.6731 0.02997 0.0
C2390 C 0.44995 0.67524 0.06887 0.0
C2391 C 0.43499 0.68154 0.09229 0.0
H2392 H 0.4585 0.66821 0.01189 0.0
H2393 H 0.3116 0.73664 0.22592 0.0
H2394 H 0.25789 0.89779 0.51584 0.0
H2395 H 0.28389 0.88969 0.47204 0.0
H2396 H 0.24313 0.88685 0.37994 0.0
H2397 H 0.21731 0.89597 0.42311 0.0
H2398 H 0.29217 0.86031 0.4282 0.0
H2399 H 0.26532 0.90335 0.29875 0.0
H2400 H 0.24418 0.93092 0.28427 0.0
H2401 H 0.25501 0.95458 0.39464 0.0
H2402 H 0.27651 0.92735 0.40949 0.0
H2403 H 0.35801 0.84134 0.2827 0.0
H2404 H 0.3263 0.84646 0.31069 0.0
H2405 H 0.34115 0.90549 0.3347 0.0
H2406 H 0.37274 0.90066 0.30603 0.0
H2407 H 0.30359 0.90243 0.31683 0.0
H2408 H 0.34859 0.87085 0.40083 0.0
H2409 H 0.37157 0.84539 0.41894 0.0
H2410 H 0.32729 0.80274 0.40652 0.0
H2411 H 0.3041 0.82795 0.3879 0.0
C2412 C 0.25445 0.89522 0.48632 0.0
C2413 C 0.23548 0.89713 0.47317 0.0
C2414 C 0.2693 0.89053 0.46135 0.0
C2415 C 0.26548 0.88778 0.42266 0.0
C2416 C 0.24644 0.88904 0.40962 0.0
C2417 C 0.2316 0.89391 0.43456 0.0
C2418 C 0.28165 0.88447 0.39599 0.0
C2419 C 0.29454 0.86943 0.40368 0.0
C2420 C 0.2849 0.8965 0.36418 0.0
C2421 C 0.27232 0.91317 0.35537 0.0
C2422 C 0.26325 0.91448 0.31986 0.0
C2423 C 0.25121 0.93005 0.31159 0.0
C2424 C 0.24818 0.94445 0.33859 0.0
C2425 C 0.2573 0.94338 0.37381 0.0
C2426 C 0.26942 0.92788 0.38216 0.0
C2427 C 0.35441 0.85553 0.29317 0.0
C2428 C 0.36806 0.8705 0.29269 0.0
C2429 C 0.33628 0.85841 0.30923 0.0
C2430 C 0.33154 0.87622 0.32551 0.0
C2431 C 0.34454 0.8916 0.32244 0.0
C2432 C 0.36264 0.88878 0.30612 0.0
C2433 C 0.31405 0.87833 0.34918 0.0
C2434 C 0.30096 0.89312 0.34097 0.0
C2435 C 0.31082 0.86638 0.38106 0.0
C2436 C 0.32468 0.85124 0.39262 0.0
C2437 C 0.34379 0.85603 0.40176 0.0
C2438 C 0.35685 0.84165 0.41213 0.0
C2439 C 0.35091 0.82245 0.41378 0.0
C2440 C 0.33188 0.81761 0.40517 0.0
C2441 C 0.31877 0.83193 0.39474 0.0
H2442 H 0.36104 0.81134 0.42181 0.0
H2443 H 0.23879 0.95645 0.33217 0.0
H2444 H 0.10256 0.8662 0.52218 0.0
H2445 H 0.09616 0.83353 0.54523 0.0
H2446 H 0.15163 0.8328 0.60045 0.0
H2447 H 0.1585 0.86464 0.57569 0.0
H2448 H 0.14577 0.79945 0.57653 0.0
H2449 H 0.10649 0.84452 0.64666 0.0
H2450 H 0.08199 0.8699 0.65462 0.0
H2451 H 0.03938 0.83332 0.60379 0.0
H2452 H 0.06371 0.80779 0.59516 0.0
H2453 H 0.12505 0.7448 0.74586 0.0
H2454 H 0.13145 0.7707 0.70004 0.0
H2455 H 0.08862 0.74705 0.62484 0.0
H2456 H 0.08259 0.72087 0.67009 0.0
H2457 H 0.08587 0.78942 0.65037 0.0
H2458 H 0.12727 0.74228 0.59179 0.0
H2459 H 0.15309 0.71793 0.59178 0.0
H2460 H 0.19351 0.76033 0.63053 0.0
H2461 H 0.16785 0.78487 0.63137 0.0
C2462 C 0.11345 0.8589 0.5388 0.0
C2463 C 0.13097 0.86803 0.5473 0.0
C2464 C 0.10975 0.84029 0.55217 0.0
C2465 C 0.12324 0.83079 0.57535 0.0
C2466 C 0.14097 0.83971 0.58264 0.0
C2467 C 0.14486 0.85802 0.56852 0.0
C2468 C 0.11877 0.81206 0.59384 0.0
C2469 C 0.13267 0.79735 0.59273 0.0
C2470 C 0.10157 0.80905 0.61465 0.0
C2471 C 0.08695 0.82436 0.61983 0.0
C2472 C 0.09192 0.84195 0.63696 0.0
C2473 C 0.07807 0.85635 0.64162 0.0
C2474 C 0.05916 0.85325 0.6296 0.0
C2475 C 0.05404 0.83571 0.613 0.0
C2476 C 0.06785 0.82128 0.60822 0.0
C2477 C 0.11736 0.74497 0.71916 0.0
C2478 C 0.10362 0.7308 0.71098 0.0
C2479 C 0.12098 0.75969 0.69313 0.0
C2480 C 0.11055 0.76063 0.65911 0.0
C2481 C 0.09688 0.74641 0.65084 0.0
C2482 C 0.09356 0.73146 0.67649 0.0
C2483 C 0.11303 0.77727 0.6336 0.0
C2484 C 0.09877 0.79152 0.63354 0.0
C2485 C 0.1301 0.78007 0.61269 0.0
C2486 C 0.14559 0.76537 0.61195 0.0
C2487 C 0.14162 0.74637 0.60065 0.0
C2488 C 0.15624 0.73254 0.60042 0.0
C2489 C 0.17492 0.73757 0.61123 0.0
C2490 C 0.17903 0.75645 0.6222 0.0
C2491 C 0.16446 0.77033 0.62251 0.0
H2492 H 0.18622 0.72685 0.61103 0.0
H2493 H 0.04845 0.86441 0.63323 0.0
H2494 H 0.28275 0.60043 0.90992 0.0
H2495 H 0.25794 0.60779 0.86295 0.0
H2496 H 0.21721 0.61841 0.95279 0.0
H2497 H 0.24207 0.61133 -0.0001 0.0
H2498 H 0.22425 0.58855 0.85189 0.0
H2499 H 0.18629 0.65325 0.92514 0.0
H2500 H 0.19501 0.68144 0.964 0.0
H2501 H 0.25212 0.68073 0.91757 0.0
H2502 H 0.24368 0.65272 0.87803 0.0
H2503 H 0.12516 0.59791 0.80833 0.0
H2504 H 0.15789 0.59339 0.83178 0.0
H2505 H 0.17464 0.6477 0.78242 0.0
H2506 H 0.14176 0.65259 0.75999 0.0
H2507 H 0.18412 0.64758 0.8525 0.0
H2508 H 0.19351 0.60339 0.75128 0.0
H2509 H 0.18612 0.57598 0.70935 0.0
H2510 H 0.18873 0.5374 0.80424 0.0
H2511 H 0.19587 0.5646 0.84685 0.0
C2512 C 0.26871 0.60495 0.9197 0.0
C2513 C 0.26444 0.60575 0.95862 0.0
C2514 C 0.25447 0.60888 0.8928 0.0
C2515 C 0.2358 0.61378 0.90438 0.0
C2516 C 0.23161 0.61492 0.94324 0.0
C2517 C 0.24579 0.61086 0.97011 0.0
C2518 C 0.2203 0.61672 0.87613 0.0
C2519 C 0.21553 0.6015 0.8517 0.0
C2520 C 0.20924 0.63378 0.8754 0.0
C2521 C 0.21438 0.65078 0.89882 0.0
C2522 C 0.20068 0.65916 0.92307 0.0
C2523 C 0.20558 0.6751 0.94525 0.0
C2524 C 0.22412 0.68284 0.94332 0.0
C2525 C 0.23779 0.67468 0.91914 0.0
C2526 C 0.23296 0.65875 0.89688 0.0
C2527 C 0.13594 0.60863 0.80153 0.0
C2528 C 0.13084 0.62569 0.78266 0.0
C2529 C 0.15471 0.60601 0.81489 0.0
C2530 C 0.16878 0.62023 0.80893 0.0
C2531 C 0.16402 0.6366 0.78761 0.0
C2532 C 0.14522 0.63935 0.77471 0.0
C2533 C 0.1876 0.61916 0.82884 0.0
C2534 C 0.19297 0.63472 0.85199 0.0
C2535 C 0.19936 0.60252 0.82786 0.0
C2536 C 0.19512 0.58608 0.80231 0.0
C2537 C 0.19238 0.58908 0.76326 0.0
C2538 C 0.18825 0.57357 0.73936 0.0
C2539 C 0.18693 0.55496 0.75413 0.0
C2540 C 0.18976 0.55182 0.79283 0.0
C2541 C 0.19388 0.56728 0.81686 0.0
H2542 H 0.18373 0.54298 0.73558 0.0
H2543 H 0.22788 0.69517 0.96053 0.0
loop_
_geom_bond_atom_site_label_1
_geom_bond_atom_site_label_2
_geom_bond_distance
_geom_bond_site_symmetry_2
_ccdc_geom_bond_type
Co0 O3 1.970 . S
Co0 N17 1.989 1_554 S
Co0 O25 1.967 . S
Co0 O32 1.920 . S
Co1 O4 1.966 . S
Co1 N10 2.022 . S
Co1 N18 1.993 1_554 S
Co1 O26 1.941 . S
C2 O3 1.258 . S
C2 O4 1.263 . S
O3 Co0 1.970 . S
O3 C2 1.258 . S
O4 Co1 1.966 . S
O4 C2 1.263 . S
C5 O6 1.235 1_554 S
C5 O32 1.289 . S
O6 C5 1.235 1_556 S
C7 C9 1.400 . S
C7 N10 1.351 1_556 S
C7 C12 1.501 . S
C8 C9 1.387 . S
C8 N11 1.341 . S
C9 C7 1.400 . S
C9 C8 1.387 . S
N10 Co1 2.022 . S
N10 C7 1.351 1_554 S
N10 N11 1.365 1_554 S
N11 C8 1.341 . S
N11 N10 1.365 1_556 S
N11 H31 0.862 1_556 S
C12 C7 1.501 . S
C12 H13 0.961 1_556 S
C12 H14 0.961 . S
C12 H15 0.960 1_556 S
H13 C12 0.961 1_554 S
H14 C12 0.961 . S
H15 C12 0.960 1_554 S
C16 N17 1.342 . S
C16 C20 1.401 . S
C16 C21 1.499 . S
N17 Co0 1.989 1_556 S
N17 C16 1.342 . S
N17 N18 1.388 . S
N18 Co1 1.993 1_556 S
N18 N17 1.388 . S
N18 C19 1.346 . S
C19 N18 1.346 . S
C19 C20 1.396 . S
C19 C29 1.510 . S
C20 C16 1.401 . S
C20 C19 1.396 . S
C21 C16 1.499 . S
C21 H22 0.959 . S
C21 H23 0.960 . S
C21 H24 0.961 . S
H22 C21 0.959 . S
H23 C21 0.960 . S
H24 C21 0.961 . S
O25 Co0 1.967 . S
O25 C33 1.258 . S
O26 Co1 1.941 . S
O26 C33 1.266 . S
H27 C29 0.959 . S
H28 C29 0.961 . S
C29 C19 1.510 . S
C29 H27 0.959 . S
C29 H28 0.961 . S
C29 H30 0.960 . S
H30 C29 0.960 . S
H31 N11 0.862 1_554 S
O32 Co0 1.920 . S
O32 C5 1.289 . S
C33 O25 1.258 . S
C33 O26 1.266 . S
Co34 O37 1.970 . S
Co34 N51 1.989 . S
Co34 O59 1.967 . S
Co34 O66 1.920 . S
Co35 O38 1.966 . S
Co35 N44 2.022 . S
Co35 N52 1.993 . S
Co35 O60 1.941 . S
C36 O37 1.258 . S
C36 O38 1.263 . S
O37 Co34 1.970 . S
O37 C36 1.258 . S
O38 Co35 1.966 . S
O38 C36 1.263 . S
C39 O40 1.235 . S
C39 O66 1.289 . S
O40 C39 1.235 . S
C41 C43 1.400 . S
C41 N44 1.351 . S
C41 C46 1.501 . S
C42 C43 1.387 . S
C42 N45 1.341 . S
C43 C41 1.400 . S
C43 C42 1.387 . S
N44 Co35 2.022 . S
N44 C41 1.351 . S
N44 N45 1.365 . S
N45 C42 1.341 . S
N45 N44 1.365 . S
N45 H65 0.862 . S
C46 C41 1.501 . S
C46 H47 0.961 . S
C46 H48 0.961 . S
C46 H49 0.960 . S
H47 C46 0.961 . S
H48 C46 0.961 . S
H49 C46 0.960 . S
C50 N51 1.342 . S
C50 C54 1.401 . S
C50 C55 1.499 . S
N51 Co34 1.989 . S
N51 C50 1.342 . S
N51 N52 1.388 . S
N52 Co35 1.993 . S
N52 N51 1.388 . S
N52 C53 1.346 . S
C53 N52 1.346 . S
C53 C54 1.396 . S
C53 C63 1.510 . S
C54 C50 1.401 . S
C54 C53 1.396 . S
C55 C50 1.499 . S
C55 H56 0.959 . S
C55 H57 0.960 . S
C55 H58 0.961 . S
H56 C55 0.959 . S
H57 C55 0.960 . S
H58 C55 0.961 . S
O59 Co34 1.967 . S
O59 C67 1.258 . S
O60 Co35 1.941 . S
O60 C67 1.266 . S
H61 C63 0.959 . S
H62 C63 0.961 . S
C63 C53 1.510 . S
C63 H61 0.959 . S
C63 H62 0.961 . S
C63 H64 0.960 . S
H64 C63 0.960 . S
H65 N45 0.862 . S
O66 Co34 1.920 . S
O66 C39 1.289 . S
C67 O59 1.258 . S
C67 O60 1.266 . S
Co68 O71 1.970 . S
Co68 N85 1.989 . S
Co68 O93 1.967 . S
Co68 O100 1.920 . S
Co69 O72 1.966 . S
Co69 N78 2.022 . S
Co69 N86 1.993 . S
Co69 O94 1.941 . S
C70 O71 1.258 . S
C70 O72 1.263 . S
O71 Co68 1.970 . S
O71 C70 1.258 . S
O72 Co69 1.966 . S
O72 C70 1.263 . S
C73 O74 1.235 . S
C73 O100 1.289 . S
O74 C73 1.235 . S
C75 C77 1.400 . S
C75 N78 1.351 . S
C75 C80 1.501 . S
C76 C77 1.387 . S
C76 N79 1.341 . S
C77 C75 1.400 . S
C77 C76 1.387 . S
N78 Co69 2.022 . S
N78 C75 1.351 . S
N78 N79 1.365 . S
N79 C76 1.341 . S
N79 N78 1.365 . S
N79 H99 0.862 . S
C80 C75 1.501 . S
C80 H81 0.961 . S
C80 H82 0.961 . S
C80 H83 0.960 . S
H81 C80 0.961 . S
H82 C80 0.961 . S
H83 C80 0.960 . S
C84 N85 1.342 . S
C84 C88 1.401 . S
C84 C89 1.499 . S
N85 Co68 1.989 . S
N85 C84 1.342 . S
N85 N86 1.388 . S
N86 Co69 1.993 . S
N86 N85 1.388 . S
N86 C87 1.346 . S
C87 N86 1.346 . S
C87 C88 1.396 . S
C87 C97 1.510 . S
C88 C84 1.401 . S
C88 C87 1.396 . S
C89 C84 1.499 . S
C89 H90 0.959 . S
C89 H91 0.960 . S
C89 H92 0.961 . S
H90 C89 0.959 . S
H91 C89 0.960 . S
H92 C89 0.961 . S
O93 Co68 1.967 . S
O93 C101 1.258 . S
O94 Co69 1.941 . S
O94 C101 1.266 . S
H95 C97 0.959 . S
H96 C97 0.961 . S
C97 C87 1.510 . S
C97 H95 0.959 . S
C97 H96 0.961 . S
C97 H98 0.960 . S
H98 C97 0.960 . S
H99 N79 0.862 . S
O100 Co68 1.920 . S
O100 C73 1.289 . S
C101 O93 1.258 . S
C101 O94 1.266 . S
Co102 O105 1.970 . S
Co102 N119 1.989 . S
Co102 O127 1.967 . S
Co102 O134 1.920 . S
Co103 O106 1.966 . S
Co103 N112 2.022 . S
Co103 N120 1.993 . S
Co103 O128 1.941 . S
C104 O105 1.258 . S
C104 O106 1.263 . S
O105 Co102 1.970 . S
O105 C104 1.258 . S
O106 Co103 1.966 . S
O106 C104 1.263 . S
C107 O108 1.235 . S
C107 O134 1.289 . S
O108 C107 1.235 . S
C109 C111 1.400 . S
C109 N112 1.351 . S
C109 C114 1.501 . S
C110 C111 1.387 . S
C110 N113 1.341 . S
C111 C109 1.400 . S
C111 C110 1.387 . S
N112 Co103 2.022 . S
N112 C109 1.351 . S
N112 N113 1.365 . S
N113 C110 1.341 . S
N113 N112 1.365 . S
N113 H133 0.862 . S
C114 C109 1.501 . S
C114 H115 0.961 . S
C114 H116 0.961 . S
C114 H117 0.960 . S
H115 C114 0.961 . S
H116 C114 0.961 . S
H117 C114 0.960 . S
C118 N119 1.342 . S
C118 C122 1.401 . S
C118 C123 1.499 . S
N119 Co102 1.989 . S
N119 C118 1.342 . S
N119 N120 1.388 . S
N120 Co103 1.993 . S
N120 N119 1.388 . S
N120 C121 1.346 . S
C121 N120 1.346 . S
C121 C122 1.396 . S
C121 C131 1.510 . S
C122 C118 1.401 . S
C122 C121 1.396 . S
C123 C118 1.499 . S
C123 H124 0.959 . S
C123 H125 0.960 . S
C123 H126 0.961 . S
H124 C123 0.959 . S
H125 C123 0.960 . S
H126 C123 0.961 . S
O127 Co102 1.967 . S
O127 C135 1.258 . S
O128 Co103 1.941 . S
O128 C135 1.266 . S
H129 C131 0.959 . S
H130 C131 0.961 . S
C131 C121 1.510 . S
C131 H129 0.959 . S
C131 H130 0.961 . S
C131 H132 0.960 . S
H132 C131 0.960 . S
H133 N113 0.862 . S
O134 Co102 1.920 . S
O134 C107 1.289 . S
C135 O127 1.258 . S
C135 O128 1.266 . S
Co136 O139 1.970 . S
Co136 N153 1.989 . S
Co136 O161 1.967 . S
Co136 O168 1.920 . S
Co137 O140 1.966 . S
Co137 N146 2.022 . S
Co137 N154 1.993 . S
Co137 O162 1.941 . S
C138 O139 1.258 . S
C138 O140 1.263 . S
O139 Co136 1.970 . S
O139 C138 1.258 . S
O140 Co137 1.966 . S
O140 C138 1.263 . S
C141 O142 1.235 . S
C141 O168 1.289 . S
O142 C141 1.235 . S
C143 C145 1.400 . S
C143 N146 1.351 . S
C143 C148 1.501 . S
C144 C145 1.387 . S
C144 N147 1.341 . S
C145 C143 1.400 . S
C145 C144 1.387 . S
N146 Co137 2.022 . S
N146 C143 1.351 . S
N146 N147 1.365 . S
N147 C144 1.341 . S
N147 N146 1.365 . S
N147 H167 0.862 . S
C148 C143 1.501 . S
C148 H149 0.961 . S
C148 H150 0.961 . S
C148 H151 0.960 . S
H149 C148 0.961 . S
H150 C148 0.961 . S
H151 C148 0.960 . S
C152 N153 1.342 . S
C152 C156 1.401 . S
C152 C157 1.499 . S
N153 Co136 1.989 . S
N153 C152 1.342 . S
N153 N154 1.388 . S
N154 Co137 1.993 . S
N154 N153 1.388 . S
N154 C155 1.346 . S
C155 N154 1.346 . S
C155 C156 1.396 . S
C155 C165 1.510 . S
C156 C152 1.401 . S
C156 C155 1.396 . S
C157 C152 1.499 . S
C157 H158 0.959 . S
C157 H159 0.960 . S
C157 H160 0.961 . S
H158 C157 0.959 . S
H159 C157 0.960 . S
H160 C157 0.961 . S
O161 Co136 1.967 . S
O161 C169 1.258 . S
O162 Co137 1.941 . S
O162 C169 1.266 . S
H163 C165 0.959 . S
H164 C165 0.961 . S
C165 C155 1.510 . S
C165 H163 0.959 . S
C165 H164 0.961 . S
C165 H166 0.960 . S
H166 C165 0.960 . S
H167 N147 0.862 . S
O168 Co136 1.920 . S
O168 C141 1.289 . S
C169 O161 1.258 . S
C169 O162 1.266 . S
Co170 O173 1.970 . S
Co170 N187 1.989 . S
Co170 O195 1.967 . S
Co170 O202 1.920 . S
Co171 O174 1.966 . S
Co171 N180 2.022 . S
Co171 N188 1.993 . S
Co171 O196 1.941 . S
C172 O173 1.258 . S
C172 O174 1.263 . S
O173 Co170 1.970 . S
O173 C172 1.258 . S
O174 Co171 1.966 . S
O174 C172 1.263 . S
C175 O176 1.235 . S
C175 O202 1.289 . S
O176 C175 1.235 . S
C177 C179 1.400 . S
C177 N180 1.351 . S
C177 C182 1.501 . S
C178 C179 1.387 . S
C178 N181 1.341 . S
C179 C177 1.400 . S
C179 C178 1.387 . S
N180 Co171 2.022 . S
N180 C177 1.351 . S
N180 N181 1.365 . S
N181 C178 1.341 . S
N181 N180 1.365 . S
N181 H201 0.862 . S
C182 C177 1.501 . S
C182 H183 0.961 . S
C182 H184 0.961 . S
C182 H185 0.960 . S
H183 C182 0.961 . S
H184 C182 0.961 . S
H185 C182 0.960 . S
C186 N187 1.342 . S
C186 C190 1.401 . S
C186 C191 1.499 . S
N187 Co170 1.989 . S
N187 C186 1.342 . S
N187 N188 1.388 . S
N188 Co171 1.993 . S
N188 N187 1.388 . S
N188 C189 1.346 . S
C189 N188 1.346 . S
C189 C190 1.396 . S
C189 C199 1.510 . S
C190 C186 1.401 . S
C190 C189 1.396 . S
C191 C186 1.499 . S
C191 H192 0.959 . S
C191 H193 0.960 . S
C191 H194 0.961 . S
H192 C191 0.959 . S
H193 C191 0.960 . S
H194 C191 0.961 . S
O195 Co170 1.967 . S
O195 C203 1.258 . S
O196 Co171 1.941 . S
O196 C203 1.266 . S
H197 C199 0.959 . S
H198 C199 0.961 . S
C199 C189 1.510 . S
C199 H197 0.959 . S
C199 H198 0.961 . S
C199 H200 0.960 . S
H200 C199 0.960 . S
H201 N181 0.862 . S
O202 Co170 1.920 . S
O202 C175 1.289 . S
C203 O195 1.258 . S
C203 O196 1.266 . S
Co204 O207 1.970 . S
Co204 N221 1.989 1_554 S
Co204 O229 1.967 . S
Co204 O236 1.920 . S
Co205 O208 1.966 . S
Co205 N214 2.022 . S
Co205 N222 1.993 1_554 S
Co205 O230 1.941 . S
C206 O207 1.258 . S
C206 O208 1.263 . S
O207 Co204 1.970 . S
O207 C206 1.258 . S
O208 Co205 1.966 . S
O208 C206 1.263 . S
C209 O210 1.235 1_554 S
C209 O236 1.289 . S
O210 C209 1.235 1_556 S
C211 C213 1.400 . S
C211 N214 1.351 1_556 S
C211 C216 1.501 . S
C212 C213 1.387 . S
C212 N215 1.341 . S
C213 C211 1.400 . S
C213 C212 1.387 . S
N214 Co205 2.022 . S
N214 C211 1.351 1_554 S
N214 N215 1.365 1_554 S
N215 C212 1.341 . S
N215 N214 1.365 1_556 S
N215 H235 0.862 1_556 S
C216 C211 1.501 . S
C216 H217 0.961 1_556 S
C216 H218 0.961 . S
C216 H219 0.960 1_556 S
H217 C216 0.961 1_554 S
H218 C216 0.961 . S
H219 C216 0.960 1_554 S
C220 N221 1.342 . S
C220 C224 1.401 . S
C220 C225 1.499 . S
N221 Co204 1.989 1_556 S
N221 C220 1.342 . S
N221 N222 1.388 . S
N222 Co205 1.993 1_556 S
N222 N221 1.388 . S
N222 C223 1.346 . S
C223 N222 1.346 . S
C223 C224 1.396 . S
C223 C233 1.510 . S
C224 C220 1.401 . S
C224 C223 1.396 . S
C225 C220 1.499 . S
C225 H226 0.959 . S
C225 H227 0.960 . S
C225 H228 0.961 . S
H226 C225 0.959 . S
H227 C225 0.960 . S
H228 C225 0.961 . S
O229 Co204 1.967 . S
O229 C237 1.258 . S
O230 Co205 1.941 . S
O230 C237 1.266 . S
H231 C233 0.959 . S
H232 C233 0.961 . S
C233 C223 1.510 . S
C233 H231 0.959 . S
C233 H232 0.961 . S
C233 H234 0.960 . S
H234 C233 0.960 . S
H235 N215 0.862 1_554 S
O236 Co204 1.920 . S
O236 C209 1.289 . S
C237 O229 1.258 . S
C237 O230 1.266 . S
Co238 O241 1.970 . S
Co238 N255 1.989 . S
Co238 O263 1.967 . S
Co238 O270 1.920 . S
Co239 O242 1.966 . S
Co239 N248 2.022 . S
Co239 N256 1.993 . S
Co239 O264 1.941 . S
C240 O241 1.258 . S
C240 O242 1.263 . S
O241 Co238 1.970 . S
O241 C240 1.258 . S
O242 Co239 1.966 . S
O242 C240 1.263 . S
C243 O244 1.235 . S
C243 O270 1.289 . S
O244 C243 1.235 . S
C245 C247 1.400 . S
C245 N248 1.351 . S
C245 C250 1.501 . S
C246 C247 1.387 . S
C246 N249 1.341 . S
C247 C245 1.400 . S
C247 C246 1.387 . S
N248 Co239 2.022 . S
N248 C245 1.351 . S
N248 N249 1.365 . S
N249 C246 1.341 . S
N249 N248 1.365 . S
N249 H269 0.862 . S
C250 C245 1.501 . S
C250 H251 0.961 . S
C250 H252 0.961 . S
C250 H253 0.960 . S
H251 C250 0.961 . S
H252 C250 0.961 . S
H253 C250 0.960 . S
C254 N255 1.342 . S
C254 C258 1.401 . S
C254 C259 1.499 . S
N255 Co238 1.989 . S
N255 C254 1.342 . S
N255 N256 1.388 . S
N256 Co239 1.993 . S
N256 N255 1.388 . S
N256 C257 1.346 . S
C257 N256 1.346 . S
C257 C258 1.396 . S
C257 C267 1.510 . S
C258 C254 1.401 . S
C258 C257 1.396 . S
C259 C254 1.499 . S
C259 H260 0.959 . S
C259 H261 0.960 . S
C259 H262 0.961 . S
H260 C259 0.959 . S
H261 C259 0.960 . S
H262 C259 0.961 . S
O263 Co238 1.967 . S
O263 C271 1.258 . S
O264 Co239 1.941 . S
O264 C271 1.266 . S
H265 C267 0.959 . S
H266 C267 0.961 . S
C267 C257 1.510 . S
C267 H265 0.959 . S
C267 H266 0.961 . S
C267 H268 0.960 . S
H268 C267 0.960 . S
H269 N249 0.862 . S
O270 Co238 1.920 . S
O270 C243 1.289 . S
C271 O263 1.258 . S
C271 O264 1.266 . S
Co272 O275 1.970 . S
Co272 N289 1.989 . S
Co272 O297 1.967 . S
Co272 O304 1.920 . S
Co273 O276 1.966 . S
Co273 N282 2.022 . S
Co273 N290 1.993 . S
Co273 O298 1.941 . S
C274 O275 1.258 . S
C274 O276 1.263 . S
O275 Co272 1.970 . S
O275 C274 1.258 . S
O276 Co273 1.966 . S
O276 C274 1.263 . S
C277 O278 1.235 . S
C277 O304 1.289 . S
O278 C277 1.235 . S
C279 C281 1.400 . S
C279 N282 1.351 . S
C279 C284 1.501 . S
C280 C281 1.387 . S
C280 N283 1.341 . S
C281 C279 1.400 . S
C281 C280 1.387 . S
N282 Co273 2.022 . S
N282 C279 1.351 . S
N282 N283 1.365 . S
N283 C280 1.341 . S
N283 N282 1.365 . S
N283 H303 0.862 . S
C284 C279 1.501 . S
C284 H285 0.961 . S
C284 H286 0.961 . S
C284 H287 0.960 . S
H285 C284 0.961 . S
H286 C284 0.961 . S
H287 C284 0.960 . S
C288 N289 1.342 . S
C288 C292 1.401 . S
C288 C293 1.499 . S
N289 Co272 1.989 . S
N289 C288 1.342 . S
N289 N290 1.388 . S
N290 Co273 1.993 . S
N290 N289 1.388 . S
N290 C291 1.346 . S
C291 N290 1.346 . S
C291 C292 1.396 . S
C291 C301 1.510 . S
C292 C288 1.401 . S
C292 C291 1.396 . S
C293 C288 1.499 . S
C293 H294 0.959 . S
C293 H295 0.960 . S
C293 H296 0.961 . S
H294 C293 0.959 . S
H295 C293 0.960 . S
H296 C293 0.961 . S
O297 Co272 1.967 . S
O297 C305 1.258 . S
O298 Co273 1.941 . S
O298 C305 1.266 . S
H299 C301 0.959 . S
H300 C301 0.961 . S
C301 C291 1.510 . S
C301 H299 0.959 . S
C301 H300 0.961 . S
C301 H302 0.960 . S
H302 C301 0.960 . S
H303 N283 0.862 . S
O304 Co272 1.920 . S
O304 C277 1.289 . S
C305 O297 1.258 . S
C305 O298 1.266 . S
Co306 O309 1.970 . S
Co306 N323 1.989 . S
Co306 O331 1.967 . S
Co306 O338 1.920 . S
Co307 O310 1.966 . S
Co307 N316 2.022 . S
Co307 N324 1.993 . S
Co307 O332 1.941 . S
C308 O309 1.258 . S
C308 O310 1.263 . S
O309 Co306 1.970 . S
O309 C308 1.258 . S
O310 Co307 1.966 . S
O310 C308 1.263 . S
C311 O312 1.235 . S
C311 O338 1.289 . S
O312 C311 1.235 . S
C313 C315 1.400 . S
C313 N316 1.351 . S
C313 C318 1.501 . S
C314 C315 1.387 . S
C314 N317 1.341 . S
C315 C313 1.400 . S
C315 C314 1.387 . S
N316 Co307 2.022 . S
N316 C313 1.351 . S
N316 N317 1.365 . S
N317 C314 1.341 . S
N317 N316 1.365 . S
N317 H337 0.862 . S
C318 C313 1.501 . S
C318 H319 0.961 . S
C318 H320 0.961 . S
C318 H321 0.960 . S
H319 C318 0.961 . S
H320 C318 0.961 . S
H321 C318 0.960 . S
C322 N323 1.342 . S
C322 C326 1.401 . S
C322 C327 1.499 . S
N323 Co306 1.989 . S
N323 C322 1.342 . S
N323 N324 1.388 . S
N324 Co307 1.993 . S
N324 N323 1.388 . S
N324 C325 1.346 . S
C325 N324 1.346 . S
C325 C326 1.396 . S
C325 C335 1.510 . S
C326 C322 1.401 . S
C326 C325 1.396 . S
C327 C322 1.499 . S
C327 H328 0.959 . S
C327 H329 0.960 . S
C327 H330 0.961 . S
H328 C327 0.959 . S
H329 C327 0.960 . S
H330 C327 0.961 . S
O331 Co306 1.967 . S
O331 C339 1.258 . S
O332 Co307 1.941 . S
O332 C339 1.266 . S
H333 C335 0.959 . S
H334 C335 0.961 . S
C335 C325 1.510 . S
C335 H333 0.959 . S
C335 H334 0.961 . S
C335 H336 0.960 . S
H336 C335 0.960 . S
H337 N317 0.862 . S
O338 Co306 1.920 . S
O338 C311 1.289 . S
C339 O331 1.258 . S
C339 O332 1.266 . S
Co340 O343 1.970 . S
Co340 N357 1.989 1_554 S
Co340 O365 1.967 . S
Co340 O372 1.920 . S
Co341 O344 1.966 . S
Co341 N350 2.022 . S
Co341 N358 1.993 1_554 S
Co341 O366 1.941 . S
C342 O343 1.258 . S
C342 O344 1.263 . S
O343 Co340 1.970 . S
O343 C342 1.258 . S
O344 Co341 1.966 . S
O344 C342 1.263 . S
C345 O346 1.235 1_554 S
C345 O372 1.289 . S
O346 C345 1.235 1_556 S
C347 C349 1.400 . S
C347 N350 1.351 1_556 S
C347 C352 1.501 . S
C348 C349 1.387 . S
C348 N351 1.341 . S
C349 C347 1.400 . S
C349 C348 1.387 . S
N350 Co341 2.022 . S
N350 C347 1.351 1_554 S
N350 N351 1.365 1_554 S
N351 C348 1.341 . S
N351 N350 1.365 1_556 S
N351 H371 0.862 1_556 S
C352 C347 1.501 . S
C352 H353 0.961 1_556 S
C352 H354 0.961 . S
C352 H355 0.960 1_556 S
H353 C352 0.961 1_554 S
H354 C352 0.961 . S
H355 C352 0.960 1_554 S
C356 N357 1.342 . S
C356 C360 1.401 . S
C356 C361 1.499 . S
N357 Co340 1.989 1_556 S
N357 C356 1.342 . S
N357 N358 1.388 . S
N358 Co341 1.993 1_556 S
N358 N357 1.388 . S
N358 C359 1.346 . S
C359 N358 1.346 . S
C359 C360 1.396 . S
C359 C369 1.510 . S
C360 C356 1.401 . S
C360 C359 1.396 . S
C361 C356 1.499 . S
C361 H362 0.959 . S
C361 H363 0.960 . S
C361 H364 0.961 . S
H362 C361 0.959 . S
H363 C361 0.960 . S
H364 C361 0.961 . S
O365 Co340 1.967 . S
O365 C373 1.258 . S
O366 Co341 1.941 . S
O366 C373 1.266 . S
H367 C369 0.959 . S
H368 C369 0.961 . S
C369 C359 1.510 . S
C369 H367 0.959 . S
C369 H368 0.961 . S
C369 H370 0.960 . S
H370 C369 0.960 . S
H371 N351 0.862 1_554 S
O372 Co340 1.920 . S
O372 C345 1.289 . S
C373 O365 1.258 . S
C373 O366 1.266 . S
Co374 O377 1.970 . S
Co374 N391 1.989 . S
Co374 O399 1.967 . S
Co374 O406 1.920 . S
Co375 O378 1.966 . S
Co375 N384 2.022 . S
Co375 N392 1.993 . S
Co375 O400 1.941 . S
C376 O377 1.258 . S
C376 O378 1.263 . S
O377 Co374 1.970 . S
O377 C376 1.258 . S
O378 Co375 1.966 . S
O378 C376 1.263 . S
C379 O380 1.235 . S
C379 O406 1.289 . S
O380 C379 1.235 . S
C381 C383 1.400 . S
C381 N384 1.351 . S
C381 C386 1.501 . S
C382 C383 1.387 . S
C382 N385 1.341 . S
C383 C381 1.400 . S
C383 C382 1.387 . S
N384 Co375 2.022 . S
N384 C381 1.351 . S
N384 N385 1.365 . S
N385 C382 1.341 . S
N385 N384 1.365 . S
N385 H405 0.862 . S
C386 C381 1.501 . S
C386 H387 0.961 . S
C386 H388 0.961 . S
C386 H389 0.960 . S
H387 C386 0.961 . S
H388 C386 0.961 . S
H389 C386 0.960 . S
C390 N391 1.342 . S
C390 C394 1.401 . S
C390 C395 1.499 . S
N391 Co374 1.989 . S
N391 C390 1.342 . S
N391 N392 1.388 . S
N392 Co375 1.993 . S
N392 N391 1.388 . S
N392 C393 1.346 . S
C393 N392 1.346 . S
C393 C394 1.396 . S
C393 C403 1.510 . S
C394 C390 1.401 . S
C394 C393 1.396 . S
C395 C390 1.499 . S
C395 H396 0.959 . S
C395 H397 0.960 . S
C395 H398 0.961 . S
H396 C395 0.959 . S
H397 C395 0.960 . S
H398 C395 0.961 . S
O399 Co374 1.967 . S
O399 C407 1.258 . S
O400 Co375 1.941 . S
O400 C407 1.266 . S
H401 C403 0.959 . S
H402 C403 0.961 . S
C403 C393 1.510 . S
C403 H401 0.959 . S
C403 H402 0.961 . S
C403 H404 0.960 . S
H404 C403 0.960 . S
H405 N385 0.862 . S
O406 Co374 1.920 . S
O406 C379 1.289 . S
C407 O399 1.258 . S
C407 O400 1.266 . S
Co408 O411 1.970 . S
Co408 N425 1.989 1_554 S
Co408 O433 1.967 . S
Co408 O440 1.920 . S
Co409 O412 1.966 . S
Co409 N418 2.022 . S
Co409 N426 1.993 1_554 S
Co409 O434 1.941 . S
C410 O411 1.258 . S
C410 O412 1.263 . S
O411 Co408 1.970 . S
O411 C410 1.258 . S
O412 Co409 1.966 . S
O412 C410 1.263 . S
C413 O414 1.235 1_554 S
C413 O440 1.289 . S
O414 C413 1.235 1_556 S
C415 C417 1.400 . S
C415 N418 1.351 1_556 S
C415 C420 1.501 . S
C416 C417 1.387 . S
C416 N419 1.341 . S
C417 C415 1.400 . S
C417 C416 1.387 . S
N418 Co409 2.022 . S
N418 C415 1.351 1_554 S
N418 N419 1.365 1_554 S
N419 C416 1.341 . S
N419 N418 1.365 1_556 S
N419 H439 0.862 1_556 S
C420 C415 1.501 . S
C420 H421 0.961 1_556 S
C420 H422 0.961 . S
C420 H423 0.960 1_556 S
H421 C420 0.961 1_554 S
H422 C420 0.961 . S
H423 C420 0.960 1_554 S
C424 N425 1.342 . S
C424 C428 1.401 . S
C424 C429 1.499 . S
N425 Co408 1.989 1_556 S
N425 C424 1.342 . S
N425 N426 1.388 . S
N426 Co409 1.993 1_556 S
N426 N425 1.388 . S
N426 C427 1.346 . S
C427 N426 1.346 . S
C427 C428 1.396 . S
C427 C437 1.510 . S
C428 C424 1.401 . S
C428 C427 1.396 . S
C429 C424 1.499 . S
C429 H430 0.959 . S
C429 H431 0.960 . S
C429 H432 0.961 . S
H430 C429 0.959 . S
H431 C429 0.960 . S
H432 C429 0.961 . S
O433 Co408 1.967 . S
O433 C441 1.258 . S
O434 Co409 1.941 . S
O434 C441 1.266 . S
H435 C437 0.959 . S
H436 C437 0.961 . S
C437 C427 1.510 . S
C437 H435 0.959 . S
C437 H436 0.961 . S
C437 H438 0.960 . S
H438 C437 0.960 . S
H439 N419 0.862 1_554 S
O440 Co408 1.920 . S
O440 C413 1.289 . S
C441 O433 1.258 . S
C441 O434 1.266 . S
Co442 O445 1.970 . S
Co442 N459 1.989 . S
Co442 O467 1.967 . S
Co442 O474 1.920 . S
Co443 O446 1.966 . S
Co443 N452 2.022 . S
Co443 N460 1.993 . S
Co443 O468 1.941 . S
C444 O445 1.258 . S
C444 O446 1.263 . S
O445 Co442 1.970 . S
O445 C444 1.258 . S
O446 Co443 1.966 . S
O446 C444 1.263 . S
C447 O448 1.235 . S
C447 O474 1.289 . S
O448 C447 1.235 . S
C449 C451 1.400 . S
C449 N452 1.351 . S
C449 C454 1.501 . S
C450 C451 1.387 . S
C450 N453 1.341 . S
C451 C449 1.400 . S
C451 C450 1.387 . S
N452 Co443 2.022 . S
N452 C449 1.351 . S
N452 N453 1.365 . S
N453 C450 1.341 . S
N453 N452 1.365 . S
N453 H473 0.862 . S
C454 C449 1.501 . S
C454 H455 0.961 . S
C454 H456 0.961 . S
C454 H457 0.960 . S
H455 C454 0.961 . S
H456 C454 0.961 . S
H457 C454 0.960 . S
C458 N459 1.342 . S
C458 C462 1.401 . S
C458 C463 1.499 . S
N459 Co442 1.989 . S
N459 C458 1.342 . S
N459 N460 1.388 . S
N460 Co443 1.993 . S
N460 N459 1.388 . S
N460 C461 1.346 . S
C461 N460 1.346 . S
C461 C462 1.396 . S
C461 C471 1.510 . S
C462 C458 1.401 . S
C462 C461 1.396 . S
C463 C458 1.499 . S
C463 H464 0.959 . S
C463 H465 0.960 . S
C463 H466 0.961 . S
H464 C463 0.959 . S
H465 C463 0.960 . S
H466 C463 0.961 . S
O467 Co442 1.967 . S
O467 C475 1.258 . S
O468 Co443 1.941 . S
O468 C475 1.266 . S
H469 C471 0.959 . S
H470 C471 0.961 . S
C471 C461 1.510 . S
C471 H469 0.959 . S
C471 H470 0.961 . S
C471 H472 0.960 . S
H472 C471 0.960 . S
H473 N453 0.862 . S
O474 Co442 1.920 . S
O474 C447 1.289 . S
C475 O467 1.258 . S
C475 O468 1.266 . S
Co476 O479 1.970 . S
Co476 N493 1.989 . S
Co476 O501 1.967 . S
Co476 O508 1.920 . S
Co477 O480 1.966 . S
Co477 N486 2.022 . S
Co477 N494 1.993 . S
Co477 O502 1.941 . S
C478 O479 1.258 . S
C478 O480 1.263 . S
O479 Co476 1.970 . S
O479 C478 1.258 . S
O480 Co477 1.966 . S
O480 C478 1.263 . S
C481 O482 1.235 . S
C481 O508 1.289 . S
O482 C481 1.235 . S
C483 C485 1.400 . S
C483 N486 1.351 . S
C483 C488 1.501 . S
C484 C485 1.387 . S
C484 N487 1.341 . S
C485 C483 1.400 . S
C485 C484 1.387 . S
N486 Co477 2.022 . S
N486 C483 1.351 . S
N486 N487 1.365 . S
N487 C484 1.341 . S
N487 N486 1.365 . S
N487 H507 0.862 . S
C488 C483 1.501 . S
C488 H489 0.961 . S
C488 H490 0.961 . S
C488 H491 0.960 . S
H489 C488 0.961 . S
H490 C488 0.961 . S
H491 C488 0.960 . S
C492 N493 1.342 . S
C492 C496 1.401 . S
C492 C497 1.499 . S
N493 Co476 1.989 . S
N493 C492 1.342 . S
N493 N494 1.388 . S
N494 Co477 1.993 . S
N494 N493 1.388 . S
N494 C495 1.346 . S
C495 N494 1.346 . S
C495 C496 1.396 . S
C495 C505 1.510 . S
C496 C492 1.401 . S
C496 C495 1.396 . S
C497 C492 1.499 . S
C497 H498 0.959 . S
C497 H499 0.960 . S
C497 H500 0.961 . S
H498 C497 0.959 . S
H499 C497 0.960 . S
H500 C497 0.961 . S
O501 Co476 1.967 . S
O501 C509 1.258 . S
O502 Co477 1.941 . S
O502 C509 1.266 . S
H503 C505 0.959 . S
H504 C505 0.961 . S
C505 C495 1.510 . S
C505 H503 0.959 . S
C505 H504 0.961 . S
C505 H506 0.960 . S
H506 C505 0.960 . S
H507 N487 0.862 . S
O508 Co476 1.920 . S
O508 C481 1.289 . S
C509 O501 1.258 . S
C509 O502 1.266 . S
Co510 O513 1.970 . S
Co510 N527 1.989 . S
Co510 O535 1.967 . S
Co510 O542 1.920 . S
Co511 O514 1.966 . S
Co511 N520 2.022 . S
Co511 N528 1.993 . S
Co511 O536 1.941 . S
C512 O513 1.258 . S
C512 O514 1.263 . S
O513 Co510 1.970 . S
O513 C512 1.258 . S
O514 Co511 1.966 . S
O514 C512 1.263 . S
C515 O516 1.235 . S
C515 O542 1.289 . S
O516 C515 1.235 . S
C517 C519 1.400 . S
C517 N520 1.351 . S
C517 C522 1.501 . S
C518 C519 1.387 . S
C518 N521 1.341 . S
C519 C517 1.400 . S
C519 C518 1.387 . S
N520 Co511 2.022 . S
N520 C517 1.351 . S
N520 N521 1.365 . S
N521 C518 1.341 . S
N521 N520 1.365 . S
N521 H541 0.862 . S
C522 C517 1.501 . S
C522 H523 0.961 . S
C522 H524 0.961 . S
C522 H525 0.960 . S
H523 C522 0.961 . S
H524 C522 0.961 . S
H525 C522 0.960 . S
C526 N527 1.342 . S
C526 C530 1.401 . S
C526 C531 1.499 . S
N527 Co510 1.989 . S
N527 C526 1.342 . S
N527 N528 1.388 . S
N528 Co511 1.993 . S
N528 N527 1.388 . S
N528 C529 1.346 . S
C529 N528 1.346 . S
C529 C530 1.396 . S
C529 C539 1.510 . S
C530 C526 1.401 . S
C530 C529 1.396 . S
C531 C526 1.499 . S
C531 H532 0.959 . S
C531 H533 0.960 . S
C531 H534 0.961 . S
H532 C531 0.959 . S
H533 C531 0.960 . S
H534 C531 0.961 . S
O535 Co510 1.967 . S
O535 C543 1.258 . S
O536 Co511 1.941 . S
O536 C543 1.266 . S
H537 C539 0.959 . S
H538 C539 0.961 . S
C539 C529 1.510 . S
C539 H537 0.959 . S
C539 H538 0.961 . S
C539 H540 0.960 . S
H540 C539 0.960 . S
H541 N521 0.862 . S
O542 Co510 1.920 . S
O542 C515 1.289 . S
C543 O535 1.258 . S
C543 O536 1.266 . S
H544 C562 0.951 . S
H545 C564 0.951 . S
H546 C566 0.950 1_545 S
H547 C567 0.950 . S
H548 C569 0.950 . S
H549 C572 0.950 . S
H550 C573 0.950 . S
H551 C575 0.950 . S
H552 C576 0.950 1_455 S
H553 C577 0.951 . S
H554 C579 0.951 . S
H555 C581 0.950 1_565 S
H556 C582 0.950 . S
H557 C584 0.950 . S
H558 C587 0.950 . S
H559 C588 0.950 . S
H560 C590 0.950 . S
H561 C591 0.950 1_655 S
C562 H544 0.951 . S
C562 C563 1.366 . S
C562 C564 1.388 . S
C563 C562 1.366 . S
C563 C567 1.385 1_554 S
C564 H545 0.951 . S
C564 C562 1.388 . S
C564 C565 1.366 . S
C565 C564 1.366 . S
C565 C566 1.414 1_554 S
C565 C568 1.499 . S
C566 H546 0.950 1_565 S
C566 C565 1.414 1_556 S
C566 C567 1.374 . S
C567 H547 0.950 . S
C567 C563 1.385 1_556 S
C567 C566 1.374 . S
C568 C565 1.499 . S
C568 C569 1.373 1_554 S
C568 C570 1.389 . S
C569 H548 0.950 . S
C569 C568 1.373 1_556 S
C569 C585 1.377 1_665 S
C570 C568 1.389 . S
C570 C571 1.524 . S
C570 C584 1.377 1_665 S
C571 C570 1.524 . S
C571 C572 1.397 1_565 S
C571 C576 1.363 . S
C572 H549 0.950 . S
C572 C571 1.397 1_545 S
C572 C573 1.334 . S
C573 H550 0.950 . S
C573 C572 1.334 . S
C573 C574 1.287 1_545 S
C574 C573 1.287 1_565 S
C574 C575 1.524 . S
C574 H593 0.913 . S
C575 H551 0.950 . S
C575 C574 1.524 . S
C575 C576 1.415 . S
C576 H552 0.950 1_655 S
C576 C571 1.363 . S
C576 C575 1.415 . S
C577 H553 0.951 . S
C577 C578 1.366 1_556 S
C577 C579 1.388 . S
C578 C577 1.366 1_554 S
C578 C582 1.385 . S
C579 H554 0.951 . S
C579 C577 1.388 . S
C579 C580 1.366 1_556 S
C580 C579 1.366 1_554 S
C580 C581 1.414 . S
C580 C583 1.499 . S
C581 H555 0.950 1_545 S
C581 C580 1.414 . S
C581 C582 1.374 . S
C582 H556 0.950 . S
C582 C578 1.385 . S
C582 C581 1.374 . S
C583 C580 1.499 . S
C583 C584 1.373 . S
C583 C585 1.389 1_554 S
C584 H557 0.950 . S
C584 C570 1.377 1_445 S
C584 C583 1.373 . S
C585 C569 1.377 1_445 S
C585 C583 1.389 1_556 S
C585 C586 1.524 . S
C586 C585 1.524 . S
C586 C587 1.397 1_545 S
C586 C591 1.363 . S
C587 H558 0.950 . S
C587 C586 1.397 1_565 S
C587 C588 1.334 . S
C588 H559 0.950 . S
C588 C587 1.334 . S
C588 C589 1.287 1_565 S
C589 C588 1.287 1_545 S
C589 C590 1.524 . S
C589 H592 0.999 . S
C590 H560 0.950 . S
C590 C589 1.524 . S
C590 C591 1.415 . S
C591 H561 0.950 1_455 S
C591 C586 1.363 . S
C591 C590 1.415 . S
H592 C589 0.999 . S
H593 C574 0.913 . S
H594 C612 0.951 . S
H595 C614 0.951 1_455 S
H596 C616 0.950 . S
H597 C617 0.950 . S
H598 C619 0.950 . S
H599 C622 0.950 . S
H600 C623 0.950 . S
H601 C625 0.950 . S
H602 C626 0.950 . S
H603 C627 0.951 . S
H604 C629 0.951 1_655 S
H605 C631 0.950 . S
H606 C632 0.950 . S
H607 C634 0.950 . S
H608 C637 0.950 . S
H609 C638 0.950 . S
H610 C640 0.950 . S
H611 C641 0.950 . S
C612 H594 0.951 . S
C612 C613 1.366 . S
C612 C614 1.388 . S
C613 C612 1.366 . S
C613 C617 1.385 . S
C614 H595 0.951 1_655 S
C614 C612 1.388 . S
C614 C615 1.366 . S
C615 C614 1.366 . S
C615 C616 1.414 . S
C615 C618 1.499 . S
C616 H596 0.950 . S
C616 C615 1.414 . S
C616 C617 1.374 . S
C617 H597 0.950 . S
C617 C613 1.385 . S
C617 C616 1.374 . S
C618 C615 1.499 . S
C618 C619 1.373 . S
C618 C620 1.389 1_655 S
C619 H598 0.950 . S
C619 C618 1.373 . S
C619 C635 1.377 . S
C620 C618 1.389 1_455 S
C620 C621 1.524 . S
C620 C634 1.377 . S
C621 C620 1.524 . S
C621 C622 1.397 . S
C621 C626 1.363 . S
C622 H599 0.950 . S
C622 C621 1.397 . S
C622 C623 1.334 . S
C623 H600 0.950 . S
C623 C622 1.334 . S
C623 C624 1.287 . S
C624 C623 1.287 . S
C624 C625 1.524 . S
C624 H643 0.913 . S
C625 H601 0.950 . S
C625 C624 1.524 . S
C625 C626 1.415 . S
C626 H602 0.950 . S
C626 C621 1.363 . S
C626 C625 1.415 . S
C627 H603 0.951 . S
C627 C628 1.366 . S
C627 C629 1.388 . S
C628 C627 1.366 . S
C628 C632 1.385 . S
C629 H604 0.951 1_455 S
C629 C627 1.388 . S
C629 C630 1.366 . S
C630 C629 1.366 . S
C630 C631 1.414 . S
C630 C633 1.499 . S
C631 H605 0.950 . S
C631 C630 1.414 . S
C631 C632 1.374 . S
C632 H606 0.950 . S
C632 C628 1.385 . S
C632 C631 1.374 . S
C633 C630 1.499 . S
C633 C634 1.373 . S
C633 C635 1.389 1_455 S
C634 H607 0.950 . S
C634 C620 1.377 . S
C634 C633 1.373 . S
C635 C619 1.377 . S
C635 C633 1.389 1_655 S
C635 C636 1.524 . S
C636 C635 1.524 . S
C636 C637 1.397 . S
C636 C641 1.363 . S
C637 H608 0.950 . S
C637 C636 1.397 . S
C637 C638 1.334 . S
C638 H609 0.950 . S
C638 C637 1.334 . S
C638 C639 1.287 . S
C639 C638 1.287 . S
C639 C640 1.524 . S
C639 H642 0.999 . S
C640 H610 0.950 . S
C640 C639 1.524 . S
C640 C641 1.415 . S
C641 H611 0.950 . S
C641 C636 1.363 . S
C641 C640 1.415 . S
H642 C639 0.999 . S
H643 C624 0.913 . S
H644 C662 0.951 . S
H645 C664 0.951 . S
H646 C666 0.950 . S
H647 C667 0.950 . S
H648 C669 0.950 . S
H649 C672 0.950 . S
H650 C673 0.950 . S
H651 C675 0.950 . S
H652 C676 0.950 . S
H653 C677 0.951 . S
H654 C679 0.951 . S
H655 C681 0.950 . S
H656 C682 0.950 . S
H657 C684 0.950 . S
H658 C687 0.950 . S
H659 C688 0.950 . S
H660 C690 0.950 . S
H661 C691 0.950 . S
C662 H644 0.951 . S
C662 C663 1.366 . S
C662 C664 1.388 . S
C663 C662 1.366 . S
C663 C667 1.385 . S
C664 H645 0.951 . S
C664 C662 1.388 . S
C664 C665 1.366 . S
C665 C664 1.366 . S
C665 C666 1.414 . S
C665 C668 1.499 . S
C666 H646 0.950 . S
C666 C665 1.414 . S
C666 C667 1.374 . S
C667 H647 0.950 . S
C667 C663 1.385 . S
C667 C666 1.374 . S
C668 C665 1.499 . S
C668 C669 1.373 . S
C668 C670 1.389 . S
C669 H648 0.950 . S
C669 C668 1.373 . S
C669 C685 1.377 . S
C670 C668 1.389 . S
C670 C671 1.524 . S
C670 C684 1.377 . S
C671 C670 1.524 . S
C671 C672 1.397 . S
C671 C676 1.363 . S
C672 H649 0.950 . S
C672 C671 1.397 . S
C672 C673 1.334 . S
C673 H650 0.950 . S
C673 C672 1.334 . S
C673 C674 1.287 . S
C674 C673 1.287 . S
C674 C675 1.524 . S
C674 H693 0.913 . S
C675 H651 0.950 . S
C675 C674 1.524 . S
C675 C676 1.415 . S
C676 H652 0.950 . S
C676 C671 1.363 . S
C676 C675 1.415 . S
C677 H653 0.951 . S
C677 C678 1.366 . S
C677 C679 1.388 . S
C678 C677 1.366 . S
C678 C682 1.385 . S
C679 H654 0.951 . S
C679 C677 1.388 . S
C679 C680 1.366 . S
C680 C679 1.366 . S
C680 C681 1.414 . S
C680 C683 1.499 . S
C681 H655 0.950 . S
C681 C680 1.414 . S
C681 C682 1.374 . S
C682 H656 0.950 . S
C682 C678 1.385 . S
C682 C681 1.374 . S
C683 C680 1.499 . S
C683 C684 1.373 . S
C683 C685 1.389 . S
C684 H657 0.950 . S
C684 C670 1.377 . S
C684 C683 1.373 . S
C685 C669 1.377 . S
C685 C683 1.389 . S
C685 C686 1.524 . S
C686 C685 1.524 . S
C686 C687 1.397 . S
C686 C691 1.363 . S
C687 H658 0.950 . S
C687 C686 1.397 . S
C687 C688 1.334 . S
C688 H659 0.950 . S
C688 C687 1.334 . S
C688 C689 1.287 . S
C689 C688 1.287 . S
C689 C690 1.524 . S
C689 H692 0.999 . S
C690 H660 0.950 . S
C690 C689 1.524 . S
C690 C691 1.415 . S
C691 H661 0.950 . S
C691 C686 1.363 . S
C691 C690 1.415 . S
H692 C689 0.999 . S
H693 C674 0.913 . S
H694 C712 0.951 . S
H695 C714 0.951 . S
H696 C716 0.950 . S
H697 C717 0.950 . S
H698 C719 0.950 . S
H699 C722 0.950 . S
H700 C723 0.950 . S
H701 C725 0.950 . S
H702 C726 0.950 . S
H703 C727 0.951 . S
H704 C729 0.951 . S
H705 C731 0.950 . S
H706 C732 0.950 . S
H707 C734 0.950 . S
H708 C737 0.950 . S
H709 C738 0.950 . S
H710 C740 0.950 . S
H711 C741 0.950 . S
C712 H694 0.951 . S
C712 C713 1.366 . S
C712 C714 1.388 . S
C713 C712 1.366 . S
C713 C717 1.385 . S
C714 H695 0.951 . S
C714 C712 1.388 . S
C714 C715 1.366 . S
C715 C714 1.366 . S
C715 C716 1.414 . S
C715 C718 1.499 . S
C716 H696 0.950 . S
C716 C715 1.414 . S
C716 C717 1.374 . S
C717 H697 0.950 . S
C717 C713 1.385 . S
C717 C716 1.374 . S
C718 C715 1.499 . S
C718 C719 1.373 . S
C718 C720 1.389 . S
C719 H698 0.950 . S
C719 C718 1.373 . S
C719 C735 1.377 1_565 S
C720 C718 1.389 . S
C720 C721 1.524 . S
C720 C734 1.377 1_565 S
C721 C720 1.524 . S
C721 C722 1.397 . S
C721 C726 1.363 1_565 S
C722 H699 0.950 . S
C722 C721 1.397 . S
C722 C723 1.334 . S
C723 H700 0.950 . S
C723 C722 1.334 . S
C723 C724 1.287 . S
C724 C723 1.287 . S
C724 C725 1.524 1_565 S
C724 H743 0.913 . S
C725 H701 0.950 . S
C725 C724 1.524 1_545 S
C725 C726 1.415 . S
C726 H702 0.950 . S
C726 C721 1.363 1_545 S
C726 C725 1.415 . S
C727 H703 0.951 . S
C727 C728 1.366 . S
C727 C729 1.388 . S
C728 C727 1.366 . S
C728 C732 1.385 . S
C729 H704 0.951 . S
C729 C727 1.388 . S
C729 C730 1.366 . S
C730 C729 1.366 . S
C730 C731 1.414 . S
C730 C733 1.499 . S
C731 H705 0.950 . S
C731 C730 1.414 . S
C731 C732 1.374 . S
C732 H706 0.950 . S
C732 C728 1.385 . S
C732 C731 1.374 . S
C733 C730 1.499 . S
C733 C734 1.373 . S
C733 C735 1.389 . S
C734 H707 0.950 . S
C734 C720 1.377 1_545 S
C734 C733 1.373 . S
C735 C719 1.377 1_545 S
C735 C733 1.389 . S
C735 C736 1.524 . S
C736 C735 1.524 . S
C736 C737 1.397 . S
C736 C741 1.363 1_545 S
C737 H708 0.950 . S
C737 C736 1.397 . S
C737 C738 1.334 . S
C738 H709 0.950 . S
C738 C737 1.334 . S
C738 C739 1.287 . S
C739 C738 1.287 . S
C739 C740 1.524 1_545 S
C739 H742 0.999 . S
C740 H710 0.950 . S
C740 C739 1.524 1_565 S
C740 C741 1.415 . S
C741 H711 0.950 . S
C741 C736 1.363 1_565 S
C741 C740 1.415 . S
H742 C739 0.999 . S
H743 C724 0.913 . S
H744 C762 0.951 . S
H745 C764 0.951 . S
H746 C766 0.950 . S
H747 C767 0.950 . S
H748 C769 0.950 . S
H749 C772 0.950 . S
H750 C773 0.950 . S
H751 C775 0.950 . S
H752 C776 0.950 . S
H753 C777 0.951 . S
H754 C779 0.951 . S
H755 C781 0.950 . S
H756 C782 0.950 . S
H757 C784 0.950 . S
H758 C787 0.950 . S
H759 C788 0.950 . S
H760 C790 0.950 . S
H761 C791 0.950 . S
C762 H744 0.951 . S
C762 C763 1.366 . S
C762 C764 1.388 . S
C763 C762 1.366 . S
C763 C767 1.385 . S
C764 H745 0.951 . S
C764 C762 1.388 . S
C764 C765 1.366 . S
C765 C764 1.366 . S
C765 C766 1.414 . S
C765 C768 1.499 . S
C766 H746 0.950 . S
C766 C765 1.414 . S
C766 C767 1.374 . S
C767 H747 0.950 . S
C767 C763 1.385 . S
C767 C766 1.374 . S
C768 C765 1.499 . S
C768 C769 1.373 . S
C768 C770 1.389 1_565 S
C769 H748 0.950 . S
C769 C768 1.373 . S
C769 C785 1.377 1_455 S
C770 C768 1.389 1_545 S
C770 C771 1.524 . S
C770 C784 1.377 1_455 S
C771 C770 1.524 . S
C771 C772 1.397 . S
C771 C776 1.363 . S
C772 H749 0.950 . S
C772 C771 1.397 . S
C772 C773 1.334 . S
C773 H750 0.950 . S
C773 C772 1.334 . S
C773 C774 1.287 . S
C774 C773 1.287 . S
C774 C775 1.524 . S
C774 H793 0.913 . S
C775 H751 0.950 . S
C775 C774 1.524 . S
C775 C776 1.415 . S
C776 H752 0.950 . S
C776 C771 1.363 . S
C776 C775 1.415 . S
C777 H753 0.951 . S
C777 C778 1.366 . S
C777 C779 1.388 . S
C778 C777 1.366 . S
C778 C782 1.385 . S
C779 H754 0.951 . S
C779 C777 1.388 . S
C779 C780 1.366 . S
C780 C779 1.366 . S
C780 C781 1.414 . S
C780 C783 1.499 . S
C781 H755 0.950 . S
C781 C780 1.414 . S
C781 C782 1.374 . S
C782 H756 0.950 . S
C782 C778 1.385 . S
C782 C781 1.374 . S
C783 C780 1.499 . S
C783 C784 1.373 . S
C783 C785 1.389 1_545 S
C784 H757 0.950 . S
C784 C770 1.377 1_655 S
C784 C783 1.373 . S
C785 C769 1.377 1_655 S
C785 C783 1.389 1_565 S
C785 C786 1.524 . S
C786 C785 1.524 . S
C786 C787 1.397 . S
C786 C791 1.363 . S
C787 H758 0.950 . S
C787 C786 1.397 . S
C787 C788 1.334 . S
C788 H759 0.950 . S
C788 C787 1.334 . S
C788 C789 1.287 . S
C789 C788 1.287 . S
C789 C790 1.524 . S
C789 H792 0.999 . S
C790 H760 0.950 . S
C790 C789 1.524 . S
C790 C791 1.415 . S
C791 H761 0.950 . S
C791 C786 1.363 . S
C791 C790 1.415 . S
H792 C789 0.999 . S
H793 C774 0.913 . S
H794 C812 0.951 . S
H795 C814 0.951 . S
H796 C816 0.950 . S
H797 C817 0.950 . S
H798 C819 0.950 . S
H799 C822 0.950 . S
H800 C823 0.950 . S
H801 C825 0.950 . S
H802 C826 0.950 . S
H803 C827 0.951 . S
H804 C829 0.951 . S
H805 C831 0.950 . S
H806 C832 0.950 . S
H807 C834 0.950 . S
H808 C837 0.950 . S
H809 C838 0.950 . S
H810 C840 0.950 . S
H811 C841 0.950 . S
C812 H794 0.951 . S
C812 C813 1.366 . S
C812 C814 1.388 . S
C813 C812 1.366 . S
C813 C817 1.385 . S
C814 H795 0.951 . S
C814 C812 1.388 . S
C814 C815 1.366 . S
C815 C814 1.366 . S
C815 C816 1.414 . S
C815 C818 1.499 . S
C816 H796 0.950 . S
C816 C815 1.414 . S
C816 C817 1.374 . S
C817 H797 0.950 . S
C817 C813 1.385 . S
C817 C816 1.374 . S
C818 C815 1.499 . S
C818 C819 1.373 1_655 S
C818 C820 1.389 . S
C819 H798 0.950 . S
C819 C818 1.373 1_455 S
C819 C835 1.377 . S
C820 C818 1.389 . S
C820 C821 1.524 . S
C820 C834 1.377 . S
C821 C820 1.524 . S
C821 C822 1.397 . S
C821 C826 1.363 . S
C822 H799 0.950 . S
C822 C821 1.397 . S
C822 C823 1.334 . S
C823 H800 0.950 . S
C823 C822 1.334 . S
C823 C824 1.287 . S
C824 C823 1.287 . S
C824 C825 1.524 . S
C824 H843 0.913 . S
C825 H801 0.950 . S
C825 C824 1.524 . S
C825 C826 1.415 . S
C826 H802 0.950 . S
C826 C821 1.363 . S
C826 C825 1.415 . S
C827 H803 0.951 . S
C827 C828 1.366 . S
C827 C829 1.388 . S
C828 C827 1.366 . S
C828 C832 1.385 . S
C829 H804 0.951 . S
C829 C827 1.388 . S
C829 C830 1.366 . S
C830 C829 1.366 . S
C830 C831 1.414 . S
C830 C833 1.499 . S
C831 H805 0.950 . S
C831 C830 1.414 . S
C831 C832 1.374 . S
C832 H806 0.950 . S
C832 C828 1.385 . S
C832 C831 1.374 . S
C833 C830 1.499 . S
C833 C834 1.373 1_455 S
C833 C835 1.389 . S
C834 H807 0.950 . S
C834 C820 1.377 . S
C834 C833 1.373 1_655 S
C835 C819 1.377 . S
C835 C833 1.389 . S
C835 C836 1.524 . S
C836 C835 1.524 . S
C836 C837 1.397 . S
C836 C841 1.363 . S
C837 H808 0.950 . S
C837 C836 1.397 . S
C837 C838 1.334 . S
C838 H809 0.950 . S
C838 C837 1.334 . S
C838 C839 1.287 . S
C839 C838 1.287 . S
C839 C840 1.524 . S
C839 H842 0.999 . S
C840 H810 0.950 . S
C840 C839 1.524 . S
C840 C841 1.415 . S
C841 H811 0.950 . S
C841 C836 1.363 . S
C841 C840 1.415 . S
H842 C839 0.999 . S
H843 C824 0.913 . S
H844 C862 0.951 . S
H845 C864 0.951 . S
H846 C866 0.950 . S
H847 C867 0.950 . S
H848 C869 0.950 . S
H849 C872 0.950 . S
H850 C873 0.950 . S
H851 C875 0.950 . S
H852 C876 0.950 . S
H853 C877 0.951 . S
H854 C879 0.951 . S
H855 C881 0.950 . S
H856 C882 0.950 . S
H857 C884 0.950 . S
H858 C887 0.950 . S
H859 C888 0.950 . S
H860 C890 0.950 . S
H861 C891 0.950 . S
C862 H844 0.951 . S
C862 C863 1.366 . S
C862 C864 1.388 . S
C863 C862 1.366 . S
C863 C867 1.385 . S
C864 H845 0.951 . S
C864 C862 1.388 . S
C864 C865 1.366 . S
C865 C864 1.366 . S
C865 C866 1.414 . S
C865 C868 1.499 . S
C866 H846 0.950 . S
C866 C865 1.414 . S
C866 C867 1.374 . S
C867 H847 0.950 . S
C867 C863 1.385 . S
C867 C866 1.374 . S
C868 C865 1.499 . S
C868 C869 1.373 1_554 S
C868 C870 1.389 . S
C869 H848 0.950 . S
C869 C868 1.373 1_556 S
C869 C885 1.377 . S
C870 C868 1.389 . S
C870 C871 1.524 . S
C870 C884 1.377 . S
C871 C870 1.524 . S
C871 C872 1.397 . S
C871 C876 1.363 . S
C872 H849 0.950 . S
C872 C871 1.397 . S
C872 C873 1.334 . S
C873 H850 0.950 . S
C873 C872 1.334 . S
C873 C874 1.287 . S
C874 C873 1.287 . S
C874 C875 1.524 . S
C874 H893 0.913 . S
C875 H851 0.950 . S
C875 C874 1.524 . S
C875 C876 1.415 . S
C876 H852 0.950 . S
C876 C871 1.363 . S
C876 C875 1.415 . S
C877 H853 0.951 . S
C877 C878 1.366 . S
C877 C879 1.388 . S
C878 C877 1.366 . S
C878 C882 1.385 . S
C879 H854 0.951 . S
C879 C877 1.388 . S
C879 C880 1.366 . S
C880 C879 1.366 . S
C880 C881 1.414 . S
C880 C883 1.499 . S
C881 H855 0.950 . S
C881 C880 1.414 . S
C881 C882 1.374 . S
C882 H856 0.950 . S
C882 C878 1.385 . S
C882 C881 1.374 . S
C883 C880 1.499 . S
C883 C884 1.373 . S
C883 C885 1.389 1_554 S
C884 H857 0.950 . S
C884 C870 1.377 . S
C884 C883 1.373 . S
C885 C869 1.377 . S
C885 C883 1.389 1_556 S
C885 C886 1.524 . S
C886 C885 1.524 . S
C886 C887 1.397 . S
C886 C891 1.363 . S
C887 H858 0.950 . S
C887 C886 1.397 . S
C887 C888 1.334 . S
C888 H859 0.950 . S
C888 C887 1.334 . S
C888 C889 1.287 . S
C889 C888 1.287 . S
C889 C890 1.524 . S
C889 H892 0.999 . S
C890 H860 0.950 . S
C890 C889 1.524 . S
C890 C891 1.415 . S
C891 H861 0.950 . S
C891 C886 1.363 . S
C891 C890 1.415 . S
H892 C889 0.999 . S
H893 C874 0.913 . S
H894 C912 0.951 . S
H895 C914 0.951 . S
H896 C916 0.950 . S
H897 C917 0.950 . S
H898 C919 0.950 . S
H899 C922 0.950 . S
H900 C923 0.950 . S
H901 C925 0.943 1_545 S
H902 C926 0.941 1_545 S
H903 C927 0.951 . S
H904 C929 0.951 . S
H905 C931 0.950 . S
H906 C932 0.950 . S
H907 C934 0.950 . S
H908 C937 0.950 . S
H909 C938 0.950 . S
H910 C940 0.943 1_565 S
H911 C941 0.941 1_565 S
C912 H894 0.951 . S
C912 C913 1.366 . S
C912 C914 1.388 . S
C913 C912 1.366 . S
C913 C917 1.385 . S
C914 H895 0.951 . S
C914 C912 1.388 . S
C914 C915 1.366 . S
C915 C914 1.366 . S
C915 C916 1.414 . S
C915 C918 1.499 . S
C916 H896 0.950 . S
C916 C915 1.414 . S
C916 C917 1.374 . S
C917 H897 0.950 . S
C917 C913 1.385 . S
C917 C916 1.374 . S
C918 C915 1.499 . S
C918 C919 1.373 . S
C918 C920 1.389 . S
C919 H898 0.950 . S
C919 C918 1.373 . S
C919 C935 1.377 1_565 S
C920 C918 1.389 . S
C920 C921 1.524 . S
C920 C934 1.377 1_565 S
C921 C920 1.524 . S
C921 C922 1.397 . S
C921 C926 1.372 . S
C922 H899 0.950 . S
C922 C921 1.397 . S
C922 C923 1.334 . S
C923 H900 0.950 . S
C923 C922 1.334 . S
C923 C924 1.287 . S
C924 C923 1.287 . S
C924 C925 1.524 . S
C924 H943 0.913 . S
C925 H901 0.943 1_565 S
C925 C924 1.524 . S
C925 C926 1.417 . S
C926 H902 0.941 1_565 S
C926 C921 1.372 . S
C926 C925 1.417 . S
C927 H903 0.951 . S
C927 C928 1.366 . S
C927 C929 1.388 . S
C928 C927 1.366 . S
C928 C932 1.385 . S
C929 H904 0.951 . S
C929 C927 1.388 . S
C929 C930 1.366 . S
C930 C929 1.366 . S
C930 C931 1.414 . S
C930 C933 1.499 . S
C931 H905 0.950 . S
C931 C930 1.414 . S
C931 C932 1.374 . S
C932 H906 0.950 . S
C932 C928 1.385 . S
C932 C931 1.374 . S
C933 C930 1.499 . S
C933 C934 1.373 . S
C933 C935 1.389 . S
C934 H907 0.950 . S
C934 C920 1.377 1_545 S
C934 C933 1.373 . S
C935 C919 1.377 1_545 S
C935 C933 1.389 . S
C935 C936 1.524 . S
C936 C935 1.524 . S
C936 C937 1.397 . S
C936 C941 1.372 . S
C937 H908 0.950 . S
C937 C936 1.397 . S
C937 C938 1.334 . S
C938 H909 0.950 . S
C938 C937 1.334 . S
C938 C939 1.287 . S
C939 C938 1.287 . S
C939 C940 1.524 . S
C939 H942 0.999 . S
C940 H910 0.943 1_545 S
C940 C939 1.524 . S
C940 C941 1.417 . S
C941 H911 0.941 1_545 S
C941 C936 1.372 . S
C941 C940 1.417 . S
H942 C939 0.999 . S
H943 C924 0.913 . S
H944 C962 0.951 . S
H945 C964 0.951 . S
H946 C966 0.914 1_545 S
H947 C967 0.983 . S
H948 C969 0.950 . S
H949 C972 0.950 . S
H950 C973 0.950 . S
H951 C975 0.950 . S
H952 C976 0.950 . S
H953 C977 0.951 . S
H954 C979 0.951 . S
H955 C981 0.950 1_565 S
H956 C982 0.950 . S
H957 C984 0.950 . S
H958 C987 0.950 . S
H959 C988 0.950 . S
H960 C990 0.950 . S
H961 C991 0.950 . S
C962 H944 0.951 . S
C962 C963 1.366 . S
C962 C964 1.388 . S
C963 C962 1.366 . S
C963 C967 1.385 . S
C964 H945 0.951 . S
C964 C962 1.388 . S
C964 C965 1.366 . S
C965 C964 1.366 . S
C965 C966 1.436 . S
C965 C968 1.499 . S
C966 H946 0.914 1_565 S
C966 C965 1.436 . S
C966 C967 1.389 . S
C967 H947 0.983 . S
C967 C963 1.385 . S
C967 C966 1.389 . S
C968 C965 1.499 . S
C968 C969 1.373 1_565 S
C968 C970 1.389 . S
C969 H948 0.950 . S
C969 C968 1.373 1_545 S
C969 C985 1.377 . S
C970 C968 1.389 . S
C970 C971 1.524 . S
C970 C984 1.377 . S
C971 C970 1.524 . S
C971 C972 1.397 . S
C971 C976 1.363 . S
C972 H949 0.950 . S
C972 C971 1.397 . S
C972 C973 1.334 . S
C973 H950 0.950 . S
C973 C972 1.334 . S
C973 C974 1.287 . S
C974 C973 1.287 . S
C974 C975 1.524 . S
C974 H993 0.913 . S
C975 H951 0.950 . S
C975 C974 1.524 . S
C975 C976 1.415 . S
C976 H952 0.950 . S
C976 C971 1.363 . S
C976 C975 1.415 . S
C977 H953 0.951 . S
C977 C978 1.366 . S
C977 C979 1.388 . S
C978 C977 1.366 . S
C978 C982 1.385 . S
C979 H954 0.951 . S
C979 C977 1.388 . S
C979 C980 1.366 . S
C980 C979 1.366 . S
C980 C981 1.414 . S
C980 C983 1.499 . S
C981 H955 0.950 1_545 S
C981 C980 1.414 . S
C981 C982 1.374 . S
C982 H956 0.950 . S
C982 C978 1.385 . S
C982 C981 1.374 . S
C983 C980 1.499 . S
C983 C984 1.373 1_545 S
C983 C985 1.389 . S
C984 H957 0.950 . S
C984 C970 1.377 . S
C984 C983 1.373 1_565 S
C985 C969 1.377 . S
C985 C983 1.389 . S
C985 C986 1.524 . S
C986 C985 1.524 . S
C986 C987 1.397 . S
C986 C991 1.363 . S
C987 H958 0.950 . S
C987 C986 1.397 . S
C987 C988 1.334 . S
C988 H959 0.950 . S
C988 C987 1.334 . S
C988 C989 1.287 . S
C989 C988 1.287 . S
C989 C990 1.524 . S
C989 H992 0.999 . S
C990 H960 0.950 . S
C990 C989 1.524 . S
C990 C991 1.415 . S
C991 H961 0.950 . S
C991 C986 1.363 . S
C991 C990 1.415 . S
H992 C989 0.999 . S
H993 C974 0.913 . S
H994 C1012 0.951 . S
H995 C1014 0.951 1_655 S
H996 C1016 0.950 . S
H997 C1017 0.950 . S
H998 C1019 0.950 . S
H999 C1022 0.950 . S
H1000 C1023 0.950 . S
H1001 C1025 0.950 . S
H1002 C1026 0.950 . S
H1003 C1027 0.951 . S
H1004 C1029 0.951 1_455 S
H1005 C1031 0.950 . S
H1006 C1032 0.950 . S
H1007 C1034 0.950 . S
H1008 C1037 0.978 . S
H1009 C1038 0.950 . S
H1010 C1040 0.950 . S
H1011 C1041 0.950 . S
C1012 H994 0.951 . S
C1012 C1013 1.366 . S
C1012 C1014 1.388 . S
C1013 C1012 1.366 . S
C1013 C1017 1.385 . S
C1014 H995 0.951 1_455 S
C1014 C1012 1.388 . S
C1014 C1015 1.366 . S
C1015 C1014 1.366 . S
C1015 C1016 1.414 . S
C1015 C1018 1.499 . S
C1016 H996 0.950 . S
C1016 C1015 1.414 . S
C1016 C1017 1.374 . S
C1017 H997 0.950 . S
C1017 C1013 1.385 . S
C1017 C1016 1.374 . S
C1018 C1015 1.499 . S
C1018 C1019 1.373 . S
C1018 C1020 1.389 1_455 S
C1019 H998 0.950 . S
C1019 C1018 1.373 . S
C1019 C1035 1.377 . S
C1020 C1018 1.389 1_655 S
C1020 C1021 1.524 . S
C1020 C1034 1.377 . S
C1021 C1020 1.524 . S
C1021 C1022 1.397 . S
C1021 C1026 1.363 . S
C1022 H999 0.950 . S
C1022 C1021 1.397 . S
C1022 C1023 1.334 . S
C1023 H1000 0.950 . S
C1023 C1022 1.334 . S
C1023 C1024 1.287 . S
C1024 C1023 1.287 . S
C1024 C1025 1.524 . S
C1024 H1043 0.913 . S
C1025 H1001 0.950 . S
C1025 C1024 1.524 . S
C1025 C1026 1.415 . S
C1026 H1002 0.950 . S
C1026 C1021 1.363 . S
C1026 C1025 1.415 . S
C1027 H1003 0.951 . S
C1027 C1028 1.366 . S
C1027 C1029 1.388 . S
C1028 C1027 1.366 . S
C1028 C1032 1.385 . S
C1029 H1004 0.951 1_655 S
C1029 C1027 1.388 . S
C1029 C1030 1.366 . S
C1030 C1029 1.366 . S
C1030 C1031 1.414 . S
C1030 C1033 1.499 . S
C1031 H1005 0.950 . S
C1031 C1030 1.414 . S
C1031 C1032 1.374 . S
C1032 H1006 0.950 . S
C1032 C1028 1.385 . S
C1032 C1031 1.374 . S
C1033 C1030 1.499 . S
C1033 C1034 1.373 . S
C1033 C1035 1.389 1_655 S
C1034 H1007 0.950 . S
C1034 C1020 1.377 . S
C1034 C1033 1.373 . S
C1035 C1019 1.377 . S
C1035 C1033 1.389 1_455 S
C1035 C1036 1.524 . S
C1036 C1035 1.524 . S
C1036 C1037 1.397 . S
C1036 C1041 1.363 . S
C1037 H1008 0.978 . S
C1037 C1036 1.397 . S
C1037 C1038 1.334 . S
C1038 H1009 0.950 . S
C1038 C1037 1.334 . S
C1038 C1039 1.287 . S
C1039 C1038 1.287 . S
C1039 C1040 1.524 . S
C1039 H1042 0.999 . S
C1040 H1010 0.950 . S
C1040 C1039 1.524 . S
C1040 C1041 1.415 . S
C1041 H1011 0.950 . S
C1041 C1036 1.363 . S
C1041 C1040 1.415 . S
H1042 C1039 0.999 . S
H1043 C1024 0.913 . S
H1044 C1062 0.951 . S
H1045 C1064 0.951 . S
H1046 C1066 0.950 . S
H1047 C1067 0.950 . S
H1048 C1069 0.950 . S
H1049 C1072 0.950 . S
H1050 C1073 0.950 . S
H1051 C1075 0.950 . S
H1052 C1076 0.950 . S
H1053 C1077 0.951 . S
H1054 C1079 0.951 . S
H1055 C1081 0.950 . S
H1056 C1082 0.950 . S
H1057 C1084 0.950 . S
H1058 C1087 0.950 . S
H1059 C1088 0.950 . S
H1060 C1090 0.950 . S
H1061 C1091 0.950 . S
C1062 H1044 0.951 . S
C1062 C1063 1.366 . S
C1062 C1064 1.388 . S
C1063 C1062 1.366 . S
C1063 C1067 1.385 . S
C1064 H1045 0.951 . S
C1064 C1062 1.388 . S
C1064 C1065 1.366 . S
C1065 C1064 1.366 . S
C1065 C1066 1.414 . S
C1065 C1068 1.499 . S
C1066 H1046 0.950 . S
C1066 C1065 1.414 . S
C1066 C1067 1.374 . S
C1067 H1047 0.950 . S
C1067 C1063 1.385 . S
C1067 C1066 1.374 . S
C1068 C1065 1.499 . S
C1068 C1069 1.373 . S
C1068 C1070 1.389 . S
C1069 H1048 0.950 . S
C1069 C1068 1.373 . S
C1069 C1085 1.377 . S
C1070 C1068 1.389 . S
C1070 C1071 1.524 . S
C1070 C1084 1.377 . S
C1071 C1070 1.524 . S
C1071 C1072 1.397 . S
C1071 C1076 1.363 . S
C1072 H1049 0.950 . S
C1072 C1071 1.397 . S
C1072 C1073 1.334 . S
C1073 H1050 0.950 . S
C1073 C1072 1.334 . S
C1073 C1074 1.287 . S
C1074 C1073 1.287 . S
C1074 C1075 1.524 . S
C1074 H1093 0.913 . S
C1075 H1051 0.950 . S
C1075 C1074 1.524 . S
C1075 C1076 1.415 . S
C1076 H1052 0.950 . S
C1076 C1071 1.363 . S
C1076 C1075 1.415 . S
C1077 H1053 0.951 . S
C1077 C1078 1.366 . S
C1077 C1079 1.388 . S
C1078 C1077 1.366 . S
C1078 C1082 1.385 . S
C1079 H1054 0.951 . S
C1079 C1077 1.388 . S
C1079 C1080 1.366 . S
C1080 C1079 1.366 . S
C1080 C1081 1.414 . S
C1080 C1083 1.499 . S
C1081 H1055 0.950 . S
C1081 C1080 1.414 . S
C1081 C1082 1.374 . S
C1082 H1056 0.950 . S
C1082 C1078 1.385 . S
C1082 C1081 1.374 . S
C1083 C1080 1.499 . S
C1083 C1084 1.373 . S
C1083 C1085 1.389 . S
C1084 H1057 0.950 . S
C1084 C1070 1.377 . S
C1084 C1083 1.373 . S
C1085 C1069 1.377 . S
C1085 C1083 1.389 . S
C1085 C1086 1.524 . S
C1086 C1085 1.524 . S
C1086 C1087 1.397 . S
C1086 C1091 1.363 . S
C1087 H1058 0.950 . S
C1087 C1086 1.397 . S
C1087 C1088 1.334 . S
C1088 H1059 0.950 . S
C1088 C1087 1.334 . S
C1088 C1089 1.287 . S
C1089 C1088 1.287 . S
C1089 C1090 1.524 . S
C1089 H1092 0.999 . S
C1090 H1060 0.950 . S
C1090 C1089 1.524 . S
C1090 C1091 1.415 . S
C1091 H1061 0.950 . S
C1091 C1086 1.363 . S
C1091 C1090 1.415 . S
H1092 C1089 0.999 . S
H1093 C1074 0.913 . S
H1094 C1112 0.951 . S
H1095 C1114 0.951 . S
H1096 C1116 0.950 . S
H1097 C1117 0.950 . S
H1098 C1119 0.950 . S
H1099 C1122 0.950 . S
H1100 C1123 0.950 . S
H1101 C1125 0.950 . S
H1102 C1126 0.950 . S
H1103 C1127 0.951 . S
H1104 C1129 0.951 . S
H1105 C1131 0.950 . S
H1106 C1132 0.950 . S
H1107 C1134 0.950 . S
H1108 C1137 0.950 . S
H1109 C1138 0.950 . S
H1110 C1140 0.950 . S
H1111 C1141 0.950 . S
C1112 H1094 0.951 . S
C1112 C1113 1.366 . S
C1112 C1114 1.388 . S
C1113 C1112 1.366 . S
C1113 C1117 1.385 . S
C1114 H1095 0.951 . S
C1114 C1112 1.388 . S
C1114 C1115 1.366 . S
C1115 C1114 1.366 . S
C1115 C1116 1.414 . S
C1115 C1118 1.499 . S
C1116 H1096 0.950 . S
C1116 C1115 1.414 . S
C1116 C1117 1.374 . S
C1117 H1097 0.950 . S
C1117 C1113 1.385 . S
C1117 C1116 1.374 . S
C1118 C1115 1.499 . S
C1118 C1119 1.373 . S
C1118 C1120 1.389 . S
C1119 H1098 0.950 . S
C1119 C1118 1.373 . S
C1119 C1135 1.377 1_554 S
C1120 C1118 1.389 . S
C1120 C1121 1.524 . S
C1120 C1134 1.377 1_554 S
C1121 C1120 1.524 . S
C1121 C1122 1.397 . S
C1121 C1126 1.363 . S
C1122 H1099 0.950 . S
C1122 C1121 1.397 . S
C1122 C1123 1.334 . S
C1123 H1100 0.950 . S
C1123 C1122 1.334 . S
C1123 C1124 1.287 . S
C1124 C1123 1.287 . S
C1124 C1125 1.524 . S
C1124 H1143 0.913 . S
C1125 H1101 0.950 . S
C1125 C1124 1.524 . S
C1125 C1126 1.415 . S
C1126 H1102 0.950 . S
C1126 C1121 1.363 . S
C1126 C1125 1.415 . S
C1127 H1103 0.951 . S
C1127 C1128 1.366 . S
C1127 C1129 1.388 . S
C1128 C1127 1.366 . S
C1128 C1132 1.385 . S
C1129 H1104 0.951 . S
C1129 C1127 1.388 . S
C1129 C1130 1.366 . S
C1130 C1129 1.366 . S
C1130 C1131 1.414 . S
C1130 C1133 1.499 . S
C1131 H1105 0.950 . S
C1131 C1130 1.414 . S
C1131 C1132 1.374 . S
C1132 H1106 0.950 . S
C1132 C1128 1.385 . S
C1132 C1131 1.374 . S
C1133 C1130 1.499 . S
C1133 C1134 1.373 . S
C1133 C1135 1.389 . S
C1134 H1107 0.950 . S
C1134 C1120 1.377 1_556 S
C1134 C1133 1.373 . S
C1135 C1119 1.377 1_556 S
C1135 C1133 1.389 . S
C1135 C1136 1.524 . S
C1136 C1135 1.524 . S
C1136 C1137 1.397 . S
C1136 C1141 1.363 . S
C1137 H1108 0.950 . S
C1137 C1136 1.397 . S
C1137 C1138 1.334 . S
C1138 H1109 0.950 . S
C1138 C1137 1.334 . S
C1138 C1139 1.287 . S
C1139 C1138 1.287 . S
C1139 C1140 1.524 . S
C1139 H1142 0.999 . S
C1140 H1110 0.950 . S
C1140 C1139 1.524 . S
C1140 C1141 1.415 . S
C1141 H1111 0.950 . S
C1141 C1136 1.363 . S
C1141 C1140 1.415 . S
H1142 C1139 0.999 . S
H1143 C1124 0.913 . S
H1144 C1162 0.951 . S
H1145 C1164 0.951 . S
H1146 C1166 0.950 1_565 S
H1147 C1167 0.950 . S
H1148 C1169 0.950 . S
H1149 C1172 0.950 1_565 S
H1150 C1173 0.950 . S
H1151 C1175 0.950 . S
H1152 C1176 0.950 . S
H1153 C1177 0.951 . S
H1154 C1179 0.951 . S
H1155 C1181 0.918 1_545 S
H1156 C1182 0.950 . S
H1157 C1184 0.950 . S
H1158 C1187 0.950 . S
H1159 C1188 0.950 1_545 S
H1160 C1190 0.950 . S
H1161 C1191 0.950 . S
C1162 H1144 0.951 . S
C1162 C1163 1.366 . S
C1162 C1164 1.388 . S
C1163 C1162 1.366 . S
C1163 C1167 1.385 . S
C1164 H1145 0.951 . S
C1164 C1162 1.388 . S
C1164 C1165 1.366 . S
C1165 C1164 1.366 . S
C1165 C1166 1.414 . S
C1165 C1168 1.499 . S
C1166 H1146 0.950 1_545 S
C1166 C1165 1.414 . S
C1166 C1167 1.374 . S
C1167 H1147 0.950 . S
C1167 C1163 1.385 . S
C1167 C1166 1.374 . S
C1168 C1165 1.499 . S
C1168 C1169 1.373 . S
C1168 C1170 1.389 . S
C1169 H1148 0.950 . S
C1169 C1168 1.373 . S
C1169 C1185 1.377 1_545 S
C1170 C1168 1.389 . S
C1170 C1171 1.524 . S
C1170 C1184 1.377 . S
C1171 C1170 1.524 . S
C1171 C1172 1.397 . S
C1171 C1176 1.363 . S
C1172 H1149 0.950 1_545 S
C1172 C1171 1.397 . S
C1172 C1173 1.334 . S
C1173 H1150 0.950 . S
C1173 C1172 1.334 . S
C1173 C1174 1.287 . S
C1174 C1173 1.287 . S
C1174 C1175 1.524 . S
C1174 H1193 0.913 . S
C1175 H1151 0.950 . S
C1175 C1174 1.524 . S
C1175 C1176 1.415 . S
C1176 H1152 0.950 . S
C1176 C1171 1.363 . S
C1176 C1175 1.415 . S
C1177 H1153 0.951 . S
C1177 C1178 1.366 . S
C1177 C1179 1.388 . S
C1178 C1177 1.366 . S
C1178 C1182 1.385 . S
C1179 H1154 0.951 . S
C1179 C1177 1.388 . S
C1179 C1180 1.366 . S
C1180 C1179 1.366 . S
C1180 C1181 1.432 . S
C1180 C1183 1.499 . S
C1181 H1155 0.918 1_565 S
C1181 C1180 1.432 . S
C1181 C1182 1.388 . S
C1182 H1156 0.950 . S
C1182 C1178 1.385 . S
C1182 C1181 1.388 . S
C1183 C1180 1.499 . S
C1183 C1184 1.373 1_565 S
C1183 C1185 1.389 . S
C1184 H1157 0.950 . S
C1184 C1170 1.377 . S
C1184 C1183 1.373 1_545 S
C1185 C1169 1.377 1_565 S
C1185 C1183 1.389 . S
C1185 C1186 1.524 . S
C1186 C1185 1.524 . S
C1186 C1187 1.397 1_565 S
C1186 C1191 1.363 . S
C1187 H1158 0.950 . S
C1187 C1186 1.397 1_545 S
C1187 C1188 1.334 1_545 S
C1188 H1159 0.950 1_565 S
C1188 C1187 1.334 1_565 S
C1188 C1189 1.287 . S
C1189 C1188 1.287 . S
C1189 C1190 1.524 . S
C1189 H1192 0.999 . S
C1190 H1160 0.950 . S
C1190 C1189 1.524 . S
C1190 C1191 1.415 . S
C1191 H1161 0.950 . S
C1191 C1186 1.363 . S
C1191 C1190 1.415 . S
H1192 C1189 0.999 . S
H1193 C1174 0.913 . S
H1194 C1212 0.951 . S
H1195 C1214 0.951 . S
H1196 C1216 0.950 1_455 S
H1197 C1217 0.950 . S
H1198 C1219 0.950 . S
H1199 C1222 0.950 . S
H1200 C1223 0.950 . S
H1201 C1225 0.950 . S
H1202 C1226 0.950 1_554 S
H1203 C1227 0.951 . S
H1204 C1229 0.951 . S
H1205 C1231 0.945 . S
H1206 C1232 0.957 . S
H1207 C1234 0.950 . S
H1208 C1237 0.950 1_655 S
H1209 C1238 0.950 . S
H1210 C1240 0.950 . S
H1211 C1241 0.950 1_556 S
C1212 H1194 0.951 . S
C1212 C1213 1.366 . S
C1212 C1214 1.388 . S
C1213 C1212 1.366 . S
C1213 C1217 1.385 . S
C1214 H1195 0.951 . S
C1214 C1212 1.388 . S
C1214 C1215 1.366 . S
C1215 C1214 1.366 . S
C1215 C1216 1.414 . S
C1215 C1218 1.499 . S
C1216 H1196 0.950 1_655 S
C1216 C1215 1.414 . S
C1216 C1217 1.374 . S
C1217 H1197 0.950 . S
C1217 C1213 1.385 . S
C1217 C1216 1.374 . S
C1218 C1215 1.499 . S
C1218 C1219 1.373 . S
C1218 C1220 1.389 . S
C1219 H1198 0.950 . S
C1219 C1218 1.373 . S
C1219 C1235 1.377 1_656 S
C1220 C1218 1.389 . S
C1220 C1221 1.524 . S
C1220 C1234 1.377 1_556 S
C1221 C1220 1.524 . S
C1221 C1222 1.397 . S
C1221 C1226 1.363 . S
C1222 H1199 0.950 . S
C1222 C1221 1.397 . S
C1222 C1223 1.334 . S
C1223 H1200 0.950 . S
C1223 C1222 1.334 . S
C1223 C1224 1.287 . S
C1224 C1223 1.287 . S
C1224 C1225 1.524 . S
C1224 H1243 0.913 . S
C1225 H1201 0.950 . S
C1225 C1224 1.524 . S
C1225 C1226 1.415 . S
C1226 H1202 0.950 1_556 S
C1226 C1221 1.363 . S
C1226 C1225 1.415 . S
C1227 H1203 0.951 . S
C1227 C1228 1.366 . S
C1227 C1229 1.388 . S
C1228 C1227 1.366 . S
C1228 C1232 1.385 . S
C1229 H1204 0.951 . S
C1229 C1227 1.388 . S
C1229 C1230 1.366 . S
C1230 C1229 1.366 . S
C1230 C1231 1.417 1_455 S
C1230 C1233 1.499 . S
C1231 H1205 0.945 . S
C1231 C1230 1.417 1_655 S
C1231 C1232 1.376 1_655 S
C1232 H1206 0.957 . S
C1232 C1228 1.385 . S
C1232 C1231 1.376 1_455 S
C1233 C1230 1.499 . S
C1233 C1234 1.373 1_455 S
C1233 C1235 1.389 . S
C1234 H1207 0.950 . S
C1234 C1220 1.377 1_554 S
C1234 C1233 1.373 1_655 S
C1235 C1219 1.377 1_454 S
C1235 C1233 1.389 . S
C1235 C1236 1.524 . S
C1236 C1235 1.524 . S
C1236 C1237 1.397 . S
C1236 C1241 1.363 . S
C1237 H1208 0.950 1_455 S
C1237 C1236 1.397 . S
C1237 C1238 1.334 . S
C1238 H1209 0.950 . S
C1238 C1237 1.334 . S
C1238 C1239 1.287 . S
C1239 C1238 1.287 . S
C1239 C1240 1.524 . S
C1239 H1242 0.999 . S
C1240 H1210 0.950 . S
C1240 C1239 1.524 . S
C1240 C1241 1.415 . S
C1241 H1211 0.950 1_554 S
C1241 C1236 1.363 . S
C1241 C1240 1.415 . S
H1242 C1239 0.999 . S
H1243 C1224 0.913 . S
H1244 C1262 0.951 . S
H1245 C1264 0.951 . S
H1246 C1266 0.950 . S
H1247 C1267 0.950 . S
H1248 C1269 0.950 . S
H1249 C1272 0.950 . S
H1250 C1273 0.950 . S
H1251 C1275 0.950 . S
H1252 C1276 0.950 . S
H1253 C1277 0.951 . S
H1254 C1279 0.951 . S
H1255 C1281 0.950 . S
H1256 C1282 0.950 . S
H1257 C1284 0.950 . S
H1258 C1287 0.950 . S
H1259 C1288 0.950 . S
H1260 C1290 0.950 . S
H1261 C1291 0.950 . S
C1262 H1244 0.951 . S
C1262 C1263 1.366 . S
C1262 C1264 1.388 . S
C1263 C1262 1.366 . S
C1263 C1267 1.385 . S
C1264 H1245 0.951 . S
C1264 C1262 1.388 . S
C1264 C1265 1.366 . S
C1265 C1264 1.366 . S
C1265 C1266 1.414 . S
C1265 C1268 1.499 . S
C1266 H1246 0.950 . S
C1266 C1265 1.414 . S
C1266 C1267 1.374 . S
C1267 H1247 0.950 . S
C1267 C1263 1.385 . S
C1267 C1266 1.374 . S
C1268 C1265 1.499 . S
C1268 C1269 1.373 . S
C1268 C1270 1.389 . S
C1269 H1248 0.950 . S
C1269 C1268 1.373 . S
C1269 C1285 1.377 . S
C1270 C1268 1.389 . S
C1270 C1271 1.524 . S
C1270 C1284 1.377 . S
C1271 C1270 1.524 . S
C1271 C1272 1.397 . S
C1271 C1276 1.363 . S
C1272 H1249 0.950 . S
C1272 C1271 1.397 . S
C1272 C1273 1.334 . S
C1273 H1250 0.950 . S
C1273 C1272 1.334 . S
C1273 C1274 1.287 . S
C1274 C1273 1.287 . S
C1274 C1275 1.524 . S
C1274 H1293 0.913 . S
C1275 H1251 0.950 . S
C1275 C1274 1.524 . S
C1275 C1276 1.415 . S
C1276 H1252 0.950 . S
C1276 C1271 1.363 . S
C1276 C1275 1.415 . S
C1277 H1253 0.951 . S
C1277 C1278 1.366 . S
C1277 C1279 1.388 . S
C1278 C1277 1.366 . S
C1278 C1282 1.385 . S
C1279 H1254 0.951 . S
C1279 C1277 1.388 . S
C1279 C1280 1.366 . S
C1280 C1279 1.366 . S
C1280 C1281 1.414 . S
C1280 C1283 1.499 . S
C1281 H1255 0.950 . S
C1281 C1280 1.414 . S
C1281 C1282 1.374 . S
C1282 H1256 0.950 . S
C1282 C1278 1.385 . S
C1282 C1281 1.374 . S
C1283 C1280 1.499 . S
C1283 C1284 1.373 . S
C1283 C1285 1.389 . S
C1284 H1257 0.950 . S
C1284 C1270 1.377 . S
C1284 C1283 1.373 . S
C1285 C1269 1.377 . S
C1285 C1283 1.389 . S
C1285 C1286 1.524 . S
C1286 C1285 1.524 . S
C1286 C1287 1.397 . S
C1286 C1291 1.363 . S
C1287 H1258 0.950 . S
C1287 C1286 1.397 . S
C1287 C1288 1.334 . S
C1288 H1259 0.950 . S
C1288 C1287 1.334 . S
C1288 C1289 1.287 . S
C1289 C1288 1.287 . S
C1289 C1290 1.524 . S
C1289 H1292 0.999 . S
C1290 H1260 0.950 . S
C1290 C1289 1.524 . S
C1290 C1291 1.415 . S
C1291 H1261 0.950 . S
C1291 C1286 1.363 . S
C1291 C1290 1.415 . S
H1292 C1289 0.999 . S
H1293 C1274 0.913 . S
H1294 C1312 0.951 . S
H1295 C1314 0.951 . S
H1296 C1316 0.950 . S
H1297 C1317 0.950 . S
H1298 C1319 0.950 . S
H1299 C1322 0.950 . S
H1300 C1323 0.950 . S
H1301 C1325 0.950 . S
H1302 C1326 0.950 . S
H1303 C1327 0.951 . S
H1304 C1329 0.951 . S
H1305 C1331 0.950 . S
H1306 C1332 0.950 . S
H1307 C1334 0.950 . S
H1308 C1337 0.950 . S
H1309 C1338 0.950 . S
H1310 C1340 0.950 . S
H1311 C1341 0.950 . S
C1312 H1294 0.951 . S
C1312 C1313 1.366 . S
C1312 C1314 1.388 . S
C1313 C1312 1.366 . S
C1313 C1317 1.385 . S
C1314 H1295 0.951 . S
C1314 C1312 1.388 . S
C1314 C1315 1.366 . S
C1315 C1314 1.366 . S
C1315 C1316 1.414 . S
C1315 C1318 1.499 . S
C1316 H1296 0.950 . S
C1316 C1315 1.414 . S
C1316 C1317 1.374 . S
C1317 H1297 0.950 . S
C1317 C1313 1.385 . S
C1317 C1316 1.374 . S
C1318 C1315 1.499 . S
C1318 C1319 1.373 . S
C1318 C1320 1.389 . S
C1319 H1298 0.950 . S
C1319 C1318 1.373 . S
C1319 C1335 1.377 . S
C1320 C1318 1.389 . S
C1320 C1321 1.524 . S
C1320 C1334 1.377 . S
C1321 C1320 1.524 . S
C1321 C1322 1.397 . S
C1321 C1326 1.363 . S
C1322 H1299 0.950 . S
C1322 C1321 1.397 . S
C1322 C1323 1.334 . S
C1323 H1300 0.950 . S
C1323 C1322 1.334 . S
C1323 C1324 1.287 . S
C1324 C1323 1.287 . S
C1324 C1325 1.524 . S
C1324 H1343 0.913 . S
C1325 H1301 0.950 . S
C1325 C1324 1.524 . S
C1325 C1326 1.415 . S
C1326 H1302 0.950 . S
C1326 C1321 1.363 . S
C1326 C1325 1.415 . S
C1327 H1303 0.951 . S
C1327 C1328 1.366 . S
C1327 C1329 1.388 . S
C1328 C1327 1.366 . S
C1328 C1332 1.385 . S
C1329 H1304 0.951 . S
C1329 C1327 1.388 . S
C1329 C1330 1.366 . S
C1330 C1329 1.366 . S
C1330 C1331 1.414 . S
C1330 C1333 1.499 . S
C1331 H1305 0.950 . S
C1331 C1330 1.414 . S
C1331 C1332 1.374 . S
C1332 H1306 0.950 . S
C1332 C1328 1.385 . S
C1332 C1331 1.374 . S
C1333 C1330 1.499 . S
C1333 C1334 1.373 . S
C1333 C1335 1.389 . S
C1334 H1307 0.950 . S
C1334 C1320 1.377 . S
C1334 C1333 1.373 . S
C1335 C1319 1.377 . S
C1335 C1333 1.389 . S
C1335 C1336 1.524 . S
C1336 C1335 1.524 . S
C1336 C1337 1.397 . S
C1336 C1341 1.363 . S
C1337 H1308 0.950 . S
C1337 C1336 1.397 . S
C1337 C1338 1.334 . S
C1338 H1309 0.950 . S
C1338 C1337 1.334 . S
C1338 C1339 1.287 . S
C1339 C1338 1.287 . S
C1339 C1340 1.524 . S
C1339 H1342 0.999 . S
C1340 H1310 0.950 . S
C1340 C1339 1.524 . S
C1340 C1341 1.415 . S
C1341 H1311 0.950 . S
C1341 C1336 1.363 . S
C1341 C1340 1.415 . S
H1342 C1339 0.999 . S
H1343 C1324 0.913 . S
H1344 C1362 0.951 . S
H1345 C1364 0.951 . S
H1346 C1366 0.950 . S
H1347 C1367 0.950 . S
H1348 C1369 0.950 . S
H1349 C1372 0.950 . S
H1350 C1373 0.950 . S
H1351 C1375 0.950 . S
H1352 C1376 0.950 . S
H1353 C1377 0.951 . S
H1354 C1379 0.951 . S
H1355 C1381 0.950 . S
H1356 C1382 0.950 . S
H1357 C1384 0.950 . S
H1358 C1387 0.950 . S
H1359 C1388 0.950 . S
H1360 C1390 0.950 . S
H1361 C1391 0.950 . S
C1362 H1344 0.951 . S
C1362 C1363 1.366 . S
C1362 C1364 1.388 . S
C1363 C1362 1.366 . S
C1363 C1367 1.385 . S
C1364 H1345 0.951 . S
C1364 C1362 1.388 . S
C1364 C1365 1.366 . S
C1365 C1364 1.366 . S
C1365 C1366 1.414 . S
C1365 C1368 1.499 . S
C1366 H1346 0.950 . S
C1366 C1365 1.414 . S
C1366 C1367 1.374 . S
C1367 H1347 0.950 . S
C1367 C1363 1.385 . S
C1367 C1366 1.374 . S
C1368 C1365 1.499 . S
C1368 C1369 1.373 . S
C1368 C1370 1.389 . S
C1369 H1348 0.950 . S
C1369 C1368 1.373 . S
C1369 C1385 1.377 . S
C1370 C1368 1.389 . S
C1370 C1371 1.524 . S
C1370 C1384 1.377 . S
C1371 C1370 1.524 . S
C1371 C1372 1.397 . S
C1371 C1376 1.363 . S
C1372 H1349 0.950 . S
C1372 C1371 1.397 . S
C1372 C1373 1.334 . S
C1373 H1350 0.950 . S
C1373 C1372 1.334 . S
C1373 C1374 1.287 . S
C1374 C1373 1.287 . S
C1374 C1375 1.524 . S
C1374 H1393 0.913 . S
C1375 H1351 0.950 . S
C1375 C1374 1.524 . S
C1375 C1376 1.415 . S
C1376 H1352 0.950 . S
C1376 C1371 1.363 . S
C1376 C1375 1.415 . S
C1377 H1353 0.951 . S
C1377 C1378 1.366 . S
C1377 C1379 1.388 . S
C1378 C1377 1.366 . S
C1378 C1382 1.385 . S
C1379 H1354 0.951 . S
C1379 C1377 1.388 . S
C1379 C1380 1.366 . S
C1380 C1379 1.366 . S
C1380 C1381 1.414 . S
C1380 C1383 1.499 . S
C1381 H1355 0.950 . S
C1381 C1380 1.414 . S
C1381 C1382 1.374 . S
C1382 H1356 0.950 . S
C1382 C1378 1.385 . S
C1382 C1381 1.374 . S
C1383 C1380 1.499 . S
C1383 C1384 1.373 . S
C1383 C1385 1.389 . S
C1384 H1357 0.950 . S
C1384 C1370 1.377 . S
C1384 C1383 1.373 . S
C1385 C1369 1.377 . S
C1385 C1383 1.389 . S
C1385 C1386 1.524 . S
C1386 C1385 1.524 . S
C1386 C1387 1.397 . S
C1386 C1391 1.363 . S
C1387 H1358 0.950 . S
C1387 C1386 1.397 . S
C1387 C1388 1.334 . S
C1388 H1359 0.950 . S
C1388 C1387 1.334 . S
C1388 C1389 1.287 . S
C1389 C1388 1.287 . S
C1389 C1390 1.524 . S
C1389 H1392 0.999 . S
C1390 H1360 0.950 . S
C1390 C1389 1.524 . S
C1390 C1391 1.415 . S
C1391 H1361 0.950 . S
C1391 C1386 1.363 . S
C1391 C1390 1.415 . S
H1392 C1389 0.999 . S
H1393 C1374 0.913 . S
H1394 C1412 0.951 . S
H1395 C1414 0.951 . S
H1396 C1416 0.950 . S
H1397 C1417 0.950 . S
H1398 C1419 0.950 . S
H1399 C1422 0.950 . S
H1400 C1423 0.950 . S
H1401 C1425 0.950 . S
H1402 C1426 0.950 . S
H1403 C1427 0.951 . S
H1404 C1429 0.951 . S
H1405 C1431 0.950 . S
H1406 C1432 0.950 . S
H1407 C1434 0.950 . S
H1408 C1437 0.950 . S
H1409 C1438 0.950 . S
H1410 C1440 0.950 . S
H1411 C1441 0.950 . S
C1412 H1394 0.951 . S
C1412 C1413 1.366 . S
C1412 C1414 1.388 . S
C1413 C1412 1.366 . S
C1413 C1417 1.385 . S
C1414 H1395 0.951 . S
C1414 C1412 1.388 . S
C1414 C1415 1.366 . S
C1415 C1414 1.366 . S
C1415 C1416 1.414 . S
C1415 C1418 1.499 . S
C1416 H1396 0.950 . S
C1416 C1415 1.414 . S
C1416 C1417 1.374 . S
C1417 H1397 0.950 . S
C1417 C1413 1.385 . S
C1417 C1416 1.374 . S
C1418 C1415 1.499 . S
C1418 C1419 1.373 . S
C1418 C1420 1.389 . S
C1419 H1398 0.950 . S
C1419 C1418 1.373 . S
C1419 C1435 1.377 1_554 S
C1420 C1418 1.389 . S
C1420 C1421 1.524 . S
C1420 C1434 1.377 1_554 S
C1421 C1420 1.524 . S
C1421 C1422 1.397 . S
C1421 C1426 1.363 . S
C1422 H1399 0.950 . S
C1422 C1421 1.397 . S
C1422 C1423 1.334 . S
C1423 H1400 0.950 . S
C1423 C1422 1.334 . S
C1423 C1424 1.287 . S
C1424 C1423 1.287 . S
C1424 C1425 1.524 . S
C1424 H1443 0.913 . S
C1425 H1401 0.950 . S
C1425 C1424 1.524 . S
C1425 C1426 1.415 . S
C1426 H1402 0.950 . S
C1426 C1421 1.363 . S
C1426 C1425 1.415 . S
C1427 H1403 0.951 . S
C1427 C1428 1.366 . S
C1427 C1429 1.388 . S
C1428 C1427 1.366 . S
C1428 C1432 1.385 . S
C1429 H1404 0.951 . S
C1429 C1427 1.388 . S
C1429 C1430 1.366 . S
C1430 C1429 1.366 . S
C1430 C1431 1.414 . S
C1430 C1433 1.499 . S
C1431 H1405 0.950 . S
C1431 C1430 1.414 . S
C1431 C1432 1.374 . S
C1432 H1406 0.950 . S
C1432 C1428 1.385 . S
C1432 C1431 1.374 . S
C1433 C1430 1.499 . S
C1433 C1434 1.373 . S
C1433 C1435 1.389 . S
C1434 H1407 0.950 . S
C1434 C1420 1.377 1_556 S
C1434 C1433 1.373 . S
C1435 C1419 1.377 1_556 S
C1435 C1433 1.389 . S
C1435 C1436 1.524 . S
C1436 C1435 1.524 . S
C1436 C1437 1.397 . S
C1436 C1441 1.363 . S
C1437 H1408 0.950 . S
C1437 C1436 1.397 . S
C1437 C1438 1.334 . S
C1438 H1409 0.950 . S
C1438 C1437 1.334 . S
C1438 C1439 1.287 . S
C1439 C1438 1.287 . S
C1439 C1440 1.524 . S
C1439 H1442 0.999 . S
C1440 H1410 0.950 . S
C1440 C1439 1.524 . S
C1440 C1441 1.415 . S
C1441 H1411 0.950 . S
C1441 C1436 1.363 . S
C1441 C1440 1.415 . S
H1442 C1439 0.999 . S
H1443 C1424 0.913 . S
H1444 C1462 0.951 . S
H1445 C1464 0.951 . S
H1446 C1466 0.950 . S
H1447 C1467 0.950 . S
H1448 C1469 0.950 . S
H1449 C1472 0.950 . S
H1450 C1473 0.950 . S
H1451 C1475 0.950 . S
H1452 C1476 0.950 . S
H1453 C1477 0.951 . S
H1454 C1479 0.951 . S
H1455 C1481 0.950 . S
H1456 C1482 0.950 . S
H1457 C1484 0.950 . S
H1458 C1487 0.950 . S
H1459 C1488 0.950 . S
H1460 C1490 0.950 . S
H1461 C1491 0.950 . S
C1462 H1444 0.951 . S
C1462 C1463 1.366 . S
C1462 C1464 1.388 . S
C1463 C1462 1.366 . S
C1463 C1467 1.385 . S
C1464 H1445 0.951 . S
C1464 C1462 1.388 . S
C1464 C1465 1.366 . S
C1465 C1464 1.366 . S
C1465 C1466 1.414 . S
C1465 C1468 1.499 . S
C1466 H1446 0.950 . S
C1466 C1465 1.414 . S
C1466 C1467 1.374 . S
C1467 H1447 0.950 . S
C1467 C1463 1.385 . S
C1467 C1466 1.374 . S
C1468 C1465 1.499 . S
C1468 C1469 1.373 . S
C1468 C1470 1.389 1_545 S
C1469 H1448 0.950 . S
C1469 C1468 1.373 . S
C1469 C1485 1.377 . S
C1470 C1468 1.389 1_565 S
C1470 C1471 1.524 . S
C1470 C1484 1.377 . S
C1471 C1470 1.524 . S
C1471 C1472 1.397 . S
C1471 C1476 1.363 . S
C1472 H1449 0.950 . S
C1472 C1471 1.397 . S
C1472 C1473 1.334 . S
C1473 H1450 0.950 . S
C1473 C1472 1.334 . S
C1473 C1474 1.287 . S
C1474 C1473 1.287 . S
C1474 C1475 1.524 . S
C1474 H1493 0.913 . S
C1475 H1451 0.950 . S
C1475 C1474 1.524 . S
C1475 C1476 1.415 . S
C1476 H1452 0.950 . S
C1476 C1471 1.363 . S
C1476 C1475 1.415 . S
C1477 H1453 0.951 . S
C1477 C1478 1.366 . S
C1477 C1479 1.388 . S
C1478 C1477 1.366 . S
C1478 C1482 1.385 . S
C1479 H1454 0.951 . S
C1479 C1477 1.388 . S
C1479 C1480 1.366 . S
C1480 C1479 1.366 . S
C1480 C1481 1.414 . S
C1480 C1483 1.499 . S
C1481 H1455 0.950 . S
C1481 C1480 1.414 . S
C1481 C1482 1.374 . S
C1482 H1456 0.950 . S
C1482 C1478 1.385 . S
C1482 C1481 1.374 . S
C1483 C1480 1.499 . S
C1483 C1484 1.373 . S
C1483 C1485 1.389 1_565 S
C1484 H1457 0.950 . S
C1484 C1470 1.377 . S
C1484 C1483 1.373 . S
C1485 C1469 1.377 . S
C1485 C1483 1.389 1_545 S
C1485 C1486 1.524 . S
C1486 C1485 1.524 . S
C1486 C1487 1.397 . S
C1486 C1491 1.363 . S
C1487 H1458 0.950 . S
C1487 C1486 1.397 . S
C1487 C1488 1.334 . S
C1488 H1459 0.950 . S
C1488 C1487 1.334 . S
C1488 C1489 1.287 . S
C1489 C1488 1.287 . S
C1489 C1490 1.524 . S
C1489 H1492 0.999 . S
C1490 H1460 0.950 . S
C1490 C1489 1.524 . S
C1490 C1491 1.415 . S
C1491 H1461 0.950 . S
C1491 C1486 1.363 . S
C1491 C1490 1.415 . S
H1492 C1489 0.999 . S
H1493 C1474 0.913 . S
H1494 C1512 0.951 . S
H1495 C1514 0.951 . S
H1496 C1516 0.950 1_655 S
H1497 C1517 0.950 . S
H1498 C1519 0.950 . S
H1499 C1522 0.954 . S
H1500 C1523 0.950 . S
H1501 C1525 0.950 . S
H1502 C1526 0.950 . S
H1503 C1527 0.951 . S
H1504 C1529 0.951 . S
H1505 C1531 0.944 1_455 S
H1506 C1532 0.971 . S
H1507 C1534 0.950 . S
H1508 C1537 0.926 1_455 S
H1509 C1538 0.941 1_455 S
H1510 C1540 0.950 . S
H1511 C1541 0.950 . S
C1512 H1494 0.951 . S
C1512 C1513 1.366 . S
C1512 C1514 1.388 . S
C1513 C1512 1.366 . S
C1513 C1517 1.385 . S
C1514 H1495 0.951 . S
C1514 C1512 1.388 . S
C1514 C1515 1.366 . S
C1515 C1514 1.366 . S
C1515 C1516 1.414 . S
C1515 C1518 1.499 . S
C1516 H1496 0.950 1_455 S
C1516 C1515 1.414 . S
C1516 C1517 1.374 . S
C1517 H1497 0.950 . S
C1517 C1513 1.385 . S
C1517 C1516 1.374 . S
C1518 C1515 1.499 . S
C1518 C1519 1.373 . S
C1518 C1520 1.389 . S
C1519 H1498 0.950 . S
C1519 C1518 1.373 . S
C1519 C1535 1.377 1_455 S
C1520 C1518 1.389 . S
C1520 C1521 1.524 . S
C1520 C1534 1.377 . S
C1521 C1520 1.524 . S
C1521 C1522 1.397 . S
C1521 C1526 1.363 . S
C1522 H1499 0.954 . S
C1522 C1521 1.397 . S
C1522 C1523 1.334 . S
C1523 H1500 0.950 . S
C1523 C1522 1.334 . S
C1523 C1524 1.287 . S
C1524 C1523 1.287 . S
C1524 C1525 1.524 . S
C1524 H1543 0.913 . S
C1525 H1501 0.950 . S
C1525 C1524 1.524 . S
C1525 C1526 1.415 . S
C1526 H1502 0.950 . S
C1526 C1521 1.363 . S
C1526 C1525 1.415 . S
C1527 H1503 0.951 . S
C1527 C1528 1.366 . S
C1527 C1529 1.388 . S
C1528 C1527 1.366 . S
C1528 C1532 1.385 . S
C1529 H1504 0.951 . S
C1529 C1527 1.388 . S
C1529 C1530 1.366 . S
C1530 C1529 1.366 . S
C1530 C1531 1.417 . S
C1530 C1533 1.499 . S
C1531 H1505 0.944 1_655 S
C1531 C1530 1.417 . S
C1531 C1532 1.376 . S
C1532 H1506 0.971 . S
C1532 C1528 1.385 . S
C1532 C1531 1.376 . S
C1533 C1530 1.499 . S
C1533 C1534 1.373 1_655 S
C1533 C1535 1.389 . S
C1534 H1507 0.950 . S
C1534 C1520 1.377 . S
C1534 C1533 1.373 1_455 S
C1535 C1519 1.377 1_655 S
C1535 C1533 1.389 . S
C1535 C1536 1.524 . S
C1536 C1535 1.524 . S
C1536 C1537 1.412 . S
C1536 C1541 1.363 . S
C1537 H1508 0.926 1_655 S
C1537 C1536 1.412 . S
C1537 C1538 1.342 . S
C1538 H1509 0.941 1_655 S
C1538 C1537 1.342 . S
C1538 C1539 1.287 . S
C1539 C1538 1.287 . S
C1539 C1540 1.524 . S
C1539 H1542 0.999 . S
C1540 H1510 0.950 . S
C1540 C1539 1.524 . S
C1540 C1541 1.415 . S
C1541 H1511 0.950 . S
C1541 C1536 1.363 . S
C1541 C1540 1.415 . S
H1542 C1539 0.999 . S
H1543 C1524 0.913 . S
H1544 C1562 0.951 . S
H1545 C1564 0.951 . S
H1546 C1566 0.950 . S
H1547 C1567 0.950 . S
H1548 C1569 0.950 . S
H1549 C1572 0.950 . S
H1550 C1573 0.950 . S
H1551 C1575 0.950 . S
H1552 C1576 0.950 . S
H1553 C1577 0.951 . S
H1554 C1579 0.951 . S
H1555 C1581 0.950 . S
H1556 C1582 0.950 . S
H1557 C1584 0.950 . S
H1558 C1587 0.950 . S
H1559 C1588 0.950 . S
H1560 C1590 0.950 . S
H1561 C1591 0.950 . S
C1562 H1544 0.951 . S
C1562 C1563 1.366 . S
C1562 C1564 1.388 . S
C1563 C1562 1.366 . S
C1563 C1567 1.385 . S
C1564 H1545 0.951 . S
C1564 C1562 1.388 . S
C1564 C1565 1.366 . S
C1565 C1564 1.366 . S
C1565 C1566 1.414 . S
C1565 C1568 1.499 . S
C1566 H1546 0.950 . S
C1566 C1565 1.414 . S
C1566 C1567 1.374 . S
C1567 H1547 0.950 . S
C1567 C1563 1.385 . S
C1567 C1566 1.374 . S
C1568 C1565 1.499 . S
C1568 C1569 1.373 . S
C1568 C1570 1.389 . S
C1569 H1548 0.950 . S
C1569 C1568 1.373 . S
C1569 C1585 1.377 . S
C1570 C1568 1.389 . S
C1570 C1571 1.524 . S
C1570 C1584 1.377 . S
C1571 C1570 1.524 . S
C1571 C1572 1.397 . S
C1571 C1576 1.363 . S
C1572 H1549 0.950 . S
C1572 C1571 1.397 . S
C1572 C1573 1.334 . S
C1573 H1550 0.950 . S
C1573 C1572 1.334 . S
C1573 C1574 1.287 . S
C1574 C1573 1.287 . S
C1574 C1575 1.524 . S
C1574 H1593 0.913 . S
C1575 H1551 0.950 . S
C1575 C1574 1.524 . S
C1575 C1576 1.415 . S
C1576 H1552 0.950 . S
C1576 C1571 1.363 . S
C1576 C1575 1.415 . S
C1577 H1553 0.951 . S
C1577 C1578 1.366 . S
C1577 C1579 1.388 . S
C1578 C1577 1.366 . S
C1578 C1582 1.385 . S
C1579 H1554 0.951 . S
C1579 C1577 1.388 . S
C1579 C1580 1.366 . S
C1580 C1579 1.366 . S
C1580 C1581 1.414 . S
C1580 C1583 1.499 . S
C1581 H1555 0.950 . S
C1581 C1580 1.414 . S
C1581 C1582 1.374 . S
C1582 H1556 0.950 . S
C1582 C1578 1.385 . S
C1582 C1581 1.374 . S
C1583 C1580 1.499 . S
C1583 C1584 1.373 . S
C1583 C1585 1.389 . S
C1584 H1557 0.950 . S
C1584 C1570 1.377 . S
C1584 C1583 1.373 . S
C1585 C1569 1.377 . S
C1585 C1583 1.389 . S
C1585 C1586 1.524 . S
C1586 C1585 1.524 . S
C1586 C1587 1.397 . S
C1586 C1591 1.363 . S
C1587 H1558 0.950 . S
C1587 C1586 1.397 . S
C1587 C1588 1.334 . S
C1588 H1559 0.950 . S
C1588 C1587 1.334 . S
C1588 C1589 1.287 . S
C1589 C1588 1.287 . S
C1589 C1590 1.524 . S
C1589 H1592 0.999 . S
C1590 H1560 0.950 . S
C1590 C1589 1.524 . S
C1590 C1591 1.415 . S
C1591 H1561 0.950 . S
C1591 C1586 1.363 . S
C1591 C1590 1.415 . S
H1592 C1589 0.999 . S
H1593 C1574 0.913 . S
H1594 C1612 0.951 . S
H1595 C1614 0.951 . S
H1596 C1616 0.950 . S
H1597 C1617 0.950 . S
H1598 C1619 0.950 . S
H1599 C1622 0.950 . S
H1600 C1623 0.950 . S
H1601 C1625 0.950 . S
H1602 C1626 0.950 . S
H1603 C1627 0.951 . S
H1604 C1629 0.951 . S
H1605 C1631 0.950 . S
H1606 C1632 0.950 . S
H1607 C1634 0.950 . S
H1608 C1637 0.950 . S
H1609 C1638 0.950 . S
H1610 C1640 0.950 . S
H1611 C1641 0.950 . S
C1612 H1594 0.951 . S
C1612 C1613 1.366 . S
C1612 C1614 1.388 . S
C1613 C1612 1.366 . S
C1613 C1617 1.385 . S
C1614 H1595 0.951 . S
C1614 C1612 1.388 . S
C1614 C1615 1.366 . S
C1615 C1614 1.366 . S
C1615 C1616 1.414 . S
C1615 C1618 1.499 . S
C1616 H1596 0.950 . S
C1616 C1615 1.414 . S
C1616 C1617 1.374 . S
C1617 H1597 0.950 . S
C1617 C1613 1.385 . S
C1617 C1616 1.374 . S
C1618 C1615 1.499 . S
C1618 C1619 1.373 . S
C1618 C1620 1.389 . S
C1619 H1598 0.950 . S
C1619 C1618 1.373 . S
C1619 C1635 1.377 . S
C1620 C1618 1.389 . S
C1620 C1621 1.524 . S
C1620 C1634 1.377 . S
C1621 C1620 1.524 . S
C1621 C1622 1.397 . S
C1621 C1626 1.363 . S
C1622 H1599 0.950 . S
C1622 C1621 1.397 . S
C1622 C1623 1.334 . S
C1623 H1600 0.950 . S
C1623 C1622 1.334 . S
C1623 C1624 1.287 . S
C1624 C1623 1.287 . S
C1624 C1625 1.524 . S
C1624 H1643 0.913 . S
C1625 H1601 0.950 . S
C1625 C1624 1.524 . S
C1625 C1626 1.415 . S
C1626 H1602 0.950 . S
C1626 C1621 1.363 . S
C1626 C1625 1.415 . S
C1627 H1603 0.951 . S
C1627 C1628 1.366 . S
C1627 C1629 1.388 . S
C1628 C1627 1.366 . S
C1628 C1632 1.385 . S
C1629 H1604 0.951 . S
C1629 C1627 1.388 . S
C1629 C1630 1.366 . S
C1630 C1629 1.366 . S
C1630 C1631 1.414 . S
C1630 C1633 1.499 . S
C1631 H1605 0.950 . S
C1631 C1630 1.414 . S
C1631 C1632 1.374 . S
C1632 H1606 0.950 . S
C1632 C1628 1.385 . S
C1632 C1631 1.374 . S
C1633 C1630 1.499 . S
C1633 C1634 1.373 . S
C1633 C1635 1.389 . S
C1634 H1607 0.950 . S
C1634 C1620 1.377 . S
C1634 C1633 1.373 . S
C1635 C1619 1.377 . S
C1635 C1633 1.389 . S
C1635 C1636 1.524 . S
C1636 C1635 1.524 . S
C1636 C1637 1.397 . S
C1636 C1641 1.363 . S
C1637 H1608 0.950 . S
C1637 C1636 1.397 . S
C1637 C1638 1.334 . S
C1638 H1609 0.950 . S
C1638 C1637 1.334 . S
C1638 C1639 1.287 . S
C1639 C1638 1.287 . S
C1639 C1640 1.524 . S
C1639 H1642 0.999 . S
C1640 H1610 0.950 . S
C1640 C1639 1.524 . S
C1640 C1641 1.415 . S
C1641 H1611 0.950 . S
C1641 C1636 1.363 . S
C1641 C1640 1.415 . S
H1642 C1639 0.999 . S
H1643 C1624 0.913 . S
H1644 C1662 0.951 . S
H1645 C1664 0.951 . S
H1646 C1666 0.950 1_545 S
H1647 C1667 0.950 . S
H1648 C1669 0.950 . S
H1649 C1672 0.950 . S
H1650 C1673 0.950 . S
H1651 C1675 0.950 . S
H1652 C1676 0.950 . S
H1653 C1677 0.951 . S
H1654 C1679 0.951 . S
H1655 C1681 0.950 . S
H1656 C1682 0.950 1_565 S
H1657 C1684 0.950 . S
H1658 C1687 0.950 . S
H1659 C1688 0.950 . S
H1660 C1690 0.950 . S
H1661 C1691 0.950 . S
C1662 H1644 0.951 . S
C1662 C1663 1.366 . S
C1662 C1664 1.388 . S
C1663 C1662 1.366 . S
C1663 C1667 1.385 . S
C1664 H1645 0.951 . S
C1664 C1662 1.388 . S
C1664 C1665 1.366 . S
C1665 C1664 1.366 . S
C1665 C1666 1.414 . S
C1665 C1668 1.499 . S
C1666 H1646 0.950 1_565 S
C1666 C1665 1.414 . S
C1666 C1667 1.374 . S
C1667 H1647 0.950 . S
C1667 C1663 1.385 . S
C1667 C1666 1.374 . S
C1668 C1665 1.499 . S
C1668 C1669 1.373 1_565 S
C1668 C1670 1.389 . S
C1669 H1648 0.950 . S
C1669 C1668 1.373 1_545 S
C1669 C1685 1.377 . S
C1670 C1668 1.389 . S
C1670 C1671 1.524 . S
C1670 C1684 1.377 . S
C1671 C1670 1.524 . S
C1671 C1672 1.397 . S
C1671 C1676 1.363 . S
C1672 H1649 0.950 . S
C1672 C1671 1.397 . S
C1672 C1673 1.334 . S
C1673 H1650 0.950 . S
C1673 C1672 1.334 . S
C1673 C1674 1.287 . S
C1674 C1673 1.287 . S
C1674 C1675 1.524 . S
C1674 H1693 0.913 . S
C1675 H1651 0.950 . S
C1675 C1674 1.524 . S
C1675 C1676 1.415 . S
C1676 H1652 0.950 . S
C1676 C1671 1.363 . S
C1676 C1675 1.415 . S
C1677 H1653 0.951 . S
C1677 C1678 1.366 . S
C1677 C1679 1.388 . S
C1678 C1677 1.366 . S
C1678 C1682 1.385 . S
C1679 H1654 0.951 . S
C1679 C1677 1.388 . S
C1679 C1680 1.366 . S
C1680 C1679 1.366 . S
C1680 C1681 1.414 1_545 S
C1680 C1683 1.499 . S
C1681 H1655 0.950 . S
C1681 C1680 1.414 1_565 S
C1681 C1682 1.374 1_565 S
C1682 H1656 0.950 1_545 S
C1682 C1678 1.385 . S
C1682 C1681 1.374 1_545 S
C1683 C1680 1.499 . S
C1683 C1684 1.373 1_545 S
C1683 C1685 1.389 . S
C1684 H1657 0.950 . S
C1684 C1670 1.377 . S
C1684 C1683 1.373 1_565 S
C1685 C1669 1.377 . S
C1685 C1683 1.389 . S
C1685 C1686 1.524 . S
C1686 C1685 1.524 . S
C1686 C1687 1.397 . S
C1686 C1691 1.363 . S
C1687 H1658 0.950 . S
C1687 C1686 1.397 . S
C1687 C1688 1.334 . S
C1688 H1659 0.950 . S
C1688 C1687 1.334 . S
C1688 C1689 1.287 . S
C1689 C1688 1.287 . S
C1689 C1690 1.524 . S
C1689 H1692 0.999 . S
C1690 H1660 0.950 . S
C1690 C1689 1.524 . S
C1690 C1691 1.415 . S
C1691 H1661 0.950 . S
C1691 C1686 1.363 . S
C1691 C1690 1.415 . S
H1692 C1689 0.999 . S
H1693 C1674 0.913 . S
H1694 C1712 0.951 . S
H1695 C1714 0.951 . S
H1696 C1716 0.950 . S
H1697 C1717 0.950 . S
H1698 C1719 0.950 . S
H1699 C1722 0.950 . S
H1700 C1723 0.950 . S
H1701 C1725 0.948 1_556 S
H1702 C1726 0.950 . S
H1703 C1727 0.951 . S
H1704 C1729 0.951 . S
H1705 C1731 0.950 . S
H1706 C1732 0.950 . S
H1707 C1734 0.950 . S
H1708 C1737 0.950 . S
H1709 C1738 0.950 . S
H1710 C1740 0.949 . S
H1711 C1741 0.950 . S
C1712 H1694 0.951 . S
C1712 C1713 1.366 . S
C1712 C1714 1.388 . S
C1713 C1712 1.366 . S
C1713 C1717 1.385 . S
C1714 H1695 0.951 . S
C1714 C1712 1.388 . S
C1714 C1715 1.366 . S
C1715 C1714 1.366 . S
C1715 C1716 1.414 . S
C1715 C1718 1.499 . S
C1716 H1696 0.950 . S
C1716 C1715 1.414 . S
C1716 C1717 1.374 . S
C1717 H1697 0.950 . S
C1717 C1713 1.385 . S
C1717 C1716 1.374 . S
C1718 C1715 1.499 . S
C1718 C1719 1.373 1_655 S
C1718 C1720 1.389 . S
C1719 H1698 0.950 . S
C1719 C1718 1.373 1_455 S
C1719 C1735 1.377 1_554 S
C1720 C1718 1.389 . S
C1720 C1721 1.524 . S
C1720 C1734 1.377 1_554 S
C1721 C1720 1.524 . S
C1721 C1722 1.397 . S
C1721 C1726 1.363 1_554 S
C1722 H1699 0.950 . S
C1722 C1721 1.397 . S
C1722 C1723 1.334 . S
C1723 H1700 0.950 . S
C1723 C1722 1.334 . S
C1723 C1724 1.287 . S
C1724 C1723 1.287 . S
C1724 C1725 1.526 . S
C1724 H1743 0.913 . S
C1725 H1701 0.948 1_554 S
C1725 C1724 1.526 . S
C1725 C1726 1.415 1_554 S
C1726 H1702 0.950 . S
C1726 C1721 1.363 1_556 S
C1726 C1725 1.415 1_556 S
C1727 H1703 0.951 . S
C1727 C1728 1.366 . S
C1727 C1729 1.388 . S
C1728 C1727 1.366 . S
C1728 C1732 1.385 . S
C1729 H1704 0.951 . S
C1729 C1727 1.388 . S
C1729 C1730 1.366 . S
C1730 C1729 1.366 . S
C1730 C1731 1.414 . S
C1730 C1733 1.499 . S
C1731 H1705 0.950 . S
C1731 C1730 1.414 . S
C1731 C1732 1.374 . S
C1732 H1706 0.950 . S
C1732 C1728 1.385 . S
C1732 C1731 1.374 . S
C1733 C1730 1.499 . S
C1733 C1734 1.373 1_455 S
C1733 C1735 1.389 . S
C1734 H1707 0.950 . S
C1734 C1720 1.377 1_556 S
C1734 C1733 1.373 1_655 S
C1735 C1719 1.377 1_556 S
C1735 C1733 1.389 . S
C1735 C1736 1.524 . S
C1736 C1735 1.524 . S
C1736 C1737 1.397 . S
C1736 C1741 1.363 1_556 S
C1737 H1708 0.950 . S
C1737 C1736 1.397 . S
C1737 C1738 1.334 . S
C1738 H1709 0.950 . S
C1738 C1737 1.334 . S
C1738 C1739 1.287 . S
C1739 C1738 1.287 . S
C1739 C1740 1.525 1_556 S
C1739 H1742 0.999 . S
C1740 H1710 0.949 . S
C1740 C1739 1.525 1_554 S
C1740 C1741 1.415 . S
C1741 H1711 0.950 . S
C1741 C1736 1.363 1_554 S
C1741 C1740 1.415 . S
H1742 C1739 0.999 . S
H1743 C1724 0.913 . S
H1744 C1762 0.951 . S
H1745 C1764 0.951 . S
H1746 C1766 0.950 . S
H1747 C1767 0.950 . S
H1748 C1769 0.950 . S
H1749 C1772 0.950 . S
H1750 C1773 0.950 . S
H1751 C1775 0.950 . S
H1752 C1776 0.950 . S
H1753 C1777 0.951 . S
H1754 C1779 0.951 . S
H1755 C1781 0.950 . S
H1756 C1782 0.950 . S
H1757 C1784 0.950 . S
H1758 C1787 0.950 . S
H1759 C1788 0.950 . S
H1760 C1790 0.931 1_556 S
H1761 C1791 0.950 . S
C1762 H1744 0.951 . S
C1762 C1763 1.366 . S
C1762 C1764 1.388 . S
C1763 C1762 1.366 . S
C1763 C1767 1.385 . S
C1764 H1745 0.951 . S
C1764 C1762 1.388 . S
C1764 C1765 1.366 . S
C1765 C1764 1.366 . S
C1765 C1766 1.414 . S
C1765 C1768 1.499 . S
C1766 H1746 0.950 . S
C1766 C1765 1.414 . S
C1766 C1767 1.374 . S
C1767 H1747 0.950 . S
C1767 C1763 1.385 . S
C1767 C1766 1.374 . S
C1768 C1765 1.499 . S
C1768 C1769 1.373 . S
C1768 C1770 1.389 . S
C1769 H1748 0.950 . S
C1769 C1768 1.373 . S
C1769 C1785 1.377 . S
C1770 C1768 1.389 . S
C1770 C1771 1.524 . S
C1770 C1784 1.377 . S
C1771 C1770 1.524 . S
C1771 C1772 1.397 . S
C1771 C1776 1.363 . S
C1772 H1749 0.950 . S
C1772 C1771 1.397 . S
C1772 C1773 1.334 . S
C1773 H1750 0.950 . S
C1773 C1772 1.334 . S
C1773 C1774 1.287 . S
C1774 C1773 1.287 . S
C1774 C1775 1.524 . S
C1774 H1793 0.913 . S
C1775 H1751 0.950 . S
C1775 C1774 1.524 . S
C1775 C1776 1.415 . S
C1776 H1752 0.950 . S
C1776 C1771 1.363 . S
C1776 C1775 1.415 . S
C1777 H1753 0.951 . S
C1777 C1778 1.366 . S
C1777 C1779 1.388 . S
C1778 C1777 1.366 . S
C1778 C1782 1.385 . S
C1779 H1754 0.951 . S
C1779 C1777 1.388 . S
C1779 C1780 1.366 . S
C1780 C1779 1.366 . S
C1780 C1781 1.414 . S
C1780 C1783 1.499 . S
C1781 H1755 0.950 . S
C1781 C1780 1.414 . S
C1781 C1782 1.374 . S
C1782 H1756 0.950 . S
C1782 C1778 1.385 . S
C1782 C1781 1.374 . S
C1783 C1780 1.499 . S
C1783 C1784 1.373 . S
C1783 C1785 1.389 . S
C1784 H1757 0.950 . S
C1784 C1770 1.377 . S
C1784 C1783 1.373 . S
C1785 C1769 1.377 . S
C1785 C1783 1.389 . S
C1785 C1786 1.524 . S
C1786 C1785 1.524 . S
C1786 C1787 1.397 . S
C1786 C1791 1.363 . S
C1787 H1758 0.950 . S
C1787 C1786 1.397 . S
C1787 C1788 1.334 . S
C1788 H1759 0.950 . S
C1788 C1787 1.334 . S
C1788 C1789 1.287 . S
C1789 C1788 1.287 . S
C1789 C1790 1.527 . S
C1789 H1792 0.999 1_554 S
C1790 H1760 0.931 1_554 S
C1790 C1789 1.527 . S
C1790 C1791 1.434 . S
C1791 H1761 0.950 . S
C1791 C1786 1.363 . S
C1791 C1790 1.434 . S
H1792 C1789 0.999 1_556 S
H1793 C1774 0.913 . S
H1794 C1812 0.951 . S
H1795 C1814 0.951 . S
H1796 C1816 0.950 . S
H1797 C1817 0.950 . S
H1798 C1819 0.950 . S
H1799 C1822 0.950 . S
H1800 C1823 0.950 . S
H1801 C1825 0.950 . S
H1802 C1826 0.950 . S
H1803 C1827 0.951 . S
H1804 C1829 0.951 . S
H1805 C1831 0.950 . S
H1806 C1832 0.950 . S
H1807 C1834 0.950 . S
H1808 C1837 0.950 . S
H1809 C1838 0.950 . S
H1810 C1840 0.950 . S
H1811 C1841 0.950 . S
C1812 H1794 0.951 . S
C1812 C1813 1.366 . S
C1812 C1814 1.388 . S
C1813 C1812 1.366 . S
C1813 C1817 1.385 . S
C1814 H1795 0.951 . S
C1814 C1812 1.388 . S
C1814 C1815 1.366 . S
C1815 C1814 1.366 . S
C1815 C1816 1.414 . S
C1815 C1818 1.499 . S
C1816 H1796 0.950 . S
C1816 C1815 1.414 . S
C1816 C1817 1.374 . S
C1817 H1797 0.950 . S
C1817 C1813 1.385 . S
C1817 C1816 1.374 . S
C1818 C1815 1.499 . S
C1818 C1819 1.373 . S
C1818 C1820 1.389 . S
C1819 H1798 0.950 . S
C1819 C1818 1.373 . S
C1819 C1835 1.377 . S
C1820 C1818 1.389 . S
C1820 C1821 1.524 . S
C1820 C1834 1.377 . S
C1821 C1820 1.524 . S
C1821 C1822 1.397 . S
C1821 C1826 1.363 . S
C1822 H1799 0.950 . S
C1822 C1821 1.397 . S
C1822 C1823 1.334 . S
C1823 H1800 0.950 . S
C1823 C1822 1.334 . S
C1823 C1824 1.287 . S
C1824 C1823 1.287 . S
C1824 C1825 1.524 . S
C1824 H1843 0.913 . S
C1825 H1801 0.950 . S
C1825 C1824 1.524 . S
C1825 C1826 1.415 . S
C1826 H1802 0.950 . S
C1826 C1821 1.363 . S
C1826 C1825 1.415 . S
C1827 H1803 0.951 . S
C1827 C1828 1.366 . S
C1827 C1829 1.388 . S
C1828 C1827 1.366 . S
C1828 C1832 1.385 . S
C1829 H1804 0.951 . S
C1829 C1827 1.388 . S
C1829 C1830 1.366 . S
C1830 C1829 1.366 . S
C1830 C1831 1.414 . S
C1830 C1833 1.499 . S
C1831 H1805 0.950 . S
C1831 C1830 1.414 . S
C1831 C1832 1.374 . S
C1832 H1806 0.950 . S
C1832 C1828 1.385 . S
C1832 C1831 1.374 . S
C1833 C1830 1.499 . S
C1833 C1834 1.373 . S
C1833 C1835 1.389 . S
C1834 H1807 0.950 . S
C1834 C1820 1.377 . S
C1834 C1833 1.373 . S
C1835 C1819 1.377 . S
C1835 C1833 1.389 . S
C1835 C1836 1.524 . S
C1836 C1835 1.524 . S
C1836 C1837 1.397 . S
C1836 C1841 1.363 . S
C1837 H1808 0.950 . S
C1837 C1836 1.397 . S
C1837 C1838 1.334 . S
C1838 H1809 0.950 . S
C1838 C1837 1.334 . S
C1838 C1839 1.287 . S
C1839 C1838 1.287 . S
C1839 C1840 1.524 . S
C1839 H1842 0.999 . S
C1840 H1810 0.950 . S
C1840 C1839 1.524 . S
C1840 C1841 1.415 . S
C1841 H1811 0.950 . S
C1841 C1836 1.363 . S
C1841 C1840 1.415 . S
H1842 C1839 0.999 . S
H1843 C1824 0.913 . S
H1844 C1862 0.951 . S
H1845 C1864 0.951 . S
H1846 C1866 0.950 . S
H1847 C1867 0.950 . S
H1848 C1869 0.950 . S
H1849 C1872 0.950 . S
H1850 C1873 0.950 . S
H1851 C1875 0.950 . S
H1852 C1876 0.950 . S
H1853 C1877 0.951 . S
H1854 C1879 0.951 . S
H1855 C1881 0.950 . S
H1856 C1882 0.950 . S
H1857 C1884 0.950 . S
H1858 C1887 0.950 . S
H1859 C1888 0.950 . S
H1860 C1890 0.950 . S
H1861 C1891 0.950 . S
C1862 H1844 0.951 . S
C1862 C1863 1.366 . S
C1862 C1864 1.388 . S
C1863 C1862 1.366 . S
C1863 C1867 1.385 . S
C1864 H1845 0.951 . S
C1864 C1862 1.388 . S
C1864 C1865 1.366 . S
C1865 C1864 1.366 . S
C1865 C1866 1.414 . S
C1865 C1868 1.499 . S
C1866 H1846 0.950 . S
C1866 C1865 1.414 . S
C1866 C1867 1.374 . S
C1867 H1847 0.950 . S
C1867 C1863 1.385 . S
C1867 C1866 1.374 . S
C1868 C1865 1.499 . S
C1868 C1869 1.373 . S
C1868 C1870 1.389 . S
C1869 H1848 0.950 . S
C1869 C1868 1.373 . S
C1869 C1885 1.377 . S
C1870 C1868 1.389 . S
C1870 C1871 1.524 . S
C1870 C1884 1.377 . S
C1871 C1870 1.524 . S
C1871 C1872 1.397 . S
C1871 C1876 1.363 . S
C1872 H1849 0.950 . S
C1872 C1871 1.397 . S
C1872 C1873 1.334 . S
C1873 H1850 0.950 . S
C1873 C1872 1.334 . S
C1873 C1874 1.287 . S
C1874 C1873 1.287 . S
C1874 C1875 1.524 . S
C1874 H1893 0.913 . S
C1875 H1851 0.950 . S
C1875 C1874 1.524 . S
C1875 C1876 1.415 . S
C1876 H1852 0.950 . S
C1876 C1871 1.363 . S
C1876 C1875 1.415 . S
C1877 H1853 0.951 . S
C1877 C1878 1.366 . S
C1877 C1879 1.388 . S
C1878 C1877 1.366 . S
C1878 C1882 1.385 . S
C1879 H1854 0.951 . S
C1879 C1877 1.388 . S
C1879 C1880 1.366 . S
C1880 C1879 1.366 . S
C1880 C1881 1.414 . S
C1880 C1883 1.499 . S
C1881 H1855 0.950 . S
C1881 C1880 1.414 . S
C1881 C1882 1.374 . S
C1882 H1856 0.950 . S
C1882 C1878 1.385 . S
C1882 C1881 1.374 . S
C1883 C1880 1.499 . S
C1883 C1884 1.373 . S
C1883 C1885 1.389 . S
C1884 H1857 0.950 . S
C1884 C1870 1.377 . S
C1884 C1883 1.373 . S
C1885 C1869 1.377 . S
C1885 C1883 1.389 . S
C1885 C1886 1.524 . S
C1886 C1885 1.524 . S
C1886 C1887 1.397 . S
C1886 C1891 1.363 . S
C1887 H1858 0.950 . S
C1887 C1886 1.397 . S
C1887 C1888 1.334 . S
C1888 H1859 0.950 . S
C1888 C1887 1.334 . S
C1888 C1889 1.287 . S
C1889 C1888 1.287 . S
C1889 C1890 1.524 . S
C1889 H1892 0.999 . S
C1890 H1860 0.950 . S
C1890 C1889 1.524 . S
C1890 C1891 1.415 . S
C1891 H1861 0.950 . S
C1891 C1886 1.363 . S
C1891 C1890 1.415 . S
H1892 C1889 0.999 . S
H1893 C1874 0.913 . S
H1894 C1912 0.951 . S
H1895 C1914 0.951 . S
H1896 C1916 0.950 . S
H1897 C1917 0.950 . S
H1898 C1919 0.950 . S
H1899 C1922 0.950 . S
H1900 C1923 0.950 . S
H1901 C1925 0.950 . S
H1902 C1926 0.950 . S
H1903 C1927 0.951 . S
H1904 C1929 0.951 . S
H1905 C1931 0.950 . S
H1906 C1932 0.950 . S
H1907 C1934 0.950 . S
H1908 C1937 0.950 . S
H1909 C1938 0.950 . S
H1910 C1940 0.950 . S
H1911 C1941 0.950 . S
C1912 H1894 0.951 . S
C1912 C1913 1.366 . S
C1912 C1914 1.388 . S
C1913 C1912 1.366 . S
C1913 C1917 1.385 . S
C1914 H1895 0.951 . S
C1914 C1912 1.388 . S
C1914 C1915 1.366 . S
C1915 C1914 1.366 . S
C1915 C1916 1.414 . S
C1915 C1918 1.499 . S
C1916 H1896 0.950 . S
C1916 C1915 1.414 . S
C1916 C1917 1.374 . S
C1917 H1897 0.950 . S
C1917 C1913 1.385 . S
C1917 C1916 1.374 . S
C1918 C1915 1.499 . S
C1918 C1919 1.373 . S
C1918 C1920 1.389 . S
C1919 H1898 0.950 . S
C1919 C1918 1.373 . S
C1919 C1935 1.377 . S
C1920 C1918 1.389 . S
C1920 C1921 1.524 . S
C1920 C1934 1.377 . S
C1921 C1920 1.524 . S
C1921 C1922 1.397 . S
C1921 C1926 1.363 . S
C1922 H1899 0.950 . S
C1922 C1921 1.397 . S
C1922 C1923 1.334 . S
C1923 H1900 0.950 . S
C1923 C1922 1.334 . S
C1923 C1924 1.287 . S
C1924 C1923 1.287 . S
C1924 C1925 1.524 . S
C1924 H1943 0.913 . S
C1925 H1901 0.950 . S
C1925 C1924 1.524 . S
C1925 C1926 1.415 . S
C1926 H1902 0.950 . S
C1926 C1921 1.363 . S
C1926 C1925 1.415 . S
C1927 H1903 0.951 . S
C1927 C1928 1.366 . S
C1927 C1929 1.388 . S
C1928 C1927 1.366 . S
C1928 C1932 1.385 . S
C1929 H1904 0.951 . S
C1929 C1927 1.388 . S
C1929 C1930 1.366 . S
C1930 C1929 1.366 . S
C1930 C1931 1.414 . S
C1930 C1933 1.499 . S
C1931 H1905 0.950 . S
C1931 C1930 1.414 . S
C1931 C1932 1.374 . S
C1932 H1906 0.950 . S
C1932 C1928 1.385 . S
C1932 C1931 1.374 . S
C1933 C1930 1.499 . S
C1933 C1934 1.373 . S
C1933 C1935 1.389 . S
C1934 H1907 0.950 . S
C1934 C1920 1.377 . S
C1934 C1933 1.373 . S
C1935 C1919 1.377 . S
C1935 C1933 1.389 . S
C1935 C1936 1.524 . S
C1936 C1935 1.524 . S
C1936 C1937 1.397 . S
C1936 C1941 1.363 . S
C1937 H1908 0.950 . S
C1937 C1936 1.397 . S
C1937 C1938 1.334 . S
C1938 H1909 0.950 . S
C1938 C1937 1.334 . S
C1938 C1939 1.287 . S
C1939 C1938 1.287 . S
C1939 C1940 1.524 . S
C1939 H1942 0.999 . S
C1940 H1910 0.950 . S
C1940 C1939 1.524 . S
C1940 C1941 1.415 . S
C1941 H1911 0.950 . S
C1941 C1936 1.363 . S
C1941 C1940 1.415 . S
H1942 C1939 0.999 . S
H1943 C1924 0.913 . S
H1944 C1962 0.951 . S
H1945 C1964 0.951 . S
H1946 C1966 0.950 . S
H1947 C1967 0.950 . S
H1948 C1969 0.950 . S
H1949 C1972 0.950 . S
H1950 C1973 0.950 . S
H1951 C1975 0.950 . S
H1952 C1976 0.950 . S
H1953 C1977 0.951 . S
H1954 C1979 0.951 . S
H1955 C1981 0.950 . S
H1956 C1982 0.950 . S
H1957 C1984 0.950 . S
H1958 C1987 0.950 . S
H1959 C1988 0.950 . S
H1960 C1990 0.950 . S
H1961 C1991 0.950 . S
C1962 H1944 0.951 . S
C1962 C1963 1.366 . S
C1962 C1964 1.388 . S
C1963 C1962 1.366 . S
C1963 C1967 1.385 . S
C1964 H1945 0.951 . S
C1964 C1962 1.388 . S
C1964 C1965 1.366 . S
C1965 C1964 1.366 . S
C1965 C1966 1.414 . S
C1965 C1968 1.499 . S
C1966 H1946 0.950 . S
C1966 C1965 1.414 . S
C1966 C1967 1.374 . S
C1967 H1947 0.950 . S
C1967 C1963 1.385 . S
C1967 C1966 1.374 . S
C1968 C1965 1.499 . S
C1968 C1969 1.373 . S
C1968 C1970 1.389 . S
C1969 H1948 0.950 . S
C1969 C1968 1.373 . S
C1969 C1985 1.377 . S
C1970 C1968 1.389 . S
C1970 C1971 1.524 . S
C1970 C1984 1.377 . S
C1971 C1970 1.524 . S
C1971 C1972 1.397 . S
C1971 C1976 1.363 . S
C1972 H1949 0.950 . S
C1972 C1971 1.397 . S
C1972 C1973 1.334 . S
C1973 H1950 0.950 . S
C1973 C1972 1.334 . S
C1973 C1974 1.287 . S
C1974 C1973 1.287 . S
C1974 C1975 1.524 . S
C1974 H1993 0.913 . S
C1975 H1951 0.950 . S
C1975 C1974 1.524 . S
C1975 C1976 1.415 . S
C1976 H1952 0.950 . S
C1976 C1971 1.363 . S
C1976 C1975 1.415 . S
C1977 H1953 0.951 . S
C1977 C1978 1.366 . S
C1977 C1979 1.388 . S
C1978 C1977 1.366 . S
C1978 C1982 1.385 . S
C1979 H1954 0.951 . S
C1979 C1977 1.388 . S
C1979 C1980 1.366 . S
C1980 C1979 1.366 . S
C1980 C1981 1.414 . S
C1980 C1983 1.499 . S
C1981 H1955 0.950 . S
C1981 C1980 1.414 . S
C1981 C1982 1.374 . S
C1982 H1956 0.950 . S
C1982 C1978 1.385 . S
C1982 C1981 1.374 . S
C1983 C1980 1.499 . S
C1983 C1984 1.373 . S
C1983 C1985 1.389 . S
C1984 H1957 0.950 . S
C1984 C1970 1.377 . S
C1984 C1983 1.373 . S
C1985 C1969 1.377 . S
C1985 C1983 1.389 . S
C1985 C1986 1.524 . S
C1986 C1985 1.524 . S
C1986 C1987 1.397 . S
C1986 C1991 1.363 . S
C1987 H1958 0.950 . S
C1987 C1986 1.397 . S
C1987 C1988 1.334 . S
C1988 H1959 0.950 . S
C1988 C1987 1.334 . S
C1988 C1989 1.287 . S
C1989 C1988 1.287 . S
C1989 C1990 1.524 . S
C1989 H1992 0.999 . S
C1990 H1960 0.950 . S
C1990 C1989 1.524 . S
C1990 C1991 1.415 . S
C1991 H1961 0.950 . S
C1991 C1986 1.363 . S
C1991 C1990 1.415 . S
H1992 C1989 0.999 . S
H1993 C1974 0.913 . S
H1994 C2012 0.951 . S
H1995 C2014 0.951 . S
H1996 C2016 0.950 . S
H1997 C2017 0.950 . S
H1998 C2019 0.950 . S
H1999 C2022 0.950 . S
H2000 C2023 0.950 . S
H2001 C2025 0.950 . S
H2002 C2026 0.950 . S
H2003 C2027 0.954 . S
H2004 C2029 0.951 . S
H2005 C2031 0.950 . S
H2006 C2032 0.950 . S
H2007 C2034 0.950 . S
H2008 C2037 0.950 . S
H2009 C2038 0.950 . S
H2010 C2040 0.950 1_554 S
H2011 C2041 0.950 . S
C2012 H1994 0.951 . S
C2012 C2013 1.366 . S
C2012 C2014 1.388 . S
C2013 C2012 1.366 . S
C2013 C2017 1.385 . S
C2014 H1995 0.951 . S
C2014 C2012 1.388 . S
C2014 C2015 1.366 . S
C2015 C2014 1.366 . S
C2015 C2016 1.414 . S
C2015 C2018 1.499 . S
C2016 H1996 0.950 . S
C2016 C2015 1.414 . S
C2016 C2017 1.374 . S
C2017 H1997 0.950 . S
C2017 C2013 1.385 . S
C2017 C2016 1.374 . S
C2018 C2015 1.499 . S
C2018 C2019 1.373 . S
C2018 C2020 1.389 . S
C2019 H1998 0.950 . S
C2019 C2018 1.373 . S
C2019 C2035 1.377 . S
C2020 C2018 1.389 . S
C2020 C2021 1.524 . S
C2020 C2034 1.377 . S
C2021 C2020 1.524 . S
C2021 C2022 1.397 . S
C2021 C2026 1.363 . S
C2022 H1999 0.950 . S
C2022 C2021 1.397 . S
C2022 C2023 1.334 . S
C2023 H2000 0.950 . S
C2023 C2022 1.334 . S
C2023 C2024 1.287 . S
C2024 C2023 1.287 . S
C2024 C2025 1.524 . S
C2024 H2043 0.913 . S
C2025 H2001 0.950 . S
C2025 C2024 1.524 . S
C2025 C2026 1.415 . S
C2026 H2002 0.950 . S
C2026 C2021 1.363 . S
C2026 C2025 1.415 . S
C2027 H2003 0.954 . S
C2027 C2028 1.366 . S
C2027 C2029 1.388 . S
C2028 C2027 1.366 . S
C2028 C2032 1.385 . S
C2029 H2004 0.951 . S
C2029 C2027 1.388 . S
C2029 C2030 1.366 . S
C2030 C2029 1.366 . S
C2030 C2031 1.414 . S
C2030 C2033 1.499 . S
C2031 H2005 0.950 . S
C2031 C2030 1.414 . S
C2031 C2032 1.374 . S
C2032 H2006 0.950 . S
C2032 C2028 1.385 . S
C2032 C2031 1.374 . S
C2033 C2030 1.499 . S
C2033 C2034 1.373 . S
C2033 C2035 1.389 . S
C2034 H2007 0.950 . S
C2034 C2020 1.377 . S
C2034 C2033 1.373 . S
C2035 C2019 1.377 . S
C2035 C2033 1.389 . S
C2035 C2036 1.524 . S
C2036 C2035 1.524 . S
C2036 C2037 1.397 . S
C2036 C2041 1.363 . S
C2037 H2008 0.950 . S
C2037 C2036 1.397 . S
C2037 C2038 1.334 . S
C2038 H2009 0.950 . S
C2038 C2037 1.334 . S
C2038 C2039 1.287 . S
C2039 C2038 1.287 . S
C2039 C2040 1.524 . S
C2039 H2042 0.999 1_556 S
C2040 H2010 0.950 1_556 S
C2040 C2039 1.524 . S
C2040 C2041 1.415 . S
C2041 H2011 0.950 . S
C2041 C2036 1.363 . S
C2041 C2040 1.415 . S
H2042 C2039 0.999 1_554 S
H2043 C2024 0.913 . S
H2044 C2062 0.951 . S
H2045 C2064 0.951 . S
H2046 C2066 0.950 . S
H2047 C2067 0.950 . S
H2048 C2069 0.950 . S
H2049 C2072 0.950 . S
H2050 C2073 0.950 . S
H2051 C2075 0.950 . S
H2052 C2076 0.950 . S
H2053 C2077 0.951 . S
H2054 C2079 0.951 . S
H2055 C2081 0.950 . S
H2056 C2082 0.950 . S
H2057 C2084 0.950 . S
H2058 C2087 0.950 . S
H2059 C2088 0.950 . S
H2060 C2090 0.950 . S
H2061 C2091 0.950 . S
C2062 H2044 0.951 . S
C2062 C2063 1.366 . S
C2062 C2064 1.388 . S
C2063 C2062 1.366 . S
C2063 C2067 1.385 . S
C2064 H2045 0.951 . S
C2064 C2062 1.388 . S
C2064 C2065 1.366 . S
C2065 C2064 1.366 . S
C2065 C2066 1.414 . S
C2065 C2068 1.499 . S
C2066 H2046 0.950 . S
C2066 C2065 1.414 . S
C2066 C2067 1.374 . S
C2067 H2047 0.950 . S
C2067 C2063 1.385 . S
C2067 C2066 1.374 . S
C2068 C2065 1.499 . S
C2068 C2069 1.373 . S
C2068 C2070 1.389 . S
C2069 H2048 0.950 . S
C2069 C2068 1.373 . S
C2069 C2085 1.377 . S
C2070 C2068 1.389 . S
C2070 C2071 1.524 . S
C2070 C2084 1.377 . S
C2071 C2070 1.524 . S
C2071 C2072 1.397 . S
C2071 C2076 1.363 . S
C2072 H2049 0.950 . S
C2072 C2071 1.397 . S
C2072 C2073 1.334 . S
C2073 H2050 0.950 . S
C2073 C2072 1.334 . S
C2073 C2074 1.287 . S
C2074 C2073 1.287 . S
C2074 C2075 1.524 . S
C2074 H2093 0.913 . S
C2075 H2051 0.950 . S
C2075 C2074 1.524 . S
C2075 C2076 1.415 . S
C2076 H2052 0.950 . S
C2076 C2071 1.363 . S
C2076 C2075 1.415 . S
C2077 H2053 0.951 . S
C2077 C2078 1.366 . S
C2077 C2079 1.388 . S
C2078 C2077 1.366 . S
C2078 C2082 1.385 . S
C2079 H2054 0.951 . S
C2079 C2077 1.388 . S
C2079 C2080 1.366 . S
C2080 C2079 1.366 . S
C2080 C2081 1.414 . S
C2080 C2083 1.499 . S
C2081 H2055 0.950 . S
C2081 C2080 1.414 . S
C2081 C2082 1.374 . S
C2082 H2056 0.950 . S
C2082 C2078 1.385 . S
C2082 C2081 1.374 . S
C2083 C2080 1.499 . S
C2083 C2084 1.373 . S
C2083 C2085 1.389 . S
C2084 H2057 0.950 . S
C2084 C2070 1.377 . S
C2084 C2083 1.373 . S
C2085 C2069 1.377 . S
C2085 C2083 1.389 . S
C2085 C2086 1.524 . S
C2086 C2085 1.524 . S
C2086 C2087 1.397 . S
C2086 C2091 1.363 . S
C2087 H2058 0.950 . S
C2087 C2086 1.397 . S
C2087 C2088 1.334 . S
C2088 H2059 0.950 . S
C2088 C2087 1.334 . S
C2088 C2089 1.287 . S
C2089 C2088 1.287 . S
C2089 C2090 1.524 . S
C2089 H2092 0.999 . S
C2090 H2060 0.950 . S
C2090 C2089 1.524 . S
C2090 C2091 1.415 . S
C2091 H2061 0.950 . S
C2091 C2086 1.363 . S
C2091 C2090 1.415 . S
H2092 C2089 0.999 . S
H2093 C2074 0.913 . S
H2094 C2112 0.951 . S
H2095 C2114 0.951 . S
H2096 C2116 0.950 . S
H2097 C2117 0.950 . S
H2098 C2119 0.950 . S
H2099 C2122 0.950 . S
H2100 C2123 0.950 . S
H2101 C2125 0.950 . S
H2102 C2126 0.950 . S
H2103 C2127 0.951 . S
H2104 C2129 0.951 . S
H2105 C2131 0.950 . S
H2106 C2132 0.950 . S
H2107 C2134 0.950 . S
H2108 C2137 0.950 . S
H2109 C2138 0.950 . S
H2110 C2140 0.950 . S
H2111 C2141 0.950 . S
C2112 H2094 0.951 . S
C2112 C2113 1.366 . S
C2112 C2114 1.388 . S
C2113 C2112 1.366 . S
C2113 C2117 1.385 . S
C2114 H2095 0.951 . S
C2114 C2112 1.388 . S
C2114 C2115 1.366 . S
C2115 C2114 1.366 . S
C2115 C2116 1.414 . S
C2115 C2118 1.499 . S
C2116 H2096 0.950 . S
C2116 C2115 1.414 . S
C2116 C2117 1.374 . S
C2117 H2097 0.950 . S
C2117 C2113 1.385 . S
C2117 C2116 1.374 . S
C2118 C2115 1.499 . S
C2118 C2119 1.373 . S
C2118 C2120 1.389 . S
C2119 H2098 0.950 . S
C2119 C2118 1.373 . S
C2119 C2135 1.377 . S
C2120 C2118 1.389 . S
C2120 C2121 1.524 . S
C2120 C2134 1.377 . S
C2121 C2120 1.524 . S
C2121 C2122 1.397 . S
C2121 C2126 1.363 . S
C2122 H2099 0.950 . S
C2122 C2121 1.397 . S
C2122 C2123 1.334 . S
C2123 H2100 0.950 . S
C2123 C2122 1.334 . S
C2123 C2124 1.287 . S
C2124 C2123 1.287 . S
C2124 C2125 1.524 . S
C2124 H2143 0.913 . S
C2125 H2101 0.950 . S
C2125 C2124 1.524 . S
C2125 C2126 1.415 . S
C2126 H2102 0.950 . S
C2126 C2121 1.363 . S
C2126 C2125 1.415 . S
C2127 H2103 0.951 . S
C2127 C2128 1.366 . S
C2127 C2129 1.388 . S
C2128 C2127 1.366 . S
C2128 C2132 1.385 . S
C2129 H2104 0.951 . S
C2129 C2127 1.388 . S
C2129 C2130 1.366 . S
C2130 C2129 1.366 . S
C2130 C2131 1.414 . S
C2130 C2133 1.499 . S
C2131 H2105 0.950 . S
C2131 C2130 1.414 . S
C2131 C2132 1.374 . S
C2132 H2106 0.950 . S
C2132 C2128 1.385 . S
C2132 C2131 1.374 . S
C2133 C2130 1.499 . S
C2133 C2134 1.373 . S
C2133 C2135 1.389 . S
C2134 H2107 0.950 . S
C2134 C2120 1.377 . S
C2134 C2133 1.373 . S
C2135 C2119 1.377 . S
C2135 C2133 1.389 . S
C2135 C2136 1.524 . S
C2136 C2135 1.524 . S
C2136 C2137 1.397 . S
C2136 C2141 1.363 . S
C2137 H2108 0.950 . S
C2137 C2136 1.397 . S
C2137 C2138 1.334 . S
C2138 H2109 0.950 . S
C2138 C2137 1.334 . S
C2138 C2139 1.287 . S
C2139 C2138 1.287 . S
C2139 C2140 1.524 . S
C2139 H2142 0.999 . S
C2140 H2110 0.950 . S
C2140 C2139 1.524 . S
C2140 C2141 1.415 . S
C2141 H2111 0.950 . S
C2141 C2136 1.363 . S
C2141 C2140 1.415 . S
H2142 C2139 0.999 . S
H2143 C2124 0.913 . S
H2144 C2162 0.951 . S
H2145 C2164 0.951 . S
H2146 C2166 0.950 . S
H2147 C2167 0.950 . S
H2148 C2169 0.950 . S
H2149 C2172 0.950 . S
H2150 C2173 0.950 . S
H2151 C2175 0.950 . S
H2152 C2176 0.950 . S
H2153 C2177 0.951 . S
H2154 C2179 0.951 . S
H2155 C2181 0.950 . S
H2156 C2182 0.950 . S
H2157 C2184 0.950 . S
H2158 C2187 0.950 . S
H2159 C2188 0.950 . S
H2160 C2190 0.950 . S
H2161 C2191 0.950 . S
C2162 H2144 0.951 . S
C2162 C2163 1.366 . S
C2162 C2164 1.388 . S
C2163 C2162 1.366 . S
C2163 C2167 1.385 . S
C2164 H2145 0.951 . S
C2164 C2162 1.388 . S
C2164 C2165 1.366 . S
C2165 C2164 1.366 . S
C2165 C2166 1.414 . S
C2165 C2168 1.499 . S
C2166 H2146 0.950 . S
C2166 C2165 1.414 . S
C2166 C2167 1.374 . S
C2167 H2147 0.950 . S
C2167 C2163 1.385 . S
C2167 C2166 1.374 . S
C2168 C2165 1.499 . S
C2168 C2169 1.373 . S
C2168 C2170 1.389 . S
C2169 H2148 0.950 . S
C2169 C2168 1.373 . S
C2169 C2185 1.377 . S
C2170 C2168 1.389 . S
C2170 C2171 1.524 . S
C2170 C2184 1.377 . S
C2171 C2170 1.524 . S
C2171 C2172 1.397 . S
C2171 C2176 1.363 . S
C2172 H2149 0.950 . S
C2172 C2171 1.397 . S
C2172 C2173 1.334 . S
C2173 H2150 0.950 . S
C2173 C2172 1.334 . S
C2173 C2174 1.287 . S
C2174 C2173 1.287 . S
C2174 C2175 1.524 . S
C2174 H2193 0.913 . S
C2175 H2151 0.950 . S
C2175 C2174 1.524 . S
C2175 C2176 1.415 . S
C2176 H2152 0.950 . S
C2176 C2171 1.363 . S
C2176 C2175 1.415 . S
C2177 H2153 0.951 . S
C2177 C2178 1.366 . S
C2177 C2179 1.388 . S
C2178 C2177 1.366 . S
C2178 C2182 1.385 . S
C2179 H2154 0.951 . S
C2179 C2177 1.388 . S
C2179 C2180 1.366 . S
C2180 C2179 1.366 . S
C2180 C2181 1.414 . S
C2180 C2183 1.499 . S
C2181 H2155 0.950 . S
C2181 C2180 1.414 . S
C2181 C2182 1.374 . S
C2182 H2156 0.950 . S
C2182 C2178 1.385 . S
C2182 C2181 1.374 . S
C2183 C2180 1.499 . S
C2183 C2184 1.373 . S
C2183 C2185 1.389 . S
C2184 H2157 0.950 . S
C2184 C2170 1.377 . S
C2184 C2183 1.373 . S
C2185 C2169 1.377 . S
C2185 C2183 1.389 . S
C2185 C2186 1.524 . S
C2186 C2185 1.524 . S
C2186 C2187 1.397 . S
C2186 C2191 1.363 . S
C2187 H2158 0.950 . S
C2187 C2186 1.397 . S
C2187 C2188 1.334 . S
C2188 H2159 0.950 . S
C2188 C2187 1.334 . S
C2188 C2189 1.287 . S
C2189 C2188 1.287 . S
C2189 C2190 1.524 . S
C2189 H2192 0.999 . S
C2190 H2160 0.950 . S
C2190 C2189 1.524 . S
C2190 C2191 1.415 . S
C2191 H2161 0.950 . S
C2191 C2186 1.363 . S
C2191 C2190 1.415 . S
H2192 C2189 0.999 . S
H2193 C2174 0.913 . S
H2194 C2212 0.951 . S
H2195 C2214 0.951 . S
H2196 C2216 0.950 . S
H2197 C2217 0.950 . S
H2198 C2219 0.950 . S
H2199 C2222 0.950 . S
H2200 C2223 0.950 . S
H2201 C2225 0.950 . S
H2202 C2226 0.950 . S
H2203 C2227 0.951 . S
H2204 C2229 0.951 . S
H2205 C2231 0.950 . S
H2206 C2232 0.950 . S
H2207 C2234 0.950 . S
H2208 C2237 0.950 . S
H2209 C2238 0.950 . S
H2210 C2240 0.950 . S
H2211 C2241 0.950 . S
C2212 H2194 0.951 . S
C2212 C2213 1.366 . S
C2212 C2214 1.388 . S
C2213 C2212 1.366 . S
C2213 C2217 1.385 . S
C2214 H2195 0.951 . S
C2214 C2212 1.388 . S
C2214 C2215 1.366 . S
C2215 C2214 1.366 . S
C2215 C2216 1.414 . S
C2215 C2218 1.499 . S
C2216 H2196 0.950 . S
C2216 C2215 1.414 . S
C2216 C2217 1.374 . S
C2217 H2197 0.950 . S
C2217 C2213 1.385 . S
C2217 C2216 1.374 . S
C2218 C2215 1.499 . S
C2218 C2219 1.373 . S
C2218 C2220 1.389 . S
C2219 H2198 0.950 . S
C2219 C2218 1.373 . S
C2219 C2235 1.377 . S
C2220 C2218 1.389 . S
C2220 C2221 1.524 . S
C2220 C2234 1.377 . S
C2221 C2220 1.524 . S
C2221 C2222 1.397 . S
C2221 C2226 1.363 . S
C2222 H2199 0.950 . S
C2222 C2221 1.397 . S
C2222 C2223 1.334 . S
C2223 H2200 0.950 . S
C2223 C2222 1.334 . S
C2223 C2224 1.287 . S
C2224 C2223 1.287 . S
C2224 C2225 1.524 . S
C2224 H2243 0.913 . S
C2225 H2201 0.950 . S
C2225 C2224 1.524 . S
C2225 C2226 1.415 . S
C2226 H2202 0.950 . S
C2226 C2221 1.363 . S
C2226 C2225 1.415 . S
C2227 H2203 0.951 . S
C2227 C2228 1.366 . S
C2227 C2229 1.388 . S
C2228 C2227 1.366 . S
C2228 C2232 1.385 . S
C2229 H2204 0.951 . S
C2229 C2227 1.388 . S
C2229 C2230 1.366 . S
C2230 C2229 1.366 . S
C2230 C2231 1.414 . S
C2230 C2233 1.499 . S
C2231 H2205 0.950 . S
C2231 C2230 1.414 . S
C2231 C2232 1.374 . S
C2232 H2206 0.950 . S
C2232 C2228 1.385 . S
C2232 C2231 1.374 . S
C2233 C2230 1.499 . S
C2233 C2234 1.373 . S
C2233 C2235 1.389 . S
C2234 H2207 0.950 . S
C2234 C2220 1.377 . S
C2234 C2233 1.373 . S
C2235 C2219 1.377 . S
C2235 C2233 1.389 . S
C2235 C2236 1.524 . S
C2236 C2235 1.524 . S
C2236 C2237 1.397 . S
C2236 C2241 1.363 . S
C2237 H2208 0.950 . S
C2237 C2236 1.397 . S
C2237 C2238 1.334 1_556 S
C2238 H2209 0.950 . S
C2238 C2237 1.334 1_554 S
C2238 C2239 1.287 . S
C2239 C2238 1.287 . S
C2239 C2240 1.524 . S
C2239 H2242 0.999 . S
C2240 H2210 0.950 . S
C2240 C2239 1.524 . S
C2240 C2241 1.415 1_554 S
C2241 H2211 0.950 . S
C2241 C2236 1.363 . S
C2241 C2240 1.415 1_556 S
H2242 C2239 0.999 . S
H2243 C2224 0.913 . S
H2244 C2262 0.951 . S
H2245 C2264 0.951 . S
H2246 C2266 0.950 . S
H2247 C2267 0.950 . S
H2248 C2269 0.950 . S
H2249 C2272 0.950 . S
H2250 C2273 0.950 . S
H2251 C2275 0.950 . S
H2252 C2276 0.950 . S
H2253 C2277 0.951 . S
H2254 C2279 0.951 . S
H2255 C2281 0.950 . S
H2256 C2282 0.950 . S
H2257 C2284 0.950 . S
H2258 C2287 0.950 . S
H2259 C2288 0.950 . S
H2260 C2290 0.950 . S
H2261 C2291 0.950 . S
C2262 H2244 0.951 . S
C2262 C2263 1.366 . S
C2262 C2264 1.388 . S
C2263 C2262 1.366 . S
C2263 C2267 1.385 . S
C2264 H2245 0.951 . S
C2264 C2262 1.388 . S
C2264 C2265 1.366 . S
C2265 C2264 1.366 . S
C2265 C2266 1.414 . S
C2265 C2268 1.499 . S
C2266 H2246 0.950 . S
C2266 C2265 1.414 . S
C2266 C2267 1.374 . S
C2267 H2247 0.950 . S
C2267 C2263 1.385 . S
C2267 C2266 1.374 . S
C2268 C2265 1.499 . S
C2268 C2269 1.373 . S
C2268 C2270 1.389 . S
C2269 H2248 0.950 . S
C2269 C2268 1.373 . S
C2269 C2285 1.377 . S
C2270 C2268 1.389 . S
C2270 C2271 1.524 . S
C2270 C2284 1.377 . S
C2271 C2270 1.524 . S
C2271 C2272 1.397 . S
C2271 C2276 1.363 . S
C2272 H2249 0.950 . S
C2272 C2271 1.397 . S
C2272 C2273 1.334 . S
C2273 H2250 0.950 . S
C2273 C2272 1.334 . S
C2273 C2274 1.287 . S
C2274 C2273 1.287 . S
C2274 C2275 1.524 . S
C2274 H2293 0.913 . S
C2275 H2251 0.950 . S
C2275 C2274 1.524 . S
C2275 C2276 1.415 . S
C2276 H2252 0.950 . S
C2276 C2271 1.363 . S
C2276 C2275 1.415 . S
C2277 H2253 0.951 . S
C2277 C2278 1.366 . S
C2277 C2279 1.388 . S
C2278 C2277 1.366 . S
C2278 C2282 1.385 . S
C2279 H2254 0.951 . S
C2279 C2277 1.388 . S
C2279 C2280 1.366 . S
C2280 C2279 1.366 . S
C2280 C2281 1.414 . S
C2280 C2283 1.499 . S
C2281 H2255 0.950 . S
C2281 C2280 1.414 . S
C2281 C2282 1.374 . S
C2282 H2256 0.950 . S
C2282 C2278 1.385 . S
C2282 C2281 1.374 . S
C2283 C2280 1.499 . S
C2283 C2284 1.373 . S
C2283 C2285 1.389 . S
C2284 H2257 0.950 . S
C2284 C2270 1.377 . S
C2284 C2283 1.373 . S
C2285 C2269 1.377 . S
C2285 C2283 1.389 . S
C2285 C2286 1.524 . S
C2286 C2285 1.524 . S
C2286 C2287 1.397 . S
C2286 C2291 1.363 . S
C2287 H2258 0.950 . S
C2287 C2286 1.397 . S
C2287 C2288 1.334 . S
C2288 H2259 0.950 . S
C2288 C2287 1.334 . S
C2288 C2289 1.287 . S
C2289 C2288 1.287 . S
C2289 C2290 1.524 . S
C2289 H2292 0.999 . S
C2290 H2260 0.950 . S
C2290 C2289 1.524 . S
C2290 C2291 1.415 . S
C2291 H2261 0.950 . S
C2291 C2286 1.363 . S
C2291 C2290 1.415 . S
H2292 C2289 0.999 . S
H2293 C2274 0.913 . S
H2294 C2312 0.951 . S
H2295 C2314 0.951 . S
H2296 C2316 0.950 . S
H2297 C2317 0.950 . S
H2298 C2319 0.950 . S
H2299 C2322 0.950 . S
H2300 C2323 0.950 . S
H2301 C2325 0.950 . S
H2302 C2326 0.950 . S
H2303 C2327 0.951 . S
H2304 C2329 0.951 . S
H2305 C2331 0.950 . S
H2306 C2332 0.950 . S
H2307 C2334 0.950 . S
H2308 C2337 0.950 . S
H2309 C2338 0.950 . S
H2310 C2340 0.950 . S
H2311 C2341 0.950 . S
C2312 H2294 0.951 . S
C2312 C2313 1.366 . S
C2312 C2314 1.388 . S
C2313 C2312 1.366 . S
C2313 C2317 1.385 . S
C2314 H2295 0.951 . S
C2314 C2312 1.388 . S
C2314 C2315 1.366 . S
C2315 C2314 1.366 . S
C2315 C2316 1.414 . S
C2315 C2318 1.499 . S
C2316 H2296 0.950 . S
C2316 C2315 1.414 . S
C2316 C2317 1.374 . S
C2317 H2297 0.950 . S
C2317 C2313 1.385 . S
C2317 C2316 1.374 . S
C2318 C2315 1.499 . S
C2318 C2319 1.373 . S
C2318 C2320 1.389 . S
C2319 H2298 0.950 . S
C2319 C2318 1.373 . S
C2319 C2335 1.377 . S
C2320 C2318 1.389 . S
C2320 C2321 1.524 . S
C2320 C2334 1.377 . S
C2321 C2320 1.524 . S
C2321 C2322 1.397 . S
C2321 C2326 1.363 . S
C2322 H2299 0.950 . S
C2322 C2321 1.397 . S
C2322 C2323 1.334 . S
C2323 H2300 0.950 . S
C2323 C2322 1.334 . S
C2323 C2324 1.287 . S
C2324 C2323 1.287 . S
C2324 C2325 1.524 . S
C2324 H2343 0.913 . S
C2325 H2301 0.950 . S
C2325 C2324 1.524 . S
C2325 C2326 1.415 . S
C2326 H2302 0.950 . S
C2326 C2321 1.363 . S
C2326 C2325 1.415 . S
C2327 H2303 0.951 . S
C2327 C2328 1.366 . S
C2327 C2329 1.388 . S
C2328 C2327 1.366 . S
C2328 C2332 1.385 . S
C2329 H2304 0.951 . S
C2329 C2327 1.388 . S
C2329 C2330 1.366 . S
C2330 C2329 1.366 . S
C2330 C2331 1.414 . S
C2330 C2333 1.499 . S
C2331 H2305 0.950 . S
C2331 C2330 1.414 . S
C2331 C2332 1.374 . S
C2332 H2306 0.950 . S
C2332 C2328 1.385 . S
C2332 C2331 1.374 . S
C2333 C2330 1.499 . S
C2333 C2334 1.373 . S
C2333 C2335 1.389 . S
C2334 H2307 0.950 . S
C2334 C2320 1.377 . S
C2334 C2333 1.373 . S
C2335 C2319 1.377 . S
C2335 C2333 1.389 . S
C2335 C2336 1.524 . S
C2336 C2335 1.524 . S
C2336 C2337 1.397 . S
C2336 C2341 1.363 . S
C2337 H2308 0.950 . S
C2337 C2336 1.397 . S
C2337 C2338 1.334 . S
C2338 H2309 0.950 . S
C2338 C2337 1.334 . S
C2338 C2339 1.287 . S
C2339 C2338 1.287 . S
C2339 C2340 1.524 . S
C2339 H2342 0.999 . S
C2340 H2310 0.950 . S
C2340 C2339 1.524 . S
C2340 C2341 1.415 . S
C2341 H2311 0.950 . S
C2341 C2336 1.363 . S
C2341 C2340 1.415 . S
H2342 C2339 0.999 . S
H2343 C2324 0.913 . S
H2344 C2362 0.951 . S
H2345 C2364 0.951 . S
H2346 C2366 0.950 . S
H2347 C2367 0.950 . S
H2348 C2369 0.950 . S
H2349 C2372 0.950 . S
H2350 C2373 0.950 . S
H2351 C2375 0.950 . S
H2352 C2376 0.950 . S
H2353 C2377 0.951 . S
H2354 C2379 0.951 . S
H2355 C2381 0.950 . S
H2356 C2382 0.950 . S
H2357 C2384 0.950 . S
H2358 C2387 0.950 . S
H2359 C2388 0.950 1_556 S
H2360 C2390 0.950 . S
H2361 C2391 0.950 . S
C2362 H2344 0.951 . S
C2362 C2363 1.366 . S
C2362 C2364 1.388 . S
C2363 C2362 1.366 . S
C2363 C2367 1.385 . S
C2364 H2345 0.951 . S
C2364 C2362 1.388 . S
C2364 C2365 1.366 . S
C2365 C2364 1.366 . S
C2365 C2366 1.414 . S
C2365 C2368 1.499 . S
C2366 H2346 0.950 . S
C2366 C2365 1.414 . S
C2366 C2367 1.374 . S
C2367 H2347 0.950 . S
C2367 C2363 1.385 . S
C2367 C2366 1.374 . S
C2368 C2365 1.499 . S
C2368 C2369 1.373 . S
C2368 C2370 1.389 . S
C2369 H2348 0.950 . S
C2369 C2368 1.373 . S
C2369 C2385 1.377 . S
C2370 C2368 1.389 . S
C2370 C2371 1.524 . S
C2370 C2384 1.377 . S
C2371 C2370 1.524 . S
C2371 C2372 1.397 . S
C2371 C2376 1.363 . S
C2372 H2349 0.950 . S
C2372 C2371 1.397 . S
C2372 C2373 1.334 . S
C2373 H2350 0.950 . S
C2373 C2372 1.334 . S
C2373 C2374 1.287 . S
C2374 C2373 1.287 . S
C2374 C2375 1.524 . S
C2374 H2393 0.913 . S
C2375 H2351 0.950 . S
C2375 C2374 1.524 . S
C2375 C2376 1.415 . S
C2376 H2352 0.950 . S
C2376 C2371 1.363 . S
C2376 C2375 1.415 . S
C2377 H2353 0.951 . S
C2377 C2378 1.366 . S
C2377 C2379 1.388 . S
C2378 C2377 1.366 . S
C2378 C2382 1.385 . S
C2379 H2354 0.951 . S
C2379 C2377 1.388 . S
C2379 C2380 1.366 . S
C2380 C2379 1.366 . S
C2380 C2381 1.414 . S
C2380 C2383 1.499 . S
C2381 H2355 0.950 . S
C2381 C2380 1.414 . S
C2381 C2382 1.374 . S
C2382 H2356 0.950 . S
C2382 C2378 1.385 . S
C2382 C2381 1.374 . S
C2383 C2380 1.499 . S
C2383 C2384 1.373 . S
C2383 C2385 1.389 . S
C2384 H2357 0.950 . S
C2384 C2370 1.377 . S
C2384 C2383 1.373 . S
C2385 C2369 1.377 . S
C2385 C2383 1.389 . S
C2385 C2386 1.524 . S
C2386 C2385 1.524 . S
C2386 C2387 1.397 . S
C2386 C2391 1.363 . S
C2387 H2358 0.950 . S
C2387 C2386 1.397 . S
C2387 C2388 1.334 . S
C2388 H2359 0.950 1_554 S
C2388 C2387 1.334 . S
C2388 C2389 1.287 . S
C2389 C2388 1.287 . S
C2389 C2390 1.524 . S
C2389 H2392 0.999 . S
C2390 H2360 0.950 . S
C2390 C2389 1.524 . S
C2390 C2391 1.415 . S
C2391 H2361 0.950 . S
C2391 C2386 1.363 . S
C2391 C2390 1.415 . S
H2392 C2389 0.999 . S
H2393 C2374 0.913 . S
H2394 C2412 0.951 . S
H2395 C2414 0.951 . S
H2396 C2416 0.950 . S
H2397 C2417 0.950 . S
H2398 C2419 0.950 . S
H2399 C2422 0.950 . S
H2400 C2423 0.950 . S
H2401 C2425 0.950 . S
H2402 C2426 0.950 . S
H2403 C2427 0.951 . S
H2404 C2429 0.951 . S
H2405 C2431 0.950 . S
H2406 C2432 0.950 . S
H2407 C2434 0.950 . S
H2408 C2437 0.950 . S
H2409 C2438 0.950 . S
H2410 C2440 0.950 . S
H2411 C2441 0.950 . S
C2412 H2394 0.951 . S
C2412 C2413 1.366 . S
C2412 C2414 1.388 . S
C2413 C2412 1.366 . S
C2413 C2417 1.385 . S
C2414 H2395 0.951 . S
C2414 C2412 1.388 . S
C2414 C2415 1.366 . S
C2415 C2414 1.366 . S
C2415 C2416 1.414 . S
C2415 C2418 1.499 . S
C2416 H2396 0.950 . S
C2416 C2415 1.414 . S
C2416 C2417 1.374 . S
C2417 H2397 0.950 . S
C2417 C2413 1.385 . S
C2417 C2416 1.374 . S
C2418 C2415 1.499 . S
C2418 C2419 1.373 . S
C2418 C2420 1.389 . S
C2419 H2398 0.950 . S
C2419 C2418 1.373 . S
C2419 C2435 1.377 . S
C2420 C2418 1.389 . S
C2420 C2421 1.524 . S
C2420 C2434 1.377 . S
C2421 C2420 1.524 . S
C2421 C2422 1.397 . S
C2421 C2426 1.363 . S
C2422 H2399 0.950 . S
C2422 C2421 1.397 . S
C2422 C2423 1.334 . S
C2423 H2400 0.950 . S
C2423 C2422 1.334 . S
C2423 C2424 1.287 . S
C2424 C2423 1.287 . S
C2424 C2425 1.524 . S
C2424 H2443 0.913 . S
C2425 H2401 0.950 . S
C2425 C2424 1.524 . S
C2425 C2426 1.415 . S
C2426 H2402 0.950 . S
C2426 C2421 1.363 . S
C2426 C2425 1.415 . S
C2427 H2403 0.951 . S
C2427 C2428 1.366 . S
C2427 C2429 1.388 . S
C2428 C2427 1.366 . S
C2428 C2432 1.385 . S
C2429 H2404 0.951 . S
C2429 C2427 1.388 . S
C2429 C2430 1.366 . S
C2430 C2429 1.366 . S
C2430 C2431 1.414 . S
C2430 C2433 1.499 . S
C2431 H2405 0.950 . S
C2431 C2430 1.414 . S
C2431 C2432 1.374 . S
C2432 H2406 0.950 . S
C2432 C2428 1.385 . S
C2432 C2431 1.374 . S
C2433 C2430 1.499 . S
C2433 C2434 1.373 . S
C2433 C2435 1.389 . S
C2434 H2407 0.950 . S
C2434 C2420 1.377 . S
C2434 C2433 1.373 . S
C2435 C2419 1.377 . S
C2435 C2433 1.389 . S
C2435 C2436 1.524 . S
C2436 C2435 1.524 . S
C2436 C2437 1.397 . S
C2436 C2441 1.363 . S
C2437 H2408 0.950 . S
C2437 C2436 1.397 . S
C2437 C2438 1.334 . S
C2438 H2409 0.950 . S
C2438 C2437 1.334 . S
C2438 C2439 1.287 . S
C2439 C2438 1.287 . S
C2439 C2440 1.524 . S
C2439 H2442 0.999 . S
C2440 H2410 0.950 . S
C2440 C2439 1.524 . S
C2440 C2441 1.415 . S
C2441 H2411 0.950 . S
C2441 C2436 1.363 . S
C2441 C2440 1.415 . S
H2442 C2439 0.999 . S
H2443 C2424 0.913 . S
H2444 C2462 0.951 . S
H2445 C2464 0.951 . S
H2446 C2466 0.950 . S
H2447 C2467 0.950 . S
H2448 C2469 0.950 . S
H2449 C2472 0.950 . S
H2450 C2473 0.950 . S
H2451 C2475 0.950 . S
H2452 C2476 0.950 . S
H2453 C2477 0.951 . S
H2454 C2479 0.951 . S
H2455 C2481 0.950 . S
H2456 C2482 0.950 . S
H2457 C2484 0.950 . S
H2458 C2487 0.950 . S
H2459 C2488 0.950 . S
H2460 C2490 0.950 . S
H2461 C2491 0.950 . S
C2462 H2444 0.951 . S
C2462 C2463 1.366 . S
C2462 C2464 1.388 . S
C2463 C2462 1.366 . S
C2463 C2467 1.385 . S
C2464 H2445 0.951 . S
C2464 C2462 1.388 . S
C2464 C2465 1.366 . S
C2465 C2464 1.366 . S
C2465 C2466 1.414 . S
C2465 C2468 1.499 . S
C2466 H2446 0.950 . S
C2466 C2465 1.414 . S
C2466 C2467 1.374 . S
C2467 H2447 0.950 . S
C2467 C2463 1.385 . S
C2467 C2466 1.374 . S
C2468 C2465 1.499 . S
C2468 C2469 1.373 . S
C2468 C2470 1.389 . S
C2469 H2448 0.950 . S
C2469 C2468 1.373 . S
C2469 C2485 1.377 . S
C2470 C2468 1.389 . S
C2470 C2471 1.524 . S
C2470 C2484 1.377 . S
C2471 C2470 1.524 . S
C2471 C2472 1.397 . S
C2471 C2476 1.363 . S
C2472 H2449 0.950 . S
C2472 C2471 1.397 . S
C2472 C2473 1.334 . S
C2473 H2450 0.950 . S
C2473 C2472 1.334 . S
C2473 C2474 1.287 . S
C2474 C2473 1.287 . S
C2474 C2475 1.524 . S
C2474 H2493 0.913 . S
C2475 H2451 0.950 . S
C2475 C2474 1.524 . S
C2475 C2476 1.415 . S
C2476 H2452 0.950 . S
C2476 C2471 1.363 . S
C2476 C2475 1.415 . S
C2477 H2453 0.951 . S
C2477 C2478 1.366 . S
C2477 C2479 1.388 . S
C2478 C2477 1.366 . S
C2478 C2482 1.385 . S
C2479 H2454 0.951 . S
C2479 C2477 1.388 . S
C2479 C2480 1.366 . S
C2480 C2479 1.366 . S
C2480 C2481 1.414 . S
C2480 C2483 1.499 . S
C2481 H2455 0.950 . S
C2481 C2480 1.414 . S
C2481 C2482 1.374 . S
C2482 H2456 0.950 . S
C2482 C2478 1.385 . S
C2482 C2481 1.374 . S
C2483 C2480 1.499 . S
C2483 C2484 1.373 . S
C2483 C2485 1.389 . S
C2484 H2457 0.950 . S
C2484 C2470 1.377 . S
C2484 C2483 1.373 . S
C2485 C2469 1.377 . S
C2485 C2483 1.389 . S
C2485 C2486 1.524 . S
C2486 C2485 1.524 . S
C2486 C2487 1.397 . S
C2486 C2491 1.363 . S
C2487 H2458 0.950 . S
C2487 C2486 1.397 . S
C2487 C2488 1.334 . S
C2488 H2459 0.950 . S
C2488 C2487 1.334 . S
C2488 C2489 1.287 . S
C2489 C2488 1.287 . S
C2489 C2490 1.524 . S
C2489 H2492 0.999 . S
C2490 H2460 0.950 . S
C2490 C2489 1.524 . S
C2490 C2491 1.415 . S
C2491 H2461 0.950 . S
C2491 C2486 1.363 . S
C2491 C2490 1.415 . S
H2492 C2489 0.999 . S
H2493 C2474 0.913 . S
H2494 C2512 0.951 . S
H2495 C2514 0.951 . S
H2496 C2516 0.950 . S
H2497 C2517 0.950 . S
H2498 C2519 0.950 . S
H2499 C2522 0.950 . S
H2500 C2523 0.950 . S
H2501 C2525 0.950 . S
H2502 C2526 0.950 . S
H2503 C2527 0.951 . S
H2504 C2529 0.951 . S
H2505 C2531 0.950 . S
H2506 C2532 0.950 . S
H2507 C2534 0.950 . S
H2508 C2537 0.950 . S
H2509 C2538 0.950 . S
H2510 C2540 0.950 . S
H2511 C2541 0.950 . S
C2512 H2494 0.951 . S
C2512 C2513 1.366 . S
C2512 C2514 1.388 . S
C2513 C2512 1.366 . S
C2513 C2517 1.385 . S
C2514 H2495 0.951 . S
C2514 C2512 1.388 . S
C2514 C2515 1.366 . S
C2515 C2514 1.366 . S
C2515 C2516 1.414 . S
C2515 C2518 1.499 . S
C2516 H2496 0.950 . S
C2516 C2515 1.414 . S
C2516 C2517 1.374 . S
C2517 H2497 0.950 . S
C2517 C2513 1.385 . S
C2517 C2516 1.374 . S
C2518 C2515 1.499 . S
C2518 C2519 1.373 . S
C2518 C2520 1.389 . S
C2519 H2498 0.950 . S
C2519 C2518 1.373 . S
C2519 C2535 1.377 . S
C2520 C2518 1.389 . S
C2520 C2521 1.524 . S
C2520 C2534 1.377 . S
C2521 C2520 1.524 . S
C2521 C2522 1.397 . S
C2521 C2526 1.363 . S
C2522 H2499 0.950 . S
C2522 C2521 1.397 . S
C2522 C2523 1.334 . S
C2523 H2500 0.950 . S
C2523 C2522 1.334 . S
C2523 C2524 1.287 . S
C2524 C2523 1.287 . S
C2524 C2525 1.524 . S
C2524 H2543 0.913 . S
C2525 H2501 0.950 . S
C2525 C2524 1.524 . S
C2525 C2526 1.415 . S
C2526 H2502 0.950 . S
C2526 C2521 1.363 . S
C2526 C2525 1.415 . S
C2527 H2503 0.951 . S
C2527 C2528 1.366 . S
C2527 C2529 1.388 . S
C2528 C2527 1.366 . S
C2528 C2532 1.385 . S
C2529 H2504 0.951 . S
C2529 C2527 1.388 . S
C2529 C2530 1.366 . S
C2530 C2529 1.366 . S
C2530 C2531 1.414 . S
C2530 C2533 1.499 . S
C2531 H2505 0.950 . S
C2531 C2530 1.414 . S
C2531 C2532 1.374 . S
C2532 H2506 0.950 . S
C2532 C2528 1.385 . S
C2532 C2531 1.374 . S
C2533 C2530 1.499 . S
C2533 C2534 1.373 . S
C2533 C2535 1.389 . S
C2534 H2507 0.950 . S
C2534 C2520 1.377 . S
C2534 C2533 1.373 . S
C2535 C2519 1.377 . S
C2535 C2533 1.389 . S
C2535 C2536 1.524 . S
C2536 C2535 1.524 . S
C2536 C2537 1.397 . S
C2536 C2541 1.363 . S
C2537 H2508 0.950 . S
C2537 C2536 1.397 . S
C2537 C2538 1.334 . S
C2538 H2509 0.950 . S
C2538 C2537 1.334 . S
C2538 C2539 1.287 . S
C2539 C2538 1.287 . S
C2539 C2540 1.524 . S
C2539 H2542 0.999 . S
C2540 H2510 0.950 . S
C2540 C2539 1.524 . S
C2540 C2541 1.415 . S
C2541 H2511 0.950 . S
C2541 C2536 1.363 . S
C2541 C2540 1.415 . S
H2542 C2539 0.999 . S
H2543 C2524 0.913 . S
C563 C345 1.826 . S
C578 C5 1.826 . S
C613 C39 1.826 . S
C628 C379 1.826 . S
C663 C277 1.826 . S
C678 C73 1.826 . S
C713 C107 1.826 . S
C728 C311 1.826 . S
C763 C481 1.826 . S
C778 C141 1.826 . S
C813 C175 1.826 . S
C828 C515 1.826 . S
C863 C209 1.826 . S
C878 C413 1.827 . S
C913 C447 1.826 . S
C928 C243 1.826 . S
C963 C496 0.891 . S
C978 C33 0.892 . S
C1013 C530 0.891 . S
C1028 C67 0.891 . S
C1063 C101 0.891 . S
C1078 C428 0.891 . S
C1113 C462 0.891 . S
C1128 C135 0.891 . S
C1163 C169 0.891 . S
C1178 C360 0.890 . S
C1213 C203 0.891 . S
C1228 C394 0.890 . S
C1263 C292 0.891 . S
C1278 C237 0.891 . S
C1313 C271 0.891 . S
C1328 C326 0.891 . S
C1363 C224 0.891 . S
C1378 C305 0.891 . S
C1413 C258 0.891 . S
C1428 C339 0.891 . S
C1463 C156 0.890 . S
C1478 C373 0.891 . S
C1513 C407 0.891 . S
C1528 C190 0.891 . S
C1563 C441 0.891 . S
C1578 C88 0.891 . S
C1613 C475 0.891 . S
C1628 C122 0.891 . S
C1663 C509 0.891 . S
C1678 C20 0.891 . S
C1713 C54 0.891 . S
C1728 C543 0.891 . S
C1763 C383 1.569 . S
C1778 C2 1.633 . S
C1813 C36 1.633 . S
C1828 C281 1.569 . S
C1863 C70 1.633 . S
C1878 C315 1.569 . S
C1913 C104 1.632 . S
C1928 C349 1.570 . S
C1963 C179 1.569 . S
C1978 C138 1.633 . S
C2013 C172 1.633 . S
C2028 C213 1.569 . S
C2063 C247 1.570 . S
C2078 C206 1.633 . S
C2113 C240 1.633 . S
C2128 C145 1.569 . S
C2163 C111 1.569 . S
C2178 C274 1.633 . S
C2213 C308 1.632 . S
C2228 C9 1.570 . S
C2263 C342 1.633 . S
C2278 C43 1.569 . S
C2313 C77 1.569 . S
C2328 C376 1.633 . S
C2363 C451 1.569 . S
C2378 C410 1.633 . S
C2413 C485 1.570 . S
C2428 C444 1.632 . S
C2463 C478 1.633 . S
C2478 C519 1.569 . S
C2513 C417 1.569 . S
C2528 C512 1.633 . S
