# Generated by pormake.
# Topology fnu, (5)-cn, num edge types: 1
# Building blocks:
#     Node 0, Type 0, BuildingBlock: BEQFEK_clean_sbu_0, # of connection points: 5
#     Node 1, Type 0, BuildingBlock: BEQFEK_clean_sbu_0, # of connection points: 5
#     Node 2, Type 0, BuildingBlock: BEQFEK_clean_sbu_0, # of connection points: 5
#     Node 3, Type 0, BuildingBlock: BEQFEK_clean_sbu_0, # of connection points: 5
#     Node 4, Type 0, BuildingBlock: BEQFEK_clean_sbu_0, # of connection points: 5
#     Node 5, Type 0, BuildingBlock: BEQFEK_clean_sbu_0, # of connection points: 5
#     Edge 6, Type (0, 0), BuildingBlock: KIFKEQ_clean_linker_1, # of connection points: 2
#     Edge 7, Type (0, 0), BuildingBlock: KIFKEQ_clean_linker_1, # of connection points: 2
#     Edge 8, Type (0, 0), BuildingBlock: KIFKEQ_clean_linker_1, # of connection points: 2
#     Edge 9, Type (0, 0), BuildingBlock: KIFKEQ_clean_linker_1, # of connection points: 2
#     Edge 10, Type (0, 0), BuildingBlock: KIFKEQ_clean_linker_1, # of connection points: 2
#     Edge 11, Type (0, 0), BuildingBlock: KIFKEQ_clean_linker_1, # of connection points: 2
#     Edge 12, Type (0, 0), BuildingBlock: KIFKEQ_clean_linker_1, # of connection points: 2
#     Edge 13, Type (0, 0), BuildingBlock: KIFKEQ_clean_linker_1, # of connection points: 2
#     Edge 14, Type (0, 0), BuildingBlock: KIFKEQ_clean_linker_1, # of connection points: 2
#     Edge 15, Type (0, 0), BuildingBlock: KIFKEQ_clean_linker_1, # of connection points: 2
#     Edge 16, Type (0, 0), BuildingBlock: KIFKEQ_clean_linker_1, # of connection points: 2
#     Edge 17, Type (0, 0), BuildingBlock: KIFKEQ_clean_linker_1, # of connection points: 2
#     Edge 18, Type (0, 0), BuildingBlock: KIFKEQ_clean_linker_1, # of connection points: 2
#     Edge 19, Type (0, 0), BuildingBlock: KIFKEQ_clean_linker_1, # of connection points: 2
#     Edge 20, Type (0, 0), BuildingBlock: KIFKEQ_clean_linker_1, # of connection points: 2
# Relax obj value: 0.175
# Max RMSD: 0.165
# Mean RMSD: 0.165
data_MOF--net-fnu--node1-BEQFEK_clean_sbu_0--edge1-KIFKEQ_clean_linker_1
_symmetry_space_group_name_H-M    P1
_symmetry_Int_Tables_number       1
_symmetry_cell_setting            triclinic
loop_
_symmetry_equiv_pos_as_xyz
'x, y, z'
_cell_length_a     24.885109
_cell_length_b     29.408627
_cell_length_c     36.943227
_cell_angle_alpha  90.22484
_cell_angle_beta   97.31793
_cell_angle_gamma 126.07211
loop_
_atom_site_label
_atom_site_type_symbol
_atom_site_fract_x
_atom_site_fract_y
_atom_site_fract_z
_atom_type_partial_charge
Co0 Co 0.9832 0.96509 0.18483 0.0
Co1 Co 0.03951 1.00768 0.26777 0.0
C2 C 0.96097 0.88344 0.23635 0.0
O3 O 0.94853 0.89426 0.20461 0.0
O4 O 0.99718 0.9224 0.26298 0.0
C5 C 0.97334 0.92524 0.11657 0.0
O6 O 0.97476 0.88728 0.13435 0.0
C7 C 1.02997 1.01344 0.34781 0.0
C8 C 0.13193 0.08977 0.36916 0.0
C9 C 0.07208 0.04693 0.38022 0.0
N10 N 0.06381 0.03561 0.31932 0.0
N11 N 0.12449 0.08153 0.33246 0.0
C12 C 0.96041 0.95951 0.34405 0.0
H13 H 0.94658 0.93517 0.31724 0.0
H14 H 0.92414 0.96957 0.34545 0.0
H15 H 0.9566 0.93363 0.36676 0.0
C16 C 0.92477 0.02478 0.19133 0.0
N17 N 0.95694 1.00422 0.20703 0.0
N18 N 0.98252 0.02591 0.24137 0.0
C19 C 0.9689 0.06322 0.24808 0.0
C20 C 0.93125 0.06318 0.21651 0.0
C21 C 0.89663 1.0137 0.15134 0.0
H22 H 0.93881 0.03582 0.13534 0.0
H23 H 0.86591 0.96771 0.14282 0.0
H24 H 0.86507 0.02876 0.14502 0.0
O25 O 0.08221 1.01181 0.18904 0.0
O26 O 0.12609 0.04797 0.24675 0.0
H27 H 0.05298 0.127 0.28708 0.0
H28 H 0.98234 0.13102 0.2812 0.0
C29 C 0.99724 0.10206 0.28251 0.0
H30 H 0.97905 0.07662 0.30611 0.0
H31 H 0.16159 0.10665 0.31642 0.0
O32 O 0.95599 0.95231 0.13196 0.0
C33 C 0.13329 0.0432 0.21367 0.0
Co34 Co 0.11805 0.04073 0.84351 0.0
Co35 Co 0.05226 1.01616 0.76132 0.0
C36 C 0.13246 0.97284 0.79295 0.0
O37 O 0.14601 0.99832 0.82412 0.0
O38 O 0.09596 0.97447 0.76601 0.0
C39 C 0.20626 0.06341 0.91151 0.0
O40 O 0.2313 0.04261 0.89407 0.0
C41 C 0.05533 0.02743 0.68102 0.0
C42 C 0.94883 0.98993 0.66009 0.0
C43 C 1.01038 1.01319 0.6487 0.0
N44 N 1.0216 1.01314 0.70976 0.0
N45 N 0.95805 0.99112 0.6969 0.0
C46 C 0.128 0.0508 0.68461 0.0
H47 H 0.14529 0.04305 0.71148 0.0
H48 H 0.15847 0.09715 0.68305 0.0
H49 H 0.13622 0.0317 0.66197 0.0
C50 C 0.1745 0.1565 0.83059 0.0
N51 N 0.1416 0.10233 0.81742 0.0
N52 N 0.11087 0.0938 0.78369 0.0
C53 C 0.12127 0.14287 0.775 0.0
C54 C 0.16265 0.18435 0.80446 0.0
C55 C 0.20775 0.17882 0.86965 0.0
H56 H 0.16874 0.15884 0.88774 0.0
H57 H 0.24306 0.16783 0.87737 0.0
H58 H 0.23603 0.22533 0.87417 0.0
O59 O 1.0197 0.99118 0.84469 0.0
O60 O 0.97073 0.97342 0.78671 0.0
H61 H 1.03149 0.1137 0.73773 0.0
H62 H 0.09532 0.18983 0.74195 0.0
C63 C 0.08634 0.14809 0.74105 0.0
H64 H 0.10517 0.14279 0.7169 0.0
H65 H 0.9205 0.97574 0.71322 0.0
O66 O 0.16081 0.06623 0.89449 0.0
C67 C 0.96675 0.96764 0.82075 0.0
Co68 Co 0.66225 0.36478 0.51596 0.0
Co69 Co 0.70705 0.39046 0.60079 0.0
C70 C 0.63402 0.27323 0.56304 0.0
O71 O 0.63239 0.29305 0.53303 0.0
O72 O 0.66208 0.30503 0.59329 0.0
C73 C 0.56144 0.29927 0.45444 0.0
O74 O 0.52729 0.26519 0.47864 0.0
C75 C 0.69941 0.38621 0.68084 0.0
C76 C 0.79436 0.46812 0.70357 0.0
C77 C 0.7386 0.41929 0.71393 0.0
N78 N 0.73125 0.41415 0.65284 0.0
N79 N 0.78785 0.46314 0.66676 0.0
C80 C 0.63138 0.33049 0.67524 0.0
H81 H 0.60457 0.32402 0.64712 0.0
H82 H 0.60105 0.32824 0.6957 0.0
H83 H 0.63736 0.29613 0.67846 0.0
C84 C 0.60063 0.42019 0.5278 0.0
N85 N 0.63374 0.39936 0.54131 0.0
N86 N 0.65007 0.4107 0.57716 0.0
C87 C 0.62678 0.43964 0.58759 0.0
C88 C 0.59369 0.44564 0.55647 0.0
C89 C 0.58384 0.42207 0.48762 0.0
H90 H 0.62583 0.43209 0.47349 0.0
H91 H 0.53775 0.38013 0.47578 0.0
H92 H 0.57505 0.45446 0.48236 0.0
O93 O 0.76042 0.4138 0.51927 0.0
O94 O 0.7948 0.43353 0.57951 0.0
H95 H 0.69334 0.49448 0.63541 0.0
H96 H 0.61256 0.483 0.62836 0.0
C97 C 0.63842 0.4629 0.62611 0.0
H98 H 0.61995 0.42832 0.64432 0.0
H99 H 0.82245 0.49307 0.6511 0.0
O100 O 0.61968 0.34503 0.46482 0.0
C101 C 0.80765 0.43852 0.54666 0.0
Co102 Co 0.74254 0.33804 0.17502 0.0
Co103 Co 0.70359 0.33752 0.09144 0.0
C104 C 0.78236 0.29284 0.12226 0.0
O105 O 0.7839 0.30853 0.1545 0.0
O106 O 0.75095 0.29838 0.0944 0.0
C107 C 0.73245 0.29297 0.23857 0.0
O108 O 0.71079 0.25019 0.21462 0.0
C109 C 0.71842 0.36104 1.01232 0.0
C110 C 0.61985 0.34347 0.99235 0.0
C111 C 0.67846 0.35803 0.98078 0.0
N112 N 0.68445 0.3485 0.0409 0.0
N113 N 0.6259 0.33864 0.02858 0.0
C114 C 0.78593 0.37255 0.01489 0.0
H115 H 0.79762 0.35815 0.04034 0.0
H116 H 0.825 0.41877 0.01553 0.0
H117 H 0.78772 0.35148 0.99056 0.0
C118 C 0.80048 0.45726 0.1766 0.0
N119 N 0.77031 0.40673 0.15787 0.0
N120 N 0.75612 0.4092 0.1227 0.0
C121 C 0.77814 0.463 0.11802 0.0
C122 C 0.80764 0.49541 0.15214 0.0
C123 C 0.81394 0.46612 0.21769 0.0
H124 H 0.85674 0.46467 0.22801 0.0
H125 H 0.82533 0.50672 0.22822 0.0
H126 H 0.76905 0.43146 0.22868 0.0
O127 O 0.6449 0.28565 0.16585 0.0
O128 O 0.61129 0.28524 0.10756 0.0
H129 H 0.71593 0.46344 0.0728 0.0
H130 H 0.79981 0.52921 0.08336 0.0
C131 C 0.77 0.48246 0.08178 0.0
H132 H 0.78616 0.46748 0.06101 0.0
H133 H 0.58916 0.32728 0.04481 0.0
O134 O 0.76225 0.3421 0.22784 0.0
C135 C 0.59786 0.26858 0.13922 0.0
Co136 Co 0.36204 0.65008 0.85243 0.0
Co137 Co 0.38921 0.68332 0.93631 0.0
C138 C 0.31258 0.56151 0.90284 0.0
O139 O 0.31671 0.57784 0.87104 0.0
O140 O 0.34009 0.59664 0.9317 0.0
C141 C 0.38099 0.61939 0.78953 0.0
O142 O 0.40308 0.5991 0.81381 0.0
C143 C 0.36844 0.68699 0.01468 0.0
C144 C 0.45408 0.7752 0.03403 0.0
C145 C 0.40069 0.72632 0.04579 0.0
N146 N 0.40197 0.7118 0.98646 0.0
N147 N 0.45292 0.76453 0.99841 0.0
C148 C 0.30496 0.6281 1.01087 0.0
H149 H 0.28012 0.61488 0.98179 0.0
H150 H 0.26993 0.62521 0.02819 0.0
H151 H 0.31733 0.59886 0.01979 0.0
C152 C 0.30314 0.71128 0.8486 0.0
N153 N 0.33198 0.69043 0.86808 0.0
N154 N 0.34066 0.70424 0.90337 0.0
C155 C 0.31607 0.73432 0.90734 0.0
C156 C 0.29095 0.73942 0.87263 0.0
C157 C 0.29471 0.70922 0.80758 0.0
H158 H 0.34085 0.71922 0.79822 0.0
H159 H 0.25199 0.66582 0.79567 0.0
H160 H 0.28562 0.73979 0.79714 0.0
O161 O 0.45902 0.69382 0.8656 0.0
O162 O 0.48474 0.72405 0.92432 0.0
H163 H 0.36858 0.79515 0.95418 0.0
H164 H 0.28202 0.76988 0.94115 0.0
C165 C 0.31665 0.75754 0.94358 0.0
H166 H 0.30176 0.72553 0.96352 0.0
H167 H 0.48726 0.79333 0.98219 0.0
O168 O 0.34945 0.63766 0.79959 0.0
C169 C 0.50267 0.72208 0.89381 0.0
Co170 Co 0.43052 0.74885 0.50896 0.0
Co171 Co 0.37153 0.72375 0.42545 0.0
C172 C 0.43806 0.67248 0.46105 0.0
O173 O 0.44828 0.6982 0.49141 0.0
O174 O 0.40889 0.67744 0.43195 0.0
C175 C 0.53468 0.77974 0.56734 0.0
O176 O 0.56145 0.77209 0.54174 0.0
C177 C 0.37681 0.72923 0.34525 0.0
C178 C 0.27182 0.69485 0.32276 0.0
C179 C 0.33298 0.714 0.31233 0.0
N180 N 0.34286 0.71934 0.37347 0.0
N181 N 0.28026 0.6992 0.35968 0.0
C182 C 0.44829 0.74894 0.35002 0.0
H183 H 0.46405 0.7428 0.37791 0.0
H184 H 0.48141 0.79474 0.34656 0.0
H185 H 0.45465 0.72608 0.329 0.0
C186 C 0.49533 0.86485 0.4938 0.0
N187 N 0.46085 0.81017 0.4814 0.0
N188 N 0.43396 0.80185 0.44678 0.0
C189 C 0.44904 0.85185 0.4365 0.0
C190 C 0.4893 0.89357 0.46599 0.0
C191 C 0.52322 0.88696 0.53343 0.0
H192 H 0.48247 0.86268 0.55016 0.0
H193 H 0.56279 0.88111 0.54256 0.0
H194 H 0.54554 0.93245 0.53841 0.0
O195 O 0.33242 0.70538 0.50974 0.0
O196 O 0.28924 0.6858 0.45041 0.0
H197 H 0.36301 0.82661 0.39722 0.0
H198 H 0.43248 0.90127 0.40001 0.0
C199 C 0.41863 0.85791 0.40099 0.0
H200 H 0.43644 0.84832 0.37812 0.0
H201 H 0.24266 0.68691 0.37547 0.0
O202 O 0.4797 0.77403 0.55891 0.0
C203 C 0.28174 0.68215 0.48417 0.0
H204 H 0.25629 0.12616 0.25455 0.0
H205 H 0.16476 0.03288 0.14736 0.0
H206 H 0.36655 0.17986 0.23474 0.0
H207 H 0.27438 0.08637 0.12762 0.0
H208 H 0.47841 0.23474 0.09557 0.0
H209 H 0.3657 0.18065 0.11314 0.0
H210 H 0.44683 0.16505 0.21892 0.0
H211 H 0.55785 0.21861 0.20181 0.0
C212 C 0.25957 0.11693 0.22684 0.0
C213 C 0.20134 0.07527 0.20259 0.0
C214 C 0.32284 0.14767 0.21543 0.0
C215 C 0.32952 0.13758 0.17947 0.0
C216 C 0.27123 0.09598 0.15526 0.0
C217 C 0.2082 0.06513 0.16671 0.0
C218 C 0.47188 0.21926 0.12239 0.0
C219 C 0.52754 0.23146 0.14722 0.0
C220 C 0.40734 0.1883 0.13253 0.0
C221 C 0.39724 0.16912 0.16773 0.0
C222 C 0.45271 0.18017 0.19199 0.0
C223 C 0.51661 0.21069 0.18191 0.0
H224 H 1.01626 0.167 0.19416 0.0
H225 H 0.81175 0.04751 0.21238 0.0
H226 H 0.98521 0.22285 0.16197 0.0
H227 H 0.78032 0.10387 0.18139 0.0
H228 H 0.72117 0.18237 0.09915 0.0
H229 H 0.76175 0.12777 0.12168 0.0
H230 H 0.95244 0.28279 0.1687 0.0
H231 H 0.91223 0.33653 0.14521 0.0
C232 C 0.96516 0.15402 0.19244 0.0
C233 C 0.91674 0.10399 0.20657 0.0
C234 C 0.94703 0.18557 0.17364 0.0
C235 C 0.87988 0.16762 0.16847 0.0
C236 C 0.83211 0.11843 0.18396 0.0
C237 C 0.85028 0.0868 0.20254 0.0
C238 C 0.77297 0.20469 0.11246 0.0
C239 C 0.81395 0.2637 0.11988 0.0
C240 C 0.79577 0.17344 0.12632 0.0
C241 C 0.85988 0.20066 0.14799 0.0
C242 C 0.90295 0.2601 0.15218 0.0
C243 C 0.88019 0.29113 0.13831 0.0
H244 H 0.75084 0.5505 0.13395 0.0
H245 H 0.92691 0.57457 0.19472 0.0
H246 H 0.78967 0.64366 0.15967 0.0
H247 H 0.96346 0.66528 0.22279 0.0
H248 H 0.04254 0.85103 0.2401 0.0
H249 H 1.00837 0.75826 0.21785 0.0
H250 H 0.7993 0.69251 0.21225 0.0
H251 H 0.83461 0.78678 0.23223 0.0
C252 C 0.7983 0.57611 0.15247 0.0
C253 C 0.8358 0.55531 0.16237 0.0
C254 C 0.81999 0.62908 0.16799 0.0
C255 C 0.87924 0.66213 0.19421 0.0
C256 C 0.91793 0.64186 0.20273 0.0
C257 C 0.89688 0.58958 0.18669 0.0
C258 C 0.98943 0.81604 0.23566 0.0
C259 C 0.94126 0.82569 0.23877 0.0
C260 C 0.96949 0.76268 0.22242 0.0
C261 C 0.90069 0.71741 0.21235 0.0
C262 C 0.85267 0.72636 0.21849 0.0
C263 C 0.87275 0.78004 0.231 0.0
H264 H 0.07572 0.20286 0.82515 0.0
H265 H 0.28056 0.28838 0.80708 0.0
H266 H 0.10594 0.28974 0.8574 0.0
H267 H 0.31116 0.37581 0.83844 0.0
H268 H 0.3696 0.50878 0.92507 0.0
H269 H 0.32776 0.41423 0.90009 0.0
H270 H 0.14089 0.3844 0.85161 0.0
H271 H 0.18252 0.47806 0.87728 0.0
C272 C 0.12661 0.24106 0.82679 0.0
C273 C 0.1755 0.23951 0.81288 0.0
C274 C 0.14428 0.29066 0.8457 0.0
C275 C 0.21141 0.33971 0.85128 0.0
C276 C 0.25939 0.33859 0.83558 0.0
C277 C 0.24167 0.28901 0.81676 0.0
C278 C 0.31823 0.48069 0.91087 0.0
C279 C 0.27882 0.50033 0.90375 0.0
C280 C 0.2948 0.42705 0.89563 0.0
C281 C 0.23154 0.39211 0.87288 0.0
C282 C 0.18974 0.40985 0.86889 0.0
C283 C 0.21324 0.46336 0.88405 0.0
H284 H 0.55272 0.70089 0.84057 0.0
H285 H 0.61501 0.81863 0.93452 0.0
H286 H 0.66478 0.76039 0.82466 0.0
H287 H 0.72855 0.87941 0.91811 0.0
H288 H 0.94044 0.94785 0.89117 0.0
H289 H 0.83139 0.88842 0.91169 0.0
H290 H 0.73188 0.84949 0.79943 0.0
H291 H 0.84091 0.9081 0.77878 0.0
C292 C 0.59063 0.73945 0.8581 0.0
C293 C 0.57453 0.75512 0.88876 0.0
C294 C 0.65498 0.77394 0.84869 0.0
C295 C 0.70558 0.82544 0.86955 0.0
C296 C 0.69076 0.84002 0.90137 0.0
C297 C 0.62581 0.80515 0.91091 0.0
C298 C 0.89535 0.92669 0.87077 0.0
C299 C 0.89977 0.93262 0.83318 0.0
C300 C 0.83268 0.89281 0.88266 0.0
C301 C 0.77263 0.86371 0.85731 0.0
C302 C 0.77704 0.8704 0.81977 0.0
C303 C 0.83968 0.90434 0.80787 0.0
H304 H 0.0534 0.85827 0.7844 0.0
H305 H 0.26034 1.00525 0.80238 0.0
H306 H 0.0886 0.79945 0.80474 0.0
H307 H 0.29676 0.94665 0.82071 0.0
H308 H 0.33988 0.8478 0.89595 0.0
H309 H 0.29998 0.90189 0.87173 0.0
H310 H 0.13993 0.75579 0.79813 0.0
H311 H 0.17728 0.70125 0.82445 0.0
C312 C 0.10675 0.8774 0.79083 0.0
C313 C 0.15426 0.93603 0.79107 0.0
C314 C 0.12717 0.84384 0.80294 0.0
C315 C 0.19575 0.86818 0.81527 0.0
C316 C 0.24343 0.92637 0.81263 0.0
C317 C 0.22283 0.95991 0.80118 0.0
C318 C 0.29518 0.82704 0.8753 0.0
C319 C 0.26189 0.77042 0.862 0.0
C320 C 0.27296 0.85832 0.86072 0.0
C321 C 0.21734 0.83389 0.83216 0.0
C322 C 0.18265 0.7764 0.82005 0.0
C323 C 0.20427 0.74506 0.83503 0.0
H324 H 0.92367 0.52144 0.59287 0.0
H325 H 0.85187 0.43564 0.48355 0.0
H326 H 0.03798 0.58249 0.57834 0.0
H327 H 0.96542 0.49443 0.46953 0.0
H328 H 0.16186 0.64171 0.43999 0.0
H329 H 0.04923 0.58528 0.45628 0.0
H330 H 0.13257 0.58794 0.56702 0.0
H331 H 0.24523 0.64635 0.55105 0.0
C332 C 0.93236 0.51516 0.56591 0.0
C333 C 0.87837 0.47385 0.53936 0.0
C334 C 0.99803 0.55006 0.55754 0.0
C335 C 1.01143 0.54407 0.52252 0.0
C336 C 0.95737 0.50168 0.49641 0.0
C337 C 0.89196 0.46744 0.50462 0.0
C338 C 0.15618 0.63047 0.46786 0.0
C339 C 0.21282 0.64866 0.49413 0.0
C340 C 0.09135 0.59764 0.47722 0.0
C341 C 0.08112 0.58135 0.51303 0.0
C342 C 0.13802 0.60008 0.53935 0.0
C343 C 0.20289 0.63345 0.53008 0.0
H344 H 0.46589 0.40156 0.52665 0.0
H345 H 0.65447 0.55867 0.57151 0.0
H346 H 0.42576 0.45261 0.49787 0.0
H347 H 0.61326 0.61083 0.54464 0.0
H348 H 0.55997 0.6939 0.46096 0.0
H349 H 0.5945 0.63734 0.48779 0.0
H350 H 0.38801 0.50704 0.50011 0.0
H351 H 0.35409 0.56251 0.4713 0.0
C352 C 0.49752 0.44724 0.53175 0.0
C353 C 0.56303 0.47619 0.55149 0.0
C354 C 0.47474 0.47677 0.51499 0.0
C355 C 0.51656 0.53627 0.51802 0.0
C356 C 0.58023 0.56511 0.54054 0.0
C357 C 0.60339 0.53535 0.55688 0.0
C358 C 0.52175 0.65179 0.46763 0.0
C359 C 0.45404 0.63161 0.46278 0.0
C360 C 0.54166 0.61996 0.48413 0.0
C361 C 0.49448 0.56777 0.49709 0.0
C362 C 0.42607 0.54649 0.49031 0.0
C363 C 0.40619 0.57796 0.47326 0.0
H364 H 0.40296 0.91641 0.48036 0.0
H365 H 0.61075 0.99581 0.47131 0.0
H366 H 0.43346 1.00435 0.51063 0.0
H367 H 0.64186 0.08484 0.50032 0.0
H368 H 0.69354 0.22122 0.58424 0.0
H369 H 0.65491 0.12755 0.55891 0.0
H370 H 0.47068 0.09753 0.50471 0.0
H371 H 0.50835 0.18934 0.53116 0.0
C372 C 0.4548 0.95363 0.48339 0.0
C373 C 0.50426 0.94992 0.47262 0.0
C374 C 0.47263 1.00397 0.50118 0.0
C375 C 0.54049 0.0519 0.50859 0.0
C376 C 0.58939 0.04866 0.496 0.0
C377 C 0.57149 0.99815 0.47846 0.0
C378 C 0.64353 0.19329 0.56838 0.0
C379 C 0.60353 0.21217 0.56013 0.0
C380 C 0.62194 0.14016 0.55301 0.0
C381 C 0.5601 0.1051 0.52895 0.0
C382 C 0.51829 0.12272 0.52311 0.0
C383 C 0.53972 0.17541 0.53851 0.0
H384 H 0.92179 0.94104 0.58924 0.0
H385 H 0.12182 0.09604 0.61908 0.0
H386 H 0.93563 0.94737 0.52496 0.0
H387 H 0.13557 0.10305 0.55475 0.0
H388 H 0.16486 0.07346 0.4401 0.0
H389 H 0.15081 0.06452 0.50426 0.0
H390 H 0.94143 0.997 0.47358 0.0
H391 H 0.95554 1.0052 0.40927 0.0
C392 C 0.96889 0.97655 0.5821 0.0
C393 C 1.02115 1.01742 0.60961 0.0
C394 C 0.9767 0.9804 0.54507 0.0
C395 C 0.03683 0.02568 0.53426 0.0
C396 C 0.08903 0.06682 0.56185 0.0
C397 C 0.0813 0.06272 0.59897 0.0
C398 C 0.11565 0.05645 0.44699 0.0
C399 C 0.06108 0.03914 0.41924 0.0
C400 C 0.10767 0.05167 0.48397 0.0
C401 C 0.04493 0.03 0.49452 0.0
C402 C 0.99026 1.0128 0.4667 0.0
C403 C 0.99823 1.01728 0.42959 0.0
H404 H 0.58582 0.29859 0.91958 0.0
H405 H 0.7966 0.43376 0.95371 0.0
H406 H 0.60043 0.31183 0.85552 0.0
H407 H 0.81155 0.44645 0.88944 0.0
H408 H 0.78884 0.49681 0.7729 0.0
H409 H 0.77723 0.481 0.83702 0.0
H410 H 0.65499 0.30081 0.80811 0.0
H411 H 0.66793 0.31648 0.74414 0.0
C412 C 0.63555 0.3308 0.91342 0.0
C413 C 0.6902 0.3646 0.94192 0.0
C414 C 0.64398 0.33814 0.87662 0.0
C415 C 0.70717 0.38013 0.86719 0.0
C416 C 0.76206 0.41386 0.89568 0.0
C417 C 0.75373 0.40606 0.9326 0.0
C418 C 0.75932 0.45369 0.78008 0.0
C419 C 0.7279 0.40797 0.7528 0.0
C420 C 0.75303 0.44469 0.817 0.0
C421 C 0.71502 0.38962 0.82784 0.0
C422 C 0.68372 0.3438 0.80068 0.0
C423 C 0.69051 0.35284 0.76372 0.0
H424 H 0.24437 0.6374 0.25448 0.0
H425 H 0.44621 0.79113 0.28208 0.0
H426 H 0.25895 0.63822 0.19028 0.0
H427 H 0.4613 0.79137 0.21804 0.0
H428 H 0.43302 0.81071 0.09531 0.0
H429 H 0.41804 0.80658 0.1593 0.0
H430 H 0.32251 0.62717 0.14863 0.0
H431 H 0.33881 0.63135 0.08465 0.0
C432 C 0.29216 0.67113 0.24693 0.0
C433 C 0.34444 0.71378 0.27367 0.0
C434 C 0.30063 0.67136 0.21011 0.0
C435 C 0.3613 0.71479 0.19887 0.0
C436 C 0.41372 0.7574 0.22564 0.0
C437 C 0.40544 0.75684 0.26256 0.0
C438 C 0.40857 0.77018 0.10643 0.0
C439 C 0.38605 0.72119 0.08423 0.0
C440 C 0.40035 0.76794 0.14332 0.0
C441 C 0.36923 0.7166 0.15929 0.0
C442 C 0.34592 0.66735 0.13712 0.0
C443 C 0.35466 0.66966 0.10014 0.0
H444 H 1.00033 0.87701 0.06602 0.0
H445 H 0.05491 0.03787 0.1098 0.0
H446 H 0.08511 0.92524 0.02605 0.0
H447 H 0.14313 0.08652 0.07237 0.0
H448 H 0.19107 0.12818 0.95456 0.0
H449 H 0.14966 0.10253 1.01206 0.0
H450 H 0.19838 0.98335 0.01804 0.0
H451 H 0.23625 1.00712 0.95869 0.0
C452 C 1.03061 0.92269 0.06701 0.0
C453 C 1.0198 0.95352 0.09005 0.0
C454 C 0.08039 0.95059 0.04485 0.0
C455 C 0.12157 1.01005 0.04609 0.0
C456 C 0.11167 0.04077 0.07007 0.0
C457 C 0.06059 1.01279 0.09131 0.0
C458 C 0.19531 0.09804 0.96885 0.0
C459 C 0.21396 0.06783 0.95164 0.0
C460 C 0.17168 0.0833 1.00208 0.0
C461 C 0.16766 0.0388 0.01889 0.0
C462 C 0.19799 1.01598 1.00483 0.0
C463 C 0.22083 0.03028 0.97116 0.0
H464 H 0.76864 0.3696 0.29509 0.0
H465 H 0.62229 0.19306 0.25499 0.0
H466 H 0.70071 0.35803 0.34088 0.0
H467 H 0.55336 0.18187 0.30063 0.0
H468 H 0.52809 0.19909 0.42693 0.0
H469 H 0.55825 0.18714 0.3692 0.0
H470 H 0.58978 0.34163 0.33784 0.0
H471 H 0.56256 0.35468 0.39629 0.0
C472 C 0.72243 0.32816 0.29643 0.0
C473 C 0.70052 0.28244 0.27135 0.0
C474 C 0.68287 0.32174 0.32213 0.0
C475 C 0.62052 0.26955 0.32316 0.0
C476 C 0.60068 0.22271 0.29986 0.0
C477 C 0.64057 0.22908 0.27412 0.0
C478 C 0.53782 0.2287 0.40675 0.0
C479 C 0.54461 0.27837 0.41591 0.0
C480 C 0.55548 0.22206 0.37384 0.0
C481 C 0.57893 0.26477 0.35001 0.0
C482 C 0.57393 0.30915 0.35651 0.0
C483 C 0.55755 0.31629 0.3896 0.0
H484 H 0.54242 0.83909 0.62616 0.0
H485 H 0.56534 0.71077 0.59419 0.0
H486 H 0.52068 0.80324 0.68598 0.0
H487 H 0.54109 0.67347 0.65355 0.0
H488 H 0.49009 0.62792 0.77229 0.0
H489 H 0.55525 0.68064 0.72417 0.0
H490 H 0.40699 0.70877 0.68459 0.0
H491 H 0.34247 0.65694 0.73244 0.0
C492 C 0.54609 0.80502 0.63271 0.0
C493 C 0.55398 0.77676 0.60571 0.0
C494 C 0.53304 0.78416 0.66666 0.0
C495 C 0.52655 0.73433 0.67347 0.0
C496 C 0.54516 0.71161 0.64866 0.0
C497 C 0.55935 0.73313 0.61479 0.0
C498 C 0.47082 0.64443 0.75281 0.0
C499 C 0.4115 0.63883 0.7562 0.0
C500 C 0.50853 0.67506 0.72566 0.0
C501 C 0.48732 0.70042 0.70177 0.0
C502 C 0.42577 0.69147 0.70369 0.0
C503 C 0.38824 0.66101 0.73065 0.0
loop_
_geom_bond_atom_site_label_1
_geom_bond_atom_site_label_2
_geom_bond_distance
_geom_bond_site_symmetry_2
_ccdc_geom_bond_type
Co0 O3 1.970 1_455 S
Co0 N17 1.989 1_465 S
Co0 O25 1.967 1_565 S
Co0 O32 1.920 1_565 S
Co1 O4 1.966 1_445 S
Co1 N10 2.022 . S
Co1 N18 1.993 1_455 S
Co1 O26 1.941 . S
C2 O3 1.258 . S
C2 O4 1.263 . S
O3 Co0 1.970 1_655 S
O3 C2 1.258 . S
O4 Co1 1.966 1_665 S
O4 C2 1.263 . S
C5 O6 1.235 . S
C5 O32 1.289 1_665 S
O6 C5 1.235 . S
C7 C9 1.400 1_565 S
C7 N10 1.351 1_665 S
C7 C12 1.501 . S
C8 C9 1.387 1_455 S
C8 N11 1.341 . S
C9 C7 1.400 1_545 S
C9 C8 1.387 1_655 S
N10 Co1 2.022 . S
N10 C7 1.351 1_445 S
N10 N11 1.365 . S
N11 C8 1.341 . S
N11 N10 1.365 . S
N11 H31 0.862 . S
C12 C7 1.501 . S
C12 H13 0.961 . S
C12 H14 0.961 . S
C12 H15 0.960 . S
H13 C12 0.961 . S
H14 C12 0.961 . S
H15 C12 0.960 . S
C16 N17 1.342 . S
C16 C20 1.401 . S
C16 C21 1.499 . S
N17 Co0 1.989 1_645 S
N17 C16 1.342 . S
N17 N18 1.388 . S
N18 Co1 1.993 1_655 S
N18 N17 1.388 . S
N18 C19 1.346 . S
C19 N18 1.346 . S
C19 C20 1.396 . S
C19 C29 1.510 . S
C20 C16 1.401 . S
C20 C19 1.396 . S
C21 C16 1.499 . S
C21 H22 0.959 . S
C21 H23 0.960 . S
C21 H24 0.961 . S
H22 C21 0.959 . S
H23 C21 0.960 . S
H24 C21 0.961 . S
O25 Co0 1.967 1_545 S
O25 C33 1.258 . S
O26 Co1 1.941 . S
O26 C33 1.266 . S
H27 C29 0.959 . S
H28 C29 0.961 . S
C29 C19 1.510 . S
C29 H27 0.959 . S
C29 H28 0.961 . S
C29 H30 0.960 . S
H30 C29 0.960 . S
H31 N11 0.862 . S
O32 Co0 1.920 1_545 S
O32 C5 1.289 1_445 S
C33 O25 1.258 . S
C33 O26 1.266 . S
Co34 O37 1.970 1_545 S
Co34 N51 1.989 . S
Co34 O59 1.967 1_445 S
Co34 O66 1.920 . S
Co35 O38 1.966 1_655 S
Co35 N44 2.024 . S
Co35 N52 1.993 1_665 S
Co35 O60 1.941 . S
C36 O37 1.258 . S
C36 O38 1.263 . S
O37 Co34 1.970 1_565 S
O37 C36 1.258 . S
O38 Co35 1.966 1_455 S
O38 C36 1.263 . S
C39 O40 1.235 . S
C39 O66 1.289 . S
O40 C39 1.235 . S
C41 C43 1.400 . S
C41 N44 1.361 1_445 S
C41 C46 1.501 1_545 S
C42 C43 1.387 1_655 S
C42 N45 1.341 . S
C43 C41 1.400 . S
C43 C42 1.387 1_455 S
N44 Co35 2.024 . S
N44 C41 1.361 1_665 S
N44 N45 1.348 1_565 S
N45 C42 1.341 . S
N45 N44 1.348 1_545 S
N45 H65 0.862 . S
C46 C41 1.501 1_565 S
C46 H47 0.961 . S
C46 H48 0.961 1_565 S
C46 H49 0.960 . S
H47 C46 0.961 . S
H48 C46 0.961 1_545 S
H49 C46 0.960 . S
C50 N51 1.342 . S
C50 C54 1.401 . S
C50 C55 1.499 . S
N51 Co34 1.989 . S
N51 C50 1.342 . S
N51 N52 1.388 . S
N52 Co35 1.993 1_445 S
N52 N51 1.388 . S
N52 C53 1.346 . S
C53 N52 1.346 . S
C53 C54 1.396 . S
C53 C63 1.510 . S
C54 C50 1.401 . S
C54 C53 1.396 . S
C55 C50 1.499 . S
C55 H56 0.959 . S
C55 H57 0.960 . S
C55 H58 0.961 . S
H56 C55 0.959 . S
H57 C55 0.960 . S
H58 C55 0.961 . S
O59 Co34 1.967 1_665 S
O59 C67 1.258 . S
O60 Co35 1.941 . S
O60 C67 1.266 . S
H61 C63 0.959 . S
H62 C63 0.961 . S
C63 C53 1.510 . S
C63 H61 0.959 . S
C63 H62 0.961 . S
C63 H64 0.960 . S
H64 C63 0.960 . S
H65 N45 0.862 . S
O66 Co34 1.920 . S
O66 C39 1.289 . S
C67 O59 1.258 . S
C67 O60 1.266 . S
Co68 O71 1.970 . S
Co68 N85 1.989 . S
Co68 O93 1.967 . S
Co68 O100 1.920 . S
Co69 O72 1.966 . S
Co69 N78 2.022 . S
Co69 N86 1.993 . S
Co69 O94 1.941 . S
C70 O71 1.258 . S
C70 O72 1.263 . S
O71 Co68 1.970 . S
O71 C70 1.258 . S
O72 Co69 1.966 . S
O72 C70 1.263 . S
C73 O74 1.235 . S
C73 O100 1.289 . S
O74 C73 1.235 . S
C75 C77 1.400 . S
C75 N78 1.351 . S
C75 C80 1.501 . S
C76 C77 1.387 . S
C76 N79 1.341 . S
C77 C75 1.400 . S
C77 C76 1.387 . S
N78 Co69 2.022 . S
N78 C75 1.351 . S
N78 N79 1.365 . S
N79 C76 1.341 . S
N79 N78 1.365 . S
N79 H99 0.862 . S
C80 C75 1.501 . S
C80 H81 0.961 . S
C80 H82 0.961 . S
C80 H83 0.960 . S
H81 C80 0.961 . S
H82 C80 0.961 . S
H83 C80 0.960 . S
C84 N85 1.342 . S
C84 C88 1.401 . S
C84 C89 1.499 . S
N85 Co68 1.989 . S
N85 C84 1.342 . S
N85 N86 1.388 . S
N86 Co69 1.993 . S
N86 N85 1.388 . S
N86 C87 1.346 . S
C87 N86 1.346 . S
C87 C88 1.396 . S
C87 C97 1.510 . S
C88 C84 1.401 . S
C88 C87 1.396 . S
C89 C84 1.499 . S
C89 H90 0.959 . S
C89 H91 0.960 . S
C89 H92 0.961 . S
H90 C89 0.959 . S
H91 C89 0.960 . S
H92 C89 0.961 . S
O93 Co68 1.967 . S
O93 C101 1.258 . S
O94 Co69 1.941 . S
O94 C101 1.266 . S
H95 C97 0.959 . S
H96 C97 0.961 . S
C97 C87 1.510 . S
C97 H95 0.959 . S
C97 H96 0.961 . S
C97 H98 0.960 . S
H98 C97 0.960 . S
H99 N79 0.862 . S
O100 Co68 1.920 . S
O100 C73 1.289 . S
C101 O93 1.258 . S
C101 O94 1.266 . S
Co102 O105 1.970 . S
Co102 N119 1.989 . S
Co102 O127 1.967 . S
Co102 O134 1.920 . S
Co103 O106 1.966 . S
Co103 N112 2.022 . S
Co103 N120 1.993 . S
Co103 O128 1.941 . S
C104 O105 1.258 . S
C104 O106 1.263 . S
O105 Co102 1.970 . S
O105 C104 1.258 . S
O106 Co103 1.966 . S
O106 C104 1.263 . S
C107 O108 1.235 . S
C107 O134 1.289 . S
O108 C107 1.235 . S
C109 C111 1.400 1_554 S
C109 N112 1.351 . S
C109 C114 1.501 . S
C110 C111 1.387 . S
C110 N113 1.341 1_556 S
C111 C109 1.400 1_556 S
C111 C110 1.387 . S
N112 Co103 2.022 . S
N112 C109 1.351 . S
N112 N113 1.365 . S
N113 C110 1.341 1_554 S
N113 N112 1.365 . S
N113 H133 0.862 . S
C114 C109 1.501 . S
C114 H115 0.961 . S
C114 H116 0.961 . S
C114 H117 0.960 . S
H115 C114 0.961 . S
H116 C114 0.961 . S
H117 C114 0.960 . S
C118 N119 1.342 . S
C118 C122 1.401 . S
C118 C123 1.499 . S
N119 Co102 1.989 . S
N119 C118 1.342 . S
N119 N120 1.388 . S
N120 Co103 1.993 . S
N120 N119 1.388 . S
N120 C121 1.346 . S
C121 N120 1.346 . S
C121 C122 1.396 . S
C121 C131 1.510 . S
C122 C118 1.401 . S
C122 C121 1.396 . S
C123 C118 1.499 . S
C123 H124 0.959 . S
C123 H125 0.960 . S
C123 H126 0.961 . S
H124 C123 0.959 . S
H125 C123 0.960 . S
H126 C123 0.961 . S
O127 Co102 1.967 . S
O127 C135 1.258 . S
O128 Co103 1.941 . S
O128 C135 1.266 . S
H129 C131 0.959 . S
H130 C131 0.961 . S
C131 C121 1.510 . S
C131 H129 0.959 . S
C131 H130 0.961 . S
C131 H132 0.960 . S
H132 C131 0.960 . S
H133 N113 0.862 . S
O134 Co102 1.920 . S
O134 C107 1.289 . S
C135 O127 1.258 . S
C135 O128 1.266 . S
Co136 O139 1.970 . S
Co136 N153 1.989 . S
Co136 O161 1.967 . S
Co136 O168 1.920 . S
Co137 O140 1.966 . S
Co137 N146 2.022 . S
Co137 N154 1.993 . S
Co137 O162 1.941 . S
C138 O139 1.258 . S
C138 O140 1.263 . S
O139 Co136 1.970 . S
O139 C138 1.258 . S
O140 Co137 1.966 . S
O140 C138 1.263 . S
C141 O142 1.235 . S
C141 O168 1.289 . S
O142 C141 1.235 . S
C143 C145 1.400 1_556 S
C143 N146 1.351 . S
C143 C148 1.501 . S
C144 C145 1.387 . S
C144 N147 1.341 1_554 S
C145 C143 1.400 1_554 S
C145 C144 1.387 . S
N146 Co137 2.022 . S
N146 C143 1.351 . S
N146 N147 1.365 . S
N147 C144 1.341 1_556 S
N147 N146 1.365 . S
N147 H167 0.862 . S
C148 C143 1.501 . S
C148 H149 0.961 . S
C148 H150 0.961 . S
C148 H151 0.960 . S
H149 C148 0.961 . S
H150 C148 0.961 . S
H151 C148 0.960 . S
C152 N153 1.342 . S
C152 C156 1.401 . S
C152 C157 1.499 . S
N153 Co136 1.989 . S
N153 C152 1.342 . S
N153 N154 1.388 . S
N154 Co137 1.993 . S
N154 N153 1.388 . S
N154 C155 1.346 . S
C155 N154 1.346 . S
C155 C156 1.396 . S
C155 C165 1.510 . S
C156 C152 1.401 . S
C156 C155 1.396 . S
C157 C152 1.499 . S
C157 H158 0.959 . S
C157 H159 0.960 . S
C157 H160 0.961 . S
H158 C157 0.959 . S
H159 C157 0.960 . S
H160 C157 0.961 . S
O161 Co136 1.967 . S
O161 C169 1.258 . S
O162 Co137 1.941 . S
O162 C169 1.266 . S
H163 C165 0.959 . S
H164 C165 0.961 . S
C165 C155 1.510 . S
C165 H163 0.959 . S
C165 H164 0.961 . S
C165 H166 0.960 . S
H166 C165 0.960 . S
H167 N147 0.862 . S
O168 Co136 1.920 . S
O168 C141 1.289 . S
C169 O161 1.258 . S
C169 O162 1.266 . S
Co170 O173 1.970 . S
Co170 N187 1.989 . S
Co170 O195 1.967 . S
Co170 O202 1.920 . S
Co171 O174 1.966 . S
Co171 N180 2.022 . S
Co171 N188 1.993 . S
Co171 O196 1.941 . S
C172 O173 1.258 . S
C172 O174 1.263 . S
O173 Co170 1.970 . S
O173 C172 1.258 . S
O174 Co171 1.966 . S
O174 C172 1.263 . S
C175 O176 1.235 . S
C175 O202 1.289 . S
O176 C175 1.235 . S
C177 C179 1.400 . S
C177 N180 1.351 . S
C177 C182 1.501 . S
C178 C179 1.387 . S
C178 N181 1.341 . S
C179 C177 1.400 . S
C179 C178 1.387 . S
N180 Co171 2.022 . S
N180 C177 1.351 . S
N180 N181 1.365 . S
N181 C178 1.341 . S
N181 N180 1.365 . S
N181 H201 0.862 . S
C182 C177 1.501 . S
C182 H183 0.961 . S
C182 H184 0.961 . S
C182 H185 0.960 . S
H183 C182 0.961 . S
H184 C182 0.961 . S
H185 C182 0.960 . S
C186 N187 1.342 . S
C186 C190 1.401 . S
C186 C191 1.499 . S
N187 Co170 1.989 . S
N187 C186 1.342 . S
N187 N188 1.388 . S
N188 Co171 1.993 . S
N188 N187 1.388 . S
N188 C189 1.346 . S
C189 N188 1.346 . S
C189 C190 1.396 . S
C189 C199 1.510 . S
C190 C186 1.401 . S
C190 C189 1.396 . S
C191 C186 1.499 . S
C191 H192 0.959 . S
C191 H193 0.960 . S
C191 H194 0.961 . S
H192 C191 0.959 . S
H193 C191 0.960 . S
H194 C191 0.961 . S
O195 Co170 1.967 . S
O195 C203 1.258 . S
O196 Co171 1.941 . S
O196 C203 1.266 . S
H197 C199 0.959 . S
H198 C199 0.961 . S
C199 C189 1.510 . S
C199 H197 0.959 . S
C199 H198 0.961 . S
C199 H200 0.960 . S
H200 C199 0.960 . S
H201 N181 0.862 . S
O202 Co170 1.920 . S
O202 C175 1.289 . S
C203 O195 1.258 . S
C203 O196 1.266 . S
H204 C212 0.950 . S
H205 C217 0.950 . S
H206 C214 0.950 . S
H207 C216 0.950 . S
H208 C218 0.950 . S
H209 C220 0.950 . S
H210 C222 0.950 . S
H211 C223 0.950 . S
C212 H204 0.950 . S
C212 C213 1.386 . S
C212 C214 1.391 . S
C213 C212 1.386 . S
C213 C217 1.393 . S
C214 H206 0.950 . S
C214 C212 1.391 . S
C214 C215 1.400 . S
C215 C214 1.400 . S
C215 C216 1.398 . S
C215 C221 1.491 . S
C216 H207 0.950 . S
C216 C215 1.398 . S
C216 C217 1.391 . S
C217 H205 0.950 . S
C217 C213 1.393 . S
C217 C216 1.391 . S
C218 H208 0.950 . S
C218 C219 1.386 . S
C218 C220 1.391 . S
C219 C218 1.386 . S
C219 C223 1.393 . S
C220 H209 0.950 . S
C220 C218 1.391 . S
C220 C221 1.400 . S
C221 C215 1.491 . S
C221 C220 1.400 . S
C221 C222 1.398 . S
C222 H210 0.950 . S
C222 C221 1.398 . S
C222 C223 1.391 . S
C223 H211 0.950 . S
C223 C219 1.393 . S
C223 C222 1.391 . S
H224 C232 0.950 . S
H225 C237 0.950 . S
H226 C234 0.950 . S
H227 C236 0.950 . S
H228 C238 0.950 . S
H229 C240 0.950 . S
H230 C242 0.950 . S
H231 C243 0.950 . S
C232 H224 0.950 . S
C232 C233 1.386 . S
C232 C234 1.391 . S
C233 C232 1.386 . S
C233 C237 1.393 . S
C234 H226 0.950 . S
C234 C232 1.391 . S
C234 C235 1.400 . S
C235 C234 1.400 . S
C235 C236 1.398 . S
C235 C241 1.491 . S
C236 H227 0.950 . S
C236 C235 1.398 . S
C236 C237 1.391 . S
C237 H225 0.950 . S
C237 C233 1.393 . S
C237 C236 1.391 . S
C238 H228 0.950 . S
C238 C239 1.386 . S
C238 C240 1.391 . S
C239 C238 1.386 . S
C239 C243 1.393 . S
C240 H229 0.950 . S
C240 C238 1.391 . S
C240 C241 1.400 . S
C241 C235 1.491 . S
C241 C240 1.400 . S
C241 C242 1.398 . S
C242 H230 0.950 . S
C242 C241 1.398 . S
C242 C243 1.391 . S
C243 H231 0.950 . S
C243 C239 1.393 . S
C243 C242 1.391 . S
H244 C252 0.950 . S
H245 C257 0.950 . S
H246 C254 0.950 . S
H247 C256 0.950 . S
H248 C258 0.950 . S
H249 C260 0.950 . S
H250 C262 0.950 . S
H251 C263 0.950 . S
C252 H244 0.950 . S
C252 C253 1.386 . S
C252 C254 1.391 . S
C253 C252 1.386 . S
C253 C257 1.393 . S
C254 H246 0.950 . S
C254 C252 1.391 . S
C254 C255 1.400 . S
C255 C254 1.400 . S
C255 C256 1.398 . S
C255 C261 1.491 . S
C256 H247 0.950 . S
C256 C255 1.398 . S
C256 C257 1.391 . S
C257 H245 0.950 . S
C257 C253 1.393 . S
C257 C256 1.391 . S
C258 H248 0.950 . S
C258 C259 1.386 . S
C258 C260 1.391 . S
C259 C258 1.386 . S
C259 C263 1.393 . S
C260 H249 0.950 . S
C260 C258 1.391 . S
C260 C261 1.400 . S
C261 C255 1.491 . S
C261 C260 1.400 . S
C261 C262 1.398 . S
C262 H250 0.950 . S
C262 C261 1.398 . S
C262 C263 1.391 . S
C263 H251 0.950 . S
C263 C259 1.393 . S
C263 C262 1.391 . S
H264 C272 0.950 . S
H265 C277 0.950 . S
H266 C274 0.950 . S
H267 C276 0.950 . S
H268 C278 0.950 . S
H269 C280 0.950 . S
H270 C282 0.950 . S
H271 C283 0.950 . S
C272 H264 0.950 . S
C272 C273 1.386 . S
C272 C274 1.391 . S
C273 C272 1.386 . S
C273 C277 1.393 . S
C274 H266 0.950 . S
C274 C272 1.391 . S
C274 C275 1.400 . S
C275 C274 1.400 . S
C275 C276 1.398 . S
C275 C281 1.491 . S
C276 H267 0.950 . S
C276 C275 1.398 . S
C276 C277 1.391 . S
C277 H265 0.950 . S
C277 C273 1.393 . S
C277 C276 1.391 . S
C278 H268 0.950 . S
C278 C279 1.386 . S
C278 C280 1.391 . S
C279 C278 1.386 . S
C279 C283 1.393 . S
C280 H269 0.950 . S
C280 C278 1.391 . S
C280 C281 1.400 . S
C281 C275 1.491 . S
C281 C280 1.400 . S
C281 C282 1.398 . S
C282 H270 0.950 . S
C282 C281 1.398 . S
C282 C283 1.391 . S
C283 H271 0.950 . S
C283 C279 1.393 . S
C283 C282 1.391 . S
H284 C292 0.950 . S
H285 C297 0.950 . S
H286 C294 0.950 . S
H287 C296 0.950 . S
H288 C298 0.950 . S
H289 C300 0.950 . S
H290 C302 0.950 . S
H291 C303 0.950 . S
C292 H284 0.950 . S
C292 C293 1.386 . S
C292 C294 1.391 . S
C293 C292 1.386 . S
C293 C297 1.393 . S
C294 H286 0.950 . S
C294 C292 1.391 . S
C294 C295 1.400 . S
C295 C294 1.400 . S
C295 C296 1.398 . S
C295 C301 1.491 . S
C296 H287 0.950 . S
C296 C295 1.398 . S
C296 C297 1.391 . S
C297 H285 0.950 . S
C297 C293 1.393 . S
C297 C296 1.391 . S
C298 H288 0.950 . S
C298 C299 1.386 . S
C298 C300 1.391 . S
C299 C298 1.386 . S
C299 C303 1.393 . S
C300 H289 0.950 . S
C300 C298 1.391 . S
C300 C301 1.400 . S
C301 C295 1.491 . S
C301 C300 1.400 . S
C301 C302 1.398 . S
C302 H290 0.950 . S
C302 C301 1.398 . S
C302 C303 1.391 . S
C303 H291 0.950 . S
C303 C299 1.393 . S
C303 C302 1.391 . S
H304 C312 0.950 . S
H305 C317 0.950 . S
H306 C314 0.950 . S
H307 C316 0.950 . S
H308 C318 0.950 . S
H309 C320 0.950 . S
H310 C322 0.950 . S
H311 C323 0.950 . S
C312 H304 0.950 . S
C312 C313 1.386 . S
C312 C314 1.391 . S
C313 C312 1.386 . S
C313 C317 1.393 . S
C314 H306 0.950 . S
C314 C312 1.391 . S
C314 C315 1.400 . S
C315 C314 1.400 . S
C315 C316 1.398 . S
C315 C321 1.491 . S
C316 H307 0.950 . S
C316 C315 1.398 . S
C316 C317 1.391 . S
C317 H305 0.950 . S
C317 C313 1.393 . S
C317 C316 1.391 . S
C318 H308 0.950 . S
C318 C319 1.386 . S
C318 C320 1.391 . S
C319 C318 1.386 . S
C319 C323 1.393 . S
C320 H309 0.950 . S
C320 C318 1.391 . S
C320 C321 1.400 . S
C321 C315 1.491 . S
C321 C320 1.400 . S
C321 C322 1.398 . S
C322 H310 0.950 . S
C322 C321 1.398 . S
C322 C323 1.391 . S
C323 H311 0.950 . S
C323 C319 1.393 . S
C323 C322 1.391 . S
H324 C332 0.950 . S
H325 C337 0.950 . S
H326 C334 0.950 1_455 S
H327 C336 0.950 . S
H328 C338 0.950 . S
H329 C340 0.950 . S
H330 C342 0.950 . S
H331 C343 0.950 . S
C332 H324 0.950 . S
C332 C333 1.386 . S
C332 C334 1.391 . S
C333 C332 1.386 . S
C333 C337 1.393 . S
C334 H326 0.950 1_655 S
C334 C332 1.391 . S
C334 C335 1.400 . S
C335 C334 1.400 . S
C335 C336 1.398 . S
C335 C341 1.491 1_655 S
C336 H327 0.950 . S
C336 C335 1.398 . S
C336 C337 1.391 . S
C337 H325 0.950 . S
C337 C333 1.393 . S
C337 C336 1.391 . S
C338 H328 0.950 . S
C338 C339 1.386 . S
C338 C340 1.391 . S
C339 C338 1.386 . S
C339 C343 1.393 . S
C340 H329 0.950 . S
C340 C338 1.391 . S
C340 C341 1.400 . S
C341 C335 1.491 1_455 S
C341 C340 1.400 . S
C341 C342 1.398 . S
C342 H330 0.950 . S
C342 C341 1.398 . S
C342 C343 1.391 . S
C343 H331 0.950 . S
C343 C339 1.393 . S
C343 C342 1.391 . S
H344 C352 0.950 . S
H345 C357 0.950 . S
H346 C354 0.950 . S
H347 C356 0.950 . S
H348 C358 0.950 . S
H349 C360 0.950 . S
H350 C362 0.950 . S
H351 C363 0.950 . S
C352 H344 0.950 . S
C352 C353 1.386 . S
C352 C354 1.391 . S
C353 C352 1.386 . S
C353 C357 1.393 . S
C354 H346 0.950 . S
C354 C352 1.391 . S
C354 C355 1.400 . S
C355 C354 1.400 . S
C355 C356 1.398 . S
C355 C361 1.491 . S
C356 H347 0.950 . S
C356 C355 1.398 . S
C356 C357 1.391 . S
C357 H345 0.950 . S
C357 C353 1.393 . S
C357 C356 1.391 . S
C358 H348 0.950 . S
C358 C359 1.386 . S
C358 C360 1.391 . S
C359 C358 1.386 . S
C359 C363 1.393 . S
C360 H349 0.950 . S
C360 C358 1.391 . S
C360 C361 1.400 . S
C361 C355 1.491 . S
C361 C360 1.400 . S
C361 C362 1.398 . S
C362 H350 0.950 . S
C362 C361 1.398 . S
C362 C363 1.391 . S
C363 H351 0.950 . S
C363 C359 1.393 . S
C363 C362 1.391 . S
H364 C372 0.950 . S
H365 C377 0.950 . S
H366 C374 0.950 . S
H367 C376 0.950 1_545 S
H368 C378 0.950 . S
H369 C380 0.950 . S
H370 C382 0.950 . S
H371 C383 0.950 . S
C372 H364 0.950 . S
C372 C373 1.386 . S
C372 C374 1.391 . S
C373 C372 1.386 . S
C373 C377 1.393 . S
C374 H366 0.950 . S
C374 C372 1.391 . S
C374 C375 1.400 1_565 S
C375 C374 1.400 1_545 S
C375 C376 1.398 1_545 S
C375 C381 1.491 . S
C376 H367 0.950 1_565 S
C376 C375 1.398 1_565 S
C376 C377 1.391 . S
C377 H365 0.950 . S
C377 C373 1.393 . S
C377 C376 1.391 . S
C378 H368 0.950 . S
C378 C379 1.386 . S
C378 C380 1.391 . S
C379 C378 1.386 . S
C379 C383 1.393 . S
C380 H369 0.950 . S
C380 C378 1.391 . S
C380 C381 1.400 . S
C381 C375 1.491 . S
C381 C380 1.400 . S
C381 C382 1.398 . S
C382 H370 0.950 . S
C382 C381 1.398 . S
C382 C383 1.391 . S
C383 H371 0.950 . S
C383 C379 1.393 . S
C383 C382 1.391 . S
H384 C392 0.950 . S
H385 C397 0.950 . S
H386 C394 0.950 . S
H387 C396 0.950 . S
H388 C398 0.950 . S
H389 C400 0.950 . S
H390 C402 0.950 . S
H391 C403 0.950 . S
C392 H384 0.950 . S
C392 C393 1.386 1_665 S
C392 C394 1.391 . S
C393 C392 1.386 1_445 S
C393 C397 1.393 . S
C394 H386 0.950 . S
C394 C392 1.391 . S
C394 C395 1.400 1_665 S
C395 C394 1.400 1_445 S
C395 C396 1.398 . S
C395 C401 1.491 . S
C396 H387 0.950 . S
C396 C395 1.398 . S
C396 C397 1.391 . S
C397 H385 0.950 . S
C397 C393 1.393 . S
C397 C396 1.391 . S
C398 H388 0.950 . S
C398 C399 1.386 1_445 S
C398 C400 1.391 . S
C399 C398 1.386 1_665 S
C399 C403 1.393 . S
C400 H389 0.950 . S
C400 C398 1.391 . S
C400 C401 1.400 . S
C401 C395 1.491 . S
C401 C400 1.400 . S
C401 C402 1.398 1_445 S
C402 H390 0.950 . S
C402 C401 1.398 1_665 S
C402 C403 1.391 . S
C403 H391 0.950 . S
C403 C399 1.393 . S
C403 C402 1.391 . S
H404 C412 0.950 . S
H405 C417 0.950 . S
H406 C414 0.950 . S
H407 C416 0.950 . S
H408 C418 0.950 . S
H409 C420 0.950 . S
H410 C422 0.950 . S
H411 C423 0.950 . S
C412 H404 0.950 . S
C412 C413 1.386 . S
C412 C414 1.391 . S
C413 C412 1.386 . S
C413 C417 1.393 . S
C414 H406 0.950 . S
C414 C412 1.391 . S
C414 C415 1.400 . S
C415 C414 1.400 . S
C415 C416 1.398 . S
C415 C421 1.491 . S
C416 H407 0.950 . S
C416 C415 1.398 . S
C416 C417 1.391 . S
C417 H405 0.950 . S
C417 C413 1.393 . S
C417 C416 1.391 . S
C418 H408 0.950 . S
C418 C419 1.386 . S
C418 C420 1.391 . S
C419 C418 1.386 . S
C419 C423 1.393 . S
C420 H409 0.950 . S
C420 C418 1.391 . S
C420 C421 1.400 . S
C421 C415 1.491 . S
C421 C420 1.400 . S
C421 C422 1.398 . S
C422 H410 0.950 . S
C422 C421 1.398 . S
C422 C423 1.391 . S
C423 H411 0.950 . S
C423 C419 1.393 . S
C423 C422 1.391 . S
H424 C432 0.950 . S
H425 C437 0.950 . S
H426 C434 0.950 . S
H427 C436 0.950 . S
H428 C438 0.950 . S
H429 C440 0.950 . S
H430 C442 0.950 . S
H431 C443 0.950 . S
C432 H424 0.950 . S
C432 C433 1.386 . S
C432 C434 1.391 . S
C433 C432 1.386 . S
C433 C437 1.393 . S
C434 H426 0.950 . S
C434 C432 1.391 . S
C434 C435 1.400 . S
C435 C434 1.400 . S
C435 C436 1.398 . S
C435 C441 1.491 . S
C436 H427 0.950 . S
C436 C435 1.398 . S
C436 C437 1.391 . S
C437 H425 0.950 . S
C437 C433 1.393 . S
C437 C436 1.391 . S
C438 H428 0.950 . S
C438 C439 1.386 . S
C438 C440 1.391 . S
C439 C438 1.386 . S
C439 C443 1.393 . S
C440 H429 0.950 . S
C440 C438 1.391 . S
C440 C441 1.400 . S
C441 C435 1.491 . S
C441 C440 1.400 . S
C441 C442 1.398 . S
C442 H430 0.950 . S
C442 C441 1.398 . S
C442 C443 1.391 . S
C443 H431 0.950 . S
C443 C439 1.393 . S
C443 C442 1.391 . S
H444 C452 0.950 . S
H445 C457 0.950 1_545 S
H446 C454 0.950 . S
H447 C456 0.950 . S
H448 C458 0.950 . S
H449 C460 0.950 1_655 S
H450 C462 0.950 1_565 S
H451 C463 0.950 . S
C452 H444 0.950 . S
C452 C453 1.386 . S
C452 C454 1.391 1_655 S
C453 C452 1.386 . S
C453 C457 1.393 . S
C454 H446 0.950 . S
C454 C452 1.391 1_455 S
C454 C455 1.412 1_565 S
C455 C454 1.412 1_545 S
C455 C456 1.377 1_455 S
C455 C461 1.500 1_554 S
C456 H447 0.950 . S
C456 C455 1.377 1_655 S
C456 C457 1.391 1_545 S
C457 H445 0.950 1_565 S
C457 C453 1.393 . S
C457 C456 1.391 1_565 S
C458 H448 0.950 . S
C458 C459 1.386 . S
C458 C460 1.391 . S
C459 C458 1.386 . S
C459 C463 1.393 . S
C460 H449 0.950 1_455 S
C460 C458 1.391 . S
C460 C461 1.400 . S
C461 C455 1.500 1_556 S
C461 C460 1.400 . S
C461 C462 1.398 . S
C462 H450 0.950 1_545 S
C462 C461 1.398 . S
C462 C463 1.391 . S
C463 H451 0.950 . S
C463 C459 1.393 . S
C463 C462 1.391 . S
H464 C472 0.950 . S
H465 C477 0.950 . S
H466 C474 0.950 . S
H467 C476 0.950 . S
H468 C478 0.950 . S
H469 C480 0.950 . S
H470 C482 0.950 . S
H471 C483 0.950 . S
C472 H464 0.950 . S
C472 C473 1.386 . S
C472 C474 1.391 . S
C473 C472 1.386 . S
C473 C477 1.393 . S
C474 H466 0.950 . S
C474 C472 1.391 . S
C474 C475 1.400 . S
C475 C474 1.400 . S
C475 C476 1.398 . S
C475 C481 1.491 . S
C476 H467 0.950 . S
C476 C475 1.398 . S
C476 C477 1.391 . S
C477 H465 0.950 . S
C477 C473 1.393 . S
C477 C476 1.391 . S
C478 H468 0.950 . S
C478 C479 1.386 . S
C478 C480 1.391 . S
C479 C478 1.386 . S
C479 C483 1.393 . S
C480 H469 0.950 . S
C480 C478 1.391 . S
C480 C481 1.400 . S
C481 C475 1.491 . S
C481 C480 1.400 . S
C481 C482 1.398 . S
C482 H470 0.950 . S
C482 C481 1.398 . S
C482 C483 1.391 . S
C483 H471 0.950 . S
C483 C479 1.393 . S
C483 C482 1.391 . S
H484 C492 0.950 . S
H485 C497 0.950 . S
H486 C494 0.950 . S
H487 C496 0.950 . S
H488 C498 0.950 . S
H489 C500 0.950 . S
H490 C502 0.950 . S
H491 C503 0.950 . S
C492 H484 0.950 . S
C492 C493 1.386 . S
C492 C494 1.391 . S
C493 C492 1.386 . S
C493 C497 1.393 . S
C494 H486 0.950 . S
C494 C492 1.391 . S
C494 C495 1.400 . S
C495 C494 1.400 . S
C495 C496 1.398 . S
C495 C501 1.491 . S
C496 H487 0.950 . S
C496 C495 1.398 . S
C496 C497 1.391 . S
C497 H485 0.950 . S
C497 C493 1.393 . S
C497 C496 1.391 . S
C498 H488 0.950 . S
C498 C499 1.386 . S
C498 C500 1.391 . S
C499 C498 1.386 . S
C499 C503 1.393 . S
C500 H489 0.950 . S
C500 C498 1.391 . S
C500 C501 1.400 . S
C501 C495 1.491 . S
C501 C500 1.400 . S
C501 C502 1.398 . S
C502 H490 0.950 . S
C502 C501 1.398 . S
C502 C503 1.391 . S
C503 H491 0.950 . S
C503 C499 1.393 . S
C503 C502 1.391 . S
C213 C33 1.289 . S
C219 C135 1.284 . S
C233 C20 1.810 . S
C239 C104 1.809 . S
C253 C122 1.813 . S
C259 C2 1.810 . S
C273 C54 1.811 . S
C279 C138 1.810 . S
C293 C169 1.286 . S
C299 C67 1.290 . S
C313 C36 1.822 . S
C319 C156 1.824 . S
C333 C101 1.295 . S
C339 C203 1.290 . S
C353 C88 1.824 . S
C359 C172 1.822 . S
C373 C190 1.810 . S
C379 C70 1.809 . S
C393 C43 1.928 . S
C399 C9 1.935 1_565 S
C413 C111 1.919 . S
C419 C77 1.925 . S
C433 C179 1.920 . S
C439 C145 1.926 . S
C453 C5 0.423 . S
C459 C39 0.428 . S
C473 C107 0.371 . S
C479 C73 0.375 . S
C493 C175 0.395 . S
C499 C141 0.406 . S
