# Generated by pormake.
# Topology smn, (6)-cn, num edge types: 1
# Building blocks:
#     Node 0, Type 0, BuildingBlock: OJICUG_clean_sbu_0, # of connection points: 6
#     Node 1, Type 0, BuildingBlock: OJICUG_clean_sbu_0, # of connection points: 6
#     Node 2, Type 0, BuildingBlock: OJICUG_clean_sbu_0, # of connection points: 6
#     Node 3, Type 0, BuildingBlock: OJICUG_clean_sbu_0, # of connection points: 6
#     Node 4, Type 0, BuildingBlock: OJICUG_clean_sbu_0, # of connection points: 6
#     Node 5, Type 0, BuildingBlock: OJICUG_clean_sbu_0, # of connection points: 6
#     Node 6, Type 0, BuildingBlock: OJICUG_clean_sbu_0, # of connection points: 6
#     Node 7, Type 0, BuildingBlock: OJICUG_clean_sbu_0, # of connection points: 6
#     Node 8, Type 0, BuildingBlock: OJICUG_clean_sbu_0, # of connection points: 6
#     Node 9, Type 0, BuildingBlock: OJICUG_clean_sbu_0, # of connection points: 6
#     Node 10, Type 0, BuildingBlock: OJICUG_clean_sbu_0, # of connection points: 6
#     Node 11, Type 0, BuildingBlock: OJICUG_clean_sbu_0, # of connection points: 6
#     Node 12, Type 0, BuildingBlock: OJICUG_clean_sbu_0, # of connection points: 6
#     Node 13, Type 0, BuildingBlock: OJICUG_clean_sbu_0, # of connection points: 6
#     Node 14, Type 0, BuildingBlock: OJICUG_clean_sbu_0, # of connection points: 6
#     Node 15, Type 0, BuildingBlock: OJICUG_clean_sbu_0, # of connection points: 6
#     Node 16, Type 0, BuildingBlock: OJICUG_clean_sbu_0, # of connection points: 6
#     Node 17, Type 0, BuildingBlock: OJICUG_clean_sbu_0, # of connection points: 6
#     Edge 18, Type (0, 0), BuildingBlock: ZUJKAS_clean_linker_0, # of connection points: 2
#     Edge 19, Type (0, 0), BuildingBlock: ZUJKAS_clean_linker_0, # of connection points: 2
#     Edge 20, Type (0, 0), BuildingBlock: ZUJKAS_clean_linker_0, # of connection points: 2
#     Edge 21, Type (0, 0), BuildingBlock: ZUJKAS_clean_linker_0, # of connection points: 2
#     Edge 22, Type (0, 0), BuildingBlock: ZUJKAS_clean_linker_0, # of connection points: 2
#     Edge 23, Type (0, 0), BuildingBlock: ZUJKAS_clean_linker_0, # of connection points: 2
#     Edge 24, Type (0, 0), BuildingBlock: ZUJKAS_clean_linker_0, # of connection points: 2
#     Edge 25, Type (0, 0), BuildingBlock: ZUJKAS_clean_linker_0, # of connection points: 2
#     Edge 26, Type (0, 0), BuildingBlock: ZUJKAS_clean_linker_0, # of connection points: 2
#     Edge 27, Type (0, 0), BuildingBlock: ZUJKAS_clean_linker_0, # of connection points: 2
#     Edge 28, Type (0, 0), BuildingBlock: ZUJKAS_clean_linker_0, # of connection points: 2
#     Edge 29, Type (0, 0), BuildingBlock: ZUJKAS_clean_linker_0, # of connection points: 2
#     Edge 30, Type (0, 0), BuildingBlock: ZUJKAS_clean_linker_0, # of connection points: 2
#     Edge 31, Type (0, 0), BuildingBlock: ZUJKAS_clean_linker_0, # of connection points: 2
#     Edge 32, Type (0, 0), BuildingBlock: ZUJKAS_clean_linker_0, # of connection points: 2
#     Edge 33, Type (0, 0), BuildingBlock: ZUJKAS_clean_linker_0, # of connection points: 2
#     Edge 34, Type (0, 0), BuildingBlock: ZUJKAS_clean_linker_0, # of connection points: 2
#     Edge 35, Type (0, 0), BuildingBlock: ZUJKAS_clean_linker_0, # of connection points: 2
#     Edge 36, Type (0, 0), BuildingBlock: ZUJKAS_clean_linker_0, # of connection points: 2
#     Edge 37, Type (0, 0), BuildingBlock: ZUJKAS_clean_linker_0, # of connection points: 2
#     Edge 38, Type (0, 0), BuildingBlock: ZUJKAS_clean_linker_0, # of connection points: 2
#     Edge 39, Type (0, 0), BuildingBlock: ZUJKAS_clean_linker_0, # of connection points: 2
#     Edge 40, Type (0, 0), BuildingBlock: ZUJKAS_clean_linker_0, # of connection points: 2
#     Edge 41, Type (0, 0), BuildingBlock: ZUJKAS_clean_linker_0, # of connection points: 2
#     Edge 42, Type (0, 0), BuildingBlock: ZUJKAS_clean_linker_0, # of connection points: 2
#     Edge 43, Type (0, 0), BuildingBlock: ZUJKAS_clean_linker_0, # of connection points: 2
#     Edge 44, Type (0, 0), BuildingBlock: ZUJKAS_clean_linker_0, # of connection points: 2
#     Edge 45, Type (0, 0), BuildingBlock: ZUJKAS_clean_linker_0, # of connection points: 2
#     Edge 46, Type (0, 0), BuildingBlock: ZUJKAS_clean_linker_0, # of connection points: 2
#     Edge 47, Type (0, 0), BuildingBlock: ZUJKAS_clean_linker_0, # of connection points: 2
#     Edge 48, Type (0, 0), BuildingBlock: ZUJKAS_clean_linker_0, # of connection points: 2
#     Edge 49, Type (0, 0), BuildingBlock: ZUJKAS_clean_linker_0, # of connection points: 2
#     Edge 50, Type (0, 0), BuildingBlock: ZUJKAS_clean_linker_0, # of connection points: 2
#     Edge 51, Type (0, 0), BuildingBlock: ZUJKAS_clean_linker_0, # of connection points: 2
#     Edge 52, Type (0, 0), BuildingBlock: ZUJKAS_clean_linker_0, # of connection points: 2
#     Edge 53, Type (0, 0), BuildingBlock: ZUJKAS_clean_linker_0, # of connection points: 2
#     Edge 54, Type (0, 0), BuildingBlock: ZUJKAS_clean_linker_0, # of connection points: 2
#     Edge 55, Type (0, 0), BuildingBlock: ZUJKAS_clean_linker_0, # of connection points: 2
#     Edge 56, Type (0, 0), BuildingBlock: ZUJKAS_clean_linker_0, # of connection points: 2
#     Edge 57, Type (0, 0), BuildingBlock: ZUJKAS_clean_linker_0, # of connection points: 2
#     Edge 58, Type (0, 0), BuildingBlock: ZUJKAS_clean_linker_0, # of connection points: 2
#     Edge 59, Type (0, 0), BuildingBlock: ZUJKAS_clean_linker_0, # of connection points: 2
#     Edge 60, Type (0, 0), BuildingBlock: ZUJKAS_clean_linker_0, # of connection points: 2
#     Edge 61, Type (0, 0), BuildingBlock: ZUJKAS_clean_linker_0, # of connection points: 2
#     Edge 62, Type (0, 0), BuildingBlock: ZUJKAS_clean_linker_0, # of connection points: 2
#     Edge 63, Type (0, 0), BuildingBlock: ZUJKAS_clean_linker_0, # of connection points: 2
#     Edge 64, Type (0, 0), BuildingBlock: ZUJKAS_clean_linker_0, # of connection points: 2
#     Edge 65, Type (0, 0), BuildingBlock: ZUJKAS_clean_linker_0, # of connection points: 2
#     Edge 66, Type (0, 0), BuildingBlock: ZUJKAS_clean_linker_0, # of connection points: 2
#     Edge 67, Type (0, 0), BuildingBlock: ZUJKAS_clean_linker_0, # of connection points: 2
#     Edge 68, Type (0, 0), BuildingBlock: ZUJKAS_clean_linker_0, # of connection points: 2
#     Edge 69, Type (0, 0), BuildingBlock: ZUJKAS_clean_linker_0, # of connection points: 2
#     Edge 70, Type (0, 0), BuildingBlock: ZUJKAS_clean_linker_0, # of connection points: 2
#     Edge 71, Type (0, 0), BuildingBlock: ZUJKAS_clean_linker_0, # of connection points: 2
# Relax obj value: 0.148
# Max RMSD: 0.236
# Mean RMSD: 0.236
data_MOF--net-smn--node1-OJICUG_clean_sbu_0--edge1-ZUJKAS_clean_linker_0
_symmetry_space_group_name_H-M    P1
_symmetry_Int_Tables_number       1
_symmetry_cell_setting            triclinic
loop_
_symmetry_equiv_pos_as_xyz
'x, y, z'
_cell_length_a     83.750951
_cell_length_b     83.75841
_cell_length_c     23.164455
_cell_angle_alpha  90.006634
_cell_angle_beta   89.993509
_cell_angle_gamma 119.99493
loop_
_atom_site_label
_atom_site_type_symbol
_atom_site_fract_x
_atom_site_fract_y
_atom_site_fract_z
_atom_type_partial_charge
Sc0 Sc 0.00401 0.17863 0.75182 0.0
Sc1 Sc 0.01548 0.22115 0.81575 0.0
Sc2 Sc 0.99314 0.2091 0.68081 0.0
O3 O 0.00422 0.20295 0.74945 0.0
C4 C 0.01607 0.19242 0.62199 0.0
C5 C 0.04297 0.20507 0.80985 0.0
C6 C 0.02922 0.24806 0.70845 0.0
C7 C 0.99224 0.18248 0.87998 0.0
C8 C 0.96519 0.16583 0.69259 0.0
C9 C 0.97974 0.22416 0.78421 0.0
O10 O 0.01444 0.18223 0.66498 0.0
O11 O 0.03872 0.21692 0.82647 0.0
O12 O 0.01512 0.23733 0.6787 0.0
O13 O 0.99365 0.17323 0.8387 0.0
O14 O 0.96975 0.18164 0.67243 0.0
O15 O 0.99387 0.22786 0.8143 0.0
O16 O 0.9759 0.16283 0.72353 0.0
O17 O 0.99915 0.19991 0.87813 0.0
O18 O 0.97639 0.21591 0.73572 0.0
O19 O 0.03201 0.19088 0.78107 0.0
O20 O 0.00934 0.20311 0.62122 0.0
O21 O 0.03225 0.24387 0.75851 0.0
Sc22 Sc 0.78858 0.80051 0.81722 0.0
Sc23 Sc 0.79955 0.78951 0.68079 0.0
Sc24 Sc 0.83027 0.83145 0.74858 0.0
O25 O 0.80611 0.80713 0.74886 0.0
C26 C 0.80352 0.84367 0.80684 0.0
C27 C 0.76085 0.78675 0.71052 0.0
C28 C 0.81602 0.82889 0.61945 0.0
C29 C 0.78584 0.76186 0.78767 0.0
C30 C 0.82805 0.81726 0.87775 0.0
C31 C 0.84286 0.80494 0.69021 0.0
O32 O 0.79184 0.82767 0.8247 0.0
O33 O 0.77179 0.78434 0.67849 0.0
O34 O 0.82562 0.83775 0.66291 0.0
O35 O 0.7834 0.77279 0.81952 0.0
O36 O 0.83687 0.82715 0.83462 0.0
O37 O 0.82676 0.79286 0.6742 0.0
O38 O 0.81058 0.80697 0.87828 0.0
O39 O 0.79194 0.76582 0.73619 0.0
O40 O 0.84605 0.81939 0.71749 0.0
O41 O 0.76485 0.79286 0.762 0.0
O42 O 0.81783 0.84695 0.77862 0.0
O43 O 0.80607 0.81137 0.61872 0.0
Sc44 Sc 0.18057 0.0059 0.74633 0.0
Sc45 Sc 0.21106 0.99499 0.81733 0.0
Sc46 Sc 0.22255 0.01642 0.68017 0.0
O47 O 0.20476 0.00576 0.74794 0.0
C48 C 0.18312 0.99338 0.61866 0.0
C49 C 0.16787 0.96713 0.80779 0.0
C50 C 0.22504 0.98055 0.71205 0.0
C51 C 0.19451 0.01845 0.87506 0.0
C52 C 0.20755 0.04462 0.68614 0.0
C53 C 0.24996 0.03057 0.788 0.0
O54 O 0.17404 0.99396 0.66183 0.0
O55 O 0.18398 0.97097 0.82291 0.0
O56 O 0.22715 0.9935 0.67875 0.0
O57 O 0.18541 0.01796 0.83051 0.0
O58 O 0.21987 0.04065 0.67269 0.0
O59 O 0.2387 0.01771 0.8208 0.0
O60 O 0.19276 0.03332 0.71175 0.0
O61 O 0.20396 0.01034 0.87764 0.0
O62 O 0.24631 0.03222 0.73566 0.0
O63 O 0.16473 0.97848 0.7809 0.0
O64 O 0.20066 0.00116 0.61817 0.0
O65 O 0.21929 0.97896 0.76384 0.0
Sc66 Sc 0.00541 0.8307 0.24844 0.0
Sc67 Sc 0.99434 0.78872 0.1807 0.0
Sc68 Sc 0.01605 0.79971 0.31728 0.0
O69 O 0.00526 0.80636 0.24879 0.0
C70 C 0.04422 0.84292 0.30846 0.0
C71 C 0.01762 0.8282 0.11996 0.0
C72 C 0.03002 0.78564 0.21135 0.0
C73 C 0.96658 0.80434 0.18827 0.0
C74 C 0.99316 0.81646 0.37722 0.0
C75 C 0.98005 0.76111 0.28764 0.0
O76 O 0.03305 0.84625 0.28122 0.0
O77 O 0.01005 0.81068 0.11935 0.0
O78 O 0.03207 0.79186 0.26264 0.0
O79 O 0.97781 0.81878 0.21557 0.0
O80 O 0.00063 0.80642 0.37822 0.0
O81 O 0.97806 0.76504 0.23596 0.0
O82 O 0.99397 0.8261 0.33372 0.0
O83 O 0.97054 0.79215 0.17299 0.0
O84 O 0.99334 0.77205 0.31974 0.0
O85 O 0.01684 0.83716 0.16315 0.0
O86 O 0.04009 0.82677 0.32407 0.0
O87 O 0.01678 0.78329 0.17899 0.0
Sc88 Sc 0.22194 0.2108 0.18192 0.0
Sc89 Sc 0.21076 0.22217 0.31646 0.0
Sc90 Sc 0.18035 0.1798 0.25081 0.0
O91 O 0.20432 0.20425 0.24972 0.0
C92 C 0.18265 0.19419 0.12136 0.0
C93 C 0.22494 0.2497 0.21084 0.0
C94 C 0.16719 0.20582 0.30828 0.0
C95 C 0.24961 0.225 0.28726 0.0
C96 C 0.20672 0.16747 0.19182 0.0
C97 C 0.19528 0.18331 0.37967 0.0
O98 O 0.20002 0.20523 0.12162 0.0
O99 O 0.21684 0.2451 0.25957 0.0
O100 O 0.16422 0.19172 0.27947 0.0
O101 O 0.2451 0.21724 0.23795 0.0
O102 O 0.19303 0.1643 0.22311 0.0
O103 O 0.20562 0.20078 0.37852 0.0
O104 O 0.21782 0.18335 0.17178 0.0
O105 O 0.23908 0.22871 0.31684 0.0
O106 O 0.18489 0.17414 0.3378 0.0
O107 O 0.22865 0.23914 0.18158 0.0
O108 O 0.17401 0.18362 0.16358 0.0
O109 O 0.18318 0.21777 0.3255 0.0
Sc110 Sc 0.83035 0.00481 0.24662 0.0
Sc111 Sc 0.79907 0.01545 0.18019 0.0
Sc112 Sc 0.78885 0.99379 0.31714 0.0
O113 O 0.80606 0.00469 0.24801 0.0
C114 C 0.80419 0.96591 0.30623 0.0
C115 C 0.81571 0.99279 0.11811 0.0
C116 C 0.76073 0.97932 0.21125 0.0
C117 C 0.84226 0.04377 0.18831 0.0
C118 C 0.82857 0.01698 0.37598 0.0
C119 C 0.7853 0.02926 0.28742 0.0
O120 O 0.81836 0.97698 0.27754 0.0
O121 O 0.8057 0.0003 0.11773 0.0
O122 O 0.76498 0.97745 0.26267 0.0
O123 O 0.84574 0.03259 0.21481 0.0
O124 O 0.81106 0.00946 0.37767 0.0
O125 O 0.79125 0.03127 0.2358 0.0
O126 O 0.83719 0.01604 0.3321 0.0
O127 O 0.82605 0.03958 0.17313 0.0
O128 O 0.78328 0.01613 0.31975 0.0
O129 O 0.82544 0.99361 0.16129 0.0
O130 O 0.79242 0.97008 0.32429 0.0
O131 O 0.77145 0.9926 0.17868 0.0
Sc132 Sc 0.67257 0.51403 0.08186 0.0
Sc133 Sc 0.68277 0.55546 0.15133 0.0
Sc134 Sc 0.66124 0.54481 0.01456 0.0
O135 O 0.67219 0.53811 0.08258 0.0
C136 C 0.68501 0.52911 0.9539 0.0
C137 C 0.71122 0.54077 0.14256 0.0
C138 C 0.69663 0.58369 0.04587 0.0
C139 C 0.65999 0.51567 0.21043 0.0
C140 C 0.63374 0.5014 0.02137 0.0
C141 C 0.64657 0.5577 0.12163 0.0
O142 O 0.68426 0.51933 0.99693 0.0
O143 O 0.70698 0.55273 0.15801 0.0
O144 O 0.6835 0.57274 0.01329 0.0
O145 O 0.6609 0.50695 0.16678 0.0
O146 O 0.63758 0.51754 0.00664 0.0
O147 O 0.65985 0.5601 0.15389 0.0
O148 O 0.64505 0.49821 0.04827 0.0
O149 O 0.66743 0.53317 0.21183 0.0
O150 O 0.64474 0.55194 0.06979 0.0
O151 O 0.70014 0.52624 0.11535 0.0
O152 O 0.67719 0.53884 0.95329 0.0
O153 O 0.69867 0.57948 0.09714 0.0
Sc154 Sc 0.49829 0.16309 0.0826 0.0
Sc155 Sc 0.45654 0.13186 0.15027 0.0
Sc156 Sc 0.46768 0.12133 0.0135 0.0
O157 O 0.47416 0.13874 0.08213 0.0
C158 C 0.48373 0.16085 0.95382 0.0
C159 C 0.47132 0.17504 0.14134 0.0
C160 C 0.42866 0.1177 0.04393 0.0
C161 C 0.496 0.14881 0.21152 0.0
C162 C 0.51101 0.13691 0.02314 0.0
C163 C 0.45444 0.09351 0.11986 0.0
O164 O 0.49366 0.16968 0.99688 0.0
O165 O 0.45937 0.15885 0.15695 0.0
O166 O 0.43968 0.11551 0.01168 0.0
O167 O 0.50483 0.15847 0.16811 0.0
O168 O 0.49504 0.12509 0.0054 0.0
O169 O 0.45182 0.10424 0.15219 0.0
O170 O 0.51411 0.15109 0.05174 0.0
O171 O 0.4785 0.13871 0.21213 0.0
O172 O 0.46054 0.09768 0.06841 0.0
O173 O 0.48591 0.1785 0.11438 0.0
O174 O 0.47368 0.14335 0.95302 0.0
O175 O 0.43276 0.12392 0.09522 0.0
Sc176 Sc 0.84618 0.33713 0.07757 0.0
Sc177 Sc 0.87628 0.32597 0.14969 0.0
Sc178 Sc 0.88885 0.34843 0.01496 0.0
O179 O 0.87043 0.33718 0.08074 0.0
C180 C 0.85028 0.32541 0.94964 0.0
C181 C 0.83299 0.29822 0.13679 0.0
C182 C 0.89153 0.31254 0.04681 0.0
C183 C 0.85965 0.34908 0.20767 0.0
C184 C 0.87301 0.37614 0.02035 0.0
C185 C 0.91543 0.36194 0.12323 0.0
O186 O 0.84096 0.3268 0.99072 0.0
O187 O 0.84875 0.30265 0.15721 0.0
O188 O 0.89534 0.32668 0.01663 0.0
O189 O 0.84963 0.34756 0.16432 0.0
O190 O 0.8849 0.37185 0.00434 0.0
O191 O 0.90452 0.34787 0.15277 0.0
O192 O 0.85864 0.36514 0.04834 0.0
O193 O 0.8702 0.34219 0.20895 0.0
O194 O 0.91148 0.36501 0.07285 0.0
O195 O 0.83015 0.30903 0.10581 0.0
O196 O 0.86772 0.33228 0.95188 0.0
O197 O 0.88319 0.3092 0.09513 0.0
Sc198 Sc 0.66073 0.12251 0.51262 0.0
Sc199 Sc 0.68227 0.1326 0.64985 0.0
Sc200 Sc 0.67166 0.16393 0.58362 0.0
O201 O 0.67155 0.13965 0.58202 0.0
C202 C 0.68383 0.16237 0.45425 0.0
C203 C 0.69629 0.11916 0.54206 0.0
C204 C 0.71061 0.17577 0.64224 0.0
C205 C 0.64633 0.09423 0.61831 0.0
C206 C 0.63272 0.13764 0.52389 0.0
C207 C 0.65959 0.14926 0.71197 0.0
O208 O 0.67605 0.14485 0.45213 0.0
O209 O 0.69796 0.12453 0.59432 0.0
O210 O 0.69936 0.17929 0.61638 0.0
O211 O 0.64472 0.09835 0.56647 0.0
O212 O 0.64392 0.15197 0.55171 0.0
O213 O 0.66728 0.13943 0.71241 0.0
O214 O 0.63678 0.1257 0.50662 0.0
O215 O 0.65929 0.1051 0.65157 0.0
O216 O 0.6602 0.15885 0.66864 0.0
O217 O 0.68341 0.11753 0.50925 0.0
O218 O 0.68317 0.17098 0.49857 0.0
O219 O 0.70651 0.15951 0.65658 0.0
Sc220 Sc 0.88862 0.54379 0.5137 0.0
Sc221 Sc 0.87794 0.55455 0.65062 0.0
Sc222 Sc 0.84659 0.5131 0.5816 0.0
O223 O 0.87107 0.53716 0.58195 0.0
C224 C 0.84907 0.52829 0.45389 0.0
C225 C 0.89226 0.58275 0.5451 0.0
C226 C 0.8348 0.53985 0.64307 0.0
C227 C 0.9163 0.55667 0.62034 0.0
C228 C 0.87252 0.50034 0.51983 0.0
C229 C 0.86118 0.51474 0.70962 0.0
O230 O 0.86662 0.53786 0.45293 0.0
O231 O 0.88602 0.57855 0.59637 0.0
O232 O 0.8313 0.52526 0.61614 0.0
O233 O 0.9123 0.55086 0.56857 0.0
O234 O 0.85809 0.49724 0.54697 0.0
O235 O 0.87105 0.53226 0.71107 0.0
O236 O 0.88491 0.51648 0.50536 0.0
O237 O 0.90548 0.55913 0.6527 0.0
O238 O 0.8515 0.50597 0.66608 0.0
O239 O 0.89441 0.57177 0.51253 0.0
O240 O 0.84004 0.51856 0.49704 0.0
O241 O 0.85105 0.55189 0.65782 0.0
Sc242 Sc 0.46599 0.34792 0.51334 0.0
Sc243 Sc 0.45544 0.32728 0.65157 0.0
Sc244 Sc 0.49711 0.33765 0.58306 0.0
O245 O 0.47283 0.33762 0.58269 0.0
C246 C 0.48238 0.32442 0.45532 0.0
C247 C 0.4275 0.31218 0.54549 0.0
C248 C 0.47079 0.29929 0.64589 0.0
C249 C 0.45219 0.36266 0.6181 0.0
C250 C 0.5092 0.37605 0.52024 0.0
C251 C 0.4952 0.35097 0.71042 0.0
O252 O 0.47268 0.33224 0.45351 0.0
O253 O 0.43151 0.31078 0.59761 0.0
O254 O 0.48527 0.31038 0.61851 0.0
O255 O 0.45806 0.36416 0.56652 0.0
O256 O 0.51257 0.36493 0.54759 0.0
O257 O 0.47767 0.34324 0.71176 0.0
O258 O 0.49299 0.37199 0.50549 0.0
O259 O 0.4502 0.34985 0.65188 0.0
O260 O 0.50401 0.34996 0.66716 0.0
O261 O 0.43839 0.32505 0.51204 0.0
O262 O 0.49199 0.3253 0.49901 0.0
O263 O 0.45862 0.30336 0.66044 0.0
Sc264 Sc 0.33941 0.84653 0.4152 0.0
Sc265 Sc 0.3503 0.88809 0.48543 0.0
Sc266 Sc 0.32819 0.87752 0.34953 0.0
O267 O 0.33929 0.87072 0.41676 0.0
C268 C 0.35105 0.8613 0.28655 0.0
C269 C 0.37828 0.8728 0.47436 0.0
C270 C 0.36438 0.91597 0.37951 0.0
C271 C 0.32744 0.84849 0.54479 0.0
C272 C 0.30027 0.83418 0.35765 0.0
C273 C 0.31457 0.89133 0.45674 0.0
O274 O 0.35022 0.85132 0.32907 0.0
O275 O 0.37394 0.88438 0.49303 0.0
O276 O 0.35079 0.90527 0.34796 0.0
O277 O 0.32864 0.8398 0.5015 0.0
O278 O 0.30432 0.85033 0.34209 0.0
O279 O 0.32807 0.89384 0.48806 0.0
O280 O 0.31152 0.8309 0.38454 0.0
O281 O 0.33448 0.86595 0.54568 0.0
O282 O 0.31215 0.8849 0.40565 0.0
O283 O 0.36736 0.85876 0.44496 0.0
O284 O 0.34365 0.87139 0.28711 0.0
O285 O 0.36669 0.91181 0.43056 0.0
Sc286 Sc 0.12258 0.46554 0.48444 0.0
Sc287 Sc 0.13248 0.45442 0.34667 0.0
Sc288 Sc 0.16397 0.49621 0.41364 0.0
O289 O 0.13965 0.47203 0.41494 0.0
C290 C 0.13783 0.50872 0.47588 0.0
C291 C 0.09407 0.45166 0.37945 0.0
C292 C 0.14871 0.49398 0.28636 0.0
C293 C 0.11945 0.4268 0.45389 0.0
C294 C 0.16262 0.48215 0.54213 0.0
C295 C 0.17569 0.4694 0.35208 0.0
O296 O 0.12551 0.49256 0.49044 0.0
O297 O 0.10494 0.44976 0.34567 0.0
O298 O 0.15842 0.50296 0.32956 0.0
O299 O 0.11786 0.43795 0.48727 0.0
O300 O 0.17128 0.49121 0.49757 0.0
O301 O 0.15939 0.45714 0.33862 0.0
O302 O 0.14507 0.47275 0.5446 0.0
O303 O 0.12464 0.43058 0.4015 0.0
O304 O 0.17923 0.48414 0.37815 0.0
O305 O 0.09825 0.45723 0.43137 0.0
O306 O 0.15238 0.51192 0.44916 0.0
O307 O 0.13904 0.47644 0.28544 0.0
Sc308 Sc 0.51292 0.67223 0.41247 0.0
Sc309 Sc 0.54329 0.66109 0.48329 0.0
Sc310 Sc 0.55486 0.6826 0.34639 0.0
O311 O 0.53704 0.67196 0.41405 0.0
C312 C 0.51548 0.65966 0.2847 0.0
C313 C 0.49999 0.63344 0.47373 0.0
C314 C 0.55731 0.64666 0.37823 0.0
C315 C 0.52696 0.68467 0.54137 0.0
C316 C 0.53995 0.71092 0.35269 0.0
C317 C 0.58232 0.69662 0.45386 0.0
O318 O 0.50645 0.66053 0.32753 0.0
O319 O 0.51605 0.6373 0.48953 0.0
O320 O 0.55981 0.65987 0.34549 0.0
O321 O 0.51768 0.68402 0.49709 0.0
O322 O 0.55206 0.70676 0.33837 0.0
O323 O 0.57117 0.68352 0.48623 0.0
O324 O 0.52524 0.69976 0.37891 0.0
O325 O 0.53655 0.67671 0.54365 0.0
O326 O 0.57844 0.69857 0.40208 0.0
O327 O 0.49695 0.64473 0.44613 0.0
O328 O 0.533 0.66715 0.28453 0.0
O329 O 0.55105 0.64479 0.42945 0.0
Sc330 Sc 0.33773 0.49641 0.91648 0.0
Sc331 Sc 0.32657 0.45514 0.84447 0.0
Sc332 Sc 0.34915 0.46512 0.97912 0.0
O333 O 0.33783 0.47224 0.91335 0.0
C334 C 0.37674 0.50868 0.9739 0.0
C335 C 0.34945 0.49489 0.78619 0.0
C336 C 0.36279 0.45234 0.8704 0.0
C337 C 0.29868 0.47047 0.85795 0.0
C338 C 0.32599 0.48053 0.04434 0.0
C339 C 0.31342 0.42642 0.94732 0.0
O340 O 0.36574 0.51201 0.94576 0.0
O341 O 0.34246 0.47744 0.78485 0.0
O342 O 0.36577 0.45913 0.9211 0.0
O343 O 0.30962 0.48429 0.88815 0.0
O344 O 0.33291 0.47001 0.04214 0.0
O345 O 0.31007 0.43138 0.89894 0.0
O346 O 0.32738 0.49125 0.00329 0.0
O347 O 0.30304 0.45905 0.83792 0.0
O348 O 0.32749 0.43684 0.97759 0.0
O349 O 0.34815 0.50343 0.82979 0.0
O350 O 0.37249 0.49253 0.98993 0.0
O351 O 0.34873 0.44922 0.84083 0.0
Sc352 Sc 0.55465 0.87651 0.84775 0.0
Sc353 Sc 0.54478 0.88873 0.98381 0.0
Sc354 Sc 0.51341 0.84629 0.92038 0.0
O355 O 0.53763 0.87053 0.91727 0.0
C356 C 0.51468 0.85967 0.7905 0.0
C357 C 0.55818 0.91567 0.87517 0.0
C358 C 0.50149 0.8735 0.97755 0.0
C359 C 0.58301 0.89071 0.95272 0.0
C360 C 0.53932 0.8333 0.86029 0.0
C361 C 0.52873 0.84989 0.0483 0.0
O362 O 0.53218 0.86968 0.78808 0.0
O363 O 0.5522 0.91197 0.92681 0.0
O364 O 0.49803 0.8587 0.95203 0.0
O365 O 0.5787 0.88426 0.90166 0.0
O366 O 0.52531 0.83033 0.88962 0.0
O367 O 0.53866 0.86739 0.0472 0.0
O368 O 0.55101 0.84918 0.8416 0.0
O369 O 0.5724 0.89358 0.98479 0.0
O370 O 0.51873 0.84053 0.00609 0.0
O371 O 0.56028 0.90444 0.84373 0.0
O372 O 0.50623 0.85027 0.83484 0.0
O373 O 0.51774 0.88576 0.99157 0.0
Sc374 Sc 0.13307 0.68242 0.84915 0.0
Sc375 Sc 0.12205 0.66075 0.98575 0.0
Sc376 Sc 0.16378 0.67127 0.91786 0.0
O377 O 0.13962 0.67148 0.91757 0.0
C378 C 0.14926 0.659 0.78924 0.0
C379 C 0.09415 0.64691 0.87945 0.0
C380 C 0.13695 0.63246 0.97746 0.0
C381 C 0.11972 0.69687 0.95559 0.0
C382 C 0.17645 0.71006 0.85733 0.0
C383 C 0.16158 0.68357 0.04639 0.0
O384 O 0.13931 0.66659 0.7883 0.0
O385 O 0.09826 0.64482 0.93079 0.0
O386 O 0.15155 0.64363 0.95069 0.0
O387 O 0.12569 0.6988 0.90397 0.0
O388 O 0.17958 0.69884 0.885 0.0
O389 O 0.14408 0.67609 0.04709 0.0
O390 O 0.16035 0.70612 0.84163 0.0
O391 O 0.11727 0.68358 0.98786 0.0
O392 O 0.17048 0.68274 0.00311 0.0
O393 O 0.10515 0.66012 0.8472 0.0
O394 O 0.15895 0.65982 0.8326 0.0
O395 O 0.12491 0.63662 0.99266 0.0
H396 H 0.02814 0.16826 0.59825 0.0
H397 H 0.05267 0.17286 0.53173 0.0
H398 H 0.05664 0.22342 0.47156 0.0
H399 H 0.03191 0.21891 0.53782 0.0
H400 H 0.06081 0.2008 0.38258 0.0
H401 H 0.10582 0.21442 0.57366 0.0
H402 H 0.08444 0.19294 0.57683 0.0
H403 H 0.08422 0.21429 0.57735 0.0
C404 C 0.03396 0.18021 0.5702 0.0
C405 C 0.02822 0.19335 0.57399 0.0
C406 C 0.04801 0.18282 0.5323 0.0
C407 C 0.05668 0.19866 0.49774 0.0
C408 C 0.05015 0.21116 0.49822 0.0
H409 H 0.16725 0.234 0.36908 0.0
H410 H 0.14058 0.23495 0.40774 0.0
C411 C 0.03599 0.20852 0.53605 0.0
C412 C 0.07351 0.20281 0.46509 0.0
H413 H 0.11715 0.21046 0.484 0.0
C414 C 0.07321 0.20308 0.40456 0.0
C415 C 0.08977 0.20619 0.49403 0.0
C416 C 0.09123 0.20714 0.55906 0.0
C417 C 0.08858 0.20582 0.37211 0.0
C418 C 0.10446 0.2081 0.40115 0.0
C419 C 0.10495 0.20861 0.4617 0.0
C420 C 0.12037 0.2089 0.37034 0.0
C421 C 0.08764 0.20624 0.30715 0.0
C422 C 0.11787 0.19408 0.33574 0.0
C423 C 0.13307 0.19351 0.31342 0.0
C424 C 0.15113 0.20765 0.32587 0.0
C425 C 0.15357 0.22283 0.35878 0.0
C426 C 0.13833 0.22342 0.38088 0.0
H427 H 0.07762 0.21045 0.29273 0.0
H428 H 0.10134 0.21584 0.28821 0.0
H429 H 0.08296 0.19222 0.28997 0.0
H430 H 0.10419 0.18251 0.32814 0.0
H431 H 0.13062 0.18158 0.28833 0.0
H432 H 0.78781 0.94549 0.40246 0.0
H433 H 0.78816 0.91792 0.43499 0.0
H434 H 0.8152 0.91741 0.27694 0.0
H435 H 0.81578 0.94562 0.24564 0.0
H436 H 0.7752 0.8837 0.39943 0.0
H437 H 0.85177 0.91997 0.39144 0.0
H438 H 0.83904 0.93179 0.38006 0.0
H439 H 0.84102 0.91828 0.32303 0.0
C440 C 0.79367 0.9394 0.37443 0.0
C441 C 0.80205 0.94786 0.32202 0.0
C442 C 0.79385 0.92362 0.39299 0.0
C443 C 0.80215 0.91584 0.35911 0.0
C444 C 0.80929 0.92351 0.30474 0.0
H445 H 0.79652 0.8165 0.51741 0.0
H446 H 0.79312 0.83528 0.44234 0.0
C447 C 0.80952 0.93955 0.28676 0.0
C448 C 0.80428 0.90053 0.38283 0.0
H449 H 0.83669 0.88958 0.42507 0.0
C450 C 0.78862 0.88487 0.40461 0.0
C451 C 0.82183 0.90212 0.38966 0.0
C452 C 0.83939 0.919 0.37032 0.0
C453 C 0.79012 0.87128 0.43573 0.0
C454 C 0.80772 0.8731 0.44355 0.0
C455 C 0.82321 0.88818 0.41874 0.0
C456 C 0.81086 0.86134 0.48464 0.0
C457 C 0.77301 0.85578 0.46306 0.0
C458 C 0.82265 0.86977 0.53169 0.0
C459 C 0.82492 0.8592 0.57371 0.0
C460 C 0.8153 0.83984 0.57015 0.0
C461 C 0.80404 0.83137 0.5217 0.0
C462 C 0.80194 0.84207 0.47904 0.0
H463 H 0.76123 0.85837 0.46197 0.0
H464 H 0.76889 0.8428 0.43924 0.0
H465 H 0.77566 0.85375 0.50868 0.0
H466 H 0.82973 0.88461 0.53698 0.0
H467 H 0.83376 0.8663 0.61012 0.0
H468 H 0.19402 0.97648 0.53896 0.0
H469 H 0.17402 0.95192 0.4717 0.0
H470 H 0.12807 0.95855 0.52169 0.0
H471 H 0.14777 0.98283 0.58907 0.0
H472 H 0.12283 0.9228 0.53785 0.0
H473 H 0.14763 0.94935 0.31627 0.0
H474 H 0.16473 0.95216 0.36862 0.0
H475 H 0.15246 0.96445 0.37755 0.0
C476 C 0.17979 0.97307 0.53432 0.0
C477 C 0.17243 0.98149 0.56966 0.0
C478 C 0.16839 0.95904 0.49586 0.0
C479 C 0.14959 0.95344 0.49181 0.0
C480 C 0.14255 0.96266 0.52431 0.0
H481 H 0.05715 0.87964 0.2893 0.0
H482 H 0.08484 0.90571 0.32934 0.0
C483 C 0.15383 0.97654 0.56281 0.0
C484 C 0.13664 0.93663 0.45954 0.0
H485 H 0.12329 0.91854 0.32434 0.0
C486 C 0.123 0.92179 0.49118 0.0
C487 C 0.13694 0.93545 0.39875 0.0
C488 C 0.15112 0.95121 0.36297 0.0
C489 C 0.10929 0.90595 0.46367 0.0
C490 C 0.10947 0.90475 0.40278 0.0
C491 C 0.12333 0.91945 0.37105 0.0
C492 C 0.09438 0.88899 0.3716 0.0
C493 C 0.0943 0.89098 0.49996 0.0
C494 C 0.0909 0.87096 0.38046 0.0
C495 C 0.07495 0.85594 0.35806 0.0
C496 C 0.06227 0.85873 0.32602 0.0
C497 C 0.06648 0.87692 0.31419 0.0
C498 C 0.08237 0.89189 0.33681 0.0
H499 H 0.09408 0.89575 0.54457 0.0
H500 H 0.08054 0.88607 0.48012 0.0
H501 H 0.09667 0.87911 0.50285 0.0
H502 H 0.10019 0.86847 0.40644 0.0
H503 H 0.07229 0.84215 0.36745 0.0
H504 H 0.17712 0.03853 0.88225 0.0
H505 H 0.18117 0.06114 0.95463 0.0
H506 H 0.21713 0.04812 0.05177 0.0
H507 H 0.21368 0.02566 0.97771 0.0
H508 H 0.1739 0.05923 0.06707 0.0
H509 H 0.2494 0.10315 0.03062 0.0
H510 H 0.23491 0.08411 0.98393 0.0
H511 H 0.24166 0.07991 0.05336 0.0
C512 C 0.18583 0.04029 0.91905 0.0
C513 C 0.19523 0.03035 0.92366 0.0
C514 C 0.1881 0.05326 0.96061 0.0
C515 C 0.19971 0.0566 0.00813 0.0
C516 C 0.20844 0.04609 0.0147 0.0
H517 H 0.19557 0.13542 0.25118 0.0
H518 H 0.196 0.10792 0.21768 0.0
C519 C 0.20631 0.03313 0.9726 0.0
C520 C 0.20287 0.07158 0.04889 0.0
H521 H 0.23556 0.11451 0.09388 0.0
C522 C 0.18741 0.07124 0.07364 0.0
C523 C 0.22052 0.08728 0.05692 0.0
C524 C 0.23758 0.08881 0.02954 0.0
C525 C 0.18889 0.08651 0.10335 0.0
C526 C 0.2065 0.10236 0.11062 0.0
C527 C 0.2221 0.10234 0.08847 0.0
C528 C 0.20874 0.11972 0.13546 0.0
C529 C 0.1714 0.0859 0.12313 0.0
C530 C 0.2169 0.13591 0.10215 0.0
C531 C 0.21712 0.15178 0.12185 0.0
C532 C 0.20895 0.15168 0.17492 0.0
C533 C 0.20167 0.13578 0.20961 0.0
C534 C 0.20181 0.12003 0.19039 0.0
H535 H 0.15898 0.07462 0.10187 0.0
H536 H 0.1698 0.08344 0.17037 0.0
H537 H 0.17186 0.09913 0.11395 0.0
H538 H 0.22243 0.13604 0.05974 0.0
H539 H 0.22284 0.16382 0.09419 0.0
H540 H 0.87903 0.057 0.20739 0.0
H541 H 0.90491 0.08525 0.16982 0.0
H542 H 0.86724 0.10033 0.09418 0.0
H543 H 0.84113 0.07183 0.13066 0.0
H544 H 0.89125 0.1009 0.01668 0.0
H545 H 0.92984 0.13936 0.21048 0.0
H546 H 0.92522 0.11601 0.2113 0.0
H547 H 0.90635 0.12053 0.21397 0.0
C548 C 0.87618 0.06643 0.18362 0.0
C549 C 0.85794 0.06201 0.17164 0.0
C550 C 0.89105 0.08272 0.16264 0.0
C551 C 0.88804 0.09505 0.12987 0.0
C552 C 0.86988 0.09106 0.11973 0.0
H553 H 0.97572 0.194 0.9592 0.0
H554 H 0.95085 0.17443 0.0262 0.0
C555 C 0.85496 0.07472 0.14053 0.0
C556 C 0.90369 0.11074 0.10014 0.0
H557 H 0.94708 0.14731 0.12095 0.0
C558 C 0.90331 0.11123 0.03964 0.0
C559 C 0.91939 0.12431 0.13005 0.0
C560 C 0.92017 0.12516 0.19508 0.0
C561 C 0.91851 0.12432 0.00813 0.0
C562 C 0.93463 0.13709 0.03787 0.0
C563 C 0.93477 0.13728 0.09839 0.0
C564 C 0.95162 0.14963 0.00589 0.0
C565 C 0.91737 0.12414 0.94306 0.0
C566 C 0.96073 0.14225 0.97452 0.0
C567 C 0.97485 0.15331 0.93634 0.0
C568 C 0.98017 0.17199 0.92898 0.0
C569 C 0.97196 0.17968 0.96388 0.0
C570 C 0.95773 0.16853 0.00207 0.0
H571 H 0.90286 0.11656 0.92769 0.0
H572 H 0.92413 0.1384 0.92564 0.0
H573 H 0.92463 0.1172 0.92519 0.0
H574 H 0.9563 0.12771 0.97753 0.0
H575 H 0.981 0.14698 0.91066 0.0
H576 H 0.81762 0.78975 0.95813 0.0
H577 H 0.83791 0.78544 0.02465 0.0
H578 H 0.88357 0.83794 0.97268 0.0
H579 H 0.86355 0.84226 0.90583 0.0
H580 H 0.8895 0.80829 0.95757 0.0
H581 H 0.86407 0.80887 0.17895 0.0
H582 H 0.84698 0.79405 0.12744 0.0
H583 H 0.8586 0.81857 0.11754 0.0
C584 C 0.83186 0.80062 0.96213 0.0
C585 C 0.83902 0.81629 0.92637 0.0
C586 C 0.84343 0.79814 0.00021 0.0
C587 C 0.86223 0.81139 0.00357 0.0
C588 C 0.8691 0.82754 0.97062 0.0
H589 H 0.95372 0.82807 0.20947 0.0
H590 H 0.92644 0.82713 0.16862 0.0
C591 C 0.85763 0.82998 0.93243 0.0
C592 C 0.87529 0.80765 0.03575 0.0
H593 H 0.88801 0.80175 0.17061 0.0
C594 C 0.88913 0.80678 0.00415 0.0
C595 C 0.87474 0.80569 0.09643 0.0
C596 C 0.86041 0.80696 0.13237 0.0
C597 C 0.90271 0.80441 0.03157 0.0
C598 C 0.90221 0.80245 0.0923 0.0
C599 C 0.88821 0.80305 0.124 0.0
C600 C 0.91706 0.80135 0.12354 0.0
C601 C 0.91789 0.80475 0.99541 0.0
C602 C 0.92048 0.7868 0.11334 0.0
C603 C 0.93619 0.78734 0.13627 0.0
C604 C 0.9487 0.8024 0.17012 0.0
C605 C 0.94453 0.81634 0.18316 0.0
C606 C 0.92887 0.81581 0.16006 0.0
H607 H 0.9184 0.81024 0.95136 0.0
H608 H 0.93153 0.81332 0.01625 0.0
H609 H 0.91546 0.79052 0.99102 0.0
H610 H 0.91133 0.77535 0.08601 0.0
H611 H 0.93883 0.77626 0.12584 0.0
H612 H 0.8795 0.82873 0.71089 0.0
H613 H 0.90577 0.82759 0.67017 0.0
H614 H 0.86892 0.77543 0.58992 0.0
H615 H 0.84243 0.77653 0.62961 0.0
H616 H 0.91884 0.80204 0.67252 0.0
H617 H 0.89623 0.81005 0.45385 0.0
H618 H 0.88647 0.81338 0.51902 0.0
H619 H 0.87954 0.79048 0.49427 0.0
C620 C 0.87691 0.81687 0.68519 0.0
C621 C 0.85878 0.80288 0.67266 0.0
C622 C 0.89199 0.81622 0.66217 0.0
C623 C 0.88926 0.8016 0.62628 0.0
C624 C 0.87128 0.787 0.61677 0.0
H625 H 0.97623 0.7891 0.45821 0.0
H626 H 0.95191 0.78506 0.5256 0.0
C627 C 0.85616 0.78765 0.6396 0.0
C628 C 0.9051 0.8026 0.59462 0.0
H629 H 0.9231 0.80794 0.45923 0.0
C630 C 0.91977 0.80321 0.62586 0.0
C631 C 0.90633 0.80438 0.53382 0.0
C632 C 0.89141 0.8047 0.49813 0.0
C633 C 0.93574 0.80567 0.59774 0.0
C634 C 0.93691 0.80743 0.53699 0.0
C635 C 0.92213 0.80656 0.50586 0.0
C636 C 0.95356 0.811 0.50421 0.0
C637 C 0.95144 0.80694 0.63316 0.0
C638 C 0.96276 0.82705 0.47076 0.0
C639 C 0.97649 0.82933 0.43207 0.0
C640 C 0.98133 0.81559 0.42602 0.0
C641 C 0.97292 0.80001 0.4622 0.0
C642 C 0.95903 0.79768 0.50079 0.0
H643 H 0.94988 0.80898 0.67977 0.0
H644 H 0.95186 0.79397 0.62833 0.0
H645 H 0.96482 0.81847 0.61778 0.0
H646 H 0.95875 0.8375 0.47286 0.0
H647 H 0.98278 0.84154 0.40515 0.0
H648 H 0.23665 0.0727 0.62802 0.0
H649 H 0.23886 0.10112 0.59121 0.0
H650 H 0.18595 0.08571 0.66618 0.0
H651 H 0.18375 0.05758 0.70404 0.0
H652 H 0.21553 0.10187 0.51352 0.0
H653 H 0.21488 0.13967 0.70829 0.0
H654 H 0.21962 0.12089 0.71133 0.0
H655 H 0.19621 0.1163 0.70857 0.0
C656 C 0.22563 0.07551 0.63763 0.0
C657 C 0.20997 0.06275 0.66874 0.0
C658 C 0.22694 0.09178 0.61662 0.0
C659 C 0.2127 0.09567 0.6266 0.0
C660 C 0.19734 0.08326 0.65916 0.0
H661 H 0.1713 0.14759 0.40882 0.0
H662 H 0.17695 0.12825 0.47473 0.0
C663 C 0.19603 0.06704 0.6803 0.0
C664 C 0.21271 0.11142 0.59724 0.0
H665 H 0.2055 0.1477 0.61904 0.0
C666 C 0.21367 0.11208 0.53674 0.0
C667 C 0.21042 0.12483 0.6275 0.0
C668 C 0.21042 0.12552 0.69255 0.0
C669 C 0.21147 0.12518 0.5056 0.0
C670 C 0.20794 0.13777 0.53568 0.0
C671 C 0.20793 0.13781 0.5962 0.0
C672 C 0.20334 0.15028 0.5041 0.0
C673 C 0.21253 0.12519 0.44053 0.0
C674 C 0.21591 0.16925 0.5012 0.0
C675 C 0.2127 0.18044 0.46358 0.0
C676 C 0.19688 0.17273 0.42834 0.0
C677 C 0.18372 0.15394 0.43481 0.0
C678 C 0.18691 0.14285 0.4724 0.0
H679 H 0.21965 0.11782 0.42497 0.0
H680 H 0.19836 0.11815 0.42246 0.0
H681 H 0.2199 0.1395 0.42348 0.0
H682 H 0.22864 0.1752 0.52562 0.0
H683 H 0.22313 0.19485 0.45956 0.0
H684 H 0.81657 0.02382 0.47914 0.0
H685 H 0.83553 0.04606 0.55374 0.0
H686 H 0.88455 0.05955 0.45609 0.0
H687 H 0.86604 0.03715 0.38314 0.0
H688 H 0.89001 0.05743 0.5682 0.0
H689 H 0.85795 0.10104 0.53444 0.0
H690 H 0.84259 0.07773 0.55679 0.0
H691 H 0.85346 0.08215 0.48717 0.0
C692 C 0.83141 0.03136 0.47401 0.0
C693 C 0.83973 0.02876 0.42478 0.0
C694 C 0.84221 0.04418 0.51644 0.0
C695 C 0.86144 0.05476 0.5099 0.0
C696 C 0.86975 0.05161 0.46206 0.0
H697 H 0.94501 0.16196 0.59583 0.0
H698 H 0.91768 0.13407 0.56204 0.0
C699 C 0.85907 0.03875 0.42019 0.0
C700 C 0.87321 0.06965 0.55097 0.0
H701 H 0.88324 0.1124 0.59726 0.0
C702 C 0.88842 0.06936 0.57526 0.0
C703 C 0.87115 0.08526 0.5597 0.0
C704 C 0.85551 0.08674 0.53289 0.0
C705 C 0.90219 0.08462 0.60507 0.0
C706 C 0.90033 0.10039 0.61292 0.0
C707 C 0.8846 0.10029 0.59137 0.0
C708 C 0.91546 0.11779 0.63748 0.0
C709 C 0.91916 0.08409 0.62427 0.0
C710 C 0.92294 0.11817 0.69205 0.0
C711 C 0.93882 0.134 0.71089 0.0
C712 C 0.94719 0.1499 0.67617 0.0
C713 C 0.93889 0.14992 0.6235 0.0
C714 C 0.92325 0.13398 0.60418 0.0
H715 H 0.92032 0.07286 0.60275 0.0
H716 H 0.93188 0.09736 0.61494 0.0
H717 H 0.91842 0.08161 0.67149 0.0
H718 H 0.91683 0.10605 0.71935 0.0
H719 H 0.94475 0.1337 0.75216 0.0
H720 H 0.79577 0.98542 0.01691 0.0
H721 H 0.79211 0.9631 0.94203 0.0
H722 H 0.82931 0.95079 0.03495 0.0
H723 H 0.8336 0.97329 0.10789 0.0
H724 H 0.83569 0.95252 0.92264 0.0
H725 H 0.76047 0.90816 0.96355 0.0
H726 H 0.76794 0.93131 0.94038 0.0
H727 H 0.7751 0.92736 0.00948 0.0
C728 C 0.80338 0.97815 0.02085 0.0
C729 C 0.81487 0.98109 0.06879 0.0
C730 C 0.80112 0.96526 0.9783 0.0
C731 C 0.81013 0.95498 0.98351 0.0
C732 C 0.82217 0.9585 0.02999 0.0
H733 H 0.78731 0.84775 0.90343 0.0
H734 H 0.7875 0.87564 0.93554 0.0
C735 C 0.82458 0.97142 0.07189 0.0
C736 C 0.80682 0.93998 0.94264 0.0
H737 H 0.7742 0.89668 0.90047 0.0
C738 C 0.82221 0.94039 0.91706 0.0
C739 C 0.78921 0.92413 0.93582 0.0
C740 C 0.77222 0.92254 0.96401 0.0
C741 C 0.82075 0.925 0.88818 0.0
C742 C 0.80319 0.90897 0.88234 0.0
C743 C 0.78762 0.90897 0.90489 0.0
C744 C 0.80103 0.89149 0.85886 0.0
C745 C 0.83825 0.9257 0.86802 0.0
C746 C 0.80793 0.89085 0.8042 0.0
C747 C 0.80826 0.87506 0.78647 0.0
C748 C 0.80112 0.85944 0.8223 0.0
C749 C 0.79292 0.8596 0.87499 0.0
C750 C 0.79301 0.87553 0.8933 0.0
H751 H 0.8507 0.93719 0.88846 0.0
H752 H 0.83801 0.91262 0.8779 0.0
H753 H 0.83962 0.92789 0.82064 0.0
H754 H 0.8136 0.90274 0.776 0.0
H755 H 0.81438 0.87518 0.74515 0.0
H756 H 0.13116 0.95498 0.79146 0.0
H757 H 0.10499 0.9274 0.83178 0.0
H758 H 0.14191 0.91079 0.90374 0.0
H759 H 0.16832 0.93855 0.86446 0.0
H760 H 0.09148 0.88884 0.82449 0.0
H761 H 0.11576 0.91682 0.04511 0.0
H762 H 0.12527 0.9306 0.98102 0.0
H763 H 0.13197 0.91409 0.00152 0.0
C764 C 0.13378 0.94539 0.81527 0.0
C765 C 0.15192 0.9492 0.82557 0.0
C766 C 0.11875 0.92958 0.83806 0.0
C767 C 0.12155 0.91724 0.8715 0.0
C768 C 0.13951 0.92033 0.87884 0.0
H769 H 0.03419 0.81742 0.03854 0.0
H770 H 0.05858 0.83752 0.97096 0.0
C771 C 0.15458 0.93621 0.85628 0.0
C772 C 0.10581 0.90216 0.90282 0.0
H773 H 0.08844 0.88827 0.03838 0.0
C774 C 0.09083 0.88858 0.87126 0.0
C775 C 0.10495 0.90204 0.96383 0.0
C776 C 0.12025 0.91672 3e-05 0.0
C777 C 0.07491 0.87496 0.89927 0.0
C778 C 0.07408 0.87497 0.96018 0.0
C779 C 0.08917 0.88833 0.99161 0.0
C780 C 0.05737 0.86201 0.99287 0.0
C781 C 0.05886 0.86108 0.86377 0.0
C782 C 0.04838 0.86905 0.02648 0.0
C783 C 0.03458 0.8577 0.06513 0.0
C784 C 0.02949 0.83904 0.07106 0.0
C785 C 0.03771 0.83171 0.03469 0.0
C786 C 0.05164 0.84316 0.99605 0.0
H787 H 0.06055 0.86472 0.81718 0.0
H788 H 0.05763 0.84733 0.86858 0.0
H789 H 0.0458 0.85997 0.87933 0.0
H790 H 0.0526 0.88356 0.02455 0.0
H791 H 0.02845 0.86376 0.09214 0.0
H792 H 0.05647 0.18198 0.78619 0.0
H793 H 0.08374 0.18294 0.82739 0.0
H794 H 0.09755 0.23358 0.91544 0.0
H795 H 0.07009 0.23265 0.87525 0.0
H796 H 0.12221 0.20905 0.82866 0.0
H797 H 0.08998 0.1971 0.04609 0.0
H798 H 0.07727 0.19451 0.98059 0.0
H799 H 0.09266 0.2171 0.00878 0.0
C800 C 0.06538 0.19347 0.81378 0.0
C801 C 0.06086 0.20707 0.82823 0.0
C802 C 0.08102 0.19402 0.83707 0.0
C803 C 0.09246 0.20815 0.87518 0.0
C804 C 0.08869 0.22238 0.88683 0.0
H805 H 0.19228 0.22194 0.04235 0.0
H806 H 0.17159 0.22556 0.97581 0.0
C807 C 0.07301 0.22184 0.8637 0.0
C808 C 0.10725 0.20699 0.90653 0.0
H809 H 0.11945 0.20026 0.04094 0.0
C810 C 0.12172 0.20723 0.87511 0.0
C811 C 0.10636 0.20434 0.967 0.0
C812 C 0.09068 0.20308 0.00271 0.0
C813 C 0.13533 0.20483 0.90274 0.0
C814 C 0.13445 0.20229 0.96322 0.0
C815 C 0.12007 0.20223 0.99453 0.0
C816 C 0.14783 0.19904 0.99551 0.0
C817 C 0.15023 0.20453 0.86701 0.0
C818 C 0.14142 0.18281 0.0278 0.0
C819 C 0.15311 0.18075 0.06608 0.0
C820 C 0.1715 0.19492 0.0729 0.0
C821 C 0.17823 0.21071 0.03783 0.0
C822 C 0.16643 0.2128 0.99968 0.0
H823 H 0.14671 0.20266 0.82033 0.0
H824 H 0.16327 0.2178 0.8725 0.0
H825 H 0.15268 0.19329 0.88146 0.0
H826 H 0.12711 0.17201 0.02512 0.0
H827 H 0.14752 0.16836 0.0921 0.0
H828 H 0.79795 0.51598 0.62676 0.0
H829 H 0.77219 0.51837 0.66535 0.0
H830 H 0.81003 0.57161 0.73755 0.0
H831 H 0.83605 0.56921 0.70009 0.0
H832 H 0.78647 0.54888 0.81668 0.0
H833 H 0.74678 0.5469 0.62352 0.0
H834 H 0.75144 0.5282 0.62394 0.0
H835 H 0.77027 0.55157 0.6193 0.0
C836 C 0.80086 0.52837 0.65 0.0
C837 C 0.81914 0.54235 0.66066 0.0
C838 C 0.78605 0.52978 0.67158 0.0
C839 C 0.78914 0.54529 0.70362 0.0
C840 C 0.80732 0.55957 0.71259 0.0
H841 H 0.70083 0.55641 0.87197 0.0
H842 H 0.7258 0.56166 0.80534 0.0
C843 C 0.82218 0.55815 0.69122 0.0
C844 C 0.77357 0.54546 0.73359 0.0
H845 H 0.72995 0.53814 0.71388 0.0
C846 C 0.77426 0.54687 0.79401 0.0
C847 C 0.75767 0.54298 0.70408 0.0
C848 C 0.75656 0.54252 0.63908 0.0
C849 C 0.75918 0.54493 0.82586 0.0
C850 C 0.74285 0.54119 0.79662 0.0
C851 C 0.74242 0.54073 0.73611 0.0
C852 C 0.72594 0.53676 0.82911 0.0
C853 C 0.76069 0.54651 0.8908 0.0
C854 C 0.7173 0.52065 0.86237 0.0
C855 C 0.70312 0.51761 0.90028 0.0
C856 C 0.69724 0.53061 0.90549 0.0
C857 C 0.70501 0.54611 0.8689 0.0
C858 C 0.71931 0.54917 0.83096 0.0
H859 H 0.77529 0.55387 0.9053 0.0
H860 H 0.75374 0.55388 0.90778 0.0
H861 H 0.75384 0.53248 0.90994 0.0
H862 H 0.72209 0.51079 0.86085 0.0
H863 H 0.69731 0.50543 0.92732 0.0
H864 H 0.50712 0.19713 0.92933 0.0
H865 H 0.50155 0.21661 0.86381 0.0
H866 H 0.45133 0.16927 0.80532 0.0
H867 H 0.45678 0.14948 0.87085 0.0
H868 H 0.47413 0.19705 0.71567 0.0
H869 H 0.45829 0.22607 0.9083 0.0
H870 H 0.47994 0.22652 0.91228 0.0
H871 H 0.4588 0.20477 0.91036 0.0
C872 C 0.49505 0.19074 0.90183 0.0
C873 C 0.48227 0.17177 0.90591 0.0
C874 C 0.49189 0.20192 0.86449 0.0
C875 C 0.47587 0.1944 0.83072 0.0
C876 C 0.46373 0.1753 0.83139 0.0
H877 H 0.44184 0.27119 0.70444 0.0
H878 H 0.43988 0.24296 0.74189 0.0
C879 C 0.46691 0.16403 0.86873 0.0
C880 C 0.47123 0.20682 0.79877 0.0
H881 H 0.46295 0.24231 0.81994 0.0
C882 C 0.47147 0.20682 0.73824 0.0
C883 C 0.46734 0.21923 0.82845 0.0
C884 C 0.46588 0.2191 0.89343 0.0
C885 C 0.46887 0.21967 0.7066 0.0
C886 C 0.46627 0.23295 0.73651 0.0
C887 C 0.46507 0.23224 0.79697 0.0
C888 C 0.46616 0.24859 0.70687 0.0
C889 C 0.46907 0.21898 0.64156 0.0
C890 C 0.48149 0.26105 0.6743 0.0
C891 C 0.48264 0.27716 0.65275 0.0
C892 C 0.46857 0.28129 0.66394 0.0
C893 C 0.45295 0.2685 0.69515 0.0
C894 C 0.45179 0.25233 0.7165 0.0
H895 H 0.46474 0.20484 0.62596 0.0
H896 H 0.45987 0.22353 0.62229 0.0
H897 H 0.48332 0.22825 0.62592 0.0
H898 H 0.49297 0.25874 0.66757 0.0
H899 H 0.49489 0.28666 0.62898 0.0
H900 H 0.81511 0.31492 0.91724 0.0
H901 H 0.79569 0.29026 0.85047 0.0
H902 H 0.84183 0.28348 0.80475 0.0
H903 H 0.86156 0.3083 0.87176 0.0
H904 H 0.81467 0.28026 0.70849 0.0
H905 H 0.78382 0.23646 0.9026 0.0
H906 H 0.7851 0.25853 0.90482 0.0
H907 H 0.80595 0.25739 0.90398 0.0
C908 C 0.82129 0.30849 0.8922 0.0
C909 C 0.83984 0.31342 0.90042 0.0
C910 C 0.81015 0.2944 0.85405 0.0
C911 C 0.8173 0.28493 0.82352 0.0
C912 C 0.83611 0.29065 0.82818 0.0
H913 H 0.73867 0.17455 0.69967 0.0
H914 H 0.76724 0.2006 0.73605 0.0
C915 C 0.84734 0.30486 0.86636 0.0
C916 C 0.80458 0.26795 0.7918 0.0
H917 H 0.76809 0.2248 0.81383 0.0
C918 C 0.80461 0.26802 0.73128 0.0
C919 C 0.79173 0.25194 0.82183 0.0
C920 C 0.79167 0.25091 0.88691 0.0
C921 C 0.79143 0.25268 0.69993 0.0
C922 C 0.77783 0.23709 0.73014 0.0
C923 C 0.77845 0.23677 0.79064 0.0
C924 C 0.76199 0.22146 0.70074 0.0
C925 C 0.79211 0.25338 0.63488 0.0
C926 C 0.74965 0.22453 0.66826 0.0
C927 C 0.73331 0.20969 0.64736 0.0
C928 C 0.72887 0.19142 0.65906 0.0
C929 C 0.74158 0.1884 0.68997 0.0
C930 C 0.75796 0.20328 0.71073 0.0
H931 H 0.80628 0.26299 0.61909 0.0
H932 H 0.78737 0.23952 0.6161 0.0
H933 H 0.78296 0.25846 0.61891 0.0
H934 H 0.75222 0.2384 0.66119 0.0
H935 H 0.72388 0.21258 0.62376 0.0
H936 H 0.84807 0.46371 0.53761 0.0
H937 H 0.8492 0.43741 0.49767 0.0
H938 H 0.90203 0.47404 0.42067 0.0
H939 H 0.90089 0.50059 0.45952 0.0
H940 H 0.87791 0.45053 0.34332 0.0
H941 H 0.87724 0.4111 0.5357 0.0
H942 H 0.85896 0.41638 0.5374 0.0
H943 H 0.88257 0.4348 0.53981 0.0
C944 C 0.86011 0.46624 0.51298 0.0
C945 C 0.87433 0.48434 0.50145 0.0
C946 C 0.8608 0.45112 0.49061 0.0
C947 C 0.87581 0.45372 0.45683 0.0
C948 C 0.89036 0.47171 0.44694 0.0
H949 H 0.88606 0.36493 0.29206 0.0
H950 H 0.89065 0.38984 0.35764 0.0
C951 C 0.88966 0.48688 0.46915 0.0
C952 C 0.87524 0.43786 0.4264 0.0
H953 H 0.86787 0.39422 0.44588 0.0
C954 C 0.87598 0.43834 0.36587 0.0
C955 C 0.87287 0.42199 0.45579 0.0
C956 C 0.87306 0.42108 0.52079 0.0
C957 C 0.87368 0.42314 0.33387 0.0
C958 C 0.87018 0.40688 0.36311 0.0
C959 C 0.87024 0.40662 0.42365 0.0
C960 C 0.866 0.39 0.33078 0.0
C961 C 0.87483 0.42455 0.26885 0.0
C962 C 0.85019 0.38133 0.2961 0.0
C963 C 0.84753 0.36716 0.25864 0.0
C964 C 0.86059 0.36131 0.25539 0.0
C965 C 0.87573 0.3691 0.29345 0.0
C966 C 0.87842 0.38336 0.33086 0.0
H967 H 0.88219 0.43913 0.25415 0.0
H968 H 0.88201 0.4175 0.25109 0.0
H969 H 0.86069 0.41778 0.25063 0.0
H970 H 0.84029 0.38607 0.29625 0.0
H971 H 0.83561 0.36135 0.23046 0.0
H972 H 0.50847 0.40367 0.45835 0.0
H973 H 0.53482 0.43136 0.4185 0.0
H974 H 0.57201 0.4166 0.49931 0.0
H975 H 0.5459 0.38912 0.54018 0.0
H976 H 0.58462 0.45492 0.50253 0.0
H977 H 0.56274 0.42503 0.28268 0.0
H978 H 0.54587 0.42766 0.32302 0.0
H979 H 0.55285 0.41169 0.34732 0.0
C980 C 0.52224 0.40641 0.46833 0.0
C981 C 0.52501 0.39396 0.50172 0.0
C982 C 0.53729 0.42224 0.44541 0.0
C983 C 0.55532 0.42582 0.45515 0.0
C984 C 0.55818 0.41403 0.49113 0.0
H985 H 0.64954 0.48015 0.23771 0.0
H986 H 0.6252 0.45998 0.30428 0.0
C987 C 0.54319 0.39826 0.51423 0.0
C988 C 0.57115 0.44085 0.42404 0.0
H989 H 0.58957 0.454 0.28931 0.0
C990 C 0.5857 0.45485 0.45588 0.0
C991 C 0.57257 0.44052 0.36325 0.0
C992 C 0.55778 0.42536 0.32692 0.0
C993 C 0.60173 0.46846 0.42841 0.0
C994 C 0.60311 0.46806 0.36769 0.0
C995 C 0.58844 0.45424 0.33593 0.0
C996 C 0.61989 0.48122 0.33562 0.0
C997 C 0.6173 0.48279 0.46447 0.0
C998 C 0.62539 0.50001 0.33262 0.0
C999 C 0.63945 0.51167 0.29471 0.0
C1000 C 0.64802 0.50461 0.25879 0.0
C1001 C 0.64314 0.486 0.26446 0.0
C1002 C 0.62923 0.47444 0.30248 0.0
H1003 H 0.61556 0.47906 0.511 0.0
H1004 H 0.63074 0.48466 0.44955 0.0
H1005 H 0.61776 0.49619 0.45977 0.0
H1006 H 0.61817 0.50545 0.35721 0.0
H1007 H 0.64278 0.5259 0.29098 0.0
H1008 H 0.61329 0.15065 0.58237 0.0
H1009 H 0.58477 0.14952 0.55218 0.0
H1010 H 0.58347 0.11961 0.39882 0.0
H1011 H 0.61139 0.11987 0.43037 0.0
H1012 H 0.58031 0.16536 0.46583 0.0
H1013 H 0.5306 0.09152 0.43804 0.0
H1014 H 0.55223 0.09948 0.47512 0.0
H1015 H 0.55096 0.09721 0.3975 0.0
C1016 C 0.60668 0.1435 0.5428 0.0
C1017 C 0.61455 0.13535 0.50869 0.0
C1018 C 0.59037 0.14285 0.52561 0.0
C1019 C 0.58173 0.13424 0.47358 0.0
C1020 C 0.58943 0.12578 0.44008 0.0
H1021 H 0.53339 0.16784 0.22355 0.0
H1022 H 0.55175 0.16438 0.29793 0.0
C1023 C 0.60552 0.12609 0.45788 0.0
C1024 C 0.56606 0.13599 0.45089 0.0
H1025 H 0.52542 0.11246 0.37751 0.0
C1026 C 0.56811 0.15368 0.44776 0.0
C1027 C 0.54983 0.12079 0.42851 0.0
C1028 C 0.54571 0.10118 0.43565 0.0
C1029 C 0.55515 0.15675 0.41915 0.0
C1030 C 0.54005 0.14187 0.39103 0.0
C1031 C 0.53719 0.12397 0.398 0.0
C1032 C 0.52844 0.14487 0.34898 0.0
C1033 C 0.55803 0.17603 0.41838 0.0
C1034 C 0.5091 0.13478 0.35204 0.0
C1035 C 0.49841 0.13652 0.30864 0.0
C1036 C 0.50691 0.14833 0.2613 0.0
C1037 C 0.52628 0.15871 0.25937 0.0
C1038 C 0.53688 0.15687 0.30233 0.0
H1039 H 0.56499 0.18358 0.45849 0.0
H1040 H 0.56709 0.18375 0.38155 0.0
H1041 H 0.54479 0.17595 0.4139 0.0
H1042 H 0.5023 0.12531 0.38741 0.0
H1043 H 0.48353 0.12824 0.31137 0.0
H1044 H 0.51477 0.11943 0.92908 0.0
H1045 H 0.54249 0.11925 0.89774 0.0
H1046 H 0.57077 0.14868 0.05212 0.0
H1047 H 0.54331 0.14971 0.08214 0.0
H1048 H 0.59121 0.16483 0.96623 0.0
H1049 H 0.56728 0.09109 0.93663 0.0
H1050 H 0.55267 0.09688 0.89617 0.0
H1051 H 0.55353 0.09893 0.97384 0.0
C1052 C 0.52678 0.12555 0.95683 0.0
C1053 C 0.52691 0.13465 0.00788 0.0
C1054 C 0.54261 0.1253 0.93915 0.0
C1055 C 0.5587 0.13366 0.97301 0.0
C1056 C 0.55855 0.14209 0.02527 0.0
H1057 H 0.65143 0.1284 0.81126 0.0
H1058 H 0.62957 0.12515 0.88723 0.0
C1059 C 0.54286 0.14269 0.04236 0.0
C1060 C 0.57618 0.1355 0.95053 0.0
H1061 H 0.59356 0.11223 0.87699 0.0
C1062 C 0.5918 0.15321 0.94796 0.0
C1063 C 0.5773 0.12037 0.9279 0.0
C1064 C 0.56183 0.10074 0.93446 0.0
C1065 C 0.60792 0.15639 0.91966 0.0
C1066 C 0.60824 0.1416 0.89127 0.0
C1067 C 0.59321 0.12366 0.8977 0.0
C1068 C 0.62294 0.14476 0.84934 0.0
C1069 C 0.62429 0.17569 0.91946 0.0
C1070 C 0.62652 0.15687 0.80304 0.0
C1071 C 0.63905 0.15889 0.76017 0.0
C1072 C 0.64812 0.14858 0.76181 0.0
C1073 C 0.64479 0.13664 0.80879 0.0
C1074 C 0.63225 0.13472 0.85214 0.0
H1075 H 0.62478 0.18311 0.95977 0.0
H1076 H 0.63748 0.17566 0.91504 0.0
H1077 H 0.623 0.1835 0.88283 0.0
H1078 H 0.61912 0.16434 0.79882 0.0
H1079 H 0.6411 0.16813 0.72463 0.0
H1080 H 0.90212 0.40428 0.9626 0.0
H1081 H 0.90418 0.43254 0.92502 0.0
H1082 H 0.85106 0.41688 0.99879 0.0
H1083 H 0.84904 0.38893 0.03759 0.0
H1084 H 0.88129 0.43305 0.84654 0.0
H1085 H 0.87911 0.47083 0.03915 0.0
H1086 H 0.88394 0.45213 0.04367 0.0
H1087 H 0.86051 0.44744 0.03926 0.0
C1088 C 0.89103 0.40701 0.9718 0.0
C1089 C 0.87536 0.39423 0.00285 0.0
C1090 C 0.89225 0.42319 0.95037 0.0
C1091 C 0.87789 0.42696 0.95969 0.0
C1092 C 0.86253 0.41454 0.99227 0.0
H1093 H 0.83778 0.47841 0.73332 0.0
H1094 H 0.84306 0.45888 0.79953 0.0
C1095 C 0.86133 0.39843 0.01396 0.0
C1096 C 0.8778 0.44254 0.92952 0.0
H1097 H 0.86997 0.47853 0.9488 0.0
C1098 C 0.87914 0.44317 0.86909 0.0
C1099 C 0.87515 0.45588 0.95887 0.0
C1100 C 0.8748 0.45667 0.02387 0.0
C1101 C 0.87699 0.45615 0.83707 0.0
C1102 C 0.87306 0.46864 0.86615 0.0
C1103 C 0.87267 0.46871 0.92667 0.0
C1104 C 0.86859 0.48108 0.83357 0.0
C1105 C 0.87864 0.45621 0.77215 0.0
C1106 C 0.88073 0.50018 0.83314 0.0
C1107 C 0.87771 0.51147 0.79542 0.0
C1108 C 0.8625 0.50376 0.75761 0.0
C1109 C 0.84973 0.48478 0.76132 0.0
C1110 C 0.85273 0.47357 0.79905 0.0
H1111 H 0.88628 0.44923 0.7579 0.0
H1112 H 0.86464 0.44875 0.75292 0.0
H1113 H 0.88577 0.47051 0.75502 0.0
H1114 H 0.89301 0.5062 0.85976 0.0
H1115 H 0.88783 0.52603 0.79357 0.0
H1116 H 0.60492 0.50197 0.96688 0.0
H1117 H 0.57672 0.47565 0.92961 0.0
H1118 H 0.59393 0.43861 0.99682 0.0
H1119 H 0.62186 0.46468 0.03527 0.0
H1120 H 0.57622 0.45284 0.84844 0.0
H1121 H 0.54021 0.41169 0.04137 0.0
H1122 H 0.55862 0.43536 0.04605 0.0
H1123 H 0.56376 0.41699 0.039 0.0
C1124 C 0.60256 0.48821 0.97468 0.0
C1125 C 0.61575 0.48549 0.00383 0.0
C1126 C 0.58641 0.47317 0.95344 0.0
C1127 C 0.58308 0.45513 0.96107 0.0
C1128 C 0.59594 0.45234 0.99167 0.0
H1129 H 0.53156 0.36408 0.73384 0.0
H1130 H 0.55102 0.38878 0.80041 0.0
C1131 C 0.61203 0.46734 0.01317 0.0
C1132 C 0.56744 0.43946 0.93116 0.0
H1133 H 0.532 0.39534 0.95018 0.0
C1134 C 0.56637 0.44041 0.87091 0.0
C1135 C 0.55447 0.42326 0.96043 0.0
C1136 C 0.55419 0.42182 0.02536 0.0
C1137 C 0.5533 0.42533 0.83891 0.0
C1138 C 0.54117 0.40875 0.86779 0.0
C1139 C 0.54154 0.40802 0.92821 0.0
C1140 C 0.52875 0.3919 0.83492 0.0
C1141 C 0.55281 0.42712 0.77417 0.0
C1142 C 0.50964 0.38491 0.83449 0.0
C1143 C 0.49838 0.37067 0.79646 0.0
C1144 C 0.50615 0.3633 0.75837 0.0
C1145 C 0.52515 0.36957 0.76203 0.0
C1146 C 0.53631 0.3837 0.80001 0.0
H1147 H 0.55971 0.44178 0.76038 0.0
H1148 H 0.56012 0.42062 0.75358 0.0
H1149 H 0.5384 0.42 0.75804 0.0
H1150 H 0.50359 0.39107 0.8614 0.0
H1151 H 0.48382 0.36618 0.79469 0.0
H1152 H 0.44178 0.17384 0.1969 0.0
H1153 H 0.43947 0.19987 0.23464 0.0
H1154 H 0.49302 0.23763 0.16419 0.0
H1155 H 0.49531 0.21186 0.12524 0.0
H1156 H 0.46198 0.22277 0.31478 0.0
H1157 H 0.46525 0.26386 0.12393 0.0
H1158 H 0.46037 0.24033 0.11832 0.0
H1159 H 0.4838 0.25899 0.12411 0.0
C1160 C 0.45292 0.1877 0.1884 0.0
C1161 C 0.4688 0.19072 0.15836 0.0
C1162 C 0.45155 0.20256 0.20993 0.0
C1163 C 0.46597 0.22072 0.20168 0.0
C1164 C 0.48151 0.2238 0.16989 0.0
H1165 H 0.50544 0.311 0.43265 0.0
H1166 H 0.50019 0.28637 0.3657 0.0
C1167 C 0.48287 0.20898 0.1481 0.0
C1168 C 0.46593 0.23623 0.23245 0.0
H1169 H 0.47405 0.28021 0.21522 0.0
C1170 C 0.4643 0.23519 0.29281 0.0
C1171 C 0.46878 0.25239 0.20385 0.0
C1172 C 0.46945 0.2539 0.13892 0.0
C1173 C 0.46636 0.25016 0.32552 0.0
C1174 C 0.47051 0.26675 0.29723 0.0
C1175 C 0.47118 0.26755 0.23675 0.0
C1176 C 0.47496 0.28352 0.33062 0.0
C1177 C 0.46439 0.24821 0.39031 0.0
C1178 C 0.46299 0.29068 0.33078 0.0
C1179 C 0.466 0.3049 0.36892 0.0
C1180 C 0.48103 0.31209 0.40742 0.0
C1181 C 0.49363 0.30565 0.40412 0.0
C1182 C 0.49064 0.29155 0.36597 0.0
H1183 H 0.45656 0.23351 0.40371 0.0
H1184 H 0.4783 0.2545 0.41017 0.0
H1185 H 0.45731 0.25541 0.40761 0.0
H1186 H 0.45086 0.28468 0.30351 0.0
H1187 H 0.45602 0.30952 0.37041 0.0
H1188 H 0.8007 0.27818 0.07752 0.0
H1189 H 0.7729 0.25042 0.11034 0.0
H1190 H 0.80098 0.25057 0.2667 0.0
H1191 H 0.82901 0.27775 0.23293 0.0
H1192 H 0.77884 0.21624 0.23092 0.0
H1193 H 0.74028 0.25434 0.22842 0.0
H1194 H 0.74881 0.2524 0.1593 0.0
H1195 H 0.76475 0.26559 0.21577 0.0
C1196 C 0.80099 0.27214 0.11858 0.0
C1197 C 0.81695 0.28027 0.15306 0.0
C1198 C 0.78506 0.25634 0.13742 0.0
C1199 C 0.78467 0.24872 0.19175 0.0
C1200 C 0.8009 0.25626 0.22476 0.0
H1201 H 0.70449 0.19983 0.44776 0.0
H1202 H 0.72685 0.21825 0.37456 0.0
C1203 C 0.81693 0.27182 0.20544 0.0
C1204 C 0.76721 0.23372 0.21644 0.0
H1205 H 0.72456 0.224 0.2627 0.0
C1206 C 0.76688 0.21782 0.23739 0.0
C1207 C 0.75163 0.23586 0.22505 0.0
C1208 C 0.75136 0.25301 0.20646 0.0
C1209 C 0.75182 0.20446 0.26921 0.0
C1210 C 0.73642 0.20681 0.27875 0.0
C1211 C 0.73634 0.2222 0.25504 0.0
C1212 C 0.72155 0.19512 0.32001 0.0
C1213 C 0.75307 0.18861 0.29534 0.0
C1214 C 0.7107 0.17593 0.31316 0.0
C1215 C 0.6979 0.16519 0.35571 0.0
C1216 C 0.69559 0.17352 0.40539 0.0
C1217 C 0.70586 0.19284 0.41035 0.0
C1218 C 0.71869 0.20347 0.36833 0.0
H1219 H 0.76729 0.19082 0.29324 0.0
H1220 H 0.74861 0.18654 0.34118 0.0
H1221 H 0.74385 0.17578 0.27134 0.0
H1222 H 0.71235 0.16923 0.2755 0.0
H1223 H 0.69015 0.15036 0.3503 0.0
H1224 H 0.86083 0.55548 0.3716 0.0
H1225 H 0.84134 0.56106 0.30505 0.0
H1226 H 0.79372 0.51071 0.36151 0.0
H1227 H 0.81291 0.50504 0.42803 0.0
H1228 H 0.81393 0.53834 0.21413 0.0
H1229 H 0.78401 0.55384 0.40515 0.0
H1230 H 0.80531 0.55335 0.40829 0.0
H1231 H 0.78356 0.5322 0.40941 0.0
C1232 C 0.84628 0.54537 0.36882 0.0
C1233 C 0.83837 0.52993 0.40568 0.0
C1234 C 0.83518 0.54861 0.33091 0.0
C1235 C 0.81609 0.53646 0.32935 0.0
C1236 C 0.80841 0.52039 0.36287 0.0
H1237 H 0.72425 0.51701 0.12486 0.0
H1238 H 0.7523 0.51921 0.16354 0.0
C1239 C 0.81942 0.51717 0.40079 0.0
C1240 C 0.80379 0.54112 0.29673 0.0
H1241 H 0.76805 0.54912 0.31615 0.0
C1242 C 0.80403 0.54093 0.23621 0.0
C1243 C 0.7912 0.5449 0.32577 0.0
C1244 C 0.79106 0.54628 0.39074 0.0
C1245 C 0.79124 0.54345 0.20393 0.0
C1246 C 0.77779 0.54594 0.2332 0.0
C1247 C 0.77827 0.54709 0.29366 0.0
C1248 C 0.76221 0.54597 0.20289 0.0
C1249 C 0.79217 0.54329 0.13894 0.0
C1250 C 0.75833 0.56025 0.21234 0.0
C1251 C 0.7421 0.55893 0.19093 0.0
C1252 C 0.72938 0.54324 0.15984 0.0
C1253 C 0.7337 0.52931 0.14855 0.0
C1254 C 0.74987 0.53061 0.17017 0.0
H1255 H 0.80638 0.54769 0.12389 0.0
H1256 H 0.783 0.52905 0.12312 0.0
H1257 H 0.78764 0.55246 0.11932 0.0
H1258 H 0.76761 0.57218 0.23781 0.0
H1259 H 0.73928 0.56996 0.20028 0.0
H1260 H 0.36292 0.83739 0.25797 0.0
H1261 H 0.38771 0.8429 0.1913 0.0
H1262 H 0.3919 0.89423 0.1388 0.0
H1263 H 0.36694 0.88883 0.20553 0.0
H1264 H 0.39625 0.87122 0.04598 0.0
H1265 H 0.4408 0.88563 0.23881 0.0
H1266 H 0.41931 0.86424 0.24184 0.0
H1267 H 0.41926 0.88567 0.24105 0.0
C1268 C 0.36882 0.84968 0.23146 0.0
C1269 C 0.3631 0.86278 0.23762 0.0
C1270 C 0.383 0.85281 0.19344 0.0
C1271 C 0.39179 0.86911 0.16106 0.0
C1272 C 0.38528 0.8816 0.16372 0.0
H1273 H 0.50246 0.90265 0.03517 0.0
H1274 H 0.47625 0.90482 0.07205 0.0
C1275 C 0.37099 0.87845 0.20173 0.0
C1276 C 0.40882 0.87369 0.12901 0.0
H1277 H 0.45241 0.88143 0.14993 0.0
C1278 C 0.40863 0.87368 0.06848 0.0
C1279 C 0.42504 0.87728 0.15863 0.0
C1280 C 0.42626 0.8784 0.22368 0.0
C1281 C 0.42405 0.87622 0.03674 0.0
C1282 C 0.43984 0.87857 0.06655 0.0
C1283 C 0.44028 0.87953 0.12704 0.0
C1284 C 0.45555 0.87863 0.03673 0.0
C1285 C 0.4232 0.87622 0.97171 0.0
C1286 C 0.45262 0.8633 0.00405 0.0
C1287 C 0.46754 0.86202 0.98285 0.0
C1288 C 0.48576 0.87596 0.99448 0.0
C1289 C 0.48865 0.89163 0.02553 0.0
C1290 C 0.47368 0.89291 0.04658 0.0
H1291 H 0.41343 0.88062 0.95634 0.0
H1292 H 0.43699 0.88546 0.95266 0.0
H1293 H 0.41823 0.86202 0.95562 0.0
H1294 H 0.4388 0.8519 0.9971 0.0
H1295 H 0.46475 0.84974 0.95913 0.0
H1296 H 0.17192 0.53019 0.26108 0.0
H1297 H 0.16631 0.5494 0.19449 0.0
H1298 H 0.11621 0.50176 0.13671 0.0
H1299 H 0.12172 0.48224 0.20339 0.0
H1300 H 0.13969 0.52982 0.04637 0.0
H1301 H 0.12224 0.5582 0.23729 0.0
H1302 H 0.14387 0.55866 0.24284 0.0
H1303 H 0.12276 0.53691 0.23964 0.0
C1304 C 0.15987 0.52368 0.23352 0.0
C1305 C 0.14715 0.50471 0.23808 0.0
C1306 C 0.15669 0.5347 0.19555 0.0
C1307 C 0.1407 0.52701 0.16161 0.0
C1308 C 0.1286 0.50791 0.16286 0.0
H1309 H 0.10741 0.60399 0.03264 0.0
H1310 H 0.10503 0.5755 0.06921 0.0
C1311 C 0.1318 0.4968 0.20085 0.0
C1312 C 0.13605 0.53931 0.12903 0.0
H1313 H 0.1274 0.57459 0.14903 0.0
C1314 C 0.13676 0.53947 0.06855 0.0
C1315 C 0.13184 0.55157 0.1582 0.0
C1316 C 0.12994 0.55127 0.22307 0.0
C1317 C 0.13434 0.55237 0.03652 0.0
C1318 C 0.13144 0.56552 0.06603 0.0
C1319 C 0.12974 0.56461 0.12637 0.0
C1320 C 0.13157 0.58126 0.03625 0.0
C1321 C 0.13508 0.55188 0.97153 0.0
C1322 C 0.14718 0.59386 0.00501 0.0
C1323 C 0.14857 0.61013 0.98393 0.0
C1324 C 0.13447 0.61427 0.99434 0.0
C1325 C 0.11856 0.60131 0.02402 0.0
C1326 C 0.11715 0.58499 0.04486 0.0
H1327 H 0.13088 0.5378 0.95575 0.0
H1328 H 0.12603 0.55649 0.95141 0.0
H1329 H 0.14945 0.5612 0.95702 0.0
H1330 H 0.15869 0.59155 0.99911 0.0
H1331 H 0.16104 0.61976 0.96136 0.0
H1332 H 0.40401 0.50802 0.03801 0.0
H1333 H 0.43165 0.53444 0.07781 0.0
H1334 H 0.41773 0.57151 0.99192 0.0
H1335 H 0.39028 0.54532 0.95111 0.0
H1336 H 0.45616 0.58384 0.99181 0.0
H1337 H 0.42461 0.56314 0.21007 0.0
H1338 H 0.42724 0.54595 0.17176 0.0
H1339 H 0.41168 0.55311 0.14483 0.0
C1340 C 0.40693 0.52178 0.02686 0.0
C1341 C 0.39471 0.5245 0.99211 0.0
C1342 C 0.42273 0.53686 0.04975 0.0
C1343 C 0.42653 0.5549 0.03861 0.0
C1344 C 0.415 0.55769 0.0012 0.0
H1345 H 0.48037 0.64973 0.25389 0.0
H1346 H 0.46048 0.62541 0.18684 0.0
C1347 C 0.39925 0.54266 0.97814 0.0
C1348 C 0.44144 0.57079 0.06988 0.0
H1349 H 0.45383 0.58968 0.20431 0.0
C1350 C 0.45577 0.58511 0.03831 0.0
C1351 C 0.4407 0.57247 0.13045 0.0
C1352 C 0.42518 0.55796 0.16639 0.0
C1353 C 0.46935 0.60116 0.06585 0.0
C1354 C 0.46856 0.60279 0.12637 0.0
C1355 C 0.45438 0.58835 0.15786 0.0
C1356 C 0.48167 0.61961 0.15843 0.0
C1357 C 0.48408 0.61648 0.03002 0.0
C1358 C 0.50037 0.62484 0.1632 0.0
C1359 C 0.51188 0.63891 0.20139 0.0
C1360 C 0.50473 0.64772 0.23584 0.0
C1361 C 0.48626 0.64312 0.22832 0.0
C1362 C 0.47487 0.62922 0.19001 0.0
H1363 H 0.48069 0.61461 0.98325 0.0
H1364 H 0.48607 0.63005 0.04389 0.0
H1365 H 0.49733 0.61673 0.03627 0.0
H1366 H 0.50582 0.61742 0.13984 0.0
H1367 H 0.526 0.64203 0.20658 0.0
H1368 H 0.55649 0.8297 0.76525 0.0
H1369 H 0.55578 0.80177 0.73107 0.0
H1370 H 0.52663 0.77303 0.88517 0.0
H1371 H 0.5265 0.80073 0.91827 0.0
H1372 H 0.56758 0.77938 0.767 0.0
H1373 H 0.49094 0.74099 0.76468 0.0
H1374 H 0.5041 0.76539 0.77852 0.0
H1375 H 0.50091 0.74916 0.83456 0.0
C1376 C 0.5501 0.81749 0.79215 0.0
C1377 C 0.54128 0.8173 0.84394 0.0
C1378 C 0.54971 0.80152 0.77261 0.0
C1379 C 0.54072 0.78513 0.80482 0.0
C1380 C 0.5331 0.78531 0.85865 0.0
H1381 H 0.54508 0.69085 0.64575 0.0
H1382 H 0.54828 0.713 0.72065 0.0
C1383 C 0.53314 0.80117 0.87766 0.0
C1384 C 0.53839 0.76776 0.77978 0.0
H1385 H 0.50571 0.72529 0.73151 0.0
C1386 C 0.55407 0.76746 0.75969 0.0
C1387 C 0.52072 0.75223 0.77008 0.0
C1388 C 0.50319 0.75194 0.78757 0.0
C1389 C 0.55254 0.7525 0.7277 0.0
C1390 C 0.53484 0.73715 0.71712 0.0
C1391 C 0.51925 0.73703 0.73997 0.0
C1392 C 0.53186 0.72242 0.67555 0.0
C1393 C 0.56977 0.7538 0.70254 0.0
C1394 C 0.52089 0.71973 0.62676 0.0
C1395 C 0.51875 0.70694 0.58472 0.0
C1396 C 0.52765 0.69653 0.59006 0.0
C1397 C 0.53812 0.69871 0.64006 0.0
C1398 C 0.54011 0.71148 0.68267 0.0
H1399 H 0.58179 0.76799 0.70541 0.0
H1400 H 0.57321 0.74447 0.72666 0.0
H1401 H 0.56765 0.7495 0.65654 0.0
H1402 H 0.51436 0.72796 0.62029 0.0
H1403 H 0.51054 0.70568 0.54705 0.0
H1404 H 0.31036 0.85869 0.6259 0.0
H1405 H 0.286 0.83828 0.69279 0.0
H1406 H 0.29303 0.79284 0.63944 0.0
H1407 H 0.31712 0.81298 0.57211 0.0
H1408 H 0.25747 0.7865 0.62579 0.0
H1409 H 0.28375 0.81238 0.84651 0.0
H1410 H 0.28558 0.82939 0.79545 0.0
H1411 H 0.29878 0.8181 0.78465 0.0
C1412 C 0.30708 0.84447 0.62962 0.0
C1413 C 0.31557 0.83741 0.59335 0.0
C1414 C 0.29317 0.83284 0.66796 0.0
C1415 C 0.28774 0.81406 0.67109 0.0
C1416 C 0.29701 0.80729 0.63757 0.0
H1417 H 0.21302 0.72285 0.87895 0.0
H1418 H 0.23943 0.75001 0.83782 0.0
C1419 C 0.31077 0.81883 0.59909 0.0
C1420 C 0.27106 0.80093 0.70364 0.0
H1421 H 0.25258 0.78852 0.83877 0.0
C1422 C 0.25637 0.78697 0.67236 0.0
C1423 C 0.26972 0.80162 0.76432 0.0
C1424 C 0.28532 0.81607 0.79997 0.0
C1425 C 0.24048 0.77343 0.70009 0.0
C1426 C 0.23906 0.77411 0.76078 0.0
C1427 C 0.25366 0.7882 0.79217 0.0
C1428 C 0.22309 0.75938 0.79228 0.0
C1429 C 0.22565 0.75812 0.6643 0.0
C1430 C 0.20516 0.75602 0.78193 0.0
C1431 C 0.18995 0.74038 0.80501 0.0
C1432 C 0.19244 0.7279 0.83915 0.0
C1433 C 0.21053 0.73202 0.85239 0.0
C1434 C 0.22569 0.74761 0.82915 0.0
H1435 H 0.23062 0.75747 0.62036 0.0
H1436 H 0.22058 0.74456 0.68561 0.0
H1437 H 0.21383 0.76052 0.65956 0.0
H1438 H 0.20291 0.76515 0.75432 0.0
H1439 H 0.17626 0.73778 0.79443 0.0
H1440 H 0.15039 0.46287 0.64431 0.0
H1441 H 0.16921 0.4601 0.72046 0.0
H1442 H 0.21851 0.49664 0.62564 0.0
H1443 H 0.2001 0.49991 0.55091 0.0
H1444 H 0.19154 0.44603 0.71185 0.0
H1445 H 0.23308 0.51805 0.78397 0.0
H1446 H 0.21262 0.51027 0.74047 0.0
H1447 H 0.23456 0.51701 0.70707 0.0
C1448 C 0.16526 0.47061 0.6403 0.0
C1449 C 0.17369 0.48167 0.59144 0.0
C1450 C 0.17599 0.46897 0.6838 0.0
C1451 C 0.1953 0.47843 0.67932 0.0
C1452 C 0.20369 0.48964 0.63104 0.0
H1453 H 0.27701 0.45234 0.76527 0.0
H1454 H 0.2493 0.45236 0.73328 0.0
C1455 C 0.19306 0.49136 0.58793 0.0
C1456 C 0.20686 0.47557 0.72194 0.0
H1457 H 0.24744 0.49909 0.79513 0.0
C1458 C 0.20355 0.45759 0.73121 0.0
C1459 C 0.22227 0.49056 0.74852 0.0
C1460 C 0.22569 0.51001 0.74498 0.0
C1461 C 0.21602 0.45437 0.76255 0.0
C1462 C 0.2325 0.46958 0.78358 0.0
C1463 C 0.23503 0.4874 0.77814 0.0
C1464 C 0.24797 0.46762 0.80692 0.0
C1465 C 0.21149 0.43473 0.77196 0.0
C1466 C 0.25672 0.47642 0.85859 0.0
C1467 C 0.27289 0.47684 0.87621 0.0
C1468 C 0.28055 0.46832 0.84274 0.0
C1469 C 0.27136 0.45887 0.79232 0.0
C1470 C 0.25538 0.45873 0.77422 0.0
H1471 H 0.19634 0.42533 0.77468 0.0
H1472 H 0.21657 0.43021 0.73468 0.0
H1473 H 0.21793 0.43327 0.812 0.0
H1474 H 0.25133 0.48343 0.8845 0.0
H1475 H 0.27959 0.48415 0.91548 0.0
H1476 H 0.17449 0.44042 0.29272 0.0
H1477 H 0.20056 0.43806 0.25556 0.0
H1478 H 0.23833 0.49059 0.3322 0.0
H1479 H 0.2125 0.49295 0.37036 0.0
H1480 H 0.22498 0.46173 0.17854 0.0
H1481 H 0.26268 0.4608 0.37332 0.0
H1482 H 0.23921 0.45625 0.37605 0.0
H1483 H 0.25817 0.4796 0.37434 0.0
C1484 C 0.18834 0.45133 0.3026 0.0
C1485 C 0.19135 0.46693 0.33429 0.0
C1486 C 0.20323 0.44993 0.28139 0.0
C1487 C 0.2214 0.46403 0.29175 0.0
C1488 C 0.22446 0.47932 0.32485 0.0
H1489 H 0.31527 0.50505 0.07662 0.0
H1490 H 0.29039 0.49958 0.1428 0.0
C1491 C 0.20961 0.48073 0.34616 0.0
C1492 C 0.23707 0.4639 0.26234 0.0
H1493 H 0.28017 0.47008 0.28438 0.0
C1494 C 0.23689 0.46323 0.20181 0.0
C1495 C 0.25258 0.46573 0.29268 0.0
C1496 C 0.25312 0.46544 0.35772 0.0
C1497 C 0.25214 0.46525 0.17074 0.0
C1498 C 0.26808 0.46826 0.20095 0.0
C1499 C 0.26799 0.46802 0.26146 0.0
C1500 C 0.28514 0.47265 0.16951 0.0
C1501 C 0.25126 0.46456 0.10562 0.0
C1502 C 0.29099 0.45966 0.165 0.0
C1503 C 0.30532 0.46276 0.12719 0.0
C1504 C 0.3139 0.47888 0.09336 0.0
C1505 C 0.30883 0.4924 0.10149 0.0
C1506 C 0.29462 0.48932 0.13926 0.0
H1507 H 0.23683 0.45793 0.08967 0.0
H1508 H 0.25882 0.47882 0.08832 0.0
H1509 H 0.25786 0.45691 0.0882 0.0
H1510 H 0.28382 0.44673 0.18825 0.0
H1511 H 0.30886 0.45205 0.12185 0.0
H1512 H 0.5697 0.73942 0.29825 0.0
H1513 H 0.57245 0.76824 0.26312 0.0
H1514 H 0.5187 0.75225 0.3323 0.0
H1515 H 0.51598 0.72375 0.3686 0.0
H1516 H 0.55047 0.77 0.18351 0.0
H1517 H 0.54677 0.80564 0.37937 0.0
H1518 H 0.55139 0.78678 0.38238 0.0
H1519 H 0.52806 0.78232 0.37671 0.0
C1520 C 0.5586 0.74218 0.30692 0.0
C1521 C 0.54257 0.72918 0.33599 0.0
C1522 C 0.56022 0.75869 0.28693 0.0
C1523 C 0.5459 0.76255 0.29582 0.0
C1524 C 0.53015 0.74985 0.32627 0.0
H1525 H 0.50497 0.81424 0.07837 0.0
H1526 H 0.51083 0.79524 0.14518 0.0
C1527 C 0.52854 0.73341 0.34647 0.0
C1528 C 0.54629 0.77857 0.26719 0.0
H1529 H 0.53805 0.81417 0.28945 0.0
C1530 C 0.54813 0.77987 0.20691 0.0
C1531 C 0.54337 0.79156 0.29767 0.0
C1532 C 0.54248 0.79163 0.36268 0.0
C1533 C 0.54609 0.79311 0.17603 0.0
C1534 C 0.54185 0.80519 0.20613 0.0
C1535 C 0.54103 0.80466 0.26658 0.0
C1536 C 0.53708 0.81753 0.17441 0.0
C1537 C 0.54795 0.79374 0.11113 0.0
C1538 C 0.54954 0.83653 0.17104 0.0
C1539 C 0.54621 0.84751 0.13287 0.0
C1540 C 0.53041 0.83956 0.09755 0.0
C1541 C 0.51736 0.82076 0.10446 0.0
C1542 C 0.52067 0.80987 0.1426 0.0
H1543 H 0.55531 0.78657 0.09594 0.0
H1544 H 0.53401 0.78683 0.09138 0.0
H1545 H 0.55546 0.80821 0.09549 0.0
H1546 H 0.56227 0.84264 0.19546 0.0
H1547 H 0.55656 0.86193 0.12844 0.0
H1548 H 0.28742 0.79751 0.37738 0.0
H1549 H 0.25988 0.77135 0.33699 0.0
H1550 H 0.24443 0.80837 0.25887 0.0
H1551 H 0.27218 0.83479 0.29821 0.0
H1552 H 0.22144 0.75826 0.34093 0.0
H1553 H 0.25105 0.78127 0.12127 0.0
H1554 H 0.2644 0.79102 0.18597 0.0
H1555 H 0.2482 0.79781 0.16267 0.0
C1556 C 0.2781 0.80017 0.3522 0.0
C1557 C 0.28224 0.81832 0.34016 0.0
C1558 C 0.26229 0.78514 0.32937 0.0
C1559 C 0.25031 0.78795 0.29416 0.0
C1560 C 0.2537 0.80595 0.28516 0.0
H1561 H 0.15087 0.7003 0.12724 0.0
H1562 H 0.17097 0.7248 0.19437 0.0
C1563 C 0.26957 0.82103 0.30778 0.0
C1564 C 0.23536 0.77215 0.26273 0.0
H1565 H 0.2223 0.75417 0.12745 0.0
C1566 C 0.22149 0.75738 0.29423 0.0
C1567 C 0.23566 0.77098 0.20185 0.0
C1568 C 0.25068 0.78601 0.1658 0.0
C1569 C 0.20799 0.74136 0.26633 0.0
C1570 C 0.20839 0.74023 0.20553 0.0
C1571 C 0.22206 0.75512 0.17412 0.0
C1572 C 0.19544 0.72347 0.173 0.0
C1573 C 0.19381 0.72555 0.30196 0.0
C1574 C 0.20245 0.71439 0.13972 0.0
C1575 C 0.19109 0.70053 0.10123 0.0
C1576 C 0.17244 0.69547 0.09518 0.0
C1577 C 0.16514 0.70378 0.13122 0.0
C1578 C 0.1766 0.71778 0.16964 0.0
H1579 H 0.19743 0.72725 0.34856 0.0
H1580 H 0.18025 0.72477 0.29703 0.0
H1581 H 0.19229 0.71229 0.28676 0.0
H1582 H 0.21695 0.71857 0.14178 0.0
H1583 H 0.19713 0.69433 0.07441 0.0
H1584 H 0.17408 0.64825 0.76179 0.0
H1585 H 0.16984 0.6241 0.69438 0.0
H1586 H 0.11773 0.61786 0.64062 0.0
H1587 H 0.12193 0.64228 0.7079 0.0
H1588 H 0.13942 0.58837 0.7079 0.0
H1589 H 0.14245 0.61584 0.48695 0.0
H1590 H 0.15215 0.63066 0.54911 0.0
H1591 H 0.12767 0.61831 0.53819 0.0
C1592 C 0.16189 0.64206 0.73476 0.0
C1593 C 0.14827 0.6471 0.74053 0.0
C1594 C 0.1595 0.62825 0.69623 0.0
C1595 C 0.14348 0.61919 0.66259 0.0
C1596 C 0.13031 0.62486 0.66567 0.0
H1597 H 0.10911 0.50821 0.53482 0.0
H1598 H 0.10788 0.53461 0.57478 0.0
C1599 C 0.13274 0.63881 0.70417 0.0
C1600 C 0.13982 0.60251 0.62986 0.0
H1601 H 0.13556 0.58486 0.49419 0.0
C1602 C 0.13846 0.58754 0.66117 0.0
C1603 C 0.13862 0.60155 0.569 0.0
C1604 C 0.14041 0.61746 0.53352 0.0
C1605 C 0.13636 0.57177 0.63329 0.0
C1606 C 0.1352 0.57077 0.57235 0.0
C1607 C 0.13626 0.58562 0.54093 0.0
C1608 C 0.13442 0.55501 0.54083 0.0
C1609 C 0.13615 0.55663 0.66928 0.0
C1610 C 0.14934 0.55781 0.50626 0.0
C1611 C 0.15007 0.54279 0.48309 0.0
C1612 C 0.13586 0.52464 0.49412 0.0
C1613 C 0.1204 0.52196 0.526 0.0
C1614 C 0.11967 0.53703 0.54898 0.0
H1615 H 0.14104 0.56125 0.71405 0.0
H1616 H 0.12185 0.54483 0.67173 0.0
H1617 H 0.14495 0.55166 0.64948 0.0
H1618 H 0.16084 0.57159 0.49932 0.0
H1619 H 0.16212 0.54543 0.45834 0.0
H1620 H 0.36489 0.4842 0.70081 0.0
H1621 H 0.38956 0.50442 0.63438 0.0
H1622 H 0.38624 0.55114 0.69694 0.0
H1623 H 0.36174 0.5312 0.76353 0.0
H1624 H 0.39372 0.53193 0.54647 0.0
H1625 H 0.43937 0.56165 0.73715 0.0
H1626 H 0.41769 0.54026 0.74021 0.0
H1627 H 0.41808 0.5619 0.74207 0.0
C1628 C 0.36909 0.4987 0.69948 0.0
C1629 C 0.3615 0.50612 0.73809 0.0
C1630 C 0.38321 0.51022 0.66158 0.0
C1631 C 0.3899 0.52928 0.66171 0.0
C1632 C 0.38143 0.53649 0.69698 0.0
H1633 H 0.46336 0.62139 0.45645 0.0
H1634 H 0.43706 0.59379 0.49564 0.0
C1635 C 0.36741 0.52505 0.73492 0.0
C1636 C 0.40671 0.54194 0.62903 0.0
H1637 H 0.45055 0.57755 0.64825 0.0
C1638 C 0.40623 0.54181 0.5685 0.0
C1639 C 0.42312 0.5545 0.658 0.0
C1640 C 0.42474 0.55454 0.72293 0.0
C1641 C 0.42154 0.55458 0.53617 0.0
C1642 C 0.43756 0.5679 0.56537 0.0
C1643 C 0.43825 0.56742 0.62583 0.0
C1644 C 0.45337 0.58324 0.53494 0.0
C1645 C 0.42039 0.5537 0.47117 0.0
C1646 C 0.47136 0.58659 0.54416 0.0
C1647 C 0.48652 0.60255 0.52244 0.0
C1648 C 0.48398 0.61552 0.49124 0.0
C1649 C 0.46588 0.61173 0.48019 0.0
C1650 C 0.45076 0.59582 0.50214 0.0
H1651 H 0.41031 0.5396 0.45601 0.0
H1652 H 0.41567 0.56318 0.45554 0.0
H1653 H 0.43402 0.55792 0.45148 0.0
H1654 H 0.47369 0.5771 0.56966 0.0
H1655 H 0.50023 0.60495 0.53162 0.0
H1656 H 0.39835 0.86049 0.41581 0.0
H1657 H 0.42609 0.8605 0.44917 0.0
H1658 H 0.42593 0.88883 0.60458 0.0
H1659 H 0.39877 0.88966 0.57018 0.0
H1660 H 0.4603 0.90077 0.56928 0.0
H1661 H 0.42179 0.82414 0.56845 0.0
H1662 H 0.42376 0.83439 0.49895 0.0
H1663 H 0.41069 0.83746 0.55514 0.0
C1664 C 0.4044 0.86694 0.45675 0.0
C1665 C 0.39627 0.87486 0.49081 0.0
C1666 C 0.42018 0.86683 0.4759 0.0
C1667 C 0.42777 0.87416 0.53017 0.0
C1668 C 0.42025 0.88298 0.5627 0.0
H1669 H 0.47719 0.84284 0.78541 0.0
H1670 H 0.45851 0.84676 0.71313 0.0
C1671 C 0.40472 0.88344 0.54304 0.0
C1672 C 0.44269 0.87166 0.55523 0.0
H1673 H 0.45227 0.83865 0.60164 0.0
C1674 C 0.45865 0.88721 0.57592 0.0
C1675 C 0.44044 0.85391 0.56413 0.0
C1676 C 0.4232 0.8365 0.54602 0.0
C1677 C 0.47202 0.88548 0.60755 0.0
C1678 C 0.46962 0.86771 0.61714 0.0
C1679 C 0.45413 0.85226 0.5939 0.0
C1680 C 0.48144 0.86453 0.65783 0.0
C1681 C 0.48797 0.90258 0.63332 0.0
C1682 C 0.5006 0.87283 0.6502 0.0
C1683 C 0.51149 0.87078 0.69221 0.0
C1684 C 0.50334 0.86019 0.7421 0.0
C1685 C 0.48403 0.85115 0.7478 0.0
C1686 C 0.47326 0.85336 0.70633 0.0
H1687 H 0.48577 0.9146 0.63153 0.0
H1688 H 0.49019 0.9002 0.67904 0.0
H1689 H 0.50072 0.90617 0.60884 0.0
H1690 H 0.50716 0.88114 0.61237 0.0
H1691 H 0.52629 0.87784 0.68622 0.0
H1692 H 0.05606 0.27895 0.76371 0.0
H1693 H 0.07563 0.30963 0.72169 0.0
H1694 H 0.05152 0.28898 0.55449 0.0
H1695 H 0.03201 0.25842 0.59563 0.0
H1696 H 0.09238 0.31386 0.55827 0.0
H1697 H 0.05139 0.34089 0.66707 0.0
H1698 H 0.05998 0.32923 0.71162 0.0
H1699 H 0.0428 0.31652 0.65793 0.0
C1700 C 0.05508 0.28089 0.7179 0.0
C1701 C 0.0423 0.26628 0.68322 0.0
C1702 C 0.06623 0.29842 0.69403 0.0
C1703 C 0.06487 0.30154 0.63514 0.0
C1704 C 0.05274 0.28683 0.60003 0.0
H1705 H 0.10655 0.39382 0.39686 0.0
H1706 H 0.09513 0.36333 0.44059 0.0
C1707 C 0.04152 0.2694 0.62381 0.0
C1708 C 0.0751 0.32032 0.61045 0.0
H1709 H 0.07585 0.36138 0.60801 0.0
C1710 C 0.08891 0.32435 0.56931 0.0
C1711 C 0.0704 0.33385 0.62481 0.0
C1712 C 0.05526 0.32999 0.66746 0.0
C1713 C 0.09832 0.34171 0.54242 0.0
C1714 C 0.0934 0.35516 0.5561 0.0
C1715 C 0.07965 0.35109 0.5976 0.0
C1716 C 0.10215 0.37359 0.52818 0.0
C1717 C 0.11358 0.34554 0.50036 0.0
C1718 C 0.10982 0.38947 0.56271 0.0
C1719 C 0.11598 0.40675 0.53802 0.0
C1720 C 0.11473 0.4086 0.4781 0.0
C1721 C 0.1078 0.39282 0.44308 0.0
C1722 C 0.10137 0.37541 0.46803 0.0
H1723 H 0.11927 0.33624 0.50771 0.0
H1724 H 0.10801 0.34316 0.45577 0.0
H1725 H 0.12497 0.36004 0.50363 0.0
H1726 H 0.1106 0.38843 0.60914 0.0
H1727 H 0.12144 0.41868 0.56614 0.0
H1728 H 0.753 0.78759 0.5974 0.0
H1729 H 0.72292 0.77681 0.55325 0.0
H1730 H 0.69751 0.76373 0.72167 0.0
H1731 H 0.72787 0.77509 0.76651 0.0
H1732 H 0.69535 0.74226 0.55754 0.0
H1733 H 0.67145 0.78803 0.64762 0.0
H1734 H 0.6951 0.79329 0.65306 0.0
H1735 H 0.67797 0.77711 0.70202 0.0
C1736 C 0.74105 0.78267 0.62522 0.0
C1737 C 0.74277 0.78205 0.68547 0.0
C1738 C 0.72386 0.77654 0.59986 0.0
C1739 C 0.70794 0.76955 0.63402 0.0
C1740 C 0.70964 0.76943 0.69443 0.0
H1741 H 0.59246 0.70154 0.5672 0.0
H1742 H 0.62311 0.72103 0.60763 0.0
C1743 C 0.72696 0.77582 0.72004 0.0
C1744 C 0.68957 0.76081 0.60566 0.0
H1745 H 0.64884 0.76088 0.59882 0.0
C1746 C 0.68528 0.7465 0.5661 0.0
C1747 C 0.67641 0.76631 0.61691 0.0
C1748 C 0.6805 0.78214 0.65679 0.0
C1749 C 0.66809 0.73727 0.53852 0.0
C1750 C 0.65485 0.74258 0.55041 0.0
C1751 C 0.65911 0.75695 0.5896 0.0
C1752 C 0.63607 0.73239 0.52551 0.0
C1753 C 0.66399 0.7215 0.49825 0.0
C1754 C 0.63314 0.73266 0.46589 0.0
C1755 C 0.61555 0.72149 0.44238 0.0
C1756 C 0.60067 0.7098 0.47819 0.0
C1757 C 0.60363 0.71017 0.53817 0.0
C1758 C 0.62112 0.72139 0.56153 0.0
H1759 H 0.6745 0.71714 0.50129 0.0
H1760 H 0.65023 0.70944 0.50785 0.0
H1761 H 0.66377 0.72582 0.45312 0.0
H1762 H 0.64453 0.74122 0.43748 0.0
H1763 H 0.61374 0.72159 0.39611 0.0
H1764 H 0.23855 0.96096 0.7691 0.0
H1765 H 0.25039 0.94222 0.72479 0.0
H1766 H 0.23349 0.95071 0.55713 0.0
H1767 H 0.22218 0.9697 0.60053 0.0
H1768 H 0.23534 0.91063 0.65465 0.0
H1769 H 0.28855 0.97169 0.53604 0.0
H1770 H 0.27498 0.97352 0.59337 0.0
H1771 H 0.2655 0.96687 0.52191 0.0
C1772 C 0.23718 0.95861 0.72293 0.0
C1773 C 0.22977 0.96706 0.68814 0.0
C1774 C 0.24395 0.94794 0.69766 0.0
C1775 C 0.24325 0.9455 0.63746 0.0
C1776 C 0.23466 0.95286 0.6034 0.0
H1777 H 0.29005 0.89863 0.39998 0.0
H1778 H 0.27051 0.9097 0.44276 0.0
C1779 C 0.22816 0.96367 0.62835 0.0
C1780 C 0.25228 0.93612 0.60954 0.0
H1781 H 0.28558 0.94289 0.51148 0.0
C1782 C 0.24634 0.91767 0.62344 0.0
C1783 C 0.26668 0.94536 0.56887 0.0
C1784 C 0.27445 0.9655 0.55451 0.0
C1785 C 0.25428 0.90816 0.59716 0.0
C1786 C 0.26857 0.9174 0.55631 0.0
C1787 C 0.27444 0.93578 0.54224 0.0
C1788 C 0.27868 0.90879 0.53077 0.0
C1789 C 0.24727 0.88827 0.61293 0.0
C1790 C 0.28966 0.90461 0.56611 0.0
C1791 C 0.30089 0.89848 0.54192 0.0
C1792 C 0.3014 0.8964 0.48173 0.0
C1793 C 0.28994 0.90005 0.44643 0.0
C1794 C 0.27879 0.90637 0.47078 0.0
H1795 H 0.23337 0.88187 0.63302 0.0
H1796 H 0.24663 0.88011 0.57431 0.0
H1797 H 0.25685 0.88753 0.64445 0.0
H1798 H 0.29002 0.90669 0.61237 0.0
H1799 H 0.30944 0.89568 0.57048 0.0
H1800 H 0.28334 0.05004 0.73259 0.0
H1801 H 0.31375 0.06834 0.77821 0.0
H1802 H 0.2877 0.05954 0.94489 0.0
H1803 H 0.25754 0.04095 0.90015 0.0
H1804 H 0.33026 0.09962 0.84867 0.0
H1805 H 0.32129 0.03814 0.96751 0.0
H1806 H 0.30611 0.03656 0.90981 0.0
H1807 H 0.30328 0.04332 0.9811 0.0
C1808 C 0.28414 0.05222 0.77884 0.0
C1809 C 0.26812 0.04379 0.81293 0.0
C1810 C 0.30148 0.06264 0.80485 0.0
C1811 C 0.30299 0.06487 0.86514 0.0
C1812 C 0.2869 0.05753 0.89855 0.0
H1813 H 0.39705 0.11049 0.10197 0.0
H1814 H 0.36635 0.09971 0.06028 0.0
C1815 C 0.26967 0.04696 0.87284 0.0
C1816 C 0.32131 0.07404 0.89368 0.0
H1817 H 0.34745 0.06669 0.9917 0.0
C1818 C 0.33404 0.09244 0.8799 0.0
C1819 C 0.32623 0.06461 0.93442 0.0
C1820 C 0.3136 0.04452 0.94874 0.0
C1821 C 0.3515 0.10171 0.90617 0.0
C1822 C 0.35635 0.09226 0.94686 0.0
C1823 C 0.34358 0.07395 0.96102 0.0
C1824 C 0.3751 0.10054 0.9719 0.0
C1825 C 0.36461 0.12154 0.89043 0.0
C1826 C 0.39011 0.10454 0.93601 0.0
C1827 C 0.40752 0.11051 0.95957 0.0
C1828 C 0.41033 0.1126 0.01969 0.0
C1829 C 0.39536 0.10906 0.05557 0.0
C1830 C 0.37784 0.10291 0.03184 0.0
H1831 H 0.35726 0.12819 0.87098 0.0
H1832 H 0.37236 0.12959 0.92891 0.0
H1833 H 0.37471 0.1221 0.85833 0.0
H1834 H 0.38824 0.1025 0.88978 0.0
H1835 H 0.41874 0.11322 0.93055 0.0
H1836 H 0.94309 0.21074 0.75757 0.0
H1837 H 0.922 0.21953 0.80248 0.0
H1838 H 0.96651 0.25927 0.90861 0.0
H1839 H 0.9873 0.2503 0.86565 0.0
H1840 H 0.93566 0.2393 0.97121 0.0
H1841 H 0.91952 0.26577 0.77221 0.0
H1842 H 0.91413 0.24215 0.7702 0.0
H1843 H 0.93776 0.26028 0.77455 0.0
C1844 C 0.94835 0.22142 0.79021 0.0
C1845 C 0.96687 0.22981 0.80797 0.0
C1846 C 0.9363 0.22645 0.81579 0.0
C1847 C 0.9427 0.24016 0.85871 0.0
C1848 C 0.96121 0.24858 0.87592 0.0
H1849 H 0.91852 0.32039 0.96839 0.0
H1850 H 0.92746 0.2996 0.92525 0.0
C1851 C 0.97311 0.24346 0.85107 0.0
C1852 C 0.93053 0.24615 0.88623 0.0
H1853 H 0.90767 0.26954 0.85945 0.0
C1854 C 0.9293 0.2457 0.9468 0.0
C1855 C 0.92225 0.25447 0.85424 0.0
C1856 C 0.92353 0.25587 0.78925 0.0
C1857 C 0.92109 0.25439 0.97642 0.0
C1858 C 0.91342 0.26332 0.94447 0.0
C1859 C 0.91358 0.2627 0.88383 0.0
C1860 C 0.90752 0.2755 0.97237 0.0
C1861 C 0.92181 0.25496 0.04154 0.0
C1862 C 0.89338 0.26895 0.0139 0.0
C1863 C 0.88837 0.281 0.03961 0.0
C1864 C 0.89721 0.29967 0.02332 0.0
C1865 C 0.91132 0.30608 0.98174 0.0
C1866 C 0.91643 0.29417 0.95681 0.0
H1867 H 0.9313 0.25048 0.05897 0.0
H1868 H 0.92634 0.26909 0.05754 0.0
H1869 H 0.90783 0.24559 0.05898 0.0
H1870 H 0.88608 0.25453 0.02591 0.0
H1871 H 0.87732 0.27562 0.07106 0.0
H1872 H 0.78678 0.7543 0.90098 0.0
H1873 H 0.7762 0.72438 0.94589 0.0
H1874 H 0.7633 0.69856 0.77809 0.0
H1875 H 0.77442 0.72878 0.73243 0.0
H1876 H 0.74159 0.69653 0.94139 0.0
H1877 H 0.78818 0.67322 0.85409 0.0
H1878 H 0.79321 0.69679 0.84821 0.0
H1879 H 0.77724 0.67953 0.79915 0.0
C1880 C 0.78192 0.7423 0.87344 0.0
C1881 C 0.78128 0.74386 0.81312 0.0
C1882 C 0.77592 0.7252 0.89924 0.0
C1883 C 0.76904 0.70921 0.86548 0.0
C1884 C 0.76891 0.71075 0.80501 0.0
H1885 H 0.70211 0.59389 0.93276 0.0
H1886 H 0.72155 0.62459 0.89278 0.0
C1887 C 0.77517 0.72799 0.77895 0.0
C1888 C 0.76045 0.69094 0.89432 0.0
H1889 H 0.76113 0.65055 0.90304 0.0
C1890 C 0.74603 0.68657 0.93349 0.0
C1891 C 0.76622 0.67794 0.88394 0.0
C1892 C 0.78218 0.68214 0.84448 0.0
C1893 C 0.73693 0.66944 0.96145 0.0
C1894 C 0.74249 0.65635 0.9504 0.0
C1895 C 0.757 0.66071 0.91166 0.0
C1896 C 0.73236 0.63757 0.97528 0.0
C1897 C 0.72099 0.66522 0.00114 0.0
C1898 C 0.73234 0.63463 0.035 0.0
C1899 C 0.72119 0.617 0.05828 0.0
C1900 C 0.70981 0.60211 0.02209 0.0
C1901 C 0.71049 0.60507 0.96207 0.0
C1902 C 0.72168 0.6226 0.93896 0.0
H1903 H 0.71649 0.67561 0.99754 0.0
H1904 H 0.70905 0.6514 0.99145 0.0
H1905 H 0.72521 0.6651 0.04648 0.0
H1906 H 0.74065 0.64604 0.06365 0.0
H1907 H 0.72105 0.61516 0.10459 0.0
H1908 H 0.89759 0.59313 0.43208 0.0
H1909 H 0.90866 0.6238 0.39219 0.0
H1910 H 0.9098 0.64493 0.56276 0.0
H1911 H 0.89872 0.61408 0.60362 0.0
H1912 H 0.89431 0.64912 0.40095 0.0
H1913 H 0.96371 0.67555 0.49931 0.0
H1914 H 0.94735 0.65122 0.49289 0.0
H1915 H 0.94426 0.66469 0.54733 0.0
C1916 C 0.9001 0.60424 0.46135 0.0
C1917 C 0.89751 0.60117 0.52129 0.0
C1918 C 0.90633 0.62175 0.43829 0.0
C1919 C 0.91022 0.63663 0.47454 0.0
C1920 C 0.90703 0.6336 0.53415 0.0
H1921 H 0.97104 0.75353 0.40068 0.0
H1922 H 0.95186 0.72353 0.44545 0.0
C1923 C 0.90066 0.61598 0.55739 0.0
C1924 C 0.91864 0.65542 0.44974 0.0
H1925 H 0.95923 0.69615 0.44245 0.0
C1926 C 0.90846 0.6595 0.41025 0.0
C1927 C 0.93712 0.66882 0.46172 0.0
C1928 C 0.94887 0.66492 0.50227 0.0
C1929 C 0.91627 0.67674 0.38264 0.0
C1930 C 0.93488 0.69004 0.39391 0.0
C1931 C 0.94496 0.68596 0.43386 0.0
C1932 C 0.9444 0.70834 0.36507 0.0
C1933 C 0.90446 0.68061 0.34234 0.0
C1934 C 0.94631 0.70989 0.30465 0.0
C1935 C 0.95718 0.72717 0.27868 0.0
C1936 C 0.96659 0.74307 0.3129 0.0
C1937 C 0.96413 0.7415 0.37313 0.0
C1938 C 0.95314 0.72436 0.39884 0.0
H1939 H 0.88955 0.67147 0.35141 0.0
H1940 H 0.90778 0.69517 0.34572 0.0
H1941 H 0.90706 0.67803 0.29725 0.0
H1942 H 0.94002 0.69769 0.27773 0.0
H1943 H 0.95892 0.72796 0.23224 0.0
H1944 H 0.26054 0.23407 0.39907 0.0
H1945 H 0.29099 0.24461 0.44007 0.0
H1946 H 0.31061 0.23802 0.27472 0.0
H1947 H 0.27999 0.22743 0.23272 0.0
H1948 H 0.3141 0.22725 0.44186 0.0
H1949 H 0.34436 0.2936 0.32124 0.0
H1950 H 0.31979 0.27889 0.33023 0.0
H1951 H 0.33207 0.27274 0.27974 0.0
C1952 C 0.27126 0.23478 0.3712 0.0
C1953 C 0.26787 0.23013 0.31228 0.0
C1954 C 0.28864 0.2407 0.39494 0.0
C1955 C 0.30304 0.24224 0.36033 0.0
C1956 C 0.29965 0.23706 0.30197 0.0
H1957 H 0.42006 0.30041 0.43468 0.0
H1958 H 0.38998 0.28086 0.39062 0.0
C1959 C 0.28216 0.23098 0.27811 0.0
C1960 C 0.32179 0.25032 0.38511 0.0
H1961 H 0.36385 0.28949 0.38443 0.0
C1962 C 0.32508 0.24079 0.42908 0.0
C1963 C 0.33597 0.26801 0.36846 0.0
C1964 C 0.33297 0.27904 0.32263 0.0
C1965 C 0.3423 0.2485 0.45681 0.0
C1966 C 0.35638 0.26639 0.44104 0.0
C1967 C 0.35308 0.27577 0.3965 0.0
C1968 C 0.37463 0.27595 0.47013 0.0
C1969 C 0.34526 0.23731 0.50215 0.0
C1970 C 0.37611 0.27937 0.52993 0.0
C1971 C 0.39342 0.29038 0.55552 0.0
C1972 C 0.40942 0.29847 0.52138 0.0
C1973 C 0.40792 0.29451 0.46199 0.0
C1974 C 0.39074 0.28332 0.43674 0.0
H1975 H 0.33562 0.22231 0.49631 0.0
H1976 H 0.35961 0.23989 0.50116 0.0
H1977 H 0.34265 0.24122 0.54542 0.0
H1978 H 0.36387 0.2742 0.55643 0.0
H1979 H 0.39418 0.29333 0.60128 0.0
H1980 H 0.77781 0.05346 0.22946 0.0
H1981 H 0.76674 0.07313 0.27118 0.0
H1982 H 0.76997 0.05433 0.44171 0.0
H1983 H 0.78099 0.0348 0.4009 0.0
H1984 H 0.73372 0.05852 0.33958 0.0
H1985 H 0.79472 0.11091 0.46062 0.0
H1986 H 0.79645 0.09736 0.40279 0.0
H1987 H 0.789 0.08747 0.47332 0.0
C1988 C 0.77643 0.05375 0.27589 0.0
C1989 C 0.78017 0.04246 0.31176 0.0
C1990 C 0.77011 0.06498 0.29962 0.0
C1991 C 0.76776 0.06534 0.35957 0.0
C1992 C 0.772 0.05451 0.39547 0.0
H1993 H 0.71604 0.10564 0.59785 0.0
H1994 H 0.73465 0.09382 0.55268 0.0
C1995 C 0.77814 0.04321 0.37189 0.0
C1996 C 0.75918 0.07554 0.38455 0.0
H1997 H 0.7659 0.10885 0.48248 0.0
C1998 C 0.74081 0.06969 0.37025 0.0
C1999 C 0.76841 0.08988 0.42524 0.0
C2000 C 0.78829 0.09692 0.44117 0.0
C2001 C 0.73121 0.07746 0.39664 0.0
C2002 C 0.74042 0.09187 0.43731 0.0
C2003 C 0.75888 0.09784 0.45129 0.0
C2004 C 0.73098 0.10079 0.46554 0.0
C2005 C 0.71108 0.06967 0.38217 0.0
C2006 C 0.72342 0.10926 0.43184 0.0
C2007 C 0.71267 0.11575 0.4573 0.0
C2008 C 0.70955 0.11426 0.51724 0.0
C2009 C 0.71817 0.10692 0.55158 0.0
C2010 C 0.72877 0.10016 0.52582 0.0
H2011 H 0.70491 0.05557 0.36366 0.0
H2012 H 0.70303 0.06911 0.42098 0.0
H2013 H 0.70971 0.07861 0.34956 0.0
H2014 H 0.72541 0.1104 0.3855 0.0
H2015 H 0.7065 0.12167 0.4298 0.0
H2016 H 0.59029 0.88799 0.06493 0.0
H2017 H 0.62026 0.89866 0.10996 0.0
H2018 H 0.64652 0.91445 0.94319 0.0
H2019 H 0.61624 0.90322 0.89725 0.0
H2020 H 0.66202 0.89888 0.01646 0.0
H2021 H 0.65526 0.95369 0.12905 0.0
H2022 H 0.63657 0.9309 0.14343 0.0
H2023 H 0.64002 0.94012 0.07144 0.0
C2024 C 0.60243 0.89359 0.03767 0.0
C2025 C 0.601 0.89509 0.97764 0.0
C2026 C 0.61954 0.89972 0.06353 0.0
C2027 C 0.63565 0.90783 0.03015 0.0
C2028 C 0.63423 0.90839 0.96977 0.0
H2029 H 0.75134 0.97244 0.09787 0.0
H2030 H 0.72091 0.95266 0.05675 0.0
C2031 C 0.61698 0.90197 0.94358 0.0
C2032 C 0.65391 0.91658 0.05895 0.0
H2033 H 0.6806 0.95021 0.15582 0.0
C2034 C 0.66611 0.91011 0.04688 0.0
C2035 C 0.65922 0.93126 0.09863 0.0
C2036 C 0.64717 0.93954 0.11107 0.0
C2037 C 0.68343 0.91784 0.0739 0.0
C2038 C 0.68867 0.93247 0.11359 0.0
C2039 C 0.67642 0.93881 0.12598 0.0
C2040 C 0.70738 0.94255 0.13905 0.0
C2041 C 0.69598 0.91027 0.06004 0.0
C2042 C 0.7099 0.94347 0.1992 0.0
C2043 C 0.72739 0.95484 0.22312 0.0
C2044 C 0.74253 0.96574 0.18716 0.0
C2045 C 0.73996 0.96435 0.1269 0.0
C2046 C 0.72259 0.9529 0.10317 0.0
H2047 H 0.68821 0.89614 0.0417 0.0
H2048 H 0.70632 0.9193 0.02761 0.0
H2049 H 0.70349 0.90996 0.09915 0.0
H2050 H 0.69825 0.93569 0.22762 0.0
H2051 H 0.72891 0.95564 0.26963 0.0
H2052 H 0.05406 0.77802 0.26977 0.0
H2053 H 0.07393 0.76715 0.22822 0.0
H2054 H 0.05577 0.77104 0.05734 0.0
H2055 H 0.03604 0.78185 0.09799 0.0
H2056 H 0.05949 0.73437 0.15842 0.0
H2057 H 0.11245 0.79581 0.04047 0.0
H2058 H 0.09873 0.79734 0.09815 0.0
H2059 H 0.08909 0.79025 0.02718 0.0
C2060 C 0.05454 0.77683 0.22332 0.0
C2061 C 0.04336 0.78067 0.18728 0.0
C2062 C 0.06588 0.77063 0.19968 0.0
C2063 C 0.06647 0.76852 0.13967 0.0
C2064 C 0.05578 0.77289 0.10363 0.0
H2065 H 0.10677 0.71716 0.90004 0.0
H2066 H 0.09519 0.73593 0.94569 0.0
C2067 C 0.04436 0.77889 0.12712 0.0
C2068 C 0.07674 0.76002 0.11466 0.0
H2069 H 0.1103 0.76703 0.01731 0.0
C2070 C 0.07077 0.74157 0.12817 0.0
C2071 C 0.09123 0.76938 0.0745 0.0
C2072 C 0.09839 0.78934 0.05945 0.0
C2073 C 0.07855 0.73203 0.10145 0.0
C2074 C 0.09309 0.74137 0.06126 0.0
C2075 C 0.09919 0.7599 0.04812 0.0
C2076 C 0.102 0.73197 0.03272 0.0
C2077 C 0.07063 0.71182 0.11502 0.0
C2078 C 0.11033 0.72421 0.06621 0.0
C2079 C 0.11667 0.71337 0.04048 0.0
C2080 C 0.11517 0.71036 0.9805 0.0
C2081 C 0.10804 0.71922 0.94635 0.0
C2082 C 0.10143 0.7299 0.97237 0.0
H2083 H 0.0565 0.70563 0.13328 0.0
H2084 H 0.07011 0.70393 0.07585 0.0
H2085 H 0.07947 0.71024 0.14755 0.0
H2086 H 0.11143 0.72608 0.1126 0.0
H2087 H 0.12244 0.70702 0.06782 0.0
H2088 H 0.25135 0.2681 0.13002 0.0
H2089 H 0.2605 0.2978 0.08618 0.0
H2090 H 0.22008 0.30257 0.18877 0.0
H2091 H 0.21117 0.27281 0.23471 0.0
H2092 H 0.24132 0.30874 0.02136 0.0
H2093 H 0.26568 0.35131 0.22096 0.0
H2094 H 0.26017 0.32757 0.21945 0.0
H2095 H 0.24204 0.33313 0.22137 0.0
C2096 C 0.2444 0.27544 0.1436 0.0
C2097 C 0.23056 0.26809 0.18608 0.0
C2098 C 0.24963 0.29243 0.11826 0.0
C2099 C 0.24109 0.30251 0.1343 0.0
C2100 C 0.22713 0.29521 0.17644 0.0
H2101 H 0.27679 0.4031 0.92059 0.0
H2102 H 0.25582 0.3731 0.96508 0.0
C2103 C 0.22202 0.2782 0.20258 0.0
C2104 C 0.24723 0.32067 0.10648 0.0
H2105 H 0.26977 0.36692 0.13348 0.0
C2106 C 0.24735 0.32149 0.04584 0.0
C2107 C 0.25507 0.33726 0.13852 0.0
C2108 C 0.25591 0.3374 0.20363 0.0
C2109 C 0.25609 0.3384 0.01634 0.0
C2110 C 0.26447 0.35499 0.04842 0.0
C2111 C 0.26333 0.35417 0.10899 0.0
C2112 C 0.2766 0.37317 0.02094 0.0
C2113 C 0.25729 0.3383 0.95133 0.0
C2114 C 0.29511 0.38329 0.03805 0.0
C2115 C 0.30694 0.40038 0.01347 0.0
C2116 C 0.30063 0.40782 0.97072 0.0
C2117 C 0.28211 0.39765 0.95298 0.0
C2118 C 0.27013 0.38051 0.9783 0.0
H2119 H 0.25329 0.32441 0.93419 0.0
H2120 H 0.24785 0.3426 0.93251 0.0
H2121 H 0.2715 0.34815 0.93649 0.0
H2122 H 0.30047 0.37789 0.07053 0.0
H2123 H 0.32114 0.40776 0.02801 0.0
H2124 H 0.92475 0.36551 0.2371 0.0
H2125 H 0.95503 0.38487 0.28018 0.0
H2126 H 0.97751 0.40718 0.11263 0.0
H2127 H 0.94708 0.38775 0.06871 0.0
H2128 H 0.99603 0.39149 0.17804 0.0
H2129 H 0.98589 0.44155 0.30749 0.0
H2130 H 0.96832 0.4178 0.31561 0.0
H2131 H 0.97125 0.42903 0.24721 0.0
C2132 C 0.93606 0.37466 0.2093 0.0
C2133 C 0.93352 0.37499 0.1493 0.0
C2134 C 0.95333 0.38584 0.23418 0.0
C2135 C 0.96844 0.39759 0.19971 0.0
C2136 C 0.96594 0.3983 0.13999 0.0
H2137 H 0.0859 0.45512 0.26864 0.0
H2138 H 0.0555 0.44371 0.22583 0.0
C2139 C 0.94857 0.38721 0.115 0.0
C2140 C 0.9871 0.40768 0.22553 0.0
H2141 H 0.01317 0.44024 0.3261 0.0
C2142 C 0.99988 0.4023 0.20991 0.0
C2143 C 0.99189 0.42153 0.26782 0.0
C2144 C 0.9787 0.42797 0.28537 0.0
C2145 C 0.01725 0.41012 0.2363 0.0
C2146 C 0.02218 0.42412 0.2783 0.0
C2147 C 0.0094 0.42956 0.29383 0.0
C2148 C 0.04063 0.43323 0.30604 0.0
C2149 C 0.0299 0.40283 0.22022 0.0
C2150 C 0.04245 0.43218 0.36606 0.0
C2151 C 0.05994 0.43903 0.391 0.0
C2152 C 0.07577 0.44685 0.35605 0.0
C2153 C 0.0739 0.44881 0.29653 0.0
C2154 C 0.05654 0.44225 0.27193 0.0
H2155 H 0.02218 0.38884 0.20084 0.0
H2156 H 0.04005 0.41212 0.18781 0.0
H2157 H 0.03757 0.4022 0.25844 0.0
H2158 H 0.03032 0.42541 0.39325 0.0
H2159 H 0.06099 0.43738 0.43697 0.0
H2160 H 0.63709 0.55553 0.23444 0.0
H2161 H 0.61744 0.56574 0.27944 0.0
H2162 H 0.60604 0.58049 0.11225 0.0
H2163 H 0.6254 0.56971 0.06652 0.0
H2164 H 0.62438 0.6003 0.27855 0.0
H2165 H 0.55528 0.55546 0.18356 0.0
H2166 H 0.57371 0.55026 0.17779 0.0
H2167 H 0.57298 0.56688 0.13025 0.0
C2168 C 0.63019 0.5607 0.20705 0.0
C2169 C 0.63289 0.56196 0.14692 0.0
C2170 C 0.61892 0.5665 0.23289 0.0
C2171 C 0.61016 0.5738 0.19934 0.0
C2172 C 0.61233 0.57454 0.13898 0.0
H2173 H 0.56251 0.6413 0.26542 0.0
H2174 H 0.57359 0.62164 0.22616 0.0
C2175 C 0.62347 0.56848 0.11287 0.0
C2176 C 0.60035 0.58224 0.22843 0.0
H2177 H 0.5596 0.5823 0.23399 0.0
C2178 C 0.61013 0.59618 0.26932 0.0
C2179 C 0.58177 0.57689 0.21634 0.0
C2180 C 0.57025 0.56143 0.17501 0.0
C2181 C 0.60206 0.60526 0.29721 0.0
C2182 C 0.58362 0.60016 0.28433 0.0
C2183 C 0.57372 0.58608 0.244 0.0
C2184 C 0.57503 0.61042 0.30875 0.0
C2185 C 0.61355 0.62072 0.33865 0.0
C2186 C 0.57171 0.61028 0.36827 0.0
C2187 C 0.56534 0.62158 0.39116 0.0
C2188 C 0.56231 0.63325 0.35479 0.0
C2189 C 0.56495 0.6327 0.29491 0.0
C2190 C 0.57118 0.62137 0.2722 0.0
H2191 H 0.62841 0.62503 0.33627 0.0
H2192 H 0.61198 0.6329 0.32967 0.0
H2193 H 0.60874 0.6161 0.38341 0.0
H2194 H 0.57442 0.60173 0.39711 0.0
H2195 H 0.56337 0.62161 0.43736 0.0
H2196 H 0.38583 0.94913 0.43455 0.0
H2197 H 0.40497 0.97933 0.38838 0.0
H2198 H 0.39291 0.95311 0.22131 0.0
H2199 H 0.37353 0.92322 0.2666 0.0
H2200 H 0.43552 0.99432 0.31344 0.0
H2201 H 0.37391 0.98904 0.20549 0.0
H2202 H 0.37223 0.97359 0.26246 0.0
H2203 H 0.37743 0.97004 0.18982 0.0
C2204 C 0.38746 0.94985 0.38807 0.0
C2205 C 0.37791 0.93391 0.35408 0.0
C2206 C 0.39836 0.96706 0.36176 0.0
C2207 C 0.39994 0.96848 0.3013 0.0
C2208 C 0.39144 0.9524 0.26785 0.0
H2209 H 0.44595 0.06159 0.06167 0.0
H2210 H 0.43502 0.03092 0.10386 0.0
C2211 C 0.3804 0.93533 0.29386 0.0
C2212 C 0.4096 0.98675 0.27258 0.0
H2213 H 0.40285 0.01395 0.17732 0.0
C2214 C 0.4284 0.99864 0.28374 0.0
C2215 C 0.40024 0.99236 0.23387 0.0
C2216 C 0.37981 0.98068 0.22255 0.0
C2217 C 0.43814 0.01595 0.25671 0.0
C2218 C 0.42877 0.02148 0.21791 0.0
C2219 C 0.41004 0.00954 0.20647 0.0
C2220 C 0.43761 0.04017 0.19237 0.0
C2221 C 0.45837 0.02818 0.26958 0.0
C2222 C 0.44274 0.05545 0.2282 0.0
C2223 C 0.44877 0.07283 0.20437 0.0
C2224 C 0.44981 0.07533 0.1441 0.0
C2225 C 0.44534 0.06012 0.1082 0.0
C2226 C 0.4391 0.04263 0.1322 0.0
H2227 H 0.46455 0.02023 0.28786 0.0
H2228 H 0.46608 0.03542 0.23 0.0
H2229 H 0.46009 0.03877 0.30168 0.0
H2230 H 0.44139 0.05381 0.27465 0.0
H2231 H 0.45224 0.08427 0.23332 0.0
H2232 H 0.56548 0.9476 0.93119 0.0
H2233 H 0.57638 0.97808 0.8878 0.0
H2234 H 0.57334 0.95525 0.71866 0.0
H2235 H 0.56248 0.92493 0.76116 0.0
H2236 H 0.60946 0.99624 0.81892 0.0
H2237 H 0.5482 0.98674 0.69723 0.0
H2238 H 0.54659 0.97186 0.75614 0.0
H2239 H 0.55407 0.96905 0.6861 0.0
C2240 C 0.56686 0.94903 0.88471 0.0
C2241 C 0.56322 0.93385 0.84974 0.0
C2242 C 0.57309 0.96643 0.86001 0.0
C2243 C 0.57544 0.96885 0.79998 0.0
C2244 C 0.5713 0.95363 0.76494 0.0
H2245 H 0.62689 0.06113 0.56123 0.0
H2246 H 0.60835 0.03053 0.60551 0.0
C2247 C 0.56526 0.93633 0.78949 0.0
C2248 C 0.58392 0.9875 0.7741 0.0
H2249 H 0.57681 0.0137 0.67563 0.0
C2250 C 0.60227 0.00016 0.78811 0.0
C2251 C 0.57457 0.9924 0.7332 0.0
C2252 C 0.55471 0.97937 0.71747 0.0
C2253 C 0.61171 0.01748 0.76143 0.0
C2254 C 0.60235 0.0225 0.72076 0.0
C2255 C 0.58394 0.00985 0.70686 0.0
C2256 C 0.61158 0.04091 0.69285 0.0
C2257 C 0.63183 0.03001 0.77574 0.0
C2258 C 0.61883 0.05686 0.72694 0.0
C2259 C 0.62952 0.07418 0.70201 0.0
C2260 C 0.6329 0.07599 0.64222 0.0
C2261 C 0.62454 0.06013 0.60741 0.0
C2262 C 0.61399 0.04268 0.63265 0.0
H2263 H 0.63815 0.02221 0.79414 0.0
H2264 H 0.6398 0.03755 0.73689 0.0
H2265 H 0.63309 0.04027 0.8084 0.0
H2266 H 0.61669 0.05586 0.77322 0.0
H2267 H 0.6355 0.08619 0.72984 0.0
H2268 H 0.08375 0.64249 0.76644 0.0
H2269 H 0.05317 0.62273 0.72616 0.0
H2270 H 0.03225 0.60136 0.89581 0.0
H2271 H 0.06299 0.6213 0.93709 0.0
H2272 H 0.02847 0.58304 0.73203 0.0
H2273 H 0.00078 0.62409 0.83642 0.0
H2274 H 0.0252 0.63252 0.82987 0.0
H2275 H 0.01186 0.61538 0.88301 0.0
C2276 C 0.07271 0.63356 0.79543 0.0
C2277 C 0.07579 0.63368 0.85526 0.0
C2278 C 0.05525 0.62219 0.77213 0.0
C2279 C 0.04045 0.61076 0.80804 0.0
C2280 C 0.04351 0.61026 0.86749 0.0
H2281 H 0.92358 0.554 0.73274 0.0
H2282 H 0.95352 0.56452 0.77771 0.0
C2283 C 0.06108 0.62161 0.89095 0.0
C2284 C 0.02168 0.60029 0.78314 0.0
H2285 H 0.98054 0.59936 0.77781 0.0
C2286 C 0.01789 0.58646 0.74228 0.0
C2287 C 0.00802 0.60492 0.79637 0.0
C2288 C 0.0116 0.62012 0.83847 0.0
C2289 C 0.00069 0.57702 0.71444 0.0
C2290 C 0.98713 0.58188 0.72692 0.0
C2291 C 0.99092 0.5956 0.7683 0.0
C2292 C 0.96889 0.57317 0.69774 0.0
C2293 C 0.99715 0.56181 0.67254 0.0
C2294 C 0.96747 0.57411 0.63744 0.0
C2295 C 0.95024 0.56786 0.61136 0.0
C2296 C 0.93426 0.56096 0.64539 0.0
C2297 C 0.93569 0.55946 0.70541 0.0
C2298 C 0.95279 0.56543 0.73121 0.0
H2299 H 0.00643 0.55614 0.68074 0.0
H2300 H 0.98264 0.55039 0.67505 0.0
H2301 H 0.99979 0.56741 0.62798 0.0
H2302 H 0.97973 0.58038 0.6108 0.0
H2303 H 0.94954 0.56928 0.56509 0.0
H2304 H 0.44854 0.36972 0.73065 0.0
H2305 H 0.43707 0.38928 0.76849 0.0
H2306 H 0.43252 0.40548 0.59541 0.0
H2307 H 0.44405 0.38582 0.55669 0.0
H2308 H 0.44988 0.42917 0.74971 0.0
H2309 H 0.37918 0.3804 0.66924 0.0
H2310 H 0.39657 0.37383 0.67694 0.0
H2311 H 0.3978 0.38834 0.61814 0.0
C2312 C 0.44523 0.37752 0.70044 0.0
C2313 C 0.44698 0.37602 0.6405 0.0
C2314 C 0.43879 0.38878 0.72228 0.0
C2315 C 0.43381 0.39866 0.68473 0.0
C2316 C 0.4362 0.39782 0.625 0.0
H2317 H 0.36848 0.45028 0.75586 0.0
H2318 H 0.38776 0.4397 0.7103 0.0
C2319 C 0.44281 0.38664 0.603 0.0
C2320 C 0.42495 0.40874 0.7084 0.0
H2321 H 0.38318 0.40617 0.72113 0.0
C2322 C 0.43533 0.42429 0.7432 0.0
C2323 C 0.40597 0.40221 0.7 0.0
C2324 C 0.39411 0.38522 0.6644 0.0
C2325 C 0.4272 0.4336 0.76964 0.0
C2326 C 0.4081 0.42684 0.76217 0.0
C2327 C 0.39782 0.41137 0.72682 0.0
C2328 C 0.39827 0.43536 0.79055 0.0
C2329 C 0.43918 0.45068 0.80461 0.0
C2330 C 0.39796 0.43676 0.85102 0.0
C2331 C 0.38703 0.44302 0.87736 0.0
C2332 C 0.37595 0.44761 0.84363 0.0
C2333 C 0.37669 0.44664 0.78314 0.0
C2334 C 0.38775 0.44064 0.75696 0.0
H2335 H 0.45391 0.45708 0.79188 0.0
H2336 H 0.43473 0.46107 0.79961 0.0
H2337 H 0.43812 0.4469 0.85093 0.0
H2338 H 0.40562 0.43237 0.87795 0.0
H2339 H 0.38665 0.44352 0.92404 0.0
loop_
_geom_bond_atom_site_label_1
_geom_bond_atom_site_label_2
_geom_bond_distance
_geom_bond_site_symmetry_2
_ccdc_geom_bond_type
Sc0 O3 2.025 . S
Sc0 O10 2.105 . S
Sc0 O13 2.105 1_455 S
Sc0 O16 2.105 1_455 S
Sc0 O19 2.105 . S
Sc1 O3 2.025 . S
Sc1 O11 2.105 . S
Sc1 O15 2.105 1_455 S
Sc1 O17 2.105 1_455 S
Sc1 O21 2.105 . S
Sc2 O3 2.025 . S
Sc2 O12 2.105 . S
Sc2 O14 2.105 1_455 S
Sc2 O18 2.105 1_455 S
Sc2 O20 2.105 . S
O3 Sc0 2.025 . S
O3 Sc1 2.025 . S
O3 Sc2 2.025 . S
C4 O10 1.268 . S
C4 O20 1.268 . S
C5 O11 1.268 . S
C5 O19 1.268 . S
C6 O12 1.268 . S
C6 O21 1.268 . S
C7 O13 1.268 . S
C7 O17 1.268 . S
C8 O14 1.268 . S
C8 O16 1.268 . S
C9 O15 1.268 . S
C9 O18 1.268 . S
O10 Sc0 2.105 . S
O10 C4 1.268 . S
O11 Sc1 2.105 . S
O11 C5 1.268 . S
O12 Sc2 2.105 . S
O12 C6 1.268 . S
O13 Sc0 2.105 1_655 S
O13 C7 1.268 . S
O14 Sc2 2.105 1_655 S
O14 C8 1.268 . S
O15 Sc1 2.105 1_655 S
O15 C9 1.268 . S
O16 Sc0 2.105 1_655 S
O16 C8 1.268 . S
O17 Sc1 2.105 1_655 S
O17 C7 1.268 . S
O18 Sc2 2.105 1_655 S
O18 C9 1.268 . S
O19 Sc0 2.105 . S
O19 C5 1.268 . S
O20 Sc2 2.105 . S
O20 C4 1.268 . S
O21 Sc1 2.105 . S
O21 C6 1.268 . S
Sc22 O25 2.025 . S
Sc22 O32 2.105 . S
Sc22 O35 2.105 . S
Sc22 O38 2.105 . S
Sc22 O41 2.105 . S
Sc23 O25 2.025 . S
Sc23 O33 2.105 . S
Sc23 O37 2.105 . S
Sc23 O39 2.105 . S
Sc23 O43 2.105 . S
Sc24 O25 2.025 . S
Sc24 O34 2.105 . S
Sc24 O36 2.105 . S
Sc24 O40 2.105 . S
Sc24 O42 2.105 . S
O25 Sc22 2.025 . S
O25 Sc23 2.025 . S
O25 Sc24 2.025 . S
C26 O32 1.268 . S
C26 O42 1.268 . S
C27 O33 1.268 . S
C27 O41 1.268 . S
C28 O34 1.268 . S
C28 O43 1.268 . S
C29 O35 1.268 . S
C29 O39 1.268 . S
C30 O36 1.268 . S
C30 O38 1.268 . S
C31 O37 1.268 . S
C31 O40 1.268 . S
O32 Sc22 2.105 . S
O32 C26 1.268 . S
O33 Sc23 2.105 . S
O33 C27 1.268 . S
O34 Sc24 2.105 . S
O34 C28 1.268 . S
O35 Sc22 2.105 . S
O35 C29 1.268 . S
O36 Sc24 2.105 . S
O36 C30 1.268 . S
O37 Sc23 2.105 . S
O37 C31 1.268 . S
O38 Sc22 2.105 . S
O38 C30 1.268 . S
O39 Sc23 2.105 . S
O39 C29 1.268 . S
O40 Sc24 2.105 . S
O40 C31 1.268 . S
O41 Sc22 2.105 . S
O41 C27 1.268 . S
O42 Sc24 2.105 . S
O42 C26 1.268 . S
O43 Sc23 2.105 . S
O43 C28 1.268 . S
Sc44 O47 2.025 . S
Sc44 O54 2.105 1_545 S
Sc44 O57 2.105 . S
Sc44 O60 2.105 . S
Sc44 O63 2.105 1_545 S
Sc45 O47 2.025 . S
Sc45 O55 2.105 1_545 S
Sc45 O59 2.105 . S
Sc45 O61 2.105 . S
Sc45 O65 2.105 1_545 S
Sc46 O47 2.025 . S
Sc46 O56 2.105 1_545 S
Sc46 O58 2.105 . S
Sc46 O62 2.105 . S
Sc46 O64 2.105 1_545 S
O47 Sc44 2.025 . S
O47 Sc45 2.025 . S
O47 Sc46 2.025 . S
C48 O54 1.268 . S
C48 O64 1.268 . S
C49 O55 1.268 . S
C49 O63 1.268 . S
C50 O56 1.268 . S
C50 O65 1.268 . S
C51 O57 1.268 . S
C51 O61 1.268 . S
C52 O58 1.268 . S
C52 O60 1.268 . S
C53 O59 1.268 . S
C53 O62 1.268 . S
O54 Sc44 2.105 1_565 S
O54 C48 1.268 . S
O55 Sc45 2.105 1_565 S
O55 C49 1.268 . S
O56 Sc46 2.105 1_565 S
O56 C50 1.268 . S
O57 Sc44 2.105 . S
O57 C51 1.268 . S
O58 Sc46 2.105 . S
O58 C52 1.268 . S
O59 Sc45 2.105 . S
O59 C53 1.268 . S
O60 Sc44 2.105 . S
O60 C52 1.268 . S
O61 Sc45 2.105 . S
O61 C51 1.268 . S
O62 Sc46 2.105 . S
O62 C53 1.268 . S
O63 Sc44 2.105 1_565 S
O63 C49 1.268 . S
O64 Sc46 2.105 1_565 S
O64 C48 1.268 . S
O65 Sc45 2.105 1_565 S
O65 C50 1.268 . S
Sc66 O69 2.025 . S
Sc66 O76 2.105 . S
Sc66 O79 2.105 1_455 S
Sc66 O82 2.105 1_455 S
Sc66 O85 2.105 . S
Sc67 O69 2.025 . S
Sc67 O77 2.105 . S
Sc67 O81 2.105 1_455 S
Sc67 O83 2.105 1_455 S
Sc67 O87 2.105 . S
Sc68 O69 2.025 . S
Sc68 O78 2.105 . S
Sc68 O80 2.105 1_455 S
Sc68 O84 2.105 1_455 S
Sc68 O86 2.105 . S
O69 Sc66 2.025 . S
O69 Sc67 2.025 . S
O69 Sc68 2.025 . S
C70 O76 1.268 . S
C70 O86 1.268 . S
C71 O77 1.268 . S
C71 O85 1.268 . S
C72 O78 1.268 . S
C72 O87 1.268 . S
C73 O79 1.268 . S
C73 O83 1.268 . S
C74 O80 1.268 . S
C74 O82 1.268 . S
C75 O81 1.268 . S
C75 O84 1.268 . S
O76 Sc66 2.105 . S
O76 C70 1.268 . S
O77 Sc67 2.105 . S
O77 C71 1.268 . S
O78 Sc68 2.105 . S
O78 C72 1.268 . S
O79 Sc66 2.105 1_655 S
O79 C73 1.268 . S
O80 Sc68 2.105 1_655 S
O80 C74 1.268 . S
O81 Sc67 2.105 1_655 S
O81 C75 1.268 . S
O82 Sc66 2.105 1_655 S
O82 C74 1.268 . S
O83 Sc67 2.105 1_655 S
O83 C73 1.268 . S
O84 Sc68 2.105 1_655 S
O84 C75 1.268 . S
O85 Sc66 2.105 . S
O85 C71 1.268 . S
O86 Sc68 2.105 . S
O86 C70 1.268 . S
O87 Sc67 2.105 . S
O87 C72 1.268 . S
Sc88 O91 2.025 . S
Sc88 O98 2.105 . S
Sc88 O101 2.105 . S
Sc88 O104 2.105 . S
Sc88 O107 2.105 . S
Sc89 O91 2.025 . S
Sc89 O99 2.105 . S
Sc89 O103 2.105 . S
Sc89 O105 2.105 . S
Sc89 O109 2.105 . S
Sc90 O91 2.025 . S
Sc90 O100 2.105 . S
Sc90 O102 2.105 . S
Sc90 O106 2.105 . S
Sc90 O108 2.105 . S
O91 Sc88 2.025 . S
O91 Sc89 2.025 . S
O91 Sc90 2.025 . S
C92 O98 1.268 . S
C92 O108 1.268 . S
C93 O99 1.268 . S
C93 O107 1.268 . S
C94 O100 1.268 . S
C94 O109 1.268 . S
C95 O101 1.268 . S
C95 O105 1.268 . S
C96 O102 1.268 . S
C96 O104 1.268 . S
C97 O103 1.268 . S
C97 O106 1.268 . S
O98 Sc88 2.105 . S
O98 C92 1.268 . S
O99 Sc89 2.105 . S
O99 C93 1.268 . S
O100 Sc90 2.105 . S
O100 C94 1.268 . S
O101 Sc88 2.105 . S
O101 C95 1.268 . S
O102 Sc90 2.105 . S
O102 C96 1.268 . S
O103 Sc89 2.105 . S
O103 C97 1.268 . S
O104 Sc88 2.105 . S
O104 C96 1.268 . S
O105 Sc89 2.105 . S
O105 C95 1.268 . S
O106 Sc90 2.105 . S
O106 C97 1.268 . S
O107 Sc88 2.105 . S
O107 C93 1.268 . S
O108 Sc90 2.105 . S
O108 C92 1.268 . S
O109 Sc89 2.105 . S
O109 C94 1.268 . S
Sc110 O113 2.025 . S
Sc110 O120 2.105 1_545 S
Sc110 O123 2.105 . S
Sc110 O126 2.105 . S
Sc110 O129 2.105 1_545 S
Sc111 O113 2.025 . S
Sc111 O121 2.105 1_545 S
Sc111 O125 2.105 . S
Sc111 O127 2.105 . S
Sc111 O131 2.105 1_545 S
Sc112 O113 2.025 . S
Sc112 O122 2.105 1_545 S
Sc112 O124 2.105 . S
Sc112 O128 2.105 . S
Sc112 O130 2.105 1_545 S
O113 Sc110 2.025 . S
O113 Sc111 2.025 . S
O113 Sc112 2.025 . S
C114 O120 1.268 . S
C114 O130 1.268 . S
C115 O121 1.268 . S
C115 O129 1.268 . S
C116 O122 1.268 . S
C116 O131 1.268 . S
C117 O123 1.268 . S
C117 O127 1.268 . S
C118 O124 1.268 . S
C118 O126 1.268 . S
C119 O125 1.268 . S
C119 O128 1.268 . S
O120 Sc110 2.105 1_565 S
O120 C114 1.268 . S
O121 Sc111 2.105 1_565 S
O121 C115 1.268 . S
O122 Sc112 2.105 1_565 S
O122 C116 1.268 . S
O123 Sc110 2.105 . S
O123 C117 1.268 . S
O124 Sc112 2.105 . S
O124 C118 1.268 . S
O125 Sc111 2.105 . S
O125 C119 1.268 . S
O126 Sc110 2.105 . S
O126 C118 1.268 . S
O127 Sc111 2.105 . S
O127 C117 1.268 . S
O128 Sc112 2.105 . S
O128 C119 1.268 . S
O129 Sc110 2.105 1_565 S
O129 C115 1.268 . S
O130 Sc112 2.105 1_565 S
O130 C114 1.268 . S
O131 Sc111 2.105 1_565 S
O131 C116 1.268 . S
Sc132 O135 2.025 . S
Sc132 O142 2.105 . S
Sc132 O145 2.105 . S
Sc132 O148 2.105 . S
Sc132 O151 2.105 . S
Sc133 O135 2.025 . S
Sc133 O143 2.105 . S
Sc133 O147 2.105 . S
Sc133 O149 2.105 . S
Sc133 O153 2.105 . S
Sc134 O135 2.025 . S
Sc134 O144 2.105 . S
Sc134 O146 2.105 1_554 S
Sc134 O150 2.105 . S
Sc134 O152 2.105 1_554 S
O135 Sc132 2.025 . S
O135 Sc133 2.025 . S
O135 Sc134 2.025 . S
C136 O142 1.268 1_556 S
C136 O152 1.268 . S
C137 O143 1.268 . S
C137 O151 1.268 . S
C138 O144 1.268 . S
C138 O153 1.268 . S
C139 O145 1.268 . S
C139 O149 1.268 . S
C140 O146 1.268 . S
C140 O148 1.268 1_556 S
C141 O147 1.268 . S
C141 O150 1.268 . S
O142 Sc132 2.105 . S
O142 C136 1.268 1_554 S
O143 Sc133 2.105 . S
O143 C137 1.268 . S
O144 Sc134 2.105 . S
O144 C138 1.268 . S
O145 Sc132 2.105 . S
O145 C139 1.268 . S
O146 Sc134 2.105 1_556 S
O146 C140 1.268 . S
O147 Sc133 2.105 . S
O147 C141 1.268 . S
O148 Sc132 2.105 . S
O148 C140 1.268 1_554 S
O149 Sc133 2.105 . S
O149 C139 1.268 . S
O150 Sc134 2.105 . S
O150 C141 1.268 . S
O151 Sc132 2.105 . S
O151 C137 1.268 . S
O152 Sc134 2.105 1_556 S
O152 C136 1.268 . S
O153 Sc133 2.105 . S
O153 C138 1.268 . S
Sc154 O157 2.025 . S
Sc154 O164 2.105 . S
Sc154 O167 2.105 . S
Sc154 O170 2.105 . S
Sc154 O173 2.105 . S
Sc155 O157 2.025 . S
Sc155 O165 2.105 . S
Sc155 O169 2.105 . S
Sc155 O171 2.105 . S
Sc155 O175 2.105 . S
Sc156 O157 2.025 . S
Sc156 O166 2.105 . S
Sc156 O168 2.105 1_554 S
Sc156 O172 2.105 . S
Sc156 O174 2.105 1_554 S
O157 Sc154 2.025 . S
O157 Sc155 2.025 . S
O157 Sc156 2.025 . S
C158 O164 1.268 1_556 S
C158 O174 1.268 . S
C159 O165 1.268 . S
C159 O173 1.268 . S
C160 O166 1.268 . S
C160 O175 1.268 . S
C161 O167 1.268 . S
C161 O171 1.268 . S
C162 O168 1.268 . S
C162 O170 1.268 1_556 S
C163 O169 1.268 . S
C163 O172 1.268 . S
O164 Sc154 2.105 . S
O164 C158 1.268 1_554 S
O165 Sc155 2.105 . S
O165 C159 1.268 . S
O166 Sc156 2.105 . S
O166 C160 1.268 . S
O167 Sc154 2.105 . S
O167 C161 1.268 . S
O168 Sc156 2.105 1_556 S
O168 C162 1.268 . S
O169 Sc155 2.105 . S
O169 C163 1.268 . S
O170 Sc154 2.105 . S
O170 C162 1.268 1_554 S
O171 Sc155 2.105 . S
O171 C161 1.268 . S
O172 Sc156 2.105 . S
O172 C163 1.268 . S
O173 Sc154 2.105 . S
O173 C159 1.268 . S
O174 Sc156 2.105 1_556 S
O174 C158 1.268 . S
O175 Sc155 2.105 . S
O175 C160 1.268 . S
Sc176 O179 2.025 . S
Sc176 O186 2.105 . S
Sc176 O189 2.105 . S
Sc176 O192 2.105 . S
Sc176 O195 2.105 . S
Sc177 O179 2.025 . S
Sc177 O187 2.105 . S
Sc177 O191 2.105 . S
Sc177 O193 2.105 . S
Sc177 O197 2.105 . S
Sc178 O179 2.025 . S
Sc178 O188 2.105 . S
Sc178 O190 2.105 1_554 S
Sc178 O194 2.105 . S
Sc178 O196 2.105 1_554 S
O179 Sc176 2.025 . S
O179 Sc177 2.025 . S
O179 Sc178 2.025 . S
C180 O186 1.268 1_556 S
C180 O196 1.268 . S
C181 O187 1.268 . S
C181 O195 1.268 . S
C182 O188 1.268 . S
C182 O197 1.268 . S
C183 O189 1.268 . S
C183 O193 1.268 . S
C184 O190 1.268 . S
C184 O192 1.268 1_556 S
C185 O191 1.268 . S
C185 O194 1.268 . S
O186 Sc176 2.105 . S
O186 C180 1.268 1_554 S
O187 Sc177 2.105 . S
O187 C181 1.268 . S
O188 Sc178 2.105 . S
O188 C182 1.268 . S
O189 Sc176 2.105 . S
O189 C183 1.268 . S
O190 Sc178 2.105 1_556 S
O190 C184 1.268 . S
O191 Sc177 2.105 . S
O191 C185 1.268 . S
O192 Sc176 2.105 . S
O192 C184 1.268 1_554 S
O193 Sc177 2.105 . S
O193 C183 1.268 . S
O194 Sc178 2.105 . S
O194 C185 1.268 . S
O195 Sc176 2.105 . S
O195 C181 1.268 . S
O196 Sc178 2.105 1_556 S
O196 C180 1.268 . S
O197 Sc177 2.105 . S
O197 C182 1.268 . S
Sc198 O201 2.025 . S
Sc198 O208 2.105 . S
Sc198 O211 2.105 . S
Sc198 O214 2.105 . S
Sc198 O217 2.105 . S
Sc199 O201 2.025 . S
Sc199 O209 2.105 . S
Sc199 O213 2.105 . S
Sc199 O215 2.105 . S
Sc199 O219 2.105 . S
Sc200 O201 2.025 . S
Sc200 O210 2.105 . S
Sc200 O212 2.105 . S
Sc200 O216 2.105 . S
Sc200 O218 2.105 . S
O201 Sc198 2.025 . S
O201 Sc199 2.025 . S
O201 Sc200 2.025 . S
C202 O208 1.268 . S
C202 O218 1.268 . S
C203 O209 1.268 . S
C203 O217 1.268 . S
C204 O210 1.268 . S
C204 O219 1.268 . S
C205 O211 1.268 . S
C205 O215 1.268 . S
C206 O212 1.268 . S
C206 O214 1.268 . S
C207 O213 1.268 . S
C207 O216 1.268 . S
O208 Sc198 2.105 . S
O208 C202 1.268 . S
O209 Sc199 2.105 . S
O209 C203 1.268 . S
O210 Sc200 2.105 . S
O210 C204 1.268 . S
O211 Sc198 2.105 . S
O211 C205 1.268 . S
O212 Sc200 2.105 . S
O212 C206 1.268 . S
O213 Sc199 2.105 . S
O213 C207 1.268 . S
O214 Sc198 2.105 . S
O214 C206 1.268 . S
O215 Sc199 2.105 . S
O215 C205 1.268 . S
O216 Sc200 2.105 . S
O216 C207 1.268 . S
O217 Sc198 2.105 . S
O217 C203 1.268 . S
O218 Sc200 2.105 . S
O218 C202 1.268 . S
O219 Sc199 2.105 . S
O219 C204 1.268 . S
Sc220 O223 2.025 . S
Sc220 O230 2.105 . S
Sc220 O233 2.105 . S
Sc220 O236 2.105 . S
Sc220 O239 2.105 . S
Sc221 O223 2.025 . S
Sc221 O231 2.105 . S
Sc221 O235 2.105 . S
Sc221 O237 2.105 . S
Sc221 O241 2.105 . S
Sc222 O223 2.025 . S
Sc222 O232 2.105 . S
Sc222 O234 2.105 . S
Sc222 O238 2.105 . S
Sc222 O240 2.105 . S
O223 Sc220 2.025 . S
O223 Sc221 2.025 . S
O223 Sc222 2.025 . S
C224 O230 1.268 . S
C224 O240 1.268 . S
C225 O231 1.268 . S
C225 O239 1.268 . S
C226 O232 1.268 . S
C226 O241 1.268 . S
C227 O233 1.268 . S
C227 O237 1.268 . S
C228 O234 1.268 . S
C228 O236 1.268 . S
C229 O235 1.268 . S
C229 O238 1.268 . S
O230 Sc220 2.105 . S
O230 C224 1.268 . S
O231 Sc221 2.105 . S
O231 C225 1.268 . S
O232 Sc222 2.105 . S
O232 C226 1.268 . S
O233 Sc220 2.105 . S
O233 C227 1.268 . S
O234 Sc222 2.105 . S
O234 C228 1.268 . S
O235 Sc221 2.105 . S
O235 C229 1.268 . S
O236 Sc220 2.105 . S
O236 C228 1.268 . S
O237 Sc221 2.105 . S
O237 C227 1.268 . S
O238 Sc222 2.105 . S
O238 C229 1.268 . S
O239 Sc220 2.105 . S
O239 C225 1.268 . S
O240 Sc222 2.105 . S
O240 C224 1.268 . S
O241 Sc221 2.105 . S
O241 C226 1.268 . S
Sc242 O245 2.025 . S
Sc242 O252 2.105 . S
Sc242 O255 2.105 . S
Sc242 O258 2.105 . S
Sc242 O261 2.105 . S
Sc243 O245 2.025 . S
Sc243 O253 2.105 . S
Sc243 O257 2.105 . S
Sc243 O259 2.105 . S
Sc243 O263 2.105 . S
Sc244 O245 2.025 . S
Sc244 O254 2.105 . S
Sc244 O256 2.105 . S
Sc244 O260 2.105 . S
Sc244 O262 2.105 . S
O245 Sc242 2.025 . S
O245 Sc243 2.025 . S
O245 Sc244 2.025 . S
C246 O252 1.268 . S
C246 O262 1.268 . S
C247 O253 1.268 . S
C247 O261 1.268 . S
C248 O254 1.268 . S
C248 O263 1.268 . S
C249 O255 1.268 . S
C249 O259 1.268 . S
C250 O256 1.268 . S
C250 O258 1.268 . S
C251 O257 1.268 . S
C251 O260 1.268 . S
O252 Sc242 2.105 . S
O252 C246 1.268 . S
O253 Sc243 2.105 . S
O253 C247 1.268 . S
O254 Sc244 2.105 . S
O254 C248 1.268 . S
O255 Sc242 2.105 . S
O255 C249 1.268 . S
O256 Sc244 2.105 . S
O256 C250 1.268 . S
O257 Sc243 2.105 . S
O257 C251 1.268 . S
O258 Sc242 2.105 . S
O258 C250 1.268 . S
O259 Sc243 2.105 . S
O259 C249 1.268 . S
O260 Sc244 2.105 . S
O260 C251 1.268 . S
O261 Sc242 2.105 . S
O261 C247 1.268 . S
O262 Sc244 2.105 . S
O262 C246 1.268 . S
O263 Sc243 2.105 . S
O263 C248 1.268 . S
Sc264 O267 2.025 . S
Sc264 O274 2.105 . S
Sc264 O277 2.105 . S
Sc264 O280 2.105 . S
Sc264 O283 2.105 . S
Sc265 O267 2.025 . S
Sc265 O275 2.105 . S
Sc265 O279 2.105 . S
Sc265 O281 2.105 . S
Sc265 O285 2.105 . S
Sc266 O267 2.025 . S
Sc266 O276 2.105 . S
Sc266 O278 2.105 . S
Sc266 O282 2.105 . S
Sc266 O284 2.105 . S
O267 Sc264 2.025 . S
O267 Sc265 2.025 . S
O267 Sc266 2.025 . S
C268 O274 1.268 . S
C268 O284 1.268 . S
C269 O275 1.268 . S
C269 O283 1.268 . S
C270 O276 1.268 . S
C270 O285 1.268 . S
C271 O277 1.268 . S
C271 O281 1.268 . S
C272 O278 1.268 . S
C272 O280 1.268 . S
C273 O279 1.268 . S
C273 O282 1.268 . S
O274 Sc264 2.105 . S
O274 C268 1.268 . S
O275 Sc265 2.105 . S
O275 C269 1.268 . S
O276 Sc266 2.105 . S
O276 C270 1.268 . S
O277 Sc264 2.105 . S
O277 C271 1.268 . S
O278 Sc266 2.105 . S
O278 C272 1.268 . S
O279 Sc265 2.105 . S
O279 C273 1.268 . S
O280 Sc264 2.105 . S
O280 C272 1.268 . S
O281 Sc265 2.105 . S
O281 C271 1.268 . S
O282 Sc266 2.105 . S
O282 C273 1.268 . S
O283 Sc264 2.105 . S
O283 C269 1.268 . S
O284 Sc266 2.105 . S
O284 C268 1.268 . S
O285 Sc265 2.105 . S
O285 C270 1.268 . S
Sc286 O289 2.025 . S
Sc286 O296 2.105 . S
Sc286 O299 2.105 . S
Sc286 O302 2.105 . S
Sc286 O305 2.105 . S
Sc287 O289 2.025 . S
Sc287 O297 2.105 . S
Sc287 O301 2.105 . S
Sc287 O303 2.105 . S
Sc287 O307 2.105 . S
Sc288 O289 2.025 . S
Sc288 O298 2.105 . S
Sc288 O300 2.105 . S
Sc288 O304 2.105 . S
Sc288 O306 2.105 . S
O289 Sc286 2.025 . S
O289 Sc287 2.025 . S
O289 Sc288 2.025 . S
C290 O296 1.268 . S
C290 O306 1.268 . S
C291 O297 1.268 . S
C291 O305 1.268 . S
C292 O298 1.268 . S
C292 O307 1.268 . S
C293 O299 1.268 . S
C293 O303 1.268 . S
C294 O300 1.268 . S
C294 O302 1.268 . S
C295 O301 1.268 . S
C295 O304 1.268 . S
O296 Sc286 2.105 . S
O296 C290 1.268 . S
O297 Sc287 2.105 . S
O297 C291 1.268 . S
O298 Sc288 2.105 . S
O298 C292 1.268 . S
O299 Sc286 2.105 . S
O299 C293 1.268 . S
O300 Sc288 2.105 . S
O300 C294 1.268 . S
O301 Sc287 2.105 . S
O301 C295 1.268 . S
O302 Sc286 2.105 . S
O302 C294 1.268 . S
O303 Sc287 2.105 . S
O303 C293 1.268 . S
O304 Sc288 2.105 . S
O304 C295 1.268 . S
O305 Sc286 2.105 . S
O305 C291 1.268 . S
O306 Sc288 2.105 . S
O306 C290 1.268 . S
O307 Sc287 2.105 . S
O307 C292 1.268 . S
Sc308 O311 2.025 . S
Sc308 O318 2.105 . S
Sc308 O321 2.105 . S
Sc308 O324 2.105 . S
Sc308 O327 2.105 . S
Sc309 O311 2.025 . S
Sc309 O319 2.105 . S
Sc309 O323 2.105 . S
Sc309 O325 2.105 . S
Sc309 O329 2.105 . S
Sc310 O311 2.025 . S
Sc310 O320 2.105 . S
Sc310 O322 2.105 . S
Sc310 O326 2.105 . S
Sc310 O328 2.105 . S
O311 Sc308 2.025 . S
O311 Sc309 2.025 . S
O311 Sc310 2.025 . S
C312 O318 1.268 . S
C312 O328 1.268 . S
C313 O319 1.268 . S
C313 O327 1.268 . S
C314 O320 1.268 . S
C314 O329 1.268 . S
C315 O321 1.268 . S
C315 O325 1.268 . S
C316 O322 1.268 . S
C316 O324 1.268 . S
C317 O323 1.268 . S
C317 O326 1.268 . S
O318 Sc308 2.105 . S
O318 C312 1.268 . S
O319 Sc309 2.105 . S
O319 C313 1.268 . S
O320 Sc310 2.105 . S
O320 C314 1.268 . S
O321 Sc308 2.105 . S
O321 C315 1.268 . S
O322 Sc310 2.105 . S
O322 C316 1.268 . S
O323 Sc309 2.105 . S
O323 C317 1.268 . S
O324 Sc308 2.105 . S
O324 C316 1.268 . S
O325 Sc309 2.105 . S
O325 C315 1.268 . S
O326 Sc310 2.105 . S
O326 C317 1.268 . S
O327 Sc308 2.105 . S
O327 C313 1.268 . S
O328 Sc310 2.105 . S
O328 C312 1.268 . S
O329 Sc309 2.105 . S
O329 C314 1.268 . S
Sc330 O333 2.025 . S
Sc330 O340 2.105 . S
Sc330 O343 2.105 . S
Sc330 O346 2.105 . S
Sc330 O349 2.105 . S
Sc331 O333 2.025 . S
Sc331 O341 2.105 . S
Sc331 O345 2.105 . S
Sc331 O347 2.105 . S
Sc331 O351 2.105 . S
Sc332 O333 2.025 . S
Sc332 O342 2.105 . S
Sc332 O344 2.105 1_556 S
Sc332 O348 2.105 . S
Sc332 O350 2.105 1_556 S
O333 Sc330 2.025 . S
O333 Sc331 2.025 . S
O333 Sc332 2.025 . S
C334 O340 1.268 1_554 S
C334 O350 1.268 . S
C335 O341 1.268 . S
C335 O349 1.268 . S
C336 O342 1.268 . S
C336 O351 1.268 . S
C337 O343 1.268 . S
C337 O347 1.268 . S
C338 O344 1.268 . S
C338 O346 1.268 1_554 S
C339 O345 1.268 . S
C339 O348 1.268 . S
O340 Sc330 2.105 . S
O340 C334 1.268 1_556 S
O341 Sc331 2.105 . S
O341 C335 1.268 . S
O342 Sc332 2.105 . S
O342 C336 1.268 . S
O343 Sc330 2.105 . S
O343 C337 1.268 . S
O344 Sc332 2.105 1_554 S
O344 C338 1.268 . S
O345 Sc331 2.105 . S
O345 C339 1.268 . S
O346 Sc330 2.105 . S
O346 C338 1.268 1_556 S
O347 Sc331 2.105 . S
O347 C337 1.268 . S
O348 Sc332 2.105 . S
O348 C339 1.268 . S
O349 Sc330 2.105 . S
O349 C335 1.268 . S
O350 Sc332 2.105 1_554 S
O350 C334 1.268 . S
O351 Sc331 2.105 . S
O351 C336 1.268 . S
Sc352 O355 2.025 . S
Sc352 O362 2.105 . S
Sc352 O365 2.105 . S
Sc352 O368 2.105 . S
Sc352 O371 2.105 . S
Sc353 O355 2.025 . S
Sc353 O363 2.105 . S
Sc353 O367 2.105 1_556 S
Sc353 O369 2.105 . S
Sc353 O373 2.105 1_556 S
Sc354 O355 2.025 . S
Sc354 O364 2.105 . S
Sc354 O366 2.105 . S
Sc354 O370 2.105 . S
Sc354 O372 2.105 . S
O355 Sc352 2.025 . S
O355 Sc353 2.025 . S
O355 Sc354 2.025 . S
C356 O362 1.268 . S
C356 O372 1.268 . S
C357 O363 1.268 . S
C357 O371 1.268 . S
C358 O364 1.268 1_554 S
C358 O373 1.268 . S
C359 O365 1.268 . S
C359 O369 1.268 . S
C360 O366 1.268 . S
C360 O368 1.268 . S
C361 O367 1.268 . S
C361 O370 1.268 1_554 S
O362 Sc352 2.105 . S
O362 C356 1.268 . S
O363 Sc353 2.105 . S
O363 C357 1.268 . S
O364 Sc354 2.105 . S
O364 C358 1.268 1_556 S
O365 Sc352 2.105 . S
O365 C359 1.268 . S
O366 Sc354 2.105 . S
O366 C360 1.268 . S
O367 Sc353 2.105 1_554 S
O367 C361 1.268 . S
O368 Sc352 2.105 . S
O368 C360 1.268 . S
O369 Sc353 2.105 . S
O369 C359 1.268 . S
O370 Sc354 2.105 . S
O370 C361 1.268 1_556 S
O371 Sc352 2.105 . S
O371 C357 1.268 . S
O372 Sc354 2.105 . S
O372 C356 1.268 . S
O373 Sc353 2.105 1_554 S
O373 C358 1.268 . S
Sc374 O377 2.025 . S
Sc374 O384 2.105 . S
Sc374 O387 2.105 . S
Sc374 O390 2.105 . S
Sc374 O393 2.105 . S
Sc375 O377 2.025 . S
Sc375 O385 2.105 . S
Sc375 O389 2.105 1_556 S
Sc375 O391 2.105 . S
Sc375 O395 2.105 1_556 S
Sc376 O377 2.025 . S
Sc376 O386 2.105 . S
Sc376 O388 2.105 . S
Sc376 O392 2.105 . S
Sc376 O394 2.105 . S
O377 Sc374 2.025 . S
O377 Sc375 2.025 . S
O377 Sc376 2.025 . S
C378 O384 1.268 . S
C378 O394 1.268 . S
C379 O385 1.268 . S
C379 O393 1.268 . S
C380 O386 1.268 1_554 S
C380 O395 1.268 . S
C381 O387 1.268 . S
C381 O391 1.268 . S
C382 O388 1.268 . S
C382 O390 1.268 . S
C383 O389 1.268 . S
C383 O392 1.268 1_554 S
O384 Sc374 2.105 . S
O384 C378 1.268 . S
O385 Sc375 2.105 . S
O385 C379 1.268 . S
O386 Sc376 2.105 . S
O386 C380 1.268 1_556 S
O387 Sc374 2.105 . S
O387 C381 1.268 . S
O388 Sc376 2.105 . S
O388 C382 1.268 . S
O389 Sc375 2.105 1_554 S
O389 C383 1.268 . S
O390 Sc374 2.105 . S
O390 C382 1.268 . S
O391 Sc375 2.105 . S
O391 C381 1.268 . S
O392 Sc376 2.105 . S
O392 C383 1.268 1_556 S
O393 Sc374 2.105 . S
O393 C379 1.268 . S
O394 Sc376 2.105 . S
O394 C378 1.268 . S
O395 Sc375 2.105 1_554 S
O395 C380 1.268 . S
H396 C404 0.929 . S
H397 C406 0.930 . S
H398 C408 0.930 . S
H399 C411 0.929 . S
H400 C414 0.930 . S
H401 C416 0.960 . S
H402 C416 0.960 . S
H403 C416 0.960 . S
C404 H396 0.929 . S
C404 C405 1.377 . S
C404 C406 1.384 . S
C405 C404 1.377 . S
C405 C411 1.390 . S
C406 H397 0.930 . S
C406 C404 1.384 . S
C406 C407 1.372 . S
C407 C406 1.372 . S
C407 C408 1.400 . S
C407 C412 1.490 . S
C408 H398 0.930 . S
C408 C407 1.400 . S
C408 C411 1.386 . S
H409 C425 0.930 . S
H410 C426 0.931 . S
C411 H399 0.929 . S
C411 C405 1.390 . S
C411 C408 1.386 . S
C412 C407 1.490 . S
C412 C414 1.395 . S
C412 C415 1.403 . S
H413 C419 0.930 . S
C414 H400 0.930 . S
C414 C412 1.395 . S
C414 C417 1.403 . S
C415 C412 1.403 . S
C415 C416 1.524 . S
C415 C419 1.400 . S
C416 H401 0.960 . S
C416 H402 0.960 . S
C416 H403 0.960 . S
C416 C415 1.524 . S
C417 C414 1.403 . S
C417 C418 1.392 . S
C417 C421 1.495 . S
C418 C417 1.392 . S
C418 C419 1.385 . S
C418 C420 1.478 . S
C419 H413 0.930 . S
C419 C415 1.400 . S
C419 C418 1.385 . S
C420 C418 1.478 . S
C420 C422 1.381 . S
C420 C426 1.383 . S
C421 C417 1.495 . S
C421 H427 0.959 . S
C421 H428 0.961 . S
C421 H429 0.960 . S
C422 C420 1.381 . S
C422 C423 1.394 . S
C422 H430 0.930 . S
C423 C422 1.394 . S
C423 C424 1.383 . S
C423 H431 0.929 . S
C424 C423 1.383 . S
C424 C425 1.377 . S
C425 H409 0.930 . S
C425 C424 1.377 . S
C425 C426 1.379 . S
C426 H410 0.931 . S
C426 C420 1.383 . S
C426 C425 1.379 . S
H427 C421 0.959 . S
H428 C421 0.961 . S
H429 C421 0.960 . S
H430 C422 0.930 . S
H431 C423 0.929 . S
H432 C440 0.929 . S
H433 C442 0.930 . S
H434 C444 0.930 . S
H435 C447 0.929 . S
H436 C450 0.930 . S
H437 C452 0.960 . S
H438 C452 0.960 . S
H439 C452 0.960 . S
C440 H432 0.929 . S
C440 C441 1.377 . S
C440 C442 1.384 . S
C441 C440 1.377 . S
C441 C447 1.390 . S
C442 H433 0.930 . S
C442 C440 1.384 . S
C442 C443 1.372 . S
C443 C442 1.372 . S
C443 C444 1.400 . S
C443 C448 1.490 . S
C444 H434 0.930 . S
C444 C443 1.400 . S
C444 C447 1.386 . S
H445 C461 0.930 . S
H446 C462 0.931 . S
C447 H435 0.929 . S
C447 C441 1.390 . S
C447 C444 1.386 . S
C448 C443 1.490 . S
C448 C450 1.395 . S
C448 C451 1.403 . S
H449 C455 0.930 . S
C450 H436 0.930 . S
C450 C448 1.395 . S
C450 C453 1.403 . S
C451 C448 1.403 . S
C451 C452 1.524 . S
C451 C455 1.400 . S
C452 H437 0.960 . S
C452 H438 0.960 . S
C452 H439 0.960 . S
C452 C451 1.524 . S
C453 C450 1.403 . S
C453 C454 1.392 . S
C453 C457 1.495 . S
C454 C453 1.392 . S
C454 C455 1.385 . S
C454 C456 1.478 . S
C455 H449 0.930 . S
C455 C451 1.400 . S
C455 C454 1.385 . S
C456 C454 1.478 . S
C456 C458 1.381 . S
C456 C462 1.383 . S
C457 C453 1.495 . S
C457 H463 0.959 . S
C457 H464 0.961 . S
C457 H465 0.960 . S
C458 C456 1.381 . S
C458 C459 1.394 . S
C458 H466 0.930 . S
C459 C458 1.394 . S
C459 C460 1.383 . S
C459 H467 0.929 . S
C460 C459 1.383 . S
C460 C461 1.377 . S
C461 H445 0.930 . S
C461 C460 1.377 . S
C461 C462 1.379 . S
C462 H446 0.931 . S
C462 C456 1.383 . S
C462 C461 1.379 . S
H463 C457 0.959 . S
H464 C457 0.961 . S
H465 C457 0.960 . S
H466 C458 0.930 . S
H467 C459 0.929 . S
H468 C476 0.929 . S
H469 C478 0.930 . S
H470 C480 0.930 . S
H471 C483 0.929 . S
H472 C486 0.930 . S
H473 C488 0.960 . S
H474 C488 0.960 . S
H475 C488 0.960 . S
C476 H468 0.929 . S
C476 C477 1.377 . S
C476 C478 1.384 . S
C477 C476 1.377 . S
C477 C483 1.390 . S
C478 H469 0.930 . S
C478 C476 1.384 . S
C478 C479 1.372 . S
C479 C478 1.372 . S
C479 C480 1.400 . S
C479 C484 1.490 . S
C480 H470 0.930 . S
C480 C479 1.400 . S
C480 C483 1.386 . S
H481 C497 0.930 . S
H482 C498 0.931 . S
C483 H471 0.929 . S
C483 C477 1.390 . S
C483 C480 1.386 . S
C484 C479 1.490 . S
C484 C486 1.395 . S
C484 C487 1.403 . S
H485 C491 0.930 . S
C486 H472 0.930 . S
C486 C484 1.395 . S
C486 C489 1.403 . S
C487 C484 1.403 . S
C487 C488 1.524 . S
C487 C491 1.400 . S
C488 H473 0.960 . S
C488 H474 0.960 . S
C488 H475 0.960 . S
C488 C487 1.524 . S
C489 C486 1.403 . S
C489 C490 1.392 . S
C489 C493 1.495 . S
C490 C489 1.392 . S
C490 C491 1.385 . S
C490 C492 1.478 . S
C491 H485 0.930 . S
C491 C487 1.400 . S
C491 C490 1.385 . S
C492 C490 1.478 . S
C492 C494 1.381 . S
C492 C498 1.383 . S
C493 C489 1.495 . S
C493 H499 0.959 . S
C493 H500 0.961 . S
C493 H501 0.960 . S
C494 C492 1.381 . S
C494 C495 1.394 . S
C494 H502 0.930 . S
C495 C494 1.394 . S
C495 C496 1.383 . S
C495 H503 0.929 . S
C496 C495 1.383 . S
C496 C497 1.377 . S
C497 H481 0.930 . S
C497 C496 1.377 . S
C497 C498 1.379 . S
C498 H482 0.931 . S
C498 C492 1.383 . S
C498 C497 1.379 . S
H499 C493 0.959 . S
H500 C493 0.961 . S
H501 C493 0.960 . S
H502 C494 0.930 . S
H503 C495 0.929 . S
H504 C512 0.929 . S
H505 C514 0.930 . S
H506 C516 0.930 . S
H507 C519 0.929 . S
H508 C522 0.930 1_556 S
H509 C524 0.960 . S
H510 C524 0.960 . S
H511 C524 0.960 . S
C512 H504 0.929 . S
C512 C513 1.377 . S
C512 C514 1.384 . S
C513 C512 1.377 . S
C513 C519 1.390 . S
C514 H505 0.930 . S
C514 C512 1.384 . S
C514 C515 1.372 . S
C515 C514 1.372 . S
C515 C516 1.400 . S
C515 C520 1.490 . S
C516 H506 0.930 . S
C516 C515 1.400 . S
C516 C519 1.386 . S
H517 C533 0.930 . S
H518 C534 0.931 . S
C519 H507 0.929 . S
C519 C513 1.390 . S
C519 C516 1.386 . S
C520 C515 1.490 . S
C520 C522 1.395 1_556 S
C520 C523 1.403 . S
H521 C527 0.930 . S
C522 H508 0.930 1_554 S
C522 C520 1.395 1_554 S
C522 C525 1.403 . S
C523 C520 1.403 . S
C523 C524 1.524 . S
C523 C527 1.400 1_556 S
C524 H509 0.960 . S
C524 H510 0.960 . S
C524 H511 0.960 . S
C524 C523 1.524 . S
C525 C522 1.403 . S
C525 C526 1.392 . S
C525 C529 1.495 . S
C526 C525 1.392 . S
C526 C527 1.385 . S
C526 C528 1.478 . S
C527 H521 0.930 . S
C527 C523 1.400 1_554 S
C527 C526 1.385 . S
C528 C526 1.478 . S
C528 C530 1.381 . S
C528 C534 1.383 . S
C529 C525 1.495 . S
C529 H535 0.959 . S
C529 H536 0.961 . S
C529 H537 0.960 . S
C530 C528 1.381 . S
C530 C531 1.394 . S
C530 H538 0.930 . S
C531 C530 1.394 . S
C531 C532 1.383 . S
C531 H539 0.929 . S
C532 C531 1.383 . S
C532 C533 1.377 . S
C533 H517 0.930 . S
C533 C532 1.377 . S
C533 C534 1.379 . S
C534 H518 0.931 . S
C534 C528 1.383 . S
C534 C533 1.379 . S
H535 C529 0.959 . S
H536 C529 0.961 . S
H537 C529 0.960 . S
H538 C530 0.930 . S
H539 C531 0.929 . S
H540 C548 0.929 . S
H541 C550 0.930 . S
H542 C552 0.930 . S
H543 C555 0.929 . S
H544 C558 0.930 . S
H545 C560 0.960 . S
H546 C560 0.960 . S
H547 C560 0.960 . S
C548 H540 0.929 . S
C548 C549 1.377 . S
C548 C550 1.384 . S
C549 C548 1.377 . S
C549 C555 1.390 . S
C550 H541 0.930 . S
C550 C548 1.384 . S
C550 C551 1.372 . S
C551 C550 1.372 . S
C551 C552 1.400 . S
C551 C556 1.490 . S
C552 H542 0.930 . S
C552 C551 1.400 . S
C552 C555 1.386 . S
H553 C569 0.930 . S
H554 C570 0.931 . S
C555 H543 0.929 . S
C555 C549 1.390 . S
C555 C552 1.386 . S
C556 C551 1.490 . S
C556 C558 1.395 1_554 S
C556 C559 1.403 . S
H557 C563 0.930 . S
C558 H544 0.930 . S
C558 C556 1.395 1_556 S
C558 C561 1.403 . S
C559 C556 1.403 . S
C559 C560 1.524 . S
C559 C563 1.400 . S
C560 H545 0.960 . S
C560 H546 0.960 . S
C560 H547 0.960 . S
C560 C559 1.524 . S
C561 C558 1.403 . S
C561 C562 1.392 . S
C561 C565 1.495 . S
C562 C561 1.392 . S
C562 C563 1.385 1_556 S
C562 C564 1.478 . S
C563 H557 0.930 . S
C563 C559 1.400 . S
C563 C562 1.385 1_554 S
C564 C562 1.478 . S
C564 C566 1.381 . S
C564 C570 1.383 . S
C565 C561 1.495 . S
C565 H571 0.959 . S
C565 H572 0.961 . S
C565 H573 0.960 . S
C566 C564 1.381 . S
C566 C567 1.394 . S
C566 H574 0.930 . S
C567 C566 1.394 . S
C567 C568 1.383 . S
C567 H575 0.929 . S
C568 C567 1.383 . S
C568 C569 1.377 . S
C569 H553 0.930 . S
C569 C568 1.377 . S
C569 C570 1.379 . S
C570 H554 0.931 . S
C570 C564 1.383 . S
C570 C569 1.379 . S
H571 C565 0.959 . S
H572 C565 0.961 . S
H573 C565 0.960 . S
H574 C566 0.930 . S
H575 C567 0.929 . S
H576 C584 0.929 . S
H577 C586 0.930 . S
H578 C588 0.930 . S
H579 C591 0.929 . S
H580 C594 0.930 . S
H581 C596 0.960 . S
H582 C596 0.960 . S
H583 C596 0.960 . S
C584 H576 0.929 . S
C584 C585 1.377 . S
C584 C586 1.384 . S
C585 C584 1.377 . S
C585 C591 1.390 . S
C586 H577 0.930 . S
C586 C584 1.384 . S
C586 C587 1.372 . S
C587 C586 1.372 . S
C587 C588 1.400 . S
C587 C592 1.490 . S
C588 H578 0.930 . S
C588 C587 1.400 . S
C588 C591 1.386 . S
H589 C605 0.930 . S
H590 C606 0.931 . S
C591 H579 0.929 . S
C591 C585 1.390 . S
C591 C588 1.386 . S
C592 C587 1.490 . S
C592 C594 1.395 . S
C592 C595 1.403 1_556 S
H593 C599 0.930 . S
C594 H580 0.930 . S
C594 C592 1.395 . S
C594 C597 1.403 . S
C595 C592 1.403 1_554 S
C595 C596 1.524 . S
C595 C599 1.400 . S
C596 H581 0.960 . S
C596 H582 0.960 . S
C596 H583 0.960 . S
C596 C595 1.524 . S
C597 C594 1.403 . S
C597 C598 1.392 1_556 S
C597 C601 1.495 . S
C598 C597 1.392 1_554 S
C598 C599 1.385 . S
C598 C600 1.478 . S
C599 H593 0.930 . S
C599 C595 1.400 . S
C599 C598 1.385 . S
C600 C598 1.478 . S
C600 C602 1.381 . S
C600 C606 1.383 . S
C601 C597 1.495 . S
C601 H607 0.959 . S
C601 H608 0.961 . S
C601 H609 0.960 . S
C602 C600 1.381 . S
C602 C603 1.394 . S
C602 H610 0.930 . S
C603 C602 1.394 . S
C603 C604 1.383 . S
C603 H611 0.929 . S
C604 C603 1.383 . S
C604 C605 1.377 . S
C605 H589 0.930 . S
C605 C604 1.377 . S
C605 C606 1.379 . S
C606 H590 0.931 . S
C606 C600 1.383 . S
C606 C605 1.379 . S
H607 C601 0.959 . S
H608 C601 0.961 . S
H609 C601 0.960 . S
H610 C602 0.930 . S
H611 C603 0.929 . S
H612 C620 0.929 . S
H613 C622 0.930 . S
H614 C624 0.930 . S
H615 C627 0.929 . S
H616 C630 0.930 . S
H617 C632 0.960 . S
H618 C632 0.960 . S
H619 C632 0.960 . S
C620 H612 0.929 . S
C620 C621 1.377 . S
C620 C622 1.384 . S
C621 C620 1.377 . S
C621 C627 1.390 . S
C622 H613 0.930 . S
C622 C620 1.384 . S
C622 C623 1.372 . S
C623 C622 1.372 . S
C623 C624 1.400 . S
C623 C628 1.490 . S
C624 H614 0.930 . S
C624 C623 1.400 . S
C624 C627 1.386 . S
H625 C641 0.930 . S
H626 C642 0.931 . S
C627 H615 0.929 . S
C627 C621 1.390 . S
C627 C624 1.386 . S
C628 C623 1.490 . S
C628 C630 1.395 . S
C628 C631 1.403 . S
H629 C635 0.930 . S
C630 H616 0.930 . S
C630 C628 1.395 . S
C630 C633 1.403 . S
C631 C628 1.403 . S
C631 C632 1.524 . S
C631 C635 1.400 . S
C632 H617 0.960 . S
C632 H618 0.960 . S
C632 H619 0.960 . S
C632 C631 1.524 . S
C633 C630 1.403 . S
C633 C634 1.392 . S
C633 C637 1.495 . S
C634 C633 1.392 . S
C634 C635 1.385 . S
C634 C636 1.478 . S
C635 H629 0.930 . S
C635 C631 1.400 . S
C635 C634 1.385 . S
C636 C634 1.478 . S
C636 C638 1.381 . S
C636 C642 1.383 . S
C637 C633 1.495 . S
C637 H643 0.959 . S
C637 H644 0.961 . S
C637 H645 0.960 . S
C638 C636 1.381 . S
C638 C639 1.394 . S
C638 H646 0.930 . S
C639 C638 1.394 . S
C639 C640 1.383 . S
C639 H647 0.929 . S
C640 C639 1.383 . S
C640 C641 1.377 . S
C641 H625 0.930 . S
C641 C640 1.377 . S
C641 C642 1.379 . S
C642 H626 0.931 . S
C642 C636 1.383 . S
C642 C641 1.379 . S
H643 C637 0.959 . S
H644 C637 0.961 . S
H645 C637 0.960 . S
H646 C638 0.930 . S
H647 C639 0.929 . S
H648 C656 0.929 . S
H649 C658 0.930 . S
H650 C660 0.930 . S
H651 C663 0.929 . S
H652 C666 0.930 . S
H653 C668 0.960 . S
H654 C668 0.960 . S
H655 C668 0.960 . S
C656 H648 0.929 . S
C656 C657 1.377 . S
C656 C658 1.384 . S
C657 C656 1.377 . S
C657 C663 1.390 . S
C658 H649 0.930 . S
C658 C656 1.384 . S
C658 C659 1.372 . S
C659 C658 1.372 . S
C659 C660 1.400 . S
C659 C664 1.490 . S
C660 H650 0.930 . S
C660 C659 1.400 . S
C660 C663 1.386 . S
H661 C677 0.930 . S
H662 C678 0.931 . S
C663 H651 0.929 . S
C663 C657 1.390 . S
C663 C660 1.386 . S
C664 C659 1.490 . S
C664 C666 1.395 . S
C664 C667 1.403 . S
H665 C671 0.930 . S
C666 H652 0.930 . S
C666 C664 1.395 . S
C666 C669 1.403 . S
C667 C664 1.403 . S
C667 C668 1.524 . S
C667 C671 1.400 . S
C668 H653 0.960 . S
C668 H654 0.960 . S
C668 H655 0.960 . S
C668 C667 1.524 . S
C669 C666 1.403 . S
C669 C670 1.392 . S
C669 C673 1.495 . S
C670 C669 1.392 . S
C670 C671 1.385 . S
C670 C672 1.478 . S
C671 H665 0.930 . S
C671 C667 1.400 . S
C671 C670 1.385 . S
C672 C670 1.478 . S
C672 C674 1.381 . S
C672 C678 1.383 . S
C673 C669 1.495 . S
C673 H679 0.959 . S
C673 H680 0.961 . S
C673 H681 0.960 . S
C674 C672 1.381 . S
C674 C675 1.394 . S
C674 H682 0.930 . S
C675 C674 1.394 . S
C675 C676 1.383 . S
C675 H683 0.929 . S
C676 C675 1.383 . S
C676 C677 1.377 . S
C677 H661 0.930 . S
C677 C676 1.377 . S
C677 C678 1.379 . S
C678 H662 0.931 . S
C678 C672 1.383 . S
C678 C677 1.379 . S
H679 C673 0.959 . S
H680 C673 0.961 . S
H681 C673 0.960 . S
H682 C674 0.930 . S
H683 C675 0.929 . S
H684 C692 0.929 . S
H685 C694 0.930 . S
H686 C696 0.930 . S
H687 C699 0.929 . S
H688 C702 0.930 . S
H689 C704 0.960 . S
H690 C704 0.960 . S
H691 C704 0.960 . S
C692 H684 0.929 . S
C692 C693 1.377 . S
C692 C694 1.384 . S
C693 C692 1.377 . S
C693 C699 1.390 . S
C694 H685 0.930 . S
C694 C692 1.384 . S
C694 C695 1.372 . S
C695 C694 1.372 . S
C695 C696 1.400 . S
C695 C700 1.490 . S
C696 H686 0.930 . S
C696 C695 1.400 . S
C696 C699 1.386 . S
H697 C713 0.930 . S
H698 C714 0.931 . S
C699 H687 0.929 . S
C699 C693 1.390 . S
C699 C696 1.386 . S
C700 C695 1.490 . S
C700 C702 1.395 . S
C700 C703 1.403 . S
H701 C707 0.930 . S
C702 H688 0.930 . S
C702 C700 1.395 . S
C702 C705 1.403 . S
C703 C700 1.403 . S
C703 C704 1.524 . S
C703 C707 1.400 . S
C704 H689 0.960 . S
C704 H690 0.960 . S
C704 H691 0.960 . S
C704 C703 1.524 . S
C705 C702 1.403 . S
C705 C706 1.392 . S
C705 C709 1.495 . S
C706 C705 1.392 . S
C706 C707 1.385 . S
C706 C708 1.478 . S
C707 H701 0.930 . S
C707 C703 1.400 . S
C707 C706 1.385 . S
C708 C706 1.478 . S
C708 C710 1.381 . S
C708 C714 1.383 . S
C709 C705 1.495 . S
C709 H715 0.959 . S
C709 H716 0.961 . S
C709 H717 0.960 . S
C710 C708 1.381 . S
C710 C711 1.394 . S
C710 H718 0.930 . S
C711 C710 1.394 . S
C711 C712 1.383 . S
C711 H719 0.929 . S
C712 C711 1.383 . S
C712 C713 1.377 . S
C713 H697 0.930 . S
C713 C712 1.377 . S
C713 C714 1.379 . S
C714 H698 0.931 . S
C714 C708 1.383 . S
C714 C713 1.379 . S
H715 C709 0.959 . S
H716 C709 0.961 . S
H717 C709 0.960 . S
H718 C710 0.930 . S
H719 C711 0.929 . S
H720 C728 0.929 . S
H721 C730 0.930 1_556 S
H722 C732 0.930 . S
H723 C735 0.929 . S
H724 C738 0.930 . S
H725 C740 0.960 1_556 S
H726 C740 0.960 1_556 S
H727 C740 0.960 . S
C728 H720 0.929 . S
C728 C729 1.377 . S
C728 C730 1.384 . S
C729 C728 1.377 . S
C729 C735 1.390 . S
C730 H721 0.930 1_554 S
C730 C728 1.384 . S
C730 C731 1.372 . S
C731 C730 1.372 . S
C731 C732 1.400 . S
C731 C736 1.490 . S
C732 H722 0.930 . S
C732 C731 1.400 . S
C732 C735 1.386 . S
H733 C749 0.930 . S
H734 C750 0.931 . S
C735 H723 0.929 . S
C735 C729 1.390 . S
C735 C732 1.386 . S
C736 C731 1.490 . S
C736 C738 1.395 . S
C736 C739 1.403 1_554 S
H737 C743 0.930 . S
C738 H724 0.930 . S
C738 C736 1.395 . S
C738 C741 1.403 1_554 S
C739 C736 1.403 1_556 S
C739 C740 1.524 1_556 S
C739 C743 1.400 . S
C740 H725 0.960 1_554 S
C740 H726 0.960 1_554 S
C740 H727 0.960 . S
C740 C739 1.524 1_554 S
C741 C738 1.403 1_556 S
C741 C742 1.392 . S
C741 C745 1.495 . S
C742 C741 1.392 . S
C742 C743 1.385 . S
C742 C744 1.478 . S
C743 H737 0.930 . S
C743 C739 1.400 . S
C743 C742 1.385 . S
C744 C742 1.478 . S
C744 C746 1.381 . S
C744 C750 1.383 . S
C745 C741 1.495 . S
C745 H751 0.959 . S
C745 H752 0.961 . S
C745 H753 0.960 . S
C746 C744 1.381 . S
C746 C747 1.394 . S
C746 H754 0.930 . S
C747 C746 1.394 . S
C747 C748 1.383 . S
C747 H755 0.929 . S
C748 C747 1.383 . S
C748 C749 1.377 . S
C749 H733 0.930 . S
C749 C748 1.377 . S
C749 C750 1.379 . S
C750 H734 0.931 . S
C750 C744 1.383 . S
C750 C749 1.379 . S
H751 C745 0.959 . S
H752 C745 0.961 . S
H753 C745 0.960 . S
H754 C746 0.930 . S
H755 C747 0.929 . S
H756 C764 0.929 . S
H757 C766 0.930 . S
H758 C768 0.930 . S
H759 C771 0.929 . S
H760 C774 0.930 . S
H761 C776 0.960 . S
H762 C776 0.960 . S
H763 C776 0.960 . S
C764 H756 0.929 . S
C764 C765 1.377 . S
C764 C766 1.384 . S
C765 C764 1.377 . S
C765 C771 1.390 . S
C766 H757 0.930 . S
C766 C764 1.384 . S
C766 C767 1.372 . S
C767 C766 1.372 . S
C767 C768 1.400 . S
C767 C772 1.490 . S
C768 H758 0.930 . S
C768 C767 1.400 . S
C768 C771 1.386 . S
H769 C785 0.930 . S
H770 C786 0.931 . S
C771 H759 0.929 . S
C771 C765 1.390 . S
C771 C768 1.386 . S
C772 C767 1.490 . S
C772 C774 1.395 . S
C772 C775 1.403 1_556 S
H773 C779 0.930 . S
C774 H760 0.930 . S
C774 C772 1.395 . S
C774 C777 1.403 . S
C775 C772 1.403 1_554 S
C775 C776 1.524 . S
C775 C779 1.400 . S
C776 H761 0.960 . S
C776 H762 0.960 . S
C776 H763 0.960 . S
C776 C775 1.524 . S
C777 C774 1.403 . S
C777 C778 1.392 1_556 S
C777 C781 1.495 . S
C778 C777 1.392 1_554 S
C778 C779 1.385 . S
C778 C780 1.478 . S
C779 H773 0.930 . S
C779 C775 1.400 . S
C779 C778 1.385 . S
C780 C778 1.478 . S
C780 C782 1.381 . S
C780 C786 1.383 . S
C781 C777 1.495 . S
C781 H787 0.959 . S
C781 H788 0.961 . S
C781 H789 0.960 . S
C782 C780 1.381 . S
C782 C783 1.394 . S
C782 H790 0.930 . S
C783 C782 1.394 . S
C783 C784 1.383 . S
C783 H791 0.929 . S
C784 C783 1.383 . S
C784 C785 1.377 . S
C785 H769 0.930 . S
C785 C784 1.377 . S
C785 C786 1.379 . S
C786 H770 0.931 . S
C786 C780 1.383 . S
C786 C785 1.379 . S
H787 C781 0.959 . S
H788 C781 0.961 . S
H789 C781 0.960 . S
H790 C782 0.930 . S
H791 C783 0.929 . S
H792 C800 0.929 . S
H793 C802 0.930 . S
H794 C804 0.930 . S
H795 C807 0.929 . S
H796 C810 0.930 . S
H797 C812 0.960 . S
H798 C812 0.960 . S
H799 C812 0.960 . S
C800 H792 0.929 . S
C800 C801 1.377 . S
C800 C802 1.384 . S
C801 C800 1.377 . S
C801 C807 1.390 . S
C802 H793 0.930 . S
C802 C800 1.384 . S
C802 C803 1.372 . S
C803 C802 1.372 . S
C803 C804 1.400 . S
C803 C808 1.490 . S
C804 H794 0.930 . S
C804 C803 1.400 . S
C804 C807 1.386 . S
H805 C821 0.930 . S
H806 C822 0.931 . S
C807 H795 0.929 . S
C807 C801 1.390 . S
C807 C804 1.386 . S
C808 C803 1.490 . S
C808 C810 1.395 . S
C808 C811 1.403 1_556 S
H809 C815 0.930 . S
C810 H796 0.930 . S
C810 C808 1.395 . S
C810 C813 1.403 . S
C811 C808 1.403 1_554 S
C811 C812 1.524 . S
C811 C815 1.400 . S
C812 H797 0.960 . S
C812 H798 0.960 . S
C812 H799 0.960 . S
C812 C811 1.524 . S
C813 C810 1.403 . S
C813 C814 1.392 1_556 S
C813 C817 1.495 . S
C814 C813 1.392 1_554 S
C814 C815 1.385 . S
C814 C816 1.478 . S
C815 H809 0.930 . S
C815 C811 1.400 . S
C815 C814 1.385 . S
C816 C814 1.478 . S
C816 C818 1.381 . S
C816 C822 1.383 . S
C817 C813 1.495 . S
C817 H823 0.959 . S
C817 H824 0.961 . S
C817 H825 0.960 . S
C818 C816 1.381 . S
C818 C819 1.394 . S
C818 H826 0.930 . S
C819 C818 1.394 . S
C819 C820 1.383 . S
C819 H827 0.929 . S
C820 C819 1.383 . S
C820 C821 1.377 . S
C821 H805 0.930 . S
C821 C820 1.377 . S
C821 C822 1.379 . S
C822 H806 0.931 . S
C822 C816 1.383 . S
C822 C821 1.379 . S
H823 C817 0.959 . S
H824 C817 0.961 . S
H825 C817 0.960 . S
H826 C818 0.930 . S
H827 C819 0.929 . S
H828 C836 0.929 . S
H829 C838 0.930 . S
H830 C840 0.930 . S
H831 C843 0.929 . S
H832 C846 0.930 . S
H833 C848 0.960 . S
H834 C848 0.960 . S
H835 C848 0.960 . S
C836 H828 0.929 . S
C836 C837 1.377 . S
C836 C838 1.384 . S
C837 C836 1.377 . S
C837 C843 1.390 . S
C838 H829 0.930 . S
C838 C836 1.384 . S
C838 C839 1.372 . S
C839 C838 1.372 . S
C839 C840 1.400 . S
C839 C844 1.490 . S
C840 H830 0.930 . S
C840 C839 1.400 . S
C840 C843 1.386 . S
H841 C857 0.930 . S
H842 C858 0.931 . S
C843 H831 0.929 . S
C843 C837 1.390 . S
C843 C840 1.386 . S
C844 C839 1.490 . S
C844 C846 1.395 . S
C844 C847 1.403 . S
H845 C851 0.930 . S
C846 H832 0.930 . S
C846 C844 1.395 . S
C846 C849 1.403 . S
C847 C844 1.403 . S
C847 C848 1.524 . S
C847 C851 1.400 . S
C848 H833 0.960 . S
C848 H834 0.960 . S
C848 H835 0.960 . S
C848 C847 1.524 . S
C849 C846 1.403 . S
C849 C850 1.392 . S
C849 C853 1.495 . S
C850 C849 1.392 . S
C850 C851 1.385 . S
C850 C852 1.478 . S
C851 H845 0.930 . S
C851 C847 1.400 . S
C851 C850 1.385 . S
C852 C850 1.478 . S
C852 C854 1.381 . S
C852 C858 1.383 . S
C853 C849 1.495 . S
C853 H859 0.959 . S
C853 H860 0.961 . S
C853 H861 0.960 . S
C854 C852 1.381 . S
C854 C855 1.394 . S
C854 H862 0.930 . S
C855 C854 1.394 . S
C855 C856 1.383 . S
C855 H863 0.929 . S
C856 C855 1.383 . S
C856 C857 1.377 . S
C857 H841 0.930 . S
C857 C856 1.377 . S
C857 C858 1.379 . S
C858 H842 0.931 . S
C858 C852 1.383 . S
C858 C857 1.379 . S
H859 C853 0.959 . S
H860 C853 0.961 . S
H861 C853 0.960 . S
H862 C854 0.930 . S
H863 C855 0.929 . S
H864 C872 0.929 . S
H865 C874 0.930 . S
H866 C876 0.930 . S
H867 C879 0.929 . S
H868 C882 0.930 . S
H869 C884 0.960 . S
H870 C884 0.960 . S
H871 C884 0.960 . S
C872 H864 0.929 . S
C872 C873 1.377 . S
C872 C874 1.384 . S
C873 C872 1.377 . S
C873 C879 1.390 . S
C874 H865 0.930 . S
C874 C872 1.384 . S
C874 C875 1.372 . S
C875 C874 1.372 . S
C875 C876 1.400 . S
C875 C880 1.490 . S
C876 H866 0.930 . S
C876 C875 1.400 . S
C876 C879 1.386 . S
H877 C893 0.930 . S
H878 C894 0.931 . S
C879 H867 0.929 . S
C879 C873 1.390 . S
C879 C876 1.386 . S
C880 C875 1.490 . S
C880 C882 1.395 . S
C880 C883 1.403 . S
H881 C887 0.930 . S
C882 H868 0.930 . S
C882 C880 1.395 . S
C882 C885 1.403 . S
C883 C880 1.403 . S
C883 C884 1.524 . S
C883 C887 1.400 . S
C884 H869 0.960 . S
C884 H870 0.960 . S
C884 H871 0.960 . S
C884 C883 1.524 . S
C885 C882 1.403 . S
C885 C886 1.392 . S
C885 C889 1.495 . S
C886 C885 1.392 . S
C886 C887 1.385 . S
C886 C888 1.478 . S
C887 H881 0.930 . S
C887 C883 1.400 . S
C887 C886 1.385 . S
C888 C886 1.478 . S
C888 C890 1.381 . S
C888 C894 1.383 . S
C889 C885 1.495 . S
C889 H895 0.959 . S
C889 H896 0.961 . S
C889 H897 0.960 . S
C890 C888 1.381 . S
C890 C891 1.394 . S
C890 H898 0.930 . S
C891 C890 1.394 . S
C891 C892 1.383 . S
C891 H899 0.929 . S
C892 C891 1.383 . S
C892 C893 1.377 . S
C893 H877 0.930 . S
C893 C892 1.377 . S
C893 C894 1.379 . S
C894 H878 0.931 . S
C894 C888 1.383 . S
C894 C893 1.379 . S
H895 C889 0.959 . S
H896 C889 0.961 . S
H897 C889 0.960 . S
H898 C890 0.930 . S
H899 C891 0.929 . S
H900 C908 0.929 . S
H901 C910 0.930 . S
H902 C912 0.930 . S
H903 C915 0.929 1_554 S
H904 C918 0.930 . S
H905 C920 0.960 . S
H906 C920 0.960 . S
H907 C920 0.960 . S
C908 H900 0.929 . S
C908 C909 1.377 . S
C908 C910 1.384 . S
C909 C908 1.377 . S
C909 C915 1.390 . S
C910 H901 0.930 . S
C910 C908 1.384 . S
C910 C911 1.372 . S
C911 C910 1.372 . S
C911 C912 1.400 . S
C911 C916 1.490 . S
C912 H902 0.930 . S
C912 C911 1.400 . S
C912 C915 1.386 . S
H913 C929 0.930 . S
H914 C930 0.931 . S
C915 H903 0.929 1_556 S
C915 C909 1.390 . S
C915 C912 1.386 . S
C916 C911 1.490 . S
C916 C918 1.395 . S
C916 C919 1.403 . S
H917 C923 0.930 . S
C918 H904 0.930 . S
C918 C916 1.395 . S
C918 C921 1.403 . S
C919 C916 1.403 . S
C919 C920 1.524 . S
C919 C923 1.400 . S
C920 H905 0.960 . S
C920 H906 0.960 . S
C920 H907 0.960 . S
C920 C919 1.524 . S
C921 C918 1.403 . S
C921 C922 1.392 . S
C921 C925 1.495 . S
C922 C921 1.392 . S
C922 C923 1.385 . S
C922 C924 1.478 . S
C923 H917 0.930 . S
C923 C919 1.400 . S
C923 C922 1.385 . S
C924 C922 1.478 . S
C924 C926 1.381 . S
C924 C930 1.383 . S
C925 C921 1.495 . S
C925 H931 0.959 . S
C925 H932 0.961 . S
C925 H933 0.960 . S
C926 C924 1.381 . S
C926 C927 1.394 . S
C926 H934 0.930 . S
C927 C926 1.394 . S
C927 C928 1.383 . S
C927 H935 0.929 . S
C928 C927 1.383 . S
C928 C929 1.377 . S
C929 H913 0.930 . S
C929 C928 1.377 . S
C929 C930 1.379 . S
C930 H914 0.931 . S
C930 C924 1.383 . S
C930 C929 1.379 . S
H931 C925 0.959 . S
H932 C925 0.961 . S
H933 C925 0.960 . S
H934 C926 0.930 . S
H935 C927 0.929 . S
H936 C944 0.929 . S
H937 C946 0.930 . S
H938 C948 0.930 . S
H939 C951 0.929 . S
H940 C954 0.930 . S
H941 C956 0.960 . S
H942 C956 0.960 . S
H943 C956 0.960 . S
C944 H936 0.929 . S
C944 C945 1.377 . S
C944 C946 1.384 . S
C945 C944 1.377 . S
C945 C951 1.390 . S
C946 H937 0.930 . S
C946 C944 1.384 . S
C946 C947 1.372 . S
C947 C946 1.372 . S
C947 C948 1.400 . S
C947 C952 1.490 . S
C948 H938 0.930 . S
C948 C947 1.400 . S
C948 C951 1.386 . S
H949 C965 0.930 . S
H950 C966 0.931 . S
C951 H939 0.929 . S
C951 C945 1.390 . S
C951 C948 1.386 . S
C952 C947 1.490 . S
C952 C954 1.395 . S
C952 C955 1.403 . S
H953 C959 0.930 . S
C954 H940 0.930 . S
C954 C952 1.395 . S
C954 C957 1.403 . S
C955 C952 1.403 . S
C955 C956 1.524 . S
C955 C959 1.400 . S
C956 H941 0.960 . S
C956 H942 0.960 . S
C956 H943 0.960 . S
C956 C955 1.524 . S
C957 C954 1.403 . S
C957 C958 1.392 . S
C957 C961 1.495 . S
C958 C957 1.392 . S
C958 C959 1.385 . S
C958 C960 1.478 . S
C959 H953 0.930 . S
C959 C955 1.400 . S
C959 C958 1.385 . S
C960 C958 1.478 . S
C960 C962 1.381 . S
C960 C966 1.383 . S
C961 C957 1.495 . S
C961 H967 0.959 . S
C961 H968 0.961 . S
C961 H969 0.960 . S
C962 C960 1.381 . S
C962 C963 1.394 . S
C962 H970 0.930 . S
C963 C962 1.394 . S
C963 C964 1.383 . S
C963 H971 0.929 . S
C964 C963 1.383 . S
C964 C965 1.377 . S
C965 H949 0.930 . S
C965 C964 1.377 . S
C965 C966 1.379 . S
C966 H950 0.931 . S
C966 C960 1.383 . S
C966 C965 1.379 . S
H967 C961 0.959 . S
H968 C961 0.961 . S
H969 C961 0.960 . S
H970 C962 0.930 . S
H971 C963 0.929 . S
H972 C980 0.929 . S
H973 C982 0.930 . S
H974 C984 0.930 . S
H975 C987 0.929 . S
H976 C990 0.930 . S
H977 C992 0.960 . S
H978 C992 0.960 . S
H979 C992 0.960 . S
C980 H972 0.929 . S
C980 C981 1.377 . S
C980 C982 1.384 . S
C981 C980 1.377 . S
C981 C987 1.390 . S
C982 H973 0.930 . S
C982 C980 1.384 . S
C982 C983 1.372 . S
C983 C982 1.372 . S
C983 C984 1.400 . S
C983 C988 1.490 . S
C984 H974 0.930 . S
C984 C983 1.400 . S
C984 C987 1.386 . S
H985 C1001 0.930 . S
H986 C1002 0.931 . S
C987 H975 0.929 . S
C987 C981 1.390 . S
C987 C984 1.386 . S
C988 C983 1.490 . S
C988 C990 1.395 . S
C988 C991 1.403 . S
H989 C995 0.930 . S
C990 H976 0.930 . S
C990 C988 1.395 . S
C990 C993 1.403 . S
C991 C988 1.403 . S
C991 C992 1.524 . S
C991 C995 1.400 . S
C992 H977 0.960 . S
C992 H978 0.960 . S
C992 H979 0.960 . S
C992 C991 1.524 . S
C993 C990 1.403 . S
C993 C994 1.392 . S
C993 C997 1.495 . S
C994 C993 1.392 . S
C994 C995 1.385 . S
C994 C996 1.478 . S
C995 H989 0.930 . S
C995 C991 1.400 . S
C995 C994 1.385 . S
C996 C994 1.478 . S
C996 C998 1.381 . S
C996 C1002 1.383 . S
C997 C993 1.495 . S
C997 H1003 0.959 . S
C997 H1004 0.961 . S
C997 H1005 0.960 . S
C998 C996 1.381 . S
C998 C999 1.394 . S
C998 H1006 0.930 . S
C999 C998 1.394 . S
C999 C1000 1.383 . S
C999 H1007 0.929 . S
C1000 C999 1.383 . S
C1000 C1001 1.377 . S
C1001 H985 0.930 . S
C1001 C1000 1.377 . S
C1001 C1002 1.379 . S
C1002 H986 0.931 . S
C1002 C996 1.383 . S
C1002 C1001 1.379 . S
H1003 C997 0.959 . S
H1004 C997 0.961 . S
H1005 C997 0.960 . S
H1006 C998 0.930 . S
H1007 C999 0.929 . S
H1008 C1016 0.929 . S
H1009 C1018 0.930 . S
H1010 C1020 0.930 . S
H1011 C1023 0.929 . S
H1012 C1026 0.930 . S
H1013 C1028 0.960 . S
H1014 C1028 0.960 . S
H1015 C1028 0.960 . S
C1016 H1008 0.929 . S
C1016 C1017 1.377 . S
C1016 C1018 1.384 . S
C1017 C1016 1.377 . S
C1017 C1023 1.390 . S
C1018 H1009 0.930 . S
C1018 C1016 1.384 . S
C1018 C1019 1.372 . S
C1019 C1018 1.372 . S
C1019 C1020 1.400 . S
C1019 C1024 1.490 . S
C1020 H1010 0.930 . S
C1020 C1019 1.400 . S
C1020 C1023 1.386 . S
H1021 C1037 0.930 . S
H1022 C1038 0.931 . S
C1023 H1011 0.929 . S
C1023 C1017 1.390 . S
C1023 C1020 1.386 . S
C1024 C1019 1.490 . S
C1024 C1026 1.395 . S
C1024 C1027 1.403 . S
H1025 C1031 0.930 . S
C1026 H1012 0.930 . S
C1026 C1024 1.395 . S
C1026 C1029 1.403 . S
C1027 C1024 1.403 . S
C1027 C1028 1.524 . S
C1027 C1031 1.400 . S
C1028 H1013 0.960 . S
C1028 H1014 0.960 . S
C1028 H1015 0.960 . S
C1028 C1027 1.524 . S
C1029 C1026 1.403 . S
C1029 C1030 1.392 . S
C1029 C1033 1.495 . S
C1030 C1029 1.392 . S
C1030 C1031 1.385 . S
C1030 C1032 1.478 . S
C1031 H1025 0.930 . S
C1031 C1027 1.400 . S
C1031 C1030 1.385 . S
C1032 C1030 1.478 . S
C1032 C1034 1.381 . S
C1032 C1038 1.383 . S
C1033 C1029 1.495 . S
C1033 H1039 0.959 . S
C1033 H1040 0.961 . S
C1033 H1041 0.960 . S
C1034 C1032 1.381 . S
C1034 C1035 1.394 . S
C1034 H1042 0.930 . S
C1035 C1034 1.394 . S
C1035 C1036 1.383 . S
C1035 H1043 0.929 . S
C1036 C1035 1.383 . S
C1036 C1037 1.377 . S
C1037 H1021 0.930 . S
C1037 C1036 1.377 . S
C1037 C1038 1.379 . S
C1038 H1022 0.931 . S
C1038 C1032 1.383 . S
C1038 C1037 1.379 . S
H1039 C1033 0.959 . S
H1040 C1033 0.961 . S
H1041 C1033 0.960 . S
H1042 C1034 0.930 . S
H1043 C1035 0.929 . S
H1044 C1052 0.929 . S
H1045 C1054 0.930 . S
H1046 C1056 0.930 . S
H1047 C1059 0.919 1_554 S
H1048 C1062 0.930 . S
H1049 C1064 0.960 . S
H1050 C1064 0.960 . S
H1051 C1064 0.960 . S
C1052 H1044 0.929 . S
C1052 C1053 1.377 . S
C1052 C1054 1.384 . S
C1053 C1052 1.377 . S
C1053 C1059 1.394 . S
C1054 H1045 0.930 . S
C1054 C1052 1.384 . S
C1054 C1055 1.372 . S
C1055 C1054 1.372 . S
C1055 C1056 1.400 . S
C1055 C1060 1.490 . S
C1056 H1046 0.930 . S
C1056 C1055 1.400 . S
C1056 C1059 1.391 . S
H1057 C1073 0.930 . S
H1058 C1074 0.931 . S
C1059 H1047 0.919 1_556 S
C1059 C1053 1.394 . S
C1059 C1056 1.391 . S
C1060 C1055 1.490 . S
C1060 C1062 1.395 . S
C1060 C1063 1.403 . S
H1061 C1067 0.930 . S
C1062 H1048 0.930 . S
C1062 C1060 1.395 . S
C1062 C1065 1.403 . S
C1063 C1060 1.403 . S
C1063 C1064 1.524 . S
C1063 C1067 1.400 . S
C1064 H1049 0.960 . S
C1064 H1050 0.960 . S
C1064 H1051 0.960 . S
C1064 C1063 1.524 . S
C1065 C1062 1.403 . S
C1065 C1066 1.392 . S
C1065 C1069 1.495 . S
C1066 C1065 1.392 . S
C1066 C1067 1.385 . S
C1066 C1068 1.478 . S
C1067 H1061 0.930 . S
C1067 C1063 1.400 . S
C1067 C1066 1.385 . S
C1068 C1066 1.478 . S
C1068 C1070 1.381 . S
C1068 C1074 1.383 . S
C1069 C1065 1.495 . S
C1069 H1075 0.959 . S
C1069 H1076 0.961 . S
C1069 H1077 0.960 . S
C1070 C1068 1.381 . S
C1070 C1071 1.394 . S
C1070 H1078 0.930 . S
C1071 C1070 1.394 . S
C1071 C1072 1.383 . S
C1071 H1079 0.929 . S
C1072 C1071 1.383 . S
C1072 C1073 1.377 . S
C1073 H1057 0.930 . S
C1073 C1072 1.377 . S
C1073 C1074 1.379 . S
C1074 H1058 0.931 . S
C1074 C1068 1.383 . S
C1074 C1073 1.379 . S
H1075 C1069 0.959 . S
H1076 C1069 0.961 . S
H1077 C1069 0.960 . S
H1078 C1070 0.930 . S
H1079 C1071 0.929 . S
H1080 C1088 0.929 1_554 S
H1081 C1090 0.930 . S
H1082 C1092 0.930 . S
H1083 C1095 0.929 . S
H1084 C1098 0.930 . S
H1085 C1100 0.960 . S
H1086 C1100 0.960 . S
H1087 C1100 0.960 . S
C1088 H1080 0.929 1_556 S
C1088 C1089 1.377 . S
C1088 C1090 1.384 . S
C1089 C1088 1.377 . S
C1089 C1095 1.390 . S
C1090 H1081 0.930 . S
C1090 C1088 1.384 . S
C1090 C1091 1.372 . S
C1091 C1090 1.372 . S
C1091 C1092 1.400 . S
C1091 C1096 1.490 . S
C1092 H1082 0.930 . S
C1092 C1091 1.400 . S
C1092 C1095 1.386 . S
H1093 C1109 0.930 . S
H1094 C1110 0.931 . S
C1095 H1083 0.929 . S
C1095 C1089 1.390 . S
C1095 C1092 1.386 . S
C1096 C1091 1.490 . S
C1096 C1098 1.395 . S
C1096 C1099 1.403 . S
H1097 C1103 0.930 . S
C1098 H1084 0.930 . S
C1098 C1096 1.395 . S
C1098 C1101 1.403 . S
C1099 C1096 1.403 . S
C1099 C1100 1.524 . S
C1099 C1103 1.400 . S
C1100 H1085 0.960 . S
C1100 H1086 0.960 . S
C1100 H1087 0.960 . S
C1100 C1099 1.524 . S
C1101 C1098 1.403 . S
C1101 C1102 1.392 . S
C1101 C1105 1.495 . S
C1102 C1101 1.392 . S
C1102 C1103 1.385 . S
C1102 C1104 1.478 . S
C1103 H1097 0.930 . S
C1103 C1099 1.400 . S
C1103 C1102 1.385 . S
C1104 C1102 1.478 . S
C1104 C1106 1.381 . S
C1104 C1110 1.383 . S
C1105 C1101 1.495 . S
C1105 H1111 0.959 . S
C1105 H1112 0.961 . S
C1105 H1113 0.960 . S
C1106 C1104 1.381 . S
C1106 C1107 1.394 . S
C1106 H1114 0.930 . S
C1107 C1106 1.394 . S
C1107 C1108 1.383 . S
C1107 H1115 0.929 . S
C1108 C1107 1.383 . S
C1108 C1109 1.377 . S
C1109 H1093 0.930 . S
C1109 C1108 1.377 . S
C1109 C1110 1.379 . S
C1110 H1094 0.931 . S
C1110 C1104 1.383 . S
C1110 C1109 1.379 . S
H1111 C1105 0.959 . S
H1112 C1105 0.961 . S
H1113 C1105 0.960 . S
H1114 C1106 0.930 . S
H1115 C1107 0.929 . S
H1116 C1124 0.929 1_554 S
H1117 C1126 0.930 . S
H1118 C1128 0.930 . S
H1119 C1131 0.929 . S
H1120 C1134 0.930 . S
H1121 C1136 0.960 . S
H1122 C1136 0.960 . S
H1123 C1136 0.960 . S
C1124 H1116 0.929 1_556 S
C1124 C1125 1.377 . S
C1124 C1126 1.384 . S
C1125 C1124 1.377 . S
C1125 C1131 1.390 . S
C1126 H1117 0.930 . S
C1126 C1124 1.384 . S
C1126 C1127 1.372 . S
C1127 C1126 1.372 . S
C1127 C1128 1.400 . S
C1127 C1132 1.490 . S
C1128 H1118 0.930 . S
C1128 C1127 1.400 . S
C1128 C1131 1.386 . S
H1129 C1145 0.930 . S
H1130 C1146 0.931 . S
C1131 H1119 0.929 . S
C1131 C1125 1.390 . S
C1131 C1128 1.386 . S
C1132 C1127 1.490 . S
C1132 C1134 1.395 . S
C1132 C1135 1.403 . S
H1133 C1139 0.930 . S
C1134 H1120 0.930 . S
C1134 C1132 1.395 . S
C1134 C1137 1.403 . S
C1135 C1132 1.403 . S
C1135 C1136 1.524 . S
C1135 C1139 1.400 . S
C1136 H1121 0.960 . S
C1136 H1122 0.960 . S
C1136 H1123 0.960 . S
C1136 C1135 1.524 . S
C1137 C1134 1.403 . S
C1137 C1138 1.392 . S
C1137 C1141 1.495 . S
C1138 C1137 1.392 . S
C1138 C1139 1.385 . S
C1138 C1140 1.478 . S
C1139 H1133 0.930 . S
C1139 C1135 1.400 . S
C1139 C1138 1.385 . S
C1140 C1138 1.478 . S
C1140 C1142 1.381 . S
C1140 C1146 1.383 . S
C1141 C1137 1.495 . S
C1141 H1147 0.959 . S
C1141 H1148 0.961 . S
C1141 H1149 0.960 . S
C1142 C1140 1.381 . S
C1142 C1143 1.394 . S
C1142 H1150 0.930 . S
C1143 C1142 1.394 . S
C1143 C1144 1.383 . S
C1143 H1151 0.929 . S
C1144 C1143 1.383 . S
C1144 C1145 1.377 . S
C1145 H1129 0.930 . S
C1145 C1144 1.377 . S
C1145 C1146 1.379 . S
C1146 H1130 0.931 . S
C1146 C1140 1.383 . S
C1146 C1145 1.379 . S
H1147 C1141 0.959 . S
H1148 C1141 0.961 . S
H1149 C1141 0.960 . S
H1150 C1142 0.930 . S
H1151 C1143 0.929 . S
H1152 C1160 0.929 . S
H1153 C1162 0.930 . S
H1154 C1164 0.930 . S
H1155 C1167 0.929 . S
H1156 C1170 0.930 . S
H1157 C1172 0.960 . S
H1158 C1172 0.960 . S
H1159 C1172 0.960 . S
C1160 H1152 0.929 . S
C1160 C1161 1.377 . S
C1160 C1162 1.384 . S
C1161 C1160 1.377 . S
C1161 C1167 1.390 . S
C1162 H1153 0.930 . S
C1162 C1160 1.384 . S
C1162 C1163 1.372 . S
C1163 C1162 1.372 . S
C1163 C1164 1.400 . S
C1163 C1168 1.490 . S
C1164 H1154 0.930 . S
C1164 C1163 1.400 . S
C1164 C1167 1.386 . S
H1165 C1181 0.930 . S
H1166 C1182 0.931 . S
C1167 H1155 0.929 . S
C1167 C1161 1.390 . S
C1167 C1164 1.386 . S
C1168 C1163 1.490 . S
C1168 C1170 1.395 . S
C1168 C1171 1.403 . S
H1169 C1175 0.930 . S
C1170 H1156 0.930 . S
C1170 C1168 1.395 . S
C1170 C1173 1.403 . S
C1171 C1168 1.403 . S
C1171 C1172 1.524 . S
C1171 C1175 1.400 . S
C1172 H1157 0.960 . S
C1172 H1158 0.960 . S
C1172 H1159 0.960 . S
C1172 C1171 1.524 . S
C1173 C1170 1.403 . S
C1173 C1174 1.392 . S
C1173 C1177 1.495 . S
C1174 C1173 1.392 . S
C1174 C1175 1.385 . S
C1174 C1176 1.478 . S
C1175 H1169 0.930 . S
C1175 C1171 1.400 . S
C1175 C1174 1.385 . S
C1176 C1174 1.478 . S
C1176 C1178 1.381 . S
C1176 C1182 1.383 . S
C1177 C1173 1.495 . S
C1177 H1183 0.959 . S
C1177 H1184 0.961 . S
C1177 H1185 0.960 . S
C1178 C1176 1.381 . S
C1178 C1179 1.394 . S
C1178 H1186 0.930 . S
C1179 C1178 1.394 . S
C1179 C1180 1.383 . S
C1179 H1187 0.929 . S
C1180 C1179 1.383 . S
C1180 C1181 1.377 . S
C1181 H1165 0.930 . S
C1181 C1180 1.377 . S
C1181 C1182 1.379 . S
C1182 H1166 0.931 . S
C1182 C1176 1.383 . S
C1182 C1181 1.379 . S
H1183 C1177 0.959 . S
H1184 C1177 0.961 . S
H1185 C1177 0.960 . S
H1186 C1178 0.930 . S
H1187 C1179 0.929 . S
H1188 C1196 0.929 . S
H1189 C1198 0.930 . S
H1190 C1200 0.930 . S
H1191 C1203 0.929 . S
H1192 C1206 0.930 . S
H1193 C1208 0.960 . S
H1194 C1208 0.960 . S
H1195 C1208 0.960 . S
C1196 H1188 0.929 . S
C1196 C1197 1.377 . S
C1196 C1198 1.384 . S
C1197 C1196 1.377 . S
C1197 C1203 1.390 . S
C1198 H1189 0.930 . S
C1198 C1196 1.384 . S
C1198 C1199 1.372 . S
C1199 C1198 1.372 . S
C1199 C1200 1.400 . S
C1199 C1204 1.490 . S
C1200 H1190 0.930 . S
C1200 C1199 1.400 . S
C1200 C1203 1.386 . S
H1201 C1217 0.930 . S
H1202 C1218 0.931 . S
C1203 H1191 0.929 . S
C1203 C1197 1.390 . S
C1203 C1200 1.386 . S
C1204 C1199 1.490 . S
C1204 C1206 1.395 . S
C1204 C1207 1.403 . S
H1205 C1211 0.930 . S
C1206 H1192 0.930 . S
C1206 C1204 1.395 . S
C1206 C1209 1.403 . S
C1207 C1204 1.403 . S
C1207 C1208 1.524 . S
C1207 C1211 1.400 . S
C1208 H1193 0.960 . S
C1208 H1194 0.960 . S
C1208 H1195 0.960 . S
C1208 C1207 1.524 . S
C1209 C1206 1.403 . S
C1209 C1210 1.392 . S
C1209 C1213 1.495 . S
C1210 C1209 1.392 . S
C1210 C1211 1.385 . S
C1210 C1212 1.478 . S
C1211 H1205 0.930 . S
C1211 C1207 1.400 . S
C1211 C1210 1.385 . S
C1212 C1210 1.478 . S
C1212 C1214 1.381 . S
C1212 C1218 1.383 . S
C1213 C1209 1.495 . S
C1213 H1219 0.959 . S
C1213 H1220 0.961 . S
C1213 H1221 0.960 . S
C1214 C1212 1.381 . S
C1214 C1215 1.394 . S
C1214 H1222 0.930 . S
C1215 C1214 1.394 . S
C1215 C1216 1.383 . S
C1215 H1223 0.929 . S
C1216 C1215 1.383 . S
C1216 C1217 1.377 . S
C1217 H1201 0.930 . S
C1217 C1216 1.377 . S
C1217 C1218 1.379 . S
C1218 H1202 0.931 . S
C1218 C1212 1.383 . S
C1218 C1217 1.379 . S
H1219 C1213 0.959 . S
H1220 C1213 0.961 . S
H1221 C1213 0.960 . S
H1222 C1214 0.930 . S
H1223 C1215 0.929 . S
H1224 C1232 0.929 . S
H1225 C1234 0.930 . S
H1226 C1236 0.930 . S
H1227 C1239 0.929 . S
H1228 C1242 0.930 . S
H1229 C1244 0.960 . S
H1230 C1244 0.960 . S
H1231 C1244 0.960 . S
C1232 H1224 0.929 . S
C1232 C1233 1.377 . S
C1232 C1234 1.384 . S
C1233 C1232 1.377 . S
C1233 C1239 1.390 . S
C1234 H1225 0.930 . S
C1234 C1232 1.384 . S
C1234 C1235 1.372 . S
C1235 C1234 1.372 . S
C1235 C1236 1.400 . S
C1235 C1240 1.490 . S
C1236 H1226 0.930 . S
C1236 C1235 1.400 . S
C1236 C1239 1.386 . S
H1237 C1253 0.930 . S
H1238 C1254 0.931 . S
C1239 H1227 0.929 . S
C1239 C1233 1.390 . S
C1239 C1236 1.386 . S
C1240 C1235 1.490 . S
C1240 C1242 1.395 . S
C1240 C1243 1.403 . S
H1241 C1247 0.930 . S
C1242 H1228 0.930 . S
C1242 C1240 1.395 . S
C1242 C1245 1.403 . S
C1243 C1240 1.403 . S
C1243 C1244 1.524 . S
C1243 C1247 1.400 . S
C1244 H1229 0.960 . S
C1244 H1230 0.960 . S
C1244 H1231 0.960 . S
C1244 C1243 1.524 . S
C1245 C1242 1.403 . S
C1245 C1246 1.392 . S
C1245 C1249 1.495 . S
C1246 C1245 1.392 . S
C1246 C1247 1.385 . S
C1246 C1248 1.478 . S
C1247 H1241 0.930 . S
C1247 C1243 1.400 . S
C1247 C1246 1.385 . S
C1248 C1246 1.478 . S
C1248 C1250 1.381 . S
C1248 C1254 1.383 . S
C1249 C1245 1.495 . S
C1249 H1255 0.959 . S
C1249 H1256 0.961 . S
C1249 H1257 0.960 . S
C1250 C1248 1.381 . S
C1250 C1251 1.394 . S
C1250 H1258 0.930 . S
C1251 C1250 1.394 . S
C1251 C1252 1.383 . S
C1251 H1259 0.929 . S
C1252 C1251 1.383 . S
C1252 C1253 1.377 . S
C1253 H1237 0.930 . S
C1253 C1252 1.377 . S
C1253 C1254 1.379 . S
C1254 H1238 0.931 . S
C1254 C1248 1.383 . S
C1254 C1253 1.379 . S
H1255 C1249 0.959 . S
H1256 C1249 0.961 . S
H1257 C1249 0.960 . S
H1258 C1250 0.930 . S
H1259 C1251 0.929 . S
H1260 C1268 0.929 . S
H1261 C1270 0.930 . S
H1262 C1272 0.930 . S
H1263 C1275 0.929 . S
H1264 C1278 0.930 . S
H1265 C1280 0.960 . S
H1266 C1280 0.960 . S
H1267 C1280 0.960 . S
C1268 H1260 0.929 . S
C1268 C1269 1.377 . S
C1268 C1270 1.384 . S
C1269 C1268 1.377 . S
C1269 C1275 1.390 . S
C1270 H1261 0.930 . S
C1270 C1268 1.384 . S
C1270 C1271 1.372 . S
C1271 C1270 1.372 . S
C1271 C1272 1.400 . S
C1271 C1276 1.490 . S
C1272 H1262 0.930 . S
C1272 C1271 1.400 . S
C1272 C1275 1.386 . S
H1273 C1289 0.930 . S
H1274 C1290 0.931 . S
C1275 H1263 0.929 . S
C1275 C1269 1.390 . S
C1275 C1272 1.386 . S
C1276 C1271 1.490 . S
C1276 C1278 1.395 . S
C1276 C1279 1.403 . S
H1277 C1283 0.930 . S
C1278 H1264 0.930 . S
C1278 C1276 1.395 . S
C1278 C1281 1.403 . S
C1279 C1276 1.403 . S
C1279 C1280 1.524 . S
C1279 C1283 1.400 . S
C1280 H1265 0.960 . S
C1280 H1266 0.960 . S
C1280 H1267 0.960 . S
C1280 C1279 1.524 . S
C1281 C1278 1.403 . S
C1281 C1282 1.392 . S
C1281 C1285 1.495 . S
C1282 C1281 1.392 . S
C1282 C1283 1.385 . S
C1282 C1284 1.478 . S
C1283 H1277 0.930 . S
C1283 C1279 1.400 . S
C1283 C1282 1.385 . S
C1284 C1282 1.478 . S
C1284 C1286 1.381 . S
C1284 C1290 1.383 . S
C1285 C1281 1.495 . S
C1285 H1291 0.959 . S
C1285 H1292 0.961 . S
C1285 H1293 0.960 . S
C1286 C1284 1.381 . S
C1286 C1287 1.394 . S
C1286 H1294 0.930 . S
C1287 C1286 1.394 . S
C1287 C1288 1.383 . S
C1287 H1295 0.929 1_554 S
C1288 C1287 1.383 . S
C1288 C1289 1.377 . S
C1289 H1273 0.930 . S
C1289 C1288 1.377 . S
C1289 C1290 1.379 . S
C1290 H1274 0.931 . S
C1290 C1284 1.383 . S
C1290 C1289 1.379 . S
H1291 C1285 0.959 . S
H1292 C1285 0.961 . S
H1293 C1285 0.960 . S
H1294 C1286 0.930 . S
H1295 C1287 0.929 1_556 S
H1296 C1304 0.929 . S
H1297 C1306 0.930 . S
H1298 C1308 0.930 . S
H1299 C1311 0.929 . S
H1300 C1314 0.930 . S
H1301 C1316 0.960 . S
H1302 C1316 0.960 . S
H1303 C1316 0.960 . S
C1304 H1296 0.929 . S
C1304 C1305 1.377 . S
C1304 C1306 1.384 . S
C1305 C1304 1.377 . S
C1305 C1311 1.390 . S
C1306 H1297 0.930 . S
C1306 C1304 1.384 . S
C1306 C1307 1.372 . S
C1307 C1306 1.372 . S
C1307 C1308 1.400 . S
C1307 C1312 1.490 . S
C1308 H1298 0.930 . S
C1308 C1307 1.400 . S
C1308 C1311 1.386 . S
H1309 C1325 0.930 1_556 S
H1310 C1326 0.931 . S
C1311 H1299 0.929 . S
C1311 C1305 1.390 . S
C1311 C1308 1.386 . S
C1312 C1307 1.490 . S
C1312 C1314 1.395 . S
C1312 C1315 1.403 . S
H1313 C1319 0.930 . S
C1314 H1300 0.930 . S
C1314 C1312 1.395 . S
C1314 C1317 1.403 . S
C1315 C1312 1.403 . S
C1315 C1316 1.524 . S
C1315 C1319 1.400 . S
C1316 H1301 0.960 . S
C1316 H1302 0.960 . S
C1316 H1303 0.960 . S
C1316 C1315 1.524 . S
C1317 C1314 1.403 . S
C1317 C1318 1.392 . S
C1317 C1321 1.495 . S
C1318 C1317 1.392 . S
C1318 C1319 1.385 . S
C1318 C1320 1.478 . S
C1319 H1313 0.930 . S
C1319 C1315 1.400 . S
C1319 C1318 1.385 . S
C1320 C1318 1.478 . S
C1320 C1322 1.381 . S
C1320 C1326 1.383 . S
C1321 C1317 1.495 . S
C1321 H1327 0.959 . S
C1321 H1328 0.961 . S
C1321 H1329 0.960 . S
C1322 C1320 1.381 . S
C1322 C1323 1.394 . S
C1322 H1330 0.930 . S
C1323 C1322 1.394 . S
C1323 C1324 1.383 . S
C1323 H1331 0.929 . S
C1324 C1323 1.383 . S
C1324 C1325 1.377 . S
C1325 H1309 0.930 1_554 S
C1325 C1324 1.377 . S
C1325 C1326 1.379 . S
C1326 H1310 0.931 . S
C1326 C1320 1.383 . S
C1326 C1325 1.379 . S
H1327 C1321 0.959 . S
H1328 C1321 0.961 . S
H1329 C1321 0.960 . S
H1330 C1322 0.930 . S
H1331 C1323 0.929 . S
H1332 C1340 0.929 . S
H1333 C1342 0.930 . S
H1334 C1344 0.930 . S
H1335 C1347 0.929 . S
H1336 C1350 0.930 . S
H1337 C1352 0.960 . S
H1338 C1352 0.960 . S
H1339 C1352 0.960 . S
C1340 H1332 0.929 . S
C1340 C1341 1.377 . S
C1340 C1342 1.384 . S
C1341 C1340 1.377 . S
C1341 C1347 1.390 . S
C1342 H1333 0.930 . S
C1342 C1340 1.384 . S
C1342 C1343 1.372 . S
C1343 C1342 1.372 . S
C1343 C1344 1.400 . S
C1343 C1348 1.490 . S
C1344 H1334 0.930 . S
C1344 C1343 1.400 . S
C1344 C1347 1.386 . S
H1345 C1361 0.930 . S
H1346 C1362 0.931 . S
C1347 H1335 0.929 . S
C1347 C1341 1.390 . S
C1347 C1344 1.386 . S
C1348 C1343 1.490 . S
C1348 C1350 1.395 . S
C1348 C1351 1.403 . S
H1349 C1355 0.930 . S
C1350 H1336 0.930 . S
C1350 C1348 1.395 . S
C1350 C1353 1.403 . S
C1351 C1348 1.403 . S
C1351 C1352 1.524 . S
C1351 C1355 1.400 . S
C1352 H1337 0.960 . S
C1352 H1338 0.960 . S
C1352 H1339 0.960 . S
C1352 C1351 1.524 . S
C1353 C1350 1.403 . S
C1353 C1354 1.392 . S
C1353 C1357 1.495 . S
C1354 C1353 1.392 . S
C1354 C1355 1.385 . S
C1354 C1356 1.478 . S
C1355 H1349 0.930 . S
C1355 C1351 1.400 . S
C1355 C1354 1.385 . S
C1356 C1354 1.478 . S
C1356 C1358 1.381 . S
C1356 C1362 1.383 . S
C1357 C1353 1.495 . S
C1357 H1363 0.959 . S
C1357 H1364 0.961 . S
C1357 H1365 0.960 . S
C1358 C1356 1.381 . S
C1358 C1359 1.394 . S
C1358 H1366 0.930 . S
C1359 C1358 1.394 . S
C1359 C1360 1.383 . S
C1359 H1367 0.929 . S
C1360 C1359 1.383 . S
C1360 C1361 1.377 . S
C1361 H1345 0.930 . S
C1361 C1360 1.377 . S
C1361 C1362 1.379 . S
C1362 H1346 0.931 . S
C1362 C1356 1.383 . S
C1362 C1361 1.379 . S
H1363 C1357 0.959 . S
H1364 C1357 0.961 . S
H1365 C1357 0.960 . S
H1366 C1358 0.930 . S
H1367 C1359 0.929 . S
H1368 C1376 0.929 . S
H1369 C1378 0.930 . S
H1370 C1380 0.930 . S
H1371 C1383 0.929 . S
H1372 C1386 0.930 . S
H1373 C1388 0.960 . S
H1374 C1388 0.960 . S
H1375 C1388 0.960 . S
C1376 H1368 0.929 . S
C1376 C1377 1.377 . S
C1376 C1378 1.384 . S
C1377 C1376 1.377 . S
C1377 C1383 1.390 . S
C1378 H1369 0.930 . S
C1378 C1376 1.384 . S
C1378 C1379 1.372 . S
C1379 C1378 1.372 . S
C1379 C1380 1.400 . S
C1379 C1384 1.490 . S
C1380 H1370 0.930 . S
C1380 C1379 1.400 . S
C1380 C1383 1.386 . S
H1381 C1397 0.930 . S
H1382 C1398 0.931 . S
C1383 H1371 0.929 . S
C1383 C1377 1.390 . S
C1383 C1380 1.386 . S
C1384 C1379 1.490 . S
C1384 C1386 1.395 . S
C1384 C1387 1.403 . S
H1385 C1391 0.930 . S
C1386 H1372 0.930 . S
C1386 C1384 1.395 . S
C1386 C1389 1.403 . S
C1387 C1384 1.403 . S
C1387 C1388 1.524 . S
C1387 C1391 1.400 . S
C1388 H1373 0.960 . S
C1388 H1374 0.960 . S
C1388 H1375 0.960 . S
C1388 C1387 1.524 . S
C1389 C1386 1.403 . S
C1389 C1390 1.392 . S
C1389 C1393 1.495 . S
C1390 C1389 1.392 . S
C1390 C1391 1.385 . S
C1390 C1392 1.478 . S
C1391 H1385 0.930 . S
C1391 C1387 1.400 . S
C1391 C1390 1.385 . S
C1392 C1390 1.478 . S
C1392 C1394 1.381 . S
C1392 C1398 1.383 . S
C1393 C1389 1.495 . S
C1393 H1399 0.959 . S
C1393 H1400 0.961 . S
C1393 H1401 0.960 . S
C1394 C1392 1.381 . S
C1394 C1395 1.394 . S
C1394 H1402 0.930 . S
C1395 C1394 1.394 . S
C1395 C1396 1.383 . S
C1395 H1403 0.929 . S
C1396 C1395 1.383 . S
C1396 C1397 1.377 . S
C1397 H1381 0.930 . S
C1397 C1396 1.377 . S
C1397 C1398 1.379 . S
C1398 H1382 0.931 . S
C1398 C1392 1.383 . S
C1398 C1397 1.379 . S
H1399 C1393 0.959 . S
H1400 C1393 0.961 . S
H1401 C1393 0.960 . S
H1402 C1394 0.930 . S
H1403 C1395 0.929 . S
H1404 C1412 0.929 . S
H1405 C1414 0.930 . S
H1406 C1416 0.930 . S
H1407 C1419 0.929 . S
H1408 C1422 0.930 . S
H1409 C1424 0.960 . S
H1410 C1424 0.960 . S
H1411 C1424 0.960 . S
C1412 H1404 0.929 . S
C1412 C1413 1.377 . S
C1412 C1414 1.384 . S
C1413 C1412 1.377 . S
C1413 C1419 1.390 . S
C1414 H1405 0.930 . S
C1414 C1412 1.384 . S
C1414 C1415 1.372 . S
C1415 C1414 1.372 . S
C1415 C1416 1.400 . S
C1415 C1420 1.490 . S
C1416 H1406 0.930 . S
C1416 C1415 1.400 . S
C1416 C1419 1.386 . S
H1417 C1433 0.930 . S
H1418 C1434 0.931 . S
C1419 H1407 0.929 . S
C1419 C1413 1.390 . S
C1419 C1416 1.386 . S
C1420 C1415 1.490 . S
C1420 C1422 1.395 . S
C1420 C1423 1.403 . S
H1421 C1427 0.930 . S
C1422 H1408 0.930 . S
C1422 C1420 1.395 . S
C1422 C1425 1.403 . S
C1423 C1420 1.403 . S
C1423 C1424 1.524 . S
C1423 C1427 1.400 . S
C1424 H1409 0.960 . S
C1424 H1410 0.960 . S
C1424 H1411 0.960 . S
C1424 C1423 1.524 . S
C1425 C1422 1.403 . S
C1425 C1426 1.392 . S
C1425 C1429 1.495 . S
C1426 C1425 1.392 . S
C1426 C1427 1.385 . S
C1426 C1428 1.478 . S
C1427 H1421 0.930 . S
C1427 C1423 1.400 . S
C1427 C1426 1.385 . S
C1428 C1426 1.478 . S
C1428 C1430 1.381 . S
C1428 C1434 1.383 . S
C1429 C1425 1.495 . S
C1429 H1435 0.959 . S
C1429 H1436 0.961 . S
C1429 H1437 0.960 . S
C1430 C1428 1.381 . S
C1430 C1431 1.394 . S
C1430 H1438 0.930 . S
C1431 C1430 1.394 . S
C1431 C1432 1.383 . S
C1431 H1439 0.929 . S
C1432 C1431 1.383 . S
C1432 C1433 1.377 . S
C1433 H1417 0.930 . S
C1433 C1432 1.377 . S
C1433 C1434 1.379 . S
C1434 H1418 0.931 . S
C1434 C1428 1.383 . S
C1434 C1433 1.379 . S
H1435 C1429 0.959 . S
H1436 C1429 0.961 . S
H1437 C1429 0.960 . S
H1438 C1430 0.930 . S
H1439 C1431 0.929 . S
H1440 C1448 0.929 . S
H1441 C1450 0.930 . S
H1442 C1452 0.930 . S
H1443 C1455 0.929 . S
H1444 C1458 0.930 . S
H1445 C1460 0.960 . S
H1446 C1460 0.960 . S
H1447 C1460 0.960 . S
C1448 H1440 0.929 . S
C1448 C1449 1.377 . S
C1448 C1450 1.384 . S
C1449 C1448 1.377 . S
C1449 C1455 1.390 . S
C1450 H1441 0.930 . S
C1450 C1448 1.384 . S
C1450 C1451 1.372 . S
C1451 C1450 1.372 . S
C1451 C1452 1.400 . S
C1451 C1456 1.490 . S
C1452 H1442 0.930 . S
C1452 C1451 1.400 . S
C1452 C1455 1.386 . S
H1453 C1469 0.930 . S
H1454 C1470 0.931 . S
C1455 H1443 0.929 . S
C1455 C1449 1.390 . S
C1455 C1452 1.386 . S
C1456 C1451 1.490 . S
C1456 C1458 1.395 . S
C1456 C1459 1.403 . S
H1457 C1463 0.930 . S
C1458 H1444 0.930 . S
C1458 C1456 1.395 . S
C1458 C1461 1.403 . S
C1459 C1456 1.403 . S
C1459 C1460 1.524 . S
C1459 C1463 1.400 . S
C1460 H1445 0.960 . S
C1460 H1446 0.960 . S
C1460 H1447 0.960 . S
C1460 C1459 1.524 . S
C1461 C1458 1.403 . S
C1461 C1462 1.392 . S
C1461 C1465 1.495 . S
C1462 C1461 1.392 . S
C1462 C1463 1.385 . S
C1462 C1464 1.478 . S
C1463 H1457 0.930 . S
C1463 C1459 1.400 . S
C1463 C1462 1.385 . S
C1464 C1462 1.478 . S
C1464 C1466 1.381 . S
C1464 C1470 1.383 . S
C1465 C1461 1.495 . S
C1465 H1471 0.959 . S
C1465 H1472 0.961 . S
C1465 H1473 0.960 . S
C1466 C1464 1.381 . S
C1466 C1467 1.394 . S
C1466 H1474 0.930 . S
C1467 C1466 1.394 . S
C1467 C1468 1.383 . S
C1467 H1475 0.929 . S
C1468 C1467 1.383 . S
C1468 C1469 1.377 . S
C1469 H1453 0.930 . S
C1469 C1468 1.377 . S
C1469 C1470 1.379 . S
C1470 H1454 0.931 . S
C1470 C1464 1.383 . S
C1470 C1469 1.379 . S
H1471 C1465 0.959 . S
H1472 C1465 0.961 . S
H1473 C1465 0.960 . S
H1474 C1466 0.930 . S
H1475 C1467 0.929 . S
H1476 C1484 0.929 . S
H1477 C1486 0.930 . S
H1478 C1488 0.930 . S
H1479 C1491 0.929 . S
H1480 C1494 0.930 . S
H1481 C1496 0.960 . S
H1482 C1496 0.960 . S
H1483 C1496 0.960 . S
C1484 H1476 0.929 . S
C1484 C1485 1.377 . S
C1484 C1486 1.384 . S
C1485 C1484 1.377 . S
C1485 C1491 1.390 . S
C1486 H1477 0.930 . S
C1486 C1484 1.384 . S
C1486 C1487 1.372 . S
C1487 C1486 1.372 . S
C1487 C1488 1.400 . S
C1487 C1492 1.490 . S
C1488 H1478 0.930 . S
C1488 C1487 1.400 . S
C1488 C1491 1.386 . S
H1489 C1505 0.930 . S
H1490 C1506 0.931 . S
C1491 H1479 0.929 . S
C1491 C1485 1.390 . S
C1491 C1488 1.386 . S
C1492 C1487 1.490 . S
C1492 C1494 1.395 . S
C1492 C1495 1.403 . S
H1493 C1499 0.930 . S
C1494 H1480 0.930 . S
C1494 C1492 1.395 . S
C1494 C1497 1.403 . S
C1495 C1492 1.403 . S
C1495 C1496 1.524 . S
C1495 C1499 1.400 . S
C1496 H1481 0.960 . S
C1496 H1482 0.960 . S
C1496 H1483 0.960 . S
C1496 C1495 1.524 . S
C1497 C1494 1.403 . S
C1497 C1498 1.392 . S
C1497 C1501 1.495 . S
C1498 C1497 1.392 . S
C1498 C1499 1.385 . S
C1498 C1500 1.478 . S
C1499 H1493 0.930 . S
C1499 C1495 1.400 . S
C1499 C1498 1.385 . S
C1500 C1498 1.478 . S
C1500 C1502 1.381 . S
C1500 C1506 1.383 . S
C1501 C1497 1.495 . S
C1501 H1507 0.959 . S
C1501 H1508 0.961 . S
C1501 H1509 0.960 . S
C1502 C1500 1.381 . S
C1502 C1503 1.394 . S
C1502 H1510 0.930 . S
C1503 C1502 1.394 . S
C1503 C1504 1.383 . S
C1503 H1511 0.929 1_554 S
C1504 C1503 1.383 . S
C1504 C1505 1.377 . S
C1505 H1489 0.930 . S
C1505 C1504 1.377 . S
C1505 C1506 1.379 . S
C1506 H1490 0.931 . S
C1506 C1500 1.383 . S
C1506 C1505 1.379 . S
H1507 C1501 0.959 . S
H1508 C1501 0.961 . S
H1509 C1501 0.960 . S
H1510 C1502 0.930 . S
H1511 C1503 0.929 1_556 S
H1512 C1520 0.929 . S
H1513 C1522 0.930 . S
H1514 C1524 0.930 . S
H1515 C1527 0.929 . S
H1516 C1530 0.930 . S
H1517 C1532 0.960 . S
H1518 C1532 0.960 . S
H1519 C1532 0.960 . S
C1520 H1512 0.929 . S
C1520 C1521 1.377 . S
C1520 C1522 1.384 . S
C1521 C1520 1.377 . S
C1521 C1527 1.390 . S
C1522 H1513 0.930 . S
C1522 C1520 1.384 . S
C1522 C1523 1.372 . S
C1523 C1522 1.372 . S
C1523 C1524 1.400 . S
C1523 C1528 1.490 . S
C1524 H1514 0.930 . S
C1524 C1523 1.400 . S
C1524 C1527 1.386 . S
H1525 C1541 0.930 . S
H1526 C1542 0.931 . S
C1527 H1515 0.929 . S
C1527 C1521 1.390 . S
C1527 C1524 1.386 . S
C1528 C1523 1.490 . S
C1528 C1530 1.395 . S
C1528 C1531 1.403 . S
H1529 C1535 0.930 . S
C1530 H1516 0.930 . S
C1530 C1528 1.395 . S
C1530 C1533 1.403 . S
C1531 C1528 1.403 . S
C1531 C1532 1.524 . S
C1531 C1535 1.400 . S
C1532 H1517 0.960 . S
C1532 H1518 0.960 . S
C1532 H1519 0.960 . S
C1532 C1531 1.524 . S
C1533 C1530 1.403 . S
C1533 C1534 1.392 . S
C1533 C1537 1.495 . S
C1534 C1533 1.392 . S
C1534 C1535 1.385 . S
C1534 C1536 1.478 . S
C1535 H1529 0.930 . S
C1535 C1531 1.400 . S
C1535 C1534 1.385 . S
C1536 C1534 1.478 . S
C1536 C1538 1.381 . S
C1536 C1542 1.383 . S
C1537 C1533 1.495 . S
C1537 H1543 0.959 . S
C1537 H1544 0.961 . S
C1537 H1545 0.960 . S
C1538 C1536 1.381 . S
C1538 C1539 1.394 . S
C1538 H1546 0.930 . S
C1539 C1538 1.394 . S
C1539 C1540 1.383 . S
C1539 H1547 0.929 . S
C1540 C1539 1.383 . S
C1540 C1541 1.377 . S
C1541 H1525 0.930 . S
C1541 C1540 1.377 . S
C1541 C1542 1.379 . S
C1542 H1526 0.931 . S
C1542 C1536 1.383 . S
C1542 C1541 1.379 . S
H1543 C1537 0.959 . S
H1544 C1537 0.961 . S
H1545 C1537 0.960 . S
H1546 C1538 0.930 . S
H1547 C1539 0.929 . S
H1548 C1556 0.929 . S
H1549 C1558 0.930 . S
H1550 C1560 0.930 . S
H1551 C1563 0.929 . S
H1552 C1566 0.930 . S
H1553 C1568 0.960 . S
H1554 C1568 0.960 . S
H1555 C1568 0.960 . S
C1556 H1548 0.929 . S
C1556 C1557 1.377 . S
C1556 C1558 1.384 . S
C1557 C1556 1.377 . S
C1557 C1563 1.390 . S
C1558 H1549 0.930 . S
C1558 C1556 1.384 . S
C1558 C1559 1.372 . S
C1559 C1558 1.372 . S
C1559 C1560 1.400 . S
C1559 C1564 1.490 . S
C1560 H1550 0.930 . S
C1560 C1559 1.400 . S
C1560 C1563 1.386 . S
H1561 C1577 0.930 . S
H1562 C1578 0.931 . S
C1563 H1551 0.929 . S
C1563 C1557 1.390 . S
C1563 C1560 1.386 . S
C1564 C1559 1.490 . S
C1564 C1566 1.395 . S
C1564 C1567 1.403 . S
H1565 C1571 0.930 . S
C1566 H1552 0.930 . S
C1566 C1564 1.395 . S
C1566 C1569 1.403 . S
C1567 C1564 1.403 . S
C1567 C1568 1.524 . S
C1567 C1571 1.400 . S
C1568 H1553 0.960 . S
C1568 H1554 0.960 . S
C1568 H1555 0.960 . S
C1568 C1567 1.524 . S
C1569 C1566 1.403 . S
C1569 C1570 1.392 . S
C1569 C1573 1.495 . S
C1570 C1569 1.392 . S
C1570 C1571 1.385 . S
C1570 C1572 1.478 . S
C1571 H1565 0.930 . S
C1571 C1567 1.400 . S
C1571 C1570 1.385 . S
C1572 C1570 1.478 . S
C1572 C1574 1.381 . S
C1572 C1578 1.383 . S
C1573 C1569 1.495 . S
C1573 H1579 0.959 . S
C1573 H1580 0.961 . S
C1573 H1581 0.960 . S
C1574 C1572 1.381 . S
C1574 C1575 1.394 . S
C1574 H1582 0.930 . S
C1575 C1574 1.394 . S
C1575 C1576 1.383 . S
C1575 H1583 0.929 . S
C1576 C1575 1.383 . S
C1576 C1577 1.377 . S
C1577 H1561 0.930 . S
C1577 C1576 1.377 . S
C1577 C1578 1.379 . S
C1578 H1562 0.931 . S
C1578 C1572 1.383 . S
C1578 C1577 1.379 . S
H1579 C1573 0.959 . S
H1580 C1573 0.961 . S
H1581 C1573 0.960 . S
H1582 C1574 0.930 . S
H1583 C1575 0.929 . S
H1584 C1592 0.929 . S
H1585 C1594 0.930 . S
H1586 C1596 0.930 . S
H1587 C1599 0.929 . S
H1588 C1602 0.930 . S
H1589 C1604 0.960 . S
H1590 C1604 0.960 . S
H1591 C1604 0.960 . S
C1592 H1584 0.929 . S
C1592 C1593 1.377 . S
C1592 C1594 1.384 . S
C1593 C1592 1.377 . S
C1593 C1599 1.390 . S
C1594 H1585 0.930 . S
C1594 C1592 1.384 . S
C1594 C1595 1.372 . S
C1595 C1594 1.372 . S
C1595 C1596 1.400 . S
C1595 C1600 1.490 . S
C1596 H1586 0.930 . S
C1596 C1595 1.400 . S
C1596 C1599 1.386 . S
H1597 C1613 0.930 . S
H1598 C1614 0.931 . S
C1599 H1587 0.929 . S
C1599 C1593 1.390 . S
C1599 C1596 1.386 . S
C1600 C1595 1.490 . S
C1600 C1602 1.395 . S
C1600 C1603 1.403 . S
H1601 C1607 0.930 . S
C1602 H1588 0.930 . S
C1602 C1600 1.395 . S
C1602 C1605 1.403 . S
C1603 C1600 1.403 . S
C1603 C1604 1.524 . S
C1603 C1607 1.400 . S
C1604 H1589 0.960 . S
C1604 H1590 0.960 . S
C1604 H1591 0.960 . S
C1604 C1603 1.524 . S
C1605 C1602 1.403 . S
C1605 C1606 1.392 . S
C1605 C1609 1.495 . S
C1606 C1605 1.392 . S
C1606 C1607 1.385 . S
C1606 C1608 1.478 . S
C1607 H1601 0.930 . S
C1607 C1603 1.400 . S
C1607 C1606 1.385 . S
C1608 C1606 1.478 . S
C1608 C1610 1.381 . S
C1608 C1614 1.383 . S
C1609 C1605 1.495 . S
C1609 H1615 0.959 . S
C1609 H1616 0.961 . S
C1609 H1617 0.960 . S
C1610 C1608 1.381 . S
C1610 C1611 1.394 . S
C1610 H1618 0.930 . S
C1611 C1610 1.394 . S
C1611 C1612 1.383 . S
C1611 H1619 0.929 . S
C1612 C1611 1.383 . S
C1612 C1613 1.377 . S
C1613 H1597 0.930 . S
C1613 C1612 1.377 . S
C1613 C1614 1.379 . S
C1614 H1598 0.931 . S
C1614 C1608 1.383 . S
C1614 C1613 1.379 . S
H1615 C1609 0.959 . S
H1616 C1609 0.961 . S
H1617 C1609 0.960 . S
H1618 C1610 0.930 . S
H1619 C1611 0.929 . S
H1620 C1628 0.929 . S
H1621 C1630 0.930 . S
H1622 C1632 0.930 . S
H1623 C1635 0.929 . S
H1624 C1638 0.930 . S
H1625 C1640 0.960 . S
H1626 C1640 0.960 . S
H1627 C1640 0.960 . S
C1628 H1620 0.929 . S
C1628 C1629 1.377 . S
C1628 C1630 1.384 . S
C1629 C1628 1.377 . S
C1629 C1635 1.390 . S
C1630 H1621 0.930 . S
C1630 C1628 1.384 . S
C1630 C1631 1.372 . S
C1631 C1630 1.372 . S
C1631 C1632 1.400 . S
C1631 C1636 1.490 . S
C1632 H1622 0.930 . S
C1632 C1631 1.400 . S
C1632 C1635 1.386 . S
H1633 C1649 0.930 . S
H1634 C1650 0.931 . S
C1635 H1623 0.929 . S
C1635 C1629 1.390 . S
C1635 C1632 1.386 . S
C1636 C1631 1.490 . S
C1636 C1638 1.395 . S
C1636 C1639 1.403 . S
H1637 C1643 0.930 . S
C1638 H1624 0.930 . S
C1638 C1636 1.395 . S
C1638 C1641 1.403 . S
C1639 C1636 1.403 . S
C1639 C1640 1.524 . S
C1639 C1643 1.400 . S
C1640 H1625 0.960 . S
C1640 H1626 0.960 . S
C1640 H1627 0.960 . S
C1640 C1639 1.524 . S
C1641 C1638 1.403 . S
C1641 C1642 1.392 . S
C1641 C1645 1.495 . S
C1642 C1641 1.392 . S
C1642 C1643 1.385 . S
C1642 C1644 1.478 . S
C1643 H1637 0.930 . S
C1643 C1639 1.400 . S
C1643 C1642 1.385 . S
C1644 C1642 1.478 . S
C1644 C1646 1.381 . S
C1644 C1650 1.383 . S
C1645 C1641 1.495 . S
C1645 H1651 0.959 . S
C1645 H1652 0.961 . S
C1645 H1653 0.960 . S
C1646 C1644 1.381 . S
C1646 C1647 1.394 . S
C1646 H1654 0.930 . S
C1647 C1646 1.394 . S
C1647 C1648 1.383 . S
C1647 H1655 0.929 . S
C1648 C1647 1.383 . S
C1648 C1649 1.377 . S
C1649 H1633 0.930 . S
C1649 C1648 1.377 . S
C1649 C1650 1.379 . S
C1650 H1634 0.931 . S
C1650 C1644 1.383 . S
C1650 C1649 1.379 . S
H1651 C1645 0.959 . S
H1652 C1645 0.961 . S
H1653 C1645 0.960 . S
H1654 C1646 0.930 . S
H1655 C1647 0.929 . S
H1656 C1664 0.929 . S
H1657 C1666 0.930 . S
H1658 C1668 0.930 . S
H1659 C1671 0.929 . S
H1660 C1674 0.930 . S
H1661 C1676 0.960 . S
H1662 C1676 0.960 . S
H1663 C1676 0.960 . S
C1664 H1656 0.929 . S
C1664 C1665 1.377 . S
C1664 C1666 1.384 . S
C1665 C1664 1.377 . S
C1665 C1671 1.390 . S
C1666 H1657 0.930 . S
C1666 C1664 1.384 . S
C1666 C1667 1.372 . S
C1667 C1666 1.372 . S
C1667 C1668 1.400 . S
C1667 C1672 1.490 . S
C1668 H1658 0.930 . S
C1668 C1667 1.400 . S
C1668 C1671 1.386 . S
H1669 C1685 0.930 . S
H1670 C1686 0.931 . S
C1671 H1659 0.929 . S
C1671 C1665 1.390 . S
C1671 C1668 1.386 . S
C1672 C1667 1.490 . S
C1672 C1674 1.395 . S
C1672 C1675 1.403 . S
H1673 C1679 0.930 . S
C1674 H1660 0.930 . S
C1674 C1672 1.395 . S
C1674 C1677 1.403 . S
C1675 C1672 1.403 . S
C1675 C1676 1.524 . S
C1675 C1679 1.400 . S
C1676 H1661 0.960 . S
C1676 H1662 0.960 . S
C1676 H1663 0.960 . S
C1676 C1675 1.524 . S
C1677 C1674 1.403 . S
C1677 C1678 1.392 . S
C1677 C1681 1.495 . S
C1678 C1677 1.392 . S
C1678 C1679 1.385 . S
C1678 C1680 1.478 . S
C1679 H1673 0.930 . S
C1679 C1675 1.400 . S
C1679 C1678 1.385 . S
C1680 C1678 1.478 . S
C1680 C1682 1.381 . S
C1680 C1686 1.383 . S
C1681 C1677 1.495 . S
C1681 H1687 0.959 . S
C1681 H1688 0.961 . S
C1681 H1689 0.960 . S
C1682 C1680 1.381 . S
C1682 C1683 1.394 . S
C1682 H1690 0.930 . S
C1683 C1682 1.394 . S
C1683 C1684 1.383 . S
C1683 H1691 0.929 . S
C1684 C1683 1.383 . S
C1684 C1685 1.377 . S
C1685 H1669 0.930 . S
C1685 C1684 1.377 . S
C1685 C1686 1.379 . S
C1686 H1670 0.931 . S
C1686 C1680 1.383 . S
C1686 C1685 1.379 . S
H1687 C1681 0.959 . S
H1688 C1681 0.961 . S
H1689 C1681 0.960 . S
H1690 C1682 0.930 . S
H1691 C1683 0.929 . S
H1692 C1700 0.929 . S
H1693 C1702 0.930 . S
H1694 C1704 0.930 . S
H1695 C1707 0.929 . S
H1696 C1710 0.930 . S
H1697 C1712 0.960 . S
H1698 C1712 0.960 . S
H1699 C1712 0.960 . S
C1700 H1692 0.929 . S
C1700 C1701 1.377 . S
C1700 C1702 1.384 . S
C1701 C1700 1.377 . S
C1701 C1707 1.390 . S
C1702 H1693 0.930 . S
C1702 C1700 1.384 . S
C1702 C1703 1.372 . S
C1703 C1702 1.372 . S
C1703 C1704 1.400 . S
C1703 C1708 1.490 . S
C1704 H1694 0.930 . S
C1704 C1703 1.400 . S
C1704 C1707 1.386 . S
H1705 C1721 0.930 . S
H1706 C1722 0.931 . S
C1707 H1695 0.929 . S
C1707 C1701 1.390 . S
C1707 C1704 1.386 . S
C1708 C1703 1.490 . S
C1708 C1710 1.395 . S
C1708 C1711 1.403 . S
H1709 C1715 0.930 . S
C1710 H1696 0.930 . S
C1710 C1708 1.395 . S
C1710 C1713 1.403 . S
C1711 C1708 1.403 . S
C1711 C1712 1.524 . S
C1711 C1715 1.400 . S
C1712 H1697 0.960 . S
C1712 H1698 0.960 . S
C1712 H1699 0.960 . S
C1712 C1711 1.524 . S
C1713 C1710 1.403 . S
C1713 C1714 1.392 . S
C1713 C1717 1.495 . S
C1714 C1713 1.392 . S
C1714 C1715 1.385 . S
C1714 C1716 1.478 . S
C1715 H1709 0.930 . S
C1715 C1711 1.400 . S
C1715 C1714 1.385 . S
C1716 C1714 1.478 . S
C1716 C1718 1.381 . S
C1716 C1722 1.383 . S
C1717 C1713 1.495 . S
C1717 H1723 0.959 . S
C1717 H1724 0.961 . S
C1717 H1725 0.960 . S
C1718 C1716 1.381 . S
C1718 C1719 1.394 . S
C1718 H1726 0.930 . S
C1719 C1718 1.394 . S
C1719 C1720 1.383 . S
C1719 H1727 0.929 . S
C1720 C1719 1.383 . S
C1720 C1721 1.377 . S
C1721 H1705 0.930 . S
C1721 C1720 1.377 . S
C1721 C1722 1.379 . S
C1722 H1706 0.931 . S
C1722 C1716 1.383 . S
C1722 C1721 1.379 . S
H1723 C1717 0.959 . S
H1724 C1717 0.961 . S
H1725 C1717 0.960 . S
H1726 C1718 0.930 . S
H1727 C1719 0.929 . S
H1728 C1736 0.929 . S
H1729 C1738 0.930 . S
H1730 C1740 0.930 . S
H1731 C1743 0.929 . S
H1732 C1746 0.930 . S
H1733 C1748 0.960 . S
H1734 C1748 0.960 . S
H1735 C1748 0.960 . S
C1736 H1728 0.929 . S
C1736 C1737 1.377 . S
C1736 C1738 1.384 . S
C1737 C1736 1.377 . S
C1737 C1743 1.390 . S
C1738 H1729 0.930 . S
C1738 C1736 1.384 . S
C1738 C1739 1.372 . S
C1739 C1738 1.372 . S
C1739 C1740 1.400 . S
C1739 C1744 1.490 . S
C1740 H1730 0.930 . S
C1740 C1739 1.400 . S
C1740 C1743 1.386 . S
H1741 C1757 0.930 . S
H1742 C1758 0.931 . S
C1743 H1731 0.929 . S
C1743 C1737 1.390 . S
C1743 C1740 1.386 . S
C1744 C1739 1.490 . S
C1744 C1746 1.395 . S
C1744 C1747 1.403 . S
H1745 C1751 0.930 . S
C1746 H1732 0.930 . S
C1746 C1744 1.395 . S
C1746 C1749 1.403 . S
C1747 C1744 1.403 . S
C1747 C1748 1.524 . S
C1747 C1751 1.400 . S
C1748 H1733 0.960 . S
C1748 H1734 0.960 . S
C1748 H1735 0.960 . S
C1748 C1747 1.524 . S
C1749 C1746 1.403 . S
C1749 C1750 1.392 . S
C1749 C1753 1.495 . S
C1750 C1749 1.392 . S
C1750 C1751 1.385 . S
C1750 C1752 1.478 . S
C1751 H1745 0.930 . S
C1751 C1747 1.400 . S
C1751 C1750 1.385 . S
C1752 C1750 1.478 . S
C1752 C1754 1.381 . S
C1752 C1758 1.383 . S
C1753 C1749 1.495 . S
C1753 H1759 0.959 . S
C1753 H1760 0.961 . S
C1753 H1761 0.960 . S
C1754 C1752 1.381 . S
C1754 C1755 1.394 . S
C1754 H1762 0.930 . S
C1755 C1754 1.394 . S
C1755 C1756 1.383 . S
C1755 H1763 0.929 . S
C1756 C1755 1.383 . S
C1756 C1757 1.377 . S
C1757 H1741 0.930 . S
C1757 C1756 1.377 . S
C1757 C1758 1.379 . S
C1758 H1742 0.931 . S
C1758 C1752 1.383 . S
C1758 C1757 1.379 . S
H1759 C1753 0.959 . S
H1760 C1753 0.961 . S
H1761 C1753 0.960 . S
H1762 C1754 0.930 . S
H1763 C1755 0.929 . S
H1764 C1772 0.929 . S
H1765 C1774 0.930 . S
H1766 C1776 0.930 . S
H1767 C1779 0.929 . S
H1768 C1782 0.930 . S
H1769 C1784 0.960 . S
H1770 C1784 0.960 . S
H1771 C1784 0.960 . S
C1772 H1764 0.929 . S
C1772 C1773 1.377 . S
C1772 C1774 1.384 . S
C1773 C1772 1.377 . S
C1773 C1779 1.390 . S
C1774 H1765 0.930 . S
C1774 C1772 1.384 . S
C1774 C1775 1.372 . S
C1775 C1774 1.372 . S
C1775 C1776 1.400 . S
C1775 C1780 1.490 . S
C1776 H1766 0.930 . S
C1776 C1775 1.400 . S
C1776 C1779 1.386 . S
H1777 C1793 0.930 . S
H1778 C1794 0.931 . S
C1779 H1767 0.929 . S
C1779 C1773 1.390 . S
C1779 C1776 1.386 . S
C1780 C1775 1.490 . S
C1780 C1782 1.395 . S
C1780 C1783 1.403 . S
H1781 C1787 0.930 . S
C1782 H1768 0.930 . S
C1782 C1780 1.395 . S
C1782 C1785 1.403 . S
C1783 C1780 1.403 . S
C1783 C1784 1.524 . S
C1783 C1787 1.400 . S
C1784 H1769 0.960 . S
C1784 H1770 0.960 . S
C1784 H1771 0.960 . S
C1784 C1783 1.524 . S
C1785 C1782 1.403 . S
C1785 C1786 1.392 . S
C1785 C1789 1.495 . S
C1786 C1785 1.392 . S
C1786 C1787 1.385 . S
C1786 C1788 1.478 . S
C1787 H1781 0.930 . S
C1787 C1783 1.400 . S
C1787 C1786 1.385 . S
C1788 C1786 1.478 . S
C1788 C1790 1.381 . S
C1788 C1794 1.383 . S
C1789 C1785 1.495 . S
C1789 H1795 0.959 . S
C1789 H1796 0.961 . S
C1789 H1797 0.960 . S
C1790 C1788 1.381 . S
C1790 C1791 1.394 . S
C1790 H1798 0.930 . S
C1791 C1790 1.394 . S
C1791 C1792 1.383 . S
C1791 H1799 0.929 . S
C1792 C1791 1.383 . S
C1792 C1793 1.377 . S
C1793 H1777 0.930 . S
C1793 C1792 1.377 . S
C1793 C1794 1.379 . S
C1794 H1778 0.931 . S
C1794 C1788 1.383 . S
C1794 C1793 1.379 . S
H1795 C1789 0.959 . S
H1796 C1789 0.961 . S
H1797 C1789 0.960 . S
H1798 C1790 0.930 . S
H1799 C1791 0.929 . S
H1800 C1808 0.929 . S
H1801 C1810 0.930 . S
H1802 C1812 0.930 . S
H1803 C1815 0.929 . S
H1804 C1818 0.930 . S
H1805 C1820 0.960 1_554 S
H1806 C1820 0.960 . S
H1807 C1820 0.960 . S
C1808 H1800 0.929 . S
C1808 C1809 1.377 . S
C1808 C1810 1.384 . S
C1809 C1808 1.377 . S
C1809 C1815 1.390 . S
C1810 H1801 0.930 . S
C1810 C1808 1.384 . S
C1810 C1811 1.372 . S
C1811 C1810 1.372 . S
C1811 C1812 1.400 . S
C1811 C1816 1.490 . S
C1812 H1802 0.930 . S
C1812 C1811 1.400 . S
C1812 C1815 1.386 . S
H1813 C1829 0.930 . S
H1814 C1830 0.931 . S
C1815 H1803 0.929 . S
C1815 C1809 1.390 . S
C1815 C1812 1.386 . S
C1816 C1811 1.490 . S
C1816 C1818 1.395 . S
C1816 C1819 1.403 . S
H1817 C1823 0.930 1_554 S
C1818 H1804 0.930 . S
C1818 C1816 1.395 . S
C1818 C1821 1.403 . S
C1819 C1816 1.403 . S
C1819 C1820 1.524 . S
C1819 C1823 1.400 . S
C1820 H1805 0.960 1_556 S
C1820 H1806 0.960 . S
C1820 H1807 0.960 . S
C1820 C1819 1.524 . S
C1821 C1818 1.403 . S
C1821 C1822 1.392 . S
C1821 C1825 1.495 . S
C1822 C1821 1.392 . S
C1822 C1823 1.385 . S
C1822 C1824 1.478 . S
C1823 H1817 0.930 1_556 S
C1823 C1819 1.400 . S
C1823 C1822 1.385 . S
C1824 C1822 1.478 . S
C1824 C1826 1.381 . S
C1824 C1830 1.383 1_556 S
C1825 C1821 1.495 . S
C1825 H1831 0.959 . S
C1825 H1832 0.961 . S
C1825 H1833 0.960 . S
C1826 C1824 1.381 . S
C1826 C1827 1.394 1_556 S
C1826 H1834 0.930 . S
C1827 C1826 1.394 1_554 S
C1827 C1828 1.383 . S
C1827 H1835 0.929 . S
C1828 C1827 1.383 . S
C1828 C1829 1.377 . S
C1829 H1813 0.930 . S
C1829 C1828 1.377 . S
C1829 C1830 1.379 . S
C1830 H1814 0.931 . S
C1830 C1824 1.383 1_554 S
C1830 C1829 1.379 . S
H1831 C1825 0.959 . S
H1832 C1825 0.961 . S
H1833 C1825 0.960 . S
H1834 C1826 0.930 . S
H1835 C1827 0.929 . S
H1836 C1844 0.929 . S
H1837 C1846 0.930 . S
H1838 C1848 0.930 . S
H1839 C1851 0.929 . S
H1840 C1854 0.930 . S
H1841 C1856 0.960 . S
H1842 C1856 0.960 . S
H1843 C1856 0.960 . S
C1844 H1836 0.929 . S
C1844 C1845 1.377 . S
C1844 C1846 1.384 . S
C1845 C1844 1.377 . S
C1845 C1851 1.390 . S
C1846 H1837 0.930 . S
C1846 C1844 1.384 . S
C1846 C1847 1.372 . S
C1847 C1846 1.372 . S
C1847 C1848 1.400 . S
C1847 C1852 1.490 . S
C1848 H1838 0.930 . S
C1848 C1847 1.400 . S
C1848 C1851 1.386 . S
H1849 C1865 0.930 . S
H1850 C1866 0.931 . S
C1851 H1839 0.929 . S
C1851 C1845 1.390 . S
C1851 C1848 1.386 . S
C1852 C1847 1.490 . S
C1852 C1854 1.395 . S
C1852 C1855 1.403 . S
H1853 C1859 0.930 . S
C1854 H1840 0.930 . S
C1854 C1852 1.395 . S
C1854 C1857 1.403 . S
C1855 C1852 1.403 . S
C1855 C1856 1.524 . S
C1855 C1859 1.400 . S
C1856 H1841 0.960 . S
C1856 H1842 0.960 . S
C1856 H1843 0.960 . S
C1856 C1855 1.524 . S
C1857 C1854 1.403 . S
C1857 C1858 1.392 . S
C1857 C1861 1.495 1_556 S
C1858 C1857 1.392 . S
C1858 C1859 1.385 . S
C1858 C1860 1.478 . S
C1859 H1853 0.930 . S
C1859 C1855 1.400 . S
C1859 C1858 1.385 . S
C1860 C1858 1.478 . S
C1860 C1862 1.381 . S
C1860 C1866 1.383 1_556 S
C1861 C1857 1.495 1_554 S
C1861 H1867 0.959 . S
C1861 H1868 0.961 . S
C1861 H1869 0.960 . S
C1862 C1860 1.381 . S
C1862 C1863 1.394 1_556 S
C1862 H1870 0.930 . S
C1863 C1862 1.394 1_554 S
C1863 C1864 1.383 . S
C1863 H1871 0.929 . S
C1864 C1863 1.383 . S
C1864 C1865 1.377 . S
C1865 H1849 0.930 . S
C1865 C1864 1.377 . S
C1865 C1866 1.379 . S
C1866 H1850 0.931 . S
C1866 C1860 1.383 1_554 S
C1866 C1865 1.379 . S
H1867 C1861 0.959 . S
H1868 C1861 0.961 . S
H1869 C1861 0.960 . S
H1870 C1862 0.930 . S
H1871 C1863 0.929 . S
H1872 C1880 0.929 . S
H1873 C1882 0.930 . S
H1874 C1884 0.930 . S
H1875 C1887 0.929 . S
H1876 C1890 0.930 . S
H1877 C1892 0.960 . S
H1878 C1892 0.960 . S
H1879 C1892 0.960 . S
C1880 H1872 0.929 . S
C1880 C1881 1.377 . S
C1880 C1882 1.384 . S
C1881 C1880 1.377 . S
C1881 C1887 1.390 . S
C1882 H1873 0.930 . S
C1882 C1880 1.384 . S
C1882 C1883 1.372 . S
C1883 C1882 1.372 . S
C1883 C1884 1.400 . S
C1883 C1888 1.490 . S
C1884 H1874 0.930 . S
C1884 C1883 1.400 . S
C1884 C1887 1.386 . S
H1885 C1901 0.930 . S
H1886 C1902 0.931 . S
C1887 H1875 0.929 . S
C1887 C1881 1.390 . S
C1887 C1884 1.386 . S
C1888 C1883 1.490 . S
C1888 C1890 1.395 . S
C1888 C1891 1.403 . S
H1889 C1895 0.930 . S
C1890 H1876 0.930 . S
C1890 C1888 1.395 . S
C1890 C1893 1.403 . S
C1891 C1888 1.403 . S
C1891 C1892 1.524 . S
C1891 C1895 1.400 . S
C1892 H1877 0.960 . S
C1892 H1878 0.960 . S
C1892 H1879 0.960 . S
C1892 C1891 1.524 . S
C1893 C1890 1.403 . S
C1893 C1894 1.392 . S
C1893 C1897 1.495 . S
C1894 C1893 1.392 . S
C1894 C1895 1.385 . S
C1894 C1896 1.478 . S
C1895 H1889 0.930 . S
C1895 C1891 1.400 . S
C1895 C1894 1.385 . S
C1896 C1894 1.478 . S
C1896 C1898 1.381 1_556 S
C1896 C1902 1.383 . S
C1897 C1893 1.495 . S
C1897 H1903 0.959 . S
C1897 H1904 0.961 . S
C1897 H1905 0.960 1_556 S
C1898 C1896 1.381 1_554 S
C1898 C1899 1.394 . S
C1898 H1906 0.930 . S
C1899 C1898 1.394 . S
C1899 C1900 1.383 . S
C1899 H1907 0.929 . S
C1900 C1899 1.383 . S
C1900 C1901 1.377 1_554 S
C1901 H1885 0.930 . S
C1901 C1900 1.377 1_556 S
C1901 C1902 1.379 . S
C1902 H1886 0.931 . S
C1902 C1896 1.383 . S
C1902 C1901 1.379 . S
H1903 C1897 0.959 . S
H1904 C1897 0.961 . S
H1905 C1897 0.960 1_554 S
H1906 C1898 0.930 . S
H1907 C1899 0.929 . S
H1908 C1916 0.929 . S
H1909 C1918 0.930 . S
H1910 C1920 0.930 . S
H1911 C1923 0.929 . S
H1912 C1926 0.930 . S
H1913 C1928 0.960 . S
H1914 C1928 0.960 . S
H1915 C1928 0.960 . S
C1916 H1908 0.929 . S
C1916 C1917 1.377 . S
C1916 C1918 1.384 . S
C1917 C1916 1.377 . S
C1917 C1923 1.390 . S
C1918 H1909 0.930 . S
C1918 C1916 1.384 . S
C1918 C1919 1.372 . S
C1919 C1918 1.372 . S
C1919 C1920 1.400 . S
C1919 C1924 1.490 . S
C1920 H1910 0.930 . S
C1920 C1919 1.400 . S
C1920 C1923 1.386 . S
H1921 C1937 0.930 . S
H1922 C1938 0.931 . S
C1923 H1911 0.929 . S
C1923 C1917 1.390 . S
C1923 C1920 1.386 . S
C1924 C1919 1.490 . S
C1924 C1926 1.395 . S
C1924 C1927 1.403 . S
H1925 C1931 0.930 . S
C1926 H1912 0.930 . S
C1926 C1924 1.395 . S
C1926 C1929 1.403 . S
C1927 C1924 1.403 . S
C1927 C1928 1.524 . S
C1927 C1931 1.400 . S
C1928 H1913 0.960 . S
C1928 H1914 0.960 . S
C1928 H1915 0.960 . S
C1928 C1927 1.524 . S
C1929 C1926 1.403 . S
C1929 C1930 1.392 . S
C1929 C1933 1.495 . S
C1930 C1929 1.392 . S
C1930 C1931 1.385 . S
C1930 C1932 1.478 . S
C1931 H1925 0.930 . S
C1931 C1927 1.400 . S
C1931 C1930 1.385 . S
C1932 C1930 1.478 . S
C1932 C1934 1.381 . S
C1932 C1938 1.383 . S
C1933 C1929 1.495 . S
C1933 H1939 0.959 . S
C1933 H1940 0.961 . S
C1933 H1941 0.960 . S
C1934 C1932 1.381 . S
C1934 C1935 1.394 . S
C1934 H1942 0.930 . S
C1935 C1934 1.394 . S
C1935 C1936 1.383 . S
C1935 H1943 0.929 . S
C1936 C1935 1.383 . S
C1936 C1937 1.377 . S
C1937 H1921 0.930 . S
C1937 C1936 1.377 . S
C1937 C1938 1.379 . S
C1938 H1922 0.931 . S
C1938 C1932 1.383 . S
C1938 C1937 1.379 . S
H1939 C1933 0.959 . S
H1940 C1933 0.961 . S
H1941 C1933 0.960 . S
H1942 C1934 0.930 . S
H1943 C1935 0.929 . S
H1944 C1952 0.929 . S
H1945 C1954 0.930 . S
H1946 C1956 0.930 . S
H1947 C1959 0.929 . S
H1948 C1962 0.930 . S
H1949 C1964 0.960 . S
H1950 C1964 0.960 . S
H1951 C1964 0.960 . S
C1952 H1944 0.929 . S
C1952 C1953 1.377 . S
C1952 C1954 1.384 . S
C1953 C1952 1.377 . S
C1953 C1959 1.390 . S
C1954 H1945 0.930 . S
C1954 C1952 1.384 . S
C1954 C1955 1.372 . S
C1955 C1954 1.372 . S
C1955 C1956 1.400 . S
C1955 C1960 1.490 . S
C1956 H1946 0.930 . S
C1956 C1955 1.400 . S
C1956 C1959 1.386 . S
H1957 C1973 0.930 . S
H1958 C1974 0.931 . S
C1959 H1947 0.929 . S
C1959 C1953 1.390 . S
C1959 C1956 1.386 . S
C1960 C1955 1.490 . S
C1960 C1962 1.395 . S
C1960 C1963 1.403 . S
H1961 C1967 0.930 . S
C1962 H1948 0.930 . S
C1962 C1960 1.395 . S
C1962 C1965 1.403 . S
C1963 C1960 1.403 . S
C1963 C1964 1.524 . S
C1963 C1967 1.400 . S
C1964 H1949 0.960 . S
C1964 H1950 0.960 . S
C1964 H1951 0.960 . S
C1964 C1963 1.524 . S
C1965 C1962 1.403 . S
C1965 C1966 1.392 . S
C1965 C1969 1.495 . S
C1966 C1965 1.392 . S
C1966 C1967 1.385 . S
C1966 C1968 1.478 . S
C1967 H1961 0.930 . S
C1967 C1963 1.400 . S
C1967 C1966 1.385 . S
C1968 C1966 1.478 . S
C1968 C1970 1.381 . S
C1968 C1974 1.383 . S
C1969 C1965 1.495 . S
C1969 H1975 0.959 . S
C1969 H1976 0.961 . S
C1969 H1977 0.960 . S
C1970 C1968 1.381 . S
C1970 C1971 1.394 . S
C1970 H1978 0.930 . S
C1971 C1970 1.394 . S
C1971 C1972 1.383 . S
C1971 H1979 0.929 . S
C1972 C1971 1.383 . S
C1972 C1973 1.377 . S
C1973 H1957 0.930 . S
C1973 C1972 1.377 . S
C1973 C1974 1.379 . S
C1974 H1958 0.931 . S
C1974 C1968 1.383 . S
C1974 C1973 1.379 . S
H1975 C1969 0.959 . S
H1976 C1969 0.961 . S
H1977 C1969 0.960 . S
H1978 C1970 0.930 . S
H1979 C1971 0.929 . S
H1980 C1988 0.929 . S
H1981 C1990 0.930 . S
H1982 C1992 0.930 . S
H1983 C1995 0.929 . S
H1984 C1998 0.930 . S
H1985 C2000 0.960 . S
H1986 C2000 0.960 . S
H1987 C2000 0.960 . S
C1988 H1980 0.929 . S
C1988 C1989 1.377 . S
C1988 C1990 1.384 . S
C1989 C1988 1.377 . S
C1989 C1995 1.390 . S
C1990 H1981 0.930 . S
C1990 C1988 1.384 . S
C1990 C1991 1.372 . S
C1991 C1990 1.372 . S
C1991 C1992 1.400 . S
C1991 C1996 1.490 . S
C1992 H1982 0.930 . S
C1992 C1991 1.400 . S
C1992 C1995 1.386 . S
H1993 C2009 0.930 . S
H1994 C2010 0.931 . S
C1995 H1983 0.929 . S
C1995 C1989 1.390 . S
C1995 C1992 1.386 . S
C1996 C1991 1.490 . S
C1996 C1998 1.395 . S
C1996 C1999 1.403 . S
H1997 C2003 0.930 . S
C1998 H1984 0.930 . S
C1998 C1996 1.395 . S
C1998 C2001 1.403 . S
C1999 C1996 1.403 . S
C1999 C2000 1.524 . S
C1999 C2003 1.400 . S
C2000 H1985 0.960 . S
C2000 H1986 0.960 . S
C2000 H1987 0.960 . S
C2000 C1999 1.524 . S
C2001 C1998 1.403 . S
C2001 C2002 1.392 . S
C2001 C2005 1.495 . S
C2002 C2001 1.392 . S
C2002 C2003 1.385 . S
C2002 C2004 1.478 . S
C2003 H1997 0.930 . S
C2003 C1999 1.400 . S
C2003 C2002 1.385 . S
C2004 C2002 1.478 . S
C2004 C2006 1.381 . S
C2004 C2010 1.383 . S
C2005 C2001 1.495 . S
C2005 H2011 0.959 . S
C2005 H2012 0.961 . S
C2005 H2013 0.960 . S
C2006 C2004 1.381 . S
C2006 C2007 1.394 . S
C2006 H2014 0.930 . S
C2007 C2006 1.394 . S
C2007 C2008 1.383 . S
C2007 H2015 0.929 . S
C2008 C2007 1.383 . S
C2008 C2009 1.377 . S
C2009 H1993 0.930 . S
C2009 C2008 1.377 . S
C2009 C2010 1.379 . S
C2010 H1994 0.931 . S
C2010 C2004 1.383 . S
C2010 C2009 1.379 . S
H2011 C2005 0.959 . S
H2012 C2005 0.961 . S
H2013 C2005 0.960 . S
H2014 C2006 0.930 . S
H2015 C2007 0.929 . S
H2016 C2024 0.929 1_554 S
H2017 C2026 0.930 . S
H2018 C2028 0.930 . S
H2019 C2031 0.929 . S
H2020 C2034 0.930 . S
H2021 C2036 0.960 . S
H2022 C2036 0.960 . S
H2023 C2036 0.960 . S
C2024 H2016 0.929 1_556 S
C2024 C2025 1.379 . S
C2024 C2026 1.383 1_556 S
C2025 C2024 1.379 . S
C2025 C2031 1.390 . S
C2026 H2017 0.930 . S
C2026 C2024 1.383 1_554 S
C2026 C2027 1.372 . S
C2027 C2026 1.372 . S
C2027 C2028 1.400 1_554 S
C2027 C2032 1.490 . S
C2028 H2018 0.930 . S
C2028 C2027 1.400 1_556 S
C2028 C2031 1.386 . S
H2029 C2045 0.930 . S
H2030 C2046 0.931 . S
C2031 H2019 0.929 . S
C2031 C2025 1.390 . S
C2031 C2028 1.386 . S
C2032 C2027 1.490 . S
C2032 C2034 1.395 . S
C2032 C2035 1.403 . S
H2033 C2039 0.930 . S
C2034 H2020 0.930 . S
C2034 C2032 1.395 . S
C2034 C2037 1.403 . S
C2035 C2032 1.403 . S
C2035 C2036 1.524 . S
C2035 C2039 1.400 . S
C2036 H2021 0.960 . S
C2036 H2022 0.960 . S
C2036 H2023 0.960 . S
C2036 C2035 1.524 . S
C2037 C2034 1.403 . S
C2037 C2038 1.392 . S
C2037 C2041 1.495 . S
C2038 C2037 1.392 . S
C2038 C2039 1.385 . S
C2038 C2040 1.478 . S
C2039 H2033 0.930 . S
C2039 C2035 1.400 . S
C2039 C2038 1.385 . S
C2040 C2038 1.478 . S
C2040 C2042 1.381 . S
C2040 C2046 1.383 . S
C2041 C2037 1.495 . S
C2041 H2047 0.959 . S
C2041 H2048 0.961 . S
C2041 H2049 0.960 . S
C2042 C2040 1.381 . S
C2042 C2043 1.394 . S
C2042 H2050 0.930 . S
C2043 C2042 1.394 . S
C2043 C2044 1.383 . S
C2043 H2051 0.929 . S
C2044 C2043 1.383 . S
C2044 C2045 1.377 . S
C2045 H2029 0.930 . S
C2045 C2044 1.377 . S
C2045 C2046 1.379 . S
C2046 H2030 0.931 . S
C2046 C2040 1.383 . S
C2046 C2045 1.379 . S
H2047 C2041 0.959 . S
H2048 C2041 0.961 . S
H2049 C2041 0.960 . S
H2050 C2042 0.930 . S
H2051 C2043 0.929 . S
H2052 C2060 0.929 . S
H2053 C2062 0.930 . S
H2054 C2064 0.930 . S
H2055 C2067 0.929 . S
H2056 C2070 0.930 . S
H2057 C2072 0.960 1_556 S
H2058 C2072 0.960 . S
H2059 C2072 0.960 . S
C2060 H2052 0.929 . S
C2060 C2061 1.377 . S
C2060 C2062 1.384 . S
C2061 C2060 1.377 . S
C2061 C2067 1.390 . S
C2062 H2053 0.930 . S
C2062 C2060 1.384 . S
C2062 C2063 1.372 . S
C2063 C2062 1.372 . S
C2063 C2064 1.400 . S
C2063 C2068 1.490 . S
C2064 H2054 0.930 . S
C2064 C2063 1.400 . S
C2064 C2067 1.386 . S
H2065 C2081 0.930 . S
H2066 C2082 0.931 . S
C2067 H2055 0.929 . S
C2067 C2061 1.390 . S
C2067 C2064 1.386 . S
C2068 C2063 1.490 . S
C2068 C2070 1.395 . S
C2068 C2071 1.403 . S
H2069 C2075 0.930 1_556 S
C2070 H2056 0.930 . S
C2070 C2068 1.395 . S
C2070 C2073 1.403 . S
C2071 C2068 1.403 . S
C2071 C2072 1.524 . S
C2071 C2075 1.400 . S
C2072 H2057 0.960 1_554 S
C2072 H2058 0.960 . S
C2072 H2059 0.960 . S
C2072 C2071 1.524 . S
C2073 C2070 1.403 . S
C2073 C2074 1.392 . S
C2073 C2077 1.495 . S
C2074 C2073 1.392 . S
C2074 C2075 1.385 . S
C2074 C2076 1.478 . S
C2075 H2069 0.930 1_554 S
C2075 C2071 1.400 . S
C2075 C2074 1.385 . S
C2076 C2074 1.478 . S
C2076 C2078 1.381 . S
C2076 C2082 1.383 1_554 S
C2077 C2073 1.495 . S
C2077 H2083 0.959 . S
C2077 H2084 0.961 . S
C2077 H2085 0.960 . S
C2078 C2076 1.381 . S
C2078 C2079 1.394 1_554 S
C2078 H2086 0.930 . S
C2079 C2078 1.394 1_556 S
C2079 C2080 1.383 . S
C2079 H2087 0.929 1_556 S
C2080 C2079 1.383 . S
C2080 C2081 1.377 . S
C2081 H2065 0.930 . S
C2081 C2080 1.377 . S
C2081 C2082 1.379 . S
C2082 H2066 0.931 . S
C2082 C2076 1.383 1_556 S
C2082 C2081 1.379 . S
H2083 C2077 0.959 . S
H2084 C2077 0.961 . S
H2085 C2077 0.960 . S
H2086 C2078 0.930 . S
H2087 C2079 0.929 1_554 S
H2088 C2096 0.929 . S
H2089 C2098 0.930 . S
H2090 C2100 0.930 . S
H2091 C2103 0.929 . S
H2092 C2106 0.930 . S
H2093 C2108 0.960 . S
H2094 C2108 0.960 . S
H2095 C2108 0.960 . S
C2096 H2088 0.929 . S
C2096 C2097 1.377 . S
C2096 C2098 1.384 . S
C2097 C2096 1.377 . S
C2097 C2103 1.390 . S
C2098 H2089 0.930 . S
C2098 C2096 1.384 . S
C2098 C2099 1.372 . S
C2099 C2098 1.372 . S
C2099 C2100 1.400 . S
C2099 C2104 1.490 . S
C2100 H2090 0.930 . S
C2100 C2099 1.400 . S
C2100 C2103 1.386 . S
H2101 C2117 0.930 . S
H2102 C2118 0.931 . S
C2103 H2091 0.929 . S
C2103 C2097 1.390 . S
C2103 C2100 1.386 . S
C2104 C2099 1.490 . S
C2104 C2106 1.395 . S
C2104 C2107 1.403 . S
H2105 C2111 0.930 . S
C2106 H2092 0.930 . S
C2106 C2104 1.395 . S
C2106 C2109 1.403 . S
C2107 C2104 1.403 . S
C2107 C2108 1.524 . S
C2107 C2111 1.400 . S
C2108 H2093 0.960 . S
C2108 H2094 0.960 . S
C2108 H2095 0.960 . S
C2108 C2107 1.524 . S
C2109 C2106 1.403 . S
C2109 C2110 1.392 . S
C2109 C2113 1.495 1_554 S
C2110 C2109 1.392 . S
C2110 C2111 1.385 . S
C2110 C2112 1.478 . S
C2111 H2105 0.930 . S
C2111 C2107 1.400 . S
C2111 C2110 1.385 . S
C2112 C2110 1.478 . S
C2112 C2114 1.381 . S
C2112 C2118 1.383 1_554 S
C2113 C2109 1.495 1_556 S
C2113 H2119 0.959 . S
C2113 H2120 0.961 . S
C2113 H2121 0.960 . S
C2114 C2112 1.381 . S
C2114 C2115 1.394 1_554 S
C2114 H2122 0.930 . S
C2115 C2114 1.394 1_556 S
C2115 C2116 1.383 . S
C2115 H2123 0.929 . S
C2116 C2115 1.383 . S
C2116 C2117 1.377 . S
C2117 H2101 0.930 . S
C2117 C2116 1.377 . S
C2117 C2118 1.379 . S
C2118 H2102 0.931 . S
C2118 C2112 1.383 1_556 S
C2118 C2117 1.379 . S
H2119 C2113 0.959 . S
H2120 C2113 0.961 . S
H2121 C2113 0.960 . S
H2122 C2114 0.930 . S
H2123 C2115 0.929 . S
H2124 C2132 0.929 . S
H2125 C2134 0.930 . S
H2126 C2136 0.930 . S
H2127 C2139 0.929 . S
H2128 C2142 0.940 1_655 S
H2129 C2144 0.960 . S
H2130 C2144 0.960 . S
H2131 C2144 0.960 . S
C2132 H2124 0.929 . S
C2132 C2133 1.377 . S
C2132 C2134 1.384 . S
C2133 C2132 1.377 . S
C2133 C2139 1.390 . S
C2134 H2125 0.930 . S
C2134 C2132 1.384 . S
C2134 C2135 1.372 . S
C2135 C2134 1.372 . S
C2135 C2136 1.400 . S
C2135 C2140 1.490 . S
C2136 H2126 0.930 . S
C2136 C2135 1.400 . S
C2136 C2139 1.386 . S
H2137 C2153 0.930 . S
H2138 C2154 0.931 . S
C2139 H2127 0.929 . S
C2139 C2133 1.390 . S
C2139 C2136 1.386 . S
C2140 C2135 1.490 . S
C2140 C2142 1.338 1_655 S
C2140 C2143 1.403 . S
H2141 C2147 0.930 . S
C2142 H2128 0.940 1_455 S
C2142 C2140 1.338 1_455 S
C2142 C2145 1.452 . S
C2143 C2140 1.403 . S
C2143 C2144 1.524 . S
C2143 C2147 1.400 1_655 S
C2144 H2129 0.960 . S
C2144 H2130 0.960 . S
C2144 H2131 0.960 . S
C2144 C2143 1.524 . S
C2145 C2142 1.452 . S
C2145 C2146 1.392 . S
C2145 C2149 1.495 . S
C2146 C2145 1.392 . S
C2146 C2147 1.385 . S
C2146 C2148 1.478 . S
C2147 H2141 0.930 . S
C2147 C2143 1.400 1_455 S
C2147 C2146 1.385 . S
C2148 C2146 1.478 . S
C2148 C2150 1.381 . S
C2148 C2154 1.383 . S
C2149 C2145 1.495 . S
C2149 H2155 0.959 . S
C2149 H2156 0.961 . S
C2149 H2157 0.960 . S
C2150 C2148 1.381 . S
C2150 C2151 1.394 . S
C2150 H2158 0.930 . S
C2151 C2150 1.394 . S
C2151 C2152 1.383 . S
C2151 H2159 0.929 . S
C2152 C2151 1.383 . S
C2152 C2153 1.377 . S
C2153 H2137 0.930 . S
C2153 C2152 1.377 . S
C2153 C2154 1.379 . S
C2154 H2138 0.931 . S
C2154 C2148 1.383 . S
C2154 C2153 1.379 . S
H2155 C2149 0.959 . S
H2156 C2149 0.961 . S
H2157 C2149 0.960 . S
H2158 C2150 0.930 . S
H2159 C2151 0.929 . S
H2160 C2168 0.929 . S
H2161 C2170 0.930 . S
H2162 C2172 0.930 . S
H2163 C2175 0.929 . S
H2164 C2178 0.930 . S
H2165 C2180 0.960 . S
H2166 C2180 0.960 . S
H2167 C2180 0.960 . S
C2168 H2160 0.929 . S
C2168 C2169 1.377 . S
C2168 C2170 1.384 . S
C2169 C2168 1.377 . S
C2169 C2175 1.390 . S
C2170 H2161 0.930 . S
C2170 C2168 1.384 . S
C2170 C2171 1.372 . S
C2171 C2170 1.372 . S
C2171 C2172 1.400 . S
C2171 C2176 1.490 . S
C2172 H2162 0.930 . S
C2172 C2171 1.400 . S
C2172 C2175 1.386 . S
H2173 C2189 0.930 . S
H2174 C2190 0.931 . S
C2175 H2163 0.929 . S
C2175 C2169 1.390 . S
C2175 C2172 1.386 . S
C2176 C2171 1.490 . S
C2176 C2178 1.395 . S
C2176 C2179 1.403 . S
H2177 C2183 0.930 . S
C2178 H2164 0.930 . S
C2178 C2176 1.395 . S
C2178 C2181 1.403 . S
C2179 C2176 1.403 . S
C2179 C2180 1.524 . S
C2179 C2183 1.400 . S
C2180 H2165 0.960 . S
C2180 H2166 0.960 . S
C2180 H2167 0.960 . S
C2180 C2179 1.524 . S
C2181 C2178 1.403 . S
C2181 C2182 1.392 . S
C2181 C2185 1.495 . S
C2182 C2181 1.392 . S
C2182 C2183 1.385 . S
C2182 C2184 1.478 . S
C2183 H2177 0.930 . S
C2183 C2179 1.400 . S
C2183 C2182 1.385 . S
C2184 C2182 1.478 . S
C2184 C2186 1.381 . S
C2184 C2190 1.383 . S
C2185 C2181 1.495 . S
C2185 H2191 0.959 . S
C2185 H2192 0.961 . S
C2185 H2193 0.960 . S
C2186 C2184 1.381 . S
C2186 C2187 1.394 . S
C2186 H2194 0.930 . S
C2187 C2186 1.394 . S
C2187 C2188 1.383 . S
C2187 H2195 0.929 . S
C2188 C2187 1.383 . S
C2188 C2189 1.377 . S
C2189 H2173 0.930 . S
C2189 C2188 1.377 . S
C2189 C2190 1.379 . S
C2190 H2174 0.931 . S
C2190 C2184 1.383 . S
C2190 C2189 1.379 . S
H2191 C2185 0.959 . S
H2192 C2185 0.961 . S
H2193 C2185 0.960 . S
H2194 C2186 0.930 . S
H2195 C2187 0.929 . S
H2196 C2204 0.929 . S
H2197 C2206 0.930 . S
H2198 C2208 0.930 . S
H2199 C2211 0.929 . S
H2200 C2214 0.926 . S
H2201 C2216 0.960 . S
H2202 C2216 0.960 . S
H2203 C2216 0.960 . S
C2204 H2196 0.929 . S
C2204 C2205 1.377 . S
C2204 C2206 1.384 . S
C2205 C2204 1.377 . S
C2205 C2211 1.390 . S
C2206 H2197 0.930 . S
C2206 C2204 1.384 . S
C2206 C2207 1.372 . S
C2207 C2206 1.372 . S
C2207 C2208 1.400 . S
C2207 C2212 1.490 . S
C2208 H2198 0.930 . S
C2208 C2207 1.400 . S
C2208 C2211 1.386 . S
H2209 C2225 0.930 . S
H2210 C2226 0.931 . S
C2211 H2199 0.929 . S
C2211 C2205 1.390 . S
C2211 C2208 1.386 . S
C2212 C2207 1.490 . S
C2212 C2214 1.394 . S
C2212 C2215 1.403 . S
H2213 C2219 0.930 . S
C2214 H2200 0.926 . S
C2214 C2212 1.394 . S
C2214 C2217 1.408 1_565 S
C2215 C2212 1.403 . S
C2215 C2216 1.524 . S
C2215 C2219 1.400 1_565 S
C2216 H2201 0.960 . S
C2216 H2202 0.960 . S
C2216 H2203 0.960 . S
C2216 C2215 1.524 . S
C2217 C2214 1.408 1_545 S
C2217 C2218 1.392 . S
C2217 C2221 1.495 . S
C2218 C2217 1.392 . S
C2218 C2219 1.385 . S
C2218 C2220 1.478 . S
C2219 H2213 0.930 . S
C2219 C2215 1.400 1_545 S
C2219 C2218 1.385 . S
C2220 C2218 1.478 . S
C2220 C2222 1.381 . S
C2220 C2226 1.383 . S
C2221 C2217 1.495 . S
C2221 H2227 0.959 . S
C2221 H2228 0.961 . S
C2221 H2229 0.960 . S
C2222 C2220 1.381 . S
C2222 C2223 1.394 . S
C2222 H2230 0.930 . S
C2223 C2222 1.394 . S
C2223 C2224 1.383 . S
C2223 H2231 0.929 . S
C2224 C2223 1.383 . S
C2224 C2225 1.377 . S
C2225 H2209 0.930 . S
C2225 C2224 1.377 . S
C2225 C2226 1.379 . S
C2226 H2210 0.931 . S
C2226 C2220 1.383 . S
C2226 C2225 1.379 . S
H2227 C2221 0.959 . S
H2228 C2221 0.961 . S
H2229 C2221 0.960 . S
H2230 C2222 0.930 . S
H2231 C2223 0.929 . S
H2232 C2240 0.929 . S
H2233 C2242 0.930 . S
H2234 C2244 0.930 . S
H2235 C2247 0.929 . S
H2236 C2250 0.930 . S
H2237 C2252 0.960 . S
H2238 C2252 0.960 . S
H2239 C2252 0.960 . S
C2240 H2232 0.929 . S
C2240 C2241 1.377 . S
C2240 C2242 1.384 . S
C2241 C2240 1.377 . S
C2241 C2247 1.390 . S
C2242 H2233 0.930 . S
C2242 C2240 1.384 . S
C2242 C2243 1.372 . S
C2243 C2242 1.372 . S
C2243 C2244 1.400 . S
C2243 C2248 1.490 . S
C2244 H2234 0.930 . S
C2244 C2243 1.400 . S
C2244 C2247 1.386 . S
H2245 C2261 0.930 . S
H2246 C2262 0.931 . S
C2247 H2235 0.929 . S
C2247 C2241 1.390 . S
C2247 C2244 1.386 . S
C2248 C2243 1.490 . S
C2248 C2250 1.395 1_565 S
C2248 C2251 1.403 . S
H2249 C2255 0.930 . S
C2250 H2236 0.930 . S
C2250 C2248 1.395 1_545 S
C2250 C2253 1.403 . S
C2251 C2248 1.403 . S
C2251 C2252 1.524 . S
C2251 C2255 1.400 1_565 S
C2252 H2237 0.960 . S
C2252 H2238 0.960 . S
C2252 H2239 0.960 . S
C2252 C2251 1.524 . S
C2253 C2250 1.403 . S
C2253 C2254 1.392 . S
C2253 C2257 1.495 . S
C2254 C2253 1.392 . S
C2254 C2255 1.385 . S
C2254 C2256 1.478 . S
C2255 H2249 0.930 . S
C2255 C2251 1.400 1_545 S
C2255 C2254 1.385 . S
C2256 C2254 1.478 . S
C2256 C2258 1.381 . S
C2256 C2262 1.383 . S
C2257 C2253 1.495 . S
C2257 H2263 0.959 . S
C2257 H2264 0.961 . S
C2257 H2265 0.960 . S
C2258 C2256 1.381 . S
C2258 C2259 1.394 . S
C2258 H2266 0.930 . S
C2259 C2258 1.394 . S
C2259 C2260 1.383 . S
C2259 H2267 0.929 . S
C2260 C2259 1.383 . S
C2260 C2261 1.377 . S
C2261 H2245 0.930 . S
C2261 C2260 1.377 . S
C2261 C2262 1.379 . S
C2262 H2246 0.931 . S
C2262 C2256 1.383 . S
C2262 C2261 1.379 . S
H2263 C2257 0.959 . S
H2264 C2257 0.961 . S
H2265 C2257 0.960 . S
H2266 C2258 0.930 . S
H2267 C2259 0.929 . S
H2268 C2276 0.929 . S
H2269 C2278 0.930 . S
H2270 C2280 0.930 . S
H2271 C2283 0.929 . S
H2272 C2286 0.930 . S
H2273 C2288 0.960 1_655 S
H2274 C2288 0.960 . S
H2275 C2288 0.960 . S
C2276 H2268 0.929 . S
C2276 C2277 1.377 . S
C2276 C2278 1.384 . S
C2277 C2276 1.377 . S
C2277 C2283 1.390 . S
C2278 H2269 0.930 . S
C2278 C2276 1.384 . S
C2278 C2279 1.372 . S
C2279 C2278 1.372 . S
C2279 C2280 1.400 . S
C2279 C2284 1.490 . S
C2280 H2270 0.930 . S
C2280 C2279 1.400 . S
C2280 C2283 1.386 . S
H2281 C2297 0.930 . S
H2282 C2298 0.931 . S
C2283 H2271 0.929 . S
C2283 C2277 1.390 . S
C2283 C2280 1.386 . S
C2284 C2279 1.490 . S
C2284 C2286 1.395 . S
C2284 C2287 1.403 . S
H2285 C2291 0.930 . S
C2286 H2272 0.930 . S
C2286 C2284 1.395 . S
C2286 C2289 1.403 . S
C2287 C2284 1.403 . S
C2287 C2288 1.524 . S
C2287 C2291 1.400 1_455 S
C2288 H2273 0.960 1_455 S
C2288 H2274 0.960 . S
C2288 H2275 0.960 . S
C2288 C2287 1.524 . S
C2289 C2286 1.403 . S
C2289 C2290 1.392 1_455 S
C2289 C2293 1.495 . S
C2290 C2289 1.392 1_655 S
C2290 C2291 1.385 . S
C2290 C2292 1.478 . S
C2291 H2285 0.930 . S
C2291 C2287 1.400 1_655 S
C2291 C2290 1.385 . S
C2292 C2290 1.478 . S
C2292 C2294 1.381 . S
C2292 C2298 1.383 . S
C2293 C2289 1.495 . S
C2293 H2299 0.959 . S
C2293 H2300 0.961 . S
C2293 H2301 0.960 . S
C2294 C2292 1.381 . S
C2294 C2295 1.394 . S
C2294 H2302 0.930 . S
C2295 C2294 1.394 . S
C2295 C2296 1.383 . S
C2295 H2303 0.929 . S
C2296 C2295 1.383 . S
C2296 C2297 1.377 . S
C2297 H2281 0.930 . S
C2297 C2296 1.377 . S
C2297 C2298 1.379 . S
C2298 H2282 0.931 . S
C2298 C2292 1.383 . S
C2298 C2297 1.379 . S
H2299 C2293 0.959 . S
H2300 C2293 0.961 . S
H2301 C2293 0.960 . S
H2302 C2294 0.930 . S
H2303 C2295 0.929 . S
H2304 C2312 0.929 . S
H2305 C2314 0.930 . S
H2306 C2316 0.930 . S
H2307 C2319 0.929 . S
H2308 C2322 0.930 . S
H2309 C2324 0.960 . S
H2310 C2324 0.960 . S
H2311 C2324 0.960 . S
C2312 H2304 0.929 . S
C2312 C2313 1.377 . S
C2312 C2314 1.384 . S
C2313 C2312 1.377 . S
C2313 C2319 1.390 . S
C2314 H2305 0.930 . S
C2314 C2312 1.384 . S
C2314 C2315 1.372 . S
C2315 C2314 1.372 . S
C2315 C2316 1.400 . S
C2315 C2320 1.490 . S
C2316 H2306 0.930 . S
C2316 C2315 1.400 . S
C2316 C2319 1.386 . S
H2317 C2333 0.930 . S
H2318 C2334 0.931 . S
C2319 H2307 0.929 . S
C2319 C2313 1.390 . S
C2319 C2316 1.386 . S
C2320 C2315 1.490 . S
C2320 C2322 1.395 . S
C2320 C2323 1.403 . S
H2321 C2327 0.930 . S
C2322 H2308 0.930 . S
C2322 C2320 1.395 . S
C2322 C2325 1.403 . S
C2323 C2320 1.403 . S
C2323 C2324 1.524 . S
C2323 C2327 1.400 . S
C2324 H2309 0.960 . S
C2324 H2310 0.960 . S
C2324 H2311 0.960 . S
C2324 C2323 1.524 . S
C2325 C2322 1.403 . S
C2325 C2326 1.392 . S
C2325 C2329 1.495 . S
C2326 C2325 1.392 . S
C2326 C2327 1.385 . S
C2326 C2328 1.478 . S
C2327 H2321 0.930 . S
C2327 C2323 1.400 . S
C2327 C2326 1.385 . S
C2328 C2326 1.478 . S
C2328 C2330 1.381 . S
C2328 C2334 1.383 . S
C2329 C2325 1.495 . S
C2329 H2335 0.959 . S
C2329 H2336 0.961 . S
C2329 H2337 0.960 . S
C2330 C2328 1.381 . S
C2330 C2331 1.394 . S
C2330 H2338 0.930 . S
C2331 C2330 1.394 . S
C2331 C2332 1.383 . S
C2331 H2339 0.929 . S
C2332 C2331 1.383 . S
C2332 C2333 1.377 . S
C2333 H2317 0.930 . S
C2333 C2332 1.377 . S
C2333 C2334 1.379 . S
C2334 H2318 0.931 . S
C2334 C2328 1.383 . S
C2334 C2333 1.379 . S
H2335 C2329 0.959 . S
H2336 C2329 0.961 . S
H2337 C2329 0.960 . S
H2338 C2330 0.930 . S
H2339 C2331 0.929 . S
C405 C4 1.250 . S
C424 C94 1.256 . S
C441 C114 1.235 . S
C460 C28 1.259 . S
C477 C48 1.254 . S
C496 C70 1.227 . S
C513 C51 1.252 . S
C532 C96 1.223 . S
C549 C117 1.238 . S
C568 C7 1.245 . S
C585 C30 1.254 . S
C604 C73 1.227 . S
C621 C31 1.235 . S
C640 C74 1.255 . S
C657 C52 1.243 . S
C676 C97 1.252 . S
C693 C118 1.254 . S
C712 C8 1.227 . S
C729 C115 1.253 . S
C748 C26 1.218 . S
C765 C49 1.235 . S
C784 C71 1.245 . S
C801 C5 1.235 . S
C820 C92 1.254 . S
C837 C226 1.236 . S
C856 C136 1.249 . S
C873 C158 1.251 . S
C892 C248 1.238 . S
C909 C180 1.250 . S
C928 C204 1.255 . S
C945 C228 1.238 . S
C964 C183 1.245 . S
C981 C250 1.240 . S
C1000 C139 1.253 . S
C1017 C206 1.243 . S
C1036 C161 1.242 . S
C1053 C162 1.241 . S
C1072 C207 1.241 . S
C1089 C184 1.241 . S
C1108 C229 1.257 . S
C1125 C140 1.241 . S
C1144 C251 1.258 . S
C1161 C159 1.243 . S
C1180 C246 1.250 . S
C1197 C181 1.238 . S
C1216 C202 1.259 . S
C1233 C224 1.253 . S
C1252 C137 1.253 . S
C1269 C268 1.250 . S
C1288 C358 1.255 . S
C1305 C292 1.251 . S
C1324 C380 1.232 . S
C1341 C334 1.238 . S
C1360 C312 1.257 . S
C1377 C360 1.234 . S
C1396 C315 1.257 . S
C1413 C271 1.254 . S
C1432 C382 1.218 . S
C1449 C294 1.251 . S
C1468 C337 1.252 . S
C1485 C295 1.242 . S
C1504 C338 1.242 . S
C1521 C316 1.242 . S
C1540 C361 1.257 . S
C1557 C272 1.235 . S
C1576 C383 1.247 . S
C1593 C378 1.250 . S
C1612 C290 1.235 . S
C1629 C335 1.254 . S
C1648 C313 1.247 . S
C1665 C269 1.238 . S
C1684 C356 1.259 . S
C1701 C6 1.801 . S
C1720 C293 1.820 . S
C1737 C27 1.803 . S
C1756 C317 1.791 . S
C1773 C50 1.796 . S
C1792 C273 1.800 . S
C1809 C53 1.794 . S
C1828 C160 1.783 . S
C1845 C9 1.804 . S
C1864 C182 1.819 . S
C1881 C29 1.800 . S
C1900 C138 1.779 . S
C1917 C225 1.794 . S
C1936 C75 1.821 . S
C1953 C95 1.797 . S
C1972 C247 1.809 . S
C1989 C119 1.802 . S
C2008 C203 1.778 . S
C2025 C359 1.796 . S
C2044 C116 1.807 . S
C2061 C72 1.802 . S
C2080 C381 1.776 . S
C2097 C93 1.800 . S
C2116 C339 1.798 . S
C2133 C185 1.795 . S
C2152 C291 1.770 . S
C2169 C141 1.803 . S
C2188 C314 1.792 . S
C2205 C270 1.799 . S
C2224 C163 1.812 . S
C2241 C357 1.804 . S
C2260 C205 1.772 . S
C2277 C379 1.796 . S
C2296 C227 1.815 . S
C2313 C249 1.794 . S
C2332 C336 1.818 . S
