# Generated by pormake.
# Topology wkh, (6)-cn, num edge types: 1
# Building blocks:
#     Node 0, Type 0, BuildingBlock: IZENUY_clean_sbu_0, # of connection points: 6
#     Node 1, Type 0, BuildingBlock: IZENUY_clean_sbu_0, # of connection points: 6
#     Node 2, Type 0, BuildingBlock: IZENUY_clean_sbu_0, # of connection points: 6
#     Node 3, Type 0, BuildingBlock: IZENUY_clean_sbu_0, # of connection points: 6
#     Node 4, Type 0, BuildingBlock: IZENUY_clean_sbu_0, # of connection points: 6
#     Node 5, Type 0, BuildingBlock: IZENUY_clean_sbu_0, # of connection points: 6
#     Node 6, Type 0, BuildingBlock: IZENUY_clean_sbu_0, # of connection points: 6
#     Node 7, Type 0, BuildingBlock: IZENUY_clean_sbu_0, # of connection points: 6
#     Node 8, Type 0, BuildingBlock: IZENUY_clean_sbu_0, # of connection points: 6
#     Node 9, Type 0, BuildingBlock: IZENUY_clean_sbu_0, # of connection points: 6
#     Node 10, Type 0, BuildingBlock: IZENUY_clean_sbu_0, # of connection points: 6
#     Node 11, Type 0, BuildingBlock: IZENUY_clean_sbu_0, # of connection points: 6
#     Edge 12, Type (0, 0), BuildingBlock: EZIPEK_clean_linker_0, # of connection points: 2
#     Edge 13, Type (0, 0), BuildingBlock: EZIPEK_clean_linker_0, # of connection points: 2
#     Edge 14, Type (0, 0), BuildingBlock: EZIPEK_clean_linker_0, # of connection points: 2
#     Edge 15, Type (0, 0), BuildingBlock: EZIPEK_clean_linker_0, # of connection points: 2
#     Edge 16, Type (0, 0), BuildingBlock: EZIPEK_clean_linker_0, # of connection points: 2
#     Edge 17, Type (0, 0), BuildingBlock: EZIPEK_clean_linker_0, # of connection points: 2
#     Edge 18, Type (0, 0), BuildingBlock: EZIPEK_clean_linker_0, # of connection points: 2
#     Edge 19, Type (0, 0), BuildingBlock: EZIPEK_clean_linker_0, # of connection points: 2
#     Edge 20, Type (0, 0), BuildingBlock: EZIPEK_clean_linker_0, # of connection points: 2
#     Edge 21, Type (0, 0), BuildingBlock: EZIPEK_clean_linker_0, # of connection points: 2
#     Edge 22, Type (0, 0), BuildingBlock: EZIPEK_clean_linker_0, # of connection points: 2
#     Edge 23, Type (0, 0), BuildingBlock: EZIPEK_clean_linker_0, # of connection points: 2
#     Edge 24, Type (0, 0), BuildingBlock: EZIPEK_clean_linker_0, # of connection points: 2
#     Edge 25, Type (0, 0), BuildingBlock: EZIPEK_clean_linker_0, # of connection points: 2
#     Edge 26, Type (0, 0), BuildingBlock: EZIPEK_clean_linker_0, # of connection points: 2
#     Edge 27, Type (0, 0), BuildingBlock: EZIPEK_clean_linker_0, # of connection points: 2
#     Edge 28, Type (0, 0), BuildingBlock: EZIPEK_clean_linker_0, # of connection points: 2
#     Edge 29, Type (0, 0), BuildingBlock: EZIPEK_clean_linker_0, # of connection points: 2
#     Edge 30, Type (0, 0), BuildingBlock: EZIPEK_clean_linker_0, # of connection points: 2
#     Edge 31, Type (0, 0), BuildingBlock: EZIPEK_clean_linker_0, # of connection points: 2
#     Edge 32, Type (0, 0), BuildingBlock: EZIPEK_clean_linker_0, # of connection points: 2
#     Edge 33, Type (0, 0), BuildingBlock: EZIPEK_clean_linker_0, # of connection points: 2
#     Edge 34, Type (0, 0), BuildingBlock: EZIPEK_clean_linker_0, # of connection points: 2
#     Edge 35, Type (0, 0), BuildingBlock: EZIPEK_clean_linker_0, # of connection points: 2
#     Edge 36, Type (0, 0), BuildingBlock: EZIPEK_clean_linker_0, # of connection points: 2
#     Edge 37, Type (0, 0), BuildingBlock: EZIPEK_clean_linker_0, # of connection points: 2
#     Edge 38, Type (0, 0), BuildingBlock: EZIPEK_clean_linker_0, # of connection points: 2
#     Edge 39, Type (0, 0), BuildingBlock: EZIPEK_clean_linker_0, # of connection points: 2
#     Edge 40, Type (0, 0), BuildingBlock: EZIPEK_clean_linker_0, # of connection points: 2
#     Edge 41, Type (0, 0), BuildingBlock: EZIPEK_clean_linker_0, # of connection points: 2
#     Edge 42, Type (0, 0), BuildingBlock: EZIPEK_clean_linker_0, # of connection points: 2
#     Edge 43, Type (0, 0), BuildingBlock: EZIPEK_clean_linker_0, # of connection points: 2
#     Edge 44, Type (0, 0), BuildingBlock: EZIPEK_clean_linker_0, # of connection points: 2
#     Edge 45, Type (0, 0), BuildingBlock: EZIPEK_clean_linker_0, # of connection points: 2
#     Edge 46, Type (0, 0), BuildingBlock: EZIPEK_clean_linker_0, # of connection points: 2
#     Edge 47, Type (0, 0), BuildingBlock: EZIPEK_clean_linker_0, # of connection points: 2
# Relax obj value: 0.285
# Max RMSD: 0.257
# Mean RMSD: 0.257
data_MOF--net-wkh--node1-IZENUY_clean_sbu_0--edge1-EZIPEK_clean_linker_0
_symmetry_space_group_name_H-M    P1
_symmetry_Int_Tables_number       1
_symmetry_cell_setting            triclinic
loop_
_symmetry_equiv_pos_as_xyz
'x, y, z'
_cell_length_a     19.791778
_cell_length_b     19.780966
_cell_length_c     58.698081
_cell_angle_alpha  90.351957
_cell_angle_beta   90.213947
_cell_angle_gamma 119.86223
loop_
_atom_site_label
_atom_site_type_symbol
_atom_site_fract_x
_atom_site_fract_y
_atom_site_fract_z
_atom_type_partial_charge
Fe0 Fe 0.23391 0.32663 1.03018 0.0
Fe1 Fe 0.36643 0.28881 0.03581 0.0
O2 O 0.32543 0.3487 0.04254 0.0
Fe3 Fe 0.37257 0.42725 0.06237 0.0
O4 O 0.28758 0.38476 0.08108 0.0
O5 O 0.19765 0.35685 0.05509 0.0
O6 O 0.18606 0.23214 0.04291 0.0
C7 C 0.20955 0.18413 0.04216 0.0
C8 C 0.29879 0.48231 1.02961 0.0
O9 O 0.27322 0.20078 1.03294 0.0
C10 C 0.50181 0.43903 0.03994 0.0
O11 O 0.24982 0.28828 1.00274 0.0
O12 O 0.36916 0.30814 1.00539 0.0
O13 O 0.33603 0.48803 0.04811 0.0
O14 O 0.27601 0.42184 1.01747 0.0
C15 C 0.39317 0.30753 0.08224 0.0
O16 O 0.46733 0.36587 0.03809 0.0
O17 O 0.46467 0.47416 0.04574 0.0
C18 C 0.30869 0.28941 0.99358 0.0
O19 O 0.36603 0.26259 0.06526 0.0
O20 O 0.41182 0.37872 0.0808 0.0
C21 C 0.21775 0.36333 0.07585 0.0
Fe22 Fe 0.94202 0.35258 0.22218 0.0
Fe23 Fe 0.93689 0.21999 0.19322 0.0
O24 O 0.98969 0.31586 0.20482 0.0
Fe25 Fe 0.09187 0.37296 0.20074 0.0
O26 O 0.11466 0.41956 0.229 0.0
O27 O 1.00392 0.35874 0.2468 0.0
O28 O 0.86767 0.25729 0.23296 0.0
C29 C 0.87075 0.19621 0.23633 0.0
C30 C 0.06179 0.49101 0.19934 0.0
O31 O 0.90643 0.17726 0.22196 0.0
C32 C 0.03424 0.29925 0.15744 0.0
O33 O 0.87304 0.34122 0.199 0.0
O34 O 0.84826 0.22276 0.18934 0.0
O35 O 0.08376 0.45119 0.18816 0.0
O36 O 1.00983 0.45723 0.21458 0.0
C37 C 0.07584 0.23015 0.20715 0.0
O38 O 0.96442 0.25563 0.16387 0.0
O39 O 0.0884 0.33662 0.17174 0.0
C40 C 0.82873 0.27433 0.18969 0.0
O41 O 1.01577 0.1995 0.19494 0.0
O42 O 0.10761 0.29989 0.21344 0.0
C43 C 0.07764 0.39051 0.24709 0.0
Fe44 Fe 0.70123 0.90997 0.35737 0.0
Fe45 Fe 0.74629 0.08045 0.36476 0.0
O46 O 0.68571 0.98149 0.37121 0.0
Fe47 Fe 0.61113 0.95445 0.39167 0.0
O48 O 0.65546 0.91175 0.40994 0.0
O49 O 0.6741 0.84504 0.38289 0.0
O50 O 0.79798 0.95072 0.36813 0.0
C51 C 0.84885 0.0203 0.36609 0.0
C52 C 0.54624 0.82442 0.35892 0.0
O53 O 0.83236 0.07087 0.35967 0.0
C54 C 0.59875 0.0722 0.37017 0.0
O55 O 0.73676 0.96608 0.32974 0.0
O56 O 0.71576 0.06352 0.33527 0.0
O57 O 0.54617 0.85594 0.3781 0.0
O58 O 0.60349 0.86171 0.34601 0.0
C59 C 0.73774 0.09404 0.41038 0.0
O60 O 0.67238 0.10953 0.36925 0.0
O61 O 0.56312 0.99956 0.37517 0.0
C62 C 0.73488 0.02577 0.32209 0.0
O63 O 0.78021 0.10263 0.39361 0.0
O64 O 0.66495 0.04549 0.40924 0.0
C65 C 0.67387 0.86133 0.40401 0.0
Fe66 Fe 0.67293 0.61564 0.55752 0.0
Fe67 Fe 0.80462 0.70195 0.52271 0.0
O68 O 0.71782 0.68703 0.53596 0.0
Fe69 Fe 0.67669 0.74502 0.52779 0.0
O70 O 0.69049 0.78541 0.55628 0.0
O71 O 0.63804 0.67269 0.5741 0.0
O72 O 0.75997 0.66199 0.57558 0.0
C73 C 0.82856 0.67974 0.57014 0.0
C74 C 0.54051 0.59878 0.53656 0.0
O75 O 0.84628 0.68214 0.5491 0.0
C76 C 0.71584 0.71833 0.48542 0.0
O77 O 0.70618 0.5486 0.54541 0.0
O78 O 0.75804 0.60232 0.51314 0.0
O79 O 0.57593 0.67178 0.53396 0.0
O80 O 0.57896 0.56453 0.54155 0.0
C81 C 0.83683 0.85074 0.52723 0.0
O82 O 0.77921 0.72685 0.4941 0.0
O83 O 0.66125 0.7086 0.49859 0.0
C84 C 0.73935 0.54743 0.52683 0.0
O85 O 0.85751 0.80195 0.53153 0.0
O86 O 0.76899 0.83032 0.52033 0.0
C87 C 0.66187 0.74552 0.57396 0.0
Fe88 Fe 0.06891 0.66684 0.72674 0.0
Fe89 Fe 0.10835 0.80014 0.6928 0.0
O90 O 0.03891 0.71147 0.70568 0.0
Fe91 Fe 0.93892 0.66855 0.69766 0.0
O92 O 0.91189 0.67758 0.7264 0.0
O93 O 0.97856 0.63056 0.74381 0.0
O94 O 0.10968 0.75265 0.74521 0.0
C95 C 0.1563 0.82265 0.7402 0.0
C96 C 0.95459 0.53378 0.70522 0.0
O97 O 0.17056 0.84212 0.71926 0.0
C98 C 1.00188 0.7131 0.65515 0.0
O99 O 0.16812 0.70188 0.71395 0.0
O100 O 0.16335 0.75687 0.68242 0.0
O101 O 0.91517 0.56756 0.70255 0.0
O102 O 0.02671 0.57315 0.71069 0.0
C103 C 0.99019 0.8291 0.69818 0.0
O104 O 0.05697 0.77565 0.66416 0.0
O105 O 0.95867 0.65726 0.66809 0.0
C106 C 0.20028 0.73631 0.69536 0.0
O107 O 0.05966 0.85011 0.70238 0.0
O108 O 0.94235 0.76085 0.69156 0.0
C109 C 0.92689 0.65099 0.74395 0.0
Fe110 Fe 0.29965 0.08493 0.86401 0.0
Fe111 Fe 0.29439 0.92848 0.87103 0.0
O112 O 0.34028 0.03091 0.87639 0.0
Fe113 Fe 0.42082 0.07572 0.89557 0.0
O114 O 0.39378 0.14358 0.9088 0.0
O115 O 0.28313 0.1161 0.89209 0.0
O116 O 0.201 1.00588 0.86499 0.0
C117 C 0.17265 0.9528 0.87955 0.0
C118 C 0.46185 0.19594 0.86515 0.0
O119 O 0.20628 0.9148 0.88391 0.0
C120 C 0.44345 0.96019 0.87082 0.0
O121 O 0.31082 0.05695 0.83455 0.0
O122 O 0.26106 0.93222 0.84186 0.0
O123 O 0.48227 0.15115 0.87482 0.0
O124 O 0.39117 0.17425 0.86164 0.0
C125 C 0.32755 0.93399 0.91761 0.0
O126 O 0.38192 0.93645 0.85906 0.0
O127 O 0.4616 1.013 0.88607 0.0
C128 C 0.28018 0.98646 0.82759 0.0
O129 O 0.31592 0.90091 0.89853 0.0
O130 O 0.36417 1.00766 0.91841 0.0
C131 C 0.33098 0.14576 0.90856 0.0
Fe132 Fe 0.74008 0.65723 0.86829 0.0
Fe133 Fe 0.61556 0.65882 0.8364 0.0
O134 O 0.69052 0.70521 0.85752 0.0
Fe135 Fe 0.72117 0.8016 0.86754 0.0
O136 O 0.81973 0.83663 0.85798 0.0
O137 O 0.82998 0.74444 0.87405 0.0
O138 O 0.7765 0.65599 0.84043 0.0
C139 C 0.73946 0.63452 0.82186 0.0
C140 C 0.73165 0.72219 0.90801 0.0
O141 O 0.66886 0.61896 0.82024 0.0
C142 C 0.56499 0.74692 0.86413 0.0
O143 O 0.66215 0.55905 0.86419 0.0
O144 O 0.56139 0.56808 0.85298 0.0
O145 O 0.74308 0.78246 0.89701 0.0
O146 O 0.70844 0.65815 0.89738 0.0
C147 C 0.68952 0.81319 0.82039 0.0
O148 O 0.55461 0.69743 0.8485 0.0
O149 O 0.62467 0.77522 0.87685 0.0
C150 C 0.59094 0.52764 0.85992 0.0
O151 O 0.65915 0.74073 0.81689 0.0
O152 O 0.70752 0.84004 0.84044 0.0
C153 C 0.86027 0.80663 0.8632 0.0
Fe154 Fe 0.10046 0.74312 0.03382 0.0
Fe155 Fe 0.9642 0.62392 1.00356 0.0
O156 O 1.00039 0.69899 1.025 0.0
Fe157 Fe 0.93892 0.73249 0.03667 0.0
O158 O 1.01365 0.83204 0.03881 0.0
O159 O 0.12065 0.83856 1.02563 0.0
O160 O 0.13807 0.73626 1.00597 0.0
C161 C 0.10973 0.73245 0.98643 0.0
C162 C 0.02606 0.74494 0.07556 0.0
O163 O 0.03706 0.69056 0.98301 0.0
C164 C 0.83456 0.56912 1.03149 0.0
O165 O 0.08922 0.65118 0.04285 0.0
O166 O 0.02959 0.58486 1.01235 0.0
O167 O 0.95841 0.71702 0.06663 0.0
O168 O 0.08434 0.76147 0.06331 0.0
C169 C 0.88741 0.70814 0.9913 0.0
O170 O 0.88372 0.55344 1.02203 0.0
O171 O 0.85238 0.63812 0.03627 0.0
C172 C 0.07425 0.59559 1.02942 0.0
O173 O 0.89542 0.6488 0.9901 0.0
O174 O 0.91425 0.75433 1.00826 0.0
C175 C 0.08183 0.86991 1.03161 0.0
Fe176 Fe 0.38654 0.08786 0.20388 0.0
Fe177 Fe 0.35987 0.96289 0.16767 0.0
O178 O 0.32917 0.99244 0.19236 0.0
Fe179 Fe 0.23937 0.92945 0.20577 0.0
O180 O 0.20495 0.99746 0.20032 0.0
O181 O 0.30675 0.09329 0.21619 0.0
O182 O 0.37447 0.13052 0.17797 0.0
C183 C 0.38758 0.11671 0.15786 0.0
C184 C 0.34335 0.01343 0.24409 0.0
O185 O 0.39768 0.05893 0.15347 0.0
C186 C 0.28639 0.82412 0.19621 0.0
O187 O 0.47887 0.104 0.19401 0.0
O188 O 0.45751 0.99213 0.18002 0.0
O189 O 0.27556 0.97053 0.23523 0.0
O190 O 0.40016 0.04952 0.2306 0.0
C191 C 0.20019 0.88771 0.15834 0.0
O192 O 0.32068 0.86054 0.17802 0.0
O193 O 0.26816 0.85791 0.21132 0.0
C194 C 0.50422 0.06099 0.18719 0.0
O195 O 0.26909 0.93305 0.15197 0.0
O196 O 0.18526 0.87644 0.17946 0.0
C197 C 0.23998 0.06572 0.20833 0.0
Fe198 Fe 0.39952 0.34986 0.33476 0.0
Fe199 Fe 0.32406 0.22215 0.37114 0.0
O200 O 0.33251 0.30608 0.3574 0.0
Fe201 Fe 0.27338 0.34522 0.36637 0.0
O202 O 0.22917 0.33147 0.33845 0.0
O203 O 0.3376 0.381 0.31864 0.0
O204 O 0.35193 0.25982 0.31773 0.0
C205 C 0.34451 0.19514 0.32374 0.0
C206 C 0.41679 0.48366 0.3557 0.0
O207 O 0.34547 0.18108 0.34492 0.0
C208 C 0.30509 0.30859 0.40858 0.0
O209 O 0.47139 0.32073 0.34633 0.0
O210 O 0.42487 0.27459 0.37967 0.0
O211 O 0.34456 0.44695 0.35992 0.0
O212 O 0.45115 0.44606 0.34972 0.0
C213 C 0.17273 0.18243 0.36749 0.0
O214 O 0.29896 0.24629 0.39989 0.0
O215 O 0.31243 0.362 0.39533 0.0
C216 C 0.47725 0.29109 0.36516 0.0
O217 O 0.22356 0.16416 0.36329 0.0
O218 O 0.19078 0.25059 0.37391 0.0
C219 C 0.26546 0.36036 0.32024 0.0
Fe220 Fe 0.07208 0.41105 0.50274 0.0
Fe221 Fe 0.11374 0.32258 0.53817 0.0
O222 O 0.04404 0.33917 0.52395 0.0
Fe223 Fe 0.94546 0.28294 0.53124 0.0
O224 O 0.92036 0.24276 0.50292 0.0
O225 O 0.97989 0.35584 0.48576 0.0
O226 O 0.11231 0.36301 0.48509 0.0
C227 C 0.16253 0.3448 0.49127 0.0
C228 C 0.95807 0.43014 0.5236 0.0
O229 O 0.17792 0.34463 0.51248 0.0
C230 C 1.0019 0.30111 0.57361 0.0
O231 O 0.17118 0.47576 0.51581 0.0
O232 O 0.1651 0.42155 0.54849 0.0
O233 O 0.91889 0.35693 0.52493 0.0
O234 O 0.03038 0.4634 0.51859 0.0
C235 C 0.99866 0.17609 0.53136 0.0
O236 O 0.05827 0.29274 0.56615 0.0
O237 O 0.96735 0.32207 0.55988 0.0
C238 C 0.20279 0.47694 0.53504 0.0
O239 O 0.06863 0.22432 0.52832 0.0
O240 O 0.95156 0.19639 0.53855 0.0
C241 C 0.9298 0.28314 0.48551 0.0
Fe242 Fe 0.67182 0.94061 0.69592 0.0
Fe243 Fe 0.66568 0.06696 0.66833 0.0
O244 O 0.71157 0.03967 0.68925 0.0
Fe245 Fe 0.79728 0.11093 0.7036 0.0
O246 O 0.85353 0.06822 0.69407 0.0
O247 O 0.76611 0.94917 0.70306 0.0
O248 O 0.68656 0.91743 0.66739 0.0
C249 C 0.65629 0.92899 0.65005 0.0
C250 C 0.71008 0.99547 0.73843 0.0
O251 O 0.63056 0.97656 0.65074 0.0
C252 C 0.73069 0.19881 0.7003 0.0
O253 O 0.57057 0.91251 0.68975 0.0
O254 O 0.57245 0.02339 0.68424 0.0
O255 O 0.77277 0.0547 0.73128 0.0
O256 O 0.65445 0.95953 0.72479 0.0
C257 C 0.82049 0.16018 0.65689 0.0
O258 O 0.69874 0.16608 0.68132 0.0
O259 O 0.74777 0.1606 0.7139 0.0
C260 C 0.53519 0.95079 0.68903 0.0
O261 O 0.75288 0.10731 0.6511 0.0
O262 O 0.83754 0.176 0.67803 0.0
C263 C 0.83456 0.99878 0.69745 0.0
C264 C 0.69945 0.48796 1.01484 0.0
C265 C 0.74865 0.51268 0.03444 0.0
C266 C 0.63652 0.49556 0.05767 0.0
C267 C 0.58947 0.47851 0.03769 0.0
N268 N 0.57659 0.46121 0.99708 0.0
N269 N 0.76364 0.53558 0.07477 0.0
C270 C 0.62124 0.47496 1.01625 0.0
C271 C 0.71612 0.51362 0.05597 0.0
N272 N 0.72817 0.4777 0.99479 0.0
N273 N 0.60436 0.49285 0.07843 0.0
H274 H 0.81979 0.54326 0.07416 0.0
H275 H 0.74908 0.54793 0.09065 0.0
H276 H 0.55004 0.48852 0.08018 0.0
H277 H 0.63029 0.49351 0.09394 0.0
H278 H 0.69578 0.45618 0.97986 0.0
H279 H 0.78378 0.48466 0.99359 0.0
H280 H 0.59587 0.46248 0.98056 0.0
H281 H 0.52082 0.45432 0.99762 0.0
C282 C 0.20876 0.69995 0.21848 0.0
C283 C 0.24555 0.73548 0.19772 0.0
C284 C 0.15649 0.61228 0.17771 0.0
C285 C 0.11448 0.57925 0.19825 0.0
N286 N 0.09097 0.60574 0.23702 0.0
N287 N 0.27541 0.71116 0.15991 0.0
C288 C 0.13794 0.62675 0.21836 0.0
C289 C 0.22567 0.68746 0.17794 0.0
N290 N 0.24427 0.73487 0.2386 0.0
N291 N 0.12668 0.5738 0.15753 0.0
H292 H 0.33076 0.76023 0.1608 0.0
H293 H 0.26749 0.67667 0.14558 0.0
H294 H 0.07208 0.52364 0.15645 0.0
H295 H 0.1501 0.59657 0.14168 0.0
H296 H 0.22506 0.70856 0.25439 0.0
H297 H 0.29893 0.7853 0.23911 0.0
H298 H 0.10339 0.64178 0.25128 0.0
H299 H 0.0344 0.55906 0.23722 0.0
C300 C 0.5213 0.20893 0.38802 0.0
C301 C 0.52255 0.24633 0.36711 0.0
C302 C 0.5676 0.16355 0.34791 0.0
C303 C 0.55931 0.12145 0.36833 0.0
N304 N 0.52068 0.10043 0.40762 0.0
N305 N 0.58426 0.28202 0.33053 0.0
C306 C 0.53377 0.14315 0.38828 0.0
C307 C 0.55571 0.22973 0.34786 0.0
N308 N 0.51608 0.24161 0.40804 0.0
N309 N 0.58497 0.13865 0.32819 0.0
H310 H 0.58734 0.33609 0.33149 0.0
H311 H 0.61519 0.27735 0.31688 0.0
H312 H 0.59242 0.09003 0.32755 0.0
H313 H 0.58396 0.16087 0.31223 0.0
H314 H 0.52156 0.2225 0.42406 0.0
H315 H 0.51736 0.29497 0.40864 0.0
H316 H 0.49371 0.107 0.42199 0.0
H317 H 0.53013 0.05323 0.40863 0.0
C318 C 0.33987 0.56769 0.52 0.0
C319 C 0.29149 0.52227 0.53798 0.0
C320 C 0.40672 0.52349 0.55572 0.0
C321 C 0.45204 0.5597 0.53603 0.0
N322 N 0.45567 0.60537 0.4979 0.0
N323 N 0.29076 0.49216 0.57768 0.0
C324 C 0.4165 0.57869 0.51783 0.0
C325 C 0.32814 0.50941 0.5572 0.0
N326 N 0.31553 0.60687 0.50621 0.0
N327 N 0.43835 0.50245 0.5731 0.0
H328 H 0.23922 0.49344 0.58009 0.0
H329 H 0.31529 0.48777 0.59291 0.0
H330 H 0.49589 0.51463 0.57331 0.0
H331 H 0.40603 0.46743 0.58656 0.0
H332 H 0.35082 0.64664 0.49399 0.0
H333 H 0.26415 0.60792 0.50923 0.0
H334 H 0.43081 0.61309 0.48318 0.0
H335 H 0.51036 0.61135 0.4956 0.0
C336 C 0.80427 0.3357 0.683 0.0
C337 C 0.7777 0.28807 0.70269 0.0
C338 C 0.87563 0.4032 0.7252 0.0
C339 C 0.90837 0.44532 0.70478 0.0
N340 N 0.91541 0.44036 0.6642 0.0
N341 N 0.78125 0.28268 0.74365 0.0
C342 C 0.87608 0.40773 0.68372 0.0
C343 C 0.81176 0.32394 0.72416 0.0
N344 N 0.75811 0.31639 0.66406 0.0
N345 N 0.90479 0.43986 0.74562 0.0
H346 H 0.72756 0.23118 0.74382 0.0
H347 H 0.80788 0.29928 0.7596 0.0
H348 H 0.95566 0.49376 0.7468 0.0
H349 H 0.87895 0.41806 0.76128 0.0
H350 H 0.77327 0.35213 0.6498 0.0
H351 H 0.70013 0.27188 0.66405 0.0
H352 H 0.89807 0.4124 0.64838 0.0
H353 H 0.97051 0.49014 0.66466 0.0
C354 C 0.50851 0.82443 0.84539 0.0
C355 C 0.51764 0.78761 0.86509 0.0
C356 C 0.49026 0.87346 0.88946 0.0
C357 C 0.48278 0.91145 0.86975 0.0
N358 N 0.50804 0.93797 0.82998 0.0
N359 N 0.49501 0.76203 0.90496 0.0
C360 C 0.49793 0.89048 0.848 0.0
C361 C 0.50223 0.80823 0.88684 0.0
N362 N 0.50735 0.79546 0.8241 0.0
N363 N 0.49006 0.90134 0.91082 0.0
H364 H 0.50077 0.71255 0.90326 0.0
H365 H 0.47476 0.76695 0.92088 0.0
H366 H 0.48205 0.94831 0.91425 0.0
H367 H 0.5051 0.88222 0.92545 0.0
H368 H 0.4939 0.81561 0.80939 0.0
H369 H 0.50976 0.74501 0.82102 0.0
H370 H 0.52669 0.93157 0.81397 0.0
H371 H 0.50715 0.99 0.83191 0.0
C372 C 0.52232 0.39434 0.84091 0.0
C373 C 0.54834 0.4403 0.8612 0.0
C374 C 0.54987 0.33068 0.88088 0.0
C375 C 0.51499 0.28176 0.86157 0.0
N376 N 0.4723 0.26722 0.8226 0.0
N377 N 0.57678 0.44885 0.90134 0.0
C378 C 0.50349 0.3144 0.84134 0.0
C379 C 0.55921 0.40714 0.88139 0.0
N380 N 0.51806 0.42769 0.82104 0.0
N381 N 0.57454 0.30437 0.89875 0.0
H382 H 0.58076 0.50342 0.9024 0.0
H383 H 0.57886 0.42651 0.91717 0.0
H384 H 0.57214 0.25063 0.89851 0.0
H385 H 0.60585 0.33901 0.91262 0.0
H386 H 0.50925 0.40125 0.80509 0.0
H387 H 0.52663 0.48397 0.82021 0.0
H388 H 0.45202 0.28206 0.80818 0.0
H389 H 0.46486 0.21112 0.82188 0.0
C390 C 0.18551 0.58293 0.048 0.0
C391 C 0.12772 0.55986 1.03035 0.0
C392 C 0.19972 0.50771 1.00883 0.0
C393 C 0.25472 0.52735 1.02691 0.0
N394 N 0.31761 0.61639 0.05818 0.0
N395 N 0.06834 0.4732 0.99806 0.0
C396 C 0.25301 0.57496 0.04483 0.0
C397 C 0.13186 0.51516 1.01178 0.0
N398 N 0.17238 0.60476 0.06891 0.0
N399 N 0.21487 0.48654 0.98813 0.0
H400 H 1.01368 0.4659 1.00174 0.0
H401 H 0.06639 0.43519 0.98537 0.0
H402 H 0.26758 0.48853 0.98475 0.0
H403 H 0.18092 0.47844 0.97365 0.0
H404 H 0.20929 0.61609 0.08287 0.0
H405 H 0.11857 0.59812 0.07349 0.0
H406 H 0.32226 0.65717 0.07033 0.0
H407 H 0.37041 0.6189 0.05465 0.0
C408 C 0.62908 0.1396 0.2074 0.0
C409 C 0.59152 0.10108 0.18686 0.0
C410 C 0.70919 0.19545 0.1661 0.0
C411 C 0.74248 0.23843 0.18669 0.0
N412 N 0.72196 0.26097 0.22569 0.0
N413 N 0.59713 0.08974 0.14629 0.0
C414 C 0.69812 0.21364 0.20689 0.0
C415 C 0.63225 0.12822 0.16604 0.0
N416 N 0.59846 0.10398 0.22758 0.0
N417 N 0.75313 0.21825 0.14681 0.0
H418 H 0.54349 0.03825 0.14617 0.0
H419 H 0.61938 0.10944 0.13014 0.0
H420 H 0.80713 0.26947 0.14635 0.0
H421 H 0.73762 0.1865 0.13163 0.0
H422 H 0.62685 0.12513 0.24319 0.0
H423 H 0.54904 0.04858 0.22813 0.0
H424 H 0.68907 0.24806 0.2405 0.0
H425 H 0.77014 0.31704 0.22543 0.0
C426 C 0.49266 0.61892 0.33679 0.0
C427 C 0.45543 0.57262 0.35629 0.0
C428 C 0.45194 0.68653 0.37321 0.0
C429 C 0.49885 0.73558 0.35553 0.0
N430 N 0.52932 0.73812 0.3158 0.0
N431 N 0.41127 0.56898 0.39468 0.0
C432 C 0.5102 0.69895 0.33597 0.0
C433 C 0.43825 0.60864 0.37484 0.0
N434 N 0.51123 0.58687 0.3189 0.0
N435 N 0.41409 0.71168 0.38731 0.0
H436 H 0.4041 0.51374 0.39677 0.0
H437 H 0.4046 0.59391 0.40957 0.0
H438 H 0.41461 0.76402 0.38467 0.0
H439 H 0.37352 0.67625 0.39935 0.0
H440 H 0.54718 0.61934 0.30561 0.0
H441 H 0.49507 0.52822 0.3179 0.0
H442 H 0.5327 0.71413 0.30033 0.0
H443 H 0.53089 0.79128 0.31388 0.0
C444 C 0.86496 0.45921 0.54472 0.0
C445 C 0.91084 0.471 0.52493 0.0
C446 C 0.82547 0.50864 0.50423 0.0
C447 C 0.78359 0.50253 0.52461 0.0
N448 N 0.74016 0.43223 0.5597 0.0
N449 N 0.93781 0.51275 0.48596 0.0
C450 C 0.79683 0.46687 0.5437 0.0
C451 C 0.89195 0.49759 0.50472 0.0
N452 N 0.88778 0.44217 0.56483 0.0
N453 N 0.79656 0.51734 0.48395 0.0
H454 H 0.98565 0.50422 0.48557 0.0
H455 H 0.93291 0.54007 0.47147 0.0
H456 H 0.74295 0.51532 0.48278 0.0
H457 H 0.81938 0.51611 0.46812 0.0
H458 H 0.86138 0.44007 0.58034 0.0
H459 H 0.93859 0.43883 0.56631 0.0
H460 H 0.74318 0.39912 0.57298 0.0
H461 H 0.68544 0.42719 0.5578 0.0
C462 C 0.39911 0.88554 0.67143 0.0
C463 C 0.44756 0.90258 0.69104 0.0
C464 C 0.34024 0.78781 0.71002 0.0
C465 C 0.28849 0.77751 0.69188 0.0
N466 N 0.28023 0.79259 0.65152 0.0
N467 N 0.45902 0.87606 0.73041 0.0
C468 C 0.32125 0.82005 0.67145 0.0
C469 C 0.41638 0.85514 0.71068 0.0
N470 N 0.4272 0.93214 0.65276 0.0
N471 N 0.31994 0.72948 0.72538 0.0
H472 H 0.51285 0.92707 0.73181 0.0
H473 H 0.43722 0.84802 0.74585 0.0
H474 H 0.26889 0.67584 0.72367 0.0
H475 H 0.35794 0.7304 0.73787 0.0
H476 H 0.39284 0.92867 0.63884 0.0
H477 H 0.4839 0.97886 0.65185 0.0
H478 H 0.30188 0.8158 0.63558 0.0
H479 H 0.228 0.73963 0.65061 0.0
C480 C 0.35704 0.30133 0.9528 0.0
C481 C 0.30286 0.2555 0.96986 0.0
C482 C 0.25652 0.13899 0.94454 0.0
C483 C 0.31455 0.18437 0.92839 0.0
N484 N 0.39955 0.31155 0.91355 0.0
N485 N 0.19688 0.13032 0.98132 0.0
C486 C 0.35914 0.26639 0.93155 0.0
C487 C 0.25011 0.17455 0.96525 0.0
N488 N 0.40788 0.37844 0.95708 0.0
N489 N 0.20679 0.06179 0.93988 0.0
H490 H 0.18608 0.15375 0.99575 0.0
H491 H 0.16326 0.06999 0.98074 0.0
H492 H 0.21394 0.03263 0.92606 0.0
H493 H 0.15577 0.02691 0.94871 0.0
H494 H 0.45578 0.41271 0.94689 0.0
H495 H 0.40395 0.40746 0.97147 0.0
H496 H 0.42461 0.37194 0.91354 0.0
H497 H 0.39964 0.28777 0.89765 0.0
C498 C 0.09092 0.25231 0.12721 0.0
C499 C 0.05866 0.29985 0.13325 0.0
C500 C 0.11448 0.3771 0.09847 0.0
C501 C 0.15708 0.33775 0.09441 0.0
N502 N 0.168 0.22367 0.10086 0.0
N503 N 0.03487 0.40438 0.12438 0.0
C504 C 0.1399 0.27101 0.10767 0.0
C505 C 0.06794 0.36045 0.11853 0.0
N506 N 0.07634 0.19061 0.14076 0.0
N507 N 0.11685 0.42892 0.08285 0.0
H508 H 0.99692 0.39026 0.13811 0.0
H509 H 0.04677 0.45578 0.11628 0.0
H510 H 0.15065 0.44277 0.06827 0.0
H511 H 0.0802 0.45252 0.0832 0.0
H512 H 0.10315 0.15712 0.13923 0.0
H513 H 0.03575 0.17221 0.15385 0.0
H514 H 0.15356 0.17047 0.10817 0.0
H515 H 0.20398 0.23639 0.08682 0.0
C516 C 0.79102 0.06592 0.25785 0.0
C517 C 0.83355 0.14958 0.2578 0.0
C518 C 0.82313 0.14745 0.29963 0.0
C519 C 0.77275 0.06501 0.29978 0.0
N520 N 0.70064 0.94689 0.27781 0.0
N521 N 0.8634 0.26674 0.28031 0.0
C522 C 0.75514 0.02434 0.27854 0.0
C523 C 0.84127 0.18919 0.27898 0.0
N524 N 0.78177 0.02562 0.23803 0.0
N525 N 0.85729 0.18819 0.3192 0.0
H526 H 0.87918 0.30578 0.2671 0.0
H527 H 0.85778 0.29225 0.29527 0.0
H528 H 0.84584 0.16481 0.33529 0.0
H529 H 0.90367 0.24543 0.31915 0.0
H530 H 0.76181 0.96598 0.23746 0.0
H531 H 0.79578 0.05185 0.22212 0.0
H532 H 0.67827 0.91534 0.26273 0.0
H533 H 0.67288 0.91526 0.29232 0.0
C534 C 0.76285 0.83222 0.42928 0.0
C535 C 0.68632 0.81442 0.42234 0.0
C536 C 0.6337 0.70974 0.45093 0.0
C537 C 0.70878 0.73671 0.46047 0.0
N538 N 0.84322 0.79156 0.44991 0.0
N539 N 0.54785 0.73682 0.42811 0.0
C540 C 0.77343 0.78883 0.44713 0.0
C541 C 0.62149 0.75272 0.43347 0.0
N542 N 0.82601 0.89351 0.41969 0.0
N543 N 0.57532 0.63811 0.457 0.0
H544 H 0.53644 0.76635 0.4154 0.0
H545 H 0.49912 0.69896 0.43752 0.0
H546 H 0.58566 0.60218 0.46772 0.0
H547 H 0.52087 0.61112 0.44915 0.0
H548 H 0.88271 0.91616 0.42585 0.0
H549 H 0.82055 0.92561 0.40667 0.0
H550 H 0.8909 0.8232 0.4394 0.0
H551 H 0.85026 0.7539 0.4607 0.0
C552 C 0.95385 0.76041 0.59412 0.0
C553 C 0.885 0.68801 0.58921 0.0
C554 C 0.92127 0.63173 0.62119 0.0
C555 C 0.97643 0.70662 0.6299 0.0
N556 N 0.05505 0.8439 0.62117 0.0
N557 N 0.80148 0.55404 0.60027 0.0
C558 C 0.99595 0.77158 0.6153 0.0
C559 C 0.86825 0.62366 0.60344 0.0
N560 N 0.98081 0.81795 0.57823 0.0
N561 N 0.92343 0.56788 0.62875 0.0
H562 H 0.76144 0.54422 0.58736 0.0
H563 H 0.78337 0.508 0.61165 0.0
H564 H 0.96873 0.57385 0.63922 0.0
H565 H 0.88882 0.5122 0.62186 0.0
H566 H 0.034 0.86949 0.57956 0.0
H567 H 0.95344 0.81084 0.56253 0.0
H568 H 0.06234 0.89489 0.61383 0.0
H569 H 0.09802 0.85315 0.63301 0.0
C570 C 0.19817 0.96456 0.79116 0.0
C571 C 0.26079 0.96249 0.80258 0.0
C572 C 0.26028 0.87552 0.77184 0.0
C573 C 0.19957 0.8794 0.75987 0.0
N574 N 0.12145 0.94097 0.75641 0.0
N575 N 0.36418 0.93281 0.80016 0.0
C576 C 0.17247 0.92873 0.76895 0.0
C577 C 0.29568 0.92323 0.79168 0.0
N578 N 0.16007 0.99688 0.80205 0.0
N579 N 0.28218 0.82344 0.76485 0.0
H580 H 0.3922 0.96939 0.81406 0.0
H581 H 0.39704 0.91212 0.792 0.0
H582 H 0.25799 0.78827 0.75051 0.0
H583 H 0.31922 0.81075 0.77422 0.0
H584 H 0.10791 0.99159 0.79619 0.0
H585 H 0.17811 0.02494 0.81782 0.0
H586 H 0.10445 0.98133 0.76084 0.0
H587 H 0.10126 0.91522 0.74049 0.0
C588 C 0.72496 0.68183 0.94968 0.0
C589 C 0.76839 0.73156 0.93144 0.0
C590 C 0.88935 0.76828 0.95303 0.0
C591 C 0.84627 0.72254 0.97179 0.0
N592 N 0.7217 0.64999 0.98984 0.0
N593 N 0.89237 0.84351 0.92061 0.0
C594 C 0.76351 0.68377 0.97068 0.0
C595 C 0.85045 0.78183 0.93466 0.0
N596 N 0.64686 0.63216 0.94693 0.0
N597 N 0.96762 0.79595 0.95204 0.0
H598 H 0.86816 0.86081 0.90783 0.0
H599 H 0.95062 0.88469 0.92369 0.0
H600 H 0.9973 0.78462 0.96468 0.0
H601 H 1.00092 0.82223 0.93765 0.0
H602 H 0.61357 0.58809 0.95839 0.0
H603 H 0.61608 0.63288 0.93254 0.0
H604 H 0.66179 0.62767 0.9909 0.0
H605 H 0.74835 0.65137 1.00534 0.0
C606 C 0.05606 0.72809 0.11674 0.0
C607 C 0.04413 0.77284 0.1001 0.0
C608 C 0.12225 0.89098 0.12385 0.0
C609 C 0.13673 0.84667 0.14022 0.0
N610 N 0.09079 0.71841 0.15575 0.0
N611 N 0.04263 0.89081 0.09208 0.0
C612 C 0.09503 0.76374 0.13784 0.0
C613 C 0.06989 0.85248 0.10509 0.0
N614 N 0.03266 0.65184 0.11207 0.0
N615 N 0.15863 0.97018 0.1262 0.0
H616 H 1.00078 0.86225 0.07938 0.0
H617 H 0.05416 0.94731 0.09548 0.0
H618 H 0.19185 0.99947 0.14052 0.0
H619 H 0.15822 1.00695 0.11366 0.0
H620 H 0.04764 0.6182 0.12221 0.0
H621 H 1.00118 0.62359 0.09735 0.0
H622 H 0.05268 0.65846 0.1559 0.0
H623 H 0.11781 0.74125 0.17137 0.0
C624 C 0.2861 0.01575 0.28379 0.0
C625 C 0.35028 0.04584 0.26844 0.0
C626 C 0.41262 0.16875 0.29065 0.0
C627 C 0.3476 0.14114 0.30559 0.0
N628 N 0.23253 0.02868 0.31985 0.0
N629 N 0.48908 0.13096 0.26746 0.0
C630 C 0.28747 0.06148 0.30327 0.0
C631 C 0.41798 0.11646 0.2749 0.0
N632 N 0.22458 0.94257 0.28018 0.0
N633 N 0.47051 0.24487 0.29132 0.0
H634 H 0.49585 0.08779 0.25933 0.0
H635 H 0.54133 0.17931 0.27268 0.0
H636 H 0.47328 0.28543 0.30318 0.0
H637 H 0.51384 0.26877 0.279 0.0
H638 H 0.1708 0.92146 0.28805 0.0
H639 H 0.22803 0.90244 0.26935 0.0
H640 H 0.19135 0.96963 0.32043 0.0
H641 H 0.23189 0.05918 0.33426 0.0
C642 C 0.31083 0.39051 0.44291 0.0
C643 C 0.28763 0.31559 0.43374 0.0
C644 C 0.19892 0.25939 0.46666 0.0
C645 C 0.21129 0.33467 0.47298 0.0
N646 N 0.27854 0.47276 0.46564 0.0
N647 N 0.2418 0.1827 0.44477 0.0
C648 C 0.26762 0.40044 0.46077 0.0
C649 C 0.24083 0.25065 0.44787 0.0
N650 N 0.37956 0.45168 0.43601 0.0
N651 N 0.14429 0.19544 0.4779 0.0
H652 H 0.27878 0.17742 0.43325 0.0
H653 H 0.21419 0.13507 0.45554 0.0
H654 H 0.1159 0.19986 0.49219 0.0
H655 H 0.12382 0.1384 0.47231 0.0
H656 H 0.40347 0.50701 0.44325 0.0
H657 H 0.41691 0.44358 0.42524 0.0
H658 H 0.31181 0.52125 0.45554 0.0
H659 H 0.24951 0.48303 0.47876 0.0
C660 C 0.99995 0.2708 0.6168 0.0
C661 C 0.96035 0.26682 0.59601 0.0
C662 C 0.8397 0.21947 0.61804 0.0
C663 C 0.87441 0.20834 0.63778 0.0
N664 N 0.9906 0.21776 0.65469 0.0
N665 N 0.83248 0.20638 0.57755 0.0
C666 C 0.95568 0.23281 0.63691 0.0
C667 C 0.87749 0.23257 0.59683 0.0
N668 N 0.07935 0.31257 0.61771 0.0
N669 N 0.76982 0.21746 0.61927 0.0
H670 H 0.85374 0.20365 0.56164 0.0
H671 H 0.77172 0.17608 0.57802 0.0
H672 H 0.74038 0.21038 0.6345 0.0
H673 H 0.74618 0.23203 0.6055 0.0
H674 H 0.11089 0.32364 0.63286 0.0
H675 H 0.11325 0.34251 0.60376 0.0
H676 H 0.04683 0.22609 0.65383 0.0
H677 H 0.96172 0.19156 0.66966 0.0
C678 C 0.71087 0.84177 0.77806 0.0
C679 C 0.70283 0.86667 0.80017 0.0
C680 C 0.71729 0.98651 0.78184 0.0
C681 C 0.70913 0.95269 0.75986 0.0
N682 N 0.67453 0.83209 0.73886 0.0
N683 N 0.68621 0.96287 0.82189 0.0
C684 C 0.69836 0.87566 0.75848 0.0
C685 C 0.7035 0.93961 0.80185 0.0
N686 N 0.73357 0.7874 0.7753 0.0
N687 N 0.7358 0.06267 0.78376 0.0
H688 H 0.67027 0.93025 0.83667 0.0
H689 H 0.67888 1.01135 0.82323 0.0
H690 H 0.74181 0.09707 0.76967 0.0
H691 H 0.75114 0.09313 0.7992 0.0
H692 H 0.74738 0.77362 0.75944 0.0
H693 H 0.74875 0.76389 0.78875 0.0
H694 H 0.65925 0.77343 0.73844 0.0
H695 H 0.66029 0.8487 0.72374 0.0
C696 C 0.45745 0.20087 0.12355 0.0
C697 C 0.39502 0.17238 0.13935 0.0
C698 C 0.35469 0.26021 0.12237 0.0
C699 C 0.40535 0.27468 0.10379 0.0
N700 N 0.50571 0.25715 0.08641 0.0
N701 N 0.27476 0.16678 0.15064 0.0
C702 C 0.45676 0.2441 0.10425 0.0
C703 C 0.34117 0.20015 0.13799 0.0
N704 N 0.52006 0.1915 0.12778 0.0
N705 N 0.32026 0.30446 0.12541 0.0
H706 H 0.25922 0.11919 0.16117 0.0
H707 H 0.23087 0.1808 0.14873 0.0
H708 H 0.3342 0.35286 0.11546 0.0
H709 H 0.28586 0.29913 0.1394 0.0
H710 H 0.57013 0.21629 0.11786 0.0
H711 H 0.52578 0.16772 0.14293 0.0
H712 H 0.53794 0.22888 0.08458 0.0
H713 H 0.5113 0.29378 0.07295 0.0
C714 C 0.10579 0.30896 0.27492 0.0
C715 C 0.12188 0.38384 0.2673 0.0
C716 C 0.23895 0.44424 0.29249 0.0
C717 C 0.22049 0.36934 0.30071 0.0
N718 N 0.13342 0.23078 0.30086 0.0
N719 N 0.19828 0.52328 0.27091 0.0
C720 C 0.15262 0.3022 0.29234 0.0
C721 C 0.18741 0.45162 0.2766 0.0
N722 N 0.04903 0.24346 0.26433 0.0
N723 N 0.30554 0.50851 0.3 0.0
H724 H 0.16077 0.53025 0.2599 0.0
H725 H 0.24016 0.57552 0.27828 0.0
H726 H 0.34156 0.50601 0.31253 0.0
H727 H 0.32774 0.56382 0.29311 0.0
H728 H 0.03901 0.18748 0.26729 0.0
H729 H 1.01531 0.24506 0.25107 0.0
H730 H 0.07857 0.18158 0.29904 0.0
H731 H 0.17199 0.22148 0.31063 0.0
C732 C 0.8401 0.22436 0.42559 0.0
C733 C 0.77528 0.1492 0.43003 0.0
C734 C 0.79766 0.18187 0.47058 0.0
C735 C 0.87405 0.24469 0.46604 0.0
N736 N 0.97112 0.31686 0.43726 0.0
N737 N 0.6992 0.05311 0.45858 0.0
C738 C 0.89627 0.26424 0.44299 0.0
C739 C 0.75522 0.12691 0.45304 0.0
N740 N 0.84741 0.25867 0.40494 0.0
N741 N 0.76422 0.17584 0.49133 0.0
H742 H 0.66837 1.00914 0.44665 0.0
H743 H 0.68903 0.03375 0.47537 0.0
H744 H 0.78986 0.21907 0.50388 0.0
H745 H 0.70675 0.13371 0.49473 0.0
H746 H 0.89132 0.3155 0.4016 0.0
H747 H 0.80396 0.23449 0.39243 0.0
H748 H 0.98973 0.32649 0.42039 0.0
H749 H 1.01637 0.34427 0.44903 0.0
C750 C 0.72404 0.83743 0.6065 0.0
C751 C 0.65513 0.78589 0.59452 0.0
C752 C 0.58203 0.82807 0.61905 0.0
C753 C 0.65352 0.88624 0.62886 0.0
N754 N 0.79341 0.95991 0.62653 0.0
N755 N 0.51821 0.73658 0.58767 0.0
C756 C 0.7247 0.89498 0.62091 0.0
C757 C 0.58374 0.78243 0.60026 0.0
N758 N 0.78816 0.82901 0.60511 0.0
N759 N 0.51301 0.81444 0.62814 0.0
H760 H 0.51718 0.70058 0.57445 0.0
H761 H 0.46641 0.73762 0.58948 0.0
H762 H 0.50999 0.84712 0.6417 0.0
H763 H 0.45924 0.76766 0.62327 0.0
H764 H 0.83733 0.86043 0.61543 0.0
H765 H 0.78844 0.78476 0.59553 0.0
H766 H 0.846 0.97252 0.619 0.0
H767 H 0.79595 1.00506 0.63644 0.0
C768 C 0.9066 0.70618 0.7801 0.0
C769 C 0.88075 0.64221 0.76481 0.0
C770 C 0.7623 0.56883 0.78772 0.0
C771 C 0.78449 0.63634 0.80134 0.0
N772 N 0.87105 0.77457 0.80726 0.0
N773 N 0.77999 0.51497 0.75239 0.0
C774 C 0.85506 0.70629 0.7967 0.0
C775 C 0.80727 0.57409 0.76812 0.0
N776 N 0.98083 0.76735 0.77889 0.0
N777 N 0.70073 0.49908 0.79409 0.0
H778 H 0.81244 0.51585 0.73832 0.0
H779 H 0.72355 0.46756 0.75249 0.0
H780 H 0.66838 0.49321 0.80866 0.0
H781 H 0.68614 0.44621 0.7862 0.0
H782 H 1.00648 0.81031 0.79148 0.0
H783 H 1.0186 0.77213 0.76604 0.0
H784 H 0.91743 0.82882 0.80287 0.0
H785 H 0.83235 0.77871 0.81834 0.0
C786 C 0.20131 0.75108 0.95378 0.0
C787 C 0.16455 0.78119 0.96796 0.0
C788 C 0.26067 0.91388 0.95591 0.0
C789 C 0.28681 0.88375 0.93817 0.0
N790 N 0.28936 0.77128 0.9226 0.0
N791 N 0.1512 0.89129 0.97893 0.0
C792 C 0.25918 0.80142 0.93783 0.0
C793 C 0.192 0.86258 0.96791 0.0
N794 N 0.18265 0.67498 0.95605 0.0
N795 N 0.30308 0.99039 0.96236 0.0
H796 H 0.09783 0.85469 0.98635 0.0
H797 H 0.16558 0.94951 0.97837 0.0
H798 H 0.35924 0.0274 0.95657 0.0
H799 H 0.28825 0.01346 0.97622 0.0
H800 H 0.2131 0.65091 0.94829 0.0
H801 H 0.1389 0.63653 0.96693 0.0
H802 H 0.26428 0.71204 0.91891 0.0
H803 H 0.34017 0.80595 0.91362 0.0
C804 C 0.19103 0.06507 0.05916 0.0
C805 C 0.15723 0.10281 0.04731 0.0
C806 C 0.07934 0.98931 1.02396 0.0
C807 C 0.11815 0.95322 0.03424 0.0
N808 N 0.20392 0.95075 0.06348 0.0
N809 N 0.04755 0.09235 1.02664 0.0
C810 C 0.17235 0.98936 0.0524 0.0
C811 C 0.09368 0.06182 1.03245 0.0
N812 N 0.24308 0.10404 0.07632 0.0
N813 N 0.03028 0.95479 1.00577 0.0
H814 H 0.05479 0.14369 0.03396 0.0
H815 H 0.99683 0.06249 1.01691 0.0
H816 H 1.01882 0.90136 0.99894 0.0
H817 H 1.00651 0.98208 0.99619 0.0
H818 H 0.27823 0.08583 0.08427 0.0
H819 H 0.24974 0.15588 0.08289 0.0
H820 H 0.23659 0.97017 0.07843 0.0
H821 H 0.19738 0.89781 0.05798 0.0
C822 C 0.24047 0.19063 0.20544 0.0
C823 C 0.20136 0.11072 0.21174 0.0
C824 C 0.08396 0.11572 0.22023 0.0
C825 C 0.11887 0.18954 0.20959 0.0
N826 N 0.22419 0.2894 0.18742 0.0
N827 N 0.09115 1.00002 0.22878 0.0
C828 C 0.19538 0.22509 0.20101 0.0
C829 C 0.12435 0.07379 0.2202 0.0
N830 N 0.31991 0.23504 0.20377 0.0
N831 N 1.01394 0.08731 0.23095 0.0
H832 H 0.12318 0.9727 0.23268 0.0
H833 H 0.03191 0.96552 0.23201 0.0
H834 H 0.98302 0.11695 0.23138 0.0
H835 H 0.98892 0.03755 0.24094 0.0
H836 H 0.35991 0.21695 0.2069 0.0
H837 H 0.3483 0.29541 0.20192 0.0
H838 H 0.27695 0.3116 0.17887 0.0
H839 H 0.19293 0.31622 0.18257 0.0
C840 C 0.05146 0.11495 0.3894 0.0
C841 C 0.09132 0.12089 0.36894 0.0
C842 C 0.96892 0.03177 0.3499 0.0
C843 C 0.92996 0.04196 0.36862 0.0
N844 N 0.93066 0.08785 0.40689 0.0
N845 N 0.09103 0.07919 0.33011 0.0
C846 C 0.97004 0.08096 0.38876 0.0
C847 C 0.0512 0.07591 0.34941 0.0
N848 N 0.09193 0.14043 0.40942 0.0
N849 N 0.92709 0.9816 0.33255 0.0
H850 H 0.1514 0.11089 0.3291 0.0
H851 H 0.06468 0.0541 0.31458 0.0
H852 H 0.8664 0.94972 0.33231 0.0
H853 H 0.95192 0.96636 0.31932 0.0
H854 H 0.0659 0.13223 0.42532 0.0
H855 H 0.15168 0.16188 0.41013 0.0
H856 H 0.95791 0.12476 0.42077 0.0
H857 H 0.87012 0.05852 0.40766 0.0
C858 C 0.97093 0.05316 0.54925 0.0
C859 C 0.9737 0.0943 0.52939 0.0
C860 C 0.9117 0.97498 0.50706 0.0
C861 C 0.89476 0.93316 0.52765 0.0
N862 N 0.90758 0.92952 0.56845 0.0
N863 N 0.95011 0.09835 0.48915 0.0
C864 C 0.92561 0.97122 0.54878 0.0
C865 C 0.94609 0.05658 0.50809 0.0
N866 N 1.01112 0.09263 0.56841 0.0
N867 N 0.89612 0.9363 0.48669 0.0
H868 H 0.97915 0.15908 0.48903 0.0
H869 H 0.92188 0.07293 0.47383 0.0
H870 H 0.87373 0.87634 0.48586 0.0
H871 H 0.91271 0.9638 0.47099 0.0
H872 H 1.01699 0.06558 0.58283 0.0
H873 H 0.04487 0.15324 0.56912 0.0
H874 H 0.92136 0.95471 0.58463 0.0
H875 H 0.87483 0.86901 0.56859 0.0
C876 C 0.97642 0.93467 0.68033 0.0
C877 C 0.96608 0.88727 0.69945 0.0
C878 C 0.90214 0.9459 0.72005 0.0
C879 C 0.89519 0.97763 0.69927 0.0
N880 N 0.93456 0.0144 0.66038 0.0
N881 N 0.92713 0.85166 0.73843 0.0
C882 C 0.93639 0.97715 0.67968 0.0
C883 C 0.93204 0.89464 0.71974 0.0
N884 N 0.02454 0.93896 0.66308 0.0
N885 N 0.8825 0.96729 0.74 0.0
H886 H 0.95335 0.81736 0.73911 0.0
H887 H 0.89498 0.84774 0.75285 0.0
H888 H 0.86654 1.01008 0.74054 0.0
H889 H 0.89082 0.95021 0.75602 0.0
H890 H 0.03943 0.9769 0.64942 0.0
H891 H 0.05549 0.90912 0.66347 0.0
H892 H 0.95655 1.00948 0.64478 0.0
H893 H 0.90905 0.04937 0.65978 0.0
C894 C 0.05567 0.96528 0.8798 0.0
C895 C 0.0899 0.91884 0.88449 0.0
C896 C 0.98217 0.80661 0.86794 0.0
C897 C 0.9455 0.8509 0.86317 0.0
N898 N 0.9594 0.97802 0.85761 0.0
N899 N 0.0654 0.79132 0.8948 0.0
C900 C 0.98519 0.93227 0.86725 0.0
C901 C 0.04598 0.83779 0.88265 0.0
N902 N 0.09139 0.04041 0.88752 0.0
N903 N 0.95652 0.73547 0.858 0.0
H904 H 0.10939 0.81438 0.9072 0.0
H905 H 0.03142 0.73066 0.89458 0.0
H906 H 0.91442 0.71512 0.84517 0.0
H907 H 0.98444 0.70304 0.86028 0.0
H908 H 0.06749 0.07668 0.88613 0.0
H909 H 0.14155 0.06291 0.89757 0.0
H910 H 0.9885 0.03849 0.85913 0.0
H911 H 0.91501 0.95666 0.8454 0.0
loop_
_geom_bond_atom_site_label_1
_geom_bond_atom_site_label_2
_geom_bond_distance
_geom_bond_site_symmetry_2
_ccdc_geom_bond_type
Fe0 O2 1.918 1_556 S
Fe0 O5 1.997 1_556 S
Fe0 O6 2.003 . S
Fe0 O11 1.976 . S
Fe0 O14 1.996 . S
Fe1 O2 1.918 . S
Fe1 O9 1.997 . S
Fe1 O12 1.996 1_554 S
Fe1 O16 1.977 . S
Fe1 O19 2.002 . S
O2 Fe0 1.918 1_554 S
O2 Fe1 1.918 . S
O2 Fe3 1.918 . S
Fe3 O2 1.918 . S
Fe3 O4 2.002 . S
Fe3 O13 1.976 . S
Fe3 O17 1.996 . S
Fe3 O20 1.997 . S
O4 Fe3 2.002 . S
O4 C21 1.295 . S
O5 Fe0 1.997 1_554 S
O5 C21 1.235 . S
O6 Fe0 2.003 . S
O6 C7 1.293 1_556 S
C7 O6 1.293 1_554 S
C7 O9 1.235 . S
C8 O13 1.287 . S
C8 O14 1.255 1_554 S
O9 Fe1 1.997 . S
O9 C7 1.235 . S
C10 O16 1.293 . S
C10 O17 1.255 . S
O11 Fe0 1.976 . S
O11 C18 1.287 . S
O12 Fe1 1.996 1_556 S
O12 C18 1.255 . S
O13 Fe3 1.976 . S
O13 C8 1.287 . S
O14 Fe0 1.996 . S
O14 C8 1.255 1_556 S
C15 O19 1.295 . S
C15 O20 1.235 . S
O16 Fe1 1.977 . S
O16 C10 1.293 . S
O17 Fe3 1.996 . S
O17 C10 1.255 . S
C18 O11 1.287 . S
C18 O12 1.255 . S
O19 Fe1 2.002 . S
O19 C15 1.295 . S
O20 Fe3 1.997 . S
O20 C15 1.235 . S
C21 O4 1.295 . S
C21 O5 1.235 . S
Fe22 O24 1.918 . S
Fe22 O27 1.997 1_655 S
Fe22 O28 2.002 . S
Fe22 O33 1.976 . S
Fe22 O36 1.996 . S
Fe23 O24 1.918 . S
Fe23 O31 1.997 . S
Fe23 O34 1.996 . S
Fe23 O38 1.976 . S
Fe23 O41 2.002 . S
O24 Fe22 1.918 . S
O24 Fe23 1.918 . S
O24 Fe25 1.918 1_655 S
Fe25 O24 1.918 1_455 S
Fe25 O26 2.002 . S
Fe25 O35 1.976 . S
Fe25 O39 1.996 . S
Fe25 O42 1.997 . S
O26 Fe25 2.002 . S
O26 C43 1.295 . S
O27 Fe22 1.997 1_455 S
O27 C43 1.235 . S
O28 Fe22 2.002 . S
O28 C29 1.295 . S
C29 O28 1.295 . S
C29 O31 1.235 . S
C30 O35 1.287 . S
C30 O36 1.255 1_455 S
O31 Fe23 1.997 . S
O31 C29 1.235 . S
C32 O38 1.287 . S
C32 O39 1.255 1_655 S
O33 Fe22 1.976 . S
O33 C40 1.287 . S
O34 Fe23 1.996 . S
O34 C40 1.255 . S
O35 Fe25 1.976 . S
O35 C30 1.287 . S
O36 Fe22 1.996 . S
O36 C30 1.255 1_655 S
C37 O41 1.295 1_455 S
C37 O42 1.235 . S
O38 Fe23 1.976 . S
O38 C32 1.287 . S
O39 Fe25 1.996 . S
O39 C32 1.255 1_455 S
C40 O33 1.287 . S
C40 O34 1.255 . S
O41 Fe23 2.002 . S
O41 C37 1.295 1_655 S
O42 Fe25 1.997 . S
O42 C37 1.235 . S
C43 O26 1.295 . S
C43 O27 1.235 . S
Fe44 O46 1.918 . S
Fe44 O49 1.997 . S
Fe44 O50 2.002 . S
Fe44 O55 1.976 . S
Fe44 O58 1.996 . S
Fe45 O46 1.918 1_545 S
Fe45 O53 1.997 . S
Fe45 O56 1.996 . S
Fe45 O60 1.976 . S
Fe45 O63 2.002 . S
O46 Fe44 1.918 . S
O46 Fe45 1.918 1_565 S
O46 Fe47 1.918 . S
Fe47 O46 1.918 . S
Fe47 O48 2.002 . S
Fe47 O57 1.976 . S
Fe47 O61 1.996 . S
Fe47 O64 1.997 1_565 S
O48 Fe47 2.002 . S
O48 C65 1.295 . S
O49 Fe44 1.997 . S
O49 C65 1.235 . S
O50 Fe44 2.002 . S
O50 C51 1.295 1_565 S
C51 O50 1.295 1_545 S
C51 O53 1.235 . S
C52 O57 1.287 . S
C52 O58 1.255 . S
O53 Fe45 1.997 . S
O53 C51 1.235 . S
C54 O60 1.287 . S
C54 O61 1.255 1_545 S
O55 Fe44 1.976 . S
O55 C62 1.287 . S
O56 Fe45 1.996 . S
O56 C62 1.255 1_545 S
O57 Fe47 1.976 . S
O57 C52 1.287 . S
O58 Fe44 1.996 . S
O58 C52 1.255 . S
C59 O63 1.295 . S
C59 O64 1.235 . S
O60 Fe45 1.976 . S
O60 C54 1.287 . S
O61 Fe47 1.996 . S
O61 C54 1.255 1_565 S
C62 O55 1.287 . S
C62 O56 1.255 1_565 S
O63 Fe45 2.002 . S
O63 C59 1.295 . S
O64 Fe47 1.997 1_545 S
O64 C59 1.235 . S
C65 O48 1.295 . S
C65 O49 1.235 . S
Fe66 O68 1.918 . S
Fe66 O71 1.997 . S
Fe66 O72 2.002 . S
Fe66 O77 1.976 . S
Fe66 O80 1.996 . S
Fe67 O68 1.918 . S
Fe67 O75 1.997 . S
Fe67 O78 1.996 . S
Fe67 O82 1.976 . S
Fe67 O85 2.002 . S
O68 Fe66 1.918 . S
O68 Fe67 1.918 . S
O68 Fe69 1.918 . S
Fe69 O68 1.918 . S
Fe69 O70 2.002 . S
Fe69 O79 1.976 . S
Fe69 O83 1.996 . S
Fe69 O86 1.997 . S
O70 Fe69 2.002 . S
O70 C87 1.295 . S
O71 Fe66 1.997 . S
O71 C87 1.235 . S
O72 Fe66 2.002 . S
O72 C73 1.295 . S
C73 O72 1.295 . S
C73 O75 1.235 . S
C74 O79 1.287 . S
C74 O80 1.255 . S
O75 Fe67 1.997 . S
O75 C73 1.235 . S
C76 O82 1.287 . S
C76 O83 1.255 . S
O77 Fe66 1.976 . S
O77 C84 1.287 . S
O78 Fe67 1.996 . S
O78 C84 1.255 . S
O79 Fe69 1.976 . S
O79 C74 1.287 . S
O80 Fe66 1.996 . S
O80 C74 1.255 . S
C81 O85 1.295 . S
C81 O86 1.235 . S
O82 Fe67 1.976 . S
O82 C76 1.287 . S
O83 Fe69 1.996 . S
O83 C76 1.255 . S
C84 O77 1.287 . S
C84 O78 1.255 . S
O85 Fe67 2.002 . S
O85 C81 1.295 . S
O86 Fe69 1.997 . S
O86 C81 1.235 . S
C87 O70 1.295 . S
C87 O71 1.235 . S
Fe88 O90 1.918 . S
Fe88 O93 1.997 1_455 S
Fe88 O94 2.002 . S
Fe88 O99 1.976 . S
Fe88 O102 1.996 . S
Fe89 O90 1.918 . S
Fe89 O97 1.997 . S
Fe89 O100 1.996 . S
Fe89 O104 1.976 . S
Fe89 O107 2.002 . S
O90 Fe88 1.918 . S
O90 Fe89 1.918 . S
O90 Fe91 1.918 1_455 S
Fe91 O90 1.918 1_655 S
Fe91 O92 2.002 . S
Fe91 O101 1.976 . S
Fe91 O105 1.996 . S
Fe91 O108 1.997 . S
O92 Fe91 2.002 . S
O92 C109 1.295 . S
O93 Fe88 1.997 1_655 S
O93 C109 1.235 . S
O94 Fe88 2.002 . S
O94 C95 1.295 . S
C95 O94 1.295 . S
C95 O97 1.235 . S
C96 O101 1.287 . S
C96 O102 1.255 1_655 S
O97 Fe89 1.997 . S
O97 C95 1.235 . S
C98 O104 1.287 . S
C98 O105 1.255 1_455 S
O99 Fe88 1.976 . S
O99 C106 1.287 . S
O100 Fe89 1.996 . S
O100 C106 1.255 . S
O101 Fe91 1.976 . S
O101 C96 1.287 . S
O102 Fe88 1.996 . S
O102 C96 1.255 1_455 S
C103 O107 1.295 1_655 S
C103 O108 1.235 . S
O104 Fe89 1.976 . S
O104 C98 1.287 . S
O105 Fe91 1.996 . S
O105 C98 1.255 1_655 S
C106 O99 1.287 . S
C106 O100 1.255 . S
O107 Fe89 2.002 . S
O107 C103 1.295 1_455 S
O108 Fe91 1.997 . S
O108 C103 1.235 . S
C109 O92 1.295 . S
C109 O93 1.235 . S
Fe110 O112 1.918 . S
Fe110 O115 1.997 . S
Fe110 O116 2.002 . S
Fe110 O121 1.976 . S
Fe110 O124 1.996 . S
Fe111 O112 1.918 1_565 S
Fe111 O119 1.997 . S
Fe111 O122 1.996 . S
Fe111 O126 1.976 . S
Fe111 O129 2.002 . S
O112 Fe110 1.918 . S
O112 Fe111 1.918 1_545 S
O112 Fe113 1.918 . S
Fe113 O112 1.918 . S
Fe113 O114 2.002 . S
Fe113 O123 1.976 . S
Fe113 O127 1.996 . S
Fe113 O130 1.997 1_545 S
O114 Fe113 2.002 . S
O114 C131 1.295 . S
O115 Fe110 1.997 . S
O115 C131 1.235 . S
O116 Fe110 2.002 . S
O116 C117 1.295 1_545 S
C117 O116 1.295 1_565 S
C117 O119 1.235 . S
C118 O123 1.287 . S
C118 O124 1.255 . S
O119 Fe111 1.997 . S
O119 C117 1.235 . S
C120 O126 1.287 . S
C120 O127 1.255 1_565 S
O121 Fe110 1.976 . S
O121 C128 1.287 . S
O122 Fe111 1.996 . S
O122 C128 1.255 1_565 S
O123 Fe113 1.976 . S
O123 C118 1.287 . S
O124 Fe110 1.996 . S
O124 C118 1.255 . S
C125 O129 1.295 . S
C125 O130 1.235 . S
O126 Fe111 1.976 . S
O126 C120 1.287 . S
O127 Fe113 1.996 . S
O127 C120 1.255 1_545 S
C128 O121 1.287 . S
C128 O122 1.255 1_545 S
O129 Fe111 2.002 . S
O129 C125 1.295 . S
O130 Fe113 1.997 1_565 S
O130 C125 1.235 . S
C131 O114 1.295 . S
C131 O115 1.235 . S
Fe132 O134 1.918 . S
Fe132 O137 1.997 . S
Fe132 O138 2.002 . S
Fe132 O143 1.976 . S
Fe132 O146 1.996 . S
Fe133 O134 1.918 . S
Fe133 O141 1.997 . S
Fe133 O144 1.996 . S
Fe133 O148 1.976 . S
Fe133 O151 2.002 . S
O134 Fe132 1.918 . S
O134 Fe133 1.918 . S
O134 Fe135 1.918 . S
Fe135 O134 1.918 . S
Fe135 O136 2.002 . S
Fe135 O145 1.976 . S
Fe135 O149 1.996 . S
Fe135 O152 1.997 . S
O136 Fe135 2.002 . S
O136 C153 1.295 . S
O137 Fe132 1.997 . S
O137 C153 1.235 . S
O138 Fe132 2.002 . S
O138 C139 1.295 . S
C139 O138 1.295 . S
C139 O141 1.235 . S
C140 O145 1.287 . S
C140 O146 1.255 . S
O141 Fe133 1.997 . S
O141 C139 1.235 . S
C142 O148 1.287 . S
C142 O149 1.255 . S
O143 Fe132 1.976 . S
O143 C150 1.287 . S
O144 Fe133 1.996 . S
O144 C150 1.255 . S
O145 Fe135 1.976 . S
O145 C140 1.287 . S
O146 Fe132 1.996 . S
O146 C140 1.255 . S
C147 O151 1.295 . S
C147 O152 1.235 . S
O148 Fe133 1.976 . S
O148 C142 1.287 . S
O149 Fe135 1.996 . S
O149 C142 1.255 . S
C150 O143 1.287 . S
C150 O144 1.255 . S
O151 Fe133 2.002 . S
O151 C147 1.295 . S
O152 Fe135 1.997 . S
O152 C147 1.235 . S
C153 O136 1.295 . S
C153 O137 1.235 . S
Fe154 O156 1.918 1_455 S
Fe154 O159 1.997 . S
Fe154 O160 2.002 . S
Fe154 O165 1.976 . S
Fe154 O168 1.996 1_556 S
Fe155 O156 1.918 . S
Fe155 O163 1.997 1_655 S
Fe155 O166 1.996 . S
Fe155 O170 1.976 . S
Fe155 O173 2.002 . S
O156 Fe154 1.918 1_655 S
O156 Fe155 1.918 . S
O156 Fe157 1.909 1_556 S
Fe157 O156 1.909 1_554 S
Fe157 O158 2.001 1_554 S
Fe157 O167 1.997 . S
Fe157 O171 1.999 . S
Fe157 O174 1.977 1_554 S
O158 Fe157 2.001 1_556 S
O158 C175 1.295 1_655 S
O159 Fe154 1.997 . S
O159 C175 1.235 . S
O160 Fe154 2.002 . S
O160 C161 1.295 . S
C161 O160 1.295 . S
C161 O163 1.235 . S
C162 O167 1.287 . S
C162 O168 1.255 1_655 S
O163 Fe155 1.997 1_455 S
O163 C161 1.235 . S
C164 O170 1.287 . S
C164 O171 1.255 1_556 S
O165 Fe154 1.976 . S
O165 C172 1.287 . S
O166 Fe155 1.996 . S
O166 C172 1.255 1_655 S
O167 Fe157 1.997 . S
O167 C162 1.287 . S
O168 Fe154 1.996 1_554 S
O168 C162 1.255 1_455 S
C169 O173 1.295 . S
C169 O174 1.235 . S
O170 Fe155 1.976 . S
O170 C164 1.287 . S
O171 Fe157 1.999 . S
O171 C164 1.255 1_554 S
C172 O165 1.287 . S
C172 O166 1.255 1_455 S
O173 Fe155 2.002 . S
O173 C169 1.295 . S
O174 Fe157 1.977 1_556 S
O174 C169 1.235 . S
C175 O158 1.295 1_455 S
C175 O159 1.235 . S
Fe176 O178 1.918 1_545 S
Fe176 O181 1.997 . S
Fe176 O182 2.002 . S
Fe176 O187 1.976 . S
Fe176 O190 1.996 . S
Fe177 O178 1.918 . S
Fe177 O185 1.997 1_565 S
Fe177 O188 1.996 . S
Fe177 O192 1.976 . S
Fe177 O195 2.002 . S
O178 Fe176 1.918 1_565 S
O178 Fe177 1.918 . S
O178 Fe179 1.918 . S
Fe179 O178 1.918 . S
Fe179 O180 2.002 . S
Fe179 O189 1.976 . S
Fe179 O193 1.996 . S
Fe179 O196 1.997 . S
O180 Fe179 2.002 . S
O180 C197 1.295 1_565 S
O181 Fe176 1.997 . S
O181 C197 1.235 . S
O182 Fe176 2.002 . S
O182 C183 1.295 . S
C183 O182 1.295 . S
C183 O185 1.235 . S
C184 O189 1.287 . S
C184 O190 1.255 1_565 S
O185 Fe177 1.997 1_545 S
O185 C183 1.235 . S
C186 O192 1.287 . S
C186 O193 1.255 . S
O187 Fe176 1.976 . S
O187 C194 1.287 . S
O188 Fe177 1.996 . S
O188 C194 1.255 1_565 S
O189 Fe179 1.976 . S
O189 C184 1.287 . S
O190 Fe176 1.996 . S
O190 C184 1.255 1_545 S
C191 O195 1.295 . S
C191 O196 1.235 . S
O192 Fe177 1.976 . S
O192 C186 1.287 . S
O193 Fe179 1.996 . S
O193 C186 1.255 . S
C194 O187 1.287 . S
C194 O188 1.255 1_545 S
O195 Fe177 2.002 . S
O195 C191 1.295 . S
O196 Fe179 1.997 . S
O196 C191 1.235 . S
C197 O180 1.295 1_545 S
C197 O181 1.235 . S
Fe198 O200 1.918 . S
Fe198 O203 1.997 . S
Fe198 O204 2.002 . S
Fe198 O209 1.976 . S
Fe198 O212 1.996 . S
Fe199 O200 1.918 . S
Fe199 O207 1.997 . S
Fe199 O210 1.996 . S
Fe199 O214 1.976 . S
Fe199 O217 2.002 . S
O200 Fe198 1.918 . S
O200 Fe199 1.918 . S
O200 Fe201 1.918 . S
Fe201 O200 1.918 . S
Fe201 O202 2.002 . S
Fe201 O211 1.976 . S
Fe201 O215 1.996 . S
Fe201 O218 1.997 . S
O202 Fe201 2.002 . S
O202 C219 1.295 . S
O203 Fe198 1.997 . S
O203 C219 1.235 . S
O204 Fe198 2.002 . S
O204 C205 1.295 . S
C205 O204 1.295 . S
C205 O207 1.235 . S
C206 O211 1.287 . S
C206 O212 1.255 . S
O207 Fe199 1.997 . S
O207 C205 1.235 . S
C208 O214 1.287 . S
C208 O215 1.255 . S
O209 Fe198 1.976 . S
O209 C216 1.287 . S
O210 Fe199 1.996 . S
O210 C216 1.255 . S
O211 Fe201 1.976 . S
O211 C206 1.287 . S
O212 Fe198 1.996 . S
O212 C206 1.255 . S
C213 O217 1.295 . S
C213 O218 1.235 . S
O214 Fe199 1.976 . S
O214 C208 1.287 . S
O215 Fe201 1.996 . S
O215 C208 1.255 . S
C216 O209 1.287 . S
C216 O210 1.255 . S
O217 Fe199 2.002 . S
O217 C213 1.295 . S
O218 Fe201 1.997 . S
O218 C213 1.235 . S
C219 O202 1.295 . S
C219 O203 1.235 . S
Fe220 O222 1.918 . S
Fe220 O225 1.997 1_455 S
Fe220 O226 2.002 . S
Fe220 O231 1.976 . S
Fe220 O234 1.996 . S
Fe221 O222 1.918 . S
Fe221 O229 1.997 . S
Fe221 O232 1.996 . S
Fe221 O236 1.976 . S
Fe221 O239 2.002 . S
O222 Fe220 1.918 . S
O222 Fe221 1.918 . S
O222 Fe223 1.918 1_455 S
Fe223 O222 1.918 1_655 S
Fe223 O224 2.002 . S
Fe223 O233 1.976 . S
Fe223 O237 1.996 . S
Fe223 O240 1.997 . S
O224 Fe223 2.002 . S
O224 C241 1.295 . S
O225 Fe220 1.997 1_655 S
O225 C241 1.235 . S
O226 Fe220 2.002 . S
O226 C227 1.295 . S
C227 O226 1.295 . S
C227 O229 1.235 . S
C228 O233 1.287 . S
C228 O234 1.255 1_655 S
O229 Fe221 1.997 . S
O229 C227 1.235 . S
C230 O236 1.287 . S
C230 O237 1.255 1_455 S
O231 Fe220 1.976 . S
O231 C238 1.287 . S
O232 Fe221 1.996 . S
O232 C238 1.255 . S
O233 Fe223 1.976 . S
O233 C228 1.287 . S
O234 Fe220 1.996 . S
O234 C228 1.255 1_455 S
C235 O239 1.295 1_655 S
C235 O240 1.235 . S
O236 Fe221 1.976 . S
O236 C230 1.287 . S
O237 Fe223 1.996 . S
O237 C230 1.255 1_655 S
C238 O231 1.287 . S
C238 O232 1.255 . S
O239 Fe221 2.002 . S
O239 C235 1.295 1_455 S
O240 Fe223 1.997 . S
O240 C235 1.235 . S
C241 O224 1.295 . S
C241 O225 1.235 . S
Fe242 O244 1.918 1_565 S
Fe242 O247 1.997 . S
Fe242 O248 2.002 . S
Fe242 O253 1.976 . S
Fe242 O256 1.996 . S
Fe243 O244 1.918 . S
Fe243 O251 1.997 1_545 S
Fe243 O254 1.996 . S
Fe243 O258 1.976 . S
Fe243 O261 2.002 . S
O244 Fe242 1.918 1_545 S
O244 Fe243 1.918 . S
O244 Fe245 1.918 . S
Fe245 O244 1.918 . S
Fe245 O246 2.002 . S
Fe245 O255 1.976 . S
Fe245 O259 1.996 . S
Fe245 O262 1.997 . S
O246 Fe245 2.002 . S
O246 C263 1.295 1_545 S
O247 Fe242 1.997 . S
O247 C263 1.235 . S
O248 Fe242 2.002 . S
O248 C249 1.295 . S
C249 O248 1.295 . S
C249 O251 1.235 . S
C250 O255 1.287 . S
C250 O256 1.255 1_545 S
O251 Fe243 1.997 1_565 S
O251 C249 1.235 . S
C252 O258 1.287 . S
C252 O259 1.255 . S
O253 Fe242 1.976 . S
O253 C260 1.287 . S
O254 Fe243 1.996 . S
O254 C260 1.255 1_545 S
O255 Fe245 1.976 . S
O255 C250 1.287 . S
O256 Fe242 1.996 . S
O256 C250 1.255 1_565 S
C257 O261 1.295 . S
C257 O262 1.235 . S
O258 Fe243 1.976 . S
O258 C252 1.287 . S
O259 Fe245 1.996 . S
O259 C252 1.255 . S
C260 O253 1.287 . S
C260 O254 1.255 1_565 S
O261 Fe243 2.002 . S
O261 C257 1.295 . S
O262 Fe245 1.997 . S
O262 C257 1.235 . S
C263 O246 1.295 1_565 S
C263 O247 1.235 . S
C264 C265 1.363 1_556 S
C264 C270 1.379 . S
C264 N272 1.356 . S
C265 C264 1.363 1_554 S
C265 C271 1.363 . S
C266 C267 1.363 . S
C266 C271 1.379 . S
C266 N273 1.356 . S
C267 C266 1.363 . S
C267 C270 1.363 1_554 S
N268 C270 1.356 . S
N268 H280 0.984 . S
N268 H281 0.985 . S
N269 C271 1.356 . S
N269 H274 0.984 . S
N269 H275 0.985 . S
C270 C264 1.379 . S
C270 C267 1.363 1_556 S
C270 N268 1.356 . S
C271 C265 1.363 . S
C271 C266 1.379 . S
C271 N269 1.356 . S
N272 C264 1.356 . S
N272 H278 0.984 . S
N272 H279 0.984 . S
N273 C266 1.356 . S
N273 H276 0.984 . S
N273 H277 0.985 . S
H274 N269 0.984 . S
H275 N269 0.985 . S
H276 N273 0.984 . S
H277 N273 0.985 . S
H278 N272 0.984 . S
H279 N272 0.984 . S
H280 N268 0.984 . S
H281 N268 0.985 . S
C282 C283 1.363 . S
C282 C288 1.379 . S
C282 N290 1.356 . S
C283 C282 1.363 . S
C283 C289 1.363 . S
C284 C285 1.363 . S
C284 C289 1.379 . S
C284 N291 1.356 . S
C285 C284 1.363 . S
C285 C288 1.363 . S
N286 C288 1.356 . S
N286 H298 0.984 . S
N286 H299 0.985 . S
N287 C289 1.356 . S
N287 H292 0.984 . S
N287 H293 0.985 . S
C288 C282 1.379 . S
C288 C285 1.363 . S
C288 N286 1.356 . S
C289 C283 1.363 . S
C289 C284 1.379 . S
C289 N287 1.356 . S
N290 C282 1.356 . S
N290 H296 0.984 . S
N290 H297 0.984 . S
N291 C284 1.356 . S
N291 H294 0.984 1_455 S
N291 H295 0.985 1_455 S
H292 N287 0.984 . S
H293 N287 0.985 . S
H294 N291 0.984 1_655 S
H295 N291 0.985 1_655 S
H296 N290 0.984 . S
H297 N290 0.984 . S
H298 N286 0.984 . S
H299 N286 0.985 . S
C300 C301 1.363 . S
C300 C306 1.379 . S
C300 N308 1.356 . S
C301 C300 1.363 . S
C301 C307 1.363 . S
C302 C303 1.363 . S
C302 C307 1.379 . S
C302 N309 1.356 . S
C303 C302 1.363 . S
C303 C306 1.363 . S
N304 C306 1.356 . S
N304 H316 0.984 . S
N304 H317 0.985 . S
N305 C307 1.356 . S
N305 H310 0.984 . S
N305 H311 0.985 . S
C306 C300 1.379 . S
C306 C303 1.363 . S
C306 N304 1.356 . S
C307 C301 1.363 . S
C307 C302 1.379 . S
C307 N305 1.356 . S
N308 C300 1.356 . S
N308 H314 0.984 . S
N308 H315 0.984 . S
N309 C302 1.356 . S
N309 H312 0.984 1_545 S
N309 H313 0.985 1_545 S
H310 N305 0.984 . S
H311 N305 0.985 . S
H312 N309 0.984 1_565 S
H313 N309 0.985 1_565 S
H314 N308 0.984 . S
H315 N308 0.984 . S
H316 N304 0.984 . S
H317 N304 0.985 . S
C318 C319 1.363 . S
C318 C324 1.379 . S
C318 N326 1.356 . S
C319 C318 1.363 . S
C319 C325 1.363 . S
C320 C321 1.363 . S
C320 C325 1.379 . S
C320 N327 1.356 . S
C321 C320 1.363 . S
C321 C324 1.363 . S
N322 C324 1.356 . S
N322 H334 0.984 . S
N322 H335 0.985 . S
N323 C325 1.356 . S
N323 H328 0.984 . S
N323 H329 0.985 . S
C324 C318 1.379 . S
C324 C321 1.363 . S
C324 N322 1.356 . S
C325 C319 1.363 . S
C325 C320 1.379 . S
C325 N323 1.356 . S
N326 C318 1.356 . S
N326 H332 0.984 . S
N326 H333 0.984 . S
N327 C320 1.356 . S
N327 H330 0.984 . S
N327 H331 0.985 . S
H328 N323 0.984 . S
H329 N323 0.985 . S
H330 N327 0.984 . S
H331 N327 0.985 . S
H332 N326 0.984 . S
H333 N326 0.984 . S
H334 N322 0.984 . S
H335 N322 0.985 . S
C336 C337 1.363 . S
C336 C342 1.379 . S
C336 N344 1.356 . S
C337 C336 1.363 . S
C337 C343 1.363 . S
C338 C339 1.363 . S
C338 C343 1.379 . S
C338 N345 1.356 . S
C339 C338 1.363 . S
C339 C342 1.363 . S
N340 C342 1.356 . S
N340 H352 0.984 1_655 S
N340 H353 0.985 1_655 S
N341 C343 1.356 . S
N341 H346 0.984 . S
N341 H347 0.985 . S
C342 C336 1.379 . S
C342 C339 1.363 . S
C342 N340 1.356 . S
C343 C337 1.363 . S
C343 C338 1.379 . S
C343 N341 1.356 . S
N344 C336 1.356 . S
N344 H350 0.984 . S
N344 H351 0.984 . S
N345 C338 1.356 . S
N345 H348 0.984 . S
N345 H349 0.985 . S
H346 N341 0.984 . S
H347 N341 0.985 . S
H348 N345 0.984 . S
H349 N345 0.985 . S
H350 N344 0.984 . S
H351 N344 0.984 . S
H352 N340 0.984 1_455 S
H353 N340 0.985 1_455 S
C354 C355 1.363 . S
C354 C360 1.379 . S
C354 N362 1.356 . S
C355 C354 1.363 . S
C355 C361 1.363 . S
C356 C357 1.363 . S
C356 C361 1.379 . S
C356 N363 1.356 . S
C357 C356 1.363 . S
C357 C360 1.363 . S
N358 C360 1.356 1_545 S
N358 H370 0.984 . S
N358 H371 0.985 . S
N359 C361 1.356 . S
N359 H364 0.984 . S
N359 H365 0.985 . S
C360 C354 1.379 . S
C360 C357 1.363 . S
C360 N358 1.356 1_565 S
C361 C355 1.363 . S
C361 C356 1.379 . S
C361 N359 1.356 . S
N362 C354 1.356 . S
N362 H368 0.984 . S
N362 H369 0.984 . S
N363 C356 1.356 . S
N363 H366 0.984 . S
N363 H367 0.985 . S
H364 N359 0.984 . S
H365 N359 0.985 . S
H366 N363 0.984 . S
H367 N363 0.985 . S
H368 N362 0.984 . S
H369 N362 0.984 . S
H370 N358 0.984 . S
H371 N358 0.985 . S
C372 C373 1.363 . S
C372 C378 1.379 . S
C372 N380 1.356 . S
C373 C372 1.363 . S
C373 C379 1.363 . S
C374 C375 1.363 . S
C374 C379 1.379 . S
C374 N381 1.356 . S
C375 C374 1.363 . S
C375 C378 1.363 . S
N376 C378 1.356 . S
N376 H388 0.984 . S
N376 H389 0.985 . S
N377 C379 1.356 . S
N377 H382 0.984 . S
N377 H383 0.985 . S
C378 C372 1.379 . S
C378 C375 1.363 . S
C378 N376 1.356 . S
C379 C373 1.363 . S
C379 C374 1.379 . S
C379 N377 1.356 . S
N380 C372 1.356 . S
N380 H386 0.984 . S
N380 H387 0.984 . S
N381 C374 1.356 . S
N381 H384 0.984 . S
N381 H385 0.985 . S
H382 N377 0.984 . S
H383 N377 0.985 . S
H384 N381 0.984 . S
H385 N381 0.985 . S
H386 N380 0.984 . S
H387 N380 0.984 . S
H388 N376 0.984 . S
H389 N376 0.985 . S
C390 C391 1.363 1_554 S
C390 C396 1.379 . S
C390 N398 1.356 . S
C391 C390 1.363 1_556 S
C391 C397 1.363 . S
C392 C393 1.363 . S
C392 C397 1.379 . S
C392 N399 1.356 . S
C393 C392 1.363 . S
C393 C396 1.363 1_556 S
N394 C396 1.356 . S
N394 H406 0.984 . S
N394 H407 0.985 . S
N395 C397 1.356 . S
N395 H400 0.984 1_455 S
N395 H401 0.985 1_455 S
C396 C390 1.379 . S
C396 C393 1.363 1_554 S
C396 N394 1.356 . S
C397 C391 1.363 . S
C397 C392 1.379 . S
C397 N395 1.356 . S
N398 C390 1.356 . S
N398 H404 0.984 . S
N398 H405 0.984 . S
N399 C392 1.356 . S
N399 H402 0.984 . S
N399 H403 0.985 . S
H400 N395 0.984 1_655 S
H401 N395 0.985 1_655 S
H402 N399 0.984 . S
H403 N399 0.985 . S
H404 N398 0.984 . S
H405 N398 0.984 . S
H406 N394 0.984 . S
H407 N394 0.985 . S
C408 C409 1.363 . S
C408 C414 1.379 . S
C408 N416 1.356 . S
C409 C408 1.363 . S
C409 C415 1.363 . S
C410 C411 1.363 . S
C410 C415 1.379 . S
C410 N417 1.356 . S
C411 C410 1.363 . S
C411 C414 1.363 . S
N412 C414 1.356 . S
N412 H424 0.984 . S
N412 H425 0.985 . S
N413 C415 1.356 . S
N413 H418 0.984 1_545 S
N413 H419 0.985 1_545 S
C414 C408 1.379 . S
C414 C411 1.363 . S
C414 N412 1.356 . S
C415 C409 1.363 . S
C415 C410 1.379 . S
C415 N413 1.356 . S
N416 C408 1.356 . S
N416 H422 0.984 . S
N416 H423 0.984 . S
N417 C410 1.356 . S
N417 H420 0.984 . S
N417 H421 0.985 . S
H418 N413 0.984 1_565 S
H419 N413 0.985 1_565 S
H420 N417 0.984 . S
H421 N417 0.985 . S
H422 N416 0.984 . S
H423 N416 0.984 . S
H424 N412 0.984 . S
H425 N412 0.985 . S
C426 C427 1.363 . S
C426 C432 1.379 . S
C426 N434 1.356 . S
C427 C426 1.363 . S
C427 C433 1.363 . S
C428 C429 1.363 . S
C428 C433 1.379 . S
C428 N435 1.356 . S
C429 C428 1.363 . S
C429 C432 1.363 . S
N430 C432 1.356 . S
N430 H442 0.984 . S
N430 H443 0.985 . S
N431 C433 1.356 . S
N431 H436 0.984 . S
N431 H437 0.985 . S
C432 C426 1.379 . S
C432 C429 1.363 . S
C432 N430 1.356 . S
C433 C427 1.363 . S
C433 C428 1.379 . S
C433 N431 1.356 . S
N434 C426 1.356 . S
N434 H440 0.984 . S
N434 H441 0.984 . S
N435 C428 1.356 . S
N435 H438 0.984 . S
N435 H439 0.985 . S
H436 N431 0.984 . S
H437 N431 0.985 . S
H438 N435 0.984 . S
H439 N435 0.985 . S
H440 N434 0.984 . S
H441 N434 0.984 . S
H442 N430 0.984 . S
H443 N430 0.985 . S
C444 C445 1.363 . S
C444 C450 1.379 . S
C444 N452 1.356 . S
C445 C444 1.363 . S
C445 C451 1.363 . S
C446 C447 1.363 . S
C446 C451 1.379 . S
C446 N453 1.356 . S
C447 C446 1.363 . S
C447 C450 1.363 . S
N448 C450 1.356 . S
N448 H460 0.984 . S
N448 H461 0.985 . S
N449 C451 1.356 . S
N449 H454 0.984 1_655 S
N449 H455 0.985 1_655 S
C450 C444 1.379 . S
C450 C447 1.363 . S
C450 N448 1.356 . S
C451 C445 1.363 . S
C451 C446 1.379 . S
C451 N449 1.356 . S
N452 C444 1.356 . S
N452 H458 0.984 . S
N452 H459 0.984 . S
N453 C446 1.356 . S
N453 H456 0.984 . S
N453 H457 0.985 . S
H454 N449 0.984 1_455 S
H455 N449 0.985 1_455 S
H456 N453 0.984 . S
H457 N453 0.985 . S
H458 N452 0.984 . S
H459 N452 0.984 . S
H460 N448 0.984 . S
H461 N448 0.985 . S
C462 C463 1.363 . S
C462 C468 1.379 . S
C462 N470 1.356 . S
C463 C462 1.363 . S
C463 C469 1.363 . S
C464 C465 1.363 . S
C464 C469 1.379 . S
C464 N471 1.356 . S
C465 C464 1.363 . S
C465 C468 1.363 . S
N466 C468 1.356 . S
N466 H478 0.984 . S
N466 H479 0.985 . S
N467 C469 1.356 . S
N467 H472 0.984 . S
N467 H473 0.985 . S
C468 C462 1.379 . S
C468 C465 1.363 . S
C468 N466 1.356 . S
C469 C463 1.363 . S
C469 C464 1.379 . S
C469 N467 1.356 . S
N470 C462 1.356 . S
N470 H476 0.984 1_565 S
N470 H477 0.984 1_565 S
N471 C464 1.356 . S
N471 H474 0.984 . S
N471 H475 0.985 . S
H472 N467 0.984 . S
H473 N467 0.985 . S
H474 N471 0.984 . S
H475 N471 0.985 . S
H476 N470 0.984 1_545 S
H477 N470 0.984 1_545 S
H478 N466 0.984 . S
H479 N466 0.985 . S
C480 C481 1.363 . S
C480 C486 1.379 . S
C480 N488 1.356 . S
C481 C480 1.363 . S
C481 C487 1.363 . S
C482 C483 1.363 . S
C482 C487 1.379 . S
C482 N489 1.356 . S
C483 C482 1.363 . S
C483 C486 1.363 . S
N484 C486 1.356 . S
N484 H496 0.984 . S
N484 H497 0.985 . S
N485 C487 1.356 . S
N485 H490 0.984 . S
N485 H491 0.985 . S
C486 C480 1.379 . S
C486 C483 1.363 . S
C486 N484 1.356 . S
C487 C481 1.363 . S
C487 C482 1.379 . S
C487 N485 1.356 . S
N488 C480 1.356 . S
N488 H494 0.984 . S
N488 H495 0.984 . S
N489 C482 1.356 . S
N489 H492 0.984 . S
N489 H493 0.985 . S
H490 N485 0.984 . S
H491 N485 0.985 . S
H492 N489 0.984 . S
H493 N489 0.985 . S
H494 N488 0.984 . S
H495 N488 0.984 . S
H496 N484 0.984 . S
H497 N484 0.985 . S
C498 C499 1.363 . S
C498 C504 1.379 . S
C498 N506 1.356 1_455 S
C499 C498 1.363 . S
C499 C505 1.363 . S
C500 C501 1.363 . S
C500 C505 1.379 . S
C500 N507 1.356 . S
C501 C500 1.363 . S
C501 C504 1.363 . S
N502 C504 1.356 . S
N502 H514 0.984 . S
N502 H515 0.985 . S
N503 C505 1.356 . S
N503 H508 0.984 1_455 S
N503 H509 0.985 . S
C504 C498 1.379 . S
C504 C501 1.363 . S
C504 N502 1.356 . S
C505 C499 1.363 . S
C505 C500 1.379 . S
C505 N503 1.356 . S
N506 C498 1.356 1_655 S
N506 H512 0.984 . S
N506 H513 0.984 . S
N507 C500 1.356 . S
N507 H510 0.984 . S
N507 H511 0.985 . S
H508 N503 0.984 1_655 S
H509 N503 0.985 . S
H510 N507 0.984 . S
H511 N507 0.985 . S
H512 N506 0.984 . S
H513 N506 0.984 . S
H514 N502 0.984 . S
H515 N502 0.985 . S
C516 C517 1.363 . S
C516 C522 1.379 1_545 S
C516 N524 1.356 1_545 S
C517 C516 1.363 . S
C517 C523 1.363 . S
C518 C519 1.363 . S
C518 C523 1.379 . S
C518 N525 1.356 . S
C519 C518 1.363 . S
C519 C522 1.363 1_545 S
N520 C522 1.356 . S
N520 H532 0.984 . S
N520 H533 0.985 . S
N521 C523 1.356 . S
N521 H526 0.984 . S
N521 H527 0.985 . S
C522 C516 1.379 1_565 S
C522 C519 1.363 1_565 S
C522 N520 1.356 . S
C523 C517 1.363 . S
C523 C518 1.379 . S
C523 N521 1.356 . S
N524 C516 1.356 1_565 S
N524 H530 0.984 . S
N524 H531 0.984 1_565 S
N525 C518 1.356 . S
N525 H528 0.984 . S
N525 H529 0.985 . S
H526 N521 0.984 . S
H527 N521 0.985 . S
H528 N525 0.984 . S
H529 N525 0.985 . S
H530 N524 0.984 . S
H531 N524 0.984 1_545 S
H532 N520 0.984 . S
H533 N520 0.985 . S
C534 C535 1.363 . S
C534 C540 1.379 . S
C534 N542 1.356 . S
C535 C534 1.363 . S
C535 C541 1.363 . S
C536 C537 1.363 . S
C536 C541 1.379 . S
C536 N543 1.356 . S
C537 C536 1.363 . S
C537 C540 1.363 . S
N538 C540 1.356 . S
N538 H550 0.984 . S
N538 H551 0.985 . S
N539 C541 1.356 . S
N539 H544 0.984 . S
N539 H545 0.985 . S
C540 C534 1.379 . S
C540 C537 1.363 . S
C540 N538 1.356 . S
C541 C535 1.363 . S
C541 C536 1.379 . S
C541 N539 1.356 . S
N542 C534 1.356 . S
N542 H548 0.984 . S
N542 H549 0.984 . S
N543 C536 1.356 . S
N543 H546 0.984 . S
N543 H547 0.985 . S
H544 N539 0.984 . S
H545 N539 0.985 . S
H546 N543 0.984 . S
H547 N543 0.985 . S
H548 N542 0.984 . S
H549 N542 0.984 . S
H550 N538 0.984 . S
H551 N538 0.985 . S
C552 C553 1.363 . S
C552 C558 1.379 1_655 S
C552 N560 1.356 1_655 S
C553 C552 1.363 . S
C553 C559 1.363 . S
C554 C555 1.363 . S
C554 C559 1.379 . S
C554 N561 1.356 . S
C555 C554 1.363 . S
C555 C558 1.363 1_655 S
N556 C558 1.356 . S
N556 H568 0.984 . S
N556 H569 0.985 . S
N557 C559 1.356 . S
N557 H562 0.984 . S
N557 H563 0.985 . S
C558 C552 1.379 1_455 S
C558 C555 1.363 1_455 S
C558 N556 1.356 . S
C559 C553 1.363 . S
C559 C554 1.379 . S
C559 N557 1.356 . S
N560 C552 1.356 1_455 S
N560 H566 0.984 . S
N560 H567 0.984 1_455 S
N561 C554 1.356 . S
N561 H564 0.984 . S
N561 H565 0.985 . S
H562 N557 0.984 . S
H563 N557 0.985 . S
H564 N561 0.984 . S
H565 N561 0.985 . S
H566 N560 0.984 . S
H567 N560 0.984 1_655 S
H568 N556 0.984 . S
H569 N556 0.985 . S
C570 C571 1.363 1_545 S
C570 C576 1.379 1_545 S
C570 N578 1.356 . S
C571 C570 1.363 1_565 S
C571 C577 1.363 . S
C572 C573 1.363 . S
C572 C577 1.379 . S
C572 N579 1.356 . S
C573 C572 1.363 . S
C573 C576 1.363 . S
N574 C576 1.356 1_545 S
N574 H586 0.984 . S
N574 H587 0.985 1_545 S
N575 C577 1.356 . S
N575 H580 0.984 . S
N575 H581 0.985 . S
C576 C570 1.379 1_565 S
C576 C573 1.363 . S
C576 N574 1.356 1_565 S
C577 C571 1.363 . S
C577 C572 1.379 . S
C577 N575 1.356 . S
N578 C570 1.356 . S
N578 H584 0.984 . S
N578 H585 0.984 . S
N579 C572 1.356 . S
N579 H582 0.984 . S
N579 H583 0.985 . S
H580 N575 0.984 . S
H581 N575 0.985 . S
H582 N579 0.984 . S
H583 N579 0.985 . S
H584 N578 0.984 . S
H585 N578 0.984 . S
H586 N574 0.984 . S
H587 N574 0.985 1_565 S
C588 C589 1.363 . S
C588 C594 1.379 . S
C588 N596 1.356 . S
C589 C588 1.363 . S
C589 C595 1.363 . S
C590 C591 1.363 . S
C590 C595 1.379 . S
C590 N597 1.356 . S
C591 C590 1.363 . S
C591 C594 1.363 . S
N592 C594 1.356 . S
N592 H604 0.984 . S
N592 H605 0.985 . S
N593 C595 1.356 . S
N593 H598 0.984 . S
N593 H599 0.985 . S
C594 C588 1.379 . S
C594 C591 1.363 . S
C594 N592 1.356 . S
C595 C589 1.363 . S
C595 C590 1.379 . S
C595 N593 1.356 . S
N596 C588 1.356 . S
N596 H602 0.984 . S
N596 H603 0.984 . S
N597 C590 1.356 . S
N597 H600 0.984 . S
N597 H601 0.985 . S
H598 N593 0.984 . S
H599 N593 0.985 . S
H600 N597 0.984 . S
H601 N597 0.985 . S
H602 N596 0.984 . S
H603 N596 0.984 . S
H604 N592 0.984 . S
H605 N592 0.985 . S
C606 C607 1.363 1_655 S
C606 C612 1.379 1_655 S
C606 N614 1.356 . S
C607 C606 1.363 1_455 S
C607 C613 1.363 . S
C608 C609 1.363 . S
C608 C613 1.379 . S
C608 N615 1.356 . S
C609 C608 1.363 . S
C609 C612 1.363 . S
N610 C612 1.356 1_655 S
N610 H622 0.984 . S
N610 H623 0.985 1_655 S
N611 C613 1.356 . S
N611 H616 0.984 . S
N611 H617 0.985 . S
C612 C606 1.379 1_455 S
C612 C609 1.363 . S
C612 N610 1.356 1_455 S
C613 C607 1.363 . S
C613 C608 1.379 . S
C613 N611 1.356 . S
N614 C606 1.356 . S
N614 H620 0.984 . S
N614 H621 0.984 . S
N615 C608 1.356 . S
N615 H618 0.984 . S
N615 H619 0.985 . S
H616 N611 0.984 . S
H617 N611 0.985 . S
H618 N615 0.984 . S
H619 N615 0.985 . S
H620 N614 0.984 . S
H621 N614 0.984 . S
H622 N610 0.984 . S
H623 N610 0.985 1_455 S
C624 C625 1.363 1_565 S
C624 C630 1.379 1_565 S
C624 N632 1.356 . S
C625 C624 1.363 1_545 S
C625 C631 1.363 . S
C626 C627 1.363 . S
C626 C631 1.379 . S
C626 N633 1.356 . S
C627 C626 1.363 . S
C627 C630 1.363 . S
N628 C630 1.356 . S
N628 H640 0.984 1_545 S
N628 H641 0.985 . S
N629 C631 1.356 . S
N629 H634 0.984 . S
N629 H635 0.985 . S
C630 C624 1.379 1_545 S
C630 C627 1.363 . S
C630 N628 1.356 . S
C631 C625 1.363 . S
C631 C626 1.379 . S
C631 N629 1.356 . S
N632 C624 1.356 . S
N632 H638 0.984 . S
N632 H639 0.984 . S
N633 C626 1.356 . S
N633 H636 0.984 . S
N633 H637 0.985 . S
H634 N629 0.984 . S
H635 N629 0.985 . S
H636 N633 0.984 . S
H637 N633 0.985 . S
H638 N632 0.984 . S
H639 N632 0.984 . S
H640 N628 0.984 1_565 S
H641 N628 0.985 . S
C642 C643 1.363 . S
C642 C648 1.379 . S
C642 N650 1.356 . S
C643 C642 1.363 . S
C643 C649 1.363 . S
C644 C645 1.363 . S
C644 C649 1.379 . S
C644 N651 1.356 . S
C645 C644 1.363 . S
C645 C648 1.363 . S
N646 C648 1.356 . S
N646 H658 0.984 . S
N646 H659 0.985 . S
N647 C649 1.356 . S
N647 H652 0.984 . S
N647 H653 0.985 . S
C648 C642 1.379 . S
C648 C645 1.363 . S
C648 N646 1.356 . S
C649 C643 1.363 . S
C649 C644 1.379 . S
C649 N647 1.356 . S
N650 C642 1.356 . S
N650 H656 0.984 . S
N650 H657 0.984 . S
N651 C644 1.356 . S
N651 H654 0.984 . S
N651 H655 0.985 . S
H652 N647 0.984 . S
H653 N647 0.985 . S
H654 N651 0.984 . S
H655 N651 0.985 . S
H656 N650 0.984 . S
H657 N650 0.984 . S
H658 N646 0.984 . S
H659 N646 0.985 . S
C660 C661 1.363 1_455 S
C660 C666 1.379 1_455 S
C660 N668 1.356 . S
C661 C660 1.363 1_655 S
C661 C667 1.363 . S
C662 C663 1.363 . S
C662 C667 1.379 . S
C662 N669 1.356 . S
C663 C662 1.363 . S
C663 C666 1.363 . S
N664 C666 1.356 1_455 S
N664 H676 0.984 . S
N664 H677 0.985 1_455 S
N665 C667 1.356 . S
N665 H670 0.984 . S
N665 H671 0.985 . S
C666 C660 1.379 1_655 S
C666 C663 1.363 . S
C666 N664 1.356 1_655 S
C667 C661 1.363 . S
C667 C662 1.379 . S
C667 N665 1.356 . S
N668 C660 1.356 . S
N668 H674 0.984 . S
N668 H675 0.984 . S
N669 C662 1.356 . S
N669 H672 0.984 . S
N669 H673 0.985 . S
H670 N665 0.984 . S
H671 N665 0.985 . S
H672 N669 0.984 . S
H673 N669 0.985 . S
H674 N668 0.984 . S
H675 N668 0.984 . S
H676 N664 0.984 . S
H677 N664 0.985 1_655 S
C678 C679 1.363 . S
C678 C684 1.379 . S
C678 N686 1.356 . S
C679 C678 1.363 . S
C679 C685 1.363 . S
C680 C681 1.363 1_545 S
C680 C685 1.379 1_545 S
C680 N687 1.356 . S
C681 C680 1.363 1_565 S
C681 C684 1.363 . S
N682 C684 1.356 . S
N682 H694 0.984 . S
N682 H695 0.985 . S
N683 C685 1.356 1_545 S
N683 H688 0.984 1_545 S
N683 H689 0.985 . S
C684 C678 1.379 . S
C684 C681 1.363 . S
C684 N682 1.356 . S
C685 C679 1.363 . S
C685 C680 1.379 1_565 S
C685 N683 1.356 1_565 S
N686 C678 1.356 . S
N686 H692 0.984 . S
N686 H693 0.984 . S
N687 C680 1.356 . S
N687 H690 0.984 . S
N687 H691 0.985 . S
H688 N683 0.984 1_565 S
H689 N683 0.985 . S
H690 N687 0.984 . S
H691 N687 0.985 . S
H692 N686 0.984 . S
H693 N686 0.984 . S
H694 N682 0.984 . S
H695 N682 0.985 . S
C696 C697 1.363 . S
C696 C702 1.379 . S
C696 N704 1.356 . S
C697 C696 1.363 . S
C697 C703 1.363 . S
C698 C699 1.363 . S
C698 C703 1.379 . S
C698 N705 1.356 . S
C699 C698 1.363 . S
C699 C702 1.363 . S
N700 C702 1.356 . S
N700 H712 0.984 . S
N700 H713 0.985 . S
N701 C703 1.356 . S
N701 H706 0.984 . S
N701 H707 0.985 . S
C702 C696 1.379 . S
C702 C699 1.363 . S
C702 N700 1.356 . S
C703 C697 1.363 . S
C703 C698 1.379 . S
C703 N701 1.356 . S
N704 C696 1.356 . S
N704 H710 0.984 . S
N704 H711 0.984 . S
N705 C698 1.356 . S
N705 H708 0.984 . S
N705 H709 0.985 . S
H706 N701 0.984 . S
H707 N701 0.985 . S
H708 N705 0.984 . S
H709 N705 0.985 . S
H710 N704 0.984 . S
H711 N704 0.984 . S
H712 N700 0.984 . S
H713 N700 0.985 . S
C714 C715 1.363 . S
C714 C720 1.379 . S
C714 N722 1.356 . S
C715 C714 1.363 . S
C715 C721 1.363 . S
C716 C717 1.363 . S
C716 C721 1.379 . S
C716 N723 1.356 . S
C717 C716 1.363 . S
C717 C720 1.363 . S
N718 C720 1.356 . S
N718 H730 0.984 . S
N718 H731 0.985 . S
N719 C721 1.356 . S
N719 H724 0.984 . S
N719 H725 0.985 . S
C720 C714 1.379 . S
C720 C717 1.363 . S
C720 N718 1.356 . S
C721 C715 1.363 . S
C721 C716 1.379 . S
C721 N719 1.356 . S
N722 C714 1.356 . S
N722 H728 0.984 1_455 S
N722 H729 0.984 . S
N723 C716 1.356 . S
N723 H726 0.984 . S
N723 H727 0.985 . S
H724 N719 0.984 . S
H725 N719 0.985 . S
H726 N723 0.984 . S
H727 N723 0.985 . S
H728 N722 0.984 1_655 S
H729 N722 0.984 . S
H730 N718 0.984 . S
H731 N718 0.985 . S
C732 C733 1.363 . S
C732 C738 1.379 . S
C732 N740 1.356 . S
C733 C732 1.363 . S
C733 C739 1.363 . S
C734 C735 1.363 . S
C734 C739 1.379 . S
C734 N741 1.356 . S
C735 C734 1.363 . S
C735 C738 1.363 . S
N736 C738 1.356 . S
N736 H748 0.984 . S
N736 H749 0.985 . S
N737 C739 1.356 . S
N737 H742 0.984 . S
N737 H743 0.985 . S
C738 C732 1.379 . S
C738 C735 1.363 . S
C738 N736 1.356 . S
C739 C733 1.363 . S
C739 C734 1.379 . S
C739 N737 1.356 . S
N740 C732 1.356 . S
N740 H746 0.984 . S
N740 H747 0.984 . S
N741 C734 1.356 . S
N741 H744 0.984 . S
N741 H745 0.985 . S
H742 N737 0.984 . S
H743 N737 0.985 . S
H744 N741 0.984 . S
H745 N741 0.985 . S
H746 N740 0.984 . S
H747 N740 0.984 . S
H748 N736 0.984 . S
H749 N736 0.985 . S
C750 C751 1.363 . S
C750 C756 1.379 . S
C750 N758 1.356 . S
C751 C750 1.363 . S
C751 C757 1.363 . S
C752 C753 1.363 . S
C752 C757 1.379 . S
C752 N759 1.356 . S
C753 C752 1.363 . S
C753 C756 1.363 . S
N754 C756 1.356 . S
N754 H766 0.984 . S
N754 H767 0.985 . S
N755 C757 1.356 . S
N755 H760 0.984 . S
N755 H761 0.985 . S
C756 C750 1.379 . S
C756 C753 1.363 . S
C756 N754 1.356 . S
C757 C751 1.363 . S
C757 C752 1.379 . S
C757 N755 1.356 . S
N758 C750 1.356 . S
N758 H764 0.984 . S
N758 H765 0.984 . S
N759 C752 1.356 . S
N759 H762 0.984 . S
N759 H763 0.985 . S
H760 N755 0.984 . S
H761 N755 0.985 . S
H762 N759 0.984 . S
H763 N759 0.985 . S
H764 N758 0.984 . S
H765 N758 0.984 . S
H766 N754 0.984 . S
H767 N754 0.985 . S
C768 C769 1.363 . S
C768 C774 1.379 . S
C768 N776 1.356 . S
C769 C768 1.363 . S
C769 C775 1.363 . S
C770 C771 1.363 . S
C770 C775 1.379 . S
C770 N777 1.356 . S
C771 C770 1.363 . S
C771 C774 1.363 . S
N772 C774 1.356 . S
N772 H784 0.984 . S
N772 H785 0.985 . S
N773 C775 1.356 . S
N773 H778 0.984 . S
N773 H779 0.985 . S
C774 C768 1.379 . S
C774 C771 1.363 . S
C774 N772 1.356 . S
C775 C769 1.363 . S
C775 C770 1.379 . S
C775 N773 1.356 . S
N776 C768 1.356 . S
N776 H782 0.984 1_655 S
N776 H783 0.984 . S
N777 C770 1.356 . S
N777 H780 0.984 . S
N777 H781 0.985 . S
H778 N773 0.984 . S
H779 N773 0.985 . S
H780 N777 0.984 . S
H781 N777 0.985 . S
H782 N776 0.984 1_455 S
H783 N776 0.984 . S
H784 N772 0.984 . S
H785 N772 0.985 . S
C786 C787 1.363 . S
C786 C792 1.379 . S
C786 N794 1.356 . S
C787 C786 1.363 . S
C787 C793 1.363 . S
C788 C789 1.363 . S
C788 C793 1.379 . S
C788 N795 1.356 . S
C789 C788 1.363 . S
C789 C792 1.363 . S
N790 C792 1.356 . S
N790 H802 0.984 . S
N790 H803 0.985 . S
N791 C793 1.356 . S
N791 H796 0.984 . S
N791 H797 0.985 . S
C792 C786 1.379 . S
C792 C789 1.363 . S
C792 N790 1.356 . S
C793 C787 1.363 . S
C793 C788 1.379 . S
C793 N791 1.356 . S
N794 C786 1.356 . S
N794 H800 0.984 . S
N794 H801 0.984 . S
N795 C788 1.356 . S
N795 H798 0.984 . S
N795 H799 0.985 1_565 S
H796 N791 0.984 . S
H797 N791 0.985 . S
H798 N795 0.984 . S
H799 N795 0.985 1_545 S
H800 N794 0.984 . S
H801 N794 0.984 . S
H802 N790 0.984 . S
H803 N790 0.985 . S
C804 C805 1.363 . S
C804 C810 1.379 1_545 S
C804 N812 1.356 . S
C805 C804 1.363 . S
C805 C811 1.363 1_554 S
C806 C807 1.363 . S
C806 C811 1.379 1_565 S
C806 N813 1.356 1_455 S
C807 C806 1.363 . S
C807 C810 1.363 1_556 S
N808 C810 1.356 . S
N808 H820 0.984 . S
N808 H821 0.985 . S
N809 C811 1.356 . S
N809 H814 0.984 . S
N809 H815 0.985 . S
C810 C804 1.379 1_565 S
C810 C807 1.363 1_554 S
C810 N808 1.356 . S
C811 C805 1.363 1_556 S
C811 C806 1.379 1_545 S
C811 N809 1.356 . S
N812 C804 1.356 . S
N812 H818 0.984 . S
N812 H819 0.984 . S
N813 C806 1.356 1_655 S
N813 H816 0.984 . S
N813 H817 0.985 . S
H814 N809 0.984 . S
H815 N809 0.985 . S
H816 N813 0.984 . S
H817 N813 0.985 . S
H818 N812 0.984 . S
H819 N812 0.984 . S
H820 N808 0.984 . S
H821 N808 0.985 . S
C822 C823 1.363 . S
C822 C828 1.379 . S
C822 N830 1.356 . S
C823 C822 1.363 . S
C823 C829 1.363 . S
C824 C825 1.363 . S
C824 C829 1.379 . S
C824 N831 1.356 1_455 S
C825 C824 1.363 . S
C825 C828 1.363 . S
N826 C828 1.356 . S
N826 H838 0.984 . S
N826 H839 0.985 . S
N827 C829 1.356 1_565 S
N827 H832 0.984 . S
N827 H833 0.985 . S
C828 C822 1.379 . S
C828 C825 1.363 . S
C828 N826 1.356 . S
C829 C823 1.363 . S
C829 C824 1.379 . S
C829 N827 1.356 1_545 S
N830 C822 1.356 . S
N830 H836 0.984 . S
N830 H837 0.984 . S
N831 C824 1.356 1_655 S
N831 H834 0.984 . S
N831 H835 0.985 . S
H832 N827 0.984 . S
H833 N827 0.985 . S
H834 N831 0.984 . S
H835 N831 0.985 . S
H836 N830 0.984 . S
H837 N830 0.984 . S
H838 N826 0.984 . S
H839 N826 0.985 . S
C840 C841 1.363 . S
C840 C846 1.379 1_455 S
C840 N848 1.356 . S
C841 C840 1.363 . S
C841 C847 1.363 . S
C842 C843 1.363 . S
C842 C847 1.379 1_655 S
C842 N849 1.356 . S
C843 C842 1.363 . S
C843 C846 1.363 . S
N844 C846 1.356 . S
N844 H856 0.984 . S
N844 H857 0.985 . S
N845 C847 1.356 . S
N845 H850 0.984 . S
N845 H851 0.985 . S
C846 C840 1.379 1_655 S
C846 C843 1.363 . S
C846 N844 1.356 . S
C847 C841 1.363 . S
C847 C842 1.379 1_455 S
C847 N845 1.356 . S
N848 C840 1.356 . S
N848 H854 0.984 . S
N848 H855 0.984 . S
N849 C842 1.356 . S
N849 H852 0.984 . S
N849 H853 0.985 . S
H850 N845 0.984 . S
H851 N845 0.985 . S
H852 N849 0.984 . S
H853 N849 0.985 . S
H854 N848 0.984 . S
H855 N848 0.984 . S
H856 N844 0.984 . S
H857 N844 0.985 . S
C858 C859 1.363 . S
C858 C864 1.379 1_545 S
C858 N866 1.356 . S
C859 C858 1.363 . S
C859 C865 1.363 . S
C860 C861 1.363 . S
C860 C865 1.379 1_565 S
C860 N867 1.356 . S
C861 C860 1.363 . S
C861 C864 1.363 . S
N862 C864 1.356 . S
N862 H874 0.984 . S
N862 H875 0.985 . S
N863 C865 1.356 . S
N863 H868 0.984 . S
N863 H869 0.985 . S
C864 C858 1.379 1_565 S
C864 C861 1.363 . S
C864 N862 1.356 . S
C865 C859 1.363 . S
C865 C860 1.379 1_545 S
C865 N863 1.356 . S
N866 C858 1.356 . S
N866 H872 0.984 . S
N866 H873 0.984 . S
N867 C860 1.356 . S
N867 H870 0.984 . S
N867 H871 0.985 . S
H868 N863 0.984 . S
H869 N863 0.985 . S
H870 N867 0.984 . S
H871 N867 0.985 . S
H872 N866 0.984 . S
H873 N866 0.984 . S
H874 N862 0.984 . S
H875 N862 0.985 . S
C876 C877 1.363 . S
C876 C882 1.379 . S
C876 N884 1.356 1_655 S
C877 C876 1.363 . S
C877 C883 1.363 . S
C878 C879 1.363 . S
C878 C883 1.379 . S
C878 N885 1.356 . S
C879 C878 1.363 . S
C879 C882 1.363 . S
N880 C882 1.356 . S
N880 H892 0.984 . S
N880 H893 0.985 1_565 S
N881 C883 1.356 . S
N881 H886 0.984 . S
N881 H887 0.985 . S
C882 C876 1.379 . S
C882 C879 1.363 . S
C882 N880 1.356 . S
C883 C877 1.363 . S
C883 C878 1.379 . S
C883 N881 1.356 . S
N884 C876 1.356 1_455 S
N884 H890 0.984 . S
N884 H891 0.984 . S
N885 C878 1.356 . S
N885 H888 0.984 . S
N885 H889 0.985 . S
H886 N881 0.984 . S
H887 N881 0.985 . S
H888 N885 0.984 . S
H889 N885 0.985 . S
H890 N884 0.984 . S
H891 N884 0.984 . S
H892 N880 0.984 . S
H893 N880 0.985 1_545 S
C894 C895 1.363 . S
C894 C900 1.379 1_455 S
C894 N902 1.356 1_565 S
C895 C894 1.363 . S
C895 C901 1.363 . S
C896 C897 1.363 . S
C896 C901 1.379 1_655 S
C896 N903 1.356 . S
C897 C896 1.363 . S
C897 C900 1.363 . S
N898 C900 1.356 . S
N898 H910 0.984 1_565 S
N898 H911 0.985 . S
N899 C901 1.356 . S
N899 H904 0.984 . S
N899 H905 0.985 . S
C900 C894 1.379 1_655 S
C900 C897 1.363 . S
C900 N898 1.356 . S
C901 C895 1.363 . S
C901 C896 1.379 1_455 S
C901 N899 1.356 . S
N902 C894 1.356 1_545 S
N902 H908 0.984 . S
N902 H909 0.984 . S
N903 C896 1.356 . S
N903 H906 0.984 . S
N903 H907 0.985 . S
H904 N899 0.984 . S
H905 N899 0.985 . S
H906 N903 0.984 . S
H907 N903 0.985 . S
H908 N902 0.984 . S
H909 N902 0.984 . S
H910 N898 0.984 1_545 S
H911 N898 0.985 . S
C265 C164 1.737 1_554 S
C267 C10 1.799 . S
C283 C186 1.737 . S
C285 C30 1.799 . S
C301 C216 1.737 . S
C303 C54 1.799 . S
C319 C238 1.737 . S
C321 C74 1.799 . S
C337 C252 1.737 . S
C339 C96 1.799 . S
C355 C142 1.737 . S
C357 C120 1.799 . S
C373 C150 1.799 . S
C375 C118 1.737 . S
C391 C172 1.799 . S
C393 C8 1.737 1_556 S
C409 C194 1.799 . S
C411 C40 1.737 . S
C427 C206 1.799 . S
C429 C52 1.737 . S
C445 C228 1.799 . S
C447 C84 1.737 . S
C463 C260 1.799 . S
C465 C106 1.737 . S
C481 C18 1.501 . S
C483 C131 1.505 . S
C499 C32 1.501 1_455 S
C501 C21 1.505 . S
C517 C29 1.505 . S
C519 C62 1.501 1_545 S
C535 C65 1.505 . S
C537 C76 1.501 . S
C553 C73 1.505 . S
C555 C98 1.501 1_655 S
C571 C128 1.501 1_565 S
C573 C95 1.505 . S
C589 C140 1.501 . S
C591 C169 1.505 . S
C607 C162 1.501 1_455 S
C609 C191 1.505 . S
C625 C184 1.501 1_545 S
C627 C205 1.505 . S
C643 C208 1.501 . S
C645 C227 1.505 . S
C661 C230 1.501 1_655 S
C663 C257 1.505 . S
C679 C147 1.505 . S
C681 C250 1.501 1_565 S
C697 C183 1.332 . S
C699 C15 1.332 . S
C715 C43 1.332 . S
C717 C219 1.332 . S
C733 C59 1.332 . S
C735 C241 1.332 . S
C751 C87 1.332 . S
C753 C249 1.332 . S
C769 C109 1.332 . S
C771 C139 1.332 . S
C787 C161 1.332 . S
C789 C125 1.332 . S
C805 C7 0.624 . S
C807 C175 0.624 . S
C823 C197 0.624 . S
C825 C37 0.624 . S
C841 C213 0.624 . S
C843 C51 0.624 . S
C859 C235 0.624 . S
C861 C81 0.624 . S
C877 C103 0.624 . S
C879 C263 0.624 . S
C895 C117 0.624 . S
C897 C153 0.624 . S
