# Generated by pormake.
# Topology wne, (6)-cn, num edge types: 1
# Building blocks:
#     Node 0, Type 0, BuildingBlock: BETGAK_clean_sbu_0, # of connection points: 6
#     Node 1, Type 0, BuildingBlock: BETGAK_clean_sbu_0, # of connection points: 6
#     Node 2, Type 0, BuildingBlock: BETGAK_clean_sbu_0, # of connection points: 6
#     Node 3, Type 0, BuildingBlock: BETGAK_clean_sbu_0, # of connection points: 6
#     Node 4, Type 0, BuildingBlock: BETGAK_clean_sbu_0, # of connection points: 6
#     Node 5, Type 0, BuildingBlock: BETGAK_clean_sbu_0, # of connection points: 6
#     Node 6, Type 0, BuildingBlock: BETGAK_clean_sbu_0, # of connection points: 6
#     Node 7, Type 0, BuildingBlock: BETGAK_clean_sbu_0, # of connection points: 6
#     Node 8, Type 0, BuildingBlock: BETGAK_clean_sbu_0, # of connection points: 6
#     Node 9, Type 0, BuildingBlock: BETGAK_clean_sbu_0, # of connection points: 6
#     Node 10, Type 0, BuildingBlock: BETGAK_clean_sbu_0, # of connection points: 6
#     Node 11, Type 0, BuildingBlock: BETGAK_clean_sbu_0, # of connection points: 6
#     Node 12, Type 0, BuildingBlock: BETGAK_clean_sbu_0, # of connection points: 6
#     Node 13, Type 0, BuildingBlock: BETGAK_clean_sbu_0, # of connection points: 6
#     Node 14, Type 0, BuildingBlock: BETGAK_clean_sbu_0, # of connection points: 6
#     Node 15, Type 0, BuildingBlock: BETGAK_clean_sbu_0, # of connection points: 6
#     Node 16, Type 0, BuildingBlock: BETGAK_clean_sbu_0, # of connection points: 6
#     Node 17, Type 0, BuildingBlock: BETGAK_clean_sbu_0, # of connection points: 6
#     Node 18, Type 0, BuildingBlock: BETGAK_clean_sbu_0, # of connection points: 6
#     Node 19, Type 0, BuildingBlock: BETGAK_clean_sbu_0, # of connection points: 6
#     Node 20, Type 0, BuildingBlock: BETGAK_clean_sbu_0, # of connection points: 6
#     Node 21, Type 0, BuildingBlock: BETGAK_clean_sbu_0, # of connection points: 6
#     Node 22, Type 0, BuildingBlock: BETGAK_clean_sbu_0, # of connection points: 6
#     Node 23, Type 0, BuildingBlock: BETGAK_clean_sbu_0, # of connection points: 6
#     Node 24, Type 0, BuildingBlock: BETGAK_clean_sbu_0, # of connection points: 6
#     Node 25, Type 0, BuildingBlock: BETGAK_clean_sbu_0, # of connection points: 6
#     Node 26, Type 0, BuildingBlock: BETGAK_clean_sbu_0, # of connection points: 6
#     Node 27, Type 0, BuildingBlock: BETGAK_clean_sbu_0, # of connection points: 6
#     Node 28, Type 0, BuildingBlock: BETGAK_clean_sbu_0, # of connection points: 6
#     Node 29, Type 0, BuildingBlock: BETGAK_clean_sbu_0, # of connection points: 6
#     Node 30, Type 0, BuildingBlock: BETGAK_clean_sbu_0, # of connection points: 6
#     Node 31, Type 0, BuildingBlock: BETGAK_clean_sbu_0, # of connection points: 6
#     Node 32, Type 0, BuildingBlock: BETGAK_clean_sbu_0, # of connection points: 6
#     Node 33, Type 0, BuildingBlock: BETGAK_clean_sbu_0, # of connection points: 6
#     Node 34, Type 0, BuildingBlock: BETGAK_clean_sbu_0, # of connection points: 6
#     Node 35, Type 0, BuildingBlock: BETGAK_clean_sbu_0, # of connection points: 6
#     Edge 36, Type (0, 0), BuildingBlock: XUDNAN_clean_linker_2, # of connection points: 2
#     Edge 37, Type (0, 0), BuildingBlock: XUDNAN_clean_linker_2, # of connection points: 2
#     Edge 38, Type (0, 0), BuildingBlock: XUDNAN_clean_linker_2, # of connection points: 2
#     Edge 39, Type (0, 0), BuildingBlock: XUDNAN_clean_linker_2, # of connection points: 2
#     Edge 40, Type (0, 0), BuildingBlock: XUDNAN_clean_linker_2, # of connection points: 2
#     Edge 41, Type (0, 0), BuildingBlock: XUDNAN_clean_linker_2, # of connection points: 2
#     Edge 42, Type (0, 0), BuildingBlock: XUDNAN_clean_linker_2, # of connection points: 2
#     Edge 43, Type (0, 0), BuildingBlock: XUDNAN_clean_linker_2, # of connection points: 2
#     Edge 44, Type (0, 0), BuildingBlock: XUDNAN_clean_linker_2, # of connection points: 2
#     Edge 45, Type (0, 0), BuildingBlock: XUDNAN_clean_linker_2, # of connection points: 2
#     Edge 46, Type (0, 0), BuildingBlock: XUDNAN_clean_linker_2, # of connection points: 2
#     Edge 47, Type (0, 0), BuildingBlock: XUDNAN_clean_linker_2, # of connection points: 2
#     Edge 48, Type (0, 0), BuildingBlock: XUDNAN_clean_linker_2, # of connection points: 2
#     Edge 49, Type (0, 0), BuildingBlock: XUDNAN_clean_linker_2, # of connection points: 2
#     Edge 50, Type (0, 0), BuildingBlock: XUDNAN_clean_linker_2, # of connection points: 2
#     Edge 51, Type (0, 0), BuildingBlock: XUDNAN_clean_linker_2, # of connection points: 2
#     Edge 52, Type (0, 0), BuildingBlock: XUDNAN_clean_linker_2, # of connection points: 2
#     Edge 53, Type (0, 0), BuildingBlock: XUDNAN_clean_linker_2, # of connection points: 2
#     Edge 54, Type (0, 0), BuildingBlock: XUDNAN_clean_linker_2, # of connection points: 2
#     Edge 55, Type (0, 0), BuildingBlock: XUDNAN_clean_linker_2, # of connection points: 2
#     Edge 56, Type (0, 0), BuildingBlock: XUDNAN_clean_linker_2, # of connection points: 2
#     Edge 57, Type (0, 0), BuildingBlock: XUDNAN_clean_linker_2, # of connection points: 2
#     Edge 58, Type (0, 0), BuildingBlock: XUDNAN_clean_linker_2, # of connection points: 2
#     Edge 59, Type (0, 0), BuildingBlock: XUDNAN_clean_linker_2, # of connection points: 2
#     Edge 60, Type (0, 0), BuildingBlock: XUDNAN_clean_linker_2, # of connection points: 2
#     Edge 61, Type (0, 0), BuildingBlock: XUDNAN_clean_linker_2, # of connection points: 2
#     Edge 62, Type (0, 0), BuildingBlock: XUDNAN_clean_linker_2, # of connection points: 2
#     Edge 63, Type (0, 0), BuildingBlock: XUDNAN_clean_linker_2, # of connection points: 2
#     Edge 64, Type (0, 0), BuildingBlock: XUDNAN_clean_linker_2, # of connection points: 2
#     Edge 65, Type (0, 0), BuildingBlock: XUDNAN_clean_linker_2, # of connection points: 2
#     Edge 66, Type (0, 0), BuildingBlock: XUDNAN_clean_linker_2, # of connection points: 2
#     Edge 67, Type (0, 0), BuildingBlock: XUDNAN_clean_linker_2, # of connection points: 2
#     Edge 68, Type (0, 0), BuildingBlock: XUDNAN_clean_linker_2, # of connection points: 2
#     Edge 69, Type (0, 0), BuildingBlock: XUDNAN_clean_linker_2, # of connection points: 2
#     Edge 70, Type (0, 0), BuildingBlock: XUDNAN_clean_linker_2, # of connection points: 2
#     Edge 71, Type (0, 0), BuildingBlock: XUDNAN_clean_linker_2, # of connection points: 2
#     Edge 72, Type (0, 0), BuildingBlock: XUDNAN_clean_linker_2, # of connection points: 2
#     Edge 73, Type (0, 0), BuildingBlock: XUDNAN_clean_linker_2, # of connection points: 2
#     Edge 74, Type (0, 0), BuildingBlock: XUDNAN_clean_linker_2, # of connection points: 2
#     Edge 75, Type (0, 0), BuildingBlock: XUDNAN_clean_linker_2, # of connection points: 2
#     Edge 76, Type (0, 0), BuildingBlock: XUDNAN_clean_linker_2, # of connection points: 2
#     Edge 77, Type (0, 0), BuildingBlock: XUDNAN_clean_linker_2, # of connection points: 2
#     Edge 78, Type (0, 0), BuildingBlock: XUDNAN_clean_linker_2, # of connection points: 2
#     Edge 79, Type (0, 0), BuildingBlock: XUDNAN_clean_linker_2, # of connection points: 2
#     Edge 80, Type (0, 0), BuildingBlock: XUDNAN_clean_linker_2, # of connection points: 2
#     Edge 81, Type (0, 0), BuildingBlock: XUDNAN_clean_linker_2, # of connection points: 2
#     Edge 82, Type (0, 0), BuildingBlock: XUDNAN_clean_linker_2, # of connection points: 2
#     Edge 83, Type (0, 0), BuildingBlock: XUDNAN_clean_linker_2, # of connection points: 2
#     Edge 84, Type (0, 0), BuildingBlock: XUDNAN_clean_linker_2, # of connection points: 2
#     Edge 85, Type (0, 0), BuildingBlock: XUDNAN_clean_linker_2, # of connection points: 2
#     Edge 86, Type (0, 0), BuildingBlock: XUDNAN_clean_linker_2, # of connection points: 2
#     Edge 87, Type (0, 0), BuildingBlock: XUDNAN_clean_linker_2, # of connection points: 2
#     Edge 88, Type (0, 0), BuildingBlock: XUDNAN_clean_linker_2, # of connection points: 2
#     Edge 89, Type (0, 0), BuildingBlock: XUDNAN_clean_linker_2, # of connection points: 2
#     Edge 90, Type (0, 0), BuildingBlock: XUDNAN_clean_linker_2, # of connection points: 2
#     Edge 91, Type (0, 0), BuildingBlock: XUDNAN_clean_linker_2, # of connection points: 2
#     Edge 92, Type (0, 0), BuildingBlock: XUDNAN_clean_linker_2, # of connection points: 2
#     Edge 93, Type (0, 0), BuildingBlock: XUDNAN_clean_linker_2, # of connection points: 2
#     Edge 94, Type (0, 0), BuildingBlock: XUDNAN_clean_linker_2, # of connection points: 2
#     Edge 95, Type (0, 0), BuildingBlock: XUDNAN_clean_linker_2, # of connection points: 2
#     Edge 96, Type (0, 0), BuildingBlock: XUDNAN_clean_linker_2, # of connection points: 2
#     Edge 97, Type (0, 0), BuildingBlock: XUDNAN_clean_linker_2, # of connection points: 2
#     Edge 98, Type (0, 0), BuildingBlock: XUDNAN_clean_linker_2, # of connection points: 2
#     Edge 99, Type (0, 0), BuildingBlock: XUDNAN_clean_linker_2, # of connection points: 2
#     Edge 100, Type (0, 0), BuildingBlock: XUDNAN_clean_linker_2, # of connection points: 2
#     Edge 101, Type (0, 0), BuildingBlock: XUDNAN_clean_linker_2, # of connection points: 2
#     Edge 102, Type (0, 0), BuildingBlock: XUDNAN_clean_linker_2, # of connection points: 2
#     Edge 103, Type (0, 0), BuildingBlock: XUDNAN_clean_linker_2, # of connection points: 2
#     Edge 104, Type (0, 0), BuildingBlock: XUDNAN_clean_linker_2, # of connection points: 2
#     Edge 105, Type (0, 0), BuildingBlock: XUDNAN_clean_linker_2, # of connection points: 2
#     Edge 106, Type (0, 0), BuildingBlock: XUDNAN_clean_linker_2, # of connection points: 2
#     Edge 107, Type (0, 0), BuildingBlock: XUDNAN_clean_linker_2, # of connection points: 2
#     Edge 108, Type (0, 0), BuildingBlock: XUDNAN_clean_linker_2, # of connection points: 2
#     Edge 109, Type (0, 0), BuildingBlock: XUDNAN_clean_linker_2, # of connection points: 2
#     Edge 110, Type (0, 0), BuildingBlock: XUDNAN_clean_linker_2, # of connection points: 2
#     Edge 111, Type (0, 0), BuildingBlock: XUDNAN_clean_linker_2, # of connection points: 2
#     Edge 112, Type (0, 0), BuildingBlock: XUDNAN_clean_linker_2, # of connection points: 2
#     Edge 113, Type (0, 0), BuildingBlock: XUDNAN_clean_linker_2, # of connection points: 2
#     Edge 114, Type (0, 0), BuildingBlock: XUDNAN_clean_linker_2, # of connection points: 2
#     Edge 115, Type (0, 0), BuildingBlock: XUDNAN_clean_linker_2, # of connection points: 2
#     Edge 116, Type (0, 0), BuildingBlock: XUDNAN_clean_linker_2, # of connection points: 2
#     Edge 117, Type (0, 0), BuildingBlock: XUDNAN_clean_linker_2, # of connection points: 2
#     Edge 118, Type (0, 0), BuildingBlock: XUDNAN_clean_linker_2, # of connection points: 2
#     Edge 119, Type (0, 0), BuildingBlock: XUDNAN_clean_linker_2, # of connection points: 2
#     Edge 120, Type (0, 0), BuildingBlock: XUDNAN_clean_linker_2, # of connection points: 2
#     Edge 121, Type (0, 0), BuildingBlock: XUDNAN_clean_linker_2, # of connection points: 2
#     Edge 122, Type (0, 0), BuildingBlock: XUDNAN_clean_linker_2, # of connection points: 2
#     Edge 123, Type (0, 0), BuildingBlock: XUDNAN_clean_linker_2, # of connection points: 2
#     Edge 124, Type (0, 0), BuildingBlock: XUDNAN_clean_linker_2, # of connection points: 2
#     Edge 125, Type (0, 0), BuildingBlock: XUDNAN_clean_linker_2, # of connection points: 2
#     Edge 126, Type (0, 0), BuildingBlock: XUDNAN_clean_linker_2, # of connection points: 2
#     Edge 127, Type (0, 0), BuildingBlock: XUDNAN_clean_linker_2, # of connection points: 2
#     Edge 128, Type (0, 0), BuildingBlock: XUDNAN_clean_linker_2, # of connection points: 2
#     Edge 129, Type (0, 0), BuildingBlock: XUDNAN_clean_linker_2, # of connection points: 2
#     Edge 130, Type (0, 0), BuildingBlock: XUDNAN_clean_linker_2, # of connection points: 2
#     Edge 131, Type (0, 0), BuildingBlock: XUDNAN_clean_linker_2, # of connection points: 2
#     Edge 132, Type (0, 0), BuildingBlock: XUDNAN_clean_linker_2, # of connection points: 2
#     Edge 133, Type (0, 0), BuildingBlock: XUDNAN_clean_linker_2, # of connection points: 2
#     Edge 134, Type (0, 0), BuildingBlock: XUDNAN_clean_linker_2, # of connection points: 2
#     Edge 135, Type (0, 0), BuildingBlock: XUDNAN_clean_linker_2, # of connection points: 2
#     Edge 136, Type (0, 0), BuildingBlock: XUDNAN_clean_linker_2, # of connection points: 2
#     Edge 137, Type (0, 0), BuildingBlock: XUDNAN_clean_linker_2, # of connection points: 2
#     Edge 138, Type (0, 0), BuildingBlock: XUDNAN_clean_linker_2, # of connection points: 2
#     Edge 139, Type (0, 0), BuildingBlock: XUDNAN_clean_linker_2, # of connection points: 2
#     Edge 140, Type (0, 0), BuildingBlock: XUDNAN_clean_linker_2, # of connection points: 2
#     Edge 141, Type (0, 0), BuildingBlock: XUDNAN_clean_linker_2, # of connection points: 2
#     Edge 142, Type (0, 0), BuildingBlock: XUDNAN_clean_linker_2, # of connection points: 2
#     Edge 143, Type (0, 0), BuildingBlock: XUDNAN_clean_linker_2, # of connection points: 2
# Relax obj value: 0.384
# Max RMSD: 0.250
# Mean RMSD: 0.250
data_MOF--net-wne--node1-BETGAK_clean_sbu_0--edge1-XUDNAN_clean_linker_2
_symmetry_space_group_name_H-M    P1
_symmetry_Int_Tables_number       1
_symmetry_cell_setting            triclinic
loop_
_symmetry_equiv_pos_as_xyz
'x, y, z'
_cell_length_a     85.950763
_cell_length_b     86.172163
_cell_length_c     32.02896
_cell_angle_alpha  90.157375
_cell_angle_beta   90.082161
_cell_angle_gamma 119.91608
loop_
_atom_site_label
_atom_site_type_symbol
_atom_site_fract_x
_atom_site_fract_y
_atom_site_fract_z
_atom_type_partial_charge
La0 La 0.30552 0.20867 0.1033 0.0
La1 La 0.32838 0.24634 0.11641 0.0
C2 C 0.29054 0.17508 0.08539 0.0
C3 C 0.28909 0.15689 0.07853 0.0
C4 C 0.30013 0.15372 0.05113 0.0
C5 C 0.29698 0.13604 0.04345 0.0
C6 C 0.28258 0.12082 0.06258 0.0
C7 C 0.27149 0.12426 0.08924 0.0
C8 C 0.27474 0.14175 0.09716 0.0
C9 C 0.29436 0.22242 0.16778 0.0
C10 C 0.34304 0.22193 0.15065 0.0
C11 C 0.34229 0.27955 0.1308 0.0
C12 C 0.33516 0.29185 0.13477 0.0
C13 C 0.34629 0.30953 0.14803 0.0
C14 C 0.34026 0.32188 0.14553 0.0
C15 C 0.32296 0.3166 0.12993 0.0
C16 C 0.31147 0.29863 0.1198 0.0
C17 C 0.31764 0.28651 0.12158 0.0
C18 C 0.34152 0.23544 0.05343 0.0
C19 C 0.28986 0.23176 0.06942 0.0
O20 O 0.29158 0.18145 0.12305 0.0
O21 O 0.29838 0.18799 0.05814 0.0
O22 O 0.28409 0.20949 0.14255 0.0
O23 O 0.31024 0.22628 0.15764 0.0
O24 O 0.32995 0.20917 0.12815 0.0
O25 O 0.34368 0.23755 0.15539 0.0
O26 O 0.34064 0.27258 0.09369 0.0
O27 O 0.33796 0.26756 0.16007 0.0
O28 O 0.35029 0.24586 0.08413 0.0
O29 O 0.32476 0.23024 0.06048 0.0
O30 O 0.30299 0.24452 0.09202 0.0
O31 O 0.28954 0.21637 0.0642 0.0
H32 H 0.31117 0.16488 0.03542 0.0
H33 H 0.30598 0.13436 1.02276 0.0
H34 H 0.25984 0.11333 0.10381 0.0
H35 H 0.26559 0.1434 0.11747 0.0
H36 H 0.35993 0.314 0.15814 0.0
H37 H 0.34956 0.33578 0.15302 0.0
H38 H 0.29806 0.29419 0.10826 0.0
H39 H 0.30889 0.27315 0.11096 0.0
La40 La 0.88338 0.11306 0.1019 0.0
La41 La 0.84633 0.10095 0.11789 0.0
C42 C 0.91697 0.12984 0.0829 0.0
C43 C 0.93409 0.14737 0.07319 0.0
C44 C 0.95041 0.15157 0.09326 0.0
C45 C 0.96698 0.16683 0.08217 0.0
C46 C 0.96804 0.1787 0.05047 0.0
C47 C 0.9516 0.17442 0.03044 0.0
C48 C 0.93506 0.15912 0.04142 0.0
C49 C 0.86899 0.08786 0.16516 0.0
C50 C 0.87415 0.14123 0.14457 0.0
C51 C 0.81489 0.08699 0.14524 0.0
C52 C 0.79971 0.06952 0.13191 0.0
C53 C 0.79218 0.06756 0.09193 0.0
C54 C 0.78047 0.05061 0.07589 0.0
C55 C 0.77595 1.03518 0.09934 0.0
C56 C 0.78283 0.0371 0.14003 0.0
C57 C 0.7946 0.05413 0.15618 0.0
C58 C 0.85406 0.11448 0.04068 0.0
C59 C 0.85625 0.07496 0.06788 0.0
O60 O 0.91079 0.1265 0.12113 0.0
O61 O 0.90375 0.12299 0.05573 0.0
O62 O 0.88097 0.08954 0.13822 0.0
O63 O 0.86635 0.10087 0.15695 0.0
O64 O 0.88642 0.13756 0.13053 0.0
O65 O 0.85696 0.12854 0.14412 0.0
O66 O 0.82126 0.0997 0.11732 0.0
O67 O 0.82778 0.08618 0.16484 0.0
O68 O 0.8405 0.09925 0.05142 0.0
O69 O 0.86449 0.12064 0.07287 0.0
O70 O 0.84479 0.07582 0.0942 0.0
O71 O 0.87147 0.08982 0.05933 0.0
H72 H 0.95042 0.14281 0.11742 0.0
H73 H 0.97898 0.16939 0.09894 0.0
H74 H 0.95147 0.18274 1.00537 0.0
H75 H 0.92303 0.15638 0.02449 0.0
H76 H 0.79575 0.07907 0.07231 0.0
H77 H 0.77489 0.04962 0.045 0.0
H78 H 0.7794 1.02544 0.15899 0.0
H79 H 0.80024 0.05522 0.18705 0.0
La80 La 0.9807 0.7855 0.09972 0.0
La81 La 0.99062 0.7596 0.12381 0.0
C82 C 0.96433 0.80198 0.0746 0.0
C83 C 0.94657 0.80162 0.06681 0.0
C84 C 0.93545 0.8009 0.10003 0.0
C85 C 0.92075 0.80376 0.09358 0.0
C86 C 0.91638 0.80756 0.0536 0.0
C87 C 0.92702 0.80748 1.02002 0.0
C88 C 0.94185 0.80471 0.02655 0.0
C89 C 1.00458 0.79639 0.16551 0.0
C90 C 0.95083 0.74943 0.14479 0.0
C91 C 1.00127 0.74235 0.1673 0.0
C92 C 1.01914 0.74876 0.18541 0.0
C93 C 1.02423 0.73667 0.19991 0.0
C94 C 1.04211 0.74275 0.21079 0.0
C95 C 1.05514 0.76106 0.20741 0.0
C96 C 1.0496 0.77327 0.19601 0.0
C97 C 1.03182 0.76711 0.18454 0.0
C98 C 0.97783 0.75211 0.04552 0.0
C99 C 1.01992 0.79479 0.07657 0.0
O100 O 0.96926 0.80169 0.11312 0.0
O101 O 0.96971 0.79347 0.04968 0.0
O102 O 1.00428 0.80668 0.13638 0.0
O103 O 0.99108 0.78108 0.15779 0.0
O104 O 0.95625 0.76621 0.13383 0.0
O105 O 0.96193 0.74303 0.14068 0.0
O106 O 1.00069 0.74183 0.12661 0.0
O107 O 0.99246 0.74976 0.18243 0.0
O108 O 0.99187 0.75199 0.05976 0.0
O109 O 0.972 0.75806 0.07515 0.0
O110 O 1.01689 0.78225 0.10451 0.0
O111 O 1.00618 0.79661 0.06353 0.0
H112 H 0.93843 0.7987 0.13159 0.0
H113 H 0.91293 0.80329 0.1205 0.0
H114 H 0.92443 0.81041 0.98877 0.0
H115 H 0.95009 0.80567 1.00005 0.0
H116 H 1.01463 0.72245 0.20056 0.0
H117 H 1.04591 0.73287 0.21863 0.0
H118 H 0.05921 0.78743 0.1933 0.0
H119 H 1.02819 0.77663 0.17295 0.0
La120 La 0.22947 0.28625 0.44515 0.0
La121 La 0.26588 0.31095 0.42606 0.0
C122 C 0.19625 0.26974 0.46749 0.0
C123 C 0.17911 0.27028 0.47684 0.0
C124 C 0.16288 0.25835 0.45626 0.0
C125 C 0.14627 0.25709 0.46717 0.0
C126 C 0.14508 0.26776 0.49923 0.0
C127 C 0.16142 0.27976 0.51972 0.0
C128 C 0.178 0.28095 0.50892 0.0
C129 C 0.24308 0.27485 0.38104 0.0
C130 C 0.23722 0.32265 0.40102 0.0
C131 C 0.29587 0.32833 0.39033 0.0
C132 C 0.30905 0.32253 0.38294 0.0
C133 C 0.32731 0.33522 0.38054 0.0
C134 C 0.3401 0.32978 0.38365 0.0
C135 C 0.33473 0.31161 0.38985 0.0
C136 C 0.31642 0.29881 0.38894 0.0
C137 C 0.30367 0.30423 0.38514 0.0
C138 C 0.25939 0.31814 0.50338 0.0
C139 C 0.25733 0.27564 0.4756 0.0
O140 O 0.20177 0.27117 0.42891 0.0
O141 O 0.20993 0.27726 0.4933 0.0
O142 O 0.23175 0.26474 0.40925 0.0
O143 O 0.24539 0.29037 0.38874 0.0
O144 O 0.22531 0.30621 0.41244 0.0
O145 O 0.25463 0.32819 0.40518 0.0
O146 O 0.29329 0.33041 0.42952 0.0
O147 O 0.2807 0.31935 0.37048 0.0
O148 O 0.27297 0.31662 0.49164 0.0
O149 O 0.24838 0.31327 0.47211 0.0
O150 O 0.2678 0.28717 0.4468 0.0
O151 O 0.24252 0.27575 0.4866 0.0
H152 H 0.16295 0.24966 0.43187 0.0
H153 H 0.13435 0.24778 0.45002 0.0
H154 H 0.16145 0.2881 0.54507 0.0
H155 H 0.18995 0.29008 0.52628 0.0
H156 H 0.3317 0.34937 0.37909 0.0
H157 H 0.35417 0.33995 0.38484 0.0
H158 H 0.31197 0.28476 0.39374 0.0
H159 H 0.28961 0.2942 0.38666 0.0
La160 La 0.80846 0.96124 0.44512 0.0
La161 La 0.78357 0.97288 0.42716 0.0
C162 C 0.82546 0.94478 0.46546 0.0
C163 C 0.82567 0.92736 0.47305 0.0
C164 C 0.8298 0.91899 0.4404 0.0
C165 C 0.83327 0.90482 0.44801 0.0
C166 C 0.83287 0.89826 0.48873 0.0
C167 C 0.82798 0.9061 0.5213 0.0
C168 C 0.82461 0.92044 0.51367 0.0
C169 C 0.8187 0.9856 0.38032 0.0
C170 C 0.77164 0.93268 0.40099 0.0
C171 C 0.76664 0.98689 0.39673 0.0
C172 C 0.77021 1.00511 0.40613 0.0
C173 C 0.75659 1.00744 0.42357 0.0
C174 C 0.76075 1.02373 0.44204 0.0
C175 C 0.7786 0.03795 0.44345 0.0
C176 C 0.79204 1.03608 0.42339 0.0
C177 C 0.7879 1.01976 0.40499 0.0
C178 C 0.77727 0.95963 0.50472 0.0
C179 C 0.81932 0.99952 0.47705 0.0
O180 O 0.82371 0.94914 0.42734 0.0
O181 O 0.81797 0.95055 0.49231 0.0
O182 O 0.82924 0.98504 0.40855 0.0
O183 O 0.80336 0.97224 0.38855 0.0
O184 O 0.78772 0.93673 0.41493 0.0
O185 O 0.76663 0.945 0.40236 0.0
O186 O 0.76064 0.97578 0.42805 0.0
O187 O 0.77935 0.9859 0.37689 0.0
O188 O 0.77898 0.97481 0.4933 0.0
O189 O 0.78176 0.95337 0.47315 0.0
O190 O 0.80731 0.99844 0.44932 0.0
O191 O 0.8195 0.98469 0.48692 0.0
H192 H 0.83103 0.92384 0.40873 0.0
H193 H 0.83665 0.89919 0.42164 0.0
H194 H 0.82757 0.90173 0.55314 0.0
H195 H 0.82182 0.92656 0.54001 0.0
H196 H 0.74293 0.99637 0.42495 0.0
H197 H 0.75005 1.02504 0.45638 0.0
H198 H 0.80584 0.0469 0.42374 0.0
H199 H 0.79876 1.01838 0.3919 0.0
La200 La 0.13363 0.8619 0.44061 0.0
La201 La 0.12003 0.82415 0.42799 0.0
C202 C 0.15129 0.89541 0.45944 0.0
C203 C 0.16886 0.91276 0.46837 0.0
C204 C 0.17853 0.92472 0.43586 0.0
C205 C 0.19286 0.94224 0.44406 0.0
C206 C 0.19827 0.94881 0.48524 0.0
C207 C 0.18913 0.93659 0.51786 0.0
C208 C 0.17464 0.91901 0.50961 0.0
C209 C 0.10802 0.84702 0.37807 0.0
C210 C 0.15974 0.85024 0.39587 0.0
C211 C 0.10555 0.79209 0.40545 0.0
C212 C 0.08952 0.77716 0.42499 0.0
C213 C 0.09152 0.76848 0.4599 0.0
C214 C 0.07679 0.75759 0.48473 0.0
C215 C 0.0597 0.75502 0.47514 0.0
C216 C 0.05743 0.76275 0.43882 0.0
C217 C 0.0722 0.77368 0.41388 0.0
C218 C 0.13536 0.83383 0.50377 0.0
C219 C 0.0947 0.8351 0.47586 0.0
O220 O 0.1475 0.88901 0.42126 0.0
O221 O 0.14444 0.88244 0.487 0.0
O222 O 0.11042 0.85984 0.40323 0.0
O223 O 0.12063 0.84389 0.38724 0.0
O224 O 0.15789 0.86362 0.41083 0.0
O225 O 0.14608 0.83362 0.39745 0.0
O226 O 0.12001 0.79976 0.42871 0.0
O227 O 0.10287 0.80394 0.3864 0.0
O228 O 0.11971 0.82027 0.49545 0.0
O229 O 0.14083 0.84299 0.46999 0.0
O230 O 0.09575 0.82299 0.45267 0.0
O231 O 0.10924 0.85116 0.48124 0.0
H232 H 0.17461 0.92081 0.40369 0.0
H233 H 0.19951 0.95084 0.41769 0.0
H234 H 0.19257 0.94088 0.55001 0.0
H235 H 0.1675 0.91053 0.5358 0.0
H236 H 0.10462 0.77072 0.46915 0.0
H237 H 0.07883 0.75121 0.51166 0.0
H238 H 1.04434 0.76073 0.43031 0.0
H239 H 0.07015 0.78003 0.38694 0.0
La240 La 0.78409 0.82732 0.92546 0.0
La241 La 0.80756 0.86317 0.95001 0.0
C242 C 0.7686 0.79932 0.88142 0.0
C243 C 0.77537 0.78756 0.86769 0.0
C244 C 0.76348 0.77036 0.85295 0.0
C245 C 0.76937 0.75803 0.84758 0.0
C246 C 0.78723 0.76275 0.85718 0.0
C247 C 0.79941 0.78049 0.86874 0.0
C248 C 0.79351 0.79278 0.87396 0.0
C249 C 0.77426 0.832 1.00186 0.0
C250 C 0.818 0.83512 0.98049 0.0
C251 C 0.82286 0.89596 0.97521 0.0
C252 C 0.82231 0.91327 0.98183 0.0
C253 C 0.82357 0.92428 0.94795 0.0
C254 C 0.82648 0.94181 0.95413 0.0
C255 C 0.82835 0.94933 0.9945 0.0
C256 C 0.82625 0.93802 0.02852 0.0
C257 C 0.82344 0.92043 1.02229 0.0
C258 C 0.82202 0.85117 0.88961 0.0
C259 C 0.77225 0.85564 0.90052 0.0
O260 O 0.7664 0.79957 0.92164 0.0
O261 O 0.7769 0.81543 0.86599 0.0
O262 O 0.77544 0.81835 0.98901 0.0
O263 O 0.78006 0.84364 0.97211 0.0
O264 O 0.8072 0.82507 0.94993 0.0
O265 O 0.81741 0.84963 0.99222 0.0
O266 O 0.82341 0.89078 0.93709 0.0
O267 O 0.81398 0.8821 0.9997 0.0
O268 O 0.83051 0.86202 0.92027 0.0
O269 O 0.80603 0.84835 0.89262 0.0
O270 O 0.78871 0.8675 0.91241 0.0
O271 O 0.76662 0.83833 0.90511 0.0
H272 H 0.74944 0.76612 0.84807 0.0
H273 H 0.75948 0.7444 0.83938 0.0
H274 H 0.81325 0.78459 0.87603 0.0
H275 H 0.8029 0.80607 0.88512 0.0
H276 H 0.82295 0.91961 0.91624 0.0
H277 H 0.82764 0.94969 0.92681 0.0
H278 H 0.82766 0.94306 0.06012 0.0
H279 H 0.82287 0.91268 0.04937 0.0
La280 La 0.26548 0.97175 0.9207 0.0
La281 La 0.22944 0.95937 0.94362 0.0
C282 C 0.29385 0.98479 0.87795 0.0
C283 C 0.30563 1.00348 0.86574 0.0
C284 C 0.32261 1.00897 0.84899 0.0
C285 C 0.33497 1.02722 0.84489 0.0
C286 C 0.33051 0.04009 0.85824 0.0
C287 C 0.31308 1.03451 0.87221 0.0
C288 C 0.30066 1.01632 0.87533 0.0
C289 C 0.26052 0.95743 0.99727 0.0
C290 C 0.25736 0.99725 0.97685 0.0
C291 C 0.19635 0.94237 0.96715 0.0
C292 C 0.17921 0.92485 0.97719 0.0
C293 C 0.16325 0.91952 0.95415 0.0
C294 C 0.14658 0.90446 0.96571 0.0
C295 C 0.14504 0.89394 1.00096 0.0
C296 C 0.1611 0.89935 0.02396 0.0
C297 C 0.17772 0.91443 1.01247 0.0
C298 C 0.24193 0.98608 0.88362 0.0
C299 C 0.23758 0.9311 0.8978 0.0
O300 O 0.29333 0.98184 0.91798 0.0
O301 O 0.27778 0.9771 0.86175 0.0
O302 O 0.27426 0.97218 0.98464 0.0
O303 O 0.24895 0.95154 0.96714 0.0
O304 O 0.26747 0.99679 0.9462 0.0
O305 O 0.2428 0.98211 0.98761 0.0
O306 O 0.2016 0.94633 0.92836 0.0
O307 O 0.21022 0.94868 0.99246 0.0
O308 O 0.23079 0.98347 0.91365 0.0
O309 O 0.24465 0.97286 0.88669 0.0
O310 O 0.2255 0.93542 0.90979 0.0
O311 O 0.25489 0.94331 0.90061 0.0
H312 H 0.32664 0.99923 0.84137 0.0
H313 H 0.34848 1.03126 0.83473 0.0
H314 H 0.30942 0.04421 0.88287 0.0
H315 H 0.28749 1.01235 0.88739 0.0
H316 H 0.16356 0.92726 0.92727 0.0
H317 H 0.13488 0.901 0.94662 0.0
H318 H 0.16086 0.89215 0.05179 0.0
H319 H 0.18938 0.91809 0.03188 0.0
La320 La 0.12015 0.31099 0.91679 0.0
La321 La 0.13079 0.28604 0.94334 0.0
C322 C 0.10818 0.32669 0.87173 0.0
C323 C 0.08939 0.32054 0.86075 0.0
C324 C 0.08381 0.33281 0.85085 0.0
C325 C 0.06548 0.32718 0.84926 0.0
C326 C 1.05258 0.30925 0.858 0.0
C327 C 0.05826 0.29677 0.86446 0.0
C328 C 0.07652 0.30241 0.86579 0.0
C329 C 0.13321 0.31966 0.99472 0.0
C330 C 0.09232 0.27769 0.97128 0.0
C331 C 0.14699 0.26931 0.96783 0.0
C332 C 0.16421 0.26855 0.97481 0.0
C333 C 0.17129 0.26271 0.94257 0.0
C334 C 0.18512 0.25869 0.95008 0.0
C335 C 0.19266 0.26027 0.99025 0.0
C336 C 0.18617 0.26687 1.02229 0.0
C337 C 0.17212 0.27075 1.01481 0.0
C338 C 0.10539 0.27289 0.88042 0.0
C339 C 0.16029 0.32199 0.8966 0.0
O340 O 0.11202 0.33025 0.91126 0.0
O341 O 0.11465 0.31697 0.85687 0.0
O342 O 0.11904 0.31949 0.98013 0.0
O343 O 0.13917 0.31358 0.96571 0.0
O344 O 0.09449 0.28935 0.94168 0.0
O345 O 0.10634 0.27609 0.98292 0.0
O346 O 0.14173 0.26945 0.92954 0.0
O347 O 0.14235 0.27841 0.99284 0.0
O348 O 0.10635 0.26406 0.91204 0.0
O349 O 0.11896 0.28856 0.88492 0.0
O350 O 0.1553 0.30549 0.90929 0.0
O351 O 0.14868 0.32782 0.89855 0.0
H352 H 0.09355 0.34687 0.84699 0.0
H353 H 0.0615 0.33717 0.84476 0.0
H354 H 1.04864 0.28292 0.8713 0.0
H355 H 0.08061 0.29282 0.87352 0.0
H356 H 0.16565 0.26054 0.91142 0.0
H357 H 0.1897 0.25394 0.92414 0.0
H358 H 0.19134 0.26823 0.05373 0.0
H359 H 0.16699 0.27487 0.04087 0.0
La360 La 0.84593 0.76433 0.62161 0.0
La361 La 0.8837 0.78589 0.6086 0.0
C362 C 0.81414 0.74982 0.64726 0.0
C363 C 0.80029 0.75354 0.63172 0.0
C364 C 0.78503 0.74935 0.65541 0.0
C365 C 0.77241 0.75375 0.64051 0.0
C366 C 0.77503 0.76255 0.60193 0.0
C367 C 0.79071 0.76732 0.57927 0.0
C368 C 0.80315 0.76276 0.59391 0.0
C369 C 0.8538 0.75692 0.54558 0.0
C370 C 0.85944 0.80072 0.57321 0.0
C371 C 0.9173 0.80126 0.59059 0.0
C372 C 0.93474 0.80168 0.57955 0.0
C373 C 0.94564 0.81285 0.54701 0.0
C374 C 0.96289 0.81519 0.53854 0.0
C375 C 0.97005 0.80637 0.56216 0.0
C376 C 0.95902 0.79511 0.59473 0.0
C377 C 0.94183 0.79288 0.60335 0.0
C378 C 0.87002 0.79826 0.67049 0.0
C379 C 0.87016 0.74781 0.65179 0.0
O380 O 0.81974 0.74217 0.62061 0.0
O381 O 0.8275 0.76344 0.66582 0.0
O382 O 0.841 0.76014 0.55458 0.0
O383 O 0.86348 0.76037 0.57874 0.0
O384 O 0.84728 0.78929 0.59933 0.0
O385 O 0.87388 0.79931 0.56551 0.0
O386 O 0.91076 0.79705 0.62844 0.0
O387 O 0.90445 0.79642 0.56282 0.0
O388 O 0.88326 0.80789 0.64578 0.0
O389 O 0.86645 0.78236 0.6627 0.0
O390 O 0.88399 0.76241 0.63618 0.0
O391 O 0.8539 0.74611 0.65119 0.0
H392 H 0.78281 0.74254 0.68506 0.0
H393 H 0.7603 0.74967 0.65841 0.0
H394 H 0.79318 0.77423 0.5497 0.0
H395 H 0.81496 0.76637 0.57539 0.0
H396 H 0.94092 0.82013 0.52829 0.0
H397 H 0.97054 0.82382 0.51301 0.0
H398 H 0.96382 0.78819 0.61446 0.0
H399 H 0.93418 0.78443 0.62915 0.0
La400 La 0.33127 0.09947 0.61857 0.0
La401 La 0.30572 0.11311 0.60119 0.0
C402 C 0.34785 0.08505 0.64916 0.0
C403 C 0.34431 0.06665 0.64297 0.0
C404 C 0.32664 0.05247 0.63702 0.0
C405 C 0.32344 1.03593 0.62187 0.0
C406 C 0.3379 1.03347 0.61158 0.0
C407 C 0.35552 0.04729 0.61972 0.0
C408 C 0.3587 0.06375 0.63543 0.0
C409 C 0.33751 0.11445 0.54317 0.0
C410 C 0.29415 0.07389 0.57016 0.0
C411 C 0.29019 0.13017 0.57473 0.0
C412 C 0.29113 0.14801 0.56528 0.0
C413 C 0.2921 0.15957 0.59783 0.0
C414 C 0.28938 0.17424 0.59045 0.0
C415 C 0.28558 0.17821 0.55014 0.0
C416 C 0.28549 0.16722 0.51713 0.0
C417 C 0.28805 0.15234 0.52462 0.0
C418 C 0.29379 0.0891 0.66857 0.0
C419 C 0.34281 0.1401 0.64694 0.0
O420 O 0.35298 0.09482 0.61543 0.0
O421 O 0.33572 0.08691 0.66975 0.0
O422 O 0.33627 0.09923 0.55247 0.0
O423 O 0.33286 0.11998 0.57605 0.0
O424 O 0.30711 0.07472 0.5947 0.0
O425 O 0.29319 0.08859 0.56262 0.0
O426 O 0.29128 0.12636 0.61379 0.0
O427 O 0.2974 0.1233 0.54991 0.0
O428 O 0.28611 0.09755 0.65325 0.0
O429 O 0.30764 0.09539 0.64585 0.0
O430 O 0.32713 0.13676 0.63179 0.0
O431 O 0.34723 0.12723 0.64686 0.0
H432 H 0.31532 0.05446 0.64158 0.0
H433 H 0.30977 1.02549 0.61566 0.0
H434 H 0.36687 0.04558 0.61227 0.0
H435 H 0.37241 0.07453 0.63931 0.0
H436 H 0.29427 0.1569 0.62969 0.0
H437 H 0.28983 0.1823 0.61692 0.0
H438 H 0.28252 0.16955 0.48567 0.0
H439 H 0.28685 0.14376 0.49862 0.0
La440 La 0.98946 0.24574 0.62589 0.0
La441 La 0.98119 0.21146 0.59568 0.0
C442 C 1.00525 0.27548 0.66359 0.0
C443 C 1.02409 0.28766 0.67476 0.0
C444 C 1.02926 0.30463 0.69117 0.0
C445 C 1.04747 0.31735 0.69513 0.0
C446 C 0.06062 0.3133 0.68176 0.0
C447 C 1.05539 0.29595 0.66786 0.0
C448 C 1.03725 0.28307 0.66549 0.0
C449 C 0.96932 0.23857 0.55621 0.0
C450 C 1.01939 0.24096 0.57171 0.0
C451 C 0.9653 0.17879 0.56918 0.0
C452 C 0.94753 0.16131 0.5631 0.0
C453 C 0.93847 0.14997 0.59707 0.0
C454 C 0.92381 0.13243 0.59104 0.0
C455 C 0.91741 0.12522 0.55073 0.0
C456 C 0.92594 0.13684 0.51673 0.0
C457 C 0.94075 0.15443 0.52279 0.0
C458 C 1.00379 0.22342 0.66361 0.0
C459 C 0.95039 0.2157 0.64415 0.0
O460 O 1.00171 0.27376 0.62358 0.0
O461 O 0.99761 0.26002 0.68244 0.0
O462 O 0.96827 0.24619 0.59012 0.0
O463 O 0.98181 0.23456 0.56268 0.0
O464 O 1.01536 0.25078 0.59693 0.0
O465 O 1.00675 0.2245 0.5617 0.0
O466 O 0.97133 0.18396 0.60713 0.0
O467 O 0.96951 0.19269 0.54538 0.0
O468 O 1.00489 0.21443 0.63234 0.0
O469 O 0.98955 0.22415 0.6571 0.0
O470 O 0.95479 0.20628 0.61908 0.0
O471 O 0.96279 0.23202 0.65535 0.0
H472 H 1.01928 0.30834 0.69888 0.0
H473 H 1.05122 0.33077 0.70532 0.0
H474 H 0.0653 0.29269 0.65665 0.0
H475 H 1.03356 0.26985 0.65433 0.0
H476 H 0.94308 0.1544 0.62866 0.0
H477 H 0.91767 0.12432 0.6184 0.0
H478 H 0.92172 0.13205 0.48515 0.0
H479 H 0.94736 0.16245 0.49558 0.0
La480 La 0.97225 0.54397 0.43264 0.0
La481 La 0.99705 0.58012 0.45366 0.0
C482 C 0.95501 0.51083 0.40993 0.0
C483 C 0.95472 0.49334 0.40053 0.0
C484 C 0.94072 0.47705 0.41646 0.0
C485 C 0.93902 0.46026 0.40591 0.0
C486 C 0.95132 0.45895 0.37898 0.0
C487 C 0.96537 0.47535 0.36304 0.0
C488 C 0.967 0.49214 0.37344 0.0
C489 C 0.96099 0.55722 0.49751 0.0
C490 C 1.00943 0.55168 0.47404 0.0
C491 C 1.0155 0.60848 0.49541 0.0
C492 C 1.01081 0.61997 0.51975 0.0
C493 C 1.02383 0.63362 0.54469 0.0
C494 C 1.0202 0.64608 0.56357 0.0
C495 C 1.00347 0.64506 0.5576 0.0
C496 C 0.98992 0.63035 0.53565 0.0
C497 C 0.99362 0.61797 0.51656 0.0
C498 C 1.00487 0.57434 0.37616 0.0
C499 C 0.96173 0.57215 0.40424 0.0
O500 O 0.95676 0.51642 0.44857 0.0
O501 O 0.96288 0.52441 0.38421 0.0
O502 O 0.95078 0.54621 0.46876 0.0
O503 O 0.97646 0.55946 0.48979 0.0
O504 O 0.99275 0.53972 0.46353 0.0
O505 O 1.0148 0.56899 0.4704 0.0
O506 O 1.01282 0.60816 0.45526 0.0
O507 O 1.00964 0.59246 0.51017 0.0
O508 O 1.00432 0.58826 0.3893 0.0
O509 O 0.99934 0.56293 0.4064 0.0
O510 O 0.97308 0.58223 0.43415 0.0
O511 O 0.96206 0.55758 0.392 0.0
H512 H 0.93082 0.47726 0.43699 0.0
H513 H 0.92811 0.44828 0.41946 0.0
H514 H 0.97508 0.47529 0.34169 0.0
H515 H 0.97782 0.50419 0.35985 0.0
H516 H 1.03711 0.6352 0.54769 0.0
H517 H 1.03103 0.65733 0.57984 0.0
H518 H 0.97686 0.6291 0.5309 0.0
H519 H 0.98332 0.60731 0.4978 0.0
La520 La 0.54721 0.44568 0.44157 0.0
La521 La 0.50985 0.43152 0.46057 0.0
C522 C 0.58038 0.46316 0.41935 0.0
C523 C 0.59798 0.48005 0.40876 0.0
C524 C 0.61448 0.48169 0.42172 0.0
C525 C 0.6313 0.49624 0.40914 0.0
C526 C 0.63246 0.50993 0.38285 0.0
C527 C 0.6158 0.50851 0.37112 0.0
C528 C 0.59899 0.49387 0.38348 0.0
C529 C 0.53508 0.41997 0.50324 0.0
C530 C 0.5359 0.47217 0.48604 0.0
C531 C 0.48038 0.41836 0.49916 0.0
C532 C 0.46757 0.39968 0.50943 0.0
C533 C 0.44997 0.39465 0.52071 0.0
C534 C 0.43691 0.37653 0.52213 0.0
C535 C 0.44133 0.36335 0.51156 0.0
C536 C 0.45922 0.36838 0.50325 0.0
C537 C 0.47231 0.38645 0.50287 0.0
C538 C 0.51639 0.44594 0.38373 0.0
C539 C 0.52024 0.40541 0.41479 0.0
O540 O 0.57491 0.45977 0.45813 0.0
O541 O 0.56671 0.45666 0.39329 0.0
O542 O 0.54748 0.4234 0.47597 0.0
O543 O 0.531 0.43218 0.49731 0.0
O544 O 0.54934 0.46969 0.47427 0.0
O545 O 0.51914 0.45897 0.48183 0.0
O546 O 0.48208 0.42199 0.45936 0.0
O547 O 0.49597 0.42514 0.51756 0.0
O548 O 0.50275 0.43081 0.39489 0.0
O549 O 0.52705 0.45199 0.41548 0.0
O550 O 0.50911 0.40692 0.44065 0.0
O551 O 0.5353 0.42021 0.40355 0.0
H552 H 0.61441 0.47133 0.44091 0.0
H553 H 0.6434 0.49637 0.41906 0.0
H554 H 0.6156 0.51873 0.352 0.0
H555 H 0.58676 0.49329 0.37273 0.0
H556 H 0.4461 0.4047 0.52589 0.0
H557 H 0.42308 0.37288 0.52783 0.0
H558 H 0.46284 0.35843 0.4946 0.0
H559 H 0.48592 0.39012 0.4951 0.0
La560 La 0.64477 0.11915 0.43664 0.0
La561 La 0.66035 0.09736 0.45252 0.0
C562 C 0.62681 0.13452 0.41603 0.0
C563 C 0.60959 0.1346 0.40542 0.0
C564 C 0.59287 0.12288 0.42375 0.0
C565 C 0.57745 0.12441 0.4153 0.0
C566 C 0.57809 0.13784 0.38851 0.0
C567 C 0.59493 0.14957 0.37048 0.0
C568 C 0.61026 0.14793 0.37865 0.0
C569 C 0.67166 0.13341 0.49661 0.0
C570 C 0.61915 0.08134 0.47975 0.0
C571 C 0.67458 0.08168 0.48903 0.0
C572 C 0.69332 0.08792 0.50074 0.0
C573 C 0.70727 0.09739 0.47229 0.0
C574 C 0.72493 0.10272 0.4832 0.0
C575 C 0.72915 0.09901 0.52318 0.0
C576 C 0.71518 0.09066 0.55252 0.0
C577 C 0.69743 0.08503 0.54126 0.0
C578 C 0.64432 0.08869 0.37705 0.0
C579 C 0.6842 0.13293 0.40328 0.0
O580 O 0.62976 0.13148 0.45449 0.0
O581 O 0.63408 0.12851 0.38911 0.0
O582 O 0.66785 0.14209 0.46934 0.0
O583 O 0.65948 0.11717 0.49106 0.0
O584 O 0.62106 0.09699 0.46841 0.0
O585 O 0.63285 0.07844 0.47495 0.0
O586 O 0.67089 0.08004 0.44916 0.0
O587 O 0.66711 0.08953 0.50864 0.0
O588 O 0.66011 0.09117 0.3861 0.0
O589 O 0.63862 0.09289 0.40996 0.0
O590 O 0.68465 0.12185 0.43115 0.0
O591 O 0.66836 0.1314 0.39383 0.0
H592 H 0.59171 0.11261 0.44501 0.0
H593 H 0.56501 0.11515 0.43057 0.0
H594 H 0.59628 0.15997 0.34942 0.0
H595 H 0.62287 0.15737 0.36426 0.0
H596 H 0.70451 0.10023 0.44107 0.0
H597 H 0.73501 0.1088 0.45915 0.0
H598 H 0.71781 0.08803 0.58401 0.0
H599 H 0.68688 0.07825 0.5641 0.0
La600 La 0.89523 0.61726 0.77942 0.0
La601 La 0.9317 0.64357 0.75881 0.0
C602 C 0.86213 0.59983 0.80214 0.0
C603 C 0.84477 0.59974 0.81235 0.0
C604 C 0.8335 0.58874 0.84465 0.0
C605 C 0.81637 0.58687 0.8523 0.0
C606 C 0.80976 0.59605 0.82813 0.0
C607 C 0.82114 0.60709 0.79579 0.0
C608 C 0.83816 0.6088 0.78791 0.0
C609 C 0.90905 0.60706 0.7139 0.0
C610 C 0.90221 0.65427 0.73707 0.0
C611 C 0.96127 0.6608 0.72226 0.0
C612 C 0.97571 0.65624 0.72138 0.0
C613 C 0.98332 0.65462 0.7588 0.0
C614 C 0.99484 0.64762 0.75869 0.0
C615 C 0.99889 0.64185 0.72127 0.0
C616 C 0.99128 0.64346 0.68384 0.0
C617 C 0.97991 0.65071 0.68383 0.0
C618 C 0.92524 0.64925 0.83726 0.0
C619 C 0.92493 0.60787 0.80565 0.0
O620 O 0.86771 0.60237 0.76341 0.0
O621 O 0.87576 0.60699 0.82824 0.0
O622 O 0.8975 0.59649 0.74109 0.0
O623 O 0.91125 0.62246 0.72295 0.0
O624 O 0.89058 0.63778 0.74954 0.0
O625 O 0.91967 0.65996 0.73856 0.0
O626 O 0.95793 0.66567 0.75827 0.0
O627 O 0.94652 0.64928 0.70327 0.0
O628 O 0.93921 0.64868 0.82419 0.0
O629 O 0.91394 0.64422 0.80658 0.0
O630 O 0.93532 0.62122 0.78037 0.0
O631 O 0.90888 0.60547 0.81606 0.0
H632 H 0.83784 0.58126 0.8638 0.0
H633 H 0.80838 0.57835 0.87765 0.0
H634 H 0.81675 0.61426 0.7757 0.0
H635 H 0.84604 0.61702 0.76211 0.0
H636 H 0.98017 0.65847 0.78845 0.0
H637 H 1.00082 0.64706 0.78801 0.0
H638 H 0.99398 0.63892 0.65461 0.0
H639 H 0.97388 0.65141 0.65467 0.0
La640 La 0.47143 0.29223 0.78031 0.0
La641 La 0.44875 0.30614 0.76094 0.0
C642 C 0.48676 0.27411 0.80047 0.0
C643 C 0.48714 0.2568 0.80769 0.0
C644 C 0.49207 0.24901 0.77523 0.0
C645 C 0.49591 0.2351 0.78288 0.0
C646 C 0.49508 0.22825 0.82345 0.0
C647 C 0.48936 0.23546 0.85575 0.0
C648 C 0.48563 0.24954 0.84809 0.0
C649 C 0.48399 0.31745 0.71727 0.0
C650 C 0.43519 0.26693 0.72959 0.0
C651 C 0.43686 0.32654 0.74097 0.0
C652 C 0.44532 0.34616 0.7445 0.0
C653 C 0.44186 0.35597 0.71483 0.0
C654 C 0.44841 0.3743 0.72097 0.0
C655 C 0.45877 0.38311 0.75664 0.0
C656 C 0.46355 0.37347 0.784 0.0
C657 C 0.45655 0.35518 0.77859 0.0
C658 C 0.4343 0.28294 0.82482 0.0
C659 C 0.48547 0.33075 0.81358 0.0
O660 O 0.48559 0.27897 0.76249 0.0
O661 O 0.47915 0.27977 0.82715 0.0
O662 O 0.49355 0.31481 0.74462 0.0
O663 O 0.46806 0.30468 0.72311 0.0
O664 O 0.44769 0.26775 0.75517 0.0
O665 O 0.43455 0.28176 0.72208 0.0
O666 O 0.43339 0.31802 0.77639 0.0
O667 O 0.44406 0.32053 0.71418 0.0
O668 O 0.4262 0.28412 0.79199 0.0
O669 O 0.45119 0.29451 0.81965 0.0
O670 O 0.47292 0.33004 0.78824 0.0
O671 O 0.48595 0.31588 0.82062 0.0
H672 H 0.49369 0.25417 0.74377 0.0
H673 H 0.49995 0.22994 0.75674 0.0
H674 H 0.4886 0.23082 0.88747 0.0
H675 H 0.48223 0.25524 0.8743 0.0
H676 H 0.43336 0.3493 0.68808 0.0
H677 H 0.44428 0.3812 0.69933 0.0
H678 H 0.47166 0.37977 0.81145 0.0
H679 H 0.45921 0.34803 0.80258 0.0
La680 La 0.80116 0.1959 0.7743 0.0
La681 La 0.7834 0.15573 0.76031 0.0
C682 C 0.8191 0.22856 0.79951 0.0
C683 C 0.83613 0.24545 0.81322 0.0
C684 C 0.8349 0.25827 0.83849 0.0
C685 C 0.85011 0.27518 0.84775 0.0
C686 C 0.86735 0.28005 0.83237 0.0
C687 C 0.86855 0.26707 0.80729 0.0
C688 C 0.85329 0.25022 0.7977 0.0
C689 C 0.77651 0.18442 0.7077 0.0
C690 C 0.82448 0.18113 0.72926 0.0
C691 C 0.76703 0.12513 0.72696 0.0
C692 C 0.7477 0.11274 0.72181 0.0
C693 C 0.7413 0.09492 0.71008 0.0
C694 C 0.72296 0.08247 0.71306 0.0
C695 C 0.71083 0.08777 0.72771 0.0
C696 C 0.71717 0.10596 0.73562 0.0
C697 C 0.73544 0.11822 0.73334 0.0
C698 C 0.80085 0.16486 0.83383 0.0
C699 C 0.76095 0.17103 0.80626 0.0
O700 O 0.81769 0.2233 0.76059 0.0
O701 O 0.81028 0.21486 0.82471 0.0
O702 O 0.78686 0.20081 0.72018 0.0
O703 O 0.78156 0.17638 0.73228 0.0
O704 O 0.82406 0.19511 0.74537 0.0
O705 O 0.81 0.1648 0.73054 0.0
O706 O 0.77262 0.12797 0.7657 0.0
O707 O 0.77357 0.14006 0.7059 0.0
O708 O 0.78514 0.15113 0.82623 0.0
O709 O 0.80593 0.1743 0.79996 0.0
O710 O 0.76034 0.15811 0.78248 0.0
O711 O 0.77654 0.18604 0.81306 0.0
H712 H 0.82195 0.25535 0.85054 0.0
H713 H 0.84831 0.2844 0.8674 0.0
H714 H 0.88132 0.27005 0.79402 0.0
H715 H 0.85489 0.24102 0.77748 0.0
H716 H 0.75056 0.09041 0.70121 0.0
H717 H 0.71859 0.0685 0.70719 0.0
H718 H 0.70818 0.11049 0.74651 0.0
H719 H 0.74003 0.13177 0.74302 0.0
La720 La 0.44741 0.16076 0.25618 0.0
La721 La 0.47271 0.19597 0.27975 0.0
C722 C 0.43044 0.1306 0.22257 0.0
C723 C 0.43184 0.11502 0.23656 0.0
C724 C 0.4228 0.10582 0.27279 0.0
C725 C 0.42799 0.09498 0.29361 0.0
C726 C 0.4422 0.09294 0.27851 0.0
C727 C 0.45034 0.10095 0.2406 0.0
C728 C 0.44521 0.11193 0.21977 0.0
C729 C 0.44019 0.16602 0.33478 0.0
C730 C 0.48103 0.16617 0.30985 0.0
C731 C 0.49055 0.22903 0.30233 0.0
C732 C 0.49111 0.24661 0.31176 0.0
C733 C 0.50637 0.26298 0.30048 0.0
C734 C 0.50835 0.27977 0.31221 0.0
C735 C 0.49515 0.28094 0.33596 0.0
C736 C 0.47954 0.26445 0.34588 0.0
C737 C 0.47761 0.24767 0.33426 0.0
C738 C 0.48522 0.18265 0.21816 0.0
C739 C 0.43704 0.1901 0.23283 0.0
O740 O 0.42301 0.13661 0.24881 0.0
O741 O 0.44519 0.14365 0.20697 0.0
O742 O 0.44106 0.15235 0.32098 0.0
O743 O 0.44556 0.1776 0.30503 0.0
O744 O 0.46851 0.15608 0.28232 0.0
O745 O 0.48328 0.18217 0.31967 0.0
O746 O 0.48858 0.22343 0.26364 0.0
O747 O 0.48249 0.2155 0.32816 0.0
O748 O 0.49423 0.19327 0.24858 0.0
O749 O 0.46953 0.18082 0.2212 0.0
O750 O 0.45287 0.20136 0.24928 0.0
O751 O 0.43184 0.17284 0.23076 0.0
H752 H 0.41237 0.10776 0.28649 0.0
H753 H 0.42098 0.08832 0.32193 0.0
H754 H 0.46106 0.09923 0.22788 0.0
H755 H 0.45245 0.11883 0.1919 0.0
H756 H 0.51714 0.26281 0.28336 0.0
H757 H 0.52062 0.29182 0.30387 0.0
H758 H 0.4687 0.26439 0.36312 0.0
H759 H 0.46563 0.23551 0.34349 0.0
La760 La 0.93304 0.30569 0.25652 0.0
La761 La 0.89666 0.29424 0.27679 0.0
C762 C 0.96499 0.32392 0.23222 0.0
C763 C 0.97703 0.34334 0.23058 0.0
C764 C 0.99526 0.35018 0.239 0.0
C765 C 1.00643 0.36848 0.24523 0.0
C766 C 0.99952 0.38019 0.24324 0.0
C767 C 0.98149 0.37357 0.23253 0.0
C768 C 0.97026 0.35516 0.22623 0.0
C769 C 0.92348 0.28375 0.32295 0.0
C770 C 0.92393 0.33336 0.30531 0.0
C771 C 0.86325 0.27709 0.29817 0.0
C772 C 0.84559 0.2597 0.30632 0.0
C773 C 0.83373 0.24999 0.27336 0.0
C774 C 0.81604 0.2358 0.28087 0.0
C775 C 0.80913 0.23056 0.32177 0.0
C776 C 0.82123 0.23979 0.35486 0.0
C777 C 0.83898 0.25411 0.34729 0.0
C778 C 0.91012 0.31788 0.21088 0.0
C779 C 0.90613 0.26706 0.22745 0.0
O780 O 0.96053 0.31742 0.26984 0.0
O781 O 0.95118 0.31732 0.20703 0.0
O782 O 0.93266 0.28385 0.29093 0.0
O783 O 0.91893 0.29578 0.3159 0.0
O784 O 0.93535 0.33046 0.28356 0.0
O785 O 0.90731 0.31999 0.31118 0.0
O786 O 0.86913 0.28147 0.25992 0.0
O787 O 0.87671 0.28302 0.32456 0.0
O788 O 0.89888 0.31728 0.23872 0.0
O789 O 0.91213 0.30455 0.21922 0.0
O790 O 0.89478 0.26879 0.2526 0.0
O791 O 0.92182 0.28128 0.21934 0.0
H792 H 1.00067 0.34128 0.24269 0.0
H793 H 1.02039 0.37345 0.2533 0.0
H794 H 0.97598 0.38245 0.23093 0.0
H795 H 0.95616 0.35011 0.21983 0.0
H796 H 0.83789 0.25373 0.24132 0.0
H797 H 0.80762 0.22908 0.2541 0.0
H798 H 0.81674 0.23651 0.38684 0.0
H799 H 0.84735 0.26128 0.37381 0.0
La800 La 0.78487 0.64557 0.26258 0.0
La801 La 0.79845 0.62172 0.28047 0.0
C802 C 0.77207 0.66218 0.22395 0.0
C803 C 0.75385 0.65533 0.20755 0.0
C804 C 0.74807 0.66717 0.19507 0.0
C805 C 0.72986 0.66074 0.18723 0.0
C806 C 0.7173 0.64247 0.19242 0.0
C807 C 0.72328 0.63047 0.20196 0.0
C808 C 0.7415 0.63687 0.20896 0.0
C809 C 0.79904 0.65286 0.33987 0.0
C810 C 0.75793 0.60834 0.30464 0.0
C811 C 0.81641 0.6064 0.30226 0.0
C812 C 0.83417 0.6068 0.31085 0.0
C813 C 0.84474 0.60614 0.27791 0.0
C814 C 0.85932 0.60317 0.28526 0.0
C815 C 0.86414 0.6006 0.32594 0.0
C816 C 0.85407 0.60203 0.35915 0.0
C817 C 0.83934 0.60491 0.35173 0.0
C818 C 0.77427 0.61074 0.21489 0.0
C819 C 0.82557 0.65997 0.2388 0.0
O820 O 0.77317 0.66194 0.26454 0.0
O821 O 0.78132 0.6558 0.20614 0.0
O822 O 0.78412 0.65182 0.32818 0.0
O823 O 0.80497 0.64805 0.3083 0.0
O824 O 0.75987 0.62119 0.27905 0.0
O825 O 0.77257 0.60782 0.31665 0.0
O826 O 0.81215 0.60794 0.26381 0.0
O827 O 0.80981 0.61327 0.32875 0.0
O828 O 0.77588 0.60029 0.24147 0.0
O829 O 0.78681 0.6263 0.22471 0.0
O830 O 0.82268 0.64375 0.24884 0.0
O831 O 0.81266 0.6639 0.2442 0.0
H832 H 0.75741 0.68144 0.19384 0.0
H833 H 0.7254 0.67023 0.1807 0.0
H834 H 0.71377 0.6164 0.20668 0.0
H835 H 0.74579 0.62753 0.21792 0.0
H836 H 0.84138 0.6073 0.24591 0.0
H837 H 0.86666 0.60253 0.2585 0.0
H838 H 0.85702 0.60008 0.39094 0.0
H839 H 0.83152 0.60497 0.37815 0.0
La840 La 0.50842 0.09427 0.95126 0.0
La841 La 0.54869 0.11709 0.93993 0.0
C842 C 0.47732 0.07953 0.98175 0.0
C843 C 0.46433 0.08587 0.98388 0.0
C844 C 0.44617 0.07374 0.99094 0.0
C845 C 0.43338 0.07904 0.98474 0.0
C846 C 0.43865 0.09651 0.97107 0.0
C847 C 0.45697 0.10895 0.96712 0.0
C848 C 0.46968 0.10365 0.97345 0.0
C849 C 0.5186 0.08693 0.87834 0.0
C850 C 0.52367 0.13208 0.90642 0.0
C851 C 0.58156 0.1322 0.91646 0.0
C852 C 0.59918 0.13272 0.90651 0.0
C853 C 0.61149 0.13536 0.93879 0.0
C854 C 0.62926 0.13946 0.93026 0.0
C855 C 0.63569 0.14108 0.88901 0.0
C856 C 0.62319 0.13761 0.85653 0.0
C857 C 0.60534 0.13371 0.86511 0.0
C858 C 0.53643 0.12983 1.0055 0.0
C859 C 0.53419 0.079 0.98393 0.0
O860 O 0.48083 0.07643 0.94394 0.0
O861 O 0.49194 0.08854 1.004 0.0
O862 O 0.50473 0.08884 0.88473 0.0
O863 O 0.52757 0.09087 0.91296 0.0
O864 O 0.51054 0.11955 0.92916 0.0
O865 O 0.53888 0.13172 0.90064 0.0
O866 O 0.57611 0.12982 0.95529 0.0
O867 O 0.56793 0.12588 0.89023 0.0
O868 O 0.55293 0.13616 0.99362 0.0
O869 O 0.5286 0.11666 0.98091 0.0
O870 O 0.54825 0.09371 0.9694 0.0
O871 O 0.51769 0.07685 0.9813 0.0
H872 H 0.44177 0.05994 0.9988 0.0
H873 H 0.41931 0.06906 0.98745 0.0
H874 H 0.46138 0.12247 0.95677 0.0
H875 H 0.48358 0.11323 0.96786 0.0
H876 H 0.60765 0.13503 0.97111 0.0
H877 H 0.63819 0.14179 0.95639 0.0
H878 H 0.62745 0.13881 0.82433 0.0
H879 H 0.59658 0.13215 0.83917 0.0
La880 La 0.99904 0.43646 0.9573 0.0
La881 La 0.97202 0.44455 0.934 0.0
C882 C 1.01509 0.42037 0.98184 0.0
C883 C 1.01111 0.40178 0.97467 0.0
C884 C 1.01784 0.39771 0.93899 0.0
C885 C 1.01258 0.38006 0.92905 0.0
C886 C 1.00027 0.36589 0.95427 0.0
C887 C 0.99408 0.36998 0.991 0.0
C888 C 0.99965 0.3878 1.00136 0.0
C889 C 1.00982 0.45702 0.88838 0.0
C890 C 0.96346 0.40654 0.90619 0.0
C891 C 0.9545 0.46021 0.91078 0.0
C892 C 0.95456 0.47763 0.90133 0.0
C893 C 0.94272 0.48188 0.92256 0.0
C894 C 0.94108 0.497 0.91175 0.0
C895 C 0.95126 0.5087 0.87916 0.0
C896 C 0.96311 0.50436 0.85793 0.0
C897 C 0.96468 0.4892 0.86863 0.0
C898 C 0.96233 0.42163 1.0011 0.0
C899 C 1.00756 0.47464 0.98243 0.0
O900 O 1.01958 0.43044 0.94872 0.0
O901 O 1.00383 0.42255 1.00506 0.0
O902 O 1.01914 0.45885 0.92159 0.0
O903 O 0.99368 0.44414 0.89621 0.0
O904 O 0.9786 0.41096 0.92675 0.0
O905 O 0.9585 0.4187 0.90084 0.0
O906 O 0.95608 0.45632 0.94943 0.0
O907 O 0.9624 0.45436 0.88534 0.0
O908 O 0.95178 0.42148 0.97193 0.0
O909 O 0.97763 0.43534 0.9931 0.0
O910 O 0.99393 0.47073 0.95693 0.0
O911 O 1.01119 0.4619 0.99251 0.0
H912 H 1.02706 0.40818 0.91825 0.0
H913 H 1.01843 0.37761 0.90167 0.0
H914 H 0.98486 0.35945 1.01155 0.0
H915 H 0.99472 0.3906 0.02983 0.0
H916 H 0.93441 0.47326 0.94744 0.0
H917 H 0.93189 0.4996 0.92943 0.0
H918 H 0.97107 0.51251 0.83211 0.0
H919 H 0.9737 0.48643 0.85071 0.0
La920 La 0.65935 0.5818 0.95129 0.0
La921 La 0.64584 0.54398 0.93739 0.0
C922 C 0.67267 0.61305 0.98034 0.0
C923 C 0.69063 0.62872 0.9729 0.0
C924 C 0.69348 0.63994 0.93866 0.0
C925 C 0.71085 0.65275 0.92722 0.0
C926 C 0.72583 0.6545 0.94933 0.0
C927 C 0.72289 0.64392 0.98497 0.0
C928 C 0.70546 0.63139 0.997 0.0
C929 C 0.64499 0.57319 0.8748 0.0
C930 C 0.68531 0.57104 0.9054 0.0
C931 C 0.62838 0.51051 0.91774 0.0
C932 C 0.61093 0.49295 0.90908 0.0
C933 C 0.60077 0.48151 0.94197 0.0
C934 C 0.58655 0.46385 0.93444 0.0
C935 C 0.58171 0.45658 0.89362 0.0
C936 C 0.59137 0.46827 0.8605 0.0
C937 C 0.60574 0.48599 0.8681 0.0
C938 C 0.67106 0.55863 1.00095 0.0
C939 C 0.61908 0.55514 0.98012 0.0
O940 O 0.66174 0.60729 0.94838 0.0
O941 O 0.67246 0.59982 1.00053 0.0
O942 O 0.66051 0.58669 0.88457 0.0
O943 O 0.639 0.56326 0.9076 0.0
O944 O 0.68401 0.58308 0.92847 0.0
O945 O 0.67081 0.55505 0.8988 0.0
O946 O 0.63227 0.5168 0.95597 0.0
O947 O 0.63498 0.52359 0.89041 0.0
O948 O 0.66876 0.5458 0.97591 0.0
O949 O 0.65847 0.56169 0.99103 0.0
O950 O 0.6215 0.54179 0.96774 0.0
O951 O 0.63231 0.57191 0.97671 0.0
H952 H 0.68233 0.63852 0.91995 0.0
H953 H 0.71246 0.66125 0.90083 0.0
H954 H 0.73403 0.64501 1.00312 0.0
H955 H 0.70364 0.62334 0.02439 0.0
H956 H 0.6042 0.48596 0.97403 0.0
H957 H 0.57949 0.45571 0.96115 0.0
H958 H 0.5884 0.46346 0.82861 0.0
H959 H 0.61327 0.49404 0.84169 0.0
La960 La 0.64261 0.87845 0.77056 0.0
La961 La 0.6651 0.91562 0.78827 0.0
C962 C 0.62673 0.84501 0.75057 0.0
C963 C 0.6268 0.82774 0.74007 0.0
C964 C 0.61608 0.81192 0.76305 0.0
C965 C 0.6141 0.79513 0.75106 0.0
C966 C 0.6228 0.79334 0.71546 0.0
C967 C 0.63356 0.80926 0.69256 0.0
C968 C 0.63546 0.826 0.70445 0.0
C969 C 0.63031 0.89202 0.83313 0.0
C970 C 0.68084 0.89026 0.81293 0.0
C971 C 0.67987 0.94488 0.82806 0.0
C972 C 0.67273 0.95677 0.83777 0.0
C973 C 0.68394 0.97403 0.85343 0.0
C974 C 0.67771 0.98623 0.85553 0.0
C975 C 0.66039 0.98131 0.84099 0.0
C976 C 0.64889 0.9637 0.82791 0.0
C977 C 0.65487 0.9514 0.82736 0.0
C978 C 0.67387 0.90921 0.71224 0.0
C979 C 0.62961 0.90411 0.73618 0.0
O980 O 0.62934 0.85104 0.78901 0.0
O981 O 0.6331 0.85825 0.7238 0.0
O982 O 0.62048 0.8803 0.80512 0.0
O983 O 0.64593 0.89462 0.82609 0.0
O984 O 0.66509 0.87672 0.80089 0.0
O985 O 0.684 0.90693 0.80925 0.0
O986 O 0.68256 0.94349 0.78848 0.0
O987 O 0.67145 0.92923 0.84577 0.0
O988 O 0.67213 0.92277 0.72314 0.0
O989 O 0.66907 0.89849 0.74381 0.0
O990 O 0.64062 0.91538 0.76472 0.0
O991 O 0.63082 0.88971 0.72691 0.0
H992 H 0.60886 0.81245 0.79019 0.0
H993 H 0.60581 0.78353 0.77009 0.0
H994 H 0.64032 0.80881 0.6645 0.0
H995 H 0.64352 0.83757 0.68512 0.0
H996 H 0.69772 0.97834 0.86194 0.0
H997 H 0.68691 0.99989 0.86507 0.0
H998 H 0.63571 0.95983 0.81556 0.0
H999 H 0.64584 0.93799 0.8165 0.0
La1000 La 0.21492 0.77834 0.76762 0.0
La1001 La 0.17834 0.76618 0.78759 0.0
C1002 C 0.24836 0.79615 0.74677 0.0
C1003 C 0.26574 0.81386 0.73897 0.0
C1004 C 0.27731 0.82375 0.77219 0.0
C1005 C 0.29485 0.83828 0.76507 0.0
C1006 C 0.30188 0.8437 0.72432 0.0
C1007 C 0.29004 0.8343 0.69096 0.0
C1008 C 0.27244 0.81963 0.69813 0.0
C1009 C 0.20174 0.75475 0.83351 0.0
C1010 C 0.20484 0.80481 0.81782 0.0
C1011 C 0.14624 0.74729 0.81037 0.0
C1012 C 0.13331 0.72817 0.80469 0.0
C1013 C 0.11623 0.7233 0.78941 0.0
C1014 C 0.10456 0.70573 0.77723 0.0
C1015 C 0.10973 0.69266 0.78027 0.0
C1016 C 0.12651 0.69724 0.79736 0.0
C1017 C 0.13835 0.715 0.80921 0.0
C1018 C 0.18751 0.7887 0.72332 0.0
C1019 C 0.18799 0.73918 0.73743 0.0
O1020 O 0.24241 0.79161 0.78493 0.0
O1021 O 0.23497 0.78995 0.72015 0.0
O1022 O 0.21297 0.75541 0.80557 0.0
O1023 O 0.19943 0.76789 0.82512 0.0
O1024 O 0.21627 0.80341 0.79232 0.0
O1025 O 0.1893 0.79034 0.82604 0.0
O1026 O 0.15102 0.75649 0.77585 0.0
O1027 O 0.15994 0.75148 0.83487 0.0
O1028 O 0.17779 0.7877 0.75503 0.0
O1029 O 0.19277 0.77707 0.72859 0.0
O1030 O 0.17622 0.74193 0.75802 0.0
O1031 O 0.20473 0.75259 0.73315 0.0
H1032 H 0.27307 0.81989 0.80414 0.0
H1033 H 0.3031 0.8451 0.79199 0.0
H1034 H 0.29465 0.83771 0.65909 0.0
H1035 H 0.26429 0.81234 0.67144 0.0
H1036 H 0.11215 0.73325 0.78549 0.0
H1037 H 0.09149 0.70235 0.76484 0.0
H1038 H 0.13063 0.68729 0.80022 0.0
H1039 H 0.15159 0.7185 0.8206 0.0
La1040 La 0.31374 0.45239 0.77041 0.0
La1041 La 0.32747 0.42921 0.79039 0.0
C1042 C 0.29633 0.46805 0.74711 0.0
C1043 C 0.2792 0.46825 0.73554 0.0
C1044 C 0.2799 0.48094 0.70657 0.0
C1045 C 0.26473 0.48286 0.69789 0.0
C1046 C 0.24803 0.47209 0.71762 0.0
C1047 C 0.24738 0.45931 0.74662 0.0
C1048 C 0.26261 0.4575 0.75553 0.0
C1049 C 0.33931 0.46595 0.83319 0.0
C1050 C 0.28661 0.41453 0.81383 0.0
C1051 C 0.34082 0.41328 0.82963 0.0
C1052 C 0.3596 0.41999 0.84132 0.0
C1053 C 0.36565 0.40801 0.85019 0.0
C1054 C 0.38404 0.41422 0.85314 0.0
C1055 C 0.39659 0.43245 0.84666 0.0
C1056 C 0.3904 0.44455 0.84048 0.0
C1057 C 0.37203 0.43837 0.83828 0.0
C1058 C 0.31308 0.42098 0.71316 0.0
C1059 C 0.3541 0.46519 0.74407 0.0
O1060 O 0.29902 0.46527 0.78598 0.0
O1061 O 0.30365 0.46169 0.7212 0.0
O1062 O 0.33614 0.47488 0.8053 0.0
O1063 O 0.32695 0.44976 0.82712 0.0
O1064 O 0.28926 0.43044 0.80177 0.0
O1065 O 0.29988 0.41101 0.81059 0.0
O1066 O 0.33772 0.41158 0.78955 0.0
O1067 O 0.33309 0.42123 0.84774 0.0
O1068 O 0.32815 0.42237 0.72498 0.0
O1069 O 0.30709 0.42586 0.74445 0.0
O1070 O 0.35234 0.45279 0.7708 0.0
O1071 O 0.33937 0.4657 0.73271 0.0
H1072 H 0.29241 0.4897 0.69088 0.0
H1073 H 0.26611 0.49275 0.67518 0.0
H1074 H 0.23509 0.45081 0.76333 0.0
H1075 H 0.26142 0.44778 0.77854 0.0
H1076 H 0.35624 0.39379 0.85248 0.0
H1077 H 0.38842 0.40451 0.85725 0.0
H1078 H 0.39977 0.45864 0.83553 0.0
H1079 H 0.36759 0.44785 0.83207 0.0
La1080 La 0.56456 0.9525 0.11549 0.0
La1081 La 0.59931 0.97785 0.08541 0.0
C1082 C 0.53172 0.9354 0.1405 0.0
C1083 C 0.5144 0.93557 0.14996 0.0
C1084 C 0.49834 0.92381 0.12852 0.0
C1085 C 0.4816 0.92227 0.13927 0.0
C1086 C 0.48011 0.93247 0.17203 0.0
C1087 C 0.49626 0.94424 0.19348 0.0
C1088 C 0.51297 0.94572 0.18281 0.0
C1089 C 0.57624 0.94008 0.04977 0.0
C1090 C 0.56948 0.98779 0.06801 0.0
C1091 C 0.6284 0.99054 0.0456 0.0
C1092 C 0.63951 0.98313 0.03075 0.0
C1093 C 0.654 0.99323 1.00421 0.0
C1094 C 0.66618 0.98744 0.99505 0.0
C1095 C 0.66405 0.97155 1.01269 0.0
C1096 C 0.64855 0.96064 0.03591 0.0
C1097 C 0.63637 0.96641 0.04481 0.0
C1098 C 0.59288 0.99225 0.15293 0.0
C1099 C 0.59429 0.94434 0.1434 0.0
O1100 O 0.53677 0.93632 0.10166 0.0
O1101 O 0.54571 0.94376 0.16522 0.0
O1102 O 0.56704 0.93106 0.08184 0.0
O1103 O 0.5778 0.95553 0.05488 0.0
O1104 O 0.5599 0.97409 0.09297 0.0
O1105 O 0.58568 0.99125 0.05658 0.0
O1106 O 0.62748 0.99179 0.08615 0.0
O1107 O 0.61268 0.984 0.02783 0.0
O1108 O 0.60189 1.00056 0.12007 0.0
O1109 O 0.58762 0.97535 0.14809 0.0
O1110 O 0.60427 0.95768 0.1174 0.0
O1111 O 0.57772 0.94065 0.15207 0.0
H1112 H 0.49865 0.91548 0.10351 0.0
H1113 H 0.46981 0.91314 0.12144 0.0
H1114 H 0.49604 0.9522 0.21941 0.0
H1115 H 0.52476 0.95468 0.20086 0.0
H1116 H 0.65646 1.00605 0.99254 0.0
H1117 H 0.6781 0.99622 0.97736 0.0
H1118 H 0.64658 0.94834 0.04979 0.0
H1119 H 0.6251 0.95827 0.06459 0.0
La1120 La 0.13821 0.62608 0.10803 0.0
La1121 La 0.11516 0.64125 0.09678 0.0
C1122 C 0.15428 0.60865 0.12641 0.0
C1123 C 0.15672 0.59291 0.13825 0.0
C1124 C 0.14354 0.57469 0.13281 0.0
C1125 C 0.1473 0.56069 0.14227 0.0
C1126 C 0.16444 0.56446 0.15676 0.0
C1127 C 0.17732 0.5827 0.16279 0.0
C1128 C 0.17352 0.59652 0.15395 0.0
C1129 C 0.14935 0.65148 0.04503 0.0
C1130 C 0.09982 0.60062 0.06638 0.0
C1131 C 0.09773 0.6559 0.0724 0.0
C1132 C 0.10022 0.67358 0.0844 0.0
C1133 C 0.09021 0.67491 0.1173 0.0
C1134 C 0.09456 0.6916 0.13366 0.0
C1135 C 0.1092 0.70738 0.11791 0.0
C1136 C 0.11865 0.70609 0.08358 0.0
C1137 C 0.114 0.68938 0.0666 0.0
C1138 C 0.10916 0.62602 0.17224 0.0
C1139 C 0.15243 0.66541 0.14214 0.0
O1140 O 0.14954 0.61028 0.08847 0.0
O1141 O 0.14938 0.61663 0.15408 0.0
O1142 O 0.1596 0.64839 0.06916 0.0
O1143 O 0.13354 0.63952 0.05534 0.0
O1144 O 0.11494 0.60198 0.08061 0.0
O1145 O 0.09742 0.61471 0.06809 0.0
O1146 O 0.09221 0.64391 0.10192 0.0
O1147 O 0.11074 0.65608 0.05109 0.0
O1148 O 0.11192 0.64192 0.16408 0.0
O1149 O 0.11255 0.62009 0.1385 0.0
O1150 O 0.1399 0.66543 0.11821 0.0
O1151 O 0.15189 0.64995 0.14952 0.0
H1152 H 0.13044 0.57126 0.12068 0.0
H1153 H 0.13698 0.54693 0.13678 0.0
H1154 H 0.19061 0.5864 0.1741 0.0
H1155 H 0.18405 0.61027 0.15864 0.0
H1156 H 0.07928 0.66302 0.1312 0.0
H1157 H 0.08637 0.69207 0.15876 0.0
H1158 H 0.12982 0.71792 0.07022 0.0
H1159 H 0.12155 0.68886 0.04023 0.0
La1160 La 0.46598 0.5296 0.11692 0.0
La1161 La 0.45322 0.49297 0.09573 0.0
C1162 C 0.48348 0.56282 0.1391 0.0
C1163 C 0.50104 0.58044 0.14587 0.0
C1164 C 0.50965 0.59229 0.1124 0.0
C1165 C 0.52388 0.61 0.11908 0.0
C1166 C 0.53028 0.61688 0.15959 0.0
C1167 C 0.52223 0.60479 0.19306 0.0
C1168 C 0.50782 0.58702 0.18635 0.0
C1169 C 0.43992 0.51634 0.05513 0.0
C1170 C 0.49347 0.52082 0.06974 0.0
C1171 C 0.43888 0.46333 0.05771 0.0
C1172 C 0.41959 0.4504 0.05507 0.0
C1173 C 0.41236 0.43755 1.02318 0.0
C1174 C 0.39377 0.42577 1.02128 0.0
C1175 C 0.38221 0.42718 0.05042 0.0
C1176 C 0.38962 0.44097 0.08023 0.0
C1177 C 0.40805 0.45186 0.08352 0.0
C1178 C 0.46718 0.49887 0.17277 0.0
C1179 C 0.42781 0.50262 0.14904 0.0
O1180 O 0.47821 0.55701 0.10103 0.0
O1181 O 0.47822 0.54938 0.16507 0.0
O1182 O 0.44243 0.52833 0.083 0.0
O1183 O 0.45312 0.51373 0.06044 0.0
O1184 O 0.48949 0.53299 0.08273 0.0
O1185 O 0.48131 0.50355 0.07294 0.0
O1186 O 0.44598 0.46575 0.09489 0.0
O1187 O 0.4436 0.47856 0.03957 0.0
O1188 O 0.45201 0.4854 0.16079 0.0
O1189 O 0.4734 0.50995 0.14187 0.0
O1190 O 0.42837 0.49213 0.11943 0.0
O1191 O 0.44293 0.51723 0.15974 0.0
H1192 H 0.50495 0.58813 0.08074 0.0
H1193 H 0.52968 0.6185 0.09209 0.0
H1194 H 0.52646 0.60932 0.22478 0.0
H1195 H 0.50151 0.57863 0.21325 0.0
H1196 H 0.42105 0.43635 1.00053 0.0
H1197 H 0.38863 0.41517 0.99813 0.0
H1198 H 0.38126 0.4428 0.10265 0.0
H1199 H 0.41323 0.46116 0.10917 0.0
La1200 La 0.11374 0.49109 0.58951 0.0
La1201 La 0.13848 0.52749 0.61 0.0
C1202 C 0.09982 0.4592 0.56372 0.0
C1203 C 0.10639 0.44645 0.56136 0.0
C1204 C 0.09397 0.42814 0.55906 0.0
C1205 C 0.09963 0.41567 0.56469 0.0
C1206 C 0.11775 0.42138 0.57346 0.0
C1207 C 0.13036 0.43974 0.57313 0.0
C1208 C 0.12474 0.4522 0.56634 0.0
C1209 C 0.10102 0.50073 0.65562 0.0
C1210 C 0.15049 0.50038 0.6393 0.0
C1211 C 0.15507 0.56086 0.63147 0.0
C1212 C 0.15566 0.57855 0.64054 0.0
C1213 C 0.1703 0.59481 0.62628 0.0
C1214 C 0.17227 0.61173 0.63677 0.0
C1215 C 0.15958 0.61324 0.66192 0.0
C1216 C 0.14489 0.59687 0.67618 0.0
C1217 C 0.14301 0.57995 0.66592 0.0
C1218 C 0.14875 0.51406 0.54394 0.0
C1219 C 0.10191 0.518 0.5602 0.0
O1220 O 0.09775 0.46359 0.60149 0.0
O1221 O 0.10775 0.47315 0.53952 0.0
O1222 O 0.09212 0.49149 0.62337 0.0
O1223 O 0.11767 0.50533 0.64891 0.0
O1224 O 0.13603 0.48878 0.61816 0.0
O1225 O 0.1538 0.51706 0.64429 0.0
O1226 O 0.15339 0.55504 0.59304 0.0
O1227 O 0.14721 0.54743 0.65751 0.0
O1228 O 0.15936 0.52526 0.57192 0.0
O1229 O 0.13337 0.51196 0.55237 0.0
O1230 O 0.11498 0.52943 0.58532 0.0
O1231 O 0.10044 0.50227 0.55242 0.0
H1232 H 0.07979 0.42348 0.55515 0.0
H1233 H 0.0896 0.40158 0.56537 0.0
H1234 H 0.14437 0.44441 0.57988 0.0
H1235 H 0.13462 0.4663 0.56694 0.0
H1236 H 0.18051 0.59447 0.60716 0.0
H1237 H 0.18369 0.62367 0.62455 0.0
H1238 H 0.13483 0.59705 0.69613 0.0
H1239 H 0.13169 0.56794 0.67826 0.0
La1240 La 0.59944 0.63797 0.58952 0.0
La1241 La 0.56386 0.62885 0.61245 0.0
C1242 C 0.62742 0.64778 0.54683 0.0
C1243 C 0.63942 0.66548 0.52922 0.0
C1244 C 0.6567 0.67004 0.51639 0.0
C1245 C 0.66904 0.68778 0.50645 0.0
C1246 C 0.66421 0.7012 0.50907 0.0
C1247 C 0.6464 0.6962 0.51873 0.0
C1248 C 0.63422 0.67855 0.5293 0.0
C1249 C 0.59413 0.62579 0.6681 0.0
C1250 C 0.59417 0.66772 0.63642 0.0
C1251 C 0.53077 0.61396 0.63565 0.0
C1252 C 0.51309 0.59701 0.64526 0.0
C1253 C 0.49711 0.59784 0.64853 0.0
C1254 C 0.48036 0.58257 0.65848 0.0
C1255 C 0.47875 0.56566 0.66575 0.0
C1256 C 0.49483 0.56485 0.66139 0.0
C1257 C 0.51159 0.58015 0.65152 0.0
C1258 C 0.57733 0.65252 0.54661 0.0
C1259 C 0.56984 0.59805 0.57065 0.0
O1260 O 0.62715 0.64719 0.58751 0.0
O1261 O 0.61125 0.6395 0.53119 0.0
O1262 O 0.60826 0.63967 0.6537 0.0
O1263 O 0.58225 0.61989 0.63858 0.0
O1264 O 0.60355 0.66445 0.60843 0.0
O1265 O 0.57851 0.65421 0.6492 0.0
O1266 O 0.53623 0.61733 0.59694 0.0
O1267 O 0.54448 0.61942 0.66123 0.0
O1268 O 0.56686 0.65255 0.57567 0.0
O1269 O 0.57878 0.63882 0.55439 0.0
O1270 O 0.55849 0.60359 0.58141 0.0
O1271 O 0.58732 0.60923 0.57367 0.0
H1272 H 0.66095 0.66014 0.51642 0.0
H1273 H 0.68273 0.69114 0.49993 0.0
H1274 H 0.64219 0.70612 0.52075 0.0
H1275 H 0.621 0.67532 0.53968 0.0
H1276 H 0.49758 0.61051 0.64382 0.0
H1277 H 0.46873 0.58422 0.66152 0.0
H1278 H 0.49457 0.55227 0.66544 0.0
H1279 H 0.52341 0.57877 0.64892 0.0
La1280 La 0.45226 0.97474 0.58536 0.0
La1281 La 0.46557 0.95112 0.61223 0.0
C1282 C 0.43427 0.98392 0.54055 0.0
C1283 C 0.41529 0.97429 0.52757 0.0
C1284 C 0.40177 0.96414 0.55661 0.0
C1285 C 0.38389 0.95855 0.5475 0.0
C1286 C 0.37914 0.96289 0.50898 0.0
C1287 C 0.39239 0.97047 0.4778 0.0
C1288 C 0.4104 0.97644 0.48723 0.0
C1289 C 0.4697 0.99044 0.65592 0.0
C1290 C 0.42739 0.94068 0.6446 0.0
C1291 C 0.48325 0.93552 0.63377 0.0
C1292 C 0.50104 0.93598 0.64085 0.0
C1293 C 0.51053 0.934 0.60721 0.0
C1294 C 0.52513 0.93103 0.61378 0.0
C1295 C 0.53101 0.92983 0.65433 0.0
C1296 C 0.52204 0.93258 0.68806 0.0
C1297 C 0.50728 0.93543 0.68146 0.0
C1298 C 0.44022 0.9378 0.54922 0.0
C1299 C 0.49322 0.98817 0.56585 0.0
O1300 O 0.43708 0.98747 0.58046 0.0
O1301 O 0.4446 0.97824 0.52503 0.0
O1302 O 0.46109 0.99552 0.63171 0.0
O1303 O 0.46848 0.97584 0.64065 0.0
O1304 O 0.42801 0.9521 0.61581 0.0
O1305 O 0.44227 0.94035 0.65406 0.0
O1306 O 0.47835 0.93647 0.5956 0.0
O1307 O 0.47741 0.94311 0.6602 0.0
O1308 O 0.44168 0.92887 0.58 0.0
O1309 O 0.45344 0.95357 0.55447 0.0
O1310 O 0.4901 0.97333 0.58521 0.0
O1311 O 0.47993 0.99165 0.56025 0.0
H1312 H 0.4051 0.96182 0.5877 0.0
H1313 H 0.37425 0.95261 0.57251 0.0
H1314 H 0.38907 0.97322 0.44722 0.0
H1315 H 0.42056 0.9837 0.46385 0.0
H1316 H 0.50627 0.93409 0.57542 0.0
H1317 H 0.53164 0.92934 0.58665 0.0
H1318 H 0.52586 0.93168 0.7198 0.0
H1319 H 0.50029 0.93654 0.7084 0.0
La1320 La 0.17671 0.42865 0.27973 0.0
La1321 La 0.21487 0.45127 0.26834 0.0
C1322 C 0.14549 0.41295 0.30923 0.0
C1323 C 0.13205 0.41884 0.3081 0.0
C1324 C 0.12596 0.42175 0.26981 0.0
C1325 C 0.11459 0.42891 0.26873 0.0
C1326 C 0.10914 0.43358 0.30585 0.0
C1327 C 0.11548 0.4309 0.34419 0.0
C1328 C 0.12674 0.42353 0.34527 0.0
C1329 C 0.18551 0.42194 0.20448 0.0
C1330 C 0.18993 0.46545 0.23304 0.0
C1331 C 0.24846 0.46648 0.25054 0.0
C1332 C 0.26584 0.46622 0.24244 0.0
C1333 C 0.27709 0.46718 0.27567 0.0
C1334 C 0.2947 0.47038 0.26865 0.0
C1335 C 0.30207 0.4729 0.22803 0.0
C1336 C 0.29054 0.47114 0.19456 0.0
C1337 C 0.27287 0.46802 0.20165 0.0
C1338 C 0.20049 0.46286 0.33037 0.0
C1339 C 0.20193 0.41307 0.30979 0.0
O1340 O 0.14966 0.40857 0.27361 0.0
O1341 O 0.15975 0.42301 0.33154 0.0
O1342 O 0.17223 0.42454 0.21286 0.0
O1343 O 0.19505 0.42552 0.23803 0.0
O1344 O 0.17744 0.45337 0.25769 0.0
O1345 O 0.20481 0.46472 0.22615 0.0
O1346 O 0.24196 0.46401 0.28848 0.0
O1347 O 0.23556 0.46043 0.22254 0.0
O1348 O 0.21368 0.473 0.3059 0.0
O1349 O 0.19692 0.44712 0.32052 0.0
O1350 O 0.2158 0.42871 0.29909 0.0
O1351 O 0.1853 0.41005 0.30429 0.0
H1352 H 0.12999 0.41854 0.24048 0.0
H1353 H 0.10964 0.43022 0.23861 0.0
H1354 H 0.11171 0.43446 0.37339 0.0
H1355 H 0.13159 0.42179 0.37516 0.0
H1356 H 0.27253 0.46612 0.30759 0.0
H1357 H 0.30275 0.47126 0.29555 0.0
H1358 H 0.29546 0.47305 0.16283 0.0
H1359 H 0.26494 0.46773 0.17505 0.0
La1360 La 0.66431 0.76618 0.28466 0.0
La1361 La 0.64139 0.78118 0.272 0.0
C1362 C 0.67997 0.75038 0.31237 0.0
C1363 C 0.67555 0.73192 0.30199 0.0
C1364 C 0.67692 0.72732 0.26063 0.0
C1365 C 0.67015 0.7095 0.24928 0.0
C1366 C 0.66171 0.69575 0.27886 0.0
C1367 C 0.66053 0.70033 0.32044 0.0
C1368 C 0.66741 0.71827 0.3319 0.0
C1369 C 0.67097 0.78121 0.20891 0.0
C1370 C 0.62769 0.74233 0.23624 0.0
C1371 C 0.62557 0.79903 0.25433 0.0
C1372 C 0.62582 0.81646 0.24465 0.0
C1373 C 0.61334 0.82027 0.2641 0.0
C1374 C 0.61179 0.83538 0.25291 0.0
C1375 C 0.62273 0.84747 0.22175 0.0
C1376 C 0.6353 0.84363 0.20241 0.0
C1377 C 0.63676 0.82845 0.21346 0.0
C1378 C 0.62993 0.75546 0.3344 0.0
C1379 C 0.67961 0.80679 0.31445 0.0
O1380 O 0.68648 0.76212 0.28227 0.0
O1381 O 0.66753 0.75155 0.33293 0.0
O1382 O 0.66846 0.76546 0.21785 0.0
O1383 O 0.66724 0.78726 0.24207 0.0
O1384 O 0.63992 0.7422 0.26106 0.0
O1385 O 0.62815 0.75777 0.22927 0.0
O1386 O 0.62868 0.79569 0.29239 0.0
O1387 O 0.63146 0.79195 0.2266 0.0
O1388 O 0.61979 0.75809 0.30881 0.0
O1389 O 0.64569 0.76782 0.32519 0.0
O1390 O 0.66425 0.80515 0.30117 0.0
O1391 O 0.68235 0.79294 0.31174 0.0
H1392 H 0.68295 0.73743 0.23662 0.0
H1393 H 0.67187 0.70655 0.21728 0.0
H1394 H 0.65423 0.69006 0.344 0.0
H1395 H 0.66592 0.72145 0.36389 0.0
H1396 H 0.60445 0.81131 0.2878 0.0
H1397 H 0.60205 0.83763 0.26915 0.0
H1398 H 0.64389 0.85218 0.17782 0.0
H1399 H 0.64632 0.82598 0.19703 0.0
La1400 La 0.32569 0.91521 0.28714 0.0
La1401 La 0.31476 0.87684 0.26444 0.0
C1402 C 0.33612 0.94309 0.33042 0.0
C1403 C 0.35397 0.9562 0.34585 0.0
C1404 C 0.3565 0.97109 0.36895 0.0
C1405 C 0.37388 0.98474 0.37856 0.0
C1406 C 0.38888 0.98365 0.36501 0.0
C1407 C 0.38616 0.9683 0.34352 0.0
C1408 C 0.36885 0.95457 0.33459 0.0
C1409 C 0.31205 0.90788 0.2101 0.0
C1410 C 0.35457 0.90687 0.24269 0.0
C1411 C 0.29882 0.84462 0.23557 0.0
C1412 C 0.28113 0.82724 0.22723 0.0
C1413 C 0.27094 0.81602 0.26047 0.0
C1414 C 0.25658 0.7984 0.2535 0.0
C1415 C 0.2515 0.791 0.21293 0.0
C1416 C 0.26107 0.80248 0.17941 0.0
C1417 C 0.27568 0.82015 0.18644 0.0
C1418 C 0.338 0.88921 0.33318 0.0
C1419 C 0.28571 0.88434 0.31028 0.0
O1420 O 0.33428 0.94263 0.28977 0.0
O1421 O 0.32934 0.92705 0.34636 0.0
O1422 O 0.32593 0.9226 0.22289 0.0
O1423 O 0.30668 0.8966 0.24098 0.0
O1424 O 0.35149 0.9176 0.26721 0.0
O1425 O 0.34111 0.89072 0.23161 0.0
O1426 O 0.30347 0.84922 0.27453 0.0
O1427 O 0.3044 0.85889 0.21189 0.0
O1428 O 0.3309 0.87332 0.31672 0.0
O1429 O 0.33067 0.89593 0.31121 0.0
O1430 O 0.29045 0.87268 0.29707 0.0
O1431 O 0.29723 0.90184 0.30842 0.0
H1432 H 0.34514 0.97253 0.37795 0.0
H1433 H 0.3756 0.99665 0.39421 0.0
H1434 H 0.39744 0.96735 0.33175 0.0
H1435 H 0.36715 0.94309 0.31714 0.0
H1436 H 0.27449 0.82056 0.29244 0.0
H1437 H 0.24963 0.79036 0.28042 0.0
H1438 H 0.25786 0.7975 0.14767 0.0
H1439 H 0.28319 0.82803 0.15982 0.0
H1440 H 0.28941 0.10417 0.9928 0.0
H1441 H 0.2679 0.09285 0.11878 0.0
H1442 H 0.25966 0.06147 0.10994 0.0
H1443 H 0.25684 0.06201 0.94564 0.0
H1444 H 0.27268 0.05958 0.91343 0.0
H1445 H 0.27703 0.08158 0.92834 0.0
H1446 H 0.30763 0.08864 0.95971 0.0
H1447 H 0.30333 0.06665 0.9448 0.0
H1448 H 0.30841 0.07389 0.9984 0.0
H1449 H 0.25188 1.03027 0.08748 0.0
H1450 H 0.24736 1.0024 0.05442 0.0
H1451 H 0.27559 1.03237 0.94435 0.0
C1452 C 0.2831 0.0952 1.01876 0.0
C1453 C 0.27897 0.10153 0.05633 0.0
C1454 C 0.27074 0.08884 0.08903 0.0
C1455 C 0.26609 0.07074 0.08452 0.0
C1456 C 0.26993 0.06496 0.04723 0.0
C1457 C 0.27848 0.07681 1.01497 0.0
C1458 C 0.28124 0.0668 0.97846 0.0
C1459 C 0.27136 0.06754 0.93914 0.0
C1460 C 0.30135 0.07445 0.96983 0.0
C1461 C 0.27272 0.04759 0.99521 0.0
C1462 C 0.26621 0.04694 0.03495 0.0
C1463 C 0.25714 1.03073 0.05655 0.0
C1464 C 0.2546 1.01484 0.03739 0.0
C1465 C 0.26126 1.01489 0.99688 0.0
C1466 C 0.27058 1.03171 0.97567 0.0
H1467 H 0.07647 0.24287 1.00749 0.0
H1468 H 0.06406 0.2837 0.96863 0.0
H1469 H 1.03225 0.26358 0.98527 0.0
H1470 H 1.03601 0.20547 0.96542 0.0
H1471 H 1.03283 0.19025 1.00732 0.0
H1472 H 1.05507 0.20804 0.99479 0.0
H1473 H 0.05958 0.21948 0.07096 0.0
H1474 H 1.03738 0.20166 0.0838 0.0
H1475 H 1.04354 0.22461 0.09397 0.0
H1476 H 1.00102 0.23873 1.00433 0.0
H1477 H 0.97325 0.21152 0.0244 0.0
H1478 H 1.00394 0.18506 0.05058 0.0
C1479 C 0.06714 0.24774 1.00338 0.0
C1480 C 0.07326 0.26531 0.98714 0.0
C1481 C 0.06017 0.27062 0.98129 0.0
C1482 C 1.04187 0.25916 0.99062 0.0
C1483 C 1.03628 0.24201 1.00595 0.0
C1484 C 1.0485 0.23625 1.01244 0.0
C1485 C 1.03853 0.21682 0.02803 0.0
C1486 C 1.04075 0.20441 0.99705 0.0
C1487 C 1.04516 0.21557 0.07179 0.0
C1488 C 1.01893 0.21265 0.02932 0.0
C1489 C 1.01807 0.22747 1.01636 0.0
C1490 C 1.00162 0.22706 1.01436 0.0
C1491 C 0.98571 0.21128 0.02562 0.0
C1492 C 0.98582 0.19559 0.03895 0.0
C1493 C 1.00298 0.19657 0.04093 0.0
H1494 H 0.83281 0.81482 0.94746 0.0
H1495 H 0.83665 0.84779 0.05392 0.0
H1496 H 0.86116 0.844 0.08286 0.0
H1497 H 0.84283 0.78367 1.00385 0.0
H1498 H 0.85617 0.7821 0.96246 0.0
H1499 H 0.83838 0.7867 0.95035 0.0
H1500 H 0.86081 0.81517 0.91106 0.0
H1501 H 0.87883 0.81094 0.92322 0.0
H1502 H 0.88062 0.83202 0.93754 0.0
H1503 H 0.88573 0.83693 0.10113 0.0
H1504 H 0.90865 0.82793 0.10663 0.0
H1505 H 0.89087 0.79982 0.98813 0.0
C1506 C 0.83864 0.82105 0.97718 0.0
C1507 C 0.83235 0.83151 0.99851 0.0
C1508 C 0.84086 0.83966 0.03682 0.0
C1509 C 0.85492 0.83757 0.05362 0.0
C1510 C 0.86083 0.82737 0.0319 0.0
C1511 C 0.85302 0.81927 0.99437 0.0
C1512 C 0.86247 0.80947 0.97702 0.0
C1513 C 0.84917 0.78929 0.97319 0.0
C1514 C 0.87121 0.81738 0.9347 0.0
C1515 C 0.87675 0.81332 1.01065 0.0
C1516 C 0.87538 0.8236 0.04206 0.0
C1517 C 0.8868 0.82882 0.0767 0.0
C1518 C 0.89984 0.82345 0.07969 0.0
C1519 C 0.90183 0.81286 0.04831 0.0
C1520 C 0.89 0.8079 1.01295 0.0
H1521 H 1.03648 0.22288 0.53777 0.0
H1522 H 1.04747 0.27545 0.57862 0.0
H1523 H 0.07965 0.2875 0.56468 0.0
H1524 H 0.07677 0.22593 0.5821 0.0
H1525 H 0.08044 0.21429 0.53982 0.0
H1526 H 0.05802 0.20961 0.5517 0.0
H1527 H 1.05397 0.21698 0.47568 0.0
H1528 H 0.07636 0.22162 0.46349 0.0
H1529 H 0.06999 0.23831 0.45385 0.0
H1530 H 0.11146 0.29426 0.54677 0.0
H1531 H 0.13949 0.29508 0.52685 0.0
H1532 H 0.10935 0.23829 0.49772 0.0
C1533 C 1.04559 0.237 0.54322 0.0
C1534 C 1.03898 0.24814 0.55921 0.0
C1535 C 1.05176 0.26647 0.56644 0.0
C1536 C 0.07026 0.27351 0.55853 0.0
C1537 C 0.0763 0.26223 0.54319 0.0
C1538 C 0.06434 0.24433 0.53552 0.0
C1539 C 0.07459 0.23512 0.51978 0.0
C1540 C 0.07232 0.22036 0.55016 0.0
C1541 C 0.06835 0.22756 0.47557 0.0
C1542 C 0.09408 0.25059 0.51954 0.0
C1543 C 0.09468 0.26609 0.5333 0.0
C1544 C 0.11104 0.28212 0.53616 0.0
C1545 C 0.1271 0.2824 0.52495 0.0
C1546 C 0.12721 0.26679 0.51078 0.0
C1547 C 0.11015 0.25064 0.50799 0.0
H1548 H 0.81943 0.86888 0.54516 0.0
H1549 H 0.86045 0.89608 0.45106 0.0
H1550 H 0.87086 0.87445 0.46145 0.0
H1551 H 0.84627 0.85788 0.61433 0.0
H1552 H 0.82809 0.83607 0.62807 0.0
H1553 H 0.82347 0.85358 0.61374 0.0
H1554 H 0.80162 0.83315 0.55632 0.0
H1555 H 0.80619 0.81559 0.57061 0.0
H1556 H 0.80943 0.82345 0.51752 0.0
H1557 H 0.87774 0.84996 0.48267 0.0
H1558 H 0.87992 0.82464 0.51207 0.0
H1559 H 0.83443 0.81181 0.59213 0.0
C1560 C 0.83063 0.87034 0.52674 0.0
C1561 C 0.83888 0.88444 0.4967 0.0
C1562 C 0.85348 0.88548 0.47356 0.0
C1563 C 0.85965 0.8732 0.47947 0.0
C1564 C 0.85119 0.85951 0.50874 0.0
C1565 C 0.83692 0.85791 0.53197 0.0
C1566 C 0.83023 0.84173 0.56117 0.0
C1567 C 0.83213 0.84768 0.60705 0.0
C1568 C 0.81071 0.82765 0.55079 0.0
C1569 C 0.84301 0.83465 0.55093 0.0
C1570 C 0.85502 0.8452 0.52058 0.0
C1571 C 0.86831 0.84162 0.50632 0.0
C1572 C 0.86946 0.82708 0.52331 0.0
C1573 C 0.85737 0.81586 0.55445 0.0
C1574 C 0.84388 0.81985 0.56817 0.0
H1575 H 0.22624 0.96519 0.54622 0.0
H1576 H 0.20196 0.97809 0.44297 0.0
H1577 H 0.22364 1.01006 0.45282 0.0
H1578 H 0.23617 1.00417 0.6108 0.0
H1579 H 0.25757 1.00783 0.62918 0.0
H1580 H 0.2402 0.9856 0.61488 0.0
H1581 H 0.26185 0.98308 0.56299 0.0
H1582 H 0.27925 1.00528 0.57738 0.0
H1583 H 0.27271 0.99995 0.52343 0.0
H1584 H 0.24749 0.04123 0.47401 0.0
H1585 H 0.27198 0.06905 0.50409 0.0
H1586 H 0.28296 0.03799 0.59367 0.0
C1587 C 0.22545 0.97472 0.52568 0.0
C1588 C 0.21214 0.96861 0.49321 0.0
C1589 C 0.21194 0.98191 0.4674 0.0
C1590 C 0.22426 1.00032 0.47296 0.0
C1591 C 0.23716 1.00581 0.50458 0.0
C1592 C 0.23797 0.99345 0.53055 0.0
C1593 C 0.2535 1.00329 0.56185 0.0
C1594 C 0.24643 1.00002 0.60685 0.0
C1595 C 0.26767 0.99755 0.55606 0.0
C1596 C 0.26109 1.023 0.54957 0.0
C1597 C 0.25131 1.02399 0.51644 0.0
C1598 C 0.25524 0.04053 0.49982 0.0
C1599 C 0.26932 0.05641 0.51732 0.0
C1600 C 0.27981 0.05613 0.55132 0.0
C1601 C 0.27554 0.03895 0.56741 0.0
H1602 H 0.83271 0.03953 0.09504 0.0
H1603 H 0.87257 0.06951 1.00053 0.0
H1604 H 0.86928 0.04135 0.97246 0.0
H1605 H 0.8471 1.00715 0.11387 0.0
H1606 H 0.82484 0.98838 0.12115 0.0
H1607 H 0.82942 1.01073 0.13309 0.0
H1608 H 0.80398 1.00657 0.08313 0.0
H1609 H 0.79927 0.98418 0.0711 0.0
H1610 H 0.80414 1.00006 0.02968 0.0
H1611 H 0.86218 1.00987 0.95411 0.0
H1612 H 0.85245 0.97787 0.94773 0.0
H1613 H 0.81744 0.96652 0.05461 0.0
C1614 C 0.84059 0.04017 0.06809 0.0
C1615 C 0.85287 0.05711 0.04994 0.0
C1616 C 0.86305 0.05702 1.01517 0.0
C1617 C 0.86127 0.04096 0.99888 0.0
C1618 C 0.84929 1.02466 1.01755 0.0
C1619 C 0.83912 1.02407 0.0515 0.0
C1620 C 0.82765 1.00462 0.0662 0.0
C1621 C 0.83254 1.0026 0.11126 0.0
C1622 C 0.80757 0.99849 0.0623 0.0
C1623 C 0.83302 0.99442 0.03535 0.0
C1624 C 0.84544 1.00637 1.00743 0.0
C1625 C 0.85241 1.00045 0.97578 0.0
C1626 C 0.84664 0.98203 0.97223 0.0
C1627 C 0.83392 0.96916 1.00014 0.0
C1628 C 0.82717 0.97572 0.03253 0.0
H1629 H 0.10883 0.88648 0.9929 0.0
H1630 H 0.13999 0.86266 0.03695 0.0
H1631 H 0.11223 0.83594 0.059 0.0
H1632 H 0.07525 0.86879 0.07562 0.0
H1633 H 0.05662 0.86448 0.04216 0.0
H1634 H 0.07893 0.8821 0.02945 0.0
H1635 H 0.07625 0.86785 0.95678 0.0
H1636 H 1.05395 0.85017 0.96934 0.0
H1637 H 0.07078 0.84479 0.95312 0.0
H1638 H 0.08098 0.8113 0.07778 0.0
H1639 H 1.04902 0.79084 0.09136 0.0
H1640 H 1.03594 0.82872 0.03511 0.0
C1641 C 0.1099 0.87564 1.00693 0.0
C1642 C 0.1272 0.87726 1.01333 0.0
C1643 C 0.12742 0.86244 0.03222 0.0
C1644 C 0.11151 0.84694 0.0447 0.0
C1645 C 0.09493 0.8459 0.03835 0.0
C1646 C 0.09393 0.85983 1.01984 0.0
C1647 C 0.07414 0.85505 1.0171 0.0
C1648 C 0.07106 0.86841 0.04259 0.0
C1649 C 0.06845 0.85443 0.97136 0.0
C1650 C 0.06426 0.8363 0.03675 0.0
C1651 C 0.07669 0.83143 0.04877 0.0
C1652 C 0.07121 0.81503 0.06822 0.0
C1653 C 1.05279 0.80336 0.07581 0.0
C1654 C 1.03943 0.80771 0.06418 0.0
C1655 C 1.04548 0.8246 0.04406 0.0
H1656 H 0.2809 0.25894 0.0845 0.0
H1657 H 0.26293 0.20945 1.01559 0.0
H1658 H 0.23706 0.2115 0.98908 0.0
H1659 H 0.2378 0.25166 0.1145 0.0
H1660 H 0.24284 0.27444 0.10723 0.0
H1661 H 0.26057 0.26983 0.11981 0.0
H1662 H 0.27815 0.28674 0.05308 0.0
H1663 H 0.26064 0.29188 0.04224 0.0
H1664 H 0.26683 0.28075 1.00347 0.0
H1665 H 0.21257 0.21872 0.96928 0.0
H1666 H 0.19164 0.23007 0.95889 0.0
H1667 H 0.22426 0.2751 0.04051 0.0
C1668 C 0.27178 0.24865 0.06335 0.0
C1669 C 0.27448 0.23404 0.05216 0.0
C1670 C 0.26158 0.22081 0.02493 0.0
C1671 C 0.2467 0.22187 1.00954 0.0
C1672 C 0.24448 0.2363 1.02124 0.0
C1673 C 0.25672 0.24954 0.04742 0.0
C1674 C 0.25097 0.26356 0.0552 0.0
C1675 C 0.24786 0.26495 0.10197 0.0
C1676 C 0.26498 0.28182 0.0375 0.0
C1677 C 0.23338 0.25589 0.03035 0.0
C1678 C 0.23012 0.24028 1.0105 0.0
C1679 C 0.21511 0.23095 0.98472 0.0
C1680 C 0.20324 0.23765 0.97876 0.0
C1681 C 0.20601 0.25366 0.99844 0.0
C1682 C 0.22142 0.26278 0.02502 0.0
H1683 H 0.07548 0.85396 0.48586 0.0
H1684 H 0.07182 0.80265 0.50865 0.0
H1685 H 1.04082 0.7905 0.53351 0.0
H1686 H 1.04728 0.85258 0.57529 0.0
H1687 H 1.03632 0.8624 0.54655 0.0
H1688 H 0.05882 0.86779 0.53305 0.0
H1689 H 1.04857 0.85768 0.45704 0.0
H1690 H 1.02602 0.85215 0.47037 0.0
H1691 H 1.03012 0.83545 0.44712 0.0
H1692 H 1.00944 0.78303 0.55431 0.0
H1693 H 0.98031 0.78079 0.56875 0.0
H1694 H 1.00218 0.83632 0.53229 0.0
C1695 C 0.06831 0.84032 0.4971 0.0
C1696 C 0.07658 0.82946 0.49592 0.0
C1697 C 0.06619 0.81145 0.50958 0.0
C1698 C 1.0484 0.80434 0.52376 0.0
C1699 C 1.04058 0.81518 0.52404 0.0
C1700 C 1.05014 0.8328 0.51107 0.0
C1701 C 1.03795 0.8411 0.51296 0.0
C1702 C 1.04555 0.85691 0.5438 0.0
C1703 C 1.03553 0.84695 0.46927 0.0
C1704 C 1.0202 0.82546 0.529 0.0
C1705 C 1.02218 0.81069 0.53528 0.0
C1706 C 1.00786 0.79461 0.54974 0.0
C1707 C 0.99121 0.7935 0.55823 0.0
C1708 C 0.98847 0.80833 0.55243 0.0
C1709 C 1.00342 0.82456 0.53719 0.0
H1710 H 0.29535 0.20501 0.48752 0.0
H1711 H 0.26297 0.18411 0.5991 0.0
H1712 H 0.25341 0.20657 0.59272 0.0
H1713 H 0.30982 0.25243 0.50984 0.0
H1714 H 0.30907 0.25817 0.4561 0.0
H1715 H 0.31364 0.24044 0.46862 0.0
H1716 H 0.28709 0.21868 0.42167 0.0
H1717 H 0.2826 0.23649 0.40956 0.0
H1718 H 0.26508 0.21575 0.43085 0.0
H1719 H 0.24621 0.23082 0.57401 0.0
H1720 H 0.24258 0.25532 0.54534 0.0
H1721 H 0.28006 0.26278 0.44631 0.0
C1722 C 0.28623 0.20514 0.5106 0.0
C1723 C 0.2801 0.19251 0.54422 0.0
C1724 C 0.26821 0.19351 0.57349 0.0
C1725 C 0.26257 0.20629 0.57 0.0
C1726 C 0.26892 0.21851 0.53711 0.0
C1727 C 0.2806 0.2182 0.50795 0.0
C1728 C 0.2855 0.23326 0.47611 0.0
C1729 C 0.30571 0.24688 0.47777 0.0
C1730 C 0.27971 0.22556 0.43191 0.0
C1731 C 0.2745 0.24176 0.49148 0.0
C1732 C 0.26507 0.23293 0.52681 0.0
C1733 C 0.25365 0.23784 0.54648 0.0
C1734 C 0.25166 0.25191 0.52979 0.0
C1735 C 0.26104 0.26139 0.49354 0.0
C1736 C 0.27279 0.25615 0.47435 0.0
H1737 H 0.88811 0.10832 0.49322 0.0
H1738 H 0.91404 0.09637 0.59453 0.0
H1739 H 0.89182 0.06438 0.5878 0.0
H1740 H 0.84185 0.0741 0.52198 0.0
H1741 H 0.83417 0.06821 0.46886 0.0
H1742 H 0.85194 0.09051 0.48119 0.0
H1743 H 0.87242 0.08731 0.42703 0.0
H1744 H 0.85466 0.065 0.41478 0.0
H1745 H 0.8764 0.06871 0.43075 0.0
H1746 H 0.86721 1.03303 0.56978 0.0
H1747 H 0.84216 1.00498 0.54213 0.0
H1748 H 0.83027 1.03523 0.45214 0.0
C1749 C 0.88914 0.09899 0.51403 0.0
C1750 C 0.90311 0.10539 0.54495 0.0
C1751 C 0.90358 0.09235 0.57122 0.0
C1752 C 0.89095 0.07393 0.56745 0.0
C1753 C 0.87742 0.06817 0.53727 0.0
C1754 C 0.87631 0.08028 0.51102 0.0
C1755 C 0.86015 0.07019 0.48147 0.0
C1756 C 0.84621 0.07611 0.48881 0.0
C1757 C 0.86629 0.07298 0.43577 0.0
C1758 C 0.8527 0.05059 0.4946 0.0
C1759 C 0.86294 0.0499 0.52707 0.0
C1760 C 0.85911 1.03352 0.54446 0.0
C1761 C 0.8447 1.01749 0.52837 0.0
C1762 C 0.83383 1.01746 0.49486 0.0
C1763 C 0.83799 1.0345 0.47802 0.0
H1764 H 0.92069 0.42423 0.36909 0.0
H1765 H 0.97893 0.45187 0.36556 0.0
H1766 H 0.97777 0.42349 0.34836 0.0
H1767 H 0.91453 0.38287 0.41576 0.0
H1768 H 0.89491 0.36829 0.38531 0.0
H1769 H 0.89992 0.39078 0.3972 0.0
H1770 H 0.89932 0.39707 0.31848 0.0
H1771 H 0.89424 0.37457 0.30643 0.0
H1772 H 0.91345 0.39334 0.28309 0.0
H1773 H 0.97078 0.39195 0.33108 0.0
H1774 H 0.9586 0.36014 0.31436 0.0
H1775 H 0.90443 0.35094 0.32845 0.0
C1776 C 0.93325 0.42439 0.36497 0.0
C1777 C 0.94999 0.44087 0.36858 0.0
C1778 C 0.9659 0.43996 0.36236 0.0
C1779 C 0.96539 0.42369 0.35281 0.0
C1780 C 0.94884 0.40792 0.34933 0.0
C1781 C 0.933 0.40807 0.35513 0.0
C1782 C 0.91703 0.38903 0.34897 0.0
C1783 C 0.90594 0.38235 0.38921 0.0
C1784 C 0.90531 0.38847 0.31205 0.0
C1785 C 0.92636 0.3782 0.33914 0.0
C1786 C 0.94476 0.38953 0.33954 0.0
C1787 C 0.95639 0.38304 0.33087 0.0
C1788 C 0.94924 0.36474 0.32127 0.0
C1789 C 0.93043 0.35254 0.32006 0.0
C1790 C 0.91885 0.35957 0.32955 0.0
H1791 H 0.74152 0.58301 0.37239 0.0
H1792 H 0.72961 0.59867 0.25305 0.0
H1793 H 0.69799 0.57613 0.26046 0.0
H1794 H 0.70872 0.53462 0.36125 0.0
H1795 H 0.70181 0.53145 0.41513 0.0
H1796 H 0.72416 0.54866 0.40124 0.0
H1797 H 0.71888 0.57235 0.43803 0.0
H1798 H 0.69652 0.55521 0.45199 0.0
H1799 H 0.69984 0.57458 0.42324 0.0
H1800 H 0.66709 0.55186 0.27883 0.0
H1801 H 0.63905 0.52783 0.30768 0.0
H1802 H 0.66796 0.52645 0.41779 0.0
C1803 C 0.73229 0.58162 0.34771 0.0
C1804 C 0.73862 0.59316 0.31202 0.0
C1805 C 0.72564 0.59057 0.28099 0.0
C1806 C 0.70739 0.57756 0.28474 0.0
C1807 C 0.70159 0.56673 0.32 0.0
C1808 C 0.71354 0.56851 0.35115 0.0
C1809 C 0.70312 0.55503 0.38607 0.0
C1810 C 0.70986 0.54165 0.39124 0.0
C1811 C 0.70469 0.56488 0.42729 0.0
C1812 C 0.68366 0.5456 0.36949 0.0
C1813 C 0.68331 0.55267 0.33117 0.0
C1814 C 0.66724 0.54637 0.30908 0.0
C1815 C 0.65112 0.53265 0.32625 0.0
C1816 C 0.65056 0.52497 0.3659 0.0
C1817 C 0.66742 0.53169 0.38752 0.0
H1818 H 0.51796 0.18509 0.33137 0.0
H1819 H 0.472 0.13147 0.32381 0.0
H1820 H 0.49117 0.11891 0.34398 0.0
H1821 H 0.54941 0.17336 0.28696 0.0
H1822 H 0.56811 0.18835 0.31942 0.0
H1823 H 0.55071 0.1935 0.30728 0.0
H1824 H 0.5455 0.19574 0.386 0.0
H1825 H 0.56295 0.19068 0.3984 0.0
H1826 H 0.54078 0.17719 0.41973 0.0
H1827 H 0.51564 0.11169 0.36418 0.0
H1828 H 0.54298 0.11038 0.38026 0.0
H1829 H 0.57446 0.16835 0.37322 0.0
C1830 C 0.51186 0.17073 0.33487 0.0
C1831 C 0.49313 0.15937 0.32665 0.0
C1832 C 0.48607 0.1406 0.33029 0.0
C1833 C 0.49695 0.13328 0.34174 0.0
C1834 C 0.51526 0.14473 0.34917 0.0
C1835 C 0.52273 0.16308 0.34574 0.0
C1836 C 0.54304 0.17222 0.3535 0.0
C1837 C 0.55344 0.18247 0.31447 0.0
C1838 C 0.54838 0.1847 0.39168 0.0
C1839 C 0.54577 0.15622 0.36207 0.0
C1840 C 0.52948 0.14051 0.35958 0.0
C1841 C 0.52841 0.12398 0.36632 0.0
C1842 C 0.54419 0.12338 0.37583 0.0
C1843 C 0.56128 0.13918 0.37862 0.0
C1844 C 0.56186 0.15587 0.3713 0.0
H1845 H 0.77663 0.5665 0.85478 0.0
H1846 H 0.80111 0.62277 0.82277 0.0
H1847 H 0.7724 0.62169 0.83591 0.0
H1848 H 0.73269 0.55282 0.80828 0.0
H1849 H 0.72003 0.53702 0.84869 0.0
H1850 H 0.74251 0.54182 0.8369 0.0
H1851 H 0.75173 0.55045 0.91403 0.0
H1852 H 0.72926 0.54559 0.92607 0.0
H1853 H 0.74812 0.56728 0.93838 0.0
H1854 H 0.74115 0.61525 0.8549 0.0
H1855 H 0.70989 0.60386 0.87697 0.0
H1856 H 0.70347 0.55115 0.89562 0.0
C1857 C 0.77602 0.57864 0.85061 0.0
C1858 C 0.79159 0.59477 0.83708 0.0
C1859 C 0.78971 0.61015 0.83209 0.0
C1860 C 0.77332 0.6097 0.83983 0.0
C1861 C 0.75838 0.59372 0.85259 0.0
C1862 C 0.75949 0.5784 0.85792 0.0
C1863 C 0.74116 0.56299 0.87189 0.0
C1864 C 0.73366 0.54776 0.83951 0.0
C1865 C 0.74266 0.55617 0.91517 0.0
C1866 C 0.72966 0.57205 0.87374 0.0
C1867 C 0.74005 0.58984 0.86259 0.0
C1868 C 0.73293 0.6013 0.86323 0.0
C1869 C 0.71499 0.59462 0.87582 0.0
C1870 C 0.70375 0.57646 0.88743 0.0
C1871 C 0.71133 0.56498 0.88596 0.0
H1872 H 0.49748 0.14181 0.92335 0.0
H1873 H 0.54524 0.15757 0.84917 0.0
H1874 H 0.54284 0.18292 0.82089 0.0
H1875 H 0.47356 0.1538 0.84656 0.0
H1876 H 0.46421 0.16208 0.88509 0.0
H1877 H 0.46929 0.14481 0.89866 0.0
H1878 H 0.48913 0.16434 0.95966 0.0
H1879 H 0.48428 0.18176 0.94607 0.0
H1880 H 0.50723 0.18667 0.94941 0.0
H1881 H 0.53534 0.20693 0.79971 0.0
H1882 H 0.5241 0.22787 0.78882 0.0
H1883 H 0.48126 0.19808 0.8774 0.0
C1884 C 0.50739 0.15049 0.9009 0.0
C1885 C 0.52158 0.14732 0.8885 0.0
C1886 C 0.53425 0.15938 0.85938 0.0
C1887 C 0.53297 0.17393 0.84302 0.0
C1888 C 0.51897 0.17667 0.85593 0.0
C1889 C 0.50639 0.1653 0.88434 0.0
C1890 C 0.49287 0.17159 0.89347 0.0
C1891 C 0.47385 0.15721 0.88016 0.0
C1892 C 0.49341 0.17638 0.93992 0.0
C1893 C 0.49984 0.18828 0.86592 0.0
C1894 C 0.51484 0.19078 0.84434 0.0
C1895 C 0.52358 0.20499 0.81647 0.0
C1896 C 0.51694 0.21686 0.81025 0.0
C1897 C 0.50158 0.21487 0.8317 0.0
C1898 C 0.49305 0.20027 0.86036 0.0
H1899 H 0.87083 0.31437 0.8436 0.0
H1900 H 0.90222 0.28758 0.8462 0.0
H1901 H 0.9293 0.31626 0.86296 0.0
H1902 H 0.90535 0.35586 0.79678 0.0
H1903 H 0.89998 0.37018 0.82723 0.0
H1904 H 0.88279 0.34754 0.8155 0.0
H1905 H 0.87616 0.34125 0.89424 0.0
H1906 H 0.89328 0.36389 0.90618 0.0
H1907 H 0.89419 0.34535 0.92954 0.0
H1908 H 0.95361 0.34828 0.88199 0.0
H1909 H 0.97257 0.38029 0.89933 0.0
H1910 H 0.92666 0.38786 0.88341 0.0
C1911 C 0.88335 0.31443 0.84784 0.0
C1912 C 0.88398 0.29821 0.84299 0.0
C1913 C 0.90099 0.29944 0.84871 0.0
C1914 C 0.9166 0.31583 0.85863 0.0
C1915 C 0.91549 0.33141 0.86287 0.0
C1916 C 0.89928 0.33089 0.85753 0.0
C1917 C 0.90194 0.34975 0.86361 0.0
C1918 C 0.89723 0.35621 0.82338 0.0
C1919 C 0.89072 0.35007 0.90059 0.0
C1920 C 0.92209 0.3609 0.87326 0.0
C1921 C 0.92958 0.34994 0.87286 0.0
C1922 C 0.9478 0.3569 0.88196 0.0
C1923 C 0.95858 0.3753 0.89178 0.0
C1924 C 0.95149 0.38709 0.89231 0.0
C1925 C 0.93282 0.37955 0.88264 0.0
H1926 H 0.51383 0.31612 0.30099 0.0
H1927 H 0.48341 0.28735 0.4105 0.0
H1928 H 0.48714 0.31532 0.43957 0.0
H1929 H 0.54594 0.35696 0.35749 0.0
H1930 H 0.54712 0.37217 0.31745 0.0
H1931 H 0.5422 0.34987 0.30363 0.0
H1932 H 0.51306 0.34417 0.26674 0.0
H1933 H 0.51789 0.36645 0.28042 0.0
H1934 H 0.49681 0.34738 0.29529 0.0
H1935 H 0.49386 0.34595 0.45868 0.0
H1936 H 0.50253 0.37734 0.46651 0.0
H1937 H 0.5295 0.38933 0.34646 0.0
C1938 C 0.50797 0.31564 0.33117 0.0
C1939 C 0.49794 0.29891 0.35272 0.0
C1940 C 0.49065 0.29941 0.39219 0.0
C1941 C 0.49287 0.31545 0.40943 0.0
C1942 C 0.50258 0.33143 0.38746 0.0
C1943 C 0.51007 0.3318 0.34917 0.0
C1944 C 0.51982 0.35116 0.33264 0.0
C1945 C 0.53997 0.35794 0.32749 0.0
C1946 C 0.51139 0.35236 0.29131 0.0
C1947 C 0.51654 0.36149 0.36759 0.0
C1948 C 0.50656 0.34958 0.39872 0.0
C1949 C 0.50157 0.3553 0.43428 0.0
C1950 C 0.50655 0.37343 0.43824 0.0
C1951 C 0.51657 0.38633 0.40705 0.0
C1952 C 0.52186 0.38012 0.37115 0.0
H1953 H 0.72003 0.14663 0.43007 0.0
H1954 H 0.68839 0.15404 0.33494 0.0
H1955 H 0.71614 0.17888 0.30511 0.0
H1956 H 0.75209 0.19412 0.44488 0.0
H1957 H 0.77115 0.19106 0.453 0.0
H1958 H 0.74893 0.17346 0.46649 0.0
H1959 H 0.75295 0.15137 0.41926 0.0
H1960 H 0.77518 0.16888 0.40559 0.0
H1961 H 0.75888 0.15687 0.36518 0.0
H1962 H 0.74775 0.20326 0.28442 0.0
H1963 H 0.77975 0.22529 0.2758 0.0
H1964 H 0.79243 0.20379 0.38475 0.0
C1965 C 0.71891 0.15336 0.40271 0.0
C1966 C 0.70163 0.14794 0.3848 0.0
C1967 C 0.70113 0.15757 0.34944 0.0
C1968 C 0.71697 0.17183 0.33216 0.0
C1969 C 0.73363 0.1768 0.35047 0.0
C1970 C 0.73473 0.16792 0.38518 0.0
C1971 C 0.75441 0.17637 0.3993 0.0
C1972 C 0.75679 0.18422 0.44355 0.0
C1973 C 0.76073 0.16255 0.39721 0.0
C1974 C 0.76423 0.19126 0.36692 0.0
C1975 C 0.75186 0.19113 0.33903 0.0
C1976 C 0.75745 0.20335 0.30612 0.0
C1977 C 0.77591 0.21587 0.30126 0.0
C1978 C 0.78921 0.21656 0.32899 0.0
C1979 C 0.78297 0.20395 0.3627 0.0
H1980 H 0.89089 0.61029 0.38958 0.0
H1981 H 0.87019 0.57776 0.27759 0.0
H1982 H 0.89266 0.56825 0.28494 0.0
H1983 H 0.93833 0.6245 0.36959 0.0
H1984 H 0.94387 0.62369 0.42354 0.0
H1985 H 0.92615 0.62827 0.41039 0.0
H1986 H 0.90404 0.60174 0.45617 0.0
H1987 H 0.92183 0.59727 0.4692 0.0
H1988 H 0.90118 0.57981 0.44693 0.0
H1989 H 0.91709 0.56123 0.30435 0.0
H1990 H 0.94158 0.55765 0.33374 0.0
H1991 H 0.94849 0.59472 0.4336 0.0
C1992 C 0.89103 0.60113 0.36659 0.0
C1993 C 0.87848 0.59506 0.33246 0.0
C1994 C 0.87955 0.58309 0.30346 0.0
C1995 C 0.89233 0.57744 0.30754 0.0
C1996 C 0.90448 0.58376 0.34087 0.0
C1997 C 0.90405 0.59541 0.36995 0.0
C1998 C 0.91898 0.60022 0.40249 0.0
C1999 C 0.93264 0.62037 0.40144 0.0
C2000 C 0.911 0.5944 0.44631 0.0
C2001 C 0.92759 0.58924 0.38755 0.0
C2002 C 0.9189 0.57989 0.35182 0.0
C2003 C 0.92398 0.56859 0.33223 0.0
C2004 C 0.93806 0.56663 0.34937 0.0
C2005 C 0.94741 0.5759 0.3861 0.0
C2006 C 0.94199 0.58752 0.40524 0.0
H2007 H 0.72519 0.1459 0.78573 0.0
H2008 H 0.75674 0.19126 0.86737 0.0
H2009 H 0.72878 0.18835 0.8964 0.0
H2010 H 0.69047 0.1569 0.76323 0.0
H2011 H 0.67237 0.13401 0.76269 0.0
H2012 H 0.69477 0.13912 0.7492 0.0
H2013 H 0.69383 0.11745 0.80581 0.0
H2014 H 0.67136 0.11212 0.81932 0.0
H2015 H 0.68863 0.12014 0.85886 0.0
H2016 H 0.69697 0.18027 0.918 0.0
H2017 H 0.66463 0.16874 0.92827 0.0
H2018 H 0.65247 0.12906 0.83124 0.0
C2019 C 0.72628 0.15518 0.80994 0.0
C2020 C 0.74355 0.16882 0.82428 0.0
C2021 C 0.74399 0.1807 0.85565 0.0
C2022 C 0.72805 0.17912 0.87246 0.0
C2023 C 0.71139 0.16564 0.85766 0.0
C2024 C 0.71037 0.1539 0.8269 0.0
C2025 C 0.69066 0.14085 0.81598 0.0
C2026 C 0.68683 0.14285 0.77003 0.0
C2027 C 0.68583 0.12149 0.82557 0.0
C2028 C 0.68074 0.14706 0.84527 0.0
C2029 C 0.69305 0.1613 0.86926 0.0
C2030 C 0.68732 0.16915 0.89923 0.0
C2031 C 0.66875 0.16238 0.90501 0.0
C2032 C 0.65561 0.14784 0.88091 0.0
C2033 C 0.66192 0.14022 0.85022 0.0
H2034 H 0.90625 0.57276 0.84134 0.0
H2035 H 0.95895 0.61332 0.7987 0.0
H2036 H 0.97071 0.59314 0.81329 0.0
H2037 H 0.92245 0.55503 0.92576 0.0
H2038 H 0.90548 0.532 0.91718 0.0
H2039 H 0.90086 0.54971 0.90485 0.0
H2040 H 0.8925 0.53767 0.82937 0.0
H2041 H 0.89715 0.51996 0.84144 0.0
H2042 H 0.9084 0.5348 0.79842 0.0
H2043 H 0.97735 0.56838 0.831 0.0
H2044 H 0.9783 0.54135 0.85081 0.0
H2045 H 0.92167 0.51504 0.88222 0.0
C2046 C 0.92033 0.57751 0.83565 0.0
C2047 C 0.93157 0.59506 0.81894 0.0
C2048 C 0.94985 0.60026 0.8115 0.0
C2049 C 0.95676 0.58876 0.81972 0.0
C2050 C 0.94543 0.57168 0.83563 0.0
C2051 C 0.92758 0.566 0.84369 0.0
C2052 C 0.91842 0.54668 0.86012 0.0
C2053 C 0.91138 0.5458 0.90462 0.0
C2054 C 0.90321 0.53402 0.83058 0.0
C2055 C 0.93384 0.54248 0.85991 0.0
C2056 C 0.94928 0.5572 0.84557 0.0
C2057 C 0.96527 0.55678 0.84209 0.0
C2058 C 0.96562 0.5411 0.85323 0.0
C2059 C 0.9501 0.52549 0.86792 0.0
C2060 C 0.93395 0.52649 0.87144 0.0
H2061 H 0.55509 0.43932 0.82998 0.0
H2062 H 0.57651 0.42782 0.94102 0.0
H2063 H 0.55463 0.39579 0.93296 0.0
H2064 H 0.50764 0.40538 0.8479 0.0
H2065 H 0.50324 0.39997 0.79313 0.0
H2066 H 0.52045 0.42197 0.809 0.0
H2067 H 0.54274 0.41758 0.76256 0.0
H2068 H 0.52541 0.39522 0.74908 0.0
H2069 H 0.54609 0.39885 0.77223 0.0
H2070 H 0.53082 0.36418 0.91248 0.0
H2071 H 0.50645 0.33606 0.88265 0.0
H2072 H 0.49825 0.36628 0.78559 0.0
C2073 C 0.55522 0.4301 0.85263 0.0
C2074 C 0.56778 0.43666 0.88672 0.0
C2075 C 0.56711 0.42371 0.91522 0.0
C2076 C 0.55468 0.40525 0.91071 0.0
C2077 C 0.54251 0.39933 0.87743 0.0
C2078 C 0.54257 0.41135 0.84883 0.0
C2079 C 0.52778 0.40115 0.81606 0.0
C2080 C 0.51395 0.40749 0.81661 0.0
C2081 C 0.536 0.40334 0.77239 0.0
C2082 C 0.5194 0.38165 0.83094 0.0
C2083 C 0.52834 0.38101 0.86621 0.0
C2084 C 0.52368 0.36464 0.88506 0.0
C2085 C 0.50971 0.34858 0.86776 0.0
C2086 C 0.49999 0.34856 0.83188 0.0
C2087 C 0.50502 0.36557 0.81343 0.0
H2088 H 0.59356 0.75757 0.72284 0.0
H2089 H 0.6486 0.78756 0.67908 0.0
H2090 H 0.6469 0.75952 0.6563 0.0
H2091 H 0.59625 0.71891 0.76147 0.0
H2092 H 0.5739 0.70255 0.74499 0.0
H2093 H 0.57901 0.72496 0.75819 0.0
H2094 H 0.56762 0.72812 0.68574 0.0
H2095 H 0.56245 0.70571 0.67238 0.0
H2096 H 0.57703 0.72419 0.63934 0.0
H2097 H 0.63965 0.72817 0.63681 0.0
H2098 H 0.62752 0.6962 0.62232 0.0
H2099 H 0.57684 0.68434 0.67854 0.0
C2100 C 0.60534 0.75831 0.70872 0.0
C2101 C 0.62124 0.77536 0.70263 0.0
C2102 C 0.6361 0.77519 0.6836 0.0
C2103 C 0.63532 0.75912 0.6707 0.0
C2104 C 0.61957 0.7428 0.67677 0.0
C2105 C 0.6048 0.74218 0.69538 0.0
C2106 C 0.5895 0.72261 0.69768 0.0
C2107 C 0.58436 0.71692 0.7433 0.0
C2108 C 0.57318 0.72001 0.67228 0.0
C2109 C 0.59801 0.71239 0.67763 0.0
C2110 C 0.6154 0.72448 0.66585 0.0
C2111 C 0.62607 0.71866 0.64616 0.0
C2112 C 0.61895 0.70024 0.63804 0.0
C2113 C 0.60113 0.68723 0.64936 0.0
C2114 C 0.59056 0.69362 0.66977 0.0
H2115 H 0.31851 0.87124 0.66289 0.0
H2116 H 0.33113 0.84873 0.77003 0.0
H2117 H 0.3631 0.87097 0.76224 0.0
H2118 H 0.35891 0.88216 0.60174 0.0
H2119 H 0.3613 0.9029 0.58245 0.0
H2120 H 0.33945 0.88477 0.59619 0.0
H2121 H 0.33586 0.90674 0.64551 0.0
H2122 H 0.35811 0.9244 0.63241 0.0
H2123 H 0.35224 0.91812 0.68618 0.0
H2124 H 0.39446 0.8953 0.74266 0.0
H2125 H 0.42237 0.91981 0.71327 0.0
H2126 H 0.39139 0.92858 0.61871 0.0
C2127 C 0.32797 0.87093 0.68473 0.0
C2128 C 0.32173 0.85793 0.71764 0.0
C2129 C 0.33498 0.85843 0.74516 0.0
C2130 C 0.35341 0.87108 0.7408 0.0
C2131 C 0.35901 0.88366 0.70867 0.0
C2132 C 0.34671 0.8838 0.68106 0.0
C2133 C 0.35661 0.89912 0.64962 0.0
C2134 C 0.3539 0.89178 0.60483 0.0
C2135 C 0.35033 0.91291 0.65368 0.0
C2136 C 0.37632 0.90725 0.66345 0.0
C2137 C 0.37724 0.89803 0.6977 0.0
C2138 C 0.39379 0.90261 0.71594 0.0
C2139 C 0.40973 0.91671 0.69888 0.0
C2140 C 0.40954 0.92658 0.66361 0.0
C2141 C 0.39232 0.92169 0.64598 0.0
H2142 H 0.1883 0.51947 0.65425 0.0
H2143 H 0.14167 0.46619 0.65876 0.0
H2144 H 0.16095 0.45385 0.67899 0.0
H2145 H 0.21814 0.50517 0.60996 0.0
H2146 H 0.23775 0.52098 0.63884 0.0
H2147 H 0.22039 0.5262 0.62659 0.0
H2148 H 0.21727 0.53147 0.70484 0.0
H2149 H 0.23468 0.52636 0.71735 0.0
H2150 H 0.21302 0.51411 0.74196 0.0
H2151 H 0.18533 0.44664 0.69875 0.0
H2152 H 0.21255 0.44511 0.71436 0.0
H2153 H 0.24492 0.50255 0.69645 0.0
C2154 C 0.1821 0.50526 0.66023 0.0
C2155 C 0.1631 0.49395 0.65531 0.0
C2156 C 0.15593 0.47533 0.66243 0.0
C2157 C 0.16688 0.46811 0.67401 0.0
C2158 C 0.18538 0.47946 0.67828 0.0
C2159 C 0.19303 0.49766 0.67147 0.0
C2160 C 0.21349 0.50662 0.67676 0.0
C2161 C 0.22301 0.51526 0.63559 0.0
C2162 C 0.22 0.52047 0.71235 0.0
C2163 C 0.21607 0.49071 0.68803 0.0
C2164 C 0.19958 0.4752 0.68876 0.0
C2165 C 0.19827 0.45878 0.6984 0.0
C2166 C 0.214 0.45807 0.70764 0.0
C2167 C 0.23133 0.47364 0.70738 0.0
C2168 C 0.23214 0.49023 0.69699 0.0
H2169 H 0.37112 0.888 0.2082 0.0
H2170 H 0.38314 0.94074 0.25072 0.0
H2171 H 0.41512 0.95226 0.2372 0.0
H2172 H 0.4112 0.89011 0.25237 0.0
H2173 H 0.41487 0.87871 0.20954 0.0
H2174 H 0.39248 0.87418 0.22126 0.0
H2175 H 0.38887 0.88227 0.14561 0.0
H2176 H 0.41123 0.88679 0.13362 0.0
H2177 H 0.40514 0.90372 0.12476 0.0
H2178 H 0.44647 0.95875 0.21995 0.0
H2179 H 0.47449 0.95958 0.20032 0.0
H2180 H 0.44429 0.90301 0.16878 0.0
C2181 C 0.38043 0.90202 0.21417 0.0
C2182 C 0.37408 0.91335 0.23053 0.0
C2183 C 0.38714 0.93157 0.23828 0.0
C2184 C 0.40557 0.93835 0.23064 0.0
C2185 C 0.41134 0.92695 0.21496 0.0
C2186 C 0.39921 0.90915 0.20668 0.0
C2187 C 0.40939 0.8999 0.19052 0.0
C2188 C 0.40683 0.88482 0.22019 0.0
C2189 C 0.40329 0.89274 0.14598 0.0
C2190 C 0.42898 0.91526 0.19096 0.0
C2191 C 0.42966 0.9307 0.2053 0.0
C2192 C 0.44603 0.94666 0.2089 0.0
C2193 C 0.46208 0.94694 0.19786 0.0
C2194 C 0.46218 0.9314 0.18319 0.0
C2195 C 0.44509 0.9153 0.17956 0.0
H2196 H 0.14678 0.53088 0.19896 0.0
H2197 H 0.19469 0.56524 0.12786 0.0
H2198 H 0.20541 0.54382 0.13795 0.0
H2199 H 0.16909 0.51718 0.27519 0.0
H2200 H 0.15095 0.49441 0.27937 0.0
H2201 H 0.14631 0.51197 0.26559 0.0
H2202 H 0.12996 0.49451 0.19893 0.0
H2203 H 0.13472 0.47697 0.21221 0.0
H2204 H 0.14158 0.48795 0.16235 0.0
H2205 H 0.21173 0.51887 0.15608 0.0
H2206 H 0.21336 0.49285 0.18232 0.0
H2207 H 0.1621 0.47361 0.24413 0.0
C2208 C 0.15944 0.53381 0.18517 0.0
C2209 C 0.16983 0.55009 0.16244 0.0
C2210 C 0.18643 0.5532 0.1456 0.0
C2211 C 0.19267 0.54098 0.15108 0.0
C2212 C 0.18235 0.52534 0.17387 0.0
C2213 C 0.16608 0.52167 0.19085 0.0
C2214 C 0.15806 0.50397 0.21513 0.0
C2215 C 0.15598 0.50707 0.26158 0.0
C2216 C 0.14 0.49003 0.19601 0.0
C2217 C 0.17232 0.49839 0.20904 0.0
C2218 C 0.18615 0.51095 0.18489 0.0
C2219 C 0.20091 0.50897 0.17497 0.0
C2220 C 0.20172 0.49399 0.1901 0.0
C2221 C 0.18791 0.48081 0.21537 0.0
C2222 C 0.17293 0.4832 0.22472 0.0
H2223 H 0.61688 0.70674 0.25848 0.0
H2224 H 0.60358 0.73766 0.17391 0.0
H2225 H 0.57829 0.70963 0.14599 0.0
H2226 H 0.60536 0.66896 0.18813 0.0
H2227 H 0.59574 0.65225 0.22842 0.0
H2228 H 0.61321 0.67463 0.24123 0.0
H2229 H 0.59279 0.67711 0.29666 0.0
H2230 H 0.57521 0.65473 0.28416 0.0
H2231 H 0.57085 0.67312 0.28174 0.0
H2232 H 0.55398 0.67794 0.12651 0.0
H2233 H 0.53241 0.6458 0.11838 0.0
H2234 H 0.55972 0.6339 0.2165 0.0
C2235 C 0.60876 0.70765 0.2338 0.0
C2236 C 0.61261 0.72479 0.21833 0.0
C2237 C 0.60125 0.72502 0.18644 0.0
C2238 C 0.58673 0.70903 0.17028 0.0
C2239 C 0.58328 0.69251 0.18626 0.0
C2240 C 0.59394 0.69167 0.21749 0.0
C2241 C 0.58688 0.67207 0.2298 0.0
C2242 C 0.60115 0.66666 0.22139 0.0
C2243 C 0.58109 0.66908 0.27583 0.0
C2244 C 0.57063 0.66201 0.2006 0.0
C2245 C 0.56898 0.67418 0.17564 0.0
C2246 C 0.55526 0.66838 0.14592 0.0
C2247 C 0.54302 0.64987 0.14132 0.0
C2248 C 0.54409 0.6368 0.16626 0.0
C2249 C 0.55822 0.64323 0.19673 0.0
H2250 H 0.20744 0.72109 0.71755 0.0
H2251 H 0.15347 0.71309 0.72281 0.0
H2252 H 0.1411 0.68138 0.70475 0.0
H2253 H 0.19906 0.68996 0.62936 0.0
H2254 H 0.21277 0.68142 0.65037 0.0
H2255 H 0.21788 0.70391 0.66272 0.0
H2256 H 0.21619 0.69677 0.74143 0.0
H2257 H 0.211 0.67424 0.72937 0.0
H2258 H 0.19617 0.67802 0.76216 0.0
H2259 H 0.1338 0.64974 0.68735 0.0
H2260 H 0.13231 0.62115 0.67083 0.0
H2261 H 0.1905 0.64755 0.67577 0.0
C2262 C 0.19304 0.71276 0.71417 0.0
C2263 C 0.18157 0.72011 0.72164 0.0
C2264 C 0.16276 0.70826 0.71752 0.0
C2265 C 0.1555 0.69001 0.70713 0.0
C2266 C 0.16701 0.68318 0.70054 0.0
C2267 C 0.18541 0.69416 0.70369 0.0
C2268 C 0.19455 0.68298 0.69566 0.0
C2269 C 0.2068 0.68999 0.65724 0.0
C2270 C 0.20511 0.683 0.73446 0.0
C2271 C 0.17847 0.66418 0.68736 0.0
C2272 C 0.16274 0.66473 0.69058 0.0
C2273 C 0.1461 0.64923 0.68488 0.0
C2274 C 0.14539 0.63283 0.67574 0.0
C2275 C 0.16117 0.63149 0.67206 0.0
C2276 C 0.17802 0.64771 0.6779 0.0
H2277 H 0.44215 0.55582 0.64857 0.0
H2278 H 0.47401 0.53783 0.71668 0.0
H2279 H 0.44645 0.51133 0.73969 0.0
H2280 H 0.40632 0.54106 0.72626 0.0
H2281 H 0.38832 0.53369 0.68874 0.0
H2282 H 0.41052 0.55141 0.67556 0.0
H2283 H 0.41049 0.53361 0.61053 0.0
H2284 H 0.3883 0.51581 0.62358 0.0
H2285 H 0.40631 0.51106 0.6166 0.0
H2286 H 0.41584 0.4862 0.75562 0.0
H2287 H 0.38432 0.46479 0.76698 0.0
H2288 H 0.36911 0.49755 0.69358 0.0
C2289 C 0.44343 0.54638 0.66841 0.0
C2290 C 0.46092 0.54927 0.67967 0.0
C2291 C 0.46135 0.53619 0.70589 0.0
C2292 C 0.44554 0.52095 0.71968 0.0
C2293 C 0.42882 0.51848 0.70771 0.0
C2294 C 0.42751 0.53082 0.68286 0.0
C2295 C 0.40749 0.52463 0.67543 0.0
C2296 C 0.40289 0.53853 0.69251 0.0
C2297 C 0.40288 0.52107 0.62875 0.0
C2298 C 0.39786 0.50707 0.70045 0.0
C2299 C 0.4107 0.50392 0.71824 0.0
C2300 C 0.40575 0.48868 0.742 0.0
C2301 C 0.38745 0.47642 0.74832 0.0
C2302 C 0.3735 0.47902 0.73177 0.0
C2303 C 0.37903 0.4948 0.70701 0.0
H2304 H 0.61676 0.92725 0.7604 0.0
H2305 H 0.60807 0.88651 0.66875 0.0
H2306 H 0.58309 0.88915 0.63832 0.0
H2307 H 0.56938 0.91266 0.77577 0.0
H2308 H 0.57301 0.93504 0.78205 0.0
H2309 H 0.5905 0.93023 0.79545 0.0
H2310 H 0.61224 0.95547 0.74641 0.0
H2311 H 0.59462 0.96001 0.73203 0.0
H2312 H 0.60619 0.95485 0.69226 0.0
H2313 H 0.55826 0.89577 0.61758 0.0
H2314 H 0.53575 0.90526 0.60926 0.0
H2315 H 0.55908 0.94161 0.7144 0.0
C2316 C 0.60974 0.91899 0.73363 0.0
C2317 C 0.61479 0.9067 0.71697 0.0
C2318 C 0.60481 0.89606 0.6823 0.0
C2319 C 0.59048 0.89748 0.66466 0.0
C2320 C 0.58583 0.90957 0.68181 0.0
C2321 C 0.59513 0.92013 0.71565 0.0
C2322 C 0.58693 0.93168 0.7286 0.0
C2323 C 0.57948 0.92712 0.77313 0.0
C2324 C 0.60082 0.95169 0.72458 0.0
C2325 C 0.57165 0.926 0.69688 0.0
C2326 C 0.57137 0.91325 0.67012 0.0
C2327 C 0.55851 0.90582 0.63838 0.0
C2328 C 0.54571 0.91144 0.63373 0.0
C2329 C 0.54539 0.92444 0.66065 0.0
C2330 C 0.55868 0.93167 0.69301 0.0
H2331 H 0.31918 0.46336 0.16492 0.0
H2332 H 0.3308 0.49625 0.27619 0.0
H2333 H 0.36289 0.50628 0.26868 0.0
H2334 H 0.353 0.44993 0.18448 0.0
H2335 H 0.35899 0.45076 0.1303 0.0
H2336 H 0.33671 0.44588 0.14421 0.0
H2337 H 0.34067 0.47217 0.09797 0.0
H2338 H 0.36309 0.47723 0.0847 0.0
H2339 H 0.35941 0.4943 0.10729 0.0
H2340 H 0.39443 0.51385 0.24893 0.0
H2341 H 0.42259 0.51774 0.21917 0.0
H2342 H 0.39226 0.47979 0.12082 0.0
C2343 C 0.32845 0.47269 0.18772 0.0
C2344 C 0.32195 0.47873 0.22168 0.0
C2345 C 0.33491 0.49096 0.25047 0.0
C2346 C 0.35339 0.4969 0.24629 0.0
C2347 C 0.35926 0.49062 0.21308 0.0
C2348 C 0.3472 0.47872 0.18424 0.0
C2349 C 0.35736 0.47406 0.15166 0.0
C2350 C 0.35114 0.45396 0.15274 0.0
C2351 C 0.35498 0.47978 0.1078 0.0
C2352 C 0.3769 0.48529 0.16656 0.0
C2353 C 0.37757 0.49476 0.20205 0.0
C2354 C 0.39397 0.50639 0.22128 0.0
C2355 C 0.41003 0.50853 0.20401 0.0
C2356 C 0.41001 0.49906 0.16766 0.0
C2357 C 0.39298 0.48714 0.14892 0.0
H2358 H 0.59257 0.8527 0.21945 0.0
H2359 H 0.65007 0.88081 0.19772 0.0
H2360 H 0.64887 0.90775 0.17787 0.0
H2361 H 0.5813 0.87299 0.13358 0.0
H2362 H 0.56394 0.87452 0.16157 0.0
H2363 H 0.56906 0.8572 0.17438 0.0
H2364 H 0.57448 0.86783 0.25131 0.0
H2365 H 0.56943 0.88522 0.23865 0.0
H2366 H 0.59049 0.89086 0.26325 0.0
H2367 H 0.64172 0.93227 0.15909 0.0
H2368 H 0.62922 0.95178 0.14258 0.0
H2369 H 0.57612 0.90914 0.17647 0.0
C2370 C 0.60499 0.86452 0.21083 0.0
C2371 C 0.62148 0.86413 0.2101 0.0
C2372 C 0.63718 0.88017 0.19802 0.0
C2373 C 0.63666 0.89578 0.18689 0.0
C2374 C 0.62032 0.89562 0.18772 0.0
C2375 C 0.60472 0.8804 0.19935 0.0
C2376 C 0.58889 0.88391 0.19693 0.0
C2377 C 0.57497 0.87141 0.1647 0.0
C2378 C 0.58031 0.88183 0.24011 0.0
C2379 C 0.59804 0.90346 0.18239 0.0
C2380 C 0.61621 0.90987 0.17727 0.0
C2381 C 0.62752 0.92732 0.16329 0.0
C2382 C 0.62022 0.93842 0.15398 0.0
C2383 C 0.60161 0.93239 0.15848 0.0
C2384 C 0.59043 0.91452 0.17329 0.0
H2385 H 0.2227 0.77374 0.15438 0.0
H2386 H 0.24826 0.76244 0.25752 0.0
H2387 H 0.22629 0.7303 0.25094 0.0
H2388 H 0.17669 0.74009 0.1826 0.0
H2389 H 0.16906 0.73378 0.12956 0.0
H2390 H 0.18698 0.75611 0.1411 0.0
H2391 H 0.20739 0.75213 0.08807 0.0
H2392 H 0.1895 0.7298 0.07641 0.0
H2393 H 0.21107 0.73337 0.0932 0.0
H2394 H 0.20171 0.6985 0.23255 0.0
H2395 H 0.1761 0.6704 0.2058 0.0
H2396 H 0.16436 0.70086 0.11625 0.0
C2397 C 0.22373 0.76451 0.17551 0.0
C2398 C 0.23751 0.7711 0.20685 0.0
C2399 C 0.23797 0.75821 0.23369 0.0
C2400 C 0.22548 0.73972 0.23004 0.0
C2401 C 0.2121 0.73374 0.19943 0.0
C2402 C 0.21101 0.74575 0.17269 0.0
C2403 C 0.19488 0.73556 0.14319 0.0
C2404 C 0.18109 0.74176 0.14949 0.0
C2405 C 0.20108 0.73786 0.0975 0.0
C2406 C 0.18724 0.71609 0.15736 0.0
C2407 C 0.19753 0.71541 0.18971 0.0
C2408 C 0.19354 0.69899 0.20741 0.0
C2409 C 0.17885 0.68295 0.1919 0.0
C2410 C 0.1678 0.68303 0.15903 0.0
C2411 C 0.17221 0.70007 0.14176 0.0
H2412 H 0.34728 0.19142 0.14941 0.0
H2413 H 0.3742 0.24714 0.18839 0.0
H2414 H 0.40032 0.2448 0.21119 0.0
H2415 H 0.36403 0.17574 0.23601 0.0
H2416 H 0.3667 0.15984 0.20457 0.0
H2417 H 0.34985 0.1656 0.19103 0.0
H2418 H 0.36336 0.17459 0.11709 0.0
H2419 H 0.38032 0.16896 0.13046 0.0
H2420 H 0.38678 0.19101 0.11133 0.0
H2421 H 0.42435 0.23715 0.22795 0.0
H2422 H 0.44369 0.22439 0.24226 0.0
H2423 H 0.4021 0.1727 0.19606 0.0
C2424 C 0.3586 0.20311 0.16304 0.0
C2425 C 0.35837 0.21955 0.16695 0.0
C2426 C 0.3737 0.23439 0.18494 0.0
C2427 C 0.38876 0.23321 0.19796 0.0
C2428 C 0.38861 0.217 0.19336 0.0
C2429 C 0.37388 0.20211 0.17675 0.0
C2430 C 0.37734 0.18627 0.17605 0.0
C2431 C 0.36366 0.17095 0.20355 0.0
C2432 C 0.37692 0.17983 0.13105 0.0
C2433 C 0.39631 0.19462 0.19465 0.0
C2434 C 0.40247 0.21242 0.20404 0.0
C2435 C 0.41956 0.2232 0.22085 0.0
C2436 C 0.43057 0.21572 0.2288 0.0
C2437 C 0.42475 0.19739 0.22047 0.0
C2438 C 0.4072 0.18674 0.20289 0.0
H2439 H 0.85626 0.15794 0.18512 0.0
H2440 H 0.90717 0.16967 0.12986 0.0
H2441 H 0.91925 0.20145 0.14371 0.0
H2442 H 0.85676 0.19842 0.148 0.0
H2443 H 0.84788 0.20241 0.19522 0.0
H2444 H 0.84225 0.17992 0.18111 0.0
H2445 H 0.85407 0.17619 0.25244 0.0
H2446 H 0.85966 0.19864 0.2668 0.0
H2447 H 0.87664 0.1922 0.26837 0.0
H2448 H 0.92654 0.23222 0.16038 0.0
H2449 H 0.92947 0.2605 0.18427 0.0
H2450 H 0.87527 0.23194 0.23393 0.0
C2451 C 0.86996 0.16718 0.17607 0.0
C2452 C 0.88059 0.16074 0.15617 0.0
C2453 C 0.89849 0.17366 0.14519 0.0
C2454 C 0.90561 0.19202 0.15281 0.0
C2455 C 0.89496 0.19788 0.17207 0.0
C2456 C 0.87758 0.18598 0.18413 0.0
C2457 C 0.86956 0.19646 0.20539 0.0
C2458 C 0.85313 0.19416 0.18098 0.0
C2459 C 0.86469 0.19051 0.25096 0.0
C2460 C 0.88514 0.21592 0.20303 0.0
C2461 C 0.89951 0.21617 0.1832 0.0
C2462 C 0.91539 0.23216 0.17616 0.0
C2463 C 0.91689 0.24834 0.18996 0.0
C2464 C 0.90271 0.24893 0.21133 0.0
C2465 C 0.88647 0.23225 0.21778 0.0
H2466 H 0.85851 0.66026 0.22367 0.0
H2467 H 0.83433 0.6941 0.21909 0.0
H2468 H 0.86292 0.71932 0.19635 0.0
H2469 H 0.9025 0.6949 0.26124 0.0
H2470 H 0.91522 0.68782 0.22973 0.0
H2471 H 0.89276 0.67175 0.24583 0.0
H2472 H 0.88361 0.66281 0.16882 0.0
H2473 H 0.90605 0.67882 0.15249 0.0
H2474 H 0.88713 0.67983 0.13135 0.0
H2475 H 0.89394 0.7416 0.17482 0.0
H2476 H 0.92543 0.75936 0.15366 0.0
H2477 H 0.93187 0.7128 0.16924 0.0
C2478 C 0.85921 0.67295 0.21775 0.0
C2479 C 0.84372 0.67483 0.22353 0.0
C2480 C 0.8456 0.69189 0.21525 0.0
C2481 C 0.86196 0.70651 0.2022 0.0
C2482 C 0.87681 0.70428 0.19704 0.0
C2483 C 0.87572 0.68796 0.20429 0.0
C2484 C 0.89406 0.6896 0.19571 0.0
C2485 C 0.90158 0.68579 0.2355 0.0
C2486 C 0.89262 0.67701 0.15997 0.0
C2487 C 0.90547 0.7093 0.18274 0.0
C2488 C 0.89507 0.71738 0.18397 0.0
C2489 C 0.90219 0.73538 0.1737 0.0
C2490 C 0.92029 0.74544 0.16166 0.0
C2491 C 0.93157 0.73778 0.15954 0.0
C2492 C 0.92386 0.71929 0.17046 0.0
H2493 H 0.23417 0.41244 0.32519 0.0
H2494 H 0.17617 0.37882 0.32914 0.0
H2495 H 0.17952 0.35333 0.35102 0.0
H2496 H 0.24362 0.37826 0.28617 0.0
H2497 H 0.26342 0.38517 0.31764 0.0
H2498 H 0.25697 0.4013 0.30242 0.0
H2499 H 0.25672 0.4097 0.3798 0.0
H2500 H 0.26324 0.39364 0.39528 0.0
H2501 H 0.24327 0.3924 0.41673 0.0
H2502 H 0.18844 0.33091 0.37093 0.0
H2503 H 0.20211 0.31307 0.39095 0.0
H2504 H 0.25522 0.35975 0.37747 0.0
C2505 C 0.22216 0.39974 0.33087 0.0
C2506 C 0.20478 0.39794 0.32521 0.0
C2507 C 0.18959 0.3809 0.33306 0.0
C2508 C 0.19136 0.36618 0.34553 0.0
C2509 C 0.20848 0.36836 0.35052 0.0
C2510 C 0.22369 0.3847 0.34377 0.0
C2511 C 0.24046 0.38308 0.35198 0.0
C2512 C 0.25179 0.3872 0.31218 0.0
C2513 C 0.25158 0.39544 0.38809 0.0
C2514 C 0.23225 0.36329 0.36419 0.0
C2515 C 0.21375 0.35522 0.36282 0.0
C2516 C 0.20292 0.33716 0.37222 0.0
C2517 C 0.21098 0.32705 0.38365 0.0
C2518 C 0.22995 0.33467 0.38616 0.0
C2519 C 0.24073 0.35325 0.37598 0.0
H2520 H 0.68084 0.84013 0.32608 0.0
H2521 H 0.71359 0.81491 0.3366 0.0
H2522 H 0.7394 0.84373 0.35743 0.0
H2523 H 0.71586 0.88281 0.28549 0.0
H2524 H 0.70921 0.89642 0.31481 0.0
H2525 H 0.69275 0.8738 0.30064 0.0
H2526 H 0.68396 0.86639 0.37814 0.0
H2527 H 0.70033 0.88901 0.39254 0.0
H2528 H 0.70105 0.87043 0.41624 0.0
H2529 H 0.76228 0.87508 0.37528 0.0
H2530 H 0.78063 0.90669 0.39357 0.0
H2531 H 0.73458 0.91406 0.37546 0.0
C2532 C 0.69341 0.84063 0.33301 0.0
C2533 C 0.69486 0.82482 0.32947 0.0
C2534 C 0.71176 0.82643 0.3389 0.0
C2535 C 0.72667 0.84291 0.35077 0.0
C2536 C 0.72484 0.85809 0.35362 0.0
C2537 C 0.70865 0.8572 0.34543 0.0
C2538 C 0.71067 0.87584 0.3517 0.0
C2539 C 0.70689 0.88261 0.31072 0.0
C2540 C 0.69826 0.87539 0.38674 0.0
C2541 C 0.7305 0.88724 0.36446 0.0
C2542 C 0.73825 0.87652 0.36499 0.0
C2543 C 0.75628 0.88353 0.37517 0.0
C2544 C 0.76669 0.90176 0.38559 0.0
C2545 C 0.75939 0.9134 0.38637 0.0
C2546 C 0.74084 0.90584 0.37526 0.0
H2547 H 0.26734 0.90225 0.33915 0.0
H2548 H 0.25926 0.84929 0.31175 0.0
H2549 H 0.22741 0.83602 0.32881 0.0
H2550 H 0.2358 0.88793 0.42769 0.0
H2551 H 0.22737 0.90281 0.41564 0.0
H2552 H 0.24995 0.90877 0.40133 0.0
H2553 H 0.24312 0.91255 0.32461 0.0
H2554 H 0.22049 0.90651 0.33867 0.0
H2555 H 0.22437 0.89425 0.29825 0.0
H2556 H 0.19602 0.82775 0.3464 0.0
H2557 H 0.16734 0.82479 0.3681 0.0
H2558 H 0.1935 0.88229 0.38806 0.0
C2559 C 0.25891 0.88785 0.33701 0.0
C2560 C 0.26629 0.87698 0.32383 0.0
C2561 C 0.25443 0.85817 0.32158 0.0
C2562 C 0.23609 0.85038 0.33119 0.0
C2563 C 0.22928 0.86134 0.34356 0.0
C2564 C 0.24026 0.87966 0.34698 0.0
C2565 C 0.22909 0.88807 0.36173 0.0
C2566 C 0.23597 0.89746 0.40412 0.0
C2567 C 0.22929 0.90112 0.32885 0.0
C2568 C 0.21026 0.87162 0.3658 0.0
C2569 C 0.21085 0.85642 0.35479 0.0
C2570 C 0.19544 0.83958 0.35526 0.0
C2571 C 0.17904 0.83806 0.36767 0.0
C2572 C 0.17772 0.85321 0.38003 0.0
C2573 C 0.19376 0.87033 0.37881 0.0
H2574 H 0.73494 0.8375 0.87849 0.0
H2575 H 0.78201 0.89054 0.88797 0.0
H2576 H 0.7639 0.90399 0.86811 0.0
H2577 H 0.71522 0.84793 0.78743 0.0
H2578 H 0.69237 0.83478 0.80508 0.0
H2579 H 0.7088 0.8286 0.81986 0.0
H2580 H 0.70148 0.82974 0.89766 0.0
H2581 H 0.68508 0.83599 0.8831 0.0
H2582 H 0.70299 0.84988 0.91865 0.0
H2583 H 0.74121 0.91266 0.84972 0.0
H2584 H 0.71543 0.91587 0.82968 0.0
H2585 H 0.68144 0.858 0.82811 0.0
C2586 C 0.74146 0.85192 0.87602 0.0
C2587 C 0.76022 0.86278 0.88512 0.0
C2588 C 0.7679 0.88166 0.8815 0.0
C2589 C 0.75764 0.88957 0.87016 0.0
C2590 C 0.73939 0.87866 0.86195 0.0
C2591 C 0.73127 0.86023 0.86426 0.0
C2592 C 0.71126 0.85193 0.85329 0.0
C2593 C 0.70664 0.8401 0.81408 0.0
C2594 C 0.69951 0.84125 0.89038 0.0
C2595 C 0.70955 0.86857 0.84477 0.0
C2596 C 0.72607 0.88378 0.85029 0.0
C2597 C 0.72823 0.90081 0.84512 0.0
C2598 C 0.71333 0.90249 0.83372 0.0
C2599 C 0.69609 0.8873 0.82704 0.0
C2600 C 0.69429 0.87 0.83282 0.0
H2601 H 0.23589 0.83964 0.81329 0.0
H2602 H 0.18096 0.81153 0.85837 0.0
H2603 H 0.1839 0.84001 0.88135 0.0
H2604 H 0.2534 0.87281 0.89958 0.0
H2605 H 0.26869 0.89119 0.86718 0.0
H2606 H 0.26276 0.86858 0.85352 0.0
H2607 H 0.25235 0.87262 0.7807 0.0
H2608 H 0.25817 0.89522 0.79419 0.0
H2609 H 0.23574 0.87951 0.77677 0.0
H2610 H 0.1915 0.8712 0.89716 0.0
H2611 H 0.20399 0.90315 0.91045 0.0
H2612 H 0.25535 0.91375 0.86038 0.0
C2613 C 0.22452 0.83947 0.82827 0.0
C2614 C 0.20809 0.82289 0.83375 0.0
C2615 C 0.1937 0.82363 0.85359 0.0
C2616 C 0.19521 0.83992 0.86679 0.0
C2617 C 0.21133 0.85583 0.86072 0.0
C2618 C 0.22588 0.85586 0.84244 0.0
C2619 C 0.24171 0.87521 0.8408 0.0
C2620 C 0.25759 0.87705 0.86681 0.0
C2621 C 0.24733 0.88098 0.79541 0.0
C2622 C 0.23364 0.8859 0.8606 0.0
C2623 C 0.21601 0.87423 0.87137 0.0
C2624 C 0.20532 0.88042 0.88906 0.0
C2625 C 0.21267 0.89885 0.89637 0.0
C2626 C 0.23081 0.9115 0.88667 0.0
C2627 C 0.24147 0.90472 0.86841 0.0
H2628 H 0.17866 0.35853 0.87067 0.0
H2629 H 0.1868 0.31335 0.8926 0.0
H2630 H 0.21865 0.33203 0.87519 0.0
H2631 H 0.21002 0.37692 0.782 0.0
H2632 H 0.2185 0.40001 0.79632 0.0
H2633 H 0.19596 0.38331 0.81027 0.0
H2634 H 0.20298 0.39279 0.88772 0.0
H2635 H 0.22557 0.40946 0.87398 0.0
H2636 H 0.2218 0.39279 0.91264 0.0
H2637 H 0.24995 0.3552 0.85754 0.0
H2638 H 0.27858 0.38099 0.83721 0.0
H2639 H 0.25263 0.41295 0.82316 0.0
C2640 C 0.18711 0.35253 0.87154 0.0
C2641 C 0.17975 0.33413 0.88323 0.0
C2642 C 0.19163 0.32714 0.88392 0.0
C2643 C 0.20996 0.33775 0.87406 0.0
C2644 C 0.21674 0.35565 0.86311 0.0
C2645 C 0.20575 0.36307 0.8614 0.0
C2646 C 0.21691 0.38281 0.84823 0.0
C2647 C 0.20993 0.38595 0.80673 0.0
C2648 C 0.2168 0.3952 0.88269 0.0
C2649 C 0.23577 0.38521 0.84297 0.0
C2650 C 0.23515 0.36924 0.85205 0.0
C2651 C 0.25053 0.36773 0.8502 0.0
C2652 C 0.26692 0.38268 0.83852 0.0
C2653 C 0.26836 0.3994 0.82823 0.0
C2654 C 0.25232 0.40056 0.83074 0.0
H2655 H 0.90153 0.74492 0.65947 0.0
H2656 H 0.84392 0.71496 0.67921 0.0
H2657 H 0.84624 0.68887 0.70134 0.0
H2658 H 0.90604 0.70779 0.61996 0.0
H2659 H 0.92701 0.71428 0.64606 0.0
H2660 H 0.92126 0.73104 0.63187 0.0
H2661 H 0.92546 0.74188 0.70847 0.0
H2662 H 0.9313 0.72521 0.72291 0.0
H2663 H 0.91321 0.72606 0.7492 0.0
H2664 H 0.85419 0.66525 0.71986 0.0
H2665 H 0.86722 0.64639 0.73681 0.0
H2666 H 0.92037 0.69044 0.7083 0.0
C2667 C 0.88939 0.73291 0.66869 0.0
C2668 C 0.87244 0.73233 0.66739 0.0
C2669 C 0.85705 0.71612 0.67977 0.0
C2670 C 0.85823 0.70107 0.69241 0.0
C2671 C 0.87496 0.70204 0.69306 0.0
C2672 C 0.89034 0.71758 0.68186 0.0
C2673 C 0.90663 0.71484 0.68595 0.0
C2674 C 0.91578 0.71713 0.64342 0.0
C2675 C 0.91994 0.72777 0.71857 0.0
C2676 C 0.89797 0.69536 0.70092 0.0
C2677 C 0.87964 0.68835 0.70453 0.0
C2678 C 0.86854 0.6707 0.71724 0.0
C2679 C 0.87618 0.65997 0.72683 0.0
C2680 C 0.89496 0.66657 0.72418 0.0
C2681 C 0.90598 0.68471 0.7108 0.0
H2682 H 0.37812 0.15787 0.68588 0.0
H2683 H 0.33705 0.16804 0.6352 0.0
H2684 H 0.35602 0.19982 0.64884 0.0
H2685 H 0.39203 0.19202 0.76969 0.0
H2686 H 0.4156 0.19924 0.76632 0.0
H2687 H 0.39911 0.17659 0.75238 0.0
H2688 H 0.41384 0.18088 0.67989 0.0
H2689 H 0.43031 0.20356 0.69358 0.0
H2690 H 0.41673 0.19917 0.64735 0.0
H2691 H 0.37915 0.23119 0.66488 0.0
H2692 H 0.40444 0.25996 0.68834 0.0
H2693 H 0.43181 0.2324 0.73362 0.0
C2694 C 0.37308 0.16674 0.67783 0.0
C2695 C 0.35565 0.15973 0.65912 0.0
C2696 C 0.35 0.17232 0.64947 0.0
C2697 C 0.36082 0.19076 0.65701 0.0
C2698 C 0.37767 0.19716 0.67495 0.0
C2699 C 0.38384 0.18565 0.68585 0.0
C2700 C 0.40255 0.19665 0.70592 0.0
C2701 C 0.40231 0.19077 0.75128 0.0
C2702 C 0.4167 0.19496 0.68015 0.0
C2703 C 0.40572 0.21589 0.70419 0.0
C2704 C 0.39112 0.21568 0.68571 0.0
C2705 C 0.39064 0.23149 0.67961 0.0
C2706 C 0.40523 0.24793 0.69303 0.0
C2707 C 0.42043 0.24889 0.71304 0.0
C2708 C 0.42055 0.23242 0.71848 0.0
H2709 H 0.93233 0.23195 0.68259 0.0
H2710 H 0.92343 0.18112 0.63364 0.0
H2711 H 0.89124 0.16742 0.64912 0.0
H2712 H 0.89928 0.21306 0.7673 0.0
H2713 H 0.89182 0.22914 0.76187 0.0
H2714 H 0.91445 0.23519 0.74792 0.0
H2715 H 0.90943 0.24404 0.67413 0.0
H2716 H 0.88676 0.23793 0.68786 0.0
H2717 H 0.89091 0.22794 0.64283 0.0
H2718 H 0.85936 0.15874 0.66883 0.0
H2719 H 0.83074 0.15582 0.69262 0.0
H2720 H 0.85882 0.21183 0.72936 0.0
C2721 C 0.92365 0.2179 0.67548 0.0
C2722 C 0.93082 0.20773 0.65678 0.0
C2723 C 0.91866 0.18939 0.64782 0.0
C2724 C 0.90017 0.18139 0.65653 0.0
C2725 C 0.89356 0.19173 0.67439 0.0
C2726 C 0.9049 0.20959 0.68396 0.0
C2727 C 0.89404 0.21757 0.70277 0.0
C2728 C 0.90027 0.22413 0.74763 0.0
C2729 C 0.89537 0.23278 0.67526 0.0
C2730 C 0.87494 0.20146 0.70221 0.0
C2731 C 0.87505 0.1867 0.68565 0.0
C2732 C 0.85918 0.17025 0.68186 0.0
C2733 C 0.84286 0.16872 0.69549 0.0
C2734 C 0.84215 0.18351 0.71293 0.0
C2735 C 0.85861 0.20017 0.71605 0.0
H2736 H 1.04402 0.56905 0.51365 0.0
H2737 H 1.00416 0.51836 0.45911 0.0
H2738 H 1.02349 0.50568 0.47375 0.0
H2739 H 0.08365 0.56732 0.47754 0.0
H2740 H 0.09648 0.57638 0.52483 0.0
H2741 H 0.0799 0.58232 0.50976 0.0
H2742 H 0.06419 0.57139 0.58105 0.0
H2743 H 0.08076 0.56547 0.59635 0.0
H2744 H 0.05723 0.54891 0.59781 0.0
H2745 H 1.04675 0.49784 0.49202 0.0
H2746 H 0.07185 0.49459 0.51723 0.0
H2747 H 0.09804 0.54913 0.56495 0.0
C2748 C 1.03937 0.55529 0.5048 0.0
C2749 C 1.02223 0.54484 0.48499 0.0
C2750 C 1.01692 0.52683 0.47437 0.0
C2751 C 1.02794 0.51941 0.48246 0.0
C2752 C 1.04452 0.52989 0.50183 0.0
C2753 C 1.05028 0.5474 0.51335 0.0
C2754 C 0.0687 0.55524 0.53495 0.0
C2755 C 0.08304 0.57128 0.5103 0.0
C2756 C 0.06766 0.56057 0.58024 0.0
C2757 C 0.07226 0.53943 0.5335 0.0
C2758 C 0.05804 0.52507 0.51378 0.0
C2759 C 0.05791 0.50899 0.50767 0.0
C2760 C 0.07245 0.50731 0.52222 0.0
C2761 C 0.08729 0.5215 0.54343 0.0
C2762 C 0.08708 0.53791 0.54897 0.0
H2763 H 0.58773 0.57957 0.5437 0.0
H2764 H 0.53465 0.57163 0.56957 0.0
H2765 H 0.52135 0.53974 0.55237 0.0
H2766 H 0.57389 0.54815 0.45534 0.0
H2767 H 0.58875 0.53974 0.46813 0.0
H2768 H 0.59465 0.56226 0.48261 0.0
H2769 H 0.59803 0.55545 0.55956 0.0
H2770 H 0.59209 0.53289 0.54532 0.0
H2771 H 0.57956 0.53672 0.58513 0.0
H2772 H 0.51316 0.50844 0.53378 0.0
H2773 H 0.51033 0.47989 0.512 0.0
H2774 H 0.56809 0.50593 0.49502 0.0
C2775 C 0.5733 0.57114 0.54559 0.0
C2776 C 0.56236 0.57853 0.55817 0.0
C2777 C 0.54352 0.56673 0.56009 0.0
C2778 C 0.53575 0.5484 0.5504 0.0
C2779 C 0.54679 0.5416 0.53839 0.0
C2780 C 0.56516 0.55254 0.53563 0.0
C2781 C 0.5737 0.54143 0.52133 0.0
C2782 C 0.58332 0.54831 0.47936 0.0
C2783 C 0.58662 0.54164 0.55483 0.0
C2784 C 0.55725 0.52264 0.51659 0.0
C2785 C 0.54195 0.52323 0.52691 0.0
C2786 C 0.52508 0.50788 0.52552 0.0
C2787 C 0.52364 0.49155 0.513 0.0
C2788 C 0.5389 0.49021 0.50147 0.0
C2789 C 0.55606 0.5062 0.50359 0.0
H2790 H 0.58511 0.0793 0.48883 0.0
H2791 H 0.61158 0.04793 0.5041 0.0
H2792 H 0.58298 1.02204 0.52525 0.0
H2793 H 0.55443 0.05968 0.57817 0.0
H2794 H 0.53558 0.05945 0.55279 0.0
H2795 H 0.55815 0.07603 0.53864 0.0
H2796 H 0.55119 0.06608 0.46153 0.0
H2797 H 0.52862 0.04941 0.47543 0.0
H2798 H 0.54279 0.04291 0.44803 0.0
H2799 H 0.55174 0.99894 0.54402 0.0
H2800 H 0.52009 0.98024 0.56193 0.0
H2801 H 0.51113 1.02474 0.53714 0.0
C2802 C 0.58492 0.06701 0.49687 0.0
C2803 C 0.60108 0.06601 0.49459 0.0
C2804 C 0.59982 0.04945 0.50535 0.0
C2805 C 0.58346 1.03448 0.51746 0.0
C2806 C 0.56795 1.03585 0.51911 0.0
C2807 C 0.56843 0.05168 0.50937 0.0
C2808 C 0.54947 0.04916 0.51424 0.0
C2809 C 0.54941 0.06184 0.54797 0.0
C2810 C 0.54261 0.05207 0.47231 0.0
C2811 C 0.53838 1.02949 0.52811 0.0
C2812 C 0.54954 1.02226 0.53046 0.0
C2813 C 0.54294 1.00454 0.54238 0.0
C2814 C 0.52468 0.99392 0.55262 0.0
C2815 C 0.51255 1.00064 0.55136 0.0
C2816 C 0.5197 1.01888 0.53845 0.0
H2817 H 0.5859 1.02244 0.03078 0.0
H2818 H 0.53481 0.98019 0.07725 0.0
H2819 H 0.52101 0.99855 0.06187 0.0
H2820 H 0.58131 0.05944 0.07142 0.0
H2821 H 0.59144 0.07382 0.02706 0.0
H2822 H 0.59769 0.05736 0.04052 0.0
H2823 H 0.58925 0.04393 0.96615 0.0
H2824 H 0.58305 0.0604 0.95245 0.0
H2825 H 0.56711 0.03691 0.94596 0.0
H2826 H 0.51207 1.02156 0.04225 0.0
H2827 H 0.50893 0.04713 1.01898 0.0
H2828 H 0.56526 0.07569 0.98482 0.0
C2829 C 0.57177 1.01697 0.03737 0.0
C2830 C 0.56159 0.99954 0.05536 0.0
C2831 C 0.54314 0.99329 0.06365 0.0
C2832 C 0.53506 1.00371 0.05497 0.0
C2833 C 0.54538 1.02072 0.03781 0.0
C2834 C 0.56335 1.02737 0.02894 0.0
C2835 C 0.57127 0.04629 1.01085 0.0
C2836 C 0.58633 0.06004 0.03915 0.0
C2837 C 0.57808 0.04692 0.9662 0.0
C2838 C 0.555 0.04913 1.01099 0.0
C2839 C 0.54022 1.03413 0.02672 0.0
C2840 C 0.52361 1.03336 0.02991 0.0
C2841 C 0.52195 0.04809 1.01657 0.0
C2842 C 0.53675 0.06376 1.00002 0.0
C2843 C 0.55357 0.06413 0.99749 0.0
H2844 H 1.0425 0.49249 1.01903 0.0
H2845 H 0.99985 0.50162 0.97568 0.0
H2846 H 1.01854 0.53366 0.9915 0.0
H2847 H 0.05802 0.52568 0.10472 0.0
H2848 H 0.08148 0.5331 0.09715 0.0
H2849 H 0.06474 0.51051 0.08357 0.0
H2850 H 0.07744 0.5154 1.00865 0.0
H2851 H 0.09416 0.53804 1.02199 0.0
H2852 H 0.0793 0.53384 0.97831 0.0
H2853 H 1.04182 0.56525 1.01032 0.0
H2854 H 0.06767 0.59385 0.03276 0.0
H2855 H 0.09665 0.56625 0.06518 0.0
C2856 C 1.03701 0.50118 1.01332 0.0
C2857 C 1.01938 0.49409 0.996 0.0
C2858 C 1.01309 0.50629 0.98876 0.0
C2859 C 1.0237 0.52471 0.99768 0.0
C2860 C 1.04091 0.53126 1.01407 0.0
C2861 C 1.04759 0.51992 1.02208 0.0
C2862 C 0.06676 0.53082 0.0395 0.0
C2863 C 0.06781 0.52466 0.08388 0.0
C2864 C 0.08021 0.52944 1.01038 0.0
C2865 C 0.0697 0.54992 0.03991 0.0
C2866 C 1.05452 0.54972 0.02499 0.0
C2867 C 1.05375 0.5655 1.02211 0.0
C2868 C 0.06866 0.58183 0.03499 0.0
C2869 C 0.08453 0.58272 0.05087 0.0
C2870 C 0.08492 0.56632 0.05309 0.0
H2871 H 0.51211 0.50226 0.04566 0.0
H2872 H 0.51902 0.5556 0.05878 0.0
H2873 H 0.55046 0.56879 0.03918 0.0
H2874 H 0.55636 0.51356 0.08517 0.0
H2875 H 0.56019 0.5 0.04827 0.0
H2876 H 0.5376 0.49381 0.06307 0.0
H2877 H 0.52923 0.49379 0.98554 0.0
H2878 H 0.55178 0.49989 0.97052 0.0
H2879 H 0.54233 0.51348 0.95438 0.0
H2880 H 0.58149 0.57726 1.0211 0.0
H2881 H 0.61032 0.58054 1.00023 0.0
H2882 H 0.58609 0.52264 0.99405 0.0
C2883 C 0.5202 0.5167 0.04407 0.0
C2884 C 0.51258 0.5277 0.05424 0.0
C2885 C 0.52401 0.54658 0.05161 0.0
C2886 C 0.54214 0.55436 0.04042 0.0
C2887 C 0.54922 0.54334 0.03124 0.0
C2888 C 0.53871 0.52491 0.03237 0.0
C2889 C 0.55025 0.51655 1.02026 0.0
C2890 C 0.55115 0.50531 0.05634 0.0
C2891 C 0.54296 0.50525 0.9803 0.0
C2892 C 0.56871 0.53317 1.01254 0.0
C2893 C 0.56758 0.54839 1.01947 0.0
C2894 C 0.58251 0.56542 1.01535 0.0
C2895 C 0.59901 0.56713 1.00346 0.0
C2896 C 0.60092 0.55196 0.99518 0.0
C2897 C 0.58535 0.53462 1.00002 0.0
H2898 H 0.36247 0.22373 1.00949 0.0
H2899 H 0.3456 0.26339 1.00595 0.0
H2900 H 0.36893 0.28047 0.95333 0.0
H2901 H 0.40922 0.25253 0.99593 0.0
H2902 H 0.41303 0.23843 0.96067 0.0
H2903 H 0.39464 0.22859 0.99706 0.0
H2904 H 0.3722 0.21293 0.9366 0.0
H2905 H 0.39058 0.22237 0.90013 0.0
H2906 H 0.37184 0.22603 0.89321 0.0
H2907 H 0.39721 0.29574 0.90712 0.0
H2908 H 0.42212 0.30389 0.85785 0.0
H2909 H 0.41927 0.253 0.88039 0.0
C2910 C 0.36313 0.23559 0.99631 0.0
C2911 C 0.35141 0.24171 1.01169 0.0
C2912 C 0.35364 0.25785 0.9943 0.0
C2913 C 0.36721 0.26789 0.96464 0.0
C2914 C 0.37871 0.26176 0.95111 0.0
C2915 C 0.37636 0.24558 0.9651 0.0
C2916 C 0.39022 0.24181 0.94372 0.0
C2917 C 0.4025 0.24024 0.9763 0.0
C2918 C 0.38064 0.22477 0.91682 0.0
C2919 C 0.4009 0.25849 0.91628 0.0
C2920 C 0.39422 0.26999 0.92208 0.0
C2921 C 0.40226 0.28662 0.90211 0.0
C2922 C 0.41674 0.29131 0.87434 0.0
C2923 C 0.42337 0.2795 0.86509 0.0
C2924 C 0.41518 0.26276 0.88704 0.0
H2925 H 0.82255 0.10585 0.9974 0.0
H2926 H 0.8772 0.14942 1.01081 0.0
H2927 H 0.87054 0.16736 0.96038 0.0
H2928 H 0.8165 0.11125 0.88774 0.0
H2929 H 0.79348 0.10582 0.89381 0.0
H2930 H 0.80308 0.09668 0.92932 0.0
H2931 H 0.79442 0.10986 0.99181 0.0
H2932 H 0.78481 0.11905 0.95649 0.0
H2933 H 0.80192 0.13347 0.99313 0.0
H2934 H 0.85646 0.18069 0.90313 0.0
H2935 H 0.83764 0.18704 0.85444 0.0
H2936 H 0.79203 0.13527 0.88388 0.0
C2937 C 0.8333 0.11913 0.98975 0.0
C2938 C 0.85066 0.12588 1.00857 0.0
C2939 C 0.8639 0.14358 0.99726 0.0
C2940 C 0.86013 0.15396 0.96835 0.0
C2941 C 0.84286 0.14683 0.95062 0.0
C2942 C 0.82967 0.12974 0.96155 0.0
C2943 C 0.81196 0.12504 0.93987 0.0
C2944 C 0.8059 0.10873 0.91098 0.0
C2945 C 0.79742 0.12166 0.97225 0.0
C2946 C 0.81703 0.14196 0.91462 0.0
C2947 C 0.83494 0.15445 0.92065 0.0
C2948 C 0.84242 0.17086 0.89899 0.0
C2949 C 0.83155 0.17446 0.87112 0.0
C2950 C 0.81302 0.16194 0.86475 0.0
C2951 C 0.80597 0.14548 0.88755 0.0
H2952 H 0.95577 0.67013 0.88525 0.0
H2953 H 0.90275 0.66265 0.86305 0.0
H2954 H 0.90966 0.68772 0.91238 0.0
H2955 H 0.95954 0.68187 0.99511 0.0
H2956 H 0.98308 0.69822 0.99176 0.0
H2957 H 0.97338 0.67942 0.95639 0.0
H2958 H 0.98496 0.70106 0.89362 0.0
H2959 H 0.99462 0.71994 0.92879 0.0
H2960 H 0.97895 0.71827 0.88913 0.0
H2961 H 0.92382 0.71543 0.96813 0.0
H2962 H 0.94241 0.74023 1.01778 0.0
H2963 H 0.98642 0.73004 0.99928 0.0
C2964 C 0.94541 0.67353 0.89081 0.0
C2965 C 0.92845 0.66384 0.86979 0.0
C2966 C 0.91571 0.66937 0.87845 0.0
C2967 C 0.91963 0.6838 0.90662 0.0
C2968 C 0.93654 0.6931 0.92635 0.0
C2969 C 0.9492 0.68803 0.91839 0.0
C2970 C 0.96659 0.70021 0.94215 0.0
C2971 C 0.9709 0.68928 0.97319 0.0
C2972 C 0.9822 0.71048 0.9116 0.0
C2973 C 0.96195 0.71296 0.96509 0.0
C2974 C 0.94453 0.70872 0.956 0.0
C2975 C 0.93746 0.71869 0.9748 0.0
C2976 C 0.94822 0.73296 1.00317 0.0
C2977 C 0.9662 0.73765 1.01296 0.0
C2978 C 0.9729 0.72728 0.99288 0.0
H2979 H 0.29031 0.33913 0.55044 0.0
H2980 H 0.23728 0.33193 0.53005 0.0
H2981 H 0.24449 0.35685 0.5801 0.0
H2982 H 0.29454 0.35044 0.66055 0.0
H2983 H 0.31808 0.3668 0.65708 0.0
H2984 H 0.30825 0.34818 0.62116 0.0
H2985 H 0.31966 0.37014 0.559 0.0
H2986 H 0.32947 0.38883 0.59473 0.0
H2987 H 0.3137 0.38742 0.55565 0.0
H2988 H 0.25882 0.38417 0.63681 0.0
H2989 H 0.27755 0.40875 0.68672 0.0
H2990 H 0.32159 0.3988 0.66611 0.0
C2991 C 0.28001 0.34259 0.55646 0.0
C2992 C 0.26295 0.33298 0.53571 0.0
C2993 C 0.25032 0.33859 0.54508 0.0
C2994 C 0.25441 0.35293 0.57373 0.0
C2995 C 0.27139 0.36209 0.59327 0.0
C2996 C 0.28398 0.35702 0.58452 0.0
C2997 C 0.30147 0.36908 0.60824 0.0
C2998 C 0.30584 0.35796 0.63855 0.0
C2999 C 0.31699 0.37948 0.57758 0.0
C3000 C 0.29697 0.38177 0.63208 0.0
C3001 C 0.27951 0.37756 0.62344 0.0
C3002 C 0.2725 0.38741 0.64307 0.0
C3003 C 0.28334 0.40155 0.67164 0.0
C3004 C 0.30138 0.40629 0.6809 0.0
C3005 C 0.30804 0.39601 0.66012 0.0
H3006 H 0.6955 0.93975 0.66496 0.0
H3007 H 0.68712 0.88657 0.68712 0.0
H3008 H 0.712 0.8929 0.63788 0.0
H3009 H 0.70695 0.94296 0.55501 0.0
H3010 H 0.72371 0.96634 0.55815 0.0
H3011 H 0.70501 0.95715 0.59366 0.0
H3012 H 0.72697 0.96859 0.65629 0.0
H3013 H 0.74574 0.97777 0.62096 0.0
H3014 H 0.74393 0.96219 0.6607 0.0
H3015 H 0.73937 0.90623 0.58165 0.0
H3016 H 0.76421 0.92416 0.53199 0.0
H3017 H 0.7555 0.96904 0.55055 0.0
C3018 C 0.6987 0.92925 0.65947 0.0
C3019 C 0.68876 0.9124 0.68048 0.0
C3020 C 0.69404 0.89947 0.67186 0.0
C3021 C 0.70835 0.90305 0.64366 0.0
C3022 C 0.71784 0.91982 0.62381 0.0
C3023 C 0.71312 0.93271 0.63183 0.0
C3024 C 0.72551 0.94989 0.60785 0.0
C3025 C 0.71465 0.95435 0.57684 0.0
C3026 C 0.73617 0.96553 0.63826 0.0
C3027 C 0.73799 0.94485 0.58479 0.0
C3028 C 0.73337 0.9274 0.59395 0.0
C3029 C 0.74294 0.91991 0.57499 0.0
C3030 C 0.75724 0.93029 0.54655 0.0
C3031 C 0.76242 0.94834 0.53682 0.0
C3032 C 0.75239 0.95546 0.55693 0.0
H3033 H 0.12582 0.81322 0.57608 0.0
H3034 H 0.17223 0.84609 0.49959 0.0
H3035 H 0.19048 0.83733 0.54342 0.0
H3036 H 0.15007 0.8231 0.67578 0.0
H3037 H 0.13594 0.80082 0.69562 0.0
H3038 H 0.1271 0.8101 0.65843 0.0
H3039 H 0.11786 0.78275 0.61008 0.0
H3040 H 0.12693 0.77354 0.64686 0.0
H3041 H 0.13458 0.77726 0.59353 0.0
H3042 H 0.20381 0.82284 0.59768 0.0
H3043 H 0.21031 0.808 0.65658 0.0
H3044 H 0.15532 0.78553 0.69785 0.0
C3045 C 0.13991 0.81886 0.56877 0.0
C3046 C 0.14741 0.83066 0.53399 0.0
C3047 C 0.16596 0.83734 0.52597 0.0
C3048 C 0.17648 0.83223 0.55077 0.0
C3049 C 0.16855 0.82036 0.58434 0.0
C3050 C 0.15064 0.81402 0.59353 0.0
C3051 C 0.14515 0.80168 0.63148 0.0
C3052 C 0.13922 0.80939 0.66746 0.0
C3053 C 0.13025 0.78269 0.61978 0.0
C3054 C 0.1626 0.80188 0.64236 0.0
C3055 C 0.17602 0.81258 0.61475 0.0
C3056 C 0.19323 0.81451 0.61919 0.0
C3057 C 0.19684 0.8058 0.65272 0.0
C3058 C 0.18342 0.79519 0.68227 0.0
C3059 C 0.16604 0.79328 0.67606 0.0
H3060 H 0.69134 0.77135 0.1592 0.0
H3061 H 0.68566 0.81749 0.18683 0.0
H3062 H 0.7108 0.83568 0.13807 0.0
H3063 H 0.73974 0.79522 0.15506 0.0
H3064 H 0.74078 0.78149 0.11383 0.0
H3065 H 0.72201 0.77232 0.14916 0.0
H3066 H 0.70011 0.76358 0.08666 0.0
H3067 H 0.71881 0.77268 0.05114 0.0
H3068 H 0.70286 0.78047 0.04961 0.0
H3069 H 0.73815 0.84918 0.08188 0.0
H3070 H 0.76275 0.85545 0.03176 0.0
H3071 H 0.75126 0.80074 0.04498 0.0
C3072 C 0.69517 0.78526 0.15497 0.0
C3073 C 0.68593 0.79268 0.17733 0.0
C3074 C 0.69203 0.81114 0.17043 0.0
C3075 C 0.70649 0.82167 0.14254 0.0
C3076 C 0.71529 0.81389 0.12133 0.0
C3077 C 0.70975 0.796 0.1277 0.0
C3078 C 0.72153 0.79067 0.1026 0.0
C3079 C 0.73161 0.78456 0.13191 0.0
C3080 C 0.71015 0.77598 0.07061 0.0
C3081 C 0.73458 0.80818 0.08073 0.0
C3082 C 0.7308 0.8215 0.09149 0.0
C3083 C 0.74105 0.83867 0.07391 0.0
C3084 C 0.75519 0.84221 0.0452 0.0
C3085 C 0.75949 0.82882 0.03385 0.0
C3086 C 0.7488 0.81157 0.05258 0.0
H3087 H 0.29142 0.96624 0.04305 0.0
H3088 H 0.23727 0.92221 0.02564 0.0
H3089 H 0.24363 0.90416 0.0764 0.0
H3090 H 0.31283 0.93942 0.04919 0.0
H3091 H 0.32918 0.95376 0.08733 0.0
H3092 H 0.31984 0.96292 0.05119 0.0
H3093 H 0.30971 0.9752 0.11283 0.0
H3094 H 0.31908 0.96613 0.14914 0.0
H3095 H 0.29583 0.96013 0.15321 0.0
H3096 H 0.25744 0.89066 0.13427 0.0
H3097 H 0.27585 0.88459 0.18495 0.0
H3098 H 0.32105 0.93715 0.15945 0.0
C3099 C 0.28072 0.95282 0.04984 0.0
C3100 C 0.26362 0.94597 0.02975 0.0
C3101 C 0.2504 0.92813 0.04014 0.0
C3102 C 0.25399 0.91768 0.06922 0.0
C3103 C 0.27105 0.9249 0.08814 0.0
C3104 C 0.28418 0.94218 0.07831 0.0
C3105 C 0.30161 0.94707 0.10151 0.0
C3106 C 0.31676 0.95103 0.07045 0.0
C3107 C 0.30686 0.96308 0.13091 0.0
C3108 C 0.29648 0.93003 0.12627 0.0
C3109 C 0.27878 0.91729 0.1187 0.0
C3110 C 0.27131 0.90071 0.13965 0.0
C3111 C 0.28197 0.89725 0.1686 0.0
C3112 C 0.30024 0.91013 0.17682 0.0
C3113 C 0.3073 0.92668 0.15446 0.0
H3114 H 0.15591 0.40262 0.15247 0.0
H3115 H 0.20663 0.40634 0.18441 0.0
H3116 H 0.19959 0.38112 0.13547 0.0
H3117 H 0.13024 0.35447 0.14731 0.0
H3118 H 0.11621 0.35402 0.10491 0.0
H3119 H 0.12585 0.3727 0.14066 0.0
H3120 H 0.14031 0.3945 0.07888 0.0
H3121 H 0.13066 0.37589 0.04293 0.0
H3122 H 0.15454 0.39115 0.04304 0.0
H3123 H 0.18572 0.35391 0.07868 0.0
H3124 H 0.16747 0.32972 0.02741 0.0
H3125 H 0.12532 0.34316 0.03703 0.0
C3126 C 0.16574 0.39835 0.14916 0.0
C3127 C 0.18211 0.40704 0.17275 0.0
C3128 C 0.19415 0.40039 0.16702 0.0
C3129 C 0.19015 0.38588 0.13906 0.0
C3130 C 0.17384 0.37762 0.11666 0.0
C3131 C 0.16182 0.38373 0.12188 0.0
C3132 C 0.14493 0.37248 0.09565 0.0
C3133 C 0.12833 0.36285 0.12381 0.0
C3134 C 0.14247 0.3842 0.06321 0.0
C3135 C 0.14912 0.35906 0.07444 0.0
C3136 C 0.16591 0.36219 0.08651 0.0
C3137 C 0.17255 0.35151 0.06968 0.0
C3138 C 0.16201 0.33761 0.04033 0.0
C3139 C 0.14465 0.33401 0.02764 0.0
C3140 C 0.13836 0.34511 0.04567 0.0
H3141 H 0.82282 0.73629 0.49804 0.0
H3142 H 0.87501 0.74194 0.52187 0.0
H3143 H 0.86747 0.71655 0.47316 0.0
H3144 H 0.79835 0.68791 0.49479 0.0
H3145 H 0.78301 0.68664 0.45469 0.0
H3146 H 0.79301 0.70557 0.48969 0.0
H3147 H 0.80526 0.72703 0.42672 0.0
H3148 H 0.79526 0.70817 0.39152 0.0
H3149 H 0.81895 0.72405 0.38852 0.0
H3150 H 0.85309 0.68913 0.41728 0.0
H3151 H 0.83428 0.66442 0.36771 0.0
H3152 H 0.79098 0.6758 0.38478 0.0
C3153 C 0.83285 0.73239 0.49298 0.0
C3154 C 0.8498 0.7417 0.51421 0.0
C3155 C 0.86208 0.7355 0.50633 0.0
C3156 C 0.85781 0.7209 0.47847 0.0
C3157 C 0.84097 0.71205 0.45833 0.0
C3158 C 0.82868 0.71765 0.46576 0.0
C3159 C 0.81126 0.70576 0.44172 0.0
C3160 C 0.79547 0.69588 0.47203 0.0
C3161 C 0.80746 0.71692 0.41026 0.0
C3162 C 0.8155 0.6926 0.41922 0.0
C3163 C 0.83275 0.69642 0.42875 0.0
C3164 C 0.83955 0.68616 0.4103 0.0
C3165 C 0.82868 0.67196 0.38194 0.0
C3166 C 0.81081 0.66758 0.37186 0.0
C3167 C 0.80438 0.67829 0.39148 0.0
H3168 H 0.35738 0.10495 0.49137 0.0
H3169 H 0.35235 0.15115 0.52294 0.0
H3170 H 0.37749 0.16959 0.47426 0.0
H3171 H 0.40564 0.12823 0.48708 0.0
H3172 H 0.40641 0.11476 0.44485 0.0
H3173 H 0.38768 0.10549 0.48027 0.0
H3174 H 0.36576 0.09762 0.41808 0.0
H3175 H 0.38443 0.10682 0.38246 0.0
H3176 H 0.36874 0.11495 0.38211 0.0
H3177 H 0.40489 0.18331 0.41764 0.0
H3178 H 0.4293 0.18962 0.3669 0.0
H3179 H 0.417 0.13456 0.37696 0.0
C3180 C 0.36134 0.11894 0.48809 0.0
C3181 C 0.35229 0.12628 0.51153 0.0
C3182 C 0.35855 0.14484 0.5057 0.0
C3183 C 0.37302 0.15551 0.47788 0.0
C3184 C 0.38165 0.14776 0.45569 0.0
C3185 C 0.3759 0.12978 0.46098 0.0
C3186 C 0.38746 0.12443 0.43506 0.0
C3187 C 0.39738 0.11784 0.46351 0.0
C3188 C 0.37591 0.11011 0.4025 0.0
C3189 C 0.40066 0.14205 0.41392 0.0
C3190 C 0.39714 0.15545 0.42574 0.0
C3191 C 0.40758 0.17274 0.40888 0.0
C3192 C 0.42161 0.1763 0.37981 0.0
C3193 C 0.42564 0.16282 0.36741 0.0
C3194 C 0.41477 0.14546 0.38543 0.0
H3195 H 0.94009 0.22412 0.49869 0.0
H3196 H 0.99062 0.27206 0.52557 0.0
H3197 H 0.98316 0.28882 0.4745 0.0
H3198 H 0.94089 0.23351 0.38352 0.0
H3199 H 0.9169 0.22414 0.38051 0.0
H3200 H 0.9264 0.21576 0.41839 0.0
H3201 H 0.90977 0.22224 0.47697 0.0
H3202 H 0.90056 0.23101 0.43936 0.0
H3203 H 0.91331 0.24457 0.4832 0.0
H3204 H 0.96861 0.30168 0.42464 0.0
H3205 H 0.95188 0.30774 0.37022 0.0
H3206 H 0.9119 0.25141 0.36699 0.0
C3207 C 0.94992 0.23797 0.49269 0.0
C3208 C 0.96639 0.24647 0.51607 0.0
C3209 C 0.97829 0.26489 0.50777 0.0
C3210 C 0.97398 0.27467 0.47898 0.0
C3211 C 0.95762 0.26608 0.45732 0.0
C3212 C 0.94601 0.24795 0.46273 0.0
C3213 C 0.92956 0.24194 0.43407 0.0
C3214 C 0.92837 0.22801 0.40223 0.0
C3215 C 0.91227 0.23449 0.45995 0.0
C3216 C 0.93361 0.25946 0.41228 0.0
C3217 C 0.94972 0.27329 0.42701 0.0
C3218 C 0.95606 0.29082 0.4129 0.0
C3219 C 0.94623 0.29425 0.38217 0.0
C3220 C 0.93008 0.28033 0.36453 0.0
C3221 C 0.9238 0.26261 0.38031 0.0
H3222 H 0.08831 0.63557 0.22113 0.0
H3223 H 0.09453 0.58974 0.19371 0.0
H3224 H 0.06913 0.57126 0.24157 0.0
H3225 H 0.07605 0.62608 0.33017 0.0
H3226 H 0.05998 0.6337 0.32793 0.0
H3227 H 0.07892 0.64302 0.29312 0.0
H3228 H 0.05744 0.63429 0.22979 0.0
H3229 H 1.03843 0.6249 0.2644 0.0
H3230 H 1.03989 0.61135 0.2233 0.0
H3231 H 1.04148 0.55746 0.2971 0.0
H3232 H 1.0166 0.55095 0.34661 0.0
H3233 H 1.02772 0.60553 0.33296 0.0
C3234 C 0.08455 0.62167 0.22524 0.0
C3235 C 0.09403 0.61442 0.20327 0.0
C3236 C 0.08799 0.59595 0.20989 0.0
C3237 C 0.07337 0.58526 0.23726 0.0
C3238 C 0.06435 0.59288 0.25813 0.0
C3239 C 0.06981 0.61076 0.25192 0.0
C3240 C 0.05777 0.6159 0.27648 0.0
C3241 C 0.06884 0.63055 0.30884 0.0
C3242 C 1.0478 0.62197 0.24672 0.0
C3243 C 1.04468 0.59829 0.2979 0.0
C3244 C 1.04864 0.58508 0.2874 0.0
C3245 C 1.03841 0.56787 0.30483 0.0
C3246 C 1.02411 0.56419 0.33316 0.0
C3247 C 1.01962 0.57748 0.3442 0.0
C3248 C 1.0303 0.59475 0.32556 0.0
H3249 H 0.48584 0.4372 0.33579 0.0
H3250 H 0.53951 0.48141 0.35796 0.0
H3251 H 0.53358 0.49993 0.30785 0.0
H3252 H 0.48277 0.4449 0.22543 0.0
H3253 H 0.45943 0.43872 0.22802 0.0
H3254 H 0.46839 0.42917 0.2642 0.0
H3255 H 0.45726 0.44037 0.32604 0.0
H3256 H 0.44833 0.44999 0.29004 0.0
H3257 H 0.46409 0.46379 0.32978 0.0
H3258 H 0.52058 0.51402 0.25084 0.0
H3259 H 0.50287 0.52104 0.20036 0.0
H3260 H 0.45735 0.468 0.21929 0.0
C3261 C 0.49651 0.45075 0.3301 0.0
C3262 C 0.51338 0.45752 0.35138 0.0
C3263 C 0.52658 0.47555 0.34251 0.0
C3264 C 0.52323 0.48626 0.31381 0.0
C3265 C 0.50643 0.47914 0.2937 0.0
C3266 C 0.49329 0.46169 0.30195 0.0
C3267 C 0.47615 0.45707 0.27758 0.0
C3268 C 0.47141 0.44154 0.247 0.0
C3269 C 0.46053 0.45254 0.30765 0.0
C3270 C 0.48149 0.47447 0.25405 0.0
C3271 C 0.49906 0.48712 0.26332 0.0
C3272 C 0.5068 0.50405 0.24406 0.0
C3273 C 0.49656 0.50803 0.21515 0.0
C3274 C 0.47841 0.49534 0.20526 0.0
C3275 C 0.47103 0.47833 0.22572 0.0
H3276 H 0.6536 0.07923 0.30119 0.0
H3277 H 0.60819 0.06229 0.38379 0.0
H3278 H 0.59045 1.03541 0.33926 0.0
H3279 H 0.62707 0.06462 0.20398 0.0
H3280 H 0.64179 0.05805 0.17957 0.0
H3281 H 0.65051 0.07569 0.21809 0.0
H3282 H 0.66263 0.05856 0.26088 0.0
H3283 H 0.65374 0.04075 0.22276 0.0
H3284 H 0.64744 1.03587 0.27683 0.0
H3285 H 0.57772 1.00793 0.28393 0.0
H3286 H 0.57131 0.98723 0.22355 0.0
H3287 H 0.62434 1.02317 0.17515 0.0
C3288 C 0.63982 0.07003 0.30975 0.0
C3289 C 0.63248 0.07337 0.34655 0.0
C3290 C 0.61433 0.06057 0.35597 0.0
C3291 C 0.60411 0.04501 0.33072 0.0
C3292 C 0.61185 0.04206 0.29507 0.0
C3293 C 0.6293 0.05455 0.28433 0.0
C3294 C 0.63452 0.04873 0.24395 0.0
C3295 C 0.63872 0.0626 0.20935 0.0
C3296 C 0.65053 0.04581 0.25157 0.0
C3297 C 0.61751 1.031 0.23358 0.0
C3298 C 0.60455 1.02714 0.26359 0.0
C3299 C 0.58791 1.01112 0.26046 0.0
C3300 C 0.58436 0.99919 0.22596 0.0
C3301 C 0.5972 1.00311 0.19391 0.0
C3302 C 0.61404 1.01939 0.19866 0.0
H3303 H 0.4678 1.01918 0.68605 0.0
H3304 H 0.49505 0.98949 0.71278 0.0
H3305 H 0.51159 1.01098 0.77091 0.0
H3306 H 0.5049 0.06314 0.70466 0.0
H3307 H 0.49116 0.07141 0.72694 0.0
H3308 H 0.48174 0.05355 0.689 0.0
H3309 H 0.45661 1.0336 0.74077 0.0
H3310 H 0.46586 0.05144 0.77874 0.0
H3311 H 0.46255 1.0297 0.79211 0.0
H3312 H 0.52582 0.03828 0.82955 0.0
H3313 H 0.53362 0.06422 0.87684 0.0
H3314 H 0.49673 0.0752 0.80849 0.0
C3315 C 0.47719 1.01695 0.70398 0.0
C3316 C 0.47982 1.00221 0.69398 0.0
C3317 C 0.49242 1.00032 0.71913 0.0
C3318 C 0.502 1.01267 0.75241 0.0
C3319 C 0.49906 1.02712 0.76086 0.0
C3320 C 0.48676 1.02907 0.73694 0.0
C3321 C 0.48556 0.04538 0.75117 0.0
C3322 C 0.49117 0.05918 0.71584 0.0
C3323 C 0.46652 0.03969 0.76661 0.0
C3324 C 0.49906 0.05259 0.78704 0.0
C3325 C 0.50687 0.04204 0.79257 0.0
C3326 C 0.51964 0.04643 0.82473 0.0
C3327 C 0.52418 0.06143 0.85159 0.0
C3328 C 0.51611 0.07229 0.84682 0.0
C3329 C 0.50347 0.06757 0.81342 0.0
H3330 H 0.0827 0.51419 0.70431 0.0
H3331 H 0.09356 0.47031 0.69758 0.0
H3332 H 0.07014 0.45389 0.75057 0.0
H3333 H 0.07457 0.5104 0.82071 0.0
H3334 H 0.05741 0.51656 0.81724 0.0
H3335 H 0.07538 0.52507 0.77969 0.0
H3336 H 1.05197 0.51236 0.72009 0.0
H3337 H 1.03395 0.50345 0.7575 0.0
H3338 H 1.03549 0.48884 0.71939 0.0
H3339 H 1.04252 0.44033 0.80005 0.0
H3340 H 1.01877 0.4339 0.85194 0.0
H3341 H 1.0271 0.48736 0.83554 0.0
C3342 C 0.08069 0.50144 0.71519 0.0
C3343 C 0.09078 0.49398 0.69693 0.0
C3344 C 0.0868 0.47681 0.71144 0.0
C3345 C 0.07316 0.46718 0.74135 0.0
C3346 C 0.06331 0.4747 0.75791 0.0
C3347 C 0.06733 0.49175 0.7464 0.0
C3348 C 1.05503 0.49691 0.77043 0.0
C3349 C 0.06626 0.5132 0.7987 0.0
C3350 C 1.04343 0.50062 0.74003 0.0
C3351 C 1.04332 0.48006 0.79657 0.0
C3352 C 1.04812 0.46728 0.78802 0.0
C3353 C 1.03888 0.45041 0.80696 0.0
C3354 C 1.02505 0.44671 0.8362 0.0
C3355 C 1.02026 0.45973 0.84766 0.0
C3356 C 1.02975 0.47673 0.82704 0.0
H3357 H 0.62527 0.63392 0.71208 0.0
H3358 H 0.57029 0.59105 0.69825 0.0
H3359 H 0.57651 0.57267 0.74826 0.0
H3360 H 0.64527 0.60583 0.71579 0.0
H3361 H 0.66238 0.61987 0.75286 0.0
H3362 H 0.65312 0.62951 0.71787 0.0
H3363 H 0.64456 0.64258 0.78077 0.0
H3364 H 0.65386 0.63302 0.81594 0.0
H3365 H 0.63093 0.62787 0.82194 0.0
H3366 H 0.59015 0.55864 0.80414 0.0
H3367 H 0.60851 0.55162 0.85257 0.0
H3368 H 0.65476 0.60324 0.82529 0.0
C3369 C 0.61435 0.6207 0.71957 0.0
C3370 C 0.59705 0.61427 0.7007 0.0
C3371 C 0.58355 0.59666 0.71189 0.0
C3372 C 0.58707 0.58602 0.74049 0.0
C3373 C 0.60433 0.59282 0.75811 0.0
C3374 C 0.61773 0.60986 0.74757 0.0
C3375 C 0.63532 0.6142 0.76934 0.0
C3376 C 0.64988 0.61755 0.73704 0.0
C3377 C 0.64153 0.63038 0.79874 0.0
C3378 C 0.62997 0.59709 0.79406 0.0
C3379 C 0.612 0.58484 0.78767 0.0
C3380 C 0.60423 0.56829 0.80862 0.0
C3381 C 0.61485 0.5643 0.8363 0.0
C3382 C 0.63339 0.57658 0.84321 0.0
C3383 C 0.64079 0.5932 0.82106 0.0
H3384 H 0.23931 0.2406 0.35909 0.0
H3385 H 0.26628 0.29581 0.31869 0.0
H3386 H 0.28262 0.2889 0.26555 0.0
H3387 H 0.27529 0.23005 0.33718 0.0
H3388 H 0.26013 0.2081 0.31669 0.0
H3389 H 0.25226 0.21811 0.35458 0.0
H3390 H 0.22704 0.21324 0.30219 0.0
H3391 H 0.23569 0.20398 0.26428 0.0
H3392 H 0.23312 0.22288 0.25079 0.0
H3393 H 0.29799 0.27616 0.21697 0.0
H3394 H 0.30691 0.2584 0.17292 0.0
H3395 H 0.26759 0.20993 0.23299 0.0
C3396 C 0.2487 0.25131 0.33922 0.0
C3397 C 0.2519 0.26928 0.34571 0.0
C3398 C 0.26402 0.28234 0.31722 0.0
C3399 C 0.27332 0.27839 0.28603 0.0
C3400 C 0.27019 0.26088 0.28116 0.0
C3401 C 0.25777 0.24738 0.3063 0.0
C3402 C 0.256 0.2294 0.29179 0.0
C3403 C 0.2612 0.2209 0.32722 0.0
C3404 C 0.23681 0.21661 0.27636 0.0
C3405 C 0.26956 0.23493 0.25543 0.0
C3406 C 0.27777 0.25328 0.25053 0.0
C3407 C 0.29137 0.26178 0.22074 0.0
C3408 C 0.29661 0.25155 0.19558 0.0
C3409 C 0.2884 0.23267 0.19822 0.0
C3410 C 0.27439 0.22431 0.22905 0.0
H3411 H 0.88063 0.0768 0.23751 0.0
H3412 H 0.83327 0.06039 0.16125 0.0
H3413 H 0.81638 1.03398 0.20551 0.0
H3414 H 0.87277 1.03152 0.2577 0.0
H3415 H 0.88059 1.03595 0.311 0.0
H3416 H 0.88928 0.05389 0.2735 0.0
H3417 H 0.8799 0.07193 0.32118 0.0
H3418 H 0.87104 0.054 0.35872 0.0
H3419 H 0.85688 0.06206 0.33778 0.0
H3420 H 0.80398 1.00732 0.25854 0.0
H3421 H 0.79759 0.98526 0.31446 0.0
H3422 H 0.85163 1.01804 0.36214 0.0
C3423 C 0.86663 0.06779 0.23024 0.0
C3424 C 0.85848 0.07166 0.19533 0.0
C3425 C 0.84013 0.05883 0.18767 0.0
C3426 C 0.83028 0.04335 0.21289 0.0
C3427 C 0.83857 0.04014 0.24695 0.0
C3428 C 0.85639 0.0521 0.25584 0.0
C3429 C 0.86197 0.04538 0.29469 0.0
C3430 C 0.87706 0.04146 0.28356 0.0
C3431 C 0.86781 0.05918 0.33022 0.0
C3432 C 0.84462 1.02794 0.30637 0.0
C3433 C 0.83134 1.02513 0.27791 0.0
C3434 C 0.81434 1.00973 0.28109 0.0
C3435 C 0.81071 0.99715 0.31368 0.0
C3436 C 0.82368 0.99958 0.34453 0.0
C3437 C 0.84107 1.01544 0.34001 0.0
H3438 H 1.03882 0.82782 0.17813 0.0
H3439 H 1.00253 0.77705 0.23602 0.0
H3440 H 1.02461 0.78377 0.29265 0.0
H3441 H 0.08063 0.82848 0.20525 0.0
H3442 H 0.09322 0.85217 0.21598 0.0
H3443 H 0.07483 0.84343 0.17924 0.0
H3444 H 0.05989 0.8581 0.22114 0.0
H3445 H 0.07824 0.86696 0.25794 0.0
H3446 H 1.05552 0.85331 0.27601 0.0
H3447 H 1.0515 0.7961 0.345 0.0
H3448 H 0.0786 0.81288 0.3879 0.0
H3449 H 0.09863 0.85701 0.30085 0.0
C3450 C 1.03543 0.8181 0.20279 0.0
C3451 C 1.01853 0.80157 0.20138 0.0
C3452 C 1.0151 0.78958 0.23509 0.0
C3453 C 1.02773 0.79337 0.26783 0.0
C3454 C 1.04417 0.80951 0.268 0.0
C3455 C 1.048 0.8218 0.23643 0.0
C3456 C 0.06662 0.83835 0.24482 0.0
C3457 C 0.0796 0.84076 0.2092 0.0
C3458 C 0.06497 0.85518 0.25029 0.0
C3459 C 0.07262 0.83357 0.286 0.0
C3460 C 0.05944 0.81672 0.29841 0.0
C3461 C 0.0618 0.80925 0.33505 0.0
C3462 C 0.07763 0.819 0.35951 0.0
C3463 C 0.09159 0.83642 0.3485 0.0
C3464 C 0.08867 0.84372 0.31078 0.0
H3465 H 0.83725 0.79839 0.68754 0.0
H3466 H 0.89001 0.81592 0.7396 0.0
H3467 H 0.88299 0.82984 0.79892 0.0
H3468 H 0.83524 0.83827 0.7162 0.0
H3469 H 0.81172 0.82676 0.72932 0.0
H3470 H 0.82008 0.81714 0.69168 0.0
H3471 H 0.80669 0.78838 0.73367 0.0
H3472 H 0.79864 0.79739 0.77366 0.0
H3473 H 0.81334 0.78882 0.7871 0.0
H3474 H 0.87061 0.8428 0.8537 0.0
H3475 H 0.85477 0.85395 0.8974 0.0
H3476 H 0.80912 0.82953 0.81313 0.0
C3477 C 0.84724 0.80485 0.71183 0.0
C3478 C 0.86427 0.80544 0.70854 0.0
C3479 C 0.87688 0.81476 0.74088 0.0
C3480 C 0.87296 0.82285 0.775 0.0
C3481 C 0.85624 0.82203 0.77734 0.0
C3482 C 0.84353 0.81329 0.74649 0.0
C3483 C 0.82678 0.81494 0.7565 0.0
C3484 C 0.82325 0.82488 0.72133 0.0
C3485 C 0.81037 0.79628 0.76314 0.0
C3486 C 0.83207 0.82603 0.79749 0.0
C3487 C 0.84917 0.82981 0.8087 0.0
C3488 C 0.85726 0.83986 0.84479 0.0
C3489 C 0.84801 0.84627 0.86973 0.0
C3490 C 0.83047 0.84302 0.85982 0.0
C3491 C 0.82243 0.83252 0.82255 0.0
H3492 H 0.26698 0.9974 0.81197 0.0
H3493 H 0.23445 1.0131 0.88456 0.0
H3494 H 0.24432 0.03954 0.84032 0.0
H3495 H 0.30482 0.04441 0.79331 0.0
H3496 H 0.30895 0.03979 0.74092 0.0
H3497 H 0.29975 1.02208 0.77901 0.0
H3498 H 0.27328 1.00355 0.72826 0.0
H3499 H 0.28238 1.02169 0.69128 0.0
H3500 H 0.25978 1.01283 0.71017 0.0
H3501 H 0.25647 0.06458 0.78637 0.0
H3502 H 0.27098 0.08649 0.73001 0.0
H3503 H 0.2981 0.0582 0.6892 0.0
C3504 C 0.2619 1.00636 0.81868 0.0
C3505 C 0.24946 1.00241 0.85294 0.0
C3506 C 0.24364 1.01508 0.85935 0.0
C3507 C 0.24928 1.03044 0.834 0.0
C3508 C 0.26122 1.03385 0.80101 0.0
C3509 C 0.26768 1.02229 0.79322 0.0
C3510 C 0.28061 1.0297 0.75524 0.0
C3511 C 0.29966 1.03424 0.7679 0.0
C3512 C 0.2736 1.01613 0.71909 0.0
C3513 C 0.28026 0.04698 0.74319 0.0
C3514 C 0.26879 0.04885 0.77026 0.0
C3515 C 0.26558 0.06318 0.76547 0.0
C3516 C 0.27403 0.07577 0.73287 0.0
C3517 C 0.2862 0.07484 0.70428 0.0
C3518 C 0.2893 0.05995 0.71017 0.0
H3519 H 1.04203 0.24031 0.66598 0.0
H3520 H 0.99633 0.22489 0.74688 0.0
H3521 H 1.01671 0.23553 0.8082 0.0
H3522 H 0.06902 0.23008 0.7359 0.0
H3523 H 0.09021 0.24947 0.7231 0.0
H3524 H 0.07225 0.2403 0.68524 0.0
H3525 H 0.07409 0.27097 0.67881 0.0
H3526 H 0.09217 0.28026 0.71635 0.0
H3527 H 0.07242 0.28201 0.72525 0.0
H3528 H 1.04233 0.24464 0.86318 0.0
H3529 H 0.07016 0.25629 0.90421 0.0
H3530 H 0.10136 0.27185 0.79054 0.0
C3531 C 1.03627 0.23916 0.69662 0.0
C3532 C 1.01709 0.23127 0.70084 0.0
C3533 C 1.01061 0.2306 0.74193 0.0
C3534 C 1.02224 0.23664 0.77731 0.0
C3535 C 1.04085 0.24409 0.77216 0.0
C3536 C 1.04792 0.24587 0.7326 0.0
C3537 C 0.06862 0.25529 0.73598 0.0
C3538 C 0.07543 0.24306 0.71904 0.0
C3539 C 0.07734 0.2732 0.71267 0.0
C3540 C 0.0721 0.25836 0.78343 0.0
C3541 C 1.05573 0.25131 0.80356 0.0
C3542 C 1.05512 0.25074 0.84725 0.0
C3543 C 0.07126 0.25762 0.87073 0.0
C3544 C 0.08855 0.26621 0.85191 0.0
C3545 C 0.08871 0.26633 0.80692 0.0
H3546 H 0.89695 0.58229 0.64553 0.0
H3547 H 0.94572 0.61912 0.71129 0.0
H3548 H 0.96287 0.60986 0.66652 0.0
H3549 H 0.90855 0.54731 0.62606 0.0
H3550 H 0.89919 0.542 0.57412 0.0
H3551 H 0.89019 0.55082 0.61225 0.0
H3552 H 0.89557 0.57608 0.56174 0.0
H3553 H 0.90523 0.56802 0.52341 0.0
H3554 H 0.91784 0.59076 0.54241 0.0
H3555 H 0.97576 0.59629 0.61416 0.0
H3556 H 0.98258 0.5806 0.55888 0.0
H3557 H 0.927 0.55394 0.51899 0.0
C3558 C 0.91131 0.58865 0.6503 0.0
C3559 C 0.91969 0.60194 0.68279 0.0
C3560 C 0.93857 0.60943 0.68712 0.0
C3561 C 0.94863 0.60416 0.66144 0.0
C3562 C 0.9401 0.59143 0.62974 0.0
C3563 C 0.92182 0.58384 0.62373 0.0
C3564 C 0.91616 0.57068 0.58645 0.0
C3565 C 0.90271 0.55157 0.60056 0.0
C3566 C 0.90821 0.57672 0.55138 0.0
C3567 C 0.93403 0.57204 0.57263 0.0
C3568 C 0.9476 0.58398 0.59865 0.0
C3569 C 0.96514 0.58709 0.59355 0.0
C3570 C 0.96898 0.57807 0.56145 0.0
C3571 C 0.95569 0.56608 0.53294 0.0
C3572 C 0.93778 0.56307 0.53932 0.0
H3573 H 0.50671 0.40582 0.56781 0.0
H3574 H 0.54694 0.39641 0.51008 0.0
H3575 H 0.53795 0.37038 0.55503 0.0
H3576 H 0.51146 0.39188 0.67425 0.0
H3577 H 0.48788 0.3805 0.68665 0.0
H3578 H 0.49697 0.39886 0.65027 0.0
H3579 H 0.474 0.37875 0.5949 0.0
H3580 H 0.4648 0.36023 0.6308 0.0
H3581 H 0.47264 0.35786 0.58032 0.0
H3582 H 0.52582 0.34519 0.60827 0.0
H3583 H 0.51063 0.32258 0.66329 0.0
H3584 H 0.47646 0.34506 0.6897 0.0
C3585 C 0.51369 0.39835 0.56458 0.0
C3586 C 0.52796 0.4039 0.53429 0.0
C3587 C 0.53624 0.39314 0.53221 0.0
C3588 C 0.53114 0.37804 0.55798 0.0
C3589 C 0.51735 0.37301 0.58705 0.0
C3590 C 0.50858 0.38275 0.59065 0.0
C3591 C 0.49405 0.37389 0.62502 0.0
C3592 C 0.49781 0.38707 0.66119 0.0
C3593 C 0.47525 0.3673 0.60665 0.0
C3594 C 0.49613 0.35786 0.63971 0.0
C3595 C 0.50982 0.35786 0.61721 0.0
C3596 C 0.51494 0.34505 0.62552 0.0
C3597 C 0.50609 0.33204 0.65714 0.0
C3598 C 0.49171 0.33112 0.68086 0.0
C3599 C 0.4868 0.34454 0.67163 0.0
H3600 H 0.68302 0.12036 0.56889 0.0
H3601 H 0.69999 0.16709 0.49067 0.0
H3602 H 0.72727 0.18365 0.53315 0.0
H3603 H 0.7002 0.1458 0.66774 0.0
H3604 H 0.7079 0.13152 0.6894 0.0
H3605 H 0.68938 0.12249 0.65304 0.0
H3606 H 0.70602 0.11132 0.60728 0.0
H3607 H 0.72501 0.12059 0.64219 0.0
H3608 H 0.72817 0.12683 0.58788 0.0
H3609 H 0.75311 0.19671 0.5864 0.0
H3610 H 0.77519 0.20423 0.64313 0.0
H3611 H 0.74443 0.1502 0.69001 0.0
C3612 C 0.69247 0.13406 0.56051 0.0
C3613 C 0.68869 0.14216 0.5253 0.0
C3614 C 0.7019 0.16023 0.51676 0.0
C3615 C 0.71771 0.16993 0.54108 0.0
C3616 C 0.7209 0.16183 0.57532 0.0
C3617 C 0.70869 0.14424 0.58522 0.0
C3618 C 0.71574 0.13916 0.62453 0.0
C3619 C 0.7025 0.13445 0.66083 0.0
C3620 C 0.71894 0.12354 0.61487 0.0
C3621 C 0.7337 0.1564 0.63455 0.0
C3622 C 0.73617 0.16931 0.60568 0.0
C3623 C 0.75121 0.18652 0.60875 0.0
C3624 C 0.76389 0.19073 0.64153 0.0
C3625 C 0.76225 0.17798 0.67191 0.0
C3626 C 0.74667 0.16039 0.66769 0.0
H3627 H 0.47097 0.15661 0.14777 0.0
H3628 H 0.52008 0.19185 0.21529 0.0
H3629 H 0.53669 0.18213 0.17076 0.0
H3630 H 0.48118 0.12007 0.13235 0.0
H3631 H 0.47249 0.11435 0.07985 0.0
H3632 H 0.46337 0.12394 0.11558 0.0
H3633 H 0.47011 0.14914 0.06355 0.0
H3634 H 0.47926 0.13976 0.02729 0.0
H3635 H 0.4926 0.16272 0.04397 0.0
H3636 H 0.54942 0.16953 0.11862 0.0
H3637 H 0.55687 0.15426 0.06396 0.0
H3638 H 0.50094 0.12473 0.02675 0.0
C3639 C 0.48521 0.16234 0.15326 0.0
C3640 C 0.4939 0.17543 0.18628 0.0
C3641 C 0.51267 0.18211 0.1911 0.0
C3642 C 0.52244 0.17658 0.16558 0.0
C3643 C 0.51371 0.16392 0.13402 0.0
C3644 C 0.49547 0.15672 0.12753 0.0
C3645 C 0.48984 0.14308 0.09088 0.0
C3646 C 0.47589 0.12424 0.10555 0.0
C3647 C 0.48251 0.14903 0.05425 0.0
C3648 C 0.50764 0.14377 0.07847 0.0
C3649 C 0.52115 0.15611 0.10397 0.0
C3650 C 0.53883 0.15978 0.09878 0.0
C3651 C 0.54298 0.15088 0.06719 0.0
C3652 C 0.52977 0.13792 0.04002 0.0
C3653 C 0.51161 0.13433 0.04638 0.0
H3654 H 0.91109 0.35116 0.19674 0.0
H3655 H 0.93081 0.3178 0.14468 0.0
H3656 H 0.94652 0.3403 0.08948 0.0
H3657 H 0.90365 0.36713 0.09669 0.0
H3658 H 0.9108 0.3895 0.11505 0.0
H3659 H 0.90133 0.37102 0.15107 0.0
H3660 H 0.92961 0.38723 0.19746 0.0
H3661 H 0.93924 0.40575 0.16153 0.0
H3662 H 0.95137 0.3944 0.17506 0.0
H3663 H 0.95997 0.36691 0.03636 0.0
H3664 H 0.96973 0.39397 0.99362 0.0
H3665 H 0.94183 0.41145 0.07671 0.0
C3666 C 0.91868 0.3485 0.17371 0.0
C3667 C 0.91953 0.33224 0.17623 0.0
C3668 C 0.92982 0.32984 0.14477 0.0
C3669 C 0.93885 0.34271 0.11277 0.0
C3670 C 0.93777 0.35844 0.11129 0.0
C3671 C 0.92788 0.36139 0.14105 0.0
C3672 C 0.92888 0.37947 0.13197 0.0
C3673 C 0.91004 0.37661 0.12319 0.0
C3674 C 0.9378 0.39249 0.1687 0.0
C3675 C 0.94073 0.38621 0.0925 0.0
C3676 C 0.94571 0.37379 0.08131 0.0
C3677 C 0.95631 0.37674 0.0457 0.0
C3678 C 0.96202 0.39248 1.02136 0.0
C3679 C 0.95745 0.40577 0.03153 0.0
C3680 C 0.94628 0.40216 0.0679 0.0
H3681 H 0.74182 0.57771 0.19799 0.0
H3682 H 0.77383 0.63145 0.1497 0.0
H3683 H 0.75143 0.62447 0.09382 0.0
H3684 H 0.7273 0.55535 0.09597 0.0
H3685 H 0.70495 0.53926 0.11266 0.0
H3686 H 0.72318 0.54844 0.14982 0.0
H3687 H 0.70559 0.5588 0.19638 0.0
H3688 H 0.68731 0.54977 0.15935 0.0
H3689 H 0.69776 0.57298 0.17474 0.0
H3690 H 0.72508 0.61135 0.04028 0.0
H3691 H 0.69851 0.59405 0.99603 0.0
H3692 H 0.68218 0.54762 0.07431 0.0
C3693 C 0.74421 0.58805 0.17562 0.0
C3694 C 0.76001 0.60547 0.1796 0.0
C3695 C 0.7621 0.61824 0.14886 0.0
C3696 C 0.74929 0.61429 0.11643 0.0
C3697 C 0.73399 0.59722 0.11361 0.0
C3698 C 0.7314 0.58422 0.14239 0.0
C3699 C 0.71375 0.56685 0.13164 0.0
C3700 C 0.71752 0.55156 0.12196 0.0
C3701 C 0.7003 0.56179 0.16767 0.0
C3702 C 0.70691 0.572 0.0923 0.0
C3703 C 0.71885 0.58968 0.08282 0.0
C3704 C 0.71565 0.59759 0.04813 0.0
C3705 C 0.70013 0.58751 1.02289 0.0
C3706 C 0.68733 0.5693 0.03107 0.0
C3707 C 0.6912 0.56151 0.06661 0.0
H3708 H 0.609 0.90927 0.83531 0.0
H3709 H 0.63766 0.89208 0.91696 0.0
H3710 H 0.62764 0.9024 0.97821 0.0
H3711 H 0.62065 0.95071 0.89889 0.0
H3712 H 0.5996 0.94949 0.88648 0.0
H3713 H 0.60936 0.94055 0.85076 0.0
H3714 H 0.57912 0.90942 0.85363 0.0
H3715 H 0.57047 0.91951 0.88928 0.0
H3716 H 0.57091 0.89955 0.90395 0.0
H3717 H 0.61154 0.91225 0.03325 0.0
H3718 H 0.59542 0.92405 0.0739 0.0
H3719 H 0.58036 0.94 0.95977 0.0
C3720 C 0.61314 0.90758 0.86609 0.0
C3721 C 0.62408 0.89928 0.87038 0.0
C3722 C 0.62932 0.89804 0.9118 0.0
C3723 C 0.62358 0.90393 0.94721 0.0
C3724 C 0.61281 0.91183 0.94199 0.0
C3725 C 0.608 0.91409 0.90225 0.0
C3726 C 0.59716 0.92399 0.90563 0.0
C3727 C 0.60727 0.94228 0.88415 0.0
C3728 C 0.5783 0.91246 0.88698 0.0
C3729 C 0.59615 0.92648 0.95312 0.0
C3730 C 0.60513 0.91909 0.97339 0.0
C3731 C 0.60499 0.91846 1.01712 0.0
C3732 C 0.59576 0.92544 0.0404 0.0
C3733 C 0.58706 0.93403 1.02142 0.0
C3734 C 0.58736 0.93438 0.9764 0.0
H3735 H 0.17107 0.66206 0.97098 0.0
H3736 H 0.14307 0.68002 0.05238 0.0
H3737 H 0.15286 0.70678 1.00927 0.0
H3738 H 0.20937 0.70655 0.94998 0.0
H3739 H 0.21162 0.70227 0.89584 0.0
H3740 H 0.20225 0.68406 0.93261 0.0
H3741 H 0.17381 0.66734 0.88679 0.0
H3742 H 0.18315 0.6855 0.84987 0.0
H3743 H 0.16146 0.6784 0.87257 0.0
H3744 H 0.16613 0.73297 0.95598 0.0
H3745 H 0.18135 0.75507 0.89982 0.0
H3746 H 0.20136 0.72178 0.8488 0.0
C3747 C 0.16678 0.67149 0.97961 0.0
C3748 C 0.15545 0.66798 1.01567 0.0
C3749 C 0.15084 0.68131 0.02506 0.0
C3750 C 0.15662 0.69696 1.00047 0.0
C3751 C 0.16732 0.69978 0.96519 0.0
C3752 C 0.17238 0.68736 0.95459 0.0
C3753 C 0.1841 0.69391 0.91487 0.0
C3754 C 0.20296 0.69687 0.92386 0.0
C3755 C 0.1751 0.68048 0.87889 0.0
C3756 C 0.1849 0.71185 0.90506 0.0
C3757 C 0.17506 0.7149 0.93472 0.0
C3758 C 0.17376 0.7305 0.93271 0.0
C3759 C 0.1825 0.74313 0.90017 0.0
C3760 C 0.1927 0.74062 0.86869 0.0
C3761 C 0.19381 0.7245 0.87181 0.0
H3762 H 0.4119 0.48154 0.02694 0.0
H3763 H 0.43586 0.53806 0.99948 0.0
H3764 H 0.41386 0.53094 0.94256 0.0
H3765 H 0.39994 0.46468 0.91844 0.0
H3766 H 0.37864 0.44548 0.932 0.0
H3767 H 0.39676 0.45487 0.96941 0.0
H3768 H 0.37616 0.45871 1.02249 0.0
H3769 H 0.35817 0.44911 0.98473 0.0
H3770 H 0.36506 0.47084 1.00698 0.0
H3771 H 0.38912 0.51807 0.88703 0.0
H3772 H 0.36351 0.50123 0.84009 0.0
H3773 H 0.35211 0.45173 0.90092 0.0
C3774 C 0.41276 0.49243 1.00847 0.0
C3775 C 0.42645 0.51063 1.01795 0.0
C3776 C 0.42615 0.52415 0.9933 0.0
C3777 C 0.41349 0.52016 0.96058 0.0
C3778 C 0.40037 0.50235 0.95209 0.0
C3779 C 0.39973 0.48862 0.97555 0.0
C3780 C 0.38355 0.47069 0.96029 0.0
C3781 C 0.39009 0.45816 0.94403 0.0
C3782 C 0.36993 0.4618 0.99574 0.0
C3783 C 0.37536 0.47646 0.92443 0.0
C3784 C 0.38553 0.49488 0.92062 0.0
C3785 C 0.38114 0.50368 0.89019 0.0
C3786 C 0.36627 0.49379 0.86326 0.0
C3787 C 0.35508 0.47484 0.86553 0.0
C3788 C 0.35995 0.46611 0.89735 0.0
H3789 H 0.18182 0.51493 0.52643 0.0
H3790 H 0.12765 0.4928 0.47868 0.0
H3791 H 0.13457 0.47743 0.42257 0.0
H3792 H 0.20353 0.52285 0.42364 0.0
H3793 H 0.22008 0.51706 0.43991 0.0
H3794 H 0.21089 0.52598 0.4773 0.0
H3795 H 0.2013 0.49838 0.5242 0.0
H3796 H 0.21042 0.48934 0.48694 0.0
H3797 H 0.1873 0.47628 0.50283 0.0
H3798 H 0.14759 0.46396 0.36942 0.0
H3799 H 0.16479 0.45446 0.32561 0.0
H3800 H 0.21188 0.48578 0.40239 0.0
C3801 C 0.17136 0.50687 0.50418 0.0
C3802 C 0.15385 0.50509 0.5084 0.0
C3803 C 0.14093 0.49433 0.47773 0.0
C3804 C 0.14485 0.48554 0.44515 0.0
C3805 C 0.16203 0.48748 0.44211 0.0
C3806 C 0.17517 0.49802 0.47074 0.0
C3807 C 0.19268 0.49805 0.45963 0.0
C3808 C 0.20769 0.51712 0.44953 0.0
C3809 C 0.19826 0.49004 0.49555 0.0
C3810 C 0.1874 0.48594 0.42045 0.0
C3811 C 0.16956 0.47993 0.41124 0.0
C3812 C 0.16148 0.46852 0.37698 0.0
C3813 C 0.17153 0.46301 0.35194 0.0
C3814 C 0.18994 0.4688 0.35974 0.0
C3815 C 0.19789 0.48075 0.39484 0.0
H3816 H 0.60963 0.74562 0.41026 0.0
H3817 H 0.63548 0.72627 0.32557 0.0
H3818 H 0.62519 0.69934 0.3681 0.0
H3819 H 0.62015 0.72847 0.50646 0.0
H3820 H 0.59915 0.72243 0.53159 0.0
H3821 H 0.60858 0.74055 0.49457 0.0
H3822 H 0.57919 0.725 0.45159 0.0
H3823 H 0.56973 0.70682 0.48843 0.0
H3824 H 0.57067 0.7023 0.43378 0.0
H3825 H 0.61066 0.6725 0.42033 0.0
H3826 H 0.59536 0.65058 0.47685 0.0
H3827 H 0.57947 0.68633 0.53294 0.0
C3828 C 0.6133 0.73582 0.40069 0.0
C3829 C 0.62393 0.73892 0.36356 0.0
C3830 C 0.62792 0.72519 0.35322 0.0
C3831 C 0.6219 0.70943 0.37759 0.0
C3832 C 0.61169 0.70693 0.41364 0.0
C3833 C 0.60754 0.71989 0.4255 0.0
C3834 C 0.59653 0.71384 0.46629 0.0
C3835 C 0.60671 0.72712 0.50183 0.0
C3836 C 0.57792 0.71188 0.45962 0.0
C3837 C 0.59491 0.69548 0.47511 0.0
C3838 C 0.60375 0.69177 0.44407 0.0
C3839 C 0.60388 0.67553 0.44474 0.0
C3840 C 0.59506 0.66299 0.47744 0.0
C3841 C 0.58614 0.66632 0.51066 0.0
C3842 C 0.5861 0.68301 0.50872 0.0
H3843 H 0.43493 0.94549 0.46336 0.0
H3844 H 0.40609 0.91264 0.56942 0.0
H3845 H 0.37822 0.89849 0.52798 0.0
H3846 H 0.39787 0.95108 0.41409 0.0
H3847 H 0.4051 0.94848 0.36309 0.0
H3848 H 0.421 0.95722 0.40545 0.0
H3849 H 0.42767 0.93155 0.38437 0.0
H3850 H 0.40968 0.92258 0.34657 0.0
H3851 H 0.40984 0.90861 0.38811 0.0
H3852 H 0.35234 0.88683 0.47475 0.0
H3853 H 0.33185 0.87792 0.41401 0.0
H3854 H 0.3754 0.9168 0.33776 0.0
C3855 C 0.42268 0.93564 0.47829 0.0
C3856 C 0.42315 0.93078 0.5212 0.0
C3857 C 0.40657 0.91716 0.53771 0.0
C3858 C 0.39041 0.90894 0.51411 0.0
C3859 C 0.39035 0.91392 0.47257 0.0
C3860 C 0.40611 0.92684 0.45442 0.0
C3861 C 0.40229 0.92833 0.40776 0.0
C3862 C 0.40685 0.94746 0.39708 0.0
C3863 C 0.41301 0.92242 0.38006 0.0
C3864 C 0.38188 0.9151 0.40326 0.0
C3865 C 0.37545 0.90678 0.44124 0.0
C3866 C 0.35736 0.89349 0.44516 0.0
C3867 C 0.34563 0.88849 0.41012 0.0
C3868 C 0.35137 0.89674 0.37048 0.0
C3869 C 0.37005 0.91038 0.36744 0.0
H3870 H 0.32717 0.34534 0.17422 0.0
H3871 H 0.30982 0.31893 0.05445 0.0
H3872 H 0.31336 0.34647 0.02358 0.0
H3873 H 0.31234 0.38262 0.1502 0.0
H3874 H 0.33192 0.3986 0.17885 0.0
H3875 H 0.31927 0.3757 0.19632 0.0
H3876 H 0.34822 0.37354 0.19526 0.0
H3877 H 0.36077 0.39611 0.17811 0.0
H3878 H 0.36106 0.3786 0.14765 0.0
H3879 H 0.33089 0.37712 1.00008 0.0
H3880 H 0.3579 0.40647 0.98896 0.0
H3881 H 0.36422 0.41419 0.12298 0.0
C3882 C 0.32313 0.34527 0.14216 0.0
C3883 C 0.31843 0.33027 0.11667 0.0
C3884 C 0.31331 0.3303 0.0747 0.0
C3885 C 0.31526 0.34596 0.05685 0.0
C3886 C 0.32201 0.36132 0.08157 0.0
C3887 C 0.32518 0.36092 0.12401 0.0
C3888 C 0.33607 0.37964 0.14167 0.0
C3889 C 0.32419 0.38442 0.16832 0.0
C3890 C 0.35249 0.38209 0.167 0.0
C3891 C 0.34137 0.39026 0.10154 0.0
C3892 C 0.33227 0.37971 0.06744 0.0
C3893 C 0.33761 0.38569 0.0266 0.0
C3894 C 0.35315 0.40231 1.0205 0.0
C3895 C 0.3633 0.41262 0.05511 0.0
C3896 C 0.35657 0.40694 0.09579 0.0
H3897 H 0.67773 0.96678 0.08348 0.0
H3898 H 0.68671 0.97306 0.95035 0.0
H3899 H 0.71816 0.98082 0.96126 0.0
H3900 H 0.71 1.0032 0.10883 0.0
H3901 H 0.71736 0.99765 0.1564 0.0
H3902 H 0.69478 0.98391 0.13909 0.0
H3903 H 0.69861 0.956 0.13927 0.0
H3904 H 0.72139 0.96971 0.1575 0.0
H3905 H 0.71686 0.95628 0.11101 0.0
H3906 H 0.74899 0.9977 0.98595 0.0
H3907 H 0.77517 1.02264 1.02031 0.0
H3908 H 0.74718 1.00817 0.13847 0.0
C3909 C 0.68604 0.96855 0.05655 0.0
C3910 C 0.67987 0.96915 1.01612 0.0
C3911 C 0.69121 0.97233 0.98151 0.0
C3912 C 0.70909 0.97669 0.98756 0.0
C3913 C 0.71539 0.97786 0.02838 0.0
C3914 C 0.70405 0.97356 0.06245 0.0
C3915 C 0.71456 0.98034 0.10288 0.0
C3916 C 0.70885 0.99198 0.12814 0.0
C3917 C 0.71275 0.96465 0.1292 0.0
C3918 C 0.73338 0.99123 0.0858 0.0
C3919 C 0.73372 0.9887 0.04312 0.0
C3920 C 0.74896 0.9994 1.01942 0.0
C3921 C 0.76373 1.01368 0.03912 0.0
C3922 C 0.76301 1.01738 0.08192 0.0
C3923 C 0.74812 1.00537 0.10591 0.0
H3924 H 0.07293 0.74974 0.2585 0.0
H3925 H 0.08043 0.78367 0.15229 0.0
H3926 H 0.10677 0.78195 0.13148 0.0
H3927 H 0.12528 0.76129 0.26301 0.0
H3928 H 0.1171 0.73827 0.2771 0.0
H3929 H 0.10632 0.75008 0.29748 0.0
H3930 H 0.07595 0.72499 0.26904 0.0
H3931 H 0.08649 0.71338 0.24806 0.0
H3932 H 0.07371 0.71953 0.21407 0.0
H3933 H 0.11984 0.76543 0.10318 0.0
H3934 H 0.12041 0.73911 0.07646 0.0
H3935 H 0.10743 0.71541 0.19967 0.0
C3936 C 0.08086 0.75759 0.23231 0.0
C3937 C 0.07445 0.76648 0.20668 0.0
C3938 C 0.08504 0.77678 0.17271 0.0
C3939 C 0.10014 0.77585 0.16052 0.0
C3940 C 0.10464 0.76476 0.18283 0.0
C3941 C 0.09578 0.75638 0.21935 0.0
C3942 C 0.10013 0.74202 0.23199 0.0
C3943 C 0.11298 0.7483 0.26961 0.0
C3944 C 0.08306 0.72394 0.2412 0.0
C3945 C 0.10967 0.74124 0.19299 0.0
C3946 C 0.1131 0.75515 0.16609 0.0
C3947 C 0.11801 0.75497 0.12461 0.0
C3948 C 0.11826 0.73984 0.10953 0.0
C3949 C 0.11368 0.72505 0.13591 0.0
C3950 C 0.11072 0.72646 0.17874 0.0
H3951 H 0.43339 0.35126 0.43355 0.0
H3952 H 0.41592 0.3371 0.56102 0.0
H3953 H 0.38692 0.31219 0.5361 0.0
H3954 H 0.399 0.3523 0.40397 0.0
H3955 H 0.39668 0.34387 0.35137 0.0
H3956 H 0.41808 0.35393 0.37653 0.0
H3957 H 0.41996 0.32521 0.36398 0.0
H3958 H 0.39838 0.315 0.33829 0.0
H3959 H 0.40207 0.30388 0.38155 0.0
H3960 H 0.35813 0.29601 0.50035 0.0
H3961 H 0.3325 0.29373 0.46107 0.0
H3962 H 0.3671 0.32036 0.356 0.0
C3963 C 0.4238 0.34207 0.4559 0.0
C3964 C 0.42685 0.34555 0.49894 0.0
C3965 C 0.41385 0.33418 0.52791 0.0
C3966 C 0.3974 0.31999 0.51387 0.0
C3967 C 0.39414 0.31763 0.47087 0.0
C3968 C 0.40709 0.32842 0.44218 0.0
C3969 C 0.39904 0.32685 0.3992 0.0
C3970 C 0.40344 0.34532 0.38187 0.0
C3971 C 0.40523 0.31715 0.36898 0.0
C3972 C 0.37932 0.31528 0.40921 0.0
C3973 C 0.37685 0.30909 0.44993 0.0
C3974 C 0.35988 0.30034 0.46817 0.0
C3975 C 0.34534 0.29905 0.44555 0.0
C3976 C 0.34798 0.30689 0.40558 0.0
C3977 C 0.36488 0.31407 0.38631 0.0
H3978 H 0.76787 0.03982 0.52128 0.0
H3979 H 0.79847 0.07278 0.41747 0.0
H3980 H 0.79844 0.0988 0.44962 0.0
H3981 H 0.73777 0.04942 0.52077 0.0
H3982 H 0.7339 0.05015 0.57595 0.0
H3983 H 0.74393 0.03766 0.55782 0.0
H3984 H 0.77104 0.05584 0.60708 0.0
H3985 H 0.76097 0.06868 0.62502 0.0
H3986 H 0.78343 0.07993 0.60425 0.0
H3987 H 0.78661 0.11724 0.47764 0.0
H3988 H 0.76228 0.12371 0.49037 0.0
H3989 H 0.73679 0.07787 0.57265 0.0
C3990 C 0.77519 0.05279 0.50649 0.0
C3991 C 0.78294 0.0544 0.46695 0.0
C3992 C 0.79251 0.07137 0.448 0.0
C3993 C 0.79265 0.08625 0.46631 0.0
C3994 C 0.78335 0.08391 0.50371 0.0
C3995 C 0.77503 0.06755 0.52404 0.0
C3996 C 0.76215 0.06689 0.55707 0.0
C3997 C 0.74335 0.05008 0.55248 0.0
C3998 C 0.76987 0.0679 0.60095 0.0
C3999 C 0.76213 0.08402 0.54707 0.0
C4000 C 0.77551 0.09438 0.51883 0.0
C4001 C 0.77629 0.10935 0.50013 0.0
C4002 C 0.76219 0.11277 0.50709 0.0
C4003 C 0.74708 0.10074 0.53095 0.0
C4004 C 0.74802 0.08733 0.55419 0.0
H4005 H 1.02695 0.7286 0.44986 0.0
H4006 H 0.05824 0.75458 0.56036 0.0
H4007 H 1.0368 0.72938 0.60323 0.0
H4008 H 0.97989 0.70032 0.5122 0.0
H4009 H 0.974 0.68214 0.47605 0.0
H4010 H 0.98602 0.70499 0.458 0.0
H4011 H 1.01064 0.69941 0.42739 0.0
H4012 H 0.99885 0.67687 0.44519 0.0
H4013 H 1.02185 0.69129 0.46117 0.0
H4014 H 1.02229 0.69889 0.62581 0.0
H4015 H 1.01542 0.66776 0.62553 0.0
H4016 H 0.9901 0.65971 0.50453 0.0
C4017 C 1.02855 0.72939 0.48345 0.0
C4018 C 1.04426 0.74326 0.50183 0.0
C4019 C 1.04635 0.74386 0.54567 0.0
C4020 C 1.03408 0.72968 0.57034 0.0
C4021 C 1.0196 0.71515 0.55081 0.0
C4022 C 1.01636 0.71518 0.50836 0.0
C4023 C 1.00243 0.6967 0.49335 0.0
C4024 C 0.98452 0.696 0.4844 0.0
C4025 C 1.00887 0.69074 0.45462 0.0
C4026 C 1.00092 0.68583 0.53179 0.0
C4027 C 1.01011 0.69681 0.56537 0.0
C4028 C 1.0143 0.69011 0.60064 0.0
C4029 C 1.01032 0.67228 0.60034 0.0
C4030 C 1.00185 0.66116 0.5654 0.0
C4031 C 0.99596 0.66773 0.53229 0.0
H4032 H 0.73812 0.66444 0.86972 0.0
H4033 H 0.75509 0.67549 0.99909 0.0
H4034 H 0.78282 0.70219 0.97779 0.0
H4035 H 0.78675 0.69141 0.81932 0.0
H4036 H 0.77762 0.69925 0.77927 0.0
H4037 H 0.76438 0.6769 0.79975 0.0
H4038 H 0.73885 0.68348 0.81763 0.0
H4039 H 0.75186 0.70552 0.79711 0.0
H4040 H 0.74377 0.70255 0.85008 0.0
H4041 H 0.80164 0.73149 0.9497 0.0
H4042 H 0.80603 0.75978 0.92229 0.0
H4043 H 0.77735 0.73291 0.80946 0.0
C4044 C 0.74797 0.67224 0.89337 0.0
C4045 C 0.74428 0.66796 0.93606 0.0
C4046 C 0.75758 0.67827 0.96609 0.0
C4047 C 0.77352 0.69352 0.95414 0.0
C4048 C 0.776 0.69839 0.91209 0.0
C4049 C 0.76359 0.68789 0.88194 0.0
C4050 C 0.76662 0.69806 0.84147 0.0
C4051 C 0.77431 0.69098 0.80798 0.0
C4052 C 0.74926 0.69738 0.82579 0.0
C4053 C 0.78065 0.71665 0.85568 0.0
C4054 C 0.78689 0.71627 0.89541 0.0
C4055 C 0.79729 0.73193 0.91823 0.0
C4056 C 0.79979 0.74809 0.90221 0.0
C4057 C 0.7917 0.7484 0.86395 0.0
C4058 C 0.78355 0.73285 0.83885 0.0
H4059 H 0.33946 0.05563 0.93329 0.0
H4060 H 0.35498 0.06436 0.80353 0.0
H4061 H 0.38425 0.09022 0.82334 0.0
H4062 H 0.37174 0.10524 0.97398 0.0
H4063 H 0.37595 0.09601 1.02022 0.0
H4064 H 0.354 0.08491 0.99624 0.0
H4065 H 0.3554 0.05564 0.99184 0.0
H4066 H 0.3772 0.06657 1.01507 0.0
H4067 H 0.3739 0.05576 0.96494 0.0
H4068 H 0.41353 0.10737 0.85589 0.0
H4069 H 0.43963 0.11093 0.89521 0.0
H4070 H 0.40677 0.08944 1.00545 0.0
C4071 C 0.34867 0.06382 0.9091 0.0
C4072 C 0.34502 0.05844 0.867 0.0
C4073 C 0.35753 0.06864 0.83587 0.0
C4074 C 0.37413 0.08339 0.84698 0.0
C4075 C 0.37804 0.08753 0.88933 0.0
C4076 C 0.36553 0.07804 0.92004 0.0
C4077 C 0.37424 0.08144 0.96279 0.0
C4078 C 0.36865 0.09257 0.9899 0.0
C4079 C 0.36995 0.06381 0.98483 0.0
C4080 C 0.3938 0.09233 0.95069 0.0
C4081 C 0.39564 0.09677 0.90872 0.0
C4082 C 0.41228 0.10445 0.88895 0.0
C4083 C 0.42709 0.10645 0.91161 0.0
C4084 C 0.42507 0.10038 0.95332 0.0
C4085 C 0.40854 0.0943 0.97371 0.0
H4086 H 0.99484 0.35103 0.87658 0.0
H4087 H 0.99555 0.33887 1.00742 0.0
H4088 H 0.99729 0.31225 0.98816 0.0
H4089 H 0.97771 0.30184 0.83191 0.0
H4090 H 0.99333 0.31161 0.7894 0.0
H4091 H 0.98204 0.32287 0.81003 0.0
H4092 H 1.01281 0.35143 0.8222 0.0
H4093 H 1.02402 0.34033 0.80197 0.0
H4094 H 1.02951 0.35004 0.85363 0.0
H4095 H 1.01 0.29515 0.95954 0.0
H4096 H 1.03442 0.29232 0.92807 0.0
H4097 H 1.03014 0.31741 0.81518 0.0
C4098 C 0.99472 0.34234 0.90105 0.0
C4099 C 0.9954 0.34721 0.94341 0.0
C4100 C 0.99488 0.33542 0.97468 0.0
C4101 C 0.99584 0.32016 0.96389 0.0
C4102 C 0.99743 0.31691 0.92178 0.0
C4103 C 0.99665 0.32764 0.89062 0.0
C4104 C 1.00372 0.32485 0.84961 0.0
C4105 C 0.98828 0.31468 0.8184 0.0
C4106 C 1.01839 0.34271 0.83089 0.0
C4107 C 1.01118 0.31315 0.86413 0.0
C4108 C 1.00612 0.30754 0.90491 0.0
C4109 C 1.0136 0.29899 0.92732 0.0
C4110 C 1.02752 0.29742 0.9091 0.0
C4111 C 1.03412 0.30476 0.86923 0.0
C4112 C 1.02508 0.31159 0.84553 0.0
H4113 H 0.7631 0.75471 0.52232 0.0
H4114 H 0.75346 0.77363 0.63935 0.0
H4115 H 0.72476 0.76923 0.61174 0.0
H4116 H 0.73404 0.76893 0.45157 0.0
H4117 H 0.7268 0.74881 0.42125 0.0
H4118 H 0.74938 0.76081 0.44169 0.0
H4119 H 0.74451 0.73182 0.47741 0.0
H4120 H 0.72216 0.7199 0.45742 0.0
H4121 H 0.72594 0.72024 0.51291 0.0
H4122 H 0.69465 0.75361 0.58388 0.0
H4123 H 0.66674 0.72703 0.56288 0.0
H4124 H 0.6943 0.71801 0.46076 0.0
C4125 C 0.75543 0.75894 0.54111 0.0
C4126 C 0.76044 0.76454 0.5828 0.0
C4127 C 0.74979 0.76928 0.60729 0.0
C4128 C 0.73358 0.76704 0.59157 0.0
C4129 C 0.72828 0.76017 0.55123 0.0
C4130 C 0.7391 0.75648 0.52593 0.0
C4131 C 0.72886 0.74536 0.48828 0.0
C4132 C 0.73514 0.75666 0.44834 0.0
C4133 C 0.73045 0.72833 0.48388 0.0
C4134 C 0.71006 0.74107 0.4997 0.0
C4135 C 0.71016 0.75067 0.53463 0.0
C4136 C 0.69439 0.74649 0.55577 0.0
C4137 C 0.67846 0.73128 0.54342 0.0
C4138 C 0.67846 0.72031 0.5104 0.0
C4139 C 0.69407 0.7262 0.48619 0.0
H4140 H 0.37552 0.98889 0.47044 0.0
H4141 H 0.34573 0.94097 0.54449 0.0
H4142 H 0.32538 0.95175 0.56684 0.0
H4143 H 0.38014 1.01683 0.53449 0.0
H4144 H 0.37687 1.03259 0.50418 0.0
H4145 H 0.38374 1.01854 0.47876 0.0
H4146 H 0.35647 1.00594 0.42903 0.0
H4147 H 0.34953 1.02043 0.4531 0.0
H4148 H 0.33414 0.99667 0.44985 0.0
H4149 H 0.31608 0.97201 0.60008 0.0
H4150 H 0.31689 0.99827 0.63422 0.0
H4151 H 0.35254 1.03267 0.53793 0.0
C4152 C 0.36396 0.97993 0.48868 0.0
C4153 C 0.36255 0.96427 0.5063 0.0
C4154 C 0.3474 0.95326 0.53124 0.0
C4155 C 0.33564 0.95923 0.54389 0.0
C4156 C 0.33881 0.97589 0.53001 0.0
C4157 C 0.3522 0.98576 0.50137 0.0
C4158 C 0.35528 1.00459 0.49725 0.0
C4159 C 0.37516 1.01894 0.50416 0.0
C4160 C 0.34844 1.00704 0.4548 0.0
C4161 C 0.34346 1.00455 0.53209 0.0
C4162 C 0.33339 0.98771 0.54943 0.0
C4163 C 0.32339 0.98508 0.58578 0.0
C4164 C 0.32401 1.00003 0.60518 0.0
C4165 C 0.33491 1.01735 0.58863 0.0
C4166 C 0.34415 1.01947 0.55097 0.0
H4167 H 0.11135 0.39021 0.53748 0.0
H4168 H 0.1328 0.42263 0.6486 0.0
H4169 H 0.12868 0.39631 0.68755 0.0
H4170 H 0.07757 0.35841 0.57555 0.0
H4171 H 0.07667 0.33942 0.54932 0.0
H4172 H 0.0885 0.36102 0.52589 0.0
H4173 H 0.11745 0.35891 0.52244 0.0
H4174 H 0.10555 0.33694 0.54557 0.0
H4175 H 0.12606 0.35412 0.56903 0.0
H4176 H 0.11077 0.36696 0.71914 0.0
H4177 H 0.08464 0.33772 0.73751 0.0
H4178 H 0.07636 0.32279 0.60706 0.0
C4179 C 0.11626 0.39182 0.56924 0.0
C4180 C 0.12238 0.40826 0.59015 0.0
C4181 C 0.12834 0.41014 0.63195 0.0
C4182 C 0.126 0.3952 0.65433 0.0
C4183 C 0.11814 0.37862 0.63409 0.0
C4184 C 0.11405 0.37697 0.5918 0.0
C4185 C 0.10267 0.35749 0.57918 0.0
C4186 C 0.08534 0.3539 0.55625 0.0
C4187 C 0.11359 0.35151 0.55249 0.0
C4188 C 0.09877 0.34873 0.62169 0.0
C4189 C 0.10832 0.36102 0.65292 0.0
C4190 C 0.10393 0.35699 0.69505 0.0
C4191 C 0.08904 0.34041 0.70532 0.0
C4192 C 0.07893 0.32804 0.6736 0.0
C4193 C 0.08446 0.33187 0.63174 0.0
H4194 H 1.02582 0.65132 0.66555 0.0
H4195 H 1.00362 0.62076 0.77835 0.0
H4196 H 1.03216 0.62161 0.79212 0.0
H4197 H 0.06249 0.63535 0.64827 0.0
H4198 H 0.07772 0.65749 0.62908 0.0
H4199 H 1.05411 0.64691 0.61681 0.0
H4200 H 1.05325 0.67434 0.64655 0.0
H4201 H 0.07651 0.68485 0.65908 0.0
H4202 H 0.06054 0.68138 0.69961 0.0
H4203 H 0.06371 0.6363 0.80949 0.0
H4204 H 0.0932 0.66225 0.82667 0.0
H4205 H 0.09682 0.68305 0.70252 0.0
C4206 C 1.02664 0.64384 0.69161 0.0
C4207 C 1.01273 0.63634 0.72125 0.0
C4208 C 1.01429 0.6269 0.75556 0.0
C4209 C 1.03044 0.62715 0.76335 0.0
C4210 C 1.04479 0.63656 0.7361 0.0
C4211 C 1.04283 0.64423 0.69987 0.0
C4212 C 0.06089 0.65697 0.68084 0.0
C4213 C 0.06399 0.64868 0.64143 0.0
C4214 C 0.06289 0.67545 0.67111 0.0
C4215 C 0.07317 0.65784 0.71586 0.0
C4216 C 0.06378 0.64509 0.74618 0.0
C4217 C 0.07137 0.64581 0.78533 0.0
C4218 C 0.08818 0.66059 0.79498 0.0
C4219 C 0.09705 0.6744 0.76562 0.0
C4220 C 0.09019 0.67228 0.72479 0.0
H4221 H 0.45599 0.39316 0.83527 0.0
H4222 H 0.46565 0.41227 0.70775 0.0
H4223 H 0.45987 0.43653 0.72804 0.0
H4224 H 0.42044 0.39282 0.84957 0.0
H4225 H 0.42294 0.40035 0.90304 0.0
H4226 H 0.43546 0.39033 0.88477 0.0
H4227 H 0.46518 0.41837 0.90684 0.0
H4228 H 0.4526 0.42854 0.92596 0.0
H4229 H 0.47031 0.44017 0.88852 0.0
H4230 H 0.44333 0.45071 0.75418 0.0
H4231 H 0.41714 0.45177 0.78105 0.0
H4232 H 0.41793 0.42411 0.89277 0.0
C4233 C 0.45809 0.40312 0.8121 0.0
C4234 C 0.46124 0.40075 0.76989 0.0
C4235 C 0.46312 0.4137 0.74025 0.0
C4236 C 0.46007 0.42769 0.75169 0.0
C4237 C 0.45541 0.4287 0.79301 0.0
C4238 C 0.45485 0.41692 0.82308 0.0
C4239 C 0.44559 0.41789 0.8624 0.0
C4240 C 0.4302 0.39926 0.87557 0.0
C4241 C 0.45924 0.42678 0.89803 0.0
C4242 C 0.4387 0.42999 0.84758 0.0
C4243 C 0.44542 0.43699 0.80848 0.0
C4244 C 0.43849 0.44587 0.7853 0.0
C4245 C 0.42357 0.44644 0.80087 0.0
C4246 C 0.41558 0.4379 0.83892 0.0
C4247 C 0.42403 0.43081 0.86378 0.0
H4248 H 0.68687 0.05591 0.69115 0.0
H4249 H 0.69531 0.08854 0.80112 0.0
H4250 H 0.67215 0.06259 0.83809 0.0
H4251 H 0.63557 1.01936 0.71864 0.0
H4252 H 0.63964 1.00222 0.69804 0.0
H4253 H 0.6498 1.02396 0.6737 0.0
H4254 H 0.68104 1.02679 0.68195 0.0
H4255 H 0.67115 1.00537 0.7063 0.0
H4256 H 0.68856 1.02468 0.73318 0.0
H4257 H 0.66063 1.03395 0.87122 0.0
H4258 H 0.65864 1.00559 0.89326 0.0
H4259 H 0.65471 0.98934 0.76416 0.0
C4260 C 0.68303 0.05763 0.72224 0.0
C4261 C 0.69292 0.07414 0.74321 0.0
C4262 C 0.68777 0.07611 0.78398 0.0
C4263 C 0.67455 0.06133 0.80543 0.0
C4264 C 0.66637 0.0447 0.78558 0.0
C4265 C 0.66988 0.04285 0.74414 0.0
C4266 C 0.66231 1.02332 0.7327 0.0
C4267 C 0.64584 1.01684 0.70409 0.0
C4268 C 0.67663 1.01987 0.71246 0.0
C4269 C 0.6568 1.01491 0.7755 0.0
C4270 C 0.6585 1.02732 0.80539 0.0
C4271 C 0.65831 1.02384 0.84809 0.0
C4272 C 0.65727 1.00777 0.86048 0.0
C4273 C 0.65614 0.99535 0.83022 0.0
C4274 C 0.65485 0.99849 0.7876 0.0
H4275 H 0.4459 0.06594 0.24656 0.0
H4276 H 0.4489 0.09341 0.3619 0.0
H4277 H 0.44616 0.06789 0.40193 0.0
H4278 H 0.41313 1.03016 0.26402 0.0
H4279 H 0.41892 1.01426 0.24291 0.0
H4280 H 0.43023 0.03672 0.22451 0.0
H4281 H 0.46088 0.03995 0.24432 0.0
H4282 H 0.44951 1.01715 0.26276 0.0
H4283 H 0.46477 1.03504 0.29669 0.0
H4284 H 0.4301 0.03748 0.42609 0.0
H4285 H 0.40493 1.00664 0.43119 0.0
H4286 H 0.41268 0.99725 0.30216 0.0
C4287 C 0.44719 0.06691 0.28021 0.0
C4288 C 0.44734 0.08132 0.30131 0.0
C4289 C 0.44858 0.08228 0.34532 0.0
C4290 C 0.44722 0.06788 0.36827 0.0
C4291 C 0.44491 0.05279 0.3467 0.0
C4292 C 0.44561 0.05245 0.3034 0.0
C4293 C 0.43876 1.03359 0.28736 0.0
C4294 C 0.4244 1.02841 0.2528 0.0
C4295 C 0.45442 1.0313 0.27189 0.0
C4296 C 0.43104 1.0232 0.32725 0.0
C4297 C 0.43567 1.03448 0.36159 0.0
C4298 C 0.427 1.02843 0.39993 0.0
C4299 C 0.41258 1.0109 0.40254 0.0
C4300 C 0.40699 0.99963 0.36702 0.0
C4301 C 0.4171 1.0055 0.33001 0.0
H4302 H 1.01085 0.39167 0.32047 0.0
H4303 H 1.01577 0.40955 0.19319 0.0
H4304 H 1.04466 0.43636 0.21013 0.0
H4305 H 1.04485 0.44058 0.37146 0.0
H4306 H 1.05296 0.42952 0.4055 0.0
H4307 H 1.02942 0.41883 0.39232 0.0
H4308 H 1.03057 0.39093 0.36699 0.0
H4309 H 1.05381 0.40144 0.37954 0.0
H4310 H 1.04645 0.39339 0.32706 0.0
H4311 H 0.07598 0.45265 0.23018 0.0
H4312 H 0.10465 0.45437 0.24708 0.0
H4313 H 0.08139 0.42399 0.3598 0.0
C4314 C 1.01759 0.40205 0.29735 0.0
C4315 C 1.01129 0.3989 0.25595 0.0
C4316 C 1.02034 0.41207 0.22533 0.0
C4317 C 1.0368 0.42734 0.23488 0.0
C4318 C 1.04396 0.42908 0.27504 0.0
C4319 C 1.03436 0.41689 0.3063 0.0
C4320 C 1.04648 0.41833 0.34232 0.0
C4321 C 1.04324 0.42736 0.38012 0.0
C4322 C 1.04421 0.39995 0.35451 0.0
C4323 C 0.06462 0.43064 0.32316 0.0
C4324 C 0.06288 0.4379 0.28608 0.0
C4325 C 0.07748 0.44734 0.25953 0.0
C4326 C 0.09371 0.44804 0.26912 0.0
C4327 C 0.09507 0.43882 0.3042 0.0
C4328 C 0.08081 0.4313 0.33305 0.0
H4329 H 0.66733 0.67195 0.32217 0.0
H4330 H 0.6448 0.67809 0.20677 0.0
H4331 H 0.64768 0.65364 0.17526 0.0
H4332 H 0.69968 0.67087 0.28984 0.0
H4333 H 0.70009 0.65353 0.32045 0.0
H4334 H 0.68861 0.66445 0.33985 0.0
H4335 H 0.6593 0.63408 0.34681 0.0
H4336 H 0.67087 0.62285 0.32772 0.0
H4337 H 0.65054 0.61919 0.30253 0.0
H4338 H 0.66571 0.64151 0.14859 0.0
H4339 H 0.69268 0.63927 0.13372 0.0
H4340 H 0.70104 0.63656 0.26573 0.0
C4341 C 0.66186 0.66726 0.29129 0.0
C4342 C 0.65632 0.67713 0.26655 0.0
C4343 C 0.6495 0.67091 0.22597 0.0
C4344 C 0.65092 0.65688 0.20793 0.0
C4345 C 0.65861 0.6488 0.23137 0.0
C4346 C 0.66315 0.65315 0.27306 0.0
C4347 C 0.67427 0.6452 0.28903 0.0
C4348 C 0.69168 0.65937 0.31093 0.0
C4349 C 0.66307 0.62938 0.31823 0.0
C4350 C 0.67799 0.63869 0.24831 0.0
C4351 C 0.6682 0.64014 0.2156 0.0
C4352 C 0.6727 0.63931 0.17397 0.0
C4353 C 0.68805 0.63808 0.16562 0.0
C4354 C 0.69841 0.63726 0.19876 0.0
C4355 C 0.69267 0.63639 0.24021 0.0
loop_
_geom_bond_atom_site_label_1
_geom_bond_atom_site_label_2
_geom_bond_distance
_geom_bond_site_symmetry_2
_ccdc_geom_bond_type
La0 C2 2.928 . S
La0 O20 2.521 . S
La0 O21 2.628 . S
La0 O22 2.554 . S
La0 O23 2.757 . S
La0 O24 2.470 . S
La0 O29 2.482 . S
La0 O31 2.503 . S
La1 C11 2.928 . S
La1 O23 2.482 . S
La1 O25 2.503 . S
La1 O26 2.521 . S
La1 O27 2.628 . S
La1 O28 2.554 . S
La1 O29 2.757 . S
La1 O30 2.470 . S
C2 La0 2.928 . S
C2 C3 1.503 . S
C2 O20 1.261 . S
C2 O21 1.243 . S
C3 C2 1.503 . S
C3 C4 1.394 . S
C3 C8 1.373 . S
C4 C3 1.394 . S
C4 C5 1.380 . S
C4 H32 0.930 . S
C5 C4 1.380 . S
C5 C6 1.376 . S
C5 H33 0.930 . S
C6 C5 1.376 . S
C6 C7 1.370 . S
C7 C6 1.370 . S
C7 C8 1.396 . S
C7 H34 0.929 . S
C8 C3 1.373 . S
C8 C7 1.396 . S
C8 H35 0.929 . S
C9 O22 1.240 . S
C9 O23 1.289 . S
C10 O24 1.258 . S
C10 O25 1.256 . S
C11 La1 2.928 . S
C11 C12 1.503 . S
C11 O26 1.261 . S
C11 O27 1.243 . S
C12 C11 1.503 . S
C12 C13 1.394 . S
C12 C17 1.373 . S
C13 C12 1.394 . S
C13 C14 1.380 . S
C13 H36 0.930 . S
C14 C13 1.380 . S
C14 C15 1.376 . S
C14 H37 0.930 . S
C15 C14 1.376 . S
C15 C16 1.370 . S
C16 C15 1.370 . S
C16 C17 1.396 . S
C16 H38 0.929 . S
C17 C12 1.373 . S
C17 C16 1.396 . S
C17 H39 0.929 . S
C18 O28 1.240 . S
C18 O29 1.289 . S
C19 O30 1.258 . S
C19 O31 1.256 . S
O20 La0 2.521 . S
O20 C2 1.261 . S
O21 La0 2.628 . S
O21 C2 1.243 . S
O22 La0 2.554 . S
O22 C9 1.240 . S
O23 La0 2.757 . S
O23 La1 2.482 . S
O23 C9 1.289 . S
O24 La0 2.470 . S
O24 C10 1.258 . S
O25 La1 2.503 . S
O25 C10 1.256 . S
O26 La1 2.521 . S
O26 C11 1.261 . S
O27 La1 2.628 . S
O27 C11 1.243 . S
O28 La1 2.554 . S
O28 C18 1.240 . S
O29 La0 2.482 . S
O29 La1 2.757 . S
O29 C18 1.289 . S
O30 La1 2.470 . S
O30 C19 1.258 . S
O31 La0 2.503 . S
O31 C19 1.256 . S
H32 C4 0.930 . S
H33 C5 0.930 . S
H34 C7 0.929 . S
H35 C8 0.929 . S
H36 C13 0.930 . S
H37 C14 0.930 . S
H38 C16 0.929 . S
H39 C17 0.929 . S
La40 C42 2.928 . S
La40 O60 2.521 . S
La40 O61 2.628 . S
La40 O62 2.554 . S
La40 O63 2.757 . S
La40 O64 2.470 . S
La40 O69 2.482 . S
La40 O71 2.503 . S
La41 C51 2.928 . S
La41 O63 2.482 . S
La41 O65 2.503 . S
La41 O66 2.521 . S
La41 O67 2.628 . S
La41 O68 2.554 . S
La41 O69 2.757 . S
La41 O70 2.470 . S
C42 La40 2.928 . S
C42 C43 1.503 . S
C42 O60 1.261 . S
C42 O61 1.243 . S
C43 C42 1.503 . S
C43 C44 1.394 . S
C43 C48 1.373 . S
C44 C43 1.394 . S
C44 C45 1.380 . S
C44 H72 0.930 . S
C45 C44 1.380 . S
C45 C46 1.376 . S
C45 H73 0.930 . S
C46 C45 1.376 . S
C46 C47 1.370 . S
C47 C46 1.370 . S
C47 C48 1.396 . S
C47 H74 0.929 . S
C48 C43 1.373 . S
C48 C47 1.396 . S
C48 H75 0.929 . S
C49 O62 1.240 . S
C49 O63 1.289 . S
C50 O64 1.258 . S
C50 O65 1.256 . S
C51 La41 2.928 . S
C51 C52 1.503 . S
C51 O66 1.261 . S
C51 O67 1.243 . S
C52 C51 1.503 . S
C52 C53 1.394 . S
C52 C57 1.373 . S
C53 C52 1.394 . S
C53 C54 1.380 . S
C53 H76 0.930 . S
C54 C53 1.380 . S
C54 C55 1.312 1_545 S
C54 H77 0.930 . S
C55 C54 1.312 1_565 S
C55 C56 1.409 . S
C56 C55 1.409 . S
C56 C57 1.396 1_565 S
C56 H78 0.929 . S
C57 C52 1.373 . S
C57 C56 1.396 1_545 S
C57 H79 0.929 . S
C58 O68 1.240 . S
C58 O69 1.289 . S
C59 O70 1.258 . S
C59 O71 1.256 . S
O60 La40 2.521 . S
O60 C42 1.261 . S
O61 La40 2.628 . S
O61 C42 1.243 . S
O62 La40 2.554 . S
O62 C49 1.240 . S
O63 La40 2.757 . S
O63 La41 2.482 . S
O63 C49 1.289 . S
O64 La40 2.470 . S
O64 C50 1.258 . S
O65 La41 2.503 . S
O65 C50 1.256 . S
O66 La41 2.521 . S
O66 C51 1.261 . S
O67 La41 2.628 . S
O67 C51 1.243 . S
O68 La41 2.554 . S
O68 C58 1.240 . S
O69 La40 2.482 . S
O69 La41 2.757 . S
O69 C58 1.289 . S
O70 La41 2.470 . S
O70 C59 1.258 . S
O71 La40 2.503 . S
O71 C59 1.256 . S
H72 C44 0.930 . S
H73 C45 0.930 . S
H74 C47 0.929 . S
H75 C48 0.929 . S
H76 C53 0.930 . S
H77 C54 0.930 . S
H78 C56 0.929 . S
H79 C57 0.929 . S
La80 C82 2.928 . S
La80 O100 2.521 . S
La80 O101 2.628 . S
La80 O102 2.554 . S
La80 O103 2.757 . S
La80 O104 2.470 . S
La80 O109 2.482 . S
La80 O111 2.503 . S
La81 C91 2.928 . S
La81 O103 2.482 . S
La81 O105 2.503 . S
La81 O106 2.521 . S
La81 O107 2.628 . S
La81 O108 2.554 . S
La81 O109 2.757 . S
La81 O110 2.470 . S
C82 La80 2.928 . S
C82 C83 1.503 . S
C82 O100 1.261 . S
C82 O101 1.243 . S
C83 C82 1.503 . S
C83 C84 1.394 . S
C83 C88 1.373 . S
C84 C83 1.394 . S
C84 C85 1.380 . S
C84 H112 0.930 . S
C85 C84 1.380 . S
C85 C86 1.376 . S
C85 H113 0.930 . S
C86 C85 1.376 . S
C86 C87 1.370 . S
C87 C86 1.370 . S
C87 C88 1.396 . S
C87 H114 0.929 . S
C88 C83 1.373 . S
C88 C87 1.396 . S
C88 H115 0.929 . S
C89 O102 1.240 . S
C89 O103 1.289 . S
C90 O104 1.258 . S
C90 O105 1.256 . S
C91 La81 2.928 . S
C91 C92 1.503 . S
C91 O106 1.261 . S
C91 O107 1.243 . S
C92 C91 1.503 . S
C92 C93 1.394 . S
C92 C97 1.373 . S
C93 C92 1.394 . S
C93 C94 1.380 . S
C93 H116 0.930 . S
C94 C93 1.380 . S
C94 C95 1.331 1_655 S
C94 H117 0.930 . S
C95 C94 1.331 1_455 S
C95 C96 1.344 . S
C96 C95 1.344 . S
C96 C97 1.396 1_455 S
C96 H118 0.929 . S
C97 C92 1.373 . S
C97 C96 1.396 1_655 S
C97 H119 0.929 . S
C98 O108 1.240 . S
C98 O109 1.289 . S
C99 O110 1.258 . S
C99 O111 1.256 . S
O100 La80 2.521 . S
O100 C82 1.261 . S
O101 La80 2.628 . S
O101 C82 1.243 . S
O102 La80 2.554 . S
O102 C89 1.240 . S
O103 La80 2.757 . S
O103 La81 2.482 . S
O103 C89 1.289 . S
O104 La80 2.470 . S
O104 C90 1.258 . S
O105 La81 2.503 . S
O105 C90 1.256 . S
O106 La81 2.521 . S
O106 C91 1.261 . S
O107 La81 2.628 . S
O107 C91 1.243 . S
O108 La81 2.554 . S
O108 C98 1.240 . S
O109 La80 2.482 . S
O109 La81 2.757 . S
O109 C98 1.289 . S
O110 La81 2.470 . S
O110 C99 1.258 . S
O111 La80 2.503 . S
O111 C99 1.256 . S
H112 C84 0.930 . S
H113 C85 0.930 . S
H114 C87 0.929 . S
H115 C88 0.929 . S
H116 C93 0.930 . S
H117 C94 0.930 . S
H118 C96 0.929 . S
H119 C97 0.929 . S
La120 C122 2.928 . S
La120 O140 2.521 . S
La120 O141 2.628 . S
La120 O142 2.554 . S
La120 O143 2.757 . S
La120 O144 2.470 . S
La120 O149 2.482 . S
La120 O151 2.503 . S
La121 C131 2.928 . S
La121 O143 2.482 . S
La121 O145 2.503 . S
La121 O146 2.521 . S
La121 O147 2.628 . S
La121 O148 2.554 . S
La121 O149 2.757 . S
La121 O150 2.470 . S
C122 La120 2.928 . S
C122 C123 1.503 . S
C122 O140 1.261 . S
C122 O141 1.243 . S
C123 C122 1.503 . S
C123 C124 1.394 . S
C123 C128 1.373 . S
C124 C123 1.394 . S
C124 C125 1.380 . S
C124 H152 0.930 . S
C125 C124 1.380 . S
C125 C126 1.376 . S
C125 H153 0.930 . S
C126 C125 1.376 . S
C126 C127 1.370 . S
C127 C126 1.370 . S
C127 C128 1.396 . S
C127 H154 0.929 . S
C128 C123 1.373 . S
C128 C127 1.396 . S
C128 H155 0.929 . S
C129 O142 1.240 . S
C129 O143 1.289 . S
C130 O144 1.258 . S
C130 O145 1.256 . S
C131 La121 2.928 . S
C131 C132 1.503 . S
C131 O146 1.261 . S
C131 O147 1.243 . S
C132 C131 1.503 . S
C132 C133 1.394 . S
C132 C137 1.373 . S
C133 C132 1.394 . S
C133 C134 1.380 . S
C133 H156 0.930 . S
C134 C133 1.380 . S
C134 C135 1.376 . S
C134 H157 0.930 . S
C135 C134 1.376 . S
C135 C136 1.370 . S
C136 C135 1.370 . S
C136 C137 1.396 . S
C136 H158 0.929 . S
C137 C132 1.373 . S
C137 C136 1.396 . S
C137 H159 0.929 . S
C138 O148 1.240 . S
C138 O149 1.289 . S
C139 O150 1.258 . S
C139 O151 1.256 . S
O140 La120 2.521 . S
O140 C122 1.261 . S
O141 La120 2.628 . S
O141 C122 1.243 . S
O142 La120 2.554 . S
O142 C129 1.240 . S
O143 La120 2.757 . S
O143 La121 2.482 . S
O143 C129 1.289 . S
O144 La120 2.470 . S
O144 C130 1.258 . S
O145 La121 2.503 . S
O145 C130 1.256 . S
O146 La121 2.521 . S
O146 C131 1.261 . S
O147 La121 2.628 . S
O147 C131 1.243 . S
O148 La121 2.554 . S
O148 C138 1.240 . S
O149 La120 2.482 . S
O149 La121 2.757 . S
O149 C138 1.289 . S
O150 La121 2.470 . S
O150 C139 1.258 . S
O151 La120 2.503 . S
O151 C139 1.256 . S
H152 C124 0.930 . S
H153 C125 0.930 . S
H154 C127 0.929 . S
H155 C128 0.929 . S
H156 C133 0.930 . S
H157 C134 0.930 . S
H158 C136 0.929 . S
H159 C137 0.929 . S
La160 C162 2.928 . S
La160 O180 2.521 . S
La160 O181 2.628 . S
La160 O182 2.554 . S
La160 O183 2.757 . S
La160 O184 2.470 . S
La160 O189 2.482 . S
La160 O191 2.503 . S
La161 C171 2.928 . S
La161 O183 2.482 . S
La161 O185 2.503 . S
La161 O186 2.521 . S
La161 O187 2.628 . S
La161 O188 2.554 . S
La161 O189 2.757 . S
La161 O190 2.470 . S
C162 La160 2.928 . S
C162 C163 1.503 . S
C162 O180 1.261 . S
C162 O181 1.243 . S
C163 C162 1.503 . S
C163 C164 1.394 . S
C163 C168 1.373 . S
C164 C163 1.394 . S
C164 C165 1.380 . S
C164 H192 0.930 . S
C165 C164 1.380 . S
C165 C166 1.376 . S
C165 H193 0.930 . S
C166 C165 1.376 . S
C166 C167 1.370 . S
C167 C166 1.370 . S
C167 C168 1.396 . S
C167 H194 0.929 . S
C168 C163 1.373 . S
C168 C167 1.396 . S
C168 H195 0.929 . S
C169 O182 1.240 . S
C169 O183 1.289 . S
C170 O184 1.258 . S
C170 O185 1.256 . S
C171 La161 2.928 . S
C171 C172 1.503 . S
C171 O186 1.261 . S
C171 O187 1.243 . S
C172 C171 1.503 . S
C172 C173 1.394 . S
C172 C177 1.373 . S
C173 C172 1.394 . S
C173 C174 1.380 . S
C173 H196 0.930 . S
C174 C173 1.380 . S
C174 C175 1.331 1_565 S
C174 H197 0.930 . S
C175 C174 1.331 1_545 S
C175 C176 1.344 . S
C176 C175 1.344 . S
C176 C177 1.396 1_545 S
C176 H198 0.929 . S
C177 C172 1.373 . S
C177 C176 1.396 1_565 S
C177 H199 0.929 . S
C178 O188 1.240 . S
C178 O189 1.289 . S
C179 O190 1.258 . S
C179 O191 1.256 . S
O180 La160 2.521 . S
O180 C162 1.261 . S
O181 La160 2.628 . S
O181 C162 1.243 . S
O182 La160 2.554 . S
O182 C169 1.240 . S
O183 La160 2.757 . S
O183 La161 2.482 . S
O183 C169 1.289 . S
O184 La160 2.470 . S
O184 C170 1.258 . S
O185 La161 2.503 . S
O185 C170 1.256 . S
O186 La161 2.521 . S
O186 C171 1.261 . S
O187 La161 2.628 . S
O187 C171 1.243 . S
O188 La161 2.554 . S
O188 C178 1.240 . S
O189 La160 2.482 . S
O189 La161 2.757 . S
O189 C178 1.289 . S
O190 La161 2.470 . S
O190 C179 1.258 . S
O191 La160 2.503 . S
O191 C179 1.256 . S
H192 C164 0.930 . S
H193 C165 0.930 . S
H194 C167 0.929 . S
H195 C168 0.929 . S
H196 C173 0.930 . S
H197 C174 0.930 . S
H198 C176 0.929 . S
H199 C177 0.929 . S
La200 C202 2.928 . S
La200 O220 2.521 . S
La200 O221 2.628 . S
La200 O222 2.554 . S
La200 O223 2.757 . S
La200 O224 2.470 . S
La200 O229 2.482 . S
La200 O231 2.503 . S
La201 C211 2.928 . S
La201 O223 2.482 . S
La201 O225 2.503 . S
La201 O226 2.521 . S
La201 O227 2.628 . S
La201 O228 2.554 . S
La201 O229 2.757 . S
La201 O230 2.470 . S
C202 La200 2.928 . S
C202 C203 1.503 . S
C202 O220 1.261 . S
C202 O221 1.243 . S
C203 C202 1.503 . S
C203 C204 1.394 . S
C203 C208 1.373 . S
C204 C203 1.394 . S
C204 C205 1.380 . S
C204 H232 0.930 . S
C205 C204 1.380 . S
C205 C206 1.376 . S
C205 H233 0.930 . S
C206 C205 1.376 . S
C206 C207 1.370 . S
C207 C206 1.370 . S
C207 C208 1.396 . S
C207 H234 0.929 . S
C208 C203 1.373 . S
C208 C207 1.396 . S
C208 H235 0.929 . S
C209 O222 1.240 . S
C209 O223 1.289 . S
C210 O224 1.258 . S
C210 O225 1.256 . S
C211 La201 2.928 . S
C211 C212 1.503 . S
C211 O226 1.261 . S
C211 O227 1.243 . S
C212 C211 1.503 . S
C212 C213 1.394 . S
C212 C217 1.373 . S
C213 C212 1.394 . S
C213 C214 1.380 . S
C213 H236 0.930 . S
C214 C213 1.380 . S
C214 C215 1.312 1_455 S
C214 H237 0.930 . S
C215 C214 1.312 1_655 S
C215 C216 1.409 . S
C216 C215 1.409 . S
C216 C217 1.396 1_655 S
C216 H238 0.929 . S
C217 C212 1.373 . S
C217 C216 1.396 1_455 S
C217 H239 0.929 . S
C218 O228 1.240 . S
C218 O229 1.289 . S
C219 O230 1.258 . S
C219 O231 1.256 . S
O220 La200 2.521 . S
O220 C202 1.261 . S
O221 La200 2.628 . S
O221 C202 1.243 . S
O222 La200 2.554 . S
O222 C209 1.240 . S
O223 La200 2.757 . S
O223 La201 2.482 . S
O223 C209 1.289 . S
O224 La200 2.470 . S
O224 C210 1.258 . S
O225 La201 2.503 . S
O225 C210 1.256 . S
O226 La201 2.521 . S
O226 C211 1.261 . S
O227 La201 2.628 . S
O227 C211 1.243 . S
O228 La201 2.554 . S
O228 C218 1.240 . S
O229 La200 2.482 . S
O229 La201 2.757 . S
O229 C218 1.289 . S
O230 La201 2.470 . S
O230 C219 1.258 . S
O231 La200 2.503 . S
O231 C219 1.256 . S
H232 C204 0.930 . S
H233 C205 0.930 . S
H234 C207 0.929 . S
H235 C208 0.929 . S
H236 C213 0.930 . S
H237 C214 0.930 . S
H238 C216 0.929 . S
H239 C217 0.929 . S
La240 C242 2.928 . S
La240 O260 2.521 . S
La240 O261 2.628 . S
La240 O262 2.554 . S
La240 O263 2.757 . S
La240 O264 2.470 . S
La240 O269 2.482 . S
La240 O271 2.503 . S
La241 C251 2.928 . S
La241 O263 2.482 . S
La241 O265 2.503 . S
La241 O266 2.521 . S
La241 O267 2.628 . S
La241 O268 2.554 . S
La241 O269 2.757 . S
La241 O270 2.470 . S
C242 La240 2.928 . S
C242 C243 1.503 . S
C242 O260 1.261 . S
C242 O261 1.243 . S
C243 C242 1.503 . S
C243 C244 1.394 . S
C243 C248 1.373 . S
C244 C243 1.394 . S
C244 C245 1.380 . S
C244 H272 0.930 . S
C245 C244 1.380 . S
C245 C246 1.376 . S
C245 H273 0.930 . S
C246 C245 1.376 . S
C246 C247 1.370 . S
C247 C246 1.370 . S
C247 C248 1.396 . S
C247 H274 0.929 . S
C248 C243 1.373 . S
C248 C247 1.396 . S
C248 H275 0.929 . S
C249 O262 1.240 . S
C249 O263 1.289 . S
C250 O264 1.258 . S
C250 O265 1.256 . S
C251 La241 2.928 . S
C251 C252 1.503 . S
C251 O266 1.261 . S
C251 O267 1.243 . S
C252 C251 1.503 . S
C252 C253 1.394 . S
C252 C257 1.373 . S
C253 C252 1.394 . S
C253 C254 1.380 . S
C253 H276 0.930 . S
C254 C253 1.380 . S
C254 C255 1.376 . S
C254 H277 0.930 . S
C255 C254 1.376 . S
C255 C256 1.370 . S
C256 C255 1.370 . S
C256 C257 1.396 . S
C256 H278 0.929 . S
C257 C252 1.373 . S
C257 C256 1.396 . S
C257 H279 0.929 . S
C258 O268 1.240 . S
C258 O269 1.289 . S
C259 O270 1.258 . S
C259 O271 1.256 . S
O260 La240 2.521 . S
O260 C242 1.261 . S
O261 La240 2.628 . S
O261 C242 1.243 . S
O262 La240 2.554 . S
O262 C249 1.240 . S
O263 La240 2.757 . S
O263 La241 2.482 . S
O263 C249 1.289 . S
O264 La240 2.470 . S
O264 C250 1.258 . S
O265 La241 2.503 . S
O265 C250 1.256 . S
O266 La241 2.521 . S
O266 C251 1.261 . S
O267 La241 2.628 . S
O267 C251 1.243 . S
O268 La241 2.554 . S
O268 C258 1.240 . S
O269 La240 2.482 . S
O269 La241 2.757 . S
O269 C258 1.289 . S
O270 La241 2.470 . S
O270 C259 1.258 . S
O271 La240 2.503 . S
O271 C259 1.256 . S
H272 C244 0.930 . S
H273 C245 0.930 . S
H274 C247 0.929 . S
H275 C248 0.929 . S
H276 C253 0.930 . S
H277 C254 0.930 . S
H278 C256 0.929 . S
H279 C257 0.929 . S
La280 C282 2.928 . S
La280 O300 2.521 . S
La280 O301 2.628 . S
La280 O302 2.554 . S
La280 O303 2.757 . S
La280 O304 2.470 . S
La280 O309 2.482 . S
La280 O311 2.503 . S
La281 C291 2.928 . S
La281 O303 2.482 . S
La281 O305 2.503 . S
La281 O306 2.521 . S
La281 O307 2.628 . S
La281 O308 2.554 . S
La281 O309 2.757 . S
La281 O310 2.470 . S
C282 La280 2.928 . S
C282 C283 1.503 . S
C282 O300 1.261 . S
C282 O301 1.243 . S
C283 C282 1.503 . S
C283 C284 1.394 . S
C283 C288 1.373 . S
C284 C283 1.394 . S
C284 C285 1.380 . S
C284 H312 0.930 . S
C285 C284 1.380 . S
C285 C286 1.312 1_565 S
C285 H313 0.930 . S
C286 C285 1.312 1_545 S
C286 C287 1.409 . S
C287 C286 1.409 . S
C287 C288 1.396 1_545 S
C287 H314 0.929 . S
C288 C283 1.373 . S
C288 C287 1.396 1_565 S
C288 H315 0.929 . S
C289 O302 1.240 . S
C289 O303 1.289 . S
C290 O304 1.258 . S
C290 O305 1.256 . S
C291 La281 2.928 . S
C291 C292 1.503 . S
C291 O306 1.261 . S
C291 O307 1.243 . S
C292 C291 1.503 . S
C292 C293 1.394 . S
C292 C297 1.373 . S
C293 C292 1.394 . S
C293 C294 1.380 . S
C293 H316 0.930 . S
C294 C293 1.380 . S
C294 C295 1.376 . S
C294 H317 0.930 . S
C295 C294 1.376 . S
C295 C296 1.370 . S
C296 C295 1.370 . S
C296 C297 1.396 . S
C296 H318 0.929 . S
C297 C292 1.373 . S
C297 C296 1.396 . S
C297 H319 0.929 . S
C298 O308 1.240 . S
C298 O309 1.289 . S
C299 O310 1.258 . S
C299 O311 1.256 . S
O300 La280 2.521 . S
O300 C282 1.261 . S
O301 La280 2.628 . S
O301 C282 1.243 . S
O302 La280 2.554 . S
O302 C289 1.240 . S
O303 La280 2.757 . S
O303 La281 2.482 . S
O303 C289 1.289 . S
O304 La280 2.470 . S
O304 C290 1.258 . S
O305 La281 2.503 . S
O305 C290 1.256 . S
O306 La281 2.521 . S
O306 C291 1.261 . S
O307 La281 2.628 . S
O307 C291 1.243 . S
O308 La281 2.554 . S
O308 C298 1.240 . S
O309 La280 2.482 . S
O309 La281 2.757 . S
O309 C298 1.289 . S
O310 La281 2.470 . S
O310 C299 1.258 . S
O311 La280 2.503 . S
O311 C299 1.256 . S
H312 C284 0.930 . S
H313 C285 0.930 . S
H314 C287 0.929 . S
H315 C288 0.929 . S
H316 C293 0.930 . S
H317 C294 0.930 . S
H318 C296 0.929 . S
H319 C297 0.929 . S
La320 C322 2.928 . S
La320 O340 2.521 . S
La320 O341 2.628 . S
La320 O342 2.554 . S
La320 O343 2.757 . S
La320 O344 2.470 . S
La320 O349 2.482 . S
La320 O351 2.503 . S
La321 C331 2.928 . S
La321 O343 2.482 . S
La321 O345 2.503 . S
La321 O346 2.521 . S
La321 O347 2.628 . S
La321 O348 2.554 . S
La321 O349 2.757 . S
La321 O350 2.470 . S
C322 La320 2.928 . S
C322 C323 1.503 . S
C322 O340 1.261 . S
C322 O341 1.243 . S
C323 C322 1.503 . S
C323 C324 1.394 . S
C323 C328 1.373 . S
C324 C323 1.394 . S
C324 C325 1.380 . S
C324 H352 0.930 . S
C325 C324 1.380 . S
C325 C326 1.331 1_455 S
C325 H353 0.930 . S
C326 C325 1.331 1_655 S
C326 C327 1.344 . S
C327 C326 1.344 . S
C327 C328 1.396 1_655 S
C327 H354 0.929 . S
C328 C323 1.373 . S
C328 C327 1.396 1_455 S
C328 H355 0.929 . S
C329 O342 1.240 . S
C329 O343 1.289 . S
C330 O344 1.258 . S
C330 O345 1.256 . S
C331 La321 2.928 . S
C331 C332 1.503 . S
C331 O346 1.261 . S
C331 O347 1.243 . S
C332 C331 1.503 . S
C332 C333 1.394 . S
C332 C337 1.373 . S
C333 C332 1.394 . S
C333 C334 1.380 . S
C333 H356 0.930 . S
C334 C333 1.380 . S
C334 C335 1.376 . S
C334 H357 0.930 . S
C335 C334 1.376 . S
C335 C336 1.370 . S
C336 C335 1.370 . S
C336 C337 1.396 . S
C336 H358 0.929 . S
C337 C332 1.373 . S
C337 C336 1.396 . S
C337 H359 0.929 . S
C338 O348 1.240 . S
C338 O349 1.289 . S
C339 O350 1.258 . S
C339 O351 1.256 . S
O340 La320 2.521 . S
O340 C322 1.261 . S
O341 La320 2.628 . S
O341 C322 1.243 . S
O342 La320 2.554 . S
O342 C329 1.240 . S
O343 La320 2.757 . S
O343 La321 2.482 . S
O343 C329 1.289 . S
O344 La320 2.470 . S
O344 C330 1.258 . S
O345 La321 2.503 . S
O345 C330 1.256 . S
O346 La321 2.521 . S
O346 C331 1.261 . S
O347 La321 2.628 . S
O347 C331 1.243 . S
O348 La321 2.554 . S
O348 C338 1.240 . S
O349 La320 2.482 . S
O349 La321 2.757 . S
O349 C338 1.289 . S
O350 La321 2.470 . S
O350 C339 1.258 . S
O351 La320 2.503 . S
O351 C339 1.256 . S
H352 C324 0.930 . S
H353 C325 0.930 . S
H354 C327 0.929 . S
H355 C328 0.929 . S
H356 C333 0.930 . S
H357 C334 0.930 . S
H358 C336 0.929 . S
H359 C337 0.929 . S
La360 C362 2.928 . S
La360 O380 2.521 . S
La360 O381 2.628 . S
La360 O382 2.554 . S
La360 O383 2.757 . S
La360 O384 2.470 . S
La360 O389 2.482 . S
La360 O391 2.503 . S
La361 C371 2.928 . S
La361 O383 2.482 . S
La361 O385 2.503 . S
La361 O386 2.521 . S
La361 O387 2.628 . S
La361 O388 2.554 . S
La361 O389 2.757 . S
La361 O390 2.470 . S
C362 La360 2.928 . S
C362 C363 1.503 . S
C362 O380 1.261 . S
C362 O381 1.243 . S
C363 C362 1.503 . S
C363 C364 1.394 . S
C363 C368 1.373 . S
C364 C363 1.394 . S
C364 C365 1.380 . S
C364 H392 0.930 . S
C365 C364 1.380 . S
C365 C366 1.376 . S
C365 H393 0.930 . S
C366 C365 1.376 . S
C366 C367 1.370 . S
C367 C366 1.370 . S
C367 C368 1.396 . S
C367 H394 0.929 . S
C368 C363 1.373 . S
C368 C367 1.396 . S
C368 H395 0.929 . S
C369 O382 1.240 . S
C369 O383 1.289 . S
C370 O384 1.258 . S
C370 O385 1.256 . S
C371 La361 2.928 . S
C371 C372 1.503 . S
C371 O386 1.261 . S
C371 O387 1.243 . S
C372 C371 1.503 . S
C372 C373 1.394 . S
C372 C377 1.373 . S
C373 C372 1.394 . S
C373 C374 1.380 . S
C373 H396 0.930 . S
C374 C373 1.380 . S
C374 C375 1.376 . S
C374 H397 0.930 . S
C375 C374 1.376 . S
C375 C376 1.370 . S
C376 C375 1.370 . S
C376 C377 1.396 . S
C376 H398 0.929 . S
C377 C372 1.373 . S
C377 C376 1.396 . S
C377 H399 0.929 . S
C378 O388 1.240 . S
C378 O389 1.289 . S
C379 O390 1.258 . S
C379 O391 1.256 . S
O380 La360 2.521 . S
O380 C362 1.261 . S
O381 La360 2.628 . S
O381 C362 1.243 . S
O382 La360 2.554 . S
O382 C369 1.240 . S
O383 La360 2.757 . S
O383 La361 2.482 . S
O383 C369 1.289 . S
O384 La360 2.470 . S
O384 C370 1.258 . S
O385 La361 2.503 . S
O385 C370 1.256 . S
O386 La361 2.521 . S
O386 C371 1.261 . S
O387 La361 2.628 . S
O387 C371 1.243 . S
O388 La361 2.554 . S
O388 C378 1.240 . S
O389 La360 2.482 . S
O389 La361 2.757 . S
O389 C378 1.289 . S
O390 La361 2.470 . S
O390 C379 1.258 . S
O391 La360 2.503 . S
O391 C379 1.256 . S
H392 C364 0.930 . S
H393 C365 0.930 . S
H394 C367 0.929 . S
H395 C368 0.929 . S
H396 C373 0.930 . S
H397 C374 0.930 . S
H398 C376 0.929 . S
H399 C377 0.929 . S
La400 C402 2.928 . S
La400 O420 2.521 . S
La400 O421 2.628 . S
La400 O422 2.554 . S
La400 O423 2.757 . S
La400 O424 2.470 . S
La400 O429 2.482 . S
La400 O431 2.503 . S
La401 C411 2.928 . S
La401 O423 2.482 . S
La401 O425 2.503 . S
La401 O426 2.521 . S
La401 O427 2.628 . S
La401 O428 2.554 . S
La401 O429 2.757 . S
La401 O430 2.470 . S
C402 La400 2.928 . S
C402 C403 1.503 . S
C402 O420 1.261 . S
C402 O421 1.243 . S
C403 C402 1.503 . S
C403 C404 1.394 . S
C403 C408 1.373 . S
C404 C403 1.394 . S
C404 C405 1.380 . S
C404 H432 0.930 . S
C405 C404 1.380 . S
C405 C406 1.331 1_545 S
C405 H433 0.930 . S
C406 C405 1.331 1_565 S
C406 C407 1.344 . S
C407 C406 1.344 . S
C407 C408 1.396 1_565 S
C407 H434 0.929 . S
C408 C403 1.373 . S
C408 C407 1.396 1_545 S
C408 H435 0.929 . S
C409 O422 1.240 . S
C409 O423 1.289 . S
C410 O424 1.258 . S
C410 O425 1.256 . S
C411 La401 2.928 . S
C411 C412 1.503 . S
C411 O426 1.261 . S
C411 O427 1.243 . S
C412 C411 1.503 . S
C412 C413 1.394 . S
C412 C417 1.373 . S
C413 C412 1.394 . S
C413 C414 1.380 . S
C413 H436 0.930 . S
C414 C413 1.380 . S
C414 C415 1.376 . S
C414 H437 0.930 . S
C415 C414 1.376 . S
C415 C416 1.370 . S
C416 C415 1.370 . S
C416 C417 1.396 . S
C416 H438 0.929 . S
C417 C412 1.373 . S
C417 C416 1.396 . S
C417 H439 0.929 . S
C418 O428 1.240 . S
C418 O429 1.289 . S
C419 O430 1.258 . S
C419 O431 1.256 . S
O420 La400 2.521 . S
O420 C402 1.261 . S
O421 La400 2.628 . S
O421 C402 1.243 . S
O422 La400 2.554 . S
O422 C409 1.240 . S
O423 La400 2.757 . S
O423 La401 2.482 . S
O423 C409 1.289 . S
O424 La400 2.470 . S
O424 C410 1.258 . S
O425 La401 2.503 . S
O425 C410 1.256 . S
O426 La401 2.521 . S
O426 C411 1.261 . S
O427 La401 2.628 . S
O427 C411 1.243 . S
O428 La401 2.554 . S
O428 C418 1.240 . S
O429 La400 2.482 . S
O429 La401 2.757 . S
O429 C418 1.289 . S
O430 La401 2.470 . S
O430 C419 1.258 . S
O431 La400 2.503 . S
O431 C419 1.256 . S
H432 C404 0.930 . S
H433 C405 0.930 . S
H434 C407 0.929 . S
H435 C408 0.929 . S
H436 C413 0.930 . S
H437 C414 0.930 . S
H438 C416 0.929 . S
H439 C417 0.929 . S
La440 C442 2.928 . S
La440 O460 2.521 . S
La440 O461 2.628 . S
La440 O462 2.554 . S
La440 O463 2.757 . S
La440 O464 2.470 . S
La440 O469 2.482 . S
La440 O471 2.503 . S
La441 C451 2.928 . S
La441 O463 2.482 . S
La441 O465 2.503 . S
La441 O466 2.521 . S
La441 O467 2.628 . S
La441 O468 2.554 . S
La441 O469 2.757 . S
La441 O470 2.470 . S
C442 La440 2.928 . S
C442 C443 1.503 . S
C442 O460 1.261 . S
C442 O461 1.243 . S
C443 C442 1.503 . S
C443 C444 1.394 . S
C443 C448 1.373 . S
C444 C443 1.394 . S
C444 C445 1.380 . S
C444 H472 0.930 . S
C445 C444 1.380 . S
C445 C446 1.312 1_655 S
C445 H473 0.930 . S
C446 C445 1.312 1_455 S
C446 C447 1.409 . S
C447 C446 1.409 . S
C447 C448 1.396 1_455 S
C447 H474 0.929 . S
C448 C443 1.373 . S
C448 C447 1.396 1_655 S
C448 H475 0.929 . S
C449 O462 1.240 . S
C449 O463 1.289 . S
C450 O464 1.258 . S
C450 O465 1.256 . S
C451 La441 2.928 . S
C451 C452 1.503 . S
C451 O466 1.261 . S
C451 O467 1.243 . S
C452 C451 1.503 . S
C452 C453 1.394 . S
C452 C457 1.373 . S
C453 C452 1.394 . S
C453 C454 1.380 . S
C453 H476 0.930 . S
C454 C453 1.380 . S
C454 C455 1.376 . S
C454 H477 0.930 . S
C455 C454 1.376 . S
C455 C456 1.370 . S
C456 C455 1.370 . S
C456 C457 1.396 . S
C456 H478 0.929 . S
C457 C452 1.373 . S
C457 C456 1.396 . S
C457 H479 0.929 . S
C458 O468 1.240 . S
C458 O469 1.289 . S
C459 O470 1.258 . S
C459 O471 1.256 . S
O460 La440 2.521 . S
O460 C442 1.261 . S
O461 La440 2.628 . S
O461 C442 1.243 . S
O462 La440 2.554 . S
O462 C449 1.240 . S
O463 La440 2.757 . S
O463 La441 2.482 . S
O463 C449 1.289 . S
O464 La440 2.470 . S
O464 C450 1.258 . S
O465 La441 2.503 . S
O465 C450 1.256 . S
O466 La441 2.521 . S
O466 C451 1.261 . S
O467 La441 2.628 . S
O467 C451 1.243 . S
O468 La441 2.554 . S
O468 C458 1.240 . S
O469 La440 2.482 . S
O469 La441 2.757 . S
O469 C458 1.289 . S
O470 La441 2.470 . S
O470 C459 1.258 . S
O471 La440 2.503 . S
O471 C459 1.256 . S
H472 C444 0.930 . S
H473 C445 0.930 . S
H474 C447 0.929 . S
H475 C448 0.929 . S
H476 C453 0.930 . S
H477 C454 0.930 . S
H478 C456 0.929 . S
H479 C457 0.929 . S
La480 C482 2.928 . S
La480 O500 2.521 . S
La480 O501 2.628 . S
La480 O502 2.554 . S
La480 O503 2.757 . S
La480 O504 2.470 . S
La480 O509 2.482 . S
La480 O511 2.503 . S
La481 C491 2.928 . S
La481 O503 2.482 . S
La481 O505 2.503 . S
La481 O506 2.521 . S
La481 O507 2.628 . S
La481 O508 2.554 . S
La481 O509 2.757 . S
La481 O510 2.470 . S
C482 La480 2.928 . S
C482 C483 1.503 . S
C482 O500 1.261 . S
C482 O501 1.243 . S
C483 C482 1.503 . S
C483 C484 1.394 . S
C483 C488 1.373 . S
C484 C483 1.394 . S
C484 C485 1.380 . S
C484 H512 0.930 . S
C485 C484 1.380 . S
C485 C486 1.376 . S
C485 H513 0.930 . S
C486 C485 1.376 . S
C486 C487 1.370 . S
C487 C486 1.370 . S
C487 C488 1.396 . S
C487 H514 0.929 . S
C488 C483 1.373 . S
C488 C487 1.396 . S
C488 H515 0.929 . S
C489 O502 1.240 . S
C489 O503 1.289 . S
C490 O504 1.258 . S
C490 O505 1.256 . S
C491 La481 2.928 . S
C491 C492 1.503 . S
C491 O506 1.261 . S
C491 O507 1.243 . S
C492 C491 1.503 . S
C492 C493 1.394 . S
C492 C497 1.373 . S
C493 C492 1.394 . S
C493 C494 1.380 . S
C493 H516 0.930 . S
C494 C493 1.380 . S
C494 C495 1.376 . S
C494 H517 0.930 . S
C495 C494 1.376 . S
C495 C496 1.370 . S
C496 C495 1.370 . S
C496 C497 1.396 . S
C496 H518 0.929 . S
C497 C492 1.373 . S
C497 C496 1.396 . S
C497 H519 0.929 . S
C498 O508 1.240 . S
C498 O509 1.289 . S
C499 O510 1.258 . S
C499 O511 1.256 . S
O500 La480 2.521 . S
O500 C482 1.261 . S
O501 La480 2.628 . S
O501 C482 1.243 . S
O502 La480 2.554 . S
O502 C489 1.240 . S
O503 La480 2.757 . S
O503 La481 2.482 . S
O503 C489 1.289 . S
O504 La480 2.470 . S
O504 C490 1.258 . S
O505 La481 2.503 . S
O505 C490 1.256 . S
O506 La481 2.521 . S
O506 C491 1.261 . S
O507 La481 2.628 . S
O507 C491 1.243 . S
O508 La481 2.554 . S
O508 C498 1.240 . S
O509 La480 2.482 . S
O509 La481 2.757 . S
O509 C498 1.289 . S
O510 La481 2.470 . S
O510 C499 1.258 . S
O511 La480 2.503 . S
O511 C499 1.256 . S
H512 C484 0.930 . S
H513 C485 0.930 . S
H514 C487 0.929 . S
H515 C488 0.929 . S
H516 C493 0.930 . S
H517 C494 0.930 . S
H518 C496 0.929 . S
H519 C497 0.929 . S
La520 C522 2.928 . S
La520 O540 2.521 . S
La520 O541 2.628 . S
La520 O542 2.554 . S
La520 O543 2.757 . S
La520 O544 2.470 . S
La520 O549 2.482 . S
La520 O551 2.503 . S
La521 C531 2.928 . S
La521 O543 2.482 . S
La521 O545 2.503 . S
La521 O546 2.521 . S
La521 O547 2.628 . S
La521 O548 2.554 . S
La521 O549 2.757 . S
La521 O550 2.470 . S
C522 La520 2.928 . S
C522 C523 1.503 . S
C522 O540 1.261 . S
C522 O541 1.243 . S
C523 C522 1.503 . S
C523 C524 1.394 . S
C523 C528 1.373 . S
C524 C523 1.394 . S
C524 C525 1.380 . S
C524 H552 0.930 . S
C525 C524 1.380 . S
C525 C526 1.376 . S
C525 H553 0.930 . S
C526 C525 1.376 . S
C526 C527 1.370 . S
C527 C526 1.370 . S
C527 C528 1.396 . S
C527 H554 0.929 . S
C528 C523 1.373 . S
C528 C527 1.396 . S
C528 H555 0.929 . S
C529 O542 1.240 . S
C529 O543 1.289 . S
C530 O544 1.258 . S
C530 O545 1.256 . S
C531 La521 2.928 . S
C531 C532 1.503 . S
C531 O546 1.261 . S
C531 O547 1.243 . S
C532 C531 1.503 . S
C532 C533 1.394 . S
C532 C537 1.373 . S
C533 C532 1.394 . S
C533 C534 1.380 . S
C533 H556 0.930 . S
C534 C533 1.380 . S
C534 C535 1.376 . S
C534 H557 0.930 . S
C535 C534 1.376 . S
C535 C536 1.370 . S
C536 C535 1.370 . S
C536 C537 1.396 . S
C536 H558 0.929 . S
C537 C532 1.373 . S
C537 C536 1.396 . S
C537 H559 0.929 . S
C538 O548 1.240 . S
C538 O549 1.289 . S
C539 O550 1.258 . S
C539 O551 1.256 . S
O540 La520 2.521 . S
O540 C522 1.261 . S
O541 La520 2.628 . S
O541 C522 1.243 . S
O542 La520 2.554 . S
O542 C529 1.240 . S
O543 La520 2.757 . S
O543 La521 2.482 . S
O543 C529 1.289 . S
O544 La520 2.470 . S
O544 C530 1.258 . S
O545 La521 2.503 . S
O545 C530 1.256 . S
O546 La521 2.521 . S
O546 C531 1.261 . S
O547 La521 2.628 . S
O547 C531 1.243 . S
O548 La521 2.554 . S
O548 C538 1.240 . S
O549 La520 2.482 . S
O549 La521 2.757 . S
O549 C538 1.289 . S
O550 La521 2.470 . S
O550 C539 1.258 . S
O551 La520 2.503 . S
O551 C539 1.256 . S
H552 C524 0.930 . S
H553 C525 0.930 . S
H554 C527 0.929 . S
H555 C528 0.929 . S
H556 C533 0.930 . S
H557 C534 0.930 . S
H558 C536 0.929 . S
H559 C537 0.929 . S
La560 C562 2.928 . S
La560 O580 2.521 . S
La560 O581 2.628 . S
La560 O582 2.554 . S
La560 O583 2.757 . S
La560 O584 2.470 . S
La560 O589 2.482 . S
La560 O591 2.503 . S
La561 C571 2.928 . S
La561 O583 2.482 . S
La561 O585 2.503 . S
La561 O586 2.521 . S
La561 O587 2.628 . S
La561 O588 2.554 . S
La561 O589 2.757 . S
La561 O590 2.470 . S
C562 La560 2.928 . S
C562 C563 1.503 . S
C562 O580 1.261 . S
C562 O581 1.243 . S
C563 C562 1.503 . S
C563 C564 1.394 . S
C563 C568 1.373 . S
C564 C563 1.394 . S
C564 C565 1.380 . S
C564 H592 0.930 . S
C565 C564 1.380 . S
C565 C566 1.376 . S
C565 H593 0.930 . S
C566 C565 1.376 . S
C566 C567 1.370 . S
C567 C566 1.370 . S
C567 C568 1.396 . S
C567 H594 0.929 . S
C568 C563 1.373 . S
C568 C567 1.396 . S
C568 H595 0.929 . S
C569 O582 1.240 . S
C569 O583 1.289 . S
C570 O584 1.258 . S
C570 O585 1.256 . S
C571 La561 2.928 . S
C571 C572 1.503 . S
C571 O586 1.261 . S
C571 O587 1.243 . S
C572 C571 1.503 . S
C572 C573 1.394 . S
C572 C577 1.373 . S
C573 C572 1.394 . S
C573 C574 1.380 . S
C573 H596 0.930 . S
C574 C573 1.380 . S
C574 C575 1.376 . S
C574 H597 0.930 . S
C575 C574 1.376 . S
C575 C576 1.370 . S
C576 C575 1.370 . S
C576 C577 1.396 . S
C576 H598 0.929 . S
C577 C572 1.373 . S
C577 C576 1.396 . S
C577 H599 0.929 . S
C578 O588 1.240 . S
C578 O589 1.289 . S
C579 O590 1.258 . S
C579 O591 1.256 . S
O580 La560 2.521 . S
O580 C562 1.261 . S
O581 La560 2.628 . S
O581 C562 1.243 . S
O582 La560 2.554 . S
O582 C569 1.240 . S
O583 La560 2.757 . S
O583 La561 2.482 . S
O583 C569 1.289 . S
O584 La560 2.470 . S
O584 C570 1.258 . S
O585 La561 2.503 . S
O585 C570 1.256 . S
O586 La561 2.521 . S
O586 C571 1.261 . S
O587 La561 2.628 . S
O587 C571 1.243 . S
O588 La561 2.554 . S
O588 C578 1.240 . S
O589 La560 2.482 . S
O589 La561 2.757 . S
O589 C578 1.289 . S
O590 La561 2.470 . S
O590 C579 1.258 . S
O591 La560 2.503 . S
O591 C579 1.256 . S
H592 C564 0.930 . S
H593 C565 0.930 . S
H594 C567 0.929 . S
H595 C568 0.929 . S
H596 C573 0.930 . S
H597 C574 0.930 . S
H598 C576 0.929 . S
H599 C577 0.929 . S
La600 C602 2.928 . S
La600 O620 2.521 . S
La600 O621 2.628 . S
La600 O622 2.554 . S
La600 O623 2.757 . S
La600 O624 2.470 . S
La600 O629 2.482 . S
La600 O631 2.503 . S
La601 C611 2.928 . S
La601 O623 2.482 . S
La601 O625 2.503 . S
La601 O626 2.521 . S
La601 O627 2.628 . S
La601 O628 2.554 . S
La601 O629 2.757 . S
La601 O630 2.470 . S
C602 La600 2.928 . S
C602 C603 1.503 . S
C602 O620 1.261 . S
C602 O621 1.243 . S
C603 C602 1.503 . S
C603 C604 1.394 . S
C603 C608 1.373 . S
C604 C603 1.394 . S
C604 C605 1.380 . S
C604 H632 0.930 . S
C605 C604 1.380 . S
C605 C606 1.376 . S
C605 H633 0.930 . S
C606 C605 1.376 . S
C606 C607 1.370 . S
C607 C606 1.370 . S
C607 C608 1.396 . S
C607 H634 0.929 . S
C608 C603 1.373 . S
C608 C607 1.396 . S
C608 H635 0.929 . S
C609 O622 1.240 . S
C609 O623 1.289 . S
C610 O624 1.258 . S
C610 O625 1.256 . S
C611 La601 2.928 . S
C611 C612 1.503 . S
C611 O626 1.261 . S
C611 O627 1.243 . S
C612 C611 1.503 . S
C612 C613 1.394 . S
C612 C617 1.373 . S
C613 C612 1.394 . S
C613 C614 1.380 . S
C613 H636 0.930 . S
C614 C613 1.380 . S
C614 C615 1.376 . S
C614 H637 0.930 . S
C615 C614 1.376 . S
C615 C616 1.370 . S
C616 C615 1.370 . S
C616 C617 1.396 . S
C616 H638 0.929 . S
C617 C612 1.373 . S
C617 C616 1.396 . S
C617 H639 0.929 . S
C618 O628 1.240 . S
C618 O629 1.289 . S
C619 O630 1.258 . S
C619 O631 1.256 . S
O620 La600 2.521 . S
O620 C602 1.261 . S
O621 La600 2.628 . S
O621 C602 1.243 . S
O622 La600 2.554 . S
O622 C609 1.240 . S
O623 La600 2.757 . S
O623 La601 2.482 . S
O623 C609 1.289 . S
O624 La600 2.470 . S
O624 C610 1.258 . S
O625 La601 2.503 . S
O625 C610 1.256 . S
O626 La601 2.521 . S
O626 C611 1.261 . S
O627 La601 2.628 . S
O627 C611 1.243 . S
O628 La601 2.554 . S
O628 C618 1.240 . S
O629 La600 2.482 . S
O629 La601 2.757 . S
O629 C618 1.289 . S
O630 La601 2.470 . S
O630 C619 1.258 . S
O631 La600 2.503 . S
O631 C619 1.256 . S
H632 C604 0.930 . S
H633 C605 0.930 . S
H634 C607 0.929 . S
H635 C608 0.929 . S
H636 C613 0.930 . S
H637 C614 0.930 . S
H638 C616 0.929 . S
H639 C617 0.929 . S
La640 C642 2.928 . S
La640 O660 2.521 . S
La640 O661 2.628 . S
La640 O662 2.554 . S
La640 O663 2.757 . S
La640 O664 2.470 . S
La640 O669 2.482 . S
La640 O671 2.503 . S
La641 C651 2.928 . S
La641 O663 2.482 . S
La641 O665 2.503 . S
La641 O666 2.521 . S
La641 O667 2.628 . S
La641 O668 2.554 . S
La641 O669 2.757 . S
La641 O670 2.470 . S
C642 La640 2.928 . S
C642 C643 1.503 . S
C642 O660 1.261 . S
C642 O661 1.243 . S
C643 C642 1.503 . S
C643 C644 1.394 . S
C643 C648 1.373 . S
C644 C643 1.394 . S
C644 C645 1.380 . S
C644 H672 0.930 . S
C645 C644 1.380 . S
C645 C646 1.376 . S
C645 H673 0.930 . S
C646 C645 1.376 . S
C646 C647 1.370 . S
C647 C646 1.370 . S
C647 C648 1.396 . S
C647 H674 0.929 . S
C648 C643 1.373 . S
C648 C647 1.396 . S
C648 H675 0.929 . S
C649 O662 1.240 . S
C649 O663 1.289 . S
C650 O664 1.258 . S
C650 O665 1.256 . S
C651 La641 2.928 . S
C651 C652 1.503 . S
C651 O666 1.261 . S
C651 O667 1.243 . S
C652 C651 1.503 . S
C652 C653 1.394 . S
C652 C657 1.373 . S
C653 C652 1.394 . S
C653 C654 1.380 . S
C653 H676 0.930 . S
C654 C653 1.380 . S
C654 C655 1.376 . S
C654 H677 0.930 . S
C655 C654 1.376 . S
C655 C656 1.370 . S
C656 C655 1.370 . S
C656 C657 1.396 . S
C656 H678 0.929 . S
C657 C652 1.373 . S
C657 C656 1.396 . S
C657 H679 0.929 . S
C658 O668 1.240 . S
C658 O669 1.289 . S
C659 O670 1.258 . S
C659 O671 1.256 . S
O660 La640 2.521 . S
O660 C642 1.261 . S
O661 La640 2.628 . S
O661 C642 1.243 . S
O662 La640 2.554 . S
O662 C649 1.240 . S
O663 La640 2.757 . S
O663 La641 2.482 . S
O663 C649 1.289 . S
O664 La640 2.470 . S
O664 C650 1.258 . S
O665 La641 2.503 . S
O665 C650 1.256 . S
O666 La641 2.521 . S
O666 C651 1.261 . S
O667 La641 2.628 . S
O667 C651 1.243 . S
O668 La641 2.554 . S
O668 C658 1.240 . S
O669 La640 2.482 . S
O669 La641 2.757 . S
O669 C658 1.289 . S
O670 La641 2.470 . S
O670 C659 1.258 . S
O671 La640 2.503 . S
O671 C659 1.256 . S
H672 C644 0.930 . S
H673 C645 0.930 . S
H674 C647 0.929 . S
H675 C648 0.929 . S
H676 C653 0.930 . S
H677 C654 0.930 . S
H678 C656 0.929 . S
H679 C657 0.929 . S
La680 C682 2.928 . S
La680 O700 2.521 . S
La680 O701 2.628 . S
La680 O702 2.554 . S
La680 O703 2.757 . S
La680 O704 2.470 . S
La680 O709 2.482 . S
La680 O711 2.503 . S
La681 C691 2.928 . S
La681 O703 2.482 . S
La681 O705 2.503 . S
La681 O706 2.521 . S
La681 O707 2.628 . S
La681 O708 2.554 . S
La681 O709 2.757 . S
La681 O710 2.470 . S
C682 La680 2.928 . S
C682 C683 1.503 . S
C682 O700 1.261 . S
C682 O701 1.243 . S
C683 C682 1.503 . S
C683 C684 1.394 . S
C683 C688 1.373 . S
C684 C683 1.394 . S
C684 C685 1.380 . S
C684 H712 0.930 . S
C685 C684 1.380 . S
C685 C686 1.376 . S
C685 H713 0.930 . S
C686 C685 1.376 . S
C686 C687 1.370 . S
C687 C686 1.370 . S
C687 C688 1.396 . S
C687 H714 0.929 . S
C688 C683 1.373 . S
C688 C687 1.396 . S
C688 H715 0.929 . S
C689 O702 1.240 . S
C689 O703 1.289 . S
C690 O704 1.258 . S
C690 O705 1.256 . S
C691 La681 2.928 . S
C691 C692 1.503 . S
C691 O706 1.261 . S
C691 O707 1.243 . S
C692 C691 1.503 . S
C692 C693 1.394 . S
C692 C697 1.373 . S
C693 C692 1.394 . S
C693 C694 1.380 . S
C693 H716 0.930 . S
C694 C693 1.380 . S
C694 C695 1.376 . S
C694 H717 0.930 . S
C695 C694 1.376 . S
C695 C696 1.370 . S
C696 C695 1.370 . S
C696 C697 1.396 . S
C696 H718 0.929 . S
C697 C692 1.373 . S
C697 C696 1.396 . S
C697 H719 0.929 . S
C698 O708 1.240 . S
C698 O709 1.289 . S
C699 O710 1.258 . S
C699 O711 1.256 . S
O700 La680 2.521 . S
O700 C682 1.261 . S
O701 La680 2.628 . S
O701 C682 1.243 . S
O702 La680 2.554 . S
O702 C689 1.240 . S
O703 La680 2.757 . S
O703 La681 2.482 . S
O703 C689 1.289 . S
O704 La680 2.470 . S
O704 C690 1.258 . S
O705 La681 2.503 . S
O705 C690 1.256 . S
O706 La681 2.521 . S
O706 C691 1.261 . S
O707 La681 2.628 . S
O707 C691 1.243 . S
O708 La681 2.554 . S
O708 C698 1.240 . S
O709 La680 2.482 . S
O709 La681 2.757 . S
O709 C698 1.289 . S
O710 La681 2.470 . S
O710 C699 1.258 . S
O711 La680 2.503 . S
O711 C699 1.256 . S
H712 C684 0.930 . S
H713 C685 0.930 . S
H714 C687 0.929 . S
H715 C688 0.929 . S
H716 C693 0.930 . S
H717 C694 0.930 . S
H718 C696 0.929 . S
H719 C697 0.929 . S
La720 C722 2.928 . S
La720 O740 2.521 . S
La720 O741 2.628 . S
La720 O742 2.554 . S
La720 O743 2.757 . S
La720 O744 2.470 . S
La720 O749 2.482 . S
La720 O751 2.503 . S
La721 C731 2.928 . S
La721 O743 2.482 . S
La721 O745 2.503 . S
La721 O746 2.521 . S
La721 O747 2.628 . S
La721 O748 2.554 . S
La721 O749 2.757 . S
La721 O750 2.470 . S
C722 La720 2.928 . S
C722 C723 1.503 . S
C722 O740 1.261 . S
C722 O741 1.243 . S
C723 C722 1.503 . S
C723 C724 1.394 . S
C723 C728 1.373 . S
C724 C723 1.394 . S
C724 C725 1.380 . S
C724 H752 0.930 . S
C725 C724 1.380 . S
C725 C726 1.376 . S
C725 H753 0.930 . S
C726 C725 1.376 . S
C726 C727 1.370 . S
C727 C726 1.370 . S
C727 C728 1.396 . S
C727 H754 0.929 . S
C728 C723 1.373 . S
C728 C727 1.396 . S
C728 H755 0.929 . S
C729 O742 1.240 . S
C729 O743 1.289 . S
C730 O744 1.258 . S
C730 O745 1.256 . S
C731 La721 2.928 . S
C731 C732 1.503 . S
C731 O746 1.261 . S
C731 O747 1.243 . S
C732 C731 1.503 . S
C732 C733 1.394 . S
C732 C737 1.373 . S
C733 C732 1.394 . S
C733 C734 1.380 . S
C733 H756 0.930 . S
C734 C733 1.380 . S
C734 C735 1.376 . S
C734 H757 0.930 . S
C735 C734 1.376 . S
C735 C736 1.370 . S
C736 C735 1.370 . S
C736 C737 1.396 . S
C736 H758 0.929 . S
C737 C732 1.373 . S
C737 C736 1.396 . S
C737 H759 0.929 . S
C738 O748 1.240 . S
C738 O749 1.289 . S
C739 O750 1.258 . S
C739 O751 1.256 . S
O740 La720 2.521 . S
O740 C722 1.261 . S
O741 La720 2.628 . S
O741 C722 1.243 . S
O742 La720 2.554 . S
O742 C729 1.240 . S
O743 La720 2.757 . S
O743 La721 2.482 . S
O743 C729 1.289 . S
O744 La720 2.470 . S
O744 C730 1.258 . S
O745 La721 2.503 . S
O745 C730 1.256 . S
O746 La721 2.521 . S
O746 C731 1.261 . S
O747 La721 2.628 . S
O747 C731 1.243 . S
O748 La721 2.554 . S
O748 C738 1.240 . S
O749 La720 2.482 . S
O749 La721 2.757 . S
O749 C738 1.289 . S
O750 La721 2.470 . S
O750 C739 1.258 . S
O751 La720 2.503 . S
O751 C739 1.256 . S
H752 C724 0.930 . S
H753 C725 0.930 . S
H754 C727 0.929 . S
H755 C728 0.929 . S
H756 C733 0.930 . S
H757 C734 0.930 . S
H758 C736 0.929 . S
H759 C737 0.929 . S
La760 C762 2.928 . S
La760 O780 2.521 . S
La760 O781 2.628 . S
La760 O782 2.554 . S
La760 O783 2.757 . S
La760 O784 2.470 . S
La760 O789 2.482 . S
La760 O791 2.503 . S
La761 C771 2.928 . S
La761 O783 2.482 . S
La761 O785 2.503 . S
La761 O786 2.521 . S
La761 O787 2.628 . S
La761 O788 2.554 . S
La761 O789 2.757 . S
La761 O790 2.470 . S
C762 La760 2.928 . S
C762 C763 1.503 . S
C762 O780 1.261 . S
C762 O781 1.243 . S
C763 C762 1.503 . S
C763 C764 1.394 . S
C763 C768 1.373 . S
C764 C763 1.394 . S
C764 C765 1.380 . S
C764 H792 0.930 . S
C765 C764 1.380 . S
C765 C766 1.376 . S
C765 H793 0.930 . S
C766 C765 1.376 . S
C766 C767 1.370 . S
C767 C766 1.370 . S
C767 C768 1.396 . S
C767 H794 0.929 . S
C768 C763 1.373 . S
C768 C767 1.396 . S
C768 H795 0.929 . S
C769 O782 1.240 . S
C769 O783 1.289 . S
C770 O784 1.258 . S
C770 O785 1.256 . S
C771 La761 2.928 . S
C771 C772 1.503 . S
C771 O786 1.261 . S
C771 O787 1.243 . S
C772 C771 1.503 . S
C772 C773 1.394 . S
C772 C777 1.373 . S
C773 C772 1.394 . S
C773 C774 1.380 . S
C773 H796 0.930 . S
C774 C773 1.380 . S
C774 C775 1.376 . S
C774 H797 0.930 . S
C775 C774 1.376 . S
C775 C776 1.370 . S
C776 C775 1.370 . S
C776 C777 1.396 . S
C776 H798 0.929 . S
C777 C772 1.373 . S
C777 C776 1.396 . S
C777 H799 0.929 . S
C778 O788 1.240 . S
C778 O789 1.289 . S
C779 O790 1.258 . S
C779 O791 1.256 . S
O780 La760 2.521 . S
O780 C762 1.261 . S
O781 La760 2.628 . S
O781 C762 1.243 . S
O782 La760 2.554 . S
O782 C769 1.240 . S
O783 La760 2.757 . S
O783 La761 2.482 . S
O783 C769 1.289 . S
O784 La760 2.470 . S
O784 C770 1.258 . S
O785 La761 2.503 . S
O785 C770 1.256 . S
O786 La761 2.521 . S
O786 C771 1.261 . S
O787 La761 2.628 . S
O787 C771 1.243 . S
O788 La761 2.554 . S
O788 C778 1.240 . S
O789 La760 2.482 . S
O789 La761 2.757 . S
O789 C778 1.289 . S
O790 La761 2.470 . S
O790 C779 1.258 . S
O791 La760 2.503 . S
O791 C779 1.256 . S
H792 C764 0.930 . S
H793 C765 0.930 . S
H794 C767 0.929 . S
H795 C768 0.929 . S
H796 C773 0.930 . S
H797 C774 0.930 . S
H798 C776 0.929 . S
H799 C777 0.929 . S
La800 C802 2.928 . S
La800 O820 2.521 . S
La800 O821 2.628 . S
La800 O822 2.554 . S
La800 O823 2.757 . S
La800 O824 2.470 . S
La800 O829 2.482 . S
La800 O831 2.503 . S
La801 C811 2.928 . S
La801 O823 2.482 . S
La801 O825 2.503 . S
La801 O826 2.521 . S
La801 O827 2.628 . S
La801 O828 2.554 . S
La801 O829 2.757 . S
La801 O830 2.470 . S
C802 La800 2.928 . S
C802 C803 1.503 . S
C802 O820 1.261 . S
C802 O821 1.243 . S
C803 C802 1.503 . S
C803 C804 1.394 . S
C803 C808 1.373 . S
C804 C803 1.394 . S
C804 C805 1.380 . S
C804 H832 0.930 . S
C805 C804 1.380 . S
C805 C806 1.376 . S
C805 H833 0.930 . S
C806 C805 1.376 . S
C806 C807 1.370 . S
C807 C806 1.370 . S
C807 C808 1.396 . S
C807 H834 0.929 . S
C808 C803 1.373 . S
C808 C807 1.396 . S
C808 H835 0.929 . S
C809 O822 1.240 . S
C809 O823 1.289 . S
C810 O824 1.258 . S
C810 O825 1.256 . S
C811 La801 2.928 . S
C811 C812 1.503 . S
C811 O826 1.261 . S
C811 O827 1.243 . S
C812 C811 1.503 . S
C812 C813 1.394 . S
C812 C817 1.373 . S
C813 C812 1.394 . S
C813 C814 1.380 . S
C813 H836 0.930 . S
C814 C813 1.380 . S
C814 C815 1.376 . S
C814 H837 0.930 . S
C815 C814 1.376 . S
C815 C816 1.370 . S
C816 C815 1.370 . S
C816 C817 1.396 . S
C816 H838 0.929 . S
C817 C812 1.373 . S
C817 C816 1.396 . S
C817 H839 0.929 . S
C818 O828 1.240 . S
C818 O829 1.289 . S
C819 O830 1.258 . S
C819 O831 1.256 . S
O820 La800 2.521 . S
O820 C802 1.261 . S
O821 La800 2.628 . S
O821 C802 1.243 . S
O822 La800 2.554 . S
O822 C809 1.240 . S
O823 La800 2.757 . S
O823 La801 2.482 . S
O823 C809 1.289 . S
O824 La800 2.470 . S
O824 C810 1.258 . S
O825 La801 2.503 . S
O825 C810 1.256 . S
O826 La801 2.521 . S
O826 C811 1.261 . S
O827 La801 2.628 . S
O827 C811 1.243 . S
O828 La801 2.554 . S
O828 C818 1.240 . S
O829 La800 2.482 . S
O829 La801 2.757 . S
O829 C818 1.289 . S
O830 La801 2.470 . S
O830 C819 1.258 . S
O831 La800 2.503 . S
O831 C819 1.256 . S
H832 C804 0.930 . S
H833 C805 0.930 . S
H834 C807 0.929 . S
H835 C808 0.929 . S
H836 C813 0.930 . S
H837 C814 0.930 . S
H838 C816 0.929 . S
H839 C817 0.929 . S
La840 C842 2.928 . S
La840 O860 2.521 . S
La840 O861 2.628 . S
La840 O862 2.554 . S
La840 O863 2.757 . S
La840 O864 2.470 . S
La840 O869 2.482 . S
La840 O871 2.503 . S
La841 C851 2.928 . S
La841 O863 2.482 . S
La841 O865 2.503 . S
La841 O866 2.521 . S
La841 O867 2.628 . S
La841 O868 2.554 . S
La841 O869 2.757 . S
La841 O870 2.470 . S
C842 La840 2.928 . S
C842 C843 1.503 . S
C842 O860 1.261 . S
C842 O861 1.243 . S
C843 C842 1.503 . S
C843 C844 1.394 . S
C843 C848 1.373 . S
C844 C843 1.394 . S
C844 C845 1.380 . S
C844 H872 0.930 . S
C845 C844 1.380 . S
C845 C846 1.376 . S
C845 H873 0.930 . S
C846 C845 1.376 . S
C846 C847 1.370 . S
C847 C846 1.370 . S
C847 C848 1.396 . S
C847 H874 0.929 . S
C848 C843 1.373 . S
C848 C847 1.396 . S
C848 H875 0.929 . S
C849 O862 1.240 . S
C849 O863 1.289 . S
C850 O864 1.258 . S
C850 O865 1.256 . S
C851 La841 2.928 . S
C851 C852 1.503 . S
C851 O866 1.261 . S
C851 O867 1.243 . S
C852 C851 1.503 . S
C852 C853 1.394 . S
C852 C857 1.373 . S
C853 C852 1.394 . S
C853 C854 1.380 . S
C853 H876 0.930 . S
C854 C853 1.380 . S
C854 C855 1.376 . S
C854 H877 0.930 . S
C855 C854 1.376 . S
C855 C856 1.370 . S
C856 C855 1.370 . S
C856 C857 1.396 . S
C856 H878 0.929 . S
C857 C852 1.373 . S
C857 C856 1.396 . S
C857 H879 0.929 . S
C858 O868 1.240 . S
C858 O869 1.289 . S
C859 O870 1.258 . S
C859 O871 1.256 . S
O860 La840 2.521 . S
O860 C842 1.261 . S
O861 La840 2.628 . S
O861 C842 1.243 . S
O862 La840 2.554 . S
O862 C849 1.240 . S
O863 La840 2.757 . S
O863 La841 2.482 . S
O863 C849 1.289 . S
O864 La840 2.470 . S
O864 C850 1.258 . S
O865 La841 2.503 . S
O865 C850 1.256 . S
O866 La841 2.521 . S
O866 C851 1.261 . S
O867 La841 2.628 . S
O867 C851 1.243 . S
O868 La841 2.554 . S
O868 C858 1.240 . S
O869 La840 2.482 . S
O869 La841 2.757 . S
O869 C858 1.289 . S
O870 La841 2.470 . S
O870 C859 1.258 . S
O871 La840 2.503 . S
O871 C859 1.256 . S
H872 C844 0.930 . S
H873 C845 0.930 . S
H874 C847 0.929 . S
H875 C848 0.929 . S
H876 C853 0.930 . S
H877 C854 0.930 . S
H878 C856 0.929 . S
H879 C857 0.929 . S
La880 C882 2.928 . S
La880 O900 2.521 . S
La880 O901 2.628 . S
La880 O902 2.554 . S
La880 O903 2.757 . S
La880 O904 2.470 . S
La880 O909 2.482 . S
La880 O911 2.503 . S
La881 C891 2.928 . S
La881 O903 2.482 . S
La881 O905 2.503 . S
La881 O906 2.521 . S
La881 O907 2.628 . S
La881 O908 2.554 . S
La881 O909 2.757 . S
La881 O910 2.470 . S
C882 La880 2.928 . S
C882 C883 1.503 . S
C882 O900 1.261 . S
C882 O901 1.243 . S
C883 C882 1.503 . S
C883 C884 1.394 . S
C883 C888 1.373 . S
C884 C883 1.394 . S
C884 C885 1.380 . S
C884 H912 0.930 . S
C885 C884 1.380 . S
C885 C886 1.376 . S
C885 H913 0.930 . S
C886 C885 1.376 . S
C886 C887 1.370 . S
C887 C886 1.370 . S
C887 C888 1.396 . S
C887 H914 0.929 . S
C888 C883 1.373 . S
C888 C887 1.396 . S
C888 H915 0.929 . S
C889 O902 1.240 . S
C889 O903 1.289 . S
C890 O904 1.258 . S
C890 O905 1.256 . S
C891 La881 2.928 . S
C891 C892 1.503 . S
C891 O906 1.261 . S
C891 O907 1.243 . S
C892 C891 1.503 . S
C892 C893 1.394 . S
C892 C897 1.373 . S
C893 C892 1.394 . S
C893 C894 1.380 . S
C893 H916 0.930 . S
C894 C893 1.380 . S
C894 C895 1.376 . S
C894 H917 0.930 . S
C895 C894 1.376 . S
C895 C896 1.370 . S
C896 C895 1.370 . S
C896 C897 1.396 . S
C896 H918 0.929 . S
C897 C892 1.373 . S
C897 C896 1.396 . S
C897 H919 0.929 . S
C898 O908 1.240 . S
C898 O909 1.289 . S
C899 O910 1.258 . S
C899 O911 1.256 . S
O900 La880 2.521 . S
O900 C882 1.261 . S
O901 La880 2.628 . S
O901 C882 1.243 . S
O902 La880 2.554 . S
O902 C889 1.240 . S
O903 La880 2.757 . S
O903 La881 2.482 . S
O903 C889 1.289 . S
O904 La880 2.470 . S
O904 C890 1.258 . S
O905 La881 2.503 . S
O905 C890 1.256 . S
O906 La881 2.521 . S
O906 C891 1.261 . S
O907 La881 2.628 . S
O907 C891 1.243 . S
O908 La881 2.554 . S
O908 C898 1.240 . S
O909 La880 2.482 . S
O909 La881 2.757 . S
O909 C898 1.289 . S
O910 La881 2.470 . S
O910 C899 1.258 . S
O911 La880 2.503 . S
O911 C899 1.256 . S
H912 C884 0.930 . S
H913 C885 0.930 . S
H914 C887 0.929 . S
H915 C888 0.929 . S
H916 C893 0.930 . S
H917 C894 0.930 . S
H918 C896 0.929 . S
H919 C897 0.929 . S
La920 C922 2.928 . S
La920 O940 2.521 . S
La920 O941 2.628 . S
La920 O942 2.554 . S
La920 O943 2.757 . S
La920 O944 2.470 . S
La920 O949 2.482 . S
La920 O951 2.503 . S
La921 C931 2.928 . S
La921 O943 2.482 . S
La921 O945 2.503 . S
La921 O946 2.521 . S
La921 O947 2.628 . S
La921 O948 2.554 . S
La921 O949 2.757 . S
La921 O950 2.470 . S
C922 La920 2.928 . S
C922 C923 1.503 . S
C922 O940 1.261 . S
C922 O941 1.243 . S
C923 C922 1.503 . S
C923 C924 1.394 . S
C923 C928 1.373 . S
C924 C923 1.394 . S
C924 C925 1.380 . S
C924 H952 0.930 . S
C925 C924 1.380 . S
C925 C926 1.376 . S
C925 H953 0.930 . S
C926 C925 1.376 . S
C926 C927 1.370 . S
C927 C926 1.370 . S
C927 C928 1.396 . S
C927 H954 0.929 . S
C928 C923 1.373 . S
C928 C927 1.396 . S
C928 H955 0.929 . S
C929 O942 1.240 . S
C929 O943 1.289 . S
C930 O944 1.258 . S
C930 O945 1.256 . S
C931 La921 2.928 . S
C931 C932 1.503 . S
C931 O946 1.261 . S
C931 O947 1.243 . S
C932 C931 1.503 . S
C932 C933 1.394 . S
C932 C937 1.373 . S
C933 C932 1.394 . S
C933 C934 1.380 . S
C933 H956 0.930 . S
C934 C933 1.380 . S
C934 C935 1.376 . S
C934 H957 0.930 . S
C935 C934 1.376 . S
C935 C936 1.370 . S
C936 C935 1.370 . S
C936 C937 1.396 . S
C936 H958 0.929 . S
C937 C932 1.373 . S
C937 C936 1.396 . S
C937 H959 0.929 . S
C938 O948 1.240 . S
C938 O949 1.289 . S
C939 O950 1.258 . S
C939 O951 1.256 . S
O940 La920 2.521 . S
O940 C922 1.261 . S
O941 La920 2.628 . S
O941 C922 1.243 . S
O942 La920 2.554 . S
O942 C929 1.240 . S
O943 La920 2.757 . S
O943 La921 2.482 . S
O943 C929 1.289 . S
O944 La920 2.470 . S
O944 C930 1.258 . S
O945 La921 2.503 . S
O945 C930 1.256 . S
O946 La921 2.521 . S
O946 C931 1.261 . S
O947 La921 2.628 . S
O947 C931 1.243 . S
O948 La921 2.554 . S
O948 C938 1.240 . S
O949 La920 2.482 . S
O949 La921 2.757 . S
O949 C938 1.289 . S
O950 La921 2.470 . S
O950 C939 1.258 . S
O951 La920 2.503 . S
O951 C939 1.256 . S
H952 C924 0.930 . S
H953 C925 0.930 . S
H954 C927 0.929 . S
H955 C928 0.929 . S
H956 C933 0.930 . S
H957 C934 0.930 . S
H958 C936 0.929 . S
H959 C937 0.929 . S
La960 C962 2.928 . S
La960 O980 2.521 . S
La960 O981 2.628 . S
La960 O982 2.554 . S
La960 O983 2.757 . S
La960 O984 2.470 . S
La960 O989 2.482 . S
La960 O991 2.503 . S
La961 C971 2.928 . S
La961 O983 2.482 . S
La961 O985 2.503 . S
La961 O986 2.521 . S
La961 O987 2.628 . S
La961 O988 2.554 . S
La961 O989 2.757 . S
La961 O990 2.470 . S
C962 La960 2.928 . S
C962 C963 1.503 . S
C962 O980 1.261 . S
C962 O981 1.243 . S
C963 C962 1.503 . S
C963 C964 1.394 . S
C963 C968 1.373 . S
C964 C963 1.394 . S
C964 C965 1.380 . S
C964 H992 0.930 . S
C965 C964 1.380 . S
C965 C966 1.376 . S
C965 H993 0.930 . S
C966 C965 1.376 . S
C966 C967 1.370 . S
C967 C966 1.370 . S
C967 C968 1.396 . S
C967 H994 0.929 . S
C968 C963 1.373 . S
C968 C967 1.396 . S
C968 H995 0.929 . S
C969 O982 1.240 . S
C969 O983 1.289 . S
C970 O984 1.258 . S
C970 O985 1.256 . S
C971 La961 2.928 . S
C971 C972 1.503 . S
C971 O986 1.261 . S
C971 O987 1.243 . S
C972 C971 1.503 . S
C972 C973 1.394 . S
C972 C977 1.373 . S
C973 C972 1.394 . S
C973 C974 1.380 . S
C973 H996 0.930 . S
C974 C973 1.380 . S
C974 C975 1.376 . S
C974 H997 0.930 . S
C975 C974 1.376 . S
C975 C976 1.370 . S
C976 C975 1.370 . S
C976 C977 1.396 . S
C976 H998 0.929 . S
C977 C972 1.373 . S
C977 C976 1.396 . S
C977 H999 0.929 . S
C978 O988 1.240 . S
C978 O989 1.289 . S
C979 O990 1.258 . S
C979 O991 1.256 . S
O980 La960 2.521 . S
O980 C962 1.261 . S
O981 La960 2.628 . S
O981 C962 1.243 . S
O982 La960 2.554 . S
O982 C969 1.240 . S
O983 La960 2.757 . S
O983 La961 2.482 . S
O983 C969 1.289 . S
O984 La960 2.470 . S
O984 C970 1.258 . S
O985 La961 2.503 . S
O985 C970 1.256 . S
O986 La961 2.521 . S
O986 C971 1.261 . S
O987 La961 2.628 . S
O987 C971 1.243 . S
O988 La961 2.554 . S
O988 C978 1.240 . S
O989 La960 2.482 . S
O989 La961 2.757 . S
O989 C978 1.289 . S
O990 La961 2.470 . S
O990 C979 1.258 . S
O991 La960 2.503 . S
O991 C979 1.256 . S
H992 C964 0.930 . S
H993 C965 0.930 . S
H994 C967 0.929 . S
H995 C968 0.929 . S
H996 C973 0.930 . S
H997 C974 0.930 . S
H998 C976 0.929 . S
H999 C977 0.929 . S
La1000 C1002 2.928 . S
La1000 O1020 2.521 . S
La1000 O1021 2.628 . S
La1000 O1022 2.554 . S
La1000 O1023 2.757 . S
La1000 O1024 2.470 . S
La1000 O1029 2.482 . S
La1000 O1031 2.503 . S
La1001 C1011 2.928 . S
La1001 O1023 2.482 . S
La1001 O1025 2.503 . S
La1001 O1026 2.521 . S
La1001 O1027 2.628 . S
La1001 O1028 2.554 . S
La1001 O1029 2.757 . S
La1001 O1030 2.470 . S
C1002 La1000 2.928 . S
C1002 C1003 1.503 . S
C1002 O1020 1.261 . S
C1002 O1021 1.243 . S
C1003 C1002 1.503 . S
C1003 C1004 1.394 . S
C1003 C1008 1.373 . S
C1004 C1003 1.394 . S
C1004 C1005 1.380 . S
C1004 H1032 0.930 . S
C1005 C1004 1.380 . S
C1005 C1006 1.376 . S
C1005 H1033 0.930 . S
C1006 C1005 1.376 . S
C1006 C1007 1.370 . S
C1007 C1006 1.370 . S
C1007 C1008 1.396 . S
C1007 H1034 0.929 . S
C1008 C1003 1.373 . S
C1008 C1007 1.396 . S
C1008 H1035 0.929 . S
C1009 O1022 1.240 . S
C1009 O1023 1.289 . S
C1010 O1024 1.258 . S
C1010 O1025 1.256 . S
C1011 La1001 2.928 . S
C1011 C1012 1.503 . S
C1011 O1026 1.261 . S
C1011 O1027 1.243 . S
C1012 C1011 1.503 . S
C1012 C1013 1.394 . S
C1012 C1017 1.373 . S
C1013 C1012 1.394 . S
C1013 C1014 1.380 . S
C1013 H1036 0.930 . S
C1014 C1013 1.380 . S
C1014 C1015 1.376 . S
C1014 H1037 0.930 . S
C1015 C1014 1.376 . S
C1015 C1016 1.370 . S
C1016 C1015 1.370 . S
C1016 C1017 1.396 . S
C1016 H1038 0.929 . S
C1017 C1012 1.373 . S
C1017 C1016 1.396 . S
C1017 H1039 0.929 . S
C1018 O1028 1.240 . S
C1018 O1029 1.289 . S
C1019 O1030 1.258 . S
C1019 O1031 1.256 . S
O1020 La1000 2.521 . S
O1020 C1002 1.261 . S
O1021 La1000 2.628 . S
O1021 C1002 1.243 . S
O1022 La1000 2.554 . S
O1022 C1009 1.240 . S
O1023 La1000 2.757 . S
O1023 La1001 2.482 . S
O1023 C1009 1.289 . S
O1024 La1000 2.470 . S
O1024 C1010 1.258 . S
O1025 La1001 2.503 . S
O1025 C1010 1.256 . S
O1026 La1001 2.521 . S
O1026 C1011 1.261 . S
O1027 La1001 2.628 . S
O1027 C1011 1.243 . S
O1028 La1001 2.554 . S
O1028 C1018 1.240 . S
O1029 La1000 2.482 . S
O1029 La1001 2.757 . S
O1029 C1018 1.289 . S
O1030 La1001 2.470 . S
O1030 C1019 1.258 . S
O1031 La1000 2.503 . S
O1031 C1019 1.256 . S
H1032 C1004 0.930 . S
H1033 C1005 0.930 . S
H1034 C1007 0.929 . S
H1035 C1008 0.929 . S
H1036 C1013 0.930 . S
H1037 C1014 0.930 . S
H1038 C1016 0.929 . S
H1039 C1017 0.929 . S
La1040 C1042 2.928 . S
La1040 O1060 2.521 . S
La1040 O1061 2.628 . S
La1040 O1062 2.554 . S
La1040 O1063 2.757 . S
La1040 O1064 2.470 . S
La1040 O1069 2.482 . S
La1040 O1071 2.503 . S
La1041 C1051 2.928 . S
La1041 O1063 2.482 . S
La1041 O1065 2.503 . S
La1041 O1066 2.521 . S
La1041 O1067 2.628 . S
La1041 O1068 2.554 . S
La1041 O1069 2.757 . S
La1041 O1070 2.470 . S
C1042 La1040 2.928 . S
C1042 C1043 1.503 . S
C1042 O1060 1.261 . S
C1042 O1061 1.243 . S
C1043 C1042 1.503 . S
C1043 C1044 1.394 . S
C1043 C1048 1.373 . S
C1044 C1043 1.394 . S
C1044 C1045 1.380 . S
C1044 H1072 0.930 . S
C1045 C1044 1.380 . S
C1045 C1046 1.376 . S
C1045 H1073 0.930 . S
C1046 C1045 1.376 . S
C1046 C1047 1.370 . S
C1047 C1046 1.370 . S
C1047 C1048 1.396 . S
C1047 H1074 0.929 . S
C1048 C1043 1.373 . S
C1048 C1047 1.396 . S
C1048 H1075 0.929 . S
C1049 O1062 1.240 . S
C1049 O1063 1.289 . S
C1050 O1064 1.258 . S
C1050 O1065 1.256 . S
C1051 La1041 2.928 . S
C1051 C1052 1.503 . S
C1051 O1066 1.261 . S
C1051 O1067 1.243 . S
C1052 C1051 1.503 . S
C1052 C1053 1.394 . S
C1052 C1057 1.373 . S
C1053 C1052 1.394 . S
C1053 C1054 1.380 . S
C1053 H1076 0.930 . S
C1054 C1053 1.380 . S
C1054 C1055 1.376 . S
C1054 H1077 0.930 . S
C1055 C1054 1.376 . S
C1055 C1056 1.370 . S
C1056 C1055 1.370 . S
C1056 C1057 1.396 . S
C1056 H1078 0.929 . S
C1057 C1052 1.373 . S
C1057 C1056 1.396 . S
C1057 H1079 0.929 . S
C1058 O1068 1.240 . S
C1058 O1069 1.289 . S
C1059 O1070 1.258 . S
C1059 O1071 1.256 . S
O1060 La1040 2.521 . S
O1060 C1042 1.261 . S
O1061 La1040 2.628 . S
O1061 C1042 1.243 . S
O1062 La1040 2.554 . S
O1062 C1049 1.240 . S
O1063 La1040 2.757 . S
O1063 La1041 2.482 . S
O1063 C1049 1.289 . S
O1064 La1040 2.470 . S
O1064 C1050 1.258 . S
O1065 La1041 2.503 . S
O1065 C1050 1.256 . S
O1066 La1041 2.521 . S
O1066 C1051 1.261 . S
O1067 La1041 2.628 . S
O1067 C1051 1.243 . S
O1068 La1041 2.554 . S
O1068 C1058 1.240 . S
O1069 La1040 2.482 . S
O1069 La1041 2.757 . S
O1069 C1058 1.289 . S
O1070 La1041 2.470 . S
O1070 C1059 1.258 . S
O1071 La1040 2.503 . S
O1071 C1059 1.256 . S
H1072 C1044 0.930 . S
H1073 C1045 0.930 . S
H1074 C1047 0.929 . S
H1075 C1048 0.929 . S
H1076 C1053 0.930 . S
H1077 C1054 0.930 . S
H1078 C1056 0.929 . S
H1079 C1057 0.929 . S
La1080 C1082 2.928 . S
La1080 O1100 2.521 . S
La1080 O1101 2.628 . S
La1080 O1102 2.554 . S
La1080 O1103 2.757 . S
La1080 O1104 2.470 . S
La1080 O1109 2.482 . S
La1080 O1111 2.503 . S
La1081 C1091 2.928 . S
La1081 O1103 2.482 . S
La1081 O1105 2.503 . S
La1081 O1106 2.521 . S
La1081 O1107 2.628 . S
La1081 O1108 2.554 . S
La1081 O1109 2.757 . S
La1081 O1110 2.470 . S
C1082 La1080 2.928 . S
C1082 C1083 1.503 . S
C1082 O1100 1.261 . S
C1082 O1101 1.243 . S
C1083 C1082 1.503 . S
C1083 C1084 1.394 . S
C1083 C1088 1.373 . S
C1084 C1083 1.394 . S
C1084 C1085 1.380 . S
C1084 H1112 0.930 . S
C1085 C1084 1.380 . S
C1085 C1086 1.376 . S
C1085 H1113 0.930 . S
C1086 C1085 1.376 . S
C1086 C1087 1.370 . S
C1087 C1086 1.370 . S
C1087 C1088 1.396 . S
C1087 H1114 0.929 . S
C1088 C1083 1.373 . S
C1088 C1087 1.396 . S
C1088 H1115 0.929 . S
C1089 O1102 1.240 . S
C1089 O1103 1.289 . S
C1090 O1104 1.258 . S
C1090 O1105 1.256 . S
C1091 La1081 2.928 . S
C1091 C1092 1.503 . S
C1091 O1106 1.261 . S
C1091 O1107 1.243 . S
C1092 C1091 1.503 . S
C1092 C1093 1.394 . S
C1092 C1097 1.373 . S
C1093 C1092 1.394 . S
C1093 C1094 1.380 . S
C1093 H1116 0.930 . S
C1094 C1093 1.380 . S
C1094 C1095 1.376 . S
C1094 H1117 0.930 . S
C1095 C1094 1.376 . S
C1095 C1096 1.370 . S
C1096 C1095 1.370 . S
C1096 C1097 1.396 . S
C1096 H1118 0.929 . S
C1097 C1092 1.373 . S
C1097 C1096 1.396 . S
C1097 H1119 0.929 . S
C1098 O1108 1.240 . S
C1098 O1109 1.289 . S
C1099 O1110 1.258 . S
C1099 O1111 1.256 . S
O1100 La1080 2.521 . S
O1100 C1082 1.261 . S
O1101 La1080 2.628 . S
O1101 C1082 1.243 . S
O1102 La1080 2.554 . S
O1102 C1089 1.240 . S
O1103 La1080 2.757 . S
O1103 La1081 2.482 . S
O1103 C1089 1.289 . S
O1104 La1080 2.470 . S
O1104 C1090 1.258 . S
O1105 La1081 2.503 . S
O1105 C1090 1.256 . S
O1106 La1081 2.521 . S
O1106 C1091 1.261 . S
O1107 La1081 2.628 . S
O1107 C1091 1.243 . S
O1108 La1081 2.554 . S
O1108 C1098 1.240 . S
O1109 La1080 2.482 . S
O1109 La1081 2.757 . S
O1109 C1098 1.289 . S
O1110 La1081 2.470 . S
O1110 C1099 1.258 . S
O1111 La1080 2.503 . S
O1111 C1099 1.256 . S
H1112 C1084 0.930 . S
H1113 C1085 0.930 . S
H1114 C1087 0.929 . S
H1115 C1088 0.929 . S
H1116 C1093 0.930 . S
H1117 C1094 0.930 . S
H1118 C1096 0.929 . S
H1119 C1097 0.929 . S
La1120 C1122 2.928 . S
La1120 O1140 2.521 . S
La1120 O1141 2.628 . S
La1120 O1142 2.554 . S
La1120 O1143 2.757 . S
La1120 O1144 2.470 . S
La1120 O1149 2.482 . S
La1120 O1151 2.503 . S
La1121 C1131 2.928 . S
La1121 O1143 2.482 . S
La1121 O1145 2.503 . S
La1121 O1146 2.521 . S
La1121 O1147 2.628 . S
La1121 O1148 2.554 . S
La1121 O1149 2.757 . S
La1121 O1150 2.470 . S
C1122 La1120 2.928 . S
C1122 C1123 1.503 . S
C1122 O1140 1.261 . S
C1122 O1141 1.243 . S
C1123 C1122 1.503 . S
C1123 C1124 1.394 . S
C1123 C1128 1.373 . S
C1124 C1123 1.394 . S
C1124 C1125 1.380 . S
C1124 H1152 0.930 . S
C1125 C1124 1.380 . S
C1125 C1126 1.376 . S
C1125 H1153 0.930 . S
C1126 C1125 1.376 . S
C1126 C1127 1.370 . S
C1127 C1126 1.370 . S
C1127 C1128 1.396 . S
C1127 H1154 0.929 . S
C1128 C1123 1.373 . S
C1128 C1127 1.396 . S
C1128 H1155 0.929 . S
C1129 O1142 1.240 . S
C1129 O1143 1.289 . S
C1130 O1144 1.258 . S
C1130 O1145 1.256 . S
C1131 La1121 2.928 . S
C1131 C1132 1.503 . S
C1131 O1146 1.261 . S
C1131 O1147 1.243 . S
C1132 C1131 1.503 . S
C1132 C1133 1.394 . S
C1132 C1137 1.373 . S
C1133 C1132 1.394 . S
C1133 C1134 1.380 . S
C1133 H1156 0.930 . S
C1134 C1133 1.380 . S
C1134 C1135 1.376 . S
C1134 H1157 0.930 . S
C1135 C1134 1.376 . S
C1135 C1136 1.370 . S
C1136 C1135 1.370 . S
C1136 C1137 1.396 . S
C1136 H1158 0.929 . S
C1137 C1132 1.373 . S
C1137 C1136 1.396 . S
C1137 H1159 0.929 . S
C1138 O1148 1.240 . S
C1138 O1149 1.289 . S
C1139 O1150 1.258 . S
C1139 O1151 1.256 . S
O1140 La1120 2.521 . S
O1140 C1122 1.261 . S
O1141 La1120 2.628 . S
O1141 C1122 1.243 . S
O1142 La1120 2.554 . S
O1142 C1129 1.240 . S
O1143 La1120 2.757 . S
O1143 La1121 2.482 . S
O1143 C1129 1.289 . S
O1144 La1120 2.470 . S
O1144 C1130 1.258 . S
O1145 La1121 2.503 . S
O1145 C1130 1.256 . S
O1146 La1121 2.521 . S
O1146 C1131 1.261 . S
O1147 La1121 2.628 . S
O1147 C1131 1.243 . S
O1148 La1121 2.554 . S
O1148 C1138 1.240 . S
O1149 La1120 2.482 . S
O1149 La1121 2.757 . S
O1149 C1138 1.289 . S
O1150 La1121 2.470 . S
O1150 C1139 1.258 . S
O1151 La1120 2.503 . S
O1151 C1139 1.256 . S
H1152 C1124 0.930 . S
H1153 C1125 0.930 . S
H1154 C1127 0.929 . S
H1155 C1128 0.929 . S
H1156 C1133 0.930 . S
H1157 C1134 0.930 . S
H1158 C1136 0.929 . S
H1159 C1137 0.929 . S
La1160 C1162 2.928 . S
La1160 O1180 2.521 . S
La1160 O1181 2.628 . S
La1160 O1182 2.554 . S
La1160 O1183 2.757 . S
La1160 O1184 2.470 . S
La1160 O1189 2.482 . S
La1160 O1191 2.503 . S
La1161 C1171 2.928 . S
La1161 O1183 2.482 . S
La1161 O1185 2.503 . S
La1161 O1186 2.521 . S
La1161 O1187 2.628 . S
La1161 O1188 2.554 . S
La1161 O1189 2.757 . S
La1161 O1190 2.470 . S
C1162 La1160 2.928 . S
C1162 C1163 1.503 . S
C1162 O1180 1.261 . S
C1162 O1181 1.243 . S
C1163 C1162 1.503 . S
C1163 C1164 1.394 . S
C1163 C1168 1.373 . S
C1164 C1163 1.394 . S
C1164 C1165 1.380 . S
C1164 H1192 0.930 . S
C1165 C1164 1.380 . S
C1165 C1166 1.376 . S
C1165 H1193 0.930 . S
C1166 C1165 1.376 . S
C1166 C1167 1.370 . S
C1167 C1166 1.370 . S
C1167 C1168 1.396 . S
C1167 H1194 0.929 . S
C1168 C1163 1.373 . S
C1168 C1167 1.396 . S
C1168 H1195 0.929 . S
C1169 O1182 1.240 . S
C1169 O1183 1.289 . S
C1170 O1184 1.258 . S
C1170 O1185 1.256 . S
C1171 La1161 2.928 . S
C1171 C1172 1.503 . S
C1171 O1186 1.261 . S
C1171 O1187 1.243 . S
C1172 C1171 1.503 . S
C1172 C1173 1.394 . S
C1172 C1177 1.373 . S
C1173 C1172 1.394 . S
C1173 C1174 1.380 . S
C1173 H1196 0.930 . S
C1174 C1173 1.380 . S
C1174 C1175 1.376 . S
C1174 H1197 0.930 . S
C1175 C1174 1.376 . S
C1175 C1176 1.370 . S
C1176 C1175 1.370 . S
C1176 C1177 1.396 . S
C1176 H1198 0.929 . S
C1177 C1172 1.373 . S
C1177 C1176 1.396 . S
C1177 H1199 0.929 . S
C1178 O1188 1.240 . S
C1178 O1189 1.289 . S
C1179 O1190 1.258 . S
C1179 O1191 1.256 . S
O1180 La1160 2.521 . S
O1180 C1162 1.261 . S
O1181 La1160 2.628 . S
O1181 C1162 1.243 . S
O1182 La1160 2.554 . S
O1182 C1169 1.240 . S
O1183 La1160 2.757 . S
O1183 La1161 2.482 . S
O1183 C1169 1.289 . S
O1184 La1160 2.470 . S
O1184 C1170 1.258 . S
O1185 La1161 2.503 . S
O1185 C1170 1.256 . S
O1186 La1161 2.521 . S
O1186 C1171 1.261 . S
O1187 La1161 2.628 . S
O1187 C1171 1.243 . S
O1188 La1161 2.554 . S
O1188 C1178 1.240 . S
O1189 La1160 2.482 . S
O1189 La1161 2.757 . S
O1189 C1178 1.289 . S
O1190 La1161 2.470 . S
O1190 C1179 1.258 . S
O1191 La1160 2.503 . S
O1191 C1179 1.256 . S
H1192 C1164 0.930 . S
H1193 C1165 0.930 . S
H1194 C1167 0.929 . S
H1195 C1168 0.929 . S
H1196 C1173 0.930 . S
H1197 C1174 0.930 . S
H1198 C1176 0.929 . S
H1199 C1177 0.929 . S
La1200 C1202 2.928 . S
La1200 O1220 2.521 . S
La1200 O1221 2.628 . S
La1200 O1222 2.554 . S
La1200 O1223 2.757 . S
La1200 O1224 2.470 . S
La1200 O1229 2.482 . S
La1200 O1231 2.503 . S
La1201 C1211 2.928 . S
La1201 O1223 2.482 . S
La1201 O1225 2.503 . S
La1201 O1226 2.521 . S
La1201 O1227 2.628 . S
La1201 O1228 2.554 . S
La1201 O1229 2.757 . S
La1201 O1230 2.470 . S
C1202 La1200 2.928 . S
C1202 C1203 1.503 . S
C1202 O1220 1.261 . S
C1202 O1221 1.243 . S
C1203 C1202 1.503 . S
C1203 C1204 1.394 . S
C1203 C1208 1.373 . S
C1204 C1203 1.394 . S
C1204 C1205 1.380 . S
C1204 H1232 0.930 . S
C1205 C1204 1.380 . S
C1205 C1206 1.376 . S
C1205 H1233 0.930 . S
C1206 C1205 1.376 . S
C1206 C1207 1.370 . S
C1207 C1206 1.370 . S
C1207 C1208 1.396 . S
C1207 H1234 0.929 . S
C1208 C1203 1.373 . S
C1208 C1207 1.396 . S
C1208 H1235 0.929 . S
C1209 O1222 1.240 . S
C1209 O1223 1.289 . S
C1210 O1224 1.258 . S
C1210 O1225 1.256 . S
C1211 La1201 2.928 . S
C1211 C1212 1.503 . S
C1211 O1226 1.261 . S
C1211 O1227 1.243 . S
C1212 C1211 1.503 . S
C1212 C1213 1.394 . S
C1212 C1217 1.373 . S
C1213 C1212 1.394 . S
C1213 C1214 1.380 . S
C1213 H1236 0.930 . S
C1214 C1213 1.380 . S
C1214 C1215 1.376 . S
C1214 H1237 0.930 . S
C1215 C1214 1.376 . S
C1215 C1216 1.370 . S
C1216 C1215 1.370 . S
C1216 C1217 1.396 . S
C1216 H1238 0.929 . S
C1217 C1212 1.373 . S
C1217 C1216 1.396 . S
C1217 H1239 0.929 . S
C1218 O1228 1.240 . S
C1218 O1229 1.289 . S
C1219 O1230 1.258 . S
C1219 O1231 1.256 . S
O1220 La1200 2.521 . S
O1220 C1202 1.261 . S
O1221 La1200 2.628 . S
O1221 C1202 1.243 . S
O1222 La1200 2.554 . S
O1222 C1209 1.240 . S
O1223 La1200 2.757 . S
O1223 La1201 2.482 . S
O1223 C1209 1.289 . S
O1224 La1200 2.470 . S
O1224 C1210 1.258 . S
O1225 La1201 2.503 . S
O1225 C1210 1.256 . S
O1226 La1201 2.521 . S
O1226 C1211 1.261 . S
O1227 La1201 2.628 . S
O1227 C1211 1.243 . S
O1228 La1201 2.554 . S
O1228 C1218 1.240 . S
O1229 La1200 2.482 . S
O1229 La1201 2.757 . S
O1229 C1218 1.289 . S
O1230 La1201 2.470 . S
O1230 C1219 1.258 . S
O1231 La1200 2.503 . S
O1231 C1219 1.256 . S
H1232 C1204 0.930 . S
H1233 C1205 0.930 . S
H1234 C1207 0.929 . S
H1235 C1208 0.929 . S
H1236 C1213 0.930 . S
H1237 C1214 0.930 . S
H1238 C1216 0.929 . S
H1239 C1217 0.929 . S
La1240 C1242 2.928 . S
La1240 O1260 2.521 . S
La1240 O1261 2.628 . S
La1240 O1262 2.554 . S
La1240 O1263 2.757 . S
La1240 O1264 2.470 . S
La1240 O1269 2.482 . S
La1240 O1271 2.503 . S
La1241 C1251 2.928 . S
La1241 O1263 2.482 . S
La1241 O1265 2.503 . S
La1241 O1266 2.521 . S
La1241 O1267 2.628 . S
La1241 O1268 2.554 . S
La1241 O1269 2.757 . S
La1241 O1270 2.470 . S
C1242 La1240 2.928 . S
C1242 C1243 1.503 . S
C1242 O1260 1.261 . S
C1242 O1261 1.243 . S
C1243 C1242 1.503 . S
C1243 C1244 1.394 . S
C1243 C1248 1.373 . S
C1244 C1243 1.394 . S
C1244 C1245 1.380 . S
C1244 H1272 0.930 . S
C1245 C1244 1.380 . S
C1245 C1246 1.376 . S
C1245 H1273 0.930 . S
C1246 C1245 1.376 . S
C1246 C1247 1.370 . S
C1247 C1246 1.370 . S
C1247 C1248 1.396 . S
C1247 H1274 0.929 . S
C1248 C1243 1.373 . S
C1248 C1247 1.396 . S
C1248 H1275 0.929 . S
C1249 O1262 1.240 . S
C1249 O1263 1.289 . S
C1250 O1264 1.258 . S
C1250 O1265 1.256 . S
C1251 La1241 2.928 . S
C1251 C1252 1.503 . S
C1251 O1266 1.261 . S
C1251 O1267 1.243 . S
C1252 C1251 1.503 . S
C1252 C1253 1.394 . S
C1252 C1257 1.373 . S
C1253 C1252 1.394 . S
C1253 C1254 1.380 . S
C1253 H1276 0.930 . S
C1254 C1253 1.380 . S
C1254 C1255 1.376 . S
C1254 H1277 0.930 . S
C1255 C1254 1.376 . S
C1255 C1256 1.370 . S
C1256 C1255 1.370 . S
C1256 C1257 1.396 . S
C1256 H1278 0.929 . S
C1257 C1252 1.373 . S
C1257 C1256 1.396 . S
C1257 H1279 0.929 . S
C1258 O1268 1.240 . S
C1258 O1269 1.289 . S
C1259 O1270 1.258 . S
C1259 O1271 1.256 . S
O1260 La1240 2.521 . S
O1260 C1242 1.261 . S
O1261 La1240 2.628 . S
O1261 C1242 1.243 . S
O1262 La1240 2.554 . S
O1262 C1249 1.240 . S
O1263 La1240 2.757 . S
O1263 La1241 2.482 . S
O1263 C1249 1.289 . S
O1264 La1240 2.470 . S
O1264 C1250 1.258 . S
O1265 La1241 2.503 . S
O1265 C1250 1.256 . S
O1266 La1241 2.521 . S
O1266 C1251 1.261 . S
O1267 La1241 2.628 . S
O1267 C1251 1.243 . S
O1268 La1241 2.554 . S
O1268 C1258 1.240 . S
O1269 La1240 2.482 . S
O1269 La1241 2.757 . S
O1269 C1258 1.289 . S
O1270 La1241 2.470 . S
O1270 C1259 1.258 . S
O1271 La1240 2.503 . S
O1271 C1259 1.256 . S
H1272 C1244 0.930 . S
H1273 C1245 0.930 . S
H1274 C1247 0.929 . S
H1275 C1248 0.929 . S
H1276 C1253 0.930 . S
H1277 C1254 0.930 . S
H1278 C1256 0.929 . S
H1279 C1257 0.929 . S
La1280 C1282 2.928 . S
La1280 O1300 2.521 . S
La1280 O1301 2.628 . S
La1280 O1302 2.554 . S
La1280 O1303 2.757 . S
La1280 O1304 2.470 . S
La1280 O1309 2.482 . S
La1280 O1311 2.503 . S
La1281 C1291 2.928 . S
La1281 O1303 2.482 . S
La1281 O1305 2.503 . S
La1281 O1306 2.521 . S
La1281 O1307 2.628 . S
La1281 O1308 2.554 . S
La1281 O1309 2.757 . S
La1281 O1310 2.470 . S
C1282 La1280 2.928 . S
C1282 C1283 1.503 . S
C1282 O1300 1.261 . S
C1282 O1301 1.243 . S
C1283 C1282 1.503 . S
C1283 C1284 1.394 . S
C1283 C1288 1.373 . S
C1284 C1283 1.394 . S
C1284 C1285 1.380 . S
C1284 H1312 0.930 . S
C1285 C1284 1.380 . S
C1285 C1286 1.376 . S
C1285 H1313 0.930 . S
C1286 C1285 1.376 . S
C1286 C1287 1.370 . S
C1287 C1286 1.370 . S
C1287 C1288 1.396 . S
C1287 H1314 0.929 . S
C1288 C1283 1.373 . S
C1288 C1287 1.396 . S
C1288 H1315 0.929 . S
C1289 O1302 1.240 . S
C1289 O1303 1.289 . S
C1290 O1304 1.258 . S
C1290 O1305 1.256 . S
C1291 La1281 2.928 . S
C1291 C1292 1.503 . S
C1291 O1306 1.261 . S
C1291 O1307 1.243 . S
C1292 C1291 1.503 . S
C1292 C1293 1.394 . S
C1292 C1297 1.373 . S
C1293 C1292 1.394 . S
C1293 C1294 1.380 . S
C1293 H1316 0.930 . S
C1294 C1293 1.380 . S
C1294 C1295 1.376 . S
C1294 H1317 0.930 . S
C1295 C1294 1.376 . S
C1295 C1296 1.370 . S
C1296 C1295 1.370 . S
C1296 C1297 1.396 . S
C1296 H1318 0.929 . S
C1297 C1292 1.373 . S
C1297 C1296 1.396 . S
C1297 H1319 0.929 . S
C1298 O1308 1.240 . S
C1298 O1309 1.289 . S
C1299 O1310 1.258 . S
C1299 O1311 1.256 . S
O1300 La1280 2.521 . S
O1300 C1282 1.261 . S
O1301 La1280 2.628 . S
O1301 C1282 1.243 . S
O1302 La1280 2.554 . S
O1302 C1289 1.240 . S
O1303 La1280 2.757 . S
O1303 La1281 2.482 . S
O1303 C1289 1.289 . S
O1304 La1280 2.470 . S
O1304 C1290 1.258 . S
O1305 La1281 2.503 . S
O1305 C1290 1.256 . S
O1306 La1281 2.521 . S
O1306 C1291 1.261 . S
O1307 La1281 2.628 . S
O1307 C1291 1.243 . S
O1308 La1281 2.554 . S
O1308 C1298 1.240 . S
O1309 La1280 2.482 . S
O1309 La1281 2.757 . S
O1309 C1298 1.289 . S
O1310 La1281 2.470 . S
O1310 C1299 1.258 . S
O1311 La1280 2.503 . S
O1311 C1299 1.256 . S
H1312 C1284 0.930 . S
H1313 C1285 0.930 . S
H1314 C1287 0.929 . S
H1315 C1288 0.929 . S
H1316 C1293 0.930 . S
H1317 C1294 0.930 . S
H1318 C1296 0.929 . S
H1319 C1297 0.929 . S
La1320 C1322 2.928 . S
La1320 O1340 2.521 . S
La1320 O1341 2.628 . S
La1320 O1342 2.554 . S
La1320 O1343 2.757 . S
La1320 O1344 2.470 . S
La1320 O1349 2.482 . S
La1320 O1351 2.503 . S
La1321 C1331 2.928 . S
La1321 O1343 2.482 . S
La1321 O1345 2.503 . S
La1321 O1346 2.521 . S
La1321 O1347 2.628 . S
La1321 O1348 2.554 . S
La1321 O1349 2.757 . S
La1321 O1350 2.470 . S
C1322 La1320 2.928 . S
C1322 C1323 1.503 . S
C1322 O1340 1.261 . S
C1322 O1341 1.243 . S
C1323 C1322 1.503 . S
C1323 C1324 1.394 . S
C1323 C1328 1.373 . S
C1324 C1323 1.394 . S
C1324 C1325 1.380 . S
C1324 H1352 0.930 . S
C1325 C1324 1.380 . S
C1325 C1326 1.376 . S
C1325 H1353 0.930 . S
C1326 C1325 1.376 . S
C1326 C1327 1.370 . S
C1327 C1326 1.370 . S
C1327 C1328 1.396 . S
C1327 H1354 0.929 . S
C1328 C1323 1.373 . S
C1328 C1327 1.396 . S
C1328 H1355 0.929 . S
C1329 O1342 1.240 . S
C1329 O1343 1.289 . S
C1330 O1344 1.258 . S
C1330 O1345 1.256 . S
C1331 La1321 2.928 . S
C1331 C1332 1.503 . S
C1331 O1346 1.261 . S
C1331 O1347 1.243 . S
C1332 C1331 1.503 . S
C1332 C1333 1.394 . S
C1332 C1337 1.373 . S
C1333 C1332 1.394 . S
C1333 C1334 1.380 . S
C1333 H1356 0.930 . S
C1334 C1333 1.380 . S
C1334 C1335 1.376 . S
C1334 H1357 0.930 . S
C1335 C1334 1.376 . S
C1335 C1336 1.370 . S
C1336 C1335 1.370 . S
C1336 C1337 1.396 . S
C1336 H1358 0.929 . S
C1337 C1332 1.373 . S
C1337 C1336 1.396 . S
C1337 H1359 0.929 . S
C1338 O1348 1.240 . S
C1338 O1349 1.289 . S
C1339 O1350 1.258 . S
C1339 O1351 1.256 . S
O1340 La1320 2.521 . S
O1340 C1322 1.261 . S
O1341 La1320 2.628 . S
O1341 C1322 1.243 . S
O1342 La1320 2.554 . S
O1342 C1329 1.240 . S
O1343 La1320 2.757 . S
O1343 La1321 2.482 . S
O1343 C1329 1.289 . S
O1344 La1320 2.470 . S
O1344 C1330 1.258 . S
O1345 La1321 2.503 . S
O1345 C1330 1.256 . S
O1346 La1321 2.521 . S
O1346 C1331 1.261 . S
O1347 La1321 2.628 . S
O1347 C1331 1.243 . S
O1348 La1321 2.554 . S
O1348 C1338 1.240 . S
O1349 La1320 2.482 . S
O1349 La1321 2.757 . S
O1349 C1338 1.289 . S
O1350 La1321 2.470 . S
O1350 C1339 1.258 . S
O1351 La1320 2.503 . S
O1351 C1339 1.256 . S
H1352 C1324 0.930 . S
H1353 C1325 0.930 . S
H1354 C1327 0.929 . S
H1355 C1328 0.929 . S
H1356 C1333 0.930 . S
H1357 C1334 0.930 . S
H1358 C1336 0.929 . S
H1359 C1337 0.929 . S
La1360 C1362 2.928 . S
La1360 O1380 2.521 . S
La1360 O1381 2.628 . S
La1360 O1382 2.554 . S
La1360 O1383 2.757 . S
La1360 O1384 2.470 . S
La1360 O1389 2.482 . S
La1360 O1391 2.503 . S
La1361 C1371 2.928 . S
La1361 O1383 2.482 . S
La1361 O1385 2.503 . S
La1361 O1386 2.521 . S
La1361 O1387 2.628 . S
La1361 O1388 2.554 . S
La1361 O1389 2.757 . S
La1361 O1390 2.470 . S
C1362 La1360 2.928 . S
C1362 C1363 1.503 . S
C1362 O1380 1.261 . S
C1362 O1381 1.243 . S
C1363 C1362 1.503 . S
C1363 C1364 1.394 . S
C1363 C1368 1.373 . S
C1364 C1363 1.394 . S
C1364 C1365 1.380 . S
C1364 H1392 0.930 . S
C1365 C1364 1.380 . S
C1365 C1366 1.376 . S
C1365 H1393 0.930 . S
C1366 C1365 1.376 . S
C1366 C1367 1.370 . S
C1367 C1366 1.370 . S
C1367 C1368 1.396 . S
C1367 H1394 0.929 . S
C1368 C1363 1.373 . S
C1368 C1367 1.396 . S
C1368 H1395 0.929 . S
C1369 O1382 1.240 . S
C1369 O1383 1.289 . S
C1370 O1384 1.258 . S
C1370 O1385 1.256 . S
C1371 La1361 2.928 . S
C1371 C1372 1.503 . S
C1371 O1386 1.261 . S
C1371 O1387 1.243 . S
C1372 C1371 1.503 . S
C1372 C1373 1.394 . S
C1372 C1377 1.373 . S
C1373 C1372 1.394 . S
C1373 C1374 1.380 . S
C1373 H1396 0.930 . S
C1374 C1373 1.380 . S
C1374 C1375 1.376 . S
C1374 H1397 0.930 . S
C1375 C1374 1.376 . S
C1375 C1376 1.370 . S
C1376 C1375 1.370 . S
C1376 C1377 1.396 . S
C1376 H1398 0.929 . S
C1377 C1372 1.373 . S
C1377 C1376 1.396 . S
C1377 H1399 0.929 . S
C1378 O1388 1.240 . S
C1378 O1389 1.289 . S
C1379 O1390 1.258 . S
C1379 O1391 1.256 . S
O1380 La1360 2.521 . S
O1380 C1362 1.261 . S
O1381 La1360 2.628 . S
O1381 C1362 1.243 . S
O1382 La1360 2.554 . S
O1382 C1369 1.240 . S
O1383 La1360 2.757 . S
O1383 La1361 2.482 . S
O1383 C1369 1.289 . S
O1384 La1360 2.470 . S
O1384 C1370 1.258 . S
O1385 La1361 2.503 . S
O1385 C1370 1.256 . S
O1386 La1361 2.521 . S
O1386 C1371 1.261 . S
O1387 La1361 2.628 . S
O1387 C1371 1.243 . S
O1388 La1361 2.554 . S
O1388 C1378 1.240 . S
O1389 La1360 2.482 . S
O1389 La1361 2.757 . S
O1389 C1378 1.289 . S
O1390 La1361 2.470 . S
O1390 C1379 1.258 . S
O1391 La1360 2.503 . S
O1391 C1379 1.256 . S
H1392 C1364 0.930 . S
H1393 C1365 0.930 . S
H1394 C1367 0.929 . S
H1395 C1368 0.929 . S
H1396 C1373 0.930 . S
H1397 C1374 0.930 . S
H1398 C1376 0.929 . S
H1399 C1377 0.929 . S
La1400 C1402 2.928 . S
La1400 O1420 2.521 . S
La1400 O1421 2.628 . S
La1400 O1422 2.554 . S
La1400 O1423 2.757 . S
La1400 O1424 2.470 . S
La1400 O1429 2.482 . S
La1400 O1431 2.503 . S
La1401 C1411 2.928 . S
La1401 O1423 2.482 . S
La1401 O1425 2.503 . S
La1401 O1426 2.521 . S
La1401 O1427 2.628 . S
La1401 O1428 2.554 . S
La1401 O1429 2.757 . S
La1401 O1430 2.470 . S
C1402 La1400 2.928 . S
C1402 C1403 1.503 . S
C1402 O1420 1.261 . S
C1402 O1421 1.243 . S
C1403 C1402 1.503 . S
C1403 C1404 1.394 . S
C1403 C1408 1.373 . S
C1404 C1403 1.394 . S
C1404 C1405 1.380 . S
C1404 H1432 0.930 . S
C1405 C1404 1.380 . S
C1405 C1406 1.376 . S
C1405 H1433 0.930 . S
C1406 C1405 1.376 . S
C1406 C1407 1.370 . S
C1407 C1406 1.370 . S
C1407 C1408 1.396 . S
C1407 H1434 0.929 . S
C1408 C1403 1.373 . S
C1408 C1407 1.396 . S
C1408 H1435 0.929 . S
C1409 O1422 1.240 . S
C1409 O1423 1.289 . S
C1410 O1424 1.258 . S
C1410 O1425 1.256 . S
C1411 La1401 2.928 . S
C1411 C1412 1.503 . S
C1411 O1426 1.261 . S
C1411 O1427 1.243 . S
C1412 C1411 1.503 . S
C1412 C1413 1.394 . S
C1412 C1417 1.373 . S
C1413 C1412 1.394 . S
C1413 C1414 1.380 . S
C1413 H1436 0.930 . S
C1414 C1413 1.380 . S
C1414 C1415 1.376 . S
C1414 H1437 0.930 . S
C1415 C1414 1.376 . S
C1415 C1416 1.370 . S
C1416 C1415 1.370 . S
C1416 C1417 1.396 . S
C1416 H1438 0.929 . S
C1417 C1412 1.373 . S
C1417 C1416 1.396 . S
C1417 H1439 0.929 . S
C1418 O1428 1.240 . S
C1418 O1429 1.289 . S
C1419 O1430 1.258 . S
C1419 O1431 1.256 . S
O1420 La1400 2.521 . S
O1420 C1402 1.261 . S
O1421 La1400 2.628 . S
O1421 C1402 1.243 . S
O1422 La1400 2.554 . S
O1422 C1409 1.240 . S
O1423 La1400 2.757 . S
O1423 La1401 2.482 . S
O1423 C1409 1.289 . S
O1424 La1400 2.470 . S
O1424 C1410 1.258 . S
O1425 La1401 2.503 . S
O1425 C1410 1.256 . S
O1426 La1401 2.521 . S
O1426 C1411 1.261 . S
O1427 La1401 2.628 . S
O1427 C1411 1.243 . S
O1428 La1401 2.554 . S
O1428 C1418 1.240 . S
O1429 La1400 2.482 . S
O1429 La1401 2.757 . S
O1429 C1418 1.289 . S
O1430 La1401 2.470 . S
O1430 C1419 1.258 . S
O1431 La1400 2.503 . S
O1431 C1419 1.256 . S
H1432 C1404 0.930 . S
H1433 C1405 0.930 . S
H1434 C1407 0.929 . S
H1435 C1408 0.929 . S
H1436 C1413 0.930 . S
H1437 C1414 0.930 . S
H1438 C1416 0.929 . S
H1439 C1417 0.929 . S
H1440 C1452 0.930 . S
H1441 C1454 0.930 . S
H1442 C1455 0.930 . S
H1443 C1459 0.959 . S
H1444 C1459 0.959 . S
H1445 C1459 0.961 . S
H1446 C1460 0.960 . S
H1447 C1460 0.961 1_565 S
H1448 C1460 0.973 1_565 S
H1449 C1463 0.929 . S
H1450 C1464 0.931 . S
H1451 C1466 0.930 . S
C1452 H1440 0.930 . S
C1452 C1453 1.399 . S
C1452 C1457 1.399 . S
C1453 C1452 1.399 . S
C1453 C1454 1.376 . S
C1454 H1441 0.930 . S
C1454 C1453 1.376 . S
C1454 C1455 1.388 1_554 S
C1455 H1442 0.930 . S
C1455 C1454 1.388 1_556 S
C1455 C1456 1.390 1_556 S
C1456 C1455 1.390 1_554 S
C1456 C1457 1.394 . S
C1456 C1462 1.465 1_554 S
C1457 C1452 1.399 . S
C1457 C1456 1.394 . S
C1457 C1458 1.516 . S
C1458 C1457 1.516 . S
C1458 C1459 1.502 . S
C1458 C1460 1.561 . S
C1458 C1461 1.526 . S
C1459 H1443 0.959 . S
C1459 H1444 0.959 . S
C1459 H1445 0.961 . S
C1459 C1458 1.502 . S
C1460 H1446 0.960 . S
C1460 H1447 0.961 1_545 S
C1460 H1448 0.973 1_545 S
C1460 C1458 1.561 . S
C1461 C1458 1.526 . S
C1461 C1462 1.396 1_554 S
C1461 C1466 1.390 1_545 S
C1462 C1456 1.465 1_556 S
C1462 C1461 1.396 1_556 S
C1462 C1463 1.399 . S
C1463 H1449 0.929 . S
C1463 C1462 1.399 . S
C1463 C1464 1.385 1_545 S
C1464 H1450 0.931 . S
C1464 C1463 1.385 1_565 S
C1464 C1465 1.389 . S
C1465 C1464 1.389 . S
C1465 C1466 1.387 1_556 S
C1466 H1451 0.930 . S
C1466 C1461 1.390 1_565 S
C1466 C1465 1.387 1_554 S
H1467 C1479 0.930 . S
H1468 C1481 0.930 . S
H1469 C1482 0.930 . S
H1470 C1486 0.959 . S
H1471 C1486 0.959 . S
H1472 C1486 0.961 . S
H1473 C1487 0.960 1_455 S
H1474 C1487 0.961 . S
H1475 C1487 0.959 . S
H1476 C1490 0.929 . S
H1477 C1491 0.931 . S
H1478 C1493 0.930 . S
C1479 H1467 0.930 . S
C1479 C1480 1.399 . S
C1479 C1484 1.399 1_456 S
C1480 C1479 1.399 . S
C1480 C1481 1.376 . S
C1481 H1468 0.930 . S
C1481 C1480 1.376 . S
C1481 C1482 1.388 1_456 S
C1482 H1469 0.930 . S
C1482 C1481 1.388 1_654 S
C1482 C1483 1.390 . S
C1483 C1482 1.390 . S
C1483 C1484 1.394 . S
C1483 C1489 1.465 . S
C1484 C1479 1.399 1_654 S
C1484 C1483 1.394 . S
C1484 C1485 1.516 . S
C1485 C1484 1.516 . S
C1485 C1486 1.502 1_554 S
C1485 C1487 1.561 . S
C1485 C1488 1.526 . S
C1486 H1470 0.959 . S
C1486 H1471 0.959 . S
C1486 H1472 0.961 . S
C1486 C1485 1.502 1_556 S
C1487 H1473 0.960 1_655 S
C1487 H1474 0.961 . S
C1487 H1475 0.959 . S
C1487 C1485 1.561 . S
C1488 C1485 1.526 . S
C1488 C1489 1.396 . S
C1488 C1493 1.390 . S
C1489 C1483 1.465 . S
C1489 C1488 1.396 . S
C1489 C1490 1.399 . S
C1490 H1476 0.929 . S
C1490 C1489 1.399 . S
C1490 C1491 1.385 . S
C1491 H1477 0.931 . S
C1491 C1490 1.385 . S
C1491 C1492 1.389 . S
C1492 C1491 1.389 . S
C1492 C1493 1.387 . S
C1493 H1478 0.930 . S
C1493 C1488 1.390 . S
C1493 C1492 1.387 . S
H1494 C1506 0.930 . S
H1495 C1508 0.930 . S
H1496 C1509 0.926 1_554 S
H1497 C1513 0.959 . S
H1498 C1513 0.959 . S
H1499 C1513 0.961 . S
H1500 C1514 0.960 . S
H1501 C1514 0.961 . S
H1502 C1514 0.959 . S
H1503 C1517 0.929 . S
H1504 C1518 0.931 . S
H1505 C1520 0.930 . S
C1506 H1494 0.930 . S
C1506 C1507 1.399 . S
C1506 C1511 1.399 . S
C1507 C1506 1.399 . S
C1507 C1508 1.376 . S
C1508 H1495 0.930 . S
C1508 C1507 1.376 . S
C1508 C1509 1.388 . S
C1509 H1496 0.926 1_556 S
C1509 C1508 1.388 . S
C1509 C1510 1.390 1_556 S
C1510 C1509 1.390 1_554 S
C1510 C1511 1.394 1_554 S
C1510 C1516 1.465 . S
C1511 C1506 1.399 . S
C1511 C1510 1.394 1_556 S
C1511 C1512 1.516 1_556 S
C1512 C1511 1.516 1_554 S
C1512 C1513 1.502 . S
C1512 C1514 1.561 1_554 S
C1512 C1515 1.526 . S
C1513 H1497 0.959 . S
C1513 H1498 0.959 . S
C1513 H1499 0.961 . S
C1513 C1512 1.502 . S
C1514 H1500 0.960 . S
C1514 H1501 0.961 . S
C1514 H1502 0.959 . S
C1514 C1512 1.561 1_556 S
C1515 C1512 1.526 . S
C1515 C1516 1.396 . S
C1515 C1520 1.390 . S
C1516 C1510 1.465 . S
C1516 C1515 1.396 . S
C1516 C1517 1.399 . S
C1517 H1503 0.929 . S
C1517 C1516 1.399 . S
C1517 C1518 1.385 . S
C1518 H1504 0.931 . S
C1518 C1517 1.385 . S
C1518 C1519 1.389 . S
C1519 C1518 1.389 . S
C1519 C1520 1.387 . S
C1520 H1505 0.930 . S
C1520 C1515 1.390 . S
C1520 C1519 1.387 . S
H1521 C1533 0.930 . S
H1522 C1535 0.930 . S
H1523 C1536 0.930 . S
H1524 C1540 0.959 . S
H1525 C1540 0.959 . S
H1526 C1540 0.961 1_655 S
H1527 C1541 0.948 1_655 S
H1528 C1541 0.974 . S
H1529 C1541 0.954 . S
H1530 C1544 0.929 . S
H1531 C1545 0.931 . S
H1532 C1547 0.930 . S
C1533 H1521 0.930 . S
C1533 C1534 1.399 . S
C1533 C1538 1.375 1_655 S
C1534 C1533 1.399 . S
C1534 C1535 1.376 . S
C1535 H1522 0.930 . S
C1535 C1534 1.376 . S
C1535 C1536 1.388 1_655 S
C1536 H1523 0.930 . S
C1536 C1535 1.388 1_455 S
C1536 C1537 1.390 . S
C1537 C1536 1.390 . S
C1537 C1538 1.398 . S
C1537 C1543 1.465 . S
C1538 C1533 1.375 1_455 S
C1538 C1537 1.398 . S
C1538 C1539 1.539 . S
C1539 C1538 1.539 . S
C1539 C1540 1.502 . S
C1539 C1541 1.566 . S
C1539 C1542 1.526 . S
C1540 H1524 0.959 . S
C1540 H1525 0.959 . S
C1540 H1526 0.961 1_455 S
C1540 C1539 1.502 . S
C1541 H1527 0.948 1_455 S
C1541 H1528 0.974 . S
C1541 H1529 0.954 . S
C1541 C1539 1.566 . S
C1542 C1539 1.526 . S
C1542 C1543 1.396 . S
C1542 C1547 1.390 . S
C1543 C1537 1.465 . S
C1543 C1542 1.396 . S
C1543 C1544 1.399 . S
C1544 H1530 0.929 . S
C1544 C1543 1.399 . S
C1544 C1545 1.385 . S
C1545 H1531 0.931 . S
C1545 C1544 1.385 . S
C1545 C1546 1.389 . S
C1546 C1545 1.389 . S
C1546 C1547 1.387 . S
C1547 H1532 0.930 . S
C1547 C1542 1.390 . S
C1547 C1546 1.387 . S
H1548 C1560 0.930 . S
H1549 C1562 0.930 . S
H1550 C1563 0.930 . S
H1551 C1567 0.959 . S
H1552 C1567 0.959 . S
H1553 C1567 0.961 . S
H1554 C1568 0.960 . S
H1555 C1568 0.961 . S
H1556 C1568 0.959 . S
H1557 C1571 0.929 . S
H1558 C1572 0.931 . S
H1559 C1574 0.930 . S
C1560 H1548 0.930 . S
C1560 C1561 1.399 . S
C1560 C1565 1.399 . S
C1561 C1560 1.399 . S
C1561 C1562 1.376 . S
C1562 H1549 0.930 . S
C1562 C1561 1.376 . S
C1562 C1563 1.388 . S
C1563 H1550 0.930 . S
C1563 C1562 1.388 . S
C1563 C1564 1.390 . S
C1564 C1563 1.390 . S
C1564 C1565 1.394 . S
C1564 C1570 1.465 . S
C1565 C1560 1.399 . S
C1565 C1564 1.394 . S
C1565 C1566 1.516 . S
C1566 C1565 1.516 . S
C1566 C1567 1.502 . S
C1566 C1568 1.561 . S
C1566 C1569 1.526 . S
C1567 H1551 0.959 . S
C1567 H1552 0.959 . S
C1567 H1553 0.961 . S
C1567 C1566 1.502 . S
C1568 H1554 0.960 . S
C1568 H1555 0.961 . S
C1568 H1556 0.959 . S
C1568 C1566 1.561 . S
C1569 C1566 1.526 . S
C1569 C1570 1.396 . S
C1569 C1574 1.390 . S
C1570 C1564 1.465 . S
C1570 C1569 1.396 . S
C1570 C1571 1.399 . S
C1571 H1557 0.929 . S
C1571 C1570 1.399 . S
C1571 C1572 1.385 . S
C1572 H1558 0.931 . S
C1572 C1571 1.385 . S
C1572 C1573 1.389 . S
C1573 C1572 1.389 . S
C1573 C1574 1.387 . S
C1574 H1559 0.930 . S
C1574 C1569 1.390 . S
C1574 C1573 1.387 . S
H1575 C1587 0.930 . S
H1576 C1589 0.930 . S
H1577 C1590 0.930 . S
H1578 C1594 0.959 . S
H1579 C1594 0.959 . S
H1580 C1594 0.961 . S
H1581 C1595 0.960 . S
H1582 C1595 0.973 . S
H1583 C1595 0.959 . S
H1584 C1598 0.915 . S
H1585 C1599 0.931 . S
H1586 C1601 0.930 . S
C1587 H1575 0.930 . S
C1587 C1588 1.399 . S
C1587 C1592 1.399 . S
C1588 C1587 1.399 . S
C1588 C1589 1.376 . S
C1589 H1576 0.930 . S
C1589 C1588 1.376 . S
C1589 C1590 1.388 . S
C1590 H1577 0.930 . S
C1590 C1589 1.388 . S
C1590 C1591 1.390 . S
C1591 C1590 1.390 . S
C1591 C1592 1.394 . S
C1591 C1597 1.465 . S
C1592 C1587 1.399 . S
C1592 C1591 1.394 . S
C1592 C1593 1.516 . S
C1593 C1592 1.516 . S
C1593 C1594 1.502 . S
C1593 C1595 1.561 . S
C1593 C1596 1.526 . S
C1594 H1578 0.959 . S
C1594 H1579 0.959 . S
C1594 H1580 0.961 . S
C1594 C1593 1.502 . S
C1595 H1581 0.960 . S
C1595 H1582 0.973 . S
C1595 H1583 0.959 . S
C1595 C1593 1.561 . S
C1596 C1593 1.526 . S
C1596 C1597 1.396 . S
C1596 C1601 1.390 1_565 S
C1597 C1591 1.465 . S
C1597 C1596 1.396 . S
C1597 C1598 1.399 1_565 S
C1598 H1584 0.915 . S
C1598 C1597 1.399 1_545 S
C1598 C1599 1.385 . S
C1599 H1585 0.931 . S
C1599 C1598 1.385 . S
C1599 C1600 1.389 . S
C1600 C1599 1.389 . S
C1600 C1601 1.387 . S
C1601 H1586 0.930 . S
C1601 C1596 1.390 1_545 S
C1601 C1600 1.387 . S
H1602 C1614 0.930 . S
H1603 C1616 0.930 . S
H1604 C1617 0.930 . S
H1605 C1621 0.959 . S
H1606 C1621 0.959 . S
H1607 C1621 0.961 . S
H1608 C1622 0.960 . S
H1609 C1622 0.961 . S
H1610 C1622 0.959 . S
H1611 C1625 0.929 . S
H1612 C1626 0.931 . S
H1613 C1628 0.930 . S
C1614 H1602 0.930 . S
C1614 C1615 1.399 . S
C1614 C1619 1.399 1_545 S
C1615 C1614 1.399 . S
C1615 C1616 1.376 1_554 S
C1616 H1603 0.930 . S
C1616 C1615 1.376 1_556 S
C1616 C1617 1.388 . S
C1617 H1604 0.930 . S
C1617 C1616 1.388 . S
C1617 C1618 1.390 1_545 S
C1618 C1617 1.390 1_565 S
C1618 C1619 1.394 1_556 S
C1618 C1624 1.465 . S
C1619 C1614 1.399 1_565 S
C1619 C1618 1.394 1_554 S
C1619 C1620 1.516 . S
C1620 C1619 1.516 . S
C1620 C1621 1.502 . S
C1620 C1622 1.561 . S
C1620 C1623 1.526 1_554 S
C1621 H1605 0.959 . S
C1621 H1606 0.959 . S
C1621 H1607 0.961 . S
C1621 C1620 1.502 . S
C1622 H1608 0.960 . S
C1622 H1609 0.961 . S
C1622 H1610 0.959 . S
C1622 C1620 1.561 . S
C1623 C1620 1.526 1_556 S
C1623 C1624 1.396 . S
C1623 C1628 1.390 . S
C1624 C1618 1.465 . S
C1624 C1623 1.396 . S
C1624 C1625 1.399 . S
C1625 H1611 0.929 . S
C1625 C1624 1.399 . S
C1625 C1626 1.385 . S
C1626 H1612 0.931 . S
C1626 C1625 1.385 . S
C1626 C1627 1.389 . S
C1627 C1626 1.389 . S
C1627 C1628 1.387 . S
C1628 H1613 0.930 . S
C1628 C1623 1.390 . S
C1628 C1627 1.387 . S
H1629 C1641 0.930 . S
H1630 C1643 0.930 . S
H1631 C1644 0.930 . S
H1632 C1648 0.959 . S
H1633 C1648 0.959 . S
H1634 C1648 0.961 . S
H1635 C1649 0.960 . S
H1636 C1649 0.961 . S
H1637 C1649 0.959 1_556 S
H1638 C1652 0.929 . S
H1639 C1653 0.931 . S
H1640 C1655 0.930 . S
C1641 H1629 0.930 . S
C1641 C1642 1.399 . S
C1641 C1646 1.399 . S
C1642 C1641 1.399 . S
C1642 C1643 1.376 . S
C1643 H1630 0.930 . S
C1643 C1642 1.376 . S
C1643 C1644 1.388 . S
C1644 H1631 0.930 . S
C1644 C1643 1.388 . S
C1644 C1645 1.390 . S
C1645 C1644 1.390 . S
C1645 C1646 1.394 . S
C1645 C1651 1.465 . S
C1646 C1641 1.399 . S
C1646 C1645 1.394 . S
C1646 C1647 1.516 1_556 S
C1647 C1646 1.516 1_554 S
C1647 C1648 1.502 . S
C1647 C1649 1.561 . S
C1647 C1650 1.526 . S
C1648 H1632 0.959 . S
C1648 H1633 0.959 . S
C1648 H1634 0.961 . S
C1648 C1647 1.502 . S
C1649 H1635 0.960 . S
C1649 H1636 0.961 . S
C1649 H1637 0.959 1_554 S
C1649 C1647 1.561 . S
C1650 C1647 1.526 . S
C1650 C1651 1.396 1_554 S
C1650 C1655 1.390 1_455 S
C1651 C1645 1.465 . S
C1651 C1650 1.396 1_556 S
C1651 C1652 1.399 1_455 S
C1652 H1638 0.929 . S
C1652 C1651 1.399 1_655 S
C1652 C1653 1.385 . S
C1653 H1639 0.931 . S
C1653 C1652 1.385 . S
C1653 C1654 1.389 1_556 S
C1654 C1653 1.389 1_554 S
C1654 C1655 1.387 . S
C1655 H1640 0.930 . S
C1655 C1650 1.390 1_655 S
C1655 C1654 1.387 . S
H1656 C1668 0.927 1_556 S
H1657 C1670 0.930 . S
H1658 C1671 0.930 . S
H1659 C1675 0.959 . S
H1660 C1675 0.959 . S
H1661 C1675 0.961 . S
H1662 C1676 0.960 . S
H1663 C1676 0.961 . S
H1664 C1676 0.959 . S
H1665 C1679 0.929 . S
H1666 C1680 0.931 . S
H1667 C1682 0.930 . S
C1668 H1656 0.927 1_554 S
C1668 C1669 1.406 . S
C1668 C1673 1.395 1_554 S
C1669 C1668 1.406 . S
C1669 C1670 1.376 . S
C1670 H1657 0.930 . S
C1670 C1669 1.376 . S
C1670 C1671 1.388 . S
C1671 H1658 0.930 . S
C1671 C1670 1.388 . S
C1671 C1672 1.390 1_554 S
C1672 C1671 1.390 1_556 S
C1672 C1673 1.394 . S
C1672 C1678 1.465 . S
C1673 C1668 1.395 1_556 S
C1673 C1672 1.394 . S
C1673 C1674 1.516 . S
C1674 C1673 1.516 . S
C1674 C1675 1.502 . S
C1674 C1676 1.561 . S
C1674 C1677 1.526 . S
C1675 H1659 0.959 . S
C1675 H1660 0.959 . S
C1675 H1661 0.961 . S
C1675 C1674 1.502 . S
C1676 H1662 0.960 . S
C1676 H1663 0.961 . S
C1676 H1664 0.959 . S
C1676 C1674 1.561 . S
C1677 C1674 1.526 . S
C1677 C1678 1.396 . S
C1677 C1682 1.390 . S
C1678 C1672 1.465 . S
C1678 C1677 1.396 . S
C1678 C1679 1.399 . S
C1679 H1665 0.929 . S
C1679 C1678 1.399 . S
C1679 C1680 1.385 . S
C1680 H1666 0.931 . S
C1680 C1679 1.385 . S
C1680 C1681 1.389 . S
C1681 C1680 1.389 . S
C1681 C1682 1.387 . S
C1682 H1667 0.930 . S
C1682 C1677 1.390 . S
C1682 C1681 1.387 . S
H1683 C1695 0.930 . S
H1684 C1697 0.930 . S
H1685 C1698 0.930 . S
H1686 C1702 0.949 . S
H1687 C1702 0.988 . S
H1688 C1702 0.929 1_455 S
H1689 C1703 0.960 1_455 S
H1690 C1703 0.961 . S
H1691 C1703 0.959 . S
H1692 C1706 0.929 . S
H1693 C1707 0.931 . S
H1694 C1709 0.930 . S
C1695 H1683 0.930 . S
C1695 C1696 1.399 . S
C1695 C1700 1.394 1_455 S
C1696 C1695 1.399 . S
C1696 C1697 1.376 . S
C1697 H1684 0.930 . S
C1697 C1696 1.376 . S
C1697 C1698 1.388 1_455 S
C1698 H1685 0.930 . S
C1698 C1697 1.388 1_655 S
C1698 C1699 1.390 . S
C1699 C1698 1.390 . S
C1699 C1700 1.396 . S
C1699 C1705 1.465 . S
C1700 C1695 1.394 1_655 S
C1700 C1699 1.396 . S
C1700 C1701 1.520 . S
C1701 C1700 1.520 . S
C1701 C1702 1.516 . S
C1701 C1703 1.561 . S
C1701 C1704 1.526 . S
C1702 H1686 0.949 . S
C1702 H1687 0.988 . S
C1702 H1688 0.929 1_655 S
C1702 C1701 1.516 . S
C1703 H1689 0.960 1_655 S
C1703 H1690 0.961 . S
C1703 H1691 0.959 . S
C1703 C1701 1.561 . S
C1704 C1701 1.526 . S
C1704 C1705 1.396 . S
C1704 C1709 1.390 . S
C1705 C1699 1.465 . S
C1705 C1704 1.396 . S
C1705 C1706 1.399 . S
C1706 H1692 0.929 . S
C1706 C1705 1.399 . S
C1706 C1707 1.385 . S
C1707 H1693 0.931 . S
C1707 C1706 1.385 . S
C1707 C1708 1.389 . S
C1708 C1707 1.389 . S
C1708 C1709 1.387 . S
C1709 H1694 0.930 . S
C1709 C1704 1.390 . S
C1709 C1708 1.387 . S
H1710 C1722 0.930 . S
H1711 C1724 0.930 . S
H1712 C1725 0.930 . S
H1713 C1729 0.959 . S
H1714 C1729 0.959 . S
H1715 C1729 0.961 . S
H1716 C1730 0.960 . S
H1717 C1730 0.961 . S
H1718 C1730 0.959 . S
H1719 C1733 0.929 . S
H1720 C1734 0.931 . S
H1721 C1736 0.930 . S
C1722 H1710 0.930 . S
C1722 C1723 1.399 . S
C1722 C1727 1.399 . S
C1723 C1722 1.399 . S
C1723 C1724 1.376 . S
C1724 H1711 0.930 . S
C1724 C1723 1.376 . S
C1724 C1725 1.388 . S
C1725 H1712 0.930 . S
C1725 C1724 1.388 . S
C1725 C1726 1.390 . S
C1726 C1725 1.390 . S
C1726 C1727 1.394 . S
C1726 C1732 1.465 . S
C1727 C1722 1.399 . S
C1727 C1726 1.394 . S
C1727 C1728 1.516 . S
C1728 C1727 1.516 . S
C1728 C1729 1.502 . S
C1728 C1730 1.561 . S
C1728 C1731 1.526 . S
C1729 H1713 0.959 . S
C1729 H1714 0.959 . S
C1729 H1715 0.961 . S
C1729 C1728 1.502 . S
C1730 H1716 0.960 . S
C1730 H1717 0.961 . S
C1730 H1718 0.959 . S
C1730 C1728 1.561 . S
C1731 C1728 1.526 . S
C1731 C1732 1.396 . S
C1731 C1736 1.390 . S
C1732 C1726 1.465 . S
C1732 C1731 1.396 . S
C1732 C1733 1.399 . S
C1733 H1719 0.929 . S
C1733 C1732 1.399 . S
C1733 C1734 1.385 . S
C1734 H1720 0.931 . S
C1734 C1733 1.385 . S
C1734 C1735 1.389 . S
C1735 C1734 1.389 . S
C1735 C1736 1.387 . S
C1736 H1721 0.930 . S
C1736 C1731 1.390 . S
C1736 C1735 1.387 . S
H1737 C1749 0.930 . S
H1738 C1751 0.930 . S
H1739 C1752 0.930 . S
H1740 C1756 0.959 . S
H1741 C1756 0.959 . S
H1742 C1756 0.961 . S
H1743 C1757 0.960 . S
H1744 C1757 0.961 . S
H1745 C1757 0.959 . S
H1746 C1760 0.929 . S
H1747 C1761 0.931 . S
H1748 C1763 0.930 . S
C1749 H1737 0.930 . S
C1749 C1750 1.399 . S
C1749 C1754 1.399 . S
C1750 C1749 1.399 . S
C1750 C1751 1.376 . S
C1751 H1738 0.930 . S
C1751 C1750 1.376 . S
C1751 C1752 1.388 . S
C1752 H1739 0.930 . S
C1752 C1751 1.388 . S
C1752 C1753 1.390 . S
C1753 C1752 1.390 . S
C1753 C1754 1.394 . S
C1753 C1759 1.465 . S
C1754 C1749 1.399 . S
C1754 C1753 1.394 . S
C1754 C1755 1.516 . S
C1755 C1754 1.516 . S
C1755 C1756 1.502 . S
C1755 C1757 1.561 . S
C1755 C1758 1.526 . S
C1756 H1740 0.959 . S
C1756 H1741 0.959 . S
C1756 H1742 0.961 . S
C1756 C1755 1.502 . S
C1757 H1743 0.960 . S
C1757 H1744 0.961 . S
C1757 H1745 0.959 . S
C1757 C1755 1.561 . S
C1758 C1755 1.526 . S
C1758 C1759 1.396 . S
C1758 C1763 1.390 1_545 S
C1759 C1753 1.465 . S
C1759 C1758 1.396 . S
C1759 C1760 1.399 1_545 S
C1760 H1746 0.929 . S
C1760 C1759 1.399 1_565 S
C1760 C1761 1.385 . S
C1761 H1747 0.931 . S
C1761 C1760 1.385 . S
C1761 C1762 1.389 . S
C1762 C1761 1.389 . S
C1762 C1763 1.387 . S
C1763 H1748 0.930 . S
C1763 C1758 1.390 1_565 S
C1763 C1762 1.387 . S
H1764 C1776 0.930 . S
H1765 C1778 0.930 . S
H1766 C1779 0.930 . S
H1767 C1783 0.959 . S
H1768 C1783 0.959 . S
H1769 C1783 0.961 . S
H1770 C1784 0.960 . S
H1771 C1784 0.961 . S
H1772 C1784 0.959 . S
H1773 C1787 0.929 . S
H1774 C1788 0.931 . S
H1775 C1790 0.930 . S
C1776 H1764 0.930 . S
C1776 C1777 1.399 . S
C1776 C1781 1.399 . S
C1777 C1776 1.399 . S
C1777 C1778 1.376 . S
C1778 H1765 0.930 . S
C1778 C1777 1.376 . S
C1778 C1779 1.388 . S
C1779 H1766 0.930 . S
C1779 C1778 1.388 . S
C1779 C1780 1.390 . S
C1780 C1779 1.390 . S
C1780 C1781 1.394 . S
C1780 C1786 1.465 . S
C1781 C1776 1.399 . S
C1781 C1780 1.394 . S
C1781 C1782 1.516 . S
C1782 C1781 1.516 . S
C1782 C1783 1.502 . S
C1782 C1784 1.561 . S
C1782 C1785 1.526 . S
C1783 H1767 0.959 . S
C1783 H1768 0.959 . S
C1783 H1769 0.961 . S
C1783 C1782 1.502 . S
C1784 H1770 0.960 . S
C1784 H1771 0.961 . S
C1784 H1772 0.959 . S
C1784 C1782 1.561 . S
C1785 C1782 1.526 . S
C1785 C1786 1.396 . S
C1785 C1790 1.390 . S
C1786 C1780 1.465 . S
C1786 C1785 1.396 . S
C1786 C1787 1.399 . S
C1787 H1773 0.929 . S
C1787 C1786 1.399 . S
C1787 C1788 1.385 . S
C1788 H1774 0.931 . S
C1788 C1787 1.385 . S
C1788 C1789 1.389 . S
C1789 C1788 1.389 . S
C1789 C1790 1.387 . S
C1790 H1775 0.930 . S
C1790 C1785 1.390 . S
C1790 C1789 1.387 . S
H1791 C1803 0.930 . S
H1792 C1805 0.930 . S
H1793 C1806 0.930 . S
H1794 C1810 0.959 . S
H1795 C1810 0.959 . S
H1796 C1810 0.961 . S
H1797 C1811 0.960 . S
H1798 C1811 0.961 . S
H1799 C1811 0.959 . S
H1800 C1814 0.929 . S
H1801 C1815 0.931 . S
H1802 C1817 0.930 . S
C1803 H1791 0.930 . S
C1803 C1804 1.399 . S
C1803 C1808 1.399 . S
C1804 C1803 1.399 . S
C1804 C1805 1.376 . S
C1805 H1792 0.930 . S
C1805 C1804 1.376 . S
C1805 C1806 1.388 . S
C1806 H1793 0.930 . S
C1806 C1805 1.388 . S
C1806 C1807 1.390 . S
C1807 C1806 1.390 . S
C1807 C1808 1.394 . S
C1807 C1813 1.465 . S
C1808 C1803 1.399 . S
C1808 C1807 1.394 . S
C1808 C1809 1.516 . S
C1809 C1808 1.516 . S
C1809 C1810 1.502 . S
C1809 C1811 1.561 . S
C1809 C1812 1.526 . S
C1810 H1794 0.959 . S
C1810 H1795 0.959 . S
C1810 H1796 0.961 . S
C1810 C1809 1.502 . S
C1811 H1797 0.960 . S
C1811 H1798 0.961 . S
C1811 H1799 0.959 . S
C1811 C1809 1.561 . S
C1812 C1809 1.526 . S
C1812 C1813 1.396 . S
C1812 C1817 1.390 . S
C1813 C1807 1.465 . S
C1813 C1812 1.396 . S
C1813 C1814 1.399 . S
C1814 H1800 0.929 . S
C1814 C1813 1.399 . S
C1814 C1815 1.385 . S
C1815 H1801 0.931 . S
C1815 C1814 1.385 . S
C1815 C1816 1.389 . S
C1816 C1815 1.389 . S
C1816 C1817 1.387 . S
C1817 H1802 0.930 . S
C1817 C1812 1.390 . S
C1817 C1816 1.387 . S
H1818 C1830 0.930 . S
H1819 C1832 0.930 . S
H1820 C1833 0.930 . S
H1821 C1837 0.959 . S
H1822 C1837 0.959 . S
H1823 C1837 0.961 . S
H1824 C1838 0.960 . S
H1825 C1838 0.961 . S
H1826 C1838 0.959 . S
H1827 C1841 0.929 . S
H1828 C1842 0.931 . S
H1829 C1844 0.930 . S
C1830 H1818 0.930 . S
C1830 C1831 1.399 . S
C1830 C1835 1.399 . S
C1831 C1830 1.399 . S
C1831 C1832 1.376 . S
C1832 H1819 0.930 . S
C1832 C1831 1.376 . S
C1832 C1833 1.388 . S
C1833 H1820 0.930 . S
C1833 C1832 1.388 . S
C1833 C1834 1.390 . S
C1834 C1833 1.390 . S
C1834 C1835 1.394 . S
C1834 C1840 1.465 . S
C1835 C1830 1.399 . S
C1835 C1834 1.394 . S
C1835 C1836 1.516 . S
C1836 C1835 1.516 . S
C1836 C1837 1.502 . S
C1836 C1838 1.561 . S
C1836 C1839 1.526 . S
C1837 H1821 0.959 . S
C1837 H1822 0.959 . S
C1837 H1823 0.961 . S
C1837 C1836 1.502 . S
C1838 H1824 0.960 . S
C1838 H1825 0.961 . S
C1838 H1826 0.959 . S
C1838 C1836 1.561 . S
C1839 C1836 1.526 . S
C1839 C1840 1.396 . S
C1839 C1844 1.390 . S
C1840 C1834 1.465 . S
C1840 C1839 1.396 . S
C1840 C1841 1.399 . S
C1841 H1827 0.929 . S
C1841 C1840 1.399 . S
C1841 C1842 1.385 . S
C1842 H1828 0.931 . S
C1842 C1841 1.385 . S
C1842 C1843 1.389 . S
C1843 C1842 1.389 . S
C1843 C1844 1.387 . S
C1844 H1829 0.930 . S
C1844 C1839 1.390 . S
C1844 C1843 1.387 . S
H1845 C1857 0.930 . S
H1846 C1859 0.930 . S
H1847 C1860 0.930 . S
H1848 C1864 0.959 . S
H1849 C1864 0.959 . S
H1850 C1864 0.961 . S
H1851 C1865 0.960 . S
H1852 C1865 0.961 . S
H1853 C1865 0.959 . S
H1854 C1868 0.929 . S
H1855 C1869 0.931 . S
H1856 C1871 0.930 . S
C1857 H1845 0.930 . S
C1857 C1858 1.399 . S
C1857 C1862 1.399 . S
C1858 C1857 1.399 . S
C1858 C1859 1.376 . S
C1859 H1846 0.930 . S
C1859 C1858 1.376 . S
C1859 C1860 1.388 . S
C1860 H1847 0.930 . S
C1860 C1859 1.388 . S
C1860 C1861 1.390 . S
C1861 C1860 1.390 . S
C1861 C1862 1.394 . S
C1861 C1867 1.465 . S
C1862 C1857 1.399 . S
C1862 C1861 1.394 . S
C1862 C1863 1.516 . S
C1863 C1862 1.516 . S
C1863 C1864 1.502 . S
C1863 C1865 1.561 . S
C1863 C1866 1.526 . S
C1864 H1848 0.959 . S
C1864 H1849 0.959 . S
C1864 H1850 0.961 . S
C1864 C1863 1.502 . S
C1865 H1851 0.960 . S
C1865 H1852 0.961 . S
C1865 H1853 0.959 . S
C1865 C1863 1.561 . S
C1866 C1863 1.526 . S
C1866 C1867 1.396 . S
C1866 C1871 1.390 . S
C1867 C1861 1.465 . S
C1867 C1866 1.396 . S
C1867 C1868 1.399 . S
C1868 H1854 0.929 . S
C1868 C1867 1.399 . S
C1868 C1869 1.385 . S
C1869 H1855 0.931 . S
C1869 C1868 1.385 . S
C1869 C1870 1.389 . S
C1870 C1869 1.389 . S
C1870 C1871 1.387 . S
C1871 H1856 0.930 . S
C1871 C1866 1.390 . S
C1871 C1870 1.387 . S
H1872 C1884 0.930 . S
H1873 C1886 0.930 . S
H1874 C1887 0.930 . S
H1875 C1891 0.959 . S
H1876 C1891 0.959 . S
H1877 C1891 0.961 . S
H1878 C1892 0.960 . S
H1879 C1892 0.961 . S
H1880 C1892 0.959 . S
H1881 C1895 0.929 . S
H1882 C1896 0.931 . S
H1883 C1898 0.930 . S
C1884 H1872 0.930 . S
C1884 C1885 1.399 . S
C1884 C1889 1.399 . S
C1885 C1884 1.399 . S
C1885 C1886 1.376 . S
C1886 H1873 0.930 . S
C1886 C1885 1.376 . S
C1886 C1887 1.388 . S
C1887 H1874 0.930 . S
C1887 C1886 1.388 . S
C1887 C1888 1.390 . S
C1888 C1887 1.390 . S
C1888 C1889 1.394 . S
C1888 C1894 1.465 . S
C1889 C1884 1.399 . S
C1889 C1888 1.394 . S
C1889 C1890 1.516 . S
C1890 C1889 1.516 . S
C1890 C1891 1.502 . S
C1890 C1892 1.561 . S
C1890 C1893 1.526 . S
C1891 H1875 0.959 . S
C1891 H1876 0.959 . S
C1891 H1877 0.961 . S
C1891 C1890 1.502 . S
C1892 H1878 0.960 . S
C1892 H1879 0.961 . S
C1892 H1880 0.959 . S
C1892 C1890 1.561 . S
C1893 C1890 1.526 . S
C1893 C1894 1.396 . S
C1893 C1898 1.390 . S
C1894 C1888 1.465 . S
C1894 C1893 1.396 . S
C1894 C1895 1.399 . S
C1895 H1881 0.929 . S
C1895 C1894 1.399 . S
C1895 C1896 1.385 . S
C1896 H1882 0.931 . S
C1896 C1895 1.385 . S
C1896 C1897 1.389 . S
C1897 C1896 1.389 . S
C1897 C1898 1.387 . S
C1898 H1883 0.930 . S
C1898 C1893 1.390 . S
C1898 C1897 1.387 . S
H1899 C1911 0.930 . S
H1900 C1913 0.930 . S
H1901 C1914 0.930 . S
H1902 C1918 0.959 . S
H1903 C1918 0.959 . S
H1904 C1918 0.961 . S
H1905 C1919 0.960 . S
H1906 C1919 0.961 . S
H1907 C1919 0.959 . S
H1908 C1922 0.929 . S
H1909 C1923 0.931 . S
H1910 C1925 0.930 . S
C1911 H1899 0.930 . S
C1911 C1912 1.399 . S
C1911 C1916 1.399 . S
C1912 C1911 1.399 . S
C1912 C1913 1.376 . S
C1913 H1900 0.930 . S
C1913 C1912 1.376 . S
C1913 C1914 1.388 . S
C1914 H1901 0.930 . S
C1914 C1913 1.388 . S
C1914 C1915 1.390 . S
C1915 C1914 1.390 . S
C1915 C1916 1.394 . S
C1915 C1921 1.465 . S
C1916 C1911 1.399 . S
C1916 C1915 1.394 . S
C1916 C1917 1.516 . S
C1917 C1916 1.516 . S
C1917 C1918 1.502 . S
C1917 C1919 1.561 . S
C1917 C1920 1.526 . S
C1918 H1902 0.959 . S
C1918 H1903 0.959 . S
C1918 H1904 0.961 . S
C1918 C1917 1.502 . S
C1919 H1905 0.960 . S
C1919 H1906 0.961 . S
C1919 H1907 0.959 . S
C1919 C1917 1.561 . S
C1920 C1917 1.526 . S
C1920 C1921 1.396 . S
C1920 C1925 1.390 . S
C1921 C1915 1.465 . S
C1921 C1920 1.396 . S
C1921 C1922 1.399 . S
C1922 H1908 0.929 . S
C1922 C1921 1.399 . S
C1922 C1923 1.385 . S
C1923 H1909 0.931 . S
C1923 C1922 1.385 . S
C1923 C1924 1.389 . S
C1924 C1923 1.389 . S
C1924 C1925 1.387 . S
C1925 H1910 0.930 . S
C1925 C1920 1.390 . S
C1925 C1924 1.387 . S
H1926 C1938 0.930 . S
H1927 C1940 0.930 . S
H1928 C1941 0.930 . S
H1929 C1945 0.959 . S
H1930 C1945 0.959 . S
H1931 C1945 0.961 . S
H1932 C1946 0.960 . S
H1933 C1946 0.961 . S
H1934 C1946 0.959 . S
H1935 C1949 0.929 . S
H1936 C1950 0.931 . S
H1937 C1952 0.930 . S
C1938 H1926 0.930 . S
C1938 C1939 1.399 . S
C1938 C1943 1.399 . S
C1939 C1938 1.399 . S
C1939 C1940 1.376 . S
C1940 H1927 0.930 . S
C1940 C1939 1.376 . S
C1940 C1941 1.388 . S
C1941 H1928 0.930 . S
C1941 C1940 1.388 . S
C1941 C1942 1.390 . S
C1942 C1941 1.390 . S
C1942 C1943 1.394 . S
C1942 C1948 1.465 . S
C1943 C1938 1.399 . S
C1943 C1942 1.394 . S
C1943 C1944 1.516 . S
C1944 C1943 1.516 . S
C1944 C1945 1.502 . S
C1944 C1946 1.561 . S
C1944 C1947 1.526 . S
C1945 H1929 0.959 . S
C1945 H1930 0.959 . S
C1945 H1931 0.961 . S
C1945 C1944 1.502 . S
C1946 H1932 0.960 . S
C1946 H1933 0.961 . S
C1946 H1934 0.959 . S
C1946 C1944 1.561 . S
C1947 C1944 1.526 . S
C1947 C1948 1.396 . S
C1947 C1952 1.390 . S
C1948 C1942 1.465 . S
C1948 C1947 1.396 . S
C1948 C1949 1.399 . S
C1949 H1935 0.929 . S
C1949 C1948 1.399 . S
C1949 C1950 1.385 . S
C1950 H1936 0.931 . S
C1950 C1949 1.385 . S
C1950 C1951 1.389 . S
C1951 C1950 1.389 . S
C1951 C1952 1.387 . S
C1952 H1937 0.930 . S
C1952 C1947 1.390 . S
C1952 C1951 1.387 . S
H1953 C1965 0.930 . S
H1954 C1967 0.930 . S
H1955 C1968 0.930 . S
H1956 C1972 0.959 . S
H1957 C1972 0.959 . S
H1958 C1972 0.961 . S
H1959 C1973 0.960 . S
H1960 C1973 0.961 . S
H1961 C1973 0.959 . S
H1962 C1976 0.929 . S
H1963 C1977 0.931 . S
H1964 C1979 0.930 . S
C1965 H1953 0.930 . S
C1965 C1966 1.399 . S
C1965 C1970 1.399 . S
C1966 C1965 1.399 . S
C1966 C1967 1.376 . S
C1967 H1954 0.930 . S
C1967 C1966 1.376 . S
C1967 C1968 1.388 . S
C1968 H1955 0.930 . S
C1968 C1967 1.388 . S
C1968 C1969 1.390 . S
C1969 C1968 1.390 . S
C1969 C1970 1.394 . S
C1969 C1975 1.465 . S
C1970 C1965 1.399 . S
C1970 C1969 1.394 . S
C1970 C1971 1.516 . S
C1971 C1970 1.516 . S
C1971 C1972 1.502 . S
C1971 C1973 1.561 . S
C1971 C1974 1.526 . S
C1972 H1956 0.959 . S
C1972 H1957 0.959 . S
C1972 H1958 0.961 . S
C1972 C1971 1.502 . S
C1973 H1959 0.960 . S
C1973 H1960 0.961 . S
C1973 H1961 0.959 . S
C1973 C1971 1.561 . S
C1974 C1971 1.526 . S
C1974 C1975 1.396 . S
C1974 C1979 1.390 . S
C1975 C1969 1.465 . S
C1975 C1974 1.396 . S
C1975 C1976 1.399 . S
C1976 H1962 0.929 . S
C1976 C1975 1.399 . S
C1976 C1977 1.385 . S
C1977 H1963 0.931 . S
C1977 C1976 1.385 . S
C1977 C1978 1.389 . S
C1978 C1977 1.389 . S
C1978 C1979 1.387 . S
C1979 H1964 0.930 . S
C1979 C1974 1.390 . S
C1979 C1978 1.387 . S
H1980 C1992 0.930 . S
H1981 C1994 0.930 . S
H1982 C1995 0.930 . S
H1983 C1999 0.959 . S
H1984 C1999 0.959 . S
H1985 C1999 0.961 . S
H1986 C2000 0.960 . S
H1987 C2000 0.961 . S
H1988 C2000 0.959 . S
H1989 C2003 0.929 . S
H1990 C2004 0.931 . S
H1991 C2006 0.930 . S
C1992 H1980 0.930 . S
C1992 C1993 1.399 . S
C1992 C1997 1.399 . S
C1993 C1992 1.399 . S
C1993 C1994 1.376 . S
C1994 H1981 0.930 . S
C1994 C1993 1.376 . S
C1994 C1995 1.388 . S
C1995 H1982 0.930 . S
C1995 C1994 1.388 . S
C1995 C1996 1.390 . S
C1996 C1995 1.390 . S
C1996 C1997 1.394 . S
C1996 C2002 1.465 . S
C1997 C1992 1.399 . S
C1997 C1996 1.394 . S
C1997 C1998 1.516 . S
C1998 C1997 1.516 . S
C1998 C1999 1.502 . S
C1998 C2000 1.561 . S
C1998 C2001 1.526 . S
C1999 H1983 0.959 . S
C1999 H1984 0.959 . S
C1999 H1985 0.961 . S
C1999 C1998 1.502 . S
C2000 H1986 0.960 . S
C2000 H1987 0.961 . S
C2000 H1988 0.959 . S
C2000 C1998 1.561 . S
C2001 C1998 1.526 . S
C2001 C2002 1.396 . S
C2001 C2006 1.390 . S
C2002 C1996 1.465 . S
C2002 C2001 1.396 . S
C2002 C2003 1.399 . S
C2003 H1989 0.929 . S
C2003 C2002 1.399 . S
C2003 C2004 1.385 . S
C2004 H1990 0.931 . S
C2004 C2003 1.385 . S
C2004 C2005 1.389 . S
C2005 C2004 1.389 . S
C2005 C2006 1.387 . S
C2006 H1991 0.930 . S
C2006 C2001 1.390 . S
C2006 C2005 1.387 . S
H2007 C2019 0.930 . S
H2008 C2021 0.930 . S
H2009 C2022 0.930 . S
H2010 C2026 0.959 . S
H2011 C2026 0.959 . S
H2012 C2026 0.961 . S
H2013 C2027 0.960 . S
H2014 C2027 0.961 . S
H2015 C2027 0.959 . S
H2016 C2030 0.929 . S
H2017 C2031 0.931 . S
H2018 C2033 0.930 . S
C2019 H2007 0.930 . S
C2019 C2020 1.399 . S
C2019 C2024 1.399 . S
C2020 C2019 1.399 . S
C2020 C2021 1.376 . S
C2021 H2008 0.930 . S
C2021 C2020 1.376 . S
C2021 C2022 1.388 . S
C2022 H2009 0.930 . S
C2022 C2021 1.388 . S
C2022 C2023 1.390 . S
C2023 C2022 1.390 . S
C2023 C2024 1.394 . S
C2023 C2029 1.465 . S
C2024 C2019 1.399 . S
C2024 C2023 1.394 . S
C2024 C2025 1.516 . S
C2025 C2024 1.516 . S
C2025 C2026 1.502 . S
C2025 C2027 1.561 . S
C2025 C2028 1.526 . S
C2026 H2010 0.959 . S
C2026 H2011 0.959 . S
C2026 H2012 0.961 . S
C2026 C2025 1.502 . S
C2027 H2013 0.960 . S
C2027 H2014 0.961 . S
C2027 H2015 0.959 . S
C2027 C2025 1.561 . S
C2028 C2025 1.526 . S
C2028 C2029 1.396 . S
C2028 C2033 1.390 . S
C2029 C2023 1.465 . S
C2029 C2028 1.396 . S
C2029 C2030 1.399 . S
C2030 H2016 0.929 . S
C2030 C2029 1.399 . S
C2030 C2031 1.385 . S
C2031 H2017 0.931 . S
C2031 C2030 1.385 . S
C2031 C2032 1.389 . S
C2032 C2031 1.389 . S
C2032 C2033 1.387 . S
C2033 H2018 0.930 . S
C2033 C2028 1.390 . S
C2033 C2032 1.387 . S
H2034 C2046 0.930 . S
H2035 C2048 0.930 . S
H2036 C2049 0.930 . S
H2037 C2053 0.959 . S
H2038 C2053 0.959 . S
H2039 C2053 0.961 . S
H2040 C2054 0.960 . S
H2041 C2054 0.961 . S
H2042 C2054 0.959 . S
H2043 C2057 0.929 . S
H2044 C2058 0.931 . S
H2045 C2060 0.930 . S
C2046 H2034 0.930 . S
C2046 C2047 1.399 . S
C2046 C2051 1.399 . S
C2047 C2046 1.399 . S
C2047 C2048 1.376 . S
C2048 H2035 0.930 . S
C2048 C2047 1.376 . S
C2048 C2049 1.388 . S
C2049 H2036 0.930 . S
C2049 C2048 1.388 . S
C2049 C2050 1.390 . S
C2050 C2049 1.390 . S
C2050 C2051 1.394 . S
C2050 C2056 1.465 . S
C2051 C2046 1.399 . S
C2051 C2050 1.394 . S
C2051 C2052 1.516 . S
C2052 C2051 1.516 . S
C2052 C2053 1.502 . S
C2052 C2054 1.561 . S
C2052 C2055 1.526 . S
C2053 H2037 0.959 . S
C2053 H2038 0.959 . S
C2053 H2039 0.961 . S
C2053 C2052 1.502 . S
C2054 H2040 0.960 . S
C2054 H2041 0.961 . S
C2054 H2042 0.959 . S
C2054 C2052 1.561 . S
C2055 C2052 1.526 . S
C2055 C2056 1.396 . S
C2055 C2060 1.390 . S
C2056 C2050 1.465 . S
C2056 C2055 1.396 . S
C2056 C2057 1.399 . S
C2057 H2043 0.929 . S
C2057 C2056 1.399 . S
C2057 C2058 1.385 . S
C2058 H2044 0.931 . S
C2058 C2057 1.385 . S
C2058 C2059 1.389 . S
C2059 C2058 1.389 . S
C2059 C2060 1.387 . S
C2060 H2045 0.930 . S
C2060 C2055 1.390 . S
C2060 C2059 1.387 . S
H2061 C2073 0.930 . S
H2062 C2075 0.930 . S
H2063 C2076 0.930 . S
H2064 C2080 0.959 . S
H2065 C2080 0.959 . S
H2066 C2080 0.961 . S
H2067 C2081 0.960 . S
H2068 C2081 0.961 . S
H2069 C2081 0.959 . S
H2070 C2084 0.929 . S
H2071 C2085 0.931 . S
H2072 C2087 0.930 . S
C2073 H2061 0.930 . S
C2073 C2074 1.399 . S
C2073 C2078 1.399 . S
C2074 C2073 1.399 . S
C2074 C2075 1.376 . S
C2075 H2062 0.930 . S
C2075 C2074 1.376 . S
C2075 C2076 1.388 . S
C2076 H2063 0.930 . S
C2076 C2075 1.388 . S
C2076 C2077 1.390 . S
C2077 C2076 1.390 . S
C2077 C2078 1.394 . S
C2077 C2083 1.465 . S
C2078 C2073 1.399 . S
C2078 C2077 1.394 . S
C2078 C2079 1.516 . S
C2079 C2078 1.516 . S
C2079 C2080 1.502 . S
C2079 C2081 1.561 . S
C2079 C2082 1.526 . S
C2080 H2064 0.959 . S
C2080 H2065 0.959 . S
C2080 H2066 0.961 . S
C2080 C2079 1.502 . S
C2081 H2067 0.960 . S
C2081 H2068 0.961 . S
C2081 H2069 0.959 . S
C2081 C2079 1.561 . S
C2082 C2079 1.526 . S
C2082 C2083 1.396 . S
C2082 C2087 1.390 . S
C2083 C2077 1.465 . S
C2083 C2082 1.396 . S
C2083 C2084 1.399 . S
C2084 H2070 0.929 . S
C2084 C2083 1.399 . S
C2084 C2085 1.385 . S
C2085 H2071 0.931 . S
C2085 C2084 1.385 . S
C2085 C2086 1.389 . S
C2086 C2085 1.389 . S
C2086 C2087 1.387 . S
C2087 H2072 0.930 . S
C2087 C2082 1.390 . S
C2087 C2086 1.387 . S
H2088 C2100 0.930 . S
H2089 C2102 0.930 . S
H2090 C2103 0.930 . S
H2091 C2107 0.959 . S
H2092 C2107 0.959 . S
H2093 C2107 0.961 . S
H2094 C2108 0.960 . S
H2095 C2108 0.961 . S
H2096 C2108 0.959 . S
H2097 C2111 0.929 . S
H2098 C2112 0.931 . S
H2099 C2114 0.930 . S
C2100 H2088 0.930 . S
C2100 C2101 1.399 . S
C2100 C2105 1.399 . S
C2101 C2100 1.399 . S
C2101 C2102 1.376 . S
C2102 H2089 0.930 . S
C2102 C2101 1.376 . S
C2102 C2103 1.388 . S
C2103 H2090 0.930 . S
C2103 C2102 1.388 . S
C2103 C2104 1.390 . S
C2104 C2103 1.390 . S
C2104 C2105 1.394 . S
C2104 C2110 1.465 . S
C2105 C2100 1.399 . S
C2105 C2104 1.394 . S
C2105 C2106 1.516 . S
C2106 C2105 1.516 . S
C2106 C2107 1.502 . S
C2106 C2108 1.561 . S
C2106 C2109 1.526 . S
C2107 H2091 0.959 . S
C2107 H2092 0.959 . S
C2107 H2093 0.961 . S
C2107 C2106 1.502 . S
C2108 H2094 0.960 . S
C2108 H2095 0.961 . S
C2108 H2096 0.959 . S
C2108 C2106 1.561 . S
C2109 C2106 1.526 . S
C2109 C2110 1.396 . S
C2109 C2114 1.390 . S
C2110 C2104 1.465 . S
C2110 C2109 1.396 . S
C2110 C2111 1.399 . S
C2111 H2097 0.929 . S
C2111 C2110 1.399 . S
C2111 C2112 1.385 . S
C2112 H2098 0.931 . S
C2112 C2111 1.385 . S
C2112 C2113 1.389 . S
C2113 C2112 1.389 . S
C2113 C2114 1.387 . S
C2114 H2099 0.930 . S
C2114 C2109 1.390 . S
C2114 C2113 1.387 . S
H2115 C2127 0.930 . S
H2116 C2129 0.930 . S
H2117 C2130 0.930 . S
H2118 C2134 0.959 . S
H2119 C2134 0.959 . S
H2120 C2134 0.961 . S
H2121 C2135 0.960 . S
H2122 C2135 0.961 . S
H2123 C2135 0.959 . S
H2124 C2138 0.929 . S
H2125 C2139 0.931 . S
H2126 C2141 0.930 . S
C2127 H2115 0.930 . S
C2127 C2128 1.399 . S
C2127 C2132 1.399 . S
C2128 C2127 1.399 . S
C2128 C2129 1.376 . S
C2129 H2116 0.930 . S
C2129 C2128 1.376 . S
C2129 C2130 1.388 . S
C2130 H2117 0.930 . S
C2130 C2129 1.388 . S
C2130 C2131 1.390 . S
C2131 C2130 1.390 . S
C2131 C2132 1.394 . S
C2131 C2137 1.465 . S
C2132 C2127 1.399 . S
C2132 C2131 1.394 . S
C2132 C2133 1.516 . S
C2133 C2132 1.516 . S
C2133 C2134 1.502 . S
C2133 C2135 1.561 . S
C2133 C2136 1.526 . S
C2134 H2118 0.959 . S
C2134 H2119 0.959 . S
C2134 H2120 0.961 . S
C2134 C2133 1.502 . S
C2135 H2121 0.960 . S
C2135 H2122 0.961 . S
C2135 H2123 0.959 . S
C2135 C2133 1.561 . S
C2136 C2133 1.526 . S
C2136 C2137 1.396 . S
C2136 C2141 1.390 . S
C2137 C2131 1.465 . S
C2137 C2136 1.396 . S
C2137 C2138 1.399 . S
C2138 H2124 0.929 . S
C2138 C2137 1.399 . S
C2138 C2139 1.385 . S
C2139 H2125 0.931 . S
C2139 C2138 1.385 . S
C2139 C2140 1.389 . S
C2140 C2139 1.389 . S
C2140 C2141 1.387 . S
C2141 H2126 0.930 . S
C2141 C2136 1.390 . S
C2141 C2140 1.387 . S
H2142 C2154 0.930 . S
H2143 C2156 0.930 . S
H2144 C2157 0.930 . S
H2145 C2161 0.959 . S
H2146 C2161 0.959 . S
H2147 C2161 0.961 . S
H2148 C2162 0.960 . S
H2149 C2162 0.961 . S
H2150 C2162 0.959 . S
H2151 C2165 0.929 . S
H2152 C2166 0.931 . S
H2153 C2168 0.930 . S
C2154 H2142 0.930 . S
C2154 C2155 1.399 . S
C2154 C2159 1.399 . S
C2155 C2154 1.399 . S
C2155 C2156 1.376 . S
C2156 H2143 0.930 . S
C2156 C2155 1.376 . S
C2156 C2157 1.388 . S
C2157 H2144 0.930 . S
C2157 C2156 1.388 . S
C2157 C2158 1.390 . S
C2158 C2157 1.390 . S
C2158 C2159 1.394 . S
C2158 C2164 1.465 . S
C2159 C2154 1.399 . S
C2159 C2158 1.394 . S
C2159 C2160 1.516 . S
C2160 C2159 1.516 . S
C2160 C2161 1.502 . S
C2160 C2162 1.561 . S
C2160 C2163 1.526 . S
C2161 H2145 0.959 . S
C2161 H2146 0.959 . S
C2161 H2147 0.961 . S
C2161 C2160 1.502 . S
C2162 H2148 0.960 . S
C2162 H2149 0.961 . S
C2162 H2150 0.959 . S
C2162 C2160 1.561 . S
C2163 C2160 1.526 . S
C2163 C2164 1.396 . S
C2163 C2168 1.390 . S
C2164 C2158 1.465 . S
C2164 C2163 1.396 . S
C2164 C2165 1.399 . S
C2165 H2151 0.929 . S
C2165 C2164 1.399 . S
C2165 C2166 1.385 . S
C2166 H2152 0.931 . S
C2166 C2165 1.385 . S
C2166 C2167 1.389 . S
C2167 C2166 1.389 . S
C2167 C2168 1.387 . S
C2168 H2153 0.930 . S
C2168 C2163 1.390 . S
C2168 C2167 1.387 . S
H2169 C2181 0.930 . S
H2170 C2183 0.930 . S
H2171 C2184 0.930 . S
H2172 C2188 0.959 . S
H2173 C2188 0.959 . S
H2174 C2188 0.961 . S
H2175 C2189 0.960 . S
H2176 C2189 0.961 . S
H2177 C2189 0.959 . S
H2178 C2192 0.929 . S
H2179 C2193 0.931 . S
H2180 C2195 0.930 . S
C2181 H2169 0.930 . S
C2181 C2182 1.399 . S
C2181 C2186 1.399 . S
C2182 C2181 1.399 . S
C2182 C2183 1.376 . S
C2183 H2170 0.930 . S
C2183 C2182 1.376 . S
C2183 C2184 1.388 . S
C2184 H2171 0.930 . S
C2184 C2183 1.388 . S
C2184 C2185 1.390 . S
C2185 C2184 1.390 . S
C2185 C2186 1.394 . S
C2185 C2191 1.465 . S
C2186 C2181 1.399 . S
C2186 C2185 1.394 . S
C2186 C2187 1.516 . S
C2187 C2186 1.516 . S
C2187 C2188 1.502 . S
C2187 C2189 1.561 . S
C2187 C2190 1.526 . S
C2188 H2172 0.959 . S
C2188 H2173 0.959 . S
C2188 H2174 0.961 . S
C2188 C2187 1.502 . S
C2189 H2175 0.960 . S
C2189 H2176 0.961 . S
C2189 H2177 0.959 . S
C2189 C2187 1.561 . S
C2190 C2187 1.526 . S
C2190 C2191 1.396 . S
C2190 C2195 1.390 . S
C2191 C2185 1.465 . S
C2191 C2190 1.396 . S
C2191 C2192 1.399 . S
C2192 H2178 0.929 . S
C2192 C2191 1.399 . S
C2192 C2193 1.385 . S
C2193 H2179 0.931 . S
C2193 C2192 1.385 . S
C2193 C2194 1.389 . S
C2194 C2193 1.389 . S
C2194 C2195 1.387 . S
C2195 H2180 0.930 . S
C2195 C2190 1.390 . S
C2195 C2194 1.387 . S
H2196 C2208 0.930 . S
H2197 C2210 0.930 . S
H2198 C2211 0.930 . S
H2199 C2215 0.959 . S
H2200 C2215 0.959 . S
H2201 C2215 0.961 . S
H2202 C2216 0.960 . S
H2203 C2216 0.961 . S
H2204 C2216 0.959 . S
H2205 C2219 0.929 . S
H2206 C2220 0.931 . S
H2207 C2222 0.930 . S
C2208 H2196 0.930 . S
C2208 C2209 1.399 . S
C2208 C2213 1.399 . S
C2209 C2208 1.399 . S
C2209 C2210 1.376 . S
C2210 H2197 0.930 . S
C2210 C2209 1.376 . S
C2210 C2211 1.388 . S
C2211 H2198 0.930 . S
C2211 C2210 1.388 . S
C2211 C2212 1.390 . S
C2212 C2211 1.390 . S
C2212 C2213 1.394 . S
C2212 C2218 1.465 . S
C2213 C2208 1.399 . S
C2213 C2212 1.394 . S
C2213 C2214 1.516 . S
C2214 C2213 1.516 . S
C2214 C2215 1.502 . S
C2214 C2216 1.561 . S
C2214 C2217 1.526 . S
C2215 H2199 0.959 . S
C2215 H2200 0.959 . S
C2215 H2201 0.961 . S
C2215 C2214 1.502 . S
C2216 H2202 0.960 . S
C2216 H2203 0.961 . S
C2216 H2204 0.959 . S
C2216 C2214 1.561 . S
C2217 C2214 1.526 . S
C2217 C2218 1.396 . S
C2217 C2222 1.390 . S
C2218 C2212 1.465 . S
C2218 C2217 1.396 . S
C2218 C2219 1.399 . S
C2219 H2205 0.929 . S
C2219 C2218 1.399 . S
C2219 C2220 1.385 . S
C2220 H2206 0.931 . S
C2220 C2219 1.385 . S
C2220 C2221 1.389 . S
C2221 C2220 1.389 . S
C2221 C2222 1.387 . S
C2222 H2207 0.930 . S
C2222 C2217 1.390 . S
C2222 C2221 1.387 . S
H2223 C2235 0.930 . S
H2224 C2237 0.930 . S
H2225 C2238 0.930 . S
H2226 C2242 0.959 . S
H2227 C2242 0.959 . S
H2228 C2242 0.961 . S
H2229 C2243 0.960 . S
H2230 C2243 0.961 . S
H2231 C2243 0.959 . S
H2232 C2246 0.929 . S
H2233 C2247 0.931 . S
H2234 C2249 0.930 . S
C2235 H2223 0.930 . S
C2235 C2236 1.399 . S
C2235 C2240 1.399 . S
C2236 C2235 1.399 . S
C2236 C2237 1.376 . S
C2237 H2224 0.930 . S
C2237 C2236 1.376 . S
C2237 C2238 1.388 . S
C2238 H2225 0.930 . S
C2238 C2237 1.388 . S
C2238 C2239 1.390 . S
C2239 C2238 1.390 . S
C2239 C2240 1.394 . S
C2239 C2245 1.465 . S
C2240 C2235 1.399 . S
C2240 C2239 1.394 . S
C2240 C2241 1.516 . S
C2241 C2240 1.516 . S
C2241 C2242 1.502 . S
C2241 C2243 1.561 . S
C2241 C2244 1.526 . S
C2242 H2226 0.959 . S
C2242 H2227 0.959 . S
C2242 H2228 0.961 . S
C2242 C2241 1.502 . S
C2243 H2229 0.960 . S
C2243 H2230 0.961 . S
C2243 H2231 0.959 . S
C2243 C2241 1.561 . S
C2244 C2241 1.526 . S
C2244 C2245 1.396 . S
C2244 C2249 1.390 . S
C2245 C2239 1.465 . S
C2245 C2244 1.396 . S
C2245 C2246 1.399 . S
C2246 H2232 0.929 . S
C2246 C2245 1.399 . S
C2246 C2247 1.385 . S
C2247 H2233 0.931 . S
C2247 C2246 1.385 . S
C2247 C2248 1.389 . S
C2248 C2247 1.389 . S
C2248 C2249 1.387 . S
C2249 H2234 0.930 . S
C2249 C2244 1.390 . S
C2249 C2248 1.387 . S
H2250 C2262 0.930 . S
H2251 C2264 0.930 . S
H2252 C2265 0.930 . S
H2253 C2269 0.959 . S
H2254 C2269 0.959 . S
H2255 C2269 0.961 . S
H2256 C2270 0.960 . S
H2257 C2270 0.961 . S
H2258 C2270 0.959 . S
H2259 C2273 0.929 . S
H2260 C2274 0.931 . S
H2261 C2276 0.930 . S
C2262 H2250 0.930 . S
C2262 C2263 1.399 . S
C2262 C2267 1.399 . S
C2263 C2262 1.399 . S
C2263 C2264 1.376 . S
C2264 H2251 0.930 . S
C2264 C2263 1.376 . S
C2264 C2265 1.388 . S
C2265 H2252 0.930 . S
C2265 C2264 1.388 . S
C2265 C2266 1.390 . S
C2266 C2265 1.390 . S
C2266 C2267 1.394 . S
C2266 C2272 1.465 . S
C2267 C2262 1.399 . S
C2267 C2266 1.394 . S
C2267 C2268 1.516 . S
C2268 C2267 1.516 . S
C2268 C2269 1.502 . S
C2268 C2270 1.561 . S
C2268 C2271 1.526 . S
C2269 H2253 0.959 . S
C2269 H2254 0.959 . S
C2269 H2255 0.961 . S
C2269 C2268 1.502 . S
C2270 H2256 0.960 . S
C2270 H2257 0.961 . S
C2270 H2258 0.959 . S
C2270 C2268 1.561 . S
C2271 C2268 1.526 . S
C2271 C2272 1.396 . S
C2271 C2276 1.390 . S
C2272 C2266 1.465 . S
C2272 C2271 1.396 . S
C2272 C2273 1.399 . S
C2273 H2259 0.929 . S
C2273 C2272 1.399 . S
C2273 C2274 1.385 . S
C2274 H2260 0.931 . S
C2274 C2273 1.385 . S
C2274 C2275 1.389 . S
C2275 C2274 1.389 . S
C2275 C2276 1.387 . S
C2276 H2261 0.930 . S
C2276 C2271 1.390 . S
C2276 C2275 1.387 . S
H2277 C2289 0.930 . S
H2278 C2291 0.930 . S
H2279 C2292 0.930 . S
H2280 C2296 0.959 . S
H2281 C2296 0.959 . S
H2282 C2296 0.961 . S
H2283 C2297 0.960 . S
H2284 C2297 0.961 . S
H2285 C2297 0.959 . S
H2286 C2300 0.929 . S
H2287 C2301 0.931 . S
H2288 C2303 0.930 . S
C2289 H2277 0.930 . S
C2289 C2290 1.399 . S
C2289 C2294 1.399 . S
C2290 C2289 1.399 . S
C2290 C2291 1.376 . S
C2291 H2278 0.930 . S
C2291 C2290 1.376 . S
C2291 C2292 1.388 . S
C2292 H2279 0.930 . S
C2292 C2291 1.388 . S
C2292 C2293 1.390 . S
C2293 C2292 1.390 . S
C2293 C2294 1.394 . S
C2293 C2299 1.465 . S
C2294 C2289 1.399 . S
C2294 C2293 1.394 . S
C2294 C2295 1.516 . S
C2295 C2294 1.516 . S
C2295 C2296 1.502 . S
C2295 C2297 1.561 . S
C2295 C2298 1.526 . S
C2296 H2280 0.959 . S
C2296 H2281 0.959 . S
C2296 H2282 0.961 . S
C2296 C2295 1.502 . S
C2297 H2283 0.960 . S
C2297 H2284 0.961 . S
C2297 H2285 0.959 . S
C2297 C2295 1.561 . S
C2298 C2295 1.526 . S
C2298 C2299 1.396 . S
C2298 C2303 1.390 . S
C2299 C2293 1.465 . S
C2299 C2298 1.396 . S
C2299 C2300 1.399 . S
C2300 H2286 0.929 . S
C2300 C2299 1.399 . S
C2300 C2301 1.385 . S
C2301 H2287 0.931 . S
C2301 C2300 1.385 . S
C2301 C2302 1.389 . S
C2302 C2301 1.389 . S
C2302 C2303 1.387 . S
C2303 H2288 0.930 . S
C2303 C2298 1.390 . S
C2303 C2302 1.387 . S
H2304 C2316 0.930 . S
H2305 C2318 0.930 . S
H2306 C2319 0.930 . S
H2307 C2323 0.959 . S
H2308 C2323 0.959 . S
H2309 C2323 0.961 . S
H2310 C2324 0.960 . S
H2311 C2324 0.961 . S
H2312 C2324 0.959 . S
H2313 C2327 0.929 . S
H2314 C2328 0.931 . S
H2315 C2330 0.930 . S
C2316 H2304 0.930 . S
C2316 C2317 1.399 . S
C2316 C2321 1.399 . S
C2317 C2316 1.399 . S
C2317 C2318 1.376 . S
C2318 H2305 0.930 . S
C2318 C2317 1.376 . S
C2318 C2319 1.388 . S
C2319 H2306 0.930 . S
C2319 C2318 1.388 . S
C2319 C2320 1.390 . S
C2320 C2319 1.390 . S
C2320 C2321 1.394 . S
C2320 C2326 1.465 . S
C2321 C2316 1.399 . S
C2321 C2320 1.394 . S
C2321 C2322 1.516 . S
C2322 C2321 1.516 . S
C2322 C2323 1.502 . S
C2322 C2324 1.561 . S
C2322 C2325 1.526 . S
C2323 H2307 0.959 . S
C2323 H2308 0.959 . S
C2323 H2309 0.961 . S
C2323 C2322 1.502 . S
C2324 H2310 0.960 . S
C2324 H2311 0.961 . S
C2324 H2312 0.959 . S
C2324 C2322 1.561 . S
C2325 C2322 1.526 . S
C2325 C2326 1.396 . S
C2325 C2330 1.390 . S
C2326 C2320 1.465 . S
C2326 C2325 1.396 . S
C2326 C2327 1.399 . S
C2327 H2313 0.929 . S
C2327 C2326 1.399 . S
C2327 C2328 1.385 . S
C2328 H2314 0.931 . S
C2328 C2327 1.385 . S
C2328 C2329 1.389 . S
C2329 C2328 1.389 . S
C2329 C2330 1.387 . S
C2330 H2315 0.930 . S
C2330 C2325 1.390 . S
C2330 C2329 1.387 . S
H2331 C2343 0.930 . S
H2332 C2345 0.930 . S
H2333 C2346 0.930 . S
H2334 C2350 0.959 . S
H2335 C2350 0.959 . S
H2336 C2350 0.961 . S
H2337 C2351 0.960 . S
H2338 C2351 0.961 . S
H2339 C2351 0.959 . S
H2340 C2354 0.929 . S
H2341 C2355 0.931 . S
H2342 C2357 0.930 . S
C2343 H2331 0.930 . S
C2343 C2344 1.399 . S
C2343 C2348 1.399 . S
C2344 C2343 1.399 . S
C2344 C2345 1.376 . S
C2345 H2332 0.930 . S
C2345 C2344 1.376 . S
C2345 C2346 1.388 . S
C2346 H2333 0.930 . S
C2346 C2345 1.388 . S
C2346 C2347 1.390 . S
C2347 C2346 1.390 . S
C2347 C2348 1.394 . S
C2347 C2353 1.465 . S
C2348 C2343 1.399 . S
C2348 C2347 1.394 . S
C2348 C2349 1.516 . S
C2349 C2348 1.516 . S
C2349 C2350 1.502 . S
C2349 C2351 1.561 . S
C2349 C2352 1.526 . S
C2350 H2334 0.959 . S
C2350 H2335 0.959 . S
C2350 H2336 0.961 . S
C2350 C2349 1.502 . S
C2351 H2337 0.960 . S
C2351 H2338 0.961 . S
C2351 H2339 0.959 . S
C2351 C2349 1.561 . S
C2352 C2349 1.526 . S
C2352 C2353 1.396 . S
C2352 C2357 1.390 . S
C2353 C2347 1.465 . S
C2353 C2352 1.396 . S
C2353 C2354 1.399 . S
C2354 H2340 0.929 . S
C2354 C2353 1.399 . S
C2354 C2355 1.385 . S
C2355 H2341 0.931 . S
C2355 C2354 1.385 . S
C2355 C2356 1.389 . S
C2356 C2355 1.389 . S
C2356 C2357 1.387 . S
C2357 H2342 0.930 . S
C2357 C2352 1.390 . S
C2357 C2356 1.387 . S
H2358 C2370 0.930 . S
H2359 C2372 0.930 . S
H2360 C2373 0.930 . S
H2361 C2377 0.959 . S
H2362 C2377 0.959 . S
H2363 C2377 0.961 . S
H2364 C2378 0.960 . S
H2365 C2378 0.961 . S
H2366 C2378 0.959 . S
H2367 C2381 0.929 . S
H2368 C2382 0.931 . S
H2369 C2384 0.930 . S
C2370 H2358 0.930 . S
C2370 C2371 1.399 . S
C2370 C2375 1.399 . S
C2371 C2370 1.399 . S
C2371 C2372 1.376 . S
C2372 H2359 0.930 . S
C2372 C2371 1.376 . S
C2372 C2373 1.388 . S
C2373 H2360 0.930 . S
C2373 C2372 1.388 . S
C2373 C2374 1.390 . S
C2374 C2373 1.390 . S
C2374 C2375 1.394 . S
C2374 C2380 1.465 . S
C2375 C2370 1.399 . S
C2375 C2374 1.394 . S
C2375 C2376 1.516 . S
C2376 C2375 1.516 . S
C2376 C2377 1.502 . S
C2376 C2378 1.561 . S
C2376 C2379 1.526 . S
C2377 H2361 0.959 . S
C2377 H2362 0.959 . S
C2377 H2363 0.961 . S
C2377 C2376 1.502 . S
C2378 H2364 0.960 . S
C2378 H2365 0.961 . S
C2378 H2366 0.959 . S
C2378 C2376 1.561 . S
C2379 C2376 1.526 . S
C2379 C2380 1.396 . S
C2379 C2384 1.390 . S
C2380 C2374 1.465 . S
C2380 C2379 1.396 . S
C2380 C2381 1.399 . S
C2381 H2367 0.929 . S
C2381 C2380 1.399 . S
C2381 C2382 1.385 . S
C2382 H2368 0.931 . S
C2382 C2381 1.385 . S
C2382 C2383 1.389 . S
C2383 C2382 1.389 . S
C2383 C2384 1.387 . S
C2384 H2369 0.930 . S
C2384 C2379 1.390 . S
C2384 C2383 1.387 . S
H2385 C2397 0.930 . S
H2386 C2399 0.930 . S
H2387 C2400 0.930 . S
H2388 C2404 0.959 . S
H2389 C2404 0.959 . S
H2390 C2404 0.961 . S
H2391 C2405 0.960 . S
H2392 C2405 0.961 . S
H2393 C2405 0.959 . S
H2394 C2408 0.929 . S
H2395 C2409 0.931 . S
H2396 C2411 0.930 . S
C2397 H2385 0.930 . S
C2397 C2398 1.399 . S
C2397 C2402 1.399 . S
C2398 C2397 1.399 . S
C2398 C2399 1.376 . S
C2399 H2386 0.930 . S
C2399 C2398 1.376 . S
C2399 C2400 1.388 . S
C2400 H2387 0.930 . S
C2400 C2399 1.388 . S
C2400 C2401 1.390 . S
C2401 C2400 1.390 . S
C2401 C2402 1.394 . S
C2401 C2407 1.465 . S
C2402 C2397 1.399 . S
C2402 C2401 1.394 . S
C2402 C2403 1.516 . S
C2403 C2402 1.516 . S
C2403 C2404 1.502 . S
C2403 C2405 1.561 . S
C2403 C2406 1.526 . S
C2404 H2388 0.959 . S
C2404 H2389 0.959 . S
C2404 H2390 0.961 . S
C2404 C2403 1.502 . S
C2405 H2391 0.960 . S
C2405 H2392 0.961 . S
C2405 H2393 0.959 . S
C2405 C2403 1.561 . S
C2406 C2403 1.526 . S
C2406 C2407 1.396 . S
C2406 C2411 1.390 . S
C2407 C2401 1.465 . S
C2407 C2406 1.396 . S
C2407 C2408 1.399 . S
C2408 H2394 0.929 . S
C2408 C2407 1.399 . S
C2408 C2409 1.385 . S
C2409 H2395 0.931 . S
C2409 C2408 1.385 . S
C2409 C2410 1.389 . S
C2410 C2409 1.389 . S
C2410 C2411 1.387 . S
C2411 H2396 0.930 . S
C2411 C2406 1.390 . S
C2411 C2410 1.387 . S
H2412 C2424 0.930 . S
H2413 C2426 0.930 . S
H2414 C2427 0.930 . S
H2415 C2431 0.959 . S
H2416 C2431 0.959 . S
H2417 C2431 0.961 . S
H2418 C2432 0.960 . S
H2419 C2432 0.961 . S
H2420 C2432 0.959 . S
H2421 C2435 0.929 . S
H2422 C2436 0.931 . S
H2423 C2438 0.930 . S
C2424 H2412 0.930 . S
C2424 C2425 1.399 . S
C2424 C2429 1.399 . S
C2425 C2424 1.399 . S
C2425 C2426 1.376 . S
C2426 H2413 0.930 . S
C2426 C2425 1.376 . S
C2426 C2427 1.388 . S
C2427 H2414 0.930 . S
C2427 C2426 1.388 . S
C2427 C2428 1.390 . S
C2428 C2427 1.390 . S
C2428 C2429 1.394 . S
C2428 C2434 1.465 . S
C2429 C2424 1.399 . S
C2429 C2428 1.394 . S
C2429 C2430 1.516 . S
C2430 C2429 1.516 . S
C2430 C2431 1.502 . S
C2430 C2432 1.561 . S
C2430 C2433 1.526 . S
C2431 H2415 0.959 . S
C2431 H2416 0.959 . S
C2431 H2417 0.961 . S
C2431 C2430 1.502 . S
C2432 H2418 0.960 . S
C2432 H2419 0.961 . S
C2432 H2420 0.959 . S
C2432 C2430 1.561 . S
C2433 C2430 1.526 . S
C2433 C2434 1.396 . S
C2433 C2438 1.390 . S
C2434 C2428 1.465 . S
C2434 C2433 1.396 . S
C2434 C2435 1.399 . S
C2435 H2421 0.929 . S
C2435 C2434 1.399 . S
C2435 C2436 1.385 . S
C2436 H2422 0.931 . S
C2436 C2435 1.385 . S
C2436 C2437 1.389 . S
C2437 C2436 1.389 . S
C2437 C2438 1.387 . S
C2438 H2423 0.930 . S
C2438 C2433 1.390 . S
C2438 C2437 1.387 . S
H2439 C2451 0.930 . S
H2440 C2453 0.930 . S
H2441 C2454 0.930 . S
H2442 C2458 0.959 . S
H2443 C2458 0.959 . S
H2444 C2458 0.961 . S
H2445 C2459 0.960 . S
H2446 C2459 0.961 . S
H2447 C2459 0.959 . S
H2448 C2462 0.929 . S
H2449 C2463 0.931 . S
H2450 C2465 0.930 . S
C2451 H2439 0.930 . S
C2451 C2452 1.399 . S
C2451 C2456 1.399 . S
C2452 C2451 1.399 . S
C2452 C2453 1.376 . S
C2453 H2440 0.930 . S
C2453 C2452 1.376 . S
C2453 C2454 1.388 . S
C2454 H2441 0.930 . S
C2454 C2453 1.388 . S
C2454 C2455 1.390 . S
C2455 C2454 1.390 . S
C2455 C2456 1.394 . S
C2455 C2461 1.465 . S
C2456 C2451 1.399 . S
C2456 C2455 1.394 . S
C2456 C2457 1.516 . S
C2457 C2456 1.516 . S
C2457 C2458 1.502 . S
C2457 C2459 1.561 . S
C2457 C2460 1.526 . S
C2458 H2442 0.959 . S
C2458 H2443 0.959 . S
C2458 H2444 0.961 . S
C2458 C2457 1.502 . S
C2459 H2445 0.960 . S
C2459 H2446 0.961 . S
C2459 H2447 0.959 . S
C2459 C2457 1.561 . S
C2460 C2457 1.526 . S
C2460 C2461 1.396 . S
C2460 C2465 1.390 . S
C2461 C2455 1.465 . S
C2461 C2460 1.396 . S
C2461 C2462 1.399 . S
C2462 H2448 0.929 . S
C2462 C2461 1.399 . S
C2462 C2463 1.385 . S
C2463 H2449 0.931 . S
C2463 C2462 1.385 . S
C2463 C2464 1.389 . S
C2464 C2463 1.389 . S
C2464 C2465 1.387 . S
C2465 H2450 0.930 . S
C2465 C2460 1.390 . S
C2465 C2464 1.387 . S
H2466 C2478 0.930 . S
H2467 C2480 0.930 . S
H2468 C2481 0.930 . S
H2469 C2485 0.959 . S
H2470 C2485 0.959 . S
H2471 C2485 0.961 . S
H2472 C2486 0.960 . S
H2473 C2486 0.961 . S
H2474 C2486 0.959 . S
H2475 C2489 0.929 . S
H2476 C2490 0.931 . S
H2477 C2492 0.930 . S
C2478 H2466 0.930 . S
C2478 C2479 1.399 . S
C2478 C2483 1.399 . S
C2479 C2478 1.399 . S
C2479 C2480 1.376 . S
C2480 H2467 0.930 . S
C2480 C2479 1.376 . S
C2480 C2481 1.388 . S
C2481 H2468 0.930 . S
C2481 C2480 1.388 . S
C2481 C2482 1.390 . S
C2482 C2481 1.390 . S
C2482 C2483 1.394 . S
C2482 C2488 1.465 . S
C2483 C2478 1.399 . S
C2483 C2482 1.394 . S
C2483 C2484 1.516 . S
C2484 C2483 1.516 . S
C2484 C2485 1.502 . S
C2484 C2486 1.561 . S
C2484 C2487 1.526 . S
C2485 H2469 0.959 . S
C2485 H2470 0.959 . S
C2485 H2471 0.961 . S
C2485 C2484 1.502 . S
C2486 H2472 0.960 . S
C2486 H2473 0.961 . S
C2486 H2474 0.959 . S
C2486 C2484 1.561 . S
C2487 C2484 1.526 . S
C2487 C2488 1.396 . S
C2487 C2492 1.390 . S
C2488 C2482 1.465 . S
C2488 C2487 1.396 . S
C2488 C2489 1.399 . S
C2489 H2475 0.929 . S
C2489 C2488 1.399 . S
C2489 C2490 1.385 . S
C2490 H2476 0.931 . S
C2490 C2489 1.385 . S
C2490 C2491 1.389 . S
C2491 C2490 1.389 . S
C2491 C2492 1.387 . S
C2492 H2477 0.930 . S
C2492 C2487 1.390 . S
C2492 C2491 1.387 . S
H2493 C2505 0.930 . S
H2494 C2507 0.930 . S
H2495 C2508 0.930 . S
H2496 C2512 0.959 . S
H2497 C2512 0.959 . S
H2498 C2512 0.961 . S
H2499 C2513 0.960 . S
H2500 C2513 0.961 . S
H2501 C2513 0.959 . S
H2502 C2516 0.929 . S
H2503 C2517 0.931 . S
H2504 C2519 0.930 . S
C2505 H2493 0.930 . S
C2505 C2506 1.399 . S
C2505 C2510 1.399 . S
C2506 C2505 1.399 . S
C2506 C2507 1.376 . S
C2507 H2494 0.930 . S
C2507 C2506 1.376 . S
C2507 C2508 1.388 . S
C2508 H2495 0.930 . S
C2508 C2507 1.388 . S
C2508 C2509 1.390 . S
C2509 C2508 1.390 . S
C2509 C2510 1.394 . S
C2509 C2515 1.465 . S
C2510 C2505 1.399 . S
C2510 C2509 1.394 . S
C2510 C2511 1.516 . S
C2511 C2510 1.516 . S
C2511 C2512 1.502 . S
C2511 C2513 1.561 . S
C2511 C2514 1.526 . S
C2512 H2496 0.959 . S
C2512 H2497 0.959 . S
C2512 H2498 0.961 . S
C2512 C2511 1.502 . S
C2513 H2499 0.960 . S
C2513 H2500 0.961 . S
C2513 H2501 0.959 . S
C2513 C2511 1.561 . S
C2514 C2511 1.526 . S
C2514 C2515 1.396 . S
C2514 C2519 1.390 . S
C2515 C2509 1.465 . S
C2515 C2514 1.396 . S
C2515 C2516 1.399 . S
C2516 H2502 0.929 . S
C2516 C2515 1.399 . S
C2516 C2517 1.385 . S
C2517 H2503 0.931 . S
C2517 C2516 1.385 . S
C2517 C2518 1.389 . S
C2518 C2517 1.389 . S
C2518 C2519 1.387 . S
C2519 H2504 0.930 . S
C2519 C2514 1.390 . S
C2519 C2518 1.387 . S
H2520 C2532 0.930 . S
H2521 C2534 0.930 . S
H2522 C2535 0.930 . S
H2523 C2539 0.959 . S
H2524 C2539 0.959 . S
H2525 C2539 0.961 . S
H2526 C2540 0.960 . S
H2527 C2540 0.961 . S
H2528 C2540 0.959 . S
H2529 C2543 0.929 . S
H2530 C2544 0.931 . S
H2531 C2546 0.930 . S
C2532 H2520 0.930 . S
C2532 C2533 1.399 . S
C2532 C2537 1.399 . S
C2533 C2532 1.399 . S
C2533 C2534 1.376 . S
C2534 H2521 0.930 . S
C2534 C2533 1.376 . S
C2534 C2535 1.388 . S
C2535 H2522 0.930 . S
C2535 C2534 1.388 . S
C2535 C2536 1.390 . S
C2536 C2535 1.390 . S
C2536 C2537 1.394 . S
C2536 C2542 1.465 . S
C2537 C2532 1.399 . S
C2537 C2536 1.394 . S
C2537 C2538 1.516 . S
C2538 C2537 1.516 . S
C2538 C2539 1.502 . S
C2538 C2540 1.561 . S
C2538 C2541 1.526 . S
C2539 H2523 0.959 . S
C2539 H2524 0.959 . S
C2539 H2525 0.961 . S
C2539 C2538 1.502 . S
C2540 H2526 0.960 . S
C2540 H2527 0.961 . S
C2540 H2528 0.959 . S
C2540 C2538 1.561 . S
C2541 C2538 1.526 . S
C2541 C2542 1.396 . S
C2541 C2546 1.390 . S
C2542 C2536 1.465 . S
C2542 C2541 1.396 . S
C2542 C2543 1.399 . S
C2543 H2529 0.929 . S
C2543 C2542 1.399 . S
C2543 C2544 1.385 . S
C2544 H2530 0.931 . S
C2544 C2543 1.385 . S
C2544 C2545 1.389 . S
C2545 C2544 1.389 . S
C2545 C2546 1.387 . S
C2546 H2531 0.930 . S
C2546 C2541 1.390 . S
C2546 C2545 1.387 . S
H2547 C2559 0.930 . S
H2548 C2561 0.930 . S
H2549 C2562 0.930 . S
H2550 C2566 0.959 . S
H2551 C2566 0.959 . S
H2552 C2566 0.961 . S
H2553 C2567 0.960 . S
H2554 C2567 0.961 . S
H2555 C2567 0.959 . S
H2556 C2570 0.929 . S
H2557 C2571 0.931 . S
H2558 C2573 0.930 . S
C2559 H2547 0.930 . S
C2559 C2560 1.399 . S
C2559 C2564 1.399 . S
C2560 C2559 1.399 . S
C2560 C2561 1.376 . S
C2561 H2548 0.930 . S
C2561 C2560 1.376 . S
C2561 C2562 1.388 . S
C2562 H2549 0.930 . S
C2562 C2561 1.388 . S
C2562 C2563 1.390 . S
C2563 C2562 1.390 . S
C2563 C2564 1.394 . S
C2563 C2569 1.465 . S
C2564 C2559 1.399 . S
C2564 C2563 1.394 . S
C2564 C2565 1.516 . S
C2565 C2564 1.516 . S
C2565 C2566 1.502 . S
C2565 C2567 1.561 . S
C2565 C2568 1.526 . S
C2566 H2550 0.959 . S
C2566 H2551 0.959 . S
C2566 H2552 0.961 . S
C2566 C2565 1.502 . S
C2567 H2553 0.960 . S
C2567 H2554 0.961 . S
C2567 H2555 0.959 . S
C2567 C2565 1.561 . S
C2568 C2565 1.526 . S
C2568 C2569 1.396 . S
C2568 C2573 1.390 . S
C2569 C2563 1.465 . S
C2569 C2568 1.396 . S
C2569 C2570 1.399 . S
C2570 H2556 0.929 . S
C2570 C2569 1.399 . S
C2570 C2571 1.385 . S
C2571 H2557 0.931 . S
C2571 C2570 1.385 . S
C2571 C2572 1.389 . S
C2572 C2571 1.389 . S
C2572 C2573 1.387 . S
C2573 H2558 0.930 . S
C2573 C2568 1.390 . S
C2573 C2572 1.387 . S
H2574 C2586 0.930 . S
H2575 C2588 0.930 . S
H2576 C2589 0.930 . S
H2577 C2593 0.959 . S
H2578 C2593 0.959 . S
H2579 C2593 0.961 . S
H2580 C2594 0.960 . S
H2581 C2594 0.961 . S
H2582 C2594 0.959 . S
H2583 C2597 0.929 . S
H2584 C2598 0.931 . S
H2585 C2600 0.930 . S
C2586 H2574 0.930 . S
C2586 C2587 1.399 . S
C2586 C2591 1.399 . S
C2587 C2586 1.399 . S
C2587 C2588 1.376 . S
C2588 H2575 0.930 . S
C2588 C2587 1.376 . S
C2588 C2589 1.388 . S
C2589 H2576 0.930 . S
C2589 C2588 1.388 . S
C2589 C2590 1.390 . S
C2590 C2589 1.390 . S
C2590 C2591 1.394 . S
C2590 C2596 1.465 . S
C2591 C2586 1.399 . S
C2591 C2590 1.394 . S
C2591 C2592 1.516 . S
C2592 C2591 1.516 . S
C2592 C2593 1.502 . S
C2592 C2594 1.561 . S
C2592 C2595 1.526 . S
C2593 H2577 0.959 . S
C2593 H2578 0.959 . S
C2593 H2579 0.961 . S
C2593 C2592 1.502 . S
C2594 H2580 0.960 . S
C2594 H2581 0.961 . S
C2594 H2582 0.959 . S
C2594 C2592 1.561 . S
C2595 C2592 1.526 . S
C2595 C2596 1.396 . S
C2595 C2600 1.390 . S
C2596 C2590 1.465 . S
C2596 C2595 1.396 . S
C2596 C2597 1.399 . S
C2597 H2583 0.929 . S
C2597 C2596 1.399 . S
C2597 C2598 1.385 . S
C2598 H2584 0.931 . S
C2598 C2597 1.385 . S
C2598 C2599 1.389 . S
C2599 C2598 1.389 . S
C2599 C2600 1.387 . S
C2600 H2585 0.930 . S
C2600 C2595 1.390 . S
C2600 C2599 1.387 . S
H2601 C2613 0.930 . S
H2602 C2615 0.930 . S
H2603 C2616 0.930 . S
H2604 C2620 0.959 . S
H2605 C2620 0.959 . S
H2606 C2620 0.961 . S
H2607 C2621 0.960 . S
H2608 C2621 0.961 . S
H2609 C2621 0.959 . S
H2610 C2624 0.929 . S
H2611 C2625 0.931 . S
H2612 C2627 0.930 . S
C2613 H2601 0.930 . S
C2613 C2614 1.399 . S
C2613 C2618 1.399 . S
C2614 C2613 1.399 . S
C2614 C2615 1.376 . S
C2615 H2602 0.930 . S
C2615 C2614 1.376 . S
C2615 C2616 1.388 . S
C2616 H2603 0.930 . S
C2616 C2615 1.388 . S
C2616 C2617 1.390 . S
C2617 C2616 1.390 . S
C2617 C2618 1.394 . S
C2617 C2623 1.465 . S
C2618 C2613 1.399 . S
C2618 C2617 1.394 . S
C2618 C2619 1.516 . S
C2619 C2618 1.516 . S
C2619 C2620 1.502 . S
C2619 C2621 1.561 . S
C2619 C2622 1.526 . S
C2620 H2604 0.959 . S
C2620 H2605 0.959 . S
C2620 H2606 0.961 . S
C2620 C2619 1.502 . S
C2621 H2607 0.960 . S
C2621 H2608 0.961 . S
C2621 H2609 0.959 . S
C2621 C2619 1.561 . S
C2622 C2619 1.526 . S
C2622 C2623 1.396 . S
C2622 C2627 1.390 . S
C2623 C2617 1.465 . S
C2623 C2622 1.396 . S
C2623 C2624 1.399 . S
C2624 H2610 0.929 . S
C2624 C2623 1.399 . S
C2624 C2625 1.385 . S
C2625 H2611 0.931 . S
C2625 C2624 1.385 . S
C2625 C2626 1.389 . S
C2626 C2625 1.389 . S
C2626 C2627 1.387 . S
C2627 H2612 0.930 . S
C2627 C2622 1.390 . S
C2627 C2626 1.387 . S
H2628 C2640 0.930 . S
H2629 C2642 0.930 . S
H2630 C2643 0.930 . S
H2631 C2647 0.959 . S
H2632 C2647 0.959 . S
H2633 C2647 0.961 . S
H2634 C2648 0.960 . S
H2635 C2648 0.961 . S
H2636 C2648 0.959 . S
H2637 C2651 0.929 . S
H2638 C2652 0.931 . S
H2639 C2654 0.930 . S
C2640 H2628 0.930 . S
C2640 C2641 1.399 . S
C2640 C2645 1.399 . S
C2641 C2640 1.399 . S
C2641 C2642 1.376 . S
C2642 H2629 0.930 . S
C2642 C2641 1.376 . S
C2642 C2643 1.388 . S
C2643 H2630 0.930 . S
C2643 C2642 1.388 . S
C2643 C2644 1.390 . S
C2644 C2643 1.390 . S
C2644 C2645 1.394 . S
C2644 C2650 1.465 . S
C2645 C2640 1.399 . S
C2645 C2644 1.394 . S
C2645 C2646 1.516 . S
C2646 C2645 1.516 . S
C2646 C2647 1.502 . S
C2646 C2648 1.561 . S
C2646 C2649 1.526 . S
C2647 H2631 0.959 . S
C2647 H2632 0.959 . S
C2647 H2633 0.961 . S
C2647 C2646 1.502 . S
C2648 H2634 0.960 . S
C2648 H2635 0.961 . S
C2648 H2636 0.959 . S
C2648 C2646 1.561 . S
C2649 C2646 1.526 . S
C2649 C2650 1.396 . S
C2649 C2654 1.390 . S
C2650 C2644 1.465 . S
C2650 C2649 1.396 . S
C2650 C2651 1.399 . S
C2651 H2637 0.929 . S
C2651 C2650 1.399 . S
C2651 C2652 1.385 . S
C2652 H2638 0.931 . S
C2652 C2651 1.385 . S
C2652 C2653 1.389 . S
C2653 C2652 1.389 . S
C2653 C2654 1.387 . S
C2654 H2639 0.930 . S
C2654 C2649 1.390 . S
C2654 C2653 1.387 . S
H2655 C2667 0.930 . S
H2656 C2669 0.930 . S
H2657 C2670 0.930 . S
H2658 C2674 0.959 . S
H2659 C2674 0.959 . S
H2660 C2674 0.961 . S
H2661 C2675 0.960 . S
H2662 C2675 0.961 . S
H2663 C2675 0.959 . S
H2664 C2678 0.929 . S
H2665 C2679 0.931 . S
H2666 C2681 0.930 . S
C2667 H2655 0.930 . S
C2667 C2668 1.399 . S
C2667 C2672 1.399 . S
C2668 C2667 1.399 . S
C2668 C2669 1.376 . S
C2669 H2656 0.930 . S
C2669 C2668 1.376 . S
C2669 C2670 1.388 . S
C2670 H2657 0.930 . S
C2670 C2669 1.388 . S
C2670 C2671 1.390 . S
C2671 C2670 1.390 . S
C2671 C2672 1.394 . S
C2671 C2677 1.465 . S
C2672 C2667 1.399 . S
C2672 C2671 1.394 . S
C2672 C2673 1.516 . S
C2673 C2672 1.516 . S
C2673 C2674 1.502 . S
C2673 C2675 1.561 . S
C2673 C2676 1.526 . S
C2674 H2658 0.959 . S
C2674 H2659 0.959 . S
C2674 H2660 0.961 . S
C2674 C2673 1.502 . S
C2675 H2661 0.960 . S
C2675 H2662 0.961 . S
C2675 H2663 0.959 . S
C2675 C2673 1.561 . S
C2676 C2673 1.526 . S
C2676 C2677 1.396 . S
C2676 C2681 1.390 . S
C2677 C2671 1.465 . S
C2677 C2676 1.396 . S
C2677 C2678 1.399 . S
C2678 H2664 0.929 . S
C2678 C2677 1.399 . S
C2678 C2679 1.385 . S
C2679 H2665 0.931 . S
C2679 C2678 1.385 . S
C2679 C2680 1.389 . S
C2680 C2679 1.389 . S
C2680 C2681 1.387 . S
C2681 H2666 0.930 . S
C2681 C2676 1.390 . S
C2681 C2680 1.387 . S
H2682 C2694 0.930 . S
H2683 C2696 0.930 . S
H2684 C2697 0.930 . S
H2685 C2701 0.959 . S
H2686 C2701 0.959 . S
H2687 C2701 0.961 . S
H2688 C2702 0.960 . S
H2689 C2702 0.961 . S
H2690 C2702 0.959 . S
H2691 C2705 0.929 . S
H2692 C2706 0.931 . S
H2693 C2708 0.930 . S
C2694 H2682 0.930 . S
C2694 C2695 1.399 . S
C2694 C2699 1.399 . S
C2695 C2694 1.399 . S
C2695 C2696 1.376 . S
C2696 H2683 0.930 . S
C2696 C2695 1.376 . S
C2696 C2697 1.388 . S
C2697 H2684 0.930 . S
C2697 C2696 1.388 . S
C2697 C2698 1.390 . S
C2698 C2697 1.390 . S
C2698 C2699 1.394 . S
C2698 C2704 1.465 . S
C2699 C2694 1.399 . S
C2699 C2698 1.394 . S
C2699 C2700 1.516 . S
C2700 C2699 1.516 . S
C2700 C2701 1.502 . S
C2700 C2702 1.561 . S
C2700 C2703 1.526 . S
C2701 H2685 0.959 . S
C2701 H2686 0.959 . S
C2701 H2687 0.961 . S
C2701 C2700 1.502 . S
C2702 H2688 0.960 . S
C2702 H2689 0.961 . S
C2702 H2690 0.959 . S
C2702 C2700 1.561 . S
C2703 C2700 1.526 . S
C2703 C2704 1.396 . S
C2703 C2708 1.390 . S
C2704 C2698 1.465 . S
C2704 C2703 1.396 . S
C2704 C2705 1.399 . S
C2705 H2691 0.929 . S
C2705 C2704 1.399 . S
C2705 C2706 1.385 . S
C2706 H2692 0.931 . S
C2706 C2705 1.385 . S
C2706 C2707 1.389 . S
C2707 C2706 1.389 . S
C2707 C2708 1.387 . S
C2708 H2693 0.930 . S
C2708 C2703 1.390 . S
C2708 C2707 1.387 . S
H2709 C2721 0.930 . S
H2710 C2723 0.930 . S
H2711 C2724 0.930 . S
H2712 C2728 0.959 . S
H2713 C2728 0.959 . S
H2714 C2728 0.961 . S
H2715 C2729 0.960 . S
H2716 C2729 0.961 . S
H2717 C2729 0.959 . S
H2718 C2732 0.929 . S
H2719 C2733 0.931 . S
H2720 C2735 0.930 . S
C2721 H2709 0.930 . S
C2721 C2722 1.399 . S
C2721 C2726 1.399 . S
C2722 C2721 1.399 . S
C2722 C2723 1.376 . S
C2723 H2710 0.930 . S
C2723 C2722 1.376 . S
C2723 C2724 1.388 . S
C2724 H2711 0.930 . S
C2724 C2723 1.388 . S
C2724 C2725 1.390 . S
C2725 C2724 1.390 . S
C2725 C2726 1.394 . S
C2725 C2731 1.465 . S
C2726 C2721 1.399 . S
C2726 C2725 1.394 . S
C2726 C2727 1.516 . S
C2727 C2726 1.516 . S
C2727 C2728 1.502 . S
C2727 C2729 1.561 . S
C2727 C2730 1.526 . S
C2728 H2712 0.959 . S
C2728 H2713 0.959 . S
C2728 H2714 0.961 . S
C2728 C2727 1.502 . S
C2729 H2715 0.960 . S
C2729 H2716 0.961 . S
C2729 H2717 0.959 . S
C2729 C2727 1.561 . S
C2730 C2727 1.526 . S
C2730 C2731 1.396 . S
C2730 C2735 1.390 . S
C2731 C2725 1.465 . S
C2731 C2730 1.396 . S
C2731 C2732 1.399 . S
C2732 H2718 0.929 . S
C2732 C2731 1.399 . S
C2732 C2733 1.385 . S
C2733 H2719 0.931 . S
C2733 C2732 1.385 . S
C2733 C2734 1.389 . S
C2734 C2733 1.389 . S
C2734 C2735 1.387 . S
C2735 H2720 0.930 . S
C2735 C2730 1.390 . S
C2735 C2734 1.387 . S
H2736 C2748 0.930 . S
H2737 C2750 0.930 . S
H2738 C2751 0.930 . S
H2739 C2755 0.959 . S
H2740 C2755 0.959 . S
H2741 C2755 0.961 . S
H2742 C2756 0.960 . S
H2743 C2756 0.961 . S
H2744 C2756 0.959 . S
H2745 C2759 0.929 1_655 S
H2746 C2760 0.931 . S
H2747 C2762 0.930 . S
C2748 H2736 0.930 . S
C2748 C2749 1.399 . S
C2748 C2753 1.399 . S
C2749 C2748 1.399 . S
C2749 C2750 1.376 . S
C2750 H2737 0.930 . S
C2750 C2749 1.376 . S
C2750 C2751 1.388 . S
C2751 H2738 0.930 . S
C2751 C2750 1.388 . S
C2751 C2752 1.390 . S
C2752 C2751 1.390 . S
C2752 C2753 1.394 . S
C2752 C2758 1.465 1_655 S
C2753 C2748 1.399 . S
C2753 C2752 1.394 . S
C2753 C2754 1.516 1_655 S
C2754 C2753 1.516 1_455 S
C2754 C2755 1.502 . S
C2754 C2756 1.561 . S
C2754 C2757 1.526 . S
C2755 H2739 0.959 . S
C2755 H2740 0.959 . S
C2755 H2741 0.961 . S
C2755 C2754 1.502 . S
C2756 H2742 0.960 . S
C2756 H2743 0.961 . S
C2756 H2744 0.959 . S
C2756 C2754 1.561 . S
C2757 C2754 1.526 . S
C2757 C2758 1.396 . S
C2757 C2762 1.390 . S
C2758 C2752 1.465 1_455 S
C2758 C2757 1.396 . S
C2758 C2759 1.399 . S
C2759 H2745 0.929 1_455 S
C2759 C2758 1.399 . S
C2759 C2760 1.385 . S
C2760 H2746 0.931 . S
C2760 C2759 1.385 . S
C2760 C2761 1.389 . S
C2761 C2760 1.389 . S
C2761 C2762 1.387 . S
C2762 H2747 0.930 . S
C2762 C2757 1.390 . S
C2762 C2761 1.387 . S
H2763 C2775 0.930 . S
H2764 C2777 0.930 . S
H2765 C2778 0.930 . S
H2766 C2782 0.959 . S
H2767 C2782 0.959 . S
H2768 C2782 0.961 . S
H2769 C2783 0.960 . S
H2770 C2783 0.961 . S
H2771 C2783 0.959 . S
H2772 C2786 0.929 . S
H2773 C2787 0.931 . S
H2774 C2789 0.930 . S
C2775 H2763 0.930 . S
C2775 C2776 1.399 . S
C2775 C2780 1.399 . S
C2776 C2775 1.399 . S
C2776 C2777 1.376 . S
C2777 H2764 0.930 . S
C2777 C2776 1.376 . S
C2777 C2778 1.388 . S
C2778 H2765 0.930 . S
C2778 C2777 1.388 . S
C2778 C2779 1.390 . S
C2779 C2778 1.390 . S
C2779 C2780 1.394 . S
C2779 C2785 1.465 . S
C2780 C2775 1.399 . S
C2780 C2779 1.394 . S
C2780 C2781 1.516 . S
C2781 C2780 1.516 . S
C2781 C2782 1.502 . S
C2781 C2783 1.561 . S
C2781 C2784 1.526 . S
C2782 H2766 0.959 . S
C2782 H2767 0.959 . S
C2782 H2768 0.961 . S
C2782 C2781 1.502 . S
C2783 H2769 0.960 . S
C2783 H2770 0.961 . S
C2783 H2771 0.959 . S
C2783 C2781 1.561 . S
C2784 C2781 1.526 . S
C2784 C2785 1.396 . S
C2784 C2789 1.390 . S
C2785 C2779 1.465 . S
C2785 C2784 1.396 . S
C2785 C2786 1.399 . S
C2786 H2772 0.929 . S
C2786 C2785 1.399 . S
C2786 C2787 1.385 . S
C2787 H2773 0.931 . S
C2787 C2786 1.385 . S
C2787 C2788 1.389 . S
C2788 C2787 1.389 . S
C2788 C2789 1.387 . S
C2789 H2774 0.930 . S
C2789 C2784 1.390 . S
C2789 C2788 1.387 . S
H2790 C2802 0.930 . S
H2791 C2804 0.930 . S
H2792 C2805 0.930 . S
H2793 C2809 0.959 . S
H2794 C2809 0.958 . S
H2795 C2809 0.961 . S
H2796 C2810 0.965 . S
H2797 C2810 0.961 . S
H2798 C2810 0.959 . S
H2799 C2813 0.929 . S
H2800 C2814 0.931 . S
H2801 C2816 0.930 . S
C2802 H2790 0.930 . S
C2802 C2803 1.399 . S
C2802 C2807 1.399 . S
C2803 C2802 1.399 . S
C2803 C2804 1.376 . S
C2804 H2791 0.930 . S
C2804 C2803 1.376 . S
C2804 C2805 1.388 . S
C2805 H2792 0.930 . S
C2805 C2804 1.388 . S
C2805 C2806 1.390 . S
C2806 C2805 1.390 . S
C2806 C2807 1.394 . S
C2806 C2812 1.465 1_545 S
C2807 C2802 1.399 . S
C2807 C2806 1.394 . S
C2807 C2808 1.518 . S
C2808 C2807 1.518 . S
C2808 C2809 1.509 . S
C2808 C2810 1.556 1_545 S
C2808 C2811 1.520 1_545 S
C2809 H2793 0.959 . S
C2809 H2794 0.958 . S
C2809 H2795 0.961 . S
C2809 C2808 1.509 . S
C2810 H2796 0.965 . S
C2810 H2797 0.961 . S
C2810 H2798 0.959 . S
C2810 C2808 1.556 1_565 S
C2811 C2808 1.520 1_565 S
C2811 C2812 1.396 . S
C2811 C2816 1.390 . S
C2812 C2806 1.465 1_565 S
C2812 C2811 1.396 . S
C2812 C2813 1.399 . S
C2813 H2799 0.929 . S
C2813 C2812 1.399 . S
C2813 C2814 1.385 . S
C2814 H2800 0.931 . S
C2814 C2813 1.385 . S
C2814 C2815 1.389 . S
C2815 C2814 1.389 . S
C2815 C2816 1.387 . S
C2816 H2801 0.930 . S
C2816 C2811 1.390 . S
C2816 C2815 1.387 . S
H2817 C2829 0.930 . S
H2818 C2831 0.930 . S
H2819 C2832 0.930 . S
H2820 C2836 0.959 . S
H2821 C2836 0.959 . S
H2822 C2836 0.957 1_565 S
H2823 C2837 0.960 . S
H2824 C2837 0.961 . S
H2825 C2837 0.959 . S
H2826 C2840 0.929 . S
H2827 C2841 0.931 . S
H2828 C2843 0.930 . S
C2829 H2817 0.930 . S
C2829 C2830 1.399 1_556 S
C2829 C2834 1.399 . S
C2830 C2829 1.399 1_554 S
C2830 C2831 1.376 . S
C2831 H2818 0.930 . S
C2831 C2830 1.376 . S
C2831 C2832 1.388 . S
C2832 H2819 0.930 . S
C2832 C2831 1.388 . S
C2832 C2833 1.390 . S
C2833 C2832 1.390 . S
C2833 C2834 1.394 1_554 S
C2833 C2839 1.465 1_565 S
C2834 C2829 1.399 . S
C2834 C2833 1.394 1_556 S
C2834 C2835 1.516 . S
C2835 C2834 1.516 . S
C2835 C2836 1.502 1_565 S
C2835 C2837 1.561 . S
C2835 C2838 1.526 1_565 S
C2836 H2820 0.959 . S
C2836 H2821 0.959 . S
C2836 H2822 0.957 1_545 S
C2836 C2835 1.502 1_545 S
C2837 H2823 0.960 . S
C2837 H2824 0.961 . S
C2837 H2825 0.959 . S
C2837 C2835 1.561 . S
C2838 C2835 1.526 1_545 S
C2838 C2839 1.396 1_556 S
C2838 C2843 1.390 . S
C2839 C2833 1.465 1_545 S
C2839 C2838 1.396 1_554 S
C2839 C2840 1.399 . S
C2840 H2826 0.929 . S
C2840 C2839 1.399 . S
C2840 C2841 1.385 . S
C2841 H2827 0.931 . S
C2841 C2840 1.385 . S
C2841 C2842 1.389 1_554 S
C2842 C2841 1.389 1_556 S
C2842 C2843 1.387 . S
C2843 H2828 0.930 . S
C2843 C2838 1.390 . S
C2843 C2842 1.387 . S
H2844 C2856 0.930 . S
H2845 C2858 0.930 . S
H2846 C2859 0.930 . S
H2847 C2863 0.959 . S
H2848 C2863 0.959 . S
H2849 C2863 0.961 . S
H2850 C2864 0.960 1_655 S
H2851 C2864 0.961 . S
H2852 C2864 0.959 1_655 S
H2853 C2867 0.929 . S
H2854 C2868 0.931 . S
H2855 C2870 0.930 . S
C2856 H2844 0.930 . S
C2856 C2857 1.399 . S
C2856 C2861 1.399 . S
C2857 C2856 1.399 . S
C2857 C2858 1.376 1_556 S
C2858 H2845 0.930 . S
C2858 C2857 1.376 1_554 S
C2858 C2859 1.388 . S
C2859 H2846 0.930 . S
C2859 C2858 1.388 . S
C2859 C2860 1.390 . S
C2860 C2859 1.390 . S
C2860 C2861 1.394 1_554 S
C2860 C2866 1.465 1_655 S
C2861 C2856 1.399 . S
C2861 C2860 1.394 1_556 S
C2861 C2862 1.516 1_655 S
C2862 C2861 1.516 1_455 S
C2862 C2863 1.502 . S
C2862 C2864 1.561 . S
C2862 C2865 1.526 . S
C2863 H2847 0.959 . S
C2863 H2848 0.959 . S
C2863 H2849 0.961 . S
C2863 C2862 1.502 . S
C2864 H2850 0.960 1_455 S
C2864 H2851 0.961 . S
C2864 H2852 0.959 1_455 S
C2864 C2862 1.561 . S
C2865 C2862 1.526 . S
C2865 C2866 1.396 1_556 S
C2865 C2870 1.390 . S
C2866 C2860 1.465 1_455 S
C2866 C2865 1.396 1_554 S
C2866 C2867 1.399 . S
C2867 H2853 0.929 . S
C2867 C2866 1.399 . S
C2867 C2868 1.385 . S
C2868 H2854 0.931 . S
C2868 C2867 1.385 . S
C2868 C2869 1.389 . S
C2869 C2868 1.389 . S
C2869 C2870 1.387 1_554 S
C2870 H2855 0.930 . S
C2870 C2865 1.390 . S
C2870 C2869 1.387 1_556 S
H2871 C2883 0.930 . S
H2872 C2885 0.930 . S
H2873 C2886 0.930 . S
H2874 C2890 0.959 . S
H2875 C2890 0.959 . S
H2876 C2890 0.961 . S
H2877 C2891 0.960 . S
H2878 C2891 0.961 . S
H2879 C2891 0.959 1_556 S
H2880 C2894 0.929 . S
H2881 C2895 0.931 . S
H2882 C2897 0.930 1_554 S
C2883 H2871 0.930 . S
C2883 C2884 1.399 . S
C2883 C2888 1.399 . S
C2884 C2883 1.399 . S
C2884 C2885 1.376 1_554 S
C2885 H2872 0.930 . S
C2885 C2884 1.376 1_556 S
C2885 C2886 1.388 . S
C2886 H2873 0.930 . S
C2886 C2885 1.388 . S
C2886 C2887 1.390 . S
C2887 C2886 1.390 . S
C2887 C2888 1.394 1_556 S
C2887 C2893 1.465 . S
C2888 C2883 1.399 . S
C2888 C2887 1.394 1_554 S
C2888 C2889 1.516 . S
C2889 C2888 1.516 . S
C2889 C2890 1.502 . S
C2889 C2891 1.561 . S
C2889 C2892 1.535 . S
C2890 H2874 0.959 . S
C2890 H2875 0.959 . S
C2890 H2876 0.961 . S
C2890 C2889 1.502 . S
C2891 H2877 0.960 . S
C2891 H2878 0.961 . S
C2891 H2879 0.959 1_554 S
C2891 C2889 1.561 . S
C2892 C2889 1.535 . S
C2892 C2893 1.388 1_554 S
C2892 C2897 1.388 1_554 S
C2893 C2887 1.465 . S
C2893 C2892 1.388 1_556 S
C2893 C2894 1.399 . S
C2894 H2880 0.929 . S
C2894 C2893 1.399 . S
C2894 C2895 1.385 . S
C2895 H2881 0.931 . S
C2895 C2894 1.385 . S
C2895 C2896 1.389 . S
C2896 C2895 1.389 . S
C2896 C2897 1.387 . S
C2897 H2882 0.930 1_556 S
C2897 C2892 1.388 1_556 S
C2897 C2896 1.387 . S
H2898 C2910 0.930 . S
H2899 C2912 0.930 . S
H2900 C2913 0.930 . S
H2901 C2917 0.959 . S
H2902 C2917 0.959 . S
H2903 C2917 0.961 . S
H2904 C2918 0.960 . S
H2905 C2918 0.961 . S
H2906 C2918 0.959 . S
H2907 C2921 0.929 . S
H2908 C2922 0.931 . S
H2909 C2924 0.930 . S
C2910 H2898 0.930 . S
C2910 C2911 1.399 . S
C2910 C2915 1.399 . S
C2911 C2910 1.399 . S
C2911 C2912 1.376 . S
C2912 H2899 0.930 . S
C2912 C2911 1.376 . S
C2912 C2913 1.388 . S
C2913 H2900 0.930 . S
C2913 C2912 1.388 . S
C2913 C2914 1.390 . S
C2914 C2913 1.390 . S
C2914 C2915 1.394 . S
C2914 C2920 1.465 . S
C2915 C2910 1.399 . S
C2915 C2914 1.394 . S
C2915 C2916 1.516 . S
C2916 C2915 1.516 . S
C2916 C2917 1.502 . S
C2916 C2918 1.561 . S
C2916 C2919 1.526 . S
C2917 H2901 0.959 . S
C2917 H2902 0.959 . S
C2917 H2903 0.961 . S
C2917 C2916 1.502 . S
C2918 H2904 0.960 . S
C2918 H2905 0.961 . S
C2918 H2906 0.959 . S
C2918 C2916 1.561 . S
C2919 C2916 1.526 . S
C2919 C2920 1.396 . S
C2919 C2924 1.390 . S
C2920 C2914 1.465 . S
C2920 C2919 1.396 . S
C2920 C2921 1.399 . S
C2921 H2907 0.929 . S
C2921 C2920 1.399 . S
C2921 C2922 1.385 . S
C2922 H2908 0.931 . S
C2922 C2921 1.385 . S
C2922 C2923 1.389 . S
C2923 C2922 1.389 . S
C2923 C2924 1.387 . S
C2924 H2909 0.930 . S
C2924 C2919 1.390 . S
C2924 C2923 1.387 . S
H2925 C2937 0.930 . S
H2926 C2939 0.930 1_554 S
H2927 C2940 0.930 . S
H2928 C2944 0.959 . S
H2929 C2944 0.959 . S
H2930 C2944 0.961 . S
H2931 C2945 0.960 . S
H2932 C2945 0.961 . S
H2933 C2945 0.959 . S
H2934 C2948 0.929 . S
H2935 C2949 0.931 . S
H2936 C2951 0.930 . S
C2937 H2925 0.930 . S
C2937 C2938 1.399 . S
C2937 C2942 1.399 . S
C2938 C2937 1.399 . S
C2938 C2939 1.376 . S
C2939 H2926 0.930 1_556 S
C2939 C2938 1.376 . S
C2939 C2940 1.388 . S
C2940 H2927 0.930 . S
C2940 C2939 1.388 . S
C2940 C2941 1.390 . S
C2941 C2940 1.390 . S
C2941 C2942 1.394 . S
C2941 C2947 1.465 . S
C2942 C2937 1.399 . S
C2942 C2941 1.394 . S
C2942 C2943 1.516 . S
C2943 C2942 1.516 . S
C2943 C2944 1.502 . S
C2943 C2945 1.561 . S
C2943 C2946 1.526 . S
C2944 H2928 0.959 . S
C2944 H2929 0.959 . S
C2944 H2930 0.961 . S
C2944 C2943 1.502 . S
C2945 H2931 0.960 . S
C2945 H2932 0.961 . S
C2945 H2933 0.959 . S
C2945 C2943 1.561 . S
C2946 C2943 1.526 . S
C2946 C2947 1.396 . S
C2946 C2951 1.390 . S
C2947 C2941 1.465 . S
C2947 C2946 1.396 . S
C2947 C2948 1.399 . S
C2948 H2934 0.929 . S
C2948 C2947 1.399 . S
C2948 C2949 1.385 . S
C2949 H2935 0.931 . S
C2949 C2948 1.385 . S
C2949 C2950 1.389 . S
C2950 C2949 1.389 . S
C2950 C2951 1.387 . S
C2951 H2936 0.930 . S
C2951 C2946 1.390 . S
C2951 C2950 1.387 . S
H2952 C2964 0.930 . S
H2953 C2966 0.930 . S
H2954 C2967 0.930 . S
H2955 C2971 0.959 . S
H2956 C2971 0.959 . S
H2957 C2971 0.961 . S
H2958 C2972 0.960 . S
H2959 C2972 0.961 . S
H2960 C2972 0.959 . S
H2961 C2975 0.929 1_554 S
H2962 C2976 0.946 . S
H2963 C2978 0.930 . S
C2964 H2952 0.930 . S
C2964 C2965 1.399 . S
C2964 C2969 1.399 . S
C2965 C2964 1.399 . S
C2965 C2966 1.376 . S
C2966 H2953 0.930 . S
C2966 C2965 1.376 . S
C2966 C2967 1.388 . S
C2967 H2954 0.930 . S
C2967 C2966 1.388 . S
C2967 C2968 1.390 . S
C2968 C2967 1.390 . S
C2968 C2969 1.394 . S
C2968 C2974 1.465 . S
C2969 C2964 1.399 . S
C2969 C2968 1.394 . S
C2969 C2970 1.516 . S
C2970 C2969 1.516 . S
C2970 C2971 1.502 . S
C2970 C2972 1.561 . S
C2970 C2973 1.526 . S
C2971 H2955 0.959 . S
C2971 H2956 0.959 . S
C2971 H2957 0.961 . S
C2971 C2970 1.502 . S
C2972 H2958 0.960 . S
C2972 H2959 0.961 . S
C2972 H2960 0.959 . S
C2972 C2970 1.561 . S
C2973 C2970 1.526 . S
C2973 C2974 1.396 . S
C2973 C2978 1.390 . S
C2974 C2968 1.465 . S
C2974 C2973 1.396 . S
C2974 C2975 1.399 . S
C2975 H2961 0.929 1_556 S
C2975 C2974 1.399 . S
C2975 C2976 1.379 1_556 S
C2976 H2962 0.946 . S
C2976 C2975 1.379 1_554 S
C2976 C2977 1.380 1_554 S
C2977 C2976 1.380 1_556 S
C2977 C2978 1.387 . S
C2978 H2963 0.930 . S
C2978 C2973 1.390 . S
C2978 C2977 1.387 . S
H2979 C2991 0.930 . S
H2980 C2993 0.930 . S
H2981 C2994 0.930 . S
H2982 C2998 0.959 . S
H2983 C2998 0.959 . S
H2984 C2998 0.961 . S
H2985 C2999 0.960 . S
H2986 C2999 0.961 . S
H2987 C2999 0.959 . S
H2988 C3002 0.929 . S
H2989 C3003 0.931 . S
H2990 C3005 0.930 . S
C2991 H2979 0.930 . S
C2991 C2992 1.399 . S
C2991 C2996 1.399 . S
C2992 C2991 1.399 . S
C2992 C2993 1.376 . S
C2993 H2980 0.930 . S
C2993 C2992 1.376 . S
C2993 C2994 1.388 . S
C2994 H2981 0.930 . S
C2994 C2993 1.388 . S
C2994 C2995 1.390 . S
C2995 C2994 1.390 . S
C2995 C2996 1.394 . S
C2995 C3001 1.465 . S
C2996 C2991 1.399 . S
C2996 C2995 1.394 . S
C2996 C2997 1.516 . S
C2997 C2996 1.516 . S
C2997 C2998 1.502 . S
C2997 C2999 1.561 . S
C2997 C3000 1.526 . S
C2998 H2982 0.959 . S
C2998 H2983 0.959 . S
C2998 H2984 0.961 . S
C2998 C2997 1.502 . S
C2999 H2985 0.960 . S
C2999 H2986 0.961 . S
C2999 H2987 0.959 . S
C2999 C2997 1.561 . S
C3000 C2997 1.526 . S
C3000 C3001 1.396 . S
C3000 C3005 1.390 . S
C3001 C2995 1.465 . S
C3001 C3000 1.396 . S
C3001 C3002 1.399 . S
C3002 H2988 0.929 . S
C3002 C3001 1.399 . S
C3002 C3003 1.385 . S
C3003 H2989 0.931 . S
C3003 C3002 1.385 . S
C3003 C3004 1.389 . S
C3004 C3003 1.389 . S
C3004 C3005 1.387 . S
C3005 H2990 0.930 . S
C3005 C3000 1.390 . S
C3005 C3004 1.387 . S
H3006 C3018 0.930 . S
H3007 C3020 0.930 . S
H3008 C3021 0.930 . S
H3009 C3025 0.959 . S
H3010 C3025 0.959 . S
H3011 C3025 0.961 . S
H3012 C3026 0.960 . S
H3013 C3026 0.961 . S
H3014 C3026 0.959 . S
H3015 C3029 0.929 . S
H3016 C3030 0.931 . S
H3017 C3032 0.930 . S
C3018 H3006 0.930 . S
C3018 C3019 1.399 . S
C3018 C3023 1.399 . S
C3019 C3018 1.399 . S
C3019 C3020 1.376 . S
C3020 H3007 0.930 . S
C3020 C3019 1.376 . S
C3020 C3021 1.388 . S
C3021 H3008 0.930 . S
C3021 C3020 1.388 . S
C3021 C3022 1.390 . S
C3022 C3021 1.390 . S
C3022 C3023 1.394 . S
C3022 C3028 1.465 . S
C3023 C3018 1.399 . S
C3023 C3022 1.394 . S
C3023 C3024 1.516 . S
C3024 C3023 1.516 . S
C3024 C3025 1.502 . S
C3024 C3026 1.561 . S
C3024 C3027 1.526 . S
C3025 H3009 0.959 . S
C3025 H3010 0.959 . S
C3025 H3011 0.961 . S
C3025 C3024 1.502 . S
C3026 H3012 0.960 . S
C3026 H3013 0.961 . S
C3026 H3014 0.959 . S
C3026 C3024 1.561 . S
C3027 C3024 1.526 . S
C3027 C3028 1.396 . S
C3027 C3032 1.390 . S
C3028 C3022 1.465 . S
C3028 C3027 1.396 . S
C3028 C3029 1.399 . S
C3029 H3015 0.929 . S
C3029 C3028 1.399 . S
C3029 C3030 1.385 . S
C3030 H3016 0.931 . S
C3030 C3029 1.385 . S
C3030 C3031 1.389 . S
C3031 C3030 1.389 . S
C3031 C3032 1.387 . S
C3032 H3017 0.930 . S
C3032 C3027 1.390 . S
C3032 C3031 1.387 . S
H3033 C3045 0.930 . S
H3034 C3047 0.930 . S
H3035 C3048 0.930 . S
H3036 C3052 0.959 . S
H3037 C3052 0.959 . S
H3038 C3052 0.961 . S
H3039 C3053 0.960 . S
H3040 C3053 0.961 . S
H3041 C3053 0.959 . S
H3042 C3056 0.929 . S
H3043 C3057 0.931 . S
H3044 C3059 0.930 . S
C3045 H3033 0.930 . S
C3045 C3046 1.399 . S
C3045 C3050 1.399 . S
C3046 C3045 1.399 . S
C3046 C3047 1.376 . S
C3047 H3034 0.930 . S
C3047 C3046 1.376 . S
C3047 C3048 1.388 . S
C3048 H3035 0.930 . S
C3048 C3047 1.388 . S
C3048 C3049 1.390 . S
C3049 C3048 1.390 . S
C3049 C3050 1.394 . S
C3049 C3055 1.465 . S
C3050 C3045 1.399 . S
C3050 C3049 1.394 . S
C3050 C3051 1.516 . S
C3051 C3050 1.516 . S
C3051 C3052 1.502 . S
C3051 C3053 1.561 . S
C3051 C3054 1.526 . S
C3052 H3036 0.959 . S
C3052 H3037 0.959 . S
C3052 H3038 0.961 . S
C3052 C3051 1.502 . S
C3053 H3039 0.960 . S
C3053 H3040 0.961 . S
C3053 H3041 0.959 . S
C3053 C3051 1.561 . S
C3054 C3051 1.526 . S
C3054 C3055 1.396 . S
C3054 C3059 1.390 . S
C3055 C3049 1.465 . S
C3055 C3054 1.396 . S
C3055 C3056 1.399 . S
C3056 H3042 0.929 . S
C3056 C3055 1.399 . S
C3056 C3057 1.385 . S
C3057 H3043 0.931 . S
C3057 C3056 1.385 . S
C3057 C3058 1.389 . S
C3058 C3057 1.389 . S
C3058 C3059 1.387 . S
C3059 H3044 0.930 . S
C3059 C3054 1.390 . S
C3059 C3058 1.387 . S
H3060 C3072 0.930 . S
H3061 C3074 0.930 . S
H3062 C3075 0.930 . S
H3063 C3079 0.959 . S
H3064 C3079 0.959 . S
H3065 C3079 0.961 . S
H3066 C3080 0.960 . S
H3067 C3080 0.961 1_556 S
H3068 C3080 0.959 . S
H3069 C3083 0.929 . S
H3070 C3084 0.931 . S
H3071 C3086 0.930 . S
C3072 H3060 0.930 . S
C3072 C3073 1.399 . S
C3072 C3077 1.399 . S
C3073 C3072 1.399 . S
C3073 C3074 1.376 . S
C3074 H3061 0.930 . S
C3074 C3073 1.376 . S
C3074 C3075 1.388 . S
C3075 H3062 0.930 . S
C3075 C3074 1.388 . S
C3075 C3076 1.390 . S
C3076 C3075 1.390 . S
C3076 C3077 1.394 . S
C3076 C3082 1.465 . S
C3077 C3072 1.399 . S
C3077 C3076 1.394 . S
C3077 C3078 1.516 . S
C3078 C3077 1.516 . S
C3078 C3079 1.502 . S
C3078 C3080 1.561 . S
C3078 C3081 1.526 . S
C3079 H3063 0.959 . S
C3079 H3064 0.959 . S
C3079 H3065 0.961 . S
C3079 C3078 1.502 . S
C3080 H3066 0.960 . S
C3080 H3067 0.961 1_554 S
C3080 H3068 0.959 . S
C3080 C3078 1.561 . S
C3081 C3078 1.526 . S
C3081 C3082 1.396 . S
C3081 C3086 1.390 . S
C3082 C3076 1.465 . S
C3082 C3081 1.396 . S
C3082 C3083 1.399 . S
C3083 H3069 0.929 . S
C3083 C3082 1.399 . S
C3083 C3084 1.385 . S
C3084 H3070 0.931 . S
C3084 C3083 1.385 . S
C3084 C3085 1.389 . S
C3085 C3084 1.389 . S
C3085 C3086 1.387 . S
C3086 H3071 0.930 . S
C3086 C3081 1.390 . S
C3086 C3085 1.387 . S
H3087 C3099 0.930 . S
H3088 C3101 0.930 . S
H3089 C3102 0.930 . S
H3090 C3106 0.959 . S
H3091 C3106 0.959 . S
H3092 C3106 0.961 . S
H3093 C3107 0.960 . S
H3094 C3107 0.961 . S
H3095 C3107 0.959 . S
H3096 C3110 0.929 . S
H3097 C3111 0.931 . S
H3098 C3113 0.930 . S
C3099 H3087 0.930 . S
C3099 C3100 1.399 . S
C3099 C3104 1.399 . S
C3100 C3099 1.399 . S
C3100 C3101 1.376 . S
C3101 H3088 0.930 . S
C3101 C3100 1.376 . S
C3101 C3102 1.388 . S
C3102 H3089 0.930 . S
C3102 C3101 1.388 . S
C3102 C3103 1.390 . S
C3103 C3102 1.390 . S
C3103 C3104 1.394 . S
C3103 C3109 1.465 . S
C3104 C3099 1.399 . S
C3104 C3103 1.394 . S
C3104 C3105 1.516 . S
C3105 C3104 1.516 . S
C3105 C3106 1.502 . S
C3105 C3107 1.561 . S
C3105 C3108 1.526 . S
C3106 H3090 0.959 . S
C3106 H3091 0.959 . S
C3106 H3092 0.961 . S
C3106 C3105 1.502 . S
C3107 H3093 0.960 . S
C3107 H3094 0.961 . S
C3107 H3095 0.959 . S
C3107 C3105 1.561 . S
C3108 C3105 1.526 . S
C3108 C3109 1.396 . S
C3108 C3113 1.390 . S
C3109 C3103 1.465 . S
C3109 C3108 1.396 . S
C3109 C3110 1.399 . S
C3110 H3096 0.929 . S
C3110 C3109 1.399 . S
C3110 C3111 1.385 . S
C3111 H3097 0.931 . S
C3111 C3110 1.385 . S
C3111 C3112 1.389 . S
C3112 C3111 1.389 . S
C3112 C3113 1.387 . S
C3113 H3098 0.930 . S
C3113 C3108 1.390 . S
C3113 C3112 1.387 . S
H3114 C3126 0.930 . S
H3115 C3128 0.930 . S
H3116 C3129 0.930 . S
H3117 C3133 0.959 . S
H3118 C3133 0.959 . S
H3119 C3133 0.961 . S
H3120 C3134 0.960 . S
H3121 C3134 0.961 . S
H3122 C3134 0.959 . S
H3123 C3137 0.929 . S
H3124 C3138 0.931 1_556 S
H3125 C3140 0.930 . S
C3126 H3114 0.930 . S
C3126 C3127 1.399 . S
C3126 C3131 1.399 . S
C3127 C3126 1.399 . S
C3127 C3128 1.376 . S
C3128 H3115 0.930 . S
C3128 C3127 1.376 . S
C3128 C3129 1.388 . S
C3129 H3116 0.930 . S
C3129 C3128 1.388 . S
C3129 C3130 1.390 . S
C3130 C3129 1.390 . S
C3130 C3131 1.394 . S
C3130 C3136 1.465 . S
C3131 C3126 1.399 . S
C3131 C3130 1.394 . S
C3131 C3132 1.516 . S
C3132 C3131 1.516 . S
C3132 C3133 1.502 . S
C3132 C3134 1.561 . S
C3132 C3135 1.526 . S
C3133 H3117 0.959 . S
C3133 H3118 0.959 . S
C3133 H3119 0.961 . S
C3133 C3132 1.502 . S
C3134 H3120 0.960 . S
C3134 H3121 0.961 . S
C3134 H3122 0.959 . S
C3134 C3132 1.561 . S
C3135 C3132 1.526 . S
C3135 C3136 1.396 . S
C3135 C3140 1.390 . S
C3136 C3130 1.465 . S
C3136 C3135 1.396 . S
C3136 C3137 1.399 . S
C3137 H3123 0.929 . S
C3137 C3136 1.399 . S
C3137 C3138 1.385 . S
C3138 H3124 0.931 1_554 S
C3138 C3137 1.385 . S
C3138 C3139 1.389 . S
C3139 C3138 1.389 . S
C3139 C3140 1.387 . S
C3140 H3125 0.930 . S
C3140 C3135 1.390 . S
C3140 C3139 1.387 . S
H3141 C3153 0.930 . S
H3142 C3155 0.930 . S
H3143 C3156 0.930 . S
H3144 C3160 0.959 . S
H3145 C3160 0.959 . S
H3146 C3160 0.961 . S
H3147 C3161 0.960 . S
H3148 C3161 0.961 . S
H3149 C3161 0.959 . S
H3150 C3164 0.929 . S
H3151 C3165 0.931 . S
H3152 C3167 0.930 . S
C3153 H3141 0.930 . S
C3153 C3154 1.399 . S
C3153 C3158 1.399 . S
C3154 C3153 1.399 . S
C3154 C3155 1.376 . S
C3155 H3142 0.930 . S
C3155 C3154 1.376 . S
C3155 C3156 1.388 . S
C3156 H3143 0.930 . S
C3156 C3155 1.388 . S
C3156 C3157 1.390 . S
C3157 C3156 1.390 . S
C3157 C3158 1.394 . S
C3157 C3163 1.465 . S
C3158 C3153 1.399 . S
C3158 C3157 1.394 . S
C3158 C3159 1.516 . S
C3159 C3158 1.516 . S
C3159 C3160 1.502 . S
C3159 C3161 1.561 . S
C3159 C3162 1.526 . S
C3160 H3144 0.959 . S
C3160 H3145 0.959 . S
C3160 H3146 0.961 . S
C3160 C3159 1.502 . S
C3161 H3147 0.960 . S
C3161 H3148 0.961 . S
C3161 H3149 0.959 . S
C3161 C3159 1.561 . S
C3162 C3159 1.526 . S
C3162 C3163 1.396 . S
C3162 C3167 1.390 . S
C3163 C3157 1.465 . S
C3163 C3162 1.396 . S
C3163 C3164 1.399 . S
C3164 H3150 0.929 . S
C3164 C3163 1.399 . S
C3164 C3165 1.385 . S
C3165 H3151 0.931 . S
C3165 C3164 1.385 . S
C3165 C3166 1.389 . S
C3166 C3165 1.389 . S
C3166 C3167 1.387 . S
C3167 H3152 0.930 . S
C3167 C3162 1.390 . S
C3167 C3166 1.387 . S
H3168 C3180 0.930 . S
H3169 C3182 0.930 . S
H3170 C3183 0.930 . S
H3171 C3187 0.959 . S
H3172 C3187 0.959 . S
H3173 C3187 0.961 . S
H3174 C3188 0.960 . S
H3175 C3188 0.961 . S
H3176 C3188 0.959 . S
H3177 C3191 0.929 . S
H3178 C3192 0.931 . S
H3179 C3194 0.930 . S
C3180 H3168 0.930 . S
C3180 C3181 1.399 . S
C3180 C3185 1.399 . S
C3181 C3180 1.399 . S
C3181 C3182 1.376 . S
C3182 H3169 0.930 . S
C3182 C3181 1.376 . S
C3182 C3183 1.388 . S
C3183 H3170 0.930 . S
C3183 C3182 1.388 . S
C3183 C3184 1.390 . S
C3184 C3183 1.390 . S
C3184 C3185 1.394 . S
C3184 C3190 1.465 . S
C3185 C3180 1.399 . S
C3185 C3184 1.394 . S
C3185 C3186 1.516 . S
C3186 C3185 1.516 . S
C3186 C3187 1.502 . S
C3186 C3188 1.561 . S
C3186 C3189 1.526 . S
C3187 H3171 0.959 . S
C3187 H3172 0.959 . S
C3187 H3173 0.961 . S
C3187 C3186 1.502 . S
C3188 H3174 0.960 . S
C3188 H3175 0.961 . S
C3188 H3176 0.959 . S
C3188 C3186 1.561 . S
C3189 C3186 1.526 . S
C3189 C3190 1.396 . S
C3189 C3194 1.390 . S
C3190 C3184 1.465 . S
C3190 C3189 1.396 . S
C3190 C3191 1.399 . S
C3191 H3177 0.929 . S
C3191 C3190 1.399 . S
C3191 C3192 1.385 . S
C3192 H3178 0.931 . S
C3192 C3191 1.385 . S
C3192 C3193 1.389 . S
C3193 C3192 1.389 . S
C3193 C3194 1.387 . S
C3194 H3179 0.930 . S
C3194 C3189 1.390 . S
C3194 C3193 1.387 . S
H3195 C3207 0.930 . S
H3196 C3209 0.930 . S
H3197 C3210 0.930 . S
H3198 C3214 0.959 . S
H3199 C3214 0.959 . S
H3200 C3214 0.961 . S
H3201 C3215 0.960 . S
H3202 C3215 0.961 . S
H3203 C3215 0.959 . S
H3204 C3218 0.929 . S
H3205 C3219 0.931 . S
H3206 C3221 0.930 . S
C3207 H3195 0.930 . S
C3207 C3208 1.399 . S
C3207 C3212 1.399 . S
C3208 C3207 1.399 . S
C3208 C3209 1.376 . S
C3209 H3196 0.930 . S
C3209 C3208 1.376 . S
C3209 C3210 1.388 . S
C3210 H3197 0.930 . S
C3210 C3209 1.388 . S
C3210 C3211 1.390 . S
C3211 C3210 1.390 . S
C3211 C3212 1.394 . S
C3211 C3217 1.465 . S
C3212 C3207 1.399 . S
C3212 C3211 1.394 . S
C3212 C3213 1.516 . S
C3213 C3212 1.516 . S
C3213 C3214 1.502 . S
C3213 C3215 1.561 . S
C3213 C3216 1.526 . S
C3214 H3198 0.959 . S
C3214 H3199 0.959 . S
C3214 H3200 0.961 . S
C3214 C3213 1.502 . S
C3215 H3201 0.960 . S
C3215 H3202 0.961 . S
C3215 H3203 0.959 . S
C3215 C3213 1.561 . S
C3216 C3213 1.526 . S
C3216 C3217 1.396 . S
C3216 C3221 1.390 . S
C3217 C3211 1.465 . S
C3217 C3216 1.396 . S
C3217 C3218 1.399 . S
C3218 H3204 0.929 . S
C3218 C3217 1.399 . S
C3218 C3219 1.385 . S
C3219 H3205 0.931 . S
C3219 C3218 1.385 . S
C3219 C3220 1.389 . S
C3220 C3219 1.389 . S
C3220 C3221 1.387 . S
C3221 H3206 0.930 . S
C3221 C3216 1.390 . S
C3221 C3220 1.387 . S
H3222 C3234 0.930 . S
H3223 C3236 0.930 . S
H3224 C3237 0.930 . S
H3225 C3241 0.959 . S
H3226 C3241 0.959 . S
H3227 C3241 0.961 . S
H3228 C3242 0.960 . S
H3229 C3242 0.961 . S
H3230 C3242 0.959 . S
H3231 C3245 0.929 1_455 S
H3232 C3246 0.931 . S
H3233 C3248 0.930 . S
C3234 H3222 0.930 . S
C3234 C3235 1.399 . S
C3234 C3239 1.399 . S
C3235 C3234 1.399 . S
C3235 C3236 1.376 . S
C3236 H3223 0.930 . S
C3236 C3235 1.376 . S
C3236 C3237 1.388 . S
C3237 H3224 0.930 . S
C3237 C3236 1.388 . S
C3237 C3238 1.390 . S
C3238 C3237 1.390 . S
C3238 C3239 1.394 . S
C3238 C3244 1.465 1_455 S
C3239 C3234 1.399 . S
C3239 C3238 1.394 . S
C3239 C3240 1.516 1_455 S
C3240 C3239 1.516 1_655 S
C3240 C3241 1.502 . S
C3240 C3242 1.561 . S
C3240 C3243 1.526 . S
C3241 H3225 0.959 . S
C3241 H3226 0.959 . S
C3241 H3227 0.961 . S
C3241 C3240 1.502 . S
C3242 H3228 0.960 . S
C3242 H3229 0.961 . S
C3242 H3230 0.959 . S
C3242 C3240 1.561 . S
C3243 C3240 1.526 . S
C3243 C3244 1.396 . S
C3243 C3248 1.390 . S
C3244 C3238 1.465 1_655 S
C3244 C3243 1.396 . S
C3244 C3245 1.399 . S
C3245 H3231 0.929 1_655 S
C3245 C3244 1.399 . S
C3245 C3246 1.385 . S
C3246 H3232 0.931 . S
C3246 C3245 1.385 . S
C3246 C3247 1.389 . S
C3247 C3246 1.389 . S
C3247 C3248 1.387 . S
C3248 H3233 0.930 . S
C3248 C3243 1.390 . S
C3248 C3247 1.387 . S
H3249 C3261 0.930 . S
H3250 C3263 0.930 . S
H3251 C3264 0.930 . S
H3252 C3268 0.959 . S
H3253 C3268 0.959 . S
H3254 C3268 0.961 . S
H3255 C3269 0.960 . S
H3256 C3269 0.961 . S
H3257 C3269 0.959 . S
H3258 C3272 0.929 . S
H3259 C3273 0.931 . S
H3260 C3275 0.930 . S
C3261 H3249 0.930 . S
C3261 C3262 1.399 . S
C3261 C3266 1.399 . S
C3262 C3261 1.399 . S
C3262 C3263 1.376 . S
C3263 H3250 0.930 . S
C3263 C3262 1.376 . S
C3263 C3264 1.388 . S
C3264 H3251 0.930 . S
C3264 C3263 1.388 . S
C3264 C3265 1.390 . S
C3265 C3264 1.390 . S
C3265 C3266 1.394 . S
C3265 C3271 1.465 . S
C3266 C3261 1.399 . S
C3266 C3265 1.394 . S
C3266 C3267 1.516 . S
C3267 C3266 1.516 . S
C3267 C3268 1.502 . S
C3267 C3269 1.561 . S
C3267 C3270 1.526 . S
C3268 H3252 0.959 . S
C3268 H3253 0.959 . S
C3268 H3254 0.961 . S
C3268 C3267 1.502 . S
C3269 H3255 0.960 . S
C3269 H3256 0.961 . S
C3269 H3257 0.959 . S
C3269 C3267 1.561 . S
C3270 C3267 1.526 . S
C3270 C3271 1.396 . S
C3270 C3275 1.390 . S
C3271 C3265 1.465 . S
C3271 C3270 1.396 . S
C3271 C3272 1.399 . S
C3272 H3258 0.929 . S
C3272 C3271 1.399 . S
C3272 C3273 1.385 . S
C3273 H3259 0.931 . S
C3273 C3272 1.385 . S
C3273 C3274 1.389 . S
C3274 C3273 1.389 . S
C3274 C3275 1.387 . S
C3275 H3260 0.930 . S
C3275 C3270 1.390 . S
C3275 C3274 1.387 . S
H3276 C3288 0.930 . S
H3277 C3290 0.930 . S
H3278 C3291 0.930 1_565 S
H3279 C3295 0.959 . S
H3280 C3295 0.959 . S
H3281 C3295 0.961 . S
H3282 C3296 0.960 . S
H3283 C3296 0.961 . S
H3284 C3296 0.959 . S
H3285 C3299 0.929 . S
H3286 C3300 0.931 . S
H3287 C3302 0.930 . S
C3288 H3276 0.930 . S
C3288 C3289 1.399 . S
C3288 C3293 1.399 . S
C3289 C3288 1.399 . S
C3289 C3290 1.376 . S
C3290 H3277 0.930 . S
C3290 C3289 1.376 . S
C3290 C3291 1.388 . S
C3291 H3278 0.930 1_545 S
C3291 C3290 1.388 . S
C3291 C3292 1.390 . S
C3292 C3291 1.390 . S
C3292 C3293 1.394 . S
C3292 C3298 1.465 1_545 S
C3293 C3288 1.399 . S
C3293 C3292 1.394 . S
C3293 C3294 1.516 . S
C3294 C3293 1.516 . S
C3294 C3295 1.502 . S
C3294 C3296 1.561 . S
C3294 C3297 1.526 1_545 S
C3295 H3279 0.959 . S
C3295 H3280 0.959 . S
C3295 H3281 0.961 . S
C3295 C3294 1.502 . S
C3296 H3282 0.960 . S
C3296 H3283 0.961 . S
C3296 H3284 0.959 . S
C3296 C3294 1.561 . S
C3297 C3294 1.526 1_565 S
C3297 C3298 1.396 . S
C3297 C3302 1.390 . S
C3298 C3292 1.465 1_565 S
C3298 C3297 1.396 . S
C3298 C3299 1.399 . S
C3299 H3285 0.929 . S
C3299 C3298 1.399 . S
C3299 C3300 1.385 . S
C3300 H3286 0.931 . S
C3300 C3299 1.385 . S
C3300 C3301 1.389 . S
C3301 C3300 1.389 . S
C3301 C3302 1.387 . S
C3302 H3287 0.930 . S
C3302 C3297 1.390 . S
C3302 C3301 1.387 . S
H3303 C3315 0.930 . S
H3304 C3317 0.930 . S
H3305 C3318 0.930 . S
H3306 C3322 0.959 . S
H3307 C3322 0.959 . S
H3308 C3322 0.961 . S
H3309 C3323 0.960 . S
H3310 C3323 0.961 . S
H3311 C3323 0.959 . S
H3312 C3326 0.929 1_565 S
H3313 C3327 0.931 . S
H3314 C3329 0.930 . S
C3315 H3303 0.930 . S
C3315 C3316 1.399 . S
C3315 C3320 1.399 . S
C3316 C3315 1.399 . S
C3316 C3317 1.376 . S
C3317 H3304 0.930 . S
C3317 C3316 1.376 . S
C3317 C3318 1.388 . S
C3318 H3305 0.930 . S
C3318 C3317 1.388 . S
C3318 C3319 1.390 . S
C3319 C3318 1.390 . S
C3319 C3320 1.394 . S
C3319 C3325 1.465 1_565 S
C3320 C3315 1.399 . S
C3320 C3319 1.394 . S
C3320 C3321 1.516 1_565 S
C3321 C3320 1.516 1_545 S
C3321 C3322 1.502 . S
C3321 C3323 1.561 . S
C3321 C3324 1.526 . S
C3322 H3306 0.959 . S
C3322 H3307 0.959 . S
C3322 H3308 0.961 . S
C3322 C3321 1.502 . S
C3323 H3309 0.960 . S
C3323 H3310 0.961 . S
C3323 H3311 0.959 . S
C3323 C3321 1.561 . S
C3324 C3321 1.526 . S
C3324 C3325 1.396 . S
C3324 C3329 1.390 . S
C3325 C3319 1.465 1_545 S
C3325 C3324 1.396 . S
C3325 C3326 1.399 . S
C3326 H3312 0.929 1_545 S
C3326 C3325 1.399 . S
C3326 C3327 1.385 . S
C3327 H3313 0.931 . S
C3327 C3326 1.385 . S
C3327 C3328 1.389 . S
C3328 C3327 1.389 . S
C3328 C3329 1.387 . S
C3329 H3314 0.930 . S
C3329 C3324 1.390 . S
C3329 C3328 1.387 . S
H3330 C3342 0.930 . S
H3331 C3344 0.930 . S
H3332 C3345 0.930 . S
H3333 C3349 0.959 . S
H3334 C3349 0.959 1_655 S
H3335 C3349 0.961 . S
H3336 C3350 0.960 . S
H3337 C3350 0.961 . S
H3338 C3350 0.959 . S
H3339 C3353 0.929 . S
H3340 C3354 0.931 . S
H3341 C3356 0.930 . S
C3342 H3330 0.930 . S
C3342 C3343 1.399 . S
C3342 C3347 1.399 . S
C3343 C3342 1.399 . S
C3343 C3344 1.376 . S
C3344 H3331 0.930 . S
C3344 C3343 1.376 . S
C3344 C3345 1.388 . S
C3345 H3332 0.930 . S
C3345 C3344 1.388 . S
C3345 C3346 1.390 . S
C3346 C3345 1.390 . S
C3346 C3347 1.394 . S
C3346 C3352 1.465 1_455 S
C3347 C3342 1.399 . S
C3347 C3346 1.394 . S
C3347 C3348 1.516 1_455 S
C3348 C3347 1.516 1_655 S
C3348 C3349 1.502 1_655 S
C3348 C3350 1.561 . S
C3348 C3351 1.526 . S
C3349 H3333 0.959 . S
C3349 H3334 0.959 1_455 S
C3349 H3335 0.961 . S
C3349 C3348 1.502 1_455 S
C3350 H3336 0.960 . S
C3350 H3337 0.961 . S
C3350 H3338 0.959 . S
C3350 C3348 1.561 . S
C3351 C3348 1.526 . S
C3351 C3352 1.396 . S
C3351 C3356 1.390 . S
C3352 C3346 1.465 1_655 S
C3352 C3351 1.396 . S
C3352 C3353 1.399 . S
C3353 H3339 0.929 . S
C3353 C3352 1.399 . S
C3353 C3354 1.385 . S
C3354 H3340 0.931 . S
C3354 C3353 1.385 . S
C3354 C3355 1.389 . S
C3355 C3354 1.389 . S
C3355 C3356 1.387 . S
C3356 H3341 0.930 . S
C3356 C3351 1.390 . S
C3356 C3355 1.387 . S
H3357 C3369 0.930 . S
H3358 C3371 0.930 . S
H3359 C3372 0.930 . S
H3360 C3376 0.959 . S
H3361 C3376 0.959 . S
H3362 C3376 0.961 . S
H3363 C3377 0.960 . S
H3364 C3377 0.961 . S
H3365 C3377 0.959 . S
H3366 C3380 0.929 . S
H3367 C3381 0.931 . S
H3368 C3383 0.930 . S
C3369 H3357 0.930 . S
C3369 C3370 1.399 . S
C3369 C3374 1.399 . S
C3370 C3369 1.399 . S
C3370 C3371 1.376 . S
C3371 H3358 0.930 . S
C3371 C3370 1.376 . S
C3371 C3372 1.388 . S
C3372 H3359 0.930 . S
C3372 C3371 1.388 . S
C3372 C3373 1.390 . S
C3373 C3372 1.390 . S
C3373 C3374 1.394 . S
C3373 C3379 1.465 . S
C3374 C3369 1.399 . S
C3374 C3373 1.394 . S
C3374 C3375 1.516 . S
C3375 C3374 1.516 . S
C3375 C3376 1.502 . S
C3375 C3377 1.561 . S
C3375 C3378 1.526 . S
C3376 H3360 0.959 . S
C3376 H3361 0.959 . S
C3376 H3362 0.961 . S
C3376 C3375 1.502 . S
C3377 H3363 0.960 . S
C3377 H3364 0.961 . S
C3377 H3365 0.959 . S
C3377 C3375 1.561 . S
C3378 C3375 1.526 . S
C3378 C3379 1.396 . S
C3378 C3383 1.390 . S
C3379 C3373 1.465 . S
C3379 C3378 1.396 . S
C3379 C3380 1.399 . S
C3380 H3366 0.929 . S
C3380 C3379 1.399 . S
C3380 C3381 1.385 . S
C3381 H3367 0.931 . S
C3381 C3380 1.385 . S
C3381 C3382 1.389 . S
C3382 C3381 1.389 . S
C3382 C3383 1.387 . S
C3383 H3368 0.930 . S
C3383 C3378 1.390 . S
C3383 C3382 1.387 . S
H3384 C3396 0.930 . S
H3385 C3398 0.930 . S
H3386 C3399 0.930 . S
H3387 C3403 0.959 . S
H3388 C3403 0.959 . S
H3389 C3403 0.961 . S
H3390 C3404 0.960 . S
H3391 C3404 0.961 . S
H3392 C3404 0.959 . S
H3393 C3407 0.929 . S
H3394 C3408 0.931 . S
H3395 C3410 0.930 . S
C3396 H3384 0.930 . S
C3396 C3397 1.399 . S
C3396 C3401 1.399 . S
C3397 C3396 1.399 . S
C3397 C3398 1.376 . S
C3398 H3385 0.930 . S
C3398 C3397 1.376 . S
C3398 C3399 1.388 . S
C3399 H3386 0.930 . S
C3399 C3398 1.388 . S
C3399 C3400 1.390 . S
C3400 C3399 1.390 . S
C3400 C3401 1.394 . S
C3400 C3406 1.465 . S
C3401 C3396 1.399 . S
C3401 C3400 1.394 . S
C3401 C3402 1.516 . S
C3402 C3401 1.516 . S
C3402 C3403 1.502 . S
C3402 C3404 1.561 . S
C3402 C3405 1.526 . S
C3403 H3387 0.959 . S
C3403 H3388 0.959 . S
C3403 H3389 0.961 . S
C3403 C3402 1.502 . S
C3404 H3390 0.960 . S
C3404 H3391 0.961 . S
C3404 H3392 0.959 . S
C3404 C3402 1.561 . S
C3405 C3402 1.526 . S
C3405 C3406 1.396 . S
C3405 C3410 1.390 . S
C3406 C3400 1.465 . S
C3406 C3405 1.396 . S
C3406 C3407 1.399 . S
C3407 H3393 0.929 . S
C3407 C3406 1.399 . S
C3407 C3408 1.385 . S
C3408 H3394 0.931 . S
C3408 C3407 1.385 . S
C3408 C3409 1.389 . S
C3409 C3408 1.389 . S
C3409 C3410 1.387 . S
C3410 H3395 0.930 . S
C3410 C3405 1.390 . S
C3410 C3409 1.387 . S
H3411 C3423 0.930 . S
H3412 C3425 0.930 . S
H3413 C3426 0.930 . S
H3414 C3430 0.959 1_565 S
H3415 C3430 0.919 1_565 S
H3416 C3430 0.961 . S
H3417 C3431 0.960 . S
H3418 C3431 0.961 . S
H3419 C3431 0.959 . S
H3420 C3434 0.929 . S
H3421 C3435 0.931 . S
H3422 C3437 0.930 . S
C3423 H3411 0.930 . S
C3423 C3424 1.399 . S
C3423 C3428 1.399 . S
C3424 C3423 1.399 . S
C3424 C3425 1.376 . S
C3425 H3412 0.930 . S
C3425 C3424 1.376 . S
C3425 C3426 1.388 . S
C3426 H3413 0.930 . S
C3426 C3425 1.388 . S
C3426 C3427 1.390 . S
C3427 C3426 1.390 . S
C3427 C3428 1.394 . S
C3427 C3433 1.465 1_545 S
C3428 C3423 1.399 . S
C3428 C3427 1.394 . S
C3428 C3429 1.516 . S
C3429 C3428 1.516 . S
C3429 C3430 1.502 . S
C3429 C3431 1.561 . S
C3429 C3432 1.526 1_545 S
C3430 H3414 0.959 1_545 S
C3430 H3415 0.919 1_545 S
C3430 H3416 0.961 . S
C3430 C3429 1.502 . S
C3431 H3417 0.960 . S
C3431 H3418 0.961 . S
C3431 H3419 0.959 . S
C3431 C3429 1.561 . S
C3432 C3429 1.526 1_565 S
C3432 C3433 1.396 . S
C3432 C3437 1.390 . S
C3433 C3427 1.465 1_565 S
C3433 C3432 1.396 . S
C3433 C3434 1.399 . S
C3434 H3420 0.929 . S
C3434 C3433 1.399 . S
C3434 C3435 1.385 . S
C3435 H3421 0.931 . S
C3435 C3434 1.385 . S
C3435 C3436 1.389 . S
C3436 C3435 1.389 . S
C3436 C3437 1.387 . S
C3437 H3422 0.930 . S
C3437 C3432 1.390 . S
C3437 C3436 1.387 . S
H3438 C3450 0.930 . S
H3439 C3452 0.930 . S
H3440 C3453 0.930 . S
H3441 C3457 0.959 . S
H3442 C3457 0.959 . S
H3443 C3457 0.961 . S
H3444 C3458 0.960 . S
H3445 C3458 0.961 . S
H3446 C3458 0.959 . S
H3447 C3461 0.929 1_655 S
H3448 C3462 0.931 . S
H3449 C3464 0.930 . S
C3450 H3438 0.930 . S
C3450 C3451 1.399 . S
C3450 C3455 1.399 . S
C3451 C3450 1.399 . S
C3451 C3452 1.376 . S
C3452 H3439 0.930 . S
C3452 C3451 1.376 . S
C3452 C3453 1.388 . S
C3453 H3440 0.930 . S
C3453 C3452 1.388 . S
C3453 C3454 1.390 . S
C3454 C3453 1.390 . S
C3454 C3455 1.394 . S
C3454 C3460 1.465 1_655 S
C3455 C3450 1.399 . S
C3455 C3454 1.394 . S
C3455 C3456 1.516 1_655 S
C3456 C3455 1.516 1_455 S
C3456 C3457 1.502 . S
C3456 C3458 1.561 . S
C3456 C3459 1.526 . S
C3457 H3441 0.959 . S
C3457 H3442 0.959 . S
C3457 H3443 0.961 . S
C3457 C3456 1.502 . S
C3458 H3444 0.960 . S
C3458 H3445 0.961 . S
C3458 H3446 0.959 . S
C3458 C3456 1.561 . S
C3459 C3456 1.526 . S
C3459 C3460 1.396 . S
C3459 C3464 1.390 . S
C3460 C3454 1.465 1_455 S
C3460 C3459 1.396 . S
C3460 C3461 1.399 . S
C3461 H3447 0.929 1_455 S
C3461 C3460 1.399 . S
C3461 C3462 1.385 . S
C3462 H3448 0.931 . S
C3462 C3461 1.385 . S
C3462 C3463 1.389 . S
C3463 C3462 1.389 . S
C3463 C3464 1.387 . S
C3464 H3449 0.930 . S
C3464 C3459 1.390 . S
C3464 C3463 1.387 . S
H3465 C3477 0.930 . S
H3466 C3479 0.930 . S
H3467 C3480 0.930 . S
H3468 C3484 0.959 . S
H3469 C3484 0.959 . S
H3470 C3484 0.961 . S
H3471 C3485 0.960 . S
H3472 C3485 0.961 . S
H3473 C3485 0.959 . S
H3474 C3488 0.929 . S
H3475 C3489 0.931 . S
H3476 C3491 0.930 . S
C3477 H3465 0.930 . S
C3477 C3478 1.399 . S
C3477 C3482 1.399 . S
C3478 C3477 1.399 . S
C3478 C3479 1.376 . S
C3479 H3466 0.930 . S
C3479 C3478 1.376 . S
C3479 C3480 1.388 . S
C3480 H3467 0.930 . S
C3480 C3479 1.388 . S
C3480 C3481 1.390 . S
C3481 C3480 1.390 . S
C3481 C3482 1.394 . S
C3481 C3487 1.465 . S
C3482 C3477 1.399 . S
C3482 C3481 1.394 . S
C3482 C3483 1.516 . S
C3483 C3482 1.516 . S
C3483 C3484 1.502 . S
C3483 C3485 1.561 . S
C3483 C3486 1.526 . S
C3484 H3468 0.959 . S
C3484 H3469 0.959 . S
C3484 H3470 0.961 . S
C3484 C3483 1.502 . S
C3485 H3471 0.960 . S
C3485 H3472 0.961 . S
C3485 H3473 0.959 . S
C3485 C3483 1.561 . S
C3486 C3483 1.526 . S
C3486 C3487 1.396 . S
C3486 C3491 1.390 . S
C3487 C3481 1.465 . S
C3487 C3486 1.396 . S
C3487 C3488 1.399 . S
C3488 H3474 0.929 . S
C3488 C3487 1.399 . S
C3488 C3489 1.385 . S
C3489 H3475 0.931 . S
C3489 C3488 1.385 . S
C3489 C3490 1.389 . S
C3490 C3489 1.389 . S
C3490 C3491 1.387 . S
C3491 H3476 0.930 . S
C3491 C3486 1.390 . S
C3491 C3490 1.387 . S
H3492 C3504 0.930 . S
H3493 C3506 0.930 . S
H3494 C3507 0.930 1_545 S
H3495 C3511 0.959 . S
H3496 C3511 0.959 . S
H3497 C3511 0.961 . S
H3498 C3512 0.960 . S
H3499 C3512 0.961 . S
H3500 C3512 0.959 . S
H3501 C3515 0.929 . S
H3502 C3516 0.931 . S
H3503 C3518 0.930 . S
C3504 H3492 0.930 . S
C3504 C3505 1.399 . S
C3504 C3509 1.399 . S
C3505 C3504 1.399 . S
C3505 C3506 1.376 . S
C3506 H3493 0.930 . S
C3506 C3505 1.376 . S
C3506 C3507 1.388 . S
C3507 H3494 0.930 1_565 S
C3507 C3506 1.388 . S
C3507 C3508 1.390 . S
C3508 C3507 1.390 . S
C3508 C3509 1.394 . S
C3508 C3514 1.465 1_565 S
C3509 C3504 1.399 . S
C3509 C3508 1.394 . S
C3509 C3510 1.516 . S
C3510 C3509 1.516 . S
C3510 C3511 1.502 . S
C3510 C3512 1.561 . S
C3510 C3513 1.526 1_565 S
C3511 H3495 0.959 . S
C3511 H3496 0.959 . S
C3511 H3497 0.961 . S
C3511 C3510 1.502 . S
C3512 H3498 0.960 . S
C3512 H3499 0.961 . S
C3512 H3500 0.959 . S
C3512 C3510 1.561 . S
C3513 C3510 1.526 1_545 S
C3513 C3514 1.396 . S
C3513 C3518 1.390 . S
C3514 C3508 1.465 1_545 S
C3514 C3513 1.396 . S
C3514 C3515 1.399 . S
C3515 H3501 0.929 . S
C3515 C3514 1.399 . S
C3515 C3516 1.385 . S
C3516 H3502 0.931 . S
C3516 C3515 1.385 . S
C3516 C3517 1.389 . S
C3517 C3516 1.389 . S
C3517 C3518 1.387 . S
C3518 H3503 0.930 . S
C3518 C3513 1.390 . S
C3518 C3517 1.387 . S
H3519 C3531 0.930 . S
H3520 C3533 0.930 . S
H3521 C3534 0.930 . S
H3522 C3538 0.959 . S
H3523 C3538 0.959 . S
H3524 C3538 0.961 . S
H3525 C3539 0.960 . S
H3526 C3539 0.961 . S
H3527 C3539 0.959 . S
H3528 C3542 0.929 1_655 S
H3529 C3543 0.931 . S
H3530 C3545 0.930 . S
C3531 H3519 0.930 . S
C3531 C3532 1.399 . S
C3531 C3536 1.399 . S
C3532 C3531 1.399 . S
C3532 C3533 1.376 . S
C3533 H3520 0.930 . S
C3533 C3532 1.376 . S
C3533 C3534 1.388 . S
C3534 H3521 0.930 . S
C3534 C3533 1.388 . S
C3534 C3535 1.390 . S
C3535 C3534 1.390 . S
C3535 C3536 1.394 . S
C3535 C3541 1.465 1_655 S
C3536 C3531 1.399 . S
C3536 C3535 1.394 . S
C3536 C3537 1.516 1_655 S
C3537 C3536 1.516 1_455 S
C3537 C3538 1.502 . S
C3537 C3539 1.561 . S
C3537 C3540 1.526 . S
C3538 H3522 0.959 . S
C3538 H3523 0.959 . S
C3538 H3524 0.961 . S
C3538 C3537 1.502 . S
C3539 H3525 0.960 . S
C3539 H3526 0.961 . S
C3539 H3527 0.959 . S
C3539 C3537 1.561 . S
C3540 C3537 1.526 . S
C3540 C3541 1.396 . S
C3540 C3545 1.390 . S
C3541 C3535 1.465 1_455 S
C3541 C3540 1.396 . S
C3541 C3542 1.399 . S
C3542 H3528 0.929 1_455 S
C3542 C3541 1.399 . S
C3542 C3543 1.385 . S
C3543 H3529 0.931 . S
C3543 C3542 1.385 . S
C3543 C3544 1.389 . S
C3544 C3543 1.389 . S
C3544 C3545 1.387 . S
C3545 H3530 0.930 . S
C3545 C3540 1.390 . S
C3545 C3544 1.387 . S
H3546 C3558 0.930 . S
H3547 C3560 0.930 . S
H3548 C3561 0.930 . S
H3549 C3565 0.959 . S
H3550 C3565 0.959 . S
H3551 C3565 0.961 . S
H3552 C3566 0.960 . S
H3553 C3566 0.961 . S
H3554 C3566 0.959 . S
H3555 C3569 0.929 . S
H3556 C3570 0.931 . S
H3557 C3572 0.930 . S
C3558 H3546 0.930 . S
C3558 C3559 1.399 . S
C3558 C3563 1.399 . S
C3559 C3558 1.399 . S
C3559 C3560 1.376 . S
C3560 H3547 0.930 . S
C3560 C3559 1.376 . S
C3560 C3561 1.388 . S
C3561 H3548 0.930 . S
C3561 C3560 1.388 . S
C3561 C3562 1.390 . S
C3562 C3561 1.390 . S
C3562 C3563 1.394 . S
C3562 C3568 1.465 . S
C3563 C3558 1.399 . S
C3563 C3562 1.394 . S
C3563 C3564 1.516 . S
C3564 C3563 1.516 . S
C3564 C3565 1.502 . S
C3564 C3566 1.561 . S
C3564 C3567 1.526 . S
C3565 H3549 0.959 . S
C3565 H3550 0.959 . S
C3565 H3551 0.961 . S
C3565 C3564 1.502 . S
C3566 H3552 0.960 . S
C3566 H3553 0.961 . S
C3566 H3554 0.959 . S
C3566 C3564 1.561 . S
C3567 C3564 1.526 . S
C3567 C3568 1.396 . S
C3567 C3572 1.390 . S
C3568 C3562 1.465 . S
C3568 C3567 1.396 . S
C3568 C3569 1.399 . S
C3569 H3555 0.929 . S
C3569 C3568 1.399 . S
C3569 C3570 1.385 . S
C3570 H3556 0.931 . S
C3570 C3569 1.385 . S
C3570 C3571 1.389 . S
C3571 C3570 1.389 . S
C3571 C3572 1.387 . S
C3572 H3557 0.930 . S
C3572 C3567 1.390 . S
C3572 C3571 1.387 . S
H3573 C3585 0.930 . S
H3574 C3587 0.930 . S
H3575 C3588 0.930 . S
H3576 C3592 0.959 . S
H3577 C3592 0.959 . S
H3578 C3592 0.961 . S
H3579 C3593 0.960 . S
H3580 C3593 0.961 . S
H3581 C3593 0.959 . S
H3582 C3596 0.929 . S
H3583 C3597 0.931 . S
H3584 C3599 0.930 . S
C3585 H3573 0.930 . S
C3585 C3586 1.399 . S
C3585 C3590 1.399 . S
C3586 C3585 1.399 . S
C3586 C3587 1.376 . S
C3587 H3574 0.930 . S
C3587 C3586 1.376 . S
C3587 C3588 1.388 . S
C3588 H3575 0.930 . S
C3588 C3587 1.388 . S
C3588 C3589 1.390 . S
C3589 C3588 1.390 . S
C3589 C3590 1.394 . S
C3589 C3595 1.465 . S
C3590 C3585 1.399 . S
C3590 C3589 1.394 . S
C3590 C3591 1.516 . S
C3591 C3590 1.516 . S
C3591 C3592 1.502 . S
C3591 C3593 1.561 . S
C3591 C3594 1.526 . S
C3592 H3576 0.959 . S
C3592 H3577 0.959 . S
C3592 H3578 0.961 . S
C3592 C3591 1.502 . S
C3593 H3579 0.960 . S
C3593 H3580 0.961 . S
C3593 H3581 0.959 . S
C3593 C3591 1.561 . S
C3594 C3591 1.526 . S
C3594 C3595 1.396 . S
C3594 C3599 1.390 . S
C3595 C3589 1.465 . S
C3595 C3594 1.396 . S
C3595 C3596 1.399 . S
C3596 H3582 0.929 . S
C3596 C3595 1.399 . S
C3596 C3597 1.385 . S
C3597 H3583 0.931 . S
C3597 C3596 1.385 . S
C3597 C3598 1.389 . S
C3598 C3597 1.389 . S
C3598 C3599 1.387 . S
C3599 H3584 0.930 . S
C3599 C3594 1.390 . S
C3599 C3598 1.387 . S
H3600 C3612 0.930 . S
H3601 C3614 0.930 . S
H3602 C3615 0.930 . S
H3603 C3619 0.959 . S
H3604 C3619 0.959 . S
H3605 C3619 0.961 . S
H3606 C3620 0.960 . S
H3607 C3620 0.961 . S
H3608 C3620 0.959 . S
H3609 C3623 0.929 . S
H3610 C3624 0.931 . S
H3611 C3626 0.930 . S
C3612 H3600 0.930 . S
C3612 C3613 1.399 . S
C3612 C3617 1.399 . S
C3613 C3612 1.399 . S
C3613 C3614 1.376 . S
C3614 H3601 0.930 . S
C3614 C3613 1.376 . S
C3614 C3615 1.388 . S
C3615 H3602 0.930 . S
C3615 C3614 1.388 . S
C3615 C3616 1.390 . S
C3616 C3615 1.390 . S
C3616 C3617 1.394 . S
C3616 C3622 1.465 . S
C3617 C3612 1.399 . S
C3617 C3616 1.394 . S
C3617 C3618 1.516 . S
C3618 C3617 1.516 . S
C3618 C3619 1.502 . S
C3618 C3620 1.561 . S
C3618 C3621 1.526 . S
C3619 H3603 0.959 . S
C3619 H3604 0.959 . S
C3619 H3605 0.961 . S
C3619 C3618 1.502 . S
C3620 H3606 0.960 . S
C3620 H3607 0.961 . S
C3620 H3608 0.959 . S
C3620 C3618 1.561 . S
C3621 C3618 1.526 . S
C3621 C3622 1.396 . S
C3621 C3626 1.390 . S
C3622 C3616 1.465 . S
C3622 C3621 1.396 . S
C3622 C3623 1.399 . S
C3623 H3609 0.929 . S
C3623 C3622 1.399 . S
C3623 C3624 1.385 . S
C3624 H3610 0.931 . S
C3624 C3623 1.385 . S
C3624 C3625 1.389 . S
C3625 C3624 1.389 . S
C3625 C3626 1.387 . S
C3626 H3611 0.930 . S
C3626 C3621 1.390 . S
C3626 C3625 1.387 . S
H3627 C3639 0.930 . S
H3628 C3641 0.930 . S
H3629 C3642 0.930 . S
H3630 C3646 0.959 . S
H3631 C3646 0.959 1_556 S
H3632 C3646 0.961 . S
H3633 C3647 0.960 . S
H3634 C3647 0.961 . S
H3635 C3647 0.959 . S
H3636 C3650 0.929 . S
H3637 C3651 0.931 . S
H3638 C3653 0.930 1_556 S
C3639 H3627 0.930 . S
C3639 C3640 1.399 . S
C3639 C3644 1.399 . S
C3640 C3639 1.399 . S
C3640 C3641 1.376 . S
C3641 H3628 0.930 . S
C3641 C3640 1.376 . S
C3641 C3642 1.388 . S
C3642 H3629 0.930 . S
C3642 C3641 1.388 . S
C3642 C3643 1.390 . S
C3643 C3642 1.390 . S
C3643 C3644 1.394 . S
C3643 C3649 1.465 . S
C3644 C3639 1.399 . S
C3644 C3643 1.394 . S
C3644 C3645 1.516 . S
C3645 C3644 1.516 . S
C3645 C3646 1.502 . S
C3645 C3647 1.561 . S
C3645 C3648 1.526 . S
C3646 H3630 0.959 . S
C3646 H3631 0.959 1_554 S
C3646 H3632 0.961 . S
C3646 C3645 1.502 . S
C3647 H3633 0.960 . S
C3647 H3634 0.961 . S
C3647 H3635 0.959 . S
C3647 C3645 1.561 . S
C3648 C3645 1.526 . S
C3648 C3649 1.396 . S
C3648 C3653 1.390 . S
C3649 C3643 1.465 . S
C3649 C3648 1.396 . S
C3649 C3650 1.399 . S
C3650 H3636 0.929 . S
C3650 C3649 1.399 . S
C3650 C3651 1.385 . S
C3651 H3637 0.931 . S
C3651 C3650 1.385 . S
C3651 C3652 1.389 . S
C3652 C3651 1.389 . S
C3652 C3653 1.387 . S
C3653 H3638 0.930 1_554 S
C3653 C3648 1.390 . S
C3653 C3652 1.387 . S
H3654 C3666 0.930 . S
H3655 C3668 0.930 . S
H3656 C3669 0.930 . S
H3657 C3673 0.959 . S
H3658 C3673 0.959 . S
H3659 C3673 0.961 . S
H3660 C3674 0.960 . S
H3661 C3674 0.961 . S
H3662 C3674 0.959 . S
H3663 C3677 0.929 . S
H3664 C3678 0.931 1_556 S
H3665 C3680 0.930 . S
C3666 H3654 0.930 . S
C3666 C3667 1.399 . S
C3666 C3671 1.399 . S
C3667 C3666 1.399 . S
C3667 C3668 1.376 . S
C3668 H3655 0.930 . S
C3668 C3667 1.376 . S
C3668 C3669 1.388 . S
C3669 H3656 0.930 . S
C3669 C3668 1.388 . S
C3669 C3670 1.390 . S
C3670 C3669 1.390 . S
C3670 C3671 1.394 . S
C3670 C3676 1.465 . S
C3671 C3666 1.399 . S
C3671 C3670 1.394 . S
C3671 C3672 1.516 . S
C3672 C3671 1.516 . S
C3672 C3673 1.502 . S
C3672 C3674 1.561 . S
C3672 C3675 1.526 . S
C3673 H3657 0.959 . S
C3673 H3658 0.959 . S
C3673 H3659 0.961 . S
C3673 C3672 1.502 . S
C3674 H3660 0.960 . S
C3674 H3661 0.961 . S
C3674 H3662 0.959 . S
C3674 C3672 1.561 . S
C3675 C3672 1.526 . S
C3675 C3676 1.396 . S
C3675 C3680 1.390 . S
C3676 C3670 1.465 . S
C3676 C3675 1.396 . S
C3676 C3677 1.399 . S
C3677 H3663 0.929 . S
C3677 C3676 1.399 . S
C3677 C3678 1.385 . S
C3678 H3664 0.931 1_554 S
C3678 C3677 1.385 . S
C3678 C3679 1.389 . S
C3679 C3678 1.389 . S
C3679 C3680 1.387 . S
C3680 H3665 0.930 . S
C3680 C3675 1.390 . S
C3680 C3679 1.387 . S
H3681 C3693 0.930 . S
H3682 C3695 0.930 . S
H3683 C3696 0.930 . S
H3684 C3700 0.959 . S
H3685 C3700 0.959 . S
H3686 C3700 0.961 . S
H3687 C3701 0.960 . S
H3688 C3701 0.961 . S
H3689 C3701 0.959 . S
H3690 C3704 0.929 . S
H3691 C3705 0.931 1_556 S
H3692 C3707 0.930 . S
C3693 H3681 0.930 . S
C3693 C3694 1.399 . S
C3693 C3698 1.399 . S
C3694 C3693 1.399 . S
C3694 C3695 1.376 . S
C3695 H3682 0.930 . S
C3695 C3694 1.376 . S
C3695 C3696 1.388 . S
C3696 H3683 0.930 . S
C3696 C3695 1.388 . S
C3696 C3697 1.390 . S
C3697 C3696 1.390 . S
C3697 C3698 1.394 . S
C3697 C3703 1.465 . S
C3698 C3693 1.399 . S
C3698 C3697 1.394 . S
C3698 C3699 1.516 . S
C3699 C3698 1.516 . S
C3699 C3700 1.502 . S
C3699 C3701 1.561 . S
C3699 C3702 1.526 . S
C3700 H3684 0.959 . S
C3700 H3685 0.959 . S
C3700 H3686 0.961 . S
C3700 C3699 1.502 . S
C3701 H3687 0.960 . S
C3701 H3688 0.961 . S
C3701 H3689 0.959 . S
C3701 C3699 1.561 . S
C3702 C3699 1.526 . S
C3702 C3703 1.396 . S
C3702 C3707 1.390 . S
C3703 C3697 1.465 . S
C3703 C3702 1.396 . S
C3703 C3704 1.399 . S
C3704 H3690 0.929 . S
C3704 C3703 1.399 . S
C3704 C3705 1.385 . S
C3705 H3691 0.931 1_554 S
C3705 C3704 1.385 . S
C3705 C3706 1.389 . S
C3706 C3705 1.389 . S
C3706 C3707 1.387 . S
C3707 H3692 0.930 . S
C3707 C3702 1.390 . S
C3707 C3706 1.387 . S
H3708 C3720 0.930 . S
H3709 C3722 0.930 . S
H3710 C3723 0.930 . S
H3711 C3727 0.959 . S
H3712 C3727 0.959 . S
H3713 C3727 0.961 . S
H3714 C3728 0.960 . S
H3715 C3728 0.961 . S
H3716 C3728 0.959 . S
H3717 C3731 0.929 1_554 S
H3718 C3732 0.944 . S
H3719 C3734 0.930 . S
C3720 H3708 0.930 . S
C3720 C3721 1.399 . S
C3720 C3725 1.399 . S
C3721 C3720 1.399 . S
C3721 C3722 1.376 . S
C3722 H3709 0.930 . S
C3722 C3721 1.376 . S
C3722 C3723 1.388 . S
C3723 H3710 0.930 . S
C3723 C3722 1.388 . S
C3723 C3724 1.390 . S
C3724 C3723 1.390 . S
C3724 C3725 1.394 . S
C3724 C3730 1.465 . S
C3725 C3720 1.399 . S
C3725 C3724 1.394 . S
C3725 C3726 1.516 . S
C3726 C3725 1.516 . S
C3726 C3727 1.502 . S
C3726 C3728 1.561 . S
C3726 C3729 1.526 . S
C3727 H3711 0.959 . S
C3727 H3712 0.959 . S
C3727 H3713 0.961 . S
C3727 C3726 1.502 . S
C3728 H3714 0.960 . S
C3728 H3715 0.961 . S
C3728 H3716 0.959 . S
C3728 C3726 1.561 . S
C3729 C3726 1.526 . S
C3729 C3730 1.396 . S
C3729 C3734 1.390 . S
C3730 C3724 1.465 . S
C3730 C3729 1.396 . S
C3730 C3731 1.399 . S
C3731 H3717 0.929 1_556 S
C3731 C3730 1.399 . S
C3731 C3732 1.381 1_556 S
C3732 H3718 0.944 . S
C3732 C3731 1.381 1_554 S
C3732 C3733 1.381 1_554 S
C3733 C3732 1.381 1_556 S
C3733 C3734 1.387 . S
C3734 H3719 0.930 . S
C3734 C3729 1.390 . S
C3734 C3733 1.387 . S
H3735 C3747 0.930 . S
H3736 C3749 0.930 1_554 S
H3737 C3750 0.930 . S
H3738 C3754 0.959 . S
H3739 C3754 0.959 . S
H3740 C3754 0.961 . S
H3741 C3755 0.960 . S
H3742 C3755 0.961 . S
H3743 C3755 0.959 . S
H3744 C3758 0.929 . S
H3745 C3759 0.931 . S
H3746 C3761 0.930 . S
C3747 H3735 0.930 . S
C3747 C3748 1.399 . S
C3747 C3752 1.399 . S
C3748 C3747 1.399 . S
C3748 C3749 1.376 . S
C3749 H3736 0.930 1_556 S
C3749 C3748 1.376 . S
C3749 C3750 1.388 . S
C3750 H3737 0.930 . S
C3750 C3749 1.388 . S
C3750 C3751 1.390 . S
C3751 C3750 1.390 . S
C3751 C3752 1.394 . S
C3751 C3757 1.465 . S
C3752 C3747 1.399 . S
C3752 C3751 1.394 . S
C3752 C3753 1.516 . S
C3753 C3752 1.516 . S
C3753 C3754 1.502 . S
C3753 C3755 1.561 . S
C3753 C3756 1.526 . S
C3754 H3738 0.959 . S
C3754 H3739 0.959 . S
C3754 H3740 0.961 . S
C3754 C3753 1.502 . S
C3755 H3741 0.960 . S
C3755 H3742 0.961 . S
C3755 H3743 0.959 . S
C3755 C3753 1.561 . S
C3756 C3753 1.526 . S
C3756 C3757 1.396 . S
C3756 C3761 1.390 . S
C3757 C3751 1.465 . S
C3757 C3756 1.396 . S
C3757 C3758 1.399 . S
C3758 H3744 0.929 . S
C3758 C3757 1.399 . S
C3758 C3759 1.385 . S
C3759 H3745 0.931 . S
C3759 C3758 1.385 . S
C3759 C3760 1.389 . S
C3760 C3759 1.389 . S
C3760 C3761 1.387 . S
C3761 H3746 0.930 . S
C3761 C3756 1.390 . S
C3761 C3760 1.387 . S
H3762 C3774 0.930 . S
H3763 C3776 0.930 . S
H3764 C3777 0.930 . S
H3765 C3781 0.959 . S
H3766 C3781 0.959 . S
H3767 C3781 0.961 . S
H3768 C3782 0.960 . S
H3769 C3782 0.961 . S
H3770 C3782 0.959 . S
H3771 C3785 0.929 . S
H3772 C3786 0.931 . S
H3773 C3788 0.930 . S
C3774 H3762 0.930 . S
C3774 C3775 1.399 . S
C3774 C3779 1.399 . S
C3775 C3774 1.399 . S
C3775 C3776 1.376 . S
C3776 H3763 0.930 . S
C3776 C3775 1.376 . S
C3776 C3777 1.388 . S
C3777 H3764 0.930 . S
C3777 C3776 1.388 . S
C3777 C3778 1.390 . S
C3778 C3777 1.390 . S
C3778 C3779 1.394 . S
C3778 C3784 1.465 . S
C3779 C3774 1.399 . S
C3779 C3778 1.394 . S
C3779 C3780 1.516 . S
C3780 C3779 1.516 . S
C3780 C3781 1.502 . S
C3780 C3782 1.561 . S
C3780 C3783 1.526 . S
C3781 H3765 0.959 . S
C3781 H3766 0.959 . S
C3781 H3767 0.961 . S
C3781 C3780 1.502 . S
C3782 H3768 0.960 . S
C3782 H3769 0.961 . S
C3782 H3770 0.959 . S
C3782 C3780 1.561 . S
C3783 C3780 1.526 . S
C3783 C3784 1.396 . S
C3783 C3788 1.390 . S
C3784 C3778 1.465 . S
C3784 C3783 1.396 . S
C3784 C3785 1.399 . S
C3785 H3771 0.929 . S
C3785 C3784 1.399 . S
C3785 C3786 1.385 . S
C3786 H3772 0.931 . S
C3786 C3785 1.385 . S
C3786 C3787 1.389 . S
C3787 C3786 1.389 . S
C3787 C3788 1.387 . S
C3788 H3773 0.930 . S
C3788 C3783 1.390 . S
C3788 C3787 1.387 . S
H3789 C3801 0.930 . S
H3790 C3803 0.930 . S
H3791 C3804 0.930 . S
H3792 C3808 0.959 . S
H3793 C3808 0.959 . S
H3794 C3808 0.961 . S
H3795 C3809 0.960 . S
H3796 C3809 0.961 . S
H3797 C3809 0.959 . S
H3798 C3812 0.929 . S
H3799 C3813 0.931 . S
H3800 C3815 0.930 . S
C3801 H3789 0.930 . S
C3801 C3802 1.399 . S
C3801 C3806 1.399 . S
C3802 C3801 1.399 . S
C3802 C3803 1.376 . S
C3803 H3790 0.930 . S
C3803 C3802 1.376 . S
C3803 C3804 1.388 . S
C3804 H3791 0.930 . S
C3804 C3803 1.388 . S
C3804 C3805 1.390 . S
C3805 C3804 1.390 . S
C3805 C3806 1.394 . S
C3805 C3811 1.465 . S
C3806 C3801 1.399 . S
C3806 C3805 1.394 . S
C3806 C3807 1.516 . S
C3807 C3806 1.516 . S
C3807 C3808 1.502 . S
C3807 C3809 1.561 . S
C3807 C3810 1.526 . S
C3808 H3792 0.959 . S
C3808 H3793 0.959 . S
C3808 H3794 0.961 . S
C3808 C3807 1.502 . S
C3809 H3795 0.960 . S
C3809 H3796 0.961 . S
C3809 H3797 0.959 . S
C3809 C3807 1.561 . S
C3810 C3807 1.526 . S
C3810 C3811 1.396 . S
C3810 C3815 1.390 . S
C3811 C3805 1.465 . S
C3811 C3810 1.396 . S
C3811 C3812 1.399 . S
C3812 H3798 0.929 . S
C3812 C3811 1.399 . S
C3812 C3813 1.385 . S
C3813 H3799 0.931 . S
C3813 C3812 1.385 . S
C3813 C3814 1.389 . S
C3814 C3813 1.389 . S
C3814 C3815 1.387 . S
C3815 H3800 0.930 . S
C3815 C3810 1.390 . S
C3815 C3814 1.387 . S
H3816 C3828 0.930 . S
H3817 C3830 0.930 . S
H3818 C3831 0.930 . S
H3819 C3835 0.959 . S
H3820 C3835 0.959 . S
H3821 C3835 0.961 . S
H3822 C3836 0.960 . S
H3823 C3836 0.961 . S
H3824 C3836 0.959 . S
H3825 C3839 0.929 . S
H3826 C3840 0.931 . S
H3827 C3842 0.930 . S
C3828 H3816 0.930 . S
C3828 C3829 1.399 . S
C3828 C3833 1.399 . S
C3829 C3828 1.399 . S
C3829 C3830 1.376 . S
C3830 H3817 0.930 . S
C3830 C3829 1.376 . S
C3830 C3831 1.388 . S
C3831 H3818 0.930 . S
C3831 C3830 1.388 . S
C3831 C3832 1.390 . S
C3832 C3831 1.390 . S
C3832 C3833 1.394 . S
C3832 C3838 1.465 . S
C3833 C3828 1.399 . S
C3833 C3832 1.394 . S
C3833 C3834 1.516 . S
C3834 C3833 1.516 . S
C3834 C3835 1.502 . S
C3834 C3836 1.561 . S
C3834 C3837 1.526 . S
C3835 H3819 0.959 . S
C3835 H3820 0.959 . S
C3835 H3821 0.961 . S
C3835 C3834 1.502 . S
C3836 H3822 0.960 . S
C3836 H3823 0.961 . S
C3836 H3824 0.959 . S
C3836 C3834 1.561 . S
C3837 C3834 1.526 . S
C3837 C3838 1.396 . S
C3837 C3842 1.390 . S
C3838 C3832 1.465 . S
C3838 C3837 1.396 . S
C3838 C3839 1.399 . S
C3839 H3825 0.929 . S
C3839 C3838 1.399 . S
C3839 C3840 1.385 . S
C3840 H3826 0.931 . S
C3840 C3839 1.385 . S
C3840 C3841 1.389 . S
C3841 C3840 1.389 . S
C3841 C3842 1.387 . S
C3842 H3827 0.930 . S
C3842 C3837 1.390 . S
C3842 C3841 1.387 . S
H3843 C3855 0.930 . S
H3844 C3857 0.930 . S
H3845 C3858 0.930 . S
H3846 C3862 0.959 . S
H3847 C3862 0.959 . S
H3848 C3862 0.961 . S
H3849 C3863 0.960 . S
H3850 C3863 0.961 . S
H3851 C3863 0.959 . S
H3852 C3866 0.929 . S
H3853 C3867 0.931 . S
H3854 C3869 0.930 . S
C3855 H3843 0.930 . S
C3855 C3856 1.399 . S
C3855 C3860 1.399 . S
C3856 C3855 1.399 . S
C3856 C3857 1.376 . S
C3857 H3844 0.930 . S
C3857 C3856 1.376 . S
C3857 C3858 1.388 . S
C3858 H3845 0.930 . S
C3858 C3857 1.388 . S
C3858 C3859 1.390 . S
C3859 C3858 1.390 . S
C3859 C3860 1.394 . S
C3859 C3865 1.465 . S
C3860 C3855 1.399 . S
C3860 C3859 1.394 . S
C3860 C3861 1.516 . S
C3861 C3860 1.516 . S
C3861 C3862 1.502 . S
C3861 C3863 1.561 . S
C3861 C3864 1.526 . S
C3862 H3846 0.959 . S
C3862 H3847 0.959 . S
C3862 H3848 0.961 . S
C3862 C3861 1.502 . S
C3863 H3849 0.960 . S
C3863 H3850 0.961 . S
C3863 H3851 0.959 . S
C3863 C3861 1.561 . S
C3864 C3861 1.526 . S
C3864 C3865 1.396 . S
C3864 C3869 1.390 . S
C3865 C3859 1.465 . S
C3865 C3864 1.396 . S
C3865 C3866 1.399 . S
C3866 H3852 0.929 . S
C3866 C3865 1.399 . S
C3866 C3867 1.385 . S
C3867 H3853 0.931 . S
C3867 C3866 1.385 . S
C3867 C3868 1.389 . S
C3868 C3867 1.389 . S
C3868 C3869 1.387 . S
C3869 H3854 0.930 . S
C3869 C3864 1.390 . S
C3869 C3868 1.387 . S
H3870 C3882 0.930 . S
H3871 C3884 0.930 . S
H3872 C3885 0.930 . S
H3873 C3889 0.959 . S
H3874 C3889 0.959 . S
H3875 C3889 0.961 . S
H3876 C3890 0.960 . S
H3877 C3890 0.961 . S
H3878 C3890 0.959 . S
H3879 C3893 0.929 . S
H3880 C3894 0.931 . S
H3881 C3896 0.930 . S
C3882 H3870 0.930 . S
C3882 C3883 1.399 . S
C3882 C3887 1.399 . S
C3883 C3882 1.399 . S
C3883 C3884 1.376 . S
C3884 H3871 0.930 . S
C3884 C3883 1.376 . S
C3884 C3885 1.388 . S
C3885 H3872 0.930 . S
C3885 C3884 1.388 . S
C3885 C3886 1.390 . S
C3886 C3885 1.390 . S
C3886 C3887 1.394 . S
C3886 C3892 1.465 . S
C3887 C3882 1.399 . S
C3887 C3886 1.394 . S
C3887 C3888 1.516 . S
C3888 C3887 1.516 . S
C3888 C3889 1.502 . S
C3888 C3890 1.561 . S
C3888 C3891 1.526 . S
C3889 H3873 0.959 . S
C3889 H3874 0.959 . S
C3889 H3875 0.961 . S
C3889 C3888 1.502 . S
C3890 H3876 0.960 . S
C3890 H3877 0.961 . S
C3890 H3878 0.959 . S
C3890 C3888 1.561 . S
C3891 C3888 1.526 . S
C3891 C3892 1.396 . S
C3891 C3896 1.390 . S
C3892 C3886 1.465 . S
C3892 C3891 1.396 . S
C3892 C3893 1.399 . S
C3893 H3879 0.929 . S
C3893 C3892 1.399 . S
C3893 C3894 1.385 . S
C3894 H3880 0.931 . S
C3894 C3893 1.385 . S
C3894 C3895 1.389 . S
C3895 C3894 1.389 . S
C3895 C3896 1.387 . S
C3896 H3881 0.930 . S
C3896 C3891 1.390 . S
C3896 C3895 1.387 . S
H3897 C3909 0.930 . S
H3898 C3911 0.930 . S
H3899 C3912 0.930 . S
H3900 C3916 0.959 . S
H3901 C3916 0.959 . S
H3902 C3916 0.961 . S
H3903 C3917 0.960 . S
H3904 C3917 0.961 . S
H3905 C3917 0.959 . S
H3906 C3920 0.929 . S
H3907 C3921 0.931 . S
H3908 C3923 0.930 . S
C3909 H3897 0.930 . S
C3909 C3910 1.399 . S
C3909 C3914 1.399 . S
C3910 C3909 1.399 . S
C3910 C3911 1.376 . S
C3911 H3898 0.930 . S
C3911 C3910 1.376 . S
C3911 C3912 1.388 . S
C3912 H3899 0.930 . S
C3912 C3911 1.388 . S
C3912 C3913 1.390 . S
C3913 C3912 1.390 . S
C3913 C3914 1.394 . S
C3913 C3919 1.465 . S
C3914 C3909 1.399 . S
C3914 C3913 1.394 . S
C3914 C3915 1.516 . S
C3915 C3914 1.516 . S
C3915 C3916 1.502 . S
C3915 C3917 1.561 . S
C3915 C3918 1.526 . S
C3916 H3900 0.959 . S
C3916 H3901 0.959 . S
C3916 H3902 0.961 . S
C3916 C3915 1.502 . S
C3917 H3903 0.960 . S
C3917 H3904 0.961 . S
C3917 H3905 0.959 . S
C3917 C3915 1.561 . S
C3918 C3915 1.526 . S
C3918 C3919 1.396 . S
C3918 C3923 1.390 . S
C3919 C3913 1.465 . S
C3919 C3918 1.396 . S
C3919 C3920 1.399 . S
C3920 H3906 0.929 . S
C3920 C3919 1.399 . S
C3920 C3921 1.385 . S
C3921 H3907 0.931 . S
C3921 C3920 1.385 . S
C3921 C3922 1.389 . S
C3922 C3921 1.389 . S
C3922 C3923 1.387 . S
C3923 H3908 0.930 . S
C3923 C3918 1.390 . S
C3923 C3922 1.387 . S
H3924 C3936 0.930 . S
H3925 C3938 0.989 . S
H3926 C3939 0.930 . S
H3927 C3943 0.959 . S
H3928 C3943 0.959 . S
H3929 C3943 0.961 . S
H3930 C3944 0.960 . S
H3931 C3944 0.961 . S
H3932 C3944 0.959 . S
H3933 C3947 0.929 . S
H3934 C3948 0.931 . S
H3935 C3950 0.930 . S
C3936 H3924 0.930 . S
C3936 C3937 1.399 . S
C3936 C3941 1.399 . S
C3937 C3936 1.399 . S
C3937 C3938 1.380 1_455 S
C3938 H3925 0.989 . S
C3938 C3937 1.380 1_655 S
C3938 C3939 1.331 1_655 S
C3939 H3926 0.930 . S
C3939 C3938 1.331 1_455 S
C3939 C3940 1.390 . S
C3940 C3939 1.390 . S
C3940 C3941 1.394 . S
C3940 C3946 1.465 . S
C3941 C3936 1.399 . S
C3941 C3940 1.394 . S
C3941 C3942 1.516 . S
C3942 C3941 1.516 . S
C3942 C3943 1.502 . S
C3942 C3944 1.561 . S
C3942 C3945 1.526 . S
C3943 H3927 0.959 . S
C3943 H3928 0.959 . S
C3943 H3929 0.961 . S
C3943 C3942 1.502 . S
C3944 H3930 0.960 . S
C3944 H3931 0.961 . S
C3944 H3932 0.959 . S
C3944 C3942 1.561 . S
C3945 C3942 1.526 . S
C3945 C3946 1.396 . S
C3945 C3950 1.390 . S
C3946 C3940 1.465 . S
C3946 C3945 1.396 . S
C3946 C3947 1.399 . S
C3947 H3933 0.929 . S
C3947 C3946 1.399 . S
C3947 C3948 1.385 . S
C3948 H3934 0.931 . S
C3948 C3947 1.385 . S
C3948 C3949 1.389 . S
C3949 C3948 1.389 . S
C3949 C3950 1.387 . S
C3950 H3935 0.930 . S
C3950 C3945 1.390 . S
C3950 C3949 1.387 . S
H3951 C3963 0.930 . S
H3952 C3965 0.930 . S
H3953 C3966 0.930 . S
H3954 C3970 0.959 . S
H3955 C3970 0.959 . S
H3956 C3970 0.961 . S
H3957 C3971 0.960 . S
H3958 C3971 0.961 . S
H3959 C3971 0.959 . S
H3960 C3974 0.929 . S
H3961 C3975 0.931 . S
H3962 C3977 0.930 . S
C3963 H3951 0.930 . S
C3963 C3964 1.399 . S
C3963 C3968 1.399 . S
C3964 C3963 1.399 . S
C3964 C3965 1.376 . S
C3965 H3952 0.930 . S
C3965 C3964 1.376 . S
C3965 C3966 1.388 . S
C3966 H3953 0.930 . S
C3966 C3965 1.388 . S
C3966 C3967 1.390 . S
C3967 C3966 1.390 . S
C3967 C3968 1.394 . S
C3967 C3973 1.465 . S
C3968 C3963 1.399 . S
C3968 C3967 1.394 . S
C3968 C3969 1.516 . S
C3969 C3968 1.516 . S
C3969 C3970 1.502 . S
C3969 C3971 1.561 . S
C3969 C3972 1.526 . S
C3970 H3954 0.959 . S
C3970 H3955 0.959 . S
C3970 H3956 0.961 . S
C3970 C3969 1.502 . S
C3971 H3957 0.960 . S
C3971 H3958 0.961 . S
C3971 H3959 0.959 . S
C3971 C3969 1.561 . S
C3972 C3969 1.526 . S
C3972 C3973 1.396 . S
C3972 C3977 1.390 . S
C3973 C3967 1.465 . S
C3973 C3972 1.396 . S
C3973 C3974 1.399 . S
C3974 H3960 0.929 . S
C3974 C3973 1.399 . S
C3974 C3975 1.385 . S
C3975 H3961 0.931 . S
C3975 C3974 1.385 . S
C3975 C3976 1.389 . S
C3976 C3975 1.389 . S
C3976 C3977 1.387 . S
C3977 H3962 0.930 . S
C3977 C3972 1.390 . S
C3977 C3976 1.387 . S
H3978 C3990 0.930 1_565 S
H3979 C3992 0.930 . S
H3980 C3993 0.930 . S
H3981 C3997 0.959 . S
H3982 C3997 0.959 . S
H3983 C3997 0.961 . S
H3984 C3998 0.960 . S
H3985 C3998 0.961 . S
H3986 C3998 0.959 . S
H3987 C4001 0.929 . S
H3988 C4002 0.931 . S
H3989 C4004 0.930 . S
C3990 H3978 0.930 1_545 S
C3990 C3991 1.399 . S
C3990 C3995 1.399 . S
C3991 C3990 1.399 . S
C3991 C3992 1.376 . S
C3992 H3979 0.930 . S
C3992 C3991 1.376 . S
C3992 C3993 1.388 . S
C3993 H3980 0.930 . S
C3993 C3992 1.388 . S
C3993 C3994 1.390 . S
C3994 C3993 1.390 . S
C3994 C3995 1.394 . S
C3994 C4000 1.465 . S
C3995 C3990 1.399 . S
C3995 C3994 1.394 . S
C3995 C3996 1.516 . S
C3996 C3995 1.516 . S
C3996 C3997 1.502 1_545 S
C3996 C3998 1.561 . S
C3996 C3999 1.526 . S
C3997 H3981 0.959 . S
C3997 H3982 0.959 . S
C3997 H3983 0.961 . S
C3997 C3996 1.502 1_565 S
C3998 H3984 0.960 . S
C3998 H3985 0.961 . S
C3998 H3986 0.959 . S
C3998 C3996 1.561 . S
C3999 C3996 1.526 . S
C3999 C4000 1.396 . S
C3999 C4004 1.390 . S
C4000 C3994 1.465 . S
C4000 C3999 1.396 . S
C4000 C4001 1.399 . S
C4001 H3987 0.929 . S
C4001 C4000 1.399 . S
C4001 C4002 1.385 . S
C4002 H3988 0.931 . S
C4002 C4001 1.385 . S
C4002 C4003 1.389 . S
C4003 C4002 1.389 . S
C4003 C4004 1.387 . S
C4004 H3989 0.930 . S
C4004 C3999 1.390 . S
C4004 C4003 1.387 . S
H4005 C4017 0.930 . S
H4006 C4019 0.930 . S
H4007 C4020 0.939 . S
H4008 C4024 0.959 . S
H4009 C4024 0.959 . S
H4010 C4024 0.961 . S
H4011 C4025 0.960 . S
H4012 C4025 0.961 . S
H4013 C4025 0.959 . S
H4014 C4028 0.929 . S
H4015 C4029 0.931 . S
H4016 C4031 0.930 . S
C4017 H4005 0.930 . S
C4017 C4018 1.399 . S
C4017 C4022 1.399 . S
C4018 C4017 1.399 . S
C4018 C4019 1.376 1_655 S
C4019 H4006 0.930 . S
C4019 C4018 1.376 1_455 S
C4019 C4020 1.388 1_455 S
C4020 H4007 0.939 . S
C4020 C4019 1.388 1_655 S
C4020 C4021 1.390 . S
C4021 C4020 1.390 . S
C4021 C4022 1.394 . S
C4021 C4027 1.465 . S
C4022 C4017 1.399 . S
C4022 C4021 1.394 . S
C4022 C4023 1.516 . S
C4023 C4022 1.516 . S
C4023 C4024 1.502 . S
C4023 C4025 1.561 . S
C4023 C4026 1.526 . S
C4024 H4008 0.959 . S
C4024 H4009 0.959 . S
C4024 H4010 0.961 . S
C4024 C4023 1.502 . S
C4025 H4011 0.960 . S
C4025 H4012 0.961 . S
C4025 H4013 0.959 . S
C4025 C4023 1.561 . S
C4026 C4023 1.526 . S
C4026 C4027 1.396 . S
C4026 C4031 1.390 . S
C4027 C4021 1.465 . S
C4027 C4026 1.396 . S
C4027 C4028 1.399 . S
C4028 H4014 0.929 . S
C4028 C4027 1.399 . S
C4028 C4029 1.385 . S
C4029 H4015 0.931 . S
C4029 C4028 1.385 . S
C4029 C4030 1.389 . S
C4030 C4029 1.389 . S
C4030 C4031 1.387 . S
C4031 H4016 0.930 . S
C4031 C4026 1.390 . S
C4031 C4030 1.387 . S
H4032 C4044 0.930 . S
H4033 C4046 0.930 . S
H4034 C4047 0.930 . S
H4035 C4051 0.959 . S
H4036 C4051 0.959 . S
H4037 C4051 0.961 . S
H4038 C4052 0.960 . S
H4039 C4052 0.961 . S
H4040 C4052 0.959 . S
H4041 C4055 0.929 . S
H4042 C4056 0.931 . S
H4043 C4058 0.930 . S
C4044 H4032 0.930 . S
C4044 C4045 1.399 . S
C4044 C4049 1.399 . S
C4045 C4044 1.399 . S
C4045 C4046 1.376 . S
C4046 H4033 0.930 . S
C4046 C4045 1.376 . S
C4046 C4047 1.388 . S
C4047 H4034 0.930 . S
C4047 C4046 1.388 . S
C4047 C4048 1.390 . S
C4048 C4047 1.390 . S
C4048 C4049 1.394 . S
C4048 C4054 1.465 . S
C4049 C4044 1.399 . S
C4049 C4048 1.394 . S
C4049 C4050 1.516 . S
C4050 C4049 1.516 . S
C4050 C4051 1.502 . S
C4050 C4052 1.561 . S
C4050 C4053 1.526 . S
C4051 H4035 0.959 . S
C4051 H4036 0.959 . S
C4051 H4037 0.961 . S
C4051 C4050 1.502 . S
C4052 H4038 0.960 . S
C4052 H4039 0.961 . S
C4052 H4040 0.959 . S
C4052 C4050 1.561 . S
C4053 C4050 1.526 . S
C4053 C4054 1.396 . S
C4053 C4058 1.390 . S
C4054 C4048 1.465 . S
C4054 C4053 1.396 . S
C4054 C4055 1.399 . S
C4055 H4041 0.929 . S
C4055 C4054 1.399 . S
C4055 C4056 1.385 . S
C4056 H4042 0.931 . S
C4056 C4055 1.385 . S
C4056 C4057 1.389 . S
C4057 C4056 1.389 . S
C4057 C4058 1.387 . S
C4058 H4043 0.930 . S
C4058 C4053 1.390 . S
C4058 C4057 1.387 . S
H4059 C4071 0.930 . S
H4060 C4073 0.930 . S
H4061 C4074 0.930 . S
H4062 C4078 0.959 . S
H4063 C4078 0.959 1_554 S
H4064 C4078 0.961 1_554 S
H4065 C4079 0.955 1_565 S
H4066 C4079 0.961 1_554 S
H4067 C4079 0.921 1_565 S
H4068 C4082 0.929 . S
H4069 C4083 0.931 . S
H4070 C4085 0.930 . S
C4071 H4059 0.930 . S
C4071 C4072 1.399 . S
C4071 C4076 1.399 . S
C4072 C4071 1.399 . S
C4072 C4073 1.376 . S
C4073 H4060 0.930 . S
C4073 C4072 1.376 . S
C4073 C4074 1.388 . S
C4074 H4061 0.930 . S
C4074 C4073 1.388 . S
C4074 C4075 1.390 . S
C4075 C4074 1.390 . S
C4075 C4076 1.394 . S
C4075 C4081 1.465 . S
C4076 C4071 1.399 . S
C4076 C4075 1.394 . S
C4076 C4077 1.516 . S
C4077 C4076 1.516 . S
C4077 C4078 1.502 . S
C4077 C4079 1.561 . S
C4077 C4080 1.526 . S
C4078 H4062 0.959 . S
C4078 H4063 0.959 1_556 S
C4078 H4064 0.961 1_556 S
C4078 C4077 1.502 . S
C4079 H4065 0.955 1_545 S
C4079 H4066 0.961 1_556 S
C4079 H4067 0.921 1_545 S
C4079 C4077 1.561 . S
C4080 C4077 1.526 . S
C4080 C4081 1.396 . S
C4080 C4085 1.390 . S
C4081 C4075 1.465 . S
C4081 C4080 1.396 . S
C4081 C4082 1.399 . S
C4082 H4068 0.929 . S
C4082 C4081 1.399 . S
C4082 C4083 1.385 . S
C4083 H4069 0.931 . S
C4083 C4082 1.385 . S
C4083 C4084 1.389 . S
C4084 C4083 1.389 . S
C4084 C4085 1.387 . S
C4085 H4070 0.930 . S
C4085 C4080 1.390 . S
C4085 C4084 1.387 . S
H4086 C4098 0.930 . S
H4087 C4100 0.930 . S
H4088 C4101 0.930 . S
H4089 C4105 0.959 . S
H4090 C4105 0.959 . S
H4091 C4105 0.961 . S
H4092 C4106 0.960 . S
H4093 C4106 0.961 . S
H4094 C4106 0.959 . S
H4095 C4109 0.930 1_455 S
H4096 C4110 0.931 . S
H4097 C4112 0.930 . S
C4098 H4086 0.930 . S
C4098 C4099 1.399 . S
C4098 C4103 1.399 . S
C4099 C4098 1.399 . S
C4099 C4100 1.376 . S
C4100 H4087 0.930 . S
C4100 C4099 1.376 . S
C4100 C4101 1.388 . S
C4101 H4088 0.930 . S
C4101 C4100 1.388 . S
C4101 C4102 1.390 . S
C4102 C4101 1.390 . S
C4102 C4103 1.394 . S
C4102 C4108 1.465 . S
C4103 C4098 1.399 . S
C4103 C4102 1.394 . S
C4103 C4104 1.516 . S
C4104 C4103 1.516 . S
C4104 C4105 1.502 . S
C4104 C4106 1.561 . S
C4104 C4107 1.526 . S
C4105 H4089 0.959 . S
C4105 H4090 0.959 . S
C4105 H4091 0.961 . S
C4105 C4104 1.502 . S
C4106 H4092 0.960 . S
C4106 H4093 0.961 . S
C4106 H4094 0.959 . S
C4106 C4104 1.561 . S
C4107 C4104 1.526 . S
C4107 C4108 1.396 . S
C4107 C4112 1.390 . S
C4108 C4102 1.465 . S
C4108 C4107 1.396 . S
C4108 C4109 1.399 . S
C4109 H4095 0.930 1_655 S
C4109 C4108 1.399 . S
C4109 C4110 1.385 1_655 S
C4110 H4096 0.931 . S
C4110 C4109 1.385 1_455 S
C4110 C4111 1.389 1_455 S
C4111 C4110 1.389 1_655 S
C4111 C4112 1.387 . S
C4112 H4097 0.930 . S
C4112 C4107 1.390 . S
C4112 C4111 1.387 . S
H4113 C4125 0.930 . S
H4114 C4127 0.930 . S
H4115 C4128 0.930 . S
H4116 C4132 0.959 . S
H4117 C4132 0.959 . S
H4118 C4132 0.961 . S
H4119 C4133 0.960 . S
H4120 C4133 0.961 . S
H4121 C4133 0.959 . S
H4122 C4136 0.929 . S
H4123 C4137 0.931 . S
H4124 C4139 0.930 . S
C4125 H4113 0.930 . S
C4125 C4126 1.399 . S
C4125 C4130 1.399 . S
C4126 C4125 1.399 . S
C4126 C4127 1.376 . S
C4127 H4114 0.930 . S
C4127 C4126 1.376 . S
C4127 C4128 1.388 . S
C4128 H4115 0.930 . S
C4128 C4127 1.388 . S
C4128 C4129 1.390 . S
C4129 C4128 1.390 . S
C4129 C4130 1.394 . S
C4129 C4135 1.465 . S
C4130 C4125 1.399 . S
C4130 C4129 1.394 . S
C4130 C4131 1.516 . S
C4131 C4130 1.516 . S
C4131 C4132 1.502 . S
C4131 C4133 1.561 . S
C4131 C4134 1.526 . S
C4132 H4116 0.959 . S
C4132 H4117 0.959 . S
C4132 H4118 0.961 . S
C4132 C4131 1.502 . S
C4133 H4119 0.960 . S
C4133 H4120 0.961 . S
C4133 H4121 0.959 . S
C4133 C4131 1.561 . S
C4134 C4131 1.526 . S
C4134 C4135 1.396 . S
C4134 C4139 1.390 . S
C4135 C4129 1.465 . S
C4135 C4134 1.396 . S
C4135 C4136 1.399 . S
C4136 H4122 0.929 . S
C4136 C4135 1.399 . S
C4136 C4137 1.385 . S
C4137 H4123 0.931 . S
C4137 C4136 1.385 . S
C4137 C4138 1.389 . S
C4138 C4137 1.389 . S
C4138 C4139 1.387 . S
C4139 H4124 0.930 . S
C4139 C4134 1.390 . S
C4139 C4138 1.387 . S
H4140 C4152 0.930 . S
H4141 C4154 0.930 . S
H4142 C4155 0.930 . S
H4143 C4159 0.959 . S
H4144 C4159 0.959 . S
H4145 C4159 0.961 . S
H4146 C4160 0.960 . S
H4147 C4160 0.961 1_545 S
H4148 C4160 0.959 . S
H4149 C4163 0.929 . S
H4150 C4164 0.931 . S
H4151 C4166 0.948 . S
C4152 H4140 0.930 . S
C4152 C4153 1.399 . S
C4152 C4157 1.399 . S
C4153 C4152 1.399 . S
C4153 C4154 1.376 . S
C4154 H4141 0.930 . S
C4154 C4153 1.376 . S
C4154 C4155 1.388 . S
C4155 H4142 0.930 . S
C4155 C4154 1.388 . S
C4155 C4156 1.390 . S
C4156 C4155 1.390 . S
C4156 C4157 1.394 . S
C4156 C4162 1.465 . S
C4157 C4152 1.399 . S
C4157 C4156 1.394 . S
C4157 C4158 1.516 . S
C4158 C4157 1.516 . S
C4158 C4159 1.502 1_565 S
C4158 C4160 1.561 . S
C4158 C4161 1.526 . S
C4159 H4143 0.959 . S
C4159 H4144 0.959 . S
C4159 H4145 0.961 . S
C4159 C4158 1.502 1_545 S
C4160 H4146 0.960 . S
C4160 H4147 0.961 1_565 S
C4160 H4148 0.959 . S
C4160 C4158 1.561 . S
C4161 C4158 1.526 . S
C4161 C4162 1.396 . S
C4161 C4166 1.367 1_565 S
C4162 C4156 1.465 . S
C4162 C4161 1.396 . S
C4162 C4163 1.399 . S
C4163 H4149 0.929 . S
C4163 C4162 1.399 . S
C4163 C4164 1.385 . S
C4164 H4150 0.931 . S
C4164 C4163 1.385 . S
C4164 C4165 1.389 . S
C4165 C4164 1.389 . S
C4165 C4166 1.391 1_565 S
C4166 H4151 0.948 . S
C4166 C4161 1.367 1_545 S
C4166 C4165 1.391 1_545 S
H4167 C4179 0.930 . S
H4168 C4181 0.930 . S
H4169 C4182 0.930 . S
H4170 C4186 0.997 . S
H4171 C4186 0.959 . S
H4172 C4186 0.961 . S
H4173 C4187 0.960 . S
H4174 C4187 0.961 . S
H4175 C4187 0.959 . S
H4176 C4190 0.929 . S
H4177 C4191 0.931 . S
H4178 C4193 0.930 . S
C4179 H4167 0.930 . S
C4179 C4180 1.399 . S
C4179 C4184 1.399 . S
C4180 C4179 1.399 . S
C4180 C4181 1.376 . S
C4181 H4168 0.930 . S
C4181 C4180 1.376 . S
C4181 C4182 1.388 . S
C4182 H4169 0.930 . S
C4182 C4181 1.388 . S
C4182 C4183 1.390 . S
C4183 C4182 1.390 . S
C4183 C4184 1.394 . S
C4183 C4189 1.465 . S
C4184 C4179 1.399 . S
C4184 C4183 1.394 . S
C4184 C4185 1.516 . S
C4185 C4184 1.516 . S
C4185 C4186 1.502 . S
C4185 C4187 1.561 . S
C4185 C4188 1.526 . S
C4186 H4170 0.997 . S
C4186 H4171 0.959 . S
C4186 H4172 0.961 . S
C4186 C4185 1.502 . S
C4187 H4173 0.960 . S
C4187 H4174 0.961 . S
C4187 H4175 0.959 . S
C4187 C4185 1.561 . S
C4188 C4185 1.526 . S
C4188 C4189 1.396 . S
C4188 C4193 1.390 . S
C4189 C4183 1.465 . S
C4189 C4188 1.396 . S
C4189 C4190 1.399 . S
C4190 H4176 0.929 . S
C4190 C4189 1.399 . S
C4190 C4191 1.385 . S
C4191 H4177 0.931 . S
C4191 C4190 1.385 . S
C4191 C4192 1.389 . S
C4192 C4191 1.389 . S
C4192 C4193 1.387 . S
C4193 H4178 0.930 . S
C4193 C4188 1.390 . S
C4193 C4192 1.387 . S
H4194 C4206 0.930 . S
H4195 C4208 0.930 . S
H4196 C4209 0.930 . S
H4197 C4213 0.959 . S
H4198 C4213 0.959 . S
H4199 C4213 0.961 1_655 S
H4200 C4214 0.960 1_655 S
H4201 C4214 0.961 . S
H4202 C4214 0.959 . S
H4203 C4217 0.929 . S
H4204 C4218 0.931 . S
H4205 C4220 0.930 . S
C4206 H4194 0.930 . S
C4206 C4207 1.399 . S
C4206 C4211 1.399 . S
C4207 C4206 1.399 . S
C4207 C4208 1.376 . S
C4208 H4195 0.930 . S
C4208 C4207 1.376 . S
C4208 C4209 1.388 . S
C4209 H4196 0.930 . S
C4209 C4208 1.388 . S
C4209 C4210 1.390 . S
C4210 C4209 1.390 . S
C4210 C4211 1.394 . S
C4210 C4216 1.465 1_655 S
C4211 C4206 1.399 . S
C4211 C4210 1.394 . S
C4211 C4212 1.516 1_655 S
C4212 C4211 1.516 1_455 S
C4212 C4213 1.502 . S
C4212 C4214 1.561 . S
C4212 C4215 1.526 . S
C4213 H4197 0.959 . S
C4213 H4198 0.959 . S
C4213 H4199 0.961 1_455 S
C4213 C4212 1.502 . S
C4214 H4200 0.960 1_455 S
C4214 H4201 0.961 . S
C4214 H4202 0.959 . S
C4214 C4212 1.561 . S
C4215 C4212 1.526 . S
C4215 C4216 1.396 . S
C4215 C4220 1.390 . S
C4216 C4210 1.465 1_455 S
C4216 C4215 1.396 . S
C4216 C4217 1.399 . S
C4217 H4203 0.929 . S
C4217 C4216 1.399 . S
C4217 C4218 1.385 . S
C4218 H4204 0.931 . S
C4218 C4217 1.385 . S
C4218 C4219 1.389 . S
C4219 C4218 1.389 . S
C4219 C4220 1.387 . S
C4220 H4205 0.930 . S
C4220 C4215 1.390 . S
C4220 C4219 1.387 . S
H4221 C4233 0.930 . S
H4222 C4235 0.930 . S
H4223 C4236 0.930 . S
H4224 C4240 0.959 . S
H4225 C4240 0.959 . S
H4226 C4240 0.961 . S
H4227 C4241 0.960 . S
H4228 C4241 0.961 . S
H4229 C4241 0.959 . S
H4230 C4244 0.929 . S
H4231 C4245 0.931 . S
H4232 C4247 0.930 . S
C4233 H4221 0.930 . S
C4233 C4234 1.399 . S
C4233 C4238 1.399 . S
C4234 C4233 1.399 . S
C4234 C4235 1.376 . S
C4235 H4222 0.930 . S
C4235 C4234 1.376 . S
C4235 C4236 1.388 . S
C4236 H4223 0.930 . S
C4236 C4235 1.388 . S
C4236 C4237 1.390 . S
C4237 C4236 1.390 . S
C4237 C4238 1.394 . S
C4237 C4243 1.465 . S
C4238 C4233 1.399 . S
C4238 C4237 1.394 . S
C4238 C4239 1.516 . S
C4239 C4238 1.516 . S
C4239 C4240 1.502 . S
C4239 C4241 1.561 . S
C4239 C4242 1.526 . S
C4240 H4224 0.959 . S
C4240 H4225 0.959 . S
C4240 H4226 0.961 . S
C4240 C4239 1.502 . S
C4241 H4227 0.960 . S
C4241 H4228 0.961 . S
C4241 H4229 0.959 . S
C4241 C4239 1.561 . S
C4242 C4239 1.526 . S
C4242 C4243 1.396 . S
C4242 C4247 1.390 . S
C4243 C4237 1.465 . S
C4243 C4242 1.396 . S
C4243 C4244 1.399 . S
C4244 H4230 0.929 . S
C4244 C4243 1.399 . S
C4244 C4245 1.385 . S
C4245 H4231 0.931 . S
C4245 C4244 1.385 . S
C4245 C4246 1.389 . S
C4246 C4245 1.389 . S
C4246 C4247 1.387 . S
C4247 H4232 0.930 . S
C4247 C4242 1.390 . S
C4247 C4246 1.387 . S
H4248 C4260 0.930 . S
H4249 C4262 0.930 . S
H4250 C4263 0.930 . S
H4251 C4267 0.959 . S
H4252 C4267 0.959 . S
H4253 C4267 0.961 1_545 S
H4254 C4268 0.960 1_545 S
H4255 C4268 0.961 . S
H4256 C4268 0.959 . S
H4257 C4271 0.929 . S
H4258 C4272 0.931 . S
H4259 C4274 0.930 . S
C4260 H4248 0.930 . S
C4260 C4261 1.399 . S
C4260 C4265 1.399 . S
C4261 C4260 1.399 . S
C4261 C4262 1.376 . S
C4262 H4249 0.930 . S
C4262 C4261 1.376 . S
C4262 C4263 1.388 . S
C4263 H4250 0.930 . S
C4263 C4262 1.388 . S
C4263 C4264 1.390 . S
C4264 C4263 1.390 . S
C4264 C4265 1.394 . S
C4264 C4270 1.465 1_545 S
C4265 C4260 1.399 . S
C4265 C4264 1.394 . S
C4265 C4266 1.516 1_545 S
C4266 C4265 1.516 1_565 S
C4266 C4267 1.502 . S
C4266 C4268 1.561 . S
C4266 C4269 1.526 . S
C4267 H4251 0.959 . S
C4267 H4252 0.959 . S
C4267 H4253 0.961 1_565 S
C4267 C4266 1.502 . S
C4268 H4254 0.960 1_565 S
C4268 H4255 0.961 . S
C4268 H4256 0.959 . S
C4268 C4266 1.561 . S
C4269 C4266 1.526 . S
C4269 C4270 1.396 . S
C4269 C4274 1.390 . S
C4270 C4264 1.465 1_565 S
C4270 C4269 1.396 . S
C4270 C4271 1.399 . S
C4271 H4257 0.929 . S
C4271 C4270 1.399 . S
C4271 C4272 1.385 . S
C4272 H4258 0.931 . S
C4272 C4271 1.385 . S
C4272 C4273 1.389 . S
C4273 C4272 1.389 . S
C4273 C4274 1.387 . S
C4274 H4259 0.930 . S
C4274 C4269 1.390 . S
C4274 C4273 1.387 . S
H4275 C4287 0.930 . S
H4276 C4289 0.930 . S
H4277 C4290 0.930 . S
H4278 C4294 0.959 . S
H4279 C4294 0.959 . S
H4280 C4294 0.961 1_545 S
H4281 C4295 0.960 1_545 S
H4282 C4295 0.961 . S
H4283 C4295 0.959 . S
H4284 C4298 0.929 . S
H4285 C4299 0.931 . S
H4286 C4301 0.930 . S
C4287 H4275 0.930 . S
C4287 C4288 1.399 . S
C4287 C4292 1.399 . S
C4288 C4287 1.399 . S
C4288 C4289 1.376 . S
C4289 H4276 0.930 . S
C4289 C4288 1.376 . S
C4289 C4290 1.388 . S
C4290 H4277 0.930 . S
C4290 C4289 1.388 . S
C4290 C4291 1.390 . S
C4291 C4290 1.390 . S
C4291 C4292 1.394 . S
C4291 C4297 1.465 1_545 S
C4292 C4287 1.399 . S
C4292 C4291 1.394 . S
C4292 C4293 1.516 1_545 S
C4293 C4292 1.516 1_565 S
C4293 C4294 1.502 . S
C4293 C4295 1.561 . S
C4293 C4296 1.526 . S
C4294 H4278 0.959 . S
C4294 H4279 0.959 . S
C4294 H4280 0.961 1_565 S
C4294 C4293 1.502 . S
C4295 H4281 0.960 1_565 S
C4295 H4282 0.961 . S
C4295 H4283 0.959 . S
C4295 C4293 1.561 . S
C4296 C4293 1.526 . S
C4296 C4297 1.396 . S
C4296 C4301 1.390 . S
C4297 C4291 1.465 1_565 S
C4297 C4296 1.396 . S
C4297 C4298 1.399 . S
C4298 H4284 0.929 . S
C4298 C4297 1.399 . S
C4298 C4299 1.385 . S
C4299 H4285 0.931 . S
C4299 C4298 1.385 . S
C4299 C4300 1.389 . S
C4300 C4299 1.389 . S
C4300 C4301 1.387 . S
C4301 H4286 0.930 . S
C4301 C4296 1.390 . S
C4301 C4300 1.387 . S
H4302 C4314 0.930 . S
H4303 C4316 0.930 . S
H4304 C4317 0.930 . S
H4305 C4321 0.959 . S
H4306 C4321 0.959 1_455 S
H4307 C4321 0.961 . S
H4308 C4322 0.960 . S
H4309 C4322 0.961 1_455 S
H4310 C4322 0.959 . S
H4311 C4325 0.929 . S
H4312 C4326 0.931 . S
H4313 C4328 0.930 . S
C4314 H4302 0.930 . S
C4314 C4315 1.399 . S
C4314 C4319 1.399 . S
C4315 C4314 1.399 . S
C4315 C4316 1.376 . S
C4316 H4303 0.930 . S
C4316 C4315 1.376 . S
C4316 C4317 1.388 . S
C4317 H4304 0.930 . S
C4317 C4316 1.388 . S
C4317 C4318 1.390 . S
C4318 C4317 1.390 . S
C4318 C4319 1.394 . S
C4318 C4324 1.465 1_655 S
C4319 C4314 1.399 . S
C4319 C4318 1.394 . S
C4319 C4320 1.516 . S
C4320 C4319 1.516 . S
C4320 C4321 1.502 . S
C4320 C4322 1.561 . S
C4320 C4323 1.526 1_655 S
C4321 H4305 0.959 . S
C4321 H4306 0.959 1_655 S
C4321 H4307 0.961 . S
C4321 C4320 1.502 . S
C4322 H4308 0.960 . S
C4322 H4309 0.961 1_655 S
C4322 H4310 0.959 . S
C4322 C4320 1.561 . S
C4323 C4320 1.526 1_455 S
C4323 C4324 1.396 . S
C4323 C4328 1.390 . S
C4324 C4318 1.465 1_455 S
C4324 C4323 1.396 . S
C4324 C4325 1.399 . S
C4325 H4311 0.929 . S
C4325 C4324 1.399 . S
C4325 C4326 1.385 . S
C4326 H4312 0.931 . S
C4326 C4325 1.385 . S
C4326 C4327 1.389 . S
C4327 C4326 1.389 . S
C4327 C4328 1.387 . S
C4328 H4313 0.930 . S
C4328 C4323 1.390 . S
C4328 C4327 1.387 . S
H4329 C4341 0.930 . S
H4330 C4343 0.930 . S
H4331 C4344 0.930 . S
H4332 C4348 0.959 . S
H4333 C4348 0.959 . S
H4334 C4348 0.961 . S
H4335 C4349 0.960 . S
H4336 C4349 0.961 . S
H4337 C4349 0.959 . S
H4338 C4352 0.929 . S
H4339 C4353 0.931 . S
H4340 C4355 0.930 . S
C4341 H4329 0.930 . S
C4341 C4342 1.399 . S
C4341 C4346 1.399 . S
C4342 C4341 1.399 . S
C4342 C4343 1.376 . S
C4343 H4330 0.930 . S
C4343 C4342 1.376 . S
C4343 C4344 1.388 . S
C4344 H4331 0.930 . S
C4344 C4343 1.388 . S
C4344 C4345 1.390 . S
C4345 C4344 1.390 . S
C4345 C4346 1.394 . S
C4345 C4351 1.465 . S
C4346 C4341 1.399 . S
C4346 C4345 1.394 . S
C4346 C4347 1.516 . S
C4347 C4346 1.516 . S
C4347 C4348 1.502 . S
C4347 C4349 1.561 . S
C4347 C4350 1.526 . S
C4348 H4332 0.959 . S
C4348 H4333 0.959 . S
C4348 H4334 0.961 . S
C4348 C4347 1.502 . S
C4349 H4335 0.960 . S
C4349 H4336 0.961 . S
C4349 H4337 0.959 . S
C4349 C4347 1.561 . S
C4350 C4347 1.526 . S
C4350 C4351 1.396 . S
C4350 C4355 1.390 . S
C4351 C4345 1.465 . S
C4351 C4350 1.396 . S
C4351 C4352 1.399 . S
C4352 H4338 0.929 . S
C4352 C4351 1.399 . S
C4352 C4353 1.385 . S
C4353 H4339 0.931 . S
C4353 C4352 1.385 . S
C4353 C4354 1.389 . S
C4354 C4353 1.389 . S
C4354 C4355 1.387 . S
C4355 H4340 0.930 . S
C4355 C4350 1.390 . S
C4355 C4354 1.387 . S
C1453 C6 1.963 . S
C1465 C290 1.980 . S
C1480 C330 1.980 . S
C1492 C46 1.983 . S
C1507 C250 1.968 . S
C1519 C86 1.975 . S
C1534 C450 1.988 . S
C1546 C126 1.975 . S
C1561 C166 1.989 . S
C1573 C370 1.974 . S
C1588 C206 1.973 . S
C1600 C410 1.970 . S
C1615 C59 1.977 . S
C1627 C255 1.994 . S
C1642 C295 1.995 . S
C1654 C99 1.973 . S
C1669 C19 1.963 . S
C1681 C335 1.969 . S
C1696 C219 1.995 . S
C1708 C375 1.961 . S
C1723 C415 1.992 . S
C1735 C139 1.960 . S
C1750 C455 1.977 . S
C1762 C179 1.959 . S
C1777 C486 1.958 . S
C1789 C770 1.987 . S
C1804 C810 1.994 . S
C1816 C526 1.956 . S
C1831 C730 1.963 . S
C1843 C566 1.995 . S
C1858 C606 1.956 . S
C1870 C930 1.996 . S
C1885 C850 1.957 . S
C1897 C646 1.992 . S
C1912 C686 1.981 . S
C1924 C890 1.982 . S
C1939 C735 1.958 . S
C1951 C539 1.993 . S
C1966 C579 1.979 . S
C1978 C775 1.993 . S
C1993 C815 1.984 . S
C2005 C499 1.958 . S
C2020 C699 1.963 . S
C2032 C855 1.995 . S
C2047 C619 1.990 . S
C2059 C895 1.957 . S
C2074 C935 1.991 . S
C2086 C659 1.960 . S
C2101 C966 1.956 . S
C2113 C1250 1.992 . S
C2128 C1006 1.993 . S
C2140 C1290 1.968 . S
C2155 C1210 1.996 . S
C2167 C1046 1.962 . S
C2182 C1410 1.967 . S
C2194 C1086 1.993 . S
C2209 C1126 1.964 . S
C2221 C1330 1.979 . S
C2236 C1370 1.958 . S
C2248 C1166 1.996 . S
C2263 C1019 1.979 . S
C2275 C1215 1.957 . S
C2290 C1255 1.959 . S
C2302 C1059 1.994 . S
C2317 C979 1.959 . S
C2329 C1295 1.992 . S
C2344 C1335 1.964 . S
C2356 C1179 1.967 . S
C2371 C1375 1.959 . S
C2383 C1099 1.994 . S
C2398 C1415 1.969 . S
C2410 C1139 1.963 . S
C2425 C10 2.215 . S
C2437 C739 2.247 . S
C2452 C50 2.251 . S
C2464 C779 2.205 . S
C2479 C819 2.237 . S
C2491 C90 2.227 . S
C2506 C1339 2.208 . S
C2518 C130 2.244 . S
C2533 C1379 2.234 . S
C2545 C170 2.230 . S
C2560 C1419 2.235 . S
C2572 C210 2.216 . S
C2587 C259 2.252 . S
C2599 C970 2.206 . S
C2614 C1010 2.214 . S
C2626 C299 2.236 . S
C2641 C339 2.219 . S
C2653 C1050 2.231 . S
C2668 C379 2.216 . S
C2680 C610 2.233 . S
C2695 C419 2.248 . S
C2707 C650 2.215 . S
C2722 C459 2.251 . S
C2734 C690 2.205 . S
C2749 C490 2.243 . S
C2761 C1219 2.209 . S
C2776 C1259 2.243 . S
C2788 C530 2.221 . S
C2803 C570 2.205 . S
C2815 C1299 2.248 . S
C2830 C1090 2.251 . S
C2842 C859 2.210 . S
C2857 C899 2.240 . S
C2869 C1130 2.225 . S
C2884 C1170 2.233 . S
C2896 C939 2.218 . S
C2911 C18 2.122 1_556 S
C2923 C658 2.130 . S
C2938 C58 2.116 1_556 S
C2950 C698 2.187 . S
C2965 C618 2.188 . S
C2977 C98 2.122 1_556 S
C2992 C138 2.183 . S
C3004 C1058 2.139 . S
C3019 C978 2.177 . S
C3031 C178 2.149 . S
C3046 C218 2.128 . S
C3058 C1018 2.123 . S
C3073 C1369 2.155 . S
C3085 C249 2.186 1_554 S
C3100 C289 2.182 1_554 S
C3112 C1409 2.164 . S
C3127 C1329 2.182 . S
C3139 C329 2.124 1_554 S
C3154 C369 2.130 . S
C3166 C809 2.185 . S
C3181 C409 2.105 . S
C3193 C729 2.161 . S
C3208 C449 2.109 . S
C3220 C769 2.121 . S
C3235 C1138 2.177 . S
C3247 C498 2.104 . S
C3262 C538 2.119 . S
C3274 C1178 2.187 . S
C3289 C578 2.103 . S
C3301 C1098 2.162 . S
C3316 C1289 2.167 . S
C3328 C849 2.109 . S
C3343 C1209 2.114 . S
C3355 C889 2.116 . S
C3370 C1249 2.124 . S
C3382 C929 2.182 . S
C3397 C129 2.633 . S
C3409 C9 2.637 . S
C3424 C49 2.629 . S
C3436 C169 2.640 . S
C3451 C89 2.645 . S
C3463 C209 2.609 . S
C3478 C378 2.646 . S
C3490 C258 2.608 . S
C3505 C298 2.603 . S
C3517 C418 2.642 . S
C3532 C458 2.646 . S
C3544 C338 2.604 . S
C3559 C609 2.619 . S
C3571 C489 2.645 . S
C3586 C529 2.606 . S
C3598 C649 2.644 . S
C3613 C569 2.604 . S
C3625 C689 2.641 . S
C3640 C738 2.603 . S
C3652 C858 2.645 1_554 S
C3667 C778 2.641 . S
C3679 C898 2.615 1_554 S
C3694 C818 2.635 . S
C3706 C938 2.621 1_554 S
C3721 C969 2.642 . S
C3733 C1089 2.605 1_556 S
C3748 C1129 2.618 1_556 S
C3760 C1009 2.645 . S
C3775 C1169 2.609 1_556 S
C3787 C1049 2.621 . S
C3802 C1218 2.646 . S
C3814 C1338 2.604 . S
C3829 C1378 2.603 . S
C3841 C1258 2.645 . S
C3856 C1298 2.621 . S
C3868 C1418 2.620 . S
C3883 C15 0.108 . S
C3895 C1175 0.269 . S
C3910 C1095 0.381 . S
C3922 C55 0.331 . S
C3937 C95 0.168 . S
C3949 C1135 0.295 . S
C3964 C535 0.395 . S
C3976 C135 0.328 . S
C3991 C175 0.434 . S
C4003 C575 0.337 . S
C4018 C215 0.185 . S
C4030 C495 0.275 . S
C4045 C926 0.275 . S
C4057 C246 0.183 . S
C4072 C286 0.341 . S
C4084 C846 0.205 . S
C4099 C886 0.230 . S
C4111 C326 0.183 . S
C4126 C366 0.259 . S
C4138 C1246 0.167 . S
C4153 C1286 0.388 . S
C4165 C406 0.430 . S
C4180 C1206 0.301 . S
C4192 C446 0.419 . S
C4207 C615 0.125 . S
C4219 C1015 0.296 . S
C4234 C655 0.395 . S
C4246 C1055 0.315 . S
C4261 C695 0.112 . S
C4273 C975 0.278 . S
C4288 C726 0.336 . S
C4300 C1406 0.380 . S
C4315 C766 0.294 . S
C4327 C1326 0.205 . S
C4342 C1366 0.310 . S
C4354 C806 0.367 . S
