# Generated by pormake.
# Topology uoa, (4)-cn, num edge types: 1
# Building blocks:
#     Node 0, Type 0, BuildingBlock: MUDLON_clean_sbu_0, # of connection points: 4
#     Node 1, Type 0, BuildingBlock: MUDLON_clean_sbu_0, # of connection points: 4
#     Node 2, Type 0, BuildingBlock: MUDLON_clean_sbu_0, # of connection points: 4
#     Node 3, Type 0, BuildingBlock: MUDLON_clean_sbu_0, # of connection points: 4
#     Node 4, Type 0, BuildingBlock: MUDLON_clean_sbu_0, # of connection points: 4
#     Node 5, Type 0, BuildingBlock: MUDLON_clean_sbu_0, # of connection points: 4
#     Node 6, Type 0, BuildingBlock: MUDLON_clean_sbu_0, # of connection points: 4
#     Node 7, Type 0, BuildingBlock: MUDLON_clean_sbu_0, # of connection points: 4
#     Node 8, Type 0, BuildingBlock: MUDLON_clean_sbu_0, # of connection points: 4
#     Node 9, Type 0, BuildingBlock: MUDLON_clean_sbu_0, # of connection points: 4
#     Node 10, Type 0, BuildingBlock: MUDLON_clean_sbu_0, # of connection points: 4
#     Node 11, Type 0, BuildingBlock: MUDLON_clean_sbu_0, # of connection points: 4
#     Node 12, Type 0, BuildingBlock: MUDLON_clean_sbu_0, # of connection points: 4
#     Node 13, Type 0, BuildingBlock: MUDLON_clean_sbu_0, # of connection points: 4
#     Node 14, Type 0, BuildingBlock: MUDLON_clean_sbu_0, # of connection points: 4
#     Node 15, Type 0, BuildingBlock: MUDLON_clean_sbu_0, # of connection points: 4
#     Node 16, Type 0, BuildingBlock: MUDLON_clean_sbu_0, # of connection points: 4
#     Node 17, Type 0, BuildingBlock: MUDLON_clean_sbu_0, # of connection points: 4
#     Node 18, Type 0, BuildingBlock: MUDLON_clean_sbu_0, # of connection points: 4
#     Node 19, Type 0, BuildingBlock: MUDLON_clean_sbu_0, # of connection points: 4
#     Node 20, Type 0, BuildingBlock: MUDLON_clean_sbu_0, # of connection points: 4
#     Node 21, Type 0, BuildingBlock: MUDLON_clean_sbu_0, # of connection points: 4
#     Node 22, Type 0, BuildingBlock: MUDLON_clean_sbu_0, # of connection points: 4
#     Node 23, Type 0, BuildingBlock: MUDLON_clean_sbu_0, # of connection points: 4
#     Node 24, Type 0, BuildingBlock: MUDLON_clean_sbu_0, # of connection points: 4
#     Node 25, Type 0, BuildingBlock: MUDLON_clean_sbu_0, # of connection points: 4
#     Node 26, Type 0, BuildingBlock: MUDLON_clean_sbu_0, # of connection points: 4
#     Node 27, Type 0, BuildingBlock: MUDLON_clean_sbu_0, # of connection points: 4
#     Node 28, Type 0, BuildingBlock: MUDLON_clean_sbu_0, # of connection points: 4
#     Node 29, Type 0, BuildingBlock: MUDLON_clean_sbu_0, # of connection points: 4
#     Node 30, Type 0, BuildingBlock: MUDLON_clean_sbu_0, # of connection points: 4
#     Node 31, Type 0, BuildingBlock: MUDLON_clean_sbu_0, # of connection points: 4
#     Edge 32, Type (0, 0), BuildingBlock: OJICUG_clean_linker_0, # of connection points: 2
#     Edge 33, Type (0, 0), BuildingBlock: OJICUG_clean_linker_0, # of connection points: 2
#     Edge 34, Type (0, 0), BuildingBlock: OJICUG_clean_linker_0, # of connection points: 2
#     Edge 35, Type (0, 0), BuildingBlock: OJICUG_clean_linker_0, # of connection points: 2
#     Edge 36, Type (0, 0), BuildingBlock: OJICUG_clean_linker_0, # of connection points: 2
#     Edge 37, Type (0, 0), BuildingBlock: OJICUG_clean_linker_0, # of connection points: 2
#     Edge 38, Type (0, 0), BuildingBlock: OJICUG_clean_linker_0, # of connection points: 2
#     Edge 39, Type (0, 0), BuildingBlock: OJICUG_clean_linker_0, # of connection points: 2
#     Edge 40, Type (0, 0), BuildingBlock: OJICUG_clean_linker_0, # of connection points: 2
#     Edge 41, Type (0, 0), BuildingBlock: OJICUG_clean_linker_0, # of connection points: 2
#     Edge 42, Type (0, 0), BuildingBlock: OJICUG_clean_linker_0, # of connection points: 2
#     Edge 43, Type (0, 0), BuildingBlock: OJICUG_clean_linker_0, # of connection points: 2
#     Edge 44, Type (0, 0), BuildingBlock: OJICUG_clean_linker_0, # of connection points: 2
#     Edge 45, Type (0, 0), BuildingBlock: OJICUG_clean_linker_0, # of connection points: 2
#     Edge 46, Type (0, 0), BuildingBlock: OJICUG_clean_linker_0, # of connection points: 2
#     Edge 47, Type (0, 0), BuildingBlock: OJICUG_clean_linker_0, # of connection points: 2
#     Edge 48, Type (0, 0), BuildingBlock: OJICUG_clean_linker_0, # of connection points: 2
#     Edge 49, Type (0, 0), BuildingBlock: OJICUG_clean_linker_0, # of connection points: 2
#     Edge 50, Type (0, 0), BuildingBlock: OJICUG_clean_linker_0, # of connection points: 2
#     Edge 51, Type (0, 0), BuildingBlock: OJICUG_clean_linker_0, # of connection points: 2
#     Edge 52, Type (0, 0), BuildingBlock: OJICUG_clean_linker_0, # of connection points: 2
#     Edge 53, Type (0, 0), BuildingBlock: OJICUG_clean_linker_0, # of connection points: 2
#     Edge 54, Type (0, 0), BuildingBlock: OJICUG_clean_linker_0, # of connection points: 2
#     Edge 55, Type (0, 0), BuildingBlock: OJICUG_clean_linker_0, # of connection points: 2
#     Edge 56, Type (0, 0), BuildingBlock: OJICUG_clean_linker_0, # of connection points: 2
#     Edge 57, Type (0, 0), BuildingBlock: OJICUG_clean_linker_0, # of connection points: 2
#     Edge 58, Type (0, 0), BuildingBlock: OJICUG_clean_linker_0, # of connection points: 2
#     Edge 59, Type (0, 0), BuildingBlock: OJICUG_clean_linker_0, # of connection points: 2
#     Edge 60, Type (0, 0), BuildingBlock: OJICUG_clean_linker_0, # of connection points: 2
#     Edge 61, Type (0, 0), BuildingBlock: OJICUG_clean_linker_0, # of connection points: 2
#     Edge 62, Type (0, 0), BuildingBlock: OJICUG_clean_linker_0, # of connection points: 2
#     Edge 63, Type (0, 0), BuildingBlock: OJICUG_clean_linker_0, # of connection points: 2
#     Edge 64, Type (0, 0), BuildingBlock: OJICUG_clean_linker_0, # of connection points: 2
#     Edge 65, Type (0, 0), BuildingBlock: OJICUG_clean_linker_0, # of connection points: 2
#     Edge 66, Type (0, 0), BuildingBlock: OJICUG_clean_linker_0, # of connection points: 2
#     Edge 67, Type (0, 0), BuildingBlock: OJICUG_clean_linker_0, # of connection points: 2
#     Edge 68, Type (0, 0), BuildingBlock: OJICUG_clean_linker_0, # of connection points: 2
#     Edge 69, Type (0, 0), BuildingBlock: OJICUG_clean_linker_0, # of connection points: 2
#     Edge 70, Type (0, 0), BuildingBlock: OJICUG_clean_linker_0, # of connection points: 2
#     Edge 71, Type (0, 0), BuildingBlock: OJICUG_clean_linker_0, # of connection points: 2
#     Edge 72, Type (0, 0), BuildingBlock: OJICUG_clean_linker_0, # of connection points: 2
#     Edge 73, Type (0, 0), BuildingBlock: OJICUG_clean_linker_0, # of connection points: 2
#     Edge 74, Type (0, 0), BuildingBlock: OJICUG_clean_linker_0, # of connection points: 2
#     Edge 75, Type (0, 0), BuildingBlock: OJICUG_clean_linker_0, # of connection points: 2
#     Edge 76, Type (0, 0), BuildingBlock: OJICUG_clean_linker_0, # of connection points: 2
#     Edge 77, Type (0, 0), BuildingBlock: OJICUG_clean_linker_0, # of connection points: 2
#     Edge 78, Type (0, 0), BuildingBlock: OJICUG_clean_linker_0, # of connection points: 2
#     Edge 79, Type (0, 0), BuildingBlock: OJICUG_clean_linker_0, # of connection points: 2
#     Edge 80, Type (0, 0), BuildingBlock: OJICUG_clean_linker_0, # of connection points: 2
#     Edge 81, Type (0, 0), BuildingBlock: OJICUG_clean_linker_0, # of connection points: 2
#     Edge 82, Type (0, 0), BuildingBlock: OJICUG_clean_linker_0, # of connection points: 2
#     Edge 83, Type (0, 0), BuildingBlock: OJICUG_clean_linker_0, # of connection points: 2
#     Edge 84, Type (0, 0), BuildingBlock: OJICUG_clean_linker_0, # of connection points: 2
#     Edge 85, Type (0, 0), BuildingBlock: OJICUG_clean_linker_0, # of connection points: 2
#     Edge 86, Type (0, 0), BuildingBlock: OJICUG_clean_linker_0, # of connection points: 2
#     Edge 87, Type (0, 0), BuildingBlock: OJICUG_clean_linker_0, # of connection points: 2
#     Edge 88, Type (0, 0), BuildingBlock: OJICUG_clean_linker_0, # of connection points: 2
#     Edge 89, Type (0, 0), BuildingBlock: OJICUG_clean_linker_0, # of connection points: 2
#     Edge 90, Type (0, 0), BuildingBlock: OJICUG_clean_linker_0, # of connection points: 2
#     Edge 91, Type (0, 0), BuildingBlock: OJICUG_clean_linker_0, # of connection points: 2
#     Edge 92, Type (0, 0), BuildingBlock: OJICUG_clean_linker_0, # of connection points: 2
#     Edge 93, Type (0, 0), BuildingBlock: OJICUG_clean_linker_0, # of connection points: 2
#     Edge 94, Type (0, 0), BuildingBlock: OJICUG_clean_linker_0, # of connection points: 2
#     Edge 95, Type (0, 0), BuildingBlock: OJICUG_clean_linker_0, # of connection points: 2
# Relax obj value: 0.110
# Max RMSD: 0.248
# Mean RMSD: 0.248
data_MOF--net-uoa--node1-MUDLON_clean_sbu_0--edge1-OJICUG_clean_linker_0
_symmetry_space_group_name_H-M    P1
_symmetry_Int_Tables_number       1
_symmetry_cell_setting            triclinic
loop_
_symmetry_equiv_pos_as_xyz
'x, y, z'
_cell_length_a     58.673724
_cell_length_b     58.881894
_cell_length_c     21.750446
_cell_angle_alpha  90.030612
_cell_angle_beta   89.881989
_cell_angle_gamma 90.004649
loop_
_atom_site_label
_atom_site_type_symbol
_atom_site_fract_x
_atom_site_fract_y
_atom_site_fract_z
_atom_type_partial_charge
Mg0 Mg 0.0242 0.09616 0.0832 0.0
C1 C 0.00258 0.05284 0.04738 0.0
O2 O 0.98587 0.06746 0.04016 0.0
C3 C 0.07355 0.115 0.08355 0.0
O4 O 0.07102 0.11674 0.02376 0.0
C5 C 0.02481 0.10256 0.94852 0.0
O6 O 0.03963 0.08616 0.95736 0.0
O7 O 0.01532 0.11158 0.99529 0.0
O8 O 0.02173 0.05999 0.06677 0.0
O9 O 0.0014 0.10325 0.16011 0.0
C10 C 0.00799 0.11636 0.20317 0.0
O11 O 0.02697 0.12788 0.19594 0.0
O12 O 0.05768 0.10629 0.1156 0.0
Mg13 Mg 0.15534 0.78264 0.3079 0.0
C14 C 0.15298 0.74959 0.41627 0.0
O15 O 0.16928 0.73935 0.38543 0.0
C16 C 0.14584 0.78241 0.17493 0.0
O17 O 0.15946 0.79992 0.18227 0.0
C18 C 0.14419 0.82628 0.37294 0.0
O19 O 0.15018 0.81368 0.42005 0.0
O20 O 0.14641 0.81823 0.31895 0.0
O21 O 0.14321 0.76672 0.39255 0.0
O22 O 0.19175 0.7764 0.29764 0.0
C23 C 0.1979 0.75807 0.27119 0.0
O24 O 0.18216 0.74398 0.25152 0.0
O25 O 0.13988 0.77114 0.22229 0.0
Mg26 Mg 0.46542 0.90721 0.5466 0.0
C27 C 0.48541 0.95124 0.51218 0.0
O28 O 0.50228 0.9369 0.50347 0.0
C29 C 0.43189 0.87404 0.58794 0.0
O30 O 0.45171 0.86457 0.59939 0.0
C31 C 0.4685 0.89798 0.41412 0.0
O32 O 0.45014 0.91063 0.41911 0.0
O33 O 0.47913 0.89251 0.46284 0.0
O34 O 0.46646 0.94363 0.53198 0.0
O35 O 0.48517 0.89974 0.62894 0.0
C36 C 0.47466 0.90206 0.67983 0.0
O37 O 0.45342 0.90914 0.67913 0.0
O38 O 0.43152 0.89339 0.56205 0.0
Mg39 Mg 0.3424 0.21594 0.8315 0.0
C40 C 0.36436 0.22804 0.95224 0.0
O41 O 0.37331 0.20786 0.94338 0.0
C42 C 0.34933 0.21718 0.69729 0.0
O43 O 0.33247 0.2027 0.70424 0.0
C44 C 0.36329 0.16846 0.82399 0.0
O45 O 0.3689 0.17514 0.76839 0.0
O46 O 0.351 0.18132 0.85722 0.0
O47 O 0.35186 0.23662 0.91045 0.0
O48 O 0.3062 0.22062 0.81642 0.0
C49 C 0.29981 0.23986 0.79611 0.0
O50 O 0.31518 0.25577 0.78726 0.0
O51 O 0.35836 0.22578 0.74511 0.0
Mg52 Mg 0.03312 0.9128 0.46102 0.0
C53 C 0.01226 0.95687 0.48539 0.0
O54 O 0.99537 0.94229 0.48972 0.0
C55 C 0.07878 0.89786 0.40674 0.0
O56 O 0.07115 0.90908 0.35891 0.0
C57 C 0.02744 0.90323 0.5942 0.0
O58 O 0.04881 0.90988 0.59178 0.0
O59 O 0.0164 0.90117 0.54423 0.0
O60 O 0.03196 0.94947 0.47108 0.0
O61 O 0.01455 0.90351 0.37815 0.0
C62 C 0.01822 0.91562 0.33076 0.0
O63 O 0.03167 0.93337 0.33544 0.0
O64 O 0.06708 0.89778 0.45608 0.0
Mg65 Mg 0.3371 0.77378 0.70155 0.0
C66 C 0.35624 0.75941 0.57727 0.0
O67 O 0.3694 0.77714 0.5862 0.0
C68 C 0.34811 0.76932 0.83304 0.0
O69 O 0.34268 0.7909 0.82836 0.0
C70 C 0.3534 0.82024 0.65166 0.0
O71 O 0.33638 0.81845 0.61281 0.0
O72 O 0.35596 0.80523 0.69307 0.0
O73 O 0.34222 0.75356 0.61906 0.0
O74 O 0.30066 0.77642 0.71597 0.0
C75 C 0.29169 0.75758 0.73157 0.0
O76 O 0.30482 0.73956 0.73543 0.0
O77 O 0.34868 0.75726 0.78453 0.0
Mg78 Mg 0.47224 0.08437 0.92945 0.0
C79 C 0.49442 0.04057 0.95506 0.0
O80 O 0.51073 0.05527 0.96649 0.0
C81 C 0.42406 0.10469 0.93608 0.0
O82 O 0.42876 0.10732 0.99468 0.0
C83 C 0.48149 0.11387 0.0499 0.0
O84 O 0.4799 0.13243 0.01672 0.0
O85 O 0.4797 0.09455 0.02414 0.0
O86 O 0.4753 0.04786 0.93584 0.0
O87 O 0.49445 0.09436 0.85278 0.0
C88 C 0.48642 0.10688 0.8101 0.0
O89 O 0.46653 0.11662 0.81845 0.0
O90 O 0.43827 0.09449 0.9017 0.0
Mg91 Mg 0.16654 0.21693 0.19335 0.0
C92 C 0.14652 0.23035 0.0709 0.0
O93 O 0.13677 0.21044 0.07791 0.0
C94 C 0.15894 0.21953 0.32797 0.0
O95 O 0.17195 0.20146 0.32295 0.0
C96 C 0.13796 0.17409 0.20073 0.0
O97 O 0.13056 0.18407 0.25094 0.0
O98 O 0.15418 0.18316 0.17071 0.0
O99 O 0.15896 0.23813 0.11396 0.0
O100 O 0.203 0.21856 0.20793 0.0
C101 C 0.21039 0.23762 0.2271 0.0
O102 O 0.19587 0.2544 0.23439 0.0
O103 O 0.15244 0.22955 0.27921 0.0
Mg104 Mg 0.97143 0.91341 0.9617 0.0
C105 C 0.98077 0.90805 0.82771 0.0
O106 O 0.95891 0.91291 0.8279 0.0
C107 C 0.97747 0.89909 0.09392 0.0
O108 O 0.95512 0.89822 0.09142 0.0
C109 C 0.94023 0.87728 0.92495 0.0
O110 O 0.96055 0.86951 0.91068 0.0
O111 O 0.93868 0.8965 0.95126 0.0
O112 O 0.99127 0.90698 0.87877 0.0
O113 O 0.97014 0.94993 0.97298 0.0
C114 C 0.98962 0.95812 0.986 0.0
O115 O 0.00718 0.94429 0.98821 0.0
O116 O 0.98869 0.90282 0.04486 0.0
Mg117 Mg 0.84105 0.22493 0.69604 0.0
C118 C 0.79714 0.24558 0.73339 0.0
O119 O 0.81153 0.26241 0.74156 0.0
C120 C 0.86502 0.17866 0.69865 0.0
O121 O 0.86987 0.18458 0.75535 0.0
C122 C 0.8478 0.22482 0.8305 0.0
O123 O 0.83196 0.20936 0.82199 0.0
O124 O 0.85628 0.23466 0.78357 0.0
O125 O 0.80463 0.22677 0.71269 0.0
O126 O 0.84806 0.24729 0.61825 0.0
C127 C 0.86134 0.24071 0.57536 0.0
O128 O 0.87285 0.22178 0.58263 0.0
O129 O 0.8523 0.19145 0.66654 0.0
Mg130 Mg 0.51872 0.09065 0.42468 0.0
C131 C 0.50219 0.11516 0.31038 0.0
O132 O 0.51741 0.12996 0.32924 0.0
C133 C 0.51877 0.09543 0.5605 0.0
O134 O 0.53364 0.07919 0.55015 0.0
C135 C 0.56896 0.10831 0.42744 0.0
O136 O 0.56819 0.10546 0.48727 0.0
O137 O 0.55194 0.10264 0.39485 0.0
O138 O 0.49744 0.09826 0.34473 0.0
O139 O 0.51708 0.05414 0.43727 0.0
C140 C 0.49823 0.04665 0.45803 0.0
O141 O 0.48165 0.06114 0.46872 0.0
O142 O 0.50914 0.10481 0.51449 0.0
Mg143 Mg 0.66392 0.78234 0.21116 0.0
C144 C 0.70763 0.76111 0.23897 0.0
O145 O 0.69279 0.74443 0.24222 0.0
C146 C 0.62931 0.81368 0.16979 0.0
O147 O 0.62081 0.79324 0.1618 0.0
C148 C 0.65445 0.77992 0.34285 0.0
O149 O 0.66647 0.79861 0.33659 0.0
O150 O 0.64932 0.76869 0.29486 0.0
O151 O 0.70048 0.7809 0.22539 0.0
O152 O 0.65712 0.76259 0.12877 0.0
C153 C 0.66042 0.77339 0.07886 0.0
O154 O 0.66775 0.79445 0.08172 0.0
O155 O 0.64892 0.81557 0.19412 0.0
Mg156 Mg 0.97405 0.09422 0.58294 0.0
C157 C 0.98948 0.11489 0.70334 0.0
O158 O 0.97031 0.12606 0.69595 0.0
C159 C 0.97369 0.10131 0.44862 0.0
O160 O 0.95852 0.08518 0.45699 0.0
C161 C 0.9273 0.11731 0.5807 0.0
O162 O 0.93335 0.12248 0.52425 0.0
O163 O 0.9402 0.10463 0.61263 0.0
O164 O 0.9963 0.10171 0.66062 0.0
O165 O 0.97705 0.05801 0.56614 0.0
C166 C 0.99628 0.05135 0.5457 0.0
O167 O 0.01254 0.06642 0.53773 0.0
O168 O 0.98343 0.10983 0.49559 0.0
Mg169 Mg 0.66234 0.21378 0.33972 0.0
C170 C 0.70538 0.23554 0.30684 0.0
O171 O 0.69011 0.25171 0.30081 0.0
C172 C 0.6322 0.17276 0.32658 0.0
O173 O 0.62392 0.18556 0.28255 0.0
C174 C 0.65506 0.21769 0.20554 0.0
O175 O 0.66736 0.1991 0.20975 0.0
O176 O 0.64882 0.22763 0.25475 0.0
O177 O 0.69886 0.2161 0.32552 0.0
O178 O 0.65408 0.23396 0.42082 0.0
C179 C 0.64511 0.22436 0.46742 0.0
O180 O 0.6397 0.20276 0.464 0.0
O181 O 0.6496 0.1796 0.35596 0.0
Mg182 Mg 0.52331 0.90134 0.04815 0.0
C183 C 0.50921 0.88429 0.175 0.0
O184 O 0.52794 0.87229 0.16901 0.0
C185 C 0.51837 0.89148 0.91549 0.0
O186 O 0.54004 0.89688 0.91954 0.0
C187 C 0.57064 0.88741 0.09748 0.0
O188 O 0.56886 0.9056 0.13216 0.0
O189 O 0.55516 0.8831 0.05832 0.0
O190 O 0.50272 0.89679 0.13063 0.0
O191 O 0.52571 0.93759 0.03268 0.0
C192 C 0.50662 0.94577 0.0159 0.0
O193 O 0.48896 0.93209 1.01272 0.0
O194 O 0.50668 0.89 0.96466 0.0
Mg195 Mg 0.85085 0.77174 0.81189 0.0
C196 C 0.80578 0.75349 0.78322 0.0
O197 O 0.81935 0.73577 0.77984 0.0
C198 C 0.86469 0.81873 0.8652 0.0
O199 O 0.84804 0.81576 0.90488 0.0
C200 C 0.85938 0.76982 0.68061 0.0
O201 O 0.84849 0.78905 0.68961 0.0
O202 O 0.86403 0.75754 0.72704 0.0
O203 O 0.8143 0.77266 0.79758 0.0
O204 O 0.85664 0.75154 0.89403 0.0
C205 C 0.87021 0.75811 0.93602 0.0
O206 O 0.88293 0.77612 0.92653 0.0
O207 O 0.86778 0.8042 0.82273 0.0
Mg208 Mg 0.53333 0.59064 0.58177 0.0
C209 C 0.51073 0.54779 0.5539 0.0
O210 O 0.49437 0.56302 0.55199 0.0
C211 C 0.56756 0.62379 0.61913 0.0
O212 O 0.54795 0.63315 0.63369 0.0
C213 C 0.52975 0.60176 0.45021 0.0
O214 O 0.55024 0.59288 0.45403 0.0
O215 O 0.51834 0.60463 0.49936 0.0
O216 O 0.53082 0.5543 0.56728 0.0
O217 O 0.51417 0.59822 0.66494 0.0
C218 C 0.52482 0.59581 0.71541 0.0
O219 O 0.54616 0.58905 0.71391 0.0
O220 O 0.56751 0.60443 0.59321 0.0
Mg221 Mg 0.6576 0.27236 0.83707 0.0
C222 C 0.65013 0.26217 0.9698 0.0
O223 O 0.64962 0.28447 0.96944 0.0
C224 C 0.64804 0.26815 0.70482 0.0
O225 O 0.65735 0.28838 0.70941 0.0
C226 C 0.61779 0.29926 0.86213 0.0
O227 O 0.61091 0.27813 0.85608 0.0
O228 O 0.63879 0.30359 0.85352 0.0
O229 O 0.65313 0.25166 0.91924 0.0
O230 O 0.69396 0.27481 0.81967 0.0
C231 C 0.70228 0.25595 0.80178 0.0
O232 O 0.68867 0.23827 0.79806 0.0
O233 O 0.64456 0.25681 0.75374 0.0
Mg234 Mg 0.96966 0.41003 0.09026 0.0
C235 C 0.99329 0.45249 0.05772 0.0
O236 O 0.00935 0.4371 0.0515 0.0
C237 C 0.92469 0.38453 0.08078 0.0
O238 O 0.9342 0.37678 0.03026 0.0
C239 C 0.97238 0.40259 0.95605 0.0
O240 O 0.95526 0.41686 0.96117 0.0
O241 O 0.98181 0.39524 1.00479 0.0
O242 O 0.9736 0.44621 0.07561 0.0
O243 O 0.99019 0.40135 0.17025 0.0
C244 C 0.98096 0.39102 0.21532 0.0
O245 O 0.95978 0.38409 0.21027 0.0
O246 O 0.93492 0.39976 0.1116 0.0
Mg247 Mg 0.84682 0.72176 0.31278 0.0
C248 C 0.86918 0.73511 0.43399 0.0
O249 O 0.88203 0.7174 0.42197 0.0
C250 C 0.85591 0.72346 0.18116 0.0
O251 O 0.84414 0.70469 0.189 0.0
C252 C 0.86022 0.6752 0.36851 0.0
O253 O 0.84568 0.68013 0.41253 0.0
O254 O 0.86196 0.68838 0.32245 0.0
O255 O 0.85446 0.74146 0.39469 0.0
O256 O 0.81017 0.72332 0.30012 0.0
C257 C 0.80299 0.74314 0.28703 0.0
O258 O 0.81783 0.75981 0.28353 0.0
O259 O 0.86074 0.7354 0.22815 0.0
Mg260 Mg 0.52527 0.40563 0.96667 0.0
C261 C 0.50741 0.45029 0.99329 0.0
O262 O 0.48978 0.43652 0.99462 0.0
C263 C 0.55232 0.36565 0.94816 0.0
O264 O 0.53113 0.35896 0.9557 0.0
C265 C 0.52051 0.39521 0.09878 0.0
O266 O 0.5422 0.40054 0.09451 0.0
O267 O 0.50872 0.39417 0.04989 0.0
O268 O 0.5269 0.44208 0.98002 0.0
O269 O 0.5051 0.39954 0.88482 0.0
C270 C 0.51615 0.39686 0.83495 0.0
O271 O 0.53851 0.3977 0.83634 0.0
O272 O 0.55671 0.3867 0.95355 0.0
Mg273 Mg 0.84119 0.27535 0.19613 0.0
C274 C 0.86165 0.25945 0.07595 0.0
O275 O 0.87317 0.27837 0.08337 0.0
C276 C 0.84818 0.27595 0.33043 0.0
O277 O 0.83167 0.29069 0.32196 0.0
C278 C 0.86152 0.32368 0.1962 0.0
O279 O 0.86436 0.32009 0.25527 0.0
O280 O 0.85128 0.30885 0.16403 0.0
O281 O 0.84841 0.25283 0.11884 0.0
O282 O 0.805 0.27207 0.2144 0.0
C283 C 0.79895 0.25296 0.2364 0.0
O284 O 0.81452 0.2372 0.24439 0.0
O285 O 0.85712 0.26653 0.28347 0.0
Mg286 Mg 0.97303 0.58814 0.46725 0.0
C287 C 0.99395 0.54424 0.49587 0.0
O288 O 0.01105 0.5586 0.49915 0.0
C289 C 0.93862 0.62071 0.42535 0.0
O290 O 0.95805 0.62981 0.40811 0.0
C291 C 0.97705 0.59979 0.59926 0.0
O292 O 0.95591 0.5925 0.59625 0.0
O293 O 0.9885 0.60154 0.54979 0.0
O294 O 0.97434 0.55175 0.48126 0.0
O295 O 0.99257 0.59547 0.38452 0.0
C296 C 0.98229 0.59269 0.33363 0.0
O297 O 0.96112 0.58542 0.33425 0.0
O298 O 0.93895 0.60213 0.4551 0.0
Mg299 Mg 0.66407 0.72646 0.70766 0.0
C300 C 0.6443 0.74003 0.58344 0.0
O301 O 0.63229 0.72146 0.59151 0.0
C302 C 0.65339 0.73157 0.83986 0.0
O303 O 0.65682 0.70958 0.83526 0.0
C304 C 0.6468 0.67917 0.66388 0.0
O305 O 0.66348 0.67989 0.62355 0.0
O306 O 0.64478 0.69508 0.70309 0.0
O307 O 0.65784 0.74653 0.62556 0.0
O308 O 0.70074 0.72406 0.71813 0.0
C309 C 0.7097 0.74331 0.72958 0.0
O310 O 0.69642 0.76127 0.73145 0.0
O311 O 0.65389 0.74359 0.79131 0.0
Mg312 Mg 0.46847 0.41101 0.46811 0.0
C313 C 0.47661 0.40396 0.33486 0.0
O314 O 0.45491 0.40945 0.33623 0.0
C315 C 0.47195 0.39843 0.59887 0.0
O316 O 0.45097 0.40614 0.59529 0.0
C317 C 0.43672 0.37568 0.43639 0.0
O318 O 0.4572 0.36714 0.42816 0.0
O319 O 0.43495 0.39584 0.45678 0.0
O320 O 0.48764 0.40329 0.38513 0.0
O321 O 0.47044 0.4474 0.48238 0.0
C322 C 0.49053 0.45401 0.49535 0.0
O323 O 0.50696 0.43886 0.4969 0.0
O324 O 0.48375 0.39703 0.54994 0.0
Mg325 Mg 0.33736 0.71791 0.20285 0.0
C326 C 0.29347 0.73739 0.23343 0.0
O327 O 0.30854 0.75357 0.24237 0.0
C328 C 0.37666 0.69138 0.17795 0.0
O329 O 0.38283 0.7127 0.18478 0.0
C330 C 0.34512 0.72077 0.33534 0.0
O331 O 0.33323 0.70202 0.32849 0.0
O332 O 0.35062 0.73199 0.28763 0.0
O333 O 0.30051 0.71809 0.21483 0.0
O334 O 0.34434 0.73814 0.12148 0.0
C335 C 0.34445 0.72686 0.07153 0.0
O336 O 0.34036 0.70494 0.07371 0.0
O337 O 0.35578 0.68637 0.18629 0.0
Mg338 Mg 0.03172 0.58977 0.96674 0.0
C339 C 0.02257 0.59611 0.83355 0.0
O340 O 0.04453 0.5917 0.83382 0.0
C341 C 0.0272 0.60125 0.09888 0.0
O342 O 0.04879 0.59545 0.09553 0.0
C343 C 0.06249 0.62595 0.93207 0.0
O344 O 0.04184 0.63406 0.9242 0.0
O345 O 0.06469 0.60602 0.95373 0.0
O346 O 0.01184 0.59646 0.88443 0.0
O347 O 0.03132 0.55332 0.98067 0.0
C348 C 0.01149 0.54627 0.99497 0.0
O349 O 0.99471 0.56104 0.99713 0.0
O350 O 0.01566 0.60235 0.04957 0.0
Mg351 Mg 0.1616 0.27331 0.69716 0.0
C352 C 0.20552 0.25536 0.73061 0.0
O353 O 0.19109 0.23834 0.73418 0.0
C354 C 0.12213 0.30034 0.6752 0.0
O355 O 0.11546 0.27916 0.68183 0.0
C356 C 0.153 0.27046 0.82946 0.0
O357 O 0.16369 0.28991 0.82254 0.0
O358 O 0.14838 0.25883 0.78175 0.0
O359 O 0.19806 0.27464 0.71335 0.0
O360 O 0.1564 0.25252 0.61534 0.0
C361 C 0.15302 0.26301 0.56498 0.0
O362 O 0.15235 0.2853 0.56546 0.0
O363 O 0.14319 0.30479 0.68179 0.0
Mg364 Mg 0.4756 0.58943 0.08373 0.0
C365 C 0.48467 0.60106 0.21513 0.0
O366 O 0.46229 0.60132 0.21417 0.0
C367 C 0.48036 0.60135 0.95154 0.0
O368 O 0.45855 0.59641 0.95476 0.0
C369 C 0.44586 0.62803 0.09652 0.0
O370 O 0.46648 0.63604 0.0869 0.0
O371 O 0.44305 0.60663 0.0951 0.0
O372 O 0.49545 0.59668 0.16569 0.0
O373 O 0.47522 0.55293 0.07081 0.0
C374 C 0.49474 0.54494 0.05692 0.0
O375 O 0.51219 0.55891 0.05453 0.0
O376 O 0.49204 0.60144 1.00073 0.0
Mg377 Mg 0.14973 0.7324 0.80744 0.0
C378 C 0.19543 0.74937 0.78536 0.0
O379 O 0.18205 0.76706 0.77811 0.0
C380 C 0.13634 0.68528 0.86195 0.0
O381 O 0.15456 0.68714 0.89661 0.0
C382 C 0.14624 0.7288 0.67543 0.0
O383 O 0.15518 0.70967 0.69504 0.0
O384 O 0.14036 0.74358 0.71527 0.0
O385 O 0.1865 0.73048 0.80066 0.0
O386 O 0.14279 0.75449 0.88622 0.0
C387 C 0.13016 0.74756 0.93012 0.0
O388 O 0.1187 0.72859 0.9232 0.0
O389 O 0.13209 0.7005 0.82212 0.0
Mg390 Mg 0.02606 0.40541 0.58724 0.0
C391 C 0.01548 0.39392 0.71881 0.0
O392 O 0.03756 0.39034 0.71769 0.0
C393 C 0.02265 0.39592 0.45499 0.0
O394 O 0.04293 0.40516 0.46062 0.0
C395 C 0.05472 0.36623 0.5994 0.0
O396 O 0.03401 0.35885 0.58794 0.0
O397 O 0.05808 0.38755 0.60018 0.0
O398 O 0.00549 0.3999 0.66947 0.0
O399 O 0.02727 0.44177 0.57204 0.0
C400 C 0.0078 0.44965 0.55753 0.0
O401 O 0.99039 0.43562 0.55548 0.0
O402 O 0.01083 0.39261 0.50327 0.0
Mg403 Mg 0.34931 0.26729 0.32844 0.0
C404 C 0.30508 0.24967 0.29341 0.0
O405 O 0.31906 0.23229 0.28959 0.0
C406 C 0.36279 0.31483 0.37992 0.0
O407 O 0.34531 0.31283 0.41736 0.0
C408 C 0.35885 0.26526 0.19717 0.0
O409 O 0.3489 0.28503 0.20553 0.0
O410 O 0.36269 0.25287 0.24395 0.0
O411 O 0.31298 0.26872 0.31108 0.0
O412 O 0.35379 0.24671 0.41065 0.0
C413 C 0.36674 0.25284 0.45453 0.0
O414 O 0.37958 0.27093 0.44762 0.0
O415 O 0.36659 0.29948 0.34008 0.0
C416 C 0.99103 0.12635 0.81452 0.0
C417 C 0.00068 0.11455 0.76448 0.0
H418 H 0.99108 0.13192 0.91197 0.0
C419 C 0.01973 0.10065 0.77499 0.0
H420 H 0.97638 0.13727 0.80809 0.0
C421 C 0.02812 0.0976 0.83452 0.0
C422 C 0.01768 0.10837 0.88503 0.0
H423 H 0.02765 0.0914 0.73757 0.0
H424 H 0.04235 0.08615 0.84109 0.0
C425 C 0.99944 0.12328 0.87417 0.0
C426 C 0.14472 0.77794 1.00098 0.0
C427 C 0.13154 0.75832 0.99177 0.0
H428 H 0.15937 0.801 0.06577 0.0
C429 C 0.12151 0.74774 0.04321 0.0
H430 H 0.15265 0.78654 0.96247 0.0
C431 C 0.12552 0.75593 0.10268 0.0
C432 C 0.13952 0.77496 0.11202 0.0
H433 H 0.11124 0.73259 0.03787 0.0
H434 H 0.11815 0.74695 0.14138 0.0
C435 C 0.1486 0.78619 0.06036 0.0
C436 C 0.47708 0.89785 0.24155 0.0
C437 C 0.49744 0.88552 0.23524 0.0
H438 H 0.45189 0.91123 0.30274 0.0
C439 C 0.50732 0.87581 0.28794 0.0
H440 H 0.46896 0.90546 0.2019 0.0
C441 C 0.49759 0.87924 0.34602 0.0
C442 C 0.47771 0.89232 0.35252 0.0
H443 H 0.52301 0.86619 0.2847 0.0
H444 H 0.50598 0.87212 0.38592 0.0
C445 C 0.46729 0.90115 0.29947 0.0
C446 C 0.34979 0.22343 0.52411 0.0
C447 C 0.36473 0.24181 0.51558 0.0
H448 H 0.33338 0.20118 0.58792 0.0
C449 C 0.37616 0.25077 0.56701 0.0
H450 H 0.34079 0.21603 0.48555 0.0
C451 C 0.37186 0.24225 0.62602 0.0
C452 C 0.35606 0.22461 0.63475 0.0
H453 H 0.38782 0.26491 0.56206 0.0
H454 H 0.38034 0.25001 0.66491 0.0
C455 C 0.34552 0.21493 0.58296 0.0
C456 C 0.98046 0.9025 0.71367 0.0
C457 C 0.99286 0.90461 0.76864 0.0
H458 H 0.98163 0.9 0.61556 0.0
C459 C 0.01678 0.9043 0.76607 0.0
H460 H 0.962 0.90247 0.71411 0.0
C461 C 0.02805 0.90296 0.70942 0.0
C462 C 0.01563 0.90168 0.65427 0.0
H463 H 0.02682 0.90581 0.80761 0.0
H464 H 0.0465 0.90349 0.70879 0.0
C465 C 0.99172 0.90095 0.65714 0.0
C466 C 0.35135 0.73497 0.90008 0.0
C467 C 0.3501 0.75869 0.8944 0.0
H468 H 0.35057 0.70639 0.96048 0.0
C469 C 0.34879 0.77202 0.94802 0.0
H470 H 0.35241 0.72422 0.85977 0.0
C471 C 0.34775 0.76178 1.00598 0.0
C472 C 0.34786 0.73802 1.01134 0.0
H473 H 0.34789 0.79036 0.94521 0.0
H474 H 0.34609 0.77245 0.04633 0.0
C475 C 0.35018 0.72476 0.95789 0.0
C476 C 0.48088 0.09581 0.15439 0.0
C477 C 0.48505 0.11502 0.11752 0.0
H478 H 0.48241 0.08095 0.2441 0.0
C479 C 0.49302 0.13495 0.14586 0.0
H480 H 0.4745 0.08024 0.13424 0.0
C481 C 0.49773 0.1353 0.20907 0.0
C482 C 0.49421 0.11585 0.24554 0.0
H483 H 0.4963 0.15007 0.11891 0.0
H484 H 0.50463 0.15067 0.22911 0.0
C485 C 0.48523 0.09627 0.21762 0.0
C486 C 0.14489 0.26231 0.45222 0.0
C487 C 0.15183 0.25078 0.50561 0.0
H488 H 0.14133 0.2614 0.35434 0.0
C489 C 0.15906 0.22811 0.50065 0.0
H490 H 0.13903 0.27974 0.45457 0.0
C491 C 0.16051 0.21764 0.443 0.0
C492 C 0.15453 0.22954 0.38931 0.0
H493 H 0.16447 0.21876 0.54093 0.0
H494 H 0.16694 0.20042 0.4404 0.0
C495 C 0.14611 0.25178 0.39473 0.0
C496 C 0.98802 0.89723 0.26586 0.0
C497 C 0.00846 0.90953 0.2704 0.0
H498 H 0.962 0.88433 0.20599 0.0
C499 C 0.01949 0.91659 0.21633 0.0
H500 H 0.9792 0.89155 0.30687 0.0
C501 C 0.01002 0.91199 0.15887 0.0
C502 C 0.98902 0.90066 0.1542 0.0
H503 H 0.03541 0.92588 0.21839 0.0
H504 H 0.01871 0.91822 0.11823 0.0
C505 C 0.97822 0.89307 0.20822 0.0
C506 C 0.84677 0.22957 1.00423 0.0
C507 C 0.86088 0.24846 0.01456 0.0
H508 H 0.83174 0.20724 0.93826 0.0
C509 C 0.87241 0.25819 0.96419 0.0
H510 H 0.8377 0.2216 0.04189 0.0
C511 C 0.86891 0.25001 0.90448 0.0
C512 C 0.85384 0.23189 0.89388 0.0
H513 H 0.88346 0.27273 0.97046 0.0
H514 H 0.87739 0.2584 0.86649 0.0
C515 C 0.84332 0.22137 0.94463 0.0
C516 C 0.48624 0.11835 0.69869 0.0
C517 C 0.49687 0.10684 0.74768 0.0
H518 H 0.48475 0.1239 0.60124 0.0
C519 C 0.51603 0.09333 0.73482 0.0
H520 H 0.47145 0.12896 0.70683 0.0
C521 C 0.52358 0.09042 0.67425 0.0
C522 C 0.51221 0.10094 0.62491 0.0
H523 H 0.52468 0.08425 0.77125 0.0
H524 H 0.53796 0.07928 0.66602 0.0
C525 C 0.49382 0.11544 0.638 0.0
C526 C 0.65604 0.77225 0.51542 0.0
C527 C 0.64438 0.75161 0.52306 0.0
H528 H 0.66809 0.79747 0.45276 0.0
C529 C 0.63433 0.74129 0.47142 0.0
H530 H 0.66385 0.7807 0.55429 0.0
C531 C 0.63692 0.75084 0.41291 0.0
C532 C 0.64942 0.77098 0.40501 0.0
H533 H 0.62521 0.72538 0.47576 0.0
H534 H 0.62965 0.7421 0.37374 0.0
C535 C 0.65845 0.78187 0.45711 0.0
C536 C 0.97007 0.09729 0.33445 0.0
C537 C 0.98058 0.10769 0.38529 0.0
H538 H 0.97023 0.09207 0.23707 0.0
C539 C 0.99858 0.12296 0.37481 0.0
H540 H 0.95602 0.08558 0.34075 0.0
C541 C 0.00667 0.12676 0.31508 0.0
C542 C 0.99697 0.11534 0.2646 0.0
H543 H 0.00696 0.13135 0.41288 0.0
H544 H 0.02115 0.13794 0.30888 0.0
C545 C 0.97817 0.10106 0.27483 0.0
C546 C 0.65647 0.21623 0.09048 0.0
C547 C 0.65106 0.22815 0.14466 0.0
H548 H 0.6602 0.21752 0.99249 0.0
C549 C 0.64357 0.25074 0.14014 0.0
H550 H 0.66219 0.19876 0.0924 0.0
C551 C 0.64262 0.26152 0.08299 0.0
C552 C 0.64892 0.24989 0.02906 0.0
H553 H 0.63927 0.26039 0.18095 0.0
H554 H 0.63743 0.27916 0.08131 0.0
C555 C 0.6553 0.22696 0.0332 0.0
C556 C 0.50964 0.89466 0.74311 0.0
C557 C 0.48588 0.89715 0.73924 0.0
H558 H 0.53857 0.89077 0.80207 0.0
C559 C 0.47279 0.89564 0.79332 0.0
H560 H 0.52017 0.89563 0.70224 0.0
C561 C 0.48326 0.89259 0.85034 0.0
C562 C 0.5071 0.8912 0.85463 0.0
H563 H 0.4544 0.89724 0.79184 0.0
H564 H 0.4727 0.89221 0.89124 0.0
C565 C 0.52016 0.89184 0.80031 0.0
C566 C 0.87658 0.74205 0.60599 0.0
C567 C 0.86411 0.762 0.61718 0.0
H568 H 0.88833 0.71807 0.53894 0.0
C569 C 0.85508 0.77402 0.56696 0.0
H570 H 0.88384 0.73247 0.64367 0.0
C571 C 0.85751 0.76574 0.50717 0.0
C572 C 0.86924 0.74536 0.4961 0.0
H573 H 0.84546 0.78952 0.57387 0.0
H574 H 0.84969 0.77503 0.46976 0.0
C575 C 0.87923 0.73387 0.54594 0.0
C576 C 0.52041 0.60008 0.27813 0.0
C577 C 0.49684 0.60396 0.27413 0.0
H578 H 0.54936 0.59656 0.337 0.0
C579 C 0.48467 0.60939 0.32792 0.0
H580 H 0.5303 0.59599 0.23751 0.0
C581 C 0.49559 0.60982 0.38492 0.0
C582 C 0.51892 0.60474 0.38937 0.0
H583 H 0.46651 0.61269 0.32636 0.0
H584 H 0.48554 0.61327 0.42569 0.0
C585 C 0.53133 0.60043 0.3352 0.0
C586 C 0.65018 0.2592 0.53242 0.0
C587 C 0.64324 0.23646 0.52699 0.0
H588 H 0.65688 0.2871 0.59269 0.0
C589 C 0.63597 0.22485 0.58006 0.0
H590 H 0.65577 0.26868 0.49247 0.0
C591 C 0.63666 0.23539 0.63766 0.0
C592 C 0.64457 0.2578 0.64343 0.0
H593 H 0.63042 0.20733 0.57752 0.0
H594 H 0.63165 0.22573 0.67785 0.0
C595 C 0.6508 0.26976 0.58998 0.0
C596 C 0.98114 0.40263 0.78351 0.0
C597 C 0.00314 0.39343 0.77824 0.0
H598 H 0.95413 0.41266 0.84394 0.0
C599 C 0.014 0.38524 0.8314 0.0
H600 H 0.97228 0.40903 0.74346 0.0
C601 C 0.00356 0.3872 0.88898 0.0
C602 C 0.98209 0.39754 0.89467 0.0
H603 H 0.0309 0.37789 0.82885 0.0
H604 H 0.01272 0.38143 0.92924 0.0
C605 C 0.97076 0.40475 0.84117 0.0
C606 C 0.87487 0.75077 0.10859 0.0
C607 C 0.86165 0.73121 0.11827 0.0
H608 H 0.88829 0.77444 0.04316 0.0
C609 C 0.85296 0.7195 0.06702 0.0
H610 H 0.88191 0.76009 0.14708 0.0
C611 C 0.85651 0.72775 1.00759 0.0
C612 C 0.869 0.74778 0.99797 0.0
H613 H 0.84279 0.7043 0.07278 0.0
H614 H 0.84895 0.71873 0.9693 0.0
C615 C 0.8786 0.75892 0.04898 0.0
C616 C 0.48544 0.39467 0.16438 0.0
C617 C 0.50932 0.39441 0.15974 0.0
H618 H 0.45643 0.39798 0.22333 0.0
C619 C 0.52238 0.39561 0.21381 0.0
H620 H 0.47488 0.39379 0.12366 0.0
C621 C 0.51178 0.39798 0.27111 0.0
C622 C 0.48793 0.39938 0.27534 0.0
H623 H 0.54082 0.39538 0.21178 0.0
H624 H 0.5223 0.39946 0.31178 0.0
C625 C 0.47487 0.39722 0.22154 0.0
C626 C 0.86932 0.25079 0.40437 0.0
C627 C 0.8542 0.26886 0.3938 0.0
H628 H 0.88367 0.22788 0.47017 0.0
C629 C 0.84341 0.27915 0.44452 0.0
H630 H 0.87798 0.24255 0.36641 0.0
C631 C 0.84664 0.27076 0.50399 0.0
C632 C 0.86077 0.25189 0.51422 0.0
H633 H 0.83178 0.29324 0.43818 0.0
H634 H 0.83737 0.27856 0.54158 0.0
C635 C 0.87258 0.2424 0.46396 0.0
C636 C 0.98674 0.59908 0.77132 0.0
C637 C 0.01064 0.59959 0.77448 0.0
H638 H 0.95731 0.59889 0.71325 0.0
C639 C 0.02324 0.60242 0.71997 0.0
H640 H 0.97656 0.59702 0.81255 0.0
C641 C 0.01223 0.60372 0.66321 0.0
C642 C 0.98839 0.602 0.65967 0.0
H643 H 0.04168 0.60313 0.72091 0.0
H644 H 0.02251 0.60515 0.62196 0.0
C645 C 0.97572 0.60017 0.71442 0.0
C646 C 0.65336 0.73914 1.01285 0.0
C647 C 0.65648 0.7627 0.0183 0.0
H648 H 0.6498 0.71079 0.95193 0.0
C649 C 0.65662 0.77609 0.9648 0.0
H650 H 0.65308 0.7284 0.05326 0.0
C651 C 0.65454 0.76607 0.9069 0.0
C652 C 0.65246 0.74241 0.90118 0.0
H653 H 0.65874 0.79434 0.96747 0.0
H654 H 0.65535 0.77684 0.86658 0.0
C655 C 0.65147 0.72908 0.9548 0.0
C656 C 0.51684 0.39056 0.72136 0.0
C657 C 0.50427 0.39457 0.7754 0.0
H658 H 0.51646 0.38831 0.62325 0.0
C659 C 0.48059 0.39762 0.77123 0.0
H660 H 0.5351 0.38793 0.72303 0.0
C661 C 0.46988 0.39784 0.71387 0.0
C662 C 0.48265 0.39494 0.65962 0.0
H663 H 0.47041 0.40062 0.81205 0.0
H664 H 0.45172 0.40103 0.712 0.0
C665 C 0.50614 0.3907 0.6641 0.0
C666 C 0.34028 0.71889 0.44942 0.0
C667 C 0.34998 0.72951 0.39774 0.0
H668 H 0.33469 0.71993 0.5466 0.0
C669 C 0.3633 0.74909 0.40631 0.0
H670 H 0.32998 0.70373 0.44451 0.0
C671 C 0.36617 0.75828 0.46514 0.0
C672 C 0.35559 0.74819 0.51641 0.0
H673 H 0.3711 0.7576 0.36747 0.0
H674 H 0.37601 0.77373 0.47003 0.0
C675 C 0.34296 0.72817 0.50804 0.0
C676 C 0.99179 0.60107 0.1631 0.0
C677 C 0.01567 0.6022 0.15939 0.0
H678 H 0.96259 0.59703 0.22103 0.0
C679 C 0.02845 0.60186 0.21403 0.0
H680 H 0.98144 0.60124 0.12192 0.0
C681 C 0.0176 0.59954 0.27104 0.0
C682 C 0.9938 0.59723 0.27436 0.0
H683 H 0.04688 0.60275 0.21269 0.0
H684 H 0.02792 0.59875 0.31223 0.0
C685 C 0.98099 0.59849 0.21993 0.0
C686 C 0.13777 0.24047 0.90052 0.0
C687 C 0.14891 0.26134 0.89196 0.0
H688 H 0.12799 0.21445 0.96394 0.0
C689 C 0.15747 0.27287 0.94367 0.0
H690 H 0.13089 0.23121 0.86171 0.0
C691 C 0.15593 0.26323 1.00223 0.0
C692 C 0.14565 0.24192 1.01048 0.0
H693 H 0.16607 0.28905 0.93879 0.0
H694 H 0.16337 0.27222 0.04075 0.0
C695 C 0.13608 0.2309 0.95921 0.0
C696 C 0.52634 0.60037 0.82953 0.0
C697 C 0.51342 0.59967 0.77521 0.0
H698 H 0.52608 0.60188 0.92775 0.0
C699 C 0.4896 0.60169 0.77913 0.0
H700 H 0.54475 0.5991 0.82803 0.0
C701 C 0.47887 0.6032 0.83649 0.0
C702 C 0.49176 0.60295 0.89094 0.0
H703 H 0.4792 0.6013 0.73807 0.0
H704 H 0.46043 0.60392 0.83816 0.0
C705 C 0.51564 0.6021 0.88675 0.0
C706 C 0.15686 0.7227 0.50447 0.0
C707 C 0.14851 0.74329 0.4812 0.0
H708 H 0.16237 0.70192 0.58336 0.0
C709 C 0.13772 0.75855 0.52184 0.0
H710 H 0.16516 0.71055 0.47446 0.0
C711 C 0.13634 0.75372 0.58492 0.0
C712 C 0.14547 0.73344 0.60838 0.0
H713 H 0.13118 0.77463 0.50538 0.0
H714 H 0.12864 0.7661 0.61541 0.0
C715 C 0.15524 0.71778 0.56711 0.0
C716 C 0.98079 0.38208 0.32793 0.0
C717 C 0.99267 0.38958 0.27546 0.0
H718 H 0.9809 0.37816 0.42583 0.0
C719 C 0.01518 0.39731 0.28212 0.0
H720 H 0.96343 0.37598 0.32446 0.0
C721 C 0.02522 0.39846 0.34027 0.0
C722 C 0.01293 0.39203 0.39309 0.0
H723 H 0.02484 0.4031 0.24264 0.0
H724 H 0.04237 0.40511 0.34391 0.0
C725 C 0.99079 0.38335 0.38614 0.0
C726 C 0.37315 0.23559 0.12358 0.0
C727 C 0.36291 0.25681 0.13394 0.0
H728 H 0.38198 0.21001 0.05784 0.0
C729 C 0.35516 0.26942 0.08317 0.0
H730 H 0.3794 0.22552 0.16164 0.0
C731 C 0.3565 0.26051 0.02372 0.0
C732 C 0.3658 0.23885 0.01362 0.0
H733 H 0.34729 0.2859 0.08942 0.0
H734 H 0.34962 0.27032 0.98595 0.0
C735 C 0.37467 0.22675 0.06399 0.0
C736 C 0.97768 0.02069 1.01264 0.0
C737 C 0.99916 0.02862 0.03178 0.0
H738 H 0.95774 0.9922 0.98309 0.0
C739 C 0.01737 0.01322 0.03521 0.0
H740 H 0.96328 0.03213 1.00946 0.0
C741 C 0.01421 0.99042 0.01986 0.0
C742 C 0.99273 0.98245 1.0009 0.0
H743 H 0.03414 0.01877 0.04963 0.0
H744 H 0.02864 0.97903 0.0232 0.0
C745 C 0.97449 0.99782 0.99746 0.0
C746 C 0.2393 0.76817 0.27915 0.0
C747 C 0.22235 0.75252 0.26257 0.0
H748 H 0.27489 0.77564 0.283 0.0
C749 C 0.22899 0.73151 0.23722 0.0
H750 H 0.23481 0.78447 0.29883 0.0
C751 C 0.25207 0.72635 0.22831 0.0
C752 C 0.26898 0.74215 0.24425 0.0
H753 H 0.21635 0.71901 0.22408 0.0
H754 H 0.25663 0.7101 0.20839 0.0
C755 C 0.26231 0.76307 0.26998 0.0
C756 C 0.51271 0.00659 0.46196 0.0
C757 C 0.49495 0.02221 0.47136 0.0
H758 H 0.52363 0.97201 0.46755 0.0
C759 C 0.47397 0.01428 0.49432 0.0
H760 H 0.52908 0.01213 0.44441 0.0
C761 C 0.47082 0.99126 0.50765 0.0
C762 C 0.4886 0.97566 0.49836 0.0
H763 H 0.45992 0.02586 0.50215 0.0
H764 H 0.45446 0.98573 0.52527 0.0
C765 C 0.50957 0.98358 0.47533 0.0
C766 C 0.26859 0.26546 0.75848 0.0
C767 C 0.27564 0.2441 0.78043 0.0
H768 H 0.24091 0.28588 0.72548 0.0
C769 C 0.25943 0.22669 0.78611 0.0
H770 H 0.28067 0.27926 0.75355 0.0
C771 C 0.23675 0.23048 0.76986 0.0
C772 C 0.22967 0.25178 0.74765 0.0
H773 H 0.26426 0.21005 0.80278 0.0
H774 H 0.22475 0.21661 0.77474 0.0
C775 C 0.24582 0.26928 0.74233 0.0
C776 C 0.02588 0.99718 0.49476 0.0
C777 C 0.00826 0.98115 0.49968 0.0
H778 H 0.03592 0.0319 0.50543 0.0
C779 C 0.98663 0.98842 0.51972 0.0
H780 H 0.04273 0.99214 0.47952 0.0
C781 C 0.98273 0.01116 0.53482 0.0
C782 C 1.00035 0.0272 0.53006 0.0
H783 H 0.97265 0.97651 0.52417 0.0
H784 H 0.96589 0.01616 0.55018 0.0
C785 C 0.02196 0.01997 0.50969 0.0
C786 C 0.23462 0.73258 0.77748 0.0
C787 C 0.22016 0.7515 0.77314 0.0
H788 H 0.26848 0.71968 0.76765 0.0
C789 C 0.22946 0.77255 0.75547 0.0
H790 H 0.228 0.71613 0.79088 0.0
C791 C 0.25268 0.77461 0.74202 0.0
C792 C 0.2671 0.75566 0.74593 0.0
H793 H 0.21879 0.78749 0.75165 0.0
H794 H 0.25929 0.79104 0.72838 0.0
C795 C 0.25783 0.73464 0.76401 0.0
C796 C 0.52205 0.98538 1.0053 0.0
C797 C 0.50394 0.96996 0.99915 0.0
H798 H 0.53327 0.0198 0.99597 0.0
C799 C 0.48292 0.97784 0.97662 0.0
H800 H 0.53846 0.97982 0.02234 0.0
C801 C 0.47995 0.00066 0.96127 0.0
C802 C 0.49792 0.01617 0.96826 0.0
H803 H 0.46862 0.96639 0.97097 0.0
H804 H 0.46347 0.00616 0.94461 0.0
C805 C 0.51905 0.00827 0.99008 0.0
C806 C 0.24256 0.262 0.26432 0.0
C807 C 0.23469 0.24082 0.24309 0.0
H808 H 0.27095 0.28147 0.29694 0.0
C809 C 0.25016 0.22272 0.23842 0.0
H810 H 0.23107 0.27631 0.26851 0.0
C811 C 0.27296 0.22569 0.25487 0.0
C812 C 0.28084 0.24682 0.27629 0.0
H813 H 0.24465 0.2062 0.22234 0.0
H814 H 0.2844 0.21133 0.25076 0.0
C815 C 0.26541 0.26498 0.2807 0.0
C816 C 0.75757 0.23013 0.74484 0.0
C817 C 0.77281 0.24841 0.75001 0.0
H818 H 0.7235 0.2182 0.75723 0.0
C819 C 0.76465 0.26936 0.77223 0.0
H820 H 0.76328 0.21378 0.72799 0.0
C821 C 0.74175 0.27193 0.78907 0.0
C822 C 0.72657 0.25359 0.78418 0.0
H823 H 0.77595 0.2838 0.7768 0.0
H824 H 0.73599 0.28825 0.80606 0.0
C825 C 0.73474 0.23269 0.76177 0.0
C826 C 0.73939 0.73455 0.26631 0.0
C827 C 0.73204 0.75662 0.25132 0.0
H828 H 0.76748 0.71294 0.28938 0.0
C829 C 0.7482 0.77417 0.24846 0.0
H830 H 0.72738 0.72061 0.26897 0.0
C831 C 0.77119 0.76973 0.26023 0.0
C832 C 0.77855 0.74766 0.27513 0.0
H833 H 0.74311 0.79134 0.2371 0.0
H834 H 0.7832 0.78367 0.25753 0.0
C835 C 0.76239 0.73011 0.27807 0.0
C836 C 0.74605 0.22293 0.29531 0.0
C837 C 0.72941 0.23994 0.28968 0.0
H838 H 0.78101 0.2137 0.28282 0.0
C839 C 0.73584 0.26129 0.26628 0.0
H840 H 0.74166 0.20631 0.31306 0.0
C841 C 0.75837 0.26552 0.24874 0.0
C842 C 0.775 0.24852 0.25429 0.0
H843 H 0.72344 0.27478 0.2612 0.0
H844 H 0.76273 0.28214 0.23091 0.0
C845 C 0.7686 0.22718 0.27785 0.0
C846 C 0.74342 0.76723 0.75732 0.0
C847 C 0.73435 0.74577 0.74255 0.0
H848 H 0.77297 0.78652 0.78188 0.0
C849 C 0.74897 0.72691 0.7413 0.0
H850 H 0.73262 0.78214 0.7588 0.0
C851 C 0.77215 0.72947 0.7546 0.0
C852 C 0.78119 0.75092 0.76952 0.0
H853 H 0.74253 0.71017 0.73019 0.0
H854 H 0.78296 0.71457 0.75322 0.0
C855 C 0.76657 0.76977 0.77069 0.0
C856 C 0.5229 0.50727 0.53973 0.0
C857 C 0.50563 0.52376 0.53929 0.0
H858 H 0.53167 0.4724 0.52608 0.0
C859 C 0.48328 0.51714 0.524 0.0
H860 H 0.54027 0.5118 0.5512 0.0
C861 C 0.47832 0.49454 0.50949 0.0
C862 C 0.49559 0.47806 0.50993 0.0
H863 H 0.46955 0.52943 0.52313 0.0
H864 H 0.46095 0.49 0.49801 0.0
C865 C 0.51793 0.48468 0.52521 0.0
C866 C 0.98069 0.49287 0.04534 0.0
C867 C 0.99805 0.47652 0.04229 0.0
H868 H 0.97133 0.5276 0.0326 0.0
C869 C 0.02 0.48326 0.02338 0.0
H870 H 0.96361 0.48826 0.05959 0.0
C871 C 0.02447 0.50589 1.00784 0.0
C872 C 0.00706 0.52221 1.01074 0.0
H873 H 0.03377 0.47106 0.02048 0.0
H874 H 0.04153 0.51056 0.99352 0.0
C875 C 0.98514 0.51544 0.02969 0.0
C876 C 0.48258 0.48281 0.02522 0.0
C877 C 0.50432 0.47456 1.00912 0.0
H878 H 0.46248 0.51138 0.05315 0.0
C879 C 0.52286 0.48962 1.00938 0.0
H880 H 0.4679 0.47165 0.02564 0.0
C881 C 0.51971 0.51242 0.0253 0.0
C882 C 0.49796 0.52066 0.04135 0.0
H883 H 0.5398 0.48381 0.99736 0.0
H884 H 0.53437 0.5236 0.02487 0.0
C885 C 0.47943 0.50559 0.04117 0.0
C886 C 0.02274 0.48927 0.54301 0.0
C887 C 0.00447 0.47389 0.54186 0.0
H888 H 0.03375 0.52353 0.52922 0.0
C889 C 0.98273 0.4818 0.5249 0.0
H890 H 0.03968 0.48371 0.55574 0.0
C891 C 0.97932 0.50458 0.50958 0.0
C892 C 0.99755 0.51999 0.51088 0.0
H893 H 0.96826 0.47039 0.52341 0.0
H894 H 0.96235 0.5101 0.49692 0.0
C895 C 0.01931 0.51209 0.5277 0.0
C896 C 0.09205 0.12994 0.17895 0.0
C897 C 0.09265 0.12666 0.11487 0.0
H898 H 0.10602 0.14746 0.25643 0.0
C899 C 0.11038 0.13664 0.08079 0.0
H900 H 0.07872 0.12238 0.20676 0.0
C901 C 0.12625 0.15082 0.10958 0.0
C902 C 0.12449 0.15552 0.17284 0.0
H903 H 0.11144 0.13429 0.03147 0.0
H904 H 0.13903 0.15914 0.08152 0.0
C905 C 0.1077 0.14433 0.20754 0.0
C906 C 0.12371 0.8606 0.33299 0.0
C907 C 0.13085 0.84733 0.38305 0.0
H908 H 0.10192 0.88724 0.30137 0.0
C909 C 0.12289 0.85285 0.44226 0.0
H910 H 0.12964 0.8569 0.28686 0.0
C911 C 0.10684 0.87014 0.45056 0.0
C912 C 0.09856 0.8824 0.39991 0.0
H913 H 0.12812 0.84305 0.48193 0.0
H914 H 0.10022 0.87323 0.49634 0.0
C915 C 0.10781 0.87802 0.34138 0.0
C916 C 0.37087 0.85278 0.59288 0.0
C917 C 0.37219 0.83651 0.64012 0.0
H918 H 0.38881 0.8778 0.53945 0.0
C919 C 0.39271 0.83425 0.67281 0.0
H920 H 0.35529 0.85496 0.56693 0.0
C921 C 0.41181 0.84691 0.65638 0.0
C922 C 0.41082 0.86245 0.60761 0.0
H923 H 0.39439 0.82199 0.70964 0.0
H924 H 0.42754 0.84422 0.68138 0.0
C925 C 0.39002 0.86583 0.57709 0.0
C926 C 0.40335 0.11883 0.84314 0.0
C927 C 0.40506 0.11745 0.90757 0.0
H928 H 0.38866 0.13597 0.7661 0.0
C929 C 0.39024 0.13059 0.94385 0.0
H930 H 0.41436 0.1088 0.81371 0.0
C931 C 0.37531 0.14606 0.91637 0.0
C932 C 0.37509 0.14883 0.85211 0.0
H933 H 0.39097 0.12979 0.99356 0.0
H934 H 0.365 0.15679 0.94578 0.0
C935 C 0.38861 0.13443 0.81573 0.0
C936 C 0.88069 0.85196 0.92427 0.0
C937 C 0.88264 0.83594 0.87649 0.0
H938 H 0.89744 0.87797 0.97698 0.0
C939 C 0.90305 0.83496 0.84263 0.0
H940 H 0.86518 0.85315 0.95117 0.0
C941 C 0.92146 0.84873 0.85811 0.0
C942 C 0.91985 0.86414 0.90712 0.0
H943 H 0.90521 0.82292 0.8054 0.0
H944 H 0.93711 0.84707 0.83196 0.0
C945 C 0.89912 0.86613 0.93912 0.0
C946 C 0.90645 0.13021 0.67512 0.0
C947 C 0.9083 0.12967 0.61063 0.0
H948 H 0.89122 0.14613 0.75364 0.0
C949 C 0.89349 0.14318 0.57554 0.0
H950 H 0.91754 0.11996 0.70357 0.0
C951 C 0.87824 0.15803 0.60431 0.0
C952 C 0.87768 0.15988 0.66879 0.0
H953 H 0.89436 0.14303 0.52579 0.0
H954 H 0.86783 0.16897 0.57584 0.0
C955 C 0.89139 0.14526 0.70389 0.0
C956 C 0.62181 0.14472 0.40885 0.0
C957 C 0.61886 0.15309 0.34882 0.0
H958 H 0.60828 0.12391 0.48109 0.0
C959 C 0.60112 0.14433 0.31267 0.0
H960 H 0.63535 0.15113 0.43785 0.0
C961 C 0.58576 0.12866 0.33721 0.0
C962 C 0.58763 0.12157 0.39876 0.0
H963 H 0.59851 0.15029 0.2661 0.0
H964 H 0.57174 0.12302 0.3087 0.0
C965 C 0.60626 0.12918 0.43372 0.0
C966 C 0.60474 0.87313 0.15633 0.0
C967 C 0.58791 0.86976 0.11117 0.0
H968 H 0.63143 0.85796 0.21018 0.0
C969 C 0.58627 0.84841 0.08264 0.0
H970 H 0.60647 0.8894 0.17908 0.0
C971 C 0.60018 0.83052 0.10107 0.0
C972 C 0.61635 0.83356 0.14781 0.0
H973 H 0.57362 0.84517 0.04751 0.0
H974 H 0.59798 0.81413 0.0792 0.0
C975 C 0.61901 0.85518 0.17417 0.0
C976 C 0.58881 0.65216 0.68108 0.0
C977 C 0.58894 0.63581 0.63413 0.0
H978 H 0.60703 0.67812 0.72833 0.0
C979 C 0.60911 0.63214 0.60062 0.0
H980 H 0.57361 0.65514 0.7083 0.0
C981 C 0.62841 0.6456 0.61169 0.0
C982 C 0.6279 0.66265 0.65708 0.0
H983 H 0.60966 0.61958 0.56426 0.0
H984 H 0.64345 0.64312 0.58351 0.0
C985 C 0.60807 0.66527 0.69275 0.0
C986 C 0.56341 0.32626 0.91947 0.0
C987 C 0.56976 0.34904 0.92794 0.0
H988 H 0.57336 0.29302 0.8917 0.0
C989 C 0.59228 0.35557 0.91435 0.0
H990 H 0.54623 0.32058 0.9293 0.0
C991 C 0.60807 0.33954 0.8925 0.0
C992 C 0.60151 0.31678 0.88369 0.0
H993 H 0.59766 0.37304 0.92018 0.0
H994 H 0.62532 0.34495 0.88247 0.0
C995 C 0.57902 0.3104 0.89755 0.0
C996 C 0.87734 0.34173 0.10104 0.0
C997 C 0.87405 0.34227 0.16513 0.0
H998 H 0.89594 0.35477 0.024 0.0
C999 C 0.88509 0.35917 0.19963 0.0
H1000 H 0.869 0.32902 0.07294 0.0
C1001 C 0.90033 0.37416 0.17131 0.0
C1002 C 0.90508 0.3723 0.10807 0.0
H1003 H 0.88277 0.36016 0.24898 0.0
H1004 H 0.90942 0.38624 0.19972 0.0
C1005 C 0.89282 0.35649 0.07289 0.0
C1006 C 0.91641 0.64463 0.35344 0.0
C1007 C 0.91709 0.63181 0.40771 0.0
H1008 H 0.89769 0.66765 0.29741 0.0
C1009 C 0.89771 0.63105 0.44567 0.0
H1010 H 0.931 0.64523 0.32285 0.0
C1011 C 0.87852 0.64427 0.43156 0.0
C1012 C 0.87834 0.65806 0.37868 0.0
H1013 H 0.89783 0.62119 0.48771 0.0
H1014 H 0.86424 0.64437 0.46319 0.0
C1015 C 0.8972 0.65739 0.33873 0.0
C1016 C 0.3775 0.34972 0.43441 0.0
C1017 C 0.38036 0.3325 0.39012 0.0
H1018 H 0.39316 0.37734 0.48353 0.0
C1019 C 0.40121 0.33102 0.35844 0.0
H1020 H 0.36161 0.35134 0.45947 0.0
C1021 C 0.41916 0.34549 0.3729 0.0
C1022 C 0.41666 0.36211 0.41862 0.0
H1023 H 0.40406 0.31808 0.32384 0.0
H1024 H 0.43519 0.34341 0.34872 0.0
C1025 C 0.39549 0.36459 0.44817 0.0
C1026 C 0.38864 0.6513 0.15101 0.0
C1027 C 0.39371 0.67456 0.1566 0.0
H1028 H 0.40121 0.6181 0.12739 0.0
C1029 C 0.4156 0.68218 0.14037 0.0
H1030 H 0.37189 0.64495 0.16292 0.0
C1031 C 0.43211 0.66704 0.11967 0.0
C1032 C 0.42734 0.64375 0.11486 0.0
H1033 H 0.42013 0.69997 0.14355 0.0
H1034 H 0.44879 0.67369 0.10811 0.0
C1035 C 0.40538 0.63598 0.13047 0.0
C1036 C 0.07908 0.65615 0.86636 0.0
C1037 C 0.08228 0.63948 0.91157 0.0
H1038 H 0.09363 0.68313 0.81427 0.0
C1039 C 0.10405 0.63658 0.93722 0.0
H1040 H 0.06258 0.65857 0.84505 0.0
C1041 C 0.12203 0.65099 0.91994 0.0
C1042 C 0.11855 0.66817 0.87595 0.0
H1043 H 0.10696 0.62377 0.97203 0.0
H1044 H 0.13845 0.64899 0.94192 0.0
C1045 C 0.09699 0.67017 0.84841 0.0
C1046 C 0.06716 0.32669 0.62097 0.0
C1047 C 0.07269 0.34983 0.61688 0.0
H1048 H 0.07819 0.29324 0.64289 0.0
C1049 C 0.09493 0.35682 0.6319 0.0
H1050 H 0.05022 0.32064 0.60986 0.0
C1051 C 0.11124 0.34086 0.65095 0.0
C1052 C 0.10545 0.31774 0.65567 0.0
H1053 H 0.09968 0.37457 0.62931 0.0
H1054 H 0.12825 0.34661 0.66231 0.0
C1055 C 0.08325 0.3109 0.64026 0.0
loop_
_geom_bond_atom_site_label_1
_geom_bond_atom_site_label_2
_geom_bond_distance
_geom_bond_site_symmetry_2
_ccdc_geom_bond_type
Mg0 O7 2.141 1_554 S
Mg0 O8 2.048 . S
Mg0 O9 2.048 . S
Mg0 O12 2.141 . S
C1 O2 1.313 . S
C1 O8 1.195 1_655 S
O2 C1 1.313 . S
C3 O4 1.245 . S
C3 O12 1.289 . S
O4 C3 1.245 . S
C5 O6 1.245 1_455 S
C5 O7 1.289 . S
O6 C5 1.245 1_655 S
O7 Mg0 2.141 1_556 S
O7 C5 1.289 . S
O8 Mg0 2.048 . S
O8 C1 1.195 1_455 S
O9 Mg0 2.048 . S
O9 C10 1.195 . S
C10 O9 1.195 . S
C10 O11 1.313 1_455 S
O11 C10 1.313 1_655 S
O12 Mg0 2.141 . S
O12 C3 1.289 . S
Mg13 O20 2.141 . S
Mg13 O21 2.048 . S
Mg13 O22 2.048 . S
Mg13 O25 2.141 . S
C14 O15 1.313 . S
C14 O21 1.195 . S
O15 C14 1.313 . S
C16 O17 1.245 . S
C16 O25 1.289 . S
O17 C16 1.245 . S
C18 O19 1.245 . S
C18 O20 1.289 . S
O19 C18 1.245 . S
O20 Mg13 2.141 . S
O20 C18 1.289 . S
O21 Mg13 2.048 . S
O21 C14 1.195 . S
O22 Mg13 2.048 . S
O22 C23 1.195 . S
C23 O22 1.195 . S
C23 O24 1.313 . S
O24 C23 1.313 . S
O25 Mg13 2.141 . S
O25 C16 1.289 . S
Mg26 O33 2.141 . S
Mg26 O34 2.048 . S
Mg26 O35 2.048 . S
Mg26 O38 2.141 . S
C27 O28 1.313 . S
C27 O34 1.195 . S
O28 C27 1.313 . S
C29 O30 1.245 . S
C29 O38 1.289 . S
O30 C29 1.245 . S
C31 O32 1.245 . S
C31 O33 1.289 . S
O32 C31 1.245 . S
O33 Mg26 2.141 . S
O33 C31 1.289 . S
O34 Mg26 2.048 . S
O34 C27 1.195 . S
O35 Mg26 2.048 . S
O35 C36 1.195 . S
C36 O35 1.195 . S
C36 O37 1.313 . S
O37 C36 1.313 . S
O38 Mg26 2.141 . S
O38 C29 1.289 . S
Mg39 O46 2.141 . S
Mg39 O47 2.048 . S
Mg39 O48 2.048 . S
Mg39 O51 2.141 . S
C40 O41 1.313 . S
C40 O47 1.195 . S
O41 C40 1.313 . S
C42 O43 1.245 . S
C42 O51 1.289 . S
O43 C42 1.245 . S
C44 O45 1.245 . S
C44 O46 1.289 . S
O45 C44 1.245 . S
O46 Mg39 2.141 . S
O46 C44 1.289 . S
O47 Mg39 2.048 . S
O47 C40 1.195 . S
O48 Mg39 2.048 . S
O48 C49 1.195 . S
C49 O48 1.195 . S
C49 O50 1.313 . S
O50 C49 1.313 . S
O51 Mg39 2.141 . S
O51 C42 1.289 . S
Mg52 O59 2.141 . S
Mg52 O60 2.048 . S
Mg52 O61 2.048 . S
Mg52 O64 2.141 . S
C53 O54 1.313 . S
C53 O60 1.195 1_655 S
O54 C53 1.313 . S
C55 O56 1.245 . S
C55 O64 1.289 . S
O56 C55 1.245 . S
C57 O58 1.245 1_455 S
C57 O59 1.289 . S
O58 C57 1.245 1_655 S
O59 Mg52 2.141 . S
O59 C57 1.289 . S
O60 Mg52 2.048 . S
O60 C53 1.195 1_455 S
O61 Mg52 2.048 . S
O61 C62 1.195 . S
C62 O61 1.195 . S
C62 O63 1.313 1_455 S
O63 C62 1.313 1_655 S
O64 Mg52 2.141 . S
O64 C55 1.289 . S
Mg65 O72 2.141 . S
Mg65 O73 2.048 . S
Mg65 O74 2.048 . S
Mg65 O77 2.141 . S
C66 O67 1.313 . S
C66 O73 1.195 . S
O67 C66 1.313 . S
C68 O69 1.245 . S
C68 O77 1.289 . S
O69 C68 1.245 . S
C70 O71 1.245 . S
C70 O72 1.289 . S
O71 C70 1.245 . S
O72 Mg65 2.141 . S
O72 C70 1.289 . S
O73 Mg65 2.048 . S
O73 C66 1.195 . S
O74 Mg65 2.048 . S
O74 C75 1.195 . S
C75 O74 1.195 . S
C75 O76 1.313 . S
O76 C75 1.313 . S
O77 Mg65 2.141 . S
O77 C68 1.289 . S
Mg78 O85 2.141 1_556 S
Mg78 O86 2.048 . S
Mg78 O87 2.048 . S
Mg78 O90 2.141 . S
C79 O80 1.313 . S
C79 O86 1.195 . S
O80 C79 1.313 . S
C81 O82 1.245 . S
C81 O90 1.289 . S
O82 C81 1.245 . S
C83 O84 1.245 . S
C83 O85 1.289 . S
O84 C83 1.245 . S
O85 Mg78 2.141 1_554 S
O85 C83 1.289 . S
O86 Mg78 2.048 . S
O86 C79 1.195 . S
O87 Mg78 2.048 . S
O87 C88 1.195 . S
C88 O87 1.195 . S
C88 O89 1.313 . S
O89 C88 1.313 . S
O90 Mg78 2.141 . S
O90 C81 1.289 . S
Mg91 O98 2.141 . S
Mg91 O99 2.048 . S
Mg91 O100 2.048 . S
Mg91 O103 2.141 . S
C92 O93 1.313 . S
C92 O99 1.195 . S
O93 C92 1.313 . S
C94 O95 1.245 . S
C94 O103 1.289 . S
O95 C94 1.245 . S
C96 O97 1.245 . S
C96 O98 1.289 . S
O97 C96 1.245 . S
O98 Mg91 2.141 . S
O98 C96 1.289 . S
O99 Mg91 2.048 . S
O99 C92 1.195 . S
O100 Mg91 2.048 . S
O100 C101 1.195 . S
C101 O100 1.195 . S
C101 O102 1.313 . S
O102 C101 1.313 . S
O103 Mg91 2.141 . S
O103 C94 1.289 . S
Mg104 O111 2.141 . S
Mg104 O112 2.048 . S
Mg104 O113 2.048 . S
Mg104 O116 2.141 1_556 S
C105 O106 1.313 1_655 S
C105 O112 1.195 . S
O106 C105 1.313 1_455 S
C107 O108 1.245 1_655 S
C107 O116 1.289 . S
O108 C107 1.245 1_455 S
C109 O110 1.245 . S
C109 O111 1.289 . S
O110 C109 1.245 . S
O111 Mg104 2.141 . S
O111 C109 1.289 . S
O112 Mg104 2.048 . S
O112 C105 1.195 . S
O113 Mg104 2.048 . S
O113 C114 1.195 1_655 S
C114 O113 1.195 1_455 S
C114 O115 1.313 . S
O115 C114 1.313 . S
O116 Mg104 2.141 1_554 S
O116 C107 1.289 . S
Mg117 O124 2.141 . S
Mg117 O125 2.048 . S
Mg117 O126 2.048 . S
Mg117 O129 2.141 . S
C118 O119 1.313 . S
C118 O125 1.195 . S
O119 C118 1.313 . S
C120 O121 1.245 . S
C120 O129 1.289 . S
O121 C120 1.245 . S
C122 O123 1.245 . S
C122 O124 1.289 . S
O123 C122 1.245 . S
O124 Mg117 2.141 . S
O124 C122 1.289 . S
O125 Mg117 2.048 . S
O125 C118 1.195 . S
O126 Mg117 2.048 . S
O126 C127 1.195 . S
C127 O126 1.195 . S
C127 O128 1.313 . S
O128 C127 1.313 . S
O129 Mg117 2.141 . S
O129 C120 1.289 . S
Mg130 O137 2.141 . S
Mg130 O138 2.048 . S
Mg130 O139 2.048 . S
Mg130 O142 2.141 . S
C131 O132 1.313 . S
C131 O138 1.195 . S
O132 C131 1.313 . S
C133 O134 1.245 . S
C133 O142 1.289 . S
O134 C133 1.245 . S
C135 O136 1.245 . S
C135 O137 1.289 . S
O136 C135 1.245 . S
O137 Mg130 2.141 . S
O137 C135 1.289 . S
O138 Mg130 2.048 . S
O138 C131 1.195 . S
O139 Mg130 2.048 . S
O139 C140 1.195 . S
C140 O139 1.195 . S
C140 O141 1.313 . S
O141 C140 1.313 . S
O142 Mg130 2.141 . S
O142 C133 1.289 . S
Mg143 O150 2.141 . S
Mg143 O151 2.048 . S
Mg143 O152 2.048 . S
Mg143 O155 2.141 . S
C144 O145 1.313 . S
C144 O151 1.195 . S
O145 C144 1.313 . S
C146 O147 1.245 . S
C146 O155 1.289 . S
O147 C146 1.245 . S
C148 O149 1.245 . S
C148 O150 1.289 . S
O149 C148 1.245 . S
O150 Mg143 2.141 . S
O150 C148 1.289 . S
O151 Mg143 2.048 . S
O151 C144 1.195 . S
O152 Mg143 2.048 . S
O152 C153 1.195 . S
C153 O152 1.195 . S
C153 O154 1.313 . S
O154 C153 1.313 . S
O155 Mg143 2.141 . S
O155 C146 1.289 . S
Mg156 O163 2.141 . S
Mg156 O164 2.048 . S
Mg156 O165 2.048 . S
Mg156 O168 2.141 . S
C157 O158 1.313 1_655 S
C157 O164 1.195 . S
O158 C157 1.313 1_455 S
C159 O160 1.245 1_655 S
C159 O168 1.289 . S
O160 C159 1.245 1_455 S
C161 O162 1.245 . S
C161 O163 1.289 . S
O162 C161 1.245 . S
O163 Mg156 2.141 . S
O163 C161 1.289 . S
O164 Mg156 2.048 . S
O164 C157 1.195 . S
O165 Mg156 2.048 . S
O165 C166 1.195 1_655 S
C166 O165 1.195 1_455 S
C166 O167 1.313 . S
O167 C166 1.313 . S
O168 Mg156 2.141 . S
O168 C159 1.289 . S
Mg169 O176 2.141 . S
Mg169 O177 2.048 . S
Mg169 O178 2.048 . S
Mg169 O181 2.141 . S
C170 O171 1.313 . S
C170 O177 1.195 . S
O171 C170 1.313 . S
C172 O173 1.245 . S
C172 O181 1.289 . S
O173 C172 1.245 . S
C174 O175 1.245 . S
C174 O176 1.289 . S
O175 C174 1.245 . S
O176 Mg169 2.141 . S
O176 C174 1.289 . S
O177 Mg169 2.048 . S
O177 C170 1.195 . S
O178 Mg169 2.048 . S
O178 C179 1.195 . S
C179 O178 1.195 . S
C179 O180 1.313 . S
O180 C179 1.313 . S
O181 Mg169 2.141 . S
O181 C172 1.289 . S
Mg182 O189 2.141 . S
Mg182 O190 2.048 . S
Mg182 O191 2.048 . S
Mg182 O194 2.141 1_554 S
C183 O184 1.313 . S
C183 O190 1.195 . S
O184 C183 1.313 . S
C185 O186 1.245 . S
C185 O194 1.289 . S
O186 C185 1.245 . S
C187 O188 1.245 . S
C187 O189 1.289 . S
O188 C187 1.245 . S
O189 Mg182 2.141 . S
O189 C187 1.289 . S
O190 Mg182 2.048 . S
O190 C183 1.195 . S
O191 Mg182 2.048 . S
O191 C192 1.195 . S
C192 O191 1.195 . S
C192 O193 1.313 . S
O193 C192 1.313 . S
O194 Mg182 2.141 1_556 S
O194 C185 1.289 . S
Mg195 O202 2.141 . S
Mg195 O203 2.048 . S
Mg195 O204 2.048 . S
Mg195 O207 2.141 . S
C196 O197 1.313 . S
C196 O203 1.195 . S
O197 C196 1.313 . S
C198 O199 1.245 . S
C198 O207 1.289 . S
O199 C198 1.245 . S
C200 O201 1.245 . S
C200 O202 1.289 . S
O201 C200 1.245 . S
O202 Mg195 2.141 . S
O202 C200 1.289 . S
O203 Mg195 2.048 . S
O203 C196 1.195 . S
O204 Mg195 2.048 . S
O204 C205 1.195 . S
C205 O204 1.195 . S
C205 O206 1.313 . S
O206 C205 1.313 . S
O207 Mg195 2.141 . S
O207 C198 1.289 . S
Mg208 O215 2.141 . S
Mg208 O216 2.048 . S
Mg208 O217 2.048 . S
Mg208 O220 2.141 . S
C209 O210 1.313 . S
C209 O216 1.195 . S
O210 C209 1.313 . S
C211 O212 1.245 . S
C211 O220 1.289 . S
O212 C211 1.245 . S
C213 O214 1.245 . S
C213 O215 1.289 . S
O214 C213 1.245 . S
O215 Mg208 2.141 . S
O215 C213 1.289 . S
O216 Mg208 2.048 . S
O216 C209 1.195 . S
O217 Mg208 2.048 . S
O217 C218 1.195 . S
C218 O217 1.195 . S
C218 O219 1.313 . S
O219 C218 1.313 . S
O220 Mg208 2.141 . S
O220 C211 1.289 . S
Mg221 O228 2.141 . S
Mg221 O229 2.048 . S
Mg221 O230 2.048 . S
Mg221 O233 2.141 . S
C222 O223 1.313 . S
C222 O229 1.195 . S
O223 C222 1.313 . S
C224 O225 1.245 . S
C224 O233 1.289 . S
O225 C224 1.245 . S
C226 O227 1.245 . S
C226 O228 1.289 . S
O227 C226 1.245 . S
O228 Mg221 2.141 . S
O228 C226 1.289 . S
O229 Mg221 2.048 . S
O229 C222 1.195 . S
O230 Mg221 2.048 . S
O230 C231 1.195 . S
C231 O230 1.195 . S
C231 O232 1.313 . S
O232 C231 1.313 . S
O233 Mg221 2.141 . S
O233 C224 1.289 . S
Mg234 O241 2.141 1_554 S
Mg234 O242 2.048 . S
Mg234 O243 2.048 . S
Mg234 O246 2.141 . S
C235 O236 1.313 . S
C235 O242 1.195 1_455 S
O236 C235 1.313 . S
C237 O238 1.245 . S
C237 O246 1.289 . S
O238 C237 1.245 . S
C239 O240 1.245 1_655 S
C239 O241 1.289 . S
O240 C239 1.245 1_455 S
O241 Mg234 2.141 1_556 S
O241 C239 1.289 . S
O242 Mg234 2.048 . S
O242 C235 1.195 1_655 S
O243 Mg234 2.048 . S
O243 C244 1.195 . S
C244 O243 1.195 . S
C244 O245 1.313 1_655 S
O245 C244 1.313 1_455 S
O246 Mg234 2.141 . S
O246 C237 1.289 . S
Mg247 O254 2.141 . S
Mg247 O255 2.048 . S
Mg247 O256 2.048 . S
Mg247 O259 2.141 . S
C248 O249 1.313 . S
C248 O255 1.195 . S
O249 C248 1.313 . S
C250 O251 1.245 . S
C250 O259 1.289 . S
O251 C250 1.245 . S
C252 O253 1.245 . S
C252 O254 1.289 . S
O253 C252 1.245 . S
O254 Mg247 2.141 . S
O254 C252 1.289 . S
O255 Mg247 2.048 . S
O255 C248 1.195 . S
O256 Mg247 2.048 . S
O256 C257 1.195 . S
C257 O256 1.195 . S
C257 O258 1.313 . S
O258 C257 1.313 . S
O259 Mg247 2.141 . S
O259 C250 1.289 . S
Mg260 O267 2.141 1_556 S
Mg260 O268 2.048 . S
Mg260 O269 2.048 . S
Mg260 O272 2.141 . S
C261 O262 1.313 . S
C261 O268 1.195 . S
O262 C261 1.313 . S
C263 O264 1.245 . S
C263 O272 1.289 . S
O264 C263 1.245 . S
C265 O266 1.245 . S
C265 O267 1.289 . S
O266 C265 1.245 . S
O267 Mg260 2.141 1_554 S
O267 C265 1.289 . S
O268 Mg260 2.048 . S
O268 C261 1.195 . S
O269 Mg260 2.048 . S
O269 C270 1.195 . S
C270 O269 1.195 . S
C270 O271 1.313 . S
O271 C270 1.313 . S
O272 Mg260 2.141 . S
O272 C263 1.289 . S
Mg273 O280 2.141 . S
Mg273 O281 2.048 . S
Mg273 O282 2.048 . S
Mg273 O285 2.141 . S
C274 O275 1.313 . S
C274 O281 1.195 . S
O275 C274 1.313 . S
C276 O277 1.245 . S
C276 O285 1.289 . S
O277 C276 1.245 . S
C278 O279 1.245 . S
C278 O280 1.289 . S
O279 C278 1.245 . S
O280 Mg273 2.141 . S
O280 C278 1.289 . S
O281 Mg273 2.048 . S
O281 C274 1.195 . S
O282 Mg273 2.048 . S
O282 C283 1.195 . S
C283 O282 1.195 . S
C283 O284 1.313 . S
O284 C283 1.313 . S
O285 Mg273 2.141 . S
O285 C276 1.289 . S
Mg286 O293 2.141 . S
Mg286 O294 2.048 . S
Mg286 O295 2.048 . S
Mg286 O298 2.141 . S
C287 O288 1.313 . S
C287 O294 1.195 1_455 S
O288 C287 1.313 . S
C289 O290 1.245 . S
C289 O298 1.289 . S
O290 C289 1.245 . S
C291 O292 1.245 1_655 S
C291 O293 1.289 . S
O292 C291 1.245 1_455 S
O293 Mg286 2.141 . S
O293 C291 1.289 . S
O294 Mg286 2.048 . S
O294 C287 1.195 1_655 S
O295 Mg286 2.048 . S
O295 C296 1.195 . S
C296 O295 1.195 . S
C296 O297 1.313 1_655 S
O297 C296 1.313 1_455 S
O298 Mg286 2.141 . S
O298 C289 1.289 . S
Mg299 O306 2.141 . S
Mg299 O307 2.048 . S
Mg299 O308 2.048 . S
Mg299 O311 2.141 . S
C300 O301 1.313 . S
C300 O307 1.195 . S
O301 C300 1.313 . S
C302 O303 1.245 . S
C302 O311 1.289 . S
O303 C302 1.245 . S
C304 O305 1.245 . S
C304 O306 1.289 . S
O305 C304 1.245 . S
O306 Mg299 2.141 . S
O306 C304 1.289 . S
O307 Mg299 2.048 . S
O307 C300 1.195 . S
O308 Mg299 2.048 . S
O308 C309 1.195 . S
C309 O308 1.195 . S
C309 O310 1.313 . S
O310 C309 1.313 . S
O311 Mg299 2.141 . S
O311 C302 1.289 . S
Mg312 O319 2.141 . S
Mg312 O320 2.048 . S
Mg312 O321 2.048 . S
Mg312 O324 2.141 . S
C313 O314 1.313 . S
C313 O320 1.195 . S
O314 C313 1.313 . S
C315 O316 1.245 . S
C315 O324 1.289 . S
O316 C315 1.245 . S
C317 O318 1.245 . S
C317 O319 1.289 . S
O318 C317 1.245 . S
O319 Mg312 2.141 . S
O319 C317 1.289 . S
O320 Mg312 2.048 . S
O320 C313 1.195 . S
O321 Mg312 2.048 . S
O321 C322 1.195 . S
C322 O321 1.195 . S
C322 O323 1.313 . S
O323 C322 1.313 . S
O324 Mg312 2.141 . S
O324 C315 1.289 . S
Mg325 O332 2.141 . S
Mg325 O333 2.048 . S
Mg325 O334 2.048 . S
Mg325 O337 2.141 . S
C326 O327 1.313 . S
C326 O333 1.195 . S
O327 C326 1.313 . S
C328 O329 1.245 . S
C328 O337 1.289 . S
O329 C328 1.245 . S
C330 O331 1.245 . S
C330 O332 1.289 . S
O331 C330 1.245 . S
O332 Mg325 2.141 . S
O332 C330 1.289 . S
O333 Mg325 2.048 . S
O333 C326 1.195 . S
O334 Mg325 2.048 . S
O334 C335 1.195 . S
C335 O334 1.195 . S
C335 O336 1.313 . S
O336 C335 1.313 . S
O337 Mg325 2.141 . S
O337 C328 1.289 . S
Mg338 O345 2.141 . S
Mg338 O346 2.048 . S
Mg338 O347 2.048 . S
Mg338 O350 2.141 1_556 S
C339 O340 1.313 1_455 S
C339 O346 1.195 . S
O340 C339 1.313 1_655 S
C341 O342 1.245 1_455 S
C341 O350 1.289 . S
O342 C341 1.245 1_655 S
C343 O344 1.245 . S
C343 O345 1.289 . S
O344 C343 1.245 . S
O345 Mg338 2.141 . S
O345 C343 1.289 . S
O346 Mg338 2.048 . S
O346 C339 1.195 . S
O347 Mg338 2.048 . S
O347 C348 1.195 1_455 S
C348 O347 1.195 1_655 S
C348 O349 1.313 . S
O349 C348 1.313 . S
O350 Mg338 2.141 1_554 S
O350 C341 1.289 . S
Mg351 O358 2.141 . S
Mg351 O359 2.048 . S
Mg351 O360 2.048 . S
Mg351 O363 2.141 . S
C352 O353 1.313 . S
C352 O359 1.195 . S
O353 C352 1.313 . S
C354 O355 1.245 . S
C354 O363 1.289 . S
O355 C354 1.245 . S
C356 O357 1.245 . S
C356 O358 1.289 . S
O357 C356 1.245 . S
O358 Mg351 2.141 . S
O358 C356 1.289 . S
O359 Mg351 2.048 . S
O359 C352 1.195 . S
O360 Mg351 2.048 . S
O360 C361 1.195 . S
C361 O360 1.195 . S
C361 O362 1.313 . S
O362 C361 1.313 . S
O363 Mg351 2.141 . S
O363 C354 1.289 . S
Mg364 O371 2.141 . S
Mg364 O372 2.048 . S
Mg364 O373 2.048 . S
Mg364 O376 2.141 1_554 S
C365 O366 1.313 . S
C365 O372 1.195 . S
O366 C365 1.313 . S
C367 O368 1.245 . S
C367 O376 1.289 . S
O368 C367 1.245 . S
C369 O370 1.245 . S
C369 O371 1.289 . S
O370 C369 1.245 . S
O371 Mg364 2.141 . S
O371 C369 1.289 . S
O372 Mg364 2.048 . S
O372 C365 1.195 . S
O373 Mg364 2.048 . S
O373 C374 1.195 . S
C374 O373 1.195 . S
C374 O375 1.313 . S
O375 C374 1.313 . S
O376 Mg364 2.141 1_556 S
O376 C367 1.289 . S
Mg377 O384 2.141 . S
Mg377 O385 2.048 . S
Mg377 O386 2.048 . S
Mg377 O389 2.141 . S
C378 O379 1.313 . S
C378 O385 1.195 . S
O379 C378 1.313 . S
C380 O381 1.245 . S
C380 O389 1.289 . S
O381 C380 1.245 . S
C382 O383 1.245 . S
C382 O384 1.289 . S
O383 C382 1.245 . S
O384 Mg377 2.141 . S
O384 C382 1.289 . S
O385 Mg377 2.048 . S
O385 C378 1.195 . S
O386 Mg377 2.048 . S
O386 C387 1.195 . S
C387 O386 1.195 . S
C387 O388 1.313 . S
O388 C387 1.313 . S
O389 Mg377 2.141 . S
O389 C380 1.289 . S
Mg390 O397 2.141 . S
Mg390 O398 2.048 . S
Mg390 O399 2.048 . S
Mg390 O402 2.141 . S
C391 O392 1.313 1_455 S
C391 O398 1.195 . S
O392 C391 1.313 1_655 S
C393 O394 1.245 1_455 S
C393 O402 1.289 . S
O394 C393 1.245 1_655 S
C395 O396 1.245 . S
C395 O397 1.289 . S
O396 C395 1.245 . S
O397 Mg390 2.141 . S
O397 C395 1.289 . S
O398 Mg390 2.048 . S
O398 C391 1.195 . S
O399 Mg390 2.048 . S
O399 C400 1.195 1_455 S
C400 O399 1.195 1_655 S
C400 O401 1.313 . S
O401 C400 1.313 . S
O402 Mg390 2.141 . S
O402 C393 1.289 . S
Mg403 O410 2.141 . S
Mg403 O411 2.048 . S
Mg403 O412 2.048 . S
Mg403 O415 2.141 . S
C404 O405 1.313 . S
C404 O411 1.195 . S
O405 C404 1.313 . S
C406 O407 1.245 . S
C406 O415 1.289 . S
O407 C406 1.245 . S
C408 O409 1.245 . S
C408 O410 1.289 . S
O409 C408 1.245 . S
O410 Mg403 2.141 . S
O410 C408 1.289 . S
O411 Mg403 2.048 . S
O411 C404 1.195 . S
O412 Mg403 2.048 . S
O412 C413 1.195 . S
C413 O412 1.195 . S
C413 O414 1.313 . S
O414 C413 1.313 . S
O415 Mg403 2.141 . S
O415 C406 1.289 . S
C416 C417 1.387 1_455 S
C416 H420 0.950 . S
C416 C425 1.390 . S
C417 C416 1.387 1_655 S
C417 C419 1.387 . S
H418 C425 0.950 . S
C419 C417 1.387 . S
C419 C421 1.390 . S
C419 H423 0.950 . S
H420 C416 0.950 . S
C421 C419 1.390 . S
C421 C422 1.387 1_655 S
C421 H424 0.950 . S
C422 C421 1.387 1_455 S
C422 C425 1.387 . S
H423 C419 0.950 . S
H424 C421 0.950 . S
C425 C416 1.390 . S
C425 H418 0.950 . S
C425 C422 1.387 . S
C426 C427 1.387 1_554 S
C426 H430 0.950 1_554 S
C426 C435 1.390 . S
C427 C426 1.387 1_556 S
C427 C429 1.387 1_556 S
H428 C435 0.950 . S
C429 C427 1.387 1_554 S
C429 C431 1.390 . S
C429 H433 0.950 . S
H430 C426 0.950 1_556 S
C431 C429 1.390 . S
C431 C432 1.387 . S
C431 H434 0.950 . S
C432 C431 1.387 . S
C432 C435 1.387 . S
H433 C429 0.950 . S
H434 C431 0.950 . S
C435 C426 1.390 . S
C435 H428 0.950 . S
C435 C432 1.387 . S
C436 C437 1.387 . S
C436 H440 0.950 . S
C436 C445 1.390 . S
C437 C436 1.387 . S
C437 C439 1.387 . S
H438 C445 0.950 . S
C439 C437 1.387 . S
C439 C441 1.390 . S
C439 H443 0.950 . S
H440 C436 0.950 . S
C441 C439 1.390 . S
C441 C442 1.387 . S
C441 H444 0.950 . S
C442 C441 1.387 . S
C442 C445 1.387 . S
H443 C439 0.950 . S
H444 C441 0.950 . S
C445 C436 1.390 . S
C445 H438 0.950 . S
C445 C442 1.387 . S
C446 C447 1.387 . S
C446 H450 0.950 . S
C446 C455 1.390 . S
C447 C446 1.387 . S
C447 C449 1.387 . S
H448 C455 0.950 . S
C449 C447 1.387 . S
C449 C451 1.390 . S
C449 H453 0.950 . S
H450 C446 0.950 . S
C451 C449 1.390 . S
C451 C452 1.387 . S
C451 H454 0.950 . S
C452 C451 1.387 . S
C452 C455 1.387 . S
H453 C449 0.950 . S
H454 C451 0.950 . S
C455 C446 1.390 . S
C455 H448 0.950 . S
C455 C452 1.387 . S
C456 C457 1.393 . S
C456 H460 0.955 . S
C456 C465 1.380 1_655 S
C457 C456 1.393 . S
C457 C459 1.387 . S
H458 C465 0.950 . S
C459 C457 1.387 . S
C459 C461 1.390 1_655 S
C459 H463 0.950 . S
H460 C456 0.955 . S
C461 C459 1.390 1_455 S
C461 C462 1.387 . S
C461 H464 0.950 . S
C462 C461 1.387 . S
C462 C465 1.387 . S
H463 C459 0.950 . S
H464 C461 0.950 . S
C465 C456 1.380 1_455 S
C465 H458 0.950 . S
C465 C462 1.387 . S
C466 C467 1.387 . S
C466 H470 0.950 . S
C466 C475 1.390 . S
C467 C466 1.387 . S
C467 C469 1.387 . S
H468 C475 0.950 . S
C469 C467 1.387 . S
C469 C471 1.390 . S
C469 H473 0.950 . S
H470 C466 0.950 . S
C471 C469 1.390 . S
C471 C472 1.387 1_556 S
C471 H474 0.950 1_556 S
C472 C471 1.387 1_554 S
C472 C475 1.387 1_554 S
H473 C469 0.950 . S
H474 C471 0.950 1_554 S
C475 C466 1.390 . S
C475 H468 0.950 . S
C475 C472 1.387 1_556 S
C476 C477 1.387 . S
C476 H480 0.950 . S
C476 C485 1.390 . S
C477 C476 1.387 . S
C477 C479 1.387 . S
H478 C485 0.950 . S
C479 C477 1.387 . S
C479 C481 1.390 . S
C479 H483 0.950 . S
H480 C476 0.950 . S
C481 C479 1.390 . S
C481 C482 1.387 . S
C481 H484 0.950 . S
C482 C481 1.387 . S
C482 C485 1.387 . S
H483 C479 0.950 . S
H484 C481 0.950 . S
C485 C476 1.390 . S
C485 H478 0.950 . S
C485 C482 1.387 . S
C486 C487 1.387 . S
C486 H490 0.950 . S
C486 C495 1.390 . S
C487 C486 1.387 . S
C487 C489 1.387 . S
H488 C495 0.950 . S
C489 C487 1.387 . S
C489 C491 1.390 . S
C489 H493 0.950 . S
H490 C486 0.950 . S
C491 C489 1.390 . S
C491 C492 1.387 . S
C491 H494 0.950 . S
C492 C491 1.387 . S
C492 C495 1.387 . S
H493 C489 0.950 . S
H494 C491 0.950 . S
C495 C486 1.390 . S
C495 H488 0.950 . S
C495 C492 1.387 . S
C496 C497 1.387 . S
C496 H500 0.950 . S
C496 C505 1.390 1_455 S
C497 C496 1.387 . S
C497 C499 1.379 1_455 S
H498 C505 0.950 . S
C499 C497 1.379 1_655 S
C499 C501 1.403 . S
C499 H503 0.945 1_655 S
H500 C496 0.950 . S
C501 C499 1.403 . S
C501 C502 1.387 . S
C501 H504 0.950 . S
C502 C501 1.387 . S
C502 C505 1.387 . S
H503 C499 0.945 1_455 S
H504 C501 0.950 . S
C505 C496 1.390 1_655 S
C505 H498 0.950 . S
C505 C502 1.387 . S
C506 C507 1.387 1_556 S
C506 H510 0.950 . S
C506 C515 1.390 . S
C507 C506 1.387 1_554 S
C507 C509 1.387 1_554 S
H508 C515 0.950 . S
C509 C507 1.387 1_556 S
C509 C511 1.390 . S
C509 H513 0.950 . S
H510 C506 0.950 . S
C511 C509 1.390 . S
C511 C512 1.387 . S
C511 H514 0.950 . S
C512 C511 1.387 . S
C512 C515 1.387 . S
H513 C509 0.950 . S
H514 C511 0.950 . S
C515 C506 1.390 . S
C515 H508 0.950 . S
C515 C512 1.387 . S
C516 C517 1.387 . S
C516 H520 0.950 . S
C516 C525 1.390 . S
C517 C516 1.387 . S
C517 C519 1.387 . S
H518 C525 0.950 . S
C519 C517 1.387 . S
C519 C521 1.390 . S
C519 H523 0.950 . S
H520 C516 0.950 . S
C521 C519 1.390 . S
C521 C522 1.387 . S
C521 H524 0.950 . S
C522 C521 1.387 . S
C522 C525 1.387 . S
H523 C519 0.950 . S
H524 C521 0.950 . S
C525 C516 1.390 . S
C525 H518 0.950 . S
C525 C522 1.387 . S
C526 C527 1.387 . S
C526 H530 0.950 . S
C526 C535 1.390 . S
C527 C526 1.387 . S
C527 C529 1.387 . S
H528 C535 0.950 . S
C529 C527 1.387 . S
C529 C531 1.390 . S
C529 H533 0.950 . S
H530 C526 0.950 . S
C531 C529 1.390 . S
C531 C532 1.387 . S
C531 H534 0.950 . S
C532 C531 1.387 . S
C532 C535 1.387 . S
H533 C529 0.950 . S
H534 C531 0.950 . S
C535 C526 1.390 . S
C535 H528 0.950 . S
C535 C532 1.387 . S
C536 C537 1.387 . S
C536 H540 0.950 . S
C536 C545 1.390 . S
C537 C536 1.387 . S
C537 C539 1.387 . S
H538 C545 0.953 . S
C539 C537 1.387 . S
C539 C541 1.390 1_655 S
C539 H543 0.950 . S
H540 C536 0.950 . S
C541 C539 1.390 1_455 S
C541 C542 1.387 . S
C541 H544 0.950 . S
C542 C541 1.387 . S
C542 C545 1.387 1_455 S
H543 C539 0.950 . S
H544 C541 0.950 . S
C545 C536 1.390 . S
C545 H538 0.953 . S
C545 C542 1.387 1_655 S
C546 C547 1.387 . S
C546 H550 0.950 . S
C546 C555 1.390 . S
C547 C546 1.387 . S
C547 C549 1.387 . S
H548 C555 0.950 1_556 S
C549 C547 1.387 . S
C549 C551 1.390 . S
C549 H553 0.950 . S
H550 C546 0.950 . S
C551 C549 1.390 . S
C551 C552 1.387 1_554 S
C551 H554 0.950 . S
C552 C551 1.387 1_556 S
C552 C555 1.387 1_556 S
H553 C549 0.950 . S
H554 C551 0.950 . S
C555 C546 1.390 . S
C555 H548 0.950 1_554 S
C555 C552 1.387 1_554 S
C556 C557 1.387 . S
C556 H560 0.950 . S
C556 C565 1.390 . S
C557 C556 1.387 . S
C557 C559 1.387 . S
H558 C565 0.950 . S
C559 C557 1.387 . S
C559 C561 1.390 . S
C559 H563 0.950 . S
H560 C556 0.950 . S
C561 C559 1.390 . S
C561 C562 1.387 . S
C561 H564 0.950 . S
C562 C561 1.387 . S
C562 C565 1.387 . S
H563 C559 0.950 . S
H564 C561 0.950 . S
C565 C556 1.390 . S
C565 H558 0.950 . S
C565 C562 1.387 . S
C566 C567 1.387 . S
C566 H570 0.950 . S
C566 C575 1.390 . S
C567 C566 1.387 . S
C567 C569 1.387 . S
H568 C575 0.950 . S
C569 C567 1.387 . S
C569 C571 1.390 . S
C569 H573 0.950 . S
H570 C566 0.950 . S
C571 C569 1.390 . S
C571 C572 1.387 . S
C571 H574 0.950 . S
C572 C571 1.387 . S
C572 C575 1.387 . S
H573 C569 0.950 . S
H574 C571 0.950 . S
C575 C566 1.390 . S
C575 H568 0.950 . S
C575 C572 1.387 . S
C576 C577 1.387 . S
C576 H580 0.950 . S
C576 C585 1.390 . S
C577 C576 1.387 . S
C577 C579 1.387 . S
H578 C585 0.950 . S
C579 C577 1.387 . S
C579 C581 1.390 . S
C579 H583 0.950 . S
H580 C576 0.950 . S
C581 C579 1.390 . S
C581 C582 1.387 . S
C581 H584 0.950 . S
C582 C581 1.387 . S
C582 C585 1.387 . S
H583 C579 0.950 . S
H584 C581 0.950 . S
C585 C576 1.390 . S
C585 H578 0.950 . S
C585 C582 1.387 . S
C586 C587 1.387 . S
C586 H590 0.950 . S
C586 C595 1.390 . S
C587 C586 1.387 . S
C587 C589 1.387 . S
H588 C595 0.950 . S
C589 C587 1.387 . S
C589 C591 1.390 . S
C589 H593 0.950 . S
H590 C586 0.950 . S
C591 C589 1.390 . S
C591 C592 1.387 . S
C591 H594 0.950 . S
C592 C591 1.387 . S
C592 C595 1.387 . S
H593 C589 0.950 . S
H594 C591 0.950 . S
C595 C586 1.390 . S
C595 H588 0.950 . S
C595 C592 1.387 . S
C596 C597 1.387 . S
C596 H600 0.950 . S
C596 C605 1.390 1_455 S
C597 C596 1.387 . S
C597 C599 1.388 1_455 S
H598 C605 0.950 . S
C599 C597 1.388 1_655 S
C599 C601 1.389 . S
C599 H603 0.950 1_655 S
H600 C596 0.950 . S
C601 C599 1.389 . S
C601 C602 1.387 . S
C601 H604 0.950 . S
C602 C601 1.387 . S
C602 C605 1.387 . S
H603 C599 0.950 1_455 S
H604 C601 0.950 . S
C605 C596 1.390 1_655 S
C605 H598 0.950 . S
C605 C602 1.387 . S
C606 C607 1.387 . S
C606 H610 0.950 . S
C606 C615 1.390 . S
C607 C606 1.387 . S
C607 C609 1.387 . S
H608 C615 0.950 . S
C609 C607 1.387 . S
C609 C611 1.390 . S
C609 H613 0.950 . S
H610 C606 0.950 . S
C611 C609 1.390 . S
C611 C612 1.387 1_554 S
C611 H614 0.950 1_554 S
C612 C611 1.387 1_556 S
C612 C615 1.387 1_556 S
H613 C609 0.950 . S
H614 C611 0.950 1_556 S
C615 C606 1.390 . S
C615 H608 0.950 . S
C615 C612 1.387 1_554 S
C616 C617 1.387 . S
C616 H620 0.950 . S
C616 C625 1.390 . S
C617 C616 1.387 . S
C617 C619 1.387 . S
H618 C625 0.950 . S
C619 C617 1.387 . S
C619 C621 1.390 . S
C619 H623 0.950 . S
H620 C616 0.950 . S
C621 C619 1.390 . S
C621 C622 1.387 . S
C621 H624 0.950 . S
C622 C621 1.387 . S
C622 C625 1.387 . S
H623 C619 0.950 . S
H624 C621 0.950 . S
C625 C616 1.390 . S
C625 H618 0.950 . S
C625 C622 1.387 . S
C626 C627 1.387 . S
C626 H630 0.950 . S
C626 C635 1.390 . S
C627 C626 1.387 . S
C627 C629 1.387 . S
H628 C635 0.950 . S
C629 C627 1.387 . S
C629 C631 1.390 . S
C629 H633 0.950 . S
H630 C626 0.950 . S
C631 C629 1.390 . S
C631 C632 1.387 . S
C631 H634 0.950 . S
C632 C631 1.387 . S
C632 C635 1.387 . S
H633 C629 0.950 . S
H634 C631 0.950 . S
C635 C626 1.390 . S
C635 H628 0.950 . S
C635 C632 1.387 . S
C636 C637 1.387 . S
C636 H640 0.950 . S
C636 C645 1.390 1_455 S
C637 C636 1.387 . S
C637 C639 1.386 . S
H638 C645 0.950 . S
C639 C637 1.386 . S
C639 C641 1.392 1_455 S
C639 H643 0.949 . S
H640 C636 0.950 . S
C641 C639 1.392 1_655 S
C641 C642 1.387 . S
C641 H644 0.950 . S
C642 C641 1.387 . S
C642 C645 1.387 . S
H643 C639 0.949 . S
H644 C641 0.950 . S
C645 C636 1.390 1_655 S
C645 H638 0.950 . S
C645 C642 1.387 . S
C646 C647 1.387 1_556 S
C646 H650 0.950 1_556 S
C646 C655 1.390 . S
C647 C646 1.387 1_554 S
C647 C649 1.387 1_554 S
H648 C655 0.950 . S
C649 C647 1.387 1_556 S
C649 C651 1.390 . S
C649 H653 0.950 . S
H650 C646 0.950 1_554 S
C651 C649 1.390 . S
C651 C652 1.387 . S
C651 H654 0.950 . S
C652 C651 1.387 . S
C652 C655 1.387 . S
H653 C649 0.950 . S
H654 C651 0.950 . S
C655 C646 1.390 . S
C655 H648 0.950 . S
C655 C652 1.387 . S
C656 C657 1.387 . S
C656 H660 0.950 . S
C656 C665 1.390 . S
C657 C656 1.387 . S
C657 C659 1.387 . S
H658 C665 0.950 . S
C659 C657 1.387 . S
C659 C661 1.390 . S
C659 H663 0.950 . S
H660 C656 0.950 . S
C661 C659 1.390 . S
C661 C662 1.387 . S
C661 H664 0.950 . S
C662 C661 1.387 . S
C662 C665 1.387 . S
H663 C659 0.950 . S
H664 C661 0.950 . S
C665 C656 1.390 . S
C665 H658 0.950 . S
C665 C662 1.387 . S
C666 C667 1.387 . S
C666 H670 0.950 . S
C666 C675 1.390 . S
C667 C666 1.387 . S
C667 C669 1.387 . S
H668 C675 0.950 . S
C669 C667 1.387 . S
C669 C671 1.390 . S
C669 H673 0.950 . S
H670 C666 0.950 . S
C671 C669 1.390 . S
C671 C672 1.387 . S
C671 H674 0.950 . S
C672 C671 1.387 . S
C672 C675 1.387 . S
H673 C669 0.950 . S
H674 C671 0.950 . S
C675 C666 1.390 . S
C675 H668 0.950 . S
C675 C672 1.387 . S
C676 C677 1.387 . S
C676 H680 0.950 . S
C676 C685 1.390 1_455 S
C677 C676 1.387 . S
C677 C679 1.387 . S
H678 C685 0.950 . S
C679 C677 1.387 . S
C679 C681 1.391 . S
C679 H683 0.950 . S
H680 C676 0.950 . S
C681 C679 1.391 . S
C681 C682 1.387 1_455 S
C681 H684 0.949 1_455 S
C682 C681 1.387 1_655 S
C682 C685 1.387 . S
H683 C679 0.950 . S
H684 C681 0.949 1_655 S
C685 C676 1.390 1_655 S
C685 H678 0.950 . S
C685 C682 1.387 . S
C686 C687 1.387 . S
C686 H690 0.950 . S
C686 C695 1.390 . S
C687 C686 1.387 . S
C687 C689 1.387 . S
H688 C695 0.950 . S
C689 C687 1.387 . S
C689 C691 1.390 . S
C689 H693 0.950 . S
H690 C686 0.950 . S
C691 C689 1.390 . S
C691 C692 1.387 1_556 S
C691 H694 0.950 1_556 S
C692 C691 1.387 1_554 S
C692 C695 1.387 1_554 S
H693 C689 0.950 . S
H694 C691 0.950 1_554 S
C695 C686 1.390 . S
C695 H688 0.950 . S
C695 C692 1.387 1_556 S
C696 C697 1.387 . S
C696 H700 0.950 . S
C696 C705 1.390 . S
C697 C696 1.387 . S
C697 C699 1.387 . S
H698 C705 0.950 . S
C699 C697 1.387 . S
C699 C701 1.390 . S
C699 H703 0.950 . S
H700 C696 0.950 . S
C701 C699 1.390 . S
C701 C702 1.387 . S
C701 H704 0.950 . S
C702 C701 1.387 . S
C702 C705 1.387 . S
H703 C699 0.950 . S
H704 C701 0.950 . S
C705 C696 1.390 . S
C705 H698 0.950 . S
C705 C702 1.387 . S
C706 C707 1.387 . S
C706 H710 0.950 . S
C706 C715 1.390 . S
C707 C706 1.387 . S
C707 C709 1.387 . S
H708 C715 0.950 . S
C709 C707 1.387 . S
C709 C711 1.390 . S
C709 H713 0.950 . S
H710 C706 0.950 . S
C711 C709 1.390 . S
C711 C712 1.387 . S
C711 H714 0.950 . S
C712 C711 1.387 . S
C712 C715 1.387 . S
H713 C709 0.950 . S
H714 C711 0.950 . S
C715 C706 1.390 . S
C715 H708 0.950 . S
C715 C712 1.387 . S
C716 C717 1.387 1_455 S
C716 H720 0.950 . S
C716 C725 1.390 . S
C717 C716 1.387 1_655 S
C717 C719 1.387 . S
H718 C725 0.950 . S
C719 C717 1.387 . S
C719 C721 1.390 1_655 S
C719 H723 0.950 . S
H720 C716 0.950 . S
C721 C719 1.390 1_455 S
C721 C722 1.387 . S
C721 H724 0.950 . S
C722 C721 1.387 . S
C722 C725 1.387 . S
H723 C719 0.950 . S
H724 C721 0.950 . S
C725 C716 1.390 . S
C725 H718 0.950 . S
C725 C722 1.387 . S
C726 C727 1.387 . S
C726 H730 0.950 . S
C726 C735 1.390 . S
C727 C726 1.387 . S
C727 C729 1.387 . S
H728 C735 0.950 . S
C729 C727 1.387 . S
C729 C731 1.390 . S
C729 H733 0.950 . S
H730 C726 0.950 . S
C731 C729 1.390 . S
C731 C732 1.387 1_554 S
C731 H734 0.950 1_554 S
C732 C731 1.387 1_556 S
C732 C735 1.387 1_556 S
H733 C729 0.950 . S
H734 C731 0.950 1_556 S
C735 C726 1.390 . S
C735 H728 0.950 . S
C735 C732 1.387 1_554 S
C736 C737 1.387 1_556 S
C736 H740 0.950 . S
C736 C745 1.390 1_545 S
C737 C736 1.387 1_554 S
C737 C739 1.387 1_655 S
H738 C745 0.950 . S
C739 C737 1.387 1_455 S
C739 C741 1.390 1_545 S
C739 H743 0.950 . S
H740 C736 0.950 . S
C741 C739 1.390 1_565 S
C741 C742 1.387 1_554 S
C741 H744 0.950 . S
C742 C741 1.387 1_556 S
C742 C745 1.387 1_455 S
H743 C739 0.950 . S
H744 C741 0.950 . S
C745 C736 1.390 1_565 S
C745 H738 0.950 . S
C745 C742 1.387 1_655 S
C746 C747 1.387 . S
C746 H750 0.950 . S
C746 C755 1.390 . S
C747 C746 1.387 . S
C747 C749 1.387 . S
H748 C755 0.950 . S
C749 C747 1.387 . S
C749 C751 1.390 . S
C749 H753 0.950 . S
H750 C746 0.950 . S
C751 C749 1.390 . S
C751 C752 1.387 . S
C751 H754 0.950 . S
C752 C751 1.387 . S
C752 C755 1.387 . S
H753 C749 0.950 . S
H754 C751 0.950 . S
C755 C746 1.390 . S
C755 H748 0.950 . S
C755 C752 1.387 . S
C756 C757 1.387 . S
C756 H760 0.950 . S
C756 C765 1.390 1_545 S
C757 C756 1.387 . S
C757 C759 1.387 . S
H758 C765 0.950 . S
C759 C757 1.387 . S
C759 C761 1.390 1_545 S
C759 H763 0.950 . S
H760 C756 0.950 . S
C761 C759 1.390 1_565 S
C761 C762 1.387 . S
C761 H764 0.950 . S
C762 C761 1.387 . S
C762 C765 1.387 . S
H763 C759 0.950 . S
H764 C761 0.950 . S
C765 C756 1.390 1_565 S
C765 H758 0.950 . S
C765 C762 1.387 . S
C766 C767 1.387 . S
C766 H770 0.950 . S
C766 C775 1.390 . S
C767 C766 1.387 . S
C767 C769 1.387 . S
H768 C775 0.950 . S
C769 C767 1.387 . S
C769 C771 1.390 . S
C769 H773 0.950 . S
H770 C766 0.950 . S
C771 C769 1.390 . S
C771 C772 1.387 . S
C771 H774 0.950 . S
C772 C771 1.387 . S
C772 C775 1.387 . S
H773 C769 0.950 . S
H774 C771 0.950 . S
C775 C766 1.390 . S
C775 H768 0.950 . S
C775 C772 1.387 . S
C776 C777 1.387 1_455 S
C776 H780 0.950 . S
C776 C785 1.390 1_565 S
C777 C776 1.387 1_655 S
C777 C779 1.387 . S
H778 C785 0.950 . S
C779 C777 1.387 . S
C779 C781 1.390 1_565 S
C779 H783 0.950 . S
H780 C776 0.950 . S
C781 C779 1.390 1_545 S
C781 C782 1.387 1_655 S
C781 H784 0.950 . S
C782 C781 1.387 1_455 S
C782 C785 1.387 . S
H783 C779 0.950 . S
H784 C781 0.950 . S
C785 C776 1.390 1_545 S
C785 H778 0.950 . S
C785 C782 1.387 . S
C786 C787 1.387 . S
C786 H790 0.950 . S
C786 C795 1.390 . S
C787 C786 1.387 . S
C787 C789 1.387 . S
H788 C795 0.950 . S
C789 C787 1.387 . S
C789 C791 1.390 . S
C789 H793 0.950 . S
H790 C786 0.950 . S
C791 C789 1.390 . S
C791 C792 1.387 . S
C791 H794 0.950 . S
C792 C791 1.387 . S
C792 C795 1.387 . S
H793 C789 0.950 . S
H794 C791 0.950 . S
C795 C786 1.390 . S
C795 H788 0.950 . S
C795 C792 1.387 . S
C796 C797 1.387 . S
C796 H800 0.950 . S
C796 C805 1.390 1_565 S
C797 C796 1.387 . S
C797 C799 1.387 1_554 S
H798 C805 0.950 . S
C799 C797 1.387 1_556 S
C799 C801 1.390 1_565 S
C799 H803 0.950 . S
H800 C796 0.950 . S
C801 C799 1.390 1_545 S
C801 C802 1.387 . S
C801 H804 0.950 . S
C802 C801 1.387 . S
C802 C805 1.387 1_556 S
H803 C799 0.950 . S
H804 C801 0.950 . S
C805 C796 1.390 1_545 S
C805 H798 0.950 . S
C805 C802 1.387 1_554 S
C806 C807 1.387 . S
C806 H810 0.950 . S
C806 C815 1.390 . S
C807 C806 1.387 . S
C807 C809 1.387 . S
H808 C815 0.950 . S
C809 C807 1.387 . S
C809 C811 1.390 . S
C809 H813 0.950 . S
H810 C806 0.950 . S
C811 C809 1.390 . S
C811 C812 1.387 . S
C811 H814 0.950 . S
C812 C811 1.387 . S
C812 C815 1.387 . S
H813 C809 0.950 . S
H814 C811 0.950 . S
C815 C806 1.390 . S
C815 H808 0.950 . S
C815 C812 1.387 . S
C816 C817 1.387 . S
C816 H820 0.950 . S
C816 C825 1.390 . S
C817 C816 1.387 . S
C817 C819 1.387 . S
H818 C825 0.950 . S
C819 C817 1.387 . S
C819 C821 1.390 . S
C819 H823 0.950 . S
H820 C816 0.950 . S
C821 C819 1.390 . S
C821 C822 1.387 . S
C821 H824 0.950 . S
C822 C821 1.387 . S
C822 C825 1.387 . S
H823 C819 0.950 . S
H824 C821 0.950 . S
C825 C816 1.390 . S
C825 H818 0.950 . S
C825 C822 1.387 . S
C826 C827 1.387 . S
C826 H830 0.950 . S
C826 C835 1.390 . S
C827 C826 1.387 . S
C827 C829 1.387 . S
H828 C835 0.950 . S
C829 C827 1.387 . S
C829 C831 1.390 . S
C829 H833 0.950 . S
H830 C826 0.950 . S
C831 C829 1.390 . S
C831 C832 1.387 . S
C831 H834 0.950 . S
C832 C831 1.387 . S
C832 C835 1.387 . S
H833 C829 0.950 . S
H834 C831 0.950 . S
C835 C826 1.390 . S
C835 H828 0.950 . S
C835 C832 1.387 . S
C836 C837 1.387 . S
C836 H840 0.950 . S
C836 C845 1.390 . S
C837 C836 1.387 . S
C837 C839 1.387 . S
H838 C845 0.950 . S
C839 C837 1.387 . S
C839 C841 1.390 . S
C839 H843 0.950 . S
H840 C836 0.950 . S
C841 C839 1.390 . S
C841 C842 1.387 . S
C841 H844 0.950 . S
C842 C841 1.387 . S
C842 C845 1.387 . S
H843 C839 0.950 . S
H844 C841 0.950 . S
C845 C836 1.390 . S
C845 H838 0.950 . S
C845 C842 1.387 . S
C846 C847 1.387 . S
C846 H850 0.950 . S
C846 C855 1.390 . S
C847 C846 1.387 . S
C847 C849 1.387 . S
H848 C855 0.950 . S
C849 C847 1.387 . S
C849 C851 1.390 . S
C849 H853 0.950 . S
H850 C846 0.950 . S
C851 C849 1.390 . S
C851 C852 1.387 . S
C851 H854 0.950 . S
C852 C851 1.387 . S
C852 C855 1.387 . S
H853 C849 0.950 . S
H854 C851 0.950 . S
C855 C846 1.390 . S
C855 H848 0.950 . S
C855 C852 1.387 . S
C856 C857 1.387 . S
C856 H860 0.950 . S
C856 C865 1.390 . S
C857 C856 1.387 . S
C857 C859 1.387 . S
H858 C865 0.950 . S
C859 C857 1.387 . S
C859 C861 1.390 . S
C859 H863 0.950 . S
H860 C856 0.950 . S
C861 C859 1.390 . S
C861 C862 1.387 . S
C861 H864 0.950 . S
C862 C861 1.387 . S
C862 C865 1.387 . S
H863 C859 0.950 . S
H864 C861 0.950 . S
C865 C856 1.390 . S
C865 H858 0.950 . S
C865 C862 1.387 . S
C866 C867 1.401 . S
C866 H870 0.953 . S
C866 C875 1.376 1_455 S
C867 C866 1.401 . S
C867 C869 1.387 1_554 S
H868 C875 0.950 . S
C869 C867 1.387 1_556 S
C869 C871 1.376 1_455 S
C869 H873 0.950 . S
H870 C866 0.953 . S
C871 C869 1.376 1_655 S
C871 C872 1.401 . S
C871 H874 0.953 . S
C872 C871 1.401 . S
C872 C875 1.387 1_556 S
H873 C869 0.950 . S
H874 C871 0.953 . S
C875 C866 1.376 1_655 S
C875 H868 0.950 . S
C875 C872 1.387 1_554 S
C876 C877 1.387 . S
C876 H880 0.950 . S
C876 C885 1.390 . S
C877 C876 1.387 . S
C877 C879 1.387 1_556 S
H878 C885 0.950 . S
C879 C877 1.387 1_554 S
C879 C881 1.390 . S
C879 H883 0.950 . S
H880 C876 0.950 . S
C881 C879 1.390 . S
C881 C882 1.387 . S
C881 H884 0.950 . S
C882 C881 1.387 . S
C882 C885 1.387 1_554 S
H883 C879 0.950 . S
H884 C881 0.950 . S
C885 C876 1.390 . S
C885 H878 0.950 . S
C885 C882 1.387 1_556 S
C886 C887 1.387 1_455 S
C886 H890 0.950 . S
C886 C895 1.390 . S
C887 C886 1.387 1_655 S
C887 C889 1.387 . S
H888 C895 0.950 . S
C889 C887 1.387 . S
C889 C891 1.390 . S
C889 H893 0.950 . S
H890 C886 0.950 . S
C891 C889 1.390 . S
C891 C892 1.387 1_655 S
C891 H894 0.950 . S
C892 C891 1.387 1_455 S
C892 C895 1.387 . S
H893 C889 0.950 . S
H894 C891 0.950 . S
C895 C886 1.390 . S
C895 H888 0.950 . S
C895 C892 1.387 . S
C896 C897 1.387 . S
C896 H900 0.950 . S
C896 C905 1.390 . S
C897 C896 1.387 . S
C897 C899 1.387 . S
H898 C905 0.950 . S
C899 C897 1.387 . S
C899 C901 1.390 . S
C899 H903 0.950 . S
H900 C896 0.950 . S
C901 C899 1.390 . S
C901 C902 1.387 . S
C901 H904 0.950 . S
C902 C901 1.387 . S
C902 C905 1.387 . S
H903 C899 0.950 . S
H904 C901 0.950 . S
C905 C896 1.390 . S
C905 H898 0.950 . S
C905 C902 1.387 . S
C906 C907 1.387 . S
C906 H910 0.950 . S
C906 C915 1.390 . S
C907 C906 1.387 . S
C907 C909 1.387 . S
H908 C915 0.950 . S
C909 C907 1.387 . S
C909 C911 1.390 . S
C909 H913 0.950 . S
H910 C906 0.950 . S
C911 C909 1.390 . S
C911 C912 1.387 . S
C911 H914 0.950 . S
C912 C911 1.387 . S
C912 C915 1.387 . S
H913 C909 0.950 . S
H914 C911 0.950 . S
C915 C906 1.390 . S
C915 H908 0.950 . S
C915 C912 1.387 . S
C916 C917 1.387 . S
C916 H920 0.950 . S
C916 C925 1.390 . S
C917 C916 1.387 . S
C917 C919 1.387 . S
H918 C925 0.950 . S
C919 C917 1.387 . S
C919 C921 1.390 . S
C919 H923 0.950 . S
H920 C916 0.950 . S
C921 C919 1.390 . S
C921 C922 1.387 . S
C921 H924 0.950 . S
C922 C921 1.387 . S
C922 C925 1.387 . S
H923 C919 0.950 . S
H924 C921 0.950 . S
C925 C916 1.390 . S
C925 H918 0.950 . S
C925 C922 1.387 . S
C926 C927 1.387 . S
C926 H930 0.950 . S
C926 C935 1.390 . S
C927 C926 1.387 . S
C927 C929 1.387 . S
H928 C935 0.950 . S
C929 C927 1.387 . S
C929 C931 1.390 . S
C929 H933 0.950 . S
H930 C926 0.950 . S
C931 C929 1.390 . S
C931 C932 1.387 . S
C931 H934 0.950 . S
C932 C931 1.387 . S
C932 C935 1.387 . S
H933 C929 0.950 . S
H934 C931 0.950 . S
C935 C926 1.390 . S
C935 H928 0.950 . S
C935 C932 1.387 . S
C936 C937 1.387 . S
C936 H940 0.950 . S
C936 C945 1.390 . S
C937 C936 1.387 . S
C937 C939 1.387 . S
H938 C945 0.950 . S
C939 C937 1.387 . S
C939 C941 1.390 . S
C939 H943 0.950 . S
H940 C936 0.950 . S
C941 C939 1.390 . S
C941 C942 1.387 . S
C941 H944 0.950 . S
C942 C941 1.387 . S
C942 C945 1.387 . S
H943 C939 0.950 . S
H944 C941 0.950 . S
C945 C936 1.390 . S
C945 H938 0.950 . S
C945 C942 1.387 . S
C946 C947 1.387 . S
C946 H950 0.950 . S
C946 C955 1.390 . S
C947 C946 1.387 . S
C947 C949 1.387 . S
H948 C955 0.950 . S
C949 C947 1.387 . S
C949 C951 1.390 . S
C949 H953 0.950 . S
H950 C946 0.950 . S
C951 C949 1.390 . S
C951 C952 1.387 . S
C951 H954 0.950 . S
C952 C951 1.387 . S
C952 C955 1.387 . S
H953 C949 0.950 . S
H954 C951 0.950 . S
C955 C946 1.390 . S
C955 H948 0.950 . S
C955 C952 1.387 . S
C956 C957 1.387 . S
C956 H960 0.950 . S
C956 C965 1.390 . S
C957 C956 1.387 . S
C957 C959 1.387 . S
H958 C965 0.950 . S
C959 C957 1.387 . S
C959 C961 1.390 . S
C959 H963 0.950 . S
H960 C956 0.950 . S
C961 C959 1.390 . S
C961 C962 1.387 . S
C961 H964 0.950 . S
C962 C961 1.387 . S
C962 C965 1.387 . S
H963 C959 0.950 . S
H964 C961 0.950 . S
C965 C956 1.390 . S
C965 H958 0.950 . S
C965 C962 1.387 . S
C966 C967 1.387 . S
C966 H970 0.950 . S
C966 C975 1.390 . S
C967 C966 1.387 . S
C967 C969 1.387 . S
H968 C975 0.950 . S
C969 C967 1.387 . S
C969 C971 1.390 . S
C969 H973 0.950 . S
H970 C966 0.950 . S
C971 C969 1.390 . S
C971 C972 1.387 . S
C971 H974 0.950 . S
C972 C971 1.387 . S
C972 C975 1.387 . S
H973 C969 0.950 . S
H974 C971 0.950 . S
C975 C966 1.390 . S
C975 H968 0.950 . S
C975 C972 1.387 . S
C976 C977 1.387 . S
C976 H980 0.950 . S
C976 C985 1.390 . S
C977 C976 1.387 . S
C977 C979 1.387 . S
H978 C985 0.950 . S
C979 C977 1.387 . S
C979 C981 1.390 . S
C979 H983 0.950 . S
H980 C976 0.950 . S
C981 C979 1.390 . S
C981 C982 1.387 . S
C981 H984 0.950 . S
C982 C981 1.387 . S
C982 C985 1.387 . S
H983 C979 0.950 . S
H984 C981 0.950 . S
C985 C976 1.390 . S
C985 H978 0.950 . S
C985 C982 1.387 . S
C986 C987 1.387 . S
C986 H990 0.950 . S
C986 C995 1.390 . S
C987 C986 1.387 . S
C987 C989 1.387 . S
H988 C995 0.950 . S
C989 C987 1.387 . S
C989 C991 1.390 . S
C989 H993 0.950 . S
H990 C986 0.950 . S
C991 C989 1.390 . S
C991 C992 1.387 . S
C991 H994 0.950 . S
C992 C991 1.387 . S
C992 C995 1.387 . S
H993 C989 0.950 . S
H994 C991 0.950 . S
C995 C986 1.390 . S
C995 H988 0.950 . S
C995 C992 1.387 . S
C996 C997 1.387 . S
C996 H1000 0.950 . S
C996 C1005 1.390 . S
C997 C996 1.387 . S
C997 C999 1.387 . S
H998 C1005 0.950 . S
C999 C997 1.387 . S
C999 C1001 1.390 . S
C999 H1003 0.950 . S
H1000 C996 0.950 . S
C1001 C999 1.390 . S
C1001 C1002 1.387 . S
C1001 H1004 0.950 . S
C1002 C1001 1.387 . S
C1002 C1005 1.387 . S
H1003 C999 0.950 . S
H1004 C1001 0.950 . S
C1005 C996 1.390 . S
C1005 H998 0.950 . S
C1005 C1002 1.387 . S
C1006 C1007 1.387 . S
C1006 H1010 0.950 . S
C1006 C1015 1.390 . S
C1007 C1006 1.387 . S
C1007 C1009 1.387 . S
H1008 C1015 0.950 . S
C1009 C1007 1.387 . S
C1009 C1011 1.390 . S
C1009 H1013 0.950 . S
H1010 C1006 0.950 . S
C1011 C1009 1.390 . S
C1011 C1012 1.387 . S
C1011 H1014 0.950 . S
C1012 C1011 1.387 . S
C1012 C1015 1.387 . S
H1013 C1009 0.950 . S
H1014 C1011 0.950 . S
C1015 C1006 1.390 . S
C1015 H1008 0.950 . S
C1015 C1012 1.387 . S
C1016 C1017 1.387 . S
C1016 H1020 0.950 . S
C1016 C1025 1.390 . S
C1017 C1016 1.387 . S
C1017 C1019 1.387 . S
H1018 C1025 0.950 . S
C1019 C1017 1.387 . S
C1019 C1021 1.390 . S
C1019 H1023 0.950 . S
H1020 C1016 0.950 . S
C1021 C1019 1.390 . S
C1021 C1022 1.387 . S
C1021 H1024 0.950 . S
C1022 C1021 1.387 . S
C1022 C1025 1.387 . S
H1023 C1019 0.950 . S
H1024 C1021 0.950 . S
C1025 C1016 1.390 . S
C1025 H1018 0.950 . S
C1025 C1022 1.387 . S
C1026 C1027 1.387 . S
C1026 H1030 0.950 . S
C1026 C1035 1.390 . S
C1027 C1026 1.387 . S
C1027 C1029 1.387 . S
H1028 C1035 0.950 . S
C1029 C1027 1.387 . S
C1029 C1031 1.390 . S
C1029 H1033 0.950 . S
H1030 C1026 0.950 . S
C1031 C1029 1.390 . S
C1031 C1032 1.387 . S
C1031 H1034 0.950 . S
C1032 C1031 1.387 . S
C1032 C1035 1.387 . S
H1033 C1029 0.950 . S
H1034 C1031 0.950 . S
C1035 C1026 1.390 . S
C1035 H1028 0.950 . S
C1035 C1032 1.387 . S
C1036 C1037 1.387 . S
C1036 H1040 0.950 . S
C1036 C1045 1.390 . S
C1037 C1036 1.387 . S
C1037 C1039 1.387 . S
H1038 C1045 0.950 . S
C1039 C1037 1.387 . S
C1039 C1041 1.390 . S
C1039 H1043 0.950 . S
H1040 C1036 0.950 . S
C1041 C1039 1.390 . S
C1041 C1042 1.387 . S
C1041 H1044 0.950 . S
C1042 C1041 1.387 . S
C1042 C1045 1.387 . S
H1043 C1039 0.950 . S
H1044 C1041 0.950 . S
C1045 C1036 1.390 . S
C1045 H1038 0.950 . S
C1045 C1042 1.387 . S
C1046 C1047 1.387 . S
C1046 H1050 0.950 . S
C1046 C1055 1.390 . S
C1047 C1046 1.387 . S
C1047 C1049 1.387 . S
H1048 C1055 0.950 . S
C1049 C1047 1.387 . S
C1049 C1051 1.390 . S
C1049 H1053 0.950 . S
H1050 C1046 0.950 . S
C1051 C1049 1.390 . S
C1051 C1052 1.387 . S
C1051 H1054 0.950 . S
C1052 C1051 1.387 . S
C1052 C1055 1.387 . S
H1053 C1049 0.950 . S
H1054 C1051 0.950 . S
C1055 C1046 1.390 . S
C1055 H1048 0.950 . S
C1055 C1052 1.387 . S
C417 C157 1.402 . S
C422 C5 1.396 . S
C427 C387 1.454 . S
C432 C16 1.437 . S
C437 C183 1.401 . S
C442 C31 1.395 . S
C447 C413 1.454 . S
C452 C42 1.437 . S
C457 C105 1.404 . S
C462 C57 1.399 . S
C467 C68 1.436 . S
C472 C335 1.453 . S
C477 C83 1.399 . S
C482 C131 1.404 . S
C487 C361 1.453 . S
C492 C94 1.435 . S
C497 C62 1.404 . S
C502 C107 1.399 . S
C507 C274 1.452 . S
C512 C122 1.435 . S
C517 C88 1.401 . S
C522 C133 1.395 . S
C527 C300 1.453 . S
C532 C148 1.435 . S
C537 C159 1.399 . S
C542 C10 1.404 . S
C547 C174 1.435 . S
C552 C222 1.452 . S
C557 C36 1.404 . S
C562 C185 1.399 . S
C567 C200 1.436 . S
C572 C248 1.453 . S
C577 C365 1.401 . S
C582 C213 1.396 . S
C587 C179 1.454 . S
C592 C224 1.437 . S
C597 C391 1.401 . S
C602 C239 1.395 . S
C607 C250 1.436 . S
C612 C205 1.453 . S
C617 C265 1.399 . S
C622 C313 1.404 . S
C627 C276 1.435 . S
C632 C127 1.453 . S
C637 C339 1.401 . S
C642 C291 1.395 . S
C647 C153 1.453 . S
C652 C302 1.437 . S
C657 C270 1.401 . S
C662 C315 1.395 . S
C667 C330 1.435 . S
C672 C66 1.453 . S
C677 C341 1.395 . S
C682 C296 1.401 . S
C687 C356 1.437 . S
C692 C92 1.454 . S
C697 C218 1.401 . S
C702 C367 1.395 . S
C707 C14 1.453 . S
C712 C382 1.436 . S
C717 C244 1.401 . S
C722 C393 1.395 . S
C727 C408 1.436 . S
C732 C40 1.453 . S
C737 C1 2.053 . S
C742 C114 2.053 . S
C747 C23 1.930 . S
C752 C326 1.930 . S
C757 C140 2.051 . S
C762 C27 2.051 . S
C767 C49 1.927 . S
C772 C352 1.927 . S
C777 C53 2.051 . S
C782 C166 2.051 . S
C787 C378 1.927 . S
C792 C75 1.927 . S
C797 C192 2.053 . S
C802 C79 2.053 . S
C807 C101 1.927 . S
C812 C404 1.927 . S
C817 C118 1.928 . S
C822 C231 1.928 . S
C827 C144 1.930 . S
C832 C257 1.930 . S
C837 C170 1.928 . S
C842 C283 1.928 . S
C847 C309 1.927 . S
C852 C196 1.927 . S
C857 C209 2.051 . S
C862 C322 2.051 . S
C867 C235 2.051 . S
C872 C348 2.051 . S
C877 C261 2.051 . S
C882 C374 2.051 . S
C887 C400 2.053 . S
C892 C287 2.053 . S
C897 C3 1.871 . S
C902 C96 1.804 . S
C907 C18 1.804 . S
C912 C55 1.871 . S
C917 C70 1.804 . S
C922 C29 1.871 . S
C927 C81 1.871 . S
C932 C44 1.804 . S
C937 C198 1.804 . S
C942 C109 1.871 . S
C947 C161 1.871 . S
C952 C120 1.807 . S
C957 C172 1.804 . S
C962 C135 1.871 . S
C967 C187 1.871 . S
C972 C146 1.804 . S
C977 C211 1.871 . S
C982 C304 1.807 . S
C987 C263 1.871 . S
C992 C226 1.804 . S
C997 C278 1.807 . S
C1002 C237 1.871 . S
C1007 C289 1.871 . S
C1012 C252 1.805 . S
C1017 C406 1.807 . S
C1022 C317 1.871 . S
C1027 C328 1.804 . S
C1032 C369 1.871 . S
C1037 C343 1.871 . S
C1042 C380 1.804 . S
C1047 C395 1.871 . S
C1052 C354 1.807 . S
