# Generated by pormake.
# Topology acs-a, (4)-cn, num edge types: 1
# Building blocks:
#     Node 0, Type 0, BuildingBlock: CEKHIL_clean_sbu_0, # of connection points: 4
#     Node 1, Type 0, BuildingBlock: CEKHIL_clean_sbu_0, # of connection points: 4
#     Node 2, Type 0, BuildingBlock: CEKHIL_clean_sbu_0, # of connection points: 4
#     Node 3, Type 0, BuildingBlock: CEKHIL_clean_sbu_0, # of connection points: 4
#     Node 4, Type 0, BuildingBlock: CEKHIL_clean_sbu_0, # of connection points: 4
#     Node 5, Type 0, BuildingBlock: CEKHIL_clean_sbu_0, # of connection points: 4
#     Node 6, Type 0, BuildingBlock: CEKHIL_clean_sbu_0, # of connection points: 4
#     Node 7, Type 0, BuildingBlock: CEKHIL_clean_sbu_0, # of connection points: 4
#     Node 8, Type 0, BuildingBlock: CEKHIL_clean_sbu_0, # of connection points: 4
#     Node 9, Type 0, BuildingBlock: CEKHIL_clean_sbu_0, # of connection points: 4
#     Node 10, Type 0, BuildingBlock: CEKHIL_clean_sbu_0, # of connection points: 4
#     Node 11, Type 0, BuildingBlock: CEKHIL_clean_sbu_0, # of connection points: 4
#     Edge 12, Type (0, 0), BuildingBlock: MIFKUJ_clean_linker_0, # of connection points: 2
#     Edge 13, Type (0, 0), BuildingBlock: MIFKUJ_clean_linker_0, # of connection points: 2
#     Edge 14, Type (0, 0), BuildingBlock: MIFKUJ_clean_linker_0, # of connection points: 2
#     Edge 15, Type (0, 0), BuildingBlock: MIFKUJ_clean_linker_0, # of connection points: 2
#     Edge 16, Type (0, 0), BuildingBlock: MIFKUJ_clean_linker_0, # of connection points: 2
#     Edge 17, Type (0, 0), BuildingBlock: MIFKUJ_clean_linker_0, # of connection points: 2
#     Edge 18, Type (0, 0), BuildingBlock: MIFKUJ_clean_linker_0, # of connection points: 2
#     Edge 19, Type (0, 0), BuildingBlock: MIFKUJ_clean_linker_0, # of connection points: 2
#     Edge 20, Type (0, 0), BuildingBlock: MIFKUJ_clean_linker_0, # of connection points: 2
#     Edge 21, Type (0, 0), BuildingBlock: MIFKUJ_clean_linker_0, # of connection points: 2
#     Edge 22, Type (0, 0), BuildingBlock: MIFKUJ_clean_linker_0, # of connection points: 2
#     Edge 23, Type (0, 0), BuildingBlock: MIFKUJ_clean_linker_0, # of connection points: 2
#     Edge 24, Type (0, 0), BuildingBlock: MIFKUJ_clean_linker_0, # of connection points: 2
#     Edge 25, Type (0, 0), BuildingBlock: MIFKUJ_clean_linker_0, # of connection points: 2
#     Edge 26, Type (0, 0), BuildingBlock: MIFKUJ_clean_linker_0, # of connection points: 2
#     Edge 27, Type (0, 0), BuildingBlock: MIFKUJ_clean_linker_0, # of connection points: 2
#     Edge 28, Type (0, 0), BuildingBlock: MIFKUJ_clean_linker_0, # of connection points: 2
#     Edge 29, Type (0, 0), BuildingBlock: MIFKUJ_clean_linker_0, # of connection points: 2
#     Edge 30, Type (0, 0), BuildingBlock: MIFKUJ_clean_linker_0, # of connection points: 2
#     Edge 31, Type (0, 0), BuildingBlock: MIFKUJ_clean_linker_0, # of connection points: 2
#     Edge 32, Type (0, 0), BuildingBlock: MIFKUJ_clean_linker_0, # of connection points: 2
#     Edge 33, Type (0, 0), BuildingBlock: MIFKUJ_clean_linker_0, # of connection points: 2
#     Edge 34, Type (0, 0), BuildingBlock: MIFKUJ_clean_linker_0, # of connection points: 2
#     Edge 35, Type (0, 0), BuildingBlock: MIFKUJ_clean_linker_0, # of connection points: 2
# Relax obj value: 0.519
# Max RMSD: 0.259
# Mean RMSD: 0.234
data_MOF--net-acs-a--node1-CEKHIL_clean_sbu_0--edge1-MIFKUJ_clean_linker_0
_symmetry_space_group_name_H-M    P1
_symmetry_Int_Tables_number       1
_symmetry_cell_setting            triclinic
loop_
_symmetry_equiv_pos_as_xyz
'x, y, z'
_cell_length_a     62.628754
_cell_length_b     62.591438
_cell_length_c     48.746507
_cell_angle_alpha  90.008121
_cell_angle_beta   89.965021
_cell_angle_gamma 114.11203
loop_
_atom_site_label
_atom_site_type_symbol
_atom_site_fract_x
_atom_site_fract_y
_atom_site_fract_z
_atom_type_partial_charge
Co0 Co 0.6236 0.12066 0.06672 0.0
O1 O 0.61684 0.08799 0.06186 0.0
O2 O 0.59052 0.10332 0.06382 0.0
C3 C 0.65313 0.13491 0.0361 0.0
O4 O 0.62275 0.15263 0.06927 0.0
Co5 Co 0.67067 0.1578 0.08732 0.0
O6 O 0.65951 0.17975 0.06884 0.0
C7 C 0.63704 0.12599 0.12717 0.0
C8 C 0.59504 0.08501 0.06061 0.0
C9 C 0.63767 0.17375 0.06559 0.0
O10 O 0.6219 0.11704 0.10793 0.0
O11 O 0.65777 0.14147 0.12282 0.0
O12 O 0.63151 0.12662 0.0278 0.0
O13 O 0.65599 0.13217 0.06187 0.0
Co14 Co 0.44314 0.61233 0.55542 0.0
O15 O 0.47299 0.61121 0.54909 0.0
O16 O 0.43833 0.58169 0.54304 0.0
C17 C 0.44902 0.64617 0.53441 0.0
O18 O 0.40909 0.60678 0.55784 0.0
Co19 Co 0.43793 0.65068 0.59145 0.0
O20 O 0.40602 0.63868 0.57509 0.0
C21 C 0.44643 0.61285 0.61789 0.0
C22 C 0.46097 0.58952 0.54198 0.0
C23 C 0.39726 0.61891 0.56296 0.0
O24 O 0.44323 0.60218 0.59471 0.0
O25 O 0.44724 0.6335 0.62053 0.0
O26 O 0.44443 0.62729 0.52005 0.0
O27 O 0.45375 0.64471 0.56 0.0
Co28 Co 0.85335 0.41033 0.04616 0.0
O29 O 0.87996 0.43901 0.04089 0.0
O30 O 0.87727 0.40409 0.02715 0.0
C31 C 0.82724 0.42448 0.03294 0.0
O32 O 0.82807 0.37725 0.04635 0.0
Co33 Co 0.81431 0.40654 0.08785 0.0
O34 O 0.79609 0.37755 0.06693 0.0
C35 C 0.86068 0.41115 0.10712 0.0
C36 C 0.88921 0.42663 0.02823 0.0
C37 C 0.80613 0.36759 0.05211 0.0
O38 O 0.86578 0.40601 0.0831 0.0
O39 O 0.84223 0.41447 0.1123 0.0
O40 O 0.83806 0.41759 0.01451 0.0
O41 O 0.83375 0.42405 0.0579 0.0
Co42 Co 0.35624 0.85572 0.52463 0.0
O43 O 0.36969 0.88948 0.52099 0.0
O44 O 0.38865 0.86637 0.51708 0.0
C45 C 0.32388 0.84653 0.49891 0.0
O46 O 0.35046 0.82172 0.52528 0.0
Co47 Co 0.30925 0.82436 0.55127 0.0
O48 O 0.31498 0.79674 0.53877 0.0
C49 C 0.34841 0.85545 0.58564 0.0
C50 C 0.38928 0.88728 0.51676 0.0
C51 C 0.33522 0.80085 0.52925 0.0
O52 O 0.36253 0.85897 0.56529 0.0
O53 O 0.32625 0.84402 0.58342 0.0
O54 O 0.3441 0.85167 0.48724 0.0
O55 O 0.32446 0.84975 0.52514 0.0
Co56 Co 0.55155 0.38067 0.05404 0.0
O57 O 0.51999 0.3774 0.04749 0.0
O58 O 0.55232 0.40921 0.03919 0.0
C59 C 0.54872 0.34652 0.03617 0.0
O60 O 0.58649 0.39097 0.05583 0.0
Co61 Co 0.56373 0.34765 0.09227 0.0
O62 O 0.59595 0.36434 0.07737 0.0
C63 C 0.54666 0.38102 0.11564 0.0
C64 C 0.52965 0.39895 0.03884 0.0
C65 C 0.60142 0.38297 0.06326 0.0
O66 O 0.55028 0.39201 0.09262 0.0
O67 O 0.54845 0.36152 0.11873 0.0
O68 O 0.55182 0.36412 0.02006 0.0
O69 O 0.54478 0.34933 0.06159 0.0
Co70 Co 0.14607 0.58705 0.56904 0.0
O71 O 0.11971 0.55829 0.57654 0.0
O72 O 0.11806 0.58956 0.55668 0.0
C73 C 0.1686 0.57062 0.55079 0.0
O74 O 0.16922 0.61911 0.55647 0.0
Co75 Co 0.19444 0.59941 0.59614 0.0
O76 O 0.20579 0.62477 0.5683 0.0
C77 C 0.15462 0.59918 0.62887 0.0
C78 C 0.10728 0.56802 0.56492 0.0
C79 C 0.19152 0.63074 0.55514 0.0
O80 O 0.14319 0.59882 0.6068 0.0
O81 O 0.17425 0.59734 0.62887 0.0
O82 O 0.153 0.57373 0.53572 0.0
O83 O 0.16877 0.57582 0.57643 0.0
Co84 Co 0.86343 0.36998 0.43825 0.0
O85 O 0.89494 0.3748 0.4484 0.0
O86 O 0.88116 0.40232 0.44538 0.0
C87 C 0.84398 0.33865 0.46525 0.0
O88 O 0.83328 0.37342 0.43059 0.0
Co89 Co 0.82636 0.32602 0.41092 0.0
O90 O 0.80423 0.33779 0.42806 0.0
C91 C 0.86508 0.35995 0.3776 0.0
C92 C 0.89829 0.39663 0.45143 0.0
C93 C 0.81162 0.35967 0.43227 0.0
O94 O 0.87218 0.37408 0.39816 0.0
O95 O 0.84814 0.33969 0.37918 0.0
O96 O 0.85248 0.35966 0.4755 0.0
O97 O 0.84949 0.33722 0.43998 0.0
Co98 Co 0.40323 0.85039 0.92405 0.0
O99 O 0.43324 0.87533 0.91711 0.0
O100 O 0.40274 0.8795 0.9355 0.0
C101 C 0.41767 0.82632 0.94301 0.0
O102 O 0.37017 0.82948 0.9361 0.0
Co103 Co 0.38658 0.80044 0.90012 0.0
O104 O 0.36619 0.79234 0.93318 0.0
C105 C 0.3874 0.83972 0.86517 0.0
C106 C 0.42458 0.88896 0.92816 0.0
C107 C 0.36022 0.80788 0.94312 0.0
O108 O 0.39267 0.85375 0.88585 0.0
O109 O 0.38526 0.81849 0.86665 0.0
O110 O 0.41532 0.84248 0.95785 0.0
O111 O 0.41225 0.82594 0.91744 0.0
Co112 Co 0.61174 0.43985 0.44227 0.0
O113 O 0.60959 0.46926 0.44741 0.0
O114 O 0.58184 0.43449 0.45808 0.0
C115 C 0.64807 0.45054 0.45914 0.0
O116 O 0.60801 0.40609 0.44149 0.0
Co117 Co 0.64841 0.43501 0.40285 0.0
O118 O 0.63758 0.40286 0.41828 0.0
C119 C 0.60816 0.44188 0.38053 0.0
C120 C 0.58884 0.4571 0.45724 0.0
C121 C 0.61928 0.39414 0.43318 0.0
O122 O 0.59824 0.43722 0.4042 0.0
O123 O 0.62926 0.44446 0.37642 0.0
O124 O 0.63033 0.44464 0.47578 0.0
O125 O 0.64346 0.45211 0.4336 0.0
Co126 Co 0.1383 0.63918 0.9645 0.0
O127 O 0.10466 0.62608 0.96526 0.0
O128 O 0.12675 0.60592 0.96726 0.0
C129 C 0.14599 0.66848 0.99465 0.0
O130 O 0.17249 0.64542 0.96578 0.0
Co131 Co 0.16896 0.68887 0.94348 0.0
O132 O 0.19604 0.68291 0.9574 0.0
C133 C 0.14118 0.65242 0.90456 0.0
C134 C 0.10603 0.6059 0.96689 0.0
C135 C 0.19285 0.66227 0.96469 0.0
O136 O 0.13772 0.63695 0.92333 0.0
O137 O 0.15112 0.67446 0.90909 0.0
O138 O 0.14001 0.64714 0.0033 0.0
O139 O 0.14382 0.67068 0.96855 0.0
Co140 Co 0.57264 0.133 0.46128 0.0
O141 O 0.54777 0.10377 0.4702 0.0
O142 O 0.5857 0.11211 0.47521 0.0
C143 C 0.55714 0.1559 0.48098 0.0
O144 O 0.60303 0.16151 0.45631 0.0
Co145 Co 0.56506 0.16955 0.42411 0.0
O146 O 0.59494 0.19127 0.44126 0.0
C147 C 0.56716 0.12737 0.39949 0.0
C148 C 0.56405 0.09737 0.47818 0.0
C149 C 0.60881 0.18343 0.45214 0.0
O150 O 0.57403 0.12223 0.42248 0.0
O151 O 0.56075 0.14423 0.39667 0.0
O152 O 0.56803 0.14629 0.4959 0.0
O153 O 0.55388 0.14928 0.45569 0.0
Co154 Co 0.38235 0.55421 0.94408 0.0
O155 O 0.37954 0.52314 0.95232 0.0
O156 O 0.41218 0.55558 0.95548 0.0
C157 C 0.35054 0.55342 0.96617 0.0
O158 O 0.39193 0.58902 0.93935 0.0
Co159 Co 0.34518 0.56196 0.90839 0.0
O160 O 0.36096 0.59439 0.92297 0.0
C161 C 0.37846 0.54662 0.88214 0.0
C162 C 0.40172 0.53298 0.95812 0.0
C163 C 0.38118 0.60215 0.93406 0.0
O164 O 0.39028 0.55069 0.90458 0.0
O165 O 0.35857 0.54768 0.88014 0.0
O166 O 0.36953 0.55686 0.97977 0.0
O167 O 0.35037 0.54696 0.94097 0.0
H168 H 0.59979 0.11027 0.38702 0.0
H169 H 0.60899 0.10075 0.34091 0.0
H170 H 0.54787 0.1076 0.30903 0.0
H171 H 0.53901 0.11776 0.35472 0.0
H172 H 0.58902 0.07119 0.29471 0.0
H173 H 0.56556 0.14588 0.2575 0.0
H174 H 0.56025 0.17997 0.27644 0.0
H175 H 0.60979 0.18643 0.34022 0.0
H176 H 0.61564 0.15262 0.3214 0.0
H177 H 0.59725 0.09001 0.14648 0.0
H178 H 0.58422 0.08225 0.19437 0.0
H179 H 0.64733 0.13965 0.22073 0.0
H180 H 0.66061 0.14741 0.17339 0.0
H181 H 0.60569 0.14226 0.23824 0.0
H182 H 0.64282 0.08899 0.23619 0.0
H183 H 0.65059 0.05597 0.21846 0.0
H184 H 0.57934 0.009 0.23441 0.0
H185 H 0.57104 0.04184 0.25185 0.0
C186 C 0.58789 0.10893 0.37033 0.0
C187 C 0.56897 0.11521 0.37425 0.0
C188 C 0.59313 0.10342 0.34403 0.0
C189 C 0.57936 0.10395 0.32153 0.0
C190 C 0.55889 0.10743 0.32609 0.0
C191 C 0.55389 0.1133 0.35217 0.0
C192 C 0.58851 0.10537 0.29325 0.0
C193 C 0.59253 0.08661 0.28225 0.0
C194 C 0.5936 0.12576 0.27726 0.0
C195 C 0.59085 0.14662 0.28818 0.0
C196 C 0.57541 0.15468 0.27546 0.0
C197 C 0.57229 0.17393 0.28619 0.0
C198 C 0.58462 0.18531 0.30956 0.0
C199 C 0.6002 0.17756 0.32216 0.0
C200 C 0.60343 0.15836 0.31147 0.0
C201 C 0.6085 0.10077 0.16252 0.0
C202 C 0.62991 0.11943 0.15604 0.0
C203 C 0.60107 0.09624 0.18984 0.0
C204 C 0.61484 0.11041 0.21098 0.0
C205 C 0.63649 0.12852 0.20465 0.0
C206 C 0.64404 0.13289 0.17752 0.0
C207 C 0.60591 0.10796 0.23941 0.0
C208 C 0.60196 0.12667 0.25051 0.0
C209 C 0.60133 0.08772 0.25545 0.0
C210 C 0.60624 0.06793 0.24502 0.0
C211 C 0.62874 0.07167 0.23565 0.0
C212 C 0.63326 0.05297 0.22571 0.0
C213 C 0.61545 0.03041 0.22523 0.0
C214 C 0.5931 0.02649 0.23475 0.0
C215 C 0.58849 0.04514 0.24468 0.0
H216 H 0.61898 0.01595 0.21754 0.0
H217 H 0.58213 0.20017 0.31789 0.0
H218 H 0.42574 0.56562 0.6261 0.0
H219 H 0.41893 0.54526 0.67027 0.0
H220 H 0.46051 0.61025 0.7108 0.0
H221 H 0.46697 0.63087 0.66687 0.0
H222 H 0.46327 0.56493 0.73237 0.0
H223 H 0.40963 0.60219 0.70872 0.0
H224 H 0.38205 0.60837 0.67692 0.0
H225 H 0.33943 0.53445 0.67604 0.0
H226 H 0.36702 0.52784 0.70752 0.0
H227 H 0.42363 0.57014 0.86628 0.0
H228 H 0.43914 0.57207 0.82004 0.0
H229 H 0.37356 0.51748 0.79417 0.0
H230 H 0.35753 0.51689 0.84005 0.0
H231 H 0.38247 0.54983 0.76161 0.0
H232 H 0.42981 0.51269 0.79398 0.0
H233 H 0.45699 0.50444 0.82433 0.0
H234 H 0.51053 0.57272 0.808 0.0
H235 H 0.48358 0.58155 0.77786 0.0
C236 C 0.43402 0.57546 0.64429 0.0
C237 C 0.44663 0.59989 0.64314 0.0
C238 C 0.43015 0.56378 0.66946 0.0
C239 C 0.43921 0.57631 0.69368 0.0
C240 C 0.45353 0.60031 0.69225 0.0
C241 C 0.45703 0.61207 0.6672 0.0
C242 C 0.43046 0.56556 0.72065 0.0
C243 C 0.44563 0.56152 0.73899 0.0
C244 C 0.40724 0.56047 0.72869 0.0
C245 C 0.3905 0.5645 0.71015 0.0
C246 C 0.39448 0.58725 0.70155 0.0
C247 C 0.37884 0.59083 0.68362 0.0
C248 C 0.35904 0.5718 0.67439 0.0
C249 C 0.3548 0.54916 0.68315 0.0
C250 C 0.37043 0.54549 0.70103 0.0
C251 C 0.41279 0.5581 0.85088 0.0
C252 C 0.38937 0.54347 0.85657 0.0
C253 C 0.42172 0.55908 0.82441 0.0
C254 C 0.40762 0.54484 0.8034 0.0
C255 C 0.38478 0.5288 0.80985 0.0
C256 C 0.37563 0.52837 0.83608 0.0
C257 C 0.41532 0.54923 0.77424 0.0
C258 C 0.39995 0.55238 0.75526 0.0
C259 C 0.43824 0.55301 0.76562 0.0
C260 C 0.45459 0.54783 0.78374 0.0
C261 C 0.44732 0.52602 0.797 0.0
C262 C 0.46271 0.52123 0.81415 0.0
C263 C 0.48546 0.53806 0.81812 0.0
C264 C 0.4929 0.5597 0.8049 0.0
C265 C 0.47758 0.56459 0.78774 0.0
H266 H 0.49735 0.53431 0.83141 0.0
H267 H 0.34694 0.57461 0.66051 0.0
H268 H 0.87738 0.44625 0.14377 0.0
H269 H 0.8926 0.4444 0.18937 0.0
H270 H 0.89149 0.37663 0.17024 0.0
H271 H 0.87691 0.37887 0.12404 0.0
H272 H 0.86414 0.41209 0.22217 0.0
H273 H 0.92571 0.36348 0.21788 0.0
H274 H 0.95776 0.36249 0.18923 0.0
H275 H 0.97452 0.43292 0.16261 0.0
H276 H 0.94281 0.43447 0.1914 0.0
H277 H 0.8542 0.33527 0.32966 0.0
H278 H 0.86682 0.34991 0.28359 0.0
H279 H 0.91275 0.4168 0.31659 0.0
H280 H 0.89998 0.40248 0.36322 0.0
H281 H 0.92432 0.38792 0.26032 0.0
H282 H 0.87894 0.42984 0.30142 0.0
H283 H 0.84614 0.42879 0.33033 0.0
H284 H 0.79799 0.37263 0.28157 0.0
H285 H 0.83061 0.37316 0.25266 0.0
C286 C 0.8813 0.4314 0.14896 0.0
C287 C 0.8759 0.41263 0.13063 0.0
C288 C 0.88996 0.43034 0.175 0.0
C289 C 0.89298 0.4103 0.18335 0.0
C290 C 0.88954 0.39238 0.16417 0.0
C291 C 0.88119 0.39363 0.13781 0.0
C292 C 0.89514 0.40635 0.21303 0.0
C293 C 0.87772 0.40738 0.23045 0.0
C294 C 0.9125 0.3997 0.22392 0.0
C295 C 0.93172 0.399 0.20666 0.0
C296 C 0.93629 0.3788 0.20601 0.0
C297 C 0.95439 0.37813 0.18973 0.0
C298 C 0.96812 0.3976 0.17405 0.0
C299 C 0.96381 0.41781 0.17468 0.0
C300 C 0.94574 0.41857 0.19094 0.0
C301 C 0.86733 0.35298 0.32737 0.0
C302 C 0.87576 0.36783 0.35023 0.0
C303 C 0.87467 0.36121 0.30096 0.0
C304 C 0.8907 0.38434 0.29683 0.0
C305 C 0.90048 0.3988 0.31953 0.0
C306 C 0.89302 0.39061 0.3461 0.0
C307 C 0.89365 0.39415 0.26889 0.0
C308 C 0.91147 0.39357 0.25186 0.0
C309 C 0.8768 0.4014 0.25814 0.0
C310 C 0.85717 0.40142 0.27509 0.0
C311 C 0.86137 0.41718 0.29701 0.0
C312 C 0.84282 0.41669 0.31337 0.0
C313 C 0.82 0.40062 0.30783 0.0
C314 C 0.81567 0.38505 0.28586 0.0
C315 C 0.83417 0.38545 0.26948 0.0
H316 H 0.80567 0.40025 0.32053 0.0
H317 H 0.98213 0.39705 0.16146 0.0
H318 H 0.40847 0.88456 0.84513 0.0
H319 H 0.40861 0.89686 0.79721 0.0
H320 H 0.36068 0.82664 0.77591 0.0
H321 H 0.36092 0.81426 0.82315 0.0
H322 H 0.39681 0.84152 0.74212 0.0
H323 H 0.34393 0.87332 0.78135 0.0
H324 H 0.33417 0.89898 0.81269 0.0
H325 H 0.39018 0.95931 0.77895 0.0
H326 H 0.40042 0.93394 0.74761 0.0
H327 H 0.32429 0.85845 0.63096 0.0
H328 H 0.3386 0.86686 0.6778 0.0
H329 H 0.4084 0.88039 0.65021 0.0
H330 H 0.39413 0.8717 0.60293 0.0
H331 H 0.37144 0.90203 0.70768 0.0
H332 H 0.42982 0.85275 0.69632 0.0
H333 H 0.43587 0.82446 0.66537 0.0
H334 H 0.36287 0.79497 0.64457 0.0
H335 H 0.3564 0.82289 0.67562 0.0
C336 C 0.39767 0.87192 0.83024 0.0
C337 C 0.38481 0.84841 0.83777 0.0
C338 C 0.39783 0.87894 0.8029 0.0
C339 C 0.38484 0.8626 0.78294 0.0
C340 C 0.37112 0.83946 0.79087 0.0
C341 C 0.37117 0.83242 0.81792 0.0
C342 C 0.38585 0.86881 0.75348 0.0
C343 C 0.39159 0.85502 0.73464 0.0
C344 C 0.37934 0.88656 0.74365 0.0
C345 C 0.3731 0.90174 0.76241 0.0
C346 C 0.35426 0.89204 0.78078 0.0
C347 C 0.34862 0.90653 0.7985 0.0
C348 C 0.3616 0.93076 0.79788 0.0
C349 C 0.38018 0.94055 0.77946 0.0
C350 C 0.3859 0.92613 0.7617 0.0
C351 C 0.34277 0.86351 0.63468 0.0
C352 C 0.35798 0.86389 0.61326 0.0
C353 C 0.35097 0.86859 0.6615 0.0
C354 C 0.3745 0.87404 0.66751 0.0
C355 C 0.39013 0.87607 0.64597 0.0
C356 C 0.38193 0.87104 0.619 0.0
C357 C 0.38144 0.87407 0.69655 0.0
C358 C 0.37739 0.88909 0.71524 0.0
C359 C 0.3891 0.85714 0.70639 0.0
C360 C 0.39273 0.84008 0.68797 0.0
C361 C 0.41509 0.84019 0.68515 0.0
C362 C 0.41858 0.82422 0.66761 0.0
C363 C 0.39979 0.80798 0.65293 0.0
C364 C 0.37744 0.8076 0.65586 0.0
C365 C 0.37385 0.8235 0.67341 0.0
H366 H 0.40253 0.79566 0.63933 0.0
H367 H 0.35721 0.94195 0.81162 0.0
H368 H 0.62318 0.46876 0.33479 0.0
H369 H 0.60241 0.46345 0.29107 0.0
H370 H 0.54154 0.4092 0.32717 0.0
H371 H 0.56195 0.41496 0.37132 0.0
H372 H 0.57067 0.39941 0.28002 0.0
H373 H 0.52773 0.44425 0.30685 0.0
H374 H 0.52301 0.47887 0.3248 0.0
H375 H 0.56481 0.52051 0.25874 0.0
H376 H 0.5701 0.4862 0.24061 0.0
H377 H 0.5173 0.35921 0.15731 0.0
H378 H 0.51805 0.3745 0.20353 0.0
H379 H 0.56836 0.44222 0.17735 0.0
H380 H 0.56704 0.4271 0.1306 0.0
H381 H 0.54021 0.44538 0.22113 0.0
H382 H 0.58878 0.4054 0.19842 0.0
H383 H 0.59751 0.37323 0.17973 0.0
H384 H 0.55055 0.32563 0.23805 0.0
H385 H 0.54123 0.35748 0.25677 0.0
C386 C 0.6051 0.45624 0.33363 0.0
C387 C 0.5942 0.44211 0.35629 0.0
C388 C 0.59323 0.45336 0.30875 0.0
C389 C 0.57046 0.43605 0.30606 0.0
C390 C 0.55902 0.42287 0.32906 0.0
C391 C 0.5707 0.42614 0.35419 0.0
C392 C 0.56091 0.42859 0.27834 0.0
C393 C 0.56343 0.4091 0.26736 0.0
C394 C 0.55254 0.44196 0.26163 0.0
C395 C 0.54953 0.46268 0.27254 0.0
C396 C 0.53616 0.46084 0.29632 0.0
C397 C 0.53331 0.4804 0.30649 0.0
C398 C 0.54366 0.5019 0.29297 0.0
C399 C 0.55683 0.50386 0.26921 0.0
C400 C 0.55974 0.48435 0.25897 0.0
C401 C 0.52786 0.37758 0.16118 0.0
C402 C 0.5424 0.39192 0.14062 0.0
C403 C 0.52825 0.3863 0.18755 0.0
C404 C 0.54368 0.40931 0.19396 0.0
C405 C 0.55638 0.42439 0.1728 0.0
C406 C 0.55566 0.41573 0.14615 0.0
C407 C 0.54966 0.41595 0.22302 0.0
C408 C 0.54692 0.43541 0.23405 0.0
C409 C 0.55843 0.40291 0.23982 0.0
C410 C 0.56408 0.38373 0.22875 0.0
C411 C 0.58016 0.38802 0.20709 0.0
C412 C 0.58523 0.36986 0.19651 0.0
C413 C 0.57453 0.34738 0.20764 0.0
C414 C 0.55878 0.34304 0.22941 0.0
C415 C 0.55359 0.36113 0.24001 0.0
H416 H 0.5785 0.33335 0.19944 0.0
H417 H 0.54142 0.51702 0.30086 0.0
H418 H 0.1225 0.61764 0.64009 0.0
H419 H 0.10906 0.62383 0.68564 0.0
H420 H 0.15119 0.59205 0.72339 0.0
H421 H 0.16473 0.58602 0.67847 0.0
H422 H 0.10596 0.57811 0.74709 0.0
H423 H 0.17307 0.64958 0.71705 0.0
H424 H 0.19161 0.68266 0.68514 0.0
H425 H 0.13544 0.70413 0.69824 0.0
H426 H 0.11647 0.67098 0.73 0.0
H427 H 0.1453 0.61579 0.87911 0.0
H428 H 0.13737 0.60435 0.83117 0.0
H429 H 0.11243 0.6586 0.8186 0.0
H430 H 0.12221 0.67122 0.86626 0.0
H431 H 0.13753 0.66045 0.77919 0.0
H432 H 0.07521 0.59558 0.81793 0.0
H433 H 0.05515 0.56264 0.8495 0.0
H434 H 0.09718 0.52786 0.81983 0.0
H435 H 0.11774 0.56072 0.78837 0.0
C436 C 0.12866 0.61178 0.65812 0.0
C437 C 0.14491 0.60164 0.65574 0.0
C438 C 0.12096 0.61529 0.68405 0.0
C439 C 0.12919 0.6084 0.7078 0.0
C440 C 0.14457 0.59738 0.7053 0.0
C441 C 0.15246 0.59417 0.6796 0.0
C442 C 0.12372 0.61428 0.73555 0.0
C443 C 0.11267 0.59608 0.75426 0.0
C444 C 0.1317 0.63773 0.74446 0.0
C445 C 0.14325 0.6577 0.7256 0.0
C446 C 0.16462 0.66127 0.71296 0.0
C447 C 0.17521 0.68004 0.69494 0.0
C448 C 0.16467 0.69545 0.6896 0.0
C449 C 0.14356 0.69216 0.70235 0.0
C450 C 0.13289 0.6734 0.72036 0.0
C451 C 0.1379 0.62509 0.86614 0.0
C452 C 0.1344 0.64439 0.87624 0.0
C453 C 0.13309 0.61838 0.83876 0.0
C454 C 0.12372 0.6302 0.8212 0.0
C455 C 0.11959 0.64912 0.83163 0.0
C456 C 0.12516 0.65634 0.85882 0.0
C457 C 0.12045 0.6242 0.79149 0.0
C458 C 0.12994 0.64241 0.77227 0.0
C459 C 0.11057 0.60069 0.78209 0.0
C460 C 0.09808 0.58071 0.80082 0.0
C461 C 0.08026 0.58096 0.81822 0.0
C462 C 0.06879 0.56229 0.8361 0.0
C463 C 0.0749 0.54318 0.83668 0.0
C464 C 0.09245 0.54267 0.81934 0.0
C465 C 0.10399 0.5613 0.80143 0.0
H466 H 0.06601 0.52875 0.85056 0.0
H467 H 0.17289 0.70997 0.67564 0.0
H468 H 0.59958 0.04993 0.03177 0.0
H469 H 0.56795 0.01686 0.00988 0.0
H470 H 0.51692 0.0366 0.049 0.0
H471 H 0.54846 0.07008 0.07044 0.0
H472 H 0.50695 0.98453 0.04541 0.0
H473 H 0.52567 0.05527 0.99276 0.0
H474 H 0.55273 0.09143 0.97011 0.0
H475 H 0.57752 0.05119 0.91782 0.0
H476 H 0.55086 0.01479 0.94053 0.0
H477 H 0.41316 0.91862 0.95986 0.0
H478 H 0.44052 0.95427 0.9821 0.0
H479 H 0.49774 0.94911 0.9375 0.0
H480 H 0.47052 0.91346 0.91512 0.0
H481 H 0.50288 0.99525 0.94483 0.0
H482 H 0.48532 0.92486 0.99759 0.0
H483 H 0.45922 0.88838 0.02047 0.0
H484 H 0.43303 0.92739 0.07287 0.0
H485 H 0.45871 0.9641 0.04993 0.0
C486 C 0.58162 0.04685 0.03627 0.0
C487 C 0.57637 0.06257 0.05256 0.0
C488 C 0.56363 0.02807 0.0237 0.0
C489 C 0.54028 0.02461 0.02772 0.0
C490 C 0.53492 0.03915 0.04572 0.0
C491 C 0.5529 0.0582 0.05786 0.0
C492 C 0.52173 0.00732 0.01098 0.0
C493 C 0.50576 0.98695 0.02351 0.0
C494 C 0.52057 0.01056 0.98241 0.0
C495 C 0.53649 0.03236 0.96856 0.0
C496 C 0.53707 0.05416 0.97663 0.0
C497 C 0.5523 0.07469 0.96375 0.0
C498 C 0.5669 0.07362 0.9426 0.0
C499 C 0.56624 0.052 0.93424 0.0
C500 C 0.55106 0.03141 0.9471 0.0
C501 C 0.43147 0.92543 0.95419 0.0
C502 C 0.43981 0.91309 0.93611 0.0
C503 C 0.44705 0.94573 0.96699 0.0
C504 C 0.47111 0.95393 0.96179 0.0
C505 C 0.4792 0.94289 0.94184 0.0
C506 C 0.46365 0.92253 0.92913 0.0
C507 C 0.48806 0.9723 0.97919 0.0
C508 C 0.50383 0.99288 0.96678 0.0
C509 C 0.48905 0.9692 0.00788 0.0
C510 C 0.47371 0.94718 0.02182 0.0
C511 C 0.47384 0.92564 0.01382 0.0
C512 C 0.45915 0.90493 0.02682 0.0
C513 C 0.44442 0.90556 0.04805 0.0
C514 C 0.44441 0.92692 0.05637 0.0
C515 C 0.45903 0.94769 0.04338 0.0
H516 H 0.43307 0.88951 0.05811 0.0
H517 H 0.57867 0.08954 0.93263 0.0
H518 H 0.5077 0.60131 0.53566 0.0
H519 H 0.52645 0.57602 0.52012 0.0
H520 H 0.45889 0.51826 0.51243 0.0
H521 H 0.43999 0.54336 0.52817 0.0
H522 H 0.49095 0.50543 0.53752 0.0
H523 H 0.48574 0.54524 0.45607 0.0
H524 H 0.49027 0.57925 0.42734 0.0
H525 H 0.56475 0.60738 0.43832 0.0
H526 H 0.56065 0.5737 0.46746 0.0
H527 H 0.54163 0.43715 0.46589 0.0
H528 H 0.51675 0.45707 0.47937 0.0
H529 H 0.57764 0.52263 0.48392 0.0
H530 H 0.60234 0.50303 0.4695 0.0
H531 H 0.54435 0.52834 0.45726 0.0
H532 H 0.54865 0.48942 0.54215 0.0
H533 H 0.54342 0.45521 0.57092 0.0
H534 H 0.4699 0.4249 0.55295 0.0
H535 H 0.47475 0.45881 0.5238 0.0
C536 C 0.49685 0.58323 0.53069 0.0
C537 C 0.4724 0.57432 0.533 0.0
C538 C 0.50756 0.56884 0.52174 0.0
C539 C 0.49399 0.54539 0.51487 0.0
C540 C 0.46961 0.53634 0.51759 0.0
C541 C 0.45888 0.55072 0.52649 0.0
C542 C 0.50537 0.53039 0.50483 0.0
C543 C 0.50239 0.5102 0.51974 0.0
C544 C 0.52031 0.53677 0.48174 0.0
C545 C 0.52286 0.55703 0.46414 0.0
C546 C 0.50307 0.55877 0.45254 0.0
C547 C 0.50556 0.57797 0.43615 0.0
C548 C 0.52777 0.59549 0.43105 0.0
C549 C 0.54755 0.59381 0.4423 0.0
C550 C 0.54515 0.57465 0.45873 0.0
C551 C 0.54965 0.45579 0.46992 0.0
C552 C 0.57386 0.4686 0.46662 0.0
C553 C 0.53546 0.46712 0.4777 0.0
C554 C 0.54538 0.4913 0.48287 0.0
C555 C 0.56961 0.50398 0.47993 0.0
C556 C 0.5837 0.49276 0.47175 0.0
C557 C 0.5307 0.50381 0.49056 0.0
C558 C 0.53287 0.52346 0.475 0.0
C559 C 0.51499 0.49687 0.51301 0.0
C560 C 0.51211 0.47652 0.53056 0.0
C561 C 0.53141 0.47537 0.54417 0.0
C562 C 0.5285 0.45605 0.56058 0.0
C563 C 0.50635 0.43786 0.56369 0.0
C564 C 0.48705 0.43898 0.55047 0.0
C565 C 0.48986 0.45825 0.53403 0.0
H566 H 0.50414 0.42292 0.5764 0.0
H567 H 0.52967 0.61034 0.41835 0.0
H568 H 0.06053 0.59957 0.96176 0.0
H569 H 0.02583 0.56312 0.96793 0.0
H570 H 0.06956 0.52595 0.98229 0.0
H571 H 0.10441 0.56226 0.97559 0.0
H572 H 0.02956 0.4996 0.95204 0.0
H573 H 0.04958 0.54246 0.03609 0.0
H574 H 0.06069 0.57727 0.06574 0.0
H575 H 0.99633 0.58284 0.04609 0.0
H576 H 0.98499 0.54826 0.01599 0.0
H577 H 0.92563 0.41303 0.0256 0.0
H578 H 0.96573 0.43772 0.01005 0.0
H579 H 0.94266 0.4908 0.98431 0.0
H580 H 0.90329 0.46679 0.00033 0.0
H581 H 0.97691 0.50435 0.02563 0.0
H582 H 0.95891 0.46231 0.93813 0.0
H583 H 0.9485 0.42697 0.90954 0.0
H584 H 0.00937 0.41841 0.93814 0.0
H585 H 0.01996 0.45354 0.96721 0.0
C586 C 0.06275 0.58362 0.96598 0.0
C587 C 0.0851 0.58379 0.96864 0.0
C588 C 0.04297 0.56283 0.96941 0.0
C589 C 0.04527 0.54202 0.97596 0.0
C590 C 0.06752 0.54188 0.97729 0.0
C591 C 0.08735 0.56265 0.97365 0.0
C592 C 0.02441 0.52109 0.98374 0.0
C593 C 0.01813 0.50043 0.96835 0.0
C594 C 0.00986 0.52217 0.00534 0.0
C595 C 0.01651 0.54285 0.02366 0.0
C596 C 0.03786 0.5512 0.03796 0.0
C597 C 0.04419 0.57087 0.05486 0.0
C598 C 0.02924 0.58228 0.05776 0.0
C599 C 0.00789 0.57399 0.04382 0.0
C600 C 0.00149 0.55433 0.02687 0.0
C601 C 0.92919 0.42974 0.01599 0.0
C602 C 0.91178 0.4384 0.01456 0.0
C603 C 0.95194 0.44371 0.00708 0.0
C604 C 0.95702 0.46608 0.99634 0.0
C605 C 0.93902 0.47364 0.99276 0.0
C606 C 0.91663 0.46001 0.00201 0.0
C607 C 0.98122 0.48341 0.99279 0.0
C608 C 0.9884 0.50334 0.00947 0.0
C609 C 0.9965 0.48145 0.9726 0.0
C610 C 0.99005 0.46037 0.95512 0.0
C611 C 0.96993 0.45275 0.93856 0.0
C612 C 0.96404 0.43279 0.9222 0.0
C613 C 0.97822 0.4204 0.9221 0.0
C614 C -0.00163 0.42799 0.93829 0.0
C615 C 0.00434 0.44793 0.95468 0.0
H616 H 0.97363 0.40496 0.90942 0.0
H617 H 0.03417 0.59752 0.07085 0.0
H618 H 0.53149 0.07825 0.5169 0.0
H619 H 0.51425 0.03747 0.53103 0.0
H620 H 0.5642 0.02369 0.48107 0.0
H621 H 0.58198 0.06517 0.46731 0.0
H622 H 0.51946 -0.00046 0.46483 0.0
H623 H 0.55948 0.0065 0.54685 0.0
H624 H 0.57897 0.02322 0.59048 0.0
H625 H 0.51336 0.01647 0.62478 0.0
H626 H 0.49348 5e-05 0.58124 0.0
H627 H 0.42805 0.88649 0.49338 0.0
H628 H 0.46708 0.91814 0.4915 0.0
H629 H 0.44104 0.96448 0.53086 0.0
H630 H 0.40163 0.9327 0.53275 0.0
H631 H 0.48405 0.96421 0.55381 0.0
H632 H 0.44912 0.96956 0.46579 0.0
H633 H 0.43032 0.95389 0.42143 0.0
H634 H 0.48855 0.9381 0.39872 0.0
H635 H 0.50755 0.95343 0.44315 0.0
C636 C 0.53928 0.06667 0.50972 0.0
C637 C 0.55771 0.07447 0.49083 0.0
C638 C 0.52965 0.04345 0.51806 0.0
C639 C 0.53803 0.02758 0.50718 0.0
C640 C 0.55769 0.03577 0.48987 0.0
C641 C 0.56773 0.05931 0.48197 0.0
C642 C 0.52263 0.00245 0.50888 0.0
C643 C 0.51231 0.99135 0.48432 0.0
C644 C 0.51319 0.99194 0.53429 0.0
C645 C 0.52496 0.00199 0.56066 0.0
C646 C 0.5492 0.00871 0.56361 0.0
C647 C 0.56033 0.01812 0.58836 0.0
C648 C 0.54741 0.0209 0.61039 0.0
C649 C 0.52334 0.01426 0.60771 0.0
C650 C 0.51211 0.00483 0.583 0.0
C651 C 0.43058 0.90348 0.50147 0.0
C652 C 0.41188 0.90727 0.51316 0.0
C653 C 0.45287 0.92145 0.50046 0.0
C654 C 0.45683 0.94344 0.51124 0.0
C655 C 0.43819 0.94744 0.52266 0.0
C656 C 0.41573 0.92946 0.52342 0.0
C657 C 0.48033 0.96254 0.50989 0.0
C658 C 0.49192 0.97209 0.53446 0.0
C659 C 0.49106 0.97163 0.48451 0.0
C660 C 0.47957 0.96229 0.45792 0.0
C661 C 0.45778 0.96251 0.45146 0.0
C662 C 0.44712 0.95375 0.42628 0.0
C663 C 0.45819 0.94491 0.40732 0.0
C664 C 0.47997 0.94488 0.41346 0.0
C665 C 0.49069 0.9536 0.43863 0.0
H666 H 0.44992 0.93816 0.38782 0.0
H667 H 0.55606 0.02818 0.62954 0.0
H668 H 0.38358 0.487 0.97307 0.0
H669 H 0.40516 0.46391 0.98726 0.0
H670 H 0.47034 0.52437 0.97704 0.0
H671 H 0.44892 0.54764 0.96298 0.0
H672 H 0.47014 0.48409 0.95268 0.0
H673 H 0.45213 0.50888 0.03893 0.0
H674 H 0.427 0.51479 0.0744 0.0
H675 H 0.38741 0.44048 0.08021 0.0
H676 H 0.41212 0.43414 0.04443 0.0
H677 H 0.546 0.44395 0.02099 0.0
H678 H 0.52336 0.46578 0.00698 0.0
H679 H 0.45929 0.40499 0.02178 0.0
H680 H 0.48195 0.38297 0.03633 0.0
H681 H 0.45832 0.44487 0.04338 0.0
H682 H 0.47833 0.42081 0.95692 0.0
H683 H 0.50497 0.41633 0.92234 0.0
H684 H 0.54242 0.491 0.91783 0.0
H685 H 0.51621 0.49592 0.95268 0.0
C686 C 0.4025 0.49538 0.9739 0.0
C687 C 0.4146 0.51909 0.96697 0.0
C688 C 0.41477 0.48221 0.98208 0.0
C689 C 0.43927 0.49253 0.98329 0.0
C690 C 0.4514 0.51616 0.97622 0.0
C691 C 0.43915 0.5294 0.9683 0.0
C692 C 0.45228 0.47853 0.99151 0.0
C693 C 0.46779 0.4757 0.97261 0.0
C694 C 0.44877 0.46733 0.01733 0.0
C695 C 0.4338 0.47105 0.03875 0.0
C696 C 0.43791 0.49381 0.04755 0.0
C697 C 0.42378 0.49723 0.06776 0.0
C698 C 0.40557 0.47803 0.07948 0.0
C699 C 0.40149 0.45534 0.07106 0.0
C700 C 0.41557 0.45182 0.05083 0.0
C701 C 0.52709 0.43514 0.02118 0.0
C702 C 0.51572 0.41171 0.02965 0.0
C703 C 0.51419 0.44764 0.01306 0.0
C704 C 0.48969 0.43689 0.01302 0.0
C705 C 0.47823 0.41353 0.0216 0.0
C706 C 0.49116 0.40098 0.0298 0.0
C707 C 0.47614 0.4503 0.00449 0.0
C708 C 0.46056 0.4531 0.02337 0.0
C709 C 0.47972 0.46163 0.9787 0.0
C710 C 0.49541 0.45871 0.95758 0.0
C711 C 0.49235 0.43627 0.9487 0.0
C712 C 0.50736 0.43365 0.92903 0.0
C713 C 0.52541 0.45337 0.91794 0.0
C714 C 0.52845 0.47574 0.92645 0.0
C715 C 0.5135 0.47846 0.94614 0.0
H716 H 0.53701 0.4513 0.90271 0.0
H717 H 0.39466 0.48071 0.09515 0.0
H718 H 0.94378 0.40239 0.44453 0.0
H719 H 0.97857 0.43318 0.46515 0.0
H720 H 0.93417 0.45942 0.50882 0.0
H721 H 0.89998 0.43004 0.48679 0.0
H722 H 0.96786 0.49395 0.49201 0.0
H723 H 0.96171 0.42446 0.53931 0.0
H724 H 0.95902 0.38417 0.54366 0.0
H725 H 0.02564 0.40455 0.50389 0.0
H726 H 0.0286 0.44491 0.49901 0.0
H727 H 0.07617 0.53094 0.59305 0.0
H728 H 0.03781 0.50333 0.57698 0.0
H729 H 0.04633 0.54465 0.50351 0.0
H730 H 0.0838 0.57299 0.52048 0.0
H731 H 0.02971 0.47628 0.53706 0.0
H732 H 0.99621 0.5345 0.47207 0.0
H733 H 0.99578 0.5737 0.47411 0.0
H734 H 0.00245 0.5741 0.56179 0.0
H735 H 0.00261 0.53479 0.56032 0.0
C736 C 0.94166 0.41484 0.45852 0.0
C737 C 0.91941 0.41406 0.46408 0.0
C738 C 0.96143 0.4323 0.47041 0.0
C739 C 0.959 0.44851 0.48882 0.0
C740 C 0.9366 0.44733 0.49453 0.0
C741 C 0.91706 0.43048 0.48203 0.0
C742 C 0.97957 0.46693 0.50214 0.0
C743 C 0.98134 0.49005 0.50196 0.0
C744 C -0.00305 0.46185 0.51559 0.0
C745 C 0.99526 0.43763 0.51857 0.0
C746 C 0.97571 0.4203 0.53134 0.0
C747 C 0.97415 0.39746 0.53392 0.0
C748 C 0.99212 0.39179 0.524 0.0
C749 C 0.01172 0.40896 0.51153 0.0
C750 C 0.01336 0.43182 0.50888 0.0
C751 C 0.06941 0.53442 0.5739 0.0
C752 C 0.08274 0.55402 0.558 0.0
C753 C 0.04763 0.5186 0.56463 0.0
C754 C 0.03913 0.52186 0.53901 0.0
C755 C 0.05216 0.54197 0.52361 0.0
C756 C 0.07363 0.55815 0.53328 0.0
C757 C 0.0178 0.50324 0.52733 0.0
C758 C 0.01607 0.48015 0.52745 0.0
C759 C -9e-05 0.50817 0.51493 0.0
C760 C -0.00036 0.53177 0.51604 0.0
C761 C -0.00252 0.54291 0.49179 0.0
C762 C -0.00269 0.56516 0.49285 0.0
C763 C -0.00085 0.57641 0.51806 0.0
C764 C 0.00111 0.56541 0.54227 0.0
C765 C 0.00128 0.54315 0.54133 0.0
H766 H -0.00097 0.59364 0.51883 0.0
H767 H 0.99087 0.3741 0.52601 0.0
H768 H 0.59362 0.17196 0.07148 0.0
H769 H 0.57928 0.20096 0.05662 0.0
H770 H 0.64746 0.24387 0.02381 0.0
H771 H 0.66196 0.21507 0.03907 0.0
H772 H 0.63221 0.26908 0.0533 0.0
H773 H 0.59937 0.21402 0.9815 0.0
H774 H 0.57727 0.17535 0.96059 0.0
H775 H 0.51467 0.17088 0.00104 0.0
H776 H 0.53645 0.20937 0.02255 0.0
H777 H 0.5851 0.34931 0.00319 0.0
H778 H 0.60171 0.31994 0.99957 0.0
H779 H 0.54575 0.27256 0.04984 0.0
H780 H 0.52941 0.30186 0.05394 0.0
H781 H 0.55793 0.2513 0.0034 0.0
H782 H 0.59219 0.30344 0.07958 0.0
H783 H 0.61575 0.3386 0.10632 0.0
H784 H 0.67679 0.3468 0.05978 0.0
H785 H 0.65353 0.31197 0.03233 0.0
C786 C 0.60555 0.18755 0.06104 0.0
C787 C 0.62905 0.19142 0.05682 0.0
C788 C 0.59726 0.204 0.05228 0.0
C789 C 0.61218 0.22445 0.0387 0.0
C790 C 0.6356 0.22821 0.0342 0.0
C791 C 0.64394 0.21185 0.04316 0.0
C792 C 0.60386 0.24277 0.03134 0.0
C793 C 0.61632 0.26538 0.04166 0.0
C794 C 0.58282 0.23773 0.01673 0.0
C795 C 0.56961 0.21455 0.00379 0.0
C796 C 0.58093 0.20473 0.98611 0.0
C797 C 0.56845 0.18284 0.97412 0.0
C798 C 0.54459 0.17065 0.97952 0.0
C799 C 0.53315 0.18034 0.99688 0.0
C800 C 0.54556 0.20221 0.00895 0.0
C801 C 0.57602 0.33235 0.01275 0.0
C802 C 0.55586 0.32765 0.02862 0.0
C803 C 0.58568 0.31577 0.01098 0.0
C804 C 0.57509 0.29425 0.02471 0.0
C805 C 0.55417 0.28907 0.03911 0.0
C806 C 0.54481 0.30574 0.04135 0.0
C807 C 0.58623 0.27748 0.02565 0.0
C808 C 0.57422 0.25515 0.01423 0.0
C809 C 0.60776 0.28278 0.03926 0.0
C810 C 0.62094 0.30537 0.05339 0.0
C811 C 0.61045 0.31312 0.07443 0.0
C812 C 0.62382 0.3329 0.08989 0.0
C813 C 0.6477 0.34501 0.08461 0.0
C814 C 0.65825 0.3375 0.06372 0.0
C815 C 0.64497 0.31779 0.04816 0.0
H816 H 0.65811 0.36009 0.09688 0.0
H817 H 0.53496 0.15371 0.97022 0.0
H818 H 0.37592 0.58308 0.52694 0.0
H819 H 0.33632 0.56935 0.50862 0.0
H820 H 0.32394 0.62043 0.55797 0.0
H821 H 0.36376 0.63484 0.57565 0.0
H822 H 0.29587 0.54942 0.53081 0.0
H823 H 0.29049 0.64018 0.53147 0.0
H824 H 0.31541 0.68109 0.51935 0.0
H825 H 0.35485 0.65787 0.46397 0.0
H826 H 0.33036 0.61678 0.47602 0.0
H827 H 0.19533 0.55305 0.57776 0.0
H828 H 0.23193 0.55251 0.56228 0.0
H829 H 0.22205 0.57672 0.4823 0.0
H830 H 0.18509 0.57746 0.49803 0.0
H831 H 0.2618 0.60509 0.503 0.0
H832 H 0.22896 0.52494 0.4875 0.0
H833 H 0.20382 0.48309 0.49399 0.0
H834 H 0.24016 0.48259 0.56847 0.0
H835 H 0.26529 0.52452 0.56273 0.0
C836 C 0.36477 0.59142 0.53393 0.0
C837 C 0.37295 0.61001 0.55288 0.0
C838 C 0.34217 0.58356 0.52333 0.0
C839 C 0.32731 0.59411 0.53151 0.0
C840 C 0.33532 0.61245 0.55073 0.0
C841 C 0.35801 0.62051 0.56109 0.0
C842 C 0.30298 0.58531 0.52126 0.0
C843 C 0.28839 0.56147 0.52436 0.0
C844 C 0.29347 0.60077 0.51136 0.0
C845 C 0.30851 0.62544 0.50451 0.0
C846 C 0.30445 0.6438 0.51668 0.0
C847 C 0.31859 0.667 0.50996 0.0
C848 C 0.33653 0.67199 0.49074 0.0
C849 C 0.34087 0.6539 0.47878 0.0
C850 C 0.32696 0.63067 0.48566 0.0
C851 C 0.20061 0.55761 0.55663 0.0
C852 C 0.18763 0.56555 0.53915 0.0
C853 C 0.22143 0.55705 0.54766 0.0
C854 C 0.22968 0.56441 0.52103 0.0
C855 C 0.21589 0.57082 0.50286 0.0
C856 C 0.19483 0.57122 0.51183 0.0
C857 C 0.25438 0.56952 0.51473 0.0
C858 C 0.26922 0.59275 0.50846 0.0
C859 C 0.2641 0.55328 0.52087 0.0
C860 C 0.24907 0.52797 0.52463 0.0
C861 C 0.23153 0.51597 0.50536 0.0
C862 C 0.21728 0.4922 0.5089 0.0
C863 C 0.2204 0.48019 0.53162 0.0
C864 C 0.2378 0.49191 0.55084 0.0
C865 C 0.2521 0.51568 0.54741 0.0
H866 H 0.20934 0.46179 0.53432 0.0
H867 H 0.3468 0.68983 0.48474 0.0
H868 H 0.82159 0.33712 0.02732 0.0
H869 H 0.79804 0.29664 0.01348 0.0
H870 H 0.73539 0.30408 0.03866 0.0
H871 H 0.75863 0.34425 0.05282 0.0
H872 H 0.74064 0.26819 0.06346 0.0
H873 H 0.74618 0.29855 0.97165 0.0
H874 H 0.76691 0.31962 0.93034 0.0
H875 H 0.80002 0.27194 0.92179 0.0
H876 H 0.77974 0.25077 0.9633 0.0
H877 H 0.64895 0.16752 0.00191 0.0
H878 H 0.67961 0.20688 0.99517 0.0
H879 H 0.73039 0.18491 0.03052 0.0
H880 H 0.6996 0.1459 0.03878 0.0
H881 H 0.73365 0.2274 0.97448 0.0
H882 H 0.73301 0.20279 0.07344 0.0
H883 H 0.7141 0.18556 0.11718 0.0
H884 H 0.67383 0.22696 0.11445 0.0
H885 H 0.69205 0.24388 0.07021 0.0
C886 C 0.80277 0.33021 0.02963 0.0
C887 C 0.79202 0.34377 0.04167 0.0
C888 C 0.78935 0.30715 0.02147 0.0
C889 C 0.76501 0.29743 0.02502 0.0
C890 C 0.75418 0.31129 0.03581 0.0
C891 C 0.76753 0.3342 0.04407 0.0
C892 C 0.75098 0.27211 0.02103 0.0
C893 C 0.73906 0.25932 0.04394 0.0
C894 C 0.74946 0.26051 0.99572 0.0
C895 C 0.76163 0.27323 0.97077 0.0
C896 C 0.75805 0.29269 0.96112 0.0
C897 C 0.76968 0.30462 0.93763 0.0
C898 C 0.78483 0.29717 0.9235 0.0
C899 C 0.78832 0.27772 0.93278 0.0
C900 C 0.77674 0.26574 0.95627 0.0
C901 C 0.66681 0.17078 0.00718 0.0
C902 C 0.6719 0.15388 0.02138 0.0
C903 C 0.68425 0.19334 0.00361 0.0
C904 C 0.7069 0.19893 0.01364 0.0
C905 C 0.71274 0.18108 0.02376 0.0
C906 C 0.69524 0.15874 0.02803 0.0
C907 C 0.72324 0.22367 0.01694 0.0
C908 C 0.73548 0.23633 0.99398 0.0
C909 C 0.72528 0.23534 0.04234 0.0
C910 C 0.71292 0.22358 0.06768 0.0
C911 C 0.71944 0.2075 0.08155 0.0
C912 C 0.7091 0.19805 0.10668 0.0
C913 C 0.69257 0.20495 0.11846 0.0
C914 C 0.68647 0.22145 0.10522 0.0
C915 C 0.69669 0.23084 0.08002 0.0
H916 H 0.6846 0.19763 0.13792 0.0
H917 H 0.79381 0.30643 0.90531 0.0
H918 H 0.31177 0.75321 0.53912 0.0
H919 H 0.32754 0.72339 0.53322 0.0
H920 H 0.39177 0.77614 0.50136 0.0
H921 H 0.37606 0.80525 0.50583 0.0
H922 H 0.38367 0.739 0.47495 0.0
H923 H 0.38317 0.75765 0.57196 0.0
H924 H 0.36443 0.76022 0.61563 0.0
H925 H 0.32185 0.68632 0.61283 0.0
H926 H 0.34025 0.68337 0.569 0.0
H927 H 0.45758 0.688 0.55846 0.0
H928 H 0.43566 0.71212 0.55164 0.0
H929 H 0.39739 0.66722 0.48529 0.0
H930 H 0.41943 0.64311 0.49182 0.0
H931 H 0.38835 0.69596 0.55852 0.0
H932 H 0.37961 0.70158 0.4422 0.0
H933 H 0.40082 0.70099 0.39972 0.0
H934 H 0.4661 0.72987 0.44319 0.0
H935 H 0.44529 0.73088 0.48583 0.0
C936 C 0.32909 0.75828 0.53049 0.0
C937 C 0.34274 0.78172 0.52344 0.0
C938 C 0.33815 0.74128 0.52725 0.0
C939 C 0.36107 0.7476 0.51732 0.0
C940 C 0.37409 0.77073 0.50906 0.0
C941 C 0.36504 0.78748 0.51191 0.0
C942 C 0.3726 0.73105 0.51707 0.0
C943 C 0.38457 0.72951 0.49322 0.0
C944 C 0.37387 0.7186 0.54081 0.0
C945 C 0.36285 0.72035 0.5671 0.0
C946 C 0.36971 0.74199 0.5806 0.0
C947 C 0.35917 0.74351 0.60538 0.0
C948 C 0.3419 0.72346 0.61695 0.0
C949 C 0.33518 0.70184 0.60381 0.0
C950 C 0.34566 0.70023 0.57901 0.0
C951 C 0.44496 0.68364 0.54192 0.0
C952 C 0.44023 0.66369 0.5257 0.0
C953 C 0.43229 0.69728 0.53823 0.0
C954 C 0.41475 0.6913 0.51817 0.0
C955 C 0.41092 0.67219 0.50081 0.0
C956 C 0.42367 0.65854 0.50445 0.0
C957 C 0.39973 0.70439 0.51666 0.0
C958 C 0.38718 0.70525 0.54018 0.0
C959 C 0.39811 0.71635 0.49273 0.0
C960 C 0.41087 0.71604 0.46723 0.0
C961 C 0.3985 0.70784 0.44266 0.0
C962 C 0.41044 0.70743 0.41856 0.0
C963 C 0.43478 0.71531 0.41878 0.0
C964 C 0.44724 0.72368 0.44308 0.0
C965 C 0.43537 0.72414 0.46722 0.0
H966 H 0.444 0.71497 0.40011 0.0
H967 H 0.33376 0.72468 0.63614 0.0
H968 H 0.6155 0.40433 0.01403 0.0
H969 H 0.65566 0.4234 0.99655 0.0
H970 H 0.68168 0.40888 0.07306 0.0
H971 H 0.64155 0.38982 0.0906 0.0
H972 H 0.70684 0.45695 0.04918 0.0
H973 H 0.67216 0.37242 0.02261 0.0
H974 H 0.64364 0.3394 0.99628 0.0
H975 H 0.66595 0.37887 0.92178 0.0
H976 H 0.69459 0.41208 0.94777 0.0
H977 H 0.79988 0.43336 0.06988 0.0
H978 H 0.76449 0.43868 0.06183 0.0
H979 H 0.77336 0.43481 0.97433 0.0
H980 H 0.80879 0.42788 0.9826 0.0
H981 H 0.73148 0.40961 0.98519 0.0
H982 H 0.77477 0.48725 0.00659 0.0
H983 H 0.80421 0.52232 0.02867 0.0
H984 H 0.76704 0.50302 0.10504 0.0
H985 H 0.73758 0.46764 0.08363 0.0
C986 C 0.62987 0.40548 0.02719 0.0
C987 C 0.62559 0.39542 0.05355 0.0
C988 C 0.65269 0.41635 0.01717 0.0
C989 C 0.6715 0.41755 0.03356 0.0
C990 C 0.6673 0.40819 0.06021 0.0
C991 C 0.64447 0.39708 0.07008 0.0
C992 C 0.69555 0.42691 0.02269 0.0
C993 C 0.71242 0.44686 0.03504 0.0
C994 C 0.70243 0.41471 0.00262 0.0
C995 C 0.68525 0.39474 0.98716 0.0
C996 C 0.67083 0.37404 0.00067 0.0
C997 C 0.65468 0.35531 0.98582 0.0
C998 C 0.65286 0.35707 0.95742 0.0
C999 C 0.66731 0.37754 0.94379 0.0
C1000 C 0.68353 0.3963 0.95857 0.0
C1001 C 0.79456 0.43383 0.04884 0.0
C1002 C 0.80702 0.42999 0.02686 0.0
C1003 C 0.7744 0.43734 0.0442 0.0
C1004 C 0.76648 0.43789 0.0174 0.0
C1005 C 0.77926 0.43473 0.99519 0.0
C1006 C 0.79943 0.43074 -9e-05 0.0
C1007 C 0.74325 0.43857 0.01367 0.0
C1008 C 0.7263 0.42061 0.99841 0.0
C1009 C 0.73632 0.45329 0.03019 0.0
C1010 C 0.75384 0.47475 0.04337 0.0
C1011 C 0.77288 0.49042 0.02812 0.0
C1012 C 0.7896 0.51037 0.04054 0.0
C1013 C 0.78748 0.51491 0.06823 0.0
C1014 C 0.76862 0.49952 0.08356 0.0
C1015 C 0.75184 0.47954 0.07125 0.0
H1016 H 0.80046 0.53035 0.07781 0.0
H1017 H 0.64032 0.34255 0.94597 0.0
H1018 H 0.16838 0.64419 0.51574 0.0
H1019 H 0.18392 0.67916 0.4869 0.0
H1020 H 0.25107 0.70035 0.52659 0.0
H1021 H 0.23592 0.66514 0.5547 0.0
H1022 H 0.19799 0.72186 0.49711 0.0
H1023 H 0.29622 0.73232 0.48599 0.0
H1024 H 0.31717 0.70765 0.4753 0.0
H1025 H 0.25392 0.65415 0.44375 0.0
H1026 H 0.23273 0.67897 0.45309 0.0
H1027 H 0.28052 0.82987 0.52115 0.0
H1028 H 0.24939 0.79268 0.51065 0.0
H1029 H 0.28498 0.78846 0.43615 0.0
H1030 H 0.31775 0.82504 0.44846 0.0
H1031 H 0.27863 0.7533 0.45993 0.0
H1032 H 0.22278 0.78129 0.44 0.0
H1033 H 0.20026 0.80563 0.44135 0.0
H1034 H 0.17523 0.77994 0.52198 0.0
H1035 H 0.19787 0.75573 0.52139 0.0
C1036 C 0.18651 0.65624 0.5182 0.0
C1037 C 0.20091 0.65189 0.53758 0.0
C1038 C 0.19537 0.67622 0.50164 0.0
C1039 C 0.21878 0.69227 0.5042 0.0
C1040 C 0.23313 0.68794 0.52361 0.0
C1041 C 0.22438 0.66787 0.53991 0.0
C1042 C 0.22798 0.71445 0.48824 0.0
C1043 C 0.21554 0.72873 0.48871 0.0
C1044 C 0.25022 0.72287 0.47551 0.0
C1045 C 0.26279 0.70755 0.47044 0.0
C1046 C 0.28674 0.71537 0.47663 0.0
C1047 C 0.2987 0.70134 0.47075 0.0
C1048 C 0.28686 0.67927 0.45896 0.0
C1049 C 0.26305 0.67123 0.45296 0.0
C1050 C 0.25107 0.68532 0.45848 0.0
C1051 C 0.28151 0.8214 0.5021 0.0
C1052 C 0.302 0.82988 0.48624 0.0
C1053 C 0.2633 0.80009 0.49575 0.0
C1054 C 0.26466 0.78728 0.47263 0.0
C1055 C 0.28361 0.79766 0.45444 0.0
C1056 C 0.30231 0.81871 0.46135 0.0
C1057 C 0.24968 0.76166 0.47154 0.0
C1058 C 0.26086 0.74645 0.46764 0.0
C1059 C 0.22596 0.75217 0.48 0.0
C1060 C 0.21204 0.76657 0.48057 0.0
C1061 C 0.21255 0.78087 0.45808 0.0
C1062 C 0.19975 0.79466 0.45872 0.0
C1063 C 0.1863 0.7943 0.48172 0.0
C1064 C 0.1856 0.78013 0.50413 0.0
C1065 C 0.19836 0.7663 0.50361 0.0
H1066 H 0.17643 0.80502 0.48218 0.0
H1067 H 0.29614 0.66842 0.45438 0.0
H1068 H 0.80221 0.39279 0.40556 0.0
H1069 H 0.77875 0.41315 0.42241 0.0
H1070 H 0.7637 0.37177 0.49661 0.0
H1071 H 0.78559 0.35036 0.47856 0.0
H1072 H 0.72809 0.37676 0.4865 0.0
H1073 H 0.80472 0.4322 0.49361 0.0
H1074 H 0.84579 0.45637 0.48149 0.0
H1075 H 0.8234 0.49043 0.41835 0.0
H1076 H 0.78216 0.46619 0.42976 0.0
H1077 H 0.66171 0.44252 0.51036 0.0
H1078 H 0.69639 0.43512 0.52104 0.0
H1079 H 0.71922 0.45011 0.43691 0.0
H1080 H 0.68566 0.45865 0.42664 0.0
H1081 H 0.75623 0.46221 0.47057 0.0
H1082 H 0.67664 0.39267 0.46536 0.0
H1083 H 0.63853 0.3718 0.48799 0.0
H1084 H 0.67278 0.36806 0.56275 0.0
H1085 H 0.71125 0.38948 0.54086 0.0
C1086 C 0.79351 0.38788 0.42523 0.0
C1087 C 0.79543 0.36994 0.44075 0.0
C1088 C 0.78045 0.39975 0.43512 0.0
C1089 C 0.77002 0.3946 0.46128 0.0
C1090 C 0.77164 0.37627 0.47649 0.0
C1091 C 0.78413 0.36397 0.4662 0.0
C1092 C 0.75691 0.40793 0.4722 0.0
C1093 C 0.7346 0.39554 0.4835 0.0
C1094 C 0.76551 0.4326 0.46962 0.0
C1095 C 0.79029 0.44726 0.46248 0.0
C1096 C 0.80853 0.44472 0.47701 0.0
C1097 C 0.83186 0.45845 0.47027 0.0
C1098 C 0.8372 0.47491 0.44915 0.0
C1099 C 0.81922 0.47768 0.43472 0.0
C1100 C 0.79586 0.46397 0.44134 0.0
C1101 C 0.67453 0.44487 0.49442 0.0
C1102 C 0.67069 0.45053 0.46748 0.0
C1103 C 0.6943 0.44062 0.50052 0.0
C1104 C 0.71003 0.44138 0.47956 0.0
C1105 C 0.70726 0.44921 0.4534 0.0
C1106 C 0.68787 0.45387 0.44746 0.0
C1107 C 0.72712 0.43072 0.48273 0.0
C1108 C 0.75026 0.44357 0.47422 0.0
C1109 C 0.7198 0.40674 0.48926 0.0
C1110 C 0.69672 0.39282 0.50161 0.0
C1111 C 0.67602 0.3874 0.48662 0.0
C1112 C 0.65437 0.37563 0.49936 0.0
C1113 C 0.65316 0.36875 0.52678 0.0
C1114 C 0.6737 0.37352 0.54155 0.0
C1115 C 0.69544 0.38553 0.52905 0.0
H1116 H 0.63632 0.35954 0.53647 0.0
H1117 H 0.85527 0.48553 0.44398 0.0
H1118 H 0.35498 0.78319 0.99004 0.0
H1119 H 0.32028 0.76755 0.01953 0.0
H1120 H 0.28576 0.79933 0.96727 0.0
H1121 H 0.3212 0.8165 0.93908 0.0
H1122 H 0.26984 0.79655 0.01906 0.0
H1123 H 0.28148 0.74227 0.95374 0.0
H1124 H 0.30751 0.72502 0.935 0.0
H1125 H 0.31265 0.69842 0.01484 0.0
H1126 H 0.28651 0.71527 0.03383 0.0
H1127 H 0.15948 0.71454 0.98325 0.0
H1128 H 0.19689 0.74531 0.99588 0.0
H1129 H 0.2084 0.69867 0.0534 0.0
H1130 H 0.17103 0.66753 0.04029 0.0
H1131 H 0.23906 0.70995 0.01395 0.0
H1132 H 0.21354 0.7543 0.07347 0.0
H1133 H 0.18877 0.77371 0.09005 0.0
H1134 H 0.20869 0.81993 0.0206 0.0
H1135 H 0.23331 0.80059 0.00334 0.0
C1136 C 0.3401 0.78718 0.98531 0.0
C1137 C 0.34035 0.80053 0.96213 0.0
C1138 C 0.32036 0.77835 0.00214 0.0
C1139 C 0.30018 0.78173 0.99517 0.0
C1140 C 0.30108 0.79644 0.97303 0.0
C1141 C 0.32117 0.80601 0.95677 0.0
C1142 C 0.27727 0.76703 0.00776 0.0
C1143 C 0.26302 0.77761 0.01815 0.0
C1144 C 0.26861 0.74232 0.00719 0.0
C1145 C 0.28227 0.73014 0.9952 0.0
C1146 C 0.28804 0.73254 0.96717 0.0
C1147 C 0.30288 0.72292 0.95653 0.0
C1148 C 0.31185 0.71072 0.97371 0.0
C1149 C 0.30571 0.7078 0.00147 0.0
C1150 C 0.29079 0.71729 0.01218 0.0
C1151 C 0.16947 0.71116 0.99952 0.0
C1152 C 0.16267 0.68851 0.01025 0.0
C1153 C 0.19086 0.72887 0.00692 0.0
C1154 C 0.20564 0.72425 0.02539 0.0
C1155 C 0.19732 0.70258 0.039 0.0
C1156 C 0.17589 0.68479 0.03154 0.0
C1157 C 0.23105 0.73934 0.02475 0.0
C1158 C 0.24588 0.72883 0.01613 0.0
C1159 C 0.23995 0.76404 0.02673 0.0
C1160 C 0.22529 0.77593 0.03708 0.0
C1161 C 0.21255 0.76852 0.06163 0.0
C1162 C 0.19854 0.77953 0.07117 0.0
C1163 C 0.19716 0.79804 0.05639 0.0
C1164 C 0.20981 0.80561 0.03206 0.0
C1165 C 0.22385 0.79466 0.02242 0.0
H1166 H 0.18628 0.80652 0.0638 0.0
H1167 H 0.3233 0.70329 0.96536 0.0
H1168 H 0.58167 0.18623 0.52148 0.0
H1169 H 0.58867 0.22762 0.52414 0.0
H1170 H 0.53866 0.21743 0.45915 0.0
H1171 H 0.53126 0.17619 0.4569 0.0
H1172 H 0.60828 0.25518 0.48287 0.0
H1173 H 0.51926 0.25942 0.45728 0.0
H1174 H 0.47771 0.23873 0.47003 0.0
H1175 H 0.49737 0.21764 0.54634 0.0
H1176 H 0.53904 0.23846 0.53426 0.0
H1177 H 0.62955 0.35936 0.41061 0.0
H1178 H 0.61662 0.31905 0.42635 0.0
H1179 H 0.57905 0.33342 0.49313 0.0
H1180 H 0.59023 0.37306 0.476 0.0
H1181 H 0.55403 0.2946 0.47722 0.0
H1182 H 0.63742 0.32348 0.50231 0.0
H1183 H 0.68017 0.34213 0.49427 0.0
H1184 H 0.67269 0.29625 0.42614 0.0
H1185 H 0.63006 0.27707 0.43417 0.0
C1186 C 0.57141 0.19262 0.50867 0.0
C1187 C 0.55607 0.17813 0.48881 0.0
C1188 C 0.57556 0.21629 0.51004 0.0
C1189 C 0.56426 0.22564 0.49177 0.0
C1190 C 0.54735 0.21062 0.47372 0.0
C1191 C 0.5432 0.18703 0.47237 0.0
C1192 C 0.57274 0.25128 0.48817 0.0
C1193 C 0.59647 0.2639 0.48202 0.0
C1194 C 0.55738 0.26266 0.48712 0.0
C1195 C 0.53231 0.25042 0.49477 0.0
C1196 C 0.51474 0.25051 0.47687 0.0
C1197 C 0.49115 0.23872 0.48396 0.0
C1198 C 0.4849 0.22684 0.50896 0.0
C1199 C 0.50223 0.22678 0.52695 0.0
C1200 C 0.52584 0.23855 0.51997 0.0
C1201 C 0.61844 0.35386 0.42857 0.0
C1202 C 0.611 0.36945 0.4421 0.0
C1203 C 0.61136 0.33086 0.43789 0.0
C1204 C 0.59744 0.32319 0.46156 0.0
C1205 C 0.58981 0.33875 0.47487 0.0
C1206 C 0.59619 0.36147 0.465 0.0
C1207 C 0.58974 0.29869 0.47169 0.0
C1208 C 0.56603 0.28613 0.47868 0.0
C1209 C 0.6052 0.28737 0.47392 0.0
C1210 C 0.6306 0.29936 0.46843 0.0
C1211 C 0.64493 0.31772 0.48538 0.0
C1212 C 0.6691 0.32826 0.48092 0.0
C1213 C 0.67905 0.32071 0.45941 0.0
C1214 C 0.66492 0.30227 0.44261 0.0
C1215 C 0.6408 0.29148 0.4472 0.0
H1216 H 0.69771 0.32907 0.45588 0.0
H1217 H 0.46663 0.21771 0.51439 0.0
H1218 H 0.19157 0.62425 0.99253 0.0
H1219 H 0.22288 0.61152 0.99889 0.0
H1220 H 0.27105 0.67409 0.95889 0.0
H1221 H 0.23946 0.68716 0.95226 0.0
H1222 H 0.27719 0.64062 0.93882 0.0
H1223 H 0.27543 0.66246 0.02985 0.0
H1224 H 0.25948 0.66696 0.07462 0.0
H1225 H 0.23141 0.59257 0.08691 0.0
H1226 H 0.24689 0.58758 0.04197 0.0
H1227 H 0.36269 0.5941 0.99468 0.0
H1228 H 0.34014 0.61804 0.99763 0.0
H1229 H 0.28111 0.56261 0.96016 0.0
H1230 H 0.30433 0.53937 0.95483 0.0
H1231 H 0.28772 0.59998 0.02168 0.0
H1232 H 0.28811 0.58457 0.91895 0.0
H1233 H 0.30877 0.58794 0.87514 0.0
H1234 H 0.34643 0.66184 0.88793 0.0
H1235 H 0.32707 0.65858 0.93279 0.0
C1236 C 0.20891 0.63561 0.98544 0.0
C1237 C 0.21296 0.65665 0.97161 0.0
C1238 C 0.22695 0.62839 0.98944 0.0
C1239 C 0.2496 0.64212 0.98002 0.0
C1240 C 0.25388 0.66351 0.96692 0.0
C1241 C 0.23579 0.67089 0.96302 0.0
C1242 C 0.26785 0.63269 0.98134 0.0
C1243 C 0.27973 0.63212 0.95715 0.0
C1244 C 0.27161 0.62186 0.00529 0.0
C1245 C 0.26222 0.62465 0.03241 0.0
C1246 C 0.26572 0.64704 0.04199 0.0
C1247 C 0.25678 0.64968 0.06743 0.0
C1248 C 0.24441 0.63005 0.08359 0.0
C1249 C 0.241 0.60775 0.07436 0.0
C1250 C 0.24989 0.60502 0.04891 0.0
C1251 C 0.34476 0.58685 0.9875 0.0
C1252 C 0.33518 0.56489 0.97449 0.0
C1253 C 0.33201 0.60067 0.98895 0.0
C1254 C 0.30928 0.59238 0.97827 0.0
C1255 C 0.29899 0.56964 0.96752 0.0
C1256 C 0.31205 0.55622 0.96497 0.0
C1257 C 0.29597 0.60716 0.97894 0.0
C1258 C 0.28519 0.60875 0.00358 0.0
C1259 C 0.29398 0.61977 0.95572 0.0
C1260 C 0.30683 0.62112 0.9298 0.0
C1261 C 0.3015 0.60133 0.91305 0.0
C1262 C 0.31285 0.60327 0.88788 0.0
C1263 C 0.32908 0.62505 0.87885 0.0
C1264 C 0.33396 0.64495 0.89499 0.0
C1265 C 0.32302 0.643 0.92044 0.0
H1266 H 0.33771 0.62654 0.85927 0.0
H1267 H 0.2375 0.63213 0.10328 0.0
H1268 H 0.64579 0.17338 0.46658 0.0
H1269 H 0.68478 0.20069 0.48035 0.0
H1270 H 0.66387 0.25814 0.47269 0.0
H1271 H 0.62493 0.23093 0.45791 0.0
H1272 H 0.70185 0.26724 0.44616 0.0
H1273 H 0.6771 0.24026 0.53627 0.0
H1274 H 0.65945 0.21158 0.57327 0.0
H1275 H 0.71198 0.18478 0.56218 0.0
H1276 H 0.72975 0.21305 0.5248 0.0
H1277 H 0.81665 0.34145 0.50801 0.0
H1278 H 0.77552 0.31493 0.51526 0.0
H1279 H 0.78193 0.2673 0.45535 0.0
H1280 H 0.82282 0.29363 0.44776 0.0
H1281 H 0.75008 0.25806 0.52219 0.0
H1282 H 0.75905 0.2752 0.41788 0.0
H1283 H 0.76976 0.30137 0.37756 0.0
H1284 H 0.74247 0.34624 0.41714 0.0
H1285 H 0.73241 0.3207 0.45801 0.0
C1286 C 0.64941 0.19182 0.46795 0.0
C1287 C 0.63234 0.20004 0.46084 0.0
C1288 C 0.67165 0.20738 0.47622 0.0
C1289 C 0.67716 0.23142 0.47801 0.0
C1290 C 0.65996 0.23963 0.47158 0.0
C1291 C 0.63778 0.22409 0.46296 0.0
C1292 C 0.70163 0.24815 0.483 0.0
C1293 C 0.71219 0.2654 0.46314 0.0
C1294 C 0.71526 0.24573 0.50502 0.0
C1295 C 0.70469 0.22872 0.52759 0.0
C1296 C 0.6848 0.22814 0.54157 0.0
C1297 C 0.67479 0.21197 0.56264 0.0
C1298 C 0.68457 0.19635 0.57005 0.0
C1299 C 0.70442 0.1969 0.55642 0.0
C1300 C 0.7145 0.21302 0.53531 0.0
C1301 C 0.80955 0.32495 0.49709 0.0
C1302 C 0.82274 0.3199 0.47676 0.0
C1303 C 0.78601 0.30993 0.5011 0.0
C1304 C 0.77564 0.28972 0.48503 0.0
C1305 C 0.78955 0.28324 0.4673 0.0
C1306 C 0.81296 0.2982 0.4632 0.0
C1307 C 0.75005 0.27636 0.48486 0.0
C1308 C 0.73942 0.25993 0.50562 0.0
C1309 C 0.73614 0.27939 0.46369 0.0
C1310 C 0.7457 0.29652 0.44125 0.0
C1311 C 0.75605 0.29105 0.41829 0.0
C1312 C 0.76178 0.30563 0.39523 0.0
C1313 C 0.75692 0.32554 0.39483 0.0
C1314 C 0.74636 0.33091 0.41751 0.0
C1315 C 0.74085 0.31652 0.44069 0.0
H1316 H 0.76129 0.33677 0.37695 0.0
H1317 H 0.67679 0.18384 0.58637 0.0
H1318 H 0.42051 0.62395 0.96585 0.0
H1319 H 0.43472 0.66341 0.9856 0.0
H1320 H 0.37927 0.67472 0.94439 0.0
H1321 H 0.36497 0.63553 0.92524 0.0
H1322 H 0.45067 0.70602 0.96186 0.0
H1323 H 0.35597 0.69426 0.97468 0.0
H1324 H 0.31911 0.66594 0.9952 0.0
H1325 H 0.35822 0.64711 0.05557 0.0
H1326 H 0.39519 0.67456 0.03465 0.0
H1327 H 0.43212 0.79775 0.91483 0.0
H1328 H 0.43564 0.76281 0.93103 0.0
H1329 H 0.41879 0.77638 0.01331 0.0
H1330 H 0.41472 0.81171 0.99674 0.0
H1331 H 0.39264 0.73325 0.00015 0.0
H1332 H 0.47308 0.77533 0.0002 0.0
H1333 H 0.51206 0.80384 0.98586 0.0
H1334 H 0.50765 0.76412 0.91265 0.0
H1335 H 0.4685 0.73556 0.92625 0.0
C1336 C 0.41143 0.63493 0.96092 0.0
C1337 C 0.39152 0.62664 0.94388 0.0
C1338 C 0.41948 0.65737 0.97241 0.0
C1339 C 0.40762 0.6717 0.96718 0.0
C1340 C 0.38822 0.66366 0.94957 0.0
C1341 C 0.38021 0.64137 0.93823 0.0
C1342 C 0.41597 0.69576 0.9782 0.0
C1343 C 0.4383 0.7121 0.97079 0.0
C1344 C 0.40037 0.7035 0.9914 0.0
C1345 C 0.37818 0.68666 0.00342 0.0
C1346 C 0.35658 0.68415 0.99243 0.0
C1347 C 0.33573 0.66818 0.00401 0.0
C1348 C 0.33633 0.65517 0.02707 0.0
C1349 C 0.35778 0.65743 0.03794 0.0
C1350 C 0.37867 0.67296 0.02603 0.0
C1351 C 0.42958 0.79361 0.9365 0.0
C1352 C 0.42306 0.80736 0.95452 0.0
C1353 C 0.43189 0.77371 0.94585 0.0
C1354 C 0.42793 0.76713 0.97353 0.0
C1355 C 0.42219 0.78129 0.99192 0.0
C1356 C 0.41993 0.80144 0.98249 0.0
C1357 C 0.42676 0.74383 0.98155 0.0
C1358 C 0.40569 0.72749 0.9925 0.0
C1359 C 0.44409 0.73621 0.97278 0.0
C1360 C 0.46779 0.7532 0.96436 0.0
C1361 C 0.48036 0.77269 0.98098 0.0
C1362 C 0.50251 0.78888 0.97297 0.0
C1363 C 0.51234 0.78578 0.94838 0.0
C1364 C 0.50004 0.76647 0.93174 0.0
C1365 C 0.47788 0.75022 0.93965 0.0
H1366 H 0.52948 0.79834 0.9422 0.0
H1367 H 0.32021 0.64318 0.03638 0.0
loop_
_geom_bond_atom_site_label_1
_geom_bond_atom_site_label_2
_geom_bond_distance
_geom_bond_site_symmetry_2
_ccdc_geom_bond_type
Co0 O1 2.216 . S
Co0 O2 2.091 . S
Co0 O4 2.004 . S
Co0 O10 2.021 . S
Co0 O12 2.137 . S
Co0 O13 2.244 . S
O1 Co0 2.216 . S
O1 C8 1.247 . S
O2 Co0 2.091 . S
O2 C8 1.261 . S
C3 O12 1.247 . S
C3 O13 1.272 . S
O4 Co0 2.004 . S
O4 C9 1.259 . S
Co5 O6 2.061 . S
Co5 O11 2.052 . S
Co5 O13 2.135 . S
O6 Co5 2.061 . S
O6 C9 1.235 . S
C7 O10 1.238 . S
C7 O11 1.241 . S
C8 O1 1.247 . S
C8 O2 1.261 . S
C9 O4 1.259 . S
C9 O6 1.235 . S
O10 Co0 2.021 . S
O10 C7 1.238 . S
O11 Co5 2.052 . S
O11 C7 1.241 . S
O12 Co0 2.137 . S
O12 C3 1.247 . S
O13 Co0 2.244 . S
O13 C3 1.272 . S
O13 Co5 2.135 . S
Co14 O15 2.216 . S
Co14 O16 2.091 . S
Co14 O18 2.004 . S
Co14 O24 2.021 . S
Co14 O26 2.137 . S
Co14 O27 2.244 . S
O15 Co14 2.216 . S
O15 C22 1.247 . S
O16 Co14 2.091 . S
O16 C22 1.261 . S
C17 O26 1.247 . S
C17 O27 1.272 . S
O18 Co14 2.004 . S
O18 C23 1.259 . S
Co19 O20 2.061 . S
Co19 O25 2.052 . S
Co19 O27 2.135 . S
O20 Co19 2.061 . S
O20 C23 1.235 . S
C21 O24 1.238 . S
C21 O25 1.241 . S
C22 O15 1.247 . S
C22 O16 1.261 . S
C23 O18 1.259 . S
C23 O20 1.235 . S
O24 Co14 2.021 . S
O24 C21 1.238 . S
O25 Co19 2.052 . S
O25 C21 1.241 . S
O26 Co14 2.137 . S
O26 C17 1.247 . S
O27 Co14 2.244 . S
O27 C17 1.272 . S
O27 Co19 2.135 . S
Co28 O29 2.216 . S
Co28 O30 2.091 . S
Co28 O32 2.004 . S
Co28 O38 2.021 . S
Co28 O40 2.137 . S
Co28 O41 2.244 . S
O29 Co28 2.216 . S
O29 C36 1.247 . S
O30 Co28 2.091 . S
O30 C36 1.261 . S
C31 O40 1.247 . S
C31 O41 1.272 . S
O32 Co28 2.004 . S
O32 C37 1.259 . S
Co33 O34 2.061 . S
Co33 O39 2.052 . S
Co33 O41 2.135 . S
O34 Co33 2.061 . S
O34 C37 1.235 . S
C35 O38 1.238 . S
C35 O39 1.241 . S
C36 O29 1.247 . S
C36 O30 1.261 . S
C37 O32 1.259 . S
C37 O34 1.235 . S
O38 Co28 2.021 . S
O38 C35 1.238 . S
O39 Co33 2.052 . S
O39 C35 1.241 . S
O40 Co28 2.137 . S
O40 C31 1.247 . S
O41 Co28 2.244 . S
O41 C31 1.272 . S
O41 Co33 2.135 . S
Co42 O43 2.216 . S
Co42 O44 2.091 . S
Co42 O46 2.004 . S
Co42 O52 2.021 . S
Co42 O54 2.137 . S
Co42 O55 2.244 . S
O43 Co42 2.216 . S
O43 C50 1.247 . S
O44 Co42 2.091 . S
O44 C50 1.261 . S
C45 O54 1.247 . S
C45 O55 1.272 . S
O46 Co42 2.004 . S
O46 C51 1.259 . S
Co47 O48 2.061 . S
Co47 O53 2.052 . S
Co47 O55 2.135 . S
O48 Co47 2.061 . S
O48 C51 1.235 . S
C49 O52 1.238 . S
C49 O53 1.241 . S
C50 O43 1.247 . S
C50 O44 1.261 . S
C51 O46 1.259 . S
C51 O48 1.235 . S
O52 Co42 2.021 . S
O52 C49 1.238 . S
O53 Co47 2.052 . S
O53 C49 1.241 . S
O54 Co42 2.137 . S
O54 C45 1.247 . S
O55 Co42 2.244 . S
O55 C45 1.272 . S
O55 Co47 2.135 . S
Co56 O57 2.216 . S
Co56 O58 2.091 . S
Co56 O60 2.004 . S
Co56 O66 2.021 . S
Co56 O68 2.137 . S
Co56 O69 2.244 . S
O57 Co56 2.216 . S
O57 C64 1.247 . S
O58 Co56 2.091 . S
O58 C64 1.261 . S
C59 O68 1.247 . S
C59 O69 1.272 . S
O60 Co56 2.004 . S
O60 C65 1.259 . S
Co61 O62 2.061 . S
Co61 O67 2.052 . S
Co61 O69 2.135 . S
O62 Co61 2.061 . S
O62 C65 1.235 . S
C63 O66 1.238 . S
C63 O67 1.241 . S
C64 O57 1.247 . S
C64 O58 1.261 . S
C65 O60 1.259 . S
C65 O62 1.235 . S
O66 Co56 2.021 . S
O66 C63 1.238 . S
O67 Co61 2.052 . S
O67 C63 1.241 . S
O68 Co56 2.137 . S
O68 C59 1.247 . S
O69 Co56 2.244 . S
O69 C59 1.272 . S
O69 Co61 2.135 . S
Co70 O71 2.216 . S
Co70 O72 2.091 . S
Co70 O74 2.004 . S
Co70 O80 2.021 . S
Co70 O82 2.137 . S
Co70 O83 2.244 . S
O71 Co70 2.216 . S
O71 C78 1.247 . S
O72 Co70 2.091 . S
O72 C78 1.261 . S
C73 O82 1.247 . S
C73 O83 1.272 . S
O74 Co70 2.004 . S
O74 C79 1.259 . S
Co75 O76 2.061 . S
Co75 O81 2.052 . S
Co75 O83 2.135 . S
O76 Co75 2.061 . S
O76 C79 1.235 . S
C77 O80 1.238 . S
C77 O81 1.241 . S
C78 O71 1.247 . S
C78 O72 1.261 . S
C79 O74 1.259 . S
C79 O76 1.235 . S
O80 Co70 2.021 . S
O80 C77 1.238 . S
O81 Co75 2.052 . S
O81 C77 1.241 . S
O82 Co70 2.137 . S
O82 C73 1.247 . S
O83 Co70 2.244 . S
O83 C73 1.272 . S
O83 Co75 2.135 . S
Co84 O85 2.216 . S
Co84 O86 2.091 . S
Co84 O88 2.004 . S
Co84 O94 2.021 . S
Co84 O96 2.137 . S
Co84 O97 2.244 . S
O85 Co84 2.216 . S
O85 C92 1.247 . S
O86 Co84 2.091 . S
O86 C92 1.261 . S
C87 O96 1.247 . S
C87 O97 1.272 . S
O88 Co84 2.004 . S
O88 C93 1.259 . S
Co89 O90 2.061 . S
Co89 O95 2.052 . S
Co89 O97 2.135 . S
O90 Co89 2.061 . S
O90 C93 1.235 . S
C91 O94 1.238 . S
C91 O95 1.241 . S
C92 O85 1.247 . S
C92 O86 1.261 . S
C93 O88 1.259 . S
C93 O90 1.235 . S
O94 Co84 2.021 . S
O94 C91 1.238 . S
O95 Co89 2.052 . S
O95 C91 1.241 . S
O96 Co84 2.137 . S
O96 C87 1.247 . S
O97 Co84 2.244 . S
O97 C87 1.272 . S
O97 Co89 2.135 . S
Co98 O99 2.216 . S
Co98 O100 2.091 . S
Co98 O102 2.004 . S
Co98 O108 2.021 . S
Co98 O110 2.137 . S
Co98 O111 2.244 . S
O99 Co98 2.216 . S
O99 C106 1.247 . S
O100 Co98 2.091 . S
O100 C106 1.261 . S
C101 O110 1.247 . S
C101 O111 1.272 . S
O102 Co98 2.004 . S
O102 C107 1.259 . S
Co103 O104 2.061 . S
Co103 O109 2.052 . S
Co103 O111 2.135 . S
O104 Co103 2.061 . S
O104 C107 1.235 . S
C105 O108 1.238 . S
C105 O109 1.241 . S
C106 O99 1.247 . S
C106 O100 1.261 . S
C107 O102 1.259 . S
C107 O104 1.235 . S
O108 Co98 2.021 . S
O108 C105 1.238 . S
O109 Co103 2.052 . S
O109 C105 1.241 . S
O110 Co98 2.137 . S
O110 C101 1.247 . S
O111 Co98 2.244 . S
O111 C101 1.272 . S
O111 Co103 2.135 . S
Co112 O113 2.216 . S
Co112 O114 2.091 . S
Co112 O116 2.004 . S
Co112 O122 2.021 . S
Co112 O124 2.137 . S
Co112 O125 2.244 . S
O113 Co112 2.216 . S
O113 C120 1.247 . S
O114 Co112 2.091 . S
O114 C120 1.261 . S
C115 O124 1.247 . S
C115 O125 1.272 . S
O116 Co112 2.004 . S
O116 C121 1.259 . S
Co117 O118 2.061 . S
Co117 O123 2.052 . S
Co117 O125 2.135 . S
O118 Co117 2.061 . S
O118 C121 1.235 . S
C119 O122 1.238 . S
C119 O123 1.241 . S
C120 O113 1.247 . S
C120 O114 1.261 . S
C121 O116 1.259 . S
C121 O118 1.235 . S
O122 Co112 2.021 . S
O122 C119 1.238 . S
O123 Co117 2.052 . S
O123 C119 1.241 . S
O124 Co112 2.137 . S
O124 C115 1.247 . S
O125 Co112 2.244 . S
O125 C115 1.272 . S
O125 Co117 2.135 . S
Co126 O127 2.216 . S
Co126 O128 2.091 . S
Co126 O130 2.004 . S
Co126 O136 2.021 . S
Co126 O138 2.137 . S
Co126 O139 2.244 . S
O127 Co126 2.216 . S
O127 C134 1.247 . S
O128 Co126 2.091 . S
O128 C134 1.261 . S
C129 O138 1.247 . S
C129 O139 1.272 . S
O130 Co126 2.004 . S
O130 C135 1.259 . S
Co131 O132 2.061 . S
Co131 O137 2.052 . S
Co131 O139 2.135 . S
O132 Co131 2.061 . S
O132 C135 1.235 . S
C133 O136 1.238 . S
C133 O137 1.241 . S
C134 O127 1.247 . S
C134 O128 1.261 . S
C135 O130 1.259 . S
C135 O132 1.235 . S
O136 Co126 2.021 . S
O136 C133 1.238 . S
O137 Co131 2.052 . S
O137 C133 1.241 . S
O138 Co126 2.137 . S
O138 C129 1.247 . S
O139 Co126 2.244 . S
O139 C129 1.272 . S
O139 Co131 2.135 . S
Co140 O141 2.216 . S
Co140 O142 2.091 . S
Co140 O144 2.004 . S
Co140 O150 2.021 . S
Co140 O152 2.137 . S
Co140 O153 2.244 . S
O141 Co140 2.216 . S
O141 C148 1.247 . S
O142 Co140 2.091 . S
O142 C148 1.261 . S
C143 O152 1.247 . S
C143 O153 1.272 . S
O144 Co140 2.004 . S
O144 C149 1.259 . S
Co145 O146 2.061 . S
Co145 O151 2.052 . S
Co145 O153 2.135 . S
O146 Co145 2.061 . S
O146 C149 1.235 . S
C147 O150 1.238 . S
C147 O151 1.241 . S
C148 O141 1.247 . S
C148 O142 1.261 . S
C149 O144 1.259 . S
C149 O146 1.235 . S
O150 Co140 2.021 . S
O150 C147 1.238 . S
O151 Co145 2.052 . S
O151 C147 1.241 . S
O152 Co140 2.137 . S
O152 C143 1.247 . S
O153 Co140 2.244 . S
O153 C143 1.272 . S
O153 Co145 2.135 . S
Co154 O155 2.216 . S
Co154 O156 2.091 . S
Co154 O158 2.004 . S
Co154 O164 2.021 . S
Co154 O166 2.137 . S
Co154 O167 2.244 . S
O155 Co154 2.216 . S
O155 C162 1.247 . S
O156 Co154 2.091 . S
O156 C162 1.261 . S
C157 O166 1.247 . S
C157 O167 1.272 . S
O158 Co154 2.004 . S
O158 C163 1.259 . S
Co159 O160 2.061 . S
Co159 O165 2.052 . S
Co159 O167 2.135 . S
O160 Co159 2.061 . S
O160 C163 1.235 . S
C161 O164 1.238 . S
C161 O165 1.241 . S
C162 O155 1.247 . S
C162 O156 1.261 . S
C163 O158 1.259 . S
C163 O160 1.235 . S
O164 Co154 2.021 . S
O164 C161 1.238 . S
O165 Co159 2.052 . S
O165 C161 1.241 . S
O166 Co154 2.137 . S
O166 C157 1.247 . S
O167 Co154 2.244 . S
O167 C157 1.272 . S
O167 Co159 2.135 . S
H168 C186 0.951 . S
H169 C188 0.951 . S
H170 C190 0.950 . S
H171 C191 0.950 . S
H172 C193 0.950 . S
H173 C196 0.950 . S
H174 C197 0.950 . S
H175 C199 0.950 . S
H176 C200 0.950 . S
H177 C201 0.951 . S
H178 C203 0.951 . S
H179 C205 0.950 . S
H180 C206 0.950 . S
H181 C208 0.950 . S
H182 C211 0.950 . S
H183 C212 0.950 . S
H184 C214 0.950 . S
H185 C215 0.950 . S
C186 H168 0.951 . S
C186 C187 1.366 . S
C186 C188 1.388 . S
C187 C186 1.366 . S
C187 C191 1.385 . S
C188 H169 0.951 . S
C188 C186 1.388 . S
C188 C189 1.366 . S
C189 C188 1.366 . S
C189 C190 1.414 . S
C189 C192 1.499 . S
C190 H170 0.950 . S
C190 C189 1.414 . S
C190 C191 1.374 . S
C191 H171 0.950 . S
C191 C187 1.385 . S
C191 C190 1.374 . S
C192 C189 1.499 . S
C192 C193 1.373 . S
C192 C194 1.389 . S
C193 H172 0.950 . S
C193 C192 1.373 . S
C193 C209 1.377 . S
C194 C192 1.389 . S
C194 C195 1.524 . S
C194 C208 1.377 . S
C195 C194 1.524 . S
C195 C196 1.397 . S
C195 C200 1.363 . S
C196 H173 0.950 . S
C196 C195 1.397 . S
C196 C197 1.334 . S
C197 H174 0.950 . S
C197 C196 1.334 . S
C197 C198 1.287 . S
C198 C197 1.287 . S
C198 C199 1.524 . S
C198 H217 0.913 . S
C199 H175 0.950 . S
C199 C198 1.524 . S
C199 C200 1.415 . S
C200 H176 0.950 . S
C200 C195 1.363 . S
C200 C199 1.415 . S
C201 H177 0.951 . S
C201 C202 1.366 . S
C201 C203 1.388 . S
C202 C201 1.366 . S
C202 C206 1.385 . S
C203 H178 0.951 . S
C203 C201 1.388 . S
C203 C204 1.366 . S
C204 C203 1.366 . S
C204 C205 1.414 . S
C204 C207 1.499 . S
C205 H179 0.950 . S
C205 C204 1.414 . S
C205 C206 1.374 . S
C206 H180 0.950 . S
C206 C202 1.385 . S
C206 C205 1.374 . S
C207 C204 1.499 . S
C207 C208 1.373 . S
C207 C209 1.389 . S
C208 H181 0.950 . S
C208 C194 1.377 . S
C208 C207 1.373 . S
C209 C193 1.377 . S
C209 C207 1.389 . S
C209 C210 1.524 . S
C210 C209 1.524 . S
C210 C211 1.397 . S
C210 C215 1.363 . S
C211 H182 0.950 . S
C211 C210 1.397 . S
C211 C212 1.334 . S
C212 H183 0.950 . S
C212 C211 1.334 . S
C212 C213 1.287 . S
C213 C212 1.287 . S
C213 C214 1.524 . S
C213 H216 0.999 . S
C214 H184 0.950 . S
C214 C213 1.524 . S
C214 C215 1.415 . S
C215 H185 0.950 . S
C215 C210 1.363 . S
C215 C214 1.415 . S
H216 C213 0.999 . S
H217 C198 0.913 . S
H218 C236 0.951 . S
H219 C238 0.951 . S
H220 C240 0.950 . S
H221 C241 0.950 . S
H222 C243 0.950 . S
H223 C246 0.950 . S
H224 C247 0.950 . S
H225 C249 0.950 . S
H226 C250 0.950 . S
H227 C251 0.951 . S
H228 C253 0.951 . S
H229 C255 0.950 . S
H230 C256 0.950 . S
H231 C258 0.950 . S
H232 C261 0.950 . S
H233 C262 0.950 . S
H234 C264 0.950 . S
H235 C265 0.950 . S
C236 H218 0.951 . S
C236 C237 1.366 . S
C236 C238 1.388 . S
C237 C236 1.366 . S
C237 C241 1.385 . S
C238 H219 0.951 . S
C238 C236 1.388 . S
C238 C239 1.366 . S
C239 C238 1.366 . S
C239 C240 1.414 . S
C239 C242 1.499 . S
C240 H220 0.950 . S
C240 C239 1.414 . S
C240 C241 1.374 . S
C241 H221 0.950 . S
C241 C237 1.385 . S
C241 C240 1.374 . S
C242 C239 1.499 . S
C242 C243 1.373 . S
C242 C244 1.389 . S
C243 H222 0.950 . S
C243 C242 1.373 . S
C243 C259 1.377 . S
C244 C242 1.389 . S
C244 C245 1.524 . S
C244 C258 1.377 . S
C245 C244 1.524 . S
C245 C246 1.397 . S
C245 C250 1.363 . S
C246 H223 0.950 . S
C246 C245 1.397 . S
C246 C247 1.334 . S
C247 H224 0.950 . S
C247 C246 1.334 . S
C247 C248 1.287 . S
C248 C247 1.287 . S
C248 C249 1.524 . S
C248 H267 0.913 . S
C249 H225 0.950 . S
C249 C248 1.524 . S
C249 C250 1.415 . S
C250 H226 0.950 . S
C250 C245 1.363 . S
C250 C249 1.415 . S
C251 H227 0.951 . S
C251 C252 1.366 . S
C251 C253 1.388 . S
C252 C251 1.366 . S
C252 C256 1.385 . S
C253 H228 0.951 . S
C253 C251 1.388 . S
C253 C254 1.366 . S
C254 C253 1.366 . S
C254 C255 1.414 . S
C254 C257 1.499 . S
C255 H229 0.950 . S
C255 C254 1.414 . S
C255 C256 1.374 . S
C256 H230 0.950 . S
C256 C252 1.385 . S
C256 C255 1.374 . S
C257 C254 1.499 . S
C257 C258 1.373 . S
C257 C259 1.389 . S
C258 H231 0.950 . S
C258 C244 1.377 . S
C258 C257 1.373 . S
C259 C243 1.377 . S
C259 C257 1.389 . S
C259 C260 1.524 . S
C260 C259 1.524 . S
C260 C261 1.397 . S
C260 C265 1.363 . S
C261 H232 0.950 . S
C261 C260 1.397 . S
C261 C262 1.334 . S
C262 H233 0.950 . S
C262 C261 1.334 . S
C262 C263 1.287 . S
C263 C262 1.287 . S
C263 C264 1.524 . S
C263 H266 0.999 . S
C264 H234 0.950 . S
C264 C263 1.524 . S
C264 C265 1.415 . S
C265 H235 0.950 . S
C265 C260 1.363 . S
C265 C264 1.415 . S
H266 C263 0.999 . S
H267 C248 0.913 . S
H268 C286 0.951 . S
H269 C288 0.951 . S
H270 C290 0.950 . S
H271 C291 0.950 . S
H272 C293 0.950 . S
H273 C296 0.950 . S
H274 C297 0.950 . S
H275 C299 0.950 . S
H276 C300 0.950 . S
H277 C301 0.951 . S
H278 C303 0.951 . S
H279 C305 0.950 . S
H280 C306 0.950 . S
H281 C308 0.950 . S
H282 C311 0.950 . S
H283 C312 0.950 . S
H284 C314 0.950 . S
H285 C315 0.950 . S
C286 H268 0.951 . S
C286 C287 1.366 . S
C286 C288 1.388 . S
C287 C286 1.366 . S
C287 C291 1.385 . S
C288 H269 0.951 . S
C288 C286 1.388 . S
C288 C289 1.366 . S
C289 C288 1.366 . S
C289 C290 1.414 . S
C289 C292 1.499 . S
C290 H270 0.950 . S
C290 C289 1.414 . S
C290 C291 1.374 . S
C291 H271 0.950 . S
C291 C287 1.385 . S
C291 C290 1.374 . S
C292 C289 1.499 . S
C292 C293 1.373 . S
C292 C294 1.389 . S
C293 H272 0.950 . S
C293 C292 1.373 . S
C293 C309 1.377 . S
C294 C292 1.389 . S
C294 C295 1.524 . S
C294 C308 1.377 . S
C295 C294 1.524 . S
C295 C296 1.397 . S
C295 C300 1.363 . S
C296 H273 0.950 . S
C296 C295 1.397 . S
C296 C297 1.334 . S
C297 H274 0.950 . S
C297 C296 1.334 . S
C297 C298 1.287 . S
C298 C297 1.287 . S
C298 C299 1.524 . S
C298 H317 0.913 . S
C299 H275 0.950 . S
C299 C298 1.524 . S
C299 C300 1.415 . S
C300 H276 0.950 . S
C300 C295 1.363 . S
C300 C299 1.415 . S
C301 H277 0.951 . S
C301 C302 1.366 . S
C301 C303 1.388 . S
C302 C301 1.366 . S
C302 C306 1.385 . S
C303 H278 0.951 . S
C303 C301 1.388 . S
C303 C304 1.366 . S
C304 C303 1.366 . S
C304 C305 1.414 . S
C304 C307 1.499 . S
C305 H279 0.950 . S
C305 C304 1.414 . S
C305 C306 1.374 . S
C306 H280 0.950 . S
C306 C302 1.385 . S
C306 C305 1.374 . S
C307 C304 1.499 . S
C307 C308 1.373 . S
C307 C309 1.389 . S
C308 H281 0.950 . S
C308 C294 1.377 . S
C308 C307 1.373 . S
C309 C293 1.377 . S
C309 C307 1.389 . S
C309 C310 1.524 . S
C310 C309 1.524 . S
C310 C311 1.397 . S
C310 C315 1.363 . S
C311 H282 0.950 . S
C311 C310 1.397 . S
C311 C312 1.334 . S
C312 H283 0.950 . S
C312 C311 1.334 . S
C312 C313 1.287 . S
C313 C312 1.287 . S
C313 C314 1.524 . S
C313 H316 0.999 . S
C314 H284 0.950 . S
C314 C313 1.524 . S
C314 C315 1.415 . S
C315 H285 0.950 . S
C315 C310 1.363 . S
C315 C314 1.415 . S
H316 C313 0.999 . S
H317 C298 0.913 . S
H318 C336 0.951 . S
H319 C338 0.951 . S
H320 C340 0.950 . S
H321 C341 0.950 . S
H322 C343 0.950 . S
H323 C346 0.950 . S
H324 C347 0.950 . S
H325 C349 0.950 . S
H326 C350 0.950 . S
H327 C351 0.951 . S
H328 C353 0.951 . S
H329 C355 0.950 . S
H330 C356 0.950 . S
H331 C358 0.950 . S
H332 C361 0.950 . S
H333 C362 0.950 . S
H334 C364 0.950 . S
H335 C365 0.950 . S
C336 H318 0.951 . S
C336 C337 1.366 . S
C336 C338 1.388 . S
C337 C336 1.366 . S
C337 C341 1.385 . S
C338 H319 0.951 . S
C338 C336 1.388 . S
C338 C339 1.366 . S
C339 C338 1.366 . S
C339 C340 1.414 . S
C339 C342 1.499 . S
C340 H320 0.950 . S
C340 C339 1.414 . S
C340 C341 1.374 . S
C341 H321 0.950 . S
C341 C337 1.385 . S
C341 C340 1.374 . S
C342 C339 1.499 . S
C342 C343 1.373 . S
C342 C344 1.389 . S
C343 H322 0.950 . S
C343 C342 1.373 . S
C343 C359 1.377 . S
C344 C342 1.389 . S
C344 C345 1.524 . S
C344 C358 1.377 . S
C345 C344 1.524 . S
C345 C346 1.397 . S
C345 C350 1.363 . S
C346 H323 0.950 . S
C346 C345 1.397 . S
C346 C347 1.334 . S
C347 H324 0.950 . S
C347 C346 1.334 . S
C347 C348 1.287 . S
C348 C347 1.287 . S
C348 C349 1.524 . S
C348 H367 0.913 . S
C349 H325 0.950 . S
C349 C348 1.524 . S
C349 C350 1.415 . S
C350 H326 0.950 . S
C350 C345 1.363 . S
C350 C349 1.415 . S
C351 H327 0.951 . S
C351 C352 1.366 . S
C351 C353 1.388 . S
C352 C351 1.366 . S
C352 C356 1.385 . S
C353 H328 0.951 . S
C353 C351 1.388 . S
C353 C354 1.366 . S
C354 C353 1.366 . S
C354 C355 1.414 . S
C354 C357 1.499 . S
C355 H329 0.950 . S
C355 C354 1.414 . S
C355 C356 1.374 . S
C356 H330 0.950 . S
C356 C352 1.385 . S
C356 C355 1.374 . S
C357 C354 1.499 . S
C357 C358 1.373 . S
C357 C359 1.389 . S
C358 H331 0.950 . S
C358 C344 1.377 . S
C358 C357 1.373 . S
C359 C343 1.377 . S
C359 C357 1.389 . S
C359 C360 1.524 . S
C360 C359 1.524 . S
C360 C361 1.397 . S
C360 C365 1.363 . S
C361 H332 0.950 . S
C361 C360 1.397 . S
C361 C362 1.334 . S
C362 H333 0.950 . S
C362 C361 1.334 . S
C362 C363 1.287 . S
C363 C362 1.287 . S
C363 C364 1.524 . S
C363 H366 0.999 . S
C364 H334 0.950 . S
C364 C363 1.524 . S
C364 C365 1.415 . S
C365 H335 0.950 . S
C365 C360 1.363 . S
C365 C364 1.415 . S
H366 C363 0.999 . S
H367 C348 0.913 . S
H368 C386 0.951 . S
H369 C388 0.951 . S
H370 C390 0.950 . S
H371 C391 0.950 . S
H372 C393 0.950 . S
H373 C396 0.950 . S
H374 C397 0.950 . S
H375 C399 0.950 . S
H376 C400 0.950 . S
H377 C401 0.951 . S
H378 C403 0.951 . S
H379 C405 0.950 . S
H380 C406 0.950 . S
H381 C408 0.950 . S
H382 C411 0.950 . S
H383 C412 0.950 . S
H384 C414 0.950 . S
H385 C415 0.950 . S
C386 H368 0.951 . S
C386 C387 1.366 . S
C386 C388 1.388 . S
C387 C386 1.366 . S
C387 C391 1.385 . S
C388 H369 0.951 . S
C388 C386 1.388 . S
C388 C389 1.366 . S
C389 C388 1.366 . S
C389 C390 1.414 . S
C389 C392 1.499 . S
C390 H370 0.950 . S
C390 C389 1.414 . S
C390 C391 1.374 . S
C391 H371 0.950 . S
C391 C387 1.385 . S
C391 C390 1.374 . S
C392 C389 1.499 . S
C392 C393 1.373 . S
C392 C394 1.389 . S
C393 H372 0.950 . S
C393 C392 1.373 . S
C393 C409 1.377 . S
C394 C392 1.389 . S
C394 C395 1.524 . S
C394 C408 1.377 . S
C395 C394 1.524 . S
C395 C396 1.397 . S
C395 C400 1.363 . S
C396 H373 0.950 . S
C396 C395 1.397 . S
C396 C397 1.334 . S
C397 H374 0.950 . S
C397 C396 1.334 . S
C397 C398 1.287 . S
C398 C397 1.287 . S
C398 C399 1.524 . S
C398 H417 0.913 . S
C399 H375 0.950 . S
C399 C398 1.524 . S
C399 C400 1.415 . S
C400 H376 0.950 . S
C400 C395 1.363 . S
C400 C399 1.415 . S
C401 H377 0.951 . S
C401 C402 1.366 . S
C401 C403 1.388 . S
C402 C401 1.366 . S
C402 C406 1.385 . S
C403 H378 0.951 . S
C403 C401 1.388 . S
C403 C404 1.366 . S
C404 C403 1.366 . S
C404 C405 1.414 . S
C404 C407 1.499 . S
C405 H379 0.950 . S
C405 C404 1.414 . S
C405 C406 1.374 . S
C406 H380 0.950 . S
C406 C402 1.385 . S
C406 C405 1.374 . S
C407 C404 1.499 . S
C407 C408 1.373 . S
C407 C409 1.389 . S
C408 H381 0.950 . S
C408 C394 1.377 . S
C408 C407 1.373 . S
C409 C393 1.377 . S
C409 C407 1.389 . S
C409 C410 1.524 . S
C410 C409 1.524 . S
C410 C411 1.397 . S
C410 C415 1.363 . S
C411 H382 0.950 . S
C411 C410 1.397 . S
C411 C412 1.334 . S
C412 H383 0.950 . S
C412 C411 1.334 . S
C412 C413 1.287 . S
C413 C412 1.287 . S
C413 C414 1.524 . S
C413 H416 0.999 . S
C414 H384 0.950 . S
C414 C413 1.524 . S
C414 C415 1.415 . S
C415 H385 0.950 . S
C415 C410 1.363 . S
C415 C414 1.415 . S
H416 C413 0.999 . S
H417 C398 0.913 . S
H418 C436 0.951 . S
H419 C438 0.951 . S
H420 C440 0.950 . S
H421 C441 0.950 . S
H422 C443 0.950 . S
H423 C446 0.950 . S
H424 C447 0.950 . S
H425 C449 0.950 . S
H426 C450 0.950 . S
H427 C451 0.951 . S
H428 C453 0.951 . S
H429 C455 0.950 . S
H430 C456 0.950 . S
H431 C458 0.950 . S
H432 C461 0.950 . S
H433 C462 0.950 . S
H434 C464 0.950 . S
H435 C465 0.950 . S
C436 H418 0.951 . S
C436 C437 1.366 . S
C436 C438 1.388 . S
C437 C436 1.366 . S
C437 C441 1.385 . S
C438 H419 0.951 . S
C438 C436 1.388 . S
C438 C439 1.366 . S
C439 C438 1.366 . S
C439 C440 1.414 . S
C439 C442 1.499 . S
C440 H420 0.950 . S
C440 C439 1.414 . S
C440 C441 1.374 . S
C441 H421 0.950 . S
C441 C437 1.385 . S
C441 C440 1.374 . S
C442 C439 1.499 . S
C442 C443 1.373 . S
C442 C444 1.389 . S
C443 H422 0.950 . S
C443 C442 1.373 . S
C443 C459 1.377 . S
C444 C442 1.389 . S
C444 C445 1.524 . S
C444 C458 1.377 . S
C445 C444 1.524 . S
C445 C446 1.397 . S
C445 C450 1.363 . S
C446 H423 0.950 . S
C446 C445 1.397 . S
C446 C447 1.334 . S
C447 H424 0.950 . S
C447 C446 1.334 . S
C447 C448 1.287 . S
C448 C447 1.287 . S
C448 C449 1.524 . S
C448 H467 0.913 . S
C449 H425 0.950 . S
C449 C448 1.524 . S
C449 C450 1.415 . S
C450 H426 0.950 . S
C450 C445 1.363 . S
C450 C449 1.415 . S
C451 H427 0.951 . S
C451 C452 1.366 . S
C451 C453 1.388 . S
C452 C451 1.366 . S
C452 C456 1.385 . S
C453 H428 0.951 . S
C453 C451 1.388 . S
C453 C454 1.366 . S
C454 C453 1.366 . S
C454 C455 1.414 . S
C454 C457 1.499 . S
C455 H429 0.950 . S
C455 C454 1.414 . S
C455 C456 1.374 . S
C456 H430 0.950 . S
C456 C452 1.385 . S
C456 C455 1.374 . S
C457 C454 1.499 . S
C457 C458 1.373 . S
C457 C459 1.389 . S
C458 H431 0.950 . S
C458 C444 1.377 . S
C458 C457 1.373 . S
C459 C443 1.377 . S
C459 C457 1.389 . S
C459 C460 1.524 . S
C460 C459 1.524 . S
C460 C461 1.397 . S
C460 C465 1.363 . S
C461 H432 0.950 . S
C461 C460 1.397 . S
C461 C462 1.334 . S
C462 H433 0.950 . S
C462 C461 1.334 . S
C462 C463 1.287 . S
C463 C462 1.287 . S
C463 C464 1.524 . S
C463 H466 0.999 . S
C464 H434 0.950 . S
C464 C463 1.524 . S
C464 C465 1.415 . S
C465 H435 0.950 . S
C465 C460 1.363 . S
C465 C464 1.415 . S
H466 C463 0.999 . S
H467 C448 0.913 . S
H468 C486 0.951 . S
H469 C488 0.951 . S
H470 C490 0.950 . S
H471 C491 0.950 . S
H472 C493 0.950 . S
H473 C496 0.950 . S
H474 C497 0.950 . S
H475 C499 0.950 . S
H476 C500 0.950 . S
H477 C501 0.951 . S
H478 C503 0.951 . S
H479 C505 0.950 . S
H480 C506 0.950 . S
H481 C508 0.950 . S
H482 C511 0.950 . S
H483 C512 0.950 . S
H484 C514 0.950 . S
H485 C515 0.950 . S
C486 H468 0.951 . S
C486 C487 1.366 1_556 S
C486 C488 1.388 . S
C487 C486 1.366 1_554 S
C487 C491 1.385 . S
C488 H469 0.951 . S
C488 C486 1.388 . S
C488 C489 1.366 1_556 S
C489 C488 1.366 1_554 S
C489 C490 1.414 . S
C489 C492 1.499 . S
C490 H470 0.950 . S
C490 C489 1.414 . S
C490 C491 1.374 . S
C491 H471 0.950 . S
C491 C487 1.385 . S
C491 C490 1.374 . S
C492 C489 1.499 . S
C492 C493 1.373 . S
C492 C494 1.389 1_554 S
C493 H472 0.950 . S
C493 C492 1.373 . S
C493 C509 1.377 1_545 S
C494 C492 1.389 1_556 S
C494 C495 1.524 . S
C494 C508 1.377 1_545 S
C495 C494 1.524 . S
C495 C496 1.397 . S
C495 C500 1.363 . S
C496 H473 0.950 . S
C496 C495 1.397 . S
C496 C497 1.334 . S
C497 H474 0.950 . S
C497 C496 1.334 . S
C497 C498 1.287 . S
C498 C497 1.287 . S
C498 C499 1.524 . S
C498 H517 0.913 . S
C499 H475 0.950 . S
C499 C498 1.524 . S
C499 C500 1.415 . S
C500 H476 0.950 . S
C500 C495 1.363 . S
C500 C499 1.415 . S
C501 H477 0.951 . S
C501 C502 1.366 1_554 S
C501 C503 1.388 . S
C502 C501 1.366 1_556 S
C502 C506 1.385 . S
C503 H478 0.951 . S
C503 C501 1.388 . S
C503 C504 1.366 1_554 S
C504 C503 1.366 1_556 S
C504 C505 1.414 . S
C504 C507 1.499 . S
C505 H479 0.950 . S
C505 C504 1.414 . S
C505 C506 1.374 . S
C506 H480 0.950 . S
C506 C502 1.385 . S
C506 C505 1.374 . S
C507 C504 1.499 . S
C507 C508 1.373 . S
C507 C509 1.389 1_556 S
C508 H481 0.950 . S
C508 C494 1.377 1_565 S
C508 C507 1.373 . S
C509 C493 1.377 1_565 S
C509 C507 1.389 1_554 S
C509 C510 1.524 . S
C510 C509 1.524 . S
C510 C511 1.397 . S
C510 C515 1.363 . S
C511 H482 0.950 . S
C511 C510 1.397 . S
C511 C512 1.334 . S
C512 H483 0.950 . S
C512 C511 1.334 . S
C512 C513 1.287 . S
C513 C512 1.287 . S
C513 C514 1.524 . S
C513 H516 0.999 . S
C514 H484 0.950 . S
C514 C513 1.524 . S
C514 C515 1.415 . S
C515 H485 0.950 . S
C515 C510 1.363 . S
C515 C514 1.415 . S
H516 C513 0.999 . S
H517 C498 0.913 . S
H518 C536 0.951 . S
H519 C538 0.951 . S
H520 C540 0.950 . S
H521 C541 0.950 . S
H522 C543 0.950 . S
H523 C546 0.950 . S
H524 C547 0.950 . S
H525 C549 0.950 . S
H526 C550 0.950 . S
H527 C551 0.951 . S
H528 C553 0.951 . S
H529 C555 0.950 . S
H530 C556 0.950 . S
H531 C558 0.950 . S
H532 C561 0.950 . S
H533 C562 0.950 . S
H534 C564 0.950 . S
H535 C565 0.950 . S
C536 H518 0.951 . S
C536 C537 1.366 . S
C536 C538 1.388 . S
C537 C536 1.366 . S
C537 C541 1.385 . S
C538 H519 0.951 . S
C538 C536 1.388 . S
C538 C539 1.366 . S
C539 C538 1.366 . S
C539 C540 1.414 . S
C539 C542 1.499 . S
C540 H520 0.950 . S
C540 C539 1.414 . S
C540 C541 1.374 . S
C541 H521 0.950 . S
C541 C537 1.385 . S
C541 C540 1.374 . S
C542 C539 1.499 . S
C542 C543 1.373 . S
C542 C544 1.389 . S
C543 H522 0.950 . S
C543 C542 1.373 . S
C543 C559 1.377 . S
C544 C542 1.389 . S
C544 C545 1.524 . S
C544 C558 1.377 . S
C545 C544 1.524 . S
C545 C546 1.397 . S
C545 C550 1.363 . S
C546 H523 0.950 . S
C546 C545 1.397 . S
C546 C547 1.334 . S
C547 H524 0.950 . S
C547 C546 1.334 . S
C547 C548 1.287 . S
C548 C547 1.287 . S
C548 C549 1.524 . S
C548 H567 0.913 . S
C549 H525 0.950 . S
C549 C548 1.524 . S
C549 C550 1.415 . S
C550 H526 0.950 . S
C550 C545 1.363 . S
C550 C549 1.415 . S
C551 H527 0.951 . S
C551 C552 1.366 . S
C551 C553 1.388 . S
C552 C551 1.366 . S
C552 C556 1.385 . S
C553 H528 0.951 . S
C553 C551 1.388 . S
C553 C554 1.366 . S
C554 C553 1.366 . S
C554 C555 1.414 . S
C554 C557 1.499 . S
C555 H529 0.950 . S
C555 C554 1.414 . S
C555 C556 1.374 . S
C556 H530 0.950 . S
C556 C552 1.385 . S
C556 C555 1.374 . S
C557 C554 1.499 . S
C557 C558 1.373 . S
C557 C559 1.389 . S
C558 H531 0.950 . S
C558 C544 1.377 . S
C558 C557 1.373 . S
C559 C543 1.377 . S
C559 C557 1.389 . S
C559 C560 1.524 . S
C560 C559 1.524 . S
C560 C561 1.397 . S
C560 C565 1.363 . S
C561 H532 0.950 . S
C561 C560 1.397 . S
C561 C562 1.334 . S
C562 H533 0.950 . S
C562 C561 1.334 . S
C562 C563 1.287 . S
C563 C562 1.287 . S
C563 C564 1.524 . S
C563 H566 0.999 . S
C564 H534 0.950 . S
C564 C563 1.524 . S
C564 C565 1.415 . S
C565 H535 0.950 . S
C565 C560 1.363 . S
C565 C564 1.415 . S
H566 C563 0.999 . S
H567 C548 0.913 . S
H568 C586 0.951 . S
H569 C588 0.951 . S
H570 C590 0.950 . S
H571 C591 0.950 . S
H572 C593 0.950 . S
H573 C596 0.950 . S
H574 C597 0.950 . S
H575 C599 0.950 1_655 S
H576 C600 0.950 . S
H577 C601 0.951 . S
H578 C603 0.951 . S
H579 C605 0.950 . S
H580 C606 0.950 . S
H581 C608 0.950 . S
H582 C611 0.950 . S
H583 C612 0.950 . S
H584 C614 0.950 1_455 S
H585 C615 0.947 . S
C586 H568 0.951 . S
C586 C587 1.366 . S
C586 C588 1.388 . S
C587 C586 1.366 . S
C587 C591 1.385 . S
C588 H569 0.951 . S
C588 C586 1.388 . S
C588 C589 1.366 . S
C589 C588 1.366 . S
C589 C590 1.414 . S
C589 C592 1.499 . S
C590 H570 0.950 . S
C590 C589 1.414 . S
C590 C591 1.374 . S
C591 H571 0.950 . S
C591 C587 1.385 . S
C591 C590 1.374 . S
C592 C589 1.499 . S
C592 C593 1.373 . S
C592 C594 1.389 1_556 S
C593 H572 0.950 . S
C593 C592 1.373 . S
C593 C609 1.377 1_455 S
C594 C592 1.389 1_554 S
C594 C595 1.524 . S
C594 C608 1.377 1_455 S
C595 C594 1.524 . S
C595 C596 1.397 . S
C595 C600 1.363 1_455 S
C596 H573 0.950 . S
C596 C595 1.397 . S
C596 C597 1.334 . S
C597 H574 0.950 . S
C597 C596 1.334 . S
C597 C598 1.287 . S
C598 C597 1.287 . S
C598 C599 1.524 . S
C598 H617 0.913 . S
C599 H575 0.950 1_455 S
C599 C598 1.524 . S
C599 C600 1.415 1_455 S
C600 H576 0.950 . S
C600 C595 1.363 1_655 S
C600 C599 1.415 1_655 S
C601 H577 0.951 . S
C601 C602 1.366 . S
C601 C603 1.388 . S
C602 C601 1.366 . S
C602 C606 1.385 . S
C603 H578 0.951 . S
C603 C601 1.388 . S
C603 C604 1.366 . S
C604 C603 1.366 . S
C604 C605 1.414 . S
C604 C607 1.499 . S
C605 H579 0.950 . S
C605 C604 1.414 . S
C605 C606 1.374 . S
C606 H580 0.950 . S
C606 C602 1.385 . S
C606 C605 1.374 . S
C607 C604 1.499 . S
C607 C608 1.373 . S
C607 C609 1.389 1_554 S
C608 H581 0.950 . S
C608 C594 1.377 1_655 S
C608 C607 1.373 . S
C609 C593 1.377 1_655 S
C609 C607 1.389 1_556 S
C609 C610 1.524 . S
C610 C609 1.524 . S
C610 C611 1.397 . S
C610 C615 1.367 1_655 S
C611 H582 0.950 . S
C611 C610 1.397 . S
C611 C612 1.334 . S
C612 H583 0.950 . S
C612 C611 1.334 . S
C612 C613 1.287 . S
C613 C612 1.287 . S
C613 C614 1.524 . S
C613 H616 0.999 . S
C614 H584 0.950 1_655 S
C614 C613 1.524 . S
C614 C615 1.414 1_655 S
C615 H585 0.947 . S
C615 C610 1.367 1_455 S
C615 C614 1.414 1_455 S
H616 C613 0.999 . S
H617 C598 0.913 . S
H618 C636 0.951 . S
H619 C638 0.951 . S
H620 C640 0.950 . S
H621 C641 0.950 . S
H622 C643 0.950 . S
H623 C646 0.950 . S
H624 C647 0.950 . S
H625 C649 0.950 . S
H626 C650 0.950 . S
H627 C651 0.951 . S
H628 C653 0.951 . S
H629 C655 0.950 . S
H630 C656 0.950 . S
H631 C658 0.950 . S
H632 C661 0.950 . S
H633 C662 0.950 . S
H634 C664 0.950 . S
H635 C665 0.950 . S
C636 H618 0.951 . S
C636 C637 1.366 . S
C636 C638 1.388 . S
C637 C636 1.366 . S
C637 C641 1.385 . S
C638 H619 0.951 . S
C638 C636 1.388 . S
C638 C639 1.366 . S
C639 C638 1.366 . S
C639 C640 1.414 . S
C639 C642 1.499 . S
C640 H620 0.950 . S
C640 C639 1.414 . S
C640 C641 1.374 . S
C641 H621 0.950 . S
C641 C637 1.385 . S
C641 C640 1.374 . S
C642 C639 1.499 . S
C642 C643 1.373 . S
C642 C644 1.389 . S
C643 H622 0.950 . S
C643 C642 1.373 . S
C643 C659 1.377 1_545 S
C644 C642 1.389 . S
C644 C645 1.524 . S
C644 C658 1.377 1_545 S
C645 C644 1.524 . S
C645 C646 1.397 . S
C645 C650 1.363 . S
C646 H623 0.950 . S
C646 C645 1.397 . S
C646 C647 1.334 . S
C647 H624 0.950 . S
C647 C646 1.334 . S
C647 C648 1.287 . S
C648 C647 1.287 . S
C648 C649 1.524 . S
C648 H667 0.913 . S
C649 H625 0.950 . S
C649 C648 1.524 . S
C649 C650 1.415 . S
C650 H626 0.950 . S
C650 C645 1.363 . S
C650 C649 1.415 . S
C651 H627 0.951 . S
C651 C652 1.366 . S
C651 C653 1.388 . S
C652 C651 1.366 . S
C652 C656 1.385 . S
C653 H628 0.951 . S
C653 C651 1.388 . S
C653 C654 1.366 . S
C654 C653 1.366 . S
C654 C655 1.414 . S
C654 C657 1.499 . S
C655 H629 0.950 . S
C655 C654 1.414 . S
C655 C656 1.374 . S
C656 H630 0.950 . S
C656 C652 1.385 . S
C656 C655 1.374 . S
C657 C654 1.499 . S
C657 C658 1.373 . S
C657 C659 1.389 . S
C658 H631 0.950 . S
C658 C644 1.377 1_565 S
C658 C657 1.373 . S
C659 C643 1.377 1_565 S
C659 C657 1.389 . S
C659 C660 1.524 . S
C660 C659 1.524 . S
C660 C661 1.397 . S
C660 C665 1.363 . S
C661 H632 0.950 . S
C661 C660 1.397 . S
C661 C662 1.334 . S
C662 H633 0.950 . S
C662 C661 1.334 . S
C662 C663 1.287 . S
C663 C662 1.287 . S
C663 C664 1.524 . S
C663 H666 0.999 . S
C664 H634 0.950 . S
C664 C663 1.524 . S
C664 C665 1.415 . S
C665 H635 0.950 . S
C665 C660 1.363 . S
C665 C664 1.415 . S
H666 C663 0.999 . S
H667 C648 0.913 . S
H668 C686 0.951 . S
H669 C688 0.951 1_554 S
H670 C690 0.950 . S
H671 C691 0.950 . S
H672 C693 0.950 . S
H673 C696 0.950 . S
H674 C697 0.950 . S
H675 C699 0.950 . S
H676 C700 0.950 . S
H677 C701 0.951 . S
H678 C703 0.951 1_556 S
H679 C705 0.950 . S
H680 C706 0.950 . S
H681 C708 0.950 . S
H682 C711 0.950 . S
H683 C712 0.950 . S
H684 C714 0.950 . S
H685 C715 0.950 . S
C686 H668 0.951 . S
C686 C687 1.366 . S
C686 C688 1.388 . S
C687 C686 1.366 . S
C687 C691 1.385 . S
C688 H669 0.951 1_556 S
C688 C686 1.388 . S
C688 C689 1.366 . S
C689 C688 1.366 . S
C689 C690 1.414 . S
C689 C692 1.499 . S
C690 H670 0.950 . S
C690 C689 1.414 . S
C690 C691 1.374 . S
C691 H671 0.950 . S
C691 C687 1.385 . S
C691 C690 1.374 . S
C692 C689 1.499 . S
C692 C693 1.373 . S
C692 C694 1.389 1_556 S
C693 H672 0.950 . S
C693 C692 1.373 . S
C693 C709 1.377 . S
C694 C692 1.389 1_554 S
C694 C695 1.524 . S
C694 C708 1.377 . S
C695 C694 1.524 . S
C695 C696 1.397 . S
C695 C700 1.363 . S
C696 H673 0.950 . S
C696 C695 1.397 . S
C696 C697 1.334 . S
C697 H674 0.950 . S
C697 C696 1.334 . S
C697 C698 1.287 . S
C698 C697 1.287 . S
C698 C699 1.524 . S
C698 H717 0.913 . S
C699 H675 0.950 . S
C699 C698 1.524 . S
C699 C700 1.415 . S
C700 H676 0.950 . S
C700 C695 1.363 . S
C700 C699 1.415 . S
C701 H677 0.951 . S
C701 C702 1.366 . S
C701 C703 1.388 . S
C702 C701 1.366 . S
C702 C706 1.385 . S
C703 H678 0.951 1_554 S
C703 C701 1.388 . S
C703 C704 1.366 . S
C704 C703 1.366 . S
C704 C705 1.414 . S
C704 C707 1.499 . S
C705 H679 0.950 . S
C705 C704 1.414 . S
C705 C706 1.374 . S
C706 H680 0.950 . S
C706 C702 1.385 . S
C706 C705 1.374 . S
C707 C704 1.499 . S
C707 C708 1.373 . S
C707 C709 1.389 1_554 S
C708 H681 0.950 . S
C708 C694 1.377 . S
C708 C707 1.373 . S
C709 C693 1.377 . S
C709 C707 1.389 1_556 S
C709 C710 1.524 . S
C710 C709 1.524 . S
C710 C711 1.397 . S
C710 C715 1.363 . S
C711 H682 0.950 . S
C711 C710 1.397 . S
C711 C712 1.334 . S
C712 H683 0.950 . S
C712 C711 1.334 . S
C712 C713 1.287 . S
C713 C712 1.287 . S
C713 C714 1.524 . S
C713 H716 0.999 . S
C714 H684 0.950 . S
C714 C713 1.524 . S
C714 C715 1.415 . S
C715 H685 0.950 . S
C715 C710 1.363 . S
C715 C714 1.415 . S
H716 C713 0.999 . S
H717 C698 0.913 . S
H718 C736 0.951 . S
H719 C738 0.951 . S
H720 C740 0.950 . S
H721 C741 0.950 . S
H722 C743 0.950 . S
H723 C746 0.950 . S
H724 C747 0.950 . S
H725 C749 0.950 . S
H726 C750 0.950 . S
H727 C751 0.951 . S
H728 C753 0.951 . S
H729 C755 0.950 . S
H730 C756 0.950 . S
H731 C758 0.950 . S
H732 C761 0.950 . S
H733 C762 0.950 . S
H734 C764 0.950 . S
H735 C765 0.950 . S
C736 H718 0.951 . S
C736 C737 1.366 . S
C736 C738 1.388 . S
C737 C736 1.366 . S
C737 C741 1.385 . S
C738 H719 0.951 . S
C738 C736 1.388 . S
C738 C739 1.366 . S
C739 C738 1.366 . S
C739 C740 1.414 . S
C739 C742 1.499 . S
C740 H720 0.950 . S
C740 C739 1.414 . S
C740 C741 1.374 . S
C741 H721 0.950 . S
C741 C737 1.385 . S
C741 C740 1.374 . S
C742 C739 1.499 . S
C742 C743 1.373 . S
C742 C744 1.413 . S
C743 H722 0.950 . S
C743 C742 1.373 . S
C743 C759 1.377 1_655 S
C744 C742 1.413 . S
C744 C745 1.516 . S
C744 C758 1.360 1_655 S
C745 C744 1.516 . S
C745 C746 1.397 . S
C745 C750 1.363 1_655 S
C746 H723 0.950 . S
C746 C745 1.397 . S
C746 C747 1.334 . S
C747 H724 0.950 . S
C747 C746 1.334 . S
C747 C748 1.287 . S
C748 C747 1.287 . S
C748 C749 1.524 1_655 S
C748 H767 0.913 . S
C749 H725 0.950 . S
C749 C748 1.524 1_455 S
C749 C750 1.415 . S
C750 H726 0.950 . S
C750 C745 1.363 1_455 S
C750 C749 1.415 . S
C751 H727 0.951 . S
C751 C752 1.366 . S
C751 C753 1.388 . S
C752 C751 1.366 . S
C752 C756 1.385 . S
C753 H728 0.951 . S
C753 C751 1.388 . S
C753 C754 1.366 . S
C754 C753 1.366 . S
C754 C755 1.414 . S
C754 C757 1.499 . S
C755 H729 0.950 . S
C755 C754 1.414 . S
C755 C756 1.374 . S
C756 H730 0.950 . S
C756 C752 1.385 . S
C756 C755 1.374 . S
C757 C754 1.499 . S
C757 C758 1.373 . S
C757 C759 1.389 . S
C758 H731 0.950 . S
C758 C744 1.360 1_455 S
C758 C757 1.373 . S
C759 C743 1.377 1_455 S
C759 C757 1.389 . S
C759 C760 1.524 . S
C760 C759 1.524 . S
C760 C761 1.397 . S
C760 C765 1.363 1_455 S
C761 H732 0.950 . S
C761 C760 1.397 . S
C761 C762 1.334 . S
C762 H733 0.950 . S
C762 C761 1.334 . S
C762 C763 1.287 . S
C763 C762 1.287 . S
C763 C764 1.524 1_455 S
C763 H766 0.999 . S
C764 H734 0.950 . S
C764 C763 1.524 1_655 S
C764 C765 1.415 . S
C765 H735 0.950 . S
C765 C760 1.363 1_655 S
C765 C764 1.415 . S
H766 C763 0.999 . S
H767 C748 0.913 . S
H768 C786 0.951 . S
H769 C788 0.951 . S
H770 C790 0.950 . S
H771 C791 0.950 . S
H772 C793 0.950 . S
H773 C796 0.950 1_556 S
H774 C797 0.950 . S
H775 C799 0.950 . S
H776 C800 0.950 . S
H777 C801 0.951 . S
H778 C803 0.951 . S
H779 C805 0.950 . S
H780 C806 0.950 . S
H781 C808 0.950 . S
H782 C811 0.950 . S
H783 C812 0.950 . S
H784 C814 0.950 . S
H785 C815 0.950 . S
C786 H768 0.951 . S
C786 C787 1.366 . S
C786 C788 1.388 . S
C787 C786 1.366 . S
C787 C791 1.385 . S
C788 H769 0.951 . S
C788 C786 1.388 . S
C788 C789 1.366 . S
C789 C788 1.366 . S
C789 C790 1.414 . S
C789 C792 1.499 . S
C790 H770 0.950 . S
C790 C789 1.414 . S
C790 C791 1.374 . S
C791 H771 0.950 . S
C791 C787 1.385 . S
C791 C790 1.374 . S
C792 C789 1.499 . S
C792 C793 1.373 . S
C792 C794 1.389 . S
C793 H772 0.950 . S
C793 C792 1.373 . S
C793 C809 1.377 . S
C794 C792 1.389 . S
C794 C795 1.524 . S
C794 C808 1.377 . S
C795 C794 1.524 . S
C795 C796 1.397 . S
C795 C800 1.363 . S
C796 H773 0.950 1_554 S
C796 C795 1.397 . S
C796 C797 1.334 1_554 S
C797 H774 0.950 . S
C797 C796 1.334 1_556 S
C797 C798 1.287 1_556 S
C798 C797 1.287 1_554 S
C798 C799 1.524 . S
C798 H817 0.913 . S
C799 H775 0.950 . S
C799 C798 1.524 . S
C799 C800 1.415 . S
C800 H776 0.950 . S
C800 C795 1.363 . S
C800 C799 1.415 . S
C801 H777 0.951 . S
C801 C802 1.366 . S
C801 C803 1.388 . S
C802 C801 1.366 . S
C802 C806 1.385 . S
C803 H778 0.951 . S
C803 C801 1.388 . S
C803 C804 1.366 . S
C804 C803 1.366 . S
C804 C805 1.414 . S
C804 C807 1.499 . S
C805 H779 0.950 . S
C805 C804 1.414 . S
C805 C806 1.374 . S
C806 H780 0.950 . S
C806 C802 1.385 . S
C806 C805 1.374 . S
C807 C804 1.499 . S
C807 C808 1.373 . S
C807 C809 1.389 . S
C808 H781 0.950 . S
C808 C794 1.377 . S
C808 C807 1.373 . S
C809 C793 1.377 . S
C809 C807 1.389 . S
C809 C810 1.524 . S
C810 C809 1.524 . S
C810 C811 1.397 . S
C810 C815 1.363 . S
C811 H782 0.950 . S
C811 C810 1.397 . S
C811 C812 1.334 . S
C812 H783 0.950 . S
C812 C811 1.334 . S
C812 C813 1.287 . S
C813 C812 1.287 . S
C813 C814 1.524 . S
C813 H816 0.999 . S
C814 H784 0.950 . S
C814 C813 1.524 . S
C814 C815 1.415 . S
C815 H785 0.950 . S
C815 C810 1.363 . S
C815 C814 1.415 . S
H816 C813 0.999 . S
H817 C798 0.913 . S
H818 C836 0.951 . S
H819 C838 0.951 . S
H820 C840 0.950 . S
H821 C841 0.950 . S
H822 C843 0.950 . S
H823 C846 0.950 . S
H824 C847 0.950 . S
H825 C849 0.950 . S
H826 C850 0.950 . S
H827 C851 0.951 . S
H828 C853 0.951 . S
H829 C855 0.950 . S
H830 C856 0.950 . S
H831 C858 0.950 . S
H832 C861 0.950 . S
H833 C862 0.950 . S
H834 C864 0.950 . S
H835 C865 0.950 . S
C836 H818 0.951 . S
C836 C837 1.366 . S
C836 C838 1.388 . S
C837 C836 1.366 . S
C837 C841 1.385 . S
C838 H819 0.951 . S
C838 C836 1.388 . S
C838 C839 1.366 . S
C839 C838 1.366 . S
C839 C840 1.414 . S
C839 C842 1.499 . S
C840 H820 0.950 . S
C840 C839 1.414 . S
C840 C841 1.374 . S
C841 H821 0.950 . S
C841 C837 1.385 . S
C841 C840 1.374 . S
C842 C839 1.499 . S
C842 C843 1.373 . S
C842 C844 1.389 . S
C843 H822 0.950 . S
C843 C842 1.373 . S
C843 C859 1.377 . S
C844 C842 1.389 . S
C844 C845 1.524 . S
C844 C858 1.377 . S
C845 C844 1.524 . S
C845 C846 1.397 . S
C845 C850 1.363 . S
C846 H823 0.950 . S
C846 C845 1.397 . S
C846 C847 1.334 . S
C847 H824 0.950 . S
C847 C846 1.334 . S
C847 C848 1.287 . S
C848 C847 1.287 . S
C848 C849 1.524 . S
C848 H867 0.913 . S
C849 H825 0.950 . S
C849 C848 1.524 . S
C849 C850 1.415 . S
C850 H826 0.950 . S
C850 C845 1.363 . S
C850 C849 1.415 . S
C851 H827 0.951 . S
C851 C852 1.366 . S
C851 C853 1.388 . S
C852 C851 1.366 . S
C852 C856 1.385 . S
C853 H828 0.951 . S
C853 C851 1.388 . S
C853 C854 1.366 . S
C854 C853 1.366 . S
C854 C855 1.414 . S
C854 C857 1.499 . S
C855 H829 0.950 . S
C855 C854 1.414 . S
C855 C856 1.374 . S
C856 H830 0.950 . S
C856 C852 1.385 . S
C856 C855 1.374 . S
C857 C854 1.499 . S
C857 C858 1.373 . S
C857 C859 1.389 . S
C858 H831 0.950 . S
C858 C844 1.377 . S
C858 C857 1.373 . S
C859 C843 1.377 . S
C859 C857 1.389 . S
C859 C860 1.524 . S
C860 C859 1.524 . S
C860 C861 1.397 . S
C860 C865 1.363 . S
C861 H832 0.950 . S
C861 C860 1.397 . S
C861 C862 1.334 . S
C862 H833 0.950 . S
C862 C861 1.334 . S
C862 C863 1.287 . S
C863 C862 1.287 . S
C863 C864 1.524 . S
C863 H866 0.999 . S
C864 H834 0.950 . S
C864 C863 1.524 . S
C864 C865 1.415 . S
C865 H835 0.950 . S
C865 C860 1.363 . S
C865 C864 1.415 . S
H866 C863 0.999 . S
H867 C848 0.913 . S
H868 C886 0.951 . S
H869 C888 0.951 . S
H870 C890 0.950 . S
H871 C891 0.950 . S
H872 C893 0.950 . S
H873 C896 0.950 . S
H874 C897 0.950 . S
H875 C899 0.950 . S
H876 C900 0.950 . S
H877 C901 0.951 . S
H878 C903 0.951 . S
H879 C905 0.950 . S
H880 C906 0.950 . S
H881 C908 0.950 1_556 S
H882 C911 0.950 . S
H883 C912 0.950 . S
H884 C914 0.950 . S
H885 C915 0.950 . S
C886 H868 0.951 . S
C886 C887 1.366 . S
C886 C888 1.388 . S
C887 C886 1.366 . S
C887 C891 1.385 . S
C888 H869 0.951 . S
C888 C886 1.388 . S
C888 C889 1.366 . S
C889 C888 1.366 . S
C889 C890 1.414 . S
C889 C892 1.499 . S
C890 H870 0.950 . S
C890 C889 1.414 . S
C890 C891 1.374 . S
C891 H871 0.950 . S
C891 C887 1.385 . S
C891 C890 1.374 . S
C892 C889 1.499 . S
C892 C893 1.373 . S
C892 C894 1.389 . S
C893 H872 0.950 . S
C893 C892 1.373 . S
C893 C909 1.377 . S
C894 C892 1.389 . S
C894 C895 1.524 1_554 S
C894 C908 1.377 . S
C895 C894 1.524 1_556 S
C895 C896 1.397 . S
C895 C900 1.363 . S
C896 H873 0.950 . S
C896 C895 1.397 . S
C896 C897 1.334 . S
C897 H874 0.950 . S
C897 C896 1.334 . S
C897 C898 1.287 . S
C898 C897 1.287 . S
C898 C899 1.524 . S
C898 H917 0.913 . S
C899 H875 0.950 . S
C899 C898 1.524 . S
C899 C900 1.415 . S
C900 H876 0.950 . S
C900 C895 1.363 . S
C900 C899 1.415 . S
C901 H877 0.951 . S
C901 C902 1.366 . S
C901 C903 1.388 . S
C902 C901 1.366 . S
C902 C906 1.385 . S
C903 H878 0.951 . S
C903 C901 1.388 . S
C903 C904 1.366 . S
C904 C903 1.366 . S
C904 C905 1.414 . S
C904 C907 1.499 . S
C905 H879 0.950 . S
C905 C904 1.414 . S
C905 C906 1.374 . S
C906 H880 0.950 . S
C906 C902 1.385 . S
C906 C905 1.374 . S
C907 C904 1.499 . S
C907 C908 1.373 . S
C907 C909 1.389 . S
C908 H881 0.950 1_554 S
C908 C894 1.377 . S
C908 C907 1.373 . S
C909 C893 1.377 . S
C909 C907 1.389 . S
C909 C910 1.524 . S
C910 C909 1.524 . S
C910 C911 1.397 . S
C910 C915 1.363 . S
C911 H882 0.950 . S
C911 C910 1.397 . S
C911 C912 1.334 . S
C912 H883 0.950 . S
C912 C911 1.334 . S
C912 C913 1.287 . S
C913 C912 1.287 . S
C913 C914 1.524 . S
C913 H916 0.999 . S
C914 H884 0.950 . S
C914 C913 1.524 . S
C914 C915 1.415 . S
C915 H885 0.950 . S
C915 C910 1.363 . S
C915 C914 1.415 . S
H916 C913 0.999 . S
H917 C898 0.913 . S
H918 C936 0.951 . S
H919 C938 0.951 . S
H920 C940 0.950 . S
H921 C941 0.950 . S
H922 C943 0.950 . S
H923 C946 0.950 . S
H924 C947 0.950 . S
H925 C949 0.950 . S
H926 C950 0.950 . S
H927 C951 0.951 . S
H928 C953 0.951 . S
H929 C955 0.950 . S
H930 C956 0.950 . S
H931 C958 0.950 . S
H932 C961 0.950 . S
H933 C962 0.950 . S
H934 C964 0.950 . S
H935 C965 0.950 . S
C936 H918 0.951 . S
C936 C937 1.366 . S
C936 C938 1.388 . S
C937 C936 1.366 . S
C937 C941 1.385 . S
C938 H919 0.951 . S
C938 C936 1.388 . S
C938 C939 1.366 . S
C939 C938 1.366 . S
C939 C940 1.414 . S
C939 C942 1.499 . S
C940 H920 0.950 . S
C940 C939 1.414 . S
C940 C941 1.374 . S
C941 H921 0.950 . S
C941 C937 1.385 . S
C941 C940 1.374 . S
C942 C939 1.499 . S
C942 C943 1.373 . S
C942 C944 1.389 . S
C943 H922 0.950 . S
C943 C942 1.373 . S
C943 C959 1.377 . S
C944 C942 1.389 . S
C944 C945 1.524 . S
C944 C958 1.377 . S
C945 C944 1.524 . S
C945 C946 1.397 . S
C945 C950 1.363 . S
C946 H923 0.950 . S
C946 C945 1.397 . S
C946 C947 1.334 . S
C947 H924 0.950 . S
C947 C946 1.334 . S
C947 C948 1.287 . S
C948 C947 1.287 . S
C948 C949 1.524 . S
C948 H967 0.913 . S
C949 H925 0.950 . S
C949 C948 1.524 . S
C949 C950 1.415 . S
C950 H926 0.950 . S
C950 C945 1.363 . S
C950 C949 1.415 . S
C951 H927 0.951 . S
C951 C952 1.366 . S
C951 C953 1.388 . S
C952 C951 1.366 . S
C952 C956 1.385 . S
C953 H928 0.951 . S
C953 C951 1.388 . S
C953 C954 1.366 . S
C954 C953 1.366 . S
C954 C955 1.414 . S
C954 C957 1.499 . S
C955 H929 0.950 . S
C955 C954 1.414 . S
C955 C956 1.374 . S
C956 H930 0.950 . S
C956 C952 1.385 . S
C956 C955 1.374 . S
C957 C954 1.499 . S
C957 C958 1.373 . S
C957 C959 1.389 . S
C958 H931 0.950 . S
C958 C944 1.377 . S
C958 C957 1.373 . S
C959 C943 1.377 . S
C959 C957 1.389 . S
C959 C960 1.524 . S
C960 C959 1.524 . S
C960 C961 1.397 . S
C960 C965 1.363 . S
C961 H932 0.950 . S
C961 C960 1.397 . S
C961 C962 1.334 . S
C962 H933 0.950 . S
C962 C961 1.334 . S
C962 C963 1.287 . S
C963 C962 1.287 . S
C963 C964 1.524 . S
C963 H966 0.999 . S
C964 H934 0.950 . S
C964 C963 1.524 . S
C964 C965 1.415 . S
C965 H935 0.950 . S
C965 C960 1.363 . S
C965 C964 1.415 . S
H966 C963 0.999 . S
H967 C948 0.913 . S
H968 C986 0.951 . S
H969 C988 0.951 . S
H970 C990 0.950 . S
H971 C991 0.950 . S
H972 C993 0.950 . S
H973 C996 0.950 . S
H974 C997 0.950 1_554 S
H975 C999 0.950 . S
H976 C1000 0.950 . S
H977 C1001 0.951 . S
H978 C1003 0.951 . S
H979 C1005 0.950 1_556 S
H980 C1006 0.950 1_556 S
H981 C1008 0.950 . S
H982 C1011 0.950 . S
H983 C1012 0.950 . S
H984 C1014 0.950 . S
H985 C1015 0.950 . S
C986 H968 0.951 . S
C986 C987 1.366 . S
C986 C988 1.388 . S
C987 C986 1.366 . S
C987 C991 1.385 . S
C988 H969 0.951 . S
C988 C986 1.388 . S
C988 C989 1.366 . S
C989 C988 1.366 . S
C989 C990 1.414 . S
C989 C992 1.499 . S
C990 H970 0.950 . S
C990 C989 1.414 . S
C990 C991 1.374 . S
C991 H971 0.950 . S
C991 C987 1.385 . S
C991 C990 1.374 . S
C992 C989 1.499 . S
C992 C993 1.373 . S
C992 C994 1.389 . S
C993 H972 0.950 . S
C993 C992 1.373 . S
C993 C1009 1.377 . S
C994 C992 1.389 . S
C994 C995 1.509 1_554 S
C994 C1008 1.377 . S
C995 C994 1.509 1_556 S
C995 C996 1.388 1_556 S
C995 C1000 1.386 . S
C996 H973 0.950 . S
C996 C995 1.388 1_554 S
C996 C997 1.334 1_554 S
C997 H974 0.950 1_556 S
C997 C996 1.334 1_556 S
C997 C998 1.287 . S
C998 C997 1.287 . S
C998 C999 1.524 . S
C998 H1017 0.913 . S
C999 H975 0.950 . S
C999 C998 1.524 . S
C999 C1000 1.415 . S
C1000 H976 0.950 . S
C1000 C995 1.386 . S
C1000 C999 1.415 . S
C1001 H977 0.951 . S
C1001 C1002 1.366 . S
C1001 C1003 1.388 . S
C1002 C1001 1.366 . S
C1002 C1006 1.385 . S
C1003 H978 0.951 . S
C1003 C1001 1.388 . S
C1003 C1004 1.366 . S
C1004 C1003 1.366 . S
C1004 C1005 1.414 . S
C1004 C1007 1.499 . S
C1005 H979 0.950 1_554 S
C1005 C1004 1.414 . S
C1005 C1006 1.374 . S
C1006 H980 0.950 1_554 S
C1006 C1002 1.385 . S
C1006 C1005 1.374 . S
C1007 C1004 1.499 . S
C1007 C1008 1.373 . S
C1007 C1009 1.389 . S
C1008 H981 0.950 . S
C1008 C994 1.377 . S
C1008 C1007 1.373 . S
C1009 C993 1.377 . S
C1009 C1007 1.389 . S
C1009 C1010 1.524 . S
C1010 C1009 1.524 . S
C1010 C1011 1.397 . S
C1010 C1015 1.363 . S
C1011 H982 0.950 . S
C1011 C1010 1.397 . S
C1011 C1012 1.334 . S
C1012 H983 0.950 . S
C1012 C1011 1.334 . S
C1012 C1013 1.287 . S
C1013 C1012 1.287 . S
C1013 C1014 1.524 . S
C1013 H1016 0.999 . S
C1014 H984 0.950 . S
C1014 C1013 1.524 . S
C1014 C1015 1.415 . S
C1015 H985 0.950 . S
C1015 C1010 1.363 . S
C1015 C1014 1.415 . S
H1016 C1013 0.999 . S
H1017 C998 0.913 . S
H1018 C1036 0.951 . S
H1019 C1038 0.951 . S
H1020 C1040 0.950 . S
H1021 C1041 0.950 . S
H1022 C1043 0.950 . S
H1023 C1046 0.950 . S
H1024 C1047 0.950 . S
H1025 C1049 0.950 . S
H1026 C1050 0.950 . S
H1027 C1051 0.951 . S
H1028 C1053 0.951 . S
H1029 C1055 0.950 . S
H1030 C1056 0.950 . S
H1031 C1058 0.950 . S
H1032 C1061 0.950 . S
H1033 C1062 0.950 . S
H1034 C1064 0.950 . S
H1035 C1065 0.950 . S
C1036 H1018 0.951 . S
C1036 C1037 1.366 . S
C1036 C1038 1.388 . S
C1037 C1036 1.366 . S
C1037 C1041 1.385 . S
C1038 H1019 0.951 . S
C1038 C1036 1.388 . S
C1038 C1039 1.366 . S
C1039 C1038 1.366 . S
C1039 C1040 1.414 . S
C1039 C1042 1.499 . S
C1040 H1020 0.950 . S
C1040 C1039 1.414 . S
C1040 C1041 1.374 . S
C1041 H1021 0.950 . S
C1041 C1037 1.385 . S
C1041 C1040 1.374 . S
C1042 C1039 1.499 . S
C1042 C1043 1.373 . S
C1042 C1044 1.389 . S
C1043 H1022 0.950 . S
C1043 C1042 1.373 . S
C1043 C1059 1.377 . S
C1044 C1042 1.389 . S
C1044 C1045 1.524 . S
C1044 C1058 1.377 . S
C1045 C1044 1.524 . S
C1045 C1046 1.397 . S
C1045 C1050 1.363 . S
C1046 H1023 0.950 . S
C1046 C1045 1.397 . S
C1046 C1047 1.334 . S
C1047 H1024 0.950 . S
C1047 C1046 1.334 . S
C1047 C1048 1.287 . S
C1048 C1047 1.287 . S
C1048 C1049 1.524 . S
C1048 H1067 0.913 . S
C1049 H1025 0.950 . S
C1049 C1048 1.524 . S
C1049 C1050 1.415 . S
C1050 H1026 0.950 . S
C1050 C1045 1.363 . S
C1050 C1049 1.415 . S
C1051 H1027 0.951 . S
C1051 C1052 1.366 . S
C1051 C1053 1.388 . S
C1052 C1051 1.366 . S
C1052 C1056 1.385 . S
C1053 H1028 0.951 . S
C1053 C1051 1.388 . S
C1053 C1054 1.366 . S
C1054 C1053 1.366 . S
C1054 C1055 1.414 . S
C1054 C1057 1.499 . S
C1055 H1029 0.950 . S
C1055 C1054 1.414 . S
C1055 C1056 1.374 . S
C1056 H1030 0.950 . S
C1056 C1052 1.385 . S
C1056 C1055 1.374 . S
C1057 C1054 1.499 . S
C1057 C1058 1.373 . S
C1057 C1059 1.389 . S
C1058 H1031 0.950 . S
C1058 C1044 1.377 . S
C1058 C1057 1.373 . S
C1059 C1043 1.377 . S
C1059 C1057 1.389 . S
C1059 C1060 1.524 . S
C1060 C1059 1.524 . S
C1060 C1061 1.397 . S
C1060 C1065 1.363 . S
C1061 H1032 0.950 . S
C1061 C1060 1.397 . S
C1061 C1062 1.334 . S
C1062 H1033 0.950 . S
C1062 C1061 1.334 . S
C1062 C1063 1.287 . S
C1063 C1062 1.287 . S
C1063 C1064 1.524 . S
C1063 H1066 0.999 . S
C1064 H1034 0.950 . S
C1064 C1063 1.524 . S
C1064 C1065 1.415 . S
C1065 H1035 0.950 . S
C1065 C1060 1.363 . S
C1065 C1064 1.415 . S
H1066 C1063 0.999 . S
H1067 C1048 0.913 . S
H1068 C1086 0.951 . S
H1069 C1088 0.951 . S
H1070 C1090 0.950 . S
H1071 C1091 0.950 . S
H1072 C1093 0.950 . S
H1073 C1096 0.950 . S
H1074 C1097 0.950 . S
H1075 C1099 0.950 . S
H1076 C1100 0.950 . S
H1077 C1101 0.951 . S
H1078 C1103 0.951 . S
H1079 C1105 0.950 . S
H1080 C1106 0.950 . S
H1081 C1108 0.950 . S
H1082 C1111 0.950 . S
H1083 C1112 0.950 . S
H1084 C1114 0.950 . S
H1085 C1115 0.950 . S
C1086 H1068 0.951 . S
C1086 C1087 1.366 . S
C1086 C1088 1.388 . S
C1087 C1086 1.366 . S
C1087 C1091 1.385 . S
C1088 H1069 0.951 . S
C1088 C1086 1.388 . S
C1088 C1089 1.366 . S
C1089 C1088 1.366 . S
C1089 C1090 1.414 . S
C1089 C1092 1.499 . S
C1090 H1070 0.950 . S
C1090 C1089 1.414 . S
C1090 C1091 1.374 . S
C1091 H1071 0.950 . S
C1091 C1087 1.385 . S
C1091 C1090 1.374 . S
C1092 C1089 1.499 . S
C1092 C1093 1.373 . S
C1092 C1094 1.389 . S
C1093 H1072 0.950 . S
C1093 C1092 1.373 . S
C1093 C1109 1.377 . S
C1094 C1092 1.389 . S
C1094 C1095 1.524 . S
C1094 C1108 1.377 . S
C1095 C1094 1.524 . S
C1095 C1096 1.397 . S
C1095 C1100 1.363 . S
C1096 H1073 0.950 . S
C1096 C1095 1.397 . S
C1096 C1097 1.334 . S
C1097 H1074 0.950 . S
C1097 C1096 1.334 . S
C1097 C1098 1.287 . S
C1098 C1097 1.287 . S
C1098 C1099 1.524 . S
C1098 H1117 0.913 . S
C1099 H1075 0.950 . S
C1099 C1098 1.524 . S
C1099 C1100 1.415 . S
C1100 H1076 0.950 . S
C1100 C1095 1.363 . S
C1100 C1099 1.415 . S
C1101 H1077 0.951 . S
C1101 C1102 1.366 . S
C1101 C1103 1.388 . S
C1102 C1101 1.366 . S
C1102 C1106 1.385 . S
C1103 H1078 0.951 . S
C1103 C1101 1.388 . S
C1103 C1104 1.366 . S
C1104 C1103 1.366 . S
C1104 C1105 1.414 . S
C1104 C1107 1.499 . S
C1105 H1079 0.950 . S
C1105 C1104 1.414 . S
C1105 C1106 1.374 . S
C1106 H1080 0.950 . S
C1106 C1102 1.385 . S
C1106 C1105 1.374 . S
C1107 C1104 1.499 . S
C1107 C1108 1.373 . S
C1107 C1109 1.389 . S
C1108 H1081 0.950 . S
C1108 C1094 1.377 . S
C1108 C1107 1.373 . S
C1109 C1093 1.377 . S
C1109 C1107 1.389 . S
C1109 C1110 1.524 . S
C1110 C1109 1.524 . S
C1110 C1111 1.397 . S
C1110 C1115 1.363 . S
C1111 H1082 0.950 . S
C1111 C1110 1.397 . S
C1111 C1112 1.334 . S
C1112 H1083 0.950 . S
C1112 C1111 1.334 . S
C1112 C1113 1.287 . S
C1113 C1112 1.287 . S
C1113 C1114 1.524 . S
C1113 H1116 0.999 . S
C1114 H1084 0.950 . S
C1114 C1113 1.524 . S
C1114 C1115 1.415 . S
C1115 H1085 0.950 . S
C1115 C1110 1.363 . S
C1115 C1114 1.415 . S
H1116 C1113 0.999 . S
H1117 C1098 0.913 . S
H1118 C1136 0.951 . S
H1119 C1138 0.951 . S
H1120 C1140 0.950 . S
H1121 C1141 0.950 . S
H1122 C1143 0.950 . S
H1123 C1146 0.950 . S
H1124 C1147 0.950 . S
H1125 C1149 0.950 . S
H1126 C1150 0.950 . S
H1127 C1151 0.951 . S
H1128 C1153 0.951 . S
H1129 C1155 0.950 1_554 S
H1130 C1156 0.950 1_554 S
H1131 C1158 0.950 . S
H1132 C1161 0.950 1_554 S
H1133 C1162 0.948 . S
H1134 C1164 0.950 . S
H1135 C1165 0.950 . S
C1136 H1118 0.951 . S
C1136 C1137 1.366 . S
C1136 C1138 1.388 . S
C1137 C1136 1.366 . S
C1137 C1141 1.385 . S
C1138 H1119 0.951 . S
C1138 C1136 1.388 . S
C1138 C1139 1.366 . S
C1139 C1138 1.366 . S
C1139 C1140 1.414 . S
C1139 C1142 1.499 . S
C1140 H1120 0.950 . S
C1140 C1139 1.414 . S
C1140 C1141 1.374 . S
C1141 H1121 0.950 . S
C1141 C1137 1.385 . S
C1141 C1140 1.374 . S
C1142 C1139 1.499 . S
C1142 C1143 1.373 . S
C1142 C1144 1.389 . S
C1143 H1122 0.950 . S
C1143 C1142 1.373 . S
C1143 C1159 1.377 . S
C1144 C1142 1.389 . S
C1144 C1145 1.524 . S
C1144 C1158 1.377 . S
C1145 C1144 1.524 . S
C1145 C1146 1.397 . S
C1145 C1150 1.363 . S
C1146 H1123 0.950 . S
C1146 C1145 1.397 . S
C1146 C1147 1.334 . S
C1147 H1124 0.950 . S
C1147 C1146 1.334 . S
C1147 C1148 1.287 . S
C1148 C1147 1.287 . S
C1148 C1149 1.524 . S
C1148 H1167 0.913 . S
C1149 H1125 0.950 . S
C1149 C1148 1.524 . S
C1149 C1150 1.415 . S
C1150 H1126 0.950 . S
C1150 C1145 1.363 . S
C1150 C1149 1.415 . S
C1151 H1127 0.951 . S
C1151 C1152 1.366 . S
C1151 C1153 1.388 . S
C1152 C1151 1.366 . S
C1152 C1156 1.385 . S
C1153 H1128 0.951 . S
C1153 C1151 1.388 . S
C1153 C1154 1.366 . S
C1154 C1153 1.366 . S
C1154 C1155 1.414 . S
C1154 C1157 1.499 . S
C1155 H1129 0.950 1_556 S
C1155 C1154 1.414 . S
C1155 C1156 1.374 . S
C1156 H1130 0.950 1_556 S
C1156 C1152 1.385 . S
C1156 C1155 1.374 . S
C1157 C1154 1.499 . S
C1157 C1158 1.373 . S
C1157 C1159 1.389 . S
C1158 H1131 0.950 . S
C1158 C1144 1.377 . S
C1158 C1157 1.373 . S
C1159 C1143 1.377 . S
C1159 C1157 1.389 . S
C1159 C1160 1.524 . S
C1160 C1159 1.524 . S
C1160 C1161 1.397 . S
C1160 C1165 1.363 . S
C1161 H1132 0.950 1_556 S
C1161 C1160 1.397 . S
C1161 C1162 1.335 1_556 S
C1162 H1133 0.948 . S
C1162 C1161 1.335 1_554 S
C1162 C1163 1.289 1_554 S
C1163 C1162 1.289 1_556 S
C1163 C1164 1.524 . S
C1163 H1166 0.999 . S
C1164 H1134 0.950 . S
C1164 C1163 1.524 . S
C1164 C1165 1.415 . S
C1165 H1135 0.950 . S
C1165 C1160 1.363 . S
C1165 C1164 1.415 . S
H1166 C1163 0.999 . S
H1167 C1148 0.913 . S
H1168 C1186 0.951 . S
H1169 C1188 0.951 . S
H1170 C1190 0.950 . S
H1171 C1191 0.950 . S
H1172 C1193 0.950 . S
H1173 C1196 0.950 . S
H1174 C1197 0.950 . S
H1175 C1199 0.950 . S
H1176 C1200 0.950 . S
H1177 C1201 0.951 . S
H1178 C1203 0.951 . S
H1179 C1205 0.950 . S
H1180 C1206 0.950 . S
H1181 C1208 0.950 . S
H1182 C1211 0.950 . S
H1183 C1212 0.950 . S
H1184 C1214 0.950 . S
H1185 C1215 0.950 . S
C1186 H1168 0.951 . S
C1186 C1187 1.366 . S
C1186 C1188 1.388 . S
C1187 C1186 1.366 . S
C1187 C1191 1.385 . S
C1188 H1169 0.951 . S
C1188 C1186 1.388 . S
C1188 C1189 1.366 . S
C1189 C1188 1.366 . S
C1189 C1190 1.414 . S
C1189 C1192 1.499 . S
C1190 H1170 0.950 . S
C1190 C1189 1.414 . S
C1190 C1191 1.374 . S
C1191 H1171 0.950 . S
C1191 C1187 1.385 . S
C1191 C1190 1.374 . S
C1192 C1189 1.499 . S
C1192 C1193 1.373 . S
C1192 C1194 1.389 . S
C1193 H1172 0.950 . S
C1193 C1192 1.373 . S
C1193 C1209 1.377 . S
C1194 C1192 1.389 . S
C1194 C1195 1.524 . S
C1194 C1208 1.377 . S
C1195 C1194 1.524 . S
C1195 C1196 1.397 . S
C1195 C1200 1.363 . S
C1196 H1173 0.950 . S
C1196 C1195 1.397 . S
C1196 C1197 1.334 . S
C1197 H1174 0.950 . S
C1197 C1196 1.334 . S
C1197 C1198 1.287 . S
C1198 C1197 1.287 . S
C1198 C1199 1.524 . S
C1198 H1217 0.913 . S
C1199 H1175 0.950 . S
C1199 C1198 1.524 . S
C1199 C1200 1.415 . S
C1200 H1176 0.950 . S
C1200 C1195 1.363 . S
C1200 C1199 1.415 . S
C1201 H1177 0.951 . S
C1201 C1202 1.366 . S
C1201 C1203 1.388 . S
C1202 C1201 1.366 . S
C1202 C1206 1.385 . S
C1203 H1178 0.951 . S
C1203 C1201 1.388 . S
C1203 C1204 1.366 . S
C1204 C1203 1.366 . S
C1204 C1205 1.414 . S
C1204 C1207 1.499 . S
C1205 H1179 0.950 . S
C1205 C1204 1.414 . S
C1205 C1206 1.374 . S
C1206 H1180 0.950 . S
C1206 C1202 1.385 . S
C1206 C1205 1.374 . S
C1207 C1204 1.499 . S
C1207 C1208 1.373 . S
C1207 C1209 1.389 . S
C1208 H1181 0.950 . S
C1208 C1194 1.377 . S
C1208 C1207 1.373 . S
C1209 C1193 1.377 . S
C1209 C1207 1.389 . S
C1209 C1210 1.524 . S
C1210 C1209 1.524 . S
C1210 C1211 1.397 . S
C1210 C1215 1.363 . S
C1211 H1182 0.950 . S
C1211 C1210 1.397 . S
C1211 C1212 1.334 . S
C1212 H1183 0.950 . S
C1212 C1211 1.334 . S
C1212 C1213 1.287 . S
C1213 C1212 1.287 . S
C1213 C1214 1.524 . S
C1213 H1216 0.999 . S
C1214 H1184 0.950 . S
C1214 C1213 1.524 . S
C1214 C1215 1.415 . S
C1215 H1185 0.950 . S
C1215 C1210 1.363 . S
C1215 C1214 1.415 . S
H1216 C1213 0.999 . S
H1217 C1198 0.913 . S
H1218 C1236 0.951 . S
H1219 C1238 0.951 . S
H1220 C1240 0.950 . S
H1221 C1241 0.950 . S
H1222 C1243 0.950 . S
H1223 C1246 0.950 . S
H1224 C1247 0.950 . S
H1225 C1249 0.950 . S
H1226 C1250 0.950 . S
H1227 C1251 0.951 . S
H1228 C1253 0.951 . S
H1229 C1255 0.950 . S
H1230 C1256 0.950 . S
H1231 C1258 0.930 1_554 S
H1232 C1261 0.950 . S
H1233 C1262 0.950 . S
H1234 C1264 0.950 . S
H1235 C1265 0.950 . S
C1236 H1218 0.951 . S
C1236 C1237 1.366 . S
C1236 C1238 1.388 . S
C1237 C1236 1.366 . S
C1237 C1241 1.385 . S
C1238 H1219 0.951 . S
C1238 C1236 1.388 . S
C1238 C1239 1.366 . S
C1239 C1238 1.366 . S
C1239 C1240 1.414 . S
C1239 C1242 1.499 . S
C1240 H1220 0.950 . S
C1240 C1239 1.414 . S
C1240 C1241 1.374 . S
C1241 H1221 0.950 . S
C1241 C1237 1.385 . S
C1241 C1240 1.374 . S
C1242 C1239 1.499 . S
C1242 C1243 1.373 . S
C1242 C1244 1.389 . S
C1243 H1222 0.950 . S
C1243 C1242 1.373 . S
C1243 C1259 1.377 . S
C1244 C1242 1.389 . S
C1244 C1245 1.524 1_556 S
C1244 C1258 1.377 . S
C1245 C1244 1.524 1_554 S
C1245 C1246 1.397 . S
C1245 C1250 1.363 . S
C1246 H1223 0.950 . S
C1246 C1245 1.397 . S
C1246 C1247 1.334 . S
C1247 H1224 0.950 . S
C1247 C1246 1.334 . S
C1247 C1248 1.287 . S
C1248 C1247 1.287 . S
C1248 C1249 1.524 . S
C1248 H1267 0.913 . S
C1249 H1225 0.950 . S
C1249 C1248 1.524 . S
C1249 C1250 1.415 . S
C1250 H1226 0.950 . S
C1250 C1245 1.363 . S
C1250 C1249 1.415 . S
C1251 H1227 0.951 . S
C1251 C1252 1.366 . S
C1251 C1253 1.388 . S
C1252 C1251 1.366 . S
C1252 C1256 1.385 . S
C1253 H1228 0.951 . S
C1253 C1251 1.388 . S
C1253 C1254 1.366 . S
C1254 C1253 1.366 . S
C1254 C1255 1.414 . S
C1254 C1257 1.499 . S
C1255 H1229 0.950 . S
C1255 C1254 1.414 . S
C1255 C1256 1.374 . S
C1256 H1230 0.950 . S
C1256 C1252 1.385 . S
C1256 C1255 1.374 . S
C1257 C1254 1.499 . S
C1257 C1258 1.373 . S
C1257 C1259 1.389 . S
C1258 H1231 0.930 1_556 S
C1258 C1244 1.377 . S
C1258 C1257 1.373 . S
C1259 C1243 1.377 . S
C1259 C1257 1.389 . S
C1259 C1260 1.524 . S
C1260 C1259 1.524 . S
C1260 C1261 1.397 . S
C1260 C1265 1.363 . S
C1261 H1232 0.950 . S
C1261 C1260 1.397 . S
C1261 C1262 1.334 . S
C1262 H1233 0.950 . S
C1262 C1261 1.334 . S
C1262 C1263 1.287 . S
C1263 C1262 1.287 . S
C1263 C1264 1.524 . S
C1263 H1266 0.999 . S
C1264 H1234 0.950 . S
C1264 C1263 1.524 . S
C1264 C1265 1.415 . S
C1265 H1235 0.950 . S
C1265 C1260 1.363 . S
C1265 C1264 1.415 . S
H1266 C1263 0.999 . S
H1267 C1248 0.913 . S
H1268 C1286 0.951 . S
H1269 C1288 0.951 . S
H1270 C1290 0.950 . S
H1271 C1291 0.950 . S
H1272 C1293 0.950 . S
H1273 C1296 0.950 . S
H1274 C1297 0.950 . S
H1275 C1299 0.950 . S
H1276 C1300 0.950 . S
H1277 C1301 0.951 . S
H1278 C1303 0.951 . S
H1279 C1305 0.950 . S
H1280 C1306 0.950 . S
H1281 C1308 0.950 . S
H1282 C1311 0.950 . S
H1283 C1312 0.950 . S
H1284 C1314 0.950 . S
H1285 C1315 0.950 . S
C1286 H1268 0.951 . S
C1286 C1287 1.366 . S
C1286 C1288 1.388 . S
C1287 C1286 1.366 . S
C1287 C1291 1.385 . S
C1288 H1269 0.951 . S
C1288 C1286 1.388 . S
C1288 C1289 1.366 . S
C1289 C1288 1.366 . S
C1289 C1290 1.414 . S
C1289 C1292 1.499 . S
C1290 H1270 0.950 . S
C1290 C1289 1.414 . S
C1290 C1291 1.374 . S
C1291 H1271 0.950 . S
C1291 C1287 1.385 . S
C1291 C1290 1.374 . S
C1292 C1289 1.499 . S
C1292 C1293 1.373 . S
C1292 C1294 1.389 . S
C1293 H1272 0.950 . S
C1293 C1292 1.373 . S
C1293 C1309 1.377 . S
C1294 C1292 1.389 . S
C1294 C1295 1.524 . S
C1294 C1308 1.377 . S
C1295 C1294 1.524 . S
C1295 C1296 1.397 . S
C1295 C1300 1.363 . S
C1296 H1273 0.950 . S
C1296 C1295 1.397 . S
C1296 C1297 1.334 . S
C1297 H1274 0.950 . S
C1297 C1296 1.334 . S
C1297 C1298 1.287 . S
C1298 C1297 1.287 . S
C1298 C1299 1.524 . S
C1298 H1317 0.913 . S
C1299 H1275 0.950 . S
C1299 C1298 1.524 . S
C1299 C1300 1.415 . S
C1300 H1276 0.950 . S
C1300 C1295 1.363 . S
C1300 C1299 1.415 . S
C1301 H1277 0.951 . S
C1301 C1302 1.366 . S
C1301 C1303 1.388 . S
C1302 C1301 1.366 . S
C1302 C1306 1.385 . S
C1303 H1278 0.951 . S
C1303 C1301 1.388 . S
C1303 C1304 1.366 . S
C1304 C1303 1.366 . S
C1304 C1305 1.414 . S
C1304 C1307 1.499 . S
C1305 H1279 0.950 . S
C1305 C1304 1.414 . S
C1305 C1306 1.374 . S
C1306 H1280 0.950 . S
C1306 C1302 1.385 . S
C1306 C1305 1.374 . S
C1307 C1304 1.499 . S
C1307 C1308 1.373 . S
C1307 C1309 1.389 . S
C1308 H1281 0.950 . S
C1308 C1294 1.377 . S
C1308 C1307 1.373 . S
C1309 C1293 1.377 . S
C1309 C1307 1.389 . S
C1309 C1310 1.524 . S
C1310 C1309 1.524 . S
C1310 C1311 1.397 . S
C1310 C1315 1.363 . S
C1311 H1282 0.950 . S
C1311 C1310 1.397 . S
C1311 C1312 1.334 . S
C1312 H1283 0.950 . S
C1312 C1311 1.334 . S
C1312 C1313 1.287 . S
C1313 C1312 1.287 . S
C1313 C1314 1.524 . S
C1313 H1316 0.999 . S
C1314 H1284 0.950 . S
C1314 C1313 1.524 . S
C1314 C1315 1.415 . S
C1315 H1285 0.950 . S
C1315 C1310 1.363 . S
C1315 C1314 1.415 . S
H1316 C1313 0.999 . S
H1317 C1298 0.913 . S
H1318 C1336 0.951 . S
H1319 C1338 0.951 . S
H1320 C1340 0.950 . S
H1321 C1341 0.950 . S
H1322 C1343 0.950 . S
H1323 C1346 0.950 . S
H1324 C1347 0.950 . S
H1325 C1349 0.950 . S
H1326 C1350 0.950 . S
H1327 C1351 0.951 . S
H1328 C1353 0.951 . S
H1329 C1355 0.950 1_554 S
H1330 C1356 0.950 1_554 S
H1331 C1358 0.950 . S
H1332 C1361 0.950 . S
H1333 C1362 0.950 . S
H1334 C1364 0.950 . S
H1335 C1365 0.950 . S
C1336 H1318 0.951 . S
C1336 C1337 1.366 . S
C1336 C1338 1.388 . S
C1337 C1336 1.366 . S
C1337 C1341 1.385 . S
C1338 H1319 0.951 . S
C1338 C1336 1.388 . S
C1338 C1339 1.366 . S
C1339 C1338 1.366 . S
C1339 C1340 1.414 . S
C1339 C1342 1.499 . S
C1340 H1320 0.950 . S
C1340 C1339 1.414 . S
C1340 C1341 1.374 . S
C1341 H1321 0.950 . S
C1341 C1337 1.385 . S
C1341 C1340 1.374 . S
C1342 C1339 1.499 . S
C1342 C1343 1.373 . S
C1342 C1344 1.389 . S
C1343 H1322 0.950 . S
C1343 C1342 1.373 . S
C1343 C1359 1.377 . S
C1344 C1342 1.389 . S
C1344 C1345 1.524 . S
C1344 C1358 1.377 . S
C1345 C1344 1.524 . S
C1345 C1346 1.397 . S
C1345 C1350 1.363 1_556 S
C1346 H1323 0.950 . S
C1346 C1345 1.397 . S
C1346 C1347 1.334 . S
C1347 H1324 0.950 . S
C1347 C1346 1.334 . S
C1347 C1348 1.287 1_556 S
C1348 C1347 1.287 1_554 S
C1348 C1349 1.524 . S
C1348 H1367 0.913 . S
C1349 H1325 0.950 . S
C1349 C1348 1.524 . S
C1349 C1350 1.415 . S
C1350 H1326 0.950 . S
C1350 C1345 1.363 1_554 S
C1350 C1349 1.415 . S
C1351 H1327 0.951 . S
C1351 C1352 1.366 . S
C1351 C1353 1.388 . S
C1352 C1351 1.366 . S
C1352 C1356 1.385 . S
C1353 H1328 0.951 . S
C1353 C1351 1.388 . S
C1353 C1354 1.366 . S
C1354 C1353 1.366 . S
C1354 C1355 1.414 . S
C1354 C1357 1.499 . S
C1355 H1329 0.950 1_556 S
C1355 C1354 1.414 . S
C1355 C1356 1.374 . S
C1356 H1330 0.950 1_556 S
C1356 C1352 1.385 . S
C1356 C1355 1.374 . S
C1357 C1354 1.499 . S
C1357 C1358 1.373 . S
C1357 C1359 1.389 . S
C1358 H1331 0.950 . S
C1358 C1344 1.377 . S
C1358 C1357 1.373 . S
C1359 C1343 1.377 . S
C1359 C1357 1.389 . S
C1359 C1360 1.524 . S
C1360 C1359 1.524 . S
C1360 C1361 1.397 . S
C1360 C1365 1.363 . S
C1361 H1332 0.950 . S
C1361 C1360 1.397 . S
C1361 C1362 1.334 . S
C1362 H1333 0.950 . S
C1362 C1361 1.334 . S
C1362 C1363 1.287 . S
C1363 C1362 1.287 . S
C1363 C1364 1.524 . S
C1363 H1366 0.999 . S
C1364 H1334 0.950 . S
C1364 C1363 1.524 . S
C1364 C1365 1.415 . S
C1365 H1335 0.950 . S
C1365 C1360 1.363 . S
C1365 C1364 1.415 . S
H1366 C1363 0.999 . S
H1367 C1348 0.913 . S
C187 C147 1.529 . S
C202 C7 1.538 . S
C237 C21 1.434 . S
C252 C161 1.433 . S
C287 C35 1.528 . S
C302 C91 1.538 . S
C337 C105 1.528 . S
C352 C49 1.538 . S
C387 C119 1.433 . S
C402 C63 1.434 . S
C437 C77 1.529 . S
C452 C133 1.537 . S
C487 C8 0.783 . S
C502 C106 0.785 . S
C537 C22 0.586 . S
C552 C120 0.586 . S
C587 C134 0.782 . S
C602 C36 0.785 . S
C637 C148 0.785 . S
C652 C50 0.782 . S
C687 C162 0.586 . S
C702 C64 0.586 . S
C737 C92 0.782 . S
C752 C78 0.785 . S
C787 C9 0.802 . S
C802 C59 0.798 . S
C837 C23 0.693 . S
C852 C73 0.688 . S
C887 C37 0.690 . S
C902 C3 0.695 . S
C937 C51 0.803 . S
C952 C17 0.796 . S
C987 C65 0.693 . S
C1002 C31 0.688 . S
C1037 C79 0.692 . S
C1052 C45 0.693 . S
C1087 C93 0.801 . S
C1102 C115 0.797 . S
C1137 C107 0.692 . S
C1152 C129 0.692 . S
C1187 C143 0.687 . S
C1202 C121 0.693 . S
C1237 C135 0.803 . S
C1252 C157 0.798 . S
C1287 C149 0.690 . S
C1302 C87 0.695 . S
C1337 C163 0.693 . S
C1352 C101 0.688 . S
