# Generated by pormake.
# Topology wse, (4)-cn, num edge types: 1
# Building blocks:
#     Node 0, Type 0, BuildingBlock: CEKHIL_clean_sbu_0, # of connection points: 4
#     Node 1, Type 0, BuildingBlock: CEKHIL_clean_sbu_0, # of connection points: 4
#     Node 2, Type 0, BuildingBlock: CEKHIL_clean_sbu_0, # of connection points: 4
#     Node 3, Type 0, BuildingBlock: CEKHIL_clean_sbu_0, # of connection points: 4
#     Node 4, Type 0, BuildingBlock: CEKHIL_clean_sbu_0, # of connection points: 4
#     Node 5, Type 0, BuildingBlock: CEKHIL_clean_sbu_0, # of connection points: 4
#     Node 6, Type 0, BuildingBlock: CEKHIL_clean_sbu_0, # of connection points: 4
#     Node 7, Type 0, BuildingBlock: CEKHIL_clean_sbu_0, # of connection points: 4
#     Node 8, Type 0, BuildingBlock: CEKHIL_clean_sbu_0, # of connection points: 4
#     Node 9, Type 0, BuildingBlock: CEKHIL_clean_sbu_0, # of connection points: 4
#     Node 10, Type 0, BuildingBlock: CEKHIL_clean_sbu_0, # of connection points: 4
#     Node 11, Type 0, BuildingBlock: CEKHIL_clean_sbu_0, # of connection points: 4
#     Node 12, Type 0, BuildingBlock: CEKHIL_clean_sbu_0, # of connection points: 4
#     Node 13, Type 0, BuildingBlock: CEKHIL_clean_sbu_0, # of connection points: 4
#     Node 14, Type 0, BuildingBlock: CEKHIL_clean_sbu_0, # of connection points: 4
#     Node 15, Type 0, BuildingBlock: CEKHIL_clean_sbu_0, # of connection points: 4
#     Node 16, Type 0, BuildingBlock: CEKHIL_clean_sbu_0, # of connection points: 4
#     Node 17, Type 0, BuildingBlock: CEKHIL_clean_sbu_0, # of connection points: 4
#     Node 18, Type 0, BuildingBlock: CEKHIL_clean_sbu_0, # of connection points: 4
#     Node 19, Type 0, BuildingBlock: CEKHIL_clean_sbu_0, # of connection points: 4
#     Node 20, Type 0, BuildingBlock: CEKHIL_clean_sbu_0, # of connection points: 4
#     Node 21, Type 0, BuildingBlock: CEKHIL_clean_sbu_0, # of connection points: 4
#     Node 22, Type 0, BuildingBlock: CEKHIL_clean_sbu_0, # of connection points: 4
#     Node 23, Type 0, BuildingBlock: CEKHIL_clean_sbu_0, # of connection points: 4
#     Node 24, Type 0, BuildingBlock: CEKHIL_clean_sbu_0, # of connection points: 4
#     Node 25, Type 0, BuildingBlock: CEKHIL_clean_sbu_0, # of connection points: 4
#     Node 26, Type 0, BuildingBlock: CEKHIL_clean_sbu_0, # of connection points: 4
#     Node 27, Type 0, BuildingBlock: CEKHIL_clean_sbu_0, # of connection points: 4
#     Node 28, Type 0, BuildingBlock: CEKHIL_clean_sbu_0, # of connection points: 4
#     Node 29, Type 0, BuildingBlock: CEKHIL_clean_sbu_0, # of connection points: 4
#     Node 30, Type 0, BuildingBlock: CEKHIL_clean_sbu_0, # of connection points: 4
#     Node 31, Type 0, BuildingBlock: CEKHIL_clean_sbu_0, # of connection points: 4
#     Node 32, Type 0, BuildingBlock: CEKHIL_clean_sbu_0, # of connection points: 4
#     Node 33, Type 0, BuildingBlock: CEKHIL_clean_sbu_0, # of connection points: 4
#     Node 34, Type 0, BuildingBlock: CEKHIL_clean_sbu_0, # of connection points: 4
#     Node 35, Type 0, BuildingBlock: CEKHIL_clean_sbu_0, # of connection points: 4
#     Node 36, Type 0, BuildingBlock: CEKHIL_clean_sbu_0, # of connection points: 4
#     Node 37, Type 0, BuildingBlock: CEKHIL_clean_sbu_0, # of connection points: 4
#     Node 38, Type 0, BuildingBlock: CEKHIL_clean_sbu_0, # of connection points: 4
#     Node 39, Type 0, BuildingBlock: CEKHIL_clean_sbu_0, # of connection points: 4
#     Node 40, Type 0, BuildingBlock: CEKHIL_clean_sbu_0, # of connection points: 4
#     Node 41, Type 0, BuildingBlock: CEKHIL_clean_sbu_0, # of connection points: 4
#     Node 42, Type 0, BuildingBlock: CEKHIL_clean_sbu_0, # of connection points: 4
#     Node 43, Type 0, BuildingBlock: CEKHIL_clean_sbu_0, # of connection points: 4
#     Node 44, Type 0, BuildingBlock: CEKHIL_clean_sbu_0, # of connection points: 4
#     Node 45, Type 0, BuildingBlock: CEKHIL_clean_sbu_0, # of connection points: 4
#     Node 46, Type 0, BuildingBlock: CEKHIL_clean_sbu_0, # of connection points: 4
#     Node 47, Type 0, BuildingBlock: CEKHIL_clean_sbu_0, # of connection points: 4
#     Node 48, Type 0, BuildingBlock: CEKHIL_clean_sbu_0, # of connection points: 4
#     Node 49, Type 0, BuildingBlock: CEKHIL_clean_sbu_0, # of connection points: 4
#     Node 50, Type 0, BuildingBlock: CEKHIL_clean_sbu_0, # of connection points: 4
#     Node 51, Type 0, BuildingBlock: CEKHIL_clean_sbu_0, # of connection points: 4
#     Node 52, Type 0, BuildingBlock: CEKHIL_clean_sbu_0, # of connection points: 4
#     Node 53, Type 0, BuildingBlock: CEKHIL_clean_sbu_0, # of connection points: 4
#     Node 54, Type 0, BuildingBlock: CEKHIL_clean_sbu_0, # of connection points: 4
#     Node 55, Type 0, BuildingBlock: CEKHIL_clean_sbu_0, # of connection points: 4
#     Node 56, Type 0, BuildingBlock: CEKHIL_clean_sbu_0, # of connection points: 4
#     Node 57, Type 0, BuildingBlock: CEKHIL_clean_sbu_0, # of connection points: 4
#     Node 58, Type 0, BuildingBlock: CEKHIL_clean_sbu_0, # of connection points: 4
#     Node 59, Type 0, BuildingBlock: CEKHIL_clean_sbu_0, # of connection points: 4
#     Node 60, Type 0, BuildingBlock: CEKHIL_clean_sbu_0, # of connection points: 4
#     Node 61, Type 0, BuildingBlock: CEKHIL_clean_sbu_0, # of connection points: 4
#     Node 62, Type 0, BuildingBlock: CEKHIL_clean_sbu_0, # of connection points: 4
#     Node 63, Type 0, BuildingBlock: CEKHIL_clean_sbu_0, # of connection points: 4
#     Node 64, Type 0, BuildingBlock: CEKHIL_clean_sbu_0, # of connection points: 4
#     Node 65, Type 0, BuildingBlock: CEKHIL_clean_sbu_0, # of connection points: 4
#     Node 66, Type 0, BuildingBlock: CEKHIL_clean_sbu_0, # of connection points: 4
#     Node 67, Type 0, BuildingBlock: CEKHIL_clean_sbu_0, # of connection points: 4
#     Node 68, Type 0, BuildingBlock: CEKHIL_clean_sbu_0, # of connection points: 4
#     Node 69, Type 0, BuildingBlock: CEKHIL_clean_sbu_0, # of connection points: 4
#     Node 70, Type 0, BuildingBlock: CEKHIL_clean_sbu_0, # of connection points: 4
#     Node 71, Type 0, BuildingBlock: CEKHIL_clean_sbu_0, # of connection points: 4
#     Node 72, Type 0, BuildingBlock: CEKHIL_clean_sbu_0, # of connection points: 4
#     Node 73, Type 0, BuildingBlock: CEKHIL_clean_sbu_0, # of connection points: 4
#     Node 74, Type 0, BuildingBlock: CEKHIL_clean_sbu_0, # of connection points: 4
#     Node 75, Type 0, BuildingBlock: CEKHIL_clean_sbu_0, # of connection points: 4
#     Node 76, Type 0, BuildingBlock: CEKHIL_clean_sbu_0, # of connection points: 4
#     Node 77, Type 0, BuildingBlock: CEKHIL_clean_sbu_0, # of connection points: 4
#     Node 78, Type 0, BuildingBlock: CEKHIL_clean_sbu_0, # of connection points: 4
#     Node 79, Type 0, BuildingBlock: CEKHIL_clean_sbu_0, # of connection points: 4
#     Node 80, Type 0, BuildingBlock: CEKHIL_clean_sbu_0, # of connection points: 4
#     Node 81, Type 0, BuildingBlock: CEKHIL_clean_sbu_0, # of connection points: 4
#     Node 82, Type 0, BuildingBlock: CEKHIL_clean_sbu_0, # of connection points: 4
#     Node 83, Type 0, BuildingBlock: CEKHIL_clean_sbu_0, # of connection points: 4
#     Node 84, Type 0, BuildingBlock: CEKHIL_clean_sbu_0, # of connection points: 4
#     Node 85, Type 0, BuildingBlock: CEKHIL_clean_sbu_0, # of connection points: 4
#     Node 86, Type 0, BuildingBlock: CEKHIL_clean_sbu_0, # of connection points: 4
#     Node 87, Type 0, BuildingBlock: CEKHIL_clean_sbu_0, # of connection points: 4
#     Node 88, Type 0, BuildingBlock: CEKHIL_clean_sbu_0, # of connection points: 4
#     Node 89, Type 0, BuildingBlock: CEKHIL_clean_sbu_0, # of connection points: 4
#     Node 90, Type 0, BuildingBlock: CEKHIL_clean_sbu_0, # of connection points: 4
#     Node 91, Type 0, BuildingBlock: CEKHIL_clean_sbu_0, # of connection points: 4
#     Node 92, Type 0, BuildingBlock: CEKHIL_clean_sbu_0, # of connection points: 4
#     Node 93, Type 0, BuildingBlock: CEKHIL_clean_sbu_0, # of connection points: 4
#     Node 94, Type 0, BuildingBlock: CEKHIL_clean_sbu_0, # of connection points: 4
#     Node 95, Type 0, BuildingBlock: CEKHIL_clean_sbu_0, # of connection points: 4
#     Edge 96, Type (0, 0), None
#     Edge 97, Type (0, 0), None
#     Edge 98, Type (0, 0), None
#     Edge 99, Type (0, 0), None
#     Edge 100, Type (0, 0), None
#     Edge 101, Type (0, 0), None
#     Edge 102, Type (0, 0), None
#     Edge 103, Type (0, 0), None
#     Edge 104, Type (0, 0), None
#     Edge 105, Type (0, 0), None
#     Edge 106, Type (0, 0), None
#     Edge 107, Type (0, 0), None
#     Edge 108, Type (0, 0), None
#     Edge 109, Type (0, 0), None
#     Edge 110, Type (0, 0), None
#     Edge 111, Type (0, 0), None
#     Edge 112, Type (0, 0), None
#     Edge 113, Type (0, 0), None
#     Edge 114, Type (0, 0), None
#     Edge 115, Type (0, 0), None
#     Edge 116, Type (0, 0), None
#     Edge 117, Type (0, 0), None
#     Edge 118, Type (0, 0), None
#     Edge 119, Type (0, 0), None
#     Edge 120, Type (0, 0), None
#     Edge 121, Type (0, 0), None
#     Edge 122, Type (0, 0), None
#     Edge 123, Type (0, 0), None
#     Edge 124, Type (0, 0), None
#     Edge 125, Type (0, 0), None
#     Edge 126, Type (0, 0), None
#     Edge 127, Type (0, 0), None
#     Edge 128, Type (0, 0), None
#     Edge 129, Type (0, 0), None
#     Edge 130, Type (0, 0), None
#     Edge 131, Type (0, 0), None
#     Edge 132, Type (0, 0), None
#     Edge 133, Type (0, 0), None
#     Edge 134, Type (0, 0), None
#     Edge 135, Type (0, 0), None
#     Edge 136, Type (0, 0), None
#     Edge 137, Type (0, 0), None
#     Edge 138, Type (0, 0), None
#     Edge 139, Type (0, 0), None
#     Edge 140, Type (0, 0), None
#     Edge 141, Type (0, 0), None
#     Edge 142, Type (0, 0), None
#     Edge 143, Type (0, 0), None
#     Edge 144, Type (0, 0), None
#     Edge 145, Type (0, 0), None
#     Edge 146, Type (0, 0), None
#     Edge 147, Type (0, 0), None
#     Edge 148, Type (0, 0), None
#     Edge 149, Type (0, 0), None
#     Edge 150, Type (0, 0), None
#     Edge 151, Type (0, 0), None
#     Edge 152, Type (0, 0), None
#     Edge 153, Type (0, 0), None
#     Edge 154, Type (0, 0), None
#     Edge 155, Type (0, 0), None
#     Edge 156, Type (0, 0), None
#     Edge 157, Type (0, 0), None
#     Edge 158, Type (0, 0), None
#     Edge 159, Type (0, 0), None
#     Edge 160, Type (0, 0), None
#     Edge 161, Type (0, 0), None
#     Edge 162, Type (0, 0), None
#     Edge 163, Type (0, 0), None
#     Edge 164, Type (0, 0), None
#     Edge 165, Type (0, 0), None
#     Edge 166, Type (0, 0), None
#     Edge 167, Type (0, 0), None
#     Edge 168, Type (0, 0), None
#     Edge 169, Type (0, 0), None
#     Edge 170, Type (0, 0), None
#     Edge 171, Type (0, 0), None
#     Edge 172, Type (0, 0), None
#     Edge 173, Type (0, 0), None
#     Edge 174, Type (0, 0), None
#     Edge 175, Type (0, 0), None
#     Edge 176, Type (0, 0), None
#     Edge 177, Type (0, 0), None
#     Edge 178, Type (0, 0), None
#     Edge 179, Type (0, 0), None
#     Edge 180, Type (0, 0), None
#     Edge 181, Type (0, 0), None
#     Edge 182, Type (0, 0), None
#     Edge 183, Type (0, 0), None
#     Edge 184, Type (0, 0), None
#     Edge 185, Type (0, 0), None
#     Edge 186, Type (0, 0), None
#     Edge 187, Type (0, 0), None
#     Edge 188, Type (0, 0), None
#     Edge 189, Type (0, 0), None
#     Edge 190, Type (0, 0), None
#     Edge 191, Type (0, 0), None
#     Edge 192, Type (0, 0), None
#     Edge 193, Type (0, 0), None
#     Edge 194, Type (0, 0), None
#     Edge 195, Type (0, 0), None
#     Edge 196, Type (0, 0), None
#     Edge 197, Type (0, 0), None
#     Edge 198, Type (0, 0), None
#     Edge 199, Type (0, 0), None
#     Edge 200, Type (0, 0), None
#     Edge 201, Type (0, 0), None
#     Edge 202, Type (0, 0), None
#     Edge 203, Type (0, 0), None
#     Edge 204, Type (0, 0), None
#     Edge 205, Type (0, 0), None
#     Edge 206, Type (0, 0), None
#     Edge 207, Type (0, 0), None
#     Edge 208, Type (0, 0), None
#     Edge 209, Type (0, 0), None
#     Edge 210, Type (0, 0), None
#     Edge 211, Type (0, 0), None
#     Edge 212, Type (0, 0), None
#     Edge 213, Type (0, 0), None
#     Edge 214, Type (0, 0), None
#     Edge 215, Type (0, 0), None
#     Edge 216, Type (0, 0), None
#     Edge 217, Type (0, 0), None
#     Edge 218, Type (0, 0), None
#     Edge 219, Type (0, 0), None
#     Edge 220, Type (0, 0), None
#     Edge 221, Type (0, 0), None
#     Edge 222, Type (0, 0), None
#     Edge 223, Type (0, 0), None
#     Edge 224, Type (0, 0), None
#     Edge 225, Type (0, 0), None
#     Edge 226, Type (0, 0), None
#     Edge 227, Type (0, 0), None
#     Edge 228, Type (0, 0), None
#     Edge 229, Type (0, 0), None
#     Edge 230, Type (0, 0), None
#     Edge 231, Type (0, 0), None
#     Edge 232, Type (0, 0), None
#     Edge 233, Type (0, 0), None
#     Edge 234, Type (0, 0), None
#     Edge 235, Type (0, 0), None
#     Edge 236, Type (0, 0), None
#     Edge 237, Type (0, 0), None
#     Edge 238, Type (0, 0), None
#     Edge 239, Type (0, 0), None
#     Edge 240, Type (0, 0), None
#     Edge 241, Type (0, 0), None
#     Edge 242, Type (0, 0), None
#     Edge 243, Type (0, 0), None
#     Edge 244, Type (0, 0), None
#     Edge 245, Type (0, 0), None
#     Edge 246, Type (0, 0), None
#     Edge 247, Type (0, 0), None
#     Edge 248, Type (0, 0), None
#     Edge 249, Type (0, 0), None
#     Edge 250, Type (0, 0), None
#     Edge 251, Type (0, 0), None
#     Edge 252, Type (0, 0), None
#     Edge 253, Type (0, 0), None
#     Edge 254, Type (0, 0), None
#     Edge 255, Type (0, 0), None
#     Edge 256, Type (0, 0), None
#     Edge 257, Type (0, 0), None
#     Edge 258, Type (0, 0), None
#     Edge 259, Type (0, 0), None
#     Edge 260, Type (0, 0), None
#     Edge 261, Type (0, 0), None
#     Edge 262, Type (0, 0), None
#     Edge 263, Type (0, 0), None
#     Edge 264, Type (0, 0), None
#     Edge 265, Type (0, 0), None
#     Edge 266, Type (0, 0), None
#     Edge 267, Type (0, 0), None
#     Edge 268, Type (0, 0), None
#     Edge 269, Type (0, 0), None
#     Edge 270, Type (0, 0), None
#     Edge 271, Type (0, 0), None
#     Edge 272, Type (0, 0), None
#     Edge 273, Type (0, 0), None
#     Edge 274, Type (0, 0), None
#     Edge 275, Type (0, 0), None
#     Edge 276, Type (0, 0), None
#     Edge 277, Type (0, 0), None
#     Edge 278, Type (0, 0), None
#     Edge 279, Type (0, 0), None
#     Edge 280, Type (0, 0), None
#     Edge 281, Type (0, 0), None
#     Edge 282, Type (0, 0), None
#     Edge 283, Type (0, 0), None
#     Edge 284, Type (0, 0), None
#     Edge 285, Type (0, 0), None
#     Edge 286, Type (0, 0), None
#     Edge 287, Type (0, 0), None
# Relax obj value: 0.315
# Max RMSD: 0.160
# Mean RMSD: 0.155
data_MOF--net-wse--node1-CEKHIL_clean_sbu_0--edge1-none
_symmetry_space_group_name_H-M    P1
_symmetry_Int_Tables_number       1
_symmetry_cell_setting            triclinic
loop_
_symmetry_equiv_pos_as_xyz
'x, y, z'
_cell_length_a     42.019545
_cell_length_b     42.019555
_cell_length_c     42.019451
_cell_angle_alpha  90.000011
_cell_angle_beta   90.0
_cell_angle_gamma 90.000032
loop_
_atom_site_label
_atom_site_type_symbol
_atom_site_fract_x
_atom_site_fract_y
_atom_site_fract_z
_atom_type_partial_charge
Co0 Co 0.12178 0.21029 0.44511 0.0
O1 O 0.16657 0.19773 0.44985 0.0
O2 O 0.13045 0.17003 0.42405 0.0
C3 C 0.13233 0.26477 0.43646 0.0
O4 O 0.0735 0.21002 0.43454 0.0
Co5 Co 0.08158 0.2596 0.4794 0.0
O6 O 0.04767 0.25407 0.4469 0.0
C7 C 0.10181 0.19987 0.51197 0.0
C8 C 0.1592 0.17151 0.43492 0.0
C9 C 0.04771 0.22665 0.4344 0.0
O10 O 0.11123 0.1871 0.48579 0.0
O11 O 0.09224 0.22868 0.51412 0.0
O12 O 0.13342 0.24421 0.41311 0.0
O13 O 0.12373 0.25214 0.46278 0.0
Co14 Co 0.85476 0.12178 0.44511 0.0
O15 O 0.86732 0.16657 0.44985 0.0
O16 O 0.89502 0.13045 0.42405 0.0
C17 C 0.80028 0.13233 0.43646 0.0
O18 O 0.85503 0.0735 0.43454 0.0
Co19 Co 0.80545 0.08158 0.4794 0.0
O20 O 0.81098 0.04767 0.4469 0.0
C21 C 0.86518 0.10181 0.51197 0.0
C22 C 0.89354 0.1592 0.43492 0.0
C23 C 0.8384 0.04771 0.4344 0.0
O24 O 0.87795 0.11123 0.48579 0.0
O25 O 0.83637 0.09224 0.51412 0.0
O26 O 0.82084 0.13342 0.41311 0.0
O27 O 0.81291 0.12373 0.46278 0.0
Co28 Co 0.94327 0.85476 0.44511 0.0
O29 O 0.89848 0.86732 0.44985 0.0
O30 O 0.9346 0.89502 0.42405 0.0
C31 C 0.93272 0.80028 0.43646 0.0
O32 O 0.99156 0.85503 0.43454 0.0
Co33 Co 0.98347 0.80545 0.4794 0.0
O34 O 1.01738 0.81098 0.4469 0.0
C35 C 0.96325 0.86518 0.51197 0.0
C36 C 0.90585 0.89354 0.43492 0.0
C37 C 1.01735 0.8384 0.4344 0.0
O38 O 0.95383 0.87795 0.48579 0.0
O39 O 0.97281 0.83637 0.51412 0.0
O40 O 0.93163 0.82084 0.41311 0.0
O41 O 0.94132 0.81291 0.46278 0.0
Co42 Co 0.21029 0.94327 0.44511 0.0
O43 O 0.19773 0.89848 0.44985 0.0
O44 O 0.17003 0.9346 0.42405 0.0
C45 C 0.26477 0.93272 0.43646 0.0
O46 O 0.21002 0.99156 0.43454 0.0
Co47 Co 0.2596 0.98347 0.4794 0.0
O48 O 0.25407 1.01738 0.4469 0.0
C49 C 0.19987 0.96325 0.51197 0.0
C50 C 0.17151 0.90585 0.43492 0.0
C51 C 0.22665 1.01735 0.4344 0.0
O52 O 0.1871 0.95383 0.48579 0.0
O53 O 0.22868 0.97281 0.51412 0.0
O54 O 0.24421 0.93163 0.41311 0.0
O55 O 0.25214 0.94132 0.46278 0.0
Co56 Co 0.12178 0.85476 0.61995 0.0
O57 O 0.16657 0.86732 0.6152 0.0
O58 O 0.13045 0.89502 0.64101 0.0
C59 C 0.13233 0.80028 0.62859 0.0
O60 O 0.0735 0.85503 0.63051 0.0
Co61 Co 0.08158 0.80545 0.58566 0.0
O62 O 0.04767 0.81098 0.61816 0.0
C63 C 0.10181 0.86518 0.55308 0.0
C64 C 0.1592 0.89354 0.63014 0.0
C65 C 0.04771 0.8384 0.63065 0.0
O66 O 0.11123 0.87795 0.57926 0.0
O67 O 0.09224 0.83637 0.55094 0.0
O68 O 0.13342 0.82084 0.65195 0.0
O69 O 0.12373 0.81291 0.60227 0.0
Co70 Co 0.21029 0.12178 0.61995 0.0
O71 O 0.19773 0.16657 0.6152 0.0
O72 O 0.17003 0.13045 0.64101 0.0
C73 C 0.26477 0.13233 0.62859 0.0
O74 O 0.21002 0.0735 0.63051 0.0
Co75 Co 0.2596 0.08158 0.58566 0.0
O76 O 0.25407 0.04767 0.61816 0.0
C77 C 0.19987 0.10181 0.55308 0.0
C78 C 0.17151 0.1592 0.63014 0.0
C79 C 0.22665 0.04771 0.63065 0.0
O80 O 0.1871 0.11123 0.57926 0.0
O81 O 0.22868 0.09224 0.55094 0.0
O82 O 0.24421 0.13342 0.65195 0.0
O83 O 0.25214 0.12373 0.60227 0.0
Co84 Co 0.94327 0.21029 0.61995 0.0
O85 O 0.89848 0.19773 0.6152 0.0
O86 O 0.9346 0.17003 0.64101 0.0
C87 C 0.93272 0.26477 0.62859 0.0
O88 O 0.99156 0.21002 0.63051 0.0
Co89 Co 0.98347 0.2596 0.58566 0.0
O90 O 1.01738 0.25407 0.61816 0.0
C91 C 0.96325 0.19987 0.55308 0.0
C92 C 0.90585 0.17151 0.63014 0.0
C93 C 1.01735 0.22665 0.63065 0.0
O94 O 0.95383 0.1871 0.57926 0.0
O95 O 0.97281 0.22868 0.55094 0.0
O96 O 0.93163 0.24421 0.65195 0.0
O97 O 0.94132 0.25214 0.60227 0.0
Co98 Co 0.85476 0.94327 0.61995 0.0
O99 O 0.86732 0.89848 0.6152 0.0
O100 O 0.89502 0.9346 0.64101 0.0
C101 C 0.80028 0.93272 0.62859 0.0
O102 O 0.85503 0.99156 0.63051 0.0
Co103 Co 0.80545 0.98347 0.58566 0.0
O104 O 0.81098 1.01738 0.61816 0.0
C105 C 0.86518 0.96325 0.55308 0.0
C106 C 0.89354 0.90585 0.63014 0.0
C107 C 0.8384 1.01735 0.63065 0.0
O108 O 0.87795 0.95383 0.57926 0.0
O109 O 0.83637 0.97281 0.55094 0.0
O110 O 0.82084 0.93163 0.65195 0.0
O111 O 0.81291 0.94132 0.60227 0.0
Co112 Co 0.4451 0.12178 0.21029 0.0
O113 O 0.44985 0.16657 0.19773 0.0
O114 O 0.42405 0.13045 0.17003 0.0
C115 C 0.43646 0.13233 0.26478 0.0
O116 O 0.43454 0.0735 0.21002 0.0
Co117 Co 0.4794 0.08158 0.2596 0.0
O118 O 0.4469 0.04767 0.25408 0.0
C119 C 0.51197 0.10181 0.19987 0.0
C120 C 0.43492 0.1592 0.17151 0.0
C121 C 0.4344 0.04771 0.22665 0.0
O122 O 0.48579 0.11123 0.1871 0.0
O123 O 0.51412 0.09224 0.22868 0.0
O124 O 0.41311 0.13342 0.24422 0.0
O125 O 0.46278 0.12373 0.25214 0.0
Co126 Co 0.94327 0.4451 0.21029 0.0
O127 O 0.89848 0.44985 0.19773 0.0
O128 O 0.9346 0.42405 0.17003 0.0
C129 C 0.93272 0.43646 0.26478 0.0
O130 O 0.99156 0.43454 0.21002 0.0
Co131 Co 0.98347 0.4794 0.2596 0.0
O132 O 1.01738 0.4469 0.25408 0.0
C133 C 0.96325 0.51197 0.19987 0.0
C134 C 0.90585 0.43492 0.17151 0.0
C135 C 1.01735 0.4344 0.22665 0.0
O136 O 0.95383 0.48579 0.1871 0.0
O137 O 0.97281 0.51412 0.22868 0.0
O138 O 0.93163 0.41311 0.24422 0.0
O139 O 0.94132 0.46278 0.25214 0.0
Co140 Co 0.61995 0.94327 0.21029 0.0
O141 O 0.6152 0.89848 0.19773 0.0
O142 O 0.64101 0.9346 0.17003 0.0
C143 C 0.62859 0.93272 0.26478 0.0
O144 O 0.63051 0.99156 0.21002 0.0
Co145 Co 0.58565 0.98347 0.2596 0.0
O146 O 0.61815 1.01738 0.25408 0.0
C147 C 0.55308 0.96325 0.19987 0.0
C148 C 0.63014 0.90585 0.17151 0.0
C149 C 0.63065 1.01735 0.22665 0.0
O150 O 0.57926 0.95383 0.1871 0.0
O151 O 0.55094 0.97281 0.22868 0.0
O152 O 0.65194 0.93163 0.24422 0.0
O153 O 0.60227 0.94132 0.25214 0.0
Co154 Co 0.12178 0.61995 0.21029 0.0
O155 O 0.16657 0.6152 0.19773 0.0
O156 O 0.13045 0.64101 0.17003 0.0
C157 C 0.13233 0.62859 0.26478 0.0
O158 O 0.0735 0.63051 0.21002 0.0
Co159 Co 0.08158 0.58565 0.2596 0.0
O160 O 0.04767 0.61815 0.25408 0.0
C161 C 0.10181 0.55308 0.19987 0.0
C162 C 0.1592 0.63014 0.17151 0.0
C163 C 0.04771 0.63065 0.22665 0.0
O164 O 0.11123 0.57926 0.1871 0.0
O165 O 0.09224 0.55093 0.22868 0.0
O166 O 0.13342 0.65194 0.24422 0.0
O167 O 0.12373 0.60227 0.25214 0.0
Co168 Co 0.4451 0.94327 0.85476 0.0
O169 O 0.44985 0.89848 0.86732 0.0
O170 O 0.42405 0.9346 0.89502 0.0
C171 C 0.43646 0.93272 0.80028 0.0
O172 O 0.43454 0.99156 0.85504 0.0
Co173 Co 0.4794 0.98347 0.80545 0.0
O174 O 0.4469 1.01738 0.81098 0.0
C175 C 0.51197 0.96325 0.86518 0.0
C176 C 0.43492 0.90585 0.89354 0.0
C177 C 0.4344 1.01735 0.8384 0.0
O178 O 0.48579 0.95383 0.87796 0.0
O179 O 0.51412 0.97281 0.83637 0.0
O180 O 0.41311 0.93163 0.82084 0.0
O181 O 0.46278 0.94132 0.81291 0.0
Co182 Co 0.12178 0.4451 0.85476 0.0
O183 O 0.16657 0.44985 0.86732 0.0
O184 O 0.13045 0.42405 0.89502 0.0
C185 C 0.13233 0.43646 0.80028 0.0
O186 O 0.0735 0.43454 0.85504 0.0
Co187 Co 0.08158 0.4794 0.80545 0.0
O188 O 0.04767 0.4469 0.81098 0.0
C189 C 0.10181 0.51197 0.86518 0.0
C190 C 0.1592 0.43492 0.89354 0.0
C191 C 0.04771 0.4344 0.8384 0.0
O192 O 0.11123 0.48579 0.87796 0.0
O193 O 0.09224 0.51412 0.83637 0.0
O194 O 0.13342 0.41311 0.82084 0.0
O195 O 0.12373 0.46278 0.81291 0.0
Co196 Co 0.61995 0.12178 0.85476 0.0
O197 O 0.6152 0.16657 0.86732 0.0
O198 O 0.64101 0.13045 0.89502 0.0
C199 C 0.62859 0.13233 0.80028 0.0
O200 O 0.63051 0.0735 0.85504 0.0
Co201 Co 0.58565 0.08158 0.80545 0.0
O202 O 0.61815 0.04767 0.81098 0.0
C203 C 0.55308 0.10181 0.86518 0.0
C204 C 0.63014 0.1592 0.89354 0.0
C205 C 0.63065 0.04771 0.8384 0.0
O206 O 0.57926 0.11123 0.87796 0.0
O207 O 0.55094 0.09224 0.83637 0.0
O208 O 0.65194 0.13342 0.82084 0.0
O209 O 0.60227 0.12373 0.81291 0.0
Co210 Co 0.94327 0.61995 0.85476 0.0
O211 O 0.89848 0.6152 0.86732 0.0
O212 O 0.9346 0.64101 0.89502 0.0
C213 C 0.93272 0.62859 0.80028 0.0
O214 O 0.99156 0.63051 0.85504 0.0
Co215 Co 0.98347 0.58565 0.80545 0.0
O216 O 1.01738 0.61815 0.81098 0.0
C217 C 0.96325 0.55308 0.86518 0.0
C218 C 0.90585 0.63014 0.89354 0.0
C219 C 1.01735 0.63065 0.8384 0.0
O220 O 0.95383 0.57926 0.87796 0.0
O221 O 0.97281 0.55093 0.83637 0.0
O222 O 0.93163 0.65194 0.82084 0.0
O223 O 0.94132 0.60227 0.81291 0.0
Co224 Co 0.21029 0.4451 0.12178 0.0
O225 O 0.19773 0.44985 0.16657 0.0
O226 O 0.17003 0.42405 0.13045 0.0
C227 C 0.26477 0.43646 0.13233 0.0
O228 O 0.21002 0.43454 0.0735 0.0
Co229 Co 0.2596 0.4794 0.08158 0.0
O230 O 0.25408 0.4469 0.04767 0.0
C231 C 0.19987 0.51197 0.10181 0.0
C232 C 0.17151 0.43492 0.1592 0.0
C233 C 0.22665 0.4344 0.04771 0.0
O234 O 0.1871 0.48579 0.11123 0.0
O235 O 0.22868 0.51412 0.09224 0.0
O236 O 0.24421 0.41311 0.13342 0.0
O237 O 0.25214 0.46278 0.12373 0.0
Co238 Co 0.21029 0.61995 0.94327 0.0
O239 O 0.19773 0.6152 0.89848 0.0
O240 O 0.17003 0.64101 0.9346 0.0
C241 C 0.26477 0.62859 0.93272 0.0
O242 O 0.21002 0.63051 0.99156 0.0
Co243 Co 0.2596 0.58565 0.98347 0.0
O244 O 0.25408 0.61815 1.01738 0.0
C245 C 0.19987 0.55308 0.96325 0.0
C246 C 0.17151 0.63014 0.90585 0.0
C247 C 0.22665 0.63065 1.01735 0.0
O248 O 0.1871 0.57926 0.95383 0.0
O249 O 0.22868 0.55093 0.97282 0.0
O250 O 0.24422 0.65194 0.93163 0.0
O251 O 0.25214 0.60227 0.94132 0.0
Co252 Co 0.4451 0.21029 0.94327 0.0
O253 O 0.44985 0.19773 0.89848 0.0
O254 O 0.42405 0.17003 0.9346 0.0
C255 C 0.43646 0.26477 0.93272 0.0
O256 O 0.43454 0.21002 0.99156 0.0
Co257 Co 0.4794 0.2596 0.98347 0.0
O258 O 0.4469 0.25407 1.01738 0.0
C259 C 0.51197 0.19987 0.96325 0.0
C260 C 0.43492 0.17151 0.90585 0.0
C261 C 0.4344 0.22665 1.01735 0.0
O262 O 0.48579 0.1871 0.95383 0.0
O263 O 0.51412 0.22868 0.97282 0.0
O264 O 0.41311 0.24421 0.93163 0.0
O265 O 0.46278 0.25214 0.94132 0.0
Co266 Co 0.85476 0.4451 0.94327 0.0
O267 O 0.86732 0.44985 0.89848 0.0
O268 O 0.89502 0.42405 0.9346 0.0
C269 C 0.80028 0.43646 0.93272 0.0
O270 O 0.85503 0.43454 0.99156 0.0
Co271 Co 0.80545 0.4794 0.98347 0.0
O272 O 0.81098 0.4469 1.01738 0.0
C273 C 0.86518 0.51197 0.96325 0.0
C274 C 0.89354 0.43492 0.90585 0.0
C275 C 0.8384 0.4344 1.01735 0.0
O276 O 0.87795 0.48579 0.95383 0.0
O277 O 0.83637 0.51412 0.97282 0.0
O278 O 0.82084 0.41311 0.93163 0.0
O279 O 0.81291 0.46278 0.94132 0.0
Co280 Co 0.61995 0.85476 0.94327 0.0
O281 O 0.6152 0.86732 0.89848 0.0
O282 O 0.64101 0.89502 0.9346 0.0
C283 C 0.62859 0.80028 0.93272 0.0
O284 O 0.63051 0.85503 0.99156 0.0
Co285 Co 0.58565 0.80545 0.98347 0.0
O286 O 0.61815 0.81098 1.01738 0.0
C287 C 0.55308 0.86518 0.96325 0.0
C288 C 0.63014 0.89354 0.90585 0.0
C289 C 0.63065 0.8384 1.01735 0.0
O290 O 0.57926 0.87795 0.95383 0.0
O291 O 0.55094 0.83637 0.97282 0.0
O292 O 0.65194 0.82084 0.93163 0.0
O293 O 0.60227 0.81291 0.94132 0.0
Co294 Co 0.85476 0.61995 0.12178 0.0
O295 O 0.86732 0.6152 0.16657 0.0
O296 O 0.89502 0.64101 0.13045 0.0
C297 C 0.80028 0.62859 0.13233 0.0
O298 O 0.85503 0.63051 0.0735 0.0
Co299 Co 0.80545 0.58565 0.08158 0.0
O300 O 0.81098 0.61815 0.04767 0.0
C301 C 0.86518 0.55308 0.10181 0.0
C302 C 0.89354 0.63014 0.1592 0.0
C303 C 0.8384 0.63065 0.04771 0.0
O304 O 0.87795 0.57926 0.11123 0.0
O305 O 0.83637 0.55093 0.09224 0.0
O306 O 0.82084 0.65194 0.13342 0.0
O307 O 0.81291 0.60227 0.12373 0.0
Co308 Co 0.4451 0.85476 0.12178 0.0
O309 O 0.44985 0.86732 0.16657 0.0
O310 O 0.42405 0.89502 0.13045 0.0
C311 C 0.43646 0.80028 0.13233 0.0
O312 O 0.43454 0.85503 0.0735 0.0
Co313 Co 0.4794 0.80545 0.08158 0.0
O314 O 0.4469 0.81098 0.04767 0.0
C315 C 0.51197 0.86518 0.10181 0.0
C316 C 0.43492 0.89354 0.1592 0.0
C317 C 0.4344 0.8384 0.04771 0.0
O318 O 0.48579 0.87795 0.11123 0.0
O319 O 0.51412 0.83637 0.09224 0.0
O320 O 0.41311 0.82084 0.13342 0.0
O321 O 0.46278 0.81291 0.12373 0.0
Co322 Co 0.61995 0.21029 0.12178 0.0
O323 O 0.6152 0.19773 0.16657 0.0
O324 O 0.64101 0.17003 0.13045 0.0
C325 C 0.62859 0.26477 0.13233 0.0
O326 O 0.63051 0.21002 0.0735 0.0
Co327 Co 0.58565 0.2596 0.08158 0.0
O328 O 0.61815 0.25408 0.04767 0.0
C329 C 0.55308 0.19987 0.10181 0.0
C330 C 0.63014 0.17151 0.1592 0.0
C331 C 0.63065 0.22665 0.04771 0.0
O332 O 0.57926 0.1871 0.11123 0.0
O333 O 0.55093 0.22868 0.09224 0.0
O334 O 0.65194 0.24421 0.13342 0.0
O335 O 0.60227 0.25214 0.12373 0.0
Co336 Co 0.96639 0.85991 0.60779 0.0
O337 O 0.95077 0.89981 0.62519 0.0
O338 O 0.92207 0.85598 0.62117 0.0
C339 C 1.0168 0.85602 0.6294 0.0
O340 O 0.97343 0.81476 0.59225 0.0
Co341 Co 1.02529 0.86011 0.56068 0.0
O342 O 1.01675 0.81331 0.56043 0.0
C343 C 0.96633 0.88386 0.54109 0.0
C344 C 0.92299 0.88621 0.62761 0.0
C345 C 0.99362 0.79979 0.57479 0.0
O346 O 0.95037 0.87196 0.56418 0.0
O347 O 0.99444 0.89367 0.54632 0.0
O348 O 0.99178 0.84831 0.64621 0.0
O349 O 1.00988 0.87034 0.60324 0.0
Co350 Co 0.20514 0.96639 0.60779 0.0
O351 O 0.16524 0.95077 0.62519 0.0
O352 O 0.20907 0.92207 0.62117 0.0
C353 C 0.20904 1.0168 0.6294 0.0
O354 O 0.25029 0.97343 0.59225 0.0
Co355 Co 0.20494 1.02529 0.56068 0.0
O356 O 0.25174 1.01675 0.56043 0.0
C357 C 0.18119 0.96633 0.54109 0.0
C358 C 0.17884 0.92299 0.62761 0.0
C359 C 0.26527 0.99362 0.57479 0.0
O360 O 0.1931 0.95037 0.56418 0.0
O361 O 0.17138 0.99444 0.54632 0.0
O362 O 0.21674 0.99178 0.64621 0.0
O363 O 0.19471 1.00988 0.60324 0.0
Co364 Co 0.09866 0.20514 0.60779 0.0
O365 O 0.11428 0.16524 0.62519 0.0
O366 O 0.14298 0.20907 0.62117 0.0
C367 C 0.04825 0.20904 0.6294 0.0
O368 O 0.09163 0.25029 0.59225 0.0
Co369 Co 0.03976 0.20494 0.56068 0.0
O370 O 0.04831 0.25174 0.56043 0.0
C371 C 0.09873 0.18119 0.54109 0.0
C372 C 0.14206 0.17884 0.62761 0.0
C373 C 0.07143 0.26527 0.57479 0.0
O374 O 0.11468 0.1931 0.56418 0.0
O375 O 0.07061 0.17138 0.54632 0.0
O376 O 0.07327 0.21674 0.64621 0.0
O377 O 0.05517 0.19471 0.60324 0.0
Co378 Co 0.85991 0.09866 0.60779 0.0
O379 O 0.89981 0.11428 0.62519 0.0
O380 O 0.85598 0.14298 0.62117 0.0
C381 C 0.85602 0.04825 0.6294 0.0
O382 O 0.81476 0.09163 0.59225 0.0
Co383 Co 0.86011 0.03976 0.56068 0.0
O384 O 0.81331 0.04831 0.56043 0.0
C385 C 0.88386 0.09873 0.54109 0.0
C386 C 0.88621 0.14206 0.62761 0.0
C387 C 0.79979 0.07143 0.57479 0.0
O388 O 0.87196 0.11468 0.56418 0.0
O389 O 0.89367 0.07061 0.54632 0.0
O390 O 0.84831 0.07327 0.64621 0.0
O391 O 0.87034 0.05517 0.60324 0.0
Co392 Co 0.96639 0.20514 0.45726 0.0
O393 O 0.95077 0.16524 0.43987 0.0
O394 O 0.92207 0.20907 0.44389 0.0
C395 C 1.0168 0.20904 0.43566 0.0
O396 O 0.97343 0.25029 0.47281 0.0
Co397 Co 1.02529 0.20494 0.50437 0.0
O398 O 1.01675 0.25174 0.50462 0.0
C399 C 0.96633 0.18119 0.52396 0.0
C400 C 0.92299 0.17884 0.43744 0.0
C401 C 0.99362 0.26527 0.49027 0.0
O402 O 0.95037 0.1931 0.50088 0.0
O403 O 0.99444 0.17138 0.51874 0.0
O404 O 0.99178 0.21674 0.41885 0.0
O405 O 1.00988 0.19471 0.46181 0.0
Co406 Co 0.85991 0.96639 0.45726 0.0
O407 O 0.89981 0.95077 0.43987 0.0
O408 O 0.85598 0.92207 0.44389 0.0
C409 C 0.85602 1.0168 0.43566 0.0
O410 O 0.81476 0.97343 0.47281 0.0
Co411 Co 0.86011 1.02529 0.50437 0.0
O412 O 0.81331 1.01675 0.50462 0.0
C413 C 0.88386 0.96633 0.52396 0.0
C414 C 0.88621 0.92299 0.43744 0.0
C415 C 0.79979 0.99362 0.49027 0.0
O416 O 0.87196 0.95037 0.50088 0.0
O417 O 0.89367 0.99444 0.51874 0.0
O418 O 0.84831 0.99178 0.41885 0.0
O419 O 0.87034 1.00988 0.46181 0.0
Co420 Co 0.09866 0.85991 0.45726 0.0
O421 O 0.11428 0.89981 0.43987 0.0
O422 O 0.14298 0.85598 0.44389 0.0
C423 C 0.04825 0.85602 0.43566 0.0
O424 O 0.09163 0.81476 0.47281 0.0
Co425 Co 0.03976 0.86011 0.50437 0.0
O426 O 0.04831 0.81331 0.50462 0.0
C427 C 0.09873 0.88386 0.52396 0.0
C428 C 0.14206 0.88621 0.43744 0.0
C429 C 0.07143 0.79979 0.49027 0.0
O430 O 0.11468 0.87196 0.50088 0.0
O431 O 0.07061 0.89367 0.51874 0.0
O432 O 0.07327 0.84831 0.41885 0.0
O433 O 0.05517 0.87034 0.46181 0.0
Co434 Co 0.20514 0.09866 0.45726 0.0
O435 O 0.16524 0.11428 0.43987 0.0
O436 O 0.20907 0.14298 0.44389 0.0
C437 C 0.20904 0.04825 0.43566 0.0
O438 O 0.25029 0.09163 0.47281 0.0
Co439 Co 0.20494 0.03976 0.50437 0.0
O440 O 0.25174 0.04831 0.50462 0.0
C441 C 0.18119 0.09873 0.52396 0.0
C442 C 0.17884 0.14206 0.43744 0.0
C443 C 0.26527 0.07143 0.49027 0.0
O444 O 0.1931 0.11468 0.50088 0.0
O445 O 0.17138 0.07061 0.51874 0.0
O446 O 0.21674 0.07327 0.41885 0.0
O447 O 0.19471 0.05517 0.46181 0.0
Co448 Co 0.60779 0.96639 0.85991 0.0
O449 O 0.62518 0.95077 0.89981 0.0
O450 O 0.62116 0.92207 0.85598 0.0
C451 C 0.6294 1.0168 0.85602 0.0
O452 O 0.59225 0.97343 0.81476 0.0
Co453 Co 0.56068 1.02529 0.86012 0.0
O454 O 0.56043 1.01675 0.81331 0.0
C455 C 0.54109 0.96633 0.88386 0.0
C456 C 0.62761 0.92299 0.88621 0.0
C457 C 0.57479 0.99362 0.79979 0.0
O458 O 0.56418 0.95037 0.87196 0.0
O459 O 0.54632 0.99444 0.89367 0.0
O460 O 0.64621 0.99178 0.84831 0.0
O461 O 0.60324 1.00988 0.87034 0.0
Co462 Co 0.09866 0.60779 0.85991 0.0
O463 O 0.11428 0.62518 0.89981 0.0
O464 O 0.14298 0.62116 0.85598 0.0
C465 C 0.04825 0.6294 0.85602 0.0
O466 O 0.09163 0.59225 0.81476 0.0
Co467 Co 0.03976 0.56068 0.86012 0.0
O468 O 0.04831 0.56043 0.81331 0.0
C469 C 0.09873 0.54109 0.88386 0.0
C470 C 0.14206 0.62761 0.88621 0.0
C471 C 0.07143 0.57478 0.79979 0.0
O472 O 0.11468 0.56418 0.87196 0.0
O473 O 0.07061 0.54632 0.89367 0.0
O474 O 0.07327 0.64621 0.84831 0.0
O475 O 0.05517 0.60324 0.87034 0.0
Co476 Co 0.45726 0.09866 0.85991 0.0
O477 O 0.43987 0.11428 0.89981 0.0
O478 O 0.44389 0.14298 0.85598 0.0
C479 C 0.43566 0.04825 0.85602 0.0
O480 O 0.47281 0.09163 0.81476 0.0
Co481 Co 0.50437 0.03976 0.86012 0.0
O482 O 0.50462 0.04831 0.81331 0.0
C483 C 0.52396 0.09873 0.88386 0.0
C484 C 0.43744 0.14206 0.88621 0.0
C485 C 0.49027 0.07143 0.79979 0.0
O486 O 0.50088 0.11468 0.87196 0.0
O487 O 0.51873 0.07061 0.89367 0.0
O488 O 0.41885 0.07327 0.84831 0.0
O489 O 0.46181 0.05517 0.87034 0.0
Co490 Co 0.96639 0.45726 0.85991 0.0
O491 O 0.95077 0.43987 0.89981 0.0
O492 O 0.92207 0.44389 0.85598 0.0
C493 C 1.0168 0.43565 0.85602 0.0
O494 O 0.97343 0.47281 0.81476 0.0
Co495 Co 1.02529 0.50437 0.86012 0.0
O496 O 1.01675 0.50462 0.81331 0.0
C497 C 0.96633 0.52396 0.88386 0.0
C498 C 0.92299 0.43744 0.88621 0.0
C499 C 0.99362 0.49027 0.79979 0.0
O500 O 0.95037 0.50088 0.87196 0.0
O501 O 0.99444 0.51873 0.89367 0.0
O502 O 0.99178 0.41885 0.84831 0.0
O503 O 1.00988 0.46181 0.87034 0.0
Co504 Co 0.60779 0.09866 0.20514 0.0
O505 O 0.62518 0.11428 0.16524 0.0
O506 O 0.62116 0.14298 0.20907 0.0
C507 C 0.6294 0.04825 0.20904 0.0
O508 O 0.59225 0.09163 0.25029 0.0
Co509 Co 0.56068 0.03976 0.20494 0.0
O510 O 0.56043 0.04831 0.25174 0.0
C511 C 0.54109 0.09873 0.18119 0.0
C512 C 0.62761 0.14206 0.17884 0.0
C513 C 0.57479 0.07143 0.26527 0.0
O514 O 0.56418 0.11468 0.1931 0.0
O515 O 0.54632 0.07061 0.17138 0.0
O516 O 0.64621 0.07327 0.21674 0.0
O517 O 0.60324 0.05517 0.19471 0.0
Co518 Co 0.96639 0.60779 0.20514 0.0
O519 O 0.95077 0.62518 0.16524 0.0
O520 O 0.92207 0.62116 0.20907 0.0
C521 C 1.0168 0.6294 0.20904 0.0
O522 O 0.97343 0.59225 0.25029 0.0
Co523 Co 1.02529 0.56068 0.20494 0.0
O524 O 1.01675 0.56043 0.25174 0.0
C525 C 0.96633 0.54109 0.18119 0.0
C526 C 0.92299 0.62761 0.17884 0.0
C527 C 0.99362 0.57478 0.26527 0.0
O528 O 0.95037 0.56418 0.1931 0.0
O529 O 0.99444 0.54632 0.17138 0.0
O530 O 0.99178 0.64621 0.21674 0.0
O531 O 1.00988 0.60324 0.19471 0.0
Co532 Co 0.45726 0.96639 0.20514 0.0
O533 O 0.43987 0.95077 0.16524 0.0
O534 O 0.44389 0.92207 0.20907 0.0
C535 C 0.43566 1.0168 0.20904 0.0
O536 O 0.47281 0.97343 0.25029 0.0
Co537 Co 0.50437 1.02529 0.20494 0.0
O538 O 0.50462 1.01675 0.25174 0.0
C539 C 0.52396 0.96633 0.18119 0.0
C540 C 0.43744 0.92299 0.17884 0.0
C541 C 0.49027 0.99362 0.26527 0.0
O542 O 0.50088 0.95037 0.1931 0.0
O543 O 0.51873 0.99444 0.17138 0.0
O544 O 0.41885 0.99178 0.21674 0.0
O545 O 0.46181 1.00988 0.19471 0.0
Co546 Co 0.09866 0.45726 0.20514 0.0
O547 O 0.11428 0.43987 0.16524 0.0
O548 O 0.14298 0.44389 0.20907 0.0
C549 C 0.04825 0.43565 0.20904 0.0
O550 O 0.09163 0.47281 0.25029 0.0
Co551 Co 0.03976 0.50437 0.20494 0.0
O552 O 0.04831 0.50462 0.25174 0.0
C553 C 0.09873 0.52396 0.18119 0.0
C554 C 0.14206 0.43744 0.17884 0.0
C555 C 0.07143 0.49027 0.26527 0.0
O556 O 0.11468 0.50088 0.1931 0.0
O557 O 0.07061 0.51873 0.17138 0.0
O558 O 0.07327 0.41885 0.21674 0.0
O559 O 0.05517 0.46181 0.19471 0.0
Co560 Co 0.85991 0.60779 0.9664 0.0
O561 O 0.89981 0.62518 0.95077 0.0
O562 O 0.85598 0.62116 0.92207 0.0
C563 C 0.85602 0.6294 1.0168 0.0
O564 O 0.81476 0.59225 0.97343 0.0
Co565 Co 0.86011 0.56068 1.0253 0.0
O566 O 0.81331 0.56043 1.01675 0.0
C567 C 0.88386 0.54109 0.96633 0.0
C568 C 0.88621 0.62761 0.92299 0.0
C569 C 0.79979 0.57479 0.99362 0.0
O570 O 0.87196 0.56418 0.95037 0.0
O571 O 0.89367 0.54632 0.99444 0.0
O572 O 0.84831 0.64621 0.99179 0.0
O573 O 0.87034 0.60324 1.00989 0.0
Co574 Co 0.85991 0.45726 0.09866 0.0
O575 O 0.89981 0.43987 0.11428 0.0
O576 O 0.85598 0.44389 0.14298 0.0
C577 C 0.85602 0.43565 0.04825 0.0
O578 O 0.81476 0.47281 0.09163 0.0
Co579 Co 0.86011 0.50437 0.03976 0.0
O580 O 0.81331 0.50462 0.04831 0.0
C581 C 0.88386 0.52396 0.09873 0.0
C582 C 0.88621 0.43744 0.14206 0.0
C583 C 0.79979 0.49027 0.07143 0.0
O584 O 0.87196 0.50088 0.11468 0.0
O585 O 0.89367 0.51873 0.07061 0.0
O586 O 0.84831 0.41885 0.07327 0.0
O587 O 0.87034 0.46181 0.05517 0.0
Co588 Co 0.60779 0.85991 0.09866 0.0
O589 O 0.62518 0.89981 0.11428 0.0
O590 O 0.62116 0.85598 0.14298 0.0
C591 C 0.6294 0.85602 0.04825 0.0
O592 O 0.59225 0.81476 0.09163 0.0
Co593 Co 0.56068 0.86011 0.03976 0.0
O594 O 0.56043 0.81331 0.04831 0.0
C595 C 0.54109 0.88386 0.09873 0.0
C596 C 0.62761 0.88621 0.14206 0.0
C597 C 0.57479 0.79978 0.07143 0.0
O598 O 0.56418 0.87196 0.11468 0.0
O599 O 0.54632 0.89367 0.07061 0.0
O600 O 0.64621 0.84831 0.07327 0.0
O601 O 0.60324 0.87034 0.05517 0.0
Co602 Co 0.20514 0.60779 0.09866 0.0
O603 O 0.16524 0.62518 0.11428 0.0
O604 O 0.20907 0.62116 0.14298 0.0
C605 C 0.20904 0.6294 0.04825 0.0
O606 O 0.25029 0.59225 0.09163 0.0
Co607 Co 0.20494 0.56068 0.03976 0.0
O608 O 0.25174 0.56043 0.04831 0.0
C609 C 0.18119 0.54109 0.09873 0.0
C610 C 0.17884 0.62761 0.14206 0.0
C611 C 0.26527 0.57478 0.07143 0.0
O612 O 0.1931 0.56418 0.11468 0.0
O613 O 0.17138 0.54632 0.07061 0.0
O614 O 0.21674 0.64621 0.07327 0.0
O615 O 0.19471 0.60324 0.05517 0.0
Co616 Co 0.45726 0.20514 0.09866 0.0
O617 O 0.43987 0.16524 0.11428 0.0
O618 O 0.44389 0.20907 0.14298 0.0
C619 C 0.43566 0.20904 0.04825 0.0
O620 O 0.47281 0.25029 0.09163 0.0
Co621 Co 0.50437 0.20494 0.03976 0.0
O622 O 0.50462 0.25174 0.04831 0.0
C623 C 0.52396 0.18119 0.09873 0.0
C624 C 0.43744 0.17884 0.14206 0.0
C625 C 0.49027 0.26527 0.07143 0.0
O626 O 0.50088 0.1931 0.11468 0.0
O627 O 0.51873 0.17138 0.07061 0.0
O628 O 0.41885 0.21674 0.07327 0.0
O629 O 0.46181 0.19471 0.05517 0.0
Co630 Co 0.20514 0.45726 0.9664 0.0
O631 O 0.16524 0.43987 0.95077 0.0
O632 O 0.20907 0.44389 0.92207 0.0
C633 C 0.20904 0.43565 1.0168 0.0
O634 O 0.25029 0.47281 0.97343 0.0
Co635 Co 0.20494 0.50437 1.0253 0.0
O636 O 0.25174 0.50462 1.01675 0.0
C637 C 0.18119 0.52396 0.96633 0.0
C638 C 0.17884 0.43744 0.92299 0.0
C639 C 0.26527 0.49027 0.99362 0.0
O640 O 0.1931 0.50088 0.95037 0.0
O641 O 0.17138 0.51873 0.99444 0.0
O642 O 0.21674 0.41885 0.99179 0.0
O643 O 0.19471 0.46181 1.00989 0.0
Co644 Co 0.60779 0.20514 0.9664 0.0
O645 O 0.62518 0.16524 0.95077 0.0
O646 O 0.62116 0.20907 0.92207 0.0
C647 C 0.6294 0.20904 1.0168 0.0
O648 O 0.59225 0.25029 0.97343 0.0
Co649 Co 0.56068 0.20494 1.0253 0.0
O650 O 0.56043 0.25174 1.01675 0.0
C651 C 0.54109 0.18119 0.96633 0.0
C652 C 0.62761 0.17884 0.92299 0.0
C653 C 0.57479 0.26527 0.99362 0.0
O654 O 0.56418 0.1931 0.95037 0.0
O655 O 0.54632 0.17138 0.99444 0.0
O656 O 0.64621 0.21674 0.99179 0.0
O657 O 0.60324 0.19471 1.00989 0.0
Co658 Co 0.45726 0.85991 0.9664 0.0
O659 O 0.43987 0.89981 0.95077 0.0
O660 O 0.44389 0.85598 0.92207 0.0
C661 C 0.43566 0.85602 1.0168 0.0
O662 O 0.47281 0.81476 0.97343 0.0
Co663 Co 0.50437 0.86011 1.0253 0.0
O664 O 0.50462 0.81331 1.01675 0.0
C665 C 0.52396 0.88386 0.96633 0.0
C666 C 0.43744 0.88621 0.92299 0.0
C667 C 0.49027 0.79979 0.99362 0.0
O668 O 0.50088 0.87196 0.95037 0.0
O669 O 0.51873 0.89367 0.99444 0.0
O670 O 0.41885 0.84831 0.99179 0.0
O671 O 0.46181 0.87034 1.00989 0.0
Co672 Co 0.62177 0.71029 0.9451 0.0
O673 O 0.66657 0.69774 0.94984 0.0
O674 O 0.63045 0.67003 0.92405 0.0
C675 C 0.63228 0.76477 0.93643 0.0
O676 O 0.57349 0.71001 0.93454 0.0
Co677 Co 0.58157 0.7596 0.97941 0.0
O678 O 0.54766 0.75407 0.9469 0.0
C679 C 0.60181 0.69987 1.01197 0.0
C680 C 0.6592 0.67152 0.93491 0.0
C681 C 0.5477 0.72665 0.9344 0.0
O682 O 0.61122 0.6871 0.98579 0.0
O683 O 0.59224 0.72868 1.01412 0.0
O684 O 0.6334 0.7442 0.91308 0.0
O685 O 0.62371 0.75215 0.96277 0.0
Co686 Co 0.35476 0.62177 0.9451 0.0
O687 O 0.36731 0.66657 0.94984 0.0
O688 O 0.39502 0.63045 0.92405 0.0
C689 C 0.30028 0.63228 0.93643 0.0
O690 O 0.35504 0.57349 0.93454 0.0
Co691 Co 0.30545 0.58157 0.97941 0.0
O692 O 0.31098 0.54766 0.9469 0.0
C693 C 0.36518 0.60181 1.01197 0.0
C694 C 0.39353 0.6592 0.93491 0.0
C695 C 0.3384 0.5477 0.9344 0.0
O696 O 0.37795 0.61122 0.98579 0.0
O697 O 0.33637 0.59224 1.01412 0.0
O698 O 0.32085 0.6334 0.91308 0.0
O699 O 0.3129 0.62371 0.96277 0.0
Co700 Co 0.44328 0.35476 0.9451 0.0
O701 O 0.39849 0.36731 0.94984 0.0
O702 O 0.4346 0.39502 0.92405 0.0
C703 C 0.43277 0.30028 0.93643 0.0
O704 O 0.49156 0.35504 0.93454 0.0
Co705 Co 0.48349 0.30545 0.97941 0.0
O706 O 0.51739 0.31098 0.9469 0.0
C707 C 0.46324 0.36518 1.01197 0.0
C708 C 0.40586 0.39353 0.93491 0.0
C709 C 0.51735 0.3384 0.9344 0.0
O710 O 0.45383 0.37795 0.98579 0.0
O711 O 0.47281 0.33637 1.01412 0.0
O712 O 0.43165 0.32085 0.91308 0.0
O713 O 0.44134 0.3129 0.96277 0.0
Co714 Co 0.71029 0.44328 0.9451 0.0
O715 O 0.69774 0.39849 0.94984 0.0
O716 O 0.67003 0.4346 0.92405 0.0
C717 C 0.76477 0.43277 0.93643 0.0
O718 O 0.71001 0.49156 0.93454 0.0
Co719 Co 0.7596 0.48349 0.97941 0.0
O720 O 0.75407 0.51739 0.9469 0.0
C721 C 0.69987 0.46324 1.01197 0.0
C722 C 0.67152 0.40586 0.93491 0.0
C723 C 0.72665 0.51735 0.9344 0.0
O724 O 0.6871 0.45383 0.98579 0.0
O725 O 0.72868 0.47281 1.01412 0.0
O726 O 0.7442 0.43165 0.91308 0.0
O727 O 0.75215 0.44134 0.96277 0.0
Co728 Co 0.62177 0.35476 0.11996 0.0
O729 O 0.66657 0.36731 0.11521 0.0
O730 O 0.63045 0.39502 0.14101 0.0
C731 C 0.63228 0.30028 0.12862 0.0
O732 O 0.57349 0.35504 0.13052 0.0
Co733 Co 0.58157 0.30545 0.08565 0.0
O734 O 0.54766 0.31098 0.11815 0.0
C735 C 0.60181 0.36518 0.05308 0.0
C736 C 0.6592 0.39353 0.13014 0.0
C737 C 0.5477 0.3384 0.13065 0.0
O738 O 0.61122 0.37795 0.07927 0.0
O739 O 0.59224 0.33637 0.05093 0.0
O740 O 0.6334 0.32085 0.15197 0.0
O741 O 0.62371 0.3129 0.10228 0.0
Co742 Co 0.71029 0.62177 0.11996 0.0
O743 O 0.69774 0.66657 0.11521 0.0
O744 O 0.67003 0.63045 0.14101 0.0
C745 C 0.76477 0.63228 0.12862 0.0
O746 O 0.71001 0.57349 0.13052 0.0
Co747 Co 0.7596 0.58157 0.08565 0.0
O748 O 0.75407 0.54766 0.11815 0.0
C749 C 0.69987 0.60181 0.05308 0.0
C750 C 0.67152 0.6592 0.13014 0.0
C751 C 0.72665 0.5477 0.13065 0.0
O752 O 0.6871 0.61122 0.07927 0.0
O753 O 0.72868 0.59224 0.05093 0.0
O754 O 0.7442 0.6334 0.15197 0.0
O755 O 0.75215 0.62371 0.10228 0.0
Co756 Co 0.44328 0.71029 0.11996 0.0
O757 O 0.39849 0.69774 0.11521 0.0
O758 O 0.4346 0.67003 0.14101 0.0
C759 C 0.43277 0.76477 0.12862 0.0
O760 O 0.49156 0.71001 0.13052 0.0
Co761 Co 0.48349 0.7596 0.08565 0.0
O762 O 0.51739 0.75407 0.11815 0.0
C763 C 0.46324 0.69987 0.05308 0.0
C764 C 0.40586 0.67152 0.13014 0.0
C765 C 0.51735 0.72665 0.13065 0.0
O766 O 0.45383 0.6871 0.07927 0.0
O767 O 0.47281 0.72868 0.05093 0.0
O768 O 0.43165 0.7442 0.15197 0.0
O769 O 0.44134 0.75215 0.10228 0.0
Co770 Co 0.35476 0.44328 0.11996 0.0
O771 O 0.36731 0.39849 0.11521 0.0
O772 O 0.39502 0.4346 0.14101 0.0
C773 C 0.30028 0.43277 0.12862 0.0
O774 O 0.35504 0.49156 0.13052 0.0
Co775 Co 0.30545 0.48349 0.08565 0.0
O776 O 0.31098 0.51739 0.11815 0.0
C777 C 0.36518 0.46324 0.05308 0.0
C778 C 0.39353 0.40586 0.13014 0.0
C779 C 0.3384 0.51735 0.13065 0.0
O780 O 0.37795 0.45383 0.07927 0.0
O781 O 0.33637 0.47281 0.05093 0.0
O782 O 0.32085 0.43165 0.15197 0.0
O783 O 0.3129 0.44134 0.10228 0.0
Co784 Co 0.9451 0.62177 0.7103 0.0
O785 O 0.94984 0.66657 0.69774 0.0
O786 O 0.92405 0.63045 0.67003 0.0
C787 C 0.93643 0.63228 0.76477 0.0
O788 O 0.93453 0.57349 0.71002 0.0
Co789 Co 0.9794 0.58157 0.7596 0.0
O790 O 0.9469 0.54766 0.75407 0.0
C791 C 1.01197 0.60181 0.69987 0.0
C792 C 0.93491 0.6592 0.67152 0.0
C793 C 0.9344 0.5477 0.72665 0.0
O794 O 0.98579 0.61122 0.68711 0.0
O795 O 1.01412 0.59224 0.72868 0.0
O796 O 0.91308 0.6334 0.7442 0.0
O797 O 0.96277 0.62371 0.75215 0.0
Co798 Co 0.44328 0.9451 0.7103 0.0
O799 O 0.39849 0.94984 0.69774 0.0
O800 O 0.4346 0.92405 0.67003 0.0
C801 C 0.43277 0.93643 0.76477 0.0
O802 O 0.49156 0.93453 0.71002 0.0
Co803 Co 0.48349 0.9794 0.7596 0.0
O804 O 0.51739 0.9469 0.75407 0.0
C805 C 0.46324 1.01197 0.69987 0.0
C806 C 0.40586 0.93491 0.67152 0.0
C807 C 0.51735 0.9344 0.72665 0.0
O808 O 0.45383 0.98579 0.68711 0.0
O809 O 0.47281 1.01412 0.72868 0.0
O810 O 0.43165 0.91308 0.7442 0.0
O811 O 0.44134 0.96277 0.75215 0.0
Co812 Co 0.11996 0.44328 0.7103 0.0
O813 O 0.11521 0.39849 0.69774 0.0
O814 O 0.14101 0.4346 0.67003 0.0
C815 C 0.12862 0.43277 0.76477 0.0
O816 O 0.13052 0.49156 0.71002 0.0
Co817 Co 0.08565 0.48349 0.7596 0.0
O818 O 0.11815 0.51739 0.75407 0.0
C819 C 0.05308 0.46324 0.69987 0.0
C820 C 0.13014 0.40586 0.67152 0.0
C821 C 0.13065 0.51735 0.72665 0.0
O822 O 0.07926 0.45383 0.68711 0.0
O823 O 0.05093 0.47281 0.72868 0.0
O824 O 0.15197 0.43165 0.7442 0.0
O825 O 0.10228 0.44134 0.75215 0.0
Co826 Co 0.62177 0.11995 0.7103 0.0
O827 O 0.66657 0.11521 0.69774 0.0
O828 O 0.63045 0.14101 0.67003 0.0
C829 C 0.63228 0.12862 0.76477 0.0
O830 O 0.57349 0.13052 0.71002 0.0
Co831 Co 0.58157 0.08565 0.7596 0.0
O832 O 0.54766 0.11815 0.75407 0.0
C833 C 0.60181 0.05308 0.69987 0.0
C834 C 0.6592 0.13014 0.67152 0.0
C835 C 0.5477 0.13065 0.72665 0.0
O836 O 0.61122 0.07926 0.68711 0.0
O837 O 0.59224 0.05093 0.72868 0.0
O838 O 0.6334 0.15197 0.7442 0.0
O839 O 0.62371 0.10228 0.75215 0.0
Co840 Co 0.9451 0.44328 0.35476 0.0
O841 O 0.94984 0.39849 0.36731 0.0
O842 O 0.92405 0.4346 0.39502 0.0
C843 C 0.93643 0.43277 0.30029 0.0
O844 O 0.93453 0.49156 0.35504 0.0
Co845 Co 0.9794 0.48349 0.30545 0.0
O846 O 0.9469 0.51739 0.31098 0.0
C847 C 1.01197 0.46324 0.36518 0.0
C848 C 0.93491 0.40586 0.39353 0.0
C849 C 0.9344 0.51735 0.3384 0.0
O850 O 0.98579 0.45383 0.37795 0.0
O851 O 1.01412 0.47281 0.33637 0.0
O852 O 0.91308 0.43165 0.32085 0.0
O853 O 0.96277 0.44134 0.3129 0.0
Co854 Co 0.62177 0.9451 0.35476 0.0
O855 O 0.66657 0.94984 0.36731 0.0
O856 O 0.63045 0.92405 0.39502 0.0
C857 C 0.63228 0.93643 0.30029 0.0
O858 O 0.57349 0.93453 0.35504 0.0
Co859 Co 0.58157 0.9794 0.30545 0.0
O860 O 0.54766 0.9469 0.31098 0.0
C861 C 0.60181 1.01197 0.36518 0.0
C862 C 0.6592 0.93491 0.39353 0.0
C863 C 0.5477 0.9344 0.3384 0.0
O864 O 0.61122 0.98579 0.37795 0.0
O865 O 0.59224 1.01412 0.33637 0.0
O866 O 0.6334 0.91308 0.32085 0.0
O867 O 0.62371 0.96277 0.3129 0.0
Co868 Co 0.11996 0.62177 0.35476 0.0
O869 O 0.11521 0.66657 0.36731 0.0
O870 O 0.14101 0.63045 0.39502 0.0
C871 C 0.12862 0.63228 0.30029 0.0
O872 O 0.13052 0.57349 0.35504 0.0
Co873 Co 0.08565 0.58157 0.30545 0.0
O874 O 0.11815 0.54766 0.31098 0.0
C875 C 0.05308 0.60181 0.36518 0.0
C876 C 0.13014 0.6592 0.39353 0.0
C877 C 0.13065 0.5477 0.3384 0.0
O878 O 0.07926 0.61122 0.37795 0.0
O879 O 0.05093 0.59224 0.33637 0.0
O880 O 0.15197 0.6334 0.32085 0.0
O881 O 0.10228 0.62371 0.3129 0.0
Co882 Co 0.44328 0.11995 0.35476 0.0
O883 O 0.39849 0.11521 0.36731 0.0
O884 O 0.4346 0.14101 0.39502 0.0
C885 C 0.43277 0.12862 0.30029 0.0
O886 O 0.49156 0.13052 0.35504 0.0
Co887 Co 0.48349 0.08565 0.30545 0.0
O888 O 0.51739 0.11815 0.31098 0.0
C889 C 0.46324 0.05308 0.36518 0.0
C890 C 0.40586 0.13014 0.39353 0.0
C891 C 0.51735 0.13065 0.3384 0.0
O892 O 0.45383 0.07926 0.37795 0.0
O893 O 0.47281 0.05093 0.33637 0.0
O894 O 0.43165 0.15197 0.32085 0.0
O895 O 0.44134 0.10228 0.3129 0.0
Co896 Co 0.71029 0.9451 0.62177 0.0
O897 O 0.69774 0.94984 0.66657 0.0
O898 O 0.67003 0.92405 0.63045 0.0
C899 C 0.76477 0.93643 0.63228 0.0
O900 O 0.71001 0.93453 0.57349 0.0
Co901 Co 0.7596 0.9794 0.58157 0.0
O902 O 0.75407 0.9469 0.54766 0.0
C903 C 0.69987 1.01197 0.60181 0.0
C904 C 0.67152 0.93491 0.6592 0.0
C905 C 0.72665 0.9344 0.5477 0.0
O906 O 0.68711 0.98579 0.61122 0.0
O907 O 0.72868 1.01412 0.59224 0.0
O908 O 0.7442 0.91308 0.6334 0.0
O909 O 0.75215 0.96277 0.62371 0.0
Co910 Co 0.71029 0.11995 0.44328 0.0
O911 O 0.69774 0.11521 0.39849 0.0
O912 O 0.67003 0.14101 0.43461 0.0
C913 C 0.76477 0.12862 0.43277 0.0
O914 O 0.71001 0.13052 0.49157 0.0
Co915 Co 0.7596 0.08565 0.48349 0.0
O916 O 0.75407 0.11815 0.51739 0.0
C917 C 0.69987 0.05308 0.46324 0.0
C918 C 0.67152 0.13014 0.40586 0.0
C919 C 0.72665 0.13065 0.51736 0.0
O920 O 0.68711 0.07926 0.45383 0.0
O921 O 0.72868 0.05093 0.47281 0.0
O922 O 0.7442 0.15197 0.43165 0.0
O923 O 0.75215 0.10228 0.44134 0.0
Co924 Co 0.9451 0.71029 0.44328 0.0
O925 O 0.94984 0.69774 0.39849 0.0
O926 O 0.92405 0.67003 0.43461 0.0
C927 C 0.93643 0.76477 0.43277 0.0
O928 O 0.93453 0.71001 0.49157 0.0
Co929 Co 0.9794 0.7596 0.48349 0.0
O930 O 0.9469 0.75407 0.51739 0.0
C931 C 1.01197 0.69987 0.46324 0.0
C932 C 0.93491 0.67152 0.40586 0.0
C933 C 0.9344 0.72665 0.51736 0.0
O934 O 0.98579 0.68711 0.45383 0.0
O935 O 1.01412 0.72868 0.47281 0.0
O936 O 0.91308 0.7442 0.43165 0.0
O937 O 0.96277 0.75215 0.44134 0.0
Co938 Co 0.35476 0.9451 0.44328 0.0
O939 O 0.36731 0.94984 0.39849 0.0
O940 O 0.39502 0.92405 0.43461 0.0
C941 C 0.30028 0.93643 0.43277 0.0
O942 O 0.35504 0.93453 0.49157 0.0
Co943 Co 0.30545 0.9794 0.48349 0.0
O944 O 0.31098 0.9469 0.51739 0.0
C945 C 0.36518 1.01197 0.46324 0.0
C946 C 0.39353 0.93491 0.40586 0.0
C947 C 0.3384 0.9344 0.51736 0.0
O948 O 0.37795 0.98579 0.45383 0.0
O949 O 0.33637 1.01412 0.47281 0.0
O950 O 0.32085 0.91308 0.43165 0.0
O951 O 0.3129 0.96277 0.44134 0.0
Co952 Co 0.11996 0.35476 0.44328 0.0
O953 O 0.11521 0.36731 0.39849 0.0
O954 O 0.14101 0.39502 0.43461 0.0
C955 C 0.12862 0.30028 0.43277 0.0
O956 O 0.13052 0.35504 0.49157 0.0
Co957 Co 0.08565 0.30545 0.48349 0.0
O958 O 0.11815 0.31098 0.51739 0.0
C959 C 0.05308 0.36518 0.46324 0.0
C960 C 0.13014 0.39353 0.40586 0.0
C961 C 0.13065 0.3384 0.51736 0.0
O962 O 0.07926 0.37795 0.45383 0.0
O963 O 0.05093 0.33637 0.47281 0.0
O964 O 0.15197 0.32085 0.43165 0.0
O965 O 0.10228 0.3129 0.44134 0.0
Co966 Co 0.35476 0.11995 0.62177 0.0
O967 O 0.36731 0.11521 0.66657 0.0
O968 O 0.39502 0.14101 0.63045 0.0
C969 C 0.30028 0.12862 0.63228 0.0
O970 O 0.35504 0.13052 0.57349 0.0
Co971 Co 0.30545 0.08565 0.58157 0.0
O972 O 0.31098 0.11815 0.54766 0.0
C973 C 0.36518 0.05308 0.60181 0.0
C974 C 0.39353 0.13014 0.6592 0.0
C975 C 0.3384 0.13065 0.5477 0.0
O976 O 0.37795 0.07926 0.61122 0.0
O977 O 0.33637 0.05093 0.59224 0.0
O978 O 0.32085 0.15197 0.6334 0.0
O979 O 0.3129 0.10228 0.62371 0.0
Co980 Co 0.9451 0.35476 0.62177 0.0
O981 O 0.94984 0.36731 0.66657 0.0
O982 O 0.92405 0.39502 0.63045 0.0
C983 C 0.93643 0.30028 0.63228 0.0
O984 O 0.93453 0.35504 0.57349 0.0
Co985 Co 0.9794 0.30545 0.58157 0.0
O986 O 0.9469 0.31098 0.54766 0.0
C987 C 1.01197 0.36518 0.60181 0.0
C988 C 0.93491 0.39353 0.6592 0.0
C989 C 0.9344 0.3384 0.5477 0.0
O990 O 0.98579 0.37795 0.61122 0.0
O991 O 1.01412 0.33637 0.59224 0.0
O992 O 0.91308 0.32085 0.6334 0.0
O993 O 0.96277 0.3129 0.62371 0.0
Co994 Co 0.11996 0.71029 0.62177 0.0
O995 O 0.11521 0.69774 0.66657 0.0
O996 O 0.14101 0.67003 0.63045 0.0
C997 C 0.12862 0.76477 0.63228 0.0
O998 O 0.13052 0.71001 0.57349 0.0
Co999 Co 0.08565 0.7596 0.58157 0.0
O1000 O 0.11815 0.75407 0.54766 0.0
C1001 C 0.05308 0.69987 0.60181 0.0
C1002 C 0.13014 0.67152 0.6592 0.0
C1003 C 0.13065 0.72665 0.5477 0.0
O1004 O 0.07926 0.68711 0.61122 0.0
O1005 O 0.05093 0.72868 0.59224 0.0
O1006 O 0.15197 0.7442 0.6334 0.0
O1007 O 0.10228 0.75215 0.62371 0.0
Co1008 Co 0.46639 0.35991 0.10779 0.0
O1009 O 0.45076 0.39982 0.12518 0.0
O1010 O 0.42206 0.35598 0.12116 0.0
C1011 C 0.51679 0.35602 0.1294 0.0
O1012 O 0.47342 0.31476 0.09224 0.0
Co1013 Co 0.52529 0.36012 0.06068 0.0
O1014 O 0.51674 0.31331 0.06043 0.0
C1015 C 0.46632 0.38386 0.04109 0.0
C1016 C 0.42298 0.38621 0.12761 0.0
C1017 C 0.49361 0.29979 0.07478 0.0
O1018 O 0.45036 0.37196 0.06417 0.0
O1019 O 0.49443 0.39367 0.04632 0.0
O1020 O 0.49177 0.34831 0.14621 0.0
O1021 O 0.50988 0.37034 0.10324 0.0
Co1022 Co 0.70514 0.46639 0.10779 0.0
O1023 O 0.66524 0.45076 0.12518 0.0
O1024 O 0.70907 0.42206 0.12116 0.0
C1025 C 0.70903 0.51679 0.1294 0.0
O1026 O 0.75029 0.47342 0.09224 0.0
Co1027 Co 0.70493 0.52529 0.06068 0.0
O1028 O 0.75174 0.51674 0.06043 0.0
C1029 C 0.68119 0.46632 0.04109 0.0
C1030 C 0.67884 0.42298 0.12761 0.0
C1031 C 0.76526 0.49361 0.07478 0.0
O1032 O 0.69309 0.45036 0.06417 0.0
O1033 O 0.67138 0.49443 0.04632 0.0
O1034 O 0.71674 0.49177 0.14621 0.0
O1035 O 0.69471 0.50988 0.10324 0.0
Co1036 Co 0.59867 0.70514 0.10779 0.0
O1037 O 0.61429 0.66524 0.12518 0.0
O1038 O 0.64299 0.70907 0.12116 0.0
C1039 C 0.54826 0.70903 0.1294 0.0
O1040 O 0.59163 0.75029 0.09224 0.0
Co1041 Co 0.53977 0.70493 0.06068 0.0
O1042 O 0.54831 0.75174 0.06043 0.0
C1043 C 0.59874 0.68119 0.04109 0.0
C1044 C 0.64207 0.67884 0.12761 0.0
C1045 C 0.57144 0.76526 0.07478 0.0
O1046 O 0.61469 0.69309 0.06417 0.0
O1047 O 0.57062 0.67138 0.04632 0.0
O1048 O 0.57328 0.71674 0.14621 0.0
O1049 O 0.55518 0.69471 0.10324 0.0
Co1050 Co 0.35991 0.59867 0.10779 0.0
O1051 O 0.39982 0.61429 0.12518 0.0
O1052 O 0.35598 0.64299 0.12116 0.0
C1053 C 0.35602 0.54826 0.1294 0.0
O1054 O 0.31476 0.59163 0.09224 0.0
Co1055 Co 0.36012 0.53976 0.06068 0.0
O1056 O 0.31331 0.54831 0.06043 0.0
C1057 C 0.38386 0.59873 0.04109 0.0
C1058 C 0.38621 0.64207 0.12761 0.0
C1059 C 0.29979 0.57144 0.07478 0.0
O1060 O 0.37196 0.61469 0.06417 0.0
O1061 O 0.39367 0.57062 0.04632 0.0
O1062 O 0.34831 0.57328 0.14621 0.0
O1063 O 0.37034 0.55518 0.10324 0.0
Co1064 Co 0.46639 0.70514 0.95727 0.0
O1065 O 0.45076 0.66524 0.93987 0.0
O1066 O 0.42206 0.70907 0.94389 0.0
C1067 C 0.51679 0.70903 0.93566 0.0
O1068 O 0.47342 0.75029 0.97281 0.0
Co1069 Co 0.52529 0.70493 1.00437 0.0
O1070 O 0.51674 0.75174 1.00462 0.0
C1071 C 0.46632 0.68119 1.02396 0.0
C1072 C 0.42298 0.67884 0.93745 0.0
C1073 C 0.49362 0.76526 0.99027 0.0
O1074 O 0.45036 0.69309 1.00088 0.0
O1075 O 0.49443 0.67138 1.01874 0.0
O1076 O 0.49177 0.71674 0.91885 0.0
O1077 O 0.50988 0.69471 0.96181 0.0
Co1078 Co 0.35991 0.46639 0.95727 0.0
O1079 O 0.39982 0.45076 0.93987 0.0
O1080 O 0.35598 0.42206 0.94389 0.0
C1081 C 0.35602 0.51679 0.93566 0.0
O1082 O 0.31476 0.47342 0.97281 0.0
Co1083 Co 0.36012 0.52529 1.00437 0.0
O1084 O 0.31331 0.51674 1.00462 0.0
C1085 C 0.38386 0.46632 1.02396 0.0
C1086 C 0.38621 0.42298 0.93745 0.0
C1087 C 0.29979 0.49361 0.99027 0.0
O1088 O 0.37196 0.45036 1.00088 0.0
O1089 O 0.39367 0.49443 1.01874 0.0
O1090 O 0.34831 0.49177 0.91885 0.0
O1091 O 0.37034 0.50988 0.96181 0.0
Co1092 Co 0.59867 0.35991 0.95727 0.0
O1093 O 0.61429 0.39982 0.93987 0.0
O1094 O 0.64299 0.35598 0.94389 0.0
C1095 C 0.54826 0.35602 0.93566 0.0
O1096 O 0.59163 0.31476 0.97281 0.0
Co1097 Co 0.53977 0.36012 1.00437 0.0
O1098 O 0.54831 0.31331 1.00462 0.0
C1099 C 0.59874 0.38386 1.02396 0.0
C1100 C 0.64207 0.38621 0.93745 0.0
C1101 C 0.57144 0.29979 0.99027 0.0
O1102 O 0.61469 0.37196 1.00088 0.0
O1103 O 0.57062 0.39367 1.01874 0.0
O1104 O 0.57328 0.34831 0.91885 0.0
O1105 O 0.55518 0.37034 0.96181 0.0
Co1106 Co 0.70514 0.59867 0.95727 0.0
O1107 O 0.66524 0.61429 0.93987 0.0
O1108 O 0.70907 0.64299 0.94389 0.0
C1109 C 0.70903 0.54826 0.93566 0.0
O1110 O 0.75029 0.59163 0.97281 0.0
Co1111 Co 0.70493 0.53976 1.00437 0.0
O1112 O 0.75174 0.54831 1.00462 0.0
C1113 C 0.68119 0.59874 1.02396 0.0
C1114 C 0.67884 0.64207 0.93745 0.0
C1115 C 0.76526 0.57144 0.99027 0.0
O1116 O 0.69309 0.61469 1.00088 0.0
O1117 O 0.67138 0.57062 1.01874 0.0
O1118 O 0.71674 0.57328 0.91885 0.0
O1119 O 0.69471 0.55518 0.96181 0.0
Co1120 Co 0.10779 0.46639 0.35991 0.0
O1121 O 0.12518 0.45076 0.39982 0.0
O1122 O 0.12116 0.42206 0.35598 0.0
C1123 C 0.1294 0.51679 0.35602 0.0
O1124 O 0.09224 0.47342 0.31477 0.0
Co1125 Co 0.06068 0.52529 0.36012 0.0
O1126 O 0.06043 0.51674 0.31332 0.0
C1127 C 0.04109 0.46632 0.38386 0.0
C1128 C 0.12761 0.42298 0.38622 0.0
C1129 C 0.07478 0.49361 0.29979 0.0
O1130 O 0.06417 0.45036 0.37196 0.0
O1131 O 0.04632 0.49443 0.39367 0.0
O1132 O 0.1462 0.49177 0.34831 0.0
O1133 O 0.10324 0.50988 0.37034 0.0
Co1134 Co 0.59867 0.10779 0.35991 0.0
O1135 O 0.61429 0.12518 0.39982 0.0
O1136 O 0.64299 0.12116 0.35598 0.0
C1137 C 0.54826 0.1294 0.35602 0.0
O1138 O 0.59163 0.09224 0.31477 0.0
Co1139 Co 0.53977 0.06068 0.36012 0.0
O1140 O 0.54831 0.06043 0.31332 0.0
C1141 C 0.59874 0.04109 0.38386 0.0
C1142 C 0.64207 0.12761 0.38622 0.0
C1143 C 0.57144 0.07478 0.29979 0.0
O1144 O 0.61469 0.06417 0.37196 0.0
O1145 O 0.57062 0.04632 0.39367 0.0
O1146 O 0.57328 0.1462 0.34831 0.0
O1147 O 0.55518 0.10324 0.37034 0.0
Co1148 Co 0.95727 0.59867 0.35991 0.0
O1149 O 0.93987 0.61429 0.39982 0.0
O1150 O 0.94389 0.64299 0.35598 0.0
C1151 C 0.93566 0.54826 0.35602 0.0
O1152 O 0.97281 0.59163 0.31477 0.0
Co1153 Co 1.00437 0.53976 0.36012 0.0
O1154 O 1.00462 0.54831 0.31332 0.0
C1155 C 1.02396 0.59874 0.38386 0.0
C1156 C 0.93744 0.64207 0.38622 0.0
C1157 C 0.99027 0.57144 0.29979 0.0
O1158 O 1.00088 0.61469 0.37196 0.0
O1159 O 1.01873 0.57062 0.39367 0.0
O1160 O 0.91885 0.57328 0.34831 0.0
O1161 O 0.96181 0.55518 0.37034 0.0
Co1162 Co 0.46639 0.95727 0.35991 0.0
O1163 O 0.45076 0.93987 0.39982 0.0
O1164 O 0.42206 0.94389 0.35598 0.0
C1165 C 0.51679 0.93566 0.35602 0.0
O1166 O 0.47342 0.97281 0.31477 0.0
Co1167 Co 0.52529 1.00437 0.36012 0.0
O1168 O 0.51674 1.00462 0.31332 0.0
C1169 C 0.46632 1.02396 0.38386 0.0
C1170 C 0.42298 0.93744 0.38622 0.0
C1171 C 0.49362 0.99027 0.29979 0.0
O1172 O 0.45036 1.00088 0.37196 0.0
O1173 O 0.49443 1.01873 0.39367 0.0
O1174 O 0.49177 0.91885 0.34831 0.0
O1175 O 0.50988 0.96181 0.37034 0.0
Co1176 Co 0.10779 0.59867 0.70514 0.0
O1177 O 0.12518 0.61429 0.66524 0.0
O1178 O 0.12116 0.64299 0.70907 0.0
C1179 C 0.1294 0.54826 0.70903 0.0
O1180 O 0.09224 0.59163 0.75029 0.0
Co1181 Co 0.06068 0.53976 0.70493 0.0
O1182 O 0.06043 0.54831 0.75174 0.0
C1183 C 0.04109 0.59873 0.68119 0.0
C1184 C 0.12761 0.64207 0.67884 0.0
C1185 C 0.07478 0.57144 0.76526 0.0
O1186 O 0.06417 0.61469 0.69309 0.0
O1187 O 0.04632 0.57062 0.67138 0.0
O1188 O 0.1462 0.57328 0.71674 0.0
O1189 O 0.10324 0.55518 0.69471 0.0
Co1190 Co 0.46639 0.10779 0.70514 0.0
O1191 O 0.45076 0.12518 0.66524 0.0
O1192 O 0.42206 0.12116 0.70907 0.0
C1193 C 0.51679 0.1294 0.70903 0.0
O1194 O 0.47342 0.09224 0.75029 0.0
Co1195 Co 0.52529 0.06068 0.70493 0.0
O1196 O 0.51674 0.06043 0.75174 0.0
C1197 C 0.46632 0.04109 0.68119 0.0
C1198 C 0.42298 0.12761 0.67884 0.0
C1199 C 0.49362 0.07478 0.76526 0.0
O1200 O 0.45036 0.06417 0.69309 0.0
O1201 O 0.49443 0.04632 0.67138 0.0
O1202 O 0.49177 0.1462 0.71674 0.0
O1203 O 0.50988 0.10324 0.69471 0.0
Co1204 Co 0.95727 0.46639 0.70514 0.0
O1205 O 0.93987 0.45076 0.66524 0.0
O1206 O 0.94389 0.42206 0.70907 0.0
C1207 C 0.93566 0.51679 0.70903 0.0
O1208 O 0.97281 0.47342 0.75029 0.0
Co1209 Co 1.00437 0.52529 0.70493 0.0
O1210 O 1.00462 0.51674 0.75174 0.0
C1211 C 1.02396 0.46632 0.68119 0.0
C1212 C 0.93744 0.42298 0.67884 0.0
C1213 C 0.99027 0.49361 0.76526 0.0
O1214 O 1.00088 0.45036 0.69309 0.0
O1215 O 1.01873 0.49443 0.67138 0.0
O1216 O 0.91885 0.49177 0.71674 0.0
O1217 O 0.96181 0.50988 0.69471 0.0
Co1218 Co 0.59867 0.95727 0.70514 0.0
O1219 O 0.61429 0.93987 0.66524 0.0
O1220 O 0.64299 0.94389 0.70907 0.0
C1221 C 0.54826 0.93566 0.70903 0.0
O1222 O 0.59163 0.97281 0.75029 0.0
Co1223 Co 0.53977 1.00437 0.70493 0.0
O1224 O 0.54831 1.00462 0.75174 0.0
C1225 C 0.59874 1.02396 0.68119 0.0
C1226 C 0.64207 0.93744 0.67884 0.0
C1227 C 0.57144 0.99027 0.76526 0.0
O1228 O 0.61469 1.00088 0.69309 0.0
O1229 O 0.57062 1.01873 0.67138 0.0
O1230 O 0.57328 0.91885 0.71674 0.0
O1231 O 0.55518 0.96181 0.69471 0.0
Co1232 Co 0.35991 0.10779 0.46639 0.0
O1233 O 0.39982 0.12518 0.45076 0.0
O1234 O 0.35598 0.12116 0.42206 0.0
C1235 C 0.35602 0.1294 0.51679 0.0
O1236 O 0.31476 0.09224 0.47342 0.0
Co1237 Co 0.36012 0.06068 0.52529 0.0
O1238 O 0.31331 0.06043 0.51674 0.0
C1239 C 0.38386 0.04109 0.46632 0.0
C1240 C 0.38621 0.12761 0.42298 0.0
C1241 C 0.29979 0.07478 0.49362 0.0
O1242 O 0.37196 0.06417 0.45036 0.0
O1243 O 0.39367 0.04632 0.49443 0.0
O1244 O 0.34831 0.1462 0.49178 0.0
O1245 O 0.37034 0.10324 0.50988 0.0
Co1246 Co 0.35991 0.95727 0.59867 0.0
O1247 O 0.39982 0.93987 0.61429 0.0
O1248 O 0.35598 0.94389 0.64299 0.0
C1249 C 0.35602 0.93566 0.54826 0.0
O1250 O 0.31476 0.97281 0.59163 0.0
Co1251 Co 0.36012 1.00437 0.53977 0.0
O1252 O 0.31331 1.00462 0.54831 0.0
C1253 C 0.38386 1.02396 0.59874 0.0
C1254 C 0.38621 0.93744 0.64207 0.0
C1255 C 0.29979 0.99027 0.57144 0.0
O1256 O 0.37196 1.00088 0.61469 0.0
O1257 O 0.39367 1.01873 0.57062 0.0
O1258 O 0.34831 0.91885 0.57328 0.0
O1259 O 0.37034 0.96181 0.55518 0.0
Co1260 Co 0.10779 0.35991 0.59867 0.0
O1261 O 0.12518 0.39982 0.61429 0.0
O1262 O 0.12116 0.35598 0.64299 0.0
C1263 C 0.1294 0.35602 0.54826 0.0
O1264 O 0.09224 0.31476 0.59163 0.0
Co1265 Co 0.06068 0.36012 0.53977 0.0
O1266 O 0.06043 0.31331 0.54831 0.0
C1267 C 0.04109 0.38386 0.59874 0.0
C1268 C 0.12761 0.38621 0.64207 0.0
C1269 C 0.07478 0.29979 0.57144 0.0
O1270 O 0.06417 0.37196 0.61469 0.0
O1271 O 0.04632 0.39367 0.57062 0.0
O1272 O 0.1462 0.34831 0.57328 0.0
O1273 O 0.10324 0.37034 0.55518 0.0
Co1274 Co 0.70514 0.10779 0.59867 0.0
O1275 O 0.66524 0.12518 0.61429 0.0
O1276 O 0.70907 0.12116 0.64299 0.0
C1277 C 0.70903 0.1294 0.54826 0.0
O1278 O 0.75029 0.09224 0.59163 0.0
Co1279 Co 0.70493 0.06068 0.53977 0.0
O1280 O 0.75174 0.06043 0.54831 0.0
C1281 C 0.68119 0.04109 0.59874 0.0
C1282 C 0.67884 0.12761 0.64207 0.0
C1283 C 0.76526 0.07478 0.57144 0.0
O1284 O 0.69309 0.06417 0.61469 0.0
O1285 O 0.67138 0.04632 0.57062 0.0
O1286 O 0.71674 0.1462 0.57328 0.0
O1287 O 0.69471 0.10324 0.55518 0.0
Co1288 Co 0.95727 0.70514 0.59867 0.0
O1289 O 0.93987 0.66524 0.61429 0.0
O1290 O 0.94389 0.70907 0.64299 0.0
C1291 C 0.93566 0.70903 0.54826 0.0
O1292 O 0.97281 0.75029 0.59163 0.0
Co1293 Co 1.00437 0.70493 0.53977 0.0
O1294 O 1.00462 0.75174 0.54831 0.0
C1295 C 1.02396 0.68119 0.59874 0.0
C1296 C 0.93744 0.67884 0.64207 0.0
C1297 C 0.99027 0.76526 0.57144 0.0
O1298 O 1.00088 0.69309 0.61469 0.0
O1299 O 1.01873 0.67138 0.57062 0.0
O1300 O 0.91885 0.71674 0.57328 0.0
O1301 O 0.96181 0.69471 0.55518 0.0
Co1302 Co 0.70514 0.95727 0.46639 0.0
O1303 O 0.66524 0.93987 0.45076 0.0
O1304 O 0.70907 0.94389 0.42206 0.0
C1305 C 0.70903 0.93566 0.51679 0.0
O1306 O 0.75029 0.97281 0.47342 0.0
Co1307 Co 0.70493 1.00437 0.52529 0.0
O1308 O 0.75174 1.00462 0.51674 0.0
C1309 C 0.68119 1.02396 0.46632 0.0
C1310 C 0.67884 0.93744 0.42298 0.0
C1311 C 0.76526 0.99027 0.49362 0.0
O1312 O 0.69309 1.00088 0.45036 0.0
O1313 O 0.67138 1.01873 0.49443 0.0
O1314 O 0.71674 0.91885 0.49178 0.0
O1315 O 0.69471 0.96181 0.50988 0.0
Co1316 Co 0.10779 0.70514 0.46639 0.0
O1317 O 0.12518 0.66524 0.45076 0.0
O1318 O 0.12116 0.70907 0.42206 0.0
C1319 C 0.1294 0.70903 0.51679 0.0
O1320 O 0.09224 0.75029 0.47342 0.0
Co1321 Co 0.06068 0.70493 0.52529 0.0
O1322 O 0.06043 0.75174 0.51674 0.0
C1323 C 0.04109 0.68119 0.46632 0.0
C1324 C 0.12761 0.67884 0.42298 0.0
C1325 C 0.07478 0.76526 0.49362 0.0
O1326 O 0.06417 0.69309 0.45036 0.0
O1327 O 0.04632 0.67138 0.49443 0.0
O1328 O 0.1462 0.71674 0.49178 0.0
O1329 O 0.10324 0.69471 0.50988 0.0
Co1330 Co 0.95727 0.35991 0.46639 0.0
O1331 O 0.93987 0.39982 0.45076 0.0
O1332 O 0.94389 0.35598 0.42206 0.0
C1333 C 0.93566 0.35602 0.51679 0.0
O1334 O 0.97281 0.31476 0.47342 0.0
Co1335 Co 1.00437 0.36012 0.52529 0.0
O1336 O 1.00462 0.31331 0.51674 0.0
C1337 C 1.02396 0.38386 0.46632 0.0
C1338 C 0.93744 0.38621 0.42298 0.0
C1339 C 0.99027 0.29979 0.49362 0.0
O1340 O 1.00088 0.37196 0.45036 0.0
O1341 O 1.01873 0.39367 0.49443 0.0
O1342 O 0.91885 0.34831 0.49178 0.0
O1343 O 0.96181 0.37034 0.50988 0.0
loop_
_geom_bond_atom_site_label_1
_geom_bond_atom_site_label_2
_geom_bond_distance
_geom_bond_site_symmetry_2
_ccdc_geom_bond_type
Co0 O1 2.216 . S
Co0 O2 2.091 . S
Co0 O4 2.004 . S
Co0 O10 2.021 . S
Co0 O12 2.137 . S
Co0 O13 2.244 . S
O1 Co0 2.216 . S
O1 C8 1.247 . S
O2 Co0 2.091 . S
O2 C8 1.261 . S
C3 O12 1.247 . S
C3 O13 1.272 . S
O4 Co0 2.004 . S
O4 C9 1.259 . S
Co5 O6 2.061 . S
Co5 O11 2.052 . S
Co5 O13 2.135 . S
O6 Co5 2.061 . S
O6 C9 1.235 . S
C7 O10 1.238 . S
C7 O11 1.241 . S
C8 O1 1.247 . S
C8 O2 1.261 . S
C9 O4 1.259 . S
C9 O6 1.235 . S
O10 Co0 2.021 . S
O10 C7 1.238 . S
O11 Co5 2.052 . S
O11 C7 1.241 . S
O12 Co0 2.137 . S
O12 C3 1.247 . S
O13 Co0 2.244 . S
O13 C3 1.272 . S
O13 Co5 2.135 . S
Co14 O15 2.216 . S
Co14 O16 2.091 . S
Co14 O18 2.004 . S
Co14 O24 2.021 . S
Co14 O26 2.137 . S
Co14 O27 2.244 . S
O15 Co14 2.216 . S
O15 C22 1.247 . S
O16 Co14 2.091 . S
O16 C22 1.261 . S
C17 O26 1.247 . S
C17 O27 1.272 . S
O18 Co14 2.004 . S
O18 C23 1.259 . S
Co19 O20 2.061 . S
Co19 O25 2.052 . S
Co19 O27 2.135 . S
O20 Co19 2.061 . S
O20 C23 1.235 . S
C21 O24 1.238 . S
C21 O25 1.241 . S
C22 O15 1.247 . S
C22 O16 1.261 . S
C23 O18 1.259 . S
C23 O20 1.235 . S
O24 Co14 2.021 . S
O24 C21 1.238 . S
O25 Co19 2.052 . S
O25 C21 1.241 . S
O26 Co14 2.137 . S
O26 C17 1.247 . S
O27 Co14 2.244 . S
O27 C17 1.272 . S
O27 Co19 2.135 . S
Co28 O29 2.216 . S
Co28 O30 2.091 . S
Co28 O32 2.004 . S
Co28 O38 2.021 . S
Co28 O40 2.137 . S
Co28 O41 2.244 . S
O29 Co28 2.216 . S
O29 C36 1.247 . S
O30 Co28 2.091 . S
O30 C36 1.261 . S
C31 O40 1.247 . S
C31 O41 1.272 . S
O32 Co28 2.004 . S
O32 C37 1.259 . S
Co33 O34 2.061 . S
Co33 O39 2.052 . S
Co33 O41 2.135 . S
O34 Co33 2.061 . S
O34 C37 1.235 . S
C35 O38 1.238 . S
C35 O39 1.241 . S
C36 O29 1.247 . S
C36 O30 1.261 . S
C37 O32 1.259 . S
C37 O34 1.235 . S
O38 Co28 2.021 . S
O38 C35 1.238 . S
O39 Co33 2.052 . S
O39 C35 1.241 . S
O40 Co28 2.137 . S
O40 C31 1.247 . S
O41 Co28 2.244 . S
O41 C31 1.272 . S
O41 Co33 2.135 . S
Co42 O43 2.216 . S
Co42 O44 2.091 . S
Co42 O46 2.004 . S
Co42 O52 2.021 . S
Co42 O54 2.137 . S
Co42 O55 2.244 . S
O43 Co42 2.216 . S
O43 C50 1.247 . S
O44 Co42 2.091 . S
O44 C50 1.261 . S
C45 O54 1.247 . S
C45 O55 1.272 . S
O46 Co42 2.004 . S
O46 C51 1.259 . S
Co47 O48 2.061 . S
Co47 O53 2.052 . S
Co47 O55 2.135 . S
O48 Co47 2.061 . S
O48 C51 1.235 . S
C49 O52 1.238 . S
C49 O53 1.241 . S
C50 O43 1.247 . S
C50 O44 1.261 . S
C51 O46 1.259 . S
C51 O48 1.235 . S
O52 Co42 2.021 . S
O52 C49 1.238 . S
O53 Co47 2.052 . S
O53 C49 1.241 . S
O54 Co42 2.137 . S
O54 C45 1.247 . S
O55 Co42 2.244 . S
O55 C45 1.272 . S
O55 Co47 2.135 . S
Co56 O57 2.216 . S
Co56 O58 2.091 . S
Co56 O60 2.004 . S
Co56 O66 2.021 . S
Co56 O68 2.137 . S
Co56 O69 2.244 . S
O57 Co56 2.216 . S
O57 C64 1.247 . S
O58 Co56 2.091 . S
O58 C64 1.261 . S
C59 O68 1.247 . S
C59 O69 1.272 . S
O60 Co56 2.004 . S
O60 C65 1.259 . S
Co61 O62 2.061 . S
Co61 O67 2.052 . S
Co61 O69 2.135 . S
O62 Co61 2.061 . S
O62 C65 1.235 . S
C63 O66 1.238 . S
C63 O67 1.241 . S
C64 O57 1.247 . S
C64 O58 1.261 . S
C65 O60 1.259 . S
C65 O62 1.235 . S
O66 Co56 2.021 . S
O66 C63 1.238 . S
O67 Co61 2.052 . S
O67 C63 1.241 . S
O68 Co56 2.137 . S
O68 C59 1.247 . S
O69 Co56 2.244 . S
O69 C59 1.272 . S
O69 Co61 2.135 . S
Co70 O71 2.216 . S
Co70 O72 2.091 . S
Co70 O74 2.004 . S
Co70 O80 2.021 . S
Co70 O82 2.137 . S
Co70 O83 2.244 . S
O71 Co70 2.216 . S
O71 C78 1.247 . S
O72 Co70 2.091 . S
O72 C78 1.261 . S
C73 O82 1.247 . S
C73 O83 1.272 . S
O74 Co70 2.004 . S
O74 C79 1.259 . S
Co75 O76 2.061 . S
Co75 O81 2.052 . S
Co75 O83 2.135 . S
O76 Co75 2.061 . S
O76 C79 1.235 . S
C77 O80 1.238 . S
C77 O81 1.241 . S
C78 O71 1.247 . S
C78 O72 1.261 . S
C79 O74 1.259 . S
C79 O76 1.235 . S
O80 Co70 2.021 . S
O80 C77 1.238 . S
O81 Co75 2.052 . S
O81 C77 1.241 . S
O82 Co70 2.137 . S
O82 C73 1.247 . S
O83 Co70 2.244 . S
O83 C73 1.272 . S
O83 Co75 2.135 . S
Co84 O85 2.216 . S
Co84 O86 2.091 . S
Co84 O88 2.004 . S
Co84 O94 2.021 . S
Co84 O96 2.137 . S
Co84 O97 2.244 . S
O85 Co84 2.216 . S
O85 C92 1.247 . S
O86 Co84 2.091 . S
O86 C92 1.261 . S
C87 O96 1.247 . S
C87 O97 1.272 . S
O88 Co84 2.004 . S
O88 C93 1.259 . S
Co89 O90 2.061 . S
Co89 O95 2.052 . S
Co89 O97 2.135 . S
O90 Co89 2.061 . S
O90 C93 1.235 . S
C91 O94 1.238 . S
C91 O95 1.241 . S
C92 O85 1.247 . S
C92 O86 1.261 . S
C93 O88 1.259 . S
C93 O90 1.235 . S
O94 Co84 2.021 . S
O94 C91 1.238 . S
O95 Co89 2.052 . S
O95 C91 1.241 . S
O96 Co84 2.137 . S
O96 C87 1.247 . S
O97 Co84 2.244 . S
O97 C87 1.272 . S
O97 Co89 2.135 . S
Co98 O99 2.216 . S
Co98 O100 2.091 . S
Co98 O102 2.004 . S
Co98 O108 2.021 . S
Co98 O110 2.137 . S
Co98 O111 2.244 . S
O99 Co98 2.216 . S
O99 C106 1.247 . S
O100 Co98 2.091 . S
O100 C106 1.261 . S
C101 O110 1.247 . S
C101 O111 1.272 . S
O102 Co98 2.004 . S
O102 C107 1.259 . S
Co103 O104 2.061 . S
Co103 O109 2.052 . S
Co103 O111 2.135 . S
O104 Co103 2.061 . S
O104 C107 1.235 . S
C105 O108 1.238 . S
C105 O109 1.241 . S
C106 O99 1.247 . S
C106 O100 1.261 . S
C107 O102 1.259 . S
C107 O104 1.235 . S
O108 Co98 2.021 . S
O108 C105 1.238 . S
O109 Co103 2.052 . S
O109 C105 1.241 . S
O110 Co98 2.137 . S
O110 C101 1.247 . S
O111 Co98 2.244 . S
O111 C101 1.272 . S
O111 Co103 2.135 . S
Co112 O113 2.216 . S
Co112 O114 2.091 . S
Co112 O116 2.004 . S
Co112 O122 2.021 . S
Co112 O124 2.137 . S
Co112 O125 2.244 . S
O113 Co112 2.216 . S
O113 C120 1.247 . S
O114 Co112 2.091 . S
O114 C120 1.261 . S
C115 O124 1.247 . S
C115 O125 1.272 . S
O116 Co112 2.004 . S
O116 C121 1.259 . S
Co117 O118 2.061 . S
Co117 O123 2.052 . S
Co117 O125 2.135 . S
O118 Co117 2.061 . S
O118 C121 1.235 . S
C119 O122 1.238 . S
C119 O123 1.241 . S
C120 O113 1.247 . S
C120 O114 1.261 . S
C121 O116 1.259 . S
C121 O118 1.235 . S
O122 Co112 2.021 . S
O122 C119 1.238 . S
O123 Co117 2.052 . S
O123 C119 1.241 . S
O124 Co112 2.137 . S
O124 C115 1.247 . S
O125 Co112 2.244 . S
O125 C115 1.272 . S
O125 Co117 2.135 . S
Co126 O127 2.216 . S
Co126 O128 2.091 . S
Co126 O130 2.004 . S
Co126 O136 2.021 . S
Co126 O138 2.137 . S
Co126 O139 2.244 . S
O127 Co126 2.216 . S
O127 C134 1.247 . S
O128 Co126 2.091 . S
O128 C134 1.261 . S
C129 O138 1.247 . S
C129 O139 1.272 . S
O130 Co126 2.004 . S
O130 C135 1.259 . S
Co131 O132 2.061 . S
Co131 O137 2.052 . S
Co131 O139 2.135 . S
O132 Co131 2.061 . S
O132 C135 1.235 . S
C133 O136 1.238 . S
C133 O137 1.241 . S
C134 O127 1.247 . S
C134 O128 1.261 . S
C135 O130 1.259 . S
C135 O132 1.235 . S
O136 Co126 2.021 . S
O136 C133 1.238 . S
O137 Co131 2.052 . S
O137 C133 1.241 . S
O138 Co126 2.137 . S
O138 C129 1.247 . S
O139 Co126 2.244 . S
O139 C129 1.272 . S
O139 Co131 2.135 . S
Co140 O141 2.216 . S
Co140 O142 2.091 . S
Co140 O144 2.004 . S
Co140 O150 2.021 . S
Co140 O152 2.137 . S
Co140 O153 2.244 . S
O141 Co140 2.216 . S
O141 C148 1.247 . S
O142 Co140 2.091 . S
O142 C148 1.261 . S
C143 O152 1.247 . S
C143 O153 1.272 . S
O144 Co140 2.004 . S
O144 C149 1.259 . S
Co145 O146 2.061 . S
Co145 O151 2.052 . S
Co145 O153 2.135 . S
O146 Co145 2.061 . S
O146 C149 1.235 . S
C147 O150 1.238 . S
C147 O151 1.241 . S
C148 O141 1.247 . S
C148 O142 1.261 . S
C149 O144 1.259 . S
C149 O146 1.235 . S
O150 Co140 2.021 . S
O150 C147 1.238 . S
O151 Co145 2.052 . S
O151 C147 1.241 . S
O152 Co140 2.137 . S
O152 C143 1.247 . S
O153 Co140 2.244 . S
O153 C143 1.272 . S
O153 Co145 2.135 . S
Co154 O155 2.216 . S
Co154 O156 2.091 . S
Co154 O158 2.004 . S
Co154 O164 2.021 . S
Co154 O166 2.137 . S
Co154 O167 2.244 . S
O155 Co154 2.216 . S
O155 C162 1.247 . S
O156 Co154 2.091 . S
O156 C162 1.261 . S
C157 O166 1.247 . S
C157 O167 1.272 . S
O158 Co154 2.004 . S
O158 C163 1.259 . S
Co159 O160 2.061 . S
Co159 O165 2.052 . S
Co159 O167 2.135 . S
O160 Co159 2.061 . S
O160 C163 1.235 . S
C161 O164 1.238 . S
C161 O165 1.241 . S
C162 O155 1.247 . S
C162 O156 1.261 . S
C163 O158 1.259 . S
C163 O160 1.235 . S
O164 Co154 2.021 . S
O164 C161 1.238 . S
O165 Co159 2.052 . S
O165 C161 1.241 . S
O166 Co154 2.137 . S
O166 C157 1.247 . S
O167 Co154 2.244 . S
O167 C157 1.272 . S
O167 Co159 2.135 . S
Co168 O169 2.216 . S
Co168 O170 2.091 . S
Co168 O172 2.004 . S
Co168 O178 2.021 . S
Co168 O180 2.137 . S
Co168 O181 2.244 . S
O169 Co168 2.216 . S
O169 C176 1.247 . S
O170 Co168 2.091 . S
O170 C176 1.261 . S
C171 O180 1.247 . S
C171 O181 1.272 . S
O172 Co168 2.004 . S
O172 C177 1.259 . S
Co173 O174 2.061 . S
Co173 O179 2.052 . S
Co173 O181 2.135 . S
O174 Co173 2.061 . S
O174 C177 1.235 . S
C175 O178 1.238 . S
C175 O179 1.241 . S
C176 O169 1.247 . S
C176 O170 1.261 . S
C177 O172 1.259 . S
C177 O174 1.235 . S
O178 Co168 2.021 . S
O178 C175 1.238 . S
O179 Co173 2.052 . S
O179 C175 1.241 . S
O180 Co168 2.137 . S
O180 C171 1.247 . S
O181 Co168 2.244 . S
O181 C171 1.272 . S
O181 Co173 2.135 . S
Co182 O183 2.216 . S
Co182 O184 2.091 . S
Co182 O186 2.004 . S
Co182 O192 2.021 . S
Co182 O194 2.137 . S
Co182 O195 2.244 . S
O183 Co182 2.216 . S
O183 C190 1.247 . S
O184 Co182 2.091 . S
O184 C190 1.261 . S
C185 O194 1.247 . S
C185 O195 1.272 . S
O186 Co182 2.004 . S
O186 C191 1.259 . S
Co187 O188 2.061 . S
Co187 O193 2.052 . S
Co187 O195 2.135 . S
O188 Co187 2.061 . S
O188 C191 1.235 . S
C189 O192 1.238 . S
C189 O193 1.241 . S
C190 O183 1.247 . S
C190 O184 1.261 . S
C191 O186 1.259 . S
C191 O188 1.235 . S
O192 Co182 2.021 . S
O192 C189 1.238 . S
O193 Co187 2.052 . S
O193 C189 1.241 . S
O194 Co182 2.137 . S
O194 C185 1.247 . S
O195 Co182 2.244 . S
O195 C185 1.272 . S
O195 Co187 2.135 . S
Co196 O197 2.216 . S
Co196 O198 2.091 . S
Co196 O200 2.004 . S
Co196 O206 2.021 . S
Co196 O208 2.137 . S
Co196 O209 2.244 . S
O197 Co196 2.216 . S
O197 C204 1.247 . S
O198 Co196 2.091 . S
O198 C204 1.261 . S
C199 O208 1.247 . S
C199 O209 1.272 . S
O200 Co196 2.004 . S
O200 C205 1.259 . S
Co201 O202 2.061 . S
Co201 O207 2.052 . S
Co201 O209 2.135 . S
O202 Co201 2.061 . S
O202 C205 1.235 . S
C203 O206 1.238 . S
C203 O207 1.241 . S
C204 O197 1.247 . S
C204 O198 1.261 . S
C205 O200 1.259 . S
C205 O202 1.235 . S
O206 Co196 2.021 . S
O206 C203 1.238 . S
O207 Co201 2.052 . S
O207 C203 1.241 . S
O208 Co196 2.137 . S
O208 C199 1.247 . S
O209 Co196 2.244 . S
O209 C199 1.272 . S
O209 Co201 2.135 . S
Co210 O211 2.216 . S
Co210 O212 2.091 . S
Co210 O214 2.004 . S
Co210 O220 2.021 . S
Co210 O222 2.137 . S
Co210 O223 2.244 . S
O211 Co210 2.216 . S
O211 C218 1.247 . S
O212 Co210 2.091 . S
O212 C218 1.261 . S
C213 O222 1.247 . S
C213 O223 1.272 . S
O214 Co210 2.004 . S
O214 C219 1.259 . S
Co215 O216 2.061 . S
Co215 O221 2.052 . S
Co215 O223 2.135 . S
O216 Co215 2.061 . S
O216 C219 1.235 . S
C217 O220 1.238 . S
C217 O221 1.241 . S
C218 O211 1.247 . S
C218 O212 1.261 . S
C219 O214 1.259 . S
C219 O216 1.235 . S
O220 Co210 2.021 . S
O220 C217 1.238 . S
O221 Co215 2.052 . S
O221 C217 1.241 . S
O222 Co210 2.137 . S
O222 C213 1.247 . S
O223 Co210 2.244 . S
O223 C213 1.272 . S
O223 Co215 2.135 . S
Co224 O225 2.216 . S
Co224 O226 2.091 . S
Co224 O228 2.004 . S
Co224 O234 2.021 . S
Co224 O236 2.137 . S
Co224 O237 2.244 . S
O225 Co224 2.216 . S
O225 C232 1.247 . S
O226 Co224 2.091 . S
O226 C232 1.261 . S
C227 O236 1.247 . S
C227 O237 1.272 . S
O228 Co224 2.004 . S
O228 C233 1.259 . S
Co229 O230 2.061 . S
Co229 O235 2.052 . S
Co229 O237 2.135 . S
O230 Co229 2.061 . S
O230 C233 1.235 . S
C231 O234 1.238 . S
C231 O235 1.241 . S
C232 O225 1.247 . S
C232 O226 1.261 . S
C233 O228 1.259 . S
C233 O230 1.235 . S
O234 Co224 2.021 . S
O234 C231 1.238 . S
O235 Co229 2.052 . S
O235 C231 1.241 . S
O236 Co224 2.137 . S
O236 C227 1.247 . S
O237 Co224 2.244 . S
O237 C227 1.272 . S
O237 Co229 2.135 . S
Co238 O239 2.216 . S
Co238 O240 2.091 . S
Co238 O242 2.004 . S
Co238 O248 2.021 . S
Co238 O250 2.137 . S
Co238 O251 2.244 . S
O239 Co238 2.216 . S
O239 C246 1.247 . S
O240 Co238 2.091 . S
O240 C246 1.261 . S
C241 O250 1.247 . S
C241 O251 1.272 . S
O242 Co238 2.004 . S
O242 C247 1.259 . S
Co243 O244 2.061 . S
Co243 O249 2.052 . S
Co243 O251 2.135 . S
O244 Co243 2.061 . S
O244 C247 1.235 . S
C245 O248 1.238 . S
C245 O249 1.241 . S
C246 O239 1.247 . S
C246 O240 1.261 . S
C247 O242 1.259 . S
C247 O244 1.235 . S
O248 Co238 2.021 . S
O248 C245 1.238 . S
O249 Co243 2.052 . S
O249 C245 1.241 . S
O250 Co238 2.137 . S
O250 C241 1.247 . S
O251 Co238 2.244 . S
O251 C241 1.272 . S
O251 Co243 2.135 . S
Co252 O253 2.216 . S
Co252 O254 2.091 . S
Co252 O256 2.004 . S
Co252 O262 2.021 . S
Co252 O264 2.137 . S
Co252 O265 2.244 . S
O253 Co252 2.216 . S
O253 C260 1.247 . S
O254 Co252 2.091 . S
O254 C260 1.261 . S
C255 O264 1.247 . S
C255 O265 1.272 . S
O256 Co252 2.004 . S
O256 C261 1.259 . S
Co257 O258 2.061 . S
Co257 O263 2.052 . S
Co257 O265 2.135 . S
O258 Co257 2.061 . S
O258 C261 1.235 . S
C259 O262 1.238 . S
C259 O263 1.241 . S
C260 O253 1.247 . S
C260 O254 1.261 . S
C261 O256 1.259 . S
C261 O258 1.235 . S
O262 Co252 2.021 . S
O262 C259 1.238 . S
O263 Co257 2.052 . S
O263 C259 1.241 . S
O264 Co252 2.137 . S
O264 C255 1.247 . S
O265 Co252 2.244 . S
O265 C255 1.272 . S
O265 Co257 2.135 . S
Co266 O267 2.216 . S
Co266 O268 2.091 . S
Co266 O270 2.004 . S
Co266 O276 2.021 . S
Co266 O278 2.137 . S
Co266 O279 2.244 . S
O267 Co266 2.216 . S
O267 C274 1.247 . S
O268 Co266 2.091 . S
O268 C274 1.261 . S
C269 O278 1.247 . S
C269 O279 1.272 . S
O270 Co266 2.004 . S
O270 C275 1.259 . S
Co271 O272 2.061 . S
Co271 O277 2.052 . S
Co271 O279 2.135 . S
O272 Co271 2.061 . S
O272 C275 1.235 . S
C273 O276 1.238 . S
C273 O277 1.241 . S
C274 O267 1.247 . S
C274 O268 1.261 . S
C275 O270 1.259 . S
C275 O272 1.235 . S
O276 Co266 2.021 . S
O276 C273 1.238 . S
O277 Co271 2.052 . S
O277 C273 1.241 . S
O278 Co266 2.137 . S
O278 C269 1.247 . S
O279 Co266 2.244 . S
O279 C269 1.272 . S
O279 Co271 2.135 . S
Co280 O281 2.216 . S
Co280 O282 2.091 . S
Co280 O284 2.004 . S
Co280 O290 2.021 . S
Co280 O292 2.137 . S
Co280 O293 2.244 . S
O281 Co280 2.216 . S
O281 C288 1.247 . S
O282 Co280 2.091 . S
O282 C288 1.261 . S
C283 O292 1.247 . S
C283 O293 1.272 . S
O284 Co280 2.004 . S
O284 C289 1.259 . S
Co285 O286 2.061 . S
Co285 O291 2.052 . S
Co285 O293 2.135 . S
O286 Co285 2.061 . S
O286 C289 1.235 . S
C287 O290 1.238 . S
C287 O291 1.241 . S
C288 O281 1.247 . S
C288 O282 1.261 . S
C289 O284 1.259 . S
C289 O286 1.235 . S
O290 Co280 2.021 . S
O290 C287 1.238 . S
O291 Co285 2.052 . S
O291 C287 1.241 . S
O292 Co280 2.137 . S
O292 C283 1.247 . S
O293 Co280 2.244 . S
O293 C283 1.272 . S
O293 Co285 2.135 . S
Co294 O295 2.216 . S
Co294 O296 2.091 . S
Co294 O298 2.004 . S
Co294 O304 2.021 . S
Co294 O306 2.137 . S
Co294 O307 2.244 . S
O295 Co294 2.216 . S
O295 C302 1.247 . S
O296 Co294 2.091 . S
O296 C302 1.261 . S
C297 O306 1.247 . S
C297 O307 1.272 . S
O298 Co294 2.004 . S
O298 C303 1.259 . S
Co299 O300 2.061 . S
Co299 O305 2.052 . S
Co299 O307 2.135 . S
O300 Co299 2.061 . S
O300 C303 1.235 . S
C301 O304 1.238 . S
C301 O305 1.241 . S
C302 O295 1.247 . S
C302 O296 1.261 . S
C303 O298 1.259 . S
C303 O300 1.235 . S
O304 Co294 2.021 . S
O304 C301 1.238 . S
O305 Co299 2.052 . S
O305 C301 1.241 . S
O306 Co294 2.137 . S
O306 C297 1.247 . S
O307 Co294 2.244 . S
O307 C297 1.272 . S
O307 Co299 2.135 . S
Co308 O309 2.216 . S
Co308 O310 2.091 . S
Co308 O312 2.004 . S
Co308 O318 2.021 . S
Co308 O320 2.137 . S
Co308 O321 2.244 . S
O309 Co308 2.216 . S
O309 C316 1.247 . S
O310 Co308 2.091 . S
O310 C316 1.261 . S
C311 O320 1.247 . S
C311 O321 1.272 . S
O312 Co308 2.004 . S
O312 C317 1.259 . S
Co313 O314 2.061 . S
Co313 O319 2.052 . S
Co313 O321 2.135 . S
O314 Co313 2.061 . S
O314 C317 1.235 . S
C315 O318 1.238 . S
C315 O319 1.241 . S
C316 O309 1.247 . S
C316 O310 1.261 . S
C317 O312 1.259 . S
C317 O314 1.235 . S
O318 Co308 2.021 . S
O318 C315 1.238 . S
O319 Co313 2.052 . S
O319 C315 1.241 . S
O320 Co308 2.137 . S
O320 C311 1.247 . S
O321 Co308 2.244 . S
O321 C311 1.272 . S
O321 Co313 2.135 . S
Co322 O323 2.216 . S
Co322 O324 2.091 . S
Co322 O326 2.004 . S
Co322 O332 2.021 . S
Co322 O334 2.137 . S
Co322 O335 2.244 . S
O323 Co322 2.216 . S
O323 C330 1.247 . S
O324 Co322 2.091 . S
O324 C330 1.261 . S
C325 O334 1.247 . S
C325 O335 1.272 . S
O326 Co322 2.004 . S
O326 C331 1.259 . S
Co327 O328 2.061 . S
Co327 O333 2.052 . S
Co327 O335 2.135 . S
O328 Co327 2.061 . S
O328 C331 1.235 . S
C329 O332 1.238 . S
C329 O333 1.241 . S
C330 O323 1.247 . S
C330 O324 1.261 . S
C331 O326 1.259 . S
C331 O328 1.235 . S
O332 Co322 2.021 . S
O332 C329 1.238 . S
O333 Co327 2.052 . S
O333 C329 1.241 . S
O334 Co322 2.137 . S
O334 C325 1.247 . S
O335 Co322 2.244 . S
O335 C325 1.272 . S
O335 Co327 2.135 . S
Co336 O337 2.216 . S
Co336 O338 2.091 . S
Co336 O340 2.004 . S
Co336 O346 2.021 . S
Co336 O348 2.137 . S
Co336 O349 2.244 . S
O337 Co336 2.216 . S
O337 C344 1.247 . S
O338 Co336 2.091 . S
O338 C344 1.261 . S
C339 O348 1.247 . S
C339 O349 1.272 . S
O340 Co336 2.004 . S
O340 C345 1.259 . S
Co341 O342 2.061 . S
Co341 O347 2.052 . S
Co341 O349 2.135 . S
O342 Co341 2.061 . S
O342 C345 1.235 . S
C343 O346 1.238 . S
C343 O347 1.241 . S
C344 O337 1.247 . S
C344 O338 1.261 . S
C345 O340 1.259 . S
C345 O342 1.235 . S
O346 Co336 2.021 . S
O346 C343 1.238 . S
O347 Co341 2.052 . S
O347 C343 1.241 . S
O348 Co336 2.137 . S
O348 C339 1.247 . S
O349 Co336 2.244 . S
O349 C339 1.272 . S
O349 Co341 2.135 . S
Co350 O351 2.216 . S
Co350 O352 2.091 . S
Co350 O354 2.004 . S
Co350 O360 2.021 . S
Co350 O362 2.137 . S
Co350 O363 2.244 . S
O351 Co350 2.216 . S
O351 C358 1.247 . S
O352 Co350 2.091 . S
O352 C358 1.261 . S
C353 O362 1.247 . S
C353 O363 1.272 . S
O354 Co350 2.004 . S
O354 C359 1.259 . S
Co355 O356 2.061 . S
Co355 O361 2.052 . S
Co355 O363 2.135 . S
O356 Co355 2.061 . S
O356 C359 1.235 . S
C357 O360 1.238 . S
C357 O361 1.241 . S
C358 O351 1.247 . S
C358 O352 1.261 . S
C359 O354 1.259 . S
C359 O356 1.235 . S
O360 Co350 2.021 . S
O360 C357 1.238 . S
O361 Co355 2.052 . S
O361 C357 1.241 . S
O362 Co350 2.137 . S
O362 C353 1.247 . S
O363 Co350 2.244 . S
O363 C353 1.272 . S
O363 Co355 2.135 . S
Co364 O365 2.216 . S
Co364 O366 2.091 . S
Co364 O368 2.004 . S
Co364 O374 2.021 . S
Co364 O376 2.137 . S
Co364 O377 2.244 . S
O365 Co364 2.216 . S
O365 C372 1.247 . S
O366 Co364 2.091 . S
O366 C372 1.261 . S
C367 O376 1.247 . S
C367 O377 1.272 . S
O368 Co364 2.004 . S
O368 C373 1.259 . S
Co369 O370 2.061 . S
Co369 O375 2.052 . S
Co369 O377 2.135 . S
O370 Co369 2.061 . S
O370 C373 1.235 . S
C371 O374 1.238 . S
C371 O375 1.241 . S
C372 O365 1.247 . S
C372 O366 1.261 . S
C373 O368 1.259 . S
C373 O370 1.235 . S
O374 Co364 2.021 . S
O374 C371 1.238 . S
O375 Co369 2.052 . S
O375 C371 1.241 . S
O376 Co364 2.137 . S
O376 C367 1.247 . S
O377 Co364 2.244 . S
O377 C367 1.272 . S
O377 Co369 2.135 . S
Co378 O379 2.216 . S
Co378 O380 2.091 . S
Co378 O382 2.004 . S
Co378 O388 2.021 . S
Co378 O390 2.137 . S
Co378 O391 2.244 . S
O379 Co378 2.216 . S
O379 C386 1.247 . S
O380 Co378 2.091 . S
O380 C386 1.261 . S
C381 O390 1.247 . S
C381 O391 1.272 . S
O382 Co378 2.004 . S
O382 C387 1.259 . S
Co383 O384 2.061 . S
Co383 O389 2.052 . S
Co383 O391 2.135 . S
O384 Co383 2.061 . S
O384 C387 1.235 . S
C385 O388 1.238 . S
C385 O389 1.241 . S
C386 O379 1.247 . S
C386 O380 1.261 . S
C387 O382 1.259 . S
C387 O384 1.235 . S
O388 Co378 2.021 . S
O388 C385 1.238 . S
O389 Co383 2.052 . S
O389 C385 1.241 . S
O390 Co378 2.137 . S
O390 C381 1.247 . S
O391 Co378 2.244 . S
O391 C381 1.272 . S
O391 Co383 2.135 . S
Co392 O393 2.216 . S
Co392 O394 2.091 . S
Co392 O396 2.004 . S
Co392 O402 2.021 . S
Co392 O404 2.137 . S
Co392 O405 2.244 . S
O393 Co392 2.216 . S
O393 C400 1.247 . S
O394 Co392 2.091 . S
O394 C400 1.261 . S
C395 O404 1.247 . S
C395 O405 1.272 . S
O396 Co392 2.004 . S
O396 C401 1.259 . S
Co397 O398 2.061 . S
Co397 O403 2.052 . S
Co397 O405 2.135 . S
O398 Co397 2.061 . S
O398 C401 1.235 . S
C399 O402 1.238 . S
C399 O403 1.241 . S
C400 O393 1.247 . S
C400 O394 1.261 . S
C401 O396 1.259 . S
C401 O398 1.235 . S
O402 Co392 2.021 . S
O402 C399 1.238 . S
O403 Co397 2.052 . S
O403 C399 1.241 . S
O404 Co392 2.137 . S
O404 C395 1.247 . S
O405 Co392 2.244 . S
O405 C395 1.272 . S
O405 Co397 2.135 . S
Co406 O407 2.216 . S
Co406 O408 2.091 . S
Co406 O410 2.004 . S
Co406 O416 2.021 . S
Co406 O418 2.137 . S
Co406 O419 2.244 . S
O407 Co406 2.216 . S
O407 C414 1.247 . S
O408 Co406 2.091 . S
O408 C414 1.261 . S
C409 O418 1.247 . S
C409 O419 1.272 . S
O410 Co406 2.004 . S
O410 C415 1.259 . S
Co411 O412 2.061 . S
Co411 O417 2.052 . S
Co411 O419 2.135 . S
O412 Co411 2.061 . S
O412 C415 1.235 . S
C413 O416 1.238 . S
C413 O417 1.241 . S
C414 O407 1.247 . S
C414 O408 1.261 . S
C415 O410 1.259 . S
C415 O412 1.235 . S
O416 Co406 2.021 . S
O416 C413 1.238 . S
O417 Co411 2.052 . S
O417 C413 1.241 . S
O418 Co406 2.137 . S
O418 C409 1.247 . S
O419 Co406 2.244 . S
O419 C409 1.272 . S
O419 Co411 2.135 . S
Co420 O421 2.216 . S
Co420 O422 2.091 . S
Co420 O424 2.004 . S
Co420 O430 2.021 . S
Co420 O432 2.137 . S
Co420 O433 2.244 . S
O421 Co420 2.216 . S
O421 C428 1.247 . S
O422 Co420 2.091 . S
O422 C428 1.261 . S
C423 O432 1.247 . S
C423 O433 1.272 . S
O424 Co420 2.004 . S
O424 C429 1.259 . S
Co425 O426 2.061 . S
Co425 O431 2.052 . S
Co425 O433 2.135 . S
O426 Co425 2.061 . S
O426 C429 1.235 . S
C427 O430 1.238 . S
C427 O431 1.241 . S
C428 O421 1.247 . S
C428 O422 1.261 . S
C429 O424 1.259 . S
C429 O426 1.235 . S
O430 Co420 2.021 . S
O430 C427 1.238 . S
O431 Co425 2.052 . S
O431 C427 1.241 . S
O432 Co420 2.137 . S
O432 C423 1.247 . S
O433 Co420 2.244 . S
O433 C423 1.272 . S
O433 Co425 2.135 . S
Co434 O435 2.216 . S
Co434 O436 2.091 . S
Co434 O438 2.004 . S
Co434 O444 2.021 . S
Co434 O446 2.137 . S
Co434 O447 2.244 . S
O435 Co434 2.216 . S
O435 C442 1.247 . S
O436 Co434 2.091 . S
O436 C442 1.261 . S
C437 O446 1.247 . S
C437 O447 1.272 . S
O438 Co434 2.004 . S
O438 C443 1.259 . S
Co439 O440 2.061 . S
Co439 O445 2.052 . S
Co439 O447 2.135 . S
O440 Co439 2.061 . S
O440 C443 1.235 . S
C441 O444 1.238 . S
C441 O445 1.241 . S
C442 O435 1.247 . S
C442 O436 1.261 . S
C443 O438 1.259 . S
C443 O440 1.235 . S
O444 Co434 2.021 . S
O444 C441 1.238 . S
O445 Co439 2.052 . S
O445 C441 1.241 . S
O446 Co434 2.137 . S
O446 C437 1.247 . S
O447 Co434 2.244 . S
O447 C437 1.272 . S
O447 Co439 2.135 . S
Co448 O449 2.216 . S
Co448 O450 2.091 . S
Co448 O452 2.004 . S
Co448 O458 2.021 . S
Co448 O460 2.137 . S
Co448 O461 2.244 . S
O449 Co448 2.216 . S
O449 C456 1.247 . S
O450 Co448 2.091 . S
O450 C456 1.261 . S
C451 O460 1.247 . S
C451 O461 1.272 . S
O452 Co448 2.004 . S
O452 C457 1.259 . S
Co453 O454 2.061 . S
Co453 O459 2.052 . S
Co453 O461 2.135 . S
O454 Co453 2.061 . S
O454 C457 1.235 . S
C455 O458 1.238 . S
C455 O459 1.241 . S
C456 O449 1.247 . S
C456 O450 1.261 . S
C457 O452 1.259 . S
C457 O454 1.235 . S
O458 Co448 2.021 . S
O458 C455 1.238 . S
O459 Co453 2.052 . S
O459 C455 1.241 . S
O460 Co448 2.137 . S
O460 C451 1.247 . S
O461 Co448 2.244 . S
O461 C451 1.272 . S
O461 Co453 2.135 . S
Co462 O463 2.216 . S
Co462 O464 2.091 . S
Co462 O466 2.004 . S
Co462 O472 2.021 . S
Co462 O474 2.137 . S
Co462 O475 2.244 . S
O463 Co462 2.216 . S
O463 C470 1.247 . S
O464 Co462 2.091 . S
O464 C470 1.261 . S
C465 O474 1.247 . S
C465 O475 1.272 . S
O466 Co462 2.004 . S
O466 C471 1.259 . S
Co467 O468 2.061 . S
Co467 O473 2.052 . S
Co467 O475 2.135 . S
O468 Co467 2.061 . S
O468 C471 1.235 . S
C469 O472 1.238 . S
C469 O473 1.241 . S
C470 O463 1.247 . S
C470 O464 1.261 . S
C471 O466 1.259 . S
C471 O468 1.235 . S
O472 Co462 2.021 . S
O472 C469 1.238 . S
O473 Co467 2.052 . S
O473 C469 1.241 . S
O474 Co462 2.137 . S
O474 C465 1.247 . S
O475 Co462 2.244 . S
O475 C465 1.272 . S
O475 Co467 2.135 . S
Co476 O477 2.216 . S
Co476 O478 2.091 . S
Co476 O480 2.004 . S
Co476 O486 2.021 . S
Co476 O488 2.137 . S
Co476 O489 2.244 . S
O477 Co476 2.216 . S
O477 C484 1.247 . S
O478 Co476 2.091 . S
O478 C484 1.261 . S
C479 O488 1.247 . S
C479 O489 1.272 . S
O480 Co476 2.004 . S
O480 C485 1.259 . S
Co481 O482 2.061 . S
Co481 O487 2.052 . S
Co481 O489 2.135 . S
O482 Co481 2.061 . S
O482 C485 1.235 . S
C483 O486 1.238 . S
C483 O487 1.241 . S
C484 O477 1.247 . S
C484 O478 1.261 . S
C485 O480 1.259 . S
C485 O482 1.235 . S
O486 Co476 2.021 . S
O486 C483 1.238 . S
O487 Co481 2.052 . S
O487 C483 1.241 . S
O488 Co476 2.137 . S
O488 C479 1.247 . S
O489 Co476 2.244 . S
O489 C479 1.272 . S
O489 Co481 2.135 . S
Co490 O491 2.216 . S
Co490 O492 2.091 . S
Co490 O494 2.004 . S
Co490 O500 2.021 . S
Co490 O502 2.137 . S
Co490 O503 2.244 . S
O491 Co490 2.216 . S
O491 C498 1.247 . S
O492 Co490 2.091 . S
O492 C498 1.261 . S
C493 O502 1.247 . S
C493 O503 1.272 . S
O494 Co490 2.004 . S
O494 C499 1.259 . S
Co495 O496 2.061 . S
Co495 O501 2.052 . S
Co495 O503 2.135 . S
O496 Co495 2.061 . S
O496 C499 1.235 . S
C497 O500 1.238 . S
C497 O501 1.241 . S
C498 O491 1.247 . S
C498 O492 1.261 . S
C499 O494 1.259 . S
C499 O496 1.235 . S
O500 Co490 2.021 . S
O500 C497 1.238 . S
O501 Co495 2.052 . S
O501 C497 1.241 . S
O502 Co490 2.137 . S
O502 C493 1.247 . S
O503 Co490 2.244 . S
O503 C493 1.272 . S
O503 Co495 2.135 . S
Co504 O505 2.216 . S
Co504 O506 2.091 . S
Co504 O508 2.004 . S
Co504 O514 2.021 . S
Co504 O516 2.137 . S
Co504 O517 2.244 . S
O505 Co504 2.216 . S
O505 C512 1.247 . S
O506 Co504 2.091 . S
O506 C512 1.261 . S
C507 O516 1.247 . S
C507 O517 1.272 . S
O508 Co504 2.004 . S
O508 C513 1.259 . S
Co509 O510 2.061 . S
Co509 O515 2.052 . S
Co509 O517 2.135 . S
O510 Co509 2.061 . S
O510 C513 1.235 . S
C511 O514 1.238 . S
C511 O515 1.241 . S
C512 O505 1.247 . S
C512 O506 1.261 . S
C513 O508 1.259 . S
C513 O510 1.235 . S
O514 Co504 2.021 . S
O514 C511 1.238 . S
O515 Co509 2.052 . S
O515 C511 1.241 . S
O516 Co504 2.137 . S
O516 C507 1.247 . S
O517 Co504 2.244 . S
O517 C507 1.272 . S
O517 Co509 2.135 . S
Co518 O519 2.216 . S
Co518 O520 2.091 . S
Co518 O522 2.004 . S
Co518 O528 2.021 . S
Co518 O530 2.137 . S
Co518 O531 2.244 . S
O519 Co518 2.216 . S
O519 C526 1.247 . S
O520 Co518 2.091 . S
O520 C526 1.261 . S
C521 O530 1.247 . S
C521 O531 1.272 . S
O522 Co518 2.004 . S
O522 C527 1.259 . S
Co523 O524 2.061 . S
Co523 O529 2.052 . S
Co523 O531 2.135 . S
O524 Co523 2.061 . S
O524 C527 1.235 . S
C525 O528 1.238 . S
C525 O529 1.241 . S
C526 O519 1.247 . S
C526 O520 1.261 . S
C527 O522 1.259 . S
C527 O524 1.235 . S
O528 Co518 2.021 . S
O528 C525 1.238 . S
O529 Co523 2.052 . S
O529 C525 1.241 . S
O530 Co518 2.137 . S
O530 C521 1.247 . S
O531 Co518 2.244 . S
O531 C521 1.272 . S
O531 Co523 2.135 . S
Co532 O533 2.216 . S
Co532 O534 2.091 . S
Co532 O536 2.004 . S
Co532 O542 2.021 . S
Co532 O544 2.137 . S
Co532 O545 2.244 . S
O533 Co532 2.216 . S
O533 C540 1.247 . S
O534 Co532 2.091 . S
O534 C540 1.261 . S
C535 O544 1.247 . S
C535 O545 1.272 . S
O536 Co532 2.004 . S
O536 C541 1.259 . S
Co537 O538 2.061 . S
Co537 O543 2.052 . S
Co537 O545 2.135 . S
O538 Co537 2.061 . S
O538 C541 1.235 . S
C539 O542 1.238 . S
C539 O543 1.241 . S
C540 O533 1.247 . S
C540 O534 1.261 . S
C541 O536 1.259 . S
C541 O538 1.235 . S
O542 Co532 2.021 . S
O542 C539 1.238 . S
O543 Co537 2.052 . S
O543 C539 1.241 . S
O544 Co532 2.137 . S
O544 C535 1.247 . S
O545 Co532 2.244 . S
O545 C535 1.272 . S
O545 Co537 2.135 . S
Co546 O547 2.216 . S
Co546 O548 2.091 . S
Co546 O550 2.004 . S
Co546 O556 2.021 . S
Co546 O558 2.137 . S
Co546 O559 2.244 . S
O547 Co546 2.216 . S
O547 C554 1.247 . S
O548 Co546 2.091 . S
O548 C554 1.261 . S
C549 O558 1.247 . S
C549 O559 1.272 . S
O550 Co546 2.004 . S
O550 C555 1.259 . S
Co551 O552 2.061 . S
Co551 O557 2.052 . S
Co551 O559 2.135 . S
O552 Co551 2.061 . S
O552 C555 1.235 . S
C553 O556 1.238 . S
C553 O557 1.241 . S
C554 O547 1.247 . S
C554 O548 1.261 . S
C555 O550 1.259 . S
C555 O552 1.235 . S
O556 Co546 2.021 . S
O556 C553 1.238 . S
O557 Co551 2.052 . S
O557 C553 1.241 . S
O558 Co546 2.137 . S
O558 C549 1.247 . S
O559 Co546 2.244 . S
O559 C549 1.272 . S
O559 Co551 2.135 . S
Co560 O561 2.216 . S
Co560 O562 2.091 . S
Co560 O564 2.004 . S
Co560 O570 2.021 . S
Co560 O572 2.137 . S
Co560 O573 2.244 . S
O561 Co560 2.216 . S
O561 C568 1.247 . S
O562 Co560 2.091 . S
O562 C568 1.261 . S
C563 O572 1.247 . S
C563 O573 1.272 . S
O564 Co560 2.004 . S
O564 C569 1.259 . S
Co565 O566 2.061 . S
Co565 O571 2.052 . S
Co565 O573 2.135 . S
O566 Co565 2.061 . S
O566 C569 1.235 . S
C567 O570 1.238 . S
C567 O571 1.241 . S
C568 O561 1.247 . S
C568 O562 1.261 . S
C569 O564 1.259 . S
C569 O566 1.235 . S
O570 Co560 2.021 . S
O570 C567 1.238 . S
O571 Co565 2.052 . S
O571 C567 1.241 . S
O572 Co560 2.137 . S
O572 C563 1.247 . S
O573 Co560 2.244 . S
O573 C563 1.272 . S
O573 Co565 2.135 . S
Co574 O575 2.216 . S
Co574 O576 2.091 . S
Co574 O578 2.004 . S
Co574 O584 2.021 . S
Co574 O586 2.137 . S
Co574 O587 2.244 . S
O575 Co574 2.216 . S
O575 C582 1.247 . S
O576 Co574 2.091 . S
O576 C582 1.261 . S
C577 O586 1.247 . S
C577 O587 1.272 . S
O578 Co574 2.004 . S
O578 C583 1.259 . S
Co579 O580 2.061 . S
Co579 O585 2.052 . S
Co579 O587 2.135 . S
O580 Co579 2.061 . S
O580 C583 1.235 . S
C581 O584 1.238 . S
C581 O585 1.241 . S
C582 O575 1.247 . S
C582 O576 1.261 . S
C583 O578 1.259 . S
C583 O580 1.235 . S
O584 Co574 2.021 . S
O584 C581 1.238 . S
O585 Co579 2.052 . S
O585 C581 1.241 . S
O586 Co574 2.137 . S
O586 C577 1.247 . S
O587 Co574 2.244 . S
O587 C577 1.272 . S
O587 Co579 2.135 . S
Co588 O589 2.216 . S
Co588 O590 2.091 . S
Co588 O592 2.004 . S
Co588 O598 2.021 . S
Co588 O600 2.137 . S
Co588 O601 2.244 . S
O589 Co588 2.216 . S
O589 C596 1.247 . S
O590 Co588 2.091 . S
O590 C596 1.261 . S
C591 O600 1.247 . S
C591 O601 1.272 . S
O592 Co588 2.004 . S
O592 C597 1.259 . S
Co593 O594 2.061 . S
Co593 O599 2.052 . S
Co593 O601 2.135 . S
O594 Co593 2.061 . S
O594 C597 1.235 . S
C595 O598 1.238 . S
C595 O599 1.241 . S
C596 O589 1.247 . S
C596 O590 1.261 . S
C597 O592 1.259 . S
C597 O594 1.235 . S
O598 Co588 2.021 . S
O598 C595 1.238 . S
O599 Co593 2.052 . S
O599 C595 1.241 . S
O600 Co588 2.137 . S
O600 C591 1.247 . S
O601 Co588 2.244 . S
O601 C591 1.272 . S
O601 Co593 2.135 . S
Co602 O603 2.216 . S
Co602 O604 2.091 . S
Co602 O606 2.004 . S
Co602 O612 2.021 . S
Co602 O614 2.137 . S
Co602 O615 2.244 . S
O603 Co602 2.216 . S
O603 C610 1.247 . S
O604 Co602 2.091 . S
O604 C610 1.261 . S
C605 O614 1.247 . S
C605 O615 1.272 . S
O606 Co602 2.004 . S
O606 C611 1.259 . S
Co607 O608 2.061 . S
Co607 O613 2.052 . S
Co607 O615 2.135 . S
O608 Co607 2.061 . S
O608 C611 1.235 . S
C609 O612 1.238 . S
C609 O613 1.241 . S
C610 O603 1.247 . S
C610 O604 1.261 . S
C611 O606 1.259 . S
C611 O608 1.235 . S
O612 Co602 2.021 . S
O612 C609 1.238 . S
O613 Co607 2.052 . S
O613 C609 1.241 . S
O614 Co602 2.137 . S
O614 C605 1.247 . S
O615 Co602 2.244 . S
O615 C605 1.272 . S
O615 Co607 2.135 . S
Co616 O617 2.216 . S
Co616 O618 2.091 . S
Co616 O620 2.004 . S
Co616 O626 2.021 . S
Co616 O628 2.137 . S
Co616 O629 2.244 . S
O617 Co616 2.216 . S
O617 C624 1.247 . S
O618 Co616 2.091 . S
O618 C624 1.261 . S
C619 O628 1.247 . S
C619 O629 1.272 . S
O620 Co616 2.004 . S
O620 C625 1.259 . S
Co621 O622 2.061 . S
Co621 O627 2.052 . S
Co621 O629 2.135 . S
O622 Co621 2.061 . S
O622 C625 1.235 . S
C623 O626 1.238 . S
C623 O627 1.241 . S
C624 O617 1.247 . S
C624 O618 1.261 . S
C625 O620 1.259 . S
C625 O622 1.235 . S
O626 Co616 2.021 . S
O626 C623 1.238 . S
O627 Co621 2.052 . S
O627 C623 1.241 . S
O628 Co616 2.137 . S
O628 C619 1.247 . S
O629 Co616 2.244 . S
O629 C619 1.272 . S
O629 Co621 2.135 . S
Co630 O631 2.216 . S
Co630 O632 2.091 . S
Co630 O634 2.004 . S
Co630 O640 2.021 . S
Co630 O642 2.137 . S
Co630 O643 2.244 . S
O631 Co630 2.216 . S
O631 C638 1.247 . S
O632 Co630 2.091 . S
O632 C638 1.261 . S
C633 O642 1.247 . S
C633 O643 1.272 . S
O634 Co630 2.004 . S
O634 C639 1.259 . S
Co635 O636 2.061 . S
Co635 O641 2.052 . S
Co635 O643 2.135 . S
O636 Co635 2.061 . S
O636 C639 1.235 . S
C637 O640 1.238 . S
C637 O641 1.241 . S
C638 O631 1.247 . S
C638 O632 1.261 . S
C639 O634 1.259 . S
C639 O636 1.235 . S
O640 Co630 2.021 . S
O640 C637 1.238 . S
O641 Co635 2.052 . S
O641 C637 1.241 . S
O642 Co630 2.137 . S
O642 C633 1.247 . S
O643 Co630 2.244 . S
O643 C633 1.272 . S
O643 Co635 2.135 . S
Co644 O645 2.216 . S
Co644 O646 2.091 . S
Co644 O648 2.004 . S
Co644 O654 2.021 . S
Co644 O656 2.137 . S
Co644 O657 2.244 . S
O645 Co644 2.216 . S
O645 C652 1.247 . S
O646 Co644 2.091 . S
O646 C652 1.261 . S
C647 O656 1.247 . S
C647 O657 1.272 . S
O648 Co644 2.004 . S
O648 C653 1.259 . S
Co649 O650 2.061 . S
Co649 O655 2.052 . S
Co649 O657 2.135 . S
O650 Co649 2.061 . S
O650 C653 1.235 . S
C651 O654 1.238 . S
C651 O655 1.241 . S
C652 O645 1.247 . S
C652 O646 1.261 . S
C653 O648 1.259 . S
C653 O650 1.235 . S
O654 Co644 2.021 . S
O654 C651 1.238 . S
O655 Co649 2.052 . S
O655 C651 1.241 . S
O656 Co644 2.137 . S
O656 C647 1.247 . S
O657 Co644 2.244 . S
O657 C647 1.272 . S
O657 Co649 2.135 . S
Co658 O659 2.216 . S
Co658 O660 2.091 . S
Co658 O662 2.004 . S
Co658 O668 2.021 . S
Co658 O670 2.137 . S
Co658 O671 2.244 . S
O659 Co658 2.216 . S
O659 C666 1.247 . S
O660 Co658 2.091 . S
O660 C666 1.261 . S
C661 O670 1.247 . S
C661 O671 1.272 . S
O662 Co658 2.004 . S
O662 C667 1.259 . S
Co663 O664 2.061 . S
Co663 O669 2.052 . S
Co663 O671 2.135 . S
O664 Co663 2.061 . S
O664 C667 1.235 . S
C665 O668 1.238 . S
C665 O669 1.241 . S
C666 O659 1.247 . S
C666 O660 1.261 . S
C667 O662 1.259 . S
C667 O664 1.235 . S
O668 Co658 2.021 . S
O668 C665 1.238 . S
O669 Co663 2.052 . S
O669 C665 1.241 . S
O670 Co658 2.137 . S
O670 C661 1.247 . S
O671 Co658 2.244 . S
O671 C661 1.272 . S
O671 Co663 2.135 . S
Co672 O673 2.216 . S
Co672 O674 2.091 . S
Co672 O676 2.004 . S
Co672 O682 2.021 . S
Co672 O684 2.137 . S
Co672 O685 2.244 . S
O673 Co672 2.216 . S
O673 C680 1.247 . S
O674 Co672 2.091 . S
O674 C680 1.261 . S
C675 O684 1.247 . S
C675 O685 1.272 . S
O676 Co672 2.004 . S
O676 C681 1.259 . S
Co677 O678 2.061 . S
Co677 O683 2.052 . S
Co677 O685 2.135 . S
O678 Co677 2.061 . S
O678 C681 1.235 . S
C679 O682 1.238 . S
C679 O683 1.241 . S
C680 O673 1.247 . S
C680 O674 1.261 . S
C681 O676 1.259 . S
C681 O678 1.235 . S
O682 Co672 2.021 . S
O682 C679 1.238 . S
O683 Co677 2.052 . S
O683 C679 1.241 . S
O684 Co672 2.137 . S
O684 C675 1.247 . S
O685 Co672 2.244 . S
O685 C675 1.272 . S
O685 Co677 2.135 . S
Co686 O687 2.216 . S
Co686 O688 2.091 . S
Co686 O690 2.004 . S
Co686 O696 2.021 . S
Co686 O698 2.137 . S
Co686 O699 2.244 . S
O687 Co686 2.216 . S
O687 C694 1.247 . S
O688 Co686 2.091 . S
O688 C694 1.261 . S
C689 O698 1.247 . S
C689 O699 1.272 . S
O690 Co686 2.004 . S
O690 C695 1.259 . S
Co691 O692 2.061 . S
Co691 O697 2.052 . S
Co691 O699 2.135 . S
O692 Co691 2.061 . S
O692 C695 1.235 . S
C693 O696 1.238 . S
C693 O697 1.241 . S
C694 O687 1.247 . S
C694 O688 1.261 . S
C695 O690 1.259 . S
C695 O692 1.235 . S
O696 Co686 2.021 . S
O696 C693 1.238 . S
O697 Co691 2.052 . S
O697 C693 1.241 . S
O698 Co686 2.137 . S
O698 C689 1.247 . S
O699 Co686 2.244 . S
O699 C689 1.272 . S
O699 Co691 2.135 . S
Co700 O701 2.216 . S
Co700 O702 2.091 . S
Co700 O704 2.004 . S
Co700 O710 2.021 . S
Co700 O712 2.137 . S
Co700 O713 2.244 . S
O701 Co700 2.216 . S
O701 C708 1.247 . S
O702 Co700 2.091 . S
O702 C708 1.261 . S
C703 O712 1.247 . S
C703 O713 1.272 . S
O704 Co700 2.004 . S
O704 C709 1.259 . S
Co705 O706 2.061 . S
Co705 O711 2.052 . S
Co705 O713 2.135 . S
O706 Co705 2.061 . S
O706 C709 1.235 . S
C707 O710 1.238 . S
C707 O711 1.241 . S
C708 O701 1.247 . S
C708 O702 1.261 . S
C709 O704 1.259 . S
C709 O706 1.235 . S
O710 Co700 2.021 . S
O710 C707 1.238 . S
O711 Co705 2.052 . S
O711 C707 1.241 . S
O712 Co700 2.137 . S
O712 C703 1.247 . S
O713 Co700 2.244 . S
O713 C703 1.272 . S
O713 Co705 2.135 . S
Co714 O715 2.216 . S
Co714 O716 2.091 . S
Co714 O718 2.004 . S
Co714 O724 2.021 . S
Co714 O726 2.137 . S
Co714 O727 2.244 . S
O715 Co714 2.216 . S
O715 C722 1.247 . S
O716 Co714 2.091 . S
O716 C722 1.261 . S
C717 O726 1.247 . S
C717 O727 1.272 . S
O718 Co714 2.004 . S
O718 C723 1.259 . S
Co719 O720 2.061 . S
Co719 O725 2.052 . S
Co719 O727 2.135 . S
O720 Co719 2.061 . S
O720 C723 1.235 . S
C721 O724 1.238 . S
C721 O725 1.241 . S
C722 O715 1.247 . S
C722 O716 1.261 . S
C723 O718 1.259 . S
C723 O720 1.235 . S
O724 Co714 2.021 . S
O724 C721 1.238 . S
O725 Co719 2.052 . S
O725 C721 1.241 . S
O726 Co714 2.137 . S
O726 C717 1.247 . S
O727 Co714 2.244 . S
O727 C717 1.272 . S
O727 Co719 2.135 . S
Co728 O729 2.216 . S
Co728 O730 2.091 . S
Co728 O732 2.004 . S
Co728 O738 2.021 . S
Co728 O740 2.137 . S
Co728 O741 2.244 . S
O729 Co728 2.216 . S
O729 C736 1.247 . S
O730 Co728 2.091 . S
O730 C736 1.261 . S
C731 O740 1.247 . S
C731 O741 1.272 . S
O732 Co728 2.004 . S
O732 C737 1.259 . S
Co733 O734 2.061 . S
Co733 O739 2.052 . S
Co733 O741 2.135 . S
O734 Co733 2.061 . S
O734 C737 1.235 . S
C735 O738 1.238 . S
C735 O739 1.241 . S
C736 O729 1.247 . S
C736 O730 1.261 . S
C737 O732 1.259 . S
C737 O734 1.235 . S
O738 Co728 2.021 . S
O738 C735 1.238 . S
O739 Co733 2.052 . S
O739 C735 1.241 . S
O740 Co728 2.137 . S
O740 C731 1.247 . S
O741 Co728 2.244 . S
O741 C731 1.272 . S
O741 Co733 2.135 . S
Co742 O743 2.216 . S
Co742 O744 2.091 . S
Co742 O746 2.004 . S
Co742 O752 2.021 . S
Co742 O754 2.137 . S
Co742 O755 2.244 . S
O743 Co742 2.216 . S
O743 C750 1.247 . S
O744 Co742 2.091 . S
O744 C750 1.261 . S
C745 O754 1.247 . S
C745 O755 1.272 . S
O746 Co742 2.004 . S
O746 C751 1.259 . S
Co747 O748 2.061 . S
Co747 O753 2.052 . S
Co747 O755 2.135 . S
O748 Co747 2.061 . S
O748 C751 1.235 . S
C749 O752 1.238 . S
C749 O753 1.241 . S
C750 O743 1.247 . S
C750 O744 1.261 . S
C751 O746 1.259 . S
C751 O748 1.235 . S
O752 Co742 2.021 . S
O752 C749 1.238 . S
O753 Co747 2.052 . S
O753 C749 1.241 . S
O754 Co742 2.137 . S
O754 C745 1.247 . S
O755 Co742 2.244 . S
O755 C745 1.272 . S
O755 Co747 2.135 . S
Co756 O757 2.216 . S
Co756 O758 2.091 . S
Co756 O760 2.004 . S
Co756 O766 2.021 . S
Co756 O768 2.137 . S
Co756 O769 2.244 . S
O757 Co756 2.216 . S
O757 C764 1.247 . S
O758 Co756 2.091 . S
O758 C764 1.261 . S
C759 O768 1.247 . S
C759 O769 1.272 . S
O760 Co756 2.004 . S
O760 C765 1.259 . S
Co761 O762 2.061 . S
Co761 O767 2.052 . S
Co761 O769 2.135 . S
O762 Co761 2.061 . S
O762 C765 1.235 . S
C763 O766 1.238 . S
C763 O767 1.241 . S
C764 O757 1.247 . S
C764 O758 1.261 . S
C765 O760 1.259 . S
C765 O762 1.235 . S
O766 Co756 2.021 . S
O766 C763 1.238 . S
O767 Co761 2.052 . S
O767 C763 1.241 . S
O768 Co756 2.137 . S
O768 C759 1.247 . S
O769 Co756 2.244 . S
O769 C759 1.272 . S
O769 Co761 2.135 . S
Co770 O771 2.216 . S
Co770 O772 2.091 . S
Co770 O774 2.004 . S
Co770 O780 2.021 . S
Co770 O782 2.137 . S
Co770 O783 2.244 . S
O771 Co770 2.216 . S
O771 C778 1.247 . S
O772 Co770 2.091 . S
O772 C778 1.261 . S
C773 O782 1.247 . S
C773 O783 1.272 . S
O774 Co770 2.004 . S
O774 C779 1.259 . S
Co775 O776 2.061 . S
Co775 O781 2.052 . S
Co775 O783 2.135 . S
O776 Co775 2.061 . S
O776 C779 1.235 . S
C777 O780 1.238 . S
C777 O781 1.241 . S
C778 O771 1.247 . S
C778 O772 1.261 . S
C779 O774 1.259 . S
C779 O776 1.235 . S
O780 Co770 2.021 . S
O780 C777 1.238 . S
O781 Co775 2.052 . S
O781 C777 1.241 . S
O782 Co770 2.137 . S
O782 C773 1.247 . S
O783 Co770 2.244 . S
O783 C773 1.272 . S
O783 Co775 2.135 . S
Co784 O785 2.216 . S
Co784 O786 2.091 . S
Co784 O788 2.004 . S
Co784 O794 2.021 . S
Co784 O796 2.137 . S
Co784 O797 2.244 . S
O785 Co784 2.216 . S
O785 C792 1.247 . S
O786 Co784 2.091 . S
O786 C792 1.261 . S
C787 O796 1.247 . S
C787 O797 1.272 . S
O788 Co784 2.004 . S
O788 C793 1.259 . S
Co789 O790 2.061 . S
Co789 O795 2.052 . S
Co789 O797 2.135 . S
O790 Co789 2.061 . S
O790 C793 1.235 . S
C791 O794 1.238 . S
C791 O795 1.241 . S
C792 O785 1.247 . S
C792 O786 1.261 . S
C793 O788 1.259 . S
C793 O790 1.235 . S
O794 Co784 2.021 . S
O794 C791 1.238 . S
O795 Co789 2.052 . S
O795 C791 1.241 . S
O796 Co784 2.137 . S
O796 C787 1.247 . S
O797 Co784 2.244 . S
O797 C787 1.272 . S
O797 Co789 2.135 . S
Co798 O799 2.216 . S
Co798 O800 2.091 . S
Co798 O802 2.004 . S
Co798 O808 2.021 . S
Co798 O810 2.137 . S
Co798 O811 2.244 . S
O799 Co798 2.216 . S
O799 C806 1.247 . S
O800 Co798 2.091 . S
O800 C806 1.261 . S
C801 O810 1.247 . S
C801 O811 1.272 . S
O802 Co798 2.004 . S
O802 C807 1.259 . S
Co803 O804 2.061 . S
Co803 O809 2.052 . S
Co803 O811 2.135 . S
O804 Co803 2.061 . S
O804 C807 1.235 . S
C805 O808 1.238 . S
C805 O809 1.241 . S
C806 O799 1.247 . S
C806 O800 1.261 . S
C807 O802 1.259 . S
C807 O804 1.235 . S
O808 Co798 2.021 . S
O808 C805 1.238 . S
O809 Co803 2.052 . S
O809 C805 1.241 . S
O810 Co798 2.137 . S
O810 C801 1.247 . S
O811 Co798 2.244 . S
O811 C801 1.272 . S
O811 Co803 2.135 . S
Co812 O813 2.216 . S
Co812 O814 2.091 . S
Co812 O816 2.004 . S
Co812 O822 2.021 . S
Co812 O824 2.137 . S
Co812 O825 2.244 . S
O813 Co812 2.216 . S
O813 C820 1.247 . S
O814 Co812 2.091 . S
O814 C820 1.261 . S
C815 O824 1.247 . S
C815 O825 1.272 . S
O816 Co812 2.004 . S
O816 C821 1.259 . S
Co817 O818 2.061 . S
Co817 O823 2.052 . S
Co817 O825 2.135 . S
O818 Co817 2.061 . S
O818 C821 1.235 . S
C819 O822 1.238 . S
C819 O823 1.241 . S
C820 O813 1.247 . S
C820 O814 1.261 . S
C821 O816 1.259 . S
C821 O818 1.235 . S
O822 Co812 2.021 . S
O822 C819 1.238 . S
O823 Co817 2.052 . S
O823 C819 1.241 . S
O824 Co812 2.137 . S
O824 C815 1.247 . S
O825 Co812 2.244 . S
O825 C815 1.272 . S
O825 Co817 2.135 . S
Co826 O827 2.216 . S
Co826 O828 2.091 . S
Co826 O830 2.004 . S
Co826 O836 2.021 . S
Co826 O838 2.137 . S
Co826 O839 2.244 . S
O827 Co826 2.216 . S
O827 C834 1.247 . S
O828 Co826 2.091 . S
O828 C834 1.261 . S
C829 O838 1.247 . S
C829 O839 1.272 . S
O830 Co826 2.004 . S
O830 C835 1.259 . S
Co831 O832 2.061 . S
Co831 O837 2.052 . S
Co831 O839 2.135 . S
O832 Co831 2.061 . S
O832 C835 1.235 . S
C833 O836 1.238 . S
C833 O837 1.241 . S
C834 O827 1.247 . S
C834 O828 1.261 . S
C835 O830 1.259 . S
C835 O832 1.235 . S
O836 Co826 2.021 . S
O836 C833 1.238 . S
O837 Co831 2.052 . S
O837 C833 1.241 . S
O838 Co826 2.137 . S
O838 C829 1.247 . S
O839 Co826 2.244 . S
O839 C829 1.272 . S
O839 Co831 2.135 . S
Co840 O841 2.216 . S
Co840 O842 2.091 . S
Co840 O844 2.004 . S
Co840 O850 2.021 . S
Co840 O852 2.137 . S
Co840 O853 2.244 . S
O841 Co840 2.216 . S
O841 C848 1.247 . S
O842 Co840 2.091 . S
O842 C848 1.261 . S
C843 O852 1.247 . S
C843 O853 1.272 . S
O844 Co840 2.004 . S
O844 C849 1.259 . S
Co845 O846 2.061 . S
Co845 O851 2.052 . S
Co845 O853 2.135 . S
O846 Co845 2.061 . S
O846 C849 1.235 . S
C847 O850 1.238 . S
C847 O851 1.241 . S
C848 O841 1.247 . S
C848 O842 1.261 . S
C849 O844 1.259 . S
C849 O846 1.235 . S
O850 Co840 2.021 . S
O850 C847 1.238 . S
O851 Co845 2.052 . S
O851 C847 1.241 . S
O852 Co840 2.137 . S
O852 C843 1.247 . S
O853 Co840 2.244 . S
O853 C843 1.272 . S
O853 Co845 2.135 . S
Co854 O855 2.216 . S
Co854 O856 2.091 . S
Co854 O858 2.004 . S
Co854 O864 2.021 . S
Co854 O866 2.137 . S
Co854 O867 2.244 . S
O855 Co854 2.216 . S
O855 C862 1.247 . S
O856 Co854 2.091 . S
O856 C862 1.261 . S
C857 O866 1.247 . S
C857 O867 1.272 . S
O858 Co854 2.004 . S
O858 C863 1.259 . S
Co859 O860 2.061 . S
Co859 O865 2.052 . S
Co859 O867 2.135 . S
O860 Co859 2.061 . S
O860 C863 1.235 . S
C861 O864 1.238 . S
C861 O865 1.241 . S
C862 O855 1.247 . S
C862 O856 1.261 . S
C863 O858 1.259 . S
C863 O860 1.235 . S
O864 Co854 2.021 . S
O864 C861 1.238 . S
O865 Co859 2.052 . S
O865 C861 1.241 . S
O866 Co854 2.137 . S
O866 C857 1.247 . S
O867 Co854 2.244 . S
O867 C857 1.272 . S
O867 Co859 2.135 . S
Co868 O869 2.216 . S
Co868 O870 2.091 . S
Co868 O872 2.004 . S
Co868 O878 2.021 . S
Co868 O880 2.137 . S
Co868 O881 2.244 . S
O869 Co868 2.216 . S
O869 C876 1.247 . S
O870 Co868 2.091 . S
O870 C876 1.261 . S
C871 O880 1.247 . S
C871 O881 1.272 . S
O872 Co868 2.004 . S
O872 C877 1.259 . S
Co873 O874 2.061 . S
Co873 O879 2.052 . S
Co873 O881 2.135 . S
O874 Co873 2.061 . S
O874 C877 1.235 . S
C875 O878 1.238 . S
C875 O879 1.241 . S
C876 O869 1.247 . S
C876 O870 1.261 . S
C877 O872 1.259 . S
C877 O874 1.235 . S
O878 Co868 2.021 . S
O878 C875 1.238 . S
O879 Co873 2.052 . S
O879 C875 1.241 . S
O880 Co868 2.137 . S
O880 C871 1.247 . S
O881 Co868 2.244 . S
O881 C871 1.272 . S
O881 Co873 2.135 . S
Co882 O883 2.216 . S
Co882 O884 2.091 . S
Co882 O886 2.004 . S
Co882 O892 2.021 . S
Co882 O894 2.137 . S
Co882 O895 2.244 . S
O883 Co882 2.216 . S
O883 C890 1.247 . S
O884 Co882 2.091 . S
O884 C890 1.261 . S
C885 O894 1.247 . S
C885 O895 1.272 . S
O886 Co882 2.004 . S
O886 C891 1.259 . S
Co887 O888 2.061 . S
Co887 O893 2.052 . S
Co887 O895 2.135 . S
O888 Co887 2.061 . S
O888 C891 1.235 . S
C889 O892 1.238 . S
C889 O893 1.241 . S
C890 O883 1.247 . S
C890 O884 1.261 . S
C891 O886 1.259 . S
C891 O888 1.235 . S
O892 Co882 2.021 . S
O892 C889 1.238 . S
O893 Co887 2.052 . S
O893 C889 1.241 . S
O894 Co882 2.137 . S
O894 C885 1.247 . S
O895 Co882 2.244 . S
O895 C885 1.272 . S
O895 Co887 2.135 . S
Co896 O897 2.216 . S
Co896 O898 2.091 . S
Co896 O900 2.004 . S
Co896 O906 2.021 . S
Co896 O908 2.137 . S
Co896 O909 2.244 . S
O897 Co896 2.216 . S
O897 C904 1.247 . S
O898 Co896 2.091 . S
O898 C904 1.261 . S
C899 O908 1.247 . S
C899 O909 1.272 . S
O900 Co896 2.004 . S
O900 C905 1.259 . S
Co901 O902 2.061 . S
Co901 O907 2.052 . S
Co901 O909 2.135 . S
O902 Co901 2.061 . S
O902 C905 1.235 . S
C903 O906 1.238 . S
C903 O907 1.241 . S
C904 O897 1.247 . S
C904 O898 1.261 . S
C905 O900 1.259 . S
C905 O902 1.235 . S
O906 Co896 2.021 . S
O906 C903 1.238 . S
O907 Co901 2.052 . S
O907 C903 1.241 . S
O908 Co896 2.137 . S
O908 C899 1.247 . S
O909 Co896 2.244 . S
O909 C899 1.272 . S
O909 Co901 2.135 . S
Co910 O911 2.216 . S
Co910 O912 2.091 . S
Co910 O914 2.004 . S
Co910 O920 2.021 . S
Co910 O922 2.137 . S
Co910 O923 2.244 . S
O911 Co910 2.216 . S
O911 C918 1.247 . S
O912 Co910 2.091 . S
O912 C918 1.261 . S
C913 O922 1.247 . S
C913 O923 1.272 . S
O914 Co910 2.004 . S
O914 C919 1.259 . S
Co915 O916 2.061 . S
Co915 O921 2.052 . S
Co915 O923 2.135 . S
O916 Co915 2.061 . S
O916 C919 1.235 . S
C917 O920 1.238 . S
C917 O921 1.241 . S
C918 O911 1.247 . S
C918 O912 1.261 . S
C919 O914 1.259 . S
C919 O916 1.235 . S
O920 Co910 2.021 . S
O920 C917 1.238 . S
O921 Co915 2.052 . S
O921 C917 1.241 . S
O922 Co910 2.137 . S
O922 C913 1.247 . S
O923 Co910 2.244 . S
O923 C913 1.272 . S
O923 Co915 2.135 . S
Co924 O925 2.216 . S
Co924 O926 2.091 . S
Co924 O928 2.004 . S
Co924 O934 2.021 . S
Co924 O936 2.137 . S
Co924 O937 2.244 . S
O925 Co924 2.216 . S
O925 C932 1.247 . S
O926 Co924 2.091 . S
O926 C932 1.261 . S
C927 O936 1.247 . S
C927 O937 1.272 . S
O928 Co924 2.004 . S
O928 C933 1.259 . S
Co929 O930 2.061 . S
Co929 O935 2.052 . S
Co929 O937 2.135 . S
O930 Co929 2.061 . S
O930 C933 1.235 . S
C931 O934 1.238 . S
C931 O935 1.241 . S
C932 O925 1.247 . S
C932 O926 1.261 . S
C933 O928 1.259 . S
C933 O930 1.235 . S
O934 Co924 2.021 . S
O934 C931 1.238 . S
O935 Co929 2.052 . S
O935 C931 1.241 . S
O936 Co924 2.137 . S
O936 C927 1.247 . S
O937 Co924 2.244 . S
O937 C927 1.272 . S
O937 Co929 2.135 . S
Co938 O939 2.216 . S
Co938 O940 2.091 . S
Co938 O942 2.004 . S
Co938 O948 2.021 . S
Co938 O950 2.137 . S
Co938 O951 2.244 . S
O939 Co938 2.216 . S
O939 C946 1.247 . S
O940 Co938 2.091 . S
O940 C946 1.261 . S
C941 O950 1.247 . S
C941 O951 1.272 . S
O942 Co938 2.004 . S
O942 C947 1.259 . S
Co943 O944 2.061 . S
Co943 O949 2.052 . S
Co943 O951 2.135 . S
O944 Co943 2.061 . S
O944 C947 1.235 . S
C945 O948 1.238 . S
C945 O949 1.241 . S
C946 O939 1.247 . S
C946 O940 1.261 . S
C947 O942 1.259 . S
C947 O944 1.235 . S
O948 Co938 2.021 . S
O948 C945 1.238 . S
O949 Co943 2.052 . S
O949 C945 1.241 . S
O950 Co938 2.137 . S
O950 C941 1.247 . S
O951 Co938 2.244 . S
O951 C941 1.272 . S
O951 Co943 2.135 . S
Co952 O953 2.216 . S
Co952 O954 2.091 . S
Co952 O956 2.004 . S
Co952 O962 2.021 . S
Co952 O964 2.137 . S
Co952 O965 2.244 . S
O953 Co952 2.216 . S
O953 C960 1.247 . S
O954 Co952 2.091 . S
O954 C960 1.261 . S
C955 O964 1.247 . S
C955 O965 1.272 . S
O956 Co952 2.004 . S
O956 C961 1.259 . S
Co957 O958 2.061 . S
Co957 O963 2.052 . S
Co957 O965 2.135 . S
O958 Co957 2.061 . S
O958 C961 1.235 . S
C959 O962 1.238 . S
C959 O963 1.241 . S
C960 O953 1.247 . S
C960 O954 1.261 . S
C961 O956 1.259 . S
C961 O958 1.235 . S
O962 Co952 2.021 . S
O962 C959 1.238 . S
O963 Co957 2.052 . S
O963 C959 1.241 . S
O964 Co952 2.137 . S
O964 C955 1.247 . S
O965 Co952 2.244 . S
O965 C955 1.272 . S
O965 Co957 2.135 . S
Co966 O967 2.216 . S
Co966 O968 2.091 . S
Co966 O970 2.004 . S
Co966 O976 2.021 . S
Co966 O978 2.137 . S
Co966 O979 2.244 . S
O967 Co966 2.216 . S
O967 C974 1.247 . S
O968 Co966 2.091 . S
O968 C974 1.261 . S
C969 O978 1.247 . S
C969 O979 1.272 . S
O970 Co966 2.004 . S
O970 C975 1.259 . S
Co971 O972 2.061 . S
Co971 O977 2.052 . S
Co971 O979 2.135 . S
O972 Co971 2.061 . S
O972 C975 1.235 . S
C973 O976 1.238 . S
C973 O977 1.241 . S
C974 O967 1.247 . S
C974 O968 1.261 . S
C975 O970 1.259 . S
C975 O972 1.235 . S
O976 Co966 2.021 . S
O976 C973 1.238 . S
O977 Co971 2.052 . S
O977 C973 1.241 . S
O978 Co966 2.137 . S
O978 C969 1.247 . S
O979 Co966 2.244 . S
O979 C969 1.272 . S
O979 Co971 2.135 . S
Co980 O981 2.216 . S
Co980 O982 2.091 . S
Co980 O984 2.004 . S
Co980 O990 2.021 . S
Co980 O992 2.137 . S
Co980 O993 2.244 . S
O981 Co980 2.216 . S
O981 C988 1.247 . S
O982 Co980 2.091 . S
O982 C988 1.261 . S
C983 O992 1.247 . S
C983 O993 1.272 . S
O984 Co980 2.004 . S
O984 C989 1.259 . S
Co985 O986 2.061 . S
Co985 O991 2.052 . S
Co985 O993 2.135 . S
O986 Co985 2.061 . S
O986 C989 1.235 . S
C987 O990 1.238 . S
C987 O991 1.241 . S
C988 O981 1.247 . S
C988 O982 1.261 . S
C989 O984 1.259 . S
C989 O986 1.235 . S
O990 Co980 2.021 . S
O990 C987 1.238 . S
O991 Co985 2.052 . S
O991 C987 1.241 . S
O992 Co980 2.137 . S
O992 C983 1.247 . S
O993 Co980 2.244 . S
O993 C983 1.272 . S
O993 Co985 2.135 . S
Co994 O995 2.216 . S
Co994 O996 2.091 . S
Co994 O998 2.004 . S
Co994 O1004 2.021 . S
Co994 O1006 2.137 . S
Co994 O1007 2.244 . S
O995 Co994 2.216 . S
O995 C1002 1.247 . S
O996 Co994 2.091 . S
O996 C1002 1.261 . S
C997 O1006 1.247 . S
C997 O1007 1.272 . S
O998 Co994 2.004 . S
O998 C1003 1.259 . S
Co999 O1000 2.061 . S
Co999 O1005 2.052 . S
Co999 O1007 2.135 . S
O1000 Co999 2.061 . S
O1000 C1003 1.235 . S
C1001 O1004 1.238 . S
C1001 O1005 1.241 . S
C1002 O995 1.247 . S
C1002 O996 1.261 . S
C1003 O998 1.259 . S
C1003 O1000 1.235 . S
O1004 Co994 2.021 . S
O1004 C1001 1.238 . S
O1005 Co999 2.052 . S
O1005 C1001 1.241 . S
O1006 Co994 2.137 . S
O1006 C997 1.247 . S
O1007 Co994 2.244 . S
O1007 C997 1.272 . S
O1007 Co999 2.135 . S
Co1008 O1009 2.216 . S
Co1008 O1010 2.091 . S
Co1008 O1012 2.004 . S
Co1008 O1018 2.021 . S
Co1008 O1020 2.137 . S
Co1008 O1021 2.244 . S
O1009 Co1008 2.216 . S
O1009 C1016 1.247 . S
O1010 Co1008 2.091 . S
O1010 C1016 1.261 . S
C1011 O1020 1.247 . S
C1011 O1021 1.272 . S
O1012 Co1008 2.004 . S
O1012 C1017 1.259 . S
Co1013 O1014 2.061 . S
Co1013 O1019 2.052 . S
Co1013 O1021 2.135 . S
O1014 Co1013 2.061 . S
O1014 C1017 1.235 . S
C1015 O1018 1.238 . S
C1015 O1019 1.241 . S
C1016 O1009 1.247 . S
C1016 O1010 1.261 . S
C1017 O1012 1.259 . S
C1017 O1014 1.235 . S
O1018 Co1008 2.021 . S
O1018 C1015 1.238 . S
O1019 Co1013 2.052 . S
O1019 C1015 1.241 . S
O1020 Co1008 2.137 . S
O1020 C1011 1.247 . S
O1021 Co1008 2.244 . S
O1021 C1011 1.272 . S
O1021 Co1013 2.135 . S
Co1022 O1023 2.216 . S
Co1022 O1024 2.091 . S
Co1022 O1026 2.004 . S
Co1022 O1032 2.021 . S
Co1022 O1034 2.137 . S
Co1022 O1035 2.244 . S
O1023 Co1022 2.216 . S
O1023 C1030 1.247 . S
O1024 Co1022 2.091 . S
O1024 C1030 1.261 . S
C1025 O1034 1.247 . S
C1025 O1035 1.272 . S
O1026 Co1022 2.004 . S
O1026 C1031 1.259 . S
Co1027 O1028 2.061 . S
Co1027 O1033 2.052 . S
Co1027 O1035 2.135 . S
O1028 Co1027 2.061 . S
O1028 C1031 1.235 . S
C1029 O1032 1.238 . S
C1029 O1033 1.241 . S
C1030 O1023 1.247 . S
C1030 O1024 1.261 . S
C1031 O1026 1.259 . S
C1031 O1028 1.235 . S
O1032 Co1022 2.021 . S
O1032 C1029 1.238 . S
O1033 Co1027 2.052 . S
O1033 C1029 1.241 . S
O1034 Co1022 2.137 . S
O1034 C1025 1.247 . S
O1035 Co1022 2.244 . S
O1035 C1025 1.272 . S
O1035 Co1027 2.135 . S
Co1036 O1037 2.216 . S
Co1036 O1038 2.091 . S
Co1036 O1040 2.004 . S
Co1036 O1046 2.021 . S
Co1036 O1048 2.137 . S
Co1036 O1049 2.244 . S
O1037 Co1036 2.216 . S
O1037 C1044 1.247 . S
O1038 Co1036 2.091 . S
O1038 C1044 1.261 . S
C1039 O1048 1.247 . S
C1039 O1049 1.272 . S
O1040 Co1036 2.004 . S
O1040 C1045 1.259 . S
Co1041 O1042 2.061 . S
Co1041 O1047 2.052 . S
Co1041 O1049 2.135 . S
O1042 Co1041 2.061 . S
O1042 C1045 1.235 . S
C1043 O1046 1.238 . S
C1043 O1047 1.241 . S
C1044 O1037 1.247 . S
C1044 O1038 1.261 . S
C1045 O1040 1.259 . S
C1045 O1042 1.235 . S
O1046 Co1036 2.021 . S
O1046 C1043 1.238 . S
O1047 Co1041 2.052 . S
O1047 C1043 1.241 . S
O1048 Co1036 2.137 . S
O1048 C1039 1.247 . S
O1049 Co1036 2.244 . S
O1049 C1039 1.272 . S
O1049 Co1041 2.135 . S
Co1050 O1051 2.216 . S
Co1050 O1052 2.091 . S
Co1050 O1054 2.004 . S
Co1050 O1060 2.021 . S
Co1050 O1062 2.137 . S
Co1050 O1063 2.244 . S
O1051 Co1050 2.216 . S
O1051 C1058 1.247 . S
O1052 Co1050 2.091 . S
O1052 C1058 1.261 . S
C1053 O1062 1.247 . S
C1053 O1063 1.272 . S
O1054 Co1050 2.004 . S
O1054 C1059 1.259 . S
Co1055 O1056 2.061 . S
Co1055 O1061 2.052 . S
Co1055 O1063 2.135 . S
O1056 Co1055 2.061 . S
O1056 C1059 1.235 . S
C1057 O1060 1.238 . S
C1057 O1061 1.241 . S
C1058 O1051 1.247 . S
C1058 O1052 1.261 . S
C1059 O1054 1.259 . S
C1059 O1056 1.235 . S
O1060 Co1050 2.021 . S
O1060 C1057 1.238 . S
O1061 Co1055 2.052 . S
O1061 C1057 1.241 . S
O1062 Co1050 2.137 . S
O1062 C1053 1.247 . S
O1063 Co1050 2.244 . S
O1063 C1053 1.272 . S
O1063 Co1055 2.135 . S
Co1064 O1065 2.216 . S
Co1064 O1066 2.091 . S
Co1064 O1068 2.004 . S
Co1064 O1074 2.021 . S
Co1064 O1076 2.137 . S
Co1064 O1077 2.244 . S
O1065 Co1064 2.216 . S
O1065 C1072 1.247 . S
O1066 Co1064 2.091 . S
O1066 C1072 1.261 . S
C1067 O1076 1.247 . S
C1067 O1077 1.272 . S
O1068 Co1064 2.004 . S
O1068 C1073 1.259 . S
Co1069 O1070 2.061 . S
Co1069 O1075 2.052 . S
Co1069 O1077 2.135 . S
O1070 Co1069 2.061 . S
O1070 C1073 1.235 . S
C1071 O1074 1.238 . S
C1071 O1075 1.241 . S
C1072 O1065 1.247 . S
C1072 O1066 1.261 . S
C1073 O1068 1.259 . S
C1073 O1070 1.235 . S
O1074 Co1064 2.021 . S
O1074 C1071 1.238 . S
O1075 Co1069 2.052 . S
O1075 C1071 1.241 . S
O1076 Co1064 2.137 . S
O1076 C1067 1.247 . S
O1077 Co1064 2.244 . S
O1077 C1067 1.272 . S
O1077 Co1069 2.135 . S
Co1078 O1079 2.216 . S
Co1078 O1080 2.091 . S
Co1078 O1082 2.004 . S
Co1078 O1088 2.021 . S
Co1078 O1090 2.137 . S
Co1078 O1091 2.244 . S
O1079 Co1078 2.216 . S
O1079 C1086 1.247 . S
O1080 Co1078 2.091 . S
O1080 C1086 1.261 . S
C1081 O1090 1.247 . S
C1081 O1091 1.272 . S
O1082 Co1078 2.004 . S
O1082 C1087 1.259 . S
Co1083 O1084 2.061 . S
Co1083 O1089 2.052 . S
Co1083 O1091 2.135 . S
O1084 Co1083 2.061 . S
O1084 C1087 1.235 . S
C1085 O1088 1.238 . S
C1085 O1089 1.241 . S
C1086 O1079 1.247 . S
C1086 O1080 1.261 . S
C1087 O1082 1.259 . S
C1087 O1084 1.235 . S
O1088 Co1078 2.021 . S
O1088 C1085 1.238 . S
O1089 Co1083 2.052 . S
O1089 C1085 1.241 . S
O1090 Co1078 2.137 . S
O1090 C1081 1.247 . S
O1091 Co1078 2.244 . S
O1091 C1081 1.272 . S
O1091 Co1083 2.135 . S
Co1092 O1093 2.216 . S
Co1092 O1094 2.091 . S
Co1092 O1096 2.004 . S
Co1092 O1102 2.021 . S
Co1092 O1104 2.137 . S
Co1092 O1105 2.244 . S
O1093 Co1092 2.216 . S
O1093 C1100 1.247 . S
O1094 Co1092 2.091 . S
O1094 C1100 1.261 . S
C1095 O1104 1.247 . S
C1095 O1105 1.272 . S
O1096 Co1092 2.004 . S
O1096 C1101 1.259 . S
Co1097 O1098 2.061 . S
Co1097 O1103 2.052 . S
Co1097 O1105 2.135 . S
O1098 Co1097 2.061 . S
O1098 C1101 1.235 . S
C1099 O1102 1.238 . S
C1099 O1103 1.241 . S
C1100 O1093 1.247 . S
C1100 O1094 1.261 . S
C1101 O1096 1.259 . S
C1101 O1098 1.235 . S
O1102 Co1092 2.021 . S
O1102 C1099 1.238 . S
O1103 Co1097 2.052 . S
O1103 C1099 1.241 . S
O1104 Co1092 2.137 . S
O1104 C1095 1.247 . S
O1105 Co1092 2.244 . S
O1105 C1095 1.272 . S
O1105 Co1097 2.135 . S
Co1106 O1107 2.216 . S
Co1106 O1108 2.091 . S
Co1106 O1110 2.004 . S
Co1106 O1116 2.021 . S
Co1106 O1118 2.137 . S
Co1106 O1119 2.244 . S
O1107 Co1106 2.216 . S
O1107 C1114 1.247 . S
O1108 Co1106 2.091 . S
O1108 C1114 1.261 . S
C1109 O1118 1.247 . S
C1109 O1119 1.272 . S
O1110 Co1106 2.004 . S
O1110 C1115 1.259 . S
Co1111 O1112 2.061 . S
Co1111 O1117 2.052 . S
Co1111 O1119 2.135 . S
O1112 Co1111 2.061 . S
O1112 C1115 1.235 . S
C1113 O1116 1.238 . S
C1113 O1117 1.241 . S
C1114 O1107 1.247 . S
C1114 O1108 1.261 . S
C1115 O1110 1.259 . S
C1115 O1112 1.235 . S
O1116 Co1106 2.021 . S
O1116 C1113 1.238 . S
O1117 Co1111 2.052 . S
O1117 C1113 1.241 . S
O1118 Co1106 2.137 . S
O1118 C1109 1.247 . S
O1119 Co1106 2.244 . S
O1119 C1109 1.272 . S
O1119 Co1111 2.135 . S
Co1120 O1121 2.216 . S
Co1120 O1122 2.091 . S
Co1120 O1124 2.004 . S
Co1120 O1130 2.021 . S
Co1120 O1132 2.137 . S
Co1120 O1133 2.244 . S
O1121 Co1120 2.216 . S
O1121 C1128 1.247 . S
O1122 Co1120 2.091 . S
O1122 C1128 1.261 . S
C1123 O1132 1.247 . S
C1123 O1133 1.272 . S
O1124 Co1120 2.004 . S
O1124 C1129 1.259 . S
Co1125 O1126 2.061 . S
Co1125 O1131 2.052 . S
Co1125 O1133 2.135 . S
O1126 Co1125 2.061 . S
O1126 C1129 1.235 . S
C1127 O1130 1.238 . S
C1127 O1131 1.241 . S
C1128 O1121 1.247 . S
C1128 O1122 1.261 . S
C1129 O1124 1.259 . S
C1129 O1126 1.235 . S
O1130 Co1120 2.021 . S
O1130 C1127 1.238 . S
O1131 Co1125 2.052 . S
O1131 C1127 1.241 . S
O1132 Co1120 2.137 . S
O1132 C1123 1.247 . S
O1133 Co1120 2.244 . S
O1133 C1123 1.272 . S
O1133 Co1125 2.135 . S
Co1134 O1135 2.216 . S
Co1134 O1136 2.091 . S
Co1134 O1138 2.004 . S
Co1134 O1144 2.021 . S
Co1134 O1146 2.137 . S
Co1134 O1147 2.244 . S
O1135 Co1134 2.216 . S
O1135 C1142 1.247 . S
O1136 Co1134 2.091 . S
O1136 C1142 1.261 . S
C1137 O1146 1.247 . S
C1137 O1147 1.272 . S
O1138 Co1134 2.004 . S
O1138 C1143 1.259 . S
Co1139 O1140 2.061 . S
Co1139 O1145 2.052 . S
Co1139 O1147 2.135 . S
O1140 Co1139 2.061 . S
O1140 C1143 1.235 . S
C1141 O1144 1.238 . S
C1141 O1145 1.241 . S
C1142 O1135 1.247 . S
C1142 O1136 1.261 . S
C1143 O1138 1.259 . S
C1143 O1140 1.235 . S
O1144 Co1134 2.021 . S
O1144 C1141 1.238 . S
O1145 Co1139 2.052 . S
O1145 C1141 1.241 . S
O1146 Co1134 2.137 . S
O1146 C1137 1.247 . S
O1147 Co1134 2.244 . S
O1147 C1137 1.272 . S
O1147 Co1139 2.135 . S
Co1148 O1149 2.216 . S
Co1148 O1150 2.091 . S
Co1148 O1152 2.004 . S
Co1148 O1158 2.021 . S
Co1148 O1160 2.137 . S
Co1148 O1161 2.244 . S
O1149 Co1148 2.216 . S
O1149 C1156 1.247 . S
O1150 Co1148 2.091 . S
O1150 C1156 1.261 . S
C1151 O1160 1.247 . S
C1151 O1161 1.272 . S
O1152 Co1148 2.004 . S
O1152 C1157 1.259 . S
Co1153 O1154 2.061 . S
Co1153 O1159 2.052 . S
Co1153 O1161 2.135 . S
O1154 Co1153 2.061 . S
O1154 C1157 1.235 . S
C1155 O1158 1.238 . S
C1155 O1159 1.241 . S
C1156 O1149 1.247 . S
C1156 O1150 1.261 . S
C1157 O1152 1.259 . S
C1157 O1154 1.235 . S
O1158 Co1148 2.021 . S
O1158 C1155 1.238 . S
O1159 Co1153 2.052 . S
O1159 C1155 1.241 . S
O1160 Co1148 2.137 . S
O1160 C1151 1.247 . S
O1161 Co1148 2.244 . S
O1161 C1151 1.272 . S
O1161 Co1153 2.135 . S
Co1162 O1163 2.216 . S
Co1162 O1164 2.091 . S
Co1162 O1166 2.004 . S
Co1162 O1172 2.021 . S
Co1162 O1174 2.137 . S
Co1162 O1175 2.244 . S
O1163 Co1162 2.216 . S
O1163 C1170 1.247 . S
O1164 Co1162 2.091 . S
O1164 C1170 1.261 . S
C1165 O1174 1.247 . S
C1165 O1175 1.272 . S
O1166 Co1162 2.004 . S
O1166 C1171 1.259 . S
Co1167 O1168 2.061 . S
Co1167 O1173 2.052 . S
Co1167 O1175 2.135 . S
O1168 Co1167 2.061 . S
O1168 C1171 1.235 . S
C1169 O1172 1.238 . S
C1169 O1173 1.241 . S
C1170 O1163 1.247 . S
C1170 O1164 1.261 . S
C1171 O1166 1.259 . S
C1171 O1168 1.235 . S
O1172 Co1162 2.021 . S
O1172 C1169 1.238 . S
O1173 Co1167 2.052 . S
O1173 C1169 1.241 . S
O1174 Co1162 2.137 . S
O1174 C1165 1.247 . S
O1175 Co1162 2.244 . S
O1175 C1165 1.272 . S
O1175 Co1167 2.135 . S
Co1176 O1177 2.216 . S
Co1176 O1178 2.091 . S
Co1176 O1180 2.004 . S
Co1176 O1186 2.021 . S
Co1176 O1188 2.137 . S
Co1176 O1189 2.244 . S
O1177 Co1176 2.216 . S
O1177 C1184 1.247 . S
O1178 Co1176 2.091 . S
O1178 C1184 1.261 . S
C1179 O1188 1.247 . S
C1179 O1189 1.272 . S
O1180 Co1176 2.004 . S
O1180 C1185 1.259 . S
Co1181 O1182 2.061 . S
Co1181 O1187 2.052 . S
Co1181 O1189 2.135 . S
O1182 Co1181 2.061 . S
O1182 C1185 1.235 . S
C1183 O1186 1.238 . S
C1183 O1187 1.241 . S
C1184 O1177 1.247 . S
C1184 O1178 1.261 . S
C1185 O1180 1.259 . S
C1185 O1182 1.235 . S
O1186 Co1176 2.021 . S
O1186 C1183 1.238 . S
O1187 Co1181 2.052 . S
O1187 C1183 1.241 . S
O1188 Co1176 2.137 . S
O1188 C1179 1.247 . S
O1189 Co1176 2.244 . S
O1189 C1179 1.272 . S
O1189 Co1181 2.135 . S
Co1190 O1191 2.216 . S
Co1190 O1192 2.091 . S
Co1190 O1194 2.004 . S
Co1190 O1200 2.021 . S
Co1190 O1202 2.137 . S
Co1190 O1203 2.244 . S
O1191 Co1190 2.216 . S
O1191 C1198 1.247 . S
O1192 Co1190 2.091 . S
O1192 C1198 1.261 . S
C1193 O1202 1.247 . S
C1193 O1203 1.272 . S
O1194 Co1190 2.004 . S
O1194 C1199 1.259 . S
Co1195 O1196 2.061 . S
Co1195 O1201 2.052 . S
Co1195 O1203 2.135 . S
O1196 Co1195 2.061 . S
O1196 C1199 1.235 . S
C1197 O1200 1.238 . S
C1197 O1201 1.241 . S
C1198 O1191 1.247 . S
C1198 O1192 1.261 . S
C1199 O1194 1.259 . S
C1199 O1196 1.235 . S
O1200 Co1190 2.021 . S
O1200 C1197 1.238 . S
O1201 Co1195 2.052 . S
O1201 C1197 1.241 . S
O1202 Co1190 2.137 . S
O1202 C1193 1.247 . S
O1203 Co1190 2.244 . S
O1203 C1193 1.272 . S
O1203 Co1195 2.135 . S
Co1204 O1205 2.216 . S
Co1204 O1206 2.091 . S
Co1204 O1208 2.004 . S
Co1204 O1214 2.021 . S
Co1204 O1216 2.137 . S
Co1204 O1217 2.244 . S
O1205 Co1204 2.216 . S
O1205 C1212 1.247 . S
O1206 Co1204 2.091 . S
O1206 C1212 1.261 . S
C1207 O1216 1.247 . S
C1207 O1217 1.272 . S
O1208 Co1204 2.004 . S
O1208 C1213 1.259 . S
Co1209 O1210 2.061 . S
Co1209 O1215 2.052 . S
Co1209 O1217 2.135 . S
O1210 Co1209 2.061 . S
O1210 C1213 1.235 . S
C1211 O1214 1.238 . S
C1211 O1215 1.241 . S
C1212 O1205 1.247 . S
C1212 O1206 1.261 . S
C1213 O1208 1.259 . S
C1213 O1210 1.235 . S
O1214 Co1204 2.021 . S
O1214 C1211 1.238 . S
O1215 Co1209 2.052 . S
O1215 C1211 1.241 . S
O1216 Co1204 2.137 . S
O1216 C1207 1.247 . S
O1217 Co1204 2.244 . S
O1217 C1207 1.272 . S
O1217 Co1209 2.135 . S
Co1218 O1219 2.216 . S
Co1218 O1220 2.091 . S
Co1218 O1222 2.004 . S
Co1218 O1228 2.021 . S
Co1218 O1230 2.137 . S
Co1218 O1231 2.244 . S
O1219 Co1218 2.216 . S
O1219 C1226 1.247 . S
O1220 Co1218 2.091 . S
O1220 C1226 1.261 . S
C1221 O1230 1.247 . S
C1221 O1231 1.272 . S
O1222 Co1218 2.004 . S
O1222 C1227 1.259 . S
Co1223 O1224 2.061 . S
Co1223 O1229 2.052 . S
Co1223 O1231 2.135 . S
O1224 Co1223 2.061 . S
O1224 C1227 1.235 . S
C1225 O1228 1.238 . S
C1225 O1229 1.241 . S
C1226 O1219 1.247 . S
C1226 O1220 1.261 . S
C1227 O1222 1.259 . S
C1227 O1224 1.235 . S
O1228 Co1218 2.021 . S
O1228 C1225 1.238 . S
O1229 Co1223 2.052 . S
O1229 C1225 1.241 . S
O1230 Co1218 2.137 . S
O1230 C1221 1.247 . S
O1231 Co1218 2.244 . S
O1231 C1221 1.272 . S
O1231 Co1223 2.135 . S
Co1232 O1233 2.216 . S
Co1232 O1234 2.091 . S
Co1232 O1236 2.004 . S
Co1232 O1242 2.021 . S
Co1232 O1244 2.137 . S
Co1232 O1245 2.244 . S
O1233 Co1232 2.216 . S
O1233 C1240 1.247 . S
O1234 Co1232 2.091 . S
O1234 C1240 1.261 . S
C1235 O1244 1.247 . S
C1235 O1245 1.272 . S
O1236 Co1232 2.004 . S
O1236 C1241 1.259 . S
Co1237 O1238 2.061 . S
Co1237 O1243 2.052 . S
Co1237 O1245 2.135 . S
O1238 Co1237 2.061 . S
O1238 C1241 1.235 . S
C1239 O1242 1.238 . S
C1239 O1243 1.241 . S
C1240 O1233 1.247 . S
C1240 O1234 1.261 . S
C1241 O1236 1.259 . S
C1241 O1238 1.235 . S
O1242 Co1232 2.021 . S
O1242 C1239 1.238 . S
O1243 Co1237 2.052 . S
O1243 C1239 1.241 . S
O1244 Co1232 2.137 . S
O1244 C1235 1.247 . S
O1245 Co1232 2.244 . S
O1245 C1235 1.272 . S
O1245 Co1237 2.135 . S
Co1246 O1247 2.216 . S
Co1246 O1248 2.091 . S
Co1246 O1250 2.004 . S
Co1246 O1256 2.021 . S
Co1246 O1258 2.137 . S
Co1246 O1259 2.244 . S
O1247 Co1246 2.216 . S
O1247 C1254 1.247 . S
O1248 Co1246 2.091 . S
O1248 C1254 1.261 . S
C1249 O1258 1.247 . S
C1249 O1259 1.272 . S
O1250 Co1246 2.004 . S
O1250 C1255 1.259 . S
Co1251 O1252 2.061 . S
Co1251 O1257 2.052 . S
Co1251 O1259 2.135 . S
O1252 Co1251 2.061 . S
O1252 C1255 1.235 . S
C1253 O1256 1.238 . S
C1253 O1257 1.241 . S
C1254 O1247 1.247 . S
C1254 O1248 1.261 . S
C1255 O1250 1.259 . S
C1255 O1252 1.235 . S
O1256 Co1246 2.021 . S
O1256 C1253 1.238 . S
O1257 Co1251 2.052 . S
O1257 C1253 1.241 . S
O1258 Co1246 2.137 . S
O1258 C1249 1.247 . S
O1259 Co1246 2.244 . S
O1259 C1249 1.272 . S
O1259 Co1251 2.135 . S
Co1260 O1261 2.216 . S
Co1260 O1262 2.091 . S
Co1260 O1264 2.004 . S
Co1260 O1270 2.021 . S
Co1260 O1272 2.137 . S
Co1260 O1273 2.244 . S
O1261 Co1260 2.216 . S
O1261 C1268 1.247 . S
O1262 Co1260 2.091 . S
O1262 C1268 1.261 . S
C1263 O1272 1.247 . S
C1263 O1273 1.272 . S
O1264 Co1260 2.004 . S
O1264 C1269 1.259 . S
Co1265 O1266 2.061 . S
Co1265 O1271 2.052 . S
Co1265 O1273 2.135 . S
O1266 Co1265 2.061 . S
O1266 C1269 1.235 . S
C1267 O1270 1.238 . S
C1267 O1271 1.241 . S
C1268 O1261 1.247 . S
C1268 O1262 1.261 . S
C1269 O1264 1.259 . S
C1269 O1266 1.235 . S
O1270 Co1260 2.021 . S
O1270 C1267 1.238 . S
O1271 Co1265 2.052 . S
O1271 C1267 1.241 . S
O1272 Co1260 2.137 . S
O1272 C1263 1.247 . S
O1273 Co1260 2.244 . S
O1273 C1263 1.272 . S
O1273 Co1265 2.135 . S
Co1274 O1275 2.216 . S
Co1274 O1276 2.091 . S
Co1274 O1278 2.004 . S
Co1274 O1284 2.021 . S
Co1274 O1286 2.137 . S
Co1274 O1287 2.244 . S
O1275 Co1274 2.216 . S
O1275 C1282 1.247 . S
O1276 Co1274 2.091 . S
O1276 C1282 1.261 . S
C1277 O1286 1.247 . S
C1277 O1287 1.272 . S
O1278 Co1274 2.004 . S
O1278 C1283 1.259 . S
Co1279 O1280 2.061 . S
Co1279 O1285 2.052 . S
Co1279 O1287 2.135 . S
O1280 Co1279 2.061 . S
O1280 C1283 1.235 . S
C1281 O1284 1.238 . S
C1281 O1285 1.241 . S
C1282 O1275 1.247 . S
C1282 O1276 1.261 . S
C1283 O1278 1.259 . S
C1283 O1280 1.235 . S
O1284 Co1274 2.021 . S
O1284 C1281 1.238 . S
O1285 Co1279 2.052 . S
O1285 C1281 1.241 . S
O1286 Co1274 2.137 . S
O1286 C1277 1.247 . S
O1287 Co1274 2.244 . S
O1287 C1277 1.272 . S
O1287 Co1279 2.135 . S
Co1288 O1289 2.216 . S
Co1288 O1290 2.091 . S
Co1288 O1292 2.004 . S
Co1288 O1298 2.021 . S
Co1288 O1300 2.137 . S
Co1288 O1301 2.244 . S
O1289 Co1288 2.216 . S
O1289 C1296 1.247 . S
O1290 Co1288 2.091 . S
O1290 C1296 1.261 . S
C1291 O1300 1.247 . S
C1291 O1301 1.272 . S
O1292 Co1288 2.004 . S
O1292 C1297 1.259 . S
Co1293 O1294 2.061 . S
Co1293 O1299 2.052 . S
Co1293 O1301 2.135 . S
O1294 Co1293 2.061 . S
O1294 C1297 1.235 . S
C1295 O1298 1.238 . S
C1295 O1299 1.241 . S
C1296 O1289 1.247 . S
C1296 O1290 1.261 . S
C1297 O1292 1.259 . S
C1297 O1294 1.235 . S
O1298 Co1288 2.021 . S
O1298 C1295 1.238 . S
O1299 Co1293 2.052 . S
O1299 C1295 1.241 . S
O1300 Co1288 2.137 . S
O1300 C1291 1.247 . S
O1301 Co1288 2.244 . S
O1301 C1291 1.272 . S
O1301 Co1293 2.135 . S
Co1302 O1303 2.216 . S
Co1302 O1304 2.091 . S
Co1302 O1306 2.004 . S
Co1302 O1312 2.021 . S
Co1302 O1314 2.137 . S
Co1302 O1315 2.244 . S
O1303 Co1302 2.216 . S
O1303 C1310 1.247 . S
O1304 Co1302 2.091 . S
O1304 C1310 1.261 . S
C1305 O1314 1.247 . S
C1305 O1315 1.272 . S
O1306 Co1302 2.004 . S
O1306 C1311 1.259 . S
Co1307 O1308 2.061 . S
Co1307 O1313 2.052 . S
Co1307 O1315 2.135 . S
O1308 Co1307 2.061 . S
O1308 C1311 1.235 . S
C1309 O1312 1.238 . S
C1309 O1313 1.241 . S
C1310 O1303 1.247 . S
C1310 O1304 1.261 . S
C1311 O1306 1.259 . S
C1311 O1308 1.235 . S
O1312 Co1302 2.021 . S
O1312 C1309 1.238 . S
O1313 Co1307 2.052 . S
O1313 C1309 1.241 . S
O1314 Co1302 2.137 . S
O1314 C1305 1.247 . S
O1315 Co1302 2.244 . S
O1315 C1305 1.272 . S
O1315 Co1307 2.135 . S
Co1316 O1317 2.216 . S
Co1316 O1318 2.091 . S
Co1316 O1320 2.004 . S
Co1316 O1326 2.021 . S
Co1316 O1328 2.137 . S
Co1316 O1329 2.244 . S
O1317 Co1316 2.216 . S
O1317 C1324 1.247 . S
O1318 Co1316 2.091 . S
O1318 C1324 1.261 . S
C1319 O1328 1.247 . S
C1319 O1329 1.272 . S
O1320 Co1316 2.004 . S
O1320 C1325 1.259 . S
Co1321 O1322 2.061 . S
Co1321 O1327 2.052 . S
Co1321 O1329 2.135 . S
O1322 Co1321 2.061 . S
O1322 C1325 1.235 . S
C1323 O1326 1.238 . S
C1323 O1327 1.241 . S
C1324 O1317 1.247 . S
C1324 O1318 1.261 . S
C1325 O1320 1.259 . S
C1325 O1322 1.235 . S
O1326 Co1316 2.021 . S
O1326 C1323 1.238 . S
O1327 Co1321 2.052 . S
O1327 C1323 1.241 . S
O1328 Co1316 2.137 . S
O1328 C1319 1.247 . S
O1329 Co1316 2.244 . S
O1329 C1319 1.272 . S
O1329 Co1321 2.135 . S
Co1330 O1331 2.216 . S
Co1330 O1332 2.091 . S
Co1330 O1334 2.004 . S
Co1330 O1340 2.021 . S
Co1330 O1342 2.137 . S
Co1330 O1343 2.244 . S
O1331 Co1330 2.216 . S
O1331 C1338 1.247 . S
O1332 Co1330 2.091 . S
O1332 C1338 1.261 . S
C1333 O1342 1.247 . S
C1333 O1343 1.272 . S
O1334 Co1330 2.004 . S
O1334 C1339 1.259 . S
Co1335 O1336 2.061 . S
Co1335 O1341 2.052 . S
Co1335 O1343 2.135 . S
O1336 Co1335 2.061 . S
O1336 C1339 1.235 . S
C1337 O1340 1.238 . S
C1337 O1341 1.241 . S
C1338 O1331 1.247 . S
C1338 O1332 1.261 . S
C1339 O1334 1.259 . S
C1339 O1336 1.235 . S
O1340 Co1330 2.021 . S
O1340 C1337 1.238 . S
O1341 Co1335 2.052 . S
O1341 C1337 1.241 . S
O1342 Co1330 2.137 . S
O1342 C1333 1.247 . S
O1343 Co1330 2.244 . S
O1343 C1333 1.272 . S
O1343 Co1335 2.135 . S
C8 C442 1.767 . S
C22 C400 1.767 . S
C414 C36 1.767 . S
C428 C50 1.767 . S
C358 C64 1.767 . S
C372 C78 1.767 . S
C92 C386 1.767 . S
C344 C106 1.767 . S
C120 C624 1.767 . S
C134 C582 1.767 . S
C148 C596 1.767 . S
C162 C610 1.767 . S
C176 C666 1.767 . S
C190 C638 1.767 . S
C204 C652 1.767 . S
C568 C218 1.767 . S
C232 C554 1.767 . S
C470 C246 1.767 . S
C484 C260 1.767 . S
C274 C498 1.767 . S
C456 C288 1.767 . S
C526 C302 1.767 . S
C316 C540 1.767 . S
C330 C512 1.767 . S
C1114 C680 1.767 . S
C1072 C694 1.767 . S
C708 C1086 1.767 . S
C1100 C722 1.767 . S
C736 C1030 1.767 . S
C750 C1044 1.767 . S
C1058 C764 1.767 . S
C1016 C778 1.767 . S
C1296 C792 1.767 . S
C1254 C806 1.767 . S
C820 C1268 1.767 . S
C834 C1282 1.767 . S
C1338 C848 1.767 . S
C1310 C862 1.767 . S
C1324 C876 1.767 . S
C890 C1240 1.767 . S
C1226 C904 1.767 . S
C918 C1142 1.767 . S
C1156 C932 1.767 . S
C1170 C946 1.767 . S
C1128 C960 1.767 . S
C974 C1198 1.767 . S
C988 C1212 1.767 . S
C1184 C1002 1.767 . S
C3 C955 2.733 . S
C17 C913 2.733 . S
C31 C927 2.733 . S
C45 C941 2.733 . S
C997 C59 2.733 . S
C73 C969 2.733 . S
C983 C87 2.733 . S
C101 C899 2.733 . S
C885 C115 2.733 . S
C129 C843 2.733 . S
C857 C143 2.733 . S
C157 C871 2.733 . S
C171 C801 2.733 . S
C185 C815 2.733 . S
C829 C199 2.733 . S
C787 C213 2.733 . S
C227 C773 2.733 . S
C241 C689 2.733 . S
C255 C703 2.733 . S
C269 C717 2.733 . S
C283 C675 2.733 . S
C745 C297 2.733 . S
C759 C311 2.733 . S
C325 C731 2.733 . S
C345 C1297 0.973 . S
C359 C1255 0.973 . S
C373 C1269 0.973 . S
C387 C1283 0.973 . S
C401 C1339 0.973 . S
C1311 C415 0.973 . S
C429 C1325 0.973 . S
C443 C1241 0.973 . S
C1227 C457 0.973 . S
C1185 C471 0.973 . S
C1199 C485 0.973 . S
C1213 C499 0.973 . S
C513 C1143 0.973 . S
C527 C1157 0.973 . S
C541 C1171 0.973 . S
C1129 C555 0.973 . S
C1115 C569 0.973 . S
C583 C1031 0.973 . S
C1045 C597 0.973 . S
C1059 C611 0.973 . S
C625 C1017 0.973 . S
C639 C1087 0.973 . S
C1101 C653 0.973 . S
C667 C1073 0.973 . S
C9 C395 1.723 1_455 S
C23 C409 1.723 1_545 S
C37 C423 1.723 1_655 S
C51 C437 1.723 1_565 S
C339 C65 1.723 1_655 S
C79 C353 1.723 1_545 S
C367 C93 1.723 1_455 S
C381 C107 1.723 1_545 S
C121 C535 1.723 1_545 S
C549 C135 1.723 1_455 S
C149 C507 1.723 1_565 S
C163 C521 1.723 1_455 S
C177 C479 1.723 1_565 S
C191 C493 1.723 1_455 S
C205 C451 1.723 1_545 S
C465 C219 1.723 1_455 S
C233 C633 1.723 1_554 S
C247 C605 1.723 1_556 S
C619 C261 1.723 1_554 S
C275 C577 1.723 1_556 S
C591 C289 1.723 1_554 S
C303 C563 1.723 1_554 S
C661 C317 1.723 1_556 S
C647 C331 1.723 1_556 S
C681 C1067 1.723 . S
C695 C1081 1.723 . S
C709 C1095 1.723 . S
C1109 C723 1.723 . S
C737 C1011 1.723 . S
C751 C1025 1.723 . S
C765 C1039 1.723 . S
C779 C1053 1.723 . S
C793 C1207 1.723 . S
C1221 C807 1.723 . S
C1179 C821 1.723 . S
C1193 C835 1.723 . S
C849 C1151 1.723 . S
C1165 C863 1.723 . S
C877 C1123 1.723 . S
C1137 C891 1.723 . S
C1305 C905 1.723 . S
C1277 C919 1.723 . S
C933 C1291 1.723 . S
C947 C1249 1.723 . S
C1263 C961 1.723 . S
C975 C1235 1.723 . S
C1333 C989 1.723 . S
C1319 C1003 1.723 . S
C371 C7 1.440 . S
C21 C385 1.440 . S
C343 C35 1.440 . S
C49 C357 1.440 . S
C427 C63 1.440 . S
C441 C77 1.440 . S
C91 C399 1.440 . S
C413 C105 1.440 . S
C119 C511 1.440 . S
C133 C525 1.440 . S
C539 C147 1.440 . S
C161 C553 1.440 . S
C175 C455 1.440 . S
C469 C189 1.440 . S
C483 C203 1.440 . S
C497 C217 1.440 . S
C231 C609 1.440 . S
C637 C245 1.440 . S
C259 C651 1.440 . S
C567 C273 1.440 . S
C665 C287 1.440 . S
C581 C301 1.440 . S
C315 C595 1.440 . S
C329 C623 1.440 . S
C679 C1043 1.440 1_556 S
C1057 C693 1.440 1_554 S
C1015 C707 1.440 1_554 S
C1029 C721 1.440 1_554 S
C735 C1099 1.440 1_554 S
C1113 C749 1.440 1_556 S
C763 C1071 1.440 1_554 S
C1085 C777 1.440 1_556 S
C791 C1183 1.440 1_655 S
C1197 C805 1.440 1_545 S
C819 C1211 1.440 1_455 S
C1225 C833 1.440 1_565 S
C1127 C847 1.440 1_455 S
C1141 C861 1.440 1_545 S
C1155 C875 1.440 1_655 S
C1169 C889 1.440 1_565 S
C903 C1281 1.440 1_565 S
C1309 C917 1.440 1_565 S
C1323 C931 1.440 1_455 S
C1239 C945 1.440 1_545 S
C1337 C959 1.440 1_655 S
C973 C1253 1.440 1_545 S
C987 C1267 1.440 1_655 S
C1295 C1001 1.440 1_655 S
