# Generated by pormake.
# Topology sod, (4)-cn, num edge types: 1
# Building blocks:
#     Node 0, Type 0, BuildingBlock: NAHDIM_clean_sbu_0, # of connection points: 4
#     Node 1, Type 0, BuildingBlock: NAHDIM_clean_sbu_0, # of connection points: 4
#     Node 2, Type 0, BuildingBlock: NAHDIM_clean_sbu_0, # of connection points: 4
#     Node 3, Type 0, BuildingBlock: NAHDIM_clean_sbu_0, # of connection points: 4
#     Node 4, Type 0, BuildingBlock: NAHDIM_clean_sbu_0, # of connection points: 4
#     Node 5, Type 0, BuildingBlock: NAHDIM_clean_sbu_0, # of connection points: 4
#     Node 6, Type 0, BuildingBlock: NAHDIM_clean_sbu_0, # of connection points: 4
#     Node 7, Type 0, BuildingBlock: NAHDIM_clean_sbu_0, # of connection points: 4
#     Node 8, Type 0, BuildingBlock: NAHDIM_clean_sbu_0, # of connection points: 4
#     Node 9, Type 0, BuildingBlock: NAHDIM_clean_sbu_0, # of connection points: 4
#     Node 10, Type 0, BuildingBlock: NAHDIM_clean_sbu_0, # of connection points: 4
#     Node 11, Type 0, BuildingBlock: NAHDIM_clean_sbu_0, # of connection points: 4
#     Edge 12, Type (0, 0), BuildingBlock: KIFKEQ_clean_linker_1, # of connection points: 2
#     Edge 13, Type (0, 0), BuildingBlock: KIFKEQ_clean_linker_1, # of connection points: 2
#     Edge 14, Type (0, 0), BuildingBlock: KIFKEQ_clean_linker_1, # of connection points: 2
#     Edge 15, Type (0, 0), BuildingBlock: KIFKEQ_clean_linker_1, # of connection points: 2
#     Edge 16, Type (0, 0), BuildingBlock: KIFKEQ_clean_linker_1, # of connection points: 2
#     Edge 17, Type (0, 0), BuildingBlock: KIFKEQ_clean_linker_1, # of connection points: 2
#     Edge 18, Type (0, 0), BuildingBlock: KIFKEQ_clean_linker_1, # of connection points: 2
#     Edge 19, Type (0, 0), BuildingBlock: KIFKEQ_clean_linker_1, # of connection points: 2
#     Edge 20, Type (0, 0), BuildingBlock: KIFKEQ_clean_linker_1, # of connection points: 2
#     Edge 21, Type (0, 0), BuildingBlock: KIFKEQ_clean_linker_1, # of connection points: 2
#     Edge 22, Type (0, 0), BuildingBlock: KIFKEQ_clean_linker_1, # of connection points: 2
#     Edge 23, Type (0, 0), BuildingBlock: KIFKEQ_clean_linker_1, # of connection points: 2
#     Edge 24, Type (0, 0), BuildingBlock: KIFKEQ_clean_linker_1, # of connection points: 2
#     Edge 25, Type (0, 0), BuildingBlock: KIFKEQ_clean_linker_1, # of connection points: 2
#     Edge 26, Type (0, 0), BuildingBlock: KIFKEQ_clean_linker_1, # of connection points: 2
#     Edge 27, Type (0, 0), BuildingBlock: KIFKEQ_clean_linker_1, # of connection points: 2
#     Edge 28, Type (0, 0), BuildingBlock: KIFKEQ_clean_linker_1, # of connection points: 2
#     Edge 29, Type (0, 0), BuildingBlock: KIFKEQ_clean_linker_1, # of connection points: 2
#     Edge 30, Type (0, 0), BuildingBlock: KIFKEQ_clean_linker_1, # of connection points: 2
#     Edge 31, Type (0, 0), BuildingBlock: KIFKEQ_clean_linker_1, # of connection points: 2
#     Edge 32, Type (0, 0), BuildingBlock: KIFKEQ_clean_linker_1, # of connection points: 2
#     Edge 33, Type (0, 0), BuildingBlock: KIFKEQ_clean_linker_1, # of connection points: 2
#     Edge 34, Type (0, 0), BuildingBlock: KIFKEQ_clean_linker_1, # of connection points: 2
#     Edge 35, Type (0, 0), BuildingBlock: KIFKEQ_clean_linker_1, # of connection points: 2
# Relax obj value: 0.090
# Max RMSD: 0.132
# Mean RMSD: 0.129
data_MOF--net-sod--node1-NAHDIM_clean_sbu_0--edge1-KIFKEQ_clean_linker_1
_symmetry_space_group_name_H-M    P1
_symmetry_Int_Tables_number       1
_symmetry_cell_setting            triclinic
loop_
_symmetry_equiv_pos_as_xyz
'x, y, z'
_cell_length_a     43.643954
_cell_length_b     43.606006
_cell_length_c     43.093038
_cell_angle_alpha  90.539796
_cell_angle_beta   91.220778
_cell_angle_gamma 93.911033
loop_
_atom_site_label
_atom_site_type_symbol
_atom_site_fract_x
_atom_site_fract_y
_atom_site_fract_z
_atom_type_partial_charge
C0 C 0.06863 0.21787 0.50585 0.0
O1 O 0.06206 0.22526 0.47712 0.0
O2 O 0.01928 0.27779 0.48288 0.0
Zn3 Zn 0.01444 0.25038 0.52018 0.0
O4 O 0.97789 0.22002 0.51413 0.0
C5 C 0.99209 0.29952 0.55631 0.0
O6 O 0.97762 0.30486 0.53008 0.0
O7 O 0.0519 0.22658 0.52758 0.0
C8 C 0.95259 0.22648 0.50146 0.0
O9 O 0.94926 0.25461 0.49197 0.0
C10 C 0.01253 0.26902 0.4552 0.0
O11 O 0.00265 0.24029 0.4498 0.0
O12 O 0.00898 0.27695 0.55778 0.0
C13 C 0.79955 0.95387 0.49418 0.0
O14 O 0.79947 0.96874 0.52084 0.0
O15 O 0.73137 0.99117 0.51799 0.0
Zn16 Zn 0.75564 -0.00304 0.47889 0.0
O17 O 0.78379 0.03527 0.48303 0.0
C18 C 0.70731 0.02035 0.44134 0.0
O19 O 0.70859 0.04189 0.46294 0.0
O20 O 0.78178 0.96151 0.47229 0.0
C21 C 0.79103 0.05349 0.46115 0.0
O22 O 0.77956 0.04777 0.43309 0.0
C23 C 0.72786 0.01404 0.53577 0.0
O24 O 0.74085 0.04106 0.5287 0.0
O25 O 0.72588 -0.00082 0.44297 0.0
C26 C 0.96121 0.80304 0.4628 0.0
O27 O 0.981 0.80729 0.44044 0.0
O28 O 0.00204 0.73004 0.4455 0.0
Zn29 Zn 0.00217 0.75747 0.48335 0.0
O30 O 0.04044 0.7859 0.4847 0.0
C31 C 0.02267 0.71957 0.53417 0.0
O32 O 0.05007 0.72505 0.52258 0.0
O33 O 0.96548 0.78268 0.48303 0.0
C34 C 0.04836 0.80148 0.50896 0.0
O35 O 0.03128 0.79869 0.53366 0.0
C36 C 0.02728 0.71992 0.43719 0.0
O37 O 0.05254 0.72837 0.45304 0.0
O38 O -0.00029 0.73111 0.52133 0.0
C39 C 0.21995 0.05741 0.54052 0.0
O40 O 0.21277 0.03467 0.55939 0.0
O41 O 0.29253 0.01361 0.55631 0.0
Zn42 Zn 0.26341 0.01581 0.51954 0.0
O43 O 0.23079 0.98073 0.52004 0.0
C44 C 0.30974 0.00104 0.47477 0.0
O45 O 0.31929 0.98303 0.4967 0.0
O46 O 0.24175 0.05488 0.5218 0.0
C47 C 0.23136 0.95581 0.50461 0.0
O48 O 0.25487 0.95145 0.48695 0.0
C49 C 0.29933 0.988 0.5675 0.0
O50 O 0.28697 0.96239 0.55494 0.0
O51 O 0.28656 0.01646 0.47947 0.0
C52 C 0.44011 0.03076 0.28625 0.0
O53 O 0.45454 0.05791 0.28274 0.0
O54 O 0.48049 0.04988 0.21383 0.0
Zn55 Zn 0.48473 0.01443 0.2429 0.0
O56 O 0.52177 0.02226 0.27111 0.0
C57 C 0.51612 0.97058 0.20786 0.0
O58 O 0.53984 0.98939 0.2158 0.0
O59 O 0.4482 0.00818 0.27026 0.0
C60 C 0.52878 0.00061 0.28888 0.0
O61 O 0.51172 0.97458 0.2879 0.0
C62 C 0.50458 0.06436 0.20402 0.0
O63 O 0.53155 0.05673 0.21429 0.0
O64 O 0.48962 0.97634 0.2171 0.0
C65 C 0.07862 0.50391 0.21064 0.0
O66 O 0.05562 0.52055 0.20324 0.0
O67 O 0.03834 0.5251 0.28551 0.0
Zn68 Zn 0.0381 0.48663 0.25926 0.0
O69 O 0.00198 0.48345 0.22915 0.0
C70 C 0.01827 0.42706 0.28559 0.0
O71 O -0.00219 0.42534 0.26275 0.0
O72 O 0.07675 0.48727 0.23465 0.0
C73 C 0.97481 0.4897 0.23564 0.0
O74 O 0.96884 0.49848 0.264 0.0
C75 C 0.02807 0.55032 0.2769 0.0
O76 O 0.01632 0.5525 0.24876 0.0
O77 O 0.03716 0.45051 0.28803 0.0
C78 C 0.56863 -0.0 0.70139 0.0
O79 O 0.54665 0.01901 0.69903 0.0
O80 O 0.53484 0.01881 0.77737 0.0
Zn81 Zn 0.53108 0.98024 0.75081 0.0
O82 O 0.49266 0.97807 0.72379 0.0
C83 C 0.51501 0.94575 0.80413 0.0
O84 O 0.50087 0.97083 0.80957 0.0
O85 O 0.56741 0.98009 0.72275 0.0
C86 C 0.46673 0.9866 0.73198 0.0
O87 O 0.46366 -0.00242 0.76014 0.0
C88 C 0.52468 0.04461 0.77057 0.0
O89 O 0.51049 0.04788 0.74374 0.0
O90 O 0.53007 0.94381 0.77933 0.0
C91 C 0.99002 0.56369 0.70335 0.0
O92 O 0.9666 0.54319 0.70042 0.0
O93 O 0.96971 0.52392 0.77835 0.0
Zn94 Zn 0.00585 0.5221 0.75016 0.0
O95 O 0.00058 0.48608 0.72063 0.0
C96 C 0.0416 0.50667 0.80332 0.0
O97 O 0.01447 0.49569 0.81227 0.0
O98 O 0.01026 0.56016 0.7244 0.0
C99 C 0.00048 0.45803 0.72835 0.0
O100 O 0.0037 0.45103 0.75777 0.0
C101 C 0.9449 0.50699 0.77564 0.0
O102 O 0.94087 0.488 0.75184 0.0
O103 O 0.04403 0.51893 0.77676 0.0
C104 C 0.3202 0.4564 0.00138 0.0
O105 O 0.32946 0.48119 0.01745 0.0
O106 O 0.24128 0.48771 0.02998 0.0
Zn107 Zn 0.26811 0.49134 0.99274 0.0
O108 O 0.29677 0.52945 -0.00447 0.0
C109 C 0.2176 0.51092 0.9584 0.0
O110 O 0.21518 0.52636 0.98446 0.0
O111 O 0.29352 0.45468 0.98881 0.0
C112 C 0.29227 0.5538 0.01071 0.0
O113 O 0.26646 0.55575 0.02551 0.0
C114 C 0.24936 0.49055 0.05841 0.0
O115 O 0.2786 0.49538 0.06603 0.0
O116 O 0.2399 0.4939 0.9555 0.0
C117 C 0.47563 0.30127 0.96265 0.0
O118 O 0.49941 0.30891 0.94547 0.0
O119 O 0.51283 0.22505 0.94155 0.0
Zn120 Zn 0.51361 0.25326 0.97876 0.0
O121 O 0.55018 0.28393 0.97748 0.0
C122 C 0.49548 0.20563 0.02072 0.0
O123 O 0.47509 0.19915 -0.00167 0.0
O124 O 0.47576 0.27703 0.97876 0.0
C125 C 0.5753 0.28207 0.99257 0.0
O126 O 0.57898 0.25812 0.0102 0.0
C127 C 0.53629 0.21038 0.93588 0.0
O128 O 0.56067 0.21446 0.95426 0.0
O129 O 0.51498 0.22833 0.01766 0.0
C130 C 0.72851 0.54705 0.03349 0.0
O131 O 0.7233 0.5254 0.0541 0.0
O132 O 0.80418 0.50966 0.05342 0.0
Zn133 Zn 0.77658 0.50881 0.01531 0.0
O134 O 0.74859 0.47016 0.01466 0.0
C135 C 0.81013 0.48745 0.96236 0.0
O136 O 0.8019 0.45995 0.97276 0.0
O137 O 0.75059 0.54508 0.01501 0.0
C138 C 0.73131 0.46377 0.99106 0.0
O139 O 0.7323 0.48251 0.96735 0.0
C140 C 0.81754 0.48556 0.06038 0.0
O141 O 0.81269 0.46096 0.04265 0.0
O142 O 0.80221 0.51101 0.97693 0.0
C143 C 0.57308 0.70509 0.00121 0.0
O144 O 0.56032 0.70737 0.97351 0.0
O145 O 0.53069 0.7705 0.97818 0.0
Zn146 Zn 0.52675 0.74567 0.01719 0.0
O147 O 0.48831 0.71765 0.01338 0.0
C148 C 0.54188 0.79937 0.05376 0.0
O149 O 0.56216 0.80367 0.03184 0.0
O150 O 0.56286 0.72006 0.02373 0.0
C151 C 0.47029 0.71241 0.03578 0.0
O152 O 0.47686 0.72553 0.06289 0.0
C153 C 0.50695 0.78377 0.9696 0.0
O154 O 0.48192 0.77977 0.98591 0.0
O155 O 0.52392 0.77518 0.05294 0.0
H156 H 0.00171 0.25792 0.39317 0.0
H157 H 0.02831 0.33061 0.45922 0.0
H158 H 0.00447 0.29505 0.35114 0.0
H159 H 0.03035 0.36771 0.41742 0.0
H160 H 0.05998 0.42186 0.33306 0.0
H161 H 0.05996 0.38265 0.37284 0.0
H162 H 0.97732 0.33791 0.33162 0.0
H163 H 0.97775 0.37678 0.29127 0.0
C164 C 0.00813 0.2818 0.39873 0.0
C165 C 0.01483 0.29129 0.42954 0.0
C166 C 0.00953 0.3031 0.37467 0.0
C167 C 0.01764 0.33435 0.3809 0.0
C168 C 0.0245 0.34375 0.41172 0.0
C169 C 0.02316 0.32248 0.43573 0.0
C170 C 0.04186 0.4036 0.33236 0.0
C171 C 0.01878 0.40253 0.30905 0.0
C172 C 0.04177 0.3812 0.3553 0.0
C173 C 0.01853 0.35725 0.35555 0.0
C174 C -0.00426 0.35586 0.33191 0.0
C175 C -0.00411 0.37824 0.30887 0.0
H176 H 0.69582 0.97651 0.39613 0.0
H177 H 0.66393 0.06174 0.43095 0.0
H178 H 0.65374 0.97279 0.35793 0.0
H179 H 0.62163 0.05777 0.39281 0.0
H180 H 0.56593 0.05279 0.30052 0.0
H181 H 0.61061 0.05874 0.33576 0.0
H182 H 0.5973 0.96305 0.3604 0.0
H183 H 0.55292 0.95698 0.32514 0.0
C184 C 0.67995 -0.00545 0.39554 0.0
C185 C 0.68312 0.01933 0.41672 0.0
C186 C 0.65575 0.99231 0.37375 0.0
C187 C 0.63427 0.01486 0.37255 0.0
C188 C 0.63796 0.04015 0.39306 0.0
C189 C 0.6621 0.04233 0.41499 0.0
C190 C 0.5726 0.03302 0.31342 0.0
C191 C 0.55589 0.00441 0.31005 0.0
C192 C 0.59808 0.03648 0.33368 0.0
C193 C 0.60749 0.01134 0.35075 0.0
C194 C 0.59085 0.98274 0.34724 0.0
C195 C 0.56529 0.97933 0.32718 0.0
H196 H 0.00183 0.60517 0.26937 0.0
H197 H 0.05583 0.55499 0.33421 0.0
H198 H 0.0023 0.64804 0.30642 0.0
H199 H 0.05605 0.59759 0.37111 0.0
H200 H 0.07662 0.69069 0.41717 0.0
H201 H 0.07749 0.65135 0.37676 0.0
H202 H 0.98059 0.65857 0.35841 0.0
H203 H 0.97969 0.69823 0.39873 0.0
C204 C 0.01385 0.60331 0.29145 0.0
C205 C 0.02879 0.57667 0.29885 0.0
C206 C 0.01398 0.62778 0.3127 0.0
C207 C 0.02927 0.62619 0.34162 0.0
C208 C 0.04441 0.59967 0.34885 0.0
C209 C 0.04411 0.57517 0.32775 0.0
C210 C 0.05552 0.68408 0.40441 0.0
C211 C 0.02804 0.69746 0.41132 0.0
C212 C 0.05601 0.66143 0.38135 0.0
C213 C 0.02907 0.65173 0.36458 0.0
C214 C 0.00176 0.66574 0.37081 0.0
C215 C 0.00123 0.68833 0.39402 0.0
H216 H 0.3 0.04086 0.42746 0.0
H217 H 0.35687 0.96805 0.45517 0.0
H218 H 0.32864 0.04717 0.37966 0.0
H219 H 0.38558 0.97457 0.40747 0.0
H220 H 0.41326 0.97618 0.30631 0.0
H221 H 0.37928 0.96803 0.35017 0.0
H222 H 0.38166 0.0661 0.36611 0.0
H223 H 0.41544 0.07434 0.32218 0.0
C224 C 0.31851 0.0261 0.42331 0.0
C225 C 0.32625 0.00402 0.44519 0.0
C226 C 0.33498 0.02983 0.39599 0.0
C227 C 0.35937 0.0114 0.38984 0.0
C228 C 0.36668 0.98889 0.4114 0.0
C229 C 0.35036 0.9853 0.43883 0.0
C230 C 0.40626 -0.00397 0.31894 0.0
C231 C 0.41718 0.02592 0.31085 0.0
C232 C 0.38696 0.99133 0.34417 0.0
C233 C 0.37797 0.0164 0.36168 0.0
C234 C 0.388 0.04633 0.35291 0.0
C235 C 0.40748 0.05103 0.32783 0.0
H236 H 0.95209 0.57603 0.65457 0.0
H237 H 0.03695 0.60859 0.70122 0.0
H238 H 0.96021 0.61539 0.61541 0.0
H239 H 0.04474 0.64846 0.66225 0.0
H240 H 0.06561 0.68747 0.56474 0.0
H241 H 0.05729 0.65169 0.60739 0.0
H242 H 0.96136 0.67042 0.60781 0.0
H243 H 0.96947 0.70564 0.56481 0.0
C244 C 0.97231 0.5918 0.65668 0.0
C245 C -0.00607 0.58908 0.68095 0.0
C246 C 0.97688 0.6145 0.6343 0.0
C247 C 0.00316 0.63504 0.63567 0.0
C248 C 0.02448 0.63273 0.66032 0.0
C249 C 0.0199 0.61001 0.68274 0.0
C250 C 0.04278 0.68407 0.57404 0.0
C251 C 0.01817 0.69923 0.56122 0.0
C252 C 0.03805 0.66371 0.59862 0.0
C253 C 0.00862 0.65811 0.61091 0.0
C254 C 0.9842 0.67385 0.59854 0.0
C255 C 0.9889 0.69415 0.57398 0.0
H256 H 0.41189 0.01293 0.7372 0.0
H257 H 0.46281 0.95765 0.67548 0.0
H258 H 0.36986 0.01246 0.69871 0.0
H259 H 0.42085 0.95724 0.63718 0.0
H260 H 0.32666 0.93789 0.58967 0.0
H261 H 0.36575 0.93656 0.63089 0.0
H262 H 0.36256 0.03443 0.64505 0.0
H263 H 0.32343 0.03587 0.60382 0.0
C264 C 0.41404 0.00054 0.71553 0.0
C265 C 0.44069 0.98537 0.70936 0.0
C266 C 0.39006 0.00043 0.69347 0.0
C267 C 0.39212 0.98482 0.66499 0.0
C268 C 0.41852 0.9692 0.65907 0.0
C269 C 0.4426 0.9696 0.68094 0.0
C270 C 0.33415 0.95911 0.60168 0.0
C271 C 0.32203 0.98702 0.59339 0.0
C272 C 0.35663 0.95834 0.62517 0.0
C273 C 0.36722 0.9854 0.6411 0.0
C274 C 0.35462 0.01319 0.63333 0.0
C275 C 0.33237 0.01402 0.6096 0.0
H276 H 0.02346 0.29843 0.61191 0.0
H277 H 0.95681 0.3486 0.56136 0.0
H278 H 0.02349 0.33574 0.65437 0.0
H279 H 0.9563 0.38546 0.60413 0.0
H280 H -0.00479 0.46546 0.66576 0.0
H281 H 0.99113 0.42588 0.62558 0.0
H282 H -0.00687 0.35577 0.69566 0.0
H283 H -0.00204 0.39559 0.73607 0.0
C284 C 0.00853 0.3172 0.61001 0.0
C285 C 0.99033 0.3207 0.58313 0.0
C286 C 0.00842 0.3385 0.63444 0.0
C287 C 0.99005 0.3637 0.63255 0.0
C288 C 0.97112 0.36661 0.60608 0.0
C289 C 0.9713 0.34538 0.58162 0.0
C290 C -0.00531 0.44162 0.67269 0.0
C291 C -0.00299 0.43369 0.70415 0.0
C292 C 0.99211 0.41889 0.64961 0.0
C293 C 0.99169 0.38764 0.6574 0.0
C294 C -0.00629 0.37966 0.68889 0.0
C295 C -0.00366 0.40246 0.71204 0.0
H296 H 0.61386 0.95993 0.69416 0.0
H297 H 0.58062 0.04396 0.6581 0.0
H298 H 0.65484 0.96273 0.65617 0.0
H299 H 0.62119 0.04656 0.62026 0.0
H300 H 0.71388 0.05906 0.57639 0.0
H301 H 0.6776 0.05513 0.61853 0.0
H302 H 0.65933 0.95831 0.59843 0.0
H303 H 0.69597 0.96209 0.55633 0.0
C304 C 0.61535 0.97901 0.67823 0.0
C305 C 0.59398 0.00171 0.67911 0.0
C306 C 0.6387 0.98052 0.65642 0.0
C307 C 0.64127 0.00492 0.63533 0.0
C308 C 0.62007 0.02771 0.63648 0.0
C309 C 0.59668 0.02609 0.65806 0.0
C310 C 0.70235 0.03685 0.58106 0.0
C311 C 0.70762 0.01094 0.56282 0.0
C312 C 0.68146 0.03465 0.60514 0.0
C313 C 0.66543 0.00648 0.61159 0.0
C314 C 0.6715 0.98029 0.59412 0.0
C315 C 0.69235 0.9825 0.56991 0.0
H316 H 0.47507 0.36025 0.94249 0.0
H317 H 0.4199 0.28993 0.98989 0.0
H318 H 0.4361 0.3966 0.95147 0.0
H319 H 0.38071 0.3265 -0.0014 0.0
H320 H 0.3069 0.39838 0.97752 0.0
H321 H 0.34322 0.35935 0.96671 0.0
H322 H 0.41783 0.42084 0.00202 0.0
H323 H 0.38183 0.45961 0.01308 0.0
C324 C 0.45449 0.35243 0.95451 0.0
C325 C 0.45065 0.32227 0.96565 0.0
C326 C 0.43228 0.37331 0.95978 0.0
C327 C 0.40559 0.36436 0.97593 0.0
C328 C 0.40109 0.3339 0.98602 0.0
C329 C 0.42354 0.31306 0.98112 0.0
C330 C 0.33104 0.40346 0.9831 0.0
C331 C 0.34153 0.43208 -0.00391 0.0
C332 C 0.35174 0.38113 0.97699 0.0
C333 C 0.38327 0.38727 0.98331 0.0
C334 C 0.39366 0.41571 -0.00341 0.0
C335 C 0.373 0.4378 0.00309 0.0
H336 H 0.29159 0.60874 0.04207 0.0
H337 H 0.34876 0.55537 0.98475 0.0
H338 H 0.33326 0.64897 0.04721 0.0
H339 H 0.39034 0.59509 0.99041 0.0
H340 H 0.44932 0.68349 0.98223 0.0
H341 H 0.40472 0.64727 0.97514 0.0
H342 H 0.38414 0.65668 0.07226 0.0
H343 H 0.42847 0.6935 0.07926 0.0
C344 C 0.31298 0.60561 0.03052 0.0
C345 C 0.31684 0.57886 0.01299 0.0
C346 C 0.33689 0.62857 0.03362 0.0
C347 C 0.3651 0.62523 0.01921 0.0
C348 C 0.36876 0.59861 0.00142 0.0
C349 C 0.34493 0.57574 -0.00168 0.0
C350 C 0.43523 0.67795 0.00207 0.0
C351 C 0.44257 0.69122 0.03137 0.0
C352 C 0.40973 0.65709 -0.00198 0.0
C353 C 0.391 0.64894 0.02318 0.0
C354 C 0.39794 0.66271 0.05235 0.0
C355 C 0.42346 0.68365 0.0564 0.0
H356 H 0.6331 0.28488 0.01904 0.0
H357 H 0.57222 0.3368 0.96293 0.0
H358 H 0.67232 0.3275 0.01751 0.0
H359 H 0.61091 0.37953 0.96215 0.0
H360 H 0.6958 0.44051 0.9423 0.0
H361 H 0.65989 0.39524 0.94152 0.0
H362 H 0.6823 0.37897 0.03789 0.0
H363 H 0.71889 0.42375 0.03838 0.0
C364 C 0.62807 0.30537 0.00641 0.0
C365 C 0.59954 0.30743 0.99111 0.0
C366 C 0.65048 0.32987 0.00568 0.0
C367 C 0.64478 0.35697 0.98972 0.0
C368 C 0.6163 0.35885 0.97424 0.0
C369 C 0.59401 0.33437 0.97485 0.0
C370 C 0.69315 0.42721 0.96329 0.0
C371 C 0.71009 0.43582 0.99043 0.0
C372 C 0.67245 0.40132 0.96289 0.0
C373 C 0.66806 0.38353 0.98969 0.0
C374 C 0.68537 0.3919 0.01672 0.0
C375 C 0.70621 0.41771 0.01706 0.0
H376 H 0.73045 0.59278 0.99047 0.0
H377 H 0.67947 0.55853 0.06931 0.0
H378 H 0.69459 0.63274 0.98348 0.0
H379 H 0.6434 0.59835 0.06202 0.0
H380 H 0.60068 0.69101 0.05639 0.0
H381 H 0.63994 0.6546 0.06517 0.0
H382 H 0.64046 0.63486 0.96678 0.0
H383 H 0.6015 0.67147 0.9579 0.0
C384 C 0.71168 0.59384 0.00641 0.0
C385 C 0.70776 0.57238 0.03039 0.0
C386 C 0.69104 0.61665 0.00227 0.0
C387 C 0.66609 0.61861 0.0221 0.0
C388 C 0.66257 0.59761 0.04653 0.0
C389 C 0.68315 0.5747 0.0506 0.0
C390 C 0.6093 0.67905 0.0366 0.0
C391 C 0.5979 0.68409 0.00644 0.0
C392 C 0.63167 0.65807 0.04168 0.0
C393 C 0.64324 0.64181 0.01669 0.0
C394 C 0.63224 0.64728 0.98648 0.0
C395 C 0.60979 0.66814 0.98142 0.0
H396 H 0.55621 0.8017 0.93401 0.0
H397 H 0.45954 0.81374 0.94492 0.0
H398 H 0.55797 0.8396 0.89258 0.0
H399 H 0.46119 0.85103 0.90328 0.0
H400 H 0.48498 0.94381 0.85887 0.0
H401 H 0.48311 0.90319 0.89709 0.0
H402 H 0.5397 0.84968 0.83938 0.0
H403 H 0.54207 0.8908 0.80112 0.0
C404 C 0.53528 0.81216 0.92735 0.0
C405 C 0.5078 0.80491 0.94294 0.0
C406 C 0.53626 0.83376 0.90352 0.0
C407 C 0.50978 0.84852 0.89484 0.0
C408 C 0.48213 0.8405 0.90981 0.0
C409 C 0.48115 0.81899 0.93359 0.0
C410 C 0.49699 0.92339 0.85421 0.0
C411 C 0.51365 0.92055 0.82691 0.0
C412 C 0.49575 0.89999 0.87607 0.0
C413 C 0.5111 0.87311 0.8712 0.0
C414 C 0.52782 0.87022 0.84391 0.0
C415 C 0.52905 0.89369 0.82194 0.0
H416 H 0.16283 0.53688 0.96223 0.0
H417 H 0.21739 0.48639 0.89954 0.0
H418 H 0.12128 0.53553 0.92356 0.0
H419 H 0.17552 0.48516 0.86069 0.0
H420 H 0.10214 0.52121 0.7907 0.0
H421 H 0.14601 0.52258 0.8272 0.0
H422 H 0.08548 0.49268 0.90056 0.0
H423 H 0.04179 0.4912 0.86437 0.0
C424 C 0.16606 0.52566 0.94012 0.0
C425 C 0.19336 0.51161 0.934 0.0
C426 C 0.14217 0.52476 0.91806 0.0
C427 C 0.14513 0.51003 0.88928 0.0
C428 C 0.17273 0.49674 0.8827 0.0
C429 C 0.19659 0.49736 0.90495 0.0
C430 C 0.09826 0.5148 0.81459 0.0
C431 C 0.06849 0.50623 0.82469 0.0
C432 C 0.12336 0.51548 0.83539 0.0
C433 C 0.11904 0.50796 0.86669 0.0
C434 C 0.08937 0.49897 0.87663 0.0
C435 C 0.0644 0.49797 0.85584 0.0
H436 H 0.55272 0.04513 0.82782 0.0
H437 H 0.50369 0.10212 0.76501 0.0
H438 H 0.5563 0.08648 0.86626 0.0
H439 H 0.50778 0.1438 0.80343 0.0
H440 H 0.48866 0.19429 0.89535 0.0
H441 H 0.48698 0.15541 0.85421 0.0
H442 H 0.58114 0.13744 0.87589 0.0
H443 H 0.58268 0.17587 0.9174 0.0
C444 C 0.5429 0.06657 0.8221 0.0
C445 C 0.52785 0.07029 0.79335 0.0
C446 C 0.54513 0.09036 0.84409 0.0
C447 C 0.53236 0.11845 0.8379 0.0
C448 C 0.51757 0.12231 0.80903 0.0
C449 C 0.51537 0.09849 0.78696 0.0
C450 C 0.50905 0.18216 0.89124 0.0
C451 C 0.53574 0.18804 0.90979 0.0
C452 C 0.50814 0.16 0.86753 0.0
C453 C 0.53389 0.14325 0.86186 0.0
C454 C 0.56077 0.14962 0.87998 0.0
C455 C 0.56169 0.17176 0.90368 0.0
H456 H 0.94706 0.54267 0.82816 0.0
H457 H 0.89227 0.4696 0.78069 0.0
H458 H 0.91304 0.53846 0.87212 0.0
H459 H 0.85788 0.46575 0.82463 0.0
H460 H 0.83011 0.44214 0.92507 0.0
H461 H 0.86065 0.44818 0.87852 0.0
H462 H 0.86098 0.54691 0.88806 0.0
H463 H 0.83091 0.54093 0.93488 0.0
C464 C 0.92753 0.52597 0.82691 0.0
C465 C 0.92247 0.50638 0.80094 0.0
C466 C 0.90793 0.52365 0.85209 0.0
C467 C 0.88283 0.50168 0.85193 0.0
C468 C 0.87728 0.48262 0.82562 0.0
C469 C 0.89686 0.48499 0.80036 0.0
C470 C 0.83665 0.46514 0.91722 0.0
C471 C 0.8282 0.49104 0.93379 0.0
C472 C 0.85396 0.46859 0.8904 0.0
C473 C 0.86323 0.49803 0.87959 0.0
C474 C 0.8545 0.52392 0.89599 0.0
C475 C 0.83717 0.52048 0.92277 0.0
H476 H 0.45272 0.08452 0.17626 0.0
H477 H 0.55183 0.09686 0.17609 0.0
H478 H 0.44972 0.12052 0.13349 0.0
H479 H 0.54883 0.13221 0.13297 0.0
H480 H 0.53262 0.21439 0.07243 0.0
H481 H 0.5337 0.18251 0.11856 0.0
H482 H 0.46084 0.12152 0.07863 0.0
H483 H 0.45924 0.15376 0.03287 0.0
C484 C 0.47386 0.09499 0.1672 0.0
C485 C 0.50252 0.08772 0.17951 0.0
C486 C 0.47214 0.11547 0.14255 0.0
C487 C 0.49903 0.12912 0.12968 0.0
C488 C 0.52765 0.12239 0.14254 0.0
C489 C 0.52937 0.10197 0.16718 0.0
C490 C 0.51675 0.19424 0.07355 0.0
C491 C 0.49589 0.18658 0.04894 0.0
C492 C 0.51746 0.1759 0.09994 0.0
C493 C 0.49738 0.14944 0.10229 0.0
C494 C 0.47632 0.14198 0.07779 0.0
C495 C 0.47555 0.16036 0.05144 0.0
H496 H 0.91612 0.508 0.23898 0.0
H497 H 0.97869 0.46762 0.17652 0.0
H498 H 0.87677 0.50622 0.19764 0.0
H499 H 0.93956 0.46613 0.13534 0.0
H500 H 0.85273 0.43927 0.07855 0.0
H501 H 0.88933 0.43935 0.12203 0.0
H502 H 0.86782 0.5315 0.1469 0.0
H503 H 0.83089 0.53138 0.1035 0.0
C504 C 0.92145 0.49867 0.2165 0.0
C505 C 0.95053 0.48795 0.21105 0.0
C506 C 0.89898 0.49783 0.19279 0.0
C507 C 0.90506 0.48601 0.16326 0.0
C508 C 0.93404 0.47502 0.15795 0.0
C509 C 0.95653 0.47604 0.18153 0.0
C510 C 0.85567 0.45952 0.09334 0.0
C511 C 0.83898 0.48538 0.08746 0.0
C512 C 0.87676 0.4596 0.11817 0.0
C513 C 0.88156 0.48548 0.1378 0.0
C514 C 0.86443 0.51112 0.13233 0.0
C515 C 0.84342 0.51111 0.10736 0.0
H516 H 0.57377 0.85524 0.05924 0.0
H517 H 0.50347 0.79723 0.10322 0.0
H518 H 0.56763 0.89534 0.09777 0.0
H519 H 0.49787 0.83718 0.14233 0.0
H520 H 0.47158 0.93019 0.18233 0.0
H521 H 0.47841 0.8878 0.14639 0.0
H522 H 0.57677 0.90755 0.15195 0.0
H523 H 0.56992 0.95034 0.18721 0.0
C524 C 0.55721 0.85091 0.07732 0.0
C525 C 0.53907 0.82306 0.07812 0.0
C526 C 0.55381 0.87386 0.09954 0.0
C527 C 0.53227 0.86947 0.12317 0.0
C528 C 0.51439 0.84144 0.1242 0.0
C529 C 0.51773 0.81849 0.1019 0.0
C530 C 0.49466 0.92539 0.17599 0.0
C531 C 0.52019 0.94376 0.18747 0.0
C532 C 0.49859 0.90097 0.15552 0.0
C533 C 0.52813 0.89436 0.14617 0.0
C534 C 0.55367 0.91234 0.15825 0.0
C535 C 0.54974 0.93679 0.17861 0.0
H536 H 0.25703 0.49739 0.12162 0.0
H537 H 0.18735 0.4849 0.04891 0.0
H538 H 0.2168 0.50129 0.15996 0.0
H539 H 0.14757 0.48854 0.08703 0.0
H540 H 0.0871 0.53329 0.15564 0.0
H541 H 0.12953 0.52989 0.12032 0.0
H542 H 0.17312 0.46932 0.18368 0.0
H543 H 0.13065 0.47288 0.21937 0.0
C544 C 0.23321 0.49526 0.11384 0.0
C545 C 0.22542 0.49098 0.0822 0.0
C546 C 0.21021 0.49741 0.13579 0.0
C547 C 0.17908 0.49555 0.12641 0.0
C548 C 0.17137 0.49063 0.09488 0.0
C549 C 0.19423 0.48833 0.07306 0.0
C550 C 0.10578 0.51937 0.16219 0.0
C551 C 0.10538 0.50318 0.19022 0.0
C552 C 0.13001 0.51731 0.14186 0.0
C553 C 0.15448 0.49909 0.14911 0.0
C554 C 0.15462 0.48363 0.17756 0.0
C555 C 0.13024 0.48557 0.19789 0.0
H556 H 0.83829 0.93016 0.53685 0.0
H557 H 0.80999 0.92316 0.44015 0.0
H558 H 0.8758 0.89226 0.52816 0.0
H559 H 0.84739 0.88496 0.43159 0.0
H560 H 0.94496 0.84882 0.42394 0.0
H561 H 0.90423 0.8838 0.43102 0.0
H562 H 0.87813 0.83719 0.51542 0.0
H563 H 0.91892 0.80248 0.50861 0.0
C564 C 0.83991 0.92038 0.51379 0.0
C565 C 0.8212 0.92973 0.48919 0.0
C566 C 0.8613 0.89854 0.50886 0.0
C567 C 0.86454 0.88565 0.47919 0.0
C568 C 0.84562 0.89473 0.45464 0.0
C569 C 0.82409 0.91647 0.4596 0.0
C570 C 0.9304 0.84591 0.44389 0.0
C571 C 0.93531 0.82298 0.46579 0.0
C572 C 0.90699 0.86585 0.44786 0.0
C573 C 0.88811 0.86333 0.47387 0.0
C574 C 0.89259 0.83997 0.49538 0.0
C575 C 0.91588 0.81998 0.49136 0.0
H576 H 0.95126 0.16699 0.52075 0.0
H577 H 0.89781 0.23066 0.47014 0.0
H578 H 0.91117 0.1263 0.51095 0.0
H579 H 0.85744 0.18982 0.46063 0.0
H580 H 0.81152 0.09786 0.42043 0.0
H581 H 0.84965 0.14067 0.4306 0.0
H582 H 0.85801 0.11256 0.52608 0.0
H583 H 0.82034 0.06974 0.51597 0.0
C584 C 0.93088 0.17237 0.50767 0.0
C585 C 0.92772 0.20209 0.49624 0.0
C586 C 0.90783 0.14906 0.50219 0.0
C587 C 0.88113 0.15489 0.48508 0.0
C588 C 0.8779 0.1846 0.47366 0.0
C589 C 0.90093 0.20801 0.47928 0.0
C590 C 0.82143 0.1009 0.44361 0.0
C591 C 0.81305 0.08027 0.46732 0.0
C592 C 0.84312 0.1255 0.44946 0.0
C593 C 0.85693 0.12985 0.4791 0.0
C594 C 0.84811 0.10954 0.5029 0.0
C595 C 0.82639 0.08508 0.4971 0.0
H596 H 0.08607 0.81556 0.46057 0.0
H597 H 0.07353 0.83586 0.55766 0.0
H598 H 0.13079 0.8521 0.46028 0.0
H599 H 0.11879 0.87184 0.55756 0.0
H600 H 0.17777 0.95959 0.53557 0.0
H601 H 0.13439 0.92157 0.53707 0.0
H602 H 0.18306 0.86025 0.47957 0.0
H603 H 0.22624 0.89867 0.47739 0.0
C604 C 0.093 0.82764 0.48193 0.0
C605 C 0.07615 0.8229 0.50911 0.0
C606 C 0.11878 0.84846 0.48181 0.0
C607 C 0.12839 0.86494 0.50889 0.0
C608 C 0.11175 0.85987 0.53618 0.0
C609 C 0.08589 0.83912 0.53628 0.0
C610 C 0.17929 0.93797 0.52329 0.0
C611 C 0.20545 0.93221 0.50627 0.0
C612 C 0.15446 0.91607 0.52432 0.0
C613 C 0.15522 0.88783 0.50845 0.0
C614 C 0.18154 0.88193 0.4917 0.0
C615 C 0.20637 0.9039 0.49059 0.0
H616 H 0.08857 0.19855 0.56258 0.0
H617 H 0.1058 0.1917 0.46444 0.0
H618 H 0.12803 0.16286 0.57332 0.0
H619 H 0.14465 0.15554 0.47512 0.0
H620 H 0.22882 0.10836 0.50444 0.0
H621 H 0.195 0.15019 0.49814 0.0
H622 H 0.1339 0.10846 0.56573 0.0
H623 H 0.16804 0.06705 0.57258 0.0
C624 C 0.10085 0.18953 0.54331 0.0
C625 C 0.09393 0.19785 0.51263 0.0
C626 C 0.12335 0.16896 0.54946 0.0
C627 C 0.13941 0.15624 0.52508 0.0
C628 C 0.13302 0.16521 0.49449 0.0
C629 C 0.11057 0.1858 0.48834 0.0
C630 C 0.20834 0.10829 0.51822 0.0
C631 C 0.201 0.08424 0.53884 0.0
C632 C 0.18887 0.13218 0.51447 0.0
C633 C 0.16161 0.13254 0.53122 0.0
C634 C 0.15487 0.10907 0.55268 0.0
C635 C 0.17437 0.08521 0.55649 0.0
loop_
_geom_bond_atom_site_label_1
_geom_bond_atom_site_label_2
_geom_bond_distance
_geom_bond_site_symmetry_2
_ccdc_geom_bond_type
C0 O1 1.160 . S
C0 O7 1.185 . S
O1 C0 1.160 . S
O2 Zn3 1.899 . S
O2 C10 1.284 . S
Zn3 O2 1.899 . S
Zn3 O4 2.032 1_455 S
Zn3 O7 2.086 . S
Zn3 O12 1.977 . S
O4 Zn3 2.032 1_655 S
O4 C8 1.278 . S
C5 O6 1.203 1_455 S
C5 O12 1.267 . S
O6 C5 1.203 1_655 S
O7 C0 1.185 . S
O7 Zn3 2.086 . S
C8 O4 1.278 . S
C8 O9 1.211 . S
O9 C8 1.211 . S
C10 O2 1.284 . S
C10 O11 1.273 1_455 S
O11 C10 1.273 1_655 S
O12 Zn3 1.977 . S
O12 C5 1.267 . S
C13 O14 1.160 . S
C13 O20 1.185 . S
O14 C13 1.160 . S
O15 Zn16 1.899 1_565 S
O15 C23 1.284 1_565 S
Zn16 O15 1.899 1_545 S
Zn16 O17 2.032 . S
Zn16 O20 2.086 1_545 S
Zn16 O25 1.977 . S
O17 Zn16 2.032 . S
O17 C21 1.278 . S
C18 O19 1.203 . S
C18 O25 1.267 . S
O19 C18 1.203 . S
O20 C13 1.185 . S
O20 Zn16 2.086 1_565 S
C21 O17 1.278 . S
C21 O22 1.211 . S
O22 C21 1.211 . S
C23 O15 1.284 1_545 S
C23 O24 1.273 . S
O24 C23 1.273 . S
O25 Zn16 1.977 . S
O25 C18 1.267 . S
C26 O27 1.160 . S
C26 O33 1.185 . S
O27 C26 1.160 . S
O28 Zn29 1.899 . S
O28 C36 1.284 . S
Zn29 O28 1.899 . S
Zn29 O30 2.032 . S
Zn29 O33 2.086 1_455 S
Zn29 O38 1.977 . S
O30 Zn29 2.032 . S
O30 C34 1.278 . S
C31 O32 1.203 . S
C31 O38 1.267 . S
O32 C31 1.203 . S
O33 C26 1.185 . S
O33 Zn29 2.086 1_655 S
C34 O30 1.278 . S
C34 O35 1.211 . S
O35 C34 1.211 . S
C36 O28 1.284 . S
C36 O37 1.273 . S
O37 C36 1.273 . S
O38 Zn29 1.977 . S
O38 C31 1.267 . S
C39 O40 1.160 . S
C39 O46 1.185 . S
O40 C39 1.160 . S
O41 Zn42 1.899 . S
O41 C49 1.284 . S
Zn42 O41 1.899 . S
Zn42 O43 2.032 1_545 S
Zn42 O46 2.086 . S
Zn42 O51 1.977 . S
O43 Zn42 2.032 1_565 S
O43 C47 1.278 . S
C44 O45 1.203 1_545 S
C44 O51 1.267 . S
O45 C44 1.203 1_565 S
O46 C39 1.185 . S
O46 Zn42 2.086 . S
C47 O43 1.278 . S
C47 O48 1.211 . S
O48 C47 1.211 . S
C49 O41 1.284 . S
C49 O50 1.273 1_545 S
O50 C49 1.273 1_565 S
O51 Zn42 1.977 . S
O51 C44 1.267 . S
C52 O53 1.160 . S
C52 O59 1.185 1_545 S
O53 C52 1.160 . S
O54 Zn55 1.899 . S
O54 C62 1.284 . S
Zn55 O54 1.899 . S
Zn55 O56 2.032 . S
Zn55 O59 2.086 1_545 S
Zn55 O64 1.977 1_545 S
O56 Zn55 2.032 . S
O56 C60 1.278 . S
C57 O58 1.203 . S
C57 O64 1.267 . S
O58 C57 1.203 . S
O59 C52 1.185 1_565 S
O59 Zn55 2.086 1_565 S
C60 O56 1.278 . S
C60 O61 1.211 1_545 S
O61 C60 1.211 1_565 S
C62 O54 1.284 . S
C62 O63 1.273 . S
O63 C62 1.273 . S
O64 Zn55 1.977 1_565 S
O64 C57 1.267 . S
C65 O66 1.160 . S
C65 O72 1.185 . S
O66 C65 1.160 . S
O67 Zn68 1.899 . S
O67 C75 1.284 . S
Zn68 O67 1.899 . S
Zn68 O69 2.032 . S
Zn68 O72 2.086 . S
Zn68 O77 1.977 . S
O69 Zn68 2.032 . S
O69 C73 1.278 1_455 S
C70 O71 1.203 . S
C70 O77 1.267 . S
O71 C70 1.203 . S
O72 C65 1.185 . S
O72 Zn68 2.086 . S
C73 O69 1.278 1_655 S
C73 O74 1.211 . S
O74 C73 1.211 . S
C75 O67 1.284 . S
C75 O76 1.273 1_455 S
O76 C75 1.273 1_655 S
O77 Zn68 1.977 . S
O77 C70 1.267 . S
C78 O79 1.160 . S
C78 O85 1.185 1_545 S
O79 C78 1.160 . S
O80 Zn81 1.899 . S
O80 C88 1.284 . S
Zn81 O80 1.899 . S
Zn81 O82 2.032 . S
Zn81 O85 2.086 1_545 S
Zn81 O90 1.977 1_545 S
O82 Zn81 2.032 . S
O82 C86 1.286 . S
C83 O84 1.203 . S
C83 O90 1.267 . S
O84 C83 1.203 . S
O85 C78 1.185 1_565 S
O85 Zn81 2.086 1_565 S
C86 O82 1.286 . S
C86 O87 1.198 1_545 S
O87 C86 1.198 1_565 S
C88 O80 1.284 . S
C88 O89 1.273 . S
O89 C88 1.273 . S
O90 Zn81 1.977 1_565 S
O90 C83 1.267 . S
C91 O92 1.160 1_455 S
C91 O98 1.185 . S
O92 C91 1.160 1_655 S
O93 Zn94 1.899 1_655 S
O93 C101 1.284 . S
Zn94 O93 1.899 1_455 S
Zn94 O95 2.032 . S
Zn94 O98 2.086 . S
Zn94 O103 1.977 . S
O95 Zn94 2.032 . S
O95 C99 1.278 . S
C96 O97 1.203 . S
C96 O103 1.267 . S
O97 C96 1.203 . S
O98 C91 1.185 . S
O98 Zn94 2.086 . S
C99 O95 1.278 . S
C99 O100 1.211 . S
O100 C99 1.211 . S
C101 O93 1.284 . S
C101 O102 1.273 . S
O102 C101 1.273 . S
O103 Zn94 1.977 . S
O103 C96 1.267 . S
C104 O105 1.160 . S
C104 O111 1.185 1_554 S
O105 C104 1.160 . S
O106 Zn107 1.899 . S
O106 C114 1.284 . S
Zn107 O106 1.899 . S
Zn107 O108 2.032 . S
Zn107 O111 2.086 1_554 S
Zn107 O116 1.977 1_554 S
O108 Zn107 2.032 . S
O108 C112 1.278 1_554 S
C109 O110 1.203 . S
C109 O116 1.267 . S
O110 C109 1.203 . S
O111 C104 1.185 1_556 S
O111 Zn107 2.086 1_556 S
C112 O108 1.278 1_556 S
C112 O113 1.211 . S
O113 C112 1.211 . S
C114 O106 1.284 . S
C114 O115 1.273 . S
O115 C114 1.273 . S
O116 Zn107 1.977 1_556 S
O116 C109 1.267 . S
C117 O118 1.160 . S
C117 O124 1.185 1_556 S
O118 C117 1.160 . S
O119 Zn120 1.899 1_556 S
O119 C127 1.284 . S
Zn120 O119 1.899 1_554 S
Zn120 O121 2.032 . S
Zn120 O124 2.086 . S
Zn120 O129 1.977 . S
O121 Zn120 2.032 . S
O121 C125 1.278 . S
C122 O123 1.203 . S
C122 O129 1.267 . S
O123 C122 1.203 . S
O124 C117 1.185 1_554 S
O124 Zn120 2.086 . S
C125 O121 1.278 . S
C125 O126 1.211 . S
O126 C125 1.211 . S
C127 O119 1.284 . S
C127 O128 1.273 . S
O128 C127 1.273 . S
O129 Zn120 1.977 . S
O129 C122 1.267 . S
C130 O131 1.160 . S
C130 O137 1.185 1_554 S
O131 C130 1.160 . S
O132 Zn133 1.899 . S
O132 C140 1.284 . S
Zn133 O132 1.899 . S
Zn133 O134 2.032 . S
Zn133 O137 2.086 1_554 S
Zn133 O142 1.977 1_554 S
O134 Zn133 2.032 . S
O134 C138 1.278 . S
C135 O136 1.203 . S
C135 O142 1.267 . S
O136 C135 1.203 . S
O137 C130 1.185 1_556 S
O137 Zn133 2.086 1_556 S
C138 O134 1.278 . S
C138 O139 1.211 1_554 S
O139 C138 1.211 1_556 S
C140 O132 1.284 . S
C140 O141 1.273 . S
O141 C140 1.273 . S
O142 Zn133 1.977 1_556 S
O142 C135 1.267 . S
C143 O144 1.160 . S
C143 O150 1.185 1_556 S
O144 C143 1.160 . S
O145 Zn146 1.899 1_556 S
O145 C153 1.284 . S
Zn146 O145 1.899 1_554 S
Zn146 O147 2.032 . S
Zn146 O150 2.086 . S
Zn146 O155 1.977 . S
O147 Zn146 2.032 . S
O147 C151 1.278 . S
C148 O149 1.203 . S
C148 O155 1.267 . S
O149 C148 1.203 . S
O150 C143 1.185 1_554 S
O150 Zn146 2.086 . S
C151 O147 1.278 . S
C151 O152 1.211 . S
O152 C151 1.211 . S
C153 O145 1.284 . S
C153 O154 1.273 . S
O154 C153 1.273 . S
O155 Zn146 1.977 . S
O155 C148 1.267 . S
H156 C164 0.950 . S
H157 C169 0.950 . S
H158 C166 0.950 . S
H159 C168 0.950 . S
H160 C170 0.950 . S
H161 C172 0.950 . S
H162 C174 0.950 . S
H163 C175 0.950 . S
C164 H156 0.950 . S
C164 C165 1.386 1_655 S
C164 C166 1.391 . S
C165 C164 1.386 1_455 S
C165 C169 1.393 . S
C166 H158 0.950 . S
C166 C164 1.391 . S
C166 C167 1.400 1_655 S
C167 C166 1.400 1_455 S
C167 C168 1.398 . S
C167 C173 1.491 . S
C168 H159 0.950 . S
C168 C167 1.398 . S
C168 C169 1.391 . S
C169 H157 0.950 . S
C169 C165 1.393 . S
C169 C168 1.391 . S
C170 H160 0.950 . S
C170 C171 1.386 . S
C170 C172 1.391 . S
C171 C170 1.386 . S
C171 C175 1.393 1_455 S
C172 H161 0.950 . S
C172 C170 1.391 . S
C172 C173 1.400 . S
C173 C167 1.491 . S
C173 C172 1.400 . S
C173 C174 1.398 1_455 S
C174 H162 0.950 . S
C174 C173 1.398 1_655 S
C174 C175 1.391 . S
C175 H163 0.950 . S
C175 C171 1.393 1_655 S
C175 C174 1.391 . S
H176 C184 0.948 . S
H177 C189 0.950 . S
H178 C186 0.950 1_565 S
H179 C188 0.950 . S
H180 C190 0.950 . S
H181 C192 0.950 . S
H182 C194 0.951 . S
H183 C195 0.950 1_565 S
C184 H176 0.948 . S
C184 C185 1.386 . S
C184 C186 1.391 . S
C185 C184 1.386 . S
C185 C189 1.393 . S
C186 H178 0.950 1_545 S
C186 C184 1.391 . S
C186 C187 1.400 . S
C187 C186 1.400 . S
C187 C188 1.398 . S
C187 C193 1.491 . S
C188 H179 0.950 . S
C188 C187 1.398 . S
C188 C189 1.391 . S
C189 H177 0.950 . S
C189 C185 1.393 . S
C189 C188 1.391 . S
C190 H180 0.950 . S
C190 C191 1.386 . S
C190 C192 1.391 . S
C191 C190 1.386 . S
C191 C195 1.393 . S
C192 H181 0.950 . S
C192 C190 1.391 . S
C192 C193 1.400 . S
C193 C187 1.491 . S
C193 C192 1.400 . S
C193 C194 1.398 . S
C194 H182 0.951 . S
C194 C193 1.398 . S
C194 C195 1.391 . S
C195 H183 0.950 1_545 S
C195 C191 1.393 . S
C195 C194 1.391 . S
H196 C204 0.950 1_655 S
H197 C209 0.950 . S
H198 C206 0.950 1_655 S
H199 C208 0.950 . S
H200 C210 0.950 . S
H201 C212 0.950 . S
H202 C214 0.950 1_655 S
H203 C215 0.960 . S
C204 H196 0.950 1_455 S
C204 C205 1.386 . S
C204 C206 1.391 . S
C205 C204 1.386 . S
C205 C209 1.393 . S
C206 H198 0.950 1_455 S
C206 C204 1.391 . S
C206 C207 1.400 . S
C207 C206 1.400 . S
C207 C208 1.398 . S
C207 C213 1.491 . S
C208 H199 0.950 . S
C208 C207 1.398 . S
C208 C209 1.391 . S
C209 H197 0.950 . S
C209 C205 1.393 . S
C209 C208 1.391 . S
C210 H200 0.950 . S
C210 C211 1.386 . S
C210 C212 1.391 . S
C211 C210 1.386 . S
C211 C215 1.384 1_455 S
C212 H201 0.950 . S
C212 C210 1.391 . S
C212 C213 1.400 . S
C213 C207 1.491 . S
C213 C212 1.400 . S
C213 C214 1.398 . S
C214 H202 0.950 1_455 S
C214 C213 1.398 . S
C214 C215 1.389 1_455 S
C215 H203 0.960 . S
C215 C211 1.384 1_655 S
C215 C214 1.389 1_655 S
H216 C224 0.950 . S
H217 C229 0.950 . S
H218 C226 0.950 . S
H219 C228 0.950 . S
H220 C230 0.950 . S
H221 C232 0.950 . S
H222 C234 0.950 . S
H223 C235 0.950 . S
C224 H216 0.950 . S
C224 C225 1.386 . S
C224 C226 1.391 . S
C225 C224 1.386 . S
C225 C229 1.393 1_545 S
C226 H218 0.950 . S
C226 C224 1.391 . S
C226 C227 1.400 . S
C227 C226 1.400 . S
C227 C228 1.398 1_545 S
C227 C233 1.491 . S
C228 H219 0.950 . S
C228 C227 1.398 1_565 S
C228 C229 1.391 . S
C229 H217 0.950 . S
C229 C225 1.393 1_565 S
C229 C228 1.391 . S
C230 H220 0.950 . S
C230 C231 1.386 1_565 S
C230 C232 1.391 . S
C231 C230 1.386 1_545 S
C231 C235 1.393 . S
C232 H221 0.950 . S
C232 C230 1.391 . S
C232 C233 1.400 1_565 S
C233 C227 1.491 . S
C233 C232 1.400 1_545 S
C233 C234 1.398 . S
C234 H222 0.950 . S
C234 C233 1.398 . S
C234 C235 1.391 . S
C235 H223 0.950 . S
C235 C231 1.393 . S
C235 C234 1.391 . S
H236 C244 0.950 . S
H237 C249 0.950 . S
H238 C246 0.950 . S
H239 C248 0.950 . S
H240 C250 0.950 . S
H241 C252 0.950 . S
H242 C254 0.950 . S
H243 C255 0.950 . S
C244 H236 0.950 . S
C244 C245 1.386 . S
C244 C246 1.391 . S
C245 C244 1.386 . S
C245 C249 1.393 . S
C246 H238 0.950 . S
C246 C244 1.391 . S
C246 C247 1.400 . S
C247 C246 1.400 . S
C247 C248 1.398 . S
C247 C253 1.491 . S
C248 H239 0.950 . S
C248 C247 1.398 . S
C248 C249 1.391 . S
C249 H237 0.950 . S
C249 C245 1.393 . S
C249 C248 1.391 . S
C250 H240 0.950 . S
C250 C251 1.386 . S
C250 C252 1.391 . S
C251 C250 1.386 . S
C251 C255 1.393 . S
C252 H241 0.950 . S
C252 C250 1.391 . S
C252 C253 1.400 . S
C253 C247 1.491 . S
C253 C252 1.400 . S
C253 C254 1.398 . S
C254 H242 0.950 . S
C254 C253 1.398 . S
C254 C255 1.391 . S
C255 H243 0.950 . S
C255 C251 1.393 . S
C255 C254 1.391 . S
H256 C264 0.950 . S
H257 C269 0.950 . S
H258 C266 0.950 . S
H259 C268 0.950 . S
H260 C270 0.950 . S
H261 C272 0.950 . S
H262 C274 0.950 . S
H263 C275 0.950 . S
C264 H256 0.950 . S
C264 C265 1.386 . S
C264 C266 1.391 . S
C265 C264 1.386 . S
C265 C269 1.393 1_545 S
C266 H258 0.950 . S
C266 C264 1.391 . S
C266 C267 1.400 . S
C267 C266 1.400 . S
C267 C268 1.398 1_545 S
C267 C273 1.491 . S
C268 H259 0.950 . S
C268 C267 1.398 1_565 S
C268 C269 1.391 . S
C269 H257 0.950 . S
C269 C265 1.393 1_565 S
C269 C268 1.391 . S
C270 H260 0.950 . S
C270 C271 1.386 1_565 S
C270 C272 1.391 . S
C271 C270 1.386 1_545 S
C271 C275 1.393 . S
C272 H261 0.950 . S
C272 C270 1.391 . S
C272 C273 1.400 1_565 S
C273 C267 1.491 . S
C273 C272 1.400 1_545 S
C273 C274 1.398 . S
C274 H262 0.950 . S
C274 C273 1.398 . S
C274 C275 1.391 . S
C275 H263 0.950 . S
C275 C271 1.393 . S
C275 C274 1.391 . S
H276 C284 0.950 . S
H277 C289 0.950 . S
H278 C286 0.950 . S
H279 C288 0.950 . S
H280 C290 0.950 . S
H281 C292 0.950 . S
H282 C294 0.950 . S
H283 C295 0.950 . S
C284 H276 0.950 . S
C284 C285 1.386 . S
C284 C286 1.391 . S
C285 C284 1.386 . S
C285 C289 1.393 1_455 S
C286 H278 0.950 . S
C286 C284 1.391 . S
C286 C287 1.400 . S
C287 C286 1.400 . S
C287 C288 1.398 1_455 S
C287 C293 1.491 . S
C288 H279 0.950 . S
C288 C287 1.398 1_655 S
C288 C289 1.391 . S
C289 H277 0.950 . S
C289 C285 1.393 1_655 S
C289 C288 1.391 . S
C290 H280 0.950 . S
C290 C291 1.386 1_655 S
C290 C292 1.391 . S
C291 C290 1.386 1_455 S
C291 C295 1.393 . S
C292 H281 0.950 . S
C292 C290 1.391 . S
C292 C293 1.400 1_655 S
C293 C287 1.491 . S
C293 C292 1.400 1_455 S
C293 C294 1.398 . S
C294 H282 0.950 . S
C294 C293 1.398 . S
C294 C295 1.391 . S
C295 H283 0.950 . S
C295 C291 1.393 . S
C295 C294 1.391 . S
H296 C304 0.950 . S
H297 C309 0.950 . S
H298 C306 0.950 . S
H299 C308 0.950 . S
H300 C310 0.950 . S
H301 C312 0.950 . S
H302 C314 0.950 . S
H303 C315 0.950 . S
C304 H296 0.950 . S
C304 C305 1.386 1_565 S
C304 C306 1.391 . S
C305 C304 1.386 1_545 S
C305 C309 1.393 . S
C306 H298 0.950 . S
C306 C304 1.391 . S
C306 C307 1.400 1_565 S
C307 C306 1.400 1_545 S
C307 C308 1.398 . S
C307 C313 1.491 . S
C308 H299 0.950 . S
C308 C307 1.398 . S
C308 C309 1.391 . S
C309 H297 0.950 . S
C309 C305 1.393 . S
C309 C308 1.391 . S
C310 H300 0.950 . S
C310 C311 1.386 . S
C310 C312 1.391 . S
C311 C310 1.386 . S
C311 C315 1.393 1_545 S
C312 H301 0.950 . S
C312 C310 1.391 . S
C312 C313 1.400 . S
C313 C307 1.491 . S
C313 C312 1.400 . S
C313 C314 1.398 1_545 S
C314 H302 0.950 . S
C314 C313 1.398 1_565 S
C314 C315 1.391 . S
C315 H303 0.950 . S
C315 C311 1.393 1_565 S
C315 C314 1.391 . S
H316 C324 0.950 . S
H317 C329 0.950 . S
H318 C326 0.950 . S
H319 C328 0.950 . S
H320 C330 0.945 1_556 S
H321 C332 0.952 . S
H322 C334 0.950 . S
H323 C335 0.950 . S
C324 H316 0.950 . S
C324 C325 1.391 . S
C324 C326 1.391 . S
C325 C324 1.391 . S
C325 C329 1.389 1_554 S
C326 H318 0.950 . S
C326 C324 1.391 . S
C326 C327 1.400 . S
C327 C326 1.400 . S
C327 C328 1.398 1_554 S
C327 C333 1.491 . S
C328 H319 0.950 . S
C328 C327 1.398 1_556 S
C328 C329 1.391 . S
C329 H317 0.950 . S
C329 C325 1.389 1_556 S
C329 C328 1.391 . S
C330 H320 0.945 1_554 S
C330 C331 1.393 . S
C330 C332 1.390 1_554 S
C331 C330 1.393 . S
C331 C335 1.393 . S
C332 H321 0.952 . S
C332 C330 1.390 1_556 S
C332 C333 1.399 1_556 S
C333 C327 1.491 . S
C333 C332 1.399 1_554 S
C333 C334 1.398 . S
C334 H322 0.950 . S
C334 C333 1.398 . S
C334 C335 1.391 . S
C335 H323 0.950 . S
C335 C331 1.393 . S
C335 C334 1.391 . S
H336 C344 0.950 . S
H337 C349 0.950 . S
H338 C346 0.950 . S
H339 C348 0.950 . S
H340 C350 0.950 . S
H341 C352 0.950 . S
H342 C354 0.950 . S
H343 C355 0.950 . S
C344 H336 0.950 . S
C344 C345 1.386 . S
C344 C346 1.391 . S
C345 C344 1.386 . S
C345 C349 1.393 1_554 S
C346 H338 0.950 . S
C346 C344 1.391 . S
C346 C347 1.400 . S
C347 C346 1.400 . S
C347 C348 1.398 1_554 S
C347 C353 1.491 . S
C348 H339 0.950 . S
C348 C347 1.398 1_556 S
C348 C349 1.391 . S
C349 H337 0.950 . S
C349 C345 1.393 1_556 S
C349 C348 1.391 . S
C350 H340 0.950 . S
C350 C351 1.386 1_556 S
C350 C352 1.391 . S
C351 C350 1.386 1_554 S
C351 C355 1.393 . S
C352 H341 0.950 . S
C352 C350 1.391 . S
C352 C353 1.400 1_556 S
C353 C347 1.491 . S
C353 C352 1.400 1_554 S
C353 C354 1.398 . S
C354 H342 0.950 . S
C354 C353 1.398 . S
C354 C355 1.391 . S
C355 H343 0.950 . S
C355 C351 1.393 . S
C355 C354 1.391 . S
H356 C364 0.950 . S
H357 C369 0.950 . S
H358 C366 0.950 . S
H359 C368 0.950 . S
H360 C370 0.950 . S
H361 C372 0.950 . S
H362 C374 0.950 . S
H363 C375 0.950 . S
C364 H356 0.950 . S
C364 C365 1.386 . S
C364 C366 1.391 . S
C365 C364 1.386 . S
C365 C369 1.393 1_554 S
C366 H358 0.950 . S
C366 C364 1.391 . S
C366 C367 1.400 . S
C367 C366 1.400 . S
C367 C368 1.398 1_554 S
C367 C373 1.491 . S
C368 H359 0.950 . S
C368 C367 1.398 1_556 S
C368 C369 1.391 . S
C369 H357 0.950 . S
C369 C365 1.393 1_556 S
C369 C368 1.391 . S
C370 H360 0.950 . S
C370 C371 1.386 1_556 S
C370 C372 1.391 . S
C371 C370 1.386 1_554 S
C371 C375 1.393 . S
C372 H361 0.950 . S
C372 C370 1.391 . S
C372 C373 1.400 1_556 S
C373 C367 1.491 . S
C373 C372 1.400 1_554 S
C373 C374 1.398 . S
C374 H362 0.950 . S
C374 C373 1.398 . S
C374 C375 1.391 . S
C375 H363 0.950 . S
C375 C371 1.393 . S
C375 C374 1.391 . S
H376 C384 0.950 . S
H377 C389 0.950 . S
H378 C386 0.950 . S
H379 C388 0.950 . S
H380 C390 0.950 . S
H381 C392 0.950 . S
H382 C394 0.950 . S
H383 C395 0.950 . S
C384 H376 0.950 . S
C384 C385 1.386 1_556 S
C384 C386 1.391 . S
C385 C384 1.386 1_554 S
C385 C389 1.393 . S
C386 H378 0.950 . S
C386 C384 1.391 . S
C386 C387 1.400 1_556 S
C387 C386 1.400 1_554 S
C387 C388 1.398 . S
C387 C393 1.491 . S
C388 H379 0.950 . S
C388 C387 1.398 . S
C388 C389 1.391 . S
C389 H377 0.950 . S
C389 C385 1.393 . S
C389 C388 1.391 . S
C390 H380 0.950 . S
C390 C391 1.386 . S
C390 C392 1.391 . S
C391 C390 1.386 . S
C391 C395 1.393 1_554 S
C392 H381 0.950 . S
C392 C390 1.391 . S
C392 C393 1.400 . S
C393 C387 1.491 . S
C393 C392 1.400 . S
C393 C394 1.398 1_554 S
C394 H382 0.950 . S
C394 C393 1.398 1_556 S
C394 C395 1.391 . S
C395 H383 0.950 . S
C395 C391 1.393 1_556 S
C395 C394 1.391 . S
H396 C404 0.950 . S
H397 C409 0.950 . S
H398 C406 0.950 . S
H399 C408 0.950 . S
H400 C410 0.950 . S
H401 C412 0.950 . S
H402 C414 0.950 . S
H403 C415 0.950 . S
C404 H396 0.950 . S
C404 C405 1.386 . S
C404 C406 1.391 . S
C405 C404 1.386 . S
C405 C409 1.393 . S
C406 H398 0.950 . S
C406 C404 1.391 . S
C406 C407 1.400 . S
C407 C406 1.400 . S
C407 C408 1.398 . S
C407 C413 1.491 . S
C408 H399 0.950 . S
C408 C407 1.398 . S
C408 C409 1.391 . S
C409 H397 0.950 . S
C409 C405 1.393 . S
C409 C408 1.391 . S
C410 H400 0.950 . S
C410 C411 1.386 . S
C410 C412 1.391 . S
C411 C410 1.386 . S
C411 C415 1.393 . S
C412 H401 0.950 . S
C412 C410 1.391 . S
C412 C413 1.400 . S
C413 C407 1.491 . S
C413 C412 1.400 . S
C413 C414 1.398 . S
C414 H402 0.950 . S
C414 C413 1.398 . S
C414 C415 1.391 . S
C415 H403 0.950 . S
C415 C411 1.393 . S
C415 C414 1.391 . S
H416 C424 0.950 . S
H417 C429 0.950 . S
H418 C426 0.950 . S
H419 C428 0.950 . S
H420 C430 0.950 . S
H421 C432 0.950 . S
H422 C434 0.950 . S
H423 C435 0.950 . S
C424 H416 0.950 . S
C424 C425 1.386 . S
C424 C426 1.391 . S
C425 C424 1.386 . S
C425 C429 1.393 . S
C426 H418 0.950 . S
C426 C424 1.391 . S
C426 C427 1.400 . S
C427 C426 1.400 . S
C427 C428 1.398 . S
C427 C433 1.491 . S
C428 H419 0.950 . S
C428 C427 1.398 . S
C428 C429 1.391 . S
C429 H417 0.950 . S
C429 C425 1.393 . S
C429 C428 1.391 . S
C430 H420 0.950 . S
C430 C431 1.386 . S
C430 C432 1.391 . S
C431 C430 1.386 . S
C431 C435 1.393 . S
C432 H421 0.950 . S
C432 C430 1.391 . S
C432 C433 1.400 . S
C433 C427 1.491 . S
C433 C432 1.400 . S
C433 C434 1.398 . S
C434 H422 0.950 . S
C434 C433 1.398 . S
C434 C435 1.391 . S
C435 H423 0.950 . S
C435 C431 1.393 . S
C435 C434 1.391 . S
H436 C444 0.950 . S
H437 C449 0.950 . S
H438 C446 0.950 . S
H439 C448 0.950 . S
H440 C450 0.950 . S
H441 C452 0.950 . S
H442 C454 0.950 . S
H443 C455 0.950 . S
C444 H436 0.950 . S
C444 C445 1.386 . S
C444 C446 1.391 . S
C445 C444 1.386 . S
C445 C449 1.393 . S
C446 H438 0.950 . S
C446 C444 1.391 . S
C446 C447 1.400 . S
C447 C446 1.400 . S
C447 C448 1.398 . S
C447 C453 1.491 . S
C448 H439 0.950 . S
C448 C447 1.398 . S
C448 C449 1.391 . S
C449 H437 0.950 . S
C449 C445 1.393 . S
C449 C448 1.391 . S
C450 H440 0.950 . S
C450 C451 1.386 . S
C450 C452 1.391 . S
C451 C450 1.386 . S
C451 C455 1.393 . S
C452 H441 0.950 . S
C452 C450 1.391 . S
C452 C453 1.400 . S
C453 C447 1.491 . S
C453 C452 1.400 . S
C453 C454 1.398 . S
C454 H442 0.950 . S
C454 C453 1.398 . S
C454 C455 1.391 . S
C455 H443 0.950 . S
C455 C451 1.393 . S
C455 C454 1.391 . S
H456 C464 0.950 . S
H457 C469 0.950 . S
H458 C466 0.950 . S
H459 C468 0.950 . S
H460 C470 0.950 . S
H461 C472 0.950 . S
H462 C474 0.950 . S
H463 C475 0.950 . S
C464 H456 0.950 . S
C464 C465 1.386 . S
C464 C466 1.391 . S
C465 C464 1.386 . S
C465 C469 1.393 . S
C466 H458 0.950 . S
C466 C464 1.391 . S
C466 C467 1.400 . S
C467 C466 1.400 . S
C467 C468 1.398 . S
C467 C473 1.491 . S
C468 H459 0.950 . S
C468 C467 1.398 . S
C468 C469 1.391 . S
C469 H457 0.950 . S
C469 C465 1.393 . S
C469 C468 1.391 . S
C470 H460 0.950 . S
C470 C471 1.386 . S
C470 C472 1.391 . S
C471 C470 1.386 . S
C471 C475 1.393 . S
C472 H461 0.950 . S
C472 C470 1.391 . S
C472 C473 1.400 . S
C473 C467 1.491 . S
C473 C472 1.400 . S
C473 C474 1.398 . S
C474 H462 0.950 . S
C474 C473 1.398 . S
C474 C475 1.391 . S
C475 H463 0.950 . S
C475 C471 1.393 . S
C475 C474 1.391 . S
H476 C484 0.950 . S
H477 C489 0.950 . S
H478 C486 0.950 . S
H479 C488 0.950 . S
H480 C490 0.950 . S
H481 C492 0.950 . S
H482 C494 0.950 . S
H483 C495 0.950 . S
C484 H476 0.950 . S
C484 C485 1.386 . S
C484 C486 1.391 . S
C485 C484 1.386 . S
C485 C489 1.393 . S
C486 H478 0.950 . S
C486 C484 1.391 . S
C486 C487 1.400 . S
C487 C486 1.400 . S
C487 C488 1.398 . S
C487 C493 1.491 . S
C488 H479 0.950 . S
C488 C487 1.398 . S
C488 C489 1.391 . S
C489 H477 0.950 . S
C489 C485 1.393 . S
C489 C488 1.391 . S
C490 H480 0.950 . S
C490 C491 1.386 . S
C490 C492 1.391 . S
C491 C490 1.386 . S
C491 C495 1.393 . S
C492 H481 0.950 . S
C492 C490 1.391 . S
C492 C493 1.400 . S
C493 C487 1.491 . S
C493 C492 1.400 . S
C493 C494 1.398 . S
C494 H482 0.950 . S
C494 C493 1.398 . S
C494 C495 1.391 . S
C495 H483 0.950 . S
C495 C491 1.393 . S
C495 C494 1.391 . S
H496 C504 0.950 . S
H497 C509 0.950 . S
H498 C506 0.950 . S
H499 C508 0.950 . S
H500 C510 0.950 . S
H501 C512 0.950 . S
H502 C514 0.950 . S
H503 C515 0.950 . S
C504 H496 0.950 . S
C504 C505 1.386 . S
C504 C506 1.391 . S
C505 C504 1.386 . S
C505 C509 1.393 . S
C506 H498 0.950 . S
C506 C504 1.391 . S
C506 C507 1.400 . S
C507 C506 1.400 . S
C507 C508 1.398 . S
C507 C513 1.491 . S
C508 H499 0.950 . S
C508 C507 1.398 . S
C508 C509 1.391 . S
C509 H497 0.950 . S
C509 C505 1.393 . S
C509 C508 1.391 . S
C510 H500 0.950 . S
C510 C511 1.386 . S
C510 C512 1.391 . S
C511 C510 1.386 . S
C511 C515 1.393 . S
C512 H501 0.950 . S
C512 C510 1.391 . S
C512 C513 1.400 . S
C513 C507 1.491 . S
C513 C512 1.400 . S
C513 C514 1.398 . S
C514 H502 0.950 . S
C514 C513 1.398 . S
C514 C515 1.391 . S
C515 H503 0.950 . S
C515 C511 1.393 . S
C515 C514 1.391 . S
H516 C524 0.950 . S
H517 C529 0.950 . S
H518 C526 0.950 . S
H519 C528 0.950 . S
H520 C530 0.950 . S
H521 C532 0.950 . S
H522 C534 0.950 . S
H523 C535 0.950 . S
C524 H516 0.950 . S
C524 C525 1.386 . S
C524 C526 1.391 . S
C525 C524 1.386 . S
C525 C529 1.393 . S
C526 H518 0.950 . S
C526 C524 1.391 . S
C526 C527 1.400 . S
C527 C526 1.400 . S
C527 C528 1.398 . S
C527 C533 1.491 . S
C528 H519 0.950 . S
C528 C527 1.398 . S
C528 C529 1.391 . S
C529 H517 0.950 . S
C529 C525 1.393 . S
C529 C528 1.391 . S
C530 H520 0.950 . S
C530 C531 1.386 . S
C530 C532 1.391 . S
C531 C530 1.386 . S
C531 C535 1.393 . S
C532 H521 0.950 . S
C532 C530 1.391 . S
C532 C533 1.400 . S
C533 C527 1.491 . S
C533 C532 1.400 . S
C533 C534 1.398 . S
C534 H522 0.950 . S
C534 C533 1.398 . S
C534 C535 1.391 . S
C535 H523 0.950 . S
C535 C531 1.393 . S
C535 C534 1.391 . S
H536 C544 0.950 . S
H537 C549 0.950 . S
H538 C546 0.950 . S
H539 C548 0.950 . S
H540 C550 0.950 . S
H541 C552 0.950 . S
H542 C554 0.950 . S
H543 C555 0.950 . S
C544 H536 0.950 . S
C544 C545 1.386 . S
C544 C546 1.391 . S
C545 C544 1.386 . S
C545 C549 1.393 . S
C546 H538 0.950 . S
C546 C544 1.391 . S
C546 C547 1.400 . S
C547 C546 1.400 . S
C547 C548 1.398 . S
C547 C553 1.491 . S
C548 H539 0.950 . S
C548 C547 1.398 . S
C548 C549 1.391 . S
C549 H537 0.950 . S
C549 C545 1.393 . S
C549 C548 1.391 . S
C550 H540 0.950 . S
C550 C551 1.386 . S
C550 C552 1.391 . S
C551 C550 1.386 . S
C551 C555 1.393 . S
C552 H541 0.950 . S
C552 C550 1.391 . S
C552 C553 1.400 . S
C553 C547 1.491 . S
C553 C552 1.400 . S
C553 C554 1.398 . S
C554 H542 0.950 . S
C554 C553 1.398 . S
C554 C555 1.391 . S
C555 H543 0.950 . S
C555 C551 1.393 . S
C555 C554 1.391 . S
H556 C564 0.950 . S
H557 C569 0.950 . S
H558 C566 0.950 . S
H559 C568 0.950 . S
H560 C570 0.950 . S
H561 C572 0.950 . S
H562 C574 0.950 . S
H563 C575 0.950 . S
C564 H556 0.950 . S
C564 C565 1.386 . S
C564 C566 1.391 . S
C565 C564 1.386 . S
C565 C569 1.393 . S
C566 H558 0.950 . S
C566 C564 1.391 . S
C566 C567 1.400 . S
C567 C566 1.400 . S
C567 C568 1.398 . S
C567 C573 1.491 . S
C568 H559 0.950 . S
C568 C567 1.398 . S
C568 C569 1.391 . S
C569 H557 0.950 . S
C569 C565 1.393 . S
C569 C568 1.391 . S
C570 H560 0.950 . S
C570 C571 1.386 . S
C570 C572 1.391 . S
C571 C570 1.386 . S
C571 C575 1.393 . S
C572 H561 0.950 . S
C572 C570 1.391 . S
C572 C573 1.400 . S
C573 C567 1.491 . S
C573 C572 1.400 . S
C573 C574 1.398 . S
C574 H562 0.950 . S
C574 C573 1.398 . S
C574 C575 1.391 . S
C575 H563 0.950 . S
C575 C571 1.393 . S
C575 C574 1.391 . S
H576 C584 0.950 . S
H577 C589 0.950 . S
H578 C586 0.950 . S
H579 C588 0.950 . S
H580 C590 0.950 . S
H581 C592 0.950 . S
H582 C594 0.950 . S
H583 C595 0.950 . S
C584 H576 0.950 . S
C584 C585 1.386 . S
C584 C586 1.391 . S
C585 C584 1.386 . S
C585 C589 1.393 . S
C586 H578 0.950 . S
C586 C584 1.391 . S
C586 C587 1.400 . S
C587 C586 1.400 . S
C587 C588 1.398 . S
C587 C593 1.491 . S
C588 H579 0.950 . S
C588 C587 1.398 . S
C588 C589 1.391 . S
C589 H577 0.950 . S
C589 C585 1.393 . S
C589 C588 1.391 . S
C590 H580 0.950 . S
C590 C591 1.386 . S
C590 C592 1.391 . S
C591 C590 1.386 . S
C591 C595 1.393 . S
C592 H581 0.950 . S
C592 C590 1.391 . S
C592 C593 1.400 . S
C593 C587 1.491 . S
C593 C592 1.400 . S
C593 C594 1.398 . S
C594 H582 0.950 . S
C594 C593 1.398 . S
C594 C595 1.391 . S
C595 H583 0.950 . S
C595 C591 1.393 . S
C595 C594 1.391 . S
H596 C604 0.950 . S
H597 C609 0.950 . S
H598 C606 0.950 . S
H599 C608 0.950 . S
H600 C610 0.950 . S
H601 C612 0.950 . S
H602 C614 0.950 . S
H603 C615 0.950 . S
C604 H596 0.950 . S
C604 C605 1.386 . S
C604 C606 1.391 . S
C605 C604 1.386 . S
C605 C609 1.393 . S
C606 H598 0.950 . S
C606 C604 1.391 . S
C606 C607 1.400 . S
C607 C606 1.400 . S
C607 C608 1.398 . S
C607 C613 1.491 . S
C608 H599 0.950 . S
C608 C607 1.398 . S
C608 C609 1.391 . S
C609 H597 0.950 . S
C609 C605 1.393 . S
C609 C608 1.391 . S
C610 H600 0.950 . S
C610 C611 1.386 . S
C610 C612 1.391 . S
C611 C610 1.386 . S
C611 C615 1.393 . S
C612 H601 0.950 . S
C612 C610 1.391 . S
C612 C613 1.400 . S
C613 C607 1.491 . S
C613 C612 1.400 . S
C613 C614 1.398 . S
C614 H602 0.950 . S
C614 C613 1.398 . S
C614 C615 1.391 . S
C615 H603 0.950 . S
C615 C611 1.393 . S
C615 C614 1.391 . S
H616 C624 0.950 . S
H617 C629 0.950 . S
H618 C626 0.950 . S
H619 C628 0.950 . S
H620 C630 0.950 . S
H621 C632 0.950 . S
H622 C634 0.950 . S
H623 C635 0.950 . S
C624 H616 0.950 . S
C624 C625 1.386 . S
C624 C626 1.391 . S
C625 C624 1.386 . S
C625 C629 1.393 . S
C626 H618 0.950 . S
C626 C624 1.391 . S
C626 C627 1.400 . S
C627 C626 1.400 . S
C627 C628 1.398 . S
C627 C633 1.491 . S
C628 H619 0.950 . S
C628 C627 1.398 . S
C628 C629 1.391 . S
C629 H617 0.950 . S
C629 C625 1.393 . S
C629 C628 1.391 . S
C630 H620 0.950 . S
C630 C631 1.386 . S
C630 C632 1.391 . S
C631 C630 1.386 . S
C631 C635 1.393 . S
C632 H621 0.950 . S
C632 C630 1.391 . S
C632 C633 1.400 . S
C633 C627 1.491 . S
C633 C632 1.400 . S
C633 C634 1.398 . S
C634 H622 0.950 . S
C634 C633 1.398 . S
C634 C635 1.391 . S
C635 H623 0.950 . S
C635 C631 1.393 . S
C635 C634 1.391 . S
C165 C10 1.432 . S
C171 C70 1.417 . S
C185 C18 1.193 . S
C191 C60 1.220 . S
C205 C75 1.371 . S
C211 C36 1.374 . S
C225 C44 1.269 . S
C231 C52 1.294 . S
C245 C91 1.256 . S
C251 C31 1.234 . S
C265 C86 1.396 . S
C271 C49 1.375 . S
C285 C5 1.203 . S
C291 C99 1.229 . S
C305 C78 1.397 . S
C311 C23 1.395 . S
C325 C117 1.363 1_554 S
C331 C104 1.364 . S
C345 C112 1.259 1_554 S
C351 C151 1.255 . S
C365 C125 1.308 . S
C371 C138 1.313 . S
C385 C130 1.408 . S
C391 C143 1.403 1_554 S
C405 C153 1.375 . S
C411 C83 1.356 . S
C425 C109 1.204 . S
C431 C96 1.194 . S
C445 C88 1.403 . S
C451 C127 1.405 . S
C465 C101 1.347 . S
C471 C135 1.314 . S
C485 C62 1.304 . S
C491 C122 1.279 . S
C505 C73 1.421 . S
C511 C140 1.411 . S
C525 C148 1.203 . S
C531 C57 1.219 . S
C545 C114 1.340 . S
C551 C65 1.354 . S
C565 C13 1.346 . S
C571 C26 1.355 . S
C585 C8 1.240 . S
C591 C21 1.247 . S
C605 C34 1.284 . S
C611 C47 1.277 . S
C625 C0 1.390 . S
C631 C39 1.390 . S
