# Generated by pormake.
# Topology unm, (4)-cn, num edge types: 1
# Building blocks:
#     Node 0, Type 0, BuildingBlock: KUFVIS_clean_sbu_0, # of connection points: 4
#     Node 1, Type 0, BuildingBlock: KUFVIS_clean_sbu_0, # of connection points: 4
#     Node 2, Type 0, BuildingBlock: KUFVIS_clean_sbu_0, # of connection points: 4
#     Node 3, Type 0, BuildingBlock: KUFVIS_clean_sbu_0, # of connection points: 4
#     Node 4, Type 0, BuildingBlock: KUFVIS_clean_sbu_0, # of connection points: 4
#     Node 5, Type 0, BuildingBlock: KUFVIS_clean_sbu_0, # of connection points: 4
#     Node 6, Type 0, BuildingBlock: KUFVIS_clean_sbu_0, # of connection points: 4
#     Node 7, Type 0, BuildingBlock: KUFVIS_clean_sbu_0, # of connection points: 4
#     Edge 8, Type (0, 0), BuildingBlock: CIFDUS_clean_linker_0, # of connection points: 2
#     Edge 9, Type (0, 0), BuildingBlock: CIFDUS_clean_linker_0, # of connection points: 2
#     Edge 10, Type (0, 0), BuildingBlock: CIFDUS_clean_linker_0, # of connection points: 2
#     Edge 11, Type (0, 0), BuildingBlock: CIFDUS_clean_linker_0, # of connection points: 2
#     Edge 12, Type (0, 0), BuildingBlock: CIFDUS_clean_linker_0, # of connection points: 2
#     Edge 13, Type (0, 0), BuildingBlock: CIFDUS_clean_linker_0, # of connection points: 2
#     Edge 14, Type (0, 0), BuildingBlock: CIFDUS_clean_linker_0, # of connection points: 2
#     Edge 15, Type (0, 0), BuildingBlock: CIFDUS_clean_linker_0, # of connection points: 2
#     Edge 16, Type (0, 0), BuildingBlock: CIFDUS_clean_linker_0, # of connection points: 2
#     Edge 17, Type (0, 0), BuildingBlock: CIFDUS_clean_linker_0, # of connection points: 2
#     Edge 18, Type (0, 0), BuildingBlock: CIFDUS_clean_linker_0, # of connection points: 2
#     Edge 19, Type (0, 0), BuildingBlock: CIFDUS_clean_linker_0, # of connection points: 2
#     Edge 20, Type (0, 0), BuildingBlock: CIFDUS_clean_linker_0, # of connection points: 2
#     Edge 21, Type (0, 0), BuildingBlock: CIFDUS_clean_linker_0, # of connection points: 2
#     Edge 22, Type (0, 0), BuildingBlock: CIFDUS_clean_linker_0, # of connection points: 2
#     Edge 23, Type (0, 0), BuildingBlock: CIFDUS_clean_linker_0, # of connection points: 2
# Relax obj value: 0.136
# Max RMSD: 0.132
# Mean RMSD: 0.132
data_MOF--net-unm--node1-KUFVIS_clean_sbu_0--edge1-CIFDUS_clean_linker_0
_symmetry_space_group_name_H-M    P1
_symmetry_Int_Tables_number       1
_symmetry_cell_setting            triclinic
loop_
_symmetry_equiv_pos_as_xyz
'x, y, z'
_cell_length_a     22.14796
_cell_length_b     22.149949
_cell_length_c     38.587613
_cell_angle_alpha  89.956161
_cell_angle_beta   89.950658
_cell_angle_gamma 88.997989
loop_
_atom_site_label
_atom_site_type_symbol
_atom_site_fract_x
_atom_site_fract_y
_atom_site_fract_z
_atom_type_partial_charge
Mn0 Mn 0.18095 0.29823 0.19275 0.0
Mn1 Mn 0.25476 0.42309 0.16933 0.0
C2 C 0.12847 0.38255 0.17355 0.0
C3 C 0.12605 0.24713 0.23523 0.0
C4 C 0.24118 0.31522 0.12176 0.0
O5 O 0.2641 0.28251 0.21383 0.0
O6 O 0.31062 0.36577 0.19441 0.0
C7 C 0.27502 0.46937 0.2404 0.0
N8 N 0.25086 0.47683 0.20818 0.0
C9 C 0.20607 0.57259 0.22435 0.0
C10 C 0.23083 0.56605 0.25759 0.0
C11 C 0.26545 0.5142 0.26563 0.0
C12 C 0.21728 0.5265 0.20023 0.0
H13 H 0.30123 0.42944 0.2469 0.0
C14 C 0.31091 0.31511 0.21066 0.0
O15 O 0.14775 0.2183 0.20846 0.0
O16 O 0.1419 0.30254 0.23879 0.0
N17 N 0.20642 0.4829 0.14581 0.0
C18 C 0.18853 0.48409 0.11205 0.0
C19 C 0.15404 0.53336 0.09968 0.0
C20 C 0.13889 0.58126 0.12204 0.0
C21 C 0.15946 0.58001 0.15639 0.0
C22 C 0.19414 0.52993 0.16715 0.0
H23 H 0.2003 0.44767 0.09476 0.0
O24 O 0.10462 0.32979 0.17184 0.0
O25 O 0.18261 0.38426 0.18644 0.0
O26 O 0.21542 0.28099 0.1439 0.0
O27 O 0.25686 0.36957 0.12808 0.0
C28 C 0.1473 0.62672 0.18028 0.0
C29 C 0.17064 0.62303 0.21423 0.0
H30 H 0.22347 0.60048 0.27714 0.0
H31 H 0.28456 0.50871 0.29126 0.0
H32 H 0.13891 0.53424 0.07302 0.0
H33 H 0.11185 0.61895 0.1125 0.0
H34 H 0.12033 0.66585 0.17277 0.0
H35 H 0.16141 0.65943 0.23227 0.0
Mn36 Mn 0.21488 0.69021 0.68963 0.0
Mn37 Mn 0.10272 0.77528 0.65413 0.0
C38 C 0.13288 0.64239 0.66598 0.0
C39 C 0.25745 0.63167 0.73444 0.0
C40 C 0.21908 0.74456 0.61667 0.0
O41 O 0.22952 0.7719 0.71176 0.0
O42 O 0.15728 0.82499 0.68351 0.0
C43 C 0.03871 0.80945 0.71898 0.0
N44 N 0.03748 0.78795 0.68594 0.0
C45 C 0.92888 0.78541 0.68645 0.0
C46 C 0.92894 0.80866 0.72024 0.0
C47 C 0.98412 0.82044 0.73663 0.0
C48 C 0.98463 0.77645 0.66992 0.0
H49 H 0.08099 0.81811 0.73177 0.0
C50 C 0.20139 0.82129 0.70494 0.0
O51 O 0.29058 0.65275 0.70956 0.0
O52 O 0.20168 0.65011 0.73525 0.0
N53 N 0.0444 0.73673 0.62554 0.0
C54 C 0.0527 0.70558 0.59547 0.0
C55 C 1.00228 0.68575 0.57693 0.0
C56 C 0.94382 0.69834 0.58945 0.0
C57 C 0.93634 0.73024 0.62058 0.0
C58 C 0.98827 0.74972 0.63763 0.0
H59 H 0.09742 0.69578 0.58587 0.0
O60 O 0.1861 0.61745 0.66716 0.0
O61 O 0.12843 0.69837 0.67717 0.0
O62 O 0.24645 0.72009 0.64228 0.0
O63 O 0.16516 0.76512 0.61825 0.0
C64 C 0.87959 0.74116 0.6361 0.0
C65 C 0.87585 0.76878 0.66899 0.0
H66 H 0.88696 0.81645 0.7341 0.0
H67 H 0.98456 0.83775 0.76285 0.0
H68 H 0.00845 0.66069 0.55308 0.0
H69 H 0.90507 0.68223 0.57532 0.0
H70 H 0.83862 0.7269 0.62342 0.0
H71 H 0.83206 0.77547 0.68106 0.0
Mn72 Mn 0.8238 0.71642 0.18118 0.0
Mn73 Mn 0.74857 0.59325 0.1565 0.0
C74 C 0.87509 0.63618 0.15598 0.0
C75 C 0.8819 0.762 0.22444 0.0
C76 C 0.75492 0.70638 0.11248 0.0
O77 O 0.74274 0.72871 0.20563 0.0
O78 O 0.69584 0.64593 0.18638 0.0
C79 C 0.74247 0.53896 0.22662 0.0
N80 N 0.76029 0.53538 0.19286 0.0
C81 C 0.81098 0.43996 0.20302 0.0
C82 C 0.7929 0.44252 0.23783 0.0
C83 C 0.75846 0.49224 0.24965 0.0
C84 C 0.79377 0.48791 0.18128 0.0
H85 H 0.71656 0.57733 0.23598 0.0
C86 C 0.69641 0.69524 0.20376 0.0
O87 O 0.85794 0.79435 0.19964 0.0
O88 O 0.86695 0.70609 0.22565 0.0
N89 N 0.79304 0.53737 0.12806 0.0
C90 C 0.80195 0.53918 0.09314 0.0
C91 C 0.83319 0.49136 0.07677 0.0
C92 C 0.85432 0.44194 0.09643 0.0
C93 C 0.84258 0.44004 0.13213 0.0
C94 C 0.8103 0.48852 0.14686 0.0
H95 H 0.78552 0.57691 0.07791 0.0
O96 O 0.89827 0.68928 0.15647 0.0
O97 O 0.82275 0.63152 0.171 0.0
O98 O 0.7844 0.73849 0.13414 0.0
O99 O 0.73921 0.65175 0.11796 0.0
C100 C 0.86088 0.39157 0.15357 0.0
C101 C 0.84538 0.39169 0.18904 0.0
H102 H 0.80519 0.4066 0.25569 0.0
H103 H 0.74447 0.49464 0.2765 0.0
H104 H 0.84126 0.49277 0.04912 0.0
H105 H 0.8789 0.40542 0.08379 0.0
H106 H 0.88654 0.35378 0.14299 0.0
H107 H 0.85959 0.35412 0.20527 0.0
Mn108 Mn 0.81157 0.327 0.68709 0.0
Mn109 Mn 0.92882 0.2436 0.65576 0.0
C110 C 0.89665 0.37554 0.66801 0.0
C111 C 0.76245 0.38243 0.73092 0.0
C112 C 0.81908 0.27774 0.61294 0.0
O113 O 0.79333 0.244 0.70644 0.0
O114 O 0.86944 0.19231 0.68084 0.0
C115 C 0.98084 0.20554 0.72335 0.0
N116 N 0.98801 0.22922 0.69105 0.0
C117 C 0.0957 0.23383 0.69865 0.0
C118 C 0.08955 0.20844 0.73173 0.0
C119 C 0.03183 0.19448 0.74419 0.0
C120 C 0.04336 0.2429 0.67884 0.0
H121 H 0.93659 0.19525 0.73318 0.0
C122 C 0.82215 0.1949 0.69998 0.0
O123 O 0.73319 0.36335 0.70401 0.0
O124 O 0.81783 0.36356 0.73411 0.0
N125 N 0.99197 0.28372 0.63147 0.0
C126 C 0.98931 0.31513 0.60116 0.0
C127 C 0.04271 0.33643 0.58624 0.0
C128 C 0.09842 0.32475 0.60247 0.0
C129 C 0.10018 0.29211 0.63361 0.0
C130 C 0.04553 0.27135 0.64703 0.0
H131 H 0.9468 0.32392 0.58858 0.0
O132 O 0.84374 0.40123 0.66798 0.0
O133 O 0.89936 0.31913 0.67855 0.0
O134 O 0.78778 0.30076 0.63756 0.0
O135 O 0.8725 0.25653 0.61687 0.0
C136 C 0.1537 0.28139 0.65252 0.0
C137 C 0.15146 0.25227 0.68502 0.0
H138 H 0.1287 0.20056 0.74804 0.0
H139 H 0.02664 0.17547 0.76984 0.0
H140 H 0.04092 0.36182 0.56228 0.0
H141 H 0.13945 0.34189 0.5911 0.0
H142 H 0.19664 0.29675 0.64273 0.0
H143 H 0.19272 0.2456 0.69969 0.0
Mn144 Mn 0.68356 0.19861 0.3476 0.0
Mn145 Mn 0.76728 0.08191 0.37932 0.0
C146 C 0.63517 0.11364 0.36699 0.0
C147 C 0.62799 0.24721 0.30365 0.0
C148 C 0.73308 0.19214 0.42171 0.0
O149 O 0.7665 0.21678 0.32811 0.0
O150 O 0.81838 0.14096 0.35386 0.0
C151 C 0.80528 0.02881 0.312 0.0
N152 N 0.78169 0.02216 0.34436 0.0
C153 C 0.77759 0.91431 0.33747 0.0
C154 C 0.8029 0.91993 0.30432 0.0
C155 C 0.81654 0.97747 0.29148 0.0
C156 C 0.76831 0.96699 0.35695 0.0
H157 H 0.81534 0.07292 0.30188 0.0
C158 C 0.81566 0.18804 0.33456 0.0
O159 O 0.64709 0.27676 0.33045 0.0
O160 O 0.64688 0.19181 0.30064 0.0
N161 N 0.72735 0.01913 0.40402 0.0
C162 C 0.69591 0.02227 0.4343 0.0
C163 C 0.67482 0.96908 0.44957 0.0
C164 C 0.68673 0.91309 0.43369 0.0
C165 C 0.71939 0.91085 0.40256 0.0
C166 C 0.73993 0.96531 0.38879 0.0
H167 H 0.68694 0.065 0.44662 0.0
O168 O 0.60945 0.16654 0.36691 0.0
O169 O 0.6916 0.1109 0.35646 0.0
O170 O 0.7098 0.22305 0.39702 0.0
O171 O 0.75446 0.13877 0.41795 0.0
C172 C 0.73032 0.85701 0.38399 0.0
C173 C 0.75941 0.85873 0.35147 0.0
H174 H 0.81096 0.88049 0.28827 0.0
H175 H 0.83549 0.98223 0.26578 0.0
H176 H 0.64941 0.97124 0.47352 0.0
H177 H 0.66976 0.87223 0.44534 0.0
H178 H 0.71514 0.81421 0.39406 0.0
H179 H 0.76625 0.81722 0.33706 0.0
Mn180 Mn 0.29327 0.18691 0.85289 0.0
Mn181 Mn 0.41641 0.26227 0.87751 0.0
C182 C 0.3736 0.13572 0.87808 0.0
C183 C 0.2477 0.12871 0.80968 0.0
C184 C 0.30336 0.25575 0.92161 0.0
O185 O 0.28087 0.26794 0.82842 0.0
O186 O 0.36359 0.31493 0.84768 0.0
C187 C 0.47054 0.2685 0.80736 0.0
N188 N 0.47421 0.25065 0.8411 0.0
C189 C 0.56968 0.20008 0.83085 0.0
C190 C 0.56702 0.21819 0.79606 0.0
C191 C 0.51724 0.25258 0.78428 0.0
C192 C 0.52175 0.21722 0.85263 0.0
H193 H 0.43213 0.29438 0.79803 0.0
C194 C 0.31429 0.3143 0.83029 0.0
O195 O 0.21536 0.15266 0.83448 0.0
O196 O 0.3036 0.14374 0.80843 0.0
N197 N 0.47242 0.21787 0.9059 0.0
C198 C 0.47073 0.20899 0.94083 0.0
C199 C 0.51863 0.1778 0.95715 0.0
C200 C 0.56802 0.15671 0.93744 0.0
C201 C 0.56981 0.16844 0.90174 0.0
C202 C 0.52124 0.20066 0.88705 0.0
H203 H 0.43304 0.2254 0.9561 0.0
O204 O 0.32051 0.1125 0.87761 0.0
O205 O 0.3782 0.18804 0.86304 0.0
O206 O 0.27123 0.2263 0.89994 0.0
O207 O 0.35798 0.2715 0.9161 0.0
C208 C 0.61825 0.15021 0.88025 0.0
C209 C 0.61803 0.16574 0.84478 0.0
H210 H 0.60292 0.20596 0.77817 0.0
H211 H 0.51476 0.2666 0.75744 0.0
H212 H 0.51732 0.16975 0.9848 0.0
H213 H 0.6046 0.13218 0.95005 0.0
H214 H 0.6561 0.12461 0.89079 0.0
H215 H 0.65558 0.15158 0.82853 0.0
Mn216 Mn 0.32054 0.79516 0.34422 0.0
Mn217 Mn 0.2357 0.90765 0.37957 0.0
C218 C 0.36846 0.87724 0.3677 0.0
C219 C 0.37889 0.75229 0.29943 0.0
C220 C 0.26643 0.79153 0.41727 0.0
O221 O 0.23874 0.78047 0.32224 0.0
O222 O 0.18579 0.8529 0.35041 0.0
C223 C 0.20134 0.97114 0.31459 0.0
N224 N 0.22303 0.97262 0.34759 0.0
C225 C 0.22602 0.08119 0.3467 0.0
C226 C 0.20261 0.08087 0.31295 0.0
C227 C 0.1905 0.02558 0.29677 0.0
C228 C 0.23483 0.02559 0.36341 0.0
H229 H 0.19244 0.92878 0.30197 0.0
C230 C 0.18938 0.80866 0.32907 0.0
O231 O 0.35786 0.71932 0.32439 0.0
O232 O 0.36046 0.80806 0.29852 0.0
N233 N 0.27451 0.96615 0.40794 0.0
C234 C 0.30572 0.95805 0.438 0.0
C235 C 0.32583 0.00858 0.45634 0.0
C236 C 0.31345 0.06694 0.44362 0.0
C237 C 0.28147 0.07421 0.4125 0.0
C238 C 0.26173 0.02218 0.39565 0.0
H239 H 0.31538 0.9134 0.44774 0.0
O240 O 0.39345 0.82404 0.36651 0.0
O241 O 0.31248 0.88164 0.35654 0.0
O242 O 0.29077 0.76396 0.39168 0.0
O243 O 0.24593 0.84547 0.41561 0.0
C244 C 0.27072 0.13083 0.3968 0.0
C245 C 0.24296 0.13432 0.36394 0.0
H246 H 0.19494 0.12272 0.29896 0.0
H247 H 0.17305 0.02494 0.27059 0.0
H248 H 0.35095 1.00257 0.48017 0.0
H249 H 0.32977 0.10578 0.4576 0.0
H250 H 0.28519 0.17187 0.40931 0.0
H251 H 0.2364 0.178 0.35173 0.0
Mn252 Mn 0.71139 0.8296 0.84151 0.0
Mn253 Mn 0.58644 0.75601 0.86501 0.0
C254 C 0.62715 0.88221 0.86073 0.0
C255 C 0.76253 0.88437 0.79899 0.0
C256 C 0.69442 0.7694 0.91251 0.0
O257 O 0.72695 0.74642 0.82044 0.0
O258 O 0.64363 0.70003 0.8399 0.0
C259 C 0.54001 0.73579 0.79396 0.0
N260 N 0.53264 0.75997 0.82618 0.0
C261 C 0.43692 0.80491 0.81006 0.0
C262 C 0.44337 0.78013 0.77682 0.0
C263 C 0.49516 0.74543 0.76875 0.0
C264 C 0.48302 0.79363 0.83415 0.0
H265 H 0.5799 0.70951 0.78744 0.0
C266 C 0.69429 0.69966 0.82364 0.0
O267 O 0.79136 0.86264 0.82576 0.0
O268 O 0.70709 0.86862 0.79546 0.0
N269 N 0.52673 0.80447 0.88855 0.0
C270 C 0.52564 0.82242 0.9223 0.0
C271 C 0.47645 0.857 0.93469 0.0
C272 C 0.42852 0.87219 0.91235 0.0
C273 C 0.42967 0.85158 0.87801 0.0
C274 C 0.47969 0.8168 0.86723 0.0
H275 H 0.56209 0.81063 0.93956 0.0
O276 O 0.67995 0.90599 0.86242 0.0
O277 O 0.62536 0.82806 0.84785 0.0
O278 O 0.72864 0.79512 0.89034 0.0
O279 O 0.64003 0.75382 0.90622 0.0
C280 C 0.38296 0.8638 0.85414 0.0
C281 C 0.38655 0.84043 0.8202 0.0
H282 H 0.40893 0.78755 0.75728 0.0
H283 H 0.50059 0.7263 0.74311 0.0
H284 H 0.47564 0.87218 0.96134 0.0
H285 H 0.39089 0.8993 0.9219 0.0
H286 H 0.34388 0.89085 0.86166 0.0
H287 H 0.35015 0.84973 0.80217 0.0
H288 H 0.20091 0.3627 0.06123 0.0
H289 H 0.30588 0.21458 0.10337 0.0
H290 H 0.33197 0.18082 0.04454 0.0
H291 H 0.32987 0.1978 0.98114 0.0
H292 H 0.22287 0.34464 0.93919 0.0
H293 H 0.19218 0.37496 0.99793 0.0
C294 C 0.22965 0.32323 0.05749 0.0
C295 C 0.25249 0.29176 0.08646 0.0
C296 C 0.24382 0.30401 0.02368 0.0
C297 C 0.28807 0.2395 0.08136 0.0
C298 C 0.30307 0.2204 0.04779 0.0
C299 C 0.29921 0.23594 0.98502 0.0
C300 C 0.27842 0.26914 0.95619 0.0
C301 C 0.28191 0.25284 0.01878 0.0
C302 C 0.23885 0.31841 0.96116 0.0
C303 C 0.22169 0.33582 0.99468 0.0
H304 H 0.18878 0.68167 0.55974 0.0
H305 H 0.31393 0.81342 0.59678 0.0
H306 H 0.34648 0.83323 0.53703 0.0
H307 H 0.32881 0.82253 0.47427 0.0
H308 H 0.19817 0.69625 0.4372 0.0
H309 H 0.17842 0.66372 0.49696 0.0
C310 C 0.22355 0.71428 0.55467 0.0
C311 C 0.24854 0.74668 0.58239 0.0
C312 C 0.24055 0.7264 0.5203 0.0
C313 C 0.29447 0.78785 0.57577 0.0
C314 C 0.31258 0.79944 0.54164 0.0
C315 C 0.29644 0.78755 0.47932 0.0
C316 C 0.26431 0.76224 0.45159 0.0
C317 C 0.28435 0.77054 0.51369 0.0
C318 C 0.22351 0.71598 0.45822 0.0
C319 C 0.21194 0.69788 0.49235 0.0
H320 H 0.81281 0.68051 0.05283 0.0
H321 H 0.66551 0.78643 0.09515 0.0
H322 H 0.63478 0.81724 0.03651 0.0
H323 H 0.64685 0.80892 0.97318 0.0
H324 H 0.79546 0.70513 0.93066 0.0
H325 H 0.82957 0.67887 0.98939 0.0
C326 C 0.77449 0.71098 0.04905 0.0
C327 C 0.74129 0.73143 0.07796 0.0
C328 C 0.75736 0.72835 1.01534 0.0
C329 C 0.69175 0.77073 0.07312 0.0
C330 C 0.67411 0.78795 0.03966 0.0
C331 C 0.68651 0.7804 0.97682 0.0
C332 C 0.71802 0.75794 0.94776 0.0
C333 C 0.70594 0.76616 1.01058 0.0
C334 C 0.7705 0.72264 0.95273 0.0
C335 C 0.7898 0.70755 0.98626 0.0
H336 H 0.79769 0.28255 0.45104 0.0
H337 H 0.66045 0.1526 0.47274 0.0
H338 H 0.67026 0.17074 0.53486 0.0
H339 H 0.72776 0.21437 0.58354 0.0
H340 H 0.86004 0.34935 0.5618 0.0
H341 H 0.84203 0.33951 0.49969 0.0
C342 C 0.76897 0.25954 0.46941 0.0
C343 C 0.72965 0.21513 0.45756 0.0
C344 C 0.77455 0.27065 0.50524 0.0
C345 C 0.69249 0.18555 0.48147 0.0
C346 C 0.69782 0.19617 0.517 0.0
C347 C 0.75136 0.24258 0.56516 0.0
C348 C 0.79642 0.28117 0.57701 0.0
C349 C 0.74027 0.23705 0.52932 0.0
C350 C 0.82668 0.31774 0.55308 0.0
C351 C 0.81611 0.31244 0.51754 0.0
H352 H 0.40778 0.38199 0.23071 0.0
H353 H 0.34478 0.19887 0.22554 0.0
H354 H 0.4399 0.162 0.25031 0.0
H355 H 0.53941 0.18152 0.2753 0.0
H356 H 0.59944 0.36458 0.28615 0.0
H357 H 0.50763 0.40173 0.25684 0.0
C358 C 0.41493 0.33398 0.23488 0.0
C359 C 0.36894 0.29328 0.22616 0.0
C360 C 0.46948 0.31307 0.24993 0.0
C361 C 0.37898 0.23129 0.23213 0.0
C362 C 0.43357 0.2101 0.24617 0.0
C363 C 0.533 0.22952 0.27066 0.0
C364 C 0.57679 0.27022 0.28228 0.0
C365 C 0.47901 0.25053 0.25528 0.0
C366 C 0.56682 0.33235 0.27706 0.0
C367 C 0.51415 0.35354 0.2605 0.0
H368 H 0.1294 0.91768 0.72339 0.0
H369 H 0.31335 0.85037 0.72803 0.0
H370 H 0.34339 0.94168 0.75851 0.0
H371 H 0.31743 0.03837 0.7852 0.0
H372 H 0.13255 0.10265 0.78686 0.0
H373 H 0.10247 0.01448 0.75254 0.0
C374 C 0.17608 0.92304 0.73104 0.0
C375 C 0.21921 0.8772 0.72328 0.0
C376 C 0.19267 0.97494 0.74967 0.0
C377 C 0.27933 0.88471 0.73369 0.0
C378 C 0.29651 0.93697 0.75108 0.0
C379 C 0.27052 0.03364 0.77774 0.0
C380 C 0.22735 0.07767 0.78798 0.0
C381 C 0.25357 0.98208 0.75934 0.0
C382 C 0.16662 0.06979 0.77897 0.0
C383 C 0.14955 0.01932 0.75945 0.0
H384 H 0.46969 0.82069 0.27571 0.0
H385 H 0.40727 0.63748 0.27705 0.0
H386 H 0.49959 0.6037 0.24693 0.0
H387 H 0.59979 0.62623 0.22199 0.0
H388 H 0.66457 0.80886 0.22555 0.0
H389 H 0.57006 0.84267 0.2524 0.0
C390 C 0.47576 0.77347 0.26886 0.0
C391 C 0.43106 0.73177 0.27796 0.0
C392 C 0.52992 0.75419 0.25291 0.0
C393 C 0.44058 0.67051 0.26993 0.0
C394 C 0.49354 0.65122 0.25289 0.0
C395 C 0.59326 0.67347 0.22858 0.0
C396 C 0.63953 0.71492 0.22156 0.0
C397 C 0.53886 0.69259 0.24458 0.0
C398 C 0.63021 0.77582 0.23071 0.0
C399 C 0.57591 0.79531 0.24592 0.0
H400 H 0.89071 0.09591 0.71809 0.0
H401 H 0.7078 0.16664 0.71954 0.0
H402 H 0.67383 0.07463 0.74788 0.0
H403 H 0.69601 0.97611 0.77359 0.0
H404 H 0.87953 0.9086 0.77883 0.0
H405 H 0.91366 0.99735 0.74625 0.0
C406 C 0.84336 0.09105 0.72445 0.0
C407 C 0.80172 0.13813 0.71647 0.0
C408 C 0.82442 0.03865 0.74182 0.0
C409 C 0.74071 0.13131 0.72534 0.0
C410 C 0.72127 0.07864 0.7415 0.0
C411 C 0.7435 0.98028 0.76723 0.0
C412 C 0.78516 0.93524 0.77796 0.0
C413 C 0.76272 0.03227 0.74996 0.0
C414 C 0.84664 0.9423 0.77049 0.0
C415 C 0.86601 0.9931 0.75197 0.0
H416 H 0.91455 0.11936 0.31641 0.0
H417 H 0.84382 0.30225 0.31471 0.0
H418 H 0.93575 0.33606 0.28621 0.0
H419 H 0.03427 0.31374 0.2605 0.0
H420 H 0.10174 0.13021 0.25549 0.0
H421 H 0.01301 0.09624 0.28816 0.0
C422 C 0.91938 0.16667 0.30996 0.0
C423 C 0.87234 0.20836 0.31792 0.0
C424 C 0.97174 0.1855 0.29249 0.0
C425 C 0.87913 0.2693 0.30893 0.0
C426 C 0.93175 0.28865 0.29267 0.0
C427 C 0.03008 0.26629 0.26693 0.0
C428 C 0.07512 0.22458 0.25625 0.0
C429 C 0.97811 0.24716 0.28424 0.0
C430 C 0.06805 0.16314 0.2638 0.0
C431 C 0.01726 0.14386 0.28236 0.0
H432 H 0.18899 0.54072 0.75794 0.0
H433 H 0.37211 0.60346 0.75709 0.0
H434 H 0.4058 0.51122 0.78732 0.0
H435 H 0.38324 0.41103 0.81223 0.0
H436 H 0.20075 0.3459 0.8082 0.0
H437 H 0.16699 0.44031 0.78122 0.0
C438 C 0.23616 0.53473 0.76491 0.0
C439 C 0.27787 0.5795 0.75593 0.0
C440 C 0.2554 0.48062 0.78093 0.0
C441 C 0.33908 0.57009 0.76413 0.0
C442 C 0.35831 0.51719 0.78122 0.0
C443 C 0.33603 0.41747 0.80551 0.0
C444 C 0.29461 0.37113 0.81244 0.0
C445 C 0.31694 0.4718 0.78944 0.0
C446 C 0.23376 0.38033 0.80312 0.0
C447 C 0.2143 0.43457 0.78783 0.0
H448 H 0.09279 0.88051 0.31077 0.0
H449 H 0.16035 0.69667 0.30602 0.0
H450 H 0.06904 0.66653 0.27559 0.0
H451 H 0.97233 0.69238 0.2489 0.0
H452 H 0.90769 0.87714 0.2474 0.0
H453 H 0.99585 0.90731 0.28172 0.0
C454 C 0.08747 0.83383 0.30311 0.0
C455 C 0.1334 0.79077 0.31082 0.0
C456 C 0.03556 0.81718 0.2845 0.0
C457 C 0.12595 0.73064 0.3004 0.0
C458 C 0.07369 0.7134 0.28303 0.0
C459 C 0.97698 0.73929 0.25639 0.0
C460 C 0.93288 0.78239 0.24618 0.0
C461 C 0.02852 0.75629 0.2748 0.0
C462 C 0.94064 0.84311 0.25525 0.0
C463 C 0.9911 0.86024 0.27477 0.0
H464 H 0.82799 0.47087 0.75949 0.0
H465 H 0.64491 0.41122 0.748 0.0
H466 H 0.60764 0.50313 0.77717 0.0
H467 H 0.62734 0.60297 0.80338 0.0
H468 H 0.81057 0.66553 0.80913 0.0
H469 H 0.84748 0.57031 0.78451 0.0
C470 C 0.77995 0.47738 0.76396 0.0
C471 C 0.73928 0.43367 0.75221 0.0
C472 C 0.75889 0.53142 0.77925 0.0
C473 C 0.67711 0.44378 0.7572 0.0
C474 C 0.65585 0.49651 0.77368 0.0
C475 C 0.67538 0.5957 0.79936 0.0
C476 C 0.7161 0.64159 0.8082 0.0
C477 C 0.69631 0.54109 0.78439 0.0
C478 C 0.77814 0.63141 0.80244 0.0
C479 C 0.79934 0.57676 0.78848 0.0
H480 H 0.93196 0.58007 0.20751 0.0
H481 H 0.91907 0.58623 0.0964 0.0
H482 H 0.99568 0.50505 0.0915 0.0
H483 H 0.06609 0.43189 0.1199 0.0
H484 H 0.09645 0.44638 0.2298 0.0
H485 H 0.01385 0.52076 0.23462 0.0
C486 C 0.94533 0.56254 0.18232 0.0
C487 C 0.91697 0.58481 0.15239 0.0
C488 C 0.99323 0.52073 0.17974 0.0
C489 C 0.93755 0.56602 0.11973 0.0
C490 C 0.98197 0.52063 0.11698 0.0
C491 C 0.05531 0.45262 0.14465 0.0
C492 C 0.08736 0.4349 0.17438 0.0
C493 C 0.01003 0.49754 0.14689 0.0
C494 C 0.07284 0.46075 0.20654 0.0
C495 C 0.0254 0.50264 0.20933 0.0
H496 H 0.89306 0.49525 0.65461 0.0
H497 H 0.01415 0.35482 0.68836 0.0
H498 H 0.10107 0.41925 0.67791 0.0
H499 H 0.13898 0.52002 0.66285 0.0
H500 H 0.01215 0.66474 0.67763 0.0
H501 H 0.92792 0.59845 0.66522 0.0
C502 C 0.9385 0.47795 0.65904 0.0
C503 C 0.94903 0.41606 0.66584 0.0
C504 C 0.98566 0.51887 0.66111 0.0
C505 C 0.00709 0.39757 0.67591 0.0
C506 C 0.05596 0.43597 0.67197 0.0
C507 C 0.09302 0.53771 0.66256 0.0
C508 C 0.08136 0.6006 0.66387 0.0
C509 C 0.04548 0.49703 0.66414 0.0
C510 C 0.02167 0.62028 0.66842 0.0
C511 C 0.97388 0.58098 0.66371 0.0
H512 H 0.51499 0.1174 0.37913 0.0
H513 H 0.65642 0.99576 0.34752 0.0
H514 H 0.59186 0.909 0.35804 0.0
H515 H 0.49066 0.8713 0.37236 0.0
H516 H 0.3463 0.99766 0.35516 0.0
H517 H 0.41217 0.08221 0.36768 0.0
C518 C 0.53248 0.07188 0.37519 0.0
C519 C 0.59459 0.06127 0.36908 0.0
C520 C 0.49165 0.02465 0.37303 0.0
C521 C 0.61339 1.00303 0.35959 0.0
C522 C 0.57493 0.9542 0.36351 0.0
C523 C 0.47295 0.91725 0.37213 0.0
C524 C 0.41011 0.92882 0.37004 0.0
C525 C 0.51363 0.96479 0.37065 0.0
C526 C 0.39051 0.98839 0.36487 0.0
C527 C 0.42962 0.03631 0.36969 0.0
H528 H 0.42977 0.07877 0.82659 0.0
H529 H 0.42356 0.09194 0.93769 0.0
H530 H 0.50474 0.01534 0.94265 0.0
H531 H 0.57788 0.94482 0.91432 0.0
H532 H 0.5634 0.91418 0.80444 0.0
H533 H 0.48907 0.99681 0.79955 0.0
C534 C 0.44729 0.06547 0.85179 0.0
C535 C 0.425 0.0939 0.8817 0.0
C536 C 0.48909 0.01758 0.85442 0.0
C537 C 0.44379 0.07341 0.91438 0.0
C538 C 0.48918 0.02899 0.91716 0.0
C539 C 0.55717 0.95554 0.88956 0.0
C540 C 0.57486 0.9234 0.85985 0.0
C541 C 0.51227 1.00086 0.88727 0.0
C542 C 0.54904 0.93786 0.82768 0.0
C543 C 0.50718 0.98532 0.82484 0.0
loop_
_geom_bond_atom_site_label_1
_geom_bond_atom_site_label_2
_geom_bond_distance
_geom_bond_site_symmetry_2
_ccdc_geom_bond_type
Mn0 O5 2.095 . S
Mn0 O15 2.162 . S
Mn0 O16 2.297 . S
Mn0 O24 2.385 . S
Mn0 O25 2.209 . S
Mn0 O26 2.094 . S
Mn1 O6 2.121 . S
Mn1 N8 2.257 . S
Mn1 N17 2.282 . S
Mn1 O25 2.215 . S
Mn1 O27 2.117 . S
C2 O24 1.234 . S
C2 O25 1.283 . S
C3 O15 1.281 . S
C3 O16 1.236 . S
C4 O26 1.240 . S
C4 O27 1.264 . S
O5 Mn0 2.095 . S
O5 C14 1.250 . S
O6 Mn1 2.121 . S
O6 C14 1.258 . S
C7 N8 1.326 . S
C7 C11 1.460 . S
C7 H13 0.929 . S
N8 Mn1 2.257 . S
N8 C7 1.326 . S
N8 C12 1.362 . S
C9 C10 1.258 . S
C9 C12 1.431 . S
C9 C29 1.449 . S
C10 C9 1.258 . S
C10 C11 1.477 . S
C10 H30 0.931 . S
C11 C7 1.460 . S
C11 C10 1.477 . S
C11 H31 0.930 . S
C12 N8 1.362 . S
C12 C9 1.431 . S
C12 C22 1.476 . S
H13 C7 0.929 . S
C14 O5 1.250 . S
C14 O6 1.258 . S
O15 Mn0 2.162 . S
O15 C3 1.281 . S
O16 Mn0 2.297 . S
O16 C3 1.236 . S
N17 Mn1 2.282 . S
N17 C18 1.328 . S
N17 C22 1.318 . S
C18 N17 1.328 . S
C18 C19 1.457 . S
C18 H23 0.929 . S
C19 C18 1.457 . S
C19 C20 1.291 . S
C19 H32 0.931 . S
C20 C19 1.291 . S
C20 C21 1.373 . S
C20 H33 0.929 . S
C21 C20 1.373 . S
C21 C22 1.396 . S
C21 C28 1.403 . S
C22 C12 1.476 . S
C22 N17 1.318 . S
C22 C21 1.396 . S
H23 C18 0.929 . S
O24 Mn0 2.385 . S
O24 C2 1.234 . S
O25 Mn0 2.209 . S
O25 Mn1 2.215 . S
O25 C2 1.283 . S
O26 Mn0 2.094 . S
O26 C4 1.240 . S
O27 Mn1 2.117 . S
O27 C4 1.264 . S
C28 C21 1.403 . S
C28 C29 1.399 . S
C28 H34 0.929 . S
C29 C9 1.449 . S
C29 C28 1.399 . S
C29 H35 0.930 . S
H30 C10 0.931 . S
H31 C11 0.930 . S
H32 C19 0.931 . S
H33 C20 0.929 . S
H34 C28 0.929 . S
H35 C29 0.930 . S
Mn36 O41 2.095 . S
Mn36 O51 2.162 . S
Mn36 O52 2.297 . S
Mn36 O60 2.385 . S
Mn36 O61 2.209 . S
Mn36 O62 2.094 . S
Mn37 O42 2.121 . S
Mn37 N44 2.257 . S
Mn37 N53 2.282 . S
Mn37 O61 2.215 . S
Mn37 O63 2.117 . S
C38 O60 1.234 . S
C38 O61 1.283 . S
C39 O51 1.281 . S
C39 O52 1.236 . S
C40 O62 1.240 . S
C40 O63 1.264 . S
O41 Mn36 2.095 . S
O41 C50 1.250 . S
O42 Mn37 2.121 . S
O42 C50 1.258 . S
C43 N44 1.326 . S
C43 C47 1.460 1_455 S
C43 H49 0.929 . S
N44 Mn37 2.257 . S
N44 C43 1.326 . S
N44 C48 1.362 . S
C45 C46 1.258 . S
C45 C48 1.431 1_655 S
C45 C65 1.449 . S
C46 C45 1.258 . S
C46 C47 1.477 . S
C46 H66 0.931 . S
C47 C43 1.460 1_655 S
C47 C46 1.477 . S
C47 H67 0.930 . S
C48 N44 1.362 . S
C48 C45 1.431 1_455 S
C48 C58 1.476 . S
H49 C43 0.929 . S
C50 O41 1.250 . S
C50 O42 1.258 . S
O51 Mn36 2.162 . S
O51 C39 1.281 . S
O52 Mn36 2.297 . S
O52 C39 1.236 . S
N53 Mn37 2.282 . S
N53 C54 1.328 . S
N53 C58 1.318 . S
C54 N53 1.328 . S
C54 C55 1.457 . S
C54 H59 0.929 . S
C55 C54 1.457 . S
C55 C56 1.291 1_455 S
C55 H68 0.931 . S
C56 C55 1.291 1_655 S
C56 C57 1.373 . S
C56 H69 0.929 . S
C57 C56 1.373 . S
C57 C58 1.396 1_655 S
C57 C64 1.403 . S
C58 C48 1.476 . S
C58 N53 1.318 . S
C58 C57 1.396 1_455 S
H59 C54 0.929 . S
O60 Mn36 2.385 . S
O60 C38 1.234 . S
O61 Mn36 2.209 . S
O61 Mn37 2.215 . S
O61 C38 1.283 . S
O62 Mn36 2.094 . S
O62 C40 1.240 . S
O63 Mn37 2.117 . S
O63 C40 1.264 . S
C64 C57 1.403 . S
C64 C65 1.399 . S
C64 H70 0.929 . S
C65 C45 1.449 . S
C65 C64 1.399 . S
C65 H71 0.930 . S
H66 C46 0.931 . S
H67 C47 0.930 . S
H68 C55 0.931 . S
H69 C56 0.929 . S
H70 C64 0.929 . S
H71 C65 0.930 . S
Mn72 O77 2.095 . S
Mn72 O87 2.162 . S
Mn72 O88 2.297 . S
Mn72 O96 2.385 . S
Mn72 O97 2.209 . S
Mn72 O98 2.094 . S
Mn73 O78 2.121 . S
Mn73 N80 2.257 . S
Mn73 N89 2.282 . S
Mn73 O97 2.215 . S
Mn73 O99 2.117 . S
C74 O96 1.234 . S
C74 O97 1.283 . S
C75 O87 1.281 . S
C75 O88 1.236 . S
C76 O98 1.240 . S
C76 O99 1.264 . S
O77 Mn72 2.095 . S
O77 C86 1.250 . S
O78 Mn73 2.121 . S
O78 C86 1.258 . S
C79 N80 1.326 . S
C79 C83 1.460 . S
C79 H85 0.929 . S
N80 Mn73 2.257 . S
N80 C79 1.326 . S
N80 C84 1.362 . S
C81 C82 1.258 . S
C81 C84 1.431 . S
C81 C101 1.449 . S
C82 C81 1.258 . S
C82 C83 1.477 . S
C82 H102 0.931 . S
C83 C79 1.460 . S
C83 C82 1.477 . S
C83 H103 0.930 . S
C84 N80 1.362 . S
C84 C81 1.431 . S
C84 C94 1.476 . S
H85 C79 0.929 . S
C86 O77 1.250 . S
C86 O78 1.258 . S
O87 Mn72 2.162 . S
O87 C75 1.281 . S
O88 Mn72 2.297 . S
O88 C75 1.236 . S
N89 Mn73 2.282 . S
N89 C90 1.328 . S
N89 C94 1.318 . S
C90 N89 1.328 . S
C90 C91 1.457 . S
C90 H95 0.929 . S
C91 C90 1.457 . S
C91 C92 1.291 . S
C91 H104 0.931 . S
C92 C91 1.291 . S
C92 C93 1.373 . S
C92 H105 0.929 . S
C93 C92 1.373 . S
C93 C94 1.396 . S
C93 C100 1.403 . S
C94 C84 1.476 . S
C94 N89 1.318 . S
C94 C93 1.396 . S
H95 C90 0.929 . S
O96 Mn72 2.385 . S
O96 C74 1.234 . S
O97 Mn72 2.209 . S
O97 Mn73 2.215 . S
O97 C74 1.283 . S
O98 Mn72 2.094 . S
O98 C76 1.240 . S
O99 Mn73 2.117 . S
O99 C76 1.264 . S
C100 C93 1.403 . S
C100 C101 1.399 . S
C100 H106 0.929 . S
C101 C81 1.449 . S
C101 C100 1.399 . S
C101 H107 0.930 . S
H102 C82 0.931 . S
H103 C83 0.930 . S
H104 C91 0.931 . S
H105 C92 0.929 . S
H106 C100 0.929 . S
H107 C101 0.930 . S
Mn108 O113 2.095 . S
Mn108 O123 2.162 . S
Mn108 O124 2.297 . S
Mn108 O132 2.385 . S
Mn108 O133 2.209 . S
Mn108 O134 2.094 . S
Mn109 O114 2.121 . S
Mn109 N116 2.257 . S
Mn109 N125 2.282 . S
Mn109 O133 2.215 . S
Mn109 O135 2.117 . S
C110 O132 1.234 . S
C110 O133 1.283 . S
C111 O123 1.281 . S
C111 O124 1.236 . S
C112 O134 1.240 . S
C112 O135 1.264 . S
O113 Mn108 2.095 . S
O113 C122 1.250 . S
O114 Mn109 2.121 . S
O114 C122 1.258 . S
C115 N116 1.326 . S
C115 C119 1.460 1_655 S
C115 H121 0.929 . S
N116 Mn109 2.257 . S
N116 C115 1.326 . S
N116 C120 1.362 . S
C117 C118 1.258 . S
C117 C120 1.431 1_455 S
C117 C137 1.449 . S
C118 C117 1.258 . S
C118 C119 1.477 . S
C118 H138 0.931 . S
C119 C115 1.460 1_455 S
C119 C118 1.477 . S
C119 H139 0.930 . S
C120 N116 1.362 . S
C120 C117 1.431 1_655 S
C120 C130 1.476 . S
H121 C115 0.929 . S
C122 O113 1.250 . S
C122 O114 1.258 . S
O123 Mn108 2.162 . S
O123 C111 1.281 . S
O124 Mn108 2.297 . S
O124 C111 1.236 . S
N125 Mn109 2.282 . S
N125 C126 1.328 . S
N125 C130 1.318 . S
C126 N125 1.328 . S
C126 C127 1.457 . S
C126 H131 0.929 . S
C127 C126 1.457 . S
C127 C128 1.291 1_655 S
C127 H140 0.931 . S
C128 C127 1.291 1_455 S
C128 C129 1.373 . S
C128 H141 0.929 . S
C129 C128 1.373 . S
C129 C130 1.396 1_455 S
C129 C136 1.403 . S
C130 C120 1.476 . S
C130 N125 1.318 . S
C130 C129 1.396 1_655 S
H131 C126 0.929 . S
O132 Mn108 2.385 . S
O132 C110 1.234 . S
O133 Mn108 2.209 . S
O133 Mn109 2.215 . S
O133 C110 1.283 . S
O134 Mn108 2.094 . S
O134 C112 1.240 . S
O135 Mn109 2.117 . S
O135 C112 1.264 . S
C136 C129 1.403 . S
C136 C137 1.399 . S
C136 H142 0.929 . S
C137 C117 1.449 . S
C137 C136 1.399 . S
C137 H143 0.930 . S
H138 C118 0.931 . S
H139 C119 0.930 . S
H140 C127 0.931 . S
H141 C128 0.929 . S
H142 C136 0.929 . S
H143 C137 0.930 . S
Mn144 O149 2.095 . S
Mn144 O159 2.162 . S
Mn144 O160 2.297 . S
Mn144 O168 2.385 . S
Mn144 O169 2.209 . S
Mn144 O170 2.094 . S
Mn145 O150 2.121 . S
Mn145 N152 2.257 . S
Mn145 N161 2.282 . S
Mn145 O169 2.215 . S
Mn145 O171 2.117 . S
C146 O168 1.234 . S
C146 O169 1.283 . S
C147 O159 1.281 . S
C147 O160 1.236 . S
C148 O170 1.240 . S
C148 O171 1.264 . S
O149 Mn144 2.095 . S
O149 C158 1.250 . S
O150 Mn145 2.121 . S
O150 C158 1.258 . S
C151 N152 1.326 . S
C151 C155 1.460 1_545 S
C151 H157 0.929 . S
N152 Mn145 2.257 . S
N152 C151 1.326 . S
N152 C156 1.362 . S
C153 C154 1.258 . S
C153 C156 1.431 1_565 S
C153 C173 1.449 . S
C154 C153 1.258 . S
C154 C155 1.477 . S
C154 H174 0.931 . S
C155 C151 1.460 1_565 S
C155 C154 1.477 . S
C155 H175 0.930 . S
C156 N152 1.362 . S
C156 C153 1.431 1_545 S
C156 C166 1.476 . S
H157 C151 0.929 . S
C158 O149 1.250 . S
C158 O150 1.258 . S
O159 Mn144 2.162 . S
O159 C147 1.281 . S
O160 Mn144 2.297 . S
O160 C147 1.236 . S
N161 Mn145 2.282 . S
N161 C162 1.328 . S
N161 C166 1.318 . S
C162 N161 1.328 . S
C162 C163 1.457 . S
C162 H167 0.929 . S
C163 C162 1.457 . S
C163 C164 1.291 1_545 S
C163 H176 0.931 . S
C164 C163 1.291 1_565 S
C164 C165 1.373 . S
C164 H177 0.929 . S
C165 C164 1.373 . S
C165 C166 1.396 1_565 S
C165 C172 1.403 . S
C166 C156 1.476 . S
C166 N161 1.318 . S
C166 C165 1.396 1_545 S
H167 C162 0.929 . S
O168 Mn144 2.385 . S
O168 C146 1.234 . S
O169 Mn144 2.209 . S
O169 Mn145 2.215 . S
O169 C146 1.283 . S
O170 Mn144 2.094 . S
O170 C148 1.240 . S
O171 Mn145 2.117 . S
O171 C148 1.264 . S
C172 C165 1.403 . S
C172 C173 1.399 . S
C172 H178 0.929 . S
C173 C153 1.449 . S
C173 C172 1.399 . S
C173 H179 0.930 . S
H174 C154 0.931 . S
H175 C155 0.930 . S
H176 C163 0.931 . S
H177 C164 0.929 . S
H178 C172 0.929 . S
H179 C173 0.930 . S
Mn180 O185 2.095 . S
Mn180 O195 2.162 . S
Mn180 O196 2.297 . S
Mn180 O204 2.385 . S
Mn180 O205 2.209 . S
Mn180 O206 2.094 . S
Mn181 O186 2.121 . S
Mn181 N188 2.257 . S
Mn181 N197 2.282 . S
Mn181 O205 2.215 . S
Mn181 O207 2.117 . S
C182 O204 1.234 . S
C182 O205 1.283 . S
C183 O195 1.281 . S
C183 O196 1.236 . S
C184 O206 1.240 . S
C184 O207 1.264 . S
O185 Mn180 2.095 . S
O185 C194 1.250 . S
O186 Mn181 2.121 . S
O186 C194 1.258 . S
C187 N188 1.326 . S
C187 C191 1.460 . S
C187 H193 0.929 . S
N188 Mn181 2.257 . S
N188 C187 1.326 . S
N188 C192 1.362 . S
C189 C190 1.258 . S
C189 C192 1.431 . S
C189 C209 1.449 . S
C190 C189 1.258 . S
C190 C191 1.477 . S
C190 H210 0.931 . S
C191 C187 1.460 . S
C191 C190 1.477 . S
C191 H211 0.930 . S
C192 N188 1.362 . S
C192 C189 1.431 . S
C192 C202 1.476 . S
H193 C187 0.929 . S
C194 O185 1.250 . S
C194 O186 1.258 . S
O195 Mn180 2.162 . S
O195 C183 1.281 . S
O196 Mn180 2.297 . S
O196 C183 1.236 . S
N197 Mn181 2.282 . S
N197 C198 1.328 . S
N197 C202 1.318 . S
C198 N197 1.328 . S
C198 C199 1.457 . S
C198 H203 0.929 . S
C199 C198 1.457 . S
C199 C200 1.291 . S
C199 H212 0.931 . S
C200 C199 1.291 . S
C200 C201 1.373 . S
C200 H213 0.929 . S
C201 C200 1.373 . S
C201 C202 1.396 . S
C201 C208 1.403 . S
C202 C192 1.476 . S
C202 N197 1.318 . S
C202 C201 1.396 . S
H203 C198 0.929 . S
O204 Mn180 2.385 . S
O204 C182 1.234 . S
O205 Mn180 2.209 . S
O205 Mn181 2.215 . S
O205 C182 1.283 . S
O206 Mn180 2.094 . S
O206 C184 1.240 . S
O207 Mn181 2.117 . S
O207 C184 1.264 . S
C208 C201 1.403 . S
C208 C209 1.399 . S
C208 H214 0.929 . S
C209 C189 1.449 . S
C209 C208 1.399 . S
C209 H215 0.930 . S
H210 C190 0.931 . S
H211 C191 0.930 . S
H212 C199 0.931 . S
H213 C200 0.929 . S
H214 C208 0.929 . S
H215 C209 0.930 . S
Mn216 O221 2.095 . S
Mn216 O231 2.162 . S
Mn216 O232 2.297 . S
Mn216 O240 2.385 . S
Mn216 O241 2.209 . S
Mn216 O242 2.094 . S
Mn217 O222 2.121 . S
Mn217 N224 2.257 . S
Mn217 N233 2.282 . S
Mn217 O241 2.215 . S
Mn217 O243 2.117 . S
C218 O240 1.234 . S
C218 O241 1.283 . S
C219 O231 1.281 . S
C219 O232 1.236 . S
C220 O242 1.240 . S
C220 O243 1.264 . S
O221 Mn216 2.095 . S
O221 C230 1.250 . S
O222 Mn217 2.121 . S
O222 C230 1.258 . S
C223 N224 1.326 . S
C223 C227 1.460 1_565 S
C223 H229 0.929 . S
N224 Mn217 2.257 . S
N224 C223 1.326 . S
N224 C228 1.362 . S
C225 C226 1.258 . S
C225 C228 1.431 1_545 S
C225 C245 1.449 . S
C226 C225 1.258 . S
C226 C227 1.477 . S
C226 H246 0.931 . S
C227 C223 1.460 1_545 S
C227 C226 1.477 . S
C227 H247 0.930 . S
C228 N224 1.362 . S
C228 C225 1.431 1_565 S
C228 C238 1.476 . S
H229 C223 0.929 . S
C230 O221 1.250 . S
C230 O222 1.258 . S
O231 Mn216 2.162 . S
O231 C219 1.281 . S
O232 Mn216 2.297 . S
O232 C219 1.236 . S
N233 Mn217 2.282 . S
N233 C234 1.328 . S
N233 C238 1.318 . S
C234 N233 1.328 . S
C234 C235 1.457 . S
C234 H239 0.929 . S
C235 C234 1.457 . S
C235 C236 1.291 1_565 S
C235 H248 0.931 . S
C236 C235 1.291 1_545 S
C236 C237 1.373 . S
C236 H249 0.929 . S
C237 C236 1.373 . S
C237 C238 1.396 1_545 S
C237 C244 1.403 . S
C238 C228 1.476 . S
C238 N233 1.318 . S
C238 C237 1.396 1_565 S
H239 C234 0.929 . S
O240 Mn216 2.385 . S
O240 C218 1.234 . S
O241 Mn216 2.209 . S
O241 Mn217 2.215 . S
O241 C218 1.283 . S
O242 Mn216 2.094 . S
O242 C220 1.240 . S
O243 Mn217 2.117 . S
O243 C220 1.264 . S
C244 C237 1.403 . S
C244 C245 1.399 . S
C244 H250 0.929 . S
C245 C225 1.449 . S
C245 C244 1.399 . S
C245 H251 0.930 . S
H246 C226 0.931 . S
H247 C227 0.930 . S
H248 C235 0.931 . S
H249 C236 0.929 . S
H250 C244 0.929 . S
H251 C245 0.930 . S
Mn252 O257 2.095 . S
Mn252 O267 2.162 . S
Mn252 O268 2.297 . S
Mn252 O276 2.385 . S
Mn252 O277 2.209 . S
Mn252 O278 2.094 . S
Mn253 O258 2.121 . S
Mn253 N260 2.257 . S
Mn253 N269 2.282 . S
Mn253 O277 2.215 . S
Mn253 O279 2.117 . S
C254 O276 1.234 . S
C254 O277 1.283 . S
C255 O267 1.281 . S
C255 O268 1.236 . S
C256 O278 1.240 . S
C256 O279 1.264 . S
O257 Mn252 2.095 . S
O257 C266 1.250 . S
O258 Mn253 2.121 . S
O258 C266 1.258 . S
C259 N260 1.326 . S
C259 C263 1.460 . S
C259 H265 0.929 . S
N260 Mn253 2.257 . S
N260 C259 1.326 . S
N260 C264 1.362 . S
C261 C262 1.258 . S
C261 C264 1.431 . S
C261 C281 1.449 . S
C262 C261 1.258 . S
C262 C263 1.477 . S
C262 H282 0.931 . S
C263 C259 1.460 . S
C263 C262 1.477 . S
C263 H283 0.930 . S
C264 N260 1.362 . S
C264 C261 1.431 . S
C264 C274 1.476 . S
H265 C259 0.929 . S
C266 O257 1.250 . S
C266 O258 1.258 . S
O267 Mn252 2.162 . S
O267 C255 1.281 . S
O268 Mn252 2.297 . S
O268 C255 1.236 . S
N269 Mn253 2.282 . S
N269 C270 1.328 . S
N269 C274 1.318 . S
C270 N269 1.328 . S
C270 C271 1.457 . S
C270 H275 0.929 . S
C271 C270 1.457 . S
C271 C272 1.291 . S
C271 H284 0.931 . S
C272 C271 1.291 . S
C272 C273 1.373 . S
C272 H285 0.929 . S
C273 C272 1.373 . S
C273 C274 1.396 . S
C273 C280 1.403 . S
C274 C264 1.476 . S
C274 N269 1.318 . S
C274 C273 1.396 . S
H275 C270 0.929 . S
O276 Mn252 2.385 . S
O276 C254 1.234 . S
O277 Mn252 2.209 . S
O277 Mn253 2.215 . S
O277 C254 1.283 . S
O278 Mn252 2.094 . S
O278 C256 1.240 . S
O279 Mn253 2.117 . S
O279 C256 1.264 . S
C280 C273 1.403 . S
C280 C281 1.399 . S
C280 H286 0.929 . S
C281 C261 1.449 . S
C281 C280 1.399 . S
C281 H287 0.930 . S
H282 C262 0.931 . S
H283 C263 0.930 . S
H284 C271 0.931 . S
H285 C272 0.929 . S
H286 C280 0.929 . S
H287 C281 0.930 . S
H288 C294 0.930 . S
H289 C297 0.930 . S
H290 C298 0.930 . S
H291 C299 0.930 . S
H292 C302 0.930 . S
H293 C303 0.930 . S
C294 H288 0.930 . S
C294 C295 1.355 . S
C294 C296 1.413 1_554 S
C295 C294 1.355 . S
C295 C297 1.419 . S
C296 C294 1.413 1_556 S
C296 C301 1.425 1_556 S
C296 C303 1.411 . S
C297 H289 0.930 . S
C297 C295 1.419 . S
C297 C298 1.362 . S
C298 H290 0.930 . S
C298 C297 1.362 . S
C298 C301 1.411 . S
C299 H291 0.930 . S
C299 C300 1.355 . S
C299 C301 1.413 1_556 S
C300 C299 1.355 . S
C300 C302 1.419 . S
C301 C296 1.425 1_554 S
C301 C298 1.411 . S
C301 C299 1.413 1_554 S
C302 H292 0.930 . S
C302 C300 1.419 . S
C302 C303 1.362 . S
C303 H293 0.930 . S
C303 C296 1.411 . S
C303 C302 1.362 . S
H304 C310 0.930 . S
H305 C313 0.930 . S
H306 C314 0.930 . S
H307 C315 0.930 . S
H308 C318 0.930 . S
H309 C319 0.930 . S
C310 H304 0.930 . S
C310 C311 1.355 . S
C310 C312 1.415 . S
C311 C310 1.355 . S
C311 C313 1.419 . S
C312 C310 1.415 . S
C312 C317 1.425 . S
C312 C319 1.409 . S
C313 H305 0.930 . S
C313 C311 1.419 . S
C313 C314 1.362 . S
C314 H306 0.930 . S
C314 C313 1.362 . S
C314 C317 1.409 . S
C315 H307 0.930 . S
C315 C316 1.355 . S
C315 C317 1.415 . S
C316 C315 1.355 . S
C316 C318 1.419 . S
C317 C312 1.425 . S
C317 C314 1.409 . S
C317 C315 1.415 . S
C318 H308 0.930 . S
C318 C316 1.419 . S
C318 C319 1.362 . S
C319 H309 0.930 . S
C319 C312 1.409 . S
C319 C318 1.362 . S
H320 C326 0.930 . S
H321 C329 0.930 . S
H322 C330 0.930 . S
H323 C331 0.930 . S
H324 C334 0.930 . S
H325 C335 0.930 . S
C326 H320 0.930 . S
C326 C327 1.355 . S
C326 C328 1.395 1_554 S
C327 C326 1.355 . S
C327 C329 1.419 . S
C328 C326 1.395 1_556 S
C328 C333 1.424 1_556 S
C328 C335 1.430 . S
C329 H321 0.930 . S
C329 C327 1.419 . S
C329 C330 1.362 . S
C330 H322 0.930 . S
C330 C329 1.362 . S
C330 C333 1.430 . S
C331 H323 0.930 . S
C331 C332 1.355 . S
C331 C333 1.395 1_556 S
C332 C331 1.355 . S
C332 C334 1.419 . S
C333 C328 1.424 1_554 S
C333 C330 1.430 . S
C333 C331 1.395 1_554 S
C334 H324 0.930 . S
C334 C332 1.419 . S
C334 C335 1.362 . S
C335 H325 0.930 . S
C335 C328 1.430 . S
C335 C334 1.362 . S
H336 C342 0.930 . S
H337 C345 0.930 . S
H338 C346 0.930 . S
H339 C347 0.930 . S
H340 C350 0.930 . S
H341 C351 0.930 . S
C342 H336 0.930 . S
C342 C343 1.355 . S
C342 C344 1.415 . S
C343 C342 1.355 . S
C343 C345 1.419 . S
C344 C342 1.415 . S
C344 C349 1.425 . S
C344 C351 1.409 . S
C345 H337 0.930 . S
C345 C343 1.419 . S
C345 C346 1.362 . S
C346 H338 0.930 . S
C346 C345 1.362 . S
C346 C349 1.409 . S
C347 H339 0.930 . S
C347 C348 1.355 . S
C347 C349 1.415 . S
C348 C347 1.355 . S
C348 C350 1.419 . S
C349 C344 1.425 . S
C349 C346 1.409 . S
C349 C347 1.415 . S
C350 H340 0.930 . S
C350 C348 1.419 . S
C350 C351 1.362 . S
C351 H341 0.930 . S
C351 C344 1.409 . S
C351 C350 1.362 . S
H352 C358 0.930 . S
H353 C361 0.930 . S
H354 C362 0.930 . S
H355 C363 0.930 . S
H356 C366 0.930 . S
H357 C367 0.930 . S
C358 H352 0.930 . S
C358 C359 1.355 . S
C358 C360 1.415 . S
C359 C358 1.355 . S
C359 C361 1.419 . S
C360 C358 1.415 . S
C360 C365 1.425 . S
C360 C367 1.409 . S
C361 H353 0.930 . S
C361 C359 1.419 . S
C361 C362 1.362 . S
C362 H354 0.930 . S
C362 C361 1.362 . S
C362 C365 1.409 . S
C363 H355 0.930 . S
C363 C364 1.355 . S
C363 C365 1.415 . S
C364 C363 1.355 . S
C364 C366 1.419 . S
C365 C360 1.425 . S
C365 C362 1.409 . S
C365 C363 1.415 . S
C366 H356 0.930 . S
C366 C364 1.419 . S
C366 C367 1.362 . S
C367 H357 0.930 . S
C367 C360 1.409 . S
C367 C366 1.362 . S
H368 C374 0.930 . S
H369 C377 0.930 . S
H370 C378 0.930 . S
H371 C379 0.930 . S
H372 C382 0.930 . S
H373 C383 0.930 . S
C374 H368 0.930 . S
C374 C375 1.355 . S
C374 C376 1.415 . S
C375 C374 1.355 . S
C375 C377 1.419 . S
C376 C374 1.415 . S
C376 C381 1.425 . S
C376 C383 1.409 . S
C377 H369 0.930 . S
C377 C375 1.419 . S
C377 C378 1.362 . S
C378 H370 0.930 . S
C378 C377 1.362 . S
C378 C381 1.409 . S
C379 H371 0.930 . S
C379 C380 1.355 . S
C379 C381 1.415 . S
C380 C379 1.355 . S
C380 C382 1.419 . S
C381 C376 1.425 . S
C381 C378 1.409 . S
C381 C379 1.415 . S
C382 H372 0.930 . S
C382 C380 1.419 . S
C382 C383 1.362 . S
C383 H373 0.930 . S
C383 C376 1.409 . S
C383 C382 1.362 . S
H384 C390 0.930 . S
H385 C393 0.930 . S
H386 C394 0.930 . S
H387 C395 0.930 . S
H388 C398 0.930 . S
H389 C399 0.930 . S
C390 H384 0.930 . S
C390 C391 1.355 . S
C390 C392 1.415 . S
C391 C390 1.355 . S
C391 C393 1.419 . S
C392 C390 1.415 . S
C392 C397 1.425 . S
C392 C399 1.409 . S
C393 H385 0.930 . S
C393 C391 1.419 . S
C393 C394 1.362 . S
C394 H386 0.930 . S
C394 C393 1.362 . S
C394 C397 1.409 . S
C395 H387 0.930 . S
C395 C396 1.355 . S
C395 C397 1.415 . S
C396 C395 1.355 . S
C396 C398 1.419 . S
C397 C392 1.425 . S
C397 C394 1.409 . S
C397 C395 1.415 . S
C398 H388 0.930 . S
C398 C396 1.419 . S
C398 C399 1.362 . S
C399 H389 0.930 . S
C399 C392 1.409 . S
C399 C398 1.362 . S
H400 C406 0.930 . S
H401 C409 0.930 . S
H402 C410 0.930 . S
H403 C411 0.930 . S
H404 C414 0.930 1_565 S
H405 C415 0.930 . S
C406 H400 0.930 . S
C406 C407 1.355 . S
C406 C408 1.415 . S
C407 C406 1.355 . S
C407 C409 1.419 . S
C408 C406 1.415 . S
C408 C413 1.425 . S
C408 C415 1.409 . S
C409 H401 0.930 . S
C409 C407 1.419 . S
C409 C410 1.362 . S
C410 H402 0.930 . S
C410 C409 1.362 . S
C410 C413 1.409 . S
C411 H403 0.930 . S
C411 C412 1.355 . S
C411 C413 1.415 . S
C412 C411 1.355 . S
C412 C414 1.419 . S
C413 C408 1.425 . S
C413 C410 1.409 . S
C413 C411 1.415 . S
C414 H404 0.930 1_545 S
C414 C412 1.419 . S
C414 C415 1.362 . S
C415 H405 0.930 . S
C415 C408 1.409 . S
C415 C414 1.362 . S
H416 C422 0.930 . S
H417 C425 0.930 . S
H418 C426 0.930 . S
H419 C427 0.930 . S
H420 C430 0.930 . S
H421 C431 0.930 . S
C422 H416 0.930 . S
C422 C423 1.355 . S
C422 C424 1.415 . S
C423 C422 1.355 . S
C423 C425 1.419 . S
C424 C422 1.415 . S
C424 C429 1.425 . S
C424 C431 1.409 . S
C425 H417 0.930 . S
C425 C423 1.419 . S
C425 C426 1.362 . S
C426 H418 0.930 . S
C426 C425 1.362 . S
C426 C429 1.409 . S
C427 H419 0.930 . S
C427 C428 1.355 . S
C427 C429 1.415 . S
C428 C427 1.355 . S
C428 C430 1.419 . S
C429 C424 1.425 . S
C429 C426 1.409 . S
C429 C427 1.415 . S
C430 H420 0.930 . S
C430 C428 1.419 . S
C430 C431 1.362 . S
C431 H421 0.930 . S
C431 C424 1.409 . S
C431 C430 1.362 . S
H432 C438 0.930 . S
H433 C441 0.930 . S
H434 C442 0.930 . S
H435 C443 0.930 . S
H436 C446 0.930 . S
H437 C447 0.930 . S
C438 H432 0.930 . S
C438 C439 1.355 . S
C438 C440 1.415 . S
C439 C438 1.355 . S
C439 C441 1.419 . S
C440 C438 1.415 . S
C440 C445 1.425 . S
C440 C447 1.409 . S
C441 H433 0.930 . S
C441 C439 1.419 . S
C441 C442 1.362 . S
C442 H434 0.930 . S
C442 C441 1.362 . S
C442 C445 1.409 . S
C443 H435 0.930 . S
C443 C444 1.355 . S
C443 C445 1.415 . S
C444 C443 1.355 . S
C444 C446 1.419 . S
C445 C440 1.425 . S
C445 C442 1.409 . S
C445 C443 1.415 . S
C446 H436 0.930 . S
C446 C444 1.419 . S
C446 C447 1.362 . S
C447 H437 0.930 . S
C447 C440 1.409 . S
C447 C446 1.362 . S
H448 C454 0.930 . S
H449 C457 0.930 . S
H450 C458 0.930 . S
H451 C459 0.930 . S
H452 C462 0.930 . S
H453 C463 0.930 . S
C454 H448 0.930 . S
C454 C455 1.355 . S
C454 C456 1.415 . S
C455 C454 1.355 . S
C455 C457 1.419 . S
C456 C454 1.415 . S
C456 C461 1.425 . S
C456 C463 1.409 . S
C457 H449 0.930 . S
C457 C455 1.419 . S
C457 C458 1.362 . S
C458 H450 0.930 . S
C458 C457 1.362 . S
C458 C461 1.409 . S
C459 H451 0.930 . S
C459 C460 1.355 . S
C459 C461 1.415 . S
C460 C459 1.355 . S
C460 C462 1.419 . S
C461 C456 1.425 . S
C461 C458 1.409 . S
C461 C459 1.415 . S
C462 H452 0.930 . S
C462 C460 1.419 . S
C462 C463 1.362 . S
C463 H453 0.930 . S
C463 C456 1.409 . S
C463 C462 1.362 . S
H464 C470 0.930 . S
H465 C473 0.930 . S
H466 C474 0.930 . S
H467 C475 0.930 . S
H468 C478 0.930 . S
H469 C479 0.930 . S
C470 H464 0.930 . S
C470 C471 1.355 . S
C470 C472 1.415 . S
C471 C470 1.355 . S
C471 C473 1.419 . S
C472 C470 1.415 . S
C472 C477 1.425 . S
C472 C479 1.409 . S
C473 H465 0.930 . S
C473 C471 1.419 . S
C473 C474 1.362 . S
C474 H466 0.930 . S
C474 C473 1.362 . S
C474 C477 1.409 . S
C475 H467 0.930 . S
C475 C476 1.355 . S
C475 C477 1.415 . S
C476 C475 1.355 . S
C476 C478 1.419 . S
C477 C472 1.425 . S
C477 C474 1.409 . S
C477 C475 1.415 . S
C478 H468 0.930 . S
C478 C476 1.419 . S
C478 C479 1.362 . S
C479 H469 0.930 . S
C479 C472 1.409 . S
C479 C478 1.362 . S
H480 C486 0.930 . S
H481 C489 0.927 1_455 S
H482 C490 0.930 . S
H483 C491 0.930 . S
H484 C494 0.927 1_655 S
H485 C495 0.930 . S
C486 H480 0.930 . S
C486 C487 1.355 . S
C486 C488 1.415 . S
C487 C486 1.355 . S
C487 C489 1.419 . S
C488 C486 1.415 . S
C488 C493 1.425 1_655 S
C488 C495 1.409 . S
C489 H481 0.927 1_655 S
C489 C487 1.419 . S
C489 C490 1.362 1_655 S
C490 H482 0.930 . S
C490 C489 1.362 1_455 S
C490 C493 1.409 . S
C491 H483 0.930 . S
C491 C492 1.355 . S
C491 C493 1.415 . S
C492 C491 1.355 . S
C492 C494 1.419 . S
C493 C488 1.425 1_455 S
C493 C490 1.409 . S
C493 C491 1.415 . S
C494 H484 0.927 1_455 S
C494 C492 1.419 . S
C494 C495 1.362 1_455 S
C495 H485 0.930 . S
C495 C488 1.409 . S
C495 C494 1.362 1_655 S
H496 C502 0.930 . S
H497 C505 0.930 . S
H498 C506 0.930 . S
H499 C507 0.930 . S
H500 C510 0.930 . S
H501 C511 0.930 . S
C502 H496 0.930 . S
C502 C503 1.355 . S
C502 C504 1.415 . S
C503 C502 1.355 . S
C503 C505 1.419 . S
C504 C502 1.415 . S
C504 C509 1.425 1_655 S
C504 C511 1.409 . S
C505 H497 0.930 . S
C505 C503 1.419 . S
C505 C506 1.362 1_655 S
C506 H498 0.930 . S
C506 C505 1.362 1_455 S
C506 C509 1.409 . S
C507 H499 0.930 . S
C507 C508 1.355 . S
C507 C509 1.415 . S
C508 C507 1.355 . S
C508 C510 1.419 . S
C509 C504 1.425 1_455 S
C509 C506 1.409 . S
C509 C507 1.415 . S
C510 H500 0.930 . S
C510 C508 1.419 . S
C510 C511 1.362 1_455 S
C511 H501 0.930 . S
C511 C504 1.409 . S
C511 C510 1.362 1_655 S
H512 C518 0.930 . S
H513 C521 0.930 . S
H514 C522 0.930 . S
H515 C523 0.930 . S
H516 C526 0.930 . S
H517 C527 0.930 . S
C518 H512 0.930 . S
C518 C519 1.355 . S
C518 C520 1.415 . S
C519 C518 1.355 . S
C519 C521 1.419 . S
C520 C518 1.415 . S
C520 C525 1.425 1_545 S
C520 C527 1.409 . S
C521 H513 0.930 . S
C521 C519 1.419 . S
C521 C522 1.362 1_545 S
C522 H514 0.930 . S
C522 C521 1.362 1_565 S
C522 C525 1.409 . S
C523 H515 0.930 . S
C523 C524 1.355 . S
C523 C525 1.415 . S
C524 C523 1.355 . S
C524 C526 1.419 . S
C525 C520 1.425 1_565 S
C525 C522 1.409 . S
C525 C523 1.415 . S
C526 H516 0.930 . S
C526 C524 1.419 . S
C526 C527 1.362 1_565 S
C527 H517 0.930 . S
C527 C520 1.409 . S
C527 C526 1.362 1_545 S
H528 C534 0.930 . S
H529 C537 0.930 . S
H530 C538 0.930 . S
H531 C539 0.930 . S
H532 C542 0.930 . S
H533 C543 0.930 . S
C534 H528 0.930 . S
C534 C535 1.355 . S
C534 C536 1.415 . S
C535 C534 1.355 . S
C535 C537 1.419 . S
C536 C534 1.415 . S
C536 C541 1.425 1_545 S
C536 C543 1.409 . S
C537 H529 0.930 . S
C537 C535 1.419 . S
C537 C538 1.362 1_545 S
C538 H530 0.930 . S
C538 C537 1.362 1_565 S
C538 C541 1.409 . S
C539 H531 0.930 . S
C539 C540 1.355 . S
C539 C541 1.415 . S
C540 C539 1.355 . S
C540 C542 1.419 . S
C541 C536 1.425 1_565 S
C541 C538 1.409 . S
C541 C539 1.415 . S
C542 H532 0.930 . S
C542 C540 1.419 . S
C542 C543 1.362 1_565 S
C543 H533 0.930 . S
C543 C536 1.409 . S
C543 C542 1.362 1_545 S
C295 C4 1.386 . S
C300 C184 1.363 . S
C311 C40 1.385 . S
C316 C220 1.365 . S
C327 C76 1.385 . S
C332 C256 1.366 . S
C343 C148 1.359 . S
C348 C112 1.369 . S
C359 C14 1.521 . S
C364 C147 1.614 . S
C375 C50 1.521 . S
C380 C183 1.614 1_565 S
C391 C219 1.643 . S
C396 C86 1.573 . S
C407 C122 1.600 . S
C412 C255 1.645 1_545 S
C423 C158 1.520 . S
C428 C3 1.613 1_655 S
C439 C39 1.607 . S
C444 C194 1.530 . S
C455 C230 1.522 . S
C460 C75 1.615 1_455 S
C471 C111 1.645 . S
C476 C266 1.581 . S
C487 C74 0.583 . S
C492 C2 0.580 . S
C503 C110 0.719 . S
C508 C38 0.717 . S
C519 C146 0.701 . S
C524 C218 0.689 . S
C535 C182 0.608 . S
C540 C254 0.596 . S
