# Generated by pormake.
# Topology dft, (4)-cn, num edge types: 1
# Building blocks:
#     Node 0, Type 0, BuildingBlock: TATPOV_clean_sbu_0, # of connection points: 4
#     Node 1, Type 0, BuildingBlock: TATPOV_clean_sbu_0, # of connection points: 4
#     Node 2, Type 0, BuildingBlock: TATPOV_clean_sbu_0, # of connection points: 4
#     Node 3, Type 0, BuildingBlock: TATPOV_clean_sbu_0, # of connection points: 4
#     Node 4, Type 0, BuildingBlock: TATPOV_clean_sbu_0, # of connection points: 4
#     Node 5, Type 0, BuildingBlock: TATPOV_clean_sbu_0, # of connection points: 4
#     Node 6, Type 0, BuildingBlock: TATPOV_clean_sbu_0, # of connection points: 4
#     Node 7, Type 0, BuildingBlock: TATPOV_clean_sbu_0, # of connection points: 4
#     Edge 8, Type (0, 0), BuildingBlock: TEMPAE_clean_linker_10, # of connection points: 2
#     Edge 9, Type (0, 0), BuildingBlock: TEMPAE_clean_linker_10, # of connection points: 2
#     Edge 10, Type (0, 0), BuildingBlock: TEMPAE_clean_linker_10, # of connection points: 2
#     Edge 11, Type (0, 0), BuildingBlock: TEMPAE_clean_linker_10, # of connection points: 2
#     Edge 12, Type (0, 0), BuildingBlock: TEMPAE_clean_linker_10, # of connection points: 2
#     Edge 13, Type (0, 0), BuildingBlock: TEMPAE_clean_linker_10, # of connection points: 2
#     Edge 14, Type (0, 0), BuildingBlock: TEMPAE_clean_linker_10, # of connection points: 2
#     Edge 15, Type (0, 0), BuildingBlock: TEMPAE_clean_linker_10, # of connection points: 2
#     Edge 16, Type (0, 0), BuildingBlock: TEMPAE_clean_linker_10, # of connection points: 2
#     Edge 17, Type (0, 0), BuildingBlock: TEMPAE_clean_linker_10, # of connection points: 2
#     Edge 18, Type (0, 0), BuildingBlock: TEMPAE_clean_linker_10, # of connection points: 2
#     Edge 19, Type (0, 0), BuildingBlock: TEMPAE_clean_linker_10, # of connection points: 2
#     Edge 20, Type (0, 0), BuildingBlock: TEMPAE_clean_linker_10, # of connection points: 2
#     Edge 21, Type (0, 0), BuildingBlock: TEMPAE_clean_linker_10, # of connection points: 2
#     Edge 22, Type (0, 0), BuildingBlock: TEMPAE_clean_linker_10, # of connection points: 2
#     Edge 23, Type (0, 0), BuildingBlock: TEMPAE_clean_linker_10, # of connection points: 2
# Relax obj value: 0.143
# Max RMSD: 0.144
# Mean RMSD: 0.144
data_MOF--net-dft--node1-TATPOV_clean_sbu_0--edge1-TEMPAE_clean_linker_10
_symmetry_space_group_name_H-M    P1
_symmetry_Int_Tables_number       1
_symmetry_cell_setting            triclinic
loop_
_symmetry_equiv_pos_as_xyz
'x, y, z'
_cell_length_a     34.107216
_cell_length_b     34.11329
_cell_length_c     41.624618
_cell_angle_alpha  90.026528
_cell_angle_beta   89.962416
_cell_angle_gamma 90.094756
loop_
_atom_site_label
_atom_site_type_symbol
_atom_site_fract_x
_atom_site_fract_y
_atom_site_fract_z
_atom_type_partial_charge
Zn0 Zn 0.23451 0.00514 0.13585 0.0
Zn1 Zn 0.29634 0.99529 0.17235 0.0
O2 O 0.26544 0.94392 0.17885 0.0
O3 O 0.21672 0.94986 0.14464 0.0
O4 O 0.34575 0.9865 0.19746 0.0
O5 O 0.26774 0.01788 0.09787 0.0
O6 O 0.31947 0.00301 0.12685 0.0
C7 C 0.23485 0.92987 0.16549 0.0
C8 C 0.23716 0.06037 0.18731 0.0
O9 O 0.26986 0.04376 0.1932 0.0
O10 O 0.21612 0.04843 0.16426 0.0
C11 C 0.3562 0.00171 0.224 0.0
O12 O 0.33239 0.0258 0.239 0.0
C13 C 0.30441 0.01329 0.10018 0.0
Zn14 Zn 0.0107 0.23825 0.64166 0.0
Zn15 Zn 0.01284 0.30068 0.67741 0.0
O16 O 0.05678 0.26606 0.69668 0.0
O17 O 0.05043 0.21147 0.66906 0.0
O18 O 0.01745 0.3507 0.70231 0.0
O19 O 0.0284 0.26775 0.60302 0.0
O20 O 0.02119 0.3217 0.63127 0.0
C21 C 0.06704 0.23075 0.69117 0.0
C22 C 0.9373 0.25282 0.67287 0.0
O23 O 0.95694 0.28006 0.68639 0.0
O24 O 0.95325 0.23186 0.65142 0.0
C25 C 4e-05 0.36082 0.728 0.0
O26 O 0.97553 0.33638 0.7419 0.0
C27 C 0.0287 0.30474 0.60473 0.0
Zn28 Zn 0.76728 0.99574 0.1394 0.0
Zn29 Zn 0.70536 0.00418 0.1758 0.0
O30 O 0.73611 0.05532 0.18388 0.0
O31 O 0.78493 0.05067 0.14958 0.0
O32 O 0.65553 0.01194 0.20064 0.0
O33 O 0.73478 0.98423 0.10086 0.0
O34 O 0.68278 0.99815 0.1299 0.0
C35 C 0.76674 0.06987 0.17092 0.0
C36 C 0.76445 0.93863 0.18935 0.0
O37 O 0.73172 0.95501 0.19562 0.0
O38 O 0.78556 0.95144 0.16666 0.0
C39 C 0.64429 0.99527 0.22636 0.0
O40 O 0.66754 0.97013 0.24074 0.0
C41 C 0.69811 0.98878 0.10308 0.0
Zn42 Zn 0.98967 0.77107 0.63786 0.0
Zn43 Zn 0.98829 0.70824 0.67348 0.0
O44 O 0.94395 0.74217 0.69297 0.0
O45 O 0.94866 0.79657 0.66493 0.0
O46 O 0.98403 0.6578 0.69773 0.0
O47 O 0.97378 0.74141 0.59875 0.0
O48 O 0.98066 0.68762 0.62719 0.0
C49 C 0.9327 0.77711 0.68726 0.0
C50 C 0.06299 0.75726 0.66987 0.0
O51 O 0.04384 0.72929 0.68286 0.0
O52 O 0.04674 0.77842 0.64873 0.0
C53 C 0.99824 0.64835 0.72485 0.0
O54 O 0.019 0.674 0.74116 0.0
C55 C 0.97378 0.70442 0.60049 0.0
Zn56 Zn 0.23386 0.97873 0.8478 0.0
Zn57 Zn 0.29599 0.98577 0.81142 0.0
O58 O 0.26539 0.03698 0.80382 0.0
O59 O 0.2169 0.03399 0.83852 0.0
O60 O 0.34558 0.99558 0.78676 0.0
O61 O 0.26614 0.96609 0.8862 0.0
O62 O 0.31854 0.97865 0.8572 0.0
C63 C 0.23534 0.05244 0.81688 0.0
C64 C 0.2359 0.92194 0.79697 0.0
O65 O 0.26942 0.93696 0.79099 0.0
O66 O 0.21504 0.93548 0.81953 0.0
C67 C 0.35918 0.97922 0.76169 0.0
O68 O 0.33916 0.9511 0.74765 0.0
C69 C 0.30294 0.9696 0.88399 0.0
Zn70 Zn -1e-05 0.23147 0.35067 0.0
Zn71 Zn 0.00811 0.29356 0.31416 0.0
O72 O 0.95942 0.26636 0.29413 0.0
O73 O 0.95628 0.2124 0.32296 0.0
O74 O 0.01553 0.34339 0.28923 0.0
O75 O 0.98782 0.26417 0.38903 0.0
O76 O 0.00148 0.3162 0.35994 0.0
C77 C 0.94347 0.23331 0.3002 0.0
C78 C 0.07442 0.23312 0.31956 0.0
O79 O 0.05966 0.26352 0.3065 0.0
O80 O 0.05523 0.21469 0.34079 0.0
C81 C 0.99878 0.35425 0.26347 0.0
O82 O 0.97387 0.33059 0.24916 0.0
C83 C 0.99207 0.30088 0.38675 0.0
Zn84 Zn 0.77057 0.02796 0.84926 0.0
Zn85 Zn 0.70752 0.02083 0.81385 0.0
O86 O 0.73809 0.96979 0.80544 0.0
O87 O 0.78759 0.97291 0.83913 0.0
O88 O 0.65724 0.01099 0.79027 0.0
O89 O 0.73913 0.03996 0.88837 0.0
O90 O 0.68619 0.02764 0.86002 0.0
C91 C 0.76864 0.95447 0.81779 0.0
C92 C 0.76681 0.08499 0.79857 0.0
O93 O 0.73324 0.06983 0.79306 0.0
O94 O 0.78822 0.07153 0.82078 0.0
C95 C 0.6449 0.0233 0.76331 0.0
O96 O 0.66689 0.04688 0.74602 0.0
C97 C 0.70228 0.03639 0.88666 0.0
Zn98 Zn 0.00577 0.76672 0.34666 0.0
Zn99 Zn 0.99625 0.70472 0.31053 0.0
O100 O 0.04442 0.73173 0.28931 0.0
O101 O 0.0486 0.78568 0.31809 0.0
O102 O 0.98795 0.65465 0.28609 0.0
O103 O 0.01916 0.73441 0.3849 0.0
O104 O 0.0039 0.6824 0.35631 0.0
C105 C 0.06065 0.76474 0.29503 0.0
C106 C 0.9303 0.76521 0.3173 0.0
O107 O 0.94454 0.73478 0.30389 0.0
O108 O 0.95026 0.78362 0.33806 0.0
C109 C 0.00454 0.64295 0.26048 0.0
O110 O 0.02986 0.66586 0.24585 0.0
C111 C 0.01435 0.69775 0.38284 0.0
C112 C 0.3141 0.03823 0.04507 0.0
C113 C 0.32809 0.01562 0.07063 0.0
C114 C 0.32707 0.03148 0.01373 0.0
C115 C 0.35473 0.00132 0.00799 0.0
C116 C 0.3738 0.98329 0.03431 0.0
C117 C 0.35995 0.99041 0.06561 0.0
C118 C 0.30695 0.05282 0.98655 0.0
C119 C 0.40569 0.95335 0.02937 0.0
C120 C 0.31117 0.94617 0.93967 0.0
C121 C 0.3263 0.96737 0.91371 0.0
C122 C 0.32448 0.95308 0.97088 0.0
C123 C 0.35381 0.98188 0.97608 0.0
C124 C 0.37356 0.99854 0.94944 0.0
C125 C 0.35929 0.99131 0.91829 0.0
C126 C 0.30328 0.93338 -0.00159 0.0
C127 C 0.40697 0.02703 0.95376 0.0
H128 H 0.29038 0.05878 0.04919 0.0
H129 H 0.3716 0.97357 0.08551 0.0
H130 H 0.32886 0.06413 0.9692 0.0
H131 H 0.28736 0.03226 0.97349 0.0
H132 H 0.28904 0.07786 -0.00476 0.0
H133 H 0.42713 0.95442 0.04943 0.0
H134 H 0.39262 0.92356 0.02907 0.0
H135 H 0.42142 0.95804 0.00633 0.0
H136 H 0.28649 0.9266 0.93593 0.0
H137 H 0.37175 0.00708 0.89809 0.0
H138 H 0.28523 0.95528 0.01145 0.0
H139 H 0.32457 0.92093 0.01569 0.0
H140 H 0.28366 0.90941 0.99011 0.0
H141 H 0.39562 0.05745 0.95243 0.0
H142 H 0.4288 0.0235 0.93415 0.0
H143 H 0.42187 0.02309 0.97723 0.0
C144 C 0.01027 0.36021 0.56856 0.0
C145 C 0.03335 0.32709 0.57473 0.0
C146 C 0.00461 0.3732 0.53684 0.0
C147 C 0.02212 0.35213 0.51128 0.0
C148 C 0.05025 0.32277 0.51814 0.0
C149 C 0.05542 0.31057 0.54987 0.0
C150 C 0.97658 0.40646 0.53068 0.0
C151 C 0.07087 0.30032 0.49179 0.0
C152 C 0.96731 0.31062 0.4419 0.0
C153 C 0.9901 0.32445 0.41635 0.0
C154 C 0.97375 0.32395 0.47318 0.0
C155 C 0.00389 0.35175 0.4789 0.0
C156 C 0.02258 0.37026 0.45257 0.0
C157 C 0.01561 0.35615 0.42133 0.0
C158 C 0.95191 0.30425 0.50037 0.0
C159 C 0.0529 0.40189 0.45744 0.0
H160 H 0.99373 0.37359 0.58792 0.0
H161 H 0.07418 0.28566 0.55488 0.0
H162 H 0.98286 0.42128 0.5075 0.0
H163 H 0.94617 0.39491 0.52987 0.0
H164 H 0.97804 0.42838 0.55039 0.0
H165 H 0.09476 0.2815 0.50127 0.0
H166 H 0.04944 0.28127 0.47913 0.0
H167 H 0.08358 0.32075 0.47389 0.0
H168 H 0.94666 0.28692 0.43782 0.0
H169 H 0.03271 0.36753 0.40143 0.0
H170 H 0.94058 0.32637 0.5175 0.0
H171 H 0.97217 0.28469 0.5137 0.0
H172 H 0.92684 0.28636 0.49163 0.0
H173 H 0.04811 0.41809 0.48024 0.0
H174 H 0.05249 0.42299 0.43712 0.0
H175 H 0.08248 0.38847 0.4582 0.0
C176 C 0.69525 0.05821 0.94297 0.0
C177 C 0.67941 0.03816 0.91668 0.0
C178 C 0.68175 0.05102 0.97408 0.0
C179 C 0.6515 0.02307 0.9789 0.0
C180 C 0.63132 0.00752 0.95204 0.0
C181 C 0.64576 0.01504 0.92098 0.0
C182 C 0.70349 0.0695 0.00189 0.0
C183 C 0.59713 0.97987 0.95597 0.0
C184 C 0.68854 0.96477 0.04772 0.0
C185 C 0.67476 0.9874 0.07336 0.0
C186 C 0.67628 0.97229 0.01632 0.0
C187 C 0.6496 0.00332 0.01064 0.0
C188 C 0.63065 0.02159 0.03694 0.0
C189 C 0.64375 0.01361 0.0683 0.0
C190 C 0.69622 0.95077 0.98912 0.0
C191 C 0.59985 0.05261 0.03197 0.0
H192 H 0.72047 0.07716 0.93949 0.0
H193 H 0.63277 0.00016 0.90056 0.0
H194 H 0.68257 0.08219 0.01939 0.0
H195 H 0.72089 0.0468 0.01457 0.0
H196 H 0.72381 0.09306 -0.00607 0.0
H197 H 0.57559 0.9841 0.93627 0.0
H198 H 0.60771 0.94919 0.95456 0.0
H199 H 0.58209 0.98402 0.97938 0.0
H200 H 0.71163 0.94353 0.05185 0.0
H201 H 0.63231 0.03054 0.08825 0.0
H202 H 0.71681 0.97088 0.97662 0.0
H203 H 0.67433 0.94057 0.97131 0.0
H204 H 0.71305 0.92496 -0.00229 0.0
H205 H 0.61397 0.08193 0.03162 0.0
H206 H 0.57832 0.05237 0.05202 0.0
H207 H 0.58404 0.04841 0.00892 0.0
C208 C 0.98909 0.64449 0.41851 0.0
C209 C 0.01625 0.67452 0.41258 0.0
C210 C 0.9816 0.6321 0.45015 0.0
C211 C 0.00146 0.65068 0.47585 0.0
C212 C 0.03334 0.67612 0.46921 0.0
C213 C 0.04025 0.68781 0.43756 0.0
C214 C 0.9494 0.60268 0.45612 0.0
C215 C 0.05653 0.69553 0.49575 0.0
C216 C 0.95055 0.69875 0.54452 0.0
C217 C 0.97023 0.68182 0.57047 0.0
C218 C 0.95646 0.68506 0.51327 0.0
C219 C 0.98282 0.65362 0.50799 0.0
C220 C 0.99805 0.63272 0.53457 0.0
C221 C 0.99171 0.64726 0.56577 0.0
C222 C 0.93842 0.70767 0.48578 0.0
C223 C 0.02423 0.59757 0.53016 0.0
H224 H 0.97102 0.63349 0.39906 0.0
H225 H 0.06212 0.71017 0.43273 0.0
H226 H 0.95417 0.58643 0.47888 0.0
H227 H 0.92089 0.61815 0.45783 0.0
H228 H 0.94737 0.58142 0.43596 0.0
H229 H 0.08297 0.71087 0.48647 0.0
H230 H 0.03781 0.71737 0.50822 0.0
H231 H 0.06596 0.67358 0.51375 0.0
H232 H 0.93297 0.72482 0.54834 0.0
H233 H 0.00638 0.63358 0.58595 0.0
H234 H 0.92466 0.68738 0.46831 0.0
H235 H 0.96161 0.72435 0.47295 0.0
H236 H 0.9158 0.72876 0.49412 0.0
H237 H 0.01878 0.5826 0.5069 0.0
H238 H 0.01983 0.57626 0.55002 0.0
H239 H 0.05533 0.60709 0.53083 0.0
C240 C 0.42157 0.96997 0.2187 0.0
C241 C 0.39711 0.99633 0.235 0.0
C242 C 0.46196 0.96914 0.2245 0.0
C243 C 0.47834 0.99511 0.24739 0.0
C244 C 0.45343 0.01933 0.26599 0.0
C245 C 0.41298 0.01979 0.25948 0.0
C246 C 0.48741 0.94264 0.20422 0.0
C247 C 0.4697 0.04669 0.29117 0.0
C248 C 0.58659 0.9757 0.26033 0.0
C249 C 0.60309 0.00019 0.23683 0.0
C250 C 0.54597 0.97587 0.26616 0.0
C251 C 0.52153 0.00082 0.24783 0.0
C252 C 0.5385 0.02773 0.22598 0.0
C253 C 0.57904 0.0272 0.22088 0.0
C254 C 0.52905 0.9475 0.29028 0.0
C255 C 0.51357 0.05501 0.20601 0.0
H256 H 0.40948 0.9512 0.20015 0.0
H257 H 0.39421 0.03993 0.27247 0.0
H258 H 0.50541 0.96068 0.18762 0.0
H259 H 0.50783 0.92575 0.21961 0.0
H260 H 0.46985 0.92167 0.1897 0.0
H261 H 0.44655 0.05691 0.30797 0.0
H262 H 0.49326 0.03224 0.30519 0.0
H263 H 0.48271 0.07274 0.27927 0.0
H264 H 0.60502 0.95506 0.27307 0.0
H265 H 0.5916 0.04673 0.20309 0.0
H266 H 0.51648 0.9219 0.27744 0.0
H267 H 0.50504 0.96133 0.30424 0.0
H268 H 0.55175 0.93667 0.30721 0.0
H269 H 0.49602 0.03763 0.18863 0.0
H270 H 0.53149 0.07654 0.19235 0.0
H271 H 0.49273 0.07129 0.22149 0.0
C272 C 0.03189 0.42637 0.72487 0.0
C273 C 0.00382 0.40185 0.73915 0.0
C274 C 0.03159 0.46685 0.73018 0.0
C275 C 0.00266 0.48327 0.7505 0.0
C276 C 0.97667 0.45833 0.76745 0.0
C277 C 0.97742 0.41776 0.76147 0.0
C278 C 0.06009 0.4923 0.71175 0.0
C279 C 0.94615 0.47468 0.79 0.0
C280 C 0.01672 0.5928 0.76151 0.0
C281 C 0.99452 0.6072 0.73572 0.0
C282 C 0.01737 0.55246 0.76852 0.0
C283 C 0.99565 0.5262 0.74906 0.0
C284 C 0.97101 0.54102 0.72458 0.0
C285 C 0.97064 0.58128 0.71834 0.0
C286 C 0.04318 0.53785 0.79537 0.0
C287 C 0.94721 0.51411 0.70328 0.0
H288 H 0.05296 0.41422 0.7081 0.0
H289 H 0.95597 0.39893 0.77296 0.0
H290 H 0.04399 0.50905 0.6931 0.0
H291 H 0.07429 0.51384 0.72797 0.0
H292 H 0.08331 0.47482 0.69972 0.0
H293 H 0.93457 0.4518 0.80648 0.0
H294 H 0.95835 0.49912 0.8045 0.0
H295 H 0.92129 0.48647 0.77583 0.0
H296 H 0.0349 0.6127 0.77532 0.0
H297 H 0.9528 0.5922 0.69875 0.0
H298 H 0.07091 0.52634 0.78513 0.0
H299 H 0.02879 0.51356 0.80864 0.0
H300 H 0.05061 0.56163 0.81257 0.0
H301 H 0.96724 0.49623 0.68822 0.0
H302 H 0.92715 0.53051 0.68714 0.0
H303 H 0.92951 0.49361 0.71803 0.0
C304 C 0.58301 0.98581 0.7713 0.0
C305 C 0.60436 0.01342 0.75345 0.0
C306 C 0.54306 0.97962 0.76571 0.0
C307 C 0.52384 0.00141 0.74148 0.0
C308 C 0.54576 0.02718 0.72171 0.0
C309 C 0.58588 0.03302 0.728 0.0
C310 C 0.52089 0.9517 0.78732 0.0
C311 C 0.52644 0.05031 0.69522 0.0
C312 C 0.41969 0.96561 0.72905 0.0
C313 C 0.39954 0.98908 0.75127 0.0
C314 C 0.45994 0.97134 0.72332 0.0
C315 C 0.48029 0.00095 0.74042 0.0
C316 C 0.45934 0.02663 0.76085 0.0
C317 C 0.41926 0.02046 0.76591 0.0
C318 C 0.48112 0.94398 0.70076 0.0
C319 C 0.47981 0.05871 0.77948 0.0
H320 H 0.59718 0.96997 0.79065 0.0
H321 H 0.60226 0.05411 0.71387 0.0
H322 H 0.50026 0.96848 0.80268 0.0
H323 H 0.50327 0.93088 0.7728 0.0
H324 H 0.54072 0.93463 0.80317 0.0
H325 H 0.54831 0.06246 0.6781 0.0
H326 H 0.50527 0.03183 0.68177 0.0
H327 H 0.50986 0.07509 0.70583 0.0
H328 H 0.40456 0.94159 0.71731 0.0
H329 H 0.40378 0.03925 0.78266 0.0
H330 H 0.49729 0.92172 0.71493 0.0
H331 H 0.5029 0.96018 0.68603 0.0
H332 H 0.46047 0.92844 0.6845 0.0
H333 H 0.49904 0.0454 0.79799 0.0
H334 H 0.45877 0.0786 0.7917 0.0
H335 H 0.49868 0.07643 0.76335 0.0
C336 C 0.97925 0.41123 0.22879 0.0
C337 C 0.00346 0.39538 0.25273 0.0
C338 C 0.97937 0.45171 0.22242 0.0
C339 C 0.00399 0.47671 0.24063 0.0
C340 C 0.03053 0.46041 0.26306 0.0
C341 C 0.03005 0.41999 0.26871 0.0
C342 C 0.95135 0.46791 0.19776 0.0
C343 C 0.05742 0.48596 0.28295 0.0
C344 C 0.02336 0.58485 0.22674 0.0
C345 C -0.0006 0.60158 0.25047 0.0
C346 C 0.02302 0.54418 0.22123 0.0
C347 C 0.99843 0.5199 0.24012 0.0
C348 C 0.97207 0.53704 0.2623 0.0
C349 C 0.97275 0.57764 0.26707 0.0
C350 C 0.05081 0.52705 0.19678 0.0
C351 C 0.94523 0.51227 0.28289 0.0
H352 H 0.95892 0.39237 0.21605 0.0
H353 H 0.04935 0.40795 0.28687 0.0
H354 H 0.92575 0.48109 0.21015 0.0
H355 H 0.96553 0.49134 0.18335 0.0
H356 H 0.94046 0.44471 0.18127 0.0
H357 H 0.07865 0.46849 0.29722 0.0
H358 H 0.07404 0.50639 0.26731 0.0
H359 H 0.03971 0.50396 0.29977 0.0
H360 H 0.04372 0.60319 0.21351 0.0
H361 H 0.95363 0.59035 0.28508 0.0
H362 H 0.03647 0.50316 0.18299 0.0
H363 H 0.07647 0.51426 0.20931 0.0
H364 H 0.06162 0.54964 0.1797 0.0
H365 H 0.92857 0.49125 0.26783 0.0
H366 H 0.92405 0.53029 0.29678 0.0
H367 H 0.96301 0.49494 0.3001 0.0
C368 C 0.13214 0.23426 0.28215 0.0
C369 C 0.11132 0.21601 0.3071 0.0
C370 C 0.16166 0.21405 0.26545 0.0
C371 C 0.16981 0.17459 0.27354 0.0
C372 C 0.1519 0.15765 0.30088 0.0
C373 C 0.12308 0.1787 0.3175 0.0
C374 C 0.1814 0.23366 0.23726 0.0
C375 C 0.15973 0.11568 0.31043 0.0
C376 C 0.18241 0.10299 0.20524 0.0
C377 C 0.22186 0.09205 0.20813 0.0
C378 C 0.16571 0.13061 0.22586 0.0
C379 C 0.18917 0.14854 0.24975 0.0
C380 C 0.22952 0.1391 0.25198 0.0
C381 C 0.24535 0.11047 0.23135 0.0
C382 C 0.1224 0.1394 0.22277 0.0
C383 C 0.25569 0.15826 0.27663 0.0
H384 H 0.12388 0.26343 0.2744 0.0
H385 H 0.10773 0.16458 0.33716 0.0
H386 H 0.2129 0.22568 0.23612 0.0
H387 H 0.16743 0.22358 0.21464 0.0
H388 H 0.17878 0.26608 0.23851 0.0
H389 H 0.14801 0.10881 0.33469 0.0
H390 H 0.14557 0.09573 0.29282 0.0
H391 H 0.1916 0.10944 0.31016 0.0
H392 H 0.16395 0.08899 0.1874 0.0
H393 H 0.27595 0.10235 0.23357 0.0
H394 H 0.11786 0.17119 0.21873 0.0
H395 H 0.10705 0.13145 0.24537 0.0
H396 H 0.10846 0.1231 0.20267 0.0
H397 H 0.24865 0.18984 0.2793 0.0
H398 H 0.28717 0.15527 0.27022 0.0
H399 H 0.25105 0.14409 0.3003 0.0
C400 C 0.88341 0.25703 0.71378 0.0
C401 C 0.8981 0.24134 0.68505 0.0
C402 C 0.85219 0.23869 0.72994 0.0
C403 C 0.836 0.20371 0.71723 0.0
C404 C 0.84717 0.19106 0.68618 0.0
C405 C 0.87797 0.2102 0.67037 0.0
C406 C 0.83984 0.25408 0.76236 0.0
C407 C 0.8305 0.15414 0.67149 0.0
C408 C 0.82378 0.12087 0.77638 0.0
C409 C 0.78297 0.11652 0.77811 0.0
C410 C 0.84097 0.14947 0.757 0.0
C411 C 0.81679 0.17516 0.73914 0.0
C412 C 0.77544 0.17158 0.74112 0.0
C413 C 0.75891 0.14189 0.76044 0.0
C414 C 0.88525 0.15148 0.75516 0.0
C415 C 0.7488 0.19929 0.72327 0.0
H416 H 0.89814 0.2817 0.72495 0.0
H417 H 0.88835 0.19853 0.64768 0.0
H418 H 0.80779 0.25048 0.76593 0.0
H419 H 0.85497 0.23722 0.78147 0.0
H420 H 0.84762 0.28552 0.76527 0.0
H421 H 0.83634 0.15255 0.64526 0.0
H422 H 0.84425 0.12828 0.68309 0.0
H423 H 0.79843 0.15214 0.67552 0.0
H424 H 0.84258 0.10116 0.78975 0.0
H425 H 0.72733 0.13883 0.762 0.0
H426 H 0.89565 0.18069 0.76321 0.0
H427 H 0.89505 0.14739 0.72996 0.0
H428 H 0.89966 0.12884 0.77025 0.0
H429 H 0.75101 0.2289 0.73416 0.0
H430 H 0.71767 0.18972 0.72418 0.0
H431 H 0.75787 0.20202 0.69778 0.0
C432 C 0.87083 0.7637 0.28184 0.0
C433 C 0.89299 0.78235 0.30579 0.0
C434 C 0.84064 0.78375 0.26588 0.0
C435 C 0.83323 0.82346 0.27363 0.0
C436 C 0.85258 0.84087 0.3001 0.0
C437 C 0.882 0.81996 0.31604 0.0
C438 C 0.81929 0.76364 0.23874 0.0
C439 C 0.84553 0.88311 0.30928 0.0
C440 C 0.81873 0.8942 0.20511 0.0
C441 C 0.77976 0.90623 0.20938 0.0
C442 C 0.83577 0.8663 0.22524 0.0
C443 C 0.81313 0.8492 0.25007 0.0
C444 C 0.77312 0.8595 0.25355 0.0
C445 C 0.75696 0.88838 0.23336 0.0
C446 C 0.87869 0.85655 0.22075 0.0
C447 C 0.74773 0.84119 0.27917 0.0
H448 H 0.87848 0.73428 0.27425 0.0
H449 H 0.8984 0.8344 0.33497 0.0
H450 H 0.78785 0.77199 0.23855 0.0
H451 H 0.83224 0.7729 0.21549 0.0
H452 H 0.82157 0.73123 0.2405 0.0
H453 H 0.85873 0.89053 0.33291 0.0
H454 H 0.85868 0.90256 0.29079 0.0
H455 H 0.81371 0.8895 0.31024 0.0
H456 H 0.83663 0.90762 0.1866 0.0
H457 H 0.72673 0.89728 0.23665 0.0
H458 H 0.88238 0.82459 0.21696 0.0
H459 H 0.89534 0.86461 0.24268 0.0
H460 H 0.89192 0.87216 0.19997 0.0
H461 H 0.75498 0.80976 0.28259 0.0
H462 H 0.71609 0.84378 0.27322 0.0
H463 H 0.75282 0.85642 0.30234 0.0
C464 C 0.11766 0.75182 0.70996 0.0
C465 C 0.10204 0.76901 0.68218 0.0
C466 C 0.1491 0.76958 0.72626 0.0
C467 C 0.16446 0.80553 0.71477 0.0
C468 C 0.15221 0.81998 0.68457 0.0
C469 C 0.12128 0.80138 0.66853 0.0
C470 C 0.16296 0.75217 0.75754 0.0
C471 C 0.16821 0.85787 0.67112 0.0
C472 C 0.17845 0.88519 0.77655 0.0
C473 C 0.21921 0.89045 0.77673 0.0
C474 C 0.16073 0.8571 0.75696 0.0
C475 C 0.18436 0.83275 0.73739 0.0
C476 C 0.22573 0.83679 0.73821 0.0
C477 C 0.24272 0.86618 0.75754 0.0
C478 C 0.11643 0.85447 0.75656 0.0
C479 C 0.25209 0.8109 0.71832 0.0
H480 H 0.10368 0.72619 0.72028 0.0
H481 H 0.11019 0.81424 0.64653 0.0
H482 H 0.19518 0.75561 0.76015 0.0
H483 H 0.14881 0.76779 0.77785 0.0
H484 H 0.15532 0.72057 0.75935 0.0
H485 H 0.16007 0.86201 0.64551 0.0
H486 H 0.15632 0.88285 0.68516 0.0
H487 H 0.2006 0.85875 0.67319 0.0
H488 H 0.16 0.90397 0.79115 0.0
H489 H 0.27428 0.86998 0.75774 0.0
H490 H 0.10686 0.82464 0.76372 0.0
H491 H 0.10533 0.8599 0.73191 0.0
H492 H 0.10246 0.87594 0.77305 0.0
H493 H 0.23959 0.78105 0.71541 0.0
H494 H 0.28168 0.80842 0.72927 0.0
H495 H 0.25567 0.82392 0.69409 0.0
C496 C 0.76617 0.89804 0.7792 0.0
C497 C 0.78495 0.91761 0.80456 0.0
C498 C 0.78526 0.86796 0.76231 0.0
C499 C 0.82411 0.85772 0.77079 0.0
C500 C 0.8417 0.87484 0.7982 0.0
C501 C 0.8218 0.90441 0.81487 0.0
C502 C 0.76514 0.84962 0.73373 0.0
C503 C 0.88312 0.86486 0.80804 0.0
C504 C 0.88149 0.77538 0.73084 0.0
C505 C 0.90249 0.79627 0.70741 0.0
C506 C 0.85445 0.79455 0.75097 0.0
C507 C 0.84895 0.83551 0.74783 0.0
C508 C 0.86941 0.85644 0.72372 0.0
C509 C 0.89563 0.83655 0.70373 0.0
C510 C 0.83256 0.77123 0.77604 0.0
C511 C 0.86471 0.90024 0.71968 0.0
H512 H 0.73741 0.90758 0.77139 0.0
H513 H 0.83636 0.91893 0.83474 0.0
H514 H 0.7769 0.86278 0.71133 0.0
H515 H 0.77088 0.81764 0.73273 0.0
H516 H 0.73295 0.85451 0.73429 0.0
H517 H 0.89035 0.87628 0.83233 0.0
H518 H 0.88772 0.8327 0.80787 0.0
H519 H 0.90396 0.87789 0.79054 0.0
H520 H 0.88646 0.7442 0.73369 0.0
H521 H 0.91162 0.853 0.6857 0.0
H522 H 0.80086 0.77844 0.77547 0.0
H523 H 0.8436 0.77902 0.80028 0.0
H524 H 0.83611 0.73914 0.77258 0.0
H525 H 0.83346 0.9076 0.71555 0.0
H526 H 0.88221 0.91193 0.69929 0.0
H527 H 0.87408 0.91548 0.74195 0.0
C528 C 0.17997 0.88144 0.16631 0.0
C529 C 0.21725 0.89278 0.17718 0.0
C530 C 0.15851 0.85229 0.18225 0.0
C531 C 0.17499 0.83366 0.20942 0.0
C532 C 0.21442 0.84146 0.21795 0.0
C533 C 0.23505 0.87126 0.20189 0.0
C534 C 0.1166 0.84487 0.17224 0.0
C535 C 0.23351 0.8211 0.24603 0.0
C536 C 0.10294 0.81996 0.27731 0.0
C537 C 0.09209 0.78047 0.27412 0.0
C538 C 0.13053 0.83704 0.25684 0.0
C539 C 0.14851 0.81396 0.23274 0.0
C540 C 0.13903 0.77363 0.23008 0.0
C541 C 0.11046 0.75739 0.25062 0.0
C542 C 0.13937 0.88031 0.26041 0.0
C543 C 0.15819 0.74792 0.20513 0.0
H544 H 0.16618 0.89734 0.14682 0.0
H545 H 0.2642 0.87921 0.21002 0.0
H546 H 0.10994 0.81306 0.1723 0.0
H547 H 0.09655 0.85913 0.1897 0.0
H548 H 0.11027 0.85679 0.14796 0.0
H549 H 0.26597 0.82359 0.24509 0.0
H550 H 0.22324 0.8347 0.26874 0.0
H551 H 0.22528 0.78962 0.24667 0.0
H552 H 0.08896 0.83813 0.29534 0.0
H553 H 0.10239 0.72679 0.24813 0.0
H554 H 0.13164 0.89597 0.23794 0.0
H555 H 0.17115 0.88483 0.26466 0.0
H556 H 0.12295 0.89395 0.28057 0.0
H557 H 0.14481 0.75371 0.18133 0.0
H558 H 0.15434 0.71629 0.21069 0.0
H559 H 0.18999 0.75444 0.20319 0.0
C560 C 0.12033 0.23219 0.73298 0.0
C561 C 0.09717 0.21117 0.71105 0.0
C562 C 0.148 0.21285 0.75238 0.0
C563 C 0.15196 0.17163 0.75003 0.0
C564 C 0.12901 0.15048 0.72762 0.0
C565 C 0.10217 0.1705 0.70833 0.0
C566 C 0.17248 0.23634 0.77566 0.0
C567 C 0.13199 0.10641 0.72452 0.0
C568 C 0.23584 0.108 0.77748 0.0
C569 C 0.21888 0.08949 0.80419 0.0
C570 C 0.21599 0.13809 0.76125 0.0
C571 C 0.17827 0.14954 0.77189 0.0
C572 C 0.1628 0.1336 0.8006 0.0
C573 C 0.18339 0.10389 0.81649 0.0
C574 C 0.23385 0.15502 0.73111 0.0
C575 C 0.12267 0.14495 0.8128 0.0
H576 H 0.11677 0.26365 0.73506 0.0
H577 H 0.08441 0.15395 0.69152 0.0
H578 H 0.16429 0.2286 0.80066 0.0
H579 H 0.20399 0.22915 0.77266 0.0
H580 H 0.16855 0.26842 0.77243 0.0
H581 H 0.11236 0.0945 0.70557 0.0
H582 H 0.16255 0.09788 0.71871 0.0
H583 H 0.1242 0.09235 0.7477 0.0
H584 H 0.26355 0.09751 0.76807 0.0
H585 H 0.1703 0.09024 0.83743 0.0
H586 H 0.22881 0.1871 0.72978 0.0
H587 H 0.21974 0.14148 0.7098 0.0
H588 H 0.26588 0.14933 0.72976 0.0
H589 H 0.11867 0.17718 0.81196 0.0
H590 H 0.1176 0.13475 0.83781 0.0
H591 H 0.09996 0.13161 0.79712 0.0
C592 C 0.90186 0.17765 0.28235 0.0
C593 C 0.91152 0.21751 0.27989 0.0
C594 C 0.87372 0.16064 0.26234 0.0
C595 C 0.854 0.18417 0.23952 0.0
C596 C 0.86234 0.22481 0.23765 0.0
C597 C 0.89147 0.241 0.25765 0.0
C598 C 0.86617 0.11705 0.26496 0.0
C599 C 0.84123 0.25093 0.21411 0.0
C600 C 0.8209 0.11907 0.17197 0.0
C601 C 0.78428 0.10657 0.18349 0.0
C602 C 0.84254 0.14777 0.18826 0.0
C603 C 0.82692 0.16475 0.21651 0.0
C604 C 0.78807 0.15573 0.22599 0.0
C605 C 0.76723 0.12643 0.20949 0.0
C606 C 0.88387 0.15645 0.17728 0.0
C607 C 0.76991 0.17419 0.25538 0.0
H608 H 0.91719 0.15919 0.29939 0.0
H609 H 0.89862 0.27188 0.25578 0.0
H610 H 0.83473 0.1115 0.27004 0.0
H611 H 0.8733 0.1025 0.24184 0.0
H612 H 0.88384 0.10308 0.28422 0.0
H613 H 0.84609 0.28249 0.2194 0.0
H614 H 0.85193 0.24489 0.18944 0.0
H615 H 0.80926 0.24485 0.21443 0.0
H616 H 0.83408 0.10446 0.15152 0.0
H617 H 0.73861 0.11754 0.2182 0.0
H618 H 0.90489 0.14158 0.19355 0.0
H619 H 0.89008 0.18832 0.17832 0.0
H620 H 0.88929 0.14596 0.15239 0.0
H621 H 0.7814 0.15954 0.27723 0.0
H622 H 0.73747 0.17116 0.25534 0.0
H623 H 0.77764 0.20574 0.257 0.0
loop_
_geom_bond_atom_site_label_1
_geom_bond_atom_site_label_2
_geom_bond_distance
_geom_bond_site_symmetry_2
_ccdc_geom_bond_type
Zn0 O3 2.031 . S
Zn0 O5 2.049 1_565 S
Zn0 O10 2.067 1_565 S
Zn1 O2 1.962 . S
Zn1 O4 1.986 . S
Zn1 O6 1.996 . S
Zn1 O9 1.943 1_565 S
O2 Zn1 1.962 . S
O2 C7 1.254 . S
O3 Zn0 2.031 . S
O3 C7 1.269 . S
O4 Zn1 1.986 . S
O4 C11 1.262 . S
O5 Zn0 2.049 1_545 S
O5 C13 1.260 . S
O6 Zn1 1.996 . S
O6 C13 1.257 1_565 S
C7 O2 1.254 . S
C7 O3 1.269 . S
C8 O9 1.249 . S
C8 O10 1.270 . S
O9 Zn1 1.943 1_545 S
O9 C8 1.249 . S
O10 Zn0 2.067 1_545 S
O10 C8 1.270 . S
C11 O4 1.262 . S
C11 O12 1.232 . S
O12 C11 1.232 . S
C13 O5 1.260 . S
C13 O6 1.257 1_545 S
Zn14 O17 2.031 . S
Zn14 O19 2.049 1_455 S
Zn14 O24 2.067 1_455 S
Zn15 O16 1.962 . S
Zn15 O18 1.986 . S
Zn15 O20 1.996 . S
Zn15 O23 1.943 1_455 S
O16 Zn15 1.962 . S
O16 C21 1.254 . S
O17 Zn14 2.031 . S
O17 C21 1.269 . S
O18 Zn15 1.986 . S
O18 C25 1.262 . S
O19 Zn14 2.049 1_655 S
O19 C27 1.264 . S
O20 Zn15 1.996 . S
O20 C27 1.249 1_455 S
C21 O16 1.254 . S
C21 O17 1.269 . S
C22 O23 1.249 . S
C22 O24 1.270 . S
O23 Zn15 1.943 1_655 S
O23 C22 1.249 . S
O24 Zn14 2.067 1_655 S
O24 C22 1.270 . S
C25 O18 1.262 . S
C25 O26 1.232 . S
O26 C25 1.232 . S
C27 O19 1.264 . S
C27 O20 1.249 1_655 S
Zn28 O31 2.031 . S
Zn28 O33 2.049 1_545 S
Zn28 O38 2.067 1_545 S
Zn29 O30 1.962 . S
Zn29 O32 1.986 . S
Zn29 O34 1.996 . S
Zn29 O37 1.943 1_545 S
O30 Zn29 1.962 . S
O30 C35 1.254 . S
O31 Zn28 2.031 . S
O31 C35 1.269 . S
O32 Zn29 1.986 . S
O32 C39 1.262 . S
O33 Zn28 2.049 1_565 S
O33 C41 1.264 . S
O34 Zn29 1.996 . S
O34 C41 1.249 1_545 S
C35 O30 1.254 . S
C35 O31 1.269 . S
C36 O37 1.249 . S
C36 O38 1.270 . S
O37 Zn29 1.943 1_565 S
O37 C36 1.249 . S
O38 Zn28 2.067 1_565 S
O38 C36 1.270 . S
C39 O32 1.262 . S
C39 O40 1.232 . S
O40 C39 1.232 . S
C41 O33 1.264 . S
C41 O34 1.249 1_565 S
Zn42 O45 2.031 . S
Zn42 O47 2.049 1_655 S
Zn42 O52 2.067 1_655 S
Zn43 O44 1.962 . S
Zn43 O46 1.986 . S
Zn43 O48 1.996 . S
Zn43 O51 1.943 1_655 S
O44 Zn43 1.962 . S
O44 C49 1.254 . S
O45 Zn42 2.031 . S
O45 C49 1.269 . S
O46 Zn43 1.986 . S
O46 C53 1.262 . S
O47 Zn42 2.049 1_455 S
O47 C55 1.260 . S
O48 Zn43 1.996 . S
O48 C55 1.257 1_655 S
C49 O44 1.254 . S
C49 O45 1.269 . S
C50 O51 1.249 . S
C50 O52 1.270 . S
O51 Zn43 1.943 1_455 S
O51 C50 1.249 . S
O52 Zn42 2.067 1_455 S
O52 C50 1.270 . S
C53 O46 1.262 . S
C53 O54 1.232 . S
O54 C53 1.232 . S
C55 O47 1.260 . S
C55 O48 1.257 1_455 S
Zn56 O59 2.031 . S
Zn56 O61 2.049 1_545 S
Zn56 O66 2.067 1_545 S
Zn57 O58 1.962 . S
Zn57 O60 1.986 . S
Zn57 O62 1.996 . S
Zn57 O65 1.943 1_545 S
O58 Zn57 1.962 . S
O58 C63 1.254 . S
O59 Zn56 2.031 . S
O59 C63 1.269 . S
O60 Zn57 1.986 . S
O60 C67 1.262 . S
O61 Zn56 2.049 1_565 S
O61 C69 1.264 . S
O62 Zn57 1.996 . S
O62 C69 1.249 1_545 S
C63 O58 1.254 . S
C63 O59 1.269 . S
C64 O65 1.249 . S
C64 O66 1.270 . S
O65 Zn57 1.943 1_565 S
O65 C64 1.249 . S
O66 Zn56 2.067 1_565 S
O66 C64 1.270 . S
C67 O60 1.262 . S
C67 O68 1.232 . S
O68 C67 1.232 . S
C69 O61 1.264 . S
C69 O62 1.249 1_565 S
Zn70 O73 2.031 . S
Zn70 O75 2.049 1_655 S
Zn70 O80 2.067 1_655 S
Zn71 O72 1.962 . S
Zn71 O74 1.986 . S
Zn71 O76 1.996 . S
Zn71 O79 1.943 1_655 S
O72 Zn71 1.962 . S
O72 C77 1.254 . S
O73 Zn70 2.031 . S
O73 C77 1.269 . S
O74 Zn71 1.986 . S
O74 C81 1.262 . S
O75 Zn70 2.049 1_455 S
O75 C83 1.260 . S
O76 Zn71 1.996 . S
O76 C83 1.257 1_655 S
C77 O72 1.254 . S
C77 O73 1.269 . S
C78 O79 1.249 . S
C78 O80 1.270 . S
O79 Zn71 1.943 1_455 S
O79 C78 1.249 . S
O80 Zn70 2.067 1_455 S
O80 C78 1.270 . S
C81 O74 1.262 . S
C81 O82 1.232 . S
O82 C81 1.232 . S
C83 O75 1.260 . S
C83 O76 1.257 1_455 S
Zn84 O87 2.031 . S
Zn84 O89 2.049 1_565 S
Zn84 O94 2.067 1_565 S
Zn85 O86 1.962 . S
Zn85 O88 1.986 . S
Zn85 O90 1.996 . S
Zn85 O93 1.943 1_565 S
O86 Zn85 1.962 . S
O86 C91 1.254 . S
O87 Zn84 2.031 . S
O87 C91 1.269 . S
O88 Zn85 1.986 . S
O88 C95 1.262 . S
O89 Zn84 2.049 1_545 S
O89 C97 1.260 . S
O90 Zn85 1.996 . S
O90 C97 1.257 1_565 S
C91 O86 1.254 . S
C91 O87 1.269 . S
C92 O93 1.249 . S
C92 O94 1.270 . S
O93 Zn85 1.943 1_545 S
O93 C92 1.249 . S
O94 Zn84 2.067 1_545 S
O94 C92 1.270 . S
C95 O88 1.262 . S
C95 O96 1.232 . S
O96 C95 1.232 . S
C97 O89 1.260 . S
C97 O90 1.257 1_545 S
Zn98 O101 2.031 . S
Zn98 O103 2.049 1_455 S
Zn98 O108 2.067 1_455 S
Zn99 O100 1.962 . S
Zn99 O102 1.986 . S
Zn99 O104 1.996 . S
Zn99 O107 1.943 1_455 S
O100 Zn99 1.962 . S
O100 C105 1.254 . S
O101 Zn98 2.031 . S
O101 C105 1.269 . S
O102 Zn99 1.986 . S
O102 C109 1.262 . S
O103 Zn98 2.049 1_655 S
O103 C111 1.264 . S
O104 Zn99 1.996 . S
O104 C111 1.249 1_455 S
C105 O100 1.254 . S
C105 O101 1.269 . S
C106 O107 1.249 . S
C106 O108 1.270 . S
O107 Zn99 1.943 1_655 S
O107 C106 1.249 . S
O108 Zn98 2.067 1_655 S
O108 C106 1.270 . S
C109 O102 1.262 . S
C109 O110 1.232 . S
O110 C109 1.232 . S
C111 O103 1.264 . S
C111 O104 1.249 1_655 S
C112 C113 1.391 . S
C112 C114 1.394 . S
C112 H128 0.931 . S
C113 C112 1.391 . S
C113 C117 1.376 1_545 S
C114 C112 1.394 . S
C114 C115 1.369 . S
C114 C118 1.531 . S
C115 C114 1.369 . S
C115 C116 1.410 1_545 S
C115 C123 1.503 1_554 S
C116 C115 1.410 1_565 S
C116 C117 1.392 . S
C116 C119 1.511 . S
C117 C113 1.376 1_565 S
C117 C116 1.392 . S
C117 H129 0.929 . S
C118 C114 1.531 . S
C118 H130 0.960 1_554 S
C118 H131 0.962 . S
C118 H132 0.960 . S
C119 C116 1.511 . S
C119 H133 0.961 . S
C119 H134 0.961 1_554 S
C119 H135 0.961 . S
C120 C121 1.370 . S
C120 C122 1.363 . S
C120 H136 0.931 . S
C121 C120 1.370 . S
C121 C125 1.408 1_565 S
C122 C120 1.363 . S
C122 C123 1.370 1_565 S
C122 C126 1.524 . S
C123 C115 1.503 1_556 S
C123 C122 1.370 1_545 S
C123 C124 1.403 . S
C124 C123 1.403 . S
C124 C125 1.404 . S
C124 C127 1.539 . S
C125 C121 1.408 1_545 S
C125 C124 1.404 . S
C125 H137 0.930 . S
C126 C122 1.524 . S
C126 H138 0.959 . S
C126 H139 0.961 1_556 S
C126 H140 0.961 . S
C127 C124 1.539 . S
C127 H141 0.958 . S
C127 H142 0.961 . S
C127 H143 0.960 . S
H128 C112 0.931 . S
H129 C117 0.929 . S
H130 C118 0.960 1_556 S
H131 C118 0.962 . S
H132 C118 0.960 . S
H133 C119 0.961 . S
H134 C119 0.961 1_556 S
H135 C119 0.961 . S
H136 C120 0.931 . S
H137 C125 0.930 . S
H138 C126 0.959 . S
H139 C126 0.961 1_554 S
H140 C126 0.961 . S
H141 C127 0.958 . S
H142 C127 0.961 . S
H143 C127 0.960 . S
C144 C145 1.395 . S
C144 C146 1.394 . S
C144 H160 0.931 . S
C145 C144 1.395 . S
C145 C149 1.370 1_655 S
C146 C144 1.394 . S
C146 C147 1.369 1_655 S
C146 C150 1.531 . S
C147 C146 1.369 1_455 S
C147 C148 1.410 . S
C147 C155 1.503 . S
C148 C147 1.410 . S
C148 C149 1.392 . S
C148 C151 1.511 . S
C149 C145 1.370 1_455 S
C149 C148 1.392 . S
C149 H161 0.929 . S
C150 C146 1.531 . S
C150 H162 0.960 . S
C150 H163 0.962 . S
C150 H164 0.960 . S
C151 C148 1.511 . S
C151 H165 0.961 . S
C151 H166 0.961 . S
C151 H167 0.961 . S
C152 C153 1.370 1_655 S
C152 C154 1.363 . S
C152 H168 0.931 . S
C153 C152 1.370 1_455 S
C153 C157 1.408 . S
C154 C152 1.363 . S
C154 C155 1.370 1_655 S
C154 C158 1.524 . S
C155 C147 1.503 . S
C155 C154 1.370 1_455 S
C155 C156 1.403 . S
C156 C155 1.403 . S
C156 C157 1.404 . S
C156 C159 1.539 . S
C157 C153 1.408 . S
C157 C156 1.404 . S
C157 H169 0.930 . S
C158 C154 1.524 . S
C158 H170 0.956 . S
C158 H171 0.961 . S
C158 H172 0.961 . S
C159 C156 1.539 . S
C159 H173 0.958 . S
C159 H174 0.961 . S
C159 H175 0.960 . S
H160 C144 0.931 . S
H161 C149 0.929 . S
H162 C150 0.960 . S
H163 C150 0.962 . S
H164 C150 0.960 . S
H165 C151 0.961 . S
H166 C151 0.961 . S
H167 C151 0.961 . S
H168 C152 0.931 . S
H169 C157 0.930 . S
H170 C158 0.956 . S
H171 C158 0.961 . S
H172 C158 0.961 . S
H173 C159 0.958 . S
H174 C159 0.961 . S
H175 C159 0.960 . S
C176 C177 1.391 . S
C176 C178 1.394 . S
C176 H192 0.931 . S
C177 C176 1.391 . S
C177 C181 1.376 1_545 S
C178 C176 1.394 . S
C178 C179 1.369 . S
C178 C182 1.531 . S
C179 C178 1.369 . S
C179 C180 1.410 1_545 S
C179 C187 1.503 1_556 S
C180 C179 1.410 1_565 S
C180 C181 1.392 . S
C180 C183 1.511 . S
C181 C177 1.376 1_565 S
C181 C180 1.392 . S
C181 H193 0.929 . S
C182 C178 1.531 . S
C182 H194 0.960 1_556 S
C182 H195 0.962 . S
C182 H196 0.960 . S
C183 C180 1.511 . S
C183 H197 0.961 . S
C183 H198 0.961 1_556 S
C183 H199 0.961 . S
C184 C185 1.370 . S
C184 C186 1.363 . S
C184 H200 0.931 . S
C185 C184 1.370 . S
C185 C189 1.408 1_565 S
C186 C184 1.363 . S
C186 C187 1.370 1_565 S
C186 C190 1.524 . S
C187 C179 1.503 1_554 S
C187 C186 1.370 1_545 S
C187 C188 1.403 . S
C188 C187 1.403 . S
C188 C189 1.404 . S
C188 C191 1.539 . S
C189 C185 1.408 1_545 S
C189 C188 1.404 . S
C189 H201 0.930 . S
C190 C186 1.524 . S
C190 H202 0.963 . S
C190 H203 0.961 1_554 S
C190 H204 0.961 . S
C191 C188 1.539 . S
C191 H205 0.958 . S
C191 H206 0.961 . S
C191 H207 0.960 . S
H192 C176 0.931 . S
H193 C181 0.929 . S
H194 C182 0.960 1_554 S
H195 C182 0.962 . S
H196 C182 0.960 . S
H197 C183 0.961 . S
H198 C183 0.961 1_554 S
H199 C183 0.961 . S
H200 C184 0.931 . S
H201 C189 0.930 . S
H202 C190 0.963 . S
H203 C190 0.961 1_556 S
H204 C190 0.961 . S
H205 C191 0.958 . S
H206 C191 0.961 . S
H207 C191 0.960 . S
C208 C209 1.396 . S
C208 C210 1.394 . S
C208 H224 0.931 . S
C209 C208 1.396 . S
C209 C213 1.369 1_655 S
C210 C208 1.394 . S
C210 C211 1.369 1_655 S
C210 C214 1.531 . S
C211 C210 1.369 1_455 S
C211 C212 1.410 . S
C211 C219 1.503 . S
C212 C211 1.410 . S
C212 C213 1.392 . S
C212 C215 1.511 . S
C213 C209 1.369 1_455 S
C213 C212 1.392 . S
C213 H225 0.929 . S
C214 C210 1.531 . S
C214 H226 0.960 . S
C214 H227 0.962 . S
C214 H228 0.960 . S
C215 C212 1.511 . S
C215 H229 0.961 . S
C215 H230 0.961 . S
C215 H231 0.961 . S
C216 C217 1.370 1_655 S
C216 C218 1.363 . S
C216 H232 0.931 . S
C217 C216 1.370 1_455 S
C217 C221 1.408 . S
C218 C216 1.363 . S
C218 C219 1.370 1_655 S
C218 C222 1.524 . S
C219 C211 1.503 . S
C219 C218 1.370 1_455 S
C219 C220 1.403 . S
C220 C219 1.403 . S
C220 C221 1.404 . S
C220 C223 1.539 . S
C221 C217 1.408 . S
C221 C220 1.404 . S
C221 H233 0.930 . S
C222 C218 1.524 . S
C222 H234 0.956 . S
C222 H235 0.961 . S
C222 H236 0.961 . S
C223 C220 1.539 . S
C223 H237 0.958 . S
C223 H238 0.961 . S
C223 H239 0.960 . S
H224 C208 0.931 . S
H225 C213 0.929 . S
H226 C214 0.960 . S
H227 C214 0.962 . S
H228 C214 0.960 . S
H229 C215 0.961 . S
H230 C215 0.961 . S
H231 C215 0.961 . S
H232 C216 0.931 . S
H233 C221 0.930 . S
H234 C222 0.956 . S
H235 C222 0.961 . S
H236 C222 0.961 . S
H237 C223 0.958 . S
H238 C223 0.961 . S
H239 C223 0.960 . S
C240 C241 1.391 1_565 S
C240 C242 1.394 . S
C240 H256 0.931 . S
C241 C240 1.391 1_545 S
C241 C245 1.376 . S
C242 C240 1.394 . S
C242 C243 1.369 1_565 S
C242 C246 1.531 . S
C243 C242 1.369 1_545 S
C243 C244 1.410 . S
C243 C251 1.503 . S
C244 C243 1.410 . S
C244 C245 1.392 . S
C244 C247 1.511 . S
C245 C241 1.376 . S
C245 C244 1.392 . S
C245 H257 0.929 . S
C246 C242 1.531 . S
C246 H258 0.960 . S
C246 H259 0.962 . S
C246 H260 0.960 . S
C247 C244 1.511 . S
C247 H261 0.961 . S
C247 H262 0.961 . S
C247 H263 0.961 . S
C248 C249 1.370 1_565 S
C248 C250 1.363 . S
C248 H264 0.931 . S
C249 C248 1.370 1_545 S
C249 C253 1.408 . S
C250 C248 1.363 . S
C250 C251 1.370 1_565 S
C250 C254 1.524 . S
C251 C243 1.503 . S
C251 C250 1.370 1_545 S
C251 C252 1.403 . S
C252 C251 1.403 . S
C252 C253 1.404 . S
C252 C255 1.539 . S
C253 C249 1.408 . S
C253 C252 1.404 . S
C253 H265 0.930 . S
C254 C250 1.524 . S
C254 H266 0.956 . S
C254 H267 0.961 . S
C254 H268 0.961 . S
C255 C252 1.539 . S
C255 H269 0.958 . S
C255 H270 0.961 . S
C255 H271 0.960 . S
H256 C240 0.931 . S
H257 C245 0.929 . S
H258 C246 0.960 . S
H259 C246 0.962 . S
H260 C246 0.960 . S
H261 C247 0.961 . S
H262 C247 0.961 . S
H263 C247 0.961 . S
H264 C248 0.931 . S
H265 C253 0.930 . S
H266 C254 0.956 . S
H267 C254 0.961 . S
H268 C254 0.961 . S
H269 C255 0.958 . S
H270 C255 0.961 . S
H271 C255 0.960 . S
C272 C273 1.409 . S
C272 C274 1.394 . S
C272 H288 0.931 . S
C273 C272 1.409 . S
C273 C277 1.357 1_455 S
C274 C272 1.394 . S
C274 C275 1.369 1_455 S
C274 C278 1.531 . S
C275 C274 1.369 1_655 S
C275 C276 1.410 . S
C275 C283 1.504 . S
C276 C275 1.410 . S
C276 C277 1.392 . S
C276 C279 1.511 . S
C277 C273 1.357 1_655 S
C277 C276 1.392 . S
C277 H289 0.929 . S
C278 C274 1.531 . S
C278 H290 0.960 . S
C278 H291 0.962 . S
C278 H292 0.960 . S
C279 C276 1.511 . S
C279 H293 0.961 . S
C279 H294 0.961 . S
C279 H295 0.961 . S
C280 C281 1.367 1_455 S
C280 C282 1.363 . S
C280 H296 0.931 . S
C281 C280 1.367 1_655 S
C281 C285 1.412 . S
C282 C280 1.363 . S
C282 C283 1.363 1_455 S
C282 C286 1.524 . S
C283 C275 1.504 . S
C283 C282 1.363 1_655 S
C283 C284 1.410 . S
C284 C283 1.410 . S
C284 C285 1.404 . S
C284 C287 1.539 . S
C285 C281 1.412 . S
C285 C284 1.404 . S
C285 H297 0.930 . S
C286 C282 1.524 . S
C286 H298 0.956 . S
C286 H299 0.978 . S
C286 H300 0.961 . S
C287 C284 1.539 . S
C287 H301 0.958 . S
C287 H302 0.961 . S
C287 H303 0.960 . S
H288 C272 0.931 . S
H289 C277 0.929 . S
H290 C278 0.960 . S
H291 C278 0.962 . S
H292 C278 0.960 . S
H293 C279 0.961 . S
H294 C279 0.961 . S
H295 C279 0.961 . S
H296 C280 0.931 . S
H297 C285 0.930 . S
H298 C286 0.956 . S
H299 C286 0.978 . S
H300 C286 0.961 . S
H301 C287 0.958 . S
H302 C287 0.961 . S
H303 C287 0.960 . S
C304 C305 1.391 1_565 S
C304 C306 1.394 . S
C304 H320 0.931 . S
C305 C304 1.391 1_545 S
C305 C309 1.376 . S
C306 C304 1.394 . S
C306 C307 1.369 1_565 S
C306 C310 1.531 . S
C307 C306 1.369 1_545 S
C307 C308 1.410 . S
C307 C315 1.503 . S
C308 C307 1.410 . S
C308 C309 1.392 . S
C308 C311 1.511 . S
C309 C305 1.376 . S
C309 C308 1.392 . S
C309 H321 0.929 . S
C310 C306 1.531 . S
C310 H322 0.960 . S
C310 H323 0.962 . S
C310 H324 0.960 . S
C311 C308 1.511 . S
C311 H325 0.961 . S
C311 H326 0.961 . S
C311 H327 0.961 . S
C312 C313 1.370 1_565 S
C312 C314 1.363 . S
C312 H328 0.931 . S
C313 C312 1.370 1_545 S
C313 C317 1.408 . S
C314 C312 1.363 . S
C314 C315 1.370 1_565 S
C314 C318 1.524 . S
C315 C307 1.503 . S
C315 C314 1.370 1_545 S
C315 C316 1.403 . S
C316 C315 1.403 . S
C316 C317 1.404 . S
C316 C319 1.539 . S
C317 C313 1.408 . S
C317 C316 1.404 . S
C317 H329 0.930 . S
C318 C314 1.524 . S
C318 H330 0.956 . S
C318 H331 0.961 . S
C318 H332 0.961 . S
C319 C316 1.539 . S
C319 H333 0.958 . S
C319 H334 0.961 . S
C319 H335 0.960 . S
H320 C304 0.931 . S
H321 C309 0.929 . S
H322 C310 0.960 . S
H323 C310 0.962 . S
H324 C310 0.960 . S
H325 C311 0.961 . S
H326 C311 0.961 . S
H327 C311 0.961 . S
H328 C312 0.931 . S
H329 C317 0.930 . S
H330 C318 0.956 . S
H331 C318 0.961 . S
H332 C318 0.961 . S
H333 C319 0.958 . S
H334 C319 0.961 . S
H335 C319 0.960 . S
C336 C337 1.391 . S
C336 C338 1.394 . S
C336 H352 0.931 . S
C337 C336 1.391 . S
C337 C341 1.376 1_655 S
C338 C336 1.394 . S
C338 C339 1.369 . S
C338 C342 1.531 . S
C339 C338 1.369 . S
C339 C340 1.410 1_655 S
C339 C347 1.503 . S
C340 C339 1.410 1_455 S
C340 C341 1.392 . S
C340 C343 1.511 . S
C341 C337 1.376 1_455 S
C341 C340 1.392 . S
C341 H353 0.929 . S
C342 C338 1.531 . S
C342 H354 0.960 . S
C342 H355 0.962 . S
C342 H356 0.960 . S
C343 C340 1.511 . S
C343 H357 0.961 . S
C343 H358 0.961 . S
C343 H359 0.961 . S
C344 C345 1.370 . S
C344 C346 1.363 . S
C344 H360 0.931 . S
C345 C344 1.370 . S
C345 C349 1.408 1_455 S
C346 C344 1.363 . S
C346 C347 1.370 1_455 S
C346 C350 1.524 . S
C347 C339 1.503 . S
C347 C346 1.370 1_655 S
C347 C348 1.403 . S
C348 C347 1.403 . S
C348 C349 1.404 . S
C348 C351 1.539 . S
C349 C345 1.408 1_655 S
C349 C348 1.404 . S
C349 H361 0.930 . S
C350 C346 1.524 . S
C350 H362 0.956 . S
C350 H363 0.961 . S
C350 H364 0.961 . S
C351 C348 1.539 . S
C351 H365 0.958 . S
C351 H366 0.961 . S
C351 H367 0.960 . S
H352 C336 0.931 . S
H353 C341 0.929 . S
H354 C342 0.960 . S
H355 C342 0.962 . S
H356 C342 0.960 . S
H357 C343 0.961 . S
H358 C343 0.961 . S
H359 C343 0.961 . S
H360 C344 0.931 . S
H361 C349 0.930 . S
H362 C350 0.956 . S
H363 C350 0.961 . S
H364 C350 0.961 . S
H365 C351 0.958 . S
H366 C351 0.961 . S
H367 C351 0.960 . S
C368 C369 1.391 . S
C368 C370 1.394 . S
C368 H384 0.931 . S
C369 C368 1.391 . S
C369 C373 1.376 . S
C370 C368 1.394 . S
C370 C371 1.369 . S
C370 C374 1.531 . S
C371 C370 1.369 . S
C371 C372 1.410 . S
C371 C379 1.503 . S
C372 C371 1.410 . S
C372 C373 1.392 . S
C372 C375 1.511 . S
C373 C369 1.376 . S
C373 C372 1.392 . S
C373 H385 0.929 . S
C374 C370 1.531 . S
C374 H386 0.960 . S
C374 H387 0.962 . S
C374 H388 0.960 . S
C375 C372 1.511 . S
C375 H389 0.961 . S
C375 H390 0.961 . S
C375 H391 0.961 . S
C376 C377 1.370 . S
C376 C378 1.363 . S
C376 H392 0.931 . S
C377 C376 1.370 . S
C377 C381 1.408 . S
C378 C376 1.363 . S
C378 C379 1.370 . S
C378 C382 1.524 . S
C379 C371 1.503 . S
C379 C378 1.370 . S
C379 C380 1.403 . S
C380 C379 1.403 . S
C380 C381 1.404 . S
C380 C383 1.539 . S
C381 C377 1.408 . S
C381 C380 1.404 . S
C381 H393 0.930 . S
C382 C378 1.524 . S
C382 H394 0.956 . S
C382 H395 0.961 . S
C382 H396 0.961 . S
C383 C380 1.539 . S
C383 H397 0.958 . S
C383 H398 0.961 . S
C383 H399 0.960 . S
H384 C368 0.931 . S
H385 C373 0.929 . S
H386 C374 0.960 . S
H387 C374 0.962 . S
H388 C374 0.960 . S
H389 C375 0.961 . S
H390 C375 0.961 . S
H391 C375 0.961 . S
H392 C376 0.931 . S
H393 C381 0.930 . S
H394 C382 0.956 . S
H395 C382 0.961 . S
H396 C382 0.961 . S
H397 C383 0.958 . S
H398 C383 0.961 . S
H399 C383 0.960 . S
C400 C401 1.391 . S
C400 C402 1.394 . S
C400 H416 0.931 . S
C401 C400 1.391 . S
C401 C405 1.376 . S
C402 C400 1.394 . S
C402 C403 1.369 . S
C402 C406 1.531 . S
C403 C402 1.369 . S
C403 C404 1.410 . S
C403 C411 1.503 . S
C404 C403 1.410 . S
C404 C405 1.392 . S
C404 C407 1.511 . S
C405 C401 1.376 . S
C405 C404 1.392 . S
C405 H417 0.929 . S
C406 C402 1.531 . S
C406 H418 0.960 . S
C406 H419 0.962 . S
C406 H420 0.960 . S
C407 C404 1.511 . S
C407 H421 0.961 . S
C407 H422 0.961 . S
C407 H423 0.961 . S
C408 C409 1.370 . S
C408 C410 1.363 . S
C408 H424 0.931 . S
C409 C408 1.370 . S
C409 C413 1.408 . S
C410 C408 1.363 . S
C410 C411 1.370 . S
C410 C414 1.524 . S
C411 C403 1.503 . S
C411 C410 1.370 . S
C411 C412 1.403 . S
C412 C411 1.403 . S
C412 C413 1.404 . S
C412 C415 1.539 . S
C413 C409 1.408 . S
C413 C412 1.404 . S
C413 H425 0.930 . S
C414 C410 1.524 . S
C414 H426 0.956 . S
C414 H427 0.961 . S
C414 H428 0.961 . S
C415 C412 1.539 . S
C415 H429 0.958 . S
C415 H430 0.961 . S
C415 H431 0.960 . S
H416 C400 0.931 . S
H417 C405 0.929 . S
H418 C406 0.960 . S
H419 C406 0.962 . S
H420 C406 0.960 . S
H421 C407 0.961 . S
H422 C407 0.961 . S
H423 C407 0.961 . S
H424 C408 0.931 . S
H425 C413 0.930 . S
H426 C414 0.956 . S
H427 C414 0.961 . S
H428 C414 0.961 . S
H429 C415 0.958 . S
H430 C415 0.961 . S
H431 C415 0.960 . S
C432 C433 1.391 . S
C432 C434 1.394 . S
C432 H448 0.931 . S
C433 C432 1.391 . S
C433 C437 1.376 . S
C434 C432 1.394 . S
C434 C435 1.369 . S
C434 C438 1.531 . S
C435 C434 1.369 . S
C435 C436 1.410 . S
C435 C443 1.503 . S
C436 C435 1.410 . S
C436 C437 1.392 . S
C436 C439 1.511 . S
C437 C433 1.376 . S
C437 C436 1.392 . S
C437 H449 0.929 . S
C438 C434 1.531 . S
C438 H450 0.960 . S
C438 H451 0.962 . S
C438 H452 0.960 . S
C439 C436 1.511 . S
C439 H453 0.961 . S
C439 H454 0.961 . S
C439 H455 0.961 . S
C440 C441 1.370 . S
C440 C442 1.363 . S
C440 H456 0.931 . S
C441 C440 1.370 . S
C441 C445 1.408 . S
C442 C440 1.363 . S
C442 C443 1.370 . S
C442 C446 1.524 . S
C443 C435 1.503 . S
C443 C442 1.370 . S
C443 C444 1.403 . S
C444 C443 1.403 . S
C444 C445 1.404 . S
C444 C447 1.539 . S
C445 C441 1.408 . S
C445 C444 1.404 . S
C445 H457 0.930 . S
C446 C442 1.524 . S
C446 H458 0.956 . S
C446 H459 0.961 . S
C446 H460 0.961 . S
C447 C444 1.539 . S
C447 H461 0.958 . S
C447 H462 0.961 . S
C447 H463 0.960 . S
H448 C432 0.931 . S
H449 C437 0.929 . S
H450 C438 0.960 . S
H451 C438 0.962 . S
H452 C438 0.960 . S
H453 C439 0.961 . S
H454 C439 0.961 . S
H455 C439 0.961 . S
H456 C440 0.931 . S
H457 C445 0.930 . S
H458 C446 0.956 . S
H459 C446 0.961 . S
H460 C446 0.961 . S
H461 C447 0.958 . S
H462 C447 0.961 . S
H463 C447 0.960 . S
C464 C465 1.391 . S
C464 C466 1.394 . S
C464 H480 0.931 . S
C465 C464 1.391 . S
C465 C469 1.376 . S
C466 C464 1.394 . S
C466 C467 1.369 . S
C466 C470 1.531 . S
C467 C466 1.369 . S
C467 C468 1.410 . S
C467 C475 1.503 . S
C468 C467 1.410 . S
C468 C469 1.392 . S
C468 C471 1.511 . S
C469 C465 1.376 . S
C469 C468 1.392 . S
C469 H481 0.929 . S
C470 C466 1.531 . S
C470 H482 0.960 . S
C470 H483 0.962 . S
C470 H484 0.960 . S
C471 C468 1.511 . S
C471 H485 0.961 . S
C471 H486 0.961 . S
C471 H487 0.961 . S
C472 C473 1.370 . S
C472 C474 1.363 . S
C472 H488 0.931 . S
C473 C472 1.370 . S
C473 C477 1.408 . S
C474 C472 1.363 . S
C474 C475 1.370 . S
C474 C478 1.524 . S
C475 C467 1.503 . S
C475 C474 1.370 . S
C475 C476 1.403 . S
C476 C475 1.403 . S
C476 C477 1.404 . S
C476 C479 1.539 . S
C477 C473 1.408 . S
C477 C476 1.404 . S
C477 H489 0.930 . S
C478 C474 1.524 . S
C478 H490 0.956 . S
C478 H491 0.961 . S
C478 H492 0.961 . S
C479 C476 1.539 . S
C479 H493 0.958 . S
C479 H494 0.961 . S
C479 H495 0.960 . S
H480 C464 0.931 . S
H481 C469 0.929 . S
H482 C470 0.960 . S
H483 C470 0.962 . S
H484 C470 0.960 . S
H485 C471 0.961 . S
H486 C471 0.961 . S
H487 C471 0.961 . S
H488 C472 0.931 . S
H489 C477 0.930 . S
H490 C478 0.956 . S
H491 C478 0.961 . S
H492 C478 0.961 . S
H493 C479 0.958 . S
H494 C479 0.961 . S
H495 C479 0.960 . S
C496 C497 1.391 . S
C496 C498 1.394 . S
C496 H512 0.931 . S
C497 C496 1.391 . S
C497 C501 1.376 . S
C498 C496 1.394 . S
C498 C499 1.369 . S
C498 C502 1.531 . S
C499 C498 1.369 . S
C499 C500 1.410 . S
C499 C507 1.503 . S
C500 C499 1.410 . S
C500 C501 1.392 . S
C500 C503 1.511 . S
C501 C497 1.376 . S
C501 C500 1.392 . S
C501 H513 0.929 . S
C502 C498 1.531 . S
C502 H514 0.960 . S
C502 H515 0.962 . S
C502 H516 0.960 . S
C503 C500 1.511 . S
C503 H517 0.961 . S
C503 H518 0.961 . S
C503 H519 0.961 . S
C504 C505 1.370 . S
C504 C506 1.363 . S
C504 H520 0.931 . S
C505 C504 1.370 . S
C505 C509 1.408 . S
C506 C504 1.363 . S
C506 C507 1.370 . S
C506 C510 1.524 . S
C507 C499 1.503 . S
C507 C506 1.370 . S
C507 C508 1.403 . S
C508 C507 1.403 . S
C508 C509 1.404 . S
C508 C511 1.539 . S
C509 C505 1.408 . S
C509 C508 1.404 . S
C509 H521 0.930 . S
C510 C506 1.524 . S
C510 H522 0.956 . S
C510 H523 0.961 . S
C510 H524 0.961 . S
C511 C508 1.539 . S
C511 H525 0.958 . S
C511 H526 0.961 . S
C511 H527 0.960 . S
H512 C496 0.931 . S
H513 C501 0.929 . S
H514 C502 0.960 . S
H515 C502 0.962 . S
H516 C502 0.960 . S
H517 C503 0.961 . S
H518 C503 0.961 . S
H519 C503 0.961 . S
H520 C504 0.931 . S
H521 C509 0.930 . S
H522 C510 0.956 . S
H523 C510 0.961 . S
H524 C510 0.961 . S
H525 C511 0.958 . S
H526 C511 0.961 . S
H527 C511 0.960 . S
C528 C529 1.391 . S
C528 C530 1.394 . S
C528 H544 0.931 . S
C529 C528 1.391 . S
C529 C533 1.376 . S
C530 C528 1.394 . S
C530 C531 1.369 . S
C530 C534 1.531 . S
C531 C530 1.369 . S
C531 C532 1.410 . S
C531 C539 1.503 . S
C532 C531 1.410 . S
C532 C533 1.392 . S
C532 C535 1.511 . S
C533 C529 1.376 . S
C533 C532 1.392 . S
C533 H545 0.929 . S
C534 C530 1.531 . S
C534 H546 0.960 . S
C534 H547 0.962 . S
C534 H548 0.960 . S
C535 C532 1.511 . S
C535 H549 0.961 . S
C535 H550 0.961 . S
C535 H551 0.961 . S
C536 C537 1.370 . S
C536 C538 1.363 . S
C536 H552 0.931 . S
C537 C536 1.370 . S
C537 C541 1.408 . S
C538 C536 1.363 . S
C538 C539 1.370 . S
C538 C542 1.524 . S
C539 C531 1.503 . S
C539 C538 1.370 . S
C539 C540 1.403 . S
C540 C539 1.403 . S
C540 C541 1.404 . S
C540 C543 1.539 . S
C541 C537 1.408 . S
C541 C540 1.404 . S
C541 H553 0.930 . S
C542 C538 1.524 . S
C542 H554 0.956 . S
C542 H555 0.961 . S
C542 H556 0.961 . S
C543 C540 1.539 . S
C543 H557 0.958 . S
C543 H558 0.961 . S
C543 H559 0.960 . S
H544 C528 0.931 . S
H545 C533 0.929 . S
H546 C534 0.960 . S
H547 C534 0.962 . S
H548 C534 0.960 . S
H549 C535 0.961 . S
H550 C535 0.961 . S
H551 C535 0.961 . S
H552 C536 0.931 . S
H553 C541 0.930 . S
H554 C542 0.956 . S
H555 C542 0.961 . S
H556 C542 0.961 . S
H557 C543 0.958 . S
H558 C543 0.961 . S
H559 C543 0.960 . S
C560 C561 1.391 . S
C560 C562 1.394 . S
C560 H576 0.931 . S
C561 C560 1.391 . S
C561 C565 1.376 . S
C562 C560 1.394 . S
C562 C563 1.369 . S
C562 C566 1.531 . S
C563 C562 1.369 . S
C563 C564 1.410 . S
C563 C571 1.503 . S
C564 C563 1.410 . S
C564 C565 1.392 . S
C564 C567 1.511 . S
C565 C561 1.376 . S
C565 C564 1.392 . S
C565 H577 0.929 . S
C566 C562 1.531 . S
C566 H578 0.960 . S
C566 H579 0.962 . S
C566 H580 0.960 . S
C567 C564 1.511 . S
C567 H581 0.961 . S
C567 H582 0.961 . S
C567 H583 0.961 . S
C568 C569 1.370 . S
C568 C570 1.363 . S
C568 H584 0.931 . S
C569 C568 1.370 . S
C569 C573 1.408 . S
C570 C568 1.363 . S
C570 C571 1.370 . S
C570 C574 1.524 . S
C571 C563 1.503 . S
C571 C570 1.370 . S
C571 C572 1.403 . S
C572 C571 1.403 . S
C572 C573 1.404 . S
C572 C575 1.539 . S
C573 C569 1.408 . S
C573 C572 1.404 . S
C573 H585 0.930 . S
C574 C570 1.524 . S
C574 H586 0.956 . S
C574 H587 0.961 . S
C574 H588 0.961 . S
C575 C572 1.539 . S
C575 H589 0.958 . S
C575 H590 0.961 . S
C575 H591 0.960 . S
H576 C560 0.931 . S
H577 C565 0.929 . S
H578 C566 0.960 . S
H579 C566 0.962 . S
H580 C566 0.960 . S
H581 C567 0.961 . S
H582 C567 0.961 . S
H583 C567 0.961 . S
H584 C568 0.931 . S
H585 C573 0.930 . S
H586 C574 0.956 . S
H587 C574 0.961 . S
H588 C574 0.961 . S
H589 C575 0.958 . S
H590 C575 0.961 . S
H591 C575 0.960 . S
C592 C593 1.391 . S
C592 C594 1.394 . S
C592 H608 0.931 . S
C593 C592 1.391 . S
C593 C597 1.376 . S
C594 C592 1.394 . S
C594 C595 1.369 . S
C594 C598 1.531 . S
C595 C594 1.369 . S
C595 C596 1.410 . S
C595 C603 1.503 . S
C596 C595 1.410 . S
C596 C597 1.392 . S
C596 C599 1.511 . S
C597 C593 1.376 . S
C597 C596 1.392 . S
C597 H609 0.929 . S
C598 C594 1.531 . S
C598 H610 0.960 . S
C598 H611 0.962 . S
C598 H612 0.960 . S
C599 C596 1.511 . S
C599 H613 0.961 . S
C599 H614 0.961 . S
C599 H615 0.961 . S
C600 C601 1.370 . S
C600 C602 1.363 . S
C600 H616 0.931 . S
C601 C600 1.370 . S
C601 C605 1.408 . S
C602 C600 1.363 . S
C602 C603 1.370 . S
C602 C606 1.524 . S
C603 C595 1.503 . S
C603 C602 1.370 . S
C603 C604 1.403 . S
C604 C603 1.403 . S
C604 C605 1.404 . S
C604 C607 1.539 . S
C605 C601 1.408 . S
C605 C604 1.404 . S
C605 H617 0.930 . S
C606 C602 1.524 . S
C606 H618 0.956 . S
C606 H619 0.961 . S
C606 H620 0.961 . S
C607 C604 1.539 . S
C607 H621 0.958 . S
C607 H622 0.961 . S
C607 H623 0.960 . S
H608 C592 0.931 . S
H609 C597 0.929 . S
H610 C598 0.960 . S
H611 C598 0.962 . S
H612 C598 0.960 . S
H613 C599 0.961 . S
H614 C599 0.961 . S
H615 C599 0.961 . S
H616 C600 0.931 . S
H617 C605 0.930 . S
H618 C606 0.956 . S
H619 C606 0.961 . S
H620 C606 0.961 . S
H621 C607 0.958 . S
H622 C607 0.961 . S
H623 C607 0.960 . S
C113 C13 1.493 . S
C121 C69 1.472 . S
C145 C27 1.460 . S
C153 C83 1.471 . S
C177 C97 1.494 . S
C185 C41 1.473 . S
C209 C111 1.462 . S
C217 C55 1.471 . S
C241 C11 1.135 1_545 S
C249 C39 1.133 . S
C273 C25 1.132 . S
C281 C53 1.134 . S
C305 C95 1.134 1_545 S
C313 C67 1.133 . S
C337 C81 1.123 . S
C345 C109 1.136 . S
C369 C78 1.314 . S
C377 C8 1.358 . S
C401 C22 1.370 . S
C409 C92 1.357 . S
C433 C106 1.312 . S
C441 C36 1.356 . S
C465 C50 1.356 . S
C473 C64 1.362 . S
C497 C91 1.086 . S
C505 C49 1.070 . S
C529 C7 1.084 . S
C537 C105 1.099 . S
C561 C21 1.120 . S
C569 C63 1.081 . S
C593 C77 1.050 . S
C601 C35 1.098 . S
