# Generated by pormake.
# Topology qtz-x, (6)-cn, num edge types: 1
# Building blocks:
#     Node 0, Type 0, BuildingBlock: PAMTUU_clean_sbu_0, # of connection points: 6
#     Node 1, Type 0, BuildingBlock: PAMTUU_clean_sbu_0, # of connection points: 6
#     Node 2, Type 0, BuildingBlock: PAMTUU_clean_sbu_0, # of connection points: 6
#     Edge 3, Type (0, 0), BuildingBlock: EZIPEK_clean_linker_0, # of connection points: 2
#     Edge 4, Type (0, 0), BuildingBlock: EZIPEK_clean_linker_0, # of connection points: 2
#     Edge 5, Type (0, 0), BuildingBlock: EZIPEK_clean_linker_0, # of connection points: 2
#     Edge 6, Type (0, 0), BuildingBlock: EZIPEK_clean_linker_0, # of connection points: 2
#     Edge 7, Type (0, 0), BuildingBlock: EZIPEK_clean_linker_0, # of connection points: 2
#     Edge 8, Type (0, 0), BuildingBlock: EZIPEK_clean_linker_0, # of connection points: 2
#     Edge 9, Type (0, 0), BuildingBlock: EZIPEK_clean_linker_0, # of connection points: 2
#     Edge 10, Type (0, 0), BuildingBlock: EZIPEK_clean_linker_0, # of connection points: 2
#     Edge 11, Type (0, 0), BuildingBlock: EZIPEK_clean_linker_0, # of connection points: 2
# Relax obj value: 0.135
# Max RMSD: 0.238
# Mean RMSD: 0.238
data_MOF--net-qtz-x--node1-PAMTUU_clean_sbu_0--edge1-EZIPEK_clean_linker_0
_symmetry_space_group_name_H-M    P1
_symmetry_Int_Tables_number       1
_symmetry_cell_setting            triclinic
loop_
_symmetry_equiv_pos_as_xyz
'x, y, z'
_cell_length_a     11.074683
_cell_length_b     11.137226
_cell_length_c     43.320896
_cell_angle_alpha  89.883902
_cell_angle_beta   90.187346
_cell_angle_gamma 120.74936
loop_
_atom_site_label
_atom_site_type_symbol
_atom_site_fract_x
_atom_site_fract_y
_atom_site_fract_z
_atom_type_partial_charge
Tb0 Tb 0.17539 0.67911 0.16966 0.0
Tb1 Tb 0.87264 0.52347 0.20846 0.0
C2 C 0.02427 0.36578 0.18868 0.0
C3 C 0.40368 0.8192 0.10213 0.0
C4 C 0.41176 0.81876 0.03733 0.0
C5 C 0.53284 0.8537 0.05462 0.0
C6 C 0.52872 0.85362 0.0869 0.0
C7 C 0.28608 0.79607 0.0848 0.0
C8 C 0.2903 0.79655 0.05254 0.0
C9 C 0.38992 0.7892 0.13541 0.0
O10 O 1.01004 0.56367 0.13577 0.0
O11 O 0.80432 0.51188 0.16078 0.0
O12 O 0.94685 0.74557 0.20938 0.0
O13 O 0.09905 0.82365 0.16843 0.0
O14 O 0.72765 0.35119 0.2347 0.0
O15 O 0.69963 0.52647 0.22771 0.0
O16 O 0.03862 0.57214 0.24189 0.0
O17 O 0.24274 0.7352 0.21736 0.0
O18 O 0.14464 0.48432 0.18854 0.0
O19 O 0.90383 0.36173 0.1889 0.0
C20 C 0.8751 0.52068 0.13566 0.0
O21 O 0.352 0.86071 0.15236 0.0
O22 O 0.31868 0.65686 0.14229 0.0
C23 C 0.02275 0.84182 0.18889 0.0
C24 C 0.64648 0.4203 0.2769 0.0
C25 C 0.62896 0.4007 0.34169 0.0
C26 C 0.50656 0.3328 0.32354 0.0
C27 C 0.51541 0.34178 0.29127 0.0
C28 C 0.76744 0.49694 0.29516 0.0
C29 C 0.75881 0.48714 0.32733 0.0
C30 C 0.65939 0.41197 0.24325 0.0
C31 C 0.1727 0.66842 0.24225 0.0
H32 H 0.62802 0.87326 0.04315 0.0
H33 H 0.6207 0.87332 0.09993 0.0
H34 H 0.18875 0.77011 0.09619 0.0
H35 H 0.19612 0.76991 0.03953 0.0
H36 H 0.4052 0.26723 0.33428 0.0
H37 H 0.42087 0.28312 0.27757 0.0
H38 H 0.86938 0.55973 0.28455 0.0
H39 H 0.85416 0.54136 0.34096 0.0
Tb40 Tb 0.402 0.929 0.50525 0.0
Tb41 Tb 0.57324 0.23611 0.5416 0.0
C42 C 0.25443 0.09996 0.52377 0.0
C43 C 0.29406 0.70534 0.43612 0.0
C44 C 0.29712 0.70285 0.37101 0.0
C45 C 0.16949 0.63112 0.38711 0.0
C46 C 0.16805 0.63181 0.41939 0.0
C47 C 0.42215 0.77504 0.41997 0.0
C48 C 0.42368 0.7723 0.38767 0.0
C49 C 0.28871 0.71882 0.46998 0.0
O50 O 0.49618 0.09047 0.46989 0.0
O51 O 0.59904 0.3065 0.49418 0.0
O52 O 0.7262 0.19536 0.52098 0.0
O53 O 0.59973 0.95702 0.52245 0.0
O54 O 0.59397 0.41654 0.56229 0.0
O55 O 0.75608 0.36564 0.56721 0.0
O56 O 0.47203 0.07273 0.57664 0.0
O57 O 0.34104 0.85864 0.55222 0.0
O58 O 0.24382 0.97823 0.51928 0.0
O59 O 0.37517 0.21584 0.52794 0.0
C60 C 0.56097 0.22779 0.46932 0.0
O61 O 0.40387 0.75733 0.48551 0.0
O62 O 0.22707 0.78532 0.47913 0.0
C63 C 0.71996 0.07515 0.52131 0.0
C64 C 0.70642 0.45645 0.61077 0.0
C65 C 0.70182 0.47856 0.67543 0.0
C66 C 0.82009 0.57579 0.65858 0.0
C67 C 0.82253 0.5644 0.62638 0.0
C68 C 0.59021 0.3571 0.62781 0.0
C69 C 0.58794 0.3682 0.65986 0.0
C70 C 0.70831 0.44384 0.57695 0.0
C71 C 0.38513 0.93641 0.57716 0.0
H72 H 0.07083 0.57608 0.37464 0.0
H73 H 0.06809 0.57805 0.43129 0.0
H74 H 0.52092 0.83383 0.43219 0.0
H75 H 0.52318 0.82745 0.37564 0.0
H76 H 0.9079 0.6629 0.67017 0.0
H77 H 0.91388 0.64098 0.61365 0.0
H78 H 0.50006 0.27232 0.61629 0.0
H79 H 0.49518 0.2935 0.67247 0.0
Tb80 Tb 0.46256 0.70805 0.838 0.0
Tb81 Tb 0.61406 0.55788 0.87488 0.0
C82 C 0.77457 0.87186 0.85728 0.0
C83 C 0.33176 0.80828 0.76986 0.0
C84 C 0.29067 0.80055 0.70528 0.0
C85 C 0.42659 0.86298 0.71771 0.0
C86 C 0.44713 0.86613 0.74959 0.0
C87 C 0.19542 0.7461 0.75736 0.0
C88 C 0.1748 0.74116 0.72529 0.0
C89 C 0.35281 0.81089 0.8038 0.0
O90 O 0.59405 0.67948 0.8054 0.0
O91 O 0.59813 0.49254 0.82671 0.0
O92 O 0.38846 0.42357 0.87909 0.0
O93 O 0.33191 0.4832 0.83318 0.0
O94 O 0.79192 0.58576 0.89876 0.0
O95 O 0.60998 0.3803 0.89317 0.0
O96 O 0.56893 0.66981 0.90964 0.0
O97 O 0.39786 0.69877 0.88592 0.0
O98 O 0.65621 0.87177 0.85835 0.0
O99 O 0.77649 0.75526 0.85584 0.0
C100 C 0.60888 0.57026 0.8027 0.0
O101 O 0.28034 0.69239 0.81833 0.0
O102 O 0.48212 0.88025 0.81371 0.0
C103 C 0.30104 0.39611 0.85617 0.0
C104 C 0.72932 0.43694 0.94167 0.0
C105 C 0.73845 0.43334 1.00684 0.0
C106 C 0.60883 0.37142 0.99127 0.0
C107 C 0.60426 0.37454 0.95896 0.0
C108 C 0.85847 0.49439 0.95729 0.0
C109 C 0.86309 0.49346 0.98957 0.0
C110 C 0.72848 0.45619 0.90785 0.0
C111 C 0.46711 0.69769 0.91064 0.0
H112 H 0.51731 0.91047 0.70264 0.0
H113 H 0.55371 0.9144 0.75828 0.0
H114 H 0.10507 0.70222 0.77244 0.0
H115 H 0.06911 0.69382 0.71614 0.0
H116 H 0.51151 0.32363 1.00417 0.0
H117 H 0.50311 0.33036 0.94761 0.0
H118 H 0.95623 0.54378 0.94452 0.0
H119 H 0.96411 0.54102 1.00113 0.0
C120 C 0.02027 0.04055 0.21723 0.0
C121 C 0.0228 0.97676 0.18886 0.0
C122 C 0.04549 0.18013 0.1609 0.0
C123 C 0.02426 0.23277 0.18876 0.0
N124 N 0.96501 0.19972 0.24282 0.0
N125 N 1.00273 0.97508 0.13296 0.0
C126 C 1.00259 0.15835 0.21669 0.0
C127 C 0.0263 0.04376 0.16044 0.0
N128 N 0.04361 0.99541 0.24473 0.0
N129 N 0.08427 0.26012 0.13476 0.0
H130 H 0.98026 0.87269 0.13111 0.0
H131 H 0.98921 0.01418 0.11219 0.0
H132 H 0.09584 0.35907 0.13393 0.0
H133 H 0.11606 0.2329 0.11466 0.0
H134 H 0.05797 0.04849 0.26546 0.0
H135 H 0.06515 0.91522 0.24664 0.0
H136 H 0.93286 0.14016 0.26296 0.0
H137 H 0.95499 0.2878 0.24363 0.0
C138 C 0.081 0.15607 0.54774 0.0
C139 C 0.12277 0.10472 0.52238 0.0
C140 C 0.8976 0.03064 0.49623 0.0
C141 C 0.85416 0.07633 0.52218 0.0
N142 N 0.89006 0.1568 0.5748 0.0
N143 N 0.08781 0.02609 0.46953 0.0
C144 C 0.94246 0.13323 0.54841 0.0
C145 C 0.03506 0.04987 0.49585 0.0
N146 N 0.17413 0.22996 0.57084 0.0
N147 N 0.80644 0.9671 0.47217 0.0
H148 H 0.19078 0.0471 0.46782 0.0
H149 H 0.03558 0.99825 0.44843 0.0
H150 H 0.70751 0.95671 0.47115 0.0
H151 H 0.8241 0.91689 0.45406 0.0
H152 H 0.15576 0.28561 0.58759 0.0
H153 H 0.27488 0.24555 0.57232 0.0
H154 H 0.94241 0.18253 0.59593 0.0
H155 H 0.7875 0.13699 0.57651 0.0
C156 C 1.00465 0.0375 0.83212 0.0
C157 C 0.90892 1.00655 0.85681 0.0
C158 C 0.06329 0.23872 0.87872 0.0
C159 C 0.16551 0.26312 0.85605 0.0
N160 N 0.24392 0.17835 0.81396 0.0
N161 N 0.85862 0.06676 0.90676 0.0
C162 C 0.1392 0.16048 0.83349 0.0
C163 C 0.94113 0.10425 0.88099 0.0
N164 N 0.96512 0.95288 0.80671 0.0
N165 N 0.08041 0.34531 0.89733 0.0
H166 H 0.77071 0.96755 0.90982 0.0
H167 H 0.88498 0.12919 0.92639 0.0
H168 H 0.16734 0.44611 0.89589 0.0
H169 H 1.00247 0.33741 0.91206 0.0
H170 H 0.02511 0.97829 0.78668 0.0
H171 H 0.86639 0.86349 0.80435 0.0
H172 H 0.23577 0.09987 0.79951 0.0
H173 H 0.34373 0.26759 0.81403 0.0
C174 C 0.37113 0.6162 0.96384 0.0
C175 C 0.42933 0.72544 0.94158 0.0
C176 C 0.46698 0.89613 0.98186 0.0
C177 C 0.40726 0.78668 1.00391 0.0
N178 N 0.27989 0.53981 1.01544 0.0
N179 N 0.50995 0.96473 0.92791 0.0
C180 C 0.3515 0.64577 0.99468 0.0
C181 C 0.46931 0.86394 0.95011 0.0
N182 N 0.33959 0.48465 0.95579 0.0
N183 N 0.5265 0.03141 0.99149 0.0
H184 H 0.51706 0.94601 0.90461 0.0
H185 H 0.52677 0.06417 0.93211 0.0
H186 H 0.51948 0.05852 1.01418 0.0
H187 H 0.59087 0.11638 0.97751 0.0
H188 H 0.31669 0.40545 0.97164 0.0
H189 H 0.34373 0.45601 0.93319 0.0
H190 H 0.2208 0.4349 1.00925 0.0
H191 H 0.2707 0.55628 0.03877 0.0
C192 C 0.53425 0.36962 0.42717 0.0
C193 C 0.59683 0.29399 0.43835 0.0
C194 C 0.67835 0.28711 0.38626 0.0
C195 C 0.62303 0.36962 0.37529 0.0
N196 N 0.52513 0.51437 0.38636 0.0
N197 N 0.75999 0.21466 0.43043 0.0
C198 C 0.55937 0.41886 0.39612 0.0
C199 C 0.679 0.26361 0.41843 0.0
N200 N 0.44506 0.38812 0.44559 0.0
N201 N 0.72369 0.22494 0.3659 0.0
H202 H 0.76597 0.20052 0.45408 0.0
H203 H 0.83225 0.20285 0.41743 0.0
H204 H 0.72225 0.2363 0.34203 0.0
H205 H 0.7501 0.15125 0.37254 0.0
H206 H 0.38373 0.42798 0.43757 0.0
H207 H 0.4242 0.35406 0.46843 0.0
H208 H 0.49162 0.56445 0.40129 0.0
H209 H 0.54215 0.55264 0.36381 0.0
C210 C 0.25432 0.91313 0.65859 0.0
C211 C 0.27367 0.80679 0.67129 0.0
C212 C 0.33891 0.76254 0.62026 0.0
C213 C 0.32623 0.87355 0.60789 0.0
N214 N 0.21526 0.0103 0.61226 0.0
N215 N 0.29254 0.60286 0.6617 0.0
C216 C 0.26609 0.93513 0.62619 0.0
C217 C 0.30086 0.72221 0.65139 0.0
N218 N 0.23126 0.99752 0.67746 0.0
N219 N 0.39013 0.69653 0.60285 0.0
H220 H 0.25926 0.56308 0.6839 0.0
H221 H 0.25926 0.56308 0.6839 0.0
H222 H 0.42357 0.72441 0.58014 0.0
H223 H 0.4022 0.61591 0.61168 0.0
H224 H 0.23305 0.08698 0.66966 0.0
H225 H 0.21897 0.98323 0.70128 0.0
H226 H 0.15958 0.04836 0.62392 0.0
H227 H 0.21384 0.01863 0.58832 0.0
C228 C 0.71877 0.53082 0.05794 0.0
C229 C 0.74557 0.43692 0.04127 0.0
C230 C 0.80328 0.3631 0.08982 0.0
C231 C 0.80128 0.47379 0.1054 0.0
N232 N 0.74532 0.6559 0.10574 0.0
N233 N 0.80956 0.25976 0.04108 0.0
C234 C 0.75246 0.55353 0.09003 0.0
C235 C 0.78541 0.35082 0.05722 0.0
N236 N 0.66218 0.59914 0.04309 0.0
N237 N 0.81803 0.26732 0.10658 0.0
H238 H 0.79084 0.24259 1.01745 0.0
H239 H 0.85482 0.20626 0.05071 0.0
H240 H 0.82566 0.27182 0.13061 0.0
H241 H 0.80819 0.17654 0.09733 0.0
H242 H 0.62182 0.65278 0.05458 0.0
H243 H 0.64653 0.59503 1.0193 0.0
H244 H 0.73189 0.73221 0.09517 0.0
H245 H 0.75804 0.66778 0.12959 0.0
C246 C 0.24805 0.58186 0.28721 0.0
C247 C 0.24638 0.69465 0.27245 0.0
C248 C 0.31988 0.82798 0.32085 0.0
C249 C 0.2963 0.7057 0.33661 0.0
N250 N 0.24659 0.46821 0.3352 0.0
N251 N 0.29585 0.93148 0.2735 0.0
C252 C 0.26445 0.58354 0.31982 0.0
C253 C 0.29001 0.82093 0.28863 0.0
N254 N 0.23766 0.47516 0.26966 0.0
N255 N 0.36959 0.95038 0.33674 0.0
H256 H 0.28605 0.93367 0.24961 0.0
H257 H 0.30638 0.01938 0.28444 0.0
H258 H 0.38306 0.9583 0.36061 0.0
H259 H 0.40636 0.04656 0.32612 0.0
H260 H 0.24909 0.39424 0.27827 0.0
H261 H 0.23108 0.47533 0.24564 0.0
H262 H 0.20753 0.37067 0.32499 0.0
H263 H 0.26546 0.46831 0.35881 0.0
C264 C 0.73179 0.49589 0.76378 0.0
C265 C 0.6297 0.53346 0.77083 0.0
C266 C 0.5976 0.55635 0.71572 0.0
C267 C 0.68561 0.50331 0.70845 0.0
N268 N 0.82315 0.40382 0.72529 0.0
N269 N 0.43288 0.55149 0.75233 0.0
C270 C 0.74845 0.46665 0.73244 0.0
C271 C 0.55321 0.54982 0.74646 0.0
N272 N 0.81724 0.49473 0.78644 0.0
N273 N 0.55865 0.61674 0.69344 0.0
H274 H 0.38813 0.53398 0.7742 0.0
H275 H 0.36846 0.55249 0.73486 0.0
H276 H 0.58755 0.62336 0.67032 0.0
H277 H 0.51196 0.67467 0.69893 0.0
H278 H 0.89922 0.47686 0.78223 0.0
H279 H 0.81469 0.52345 0.80917 0.0
H280 H 0.85939 0.36147 0.74178 0.0
H281 H 0.84036 0.38542 0.70256 0.0
loop_
_geom_bond_atom_site_label_1
_geom_bond_atom_site_label_2
_geom_bond_distance
_geom_bond_site_symmetry_2
_ccdc_geom_bond_type
Tb0 C9 2.764 . S
Tb0 O10 2.325 . S
Tb0 O13 2.303 . S
Tb0 O17 2.322 . S
Tb0 O18 2.349 . S
Tb0 O21 2.415 . S
Tb0 O22 2.399 . S
Tb1 O11 2.322 . S
Tb1 O12 2.349 . S
Tb1 O14 2.415 . S
Tb1 O15 2.399 . S
Tb1 O16 2.325 1_655 S
Tb1 O19 2.303 1_655 S
Tb1 C30 2.764 . S
C2 O18 1.261 . S
C2 O19 1.257 . S
C3 C6 1.358 . S
C3 C7 1.332 . S
C3 C9 1.504 . S
C4 C5 1.373 . S
C4 C8 1.308 . S
C5 C4 1.373 . S
C5 C6 1.429 . S
C5 H32 0.932 . S
C6 C3 1.358 . S
C6 C5 1.429 . S
C6 H33 0.930 . S
C7 C3 1.332 . S
C7 C8 1.394 . S
C7 H34 0.932 . S
C8 C4 1.308 . S
C8 C7 1.394 . S
C8 H35 0.929 1_565 S
C9 Tb0 2.764 . S
C9 C3 1.504 . S
C9 O21 1.239 . S
C9 O22 1.263 . S
O10 Tb0 2.325 . S
O10 C20 1.236 1_455 S
O11 Tb1 2.322 . S
O11 C20 1.257 . S
O12 Tb1 2.349 . S
O12 C23 1.261 1_655 S
O13 Tb0 2.303 . S
O13 C23 1.257 . S
O14 Tb1 2.415 . S
O14 C30 1.239 . S
O15 Tb1 2.399 . S
O15 C30 1.263 . S
O16 Tb1 2.325 1_455 S
O16 C31 1.236 . S
O17 Tb0 2.322 . S
O17 C31 1.257 . S
O18 Tb0 2.349 . S
O18 C2 1.261 . S
O19 Tb1 2.303 1_455 S
O19 C2 1.257 . S
C20 O10 1.236 1_655 S
C20 O11 1.257 . S
O21 Tb0 2.415 . S
O21 C9 1.239 . S
O22 Tb0 2.399 . S
O22 C9 1.263 . S
C23 O12 1.261 1_455 S
C23 O13 1.257 . S
C24 C27 1.358 . S
C24 C28 1.332 . S
C24 C30 1.504 . S
C25 C26 1.373 . S
C25 C29 1.308 . S
C26 C25 1.373 . S
C26 C27 1.429 . S
C26 H36 0.932 . S
C27 C24 1.358 . S
C27 C26 1.429 . S
C27 H37 0.930 . S
C28 C24 1.332 . S
C28 C29 1.394 . S
C28 H38 0.932 . S
C29 C25 1.308 . S
C29 C28 1.394 . S
C29 H39 0.929 . S
C30 Tb1 2.764 . S
C30 O14 1.239 . S
C30 O15 1.263 . S
C30 C24 1.504 . S
C31 O16 1.236 . S
C31 O17 1.257 . S
H32 C5 0.932 . S
H33 C6 0.930 . S
H34 C7 0.932 . S
H35 C8 0.929 1_545 S
H36 C26 0.932 . S
H37 C27 0.930 . S
H38 C28 0.932 . S
H39 C29 0.929 . S
Tb40 C49 2.764 . S
Tb40 O50 2.325 1_565 S
Tb40 O53 2.303 . S
Tb40 O57 2.322 . S
Tb40 O58 2.349 . S
Tb40 O61 2.415 . S
Tb40 O62 2.399 . S
Tb41 O51 2.322 . S
Tb41 O52 2.349 . S
Tb41 O54 2.415 . S
Tb41 O55 2.399 . S
Tb41 O56 2.325 1_545 S
Tb41 O59 2.303 . S
Tb41 C70 2.764 . S
C42 O58 1.261 . S
C42 O59 1.257 1_565 S
C43 C46 1.358 . S
C43 C47 1.332 . S
C43 C49 1.504 . S
C44 C45 1.373 . S
C44 C48 1.308 . S
C45 C44 1.373 . S
C45 C46 1.429 . S
C45 H72 0.932 . S
C46 C43 1.358 . S
C46 C45 1.429 . S
C46 H73 0.930 . S
C47 C43 1.332 . S
C47 C48 1.394 . S
C47 H74 0.932 . S
C48 C44 1.308 . S
C48 C47 1.394 . S
C48 H75 0.929 . S
C49 Tb40 2.764 . S
C49 C43 1.504 . S
C49 O61 1.239 . S
C49 O62 1.263 . S
O50 Tb40 2.325 1_545 S
O50 C60 1.236 . S
O51 Tb41 2.322 . S
O51 C60 1.257 . S
O52 Tb41 2.349 . S
O52 C63 1.261 . S
O53 Tb40 2.303 . S
O53 C63 1.257 1_565 S
O54 Tb41 2.415 . S
O54 C70 1.239 . S
O55 Tb41 2.399 . S
O55 C70 1.263 . S
O56 Tb41 2.325 1_565 S
O56 C71 1.236 . S
O57 Tb40 2.322 . S
O57 C71 1.257 . S
O58 Tb40 2.349 . S
O58 C42 1.261 . S
O59 Tb41 2.303 . S
O59 C42 1.257 1_545 S
C60 O50 1.236 . S
C60 O51 1.257 . S
O61 Tb40 2.415 . S
O61 C49 1.239 . S
O62 Tb40 2.399 . S
O62 C49 1.263 . S
C63 O52 1.261 . S
C63 O53 1.257 1_545 S
C64 C67 1.358 . S
C64 C68 1.332 . S
C64 C70 1.504 . S
C65 C66 1.373 . S
C65 C69 1.308 . S
C66 C65 1.373 . S
C66 C67 1.429 . S
C66 H76 0.932 . S
C67 C64 1.358 . S
C67 C66 1.429 . S
C67 H77 0.930 . S
C68 C64 1.332 . S
C68 C69 1.394 . S
C68 H78 0.932 . S
C69 C65 1.308 . S
C69 C68 1.394 . S
C69 H79 0.929 . S
C70 Tb41 2.764 . S
C70 O54 1.239 . S
C70 O55 1.263 . S
C70 C64 1.504 . S
C71 O56 1.236 . S
C71 O57 1.257 . S
H72 C45 0.932 . S
H73 C46 0.930 . S
H74 C47 0.932 . S
H75 C48 0.929 . S
H76 C66 0.932 . S
H77 C67 0.930 . S
H78 C68 0.932 . S
H79 C69 0.929 . S
Tb80 C89 2.764 . S
Tb80 O90 2.325 . S
Tb80 O93 2.303 . S
Tb80 O97 2.322 . S
Tb80 O98 2.349 . S
Tb80 O101 2.415 . S
Tb80 O102 2.399 . S
Tb81 O91 2.322 . S
Tb81 O92 2.349 . S
Tb81 O94 2.415 . S
Tb81 O95 2.399 . S
Tb81 O96 2.325 . S
Tb81 O99 2.303 . S
Tb81 C110 2.764 . S
C82 O98 1.261 . S
C82 O99 1.257 . S
C83 C86 1.358 . S
C83 C87 1.332 . S
C83 C89 1.504 . S
C84 C85 1.373 . S
C84 C88 1.308 . S
C85 C84 1.373 . S
C85 C86 1.429 . S
C85 H112 0.932 . S
C86 C83 1.358 . S
C86 C85 1.429 . S
C86 H113 0.930 . S
C87 C83 1.332 . S
C87 C88 1.394 . S
C87 H114 0.932 . S
C88 C84 1.308 . S
C88 C87 1.394 . S
C88 H115 0.929 . S
C89 Tb80 2.764 . S
C89 C83 1.504 . S
C89 O101 1.239 . S
C89 O102 1.263 . S
O90 Tb80 2.325 . S
O90 C100 1.236 . S
O91 Tb81 2.322 . S
O91 C100 1.257 . S
O92 Tb81 2.349 . S
O92 C103 1.261 . S
O93 Tb80 2.303 . S
O93 C103 1.257 . S
O94 Tb81 2.415 . S
O94 C110 1.239 . S
O95 Tb81 2.399 . S
O95 C110 1.263 . S
O96 Tb81 2.325 . S
O96 C111 1.236 . S
O97 Tb80 2.322 . S
O97 C111 1.257 . S
O98 Tb80 2.349 . S
O98 C82 1.261 . S
O99 Tb81 2.303 . S
O99 C82 1.257 . S
C100 O90 1.236 . S
C100 O91 1.257 . S
O101 Tb80 2.415 . S
O101 C89 1.239 . S
O102 Tb80 2.399 . S
O102 C89 1.263 . S
C103 O92 1.261 . S
C103 O93 1.257 . S
C104 C107 1.358 . S
C104 C108 1.332 . S
C104 C110 1.504 . S
C105 C106 1.373 . S
C105 C109 1.308 . S
C106 C105 1.373 . S
C106 C107 1.429 . S
C106 H116 0.932 . S
C107 C104 1.358 . S
C107 C106 1.429 . S
C107 H117 0.930 . S
C108 C104 1.332 . S
C108 C109 1.394 . S
C108 H118 0.932 . S
C109 C105 1.308 . S
C109 C108 1.394 . S
C109 H119 0.929 . S
C110 Tb81 2.764 . S
C110 O94 1.239 . S
C110 O95 1.263 . S
C110 C104 1.504 . S
C111 O96 1.236 . S
C111 O97 1.257 . S
H112 C85 0.932 . S
H113 C86 0.930 . S
H114 C87 0.932 . S
H115 C88 0.929 . S
H116 C106 0.932 . S
H117 C107 0.930 . S
H118 C108 0.932 . S
H119 C109 0.929 . S
C120 C121 1.363 . S
C120 C126 1.379 . S
C120 N128 1.356 1_445 S
C121 C120 1.363 . S
C121 C127 1.363 . S
C122 C123 1.363 . S
C122 C127 1.379 . S
C122 N129 1.356 . S
C123 C122 1.363 . S
C123 C126 1.363 . S
N124 C126 1.356 1_655 S
N124 H136 0.984 . S
N124 H137 0.985 . S
N125 C127 1.356 . S
N125 H130 0.984 1_545 S
N125 H131 0.985 . S
C126 C120 1.379 . S
C126 C123 1.363 . S
C126 N124 1.356 1_455 S
C127 C121 1.363 . S
C127 C122 1.379 . S
C127 N125 1.356 . S
N128 C120 1.356 1_665 S
N128 H134 0.984 . S
N128 H135 0.984 . S
N129 C122 1.356 . S
N129 H132 0.984 . S
N129 H133 0.985 . S
H130 N125 0.984 1_565 S
H131 N125 0.985 . S
H132 N129 0.984 . S
H133 N129 0.985 . S
H134 N128 0.984 . S
H135 N128 0.984 . S
H136 N124 0.984 . S
H137 N124 0.985 . S
C138 C139 1.363 . S
C138 C144 1.379 1_455 S
C138 N146 1.356 . S
C139 C138 1.363 . S
C139 C145 1.363 1_445 S
C140 C141 1.370 . S
C140 C145 1.379 . S
C140 N147 1.356 . S
C141 C140 1.370 . S
C141 C144 1.360 1_565 S
N142 C144 1.356 . S
N142 H154 0.984 . S
N142 H155 0.985 . S
N143 C145 1.356 1_455 S
N143 H148 0.984 . S
N143 H149 0.985 1_455 S
C144 C138 1.379 1_655 S
C144 C141 1.360 1_545 S
C144 N142 1.356 . S
C145 C139 1.363 1_665 S
C145 C140 1.379 . S
C145 N143 1.356 1_655 S
N146 C138 1.356 . S
N146 H152 0.984 . S
N146 H153 0.984 . S
N147 C140 1.356 . S
N147 H150 0.984 . S
N147 H151 0.985 . S
H148 N143 0.984 . S
H149 N143 0.985 1_655 S
H150 N147 0.984 . S
H151 N147 0.985 . S
H152 N146 0.984 . S
H153 N146 0.984 . S
H154 N142 0.984 . S
H155 N142 0.985 . S
C156 C157 1.363 . S
C156 C162 1.379 1_655 S
C156 N164 1.356 1_545 S
C157 C156 1.363 . S
C157 C163 1.363 . S
C158 C159 1.363 1_655 S
C158 C163 1.379 . S
C158 N165 1.356 1_655 S
C159 C158 1.363 1_455 S
C159 C162 1.363 . S
N160 C162 1.356 . S
N160 H172 0.984 . S
N160 H173 0.985 . S
N161 C163 1.356 . S
N161 H166 0.984 1_545 S
N161 H167 0.985 . S
C162 C156 1.379 1_455 S
C162 C159 1.363 . S
C162 N160 1.356 . S
C163 C157 1.363 . S
C163 C158 1.379 . S
C163 N161 1.356 . S
N164 C156 1.356 1_565 S
N164 H170 0.984 . S
N164 H171 0.984 . S
N165 C158 1.356 1_455 S
N165 H168 0.984 . S
N165 H169 0.985 . S
H166 N161 0.984 1_565 S
H167 N161 0.985 . S
H168 N165 0.984 . S
H169 N165 0.985 . S
H170 N164 0.984 . S
H171 N164 0.984 . S
H172 N160 0.984 . S
H173 N160 0.985 . S
C174 C175 1.363 . S
C174 C180 1.379 . S
C174 N182 1.356 . S
C175 C174 1.363 . S
C175 C181 1.363 . S
C176 C177 1.363 . S
C176 C181 1.379 . S
C176 N183 1.356 1_565 S
C177 C176 1.363 . S
C177 C180 1.363 . S
N178 C180 1.356 . S
N178 H190 0.984 1_556 S
N178 H191 0.985 1_556 S
N179 C181 1.356 . S
N179 H184 0.984 . S
N179 H185 0.985 1_565 S
C180 C174 1.379 . S
C180 C177 1.363 . S
C180 N178 1.356 . S
C181 C175 1.363 . S
C181 C176 1.379 . S
C181 N179 1.356 . S
N182 C174 1.356 . S
N182 H188 0.984 . S
N182 H189 0.984 . S
N183 C176 1.356 1_545 S
N183 H186 0.984 . S
N183 H187 0.985 . S
H184 N179 0.984 . S
H185 N179 0.985 1_545 S
H186 N183 0.984 . S
H187 N183 0.985 . S
H188 N182 0.984 . S
H189 N182 0.984 . S
H190 N178 0.984 1_554 S
H191 N178 0.985 1_554 S
C192 C193 1.363 . S
C192 C198 1.379 . S
C192 N200 1.356 . S
C193 C192 1.363 . S
C193 C199 1.363 . S
C194 C195 1.363 . S
C194 C199 1.379 . S
C194 N201 1.356 . S
C195 C194 1.363 . S
C195 C198 1.363 . S
N196 C198 1.356 . S
N196 H208 0.984 . S
N196 H209 0.985 . S
N197 C199 1.356 . S
N197 H202 0.984 . S
N197 H203 0.985 1_545 S
C198 C192 1.379 . S
C198 C195 1.363 . S
C198 N196 1.356 . S
C199 C193 1.363 . S
C199 C194 1.379 . S
C199 N197 1.356 . S
N200 C192 1.356 . S
N200 H206 0.984 . S
N200 H207 0.984 . S
N201 C194 1.356 . S
N201 H204 0.984 . S
N201 H205 0.985 . S
H202 N197 0.984 . S
H203 N197 0.985 1_565 S
H204 N201 0.984 . S
H205 N201 0.985 . S
H206 N200 0.984 . S
H207 N200 0.984 . S
H208 N196 0.984 . S
H209 N196 0.985 . S
C210 C211 1.363 . S
C210 C216 1.379 . S
C210 N218 1.356 . S
C211 C210 1.363 . S
C211 C217 1.363 . S
C212 C213 1.363 . S
C212 C217 1.379 . S
C212 N219 1.356 . S
C213 C212 1.363 . S
C213 C216 1.363 . S
N214 C216 1.356 . S
N214 H226 0.984 1_565 S
N214 H227 0.985 . S
N215 C217 1.356 . S
N215 H220 0.984 . S
N215 H221 0.985 . S
C216 C210 1.379 . S
C216 C213 1.363 . S
C216 N214 1.356 . S
C217 C211 1.363 . S
C217 C212 1.379 . S
C217 N215 1.356 . S
N218 C210 1.356 . S
N218 H224 0.984 1_565 S
N218 H225 0.984 . S
N219 C212 1.356 . S
N219 H222 0.984 . S
N219 H223 0.985 . S
H220 N215 0.984 . S
H221 N215 0.985 . S
H222 N219 0.984 . S
H223 N219 0.985 . S
H224 N218 0.984 1_545 S
H225 N218 0.984 . S
H226 N214 0.984 1_545 S
H227 N214 0.985 . S
C228 C229 1.363 . S
C228 C234 1.379 . S
C228 N236 1.356 . S
C229 C228 1.363 . S
C229 C235 1.363 . S
C230 C231 1.363 . S
C230 C235 1.379 . S
C230 N237 1.356 1_655 S
C231 C230 1.363 . S
C231 C234 1.363 . S
N232 C234 1.356 . S
N232 H244 0.984 . S
N232 H245 0.985 . S
N233 C235 1.356 . S
N233 H238 0.984 1_554 S
N233 H239 0.985 1_655 S
C234 C228 1.379 . S
C234 C231 1.363 . S
C234 N232 1.356 . S
C235 C229 1.363 . S
C235 C230 1.379 . S
C235 N233 1.356 . S
N236 C228 1.356 . S
N236 H242 0.984 . S
N236 H243 0.984 . S
N237 C230 1.356 1_455 S
N237 H240 0.984 . S
N237 H241 0.985 . S
H238 N233 0.984 1_556 S
H239 N233 0.985 1_455 S
H240 N237 0.984 . S
H241 N237 0.985 . S
H242 N236 0.984 . S
H243 N236 0.984 . S
H244 N232 0.984 . S
H245 N232 0.985 . S
C246 C247 1.363 . S
C246 C252 1.379 . S
C246 N254 1.356 . S
C247 C246 1.363 . S
C247 C253 1.363 . S
C248 C249 1.363 . S
C248 C253 1.379 . S
C248 N255 1.356 . S
C249 C248 1.363 . S
C249 C252 1.363 . S
N250 C252 1.356 . S
N250 H262 0.984 . S
N250 H263 0.985 . S
N251 C253 1.356 . S
N251 H256 0.984 . S
N251 H257 0.985 . S
C252 C246 1.379 . S
C252 C249 1.363 . S
C252 N250 1.356 . S
C253 C247 1.363 . S
C253 C248 1.379 . S
C253 N251 1.356 . S
N254 C246 1.356 . S
N254 H260 0.984 . S
N254 H261 0.984 . S
N255 C248 1.356 . S
N255 H258 0.984 . S
N255 H259 0.985 . S
H256 N251 0.984 . S
H257 N251 0.985 . S
H258 N255 0.984 . S
H259 N255 0.985 . S
H260 N254 0.984 . S
H261 N254 0.984 . S
H262 N250 0.984 . S
H263 N250 0.985 . S
C264 C265 1.363 . S
C264 C270 1.379 . S
C264 N272 1.356 . S
C265 C264 1.363 . S
C265 C271 1.363 . S
C266 C267 1.363 . S
C266 C271 1.379 . S
C266 N273 1.356 . S
C267 C266 1.363 . S
C267 C270 1.363 . S
N268 C270 1.356 . S
N268 H280 0.984 . S
N268 H281 0.985 . S
N269 C271 1.356 . S
N269 H274 0.984 . S
N269 H275 0.985 . S
C270 C264 1.379 . S
C270 C267 1.363 . S
C270 N268 1.356 . S
C271 C265 1.363 . S
C271 C266 1.379 . S
C271 N269 1.356 . S
N272 C264 1.356 . S
N272 H278 0.984 . S
N272 H279 0.984 . S
N273 C266 1.356 . S
N273 H276 0.984 . S
N273 H277 0.985 . S
H274 N269 0.984 . S
H275 N269 0.985 . S
H276 N273 0.984 . S
H277 N273 0.985 . S
H278 N272 0.984 . S
H279 N272 0.984 . S
H280 N268 0.984 . S
H281 N268 0.985 . S
C121 C23 1.649 1_545 S
C123 C2 1.649 . S
C139 C42 1.649 1_545 S
C141 C63 1.644 1_565 S
C157 C82 1.649 1_545 S
C159 C103 1.649 . S
C175 C111 1.611 . S
C177 C4 1.446 1_556 S
C193 C60 1.466 . S
C195 C25 1.433 . S
C211 C84 1.446 . S
C213 C71 1.611 . S
C229 C105 1.433 1_554 S
C231 C20 1.466 . S
C247 C31 1.611 . S
C249 C44 1.446 . S
C265 C100 1.466 . S
C267 C65 1.433 . S
