# Generated by pormake.
# Topology qtz-e, (6)-cn, num edge types: 1
# Building blocks:
#     Node 0, Type 0, BuildingBlock: INOVEN_clean_sbu_0, # of connection points: 6
#     Node 1, Type 0, BuildingBlock: INOVEN_clean_sbu_0, # of connection points: 6
#     Node 2, Type 0, BuildingBlock: INOVEN_clean_sbu_0, # of connection points: 6
#     Node 3, Type 0, BuildingBlock: INOVEN_clean_sbu_0, # of connection points: 6
#     Node 4, Type 0, BuildingBlock: INOVEN_clean_sbu_0, # of connection points: 6
#     Node 5, Type 0, BuildingBlock: INOVEN_clean_sbu_0, # of connection points: 6
#     Edge 6, Type (0, 0), BuildingBlock: TEMPAE_clean_linker_10, # of connection points: 2
#     Edge 7, Type (0, 0), BuildingBlock: TEMPAE_clean_linker_10, # of connection points: 2
#     Edge 8, Type (0, 0), BuildingBlock: TEMPAE_clean_linker_10, # of connection points: 2
#     Edge 9, Type (0, 0), BuildingBlock: TEMPAE_clean_linker_10, # of connection points: 2
#     Edge 10, Type (0, 0), BuildingBlock: TEMPAE_clean_linker_10, # of connection points: 2
#     Edge 11, Type (0, 0), BuildingBlock: TEMPAE_clean_linker_10, # of connection points: 2
#     Edge 12, Type (0, 0), BuildingBlock: TEMPAE_clean_linker_10, # of connection points: 2
#     Edge 13, Type (0, 0), BuildingBlock: TEMPAE_clean_linker_10, # of connection points: 2
#     Edge 14, Type (0, 0), BuildingBlock: TEMPAE_clean_linker_10, # of connection points: 2
#     Edge 15, Type (0, 0), BuildingBlock: TEMPAE_clean_linker_10, # of connection points: 2
#     Edge 16, Type (0, 0), BuildingBlock: TEMPAE_clean_linker_10, # of connection points: 2
#     Edge 17, Type (0, 0), BuildingBlock: TEMPAE_clean_linker_10, # of connection points: 2
#     Edge 18, Type (0, 0), BuildingBlock: TEMPAE_clean_linker_10, # of connection points: 2
#     Edge 19, Type (0, 0), BuildingBlock: TEMPAE_clean_linker_10, # of connection points: 2
#     Edge 20, Type (0, 0), BuildingBlock: TEMPAE_clean_linker_10, # of connection points: 2
#     Edge 21, Type (0, 0), BuildingBlock: TEMPAE_clean_linker_10, # of connection points: 2
#     Edge 22, Type (0, 0), BuildingBlock: TEMPAE_clean_linker_10, # of connection points: 2
#     Edge 23, Type (0, 0), BuildingBlock: TEMPAE_clean_linker_10, # of connection points: 2
# Relax obj value: 0.088
# Max RMSD: 0.173
# Mean RMSD: 0.173
data_MOF--net-qtz-e--node1-INOVEN_clean_sbu_0--edge1-TEMPAE_clean_linker_10
_symmetry_space_group_name_H-M    P1
_symmetry_Int_Tables_number       1
_symmetry_cell_setting            triclinic
loop_
_symmetry_equiv_pos_as_xyz
'x, y, z'
_cell_length_a     26.246067
_cell_length_b     26.22277
_cell_length_c     52.316716
_cell_angle_alpha  89.832891
_cell_angle_beta   89.751915
_cell_angle_gamma 120.09007
loop_
_atom_site_label
_atom_site_type_symbol
_atom_site_fract_x
_atom_site_fract_y
_atom_site_fract_z
_atom_type_partial_charge
Gd0 Gd 0.22111 0.4815 0.06128 0.0
Gd1 Gd 0.17098 0.3563 0.03929 0.0
C2 C 0.13134 0.36968 0.09523 0.0
C3 C 0.24238 0.58213 0.07787 0.0
C4 C 0.23417 0.59805 0.104 0.0
C5 C 0.28208 0.64252 0.11728 0.0
C6 C 0.17981 0.56497 0.11679 0.0
C7 C 0.22218 0.61884 0.156 0.0
C8 C 0.17389 0.57536 0.14245 0.0
C9 C 0.27619 0.65283 0.14306 0.0
C10 C 0.27345 0.42153 0.078 0.0
C11 C 0.26096 0.47174 1.00455 0.0
C12 C 0.16022 0.26645 1.01402 0.0
C13 C 0.18391 0.26016 0.98913 0.0
C14 C 0.15309 0.20777 0.97518 0.0
C15 C 0.23493 0.30743 0.97826 0.0
C16 C 0.22221 0.251 0.93941 0.0
C17 C 0.25343 0.30319 0.95357 0.0
C18 C 0.17234 0.203 0.95067 0.0
C19 C 0.10403 0.40681 0.03499 0.0
O20 O 0.14612 0.42372 0.08784 0.0
O21 O 0.14443 0.33578 0.08102 0.0
O22 O 0.28405 0.56875 0.07509 0.0
O23 O 0.19394 0.54617 0.06571 0.0
O24 O 0.26265 0.45539 0.09226 0.0
O25 O 0.25616 0.4217 0.05561 0.0
O26 O 0.22525 0.41417 1.00659 0.0
O27 O 0.26871 0.5083 0.02345 0.0
O28 O 0.12237 0.28492 1.01265 0.0
O29 O 0.19795 0.29138 0.03265 0.0
O30 O 0.08165 0.35129 0.04082 0.0
O31 O 0.15835 0.43055 0.03182 0.0
H32 H 0.32451 0.66811 0.10793 0.0
H33 H 0.14196 0.53001 0.10719 0.0
H34 H 0.13145 0.54907 0.1517 0.0
H35 H 0.31441 0.68628 0.15303 0.0
H36 H 0.11353 0.17078 0.98307 0.0
H37 H 0.26028 0.34798 0.98869 0.0
H38 H 0.29236 0.34073 0.94556 0.0
H39 H 0.14722 0.16231 0.94022 0.0
Gd40 Gd 0.71399 0.209 0.39096 0.0
Gd41 Gd 0.82583 0.21034 0.37863 0.0
C42 C 0.77224 0.1581 0.43225 0.0
C43 C 0.61123 0.17925 0.40916 0.0
C44 C 0.59322 0.17343 0.43618 0.0
C45 C 0.53517 0.15606 0.44319 0.0
C46 C 0.63515 0.18586 0.45531 0.0
C47 C 0.56116 0.16283 0.48828 0.0
C48 C 0.61925 0.18017 0.48107 0.0
C49 C 0.51919 0.15077 0.46907 0.0
C50 C 0.80921 0.30995 0.40431 0.0
C51 C 0.77164 0.26604 0.33859 0.0
C52 C 0.92462 0.23269 0.35754 0.0
C53 C 0.94452 0.24543 0.33053 0.0
C54 C 0.00259 0.26237 0.32366 0.0
C55 C 0.9053 0.2411 0.31136 0.0
C56 C 0.9821 0.2712 0.27867 0.0
C57 C 0.92391 0.25437 0.28586 0.0
C58 C 0.02112 0.27479 0.29802 0.0
C59 C 0.72437 0.11319 0.36461 0.0
O60 O 0.72435 0.15437 0.42216 0.0
O61 O 0.82354 0.18688 0.42018 0.0
O62 O 0.64881 0.23291 0.40164 0.0
O63 O 0.62562 0.14078 0.4013 0.0
O64 O 0.76101 0.30579 0.39598 0.0
O65 O 0.80464 0.25986 0.40695 0.0
O66 O 0.81926 0.27102 0.34947 0.0
O67 O 0.7194 0.23353 0.34946 0.0
O68 O 0.88156 0.17932 0.36231 0.0
O69 O 0.91715 0.2727 0.36901 0.0
O70 O 0.76621 0.11033 0.37636 0.0
O71 O 0.73795 0.16571 0.36192 0.0
H72 H 0.50238 0.14707 0.42874 0.0
H73 H 0.68057 0.20091 0.45037 0.0
H74 H 0.65288 0.19092 0.49534 0.0
H75 H 0.47403 0.13718 0.47407 0.0
H76 H 0.03356 0.26568 0.33809 0.0
H77 H 0.86004 0.22741 0.31608 0.0
H78 H 0.89254 0.25186 0.27188 0.0
H79 H 0.06591 0.28642 0.29339 0.0
Gd80 Gd 0.50796 0.72193 0.72438 0.0
Gd81 Gd 0.61901 0.83407 0.71206 0.0
C82 C 0.61081 0.78768 0.76832 0.0
C83 C 0.43597 0.62052 0.74363 0.0
C84 C 0.4185 0.60805 0.77069 0.0
C85 C 0.42212 0.65341 0.7862 0.0
C86 C 0.40377 0.55366 0.78183 0.0
C87 C 0.3974 0.59054 0.82372 0.0
C88 C 0.39344 0.54498 0.80818 0.0
C89 C 0.41129 0.64461 0.8124 0.0
C90 C 0.49727 0.81649 0.73256 0.0
C91 C 0.51435 0.77137 0.66949 0.0
C92 C 0.69554 0.93379 0.69145 0.0
C93 C 0.70462 0.95638 0.66486 0.0
C94 C 0.68008 0.91744 0.64425 0.0
C95 C 0.73707 0.01713 0.65989 0.0
C96 C 0.72037 -0.00017 0.61394 0.0
C97 C 0.74503 0.03866 0.63473 0.0
C98 C 0.68762 0.93886 0.61912 0.0
C99 C 0.61915 0.73292 0.70242 0.0
O100 O 0.56405 0.7396 0.75978 0.0
O101 O 0.63886 0.83562 0.75393 0.0
O102 O 0.41824 0.65282 0.73173 0.0
O103 O 0.49131 0.63747 0.73897 0.0
O104 O 0.45525 0.76623 0.72469 0.0
O105 O 0.54328 0.81424 0.73762 0.0
O106 O 0.55701 0.821 0.6792 0.0
O107 O 0.49328 0.72128 0.6823 0.0
O108 O 0.70564 0.89047 0.69558 0.0
O109 O 0.64753 0.92551 0.70286 0.0
O110 O 0.66241 0.77702 0.71389 0.0
O111 O 0.57961 0.74444 0.69762 0.0
H112 H 0.43469 0.69628 0.77812 0.0
H113 H 0.40094 0.51816 0.77033 0.0
H114 H 0.38204 0.50256 0.81639 0.0
H115 H 0.41535 0.68072 0.82392 0.0
H116 H 0.65472 0.87033 0.64758 0.0
H117 H 0.75644 0.04799 0.67548 0.0
H118 H 0.77122 0.08576 0.63157 0.0
H119 H 0.66703 0.9075 0.6038 0.0
Gd120 Gd 0.78169 0.50811 0.05728 0.0
Gd121 Gd 0.77816 0.61802 0.04368 0.0
C122 C 0.82494 0.6157 0.09878 0.0
C123 C 0.81141 0.43491 0.07497 0.0
C124 C 0.81834 0.41877 0.10128 0.0
C125 C 0.7847 0.36 0.10947 0.0
C126 C 0.85439 0.46204 0.11897 0.0
C127 C 0.81868 0.3888 0.15311 0.0
C128 C 0.85442 0.44725 0.14464 0.0
C129 C 0.78486 0.3451 0.13513 0.0
C130 C 0.67713 0.49835 0.06691 0.0
C131 C 0.73585 0.51013 1.00221 0.0
C132 C 0.75358 0.69453 0.0245 0.0
C133 C 0.7394 0.70743 0.99864 0.0
C134 C 0.77011 0.76522 0.98884 0.0
C135 C 0.69632 0.6627 0.98333 0.0
C136 C 0.71656 0.73295 0.94862 0.0
C137 C 0.68514 0.67533 0.95862 0.0
C138 C 0.75869 0.77791 0.96415 0.0
C139 C 0.87924 0.61824 0.03326 0.0
O140 O 0.8287 0.57033 0.09011 0.0
O141 O 0.79829 0.63846 0.08544 0.0
O142 O 0.75749 0.41901 0.06837 0.0
O143 O 0.84976 0.48815 0.06709 0.0
O144 O 0.68445 0.4557 0.05913 0.0
O145 O 0.72592 0.54467 0.07087 0.0
O146 O 0.73052 0.55489 1.01074 0.0
O147 O 0.76372 0.48914 1.01572 0.0
O148 O 0.80742 0.70526 0.02781 0.0
O149 O 0.7144 0.6454 0.03558 0.0
O150 O 0.87882 0.66243 0.04412 0.0
O151 O 0.82785 0.57813 0.02939 0.0
H152 H 0.75665 0.32589 0.09617 0.0
H153 H 0.88148 0.50756 0.11313 0.0
H154 H 0.88175 0.48174 0.15794 0.0
H155 H 0.7566 0.29974 0.14108 0.0
H156 H 0.80339 0.80056 1.00025 0.0
H157 H 0.67134 0.61783 0.99038 0.0
H158 H 0.65136 0.64009 0.94739 0.0
H159 H 0.78364 0.82273 0.95701 0.0
Gd160 Gd 0.25015 0.77067 0.3937 0.0
Gd161 Gd 0.16912 0.81291 0.37128 0.0
C162 C 0.22112 0.85613 0.42683 0.0
C163 C 0.33324 0.75367 0.40916 0.0
C164 C 0.35313 0.75129 0.43517 0.0
C165 C 0.31218 0.72644 0.45529 0.0
C166 C 0.41349 0.77937 0.44054 0.0
C167 C 0.3917 0.75916 0.486 0.0
C168 C 0.43267 0.78319 0.46576 0.0
C169 C 0.33126 0.73009 0.48041 0.0
C170 C 0.13822 0.71262 0.41162 0.0
C171 C 0.19655 0.72411 0.33784 0.0
C172 C 0.08969 0.82408 0.34672 0.0
C173 C 0.05574 0.79985 0.32288 0.0
C174 C 0.04853 0.83769 0.30618 0.0
C175 C 0.03384 0.74089 0.31566 0.0
C176 C 1e-05 0.7589 0.27491 0.0
C177 C 0.00606 0.72058 0.29198 0.0
C178 C 0.02105 0.81755 0.28251 0.0
C179 C 0.28651 0.8839 0.3653 0.0
O180 O 0.26262 0.84427 0.41982 0.0
O181 O 0.17391 0.84028 0.41251 0.0
O182 O 0.28103 0.71026 0.40275 0.0
O183 O 0.34234 0.80569 0.40216 0.0
O184 O 0.18414 0.72551 0.42527 0.0
O185 O 0.15415 0.72995 0.38899 0.0
O186 O 0.16573 0.75117 0.34053 0.0
O187 O 0.23416 0.72708 0.35535 0.0
O188 O 0.14625 0.85944 0.34352 0.0
O189 O 0.07735 0.78818 0.36627 0.0
O190 O 0.25206 0.90422 0.37152 0.0
O191 O 0.2573 0.82942 0.36301 0.0
H192 H 0.26534 0.70519 0.45171 0.0
H193 H 0.44575 0.79972 0.42533 0.0
H194 H 0.47953 0.80642 0.46947 0.0
H195 H 0.29856 0.71034 0.49549 0.0
H196 H 0.06511 0.88334 0.31128 0.0
H197 H 0.03921 0.71081 0.32808 0.0
H198 H -0.00922 0.67527 0.28675 0.0
H199 H 0.01637 0.84809 0.27013 0.0
Gd200 Gd 0.47122 0.24791 0.7261 0.0
Gd201 Gd 0.34719 0.17839 0.7037 0.0
C202 C 0.35906 0.22586 0.76019 0.0
C203 C 0.57393 0.32387 0.74227 0.0
C204 C 0.59398 0.34608 0.76832 0.0
C205 C 0.64446 0.34808 0.77829 0.0
C206 C 0.56051 0.36183 0.78404 0.0
C207 C 0.62662 0.37946 0.81956 0.0
C208 C 0.57679 0.37854 0.8093 0.0
C209 C 0.66073 0.36469 0.8037 0.0
C210 C 0.40795 0.13537 0.74303 0.0
C211 C 0.45871 0.19069 0.67063 0.0
C212 C 0.25689 0.10862 0.67656 0.0
C213 C 0.25099 0.0793 0.65152 0.0
C214 C 0.23789 0.10138 0.62951 0.0
C215 C 0.26129 0.03178 0.64886 0.0
C216 C 0.24759 0.03085 0.60265 0.0
C217 C 0.25925 0.00763 0.62471 0.0
C218 C 0.23662 0.07779 0.6054 0.0
C219 C 0.404 0.29697 0.699 0.0
O220 O 0.4142 0.26436 0.75358 0.0
O221 O 0.32439 0.18153 0.74502 0.0
O222 O 0.55841 0.26852 0.73838 0.0
O223 O 0.53758 0.33868 0.73206 0.0
O224 O 0.44275 0.17977 0.75713 0.0
O225 O 0.40864 0.1533 0.72058 0.0
O226 O 0.40116 0.16679 0.67332 0.0
O227 O 0.49618 0.22615 0.688 0.0
O228 O 0.2819 0.16604 0.67558 0.0
O229 O 0.27394 0.09021 0.69637 0.0
O230 O 0.34874 0.26617 0.70536 0.0
O231 O 0.42481 0.26388 0.69589 0.0
H232 H 0.6706 0.33566 0.76657 0.0
H233 H 0.52115 0.36052 0.77697 0.0
H234 H 0.55023 0.39073 0.82083 0.0
H235 H 0.69912 0.36456 0.81111 0.0
H236 H 0.22947 0.13772 0.63087 0.0
H237 H 0.27182 0.01376 0.66533 0.0
H238 H 0.26816 0.97164 0.62321 0.0
H239 H 0.22662 0.09613 0.58888 0.0
C240 C 0.14918 0.68591 0.29549 0.0
C241 C 0.19303 0.69507 0.31316 0.0
C242 C 0.15018 0.66668 0.27061 0.0
C243 C 0.19633 0.65668 0.26318 0.0
C244 C 0.23877 0.66252 0.28133 0.0
C245 C 0.2365 0.68148 0.30616 0.0
C246 C 0.10368 0.66027 0.25189 0.0
C247 C 0.28866 0.65225 0.27411 0.0
C248 C 0.18402 0.57996 0.20008 0.0
C249 C 0.21618 0.62821 0.18359 0.0
C250 C 0.17719 0.58831 0.22609 0.0
C251 C 0.20364 0.64628 0.23585 0.0
C252 C 0.2366 0.69507 0.21937 0.0
C253 C 0.24229 0.68543 0.19344 0.0
C254 C 0.14165 0.53521 0.24307 0.0
C255 C 0.26543 0.7576 0.22907 0.0
H256 H 0.11502 0.69562 0.30079 0.0
H257 H 0.27053 0.68835 0.31968 0.0
H258 H 0.12382 0.69596 0.23734 0.0
H259 H 0.08522 0.61771 0.24165 0.0
H260 H 0.06706 0.66269 0.2614 0.0
H261 H 0.31416 0.65236 0.29103 0.0
H262 H 0.27162 0.60959 0.2641 0.0
H263 H 0.31906 0.68743 0.26072 0.0
H264 H 0.16449 0.53553 0.19269 0.0
H265 H 0.26648 0.72289 0.18077 0.0
H266 H 0.10562 0.53859 0.2526 0.0
H267 H 0.17005 0.53367 0.25833 0.0
H268 H 0.1221 0.49319 0.23228 0.0
H269 H 0.2314 0.76687 0.2367 0.0
H270 H 0.29082 0.79055 0.2139 0.0
H271 H 0.29566 0.76349 0.24499 0.0
C272 C 0.53475 0.22113 0.63592 0.0
C273 C 0.48025 0.17936 0.64633 0.0
C274 C 0.55052 0.21502 0.61086 0.0
C275 C 0.51118 0.16556 0.59614 0.0
C276 C 0.4579 0.12133 0.60724 0.0
C277 C 0.44291 0.12898 0.63211 0.0
C278 C 0.60755 0.26331 0.5996 0.0
C279 C 0.41527 0.06738 0.5924 0.0
C280 C 0.51216 0.18517 0.52417 0.0
C281 C 0.54562 0.16026 0.51578 0.0
C282 C 0.50063 0.18696 0.55026 0.0
C283 C 0.52277 0.16289 0.56843 0.0
C284 C 0.55538 0.13635 0.56005 0.0
C285 C 0.56663 0.13561 0.53382 0.0
C286 C 0.46545 0.21546 0.55839 0.0
C287 C 0.57874 0.10915 0.57874 0.0
H288 H 0.56358 0.26021 0.64678 0.0
H289 H 0.40094 0.09613 0.64018 0.0
H290 H 0.63284 0.24444 0.59071 0.0
H291 H 0.59781 0.28655 0.58431 0.0
H292 H 0.63558 0.29609 0.61415 0.0
H293 H 0.37955 0.03384 0.60473 0.0
H294 H 0.39496 0.08031 0.57702 0.0
H295 H 0.43868 0.04692 0.58311 0.0
H296 H 0.49639 0.20487 0.51037 0.0
H297 H 0.59188 0.11564 0.52738 0.0
H298 H 0.49154 0.252 0.57183 0.0
H299 H 0.42489 0.18289 0.56864 0.0
H300 H 0.45253 0.23324 0.54191 0.0
H301 H 0.61206 0.14387 0.59122 0.0
H302 H 0.59943 0.08642 0.56898 0.0
H303 H 0.54265 0.07694 0.5913 0.0
C304 C 0.33857 0.55085 0.97645 0.0
C305 C 0.28852 0.49488 0.97929 0.0
C306 C 0.36359 0.57211 0.95212 0.0
C307 C 0.33701 0.53696 0.93029 0.0
C308 C 0.28646 0.4806 0.93316 0.0
C309 C 0.26325 0.46011 0.95757 0.0
C310 C 0.41805 0.63211 0.94972 0.0
C311 C 0.2559 0.44235 0.91035 0.0
C312 C 0.35041 0.59955 0.86379 0.0
C313 C 0.38653 0.58167 0.85164 0.0
C314 C 0.33677 0.58843 0.88987 0.0
C315 C 0.36005 0.55895 0.90416 0.0
C316 C 0.39889 0.54337 0.89227 0.0
C317 C 0.41145 0.55467 0.86608 0.0
C318 C 0.29464 0.60512 0.90175 0.0
C319 C 0.42483 0.51215 0.90689 0.0
H320 H 0.35837 0.57774 0.99319 0.0
H321 H 0.22415 0.41704 0.95952 0.0
H322 H 0.45332 0.6285 0.93957 0.0
H323 H 0.40826 0.66163 0.93813 0.0
H324 H 0.43488 0.65284 0.96861 0.0
H325 H 0.21792 0.39891 0.91596 0.0
H326 H 0.23966 0.46502 0.89765 0.0
H327 H 0.28745 0.43498 0.89905 0.0
H328 H 0.33089 0.62023 0.85265 0.0
H329 H 0.44035 0.54188 0.85683 0.0
H330 H 0.31252 0.62891 0.91995 0.0
H331 H 0.25234 0.5646 0.90629 0.0
H332 H 0.2855 0.63327 0.88884 0.0
H333 H 0.44242 0.53397 0.92551 0.0
H334 H 0.46071 0.51102 0.89602 0.0
H335 H 0.38987 0.4661 0.91099 0.0
C336 C 0.7282 0.27296 0.29698 0.0
C337 C 0.77762 0.29055 0.31247 0.0
C338 C 0.73462 0.29034 0.27117 0.0
C339 C 0.79176 0.32618 0.26068 0.0
C340 C 0.84167 0.34541 0.27643 0.0
C341 C 0.83398 0.3276 0.30212 0.0
C342 C 0.68037 0.26883 0.25488 0.0
C343 C 0.90335 0.3835 0.266 0.0
C344 C 0.81334 0.32249 0.18894 0.0
C345 C 0.81416 0.37386 0.18075 0.0
C346 C 0.80595 0.30636 0.21487 0.0
C347 C 0.79947 0.34263 0.23309 0.0
C348 C 0.80091 0.39488 0.22498 0.0
C349 C 0.80835 0.40993 0.19892 0.0
C350 C 0.80564 0.25077 0.22274 0.0
C351 C 0.79459 0.43492 0.24381 0.0
H352 H 0.68458 0.24406 0.30476 0.0
H353 H 0.87251 0.34164 0.31396 0.0
H354 H 0.67966 0.30677 0.24583 0.0
H355 H 0.68141 0.24081 0.23926 0.0
H356 H 0.63907 0.24286 0.26609 0.0
H357 H 0.93739 0.3964 0.28102 0.0
H358 H 0.91228 0.35942 0.25086 0.0
H359 H 0.90783 0.42404 0.25714 0.0
H360 H 0.81873 0.29496 0.17503 0.0
H361 H 0.80835 0.44939 0.19268 0.0
H362 H 0.76731 0.2232 0.23533 0.0
H363 H 0.846 0.26259 0.23375 0.0
H364 H 0.80433 0.22409 0.20604 0.0
H365 H 0.75461 0.40945 0.25581 0.0
H366 H 0.7917 0.47116 0.23417 0.0
H367 H 0.83301 0.45453 0.2568 0.0
C368 C 0.45142 0.71953 0.63172 0.0
C369 C 0.49438 0.7718 0.64309 0.0
C370 C 0.43461 0.719 0.60624 0.0
C371 C 0.46179 0.77191 0.59173 0.0
C372 C 0.50462 0.82499 0.60319 0.0
C373 C 0.52005 0.82435 0.62877 0.0
C374 C 0.38825 0.66165 0.59474 0.0
C375 C 0.53506 0.88224 0.5883 0.0
C376 C 0.4584 0.75626 0.5195 0.0
C377 C 0.41152 0.76493 0.51295 0.0
C378 C 0.47595 0.75949 0.54504 0.0
C379 C 0.44571 0.77141 0.56448 0.0
C380 C 0.39914 0.78137 0.55794 0.0
C381 C 0.38275 0.77819 0.53226 0.0
C382 C 0.5262 0.74917 0.55128 0.0
C383 C 0.36614 0.79465 0.5781 0.0
H384 H 0.43123 0.67878 0.64263 0.0
H385 H 0.5529 0.8651 0.63743 0.0
H386 H 0.35138 0.66655 0.58732 0.0
H387 H 0.40721 0.64993 0.57832 0.0
H388 H 0.3703 0.62471 0.60877 0.0
H389 H 0.56447 0.92032 0.60049 0.0
H390 H 0.56185 0.87882 0.57265 0.0
H391 H 0.50214 0.89124 0.57933 0.0
H392 H 0.48057 0.74562 0.50472 0.0
H393 H 0.34731 0.78621 0.52727 0.0
H394 H 0.51017 0.70969 0.56374 0.0
H395 H 0.56068 0.7872 0.562 0.0
H396 H 0.54654 0.74255 0.53387 0.0
H397 H 0.34469 0.75725 0.59181 0.0
H398 H 0.33184 0.80259 0.56978 0.0
H399 H 0.39723 0.8341 0.58914 0.0
C400 C 0.70048 0.51841 0.95885 0.0
C401 C 0.71597 0.48744 0.97608 0.0
C402 C 0.68522 0.49938 0.93355 0.0
C403 C 0.68509 0.44796 0.92532 0.0
C404 C 0.69966 0.41589 0.94271 0.0
C405 C 0.7151 0.43611 0.96787 0.0
C406 C 0.67016 0.53482 0.91547 0.0
C407 C 0.69968 0.36065 0.93465 0.0
C408 C 0.59792 0.37355 0.86566 0.0
C409 C 0.64217 0.39518 0.8468 0.0
C410 C 0.61131 0.3898 0.89133 0.0
C411 C 0.67048 0.42833 0.89837 0.0
C412 C 0.71554 0.44945 0.87953 0.0
C413 C 0.70082 0.43264 0.85396 0.0
C414 C 0.56205 0.36628 0.91086 0.0
C415 C 0.77915 0.49073 0.88632 0.0
H416 H 0.70158 0.55836 0.96492 0.0
H417 H 0.72689 0.41181 0.98106 0.0
H418 H 0.70132 0.55069 0.89904 0.0
H419 H 0.62533 0.50673 0.90767 0.0
H420 H 0.67193 0.57345 0.9249 0.0
H421 H 0.71056 0.33994 0.95067 0.0
H422 H 0.65587 0.32808 0.92706 0.0
H423 H 0.73226 0.37118 0.91903 0.0
H424 H 0.55263 0.34369 0.86034 0.0
H425 H 0.73513 0.44994 0.83945 0.0
H426 H 0.55983 0.40337 0.91987 0.0
H427 H 0.57075 0.34258 0.92629 0.0
H428 H 0.51851 0.33581 0.90232 0.0
H429 H 0.7842 0.53235 0.89406 0.0
H430 H 0.80912 0.50148 0.86959 0.0
H431 H 0.79316 0.47076 0.90147 0.0
C432 C 0.35089 0.40183 0.06237 0.0
C433 C 0.32491 0.41496 0.08281 0.0
C434 C 0.4084 0.41222 0.06417 0.0
C435 C 0.43973 0.43473 0.08722 0.0
C436 C 0.41137 0.44188 0.10881 0.0
C437 C 0.35406 0.43221 0.1063 0.0
C438 C 0.4371 0.40366 0.04073 0.0
C439 C 0.44281 0.46368 0.13394 0.0
C440 C 0.58051 0.43029 0.0864 0.0
C441 C 0.62027 0.48681 0.07706 0.0
C442 C 0.52232 0.41419 0.09216 0.0
C443 C 0.50339 0.45516 0.08766 0.0
C444 C 0.54448 0.51366 0.07995 0.0
C445 C 0.60308 0.52911 0.07508 0.0
C446 C 0.48029 0.35213 0.10121 0.0
C447 C 0.52558 0.55843 0.07482 0.0
H448 H 0.32803 0.38779 0.04428 0.0
H449 H 0.33357 0.44163 0.12223 0.0
H450 H 0.47357 0.44698 0.03407 0.0
H451 H 0.4564 0.37562 0.04536 0.0
H452 H 0.40558 0.38297 0.02477 0.0
H453 H 0.4116 0.45599 0.14988 0.0
H454 H 0.46842 0.44174 0.13863 0.0
H455 H 0.47433 0.51171 0.13252 0.0
H456 H 0.59439 0.39788 0.0884 0.0
H457 H 0.6342 0.57284 0.06809 0.0
H458 H 0.45203 0.3259 0.0851 0.0
H459 H 0.45091 0.352 0.11656 0.0
H460 H 0.504 0.32991 0.10846 0.0
H461 H 0.49646 0.54474 0.05786 0.0
H462 H 0.5637 0.60316 0.07113 0.0
H463 H 0.49995 0.56068 0.09124 0.0
C464 C 0.04054 0.63308 0.39772 0.0
C465 C 0.08134 0.65995 0.41737 0.0
C466 C -0.00611 0.57532 0.40045 0.0
C467 C 0.98741 0.54451 0.42363 0.0
C468 C 0.02506 0.57349 0.44442 0.0
C469 C 0.07204 0.6311 0.44099 0.0
C470 C 0.95419 0.54598 0.37787 0.0
C471 C 0.01819 0.54254 0.46964 0.0
C472 C 0.84095 0.40496 0.42546 0.0
C473 C 0.85585 0.3649 0.41512 0.0
C474 C 0.88438 0.46276 0.43089 0.0
C475 C 0.94366 0.48093 0.42506 0.0
C476 C 0.95932 0.43921 0.41662 0.0
C477 C 0.91488 0.38102 0.41205 0.0
C478 C 0.86623 0.50543 0.44074 0.0
C479 C 0.02226 0.45722 0.41014 0.0
H480 H 0.04741 0.65566 0.37953 0.0
H481 H 0.10334 0.65221 0.45631 0.0
H482 H 0.95979 0.50895 0.37115 0.0
H483 H 0.90739 0.52728 0.38355 0.0
H484 H 0.96379 0.57698 0.36163 0.0
H485 H 0.04349 0.57409 0.48507 0.0
H486 H 0.97117 0.5169 0.47546 0.0
H487 H 0.03448 0.51103 0.46766 0.0
H488 H 0.79499 0.39183 0.42825 0.0
H489 H 0.92602 0.34964 0.40421 0.0
H490 H 0.86694 0.53369 0.42476 0.0
H491 H 0.89736 0.53477 0.45545 0.0
H492 H 0.82109 0.48216 0.44906 0.0
H493 H 0.0362 0.48538 0.39272 0.0
H494 H 0.02784 0.41855 0.40655 0.0
H495 H 0.05205 0.48358 0.42583 0.0
C496 C 0.42082 0.0662 0.77114 0.0
C497 C 0.40206 0.07743 0.74782 0.0
C498 C 0.43271 0.01995 0.77344 0.0
C499 C 0.42573 0.98473 0.75187 0.0
C500 C 0.40125 0.99235 0.7291 0.0
C501 C 0.38911 0.03842 0.72744 0.0
C502 C 0.45701 0.01184 0.79825 0.0
C503 C 0.39249 0.95508 0.70575 0.0
C504 C 0.52433 0.92086 0.73923 0.0
C505 C 0.48421 0.86089 0.7424 0.0
C506 C 0.50678 0.96254 0.74372 0.0
C507 C 0.44834 0.94322 0.75208 0.0
C508 C 0.40962 0.88304 0.75754 0.0
C509 C 0.42785 0.84241 0.75231 0.0
C510 C 0.54922 0.02658 0.73767 0.0
C511 C 0.34767 0.86101 0.76716 0.0
H512 H 0.43013 0.09598 0.78704 0.0
H513 H 0.37392 0.04667 0.70949 0.0
H514 H 0.43663 0.96442 0.80326 0.0
H515 H 0.50509 0.02964 0.79612 0.0
H516 H 0.44969 0.03516 0.81429 0.0
H517 H 0.3693 0.9641 0.69021 0.0
H518 H 0.43595 0.9641 0.69835 0.0
H519 H 0.3668 0.90758 0.71077 0.0
H520 H 0.56785 0.93479 0.73164 0.0
H521 H 0.39714 0.79577 0.75514 0.0
H522 H 0.55142 0.05478 0.75387 0.0
H523 H 0.53336 0.04018 0.72077 0.0
H524 H 0.59432 0.03495 0.73348 0.0
H525 H 0.34717 0.88998 0.78246 0.0
H526 H 0.32716 0.81521 0.77469 0.0
H527 H 0.32014 0.86172 0.75129 0.0
C528 C 0.57809 0.64161 0.67804 0.0
C529 C 0.60862 0.67291 0.69972 0.0
C530 C 0.55051 0.58022 0.67736 0.0
C531 C 0.55319 0.5495 0.69908 0.0
C532 C 0.58774 0.58121 0.72039 0.0
C533 C 0.61544 0.6431 0.72043 0.0
C534 C 0.5146 0.54823 0.6542 0.0
C535 C 0.59158 0.54975 0.74386 0.0
C536 C 0.41984 0.39714 0.70838 0.0
C537 C 0.44085 0.3615 0.69877 0.0
C538 C 0.45656 0.45855 0.70903 0.0
C539 C 0.51551 0.48444 0.7001 0.0
C540 C 0.53676 0.44839 0.69038 0.0
C541 C 0.49889 0.38737 0.68954 0.0
C542 C 0.43236 0.49585 0.71923 0.0
C543 C 0.5992 0.47428 0.68065 0.0
H544 H 0.57259 0.66509 0.66215 0.0
H545 H 0.63806 0.66751 0.73739 0.0
H546 H 0.52551 0.51458 0.64772 0.0
H547 H 0.46708 0.52489 0.65928 0.0
H548 H 0.52193 0.57875 0.63801 0.0
H549 H 0.62705 0.5802 0.75691 0.0
H550 H 0.54908 0.52982 0.75442 0.0
H551 H 0.59959 0.51346 0.73847 0.0
H552 H 0.37499 0.37706 0.7155 0.0
H553 H 0.51504 0.3597 0.68185 0.0
H554 H 0.43381 0.52628 0.70409 0.0
H555 H 0.46044 0.52314 0.73512 0.0
H556 H 0.38628 0.46899 0.72624 0.0
H557 H 0.6061 0.50287 0.6638 0.0
H558 H 0.60979 0.43977 0.67508 0.0
H559 H 0.63068 0.50238 0.69555 0.0
C560 C 0.10357 0.49875 0.02549 0.0
C561 C 0.07419 0.44138 0.0356 0.0
C562 C 0.07903 0.53515 0.02713 0.0
C563 C 0.02277 0.51284 0.03834 0.0
C564 C -0.00712 0.45479 0.04861 0.0
C565 C 0.01915 0.41964 0.0472 0.0
C566 C 0.11276 0.59698 1.01633 0.0
C567 C 0.93278 0.42942 0.0606 0.0
C568 C 0.96295 0.61484 0.05386 0.0
C569 C 0.92748 0.60559 0.03251 0.0
C570 C -0.00425 0.58596 0.05594 0.0
C571 C -0.00763 0.54739 0.0362 0.0
C572 C 0.95915 0.541 1.01402 0.0
C573 C 0.92725 0.57033 1.01247 0.0
C574 C 0.03091 0.59389 0.07983 0.0
C575 C 0.95447 0.50052 0.9925 0.0
H576 H 0.14633 0.51556 1.01643 0.0
H577 H -0.00315 0.37544 0.05519 0.0
H578 H 0.08983 0.60053 0.99924 0.0
H579 H 0.11455 0.62911 0.03058 0.0
H580 H 0.15849 0.60957 1.01073 0.0
H581 H 0.91642 0.38452 0.06859 0.0
H582 H 0.93426 0.45862 0.0762 0.0
H583 H 0.9011 0.42718 0.04605 0.0
H584 H 0.96162 0.64087 0.06965 0.0
H585 H 0.89897 0.56279 0.99615 0.0
H586 H 0.07484 0.59991 0.07504 0.0
H587 H 0.00754 0.55376 0.09195 0.0
H588 H 0.0369 0.63221 0.09121 0.0
H589 H -0.00108 0.51297 0.98513 0.0
H590 H 0.9277 0.50167 0.97635 0.0
H591 H 0.93399 0.45453 0.99972 0.0
C592 C 0.3797 0.8873 0.35456 0.0
C593 C 0.35108 0.91578 0.36477 0.0
C594 C 0.44096 0.91374 0.35503 0.0
C595 C 0.47444 0.97036 0.36573 0.0
C596 C 0.44577 -0.00045 0.37594 0.0
C597 C 0.38408 0.97176 0.37537 0.0
C598 C 0.46983 0.88138 0.3438 0.0
C599 C 0.48019 0.05987 0.3876 0.0
C600 C 0.63447 0.028 0.38325 0.0
C601 C 0.66294 0.06635 0.36272 0.0
C602 C 0.57263 -0.00479 0.38437 0.0
C603 C 0.53954 0.00083 0.36432 0.0
C604 C 0.56865 0.03676 0.34285 0.0
C605 C 0.63007 0.06943 0.34243 0.0
C606 C 0.54287 0.9576 0.40765 0.0
C607 C 0.53497 0.04327 0.32093 0.0
H608 H 0.35402 0.84381 0.3463 0.0
H609 H 0.36174 -0.00667 0.38346 0.0
H610 H 0.49822 0.90672 0.32736 0.0
H611 H 0.49857 0.87743 0.35821 0.0
H612 H 0.43713 0.83651 0.33715 0.0
H613 H 0.45145 0.07771 0.39342 0.0
H614 H 0.50374 0.05736 0.40467 0.0
H615 H 0.51372 0.09108 0.37385 0.0
H616 H 0.66018 0.02701 0.39921 0.0
H617 H 0.65256 0.09987 0.32675 0.0
H618 H 0.50768 0.91301 0.40195 0.0
H619 H 0.52167 0.97784 0.41889 0.0
H620 H 0.57447 0.95312 0.4202 0.0
H621 H 0.50252 -0.00067 0.31338 0.0
H622 H 0.56441 0.07032 0.30502 0.0
H623 H 0.51002 0.06447 0.32781 0.0
C624 C 0.37803 0.26281 0.8053 0.0
C625 C 0.33755 0.23129 0.7859 0.0
C626 C 0.35916 0.2661 0.83014 0.0
C627 C 0.29814 0.23818 0.8358 0.0
C628 C 0.25699 0.20728 0.81617 0.0
C629 C 0.27715 0.20361 0.79158 0.0
C630 C 0.40469 0.29857 0.85049 0.0
C631 C 0.1916 0.17807 0.82116 0.0
C632 C 0.24737 0.19929 0.90535 0.0
C633 C 0.24105 0.24717 0.91283 0.0
C634 C 0.26606 0.19591 0.88043 0.0
C635 C 0.27754 0.24084 0.8623 0.0
C636 C 0.27031 0.28882 0.86969 0.0
C637 C 0.25275 0.29161 0.89487 0.0
C638 C 0.27442 0.14468 0.87361 0.0
C639 C 0.28117 0.33733 0.85101 0.0
H640 H 0.42481 0.2838 0.80126 0.0
H641 H 0.24554 0.17934 0.77675 0.0
H642 H 0.39924 0.33474 0.85842 0.0
H643 H 0.39848 0.26813 0.86651 0.0
H644 H 0.45038 0.31762 0.84305 0.0
H645 H 0.16535 0.15772 0.8037 0.0
H646 H 0.1784 0.14337 0.83603 0.0
H647 H 0.18042 0.2109 0.82858 0.0
H648 H 0.23882 0.16501 0.91918 0.0
H649 H 0.2472 0.32819 0.90045 0.0
H650 H 0.32063 0.16119 0.86745 0.0
H651 H 0.24577 0.1201 0.85732 0.0
H652 H 0.26412 0.11363 0.88989 0.0
H653 H 0.32839 0.36199 0.84548 0.0
H654 H 0.26906 0.36897 0.8591 0.0
H655 H 0.25551 0.31826 0.83331 0.0
C656 C 0.96249 0.25339 0.23124 0.0
C657 C 0.00164 0.28435 0.25118 0.0
C658 C 0.9801 0.26529 0.20541 0.0
C659 C 0.0388 0.30839 0.19912 0.0
C660 C 0.07857 0.3399 0.21905 0.0
C661 C 0.05949 0.32788 0.24471 0.0
C662 C 0.93567 0.23185 0.18483 0.0
C663 C 0.14154 0.38633 0.21328 0.0
C664 C 0.10336 0.30336 0.13404 0.0
C665 C 0.10251 0.34951 0.12079 0.0
C666 C 0.08207 0.28897 0.15938 0.0
C667 C 0.05863 0.32094 0.17173 0.0
C668 C 0.05582 0.36621 0.15811 0.0
C669 C 0.078 0.38008 0.13297 0.0
C670 C 0.08636 0.24073 0.17324 0.0
C671 C 0.0306 0.40105 0.17026 0.0
H672 H 0.91798 0.21906 0.23574 0.0
H673 H 0.09001 0.3532 0.2597 0.0
H674 H 0.93034 0.26316 0.17237 0.0
H675 H 0.95156 0.20819 0.17256 0.0
H676 H 0.89186 0.19939 0.19283 0.0
H677 H 0.16703 0.40701 0.23089 0.0
H678 H 0.16374 0.36639 0.20256 0.0
H679 H 0.14269 0.4214 0.20097 0.0
H680 H 0.12257 0.27979 0.12493 0.0
H681 H 0.07675 0.41567 0.12293 0.0
H682 H 0.04235 0.20693 0.18046 0.0
H683 H 0.11547 0.25939 0.19007 0.0
H684 H 0.10409 0.21886 0.16082 0.0
H685 H 0.98596 0.37082 0.17809 0.0
H686 H 0.02769 0.43188 0.15653 0.0
H687 H 0.05862 0.42702 0.18648 0.0
C688 C 0.72885 0.075 0.58127 0.0
C689 C 0.72903 0.02268 0.58701 0.0
C690 C 0.73734 0.09707 0.55608 0.0
C691 C 0.74591 0.06603 0.53594 0.0
C692 C 0.74565 0.01301 0.54152 0.0
C693 C 0.73756 0.99222 0.5669 0.0
C694 C 0.73684 0.15354 0.551 0.0
C695 C 0.75361 0.97796 0.52063 0.0
C696 C 0.71068 0.09346 0.46842 0.0
C697 C 0.76684 0.13195 0.45816 0.0
C698 C 0.70338 0.07137 0.49349 0.0
C699 C 0.75342 0.08815 0.50895 0.0
C700 C 0.81033 0.1264 0.49865 0.0
C701 C 0.8164 0.1476 0.47335 0.0
C702 C 0.64192 0.03008 0.50343 0.0
C703 C 0.86478 0.14593 0.51457 0.0
H704 H 0.72124 0.09847 0.59644 0.0
H705 H 0.7386 0.95224 0.571 0.0
H706 H 0.77938 0.18668 0.54226 0.0
H707 H 0.70172 0.14555 0.53717 0.0
H708 H 0.72945 0.17236 0.56869 0.0
H709 H 0.75223 0.93756 0.52807 0.0
H710 H 0.7185 0.96488 0.50615 0.0
H711 H 0.79637 0.00551 0.51071 0.0
H712 H 0.67195 0.08068 0.45687 0.0
H713 H 0.85987 0.1776 0.46571 0.0
H714 H 0.63403 0.04697 0.52155 0.0
H715 H 0.63706 0.98638 0.50771 0.0
H716 H 0.60744 0.02402 0.48954 0.0
H717 H 0.86286 0.16993 0.53165 0.0
H718 H 0.90585 0.17512 0.50373 0.0
H719 H 0.8668 0.10699 0.52152 0.0
C720 C 0.68846 0.8202 0.80255 0.0
C721 C 0.6295 0.7864 0.79504 0.0
C722 C 0.70605 0.8148 0.82741 0.0
C723 C 0.66346 0.77584 0.84538 0.0
C724 C 0.6036 0.7433 0.83808 0.0
C725 C 0.58763 0.74834 0.813 0.0
C726 C 0.77044 0.84945 0.83424 0.0
C727 C 0.55627 0.70207 0.85656 0.0
C728 C 0.70395 0.71034 0.90165 0.0
C729 C 0.70554 0.74577 0.92203 0.0
C730 C 0.69236 0.72091 0.87653 0.0
C731 C 0.68113 0.76757 0.87161 0.0
C732 C 0.6832 0.80383 0.89211 0.0
C733 C 0.69591 0.79285 0.91699 0.0
C734 C 0.69139 0.68156 0.85531 0.0
C735 C 0.66987 0.85291 0.88792 0.0
H736 H 0.72111 0.84934 0.78874 0.0
H737 H 0.54191 0.7223 0.80746 0.0
H738 H 0.77669 0.87675 0.85137 0.0
H739 H 0.78645 0.81869 0.8391 0.0
H740 H 0.79794 0.87872 0.81838 0.0
H741 H 0.51142 0.68802 0.84941 0.0
H742 H 0.55993 0.66213 0.85956 0.0
H743 H 0.56152 0.7233 0.87543 0.0
H744 H 0.71222 0.67446 0.90534 0.0
H745 H 0.69664 0.82012 0.93268 0.0
H746 H 0.72097 0.70862 0.83947 0.0
H747 H 0.64629 0.65607 0.84743 0.0
H748 H 0.7052 0.65003 0.86193 0.0
H749 H 0.69892 0.88335 0.87274 0.0
H750 H 0.6756 0.87864 0.90558 0.0
H751 H 0.62379 0.83416 0.88132 0.0
C752 C 0.92313 0.68269 0.24578 0.0
C753 C 0.97321 0.7385 0.24906 0.0
C754 C 0.89764 0.66338 0.22151 0.0
C755 C 0.92296 0.70046 0.19985 0.0
C756 C 0.97354 0.75675 0.20303 0.0
C757 C -0.0021 0.77503 0.2275 0.0
C758 C 0.84381 0.60302 0.21905 0.0
C759 C 0.00252 0.79744 0.18048 0.0
C760 C 0.89447 0.62921 0.13413 0.0
C761 C 0.85099 0.63987 0.12423 0.0
C762 C 0.91804 0.64851 0.15859 0.0
C763 C 0.89796 0.67967 0.17373 0.0
C764 C 0.85458 0.69134 0.16375 0.0
C765 C 0.83181 0.67156 0.13908 0.0
C766 C 0.96445 0.63536 0.16823 0.0
C767 C 0.83169 0.72408 0.1793 0.0
H768 H 0.90333 0.65426 0.26227 0.0
H769 H 0.03715 0.81778 0.22966 0.0
H770 H 0.80843 0.60605 0.20886 0.0
H771 H 0.85481 0.57432 0.20754 0.0
H772 H 0.82655 0.58164 0.23793 0.0
H773 H 0.04073 0.84035 0.1862 0.0
H774 H 0.01791 0.77623 0.16651 0.0
H775 H 0.97022 0.80592 0.17054 0.0
H776 H 0.91063 0.60602 0.12261 0.0
H777 H 0.79815 0.67987 0.13164 0.0
H778 H 0.94862 0.60822 0.1859 0.0
H779 H 0.00501 0.67699 0.17319 0.0
H780 H 0.97595 0.61143 0.15394 0.0
H781 H 0.81206 0.69998 0.19745 0.0
H782 H 0.79791 0.72958 0.16891 0.0
H783 H 0.86852 0.76829 0.18442 0.0
C784 C 0.21639 0.94534 0.57274 0.0
C785 C 0.24663 0.00641 0.57679 0.0
C786 C 0.21309 0.92191 0.54822 0.0
C787 C 0.24122 0.96037 0.5272 0.0
C788 C 0.273 0.02205 0.53131 0.0
C789 C 0.27497 0.04427 0.55597 0.0
C790 C 0.1789 0.85591 0.54476 0.0
C791 C 0.30476 0.06466 0.50964 0.0
C792 C 0.27428 0.8965 0.46821 0.0
C793 C 0.22743 0.88563 0.45191 0.0
C794 C 0.27962 0.92125 0.49255 0.0
C795 C 0.23726 0.93595 0.50097 0.0
C796 C 0.19043 0.9261 0.48449 0.0
C797 C 0.18597 0.90095 0.46023 0.0
C798 C 0.33015 0.93073 0.50945 0.0
C799 C 0.14451 0.94142 0.49264 0.0
H800 H 0.19407 0.91583 0.58868 0.0
H801 H 0.29927 0.09148 0.55903 0.0
H802 H 0.14252 0.84391 0.53105 0.0
H803 H 0.20794 0.8406 0.53656 0.0
H804 H 0.15994 0.83198 0.56303 0.0
H805 H 0.32858 0.11123 0.5161 0.0
H806 H 0.33696 0.05451 0.50062 0.0
H807 H 0.27279 0.05985 0.4947 0.0
H808 H 0.3066 0.88476 0.46215 0.0
H809 H 0.14964 0.89285 0.44789 0.0
H810 H 0.31286 0.90403 0.52718 0.0
H811 H 0.35593 0.97761 0.51525 0.0
H812 H 0.36028 0.91845 0.49985 0.0
H813 H 0.12098 0.91557 0.50993 0.0
H814 H 0.11169 0.93246 0.47744 0.0
H815 H 0.16597 0.98873 0.49779 0.0
loop_
_geom_bond_atom_site_label_1
_geom_bond_atom_site_label_2
_geom_bond_distance
_geom_bond_site_symmetry_2
_ccdc_geom_bond_type
Gd0 C3 2.818 . S
Gd0 O20 2.377 . S
Gd0 O22 2.448 . S
Gd0 O23 2.506 . S
Gd0 O24 2.435 . S
Gd0 O25 2.717 . S
Gd0 O27 2.395 . S
Gd0 O31 2.327 . S
Gd1 C12 2.818 1_554 S
Gd1 O21 2.395 . S
Gd1 O25 2.327 . S
Gd1 O26 2.377 1_554 S
Gd1 O28 2.448 1_554 S
Gd1 O29 2.506 1_554 S
Gd1 O30 2.435 . S
Gd1 O31 2.717 . S
C2 O20 1.240 . S
C2 O21 1.240 . S
C3 Gd0 2.818 . S
C3 C4 1.510 . S
C3 O22 1.249 . S
C3 O23 1.252 . S
C4 C3 1.510 . S
C4 C5 1.404 . S
C4 C6 1.352 . S
C5 C4 1.404 . S
C5 C9 1.389 . S
C5 H32 0.930 . S
C6 C4 1.352 . S
C6 C8 1.374 . S
C6 H33 0.931 . S
C7 C8 1.359 . S
C7 C9 1.364 . S
C8 C6 1.374 . S
C8 C7 1.359 . S
C8 H34 0.931 . S
C9 C5 1.389 . S
C9 C7 1.364 . S
C9 H35 0.931 . S
C10 O24 1.256 . S
C10 O25 1.257 . S
C11 O26 1.240 . S
C11 O27 1.240 1_556 S
C12 Gd1 2.818 1_556 S
C12 C13 1.510 . S
C12 O28 1.249 . S
C12 O29 1.252 . S
C13 C12 1.510 . S
C13 C14 1.404 . S
C13 C15 1.352 . S
C14 C13 1.404 . S
C14 C18 1.389 . S
C14 H36 0.930 . S
C15 C13 1.352 . S
C15 C17 1.374 . S
C15 H37 0.931 . S
C16 C17 1.359 . S
C16 C18 1.364 . S
C17 C15 1.374 . S
C17 C16 1.359 . S
C17 H38 0.931 . S
C18 C14 1.389 . S
C18 C16 1.364 . S
C18 H39 0.931 . S
C19 O30 1.256 . S
C19 O31 1.257 . S
O20 Gd0 2.377 . S
O20 C2 1.240 . S
O21 Gd1 2.395 . S
O21 C2 1.240 . S
O22 Gd0 2.448 . S
O22 C3 1.249 . S
O23 Gd0 2.506 . S
O23 C3 1.252 . S
O24 Gd0 2.435 . S
O24 C10 1.256 . S
O25 Gd0 2.717 . S
O25 Gd1 2.327 . S
O25 C10 1.257 . S
O26 Gd1 2.377 1_556 S
O26 C11 1.240 . S
O27 Gd0 2.395 . S
O27 C11 1.240 1_554 S
O28 Gd1 2.448 1_556 S
O28 C12 1.249 . S
O29 Gd1 2.506 1_556 S
O29 C12 1.252 . S
O30 Gd1 2.435 . S
O30 C19 1.256 . S
O31 Gd0 2.327 . S
O31 Gd1 2.717 . S
O31 C19 1.257 . S
H32 C5 0.930 . S
H33 C6 0.931 . S
H34 C8 0.931 . S
H35 C9 0.931 . S
H36 C14 0.930 . S
H37 C15 0.931 . S
H38 C17 0.931 . S
H39 C18 0.931 . S
Gd40 C43 2.818 . S
Gd40 O60 2.377 . S
Gd40 O62 2.448 . S
Gd40 O63 2.506 . S
Gd40 O64 2.435 . S
Gd40 O65 2.717 . S
Gd40 O67 2.395 . S
Gd40 O71 2.327 . S
Gd41 C52 2.818 . S
Gd41 O61 2.395 . S
Gd41 O65 2.327 . S
Gd41 O66 2.377 . S
Gd41 O68 2.448 . S
Gd41 O69 2.506 . S
Gd41 O70 2.435 . S
Gd41 O71 2.717 . S
C42 O60 1.240 . S
C42 O61 1.240 . S
C43 Gd40 2.818 . S
C43 C44 1.510 . S
C43 O62 1.249 . S
C43 O63 1.252 . S
C44 C43 1.510 . S
C44 C45 1.404 . S
C44 C46 1.352 . S
C45 C44 1.404 . S
C45 C49 1.389 . S
C45 H72 0.930 . S
C46 C44 1.352 . S
C46 C48 1.374 . S
C46 H73 0.931 . S
C47 C48 1.359 . S
C47 C49 1.364 . S
C48 C46 1.374 . S
C48 C47 1.359 . S
C48 H74 0.931 . S
C49 C45 1.389 . S
C49 C47 1.364 . S
C49 H75 0.931 . S
C50 O64 1.256 . S
C50 O65 1.257 . S
C51 O66 1.240 . S
C51 O67 1.240 . S
C52 Gd41 2.818 . S
C52 C53 1.510 . S
C52 O68 1.249 . S
C52 O69 1.252 . S
C53 C52 1.510 . S
C53 C54 1.404 . S
C53 C55 1.352 . S
C54 C53 1.404 . S
C54 C58 1.389 . S
C54 H76 0.930 . S
C55 C53 1.352 . S
C55 C57 1.374 . S
C55 H77 0.931 . S
C56 C57 1.359 . S
C56 C58 1.364 . S
C57 C55 1.374 . S
C57 C56 1.359 . S
C57 H78 0.931 1_655 S
C58 C54 1.389 . S
C58 C56 1.364 . S
C58 H79 0.931 . S
C59 O70 1.256 . S
C59 O71 1.257 . S
O60 Gd40 2.377 . S
O60 C42 1.240 . S
O61 Gd41 2.395 . S
O61 C42 1.240 . S
O62 Gd40 2.448 . S
O62 C43 1.249 . S
O63 Gd40 2.506 . S
O63 C43 1.252 . S
O64 Gd40 2.435 . S
O64 C50 1.256 . S
O65 Gd40 2.717 . S
O65 Gd41 2.327 . S
O65 C50 1.257 . S
O66 Gd41 2.377 . S
O66 C51 1.240 . S
O67 Gd40 2.395 . S
O67 C51 1.240 . S
O68 Gd41 2.448 . S
O68 C52 1.249 . S
O69 Gd41 2.506 . S
O69 C52 1.252 . S
O70 Gd41 2.435 . S
O70 C59 1.256 . S
O71 Gd40 2.327 . S
O71 Gd41 2.717 . S
O71 C59 1.257 . S
H72 C45 0.930 . S
H73 C46 0.931 . S
H74 C48 0.931 . S
H75 C49 0.931 . S
H76 C54 0.930 . S
H77 C55 0.931 . S
H78 C57 0.931 1_455 S
H79 C58 0.931 . S
Gd80 C83 2.818 . S
Gd80 O100 2.377 . S
Gd80 O102 2.448 . S
Gd80 O103 2.506 . S
Gd80 O104 2.435 . S
Gd80 O105 2.717 . S
Gd80 O107 2.395 . S
Gd80 O111 2.327 . S
Gd81 C92 2.818 . S
Gd81 O101 2.395 . S
Gd81 O105 2.327 . S
Gd81 O106 2.377 . S
Gd81 O108 2.448 . S
Gd81 O109 2.506 . S
Gd81 O110 2.435 . S
Gd81 O111 2.717 . S
C82 O100 1.240 . S
C82 O101 1.240 . S
C83 Gd80 2.818 . S
C83 C84 1.510 . S
C83 O102 1.249 . S
C83 O103 1.252 . S
C84 C83 1.510 . S
C84 C85 1.404 . S
C84 C86 1.352 . S
C85 C84 1.404 . S
C85 C89 1.389 . S
C85 H112 0.930 . S
C86 C84 1.352 . S
C86 C88 1.374 . S
C86 H113 0.931 . S
C87 C88 1.359 . S
C87 C89 1.364 . S
C88 C86 1.374 . S
C88 C87 1.359 . S
C88 H114 0.931 . S
C89 C85 1.389 . S
C89 C87 1.364 . S
C89 H115 0.931 . S
C90 O104 1.256 . S
C90 O105 1.257 . S
C91 O106 1.240 . S
C91 O107 1.240 . S
C92 Gd81 2.818 . S
C92 C93 1.510 . S
C92 O108 1.249 . S
C92 O109 1.252 . S
C93 C92 1.510 . S
C93 C94 1.404 . S
C93 C95 1.352 . S
C94 C93 1.404 . S
C94 C98 1.389 . S
C94 H116 0.930 . S
C95 C93 1.352 . S
C95 C97 1.374 . S
C95 H117 0.931 . S
C96 C97 1.359 . S
C96 C98 1.364 . S
C97 C95 1.374 . S
C97 C96 1.359 . S
C97 H118 0.931 1_565 S
C98 C94 1.389 . S
C98 C96 1.364 . S
C98 H119 0.931 . S
C99 O110 1.256 . S
C99 O111 1.257 . S
O100 Gd80 2.377 . S
O100 C82 1.240 . S
O101 Gd81 2.395 . S
O101 C82 1.240 . S
O102 Gd80 2.448 . S
O102 C83 1.249 . S
O103 Gd80 2.506 . S
O103 C83 1.252 . S
O104 Gd80 2.435 . S
O104 C90 1.256 . S
O105 Gd80 2.717 . S
O105 Gd81 2.327 . S
O105 C90 1.257 . S
O106 Gd81 2.377 . S
O106 C91 1.240 . S
O107 Gd80 2.395 . S
O107 C91 1.240 . S
O108 Gd81 2.448 . S
O108 C92 1.249 . S
O109 Gd81 2.506 . S
O109 C92 1.252 . S
O110 Gd81 2.435 . S
O110 C99 1.256 . S
O111 Gd80 2.327 . S
O111 Gd81 2.717 . S
O111 C99 1.257 . S
H112 C85 0.930 . S
H113 C86 0.931 . S
H114 C88 0.931 . S
H115 C89 0.931 . S
H116 C94 0.930 . S
H117 C95 0.931 . S
H118 C97 0.931 1_545 S
H119 C98 0.931 . S
Gd120 C123 2.818 . S
Gd120 O140 2.377 . S
Gd120 O142 2.448 . S
Gd120 O143 2.506 . S
Gd120 O144 2.435 . S
Gd120 O145 2.717 . S
Gd120 O147 2.395 . S
Gd120 O151 2.327 . S
Gd121 C132 2.818 1_554 S
Gd121 O141 2.395 . S
Gd121 O145 2.327 . S
Gd121 O146 2.377 1_554 S
Gd121 O148 2.448 1_554 S
Gd121 O149 2.506 1_554 S
Gd121 O150 2.435 . S
Gd121 O151 2.717 . S
C122 O140 1.240 . S
C122 O141 1.240 . S
C123 Gd120 2.818 . S
C123 C124 1.510 . S
C123 O142 1.249 . S
C123 O143 1.252 . S
C124 C123 1.510 . S
C124 C125 1.404 . S
C124 C126 1.352 . S
C125 C124 1.404 . S
C125 C129 1.389 . S
C125 H152 0.930 . S
C126 C124 1.352 . S
C126 C128 1.374 . S
C126 H153 0.931 . S
C127 C128 1.359 . S
C127 C129 1.364 . S
C128 C126 1.374 . S
C128 C127 1.359 . S
C128 H154 0.931 . S
C129 C125 1.389 . S
C129 C127 1.364 . S
C129 H155 0.931 . S
C130 O144 1.256 . S
C130 O145 1.257 . S
C131 O146 1.240 . S
C131 O147 1.240 1_556 S
C132 Gd121 2.818 1_556 S
C132 C133 1.510 . S
C132 O148 1.249 . S
C132 O149 1.252 . S
C133 C132 1.510 . S
C133 C134 1.404 . S
C133 C135 1.352 . S
C134 C133 1.404 . S
C134 C138 1.389 . S
C134 H156 0.930 . S
C135 C133 1.352 . S
C135 C137 1.374 . S
C135 H157 0.931 . S
C136 C137 1.359 . S
C136 C138 1.364 . S
C137 C135 1.374 . S
C137 C136 1.359 . S
C137 H158 0.931 . S
C138 C134 1.389 . S
C138 C136 1.364 . S
C138 H159 0.931 . S
C139 O150 1.256 . S
C139 O151 1.257 . S
O140 Gd120 2.377 . S
O140 C122 1.240 . S
O141 Gd121 2.395 . S
O141 C122 1.240 . S
O142 Gd120 2.448 . S
O142 C123 1.249 . S
O143 Gd120 2.506 . S
O143 C123 1.252 . S
O144 Gd120 2.435 . S
O144 C130 1.256 . S
O145 Gd120 2.717 . S
O145 Gd121 2.327 . S
O145 C130 1.257 . S
O146 Gd121 2.377 1_556 S
O146 C131 1.240 . S
O147 Gd120 2.395 . S
O147 C131 1.240 1_554 S
O148 Gd121 2.448 1_556 S
O148 C132 1.249 . S
O149 Gd121 2.506 1_556 S
O149 C132 1.252 . S
O150 Gd121 2.435 . S
O150 C139 1.256 . S
O151 Gd120 2.327 . S
O151 Gd121 2.717 . S
O151 C139 1.257 . S
H152 C125 0.930 . S
H153 C126 0.931 . S
H154 C128 0.931 . S
H155 C129 0.931 . S
H156 C134 0.930 . S
H157 C135 0.931 . S
H158 C137 0.931 . S
H159 C138 0.931 . S
Gd160 C163 2.818 . S
Gd160 O180 2.377 . S
Gd160 O182 2.448 . S
Gd160 O183 2.506 . S
Gd160 O184 2.435 . S
Gd160 O185 2.717 . S
Gd160 O187 2.395 . S
Gd160 O191 2.327 . S
Gd161 C172 2.818 . S
Gd161 O181 2.395 . S
Gd161 O185 2.327 . S
Gd161 O186 2.377 . S
Gd161 O188 2.448 . S
Gd161 O189 2.506 . S
Gd161 O190 2.435 . S
Gd161 O191 2.717 . S
C162 O180 1.240 . S
C162 O181 1.240 . S
C163 Gd160 2.818 . S
C163 C164 1.510 . S
C163 O182 1.249 . S
C163 O183 1.252 . S
C164 C163 1.510 . S
C164 C165 1.404 . S
C164 C166 1.352 . S
C165 C164 1.404 . S
C165 C169 1.389 . S
C165 H192 0.930 . S
C166 C164 1.352 . S
C166 C168 1.374 . S
C166 H193 0.931 . S
C167 C168 1.359 . S
C167 C169 1.364 . S
C168 C166 1.374 . S
C168 C167 1.359 . S
C168 H194 0.931 . S
C169 C165 1.389 . S
C169 C167 1.364 . S
C169 H195 0.931 . S
C170 O184 1.256 . S
C170 O185 1.257 . S
C171 O186 1.240 . S
C171 O187 1.240 . S
C172 Gd161 2.818 . S
C172 C173 1.510 . S
C172 O188 1.249 . S
C172 O189 1.252 . S
C173 C172 1.510 . S
C173 C174 1.404 . S
C173 C175 1.352 . S
C174 C173 1.404 . S
C174 C178 1.389 . S
C174 H196 0.930 . S
C175 C173 1.352 . S
C175 C177 1.374 . S
C175 H197 0.931 . S
C176 C177 1.359 . S
C176 C178 1.364 . S
C177 C175 1.374 . S
C177 C176 1.359 . S
C177 H198 0.931 1_455 S
C178 C174 1.389 . S
C178 C176 1.364 . S
C178 H199 0.931 . S
C179 O190 1.256 . S
C179 O191 1.257 . S
O180 Gd160 2.377 . S
O180 C162 1.240 . S
O181 Gd161 2.395 . S
O181 C162 1.240 . S
O182 Gd160 2.448 . S
O182 C163 1.249 . S
O183 Gd160 2.506 . S
O183 C163 1.252 . S
O184 Gd160 2.435 . S
O184 C170 1.256 . S
O185 Gd160 2.717 . S
O185 Gd161 2.327 . S
O185 C170 1.257 . S
O186 Gd161 2.377 . S
O186 C171 1.240 . S
O187 Gd160 2.395 . S
O187 C171 1.240 . S
O188 Gd161 2.448 . S
O188 C172 1.249 . S
O189 Gd161 2.506 . S
O189 C172 1.252 . S
O190 Gd161 2.435 . S
O190 C179 1.256 . S
O191 Gd160 2.327 . S
O191 Gd161 2.717 . S
O191 C179 1.257 . S
H192 C165 0.930 . S
H193 C166 0.931 . S
H194 C168 0.931 . S
H195 C169 0.931 . S
H196 C174 0.930 . S
H197 C175 0.931 . S
H198 C177 0.931 1_655 S
H199 C178 0.931 . S
Gd200 C203 2.818 . S
Gd200 O220 2.377 . S
Gd200 O222 2.448 . S
Gd200 O223 2.506 . S
Gd200 O224 2.435 . S
Gd200 O225 2.717 . S
Gd200 O227 2.395 . S
Gd200 O231 2.327 . S
Gd201 C212 2.818 . S
Gd201 O221 2.395 . S
Gd201 O225 2.327 . S
Gd201 O226 2.377 . S
Gd201 O228 2.448 . S
Gd201 O229 2.506 . S
Gd201 O230 2.435 . S
Gd201 O231 2.717 . S
C202 O220 1.240 . S
C202 O221 1.240 . S
C203 Gd200 2.818 . S
C203 C204 1.510 . S
C203 O222 1.249 . S
C203 O223 1.252 . S
C204 C203 1.510 . S
C204 C205 1.404 . S
C204 C206 1.352 . S
C205 C204 1.404 . S
C205 C209 1.389 . S
C205 H232 0.930 . S
C206 C204 1.352 . S
C206 C208 1.374 . S
C206 H233 0.931 . S
C207 C208 1.359 . S
C207 C209 1.364 . S
C208 C206 1.374 . S
C208 C207 1.359 . S
C208 H234 0.931 . S
C209 C205 1.389 . S
C209 C207 1.364 . S
C209 H235 0.931 . S
C210 O224 1.256 . S
C210 O225 1.257 . S
C211 O226 1.240 . S
C211 O227 1.240 . S
C212 Gd201 2.818 . S
C212 C213 1.510 . S
C212 O228 1.249 . S
C212 O229 1.252 . S
C213 C212 1.510 . S
C213 C214 1.404 . S
C213 C215 1.352 . S
C214 C213 1.404 . S
C214 C218 1.389 . S
C214 H236 0.930 . S
C215 C213 1.352 . S
C215 C217 1.374 . S
C215 H237 0.931 . S
C216 C217 1.359 . S
C216 C218 1.364 . S
C217 C215 1.374 . S
C217 C216 1.359 . S
C217 H238 0.931 1_545 S
C218 C214 1.389 . S
C218 C216 1.364 . S
C218 H239 0.931 . S
C219 O230 1.256 . S
C219 O231 1.257 . S
O220 Gd200 2.377 . S
O220 C202 1.240 . S
O221 Gd201 2.395 . S
O221 C202 1.240 . S
O222 Gd200 2.448 . S
O222 C203 1.249 . S
O223 Gd200 2.506 . S
O223 C203 1.252 . S
O224 Gd200 2.435 . S
O224 C210 1.256 . S
O225 Gd200 2.717 . S
O225 Gd201 2.327 . S
O225 C210 1.257 . S
O226 Gd201 2.377 . S
O226 C211 1.240 . S
O227 Gd200 2.395 . S
O227 C211 1.240 . S
O228 Gd201 2.448 . S
O228 C212 1.249 . S
O229 Gd201 2.506 . S
O229 C212 1.252 . S
O230 Gd201 2.435 . S
O230 C219 1.256 . S
O231 Gd200 2.327 . S
O231 Gd201 2.717 . S
O231 C219 1.257 . S
H232 C205 0.930 . S
H233 C206 0.931 . S
H234 C208 0.931 . S
H235 C209 0.931 . S
H236 C214 0.930 . S
H237 C215 0.931 . S
H238 C217 0.931 1_565 S
H239 C218 0.931 . S
C240 C241 1.391 . S
C240 C242 1.394 . S
C240 H256 0.931 . S
C241 C240 1.391 . S
C241 C245 1.376 . S
C242 C240 1.394 . S
C242 C243 1.369 . S
C242 C246 1.531 . S
C243 C242 1.369 . S
C243 C244 1.410 . S
C243 C251 1.503 . S
C244 C243 1.410 . S
C244 C245 1.392 . S
C244 C247 1.511 . S
C245 C241 1.376 . S
C245 C244 1.392 . S
C245 H257 0.929 . S
C246 C242 1.531 . S
C246 H258 0.960 . S
C246 H259 0.962 . S
C246 H260 0.960 . S
C247 C244 1.511 . S
C247 H261 0.961 . S
C247 H262 0.961 . S
C247 H263 0.961 . S
C248 C249 1.370 . S
C248 C250 1.363 . S
C248 H264 0.931 . S
C249 C248 1.370 . S
C249 C253 1.408 . S
C250 C248 1.363 . S
C250 C251 1.370 . S
C250 C254 1.524 . S
C251 C243 1.503 . S
C251 C250 1.370 . S
C251 C252 1.403 . S
C252 C251 1.403 . S
C252 C253 1.404 . S
C252 C255 1.539 . S
C253 C249 1.408 . S
C253 C252 1.404 . S
C253 H265 0.930 . S
C254 C250 1.524 . S
C254 H266 0.956 . S
C254 H267 0.961 . S
C254 H268 0.961 . S
C255 C252 1.539 . S
C255 H269 0.958 . S
C255 H270 0.961 . S
C255 H271 0.960 . S
H256 C240 0.931 . S
H257 C245 0.929 . S
H258 C246 0.960 . S
H259 C246 0.962 . S
H260 C246 0.960 . S
H261 C247 0.961 . S
H262 C247 0.961 . S
H263 C247 0.961 . S
H264 C248 0.931 . S
H265 C253 0.930 . S
H266 C254 0.956 . S
H267 C254 0.961 . S
H268 C254 0.961 . S
H269 C255 0.958 . S
H270 C255 0.961 . S
H271 C255 0.960 . S
C272 C273 1.391 . S
C272 C274 1.394 . S
C272 H288 0.931 . S
C273 C272 1.391 . S
C273 C277 1.376 . S
C274 C272 1.394 . S
C274 C275 1.369 . S
C274 C278 1.531 . S
C275 C274 1.369 . S
C275 C276 1.410 . S
C275 C283 1.503 . S
C276 C275 1.410 . S
C276 C277 1.392 . S
C276 C279 1.511 . S
C277 C273 1.376 . S
C277 C276 1.392 . S
C277 H289 0.929 . S
C278 C274 1.531 . S
C278 H290 0.960 . S
C278 H291 0.962 . S
C278 H292 0.960 . S
C279 C276 1.511 . S
C279 H293 0.961 . S
C279 H294 0.961 . S
C279 H295 0.961 . S
C280 C281 1.370 . S
C280 C282 1.363 . S
C280 H296 0.931 . S
C281 C280 1.370 . S
C281 C285 1.408 . S
C282 C280 1.363 . S
C282 C283 1.370 . S
C282 C286 1.524 . S
C283 C275 1.503 . S
C283 C282 1.370 . S
C283 C284 1.403 . S
C284 C283 1.403 . S
C284 C285 1.404 . S
C284 C287 1.539 . S
C285 C281 1.408 . S
C285 C284 1.404 . S
C285 H297 0.930 . S
C286 C282 1.524 . S
C286 H298 0.956 . S
C286 H299 0.961 . S
C286 H300 0.961 . S
C287 C284 1.539 . S
C287 H301 0.958 . S
C287 H302 0.961 . S
C287 H303 0.960 . S
H288 C272 0.931 . S
H289 C277 0.929 . S
H290 C278 0.960 . S
H291 C278 0.962 . S
H292 C278 0.960 . S
H293 C279 0.961 . S
H294 C279 0.961 . S
H295 C279 0.961 . S
H296 C280 0.931 . S
H297 C285 0.930 . S
H298 C286 0.956 . S
H299 C286 0.961 . S
H300 C286 0.961 . S
H301 C287 0.958 . S
H302 C287 0.961 . S
H303 C287 0.960 . S
C304 C305 1.391 . S
C304 C306 1.394 . S
C304 H320 0.931 . S
C305 C304 1.391 . S
C305 C309 1.376 . S
C306 C304 1.394 . S
C306 C307 1.369 . S
C306 C310 1.531 . S
C307 C306 1.369 . S
C307 C308 1.410 . S
C307 C315 1.503 . S
C308 C307 1.410 . S
C308 C309 1.392 . S
C308 C311 1.511 . S
C309 C305 1.376 . S
C309 C308 1.392 . S
C309 H321 0.929 . S
C310 C306 1.531 . S
C310 H322 0.960 . S
C310 H323 0.962 . S
C310 H324 0.960 . S
C311 C308 1.511 . S
C311 H325 0.961 . S
C311 H326 0.961 . S
C311 H327 0.961 . S
C312 C313 1.370 . S
C312 C314 1.363 . S
C312 H328 0.931 . S
C313 C312 1.370 . S
C313 C317 1.408 . S
C314 C312 1.363 . S
C314 C315 1.370 . S
C314 C318 1.524 . S
C315 C307 1.503 . S
C315 C314 1.370 . S
C315 C316 1.403 . S
C316 C315 1.403 . S
C316 C317 1.404 . S
C316 C319 1.539 . S
C317 C313 1.408 . S
C317 C316 1.404 . S
C317 H329 0.930 . S
C318 C314 1.524 . S
C318 H330 0.956 . S
C318 H331 0.961 . S
C318 H332 0.961 . S
C319 C316 1.539 . S
C319 H333 0.958 . S
C319 H334 0.961 . S
C319 H335 0.960 . S
H320 C304 0.931 . S
H321 C309 0.929 . S
H322 C310 0.960 . S
H323 C310 0.962 . S
H324 C310 0.960 . S
H325 C311 0.961 . S
H326 C311 0.961 . S
H327 C311 0.961 . S
H328 C312 0.931 . S
H329 C317 0.930 . S
H330 C318 0.956 . S
H331 C318 0.961 . S
H332 C318 0.961 . S
H333 C319 0.958 . S
H334 C319 0.961 . S
H335 C319 0.960 . S
C336 C337 1.391 . S
C336 C338 1.394 . S
C336 H352 0.931 . S
C337 C336 1.391 . S
C337 C341 1.376 . S
C338 C336 1.394 . S
C338 C339 1.369 . S
C338 C342 1.531 . S
C339 C338 1.369 . S
C339 C340 1.410 . S
C339 C347 1.503 . S
C340 C339 1.410 . S
C340 C341 1.392 . S
C340 C343 1.511 . S
C341 C337 1.376 . S
C341 C340 1.392 . S
C341 H353 0.929 . S
C342 C338 1.531 . S
C342 H354 0.960 . S
C342 H355 0.962 . S
C342 H356 0.960 . S
C343 C340 1.511 . S
C343 H357 0.961 . S
C343 H358 0.961 . S
C343 H359 0.961 . S
C344 C345 1.370 . S
C344 C346 1.363 . S
C344 H360 0.931 . S
C345 C344 1.370 . S
C345 C349 1.408 . S
C346 C344 1.363 . S
C346 C347 1.370 . S
C346 C350 1.524 . S
C347 C339 1.503 . S
C347 C346 1.370 . S
C347 C348 1.403 . S
C348 C347 1.403 . S
C348 C349 1.404 . S
C348 C351 1.539 . S
C349 C345 1.408 . S
C349 C348 1.404 . S
C349 H361 0.930 . S
C350 C346 1.524 . S
C350 H362 0.956 . S
C350 H363 0.961 . S
C350 H364 0.961 . S
C351 C348 1.539 . S
C351 H365 0.958 . S
C351 H366 0.961 . S
C351 H367 0.960 . S
H352 C336 0.931 . S
H353 C341 0.929 . S
H354 C342 0.960 . S
H355 C342 0.962 . S
H356 C342 0.960 . S
H357 C343 0.961 . S
H358 C343 0.961 . S
H359 C343 0.961 . S
H360 C344 0.931 . S
H361 C349 0.930 . S
H362 C350 0.956 . S
H363 C350 0.961 . S
H364 C350 0.961 . S
H365 C351 0.958 . S
H366 C351 0.961 . S
H367 C351 0.960 . S
C368 C369 1.391 . S
C368 C370 1.394 . S
C368 H384 0.931 . S
C369 C368 1.391 . S
C369 C373 1.376 . S
C370 C368 1.394 . S
C370 C371 1.369 . S
C370 C374 1.531 . S
C371 C370 1.369 . S
C371 C372 1.410 . S
C371 C379 1.503 . S
C372 C371 1.410 . S
C372 C373 1.392 . S
C372 C375 1.511 . S
C373 C369 1.376 . S
C373 C372 1.392 . S
C373 H385 0.929 . S
C374 C370 1.531 . S
C374 H386 0.960 . S
C374 H387 0.962 . S
C374 H388 0.960 . S
C375 C372 1.511 . S
C375 H389 0.961 . S
C375 H390 0.961 . S
C375 H391 0.961 . S
C376 C377 1.370 . S
C376 C378 1.363 . S
C376 H392 0.931 . S
C377 C376 1.370 . S
C377 C381 1.408 . S
C378 C376 1.363 . S
C378 C379 1.370 . S
C378 C382 1.524 . S
C379 C371 1.503 . S
C379 C378 1.370 . S
C379 C380 1.403 . S
C380 C379 1.403 . S
C380 C381 1.404 . S
C380 C383 1.539 . S
C381 C377 1.408 . S
C381 C380 1.404 . S
C381 H393 0.930 . S
C382 C378 1.524 . S
C382 H394 0.956 . S
C382 H395 0.961 . S
C382 H396 0.961 . S
C383 C380 1.539 . S
C383 H397 0.958 . S
C383 H398 0.961 . S
C383 H399 0.960 . S
H384 C368 0.931 . S
H385 C373 0.929 . S
H386 C374 0.960 . S
H387 C374 0.962 . S
H388 C374 0.960 . S
H389 C375 0.961 . S
H390 C375 0.961 . S
H391 C375 0.961 . S
H392 C376 0.931 . S
H393 C381 0.930 . S
H394 C382 0.956 . S
H395 C382 0.961 . S
H396 C382 0.961 . S
H397 C383 0.958 . S
H398 C383 0.961 . S
H399 C383 0.960 . S
C400 C401 1.391 . S
C400 C402 1.394 . S
C400 H416 0.931 . S
C401 C400 1.391 . S
C401 C405 1.376 . S
C402 C400 1.394 . S
C402 C403 1.369 . S
C402 C406 1.531 . S
C403 C402 1.369 . S
C403 C404 1.410 . S
C403 C411 1.503 . S
C404 C403 1.410 . S
C404 C405 1.392 . S
C404 C407 1.511 . S
C405 C401 1.376 . S
C405 C404 1.392 . S
C405 H417 0.929 . S
C406 C402 1.531 . S
C406 H418 0.960 . S
C406 H419 0.962 . S
C406 H420 0.960 . S
C407 C404 1.511 . S
C407 H421 0.961 . S
C407 H422 0.961 . S
C407 H423 0.961 . S
C408 C409 1.370 . S
C408 C410 1.363 . S
C408 H424 0.931 . S
C409 C408 1.370 . S
C409 C413 1.408 . S
C410 C408 1.363 . S
C410 C411 1.370 . S
C410 C414 1.524 . S
C411 C403 1.503 . S
C411 C410 1.370 . S
C411 C412 1.403 . S
C412 C411 1.403 . S
C412 C413 1.404 . S
C412 C415 1.539 . S
C413 C409 1.408 . S
C413 C412 1.404 . S
C413 H425 0.930 . S
C414 C410 1.524 . S
C414 H426 0.956 . S
C414 H427 0.961 . S
C414 H428 0.961 . S
C415 C412 1.539 . S
C415 H429 0.958 . S
C415 H430 0.961 . S
C415 H431 0.960 . S
H416 C400 0.931 . S
H417 C405 0.929 . S
H418 C406 0.960 . S
H419 C406 0.962 . S
H420 C406 0.960 . S
H421 C407 0.961 . S
H422 C407 0.961 . S
H423 C407 0.961 . S
H424 C408 0.931 . S
H425 C413 0.930 . S
H426 C414 0.956 . S
H427 C414 0.961 . S
H428 C414 0.961 . S
H429 C415 0.958 . S
H430 C415 0.961 . S
H431 C415 0.960 . S
C432 C433 1.391 . S
C432 C434 1.394 . S
C432 H448 0.931 . S
C433 C432 1.391 . S
C433 C437 1.376 . S
C434 C432 1.394 . S
C434 C435 1.369 . S
C434 C438 1.531 . S
C435 C434 1.369 . S
C435 C436 1.410 . S
C435 C443 1.503 . S
C436 C435 1.410 . S
C436 C437 1.392 . S
C436 C439 1.511 . S
C437 C433 1.376 . S
C437 C436 1.392 . S
C437 H449 0.929 . S
C438 C434 1.531 . S
C438 H450 0.960 . S
C438 H451 0.962 . S
C438 H452 0.960 . S
C439 C436 1.511 . S
C439 H453 0.961 . S
C439 H454 0.961 . S
C439 H455 0.961 . S
C440 C441 1.370 . S
C440 C442 1.363 . S
C440 H456 0.931 . S
C441 C440 1.370 . S
C441 C445 1.408 . S
C442 C440 1.363 . S
C442 C443 1.370 . S
C442 C446 1.531 . S
C443 C435 1.503 . S
C443 C442 1.370 . S
C443 C444 1.403 . S
C444 C443 1.403 . S
C444 C445 1.404 . S
C444 C447 1.539 . S
C445 C441 1.408 . S
C445 C444 1.404 . S
C445 H457 0.930 . S
C446 C442 1.531 . S
C446 H458 0.953 1_554 S
C446 H459 0.963 . S
C446 H460 0.955 1_554 S
C447 C444 1.539 . S
C447 H461 0.958 . S
C447 H462 0.961 . S
C447 H463 0.960 . S
H448 C432 0.931 . S
H449 C437 0.929 . S
H450 C438 0.960 . S
H451 C438 0.962 . S
H452 C438 0.960 . S
H453 C439 0.961 . S
H454 C439 0.961 . S
H455 C439 0.961 . S
H456 C440 0.931 . S
H457 C445 0.930 . S
H458 C446 0.953 1_556 S
H459 C446 0.963 . S
H460 C446 0.955 1_556 S
H461 C447 0.958 . S
H462 C447 0.961 . S
H463 C447 0.960 . S
C464 C465 1.391 . S
C464 C466 1.394 1_455 S
C464 H480 0.931 . S
C465 C464 1.391 . S
C465 C469 1.376 . S
C466 C464 1.394 1_655 S
C466 C467 1.369 1_655 S
C466 C470 1.531 . S
C467 C466 1.369 1_455 S
C467 C468 1.410 . S
C467 C475 1.503 1_455 S
C468 C467 1.410 . S
C468 C469 1.392 . S
C468 C471 1.511 . S
C469 C465 1.376 . S
C469 C468 1.392 . S
C469 H481 0.929 . S
C470 C466 1.531 . S
C470 H482 0.960 . S
C470 H483 0.962 . S
C470 H484 0.960 . S
C471 C468 1.511 . S
C471 H485 0.961 . S
C471 H486 0.961 . S
C471 H487 0.961 . S
C472 C473 1.370 . S
C472 C474 1.363 . S
C472 H488 0.931 . S
C473 C472 1.370 . S
C473 C477 1.408 . S
C474 C472 1.363 . S
C474 C475 1.370 . S
C474 C478 1.524 . S
C475 C467 1.503 1_655 S
C475 C474 1.370 . S
C475 C476 1.403 . S
C476 C475 1.403 . S
C476 C477 1.404 . S
C476 C479 1.539 1_655 S
C477 C473 1.408 . S
C477 C476 1.404 . S
C477 H489 0.930 . S
C478 C474 1.524 . S
C478 H490 0.956 . S
C478 H491 0.961 . S
C478 H492 0.961 . S
C479 C476 1.539 1_455 S
C479 H493 0.958 . S
C479 H494 0.961 . S
C479 H495 0.960 . S
H480 C464 0.931 . S
H481 C469 0.929 . S
H482 C470 0.960 . S
H483 C470 0.962 . S
H484 C470 0.960 . S
H485 C471 0.961 . S
H486 C471 0.961 . S
H487 C471 0.961 . S
H488 C472 0.931 . S
H489 C477 0.930 . S
H490 C478 0.956 . S
H491 C478 0.961 . S
H492 C478 0.961 . S
H493 C479 0.958 . S
H494 C479 0.961 . S
H495 C479 0.960 . S
C496 C497 1.391 . S
C496 C498 1.394 . S
C496 H512 0.931 . S
C497 C496 1.391 . S
C497 C501 1.376 . S
C498 C496 1.394 . S
C498 C499 1.369 . S
C498 C502 1.531 . S
C499 C498 1.369 . S
C499 C500 1.410 1_545 S
C499 C507 1.503 1_545 S
C500 C499 1.410 1_565 S
C500 C501 1.392 1_565 S
C500 C503 1.511 . S
C501 C497 1.376 . S
C501 C500 1.392 1_545 S
C501 H513 0.929 1_545 S
C502 C498 1.531 . S
C502 H514 0.960 . S
C502 H515 0.962 . S
C502 H516 0.960 . S
C503 C500 1.511 . S
C503 H517 0.961 . S
C503 H518 0.961 . S
C503 H519 0.961 . S
C504 C505 1.370 . S
C504 C506 1.363 . S
C504 H520 0.931 . S
C505 C504 1.370 . S
C505 C509 1.408 . S
C506 C504 1.363 . S
C506 C507 1.370 . S
C506 C510 1.524 . S
C507 C499 1.503 1_565 S
C507 C506 1.370 . S
C507 C508 1.403 . S
C508 C507 1.403 . S
C508 C509 1.404 . S
C508 C511 1.539 . S
C509 C505 1.408 . S
C509 C508 1.404 . S
C509 H521 0.930 . S
C510 C506 1.524 . S
C510 H522 0.956 1_565 S
C510 H523 0.961 . S
C510 H524 0.961 . S
C511 C508 1.539 . S
C511 H525 0.958 1_565 S
C511 H526 0.961 . S
C511 H527 0.960 . S
H512 C496 0.931 . S
H513 C501 0.929 1_565 S
H514 C502 0.960 . S
H515 C502 0.962 . S
H516 C502 0.960 . S
H517 C503 0.961 . S
H518 C503 0.961 . S
H519 C503 0.961 . S
H520 C504 0.931 . S
H521 C509 0.930 . S
H522 C510 0.956 1_545 S
H523 C510 0.961 . S
H524 C510 0.961 . S
H525 C511 0.958 1_545 S
H526 C511 0.961 . S
H527 C511 0.960 . S
C528 C529 1.391 . S
C528 C530 1.394 . S
C528 H544 0.931 . S
C529 C528 1.391 . S
C529 C533 1.376 . S
C530 C528 1.394 . S
C530 C531 1.369 . S
C530 C534 1.531 . S
C531 C530 1.369 . S
C531 C532 1.410 . S
C531 C539 1.503 . S
C532 C531 1.410 . S
C532 C533 1.392 . S
C532 C535 1.511 . S
C533 C529 1.376 . S
C533 C532 1.392 . S
C533 H545 0.929 . S
C534 C530 1.531 . S
C534 H546 0.960 . S
C534 H547 0.962 . S
C534 H548 0.960 . S
C535 C532 1.511 . S
C535 H549 0.961 . S
C535 H550 0.961 . S
C535 H551 0.961 . S
C536 C537 1.370 . S
C536 C538 1.363 . S
C536 H552 0.931 . S
C537 C536 1.370 . S
C537 C541 1.408 . S
C538 C536 1.363 . S
C538 C539 1.370 . S
C538 C542 1.524 . S
C539 C531 1.503 . S
C539 C538 1.370 . S
C539 C540 1.403 . S
C540 C539 1.403 . S
C540 C541 1.404 . S
C540 C543 1.539 . S
C541 C537 1.408 . S
C541 C540 1.404 . S
C541 H553 0.930 . S
C542 C538 1.524 . S
C542 H554 0.956 . S
C542 H555 0.961 . S
C542 H556 0.961 . S
C543 C540 1.539 . S
C543 H557 0.958 . S
C543 H558 0.961 . S
C543 H559 0.960 . S
H544 C528 0.931 . S
H545 C533 0.929 . S
H546 C534 0.960 . S
H547 C534 0.962 . S
H548 C534 0.960 . S
H549 C535 0.961 . S
H550 C535 0.961 . S
H551 C535 0.961 . S
H552 C536 0.931 . S
H553 C541 0.930 . S
H554 C542 0.956 . S
H555 C542 0.961 . S
H556 C542 0.961 . S
H557 C543 0.958 . S
H558 C543 0.961 . S
H559 C543 0.960 . S
C560 C561 1.391 . S
C560 C562 1.394 . S
C560 H576 0.931 . S
C561 C560 1.391 . S
C561 C565 1.376 . S
C562 C560 1.394 . S
C562 C563 1.369 . S
C562 C566 1.531 . S
C563 C562 1.369 . S
C563 C564 1.410 1_455 S
C563 C571 1.503 1_455 S
C564 C563 1.410 1_655 S
C564 C565 1.392 1_655 S
C564 C567 1.511 . S
C565 C561 1.376 . S
C565 C564 1.392 1_455 S
C565 H577 0.929 1_455 S
C566 C562 1.531 . S
C566 H578 0.960 . S
C566 H579 0.962 . S
C566 H580 0.960 . S
C567 C564 1.511 . S
C567 H581 0.961 . S
C567 H582 0.961 . S
C567 H583 0.961 1_554 S
C568 C569 1.370 . S
C568 C570 1.363 . S
C568 H584 0.931 . S
C569 C568 1.370 . S
C569 C573 1.392 1_554 S
C570 C568 1.363 . S
C570 C571 1.370 . S
C570 C574 1.524 . S
C571 C563 1.503 1_655 S
C571 C570 1.370 . S
C571 C572 1.403 1_554 S
C572 C571 1.403 1_556 S
C572 C573 1.405 . S
C572 C575 1.539 . S
C573 C569 1.392 1_556 S
C573 C572 1.405 . S
C573 H585 0.945 . S
C574 C570 1.524 . S
C574 H586 0.956 1_655 S
C574 H587 0.961 . S
C574 H588 0.961 . S
C575 C572 1.539 . S
C575 H589 0.958 1_655 S
C575 H590 0.961 . S
C575 H591 0.960 . S
H576 C560 0.931 . S
H577 C565 0.929 1_655 S
H578 C566 0.960 . S
H579 C566 0.962 . S
H580 C566 0.960 . S
H581 C567 0.961 . S
H582 C567 0.961 . S
H583 C567 0.961 1_556 S
H584 C568 0.931 . S
H585 C573 0.945 . S
H586 C574 0.956 1_455 S
H587 C574 0.961 . S
H588 C574 0.961 . S
H589 C575 0.958 1_455 S
H590 C575 0.961 . S
H591 C575 0.960 . S
C592 C593 1.391 . S
C592 C594 1.394 . S
C592 H608 0.931 . S
C593 C592 1.391 . S
C593 C597 1.376 . S
C594 C592 1.394 . S
C594 C595 1.369 . S
C594 C598 1.531 . S
C595 C594 1.369 . S
C595 C596 1.410 1_565 S
C595 C603 1.503 1_565 S
C596 C595 1.410 1_545 S
C596 C597 1.392 1_545 S
C596 C599 1.511 . S
C597 C593 1.376 . S
C597 C596 1.392 1_565 S
C597 H609 0.929 . S
C598 C594 1.531 . S
C598 H610 0.960 . S
C598 H611 0.962 . S
C598 H612 0.960 . S
C599 C596 1.511 . S
C599 H613 0.961 . S
C599 H614 0.961 . S
C599 H615 0.961 . S
C600 C601 1.370 . S
C600 C602 1.363 . S
C600 H616 0.931 . S
C601 C600 1.370 . S
C601 C605 1.408 . S
C602 C600 1.363 . S
C602 C603 1.370 . S
C602 C606 1.524 1_545 S
C603 C595 1.503 1_545 S
C603 C602 1.370 . S
C603 C604 1.403 . S
C604 C603 1.403 . S
C604 C605 1.404 . S
C604 C607 1.539 . S
C605 C601 1.408 . S
C605 C604 1.404 . S
C605 H617 0.930 . S
C606 C602 1.524 1_565 S
C606 H618 0.956 . S
C606 H619 0.961 . S
C606 H620 0.961 . S
C607 C604 1.539 . S
C607 H621 0.958 . S
C607 H622 0.961 . S
C607 H623 0.960 . S
H608 C592 0.931 . S
H609 C597 0.929 . S
H610 C598 0.960 . S
H611 C598 0.962 . S
H612 C598 0.960 . S
H613 C599 0.961 . S
H614 C599 0.961 . S
H615 C599 0.961 . S
H616 C600 0.931 . S
H617 C605 0.930 . S
H618 C606 0.956 . S
H619 C606 0.961 . S
H620 C606 0.961 . S
H621 C607 0.958 . S
H622 C607 0.961 . S
H623 C607 0.960 . S
C624 C625 1.391 . S
C624 C626 1.394 . S
C624 H640 0.931 . S
C625 C624 1.391 . S
C625 C629 1.376 . S
C626 C624 1.394 . S
C626 C627 1.369 . S
C626 C630 1.531 . S
C627 C626 1.369 . S
C627 C628 1.410 . S
C627 C635 1.503 . S
C628 C627 1.410 . S
C628 C629 1.392 . S
C628 C631 1.511 . S
C629 C625 1.376 . S
C629 C628 1.392 . S
C629 H641 0.929 . S
C630 C626 1.531 . S
C630 H642 0.960 . S
C630 H643 0.962 . S
C630 H644 0.960 . S
C631 C628 1.511 . S
C631 H645 0.961 . S
C631 H646 0.961 . S
C631 H647 0.961 . S
C632 C633 1.370 . S
C632 C634 1.363 . S
C632 H648 0.931 . S
C633 C632 1.370 . S
C633 C637 1.408 . S
C634 C632 1.363 . S
C634 C635 1.370 . S
C634 C638 1.524 . S
C635 C627 1.503 . S
C635 C634 1.370 . S
C635 C636 1.403 . S
C636 C635 1.403 . S
C636 C637 1.404 . S
C636 C639 1.539 . S
C637 C633 1.408 . S
C637 C636 1.404 . S
C637 H649 0.930 . S
C638 C634 1.524 . S
C638 H650 0.956 . S
C638 H651 0.961 . S
C638 H652 0.961 . S
C639 C636 1.539 . S
C639 H653 0.958 . S
C639 H654 0.961 . S
C639 H655 0.960 . S
H640 C624 0.931 . S
H641 C629 0.929 . S
H642 C630 0.960 . S
H643 C630 0.962 . S
H644 C630 0.960 . S
H645 C631 0.961 . S
H646 C631 0.961 . S
H647 C631 0.961 . S
H648 C632 0.931 . S
H649 C637 0.930 . S
H650 C638 0.956 . S
H651 C638 0.961 . S
H652 C638 0.961 . S
H653 C639 0.958 . S
H654 C639 0.961 . S
H655 C639 0.960 . S
C656 C657 1.391 . S
C656 C658 1.394 1_655 S
C656 H672 0.931 . S
C657 C656 1.391 . S
C657 C661 1.376 1_655 S
C658 C656 1.394 1_455 S
C658 C659 1.369 . S
C658 C662 1.531 . S
C659 C658 1.369 . S
C659 C660 1.410 . S
C659 C667 1.503 . S
C660 C659 1.410 . S
C660 C661 1.392 . S
C660 C663 1.511 . S
C661 C657 1.376 1_455 S
C661 C660 1.392 . S
C661 H673 0.929 . S
C662 C658 1.531 . S
C662 H674 0.960 . S
C662 H675 0.965 . S
C662 H676 0.960 . S
C663 C660 1.511 . S
C663 H677 0.961 . S
C663 H678 0.961 . S
C663 H679 0.961 . S
C664 C665 1.370 . S
C664 C666 1.363 . S
C664 H680 0.931 . S
C665 C664 1.370 . S
C665 C669 1.408 . S
C666 C664 1.363 . S
C666 C667 1.370 . S
C666 C670 1.524 1_455 S
C667 C659 1.503 . S
C667 C666 1.370 . S
C667 C668 1.403 . S
C668 C667 1.403 . S
C668 C669 1.404 . S
C668 C671 1.539 . S
C669 C665 1.408 . S
C669 C668 1.404 . S
C669 H681 0.930 . S
C670 C666 1.524 1_655 S
C670 H682 0.956 . S
C670 H683 0.961 . S
C670 H684 0.961 . S
C671 C668 1.539 . S
C671 H685 0.958 . S
C671 H686 0.961 . S
C671 H687 0.960 . S
H672 C656 0.931 . S
H673 C661 0.929 . S
H674 C662 0.960 . S
H675 C662 0.965 . S
H676 C662 0.960 . S
H677 C663 0.961 . S
H678 C663 0.961 . S
H679 C663 0.961 . S
H680 C664 0.931 . S
H681 C669 0.930 . S
H682 C670 0.956 . S
H683 C670 0.961 . S
H684 C670 0.961 . S
H685 C671 0.958 . S
H686 C671 0.961 . S
H687 C671 0.960 . S
C688 C689 1.391 1_545 S
C688 C690 1.394 . S
C688 H704 0.931 . S
C689 C688 1.391 1_565 S
C689 C693 1.376 . S
C690 C688 1.394 . S
C690 C691 1.369 . S
C690 C694 1.531 . S
C691 C690 1.369 . S
C691 C692 1.410 . S
C691 C699 1.503 . S
C692 C691 1.410 . S
C692 C693 1.392 1_545 S
C692 C695 1.511 . S
C693 C689 1.376 . S
C693 C692 1.392 1_565 S
C693 H705 0.929 . S
C694 C690 1.531 . S
C694 H706 0.960 . S
C694 H707 0.962 . S
C694 H708 0.960 . S
C695 C692 1.511 . S
C695 H709 0.961 1_545 S
C695 H710 0.961 . S
C695 H711 0.961 . S
C696 C697 1.370 . S
C696 C698 1.363 . S
C696 H712 0.931 . S
C697 C696 1.370 . S
C697 C701 1.408 . S
C698 C696 1.363 . S
C698 C699 1.370 . S
C698 C702 1.524 1_545 S
C699 C691 1.503 . S
C699 C698 1.370 . S
C699 C700 1.403 . S
C700 C699 1.403 . S
C700 C701 1.404 . S
C700 C703 1.539 . S
C701 C697 1.408 . S
C701 C700 1.404 . S
C701 H713 0.930 . S
C702 C698 1.524 1_565 S
C702 H714 0.956 . S
C702 H715 0.961 . S
C702 H716 0.961 . S
C703 C700 1.539 . S
C703 H717 0.958 . S
C703 H718 0.961 . S
C703 H719 0.960 . S
H704 C688 0.931 . S
H705 C693 0.929 . S
H706 C694 0.960 . S
H707 C694 0.962 . S
H708 C694 0.960 . S
H709 C695 0.961 1_565 S
H710 C695 0.961 . S
H711 C695 0.961 . S
H712 C696 0.931 . S
H713 C701 0.930 . S
H714 C702 0.956 . S
H715 C702 0.961 . S
H716 C702 0.961 . S
H717 C703 0.958 . S
H718 C703 0.961 . S
H719 C703 0.960 . S
C720 C721 1.391 . S
C720 C722 1.394 . S
C720 H736 0.931 . S
C721 C720 1.391 . S
C721 C725 1.376 . S
C722 C720 1.394 . S
C722 C723 1.369 . S
C722 C726 1.531 . S
C723 C722 1.369 . S
C723 C724 1.410 . S
C723 C731 1.503 . S
C724 C723 1.410 . S
C724 C725 1.392 . S
C724 C727 1.511 . S
C725 C721 1.376 . S
C725 C724 1.392 . S
C725 H737 0.929 . S
C726 C722 1.531 . S
C726 H738 0.960 . S
C726 H739 0.962 . S
C726 H740 0.960 . S
C727 C724 1.511 . S
C727 H741 0.961 . S
C727 H742 0.961 . S
C727 H743 0.961 . S
C728 C729 1.370 . S
C728 C730 1.363 . S
C728 H744 0.931 . S
C729 C728 1.370 . S
C729 C733 1.408 . S
C730 C728 1.363 . S
C730 C731 1.370 . S
C730 C734 1.524 . S
C731 C723 1.503 . S
C731 C730 1.370 . S
C731 C732 1.403 . S
C732 C731 1.403 . S
C732 C733 1.404 . S
C732 C735 1.539 . S
C733 C729 1.408 . S
C733 C732 1.404 . S
C733 H745 0.930 . S
C734 C730 1.524 . S
C734 H746 0.956 . S
C734 H747 0.961 . S
C734 H748 0.961 . S
C735 C732 1.539 . S
C735 H749 0.958 . S
C735 H750 0.961 . S
C735 H751 0.960 . S
H736 C720 0.931 . S
H737 C725 0.929 . S
H738 C726 0.960 . S
H739 C726 0.962 . S
H740 C726 0.960 . S
H741 C727 0.961 . S
H742 C727 0.961 . S
H743 C727 0.961 . S
H744 C728 0.931 . S
H745 C733 0.930 . S
H746 C734 0.956 . S
H747 C734 0.961 . S
H748 C734 0.961 . S
H749 C735 0.958 . S
H750 C735 0.961 . S
H751 C735 0.960 . S
C752 C753 1.391 1_655 S
C752 C754 1.394 . S
C752 H768 0.931 . S
C753 C752 1.391 1_455 S
C753 C757 1.376 . S
C754 C752 1.394 . S
C754 C755 1.369 . S
C754 C758 1.531 . S
C755 C754 1.369 . S
C755 C756 1.410 . S
C755 C763 1.503 . S
C756 C755 1.410 . S
C756 C757 1.392 1_655 S
C756 C759 1.511 . S
C757 C753 1.376 . S
C757 C756 1.392 1_455 S
C757 H769 0.929 . S
C758 C754 1.531 . S
C758 H770 0.960 . S
C758 H771 0.962 . S
C758 H772 0.960 . S
C759 C756 1.511 . S
C759 H773 0.961 1_655 S
C759 H774 0.961 . S
C759 H775 0.961 . S
C760 C761 1.370 . S
C760 C762 1.363 . S
C760 H776 0.931 . S
C761 C760 1.370 . S
C761 C765 1.408 . S
C762 C760 1.363 . S
C762 C763 1.370 . S
C762 C766 1.524 1_655 S
C763 C755 1.503 . S
C763 C762 1.370 . S
C763 C764 1.403 . S
C764 C763 1.403 . S
C764 C765 1.404 . S
C764 C767 1.539 . S
C765 C761 1.408 . S
C765 C764 1.404 . S
C765 H777 0.930 . S
C766 C762 1.524 1_455 S
C766 H778 0.956 . S
C766 H779 0.961 . S
C766 H780 0.961 . S
C767 C764 1.539 . S
C767 H781 0.958 . S
C767 H782 0.961 . S
C767 H783 0.960 . S
H768 C752 0.931 . S
H769 C757 0.929 . S
H770 C758 0.960 . S
H771 C758 0.962 . S
H772 C758 0.960 . S
H773 C759 0.961 1_455 S
H774 C759 0.961 . S
H775 C759 0.961 . S
H776 C760 0.931 . S
H777 C765 0.930 . S
H778 C766 0.956 . S
H779 C766 0.961 . S
H780 C766 0.961 . S
H781 C767 0.958 . S
H782 C767 0.961 . S
H783 C767 0.960 . S
C784 C785 1.391 1_565 S
C784 C786 1.394 . S
C784 H800 0.931 . S
C785 C784 1.391 1_545 S
C785 C789 1.376 . S
C786 C784 1.394 . S
C786 C787 1.369 . S
C786 C790 1.531 . S
C787 C786 1.369 . S
C787 C788 1.410 1_565 S
C787 C795 1.503 . S
C788 C787 1.410 1_545 S
C788 C789 1.392 . S
C788 C791 1.511 . S
C789 C785 1.376 . S
C789 C788 1.392 . S
C789 H801 0.929 . S
C790 C786 1.531 . S
C790 H802 0.960 . S
C790 H803 0.962 . S
C790 H804 0.960 . S
C791 C788 1.511 . S
C791 H805 0.961 . S
C791 H806 0.961 . S
C791 H807 0.961 . S
C792 C793 1.370 . S
C792 C794 1.363 . S
C792 H808 0.931 . S
C793 C792 1.370 . S
C793 C797 1.408 . S
C794 C792 1.363 . S
C794 C795 1.370 . S
C794 C798 1.524 . S
C795 C787 1.503 . S
C795 C794 1.370 . S
C795 C796 1.403 . S
C796 C795 1.403 . S
C796 C797 1.404 . S
C796 C799 1.539 . S
C797 C793 1.408 . S
C797 C796 1.404 . S
C797 H809 0.930 . S
C798 C794 1.524 . S
C798 H810 0.956 . S
C798 H811 0.961 . S
C798 H812 0.961 . S
C799 C796 1.539 . S
C799 H813 0.958 . S
C799 H814 0.961 . S
C799 H815 0.960 . S
H800 C784 0.931 . S
H801 C789 0.929 . S
H802 C790 0.960 . S
H803 C790 0.962 . S
H804 C790 0.960 . S
H805 C791 0.961 . S
H806 C791 0.961 . S
H807 C791 0.961 . S
H808 C792 0.931 . S
H809 C797 0.930 . S
H810 C798 0.956 . S
H811 C798 0.961 . S
H812 C798 0.961 . S
H813 C799 0.958 . S
H814 C799 0.961 . S
H815 C799 0.960 . S
C241 C171 1.173 . S
C249 C7 1.189 . S
C273 C211 1.186 . S
C281 C47 1.188 . S
C305 C11 1.193 . S
C313 C87 1.187 . S
C337 C51 1.193 . S
C345 C127 1.187 . S
C369 C91 1.187 . S
C377 C167 1.188 . S
C401 C131 1.172 . S
C409 C207 1.189 . S
C433 C10 0.940 . S
C441 C130 0.974 . S
C465 C170 0.944 . S
C473 C50 0.998 . S
C497 C210 0.953 . S
C505 C90 0.967 . S
C529 C99 1.076 . S
C537 C219 1.089 . S
C561 C19 1.079 . S
C569 C139 1.088 . S
C593 C179 1.088 . S
C601 C59 1.086 . S
C625 C202 1.308 . S
C633 C16 1.274 . S
C657 C56 1.267 . S
C665 C2 1.307 . S
C689 C96 1.284 . S
C697 C42 1.306 . S
C721 C82 1.302 . S
C729 C136 1.289 . S
C753 C176 1.288 . S
C761 C122 1.307 . S
C785 C216 1.304 . S
C793 C162 1.308 . S
