# Generated by pormake.
# Topology ftb, (5)-cn, num edge types: 1
# Building blocks:
#     Node 0, Type 0, BuildingBlock: BEQFEK_clean_sbu_0, # of connection points: 5
#     Node 1, Type 0, BuildingBlock: BEQFEK_clean_sbu_0, # of connection points: 5
#     Node 2, Type 0, BuildingBlock: BEQFEK_clean_sbu_0, # of connection points: 5
#     Node 3, Type 0, BuildingBlock: BEQFEK_clean_sbu_0, # of connection points: 5
#     Node 4, Type 0, BuildingBlock: BEQFEK_clean_sbu_0, # of connection points: 5
#     Node 5, Type 0, BuildingBlock: BEQFEK_clean_sbu_0, # of connection points: 5
#     Node 6, Type 0, BuildingBlock: BEQFEK_clean_sbu_0, # of connection points: 5
#     Node 7, Type 0, BuildingBlock: BEQFEK_clean_sbu_0, # of connection points: 5
#     Edge 8, Type (0, 0), BuildingBlock: EYOCIG_clean_linker_4, # of connection points: 2
#     Edge 9, Type (0, 0), BuildingBlock: EYOCIG_clean_linker_4, # of connection points: 2
#     Edge 10, Type (0, 0), BuildingBlock: EYOCIG_clean_linker_4, # of connection points: 2
#     Edge 11, Type (0, 0), BuildingBlock: EYOCIG_clean_linker_4, # of connection points: 2
#     Edge 12, Type (0, 0), BuildingBlock: EYOCIG_clean_linker_4, # of connection points: 2
#     Edge 13, Type (0, 0), BuildingBlock: EYOCIG_clean_linker_4, # of connection points: 2
#     Edge 14, Type (0, 0), BuildingBlock: EYOCIG_clean_linker_4, # of connection points: 2
#     Edge 15, Type (0, 0), BuildingBlock: EYOCIG_clean_linker_4, # of connection points: 2
#     Edge 16, Type (0, 0), BuildingBlock: EYOCIG_clean_linker_4, # of connection points: 2
#     Edge 17, Type (0, 0), BuildingBlock: EYOCIG_clean_linker_4, # of connection points: 2
#     Edge 18, Type (0, 0), BuildingBlock: EYOCIG_clean_linker_4, # of connection points: 2
#     Edge 19, Type (0, 0), BuildingBlock: EYOCIG_clean_linker_4, # of connection points: 2
#     Edge 20, Type (0, 0), BuildingBlock: EYOCIG_clean_linker_4, # of connection points: 2
#     Edge 21, Type (0, 0), BuildingBlock: EYOCIG_clean_linker_4, # of connection points: 2
#     Edge 22, Type (0, 0), BuildingBlock: EYOCIG_clean_linker_4, # of connection points: 2
#     Edge 23, Type (0, 0), BuildingBlock: EYOCIG_clean_linker_4, # of connection points: 2
#     Edge 24, Type (0, 0), BuildingBlock: EYOCIG_clean_linker_4, # of connection points: 2
#     Edge 25, Type (0, 0), BuildingBlock: EYOCIG_clean_linker_4, # of connection points: 2
#     Edge 26, Type (0, 0), BuildingBlock: EYOCIG_clean_linker_4, # of connection points: 2
#     Edge 27, Type (0, 0), BuildingBlock: EYOCIG_clean_linker_4, # of connection points: 2
# Relax obj value: 0.116
# Max RMSD: 0.197
# Mean RMSD: 0.197
data_MOF--net-ftb--node1-BEQFEK_clean_sbu_0--edge1-EYOCIG_clean_linker_4
_symmetry_space_group_name_H-M    P1
_symmetry_Int_Tables_number       1
_symmetry_cell_setting            triclinic
loop_
_symmetry_equiv_pos_as_xyz
'x, y, z'
_cell_length_a     46.418255
_cell_length_b     13.330749
_cell_length_c     29.828469
_cell_angle_alpha  90.000524
_cell_angle_beta   92.323756
_cell_angle_gamma 90.072734
loop_
_atom_site_label
_atom_site_type_symbol
_atom_site_fract_x
_atom_site_fract_y
_atom_site_fract_z
_atom_type_partial_charge
Co0 Co 0.33044 0.04284 0.10463 0.0
Co1 Co 0.32899 -0.04054 1.00512 0.0
C2 C 0.29805 0.85785 0.0787 0.0
O3 O 0.30781 0.91892 0.10831 0.0
O4 O 0.30525 0.86157 0.03792 0.0
C5 C 0.33942 0.04365 0.20064 0.0
O6 O 0.33941 0.94557 0.19699 0.0
C7 C 0.33492 0.82589 0.92634 0.0
C8 C 0.34135 0.93756 0.87286 0.0
C9 C 0.33922 0.83596 0.88096 0.0
N10 N 0.3345 0.91814 0.94463 0.0
N11 N 0.33838 -0.01561 0.9124 0.0
C12 C 0.331 0.73043 0.95166 0.0
H13 H 0.33714 0.741 0.98767 0.0
H14 H 0.34405 0.66949 0.93729 0.0
H15 H 0.30797 0.70793 0.94862 0.0
C16 C 0.39303 0.03776 0.09071 0.0
N17 N 0.3655 0.02381 0.07603 0.0
N18 N 0.36512 -0.01274 0.03501 0.0
C19 C 0.39255 -0.02395 0.02249 0.0
C20 C 0.41095 0.00775 0.05735 0.0
C21 C 0.40192 0.07707 0.13617 0.0
H22 H 0.38993 0.14705 0.14284 0.0
H23 H 0.3963 0.02101 0.16187 0.0
H24 H 0.42545 0.09215 0.13907 0.0
O25 O 0.30357 0.13271 0.07161 0.0
O26 O 0.30329 0.07758 1.00115 0.0
H27 H 0.39375 -0.01451 0.95113 0.0
H28 H 0.42467 0.92366 0.97731 0.0
C29 C 0.40098 0.93384 0.97845 0.0
H30 H 0.39014 0.86054 0.97271 0.0
H31 H 0.33898 0.06184 0.91744 0.0
O32 O 0.33665 0.0983 0.16589 0.0
C33 C 0.29397 0.13551 0.03112 0.0
Co34 Co 0.63576 0.04177 0.02083 0.0
Co35 Co 0.63731 -0.04298 0.12011 0.0
C36 C 0.66755 0.85564 0.04547 0.0
O37 O 0.65757 0.91652 0.01599 0.0
O38 O 0.66084 0.86003 0.08647 0.0
C39 C 0.62597 0.04501 0.92513 0.0
O40 O 0.6252 0.94693 0.92855 0.0
C41 C 0.63125 0.82317 0.19925 0.0
C42 C 0.62505 0.93586 0.25235 0.0
C43 C 0.62695 0.83413 0.24457 0.0
N44 N 0.63186 0.91511 0.18061 0.0
N45 N 0.62812 -0.01809 0.21266 0.0
C46 C 0.63461 0.72668 0.17452 0.0
H47 H 0.63454 0.73936 0.13781 0.0
H48 H 0.61683 0.67479 0.18257 0.0
H49 H 0.65516 0.69053 0.18592 0.0
C50 C 0.57321 0.03897 0.03543 0.0
N51 N 0.60076 0.02402 0.04979 0.0
N52 N 0.60117 -0.01345 0.09065 0.0
C53 C 0.57376 -0.02434 0.10335 0.0
C54 C 0.55533 0.00853 0.06878 0.0
C55 C 0.56424 0.07914 0.99016 0.0
H56 H 0.57657 0.14847 0.9834 0.0
H57 H 0.56935 0.02292 0.96426 0.0
H58 H 0.5408 0.09561 0.98768 0.0
O59 O 0.66338 0.12904 0.05402 0.0
O60 O 0.66326 0.07451 0.12453 0.0
H61 H 0.57255 -0.01678 0.17475 0.0
H62 H 0.54168 0.92151 0.14826 0.0
C63 C 0.56536 0.93213 0.14716 0.0
H64 H 0.57625 0.85889 0.15253 0.0
H65 H 0.62765 0.05929 0.20737 0.0
O66 O 0.62951 0.09903 0.95996 0.0
C67 C 0.67293 0.13163 0.09453 0.0
Co68 Co 0.33047 0.54383 0.60437 0.0
Co69 Co 0.32881 0.45936 0.50501 0.0
C70 C 0.29791 0.35895 0.57898 0.0
O71 O 0.30779 0.42013 0.60845 0.0
O72 O 0.30501 0.36228 0.53814 0.0
C73 C 0.33971 0.54561 0.70031 0.0
O74 O 0.33977 0.44751 0.6968 0.0
C75 C 0.33453 0.32478 0.42649 0.0
C76 C 0.34106 0.43582 0.37278 0.0
C77 C 0.33884 0.33433 0.38109 0.0
N78 N 0.33421 0.41723 0.4446 0.0
N79 N 0.33814 0.48309 0.41223 0.0
C80 C 0.33056 0.22961 0.45199 0.0
H81 H 0.33645 0.24069 0.48807 0.0
H82 H 0.3438 0.1687 0.43801 0.0
H83 H 0.30758 0.20667 0.44861 0.0
C84 C 0.39303 0.53751 0.59028 0.0
N85 N 0.36546 0.52401 0.57569 0.0
N86 N 0.36499 0.48692 0.53476 0.0
C87 C 0.39239 0.47486 0.52223 0.0
C88 C 0.41087 0.5066 0.55698 0.0
C89 C 0.40204 0.57713 0.63564 0.0
H90 H 0.39009 0.64726 0.64227 0.0
H91 H 0.39645 0.52131 0.66146 0.0
H92 H 0.42557 0.59206 0.6384 0.0
O93 O 0.3036 0.63344 0.5712 0.0
O94 O 0.30325 0.57781 0.50083 0.0
H95 H 0.39355 0.48299 0.45082 0.0
H96 H 0.42439 0.42096 0.47717 0.0
C97 C 0.40072 0.43168 0.47832 0.0
H98 H 0.38974 0.35851 0.47285 0.0
H99 H 0.33882 0.56059 0.41712 0.0
O100 O 0.33681 0.59997 0.66548 0.0
C101 C 0.29398 0.63601 0.53073 0.0
Co102 Co 0.63564 0.54183 0.52096 0.0
Co103 Co 0.6372 0.45872 0.62045 0.0
C104 C 0.66776 0.35666 0.54646 0.0
O105 O 0.65784 0.41725 0.5168 0.0
O106 O 0.66085 0.36111 0.58736 0.0
C107 C 0.6262 0.54373 0.42513 0.0
O108 O 0.62587 0.44563 0.42864 0.0
C109 C 0.63116 0.32532 0.69932 0.0
C110 C 0.62505 0.43736 0.75273 0.0
C111 C 0.62693 0.3357 0.74469 0.0
N112 N 0.63176 0.41746 0.68095 0.0
N113 N 0.62808 0.48393 0.71315 0.0
C114 C 0.63474 0.22954 0.67413 0.0
H115 H 0.63016 0.2411 0.63771 0.0
H116 H 0.6202 0.17093 0.68701 0.0
H117 H 0.65726 0.20293 0.67946 0.0
C118 C 0.57307 0.53728 0.53522 0.0
N119 N 0.60063 0.52347 0.54979 0.0
N120 N 0.60106 0.48687 0.59079 0.0
C121 C 0.57365 0.47549 0.60342 0.0
C122 C 0.55521 0.50707 0.56863 0.0
C123 C 0.5641 0.57619 0.48974 0.0
H124 H 0.57615 0.64604 0.48283 0.0
H125 H 0.56956 0.51981 0.4641 0.0
H126 H 0.54059 0.5914 0.48698 0.0
O127 O 0.66294 0.63059 0.55392 0.0
O128 O 0.66297 0.57668 0.62454 0.0
H129 H 0.57261 0.48412 0.67483 0.0
H130 H 0.54158 0.42265 0.64866 0.0
C131 C 0.56527 0.4328 0.64742 0.0
H132 H 0.57606 0.35941 0.65292 0.0
H133 H 0.62763 0.56137 0.70804 0.0
O134 O 0.62936 0.59807 0.45992 0.0
C135 C 0.67249 0.6338 0.59442 0.0
Co136 Co 0.83041 0.04249 0.60424 0.0
Co137 Co 0.82885 -0.04244 0.50502 0.0
C138 C 0.79846 0.85595 0.57897 0.0
O139 O 0.80796 0.91828 0.60824 0.0
O140 O 0.80571 0.85882 0.53821 0.0
C141 C 0.83975 0.04342 0.70005 0.0
O142 O 0.83998 0.94535 0.69636 0.0
C143 C 0.83382 0.82526 0.42542 0.0
C144 C 0.8425 0.93775 0.37314 0.0
C145 C 0.83907 0.83628 0.38035 0.0
N146 N 0.8343 0.91688 0.44441 0.0
N147 N 0.8394 -0.01639 0.41286 0.0
C148 C 0.82862 0.72959 0.45001 0.0
H149 H 0.80899 0.7369 0.46971 0.0
H150 H 0.84709 0.71524 0.47392 0.0
H151 H 0.82607 0.6652 0.42657 0.0
C152 C 0.89296 0.03786 0.59008 0.0
N153 N 0.86541 0.02381 0.57548 0.0
N154 N 0.86501 -0.01344 0.53459 0.0
C155 C 0.89243 -0.02516 0.52211 0.0
C156 C 0.91085 0.00706 0.55684 0.0
C157 C 0.9019 0.07748 0.63547 0.0
H158 H 0.88978 0.14718 0.64221 0.0
H159 H 0.89649 0.0213 0.66124 0.0
H160 H 0.9254 0.09315 0.63819 0.0
O161 O 0.80338 0.13193 0.57137 0.0
O162 O 0.80269 0.07459 0.50126 0.0
H163 H 0.89454 -0.01641 0.45086 0.0
H164 H 0.92445 0.91788 0.47785 0.0
C165 C 0.90087 0.93113 0.47836 0.0
H166 H 0.88929 0.85928 0.47234 0.0
H167 H 0.84088 0.06072 0.41855 0.0
O168 O 0.83671 0.0981 0.66536 0.0
C169 C 0.7935 0.1333 0.53103 0.0
Co170 Co 0.13554 0.04306 0.5208 0.0
Co171 Co 0.13725 -0.04119 0.62018 0.0
C172 C 0.16812 0.85841 0.54623 0.0
O173 O 0.15823 0.9195 0.51676 0.0
O174 O 0.16102 0.86172 0.58707 0.0
C175 C 0.12613 0.04442 0.4249 0.0
O176 O 0.12595 0.94634 0.4285 0.0
C177 C 0.13144 0.82468 0.69884 0.0
C178 C 0.1252 0.93605 0.75249 0.0
C179 C 0.12722 0.8345 0.74426 0.0
N180 N 0.1319 0.91703 0.68066 0.0
N181 N 0.12814 -0.01691 0.71299 0.0
C182 C 0.13518 0.72931 0.67341 0.0
H183 H 0.12963 0.74059 0.63725 0.0
H184 H 0.12153 0.6691 0.68714 0.0
H185 H 0.15803 0.70522 0.67728 0.0
C186 C 0.07299 0.03698 0.53509 0.0
N187 N 0.10057 0.02328 0.54957 0.0
N188 N 0.10106 -0.01371 0.59051 0.0
C189 C 0.07367 -0.02547 0.60318 0.0
C190 C 0.05518 0.00631 0.56848 0.0
C191 C 0.06396 0.07667 0.48977 0.0
H192 H 0.07599 0.14669 0.48308 0.0
H193 H 0.06942 0.02079 0.46391 0.0
H194 H 0.04044 0.09182 0.48712 0.0
O195 O 0.16241 0.13304 0.55385 0.0
O196 O 0.16283 0.07736 0.62423 0.0
H197 H 0.07267 -0.01697 0.67458 0.0
H198 H 0.04168 0.92122 0.64845 0.0
C199 C 0.06536 0.93166 0.64717 0.0
H200 H 0.07623 0.8584 0.65264 0.0
H201 H 0.12759 0.06058 0.70804 0.0
O202 O 0.12917 0.09894 0.45966 0.0
C203 C 0.17206 0.13568 0.59431 0.0
Co204 Co 0.83025 0.54289 0.1039 0.0
Co205 Co 0.82883 0.45603 1.00504 0.0
C206 C 0.79871 0.35478 0.07926 0.0
O207 O 0.80797 0.41823 0.10822 0.0
O208 O 0.80603 0.35683 0.03852 0.0
C209 C 0.83965 0.54555 0.19973 0.0
O210 O 0.84003 0.44743 0.19638 0.0
C211 C 0.8338 0.323 0.92578 0.0
C212 C 0.84261 0.43478 0.87326 0.0
C213 C 0.8391 0.33343 0.88071 0.0
N214 N 0.83433 0.41483 0.94455 0.0
N215 N 0.83951 0.48114 0.91287 0.0
C216 C 0.82842 0.22778 0.95061 0.0
H217 H 0.80817 0.23459 0.96884 0.0
H218 H 0.84627 0.2154 0.97587 0.0
H219 H 0.82684 0.1625 0.92752 0.0
C220 C 0.89283 0.53908 0.08975 0.0
N221 N 0.8653 0.52445 0.07519 0.0
N222 N 0.86494 0.48643 0.03444 0.0
C223 C 0.89238 0.47477 0.02202 0.0
C224 C 0.91076 0.50785 0.05663 0.0
C225 C 0.90173 0.57941 0.13503 0.0
H226 H 0.88951 0.64899 0.1416 0.0
H227 H 0.89641 0.52345 0.16094 0.0
H228 H 0.9252 0.59549 0.13768 0.0
O229 O 0.80309 0.63148 0.07078 0.0
O230 O 0.80235 0.57214 1.00101 0.0
H231 H 0.89462 0.482 0.95075 0.0
H232 H 0.92445 0.41665 0.97814 0.0
C233 C 0.90087 0.43007 0.97849 0.0
H234 H 0.88927 0.35819 0.97272 0.0
H235 H 0.84104 0.55831 0.91838 0.0
O236 O 0.83648 0.59957 0.16485 0.0
C237 C 0.79313 0.63155 0.03048 0.0
Co238 Co 0.1355 0.5421 0.02063 0.0
Co239 Co 0.13718 0.45878 0.12018 0.0
C240 C 0.16806 0.35788 0.04619 0.0
O241 O 0.15801 0.4182 0.01652 0.0
O242 O 0.16109 0.36203 0.08708 0.0
C243 C 0.12629 0.5438 0.92471 0.0
O244 O 0.12624 0.4457 0.92823 0.0
C245 C 0.13123 0.32468 0.19895 0.0
C246 C 0.12514 0.43637 0.25251 0.0
C247 C 0.12702 0.33477 0.24435 0.0
N248 N 0.13181 0.41696 0.18067 0.0
N249 N 0.12814 0.4832 0.21297 0.0
C250 C 0.13475 0.22901 0.17366 0.0
H251 H 0.13086 0.24118 0.13714 0.0
H252 H 0.11966 0.17127 0.18577 0.0
H253 H 0.15703 0.20078 0.17992 0.0
C254 C 0.07296 0.53654 0.03494 0.0
N255 N 0.10052 0.52279 0.04945 0.0
N256 N 0.10099 0.48612 0.09045 0.0
C257 C 0.0736 0.47462 0.10312 0.0
C258 C 0.05512 0.50626 0.06838 0.0
C259 C 0.06395 0.57589 0.98954 0.0
H260 H 0.07591 0.64606 0.98285 0.0
H261 H 0.06954 0.52 0.96377 0.0
H262 H 0.04042 0.59067 0.98677 0.0
O263 O 0.16255 0.63155 0.05367 0.0
O264 O 0.1627 0.57752 0.12428 0.0
H265 H 0.07263 0.48355 0.17452 0.0
H266 H 0.04158 0.42191 0.14848 0.0
C267 C 0.06527 0.43211 0.14717 0.0
H268 H 0.07607 0.35876 0.15271 0.0
H269 H 0.12768 0.56067 0.20797 0.0
O270 O 0.12917 0.59821 0.95953 0.0
C271 C 0.17209 0.63497 0.09417 0.0
C272 C 0.3412 0.19758 0.31734 0.0
C273 C 0.33996 0.25663 0.34779 0.0
C274 C 0.34163 0.13601 0.27888 0.0
C275 C 0.34071 0.09007 0.24405 0.0
C276 C 0.62423 0.69839 0.30868 0.0
C277 C 0.62561 0.75723 0.27817 0.0
C278 C 0.62379 0.63669 0.34707 0.0
C279 C 0.62478 0.59047 0.38181 0.0
C280 C 0.34204 0.63835 0.77846 0.0
C281 C 0.34107 0.59234 0.74365 0.0
C282 C 0.34164 0.6998 0.81696 0.0
C283 C 0.34038 0.75863 0.8475 0.0
C284 C 0.62422 0.19965 0.80866 0.0
C285 C 0.6256 0.25849 0.77816 0.0
C286 C 0.6237 0.1381 0.8471 0.0
C287 C 0.62461 0.09193 0.88185 0.0
C288 C 0.84198 0.13597 0.77818 0.0
C289 C 0.84107 0.08977 0.74344 0.0
C290 C 0.8415 0.19779 0.81651 0.0
C291 C 0.8402 0.25671 0.84699 0.0
C292 C 0.12413 0.63649 0.84656 0.0
C293 C 0.12502 0.59048 0.88136 0.0
C294 C 0.12463 0.69801 0.80809 0.0
C295 C 0.12597 0.75695 0.77761 0.0
C296 C 0.84149 0.70115 0.31593 0.0
C297 C 0.8402 0.75993 0.34646 0.0
C298 C 0.84194 0.63923 0.27761 0.0
C299 C 0.84101 0.59267 0.24297 0.0
C300 C 0.12385 0.13692 0.3467 0.0
C301 C 0.12478 0.09094 0.38152 0.0
C302 C 0.12434 0.19843 0.30823 0.0
C303 C 0.12571 0.25734 0.27774 0.0
C304 C 0.49834 0.00765 0.06469 0.0
C305 C 0.5243 0.00766 0.06698 0.0
C306 C 0.46795 0.00743 0.06156 0.0
C307 C 0.44198 0.00719 0.05922 0.0
C308 C 0.46785 0.50512 0.56118 0.0
C309 C 0.44189 0.50537 0.5588 0.0
C310 C 0.49823 0.50528 0.56438 0.0
C311 C 0.52419 0.50569 0.56676 0.0
C312 C -0.0018 0.00513 0.56443 0.0
C313 C 0.02416 0.00522 0.56676 0.0
C314 C 0.96782 0.00534 0.56122 0.0
C315 C 0.94187 0.00573 0.5588 0.0
C316 C 0.96775 0.50601 0.06112 0.0
C317 C 0.94178 0.50647 0.05868 0.0
C318 C -0.00187 0.50558 0.06434 0.0
C319 C 0.02409 0.50544 0.06667 0.0
C320 C 0.21575 0.26314 0.02702 0.0
C321 C 0.19398 0.30614 0.0361 0.0
C322 C 0.24345 0.22313 0.02149 0.0
C323 C 0.2665 0.18187 0.02281 0.0
C324 C 0.74245 0.71807 0.02048 0.0
C325 C 0.76555 0.67712 0.02208 0.0
C326 C 0.71481 0.75875 0.02588 0.0
C327 C 0.69323 0.80284 0.03503 0.0
C328 C 0.22269 0.7225 0.10353 0.0
C329 C 0.1996 0.68132 0.10239 0.0
C330 C 0.2504 0.76248 0.09781 0.0
C331 C 0.27215 0.80561 0.08859 0.0
C332 C 0.72376 0.21743 0.10441 0.0
C333 C 0.70056 0.17699 0.10298 0.0
C334 C 0.75147 0.25756 0.09887 0.0
C335 C 0.77304 0.30154 0.08946 0.0
C336 C 0.21576 0.76361 0.52683 0.0
C337 C 0.19402 0.80657 0.53609 0.0
C338 C 0.24345 0.72362 0.52116 0.0
C339 C 0.2665 0.68234 0.52241 0.0
C340 C 0.71521 0.26058 0.52715 0.0
C341 C 0.69355 0.30417 0.53633 0.0
C342 C 0.74286 0.22026 0.52154 0.0
C343 C 0.76594 0.1792 0.52284 0.0
C344 C 0.22256 0.22372 0.60392 0.0
C345 C 0.19952 0.18225 0.6026 0.0
C346 C 0.25026 0.26388 0.59832 0.0
C347 C 0.27201 0.30697 0.5891 0.0
C348 C 0.72325 0.72014 0.60398 0.0
C349 C 0.70008 0.6795 0.6027 0.0
C350 C 0.75098 0.75992 0.59835 0.0
C351 C 0.77265 0.80334 0.58901 0.0
loop_
_geom_bond_atom_site_label_1
_geom_bond_atom_site_label_2
_geom_bond_distance
_geom_bond_site_symmetry_2
_ccdc_geom_bond_type
Co0 O3 1.970 1_545 S
Co0 N17 1.989 . S
Co0 O25 1.967 . S
Co0 O32 1.920 . S
Co1 O4 1.966 1_546 S
Co1 N10 2.022 1_545 S
Co1 N18 1.993 1_556 S
Co1 O26 1.941 . S
C2 O3 1.258 . S
C2 O4 1.263 . S
O3 Co0 1.970 1_565 S
O3 C2 1.258 . S
O4 Co1 1.966 1_564 S
O4 C2 1.263 . S
C5 O6 1.235 1_545 S
C5 O32 1.289 . S
O6 C5 1.235 1_565 S
C7 C9 1.400 . S
C7 N10 1.351 . S
C7 C12 1.501 . S
C8 C9 1.387 . S
C8 N11 1.341 1_565 S
C9 C7 1.400 . S
C9 C8 1.387 . S
N10 Co1 2.022 1_565 S
N10 C7 1.351 . S
N10 N11 1.365 1_565 S
N11 C8 1.341 1_545 S
N11 N10 1.365 1_545 S
N11 H31 0.862 . S
C12 C7 1.501 . S
C12 H13 0.961 . S
C12 H14 0.961 . S
C12 H15 0.960 . S
H13 C12 0.961 . S
H14 C12 0.961 . S
H15 C12 0.960 . S
C16 N17 1.342 . S
C16 C20 1.401 . S
C16 C21 1.499 . S
N17 Co0 1.989 . S
N17 C16 1.342 . S
N17 N18 1.388 . S
N18 Co1 1.993 1_554 S
N18 N17 1.388 . S
N18 C19 1.346 . S
C19 N18 1.346 . S
C19 C20 1.396 . S
C19 C29 1.510 1_544 S
C20 C16 1.401 . S
C20 C19 1.396 . S
C21 C16 1.499 . S
C21 H22 0.959 . S
C21 H23 0.960 . S
C21 H24 0.961 . S
H22 C21 0.959 . S
H23 C21 0.960 . S
H24 C21 0.961 . S
O25 Co0 1.967 . S
O25 C33 1.258 . S
O26 Co1 1.941 . S
O26 C33 1.266 1_556 S
H27 C29 0.959 1_545 S
H28 C29 0.961 . S
C29 C19 1.510 1_566 S
C29 H27 0.959 1_565 S
C29 H28 0.961 . S
C29 H30 0.960 . S
H30 C29 0.960 . S
H31 N11 0.862 . S
O32 Co0 1.920 . S
O32 C5 1.289 . S
C33 O25 1.258 . S
C33 O26 1.266 1_554 S
Co34 O37 1.970 1_545 S
Co34 N51 1.989 . S
Co34 O59 1.967 . S
Co34 O66 1.920 1_554 S
Co35 O38 1.966 1_545 S
Co35 N44 2.022 1_545 S
Co35 N52 1.993 . S
Co35 O60 1.941 . S
C36 O37 1.258 . S
C36 O38 1.263 . S
O37 Co34 1.970 1_565 S
O37 C36 1.258 . S
O38 Co35 1.966 1_565 S
O38 C36 1.263 . S
C39 O40 1.235 1_545 S
C39 O66 1.289 . S
O40 C39 1.235 1_565 S
C41 C43 1.400 . S
C41 N44 1.351 . S
C41 C46 1.501 . S
C42 C43 1.387 . S
C42 N45 1.341 1_565 S
C43 C41 1.400 . S
C43 C42 1.387 . S
N44 Co35 2.022 1_565 S
N44 C41 1.351 . S
N44 N45 1.365 1_565 S
N45 C42 1.341 1_545 S
N45 N44 1.365 1_545 S
N45 H65 0.862 . S
C46 C41 1.501 . S
C46 H47 0.961 . S
C46 H48 0.961 . S
C46 H49 0.960 . S
H47 C46 0.961 . S
H48 C46 0.961 . S
H49 C46 0.960 . S
C50 N51 1.342 . S
C50 C54 1.401 . S
C50 C55 1.499 1_554 S
N51 Co34 1.989 . S
N51 C50 1.342 . S
N51 N52 1.388 . S
N52 Co35 1.993 . S
N52 N51 1.388 . S
N52 C53 1.346 . S
C53 N52 1.346 . S
C53 C54 1.396 . S
C53 C63 1.510 1_545 S
C54 C50 1.401 . S
C54 C53 1.396 . S
C55 C50 1.499 1_556 S
C55 H56 0.959 . S
C55 H57 0.960 . S
C55 H58 0.961 . S
H56 C55 0.959 . S
H57 C55 0.960 . S
H58 C55 0.961 . S
O59 Co34 1.967 . S
O59 C67 1.258 . S
O60 Co35 1.941 . S
O60 C67 1.266 . S
H61 C63 0.959 1_545 S
H62 C63 0.961 . S
C63 C53 1.510 1_565 S
C63 H61 0.959 1_565 S
C63 H62 0.961 . S
C63 H64 0.960 . S
H64 C63 0.960 . S
H65 N45 0.862 . S
O66 Co34 1.920 1_556 S
O66 C39 1.289 . S
C67 O59 1.258 . S
C67 O60 1.266 . S
Co68 O71 1.970 . S
Co68 N85 1.989 . S
Co68 O93 1.967 . S
Co68 O100 1.920 . S
Co69 O72 1.966 . S
Co69 N78 2.022 . S
Co69 N86 1.993 . S
Co69 O94 1.941 . S
C70 O71 1.258 . S
C70 O72 1.263 . S
O71 Co68 1.970 . S
O71 C70 1.258 . S
O72 Co69 1.966 . S
O72 C70 1.263 . S
C73 O74 1.235 . S
C73 O100 1.289 . S
O74 C73 1.235 . S
C75 C77 1.400 . S
C75 N78 1.351 . S
C75 C80 1.501 . S
C76 C77 1.387 . S
C76 N79 1.341 . S
C77 C75 1.400 . S
C77 C76 1.387 . S
N78 Co69 2.022 . S
N78 C75 1.351 . S
N78 N79 1.365 . S
N79 C76 1.341 . S
N79 N78 1.365 . S
N79 H99 0.862 . S
C80 C75 1.501 . S
C80 H81 0.961 . S
C80 H82 0.961 . S
C80 H83 0.960 . S
H81 C80 0.961 . S
H82 C80 0.961 . S
H83 C80 0.960 . S
C84 N85 1.342 . S
C84 C88 1.401 . S
C84 C89 1.499 . S
N85 Co68 1.989 . S
N85 C84 1.342 . S
N85 N86 1.388 . S
N86 Co69 1.993 . S
N86 N85 1.388 . S
N86 C87 1.346 . S
C87 N86 1.346 . S
C87 C88 1.396 . S
C87 C97 1.510 . S
C88 C84 1.401 . S
C88 C87 1.396 . S
C89 C84 1.499 . S
C89 H90 0.959 . S
C89 H91 0.960 . S
C89 H92 0.961 . S
H90 C89 0.959 . S
H91 C89 0.960 . S
H92 C89 0.961 . S
O93 Co68 1.967 . S
O93 C101 1.258 . S
O94 Co69 1.941 . S
O94 C101 1.266 . S
H95 C97 0.959 . S
H96 C97 0.961 . S
C97 C87 1.510 . S
C97 H95 0.959 . S
C97 H96 0.961 . S
C97 H98 0.960 . S
H98 C97 0.960 . S
H99 N79 0.862 . S
O100 Co68 1.920 . S
O100 C73 1.289 . S
C101 O93 1.258 . S
C101 O94 1.266 . S
Co102 O105 1.970 . S
Co102 N119 1.989 . S
Co102 O127 1.967 . S
Co102 O134 1.920 . S
Co103 O106 1.966 . S
Co103 N112 2.022 . S
Co103 N120 1.993 . S
Co103 O128 1.941 . S
C104 O105 1.258 . S
C104 O106 1.263 . S
O105 Co102 1.970 . S
O105 C104 1.258 . S
O106 Co103 1.966 . S
O106 C104 1.263 . S
C107 O108 1.235 . S
C107 O134 1.289 . S
O108 C107 1.235 . S
C109 C111 1.400 . S
C109 N112 1.351 . S
C109 C114 1.501 . S
C110 C111 1.387 . S
C110 N113 1.341 . S
C111 C109 1.400 . S
C111 C110 1.387 . S
N112 Co103 2.022 . S
N112 C109 1.351 . S
N112 N113 1.365 . S
N113 C110 1.341 . S
N113 N112 1.365 . S
N113 H133 0.862 . S
C114 C109 1.501 . S
C114 H115 0.961 . S
C114 H116 0.961 . S
C114 H117 0.960 . S
H115 C114 0.961 . S
H116 C114 0.961 . S
H117 C114 0.960 . S
C118 N119 1.342 . S
C118 C122 1.401 . S
C118 C123 1.499 . S
N119 Co102 1.989 . S
N119 C118 1.342 . S
N119 N120 1.388 . S
N120 Co103 1.993 . S
N120 N119 1.388 . S
N120 C121 1.346 . S
C121 N120 1.346 . S
C121 C122 1.396 . S
C121 C131 1.510 . S
C122 C118 1.401 . S
C122 C121 1.396 . S
C123 C118 1.499 . S
C123 H124 0.959 . S
C123 H125 0.960 . S
C123 H126 0.961 . S
H124 C123 0.959 . S
H125 C123 0.960 . S
H126 C123 0.961 . S
O127 Co102 1.967 . S
O127 C135 1.258 . S
O128 Co103 1.941 . S
O128 C135 1.266 . S
H129 C131 0.959 . S
H130 C131 0.961 . S
C131 C121 1.510 . S
C131 H129 0.959 . S
C131 H130 0.961 . S
C131 H132 0.960 . S
H132 C131 0.960 . S
H133 N113 0.862 . S
O134 Co102 1.920 . S
O134 C107 1.289 . S
C135 O127 1.258 . S
C135 O128 1.266 . S
Co136 O139 1.970 1_545 S
Co136 N153 1.989 . S
Co136 O161 1.967 . S
Co136 O168 1.920 . S
Co137 O140 1.966 1_545 S
Co137 N146 2.022 1_545 S
Co137 N154 1.993 . S
Co137 O162 1.941 . S
C138 O139 1.258 . S
C138 O140 1.263 . S
O139 Co136 1.970 1_565 S
O139 C138 1.258 . S
O140 Co137 1.966 1_565 S
O140 C138 1.263 . S
C141 O142 1.235 1_545 S
C141 O168 1.289 . S
O142 C141 1.235 1_565 S
C143 C145 1.400 . S
C143 N146 1.351 . S
C143 C148 1.501 . S
C144 C145 1.387 . S
C144 N147 1.341 1_565 S
C145 C143 1.400 . S
C145 C144 1.387 . S
N146 Co137 2.022 1_565 S
N146 C143 1.351 . S
N146 N147 1.365 1_565 S
N147 C144 1.341 1_545 S
N147 N146 1.365 1_545 S
N147 H167 0.862 . S
C148 C143 1.501 . S
C148 H149 0.961 . S
C148 H150 0.961 . S
C148 H151 0.960 . S
H149 C148 0.961 . S
H150 C148 0.961 . S
H151 C148 0.960 . S
C152 N153 1.342 . S
C152 C156 1.401 . S
C152 C157 1.499 . S
N153 Co136 1.989 . S
N153 C152 1.342 . S
N153 N154 1.388 . S
N154 Co137 1.993 . S
N154 N153 1.388 . S
N154 C155 1.346 . S
C155 N154 1.346 . S
C155 C156 1.396 . S
C155 C165 1.510 1_545 S
C156 C152 1.401 . S
C156 C155 1.396 . S
C157 C152 1.499 . S
C157 H158 0.959 . S
C157 H159 0.960 . S
C157 H160 0.961 . S
H158 C157 0.959 . S
H159 C157 0.960 . S
H160 C157 0.961 . S
O161 Co136 1.967 . S
O161 C169 1.258 . S
O162 Co137 1.941 . S
O162 C169 1.266 . S
H163 C165 0.959 1_545 S
H164 C165 0.961 . S
C165 C155 1.510 1_565 S
C165 H163 0.959 1_565 S
C165 H164 0.961 . S
C165 H166 0.960 . S
H166 C165 0.960 . S
H167 N147 0.862 . S
O168 Co136 1.920 . S
O168 C141 1.289 . S
C169 O161 1.258 . S
C169 O162 1.266 . S
Co170 O173 1.970 1_545 S
Co170 N187 1.989 . S
Co170 O195 1.967 . S
Co170 O202 1.920 . S
Co171 O174 1.966 1_545 S
Co171 N180 2.022 1_545 S
Co171 N188 1.993 . S
Co171 O196 1.941 . S
C172 O173 1.258 . S
C172 O174 1.263 . S
O173 Co170 1.970 1_565 S
O173 C172 1.258 . S
O174 Co171 1.966 1_565 S
O174 C172 1.263 . S
C175 O176 1.235 1_545 S
C175 O202 1.289 . S
O176 C175 1.235 1_565 S
C177 C179 1.400 . S
C177 N180 1.351 . S
C177 C182 1.501 . S
C178 C179 1.387 . S
C178 N181 1.341 1_565 S
C179 C177 1.400 . S
C179 C178 1.387 . S
N180 Co171 2.022 1_565 S
N180 C177 1.351 . S
N180 N181 1.365 1_565 S
N181 C178 1.341 1_545 S
N181 N180 1.365 1_545 S
N181 H201 0.862 . S
C182 C177 1.501 . S
C182 H183 0.961 . S
C182 H184 0.961 . S
C182 H185 0.960 . S
H183 C182 0.961 . S
H184 C182 0.961 . S
H185 C182 0.960 . S
C186 N187 1.342 . S
C186 C190 1.401 . S
C186 C191 1.499 . S
N187 Co170 1.989 . S
N187 C186 1.342 . S
N187 N188 1.388 . S
N188 Co171 1.993 . S
N188 N187 1.388 . S
N188 C189 1.346 . S
C189 N188 1.346 . S
C189 C190 1.396 . S
C189 C199 1.510 1_545 S
C190 C186 1.401 . S
C190 C189 1.396 . S
C191 C186 1.499 . S
C191 H192 0.959 . S
C191 H193 0.960 . S
C191 H194 0.961 . S
H192 C191 0.959 . S
H193 C191 0.960 . S
H194 C191 0.961 . S
O195 Co170 1.967 . S
O195 C203 1.258 . S
O196 Co171 1.941 . S
O196 C203 1.266 . S
H197 C199 0.959 1_545 S
H198 C199 0.961 . S
C199 C189 1.510 1_565 S
C199 H197 0.959 1_565 S
C199 H198 0.961 . S
C199 H200 0.960 . S
H200 C199 0.960 . S
H201 N181 0.862 . S
O202 Co170 1.920 . S
O202 C175 1.289 . S
C203 O195 1.258 . S
C203 O196 1.266 . S
Co204 O207 1.970 . S
Co204 N221 1.989 . S
Co204 O229 1.967 . S
Co204 O236 1.920 . S
Co205 O208 1.966 1_556 S
Co205 N214 2.022 . S
Co205 N222 1.993 1_556 S
Co205 O230 1.941 . S
C206 O207 1.258 . S
C206 O208 1.263 . S
O207 Co204 1.970 . S
O207 C206 1.258 . S
O208 Co205 1.966 1_554 S
O208 C206 1.263 . S
C209 O210 1.235 . S
C209 O236 1.289 . S
O210 C209 1.235 . S
C211 C213 1.400 . S
C211 N214 1.351 . S
C211 C216 1.501 . S
C212 C213 1.387 . S
C212 N215 1.341 . S
C213 C211 1.400 . S
C213 C212 1.387 . S
N214 Co205 2.022 . S
N214 C211 1.351 . S
N214 N215 1.365 . S
N215 C212 1.341 . S
N215 N214 1.365 . S
N215 H235 0.862 . S
C216 C211 1.501 . S
C216 H217 0.961 . S
C216 H218 0.961 . S
C216 H219 0.960 . S
H217 C216 0.961 . S
H218 C216 0.961 . S
H219 C216 0.960 . S
C220 N221 1.342 . S
C220 C224 1.401 . S
C220 C225 1.499 . S
N221 Co204 1.989 . S
N221 C220 1.342 . S
N221 N222 1.388 . S
N222 Co205 1.993 1_554 S
N222 N221 1.388 . S
N222 C223 1.346 . S
C223 N222 1.346 . S
C223 C224 1.396 . S
C223 C233 1.510 1_554 S
C224 C220 1.401 . S
C224 C223 1.396 . S
C225 C220 1.499 . S
C225 H226 0.959 . S
C225 H227 0.960 . S
C225 H228 0.961 . S
H226 C225 0.959 . S
H227 C225 0.960 . S
H228 C225 0.961 . S
O229 Co204 1.967 . S
O229 C237 1.258 . S
O230 Co205 1.941 . S
O230 C237 1.266 1_556 S
H231 C233 0.959 . S
H232 C233 0.961 . S
C233 C223 1.510 1_556 S
C233 H231 0.959 . S
C233 H232 0.961 . S
C233 H234 0.960 . S
H234 C233 0.960 . S
H235 N215 0.862 . S
O236 Co204 1.920 . S
O236 C209 1.289 . S
C237 O229 1.258 . S
C237 O230 1.266 1_554 S
Co238 O241 1.970 . S
Co238 N255 1.989 . S
Co238 O263 1.967 . S
Co238 O270 1.920 1_554 S
Co239 O242 1.966 . S
Co239 N248 2.022 . S
Co239 N256 1.993 . S
Co239 O264 1.941 . S
C240 O241 1.258 . S
C240 O242 1.263 . S
O241 Co238 1.970 . S
O241 C240 1.258 . S
O242 Co239 1.966 . S
O242 C240 1.263 . S
C243 O244 1.235 . S
C243 O270 1.289 . S
O244 C243 1.235 . S
C245 C247 1.400 . S
C245 N248 1.351 . S
C245 C250 1.501 . S
C246 C247 1.387 . S
C246 N249 1.341 . S
C247 C245 1.400 . S
C247 C246 1.387 . S
N248 Co239 2.022 . S
N248 C245 1.351 . S
N248 N249 1.365 . S
N249 C246 1.341 . S
N249 N248 1.365 . S
N249 H269 0.862 . S
C250 C245 1.501 . S
C250 H251 0.961 . S
C250 H252 0.961 . S
C250 H253 0.960 . S
H251 C250 0.961 . S
H252 C250 0.961 . S
H253 C250 0.960 . S
C254 N255 1.342 . S
C254 C258 1.401 . S
C254 C259 1.499 1_554 S
N255 Co238 1.989 . S
N255 C254 1.342 . S
N255 N256 1.388 . S
N256 Co239 1.993 . S
N256 N255 1.388 . S
N256 C257 1.346 . S
C257 N256 1.346 . S
C257 C258 1.396 . S
C257 C267 1.510 . S
C258 C254 1.401 . S
C258 C257 1.396 . S
C259 C254 1.499 1_556 S
C259 H260 0.959 . S
C259 H261 0.960 . S
C259 H262 0.961 . S
H260 C259 0.959 . S
H261 C259 0.960 . S
H262 C259 0.961 . S
O263 Co238 1.967 . S
O263 C271 1.258 . S
O264 Co239 1.941 . S
O264 C271 1.266 . S
H265 C267 0.959 . S
H266 C267 0.961 . S
C267 C257 1.510 . S
C267 H265 0.959 . S
C267 H266 0.961 . S
C267 H268 0.960 . S
H268 C267 0.960 . S
H269 N249 0.862 . S
O270 Co238 1.920 1_556 S
O270 C243 1.289 . S
C271 O263 1.258 . S
C271 O264 1.266 . S
C272 C273 1.170 . S
C272 C274 1.380 . S
C273 C272 1.170 . S
C274 C272 1.380 . S
C274 C275 1.170 . S
C275 C274 1.170 . S
C276 C277 1.170 . S
C276 C278 1.380 . S
C277 C276 1.170 . S
C278 C276 1.380 . S
C278 C279 1.170 . S
C279 C278 1.170 . S
C280 C281 1.170 . S
C280 C282 1.380 . S
C281 C280 1.170 . S
C282 C280 1.380 . S
C282 C283 1.170 . S
C283 C282 1.170 . S
C284 C285 1.170 . S
C284 C286 1.380 . S
C285 C284 1.170 . S
C286 C284 1.380 . S
C286 C287 1.170 . S
C287 C286 1.170 . S
C288 C289 1.170 . S
C288 C290 1.380 . S
C289 C288 1.170 . S
C290 C288 1.380 . S
C290 C291 1.170 . S
C291 C290 1.170 . S
C292 C293 1.170 . S
C292 C294 1.380 . S
C293 C292 1.170 . S
C294 C292 1.380 . S
C294 C295 1.170 . S
C295 C294 1.170 . S
C296 C297 1.170 . S
C296 C298 1.380 . S
C297 C296 1.170 . S
C298 C296 1.380 . S
C298 C299 1.170 . S
C299 C298 1.170 . S
C300 C301 1.170 . S
C300 C302 1.380 . S
C301 C300 1.170 . S
C302 C300 1.380 . S
C302 C303 1.170 . S
C303 C302 1.170 . S
C304 C305 1.170 . S
C304 C306 1.380 . S
C305 C304 1.170 . S
C306 C304 1.380 . S
C306 C307 1.170 . S
C307 C306 1.170 . S
C308 C309 1.170 . S
C308 C310 1.380 . S
C309 C308 1.170 . S
C310 C308 1.380 . S
C310 C311 1.170 . S
C311 C310 1.170 . S
C312 C313 1.170 . S
C312 C314 1.380 1_455 S
C313 C312 1.170 . S
C314 C312 1.380 1_655 S
C314 C315 1.170 . S
C315 C314 1.170 . S
C316 C317 1.170 . S
C316 C318 1.380 1_655 S
C317 C316 1.170 . S
C318 C316 1.380 1_455 S
C318 C319 1.170 . S
C319 C318 1.170 . S
C320 C321 1.170 . S
C320 C322 1.380 . S
C321 C320 1.170 . S
C322 C320 1.380 . S
C322 C323 1.170 . S
C323 C322 1.170 . S
C324 C325 1.170 . S
C324 C326 1.380 . S
C325 C324 1.170 . S
C326 C324 1.380 . S
C326 C327 1.170 . S
C327 C326 1.170 . S
C328 C329 1.170 . S
C328 C330 1.380 . S
C329 C328 1.170 . S
C330 C328 1.380 . S
C330 C331 1.170 . S
C331 C330 1.170 . S
C332 C333 1.170 . S
C332 C334 1.380 . S
C333 C332 1.170 . S
C334 C332 1.380 . S
C334 C335 1.170 . S
C335 C334 1.170 . S
C336 C337 1.170 . S
C336 C338 1.380 . S
C337 C336 1.170 . S
C338 C336 1.380 . S
C338 C339 1.170 . S
C339 C338 1.170 . S
C340 C341 1.170 . S
C340 C342 1.380 . S
C341 C340 1.170 . S
C342 C340 1.380 . S
C342 C343 1.170 . S
C343 C342 1.170 . S
C344 C345 1.170 . S
C344 C346 1.380 . S
C345 C344 1.170 . S
C346 C344 1.380 . S
C346 C347 1.170 . S
C347 C346 1.170 . S
C348 C349 1.170 . S
C348 C350 1.380 . S
C349 C348 1.170 . S
C350 C348 1.380 . S
C350 C351 1.170 . S
C351 C350 1.170 . S
C273 C77 1.525 . S
C275 C5 1.568 . S
C277 C43 1.524 . S
C279 C107 1.566 . S
C281 C73 1.561 . S
C283 C9 1.534 . S
C285 C111 1.527 . S
C287 C39 1.563 . S
C289 C141 1.568 . S
C291 C213 1.526 . S
C293 C243 1.571 . S
C295 C179 1.533 . S
C297 C145 1.524 . S
C299 C209 1.566 . S
C301 C175 1.572 . S
C303 C247 1.542 . S
C305 C54 1.463 . S
C307 C20 1.460 . S
C309 C88 1.446 . S
C311 C122 1.459 . S
C313 C190 1.467 . S
C315 C156 1.447 . S
C317 C224 1.447 . S
C319 C258 1.457 . S
C321 C240 1.039 . S
C323 C33 1.023 . S
C325 C237 0.995 . S
C327 C36 1.041 . S
C329 C271 1.045 . S
C331 C2 1.012 . S
C333 C67 0.973 . S
C335 C206 1.066 . S
C337 C172 1.015 . S
C339 C101 1.034 . S
C341 C104 1.031 . S
C343 C169 1.033 . S
C345 C203 1.045 . S
C347 C70 1.012 . S
C349 C135 0.976 . S
C351 C138 1.065 . S
