# Generated by pormake.
# Topology uoq, (4)-cn, num edge types: 1
# Building blocks:
#     Node 0, Type 0, BuildingBlock: ICAMEG_clean_sbu_1, # of connection points: 4
#     Node 1, Type 0, BuildingBlock: ICAMEG_clean_sbu_1, # of connection points: 4
#     Node 2, Type 0, BuildingBlock: ICAMEG_clean_sbu_1, # of connection points: 4
#     Node 3, Type 0, BuildingBlock: ICAMEG_clean_sbu_1, # of connection points: 4
#     Node 4, Type 0, BuildingBlock: ICAMEG_clean_sbu_1, # of connection points: 4
#     Node 5, Type 0, BuildingBlock: ICAMEG_clean_sbu_1, # of connection points: 4
#     Node 6, Type 0, BuildingBlock: ICAMEG_clean_sbu_1, # of connection points: 4
#     Node 7, Type 0, BuildingBlock: ICAMEG_clean_sbu_1, # of connection points: 4
#     Node 8, Type 0, BuildingBlock: ICAMEG_clean_sbu_1, # of connection points: 4
#     Node 9, Type 0, BuildingBlock: ICAMEG_clean_sbu_1, # of connection points: 4
#     Node 10, Type 0, BuildingBlock: ICAMEG_clean_sbu_1, # of connection points: 4
#     Node 11, Type 0, BuildingBlock: ICAMEG_clean_sbu_1, # of connection points: 4
#     Edge 12, Type (0, 0), BuildingBlock: XIVTED_clean_linker_0, # of connection points: 2
#     Edge 13, Type (0, 0), BuildingBlock: XIVTED_clean_linker_0, # of connection points: 2
#     Edge 14, Type (0, 0), BuildingBlock: XIVTED_clean_linker_0, # of connection points: 2
#     Edge 15, Type (0, 0), BuildingBlock: XIVTED_clean_linker_0, # of connection points: 2
#     Edge 16, Type (0, 0), BuildingBlock: XIVTED_clean_linker_0, # of connection points: 2
#     Edge 17, Type (0, 0), BuildingBlock: XIVTED_clean_linker_0, # of connection points: 2
#     Edge 18, Type (0, 0), BuildingBlock: XIVTED_clean_linker_0, # of connection points: 2
#     Edge 19, Type (0, 0), BuildingBlock: XIVTED_clean_linker_0, # of connection points: 2
#     Edge 20, Type (0, 0), BuildingBlock: XIVTED_clean_linker_0, # of connection points: 2
#     Edge 21, Type (0, 0), BuildingBlock: XIVTED_clean_linker_0, # of connection points: 2
#     Edge 22, Type (0, 0), BuildingBlock: XIVTED_clean_linker_0, # of connection points: 2
#     Edge 23, Type (0, 0), BuildingBlock: XIVTED_clean_linker_0, # of connection points: 2
#     Edge 24, Type (0, 0), BuildingBlock: XIVTED_clean_linker_0, # of connection points: 2
#     Edge 25, Type (0, 0), BuildingBlock: XIVTED_clean_linker_0, # of connection points: 2
#     Edge 26, Type (0, 0), BuildingBlock: XIVTED_clean_linker_0, # of connection points: 2
#     Edge 27, Type (0, 0), BuildingBlock: XIVTED_clean_linker_0, # of connection points: 2
#     Edge 28, Type (0, 0), BuildingBlock: XIVTED_clean_linker_0, # of connection points: 2
#     Edge 29, Type (0, 0), BuildingBlock: XIVTED_clean_linker_0, # of connection points: 2
#     Edge 30, Type (0, 0), BuildingBlock: XIVTED_clean_linker_0, # of connection points: 2
#     Edge 31, Type (0, 0), BuildingBlock: XIVTED_clean_linker_0, # of connection points: 2
#     Edge 32, Type (0, 0), BuildingBlock: XIVTED_clean_linker_0, # of connection points: 2
#     Edge 33, Type (0, 0), BuildingBlock: XIVTED_clean_linker_0, # of connection points: 2
#     Edge 34, Type (0, 0), BuildingBlock: XIVTED_clean_linker_0, # of connection points: 2
#     Edge 35, Type (0, 0), BuildingBlock: XIVTED_clean_linker_0, # of connection points: 2
# Relax obj value: 0.257
# Max RMSD: 0.233
# Mean RMSD: 0.233
data_MOF--net-uoq--node1-ICAMEG_clean_sbu_1--edge1-XIVTED_clean_linker_0
_symmetry_space_group_name_H-M    P1
_symmetry_Int_Tables_number       1
_symmetry_cell_setting            triclinic
loop_
_symmetry_equiv_pos_as_xyz
'x, y, z'
_cell_length_a     60.733126
_cell_length_b     60.779317
_cell_length_c     24.306996
_cell_angle_alpha  90.161866
_cell_angle_beta   90.018259
_cell_angle_gamma 120.05376
loop_
_atom_site_label
_atom_site_type_symbol
_atom_site_fract_x
_atom_site_fract_y
_atom_site_fract_z
_atom_type_partial_charge
Co0 Co 0.32325 0.4565 0.3373 0.0
Co1 Co 0.34176 0.46034 0.20222 0.0
O2 O 0.31873 0.46019 0.259 0.0
C3 C 0.32185 0.49995 0.38737 0.0
O4 O 0.34498 0.50751 0.4052 0.0
C5 C 0.28808 0.42743 0.1556 0.0
O6 O 0.27957 0.41626 0.20324 0.0
O7 O 0.33781 0.42722 0.23082 0.0
O8 O 0.33579 0.43256 0.32172 0.0
H9 H 0.41423 0.45098 0.13048 0.0
H10 H 0.27354 0.44887 0.2994 0.0
O11 O 0.31089 0.48076 0.35514 0.0
H12 H 0.25445 0.36735 0.38285 0.0
H13 H 0.29794 0.44512 0.53732 0.0
H14 H 0.36407 0.45648 0.40421 0.0
H15 H 0.29843 0.40337 0.38051 0.0
H16 H 0.29208 0.44911 0.43821 0.0
O17 O 0.31191 0.44267 0.14893 0.0
H18 H 0.38565 0.45171 0.20157 0.0
H19 H 0.34575 0.46842 0.08045 0.0
H20 H 0.37066 0.45246 0.50295 0.0
H21 H 0.2292 0.41346 0.30167 0.0
H22 H 0.33746 0.44676 0.57028 0.0
H23 H 0.21944 0.3723 0.34346 0.0
O24 O 0.3587 0.48519 0.33345 0.0
H25 H 0.31223 0.52133 0.14892 0.0
H26 H 0.3865 0.50959 0.16765 0.0
H27 H 0.3927 0.55079 0.13603 0.0
H28 H 0.35536 0.55683 0.12617 0.0
H29 H 0.30695 0.48058 0.18118 0.0
H30 H 0.37377 0.46766 1.00804 0.0
H31 H 0.40837 0.45899 0.03289 0.0
O32 O 0.37245 0.4799 0.25154 0.0
C33 C 0.33926 0.42141 0.28102 0.0
C34 C 0.39924 0.45482 0.11914 0.0
C35 C 0.3765 0.46414 0.05041 0.0
N36 N 0.36407 0.46015 0.14527 0.0
C37 C 0.38302 0.4553 0.15924 0.0
C38 C 0.36062 0.46443 0.0916 0.0
C39 C 0.39593 0.45929 0.06439 0.0
C40 C 0.26941 0.43111 0.31818 0.0
N41 N 0.28857 0.42824 0.33994 0.0
C42 C 0.24428 0.41108 0.31911 0.0
C43 C 0.23883 0.38798 0.34246 0.0
C44 C 0.25846 0.38518 0.3645 0.0
C45 C 0.28337 0.40562 0.3628 0.0
C46 C 0.31253 0.44755 0.50839 0.0
C47 C 0.3495 0.45392 0.43322 0.0
C48 C 0.30932 0.44981 0.45221 0.0
N49 N 0.32769 0.45295 0.41538 0.0
C50 C 0.35335 0.45168 0.48909 0.0
C51 C 0.33471 0.44848 0.52685 0.0
C52 C 0.3764 0.49053 0.29887 0.0
C53 C 0.32865 0.51892 0.15293 0.0
C54 C 0.37019 0.5121 0.16394 0.0
C55 C 0.3738 0.53546 0.14578 0.0
C56 C 0.35285 0.53884 0.14023 0.0
N57 N 0.34639 0.49259 0.1761 0.0
C58 C 0.32578 0.49584 0.17106 0.0
Co59 Co 0.87527 0.31683 0.68837 0.0
Co60 Co 0.88474 0.33163 0.54889 0.0
O61 O 0.8644 0.31048 0.6111 0.0
C62 C 0.83451 0.32121 0.74368 0.0
O63 O 0.85245 0.34381 0.75978 0.0
C64 C 0.86032 0.27635 0.50974 0.0
O65 O 0.85544 0.26838 0.56072 0.0
O66 O 0.91626 0.33146 0.57619 0.0
O67 O 0.91043 0.32608 0.6678 0.0
H68 H 0.96133 0.40487 0.46164 0.0
H69 H 0.82893 0.26768 0.66275 0.0
O70 O 0.83993 0.30801 0.7112 0.0
H71 H 0.89055 0.24499 0.73665 0.0
H72 H 0.867 0.29747 0.89146 0.0
H73 H 0.92016 0.35741 0.74701 0.0
H74 H 0.90195 0.28989 0.72863 0.0
H75 H 0.85344 0.28953 0.79433 0.0
O76 O 0.8738 0.30022 0.5 0.0
H77 H 0.93528 0.37812 0.53849 0.0
H78 H 0.87684 0.33008 0.42704 0.0
H79 H 0.93446 0.36603 0.84363 0.0
H80 H 0.81654 0.22251 0.67122 0.0
H81 H 0.90779 0.33595 0.91664 0.0
H82 H 0.84752 0.21092 0.7081 0.0
O83 O 0.88471 0.35304 0.68128 0.0
H84 H 0.79149 0.29521 0.50715 0.0
H85 H 0.87594 0.37268 0.50739 0.0
H86 H 0.83859 0.37509 0.47649 0.0
H87 H 0.79597 0.33612 0.47583 0.0
H88 H 0.82919 0.29371 0.53849 0.0
H89 H 0.90233 0.35615 0.34896 0.0
H90 H 0.94487 0.39392 0.366 0.0
O91 O 0.89504 0.36348 0.59275 0.0
C92 C 0.9241 0.33088 0.62502 0.0
C93 C 0.94284 0.38843 0.45367 0.0
C94 C 0.90975 0.36107 0.39043 0.0
N95 N 0.90465 0.35244 0.48739 0.0
C96 C 0.92802 0.37321 0.49705 0.0
C97 C 0.89547 0.34628 0.43484 0.0
C98 C 0.9336 0.38227 0.40002 0.0
C99 C 0.84242 0.2628 0.67944 0.0
N100 N 0.86617 0.28144 0.69498 0.0
C101 C 0.83534 0.23718 0.68386 0.0
C102 C 0.85275 0.23069 0.70445 0.0
C103 C 0.87691 0.2498 0.72036 0.0
C104 C 0.88333 0.27521 0.71533 0.0
C105 C 0.87881 0.3107 0.86001 0.0
C106 C 0.90848 0.34418 0.77851 0.0
C107 C 0.87124 0.3063 0.80493 0.0
N108 N 0.88603 0.32295 0.76496 0.0
C109 C 0.91666 0.34918 0.83317 0.0
C110 C 0.90169 0.3323 0.87411 0.0
C111 C 0.89294 0.36918 0.64237 0.0
C112 C 0.80999 0.31228 0.50677 0.0
C113 C 0.8575 0.35561 0.50728 0.0
C114 C 0.8364 0.3571 0.48968 0.0
C115 C 0.8125 0.33524 0.48932 0.0
N116 N 0.85499 0.33295 0.52365 0.0
C117 C 0.83152 0.31152 0.52412 0.0
Co118 Co 0.56442 0.86744 1.01258 0.0
Co119 Co 0.5637 0.88225 0.87509 0.0
O120 O 0.56173 0.85911 0.93399 0.0
C121 C 0.51802 0.82503 0.0597 0.0
O122 O 0.5123 0.84226 0.0753 0.0
C123 C 0.5938 0.85735 0.83504 0.0
O124 O 0.59712 0.85256 0.88594 0.0
O125 O 0.59598 0.91135 0.90758 0.0
O126 O 0.59063 0.90327 0.99816 0.0
H127 H 0.57576 0.96451 0.80004 0.0
H128 H 0.56811 0.82213 0.98178 0.0
O129 O 0.53755 0.83145 0.02953 0.0
H130 H 0.65048 0.88145 0.06808 0.0
H131 H 0.57014 0.85238 0.21474 0.0
H132 H 0.56678 0.91008 0.07706 0.0
H133 H 0.61712 0.893 0.05901 0.0
H134 H 0.56746 0.84231 0.1158 0.0
O135 O 0.58349 0.87091 0.82552 0.0
H136 H 0.57265 0.93485 0.87269 0.0
H137 H 0.55927 0.87864 0.75235 0.0
H138 H 0.56953 0.92092 0.17559 0.0
H139 H 0.60077 0.80961 0.99112 0.0
H140 H 0.57119 0.89195 0.24522 0.0
H141 H 0.64237 0.83943 0.03427 0.0
O142 O 0.5379 0.877 1.00474 0.0
H143 H 0.50366 0.79177 0.81733 0.0
H144 H 0.51596 0.87814 0.83083 0.0
H145 H 0.47575 0.84345 0.7934 0.0
H146 H 0.46945 0.79989 0.78608 0.0
H147 H 0.54336 0.82687 0.85527 0.0
H148 H 0.56249 0.90778 0.67844 0.0
H149 H 0.57068 0.95103 0.70209 0.0
O150 O 0.54265 0.89311 0.91977 0.0
C151 C 0.60197 0.91806 0.95805 0.0
C152 C 0.57215 0.9457 0.78921 0.0
C153 C 0.56475 0.91388 0.72096 0.0
N154 N 0.56575 0.90502 0.81686 0.0
C155 C 0.57032 0.9288 0.83018 0.0
C156 C 0.56307 0.8975 0.76302 0.0
C157 C 0.56932 0.93814 0.73426 0.0
C158 C 0.58604 0.8351 1.00121 0.0
N159 N 0.59068 0.8583 0.0197 0.0
C160 C 0.60452 0.82796 1.00609 0.0
C161 C 0.62787 0.84472 0.0302 0.0
C162 C 0.63246 0.86832 0.04907 0.0
C163 C 0.61354 0.87483 0.04345 0.0
C164 C 0.56948 0.86519 0.18479 0.0
C165 C 0.5676 0.89742 0.10707 0.0
C166 C 0.56799 0.8596 0.12869 0.0
N167 N 0.56705 0.87563 0.09059 0.0
C168 C 0.56912 0.90364 0.16282 0.0
C169 C 0.57005 0.88738 0.20186 0.0
C170 C 0.53255 0.88829 0.96762 0.0
C171 C 0.50623 0.8107 0.82 0.0
C172 C 0.51336 0.85925 0.82809 0.0
C173 C 0.49055 0.83968 0.80669 0.0
C174 C 0.48703 0.81525 0.80257 0.0
N175 N 0.53225 0.85473 0.84465 0.0
C176 C 0.52879 0.83074 0.84121 0.0
Co177 Co 0.71682 0.57172 0.35468 0.0
Co178 Co 0.69916 0.56507 0.21785 0.0
O179 O 0.72225 0.56704 0.27708 0.0
C180 C 0.72188 0.52565 0.36495 0.0
O181 O 0.70525 0.5142 0.32536 0.0
C182 C 0.75314 0.59517 0.17181 0.0
O183 O 0.76245 0.60043 0.22184 0.0
O184 O 0.70112 0.5978 0.24353 0.0
O185 O 0.70384 0.59476 0.3349 0.0
H186 H 0.62459 0.56903 0.13997 0.0
H187 H 0.76746 0.5796 0.32403 0.0
O188 O 0.72931 0.54856 0.37816 0.0
H189 H 0.78383 0.66198 0.39865 0.0
H190 H 0.73914 0.58422 0.55631 0.0
H191 H 0.67532 0.57286 0.41665 0.0
H192 H 0.74017 0.62546 0.39413 0.0
H193 H 0.74631 0.57939 0.45829 0.0
O194 O 0.729 0.58384 0.16454 0.0
H195 H 0.65363 0.57096 0.21318 0.0
H196 H 0.69607 0.5552 0.09663 0.0
H197 H 0.6675 0.57785 0.51419 0.0
H198 H 0.81152 0.6155 0.32873 0.0
H199 H 0.69954 0.58357 0.58481 0.0
H200 H 0.81991 0.6571 0.36598 0.0
O201 O 0.68173 0.54232 0.35121 0.0
H202 H 0.73283 0.50621 0.17464 0.0
H203 H 0.65621 0.51444 0.18392 0.0
H204 H 0.65211 0.47354 0.15624 0.0
H205 H 0.69063 0.46925 0.15115 0.0
H206 H 0.73603 0.54659 0.20289 0.0
H207 H 0.66763 0.55333 0.02215 0.0
H208 H 0.63151 0.56017 0.04364 0.0
O209 O 0.66849 0.54488 0.26647 0.0
C210 C 0.6998 0.60466 0.29289 0.0
C211 C 0.64024 0.56599 0.1301 0.0
C212 C 0.66442 0.55723 0.06396 0.0
N213 N 0.67652 0.56318 0.15928 0.0
C214 C 0.65673 0.56702 0.17139 0.0
C215 C 0.68054 0.55842 0.1063 0.0
C216 C 0.64415 0.56104 0.07605 0.0
C217 C 0.77098 0.59758 0.34071 0.0
N218 N 0.75122 0.60046 0.35835 0.0
C219 C 0.79596 0.61787 0.34307 0.0
C220 C 0.80065 0.64122 0.36388 0.0
C221 C 0.78041 0.64398 0.3821 0.0
C222 C 0.75568 0.62327 0.37906 0.0
C223 C 0.72507 0.58182 0.52591 0.0
C224 C 0.68945 0.57553 0.44707 0.0
C225 C 0.72901 0.57905 0.47032 0.0
N226 N 0.71136 0.57609 0.43166 0.0
C227 C 0.68488 0.57826 0.50227 0.0
C228 C 0.70285 0.58145 0.54187 0.0
C229 C 0.66435 0.53543 0.31492 0.0
C230 C 0.71592 0.5079 0.17631 0.0
C231 C 0.67308 0.51278 0.18191 0.0
C232 C 0.67063 0.48955 0.16611 0.0
C233 C 0.69224 0.48715 0.16325 0.0
N234 N 0.6964 0.53316 0.19422 0.0
C235 C 0.71764 0.53084 0.19194 0.0
Co236 Co 0.15052 0.69986 0.67524 0.0
Co237 Co 0.14605 0.68645 0.53653 0.0
O238 O 0.16361 0.70864 0.59999 0.0
C239 C 0.20354 0.71127 0.69473 0.0
O240 O 0.20233 0.69737 0.65215 0.0
C241 C 0.16944 0.74124 0.49511 0.0
O242 O 0.17315 0.74965 0.54591 0.0
O243 O 0.11305 0.68528 0.55691 0.0
O244 O 0.11497 0.68335 0.64881 0.0
H245 H 0.07387 0.61075 0.4434 0.0
H246 H 0.18984 0.75347 0.65516 0.0
O247 O 0.18556 0.71555 0.70567 0.0
H248 H 0.11397 0.75647 0.71616 0.0
H249 H 0.14926 0.71586 0.87837 0.0
H250 H 0.109 0.65365 0.72788 0.0
H251 H 0.11301 0.71555 0.70887 0.0
H252 H 0.16498 0.72705 0.78327 0.0
O253 O 0.157 0.71722 0.48584 0.0
H254 H 0.09675 0.63888 0.52177 0.0
H255 H 0.15788 0.68722 0.41678 0.0
H256 H 0.09256 0.64174 0.82231 0.0
H257 H 0.19176 0.79488 0.6627 0.0
H258 H 0.11273 0.67296 0.89838 0.0
H259 H 0.15358 0.79654 0.69319 0.0
O260 O 0.14963 0.667 0.66902 0.0
H261 H 0.24092 0.72685 0.51185 0.0
H262 H 0.1587 0.64695 0.50206 0.0
H263 H 0.19812 0.64656 0.4807 0.0
H264 H 0.23965 0.68676 0.48518 0.0
H265 H 0.20118 0.72633 0.53371 0.0
H266 H 0.13553 0.65978 0.33724 0.0
H267 H 0.09326 0.62116 0.35032 0.0
O268 O 0.13589 0.65489 0.58245 0.0
C269 C 0.10266 0.68049 0.60465 0.0
C270 C 0.09229 0.62751 0.43719 0.0
C271 C 0.12687 0.65505 0.37759 0.0
N272 N 0.12864 0.66466 0.47395 0.0
C273 C 0.10536 0.64349 0.48143 0.0
C274 C 0.13939 0.67059 0.42278 0.0
C275 C 0.10317 0.63338 0.38497 0.0
C276 C 0.17321 0.75406 0.66879 0.0
N277 N 0.15132 0.7321 0.68122 0.0
C278 C 0.17438 0.77755 0.67282 0.0
C279 C 0.15294 0.77847 0.68985 0.0
C280 C 0.1307 0.75599 0.70265 0.0
C281 C 0.13023 0.73285 0.6981 0.0
C282 C 0.14025 0.70211 0.84556 0.0
C283 C 0.11777 0.66741 0.76065 0.0
C284 C 0.14908 0.70833 0.7916 0.0
N285 N 0.13778 0.69109 0.7499 0.0
C286 C 0.10842 0.66053 0.81409 0.0
C287 C 0.11976 0.67804 0.85675 0.0
C288 C 0.14091 0.65033 0.63091 0.0
C289 C 0.22293 0.70925 0.50924 0.0
C290 C 0.17663 0.66454 0.50411 0.0
C291 C 0.19893 0.6642 0.49191 0.0
C292 C 0.22221 0.68675 0.49443 0.0
N293 N 0.1774 0.68674 0.51803 0.0
C294 C 0.20024 0.70886 0.52114 0.0
Co295 Co 0.46135 0.15165 0.02079 0.0
Co296 Co 0.46678 0.14195 0.88265 0.0
O297 O 0.46517 0.16249 0.94381 0.0
C298 C 0.50659 0.20359 0.03375 0.0
O299 O 0.51826 0.19999 0.99226 0.0
C300 C 0.43777 0.16752 0.83886 0.0
O301 O 0.43442 0.17311 0.88913 0.0
O302 O 0.43417 0.1108 0.90802 0.0
O303 O 0.43882 0.11569 0.99943 0.0
H304 H 0.46234 0.06412 0.7991 0.0
H305 H 0.45182 0.19367 0.99431 0.0
O306 O 0.48389 0.18718 0.04635 0.0
H307 H 0.37079 0.12555 0.06913 0.0
H308 H 0.44945 0.15843 0.22404 0.0
H309 H 0.46231 0.10925 0.07865 0.0
H310 H 0.40803 0.11976 0.06173 0.0
H311 H 0.45333 0.17152 0.12699 0.0
O312 O 0.44753 0.1533 0.8311 0.0
H313 H 0.46096 0.09066 0.87443 0.0
H314 H 0.47568 0.14962 0.76132 0.0
H315 H 0.45834 0.09539 0.17517 0.0
H316 H 0.41516 0.20047 1.00184 0.0
H317 H 0.45186 0.12006 0.24866 0.0
H318 H 0.37423 0.1662 0.03922 0.0
O319 O 0.49138 0.14713 1.01442 0.0
H320 H 0.52586 0.23509 0.84519 0.0
H321 H 0.51691 0.14993 0.84442 0.0
H322 H 0.55766 0.18694 0.81712 0.0
H323 H 0.56231 0.22993 0.81702 0.0
H324 H 0.48567 0.19772 0.87304 0.0
H325 H 0.47694 0.12361 0.68475 0.0
H326 H 0.47036 0.08057 0.70344 0.0
O327 O 0.48754 0.1313 0.92914 0.0
C328 C 0.42814 0.10209 0.9572 0.0
C329 C 0.46526 0.08286 0.79044 0.0
C330 C 0.47341 0.11622 0.72625 0.0
N331 N 0.46825 0.12168 0.82238 0.0
C332 C 0.46455 0.098 0.83295 0.0
C333 C 0.47254 0.13082 0.76978 0.0
C334 C 0.46974 0.09209 0.73677 0.0
C335 C 0.43411 0.17872 1.01091 0.0
N336 N 0.43202 0.15624 0.02701 0.0
C337 C 0.4134 0.18266 1.01493 0.0
C338 C 0.39043 0.16341 0.03584 0.0
C339 C 0.38848 0.14058 0.05251 0.0
C340 C 0.40959 0.13732 0.04782 0.0
C341 C 0.45219 0.14748 0.19238 0.0
C342 C 0.45934 0.12 0.11034 0.0
C343 C 0.45442 0.15481 0.13732 0.0
N344 N 0.45782 0.14103 0.09707 0.0
C345 C 0.45717 0.11209 0.16495 0.0
C346 C 0.45355 0.12595 0.20616 0.0
C347 C 0.4979 0.13686 0.97689 0.0
C348 C 0.524 0.21643 0.84458 0.0
C349 C 0.51871 0.16851 0.84456 0.0
C350 C 0.54186 0.18943 0.82897 0.0
C351 C 0.54447 0.21354 0.82891 0.0
N352 N 0.49857 0.1714 0.85933 0.0
C353 C 0.50113 0.19507 0.85992 0.0
Co354 Co 0.56643 0.70475 0.34943 0.0
Co355 Co 0.56536 0.68957 0.48722 0.0
O356 O 0.56325 0.71041 0.42777 0.0
C357 C 0.52024 0.70017 0.29972 0.0
O358 O 0.51542 0.67768 0.28254 0.0
C359 C 0.59454 0.74467 0.52746 0.0
O360 O 0.59775 0.75276 0.47658 0.0
O361 O 0.59801 0.6933 0.45603 0.0
O362 O 0.5929 0.69567 0.36521 0.0
H363 H 0.57844 0.6203 0.56405 0.0
H364 H 0.56918 0.75345 0.37907 0.0
O365 O 0.53928 0.7133 0.33126 0.0
H366 H 0.65239 0.77762 0.29651 0.0
H367 H 0.57359 0.7256 0.14715 0.0
H368 H 0.56967 0.66472 0.28596 0.0
H369 H 0.61942 0.73253 0.30499 0.0
H370 H 0.56986 0.73279 0.24572 0.0
O371 O 0.5846 0.72083 0.53693 0.0
H372 H 0.57512 0.64649 0.4908 0.0
H373 H 0.56038 0.68879 0.60982 0.0
H374 H 0.57347 0.65684 0.18781 0.0
H375 H 0.60144 0.79881 0.37025 0.0
H376 H 0.57543 0.68739 0.11762 0.0
H377 H 0.64346 0.81115 0.329 0.0
O378 O 0.54012 0.66848 0.35691 0.0
H379 H 0.50394 0.7187 0.54123 0.0
H380 H 0.51783 0.64557 0.53088 0.0
H381 H 0.47714 0.63939 0.56641 0.0
H382 H 0.47003 0.67617 0.57211 0.0
H383 H 0.54412 0.72394 0.50517 0.0
H384 H 0.56378 0.66322 0.68434 0.0
H385 H 0.57277 0.62862 0.66165 0.0
O386 O 0.54484 0.65752 0.44237 0.0
C387 C 0.60429 0.69262 0.40586 0.0
C388 C 0.57448 0.6353 0.57446 0.0
C389 C 0.5663 0.65942 0.64197 0.0
N390 N 0.56752 0.66913 0.54593 0.0
C391 C 0.57253 0.65016 0.53315 0.0
C392 C 0.56452 0.67392 0.59958 0.0
C393 C 0.57132 0.63999 0.62921 0.0
C394 C 0.5873 0.75865 0.36046 0.0
N395 N 0.59239 0.74031 0.34271 0.0
C396 C 0.60555 0.78438 0.35587 0.0
C397 C 0.62914 0.79129 0.33282 0.0
C398 C 0.63418 0.77249 0.3147 0.0
C399 C 0.61548 0.74695 0.32 0.0
C400 C 0.5728 0.71217 0.17735 0.0
C401 C 0.57059 0.67815 0.2557 0.0
C402 C 0.57072 0.71615 0.23325 0.0
N403 N 0.56964 0.69923 0.27167 0.0
C404 C 0.57272 0.67357 0.20017 0.0
C405 C 0.57382 0.69072 0.16081 0.0
C406 C 0.53484 0.65198 0.39434 0.0
C407 C 0.50686 0.70255 0.53923 0.0
C408 C 0.51488 0.66165 0.53291 0.0
C409 C 0.4918 0.65804 0.55325 0.0
C410 C 0.48782 0.67868 0.55647 0.0
N411 N 0.53358 0.68516 0.51649 0.0
C412 C 0.52969 0.70543 0.51909 0.0
Co413 Co 0.87498 0.56475 0.68144 0.0
Co414 Co 0.88597 0.56 0.82042 0.0
O415 O 0.86491 0.56038 0.75913 0.0
C416 C 0.83411 0.51892 0.62774 0.0
O417 O 0.85205 0.51428 0.61175 0.0
C418 C 0.86219 0.59124 0.86035 0.0
O419 O 0.8568 0.59408 0.80958 0.0
O420 O 0.91718 0.59157 0.79179 0.0
O421 O 0.91017 0.59128 0.70073 0.0
H422 H 0.96328 0.56326 0.90397 0.0
H423 H 0.82846 0.56661 0.70996 0.0
O424 O 0.8396 0.53767 0.6599 0.0
H425 H 0.88757 0.65077 0.63198 0.0
H426 H 0.86421 0.5745 0.47876 0.0
H427 H 0.91969 0.5699 0.62096 0.0
H428 H 0.89999 0.61799 0.63926 0.0
H429 H 0.85163 0.56906 0.57641 0.0
O430 O 0.87564 0.58079 0.86961 0.0
H431 H 0.93637 0.56355 0.82835 0.0
H432 H 0.87966 0.55471 0.94268 0.0
H433 H 0.93304 0.57545 0.52381 0.0
H434 H 0.81501 0.59861 0.70226 0.0
H435 H 0.9052 0.57776 0.45192 0.0
H436 H 0.84473 0.64111 0.66336 0.0
O437 O 0.8852 0.53851 0.6878 0.0
H438 H 0.79324 0.50345 0.86655 0.0
H439 H 0.87762 0.51037 0.86235 0.0
H440 H 0.84062 0.4708 0.89498 0.0
H441 H 0.79805 0.46718 0.89762 0.0
H442 H 0.8306 0.54247 0.83347 0.0
H443 H 0.90603 0.55454 0.01953 0.0
H444 H 0.94815 0.55876 1.00043 0.0
O445 O 0.89571 0.53819 0.77616 0.0
C446 C 0.92443 0.60015 0.74287 0.0
C447 C 0.945 0.56149 0.91285 0.0
C448 C 0.91289 0.55664 0.9777 0.0
N449 N 0.90659 0.55945 0.88098 0.0
C450 C 0.9297 0.56168 0.87017 0.0
C451 C 0.89811 0.55693 0.93398 0.0
C452 C 0.9365 0.55897 0.96696 0.0
C453 C 0.84141 0.58496 0.69243 0.0
N454 N 0.86507 0.59047 0.67543 0.0
C455 C 0.83373 0.60305 0.68844 0.0
C456 C 0.85043 0.62691 0.66671 0.0
C457 C 0.87449 0.63236 0.64923 0.0
C458 C 0.88151 0.6138 0.6539 0.0
C459 C 0.87652 0.57356 0.50971 0.0
C460 C 0.9075 0.57097 0.58996 0.0
C461 C 0.86951 0.57049 0.56508 0.0
N462 N 0.88494 0.56923 0.60443 0.0
C463 C 0.91515 0.57409 0.53499 0.0
C464 C 0.89952 0.57538 0.49468 0.0
C465 C 0.89353 0.53053 0.72642 0.0
C466 C 0.81173 0.50487 0.86606 0.0
C467 C 0.8592 0.50902 0.86332 0.0
C468 C 0.8383 0.48653 0.8819 0.0
C469 C 0.81443 0.48451 0.88337 0.0
N470 N 0.85653 0.52908 0.84705 0.0
C471 C 0.83307 0.52707 0.84771 0.0
Co472 Co 0.31897 0.86737 1.0088 0.0
Co473 Co 0.335 0.88127 0.14642 0.0
O474 O 0.31357 0.85857 0.08698 0.0
C475 C 0.32244 0.82492 0.95964 0.0
O476 O 0.34511 0.84215 0.94255 0.0
C477 C 0.28009 0.8558 0.18714 0.0
O478 O 0.27188 0.85189 0.1362 0.0
O479 O 0.33168 0.91055 0.11615 0.0
O480 O 0.32899 0.90321 0.0251 0.0
H481 H 0.40569 0.963 0.22396 0.0
H482 H 0.26981 0.82199 0.03858 0.0
O483 O 0.30957 0.83145 0.99037 0.0
H484 H 0.24709 0.88236 0.95796 0.0
H485 H 0.29696 0.85343 0.80689 0.0
H486 H 0.35913 0.91025 0.94501 0.0
H487 H 0.29197 0.89352 0.96554 0.0
H488 H 0.2902 0.84276 0.90551 0.0
O489 O 0.304 0.86931 0.19681 0.0
H490 H 0.37871 0.93388 0.15052 0.0
H491 H 0.3364 0.87674 0.26878 0.0
H492 H 0.36658 0.92167 0.84681 0.0
H493 H 0.22464 0.80985 0.03068 0.0
H494 H 0.33536 0.89316 0.77697 0.0
H495 H 0.21304 0.8402 0.99042 0.0
O496 O 0.35504 0.87666 0.01561 0.0
H497 H 0.30499 0.79037 0.19817 0.0
H498 H 0.37896 0.87701 0.1878 0.0
H499 H 0.38478 0.8421 0.2217 0.0
H500 H 0.34758 0.7984 0.2274 0.0
H501 H 0.3001 0.8257 0.16373 0.0
H502 H 0.36278 0.90533 0.34349 0.0
H503 H 0.39779 0.94877 0.32127 0.0
O504 O 0.36675 0.8926 0.10086 0.0
C505 C 0.33257 0.91772 0.06608 0.0
C506 C 0.39051 0.94411 0.23416 0.0
C507 C 0.3664 0.91176 0.30125 0.0
N508 N 0.35601 0.90362 0.20526 0.0
C509 C 0.37519 0.92751 0.19274 0.0
C510 C 0.35144 0.89569 0.25876 0.0
C511 C 0.38605 0.93612 0.28875 0.0
C512 C 0.26492 0.83519 0.02037 0.0
N513 N 0.28356 0.85847 1.00269 0.0
C514 C 0.2393 0.82826 0.0163 0.0
C515 C 0.23281 0.84532 0.99383 0.0
C516 C 0.25191 0.86899 0.97572 0.0
C517 C 0.27733 0.87528 0.98049 0.0
C518 C 0.31067 0.86604 0.83693 0.0
C519 C 0.34541 0.89778 0.91491 0.0
C520 C 0.30694 0.86012 0.89285 0.0
N521 N 0.3242 0.87593 0.93108 0.0
C522 C 0.34975 0.90433 0.85934 0.0
C523 C 0.33223 0.88832 0.82018 0.0
C524 C 0.37185 0.88791 0.05264 0.0
C525 C 0.32132 0.80936 0.1962 0.0
C526 C 0.36269 0.85807 0.18992 0.0
C527 C 0.3661 0.83837 0.2093 0.0
C528 C 0.34523 0.81386 0.2125 0.0
N529 N 0.33914 0.85359 0.17445 0.0
C530 C 0.31864 0.82953 0.177 0.0
Co531 Co 0.47149 0.32078 0.34935 0.0
Co532 Co 0.47165 0.3356 0.48738 0.0
O533 O 0.47382 0.31469 0.42778 0.0
C534 C 0.51762 0.32425 0.30143 0.0
O535 O 0.5235 0.34719 0.28555 0.0
C536 C 0.44217 0.28039 0.5268 0.0
O537 O 0.44016 0.27228 0.47603 0.0
O538 O 0.43949 0.33262 0.45466 0.0
O539 O 0.44541 0.33057 0.36409 0.0
H540 H 0.45944 0.40558 0.56408 0.0
H541 H 0.46729 0.27145 0.37833 0.0
O542 O 0.49819 0.31145 0.33206 0.0
H543 H 0.38529 0.24934 0.29178 0.0
H544 H 0.46564 0.30067 0.14654 0.0
H545 H 0.46981 0.36162 0.28631 0.0
H546 H 0.41888 0.29413 0.30217 0.0
H547 H 0.46829 0.29289 0.24514 0.0
O548 O 0.45154 0.30421 0.53618 0.0
H549 H 0.46288 0.37932 0.49081 0.0
H550 H 0.47548 0.33588 0.61023 0.0
H551 H 0.46711 0.37009 0.18813 0.0
H552 H 0.43441 0.22638 0.36762 0.0
H553 H 0.46502 0.3395 0.11745 0.0
H554 H 0.39299 0.21507 0.32436 0.0
O555 O 0.49831 0.35677 0.35843 0.0
H556 H 0.53174 0.30504 0.54315 0.0
H557 H 0.51901 0.3789 0.53414 0.0
H558 H 0.55911 0.38432 0.57167 0.0
H559 H 0.56563 0.34717 0.57674 0.0
H560 H 0.49218 0.30056 0.50511 0.0
H561 H 0.47192 0.3615 0.68475 0.0
H562 H 0.46395 0.39672 0.66187 0.0
O563 O 0.49308 0.36773 0.44368 0.0
C564 C 0.43377 0.33366 0.40419 0.0
C565 C 0.46295 0.39031 0.57457 0.0
C566 C 0.4699 0.36554 0.64229 0.0
N567 N 0.46941 0.3561 0.54614 0.0
C568 C 0.46497 0.37541 0.53325 0.0
C569 C 0.47178 0.35101 0.59989 0.0
C570 C 0.46546 0.38532 0.62943 0.0
C571 C 0.44944 0.2667 0.35888 0.0
N572 N 0.44503 0.28546 0.3411 0.0
C573 C 0.43083 0.24113 0.3532 0.0
C574 C 0.40758 0.23481 0.32903 0.0
C575 C 0.40323 0.25403 0.31086 0.0
C576 C 0.42227 0.27939 0.31725 0.0
C577 C 0.4665 0.31412 0.17694 0.0
C578 C 0.46885 0.34818 0.25583 0.0
C579 C 0.46797 0.30981 0.23286 0.0
N580 N 0.46914 0.32676 0.27155 0.0
C581 C 0.46734 0.35309 0.20028 0.0
C582 C 0.46617 0.33592 0.16065 0.0
C583 C 0.50359 0.37323 0.39619 0.0
C584 C 0.52907 0.32134 0.5415 0.0
C585 C 0.5217 0.36265 0.53593 0.0
C586 C 0.54445 0.36583 0.55739 0.0
C587 C 0.54809 0.34499 0.56024 0.0
N588 N 0.50297 0.33935 0.51809 0.0
C589 C 0.50657 0.31889 0.52026 0.0
Co590 Co 0.14436 0.44444 0.68987 0.0
Co591 Co 0.14637 0.46258 0.82436 0.0
O592 O 0.16079 0.4533 0.76222 0.0
C593 C 0.1966 0.48365 0.65729 0.0
O594 O 0.19719 0.49862 0.697 0.0
C595 C 0.16275 0.42728 0.87853 0.0
O596 O 0.15133 0.40966 0.84069 0.0
O597 O 0.11273 0.42976 0.81595 0.0
O598 O 0.11013 0.42754 0.72368 0.0
H599 H 0.07925 0.47292 0.92236 0.0
H600 H 0.18346 0.43069 0.71648 0.0
O601 O 0.17795 0.46112 0.65229 0.0
H602 H 0.10554 0.34941 0.676 0.0
H603 H 0.13351 0.41405 0.49342 0.0
H604 H 0.10077 0.44628 0.6398 0.0
H605 H 0.10556 0.38991 0.67006 0.0
H606 H 0.15358 0.42449 0.58522 0.0
O607 O 0.16077 0.44724 0.87783 0.0
H608 H 0.09789 0.46188 0.84438 0.0
H609 H 0.16453 0.48235 0.93804 0.0
H610 H 0.08001 0.43587 0.54874 0.0
H611 H 0.18437 0.39062 0.72241 0.0
H612 H 0.0964 0.41964 0.47476 0.0
H613 H 0.14518 0.3496 0.70218 0.0
O614 O 0.14422 0.47704 0.68742 0.0
H615 H 0.2417 0.51686 0.82957 0.0
H616 H 0.16071 0.51701 0.839 0.0
H617 H 0.20117 0.55759 0.84499 0.0
H618 H 0.24208 0.55769 0.84049 0.0
H619 H 0.2008 0.47674 0.823 0.0
H620 H 0.14651 0.49339 0.01716 0.0
H621 H 0.10362 0.4888 1.00956 0.0
O622 O 0.13346 0.48013 0.77412 0.0
C623 C 0.10016 0.4209 0.771 0.0
C624 C 0.09797 0.47503 0.92617 0.0
C625 C 0.1357 0.48648 0.97939 0.0
N626 N 0.13228 0.47149 0.88652 0.0
C627 C 0.10864 0.46883 0.8821 0.0
C628 C 0.14576 0.48009 0.93448 0.0
C629 C 0.11165 0.48392 0.97509 0.0
C630 C 0.1664 0.41292 0.70722 0.0
N631 N 0.14454 0.41264 0.69274 0.0
C632 C 0.167 0.39029 0.71081 0.0
C633 C 0.145 0.36728 0.69953 0.0
C634 C 0.12275 0.36716 0.68486 0.0
C635 C 0.12285 0.39015 0.68172 0.0
C636 C 0.12617 0.42106 0.52534 0.0
C637 C 0.10794 0.4391 0.60792 0.0
C638 C 0.13748 0.42705 0.57738 0.0
N639 N 0.12827 0.43586 0.61794 0.0
C640 C 0.09614 0.43329 0.5564 0.0
C641 C 0.10535 0.42421 0.5149 0.0
C642 C 0.13704 0.48724 0.72381 0.0
C643 C 0.22401 0.51706 0.83173 0.0
C644 C 0.17839 0.51688 0.83666 0.0
C645 C 0.20127 0.53993 0.84027 0.0
C646 C 0.22421 0.53997 0.83778 0.0
N647 N 0.17832 0.49446 0.83085 0.0
C648 C 0.20076 0.49438 0.82823 0.0
Co649 Co 0.71127 0.1516 0.01575 0.0
Co650 Co 0.69578 0.14082 0.15341 0.0
O651 O 0.71821 0.16174 0.09326 0.0
C652 C 0.71877 0.2039 1.00626 0.0
O653 O 0.70318 0.19999 0.04724 0.0
C654 C 0.75032 0.16446 0.19662 0.0
O655 O 0.75899 0.16859 0.14611 0.0
O656 O 0.69686 0.10973 0.12616 0.0
O657 O 0.69742 0.11541 0.03504 0.0
H658 H 0.62163 0.06272 0.23341 0.0
H659 H 0.76305 0.19309 0.04409 0.0
O660 O 0.72473 0.18739 0.99241 0.0
H661 H 0.77519 0.12519 0.96464 0.0
H662 H 0.73034 0.1602 0.81269 0.0
H663 H 0.66781 0.10985 0.95581 0.0
H664 H 0.73229 0.11972 0.97247 0.0
H665 H 0.73944 0.17236 0.91043 0.0
O666 O 0.72628 0.15155 0.20501 0.0
H667 H 0.64987 0.08969 0.15926 0.0
H668 H 0.69447 0.14759 0.27518 0.0
H669 H 0.65803 0.09691 0.85855 0.0
H670 H 0.8064 0.19959 0.0361 0.0
H671 H 0.68942 0.12217 0.7862 0.0
H672 H 0.81267 0.16542 0.99641 0.0
O673 O 0.67681 0.14731 0.02228 0.0
H674 H 0.73125 0.23365 0.19719 0.0
H675 H 0.6539 0.14918 0.19203 0.0
H676 H 0.65084 0.18632 0.2217 0.0
H677 H 0.68974 0.22895 0.22476 0.0
H678 H 0.73339 0.19614 0.167 0.0
H679 H 0.66686 0.12113 0.35059 0.0
H680 H 0.63006 0.07841 0.3299 0.0
O681 O 0.66449 0.1308 0.10674 0.0
C682 C 0.69422 0.10143 0.07651 0.0
C683 C 0.63758 0.08132 0.24294 0.0
C684 C 0.66299 0.11408 0.30872 0.0
N685 N 0.67379 0.12021 0.21278 0.0
C686 C 0.65362 0.0967 0.20111 0.0
C687 C 0.67864 0.12893 0.26584 0.0
C688 C 0.64234 0.09012 0.29708 0.0
C689 C 0.76564 0.1782 0.02641 0.0
N690 N 0.7451 0.15594 1.00929 0.0
C691 C 0.79022 0.18196 0.02217 0.0
C692 C 0.79372 0.16277 0.99998 0.0
C693 C 0.7727 0.14017 0.98227 0.0
C694 C 0.7484 0.13708 0.98721 0.0
C695 C 0.71654 0.149 0.84384 0.0
C696 C 0.68164 0.12085 0.92461 0.0
C697 C 0.72157 0.1558 0.89929 0.0
N698 N 0.70427 0.14169 0.93891 0.0
C699 C 0.67597 0.11347 0.86959 0.0
C700 C 0.69358 0.12766 0.82901 0.0
C701 C 0.65988 0.13679 0.05936 0.0
C702 C 0.71419 0.21514 0.19643 0.0
C703 C 0.67092 0.16762 0.19309 0.0
C704 C 0.66907 0.18861 0.21005 0.0
C705 C 0.69089 0.21251 0.21177 0.0
N706 N 0.69387 0.17026 0.17855 0.0
C707 C 0.71531 0.19372 0.1797 0.0
H708 H 0.36019 0.39925 0.21416 0.0
H709 H 0.40908 0.35206 0.47041 0.0
H710 H 0.33869 0.4017 0.38241 0.0
H711 H 0.41493 0.33329 0.30158 0.0
H712 H 0.38266 0.36983 0.43925 0.0
H713 H 0.3798 0.37442 0.24482 0.0
C714 C 0.35915 0.39427 0.25719 0.0
C715 C 0.34775 0.40282 0.29546 0.0
C716 C 0.38954 0.36153 0.40918 0.0
C717 C 0.37068 0.37478 0.33124 0.0
C718 C 0.40453 0.35124 0.4271 0.0
C719 C 0.41447 0.34112 0.38889 0.0
C720 C 0.38458 0.36196 0.35255 0.0
C721 C 0.40797 0.34092 0.33296 0.0
C722 C 0.3705 0.38019 0.27484 0.0
C723 C 0.34731 0.39582 0.35103 0.0
N724 N 0.39379 0.35136 0.31662 0.0
N725 N 0.35878 0.38257 0.36713 0.0
H726 H 0.94523 0.30655 0.67935 0.0
H727 H 0.06685 0.4377 0.76386 0.0
H728 H 0.96425 0.37791 0.60399 0.0
H729 H 0.07088 0.36901 0.7648 0.0
H730 H 0.02424 0.41412 0.72323 0.0
H731 H 0.98749 0.32703 0.72328 0.0
C732 C 0.95864 0.3263 0.67044 0.0
C733 C 0.95144 0.34033 0.63641 0.0
C734 C 0.03414 0.40402 0.73364 0.0
C735 C 0.99912 0.36426 0.68958 0.0
C736 C 0.0582 0.41733 0.7582 0.0
C737 C 0.0721 0.40513 0.76979 0.0
C738 C 0.02366 0.37815 0.72059 0.0
C739 C 0.06045 0.37894 0.7585 0.0
C740 C 0.98259 0.33804 0.69615 0.0
C741 C 0.96923 0.36613 0.62819 0.0
N742 N 0.03692 0.3663 0.73454 0.0
N743 N 0.99199 0.37732 0.6552 0.0
H744 H 0.62584 0.96084 0.89159 0.0
H745 H 0.67421 0.05901 0.14556 0.0
H746 H 0.6208 0.93709 0.06063 0.0
H747 H 0.69309 0.081 0.97566 0.0
H748 H 0.65505 0.01416 0.11665 0.0
H749 H 0.65131 1.00519 0.92221 0.0
C750 C 0.63038 0.96481 0.93487 0.0
C751 C 0.62095 0.94495 0.97327 0.0
C752 C 0.66372 0.02895 0.08596 0.0
C753 C 0.64974 0.99592 1.00908 0.0
C754 C 0.67477 0.05458 0.10258 0.0
C755 C 0.68541 0.07412 0.06334 0.0
C756 C 0.66312 0.0228 0.02969 0.0
C757 C 0.68523 0.06694 1.0079 0.0
C758 C 0.64483 0.99021 0.95252 0.0
C759 C 0.62741 0.95156 0.02916 0.0
N760 N 0.67416 0.04211 0.99293 0.0
N761 N 0.64106 0.97633 0.04529 0.0
H762 H 0.67765 0.62459 0.22323 0.0
H763 H 0.62904 0.67509 0.47378 0.0
H764 H 0.70097 0.62661 0.39193 0.0
H765 H 0.62356 0.69259 0.30397 0.0
H766 H 0.65566 0.6573 0.44448 0.0
H767 H 0.6578 0.64968 0.25098 0.0
C768 C 0.67905 0.63061 0.26568 0.0
C769 C 0.69105 0.62325 0.30502 0.0
C770 C 0.64882 0.66532 0.41377 0.0
C771 C 0.66788 0.65153 0.33743 0.0
C772 C 0.63371 0.67562 0.43062 0.0
C773 C 0.62381 0.68536 0.39158 0.0
C774 C 0.65389 0.66444 0.35738 0.0
C775 C 0.63048 0.68522 0.33592 0.0
C776 C 0.66758 0.64483 0.28166 0.0
C777 C 0.69193 0.63154 0.35977 0.0
N778 N 0.64474 0.67471 0.32057 0.0
N779 N 0.68033 0.64487 0.37426 0.0
H780 H 0.94401 0.63742 0.66439 0.0
H781 H 0.07345 0.63558 0.65317 0.0
H782 H 0.96705 0.60306 0.78973 0.0
H783 H 0.06908 0.69769 0.57975 0.0
H784 H 0.03113 0.61957 0.69204 0.0
H785 H 0.98709 0.65779 0.62598 0.0
C786 C 0.95827 0.63465 0.68479 0.0
C787 C 0.95172 0.61839 0.7306 0.0
C788 C 0.03919 0.63652 0.6669 0.0
C789 C 1.00094 0.64095 0.68517 0.0
C790 C 0.06319 0.64546 0.64388 0.0
C791 C 0.0747 0.6678 0.61242 0.0
C792 C 0.02616 0.64982 0.65831 0.0
C793 C 0.0607 0.68009 0.60264 0.0
C794 C 0.98283 0.64617 0.66246 0.0
C795 C 0.97107 0.61545 0.75479 0.0
N796 N 0.03709 0.67092 0.62555 0.0
N797 N 0.99458 0.62617 0.73121 0.0
H798 H 0.35236 0.96004 0.13473 0.0
H799 H 0.40502 0.06022 0.88589 0.0
H800 H 0.33324 0.93778 0.96472 0.0
H801 H 0.40843 0.08099 0.05708 0.0
H802 H 0.37825 0.01523 0.91246 0.0
H803 H 0.37246 1.0047 0.1064 0.0
C804 C 0.35195 0.96441 0.09171 0.0
C805 C 0.34106 0.94486 0.05235 0.0
C806 C 0.3847 0.0298 0.94395 0.0
C807 C 0.36466 0.9962 0.01914 0.0
C808 C 0.3999 0.05552 0.92868 0.0
C809 C 0.40918 0.07475 0.96896 0.0
C810 C 0.3789 0.02324 0.99991 0.0
C811 C 0.40197 0.06719 0.02405 0.0
C812 C 0.3636 0.98998 0.07537 0.0
C813 C 0.34145 0.952 0.99688 0.0
N814 N 0.3876 0.04228 0.03771 0.0
N815 N 0.35325 0.97692 0.98199 0.0
H816 H 0.16258 0.3845 0.91893 0.0
H817 H 0.29637 0.46095 0.07199 0.0
H818 H 0.20326 0.46625 0.93232 0.0
H819 H 0.23771 0.39006 0.13923 0.0
H820 H 0.26559 0.46004 1.00555 0.0
H821 H 0.19255 0.38311 0.98567 0.0
C822 C 0.17775 0.40213 0.93575 0.0
C823 C 0.1802 0.42553 0.91991 0.0
C824 C 0.25949 0.44458 0.03458 0.0
C825 C 0.21501 0.42405 0.99523 0.0
C826 C 0.27712 0.44497 0.07244 0.0
C827 C 0.26977 0.42552 0.11163 0.0
C828 C 0.23427 0.4243 0.03446 0.0
C829 C 0.24433 0.40548 0.10999 0.0
C830 C 0.1948 0.4013 0.97393 0.0
C831 C 0.20037 0.44774 0.94329 0.0
N832 N 0.22758 0.40528 0.07192 0.0
N833 N 0.21704 0.44646 0.97899 0.0
H834 H 0.82047 0.2272 0.51682 0.0
H835 H 0.80016 0.20301 0.19089 0.0
H836 H 0.86714 0.28367 0.39707 0.0
H837 H 0.74135 0.15933 0.30904 0.0
H838 H 0.82787 0.22913 0.26606 0.0
H839 H 0.7947 0.19896 0.44194 0.0
C840 C 0.82559 0.23363 0.47481 0.0
C841 C 0.84622 0.25804 0.46368 0.0
C842 C 0.80897 0.21374 0.27564 0.0
C843 C 0.81642 0.22541 0.377 0.0
C844 C 0.79309 0.19861 0.23266 0.0
C845 C 0.76819 0.17872 0.24321 0.0
C846 C 0.80023 0.20893 0.33023 0.0
C847 C 0.7603 0.17434 0.29855 0.0
C848 C 0.81067 0.21745 0.43197 0.0
C849 C 0.85153 0.26512 0.40801 0.0
N850 N 0.7762 0.18922 0.33975 0.0
N851 N 0.83683 0.24895 0.36701 0.0
H852 H 0.59243 0.86407 0.72278 0.0
H853 H 0.59329 0.73664 0.63971 0.0
H854 H 0.60359 0.81781 0.8412 0.0
H855 H 0.60369 0.79379 0.52132 0.0
H856 H 0.59557 0.76521 0.71391 0.0
H857 H 0.59506 0.83799 0.64857 0.0
C858 C 0.59567 0.84862 0.73331 0.0
C859 C 0.59788 0.84335 0.78873 0.0
C860 C 0.59757 0.77159 0.67172 0.0
C861 C 0.60045 0.8129 0.70337 0.0
C862 C 0.59629 0.75525 0.62919 0.0
C863 C 0.59839 0.76269 0.57378 0.0
C864 C 0.60056 0.79555 0.65914 0.0
C865 C 0.60212 0.78713 0.56317 0.0
C866 C 0.59715 0.83367 0.69077 0.0
C867 C 0.60193 0.82285 0.79935 0.0
N868 N 0.60285 0.80247 0.60516 0.0
N869 N 0.60284 0.80834 0.75736 0.0
H870 H 0.74269 0.59041 0.06014 0.0
H871 H 0.87058 0.59169 0.97241 0.0
H872 H 0.80298 0.60627 0.17522 0.0
H873 H 0.82204 0.60015 0.85513 0.0
H874 H 0.84523 0.59496 0.04735 0.0
H875 H 0.77032 0.59185 0.98477 0.0
C876 C 0.76178 0.59443 0.06966 0.0
C877 C 0.7704 0.59834 0.12449 0.0
C878 C 0.84026 0.59632 1.00521 0.0
C879 C 0.80217 0.59952 0.03791 0.0
C880 C 0.85478 0.59447 0.96227 0.0
C881 C 0.84866 0.59575 0.90697 0.0
C882 C 0.81905 0.59902 0.99315 0.0
C883 C 0.82774 0.59923 0.89686 0.0
C884 C 0.77758 0.59523 0.02648 0.0
C885 C 0.7954 0.6033 0.13384 0.0
N886 N 0.81365 0.60049 0.93925 0.0
N887 N 0.81021 0.60351 0.09132 0.0
H888 H 0.20742 0.79121 0.50321 0.0
H889 H 0.23112 0.8156 0.17852 0.0
H890 H 0.16471 0.73316 0.38217 0.0
H891 H 0.28779 0.86091 0.30001 0.0
H892 H 0.20326 0.78855 0.25217 0.0
H893 H 0.23327 0.81983 0.42943 0.0
C894 C 0.20318 0.78449 0.4611 0.0
C895 C 0.18362 0.75953 0.44932 0.0
C896 C 0.22171 0.80449 0.2628 0.0
C897 C 0.21353 0.79266 0.36386 0.0
C898 C 0.23767 0.82015 0.22069 0.0
C899 C 0.26202 0.84081 0.23266 0.0
C900 C 0.22981 0.80954 0.31789 0.0
C901 C 0.26927 0.84534 0.28844 0.0
C902 C 0.21816 0.8009 0.41891 0.0
C903 C 0.17945 0.75212 0.39358 0.0
N904 N 0.25329 0.82995 0.32874 0.0
N905 N 0.19416 0.76856 0.35315 0.0
H906 H 0.44081 0.16065 0.72684 0.0
H907 H 0.44164 0.28841 0.63898 0.0
H908 H 0.42834 0.20734 0.84224 0.0
H909 H 0.4334 0.23136 0.52171 0.0
H910 H 0.43828 0.25986 0.71393 0.0
H911 H 0.43959 0.18685 0.6514 0.0
C912 C 0.43758 0.17621 0.73645 0.0
C913 C 0.43458 0.18157 0.79143 0.0
C914 C 0.437 0.2535 0.67179 0.0
C915 C 0.43363 0.21216 0.70466 0.0
C916 C 0.43889 0.26983 0.62882 0.0
C917 C 0.43772 0.26242 0.5735 0.0
C918 C 0.43428 0.22956 0.65979 0.0
C919 C 0.43427 0.23802 0.56344 0.0
C920 C 0.43692 0.19124 0.69321 0.0
C921 C 0.43061 0.20223 0.80079 0.0
N922 N 0.43291 0.22268 0.60586 0.0
N923 N 0.43047 0.21678 0.7582 0.0
H924 H 0.18846 0.47107 0.54975 0.0
H925 H 0.33426 0.53001 0.4796 0.0
H926 H 0.24794 0.51841 0.66416 0.0
H927 H 0.27288 0.48769 0.36481 0.0
H928 H 0.30428 0.53299 0.54184 0.0
H929 H 0.21982 0.48324 0.47724 0.0
C930 C 0.20825 0.48411 0.55955 0.0
C931 C 0.21577 0.4933 0.61324 0.0
C932 C 0.2975 0.52354 0.50252 0.0
C933 C 0.252 0.50732 0.53011 0.0
C934 C 0.31463 0.52193 0.46673 0.0
C935 C 0.30594 0.50806 0.41739 0.0
C936 C 0.27157 0.51116 0.4888 0.0
C937 C 0.28036 0.49817 0.40283 0.0
C938 C 0.22617 0.49122 0.51794 0.0
C939 C 0.2415 0.51071 0.62331 0.0
N940 N 0.26401 0.49954 0.4388 0.0
N941 N 0.25886 0.51682 0.58221 0.0
H942 H 0.79131 0.27647 0.71871 0.0
H943 H 0.74782 0.255 0.02814 0.0
H944 H 0.82292 0.33663 0.83988 0.0
H945 H 0.70869 0.20081 0.89826 0.0
H946 H 0.77034 0.28808 0.95836 0.0
H947 H 0.75588 0.25136 0.78052 0.0
C948 C 0.79052 0.28461 0.75786 0.0
C949 C 0.81032 0.30847 0.7745 0.0
C950 C 0.75627 0.26912 0.94516 0.0
C951 C 0.77012 0.27962 0.84623 0.0
C952 C 0.74334 0.25037 0.98501 0.0
C953 C 0.72665 0.22532 0.96851 0.0
C954 C 0.75249 0.26245 0.88895 0.0
C955 C 0.72165 0.22 0.9123 0.0
C956 C 0.77029 0.27026 0.79329 0.0
C957 C 0.80819 0.31818 0.82555 0.0
N958 N 0.7348 0.23829 0.87452 0.0
N959 N 0.78877 0.30348 0.86016 0.0
H960 H 0.48928 0.81219 0.15323 0.0
H961 H 0.51849 0.74253 0.33131 0.0
H962 H 0.52246 0.78317 0.03725 0.0
H963 H 0.49755 0.68817 0.1988 0.0
H964 H 0.50855 0.76889 0.27204 0.0
H965 H 0.48075 0.77731 0.21543 0.0
C966 C 0.49423 0.79817 0.14015 0.0
C967 C 0.50709 0.80088 0.09035 0.0
C968 C 0.50531 0.75076 0.25663 0.0
C969 C 0.49756 0.76121 0.1616 0.0
C970 C 0.51109 0.7358 0.29034 0.0
C971 C 0.5089 0.71319 0.26991 0.0
C972 C 0.49782 0.74327 0.20185 0.0
C973 C 0.49944 0.70543 0.21631 0.0
C974 C 0.48955 0.77843 0.176 0.0
C975 C 0.51287 0.78201 0.07559 0.0
N976 N 0.49491 0.7208 0.18358 0.0
N977 N 0.50827 0.76305 0.11139 0.0
H978 H 0.70928 0.51721 0.47157 0.0
H979 H 0.82185 0.49016 0.53376 0.0
H980 H 0.75077 0.50333 0.34564 0.0
H981 H 0.79167 0.52236 0.64931 0.0
H982 H 0.78695 0.48113 0.47078 0.0
H983 H 0.72974 0.50474 0.54152 0.0
C984 C 0.72217 0.51072 0.45871 0.0
C985 C 0.72851 0.51128 0.40315 0.0
C986 C 0.78767 0.48964 0.51044 0.0
C987 C 0.75259 0.49784 0.48275 0.0
C988 C 0.80753 0.49473 0.54663 0.0
C989 C 0.80998 0.50754 0.59649 0.0
C990 C 0.77009 0.49727 0.52443 0.0
C991 C 0.79076 0.51284 0.61095 0.0
C992 C 0.73395 0.50378 0.49858 0.0
C993 C 0.7454 0.50297 0.38824 0.0
N994 N 0.77183 0.50801 0.57473 0.0
N995 N 0.7573 0.49701 0.42807 0.0
H996 H 0.25531 0.73435 0.67866 0.0
H997 H 0.27699 0.78321 0.98659 0.0
H998 H 0.19761 0.70674 0.80438 0.0
H999 H 0.33716 0.81058 0.86614 0.0
H1000 H 0.25047 0.74762 0.92602 0.0
H1001 H 0.288 0.75516 0.75061 0.0
C1002 C 0.24965 0.73222 0.72146 0.0
C1003 C 0.22389 0.71949 0.73586 0.0
C1004 C 0.26965 0.76112 0.91313 0.0
C1005 C 0.26068 0.74296 0.81771 0.0
C1006 C 0.28482 0.78142 0.9479 0.0
C1007 C 0.30907 0.8002 0.93085 0.0
C1008 C 0.2786 0.75989 0.86048 0.0
C1009 C 0.31839 0.79673 0.88059 0.0
C1010 C 0.2682 0.74407 0.76246 0.0
C1011 C 0.21734 0.71703 0.79168 0.0
N1012 N 0.30291 0.77732 0.84651 0.0
N1013 N 0.23556 0.72894 0.83046 0.0
H1014 H 0.53329 0.25514 1.01483 0.0
H1015 H 0.5135 0.27846 0.32611 0.0
H1016 H 0.5101 0.19887 0.14258 0.0
H1017 H 0.54473 0.33843 0.20539 0.0
H1018 H 0.52102 0.25161 0.2633 0.0
H1019 H 0.54623 0.2883 0.08605 0.0
C1020 C 0.53168 0.24995 0.05784 0.0
C1021 C 0.52037 0.2244 0.07324 0.0
C1022 C 0.52672 0.27082 0.25081 0.0
C1023 C 0.5346 0.2617 0.15434 0.0
C1024 C 0.52248 0.28618 0.28687 0.0
C1025 C 0.52806 0.31054 0.27064 0.0
C1026 C 0.53611 0.27966 0.19766 0.0
C1027 C 0.53988 0.31965 0.21943 0.0
C1028 C 0.53891 0.26876 0.09847 0.0
C1029 C 0.51844 0.21843 0.1293 0.0
N1030 N 0.54296 0.304 0.1842 0.0
N1031 N 0.52513 0.23687 0.16778 0.0
H1032 H 0.41844 0.51566 0.23188 0.0
H1033 H 0.50726 0.61253 0.46629 0.0
H1034 H 0.39434 0.51211 0.40032 0.0
H1035 H 0.51684 0.6304 0.29309 0.0
H1036 H 0.47073 0.5708 0.44415 0.0
H1037 H 0.4594 0.55284 0.25565 0.0
C1038 C 0.42172 0.52253 0.27387 0.0
C1039 C 0.40254 0.511 0.31375 0.0
C1040 C 0.48099 0.58384 0.41106 0.0
C1041 C 0.4497 0.55335 0.34144 0.0
C1042 C 0.5019 0.60768 0.42364 0.0
C1043 C 0.51493 0.62533 0.38168 0.0
C1044 C 0.4733 0.57736 0.35602 0.0
C1045 C 0.50719 0.61766 0.327 0.0
C1046 C 0.44515 0.54378 0.28739 0.0
C1047 C 0.40828 0.52059 0.36784 0.0
N1048 N 0.48687 0.59435 0.31582 0.0
N1049 N 0.43125 0.54122 0.38 0.0
H1050 H 0.89733 0.51301 0.62456 0.0
H1051 H 0.89741 0.39093 0.74393 0.0
H1052 H 0.90296 0.50107 0.79782 0.0
H1053 H 0.90194 0.40779 0.57047 0.0
H1054 H 0.902 0.43233 0.76432 0.0
H1055 H 0.90158 0.47601 0.60387 0.0
C1056 C 0.89957 0.50272 0.65835 0.0
C1057 C 0.89929 0.51001 0.71319 0.0
C1058 C 0.90217 0.42707 0.72179 0.0
C1059 C 0.90416 0.46739 0.68954 0.0
C1060 C 0.89948 0.40334 0.71002 0.0
C1061 C 0.8988 0.39552 0.65523 0.0
C1062 C 0.90405 0.4432 0.67856 0.0
C1063 C 0.90203 0.41275 0.61327 0.0
C1064 C 0.90207 0.48157 0.64641 0.0
C1065 C 0.90274 0.49608 0.75499 0.0
N1066 N 0.90421 0.43562 0.62578 0.0
N1067 N 0.90473 0.47531 0.74233 0.0
H1068 H 0.51451 0.89111 0.06905 0.0
H1069 H 0.39212 0.88973 0.95091 0.0
H1070 H 0.50466 0.90017 0.8963 0.0
H1071 H 0.41223 0.90104 0.12318 0.0
H1072 H 0.4337 0.89491 0.9299 0.0
H1073 H 0.47799 0.89612 0.08966 0.0
C1074 C 0.5048 0.89432 0.03534 0.0
C1075 C 0.51251 0.89475 0.98061 0.0
C1076 C 0.42914 0.8965 0.97226 0.0
C1077 C 0.47034 0.90036 1.00421 0.0
C1078 C 0.4053 0.89346 0.98442 0.0
C1079 C 0.39833 0.89444 0.03918 0.0
C1080 C 0.44618 0.90029 0.01512 0.0
C1081 C 0.41651 0.89975 0.08052 0.0
C1082 C 0.48393 0.89726 0.04727 0.0
C1083 C 0.4993 0.89937 0.93897 0.0
N1084 N 0.43942 0.9021 0.06774 0.0
N1085 N 0.47865 0.90161 0.95155 0.0
H1086 H 0.64622 0.51373 0.416 0.0
H1087 H 0.52203 0.39494 0.29575 0.0
H1088 H 0.62295 0.50908 0.24647 0.0
H1089 H 0.53208 0.41215 0.46946 0.0
H1090 H 0.55901 0.43644 0.27694 0.0
H1091 H 0.60495 0.47659 0.43678 0.0
C1092 C 0.63244 0.50505 0.3831 0.0
C1093 C 0.63837 0.51447 0.32908 0.0
C1094 C 0.55301 0.43125 0.31917 0.0
C1095 C 0.59099 0.47163 0.35281 0.0
C1096 C 0.53188 0.40748 0.33006 0.0
C1097 C 0.52403 0.39973 0.38448 0.0
C1098 C 0.56679 0.44744 0.36297 0.0
C1099 C 0.5375 0.41707 0.42697 0.0
C1100 C 0.60881 0.48384 0.39514 0.0
C1101 C 0.61951 0.50241 0.2885 0.0
N1102 N 0.55842 0.43993 0.41539 0.0
N1103 N 0.59685 0.48147 0.30104 0.0
H1104 H 0.1405 0.63066 0.73239 0.0
H1105 H 0.14105 0.50765 0.62069 0.0
H1106 H 0.13191 0.61105 0.55979 0.0
H1107 H 0.12539 0.51683 0.78989 0.0
H1108 H 0.13917 0.5458 0.59687 0.0
H1109 H 0.13662 0.58972 0.75369 0.0
C1110 C 0.13775 0.61777 0.69882 0.0
C1111 C 0.13682 0.6246 0.644 0.0
C1112 C 0.13599 0.53934 0.63912 0.0
C1113 C 0.13253 0.57742 0.66845 0.0
C1114 C 0.13709 0.51754 0.65286 0.0
C1115 C 0.1337 0.50904 0.70764 0.0
C1116 C 0.13176 0.55299 0.68047 0.0
C1117 C 0.12847 0.5227 0.74727 0.0
C1118 C 0.13546 0.59428 0.71114 0.0
C1119 C 0.13299 0.60681 0.60256 0.0
N1120 N 0.12794 0.54407 0.73302 0.0
N1121 N 0.13127 0.58418 0.61556 0.0
H1122 H 0.61995 0.12327 0.13113 0.0
H1123 H 0.5245 0.12372 0.90466 0.0
H1124 H 0.64014 0.1399 0.95984 0.0
H1125 H 0.5204 0.13934 0.0766 0.0
H1126 H 0.56247 0.12077 0.92429 0.0
H1127 H 0.57901 0.12031 0.11142 0.0
C1128 C 0.61583 0.1262 0.08937 0.0
C1129 C 0.63386 0.13231 0.04735 0.0
C1130 C 0.55315 0.12474 0.95768 0.0
C1131 C 0.58666 0.1284 0.02438 0.0
C1132 C 0.53142 0.12643 0.94655 0.0
C1133 C 0.51935 0.13226 0.98879 0.0
C1134 C 0.56266 0.12837 1.01164 0.0
C1135 C 0.52915 0.13512 0.04248 0.0
C1136 C 0.5924 0.1245 0.07819 0.0
C1137 C 0.62705 0.13545 0.9938 0.0
N1138 N 0.55018 0.13316 0.05232 0.0
N1139 N 0.60406 0.13348 0.9839 0.0
loop_
_geom_bond_atom_site_label_1
_geom_bond_atom_site_label_2
_geom_bond_distance
_geom_bond_site_symmetry_2
_ccdc_geom_bond_type
Co0 O2 2.143 . S
Co0 O8 2.074 . S
Co0 O11 2.093 . S
Co0 O24 2.097 . S
Co0 N41 2.151 . S
Co0 N49 2.214 . S
Co1 O2 2.160 . S
Co1 O7 2.058 . S
Co1 O17 2.057 . S
Co1 O32 2.037 . S
Co1 N36 2.145 . S
Co1 N57 2.257 . S
O2 Co0 2.143 . S
O2 Co1 2.160 . S
C3 O4 1.278 . S
C3 O11 1.224 . S
O4 C3 1.278 . S
C5 O6 1.245 . S
C5 O17 1.232 . S
O6 C5 1.245 . S
O7 Co1 2.058 . S
O7 C33 1.269 . S
O8 Co0 2.074 . S
O8 C33 1.257 . S
H9 C34 0.930 . S
H10 C40 0.930 . S
O11 Co0 2.093 . S
O11 C3 1.224 . S
H12 C44 0.929 . S
H13 C46 0.930 . S
H14 C47 0.930 . S
H15 C45 0.929 . S
H16 C48 0.928 . S
O17 Co1 2.057 . S
O17 C5 1.232 . S
H18 C37 0.929 . S
H19 C38 0.929 . S
H20 C50 0.931 . S
H21 C42 0.929 . S
H22 C51 0.930 . S
H23 C43 0.931 . S
O24 Co0 2.097 . S
O24 C52 1.214 . S
H25 C53 0.929 . S
H26 C54 0.929 . S
H27 C55 0.930 . S
H28 C56 0.929 . S
H29 C58 0.930 . S
H30 C35 0.930 . S
H31 C39 0.930 . S
O32 Co1 2.037 . S
O32 C52 1.234 . S
C33 O7 1.269 . S
C33 O8 1.257 . S
C34 H9 0.930 . S
C34 C37 1.388 . S
C34 C39 1.418 . S
C35 H30 0.930 . S
C35 C38 1.404 . S
C35 C39 1.353 . S
N36 Co1 2.145 . S
N36 C37 1.397 . S
N36 C38 1.334 . S
C37 H18 0.929 . S
C37 C34 1.388 . S
C37 N36 1.397 . S
C38 H19 0.929 . S
C38 C35 1.404 . S
C38 N36 1.334 . S
C39 H31 0.930 . S
C39 C34 1.418 . S
C39 C35 1.353 . S
C40 H10 0.930 . S
C40 N41 1.330 . S
C40 C42 1.446 . S
N41 Co0 2.151 . S
N41 C40 1.330 . S
N41 C45 1.418 . S
C42 H21 0.929 . S
C42 C40 1.446 . S
C42 C43 1.332 . S
C43 H23 0.931 . S
C43 C42 1.332 . S
C43 C44 1.267 . S
C44 H12 0.929 . S
C44 C43 1.267 . S
C44 C45 1.251 . S
C45 H15 0.929 . S
C45 N41 1.418 . S
C45 C44 1.251 . S
C46 H13 0.930 . S
C46 C48 1.406 . S
C46 C51 1.261 . S
C47 H14 0.930 . S
C47 N49 1.325 . S
C47 C50 1.357 . S
C48 H16 0.928 . S
C48 C46 1.406 . S
C48 N49 1.261 . S
N49 Co0 2.214 . S
N49 C47 1.325 . S
N49 C48 1.261 . S
C50 H20 0.931 . S
C50 C47 1.357 . S
C50 C51 1.312 . S
C51 H22 0.930 . S
C51 C46 1.261 . S
C51 C50 1.312 . S
C52 O24 1.214 . S
C52 O32 1.234 . S
C53 H25 0.929 . S
C53 C56 1.391 . S
C53 C58 1.391 . S
C54 H26 0.929 . S
C54 C55 1.390 . S
C54 N57 1.391 . S
C55 H27 0.930 . S
C55 C54 1.390 . S
C55 C56 1.392 . S
C56 H28 0.929 . S
C56 C53 1.391 . S
C56 C55 1.392 . S
N57 Co1 2.257 . S
N57 C54 1.391 . S
N57 C58 1.388 . S
C58 H29 0.930 . S
C58 C53 1.391 . S
C58 N57 1.388 . S
Co59 O61 2.143 . S
Co59 O67 2.074 . S
Co59 O70 2.093 . S
Co59 O83 2.097 . S
Co59 N100 2.151 . S
Co59 N108 2.214 . S
Co60 O61 2.160 . S
Co60 O66 2.058 . S
Co60 O76 2.057 . S
Co60 O91 2.037 . S
Co60 N95 2.145 . S
Co60 N116 2.257 . S
O61 Co59 2.143 . S
O61 Co60 2.160 . S
C62 O63 1.278 . S
C62 O70 1.224 . S
O63 C62 1.278 . S
C64 O65 1.245 . S
C64 O76 1.232 . S
O65 C64 1.245 . S
O66 Co60 2.058 . S
O66 C92 1.269 . S
O67 Co59 2.074 . S
O67 C92 1.257 . S
H68 C93 0.930 . S
H69 C99 0.930 . S
O70 Co59 2.093 . S
O70 C62 1.224 . S
H71 C103 0.929 . S
H72 C105 0.930 . S
H73 C106 0.930 . S
H74 C104 0.929 . S
H75 C107 0.928 . S
O76 Co60 2.057 . S
O76 C64 1.232 . S
H77 C96 0.929 . S
H78 C97 0.929 . S
H79 C109 0.931 . S
H80 C101 0.929 . S
H81 C110 0.930 . S
H82 C102 0.931 . S
O83 Co59 2.097 . S
O83 C111 1.214 . S
H84 C112 0.929 . S
H85 C113 0.929 . S
H86 C114 0.930 . S
H87 C115 0.929 . S
H88 C117 0.930 . S
H89 C94 0.930 . S
H90 C98 0.930 . S
O91 Co60 2.037 . S
O91 C111 1.234 . S
C92 O66 1.269 . S
C92 O67 1.257 . S
C93 H68 0.930 . S
C93 C96 1.388 . S
C93 C98 1.418 . S
C94 H89 0.930 . S
C94 C97 1.404 . S
C94 C98 1.353 . S
N95 Co60 2.145 . S
N95 C96 1.397 . S
N95 C97 1.334 . S
C96 H77 0.929 . S
C96 C93 1.388 . S
C96 N95 1.397 . S
C97 H78 0.929 . S
C97 C94 1.404 . S
C97 N95 1.334 . S
C98 H90 0.930 . S
C98 C93 1.418 . S
C98 C94 1.353 . S
C99 H69 0.930 . S
C99 N100 1.330 . S
C99 C101 1.446 . S
N100 Co59 2.151 . S
N100 C99 1.330 . S
N100 C104 1.418 . S
C101 H80 0.929 . S
C101 C99 1.446 . S
C101 C102 1.332 . S
C102 H82 0.931 . S
C102 C101 1.332 . S
C102 C103 1.267 . S
C103 H71 0.929 . S
C103 C102 1.267 . S
C103 C104 1.251 . S
C104 H74 0.929 . S
C104 N100 1.418 . S
C104 C103 1.251 . S
C105 H72 0.930 . S
C105 C107 1.406 . S
C105 C110 1.261 . S
C106 H73 0.930 . S
C106 N108 1.325 . S
C106 C109 1.357 . S
C107 H75 0.928 . S
C107 C105 1.406 . S
C107 N108 1.261 . S
N108 Co59 2.214 . S
N108 C106 1.325 . S
N108 C107 1.261 . S
C109 H79 0.931 . S
C109 C106 1.357 . S
C109 C110 1.312 . S
C110 H81 0.930 . S
C110 C105 1.261 . S
C110 C109 1.312 . S
C111 O83 1.214 . S
C111 O91 1.234 . S
C112 H84 0.929 . S
C112 C115 1.391 . S
C112 C117 1.391 . S
C113 H85 0.929 . S
C113 C114 1.390 . S
C113 N116 1.391 . S
C114 H86 0.930 . S
C114 C113 1.390 . S
C114 C115 1.392 . S
C115 H87 0.929 . S
C115 C112 1.391 . S
C115 C114 1.392 . S
N116 Co60 2.257 . S
N116 C113 1.391 . S
N116 C117 1.388 . S
C117 H88 0.930 . S
C117 C112 1.391 . S
C117 N116 1.388 . S
Co118 O120 2.143 1_554 S
Co118 O126 2.074 1_554 S
Co118 O129 2.093 . S
Co118 O142 2.097 . S
Co118 N159 2.151 . S
Co118 N167 2.214 . S
Co119 O120 2.160 . S
Co119 O125 2.058 . S
Co119 O135 2.057 . S
Co119 O150 2.037 . S
Co119 N154 2.145 . S
Co119 N175 2.257 . S
O120 Co118 2.143 1_556 S
O120 Co119 2.160 . S
C121 O122 1.278 1_554 S
C121 O129 1.224 . S
O122 C121 1.278 1_556 S
C123 O124 1.245 . S
C123 O135 1.232 . S
O124 C123 1.245 . S
O125 Co119 2.058 . S
O125 C151 1.269 . S
O126 Co118 2.074 1_556 S
O126 C151 1.257 . S
H127 C152 0.930 . S
H128 C158 0.930 . S
O129 Co118 2.093 . S
O129 C121 1.224 . S
H130 C162 0.929 . S
H131 C164 0.930 . S
H132 C165 0.930 . S
H133 C163 0.929 . S
H134 C166 0.928 . S
O135 Co119 2.057 . S
O135 C123 1.232 . S
H136 C155 0.929 . S
H137 C156 0.929 . S
H138 C168 0.931 . S
H139 C160 0.929 . S
H140 C169 0.930 . S
H141 C161 0.931 . S
O142 Co118 2.097 . S
O142 C170 1.214 1_554 S
H143 C171 0.929 . S
H144 C172 0.929 . S
H145 C173 0.930 . S
H146 C174 0.929 . S
H147 C176 0.930 . S
H148 C153 0.930 . S
H149 C157 0.930 . S
O150 Co119 2.037 . S
O150 C170 1.234 . S
C151 O125 1.269 . S
C151 O126 1.257 . S
C152 H127 0.930 . S
C152 C155 1.388 . S
C152 C157 1.418 . S
C153 H148 0.930 . S
C153 C156 1.404 . S
C153 C157 1.353 . S
N154 Co119 2.145 . S
N154 C155 1.397 . S
N154 C156 1.334 . S
C155 H136 0.929 . S
C155 C152 1.388 . S
C155 N154 1.397 . S
C156 H137 0.929 . S
C156 C153 1.404 . S
C156 N154 1.334 . S
C157 H149 0.930 . S
C157 C152 1.418 . S
C157 C153 1.353 . S
C158 H128 0.930 . S
C158 N159 1.330 . S
C158 C160 1.446 . S
N159 Co118 2.151 . S
N159 C158 1.330 . S
N159 C163 1.418 . S
C160 H139 0.929 . S
C160 C158 1.446 . S
C160 C161 1.332 . S
C161 H141 0.931 . S
C161 C160 1.332 . S
C161 C162 1.267 . S
C162 H130 0.929 . S
C162 C161 1.267 . S
C162 C163 1.251 . S
C163 H133 0.929 . S
C163 N159 1.418 . S
C163 C162 1.251 . S
C164 H131 0.930 . S
C164 C166 1.406 . S
C164 C169 1.261 . S
C165 H132 0.930 . S
C165 N167 1.325 . S
C165 C168 1.357 . S
C166 H134 0.928 . S
C166 C164 1.406 . S
C166 N167 1.261 . S
N167 Co118 2.214 . S
N167 C165 1.325 . S
N167 C166 1.261 . S
C168 H138 0.931 . S
C168 C165 1.357 . S
C168 C169 1.312 . S
C169 H140 0.930 . S
C169 C164 1.261 . S
C169 C168 1.312 . S
C170 O142 1.214 1_556 S
C170 O150 1.234 . S
C171 H143 0.929 . S
C171 C174 1.391 . S
C171 C176 1.391 . S
C172 H144 0.929 . S
C172 C173 1.390 . S
C172 N175 1.391 . S
C173 H145 0.930 . S
C173 C172 1.390 . S
C173 C174 1.392 . S
C174 H146 0.929 . S
C174 C171 1.391 . S
C174 C173 1.392 . S
N175 Co119 2.257 . S
N175 C172 1.391 . S
N175 C176 1.388 . S
C176 H147 0.930 . S
C176 C171 1.391 . S
C176 N175 1.388 . S
Co177 O179 2.143 . S
Co177 O185 2.074 . S
Co177 O188 2.093 . S
Co177 O201 2.097 . S
Co177 N218 2.151 . S
Co177 N226 2.214 . S
Co178 O179 2.160 . S
Co178 O184 2.058 . S
Co178 O194 2.057 . S
Co178 O209 2.037 . S
Co178 N213 2.145 . S
Co178 N234 2.257 . S
O179 Co177 2.143 . S
O179 Co178 2.160 . S
C180 O181 1.278 . S
C180 O188 1.224 . S
O181 C180 1.278 . S
C182 O183 1.245 . S
C182 O194 1.232 . S
O183 C182 1.245 . S
O184 Co178 2.058 . S
O184 C210 1.269 . S
O185 Co177 2.074 . S
O185 C210 1.257 . S
H186 C211 0.930 . S
H187 C217 0.930 . S
O188 Co177 2.093 . S
O188 C180 1.224 . S
H189 C221 0.929 . S
H190 C223 0.930 . S
H191 C224 0.930 . S
H192 C222 0.929 . S
H193 C225 0.928 . S
O194 Co178 2.057 . S
O194 C182 1.232 . S
H195 C214 0.929 . S
H196 C215 0.929 . S
H197 C227 0.931 . S
H198 C219 0.929 . S
H199 C228 0.930 . S
H200 C220 0.931 . S
O201 Co177 2.097 . S
O201 C229 1.214 . S
H202 C230 0.929 . S
H203 C231 0.929 . S
H204 C232 0.930 . S
H205 C233 0.929 . S
H206 C235 0.930 . S
H207 C212 0.930 . S
H208 C216 0.930 . S
O209 Co178 2.037 . S
O209 C229 1.234 . S
C210 O184 1.269 . S
C210 O185 1.257 . S
C211 H186 0.930 . S
C211 C214 1.388 . S
C211 C216 1.418 . S
C212 H207 0.930 . S
C212 C215 1.404 . S
C212 C216 1.353 . S
N213 Co178 2.145 . S
N213 C214 1.397 . S
N213 C215 1.334 . S
C214 H195 0.929 . S
C214 C211 1.388 . S
C214 N213 1.397 . S
C215 H196 0.929 . S
C215 C212 1.404 . S
C215 N213 1.334 . S
C216 H208 0.930 . S
C216 C211 1.418 . S
C216 C212 1.353 . S
C217 H187 0.930 . S
C217 N218 1.330 . S
C217 C219 1.446 . S
N218 Co177 2.151 . S
N218 C217 1.330 . S
N218 C222 1.418 . S
C219 H198 0.929 . S
C219 C217 1.446 . S
C219 C220 1.332 . S
C220 H200 0.931 . S
C220 C219 1.332 . S
C220 C221 1.267 . S
C221 H189 0.929 . S
C221 C220 1.267 . S
C221 C222 1.251 . S
C222 H192 0.929 . S
C222 N218 1.418 . S
C222 C221 1.251 . S
C223 H190 0.930 . S
C223 C225 1.406 . S
C223 C228 1.261 . S
C224 H191 0.930 . S
C224 N226 1.325 . S
C224 C227 1.357 . S
C225 H193 0.928 . S
C225 C223 1.406 . S
C225 N226 1.261 . S
N226 Co177 2.214 . S
N226 C224 1.325 . S
N226 C225 1.261 . S
C227 H197 0.931 . S
C227 C224 1.357 . S
C227 C228 1.312 . S
C228 H199 0.930 . S
C228 C223 1.261 . S
C228 C227 1.312 . S
C229 O201 1.214 . S
C229 O209 1.234 . S
C230 H202 0.929 . S
C230 C233 1.391 . S
C230 C235 1.391 . S
C231 H203 0.929 . S
C231 C232 1.390 . S
C231 N234 1.391 . S
C232 H204 0.930 . S
C232 C231 1.390 . S
C232 C233 1.392 . S
C233 H205 0.929 . S
C233 C230 1.391 . S
C233 C232 1.392 . S
N234 Co178 2.257 . S
N234 C231 1.391 . S
N234 C235 1.388 . S
C235 H206 0.930 . S
C235 C230 1.391 . S
C235 N234 1.388 . S
Co236 O238 2.143 . S
Co236 O244 2.074 . S
Co236 O247 2.093 . S
Co236 O260 2.097 . S
Co236 N277 2.151 . S
Co236 N285 2.214 . S
Co237 O238 2.160 . S
Co237 O243 2.058 . S
Co237 O253 2.057 . S
Co237 O268 2.037 . S
Co237 N272 2.145 . S
Co237 N293 2.257 . S
O238 Co236 2.143 . S
O238 Co237 2.160 . S
C239 O240 1.278 . S
C239 O247 1.224 . S
O240 C239 1.278 . S
C241 O242 1.245 . S
C241 O253 1.232 . S
O242 C241 1.245 . S
O243 Co237 2.058 . S
O243 C269 1.269 . S
O244 Co236 2.074 . S
O244 C269 1.257 . S
H245 C270 0.930 . S
H246 C276 0.930 . S
O247 Co236 2.093 . S
O247 C239 1.224 . S
H248 C280 0.929 . S
H249 C282 0.930 . S
H250 C283 0.930 . S
H251 C281 0.929 . S
H252 C284 0.928 . S
O253 Co237 2.057 . S
O253 C241 1.232 . S
H254 C273 0.929 . S
H255 C274 0.929 . S
H256 C286 0.931 . S
H257 C278 0.929 . S
H258 C287 0.930 . S
H259 C279 0.931 . S
O260 Co236 2.097 . S
O260 C288 1.214 . S
H261 C289 0.929 . S
H262 C290 0.929 . S
H263 C291 0.930 . S
H264 C292 0.929 . S
H265 C294 0.930 . S
H266 C271 0.930 . S
H267 C275 0.930 . S
O268 Co237 2.037 . S
O268 C288 1.234 . S
C269 O243 1.269 . S
C269 O244 1.257 . S
C270 H245 0.930 . S
C270 C273 1.388 . S
C270 C275 1.418 . S
C271 H266 0.930 . S
C271 C274 1.404 . S
C271 C275 1.353 . S
N272 Co237 2.145 . S
N272 C273 1.397 . S
N272 C274 1.334 . S
C273 H254 0.929 . S
C273 C270 1.388 . S
C273 N272 1.397 . S
C274 H255 0.929 . S
C274 C271 1.404 . S
C274 N272 1.334 . S
C275 H267 0.930 . S
C275 C270 1.418 . S
C275 C271 1.353 . S
C276 H246 0.930 . S
C276 N277 1.330 . S
C276 C278 1.446 . S
N277 Co236 2.151 . S
N277 C276 1.330 . S
N277 C281 1.418 . S
C278 H257 0.929 . S
C278 C276 1.446 . S
C278 C279 1.332 . S
C279 H259 0.931 . S
C279 C278 1.332 . S
C279 C280 1.267 . S
C280 H248 0.929 . S
C280 C279 1.267 . S
C280 C281 1.251 . S
C281 H251 0.929 . S
C281 N277 1.418 . S
C281 C280 1.251 . S
C282 H249 0.930 . S
C282 C284 1.406 . S
C282 C287 1.261 . S
C283 H250 0.930 . S
C283 N285 1.325 . S
C283 C286 1.357 . S
C284 H252 0.928 . S
C284 C282 1.406 . S
C284 N285 1.261 . S
N285 Co236 2.214 . S
N285 C283 1.325 . S
N285 C284 1.261 . S
C286 H256 0.931 . S
C286 C283 1.357 . S
C286 C287 1.312 . S
C287 H258 0.930 . S
C287 C282 1.261 . S
C287 C286 1.312 . S
C288 O260 1.214 . S
C288 O268 1.234 . S
C289 H261 0.929 . S
C289 C292 1.391 . S
C289 C294 1.391 . S
C290 H262 0.929 . S
C290 C291 1.390 . S
C290 N293 1.391 . S
C291 H263 0.930 . S
C291 C290 1.390 . S
C291 C292 1.392 . S
C292 H264 0.929 . S
C292 C289 1.391 . S
C292 C291 1.392 . S
N293 Co237 2.257 . S
N293 C290 1.391 . S
N293 C294 1.388 . S
C294 H265 0.930 . S
C294 C289 1.391 . S
C294 N293 1.388 . S
Co295 O297 2.143 1_554 S
Co295 O303 2.074 1_554 S
Co295 O306 2.093 . S
Co295 O319 2.097 . S
Co295 N336 2.151 . S
Co295 N344 2.214 . S
Co296 O297 2.160 . S
Co296 O302 2.058 . S
Co296 O312 2.057 . S
Co296 O327 2.037 . S
Co296 N331 2.145 . S
Co296 N352 2.257 . S
O297 Co295 2.143 1_556 S
O297 Co296 2.160 . S
C298 O299 1.278 1_554 S
C298 O306 1.224 . S
O299 C298 1.278 1_556 S
C300 O301 1.245 . S
C300 O312 1.232 . S
O301 C300 1.245 . S
O302 Co296 2.058 . S
O302 C328 1.269 . S
O303 Co295 2.074 1_556 S
O303 C328 1.257 . S
H304 C329 0.930 . S
H305 C335 0.930 . S
O306 Co295 2.093 . S
O306 C298 1.224 . S
H307 C339 0.929 . S
H308 C341 0.930 . S
H309 C342 0.930 . S
H310 C340 0.929 . S
H311 C343 0.928 . S
O312 Co296 2.057 . S
O312 C300 1.232 . S
H313 C332 0.929 . S
H314 C333 0.929 . S
H315 C345 0.931 . S
H316 C337 0.929 . S
H317 C346 0.930 . S
H318 C338 0.931 . S
O319 Co295 2.097 . S
O319 C347 1.214 1_554 S
H320 C348 0.929 . S
H321 C349 0.929 . S
H322 C350 0.930 . S
H323 C351 0.929 . S
H324 C353 0.930 . S
H325 C330 0.930 . S
H326 C334 0.930 . S
O327 Co296 2.037 . S
O327 C347 1.234 . S
C328 O302 1.269 . S
C328 O303 1.257 . S
C329 H304 0.930 . S
C329 C332 1.388 . S
C329 C334 1.418 . S
C330 H325 0.930 . S
C330 C333 1.404 . S
C330 C334 1.353 . S
N331 Co296 2.145 . S
N331 C332 1.397 . S
N331 C333 1.334 . S
C332 H313 0.929 . S
C332 C329 1.388 . S
C332 N331 1.397 . S
C333 H314 0.929 . S
C333 C330 1.404 . S
C333 N331 1.334 . S
C334 H326 0.930 . S
C334 C329 1.418 . S
C334 C330 1.353 . S
C335 H305 0.930 . S
C335 N336 1.330 . S
C335 C337 1.446 . S
N336 Co295 2.151 . S
N336 C335 1.330 . S
N336 C340 1.418 . S
C337 H316 0.929 . S
C337 C335 1.446 . S
C337 C338 1.332 . S
C338 H318 0.931 . S
C338 C337 1.332 . S
C338 C339 1.267 . S
C339 H307 0.929 . S
C339 C338 1.267 . S
C339 C340 1.251 . S
C340 H310 0.929 . S
C340 N336 1.418 . S
C340 C339 1.251 . S
C341 H308 0.930 . S
C341 C343 1.406 . S
C341 C346 1.261 . S
C342 H309 0.930 . S
C342 N344 1.325 . S
C342 C345 1.357 . S
C343 H311 0.928 . S
C343 C341 1.406 . S
C343 N344 1.261 . S
N344 Co295 2.214 . S
N344 C342 1.325 . S
N344 C343 1.261 . S
C345 H315 0.931 . S
C345 C342 1.357 . S
C345 C346 1.312 . S
C346 H317 0.930 . S
C346 C341 1.261 . S
C346 C345 1.312 . S
C347 O319 1.214 1_556 S
C347 O327 1.234 . S
C348 H320 0.929 . S
C348 C351 1.391 . S
C348 C353 1.391 . S
C349 H321 0.929 . S
C349 C350 1.390 . S
C349 N352 1.391 . S
C350 H322 0.930 . S
C350 C349 1.390 . S
C350 C351 1.392 . S
C351 H323 0.929 . S
C351 C348 1.391 . S
C351 C350 1.392 . S
N352 Co296 2.257 . S
N352 C349 1.391 . S
N352 C353 1.388 . S
C353 H324 0.930 . S
C353 C348 1.391 . S
C353 N352 1.388 . S
Co354 O356 2.143 . S
Co354 O362 2.074 . S
Co354 O365 2.093 . S
Co354 O378 2.097 . S
Co354 N395 2.151 . S
Co354 N403 2.214 . S
Co355 O356 2.160 . S
Co355 O361 2.058 . S
Co355 O371 2.057 . S
Co355 O386 2.037 . S
Co355 N390 2.145 . S
Co355 N411 2.257 . S
O356 Co354 2.143 . S
O356 Co355 2.160 . S
C357 O358 1.278 . S
C357 O365 1.224 . S
O358 C357 1.278 . S
C359 O360 1.245 . S
C359 O371 1.232 . S
O360 C359 1.245 . S
O361 Co355 2.058 . S
O361 C387 1.269 . S
O362 Co354 2.074 . S
O362 C387 1.257 . S
H363 C388 0.930 . S
H364 C394 0.930 . S
O365 Co354 2.093 . S
O365 C357 1.224 . S
H366 C398 0.929 . S
H367 C400 0.930 . S
H368 C401 0.930 . S
H369 C399 0.929 . S
H370 C402 0.928 . S
O371 Co355 2.057 . S
O371 C359 1.232 . S
H372 C391 0.929 . S
H373 C392 0.929 . S
H374 C404 0.931 . S
H375 C396 0.929 . S
H376 C405 0.930 . S
H377 C397 0.931 . S
O378 Co354 2.097 . S
O378 C406 1.214 . S
H379 C407 0.929 . S
H380 C408 0.929 . S
H381 C409 0.930 . S
H382 C410 0.929 . S
H383 C412 0.930 . S
H384 C389 0.930 . S
H385 C393 0.930 . S
O386 Co355 2.037 . S
O386 C406 1.234 . S
C387 O361 1.269 . S
C387 O362 1.257 . S
C388 H363 0.930 . S
C388 C391 1.388 . S
C388 C393 1.418 . S
C389 H384 0.930 . S
C389 C392 1.404 . S
C389 C393 1.353 . S
N390 Co355 2.145 . S
N390 C391 1.397 . S
N390 C392 1.334 . S
C391 H372 0.929 . S
C391 C388 1.388 . S
C391 N390 1.397 . S
C392 H373 0.929 . S
C392 C389 1.404 . S
C392 N390 1.334 . S
C393 H385 0.930 . S
C393 C388 1.418 . S
C393 C389 1.353 . S
C394 H364 0.930 . S
C394 N395 1.330 . S
C394 C396 1.446 . S
N395 Co354 2.151 . S
N395 C394 1.330 . S
N395 C399 1.418 . S
C396 H375 0.929 . S
C396 C394 1.446 . S
C396 C397 1.332 . S
C397 H377 0.931 . S
C397 C396 1.332 . S
C397 C398 1.267 . S
C398 H366 0.929 . S
C398 C397 1.267 . S
C398 C399 1.251 . S
C399 H369 0.929 . S
C399 N395 1.418 . S
C399 C398 1.251 . S
C400 H367 0.930 . S
C400 C402 1.406 . S
C400 C405 1.261 . S
C401 H368 0.930 . S
C401 N403 1.325 . S
C401 C404 1.357 . S
C402 H370 0.928 . S
C402 C400 1.406 . S
C402 N403 1.261 . S
N403 Co354 2.214 . S
N403 C401 1.325 . S
N403 C402 1.261 . S
C404 H374 0.931 . S
C404 C401 1.357 . S
C404 C405 1.312 . S
C405 H376 0.930 . S
C405 C400 1.261 . S
C405 C404 1.312 . S
C406 O378 1.214 . S
C406 O386 1.234 . S
C407 H379 0.929 . S
C407 C410 1.391 . S
C407 C412 1.391 . S
C408 H380 0.929 . S
C408 C409 1.390 . S
C408 N411 1.391 . S
C409 H381 0.930 . S
C409 C408 1.390 . S
C409 C410 1.392 . S
C410 H382 0.929 . S
C410 C407 1.391 . S
C410 C409 1.392 . S
N411 Co355 2.257 . S
N411 C408 1.391 . S
N411 C412 1.388 . S
C412 H383 0.930 . S
C412 C407 1.391 . S
C412 N411 1.388 . S
Co413 O415 2.143 . S
Co413 O421 2.074 . S
Co413 O424 2.093 . S
Co413 O437 2.097 . S
Co413 N454 2.151 . S
Co413 N462 2.214 . S
Co414 O415 2.160 . S
Co414 O420 2.058 . S
Co414 O430 2.057 . S
Co414 O445 2.037 . S
Co414 N449 2.145 . S
Co414 N470 2.257 . S
O415 Co413 2.143 . S
O415 Co414 2.160 . S
C416 O417 1.278 . S
C416 O424 1.224 . S
O417 C416 1.278 . S
C418 O419 1.245 . S
C418 O430 1.232 . S
O419 C418 1.245 . S
O420 Co414 2.058 . S
O420 C446 1.269 . S
O421 Co413 2.074 . S
O421 C446 1.257 . S
H422 C447 0.930 . S
H423 C453 0.930 . S
O424 Co413 2.093 . S
O424 C416 1.224 . S
H425 C457 0.929 . S
H426 C459 0.930 . S
H427 C460 0.930 . S
H428 C458 0.929 . S
H429 C461 0.928 . S
O430 Co414 2.057 . S
O430 C418 1.232 . S
H431 C450 0.929 . S
H432 C451 0.929 . S
H433 C463 0.931 . S
H434 C455 0.929 . S
H435 C464 0.930 . S
H436 C456 0.931 . S
O437 Co413 2.097 . S
O437 C465 1.214 . S
H438 C466 0.929 . S
H439 C467 0.929 . S
H440 C468 0.930 . S
H441 C469 0.929 . S
H442 C471 0.930 . S
H443 C448 0.930 . S
H444 C452 0.930 . S
O445 Co414 2.037 . S
O445 C465 1.234 . S
C446 O420 1.269 . S
C446 O421 1.257 . S
C447 H422 0.930 . S
C447 C450 1.388 . S
C447 C452 1.418 . S
C448 H443 0.930 . S
C448 C451 1.404 . S
C448 C452 1.353 . S
N449 Co414 2.145 . S
N449 C450 1.397 . S
N449 C451 1.334 . S
C450 H431 0.929 . S
C450 C447 1.388 . S
C450 N449 1.397 . S
C451 H432 0.929 . S
C451 C448 1.404 . S
C451 N449 1.334 . S
C452 H444 0.930 . S
C452 C447 1.418 . S
C452 C448 1.353 . S
C453 H423 0.930 . S
C453 N454 1.330 . S
C453 C455 1.446 . S
N454 Co413 2.151 . S
N454 C453 1.330 . S
N454 C458 1.418 . S
C455 H434 0.929 . S
C455 C453 1.446 . S
C455 C456 1.332 . S
C456 H436 0.931 . S
C456 C455 1.332 . S
C456 C457 1.267 . S
C457 H425 0.929 . S
C457 C456 1.267 . S
C457 C458 1.251 . S
C458 H428 0.929 . S
C458 N454 1.418 . S
C458 C457 1.251 . S
C459 H426 0.930 . S
C459 C461 1.406 . S
C459 C464 1.261 . S
C460 H427 0.930 . S
C460 N462 1.325 . S
C460 C463 1.357 . S
C461 H429 0.928 . S
C461 C459 1.406 . S
C461 N462 1.261 . S
N462 Co413 2.214 . S
N462 C460 1.325 . S
N462 C461 1.261 . S
C463 H433 0.931 . S
C463 C460 1.357 . S
C463 C464 1.312 . S
C464 H435 0.930 . S
C464 C459 1.261 . S
C464 C463 1.312 . S
C465 O437 1.214 . S
C465 O445 1.234 . S
C466 H438 0.929 . S
C466 C469 1.391 . S
C466 C471 1.391 . S
C467 H439 0.929 . S
C467 C468 1.390 . S
C467 N470 1.391 . S
C468 H440 0.930 . S
C468 C467 1.390 . S
C468 C469 1.392 . S
C469 H441 0.929 . S
C469 C466 1.391 . S
C469 C468 1.392 . S
N470 Co414 2.257 . S
N470 C467 1.391 . S
N470 C471 1.388 . S
C471 H442 0.930 . S
C471 C466 1.391 . S
C471 N470 1.388 . S
Co472 O474 2.143 1_556 S
Co472 O480 2.074 1_556 S
Co472 O483 2.093 . S
Co472 O496 2.097 . S
Co472 N513 2.151 . S
Co472 N521 2.214 . S
Co473 O474 2.160 . S
Co473 O479 2.058 . S
Co473 O489 2.057 . S
Co473 O504 2.037 . S
Co473 N508 2.145 . S
Co473 N529 2.257 . S
O474 Co472 2.143 1_554 S
O474 Co473 2.160 . S
C475 O476 1.278 1_556 S
C475 O483 1.224 . S
O476 C475 1.278 1_554 S
C477 O478 1.245 . S
C477 O489 1.232 . S
O478 C477 1.245 . S
O479 Co473 2.058 . S
O479 C505 1.269 . S
O480 Co472 2.074 1_554 S
O480 C505 1.257 . S
H481 C506 0.930 . S
H482 C512 0.930 . S
O483 Co472 2.093 . S
O483 C475 1.224 . S
H484 C516 0.929 . S
H485 C518 0.930 . S
H486 C519 0.930 . S
H487 C517 0.929 . S
H488 C520 0.928 . S
O489 Co473 2.057 . S
O489 C477 1.232 . S
H490 C509 0.929 . S
H491 C510 0.929 . S
H492 C522 0.931 . S
H493 C514 0.929 . S
H494 C523 0.930 . S
H495 C515 0.931 . S
O496 Co472 2.097 . S
O496 C524 1.214 1_556 S
H497 C525 0.929 . S
H498 C526 0.929 . S
H499 C527 0.930 . S
H500 C528 0.929 . S
H501 C530 0.930 . S
H502 C507 0.930 . S
H503 C511 0.930 . S
O504 Co473 2.037 . S
O504 C524 1.234 . S
C505 O479 1.269 . S
C505 O480 1.257 . S
C506 H481 0.930 . S
C506 C509 1.388 . S
C506 C511 1.418 . S
C507 H502 0.930 . S
C507 C510 1.404 . S
C507 C511 1.353 . S
N508 Co473 2.145 . S
N508 C509 1.397 . S
N508 C510 1.334 . S
C509 H490 0.929 . S
C509 C506 1.388 . S
C509 N508 1.397 . S
C510 H491 0.929 . S
C510 C507 1.404 . S
C510 N508 1.334 . S
C511 H503 0.930 . S
C511 C506 1.418 . S
C511 C507 1.353 . S
C512 H482 0.930 . S
C512 N513 1.330 . S
C512 C514 1.446 . S
N513 Co472 2.151 . S
N513 C512 1.330 . S
N513 C517 1.418 . S
C514 H493 0.929 . S
C514 C512 1.446 . S
C514 C515 1.332 . S
C515 H495 0.931 . S
C515 C514 1.332 . S
C515 C516 1.267 . S
C516 H484 0.929 . S
C516 C515 1.267 . S
C516 C517 1.251 . S
C517 H487 0.929 . S
C517 N513 1.418 . S
C517 C516 1.251 . S
C518 H485 0.930 . S
C518 C520 1.406 . S
C518 C523 1.261 . S
C519 H486 0.930 . S
C519 N521 1.325 . S
C519 C522 1.357 . S
C520 H488 0.928 . S
C520 C518 1.406 . S
C520 N521 1.261 . S
N521 Co472 2.214 . S
N521 C519 1.325 . S
N521 C520 1.261 . S
C522 H492 0.931 . S
C522 C519 1.357 . S
C522 C523 1.312 . S
C523 H494 0.930 . S
C523 C518 1.261 . S
C523 C522 1.312 . S
C524 O496 1.214 1_554 S
C524 O504 1.234 . S
C525 H497 0.929 . S
C525 C528 1.391 . S
C525 C530 1.391 . S
C526 H498 0.929 . S
C526 C527 1.390 . S
C526 N529 1.391 . S
C527 H499 0.930 . S
C527 C526 1.390 . S
C527 C528 1.392 . S
C528 H500 0.929 . S
C528 C525 1.391 . S
C528 C527 1.392 . S
N529 Co473 2.257 . S
N529 C526 1.391 . S
N529 C530 1.388 . S
C530 H501 0.930 . S
C530 C525 1.391 . S
C530 N529 1.388 . S
Co531 O533 2.143 . S
Co531 O539 2.074 . S
Co531 O542 2.093 . S
Co531 O555 2.097 . S
Co531 N572 2.151 . S
Co531 N580 2.214 . S
Co532 O533 2.160 . S
Co532 O538 2.058 . S
Co532 O548 2.057 . S
Co532 O563 2.037 . S
Co532 N567 2.145 . S
Co532 N588 2.257 . S
O533 Co531 2.143 . S
O533 Co532 2.160 . S
C534 O535 1.278 . S
C534 O542 1.224 . S
O535 C534 1.278 . S
C536 O537 1.245 . S
C536 O548 1.232 . S
O537 C536 1.245 . S
O538 Co532 2.058 . S
O538 C564 1.269 . S
O539 Co531 2.074 . S
O539 C564 1.257 . S
H540 C565 0.930 . S
H541 C571 0.930 . S
O542 Co531 2.093 . S
O542 C534 1.224 . S
H543 C575 0.929 . S
H544 C577 0.930 . S
H545 C578 0.930 . S
H546 C576 0.929 . S
H547 C579 0.928 . S
O548 Co532 2.057 . S
O548 C536 1.232 . S
H549 C568 0.929 . S
H550 C569 0.929 . S
H551 C581 0.931 . S
H552 C573 0.929 . S
H553 C582 0.930 . S
H554 C574 0.931 . S
O555 Co531 2.097 . S
O555 C583 1.214 . S
H556 C584 0.929 . S
H557 C585 0.929 . S
H558 C586 0.930 . S
H559 C587 0.929 . S
H560 C589 0.930 . S
H561 C566 0.930 . S
H562 C570 0.930 . S
O563 Co532 2.037 . S
O563 C583 1.234 . S
C564 O538 1.269 . S
C564 O539 1.257 . S
C565 H540 0.930 . S
C565 C568 1.388 . S
C565 C570 1.418 . S
C566 H561 0.930 . S
C566 C569 1.404 . S
C566 C570 1.353 . S
N567 Co532 2.145 . S
N567 C568 1.397 . S
N567 C569 1.334 . S
C568 H549 0.929 . S
C568 C565 1.388 . S
C568 N567 1.397 . S
C569 H550 0.929 . S
C569 C566 1.404 . S
C569 N567 1.334 . S
C570 H562 0.930 . S
C570 C565 1.418 . S
C570 C566 1.353 . S
C571 H541 0.930 . S
C571 N572 1.330 . S
C571 C573 1.446 . S
N572 Co531 2.151 . S
N572 C571 1.330 . S
N572 C576 1.418 . S
C573 H552 0.929 . S
C573 C571 1.446 . S
C573 C574 1.332 . S
C574 H554 0.931 . S
C574 C573 1.332 . S
C574 C575 1.267 . S
C575 H543 0.929 . S
C575 C574 1.267 . S
C575 C576 1.251 . S
C576 H546 0.929 . S
C576 N572 1.418 . S
C576 C575 1.251 . S
C577 H544 0.930 . S
C577 C579 1.406 . S
C577 C582 1.261 . S
C578 H545 0.930 . S
C578 N580 1.325 . S
C578 C581 1.357 . S
C579 H547 0.928 . S
C579 C577 1.406 . S
C579 N580 1.261 . S
N580 Co531 2.214 . S
N580 C578 1.325 . S
N580 C579 1.261 . S
C581 H551 0.931 . S
C581 C578 1.357 . S
C581 C582 1.312 . S
C582 H553 0.930 . S
C582 C577 1.261 . S
C582 C581 1.312 . S
C583 O555 1.214 . S
C583 O563 1.234 . S
C584 H556 0.929 . S
C584 C587 1.391 . S
C584 C589 1.391 . S
C585 H557 0.929 . S
C585 C586 1.390 . S
C585 N588 1.391 . S
C586 H558 0.930 . S
C586 C585 1.390 . S
C586 C587 1.392 . S
C587 H559 0.929 . S
C587 C584 1.391 . S
C587 C586 1.392 . S
N588 Co532 2.257 . S
N588 C585 1.391 . S
N588 C589 1.388 . S
C589 H560 0.930 . S
C589 C584 1.391 . S
C589 N588 1.388 . S
Co590 O592 2.143 . S
Co590 O598 2.074 . S
Co590 O601 2.093 . S
Co590 O614 2.097 . S
Co590 N631 2.151 . S
Co590 N639 2.214 . S
Co591 O592 2.160 . S
Co591 O597 2.058 . S
Co591 O607 2.057 . S
Co591 O622 2.037 . S
Co591 N626 2.145 . S
Co591 N647 2.257 . S
O592 Co590 2.143 . S
O592 Co591 2.160 . S
C593 O594 1.278 . S
C593 O601 1.224 . S
O594 C593 1.278 . S
C595 O596 1.245 . S
C595 O607 1.232 . S
O596 C595 1.245 . S
O597 Co591 2.058 . S
O597 C623 1.269 . S
O598 Co590 2.074 . S
O598 C623 1.257 . S
H599 C624 0.930 . S
H600 C630 0.930 . S
O601 Co590 2.093 . S
O601 C593 1.224 . S
H602 C634 0.929 . S
H603 C636 0.930 . S
H604 C637 0.930 . S
H605 C635 0.929 . S
H606 C638 0.928 . S
O607 Co591 2.057 . S
O607 C595 1.232 . S
H608 C627 0.929 . S
H609 C628 0.929 . S
H610 C640 0.931 . S
H611 C632 0.929 . S
H612 C641 0.930 . S
H613 C633 0.931 . S
O614 Co590 2.097 . S
O614 C642 1.214 . S
H615 C643 0.929 . S
H616 C644 0.929 . S
H617 C645 0.930 . S
H618 C646 0.929 . S
H619 C648 0.930 . S
H620 C625 0.930 . S
H621 C629 0.930 . S
O622 Co591 2.037 . S
O622 C642 1.234 . S
C623 O597 1.269 . S
C623 O598 1.257 . S
C624 H599 0.930 . S
C624 C627 1.388 . S
C624 C629 1.418 . S
C625 H620 0.930 . S
C625 C628 1.404 . S
C625 C629 1.353 . S
N626 Co591 2.145 . S
N626 C627 1.397 . S
N626 C628 1.334 . S
C627 H608 0.929 . S
C627 C624 1.388 . S
C627 N626 1.397 . S
C628 H609 0.929 . S
C628 C625 1.404 . S
C628 N626 1.334 . S
C629 H621 0.930 . S
C629 C624 1.418 . S
C629 C625 1.353 . S
C630 H600 0.930 . S
C630 N631 1.330 . S
C630 C632 1.446 . S
N631 Co590 2.151 . S
N631 C630 1.330 . S
N631 C635 1.418 . S
C632 H611 0.929 . S
C632 C630 1.446 . S
C632 C633 1.332 . S
C633 H613 0.931 . S
C633 C632 1.332 . S
C633 C634 1.267 . S
C634 H602 0.929 . S
C634 C633 1.267 . S
C634 C635 1.251 . S
C635 H605 0.929 . S
C635 N631 1.418 . S
C635 C634 1.251 . S
C636 H603 0.930 . S
C636 C638 1.406 . S
C636 C641 1.261 . S
C637 H604 0.930 . S
C637 N639 1.325 . S
C637 C640 1.357 . S
C638 H606 0.928 . S
C638 C636 1.406 . S
C638 N639 1.261 . S
N639 Co590 2.214 . S
N639 C637 1.325 . S
N639 C638 1.261 . S
C640 H610 0.931 . S
C640 C637 1.357 . S
C640 C641 1.312 . S
C641 H612 0.930 . S
C641 C636 1.261 . S
C641 C640 1.312 . S
C642 O614 1.214 . S
C642 O622 1.234 . S
C643 H615 0.929 . S
C643 C646 1.391 . S
C643 C648 1.391 . S
C644 H616 0.929 . S
C644 C645 1.390 . S
C644 N647 1.391 . S
C645 H617 0.930 . S
C645 C644 1.390 . S
C645 C646 1.392 . S
C646 H618 0.929 . S
C646 C643 1.391 . S
C646 C645 1.392 . S
N647 Co591 2.257 . S
N647 C644 1.391 . S
N647 C648 1.388 . S
C648 H619 0.930 . S
C648 C643 1.391 . S
C648 N647 1.388 . S
Co649 O651 2.143 1_556 S
Co649 O657 2.074 1_556 S
Co649 O660 2.093 . S
Co649 O673 2.097 . S
Co649 N690 2.151 . S
Co649 N698 2.214 . S
Co650 O651 2.160 . S
Co650 O656 2.058 . S
Co650 O666 2.057 . S
Co650 O681 2.037 . S
Co650 N685 2.145 . S
Co650 N706 2.257 . S
O651 Co649 2.143 1_554 S
O651 Co650 2.160 . S
C652 O653 1.278 1_556 S
C652 O660 1.224 . S
O653 C652 1.278 1_554 S
C654 O655 1.245 . S
C654 O666 1.232 . S
O655 C654 1.245 . S
O656 Co650 2.058 . S
O656 C682 1.269 . S
O657 Co649 2.074 1_554 S
O657 C682 1.257 . S
H658 C683 0.930 . S
H659 C689 0.930 . S
O660 Co649 2.093 . S
O660 C652 1.224 . S
H661 C693 0.929 . S
H662 C695 0.930 . S
H663 C696 0.930 . S
H664 C694 0.929 . S
H665 C697 0.928 . S
O666 Co650 2.057 . S
O666 C654 1.232 . S
H667 C686 0.929 . S
H668 C687 0.929 . S
H669 C699 0.931 . S
H670 C691 0.929 . S
H671 C700 0.930 . S
H672 C692 0.931 . S
O673 Co649 2.097 . S
O673 C701 1.214 1_556 S
H674 C702 0.929 . S
H675 C703 0.929 . S
H676 C704 0.930 . S
H677 C705 0.929 . S
H678 C707 0.930 . S
H679 C684 0.930 . S
H680 C688 0.930 . S
O681 Co650 2.037 . S
O681 C701 1.234 . S
C682 O656 1.269 . S
C682 O657 1.257 . S
C683 H658 0.930 . S
C683 C686 1.388 . S
C683 C688 1.418 . S
C684 H679 0.930 . S
C684 C687 1.404 . S
C684 C688 1.353 . S
N685 Co650 2.145 . S
N685 C686 1.397 . S
N685 C687 1.334 . S
C686 H667 0.929 . S
C686 C683 1.388 . S
C686 N685 1.397 . S
C687 H668 0.929 . S
C687 C684 1.404 . S
C687 N685 1.334 . S
C688 H680 0.930 . S
C688 C683 1.418 . S
C688 C684 1.353 . S
C689 H659 0.930 . S
C689 N690 1.330 . S
C689 C691 1.446 . S
N690 Co649 2.151 . S
N690 C689 1.330 . S
N690 C694 1.418 . S
C691 H670 0.929 . S
C691 C689 1.446 . S
C691 C692 1.332 . S
C692 H672 0.931 . S
C692 C691 1.332 . S
C692 C693 1.267 . S
C693 H661 0.929 . S
C693 C692 1.267 . S
C693 C694 1.251 . S
C694 H664 0.929 . S
C694 N690 1.418 . S
C694 C693 1.251 . S
C695 H662 0.930 . S
C695 C697 1.406 . S
C695 C700 1.261 . S
C696 H663 0.930 . S
C696 N698 1.325 . S
C696 C699 1.357 . S
C697 H665 0.928 . S
C697 C695 1.406 . S
C697 N698 1.261 . S
N698 Co649 2.214 . S
N698 C696 1.325 . S
N698 C697 1.261 . S
C699 H669 0.931 . S
C699 C696 1.357 . S
C699 C700 1.312 . S
C700 H671 0.930 . S
C700 C695 1.261 . S
C700 C699 1.312 . S
C701 O673 1.214 1_554 S
C701 O681 1.234 . S
C702 H674 0.929 . S
C702 C705 1.391 . S
C702 C707 1.391 . S
C703 H675 0.929 . S
C703 C704 1.390 . S
C703 N706 1.391 . S
C704 H676 0.930 . S
C704 C703 1.390 . S
C704 C705 1.392 . S
C705 H677 0.929 . S
C705 C702 1.391 . S
C705 C704 1.392 . S
N706 Co650 2.257 . S
N706 C703 1.391 . S
N706 C707 1.388 . S
C707 H678 0.930 . S
C707 C702 1.391 . S
C707 N706 1.388 . S
H708 C714 0.930 . S
H709 C718 0.930 . S
H710 C723 0.929 . S
H711 C721 0.929 . S
H712 C716 0.929 . S
H713 C722 0.929 . S
C714 H708 0.930 . S
C714 C715 1.367 . S
C714 C722 1.378 . S
C715 C714 1.367 . S
C715 C723 1.433 . S
C716 H712 0.929 . S
C716 C718 1.378 . S
C716 C720 1.350 . S
C717 C720 1.463 . S
C717 C722 1.350 . S
C717 N725 1.427 . S
C718 H709 0.930 . S
C718 C716 1.378 . S
C718 C719 1.367 . S
C719 C718 1.367 . S
C719 C721 1.433 . S
C720 C716 1.350 . S
C720 C717 1.463 . S
C720 N724 1.427 . S
C721 H711 0.929 . S
C721 C719 1.433 . S
C721 N724 1.384 . S
C722 H713 0.929 . S
C722 C714 1.378 . S
C722 C717 1.350 . S
C723 H710 0.929 . S
C723 C715 1.433 . S
C723 N725 1.384 . S
N724 C720 1.427 . S
N724 C721 1.384 . S
N725 C717 1.427 . S
N725 C723 1.384 . S
H726 C732 0.930 . S
H727 C736 0.930 . S
H728 C741 0.929 . S
H729 C739 0.929 . S
H730 C734 0.929 . S
H731 C740 0.929 . S
C732 H726 0.930 . S
C732 C733 1.367 . S
C732 C740 1.378 . S
C733 C732 1.367 . S
C733 C741 1.433 . S
C734 H730 0.929 . S
C734 C736 1.378 . S
C734 C738 1.350 . S
C735 C738 1.463 1_655 S
C735 C740 1.350 . S
C735 N743 1.427 . S
C736 H727 0.930 . S
C736 C734 1.378 . S
C736 C737 1.367 . S
C737 C736 1.367 . S
C737 C739 1.433 . S
C738 C734 1.350 . S
C738 C735 1.463 1_455 S
C738 N742 1.427 . S
C739 H729 0.929 . S
C739 C737 1.433 . S
C739 N742 1.384 . S
C740 H731 0.929 . S
C740 C732 1.378 . S
C740 C735 1.350 . S
C741 H728 0.929 . S
C741 C733 1.433 . S
C741 N743 1.384 . S
N742 C738 1.427 . S
N742 C739 1.384 . S
N743 C735 1.427 . S
N743 C741 1.384 . S
H744 C750 0.930 . S
H745 C754 0.930 . S
H746 C759 0.929 1_554 S
H747 C757 0.929 1_556 S
H748 C752 0.970 . S
H749 C758 0.970 . S
C750 H744 0.930 . S
C750 C751 1.367 . S
C750 C758 1.378 . S
C751 C750 1.367 . S
C751 C759 1.433 . S
C752 H748 0.970 . S
C752 C754 1.378 . S
C752 C756 1.350 . S
C753 C756 1.463 1_566 S
C753 C758 1.350 . S
C753 N761 1.427 1_556 S
C754 H745 0.930 . S
C754 C752 1.378 . S
C754 C755 1.367 . S
C755 C754 1.367 . S
C755 C757 1.433 . S
C756 C752 1.350 . S
C756 C753 1.463 1_544 S
C756 N760 1.427 1_554 S
C757 H747 0.929 1_554 S
C757 C755 1.433 . S
C757 N760 1.384 1_554 S
C758 H749 0.970 . S
C758 C750 1.378 . S
C758 C753 1.350 . S
C759 H746 0.929 1_556 S
C759 C751 1.433 . S
C759 N761 1.384 1_556 S
N760 C756 1.427 1_556 S
N760 C757 1.384 1_556 S
N761 C753 1.427 1_554 S
N761 C759 1.384 1_554 S
H762 C768 0.930 . S
H763 C772 0.930 . S
H764 C777 0.929 . S
H765 C775 0.929 . S
H766 C770 0.929 . S
H767 C776 0.929 . S
C768 H762 0.930 . S
C768 C769 1.367 . S
C768 C776 1.378 . S
C769 C768 1.367 . S
C769 C777 1.433 . S
C770 H766 0.929 . S
C770 C772 1.378 . S
C770 C774 1.350 . S
C771 C774 1.463 . S
C771 C776 1.350 . S
C771 N779 1.427 . S
C772 H763 0.930 . S
C772 C770 1.378 . S
C772 C773 1.367 . S
C773 C772 1.367 . S
C773 C775 1.433 . S
C774 C770 1.350 . S
C774 C771 1.463 . S
C774 N778 1.427 . S
C775 H765 0.929 . S
C775 C773 1.433 . S
C775 N778 1.384 . S
C776 H767 0.929 . S
C776 C768 1.378 . S
C776 C771 1.350 . S
C777 H764 0.929 . S
C777 C769 1.433 . S
C777 N779 1.384 . S
N778 C774 1.427 . S
N778 C775 1.384 . S
N779 C771 1.427 . S
N779 C777 1.384 . S
H780 C786 0.930 . S
H781 C790 0.930 . S
H782 C795 0.929 . S
H783 C793 0.929 . S
H784 C788 0.929 . S
H785 C794 0.929 . S
C786 H780 0.930 . S
C786 C787 1.367 . S
C786 C794 1.378 . S
C787 C786 1.367 . S
C787 C795 1.433 . S
C788 H784 0.929 . S
C788 C790 1.378 . S
C788 C792 1.350 . S
C789 C792 1.463 1_655 S
C789 C794 1.350 . S
C789 N797 1.427 . S
C790 H781 0.930 . S
C790 C788 1.378 . S
C790 C791 1.367 . S
C791 C790 1.367 . S
C791 C793 1.433 . S
C792 C788 1.350 . S
C792 C789 1.463 1_455 S
C792 N796 1.427 . S
C793 H783 0.929 . S
C793 C791 1.433 . S
C793 N796 1.384 . S
C794 H785 0.929 . S
C794 C786 1.378 . S
C794 C789 1.350 . S
C795 H782 0.929 . S
C795 C787 1.433 . S
C795 N797 1.384 . S
N796 C792 1.427 . S
N796 C793 1.384 . S
N797 C789 1.427 . S
N797 C795 1.384 . S
H798 C804 0.930 . S
H799 C808 0.930 . S
H800 C813 0.929 1_556 S
H801 C811 0.929 1_554 S
H802 C806 0.921 1_565 S
H803 C812 0.921 1_545 S
C804 H798 0.930 . S
C804 C805 1.367 . S
C804 C812 1.378 . S
C805 C804 1.367 . S
C805 C813 1.433 . S
C806 H802 0.921 1_545 S
C806 C808 1.378 . S
C806 C810 1.350 . S
C807 C810 1.463 1_564 S
C807 C812 1.350 . S
C807 N815 1.427 1_554 S
C808 H799 0.930 . S
C808 C806 1.378 . S
C808 C809 1.367 . S
C809 C808 1.367 . S
C809 C811 1.433 . S
C810 C806 1.350 . S
C810 C807 1.463 1_546 S
C810 N814 1.427 1_556 S
C811 H801 0.929 1_556 S
C811 C809 1.433 . S
C811 N814 1.384 1_556 S
C812 H803 0.921 1_565 S
C812 C804 1.378 . S
C812 C807 1.350 . S
C813 H800 0.929 1_554 S
C813 C805 1.433 . S
C813 N815 1.384 1_554 S
N814 C810 1.427 1_554 S
N814 C811 1.384 1_554 S
N815 C807 1.427 1_556 S
N815 C813 1.384 1_556 S
H816 C822 0.930 . S
H817 C826 0.930 . S
H818 C831 0.929 . S
H819 C829 0.929 . S
H820 C824 0.929 . S
H821 C830 0.929 . S
C822 H816 0.930 . S
C822 C823 1.367 . S
C822 C830 1.378 . S
C823 C822 1.367 . S
C823 C831 1.433 . S
C824 H820 0.929 . S
C824 C826 1.378 . S
C824 C828 1.350 . S
C825 C828 1.463 1_556 S
C825 C830 1.350 . S
C825 N833 1.427 . S
C826 H817 0.930 . S
C826 C824 1.378 . S
C826 C827 1.367 . S
C827 C826 1.367 . S
C827 C829 1.433 . S
C828 C824 1.350 . S
C828 C825 1.463 1_554 S
C828 N832 1.427 . S
C829 H819 0.929 . S
C829 C827 1.433 . S
C829 N832 1.384 . S
C830 H821 0.929 . S
C830 C822 1.378 . S
C830 C825 1.350 . S
C831 H818 0.929 . S
C831 C823 1.433 . S
C831 N833 1.384 . S
N832 C828 1.427 . S
N832 C829 1.384 . S
N833 C825 1.427 . S
N833 C831 1.384 . S
H834 C840 0.930 . S
H835 C844 0.930 . S
H836 C849 0.929 . S
H837 C847 0.929 . S
H838 C842 0.929 . S
H839 C848 0.929 . S
C840 H834 0.930 . S
C840 C841 1.367 . S
C840 C848 1.378 . S
C841 C840 1.367 . S
C841 C849 1.433 . S
C842 H838 0.929 . S
C842 C844 1.378 . S
C842 C846 1.350 . S
C843 C846 1.463 . S
C843 C848 1.350 . S
C843 N851 1.427 . S
C844 H835 0.930 . S
C844 C842 1.378 . S
C844 C845 1.367 . S
C845 C844 1.367 . S
C845 C847 1.433 . S
C846 C842 1.350 . S
C846 C843 1.463 . S
C846 N850 1.427 . S
C847 H837 0.929 . S
C847 C845 1.433 . S
C847 N850 1.384 . S
C848 H839 0.929 . S
C848 C840 1.378 . S
C848 C843 1.350 . S
C849 H836 0.929 . S
C849 C841 1.433 . S
C849 N851 1.384 . S
N850 C846 1.427 . S
N850 C847 1.384 . S
N851 C843 1.427 . S
N851 C849 1.384 . S
H852 C858 0.930 . S
H853 C862 0.930 . S
H854 C867 0.929 . S
H855 C865 0.929 . S
H856 C860 0.929 . S
H857 C866 0.929 . S
C858 H852 0.930 . S
C858 C859 1.367 . S
C858 C866 1.378 . S
C859 C858 1.367 . S
C859 C867 1.433 . S
C860 H856 0.929 . S
C860 C862 1.378 . S
C860 C864 1.350 . S
C861 C864 1.463 . S
C861 C866 1.350 . S
C861 N869 1.427 . S
C862 H853 0.930 . S
C862 C860 1.378 . S
C862 C863 1.367 . S
C863 C862 1.367 . S
C863 C865 1.433 . S
C864 C860 1.350 . S
C864 C861 1.463 . S
C864 N868 1.427 . S
C865 H855 0.929 . S
C865 C863 1.433 . S
C865 N868 1.384 . S
C866 H857 0.929 . S
C866 C858 1.378 . S
C866 C861 1.350 . S
C867 H854 0.929 . S
C867 C859 1.433 . S
C867 N869 1.384 . S
N868 C864 1.427 . S
N868 C865 1.384 . S
N869 C861 1.427 . S
N869 C867 1.384 . S
H870 C876 0.930 . S
H871 C880 0.930 . S
H872 C885 0.929 . S
H873 C883 0.929 . S
H874 C878 0.929 1_554 S
H875 C884 0.929 1_556 S
C876 H870 0.930 . S
C876 C877 1.367 . S
C876 C884 1.378 . S
C877 C876 1.367 . S
C877 C885 1.433 . S
C878 H874 0.929 1_556 S
C878 C880 1.378 . S
C878 C882 1.350 . S
C879 C882 1.463 1_554 S
C879 C884 1.350 . S
C879 N887 1.427 . S
C880 H871 0.930 . S
C880 C878 1.378 . S
C880 C881 1.367 . S
C881 C880 1.367 . S
C881 C883 1.433 . S
C882 C878 1.350 . S
C882 C879 1.463 1_556 S
C882 N886 1.427 . S
C883 H873 0.929 . S
C883 C881 1.433 . S
C883 N886 1.384 . S
C884 H875 0.929 1_554 S
C884 C876 1.378 . S
C884 C879 1.350 . S
C885 H872 0.929 . S
C885 C877 1.433 . S
C885 N887 1.384 . S
N886 C882 1.427 . S
N886 C883 1.384 . S
N887 C879 1.427 . S
N887 C885 1.384 . S
H888 C894 0.930 . S
H889 C898 0.930 . S
H890 C903 0.929 . S
H891 C901 0.929 . S
H892 C896 0.929 . S
H893 C902 0.929 . S
C894 H888 0.930 . S
C894 C895 1.367 . S
C894 C902 1.378 . S
C895 C894 1.367 . S
C895 C903 1.433 . S
C896 H892 0.929 . S
C896 C898 1.378 . S
C896 C900 1.350 . S
C897 C900 1.463 . S
C897 C902 1.350 . S
C897 N905 1.427 . S
C898 H889 0.930 . S
C898 C896 1.378 . S
C898 C899 1.367 . S
C899 C898 1.367 . S
C899 C901 1.433 . S
C900 C896 1.350 . S
C900 C897 1.463 . S
C900 N904 1.427 . S
C901 H891 0.929 . S
C901 C899 1.433 . S
C901 N904 1.384 . S
C902 H893 0.929 . S
C902 C894 1.378 . S
C902 C897 1.350 . S
C903 H890 0.929 . S
C903 C895 1.433 . S
C903 N905 1.384 . S
N904 C900 1.427 . S
N904 C901 1.384 . S
N905 C897 1.427 . S
N905 C903 1.384 . S
H906 C912 0.930 . S
H907 C916 0.930 . S
H908 C921 0.929 . S
H909 C919 0.929 . S
H910 C914 0.929 . S
H911 C920 0.929 . S
C912 H906 0.930 . S
C912 C913 1.367 . S
C912 C920 1.378 . S
C913 C912 1.367 . S
C913 C921 1.433 . S
C914 H910 0.929 . S
C914 C916 1.378 . S
C914 C918 1.350 . S
C915 C918 1.463 . S
C915 C920 1.350 . S
C915 N923 1.427 . S
C916 H907 0.930 . S
C916 C914 1.378 . S
C916 C917 1.367 . S
C917 C916 1.367 . S
C917 C919 1.433 . S
C918 C914 1.350 . S
C918 C915 1.463 . S
C918 N922 1.427 . S
C919 H909 0.929 . S
C919 C917 1.433 . S
C919 N922 1.384 . S
C920 H911 0.929 . S
C920 C912 1.378 . S
C920 C915 1.350 . S
C921 H908 0.929 . S
C921 C913 1.433 . S
C921 N923 1.384 . S
N922 C918 1.427 . S
N922 C919 1.384 . S
N923 C915 1.427 . S
N923 C921 1.384 . S
H924 C930 0.930 . S
H925 C934 0.930 . S
H926 C939 0.929 . S
H927 C937 0.929 . S
H928 C932 0.929 . S
H929 C938 0.929 . S
C930 H924 0.930 . S
C930 C931 1.367 . S
C930 C938 1.378 . S
C931 C930 1.367 . S
C931 C939 1.433 . S
C932 H928 0.929 . S
C932 C934 1.378 . S
C932 C936 1.350 . S
C933 C936 1.463 . S
C933 C938 1.350 . S
C933 N941 1.427 . S
C934 H925 0.930 . S
C934 C932 1.378 . S
C934 C935 1.367 . S
C935 C934 1.367 . S
C935 C937 1.433 . S
C936 C932 1.350 . S
C936 C933 1.463 . S
C936 N940 1.427 . S
C937 H927 0.929 . S
C937 C935 1.433 . S
C937 N940 1.384 . S
C938 H929 0.929 . S
C938 C930 1.378 . S
C938 C933 1.350 . S
C939 H926 0.929 . S
C939 C931 1.433 . S
C939 N941 1.384 . S
N940 C936 1.427 . S
N940 C937 1.384 . S
N941 C933 1.427 . S
N941 C939 1.384 . S
H942 C948 0.930 . S
H943 C952 0.930 . S
H944 C957 0.929 . S
H945 C955 0.929 . S
H946 C950 0.929 . S
H947 C956 0.929 . S
C948 H942 0.930 . S
C948 C949 1.367 . S
C948 C956 1.378 . S
C949 C948 1.367 . S
C949 C957 1.433 . S
C950 H946 0.929 . S
C950 C952 1.378 . S
C950 C954 1.350 . S
C951 C954 1.463 . S
C951 C956 1.350 . S
C951 N959 1.427 . S
C952 H943 0.930 . S
C952 C950 1.378 . S
C952 C953 1.367 . S
C953 C952 1.367 . S
C953 C955 1.433 . S
C954 C950 1.350 . S
C954 C951 1.463 . S
C954 N958 1.427 . S
C955 H945 0.929 . S
C955 C953 1.433 . S
C955 N958 1.384 . S
C956 H947 0.929 . S
C956 C948 1.378 . S
C956 C951 1.350 . S
C957 H944 0.929 . S
C957 C949 1.433 . S
C957 N959 1.384 . S
N958 C954 1.427 . S
N958 C955 1.384 . S
N959 C951 1.427 . S
N959 C957 1.384 . S
H960 C966 0.930 . S
H961 C970 0.930 . S
H962 C975 0.929 . S
H963 C973 0.929 . S
H964 C968 0.929 . S
H965 C974 0.929 . S
C966 H960 0.930 . S
C966 C967 1.367 . S
C966 C974 1.378 . S
C967 C966 1.367 . S
C967 C975 1.433 . S
C968 H964 0.929 . S
C968 C970 1.378 . S
C968 C972 1.350 . S
C969 C972 1.463 . S
C969 C974 1.350 . S
C969 N977 1.427 . S
C970 H961 0.930 . S
C970 C968 1.378 . S
C970 C971 1.367 . S
C971 C970 1.367 . S
C971 C973 1.433 . S
C972 C968 1.350 . S
C972 C969 1.463 . S
C972 N976 1.427 . S
C973 H963 0.929 . S
C973 C971 1.433 . S
C973 N976 1.384 . S
C974 H965 0.929 . S
C974 C966 1.378 . S
C974 C969 1.350 . S
C975 H962 0.929 . S
C975 C967 1.433 . S
C975 N977 1.384 . S
N976 C972 1.427 . S
N976 C973 1.384 . S
N977 C969 1.427 . S
N977 C975 1.384 . S
H978 C984 0.930 . S
H979 C988 0.930 . S
H980 C993 0.929 . S
H981 C991 0.929 . S
H982 C986 0.929 . S
H983 C992 0.929 . S
C984 H978 0.930 . S
C984 C985 1.367 . S
C984 C992 1.378 . S
C985 C984 1.367 . S
C985 C993 1.433 . S
C986 H982 0.929 . S
C986 C988 1.378 . S
C986 C990 1.350 . S
C987 C990 1.463 . S
C987 C992 1.350 . S
C987 N995 1.427 . S
C988 H979 0.930 . S
C988 C986 1.378 . S
C988 C989 1.367 . S
C989 C988 1.367 . S
C989 C991 1.433 . S
C990 C986 1.350 . S
C990 C987 1.463 . S
C990 N994 1.427 . S
C991 H981 0.929 . S
C991 C989 1.433 . S
C991 N994 1.384 . S
C992 H983 0.929 . S
C992 C984 1.378 . S
C992 C987 1.350 . S
C993 H980 0.929 . S
C993 C985 1.433 . S
C993 N995 1.384 . S
N994 C990 1.427 . S
N994 C991 1.384 . S
N995 C987 1.427 . S
N995 C993 1.384 . S
H996 C1002 0.930 . S
H997 C1006 0.930 . S
H998 C1011 0.929 . S
H999 C1009 0.929 . S
H1000 C1004 0.929 . S
H1001 C1010 0.929 . S
C1002 H996 0.930 . S
C1002 C1003 1.367 . S
C1002 C1010 1.378 . S
C1003 C1002 1.367 . S
C1003 C1011 1.433 . S
C1004 H1000 0.929 . S
C1004 C1006 1.378 . S
C1004 C1008 1.350 . S
C1005 C1008 1.463 . S
C1005 C1010 1.350 . S
C1005 N1013 1.427 . S
C1006 H997 0.930 . S
C1006 C1004 1.378 . S
C1006 C1007 1.367 . S
C1007 C1006 1.367 . S
C1007 C1009 1.433 . S
C1008 C1004 1.350 . S
C1008 C1005 1.463 . S
C1008 N1012 1.427 . S
C1009 H999 0.929 . S
C1009 C1007 1.433 . S
C1009 N1012 1.384 . S
C1010 H1001 0.929 . S
C1010 C1002 1.378 . S
C1010 C1005 1.350 . S
C1011 H998 0.929 . S
C1011 C1003 1.433 . S
C1011 N1013 1.384 . S
N1012 C1008 1.427 . S
N1012 C1009 1.384 . S
N1013 C1005 1.427 . S
N1013 C1011 1.384 . S
H1014 C1020 0.930 . S
H1015 C1024 0.930 . S
H1016 C1029 0.929 . S
H1017 C1027 0.929 . S
H1018 C1022 0.929 . S
H1019 C1028 0.929 . S
C1020 H1014 0.930 . S
C1020 C1021 1.367 . S
C1020 C1028 1.378 . S
C1021 C1020 1.367 . S
C1021 C1029 1.433 . S
C1022 H1018 0.929 . S
C1022 C1024 1.378 . S
C1022 C1026 1.350 . S
C1023 C1026 1.463 . S
C1023 C1028 1.350 . S
C1023 N1031 1.427 . S
C1024 H1015 0.930 . S
C1024 C1022 1.378 . S
C1024 C1025 1.367 . S
C1025 C1024 1.367 . S
C1025 C1027 1.433 . S
C1026 C1022 1.350 . S
C1026 C1023 1.463 . S
C1026 N1030 1.427 . S
C1027 H1017 0.929 . S
C1027 C1025 1.433 . S
C1027 N1030 1.384 . S
C1028 H1019 0.929 . S
C1028 C1020 1.378 . S
C1028 C1023 1.350 . S
C1029 H1016 0.929 . S
C1029 C1021 1.433 . S
C1029 N1031 1.384 . S
N1030 C1026 1.427 . S
N1030 C1027 1.384 . S
N1031 C1023 1.427 . S
N1031 C1029 1.384 . S
H1032 C1038 0.930 . S
H1033 C1042 0.930 . S
H1034 C1047 0.929 . S
H1035 C1045 0.929 . S
H1036 C1040 0.929 . S
H1037 C1046 0.929 . S
C1038 H1032 0.930 . S
C1038 C1039 1.367 . S
C1038 C1046 1.378 . S
C1039 C1038 1.367 . S
C1039 C1047 1.433 . S
C1040 H1036 0.929 . S
C1040 C1042 1.378 . S
C1040 C1044 1.350 . S
C1041 C1044 1.463 . S
C1041 C1046 1.350 . S
C1041 N1049 1.427 . S
C1042 H1033 0.930 . S
C1042 C1040 1.378 . S
C1042 C1043 1.367 . S
C1043 C1042 1.367 . S
C1043 C1045 1.433 . S
C1044 C1040 1.350 . S
C1044 C1041 1.463 . S
C1044 N1048 1.427 . S
C1045 H1035 0.929 . S
C1045 C1043 1.433 . S
C1045 N1048 1.384 . S
C1046 H1037 0.929 . S
C1046 C1038 1.378 . S
C1046 C1041 1.350 . S
C1047 H1034 0.929 . S
C1047 C1039 1.433 . S
C1047 N1049 1.384 . S
N1048 C1044 1.427 . S
N1048 C1045 1.384 . S
N1049 C1041 1.427 . S
N1049 C1047 1.384 . S
H1050 C1056 0.930 . S
H1051 C1060 0.930 . S
H1052 C1065 0.929 . S
H1053 C1063 0.929 . S
H1054 C1058 0.929 . S
H1055 C1064 0.929 . S
C1056 H1050 0.930 . S
C1056 C1057 1.367 . S
C1056 C1064 1.378 . S
C1057 C1056 1.367 . S
C1057 C1065 1.433 . S
C1058 H1054 0.929 . S
C1058 C1060 1.378 . S
C1058 C1062 1.350 . S
C1059 C1062 1.463 . S
C1059 C1064 1.350 . S
C1059 N1067 1.427 . S
C1060 H1051 0.930 . S
C1060 C1058 1.378 . S
C1060 C1061 1.367 . S
C1061 C1060 1.367 . S
C1061 C1063 1.433 . S
C1062 C1058 1.350 . S
C1062 C1059 1.463 . S
C1062 N1066 1.427 . S
C1063 H1053 0.929 . S
C1063 C1061 1.433 . S
C1063 N1066 1.384 . S
C1064 H1055 0.929 . S
C1064 C1056 1.378 . S
C1064 C1059 1.350 . S
C1065 H1052 0.929 . S
C1065 C1057 1.433 . S
C1065 N1067 1.384 . S
N1066 C1062 1.427 . S
N1066 C1063 1.384 . S
N1067 C1059 1.427 . S
N1067 C1065 1.384 . S
H1068 C1074 0.930 . S
H1069 C1078 0.930 . S
H1070 C1083 0.929 . S
H1071 C1081 0.929 . S
H1072 C1076 0.929 . S
H1073 C1082 0.929 . S
C1074 H1068 0.930 . S
C1074 C1075 1.367 1_554 S
C1074 C1082 1.378 . S
C1075 C1074 1.367 1_556 S
C1075 C1083 1.433 . S
C1076 H1072 0.929 . S
C1076 C1078 1.378 . S
C1076 C1080 1.350 1_556 S
C1077 C1080 1.463 1_556 S
C1077 C1082 1.350 1_556 S
C1077 N1085 1.427 . S
C1078 H1069 0.930 . S
C1078 C1076 1.378 . S
C1078 C1079 1.367 1_556 S
C1079 C1078 1.367 1_554 S
C1079 C1081 1.433 . S
C1080 C1076 1.350 1_554 S
C1080 C1077 1.463 1_554 S
C1080 N1084 1.427 . S
C1081 H1071 0.929 . S
C1081 C1079 1.433 . S
C1081 N1084 1.384 . S
C1082 H1073 0.929 . S
C1082 C1074 1.378 . S
C1082 C1077 1.350 1_554 S
C1083 H1070 0.929 . S
C1083 C1075 1.433 . S
C1083 N1085 1.384 . S
N1084 C1080 1.427 . S
N1084 C1081 1.384 . S
N1085 C1077 1.427 . S
N1085 C1083 1.384 . S
H1086 C1092 0.930 . S
H1087 C1096 0.930 . S
H1088 C1101 0.929 . S
H1089 C1099 0.929 . S
H1090 C1094 0.929 . S
H1091 C1100 0.929 . S
C1092 H1086 0.930 . S
C1092 C1093 1.367 . S
C1092 C1100 1.378 . S
C1093 C1092 1.367 . S
C1093 C1101 1.433 . S
C1094 H1090 0.929 . S
C1094 C1096 1.378 . S
C1094 C1098 1.350 . S
C1095 C1098 1.463 . S
C1095 C1100 1.350 . S
C1095 N1103 1.427 . S
C1096 H1087 0.930 . S
C1096 C1094 1.378 . S
C1096 C1097 1.367 . S
C1097 C1096 1.367 . S
C1097 C1099 1.433 . S
C1098 C1094 1.350 . S
C1098 C1095 1.463 . S
C1098 N1102 1.427 . S
C1099 H1089 0.929 . S
C1099 C1097 1.433 . S
C1099 N1102 1.384 . S
C1100 H1091 0.929 . S
C1100 C1092 1.378 . S
C1100 C1095 1.350 . S
C1101 H1088 0.929 . S
C1101 C1093 1.433 . S
C1101 N1103 1.384 . S
N1102 C1098 1.427 . S
N1102 C1099 1.384 . S
N1103 C1095 1.427 . S
N1103 C1101 1.384 . S
H1104 C1110 0.930 . S
H1105 C1114 0.930 . S
H1106 C1119 0.929 . S
H1107 C1117 0.929 . S
H1108 C1112 0.929 . S
H1109 C1118 0.929 . S
C1110 H1104 0.930 . S
C1110 C1111 1.367 . S
C1110 C1118 1.378 . S
C1111 C1110 1.367 . S
C1111 C1119 1.433 . S
C1112 H1108 0.929 . S
C1112 C1114 1.378 . S
C1112 C1116 1.350 . S
C1113 C1116 1.463 . S
C1113 C1118 1.350 . S
C1113 N1121 1.427 . S
C1114 H1105 0.930 . S
C1114 C1112 1.378 . S
C1114 C1115 1.367 . S
C1115 C1114 1.367 . S
C1115 C1117 1.433 . S
C1116 C1112 1.350 . S
C1116 C1113 1.463 . S
C1116 N1120 1.427 . S
C1117 H1107 0.929 . S
C1117 C1115 1.433 . S
C1117 N1120 1.384 . S
C1118 H1109 0.929 . S
C1118 C1110 1.378 . S
C1118 C1113 1.350 . S
C1119 H1106 0.929 . S
C1119 C1111 1.433 . S
C1119 N1121 1.384 . S
N1120 C1116 1.427 . S
N1120 C1117 1.384 . S
N1121 C1113 1.427 . S
N1121 C1119 1.384 . S
H1122 C1128 0.930 . S
H1123 C1132 0.930 . S
H1124 C1137 0.929 . S
H1125 C1135 0.929 . S
H1126 C1130 0.929 . S
H1127 C1136 0.929 . S
C1128 H1122 0.930 . S
C1128 C1129 1.367 . S
C1128 C1136 1.378 . S
C1129 C1128 1.367 . S
C1129 C1137 1.433 1_554 S
C1130 H1126 0.929 . S
C1130 C1132 1.378 . S
C1130 C1134 1.350 . S
C1131 C1134 1.463 1_554 S
C1131 C1136 1.350 . S
C1131 N1139 1.427 1_554 S
C1132 H1123 0.930 . S
C1132 C1130 1.378 . S
C1132 C1133 1.367 . S
C1133 C1132 1.367 . S
C1133 C1135 1.433 1_556 S
C1134 C1130 1.350 . S
C1134 C1131 1.463 1_556 S
C1134 N1138 1.427 1_556 S
C1135 H1125 0.929 . S
C1135 C1133 1.433 1_554 S
C1135 N1138 1.384 . S
C1136 H1127 0.929 . S
C1136 C1128 1.378 . S
C1136 C1131 1.350 . S
C1137 H1124 0.929 . S
C1137 C1129 1.433 1_556 S
C1137 N1139 1.384 . S
N1138 C1134 1.427 1_554 S
N1138 C1135 1.384 . S
N1139 C1131 1.427 1_556 S
N1139 C1137 1.384 . S
C715 C33 1.558 . S
C719 C564 1.557 . S
C733 C92 1.567 . S
C737 C623 1.565 . S
C751 C151 1.571 . S
C755 C682 1.572 . S
C769 C210 1.572 . S
C773 C387 1.572 . S
C787 C446 1.567 . S
C791 C269 1.565 . S
C805 C505 1.571 . S
C809 C328 1.572 . S
C823 C595 2.060 . S
C827 C5 2.055 . S
C841 C64 2.055 . S
C845 C654 2.056 . S
C859 C123 2.060 . S
C863 C359 2.057 . S
C877 C182 2.056 . S
C881 C418 2.060 . S
C895 C241 2.055 . S
C899 C477 2.056 . S
C913 C300 2.060 . S
C917 C536 2.056 . S
C931 C593 0.831 . S
C935 C3 0.828 . S
C949 C62 0.835 . S
C953 C652 0.832 . S
C967 C121 0.825 . S
C971 C357 0.826 . S
C985 C180 0.826 . S
C989 C416 0.825 . S
C1003 C239 0.842 . S
C1007 C475 0.841 . S
C1021 C298 0.842 . S
C1025 C534 0.842 . S
C1039 C52 1.759 . S
C1043 C406 1.758 . S
C1057 C465 1.765 . S
C1061 C111 1.762 . S
C1075 C170 1.765 . S
C1079 C524 1.761 . S
C1093 C229 1.765 . S
C1097 C583 1.764 . S
C1111 C288 1.765 . S
C1115 C642 1.764 . S
C1129 C701 1.762 . S
C1133 C347 1.758 . S
