# Generated by pormake.
# Topology wip, (6)-cn, num edge types: 1
# Building blocks:
#     Node 0, Type 0, BuildingBlock: BETFAJ_clean_sbu_0, # of connection points: 6
#     Node 1, Type 0, BuildingBlock: BETFAJ_clean_sbu_0, # of connection points: 6
#     Node 2, Type 0, BuildingBlock: BETFAJ_clean_sbu_0, # of connection points: 6
#     Node 3, Type 0, BuildingBlock: BETFAJ_clean_sbu_0, # of connection points: 6
#     Node 4, Type 0, BuildingBlock: BETFAJ_clean_sbu_0, # of connection points: 6
#     Node 5, Type 0, BuildingBlock: BETFAJ_clean_sbu_0, # of connection points: 6
#     Node 6, Type 0, BuildingBlock: BETFAJ_clean_sbu_0, # of connection points: 6
#     Node 7, Type 0, BuildingBlock: BETFAJ_clean_sbu_0, # of connection points: 6
#     Node 8, Type 0, BuildingBlock: BETFAJ_clean_sbu_0, # of connection points: 6
#     Node 9, Type 0, BuildingBlock: BETFAJ_clean_sbu_0, # of connection points: 6
#     Node 10, Type 0, BuildingBlock: BETFAJ_clean_sbu_0, # of connection points: 6
#     Node 11, Type 0, BuildingBlock: BETFAJ_clean_sbu_0, # of connection points: 6
#     Node 12, Type 0, BuildingBlock: BETFAJ_clean_sbu_0, # of connection points: 6
#     Node 13, Type 0, BuildingBlock: BETFAJ_clean_sbu_0, # of connection points: 6
#     Node 14, Type 0, BuildingBlock: BETFAJ_clean_sbu_0, # of connection points: 6
#     Node 15, Type 0, BuildingBlock: BETFAJ_clean_sbu_0, # of connection points: 6
#     Node 16, Type 0, BuildingBlock: BETFAJ_clean_sbu_0, # of connection points: 6
#     Node 17, Type 0, BuildingBlock: BETFAJ_clean_sbu_0, # of connection points: 6
#     Node 18, Type 0, BuildingBlock: BETFAJ_clean_sbu_0, # of connection points: 6
#     Node 19, Type 0, BuildingBlock: BETFAJ_clean_sbu_0, # of connection points: 6
#     Node 20, Type 0, BuildingBlock: BETFAJ_clean_sbu_0, # of connection points: 6
#     Node 21, Type 0, BuildingBlock: BETFAJ_clean_sbu_0, # of connection points: 6
#     Node 22, Type 0, BuildingBlock: BETFAJ_clean_sbu_0, # of connection points: 6
#     Node 23, Type 0, BuildingBlock: BETFAJ_clean_sbu_0, # of connection points: 6
#     Node 24, Type 0, BuildingBlock: BETFAJ_clean_sbu_0, # of connection points: 6
#     Node 25, Type 0, BuildingBlock: BETFAJ_clean_sbu_0, # of connection points: 6
#     Node 26, Type 0, BuildingBlock: BETFAJ_clean_sbu_0, # of connection points: 6
#     Node 27, Type 0, BuildingBlock: BETFAJ_clean_sbu_0, # of connection points: 6
#     Node 28, Type 0, BuildingBlock: BETFAJ_clean_sbu_0, # of connection points: 6
#     Node 29, Type 0, BuildingBlock: BETFAJ_clean_sbu_0, # of connection points: 6
#     Node 30, Type 0, BuildingBlock: BETFAJ_clean_sbu_0, # of connection points: 6
#     Node 31, Type 0, BuildingBlock: BETFAJ_clean_sbu_0, # of connection points: 6
#     Edge 32, Type (0, 0), BuildingBlock: OJICUG_clean_linker_0, # of connection points: 2
#     Edge 33, Type (0, 0), BuildingBlock: OJICUG_clean_linker_0, # of connection points: 2
#     Edge 34, Type (0, 0), BuildingBlock: OJICUG_clean_linker_0, # of connection points: 2
#     Edge 35, Type (0, 0), BuildingBlock: OJICUG_clean_linker_0, # of connection points: 2
#     Edge 36, Type (0, 0), BuildingBlock: OJICUG_clean_linker_0, # of connection points: 2
#     Edge 37, Type (0, 0), BuildingBlock: OJICUG_clean_linker_0, # of connection points: 2
#     Edge 38, Type (0, 0), BuildingBlock: OJICUG_clean_linker_0, # of connection points: 2
#     Edge 39, Type (0, 0), BuildingBlock: OJICUG_clean_linker_0, # of connection points: 2
#     Edge 40, Type (0, 0), BuildingBlock: OJICUG_clean_linker_0, # of connection points: 2
#     Edge 41, Type (0, 0), BuildingBlock: OJICUG_clean_linker_0, # of connection points: 2
#     Edge 42, Type (0, 0), BuildingBlock: OJICUG_clean_linker_0, # of connection points: 2
#     Edge 43, Type (0, 0), BuildingBlock: OJICUG_clean_linker_0, # of connection points: 2
#     Edge 44, Type (0, 0), BuildingBlock: OJICUG_clean_linker_0, # of connection points: 2
#     Edge 45, Type (0, 0), BuildingBlock: OJICUG_clean_linker_0, # of connection points: 2
#     Edge 46, Type (0, 0), BuildingBlock: OJICUG_clean_linker_0, # of connection points: 2
#     Edge 47, Type (0, 0), BuildingBlock: OJICUG_clean_linker_0, # of connection points: 2
#     Edge 48, Type (0, 0), BuildingBlock: OJICUG_clean_linker_0, # of connection points: 2
#     Edge 49, Type (0, 0), BuildingBlock: OJICUG_clean_linker_0, # of connection points: 2
#     Edge 50, Type (0, 0), BuildingBlock: OJICUG_clean_linker_0, # of connection points: 2
#     Edge 51, Type (0, 0), BuildingBlock: OJICUG_clean_linker_0, # of connection points: 2
#     Edge 52, Type (0, 0), BuildingBlock: OJICUG_clean_linker_0, # of connection points: 2
#     Edge 53, Type (0, 0), BuildingBlock: OJICUG_clean_linker_0, # of connection points: 2
#     Edge 54, Type (0, 0), BuildingBlock: OJICUG_clean_linker_0, # of connection points: 2
#     Edge 55, Type (0, 0), BuildingBlock: OJICUG_clean_linker_0, # of connection points: 2
#     Edge 56, Type (0, 0), BuildingBlock: OJICUG_clean_linker_0, # of connection points: 2
#     Edge 57, Type (0, 0), BuildingBlock: OJICUG_clean_linker_0, # of connection points: 2
#     Edge 58, Type (0, 0), BuildingBlock: OJICUG_clean_linker_0, # of connection points: 2
#     Edge 59, Type (0, 0), BuildingBlock: OJICUG_clean_linker_0, # of connection points: 2
#     Edge 60, Type (0, 0), BuildingBlock: OJICUG_clean_linker_0, # of connection points: 2
#     Edge 61, Type (0, 0), BuildingBlock: OJICUG_clean_linker_0, # of connection points: 2
#     Edge 62, Type (0, 0), BuildingBlock: OJICUG_clean_linker_0, # of connection points: 2
#     Edge 63, Type (0, 0), BuildingBlock: OJICUG_clean_linker_0, # of connection points: 2
#     Edge 64, Type (0, 0), BuildingBlock: OJICUG_clean_linker_0, # of connection points: 2
#     Edge 65, Type (0, 0), BuildingBlock: OJICUG_clean_linker_0, # of connection points: 2
#     Edge 66, Type (0, 0), BuildingBlock: OJICUG_clean_linker_0, # of connection points: 2
#     Edge 67, Type (0, 0), BuildingBlock: OJICUG_clean_linker_0, # of connection points: 2
#     Edge 68, Type (0, 0), BuildingBlock: OJICUG_clean_linker_0, # of connection points: 2
#     Edge 69, Type (0, 0), BuildingBlock: OJICUG_clean_linker_0, # of connection points: 2
#     Edge 70, Type (0, 0), BuildingBlock: OJICUG_clean_linker_0, # of connection points: 2
#     Edge 71, Type (0, 0), BuildingBlock: OJICUG_clean_linker_0, # of connection points: 2
#     Edge 72, Type (0, 0), BuildingBlock: OJICUG_clean_linker_0, # of connection points: 2
#     Edge 73, Type (0, 0), BuildingBlock: OJICUG_clean_linker_0, # of connection points: 2
#     Edge 74, Type (0, 0), BuildingBlock: OJICUG_clean_linker_0, # of connection points: 2
#     Edge 75, Type (0, 0), BuildingBlock: OJICUG_clean_linker_0, # of connection points: 2
#     Edge 76, Type (0, 0), BuildingBlock: OJICUG_clean_linker_0, # of connection points: 2
#     Edge 77, Type (0, 0), BuildingBlock: OJICUG_clean_linker_0, # of connection points: 2
#     Edge 78, Type (0, 0), BuildingBlock: OJICUG_clean_linker_0, # of connection points: 2
#     Edge 79, Type (0, 0), BuildingBlock: OJICUG_clean_linker_0, # of connection points: 2
#     Edge 80, Type (0, 0), BuildingBlock: OJICUG_clean_linker_0, # of connection points: 2
#     Edge 81, Type (0, 0), BuildingBlock: OJICUG_clean_linker_0, # of connection points: 2
#     Edge 82, Type (0, 0), BuildingBlock: OJICUG_clean_linker_0, # of connection points: 2
#     Edge 83, Type (0, 0), BuildingBlock: OJICUG_clean_linker_0, # of connection points: 2
#     Edge 84, Type (0, 0), BuildingBlock: OJICUG_clean_linker_0, # of connection points: 2
#     Edge 85, Type (0, 0), BuildingBlock: OJICUG_clean_linker_0, # of connection points: 2
#     Edge 86, Type (0, 0), BuildingBlock: OJICUG_clean_linker_0, # of connection points: 2
#     Edge 87, Type (0, 0), BuildingBlock: OJICUG_clean_linker_0, # of connection points: 2
#     Edge 88, Type (0, 0), BuildingBlock: OJICUG_clean_linker_0, # of connection points: 2
#     Edge 89, Type (0, 0), BuildingBlock: OJICUG_clean_linker_0, # of connection points: 2
#     Edge 90, Type (0, 0), BuildingBlock: OJICUG_clean_linker_0, # of connection points: 2
#     Edge 91, Type (0, 0), BuildingBlock: OJICUG_clean_linker_0, # of connection points: 2
#     Edge 92, Type (0, 0), BuildingBlock: OJICUG_clean_linker_0, # of connection points: 2
#     Edge 93, Type (0, 0), BuildingBlock: OJICUG_clean_linker_0, # of connection points: 2
#     Edge 94, Type (0, 0), BuildingBlock: OJICUG_clean_linker_0, # of connection points: 2
#     Edge 95, Type (0, 0), BuildingBlock: OJICUG_clean_linker_0, # of connection points: 2
#     Edge 96, Type (0, 0), BuildingBlock: OJICUG_clean_linker_0, # of connection points: 2
#     Edge 97, Type (0, 0), BuildingBlock: OJICUG_clean_linker_0, # of connection points: 2
#     Edge 98, Type (0, 0), BuildingBlock: OJICUG_clean_linker_0, # of connection points: 2
#     Edge 99, Type (0, 0), BuildingBlock: OJICUG_clean_linker_0, # of connection points: 2
#     Edge 100, Type (0, 0), BuildingBlock: OJICUG_clean_linker_0, # of connection points: 2
#     Edge 101, Type (0, 0), BuildingBlock: OJICUG_clean_linker_0, # of connection points: 2
#     Edge 102, Type (0, 0), BuildingBlock: OJICUG_clean_linker_0, # of connection points: 2
#     Edge 103, Type (0, 0), BuildingBlock: OJICUG_clean_linker_0, # of connection points: 2
#     Edge 104, Type (0, 0), BuildingBlock: OJICUG_clean_linker_0, # of connection points: 2
#     Edge 105, Type (0, 0), BuildingBlock: OJICUG_clean_linker_0, # of connection points: 2
#     Edge 106, Type (0, 0), BuildingBlock: OJICUG_clean_linker_0, # of connection points: 2
#     Edge 107, Type (0, 0), BuildingBlock: OJICUG_clean_linker_0, # of connection points: 2
#     Edge 108, Type (0, 0), BuildingBlock: OJICUG_clean_linker_0, # of connection points: 2
#     Edge 109, Type (0, 0), BuildingBlock: OJICUG_clean_linker_0, # of connection points: 2
#     Edge 110, Type (0, 0), BuildingBlock: OJICUG_clean_linker_0, # of connection points: 2
#     Edge 111, Type (0, 0), BuildingBlock: OJICUG_clean_linker_0, # of connection points: 2
#     Edge 112, Type (0, 0), BuildingBlock: OJICUG_clean_linker_0, # of connection points: 2
#     Edge 113, Type (0, 0), BuildingBlock: OJICUG_clean_linker_0, # of connection points: 2
#     Edge 114, Type (0, 0), BuildingBlock: OJICUG_clean_linker_0, # of connection points: 2
#     Edge 115, Type (0, 0), BuildingBlock: OJICUG_clean_linker_0, # of connection points: 2
#     Edge 116, Type (0, 0), BuildingBlock: OJICUG_clean_linker_0, # of connection points: 2
#     Edge 117, Type (0, 0), BuildingBlock: OJICUG_clean_linker_0, # of connection points: 2
#     Edge 118, Type (0, 0), BuildingBlock: OJICUG_clean_linker_0, # of connection points: 2
#     Edge 119, Type (0, 0), BuildingBlock: OJICUG_clean_linker_0, # of connection points: 2
#     Edge 120, Type (0, 0), BuildingBlock: OJICUG_clean_linker_0, # of connection points: 2
#     Edge 121, Type (0, 0), BuildingBlock: OJICUG_clean_linker_0, # of connection points: 2
#     Edge 122, Type (0, 0), BuildingBlock: OJICUG_clean_linker_0, # of connection points: 2
#     Edge 123, Type (0, 0), BuildingBlock: OJICUG_clean_linker_0, # of connection points: 2
#     Edge 124, Type (0, 0), BuildingBlock: OJICUG_clean_linker_0, # of connection points: 2
#     Edge 125, Type (0, 0), BuildingBlock: OJICUG_clean_linker_0, # of connection points: 2
#     Edge 126, Type (0, 0), BuildingBlock: OJICUG_clean_linker_0, # of connection points: 2
#     Edge 127, Type (0, 0), BuildingBlock: OJICUG_clean_linker_0, # of connection points: 2
# Relax obj value: 0.409
# Max RMSD: 0.348
# Mean RMSD: 0.264
data_MOF--net-wip--node1-BETFAJ_clean_sbu_0--edge1-OJICUG_clean_linker_0
_symmetry_space_group_name_H-M    P1
_symmetry_Int_Tables_number       1
_symmetry_cell_setting            triclinic
loop_
_symmetry_equiv_pos_as_xyz
'x, y, z'
_cell_length_a     47.544179
_cell_length_b     44.634867
_cell_length_c     28.078382
_cell_angle_alpha  95.97793
_cell_angle_beta   84.503992
_cell_angle_gamma 89.148263
loop_
_atom_site_label
_atom_site_type_symbol
_atom_site_fract_x
_atom_site_fract_y
_atom_site_fract_z
_atom_type_partial_charge
Sm0 Sm 0.04465 0.40108 0.12189 0.0
Sm1 Sm 0.08862 0.43203 0.06397 0.0
C2 C 0.0156 0.37044 0.18458 0.0
C3 C 0.01663 0.36526 0.23455 0.0
C4 C 0.04029 0.37356 0.25857 0.0
C5 C 0.03927 0.37315 0.30819 0.0
C6 C 0.01434 0.36501 0.33404 0.0
C7 C 0.99097 0.35597 0.30965 0.0
C8 C 0.99213 0.35609 0.26006 0.0
C9 C 0.02431 0.45643 0.10643 0.0
C10 C 0.08667 0.45105 0.17469 0.0
C11 C 0.11586 0.45787 0.99206 0.0
C12 C 0.10989 0.46973 0.94552 0.0
C13 C 0.10402 0.5006 0.94371 0.0
C14 C 0.10023 0.51215 0.89988 0.0
C15 C 0.10217 0.4933 0.85596 0.0
C16 C 0.10781 0.46232 0.85789 0.0
C17 C 0.11163 0.45078 0.9018 0.0
C18 C 0.11134 0.38891 0.11721 0.0
C19 C 0.034 0.40203 1.01199 0.0
O20 O 0.03586 0.35815 0.15353 0.0
O21 O 0.00965 0.39829 0.17851 0.0
O22 O 0.04967 0.45026 0.11226 0.0
O23 O 0.01072 0.4317 0.09895 0.0
O24 O 0.07007 0.42752 0.17823 0.0
O25 O 0.09393 0.46152 0.13309 0.0
O26 O 0.10532 0.473 1.03262 0.0
O27 O 0.11555 0.4286 0.99398 0.0
O28 O 0.08914 0.38577 0.09443 0.0
O29 O 0.12424 0.41252 0.10375 0.0
O30 O 0.05412 0.42177 1.01278 0.0
O31 O 0.02837 0.38607 0.04849 0.0
H32 H 0.05899 0.38157 0.23929 0.0
H33 H 0.0574 0.38053 0.32655 0.0
H34 H 0.97161 0.34946 0.32911 0.0
H35 H 0.97356 0.35021 0.24188 0.0
H36 H 0.1028 0.51609 0.97624 0.0
H37 H 0.09644 0.53616 0.90053 0.0
H38 H 0.10911 0.44677 0.82545 0.0
H39 H 0.11623 0.42691 0.90133 0.0
Sm40 Sm 0.84422 0.79935 0.38397 0.0
Sm41 Sm 0.8029 0.83765 0.33206 0.0
C42 C 0.88152 0.78815 0.44464 0.0
C43 C 0.88072 0.7783 0.49344 0.0
C44 C 0.89368 0.79611 0.52879 0.0
C45 C 0.89261 0.78834 0.57579 0.0
C46 C 0.87876 0.76228 0.58866 0.0
C47 C 0.8655 0.74452 0.55319 0.0
C48 C 0.86633 0.75254 0.5061 0.0
C49 C 0.79674 0.76687 0.38112 0.0
C50 C 0.78743 0.83712 0.44211 0.0
C51 C 0.77359 0.86181 0.26857 0.0
C52 C 0.76205 0.85727 0.22061 0.0
C53 C 0.73266 0.85764 0.21833 0.0
C54 C 0.72112 0.85703 0.17409 0.0
C55 C 0.73857 0.85595 0.13031 0.0
C56 C 0.7681 0.8551 0.13256 0.0
C57 C 0.77966 0.85582 0.17702 0.0
C58 C 0.8453 0.86799 0.37707 0.0
C59 C 0.84415 0.78429 0.2712 0.0
O60 O 0.87014 0.81468 0.44269 0.0
O61 O 0.87585 0.76853 0.40898 0.0
O62 O 0.79898 0.79216 0.36358 0.0
O63 O 0.82065 0.75693 0.39232 0.0
O64 O 0.81234 0.82367 0.44318 0.0
O65 O 0.77669 0.84297 0.40268 0.0
O66 O 0.7617 0.84808 0.30417 0.0
O67 O 0.80096 0.86421 0.26969 0.0
O68 O 0.8478 0.8428 0.35153 0.0
O69 O 0.81997 0.87894 0.37623 0.0
O70 O 0.82051 0.80032 0.27586 0.0
O71 O 0.86051 0.78282 0.30633 0.0
H72 H 0.90449 0.81635 0.52009 0.0
H73 H 0.90244 0.80307 0.60214 0.0
H74 H 0.85483 0.72418 0.56152 0.0
H75 H 0.85574 0.73861 0.47973 0.0
H76 H 0.71845 0.85926 0.25109 0.0
H77 H 0.69835 0.85829 0.17458 0.0
H78 H 0.7824 0.8538 0.09997 0.0
H79 H 0.80243 0.85572 0.1772 0.0
Sm80 Sm 0.44603 0.59146 0.67152 0.0
Sm81 Sm 0.40232 0.56056 0.61853 0.0
C82 C 0.47587 0.62171 0.734 0.0
C83 C 0.4753 0.62723 0.78578 0.0
C84 C 0.4524 0.61782 0.81527 0.0
C85 C 0.45379 0.619 0.86463 0.0
C86 C 0.47845 0.62882 0.88437 0.0
C87 C 0.5012 0.6386 0.85483 0.0
C88 C 0.49957 0.63788 0.80561 0.0
C89 C 0.46806 0.53756 0.62831 0.0
C90 C 0.40674 0.53854 0.71938 0.0
C91 C 0.37628 0.53517 0.54463 0.0
C92 C 0.38324 0.52362 0.49186 0.0
C93 C 0.39359 0.49393 0.47756 0.0
C94 C 0.39818 0.4825 0.4285 0.0
C95 C 0.39271 0.50023 0.39126 0.0
C96 C 0.38267 0.53011 0.40572 0.0
C97 C 0.37798 0.5415 0.45489 0.0
C98 C 0.37874 0.60021 0.69885 0.0
C99 C 0.4556 0.59267 0.55797 0.0
O100 O 0.45563 0.63432 0.71393 0.0
O101 O 0.4811 0.59363 0.71737 0.0
O102 O 0.44253 0.54241 0.64473 0.0
O103 O 0.48043 0.56298 0.62471 0.0
O104 O 0.42262 0.56261 0.72624 0.0
O105 O 0.39927 0.52877 0.67649 0.0
O106 O 0.38616 0.51989 0.57721 0.0
O107 O 0.37614 0.56439 0.55706 0.0
O108 O 0.40029 0.60553 0.66941 0.0
O109 O 0.3666 0.57669 0.67932 0.0
O110 O 0.43579 0.5726 0.55888 0.0
O111 O 0.46128 0.60816 0.59829 0.0
H112 H 0.43409 0.60836 0.79987 0.0
H113 H 0.43622 0.61098 0.88699 0.0
H114 H 0.52037 0.64623 0.86974 0.0
H115 H 0.51762 0.6445 0.78283 0.0
H116 H 0.39773 0.47913 0.50442 0.0
H117 H 0.40539 0.45929 0.42011 0.0
H118 H 0.37851 0.54503 0.37909 0.0
H119 H 0.36989 0.56439 0.46393 0.0
Sm120 Sm 0.67181 0.18893 0.84421 0.0
Sm121 Sm 0.71418 0.14375 0.87201 0.0
C122 C 0.64408 0.22926 0.80425 0.0
C123 C 0.64961 0.24126 0.75808 0.0
C124 C 0.67751 0.24333 0.73753 0.0
C125 C 0.68269 0.25179 0.69134 0.0
C126 C 0.66005 0.25816 0.66513 0.0
C127 C 0.63215 0.25593 0.68565 0.0
C128 C 0.62698 0.24745 0.73195 0.0
C129 C 0.64604 0.14139 0.88175 0.0
C130 C 0.71911 0.15403 0.75914 0.0
C131 C 0.74074 0.09889 0.90465 0.0
C132 C 0.74788 0.09067 0.95122 0.0
C133 C 0.72688 0.08284 0.98606 0.0
C134 C 0.73389 0.07789 1.03154 0.0
C135 C 0.762 0.08039 0.04258 0.0
C136 C 0.78314 0.08696 1.00718 0.0
C137 C 0.77612 0.09203 0.96177 0.0
C138 C 0.73473 0.20125 0.8661 0.0
C139 C 0.6792 0.19147 0.95962 0.0
O140 O 0.66193 0.23662 0.83613 0.0
O141 O 0.63776 0.20072 0.80078 0.0
O142 O 0.66907 0.13874 0.85377 0.0
O143 O 0.63488 0.16809 0.88371 0.0
O144 O 0.70295 0.17821 0.77425 0.0
O145 O 0.72294 0.13355 0.78883 0.0
O146 O 0.71418 0.09797 0.89614 0.0
O147 O 0.75347 0.12243 0.88989 0.0
O148 O 0.71062 0.19361 0.88029 0.0
O149 O 0.75016 0.17686 0.8539 0.0
O150 O 0.69478 0.16608 0.94837 0.0
O151 O 0.67021 0.20659 0.92527 0.0
H152 H 0.69528 0.23794 0.75682 0.0
H153 H 0.70438 0.253 0.6759 0.0
H154 H 0.6144 0.26102 0.66611 0.0
H155 H 0.60537 0.24531 0.74713 0.0
H156 H 0.70499 0.08125 0.97878 0.0
H157 H 0.71714 0.07324 0.05854 0.0
H158 H 0.805 0.08872 1.01489 0.0
H159 H 0.79267 0.09776 0.93522 0.0
Sm160 Sm 0.0458 0.58621 0.61536 0.0
Sm161 Sm 0.08276 0.53749 0.55765 0.0
C162 C 0.01379 0.62322 0.67743 0.0
C163 C 0.0043 0.62255 0.72795 0.0
C164 C 0.0068 0.59573 0.74932 0.0
C165 C 0.00065 0.59581 0.79867 0.0
C166 C 0.99186 0.62269 0.82694 0.0
C167 C 0.98842 0.64925 0.80515 0.0
C168 C 0.99475 0.64917 0.75574 0.0
C169 C 0.08806 0.60628 0.55237 0.0
C170 C 0.08497 0.54311 0.67411 0.0
C171 C 0.12179 0.50884 0.49676 0.0
C172 C 0.1298 0.50962 0.446 0.0
C173 C 0.14677 0.48619 0.42126 0.0
C174 C 0.14753 0.48122 0.37155 0.0
C175 C 0.13087 0.49941 0.34685 0.0
C176 C 0.11666 0.5251 0.3712 0.0
C177 C 0.11609 0.53018 0.42093 0.0
C178 C 0.0389 0.51469 0.61041 0.0
C179 C 0.02992 0.56999 0.50804 0.0
O180 O 0.00349 0.6024 0.6481 0.0
O181 O 0.04101 0.62664 0.66834 0.0
O182 O 0.09073 0.58567 0.57937 0.0
O183 O 0.06303 0.61848 0.56159 0.0
O184 O 0.06327 0.56209 0.67575 0.0
O185 O 0.09905 0.53297 0.63237 0.0
O186 O 0.12685 0.53322 0.52436 0.0
O187 O 0.09664 0.4981 0.50652 0.0
O188 O 0.0374 0.5381 0.58894 0.0
O189 O 0.06328 0.50085 0.60034 0.0
O190 O 0.05482 0.55519 0.50029 0.0
O191 O 0.01949 0.58036 0.55188 0.0
H192 H 0.0141 0.57495 0.72806 0.0
H193 H 0.00321 0.57504 0.81484 0.0
H194 H 0.98194 0.67027 0.82652 0.0
H195 H 0.99296 0.67 0.73944 0.0
H196 H 0.15729 0.4702 0.44055 0.0
H197 H 0.15857 0.46129 0.35304 0.0
H198 H 0.10346 0.53917 0.35274 0.0
H199 H 0.10282 0.54832 0.44003 0.0
Sm200 Sm 0.65295 0.80627 0.87255 0.0
Sm201 Sm 0.6998 0.83548 0.83174 0.0
C202 C 0.61544 0.7833 0.93295 0.0
C203 C 0.61742 0.77523 0.98198 0.0
C204 C 0.64369 0.76741 0.99693 0.0
C205 C 0.64564 0.76063 0.04396 0.0
C206 C 0.62139 0.76181 0.07708 0.0
C207 C 0.5952 0.77004 0.06197 0.0
C208 C 0.59327 0.77665 1.01482 0.0
C209 C 0.63622 0.84082 0.80108 0.0
C210 C 0.68946 0.84887 0.946 0.0
C211 C 0.73357 0.86703 0.77787 0.0
C212 C 0.73297 0.87301 0.72842 0.0
C213 C 0.71212 0.85961 0.70186 0.0
C214 C 0.71464 0.85913 0.6523 0.0
C215 C 0.73797 0.87225 0.62935 0.0
C216 C 0.75751 0.88799 0.65616 0.0
C217 C 0.75507 0.88824 0.70594 0.0
C218 C 0.71955 0.79271 0.88557 0.0
C219 C 0.67269 0.77766 0.76997 0.0
O220 O 0.631 0.76681 0.89868 0.0
O221 O 0.61627 0.81216 0.92828 0.0
O222 O 0.65347 0.84941 0.83217 0.0
O223 O 0.62557 0.81561 0.81172 0.0
O224 O 0.67211 0.82659 0.94037 0.0
O225 O 0.70041 0.86099 0.90788 0.0
O226 O 0.71262 0.87927 0.80738 0.0
O227 O 0.73858 0.83869 0.78295 0.0
O228 O 0.69897 0.78875 0.85974 0.0
O229 O 0.73076 0.81856 0.88084 0.0
O230 O 0.68642 0.8031 0.76803 0.0
O231 O 0.66179 0.76966 0.81127 0.0
H232 H 0.66274 0.76658 0.97225 0.0
H233 H 0.6661 0.75413 0.0541 0.0
H234 H 0.5762 0.77181 0.08675 0.0
H235 H 0.57293 0.78314 1.00412 0.0
H236 H 0.69509 0.84764 0.71908 0.0
H237 H 0.69977 0.84648 0.63169 0.0
H238 H 0.77596 0.89761 0.63838 0.0
H239 H 0.77134 0.89843 0.72633 0.0
Sm240 Sm 0.45223 0.40798 0.0995 0.0
Sm241 Sm 0.4143 0.45527 0.06979 0.0
C242 C 0.48458 0.37156 0.13947 0.0
C243 C 0.49376 0.37237 0.18738 0.0
C244 C 0.491 0.39925 0.21831 0.0
C245 C 0.49681 0.39931 0.26584 0.0
C246 C 0.50562 0.37254 0.28261 0.0
C247 C 0.50923 0.3459 0.25117 0.0
C248 C 0.50317 0.34581 0.20367 0.0
C249 C 0.41175 0.38602 0.04112 0.0
C250 C 0.41231 0.4503 0.18587 0.0
C251 C 0.37497 0.48349 1.03088 0.0
C252 C 0.36551 0.48083 0.98324 0.0
C253 C 0.34668 0.5026 0.97168 0.0
C254 C 0.34444 0.50627 0.92368 0.0
C255 C 0.3615 0.48852 0.88754 0.0
C256 C 0.37727 0.464 0.89914 0.0
C257 C 0.37942 0.46029 0.94714 0.0
C258 C 0.45716 0.47986 0.1166 0.0
C259 C 0.46809 0.42449 0.99257 0.0
O260 O 0.49467 0.39258 0.1139 0.0
O261 O 0.45746 0.36764 0.13757 0.0
O262 O 0.40765 0.40645 0.0761 0.0
O263 O 0.43717 0.37502 0.0392 0.0
O264 O 0.43427 0.43164 0.17409 0.0
O265 O 0.39808 0.45996 0.15178 0.0
O266 O 0.36967 0.46059 0.05553 0.0
O267 O 0.40073 0.4933 1.03263 0.0
O268 O 0.45958 0.45641 0.08696 0.0
O269 O 0.4324 0.49273 0.11847 0.0
O270 O 0.44258 0.43801 0.99745 0.0
O271 O 0.47889 0.41501 1.02999 0.0
H272 H 0.48376 0.41996 0.20602 0.0
H273 H 0.49405 0.42009 0.28965 0.0
H274 H 0.51571 0.32498 0.26381 0.0
H275 H 0.50508 0.32492 0.18007 0.0
H276 H 0.33593 0.51855 0.99948 0.0
H277 H 0.33224 0.52535 0.91503 0.0
H278 H 0.39077 0.45029 0.87171 0.0
H279 H 0.39414 0.44344 0.95591 0.0
Sm280 Sm 0.83105 0.1815 0.49308 0.0
Sm281 Sm 0.78621 0.1423 0.45105 0.0
C282 C 0.85752 0.21398 0.55879 0.0
C283 C 0.85034 0.22654 0.61034 0.0
C284 C 0.82444 0.24179 0.62648 0.0
C285 C 0.81851 0.25389 0.67492 0.0
C286 C 0.83822 0.25106 0.70888 0.0
C287 C 0.86391 0.23534 0.69255 0.0
C288 C 0.8698 0.22328 0.64421 0.0
C289 C 0.85417 0.14113 0.41451 0.0
C290 C 0.7821 0.1489 0.56543 0.0
C291 C 0.76112 0.10257 0.39503 0.0
C292 C 0.76376 0.09678 0.34273 0.0
C293 C 0.77062 0.06769 0.3205 0.0
C294 C 0.77482 0.06261 0.27054 0.0
C295 C 0.77234 0.08667 0.24269 0.0
C296 C 0.76576 0.11579 0.26509 0.0
C297 C 0.76155 0.12082 0.31471 0.0
C298 C 0.76517 0.19992 0.48555 0.0
C299 C 0.81802 0.19413 0.38775 0.0
O300 O 0.8444 0.22593 0.52588 0.0
O301 O 0.86082 0.18453 0.55012 0.0
O302 O 0.83411 0.13515 0.44673 0.0
O303 O 0.86578 0.16574 0.43139 0.0
O304 O 0.79883 0.17159 0.55788 0.0
O305 O 0.7778 0.12903 0.52891 0.0
O306 O 0.78358 0.09573 0.41557 0.0
O307 O 0.74933 0.12847 0.4128 0.0
O308 O 0.78955 0.1918 0.46822 0.0
O309 O 0.75033 0.17568 0.4871 0.0
O310 O 0.80356 0.16876 0.38787 0.0
O311 O 0.82801 0.20723 0.42721 0.0
H312 H 0.8087 0.24442 0.60167 0.0
H313 H 0.79827 0.26522 0.68575 0.0
H314 H 0.87991 0.23281 0.71688 0.0
H315 H 0.88986 0.21158 0.63313 0.0
H316 H 0.77291 0.04904 0.34175 0.0
H317 H 0.77998 0.04001 0.25366 0.0
H318 H 0.76318 0.1346 0.24425 0.0
H319 H 0.75651 0.14356 0.33102 0.0
Sm320 Sm 0.90691 0.56367 0.30264 0.0
Sm321 Sm 0.95108 0.59425 0.24448 0.0
C322 C 0.87964 0.53796 0.37468 0.0
C323 C 0.8856 0.52614 0.42125 0.0
C324 C 0.88569 0.54541 0.4644 0.0
C325 C 0.88946 0.53391 0.50838 0.0
C326 C 0.89324 0.5027 0.51091 0.0
C327 C 0.89337 0.48354 0.46753 0.0
C328 C 0.88961 0.49502 0.42365 0.0
C329 C 0.88437 0.60685 0.24936 0.0
C330 C 0.96159 0.59365 0.35447 0.0
C331 C 0.9804 0.62443 0.18148 0.0
C332 C 0.97918 0.62964 0.13157 0.0
C333 C 0.95542 0.62128 0.10785 0.0
C334 C 0.95617 0.62182 0.0583 0.0
C335 C 0.98095 0.63012 1.0322 0.0
C336 C 0.00444 0.63917 0.05627 0.0
C337 C 0.00352 0.63894 0.10583 0.0
C338 C 0.97101 0.53879 0.26055 0.0
C339 C 0.90868 0.54454 0.19204 0.0
O340 O 0.89016 0.52276 0.33418 0.0
O341 O 0.88 0.56722 0.37264 0.0
O342 O 0.90668 0.60983 0.27186 0.0
O343 O 0.8713 0.58341 0.2631 0.0
O344 O 0.94135 0.57405 0.35386 0.0
O345 O 0.9674 0.60939 0.31776 0.0
O346 O 0.96042 0.63704 0.21277 0.0
O347 O 0.98598 0.59648 0.1875 0.0
O348 O 0.94577 0.54515 0.2543 0.0
O349 O 0.9847 0.56345 0.26803 0.0
O350 O 0.92538 0.56796 0.18836 0.0
O351 O 0.90142 0.53413 0.23368 0.0
H352 H 0.8826 0.56949 0.46441 0.0
H353 H 0.8896 0.54966 0.54039 0.0
H354 H 0.89571 0.45938 0.46743 0.0
H355 H 0.88938 0.47933 0.39157 0.0
H356 H 0.93686 0.61314 0.12731 0.0
H357 H 0.93797 0.61442 0.04017 0.0
H358 H 0.02369 0.64576 0.03659 0.0
H359 H 0.02217 0.64486 0.12377 0.0
Sm360 Sm 0.19418 0.15356 0.03545 0.0
Sm361 Sm 0.15944 0.19567 0.98388 0.0
C362 C 0.22271 0.12784 0.09838 0.0
C363 C 0.23404 0.13268 0.14648 0.0
C364 C 0.2634 0.13329 0.14905 0.0
C365 C 0.27482 0.13471 0.19346 0.0
C366 C 0.25727 0.13563 0.2371 0.0
C367 C 0.22777 0.13542 0.23455 0.0
C368 C 0.21633 0.1339 0.18992 0.0
C369 C 0.14842 0.12827 0.99311 0.0
C370 C 0.15633 0.20881 0.09587 0.0
C371 C 0.12844 0.21974 0.92314 0.0
C372 C 0.13013 0.22504 0.87186 0.0
C373 C 0.13264 0.20116 0.83473 0.0
C374 C 0.13258 0.20695 0.78669 0.0
C375 C 0.1301 0.23671 0.77487 0.0
C376 C 0.12839 0.26051 0.81209 0.0
C377 C 0.12829 0.25471 0.85998 0.0
C378 C 0.21018 0.22049 1.00189 0.0
C379 C 0.20826 0.14751 0.9235 0.0
O380 O 0.23493 0.14144 0.06298 0.0
O381 O 0.19532 0.12594 0.0969 0.0
O382 O 0.1486 0.15382 1.01738 0.0
O383 O 0.17213 0.11399 0.99548 0.0
O384 O 0.18001 0.1929 0.09064 0.0
O385 O 0.14032 0.21039 0.06046 0.0
O386 O 0.12596 0.19203 0.9337 0.0
O387 O 0.14517 0.23535 0.94985 0.0
O388 O 0.20638 0.19269 0.99091 0.0
O389 O 0.18592 0.23454 1.01196 0.0
O390 O 0.18638 0.16622 0.92315 0.0
O391 O 0.21815 0.14049 0.96312 0.0
H392 H 0.27771 0.13191 0.11643 0.0
H393 H 0.29759 0.13424 0.19325 0.0
H394 H 0.2134 0.13655 0.26704 0.0
H395 H 0.19359 0.13328 0.18952 0.0
H396 H 0.13421 0.178 0.84274 0.0
H397 H 0.13371 0.18806 0.75898 0.0
H398 H 0.12708 0.28371 0.80428 0.0
H399 H 0.12647 0.27351 0.88791 0.0
Sm400 Sm 0.59152 0.43619 0.74908 0.0
Sm401 Sm 0.54805 0.405 0.69544 0.0
C402 C 0.61774 0.46178 0.8227 0.0
C403 C 0.6113 0.47241 0.87567 0.0
C404 C 0.58514 0.48601 0.89502 0.0
C405 C 0.58029 0.49713 0.94432 0.0
C406 C 0.60144 0.49524 0.97633 0.0
C407 C 0.62741 0.48108 0.95663 0.0
C408 C 0.63215 0.46987 0.90749 0.0
C409 C 0.61542 0.39659 0.66879 0.0
C410 C 0.53813 0.40382 0.80913 0.0
C411 C 0.51887 0.3744 0.63232 0.0
C412 C 0.52007 0.36863 0.58047 0.0
C413 C 0.54271 0.37906 0.55155 0.0
C414 C 0.54166 0.37782 0.5021 0.0
C415 C 0.5176 0.36682 0.48165 0.0
C416 C 0.49523 0.35579 0.51058 0.0
C417 C 0.49651 0.35664 0.55991 0.0
C418 C 0.5258 0.45876 0.73867 0.0
C419 C 0.58734 0.45817 0.64809 0.0
O420 O 0.60638 0.47702 0.79154 0.0
O421 O 0.6186 0.43263 0.80957 0.0
O422 O 0.5938 0.39126 0.69806 0.0
O423 O 0.62738 0.42021 0.68837 0.0
O424 O 0.5582 0.42361 0.80851 0.0
O425 O 0.53234 0.38856 0.76869 0.0
O426 O 0.53882 0.36193 0.65325 0.0
O427 O 0.51348 0.40253 0.64852 0.0
O428 O 0.55135 0.45402 0.7223 0.0
O429 O 0.51345 0.4333 0.74199 0.0
O430 O 0.57151 0.43409 0.64106 0.0
O431 O 0.59473 0.46793 0.69105 0.0
H432 H 0.56838 0.48823 0.87197 0.0
H433 H 0.55971 0.50705 0.95717 0.0
H434 H 0.64461 0.47921 0.97879 0.0
H435 H 0.65254 0.45958 0.89408 0.0
H436 H 0.56049 0.38939 0.56749 0.0
H437 H 0.55893 0.38679 0.48026 0.0
H438 H 0.47653 0.34719 0.49514 0.0
H439 H 0.47867 0.34914 0.58221 0.0
Sm440 Sm 0.28214 0.85318 0.49641 0.0
Sm441 Sm 0.32409 0.80739 0.52422 0.0
C442 C 0.2567 0.89831 0.46233 0.0
C443 C 0.25121 0.90418 0.4142 0.0
C444 C 0.2605 0.88302 0.37538 0.0
C445 C 0.2529 0.88648 0.3299 0.0
C446 C 0.23583 0.91116 0.32289 0.0
C447 C 0.22726 0.93298 0.36129 0.0
C448 C 0.23482 0.92936 0.40715 0.0
C449 C 0.26076 0.79609 0.50235 0.0
C450 C 0.31689 0.80423 0.40936 0.0
C451 C 0.35183 0.76728 0.56456 0.0
C452 C 0.34618 0.75546 0.61079 0.0
C453 C 0.31829 0.75453 0.63188 0.0
C454 C 0.31302 0.74638 0.6782 0.0
C455 C 0.33559 0.73903 0.70394 0.0
C456 C 0.3635 0.74006 0.68282 0.0
C457 C 0.36875 0.74835 0.63642 0.0
C458 C 0.35 0.85454 0.48569 0.0
C459 C 0.27682 0.84271 0.60911 0.0
O460 O 0.28319 0.89868 0.47103 0.0
O461 O 0.24339 0.87534 0.47781 0.0
O462 O 0.2851 0.80325 0.48843 0.0
O463 O 0.24558 0.8207 0.51396 0.0
O464 O 0.30205 0.83008 0.42066 0.0
O465 O 0.32527 0.78878 0.44372 0.0
O466 O 0.33401 0.75978 0.5327 0.0
O467 O 0.35809 0.79584 0.56789 0.0
O468 O 0.32727 0.85753 0.51439 0.0
O469 O 0.36088 0.8277 0.48346 0.0
O470 O 0.29277 0.81837 0.59395 0.0
O471 O 0.27332 0.86336 0.57956 0.0
H472 H 0.27289 0.8634 0.38043 0.0
H473 H 0.26004 0.86969 0.3003 0.0
H474 H 0.21412 0.95217 0.356 0.0
H475 H 0.22737 0.9457 0.43713 0.0
H476 H 0.3006 0.76054 0.61286 0.0
H477 H 0.29134 0.74612 0.69407 0.0
H478 H 0.38118 0.73416 0.70195 0.0
H479 H 0.39038 0.74959 0.62076 0.0
Sm480 Sm 0.91269 0.45865 0.80939 0.0
Sm481 Sm 0.94918 0.40959 0.75138 0.0
C482 C 0.87378 0.48745 0.87032 0.0
C483 C 0.86559 0.48646 0.92097 0.0
C484 C 0.84842 0.50973 0.94572 0.0
C485 C 0.84746 0.51453 0.99547 0.0
C486 C 0.86411 0.49634 1.02018 0.0
C487 C 0.87848 0.47077 0.99577 0.0
C488 C 0.87927 0.46587 0.946 0.0
C489 C 0.95653 0.48116 0.75635 0.0
C490 C 0.96544 0.42571 0.85862 0.0
C491 C 0.9808 0.37237 0.68904 0.0
C492 C 0.99008 0.37294 0.63842 0.0
C493 C 0.98744 0.39968 0.61688 0.0
C494 C 0.99354 0.39951 0.5675 0.0
C495 C 0.00245 0.37262 0.53937 0.0
C496 C 0.00597 0.34613 0.5613 0.0
C497 C -0.00033 0.34629 0.61073 0.0
C498 C 0.9068 0.38998 0.81475 0.0
C499 C 0.91021 0.4531 0.69294 0.0
O500 O 0.86855 0.46325 0.84241 0.0
O501 O 0.89906 0.49795 0.86088 0.0
O502 O 0.95796 0.45761 0.77755 0.0
O503 O 0.93231 0.49524 0.76684 0.0
O504 O 0.94068 0.44078 0.86653 0.0
O505 O 0.97566 0.41516 0.81474 0.0
O506 O 0.99132 0.39315 0.71814 0.0
O507 O 0.95358 0.3691 0.69851 0.0
O508 O 0.90431 0.41056 0.78764 0.0
O509 O 0.93171 0.37749 0.8053 0.0
O510 O 0.93166 0.43378 0.69112 0.0
O511 O 0.8964 0.46353 0.73477 0.0
H512 H 0.83791 0.52574 0.92646 0.0
H513 H 0.83629 0.53437 1.01404 0.0
H514 H 0.89169 0.45671 1.01423 0.0
H515 H 0.8927 0.44786 0.92688 0.0
H516 H 0.98013 0.42048 0.63806 0.0
H517 H 0.99092 0.42023 0.55123 0.0
H518 H 0.01254 0.3251 0.54004 0.0
H519 H 0.00157 0.32553 0.62715 0.0
Sm520 Sm 0.29551 0.15961 0.53596 0.0
Sm521 Sm 0.34237 0.18903 0.49483 0.0
C522 C 0.26182 0.12738 0.58889 0.0
C523 C 0.26262 0.11974 0.63747 0.0
C524 C 0.2834 0.13233 0.66497 0.0
C525 C 0.28153 0.13002 0.71392 0.0
C526 C 0.25862 0.11542 0.73556 0.0
C527 C 0.2392 0.10053 0.70736 0.0
C528 C 0.24119 0.10277 0.65812 0.0
C529 C 0.27576 0.20257 0.48215 0.0
C530 C 0.32229 0.21744 0.59769 0.0
C531 C 0.37946 0.21244 0.43421 0.0
C532 C 0.37712 0.22057 0.38527 0.0
C533 C 0.35067 0.22813 0.37073 0.0
C534 C 0.34838 0.23498 0.32382 0.0
C535 C 0.37246 0.23412 0.29036 0.0
C536 C 0.39884 0.22618 0.30506 0.0
C537 C 0.40112 0.2195 0.3521 0.0
C538 C 0.35916 0.15463 0.56637 0.0
C539 C 0.30592 0.14597 0.42184 0.0
O540 O 0.28242 0.11545 0.5583 0.0
O541 O 0.25722 0.15608 0.58587 0.0
O542 O 0.29637 0.20637 0.50784 0.0
O543 O 0.26442 0.1768 0.48703 0.0
O544 O 0.30886 0.19182 0.59984 0.0
O545 O 0.33308 0.22548 0.55633 0.0
O546 O 0.36394 0.22874 0.46875 0.0
O547 O 0.37892 0.18355 0.43878 0.0
O548 O 0.34194 0.14596 0.53525 0.0
O549 O 0.36983 0.17981 0.55561 0.0
O550 O 0.32314 0.1684 0.42724 0.0
O551 O 0.2951 0.13391 0.46005 0.0
H552 H 0.29989 0.14569 0.6492 0.0
H553 H 0.2964 0.14195 0.73549 0.0
H554 H 0.22107 0.08973 0.72393 0.0
H555 H 0.22504 0.09308 0.63694 0.0
H556 H 0.33174 0.22869 0.39564 0.0
H557 H 0.32778 0.24126 0.31402 0.0
H558 H 0.41773 0.22466 0.28004 0.0
H559 H 0.42159 0.21323 0.36247 0.0
Sm560 Sm 0.57934 0.54107 0.29759 0.0
Sm561 Sm 0.54191 0.58866 0.2677 0.0
C562 C 0.61851 0.51286 0.33679 0.0
C563 C 0.62797 0.51577 0.38444 0.0
C564 C 0.64723 0.49445 0.39605 0.0
C565 C 0.64969 0.49103 0.44408 0.0
C566 C 0.6324 0.50856 0.48019 0.0
C567 C 0.61618 0.5327 0.46849 0.0
C568 C 0.61382 0.53617 0.42047 0.0
C569 C 0.53654 0.51672 0.25051 0.0
C570 C 0.52548 0.57205 0.37443 0.0
C571 C 0.51037 0.62562 0.22739 0.0
C572 C 0.50162 0.6249 0.17922 0.0
C573 C 0.50348 0.59776 0.14891 0.0
C574 C 0.49801 0.5976 0.10121 0.0
C575 C 0.49057 0.62458 0.08359 0.0
C576 C 0.48806 0.65157 0.1143 0.0
C577 C 0.49371 0.65173 0.162 0.0
C578 C 0.5822 0.61013 0.32686 0.0
C579 C 0.58157 0.54599 0.18142 0.0
O580 O 0.62395 0.53557 0.31178 0.0
O581 O 0.59271 0.50315 0.33518 0.0
O582 O 0.53414 0.54027 0.27994 0.0
O583 O 0.56118 0.50365 0.249 0.0
O584 O 0.5509 0.55834 0.36969 0.0
O585 O 0.51489 0.58171 0.33695 0.0
O586 O 0.4998 0.60474 0.25282 0.0
O587 O 0.53749 0.62921 0.22986 0.0
O588 O 0.58636 0.58988 0.29161 0.0
O589 O 0.55684 0.62124 0.32859 0.0
O590 O 0.55979 0.56491 0.19306 0.0
O591 O 0.5956 0.53617 0.21563 0.0
H592 H 0.6582 0.47863 0.36831 0.0
H593 H 0.66225 0.47224 0.45281 0.0
H594 H 0.60251 0.54625 0.49588 0.0
H595 H 0.5988 0.5527 0.41166 0.0
H596 H 0.5097 0.57686 0.16184 0.0
H597 H 0.49991 0.57655 0.07798 0.0
H598 H 0.48269 0.67264 0.10099 0.0
H599 H 0.49261 0.67283 0.18507 0.0
Sm600 Sm 0.20941 0.85461 0.91676 0.0
Sm601 Sm 0.16486 0.81501 0.87542 0.0
C602 C 0.23443 0.89469 0.97226 0.0
C603 C 0.23257 0.89994 1.02465 0.0
C604 C 0.22192 0.92759 0.04824 0.0
C605 C 0.21771 0.93159 0.09827 0.0
C606 C 0.22408 0.90792 0.1249 0.0
C607 C 0.23498 0.8804 0.10117 0.0
C608 C 0.23901 0.87637 0.05151 0.0
C609 C 0.23086 0.79704 0.88299 0.0
C610 C 0.17844 0.80288 0.98096 0.0
C611 C 0.13859 0.78203 0.81003 0.0
C612 C 0.14582 0.76933 0.75853 0.0
C613 C 0.17127 0.75305 0.74289 0.0
C614 C 0.17725 0.74089 0.69449 0.0
C615 C 0.15804 0.74466 0.66004 0.0
C616 C 0.13281 0.76136 0.67589 0.0
C617 C 0.12688 0.77349 0.72418 0.0
C618 C 0.14154 0.85524 0.95402 0.0
C619 C 0.21341 0.84776 0.80253 0.0
O620 O 0.2114 0.90108 0.95293 0.0
O621 O 0.24668 0.86928 0.95324 0.0
O622 O 0.20639 0.80494 0.90008 0.0
O623 O 0.24558 0.82135 0.88153 0.0
O624 O 0.19268 0.82837 0.98047 0.0
O625 O 0.16835 0.78961 0.94168 0.0
O626 O 0.15179 0.77034 0.8431 0.0
O627 O 0.13503 0.81146 0.81849 0.0
O628 O 0.16139 0.86145 0.92155 0.0
O629 O 0.13016 0.83045 0.93731 0.0
O630 O 0.19695 0.8249 0.81037 0.0
O631 O 0.21748 0.86784 0.83886 0.0
H632 H 0.21639 0.94582 1.02796 0.0
H633 H 0.20921 0.95296 0.11609 0.0
H634 H 0.24072 0.86202 0.12098 0.0
H635 H 0.24693 0.85461 0.03436 0.0
H636 H 0.18663 0.74967 0.76806 0.0
H637 H 0.19715 0.72878 0.68407 0.0
H638 H 0.11716 0.76463 0.65122 0.0
H639 H 0.10717 0.78597 0.73484 0.0
Sm640 Sm 0.54472 0.90156 0.62202 0.0
Sm641 Sm 0.58878 0.93233 0.56398 0.0
C642 C 0.51558 0.87113 0.68488 0.0
C643 C 0.51673 0.86598 0.73484 0.0
C644 C 0.54052 0.87418 0.75859 0.0
C645 C 0.53968 0.87377 0.80818 0.0
C646 C 0.5148 0.86574 0.83428 0.0
C647 C 0.49128 0.85681 0.81018 0.0
C648 C 0.49228 0.85693 0.7606 0.0
C649 C 0.52455 0.95694 0.60642 0.0
C650 C 0.5869 0.95137 0.67475 0.0
C651 C 0.61647 0.95813 0.4924 0.0
C652 C 0.611 0.9691 0.44529 0.0
C653 C 0.58489 0.98225 0.43777 0.0
C654 C 0.58084 0.99345 0.39366 0.0
C655 C 0.60276 0.99196 0.35555 0.0
C656 C 0.62866 0.97822 0.36321 0.0
C657 C 0.63264 0.96697 0.40721 0.0
C658 C 0.61134 0.88918 0.61732 0.0
C659 C 0.5342 0.90218 0.512 0.0
O660 O 0.53571 0.8587 0.65372 0.0
O661 O 0.50977 0.89902 0.67881 0.0
O662 O 0.54989 0.95071 0.6123 0.0
O663 O 0.51096 0.93223 0.59873 0.0
O664 O 0.57021 0.92793 0.67833 0.0
O665 O 0.59425 0.96178 0.63312 0.0
O666 O 0.60464 0.97329 0.53199 0.0
O667 O 0.61664 0.92891 0.49472 0.0
O668 O 0.58915 0.88609 0.5945 0.0
O669 O 0.62428 0.91279 0.60398 0.0
O670 O 0.55453 0.92168 0.51249 0.0
O671 O 0.52834 0.88651 0.54877 0.0
H672 H 0.55918 0.88211 0.73911 0.0
H673 H 0.55791 0.88105 0.82633 0.0
H674 H 0.47196 0.85041 0.82985 0.0
H675 H 0.47361 0.85113 0.74263 0.0
H676 H 0.56761 0.98401 0.46608 0.0
H677 H 0.56033 0.00314 0.38949 0.0
H678 H 0.6463 0.97673 0.33564 0.0
H679 H 0.65297 0.95694 0.41175 0.0
Sm680 Sm 0.3363 0.30026 0.88327 0.0
Sm681 Sm 0.30187 0.34243 0.83141 0.0
C682 C 0.36682 0.2763 0.9448 0.0
C683 C 0.36482 0.27194 0.99663 0.0
C684 C 0.37562 0.29339 1.02995 0.0
C685 C 0.37546 0.28829 0.07824 0.0
C686 C 0.36474 0.26148 0.09431 0.0
C687 C 0.3535 0.24028 0.06107 0.0
C688 C 0.35353 0.24545 1.01286 0.0
C689 C 0.28573 0.2754 0.865 0.0
C690 C 0.28741 0.34849 0.94325 0.0
C691 C 0.27363 0.36833 0.76829 0.0
C692 C 0.26224 0.36355 0.72025 0.0
C693 C 0.23286 0.36337 0.71778 0.0
C694 C 0.22141 0.36197 0.6734 0.0
C695 C 0.23894 0.36063 0.6297 0.0
C696 C 0.26846 0.36043 0.63215 0.0
C697 C 0.27993 0.36194 0.67674 0.0
C698 C 0.34756 0.36759 0.87426 0.0
C699 C 0.3396 0.28694 0.77129 0.0
O700 O 0.37002 0.30369 0.9331 0.0
O701 O 0.34988 0.26082 0.9183 0.0
O702 O 0.28939 0.30328 0.87573 0.0
O703 O 0.31 0.26138 0.855 0.0
O704 O 0.30929 0.32981 0.94377 0.0
O705 O 0.27763 0.35549 0.90353 0.0
O706 O 0.26125 0.35495 0.80381 0.0
O707 O 0.30104 0.3699 0.76971 0.0
O708 O 0.34735 0.34211 0.84983 0.0
O709 O 0.32389 0.38191 0.87176 0.0
O710 O 0.31602 0.30303 0.77632 0.0
O711 O 0.35549 0.28525 0.80683 0.0
H712 H 0.38457 0.31398 1.01865 0.0
H713 H 0.38387 0.30536 0.1029 0.0
H714 H 0.34546 0.21918 0.07188 0.0
H715 H 0.34524 0.22834 0.98809 0.0
H716 H 0.21857 0.36506 0.75045 0.0
H717 H 0.19864 0.36276 0.67368 0.0
H718 H 0.2828 0.35899 0.59959 0.0
H719 H 0.30268 0.36222 0.67707 0.0
Sm720 Sm 0.9463 0.08974 0.17166 0.0
Sm721 Sm 0.90236 0.06245 0.11689 0.0
C722 C 0.97616 0.11808 0.23592 0.0
C723 C 0.97498 0.12354 0.28771 0.0
C724 C 0.95221 0.11326 0.31656 0.0
C725 C 0.95315 0.11473 0.36606 0.0
C726 C 0.97721 0.12574 0.38649 0.0
C727 C -0.00028 0.13649 0.35759 0.0
C728 C -0.00145 0.13547 0.30826 0.0
C729 C 0.96833 0.03728 0.12444 0.0
C730 C 0.90672 0.03503 0.21325 0.0
C731 C 0.87531 0.0398 0.04252 0.0
C732 C 0.88226 0.02817 0.9899 0.0
C733 C 0.89275 -0.00149 0.9758 0.0
C734 C 0.89744 0.98703 0.92684 0.0
C735 C 0.89199 0.00469 0.88954 0.0
C736 C 0.8818 0.03454 0.9038 0.0
C737 C 0.87696 0.04597 0.95289 0.0
C738 C 0.87985 0.10032 0.20025 0.0
C739 C 0.9567 0.09367 0.0583 0.0
O740 O 0.95691 0.13177 0.21512 0.0
O741 O 0.98041 0.08985 0.21931 0.0
O742 O 0.94255 0.04156 0.1401 0.0
O743 O 0.98065 0.06286 0.12276 0.0
O744 O 0.92348 0.05801 0.22308 0.0
O745 O 0.89805 0.02833 0.1704 0.0
O746 O 0.8839 0.02359 0.07499 0.0
O747 O 0.87689 0.06886 0.05531 0.0
O748 O 0.90124 0.10601 0.17091 0.0
O749 O 0.86736 0.07743 0.17972 0.0
O750 O 0.93595 0.07473 0.05777 0.0
O751 O 0.96297 0.10745 0.09961 0.0
H752 H 0.93437 0.10298 0.30061 0.0
H753 H 0.93578 0.10602 0.38801 0.0
H754 H 0.0184 0.14509 0.37309 0.0
H755 H 0.01644 0.14289 0.28597 0.0
H756 H 0.89695 0.98377 1.00272 0.0
H757 H 0.90474 0.96384 0.91856 0.0
H758 H 0.87763 0.04939 0.87706 0.0
H759 H 0.86875 0.06883 0.96188 0.0
Sm760 Sm 0.17146 0.68867 0.34333 0.0
Sm761 Sm 0.21387 0.64373 0.37083 0.0
C762 C 0.14347 0.72861 0.30296 0.0
C763 C 0.14901 0.7406 0.25679 0.0
C764 C 0.17691 0.74258 0.23623 0.0
C765 C 0.18212 0.7511 0.19011 0.0
C766 C 0.1595 0.75764 0.16396 0.0
C767 C 0.13159 0.75548 0.18446 0.0
C768 C 0.12639 0.74692 0.23072 0.0
C769 C 0.14585 0.64124 0.38151 0.0
C770 C 0.21846 0.65359 0.25818 0.0
C771 C 0.24056 0.59946 0.40461 0.0
C772 C 0.24887 0.59535 0.45188 0.0
C773 C 0.24859 0.62022 0.48675 0.0
C774 C 0.25667 0.61652 0.53197 0.0
C775 C 0.2651 0.58791 0.54267 0.0
C776 C 0.26518 0.56302 0.50777 0.0
C777 C 0.2571 0.56676 0.46237 0.0
C778 C 0.23442 0.70132 0.36533 0.0
C779 C 0.17905 0.69176 0.45856 0.0
O780 O 0.16119 0.73623 0.33497 0.0
O781 O 0.13743 0.69999 0.2995 0.0
O782 O 0.16871 0.63845 0.35307 0.0
O783 O 0.13475 0.66797 0.38362 0.0
O784 O 0.20277 0.67806 0.27356 0.0
O785 O 0.22185 0.63292 0.2877 0.0
O786 O 0.2134 0.59969 0.40103 0.0
O787 O 0.25352 0.62088 0.38378 0.0
O788 O 0.2103 0.69362 0.37929 0.0
O789 O 0.24988 0.67696 0.35343 0.0
O790 O 0.19483 0.66651 0.44723 0.0
O791 O 0.16981 0.70669 0.42423 0.0
H792 H 0.19467 0.7371 0.25549 0.0
H793 H 0.20381 0.75223 0.17465 0.0
H794 H 0.11387 0.76068 0.16494 0.0
H795 H 0.10477 0.74484 0.24592 0.0
H796 H 0.24212 0.64243 0.479 0.0
H797 H 0.25581 0.63591 0.5588 0.0
H798 H 0.27154 0.54078 0.5156 0.0
H799 H 0.25725 0.54745 0.43555 0.0
Sm800 Sm 0.54644 0.08633 0.11607 0.0
Sm801 Sm 0.58303 0.03748 0.0581 0.0
C802 C 0.5147 0.12343 0.1784 0.0
C803 C 0.50525 0.12273 0.22893 0.0
C804 C 0.50751 0.09584 0.25017 0.0
C805 C 0.50129 0.09584 0.2995 0.0
C806 C 0.49268 0.12274 0.32789 0.0
C807 C 0.48955 0.14941 0.30624 0.0
C808 C 0.49594 0.14939 0.25685 0.0
C809 C 0.58872 0.10625 0.05289 0.0
C810 C 0.58543 0.04291 0.17457 0.0
C811 C 0.62191 0.00874 0.99701 0.0
C812 C 0.6299 0.00961 0.94626 0.0
C813 C 0.64692 0.98625 0.92144 0.0
C814 C 0.64771 0.98137 0.87172 0.0
C815 C 0.63102 -0.00043 0.84709 0.0
C816 C 0.61676 0.02521 0.87153 0.0
C817 C 0.61617 0.0302 0.92128 0.0
C818 C 0.53916 0.01486 0.11106 0.0
C819 C 0.53022 0.07023 1.00885 0.0
O820 O 0.50424 0.10276 0.14903 0.0
O821 O 0.54194 0.12668 0.16922 0.0
O822 O 0.59134 0.08558 0.07979 0.0
O823 O 0.56376 0.11859 0.06237 0.0
O824 O 0.56383 0.06204 0.17641 0.0
O825 O 0.59938 0.03274 0.13272 0.0
O826 O 0.62711 0.03303 1.02472 0.0
O827 O 0.5967 -0.00188 1.00677 0.0
O828 O 0.53772 0.0383 0.08966 0.0
O829 O 0.56347 0.00089 0.10082 0.0
O830 O 0.55504 0.05531 1.00094 0.0
O831 O 0.51994 0.08069 0.05274 0.0
H832 H 0.51465 0.07503 0.22882 0.0
H833 H 0.50361 0.075 0.31556 0.0
H834 H 0.48324 0.17044 0.32769 0.0
H835 H 0.49436 0.17028 0.24067 0.0
H836 H 0.65747 0.97025 0.94067 0.0
H837 H 0.65879 0.96149 0.85313 0.0
H838 H 0.60354 0.03929 0.85313 0.0
H839 H 0.60287 0.0483 0.94044 0.0
Sm840 Sm 0.1537 0.30652 0.37255 0.0
Sm841 Sm 0.20053 0.33612 0.33101 0.0
C842 C 0.11685 0.2828 0.43323 0.0
C843 C 0.11896 0.27483 0.48234 0.0
C844 C 0.14534 0.26762 0.49753 0.0
C845 C 0.14737 0.26111 0.54472 0.0
C846 C 0.12307 0.26182 0.57765 0.0
C847 C 0.09674 0.26914 0.56218 0.0
C848 C 0.09475 0.27569 0.515 0.0
C849 C 0.13664 0.34091 0.30111 0.0
C850 C 0.19013 0.34997 0.44514 0.0
C851 C 0.2341 0.36835 0.27786 0.0
C852 C 0.23321 0.37598 0.22928 0.0
C853 C 0.21242 0.36335 0.20186 0.0
C854 C 0.21419 0.36571 0.15293 0.0
C855 C 0.23701 0.38041 0.13122 0.0
C856 C 0.25644 0.39533 0.15937 0.0
C857 C 0.25455 0.39304 0.20858 0.0
C858 C 0.22023 0.29325 0.385 0.0
C859 C 0.17363 0.27828 0.26946 0.0
O860 O 0.13268 0.26661 0.39898 0.0
O861 O 0.11707 0.31168 0.42847 0.0
O862 O 0.15401 0.34958 0.33197 0.0
O863 O 0.12599 0.31575 0.31207 0.0
O864 O 0.1729 0.32752 0.43996 0.0
O865 O 0.20095 0.36192 0.40682 0.0
O866 O 0.21353 0.38028 0.30853 0.0
O867 O 0.23874 0.33966 0.28091 0.0
O868 O 0.19972 0.28943 0.35909 0.0
O869 O 0.23159 0.319 0.38009 0.0
O870 O 0.18704 0.30391 0.26727 0.0
O871 O 0.16293 0.27019 0.31085 0.0
H872 H 0.16443 0.26732 0.47306 0.0
H873 H 0.16803 0.25612 0.55562 0.0
H874 H 0.07756 0.2696 0.58643 0.0
H875 H 0.0743 0.28151 0.50405 0.0
H876 H 0.19599 0.34992 0.21767 0.0
H877 H 0.19931 0.35376 0.13142 0.0
H878 H 0.27451 0.40622 0.14275 0.0
H879 H 0.2707 0.40278 0.22971 0.0
Sm880 Sm 0.95181 0.91142 0.59904 0.0
Sm881 Sm 0.9149 0.95952 0.56893 0.0
C882 C 0.98307 0.8742 0.63949 0.0
C883 C 0.99191 0.87457 0.68757 0.0
C884 C 0.98977 0.90143 0.71856 0.0
C885 C 0.99544 0.90119 0.76612 0.0
C886 C 0.00346 0.87412 0.78285 0.0
C887 C 0.00634 0.84745 0.75141 0.0
C888 C 0.00042 0.84767 0.70389 0.0
C889 C 0.91104 0.89037 0.54076 0.0
C890 C 0.91213 0.95444 0.68477 0.0
C891 C 0.87672 0.98824 0.52826 0.0
C892 C 0.86898 0.98401 0.47955 0.0
C893 C 0.88144 0.95979 0.44858 0.0
C894 C 0.88102 0.95955 0.39935 0.0
C895 C 0.86856 0.98389 0.38098 0.0
C896 C 0.85352 0.00655 0.41212 0.0
C897 C 0.85385 0.00666 0.46161 0.0
C898 C 0.95805 0.98309 0.61599 0.0
C899 C 0.96834 0.92732 0.49208 0.0
O900 O 0.99378 0.8951 0.61428 0.0
O901 O 0.95592 0.87088 0.63706 0.0
O902 O 0.90724 0.91088 0.57566 0.0
O903 O 0.93631 0.87895 0.53864 0.0
O904 O 0.93392 0.93551 0.67331 0.0
O905 O 0.89818 0.96431 0.65053 0.0
O906 O 0.87056 0.96592 0.55387 0.0
O907 O 0.90244 0.99788 0.53132 0.0
O908 O 0.96011 0.95964 0.58635 0.0
O909 O 0.93355 0.99651 0.61774 0.0
O910 O 0.94313 0.94149 0.49688 0.0
O911 O 0.97885 0.91763 0.52958 0.0
H912 H 0.98318 0.9224 0.70626 0.0
H913 H 0.99326 0.922 0.78992 0.0
H914 H 0.01218 0.8263 0.76402 0.0
H915 H 0.00183 0.8268 0.68025 0.0
H916 H 0.89377 0.94261 0.46211 0.0
H917 H 0.89304 0.9422 0.37564 0.0
H918 H 0.84429 0.02582 0.39824 0.0
H919 H 0.84452 0.02565 0.48537 0.0
Sm920 Sm 0.32999 0.68142 0.99191 0.0
Sm921 Sm 0.2852 0.6414 0.95001 0.0
C922 C 0.35604 0.71449 0.05749 0.0
C923 C 0.34864 0.7273 0.10894 0.0
C924 C 0.33859 0.70917 0.14488 0.0
C925 C 0.33265 0.72147 0.19317 0.0
C926 C 0.33649 0.75234 0.20727 0.0
C927 C 0.34609 0.77044 0.17097 0.0
C928 C 0.352 0.75813 0.12273 0.0
C929 C 0.35317 0.64124 0.91316 0.0
C930 C 0.28138 0.64833 0.06442 0.0
C931 C 0.26074 0.60116 0.89397 0.0
C932 C 0.26354 0.59597 0.8416 0.0
C933 C 0.2711 0.56726 0.81845 0.0
C934 C 0.27609 0.56304 0.76847 0.0
C935 C 0.27382 0.58761 0.74164 0.0
C936 C 0.26632 0.61629 0.76496 0.0
C937 C 0.26125 0.62044 0.81452 0.0
C938 C 0.26385 0.69895 0.98435 0.0
C939 C 0.31633 0.69371 0.88669 0.0
O940 O 0.34292 0.72633 1.02448 0.0
O941 O 0.35962 0.68506 0.04873 0.0
O942 O 0.33322 0.63512 0.94552 0.0
O943 O 0.36472 0.66587 0.9301 0.0
O944 O 0.29798 0.6711 0.05673 0.0
O945 O 0.27708 0.62835 1.02803 0.0
O946 O 0.2834 0.59478 0.91431 0.0
O947 O 0.24835 0.62666 0.91234 0.0
O948 O 0.28826 0.69083 0.96729 0.0
O949 O 0.24901 0.67468 0.98542 0.0
O950 O 0.30206 0.6682 0.88687 0.0
O951 O 0.32637 0.70694 0.92601 0.0
H952 H 0.33537 0.68537 0.13579 0.0
H953 H 0.3248 0.70669 0.21938 0.0
H954 H 0.34974 0.79415 0.17983 0.0
H955 H 0.35961 0.77278 0.09612 0.0
H956 H 0.27346 0.54829 0.839 0.0
H957 H 0.28185 0.54074 0.75083 0.0
H958 H 0.26381 0.63545 0.74485 0.0
H959 H 0.25564 0.6429 0.83154 0.0
Sm960 Sm 0.40699 0.06333 0.80341 0.0
Sm961 Sm 0.45106 0.09418 0.74543 0.0
C962 C 0.37934 0.03742 0.8749 0.0
C963 C 0.38482 0.02648 0.92204 0.0
C964 C 0.41089 0.01325 0.92951 0.0
C965 C 0.41495 0.00207 0.97364 0.0
C966 C 0.39306 0.00368 1.01181 0.0
C967 C 0.3672 0.01752 1.0042 0.0
C968 C 0.36322 0.02873 0.96018 0.0
C969 C 0.38434 0.10641 0.75011 0.0
C970 C 0.46152 0.0936 0.85551 0.0
C971 C 0.48021 0.12462 0.68261 0.0
C972 C 0.47915 0.12975 0.63262 0.0
C973 C 0.45532 0.12173 0.60884 0.0
C974 C 0.45621 0.12215 0.55923 0.0
C975 C 0.48118 0.12999 0.53316 0.0
C976 C 0.50473 0.13872 0.5573 0.0
C977 C 0.50369 0.1386 0.60688 0.0
C978 C 0.47114 0.03873 0.76124 0.0
C979 C 0.40891 0.04435 0.69261 0.0
O980 O 0.39126 0.0223 0.83534 0.0
O981 O 0.37907 0.06664 0.8726 0.0
O982 O 0.40659 0.10953 0.77277 0.0
O983 O 0.37141 0.08282 0.76357 0.0
O984 O 0.44118 0.07409 0.85501 0.0
O985 O 0.46739 0.10925 0.81871 0.0
O986 O 0.46002 0.13704 0.71367 0.0
O987 O 0.48607 0.09676 0.68876 0.0
O988 O 0.44589 0.04504 0.75501 0.0
O989 O 0.48475 0.06343 0.7689 0.0
O990 O 0.4256 0.0678 0.68906 0.0
O991 O 0.40156 0.03392 0.73422 0.0
H992 H 0.42815 0.01139 0.90114 0.0
H993 H 0.43544 0.99231 0.97776 0.0
H994 H 0.34959 0.0191 1.03183 0.0
H995 H 0.34291 0.03884 0.95568 0.0
H996 H 0.43658 0.11394 0.62829 0.0
H997 H 0.43795 0.11501 0.54106 0.0
H998 H 0.52412 0.14498 0.53765 0.0
H999 H 0.52238 0.14426 0.62487 0.0
Sm1000 Sm 0.69119 0.65389 0.53701 0.0
Sm1001 Sm 0.65611 0.69589 0.48401 0.0
C1002 C 0.71962 0.62853 0.60046 0.0
C1003 C 0.73138 0.63332 0.64824 0.0
C1004 C 0.76081 0.6332 0.65014 0.0
C1005 C 0.77257 0.63442 0.69425 0.0
C1006 C 0.75532 0.63589 0.73827 0.0
C1007 C 0.72575 0.63642 0.73639 0.0
C1008 C 0.71396 0.63508 0.69206 0.0
C1009 C 0.6455 0.62847 0.49473 0.0
C1010 C 0.65377 0.70992 0.59597 0.0
C1011 C 0.62475 0.7183 0.42225 0.0
C1012 C 0.627 0.72316 0.37064 0.0
C1013 C 0.61628 0.70194 0.33691 0.0
C1014 C 0.61677 0.70726 0.28871 0.0
C1015 C 0.6277 0.7341 0.27315 0.0
C1016 C 0.63885 0.7551 0.30679 0.0
C1017 C 0.63853 0.74969 0.35495 0.0
C1018 C 0.70704 0.7206 0.50146 0.0
C1019 C 0.7057 0.64778 0.42489 0.0
O1020 O 0.73193 0.64153 0.56445 0.0
O1021 O 0.69215 0.62717 0.59956 0.0
O1022 O 0.64572 0.6542 0.51848 0.0
O1023 O 0.66909 0.61412 0.49775 0.0
O1024 O 0.67741 0.69394 0.5909 0.0
O1025 O 0.63753 0.7112 0.56077 0.0
O1026 O 0.62328 0.69052 0.43279 0.0
O1027 O 0.64027 0.73481 0.45008 0.0
O1028 O 0.70276 0.69278 0.49189 0.0
O1029 O 0.68308 0.73546 0.50817 0.0
O1030 O 0.68382 0.66645 0.424 0.0
O1031 O 0.71538 0.64088 0.46479 0.0
H1032 H 0.7749 0.63136 0.61723 0.0
H1033 H 0.79536 0.63337 0.6935 0.0
H1034 H 0.7116 0.63798 0.76917 0.0
H1035 H 0.69118 0.63502 0.69219 0.0
H1036 H 0.60716 0.68133 0.34782 0.0
H1037 H 0.60843 0.69034 0.2637 0.0
H1038 H 0.64706 0.77621 0.29634 0.0
H1039 H 0.6468 0.76663 0.38004 0.0
Sm1040 Sm 0.09127 0.93663 0.24805 0.0
Sm1041 Sm 0.04786 0.90535 0.19475 0.0
C1042 C 0.11717 0.96192 0.32223 0.0
C1043 C 0.11028 0.97336 0.37508 0.0
C1044 C 0.09944 0.00285 0.38964 0.0
C1045 C 0.09498 0.01419 0.43877 0.0
C1046 C 0.10107 0.99658 0.47584 0.0
C1047 C 0.11159 0.96689 0.46111 0.0
C1048 C 0.11616 0.95561 0.41189 0.0
C1049 C 0.11525 0.89683 0.16805 0.0
C1050 C 0.03782 0.90485 0.30847 0.0
C1051 C 0.01852 0.8747 0.13191 0.0
C1052 C 0.01932 0.86912 0.08008 0.0
C1053 C 0.04205 0.87908 0.05081 0.0
C1054 C 0.04067 0.8781 1.00147 0.0
C1055 C 0.01619 0.86789 0.9815 0.0
C1056 C 0.99368 0.85743 1.01079 0.0
C1057 C 0.9953 0.85798 0.06 0.0
C1058 C 0.02547 0.95921 0.23689 0.0
C1059 C 0.08724 0.95841 0.14711 0.0
O1060 O 0.10729 0.97726 0.28972 0.0
O1061 O 0.11731 0.93271 0.30967 0.0
O1062 O 0.09361 0.89156 0.19733 0.0
O1063 O 0.12721 0.92046 0.18758 0.0
O1064 O 0.05755 0.92498 0.30748 0.0
O1065 O 0.03234 0.88908 0.26826 0.0
O1066 O 0.03875 0.86232 0.1523 0.0
O1067 O 0.01302 0.90275 0.14843 0.0
O1068 O 0.05112 0.95446 0.22103 0.0
O1069 O 0.0132 0.93377 0.24086 0.0
O1070 O 0.07142 0.93429 0.14019 0.0
O1071 O 0.0945 0.96833 0.19007 0.0
H1072 H 0.09481 0.01756 0.36292 0.0
H1073 H 0.08737 0.03726 0.44733 0.0
H1074 H 0.11624 0.95205 0.48758 0.0
H1075 H 0.12465 0.93288 0.40265 0.0
H1076 H 0.06018 0.88885 0.06641 0.0
H1077 H 0.05806 0.88664 0.97933 0.0
H1078 H 0.97466 0.84947 0.99572 0.0
H1079 H 0.97737 0.85091 0.0826 0.0
Sm1080 Sm 0.78195 0.35313 0.99694 0.0
Sm1081 Sm 0.82448 0.30825 1.0253 0.0
C1082 C 0.7559 0.39799 0.96313 0.0
C1083 C 0.75029 0.40429 0.91525 0.0
C1084 C 0.76174 0.38489 0.87557 0.0
C1085 C 0.75388 0.38827 0.8302 0.0
C1086 C 0.7346 0.41125 0.82418 0.0
C1087 C 0.72387 0.43145 0.86343 0.0
C1088 C 0.73156 0.42779 0.90919 0.0
C1089 C 0.7613 0.2958 1.00338 0.0
C1090 C 0.81723 0.30445 0.91016 0.0
C1091 C 0.85277 0.26883 0.06617 0.0
C1092 C 0.84734 0.25712 0.11253 0.0
C1093 C 0.81948 0.25554 0.13348 0.0
C1094 C 0.81437 0.24727 0.17976 0.0
C1095 C 0.83706 0.24047 0.20562 0.0
C1096 C 0.86493 0.24227 0.18473 0.0
C1097 C 0.87003 0.25066 0.13835 0.0
C1098 C 0.84979 0.35558 0.98647 0.0
C1099 C 0.77679 0.34309 0.10987 0.0
O1100 O 0.78237 0.39872 0.97196 0.0
O1101 O 0.74295 0.37462 0.97793 0.0
O1102 O 0.78556 0.3032 0.98939 0.0
O1103 O 0.7459 0.32025 1.01517 0.0
O1104 O 0.80164 0.32985 0.92116 0.0
O1105 O 0.82624 0.28959 0.94473 0.0
O1106 O 0.83505 0.26088 0.03431 0.0
O1107 O 0.85861 0.29751 0.06924 0.0
O1108 O 0.82699 0.35835 1.01501 0.0
O1109 O 0.86103 0.32893 0.98459 0.0
O1110 O 0.79309 0.31898 0.09497 0.0
O1111 O 0.77293 0.36349 0.08007 0.0
H1112 H 0.77611 0.3667 0.87989 0.0
H1113 H 0.76259 0.37277 0.79988 0.0
H1114 H 0.70901 0.44931 0.85884 0.0
H1115 H 0.72243 0.44273 0.93983 0.0
H1116 H 0.80169 0.26109 0.11436 0.0
H1117 H 0.7927 0.24641 0.19547 0.0
H1118 H 0.8827 0.23683 0.20397 0.0
H1119 H 0.89162 0.25242 0.12282 0.0
Sm1120 Sm 0.41279 0.95829 0.30931 0.0
Sm1121 Sm 0.4496 0.90952 0.25126 0.0
C1122 C 0.37382 0.98689 0.37039 0.0
C1123 C 0.36582 0.98602 0.42114 0.0
C1124 C 0.34885 0.00942 0.44595 0.0
C1125 C 0.34811 0.01434 0.49567 0.0
C1126 C 0.36477 0.99611 0.5203 0.0
C1127 C 0.37898 0.97045 0.49587 0.0
C1128 C 0.37954 0.96543 0.44613 0.0
C1129 C 0.45662 0.98111 0.25661 0.0
C1130 C 0.46564 0.92565 0.3586 0.0
C1131 C 0.48149 0.87251 0.18902 0.0
C1132 C 0.49094 0.87322 0.13851 0.0
C1133 C 0.48849 0.90007 0.1172 0.0
C1134 C 0.49469 0.90005 0.06787 0.0
C1135 C 0.50347 0.87318 0.03955 0.0
C1136 C 0.50681 0.84657 0.06127 0.0
C1137 C 0.50043 0.8466 0.11066 0.0
C1138 C 0.40737 0.88955 0.3145 0.0
C1139 C 0.41048 0.95286 0.19283 0.0
O1140 O 0.36871 0.96256 0.34268 0.0
O1141 O 0.39898 0.9976 0.36065 0.0
O1142 O 0.4581 0.95756 0.27775 0.0
O1143 O 0.4323 0.99503 0.2669 0.0
O1144 O 0.44078 0.94049 0.36649 0.0
O1145 O 0.476 0.91528 0.31471 0.0
O1146 O 0.49186 0.89326 0.21838 0.0
O1147 O 0.45426 0.86915 0.19818 0.0
O1148 O 0.40472 0.91013 0.28745 0.0
O1149 O 0.43235 0.87724 0.30501 0.0
O1150 O 0.43213 0.93379 0.19099 0.0
O1151 O 0.39649 0.96299 0.23466 0.0
H1152 H 0.33832 0.02544 0.42673 0.0
H1153 H 0.33707 0.03425 0.51425 0.0
H1154 H 0.39219 0.95636 0.51428 0.0
H1155 H 0.39282 0.94731 0.42697 0.0
H1156 H 0.48121 0.92085 0.13851 0.0
H1157 H 0.49221 0.92085 0.05176 0.0
H1158 H 0.51326 0.82556 0.03986 0.0
H1159 H 0.50217 0.82575 0.12689 0.0
Sm1160 Sm 0.79621 0.66002 0.03598 0.0
Sm1161 Sm 0.8433 0.68858 0.99291 0.0
C1162 C 0.76231 0.62882 0.09028 0.0
C1163 C 0.76264 0.62151 0.13915 0.0
C1164 C 0.7831 0.63423 0.16724 0.0
C1165 C 0.78065 0.63215 0.21631 0.0
C1166 C 0.75755 0.61755 0.23744 0.0
C1167 C 0.73843 0.60263 0.20864 0.0
C1168 C 0.74097 0.60469 0.15937 0.0
C1169 C 0.77648 0.7027 0.98189 0.0
C1170 C 0.82496 0.71723 0.09662 0.0
C1171 C 0.88067 0.71063 0.93094 0.0
C1172 C 0.87977 0.71772 0.88097 0.0
C1173 C 0.85436 0.72685 0.86431 0.0
C1174 C 0.85382 0.73335 0.8167 0.0
C1175 C 0.87861 0.73054 0.78465 0.0
C1176 C 0.90382 0.72069 0.80143 0.0
C1177 C 0.90437 0.71444 0.84909 0.0
C1178 C 0.86006 0.65406 0.06439 0.0
C1179 C 0.80557 0.64571 0.9217 0.0
O1180 O 0.78282 0.61636 0.06003 0.0
O1181 O 0.75809 0.65749 0.08657 0.0
O1182 O 0.79743 0.70652 1.0069 0.0
O1183 O 0.76494 0.67714 0.9876 0.0
O1184 O 0.8107 0.69213 0.09902 0.0
O1185 O 0.8358 0.72502 0.05507 0.0
O1186 O 0.86467 0.7276 0.964 0.0
O1187 O 0.87998 0.68197 0.93718 0.0
O1188 O 0.84246 0.6457 0.03379 0.0
O1189 O 0.87116 0.67892 0.05301 0.0
O1190 O 0.82321 0.66782 0.92627 0.0
O1191 O 0.79483 0.63406 0.96039 0.0
H1192 H 0.79983 0.64743 0.15176 0.0
H1193 H 0.79538 0.644 0.23825 0.0
H1194 H 0.72016 0.59177 0.22469 0.0
H1195 H 0.72507 0.59489 0.13772 0.0
H1196 H 0.83495 0.7291 0.88815 0.0
H1197 H 0.83407 0.74108 0.80538 0.0
H1198 H 0.92319 0.71753 0.77766 0.0
H1199 H 0.92405 0.70693 0.86103 0.0
Sm1200 Sm 0.08055 0.04131 0.79766 0.0
Sm1201 Sm 0.04312 0.08914 0.76833 0.0
C1202 C 0.11982 0.01272 0.83607 0.0
C1203 C 0.12945 0.01542 0.88357 0.0
C1204 C 0.14822 0.9936 0.89514 0.0
C1205 C 0.15054 0.99003 0.94315 0.0
C1206 C 0.1336 0.00794 0.97927 0.0
C1207 C 0.11797 0.03253 0.96762 0.0
C1208 C 0.11573 0.03614 0.91961 0.0
C1209 C 0.03731 0.01727 0.75135 0.0
C1210 C 0.02708 0.07259 0.87518 0.0
C1211 C 0.01112 0.12597 0.72863 0.0
C1212 C 0.00157 0.12462 0.68096 0.0
C1213 C 0.00335 0.09719 0.6514 0.0
C1214 C 0.99725 0.09638 0.60395 0.0
C1215 C 0.98921 0.12298 0.58587 0.0
C1216 C 0.9866 0.15023 0.61592 0.0
C1217 C 0.99291 0.15105 0.66338 0.0
C1218 C 0.08394 0.11042 0.82658 0.0
C1219 C 0.0822 0.04628 0.68155 0.0
O1220 O 0.12523 0.03552 0.81123 0.0
O1221 O 0.09396 0.00316 0.8347 0.0
O1222 O 0.03524 0.04082 0.78077 0.0
O1223 O 0.06191 0.00403 0.74938 0.0
O1224 O 0.05244 0.05873 0.8702 0.0
O1225 O 0.01641 0.08227 0.83779 0.0
O1226 O 0.00079 0.10557 0.75524 0.0
O1227 O 0.03838 0.12929 0.72963 0.0
O1228 O 0.08777 0.09008 0.79141 0.0
O1229 O 0.05863 0.12174 0.82867 0.0
O1230 O 0.06046 0.0652 0.69358 0.0
O1231 O 0.09646 0.03645 0.71548 0.0
H1232 H 0.15883 0.97752 0.86738 0.0
H1233 H 0.16263 0.9709 0.95186 0.0
H1234 H 0.10456 0.04637 0.99502 0.0
H1235 H 0.10105 0.05302 0.91084 0.0
H1236 H 0.01009 0.07659 0.66464 0.0
H1237 H -0.00076 0.07514 0.5812 0.0
H1238 H 0.98074 0.17102 0.60219 0.0
H1239 H 0.9918 0.17236 0.68591 0.0
Sm1240 Sm 0.70954 0.35505 0.41766 0.0
Sm1241 Sm 0.66523 0.31503 0.37631 0.0
C1242 C 0.7342 0.3953 0.47344 0.0
C1243 C 0.73217 0.4004 0.52586 0.0
C1244 C 0.72124 0.4279 0.5496 0.0
C1245 C 0.7168 0.4317 0.59962 0.0
C1246 C 0.72323 0.40798 0.62614 0.0
C1247 C 0.73442 0.38062 0.60225 0.0
C1248 C 0.73868 0.37678 0.5526 0.0
C1249 C 0.73136 0.29762 0.38408 0.0
C1250 C 0.67876 0.30326 0.48195 0.0
C1251 C 0.63907 0.2818 0.31106 0.0
C1252 C 0.64624 0.2691 0.25954 0.0
C1253 C 0.67164 0.25276 0.24384 0.0
C1254 C 0.67754 0.24058 0.19543 0.0
C1255 C 0.6583 0.24441 0.16106 0.0
C1256 C 0.63312 0.26118 0.17696 0.0
C1257 C 0.62726 0.27332 0.22526 0.0
C1258 C 0.64166 0.35519 0.45477 0.0
C1259 C 0.71356 0.34805 0.30341 0.0
O1260 O 0.71119 0.40154 0.45395 0.0
O1261 O 0.74667 0.37002 0.45433 0.0
O1262 O 0.70683 0.30535 0.40112 0.0
O1263 O 0.74593 0.32203 0.38258 0.0
O1264 O 0.69293 0.32878 0.48138 0.0
O1265 O 0.6688 0.2898 0.44269 0.0
O1266 O 0.65242 0.27023 0.34405 0.0
O1267 O 0.63534 0.31122 0.31948 0.0
O1268 O 0.66149 0.36148 0.42231 0.0
O1269 O 0.63043 0.33031 0.43809 0.0
O1270 O 0.69725 0.32508 0.31129 0.0
O1271 O 0.71752 0.36822 0.33971 0.0
H1272 H 0.71566 0.44616 0.52943 0.0
H1273 H 0.70807 0.45296 0.6175 0.0
H1274 H 0.74024 0.3622 0.62193 0.0
H1275 H 0.74681 0.35513 0.53534 0.0
H1276 H 0.68702 0.24934 0.26895 0.0
H1277 H 0.69741 0.22841 0.18495 0.0
H1278 H 0.61747 0.26449 0.15232 0.0
H1279 H 0.60759 0.28585 0.23597 0.0
C1280 C 0.10998 0.49301 0.22042 0.0
C1281 C 0.09835 0.46422 0.21787 0.0
H1282 H 0.1297 0.52716 0.26462 0.0
C1283 C 0.09867 0.44706 0.25678 0.0
H1284 H 0.10981 0.50662 0.19068 0.0
C1285 C 0.11054 0.45828 0.29766 0.0
C1286 C 0.12197 0.48709 0.3007 0.0
H1287 H 0.08996 0.42475 0.2557 0.0
H1288 H 0.10996 0.44472 0.3276 0.0
C1289 C 0.12145 0.50462 0.26218 0.0
C1290 C 0.74954 0.88437 0.546 0.0
C1291 C 0.74592 0.86299 0.57892 0.0
H1292 H 0.76541 0.89221 0.4745 0.0
C1293 C 0.75383 0.83269 0.56541 0.0
H1294 H 0.74384 0.90787 0.55668 0.0
C1295 C 0.76675 0.82406 0.51975 0.0
C1296 C 0.77107 0.84556 0.48727 0.0
H1297 H 0.75153 0.81613 0.59107 0.0
H1298 H 0.77404 0.80089 0.5102 0.0
C1299 C 0.76176 0.8755 0.49965 0.0
C1300 C 0.39441 0.5415 0.80645 0.0
C1301 C 0.39512 0.52472 0.76138 0.0
H1302 H 0.38221 0.54331 0.88134 0.0
C1303 C 0.38325 0.49604 0.75714 0.0
H1304 H 0.40318 0.56377 0.81074 0.0
C1305 C 0.3712 0.48415 0.79815 0.0
C1306 C 0.37029 0.50133 0.84299 0.0
H1307 H 0.38362 0.48278 0.7225 0.0
H1308 H 0.3629 0.46163 0.7951 0.0
C1309 C 0.3819 0.53004 0.84679 0.0
C1310 C 0.75873 0.05843 0.16822 0.0
C1311 C 0.77425 0.08147 0.19027 0.0
H1312 H 0.7431 0.03969 0.10309 0.0
C1313 C 0.78854 0.10188 0.16247 0.0
H1314 H 0.74733 0.04265 0.18922 0.0
C1315 C 0.78566 0.10058 0.11363 0.0
C1316 C 0.76869 0.07865 0.09204 0.0
H1317 H 0.80079 0.1197 0.17897 0.0
H1318 H 0.79541 0.11775 0.09344 0.0
C1319 C 0.75602 0.05698 0.11926 0.0
C1320 C 0.89638 0.54866 0.11017 0.0
C1321 C 0.89683 0.53144 0.14899 0.0
H1322 H 0.8849 0.55107 0.0395 0.0
C1323 C 0.88518 0.50266 0.14647 0.0
H1324 H 0.90509 0.57096 0.11123 0.0
C1325 C 0.87359 0.49109 0.1048 0.0
C1326 C 0.87298 0.50866 0.06635 0.0
H1327 H 0.88545 0.48901 0.17615 0.0
H1328 H 0.86538 0.46853 0.10235 0.0
C1329 C 0.88438 0.53748 0.06939 0.0
C1330 C 0.23081 0.10834 0.86296 0.0
C1331 C 0.2245 0.13871 0.87831 0.0
H1332 H 0.24682 0.07673 0.80337 0.0
C1333 C 0.23234 0.1612 0.84899 0.0
H1334 H 0.22457 0.09094 0.88574 0.0
C1335 C 0.24563 0.15334 0.80348 0.0
C1336 C 0.25057 0.12286 0.78663 0.0
H1337 H 0.22742 0.18476 0.86077 0.0
H1338 H 0.2504 0.17098 0.78037 0.0
C1339 C 0.24348 0.10032 0.81653 0.0
C1340 C 0.62248 0.51294 0.56956 0.0
C1341 C 0.62382 0.49566 0.52475 0.0
H1342 H 0.60973 0.5143 0.64511 0.0
C1343 C 0.61268 0.46672 0.52093 0.0
H1344 H 0.6304 0.53563 0.57262 0.0
C1345 C 0.60018 0.45516 0.56117 0.0
C1346 C 0.59902 0.47206 0.6062 0.0
H1347 H 0.61269 0.45336 0.48639 0.0
H1348 H 0.59174 0.43275 0.55685 0.0
C1349 C 0.61046 0.50094 0.6105 0.0
C1350 C 0.23464 0.93849 0.25096 0.0
C1351 C 0.2271 0.9135 0.27516 0.0
H1352 H 0.23972 0.95614 0.18292 0.0
C1353 C 0.21441 0.88885 0.25152 0.0
H1354 H 0.24459 0.95758 0.26899 0.0
C1355 C 0.21119 0.88818 0.20295 0.0
C1356 C 0.22112 0.91194 0.17748 0.0
H1357 H 0.20831 0.8695 0.27012 0.0
H1358 H 0.20244 0.86835 0.18474 0.0
C1359 C 0.23176 0.93768 0.20204 0.0
C1360 C 0.61079 0.95847 0.79772 0.0
C1361 C 0.62215 0.98731 0.80088 0.0
H1362 H 0.59028 0.92495 0.75562 0.0
C1363 C 0.62162 0.00489 0.76243 0.0
H1364 H 0.61022 0.94486 0.82759 0.0
C1365 C 0.61019 0.99331 0.72061 0.0
C1366 C 0.5986 0.9645 0.71794 0.0
H1367 H 0.62982 0.02746 0.76497 0.0
H1368 H 0.60998 0.00696 0.69093 0.0
C1369 C 0.59895 0.94728 0.75679 0.0
C1370 C 0.2632 0.33475 1.01763 0.0
C1371 C 0.27106 0.35726 0.98838 0.0
H1372 H 0.24515 0.32489 0.08621 0.0
C1373 C 0.26476 0.38763 1.00381 0.0
H1374 H 0.26815 0.3112 1.00583 0.0
C1375 C 0.25209 0.3956 0.05026 0.0
C1376 C 0.245 0.37303 0.0801 0.0
H1377 H 0.27103 0.40505 0.9811 0.0
H1378 H 0.24878 0.41918 0.06349 0.0
C1379 C 0.24991 0.34256 0.06315 0.0
C1380 C 0.86859 0.01113 0.25986 0.0
C1381 C 0.89741 0.01694 0.25105 0.0
H1382 H 0.83643 0.9959 0.30991 0.0
C1383 C 0.91683 0.00799 0.2813 0.0
H1384 H 0.85344 0.01836 0.23664 0.0
C1385 C 0.90733 0.9944 0.32172 0.0
C1386 C 0.87826 0.99047 0.33263 0.0
H1387 H 0.93911 0.01255 0.27468 0.0
H1388 H 0.92246 0.98907 0.34632 0.0
C1389 C 0.85892 -0.00168 0.30121 0.0
C1390 C 0.25941 0.56128 0.61598 0.0
C1391 C 0.27211 0.58407 0.59125 0.0
H1392 H 0.25017 0.54459 0.68414 0.0
C1393 C 0.28905 0.60512 0.61483 0.0
H1394 H 0.24607 0.54498 0.59841 0.0
C1395 C 0.29152 0.60478 0.66356 0.0
C1396 C 0.27694 0.58348 0.68913 0.0
H1397 H 0.29932 0.62262 0.59605 0.0
H1398 H 0.30357 0.6221 0.68181 0.0
C1399 C 0.26182 0.56099 0.66482 0.0
C1400 C 0.39704 0.04836 0.61044 0.0
C1401 C 0.39725 0.03121 0.64938 0.0
H1402 H 0.38584 0.05072 0.53957 0.0
C1403 C 0.38554 0.00245 0.6468 0.0
H1404 H 0.4058 0.07064 0.61153 0.0
C1405 C 0.3741 0.99087 0.605 0.0
C1406 C 0.37369 0.00839 0.56646 0.0
H1407 H 0.38564 0.98885 0.67657 0.0
H1408 H 0.3658 0.96834 0.60254 0.0
C1409 C 0.38518 0.03716 0.56951 0.0
C1410 C 0.74559 0.65468 0.30718 0.0
C1411 C 0.74936 0.62432 0.2887 0.0
H1412 H 0.72794 0.68568 0.36565 0.0
C1413 C 0.74084 0.60141 0.31709 0.0
H1414 H 0.75148 0.67267 0.28534 0.0
C1415 C 0.72772 0.60895 0.36333 0.0
C1416 C 0.7225 0.6393 0.38012 0.0
H1417 H 0.74333 0.57793 0.30279 0.0
H1418 H 0.72031 0.5913 0.38477 0.0
C1419 C 0.73195 0.66213 0.35261 0.0
C1420 C 0.09994 0.95527 0.06012 0.0
C1421 C 0.09909 0.97212 0.10516 0.0
H1422 H 0.11257 0.95328 0.98535 0.0
C1423 C 0.11116 0.00069 0.10948 0.0
H1424 H 0.09104 0.93308 0.05578 0.0
C1425 C 0.12356 0.01243 0.06858 0.0
C1426 C 0.12461 0.99519 1.02378 0.0
H1427 H 0.1107 0.014 0.14409 0.0
H1428 H 0.13201 0.03488 0.07167 0.0
C1429 C 0.1128 0.96657 1.0199 0.0
C1430 C 0.73008 0.43783 0.70364 0.0
C1431 C 0.72008 0.41184 0.67876 0.0
H1432 H 0.74226 0.458 0.77092 0.0
C1433 C 0.71064 0.38777 0.70401 0.0
H1434 H 0.73768 0.45653 0.68476 0.0
C1435 C 0.71378 0.38845 0.75263 0.0
C1436 C 0.72577 0.41345 0.77654 0.0
H1437 H 0.70236 0.36774 0.6856 0.0
H1438 H 0.7082 0.36888 0.77104 0.0
C1439 C 0.73279 0.43867 0.75261 0.0
C1440 C 0.11048 0.3401 0.22519 0.0
C1441 C 0.12995 0.35442 0.25508 0.0
H1442 H 0.08931 0.33877 0.16008 0.0
C1443 C 0.14313 0.37993 0.23836 0.0
H1444 H 0.09977 0.32027 0.2359 0.0
C1445 C 0.13736 0.39025 0.19381 0.0
C1446 C 0.11764 0.37609 0.16415 0.0
H1447 H 0.15826 0.39178 0.25936 0.0
H1448 H 0.14827 0.4099 0.18288 0.0
C1449 C 0.10438 0.35069 0.18106 0.0
C1450 C 0.86518 0.8946 0.50265 0.0
C1451 C 0.89397 0.8863 0.49886 0.0
H1452 H 0.82729 0.89569 0.46683 0.0
C1453 C 0.90703 0.87409 0.45363 0.0
H1454 H 0.85458 0.90423 0.53679 0.0
C1455 C 0.8916 0.86957 0.41347 0.0
C1456 C 0.86258 0.8767 0.41763 0.0
H1457 H 0.92929 0.86779 0.44921 0.0
H1458 H 0.90214 0.85947 0.37956 0.0
C1459 C 0.84966 0.88991 0.46241 0.0
C1460 C 0.37928 0.6444 0.82831 0.0
C1461 C 0.35907 0.62972 0.85833 0.0
H1462 H 0.40121 0.6479 0.75767 0.0
C1463 C 0.34506 0.60585 0.83393 0.0
H1464 H 0.39073 0.6631 0.84411 0.0
C1465 C 0.35118 0.59719 0.78317 0.0
C1466 C 0.37177 0.61162 0.75344 0.0
H1467 H 0.32941 0.59357 0.85397 0.0
H1468 H 0.33985 0.57847 0.76718 0.0
C1469 C 0.38542 0.63571 0.7777 0.0
C1470 C 0.60436 0.1203 0.92284 0.0
C1471 C 0.63399 0.12116 0.91686 0.0
H1472 H 0.56727 0.11636 0.97052 0.0
C1473 C 0.64905 0.11289 0.95455 0.0
H1474 H 0.592 0.12729 0.89523 0.0
C1475 C 0.63463 0.10582 0.9982 0.0
C1476 C 0.60495 0.10796 1.00524 0.0
H1477 H 0.67167 0.11467 0.95231 0.0
H1478 H 0.64667 0.10106 1.02752 0.0
C1479 C 0.59011 0.11441 0.96648 0.0
C1480 C 0.1341 0.60617 0.49841 0.0
C1481 C 0.10442 0.608 0.50489 0.0
H1482 H 0.17124 0.61535 0.45349 0.0
C1483 C 0.08976 0.61411 0.46576 0.0
H1484 H 0.14597 0.60174 0.52808 0.0
C1485 C 0.10419 0.61987 0.42217 0.0
C1486 C 0.13381 0.621 0.41665 0.0
H1487 H 0.06691 0.61587 0.46944 0.0
H1488 H 0.09194 0.62656 0.39422 0.0
C1489 C 0.14868 0.6132 0.45492 0.0
C1490 C 0.60417 0.85091 0.68101 0.0
C1491 C 0.61759 0.87624 0.66417 0.0
H1492 H 0.5993 0.82049 0.73581 0.0
C1493 C 0.6374 0.89022 0.69384 0.0
H1494 H 0.58904 0.83911 0.66 0.0
C1495 C 0.64307 0.87982 0.73837 0.0
C1496 C 0.62968 0.85442 0.75507 0.0
H1497 H 0.64844 0.9098 0.68293 0.0
H1498 H 0.6583 0.89151 0.75936 0.0
C1499 C 0.61015 0.84025 0.72514 0.0
C1500 C 0.36704 0.3931 1.00069 0.0
C1501 C 0.39487 0.38178 0.99888 0.0
H1502 H 0.33056 0.39822 0.96244 0.0
C1503 C 0.40727 0.36663 0.95513 0.0
H1504 H 0.35673 0.4045 0.03381 0.0
C1505 C 0.39226 0.36273 0.91438 0.0
C1506 C 0.36442 0.37387 0.91618 0.0
H1507 H 0.42875 0.35772 0.95223 0.0
H1508 H 0.40231 0.35061 0.88158 0.0
C1509 C 0.35208 0.38946 0.95967 0.0
C1510 C 0.8806 0.144 0.32989 0.0
C1511 C 0.86023 0.12943 0.35979 0.0
H1512 H 0.90265 0.14745 0.25936 0.0
C1513 C 0.84626 0.10554 0.33536 0.0
H1514 H 0.89207 0.16266 0.34573 0.0
C1515 C 0.8525 0.09679 0.28463 0.0
C1516 C 0.87307 0.11129 0.25499 0.0
H1517 H 0.83045 0.09339 0.35533 0.0
H1518 H 0.84107 0.07818 0.26852 0.0
C1519 C 0.88682 0.13528 0.27934 0.0
C1520 C 0.89193 0.64451 0.18481 0.0
C1521 C 0.87813 0.61958 0.20232 0.0
H1522 H 0.89728 0.67431 0.12918 0.0
C1523 C 0.85804 0.60575 0.17308 0.0
H1524 H 0.90728 0.65619 0.20547 0.0
C1525 C 0.85247 0.61589 0.1283 0.0
C1526 C 0.86632 0.64082 0.11086 0.0
H1527 H 0.84669 0.58648 0.18452 0.0
H1528 H 0.83703 0.60432 0.10766 0.0
C1529 C 0.88609 0.65488 0.1404 0.0
C1530 C 0.12871 0.10292 0.86674 0.0
C1531 C 0.10091 0.11437 0.86872 0.0
H1532 H 0.16524 0.09761 0.9048 0.0
C1533 C 0.0886 0.12944 0.91259 0.0
H1534 H 0.13893 0.09154 0.83353 0.0
C1535 C 0.10366 0.13317 0.95328 0.0
C1536 C 0.13149 0.12196 0.9513 0.0
H1537 H 0.06714 0.13844 0.91564 0.0
H1538 H 0.09368 0.14527 0.98615 0.0
C1539 C 0.14373 0.10642 0.90769 0.0
C1540 C 0.61526 0.35222 0.53942 0.0
C1541 C 0.63551 0.36691 0.50946 0.0
H1542 H 0.59317 0.34878 0.60994 0.0
C1543 C 0.64936 0.3909 0.53386 0.0
H1544 H 0.60392 0.33345 0.52361 0.0
C1545 C 0.6431 0.39963 0.58458 0.0
C1546 C 0.6225 0.38517 0.61424 0.0
H1547 H 0.66501 0.4032 0.51385 0.0
H1548 H 0.6543 0.41845 0.60058 0.0
C1549 C 0.60896 0.36099 0.58996 0.0
C1550 C 0.34708 0.88325 0.41294 0.0
C1551 C 0.36212 0.87475 0.45058 0.0
H1552 H 0.3495 0.89516 0.34003 0.0
C1553 C 0.39175 0.87537 0.44448 0.0
H1554 H 0.32442 0.88176 0.41506 0.0
C1555 C 0.40601 0.88123 0.40082 0.0
C1556 C 0.39118 0.88787 0.36216 0.0
H1557 H 0.4041 0.86823 0.47199 0.0
H1558 H 0.42884 0.8791 0.3967 0.0
C1559 C 0.36152 0.89025 0.36929 0.0
C1560 C 0.90552 0.38227 0.90127 0.0
C1561 C 0.89063 0.38856 0.8625 0.0
H1562 H 0.90374 0.36976 0.97271 0.0
C1563 C 0.86096 0.39078 0.86964 0.0
H1564 H 0.92835 0.38022 0.89713 0.0
C1565 C 0.84658 0.38392 0.91344 0.0
C1566 C 0.86171 0.37578 0.9512 0.0
H1567 H 0.8489 0.39541 0.84029 0.0
H1568 H 0.82394 0.38223 0.91564 0.0
C1569 C 0.89133 0.37663 0.94508 0.0
C1570 C 0.35264 0.11547 0.62891 0.0
C1571 C 0.3658 0.14103 0.61234 0.0
H1572 H 0.34746 0.08543 0.68429 0.0
C1573 C 0.38523 0.15534 0.64233 0.0
H1574 H 0.33754 0.10363 0.60783 0.0
C1575 C 0.3913 0.1447 0.68643 0.0
C1576 C 0.37804 0.11926 0.70321 0.0
H1577 H 0.39593 0.17519 0.63173 0.0
H1578 H 0.40635 0.15659 0.70748 0.0
C1579 C 0.35837 0.10511 0.67345 0.0
C1580 C 0.62672 0.60297 0.36787 0.0
C1581 C 0.59881 0.61402 0.36946 0.0
H1582 H 0.66307 0.59813 0.40654 0.0
C1583 C 0.58606 0.62871 0.41332 0.0
H1584 H 0.63725 0.59184 0.33472 0.0
C1585 C 0.60084 0.63256 0.45432 0.0
C1586 C 0.62882 0.62188 0.45266 0.0
H1587 H 0.5645 0.63737 0.41608 0.0
H1588 H 0.59055 0.64442 0.48715 0.0
C1589 C 0.64146 0.6066 0.40914 0.0
C1590 C 0.1151 0.85239 0.03868 0.0
C1591 C 0.13541 0.86701 1.00872 0.0
H1592 H 0.09297 0.84903 0.1092 0.0
C1593 C 0.14929 0.89097 1.03311 0.0
H1594 H 0.10373 0.83363 1.02289 0.0
C1595 C 0.14301 0.89975 0.08382 0.0
C1596 C 0.12236 0.88536 0.1135 0.0
H1597 H 0.165 0.9032 1.0131 0.0
H1598 H 0.15425 0.91854 0.09981 0.0
C1599 C 0.1088 0.8612 0.08922 0.0
C1600 C 0.01415 0.51769 0.20969 0.0
C1601 C 0.98537 0.51517 0.22536 0.0
H1602 H 0.04848 0.50289 0.15752 0.0
C1603 C 0.96914 0.49454 0.19901 0.0
H1604 H 0.02723 0.53368 0.22853 0.0
C1605 C 0.98118 0.4774 0.1575 0.0
C1606 C 0.00995 0.47995 0.1418 0.0
H1607 H 0.94683 0.49227 0.20962 0.0
H1608 H 0.96811 0.46141 0.13864 0.0
C1609 C 0.02618 0.50058 0.16816 0.0
C1610 C 0.74741 0.77267 0.42223 0.0
C1611 C 0.77083 0.75425 0.40337 0.0
H1612 H 0.70956 0.77728 0.47065 0.0
C1613 C 0.77302 0.72506 0.41758 0.0
H1614 H 0.74519 0.79527 0.41227 0.0
C1615 C 0.75328 0.71505 0.45184 0.0
C1616 C 0.73033 0.73368 0.47217 0.0
H1617 H 0.79094 0.71032 0.40383 0.0
H1618 H 0.75579 0.69245 0.46193 0.0
C1619 C 0.72742 0.76257 0.45664 0.0
C1620 C 0.52513 0.50313 0.69138 0.0
C1621 C 0.51014 0.4814 0.71571 0.0
H1622 H 0.52435 0.53629 0.64191 0.0
C1623 C 0.48163 0.47696 0.70787 0.0
H1624 H 0.54718 0.50694 0.69601 0.0
C1625 C 0.4687 0.49328 0.6758 0.0
C1626 C 0.48369 0.51498 0.65142 0.0
H1627 H 0.46948 0.46011 0.72526 0.0
H1628 H 0.44664 0.48947 0.67116 0.0
C1629 C 0.51219 0.51944 0.6593 0.0
C1630 C 0.76561 0.22267 0.92626 0.0
C1631 C 0.74486 0.22715 0.89526 0.0
H1632 H 0.78546 0.24047 0.98801 0.0
C1633 C 0.72736 0.25318 0.90406 0.0
H1634 H 0.77859 0.20223 0.92154 0.0
C1635 C 0.7304 0.27433 0.94328 0.0
C1636 C 0.75116 0.26988 0.97427 0.0
H1637 H 0.71055 0.25655 0.88153 0.0
H1638 H 0.71741 0.29477 0.94798 0.0
C1639 C 0.76865 0.24382 0.96549 0.0
C1640 C 0.00325 0.47324 0.70839 0.0
C1641 C 0.97793 0.48997 0.71981 0.0
H1642 H 0.04246 0.46799 0.66406 0.0
C1643 C 0.97247 0.51464 0.69451 0.0
H1644 H 0.00782 0.4541 0.72737 0.0
C1645 C 0.99212 0.5225 0.65817 0.0
C1646 C 0.01745 0.50579 0.6468 0.0
H1647 H 0.95292 0.52777 0.70254 0.0
H1648 H 0.98754 0.54164 0.63918 0.0
C1649 C 0.02291 0.48111 0.67207 0.0
C1650 C 0.77232 0.75536 0.95664 0.0
C1651 C 0.76231 0.72599 0.95717 0.0
H1652 H 0.7665 0.79925 0.93404 0.0
C1653 C 0.73795 0.7186 0.93366 0.0
H1654 H 0.79094 0.76184 0.97422 0.0
C1655 C 0.72386 0.73998 0.91047 0.0
C1656 C 0.73384 0.76936 0.91 0.0
H1657 H 0.72965 0.69611 0.93315 0.0
H1658 H 0.70522 0.73351 0.89293 0.0
C1659 C 0.75822 0.77675 0.93349 0.0
C1660 C 0.47142 0.51444 0.18441 0.0
C1661 C 0.4779 0.48963 0.14979 0.0
H1662 H 0.48495 0.54234 0.24424 0.0
C1663 C 0.50347 0.47357 0.149 0.0
H1664 H 0.45167 0.52708 0.18584 0.0
C1665 C 0.52233 0.48219 0.18258 0.0
C1666 C 0.51583 0.50699 0.21722 0.0
H1667 H 0.50881 0.45431 0.12272 0.0
H1668 H 0.54207 0.46955 0.18116 0.0
C1669 C 0.49028 0.52307 0.21797 0.0
C1670 C 0.731 0.22385 0.43767 0.0
C1671 C 0.75411 0.22654 0.46533 0.0
H1672 H 0.70688 0.24355 0.38768 0.0
C1673 C 0.77141 0.25173 0.46191 0.0
H1674 H 0.71783 0.20427 0.43797 0.0
C1675 C 0.76574 0.27371 0.43173 0.0
C1676 C 0.7426 0.27102 0.40411 0.0
H1677 H 0.78991 0.25393 0.48164 0.0
H1678 H 0.77887 0.29332 0.43146 0.0
C1679 C 0.72537 0.24578 0.40743 0.0
C1680 C 0.24328 0.27791 0.92532 0.0
C1681 C 0.26446 0.26052 0.89612 0.0
H1682 H 0.21086 0.27966 0.9838 0.0
C1683 C 0.26875 0.23029 0.90451 0.0
H1684 H 0.23968 0.30137 0.92043 0.0
C1685 C 0.25266 0.21799 0.94166 0.0
C1686 C 0.23148 0.23538 0.97086 0.0
H1687 H 0.28509 0.21625 0.88319 0.0
H1688 H 0.25624 0.19453 0.94654 0.0
C1689 C 0.2272 0.26561 0.96248 0.0
C1690 C 0.22704 0.75336 0.40292 0.0
C1691 C 0.24442 0.72722 0.39466 0.0
H1692 H 0.21717 0.79518 0.44628 0.0
C1693 C 0.26483 0.72268 0.42622 0.0
H1694 H 0.21044 0.75675 0.37999 0.0
C1695 C 0.26775 0.74392 0.46537 0.0
C1696 C 0.25047 0.77014 0.4735 0.0
H1697 H 0.27767 0.70215 0.42196 0.0
H1698 H 0.28434 0.74051 0.48831 0.0
C1699 C 0.22999 0.77463 0.44204 0.0
C1700 C 0.2722 0.25527 0.45685 0.0
C1701 C 0.26183 0.22604 0.45742 0.0
H1702 H 0.2671 0.29919 0.43389 0.0
C1703 C 0.23746 0.21897 0.43375 0.0
H1704 H 0.29086 0.26149 0.47452 0.0
C1705 C 0.22377 0.24054 0.41031 0.0
C1706 C 0.23415 0.26977 0.40974 0.0
H1707 H 0.22888 0.19662 0.43328 0.0
H1708 H 0.20511 0.23432 0.39264 0.0
C1709 C 0.25851 0.27683 0.43342 0.0
C1710 C 0.23003 0.72307 0.93599 0.0
C1711 C 0.25293 0.72566 0.96415 0.0
H1712 H 0.20628 0.74296 0.88569 0.0
C1713 C 0.27024 0.75087 0.96128 0.0
H1714 H 0.21685 0.70347 0.93588 0.0
C1715 C 0.26483 0.77294 0.93112 0.0
C1716 C 0.24191 0.77034 0.90299 0.0
H1717 H 0.28858 0.75302 0.98142 0.0
H1718 H 0.27797 0.79256 0.93127 0.0
C1719 C 0.22463 0.74511 0.90581 0.0
C1720 C 0.46937 0.99465 0.69937 0.0
C1721 C 0.48556 0.01525 0.72586 0.0
H1722 H 0.46836 0.96172 0.63874 0.0
C1723 C 0.51432 0.01789 0.71017 0.0
H1724 H 0.44707 0.99228 0.71 0.0
C1725 C 0.52637 0.00091 0.6685 0.0
C1726 C 0.51017 0.98033 0.64198 0.0
H1727 H 0.52737 0.03385 0.72912 0.0
H1728 H 0.54866 0.00329 0.65786 0.0
C1729 C 0.48142 0.97768 0.6577 0.0
C1730 C 0.02494 0.0032 0.18881 0.0
C1731 C 0.00992 0.98132 0.21266 0.0
H1732 H 0.02445 0.03631 0.13929 0.0
C1733 C 0.98171 0.97624 0.2033 0.0
H1734 H 0.04681 0.00741 0.19444 0.0
C1735 C 0.96903 0.99236 0.17067 0.0
C1736 C 0.98396 0.01447 0.14719 0.0
H1737 H 0.96957 0.95918 0.22016 0.0
H1738 H 0.94714 0.9882 0.1651 0.0
C1739 C 0.01228 0.01925 0.15612 0.0
C1740 C 0.50343 0.97337 0.20891 0.0
C1741 C 0.47808 0.99005 0.22025 0.0
H1742 H 0.54268 0.96817 0.16472 0.0
C1743 C 0.47264 0.01476 0.19501 0.0
H1744 H 0.50799 0.95421 0.22786 0.0
C1745 C 0.49234 0.02267 0.15878 0.0
C1746 C 0.51769 0.00597 0.14744 0.0
H1747 H 0.45308 0.02786 0.20299 0.0
H1748 H 0.48779 0.04183 0.13982 0.0
C1749 C 0.52312 0.98128 0.17269 0.0
C1750 C 0.00408 0.97562 0.64869 0.0
C1751 C 0.97871 0.99208 0.64972 0.0
H1752 H 0.04252 0.97067 0.68096 0.0
C1753 C 0.97234 0.01653 0.68507 0.0
H1754 H 0.00932 0.95662 0.62186 0.0
C1755 C 0.99114 0.02445 0.71903 0.0
C1756 C 0.01655 0.00805 0.71791 0.0
H1757 H 0.95273 0.02944 0.68671 0.0
H1758 H 0.98591 0.04347 0.74581 0.0
C1759 C 0.0229 0.98356 0.68264 0.0
C1760 C 0.98596 0.41012 0.98295 0.0
C1761 C 0.01508 0.40304 0.97283 0.0
H1762 H 0.94747 0.4239 0.95539 0.0
C1763 C 0.02734 0.40373 0.9255 0.0
H1764 H 0.97606 0.41087 1.01946 0.0
C1765 C 0.01112 0.41102 0.88907 0.0
C1766 C 0.98216 0.41885 0.89896 0.0
H1767 H 0.04982 0.39933 0.91685 0.0
H1768 H 0.02158 0.41121 0.8531 0.0
C1769 C 0.96971 0.4182 0.94645 0.0
C1770 C 0.84335 0.76301 0.14095 0.0
C1771 C 0.83335 0.73359 0.14106 0.0
H1772 H 0.85588 0.80221 0.1836 0.0
C1773 C 0.83301 0.71923 0.18338 0.0
H1774 H 0.84423 0.77445 0.10868 0.0
C1775 C 0.84077 0.73477 0.2257 0.0
C1776 C 0.84888 0.76484 0.22618 0.0
H1777 H 0.82611 0.69625 0.18415 0.0
H1778 H 0.83811 0.72416 0.25881 0.0
C1779 C 0.85074 0.77861 0.18337 0.0
C1780 C 0.52086 0.58178 0.4661 0.0
C1781 C 0.50837 0.57817 0.42235 0.0
H1782 H 0.51419 0.59051 0.5435 0.0
C1783 C 0.47883 0.58226 0.42418 0.0
H1784 H 0.54355 0.57916 0.46608 0.0
C1785 C 0.46217 0.58868 0.46815 0.0
C1786 C 0.4744 0.59221 0.51194 0.0
H1787 H 0.46835 0.5798 0.39144 0.0
H1788 H 0.43941 0.59023 0.46798 0.0
C1789 C 0.50408 0.58893 0.51039 0.0
C1790 C 0.65054 0.25656 0.57903 0.0
C1791 C 0.66562 0.26822 0.61715 0.0
H1792 H 0.64313 0.25841 0.50536 0.0
C1793 C 0.6858 0.29022 0.60973 0.0
H1794 H 0.63505 0.23932 0.58404 0.0
C1795 C 0.6905 0.30088 0.56517 0.0
C1796 C 0.67506 0.28979 0.52725 0.0
H1797 H 0.69747 0.29977 0.63873 0.0
H1798 H 0.70598 0.31818 0.56081 0.0
C1799 C 0.65532 0.26724 0.53413 0.0
C1800 C 0.00645 0.61237 0.95311 0.0
C1801 C 0.98306 0.62757 0.97965 0.0
H1802 H 0.02752 0.59903 0.88344 0.0
C1803 C 0.96193 0.64024 0.95586 0.0
H1804 H 0.02276 0.6021 0.97095 0.0
C1805 C 0.96456 0.63836 0.90587 0.0
C1806 C 0.98817 0.62349 0.87938 0.0
H1807 H 0.94374 0.65203 0.97594 0.0
H1808 H 0.94824 0.64853 0.88793 0.0
C1809 C 0.00899 0.61033 0.90326 0.0
C1810 C 0.64845 0.75603 0.19889 0.0
C1811 C 0.62655 0.74065 0.2225 0.0
H1812 H 0.66378 0.77536 0.13514 0.0
C1813 C 0.60312 0.73212 0.1977 0.0
H1814 H 0.66697 0.76266 0.21664 0.0
C1815 C 0.60162 0.73875 0.15054 0.0
C1816 C 0.62333 0.75441 0.12709 0.0
H1817 H 0.58562 0.72069 0.2149 0.0
H1818 H 0.58342 0.7314 0.13241 0.0
C1819 C 0.6468 0.76295 0.15183 0.0
C1820 C 0.53654 0.35697 0.39594 0.0
C1821 C 0.51495 0.36863 0.43069 0.0
H1822 H 0.55033 0.34908 0.32082 0.0
C1823 C 0.49075 0.38232 0.41679 0.0
H1824 H 0.55534 0.34637 0.4063 0.0
C1825 C 0.48799 0.38405 0.36842 0.0
C1826 C 0.50934 0.37195 0.33353 0.0
H1827 H 0.47405 0.39175 0.44336 0.0
H1828 H 0.46896 0.39432 0.35823 0.0
C1829 C 0.53364 0.35843 0.34744 0.0
C1830 C 0.81178 0.30473 0.82113 0.0
C1831 C 0.82245 0.29088 0.85872 0.0
H1832 H 0.80841 0.30367 0.74537 0.0
C1833 C 0.83785 0.26349 0.84663 0.0
H1834 H 0.79973 0.32571 0.82869 0.0
C1835 C 0.8427 0.25058 0.79858 0.0
C1836 C 0.83231 0.26457 0.76072 0.0
H1837 H 0.84623 0.25184 0.87436 0.0
H1838 H 0.85439 0.22935 0.79131 0.0
C1839 C 0.8166 0.29183 0.77302 0.0
C1840 C 0.98429 0.58452 0.47739 0.0
C1841 C 0.01328 0.57682 0.46761 0.0
H1842 H 0.94561 0.59615 0.44948 0.0
C1843 C 0.02581 0.57761 0.42021 0.0
H1844 H 0.97376 0.58422 0.51329 0.0
C1845 C 0.00961 0.5857 0.38367 0.0
C1846 C 0.98046 0.59266 0.39368 0.0
H1847 H 0.04808 0.57202 0.41138 0.0
H1848 H 0.01956 0.58505 0.34722 0.0
C1849 C 0.96812 0.59184 0.44093 0.0
C1850 C 0.16636 0.27513 0.18231 0.0
C1851 C 0.16613 0.26124 0.22505 0.0
H1852 H 0.16161 0.26919 0.10677 0.0
C1853 C 0.15698 0.23154 0.22571 0.0
H1854 H 0.17265 0.2983 0.18115 0.0
C1855 C 0.15016 0.21527 0.18353 0.0
C1856 C 0.15176 0.22863 0.14042 0.0
H1857 H 0.15623 0.22043 0.25831 0.0
H1858 H 0.14553 0.19157 0.18383 0.0
C1859 C 0.15918 0.25889 0.14017 0.0
C1860 C 0.51476 0.41465 0.94285 0.0
C1861 C 0.48519 0.41844 0.94462 0.0
H1862 H 0.55423 0.40683 0.8992 0.0
C1863 C 0.47274 0.41455 0.90086 0.0
H1864 H 0.52523 0.41735 0.97559 0.0
C1865 C 0.48958 0.40738 0.85661 0.0
C1866 C 0.51928 0.40435 0.85514 0.0
H1867 H 0.45003 0.41693 0.90084 0.0
H1868 H 0.47949 0.40556 0.82348 0.0
C1869 C 0.53147 0.40818 0.89895 0.0
C1870 C 0.30858 0.70833 0.75993 0.0
C1871 C 0.32985 0.72911 0.75197 0.0
H1872 H 0.28734 0.68143 0.8093 0.0
C1873 C 0.34583 0.73962 0.78956 0.0
H1874 H 0.29617 0.69966 0.73138 0.0
C1875 C 0.34092 0.7289 0.83439 0.0
C1876 C 0.32011 0.70748 0.84172 0.0
H1877 H 0.36216 0.75594 0.78418 0.0
H1878 H 0.35385 0.73671 0.8627 0.0
C1879 C 0.30371 0.6977 0.80446 0.0
C1880 C 0.98843 0.38274 0.41284 0.0
C1881 C 0.01198 0.36763 0.38662 0.0
H1882 H 0.96699 0.39604 0.48226 0.0
C1883 C 0.03299 0.35508 0.41076 0.0
H1884 H 0.97218 0.39293 0.39474 0.0
C1885 C 0.03012 0.35699 0.46076 0.0
C1886 C 0.00636 0.37176 0.48692 0.0
H1887 H 0.0513 0.34334 0.39097 0.0
H1888 H 0.04638 0.34692 0.47897 0.0
C1889 C 0.98563 0.38481 0.4627 0.0
C1890 C 0.34456 0.23964 0.16905 0.0
C1891 C 0.36622 0.25514 0.14502 0.0
H1892 H 0.32977 0.22025 0.23303 0.0
C1893 C 0.38975 0.26389 0.16943 0.0
H1894 H 0.32597 0.23283 0.15165 0.0
C1895 C 0.39159 0.25734 0.21656 0.0
C1896 C 0.37014 0.24152 0.2404 0.0
H1897 H 0.40706 0.27543 0.15192 0.0
H1898 H 0.40986 0.26484 0.23434 0.0
C1899 C 0.34656 0.23278 0.21607 0.0
C1900 C 0.46328 0.63968 1.01857 0.0
C1901 C 0.48684 0.62486 1.03262 0.0
H1902 H 0.44212 0.65238 0.95953 0.0
C1903 C 0.5074 0.61102 0.99781 0.0
H1904 H 0.44718 0.65036 0.04511 0.0
C1905 C 0.5046 0.61233 0.94935 0.0
C1906 C 0.48113 0.62732 0.93534 0.0
H1907 H 0.52587 0.59971 1.0081 0.0
H1908 H 0.52067 0.60159 0.92282 0.0
C1909 C 0.46033 0.64074 0.97002 0.0
C1910 C 0.17907 0.70352 0.59581 0.0
C1911 C 0.16403 0.73122 0.60816 0.0
H1912 H 0.19547 0.66942 0.53988 0.0
C1913 C 0.15437 0.74575 0.57026 0.0
H1914 H 0.1867 0.69127 0.62348 0.0
C1915 C 0.15918 0.73296 0.52218 0.0
C1916 C 0.1739 0.70517 0.51005 0.0
H1917 H 0.14326 0.76732 0.57752 0.0
H1918 H 0.15136 0.74504 0.49444 0.0
C1919 C 0.18394 0.69075 0.54761 0.0
C1920 C 0.46985 0.91781 0.4463 0.0
C1921 C 0.48236 0.91887 0.39895 0.0
H1922 H 0.47617 0.9102 0.5192 0.0
C1923 C 0.51142 0.91153 0.38916 0.0
H1924 H 0.44753 0.92314 0.45513 0.0
C1925 C 0.52765 0.90427 0.42557 0.0
C1926 C 0.51533 0.90317 0.47278 0.0
H1927 H 0.52193 0.91205 0.35329 0.0
H1928 H 0.55019 0.90023 0.41702 0.0
C1929 C 0.48613 0.90978 0.48278 0.0
C1930 C 0.3391 0.26411 0.64144 0.0
C1931 C 0.32975 0.23447 0.64214 0.0
H1932 H 0.35071 0.30402 0.68327 0.0
C1933 C 0.32932 0.22063 0.68495 0.0
H1934 H 0.34 0.27517 0.60879 0.0
C1935 C 0.33651 0.23687 0.72711 0.0
C1936 C 0.34414 0.26706 0.72679 0.0
H1937 H 0.32288 0.19752 0.68616 0.0
H1938 H 0.33393 0.22662 0.76054 0.0
C1939 C 0.34593 0.28036 0.68362 0.0
C1940 C 0.96385 0.09068 0.96862 0.0
C1941 C 0.97588 0.09319 1.01261 0.0
H1942 H 0.97018 0.08235 0.89193 0.0
C1943 C 0.00544 0.08875 1.01133 0.0
H1944 H 0.94117 0.09313 0.96817 0.0
C1945 C 0.02228 0.08148 0.96708 0.0
C1946 C 0.00997 0.07883 0.92314 0.0
H1947 H 0.01538 0.08952 0.04456 0.0
H1948 H 0.04487 0.07799 0.96726 0.0
C1949 C 0.98057 0.08405 0.92477 0.0
C1950 C 0.19014 0.8004 0.0642 0.0
C1951 C 0.17487 0.78921 1.0261 0.0
H1952 H 0.19695 0.7993 0.13784 0.0
C1953 C 0.15534 0.76642 1.03274 0.0
H1954 H 0.20551 0.81783 0.06002 0.0
C1955 C 0.15031 0.75591 0.07773 0.0
C1956 C 0.16516 0.76772 0.11602 0.0
H1957 H 0.14343 0.75735 1.00375 0.0
H1958 H 0.13481 0.73867 0.08266 0.0
C1959 C 0.18536 0.78972 0.10874 0.0
C1960 C 0.50935 0.10992 0.40432 0.0
C1961 C 0.48879 0.12343 0.38032 0.0
H1962 H 0.52279 0.10139 0.47211 0.0
C1963 C 0.46527 0.13854 0.40669 0.0
H1964 H 0.52781 0.09842 0.38461 0.0
C1965 C 0.4625 0.14037 0.45668 0.0
C1966 C 0.48338 0.12738 0.48059 0.0
H1967 H 0.44914 0.14897 0.38865 0.0
H1968 H 0.4444 0.15239 0.47665 0.0
C1969 C 0.50666 0.11191 0.45417 0.0
C1970 C 0.1435 0.23244 0.63861 0.0
C1971 C 0.12515 0.25535 0.6281 0.0
H1972 H 0.15975 0.20879 0.69305 0.0
C1973 C 0.10865 0.27209 0.66621 0.0
H1974 H 0.15634 0.21892 0.61008 0.0
C1975 C 0.11023 0.26593 0.71358 0.0
C1976 C 0.12855 0.24304 0.7242 0.0
H1977 H 0.09461 0.29019 0.65955 0.0
H1978 H 0.0968 0.27897 0.74186 0.0
C1979 C 0.14519 0.22636 0.68614 0.0
C1980 C 0.03441 0.85742 0.89558 0.0
C1981 C 0.01335 0.86986 0.93066 0.0
H1982 H 0.04762 0.84903 0.82032 0.0
C1983 C 0.98948 0.8844 0.91718 0.0
H1984 H 0.05295 0.84614 0.90563 0.0
C1985 C 0.98653 0.88623 0.86889 0.0
C1986 C 0.00735 0.87335 0.83368 0.0
H1987 H 0.97319 0.89442 0.94401 0.0
H1988 H 0.96776 0.89719 0.85901 0.0
C1989 C 0.03132 0.85897 0.84718 0.0
C1990 C 0.33171 0.76099 0.34566 0.0
C1991 C 0.32184 0.791 0.35779 0.0
H1992 H 0.34428 0.7255 0.28989 0.0
C1993 C 0.31638 0.80799 0.32005 0.0
H1994 H 0.33599 0.74701 0.37357 0.0
C1995 C 0.32087 0.7955 0.27173 0.0
C1996 C 0.33097 0.76552 0.25934 0.0
H1997 H 0.30876 0.83113 0.32773 0.0
H1998 H 0.31608 0.80943 0.24409 0.0
C1999 C 0.33618 0.74847 0.29734 0.0
C2000 C 0.46813 0.09157 0.94196 0.0
C2001 C 0.48041 0.0926 0.89471 0.0
H2002 H 0.47393 0.0839 1.01427 0.0
C2003 C 0.50961 0.08595 0.88466 0.0
H2004 H 0.4456 0.09564 0.95056 0.0
C2005 C 0.52592 0.07796 0.92113 0.0
C2006 C 0.51345 0.07698 0.96853 0.0
H2007 H 0.51954 0.08548 0.84821 0.0
H2008 H 0.54823 0.0726 0.91225 0.0
C2009 C 0.4844 0.08436 0.97836 0.0
C2010 C 0.65796 0.75959 0.64052 0.0
C2011 C 0.64927 0.72974 0.64052 0.0
H2012 H 0.67291 0.79808 0.68175 0.0
C2013 C 0.64688 0.71626 0.68354 0.0
H2014 H 0.66103 0.76992 0.60719 0.0
C2015 C 0.65427 0.73194 0.72584 0.0
C2016 C 0.66472 0.76116 0.72541 0.0
H2017 H 0.64129 0.6928 0.68364 0.0
H2018 H 0.65292 0.72071 0.75835 0.0
C2019 C 0.66565 0.77524 0.68277 0.0
C2020 C 0.98936 0.91003 0.35601 0.0
C2021 C 0.01893 0.90557 0.35443 0.0
H2022 H 0.95015 0.92122 0.4004 0.0
C2023 C 0.0312 0.90848 0.39819 0.0
H2024 H 0.97928 0.90901 0.32292 0.0
C2025 C 0.01469 0.91542 0.44217 0.0
C2026 C 0.98528 0.92066 0.44408 0.0
H2027 H 0.05392 0.90609 0.3983 0.0
H2028 H 0.02522 0.91739 0.47487 0.0
C2029 C 0.97275 0.91769 0.40034 0.0
C2030 C 0.81088 0.20858 0.26067 0.0
C2031 C 0.83149 0.23015 0.25341 0.0
H2032 H 0.79025 0.18075 0.30918 0.0
C2033 C 0.84698 0.24106 0.29144 0.0
H2034 H 0.79888 0.19957 0.23174 0.0
C2035 C 0.84214 0.23005 0.33609 0.0
C2036 C 0.82192 0.20792 0.34277 0.0
H2037 H 0.86282 0.25795 0.28656 0.0
H2038 H 0.85462 0.23828 0.36481 0.0
C2039 C 0.8061 0.19763 0.30496 0.0
C2040 C 0.53363 0.8556 0.91075 0.0
C2041 C 0.51263 0.86837 0.88684 0.0
H2042 H 0.54713 0.84722 0.97878 0.0
C2043 C 0.48927 0.8837 0.91327 0.0
H2044 H 0.5518 0.8437 0.89077 0.0
C2045 C 0.48662 0.88574 0.96312 0.0
C2046 C 0.50731 0.87244 0.98712 0.0
H2047 H 0.47304 0.89405 0.89533 0.0
H2048 H 0.46809 0.89711 0.98284 0.0
C2049 C 0.5309 0.85748 0.96074 0.0
C2050 C 0.90207 0.75933 0.66482 0.0
C2051 C 0.87854 0.7537 0.6387 0.0
H2052 H 0.92024 0.75745 0.73103 0.0
C2053 C 0.85496 0.7401 0.66099 0.0
H2054 H 0.92086 0.76925 0.64882 0.0
C2055 C 0.85496 0.7324 0.7081 0.0
C2056 C 0.87845 0.73835 0.73428 0.0
H2057 H 0.8363 0.73569 0.64236 0.0
H2058 H 0.8366 0.72157 0.72377 0.0
C2059 C 0.90193 0.75202 0.71196 0.0
C2060 C 0.96142 0.13665 0.52055 0.0
C2061 C 0.98536 0.12268 0.53489 0.0
H2062 H 0.94 0.14832 0.46112 0.0
C2063 C 0.00628 0.10926 0.50035 0.0
H2064 H 0.94508 0.14701 0.54692 0.0
C2065 C 0.00349 0.1102 0.45184 0.0
C2066 C 0.97968 0.12439 0.43751 0.0
H2067 H 0.02503 0.09863 0.5109 0.0
H2068 H 0.01988 0.09987 0.4255 0.0
C2069 C 0.95848 0.1373 0.4719 0.0
C2070 C 0.65946 0.23275 1.02322 0.0
C2071 C 0.67399 0.20485 1.01111 0.0
H2072 H 0.64371 0.2672 0.07856 0.0
C2073 C 0.68386 0.19032 0.0487 0.0
H2074 H 0.65177 0.24492 0.99546 0.0
C2075 C 0.67904 0.20311 0.09689 0.0
C2076 C 0.6642 0.23093 0.1092 0.0
H2077 H 0.69523 0.16889 0.041 0.0
H2078 H 0.68654 0.19079 0.12459 0.0
C2079 C 0.65467 0.24554 0.0713 0.0
C2080 C 0.07637 0.54306 0.76423 0.0
C2081 C 0.09103 0.53093 0.72025 0.0
H2082 H 0.06759 0.5408 0.83984 0.0
C2083 C 0.10949 0.50604 0.72118 0.0
H2084 H 0.06173 0.56198 0.7654 0.0
C2085 C 0.11311 0.49381 0.76473 0.0
C2086 C 0.09836 0.50602 0.80882 0.0
H2087 H 0.12092 0.49573 0.68819 0.0
H2088 H 0.12776 0.47492 0.76375 0.0
C2089 C 0.0799 0.53088 0.80748 0.0
C2090 C 0.68772 0.84107 1.03329 0.0
C2091 C 0.70091 0.85443 0.99395 0.0
H2092 H 0.68924 0.82999 0.10505 0.0
C2093 C 0.72674 0.86874 0.99985 0.0
H2094 H 0.66808 0.82936 1.03021 0.0
C2095 C 0.73897 0.86943 0.04382 0.0
C2096 C 0.72581 0.85566 0.08302 0.0
H2097 H 0.7379 0.87868 0.97015 0.0
H2098 H 0.75875 0.88082 0.047 0.0
C2099 C 0.69994 0.84153 0.07674 0.0
C2100 C 0.3815 0.49809 0.30271 0.0
C2101 C 0.39731 0.48751 0.3382 0.0
H2102 H 0.37339 0.49503 0.22802 0.0
C2103 C 0.41761 0.46429 0.32223 0.0
H2104 H 0.36542 0.51561 0.31261 0.0
C2105 C 0.42176 0.45213 0.27363 0.0
C2106 C 0.40597 0.4626 0.23832 0.0
H2107 H 0.43091 0.45561 0.34707 0.0
H2108 H 0.43776 0.43451 0.26373 0.0
C2109 C 0.38581 0.48594 0.25378 0.0
C2110 C 0.75737 0.12245 0.6351 0.0
C2111 C 0.76558 0.14897 0.61458 0.0
H2112 H 0.73729 0.10293 0.69676 0.0
C2113 C 0.75792 0.17669 0.64213 0.0
H2114 H 0.76276 0.10066 0.61537 0.0
C2115 C 0.74257 0.178 0.6879 0.0
C2116 C 0.73485 0.15165 0.70908 0.0
H2117 H 0.76354 0.1977 0.62796 0.0
H2118 H 0.7372 0.19994 0.70722 0.0
C2119 C 0.74275 0.12377 0.68198 0.0
C2120 C 0.88685 0.49111 0.64608 0.0
C2121 C 0.90413 0.46526 0.64681 0.0
H2122 H 0.86965 0.52301 0.6036 0.0
C2123 C 0.91771 0.45211 0.60256 0.0
H2124 H 0.87633 0.50223 0.67929 0.0
C2125 C 0.91424 0.46421 0.55922 0.0
C2126 C 0.89698 0.49005 0.5581 0.0
H2127 H 0.93142 0.4324 0.60125 0.0
H2128 H 0.92565 0.45343 0.52657 0.0
C2129 C 0.88334 0.5033 0.60247 0.0
C2130 C 0.29521 0.15216 0.29086 0.0
C2131 C 0.26991 0.1369 0.28456 0.0
H2132 H 0.32655 0.166 0.33755 0.0
C2133 C 0.2572 0.12292 0.32387 0.0
H2134 H 0.30551 0.16388 0.2624 0.0
C2135 C 0.26934 0.12446 0.36798 0.0
C2136 C 0.29461 0.13987 0.37389 0.0
H2137 H 0.23787 0.11069 0.32065 0.0
H2138 H 0.25854 0.11425 0.39772 0.0
C2139 C 0.30735 0.15347 0.33447 0.0
C2140 C 0.57758 0.53274 0.0445 0.0
C2141 C 0.5967 0.50829 1.02927 0.0
H2142 H 0.55817 0.56353 0.10251 0.0
C2143 C 0.61137 0.49682 0.06543 0.0
H2144 H 0.56602 0.543 1.0188 0.0
C2145 C 0.60712 0.50923 0.1142 0.0
C2146 C 0.58796 0.53358 0.12902 0.0
H2147 H 0.6259 0.47776 0.05647 0.0
H2148 H 0.61857 0.49932 0.14045 0.0
C2149 C 0.57325 0.54496 0.09313 0.0
C2150 C 0.23751 0.82 0.7257 0.0
C2151 C 0.22993 0.8477 0.75335 0.0
H2152 H 0.25826 0.79678 0.66061 0.0
C2153 C 0.23833 0.87422 0.73302 0.0
H2154 H 0.23176 0.79898 0.73971 0.0
C2155 C 0.25308 0.87293 0.68624 0.0
C2156 C 0.26091 0.84507 0.65904 0.0
H2157 H 0.23303 0.89601 0.75284 0.0
H2158 H 0.25871 0.89379 0.67162 0.0
C2159 C 0.25297 0.8187 0.68002 0.0
C2160 C 0.581 0.03051 0.30797 0.0
C2161 C 0.59888 0.0051 0.30873 0.0
H2162 H 0.56317 0.06224 0.26642 0.0
C2163 C 0.61315 0.99275 0.26429 0.0
H2164 H 0.56991 0.04131 0.34089 0.0
C2165 C 0.60955 0.00526 0.221 0.0
C2166 C 0.59152 0.03054 0.22056 0.0
H2167 H 0.62677 0.97295 0.26256 0.0
H2168 H 0.62049 0.99471 0.18773 0.0
C2169 C 0.57734 0.04287 0.26485 0.0
C2170 C 0.18865 0.34288 0.53266 0.0
C2171 C 0.20148 0.35621 0.49303 0.0
H2172 H 0.19044 0.33276 0.60488 0.0
C2173 C 0.22688 0.37143 0.4987 0.0
H2174 H 0.16936 0.3305 0.52975 0.0
C2175 C 0.23906 0.37302 0.54277 0.0
C2176 C 0.22626 0.35931 0.58229 0.0
H2177 H 0.23775 0.38142 0.46879 0.0
H2178 H 0.2585 0.38508 0.54581 0.0
C2179 C 0.20082 0.34427 0.57624 0.0
C2180 C 0.91722 0.96883 0.82095 0.0
C2181 C 0.89676 0.99192 0.83664 0.0
H2182 H 0.9376 0.93903 0.76275 0.0
C2183 C 0.88094 0.0023 0.80104 0.0
H2184 H 0.93053 0.96033 0.84593 0.0
C2185 C 0.88539 0.99007 0.75221 0.0
C2186 C 0.90569 0.96683 0.73705 0.0
H2187 H 0.86474 0.01971 0.81076 0.0
H2188 H 0.87296 -0.00101 0.7263 0.0
C2189 C 0.92149 0.95656 0.77246 0.0
C2190 C 0.24241 0.67748 0.18729 0.0
C2191 C 0.23426 0.65115 0.20817 0.0
H2192 H 0.26367 0.69712 0.12759 0.0
C2193 C 0.24175 0.62326 0.18081 0.0
H2194 H 0.23736 0.69942 0.20683 0.0
C2195 C 0.25638 0.62192 0.13393 0.0
C2196 C 0.26498 0.64841 0.11368 0.0
H2197 H 0.23596 0.60244 0.19536 0.0
H2198 H 0.26143 0.60013 0.11396 0.0
C2199 C 0.25775 0.67612 0.14153 0.0
C2200 C 0.41844 0.95278 0.10253 0.0
C2201 C 0.40435 0.96519 0.14684 0.0
H2202 H 0.42577 0.95423 1.02646 0.0
C2203 C 0.38638 0.99052 0.14641 0.0
H2204 H 0.43255 0.93337 0.10096 0.0
C2205 C 0.38276 0.003 0.1031 0.0
C2206 C 0.39695 0.99057 0.05864 0.0
H2207 H 0.37551 0.00114 0.17969 0.0
H2208 H 0.3692 0.02284 0.10483 0.0
C2209 C 0.41476 0.9651 0.0594 0.0
C2210 C 0.76806 0.62492 0.86904 0.0
C2211 C 0.79376 0.63964 0.87411 0.0
H2212 H 0.73589 0.61184 0.82269 0.0
C2213 C 0.80656 0.65272 0.83417 0.0
H2214 H 0.75721 0.61515 0.89919 0.0
C2215 C 0.79407 0.65155 0.79089 0.0
C2216 C 0.76833 0.63698 0.78542 0.0
H2217 H 0.82608 0.66474 0.8366 0.0
H2218 H 0.80447 0.66287 0.76204 0.0
C2219 C 0.75556 0.62353 0.82525 0.0
C2220 C 0.07612 0.03216 0.54537 0.0
C2221 C 0.09662 0.00921 0.52899 0.0
H2222 H 0.05595 0.06166 0.60423 0.0
C2223 C 0.11279 -0.00118 0.56417 0.0
H2224 H 0.06254 0.04069 0.52082 0.0
C2225 C 0.10864 0.01088 0.61317 0.0
C2226 C 0.08828 0.03397 0.62902 0.0
H2227 H 0.12905 0.98151 0.55399 0.0
H2228 H 0.12135 0.00194 0.63867 0.0
C2229 C 0.07213 0.04425 0.59404 0.0
C2230 C 0.73807 0.37457 0.23362 0.0
C2231 C 0.73006 0.34803 0.25424 0.0
H2232 H 0.75808 0.39415 0.17195 0.0
C2233 C 0.73797 0.32033 0.22683 0.0
H2234 H 0.73249 0.39635 0.25325 0.0
C2235 C 0.75338 0.31906 0.18111 0.0
C2236 C 0.76092 0.34544 0.15984 0.0
H2237 H 0.73252 0.2993 0.24108 0.0
H2238 H 0.75894 0.29714 0.16191 0.0
C2239 C 0.75276 0.37329 0.18679 0.0
loop_
_geom_bond_atom_site_label_1
_geom_bond_atom_site_label_2
_geom_bond_distance
_geom_bond_site_symmetry_2
_ccdc_geom_bond_type
Sm0 C2 2.846 . S
Sm0 O20 2.543 . S
Sm0 O21 2.450 . S
Sm0 O22 2.681 . S
Sm0 O23 2.464 . S
Sm0 O24 2.396 . S
Sm0 O28 2.386 . S
Sm0 O31 2.408 . S
Sm1 C11 2.846 1_554 S
Sm1 O22 2.386 . S
Sm1 O25 2.408 . S
Sm1 O26 2.543 1_554 S
Sm1 O27 2.450 1_554 S
Sm1 O28 2.681 . S
Sm1 O29 2.464 . S
Sm1 O30 2.396 . S
C2 Sm0 2.846 . S
C2 C3 1.506 . S
C2 O20 1.261 . S
C2 O21 1.242 . S
C3 C2 1.506 . S
C3 C4 1.358 . S
C3 C8 1.382 1_455 S
C4 C3 1.358 . S
C4 C5 1.385 . S
C4 H32 0.930 . S
C5 C4 1.385 . S
C5 C6 1.395 . S
C5 H33 0.929 . S
C6 C5 1.395 . S
C6 C7 1.335 1_455 S
C7 C6 1.335 1_655 S
C7 C8 1.398 . S
C7 H34 0.930 . S
C8 C3 1.382 1_655 S
C8 C7 1.398 . S
C8 H35 0.929 . S
C9 O22 1.271 . S
C9 O23 1.251 . S
C10 O24 1.252 . S
C10 O25 1.272 . S
C11 Sm1 2.846 1_556 S
C11 C12 1.506 . S
C11 O26 1.261 . S
C11 O27 1.242 . S
C12 C11 1.506 . S
C12 C13 1.358 . S
C12 C17 1.382 . S
C13 C12 1.358 . S
C13 C14 1.385 . S
C13 H36 0.930 . S
C14 C13 1.385 . S
C14 C15 1.395 . S
C14 H37 0.929 . S
C15 C14 1.395 . S
C15 C16 1.335 . S
C16 C15 1.335 . S
C16 C17 1.398 . S
C16 H38 0.930 . S
C17 C12 1.382 . S
C17 C16 1.398 . S
C17 H39 0.929 . S
C18 O28 1.271 . S
C18 O29 1.251 . S
C19 O30 1.252 . S
C19 O31 1.272 . S
O20 Sm0 2.543 . S
O20 C2 1.261 . S
O21 Sm0 2.450 . S
O21 C2 1.242 . S
O22 Sm0 2.681 . S
O22 Sm1 2.386 . S
O22 C9 1.271 . S
O23 Sm0 2.464 . S
O23 C9 1.251 . S
O24 Sm0 2.396 . S
O24 C10 1.252 . S
O25 Sm1 2.408 . S
O25 C10 1.272 . S
O26 Sm1 2.543 1_556 S
O26 C11 1.261 . S
O27 Sm1 2.450 1_556 S
O27 C11 1.242 . S
O28 Sm0 2.386 . S
O28 Sm1 2.681 . S
O28 C18 1.271 . S
O29 Sm1 2.464 . S
O29 C18 1.251 . S
O30 Sm1 2.396 . S
O30 C19 1.252 . S
O31 Sm0 2.408 . S
O31 C19 1.272 . S
H32 C4 0.930 . S
H33 C5 0.929 . S
H34 C7 0.930 . S
H35 C8 0.929 . S
H36 C13 0.930 . S
H37 C14 0.929 . S
H38 C16 0.930 . S
H39 C17 0.929 . S
Sm40 C42 2.846 . S
Sm40 O60 2.543 . S
Sm40 O61 2.450 . S
Sm40 O62 2.681 . S
Sm40 O63 2.464 . S
Sm40 O64 2.396 . S
Sm40 O68 2.386 . S
Sm40 O71 2.408 . S
Sm41 C51 2.846 . S
Sm41 O62 2.386 . S
Sm41 O65 2.408 . S
Sm41 O66 2.543 . S
Sm41 O67 2.450 . S
Sm41 O68 2.681 . S
Sm41 O69 2.464 . S
Sm41 O70 2.396 . S
C42 Sm40 2.846 . S
C42 C43 1.506 . S
C42 O60 1.261 . S
C42 O61 1.242 . S
C43 C42 1.506 . S
C43 C44 1.358 . S
C43 C48 1.382 . S
C44 C43 1.358 . S
C44 C45 1.385 . S
C44 H72 0.930 . S
C45 C44 1.385 . S
C45 C46 1.395 . S
C45 H73 0.929 . S
C46 C45 1.395 . S
C46 C47 1.335 . S
C47 C46 1.335 . S
C47 C48 1.398 . S
C47 H74 0.930 . S
C48 C43 1.382 . S
C48 C47 1.398 . S
C48 H75 0.929 . S
C49 O62 1.271 . S
C49 O63 1.251 . S
C50 O64 1.252 . S
C50 O65 1.272 . S
C51 Sm41 2.846 . S
C51 C52 1.506 . S
C51 O66 1.261 . S
C51 O67 1.242 . S
C52 C51 1.506 . S
C52 C53 1.358 . S
C52 C57 1.382 . S
C53 C52 1.358 . S
C53 C54 1.385 . S
C53 H76 0.930 . S
C54 C53 1.385 . S
C54 C55 1.395 . S
C54 H77 0.929 . S
C55 C54 1.395 . S
C55 C56 1.335 . S
C56 C55 1.335 . S
C56 C57 1.398 . S
C56 H78 0.930 . S
C57 C52 1.382 . S
C57 C56 1.398 . S
C57 H79 0.929 . S
C58 O68 1.271 . S
C58 O69 1.251 . S
C59 O70 1.252 . S
C59 O71 1.272 . S
O60 Sm40 2.543 . S
O60 C42 1.261 . S
O61 Sm40 2.450 . S
O61 C42 1.242 . S
O62 Sm40 2.681 . S
O62 Sm41 2.386 . S
O62 C49 1.271 . S
O63 Sm40 2.464 . S
O63 C49 1.251 . S
O64 Sm40 2.396 . S
O64 C50 1.252 . S
O65 Sm41 2.408 . S
O65 C50 1.272 . S
O66 Sm41 2.543 . S
O66 C51 1.261 . S
O67 Sm41 2.450 . S
O67 C51 1.242 . S
O68 Sm40 2.386 . S
O68 Sm41 2.681 . S
O68 C58 1.271 . S
O69 Sm41 2.464 . S
O69 C58 1.251 . S
O70 Sm41 2.396 . S
O70 C59 1.252 . S
O71 Sm40 2.408 . S
O71 C59 1.272 . S
H72 C44 0.930 . S
H73 C45 0.929 . S
H74 C47 0.930 . S
H75 C48 0.929 . S
H76 C53 0.930 . S
H77 C54 0.929 . S
H78 C56 0.930 . S
H79 C57 0.929 . S
Sm80 C82 2.846 . S
Sm80 O100 2.543 . S
Sm80 O101 2.450 . S
Sm80 O102 2.681 . S
Sm80 O103 2.464 . S
Sm80 O104 2.396 . S
Sm80 O108 2.386 . S
Sm80 O111 2.408 . S
Sm81 C91 2.846 . S
Sm81 O102 2.386 . S
Sm81 O105 2.408 . S
Sm81 O106 2.543 . S
Sm81 O107 2.450 . S
Sm81 O108 2.681 . S
Sm81 O109 2.464 . S
Sm81 O110 2.396 . S
C82 Sm80 2.846 . S
C82 C83 1.506 . S
C82 O100 1.261 . S
C82 O101 1.242 . S
C83 C82 1.506 . S
C83 C84 1.358 . S
C83 C88 1.382 . S
C84 C83 1.358 . S
C84 C85 1.385 . S
C84 H112 0.930 . S
C85 C84 1.385 . S
C85 C86 1.395 . S
C85 H113 0.929 . S
C86 C85 1.395 . S
C86 C87 1.335 . S
C87 C86 1.335 . S
C87 C88 1.398 . S
C87 H114 0.930 . S
C88 C83 1.382 . S
C88 C87 1.398 . S
C88 H115 0.929 . S
C89 O102 1.271 . S
C89 O103 1.251 . S
C90 O104 1.252 . S
C90 O105 1.272 . S
C91 Sm81 2.846 . S
C91 C92 1.506 . S
C91 O106 1.261 . S
C91 O107 1.242 . S
C92 C91 1.506 . S
C92 C93 1.358 . S
C92 C97 1.382 . S
C93 C92 1.358 . S
C93 C94 1.385 . S
C93 H116 0.930 . S
C94 C93 1.385 . S
C94 C95 1.395 . S
C94 H117 0.929 . S
C95 C94 1.395 . S
C95 C96 1.335 . S
C96 C95 1.335 . S
C96 C97 1.398 . S
C96 H118 0.930 . S
C97 C92 1.382 . S
C97 C96 1.398 . S
C97 H119 0.929 . S
C98 O108 1.271 . S
C98 O109 1.251 . S
C99 O110 1.252 . S
C99 O111 1.272 . S
O100 Sm80 2.543 . S
O100 C82 1.261 . S
O101 Sm80 2.450 . S
O101 C82 1.242 . S
O102 Sm80 2.681 . S
O102 Sm81 2.386 . S
O102 C89 1.271 . S
O103 Sm80 2.464 . S
O103 C89 1.251 . S
O104 Sm80 2.396 . S
O104 C90 1.252 . S
O105 Sm81 2.408 . S
O105 C90 1.272 . S
O106 Sm81 2.543 . S
O106 C91 1.261 . S
O107 Sm81 2.450 . S
O107 C91 1.242 . S
O108 Sm80 2.386 . S
O108 Sm81 2.681 . S
O108 C98 1.271 . S
O109 Sm81 2.464 . S
O109 C98 1.251 . S
O110 Sm81 2.396 . S
O110 C99 1.252 . S
O111 Sm80 2.408 . S
O111 C99 1.272 . S
H112 C84 0.930 . S
H113 C85 0.929 . S
H114 C87 0.930 . S
H115 C88 0.929 . S
H116 C93 0.930 . S
H117 C94 0.929 . S
H118 C96 0.930 . S
H119 C97 0.929 . S
Sm120 C122 2.846 . S
Sm120 O140 2.543 . S
Sm120 O141 2.450 . S
Sm120 O142 2.681 . S
Sm120 O143 2.464 . S
Sm120 O144 2.396 . S
Sm120 O148 2.386 . S
Sm120 O151 2.408 . S
Sm121 C131 2.846 . S
Sm121 O142 2.386 . S
Sm121 O145 2.408 . S
Sm121 O146 2.543 . S
Sm121 O147 2.450 . S
Sm121 O148 2.681 . S
Sm121 O149 2.464 . S
Sm121 O150 2.396 . S
C122 Sm120 2.846 . S
C122 C123 1.506 . S
C122 O140 1.261 . S
C122 O141 1.242 . S
C123 C122 1.506 . S
C123 C124 1.358 . S
C123 C128 1.382 . S
C124 C123 1.358 . S
C124 C125 1.385 . S
C124 H152 0.930 . S
C125 C124 1.385 . S
C125 C126 1.395 . S
C125 H153 0.929 . S
C126 C125 1.395 . S
C126 C127 1.335 . S
C127 C126 1.335 . S
C127 C128 1.398 . S
C127 H154 0.930 . S
C128 C123 1.382 . S
C128 C127 1.398 . S
C128 H155 0.929 . S
C129 O142 1.271 . S
C129 O143 1.251 . S
C130 O144 1.252 . S
C130 O145 1.272 . S
C131 Sm121 2.846 . S
C131 C132 1.506 1_556 S
C131 O146 1.261 . S
C131 O147 1.242 . S
C132 C131 1.506 1_554 S
C132 C133 1.358 . S
C132 C137 1.382 . S
C133 C132 1.358 . S
C133 C134 1.385 . S
C133 H156 0.930 . S
C134 C133 1.385 . S
C134 C135 1.395 . S
C134 H157 0.929 . S
C135 C134 1.395 . S
C135 C136 1.335 . S
C136 C135 1.335 . S
C136 C137 1.398 . S
C136 H158 0.930 . S
C137 C132 1.382 . S
C137 C136 1.398 . S
C137 H159 0.929 . S
C138 O148 1.271 . S
C138 O149 1.251 . S
C139 O150 1.252 . S
C139 O151 1.272 . S
O140 Sm120 2.543 . S
O140 C122 1.261 . S
O141 Sm120 2.450 . S
O141 C122 1.242 . S
O142 Sm120 2.681 . S
O142 Sm121 2.386 . S
O142 C129 1.271 . S
O143 Sm120 2.464 . S
O143 C129 1.251 . S
O144 Sm120 2.396 . S
O144 C130 1.252 . S
O145 Sm121 2.408 . S
O145 C130 1.272 . S
O146 Sm121 2.543 . S
O146 C131 1.261 . S
O147 Sm121 2.450 . S
O147 C131 1.242 . S
O148 Sm120 2.386 . S
O148 Sm121 2.681 . S
O148 C138 1.271 . S
O149 Sm121 2.464 . S
O149 C138 1.251 . S
O150 Sm121 2.396 . S
O150 C139 1.252 . S
O151 Sm120 2.408 . S
O151 C139 1.272 . S
H152 C124 0.930 . S
H153 C125 0.929 . S
H154 C127 0.930 . S
H155 C128 0.929 . S
H156 C133 0.930 . S
H157 C134 0.929 . S
H158 C136 0.930 . S
H159 C137 0.929 . S
Sm160 C162 2.846 . S
Sm160 O180 2.543 . S
Sm160 O181 2.450 . S
Sm160 O182 2.681 . S
Sm160 O183 2.464 . S
Sm160 O184 2.396 . S
Sm160 O188 2.386 . S
Sm160 O191 2.408 . S
Sm161 C171 2.846 . S
Sm161 O182 2.386 . S
Sm161 O185 2.408 . S
Sm161 O186 2.543 . S
Sm161 O187 2.450 . S
Sm161 O188 2.681 . S
Sm161 O189 2.464 . S
Sm161 O190 2.396 . S
C162 Sm160 2.846 . S
C162 C163 1.506 . S
C162 O180 1.261 . S
C162 O181 1.242 . S
C163 C162 1.506 . S
C163 C164 1.358 . S
C163 C168 1.382 . S
C164 C163 1.358 . S
C164 C165 1.385 . S
C164 H192 0.930 . S
C165 C164 1.385 . S
C165 C166 1.395 . S
C165 H193 0.929 . S
C166 C165 1.395 . S
C166 C167 1.335 . S
C167 C166 1.335 . S
C167 C168 1.398 . S
C167 H194 0.930 . S
C168 C163 1.382 . S
C168 C167 1.398 . S
C168 H195 0.929 . S
C169 O182 1.271 . S
C169 O183 1.251 . S
C170 O184 1.252 . S
C170 O185 1.272 . S
C171 Sm161 2.846 . S
C171 C172 1.506 . S
C171 O186 1.261 . S
C171 O187 1.242 . S
C172 C171 1.506 . S
C172 C173 1.358 . S
C172 C177 1.382 . S
C173 C172 1.358 . S
C173 C174 1.385 . S
C173 H196 0.930 . S
C174 C173 1.385 . S
C174 C175 1.395 . S
C174 H197 0.929 . S
C175 C174 1.395 . S
C175 C176 1.335 . S
C176 C175 1.335 . S
C176 C177 1.398 . S
C176 H198 0.930 . S
C177 C172 1.382 . S
C177 C176 1.398 . S
C177 H199 0.929 . S
C178 O188 1.271 . S
C178 O189 1.251 . S
C179 O190 1.252 . S
C179 O191 1.272 . S
O180 Sm160 2.543 . S
O180 C162 1.261 . S
O181 Sm160 2.450 . S
O181 C162 1.242 . S
O182 Sm160 2.681 . S
O182 Sm161 2.386 . S
O182 C169 1.271 . S
O183 Sm160 2.464 . S
O183 C169 1.251 . S
O184 Sm160 2.396 . S
O184 C170 1.252 . S
O185 Sm161 2.408 . S
O185 C170 1.272 . S
O186 Sm161 2.543 . S
O186 C171 1.261 . S
O187 Sm161 2.450 . S
O187 C171 1.242 . S
O188 Sm160 2.386 . S
O188 Sm161 2.681 . S
O188 C178 1.271 . S
O189 Sm161 2.464 . S
O189 C178 1.251 . S
O190 Sm161 2.396 . S
O190 C179 1.252 . S
O191 Sm160 2.408 . S
O191 C179 1.272 . S
H192 C164 0.930 . S
H193 C165 0.929 . S
H194 C167 0.930 . S
H195 C168 0.929 . S
H196 C173 0.930 . S
H197 C174 0.929 . S
H198 C176 0.930 . S
H199 C177 0.929 . S
Sm200 C202 2.846 . S
Sm200 O220 2.543 . S
Sm200 O221 2.450 . S
Sm200 O222 2.681 . S
Sm200 O223 2.464 . S
Sm200 O224 2.396 . S
Sm200 O228 2.386 . S
Sm200 O231 2.408 . S
Sm201 C211 2.846 . S
Sm201 O222 2.386 . S
Sm201 O225 2.408 . S
Sm201 O226 2.543 . S
Sm201 O227 2.450 . S
Sm201 O228 2.681 . S
Sm201 O229 2.464 . S
Sm201 O230 2.396 . S
C202 Sm200 2.846 . S
C202 C203 1.506 . S
C202 O220 1.261 . S
C202 O221 1.242 . S
C203 C202 1.506 . S
C203 C204 1.358 1_556 S
C203 C208 1.382 . S
C204 C203 1.358 1_554 S
C204 C205 1.385 . S
C204 H232 0.933 . S
C205 C204 1.385 . S
C205 C206 1.395 . S
C205 H233 0.929 . S
C206 C205 1.395 . S
C206 C207 1.335 . S
C207 C206 1.335 . S
C207 C208 1.398 1_554 S
C207 H234 0.930 . S
C208 C203 1.382 . S
C208 C207 1.398 1_556 S
C208 H235 0.929 . S
C209 O222 1.271 . S
C209 O223 1.251 . S
C210 O224 1.252 . S
C210 O225 1.272 . S
C211 Sm201 2.846 . S
C211 C212 1.506 . S
C211 O226 1.261 . S
C211 O227 1.242 . S
C212 C211 1.506 . S
C212 C213 1.358 . S
C212 C217 1.382 . S
C213 C212 1.358 . S
C213 C214 1.385 . S
C213 H236 0.930 . S
C214 C213 1.385 . S
C214 C215 1.395 . S
C214 H237 0.929 . S
C215 C214 1.395 . S
C215 C216 1.335 . S
C216 C215 1.335 . S
C216 C217 1.398 . S
C216 H238 0.930 . S
C217 C212 1.382 . S
C217 C216 1.398 . S
C217 H239 0.929 . S
C218 O228 1.271 . S
C218 O229 1.251 . S
C219 O230 1.252 . S
C219 O231 1.272 . S
O220 Sm200 2.543 . S
O220 C202 1.261 . S
O221 Sm200 2.450 . S
O221 C202 1.242 . S
O222 Sm200 2.681 . S
O222 Sm201 2.386 . S
O222 C209 1.271 . S
O223 Sm200 2.464 . S
O223 C209 1.251 . S
O224 Sm200 2.396 . S
O224 C210 1.252 . S
O225 Sm201 2.408 . S
O225 C210 1.272 . S
O226 Sm201 2.543 . S
O226 C211 1.261 . S
O227 Sm201 2.450 . S
O227 C211 1.242 . S
O228 Sm200 2.386 . S
O228 Sm201 2.681 . S
O228 C218 1.271 . S
O229 Sm201 2.464 . S
O229 C218 1.251 . S
O230 Sm201 2.396 . S
O230 C219 1.252 . S
O231 Sm200 2.408 . S
O231 C219 1.272 . S
H232 C204 0.933 . S
H233 C205 0.929 . S
H234 C207 0.930 . S
H235 C208 0.929 . S
H236 C213 0.930 . S
H237 C214 0.929 . S
H238 C216 0.930 . S
H239 C217 0.929 . S
Sm240 C242 2.846 . S
Sm240 O260 2.543 . S
Sm240 O261 2.450 . S
Sm240 O262 2.681 . S
Sm240 O263 2.464 . S
Sm240 O264 2.396 . S
Sm240 O268 2.386 . S
Sm240 O271 2.408 1_554 S
Sm241 C251 2.846 1_554 S
Sm241 O262 2.386 . S
Sm241 O265 2.408 . S
Sm241 O266 2.543 1_554 S
Sm241 O267 2.450 1_554 S
Sm241 O268 2.681 . S
Sm241 O269 2.464 . S
Sm241 O270 2.396 1_554 S
C242 Sm240 2.846 . S
C242 C243 1.506 . S
C242 O260 1.261 . S
C242 O261 1.242 . S
C243 C242 1.506 . S
C243 C244 1.358 . S
C243 C248 1.382 . S
C244 C243 1.358 . S
C244 C245 1.385 . S
C244 H272 0.930 . S
C245 C244 1.385 . S
C245 C246 1.395 . S
C245 H273 0.929 . S
C246 C245 1.395 . S
C246 C247 1.335 . S
C247 C246 1.335 . S
C247 C248 1.398 . S
C247 H274 0.930 . S
C248 C243 1.382 . S
C248 C247 1.398 . S
C248 H275 0.929 . S
C249 O262 1.271 . S
C249 O263 1.251 . S
C250 O264 1.252 . S
C250 O265 1.272 . S
C251 Sm241 2.846 1_556 S
C251 C252 1.506 . S
C251 O266 1.261 . S
C251 O267 1.242 . S
C252 C251 1.506 . S
C252 C253 1.358 . S
C252 C257 1.382 . S
C253 C252 1.358 . S
C253 C254 1.385 . S
C253 H276 0.930 . S
C254 C253 1.385 . S
C254 C255 1.395 . S
C254 H277 0.929 . S
C255 C254 1.395 . S
C255 C256 1.335 . S
C256 C255 1.335 . S
C256 C257 1.398 . S
C256 H278 0.930 . S
C257 C252 1.382 . S
C257 C256 1.398 . S
C257 H279 0.929 . S
C258 O268 1.271 . S
C258 O269 1.251 . S
C259 O270 1.252 . S
C259 O271 1.272 . S
O260 Sm240 2.543 . S
O260 C242 1.261 . S
O261 Sm240 2.450 . S
O261 C242 1.242 . S
O262 Sm240 2.681 . S
O262 Sm241 2.386 . S
O262 C249 1.271 . S
O263 Sm240 2.464 . S
O263 C249 1.251 . S
O264 Sm240 2.396 . S
O264 C250 1.252 . S
O265 Sm241 2.408 . S
O265 C250 1.272 . S
O266 Sm241 2.543 1_556 S
O266 C251 1.261 . S
O267 Sm241 2.450 1_556 S
O267 C251 1.242 . S
O268 Sm240 2.386 . S
O268 Sm241 2.681 . S
O268 C258 1.271 . S
O269 Sm241 2.464 . S
O269 C258 1.251 . S
O270 Sm241 2.396 1_556 S
O270 C259 1.252 . S
O271 Sm240 2.408 1_556 S
O271 C259 1.272 . S
H272 C244 0.930 . S
H273 C245 0.929 . S
H274 C247 0.930 . S
H275 C248 0.929 . S
H276 C253 0.930 . S
H277 C254 0.929 . S
H278 C256 0.930 . S
H279 C257 0.929 . S
Sm280 C282 2.846 . S
Sm280 O300 2.543 . S
Sm280 O301 2.450 . S
Sm280 O302 2.681 . S
Sm280 O303 2.464 . S
Sm280 O304 2.396 . S
Sm280 O308 2.386 . S
Sm280 O311 2.408 . S
Sm281 C291 2.846 . S
Sm281 O302 2.386 . S
Sm281 O305 2.408 . S
Sm281 O306 2.543 . S
Sm281 O307 2.450 . S
Sm281 O308 2.681 . S
Sm281 O309 2.464 . S
Sm281 O310 2.396 . S
C282 Sm280 2.846 . S
C282 C283 1.506 . S
C282 O300 1.261 . S
C282 O301 1.242 . S
C283 C282 1.506 . S
C283 C284 1.358 . S
C283 C288 1.382 . S
C284 C283 1.358 . S
C284 C285 1.385 . S
C284 H312 0.930 . S
C285 C284 1.385 . S
C285 C286 1.395 . S
C285 H313 0.929 . S
C286 C285 1.395 . S
C286 C287 1.335 . S
C287 C286 1.335 . S
C287 C288 1.398 . S
C287 H314 0.930 . S
C288 C283 1.382 . S
C288 C287 1.398 . S
C288 H315 0.929 . S
C289 O302 1.271 . S
C289 O303 1.251 . S
C290 O304 1.252 . S
C290 O305 1.272 . S
C291 Sm281 2.846 . S
C291 C292 1.506 . S
C291 O306 1.261 . S
C291 O307 1.242 . S
C292 C291 1.506 . S
C292 C293 1.358 . S
C292 C297 1.382 . S
C293 C292 1.358 . S
C293 C294 1.385 . S
C293 H316 0.930 . S
C294 C293 1.385 . S
C294 C295 1.395 . S
C294 H317 0.929 . S
C295 C294 1.395 . S
C295 C296 1.335 . S
C296 C295 1.335 . S
C296 C297 1.398 . S
C296 H318 0.930 . S
C297 C292 1.382 . S
C297 C296 1.398 . S
C297 H319 0.929 . S
C298 O308 1.271 . S
C298 O309 1.251 . S
C299 O310 1.252 . S
C299 O311 1.272 . S
O300 Sm280 2.543 . S
O300 C282 1.261 . S
O301 Sm280 2.450 . S
O301 C282 1.242 . S
O302 Sm280 2.681 . S
O302 Sm281 2.386 . S
O302 C289 1.271 . S
O303 Sm280 2.464 . S
O303 C289 1.251 . S
O304 Sm280 2.396 . S
O304 C290 1.252 . S
O305 Sm281 2.408 . S
O305 C290 1.272 . S
O306 Sm281 2.543 . S
O306 C291 1.261 . S
O307 Sm281 2.450 . S
O307 C291 1.242 . S
O308 Sm280 2.386 . S
O308 Sm281 2.681 . S
O308 C298 1.271 . S
O309 Sm281 2.464 . S
O309 C298 1.251 . S
O310 Sm281 2.396 . S
O310 C299 1.252 . S
O311 Sm280 2.408 . S
O311 C299 1.272 . S
H312 C284 0.930 . S
H313 C285 0.929 . S
H314 C287 0.930 . S
H315 C288 0.929 . S
H316 C293 0.930 . S
H317 C294 0.929 . S
H318 C296 0.930 . S
H319 C297 0.929 . S
Sm320 C322 2.846 . S
Sm320 O340 2.543 . S
Sm320 O341 2.450 . S
Sm320 O342 2.681 . S
Sm320 O343 2.464 . S
Sm320 O344 2.396 . S
Sm320 O348 2.386 . S
Sm320 O351 2.408 . S
Sm321 C331 2.846 . S
Sm321 O342 2.386 . S
Sm321 O345 2.408 . S
Sm321 O346 2.543 . S
Sm321 O347 2.450 . S
Sm321 O348 2.681 . S
Sm321 O349 2.464 . S
Sm321 O350 2.396 . S
C322 Sm320 2.846 . S
C322 C323 1.506 . S
C322 O340 1.261 . S
C322 O341 1.242 . S
C323 C322 1.506 . S
C323 C324 1.358 . S
C323 C328 1.382 . S
C324 C323 1.358 . S
C324 C325 1.385 . S
C324 H352 0.930 . S
C325 C324 1.385 . S
C325 C326 1.395 . S
C325 H353 0.929 . S
C326 C325 1.395 . S
C326 C327 1.335 . S
C327 C326 1.335 . S
C327 C328 1.398 . S
C327 H354 0.930 . S
C328 C323 1.382 . S
C328 C327 1.398 . S
C328 H355 0.929 . S
C329 O342 1.271 . S
C329 O343 1.251 . S
C330 O344 1.252 . S
C330 O345 1.272 . S
C331 Sm321 2.846 . S
C331 C332 1.506 . S
C331 O346 1.261 . S
C331 O347 1.242 . S
C332 C331 1.506 . S
C332 C333 1.358 . S
C332 C337 1.382 1_655 S
C333 C332 1.358 . S
C333 C334 1.385 1_554 S
C333 H356 0.930 . S
C334 C333 1.385 1_556 S
C334 C335 1.395 . S
C334 H357 0.929 . S
C335 C334 1.395 . S
C335 C336 1.335 1_655 S
C336 C335 1.335 1_455 S
C336 C337 1.398 1_556 S
C336 H358 0.930 . S
C337 C332 1.382 1_455 S
C337 C336 1.398 1_554 S
C337 H359 0.929 . S
C338 O348 1.271 . S
C338 O349 1.251 . S
C339 O350 1.252 . S
C339 O351 1.272 . S
O340 Sm320 2.543 . S
O340 C322 1.261 . S
O341 Sm320 2.450 . S
O341 C322 1.242 . S
O342 Sm320 2.681 . S
O342 Sm321 2.386 . S
O342 C329 1.271 . S
O343 Sm320 2.464 . S
O343 C329 1.251 . S
O344 Sm320 2.396 . S
O344 C330 1.252 . S
O345 Sm321 2.408 . S
O345 C330 1.272 . S
O346 Sm321 2.543 . S
O346 C331 1.261 . S
O347 Sm321 2.450 . S
O347 C331 1.242 . S
O348 Sm320 2.386 . S
O348 Sm321 2.681 . S
O348 C338 1.271 . S
O349 Sm321 2.464 . S
O349 C338 1.251 . S
O350 Sm321 2.396 . S
O350 C339 1.252 . S
O351 Sm320 2.408 . S
O351 C339 1.272 . S
H352 C324 0.930 . S
H353 C325 0.929 . S
H354 C327 0.930 . S
H355 C328 0.929 . S
H356 C333 0.930 . S
H357 C334 0.929 . S
H358 C336 0.930 . S
H359 C337 0.929 . S
Sm360 C362 2.846 1_556 S
Sm360 O380 2.543 1_556 S
Sm360 O381 2.450 1_556 S
Sm360 O382 2.681 . S
Sm360 O383 2.464 . S
Sm360 O384 2.396 1_556 S
Sm360 O388 2.386 . S
Sm360 O391 2.408 . S
Sm361 C371 2.846 . S
Sm361 O382 2.386 . S
Sm361 O385 2.408 1_556 S
Sm361 O386 2.543 . S
Sm361 O387 2.450 . S
Sm361 O388 2.681 . S
Sm361 O389 2.464 . S
Sm361 O390 2.396 . S
C362 Sm360 2.846 1_554 S
C362 C363 1.506 . S
C362 O380 1.261 . S
C362 O381 1.242 . S
C363 C362 1.506 . S
C363 C364 1.358 . S
C363 C368 1.382 . S
C364 C363 1.358 . S
C364 C365 1.385 . S
C364 H392 0.930 . S
C365 C364 1.385 . S
C365 C366 1.395 . S
C365 H393 0.929 . S
C366 C365 1.395 . S
C366 C367 1.335 . S
C367 C366 1.335 . S
C367 C368 1.398 . S
C367 H394 0.930 . S
C368 C363 1.382 . S
C368 C367 1.398 . S
C368 H395 0.929 . S
C369 O382 1.271 . S
C369 O383 1.251 . S
C370 O384 1.252 . S
C370 O385 1.272 . S
C371 Sm361 2.846 . S
C371 C372 1.506 . S
C371 O386 1.261 . S
C371 O387 1.242 . S
C372 C371 1.506 . S
C372 C373 1.358 . S
C372 C377 1.382 . S
C373 C372 1.358 . S
C373 C374 1.385 . S
C373 H396 0.930 . S
C374 C373 1.385 . S
C374 C375 1.395 . S
C374 H397 0.929 . S
C375 C374 1.395 . S
C375 C376 1.335 . S
C376 C375 1.335 . S
C376 C377 1.398 . S
C376 H398 0.930 . S
C377 C372 1.382 . S
C377 C376 1.398 . S
C377 H399 0.929 . S
C378 O388 1.271 . S
C378 O389 1.251 . S
C379 O390 1.252 . S
C379 O391 1.272 . S
O380 Sm360 2.543 1_554 S
O380 C362 1.261 . S
O381 Sm360 2.450 1_554 S
O381 C362 1.242 . S
O382 Sm360 2.681 . S
O382 Sm361 2.386 . S
O382 C369 1.271 . S
O383 Sm360 2.464 . S
O383 C369 1.251 . S
O384 Sm360 2.396 1_554 S
O384 C370 1.252 . S
O385 Sm361 2.408 1_554 S
O385 C370 1.272 . S
O386 Sm361 2.543 . S
O386 C371 1.261 . S
O387 Sm361 2.450 . S
O387 C371 1.242 . S
O388 Sm360 2.386 . S
O388 Sm361 2.681 . S
O388 C378 1.271 . S
O389 Sm361 2.464 . S
O389 C378 1.251 . S
O390 Sm361 2.396 . S
O390 C379 1.252 . S
O391 Sm360 2.408 . S
O391 C379 1.272 . S
H392 C364 0.930 . S
H393 C365 0.929 . S
H394 C367 0.930 . S
H395 C368 0.929 . S
H396 C373 0.930 . S
H397 C374 0.929 . S
H398 C376 0.930 . S
H399 C377 0.929 . S
Sm400 C402 2.846 . S
Sm400 O420 2.543 . S
Sm400 O421 2.450 . S
Sm400 O422 2.681 . S
Sm400 O423 2.464 . S
Sm400 O424 2.396 . S
Sm400 O428 2.386 . S
Sm400 O431 2.408 . S
Sm401 C411 2.846 . S
Sm401 O422 2.386 . S
Sm401 O425 2.408 . S
Sm401 O426 2.543 . S
Sm401 O427 2.450 . S
Sm401 O428 2.681 . S
Sm401 O429 2.464 . S
Sm401 O430 2.396 . S
C402 Sm400 2.846 . S
C402 C403 1.506 . S
C402 O420 1.261 . S
C402 O421 1.242 . S
C403 C402 1.506 . S
C403 C404 1.358 . S
C403 C408 1.382 . S
C404 C403 1.358 . S
C404 C405 1.385 . S
C404 H432 0.930 . S
C405 C404 1.385 . S
C405 C406 1.395 . S
C405 H433 0.929 . S
C406 C405 1.395 . S
C406 C407 1.335 . S
C407 C406 1.335 . S
C407 C408 1.398 . S
C407 H434 0.930 . S
C408 C403 1.382 . S
C408 C407 1.398 . S
C408 H435 0.929 . S
C409 O422 1.271 . S
C409 O423 1.251 . S
C410 O424 1.252 . S
C410 O425 1.272 . S
C411 Sm401 2.846 . S
C411 C412 1.506 . S
C411 O426 1.261 . S
C411 O427 1.242 . S
C412 C411 1.506 . S
C412 C413 1.358 . S
C412 C417 1.382 . S
C413 C412 1.358 . S
C413 C414 1.385 . S
C413 H436 0.930 . S
C414 C413 1.385 . S
C414 C415 1.395 . S
C414 H437 0.929 . S
C415 C414 1.395 . S
C415 C416 1.335 . S
C416 C415 1.335 . S
C416 C417 1.398 . S
C416 H438 0.930 . S
C417 C412 1.382 . S
C417 C416 1.398 . S
C417 H439 0.929 . S
C418 O428 1.271 . S
C418 O429 1.251 . S
C419 O430 1.252 . S
C419 O431 1.272 . S
O420 Sm400 2.543 . S
O420 C402 1.261 . S
O421 Sm400 2.450 . S
O421 C402 1.242 . S
O422 Sm400 2.681 . S
O422 Sm401 2.386 . S
O422 C409 1.271 . S
O423 Sm400 2.464 . S
O423 C409 1.251 . S
O424 Sm400 2.396 . S
O424 C410 1.252 . S
O425 Sm401 2.408 . S
O425 C410 1.272 . S
O426 Sm401 2.543 . S
O426 C411 1.261 . S
O427 Sm401 2.450 . S
O427 C411 1.242 . S
O428 Sm400 2.386 . S
O428 Sm401 2.681 . S
O428 C418 1.271 . S
O429 Sm401 2.464 . S
O429 C418 1.251 . S
O430 Sm401 2.396 . S
O430 C419 1.252 . S
O431 Sm400 2.408 . S
O431 C419 1.272 . S
H432 C404 0.930 . S
H433 C405 0.929 . S
H434 C407 0.930 . S
H435 C408 0.929 . S
H436 C413 0.930 . S
H437 C414 0.929 . S
H438 C416 0.930 . S
H439 C417 0.929 . S
Sm440 C442 2.846 . S
Sm440 O460 2.543 . S
Sm440 O461 2.450 . S
Sm440 O462 2.681 . S
Sm440 O463 2.464 . S
Sm440 O464 2.396 . S
Sm440 O468 2.386 . S
Sm440 O471 2.408 . S
Sm441 C451 2.846 . S
Sm441 O462 2.386 . S
Sm441 O465 2.408 . S
Sm441 O466 2.543 . S
Sm441 O467 2.450 . S
Sm441 O468 2.681 . S
Sm441 O469 2.464 . S
Sm441 O470 2.396 . S
C442 Sm440 2.846 . S
C442 C443 1.506 . S
C442 O460 1.261 . S
C442 O461 1.242 . S
C443 C442 1.506 . S
C443 C444 1.358 . S
C443 C448 1.382 . S
C444 C443 1.358 . S
C444 C445 1.385 . S
C444 H472 0.930 . S
C445 C444 1.385 . S
C445 C446 1.395 . S
C445 H473 0.929 . S
C446 C445 1.395 . S
C446 C447 1.335 . S
C447 C446 1.335 . S
C447 C448 1.398 . S
C447 H474 0.930 . S
C448 C443 1.382 . S
C448 C447 1.398 . S
C448 H475 0.929 . S
C449 O462 1.271 . S
C449 O463 1.251 . S
C450 O464 1.252 . S
C450 O465 1.272 . S
C451 Sm441 2.846 . S
C451 C452 1.506 . S
C451 O466 1.261 . S
C451 O467 1.242 . S
C452 C451 1.506 . S
C452 C453 1.358 . S
C452 C457 1.382 . S
C453 C452 1.358 . S
C453 C454 1.385 . S
C453 H476 0.930 . S
C454 C453 1.385 . S
C454 C455 1.395 . S
C454 H477 0.929 . S
C455 C454 1.395 . S
C455 C456 1.335 . S
C456 C455 1.335 . S
C456 C457 1.398 . S
C456 H478 0.930 . S
C457 C452 1.382 . S
C457 C456 1.398 . S
C457 H479 0.929 . S
C458 O468 1.271 . S
C458 O469 1.251 . S
C459 O470 1.252 . S
C459 O471 1.272 . S
O460 Sm440 2.543 . S
O460 C442 1.261 . S
O461 Sm440 2.450 . S
O461 C442 1.242 . S
O462 Sm440 2.681 . S
O462 Sm441 2.386 . S
O462 C449 1.271 . S
O463 Sm440 2.464 . S
O463 C449 1.251 . S
O464 Sm440 2.396 . S
O464 C450 1.252 . S
O465 Sm441 2.408 . S
O465 C450 1.272 . S
O466 Sm441 2.543 . S
O466 C451 1.261 . S
O467 Sm441 2.450 . S
O467 C451 1.242 . S
O468 Sm440 2.386 . S
O468 Sm441 2.681 . S
O468 C458 1.271 . S
O469 Sm441 2.464 . S
O469 C458 1.251 . S
O470 Sm441 2.396 . S
O470 C459 1.252 . S
O471 Sm440 2.408 . S
O471 C459 1.272 . S
H472 C444 0.930 . S
H473 C445 0.929 . S
H474 C447 0.930 . S
H475 C448 0.929 . S
H476 C453 0.930 . S
H477 C454 0.929 . S
H478 C456 0.930 . S
H479 C457 0.929 . S
Sm480 C482 2.846 . S
Sm480 O500 2.543 . S
Sm480 O501 2.450 . S
Sm480 O502 2.681 . S
Sm480 O503 2.464 . S
Sm480 O504 2.396 . S
Sm480 O508 2.386 . S
Sm480 O511 2.408 . S
Sm481 C491 2.846 . S
Sm481 O502 2.386 . S
Sm481 O505 2.408 . S
Sm481 O506 2.543 . S
Sm481 O507 2.450 . S
Sm481 O508 2.681 . S
Sm481 O509 2.464 . S
Sm481 O510 2.396 . S
C482 Sm480 2.846 . S
C482 C483 1.506 . S
C482 O500 1.261 . S
C482 O501 1.242 . S
C483 C482 1.506 . S
C483 C484 1.358 . S
C483 C488 1.382 . S
C484 C483 1.358 . S
C484 C485 1.385 1_556 S
C484 H512 0.930 . S
C485 C484 1.385 1_554 S
C485 C486 1.395 . S
C485 H513 0.929 . S
C486 C485 1.395 . S
C486 C487 1.335 1_554 S
C487 C486 1.335 1_556 S
C487 C488 1.398 . S
C487 H514 0.930 1_556 S
C488 C483 1.382 . S
C488 C487 1.398 . S
C488 H515 0.929 . S
C489 O502 1.271 . S
C489 O503 1.251 . S
C490 O504 1.252 . S
C490 O505 1.272 . S
C491 Sm481 2.846 . S
C491 C492 1.506 . S
C491 O506 1.261 . S
C491 O507 1.242 . S
C492 C491 1.506 . S
C492 C493 1.358 . S
C492 C497 1.382 . S
C493 C492 1.358 . S
C493 C494 1.385 . S
C493 H516 0.930 . S
C494 C493 1.385 . S
C494 C495 1.395 . S
C494 H517 0.929 . S
C495 C494 1.395 . S
C495 C496 1.335 . S
C496 C495 1.335 . S
C496 C497 1.398 . S
C496 H518 0.930 . S
C497 C492 1.382 . S
C497 C496 1.398 . S
C497 H519 0.929 . S
C498 O508 1.271 . S
C498 O509 1.251 . S
C499 O510 1.252 . S
C499 O511 1.272 . S
O500 Sm480 2.543 . S
O500 C482 1.261 . S
O501 Sm480 2.450 . S
O501 C482 1.242 . S
O502 Sm480 2.681 . S
O502 Sm481 2.386 . S
O502 C489 1.271 . S
O503 Sm480 2.464 . S
O503 C489 1.251 . S
O504 Sm480 2.396 . S
O504 C490 1.252 . S
O505 Sm481 2.408 . S
O505 C490 1.272 . S
O506 Sm481 2.543 . S
O506 C491 1.261 . S
O507 Sm481 2.450 . S
O507 C491 1.242 . S
O508 Sm480 2.386 . S
O508 Sm481 2.681 . S
O508 C498 1.271 . S
O509 Sm481 2.464 . S
O509 C498 1.251 . S
O510 Sm481 2.396 . S
O510 C499 1.252 . S
O511 Sm480 2.408 . S
O511 C499 1.272 . S
H512 C484 0.930 . S
H513 C485 0.929 . S
H514 C487 0.930 1_554 S
H515 C488 0.929 . S
H516 C493 0.930 . S
H517 C494 0.929 . S
H518 C496 0.930 . S
H519 C497 0.929 . S
Sm520 C522 2.846 . S
Sm520 O540 2.543 . S
Sm520 O541 2.450 . S
Sm520 O542 2.681 . S
Sm520 O543 2.464 . S
Sm520 O544 2.396 . S
Sm520 O548 2.386 . S
Sm520 O551 2.408 . S
Sm521 C531 2.846 . S
Sm521 O542 2.386 . S
Sm521 O545 2.408 . S
Sm521 O546 2.543 . S
Sm521 O547 2.450 . S
Sm521 O548 2.681 . S
Sm521 O549 2.464 . S
Sm521 O550 2.396 . S
C522 Sm520 2.846 . S
C522 C523 1.506 . S
C522 O540 1.261 . S
C522 O541 1.242 . S
C523 C522 1.506 . S
C523 C524 1.358 . S
C523 C528 1.382 . S
C524 C523 1.358 . S
C524 C525 1.385 . S
C524 H552 0.930 . S
C525 C524 1.385 . S
C525 C526 1.395 . S
C525 H553 0.929 . S
C526 C525 1.395 . S
C526 C527 1.335 . S
C527 C526 1.335 . S
C527 C528 1.398 . S
C527 H554 0.930 . S
C528 C523 1.382 . S
C528 C527 1.398 . S
C528 H555 0.929 . S
C529 O542 1.271 . S
C529 O543 1.251 . S
C530 O544 1.252 . S
C530 O545 1.272 . S
C531 Sm521 2.846 . S
C531 C532 1.506 . S
C531 O546 1.261 . S
C531 O547 1.242 . S
C532 C531 1.506 . S
C532 C533 1.358 . S
C532 C537 1.382 . S
C533 C532 1.358 . S
C533 C534 1.385 . S
C533 H556 0.930 . S
C534 C533 1.385 . S
C534 C535 1.395 . S
C534 H557 0.929 . S
C535 C534 1.395 . S
C535 C536 1.335 . S
C536 C535 1.335 . S
C536 C537 1.398 . S
C536 H558 0.930 . S
C537 C532 1.382 . S
C537 C536 1.398 . S
C537 H559 0.929 . S
C538 O548 1.271 . S
C538 O549 1.251 . S
C539 O550 1.252 . S
C539 O551 1.272 . S
O540 Sm520 2.543 . S
O540 C522 1.261 . S
O541 Sm520 2.450 . S
O541 C522 1.242 . S
O542 Sm520 2.681 . S
O542 Sm521 2.386 . S
O542 C529 1.271 . S
O543 Sm520 2.464 . S
O543 C529 1.251 . S
O544 Sm520 2.396 . S
O544 C530 1.252 . S
O545 Sm521 2.408 . S
O545 C530 1.272 . S
O546 Sm521 2.543 . S
O546 C531 1.261 . S
O547 Sm521 2.450 . S
O547 C531 1.242 . S
O548 Sm520 2.386 . S
O548 Sm521 2.681 . S
O548 C538 1.271 . S
O549 Sm521 2.464 . S
O549 C538 1.251 . S
O550 Sm521 2.396 . S
O550 C539 1.252 . S
O551 Sm520 2.408 . S
O551 C539 1.272 . S
H552 C524 0.930 . S
H553 C525 0.929 . S
H554 C527 0.930 . S
H555 C528 0.929 . S
H556 C533 0.930 . S
H557 C534 0.929 . S
H558 C536 0.930 . S
H559 C537 0.929 . S
Sm560 C562 2.846 . S
Sm560 O580 2.543 . S
Sm560 O581 2.450 . S
Sm560 O582 2.681 . S
Sm560 O583 2.464 . S
Sm560 O584 2.396 . S
Sm560 O588 2.386 . S
Sm560 O591 2.408 . S
Sm561 C571 2.846 . S
Sm561 O582 2.386 . S
Sm561 O585 2.408 . S
Sm561 O586 2.543 . S
Sm561 O587 2.450 . S
Sm561 O588 2.681 . S
Sm561 O589 2.464 . S
Sm561 O590 2.396 . S
C562 Sm560 2.846 . S
C562 C563 1.506 . S
C562 O580 1.261 . S
C562 O581 1.242 . S
C563 C562 1.506 . S
C563 C564 1.358 . S
C563 C568 1.382 . S
C564 C563 1.358 . S
C564 C565 1.385 . S
C564 H592 0.930 . S
C565 C564 1.385 . S
C565 C566 1.395 . S
C565 H593 0.929 . S
C566 C565 1.395 . S
C566 C567 1.335 . S
C567 C566 1.335 . S
C567 C568 1.398 . S
C567 H594 0.930 . S
C568 C563 1.382 . S
C568 C567 1.398 . S
C568 H595 0.929 . S
C569 O582 1.271 . S
C569 O583 1.251 . S
C570 O584 1.252 . S
C570 O585 1.272 . S
C571 Sm561 2.846 . S
C571 C572 1.506 . S
C571 O586 1.261 . S
C571 O587 1.242 . S
C572 C571 1.506 . S
C572 C573 1.358 . S
C572 C577 1.382 . S
C573 C572 1.358 . S
C573 C574 1.385 . S
C573 H596 0.930 . S
C574 C573 1.385 . S
C574 C575 1.395 . S
C574 H597 0.929 1_554 S
C575 C574 1.395 . S
C575 C576 1.335 . S
C576 C575 1.335 . S
C576 C577 1.398 . S
C576 H598 0.930 . S
C577 C572 1.382 . S
C577 C576 1.398 . S
C577 H599 0.929 . S
C578 O588 1.271 . S
C578 O589 1.251 . S
C579 O590 1.252 . S
C579 O591 1.272 . S
O580 Sm560 2.543 . S
O580 C562 1.261 . S
O581 Sm560 2.450 . S
O581 C562 1.242 . S
O582 Sm560 2.681 . S
O582 Sm561 2.386 . S
O582 C569 1.271 . S
O583 Sm560 2.464 . S
O583 C569 1.251 . S
O584 Sm560 2.396 . S
O584 C570 1.252 . S
O585 Sm561 2.408 . S
O585 C570 1.272 . S
O586 Sm561 2.543 . S
O586 C571 1.261 . S
O587 Sm561 2.450 . S
O587 C571 1.242 . S
O588 Sm560 2.386 . S
O588 Sm561 2.681 . S
O588 C578 1.271 . S
O589 Sm561 2.464 . S
O589 C578 1.251 . S
O590 Sm561 2.396 . S
O590 C579 1.252 . S
O591 Sm560 2.408 . S
O591 C579 1.272 . S
H592 C564 0.930 . S
H593 C565 0.929 . S
H594 C567 0.930 . S
H595 C568 0.929 . S
H596 C573 0.930 . S
H597 C574 0.929 1_556 S
H598 C576 0.930 . S
H599 C577 0.929 . S
Sm600 C602 2.846 1_556 S
Sm600 O620 2.543 . S
Sm600 O621 2.450 . S
Sm600 O622 2.681 . S
Sm600 O623 2.464 . S
Sm600 O624 2.396 . S
Sm600 O628 2.386 . S
Sm600 O631 2.408 . S
Sm601 C611 2.846 . S
Sm601 O622 2.386 . S
Sm601 O625 2.408 . S
Sm601 O626 2.543 . S
Sm601 O627 2.450 . S
Sm601 O628 2.681 . S
Sm601 O629 2.464 . S
Sm601 O630 2.396 . S
C602 Sm600 2.846 1_554 S
C602 C603 1.506 . S
C602 O620 1.261 1_554 S
C602 O621 1.242 1_554 S
C603 C602 1.506 . S
C603 C604 1.358 . S
C603 C608 1.382 . S
C604 C603 1.358 . S
C604 C605 1.385 . S
C604 H632 0.930 . S
C605 C604 1.385 . S
C605 C606 1.395 . S
C605 H633 0.929 . S
C606 C605 1.395 . S
C606 C607 1.335 . S
C607 C606 1.335 . S
C607 C608 1.398 . S
C607 H634 0.930 . S
C608 C603 1.382 . S
C608 C607 1.398 . S
C608 H635 0.929 . S
C609 O622 1.271 . S
C609 O623 1.251 . S
C610 O624 1.252 . S
C610 O625 1.272 . S
C611 Sm601 2.846 . S
C611 C612 1.506 . S
C611 O626 1.261 . S
C611 O627 1.242 . S
C612 C611 1.506 . S
C612 C613 1.358 . S
C612 C617 1.382 . S
C613 C612 1.358 . S
C613 C614 1.385 . S
C613 H636 0.930 . S
C614 C613 1.385 . S
C614 C615 1.395 . S
C614 H637 0.929 . S
C615 C614 1.395 . S
C615 C616 1.335 . S
C616 C615 1.335 . S
C616 C617 1.398 . S
C616 H638 0.930 . S
C617 C612 1.382 . S
C617 C616 1.398 . S
C617 H639 0.929 . S
C618 O628 1.271 . S
C618 O629 1.251 . S
C619 O630 1.252 . S
C619 O631 1.272 . S
O620 Sm600 2.543 . S
O620 C602 1.261 1_556 S
O621 Sm600 2.450 . S
O621 C602 1.242 1_556 S
O622 Sm600 2.681 . S
O622 Sm601 2.386 . S
O622 C609 1.271 . S
O623 Sm600 2.464 . S
O623 C609 1.251 . S
O624 Sm600 2.396 . S
O624 C610 1.252 . S
O625 Sm601 2.408 . S
O625 C610 1.272 . S
O626 Sm601 2.543 . S
O626 C611 1.261 . S
O627 Sm601 2.450 . S
O627 C611 1.242 . S
O628 Sm600 2.386 . S
O628 Sm601 2.681 . S
O628 C618 1.271 . S
O629 Sm601 2.464 . S
O629 C618 1.251 . S
O630 Sm601 2.396 . S
O630 C619 1.252 . S
O631 Sm600 2.408 . S
O631 C619 1.272 . S
H632 C604 0.930 . S
H633 C605 0.929 . S
H634 C607 0.930 . S
H635 C608 0.929 . S
H636 C613 0.930 . S
H637 C614 0.929 . S
H638 C616 0.930 . S
H639 C617 0.929 . S
Sm640 C642 2.846 . S
Sm640 O660 2.543 . S
Sm640 O661 2.450 . S
Sm640 O662 2.681 . S
Sm640 O663 2.464 . S
Sm640 O664 2.396 . S
Sm640 O668 2.386 . S
Sm640 O671 2.408 . S
Sm641 C651 2.846 . S
Sm641 O662 2.386 . S
Sm641 O665 2.408 . S
Sm641 O666 2.543 . S
Sm641 O667 2.450 . S
Sm641 O668 2.681 . S
Sm641 O669 2.464 . S
Sm641 O670 2.396 . S
C642 Sm640 2.846 . S
C642 C643 1.506 . S
C642 O660 1.261 . S
C642 O661 1.242 . S
C643 C642 1.506 . S
C643 C644 1.358 . S
C643 C648 1.382 . S
C644 C643 1.358 . S
C644 C645 1.385 . S
C644 H672 0.930 . S
C645 C644 1.385 . S
C645 C646 1.395 . S
C645 H673 0.929 . S
C646 C645 1.395 . S
C646 C647 1.335 . S
C647 C646 1.335 . S
C647 C648 1.398 . S
C647 H674 0.930 . S
C648 C643 1.382 . S
C648 C647 1.398 . S
C648 H675 0.929 . S
C649 O662 1.271 . S
C649 O663 1.251 . S
C650 O664 1.252 . S
C650 O665 1.272 . S
C651 Sm641 2.846 . S
C651 C652 1.506 . S
C651 O666 1.261 . S
C651 O667 1.242 . S
C652 C651 1.506 . S
C652 C653 1.358 . S
C652 C657 1.382 . S
C653 C652 1.358 . S
C653 C654 1.385 . S
C653 H676 0.930 . S
C654 C653 1.385 . S
C654 C655 1.395 . S
C654 H677 0.929 . S
C655 C654 1.395 . S
C655 C656 1.335 . S
C656 C655 1.335 . S
C656 C657 1.398 . S
C656 H678 0.930 . S
C657 C652 1.382 . S
C657 C656 1.398 . S
C657 H679 0.929 . S
C658 O668 1.271 . S
C658 O669 1.251 . S
C659 O670 1.252 . S
C659 O671 1.272 . S
O660 Sm640 2.543 . S
O660 C642 1.261 . S
O661 Sm640 2.450 . S
O661 C642 1.242 . S
O662 Sm640 2.681 . S
O662 Sm641 2.386 . S
O662 C649 1.271 . S
O663 Sm640 2.464 . S
O663 C649 1.251 . S
O664 Sm640 2.396 . S
O664 C650 1.252 . S
O665 Sm641 2.408 . S
O665 C650 1.272 . S
O666 Sm641 2.543 . S
O666 C651 1.261 . S
O667 Sm641 2.450 . S
O667 C651 1.242 . S
O668 Sm640 2.386 . S
O668 Sm641 2.681 . S
O668 C658 1.271 . S
O669 Sm641 2.464 . S
O669 C658 1.251 . S
O670 Sm641 2.396 . S
O670 C659 1.252 . S
O671 Sm640 2.408 . S
O671 C659 1.272 . S
H672 C644 0.930 . S
H673 C645 0.929 . S
H674 C647 0.930 . S
H675 C648 0.929 . S
H676 C653 0.930 . S
H677 C654 0.929 . S
H678 C656 0.930 . S
H679 C657 0.929 . S
Sm680 C682 2.846 . S
Sm680 O700 2.543 . S
Sm680 O701 2.450 . S
Sm680 O702 2.681 . S
Sm680 O703 2.464 . S
Sm680 O704 2.396 . S
Sm680 O708 2.386 . S
Sm680 O711 2.408 . S
Sm681 C691 2.846 . S
Sm681 O702 2.386 . S
Sm681 O705 2.408 . S
Sm681 O706 2.543 . S
Sm681 O707 2.450 . S
Sm681 O708 2.681 . S
Sm681 O709 2.464 . S
Sm681 O710 2.396 . S
C682 Sm680 2.846 . S
C682 C683 1.506 1_556 S
C682 O700 1.261 . S
C682 O701 1.242 . S
C683 C682 1.506 1_554 S
C683 C684 1.358 . S
C683 C688 1.382 . S
C684 C683 1.358 . S
C684 C685 1.385 . S
C684 H712 0.930 . S
C685 C684 1.385 . S
C685 C686 1.395 . S
C685 H713 0.929 . S
C686 C685 1.395 . S
C686 C687 1.335 . S
C687 C686 1.335 . S
C687 C688 1.398 . S
C687 H714 0.930 . S
C688 C683 1.382 . S
C688 C687 1.398 . S
C688 H715 0.929 . S
C689 O702 1.271 . S
C689 O703 1.251 . S
C690 O704 1.252 . S
C690 O705 1.272 . S
C691 Sm681 2.846 . S
C691 C692 1.506 . S
C691 O706 1.261 . S
C691 O707 1.242 . S
C692 C691 1.506 . S
C692 C693 1.358 . S
C692 C697 1.382 . S
C693 C692 1.358 . S
C693 C694 1.385 . S
C693 H716 0.930 . S
C694 C693 1.385 . S
C694 C695 1.395 . S
C694 H717 0.929 . S
C695 C694 1.395 . S
C695 C696 1.335 . S
C696 C695 1.335 . S
C696 C697 1.398 . S
C696 H718 0.930 . S
C697 C692 1.382 . S
C697 C696 1.398 . S
C697 H719 0.929 . S
C698 O708 1.271 . S
C698 O709 1.251 . S
C699 O710 1.252 . S
C699 O711 1.272 . S
O700 Sm680 2.543 . S
O700 C682 1.261 . S
O701 Sm680 2.450 . S
O701 C682 1.242 . S
O702 Sm680 2.681 . S
O702 Sm681 2.386 . S
O702 C689 1.271 . S
O703 Sm680 2.464 . S
O703 C689 1.251 . S
O704 Sm680 2.396 . S
O704 C690 1.252 . S
O705 Sm681 2.408 . S
O705 C690 1.272 . S
O706 Sm681 2.543 . S
O706 C691 1.261 . S
O707 Sm681 2.450 . S
O707 C691 1.242 . S
O708 Sm680 2.386 . S
O708 Sm681 2.681 . S
O708 C698 1.271 . S
O709 Sm681 2.464 . S
O709 C698 1.251 . S
O710 Sm681 2.396 . S
O710 C699 1.252 . S
O711 Sm680 2.408 . S
O711 C699 1.272 . S
H712 C684 0.930 . S
H713 C685 0.929 . S
H714 C687 0.930 . S
H715 C688 0.929 . S
H716 C693 0.930 . S
H717 C694 0.929 . S
H718 C696 0.930 . S
H719 C697 0.929 . S
Sm720 C722 2.846 . S
Sm720 O740 2.543 . S
Sm720 O741 2.450 1_655 S
Sm720 O742 2.681 . S
Sm720 O743 2.464 1_655 S
Sm720 O744 2.396 . S
Sm720 O748 2.386 . S
Sm720 O751 2.408 . S
Sm721 C731 2.846 . S
Sm721 O742 2.386 . S
Sm721 O745 2.408 . S
Sm721 O746 2.543 . S
Sm721 O747 2.450 . S
Sm721 O748 2.681 . S
Sm721 O749 2.464 . S
Sm721 O750 2.396 . S
C722 Sm720 2.846 . S
C722 C723 1.494 1_655 S
C722 O740 1.261 . S
C722 O741 1.242 1_655 S
C723 C722 1.494 1_455 S
C723 C724 1.337 1_455 S
C723 C728 1.417 . S
C724 C723 1.337 1_655 S
C724 C725 1.385 . S
C724 H752 0.930 . S
C725 C724 1.385 . S
C725 C726 1.395 1_655 S
C725 H753 0.929 . S
C726 C725 1.395 1_455 S
C726 C727 1.335 . S
C727 C726 1.335 . S
C727 C728 1.398 . S
C727 H754 0.930 . S
C728 C723 1.417 . S
C728 C727 1.398 . S
C728 H755 0.929 . S
C729 O742 1.271 . S
C729 O743 1.251 1_655 S
C730 O744 1.252 . S
C730 O745 1.272 . S
C731 Sm721 2.846 . S
C731 C732 1.506 1_554 S
C731 O746 1.261 . S
C731 O747 1.242 . S
C732 C731 1.506 1_556 S
C732 C733 1.358 . S
C732 C737 1.382 . S
C733 C732 1.358 . S
C733 C734 1.385 . S
C733 H756 0.930 . S
C734 C733 1.385 . S
C734 C735 1.395 . S
C734 H757 0.929 . S
C735 C734 1.395 . S
C735 C736 1.335 . S
C736 C735 1.335 . S
C736 C737 1.398 . S
C736 H758 0.930 . S
C737 C732 1.382 . S
C737 C736 1.398 . S
C737 H759 0.929 . S
C738 O748 1.271 . S
C738 O749 1.251 . S
C739 O750 1.252 . S
C739 O751 1.272 . S
O740 Sm720 2.543 . S
O740 C722 1.261 . S
O741 Sm720 2.450 1_455 S
O741 C722 1.242 1_455 S
O742 Sm720 2.681 . S
O742 Sm721 2.386 . S
O742 C729 1.271 . S
O743 Sm720 2.464 1_455 S
O743 C729 1.251 1_455 S
O744 Sm720 2.396 . S
O744 C730 1.252 . S
O745 Sm721 2.408 . S
O745 C730 1.272 . S
O746 Sm721 2.543 . S
O746 C731 1.261 . S
O747 Sm721 2.450 . S
O747 C731 1.242 . S
O748 Sm720 2.386 . S
O748 Sm721 2.681 . S
O748 C738 1.271 . S
O749 Sm721 2.464 . S
O749 C738 1.251 . S
O750 Sm721 2.396 . S
O750 C739 1.252 . S
O751 Sm720 2.408 . S
O751 C739 1.272 . S
H752 C724 0.930 . S
H753 C725 0.929 . S
H754 C727 0.930 . S
H755 C728 0.929 . S
H756 C733 0.930 . S
H757 C734 0.929 . S
H758 C736 0.930 . S
H759 C737 0.929 . S
Sm760 C762 2.846 . S
Sm760 O780 2.543 . S
Sm760 O781 2.450 . S
Sm760 O782 2.681 . S
Sm760 O783 2.464 . S
Sm760 O784 2.396 . S
Sm760 O788 2.386 . S
Sm760 O791 2.408 . S
Sm761 C771 2.846 . S
Sm761 O782 2.386 . S
Sm761 O785 2.408 . S
Sm761 O786 2.543 . S
Sm761 O787 2.450 . S
Sm761 O788 2.681 . S
Sm761 O789 2.464 . S
Sm761 O790 2.396 . S
C762 Sm760 2.846 . S
C762 C763 1.506 . S
C762 O780 1.261 . S
C762 O781 1.242 . S
C763 C762 1.506 . S
C763 C764 1.358 . S
C763 C768 1.382 . S
C764 C763 1.358 . S
C764 C765 1.385 . S
C764 H792 0.930 . S
C765 C764 1.385 . S
C765 C766 1.395 . S
C765 H793 0.929 . S
C766 C765 1.395 . S
C766 C767 1.335 . S
C767 C766 1.335 . S
C767 C768 1.398 . S
C767 H794 0.930 . S
C768 C763 1.382 . S
C768 C767 1.398 . S
C768 H795 0.929 . S
C769 O782 1.271 . S
C769 O783 1.251 . S
C770 O784 1.252 . S
C770 O785 1.272 . S
C771 Sm761 2.846 . S
C771 C772 1.506 . S
C771 O786 1.261 . S
C771 O787 1.242 . S
C772 C771 1.506 . S
C772 C773 1.358 . S
C772 C777 1.382 . S
C773 C772 1.358 . S
C773 C774 1.385 . S
C773 H796 0.930 . S
C774 C773 1.385 . S
C774 C775 1.395 . S
C774 H797 0.929 . S
C775 C774 1.395 . S
C775 C776 1.335 . S
C776 C775 1.335 . S
C776 C777 1.398 . S
C776 H798 0.930 . S
C777 C772 1.382 . S
C777 C776 1.398 . S
C777 H799 0.929 . S
C778 O788 1.271 . S
C778 O789 1.251 . S
C779 O790 1.252 . S
C779 O791 1.272 . S
O780 Sm760 2.543 . S
O780 C762 1.261 . S
O781 Sm760 2.450 . S
O781 C762 1.242 . S
O782 Sm760 2.681 . S
O782 Sm761 2.386 . S
O782 C769 1.271 . S
O783 Sm760 2.464 . S
O783 C769 1.251 . S
O784 Sm760 2.396 . S
O784 C770 1.252 . S
O785 Sm761 2.408 . S
O785 C770 1.272 . S
O786 Sm761 2.543 . S
O786 C771 1.261 . S
O787 Sm761 2.450 . S
O787 C771 1.242 . S
O788 Sm760 2.386 . S
O788 Sm761 2.681 . S
O788 C778 1.271 . S
O789 Sm761 2.464 . S
O789 C778 1.251 . S
O790 Sm761 2.396 . S
O790 C779 1.252 . S
O791 Sm760 2.408 . S
O791 C779 1.272 . S
H792 C764 0.930 . S
H793 C765 0.929 . S
H794 C767 0.930 . S
H795 C768 0.929 . S
H796 C773 0.930 . S
H797 C774 0.929 . S
H798 C776 0.930 . S
H799 C777 0.929 . S
Sm800 C802 2.846 . S
Sm800 O820 2.543 . S
Sm800 O821 2.450 . S
Sm800 O822 2.681 . S
Sm800 O823 2.464 . S
Sm800 O824 2.396 . S
Sm800 O828 2.386 . S
Sm800 O831 2.408 . S
Sm801 C811 2.846 1_544 S
Sm801 O822 2.386 . S
Sm801 O825 2.408 . S
Sm801 O826 2.543 1_554 S
Sm801 O827 2.450 1_544 S
Sm801 O828 2.681 . S
Sm801 O829 2.464 1_545 S
Sm801 O830 2.396 1_554 S
C802 Sm800 2.846 . S
C802 C803 1.506 . S
C802 O820 1.261 . S
C802 O821 1.242 . S
C803 C802 1.506 . S
C803 C804 1.358 . S
C803 C808 1.382 . S
C804 C803 1.358 . S
C804 C805 1.385 . S
C804 H832 0.930 . S
C805 C804 1.385 . S
C805 C806 1.395 . S
C805 H833 0.929 . S
C806 C805 1.395 . S
C806 C807 1.335 . S
C807 C806 1.335 . S
C807 C808 1.398 . S
C807 H834 0.930 . S
C808 C803 1.382 . S
C808 C807 1.398 . S
C808 H835 0.929 . S
C809 O822 1.271 . S
C809 O823 1.251 . S
C810 O824 1.252 . S
C810 O825 1.272 . S
C811 Sm801 2.846 1_566 S
C811 C812 1.506 . S
C811 O826 1.261 1_565 S
C811 O827 1.242 . S
C812 C811 1.506 . S
C812 C813 1.358 . S
C812 C817 1.382 . S
C813 C812 1.358 . S
C813 C814 1.385 . S
C813 H836 0.930 1_565 S
C814 C813 1.385 . S
C814 C815 1.395 . S
C814 H837 0.929 . S
C815 C814 1.395 . S
C815 C816 1.335 . S
C816 C815 1.335 . S
C816 C817 1.398 . S
C816 H838 0.930 . S
C817 C812 1.382 . S
C817 C816 1.398 . S
C817 H839 0.929 . S
C818 O828 1.271 . S
C818 O829 1.251 1_545 S
C819 O830 1.252 . S
C819 O831 1.272 1_556 S
O820 Sm800 2.543 . S
O820 C802 1.261 . S
O821 Sm800 2.450 . S
O821 C802 1.242 . S
O822 Sm800 2.681 . S
O822 Sm801 2.386 . S
O822 C809 1.271 . S
O823 Sm800 2.464 . S
O823 C809 1.251 . S
O824 Sm800 2.396 . S
O824 C810 1.252 . S
O825 Sm801 2.408 . S
O825 C810 1.272 . S
O826 Sm801 2.543 1_556 S
O826 C811 1.261 1_545 S
O827 Sm801 2.450 1_566 S
O827 C811 1.242 . S
O828 Sm800 2.386 . S
O828 Sm801 2.681 . S
O828 C818 1.271 . S
O829 Sm801 2.464 1_565 S
O829 C818 1.251 1_565 S
O830 Sm801 2.396 1_556 S
O830 C819 1.252 . S
O831 Sm800 2.408 . S
O831 C819 1.272 1_554 S
H832 C804 0.930 . S
H833 C805 0.929 . S
H834 C807 0.930 . S
H835 C808 0.929 . S
H836 C813 0.930 1_545 S
H837 C814 0.929 . S
H838 C816 0.930 . S
H839 C817 0.929 . S
Sm840 C842 2.846 . S
Sm840 O860 2.543 . S
Sm840 O861 2.450 . S
Sm840 O862 2.681 . S
Sm840 O863 2.464 . S
Sm840 O864 2.396 . S
Sm840 O868 2.386 . S
Sm840 O871 2.408 . S
Sm841 C851 2.846 . S
Sm841 O862 2.386 . S
Sm841 O865 2.408 . S
Sm841 O866 2.543 . S
Sm841 O867 2.450 . S
Sm841 O868 2.681 . S
Sm841 O869 2.464 . S
Sm841 O870 2.396 . S
C842 Sm840 2.846 . S
C842 C843 1.506 . S
C842 O860 1.261 . S
C842 O861 1.242 . S
C843 C842 1.506 . S
C843 C844 1.358 . S
C843 C848 1.382 . S
C844 C843 1.358 . S
C844 C845 1.385 . S
C844 H872 0.930 . S
C845 C844 1.385 . S
C845 C846 1.395 . S
C845 H873 0.929 . S
C846 C845 1.395 . S
C846 C847 1.335 . S
C847 C846 1.335 . S
C847 C848 1.398 . S
C847 H874 0.930 . S
C848 C843 1.382 . S
C848 C847 1.398 . S
C848 H875 0.929 . S
C849 O862 1.271 . S
C849 O863 1.251 . S
C850 O864 1.252 . S
C850 O865 1.272 . S
C851 Sm841 2.846 . S
C851 C852 1.506 . S
C851 O866 1.261 . S
C851 O867 1.242 . S
C852 C851 1.506 . S
C852 C853 1.358 . S
C852 C857 1.382 . S
C853 C852 1.358 . S
C853 C854 1.385 . S
C853 H876 0.930 . S
C854 C853 1.385 . S
C854 C855 1.395 . S
C854 H877 0.929 . S
C855 C854 1.395 . S
C855 C856 1.335 . S
C856 C855 1.335 . S
C856 C857 1.398 . S
C856 H878 0.930 . S
C857 C852 1.382 . S
C857 C856 1.398 . S
C857 H879 0.929 . S
C858 O868 1.271 . S
C858 O869 1.251 . S
C859 O870 1.252 . S
C859 O871 1.272 . S
O860 Sm840 2.543 . S
O860 C842 1.261 . S
O861 Sm840 2.450 . S
O861 C842 1.242 . S
O862 Sm840 2.681 . S
O862 Sm841 2.386 . S
O862 C849 1.271 . S
O863 Sm840 2.464 . S
O863 C849 1.251 . S
O864 Sm840 2.396 . S
O864 C850 1.252 . S
O865 Sm841 2.408 . S
O865 C850 1.272 . S
O866 Sm841 2.543 . S
O866 C851 1.261 . S
O867 Sm841 2.450 . S
O867 C851 1.242 . S
O868 Sm840 2.386 . S
O868 Sm841 2.681 . S
O868 C858 1.271 . S
O869 Sm841 2.464 . S
O869 C858 1.251 . S
O870 Sm841 2.396 . S
O870 C859 1.252 . S
O871 Sm840 2.408 . S
O871 C859 1.272 . S
H872 C844 0.930 . S
H873 C845 0.929 . S
H874 C847 0.930 . S
H875 C848 0.929 . S
H876 C853 0.930 . S
H877 C854 0.929 . S
H878 C856 0.930 . S
H879 C857 0.929 . S
Sm880 C882 2.846 . S
Sm880 O900 2.543 . S
Sm880 O901 2.450 . S
Sm880 O902 2.681 . S
Sm880 O903 2.464 . S
Sm880 O904 2.396 . S
Sm880 O908 2.386 . S
Sm880 O911 2.408 . S
Sm881 C891 2.846 . S
Sm881 O902 2.386 1_545 S
Sm881 O905 2.408 . S
Sm881 O906 2.543 1_545 S
Sm881 O907 2.450 . S
Sm881 O908 2.681 1_545 S
Sm881 O909 2.464 . S
Sm881 O910 2.396 1_545 S
C882 Sm880 2.846 . S
C882 C883 1.506 . S
C882 O900 1.261 . S
C882 O901 1.242 . S
C883 C882 1.506 . S
C883 C884 1.358 . S
C883 C888 1.382 . S
C884 C883 1.358 . S
C884 C885 1.385 . S
C884 H912 0.930 . S
C885 C884 1.385 . S
C885 C886 1.395 . S
C885 H913 0.929 . S
C886 C885 1.395 . S
C886 C887 1.335 . S
C887 C886 1.335 . S
C887 C888 1.398 . S
C887 H914 0.930 . S
C888 C883 1.382 . S
C888 C887 1.398 . S
C888 H915 0.929 . S
C889 O902 1.271 . S
C889 O903 1.251 . S
C890 O904 1.252 . S
C890 O905 1.272 1_565 S
C891 Sm881 2.846 . S
C891 C892 1.506 . S
C891 O906 1.232 1_545 S
C891 O907 1.242 . S
C892 C891 1.506 . S
C892 C893 1.358 . S
C892 C897 1.382 . S
C893 C892 1.358 . S
C893 C894 1.385 . S
C893 H916 0.913 1_545 S
C894 C893 1.385 . S
C894 C895 1.395 . S
C894 H917 0.929 . S
C895 C894 1.395 . S
C895 C896 1.335 . S
C896 C895 1.335 . S
C896 C897 1.398 . S
C896 H918 0.930 . S
C897 C892 1.382 . S
C897 C896 1.398 . S
C897 H919 0.929 . S
C898 O908 1.271 1_545 S
C898 O909 1.251 . S
C899 O910 1.252 . S
C899 O911 1.272 . S
O900 Sm880 2.543 . S
O900 C882 1.261 . S
O901 Sm880 2.450 . S
O901 C882 1.242 . S
O902 Sm880 2.681 . S
O902 Sm881 2.386 1_565 S
O902 C889 1.271 . S
O903 Sm880 2.464 . S
O903 C889 1.251 . S
O904 Sm880 2.396 . S
O904 C890 1.252 . S
O905 Sm881 2.408 . S
O905 C890 1.272 1_545 S
O906 Sm881 2.543 1_565 S
O906 C891 1.232 1_565 S
O907 Sm881 2.450 . S
O907 C891 1.242 . S
O908 Sm880 2.386 . S
O908 Sm881 2.681 1_565 S
O908 C898 1.271 1_565 S
O909 Sm881 2.464 . S
O909 C898 1.251 . S
O910 Sm881 2.396 1_565 S
O910 C899 1.252 . S
O911 Sm880 2.408 . S
O911 C899 1.272 . S
H912 C884 0.930 . S
H913 C885 0.929 . S
H914 C887 0.930 . S
H915 C888 0.929 . S
H916 C893 0.913 1_565 S
H917 C894 0.929 . S
H918 C896 0.930 . S
H919 C897 0.929 . S
Sm920 C922 2.846 1_556 S
Sm920 O940 2.543 1_556 S
Sm920 O941 2.450 1_556 S
Sm920 O942 2.681 . S
Sm920 O943 2.464 . S
Sm920 O944 2.396 . S
Sm920 O948 2.386 . S
Sm920 O951 2.408 . S
Sm921 C931 2.846 . S
Sm921 O942 2.386 . S
Sm921 O945 2.408 . S
Sm921 O946 2.543 . S
Sm921 O947 2.450 . S
Sm921 O948 2.681 . S
Sm921 O949 2.464 . S
Sm921 O950 2.396 . S
C922 Sm920 2.846 1_554 S
C922 C923 1.506 . S
C922 O940 1.261 . S
C922 O941 1.242 . S
C923 C922 1.506 . S
C923 C924 1.358 . S
C923 C928 1.382 . S
C924 C923 1.358 . S
C924 C925 1.385 . S
C924 H952 0.930 . S
C925 C924 1.385 . S
C925 C926 1.395 . S
C925 H953 0.929 . S
C926 C925 1.395 . S
C926 C927 1.335 . S
C927 C926 1.335 . S
C927 C928 1.398 . S
C927 H954 0.930 . S
C928 C923 1.382 . S
C928 C927 1.398 . S
C928 H955 0.929 . S
C929 O942 1.271 . S
C929 O943 1.251 . S
C930 O944 1.251 1_554 S
C930 O945 1.262 1_554 S
C931 Sm921 2.846 . S
C931 C932 1.506 . S
C931 O946 1.261 . S
C931 O947 1.242 . S
C932 C931 1.506 . S
C932 C933 1.358 . S
C932 C937 1.382 . S
C933 C932 1.358 . S
C933 C934 1.385 . S
C933 H956 0.930 . S
C934 C933 1.385 . S
C934 C935 1.395 . S
C934 H957 0.929 . S
C935 C934 1.395 . S
C935 C936 1.335 . S
C936 C935 1.335 . S
C936 C937 1.398 . S
C936 H958 0.930 . S
C937 C932 1.382 . S
C937 C936 1.398 . S
C937 H959 0.929 . S
C938 O948 1.271 . S
C938 O949 1.251 . S
C939 O950 1.252 . S
C939 O951 1.272 . S
O940 Sm920 2.543 1_554 S
O940 C922 1.261 . S
O941 Sm920 2.450 1_554 S
O941 C922 1.242 . S
O942 Sm920 2.681 . S
O942 Sm921 2.386 . S
O942 C929 1.271 . S
O943 Sm920 2.464 . S
O943 C929 1.251 . S
O944 Sm920 2.396 . S
O944 C930 1.251 1_556 S
O945 Sm921 2.408 . S
O945 C930 1.262 1_556 S
O946 Sm921 2.543 . S
O946 C931 1.261 . S
O947 Sm921 2.450 . S
O947 C931 1.242 . S
O948 Sm920 2.386 . S
O948 Sm921 2.681 . S
O948 C938 1.271 . S
O949 Sm921 2.464 . S
O949 C938 1.251 . S
O950 Sm921 2.396 . S
O950 C939 1.252 . S
O951 Sm920 2.408 . S
O951 C939 1.272 . S
H952 C924 0.930 . S
H953 C925 0.929 . S
H954 C927 0.930 . S
H955 C928 0.929 . S
H956 C933 0.930 . S
H957 C934 0.929 . S
H958 C936 0.930 . S
H959 C937 0.929 . S
Sm960 C962 2.846 . S
Sm960 O980 2.543 . S
Sm960 O981 2.450 . S
Sm960 O982 2.681 . S
Sm960 O983 2.464 . S
Sm960 O984 2.396 . S
Sm960 O988 2.386 . S
Sm960 O991 2.408 . S
Sm961 C971 2.846 . S
Sm961 O982 2.386 . S
Sm961 O985 2.408 . S
Sm961 O986 2.543 . S
Sm961 O987 2.450 . S
Sm961 O988 2.681 . S
Sm961 O989 2.464 . S
Sm961 O990 2.396 . S
C962 Sm960 2.846 . S
C962 C963 1.506 . S
C962 O980 1.261 . S
C962 O981 1.242 . S
C963 C962 1.506 . S
C963 C964 1.358 . S
C963 C968 1.382 . S
C964 C963 1.358 . S
C964 C965 1.385 . S
C964 H992 0.930 . S
C965 C964 1.385 . S
C965 C966 1.395 . S
C965 H993 0.929 . S
C966 C965 1.395 . S
C966 C967 1.335 . S
C967 C966 1.335 . S
C967 C968 1.398 . S
C967 H994 0.930 . S
C968 C963 1.382 . S
C968 C967 1.398 . S
C968 H995 0.929 . S
C969 O982 1.271 . S
C969 O983 1.251 . S
C970 O984 1.252 . S
C970 O985 1.272 . S
C971 Sm961 2.846 . S
C971 C972 1.506 . S
C971 O986 1.261 . S
C971 O987 1.242 . S
C972 C971 1.506 . S
C972 C973 1.358 . S
C972 C977 1.382 . S
C973 C972 1.358 . S
C973 C974 1.385 . S
C973 H996 0.930 . S
C974 C973 1.385 . S
C974 C975 1.395 . S
C974 H997 0.929 . S
C975 C974 1.395 . S
C975 C976 1.335 . S
C976 C975 1.335 . S
C976 C977 1.398 . S
C976 H998 0.930 . S
C977 C972 1.382 . S
C977 C976 1.398 . S
C977 H999 0.929 . S
C978 O988 1.271 . S
C978 O989 1.251 . S
C979 O990 1.252 . S
C979 O991 1.272 . S
O980 Sm960 2.543 . S
O980 C962 1.261 . S
O981 Sm960 2.450 . S
O981 C962 1.242 . S
O982 Sm960 2.681 . S
O982 Sm961 2.386 . S
O982 C969 1.271 . S
O983 Sm960 2.464 . S
O983 C969 1.251 . S
O984 Sm960 2.396 . S
O984 C970 1.252 . S
O985 Sm961 2.408 . S
O985 C970 1.272 . S
O986 Sm961 2.543 . S
O986 C971 1.261 . S
O987 Sm961 2.450 . S
O987 C971 1.242 . S
O988 Sm960 2.386 . S
O988 Sm961 2.681 . S
O988 C978 1.271 . S
O989 Sm961 2.464 . S
O989 C978 1.251 . S
O990 Sm961 2.396 . S
O990 C979 1.252 . S
O991 Sm960 2.408 . S
O991 C979 1.272 . S
H992 C964 0.930 . S
H993 C965 0.929 . S
H994 C967 0.930 . S
H995 C968 0.929 . S
H996 C973 0.930 . S
H997 C974 0.929 . S
H998 C976 0.930 . S
H999 C977 0.929 . S
Sm1000 C1002 2.846 . S
Sm1000 O1020 2.543 . S
Sm1000 O1021 2.450 . S
Sm1000 O1022 2.681 . S
Sm1000 O1023 2.464 . S
Sm1000 O1024 2.396 . S
Sm1000 O1028 2.386 . S
Sm1000 O1031 2.408 . S
Sm1001 C1011 2.846 . S
Sm1001 O1022 2.386 . S
Sm1001 O1025 2.408 . S
Sm1001 O1026 2.543 . S
Sm1001 O1027 2.450 . S
Sm1001 O1028 2.681 . S
Sm1001 O1029 2.464 . S
Sm1001 O1030 2.396 . S
C1002 Sm1000 2.846 . S
C1002 C1003 1.506 . S
C1002 O1020 1.261 . S
C1002 O1021 1.242 . S
C1003 C1002 1.506 . S
C1003 C1004 1.358 . S
C1003 C1008 1.382 . S
C1004 C1003 1.358 . S
C1004 C1005 1.385 . S
C1004 H1032 0.930 . S
C1005 C1004 1.385 . S
C1005 C1006 1.395 . S
C1005 H1033 0.929 . S
C1006 C1005 1.395 . S
C1006 C1007 1.335 . S
C1007 C1006 1.335 . S
C1007 C1008 1.398 . S
C1007 H1034 0.930 . S
C1008 C1003 1.382 . S
C1008 C1007 1.398 . S
C1008 H1035 0.929 . S
C1009 O1022 1.271 . S
C1009 O1023 1.251 . S
C1010 O1024 1.252 . S
C1010 O1025 1.272 . S
C1011 Sm1001 2.846 . S
C1011 C1012 1.506 . S
C1011 O1026 1.261 . S
C1011 O1027 1.242 . S
C1012 C1011 1.506 . S
C1012 C1013 1.358 . S
C1012 C1017 1.382 . S
C1013 C1012 1.358 . S
C1013 C1014 1.385 . S
C1013 H1036 0.930 . S
C1014 C1013 1.385 . S
C1014 C1015 1.395 . S
C1014 H1037 0.929 . S
C1015 C1014 1.395 . S
C1015 C1016 1.335 . S
C1016 C1015 1.335 . S
C1016 C1017 1.398 . S
C1016 H1038 0.930 . S
C1017 C1012 1.382 . S
C1017 C1016 1.398 . S
C1017 H1039 0.929 . S
C1018 O1028 1.271 . S
C1018 O1029 1.251 . S
C1019 O1030 1.252 . S
C1019 O1031 1.272 . S
O1020 Sm1000 2.543 . S
O1020 C1002 1.261 . S
O1021 Sm1000 2.450 . S
O1021 C1002 1.242 . S
O1022 Sm1000 2.681 . S
O1022 Sm1001 2.386 . S
O1022 C1009 1.271 . S
O1023 Sm1000 2.464 . S
O1023 C1009 1.251 . S
O1024 Sm1000 2.396 . S
O1024 C1010 1.252 . S
O1025 Sm1001 2.408 . S
O1025 C1010 1.272 . S
O1026 Sm1001 2.543 . S
O1026 C1011 1.261 . S
O1027 Sm1001 2.450 . S
O1027 C1011 1.242 . S
O1028 Sm1000 2.386 . S
O1028 Sm1001 2.681 . S
O1028 C1018 1.271 . S
O1029 Sm1001 2.464 . S
O1029 C1018 1.251 . S
O1030 Sm1001 2.396 . S
O1030 C1019 1.252 . S
O1031 Sm1000 2.408 . S
O1031 C1019 1.272 . S
H1032 C1004 0.930 . S
H1033 C1005 0.929 . S
H1034 C1007 0.930 . S
H1035 C1008 0.929 . S
H1036 C1013 0.930 . S
H1037 C1014 0.929 . S
H1038 C1016 0.930 . S
H1039 C1017 0.929 . S
Sm1040 C1042 2.846 . S
Sm1040 O1060 2.543 . S
Sm1040 O1061 2.450 . S
Sm1040 O1062 2.681 . S
Sm1040 O1063 2.464 . S
Sm1040 O1064 2.396 . S
Sm1040 O1068 2.386 . S
Sm1040 O1071 2.408 . S
Sm1041 C1051 2.846 . S
Sm1041 O1062 2.386 . S
Sm1041 O1065 2.408 . S
Sm1041 O1066 2.543 . S
Sm1041 O1067 2.450 1_455 S
Sm1041 O1068 2.681 . S
Sm1041 O1069 2.464 1_455 S
Sm1041 O1070 2.396 . S
C1042 Sm1040 2.846 . S
C1042 C1043 1.506 . S
C1042 O1060 1.261 . S
C1042 O1061 1.242 . S
C1043 C1042 1.506 . S
C1043 C1044 1.358 . S
C1043 C1048 1.382 . S
C1044 C1043 1.358 . S
C1044 C1045 1.385 . S
C1044 H1072 0.930 . S
C1045 C1044 1.385 . S
C1045 C1046 1.395 . S
C1045 H1073 0.929 . S
C1046 C1045 1.395 . S
C1046 C1047 1.335 . S
C1047 C1046 1.335 . S
C1047 C1048 1.398 . S
C1047 H1074 0.930 . S
C1048 C1043 1.382 . S
C1048 C1047 1.398 . S
C1048 H1075 0.929 . S
C1049 O1062 1.271 . S
C1049 O1063 1.251 . S
C1050 O1064 1.252 . S
C1050 O1065 1.272 . S
C1051 Sm1041 2.846 . S
C1051 C1052 1.494 1_455 S
C1051 O1066 1.261 . S
C1051 O1067 1.242 1_455 S
C1052 C1051 1.494 1_655 S
C1052 C1053 1.337 1_654 S
C1052 C1057 1.416 1_554 S
C1053 C1052 1.337 1_456 S
C1053 C1054 1.385 . S
C1053 H1076 0.930 . S
C1054 C1053 1.385 . S
C1054 C1055 1.395 1_455 S
C1054 H1077 0.929 . S
C1055 C1054 1.395 1_655 S
C1055 C1056 1.335 . S
C1056 C1055 1.335 . S
C1056 C1057 1.398 . S
C1056 H1078 0.930 . S
C1057 C1052 1.416 1_556 S
C1057 C1056 1.398 . S
C1057 H1079 0.929 1_556 S
C1058 O1068 1.271 . S
C1058 O1069 1.251 1_455 S
C1059 O1070 1.252 . S
C1059 O1071 1.272 . S
O1060 Sm1040 2.543 . S
O1060 C1042 1.261 . S
O1061 Sm1040 2.450 . S
O1061 C1042 1.242 . S
O1062 Sm1040 2.681 . S
O1062 Sm1041 2.386 . S
O1062 C1049 1.271 . S
O1063 Sm1040 2.464 . S
O1063 C1049 1.251 . S
O1064 Sm1040 2.396 . S
O1064 C1050 1.252 . S
O1065 Sm1041 2.408 . S
O1065 C1050 1.272 . S
O1066 Sm1041 2.543 . S
O1066 C1051 1.261 . S
O1067 Sm1041 2.450 1_655 S
O1067 C1051 1.242 1_655 S
O1068 Sm1040 2.386 . S
O1068 Sm1041 2.681 . S
O1068 C1058 1.271 . S
O1069 Sm1041 2.464 1_655 S
O1069 C1058 1.251 1_655 S
O1070 Sm1041 2.396 . S
O1070 C1059 1.252 . S
O1071 Sm1040 2.408 . S
O1071 C1059 1.272 . S
H1072 C1044 0.930 . S
H1073 C1045 0.929 . S
H1074 C1047 0.930 . S
H1075 C1048 0.929 . S
H1076 C1053 0.930 . S
H1077 C1054 0.929 . S
H1078 C1056 0.930 . S
H1079 C1057 0.929 1_554 S
Sm1080 C1082 2.846 . S
Sm1080 O1100 2.543 . S
Sm1080 O1101 2.450 . S
Sm1080 O1102 2.681 . S
Sm1080 O1103 2.464 . S
Sm1080 O1104 2.396 . S
Sm1080 O1108 2.386 . S
Sm1080 O1111 2.408 1_556 S
Sm1081 C1091 2.846 1_556 S
Sm1081 O1102 2.386 . S
Sm1081 O1105 2.408 . S
Sm1081 O1106 2.543 1_556 S
Sm1081 O1107 2.450 1_556 S
Sm1081 O1108 2.681 . S
Sm1081 O1109 2.464 . S
Sm1081 O1110 2.396 1_556 S
C1082 Sm1080 2.846 . S
C1082 C1083 1.506 . S
C1082 O1100 1.261 . S
C1082 O1101 1.242 . S
C1083 C1082 1.506 . S
C1083 C1084 1.358 . S
C1083 C1088 1.382 . S
C1084 C1083 1.358 . S
C1084 C1085 1.385 . S
C1084 H1112 0.930 . S
C1085 C1084 1.385 . S
C1085 C1086 1.395 . S
C1085 H1113 0.929 . S
C1086 C1085 1.395 . S
C1086 C1087 1.335 . S
C1087 C1086 1.335 . S
C1087 C1088 1.398 . S
C1087 H1114 0.930 . S
C1088 C1083 1.382 . S
C1088 C1087 1.398 . S
C1088 H1115 0.929 . S
C1089 O1102 1.271 . S
C1089 O1103 1.251 . S
C1090 O1104 1.252 . S
C1090 O1105 1.272 . S
C1091 Sm1081 2.846 1_554 S
C1091 C1092 1.506 . S
C1091 O1106 1.261 . S
C1091 O1107 1.242 . S
C1092 C1091 1.506 . S
C1092 C1093 1.358 . S
C1092 C1097 1.382 . S
C1093 C1092 1.358 . S
C1093 C1094 1.385 . S
C1093 H1116 0.930 . S
C1094 C1093 1.385 . S
C1094 C1095 1.395 . S
C1094 H1117 0.929 . S
C1095 C1094 1.395 . S
C1095 C1096 1.335 . S
C1096 C1095 1.335 . S
C1096 C1097 1.398 . S
C1096 H1118 0.930 . S
C1097 C1092 1.382 . S
C1097 C1096 1.398 . S
C1097 H1119 0.929 . S
C1098 O1108 1.271 . S
C1098 O1109 1.251 . S
C1099 O1110 1.252 . S
C1099 O1111 1.272 . S
O1100 Sm1080 2.543 . S
O1100 C1082 1.261 . S
O1101 Sm1080 2.450 . S
O1101 C1082 1.242 . S
O1102 Sm1080 2.681 . S
O1102 Sm1081 2.386 . S
O1102 C1089 1.271 . S
O1103 Sm1080 2.464 . S
O1103 C1089 1.251 . S
O1104 Sm1080 2.396 . S
O1104 C1090 1.252 . S
O1105 Sm1081 2.408 . S
O1105 C1090 1.272 . S
O1106 Sm1081 2.543 1_554 S
O1106 C1091 1.261 . S
O1107 Sm1081 2.450 1_554 S
O1107 C1091 1.242 . S
O1108 Sm1080 2.386 . S
O1108 Sm1081 2.681 . S
O1108 C1098 1.271 . S
O1109 Sm1081 2.464 . S
O1109 C1098 1.251 . S
O1110 Sm1081 2.396 1_554 S
O1110 C1099 1.252 . S
O1111 Sm1080 2.408 1_554 S
O1111 C1099 1.272 . S
H1112 C1084 0.930 . S
H1113 C1085 0.929 . S
H1114 C1087 0.930 . S
H1115 C1088 0.929 . S
H1116 C1093 0.930 . S
H1117 C1094 0.929 . S
H1118 C1096 0.930 . S
H1119 C1097 0.929 . S
Sm1120 C1122 2.846 1_565 S
Sm1120 O1140 2.543 . S
Sm1120 O1141 2.450 1_565 S
Sm1120 O1142 2.681 . S
Sm1120 O1143 2.464 1_565 S
Sm1120 O1144 2.396 . S
Sm1120 O1148 2.386 . S
Sm1120 O1151 2.408 . S
Sm1121 C1131 2.846 . S
Sm1121 O1142 2.386 . S
Sm1121 O1145 2.408 . S
Sm1121 O1146 2.543 . S
Sm1121 O1147 2.450 . S
Sm1121 O1148 2.681 . S
Sm1121 O1149 2.464 . S
Sm1121 O1150 2.396 . S
C1122 Sm1120 2.846 1_545 S
C1122 C1123 1.506 . S
C1122 O1140 1.261 1_545 S
C1122 O1141 1.242 . S
C1123 C1122 1.506 . S
C1123 C1124 1.358 . S
C1123 C1128 1.382 . S
C1124 C1123 1.358 . S
C1124 C1125 1.385 . S
C1124 H1152 0.930 1_545 S
C1125 C1124 1.385 . S
C1125 C1126 1.395 . S
C1125 H1153 0.929 . S
C1126 C1125 1.395 . S
C1126 C1127 1.335 . S
C1127 C1126 1.335 . S
C1127 C1128 1.398 . S
C1127 H1154 0.930 . S
C1128 C1123 1.382 . S
C1128 C1127 1.398 . S
C1128 H1155 0.929 . S
C1129 O1142 1.271 . S
C1129 O1143 1.251 1_565 S
C1130 O1144 1.252 . S
C1130 O1145 1.272 . S
C1131 Sm1121 2.846 . S
C1131 C1132 1.506 . S
C1131 O1146 1.261 . S
C1131 O1147 1.242 . S
C1132 C1131 1.506 . S
C1132 C1133 1.358 . S
C1132 C1137 1.382 . S
C1133 C1132 1.358 . S
C1133 C1134 1.385 1_554 S
C1133 H1156 0.930 . S
C1134 C1133 1.385 1_556 S
C1134 C1135 1.395 . S
C1134 H1157 0.929 . S
C1135 C1134 1.395 . S
C1135 C1136 1.335 1_556 S
C1136 C1135 1.335 1_554 S
C1136 C1137 1.398 . S
C1136 H1158 0.930 . S
C1137 C1132 1.382 . S
C1137 C1136 1.398 . S
C1137 H1159 0.929 . S
C1138 O1148 1.271 . S
C1138 O1149 1.251 . S
C1139 O1150 1.252 . S
C1139 O1151 1.272 . S
O1140 Sm1120 2.543 . S
O1140 C1122 1.261 1_565 S
O1141 Sm1120 2.450 1_545 S
O1141 C1122 1.242 . S
O1142 Sm1120 2.681 . S
O1142 Sm1121 2.386 . S
O1142 C1129 1.271 . S
O1143 Sm1120 2.464 1_545 S
O1143 C1129 1.251 1_545 S
O1144 Sm1120 2.396 . S
O1144 C1130 1.252 . S
O1145 Sm1121 2.408 . S
O1145 C1130 1.272 . S
O1146 Sm1121 2.543 . S
O1146 C1131 1.261 . S
O1147 Sm1121 2.450 . S
O1147 C1131 1.242 . S
O1148 Sm1120 2.386 . S
O1148 Sm1121 2.681 . S
O1148 C1138 1.271 . S
O1149 Sm1121 2.464 . S
O1149 C1138 1.251 . S
O1150 Sm1121 2.396 . S
O1150 C1139 1.252 . S
O1151 Sm1120 2.408 . S
O1151 C1139 1.272 . S
H1152 C1124 0.930 1_565 S
H1153 C1125 0.929 . S
H1154 C1127 0.930 . S
H1155 C1128 0.929 . S
H1156 C1133 0.930 . S
H1157 C1134 0.929 . S
H1158 C1136 0.930 . S
H1159 C1137 0.929 . S
Sm1160 C1162 2.846 . S
Sm1160 O1180 2.543 . S
Sm1160 O1181 2.450 . S
Sm1160 O1182 2.681 1_554 S
Sm1160 O1183 2.464 . S
Sm1160 O1184 2.396 . S
Sm1160 O1188 2.386 . S
Sm1160 O1191 2.408 1_554 S
Sm1161 C1171 2.846 . S
Sm1161 O1182 2.386 . S
Sm1161 O1185 2.408 1_556 S
Sm1161 O1186 2.543 . S
Sm1161 O1187 2.450 . S
Sm1161 O1188 2.681 1_556 S
Sm1161 O1189 2.464 . S
Sm1161 O1190 2.396 . S
C1162 Sm1160 2.846 . S
C1162 C1163 1.506 . S
C1162 O1180 1.261 . S
C1162 O1181 1.242 . S
C1163 C1162 1.506 . S
C1163 C1164 1.358 . S
C1163 C1168 1.382 . S
C1164 C1163 1.358 . S
C1164 C1165 1.385 . S
C1164 H1192 0.930 . S
C1165 C1164 1.385 . S
C1165 C1166 1.395 . S
C1165 H1193 0.929 . S
C1166 C1165 1.395 . S
C1166 C1167 1.335 . S
C1167 C1166 1.335 . S
C1167 C1168 1.398 . S
C1167 H1194 0.930 . S
C1168 C1163 1.382 . S
C1168 C1167 1.398 . S
C1168 H1195 0.929 . S
C1169 O1182 1.271 . S
C1169 O1183 1.251 1_556 S
C1170 O1184 1.252 . S
C1170 O1185 1.272 . S
C1171 Sm1161 2.846 . S
C1171 C1172 1.506 . S
C1171 O1186 1.261 . S
C1171 O1187 1.242 . S
C1172 C1171 1.506 . S
C1172 C1173 1.358 . S
C1172 C1177 1.382 . S
C1173 C1172 1.358 . S
C1173 C1174 1.385 . S
C1173 H1196 0.930 . S
C1174 C1173 1.385 . S
C1174 C1175 1.395 . S
C1174 H1197 0.929 . S
C1175 C1174 1.395 . S
C1175 C1176 1.335 . S
C1176 C1175 1.335 . S
C1176 C1177 1.398 . S
C1176 H1198 0.930 . S
C1177 C1172 1.382 . S
C1177 C1176 1.398 . S
C1177 H1199 0.929 . S
C1178 O1188 1.271 . S
C1178 O1189 1.251 1_554 S
C1179 O1190 1.252 . S
C1179 O1191 1.272 . S
O1180 Sm1160 2.543 . S
O1180 C1162 1.261 . S
O1181 Sm1160 2.450 . S
O1181 C1162 1.242 . S
O1182 Sm1160 2.681 1_556 S
O1182 Sm1161 2.386 . S
O1182 C1169 1.271 . S
O1183 Sm1160 2.464 . S
O1183 C1169 1.251 1_554 S
O1184 Sm1160 2.396 . S
O1184 C1170 1.252 . S
O1185 Sm1161 2.408 1_554 S
O1185 C1170 1.272 . S
O1186 Sm1161 2.543 . S
O1186 C1171 1.261 . S
O1187 Sm1161 2.450 . S
O1187 C1171 1.242 . S
O1188 Sm1160 2.386 . S
O1188 Sm1161 2.681 1_554 S
O1188 C1178 1.271 . S
O1189 Sm1161 2.464 . S
O1189 C1178 1.251 1_556 S
O1190 Sm1161 2.396 . S
O1190 C1179 1.252 . S
O1191 Sm1160 2.408 1_556 S
O1191 C1179 1.272 . S
H1192 C1164 0.930 . S
H1193 C1165 0.929 . S
H1194 C1167 0.930 . S
H1195 C1168 0.929 . S
H1196 C1173 0.930 . S
H1197 C1174 0.929 . S
H1198 C1176 0.930 . S
H1199 C1177 0.929 . S
Sm1200 C1202 2.846 . S
Sm1200 O1220 2.543 1_565 S
Sm1200 O1221 2.450 . S
Sm1200 O1222 2.681 1_565 S
Sm1200 O1223 2.464 . S
Sm1200 O1224 2.396 1_565 S
Sm1200 O1228 2.386 1_565 S
Sm1200 O1231 2.408 . S
Sm1201 C1211 2.846 . S
Sm1201 O1222 2.386 . S
Sm1201 O1225 2.408 . S
Sm1201 O1226 2.543 . S
Sm1201 O1227 2.450 . S
Sm1201 O1228 2.681 . S
Sm1201 O1229 2.464 . S
Sm1201 O1230 2.396 . S
C1202 Sm1200 2.846 . S
C1202 C1203 1.506 . S
C1202 O1220 1.234 1_565 S
C1202 O1221 1.242 . S
C1203 C1202 1.506 . S
C1203 C1204 1.358 . S
C1203 C1208 1.382 . S
C1204 C1203 1.358 . S
C1204 C1205 1.385 . S
C1204 H1232 0.915 1_565 S
C1205 C1204 1.385 . S
C1205 C1206 1.395 . S
C1205 H1233 0.929 1_556 S
C1206 C1205 1.395 . S
C1206 C1207 1.335 . S
C1207 C1206 1.335 . S
C1207 C1208 1.398 . S
C1207 H1234 0.930 . S
C1208 C1203 1.382 . S
C1208 C1207 1.398 . S
C1208 H1235 0.929 . S
C1209 O1222 1.271 1_565 S
C1209 O1223 1.251 . S
C1210 O1224 1.252 . S
C1210 O1225 1.272 . S
C1211 Sm1201 2.846 . S
C1211 C1212 1.506 . S
C1211 O1226 1.261 . S
C1211 O1227 1.242 . S
C1212 C1211 1.506 . S
C1212 C1213 1.358 . S
C1212 C1217 1.382 . S
C1213 C1212 1.358 . S
C1213 C1214 1.385 . S
C1213 H1236 0.930 . S
C1214 C1213 1.385 . S
C1214 C1215 1.395 . S
C1214 H1237 0.929 . S
C1215 C1214 1.395 . S
C1215 C1216 1.335 . S
C1216 C1215 1.335 . S
C1216 C1217 1.398 . S
C1216 H1238 0.930 . S
C1217 C1212 1.382 . S
C1217 C1216 1.398 . S
C1217 H1239 0.929 . S
C1218 O1228 1.271 . S
C1218 O1229 1.251 . S
C1219 O1230 1.252 . S
C1219 O1231 1.272 1_545 S
O1220 Sm1200 2.543 1_545 S
O1220 C1202 1.234 1_545 S
O1221 Sm1200 2.450 . S
O1221 C1202 1.242 . S
O1222 Sm1200 2.681 1_545 S
O1222 Sm1201 2.386 . S
O1222 C1209 1.271 1_545 S
O1223 Sm1200 2.464 . S
O1223 C1209 1.251 . S
O1224 Sm1200 2.396 1_545 S
O1224 C1210 1.252 . S
O1225 Sm1201 2.408 . S
O1225 C1210 1.272 . S
O1226 Sm1201 2.543 . S
O1226 C1211 1.261 . S
O1227 Sm1201 2.450 . S
O1227 C1211 1.242 . S
O1228 Sm1200 2.386 1_545 S
O1228 Sm1201 2.681 . S
O1228 C1218 1.271 . S
O1229 Sm1201 2.464 . S
O1229 C1218 1.251 . S
O1230 Sm1201 2.396 . S
O1230 C1219 1.252 . S
O1231 Sm1200 2.408 . S
O1231 C1219 1.272 1_565 S
H1232 C1204 0.915 1_545 S
H1233 C1205 0.929 1_554 S
H1234 C1207 0.930 . S
H1235 C1208 0.929 . S
H1236 C1213 0.930 . S
H1237 C1214 0.929 . S
H1238 C1216 0.930 . S
H1239 C1217 0.929 . S
Sm1240 C1242 2.846 . S
Sm1240 O1260 2.543 . S
Sm1240 O1261 2.450 . S
Sm1240 O1262 2.681 . S
Sm1240 O1263 2.464 . S
Sm1240 O1264 2.396 . S
Sm1240 O1268 2.386 . S
Sm1240 O1271 2.408 . S
Sm1241 C1251 2.846 . S
Sm1241 O1262 2.386 . S
Sm1241 O1265 2.408 . S
Sm1241 O1266 2.543 . S
Sm1241 O1267 2.450 . S
Sm1241 O1268 2.681 . S
Sm1241 O1269 2.464 . S
Sm1241 O1270 2.396 . S
C1242 Sm1240 2.846 . S
C1242 C1243 1.506 . S
C1242 O1260 1.261 . S
C1242 O1261 1.242 . S
C1243 C1242 1.506 . S
C1243 C1244 1.358 . S
C1243 C1248 1.382 . S
C1244 C1243 1.358 . S
C1244 C1245 1.385 . S
C1244 H1272 0.930 . S
C1245 C1244 1.385 . S
C1245 C1246 1.395 . S
C1245 H1273 0.929 . S
C1246 C1245 1.395 . S
C1246 C1247 1.335 . S
C1247 C1246 1.335 . S
C1247 C1248 1.398 . S
C1247 H1274 0.930 . S
C1248 C1243 1.382 . S
C1248 C1247 1.398 . S
C1248 H1275 0.929 . S
C1249 O1262 1.271 . S
C1249 O1263 1.251 . S
C1250 O1264 1.252 . S
C1250 O1265 1.272 . S
C1251 Sm1241 2.846 . S
C1251 C1252 1.506 . S
C1251 O1266 1.261 . S
C1251 O1267 1.242 . S
C1252 C1251 1.506 . S
C1252 C1253 1.358 . S
C1252 C1257 1.382 . S
C1253 C1252 1.358 . S
C1253 C1254 1.385 . S
C1253 H1276 0.930 . S
C1254 C1253 1.385 . S
C1254 C1255 1.395 . S
C1254 H1277 0.929 . S
C1255 C1254 1.395 . S
C1255 C1256 1.335 . S
C1256 C1255 1.335 . S
C1256 C1257 1.398 . S
C1256 H1278 0.930 . S
C1257 C1252 1.382 . S
C1257 C1256 1.398 . S
C1257 H1279 0.929 . S
C1258 O1268 1.271 . S
C1258 O1269 1.251 . S
C1259 O1270 1.252 . S
C1259 O1271 1.272 . S
O1260 Sm1240 2.543 . S
O1260 C1242 1.261 . S
O1261 Sm1240 2.450 . S
O1261 C1242 1.242 . S
O1262 Sm1240 2.681 . S
O1262 Sm1241 2.386 . S
O1262 C1249 1.271 . S
O1263 Sm1240 2.464 . S
O1263 C1249 1.251 . S
O1264 Sm1240 2.396 . S
O1264 C1250 1.252 . S
O1265 Sm1241 2.408 . S
O1265 C1250 1.272 . S
O1266 Sm1241 2.543 . S
O1266 C1251 1.261 . S
O1267 Sm1241 2.450 . S
O1267 C1251 1.242 . S
O1268 Sm1240 2.386 . S
O1268 Sm1241 2.681 . S
O1268 C1258 1.271 . S
O1269 Sm1241 2.464 . S
O1269 C1258 1.251 . S
O1270 Sm1241 2.396 . S
O1270 C1259 1.252 . S
O1271 Sm1240 2.408 . S
O1271 C1259 1.272 . S
H1272 C1244 0.930 . S
H1273 C1245 0.929 . S
H1274 C1247 0.930 . S
H1275 C1248 0.929 . S
H1276 C1253 0.930 . S
H1277 C1254 0.929 . S
H1278 C1256 0.930 . S
H1279 C1257 0.929 . S
C1280 C1281 1.387 . S
C1280 H1284 0.950 . S
C1280 C1289 1.390 . S
C1281 C1280 1.387 . S
C1281 C1283 1.387 . S
H1282 C1289 0.950 . S
C1283 C1281 1.387 . S
C1283 C1285 1.390 . S
C1283 H1287 0.950 . S
H1284 C1280 0.950 . S
C1285 C1283 1.390 . S
C1285 C1286 1.387 . S
C1285 H1288 0.950 . S
C1286 C1285 1.387 . S
C1286 C1289 1.387 . S
H1287 C1283 0.950 . S
H1288 C1285 0.950 . S
C1289 C1280 1.390 . S
C1289 H1282 0.950 . S
C1289 C1286 1.387 . S
C1290 C1291 1.387 . S
C1290 H1294 0.950 . S
C1290 C1299 1.390 . S
C1291 C1290 1.387 . S
C1291 C1293 1.387 . S
H1292 C1299 0.950 . S
C1293 C1291 1.387 . S
C1293 C1295 1.390 . S
C1293 H1297 0.950 . S
H1294 C1290 0.950 . S
C1295 C1293 1.390 . S
C1295 C1296 1.387 . S
C1295 H1298 0.950 . S
C1296 C1295 1.387 . S
C1296 C1299 1.387 . S
H1297 C1293 0.950 . S
H1298 C1295 0.950 . S
C1299 C1290 1.390 . S
C1299 H1292 0.950 . S
C1299 C1296 1.387 . S
C1300 C1301 1.387 . S
C1300 H1304 0.950 . S
C1300 C1309 1.390 . S
C1301 C1300 1.387 . S
C1301 C1303 1.387 . S
H1302 C1309 0.950 . S
C1303 C1301 1.387 . S
C1303 C1305 1.390 . S
C1303 H1307 0.950 . S
H1304 C1300 0.950 . S
C1305 C1303 1.390 . S
C1305 C1306 1.387 . S
C1305 H1308 0.950 . S
C1306 C1305 1.387 . S
C1306 C1309 1.387 . S
H1307 C1303 0.950 . S
H1308 C1305 0.950 . S
C1309 C1300 1.390 . S
C1309 H1302 0.950 . S
C1309 C1306 1.387 . S
C1310 C1311 1.387 . S
C1310 H1314 0.950 . S
C1310 C1319 1.390 . S
C1311 C1310 1.387 . S
C1311 C1313 1.387 . S
H1312 C1319 0.950 . S
C1313 C1311 1.387 . S
C1313 C1315 1.390 . S
C1313 H1317 0.950 . S
H1314 C1310 0.950 . S
C1315 C1313 1.390 . S
C1315 C1316 1.387 . S
C1315 H1318 0.950 . S
C1316 C1315 1.387 . S
C1316 C1319 1.387 . S
H1317 C1313 0.950 . S
H1318 C1315 0.950 . S
C1319 C1310 1.390 . S
C1319 H1312 0.950 . S
C1319 C1316 1.387 . S
C1320 C1321 1.387 . S
C1320 H1324 0.950 . S
C1320 C1329 1.390 . S
C1321 C1320 1.387 . S
C1321 C1323 1.387 . S
H1322 C1329 0.950 . S
C1323 C1321 1.387 . S
C1323 C1325 1.390 . S
C1323 H1327 0.950 . S
H1324 C1320 0.950 . S
C1325 C1323 1.390 . S
C1325 C1326 1.387 . S
C1325 H1328 0.950 . S
C1326 C1325 1.387 . S
C1326 C1329 1.387 . S
H1327 C1323 0.950 . S
H1328 C1325 0.950 . S
C1329 C1320 1.390 . S
C1329 H1322 0.950 . S
C1329 C1326 1.387 . S
C1330 C1331 1.387 . S
C1330 H1334 0.950 . S
C1330 C1339 1.390 . S
C1331 C1330 1.387 . S
C1331 C1333 1.387 . S
H1332 C1339 0.950 . S
C1333 C1331 1.387 . S
C1333 C1335 1.390 . S
C1333 H1337 0.950 . S
H1334 C1330 0.950 . S
C1335 C1333 1.390 . S
C1335 C1336 1.387 . S
C1335 H1338 0.950 . S
C1336 C1335 1.387 . S
C1336 C1339 1.387 . S
H1337 C1333 0.950 . S
H1338 C1335 0.950 . S
C1339 C1330 1.390 . S
C1339 H1332 0.950 . S
C1339 C1336 1.387 . S
C1340 C1341 1.387 . S
C1340 H1344 0.950 . S
C1340 C1349 1.390 . S
C1341 C1340 1.387 . S
C1341 C1343 1.387 . S
H1342 C1349 0.950 . S
C1343 C1341 1.387 . S
C1343 C1345 1.390 . S
C1343 H1347 0.950 . S
H1344 C1340 0.950 . S
C1345 C1343 1.390 . S
C1345 C1346 1.387 . S
C1345 H1348 0.950 . S
C1346 C1345 1.387 . S
C1346 C1349 1.387 . S
H1347 C1343 0.950 . S
H1348 C1345 0.950 . S
C1349 C1340 1.390 . S
C1349 H1342 0.950 . S
C1349 C1346 1.387 . S
C1350 C1351 1.387 . S
C1350 H1354 0.950 . S
C1350 C1359 1.390 . S
C1351 C1350 1.387 . S
C1351 C1353 1.387 . S
H1352 C1359 0.950 . S
C1353 C1351 1.387 . S
C1353 C1355 1.390 . S
C1353 H1357 0.950 . S
H1354 C1350 0.950 . S
C1355 C1353 1.390 . S
C1355 C1356 1.387 . S
C1355 H1358 0.950 . S
C1356 C1355 1.387 . S
C1356 C1359 1.387 . S
H1357 C1353 0.950 . S
H1358 C1355 0.950 . S
C1359 C1350 1.390 . S
C1359 H1352 0.950 . S
C1359 C1356 1.387 . S
C1360 C1361 1.387 . S
C1360 H1364 0.950 . S
C1360 C1369 1.390 . S
C1361 C1360 1.387 . S
C1361 C1363 1.387 . S
H1362 C1369 0.950 . S
C1363 C1361 1.387 . S
C1363 C1365 1.390 . S
C1363 H1367 0.950 . S
H1364 C1360 0.950 . S
C1365 C1363 1.390 . S
C1365 C1366 1.387 . S
C1365 H1368 0.950 . S
C1366 C1365 1.387 . S
C1366 C1369 1.387 . S
H1367 C1363 0.950 . S
H1368 C1365 0.950 . S
C1369 C1360 1.390 . S
C1369 H1362 0.950 . S
C1369 C1366 1.387 . S
C1370 C1371 1.387 . S
C1370 H1374 0.950 . S
C1370 C1379 1.390 1_556 S
C1371 C1370 1.387 . S
C1371 C1373 1.387 . S
H1372 C1379 0.950 . S
C1373 C1371 1.387 . S
C1373 C1375 1.390 1_556 S
C1373 H1377 0.950 . S
H1374 C1370 0.950 . S
C1375 C1373 1.390 1_554 S
C1375 C1376 1.387 . S
C1375 H1378 0.950 . S
C1376 C1375 1.387 . S
C1376 C1379 1.387 . S
H1377 C1373 0.950 . S
H1378 C1375 0.950 . S
C1379 C1370 1.390 1_554 S
C1379 H1372 0.950 . S
C1379 C1376 1.387 . S
C1380 C1381 1.387 . S
C1380 H1384 0.950 . S
C1380 C1389 1.390 . S
C1381 C1380 1.387 . S
C1381 C1383 1.387 . S
H1382 C1389 0.950 . S
C1383 C1381 1.387 . S
C1383 C1385 1.390 . S
C1383 H1387 0.950 . S
H1384 C1380 0.950 . S
C1385 C1383 1.390 . S
C1385 C1386 1.387 . S
C1385 H1388 0.950 . S
C1386 C1385 1.387 . S
C1386 C1389 1.387 . S
H1387 C1383 0.950 . S
H1388 C1385 0.950 . S
C1389 C1380 1.390 . S
C1389 H1382 0.950 . S
C1389 C1386 1.387 . S
C1390 C1391 1.387 . S
C1390 H1394 0.950 . S
C1390 C1399 1.390 . S
C1391 C1390 1.387 . S
C1391 C1393 1.387 . S
H1392 C1399 0.950 . S
C1393 C1391 1.387 . S
C1393 C1395 1.390 . S
C1393 H1397 0.950 . S
H1394 C1390 0.950 . S
C1395 C1393 1.390 . S
C1395 C1396 1.387 . S
C1395 H1398 0.950 . S
C1396 C1395 1.387 . S
C1396 C1399 1.387 . S
H1397 C1393 0.950 . S
H1398 C1395 0.950 . S
C1399 C1390 1.390 . S
C1399 H1392 0.950 . S
C1399 C1396 1.387 . S
C1400 C1401 1.387 . S
C1400 H1404 0.950 . S
C1400 C1409 1.390 . S
C1401 C1400 1.387 . S
C1401 C1403 1.387 . S
H1402 C1409 0.950 . S
C1403 C1401 1.387 . S
C1403 C1405 1.390 . S
C1403 H1407 0.950 . S
H1404 C1400 0.950 . S
C1405 C1403 1.390 . S
C1405 C1406 1.387 . S
C1405 H1408 0.950 . S
C1406 C1405 1.387 . S
C1406 C1409 1.387 . S
H1407 C1403 0.950 . S
H1408 C1405 0.950 . S
C1409 C1400 1.390 . S
C1409 H1402 0.950 . S
C1409 C1406 1.387 . S
C1410 C1411 1.387 . S
C1410 H1414 0.950 . S
C1410 C1419 1.390 . S
C1411 C1410 1.387 . S
C1411 C1413 1.387 . S
H1412 C1419 0.950 . S
C1413 C1411 1.387 . S
C1413 C1415 1.390 . S
C1413 H1417 0.950 . S
H1414 C1410 0.950 . S
C1415 C1413 1.390 . S
C1415 C1416 1.387 . S
C1415 H1418 0.950 . S
C1416 C1415 1.387 . S
C1416 C1419 1.387 . S
H1417 C1413 0.950 . S
H1418 C1415 0.950 . S
C1419 C1410 1.390 . S
C1419 H1412 0.950 . S
C1419 C1416 1.387 . S
C1420 C1421 1.387 . S
C1420 H1424 0.950 . S
C1420 C1429 1.390 . S
C1421 C1420 1.387 . S
C1421 C1423 1.387 . S
H1422 C1429 0.950 1_556 S
C1423 C1421 1.387 . S
C1423 C1425 1.390 . S
C1423 H1427 0.950 . S
H1424 C1420 0.950 . S
C1425 C1423 1.390 . S
C1425 C1426 1.387 1_554 S
C1425 H1428 0.950 . S
C1426 C1425 1.387 1_556 S
C1426 C1429 1.387 1_556 S
H1427 C1423 0.950 . S
H1428 C1425 0.950 . S
C1429 C1420 1.390 . S
C1429 H1422 0.950 1_554 S
C1429 C1426 1.387 1_554 S
C1430 C1431 1.387 . S
C1430 H1434 0.950 . S
C1430 C1439 1.390 . S
C1431 C1430 1.387 . S
C1431 C1433 1.387 . S
H1432 C1439 0.950 . S
C1433 C1431 1.387 . S
C1433 C1435 1.390 . S
C1433 H1437 0.950 . S
H1434 C1430 0.950 . S
C1435 C1433 1.390 . S
C1435 C1436 1.387 . S
C1435 H1438 0.950 . S
C1436 C1435 1.387 . S
C1436 C1439 1.387 . S
H1437 C1433 0.950 . S
H1438 C1435 0.950 . S
C1439 C1430 1.390 . S
C1439 H1432 0.950 . S
C1439 C1436 1.387 . S
C1440 C1441 1.387 . S
C1440 H1444 0.950 . S
C1440 C1449 1.390 . S
C1441 C1440 1.387 . S
C1441 C1443 1.387 . S
H1442 C1449 0.950 . S
C1443 C1441 1.387 . S
C1443 C1445 1.390 . S
C1443 H1447 0.950 . S
H1444 C1440 0.950 . S
C1445 C1443 1.390 . S
C1445 C1446 1.387 . S
C1445 H1448 0.950 . S
C1446 C1445 1.387 . S
C1446 C1449 1.387 . S
H1447 C1443 0.950 . S
H1448 C1445 0.950 . S
C1449 C1440 1.390 . S
C1449 H1442 0.950 . S
C1449 C1446 1.387 . S
C1450 C1451 1.387 . S
C1450 H1454 0.950 . S
C1450 C1459 1.390 . S
C1451 C1450 1.387 . S
C1451 C1453 1.387 . S
H1452 C1459 0.950 . S
C1453 C1451 1.387 . S
C1453 C1455 1.390 . S
C1453 H1457 0.950 . S
H1454 C1450 0.950 . S
C1455 C1453 1.390 . S
C1455 C1456 1.387 . S
C1455 H1458 0.950 . S
C1456 C1455 1.387 . S
C1456 C1459 1.387 . S
H1457 C1453 0.950 . S
H1458 C1455 0.950 . S
C1459 C1450 1.390 . S
C1459 H1452 0.950 . S
C1459 C1456 1.387 . S
C1460 C1461 1.387 . S
C1460 H1464 0.950 . S
C1460 C1469 1.390 . S
C1461 C1460 1.387 . S
C1461 C1463 1.387 . S
H1462 C1469 0.950 . S
C1463 C1461 1.387 . S
C1463 C1465 1.390 . S
C1463 H1467 0.950 . S
H1464 C1460 0.950 . S
C1465 C1463 1.390 . S
C1465 C1466 1.387 . S
C1465 H1468 0.950 . S
C1466 C1465 1.387 . S
C1466 C1469 1.387 . S
H1467 C1463 0.950 . S
H1468 C1465 0.950 . S
C1469 C1460 1.390 . S
C1469 H1462 0.950 . S
C1469 C1466 1.387 . S
C1470 C1471 1.387 . S
C1470 H1474 0.950 . S
C1470 C1479 1.390 . S
C1471 C1470 1.387 . S
C1471 C1473 1.387 . S
H1472 C1479 0.950 . S
C1473 C1471 1.387 . S
C1473 C1475 1.390 . S
C1473 H1477 0.950 . S
H1474 C1470 0.950 . S
C1475 C1473 1.390 . S
C1475 C1476 1.387 . S
C1475 H1478 0.950 . S
C1476 C1475 1.387 . S
C1476 C1479 1.387 . S
H1477 C1473 0.950 . S
H1478 C1475 0.950 . S
C1479 C1470 1.390 . S
C1479 H1472 0.950 . S
C1479 C1476 1.387 . S
C1480 C1481 1.387 . S
C1480 H1484 0.950 . S
C1480 C1489 1.390 . S
C1481 C1480 1.387 . S
C1481 C1483 1.387 . S
H1482 C1489 0.950 . S
C1483 C1481 1.387 . S
C1483 C1485 1.390 . S
C1483 H1487 0.950 . S
H1484 C1480 0.950 . S
C1485 C1483 1.390 . S
C1485 C1486 1.387 . S
C1485 H1488 0.950 . S
C1486 C1485 1.387 . S
C1486 C1489 1.387 . S
H1487 C1483 0.950 . S
H1488 C1485 0.950 . S
C1489 C1480 1.390 . S
C1489 H1482 0.950 . S
C1489 C1486 1.387 . S
C1490 C1491 1.387 . S
C1490 H1494 0.950 . S
C1490 C1499 1.390 . S
C1491 C1490 1.387 . S
C1491 C1493 1.387 . S
H1492 C1499 0.950 . S
C1493 C1491 1.387 . S
C1493 C1495 1.390 . S
C1493 H1497 0.950 . S
H1494 C1490 0.950 . S
C1495 C1493 1.390 . S
C1495 C1496 1.387 . S
C1495 H1498 0.950 . S
C1496 C1495 1.387 . S
C1496 C1499 1.387 . S
H1497 C1493 0.950 . S
H1498 C1495 0.950 . S
C1499 C1490 1.390 . S
C1499 H1492 0.950 . S
C1499 C1496 1.387 . S
C1500 C1501 1.387 . S
C1500 H1504 0.950 . S
C1500 C1509 1.390 . S
C1501 C1500 1.387 . S
C1501 C1503 1.387 . S
H1502 C1509 0.950 . S
C1503 C1501 1.387 . S
C1503 C1505 1.390 . S
C1503 H1507 0.950 . S
H1504 C1500 0.950 . S
C1505 C1503 1.390 . S
C1505 C1506 1.387 . S
C1505 H1508 0.950 . S
C1506 C1505 1.387 . S
C1506 C1509 1.387 . S
H1507 C1503 0.950 . S
H1508 C1505 0.950 . S
C1509 C1500 1.390 . S
C1509 H1502 0.950 . S
C1509 C1506 1.387 . S
C1510 C1511 1.387 . S
C1510 H1514 0.950 . S
C1510 C1519 1.390 . S
C1511 C1510 1.387 . S
C1511 C1513 1.387 . S
H1512 C1519 0.950 . S
C1513 C1511 1.387 . S
C1513 C1515 1.390 . S
C1513 H1517 0.950 . S
H1514 C1510 0.950 . S
C1515 C1513 1.390 . S
C1515 C1516 1.387 . S
C1515 H1518 0.950 . S
C1516 C1515 1.387 . S
C1516 C1519 1.387 . S
H1517 C1513 0.950 . S
H1518 C1515 0.950 . S
C1519 C1510 1.390 . S
C1519 H1512 0.950 . S
C1519 C1516 1.387 . S
C1520 C1521 1.387 . S
C1520 H1524 0.950 . S
C1520 C1529 1.390 . S
C1521 C1520 1.387 . S
C1521 C1523 1.387 . S
H1522 C1529 0.950 . S
C1523 C1521 1.387 . S
C1523 C1525 1.390 . S
C1523 H1527 0.950 . S
H1524 C1520 0.950 . S
C1525 C1523 1.390 . S
C1525 C1526 1.387 . S
C1525 H1528 0.950 . S
C1526 C1525 1.387 . S
C1526 C1529 1.387 . S
H1527 C1523 0.950 . S
H1528 C1525 0.950 . S
C1529 C1520 1.390 . S
C1529 H1522 0.950 . S
C1529 C1526 1.387 . S
C1530 C1531 1.387 . S
C1530 H1534 0.950 . S
C1530 C1539 1.390 . S
C1531 C1530 1.387 . S
C1531 C1533 1.387 . S
H1532 C1539 0.950 . S
C1533 C1531 1.387 . S
C1533 C1535 1.390 . S
C1533 H1537 0.950 . S
H1534 C1530 0.950 . S
C1535 C1533 1.390 . S
C1535 C1536 1.387 . S
C1535 H1538 0.950 . S
C1536 C1535 1.387 . S
C1536 C1539 1.387 . S
H1537 C1533 0.950 . S
H1538 C1535 0.950 . S
C1539 C1530 1.390 . S
C1539 H1532 0.950 . S
C1539 C1536 1.387 . S
C1540 C1541 1.387 . S
C1540 H1544 0.950 . S
C1540 C1549 1.390 . S
C1541 C1540 1.387 . S
C1541 C1543 1.387 . S
H1542 C1549 0.950 . S
C1543 C1541 1.387 . S
C1543 C1545 1.390 . S
C1543 H1547 0.950 . S
H1544 C1540 0.950 . S
C1545 C1543 1.390 . S
C1545 C1546 1.387 . S
C1545 H1548 0.950 . S
C1546 C1545 1.387 . S
C1546 C1549 1.387 . S
H1547 C1543 0.950 . S
H1548 C1545 0.950 . S
C1549 C1540 1.390 . S
C1549 H1542 0.950 . S
C1549 C1546 1.387 . S
C1550 C1551 1.387 . S
C1550 H1554 0.950 . S
C1550 C1559 1.390 . S
C1551 C1550 1.387 . S
C1551 C1553 1.387 . S
H1552 C1559 0.950 . S
C1553 C1551 1.387 . S
C1553 C1555 1.390 . S
C1553 H1557 0.950 . S
H1554 C1550 0.950 . S
C1555 C1553 1.390 . S
C1555 C1556 1.387 . S
C1555 H1558 0.950 . S
C1556 C1555 1.387 . S
C1556 C1559 1.387 . S
H1557 C1553 0.950 . S
H1558 C1555 0.950 . S
C1559 C1550 1.390 . S
C1559 H1552 0.950 . S
C1559 C1556 1.387 . S
C1560 C1561 1.387 . S
C1560 H1564 0.950 . S
C1560 C1569 1.390 . S
C1561 C1560 1.387 . S
C1561 C1563 1.387 . S
H1562 C1569 0.950 . S
C1563 C1561 1.387 . S
C1563 C1565 1.390 . S
C1563 H1567 0.950 . S
H1564 C1560 0.950 . S
C1565 C1563 1.390 . S
C1565 C1566 1.387 . S
C1565 H1568 0.950 . S
C1566 C1565 1.387 . S
C1566 C1569 1.387 . S
H1567 C1563 0.950 . S
H1568 C1565 0.950 . S
C1569 C1560 1.390 . S
C1569 H1562 0.950 . S
C1569 C1566 1.387 . S
C1570 C1571 1.387 . S
C1570 H1574 0.950 . S
C1570 C1579 1.390 . S
C1571 C1570 1.387 . S
C1571 C1573 1.387 . S
H1572 C1579 0.950 . S
C1573 C1571 1.387 . S
C1573 C1575 1.390 . S
C1573 H1577 0.950 . S
H1574 C1570 0.950 . S
C1575 C1573 1.390 . S
C1575 C1576 1.387 . S
C1575 H1578 0.950 . S
C1576 C1575 1.387 . S
C1576 C1579 1.387 . S
H1577 C1573 0.950 . S
H1578 C1575 0.950 . S
C1579 C1570 1.390 . S
C1579 H1572 0.950 . S
C1579 C1576 1.387 . S
C1580 C1581 1.387 . S
C1580 H1584 0.950 . S
C1580 C1589 1.390 . S
C1581 C1580 1.387 . S
C1581 C1583 1.387 . S
H1582 C1589 0.950 . S
C1583 C1581 1.387 . S
C1583 C1585 1.390 . S
C1583 H1587 0.950 . S
H1584 C1580 0.950 . S
C1585 C1583 1.390 . S
C1585 C1586 1.387 . S
C1585 H1588 0.950 . S
C1586 C1585 1.387 . S
C1586 C1589 1.387 . S
H1587 C1583 0.950 . S
H1588 C1585 0.950 . S
C1589 C1580 1.390 . S
C1589 H1582 0.950 . S
C1589 C1586 1.387 . S
C1590 C1591 1.387 1_554 S
C1590 H1594 0.950 1_554 S
C1590 C1599 1.390 . S
C1591 C1590 1.387 1_556 S
C1591 C1593 1.387 1_556 S
H1592 C1599 0.950 . S
C1593 C1591 1.387 1_554 S
C1593 C1595 1.390 . S
C1593 H1597 0.950 1_554 S
H1594 C1590 0.950 1_556 S
C1595 C1593 1.390 . S
C1595 C1596 1.387 . S
C1595 H1598 0.950 . S
C1596 C1595 1.387 . S
C1596 C1599 1.387 . S
H1597 C1593 0.950 1_556 S
H1598 C1595 0.950 . S
C1599 C1590 1.390 . S
C1599 H1592 0.950 . S
C1599 C1596 1.387 . S
C1600 C1601 1.387 1_455 S
C1600 H1604 0.950 . S
C1600 C1609 1.390 . S
C1601 C1600 1.387 1_655 S
C1601 C1603 1.387 . S
H1602 C1609 0.950 . S
C1603 C1601 1.387 . S
C1603 C1605 1.390 . S
C1603 H1607 0.950 . S
H1604 C1600 0.950 . S
C1605 C1603 1.390 . S
C1605 C1606 1.387 1_655 S
C1605 H1608 0.950 . S
C1606 C1605 1.387 1_455 S
C1606 C1609 1.387 . S
H1607 C1603 0.950 . S
H1608 C1605 0.950 . S
C1609 C1600 1.390 . S
C1609 H1602 0.950 . S
C1609 C1606 1.387 . S
C1610 C1611 1.387 . S
C1610 H1614 0.950 . S
C1610 C1619 1.390 . S
C1611 C1610 1.387 . S
C1611 C1613 1.387 . S
H1612 C1619 0.950 . S
C1613 C1611 1.387 . S
C1613 C1615 1.390 . S
C1613 H1617 0.950 . S
H1614 C1610 0.950 . S
C1615 C1613 1.390 . S
C1615 C1616 1.387 . S
C1615 H1618 0.950 . S
C1616 C1615 1.387 . S
C1616 C1619 1.387 . S
H1617 C1613 0.950 . S
H1618 C1615 0.950 . S
C1619 C1610 1.390 . S
C1619 H1612 0.950 . S
C1619 C1616 1.387 . S
C1620 C1621 1.387 . S
C1620 H1624 0.950 . S
C1620 C1629 1.390 . S
C1621 C1620 1.387 . S
C1621 C1623 1.387 . S
H1622 C1629 0.950 . S
C1623 C1621 1.387 . S
C1623 C1625 1.390 . S
C1623 H1627 0.950 . S
H1624 C1620 0.950 . S
C1625 C1623 1.390 . S
C1625 C1626 1.387 . S
C1625 H1628 0.950 . S
C1626 C1625 1.387 . S
C1626 C1629 1.387 . S
H1627 C1623 0.950 . S
H1628 C1625 0.950 . S
C1629 C1620 1.390 . S
C1629 H1622 0.950 . S
C1629 C1626 1.387 . S
C1630 C1631 1.387 . S
C1630 H1634 0.950 . S
C1630 C1639 1.390 . S
C1631 C1630 1.387 . S
C1631 C1633 1.387 . S
H1632 C1639 0.950 . S
C1633 C1631 1.387 . S
C1633 C1635 1.390 . S
C1633 H1637 0.950 . S
H1634 C1630 0.950 . S
C1635 C1633 1.390 . S
C1635 C1636 1.387 . S
C1635 H1638 0.950 . S
C1636 C1635 1.387 . S
C1636 C1639 1.387 . S
H1637 C1633 0.950 . S
H1638 C1635 0.950 . S
C1639 C1630 1.390 . S
C1639 H1632 0.950 . S
C1639 C1636 1.387 . S
C1640 C1641 1.387 . S
C1640 H1644 0.950 . S
C1640 C1649 1.390 . S
C1641 C1640 1.387 . S
C1641 C1643 1.387 1_655 S
H1642 C1649 0.950 . S
C1643 C1641 1.387 1_455 S
C1643 C1645 1.390 . S
C1643 H1647 0.950 . S
H1644 C1640 0.950 . S
C1645 C1643 1.390 . S
C1645 C1646 1.387 . S
C1645 H1648 0.950 . S
C1646 C1645 1.387 . S
C1646 C1649 1.387 1_455 S
H1647 C1643 0.950 . S
H1648 C1645 0.950 . S
C1649 C1640 1.390 . S
C1649 H1642 0.950 . S
C1649 C1646 1.387 1_655 S
C1650 C1651 1.387 . S
C1650 H1654 0.950 . S
C1650 C1659 1.390 . S
C1651 C1650 1.387 . S
C1651 C1653 1.387 . S
H1652 C1659 0.950 . S
C1653 C1651 1.387 . S
C1653 C1655 1.390 . S
C1653 H1657 0.950 . S
H1654 C1650 0.950 . S
C1655 C1653 1.390 . S
C1655 C1656 1.387 . S
C1655 H1658 0.950 . S
C1656 C1655 1.387 . S
C1656 C1659 1.387 . S
H1657 C1653 0.950 . S
H1658 C1655 0.950 . S
C1659 C1650 1.390 . S
C1659 H1652 0.950 . S
C1659 C1656 1.387 . S
C1660 C1661 1.387 . S
C1660 H1664 0.950 . S
C1660 C1669 1.390 . S
C1661 C1660 1.387 . S
C1661 C1663 1.387 . S
H1662 C1669 0.950 . S
C1663 C1661 1.387 . S
C1663 C1665 1.390 . S
C1663 H1667 0.950 . S
H1664 C1660 0.950 . S
C1665 C1663 1.390 . S
C1665 C1666 1.387 . S
C1665 H1668 0.950 . S
C1666 C1665 1.387 . S
C1666 C1669 1.387 . S
H1667 C1663 0.950 . S
H1668 C1665 0.950 . S
C1669 C1660 1.390 . S
C1669 H1662 0.950 . S
C1669 C1666 1.387 . S
C1670 C1671 1.387 . S
C1670 H1674 0.950 . S
C1670 C1679 1.390 . S
C1671 C1670 1.387 . S
C1671 C1673 1.387 . S
H1672 C1679 0.950 . S
C1673 C1671 1.387 . S
C1673 C1675 1.390 . S
C1673 H1677 0.950 . S
H1674 C1670 0.950 . S
C1675 C1673 1.390 . S
C1675 C1676 1.387 . S
C1675 H1678 0.950 . S
C1676 C1675 1.387 . S
C1676 C1679 1.387 . S
H1677 C1673 0.950 . S
H1678 C1675 0.950 . S
C1679 C1670 1.390 . S
C1679 H1672 0.950 . S
C1679 C1676 1.387 . S
C1680 C1681 1.387 . S
C1680 H1684 0.950 . S
C1680 C1689 1.390 . S
C1681 C1680 1.387 . S
C1681 C1683 1.387 . S
H1682 C1689 0.950 . S
C1683 C1681 1.387 . S
C1683 C1685 1.390 . S
C1683 H1687 0.950 . S
H1684 C1680 0.950 . S
C1685 C1683 1.390 . S
C1685 C1686 1.387 . S
C1685 H1688 0.950 . S
C1686 C1685 1.387 . S
C1686 C1689 1.387 . S
H1687 C1683 0.950 . S
H1688 C1685 0.950 . S
C1689 C1680 1.390 . S
C1689 H1682 0.950 . S
C1689 C1686 1.387 . S
C1690 C1691 1.387 . S
C1690 H1694 0.950 . S
C1690 C1699 1.390 . S
C1691 C1690 1.387 . S
C1691 C1693 1.387 . S
H1692 C1699 0.950 . S
C1693 C1691 1.387 . S
C1693 C1695 1.390 . S
C1693 H1697 0.950 . S
H1694 C1690 0.950 . S
C1695 C1693 1.390 . S
C1695 C1696 1.387 . S
C1695 H1698 0.950 . S
C1696 C1695 1.387 . S
C1696 C1699 1.387 . S
H1697 C1693 0.950 . S
H1698 C1695 0.950 . S
C1699 C1690 1.390 . S
C1699 H1692 0.950 . S
C1699 C1696 1.387 . S
C1700 C1701 1.387 . S
C1700 H1704 0.950 . S
C1700 C1709 1.390 . S
C1701 C1700 1.387 . S
C1701 C1703 1.387 . S
H1702 C1709 0.950 . S
C1703 C1701 1.387 . S
C1703 C1705 1.390 . S
C1703 H1707 0.950 . S
H1704 C1700 0.950 . S
C1705 C1703 1.390 . S
C1705 C1706 1.387 . S
C1705 H1708 0.950 . S
C1706 C1705 1.387 . S
C1706 C1709 1.387 . S
H1707 C1703 0.950 . S
H1708 C1705 0.950 . S
C1709 C1700 1.390 . S
C1709 H1702 0.950 . S
C1709 C1706 1.387 . S
C1710 C1711 1.387 . S
C1710 H1714 0.950 . S
C1710 C1719 1.390 . S
C1711 C1710 1.387 . S
C1711 C1713 1.387 . S
H1712 C1719 0.950 . S
C1713 C1711 1.387 . S
C1713 C1715 1.390 . S
C1713 H1717 0.950 . S
H1714 C1710 0.950 . S
C1715 C1713 1.390 . S
C1715 C1716 1.387 . S
C1715 H1718 0.950 . S
C1716 C1715 1.387 . S
C1716 C1719 1.387 . S
H1717 C1713 0.950 . S
H1718 C1715 0.950 . S
C1719 C1710 1.390 . S
C1719 H1712 0.950 . S
C1719 C1716 1.387 . S
C1720 C1721 1.387 1_565 S
C1720 H1724 0.950 . S
C1720 C1729 1.390 . S
C1721 C1720 1.387 1_545 S
C1721 C1723 1.387 . S
H1722 C1729 0.950 . S
C1723 C1721 1.387 . S
C1723 C1725 1.390 . S
C1723 H1727 0.950 . S
H1724 C1720 0.950 . S
C1725 C1723 1.390 . S
C1725 C1726 1.387 1_545 S
C1725 H1728 0.950 . S
C1726 C1725 1.387 1_565 S
C1726 C1729 1.387 . S
H1727 C1723 0.950 . S
H1728 C1725 0.950 . S
C1729 C1720 1.390 . S
C1729 H1722 0.950 . S
C1729 C1726 1.387 . S
C1730 C1731 1.387 1_545 S
C1730 H1734 0.950 . S
C1730 C1739 1.390 . S
C1731 C1730 1.387 1_565 S
C1731 C1733 1.387 1_455 S
H1732 C1739 0.950 . S
C1733 C1731 1.387 1_655 S
C1733 C1735 1.390 . S
C1733 H1737 0.950 . S
H1734 C1730 0.950 . S
C1735 C1733 1.390 . S
C1735 C1736 1.387 1_565 S
C1735 H1738 0.950 . S
C1736 C1735 1.387 1_545 S
C1736 C1739 1.387 1_655 S
H1737 C1733 0.950 . S
H1738 C1735 0.950 . S
C1739 C1730 1.390 . S
C1739 H1732 0.950 . S
C1739 C1736 1.387 1_455 S
C1740 C1741 1.407 . S
C1740 H1744 0.950 . S
C1740 C1749 1.390 . S
C1741 C1740 1.407 . S
C1741 C1743 1.366 1_565 S
H1742 C1749 0.950 . S
C1743 C1741 1.366 1_545 S
C1743 C1745 1.390 . S
C1743 H1747 0.950 . S
H1744 C1740 0.950 . S
C1745 C1743 1.390 . S
C1745 C1746 1.411 . S
C1745 H1748 0.950 . S
C1746 C1745 1.411 . S
C1746 C1749 1.361 1_545 S
H1747 C1743 0.950 . S
H1748 C1745 0.950 . S
C1749 C1740 1.390 . S
C1749 H1742 0.950 . S
C1749 C1746 1.361 1_565 S
C1750 C1751 1.387 1_565 S
C1750 H1754 0.950 . S
C1750 C1759 1.390 . S
C1751 C1750 1.387 1_545 S
C1751 C1753 1.387 1_655 S
H1752 C1759 0.950 . S
C1753 C1751 1.387 1_455 S
C1753 C1755 1.390 . S
C1753 H1757 0.950 . S
H1754 C1750 0.950 . S
C1755 C1753 1.390 . S
C1755 C1756 1.387 1_545 S
C1755 H1758 0.950 . S
C1756 C1755 1.387 1_565 S
C1756 C1759 1.387 1_455 S
H1757 C1753 0.950 . S
H1758 C1755 0.950 . S
C1759 C1750 1.390 . S
C1759 H1752 0.950 . S
C1759 C1756 1.387 1_655 S
C1760 C1761 1.387 . S
C1760 H1764 0.950 . S
C1760 C1769 1.404 . S
C1761 C1760 1.387 . S
C1761 C1763 1.387 . S
H1762 C1769 0.948 1_655 S
C1763 C1761 1.387 . S
C1763 C1765 1.390 1_455 S
C1763 H1767 0.950 . S
H1764 C1760 0.950 . S
C1765 C1763 1.390 1_655 S
C1765 C1766 1.387 . S
C1765 H1768 0.950 . S
C1766 C1765 1.387 . S
C1766 C1769 1.376 1_655 S
H1767 C1763 0.950 . S
H1768 C1765 0.950 . S
C1769 C1760 1.404 . S
C1769 H1762 0.948 1_455 S
C1769 C1766 1.376 1_455 S
C1770 C1771 1.387 . S
C1770 H1774 0.950 . S
C1770 C1779 1.390 . S
C1771 C1770 1.387 . S
C1771 C1773 1.387 . S
H1772 C1779 0.950 . S
C1773 C1771 1.387 . S
C1773 C1775 1.390 . S
C1773 H1777 0.950 . S
H1774 C1770 0.950 . S
C1775 C1773 1.390 . S
C1775 C1776 1.387 . S
C1775 H1778 0.950 . S
C1776 C1775 1.387 . S
C1776 C1779 1.387 . S
H1777 C1773 0.950 . S
H1778 C1775 0.950 . S
C1779 C1770 1.390 . S
C1779 H1772 0.950 . S
C1779 C1776 1.387 . S
C1780 C1781 1.387 . S
C1780 H1784 0.950 . S
C1780 C1789 1.390 . S
C1781 C1780 1.387 . S
C1781 C1783 1.387 . S
H1782 C1789 0.950 . S
C1783 C1781 1.387 . S
C1783 C1785 1.390 . S
C1783 H1787 0.950 . S
H1784 C1780 0.950 . S
C1785 C1783 1.390 . S
C1785 C1786 1.387 . S
C1785 H1788 0.950 . S
C1786 C1785 1.387 . S
C1786 C1789 1.387 . S
H1787 C1783 0.950 . S
H1788 C1785 0.950 . S
C1789 C1780 1.390 . S
C1789 H1782 0.950 . S
C1789 C1786 1.387 . S
C1790 C1791 1.387 . S
C1790 H1794 0.950 . S
C1790 C1799 1.390 . S
C1791 C1790 1.387 . S
C1791 C1793 1.387 . S
H1792 C1799 0.950 . S
C1793 C1791 1.387 . S
C1793 C1795 1.390 . S
C1793 H1797 0.950 . S
H1794 C1790 0.950 . S
C1795 C1793 1.390 . S
C1795 C1796 1.387 . S
C1795 H1798 0.950 . S
C1796 C1795 1.387 . S
C1796 C1799 1.387 . S
H1797 C1793 0.950 . S
H1798 C1795 0.950 . S
C1799 C1790 1.390 . S
C1799 H1792 0.950 . S
C1799 C1796 1.387 . S
C1800 C1801 1.387 . S
C1800 H1804 0.950 . S
C1800 C1809 1.390 . S
C1801 C1800 1.387 . S
C1801 C1803 1.387 . S
H1802 C1809 0.950 . S
C1803 C1801 1.387 . S
C1803 C1805 1.390 . S
C1803 H1807 0.950 . S
H1804 C1800 0.950 . S
C1805 C1803 1.390 . S
C1805 C1806 1.387 . S
C1805 H1808 0.950 . S
C1806 C1805 1.387 . S
C1806 C1809 1.387 . S
H1807 C1803 0.950 . S
H1808 C1805 0.950 . S
C1809 C1800 1.390 . S
C1809 H1802 0.950 . S
C1809 C1806 1.387 . S
C1810 C1811 1.387 . S
C1810 H1814 0.950 . S
C1810 C1819 1.390 . S
C1811 C1810 1.387 . S
C1811 C1813 1.387 . S
H1812 C1819 0.950 . S
C1813 C1811 1.387 . S
C1813 C1815 1.390 . S
C1813 H1817 0.950 . S
H1814 C1810 0.950 . S
C1815 C1813 1.390 . S
C1815 C1816 1.387 . S
C1815 H1818 0.950 . S
C1816 C1815 1.387 . S
C1816 C1819 1.387 . S
H1817 C1813 0.950 . S
H1818 C1815 0.950 . S
C1819 C1810 1.390 . S
C1819 H1812 0.950 . S
C1819 C1816 1.387 . S
C1820 C1821 1.387 . S
C1820 H1824 0.950 . S
C1820 C1829 1.390 . S
C1821 C1820 1.387 . S
C1821 C1823 1.387 . S
H1822 C1829 0.950 . S
C1823 C1821 1.387 . S
C1823 C1825 1.390 . S
C1823 H1827 0.950 . S
H1824 C1820 0.950 . S
C1825 C1823 1.390 . S
C1825 C1826 1.387 . S
C1825 H1828 0.950 . S
C1826 C1825 1.387 . S
C1826 C1829 1.387 . S
H1827 C1823 0.950 . S
H1828 C1825 0.950 . S
C1829 C1820 1.390 . S
C1829 H1822 0.950 . S
C1829 C1826 1.387 . S
C1830 C1831 1.387 . S
C1830 H1834 0.950 . S
C1830 C1839 1.390 . S
C1831 C1830 1.387 . S
C1831 C1833 1.387 . S
H1832 C1839 0.950 . S
C1833 C1831 1.387 . S
C1833 C1835 1.390 . S
C1833 H1837 0.950 . S
H1834 C1830 0.950 . S
C1835 C1833 1.390 . S
C1835 C1836 1.387 . S
C1835 H1838 0.950 . S
C1836 C1835 1.387 . S
C1836 C1839 1.387 . S
H1837 C1833 0.950 . S
H1838 C1835 0.950 . S
C1839 C1830 1.390 . S
C1839 H1832 0.950 . S
C1839 C1836 1.387 . S
C1840 C1841 1.370 1_655 S
C1840 H1844 0.940 1_655 S
C1840 C1849 1.416 . S
C1841 C1840 1.370 1_455 S
C1841 C1843 1.387 . S
H1842 C1849 0.950 . S
C1843 C1841 1.387 . S
C1843 C1845 1.390 1_455 S
C1843 H1847 0.950 . S
H1844 C1840 0.940 1_455 S
C1845 C1843 1.390 1_655 S
C1845 C1846 1.387 . S
C1845 H1848 0.950 . S
C1846 C1845 1.387 . S
C1846 C1849 1.387 . S
H1847 C1843 0.950 . S
H1848 C1845 0.950 . S
C1849 C1840 1.416 . S
C1849 H1842 0.950 . S
C1849 C1846 1.387 . S
C1850 C1851 1.387 . S
C1850 H1854 0.950 . S
C1850 C1859 1.390 . S
C1851 C1850 1.387 . S
C1851 C1853 1.387 . S
H1852 C1859 0.950 . S
C1853 C1851 1.387 . S
C1853 C1855 1.390 . S
C1853 H1857 0.950 . S
H1854 C1850 0.950 . S
C1855 C1853 1.390 . S
C1855 C1856 1.387 . S
C1855 H1858 0.950 . S
C1856 C1855 1.387 . S
C1856 C1859 1.387 . S
H1857 C1853 0.950 . S
H1858 C1855 0.950 . S
C1859 C1850 1.390 . S
C1859 H1852 0.950 . S
C1859 C1856 1.387 . S
C1860 C1861 1.387 . S
C1860 H1864 0.950 . S
C1860 C1869 1.390 . S
C1861 C1860 1.387 . S
C1861 C1863 1.387 . S
H1862 C1869 0.950 . S
C1863 C1861 1.387 . S
C1863 C1865 1.390 . S
C1863 H1867 0.950 . S
H1864 C1860 0.950 . S
C1865 C1863 1.390 . S
C1865 C1866 1.387 . S
C1865 H1868 0.950 . S
C1866 C1865 1.387 . S
C1866 C1869 1.387 . S
H1867 C1863 0.950 . S
H1868 C1865 0.950 . S
C1869 C1860 1.390 . S
C1869 H1862 0.950 . S
C1869 C1866 1.387 . S
C1870 C1871 1.387 . S
C1870 H1874 0.950 . S
C1870 C1879 1.390 . S
C1871 C1870 1.387 . S
C1871 C1873 1.387 . S
H1872 C1879 0.950 . S
C1873 C1871 1.387 . S
C1873 C1875 1.390 . S
C1873 H1877 0.950 . S
H1874 C1870 0.950 . S
C1875 C1873 1.390 . S
C1875 C1876 1.387 . S
C1875 H1878 0.950 . S
C1876 C1875 1.387 . S
C1876 C1879 1.387 . S
H1877 C1873 0.950 . S
H1878 C1875 0.950 . S
C1879 C1870 1.390 . S
C1879 H1872 0.950 . S
C1879 C1876 1.387 . S
C1880 C1881 1.387 . S
C1880 H1884 0.950 . S
C1880 C1889 1.390 . S
C1881 C1880 1.387 . S
C1881 C1883 1.387 . S
H1882 C1889 0.950 . S
C1883 C1881 1.387 . S
C1883 C1885 1.390 . S
C1883 H1887 0.950 . S
H1884 C1880 0.950 . S
C1885 C1883 1.390 . S
C1885 C1886 1.387 . S
C1885 H1888 0.950 . S
C1886 C1885 1.387 . S
C1886 C1889 1.387 . S
H1887 C1883 0.950 . S
H1888 C1885 0.950 . S
C1889 C1880 1.390 . S
C1889 H1882 0.950 . S
C1889 C1886 1.387 . S
C1890 C1891 1.387 . S
C1890 H1894 0.950 . S
C1890 C1899 1.390 . S
C1891 C1890 1.387 . S
C1891 C1893 1.387 . S
H1892 C1899 0.950 . S
C1893 C1891 1.387 . S
C1893 C1895 1.390 . S
C1893 H1897 0.950 . S
H1894 C1890 0.950 . S
C1895 C1893 1.390 . S
C1895 C1896 1.387 . S
C1895 H1898 0.950 . S
C1896 C1895 1.387 . S
C1896 C1899 1.387 . S
H1897 C1893 0.950 . S
H1898 C1895 0.950 . S
C1899 C1890 1.390 . S
C1899 H1892 0.950 . S
C1899 C1896 1.387 . S
C1900 C1901 1.387 . S
C1900 H1904 0.950 . S
C1900 C1909 1.390 . S
C1901 C1900 1.387 . S
C1901 C1903 1.387 . S
H1902 C1909 0.950 . S
C1903 C1901 1.387 . S
C1903 C1905 1.390 . S
C1903 H1907 0.950 . S
H1904 C1900 0.950 . S
C1905 C1903 1.390 . S
C1905 C1906 1.387 . S
C1905 H1908 0.950 . S
C1906 C1905 1.387 . S
C1906 C1909 1.387 . S
H1907 C1903 0.950 . S
H1908 C1905 0.950 . S
C1909 C1900 1.390 . S
C1909 H1902 0.950 . S
C1909 C1906 1.387 . S
C1910 C1911 1.387 . S
C1910 H1914 0.950 . S
C1910 C1919 1.390 . S
C1911 C1910 1.387 . S
C1911 C1913 1.387 . S
H1912 C1919 0.950 . S
C1913 C1911 1.387 . S
C1913 C1915 1.390 . S
C1913 H1917 0.950 . S
H1914 C1910 0.950 . S
C1915 C1913 1.390 . S
C1915 C1916 1.387 . S
C1915 H1918 0.950 . S
C1916 C1915 1.387 . S
C1916 C1919 1.387 . S
H1917 C1913 0.950 . S
H1918 C1915 0.950 . S
C1919 C1910 1.390 . S
C1919 H1912 0.950 . S
C1919 C1916 1.387 . S
C1920 C1921 1.387 . S
C1920 H1924 0.950 . S
C1920 C1929 1.390 . S
C1921 C1920 1.387 . S
C1921 C1923 1.387 . S
H1922 C1929 0.950 . S
C1923 C1921 1.387 . S
C1923 C1925 1.390 . S
C1923 H1927 0.950 . S
H1924 C1920 0.950 . S
C1925 C1923 1.390 . S
C1925 C1926 1.387 . S
C1925 H1928 0.950 . S
C1926 C1925 1.387 . S
C1926 C1929 1.387 . S
H1927 C1923 0.950 . S
H1928 C1925 0.950 . S
C1929 C1920 1.390 . S
C1929 H1922 0.950 . S
C1929 C1926 1.387 . S
C1930 C1931 1.387 . S
C1930 H1934 0.950 . S
C1930 C1939 1.390 . S
C1931 C1930 1.387 . S
C1931 C1933 1.387 . S
H1932 C1939 0.950 . S
C1933 C1931 1.387 . S
C1933 C1935 1.390 . S
C1933 H1937 0.950 . S
H1934 C1930 0.950 . S
C1935 C1933 1.390 . S
C1935 C1936 1.387 . S
C1935 H1938 0.950 . S
C1936 C1935 1.387 . S
C1936 C1939 1.387 . S
H1937 C1933 0.950 . S
H1938 C1935 0.950 . S
C1939 C1930 1.390 . S
C1939 H1932 0.950 . S
C1939 C1936 1.387 . S
C1940 C1941 1.387 . S
C1940 H1944 0.950 . S
C1940 C1949 1.390 . S
C1941 C1940 1.387 . S
C1941 C1943 1.387 1_655 S
H1942 C1949 0.950 . S
C1943 C1941 1.387 1_455 S
C1943 C1945 1.390 . S
C1943 H1947 0.950 1_556 S
H1944 C1940 0.950 . S
C1945 C1943 1.390 . S
C1945 C1946 1.387 . S
C1945 H1948 0.950 . S
C1946 C1945 1.387 . S
C1946 C1949 1.387 1_455 S
H1947 C1943 0.950 1_554 S
H1948 C1945 0.950 . S
C1949 C1940 1.390 . S
C1949 H1942 0.950 . S
C1949 C1946 1.387 1_655 S
C1950 C1951 1.387 1_554 S
C1950 H1954 0.950 . S
C1950 C1959 1.390 . S
C1951 C1950 1.387 1_556 S
C1951 C1953 1.387 . S
H1952 C1959 0.950 . S
C1953 C1951 1.387 . S
C1953 C1955 1.390 1_556 S
C1953 H1957 0.950 . S
H1954 C1950 0.950 . S
C1955 C1953 1.390 1_554 S
C1955 C1956 1.387 . S
C1955 H1958 0.950 . S
C1956 C1955 1.387 . S
C1956 C1959 1.387 . S
H1957 C1953 0.950 . S
H1958 C1955 0.950 . S
C1959 C1950 1.390 . S
C1959 H1952 0.950 . S
C1959 C1956 1.387 . S
C1960 C1961 1.387 . S
C1960 H1964 0.950 . S
C1960 C1969 1.390 . S
C1961 C1960 1.387 . S
C1961 C1963 1.387 . S
H1962 C1969 0.950 . S
C1963 C1961 1.387 . S
C1963 C1965 1.390 . S
C1963 H1967 0.950 . S
H1964 C1960 0.950 . S
C1965 C1963 1.390 . S
C1965 C1966 1.387 . S
C1965 H1968 0.950 . S
C1966 C1965 1.387 . S
C1966 C1969 1.387 . S
H1967 C1963 0.950 . S
H1968 C1965 0.950 . S
C1969 C1960 1.390 . S
C1969 H1962 0.950 . S
C1969 C1966 1.387 . S
C1970 C1971 1.387 . S
C1970 H1974 0.950 . S
C1970 C1979 1.390 . S
C1971 C1970 1.387 . S
C1971 C1973 1.387 . S
H1972 C1979 0.950 . S
C1973 C1971 1.387 . S
C1973 C1975 1.390 . S
C1973 H1977 0.950 . S
H1974 C1970 0.950 . S
C1975 C1973 1.390 . S
C1975 C1976 1.387 . S
C1975 H1978 0.950 . S
C1976 C1975 1.387 . S
C1976 C1979 1.387 . S
H1977 C1973 0.950 . S
H1978 C1975 0.950 . S
C1979 C1970 1.390 . S
C1979 H1972 0.950 . S
C1979 C1976 1.387 . S
C1980 C1981 1.387 . S
C1980 H1984 0.950 . S
C1980 C1989 1.390 . S
C1981 C1980 1.387 . S
C1981 C1983 1.387 . S
H1982 C1989 0.950 . S
C1983 C1981 1.387 . S
C1983 C1985 1.390 . S
C1983 H1987 0.950 . S
H1984 C1980 0.950 . S
C1985 C1983 1.390 . S
C1985 C1986 1.387 . S
C1985 H1988 0.950 . S
C1986 C1985 1.387 . S
C1986 C1989 1.387 . S
H1987 C1983 0.950 . S
H1988 C1985 0.950 . S
C1989 C1980 1.390 . S
C1989 H1982 0.950 . S
C1989 C1986 1.387 . S
C1990 C1991 1.387 . S
C1990 H1994 0.950 . S
C1990 C1999 1.390 . S
C1991 C1990 1.387 . S
C1991 C1993 1.387 . S
H1992 C1999 0.950 . S
C1993 C1991 1.387 . S
C1993 C1995 1.390 . S
C1993 H1997 0.950 . S
H1994 C1990 0.950 . S
C1995 C1993 1.390 . S
C1995 C1996 1.387 . S
C1995 H1998 0.950 . S
C1996 C1995 1.387 . S
C1996 C1999 1.387 . S
H1997 C1993 0.950 . S
H1998 C1995 0.950 . S
C1999 C1990 1.390 . S
C1999 H1992 0.950 . S
C1999 C1996 1.387 . S
C2000 C2001 1.387 . S
C2000 H2004 0.950 . S
C2000 C2009 1.390 . S
C2001 C2000 1.387 . S
C2001 C2003 1.387 . S
H2002 C2009 0.950 . S
C2003 C2001 1.387 . S
C2003 C2005 1.390 . S
C2003 H2007 0.950 . S
H2004 C2000 0.950 . S
C2005 C2003 1.390 . S
C2005 C2006 1.387 . S
C2005 H2008 0.950 . S
C2006 C2005 1.387 . S
C2006 C2009 1.387 . S
H2007 C2003 0.950 . S
H2008 C2005 0.950 . S
C2009 C2000 1.390 . S
C2009 H2002 0.950 . S
C2009 C2006 1.387 . S
C2010 C2011 1.387 . S
C2010 H2014 0.950 . S
C2010 C2019 1.390 . S
C2011 C2010 1.387 . S
C2011 C2013 1.387 . S
H2012 C2019 0.950 . S
C2013 C2011 1.387 . S
C2013 C2015 1.390 . S
C2013 H2017 0.950 . S
H2014 C2010 0.950 . S
C2015 C2013 1.390 . S
C2015 C2016 1.387 . S
C2015 H2018 0.950 . S
C2016 C2015 1.387 . S
C2016 C2019 1.387 . S
H2017 C2013 0.950 . S
H2018 C2015 0.950 . S
C2019 C2010 1.390 . S
C2019 H2012 0.950 . S
C2019 C2016 1.387 . S
C2020 C2021 1.387 . S
C2020 H2024 0.950 . S
C2020 C2029 1.390 1_455 S
C2021 C2020 1.387 . S
C2021 C2023 1.387 1_455 S
H2022 C2029 0.950 . S
C2023 C2021 1.387 1_655 S
C2023 C2025 1.390 . S
C2023 H2027 0.950 . S
H2024 C2020 0.950 . S
C2025 C2023 1.390 . S
C2025 C2026 1.387 . S
C2025 H2028 0.950 . S
C2026 C2025 1.387 . S
C2026 C2029 1.387 . S
H2027 C2023 0.950 . S
H2028 C2025 0.950 . S
C2029 C2020 1.390 1_655 S
C2029 H2022 0.950 . S
C2029 C2026 1.387 . S
C2030 C2031 1.387 . S
C2030 H2034 0.950 . S
C2030 C2039 1.390 . S
C2031 C2030 1.387 . S
C2031 C2033 1.387 . S
H2032 C2039 0.950 . S
C2033 C2031 1.387 . S
C2033 C2035 1.390 . S
C2033 H2037 0.950 . S
H2034 C2030 0.950 . S
C2035 C2033 1.390 . S
C2035 C2036 1.387 . S
C2035 H2038 0.950 . S
C2036 C2035 1.387 . S
C2036 C2039 1.387 . S
H2037 C2033 0.950 . S
H2038 C2035 0.950 . S
C2039 C2030 1.390 . S
C2039 H2032 0.950 . S
C2039 C2036 1.387 . S
C2040 C2041 1.387 . S
C2040 H2044 0.950 . S
C2040 C2049 1.390 . S
C2041 C2040 1.387 . S
C2041 C2043 1.387 . S
H2042 C2049 0.950 . S
C2043 C2041 1.387 . S
C2043 C2045 1.390 . S
C2043 H2047 0.950 . S
H2044 C2040 0.950 . S
C2045 C2043 1.390 . S
C2045 C2046 1.387 . S
C2045 H2048 0.950 . S
C2046 C2045 1.387 . S
C2046 C2049 1.387 . S
H2047 C2043 0.950 . S
H2048 C2045 0.950 . S
C2049 C2040 1.390 . S
C2049 H2042 0.950 . S
C2049 C2046 1.387 . S
C2050 C2051 1.387 . S
C2050 H2054 0.950 . S
C2050 C2059 1.390 . S
C2051 C2050 1.387 . S
C2051 C2053 1.387 . S
H2052 C2059 0.950 . S
C2053 C2051 1.387 . S
C2053 C2055 1.390 . S
C2053 H2057 0.950 . S
H2054 C2050 0.950 . S
C2055 C2053 1.390 . S
C2055 C2056 1.387 . S
C2055 H2058 0.950 . S
C2056 C2055 1.387 . S
C2056 C2059 1.387 . S
H2057 C2053 0.950 . S
H2058 C2055 0.950 . S
C2059 C2050 1.390 . S
C2059 H2052 0.950 . S
C2059 C2056 1.387 . S
C2060 C2061 1.387 . S
C2060 H2064 0.950 . S
C2060 C2069 1.390 . S
C2061 C2060 1.387 . S
C2061 C2063 1.387 . S
H2062 C2069 0.950 . S
C2063 C2061 1.387 . S
C2063 C2065 1.390 . S
C2063 H2067 0.950 . S
H2064 C2060 0.950 . S
C2065 C2063 1.390 . S
C2065 C2066 1.387 . S
C2065 H2068 0.950 . S
C2066 C2065 1.387 . S
C2066 C2069 1.387 . S
H2067 C2063 0.950 . S
H2068 C2065 0.950 . S
C2069 C2060 1.390 . S
C2069 H2062 0.950 . S
C2069 C2066 1.387 . S
C2070 C2071 1.387 . S
C2070 H2074 0.950 . S
C2070 C2079 1.390 1_556 S
C2071 C2070 1.387 . S
C2071 C2073 1.387 1_556 S
H2072 C2079 0.950 . S
C2073 C2071 1.387 1_554 S
C2073 C2075 1.390 . S
C2073 H2077 0.950 . S
H2074 C2070 0.950 . S
C2075 C2073 1.390 . S
C2075 C2076 1.387 . S
C2075 H2078 0.950 . S
C2076 C2075 1.387 . S
C2076 C2079 1.387 . S
H2077 C2073 0.950 . S
H2078 C2075 0.950 . S
C2079 C2070 1.390 1_554 S
C2079 H2072 0.950 . S
C2079 C2076 1.387 . S
C2080 C2081 1.387 . S
C2080 H2084 0.950 . S
C2080 C2089 1.390 . S
C2081 C2080 1.387 . S
C2081 C2083 1.387 . S
H2082 C2089 0.950 . S
C2083 C2081 1.387 . S
C2083 C2085 1.390 . S
C2083 H2087 0.950 . S
H2084 C2080 0.950 . S
C2085 C2083 1.390 . S
C2085 C2086 1.387 . S
C2085 H2088 0.950 . S
C2086 C2085 1.387 . S
C2086 C2089 1.387 . S
H2087 C2083 0.950 . S
H2088 C2085 0.950 . S
C2089 C2080 1.390 . S
C2089 H2082 0.950 . S
C2089 C2086 1.387 . S
C2090 C2091 1.387 . S
C2090 H2094 0.950 . S
C2090 C2099 1.390 1_556 S
C2091 C2090 1.387 . S
C2091 C2093 1.387 . S
H2092 C2099 0.950 . S
C2093 C2091 1.387 . S
C2093 C2095 1.390 1_556 S
C2093 H2097 0.950 . S
H2094 C2090 0.950 . S
C2095 C2093 1.390 1_554 S
C2095 C2096 1.387 . S
C2095 H2098 0.950 . S
C2096 C2095 1.387 . S
C2096 C2099 1.387 . S
H2097 C2093 0.950 . S
H2098 C2095 0.950 . S
C2099 C2090 1.390 1_554 S
C2099 H2092 0.950 . S
C2099 C2096 1.387 . S
C2100 C2101 1.387 . S
C2100 H2104 0.950 . S
C2100 C2109 1.390 . S
C2101 C2100 1.387 . S
C2101 C2103 1.387 . S
H2102 C2109 0.950 . S
C2103 C2101 1.387 . S
C2103 C2105 1.390 . S
C2103 H2107 0.950 . S
H2104 C2100 0.950 . S
C2105 C2103 1.390 . S
C2105 C2106 1.387 . S
C2105 H2108 0.950 . S
C2106 C2105 1.387 . S
C2106 C2109 1.387 . S
H2107 C2103 0.950 . S
H2108 C2105 0.950 . S
C2109 C2100 1.390 . S
C2109 H2102 0.950 . S
C2109 C2106 1.387 . S
C2110 C2111 1.387 . S
C2110 H2114 0.950 . S
C2110 C2119 1.390 . S
C2111 C2110 1.387 . S
C2111 C2113 1.387 . S
H2112 C2119 0.950 . S
C2113 C2111 1.387 . S
C2113 C2115 1.390 . S
C2113 H2117 0.950 . S
H2114 C2110 0.950 . S
C2115 C2113 1.390 . S
C2115 C2116 1.387 . S
C2115 H2118 0.950 . S
C2116 C2115 1.387 . S
C2116 C2119 1.387 . S
H2117 C2113 0.950 . S
H2118 C2115 0.950 . S
C2119 C2110 1.390 . S
C2119 H2112 0.950 . S
C2119 C2116 1.387 . S
C2120 C2121 1.387 . S
C2120 H2124 0.950 . S
C2120 C2129 1.390 . S
C2121 C2120 1.387 . S
C2121 C2123 1.387 . S
H2122 C2129 0.950 . S
C2123 C2121 1.387 . S
C2123 C2125 1.390 . S
C2123 H2127 0.950 . S
H2124 C2120 0.950 . S
C2125 C2123 1.390 . S
C2125 C2126 1.387 . S
C2125 H2128 0.950 . S
C2126 C2125 1.387 . S
C2126 C2129 1.387 . S
H2127 C2123 0.950 . S
H2128 C2125 0.950 . S
C2129 C2120 1.390 . S
C2129 H2122 0.950 . S
C2129 C2126 1.387 . S
C2130 C2131 1.387 . S
C2130 H2134 0.950 . S
C2130 C2139 1.390 . S
C2131 C2130 1.387 . S
C2131 C2133 1.387 . S
H2132 C2139 0.950 . S
C2133 C2131 1.387 . S
C2133 C2135 1.390 . S
C2133 H2137 0.950 . S
H2134 C2130 0.950 . S
C2135 C2133 1.390 . S
C2135 C2136 1.387 . S
C2135 H2138 0.950 . S
C2136 C2135 1.387 . S
C2136 C2139 1.387 . S
H2137 C2133 0.950 . S
H2138 C2135 0.950 . S
C2139 C2130 1.390 . S
C2139 H2132 0.950 . S
C2139 C2136 1.387 . S
C2140 C2141 1.387 . S
C2140 H2144 0.950 1_554 S
C2140 C2149 1.390 . S
C2141 C2140 1.387 . S
C2141 C2143 1.387 . S
H2142 C2149 0.950 . S
C2143 C2141 1.387 . S
C2143 C2145 1.390 . S
C2143 H2147 0.950 . S
H2144 C2140 0.950 1_556 S
C2145 C2143 1.390 . S
C2145 C2146 1.387 . S
C2145 H2148 0.950 . S
C2146 C2145 1.387 . S
C2146 C2149 1.387 . S
H2147 C2143 0.950 . S
H2148 C2145 0.950 . S
C2149 C2140 1.390 . S
C2149 H2142 0.950 . S
C2149 C2146 1.387 . S
C2150 C2151 1.387 . S
C2150 H2154 0.950 . S
C2150 C2159 1.390 . S
C2151 C2150 1.387 . S
C2151 C2153 1.387 . S
H2152 C2159 0.950 . S
C2153 C2151 1.387 . S
C2153 C2155 1.390 . S
C2153 H2157 0.950 . S
H2154 C2150 0.950 . S
C2155 C2153 1.390 . S
C2155 C2156 1.387 . S
C2155 H2158 0.950 . S
C2156 C2155 1.387 . S
C2156 C2159 1.387 . S
H2157 C2153 0.950 . S
H2158 C2155 0.950 . S
C2159 C2150 1.390 . S
C2159 H2152 0.950 . S
C2159 C2156 1.387 . S
C2160 C2161 1.387 1_545 S
C2160 H2164 0.950 . S
C2160 C2169 1.390 . S
C2161 C2160 1.387 1_565 S
C2161 C2163 1.387 . S
H2162 C2169 0.950 . S
C2163 C2161 1.387 . S
C2163 C2165 1.390 . S
C2163 H2167 0.950 . S
H2164 C2160 0.950 . S
C2165 C2163 1.390 . S
C2165 C2166 1.387 1_565 S
C2165 H2168 0.950 . S
C2166 C2165 1.387 1_545 S
C2166 C2169 1.387 . S
H2167 C2163 0.950 . S
H2168 C2165 0.950 . S
C2169 C2160 1.390 . S
C2169 H2162 0.950 . S
C2169 C2166 1.387 . S
C2170 C2171 1.387 . S
C2170 H2174 0.950 . S
C2170 C2179 1.390 . S
C2171 C2170 1.387 . S
C2171 C2173 1.387 . S
H2172 C2179 0.950 . S
C2173 C2171 1.387 . S
C2173 C2175 1.390 . S
C2173 H2177 0.950 . S
H2174 C2170 0.950 . S
C2175 C2173 1.390 . S
C2175 C2176 1.387 . S
C2175 H2178 0.950 . S
C2176 C2175 1.387 . S
C2176 C2179 1.387 . S
H2177 C2173 0.950 . S
H2178 C2175 0.950 . S
C2179 C2170 1.390 . S
C2179 H2172 0.950 . S
C2179 C2176 1.387 . S
C2180 C2181 1.387 . S
C2180 H2184 0.950 . S
C2180 C2189 1.390 . S
C2181 C2180 1.387 . S
C2181 C2183 1.387 . S
H2182 C2189 0.950 . S
C2183 C2181 1.387 . S
C2183 C2185 1.390 . S
C2183 H2187 0.950 . S
H2184 C2180 0.950 . S
C2185 C2183 1.390 . S
C2185 C2186 1.387 . S
C2185 H2188 0.950 . S
C2186 C2185 1.387 . S
C2186 C2189 1.387 . S
H2187 C2183 0.950 . S
H2188 C2185 0.950 . S
C2189 C2180 1.390 . S
C2189 H2182 0.950 . S
C2189 C2186 1.387 . S
C2190 C2191 1.387 . S
C2190 H2194 0.950 . S
C2190 C2199 1.390 . S
C2191 C2190 1.387 . S
C2191 C2193 1.387 . S
H2192 C2199 0.950 . S
C2193 C2191 1.387 . S
C2193 C2195 1.390 . S
C2193 H2197 0.950 . S
H2194 C2190 0.950 . S
C2195 C2193 1.390 . S
C2195 C2196 1.387 . S
C2195 H2198 0.950 . S
C2196 C2195 1.387 . S
C2196 C2199 1.387 . S
H2197 C2193 0.950 . S
H2198 C2195 0.950 . S
C2199 C2190 1.390 . S
C2199 H2192 0.950 . S
C2199 C2196 1.387 . S
C2200 C2201 1.387 . S
C2200 H2204 0.950 . S
C2200 C2209 1.390 . S
C2201 C2200 1.387 . S
C2201 C2203 1.387 1_565 S
H2202 C2209 0.950 . S
C2203 C2201 1.387 1_545 S
C2203 C2205 1.390 . S
C2203 H2207 0.950 . S
H2204 C2200 0.950 . S
C2205 C2203 1.390 . S
C2205 C2206 1.387 . S
C2205 H2208 0.950 . S
C2206 C2205 1.387 . S
C2206 C2209 1.387 1_545 S
H2207 C2203 0.950 . S
H2208 C2205 0.950 . S
C2209 C2200 1.390 . S
C2209 H2202 0.950 . S
C2209 C2206 1.387 1_565 S
C2210 C2211 1.387 . S
C2210 H2214 0.950 . S
C2210 C2219 1.390 . S
C2211 C2210 1.387 . S
C2211 C2213 1.387 . S
H2212 C2219 0.950 . S
C2213 C2211 1.387 . S
C2213 C2215 1.390 . S
C2213 H2217 0.950 . S
H2214 C2210 0.950 . S
C2215 C2213 1.390 . S
C2215 C2216 1.387 . S
C2215 H2218 0.950 . S
C2216 C2215 1.387 . S
C2216 C2219 1.387 . S
H2217 C2213 0.950 . S
H2218 C2215 0.950 . S
C2219 C2210 1.390 . S
C2219 H2212 0.950 . S
C2219 C2216 1.387 . S
C2220 C2221 1.387 . S
C2220 H2224 0.950 . S
C2220 C2229 1.390 . S
C2221 C2220 1.387 . S
C2221 C2223 1.387 . S
H2222 C2229 0.950 . S
C2223 C2221 1.387 . S
C2223 C2225 1.390 . S
C2223 H2227 0.950 . S
H2224 C2220 0.950 . S
C2225 C2223 1.390 . S
C2225 C2226 1.387 . S
C2225 H2228 0.950 . S
C2226 C2225 1.387 . S
C2226 C2229 1.387 . S
H2227 C2223 0.950 . S
H2228 C2225 0.950 . S
C2229 C2220 1.390 . S
C2229 H2222 0.950 . S
C2229 C2226 1.387 . S
C2230 C2231 1.387 . S
C2230 H2234 0.950 . S
C2230 C2239 1.390 . S
C2231 C2230 1.387 . S
C2231 C2233 1.387 . S
H2232 C2239 0.950 . S
C2233 C2231 1.387 . S
C2233 C2235 1.390 . S
C2233 H2237 0.950 . S
H2234 C2230 0.950 . S
C2235 C2233 1.390 . S
C2235 C2236 1.387 . S
C2235 H2238 0.950 . S
C2236 C2235 1.387 . S
C2236 C2239 1.387 . S
H2237 C2233 0.950 . S
H2238 C2235 0.950 . S
C2239 C2230 1.390 . S
C2239 H2232 0.950 . S
C2239 C2236 1.387 . S
C1281 C10 0.390 . S
C1286 C175 0.328 . S
C1291 C215 0.401 . S
C1296 C50 0.405 . S
C1301 C90 0.370 . S
C1306 C255 0.485 . S
C1311 C295 0.464 . S
C1316 C135 0.558 . S
C1321 C339 0.390 . S
C1326 C486 0.330 . S
C1331 C379 0.404 . S
C1336 C526 0.405 . S
C1341 C566 0.484 . S
C1346 C419 0.370 . S
C1351 C446 0.550 . S
C1356 C606 0.453 . S
C1361 C815 0.330 . S
C1366 C650 0.381 . S
C1371 C690 0.403 . S
C1376 C855 0.405 . S
C1381 C730 0.370 . S
C1386 C895 0.485 . S
C1391 C775 0.553 . S
C1396 C935 0.463 . S
C1401 C979 0.390 . S
C1406 C1126 0.330 . S
C1411 C1166 0.400 . S
C1416 C1019 0.406 . S
C1421 C1059 0.370 . S
C1426 C1206 0.476 . S
C1431 C1246 0.453 . S
C1436 C1086 0.549 . S
C1441 C849 2.426 . S
C1446 C18 2.354 . S
C1451 C889 1.862 . S
C1456 C58 1.823 . S
C1461 C929 2.596 . S
C1466 C98 2.565 . S
C1471 C129 1.693 . S
C1476 C809 1.710 1_556 S
C1481 C169 1.710 . S
C1486 C769 1.697 . S
C1491 C658 2.354 . S
C1496 C209 2.426 . S
C1501 C249 1.863 1_556 S
C1506 C698 1.824 . S
C1511 C289 2.597 . S
C1516 C738 2.566 . S
C1521 C329 2.355 . S
C1526 C1178 2.426 . S
C1531 C1218 1.862 . S
C1536 C369 1.822 . S
C1541 C1258 2.598 . S
C1546 C409 2.567 . S
C1551 C458 1.694 . S
C1556 C1138 1.708 . S
C1561 C498 1.710 . S
C1566 C1098 1.697 . S
C1571 C538 2.427 . S
C1576 C969 2.355 . S
C1581 C578 1.864 . S
C1586 C1009 1.824 . S
C1591 C618 2.598 . S
C1596 C1049 2.568 . S
C1601 C338 1.587 . S
C1606 C9 1.587 . S
C1611 C49 1.512 . S
C1616 C1018 1.512 . S
C1621 C418 1.422 . S
C1626 C89 1.422 . S
C1631 C138 1.425 . S
C1636 C1089 1.425 . S
C1641 C489 1.456 . S
C1646 C178 1.456 . S
C1651 C1169 1.627 . S
C1656 C218 1.627 . S
C1661 C258 1.609 . S
C1666 C569 1.609 . S
C1671 C298 1.373 . S
C1676 C1249 1.373 . S
C1681 C689 1.514 . S
C1686 C378 1.513 . S
C1691 C778 1.426 . S
C1696 C449 1.426 . S
C1701 C529 1.627 . S
C1706 C858 1.627 . S
C1711 C938 1.376 . S
C1716 C609 1.376 . S
C1721 C978 1.591 . S
C1726 C649 1.591 . S
C1731 C1058 1.422 . S
C1736 C729 1.422 . S
C1741 C1129 1.460 . S
C1746 C818 1.461 . S
C1751 C898 1.606 . S
C1756 C1209 1.606 . S
C1761 C19 2.335 1_556 S
C1766 C490 2.395 . S
C1771 C1170 2.069 . S
C1776 C59 2.010 . S
C1781 C570 2.395 . S
C1786 C99 2.329 . S
C1791 C126 1.357 . S
C1796 C1250 1.430 . S
C1801 C335 0.953 1_455 S
C1806 C166 0.939 . S
C1811 C1015 1.095 . S
C1816 C206 1.084 . S
C1821 C415 0.830 . S
C1826 C246 0.827 . S
C1831 C1090 1.724 . S
C1836 C286 1.651 . S
C1841 C179 2.395 . S
C1846 C330 2.335 . S
C1851 C859 2.068 . S
C1856 C370 2.009 . S
C1861 C259 2.396 . S
C1866 C410 2.330 . S
C1871 C455 1.356 . S
C1876 C939 1.429 . S
C1881 C6 0.956 1_655 S
C1886 C495 0.944 . S
C1891 C686 1.097 . S
C1896 C535 1.088 . S
C1901 C575 0.821 1_556 S
C1906 C86 0.827 . S
C1911 C615 1.649 . S
C1916 C779 1.724 . S
C1921 C1130 2.395 . S
C1926 C659 2.335 . S
C1931 C530 2.069 . S
C1936 C699 2.010 . S
C1941 C739 2.329 1_556 S
C1946 C1210 2.396 . S
C1951 C610 1.429 . S
C1956 C766 1.359 . S
C1961 C806 0.940 . S
C1966 C975 0.953 . S
C1971 C846 1.085 . S
C1976 C375 1.095 . S
C1981 C1055 0.829 . S
C1986 C886 0.827 . S
C1991 C450 1.724 . S
C1996 C926 1.649 . S
C2001 C970 2.335 . S
C2006 C819 2.395 . S
C2011 C1010 2.010 . S
C2016 C219 2.069 . S
C2021 C1050 2.330 . S
C2026 C899 2.396 . S
C2031 C1095 1.358 . S
C2036 C299 1.430 . S
C2041 C646 0.953 . S
C2046 C1135 0.939 . S
C2051 C46 1.095 . S
C2056 C1175 1.084 . S
C2061 C1215 0.821 . S
C2066 C726 0.827 . S
C2071 C139 1.725 . S
C2076 C1255 1.653 . S
C2081 C170 2.321 . S
C2086 C15 2.260 . S
C2091 C210 2.217 . S
C2096 C55 2.195 . S
C2101 C95 2.226 . S
C2106 C250 2.272 . S
C2111 C290 3.127 . S
C2116 C130 3.141 . S
C2121 C499 2.321 . S
C2126 C326 2.258 . S
C2131 C366 2.195 . S
C2136 C539 2.217 . S
C2141 C406 2.228 1_554 S
C2146 C579 2.273 . S
C2151 C619 3.127 . S
C2156 C459 3.141 . S
C2161 C655 2.258 . S
C2166 C810 2.321 . S
C2171 C850 2.218 . S
C2176 C695 2.196 . S
C2181 C735 2.227 . S
C2186 C890 2.273 1_545 S
C2191 C770 3.142 . S
C2196 C930 3.138 . S
C2201 C1139 2.321 . S
C2206 C966 2.260 1_554 S
C2211 C1179 2.217 . S
C2216 C1006 2.196 . S
C2221 C1046 2.226 . S
C2226 C1219 2.273 1_565 S
C2231 C1259 3.128 . S
C2236 C1099 3.142 . S
