# Generated by pormake.
# Topology uoq, (4)-cn, num edge types: 1
# Building blocks:
#     Node 0, Type 0, BuildingBlock: NAHDIM_clean_sbu_0, # of connection points: 4
#     Node 1, Type 0, BuildingBlock: NAHDIM_clean_sbu_0, # of connection points: 4
#     Node 2, Type 0, BuildingBlock: NAHDIM_clean_sbu_0, # of connection points: 4
#     Node 3, Type 0, BuildingBlock: NAHDIM_clean_sbu_0, # of connection points: 4
#     Node 4, Type 0, BuildingBlock: NAHDIM_clean_sbu_0, # of connection points: 4
#     Node 5, Type 0, BuildingBlock: NAHDIM_clean_sbu_0, # of connection points: 4
#     Node 6, Type 0, BuildingBlock: NAHDIM_clean_sbu_0, # of connection points: 4
#     Node 7, Type 0, BuildingBlock: NAHDIM_clean_sbu_0, # of connection points: 4
#     Node 8, Type 0, BuildingBlock: NAHDIM_clean_sbu_0, # of connection points: 4
#     Node 9, Type 0, BuildingBlock: NAHDIM_clean_sbu_0, # of connection points: 4
#     Node 10, Type 0, BuildingBlock: NAHDIM_clean_sbu_0, # of connection points: 4
#     Node 11, Type 0, BuildingBlock: NAHDIM_clean_sbu_0, # of connection points: 4
#     Edge 12, Type (0, 0), BuildingBlock: TEMPAE_clean_linker_10, # of connection points: 2
#     Edge 13, Type (0, 0), BuildingBlock: TEMPAE_clean_linker_10, # of connection points: 2
#     Edge 14, Type (0, 0), BuildingBlock: TEMPAE_clean_linker_10, # of connection points: 2
#     Edge 15, Type (0, 0), BuildingBlock: TEMPAE_clean_linker_10, # of connection points: 2
#     Edge 16, Type (0, 0), BuildingBlock: TEMPAE_clean_linker_10, # of connection points: 2
#     Edge 17, Type (0, 0), BuildingBlock: TEMPAE_clean_linker_10, # of connection points: 2
#     Edge 18, Type (0, 0), BuildingBlock: TEMPAE_clean_linker_10, # of connection points: 2
#     Edge 19, Type (0, 0), BuildingBlock: TEMPAE_clean_linker_10, # of connection points: 2
#     Edge 20, Type (0, 0), BuildingBlock: TEMPAE_clean_linker_10, # of connection points: 2
#     Edge 21, Type (0, 0), BuildingBlock: TEMPAE_clean_linker_10, # of connection points: 2
#     Edge 22, Type (0, 0), BuildingBlock: TEMPAE_clean_linker_10, # of connection points: 2
#     Edge 23, Type (0, 0), BuildingBlock: TEMPAE_clean_linker_10, # of connection points: 2
#     Edge 24, Type (0, 0), BuildingBlock: TEMPAE_clean_linker_10, # of connection points: 2
#     Edge 25, Type (0, 0), BuildingBlock: TEMPAE_clean_linker_10, # of connection points: 2
#     Edge 26, Type (0, 0), BuildingBlock: TEMPAE_clean_linker_10, # of connection points: 2
#     Edge 27, Type (0, 0), BuildingBlock: TEMPAE_clean_linker_10, # of connection points: 2
#     Edge 28, Type (0, 0), BuildingBlock: TEMPAE_clean_linker_10, # of connection points: 2
#     Edge 29, Type (0, 0), BuildingBlock: TEMPAE_clean_linker_10, # of connection points: 2
#     Edge 30, Type (0, 0), BuildingBlock: TEMPAE_clean_linker_10, # of connection points: 2
#     Edge 31, Type (0, 0), BuildingBlock: TEMPAE_clean_linker_10, # of connection points: 2
#     Edge 32, Type (0, 0), BuildingBlock: TEMPAE_clean_linker_10, # of connection points: 2
#     Edge 33, Type (0, 0), BuildingBlock: TEMPAE_clean_linker_10, # of connection points: 2
#     Edge 34, Type (0, 0), BuildingBlock: TEMPAE_clean_linker_10, # of connection points: 2
#     Edge 35, Type (0, 0), BuildingBlock: TEMPAE_clean_linker_10, # of connection points: 2
# Relax obj value: 0.070
# Max RMSD: 0.071
# Mean RMSD: 0.071
data_MOF--net-uoq--node1-NAHDIM_clean_sbu_0--edge1-TEMPAE_clean_linker_10
_symmetry_space_group_name_H-M    P1
_symmetry_Int_Tables_number       1
_symmetry_cell_setting            triclinic
loop_
_symmetry_equiv_pos_as_xyz
'x, y, z'
_cell_length_a     59.224998
_cell_length_b     59.191929
_cell_length_c     24.166931
_cell_angle_alpha  90.03121
_cell_angle_beta   89.974857
_cell_angle_gamma 120.05046
loop_
_atom_site_label
_atom_site_type_symbol
_atom_site_fract_x
_atom_site_fract_y
_atom_site_fract_z
_atom_type_partial_charge
C0 C 0.27659 0.46291 0.18121 0.0
O1 O 0.2782 0.47873 0.22116 0.0
O2 O 0.33884 0.49129 0.26133 0.0
Zn3 Zn 0.30824 0.45451 0.25719 0.0
O4 O 0.28547 0.44775 0.32363 0.0
C5 C 0.33726 0.43367 0.30183 0.0
O6 O 0.3422 0.45266 0.33667 0.0
O7 O 0.28804 0.44976 0.18712 0.0
C8 C 0.26233 0.42877 0.32832 0.0
O9 O 0.25173 0.41231 0.28703 0.0
C10 C 0.3397 0.50769 0.29652 0.0
O11 O 0.31965 0.50095 0.3294 0.0
O12 O 0.32223 0.42993 0.26106 0.0
C13 C 0.83726 0.28666 0.47385 0.0
O14 O 0.83888 0.30957 0.47763 0.0
O15 O 0.84796 0.32616 0.59283 0.0
Zn16 Zn 0.85572 0.29668 0.58744 0.0
O17 O 0.83573 0.27062 0.64636 0.0
C18 C 0.90339 0.32579 0.64294 0.0
O19 O 0.88769 0.32957 0.67512 0.0
O20 O 0.84424 0.27807 0.51465 0.0
C21 C 0.84086 0.25344 0.66364 0.0
O22 O 0.86089 0.25249 0.64301 0.0
C23 C 0.82912 0.32416 0.62182 0.0
O24 O 0.8135 0.30192 0.64652 0.0
O25 O 0.89401 0.31141 0.60042 0.0
C26 C 0.53462 0.82436 0.81881 0.0
O27 O 0.51705 0.80917 0.85519 0.0
O28 O 0.50932 0.85002 0.92097 0.0
Zn29 Zn 0.54594 0.85698 0.90955 0.0
O30 O 0.55193 0.8336 0.95952 0.0
C31 C 0.57434 0.89995 0.98092 0.0
O32 O 0.56287 0.88103 0.01727 0.0
O33 O 0.55033 0.84798 0.83181 0.0
C34 C 0.57428 0.83669 0.97016 0.0
O35 O 0.59505 0.85614 0.94725 0.0
C36 C 0.49677 0.83897 0.96484 0.0
O37 O 0.50776 0.83161 0.00244 0.0
O38 O 0.57059 0.89448 0.92963 0.0
C39 C 0.72564 0.54606 0.17921 0.0
O40 O 0.72775 0.53505 0.22458 0.0
O41 O 0.66198 0.51765 0.26049 0.0
Zn42 Zn 0.69265 0.55396 0.25098 0.0
O43 O 0.71713 0.56164 0.31458 0.0
C44 C 0.6928 0.60143 0.27705 0.0
O45 O 0.71678 0.60903 0.29282 0.0
O46 O 0.71124 0.55633 0.17971 0.0
C47 C 0.70927 0.56139 0.36359 0.0
O48 O 0.68514 0.55609 0.37152 0.0
C49 C 0.66385 0.49991 0.28622 0.0
O50 O 0.68662 0.50507 0.30583 0.0
O51 O 0.67934 0.57918 0.25447 0.0
C52 C 0.17386 0.72218 0.49637 0.0
O53 O 0.18809 0.72155 0.53739 0.0
O54 O 0.14493 0.6652 0.58691 0.0
Zn55 Zn 0.13481 0.69273 0.57456 0.0
O56 O 0.1501 0.71969 0.63449 0.0
C57 C 0.08224 0.65393 0.60012 0.0
O58 O 0.09424 0.64213 0.62014 0.0
O59 O 0.14923 0.71055 0.50194 0.0
C60 C 0.14103 0.71472 0.68339 0.0
O61 O 0.12108 0.69156 0.69454 0.0
C62 C 0.16241 0.66769 0.62095 0.0
O63 O 0.17578 0.68972 0.64816 0.0
O64 O 0.09562 0.67607 0.57702 0.0
C65 C 0.42623 0.16588 0.83956 0.0
O66 O 0.41027 0.16131 0.88128 0.0
O67 O 0.48541 0.15272 0.92397 0.0
Zn68 Zn 0.44853 0.14609 0.91675 0.0
O69 O 0.44139 0.16455 0.97835 0.0
C70 C 0.42739 0.09432 0.95839 0.0
O71 O 0.44732 0.10663 0.99202 0.0
O72 O 0.44427 0.16032 0.84446 0.0
C73 C 0.42187 0.15351 0.01061 0.0
O74 O 0.40491 0.12859 0.00426 0.0
C75 C 0.49672 0.15828 0.97082 0.0
O76 O 0.48467 0.16089 0.01387 0.0
O77 O 0.42353 0.10725 0.92133 0.0
C78 C 0.54953 0.74055 0.46812 0.0
O79 O 0.53799 0.74139 0.42238 0.0
O80 O 0.52573 0.67665 0.38787 0.0
Zn81 Zn 0.56076 0.70915 0.39826 0.0
O82 O 0.56766 0.7332 0.33442 0.0
C83 C 0.58591 0.67839 0.41435 0.0
O84 O 0.56436 0.66234 0.44082 0.0
O85 O 0.56118 0.72742 0.46864 0.0
C86 C 0.5734 0.72768 0.28761 0.0
O87 O 0.57459 0.70621 0.28222 0.0
C88 C 0.508 0.67673 0.35836 0.0
O89 O 0.51243 0.69862 0.33503 0.0
O90 O 0.58884 0.69977 0.39602 0.0
C91 C 0.80869 0.53139 0.82712 0.0
O92 O 0.79372 0.51401 0.79019 0.0
O93 O 0.83938 0.50459 0.73499 0.0
Zn94 Zn 0.84447 0.54082 0.74211 0.0
O95 O 0.82289 0.54554 0.68489 0.0
C96 C 0.88992 0.56608 0.67855 0.0
O97 O 0.87299 0.55003 0.64215 0.0
O98 O 0.83281 0.5459 0.81659 0.0
C99 C 0.8232 0.56684 0.67638 0.0
O100 O 0.83861 0.58747 0.70619 0.0
C101 C 0.82259 0.48784 0.70203 0.0
O102 O 0.80736 0.49384 0.67389 0.0
O103 O 0.88215 0.56639 0.72743 0.0
C104 C 0.2628 0.81386 0.1428 0.0
O105 O 0.2634 0.7998 0.10134 0.0
O106 O 0.32481 0.84845 0.06159 0.0
Zn107 Zn 0.29318 0.85264 0.0656 0.0
O108 O 0.26908 0.83235 0.00383 0.0
C109 C 0.31802 0.90015 0.01036 0.0
O110 O 0.32085 0.88457 0.97585 0.0
O111 O 0.2747 0.83856 0.13791 0.0
C112 C 0.24977 0.8347 0.9893 0.0
O113 O 0.24519 0.85152 0.01516 0.0
C114 C 0.32478 0.82976 0.03559 0.0
O115 O 0.30312 0.81186 0.01224 0.0
O116 O 0.30545 0.89066 0.05502 0.0
C117 C 0.42352 0.26062 0.49563 0.0
O118 O 0.40741 0.24833 0.45464 0.0
O119 O 0.48425 0.3298 0.40537 0.0
Zn120 Zn 0.44695 0.3006 0.41355 0.0
O121 O 0.43918 0.27337 0.35538 0.0
C122 C 0.42872 0.33089 0.36113 0.0
O123 O 0.44779 0.33459 0.32773 0.0
O124 O 0.44186 0.28395 0.48837 0.0
C125 C 0.41934 0.26376 0.32389 0.0
O126 O 0.40206 0.27134 0.32916 0.0
C127 C 0.49837 0.33093 0.36459 0.0
O128 O 0.48891 0.31195 0.32804 0.0
O129 O 0.42386 0.31614 0.40298 0.0
C130 C 0.18797 0.46188 0.82392 0.0
O131 O 0.20211 0.4777 0.78393 0.0
O132 O 0.15349 0.48902 0.74173 0.0
Zn133 Zn 0.14763 0.45244 0.74748 0.0
O134 O 0.16364 0.44569 0.68108 0.0
C135 C 0.09756 0.43062 0.70304 0.0
O136 O 0.1114 0.44925 0.66735 0.0
O137 O 0.16339 0.44836 0.81781 0.0
C138 C 0.16856 0.42721 0.67647 0.0
O139 O 0.16343 0.41104 0.71801 0.0
C140 C 0.17102 0.50599 0.71033 0.0
O141 O 0.18652 0.49997 0.68324 0.0
O142 O 0.10907 0.42752 0.74424 0.0
C143 C 0.74241 0.16952 0.15084 0.0
O144 O 0.75493 0.16604 0.10985 0.0
O145 O 0.67035 0.14946 0.06113 0.0
Zn146 Zn 0.6995 0.14211 0.07674 0.0
O147 O 0.72503 0.15702 0.01437 0.0
C148 C 0.66338 0.08776 0.10023 0.0
O149 O 0.64962 0.09715 0.12297 0.0
O150 O 0.71789 0.16008 0.14705 0.0
C151 C 0.72382 0.14424 0.97116 0.0
O152 O 0.70481 0.11999 0.96585 0.0
C153 C 0.65256 0.13563 0.02651 0.0
O154 O 0.6532 0.11629 0.00129 0.0
O155 O 0.68568 0.10345 0.0802 0.0
C156 C 0.36919 0.42449 0.34932 0.0
C157 C 0.34934 0.41729 0.30996 0.0
C158 C 0.38124 0.40953 0.35725 0.0
C159 C 0.37306 0.38665 0.32544 0.0
C160 C 0.3528 0.37905 0.28612 0.0
C161 C 0.34126 0.39456 0.27861 0.0
C162 C 0.40297 0.41842 0.39917 0.0
C163 C 0.34344 0.35463 0.25184 0.0
C164 C 0.42188 0.36347 0.30948 0.0
C165 C 0.41366 0.3442 0.35055 0.0
C166 C 0.40854 0.3771 0.30022 0.0
C167 C 0.3863 0.37116 0.33247 0.0
C168 C 0.3775 0.35129 0.37308 0.0
C169 C 0.39137 0.33812 0.38184 0.0
C170 C 0.41864 0.39831 0.25684 0.0
C171 C 0.3537 0.34428 0.40788 0.0
H172 H 0.3756 0.44207 0.37359 0.0
H173 H 0.32584 0.38882 0.24833 0.0
H174 H 0.39802 0.40291 0.43043 0.0
H175 H 0.42118 0.42202 0.37833 0.0
H176 H 0.40684 0.43655 0.42092 0.0
H177 H 0.3269 0.35096 0.22439 0.0
H178 H 0.35964 0.35626 0.22588 0.0
H179 H 0.33718 0.33748 0.27929 0.0
H180 H 0.43909 0.36829 0.28514 0.0
H181 H 0.38482 0.32313 0.41341 0.0
H182 H 0.4245 0.41738 0.27668 0.0
H183 H 0.40303 0.39448 0.22661 0.0
H184 H 0.43569 0.39994 0.23404 0.0
H185 H 0.35723 0.36123 0.43377 0.0
H186 H 0.34856 0.32738 0.43549 0.0
H187 H 0.33675 0.33955 0.38088 0.0
C188 C 0.94252 0.35912 0.69439 0.0
C189 C 0.93168 0.33918 0.65467 0.0
C190 C 0.96948 0.37305 0.70401 0.0
C191 C 0.98596 0.36668 0.67363 0.0
C192 C 0.97508 0.34605 0.63465 0.0
C193 C 0.94805 0.33263 0.62538 0.0
C194 C 0.98039 0.3951 0.74552 0.0
C195 C 0.99205 0.33853 0.60195 0.0
C196 C 0.05627 0.4201 0.65446 0.0
C197 C 0.06908 0.41389 0.69534 0.0
C198 C 0.02925 0.40479 0.64682 0.0
C199 C 0.0147 0.38257 0.68055 0.0
C200 C 0.02752 0.37597 0.72147 0.0
C201 C 0.05458 0.39181 0.72858 0.0
C202 C 0.01624 0.41258 0.60308 0.0
C203 C 0.01262 0.35228 0.75785 0.0
H204 H 0.92999 0.36431 0.71714 0.0
H205 H 0.93977 0.31711 0.59491 0.0
H206 H 0.99233 0.39209 0.7768 0.0
H207 H 0.99341 0.41381 0.72421 0.0
H208 H 0.96484 0.39691 0.76726 0.0
H209 H 0.98041 0.32096 0.57592 0.0
H210 H 0.00532 0.35493 0.57467 0.0
H211 H 0.00444 0.33464 0.63033 0.0
H212 H 0.06732 0.43716 0.62867 0.0
H213 H 0.06438 0.38683 0.76008 0.0
H214 H 0.00148 0.41638 0.62253 0.0
H215 H 0.00582 0.39642 0.57306 0.0
H216 H 0.03039 0.43033 0.58006 0.0
H217 H -0.00205 0.35428 0.78264 0.0
H218 H 0.0256 0.34937 0.78653 0.0
H219 H 0.00185 0.33454 0.73191 0.0
C220 C 0.59638 0.94797 0.96311 0.0
C221 C 0.58984 0.9273 -9e-05 0.0
C222 C 0.6093 0.97391 0.98172 0.0
C223 C 0.61613 0.97928 0.03831 0.0
C224 C 0.61034 0.95856 0.07528 0.0
C225 C 0.59712 0.93279 0.0557 0.0
C226 C 0.61499 0.99552 0.94113 0.0
C227 C 0.61768 0.96357 0.13571 0.0
C228 C 0.66718 0.04911 0.07261 0.0
C229 C 0.65162 0.05943 0.09025 0.0
C230 C 0.65596 0.02279 0.05733 0.0
C231 C 0.62852 0.00655 0.05899 0.0
C232 C 0.61277 0.01667 0.07826 0.0
C233 C 0.62454 0.04297 0.09407 0.0
C234 C 0.67341 0.01255 0.03792 0.0
C235 C 0.58341 -1e-05 0.08019 0.0
H236 H 0.59075 0.94386 0.91999 0.0
H237 H 0.59228 0.9169 0.0843 0.0
H238 H 0.60458 0.0059 0.95394 0.0
H239 H 0.63615 0.01004 0.94101 0.0
H240 H 0.60894 0.98812 0.8983 0.0
H241 H 0.61316 0.94544 0.1583 0.0
H242 H 0.63882 0.97778 0.14003 0.0
H243 H 0.60699 0.9723 0.15577 0.0
H244 H 0.68815 0.06173 0.06985 0.0
H245 H 0.61239 0.05085 0.10738 0.0
H246 H 0.66963 0.00712 0.99356 0.0
H247 H 0.66904 0.99467 0.06122 0.0
H248 H 0.69443 0.02715 0.04303 0.0
H249 H 0.57572 0.99356 0.03773 0.0
H250 H 0.57404 0.01056 0.09813 0.0
H251 H 0.57761 0.98217 0.10508 0.0
C252 C 0.691 0.63522 0.33579 0.0
C253 C 0.6801 0.61643 0.2937 0.0
C254 C 0.67752 0.64717 0.35712 0.0
C255 C 0.65277 0.64042 0.33523 0.0
C256 C 0.6422 0.62232 0.29112 0.0
C257 C 0.65592 0.6104 0.27113 0.0
C258 C 0.68929 0.66624 0.40446 0.0
C259 C 0.61605 0.61498 0.26605 0.0
C260 C 0.60291 0.64737 0.42092 0.0
C261 C 0.60489 0.67017 0.39876 0.0
C262 C 0.61909 0.63798 0.402 0.0
C263 C 0.63743 0.65157 0.3595 0.0
C264 C 0.64009 0.67503 0.33823 0.0
C265 C 0.62389 0.68414 0.35837 0.0
C266 C 0.616 0.61308 0.42625 0.0
C267 C 0.65926 0.68993 0.29258 0.0
H268 H 0.70961 0.63984 0.35369 0.0
H269 H 0.64748 0.59598 0.23842 0.0
H270 H 0.69009 0.68489 0.39416 0.0
H271 H 0.67681 0.65822 0.44173 0.0
H272 H 0.70929 0.67041 0.41486 0.0
H273 H 0.61131 0.60178 0.22985 0.0
H274 H 0.60048 0.60507 0.29753 0.0
H275 H 0.61576 0.63277 0.25272 0.0
H276 H 0.58837 0.63657 0.45232 0.0
H277 H 0.62552 0.70176 0.34087 0.0
H278 H 0.63517 0.61614 0.4403 0.0
H279 H 0.60863 0.59765 0.39404 0.0
H280 H 0.60224 0.60594 0.46177 0.0
H281 H 0.67911 0.69413 0.30423 0.0
H282 H 0.66004 0.70866 0.28293 0.0
H283 H 0.65367 0.67786 0.25447 0.0
C284 C 0.93616 0.59859 0.70278 0.0
C285 C 0.91784 0.58193 0.66377 0.0
C286 C 0.96291 0.61204 0.69052 0.0
C287 C 0.9715 0.60866 0.6381 0.0
C288 C 0.95305 0.59264 0.59786 0.0
C289 C 0.92643 0.5795 0.61115 0.0
C290 C 0.98205 0.62911 0.73436 0.0
C291 C 0.96148 0.58856 0.54153 0.0
C292 C 0.04109 0.65604 0.59346 0.0
C293 C 0.05375 0.64218 0.60761 0.0
C294 C 0.01426 0.64537 0.60294 0.0
C295 C -0.00018 0.62026 0.62687 0.0
C296 C 0.01243 0.60606 0.64051 0.0
C297 C 0.03923 0.6172 0.63079 0.0
C298 C 0.00142 0.66106 0.58797 0.0
C299 C -0.00236 0.57914 0.66582 0.0
H300 H 0.92966 0.60069 0.74341 0.0
H301 H 0.9124 0.56676 0.58065 0.0
H302 H 0.99405 0.62051 0.7477 0.0
H303 H 0.99556 0.64876 0.71734 0.0
H304 H 0.97214 0.63132 0.7713 0.0
H305 H 0.94465 0.57708 0.51355 0.0
H306 H 0.97472 0.60762 0.52175 0.0
H307 H 0.97252 0.57807 0.54603 0.0
H308 H 0.05221 0.67538 0.57566 0.0
H309 H 0.04883 0.60633 0.64172 0.0
H310 H 0.99294 0.6647 0.62556 0.0
H311 H 0.98513 0.64991 0.55864 0.0
H312 H 0.01531 0.68013 0.56889 0.0
H313 H 0.9889 0.58003 0.70579 0.0
H314 H 0.01029 0.57055 0.67328 0.0
H315 H 0.9814 0.56587 0.6382 0.0
C316 C 0.34872 0.93915 0.95498 0.0
C317 C 0.3311 0.9285 -0.00082 0.0
C318 C 0.36298 0.96617 0.94624 0.0
C319 C 0.35934 0.98294 0.98224 0.0
C320 C 0.34084 0.97228 0.02561 0.0
C321 C 0.32701 0.94515 0.03376 0.0
C322 C 0.3827 0.97682 0.89981 0.0
C323 C 0.33627 0.98958 0.06444 0.0
C324 C 0.41655 0.05147 -0.00037 0.0
C325 C 0.40968 0.0659 0.96448 0.0
C326 C 0.40023 0.0245 0.00599 0.0
C327 C 0.3763 0.01165 0.97688 0.0
C328 C 0.36906 0.02611 0.94177 0.0
C329 C 0.38593 0.0531 0.93573 0.0
C330 C 0.40875 0.00971 0.0434 0.0
C331 C 0.34358 0.01304 0.91047 0.0
H332 H 0.35199 0.92642 0.92801 0.0
H333 H 0.3133 0.93703 0.06776 0.0
H334 H 0.37921 0.99003 0.87321 0.0
H335 H 0.40262 0.98849 0.91728 0.0
H336 H 0.38208 0.96111 0.87355 0.0
H337 H 0.31967 0.97817 0.09303 0.0
H338 H 0.35406 0.00155 0.08947 0.0
H339 H 0.33232 0.00324 0.04059 0.0
H340 H 0.4349 0.06121 0.02188 0.0
H341 H 0.38045 0.06417 0.90874 0.0
H342 H 0.41033 0.99461 0.01925 0.0
H343 H 0.39397 -0.00052 0.0762 0.0
H344 H 0.42786 0.02267 0.06343 0.0
H345 H 0.34317 0.99824 0.88168 0.0
H346 H 0.34045 0.02719 0.88626 0.0
H347 H 0.32708 0.00264 0.93972 0.0
C348 C 0.1856 0.44311 0.91814 0.0
C349 C 0.20048 0.46048 0.87589 0.0
C350 C 0.19718 0.44219 0.96813 0.0
C351 C 0.22427 0.4591 0.9761 0.0
C352 C 0.23944 0.47645 0.93339 0.0
C353 C 0.22737 0.4769 0.88379 0.0
C354 C 0.18041 0.42335 0.01267 0.0
C355 C 0.26837 0.49482 0.9404 0.0
C356 C 0.25102 0.47681 0.12219 0.0
C357 C 0.26236 0.46113 0.1295 0.0
C358 C 0.23825 0.47606 0.07275 0.0
C359 C 0.23671 0.45917 0.02959 0.0
C360 C 0.24771 0.44296 0.037 0.0
C361 C 0.26044 0.44415 0.08686 0.0
C362 C 0.22678 0.49367 0.06637 0.0
C363 C 0.24636 0.42462 0.99197 0.0
H364 H 0.16481 0.4303 0.91233 0.0
H365 H 0.23904 0.49037 0.85139 0.0
H366 H 0.18826 0.41049 0.02443 0.0
H367 H 0.18081 0.43429 0.05029 0.0
H368 H 0.15981 0.41094 -0.00066 0.0
H369 H 0.27749 0.50673 0.90277 0.0
H370 H 0.27187 0.50819 0.97568 0.0
H371 H 0.27829 0.48362 0.95015 0.0
H372 H 0.25236 0.48996 0.15491 0.0
H373 H 0.26907 0.4319 0.0922 0.0
H374 H 0.20572 0.48192 0.05621 0.0
H375 H 0.23644 0.50741 0.03155 0.0
H376 H 0.22903 0.50517 0.1044 0.0
H377 H 0.22577 0.41136 0.97982 0.0
H378 H 0.25506 0.41264 0.00498 0.0
H379 H 0.25683 0.43595 0.95466 0.0
C380 C 0.82048 0.24417 0.42417 0.0
C381 C 0.82532 0.26994 0.42468 0.0
C382 C 0.80757 0.22746 0.37961 0.0
C383 C 0.79945 0.23677 0.33432 0.0
C384 C 0.8048 0.26292 0.33391 0.0
C385 C 0.81762 0.27919 0.37921 0.0
C386 C 0.80213 0.19966 0.38155 0.0
C387 C 0.79659 0.27357 0.28604 0.0
C388 C 0.78433 0.20011 0.19809 0.0
C389 C 0.75697 0.18582 0.19888 0.0
C390 C 0.79842 0.21676 0.24194 0.0
C391 C 0.78483 0.21897 0.28787 0.0
C392 C 0.75724 0.20426 0.28938 0.0
C393 C 0.74363 0.18793 0.24474 0.0
C394 C 0.82784 0.23226 0.2388 0.0
C395 C 0.7421 0.20594 0.33798 0.0
H396 H 0.82634 0.23684 0.45915 0.0
H397 H 0.82134 0.29907 0.37923 0.0
H398 H 0.78077 0.18597 0.38074 0.0
H399 H 0.81051 0.19545 0.34457 0.0
H400 H 0.81032 0.19566 0.41918 0.0
H401 H 0.80307 0.29461 0.29118 0.0
H402 H 0.80477 0.27098 0.24681 0.0
H403 H 0.77503 0.26255 0.28199 0.0
H404 H 0.79479 0.19867 0.1627 0.0
H405 H 0.72249 0.17689 0.2457 0.0
H406 H 0.83643 0.22773 0.27494 0.0
H407 H 0.83462 0.25344 0.24038 0.0
H408 H 0.83546 0.22815 0.20038 0.0
H409 H 0.74848 0.20074 0.37671 0.0
H410 H 0.72073 0.19281 0.33327 0.0
H411 H 0.7461 0.22627 0.34271 0.0
C412 C 0.51874 0.78764 0.75127 0.0
C413 C 0.53689 0.81352 0.76528 0.0
C414 C 0.52115 0.77648 0.70208 0.0
C415 C 0.54227 0.79154 0.66603 0.0
C416 C 0.5605 0.81779 0.67949 0.0
C417 C 0.55756 0.8285 0.72898 0.0
C418 C 0.50123 0.74846 0.68899 0.0
C419 C 0.58327 0.83441 0.64197 0.0
C420 C 0.56094 0.75372 0.56722 0.0
C421 C 0.54854 0.75437 0.5183 0.0
C422 C 0.55951 0.76622 0.61536 0.0
C423 C 0.54531 0.77962 0.61452 0.0
C424 C 0.5331 0.78068 0.56508 0.0
C425 C 0.53487 0.76806 0.51755 0.0
C426 C 0.57282 0.76471 0.66738 0.0
C427 C 0.51774 0.79474 0.56267 0.0
H428 H 0.50266 0.77594 0.779 0.0
H429 H 0.57169 0.8485 0.73958 0.0
H430 H 0.49199 0.74731 0.64837 0.0
H431 H 0.51097 0.73665 0.68583 0.0
H432 H 0.48569 0.73957 0.72091 0.0
H433 H 0.59543 0.85461 0.65789 0.0
H434 H 0.59575 0.82547 0.63747 0.0
H435 H 0.57614 0.83534 0.60006 0.0
H436 H 0.5716 0.74326 0.5681 0.0
H437 H 0.52528 0.76872 0.4799 0.0
H438 H 0.55806 0.75425 0.70012 0.0
H439 H 0.58636 0.78463 0.68312 0.0
H440 H 0.58397 0.75445 0.66055 0.0
H441 H 0.50093 0.78539 0.59151 0.0
H442 H 0.51026 0.79461 0.52045 0.0
H443 H 0.53009 0.81529 0.5762 0.0
C444 C 0.75277 0.53187 0.12695 0.0
C445 C 0.73917 0.54562 0.12809 0.0
C446 C 0.76492 0.53034 0.07844 0.0
C447 C 0.76357 0.54299 0.02996 0.0
C448 C 0.75033 0.55735 0.03105 0.0
C449 C 0.73821 0.55843 0.08011 0.0
C450 C 0.77875 0.51474 0.07879 0.0
C451 C 0.74866 0.57123 0.98017 0.0
C452 C 0.81236 0.55506 0.9156 0.0
C453 C 0.79735 0.53441 0.87923 0.0
C454 C 0.80155 0.55829 0.96461 0.0
C455 C 0.77519 0.54034 0.97762 0.0
C456 C 0.75997 0.51945 0.94114 0.0
C457 C 0.77121 0.51678 0.89231 0.0
C458 C 0.81831 0.58088 0.00246 0.0
C459 C 0.73184 0.4998 0.95383 0.0
H460 H 0.75363 0.52191 0.16382 0.0
H461 H 0.72783 0.56918 0.08075 0.0
H462 H 0.76921 0.4983 0.04906 0.0
H463 H 0.79928 0.52713 0.06519 0.0
H464 H 0.77867 0.50669 0.12035 0.0
H465 H 0.73864 0.5825 0.98852 0.0
H466 H 0.7685 0.58478 0.96411 0.0
H467 H 0.73789 0.55681 0.94703 0.0
H468 H 0.83253 0.56883 0.90563 0.0
H469 H 0.75949 0.50076 0.86446 0.0
H470 H 0.8198 0.57346 0.04364 0.0
H471 H 0.80917 0.59309 0.0088 0.0
H472 H 0.83831 0.5934 0.98582 0.0
H473 H 0.73056 0.48986 0.99358 0.0
H474 H 0.72264 0.48477 0.92095 0.0
H475 H 0.72042 0.50988 0.95865 0.0
C476 C 0.21329 0.74652 0.43672 0.0
C477 C 0.18645 0.73631 0.44473 0.0
C478 C 0.22555 0.75975 0.38785 0.0
C479 C 0.21064 0.76298 0.34616 0.0
C480 C 0.1836 0.75301 0.35421 0.0
C481 C 0.17179 0.73969 0.40336 0.0
C482 C 0.2544 0.76995 0.38055 0.0
C483 C 0.16713 0.75623 0.31071 0.0
C484 C 0.24753 0.81563 0.23859 0.0
C485 C 0.24889 0.80097 0.19443 0.0
C486 C 0.23478 0.80349 0.28804 0.0
C487 C 0.22325 0.77609 0.2934 0.0
C488 C 0.22434 0.76118 0.24879 0.0
C489 C 0.2371 0.77379 0.19983 0.0
C490 C 0.23389 0.81998 0.33475 0.0
C491 C 0.21233 0.73192 0.25303 0.0
H492 H 0.22475 0.74398 0.46845 0.0
H493 H 0.15106 0.73196 0.40938 0.0
H494 H 0.25768 0.76056 0.34408 0.0
H495 H 0.2647 0.79127 0.37256 0.0
H496 H 0.26329 0.76625 0.41739 0.0
H497 H 0.14655 0.74809 0.32412 0.0
H498 H 0.17536 0.77721 0.30081 0.0
H499 H 0.16738 0.74629 0.27198 0.0
H500 H 0.25653 0.83663 0.23466 0.0
H501 H 0.23802 0.7623 0.16591 0.0
H502 H 0.24416 0.81823 0.37145 0.0
H503 H 0.21338 0.81287 0.34715 0.0
H504 H 0.24305 0.84092 0.32332 0.0
H505 H 0.22171 0.72705 0.28712 0.0
H506 H 0.21443 0.72312 0.21414 0.0
H507 H 0.19128 0.72277 0.26311 0.0
C508 C 0.4399 0.18196 0.74278 0.0
C509 C 0.42407 0.17862 0.78876 0.0
C510 C 0.43875 0.19491 0.69521 0.0
C511 C 0.42148 0.20491 0.69373 0.0
C512 C 0.40524 0.20137 0.73973 0.0
C513 C 0.40667 0.18818 0.78664 0.0
C514 C 0.45624 0.19816 0.64674 0.0
C515 C 0.38667 0.21187 0.73971 0.0
C516 C 0.43832 0.26004 0.59233 0.0
C517 C 0.4217 0.24674 0.54785 0.0
C518 C 0.43802 0.24674 0.6406 0.0
C519 C 0.4208 0.21948 0.64432 0.0
C520 C 0.40357 0.20604 0.60012 0.0
C521 C 0.40417 0.21986 0.55246 0.0
C522 C 0.45652 0.26177 0.68714 0.0
C523 C 0.38499 0.17696 0.60259 0.0
H524 H 0.45334 0.17456 0.74402 0.0
H525 H 0.3944 0.18574 0.82203 0.0
H526 H 0.44435 0.18974 0.60885 0.0
H527 H 0.46968 0.21921 0.63871 0.0
H528 H 0.46804 0.1886 0.65389 0.0
H529 H 0.37499 0.20701 0.77836 0.0
H530 H 0.39776 0.2334 0.73492 0.0
H531 H 0.37313 0.20384 0.70403 0.0
H532 H 0.45184 0.28083 0.58919 0.0
H533 H 0.39127 0.20942 0.51829 0.0
H534 H 0.47045 0.25465 0.6935 0.0
H535 H 0.44555 0.2585 0.72634 0.0
H536 H 0.4678 0.28308 0.67881 0.0
H537 H 0.39619 0.16658 0.60565 0.0
H538 H 0.37215 0.1696 0.56562 0.0
H539 H 0.37257 0.17194 0.64007 0.0
C540 C 0.18283 0.44005 0.57879 0.0
C541 C 0.1803 0.42445 0.62471 0.0
C542 C 0.19482 0.43862 0.53001 0.0
C543 C 0.2047 0.42129 0.52709 0.0
C544 C 0.2017 0.40503 0.57274 0.0
C545 C 0.18945 0.40675 0.62107 0.0
C546 C 0.19752 0.45619 0.48208 0.0
C547 C 0.2121 0.38639 0.5711 0.0
C548 C 0.22089 0.40737 0.38344 0.0
C549 C 0.24761 0.42564 0.37995 0.0
C550 C 0.20671 0.4052 0.4317 0.0
C551 C 0.21963 0.42157 0.47746 0.0
C552 C 0.24673 0.43951 0.47468 0.0
C553 C 0.26036 0.44139 0.42594 0.0
C554 C 0.17779 0.38593 0.43317 0.0
C555 C 0.26124 0.45721 0.52274 0.0
H556 H 0.17563 0.45364 0.58105 0.0
H557 H 0.18752 0.39461 0.65634 0.0
H558 H 0.21846 0.4702 0.47433 0.0
H559 H 0.18943 0.44449 0.44384 0.0
H560 H 0.18741 0.46742 0.48981 0.0
H561 H 0.20672 0.37391 0.60862 0.0
H562 H 0.20457 0.37363 0.53411 0.0
H563 H 0.23368 0.39756 0.56767 0.0
H564 H 0.21093 0.39512 0.3481 0.0
H565 H 0.28106 0.45542 0.42379 0.0
H566 H 0.16687 0.39659 0.43672 0.0
H567 H 0.17285 0.37315 0.47003 0.0
H568 H 0.17099 0.3735 0.39553 0.0
H569 H 0.25373 0.47073 0.53062 0.0
H570 H 0.28258 0.46899 0.51507 0.0
H571 H 0.25794 0.44554 0.56088 0.0
C572 C 0.80127 0.23438 0.7233 0.0
C573 C 0.82419 0.23484 0.70674 0.0
C574 C 0.78547 0.21757 0.76515 0.0
C575 C 0.79284 0.20088 0.79139 0.0
C576 C 0.81567 0.20083 0.77427 0.0
C577 C 0.8311 0.21782 0.73193 0.0
C578 C 0.76118 0.21811 0.78209 0.0
C579 C 0.8241 0.18331 0.80157 0.0
C580 C 0.76516 0.18167 0.93564 0.0
C581 C 0.74296 0.15724 0.92628 0.0
C582 C 0.78239 0.19546 0.89252 0.0
C583 C 0.77718 0.18463 0.83868 0.0
C584 C 0.75548 0.15946 0.82942 0.0
C585 C 0.73863 0.14598 0.8735 0.0
C586 C 0.80546 0.22219 0.9041 0.0
C587 C 0.74932 0.14734 0.77247 0.0
H588 H 0.79566 0.24732 0.70377 0.0
H589 H 0.84878 0.21806 0.71925 0.0
H590 H 0.74391 0.1982 0.77966 0.0
H591 H 0.76299 0.22468 0.8257 0.0
H592 H 0.75758 0.23136 0.75574 0.0
H593 H 0.84147 0.18447 0.78123 0.0
H594 H 0.82881 0.18889 0.84568 0.0
H595 H 0.80796 0.16274 0.80065 0.0
H596 H 0.76881 0.19034 0.97654 0.0
H597 H 0.72156 0.12706 0.86608 0.0
H598 H 0.80258 0.23725 0.88323 0.0
H599 H 0.82359 0.22372 0.88719 0.0
H600 H 0.80821 0.22667 0.94906 0.0
H601 H 0.7431 0.15834 0.74531 0.0
H602 H 0.73351 0.12658 0.77334 0.0
H603 H 0.76693 0.14851 0.75352 0.0
C604 C 0.55421 0.79754 0.0311 0.0
C605 C 0.5767 0.81964 0.01143 0.0
C606 C 0.55563 0.7823 0.07366 0.0
C607 C 0.58014 0.78938 0.09728 0.0
C608 C 0.60307 0.81107 0.0763 0.0
C609 C 0.60108 0.82597 0.0334 0.0
C610 C 0.53075 0.75917 0.09472 0.0
C611 C 0.62952 0.81913 0.10059 0.0
C612 C 0.57608 0.76744 0.24565 0.0
C613 C 0.57734 0.74455 0.23932 0.0
C614 C 0.57805 0.78279 0.19984 0.0
C615 C 0.58131 0.77503 0.14643 0.0
C616 C 0.58353 0.75247 0.13992 0.0
C617 C 0.58153 0.73747 0.18654 0.0
C618 C 0.57566 0.8068 0.2084 0.0
C619 C 0.58703 0.74365 0.08353 0.0
H620 H 0.53531 0.79239 0.01396 0.0
H621 H 0.61853 0.84301 0.01831 0.0
H622 H 0.53253 0.74139 0.09464 0.0
H623 H 0.52723 0.76275 0.1381 0.0
H624 H 0.5135 0.75532 0.06949 0.0
H625 H 0.64561 0.83502 0.0765 0.0
H626 H 0.63046 0.82599 0.14371 0.0
H627 H 0.63271 0.80221 0.10223 0.0
H628 H 0.57303 0.77314 0.28636 0.0
H629 H 0.58265 0.71986 0.18139 0.0
H630 H 0.55755 0.80395 0.18839 0.0
H631 H 0.59229 0.82401 0.18866 0.0
H632 H 0.57506 0.81117 0.25291 0.0
H633 H 0.56919 0.73745 0.05843 0.0
H634 H 0.5908 0.72708 0.08605 0.0
H635 H 0.60346 0.76001 0.06126 0.0
C636 C 0.71745 0.56321 0.46537 0.0
C637 C 0.72675 0.56593 0.41101 0.0
C638 C 0.73335 0.56561 0.51056 0.0
C639 C 0.75913 0.57091 0.50099 0.0
C640 C 0.76896 0.57473 0.44636 0.0
C641 C 0.75263 0.57215 0.40199 0.0
C642 C 0.72223 0.5614 0.56833 0.0
C643 C 0.79639 0.58048 0.4346 0.0
C644 C 0.80758 0.59174 0.61956 0.0
C645 C 0.80642 0.56811 0.6327 0.0
C646 C 0.79204 0.59298 0.57712 0.0
C647 C 0.775 0.57004 0.54746 0.0
C648 C 0.77352 0.5461 0.56108 0.0
C649 C 0.78925 0.54543 0.60347 0.0
C650 C 0.79409 0.61883 0.56352 0.0
C651 C 0.75553 0.52119 0.53041 0.0
H652 H 0.69751 0.55853 0.47266 0.0
H653 H 0.76003 0.57449 0.3601 0.0
H654 H 0.72037 0.54321 0.58576 0.0
H655 H 0.73555 0.57768 0.59581 0.0
H656 H 0.70272 0.5598 0.5691 0.0
H657 H 0.80176 0.58511 0.39032 0.0
H658 H 0.81061 0.59714 0.46014 0.0
H659 H 0.79824 0.56331 0.44592 0.0
H660 H 0.82079 0.60933 0.64203 0.0
H661 H 0.78814 0.52705 0.61347 0.0
H662 H 0.77459 0.61712 0.56624 0.0
H663 H 0.80103 0.62444 0.52035 0.0
H664 H 0.80767 0.63469 0.59166 0.0
H665 H 0.73513 0.51714 0.53296 0.0
H666 H 0.75625 0.50407 0.54708 0.0
H667 H 0.76093 0.52337 0.48597 0.0
C668 C 0.14681 0.72726 0.78334 0.0
C669 C 0.15431 0.73399 0.72802 0.0
C670 C 0.1608 0.74452 0.82642 0.0
C671 C 0.18272 0.76909 0.81375 0.0
C672 C 0.18968 0.77646 0.75791 0.0
C673 C 0.17542 0.75878 0.71569 0.0
C674 C 0.15285 0.736 0.88556 0.0
C675 C 0.21287 0.80256 0.74283 0.0
C676 C 0.21163 0.82101 0.9258 0.0
C677 C 0.23252 0.81816 0.94426 0.0
C678 C 0.19518 0.80518 0.88321 0.0
C679 C 0.19974 0.78608 0.85886 0.0
C680 C 0.22078 0.78313 0.87736 0.0
C681 C 0.23692 0.79922 0.91974 0.0
C682 C 0.17296 0.80889 0.86423 0.0
C683 C 0.22624 0.76292 0.85243 0.0
H684 H 0.13046 0.70817 0.79319 0.0
H685 H 0.18122 0.76421 0.673 0.0
H686 H 0.16818 0.73355 0.90638 0.0
H687 H 0.15095 0.75114 0.90873 0.0
H688 H 0.13409 0.71727 0.8883 0.0
H689 H 0.21424 0.80625 0.69755 0.0
H690 H 0.21175 0.81855 0.76424 0.0
H691 H 0.23108 0.8033 0.75671 0.0
H692 H 0.20814 0.83563 0.94453 0.0
H693 H 0.25299 0.79684 0.93379 0.0
H694 H 0.15415 0.79046 0.86958 0.0
H695 H 0.17507 0.81373 0.81949 0.0
H696 H 0.17208 0.82464 0.88739 0.0
H697 H 0.20896 0.74316 0.85735 0.0
H698 H 0.24331 0.76305 0.87181 0.0
H699 H 0.23 0.76651 0.80742 0.0
C700 C 0.43419 0.19588 0.05658 0.0
C701 C 0.41876 0.16859 0.05569 0.0
C702 C 0.4323 0.21047 0.10012 0.0
C703 C 0.41474 0.19744 0.14409 0.0
C704 C 0.39875 0.16994 0.143 0.0
C705 C 0.40086 0.15583 0.09858 0.0
C706 C 0.4495 0.23982 0.0996 0.0
C707 C 0.37997 0.15541 0.18946 0.0
C708 C 0.43291 0.23433 0.27978 0.0
C709 C 0.41662 0.2452 0.27998 0.0
C710 C 0.43183 0.218 0.23666 0.0
C711 C 0.4142 0.21262 0.19242 0.0
C712 C 0.39721 0.22296 0.19303 0.0
C713 C 0.39854 0.23906 0.23704 0.0
C714 C 0.45007 0.2071 0.2377 0.0
C715 C 0.37829 0.21774 0.14632 0.0
H716 H 0.44792 0.20588 0.02332 0.0
H717 H 0.38889 0.13474 0.09814 0.0
H718 H 0.43747 0.24925 0.10433 0.0
H719 H 0.4632 0.24611 0.13512 0.0
H720 H 0.46105 0.24704 0.06086 0.0
H721 H 0.36801 0.13415 0.18104 0.0
H722 H 0.39097 0.15822 0.22844 0.0
H723 H 0.36672 0.16332 0.19634 0.0
H724 H 0.44678 0.23882 0.31309 0.0
H725 H 0.38591 0.24742 0.23695 0.0
H726 H 0.46401 0.21524 0.20269 0.0
H727 H 0.43891 0.18559 0.23245 0.0
H728 H 0.46136 0.21174 0.27685 0.0
H729 H 0.38926 0.22654 0.10756 0.0
H730 H 0.36533 0.2259 0.15468 0.0
H731 H 0.36603 0.19644 0.13907 0.0
C732 C 0.3656 0.55024 0.34602 0.0
C733 C 0.3637 0.53338 0.30316 0.0
C734 C 0.38872 0.57398 0.3549 0.0
C735 C 0.41043 0.58108 0.31992 0.0
C736 C 0.4085 0.56442 0.27589 0.0
C737 C 0.38516 0.54073 0.26809 0.0
C738 C 0.39008 0.59124 0.40234 0.0
C739 C 0.43121 0.57142 0.23754 0.0
C740 C 0.46384 0.65226 0.31458 0.0
C741 C 0.48289 0.65234 0.34921 0.0
C742 C 0.44015 0.62922 0.30469 0.0
C743 C 0.43538 0.6057 0.33014 0.0
C744 C 0.45445 0.60566 0.36536 0.0
C745 C 0.47799 0.62897 0.37443 0.0
C746 C 0.42028 0.63 0.26682 0.0
C747 C 0.45001 0.58095 0.39337 0.0
H748 H 0.34914 0.54472 0.37336 0.0
H749 H 0.38386 0.52785 0.2348 0.0
H750 H 0.40538 0.59356 0.43204 0.0
H751 H 0.3956 0.61098 0.38683 0.0
H752 H 0.37125 0.58321 0.42486 0.0
H753 H 0.42626 0.55674 0.20422 0.0
H754 H 0.43771 0.59072 0.21823 0.0
H755 H 0.44794 0.57303 0.26144 0.0
H756 H 0.46746 0.67022 0.29486 0.0
H757 H 0.49259 0.62884 0.40126 0.0
H758 H 0.40166 0.62327 0.28933 0.0
H759 H 0.41611 0.61651 0.23147 0.0
H760 H 0.42697 0.64989 0.25034 0.0
H761 H 0.43221 0.57282 0.4194 0.0
H762 H 0.46673 0.58425 0.41983 0.0
H763 H 0.44678 0.56601 0.3618 0.0
C764 C 0.83786 0.45616 0.7219 0.0
C765 C 0.82151 0.46262 0.69233 0.0
C766 C 0.83808 0.43301 0.71073 0.0
C767 C 0.82162 0.41598 0.6689 0.0
C768 C 0.80472 0.42214 0.63962 0.0
C769 C 0.80483 0.44537 0.65177 0.0
C770 C 0.85626 0.42699 0.74305 0.0
C771 C 0.78692 0.40445 0.59468 0.0
C772 C 0.84213 0.37072 0.60354 0.0
C773 C 0.8261 0.34721 0.63135 0.0
C774 C 0.84055 0.39315 0.61471 0.0
C775 C 0.82261 0.39205 0.65485 0.0
C776 C 0.80606 0.36828 0.68236 0.0
C777 C 0.80795 0.34611 0.67015 0.0
C778 C 0.85838 0.41813 0.58422 0.0
C779 C 0.78675 0.36641 0.72553 0.0
H780 H 0.85076 0.46935 0.75338 0.0
H781 H 0.79212 0.45019 0.62871 0.0
H782 H 0.84508 0.40756 0.76299 0.0
H783 H 0.87055 0.42618 0.7146 0.0
H784 H 0.86714 0.4418 0.77555 0.0
H785 H 0.77439 0.41166 0.57696 0.0
H786 H 0.79872 0.40285 0.56085 0.0
H787 H 0.77421 0.38451 0.61125 0.0
H788 H 0.85615 0.37171 0.57338 0.0
H789 H 0.79551 0.32803 0.69191 0.0
H790 H 0.87144 0.43333 0.61406 0.0
H791 H 0.84673 0.42554 0.56315 0.0
H792 H 0.87059 0.41548 0.55287 0.0
H793 H 0.79727 0.37972 0.76049 0.0
H794 H 0.77476 0.34629 0.74199 0.0
H795 H 0.77353 0.37272 0.70777 0.0
C796 C 0.45974 0.84549 0.93712 0.0
C797 C 0.47056 0.83551 0.97472 0.0
C798 C 0.43547 0.84343 0.94738 0.0
C799 C 0.42167 0.831 0.99628 0.0
C800 C 0.43222 0.8204 0.03384 0.0
C801 C 0.45658 0.82282 0.02265 0.0
C802 C 0.42482 0.855 0.9064 0.0
C803 C 0.41798 0.8069 0.08628 0.0
C804 C 0.37294 0.84984 0.04834 0.0
C805 C 0.34932 0.82923 0.02839 0.0
C806 C 0.39659 0.85043 0.03886 0.0
C807 C 0.3966 0.82989 0.00891 0.0
C808 C 0.37278 0.80873 0.98978 0.0
C809 C 0.34941 0.80867 -0.00032 0.0
C810 C 0.42163 0.87334 0.0599 0.0
C811 C 0.37206 0.78641 0.95798 0.0
H812 H 0.47041 0.8553 0.89998 0.0
H813 H 0.46476 0.81496 0.05183 0.0
H814 H 0.40514 0.83988 0.89231 0.0
H815 H 0.4227 0.87067 0.92663 0.0
H816 H 0.4376 0.86334 0.86958 0.0
H817 H 0.42834 0.79875 0.11 0.0
H818 H 0.41581 0.8209 0.11313 0.0
H819 H 0.39807 0.79082 0.07633 0.0
H820 H 0.37306 0.8658 0.07057 0.0
H821 H 0.33123 0.79264 0.98427 0.0
H822 H 0.43464 0.88385 0.02454 0.0
H823 H 0.43211 0.86638 0.08667 0.0
H824 H 0.41818 0.88735 0.08388 0.0
H825 H 0.38311 0.79377 0.91876 0.0
H826 H 0.35184 0.7709 0.94799 0.0
H827 H 0.38163 0.77762 0.98223 0.0
C828 C 0.61591 0.46894 0.277 0.0
C829 C 0.64038 0.47419 0.29645 0.0
C830 C 0.59335 0.44505 0.2883 0.0
C831 C 0.59531 0.42595 0.3198 0.0
C832 C 0.61997 0.43096 0.33894 0.0
C833 C 0.64223 0.45503 0.32702 0.0
C834 C 0.56736 0.44038 0.26709 0.0
C835 C 0.6228 0.41102 0.37257 0.0
C836 C 0.53354 0.37564 0.3922 0.0
C837 C 0.52416 0.35448 0.35547 0.0
C838 C 0.557 0.39883 0.38172 0.0
C839 C 0.57141 0.40089 0.33336 0.0
C840 C 0.56243 0.37937 0.29691 0.0
C841 C 0.53892 0.35641 0.30842 0.0
C842 C 0.56601 0.42137 0.42165 0.0
C843 C 0.57732 0.38084 0.245 0.0
H844 H 0.61429 0.48361 0.25331 0.0
H845 H 0.66106 0.45891 0.3422 0.0
H846 H 0.55806 0.42256 0.24102 0.0
H847 H 0.55406 0.43705 0.30238 0.0
H848 H 0.56925 0.45704 0.24232 0.0
H849 H 0.64344 0.4177 0.38325 0.0
H850 H 0.61143 0.40682 0.41147 0.0
H851 H 0.61475 0.39241 0.34931 0.0
H852 H 0.5223 0.37431 0.42871 0.0
H853 H 0.53186 0.34015 0.27985 0.0
H854 H 0.56628 0.43815 0.40056 0.0
H855 H 0.58622 0.42792 0.43555 0.0
H856 H 0.55322 0.4162 0.45863 0.0
H857 H 0.57794 0.39597 0.21692 0.0
H858 H 0.56839 0.36196 0.22242 0.0
H859 H 0.59778 0.38669 0.25536 0.0
C860 C 0.15133 0.62152 0.60478 0.0
C861 C 0.16621 0.64526 0.63275 0.0
C862 C 0.15352 0.59961 0.61782 0.0
C863 C 0.171 0.60147 0.65989 0.0
C864 C 0.18647 0.6255 0.68752 0.0
C865 C 0.18391 0.64713 0.67358 0.0
C866 C 0.13676 0.57433 0.58726 0.0
C867 C 0.20533 0.6282 0.73256 0.0
C868 C 0.15557 0.53768 0.72862 0.0
C869 C 0.17246 0.53139 0.70065 0.0
C870 C 0.15539 0.56078 0.71675 0.0
C871 C 0.17246 0.57798 0.67585 0.0
C872 C 0.19004 0.57211 0.64854 0.0
C873 C 0.18986 0.5489 0.66134 0.0
C874 C 0.13644 0.56645 0.74695 0.0
C875 C 0.20851 0.58997 0.60467 0.0
H876 H 0.13763 0.61989 0.57312 0.0
H877 H 0.19549 0.6654 0.6954 0.0
H878 H 0.14918 0.56736 0.56804 0.0
H879 H 0.12349 0.55907 0.61677 0.0
H880 H 0.12479 0.57636 0.5544 0.0
H881 H 0.21665 0.64847 0.74859 0.0
H882 H 0.1945 0.615 0.76747 0.0
H883 H 0.21917 0.62225 0.71679 0.0
H884 H 0.14212 0.52431 0.75917 0.0
H885 H 0.203 0.54422 0.63954 0.0
H886 H 0.12229 0.56663 0.71713 0.0
H887 H 0.14699 0.58606 0.76638 0.0
H888 H 0.12543 0.55178 0.77958 0.0
H889 H 0.1972 0.59093 0.56904 0.0
H890 H 0.22192 0.58331 0.58944 0.0
H891 H 0.22032 0.61008 0.62116 0.0
C892 C 0.60686 0.12051 0.99691 0.0
C893 C 0.63089 0.14064 0.01613 0.0
C894 C 0.58576 0.12464 0.98866 0.0
C895 C 0.589 0.14968 -0.00143 0.0
C896 C 0.61344 0.17027 0.01661 0.0
C897 C 0.63403 0.16541 0.02589 0.0
C898 C 0.55982 0.10204 0.97058 0.0
C899 C 0.61779 0.19736 0.02639 0.0
C900 C 0.53792 0.16217 0.93327 0.0
C901 C 0.52146 0.15825 0.97837 0.0
C902 C 0.56057 0.16043 0.93964 0.0
C903 C 0.56645 0.15394 0.99202 0.0
C904 C 0.55008 0.15034 0.03783 0.0
C905 C 0.52795 0.15285 0.03057 0.0
C906 C 0.57793 0.16504 0.89017 0.0
C907 C 0.55539 0.14288 0.09408 0.0
H908 H 0.60433 0.1013 0.98966 0.0
H909 H 0.65269 0.18107 0.04029 0.0
H910 H 0.5447 0.09837 0.00202 0.0
H911 H 0.55356 0.10683 0.9312 0.0
H912 H 0.56056 0.0838 0.96462 0.0
H913 H 0.63837 0.21156 0.03719 0.0
H914 H 0.61241 0.20439 0.98885 0.0
H915 H 0.60507 0.19695 0.06051 0.0
H916 H 0.53303 0.16651 0.89292 0.0
H917 H 0.51519 0.1496 0.0655 0.0
H918 H 0.57754 0.14668 0.87893 0.0
H919 H 0.59842 0.17968 0.9004 0.0
H920 H 0.57179 0.17198 0.85356 0.0
H921 H 0.5547 0.12383 0.09135 0.0
H922 H 0.54105 0.14132 0.12569 0.0
H923 H 0.57523 0.1575 0.10833 0.0
loop_
_geom_bond_atom_site_label_1
_geom_bond_atom_site_label_2
_geom_bond_distance
_geom_bond_site_symmetry_2
_ccdc_geom_bond_type
C0 O1 1.160 . S
C0 O7 1.185 . S
O1 C0 1.160 . S
O2 Zn3 1.899 . S
O2 C10 1.284 . S
Zn3 O2 1.899 . S
Zn3 O4 2.032 . S
Zn3 O7 2.086 . S
Zn3 O12 1.977 . S
O4 Zn3 2.032 . S
O4 C8 1.278 . S
C5 O6 1.203 . S
C5 O12 1.267 . S
O6 C5 1.203 . S
O7 C0 1.185 . S
O7 Zn3 2.086 . S
C8 O4 1.278 . S
C8 O9 1.211 . S
O9 C8 1.211 . S
C10 O2 1.284 . S
C10 O11 1.273 . S
O11 C10 1.273 . S
O12 Zn3 1.977 . S
O12 C5 1.267 . S
C13 O14 1.160 . S
C13 O20 1.185 . S
O14 C13 1.160 . S
O15 Zn16 1.899 . S
O15 C23 1.284 . S
Zn16 O15 1.899 . S
Zn16 O17 2.032 . S
Zn16 O20 2.086 . S
Zn16 O25 1.977 . S
O17 Zn16 2.032 . S
O17 C21 1.278 . S
C18 O19 1.203 . S
C18 O25 1.267 . S
O19 C18 1.203 . S
O20 C13 1.185 . S
O20 Zn16 2.086 . S
C21 O17 1.278 . S
C21 O22 1.211 . S
O22 C21 1.211 . S
C23 O15 1.284 . S
C23 O24 1.273 . S
O24 C23 1.273 . S
O25 Zn16 1.977 . S
O25 C18 1.267 . S
C26 O27 1.160 . S
C26 O33 1.185 . S
O27 C26 1.160 . S
O28 Zn29 1.899 . S
O28 C36 1.284 . S
Zn29 O28 1.899 . S
Zn29 O30 2.032 . S
Zn29 O33 2.086 . S
Zn29 O38 1.977 . S
O30 Zn29 2.032 . S
O30 C34 1.278 1_556 S
C31 O32 1.210 . S
C31 O38 1.267 . S
O32 C31 1.210 . S
O33 C26 1.185 . S
O33 Zn29 2.086 . S
C34 O30 1.278 1_554 S
C34 O35 1.211 . S
O35 C34 1.211 . S
C36 O28 1.284 . S
C36 O37 1.273 1_556 S
O37 C36 1.273 1_554 S
O38 Zn29 1.977 . S
O38 C31 1.267 . S
C39 O40 1.160 . S
C39 O46 1.185 . S
O40 C39 1.160 . S
O41 Zn42 1.899 . S
O41 C49 1.284 . S
Zn42 O41 1.899 . S
Zn42 O43 2.032 . S
Zn42 O46 2.086 . S
Zn42 O51 1.977 . S
O43 Zn42 2.032 . S
O43 C47 1.278 . S
C44 O45 1.203 . S
C44 O51 1.267 . S
O45 C44 1.203 . S
O46 C39 1.185 . S
O46 Zn42 2.086 . S
C47 O43 1.278 . S
C47 O48 1.211 . S
O48 C47 1.211 . S
C49 O41 1.284 . S
C49 O50 1.273 . S
O50 C49 1.273 . S
O51 Zn42 1.977 . S
O51 C44 1.267 . S
C52 O53 1.160 . S
C52 O59 1.185 . S
O53 C52 1.160 . S
O54 Zn55 1.899 . S
O54 C62 1.284 . S
Zn55 O54 1.899 . S
Zn55 O56 2.032 . S
Zn55 O59 2.086 . S
Zn55 O64 1.977 . S
O56 Zn55 2.032 . S
O56 C60 1.278 . S
C57 O58 1.203 . S
C57 O64 1.267 . S
O58 C57 1.203 . S
O59 C52 1.185 . S
O59 Zn55 2.086 . S
C60 O56 1.278 . S
C60 O61 1.211 . S
O61 C60 1.211 . S
C62 O54 1.284 . S
C62 O63 1.273 . S
O63 C62 1.273 . S
O64 Zn55 1.977 . S
O64 C57 1.267 . S
C65 O66 1.160 . S
C65 O72 1.185 . S
O66 C65 1.160 . S
O67 Zn68 1.899 . S
O67 C75 1.284 . S
Zn68 O67 1.899 . S
Zn68 O69 2.032 . S
Zn68 O72 2.086 . S
Zn68 O77 1.977 . S
O69 Zn68 2.032 . S
O69 C73 1.278 1_556 S
C70 O71 1.210 . S
C70 O77 1.267 . S
O71 C70 1.210 . S
O72 C65 1.185 . S
O72 Zn68 2.086 . S
C73 O69 1.278 1_554 S
C73 O74 1.211 . S
O74 C73 1.211 . S
C75 O67 1.284 . S
C75 O76 1.273 1_556 S
O76 C75 1.273 1_554 S
O77 Zn68 1.977 . S
O77 C70 1.267 . S
C78 O79 1.160 . S
C78 O85 1.185 . S
O79 C78 1.160 . S
O80 Zn81 1.899 . S
O80 C88 1.284 . S
Zn81 O80 1.899 . S
Zn81 O82 2.032 . S
Zn81 O85 2.086 . S
Zn81 O90 1.977 . S
O82 Zn81 2.032 . S
O82 C86 1.278 . S
C83 O84 1.203 . S
C83 O90 1.267 . S
O84 C83 1.203 . S
O85 C78 1.185 . S
O85 Zn81 2.086 . S
C86 O82 1.278 . S
C86 O87 1.211 . S
O87 C86 1.211 . S
C88 O80 1.284 . S
C88 O89 1.273 . S
O89 C88 1.273 . S
O90 Zn81 1.977 . S
O90 C83 1.267 . S
C91 O92 1.160 . S
C91 O98 1.185 . S
O92 C91 1.160 . S
O93 Zn94 1.899 . S
O93 C101 1.284 . S
Zn94 O93 1.899 . S
Zn94 O95 2.032 . S
Zn94 O98 2.086 . S
Zn94 O103 1.977 . S
O95 Zn94 2.032 . S
O95 C99 1.278 . S
C96 O97 1.203 . S
C96 O103 1.267 . S
O97 C96 1.203 . S
O98 C91 1.185 . S
O98 Zn94 2.086 . S
C99 O95 1.278 . S
C99 O100 1.211 . S
O100 C99 1.211 . S
C101 O93 1.284 . S
C101 O102 1.273 . S
O102 C101 1.273 . S
O103 Zn94 1.977 . S
O103 C96 1.267 . S
C104 O105 1.160 . S
C104 O111 1.185 . S
O105 C104 1.160 . S
O106 Zn107 1.899 . S
O106 C114 1.284 . S
Zn107 O106 1.899 . S
Zn107 O108 2.032 . S
Zn107 O111 2.086 . S
Zn107 O116 1.977 . S
O108 Zn107 2.032 . S
O108 C112 1.278 1_554 S
C109 O110 1.209 . S
C109 O116 1.267 . S
O110 C109 1.209 . S
O111 C104 1.185 . S
O111 Zn107 2.086 . S
C112 O108 1.278 1_556 S
C112 O113 1.211 . S
O113 C112 1.211 . S
C114 O106 1.284 . S
C114 O115 1.273 1_554 S
O115 C114 1.273 1_556 S
O116 Zn107 1.977 . S
O116 C109 1.267 . S
C117 O118 1.160 . S
C117 O124 1.185 . S
O118 C117 1.160 . S
O119 Zn120 1.899 . S
O119 C127 1.284 . S
Zn120 O119 1.899 . S
Zn120 O121 2.032 . S
Zn120 O124 2.086 . S
Zn120 O129 1.977 . S
O121 Zn120 2.032 . S
O121 C125 1.278 . S
C122 O123 1.203 . S
C122 O129 1.267 . S
O123 C122 1.203 . S
O124 C117 1.185 . S
O124 Zn120 2.086 . S
C125 O121 1.278 . S
C125 O126 1.211 . S
O126 C125 1.211 . S
C127 O119 1.284 . S
C127 O128 1.273 . S
O128 C127 1.273 . S
O129 Zn120 1.977 . S
O129 C122 1.267 . S
C130 O131 1.160 . S
C130 O137 1.185 . S
O131 C130 1.160 . S
O132 Zn133 1.899 . S
O132 C140 1.284 . S
Zn133 O132 1.899 . S
Zn133 O134 2.032 . S
Zn133 O137 2.086 . S
Zn133 O142 1.977 . S
O134 Zn133 2.032 . S
O134 C138 1.278 . S
C135 O136 1.203 . S
C135 O142 1.267 . S
O136 C135 1.203 . S
O137 C130 1.185 . S
O137 Zn133 2.086 . S
C138 O134 1.278 . S
C138 O139 1.211 . S
O139 C138 1.211 . S
C140 O132 1.284 . S
C140 O141 1.273 . S
O141 C140 1.273 . S
O142 Zn133 1.977 . S
O142 C135 1.267 . S
C143 O144 1.160 . S
C143 O150 1.185 . S
O144 C143 1.160 . S
O145 Zn146 1.899 . S
O145 C153 1.284 . S
Zn146 O145 1.899 . S
Zn146 O147 2.032 . S
Zn146 O150 2.086 . S
Zn146 O155 1.977 . S
O147 Zn146 2.032 . S
O147 C151 1.278 1_554 S
C148 O149 1.209 . S
C148 O155 1.267 . S
O149 C148 1.209 . S
O150 C143 1.185 . S
O150 Zn146 2.086 . S
C151 O147 1.278 1_556 S
C151 O152 1.211 . S
O152 C151 1.211 . S
C153 O145 1.284 . S
C153 O154 1.273 1_554 S
O154 C153 1.273 1_556 S
O155 Zn146 1.977 . S
O155 C148 1.267 . S
C156 C157 1.391 . S
C156 C158 1.394 . S
C156 H172 0.931 . S
C157 C156 1.391 . S
C157 C161 1.376 . S
C158 C156 1.394 . S
C158 C159 1.369 . S
C158 C162 1.531 . S
C159 C158 1.369 . S
C159 C160 1.410 . S
C159 C167 1.503 . S
C160 C159 1.410 . S
C160 C161 1.392 . S
C160 C163 1.511 . S
C161 C157 1.376 . S
C161 C160 1.392 . S
C161 H173 0.929 . S
C162 C158 1.531 . S
C162 H174 0.960 . S
C162 H175 0.962 . S
C162 H176 0.960 . S
C163 C160 1.511 . S
C163 H177 0.961 . S
C163 H178 0.961 . S
C163 H179 0.961 . S
C164 C165 1.370 . S
C164 C166 1.363 . S
C164 H180 0.931 . S
C165 C164 1.370 . S
C165 C169 1.408 . S
C166 C164 1.363 . S
C166 C167 1.370 . S
C166 C170 1.524 . S
C167 C159 1.503 . S
C167 C166 1.370 . S
C167 C168 1.403 . S
C168 C167 1.403 . S
C168 C169 1.404 . S
C168 C171 1.539 . S
C169 C165 1.408 . S
C169 C168 1.404 . S
C169 H181 0.930 . S
C170 C166 1.524 . S
C170 H182 0.956 . S
C170 H183 0.961 . S
C170 H184 0.961 . S
C171 C168 1.539 . S
C171 H185 0.958 . S
C171 H186 0.961 . S
C171 H187 0.960 . S
H172 C156 0.931 . S
H173 C161 0.929 . S
H174 C162 0.960 . S
H175 C162 0.962 . S
H176 C162 0.960 . S
H177 C163 0.961 . S
H178 C163 0.961 . S
H179 C163 0.961 . S
H180 C164 0.931 . S
H181 C169 0.930 . S
H182 C170 0.956 . S
H183 C170 0.961 . S
H184 C170 0.961 . S
H185 C171 0.958 . S
H186 C171 0.961 . S
H187 C171 0.960 . S
C188 C189 1.391 . S
C188 C190 1.394 . S
C188 H204 0.931 . S
C189 C188 1.391 . S
C189 C193 1.376 . S
C190 C188 1.394 . S
C190 C191 1.369 . S
C190 C194 1.531 . S
C191 C190 1.369 . S
C191 C192 1.410 . S
C191 C199 1.503 1_655 S
C192 C191 1.410 . S
C192 C193 1.392 . S
C192 C195 1.511 . S
C193 C189 1.376 . S
C193 C192 1.392 . S
C193 H205 0.929 . S
C194 C190 1.531 . S
C194 H206 0.953 1_655 S
C194 H207 0.962 . S
C194 H208 0.960 . S
C195 C192 1.511 . S
C195 H209 0.961 . S
C195 H210 0.961 1_655 S
C195 H211 0.961 . S
C196 C197 1.370 . S
C196 C198 1.363 . S
C196 H212 0.931 . S
C197 C196 1.370 . S
C197 C201 1.408 . S
C198 C196 1.363 . S
C198 C199 1.370 . S
C198 C202 1.524 . S
C199 C191 1.503 1_455 S
C199 C198 1.370 . S
C199 C200 1.403 . S
C200 C199 1.403 . S
C200 C201 1.404 . S
C200 C203 1.539 . S
C201 C197 1.408 . S
C201 C200 1.404 . S
C201 H213 0.930 . S
C202 C198 1.524 . S
C202 H214 0.956 . S
C202 H215 0.961 . S
C202 H216 0.961 . S
C203 C200 1.539 . S
C203 H217 0.958 . S
C203 H218 0.961 . S
C203 H219 0.960 1_455 S
H204 C188 0.931 . S
H205 C193 0.929 . S
H206 C194 0.953 1_455 S
H207 C194 0.962 . S
H208 C194 0.960 . S
H209 C195 0.961 . S
H210 C195 0.961 1_455 S
H211 C195 0.961 . S
H212 C196 0.931 . S
H213 C201 0.930 . S
H214 C202 0.956 . S
H215 C202 0.961 . S
H216 C202 0.961 . S
H217 C203 0.958 . S
H218 C203 0.961 . S
H219 C203 0.960 1_655 S
C220 C221 1.391 . S
C220 C222 1.394 . S
C220 H236 0.931 . S
C221 C220 1.391 . S
C221 C225 1.376 . S
C222 C220 1.394 . S
C222 C223 1.369 . S
C222 C226 1.531 . S
C223 C222 1.369 . S
C223 C224 1.410 1_556 S
C223 C231 1.503 1_565 S
C224 C223 1.410 1_554 S
C224 C225 1.392 1_554 S
C224 C227 1.511 . S
C225 C221 1.376 . S
C225 C224 1.392 1_556 S
C225 H237 0.929 1_556 S
C226 C222 1.531 . S
C226 H238 0.960 1_565 S
C226 H239 0.962 . S
C226 H240 0.960 . S
C227 C224 1.511 . S
C227 H241 0.961 . S
C227 H242 0.961 . S
C227 H243 0.961 . S
C228 C229 1.370 . S
C228 C230 1.363 . S
C228 H244 0.931 . S
C229 C228 1.370 . S
C229 C233 1.408 1_554 S
C230 C228 1.363 . S
C230 C231 1.370 1_554 S
C230 C234 1.524 . S
C231 C223 1.503 1_545 S
C231 C230 1.370 1_556 S
C231 C232 1.403 . S
C232 C231 1.403 . S
C232 C233 1.404 . S
C232 C235 1.539 . S
C233 C229 1.408 1_556 S
C233 C232 1.404 . S
C233 H245 0.930 . S
C234 C230 1.524 . S
C234 H246 0.956 1_545 S
C234 H247 0.961 1_545 S
C234 H248 0.961 . S
C235 C232 1.539 . S
C235 H249 0.958 . S
C235 H250 0.961 . S
C235 H251 0.960 . S
H236 C220 0.931 . S
H237 C225 0.929 1_554 S
H238 C226 0.960 1_545 S
H239 C226 0.962 . S
H240 C226 0.960 . S
H241 C227 0.961 . S
H242 C227 0.961 . S
H243 C227 0.961 . S
H244 C228 0.931 . S
H245 C233 0.930 . S
H246 C234 0.956 1_565 S
H247 C234 0.961 1_565 S
H248 C234 0.961 . S
H249 C235 0.958 . S
H250 C235 0.961 . S
H251 C235 0.960 . S
C252 C253 1.391 . S
C252 C254 1.394 . S
C252 H268 0.931 . S
C253 C252 1.391 . S
C253 C257 1.376 . S
C254 C252 1.394 . S
C254 C255 1.369 . S
C254 C258 1.531 . S
C255 C254 1.369 . S
C255 C256 1.410 . S
C255 C263 1.503 . S
C256 C255 1.410 . S
C256 C257 1.392 . S
C256 C259 1.511 . S
C257 C253 1.376 . S
C257 C256 1.392 . S
C257 H269 0.929 . S
C258 C254 1.531 . S
C258 H270 0.960 . S
C258 H271 0.962 . S
C258 H272 0.960 . S
C259 C256 1.511 . S
C259 H273 0.961 . S
C259 H274 0.961 . S
C259 H275 0.961 . S
C260 C261 1.370 . S
C260 C262 1.363 . S
C260 H276 0.931 . S
C261 C260 1.370 . S
C261 C265 1.408 . S
C262 C260 1.363 . S
C262 C263 1.370 . S
C262 C266 1.524 . S
C263 C255 1.503 . S
C263 C262 1.370 . S
C263 C264 1.403 . S
C264 C263 1.403 . S
C264 C265 1.404 . S
C264 C267 1.539 . S
C265 C261 1.408 . S
C265 C264 1.404 . S
C265 H277 0.930 . S
C266 C262 1.524 . S
C266 H278 0.956 . S
C266 H279 0.961 . S
C266 H280 0.961 . S
C267 C264 1.539 . S
C267 H281 0.958 . S
C267 H282 0.961 . S
C267 H283 0.960 . S
H268 C252 0.931 . S
H269 C257 0.929 . S
H270 C258 0.960 . S
H271 C258 0.962 . S
H272 C258 0.960 . S
H273 C259 0.961 . S
H274 C259 0.961 . S
H275 C259 0.961 . S
H276 C260 0.931 . S
H277 C265 0.930 . S
H278 C266 0.956 . S
H279 C266 0.961 . S
H280 C266 0.961 . S
H281 C267 0.958 . S
H282 C267 0.961 . S
H283 C267 0.960 . S
C284 C285 1.391 . S
C284 C286 1.394 . S
C284 H300 0.931 . S
C285 C284 1.391 . S
C285 C289 1.376 . S
C286 C284 1.394 . S
C286 C287 1.369 . S
C286 C290 1.531 . S
C287 C286 1.369 . S
C287 C288 1.410 . S
C287 C295 1.503 1_655 S
C288 C287 1.410 . S
C288 C289 1.392 . S
C288 C291 1.511 . S
C289 C285 1.376 . S
C289 C288 1.392 . S
C289 H301 0.929 . S
C290 C286 1.531 . S
C290 H302 0.960 1_655 S
C290 H303 0.962 . S
C290 H304 0.960 . S
C291 C288 1.511 . S
C291 H305 0.961 . S
C291 H306 0.970 . S
C291 H307 0.961 . S
C292 C293 1.370 . S
C292 C294 1.363 . S
C292 H308 0.931 . S
C293 C292 1.370 . S
C293 C297 1.408 . S
C294 C292 1.363 . S
C294 C295 1.370 . S
C294 C298 1.524 . S
C295 C287 1.503 1_455 S
C295 C294 1.370 . S
C295 C296 1.403 . S
C296 C295 1.403 . S
C296 C297 1.404 . S
C296 C299 1.539 . S
C297 C293 1.408 . S
C297 C296 1.404 . S
C297 H309 0.930 . S
C298 C294 1.524 . S
C298 H310 0.956 1_455 S
C298 H311 0.961 1_455 S
C298 H312 0.961 . S
C299 C296 1.539 . S
C299 H313 0.958 . S
C299 H314 0.961 . S
C299 H315 0.960 . S
H300 C284 0.931 . S
H301 C289 0.929 . S
H302 C290 0.960 1_455 S
H303 C290 0.962 . S
H304 C290 0.960 . S
H305 C291 0.961 . S
H306 C291 0.970 . S
H307 C291 0.961 . S
H308 C292 0.931 . S
H309 C297 0.930 . S
H310 C298 0.956 1_655 S
H311 C298 0.961 1_655 S
H312 C298 0.961 . S
H313 C299 0.958 . S
H314 C299 0.961 . S
H315 C299 0.960 . S
C316 C317 1.391 1_556 S
C316 C318 1.394 . S
C316 H332 0.931 . S
C317 C316 1.391 1_554 S
C317 C321 1.376 . S
C318 C316 1.394 . S
C318 C319 1.369 . S
C318 C322 1.531 . S
C319 C318 1.369 . S
C319 C320 1.410 1_556 S
C319 C327 1.503 1_565 S
C320 C319 1.410 1_554 S
C320 C321 1.392 . S
C320 C323 1.511 . S
C321 C317 1.376 . S
C321 C320 1.392 . S
C321 H333 0.929 . S
C322 C318 1.531 . S
C322 H334 0.960 . S
C322 H335 0.962 . S
C322 H336 0.960 . S
C323 C320 1.511 . S
C323 H337 0.961 . S
C323 H338 0.961 1_565 S
C323 H339 0.961 1_554 S
C324 C325 1.370 1_554 S
C324 C326 1.363 . S
C324 H340 0.931 . S
C325 C324 1.370 1_556 S
C325 C329 1.408 . S
C326 C324 1.363 . S
C326 C327 1.370 1_554 S
C326 C330 1.524 . S
C327 C319 1.503 1_545 S
C327 C326 1.370 1_556 S
C327 C328 1.403 . S
C328 C327 1.403 . S
C328 C329 1.404 . S
C328 C331 1.539 . S
C329 C325 1.408 . S
C329 C328 1.404 . S
C329 H341 0.930 . S
C330 C326 1.524 . S
C330 H342 0.956 . S
C330 H343 0.961 . S
C330 H344 0.961 . S
C331 C328 1.539 . S
C331 H345 0.958 . S
C331 H346 0.961 . S
C331 H347 0.960 1_545 S
H332 C316 0.931 . S
H333 C321 0.929 . S
H334 C322 0.960 . S
H335 C322 0.962 . S
H336 C322 0.960 . S
H337 C323 0.961 . S
H338 C323 0.961 1_545 S
H339 C323 0.961 1_556 S
H340 C324 0.931 . S
H341 C329 0.930 . S
H342 C330 0.956 . S
H343 C330 0.961 . S
H344 C330 0.961 . S
H345 C331 0.958 . S
H346 C331 0.961 . S
H347 C331 0.960 1_565 S
C348 C349 1.391 . S
C348 C350 1.394 . S
C348 H364 0.931 . S
C349 C348 1.391 . S
C349 C353 1.376 . S
C350 C348 1.394 . S
C350 C351 1.369 . S
C350 C354 1.531 1_556 S
C351 C350 1.369 . S
C351 C352 1.410 . S
C351 C359 1.503 1_556 S
C352 C351 1.410 . S
C352 C353 1.392 . S
C352 C355 1.511 . S
C353 C349 1.376 . S
C353 C352 1.392 . S
C353 H365 0.929 . S
C354 C350 1.531 1_554 S
C354 H366 0.960 . S
C354 H367 0.962 . S
C354 H368 0.960 1_554 S
C355 C352 1.511 . S
C355 H369 0.961 . S
C355 H370 0.961 . S
C355 H371 0.961 . S
C356 C357 1.370 . S
C356 C358 1.363 . S
C356 H372 0.931 . S
C357 C356 1.370 . S
C357 C361 1.408 . S
C358 C356 1.363 . S
C358 C359 1.370 . S
C358 C362 1.524 . S
C359 C351 1.503 1_554 S
C359 C358 1.370 . S
C359 C360 1.403 . S
C360 C359 1.403 . S
C360 C361 1.404 . S
C360 C363 1.539 1_554 S
C361 C357 1.408 . S
C361 C360 1.404 . S
C361 H373 0.930 . S
C362 C358 1.524 . S
C362 H374 0.956 . S
C362 H375 0.961 . S
C362 H376 0.961 . S
C363 C360 1.539 1_556 S
C363 H377 0.958 . S
C363 H378 0.961 . S
C363 H379 0.960 . S
H364 C348 0.931 . S
H365 C353 0.929 . S
H366 C354 0.960 . S
H367 C354 0.962 . S
H368 C354 0.960 1_556 S
H369 C355 0.961 . S
H370 C355 0.961 . S
H371 C355 0.961 . S
H372 C356 0.931 . S
H373 C361 0.930 . S
H374 C362 0.956 . S
H375 C362 0.961 . S
H376 C362 0.961 . S
H377 C363 0.958 . S
H378 C363 0.961 . S
H379 C363 0.960 . S
C380 C381 1.391 . S
C380 C382 1.394 . S
C380 H396 0.931 . S
C381 C380 1.391 . S
C381 C385 1.376 . S
C382 C380 1.394 . S
C382 C383 1.369 . S
C382 C386 1.531 . S
C383 C382 1.369 . S
C383 C384 1.410 . S
C383 C391 1.503 . S
C384 C383 1.410 . S
C384 C385 1.392 . S
C384 C387 1.511 . S
C385 C381 1.376 . S
C385 C384 1.392 . S
C385 H397 0.929 . S
C386 C382 1.531 . S
C386 H398 0.960 . S
C386 H399 0.962 . S
C386 H400 0.960 . S
C387 C384 1.511 . S
C387 H401 0.961 . S
C387 H402 0.961 . S
C387 H403 0.961 . S
C388 C389 1.370 . S
C388 C390 1.363 . S
C388 H404 0.931 . S
C389 C388 1.370 . S
C389 C393 1.408 . S
C390 C388 1.363 . S
C390 C391 1.370 . S
C390 C394 1.524 . S
C391 C383 1.503 . S
C391 C390 1.370 . S
C391 C392 1.403 . S
C392 C391 1.403 . S
C392 C393 1.404 . S
C392 C395 1.539 . S
C393 C389 1.408 . S
C393 C392 1.404 . S
C393 H405 0.930 . S
C394 C390 1.524 . S
C394 H406 0.956 . S
C394 H407 0.961 . S
C394 H408 0.961 . S
C395 C392 1.539 . S
C395 H409 0.958 . S
C395 H410 0.961 . S
C395 H411 0.960 . S
H396 C380 0.931 . S
H397 C385 0.929 . S
H398 C386 0.960 . S
H399 C386 0.962 . S
H400 C386 0.960 . S
H401 C387 0.961 . S
H402 C387 0.961 . S
H403 C387 0.961 . S
H404 C388 0.931 . S
H405 C393 0.930 . S
H406 C394 0.956 . S
H407 C394 0.961 . S
H408 C394 0.961 . S
H409 C395 0.958 . S
H410 C395 0.961 . S
H411 C395 0.960 . S
C412 C413 1.391 . S
C412 C414 1.394 . S
C412 H428 0.931 . S
C413 C412 1.391 . S
C413 C417 1.376 . S
C414 C412 1.394 . S
C414 C415 1.369 . S
C414 C418 1.531 . S
C415 C414 1.369 . S
C415 C416 1.410 . S
C415 C423 1.503 . S
C416 C415 1.410 . S
C416 C417 1.392 . S
C416 C419 1.511 . S
C417 C413 1.376 . S
C417 C416 1.392 . S
C417 H429 0.929 . S
C418 C414 1.531 . S
C418 H430 0.960 . S
C418 H431 0.962 . S
C418 H432 0.960 . S
C419 C416 1.511 . S
C419 H433 0.961 . S
C419 H434 0.961 . S
C419 H435 0.961 . S
C420 C421 1.370 . S
C420 C422 1.363 . S
C420 H436 0.931 . S
C421 C420 1.370 . S
C421 C425 1.408 . S
C422 C420 1.363 . S
C422 C423 1.370 . S
C422 C426 1.524 . S
C423 C415 1.503 . S
C423 C422 1.370 . S
C423 C424 1.403 . S
C424 C423 1.403 . S
C424 C425 1.404 . S
C424 C427 1.539 . S
C425 C421 1.408 . S
C425 C424 1.404 . S
C425 H437 0.930 . S
C426 C422 1.524 . S
C426 H438 0.956 . S
C426 H439 0.961 . S
C426 H440 0.961 . S
C427 C424 1.539 . S
C427 H441 0.958 . S
C427 H442 0.961 . S
C427 H443 0.960 . S
H428 C412 0.931 . S
H429 C417 0.929 . S
H430 C418 0.960 . S
H431 C418 0.962 . S
H432 C418 0.960 . S
H433 C419 0.961 . S
H434 C419 0.961 . S
H435 C419 0.961 . S
H436 C420 0.931 . S
H437 C425 0.930 . S
H438 C426 0.956 . S
H439 C426 0.961 . S
H440 C426 0.961 . S
H441 C427 0.958 . S
H442 C427 0.961 . S
H443 C427 0.960 . S
C444 C445 1.391 . S
C444 C446 1.394 . S
C444 H460 0.931 . S
C445 C444 1.391 . S
C445 C449 1.376 . S
C446 C444 1.394 . S
C446 C447 1.369 . S
C446 C450 1.531 . S
C447 C446 1.369 . S
C447 C448 1.410 . S
C447 C455 1.503 1_554 S
C448 C447 1.410 . S
C448 C449 1.392 . S
C448 C451 1.511 1_554 S
C449 C445 1.376 . S
C449 C448 1.392 . S
C449 H461 0.929 . S
C450 C446 1.531 . S
C450 H462 0.960 . S
C450 H463 0.962 . S
C450 H464 0.960 . S
C451 C448 1.511 1_556 S
C451 H465 0.961 . S
C451 H466 0.961 . S
C451 H467 0.961 . S
C452 C453 1.370 . S
C452 C454 1.363 . S
C452 H468 0.931 . S
C453 C452 1.370 . S
C453 C457 1.408 . S
C454 C452 1.363 . S
C454 C455 1.370 . S
C454 C458 1.524 1_556 S
C455 C447 1.503 1_556 S
C455 C454 1.370 . S
C455 C456 1.403 . S
C456 C455 1.403 . S
C456 C457 1.404 . S
C456 C459 1.539 . S
C457 C453 1.408 . S
C457 C456 1.404 . S
C457 H469 0.930 . S
C458 C454 1.524 1_554 S
C458 H470 0.956 . S
C458 H471 0.961 . S
C458 H472 0.961 1_554 S
C459 C456 1.539 . S
C459 H473 0.958 . S
C459 H474 0.961 . S
C459 H475 0.960 . S
H460 C444 0.931 . S
H461 C449 0.929 . S
H462 C450 0.960 . S
H463 C450 0.962 . S
H464 C450 0.960 . S
H465 C451 0.961 . S
H466 C451 0.961 . S
H467 C451 0.961 . S
H468 C452 0.931 . S
H469 C457 0.930 . S
H470 C458 0.956 . S
H471 C458 0.961 . S
H472 C458 0.961 1_556 S
H473 C459 0.958 . S
H474 C459 0.961 . S
H475 C459 0.960 . S
C476 C477 1.391 . S
C476 C478 1.394 . S
C476 H492 0.931 . S
C477 C476 1.391 . S
C477 C481 1.376 . S
C478 C476 1.394 . S
C478 C479 1.369 . S
C478 C482 1.531 . S
C479 C478 1.369 . S
C479 C480 1.410 . S
C479 C487 1.503 . S
C480 C479 1.410 . S
C480 C481 1.392 . S
C480 C483 1.511 . S
C481 C477 1.376 . S
C481 C480 1.392 . S
C481 H493 0.929 . S
C482 C478 1.531 . S
C482 H494 0.960 . S
C482 H495 0.962 . S
C482 H496 0.960 . S
C483 C480 1.511 . S
C483 H497 0.961 . S
C483 H498 0.961 . S
C483 H499 0.961 . S
C484 C485 1.370 . S
C484 C486 1.363 . S
C484 H500 0.931 . S
C485 C484 1.370 . S
C485 C489 1.408 . S
C486 C484 1.363 . S
C486 C487 1.370 . S
C486 C490 1.524 . S
C487 C479 1.503 . S
C487 C486 1.370 . S
C487 C488 1.403 . S
C488 C487 1.403 . S
C488 C489 1.404 . S
C488 C491 1.539 . S
C489 C485 1.408 . S
C489 C488 1.404 . S
C489 H501 0.930 . S
C490 C486 1.524 . S
C490 H502 0.956 . S
C490 H503 0.961 . S
C490 H504 0.961 . S
C491 C488 1.539 . S
C491 H505 0.958 . S
C491 H506 0.961 . S
C491 H507 0.960 . S
H492 C476 0.931 . S
H493 C481 0.929 . S
H494 C482 0.960 . S
H495 C482 0.962 . S
H496 C482 0.960 . S
H497 C483 0.961 . S
H498 C483 0.961 . S
H499 C483 0.961 . S
H500 C484 0.931 . S
H501 C489 0.930 . S
H502 C490 0.956 . S
H503 C490 0.961 . S
H504 C490 0.961 . S
H505 C491 0.958 . S
H506 C491 0.961 . S
H507 C491 0.960 . S
C508 C509 1.391 . S
C508 C510 1.394 . S
C508 H524 0.931 . S
C509 C508 1.391 . S
C509 C513 1.376 . S
C510 C508 1.394 . S
C510 C511 1.369 . S
C510 C514 1.531 . S
C511 C510 1.369 . S
C511 C512 1.410 . S
C511 C519 1.503 . S
C512 C511 1.410 . S
C512 C513 1.392 . S
C512 C515 1.511 . S
C513 C509 1.376 . S
C513 C512 1.392 . S
C513 H525 0.929 . S
C514 C510 1.531 . S
C514 H526 0.960 . S
C514 H527 0.962 . S
C514 H528 0.960 . S
C515 C512 1.511 . S
C515 H529 0.961 . S
C515 H530 0.961 . S
C515 H531 0.961 . S
C516 C517 1.370 . S
C516 C518 1.363 . S
C516 H532 0.931 . S
C517 C516 1.370 . S
C517 C521 1.408 . S
C518 C516 1.363 . S
C518 C519 1.370 . S
C518 C522 1.524 . S
C519 C511 1.503 . S
C519 C518 1.370 . S
C519 C520 1.403 . S
C520 C519 1.403 . S
C520 C521 1.404 . S
C520 C523 1.539 . S
C521 C517 1.408 . S
C521 C520 1.404 . S
C521 H533 0.930 . S
C522 C518 1.524 . S
C522 H534 0.956 . S
C522 H535 0.961 . S
C522 H536 0.961 . S
C523 C520 1.539 . S
C523 H537 0.958 . S
C523 H538 0.961 . S
C523 H539 0.960 . S
H524 C508 0.931 . S
H525 C513 0.929 . S
H526 C514 0.960 . S
H527 C514 0.962 . S
H528 C514 0.960 . S
H529 C515 0.961 . S
H530 C515 0.961 . S
H531 C515 0.961 . S
H532 C516 0.931 . S
H533 C521 0.930 . S
H534 C522 0.956 . S
H535 C522 0.961 . S
H536 C522 0.961 . S
H537 C523 0.958 . S
H538 C523 0.961 . S
H539 C523 0.960 . S
C540 C541 1.391 . S
C540 C542 1.394 . S
C540 H556 0.931 . S
C541 C540 1.391 . S
C541 C545 1.376 . S
C542 C540 1.394 . S
C542 C543 1.369 . S
C542 C546 1.531 . S
C543 C542 1.369 . S
C543 C544 1.410 . S
C543 C551 1.503 . S
C544 C543 1.410 . S
C544 C545 1.392 . S
C544 C547 1.511 . S
C545 C541 1.376 . S
C545 C544 1.392 . S
C545 H557 0.929 . S
C546 C542 1.531 . S
C546 H558 0.960 . S
C546 H559 0.962 . S
C546 H560 0.960 . S
C547 C544 1.511 . S
C547 H561 0.961 . S
C547 H562 0.961 . S
C547 H563 0.961 . S
C548 C549 1.370 . S
C548 C550 1.363 . S
C548 H564 0.931 . S
C549 C548 1.370 . S
C549 C553 1.408 . S
C550 C548 1.363 . S
C550 C551 1.370 . S
C550 C554 1.524 . S
C551 C543 1.503 . S
C551 C550 1.370 . S
C551 C552 1.403 . S
C552 C551 1.403 . S
C552 C553 1.404 . S
C552 C555 1.539 . S
C553 C549 1.408 . S
C553 C552 1.404 . S
C553 H565 0.930 . S
C554 C550 1.524 . S
C554 H566 0.956 . S
C554 H567 0.961 . S
C554 H568 0.961 . S
C555 C552 1.539 . S
C555 H569 0.958 . S
C555 H570 0.961 . S
C555 H571 0.960 . S
H556 C540 0.931 . S
H557 C545 0.929 . S
H558 C546 0.960 . S
H559 C546 0.962 . S
H560 C546 0.960 . S
H561 C547 0.961 . S
H562 C547 0.961 . S
H563 C547 0.961 . S
H564 C548 0.931 . S
H565 C553 0.930 . S
H566 C554 0.956 . S
H567 C554 0.961 . S
H568 C554 0.961 . S
H569 C555 0.958 . S
H570 C555 0.961 . S
H571 C555 0.960 . S
C572 C573 1.391 . S
C572 C574 1.394 . S
C572 H588 0.931 . S
C573 C572 1.391 . S
C573 C577 1.376 . S
C574 C572 1.394 . S
C574 C575 1.369 . S
C574 C578 1.531 . S
C575 C574 1.369 . S
C575 C576 1.410 . S
C575 C583 1.503 . S
C576 C575 1.410 . S
C576 C577 1.392 . S
C576 C579 1.511 . S
C577 C573 1.376 . S
C577 C576 1.392 . S
C577 H589 0.929 . S
C578 C574 1.531 . S
C578 H590 0.960 . S
C578 H591 0.962 . S
C578 H592 0.960 . S
C579 C576 1.511 . S
C579 H593 0.961 . S
C579 H594 0.961 . S
C579 H595 0.961 . S
C580 C581 1.370 . S
C580 C582 1.363 . S
C580 H596 0.931 . S
C581 C580 1.370 . S
C581 C585 1.408 . S
C582 C580 1.363 . S
C582 C583 1.370 . S
C582 C586 1.524 . S
C583 C575 1.503 . S
C583 C582 1.370 . S
C583 C584 1.403 . S
C584 C583 1.403 . S
C584 C585 1.404 . S
C584 C587 1.539 . S
C585 C581 1.408 . S
C585 C584 1.404 . S
C585 H597 0.930 . S
C586 C582 1.524 . S
C586 H598 0.956 . S
C586 H599 0.961 . S
C586 H600 0.961 . S
C587 C584 1.539 . S
C587 H601 0.958 . S
C587 H602 0.961 . S
C587 H603 0.960 . S
H588 C572 0.931 . S
H589 C577 0.929 . S
H590 C578 0.960 . S
H591 C578 0.962 . S
H592 C578 0.960 . S
H593 C579 0.961 . S
H594 C579 0.961 . S
H595 C579 0.961 . S
H596 C580 0.931 . S
H597 C585 0.930 . S
H598 C586 0.956 . S
H599 C586 0.961 . S
H600 C586 0.961 . S
H601 C587 0.958 . S
H602 C587 0.961 . S
H603 C587 0.960 . S
C604 C605 1.391 . S
C604 C606 1.394 . S
C604 H620 0.931 . S
C605 C604 1.391 . S
C605 C609 1.376 . S
C606 C604 1.394 . S
C606 C607 1.369 . S
C606 C610 1.531 . S
C607 C606 1.369 . S
C607 C608 1.410 . S
C607 C615 1.503 . S
C608 C607 1.410 . S
C608 C609 1.392 . S
C608 C611 1.511 . S
C609 C605 1.376 . S
C609 C608 1.392 . S
C609 H621 0.929 . S
C610 C606 1.531 . S
C610 H622 0.960 . S
C610 H623 0.962 . S
C610 H624 0.960 . S
C611 C608 1.511 . S
C611 H625 0.961 . S
C611 H626 0.961 . S
C611 H627 0.961 . S
C612 C613 1.370 . S
C612 C614 1.363 . S
C612 H628 0.931 . S
C613 C612 1.370 . S
C613 C617 1.408 . S
C614 C612 1.363 . S
C614 C615 1.370 . S
C614 C618 1.524 . S
C615 C607 1.503 . S
C615 C614 1.370 . S
C615 C616 1.403 . S
C616 C615 1.403 . S
C616 C617 1.404 . S
C616 C619 1.539 . S
C617 C613 1.408 . S
C617 C616 1.404 . S
C617 H629 0.930 . S
C618 C614 1.524 . S
C618 H630 0.956 . S
C618 H631 0.961 . S
C618 H632 0.961 . S
C619 C616 1.539 . S
C619 H633 0.958 . S
C619 H634 0.961 . S
C619 H635 0.960 . S
H620 C604 0.931 . S
H621 C609 0.929 . S
H622 C610 0.960 . S
H623 C610 0.962 . S
H624 C610 0.960 . S
H625 C611 0.961 . S
H626 C611 0.961 . S
H627 C611 0.961 . S
H628 C612 0.931 . S
H629 C617 0.930 . S
H630 C618 0.956 . S
H631 C618 0.961 . S
H632 C618 0.961 . S
H633 C619 0.958 . S
H634 C619 0.961 . S
H635 C619 0.960 . S
C636 C637 1.391 . S
C636 C638 1.394 . S
C636 H652 0.931 . S
C637 C636 1.391 . S
C637 C641 1.376 . S
C638 C636 1.394 . S
C638 C639 1.369 . S
C638 C642 1.531 . S
C639 C638 1.369 . S
C639 C640 1.410 . S
C639 C647 1.503 . S
C640 C639 1.410 . S
C640 C641 1.392 . S
C640 C643 1.511 . S
C641 C637 1.376 . S
C641 C640 1.392 . S
C641 H653 0.929 . S
C642 C638 1.531 . S
C642 H654 0.960 . S
C642 H655 0.962 . S
C642 H656 0.960 . S
C643 C640 1.511 . S
C643 H657 0.961 . S
C643 H658 0.961 . S
C643 H659 0.961 . S
C644 C645 1.370 . S
C644 C646 1.363 . S
C644 H660 0.931 . S
C645 C644 1.370 . S
C645 C649 1.408 . S
C646 C644 1.363 . S
C646 C647 1.370 . S
C646 C650 1.524 . S
C647 C639 1.503 . S
C647 C646 1.370 . S
C647 C648 1.403 . S
C648 C647 1.403 . S
C648 C649 1.404 . S
C648 C651 1.539 . S
C649 C645 1.408 . S
C649 C648 1.404 . S
C649 H661 0.930 . S
C650 C646 1.524 . S
C650 H662 0.956 . S
C650 H663 0.961 . S
C650 H664 0.961 . S
C651 C648 1.539 . S
C651 H665 0.958 . S
C651 H666 0.961 . S
C651 H667 0.960 . S
H652 C636 0.931 . S
H653 C641 0.929 . S
H654 C642 0.960 . S
H655 C642 0.962 . S
H656 C642 0.960 . S
H657 C643 0.961 . S
H658 C643 0.961 . S
H659 C643 0.961 . S
H660 C644 0.931 . S
H661 C649 0.930 . S
H662 C650 0.956 . S
H663 C650 0.961 . S
H664 C650 0.961 . S
H665 C651 0.958 . S
H666 C651 0.961 . S
H667 C651 0.960 . S
C668 C669 1.391 . S
C668 C670 1.394 . S
C668 H684 0.931 . S
C669 C668 1.391 . S
C669 C673 1.376 . S
C670 C668 1.394 . S
C670 C671 1.369 . S
C670 C674 1.531 . S
C671 C670 1.369 . S
C671 C672 1.410 . S
C671 C679 1.503 . S
C672 C671 1.410 . S
C672 C673 1.392 . S
C672 C675 1.511 . S
C673 C669 1.376 . S
C673 C672 1.392 . S
C673 H685 0.929 . S
C674 C670 1.531 . S
C674 H686 0.960 . S
C674 H687 0.962 . S
C674 H688 0.960 . S
C675 C672 1.511 . S
C675 H689 0.961 . S
C675 H690 0.961 . S
C675 H691 0.961 . S
C676 C677 1.370 . S
C676 C678 1.363 . S
C676 H692 0.931 . S
C677 C676 1.370 . S
C677 C681 1.408 . S
C678 C676 1.363 . S
C678 C679 1.370 . S
C678 C682 1.524 . S
C679 C671 1.503 . S
C679 C678 1.370 . S
C679 C680 1.403 . S
C680 C679 1.403 . S
C680 C681 1.404 . S
C680 C683 1.539 . S
C681 C677 1.408 . S
C681 C680 1.404 . S
C681 H693 0.930 . S
C682 C678 1.524 . S
C682 H694 0.956 . S
C682 H695 0.961 . S
C682 H696 0.961 . S
C683 C680 1.539 . S
C683 H697 0.958 . S
C683 H698 0.961 . S
C683 H699 0.960 . S
H684 C668 0.931 . S
H685 C673 0.929 . S
H686 C674 0.960 . S
H687 C674 0.962 . S
H688 C674 0.960 . S
H689 C675 0.961 . S
H690 C675 0.961 . S
H691 C675 0.961 . S
H692 C676 0.931 . S
H693 C681 0.930 . S
H694 C682 0.956 . S
H695 C682 0.961 . S
H696 C682 0.961 . S
H697 C683 0.958 . S
H698 C683 0.961 . S
H699 C683 0.960 . S
C700 C701 1.391 . S
C700 C702 1.394 . S
C700 H716 0.931 . S
C701 C700 1.391 . S
C701 C705 1.376 . S
C702 C700 1.394 . S
C702 C703 1.369 . S
C702 C706 1.531 . S
C703 C702 1.369 . S
C703 C704 1.410 . S
C703 C711 1.503 . S
C704 C703 1.410 . S
C704 C705 1.392 . S
C704 C707 1.511 . S
C705 C701 1.376 . S
C705 C704 1.392 . S
C705 H717 0.929 . S
C706 C702 1.531 . S
C706 H718 0.960 . S
C706 H719 0.962 . S
C706 H720 0.960 . S
C707 C704 1.511 . S
C707 H721 0.961 . S
C707 H722 0.961 . S
C707 H723 0.961 . S
C708 C709 1.370 . S
C708 C710 1.363 . S
C708 H724 0.931 . S
C709 C708 1.370 . S
C709 C713 1.408 . S
C710 C708 1.363 . S
C710 C711 1.370 . S
C710 C714 1.524 . S
C711 C703 1.503 . S
C711 C710 1.370 . S
C711 C712 1.403 . S
C712 C711 1.403 . S
C712 C713 1.404 . S
C712 C715 1.539 . S
C713 C709 1.408 . S
C713 C712 1.404 . S
C713 H725 0.930 . S
C714 C710 1.524 . S
C714 H726 0.956 . S
C714 H727 0.961 . S
C714 H728 0.961 . S
C715 C712 1.539 . S
C715 H729 0.958 . S
C715 H730 0.961 . S
C715 H731 0.960 . S
H716 C700 0.931 . S
H717 C705 0.929 . S
H718 C706 0.960 . S
H719 C706 0.962 . S
H720 C706 0.960 . S
H721 C707 0.961 . S
H722 C707 0.961 . S
H723 C707 0.961 . S
H724 C708 0.931 . S
H725 C713 0.930 . S
H726 C714 0.956 . S
H727 C714 0.961 . S
H728 C714 0.961 . S
H729 C715 0.958 . S
H730 C715 0.961 . S
H731 C715 0.960 . S
C732 C733 1.391 . S
C732 C734 1.394 . S
C732 H748 0.931 . S
C733 C732 1.391 . S
C733 C737 1.376 . S
C734 C732 1.394 . S
C734 C735 1.369 . S
C734 C738 1.531 . S
C735 C734 1.369 . S
C735 C736 1.410 . S
C735 C743 1.503 . S
C736 C735 1.410 . S
C736 C737 1.392 . S
C736 C739 1.511 . S
C737 C733 1.376 . S
C737 C736 1.392 . S
C737 H749 0.929 . S
C738 C734 1.531 . S
C738 H750 0.960 . S
C738 H751 0.962 . S
C738 H752 0.960 . S
C739 C736 1.511 . S
C739 H753 0.961 . S
C739 H754 0.961 . S
C739 H755 0.961 . S
C740 C741 1.370 . S
C740 C742 1.363 . S
C740 H756 0.931 . S
C741 C740 1.370 . S
C741 C745 1.408 . S
C742 C740 1.363 . S
C742 C743 1.370 . S
C742 C746 1.524 . S
C743 C735 1.503 . S
C743 C742 1.370 . S
C743 C744 1.403 . S
C744 C743 1.403 . S
C744 C745 1.404 . S
C744 C747 1.539 . S
C745 C741 1.408 . S
C745 C744 1.404 . S
C745 H757 0.930 . S
C746 C742 1.524 . S
C746 H758 0.956 . S
C746 H759 0.961 . S
C746 H760 0.961 . S
C747 C744 1.539 . S
C747 H761 0.958 . S
C747 H762 0.961 . S
C747 H763 0.960 . S
H748 C732 0.931 . S
H749 C737 0.929 . S
H750 C738 0.960 . S
H751 C738 0.962 . S
H752 C738 0.960 . S
H753 C739 0.961 . S
H754 C739 0.961 . S
H755 C739 0.961 . S
H756 C740 0.931 . S
H757 C745 0.930 . S
H758 C746 0.956 . S
H759 C746 0.961 . S
H760 C746 0.961 . S
H761 C747 0.958 . S
H762 C747 0.961 . S
H763 C747 0.960 . S
C764 C765 1.391 . S
C764 C766 1.394 . S
C764 H780 0.931 . S
C765 C764 1.391 . S
C765 C769 1.376 . S
C766 C764 1.394 . S
C766 C767 1.369 . S
C766 C770 1.531 . S
C767 C766 1.369 . S
C767 C768 1.410 . S
C767 C775 1.503 . S
C768 C767 1.410 . S
C768 C769 1.392 . S
C768 C771 1.511 . S
C769 C765 1.376 . S
C769 C768 1.392 . S
C769 H781 0.929 . S
C770 C766 1.531 . S
C770 H782 0.960 . S
C770 H783 0.962 . S
C770 H784 0.960 . S
C771 C768 1.511 . S
C771 H785 0.961 . S
C771 H786 0.961 . S
C771 H787 0.961 . S
C772 C773 1.370 . S
C772 C774 1.363 . S
C772 H788 0.931 . S
C773 C772 1.370 . S
C773 C777 1.408 . S
C774 C772 1.363 . S
C774 C775 1.370 . S
C774 C778 1.524 . S
C775 C767 1.503 . S
C775 C774 1.370 . S
C775 C776 1.403 . S
C776 C775 1.403 . S
C776 C777 1.404 . S
C776 C779 1.539 . S
C777 C773 1.408 . S
C777 C776 1.404 . S
C777 H789 0.930 . S
C778 C774 1.524 . S
C778 H790 0.956 . S
C778 H791 0.961 . S
C778 H792 0.961 . S
C779 C776 1.539 . S
C779 H793 0.958 . S
C779 H794 0.961 . S
C779 H795 0.960 . S
H780 C764 0.931 . S
H781 C769 0.929 . S
H782 C770 0.960 . S
H783 C770 0.962 . S
H784 C770 0.960 . S
H785 C771 0.961 . S
H786 C771 0.961 . S
H787 C771 0.961 . S
H788 C772 0.931 . S
H789 C777 0.930 . S
H790 C778 0.956 . S
H791 C778 0.961 . S
H792 C778 0.961 . S
H793 C779 0.958 . S
H794 C779 0.961 . S
H795 C779 0.960 . S
C796 C797 1.391 . S
C796 C798 1.394 . S
C796 H812 0.931 . S
C797 C796 1.391 . S
C797 C801 1.376 1_556 S
C798 C796 1.394 . S
C798 C799 1.369 . S
C798 C802 1.531 . S
C799 C798 1.369 . S
C799 C800 1.410 1_556 S
C799 C807 1.503 1_556 S
C800 C799 1.410 1_554 S
C800 C801 1.392 . S
C800 C803 1.511 . S
C801 C797 1.376 1_554 S
C801 C800 1.392 . S
C801 H813 0.929 . S
C802 C798 1.531 . S
C802 H814 0.960 . S
C802 H815 0.962 . S
C802 H816 0.960 . S
C803 C800 1.511 . S
C803 H817 0.961 . S
C803 H818 0.961 . S
C803 H819 0.961 . S
C804 C805 1.370 . S
C804 C806 1.363 . S
C804 H820 0.931 . S
C805 C804 1.370 . S
C805 C809 1.408 1_554 S
C806 C804 1.363 . S
C806 C807 1.370 . S
C806 C810 1.524 . S
C807 C799 1.503 1_554 S
C807 C806 1.370 . S
C807 C808 1.403 1_554 S
C808 C807 1.403 1_556 S
C808 C809 1.404 . S
C808 C811 1.539 . S
C809 C805 1.408 1_556 S
C809 C808 1.404 . S
C809 H821 0.930 . S
C810 C806 1.524 . S
C810 H822 0.956 . S
C810 H823 0.961 . S
C810 H824 0.961 . S
C811 C808 1.539 . S
C811 H825 0.958 . S
C811 H826 0.961 . S
C811 H827 0.960 . S
H812 C796 0.931 . S
H813 C801 0.929 . S
H814 C802 0.960 . S
H815 C802 0.962 . S
H816 C802 0.960 . S
H817 C803 0.961 . S
H818 C803 0.961 . S
H819 C803 0.961 . S
H820 C804 0.931 . S
H821 C809 0.930 . S
H822 C810 0.956 . S
H823 C810 0.961 . S
H824 C810 0.961 . S
H825 C811 0.958 . S
H826 C811 0.961 . S
H827 C811 0.960 . S
C828 C829 1.391 . S
C828 C830 1.394 . S
C828 H844 0.931 . S
C829 C828 1.391 . S
C829 C833 1.376 . S
C830 C828 1.394 . S
C830 C831 1.369 . S
C830 C834 1.531 . S
C831 C830 1.369 . S
C831 C832 1.410 . S
C831 C839 1.503 . S
C832 C831 1.410 . S
C832 C833 1.392 . S
C832 C835 1.511 . S
C833 C829 1.376 . S
C833 C832 1.392 . S
C833 H845 0.929 . S
C834 C830 1.531 . S
C834 H846 0.960 . S
C834 H847 0.962 . S
C834 H848 0.960 . S
C835 C832 1.511 . S
C835 H849 0.961 . S
C835 H850 0.961 . S
C835 H851 0.961 . S
C836 C837 1.370 . S
C836 C838 1.363 . S
C836 H852 0.931 . S
C837 C836 1.370 . S
C837 C841 1.408 . S
C838 C836 1.363 . S
C838 C839 1.370 . S
C838 C842 1.524 . S
C839 C831 1.503 . S
C839 C838 1.370 . S
C839 C840 1.403 . S
C840 C839 1.403 . S
C840 C841 1.404 . S
C840 C843 1.539 . S
C841 C837 1.408 . S
C841 C840 1.404 . S
C841 H853 0.930 . S
C842 C838 1.524 . S
C842 H854 0.956 . S
C842 H855 0.961 . S
C842 H856 0.961 . S
C843 C840 1.539 . S
C843 H857 0.958 . S
C843 H858 0.961 . S
C843 H859 0.960 . S
H844 C828 0.931 . S
H845 C833 0.929 . S
H846 C834 0.960 . S
H847 C834 0.962 . S
H848 C834 0.960 . S
H849 C835 0.961 . S
H850 C835 0.961 . S
H851 C835 0.961 . S
H852 C836 0.931 . S
H853 C841 0.930 . S
H854 C842 0.956 . S
H855 C842 0.961 . S
H856 C842 0.961 . S
H857 C843 0.958 . S
H858 C843 0.961 . S
H859 C843 0.960 . S
C860 C861 1.391 . S
C860 C862 1.394 . S
C860 H876 0.931 . S
C861 C860 1.391 . S
C861 C865 1.376 . S
C862 C860 1.394 . S
C862 C863 1.369 . S
C862 C866 1.531 . S
C863 C862 1.369 . S
C863 C864 1.410 . S
C863 C871 1.503 . S
C864 C863 1.410 . S
C864 C865 1.392 . S
C864 C867 1.511 . S
C865 C861 1.376 . S
C865 C864 1.392 . S
C865 H877 0.929 . S
C866 C862 1.531 . S
C866 H878 0.960 . S
C866 H879 0.962 . S
C866 H880 0.960 . S
C867 C864 1.511 . S
C867 H881 0.961 . S
C867 H882 0.961 . S
C867 H883 0.961 . S
C868 C869 1.370 . S
C868 C870 1.363 . S
C868 H884 0.931 . S
C869 C868 1.370 . S
C869 C873 1.408 . S
C870 C868 1.363 . S
C870 C871 1.370 . S
C870 C874 1.524 . S
C871 C863 1.503 . S
C871 C870 1.370 . S
C871 C872 1.403 . S
C872 C871 1.403 . S
C872 C873 1.404 . S
C872 C875 1.539 . S
C873 C869 1.408 . S
C873 C872 1.404 . S
C873 H885 0.930 . S
C874 C870 1.524 . S
C874 H886 0.956 . S
C874 H887 0.961 . S
C874 H888 0.961 . S
C875 C872 1.539 . S
C875 H889 0.958 . S
C875 H890 0.961 . S
C875 H891 0.960 . S
H876 C860 0.931 . S
H877 C865 0.929 . S
H878 C866 0.960 . S
H879 C866 0.962 . S
H880 C866 0.960 . S
H881 C867 0.961 . S
H882 C867 0.961 . S
H883 C867 0.961 . S
H884 C868 0.931 . S
H885 C873 0.930 . S
H886 C874 0.956 . S
H887 C874 0.961 . S
H888 C874 0.961 . S
H889 C875 0.958 . S
H890 C875 0.961 . S
H891 C875 0.960 . S
C892 C893 1.391 1_556 S
C892 C894 1.394 . S
C892 H908 0.931 . S
C893 C892 1.391 1_554 S
C893 C897 1.376 . S
C894 C892 1.394 . S
C894 C895 1.369 1_556 S
C894 C898 1.531 . S
C895 C894 1.369 1_554 S
C895 C896 1.410 . S
C895 C903 1.500 1_554 S
C896 C895 1.410 . S
C896 C897 1.392 . S
C896 C899 1.511 . S
C897 C893 1.376 . S
C897 C896 1.392 . S
C897 H909 0.929 . S
C898 C894 1.531 . S
C898 H910 0.960 . S
C898 H911 0.962 . S
C898 H912 0.960 . S
C899 C896 1.511 . S
C899 H913 0.961 . S
C899 H914 0.961 . S
C899 H915 0.961 . S
C900 C901 1.370 . S
C900 C902 1.363 . S
C900 H916 0.931 . S
C901 C900 1.370 . S
C901 C905 1.408 1_556 S
C902 C900 1.363 . S
C902 C903 1.381 . S
C902 C906 1.524 . S
C903 C895 1.500 1_556 S
C903 C902 1.381 . S
C903 C904 1.396 1_556 S
C904 C903 1.396 1_554 S
C904 C905 1.404 . S
C904 C907 1.539 . S
C905 C901 1.408 1_554 S
C905 C904 1.404 . S
C905 H917 0.930 . S
C906 C902 1.524 . S
C906 H918 0.956 . S
C906 H919 0.961 . S
C906 H920 0.961 . S
C907 C904 1.539 . S
C907 H921 0.958 . S
C907 H922 0.961 . S
C907 H923 0.960 . S
H908 C892 0.931 . S
H909 C897 0.929 . S
H910 C898 0.960 . S
H911 C898 0.962 . S
H912 C898 0.960 . S
H913 C899 0.961 . S
H914 C899 0.961 . S
H915 C899 0.961 . S
H916 C900 0.931 . S
H917 C905 0.930 . S
H918 C906 0.956 . S
H919 C906 0.961 . S
H920 C906 0.961 . S
H921 C907 0.958 . S
H922 C907 0.961 . S
H923 C907 0.960 . S
C157 C5 1.285 . S
C165 C122 1.313 . S
C189 C18 1.281 . S
C197 C135 1.312 . S
C221 C31 1.299 . S
C229 C148 1.290 . S
C253 C44 1.332 . S
C261 C83 1.316 . S
C285 C96 1.305 . S
C293 C57 1.291 . S
C317 C109 1.295 . S
C325 C70 1.316 . S
C349 C130 1.627 . S
C357 C0 1.616 . S
C381 C13 1.604 . S
C389 C143 1.607 . S
C413 C26 1.590 . S
C421 C78 1.610 . S
C445 C39 1.588 . S
C453 C91 1.608 . S
C477 C52 1.605 . S
C485 C104 1.618 . S
C509 C65 1.621 . S
C517 C117 1.623 . S
C541 C138 0.947 . S
C549 C8 0.908 . S
C573 C21 0.950 . S
C581 C151 0.905 . S
C605 C34 0.950 . S
C613 C86 0.903 . S
C637 C47 0.937 . S
C645 C99 0.914 . S
C669 C60 0.929 . S
C677 C112 0.917 . S
C701 C73 0.916 . S
C709 C125 0.912 . S
C733 C10 1.563 . S
C741 C88 1.555 . S
C765 C101 1.565 . S
C773 C23 1.551 . S
C797 C36 1.560 . S
C805 C114 1.553 . S
C829 C49 1.568 . S
C837 C127 1.550 . S
C861 C62 1.572 . S
C869 C140 1.549 . S
C893 C153 1.570 . S
C901 C75 1.552 . S
