# Generated by pormake.
# Topology ukj, (4)-cn, num edge types: 1
# Building blocks:
#     Node 0, Type 0, BuildingBlock: QUQFOY_clean_sbu_1, # of connection points: 4
#     Node 1, Type 0, BuildingBlock: QUQFOY_clean_sbu_1, # of connection points: 4
#     Node 2, Type 0, BuildingBlock: QUQFOY_clean_sbu_1, # of connection points: 4
#     Node 3, Type 0, BuildingBlock: QUQFOY_clean_sbu_1, # of connection points: 4
#     Node 4, Type 0, BuildingBlock: QUQFOY_clean_sbu_1, # of connection points: 4
#     Node 5, Type 0, BuildingBlock: QUQFOY_clean_sbu_1, # of connection points: 4
#     Node 6, Type 0, BuildingBlock: QUQFOY_clean_sbu_1, # of connection points: 4
#     Node 7, Type 0, BuildingBlock: QUQFOY_clean_sbu_1, # of connection points: 4
#     Node 8, Type 0, BuildingBlock: QUQFOY_clean_sbu_1, # of connection points: 4
#     Node 9, Type 0, BuildingBlock: QUQFOY_clean_sbu_1, # of connection points: 4
#     Node 10, Type 0, BuildingBlock: QUQFOY_clean_sbu_1, # of connection points: 4
#     Node 11, Type 0, BuildingBlock: QUQFOY_clean_sbu_1, # of connection points: 4
#     Node 12, Type 0, BuildingBlock: QUQFOY_clean_sbu_1, # of connection points: 4
#     Node 13, Type 0, BuildingBlock: QUQFOY_clean_sbu_1, # of connection points: 4
#     Node 14, Type 0, BuildingBlock: QUQFOY_clean_sbu_1, # of connection points: 4
#     Node 15, Type 0, BuildingBlock: QUQFOY_clean_sbu_1, # of connection points: 4
#     Node 16, Type 0, BuildingBlock: QUQFOY_clean_sbu_1, # of connection points: 4
#     Node 17, Type 0, BuildingBlock: QUQFOY_clean_sbu_1, # of connection points: 4
#     Node 18, Type 0, BuildingBlock: QUQFOY_clean_sbu_1, # of connection points: 4
#     Node 19, Type 0, BuildingBlock: QUQFOY_clean_sbu_1, # of connection points: 4
#     Node 20, Type 0, BuildingBlock: QUQFOY_clean_sbu_1, # of connection points: 4
#     Node 21, Type 0, BuildingBlock: QUQFOY_clean_sbu_1, # of connection points: 4
#     Node 22, Type 0, BuildingBlock: QUQFOY_clean_sbu_1, # of connection points: 4
#     Node 23, Type 0, BuildingBlock: QUQFOY_clean_sbu_1, # of connection points: 4
#     Node 24, Type 0, BuildingBlock: QUQFOY_clean_sbu_1, # of connection points: 4
#     Node 25, Type 0, BuildingBlock: QUQFOY_clean_sbu_1, # of connection points: 4
#     Node 26, Type 0, BuildingBlock: QUQFOY_clean_sbu_1, # of connection points: 4
#     Node 27, Type 0, BuildingBlock: QUQFOY_clean_sbu_1, # of connection points: 4
#     Node 28, Type 0, BuildingBlock: QUQFOY_clean_sbu_1, # of connection points: 4
#     Node 29, Type 0, BuildingBlock: QUQFOY_clean_sbu_1, # of connection points: 4
#     Node 30, Type 0, BuildingBlock: QUQFOY_clean_sbu_1, # of connection points: 4
#     Node 31, Type 0, BuildingBlock: QUQFOY_clean_sbu_1, # of connection points: 4
#     Edge 32, Type (0, 0), BuildingBlock: AJUNOK_clean_linker_0, # of connection points: 2
#     Edge 33, Type (0, 0), BuildingBlock: AJUNOK_clean_linker_0, # of connection points: 2
#     Edge 34, Type (0, 0), BuildingBlock: AJUNOK_clean_linker_0, # of connection points: 2
#     Edge 35, Type (0, 0), BuildingBlock: AJUNOK_clean_linker_0, # of connection points: 2
#     Edge 36, Type (0, 0), BuildingBlock: AJUNOK_clean_linker_0, # of connection points: 2
#     Edge 37, Type (0, 0), BuildingBlock: AJUNOK_clean_linker_0, # of connection points: 2
#     Edge 38, Type (0, 0), BuildingBlock: AJUNOK_clean_linker_0, # of connection points: 2
#     Edge 39, Type (0, 0), BuildingBlock: AJUNOK_clean_linker_0, # of connection points: 2
#     Edge 40, Type (0, 0), BuildingBlock: AJUNOK_clean_linker_0, # of connection points: 2
#     Edge 41, Type (0, 0), BuildingBlock: AJUNOK_clean_linker_0, # of connection points: 2
#     Edge 42, Type (0, 0), BuildingBlock: AJUNOK_clean_linker_0, # of connection points: 2
#     Edge 43, Type (0, 0), BuildingBlock: AJUNOK_clean_linker_0, # of connection points: 2
#     Edge 44, Type (0, 0), BuildingBlock: AJUNOK_clean_linker_0, # of connection points: 2
#     Edge 45, Type (0, 0), BuildingBlock: AJUNOK_clean_linker_0, # of connection points: 2
#     Edge 46, Type (0, 0), BuildingBlock: AJUNOK_clean_linker_0, # of connection points: 2
#     Edge 47, Type (0, 0), BuildingBlock: AJUNOK_clean_linker_0, # of connection points: 2
#     Edge 48, Type (0, 0), BuildingBlock: AJUNOK_clean_linker_0, # of connection points: 2
#     Edge 49, Type (0, 0), BuildingBlock: AJUNOK_clean_linker_0, # of connection points: 2
#     Edge 50, Type (0, 0), BuildingBlock: AJUNOK_clean_linker_0, # of connection points: 2
#     Edge 51, Type (0, 0), BuildingBlock: AJUNOK_clean_linker_0, # of connection points: 2
#     Edge 52, Type (0, 0), BuildingBlock: AJUNOK_clean_linker_0, # of connection points: 2
#     Edge 53, Type (0, 0), BuildingBlock: AJUNOK_clean_linker_0, # of connection points: 2
#     Edge 54, Type (0, 0), BuildingBlock: AJUNOK_clean_linker_0, # of connection points: 2
#     Edge 55, Type (0, 0), BuildingBlock: AJUNOK_clean_linker_0, # of connection points: 2
#     Edge 56, Type (0, 0), BuildingBlock: AJUNOK_clean_linker_0, # of connection points: 2
#     Edge 57, Type (0, 0), BuildingBlock: AJUNOK_clean_linker_0, # of connection points: 2
#     Edge 58, Type (0, 0), BuildingBlock: AJUNOK_clean_linker_0, # of connection points: 2
#     Edge 59, Type (0, 0), BuildingBlock: AJUNOK_clean_linker_0, # of connection points: 2
#     Edge 60, Type (0, 0), BuildingBlock: AJUNOK_clean_linker_0, # of connection points: 2
#     Edge 61, Type (0, 0), BuildingBlock: AJUNOK_clean_linker_0, # of connection points: 2
#     Edge 62, Type (0, 0), BuildingBlock: AJUNOK_clean_linker_0, # of connection points: 2
#     Edge 63, Type (0, 0), BuildingBlock: AJUNOK_clean_linker_0, # of connection points: 2
#     Edge 64, Type (0, 0), BuildingBlock: AJUNOK_clean_linker_0, # of connection points: 2
#     Edge 65, Type (0, 0), BuildingBlock: AJUNOK_clean_linker_0, # of connection points: 2
#     Edge 66, Type (0, 0), BuildingBlock: AJUNOK_clean_linker_0, # of connection points: 2
#     Edge 67, Type (0, 0), BuildingBlock: AJUNOK_clean_linker_0, # of connection points: 2
#     Edge 68, Type (0, 0), BuildingBlock: AJUNOK_clean_linker_0, # of connection points: 2
#     Edge 69, Type (0, 0), BuildingBlock: AJUNOK_clean_linker_0, # of connection points: 2
#     Edge 70, Type (0, 0), BuildingBlock: AJUNOK_clean_linker_0, # of connection points: 2
#     Edge 71, Type (0, 0), BuildingBlock: AJUNOK_clean_linker_0, # of connection points: 2
#     Edge 72, Type (0, 0), BuildingBlock: AJUNOK_clean_linker_0, # of connection points: 2
#     Edge 73, Type (0, 0), BuildingBlock: AJUNOK_clean_linker_0, # of connection points: 2
#     Edge 74, Type (0, 0), BuildingBlock: AJUNOK_clean_linker_0, # of connection points: 2
#     Edge 75, Type (0, 0), BuildingBlock: AJUNOK_clean_linker_0, # of connection points: 2
#     Edge 76, Type (0, 0), BuildingBlock: AJUNOK_clean_linker_0, # of connection points: 2
#     Edge 77, Type (0, 0), BuildingBlock: AJUNOK_clean_linker_0, # of connection points: 2
#     Edge 78, Type (0, 0), BuildingBlock: AJUNOK_clean_linker_0, # of connection points: 2
#     Edge 79, Type (0, 0), BuildingBlock: AJUNOK_clean_linker_0, # of connection points: 2
#     Edge 80, Type (0, 0), BuildingBlock: AJUNOK_clean_linker_0, # of connection points: 2
#     Edge 81, Type (0, 0), BuildingBlock: AJUNOK_clean_linker_0, # of connection points: 2
#     Edge 82, Type (0, 0), BuildingBlock: AJUNOK_clean_linker_0, # of connection points: 2
#     Edge 83, Type (0, 0), BuildingBlock: AJUNOK_clean_linker_0, # of connection points: 2
#     Edge 84, Type (0, 0), BuildingBlock: AJUNOK_clean_linker_0, # of connection points: 2
#     Edge 85, Type (0, 0), BuildingBlock: AJUNOK_clean_linker_0, # of connection points: 2
#     Edge 86, Type (0, 0), BuildingBlock: AJUNOK_clean_linker_0, # of connection points: 2
#     Edge 87, Type (0, 0), BuildingBlock: AJUNOK_clean_linker_0, # of connection points: 2
#     Edge 88, Type (0, 0), BuildingBlock: AJUNOK_clean_linker_0, # of connection points: 2
#     Edge 89, Type (0, 0), BuildingBlock: AJUNOK_clean_linker_0, # of connection points: 2
#     Edge 90, Type (0, 0), BuildingBlock: AJUNOK_clean_linker_0, # of connection points: 2
#     Edge 91, Type (0, 0), BuildingBlock: AJUNOK_clean_linker_0, # of connection points: 2
#     Edge 92, Type (0, 0), BuildingBlock: AJUNOK_clean_linker_0, # of connection points: 2
#     Edge 93, Type (0, 0), BuildingBlock: AJUNOK_clean_linker_0, # of connection points: 2
#     Edge 94, Type (0, 0), BuildingBlock: AJUNOK_clean_linker_0, # of connection points: 2
#     Edge 95, Type (0, 0), BuildingBlock: AJUNOK_clean_linker_0, # of connection points: 2
# Relax obj value: 0.043
# Max RMSD: 0.114
# Mean RMSD: 0.110
data_MOF--net-ukj--node1-QUQFOY_clean_sbu_1--edge1-AJUNOK_clean_linker_0
_symmetry_space_group_name_H-M    P1
_symmetry_Int_Tables_number       1
_symmetry_cell_setting            triclinic
loop_
_symmetry_equiv_pos_as_xyz
'x, y, z'
_cell_length_a     18.459125
_cell_length_b     63.638398
_cell_length_c     40.991702
_cell_angle_alpha  90.067289
_cell_angle_beta   90.12525
_cell_angle_gamma 89.957909
loop_
_atom_site_label
_atom_site_type_symbol
_atom_site_fract_x
_atom_site_fract_y
_atom_site_fract_z
_atom_type_partial_charge
O0 O 0.1594 0.36229 0.24198 0.0
Cd1 Cd 0.15316 0.35026 0.28824 0.0
Cd2 Cd 0.08678 0.38631 0.297 0.0
O3 O 0.06964 0.38501 0.24648 0.0
O4 O 0.15607 0.31871 0.28279 0.0
O5 O 0.05922 0.33577 0.29986 0.0
C6 C 0.0883 0.31824 0.29066 0.0
C7 C 0.00899 0.39336 0.34086 0.0
C8 C 0.11628 0.37539 0.22898 0.0
C9 C 0.24081 0.38277 0.32014 0.0
O10 O 0.19075 0.39459 0.30937 0.0
O11 O 0.23317 0.36282 0.31885 0.0
O12 O 0.02629 0.40784 0.32021 0.0
O13 O 0.0286 0.37433 0.33412 0.0
O14 O 0.11268 0.94801 0.24509 0.0
Cd15 Cd 0.11525 0.957 0.293 0.0
Cd16 Cd 0.17351 0.91863 0.29611 0.0
O17 O 0.18817 0.92111 0.24561 0.0
O18 O 0.10506 0.98852 0.28958 0.0
O19 O 0.20526 0.97323 0.30658 0.0
C20 C 0.17237 0.99026 0.29773 0.0
C21 C 0.25052 0.91172 0.34018 0.0
C22 C 0.14889 0.93417 0.22989 0.0
C23 C 0.02136 0.9234 0.32023 0.0
O24 O 0.06944 0.91132 0.30848 0.0
O25 O 0.03168 0.94328 0.3206 0.0
O26 O 0.2337 0.89715 0.31948 0.0
O27 O 0.23132 0.93077 0.33321 0.0
O28 O 0.14403 0.94775 0.07436 0.0
Cd29 Cd 0.14147 0.95691 1.02664 0.0
Cd30 Cd 0.08381 0.91857 1.02246 0.0
O31 O 0.06818 0.92095 0.07299 0.0
O32 O 0.14675 0.98854 1.03011 0.0
O33 O 0.04927 0.97181 1.01302 0.0
C34 C 0.07917 0.98927 1.02194 0.0
C35 C 0.00802 0.91097 0.97809 0.0
C36 C 0.10723 0.93388 0.08911 0.0
C37 C 0.23625 0.92378 0.9989 0.0
O38 O 0.18834 0.91158 1.01038 0.0
O39 O 0.22554 0.94365 0.99884 0.0
O40 O 0.02534 0.89666 0.99908 0.0
O41 O 0.02582 0.93016 0.98494 0.0
O42 O 0.10212 0.36324 0.07554 0.0
Cd43 Cd 0.10717 0.35149 1.02905 0.0
Cd44 Cd 0.17432 0.38733 1.02089 0.0
O45 O 0.19313 0.38556 0.07127 0.0
O46 O 0.10417 0.31985 1.03358 0.0
O47 O 0.2007 0.33703 1.01662 0.0
C48 C 0.17173 0.31942 1.02535 0.0
C49 C 0.24995 0.39321 0.97595 0.0
C50 C 0.14583 0.37614 0.08862 0.0
C51 C 0.01965 0.38465 0.99883 0.0
O52 O 0.07034 0.39619 1.00972 0.0
O53 O 0.02689 0.36467 0.99924 0.0
O54 O 0.23603 0.40804 0.99661 0.0
O55 O 0.22832 0.37447 0.98327 0.0
O56 O 0.86232 0.69556 0.8242 0.0
Cd57 Cd 0.86681 0.70529 0.77665 0.0
Cd58 Cd 0.9233 0.6667 0.7727 0.0
O59 O 0.93523 0.66808 0.82336 0.0
O60 O 0.85802 0.73681 0.78098 0.0
O61 O 0.95762 0.72136 0.76381 0.0
C62 C 0.92534 0.73841 0.77293 0.0
C63 C 1.00161 0.65939 0.7295 0.0
C64 C 0.89574 0.68101 0.83918 0.0
C65 C 0.77209 0.6725 0.74746 0.0
O66 O 0.81955 0.66008 0.75888 0.0
O67 O 0.78295 0.69236 0.74814 0.0
O68 O 0.98238 0.64486 0.74975 0.0
O69 O 0.98422 0.67856 0.73664 0.0
O70 O 0.89368 0.11043 0.823 0.0
Cd71 Cd 0.8935 0.1008 0.77551 0.0
Cd72 Cd 0.83196 0.13861 0.77043 0.0
O73 O 0.8148 0.1365 0.82084 0.0
O74 O 0.90514 0.06944 0.78045 0.0
O75 O 0.80464 0.08401 0.76225 0.0
C76 C 0.83798 0.06733 0.77225 0.0
C77 C 0.756 0.14474 0.72563 0.0
C78 C 0.85485 0.12404 0.83732 0.0
C79 C 0.98587 0.1345 0.74799 0.0
O80 O 0.93619 0.14638 0.75886 0.0
O81 O 0.97719 0.11455 0.74812 0.0
O82 O 0.77138 0.15957 0.7461 0.0
O83 O 0.77622 0.12586 0.73312 0.0
O84 O 0.85383 0.10991 0.99312 0.0
Cd85 Cd 0.85723 0.1005 0.04069 0.0
Cd86 Cd 0.91944 0.13803 0.04465 0.0
O87 O 0.93397 0.13561 0.99408 0.0
O88 O 0.84633 0.06905 0.03661 0.0
O89 O 0.94738 0.08408 0.0532 0.0
C90 C 0.914 0.06719 0.04411 0.0
C91 C 0.99704 0.14406 0.0889 0.0
C92 C 0.89235 0.12327 0.97816 0.0
C93 C 0.76714 0.13447 0.06898 0.0
O94 O 0.81611 0.14618 0.05717 0.0
O95 O 0.77565 0.11452 0.06912 0.0
O96 O 0.98184 0.15884 0.06835 0.0
O97 O 0.97587 0.12523 0.08164 0.0
O98 O 0.88485 0.69569 0.9924 0.0
Cd99 Cd 0.88941 0.70642 0.03941 0.0
Cd100 Cd 0.83391 0.66722 0.04724 0.0
O101 O 0.81598 0.66743 0.99692 0.0
O102 O 0.90077 0.73761 1.03236 0.0
O103 O 0.80267 0.72376 0.05387 0.0
C104 C 0.83506 0.74014 0.04227 0.0
C105 C 0.75943 0.65962 0.09188 0.0
C106 C 0.85073 0.68053 0.97937 0.0
C107 C 0.98883 0.6742 0.06751 0.0
O108 O 0.93964 0.66143 0.05881 0.0
O109 O 0.97742 0.694 0.06585 0.0
O110 O 0.77925 0.6451 0.0717 0.0
O111 O 0.77449 0.67886 0.08423 0.0
O112 O 0.16199 0.86045 0.74251 0.0
Cd113 Cd 0.15671 0.8485 0.78881 0.0
Cd114 Cd 0.08732 0.88403 0.79737 0.0
O115 O 0.0695 0.88229 0.7468 0.0
O116 O 0.16061 0.81686 0.78393 0.0
O117 O 0.06327 0.83384 0.8006 0.0
C118 C 0.09282 0.81631 0.79178 0.0
C119 C 0.01139 0.88935 0.84252 0.0
C120 C 0.11768 0.87318 0.72945 0.0
C121 C 0.24178 0.88199 0.81971 0.0
O122 O 0.19061 0.89332 0.80877 0.0
O123 O 0.23566 0.86197 0.81913 0.0
O124 O 0.02419 0.90432 0.82203 0.0
O125 O 0.03425 0.87076 0.83492 0.0
O126 O 0.10303 0.44662 0.74131 0.0
Cd127 Cd 0.10703 0.45822 0.78795 0.0
Cd128 Cd 0.17423 0.42232 0.79597 0.0
O129 O 0.19395 0.42424 0.74576 0.0
O130 O 0.10435 0.48989 0.78369 0.0
O131 O 0.2005 0.47255 0.80099 0.0
C132 C 0.17184 0.49022 0.7922 0.0
C133 C 0.24964 0.4152 0.8408 0.0
C134 C 0.14691 0.43375 0.7283 0.0
C135 C 0.01856 0.42492 0.81688 0.0
O136 O 0.06984 0.4135 0.80629 0.0
O137 O 0.02595 0.4449 0.81711 0.0
O138 O 0.23449 0.40085 0.81953 0.0
O139 O 0.22925 0.4342 0.83427 0.0
O140 O 0.15986 0.4457 0.57423 0.0
Cd141 Cd 0.15196 0.45704 0.52763 0.0
Cd142 Cd 0.08448 0.4213 0.52026 0.0
O143 O 0.06821 0.42357 0.57076 0.0
O144 O 0.15337 0.48871 0.53154 0.0
O145 O 0.05668 0.47086 0.51625 0.0
C146 C 0.08514 0.48868 0.52431 0.0
C147 C 0.00716 0.41534 0.47579 0.0
C148 C 0.11605 0.43311 0.58782 0.0
C149 C 0.23751 0.42377 0.49663 0.0
O150 O 0.18766 0.4123 0.50827 0.0
O151 O 0.23029 0.44375 0.49696 0.0
O152 O 0.02124 0.4006 0.49654 0.0
O153 O 0.02944 0.43407 0.48286 0.0
O154 O 0.10148 0.86097 0.57548 0.0
Cd155 Cd 0.10669 0.84963 0.52876 0.0
Cd156 Cd 0.17481 0.88526 0.52099 0.0
O157 O 0.19332 0.88299 0.57144 0.0
O158 O 0.10473 0.81791 0.53244 0.0
O159 O 0.20103 0.8356 0.51651 0.0
C160 C 0.17258 0.81781 0.52464 0.0
C161 C 0.25023 0.89069 0.47577 0.0
C162 C 0.14605 0.87352 0.5888 0.0
C163 C 0.02059 0.88324 0.49863 0.0
O164 O 0.07136 0.89459 0.5099 0.0
O165 O 0.0273 0.86324 0.49879 0.0
O166 O 0.23796 0.90558 0.49653 0.0
O167 O 0.22716 0.87211 0.48312 0.0
O168 O 0.86796 0.19738 0.32402 0.0
Cd169 Cd 0.86512 0.207 0.27639 0.0
Cd170 Cd 0.9243 0.16877 0.27038 0.0
O171 O 0.94133 0.17 0.32081 0.0
O172 O 0.85465 0.23846 0.28091 0.0
O173 O 0.95325 0.22351 0.26158 0.0
C174 C 0.92101 0.24038 0.27151 0.0
C175 C 0.99929 0.16354 0.22513 0.0
C176 C 0.90392 0.18285 0.33778 0.0
C177 C 0.76975 0.17344 0.2492 0.0
O178 O 0.8199 0.1613 0.25893 0.0
O179 O 0.77927 0.19335 0.2498 0.0
O180 O 0.98471 0.14831 0.24494 0.0
O181 O 0.97886 0.18223 0.23359 0.0
O182 O 0.91475 0.61067 0.3276 0.0
Cd183 Cd 0.90914 0.5984 0.28155 0.0
Cd184 Cd 0.83806 0.63341 0.27262 0.0
O185 O 0.81984 0.63158 0.32305 0.0
O186 O 0.91221 0.56682 0.28684 0.0
O187 O 0.815 0.58398 0.27027 0.0
C188 C 0.84412 0.56644 0.27934 0.0
C189 C 0.76182 0.63864 0.22751 0.0
C190 C 0.86898 0.62299 0.34053 0.0
C191 C 0.99247 0.63186 0.25033 0.0
O192 O 0.94099 0.64302 0.26134 0.0
O193 O 0.98722 0.61182 0.25096 0.0
O194 O 0.77422 0.65359 0.24816 0.0
O195 O 0.78526 0.62009 0.23493 0.0
O196 O 0.84773 0.61015 0.49418 0.0
Cd197 Cd 0.85208 0.59833 0.54061 0.0
Cd198 Cd 0.92261 0.63331 0.5491 0.0
O199 O 0.94162 0.63135 0.49885 0.0
O200 O 0.84462 0.56685 0.53547 0.0
O201 O 0.9441 0.58271 0.55231 0.0
C202 C 0.91241 0.56556 0.54319 0.0
C203 C 0.99903 0.63838 0.59414 0.0
C204 C 0.89353 0.62241 0.4812 0.0
C205 C 0.76787 0.63209 0.57089 0.0
O206 O 0.81968 0.64318 0.56004 0.0
O207 O 0.77351 0.61207 0.5707 0.0
O208 O 0.98685 0.65335 0.57355 0.0
O209 O 0.97501 0.61988 0.58674 0.0
O210 O 0.89812 0.1975 0.49292 0.0
Cd211 Cd 0.89601 0.20709 0.54055 0.0
Cd212 Cd 0.83598 0.16916 0.54528 0.0
O213 O 0.82232 0.17071 0.49458 0.0
O214 O 0.90562 0.23858 0.53663 0.0
O215 O 0.80588 0.22323 0.55381 0.0
C216 C 0.83833 0.24025 0.54477 0.0
C217 C 0.7582 0.16409 0.58955 0.0
C218 C 0.8622 0.1833 0.47833 0.0
C219 C 0.9883 0.17355 0.56944 0.0
O220 O 0.9394 0.16148 0.55836 0.0
O221 O 0.97916 0.19348 0.56873 0.0
O222 O 0.77329 0.14886 0.56976 0.0
O223 O 0.77966 0.18274 0.58148 0.0
O224 O 0.64312 0.36235 0.74202 0.0
Cd225 Cd 0.64656 0.3508 0.78866 0.0
Cd226 Cd 0.58136 0.38734 0.79961 0.0
O227 O 0.55862 0.38653 0.74955 0.0
O228 O 0.65006 0.31918 0.78362 0.0
O229 O 0.55575 0.33598 0.80383 0.0
C230 C 0.58388 0.31852 0.79381 0.0
C231 C 0.50785 0.39277 0.8455 0.0
C232 C 0.60008 0.37607 0.73066 0.0
C233 C 0.7384 0.38387 0.81816 0.0
O234 O 0.68625 0.39571 0.80974 0.0
O235 O 0.73148 0.36391 0.81612 0.0
O236 O 0.52166 0.40787 0.82537 0.0
O237 O 0.52867 0.37409 0.83727 0.0
O238 O 0.61409 0.94703 0.74327 0.0
Cd239 Cd 0.61388 0.95669 0.79082 0.0
Cd240 Cd 0.67487 0.91884 0.79651 0.0
O241 O 0.69072 0.92039 0.74602 0.0
O242 O 0.60711 0.98829 0.78677 0.0
O243 O 0.70474 0.97207 0.80487 0.0
C244 C 0.67437 0.98934 0.7954 0.0
C245 C 0.75091 0.91285 0.84137 0.0
C246 C 0.65129 0.93288 0.72928 0.0
C247 C 0.52086 0.92307 0.81856 0.0
O248 O 0.5709 0.91113 0.80819 0.0
O249 O 0.52977 0.94301 0.81825 0.0
O250 O 0.73551 0.89795 0.82101 0.0
O251 O 0.7308 0.93169 0.83366 0.0
O252 O 0.64738 0.948 0.57454 0.0
Cd253 Cd 0.64721 0.95766 0.52696 0.0
Cd254 Cd 0.58685 0.91985 0.52154 0.0
O255 O 0.57131 0.92129 0.57203 0.0
O256 O 0.6571 0.98916 0.53124 0.0
O257 O 0.55776 0.97397 0.51305 0.0
C258 C 0.5901 0.99092 0.52256 0.0
C259 C 0.5102 0.91496 0.47665 0.0
C260 C 0.61082 0.93381 0.58868 0.0
C261 C 0.74057 0.92395 0.49927 0.0
O262 O 0.6907 0.91198 0.50962 0.0
O263 O 0.73135 0.94389 0.4996 0.0
O264 O 0.52455 0.89968 0.49641 0.0
O265 O 0.53195 0.93356 0.48496 0.0
O266 O 0.5971 0.36046 0.57583 0.0
Cd267 Cd 0.60517 0.34988 0.52881 0.0
Cd268 Cd 0.66856 0.38664 0.52329 0.0
O269 O 0.68102 0.38503 0.57414 0.0
O270 O 0.60183 0.3182 0.53242 0.0
O271 O 0.6995 0.33553 0.5173 0.0
C272 C 0.67001 0.31786 0.5253 0.0
C273 C 0.74712 0.39212 0.47925 0.0
C274 C 0.63568 0.37408 0.5904 0.0
C275 C 0.51645 0.38307 0.49843 0.0
O276 O 0.56553 0.39487 0.5101 0.0
O277 O 0.52531 0.36314 0.49858 0.0
O278 O 0.73192 0.40715 0.49937 0.0
O279 O 0.72531 0.37344 0.48682 0.0
O280 O 0.35044 0.69611 0.32703 0.0
Cd281 Cd 0.3541 0.70828 0.28085 0.0
Cd282 Cd 0.42353 0.67293 0.27187 0.0
O283 O 0.44347 0.67458 0.32215 0.0
O284 O 0.34533 0.73966 0.28708 0.0
O285 O 0.44515 0.72445 0.26938 0.0
C286 C 0.41284 0.74134 0.27924 0.0
C287 C 0.49877 0.66714 0.22672 0.0
C288 C 0.39583 0.68361 0.33986 0.0
C289 C 0.26806 0.67488 0.25059 0.0
O290 O 0.31985 0.6636 0.26111 0.0
O291 O 0.27427 0.69489 0.25094 0.0
O292 O 0.48567 0.65235 0.24747 0.0
O293 O 0.47648 0.68585 0.23401 0.0
O294 O 0.40958 0.11249 0.3269 0.0
Cd295 Cd 0.40271 0.10043 0.28064 0.0
Cd296 Cd 0.33479 0.13624 0.27248 0.0
O297 O 0.31764 0.13455 0.32293 0.0
O298 O 0.40635 0.06885 0.28583 0.0
O299 O 0.30877 0.0858 0.2692 0.0
C300 C 0.33838 0.0683 0.27819 0.0
C301 C 0.25807 0.14379 0.2283 0.0
C302 C 0.36593 0.12533 0.34011 0.0
C303 C 0.48878 0.13341 0.24964 0.0
O304 O 0.43852 0.14492 0.26089 0.0
O305 O 0.48165 0.11342 0.25009 0.0
O306 O 0.27447 0.15797 0.24964 0.0
O307 O 0.27762 0.12468 0.23455 0.0
O308 O 0.35095 0.11239 0.4935 0.0
Cd309 Cd 0.35656 0.10049 0.5398 0.0
Cd310 Cd 0.42367 0.13611 0.54846 0.0
O311 O 0.44293 0.13431 0.49815 0.0
O312 O 0.35359 0.06891 0.53463 0.0
O313 O 0.45052 0.08602 0.55158 0.0
C314 C 0.42147 0.06848 0.54246 0.0
C315 C 0.49907 0.14205 0.59367 0.0
C316 C 0.39552 0.12503 0.48053 0.0
C317 C 0.26892 0.1335 0.57002 0.0
O318 O 0.31958 0.14503 0.55921 0.0
O319 O 0.27669 0.11353 0.56991 0.0
O320 O 0.48543 0.15682 0.57291 0.0
O321 O 0.47725 0.12331 0.58636 0.0
O322 O 0.41291 0.69604 0.49347 0.0
Cd323 Cd 0.40684 0.7081 0.53975 0.0
Cd324 Cd 0.33822 0.67261 0.54797 0.0
O325 O 0.32072 0.67415 0.49753 0.0
O326 O 0.41328 0.73958 0.53438 0.0
O327 O 0.31422 0.72357 0.5511 0.0
C328 C 0.3455 0.74077 0.542 0.0
C329 C 0.26122 0.66666 0.59232 0.0
C330 C 0.36893 0.68326 0.48031 0.0
C331 C 0.49217 0.67495 0.57111 0.0
O332 O 0.44144 0.66351 0.56002 0.0
O333 O 0.4859 0.69494 0.57024 0.0
O334 O 0.27561 0.6519 0.57164 0.0
O335 O 0.28307 0.68543 0.58527 0.0
O336 O 0.64531 0.85998 0.24493 0.0
Cd337 Cd 0.6432 0.85133 0.29294 0.0
Cd338 Cd 0.58515 0.88955 0.29606 0.0
O339 O 0.56957 0.88685 0.24561 0.0
O340 O 0.64806 0.8196 0.29062 0.0
O341 O 0.55102 0.83672 0.30711 0.0
C342 C 0.5806 0.81908 0.2989 0.0
C343 C 0.50868 0.89587 0.34047 0.0
C344 C 0.60866 0.87379 0.22982 0.0
C345 C 0.73807 0.88498 0.31954 0.0
O346 O 0.68949 0.897 0.30798 0.0
O347 O 0.72731 0.86512 0.32039 0.0
O348 O 0.5244 0.91066 0.32005 0.0
O349 O 0.52892 0.87698 0.33311 0.0
O350 O 0.61398 0.44776 0.24763 0.0
Cd351 Cd 0.61592 0.45639 0.29561 0.0
Cd352 Cd 0.67564 0.41858 0.29859 0.0
O353 O 0.69245 0.42158 0.24825 0.0
O354 O 0.60655 0.48792 0.29255 0.0
O355 O 0.70636 0.47228 0.30933 0.0
C356 C 0.67406 0.4894 0.30052 0.0
C357 C 0.75118 0.41228 0.34347 0.0
C358 C 0.65227 0.43439 0.23248 0.0
C359 C 0.52212 0.4225 0.32135 0.0
O360 O 0.57125 0.41072 0.30969 0.0
O361 O 0.5322 0.44237 0.32271 0.0
O362 O 0.73661 0.39756 0.32267 0.0
O363 O 0.73041 0.43115 0.33628 0.0
O364 O 0.64763 0.44962 0.07685 0.0
Cd365 Cd 0.64543 0.45848 1.02888 0.0
Cd366 Cd 0.58623 0.42038 1.02531 0.0
O367 O 0.57168 0.42283 0.07579 0.0
O368 O 0.65087 0.49018 1.03128 0.0
O369 O 0.55347 0.47325 1.01463 0.0
C370 C 0.58342 0.49084 1.02286 0.0
C371 C 0.50893 0.41342 0.98127 0.0
C372 C 0.61103 0.43576 0.09175 0.0
C373 C 0.73893 0.42478 1.00165 0.0
O374 O 0.69018 0.41284 1.01308 0.0
O375 O 0.72886 0.44467 1.00119 0.0
O376 O 0.52569 0.3989 1.00202 0.0
O377 O 0.52845 0.43245 0.98817 0.0
O378 O 0.61115 0.86025 0.07418 0.0
Cd379 Cd 0.61254 0.8513 1.02633 0.0
Cd380 Cd 0.67266 0.8892 1.02267 0.0
O381 O 0.68903 0.88655 0.07313 0.0
O382 O 0.60511 0.81967 1.02936 0.0
O383 O 0.7034 0.83592 1.01239 0.0
C384 C 0.67249 0.81859 1.02106 0.0
C385 C 0.74888 0.89407 0.97772 0.0
C386 C 0.64916 0.87382 0.0891 0.0
C387 C 0.5194 0.88525 0.99953 0.0
O388 O 0.56851 0.89713 1.01099 0.0
O389 O 0.52936 0.86535 0.99876 0.0
O390 O 0.73542 0.90933 0.99772 0.0
O391 O 0.72637 0.87554 0.98577 0.0
O392 O 0.34789 0.19618 0.82673 0.0
Cd393 Cd 0.35412 0.20788 0.78023 0.0
Cd394 Cd 0.4206 0.17173 0.77276 0.0
O395 O 0.43822 0.17355 0.82318 0.0
O396 O 0.34676 0.23936 0.78559 0.0
O397 O 0.44609 0.2236 0.76853 0.0
C398 C 0.41434 0.24073 0.77775 0.0
C399 C 0.4974 0.16442 0.72867 0.0
C400 C 0.39072 0.18318 0.84017 0.0
C401 C 0.26613 0.17483 0.75004 0.0
O402 O 0.31645 0.16324 0.76117 0.0
O403 O 0.27415 0.19479 0.75009 0.0
O404 O 0.4808 0.15008 0.74967 0.0
O405 O 0.47772 0.1835 0.73516 0.0
O406 O 0.40993 0.61242 0.82487 0.0
Cd407 Cd 0.40251 0.60067 0.77832 0.0
Cd408 Cd 0.33668 0.63677 0.77112 0.0
O409 O 0.31973 0.63509 0.82147 0.0
O410 O 0.40954 0.56917 0.78338 0.0
O411 O 0.30995 0.58507 0.76684 0.0
C412 C 0.34175 0.56787 0.77572 0.0
C413 C 0.25983 0.6441 0.72707 0.0
C414 C 0.36753 0.62549 0.83838 0.0
C415 C 0.49034 0.63359 0.74804 0.0
O416 O 0.4406 0.64523 0.7595 0.0
O417 O 0.48189 0.61365 0.74792 0.0
O418 O 0.27649 0.65843 0.74816 0.0
O419 O 0.2793 0.62501 0.73352 0.0
O420 O 0.35509 0.61397 0.99206 0.0
Cd421 Cd 0.35999 0.60235 0.03859 0.0
Cd422 Cd 0.42745 0.6381 0.04628 0.0
O423 O 0.44732 0.63584 0.9961 0.0
O424 O 0.35063 0.57095 1.03313 0.0
O425 O 0.45101 0.58613 0.05034 0.0
C426 C 0.41819 0.56921 0.04096 0.0
C427 C 0.50203 0.64503 0.09135 0.0
C428 C 0.3998 0.62642 0.97876 0.0
C429 C 0.27284 0.63574 0.06801 0.0
O430 O 0.32328 0.64711 0.05664 0.0
O431 O 0.28036 0.61577 0.06837 0.0
O432 O 0.48768 0.65943 0.07007 0.0
O433 O 0.48162 0.62606 0.08464 0.0
O434 O 0.4041 0.19679 0.99361 0.0
Cd435 Cd 0.40001 0.20864 0.04009 0.0
Cd436 Cd 0.33284 0.17283 0.04835 0.0
O437 O 0.31306 0.17455 0.99808 0.0
O438 O 0.40815 0.24008 0.03453 0.0
O439 O 0.30884 0.22465 0.05219 0.0
C440 C 0.3408 0.24165 0.0427 0.0
C441 C 0.25786 0.16677 0.09346 0.0
C442 C 0.35993 0.18402 0.98055 0.0
C443 C 0.48801 0.17543 0.06982 0.0
O444 O 0.437 0.16393 0.0591 0.0
O445 O 0.48052 0.1954 0.06974 0.0
O446 O 0.27168 0.15202 0.07266 0.0
O447 O 0.27921 0.18555 0.08623 0.0
C448 C 0.19181 0.37761 0.1786 0.0
C449 C 0.12295 0.37911 0.19341 0.0
C450 C 0.19992 0.3782 0.14455 0.0
C451 C 0.13922 0.37983 0.12411 0.0
H452 H 0.23981 0.37538 0.19347 0.0
H453 H 0.2534 0.37614 0.13419 0.0
S454 S 0.94798 0.38602 0.15038 0.0
N455 N 0.9939 0.38401 0.18487 0.0
N456 N 0.0086 0.38449 0.12087 0.0
C457 C 0.0705 0.3823 0.13857 0.0
C458 C 0.06246 0.38214 0.17323 0.0
C459 C 0.12196 0.91457 0.14253 0.0
C460 C 0.11234 0.93348 0.12521 0.0
C461 C 0.13715 0.91471 0.17633 0.0
C462 C 0.1422 0.93374 0.1938 0.0
H463 H 0.11963 0.89967 0.12978 0.0
H464 H 0.14344 0.89987 0.18894 0.0
S465 S 0.12063 0.98741 0.15962 0.0
N466 N 0.10856 0.97161 0.12814 0.0
N467 N 0.1365 0.97188 0.19103 0.0
C468 C 0.13224 0.95265 0.17661 0.0
C469 C 0.1174 0.95251 0.14251 0.0
C470 C 0.86255 0.69782 0.89184 0.0
C471 C 0.88525 0.67965 0.87507 0.0
C472 C 0.8479 0.69748 0.92523 0.0
C473 C 0.85406 0.6789 0.94345 0.0
H474 H 0.85686 0.71267 0.87916 0.0
H475 H 0.83275 0.71207 0.93709 0.0
S476 S 0.91014 0.62683 0.9117 0.0
N477 N 0.91227 0.64232 0.87937 0.0
N478 N 0.88407 0.64174 0.94258 0.0
C479 C 0.87535 0.66045 0.92717 0.0
C480 C 0.89138 0.66083 0.89293 0.0
C481 C 0.88393 0.14292 0.92471 0.0
C482 C 0.8862 0.12383 0.94208 0.0
C483 C 0.86957 0.14323 0.89085 0.0
C484 C 0.85802 0.12444 0.8734 0.0
H485 H 0.89189 0.15767 0.93743 0.0
H486 H 0.8696 0.15814 0.87813 0.0
S487 S 0.85909 0.07043 0.90744 0.0
N488 N 0.87592 0.08577 0.93905 0.0
N489 N 0.84966 0.08639 0.87602 0.0
C490 C 0.86027 0.10536 0.89059 0.0
C491 C 0.87424 0.10504 0.92474 0.0
C492 C 0.06349 0.87604 0.67354 0.0
C493 C 0.12445 0.87697 0.69394 0.0
C494 C 0.07127 0.87574 0.63945 0.0
C495 C 0.1401 0.87684 0.62454 0.0
H496 H 0.00989 0.87435 0.68393 0.0
H497 H 0.02294 0.87408 0.62462 0.0
S498 S 0.31601 0.88186 0.66743 0.0
N499 N 0.25553 0.88054 0.697 0.0
N500 N 0.26962 0.88057 0.63297 0.0
C501 C 0.20101 0.87914 0.64469 0.0
C502 C 0.19328 0.87901 0.67939 0.0
C503 C 0.19212 0.43158 0.6383 0.0
C504 C 0.12312 0.42993 0.62353 0.0
C505 C 0.20055 0.43136 0.67237 0.0
C506 C 0.14004 0.42994 0.69284 0.0
H507 H 0.24 0.43361 0.62339 0.0
H508 H 0.25414 0.43347 0.68269 0.0
S509 S 0.94868 0.42356 0.66675 0.0
N510 N 0.99418 0.42519 0.6322 0.0
N511 N 0.00953 0.42537 0.69621 0.0
C512 C 0.07122 0.42736 0.67845 0.0
C513 C 0.06284 0.42716 0.64379 0.0
C514 C 0.89903 0.20042 0.39163 0.0
C515 C 0.89944 0.18157 0.37377 0.0
C516 C 0.88524 0.20064 0.42513 0.0
C517 C 0.86976 0.18204 0.44232 0.0
H518 H 0.90898 0.21527 0.37949 0.0
H519 H 0.88631 0.21564 0.43766 0.0
S520 S 0.86271 0.12844 0.40682 0.0
N521 N 0.88264 0.14372 0.37552 0.0
N522 N 0.85574 0.14411 0.43886 0.0
C523 C 0.86949 0.163 0.42481 0.0
C524 C 0.88485 0.16276 0.39049 0.0
C525 C 0.81309 0.62531 0.39598 0.0
C526 C 0.87457 0.62666 0.37609 0.0
C527 C 0.81996 0.62474 0.43009 0.0
C528 C 0.88835 0.62595 0.44552 0.0
H529 H 0.75987 0.62348 0.38515 0.0
H530 H 0.7713 0.62278 0.4445 0.0
S531 S 0.06511 0.6322 0.4041 0.0
N532 N 0.00549 0.63087 0.37406 0.0
N533 N 0.01789 0.63035 0.43816 0.0
C534 C 0.94968 0.62872 0.4259 0.0
C535 C 0.94288 0.62889 0.39117 0.0
C536 C 0.56673 0.36611 0.64151 0.0
C537 C 0.62415 0.37699 0.62617 0.0
C538 C 0.55551 0.36724 0.67527 0.0
C539 C 0.60073 0.37943 0.69513 0.0
H540 H 0.53083 0.3561 0.6275 0.0
H541 H 0.51321 0.35774 0.68609 0.0
S542 S 0.75537 0.41204 0.66798 0.0
N543 N 0.72422 0.40136 0.63398 0.0
N544 N 0.70319 0.40321 0.69764 0.0
C545 C 0.65655 0.39099 0.68035 0.0
C546 C 0.6681 0.38991 0.64584 0.0
C547 C 0.64384 0.95075 0.67581 0.0
C548 C 0.64659 0.93179 0.69328 0.0
C549 C 0.63028 0.95106 0.64228 0.0
C550 C 0.61737 0.93243 0.62469 0.0
H551 H 0.65193 0.96561 0.68827 0.0
H552 H 0.62968 0.96613 0.63001 0.0
S553 S 0.6171 0.87853 0.65902 0.0
N554 N 0.63475 0.8938 0.69072 0.0
N555 N 0.60825 0.89435 0.62729 0.0
C556 C 0.61934 0.91327 0.6418 0.0
C557 C 0.63449 0.91295 0.67615 0.0
C558 C 0.32173 0.68066 0.39051 0.0
C559 C 0.39046 0.67992 0.37547 0.0
C560 C 0.31435 0.68023 0.42459 0.0
C561 C 0.37561 0.67952 0.44482 0.0
H562 H 0.27316 0.68218 0.37581 0.0
H563 H 0.26078 0.68167 0.43511 0.0
S564 S 0.56706 0.67531 0.41788 0.0
N565 N 0.52024 0.67658 0.38354 0.0
N566 N 0.50685 0.67636 0.4476 0.0
C567 C 0.44436 0.67773 0.43013 0.0
C568 C 0.45171 0.67774 0.39543 0.0
C569 C 0.32041 0.12784 0.43001 0.0
C570 C 0.38941 0.12865 0.44493 0.0
C571 C 0.31237 0.12828 0.39595 0.0
C572 C 0.37322 0.12905 0.37559 0.0
H573 H 0.27215 0.12628 0.44481 0.0
H574 H 0.25862 0.12679 0.38553 0.0
S575 S 0.56517 0.13326 0.40218 0.0
N576 N 0.51901 0.132 0.43661 0.0
N577 N 0.5044 0.13222 0.37257 0.0
C578 C 0.44225 0.13084 0.39016 0.0
C579 C 0.45026 0.13084 0.42484 0.0
C580 C 0.62175 0.89316 0.1764 0.0
C581 C 0.61463 0.87417 0.19375 0.0
C582 C 0.63677 0.89318 0.14263 0.0
C583 C 0.64412 0.87421 0.12519 0.0
H584 H 0.61733 0.90804 0.18911 0.0
H585 H 0.6408 0.90806 0.12997 0.0
S586 S 0.62977 0.82036 0.15931 0.0
N587 N 0.61594 0.83602 0.19081 0.0
N588 N 0.64342 0.83606 0.12792 0.0
C589 C 0.63689 0.85522 0.14238 0.0
C590 C 0.62228 0.8552 0.17647 0.0
C591 C 0.62469 0.4159 0.14472 0.0
C592 C 0.61747 0.43506 0.12781 0.0
C593 C 0.63987 0.41555 0.1785 0.0
C594 C 0.64725 0.43435 0.19638 0.0
H595 H 0.62018 0.40115 0.13168 0.0
H596 H 0.64394 0.40054 0.19082 0.0
S597 S 0.63268 0.48853 0.1635 0.0
N598 N 0.61881 0.47318 0.13162 0.0
N599 N 0.64646 0.47252 0.19454 0.0
C600 C 0.63996 0.45351 0.17962 0.0
C601 C 0.62524 0.45386 0.14552 0.0
C602 C 0.44372 0.18038 0.89626 0.0
C603 C 0.38303 0.17968 0.87567 0.0
C604 C 0.43539 0.18095 0.93029 0.0
C605 C 0.36624 0.18034 0.94496 0.0
H606 H 0.4976 0.18169 0.88603 0.0
H607 H 0.48355 0.18244 0.94528 0.0
S608 S 0.19075 0.17606 0.90157 0.0
N609 N 0.25179 0.17685 0.87218 0.0
N610 N 0.23665 0.1773 0.93616 0.0
C611 C 0.30552 0.17825 0.92465 0.0
C612 C 0.31383 0.17812 0.88999 0.0
C613 C 0.31557 0.62942 0.89441 0.0
C614 C 0.37609 0.62923 0.87382 0.0
C615 C 0.32418 0.62938 0.92845 0.0
C616 C 0.39351 0.62967 0.94309 0.0
H617 H 0.26146 0.62844 0.88423 0.0
H618 H 0.27606 0.62855 0.94348 0.0
S619 S 0.56894 0.6317 0.89962 0.0
N620 N 0.50756 0.63091 0.87025 0.0
N621 N 0.52327 0.63144 0.93423 0.0
C622 C 0.45422 0.63086 0.92273 0.0
C623 C 0.44559 0.63045 0.88808 0.0
C624 C 0.0354 0.26197 0.26737 0.0
C625 C 0.96112 0.26079 0.27511 0.0
C626 C 0.07599 0.28037 0.27304 0.0
C627 C 0.04443 0.29853 0.28675 0.0
H628 H 0.06296 0.24846 0.25712 0.0
H629 H 0.13275 0.28031 0.2664 0.0
S630 S 0.85174 0.30393 0.31151 0.0
N631 N 0.85768 0.27971 0.29732 0.0
N632 N 0.93358 0.31407 0.30785 0.0
C633 C 0.97012 0.29762 0.29453 0.0
C634 C 0.92869 0.27888 0.28873 0.0
C635 C 0.28715 1.01181 0.3009 0.0
C636 C 0.2124 1.01066 0.29397 0.0
C637 C 0.32734 0.03027 0.29517 0.0
C638 C 0.29489 0.04852 0.28214 0.0
H639 H 0.31534 0.99825 0.31061 0.0
H640 H 0.38448 0.0302 0.30121 0.0
S641 S 0.10072 0.05398 0.25948 0.0
N642 N 0.10761 0.02968 0.27316 0.0
N643 N 0.18273 0.06413 0.26248 0.0
C644 C 0.22013 0.04762 0.27511 0.0
C645 C 0.17913 1.02882 0.28101 0.0
C646 C 0.06869 1.02716 0.03966 0.0
C647 C 0.0361 1.00913 1.02596 0.0
C648 C 0.02864 0.04554 0.04615 0.0
C649 C 0.95387 0.04684 0.03935 0.0
H650 H 0.12579 1.02707 0.04579 0.0
H651 H 0.05692 0.05892 0.05643 0.0
S652 S 0.84197 1.0042 1.00301 0.0
N653 N 0.92391 0.99393 1.00562 0.0
N654 N 0.84899 1.02828 1.01769 0.0
C655 C 0.9205 1.02894 1.02559 0.0
C656 C 0.96139 1.01021 1.01891 0.0
C657 C 0.2258 0.26301 0.04713 0.0
C658 C 0.29985 0.26192 0.0389 0.0
C659 C 0.18481 0.28141 0.04203 0.0
C660 C 0.2157 0.29966 1.02838 0.0
H661 H 0.19885 0.24948 0.05752 0.0
H662 H 0.12835 0.28132 0.04916 0.0
S663 S 0.40717 0.30517 1.00185 0.0
N664 N 0.40209 0.28092 1.01589 0.0
N665 N 0.32542 0.31527 1.00637 0.0
C666 C 0.28965 0.29879 1.01988 0.0
C667 C 0.33149 0.28004 1.02513 0.0
C668 C 0.04013 0.7599 0.76902 0.0
C669 C 0.96588 0.75873 0.77682 0.0
C670 C 0.08075 0.77833 0.77453 0.0
C671 C 0.04924 0.79651 0.78821 0.0
H672 H 0.06755 0.7464 0.75869 0.0
H673 H 0.13741 0.7783 0.76774 0.0
S674 S 0.85696 0.80183 0.81368 0.0
N675 N 0.86275 0.77762 0.79942 0.0
N676 N 0.93869 0.81199 0.80973 0.0
C677 C 0.97506 0.79557 0.79625 0.0
C678 C 0.93362 0.77682 0.79056 0.0
C679 C 0.68432 1.027 0.77657 0.0
C680 C 0.71682 1.00927 0.79122 0.0
C681 C 0.72409 0.04538 0.76982 0.0
C682 C 0.79848 0.04697 0.7773 0.0
H683 H 0.62754 1.02666 0.76987 0.0
H684 H 0.69591 0.05851 0.75878 0.0
S685 S 0.90988 1.00522 0.81636 0.0
N686 N 0.82844 0.99471 0.81328 0.0
N687 N 0.90282 0.02903 0.80072 0.0
C688 C 0.83171 0.02937 0.79206 0.0
C689 C 0.79112 1.01066 0.79899 0.0
C690 C 0.68266 0.78099 0.04004 0.0
C691 C 0.7145 0.79854 1.02472 0.0
C692 C 0.72232 0.7625 0.0463 0.0
C693 C 0.79587 0.76061 0.03757 0.0
H694 H 0.62658 0.78157 0.0477 0.0
H695 H 0.69469 0.74952 0.05794 0.0
S696 S 0.90514 0.80181 0.99625 0.0
N697 N 0.82445 0.81263 1.00061 0.0
N698 N 0.89866 0.77808 1.01224 0.0
C699 C 0.82841 0.77802 1.0221 0.0
C700 C 0.78794 0.79686 1.0157 0.0
C701 C 0.22568 0.54692 0.77217 0.0
C702 C 0.3004 0.54767 0.77932 0.0
C703 C 0.1846 0.52853 0.77705 0.0
C704 C 0.21606 0.50995 0.78941 0.0
H705 H 0.19827 0.56071 0.76281 0.0
H706 H 0.12757 0.52889 0.7708 0.0
S707 S 0.40964 0.50342 0.81248 0.0
N708 N 0.40401 0.52796 0.79974 0.0
N709 N 0.32723 0.49363 0.80886 0.0
C710 C 0.29072 0.51048 0.79679 0.0
C711 C 0.33264 0.52921 0.79175 0.0
C712 C 0.02916 0.54495 0.54591 0.0
C713 C 0.95423 0.54548 0.53917 0.0
C714 C 0.07096 0.52677 0.54038 0.0
C715 C 0.04002 0.50818 0.52779 0.0
H716 H 0.05621 0.55877 0.55539 0.0
H717 H 0.12813 0.5273 0.54631 0.0
S718 S 0.84617 0.5011 0.50563 0.0
N719 N 0.85096 0.52556 0.51891 0.0
N720 N 0.92913 0.49158 0.5086 0.0
C721 C 0.96512 0.50847 0.52087 0.0
C722 C 0.92247 0.527 0.52655 0.0
C723 C 0.22892 0.76146 0.54559 0.0
C724 C 0.30344 0.76083 0.53812 0.0
C725 C 0.18704 0.77969 0.54047 0.0
C726 C 0.21749 0.79822 0.52757 0.0
H727 H 0.20231 0.74769 0.55541 0.0
H728 H 0.13025 0.77925 0.54702 0.0
S729 S 0.40991 0.80498 0.5032 0.0
N730 N 0.40563 0.78057 0.51662 0.0
N731 N 0.32733 0.81461 0.50707 0.0
C732 C 0.29189 0.79781 0.51981 0.0
C733 C 0.33462 0.77924 0.52508 0.0
C734 C 0.83097 0.52872 0.29751 0.0
C735 C 0.79975 0.54688 0.28364 0.0
C736 C 0.78971 0.51053 0.30369 0.0
C737 C 0.71508 0.50959 0.29639 0.0
H738 H 0.88792 0.52852 0.30389 0.0
H739 H 0.81695 0.497 0.31405 0.0
S740 S 0.60659 0.55277 0.25948 0.0
N741 N 0.68898 0.56262 0.26264 0.0
N742 N 0.61186 0.52868 0.27418 0.0
C743 C 0.68307 0.52767 0.28255 0.0
C744 C 0.72516 0.54618 0.27619 0.0
C745 C 0.68223 0.27987 0.54208 0.0
C746 C 0.71397 0.29816 0.52899 0.0
C747 C 0.72306 0.26153 0.54785 0.0
C748 C 0.79775 0.26054 0.54086 0.0
H749 H 0.6252 0.27969 0.54822 0.0
H750 H 0.69542 0.24793 0.55766 0.0
S751 S 0.90755 0.30401 0.50596 0.0
N752 N 0.82529 0.31398 0.50905 0.0
N753 N 0.90165 0.27972 0.5198 0.0
C754 C 0.83029 0.27874 0.52776 0.0
C755 C 0.78863 0.29742 0.52184 0.0
C756 C 0.52925 0.26203 0.77257 0.0
C757 C 0.4556 0.26095 0.78147 0.0
C758 C 0.57038 0.28044 0.77734 0.0
C759 C 0.54007 0.29869 0.79137 0.0
H760 H 0.55572 0.24851 0.76182 0.0
H761 H 0.62646 0.28036 0.76963 0.0
S762 S 0.34991 0.30418 0.81982 0.0
N763 N 0.35444 0.27993 0.80561 0.0
N764 N 0.43137 0.31428 0.81456 0.0
C765 C 0.46659 0.2978 0.80064 0.0
C766 C 0.42458 0.27906 0.79568 0.0
C767 C 0.43404 0.03059 0.525 0.0
C768 C 0.46562 0.04882 0.53849 0.0
C769 C 0.47493 1.01226 0.51915 0.0
C770 C 0.54955 1.01124 0.52644 0.0
H771 H 0.37706 0.03043 0.51866 0.0
H772 H 0.44738 0.9987 0.50907 0.0
S773 S 0.65906 0.0546 0.56221 0.0
N774 N 0.57681 0.06458 0.55898 0.0
N775 N 0.65327 0.03036 0.54807 0.0
C776 C 0.58197 0.02939 0.53987 0.0
C777 C 0.54024 0.04806 0.54588 0.0
C778 C 0.56879 0.78101 0.2823 0.0
C779 C 0.53715 0.79923 0.2958 0.0
C780 C 0.5281 0.76265 0.27651 0.0
C781 C 0.4536 0.76156 0.28386 0.0
H782 H 0.62558 0.78093 0.27572 0.0
H783 H 0.55562 0.74915 0.26623 0.0
S784 S 0.34426 0.80474 0.32018 0.0
N785 N 0.42624 0.81482 0.31674 0.0
N786 N 0.35012 0.78052 0.30595 0.0
C787 C 0.42124 0.77964 0.29755 0.0
C788 C 0.46279 0.79835 0.3035 0.0
C789 C 0.57311 0.52914 0.03837 0.0
C790 C 0.5405 0.51081 1.0257 0.0
C791 C 0.53308 0.54768 0.04378 0.0
C792 C 0.45833 0.54884 0.03685 0.0
H793 H 0.63018 0.52917 0.04456 0.0
H794 H 0.56132 0.56126 0.0534 0.0
S795 S 0.3464 0.50539 1.00292 0.0
N796 N 0.42832 0.49518 1.00613 0.0
N797 N 0.35346 0.5298 1.01621 0.0
C798 C 0.42497 0.53064 1.02405 0.0
C799 C 0.46583 0.51175 1.01848 0.0
C800 C 0.98572 0.42571 0.41757 0.0
C801 C 0.98164 0.41024 0.44206 0.0
C802 C 0.98604 0.42028 0.38433 0.0
C803 C 0.98266 0.39914 0.37415 0.0
H804 H 0.99478 0.44201 0.42401 0.0
H805 H 0.99542 0.43267 0.36675 0.0
S806 S 0.94904 0.35335 0.42806 0.0
N807 N 0.95743 0.37339 0.45342 0.0
N808 N 0.95866 0.3632 0.39106 0.0
C809 C 0.96863 0.38386 0.39816 0.0
C810 C 0.96797 0.38941 0.43207 0.0
C811 C 0.27078 0.88504 0.38426 0.0
C812 C 0.27567 0.90607 0.37376 0.0
C813 C 0.27034 0.87987 0.41759 0.0
C814 C 0.27522 0.89549 0.44189 0.0
H815 H 0.26096 0.87256 0.36681 0.0
H816 H 0.26036 0.86366 0.42423 0.0
S817 S 0.31043 0.95215 0.42715 0.0
N818 N 0.30095 0.94204 0.39027 0.0
N819 N 0.30084 0.93234 0.45277 0.0
C820 C 0.28989 0.91619 0.43162 0.0
C821 C 0.28998 0.92147 0.39762 0.0
C822 C 0.98094 0.91531 0.88666 0.0
C823 C 0.98577 0.89422 0.87633 0.0
C824 C 0.98005 0.92065 0.91997 0.0
C825 C 0.98361 0.90513 0.94442 0.0
H826 H 0.98393 0.92795 0.86904 0.0
H827 H 0.98249 0.93714 0.92646 0.0
S828 S 0.97678 0.84747 0.93033 0.0
N829 N 0.97961 0.85766 0.89334 0.0
N830 N 0.97686 0.86764 0.9557 0.0
C831 C 0.97865 0.88397 0.93437 0.0
C832 C 0.98005 0.87853 0.90042 0.0
C833 C 0.27737 0.42495 0.8989 0.0
C834 C 0.27506 0.40946 0.87432 0.0
C835 C 0.2776 0.41952 0.93214 0.0
C836 C 0.2751 0.39836 0.94224 0.0
H837 H 0.27306 0.44143 0.89259 0.0
H838 H 0.27346 0.43208 0.9499 0.0
S839 S 0.28843 0.35186 0.88776 0.0
N840 N 0.28577 0.37209 0.86261 0.0
N841 N 0.28505 0.36192 0.92487 0.0
C842 C 0.28223 0.38279 0.91799 0.0
C843 C 0.28253 0.38833 0.88411 0.0
C844 C 0.02153 0.63264 0.68549 0.0
C845 C 0.02693 0.65367 0.69604 0.0
C846 C 0.0204 0.62747 0.65216 0.0
C847 C 0.0251 0.64309 0.62793 0.0
H848 H 0.01168 0.62018 0.7029 0.0
H849 H 0.0099 0.61128 0.64547 0.0
S850 S 0.06147 0.6997 0.64276 0.0
N851 N 0.0526 0.6896 0.67962 0.0
N852 N 0.05121 0.6799 0.6171 0.0
C853 C 0.04048 0.66376 0.63822 0.0
C854 C 0.04127 0.66904 0.67222 0.0
C855 C 0.73591 0.17087 0.68074 0.0
C856 C 0.73119 0.14995 0.69183 0.0
C857 C 0.73661 0.17564 0.64727 0.0
C858 C 0.73223 0.15973 0.62342 0.0
H859 H 0.74544 0.18355 0.69785 0.0
H860 H 0.7466 0.19177 0.64019 0.0
S861 S 0.69684 0.10326 0.63969 0.0
N862 N 0.70612 0.11379 0.6763 0.0
N863 N 0.70668 0.12276 0.61353 0.0
C864 C 0.71753 0.13915 0.63424 0.0
C865 C 0.71719 0.13426 0.66838 0.0
C866 C 0.02627 0.13804 0.17993 0.0
C867 C 0.02392 0.159 0.19108 0.0
C868 C 0.02566 0.13322 0.14644 0.0
C869 C 0.02308 0.14916 0.12261 0.0
H870 H 0.02237 0.12516 0.19708 0.0
H871 H 0.02125 0.11687 0.13934 0.0
S872 S 0.03627 0.20648 0.13883 0.0
N873 N 0.03349 0.19574 0.17544 0.0
N874 N 0.03344 0.18673 0.11271 0.0
C875 C 0.03061 0.17009 0.13342 0.0
C876 C 0.03072 0.175 0.16757 0.0
C877 C 0.7407 0.63293 0.13604 0.0
C878 C 0.73508 0.65395 0.12552 0.0
C879 C 0.74149 0.62776 0.16936 0.0
C880 C 0.73631 0.64337 0.19364 0.0
H881 H 0.75069 0.62047 0.1186 0.0
H882 H 0.75201 0.61158 0.17601 0.0
S883 S 0.69949 0.69996 0.1789 0.0
N884 N 0.7089 0.68987 0.14202 0.0
N885 N 0.70977 0.68017 0.20452 0.0
C886 C 0.72095 0.66404 0.18337 0.0
C887 C 0.72045 0.66933 0.14937 0.0
C888 C 0.4798 0.42362 0.92355 0.0
C889 C 0.48314 0.40791 0.9477 0.0
C890 C 0.47966 0.41852 0.89016 0.0
C891 C 0.48322 0.39748 0.87947 0.0
H892 H 0.48326 0.44005 0.9303 0.0
H893 H 0.48289 0.43127 0.87275 0.0
S894 S 0.47268 0.3504 0.93269 0.0
N895 N 0.47444 0.37038 0.95839 0.0
N896 N 0.47536 0.36084 0.89586 0.0
C897 C 0.47713 0.38164 0.9033 0.0
C898 C 0.47673 0.38685 0.93734 0.0
C899 C 0.7771 0.91937 0.93253 0.0
C900 C 0.77471 0.89847 0.94383 0.0
C901 C 0.77754 0.92401 0.89898 0.0
C902 C 0.77595 0.90795 0.87529 0.0
H903 H 0.77234 0.93234 0.94953 0.0
H904 H 0.77309 0.94032 0.89171 0.0
S905 S 0.78978 0.85072 0.89211 0.0
N906 N 0.78566 0.86166 0.9286 0.0
N907 N 0.78733 0.87033 0.86579 0.0
C908 C 0.7835 0.88707 0.88633 0.0
C909 C 0.78263 0.88235 0.92052 0.0
C910 C 0.48927 0.92666 0.41895 0.0
C911 C 0.4845 0.9107 0.44265 0.0
C912 C 0.4886 0.92196 0.38544 0.0
C913 C 0.48355 0.90108 0.37417 0.0
H914 H 0.49951 0.94276 0.42621 0.0
H915 H 0.49849 0.93467 0.36846 0.0
S916 S 0.4485 0.8543 0.42578 0.0
N917 N 0.45847 0.87373 0.45214 0.0
N918 N 0.45792 0.86491 0.3893 0.0
C919 C 0.46919 0.88536 0.39743 0.0
C920 C 0.46952 0.89016 0.43161 0.0
C921 C 0.77022 0.38096 0.42145 0.0
C922 C 0.77361 0.39676 0.44554 0.0
C923 C 0.77141 0.38593 0.38804 0.0
C924 C 0.77566 0.40692 0.37727 0.0
H925 H 0.76066 0.36477 0.42827 0.0
H926 H 0.76261 0.37332 0.37072 0.0
S927 S 0.80761 0.4534 0.43017 0.0
N928 N 0.79785 0.43373 0.45603 0.0
N929 N 0.79936 0.44305 0.39339 0.0
C930 C 0.78875 0.42251 0.40098 0.0
C931 C 0.78791 0.41743 0.43506 0.0
C932 C 0.51928 0.67749 0.1684 0.0
C933 C 0.52405 0.66207 0.19296 0.0
C934 C 0.52045 0.67204 0.13517 0.0
C935 C 0.52588 0.65092 0.12502 0.0
H936 H 0.50891 0.69374 0.17475 0.0
H937 H 0.51079 0.68437 0.11748 0.0
S938 S 0.56012 0.6053 0.17926 0.0
N939 N 0.54992 0.62532 0.20452 0.0
N940 N 0.55112 0.61511 0.14218 0.0
C941 C 0.5398 0.63572 0.14917 0.0
C942 C 0.5391 0.64129 0.18308 0.0
C943 C 0.22959 0.13454 0.17005 0.0
C944 C 0.23261 0.14984 0.19491 0.0
C945 C 0.22952 0.14023 0.1369 0.0
C946 C 0.2329 0.16145 0.12716 0.0
H947 H 0.23322 0.11801 0.17607 0.0
H948 H 0.23301 0.12779 0.11892 0.0
S949 S 0.22183 0.20758 0.18249 0.0
N950 N 0.22359 0.18716 0.20727 0.0
N951 N 0.2247 0.19779 0.1452 0.0
C952 C 0.22656 0.17686 0.1517 0.0
C953 C 0.22607 0.17106 0.18548 0.0
C954 C 0.51866 0.13728 0.6853 0.0
C955 C 0.52316 0.15844 0.69537 0.0
C956 C 0.51889 0.13176 0.65209 0.0
C957 C 0.52399 0.14714 0.62751 0.0
H958 H 0.50857 0.12499 0.70297 0.0
H959 H 0.50905 0.11549 0.64573 0.0
S960 S 0.55928 0.20393 0.64122 0.0
N961 N 0.54894 0.19422 0.67826 0.0
N962 N 0.55006 0.18386 0.61597 0.0
C963 C 0.53855 0.16795 0.6374 0.0
C964 C 0.53797 0.17358 0.67128 0.0
C965 C 0.23957 0.67129 0.68382 0.0
C966 C 0.23469 0.65013 0.69369 0.0
C967 C 0.24025 0.67686 0.65066 0.0
C968 C 0.23555 0.66152 0.62594 0.0
H969 H 0.24929 0.68356 0.70163 0.0
H970 H 0.25039 0.69313 0.6445 0.0
S971 S 0.20031 0.60469 0.63898 0.0
N972 N 0.20956 0.61436 0.67615 0.0
N973 N 0.20996 0.6248 0.61395 0.0
C974 C 0.22077 0.6407 0.63557 0.0
C975 C 0.22051 0.63501 0.6694 0.0
C976 C 0.37566 0.38074 0.32723 0.0
C977 C 0.31155 0.39258 0.32898 0.0
C978 C 0.44371 0.39056 0.32733 0.0
C979 C 0.45078 0.41266 0.32916 0.0
H980 H 0.37341 0.3639 0.32353 0.0
H981 H 0.49103 0.38071 0.32407 0.0
S982 S 0.29997 0.45039 0.34143 0.0
N983 N 0.25977 0.42731 0.33816 0.0
N984 N 0.3876 0.44569 0.33797 0.0
C985 C 0.38743 0.42448 0.3342 0.0
C986 C 0.31795 0.41446 0.33417 0.0
C987 C 0.81795 0.91661 0.32604 0.0
C988 C 0.80969 0.89454 0.32786 0.0
C989 C 0.88652 0.92614 0.32646 0.0
C990 C 0.94989 0.91402 0.32873 0.0
H991 H 0.77126 0.92666 0.32238 0.0
H992 H 0.88984 0.94296 0.32269 0.0
S993 S 0.95817 0.85621 0.34143 0.0
N994 N 0.8709 0.86127 0.33726 0.0
N995 N 0.99962 0.8791 0.3384 0.0
C996 C 0.94221 0.89218 0.33391 0.0
C997 C 0.87225 0.88247 0.33342 0.0
C998 C 0.37119 0.92659 0.99348 0.0
C999 C 0.3079 0.91454 0.99038 0.0
C1000 C 0.43974 0.91703 0.99391 0.0
C1001 C 0.44801 0.89499 0.9913 0.0
H1002 H 0.36773 0.94335 0.9979 0.0
H1003 H 0.48632 0.92699 0.99824 0.0
S1004 S 0.29987 0.85695 0.97535 0.0
N1005 N 0.25837 0.87981 0.97906 0.0
N1006 N 0.38703 0.86189 0.98022 0.0
C1007 C 0.38559 0.88303 0.98491 0.0
C1008 C 0.31569 0.89278 0.9844 0.0
C1009 C 0.88458 0.38297 0.99265 0.0
C1010 C 0.94878 0.39474 0.99101 0.0
C1011 C 0.81669 0.39288 0.99354 0.0
C1012 C 0.80988 0.41501 0.99288 0.0
H1013 H 0.88671 0.36606 0.99548 0.0
H1014 H 0.76937 0.38304 0.99663 0.0
S1015 S 0.96072 0.45275 0.98147 0.0
N1016 N 1.00071 0.42957 0.98325 0.0
N1017 N 0.87317 0.44812 0.98532 0.0
C1018 C 0.87319 0.42684 0.98799 0.0
C1019 C 0.94251 0.41673 0.987 0.0
C1020 C 0.63704 0.67533 0.74266 0.0
C1021 C 0.70043 0.66345 0.73844 0.0
C1022 C 0.56875 0.66563 0.74316 0.0
C1023 C 0.5609 0.64364 0.73951 0.0
H1024 H 0.64035 0.69197 0.74804 0.0
H1025 H 0.52219 0.67541 0.74846 0.0
S1026 S 0.70904 0.60628 0.72008 0.0
N1027 N 0.7502 0.62911 0.72474 0.0
N1028 N 0.62204 0.61094 0.72599 0.0
C1029 C 0.62324 0.63195 0.73188 0.0
C1030 C 0.69285 0.64184 0.73129 0.0
C1031 C 0.12122 0.1326 0.74315 0.0
C1032 C 0.05701 0.14426 0.73997 0.0
C1033 C 0.18902 0.14258 0.74389 0.0
C1034 C 0.19561 0.16467 0.74154 0.0
H1035 H 0.11905 0.1158 0.74733 0.0
H1036 H 0.23632 0.1329 0.74825 0.0
S1037 S 0.04473 0.20185 0.72568 0.0
N1038 N 0.00498 0.17872 0.72896 0.0
N1039 N 0.13218 0.19742 0.73073 0.0
C1040 C 0.13232 0.17627 0.73515 0.0
C1041 C 0.0632 0.16608 0.73431 0.0
C1042 C 0.56457 0.14301 0.07546 0.0
C1043 C 0.55863 0.16513 0.07775 0.0
C1044 C 0.63215 0.13287 0.0755 0.0
C1045 C 0.69676 0.1444 0.07785 0.0
H1046 H 0.51682 0.13342 0.07169 0.0
H1047 H 0.63373 0.11606 0.07136 0.0
S1048 S 0.71115 0.20201 0.09175 0.0
N1049 N 0.62336 0.19777 0.08771 0.0
N1050 N 0.75019 0.17877 0.08812 0.0
C1051 C 0.6914 0.16625 0.0835 0.0
C1052 C 0.62249 0.17659 0.0834 0.0
C1053 C 0.13873 0.63377 0.0775 0.0
C1054 C 0.20212 0.6459 0.07589 0.0
C1055 C 0.07008 0.64325 0.07732 0.0
C1056 C 0.06162 0.6653 0.07545 0.0
H1057 H 0.14176 0.61677 0.07685 0.0
H1058 H 0.02319 0.63303 0.07685 0.0
S1059 S 0.21071 0.70432 0.0776 0.0
N1060 N 0.2522 0.68133 0.07769 0.0
N1061 N 0.12319 0.69902 0.07687 0.0
C1062 C 0.12455 0.67767 0.07696 0.0
C1063 C 0.19467 0.66801 0.07727 0.0
C1064 C 0.44417 0.89098 0.82653 0.0
C1065 C 0.44996 0.91314 0.82687 0.0
C1066 C 0.37671 0.88083 0.827 0.0
C1067 C 0.31192 0.89238 0.8279 0.0
H1068 H 0.49205 0.88126 0.82402 0.0
H1069 H 0.37548 0.86389 0.82445 0.0
S1070 S 0.29697 0.95044 0.83638 0.0
N1071 N 0.38487 0.94607 0.83332 0.0
N1072 N 0.25812 0.9271 0.83466 0.0
C1073 C 0.31704 0.91443 0.8316 0.0
C1074 C 0.38593 0.92477 0.831 0.0
C1075 C 0.87415 0.38238 0.8215 0.0
C1076 C 0.80974 0.39382 0.82561 0.0
C1077 C 0.94171 0.3925 0.821 0.0
C1078 C 0.948 0.41453 0.82453 0.0
H1079 H 0.87231 0.36566 0.8166 0.0
H1080 H 0.98907 0.38296 0.81605 0.0
S1081 S 0.79679 0.45113 0.84268 0.0
N1082 N 0.75738 0.428 0.8384 0.0
N1083 N 0.88417 0.44695 0.83708 0.0
C1084 C 0.88459 0.42589 0.83158 0.0
C1085 C 0.81565 0.41556 0.83219 0.0
C1086 C 0.37227 0.42526 0.48936 0.0
C1087 C 0.30772 0.41363 0.48802 0.0
C1088 C 0.43991 0.41518 0.48995 0.0
C1089 C 0.44601 0.39303 0.48928 0.0
H1090 H 0.37066 0.44217 0.49234 0.0
H1091 H 0.4876 0.4249 0.49298 0.0
S1092 S 0.2938 0.35567 0.47806 0.0
N1093 N 0.25454 0.37896 0.48013 0.0
N1094 N 0.38159 0.36009 0.48165 0.0
C1095 C 0.38227 0.38137 0.48444 0.0
C1096 C 0.31324 0.39164 0.48375 0.0
C1097 C 0.88575 0.88192 0.49093 0.0
C1098 C 0.95031 0.89356 0.49039 0.0
C1099 C 0.81804 0.89197 0.49123 0.0
C1100 C 0.81177 0.91412 0.49106 0.0
H1101 H 0.88732 0.86497 0.49332 0.0
H1102 H 0.77031 0.88219 0.49348 0.0
S1103 S 0.96416 0.95166 0.48253 0.0
N1104 N 0.00348 0.92837 0.48418 0.0
N1105 N 0.8763 0.94716 0.48518 0.0
C1106 C 0.87565 0.92585 0.48729 0.0
C1107 C 0.94478 0.91561 0.48688 0.0
C1108 C 0.62337 0.13175 0.24155 0.0
C1109 C 0.55908 0.14354 0.24115 0.0
C1110 C 0.6913 0.14163 0.24159 0.0
C1111 C 0.69807 0.16377 0.24133 0.0
H1112 H 0.62147 0.11481 0.244 0.0
H1113 H 0.73884 0.13174 0.24372 0.0
S1114 S 0.54637 0.20166 0.23312 0.0
N1115 N 0.50656 0.17847 0.23497 0.0
N1116 N 0.63418 0.19696 0.23553 0.0
C1117 C 0.63439 0.17565 0.23772 0.0
C1118 C 0.56502 0.16557 0.23755 0.0
C1119 C 0.12759 0.63144 0.24364 0.0
C1120 C 0.06188 0.64252 0.24194 0.0
C1121 C 0.19423 0.64206 0.24389 0.0
C1122 C 0.19817 0.66423 0.24251 0.0
H1123 H 0.12767 0.61456 0.24701 0.0
H1124 H 0.24288 0.63275 0.24708 0.0
S1125 S 0.04217 0.70023 0.23069 0.0
N1126 N 0.00527 0.67668 0.23338 0.0
N1127 N 0.13037 0.69655 0.23425 0.0
C1128 C 0.1332 0.67532 0.23759 0.0
C1129 C 0.0652 0.6645 0.23724 0.0
C1130 C 0.69418 0.66506 0.57628 0.0
C1131 C 0.69844 0.64295 0.57908 0.0
C1132 C 0.62746 0.67566 0.5766 0.0
C1133 C 0.56205 0.66461 0.57977 0.0
H1134 H 0.74246 0.67428 0.57186 0.0
H1135 H 0.62708 0.69242 0.57203 0.0
S1136 S 0.54373 0.60733 0.59542 0.0
N1137 N 0.63163 0.6109 0.59052 0.0
N1138 N 0.50637 0.63077 0.59142 0.0
C1139 C 0.56591 0.64281 0.58596 0.0
C1140 C 0.63397 0.63199 0.58557 0.0
C1141 C 0.12343 0.17569 0.57511 0.0
C1142 C 0.05937 0.16401 0.57833 0.0
C1143 C 0.19138 0.16576 0.57499 0.0
C1144 C 0.19824 0.14371 0.57803 0.0
H1145 H 0.12105 0.19242 0.57036 0.0
H1146 H 0.23858 0.17543 0.57052 0.0
S1147 S 0.04774 0.10663 0.59453 0.0
N1148 N 0.00768 0.12967 0.59029 0.0
N1149 N 0.13518 0.11106 0.58969 0.0
C1150 C 0.13507 0.13215 0.58455 0.0
C1151 C 0.06579 0.14228 0.58477 0.0
loop_
_geom_bond_atom_site_label_1
_geom_bond_atom_site_label_2
_geom_bond_distance
_geom_bond_site_symmetry_2
_ccdc_geom_bond_type
O0 Cd1 2.223 . S
O0 C8 1.315 . S
Cd1 O0 2.223 . S
Cd1 O4 2.297 . S
Cd1 O5 2.439 . S
Cd1 O11 2.240 . S
Cd2 O3 2.240 . S
Cd2 O10 2.223 . S
Cd2 O12 2.297 . S
Cd2 O13 2.439 . S
O3 Cd2 2.240 . S
O3 C8 1.279 . S
O4 Cd1 2.297 . S
O4 C6 1.247 . S
O5 Cd1 2.439 . S
O5 C6 1.208 . S
C6 O4 1.247 . S
C6 O5 1.208 . S
C7 O12 1.247 . S
C7 O13 1.208 . S
C8 O0 1.315 . S
C8 O3 1.279 . S
C9 O10 1.315 . S
C9 O11 1.279 . S
O10 Cd2 2.223 . S
O10 C9 1.315 . S
O11 Cd1 2.240 . S
O11 C9 1.279 . S
O12 Cd2 2.297 . S
O12 C7 1.247 . S
O13 Cd2 2.439 . S
O13 C7 1.208 . S
O14 Cd15 2.223 . S
O14 C22 1.315 . S
Cd15 O14 2.223 . S
Cd15 O18 2.297 . S
Cd15 O19 2.439 . S
Cd15 O25 2.240 . S
Cd16 O17 2.240 . S
Cd16 O24 2.223 . S
Cd16 O26 2.297 . S
Cd16 O27 2.439 . S
O17 Cd16 2.240 . S
O17 C22 1.279 . S
O18 Cd15 2.297 . S
O18 C20 1.247 . S
O19 Cd15 2.439 . S
O19 C20 1.208 . S
C20 O18 1.247 . S
C20 O19 1.208 . S
C21 O26 1.247 . S
C21 O27 1.208 . S
C22 O14 1.315 . S
C22 O17 1.279 . S
C23 O24 1.315 . S
C23 O25 1.279 . S
O24 Cd16 2.223 . S
O24 C23 1.315 . S
O25 Cd15 2.240 . S
O25 C23 1.279 . S
O26 Cd16 2.297 . S
O26 C21 1.247 . S
O27 Cd16 2.439 . S
O27 C21 1.208 . S
O28 Cd29 2.223 . S
O28 C36 1.315 . S
Cd29 O28 2.223 . S
Cd29 O32 2.297 . S
Cd29 O33 2.439 1_554 S
Cd29 O39 2.240 1_554 S
Cd30 O31 2.240 1_556 S
Cd30 O38 2.223 1_556 S
Cd30 O40 2.297 . S
Cd30 O41 2.439 . S
O31 Cd30 2.240 1_554 S
O31 C36 1.279 . S
O32 Cd29 2.297 . S
O32 C34 1.247 . S
O33 Cd29 2.439 1_556 S
O33 C34 1.208 1_556 S
C34 O32 1.247 . S
C34 O33 1.208 1_554 S
C35 O40 1.247 . S
C35 O41 1.208 . S
C36 O28 1.315 . S
C36 O31 1.279 . S
C37 O38 1.315 . S
C37 O39 1.279 1_554 S
O38 Cd30 2.223 1_554 S
O38 C37 1.315 . S
O39 Cd29 2.240 1_556 S
O39 C37 1.279 1_556 S
O40 Cd30 2.297 . S
O40 C35 1.247 . S
O41 Cd30 2.439 . S
O41 C35 1.208 . S
O42 Cd43 2.223 . S
O42 C50 1.315 . S
Cd43 O42 2.223 . S
Cd43 O46 2.297 . S
Cd43 O47 2.439 1_554 S
Cd43 O53 2.240 1_554 S
Cd44 O45 2.240 1_556 S
Cd44 O52 2.223 1_556 S
Cd44 O54 2.297 . S
Cd44 O55 2.439 . S
O45 Cd44 2.240 1_554 S
O45 C50 1.279 . S
O46 Cd43 2.297 . S
O46 C48 1.247 . S
O47 Cd43 2.439 1_556 S
O47 C48 1.208 1_556 S
C48 O46 1.247 . S
C48 O47 1.208 1_554 S
C49 O54 1.247 . S
C49 O55 1.208 . S
C50 O42 1.315 . S
C50 O45 1.279 . S
C51 O52 1.315 . S
C51 O53 1.279 1_554 S
O52 Cd44 2.223 1_554 S
O52 C51 1.315 . S
O53 Cd43 2.240 1_556 S
O53 C51 1.279 1_556 S
O54 Cd44 2.297 . S
O54 C49 1.247 . S
O55 Cd44 2.439 . S
O55 C49 1.208 . S
O56 Cd57 2.223 . S
O56 C64 1.315 . S
Cd57 O56 2.223 . S
Cd57 O60 2.297 . S
Cd57 O61 2.439 . S
Cd57 O67 2.240 . S
Cd58 O59 2.240 . S
Cd58 O66 2.223 . S
Cd58 O68 2.297 . S
Cd58 O69 2.439 . S
O59 Cd58 2.240 . S
O59 C64 1.279 . S
O60 Cd57 2.297 . S
O60 C62 1.247 . S
O61 Cd57 2.439 . S
O61 C62 1.208 . S
C62 O60 1.247 . S
C62 O61 1.208 . S
C63 O68 1.247 . S
C63 O69 1.208 . S
C64 O56 1.315 . S
C64 O59 1.279 . S
C65 O66 1.315 . S
C65 O67 1.279 . S
O66 Cd58 2.223 . S
O66 C65 1.315 . S
O67 Cd57 2.240 . S
O67 C65 1.279 . S
O68 Cd58 2.297 . S
O68 C63 1.247 . S
O69 Cd58 2.439 . S
O69 C63 1.208 . S
O70 Cd71 2.223 . S
O70 C78 1.315 . S
Cd71 O70 2.223 . S
Cd71 O74 2.297 . S
Cd71 O75 2.439 . S
Cd71 O81 2.240 . S
Cd72 O73 2.240 . S
Cd72 O80 2.223 . S
Cd72 O82 2.297 . S
Cd72 O83 2.439 . S
O73 Cd72 2.240 . S
O73 C78 1.279 . S
O74 Cd71 2.297 . S
O74 C76 1.247 . S
O75 Cd71 2.439 . S
O75 C76 1.208 . S
C76 O74 1.247 . S
C76 O75 1.208 . S
C77 O82 1.247 . S
C77 O83 1.208 . S
C78 O70 1.315 . S
C78 O73 1.279 . S
C79 O80 1.315 . S
C79 O81 1.279 . S
O80 Cd72 2.223 . S
O80 C79 1.315 . S
O81 Cd71 2.240 . S
O81 C79 1.279 . S
O82 Cd72 2.297 . S
O82 C77 1.247 . S
O83 Cd72 2.439 . S
O83 C77 1.208 . S
O84 Cd85 2.223 . S
O84 C92 1.315 . S
Cd85 O84 2.223 . S
Cd85 O88 2.297 . S
Cd85 O89 2.439 1_556 S
Cd85 O95 2.240 1_556 S
Cd86 O87 2.240 1_554 S
Cd86 O94 2.223 1_554 S
Cd86 O96 2.297 . S
Cd86 O97 2.439 . S
O87 Cd86 2.240 1_556 S
O87 C92 1.279 . S
O88 Cd85 2.297 . S
O88 C90 1.247 . S
O89 Cd85 2.439 1_554 S
O89 C90 1.208 1_554 S
C90 O88 1.247 . S
C90 O89 1.208 1_556 S
C91 O96 1.247 . S
C91 O97 1.208 . S
C92 O84 1.315 . S
C92 O87 1.279 . S
C93 O94 1.315 . S
C93 O95 1.279 1_556 S
O94 Cd86 2.223 1_556 S
O94 C93 1.315 . S
O95 Cd85 2.240 1_554 S
O95 C93 1.279 1_554 S
O96 Cd86 2.297 . S
O96 C91 1.247 . S
O97 Cd86 2.439 . S
O97 C91 1.208 . S
O98 Cd99 2.223 . S
O98 C106 1.315 . S
Cd99 O98 2.223 . S
Cd99 O102 2.297 . S
Cd99 O103 2.439 1_556 S
Cd99 O109 2.240 1_556 S
Cd100 O101 2.240 1_554 S
Cd100 O108 2.223 1_554 S
Cd100 O110 2.297 . S
Cd100 O111 2.439 . S
O101 Cd100 2.240 1_556 S
O101 C106 1.279 . S
O102 Cd99 2.297 . S
O102 C104 1.247 . S
O103 Cd99 2.439 1_554 S
O103 C104 1.208 1_554 S
C104 O102 1.247 . S
C104 O103 1.208 1_556 S
C105 O110 1.247 . S
C105 O111 1.208 . S
C106 O98 1.315 . S
C106 O101 1.279 . S
C107 O108 1.315 . S
C107 O109 1.279 1_556 S
O108 Cd100 2.223 1_556 S
O108 C107 1.315 . S
O109 Cd99 2.240 1_554 S
O109 C107 1.279 1_554 S
O110 Cd100 2.297 . S
O110 C105 1.247 . S
O111 Cd100 2.439 . S
O111 C105 1.208 . S
O112 Cd113 2.223 . S
O112 C120 1.315 . S
Cd113 O112 2.223 . S
Cd113 O116 2.297 . S
Cd113 O117 2.439 . S
Cd113 O123 2.240 . S
Cd114 O115 2.240 . S
Cd114 O122 2.223 . S
Cd114 O124 2.297 . S
Cd114 O125 2.439 . S
O115 Cd114 2.240 . S
O115 C120 1.279 . S
O116 Cd113 2.297 . S
O116 C118 1.247 . S
O117 Cd113 2.439 . S
O117 C118 1.208 . S
C118 O116 1.247 . S
C118 O117 1.208 . S
C119 O124 1.247 . S
C119 O125 1.208 . S
C120 O112 1.315 . S
C120 O115 1.279 . S
C121 O122 1.315 . S
C121 O123 1.279 . S
O122 Cd114 2.223 . S
O122 C121 1.315 . S
O123 Cd113 2.240 . S
O123 C121 1.279 . S
O124 Cd114 2.297 . S
O124 C119 1.247 . S
O125 Cd114 2.439 . S
O125 C119 1.208 . S
O126 Cd127 2.223 . S
O126 C134 1.315 . S
Cd127 O126 2.223 . S
Cd127 O130 2.297 . S
Cd127 O131 2.439 . S
Cd127 O137 2.240 . S
Cd128 O129 2.240 . S
Cd128 O136 2.223 . S
Cd128 O138 2.297 . S
Cd128 O139 2.439 . S
O129 Cd128 2.240 . S
O129 C134 1.279 . S
O130 Cd127 2.297 . S
O130 C132 1.247 . S
O131 Cd127 2.439 . S
O131 C132 1.208 . S
C132 O130 1.247 . S
C132 O131 1.208 . S
C133 O138 1.247 . S
C133 O139 1.208 . S
C134 O126 1.315 . S
C134 O129 1.279 . S
C135 O136 1.315 . S
C135 O137 1.279 . S
O136 Cd128 2.223 . S
O136 C135 1.315 . S
O137 Cd127 2.240 . S
O137 C135 1.279 . S
O138 Cd128 2.297 . S
O138 C133 1.247 . S
O139 Cd128 2.439 . S
O139 C133 1.208 . S
O140 Cd141 2.223 . S
O140 C148 1.315 . S
Cd141 O140 2.223 . S
Cd141 O144 2.297 . S
Cd141 O145 2.439 . S
Cd141 O151 2.240 . S
Cd142 O143 2.240 . S
Cd142 O150 2.223 . S
Cd142 O152 2.297 . S
Cd142 O153 2.439 . S
O143 Cd142 2.240 . S
O143 C148 1.279 . S
O144 Cd141 2.297 . S
O144 C146 1.247 . S
O145 Cd141 2.439 . S
O145 C146 1.208 . S
C146 O144 1.247 . S
C146 O145 1.208 . S
C147 O152 1.247 . S
C147 O153 1.208 . S
C148 O140 1.315 . S
C148 O143 1.279 . S
C149 O150 1.315 . S
C149 O151 1.279 . S
O150 Cd142 2.223 . S
O150 C149 1.315 . S
O151 Cd141 2.240 . S
O151 C149 1.279 . S
O152 Cd142 2.297 . S
O152 C147 1.247 . S
O153 Cd142 2.439 . S
O153 C147 1.208 . S
O154 Cd155 2.223 . S
O154 C162 1.315 . S
Cd155 O154 2.223 . S
Cd155 O158 2.297 . S
Cd155 O159 2.439 . S
Cd155 O165 2.240 . S
Cd156 O157 2.240 . S
Cd156 O164 2.223 . S
Cd156 O166 2.297 . S
Cd156 O167 2.439 . S
O157 Cd156 2.240 . S
O157 C162 1.279 . S
O158 Cd155 2.297 . S
O158 C160 1.247 . S
O159 Cd155 2.439 . S
O159 C160 1.208 . S
C160 O158 1.247 . S
C160 O159 1.208 . S
C161 O166 1.247 . S
C161 O167 1.208 . S
C162 O154 1.315 . S
C162 O157 1.279 . S
C163 O164 1.315 . S
C163 O165 1.279 . S
O164 Cd156 2.223 . S
O164 C163 1.315 . S
O165 Cd155 2.240 . S
O165 C163 1.279 . S
O166 Cd156 2.297 . S
O166 C161 1.247 . S
O167 Cd156 2.439 . S
O167 C161 1.208 . S
O168 Cd169 2.223 . S
O168 C176 1.315 . S
Cd169 O168 2.223 . S
Cd169 O172 2.297 . S
Cd169 O173 2.439 . S
Cd169 O179 2.240 . S
Cd170 O171 2.240 . S
Cd170 O178 2.223 . S
Cd170 O180 2.297 . S
Cd170 O181 2.439 . S
O171 Cd170 2.240 . S
O171 C176 1.279 . S
O172 Cd169 2.297 . S
O172 C174 1.247 . S
O173 Cd169 2.439 . S
O173 C174 1.208 . S
C174 O172 1.247 . S
C174 O173 1.208 . S
C175 O180 1.247 . S
C175 O181 1.208 . S
C176 O168 1.315 . S
C176 O171 1.279 . S
C177 O178 1.315 . S
C177 O179 1.279 . S
O178 Cd170 2.223 . S
O178 C177 1.315 . S
O179 Cd169 2.240 . S
O179 C177 1.279 . S
O180 Cd170 2.297 . S
O180 C175 1.247 . S
O181 Cd170 2.439 . S
O181 C175 1.208 . S
O182 Cd183 2.223 . S
O182 C190 1.315 . S
Cd183 O182 2.223 . S
Cd183 O186 2.297 . S
Cd183 O187 2.439 . S
Cd183 O193 2.240 . S
Cd184 O185 2.240 . S
Cd184 O192 2.223 . S
Cd184 O194 2.297 . S
Cd184 O195 2.439 . S
O185 Cd184 2.240 . S
O185 C190 1.279 . S
O186 Cd183 2.297 . S
O186 C188 1.247 . S
O187 Cd183 2.439 . S
O187 C188 1.208 . S
C188 O186 1.247 . S
C188 O187 1.208 . S
C189 O194 1.247 . S
C189 O195 1.208 . S
C190 O182 1.315 . S
C190 O185 1.279 . S
C191 O192 1.315 . S
C191 O193 1.279 . S
O192 Cd184 2.223 . S
O192 C191 1.315 . S
O193 Cd183 2.240 . S
O193 C191 1.279 . S
O194 Cd184 2.297 . S
O194 C189 1.247 . S
O195 Cd184 2.439 . S
O195 C189 1.208 . S
O196 Cd197 2.223 . S
O196 C204 1.315 . S
Cd197 O196 2.223 . S
Cd197 O200 2.297 . S
Cd197 O201 2.439 . S
Cd197 O207 2.240 . S
Cd198 O199 2.240 . S
Cd198 O206 2.223 . S
Cd198 O208 2.297 . S
Cd198 O209 2.439 . S
O199 Cd198 2.240 . S
O199 C204 1.279 . S
O200 Cd197 2.297 . S
O200 C202 1.247 . S
O201 Cd197 2.439 . S
O201 C202 1.208 . S
C202 O200 1.247 . S
C202 O201 1.208 . S
C203 O208 1.247 . S
C203 O209 1.208 . S
C204 O196 1.315 . S
C204 O199 1.279 . S
C205 O206 1.315 . S
C205 O207 1.279 . S
O206 Cd198 2.223 . S
O206 C205 1.315 . S
O207 Cd197 2.240 . S
O207 C205 1.279 . S
O208 Cd198 2.297 . S
O208 C203 1.247 . S
O209 Cd198 2.439 . S
O209 C203 1.208 . S
O210 Cd211 2.223 . S
O210 C218 1.315 . S
Cd211 O210 2.223 . S
Cd211 O214 2.297 . S
Cd211 O215 2.439 . S
Cd211 O221 2.240 . S
Cd212 O213 2.240 . S
Cd212 O220 2.223 . S
Cd212 O222 2.297 . S
Cd212 O223 2.439 . S
O213 Cd212 2.240 . S
O213 C218 1.279 . S
O214 Cd211 2.297 . S
O214 C216 1.247 . S
O215 Cd211 2.439 . S
O215 C216 1.208 . S
C216 O214 1.247 . S
C216 O215 1.208 . S
C217 O222 1.247 . S
C217 O223 1.208 . S
C218 O210 1.315 . S
C218 O213 1.279 . S
C219 O220 1.315 . S
C219 O221 1.279 . S
O220 Cd212 2.223 . S
O220 C219 1.315 . S
O221 Cd211 2.240 . S
O221 C219 1.279 . S
O222 Cd212 2.297 . S
O222 C217 1.247 . S
O223 Cd212 2.439 . S
O223 C217 1.208 . S
O224 Cd225 2.223 . S
O224 C232 1.315 . S
Cd225 O224 2.223 . S
Cd225 O228 2.297 . S
Cd225 O229 2.439 . S
Cd225 O235 2.240 . S
Cd226 O227 2.240 . S
Cd226 O234 2.223 . S
Cd226 O236 2.297 . S
Cd226 O237 2.439 . S
O227 Cd226 2.240 . S
O227 C232 1.279 . S
O228 Cd225 2.297 . S
O228 C230 1.247 . S
O229 Cd225 2.439 . S
O229 C230 1.208 . S
C230 O228 1.247 . S
C230 O229 1.208 . S
C231 O236 1.247 . S
C231 O237 1.208 . S
C232 O224 1.315 . S
C232 O227 1.279 . S
C233 O234 1.315 . S
C233 O235 1.279 . S
O234 Cd226 2.223 . S
O234 C233 1.315 . S
O235 Cd225 2.240 . S
O235 C233 1.279 . S
O236 Cd226 2.297 . S
O236 C231 1.247 . S
O237 Cd226 2.439 . S
O237 C231 1.208 . S
O238 Cd239 2.223 . S
O238 C246 1.315 . S
Cd239 O238 2.223 . S
Cd239 O242 2.297 . S
Cd239 O243 2.439 . S
Cd239 O249 2.240 . S
Cd240 O241 2.240 . S
Cd240 O248 2.223 . S
Cd240 O250 2.297 . S
Cd240 O251 2.439 . S
O241 Cd240 2.240 . S
O241 C246 1.279 . S
O242 Cd239 2.297 . S
O242 C244 1.247 . S
O243 Cd239 2.439 . S
O243 C244 1.208 . S
C244 O242 1.247 . S
C244 O243 1.208 . S
C245 O250 1.247 . S
C245 O251 1.208 . S
C246 O238 1.315 . S
C246 O241 1.279 . S
C247 O248 1.315 . S
C247 O249 1.279 . S
O248 Cd240 2.223 . S
O248 C247 1.315 . S
O249 Cd239 2.240 . S
O249 C247 1.279 . S
O250 Cd240 2.297 . S
O250 C245 1.247 . S
O251 Cd240 2.439 . S
O251 C245 1.208 . S
O252 Cd253 2.223 . S
O252 C260 1.315 . S
Cd253 O252 2.223 . S
Cd253 O256 2.297 . S
Cd253 O257 2.439 . S
Cd253 O263 2.240 . S
Cd254 O255 2.240 . S
Cd254 O262 2.223 . S
Cd254 O264 2.297 . S
Cd254 O265 2.439 . S
O255 Cd254 2.240 . S
O255 C260 1.279 . S
O256 Cd253 2.297 . S
O256 C258 1.247 . S
O257 Cd253 2.439 . S
O257 C258 1.208 . S
C258 O256 1.247 . S
C258 O257 1.208 . S
C259 O264 1.247 . S
C259 O265 1.208 . S
C260 O252 1.315 . S
C260 O255 1.279 . S
C261 O262 1.315 . S
C261 O263 1.279 . S
O262 Cd254 2.223 . S
O262 C261 1.315 . S
O263 Cd253 2.240 . S
O263 C261 1.279 . S
O264 Cd254 2.297 . S
O264 C259 1.247 . S
O265 Cd254 2.439 . S
O265 C259 1.208 . S
O266 Cd267 2.223 . S
O266 C274 1.315 . S
Cd267 O266 2.223 . S
Cd267 O270 2.297 . S
Cd267 O271 2.439 . S
Cd267 O277 2.240 . S
Cd268 O269 2.240 . S
Cd268 O276 2.223 . S
Cd268 O278 2.297 . S
Cd268 O279 2.439 . S
O269 Cd268 2.240 . S
O269 C274 1.279 . S
O270 Cd267 2.297 . S
O270 C272 1.247 . S
O271 Cd267 2.439 . S
O271 C272 1.208 . S
C272 O270 1.247 . S
C272 O271 1.208 . S
C273 O278 1.247 . S
C273 O279 1.208 . S
C274 O266 1.315 . S
C274 O269 1.279 . S
C275 O276 1.315 . S
C275 O277 1.279 . S
O276 Cd268 2.223 . S
O276 C275 1.315 . S
O277 Cd267 2.240 . S
O277 C275 1.279 . S
O278 Cd268 2.297 . S
O278 C273 1.247 . S
O279 Cd268 2.439 . S
O279 C273 1.208 . S
O280 Cd281 2.223 . S
O280 C288 1.315 . S
Cd281 O280 2.223 . S
Cd281 O284 2.297 . S
Cd281 O285 2.439 . S
Cd281 O291 2.240 . S
Cd282 O283 2.240 . S
Cd282 O290 2.223 . S
Cd282 O292 2.297 . S
Cd282 O293 2.439 . S
O283 Cd282 2.240 . S
O283 C288 1.279 . S
O284 Cd281 2.297 . S
O284 C286 1.247 . S
O285 Cd281 2.439 . S
O285 C286 1.208 . S
C286 O284 1.247 . S
C286 O285 1.208 . S
C287 O292 1.247 . S
C287 O293 1.208 . S
C288 O280 1.315 . S
C288 O283 1.279 . S
C289 O290 1.315 . S
C289 O291 1.279 . S
O290 Cd282 2.223 . S
O290 C289 1.315 . S
O291 Cd281 2.240 . S
O291 C289 1.279 . S
O292 Cd282 2.297 . S
O292 C287 1.247 . S
O293 Cd282 2.439 . S
O293 C287 1.208 . S
O294 Cd295 2.223 . S
O294 C302 1.315 . S
Cd295 O294 2.223 . S
Cd295 O298 2.297 . S
Cd295 O299 2.439 . S
Cd295 O305 2.240 . S
Cd296 O297 2.240 . S
Cd296 O304 2.223 . S
Cd296 O306 2.297 . S
Cd296 O307 2.439 . S
O297 Cd296 2.240 . S
O297 C302 1.279 . S
O298 Cd295 2.297 . S
O298 C300 1.247 . S
O299 Cd295 2.439 . S
O299 C300 1.208 . S
C300 O298 1.247 . S
C300 O299 1.208 . S
C301 O306 1.247 . S
C301 O307 1.208 . S
C302 O294 1.315 . S
C302 O297 1.279 . S
C303 O304 1.315 . S
C303 O305 1.279 . S
O304 Cd296 2.223 . S
O304 C303 1.315 . S
O305 Cd295 2.240 . S
O305 C303 1.279 . S
O306 Cd296 2.297 . S
O306 C301 1.247 . S
O307 Cd296 2.439 . S
O307 C301 1.208 . S
O308 Cd309 2.223 . S
O308 C316 1.315 . S
Cd309 O308 2.223 . S
Cd309 O312 2.297 . S
Cd309 O313 2.439 . S
Cd309 O319 2.240 . S
Cd310 O311 2.240 . S
Cd310 O318 2.223 . S
Cd310 O320 2.297 . S
Cd310 O321 2.439 . S
O311 Cd310 2.240 . S
O311 C316 1.279 . S
O312 Cd309 2.297 . S
O312 C314 1.247 . S
O313 Cd309 2.439 . S
O313 C314 1.208 . S
C314 O312 1.247 . S
C314 O313 1.208 . S
C315 O320 1.247 . S
C315 O321 1.208 . S
C316 O308 1.315 . S
C316 O311 1.279 . S
C317 O318 1.315 . S
C317 O319 1.279 . S
O318 Cd310 2.223 . S
O318 C317 1.315 . S
O319 Cd309 2.240 . S
O319 C317 1.279 . S
O320 Cd310 2.297 . S
O320 C315 1.247 . S
O321 Cd310 2.439 . S
O321 C315 1.208 . S
O322 Cd323 2.223 . S
O322 C330 1.315 . S
Cd323 O322 2.223 . S
Cd323 O326 2.297 . S
Cd323 O327 2.439 . S
Cd323 O333 2.240 . S
Cd324 O325 2.240 . S
Cd324 O332 2.223 . S
Cd324 O334 2.297 . S
Cd324 O335 2.439 . S
O325 Cd324 2.240 . S
O325 C330 1.279 . S
O326 Cd323 2.297 . S
O326 C328 1.247 . S
O327 Cd323 2.439 . S
O327 C328 1.208 . S
C328 O326 1.247 . S
C328 O327 1.208 . S
C329 O334 1.247 . S
C329 O335 1.208 . S
C330 O322 1.315 . S
C330 O325 1.279 . S
C331 O332 1.315 . S
C331 O333 1.279 . S
O332 Cd324 2.223 . S
O332 C331 1.315 . S
O333 Cd323 2.240 . S
O333 C331 1.279 . S
O334 Cd324 2.297 . S
O334 C329 1.247 . S
O335 Cd324 2.439 . S
O335 C329 1.208 . S
O336 Cd337 2.223 . S
O336 C344 1.315 . S
Cd337 O336 2.223 . S
Cd337 O340 2.297 . S
Cd337 O341 2.439 . S
Cd337 O347 2.240 . S
Cd338 O339 2.240 . S
Cd338 O346 2.223 . S
Cd338 O348 2.297 . S
Cd338 O349 2.439 . S
O339 Cd338 2.240 . S
O339 C344 1.279 . S
O340 Cd337 2.297 . S
O340 C342 1.247 . S
O341 Cd337 2.439 . S
O341 C342 1.208 . S
C342 O340 1.247 . S
C342 O341 1.208 . S
C343 O348 1.247 . S
C343 O349 1.208 . S
C344 O336 1.315 . S
C344 O339 1.279 . S
C345 O346 1.315 . S
C345 O347 1.279 . S
O346 Cd338 2.223 . S
O346 C345 1.315 . S
O347 Cd337 2.240 . S
O347 C345 1.279 . S
O348 Cd338 2.297 . S
O348 C343 1.247 . S
O349 Cd338 2.439 . S
O349 C343 1.208 . S
O350 Cd351 2.223 . S
O350 C358 1.315 . S
Cd351 O350 2.223 . S
Cd351 O354 2.297 . S
Cd351 O355 2.439 . S
Cd351 O361 2.240 . S
Cd352 O353 2.240 . S
Cd352 O360 2.223 . S
Cd352 O362 2.297 . S
Cd352 O363 2.439 . S
O353 Cd352 2.240 . S
O353 C358 1.279 . S
O354 Cd351 2.297 . S
O354 C356 1.247 . S
O355 Cd351 2.439 . S
O355 C356 1.208 . S
C356 O354 1.247 . S
C356 O355 1.208 . S
C357 O362 1.247 . S
C357 O363 1.208 . S
C358 O350 1.315 . S
C358 O353 1.279 . S
C359 O360 1.315 . S
C359 O361 1.279 . S
O360 Cd352 2.223 . S
O360 C359 1.315 . S
O361 Cd351 2.240 . S
O361 C359 1.279 . S
O362 Cd352 2.297 . S
O362 C357 1.247 . S
O363 Cd352 2.439 . S
O363 C357 1.208 . S
O364 Cd365 2.223 . S
O364 C372 1.315 . S
Cd365 O364 2.223 . S
Cd365 O368 2.297 . S
Cd365 O369 2.439 1_554 S
Cd365 O375 2.240 1_554 S
Cd366 O367 2.240 1_556 S
Cd366 O374 2.223 1_556 S
Cd366 O376 2.297 . S
Cd366 O377 2.439 . S
O367 Cd366 2.240 1_554 S
O367 C372 1.279 . S
O368 Cd365 2.297 . S
O368 C370 1.247 . S
O369 Cd365 2.439 1_556 S
O369 C370 1.208 1_556 S
C370 O368 1.247 . S
C370 O369 1.208 1_554 S
C371 O376 1.247 . S
C371 O377 1.208 . S
C372 O364 1.315 . S
C372 O367 1.279 . S
C373 O374 1.315 . S
C373 O375 1.279 1_554 S
O374 Cd366 2.223 1_554 S
O374 C373 1.315 . S
O375 Cd365 2.240 1_556 S
O375 C373 1.279 1_556 S
O376 Cd366 2.297 . S
O376 C371 1.247 . S
O377 Cd366 2.439 . S
O377 C371 1.208 . S
O378 Cd379 2.223 . S
O378 C386 1.315 . S
Cd379 O378 2.223 . S
Cd379 O382 2.297 . S
Cd379 O383 2.439 1_554 S
Cd379 O389 2.240 1_554 S
Cd380 O381 2.240 1_556 S
Cd380 O388 2.223 1_556 S
Cd380 O390 2.297 . S
Cd380 O391 2.439 . S
O381 Cd380 2.240 1_554 S
O381 C386 1.279 . S
O382 Cd379 2.297 . S
O382 C384 1.247 . S
O383 Cd379 2.439 1_556 S
O383 C384 1.208 1_556 S
C384 O382 1.247 . S
C384 O383 1.208 1_554 S
C385 O390 1.247 . S
C385 O391 1.208 . S
C386 O378 1.315 . S
C386 O381 1.279 . S
C387 O388 1.315 . S
C387 O389 1.279 1_554 S
O388 Cd380 2.223 1_554 S
O388 C387 1.315 . S
O389 Cd379 2.240 1_556 S
O389 C387 1.279 1_556 S
O390 Cd380 2.297 . S
O390 C385 1.247 . S
O391 Cd380 2.439 . S
O391 C385 1.208 . S
O392 Cd393 2.223 . S
O392 C400 1.315 . S
Cd393 O392 2.223 . S
Cd393 O396 2.297 . S
Cd393 O397 2.439 . S
Cd393 O403 2.240 . S
Cd394 O395 2.240 . S
Cd394 O402 2.223 . S
Cd394 O404 2.297 . S
Cd394 O405 2.439 . S
O395 Cd394 2.240 . S
O395 C400 1.279 . S
O396 Cd393 2.297 . S
O396 C398 1.247 . S
O397 Cd393 2.439 . S
O397 C398 1.208 . S
C398 O396 1.247 . S
C398 O397 1.208 . S
C399 O404 1.247 . S
C399 O405 1.208 . S
C400 O392 1.315 . S
C400 O395 1.279 . S
C401 O402 1.315 . S
C401 O403 1.279 . S
O402 Cd394 2.223 . S
O402 C401 1.315 . S
O403 Cd393 2.240 . S
O403 C401 1.279 . S
O404 Cd394 2.297 . S
O404 C399 1.247 . S
O405 Cd394 2.439 . S
O405 C399 1.208 . S
O406 Cd407 2.223 . S
O406 C414 1.315 . S
Cd407 O406 2.223 . S
Cd407 O410 2.297 . S
Cd407 O411 2.439 . S
Cd407 O417 2.240 . S
Cd408 O409 2.240 . S
Cd408 O416 2.223 . S
Cd408 O418 2.297 . S
Cd408 O419 2.439 . S
O409 Cd408 2.240 . S
O409 C414 1.279 . S
O410 Cd407 2.297 . S
O410 C412 1.247 . S
O411 Cd407 2.439 . S
O411 C412 1.208 . S
C412 O410 1.247 . S
C412 O411 1.208 . S
C413 O418 1.247 . S
C413 O419 1.208 . S
C414 O406 1.315 . S
C414 O409 1.279 . S
C415 O416 1.315 . S
C415 O417 1.279 . S
O416 Cd408 2.223 . S
O416 C415 1.315 . S
O417 Cd407 2.240 . S
O417 C415 1.279 . S
O418 Cd408 2.297 . S
O418 C413 1.247 . S
O419 Cd408 2.439 . S
O419 C413 1.208 . S
O420 Cd421 2.223 . S
O420 C428 1.315 . S
Cd421 O420 2.223 . S
Cd421 O424 2.297 . S
Cd421 O425 2.439 1_556 S
Cd421 O431 2.240 1_556 S
Cd422 O423 2.240 1_554 S
Cd422 O430 2.223 1_554 S
Cd422 O432 2.297 . S
Cd422 O433 2.439 . S
O423 Cd422 2.240 1_556 S
O423 C428 1.279 . S
O424 Cd421 2.297 . S
O424 C426 1.247 . S
O425 Cd421 2.439 1_554 S
O425 C426 1.208 1_554 S
C426 O424 1.247 . S
C426 O425 1.208 1_556 S
C427 O432 1.247 . S
C427 O433 1.208 . S
C428 O420 1.315 . S
C428 O423 1.279 . S
C429 O430 1.315 . S
C429 O431 1.279 1_556 S
O430 Cd422 2.223 1_556 S
O430 C429 1.315 . S
O431 Cd421 2.240 1_554 S
O431 C429 1.279 1_554 S
O432 Cd422 2.297 . S
O432 C427 1.247 . S
O433 Cd422 2.439 . S
O433 C427 1.208 . S
O434 Cd435 2.223 . S
O434 C442 1.315 . S
Cd435 O434 2.223 . S
Cd435 O438 2.297 . S
Cd435 O439 2.439 1_556 S
Cd435 O445 2.240 1_556 S
Cd436 O437 2.240 1_554 S
Cd436 O444 2.223 1_554 S
Cd436 O446 2.297 . S
Cd436 O447 2.439 . S
O437 Cd436 2.240 1_556 S
O437 C442 1.279 . S
O438 Cd435 2.297 . S
O438 C440 1.247 . S
O439 Cd435 2.439 1_554 S
O439 C440 1.208 1_554 S
C440 O438 1.247 . S
C440 O439 1.208 1_556 S
C441 O446 1.247 . S
C441 O447 1.208 . S
C442 O434 1.315 . S
C442 O437 1.279 . S
C443 O444 1.315 . S
C443 O445 1.279 1_556 S
O444 Cd436 2.223 1_556 S
O444 C443 1.315 . S
O445 Cd435 2.240 1_554 S
O445 C443 1.279 1_554 S
O446 Cd436 2.297 . S
O446 C441 1.247 . S
O447 Cd436 2.439 . S
O447 C441 1.208 . S
C448 C449 1.369 . S
C448 C450 1.419 . S
C448 H452 0.930 . S
C449 C448 1.369 . S
C449 C458 1.429 . S
C450 C448 1.419 . S
C450 C451 1.363 . S
C450 H453 0.929 . S
C451 C450 1.363 . S
C451 C457 1.428 . S
H452 C448 0.930 . S
H453 C450 0.929 . S
S454 N455 1.613 1_655 S
S454 N456 1.610 1_655 S
N455 S454 1.613 1_455 S
N455 C458 1.350 . S
N456 S454 1.610 1_455 S
N456 C457 1.351 . S
C457 C451 1.428 . S
C457 N456 1.351 . S
C457 C458 1.434 . S
C458 C449 1.429 . S
C458 N455 1.350 . S
C458 C457 1.434 . S
C459 C460 1.369 . S
C459 C461 1.419 . S
C459 H463 0.930 . S
C460 C459 1.369 . S
C460 C469 1.429 . S
C461 C459 1.419 . S
C461 C462 1.363 . S
C461 H464 0.929 . S
C462 C461 1.363 . S
C462 C468 1.428 . S
H463 C459 0.930 . S
H464 C461 0.929 . S
S465 N466 1.613 . S
S465 N467 1.610 . S
N466 S465 1.613 . S
N466 C469 1.350 . S
N467 S465 1.610 . S
N467 C468 1.351 . S
C468 C462 1.428 . S
C468 N467 1.351 . S
C468 C469 1.434 . S
C469 C460 1.429 . S
C469 N466 1.350 . S
C469 C468 1.434 . S
C470 C471 1.369 . S
C470 C472 1.419 . S
C470 H474 0.930 . S
C471 C470 1.369 . S
C471 C480 1.429 . S
C472 C470 1.419 . S
C472 C473 1.363 . S
C472 H475 0.929 . S
C473 C472 1.363 . S
C473 C479 1.428 . S
H474 C470 0.930 . S
H475 C472 0.929 . S
S476 N477 1.613 1_455 S
S476 N478 1.610 1_455 S
N477 S476 1.613 1_655 S
N477 C480 1.350 . S
N478 S476 1.610 1_655 S
N478 C479 1.351 . S
C479 C473 1.428 . S
C479 N478 1.351 . S
C479 C480 1.434 . S
C480 C471 1.429 . S
C480 N477 1.350 . S
C480 C479 1.434 . S
C481 C482 1.369 . S
C481 C483 1.419 . S
C481 H485 0.930 . S
C482 C481 1.369 . S
C482 C491 1.429 . S
C483 C481 1.419 . S
C483 C484 1.363 . S
C483 H486 0.929 . S
C484 C483 1.363 . S
C484 C490 1.428 . S
H485 C481 0.930 . S
H486 C483 0.929 . S
S487 N488 1.613 . S
S487 N489 1.610 . S
N488 S487 1.613 . S
N488 C491 1.350 . S
N489 S487 1.610 . S
N489 C490 1.351 . S
C490 C484 1.428 . S
C490 N489 1.351 . S
C490 C491 1.434 . S
C491 C482 1.429 . S
C491 N488 1.350 . S
C491 C490 1.434 . S
C492 C493 1.369 . S
C492 C494 1.419 . S
C492 H496 0.930 . S
C493 C492 1.369 . S
C493 C502 1.429 . S
C494 C492 1.419 . S
C494 C495 1.363 . S
C494 H497 0.929 . S
C495 C494 1.363 . S
C495 C501 1.428 . S
H496 C492 0.930 . S
H497 C494 0.929 . S
S498 N499 1.613 . S
S498 N500 1.610 . S
N499 S498 1.613 . S
N499 C502 1.350 . S
N500 S498 1.610 . S
N500 C501 1.351 . S
C501 C495 1.428 . S
C501 N500 1.351 . S
C501 C502 1.434 . S
C502 C493 1.429 . S
C502 N499 1.350 . S
C502 C501 1.434 . S
C503 C504 1.369 . S
C503 C505 1.419 . S
C503 H507 0.930 . S
C504 C503 1.369 . S
C504 C513 1.429 . S
C505 C503 1.419 . S
C505 C506 1.363 . S
C505 H508 0.929 . S
C506 C505 1.363 . S
C506 C512 1.428 . S
H507 C503 0.930 . S
H508 C505 0.929 . S
S509 N510 1.613 . S
S509 N511 1.610 1_655 S
N510 S509 1.613 . S
N510 C513 1.350 1_655 S
N511 S509 1.610 1_455 S
N511 C512 1.351 . S
C512 C506 1.428 . S
C512 N511 1.351 . S
C512 C513 1.434 . S
C513 C504 1.429 . S
C513 N510 1.350 1_455 S
C513 C512 1.434 . S
C514 C515 1.369 . S
C514 C516 1.419 . S
C514 H518 0.930 . S
C515 C514 1.369 . S
C515 C524 1.429 . S
C516 C514 1.419 . S
C516 C517 1.363 . S
C516 H519 0.929 . S
C517 C516 1.363 . S
C517 C523 1.428 . S
H518 C514 0.930 . S
H519 C516 0.929 . S
S520 N521 1.613 . S
S520 N522 1.610 . S
N521 S520 1.613 . S
N521 C524 1.350 . S
N522 S520 1.610 . S
N522 C523 1.351 . S
C523 C517 1.428 . S
C523 N522 1.351 . S
C523 C524 1.434 . S
C524 C515 1.429 . S
C524 N521 1.350 . S
C524 C523 1.434 . S
C525 C526 1.369 . S
C525 C527 1.419 . S
C525 H529 0.930 . S
C526 C525 1.369 . S
C526 C535 1.429 . S
C527 C525 1.419 . S
C527 C528 1.363 . S
C527 H530 0.929 . S
C528 C527 1.363 . S
C528 C534 1.428 . S
H529 C525 0.930 . S
H530 C527 0.929 . S
S531 N532 1.613 1_455 S
S531 N533 1.610 . S
N532 S531 1.613 1_655 S
N532 C535 1.350 . S
N533 S531 1.610 . S
N533 C534 1.351 1_455 S
C534 C528 1.428 . S
C534 N533 1.351 1_655 S
C534 C535 1.434 . S
C535 C526 1.429 . S
C535 N532 1.350 . S
C535 C534 1.434 . S
C536 C537 1.369 . S
C536 C538 1.419 . S
C536 H540 0.930 . S
C537 C536 1.369 . S
C537 C546 1.429 . S
C538 C536 1.419 . S
C538 C539 1.363 . S
C538 H541 0.929 . S
C539 C538 1.363 . S
C539 C545 1.428 . S
H540 C536 0.930 . S
H541 C538 0.929 . S
S542 N543 1.613 . S
S542 N544 1.610 . S
N543 S542 1.613 . S
N543 C546 1.350 . S
N544 S542 1.610 . S
N544 C545 1.351 . S
C545 C539 1.428 . S
C545 N544 1.351 . S
C545 C546 1.434 . S
C546 C537 1.429 . S
C546 N543 1.350 . S
C546 C545 1.434 . S
C547 C548 1.369 . S
C547 C549 1.419 . S
C547 H551 0.930 . S
C548 C547 1.369 . S
C548 C557 1.429 . S
C549 C547 1.419 . S
C549 C550 1.363 . S
C549 H552 0.929 . S
C550 C549 1.363 . S
C550 C556 1.428 . S
H551 C547 0.930 . S
H552 C549 0.929 . S
S553 N554 1.613 . S
S553 N555 1.610 . S
N554 S553 1.613 . S
N554 C557 1.350 . S
N555 S553 1.610 . S
N555 C556 1.351 . S
C556 C550 1.428 . S
C556 N555 1.351 . S
C556 C557 1.434 . S
C557 C548 1.429 . S
C557 N554 1.350 . S
C557 C556 1.434 . S
C558 C559 1.369 . S
C558 C560 1.419 . S
C558 H562 0.930 . S
C559 C558 1.369 . S
C559 C568 1.429 . S
C560 C558 1.419 . S
C560 C561 1.363 . S
C560 H563 0.929 . S
C561 C560 1.363 . S
C561 C567 1.428 . S
H562 C558 0.930 . S
H563 C560 0.929 . S
S564 N565 1.613 . S
S564 N566 1.610 . S
N565 S564 1.613 . S
N565 C568 1.350 . S
N566 S564 1.610 . S
N566 C567 1.351 . S
C567 C561 1.428 . S
C567 N566 1.351 . S
C567 C568 1.434 . S
C568 C559 1.429 . S
C568 N565 1.350 . S
C568 C567 1.434 . S
C569 C570 1.369 . S
C569 C571 1.419 . S
C569 H573 0.930 . S
C570 C569 1.369 . S
C570 C579 1.429 . S
C571 C569 1.419 . S
C571 C572 1.363 . S
C571 H574 0.929 . S
C572 C571 1.363 . S
C572 C578 1.428 . S
H573 C569 0.930 . S
H574 C571 0.929 . S
S575 N576 1.613 . S
S575 N577 1.610 . S
N576 S575 1.613 . S
N576 C579 1.350 . S
N577 S575 1.610 . S
N577 C578 1.351 . S
C578 C572 1.428 . S
C578 N577 1.351 . S
C578 C579 1.434 . S
C579 C570 1.429 . S
C579 N576 1.350 . S
C579 C578 1.434 . S
C580 C581 1.369 . S
C580 C582 1.419 . S
C580 H584 0.930 . S
C581 C580 1.369 . S
C581 C590 1.429 . S
C582 C580 1.419 . S
C582 C583 1.363 . S
C582 H585 0.929 . S
C583 C582 1.363 . S
C583 C589 1.428 . S
H584 C580 0.930 . S
H585 C582 0.929 . S
S586 N587 1.613 . S
S586 N588 1.610 . S
N587 S586 1.613 . S
N587 C590 1.350 . S
N588 S586 1.610 . S
N588 C589 1.351 . S
C589 C583 1.428 . S
C589 N588 1.351 . S
C589 C590 1.434 . S
C590 C581 1.429 . S
C590 N587 1.350 . S
C590 C589 1.434 . S
C591 C592 1.369 . S
C591 C593 1.419 . S
C591 H595 0.930 . S
C592 C591 1.369 . S
C592 C601 1.429 . S
C593 C591 1.419 . S
C593 C594 1.363 . S
C593 H596 0.929 . S
C594 C593 1.363 . S
C594 C600 1.428 . S
H595 C591 0.930 . S
H596 C593 0.929 . S
S597 N598 1.613 . S
S597 N599 1.610 . S
N598 S597 1.613 . S
N598 C601 1.350 . S
N599 S597 1.610 . S
N599 C600 1.351 . S
C600 C594 1.428 . S
C600 N599 1.351 . S
C600 C601 1.434 . S
C601 C592 1.429 . S
C601 N598 1.350 . S
C601 C600 1.434 . S
C602 C603 1.369 . S
C602 C604 1.419 . S
C602 H606 0.930 . S
C603 C602 1.369 . S
C603 C612 1.429 . S
C604 C602 1.419 . S
C604 C605 1.363 . S
C604 H607 0.929 . S
C605 C604 1.363 . S
C605 C611 1.428 . S
H606 C602 0.930 . S
H607 C604 0.929 . S
S608 N609 1.613 . S
S608 N610 1.610 . S
N609 S608 1.613 . S
N609 C612 1.350 . S
N610 S608 1.610 . S
N610 C611 1.351 . S
C611 C605 1.428 . S
C611 N610 1.351 . S
C611 C612 1.434 . S
C612 C603 1.429 . S
C612 N609 1.350 . S
C612 C611 1.434 . S
C613 C614 1.369 . S
C613 C615 1.419 . S
C613 H617 0.930 . S
C614 C613 1.369 . S
C614 C623 1.429 . S
C615 C613 1.419 . S
C615 C616 1.363 . S
C615 H618 0.929 . S
C616 C615 1.363 . S
C616 C622 1.428 . S
H617 C613 0.930 . S
H618 C615 0.929 . S
S619 N620 1.613 . S
S619 N621 1.610 . S
N620 S619 1.613 . S
N620 C623 1.350 . S
N621 S619 1.610 . S
N621 C622 1.351 . S
C622 C616 1.428 . S
C622 N621 1.351 . S
C622 C623 1.434 . S
C623 C614 1.429 . S
C623 N620 1.350 . S
C623 C622 1.434 . S
C624 C625 1.369 1_455 S
C624 C626 1.419 . S
C624 H628 0.930 . S
C625 C624 1.369 1_655 S
C625 C634 1.429 . S
C626 C624 1.419 . S
C626 C627 1.363 . S
C626 H629 0.929 . S
C627 C626 1.363 . S
C627 C633 1.428 1_455 S
H628 C624 0.930 . S
H629 C626 0.929 . S
S630 N631 1.613 . S
S630 N632 1.610 . S
N631 S630 1.613 . S
N631 C634 1.350 . S
N632 S630 1.610 . S
N632 C633 1.351 . S
C633 C627 1.428 1_655 S
C633 N632 1.351 . S
C633 C634 1.434 . S
C634 C625 1.429 . S
C634 N631 1.350 . S
C634 C633 1.434 . S
C635 C636 1.369 . S
C635 C637 1.419 1_565 S
C635 H639 0.930 . S
C636 C635 1.369 . S
C636 C645 1.429 . S
C637 C635 1.419 1_545 S
C637 C638 1.363 . S
C637 H640 0.929 . S
C638 C637 1.363 . S
C638 C644 1.428 . S
H639 C635 0.930 . S
H640 C637 0.929 . S
S641 N642 1.613 1_545 S
S641 N643 1.610 . S
N642 S641 1.613 1_565 S
N642 C645 1.350 . S
N643 S641 1.610 . S
N643 C644 1.351 . S
C644 C638 1.428 . S
C644 N643 1.351 . S
C644 C645 1.434 1_545 S
C645 C636 1.429 . S
C645 N642 1.350 . S
C645 C644 1.434 1_565 S
C646 C647 1.369 . S
C646 C648 1.419 1_565 S
C646 H650 0.930 . S
C647 C646 1.369 . S
C647 C656 1.429 1_454 S
C648 C646 1.419 1_545 S
C648 C649 1.363 1_454 S
C648 H651 0.929 . S
C649 C648 1.363 1_656 S
C649 C655 1.428 . S
H650 C646 0.930 . S
H651 C648 0.929 . S
S652 N653 1.613 . S
S652 N654 1.610 1_565 S
N653 S652 1.613 . S
N653 C656 1.350 . S
N654 S652 1.610 1_545 S
N654 C655 1.351 . S
C655 C649 1.428 . S
C655 N654 1.351 . S
C655 C656 1.434 1_545 S
C656 C647 1.429 1_656 S
C656 N653 1.350 . S
C656 C655 1.434 1_565 S
C657 C658 1.369 1_554 S
C657 C659 1.419 . S
C657 H661 0.930 . S
C658 C657 1.369 1_556 S
C658 C667 1.429 . S
C659 C657 1.419 . S
C659 C660 1.363 . S
C659 H662 0.929 . S
C660 C659 1.363 . S
C660 C666 1.428 1_554 S
H661 C657 0.930 . S
H662 C659 0.929 . S
S663 N664 1.613 . S
S663 N665 1.610 . S
N664 S663 1.613 . S
N664 C667 1.350 . S
N665 S663 1.610 . S
N665 C666 1.351 . S
C666 C660 1.428 1_556 S
C666 N665 1.351 . S
C666 C667 1.434 . S
C667 C658 1.429 . S
C667 N664 1.350 . S
C667 C666 1.434 . S
C668 C669 1.369 . S
C668 C670 1.419 . S
C668 H672 0.930 . S
C669 C668 1.369 . S
C669 C678 1.429 1_655 S
C670 C668 1.419 . S
C670 C671 1.363 1_655 S
C670 H673 0.929 . S
C671 C670 1.363 1_455 S
C671 C677 1.428 . S
H672 C668 0.930 . S
H673 C670 0.929 . S
S674 N675 1.613 . S
S674 N676 1.610 . S
N675 S674 1.613 . S
N675 C678 1.350 . S
N676 S674 1.610 . S
N676 C677 1.351 . S
C677 C671 1.428 . S
C677 N676 1.351 . S
C677 C678 1.434 . S
C678 C669 1.429 1_455 S
C678 N675 1.350 . S
C678 C677 1.434 . S
C679 C680 1.369 . S
C679 C681 1.419 1_565 S
C679 H683 0.930 . S
C680 C679 1.369 . S
C680 C689 1.429 . S
C681 C679 1.419 1_545 S
C681 C682 1.363 . S
C681 H684 0.929 . S
C682 C681 1.363 . S
C682 C688 1.428 . S
H683 C679 0.930 . S
H684 C681 0.929 . S
S685 N686 1.613 . S
S685 N687 1.610 1_565 S
N686 S685 1.613 . S
N686 C689 1.350 . S
N687 S685 1.610 1_545 S
N687 C688 1.351 . S
C688 C682 1.428 . S
C688 N687 1.351 . S
C688 C689 1.434 1_545 S
C689 C680 1.429 . S
C689 N686 1.350 . S
C689 C688 1.434 1_565 S
C690 C691 1.369 . S
C690 C692 1.419 . S
C690 H694 0.930 . S
C691 C690 1.369 . S
C691 C700 1.429 1_554 S
C692 C690 1.419 . S
C692 C693 1.363 1_554 S
C692 H695 0.929 . S
C693 C692 1.363 1_556 S
C693 C699 1.428 . S
H694 C690 0.930 . S
H695 C692 0.929 . S
S696 N697 1.613 . S
S696 N698 1.610 . S
N697 S696 1.613 . S
N697 C700 1.350 . S
N698 S696 1.610 . S
N698 C699 1.351 . S
C699 C693 1.428 . S
C699 N698 1.351 . S
C699 C700 1.434 . S
C700 C691 1.429 1_556 S
C700 N697 1.350 . S
C700 C699 1.434 . S
C701 C702 1.369 . S
C701 C703 1.419 . S
C701 H705 0.930 . S
C702 C701 1.369 . S
C702 C711 1.429 . S
C703 C701 1.419 . S
C703 C704 1.363 . S
C703 H706 0.929 . S
C704 C703 1.363 . S
C704 C710 1.428 . S
H705 C701 0.930 . S
H706 C703 0.929 . S
S707 N708 1.613 . S
S707 N709 1.610 . S
N708 S707 1.613 . S
N708 C711 1.350 . S
N709 S707 1.610 . S
N709 C710 1.351 . S
C710 C704 1.428 . S
C710 N709 1.351 . S
C710 C711 1.434 . S
C711 C702 1.429 . S
C711 N708 1.350 . S
C711 C710 1.434 . S
C712 C713 1.369 1_455 S
C712 C714 1.419 . S
C712 H716 0.930 . S
C713 C712 1.369 1_655 S
C713 C722 1.429 . S
C714 C712 1.419 . S
C714 C715 1.363 . S
C714 H717 0.929 . S
C715 C714 1.363 . S
C715 C721 1.428 1_455 S
H716 C712 0.930 . S
H717 C714 0.929 . S
S718 N719 1.613 . S
S718 N720 1.610 . S
N719 S718 1.613 . S
N719 C722 1.350 . S
N720 S718 1.610 . S
N720 C721 1.351 . S
C721 C715 1.428 1_655 S
C721 N720 1.351 . S
C721 C722 1.434 . S
C722 C713 1.429 . S
C722 N719 1.350 . S
C722 C721 1.434 . S
C723 C724 1.369 . S
C723 C725 1.419 . S
C723 H727 0.930 . S
C724 C723 1.369 . S
C724 C733 1.429 . S
C725 C723 1.419 . S
C725 C726 1.363 . S
C725 H728 0.929 . S
C726 C725 1.363 . S
C726 C732 1.428 . S
H727 C723 0.930 . S
H728 C725 0.929 . S
S729 N730 1.613 . S
S729 N731 1.610 . S
N730 S729 1.613 . S
N730 C733 1.350 . S
N731 S729 1.610 . S
N731 C732 1.351 . S
C732 C726 1.428 . S
C732 N731 1.351 . S
C732 C733 1.434 . S
C733 C724 1.429 . S
C733 N730 1.350 . S
C733 C732 1.434 . S
C734 C735 1.369 . S
C734 C736 1.419 . S
C734 H738 0.930 . S
C735 C734 1.369 . S
C735 C744 1.429 . S
C736 C734 1.419 . S
C736 C737 1.363 . S
C736 H739 0.929 . S
C737 C736 1.363 . S
C737 C743 1.428 . S
H738 C734 0.930 . S
H739 C736 0.929 . S
S740 N741 1.613 . S
S740 N742 1.610 . S
N741 S740 1.613 . S
N741 C744 1.350 . S
N742 S740 1.610 . S
N742 C743 1.351 . S
C743 C737 1.428 . S
C743 N742 1.351 . S
C743 C744 1.434 . S
C744 C735 1.429 . S
C744 N741 1.350 . S
C744 C743 1.434 . S
C745 C746 1.369 . S
C745 C747 1.419 . S
C745 H749 0.930 . S
C746 C745 1.369 . S
C746 C755 1.429 . S
C747 C745 1.419 . S
C747 C748 1.363 . S
C747 H750 0.929 . S
C748 C747 1.363 . S
C748 C754 1.428 . S
H749 C745 0.930 . S
H750 C747 0.929 . S
S751 N752 1.613 . S
S751 N753 1.610 . S
N752 S751 1.613 . S
N752 C755 1.350 . S
N753 S751 1.610 . S
N753 C754 1.351 . S
C754 C748 1.428 . S
C754 N753 1.351 . S
C754 C755 1.434 . S
C755 C746 1.429 . S
C755 N752 1.350 . S
C755 C754 1.434 . S
C756 C757 1.369 . S
C756 C758 1.419 . S
C756 H760 0.930 . S
C757 C756 1.369 . S
C757 C766 1.429 . S
C758 C756 1.419 . S
C758 C759 1.363 . S
C758 H761 0.929 . S
C759 C758 1.363 . S
C759 C765 1.428 . S
H760 C756 0.930 . S
H761 C758 0.929 . S
S762 N763 1.613 . S
S762 N764 1.610 . S
N763 S762 1.613 . S
N763 C766 1.350 . S
N764 S762 1.610 . S
N764 C765 1.351 . S
C765 C759 1.428 . S
C765 N764 1.351 . S
C765 C766 1.434 . S
C766 C757 1.429 . S
C766 N763 1.350 . S
C766 C765 1.434 . S
C767 C768 1.369 . S
C767 C769 1.419 1_545 S
C767 H771 0.930 . S
C768 C767 1.369 . S
C768 C777 1.429 . S
C769 C767 1.419 1_565 S
C769 C770 1.363 . S
C769 H772 0.929 . S
C770 C769 1.363 . S
C770 C776 1.428 . S
H771 C767 0.930 . S
H772 C769 0.929 . S
S773 N774 1.604 1_565 S
S773 N775 1.619 . S
N774 S773 1.604 1_545 S
N774 C777 1.350 . S
N775 S773 1.619 . S
N775 C776 1.351 . S
C776 C770 1.428 . S
C776 N775 1.351 . S
C776 C777 1.434 1_565 S
C777 C768 1.429 . S
C777 N774 1.350 . S
C777 C776 1.434 1_545 S
C778 C779 1.369 . S
C778 C780 1.419 . S
C778 H782 0.930 . S
C779 C778 1.369 . S
C779 C788 1.429 . S
C780 C778 1.419 . S
C780 C781 1.363 . S
C780 H783 0.929 . S
C781 C780 1.363 . S
C781 C787 1.428 . S
H782 C778 0.930 . S
H783 C780 0.929 . S
S784 N785 1.613 . S
S784 N786 1.610 . S
N785 S784 1.613 . S
N785 C788 1.350 . S
N786 S784 1.610 . S
N786 C787 1.351 . S
C787 C781 1.428 . S
C787 N786 1.351 . S
C787 C788 1.434 . S
C788 C779 1.429 . S
C788 N785 1.350 . S
C788 C787 1.434 . S
C789 C790 1.369 . S
C789 C791 1.419 . S
C789 H793 0.930 . S
C790 C789 1.369 . S
C790 C799 1.429 1_554 S
C791 C789 1.419 . S
C791 C792 1.363 1_554 S
C791 H794 0.929 . S
C792 C791 1.363 1_556 S
C792 C798 1.428 . S
H793 C789 0.930 . S
H794 C791 0.929 . S
S795 N796 1.613 . S
S795 N797 1.610 . S
N796 S795 1.613 . S
N796 C799 1.350 . S
N797 S795 1.610 . S
N797 C798 1.351 . S
C798 C792 1.428 . S
C798 N797 1.351 . S
C798 C799 1.434 . S
C799 C790 1.429 1_556 S
C799 N796 1.350 . S
C799 C798 1.434 . S
C800 C801 1.369 . S
C800 C802 1.419 . S
C800 H804 0.930 . S
C801 C800 1.369 . S
C801 C810 1.429 . S
C802 C800 1.419 . S
C802 C803 1.363 . S
C802 H805 0.929 . S
C803 C802 1.363 . S
C803 C809 1.428 . S
H804 C800 0.930 . S
H805 C802 0.929 . S
S806 N807 1.613 . S
S806 N808 1.610 . S
N807 S806 1.613 . S
N807 C810 1.350 . S
N808 S806 1.610 . S
N808 C809 1.351 . S
C809 C803 1.428 . S
C809 N808 1.351 . S
C809 C810 1.434 . S
C810 C801 1.429 . S
C810 N807 1.350 . S
C810 C809 1.434 . S
C811 C812 1.369 . S
C811 C813 1.419 . S
C811 H815 0.930 . S
C812 C811 1.369 . S
C812 C821 1.429 . S
C813 C811 1.419 . S
C813 C814 1.363 . S
C813 H816 0.929 . S
C814 C813 1.363 . S
C814 C820 1.428 . S
H815 C811 0.930 . S
H816 C813 0.929 . S
S817 N818 1.613 . S
S817 N819 1.610 . S
N818 S817 1.613 . S
N818 C821 1.350 . S
N819 S817 1.610 . S
N819 C820 1.351 . S
C820 C814 1.428 . S
C820 N819 1.351 . S
C820 C821 1.434 . S
C821 C812 1.429 . S
C821 N818 1.350 . S
C821 C820 1.434 . S
C822 C823 1.369 . S
C822 C824 1.419 . S
C822 H826 0.930 1_455 S
C823 C822 1.369 . S
C823 C832 1.429 . S
C824 C822 1.419 . S
C824 C825 1.363 . S
C824 H827 0.929 1_455 S
C825 C824 1.363 . S
C825 C831 1.428 . S
H826 C822 0.930 1_655 S
H827 C824 0.929 1_655 S
S828 N829 1.613 . S
S828 N830 1.610 . S
N829 S828 1.613 . S
N829 C832 1.350 . S
N830 S828 1.610 . S
N830 C831 1.351 . S
C831 C825 1.428 . S
C831 N830 1.351 . S
C831 C832 1.434 . S
C832 C823 1.429 . S
C832 N829 1.350 . S
C832 C831 1.434 . S
C833 C834 1.369 . S
C833 C835 1.419 . S
C833 H837 0.930 . S
C834 C833 1.369 . S
C834 C843 1.429 . S
C835 C833 1.419 . S
C835 C836 1.363 . S
C835 H838 0.929 . S
C836 C835 1.363 . S
C836 C842 1.428 . S
H837 C833 0.930 . S
H838 C835 0.929 . S
S839 N840 1.613 . S
S839 N841 1.610 . S
N840 S839 1.613 . S
N840 C843 1.350 . S
N841 S839 1.610 . S
N841 C842 1.351 . S
C842 C836 1.428 . S
C842 N841 1.351 . S
C842 C843 1.434 . S
C843 C834 1.429 . S
C843 N840 1.350 . S
C843 C842 1.434 . S
C844 C845 1.369 . S
C844 C846 1.419 . S
C844 H848 0.930 . S
C845 C844 1.369 . S
C845 C854 1.429 . S
C846 C844 1.419 . S
C846 C847 1.363 . S
C846 H849 0.929 . S
C847 C846 1.363 . S
C847 C853 1.428 . S
H848 C844 0.930 . S
H849 C846 0.929 . S
S850 N851 1.613 . S
S850 N852 1.610 . S
N851 S850 1.613 . S
N851 C854 1.350 . S
N852 S850 1.610 . S
N852 C853 1.351 . S
C853 C847 1.428 . S
C853 N852 1.351 . S
C853 C854 1.434 . S
C854 C845 1.429 . S
C854 N851 1.350 . S
C854 C853 1.434 . S
C855 C856 1.369 . S
C855 C857 1.419 . S
C855 H859 0.930 . S
C856 C855 1.369 . S
C856 C865 1.429 . S
C857 C855 1.419 . S
C857 C858 1.363 . S
C857 H860 0.929 . S
C858 C857 1.363 . S
C858 C864 1.428 . S
H859 C855 0.930 . S
H860 C857 0.929 . S
S861 N862 1.613 . S
S861 N863 1.610 . S
N862 S861 1.613 . S
N862 C865 1.350 . S
N863 S861 1.610 . S
N863 C864 1.351 . S
C864 C858 1.428 . S
C864 N863 1.351 . S
C864 C865 1.434 . S
C865 C856 1.429 . S
C865 N862 1.350 . S
C865 C864 1.434 . S
C866 C867 1.369 . S
C866 C868 1.419 . S
C866 H870 0.930 . S
C867 C866 1.369 . S
C867 C876 1.429 . S
C868 C866 1.419 . S
C868 C869 1.363 . S
C868 H871 0.929 . S
C869 C868 1.363 . S
C869 C875 1.428 . S
H870 C866 0.930 . S
H871 C868 0.929 . S
S872 N873 1.613 . S
S872 N874 1.610 . S
N873 S872 1.613 . S
N873 C876 1.350 1_455 S
N874 S872 1.610 . S
N874 C875 1.351 1_455 S
C875 C869 1.428 . S
C875 N874 1.351 1_655 S
C875 C876 1.434 . S
C876 C867 1.429 . S
C876 N873 1.350 1_655 S
C876 C875 1.434 . S
C877 C878 1.369 . S
C877 C879 1.419 . S
C877 H881 0.930 . S
C878 C877 1.369 . S
C878 C887 1.429 . S
C879 C877 1.419 . S
C879 C880 1.363 . S
C879 H882 0.929 . S
C880 C879 1.363 . S
C880 C886 1.428 . S
H881 C877 0.930 . S
H882 C879 0.929 . S
S883 N884 1.613 . S
S883 N885 1.610 . S
N884 S883 1.613 . S
N884 C887 1.350 . S
N885 S883 1.610 . S
N885 C886 1.351 . S
C886 C880 1.428 . S
C886 N885 1.351 . S
C886 C887 1.434 . S
C887 C878 1.429 . S
C887 N884 1.350 . S
C887 C886 1.434 . S
C888 C889 1.369 . S
C888 C890 1.419 . S
C888 H892 0.930 . S
C889 C888 1.369 . S
C889 C898 1.429 . S
C890 C888 1.419 . S
C890 C891 1.363 . S
C890 H893 0.929 . S
C891 C890 1.363 . S
C891 C897 1.428 . S
H892 C888 0.930 . S
H893 C890 0.929 . S
S894 N895 1.613 . S
S894 N896 1.610 . S
N895 S894 1.613 . S
N895 C898 1.350 . S
N896 S894 1.610 . S
N896 C897 1.351 . S
C897 C891 1.428 . S
C897 N896 1.351 . S
C897 C898 1.434 . S
C898 C889 1.429 . S
C898 N895 1.350 . S
C898 C897 1.434 . S
C899 C900 1.369 . S
C899 C901 1.419 . S
C899 H903 0.930 . S
C900 C899 1.369 . S
C900 C909 1.429 . S
C901 C899 1.419 . S
C901 C902 1.363 . S
C901 H904 0.929 . S
C902 C901 1.363 . S
C902 C908 1.428 . S
H903 C899 0.930 . S
H904 C901 0.929 . S
S905 N906 1.613 . S
S905 N907 1.610 . S
N906 S905 1.613 . S
N906 C909 1.350 . S
N907 S905 1.610 . S
N907 C908 1.351 . S
C908 C902 1.428 . S
C908 N907 1.351 . S
C908 C909 1.434 . S
C909 C900 1.429 . S
C909 N906 1.350 . S
C909 C908 1.434 . S
C910 C911 1.369 . S
C910 C912 1.419 . S
C910 H914 0.930 . S
C911 C910 1.369 . S
C911 C920 1.429 . S
C912 C910 1.419 . S
C912 C913 1.363 . S
C912 H915 0.929 . S
C913 C912 1.363 . S
C913 C919 1.428 . S
H914 C910 0.930 . S
H915 C912 0.929 . S
S916 N917 1.613 . S
S916 N918 1.610 . S
N917 S916 1.613 . S
N917 C920 1.350 . S
N918 S916 1.610 . S
N918 C919 1.351 . S
C919 C913 1.428 . S
C919 N918 1.351 . S
C919 C920 1.434 . S
C920 C911 1.429 . S
C920 N917 1.350 . S
C920 C919 1.434 . S
C921 C922 1.369 . S
C921 C923 1.419 . S
C921 H925 0.930 . S
C922 C921 1.369 . S
C922 C931 1.429 . S
C923 C921 1.419 . S
C923 C924 1.363 . S
C923 H926 0.929 . S
C924 C923 1.363 . S
C924 C930 1.428 . S
H925 C921 0.930 . S
H926 C923 0.929 . S
S927 N928 1.613 . S
S927 N929 1.610 . S
N928 S927 1.613 . S
N928 C931 1.350 . S
N929 S927 1.610 . S
N929 C930 1.351 . S
C930 C924 1.428 . S
C930 N929 1.351 . S
C930 C931 1.434 . S
C931 C922 1.429 . S
C931 N928 1.350 . S
C931 C930 1.434 . S
C932 C933 1.369 . S
C932 C934 1.419 . S
C932 H936 0.930 . S
C933 C932 1.369 . S
C933 C942 1.429 . S
C934 C932 1.419 . S
C934 C935 1.363 . S
C934 H937 0.929 . S
C935 C934 1.363 . S
C935 C941 1.428 . S
H936 C932 0.930 . S
H937 C934 0.929 . S
S938 N939 1.613 . S
S938 N940 1.610 . S
N939 S938 1.613 . S
N939 C942 1.350 . S
N940 S938 1.610 . S
N940 C941 1.351 . S
C941 C935 1.428 . S
C941 N940 1.351 . S
C941 C942 1.434 . S
C942 C933 1.429 . S
C942 N939 1.350 . S
C942 C941 1.434 . S
C943 C944 1.369 . S
C943 C945 1.419 . S
C943 H947 0.930 . S
C944 C943 1.369 . S
C944 C953 1.429 . S
C945 C943 1.419 . S
C945 C946 1.363 . S
C945 H948 0.929 . S
C946 C945 1.363 . S
C946 C952 1.428 . S
H947 C943 0.930 . S
H948 C945 0.929 . S
S949 N950 1.613 . S
S949 N951 1.610 . S
N950 S949 1.613 . S
N950 C953 1.350 . S
N951 S949 1.610 . S
N951 C952 1.351 . S
C952 C946 1.428 . S
C952 N951 1.351 . S
C952 C953 1.434 . S
C953 C944 1.429 . S
C953 N950 1.350 . S
C953 C952 1.434 . S
C954 C955 1.369 . S
C954 C956 1.419 . S
C954 H958 0.930 . S
C955 C954 1.369 . S
C955 C964 1.429 . S
C956 C954 1.419 . S
C956 C957 1.363 . S
C956 H959 0.929 . S
C957 C956 1.363 . S
C957 C963 1.428 . S
H958 C954 0.930 . S
H959 C956 0.929 . S
S960 N961 1.613 . S
S960 N962 1.610 . S
N961 S960 1.613 . S
N961 C964 1.350 . S
N962 S960 1.610 . S
N962 C963 1.351 . S
C963 C957 1.428 . S
C963 N962 1.351 . S
C963 C964 1.434 . S
C964 C955 1.429 . S
C964 N961 1.350 . S
C964 C963 1.434 . S
C965 C966 1.369 . S
C965 C967 1.419 . S
C965 H969 0.930 . S
C966 C965 1.369 . S
C966 C975 1.429 . S
C967 C965 1.419 . S
C967 C968 1.363 . S
C967 H970 0.929 . S
C968 C967 1.363 . S
C968 C974 1.428 . S
H969 C965 0.930 . S
H970 C967 0.929 . S
S971 N972 1.613 . S
S971 N973 1.610 . S
N972 S971 1.613 . S
N972 C975 1.350 . S
N973 S971 1.610 . S
N973 C974 1.351 . S
C974 C968 1.428 . S
C974 N973 1.351 . S
C974 C975 1.434 . S
C975 C966 1.429 . S
C975 N972 1.350 . S
C975 C974 1.434 . S
C976 C977 1.369 . S
C976 C978 1.419 . S
C976 H980 0.930 . S
C977 C976 1.369 . S
C977 C986 1.429 . S
C978 C976 1.419 . S
C978 C979 1.363 . S
C978 H981 0.929 . S
C979 C978 1.363 . S
C979 C985 1.428 . S
H980 C976 0.930 . S
H981 C978 0.929 . S
S982 N983 1.613 . S
S982 N984 1.610 . S
N983 S982 1.613 . S
N983 C986 1.350 . S
N984 S982 1.610 . S
N984 C985 1.351 . S
C985 C979 1.428 . S
C985 N984 1.351 . S
C985 C986 1.434 . S
C986 C977 1.429 . S
C986 N983 1.350 . S
C986 C985 1.434 . S
C987 C988 1.369 . S
C987 C989 1.419 . S
C987 H991 0.930 . S
C988 C987 1.369 . S
C988 C997 1.429 . S
C989 C987 1.419 . S
C989 C990 1.363 . S
C989 H992 0.929 . S
C990 C989 1.363 . S
C990 C996 1.428 . S
H991 C987 0.930 . S
H992 C989 0.929 . S
S993 N994 1.613 . S
S993 N995 1.610 . S
N994 S993 1.613 . S
N994 C997 1.350 . S
N995 S993 1.610 . S
N995 C996 1.351 . S
C996 C990 1.428 . S
C996 N995 1.351 . S
C996 C997 1.434 . S
C997 C988 1.429 . S
C997 N994 1.350 . S
C997 C996 1.434 . S
C998 C999 1.369 . S
C998 C1000 1.419 . S
C998 H1002 0.930 . S
C999 C998 1.369 . S
C999 C1008 1.429 1_554 S
C1000 C998 1.419 . S
C1000 C1001 1.363 . S
C1000 H1003 0.929 . S
C1001 C1000 1.363 . S
C1001 C1007 1.428 1_554 S
H1002 C998 0.930 . S
H1003 C1000 0.929 . S
S1004 N1005 1.613 . S
S1004 N1006 1.610 . S
N1005 S1004 1.613 . S
N1005 C1008 1.350 . S
N1006 S1004 1.610 . S
N1006 C1007 1.351 . S
C1007 C1001 1.428 1_556 S
C1007 N1006 1.351 . S
C1007 C1008 1.434 . S
C1008 C999 1.429 1_556 S
C1008 N1005 1.350 . S
C1008 C1007 1.434 . S
C1009 C1010 1.369 1_556 S
C1009 C1011 1.419 . S
C1009 H1013 0.930 . S
C1010 C1009 1.369 1_554 S
C1010 C1019 1.429 . S
C1011 C1009 1.419 . S
C1011 C1012 1.363 1_556 S
C1011 H1014 0.929 . S
C1012 C1011 1.363 1_554 S
C1012 C1018 1.428 . S
H1013 C1009 0.930 . S
H1014 C1011 0.929 . S
S1015 N1016 1.613 . S
S1015 N1017 1.610 . S
N1016 S1015 1.613 . S
N1016 C1019 1.350 . S
N1017 S1015 1.610 . S
N1017 C1018 1.351 . S
C1018 C1012 1.428 . S
C1018 N1017 1.351 . S
C1018 C1019 1.434 . S
C1019 C1010 1.429 . S
C1019 N1016 1.350 . S
C1019 C1018 1.434 . S
C1020 C1021 1.369 . S
C1020 C1022 1.419 . S
C1020 H1024 0.930 . S
C1021 C1020 1.369 . S
C1021 C1030 1.429 . S
C1022 C1020 1.419 . S
C1022 C1023 1.363 . S
C1022 H1025 0.929 . S
C1023 C1022 1.363 . S
C1023 C1029 1.428 . S
H1024 C1020 0.930 . S
H1025 C1022 0.929 . S
S1026 N1027 1.613 . S
S1026 N1028 1.610 . S
N1027 S1026 1.613 . S
N1027 C1030 1.350 . S
N1028 S1026 1.610 . S
N1028 C1029 1.351 . S
C1029 C1023 1.428 . S
C1029 N1028 1.351 . S
C1029 C1030 1.434 . S
C1030 C1021 1.429 . S
C1030 N1027 1.350 . S
C1030 C1029 1.434 . S
C1031 C1032 1.369 . S
C1031 C1033 1.419 . S
C1031 H1035 0.930 . S
C1032 C1031 1.369 . S
C1032 C1041 1.429 . S
C1033 C1031 1.419 . S
C1033 C1034 1.363 . S
C1033 H1036 0.929 . S
C1034 C1033 1.363 . S
C1034 C1040 1.428 . S
H1035 C1031 0.930 . S
H1036 C1033 0.929 . S
S1037 N1038 1.613 . S
S1037 N1039 1.610 . S
N1038 S1037 1.613 . S
N1038 C1041 1.350 . S
N1039 S1037 1.610 . S
N1039 C1040 1.351 . S
C1040 C1034 1.428 . S
C1040 N1039 1.351 . S
C1040 C1041 1.434 . S
C1041 C1032 1.429 . S
C1041 N1038 1.350 . S
C1041 C1040 1.434 . S
C1042 C1043 1.369 . S
C1042 C1044 1.419 . S
C1042 H1046 0.930 . S
C1043 C1042 1.369 . S
C1043 C1052 1.429 1_556 S
C1044 C1042 1.419 . S
C1044 C1045 1.363 . S
C1044 H1047 0.929 . S
C1045 C1044 1.363 . S
C1045 C1051 1.428 1_556 S
H1046 C1042 0.930 . S
H1047 C1044 0.929 . S
S1048 N1049 1.613 . S
S1048 N1050 1.610 . S
N1049 S1048 1.613 . S
N1049 C1052 1.350 . S
N1050 S1048 1.610 . S
N1050 C1051 1.351 . S
C1051 C1045 1.428 1_554 S
C1051 N1050 1.351 . S
C1051 C1052 1.434 . S
C1052 C1043 1.429 1_554 S
C1052 N1049 1.350 . S
C1052 C1051 1.434 . S
C1053 C1054 1.369 1_554 S
C1053 C1055 1.419 . S
C1053 H1057 0.930 . S
C1054 C1053 1.369 1_556 S
C1054 C1063 1.429 . S
C1055 C1053 1.419 . S
C1055 C1056 1.363 1_554 S
C1055 H1058 0.929 . S
C1056 C1055 1.363 1_556 S
C1056 C1062 1.428 . S
H1057 C1053 0.930 . S
H1058 C1055 0.929 . S
S1059 N1060 1.613 . S
S1059 N1061 1.610 . S
N1060 S1059 1.613 . S
N1060 C1063 1.350 . S
N1061 S1059 1.610 . S
N1061 C1062 1.351 . S
C1062 C1056 1.428 . S
C1062 N1061 1.351 . S
C1062 C1063 1.434 . S
C1063 C1054 1.429 . S
C1063 N1060 1.350 . S
C1063 C1062 1.434 . S
C1064 C1065 1.369 . S
C1064 C1066 1.419 . S
C1064 H1068 0.930 . S
C1065 C1064 1.369 . S
C1065 C1074 1.429 . S
C1066 C1064 1.419 . S
C1066 C1067 1.363 . S
C1066 H1069 0.929 . S
C1067 C1066 1.363 . S
C1067 C1073 1.428 . S
H1068 C1064 0.930 . S
H1069 C1066 0.929 . S
S1070 N1071 1.613 . S
S1070 N1072 1.610 . S
N1071 S1070 1.613 . S
N1071 C1074 1.350 . S
N1072 S1070 1.610 . S
N1072 C1073 1.351 . S
C1073 C1067 1.428 . S
C1073 N1072 1.351 . S
C1073 C1074 1.434 . S
C1074 C1065 1.429 . S
C1074 N1071 1.350 . S
C1074 C1073 1.434 . S
C1075 C1076 1.369 . S
C1075 C1077 1.419 . S
C1075 H1079 0.930 . S
C1076 C1075 1.369 . S
C1076 C1085 1.429 . S
C1077 C1075 1.419 . S
C1077 C1078 1.363 . S
C1077 H1080 0.929 . S
C1078 C1077 1.363 . S
C1078 C1084 1.428 . S
H1079 C1075 0.930 . S
H1080 C1077 0.929 . S
S1081 N1082 1.613 . S
S1081 N1083 1.610 . S
N1082 S1081 1.613 . S
N1082 C1085 1.350 . S
N1083 S1081 1.610 . S
N1083 C1084 1.351 . S
C1084 C1078 1.428 . S
C1084 N1083 1.351 . S
C1084 C1085 1.434 . S
C1085 C1076 1.429 . S
C1085 N1082 1.350 . S
C1085 C1084 1.434 . S
C1086 C1087 1.369 . S
C1086 C1088 1.419 . S
C1086 H1090 0.930 . S
C1087 C1086 1.369 . S
C1087 C1096 1.429 . S
C1088 C1086 1.419 . S
C1088 C1089 1.363 . S
C1088 H1091 0.929 . S
C1089 C1088 1.363 . S
C1089 C1095 1.428 . S
H1090 C1086 0.930 . S
H1091 C1088 0.929 . S
S1092 N1093 1.613 . S
S1092 N1094 1.610 . S
N1093 S1092 1.613 . S
N1093 C1096 1.350 . S
N1094 S1092 1.610 . S
N1094 C1095 1.351 . S
C1095 C1089 1.428 . S
C1095 N1094 1.351 . S
C1095 C1096 1.434 . S
C1096 C1087 1.429 . S
C1096 N1093 1.350 . S
C1096 C1095 1.434 . S
C1097 C1098 1.369 . S
C1097 C1099 1.419 . S
C1097 H1101 0.930 . S
C1098 C1097 1.369 . S
C1098 C1107 1.429 . S
C1099 C1097 1.419 . S
C1099 C1100 1.363 . S
C1099 H1102 0.929 . S
C1100 C1099 1.363 . S
C1100 C1106 1.428 . S
H1101 C1097 0.930 . S
H1102 C1099 0.929 . S
S1103 N1104 1.613 . S
S1103 N1105 1.610 . S
N1104 S1103 1.613 . S
N1104 C1107 1.350 . S
N1105 S1103 1.610 . S
N1105 C1106 1.351 . S
C1106 C1100 1.428 . S
C1106 N1105 1.351 . S
C1106 C1107 1.434 . S
C1107 C1098 1.429 . S
C1107 N1104 1.350 . S
C1107 C1106 1.434 . S
C1108 C1109 1.369 . S
C1108 C1110 1.419 . S
C1108 H1112 0.930 . S
C1109 C1108 1.369 . S
C1109 C1118 1.429 . S
C1110 C1108 1.419 . S
C1110 C1111 1.363 . S
C1110 H1113 0.929 . S
C1111 C1110 1.363 . S
C1111 C1117 1.428 . S
H1112 C1108 0.930 . S
H1113 C1110 0.929 . S
S1114 N1115 1.613 . S
S1114 N1116 1.610 . S
N1115 S1114 1.613 . S
N1115 C1118 1.350 . S
N1116 S1114 1.610 . S
N1116 C1117 1.351 . S
C1117 C1111 1.428 . S
C1117 N1116 1.351 . S
C1117 C1118 1.434 . S
C1118 C1109 1.429 . S
C1118 N1115 1.350 . S
C1118 C1117 1.434 . S
C1119 C1120 1.369 . S
C1119 C1121 1.419 . S
C1119 H1123 0.930 . S
C1120 C1119 1.369 . S
C1120 C1129 1.429 . S
C1121 C1119 1.419 . S
C1121 C1122 1.363 . S
C1121 H1124 0.929 . S
C1122 C1121 1.363 . S
C1122 C1128 1.428 . S
H1123 C1119 0.930 . S
H1124 C1121 0.929 . S
S1125 N1126 1.613 . S
S1125 N1127 1.610 . S
N1126 S1125 1.613 . S
N1126 C1129 1.350 . S
N1127 S1125 1.610 . S
N1127 C1128 1.351 . S
C1128 C1122 1.428 . S
C1128 N1127 1.351 . S
C1128 C1129 1.434 . S
C1129 C1120 1.429 . S
C1129 N1126 1.350 . S
C1129 C1128 1.434 . S
C1130 C1131 1.369 . S
C1130 C1132 1.419 . S
C1130 H1134 0.930 . S
C1131 C1130 1.369 . S
C1131 C1140 1.429 . S
C1132 C1130 1.419 . S
C1132 C1133 1.363 . S
C1132 H1135 0.929 . S
C1133 C1132 1.363 . S
C1133 C1139 1.428 . S
H1134 C1130 0.930 . S
H1135 C1132 0.929 . S
S1136 N1137 1.613 . S
S1136 N1138 1.610 . S
N1137 S1136 1.613 . S
N1137 C1140 1.350 . S
N1138 S1136 1.610 . S
N1138 C1139 1.351 . S
C1139 C1133 1.428 . S
C1139 N1138 1.351 . S
C1139 C1140 1.434 . S
C1140 C1131 1.429 . S
C1140 N1137 1.350 . S
C1140 C1139 1.434 . S
C1141 C1142 1.369 . S
C1141 C1143 1.419 . S
C1141 H1145 0.930 . S
C1142 C1141 1.369 . S
C1142 C1151 1.429 . S
C1143 C1141 1.419 . S
C1143 C1144 1.363 . S
C1143 H1146 0.929 . S
C1144 C1143 1.363 . S
C1144 C1150 1.428 . S
H1145 C1141 0.930 . S
H1146 C1143 0.929 . S
S1147 N1148 1.613 . S
S1147 N1149 1.610 . S
N1148 S1147 1.613 . S
N1148 C1151 1.350 . S
N1149 S1147 1.610 . S
N1149 C1150 1.351 . S
C1150 C1144 1.428 . S
C1150 N1149 1.351 . S
C1150 C1151 1.434 . S
C1151 C1142 1.429 . S
C1151 N1148 1.350 . S
C1151 C1150 1.434 . S
C449 C8 1.440 . S
C451 C50 1.443 . S
C460 C36 1.439 . S
C462 C22 1.442 . S
C471 C64 1.448 . S
C473 C106 1.448 . S
C482 C92 1.438 . S
C484 C78 1.444 . S
C493 C120 1.370 . S
C495 C162 1.376 . S
C504 C148 1.377 . S
C506 C134 1.371 . S
C515 C176 1.381 . S
C517 C218 1.378 . S
C526 C190 1.370 . S
C528 C204 1.375 . S
C537 C274 1.382 . S
C539 C232 1.375 . S
C548 C246 1.380 . S
C550 C260 1.379 . S
C559 C288 1.383 . S
C561 C330 1.375 . S
C570 C316 1.381 . S
C572 C302 1.374 . S
C581 C344 1.437 . S
C583 C386 1.444 . S
C592 C372 1.440 . S
C594 C358 1.442 . S
C603 C400 1.436 . S
C605 C442 1.446 . S
C614 C414 1.436 . S
C616 C428 1.447 . S
C625 C174 1.579 . S
C627 C6 1.584 . S
C636 C20 1.581 . S
C638 C300 1.582 . S
C647 C34 1.498 . S
C649 C90 1.495 . S
C658 C440 1.493 . S
C660 C48 1.499 . S
C669 C62 1.581 . S
C671 C118 1.582 . S
C680 C244 1.579 . S
C682 C76 1.584 . S
C691 C384 1.498 . S
C693 C104 1.495 . S
C702 C412 1.578 . S
C704 C132 1.585 . S
C713 C202 1.518 . S
C715 C146 1.523 . S
C724 C328 1.517 . S
C726 C160 1.524 . S
C735 C188 1.583 . S
C737 C356 1.581 . S
C746 C272 1.522 . S
C748 C216 1.519 . S
C757 C398 1.578 . S
C759 C230 1.585 . S
C768 C314 1.521 . S
C770 C258 1.521 . S
C779 C342 1.581 . S
C781 C286 1.582 . S
C790 C370 1.499 . S
C792 C426 1.494 . S
C801 C147 1.491 . S
C803 C7 1.491 . S
C812 C21 1.492 . S
C814 C161 1.493 . S
C823 C119 1.421 . S
C825 C35 1.417 . S
C834 C133 1.420 . S
C836 C49 1.416 . S
C845 C63 1.491 . S
C847 C203 1.492 . S
C856 C77 1.491 . S
C858 C217 1.492 . S
C867 C175 1.422 . S
C869 C91 1.417 . S
C878 C105 1.421 . S
C880 C189 1.416 . S
C889 C371 1.420 . S
C891 C231 1.416 . S
C900 C385 1.423 . S
C902 C245 1.418 . S
C911 C259 1.492 . S
C913 C343 1.492 . S
C922 C273 1.491 . S
C924 C357 1.491 . S
C933 C287 1.423 . S
C935 C427 1.418 . S
C944 C301 1.421 . S
C946 C441 1.417 . S
C955 C399 1.490 . S
C957 C315 1.491 . S
C966 C413 1.490 . S
C968 C329 1.491 . S
C977 C9 1.550 . S
C979 C359 1.554 . S
C988 C345 1.555 . S
C990 C23 1.551 1_655 S
C999 C37 1.508 . S
C1001 C387 1.511 . S
C1010 C51 1.510 1_655 S
C1012 C373 1.513 . S
C1021 C65 1.550 . S
C1023 C415 1.554 . S
C1032 C79 1.551 1_455 S
C1034 C401 1.555 . S
C1043 C443 1.513 . S
C1045 C93 1.508 . S
C1054 C429 1.511 . S
C1056 C107 1.512 1_455 S
C1065 C247 1.550 . S
C1067 C121 1.550 . S
C1076 C233 1.550 . S
C1078 C135 1.554 1_655 S
C1087 C149 1.519 . S
C1089 C275 1.524 . S
C1098 C163 1.519 1_655 S
C1100 C261 1.523 . S
C1109 C303 1.552 . S
C1111 C177 1.553 . S
C1120 C191 1.550 1_455 S
C1122 C289 1.554 . S
C1131 C205 1.524 . S
C1133 C331 1.519 . S
C1142 C219 1.519 1_455 S
C1144 C317 1.522 . S
