# Generated by pormake.
# Topology etb, (3)-cn, num edge types: 1
# Building blocks:
#     Node 0, Type 0, BuildingBlock: WUSLED_clean_sbu_0, # of connection points: 3
#     Node 1, Type 0, BuildingBlock: WUSLED_clean_sbu_0, # of connection points: 3
#     Node 2, Type 0, BuildingBlock: WUSLED_clean_sbu_0, # of connection points: 3
#     Node 3, Type 0, BuildingBlock: WUSLED_clean_sbu_0, # of connection points: 3
#     Node 4, Type 0, BuildingBlock: WUSLED_clean_sbu_0, # of connection points: 3
#     Node 5, Type 0, BuildingBlock: WUSLED_clean_sbu_0, # of connection points: 3
#     Node 6, Type 0, BuildingBlock: WUSLED_clean_sbu_0, # of connection points: 3
#     Node 7, Type 0, BuildingBlock: WUSLED_clean_sbu_0, # of connection points: 3
#     Node 8, Type 0, BuildingBlock: WUSLED_clean_sbu_0, # of connection points: 3
#     Node 9, Type 0, BuildingBlock: WUSLED_clean_sbu_0, # of connection points: 3
#     Node 10, Type 0, BuildingBlock: WUSLED_clean_sbu_0, # of connection points: 3
#     Node 11, Type 0, BuildingBlock: WUSLED_clean_sbu_0, # of connection points: 3
#     Node 12, Type 0, BuildingBlock: WUSLED_clean_sbu_0, # of connection points: 3
#     Node 13, Type 0, BuildingBlock: WUSLED_clean_sbu_0, # of connection points: 3
#     Node 14, Type 0, BuildingBlock: WUSLED_clean_sbu_0, # of connection points: 3
#     Node 15, Type 0, BuildingBlock: WUSLED_clean_sbu_0, # of connection points: 3
#     Node 16, Type 0, BuildingBlock: WUSLED_clean_sbu_0, # of connection points: 3
#     Node 17, Type 0, BuildingBlock: WUSLED_clean_sbu_0, # of connection points: 3
#     Edge 18, Type (0, 0), BuildingBlock: ZUJKAS_clean_linker_0, # of connection points: 2
#     Edge 19, Type (0, 0), BuildingBlock: ZUJKAS_clean_linker_0, # of connection points: 2
#     Edge 20, Type (0, 0), BuildingBlock: ZUJKAS_clean_linker_0, # of connection points: 2
#     Edge 21, Type (0, 0), BuildingBlock: ZUJKAS_clean_linker_0, # of connection points: 2
#     Edge 22, Type (0, 0), BuildingBlock: ZUJKAS_clean_linker_0, # of connection points: 2
#     Edge 23, Type (0, 0), BuildingBlock: ZUJKAS_clean_linker_0, # of connection points: 2
#     Edge 24, Type (0, 0), BuildingBlock: ZUJKAS_clean_linker_0, # of connection points: 2
#     Edge 25, Type (0, 0), BuildingBlock: ZUJKAS_clean_linker_0, # of connection points: 2
#     Edge 26, Type (0, 0), BuildingBlock: ZUJKAS_clean_linker_0, # of connection points: 2
#     Edge 27, Type (0, 0), BuildingBlock: ZUJKAS_clean_linker_0, # of connection points: 2
#     Edge 28, Type (0, 0), BuildingBlock: ZUJKAS_clean_linker_0, # of connection points: 2
#     Edge 29, Type (0, 0), BuildingBlock: ZUJKAS_clean_linker_0, # of connection points: 2
#     Edge 30, Type (0, 0), BuildingBlock: ZUJKAS_clean_linker_0, # of connection points: 2
#     Edge 31, Type (0, 0), BuildingBlock: ZUJKAS_clean_linker_0, # of connection points: 2
#     Edge 32, Type (0, 0), BuildingBlock: ZUJKAS_clean_linker_0, # of connection points: 2
#     Edge 33, Type (0, 0), BuildingBlock: ZUJKAS_clean_linker_0, # of connection points: 2
#     Edge 34, Type (0, 0), BuildingBlock: ZUJKAS_clean_linker_0, # of connection points: 2
#     Edge 35, Type (0, 0), BuildingBlock: ZUJKAS_clean_linker_0, # of connection points: 2
#     Edge 36, Type (0, 0), BuildingBlock: ZUJKAS_clean_linker_0, # of connection points: 2
#     Edge 37, Type (0, 0), BuildingBlock: ZUJKAS_clean_linker_0, # of connection points: 2
#     Edge 38, Type (0, 0), BuildingBlock: ZUJKAS_clean_linker_0, # of connection points: 2
#     Edge 39, Type (0, 0), BuildingBlock: ZUJKAS_clean_linker_0, # of connection points: 2
#     Edge 40, Type (0, 0), BuildingBlock: ZUJKAS_clean_linker_0, # of connection points: 2
#     Edge 41, Type (0, 0), BuildingBlock: ZUJKAS_clean_linker_0, # of connection points: 2
#     Edge 42, Type (0, 0), BuildingBlock: ZUJKAS_clean_linker_0, # of connection points: 2
#     Edge 43, Type (0, 0), BuildingBlock: ZUJKAS_clean_linker_0, # of connection points: 2
#     Edge 44, Type (0, 0), BuildingBlock: ZUJKAS_clean_linker_0, # of connection points: 2
# Relax obj value: 0.000
# Max RMSD: 0.009
# Mean RMSD: 0.006
data_MOF--net-etb--node1-WUSLED_clean_sbu_0--edge1-ZUJKAS_clean_linker_0
_symmetry_space_group_name_H-M    P1
_symmetry_Int_Tables_number       1
_symmetry_cell_setting            triclinic
loop_
_symmetry_equiv_pos_as_xyz
'x, y, z'
_cell_length_a     142.12936
_cell_length_b     141.63404
_cell_length_c     67.128263
_cell_angle_alpha  89.777477
_cell_angle_beta   90.051338
_cell_angle_gamma 119.61964
loop_
_atom_site_label
_atom_site_type_symbol
_atom_site_fract_x
_atom_site_fract_y
_atom_site_fract_z
_atom_type_partial_charge
C0 C 0.46327 0.01665 0.0787 0.0
C1 C 0.45261 0.00808 0.07602 0.0
C2 C 0.44775 0.01015 0.11015 0.0
C3 C 0.44497 1.00489 0.09152 0.0
C4 C 0.45837 0.01886 0.11259 0.0
C5 C 0.46599 0.02203 0.09713 0.0
U6 U 0.4774 0.02606 0.02634 0.0
O7 O 0.49479 0.0368 0.01993 0.0
O8 O 0.48671 0.01986 0.01009 0.0
C9 C 0.49592 0.02903 0.0116 0.0
C10 C 0.47197 0.01943 0.06355 0.0
C11 C 0.50589 0.02847 0.01657 0.0
C12 C 0.51523 0.01816 0.02311 0.0
C13 C 0.5056 0.0186 0.02099 0.0
C14 C 0.52568 0.03745 0.01681 0.0
C15 C 0.52545 0.02757 0.02081 0.0
C16 C 0.51607 0.03788 0.01468 0.0
C17 C 0.46232 0.03313 0.98429 0.0
C18 C 0.46846 0.04476 0.95467 0.0
C19 C 0.44938 0.03226 0.95941 0.0
C20 C 0.45166 0.02869 0.97732 0.0
C21 C 0.45771 0.0404 0.94778 0.0
C22 C 0.47074 0.04118 0.97273 0.0
C23 C 0.4641 0.02971 1.00428 0.0
O24 O 0.4698 0.0128 0.04841 0.0
O25 O 0.47788 0.02971 0.05846 0.0
O26 O 0.47172 0.03712 0.01556 0.0
O27 O 0.46349 0.02016 1.00571 0.0
H28 H 0.45021 1.0037 0.06207 0.0
H29 H 0.43686 0.99825 0.0889 0.0
H30 H 0.46094 0.02304 0.12671 0.0
H31 H 0.47417 0.02854 0.0998 0.0
H32 H 0.51466 0.01041 0.02646 0.0
H33 H 0.49793 0.01115 0.02242 0.0
H34 H 0.5333 0.04486 0.01461 0.0
H35 H 0.5166 0.04558 0.01094 0.0
H36 H 0.47513 0.05093 0.94612 0.0
H37 H 0.44099 0.02882 0.95501 0.0
H38 H 0.445 0.02258 0.98604 0.0
H39 H 0.47905 0.04478 0.97775 0.0
C40 C 0.06329 0.41022 0.96981 0.0
C41 C 0.07014 0.40634 0.96313 0.0
C42 C 0.05659 0.39449 0.93873 0.0
C43 C 0.06682 0.39857 0.94782 0.0
C44 C 0.04971 0.39828 0.94576 0.0
C45 C 0.05302 0.40602 0.96101 0.0
U46 U 0.07458 0.42549 0.02069 0.0
O47 O 0.08574 0.44303 0.02538 0.0
O48 O 0.06915 0.43547 0.03688 0.0
C49 C 0.07836 0.44454 0.03431 0.0
C50 C 0.0669 0.41933 0.98432 0.0
C51 C 0.07794 0.45461 0.02918 0.0
C52 C 0.06788 0.46423 0.02283 0.0
C53 C 0.06817 0.45447 0.02489 0.0
C54 C 0.08713 0.47447 0.02888 0.0
C55 C 0.07734 0.47439 0.02516 0.0
C56 C 0.08742 0.46474 0.03089 0.0
C57 C 0.08216 0.4113 0.06369 0.0
C58 C 0.09671 0.4153 0.08752 0.0
C59 C 0.07873 0.40039 0.09395 0.0
C60 C 0.07506 0.40273 0.0762 0.0
C61 C 0.08966 0.4065 0.09976 0.0
C62 C 0.09303 0.41764 0.0697 0.0
C63 C 0.07833 0.41247 0.04356 0.0
O64 O 0.06072 0.4177 0.99998 0.0
O65 O 0.07729 0.42503 0.98843 0.0
O66 O 0.08548 0.41956 0.03107 0.0
O67 O 0.06888 0.41204 0.04251 0.0
H68 H 0.07813 0.40942 0.96948 0.0
H69 H 0.07232 0.39579 0.94307 0.0
H70 H 0.04185 0.39553 0.93905 0.0
H71 H 0.04762 0.40895 0.96559 0.0
H72 H 0.06016 0.46378 0.02012 0.0
H73 H 0.06068 0.44683 0.02365 0.0
H74 H 0.09463 0.48207 0.03042 0.0
H75 H 0.09506 0.46515 0.03436 0.0
H76 H 0.10519 0.42015 0.09131 0.0
H77 H 0.07299 0.39367 0.10305 0.0
H78 H 0.06668 0.39761 0.07195 0.0
H79 H 0.09878 0.42422 0.06038 0.0
C80 C 0.67796 0.63734 0.07452 0.0
C81 C 0.68368 0.64851 0.07001 0.0
C82 C 0.68689 0.65304 0.10554 0.0
C83 C 0.68812 0.65626 0.08534 0.0
C84 C 0.68138 0.64183 0.10984 0.0
C85 C 0.67699 0.63413 0.09457 0.0
U86 U 0.674 0.62292 0.02265 0.0
O87 O 0.66664 0.60534 0.01717 0.0
O88 O 0.65889 0.61421 1.00518 0.0
C89 C 0.65822 0.60469 1.00773 0.0
C90 C 0.67222 0.62883 0.05912 0.0
C91 C 0.64731 0.59523 0.01233 0.0
C92 C 0.63563 0.5782 0.02996 0.0
C93 C 0.64568 0.58774 0.02765 0.0
C94 C 0.62853 0.58348 1.00199 0.0
C95 C 0.62692 0.57583 0.017 0.0
C96 C 0.63857 0.59299 0.99968 0.0
C97 C 0.69729 0.63637 0.9823 0.0
C98 C 0.69809 0.63712 0.94588 0.0
C99 C 0.71445 0.64263 0.96484 0.0
C100 C 0.70848 0.64021 0.98258 0.0
C101 C 0.7094 0.6413 0.94619 0.0
C102 C 0.69211 0.63473 0.96373 0.0
C103 C 0.69164 0.63522 1.00162 0.0
O104 O 0.6687 0.63153 0.04315 0.0
O105 O 0.67612 0.62234 0.05518 0.0
O106 O 0.69075 0.62757 0.01393 0.0
O107 O 0.68305 0.63644 1.00159 0.0
H108 H 0.68454 0.65125 0.05469 0.0
H109 H 0.69225 0.6648 0.08138 0.0
H110 H 0.68042 0.63898 0.12508 0.0
H111 H 0.67262 0.62558 0.0985 0.0
H112 H 0.63471 0.57264 0.04188 0.0
H113 H 0.65223 0.58913 0.03764 0.0
H114 H 0.62215 0.58196 0.99149 0.0
H115 H 0.63959 0.59848 0.98754 0.0
H116 H 0.69391 0.63603 0.93186 0.0
H117 H 0.72307 0.64563 0.96578 0.0
H118 H 0.7127 0.6416 0.99665 0.0
H119 H 0.6835 0.63184 0.963 0.0
C120 C 0.68996 0.03885 0.96741 0.0
C121 C 0.69443 0.03231 0.96198 0.0
C122 C 0.70542 0.0453 0.9359 0.0
C123 C 0.70209 0.03551 0.94646 0.0
C124 C 0.70108 0.05191 0.94176 0.0
C125 C 0.69347 0.04872 0.95723 0.0
U126 U 0.67533 0.02767 0.01889 0.0
O127 O 0.66562 0.03315 0.03578 0.0
O128 O 0.65791 0.0165 0.02444 0.0
C129 C 0.65652 0.02394 0.0335 0.0
C130 C 0.68102 0.0353 0.98227 0.0
C131 C 0.64653 0.02447 0.02861 0.0
C132 C 0.63713 0.03472 0.02198 0.0
C133 C 0.64679 0.03431 0.02406 0.0
C134 C 0.62674 0.01544 0.02853 0.0
C135 C 0.62694 0.02531 0.02441 0.0
C136 C 0.63637 0.01505 0.03063 0.0
C137 C 0.69051 0.02026 0.06016 0.0
C138 C 0.68417 0.01049 0.09176 0.0
C139 C 0.70312 0.01886 0.08303 0.0
C140 C 0.70102 0.02256 0.0651 0.0
C141 C 0.69476 0.01276 0.09672 0.0
C142 C 0.68207 0.0142 0.07367 0.0
C143 C 0.68876 0.02401 0.04051 0.0
O144 O 0.67537 0.02488 0.98658 0.0
O145 O 0.68284 0.04153 0.99789 0.0
O146 O 0.68904 0.03342 0.0399 0.0
O147 O 0.68132 0.01672 0.0288 0.0
H148 H 0.69187 0.02462 0.96942 0.0
H149 H 0.70515 0.03014 0.94236 0.0
H150 H 0.70354 0.05958 0.93435 0.0
H151 H 0.69014 0.05391 0.96101 0.0
H152 H 0.63768 0.04245 0.01853 0.0
H153 H 0.65444 0.04176 0.0225 0.0
H154 H 0.61913 0.00804 0.03082 0.0
H155 H 0.63587 0.00737 0.03444 0.0
H156 H 0.67751 1.00592 0.10192 0.0
H157 H 0.71133 0.02062 0.08593 0.0
H158 H 0.70765 0.02714 0.05486 0.0
H159 H 0.67387 0.01231 0.07021 0.0
C160 C 0.06424 0.62817 0.97096 0.0
C161 C 0.07111 0.63894 0.96467 0.0
C162 C 0.0578 0.63757 0.93984 0.0
C163 C 0.06793 0.64357 0.94933 0.0
C164 C 0.05089 0.62687 0.9465 0.0
C165 C 0.05408 0.62225 0.96177 0.0
U166 U 0.07539 0.62387 0.0219 0.0
O167 O 0.06989 0.60845 0.03818 0.0
O168 O 0.08649 0.61734 0.02675 0.0
C169 C 0.07908 0.60848 0.03566 0.0
C170 C 0.06775 0.62252 0.98549 0.0
C171 C 0.07862 0.598 0.0305 0.0
C172 C 0.06851 0.57846 0.02387 0.0
C173 C 0.06884 0.5885 0.02604 0.0
C174 C 0.08774 0.5872 0.03014 0.0
C175 C 0.07794 0.57761 0.02624 0.0
C176 C 0.08806 0.59721 0.03226 0.0
C177 C 0.08303 0.64563 0.06459 0.0
C178 C 0.09748 0.65546 0.08888 0.0
C179 C 0.07994 0.6539 0.09396 0.0
C180 C 0.07619 0.64785 0.07636 0.0
C181 C 0.0907 0.65798 0.10036 0.0
C182 C 0.09371 0.64941 0.07119 0.0
C183 C 0.0792 0.64061 0.04456 0.0
O184 O 0.07813 0.62704 0.98964 0.0
O185 O 0.06155 0.61803 1.00115 0.0
O186 O 0.06974 0.6317 0.0436 0.0
O187 O 0.08634 0.64057 0.03215 0.0
H188 H 0.07902 0.64375 0.97134 0.0
H189 H 0.07343 0.65187 0.94488 0.0
H190 H 0.04312 0.62188 0.93947 0.0
H191 H 0.04866 0.61389 0.96607 0.0
H192 H 0.06079 0.57129 0.02102 0.0
H193 H 0.06137 0.58876 0.02475 0.0
H194 H 0.09521 0.58699 0.03172 0.0
H195 H 0.0957 0.60433 0.03585 0.0
H196 H 0.10583 0.6585 0.09314 0.0
H197 H 0.07439 0.65547 0.10248 0.0
H198 H 0.06796 0.64516 0.07163 0.0
H199 H 0.09927 0.64797 0.06244 0.0
C200 C 0.46145 0.42407 0.0748 0.0
C201 C 0.45649 0.41292 0.07936 0.0
C202 C 0.4458 0.41498 0.106 0.0
C203 C 0.44875 0.40843 0.09476 0.0
C204 C 0.45072 0.4261 0.1011 0.0
C205 C 0.45841 0.43055 0.08576 0.0
U206 U 0.47679 0.42725 0.02416 0.0
O207 O 0.48609 0.44225 1.00641 0.0
O208 O 0.49438 0.43421 0.01973 0.0
C209 C 0.49542 0.44268 0.00972 0.0
C210 C 0.47039 0.42942 0.05998 0.0
C211 C 0.50494 0.45357 0.01418 0.0
C212 C 0.5221 0.46509 0.03127 0.0
C213 C 0.51251 0.45506 0.02913 0.0
C214 C 0.51671 0.47243 1.00382 0.0
C215 C 0.52442 0.47392 0.01848 0.0
C216 C 0.50716 0.46243 1.00169 0.0
C217 C 0.4635 0.40415 0.98364 0.0
C218 C 0.46309 0.40352 0.94721 0.0
C219 C 0.45757 0.38704 0.96607 0.0
C220 C 0.45974 0.39293 0.98385 0.0
C221 C 0.45909 0.39219 0.94741 0.0
C222 C 0.46524 0.40942 0.96508 0.0
C223 C 0.46443 0.40973 1.00293 0.0
O224 O 0.47649 0.42499 0.05673 0.0
O225 O 0.46836 0.43327 0.04367 0.0
O226 O 0.46355 0.41855 1.00263 0.0
O227 O 0.47171 0.41031 0.01572 0.0
H228 H 0.45867 0.40769 0.07122 0.0
H229 H 0.44508 0.39982 0.09783 0.0
H230 H 0.44888 0.4315 0.10949 0.0
H231 H 0.46219 0.43919 0.08275 0.0
H232 H 0.52772 0.4659 0.04292 0.0
H233 H 0.51116 0.44842 0.03896 0.0
H234 H 0.5182 0.4789 0.99344 0.0
H235 H 0.50162 0.46152 0.98979 0.0
H236 H 0.46453 0.40786 0.93322 0.0
H237 H 0.45435 0.37835 0.96705 0.0
H238 H 0.45818 0.38861 0.9979 0.0
H239 H 0.4681 0.41806 0.96436 0.0
C240 C 0.13875 0.36791 0.304 0.0
C241 C 0.13662 0.37655 0.30642 0.0
C242 C 0.12938 0.37412 0.27247 0.0
C243 C 0.13199 0.3796 0.2909 0.0
C244 C 0.13131 0.36533 0.2703 0.0
C245 C 0.13594 0.3623 0.28579 0.0
U246 U 0.144 0.35848 0.35607 0.0
O247 O 0.15176 0.34857 0.36206 0.0
O248 O 0.15938 0.36533 0.37285 0.0
C249 C 0.16016 0.3565 0.37105 0.0
C250 C 0.14493 0.36536 0.3191 0.0
C251 C 0.17111 0.35794 0.36683 0.0
C252 C 0.18324 0.35325 0.34891 0.0
C253 C 0.17313 0.35277 0.35085 0.0
C254 C 0.18954 0.36422 0.37861 0.0
C255 C 0.19154 0.35882 0.36299 0.0
C256 C 0.1795 0.36377 0.38048 0.0
C257 C 0.12198 0.35008 0.39851 0.0
C258 C 0.11243 0.33577 0.42338 0.0
C259 C 0.11388 0.35334 0.42796 0.0
C260 C 0.11975 0.35699 0.41011 0.0
C261 C 0.10999 0.34263 0.4348 0.0
C262 C 0.11832 0.33943 0.40548 0.0
C263 C 0.12687 0.35377 0.37829 0.0
O264 O 0.14897 0.37188 0.33447 0.0
O265 O 0.14115 0.35509 0.32383 0.0
O266 O 0.12758 0.34671 0.36661 0.0
O267 O 0.13529 0.36359 0.37675 0.0
H268 H 0.13872 0.38112 0.32017 0.0
H269 H 0.13051 0.38631 0.29333 0.0
H270 H 0.12959 0.36098 0.25634 0.0
H271 H 0.13763 0.35573 0.28328 0.0
H272 H 0.1844 0.34893 0.33675 0.0
H273 H 0.16684 0.34813 0.34012 0.0
H274 H 0.19574 0.36876 0.38956 0.0
H275 H 0.17819 0.36778 0.39303 0.0
H276 H 0.10973 0.32751 0.4282 0.0
H277 H 0.11206 0.35886 0.43603 0.0
H278 H 0.12225 0.36516 0.40502 0.0
H279 H 0.11979 0.33382 0.3969 0.0
C280 C 0.73168 0.74488 0.30228 0.0
C281 C 0.7392 0.74266 0.29277 0.0
C282 C 0.72502 0.72908 0.27132 0.0
C283 C 0.73591 0.73486 0.27754 0.0
C284 C 0.71749 0.73117 0.28118 0.0
C285 C 0.72078 0.73896 0.29635 0.0
U286 U 0.74316 0.76079 0.35254 0.0
O287 O 0.75409 0.77842 0.35652 0.0
O288 O 0.73765 0.7707 0.36875 0.0
C289 C 0.74671 0.77986 0.36566 0.0
C290 C 0.73512 0.75411 0.31653 0.0
C291 C 0.746 0.78975 0.36029 0.0
C292 C 0.73558 0.79914 0.35565 0.0
C293 C 0.73601 0.78947 0.35798 0.0
C294 C 0.75508 0.80956 0.3575 0.0
C295 C 0.74511 0.80936 0.35564 0.0
C296 C 0.7555 0.79992 0.35983 0.0
C297 C 0.75218 0.74761 0.39517 0.0
C298 C 0.74994 0.7438 0.43099 0.0
C299 C 0.76542 0.74491 0.41397 0.0
C300 C 0.76181 0.74712 0.396 0.0
C301 C 0.75947 0.74304 0.43173 0.0
C302 C 0.74633 0.74603 0.41298 0.0
C303 C 0.74776 0.74835 0.37535 0.0
O304 O 0.72909 0.75242 0.33244 0.0
O305 O 0.74552 0.76019 0.32019 0.0
O306 O 0.75458 0.75536 0.36235 0.0
O307 O 0.73819 0.74768 0.37482 0.0
H308 H 0.74769 0.7471 0.29676 0.0
H309 H 0.74195 0.73342 0.27057 0.0
H310 H 0.70908 0.72705 0.27671 0.0
H311 H 0.71481 0.74059 0.30306 0.0
H312 H 0.72774 0.79858 0.35398 0.0
H313 H 0.7285 0.78182 0.35841 0.0
H314 H 0.7626 0.81721 0.3579 0.0
H315 H 0.76331 0.80046 0.36194 0.0
H316 H 0.74519 0.74258 0.44433 0.0
H317 H 0.77269 0.74425 0.41372 0.0
H318 H 0.76641 0.74808 0.38253 0.0
H319 H 0.73882 0.74624 0.41296 0.0
C320 C 0.34508 0.973 0.41055 0.0
C321 C 0.35419 0.97436 0.42124 0.0
C322 C 0.3541 0.98857 0.44191 0.0
C323 C 0.35865 0.98204 0.43666 0.0
C324 C 0.3451 0.98732 0.43092 0.0
C325 C 0.34066 0.97965 0.41556 0.0
U326 U 0.3407 0.95768 0.35956 0.0
O327 O 0.33347 0.94005 0.35453 0.0
O328 O 0.32548 0.9487 0.34256 0.0
C329 C 0.32499 0.93926 0.34511 0.0
C330 C 0.3393 0.96396 0.39595 0.0
C331 C 0.31413 0.92968 0.34949 0.0
C332 C 0.30253 0.91241 0.36651 0.0
C333 C 0.31252 0.92208 0.36458 0.0
C334 C 0.29549 0.91781 0.33861 0.0
C335 C 0.2939 0.91003 0.35331 0.0
C336 C 0.30544 0.92744 0.33672 0.0
C337 C 0.36281 0.97142 0.31725 0.0
C338 C 0.37334 0.9673 0.29348 0.0
C339 C 0.37053 0.98254 0.28734 0.0
C340 C 0.36445 0.98017 0.30495 0.0
C341 C 0.37525 0.97627 0.28147 0.0
C342 C 0.36725 0.96494 0.31117 0.0
C343 C 0.35775 0.97021 0.33731 0.0
O344 O 0.33509 0.966 0.38017 0.0
O345 O 0.34349 0.95772 0.39194 0.0
O346 O 0.3573 0.96269 0.34946 0.0
O347 O 0.3491 0.9713 0.33835 0.0
H348 H 0.35778 0.96933 0.41802 0.0
H349 H 0.36565 0.98281 0.44453 0.0
H350 H 0.34123 0.99201 0.43461 0.0
H351 H 0.33351 0.97869 0.40796 0.0
H352 H 0.30169 0.90663 0.37793 0.0
H353 H 0.31905 0.92344 0.37458 0.0
H354 H 0.28905 0.91642 0.32836 0.0
H355 H 0.30642 0.93306 0.32483 0.0
H356 H 0.37689 0.96232 0.28963 0.0
H357 H 0.37163 0.9894 0.27842 0.0
H358 H 0.36127 0.98542 0.30926 0.0
H359 H 0.36631 0.95822 0.32035 0.0
C360 C 0.35472 0.37009 0.30417 0.0
C361 C 0.36464 0.37041 0.30745 0.0
C362 C 0.37055 0.37702 0.27332 0.0
C363 C 0.37247 0.37382 0.29217 0.0
C364 C 0.36053 0.37657 0.27022 0.0
C365 C 0.35277 0.37317 0.28541 0.0
U366 U 0.34094 0.35869 0.35623 0.0
O367 O 0.33135 0.36404 0.37389 0.0
O368 O 0.32357 0.34749 0.36203 0.0
C369 C 0.32228 0.35478 0.37184 0.0
C370 C 0.34621 0.36668 0.31973 0.0
C371 C 0.31222 0.35528 0.36789 0.0
C372 C 0.30233 0.36358 0.35297 0.0
C373 C 0.31191 0.36301 0.35508 0.0
C374 C 0.29325 0.34867 0.37622 0.0
C375 C 0.29288 0.3565 0.36374 0.0
C376 C 0.30277 0.34808 0.37823 0.0
C377 C 0.3555 0.34983 0.39613 0.0
C378 C 0.35399 0.34785 0.43239 0.0
C379 C 0.36332 0.3403 0.414 0.0
C380 C 0.36119 0.34407 0.39617 0.0
C381 C 0.35981 0.34215 0.43246 0.0
C382 C 0.35186 0.35165 0.41444 0.0
C383 C 0.35417 0.3543 0.37687 0.0
O384 O 0.34053 0.35624 0.32371 0.0
O385 O 0.34858 0.37274 0.33575 0.0
O386 O 0.35458 0.36378 0.37716 0.0
O387 O 0.34687 0.34741 0.36445 0.0
H388 H 0.36635 0.36807 0.32181 0.0
H389 H 0.38009 0.37411 0.29525 0.0
H390 H 0.3586 0.37873 0.25591 0.0
H391 H 0.34516 0.37294 0.28246 0.0
H392 H 0.30241 0.36976 0.34331 0.0
H393 H 0.31909 0.36869 0.34696 0.0
H394 H 0.28615 0.34294 0.38448 0.0
H395 H 0.30277 0.34205 0.3882 0.0
H396 H 0.35104 0.34935 0.4462 0.0
H397 H 0.36799 0.33616 0.41329 0.0
H398 H 0.36419 0.34265 0.38231 0.0
H399 H 0.34746 0.35608 0.4149 0.0
C400 C 0.73124 0.96187 0.30094 0.0
C401 C 0.73508 0.97312 0.30047 0.0
C402 C 0.72454 0.97122 0.27022 0.0
C403 C 0.73177 0.97774 0.28528 0.0
C404 C 0.7207 0.95995 0.27098 0.0
C405 C 0.72399 0.95537 0.28611 0.0
U406 U 0.74338 0.95885 0.35181 0.0
O407 O 0.73822 0.9438 0.36911 0.0
O408 O 0.7545 0.9523 0.35619 0.0
C409 C 0.74727 0.94365 0.36585 0.0
C410 C 0.73494 0.95663 0.31587 0.0
C411 C 0.74649 0.93301 0.3608 0.0
C412 C 0.73596 0.91336 0.35555 0.0
C413 C 0.73649 0.92349 0.35785 0.0
C414 C 0.7554 0.92203 0.3587 0.0
C415 C 0.7454 0.91244 0.35617 0.0
C416 C 0.75592 0.93213 0.36102 0.0
C417 C 0.7526 0.98173 0.39263 0.0
C418 C 0.75299 0.98219 0.42907 0.0
C419 C 0.76358 0.99877 0.41039 0.0
C420 C 0.75986 0.99296 0.39254 0.0
C421 C 0.76013 0.99352 0.42899 0.0
C422 C 0.74925 0.97637 0.41113 0.0
C423 C 0.748 0.97621 0.37329 0.0
O424 O 0.74539 0.96128 0.31929 0.0
O425 O 0.72908 0.95274 0.33211 0.0
O426 O 0.73852 0.96728 0.37357 0.0
O427 O 0.75474 0.97583 0.36036 0.0
H428 H 0.7407 0.97833 0.31172 0.0
H429 H 0.73484 0.98642 0.28543 0.0
H430 H 0.71532 0.95463 0.25958 0.0
H431 H 0.72098 0.94669 0.28602 0.0
H432 H 0.72812 0.90623 0.35336 0.0
H433 H 0.72903 0.92381 0.3577 0.0
H434 H 0.76285 0.92172 0.35959 0.0
H435 H 0.76373 0.93925 0.36359 0.0
H436 H 0.75024 0.97779 0.443 0.0
H437 H 0.7689 0.00747 0.40952 0.0
H438 H 0.76247 0.99735 0.37854 0.0
H439 H 0.74363 0.96772 0.41175 0.0
C440 C 0.13984 0.74596 0.30258 0.0
C441 C 0.1372 0.73508 0.30555 0.0
C442 C 0.13052 0.73045 0.27125 0.0
C443 C 0.1326 0.72743 0.29011 0.0
C444 C 0.133 0.74131 0.26851 0.0
C445 C 0.1376 0.74893 0.2839 0.0
U446 U 0.14448 0.7608 0.35413 0.0
O447 O 0.15963 0.76931 0.37155 0.0
O448 O 0.15215 0.77843 0.35947 0.0
C449 C 0.16045 0.7789 0.36904 0.0
C450 C 0.14591 0.7546 0.3177 0.0
C451 C 0.17145 0.78831 0.36484 0.0
C452 C 0.18343 0.80549 0.34788 0.0
C453 C 0.17333 0.79594 0.34964 0.0
C454 C 0.19006 0.79991 0.37615 0.0
C455 C 0.1919 0.80773 0.36135 0.0
C456 C 0.18 0.79039 0.37787 0.0
C457 C 0.12147 0.74803 0.39499 0.0
C458 C 0.12003 0.74525 0.43111 0.0
C459 C 0.10503 0.74448 0.41278 0.0
C460 C 0.11097 0.74663 0.39504 0.0
C461 C 0.10939 0.74362 0.43112 0.0
C462 C 0.12598 0.7474 0.4133 0.0
C463 C 0.12687 0.74885 0.37547 0.0
O464 O 0.14229 0.76132 0.32162 0.0
O465 O 0.14954 0.75199 0.33363 0.0
O466 O 0.1353 0.74736 0.37526 0.0
O467 O 0.12785 0.75648 0.36303 0.0
H468 H 0.13887 0.73249 0.31967 0.0
H469 H 0.1307 0.71914 0.29296 0.0
H470 H 0.13171 0.74405 0.25422 0.0
H471 H 0.13969 0.75727 0.28099 0.0
H472 H 0.18445 0.8113 0.33638 0.0
H473 H 0.16691 0.79469 0.33943 0.0
H474 H 0.19639 0.80118 0.3866 0.0
H475 H 0.17881 0.78475 0.38985 0.0
H476 H 0.12376 0.74481 0.44489 0.0
H477 H 0.09685 0.74311 0.41195 0.0
H478 H 0.10719 0.74687 0.38117 0.0
H479 H 0.13403 0.74837 0.41384 0.0
C480 C 0.79439 0.67994 0.73936 0.0
C481 C 0.79303 0.68776 0.74992 0.0
C482 C 0.77887 0.67364 0.77081 0.0
C483 C 0.78537 0.68465 0.76538 0.0
C484 C 0.78009 0.66584 0.75991 0.0
C485 C 0.78775 0.66894 0.74451 0.0
U486 U 0.8099 0.69069 0.68838 0.0
O487 O 0.82747 0.701 0.68352 0.0
O488 O 0.81909 0.68441 0.67184 0.0
C489 C 0.82843 0.69331 0.67441 0.0
C490 C 0.80346 0.68309 0.72482 0.0
C491 C 0.83799 0.69201 0.67926 0.0
C492 C 0.85487 0.69736 0.69729 0.0
C493 C 0.84523 0.69777 0.69477 0.0
C494 C 0.85017 0.68531 0.66911 0.0
C495 C 0.85756 0.69122 0.68435 0.0
C496 C 0.84057 0.68572 0.66661 0.0
C497 C 0.79646 0.69921 0.64545 0.0
C498 C 0.80029 0.71395 0.62192 0.0
C499 C 0.78599 0.69575 0.61474 0.0
C500 C 0.78825 0.69204 0.63254 0.0
C501 C 0.79184 0.7068 0.60927 0.0
C502 C 0.80254 0.71022 0.63979 0.0
C503 C 0.7975 0.69531 0.66565 0.0
O504 O 0.80153 0.67685 0.70916 0.0
O505 O 0.80966 0.69347 0.72067 0.0
O506 O 0.80485 0.70231 0.67789 0.0
O507 O 0.79648 0.68558 0.6669 0.0
H508 H 0.79804 0.69632 0.74659 0.0
H509 H 0.7846 0.69092 0.77317 0.0
H510 H 0.7754 0.6573 0.76374 0.0
H511 H 0.78871 0.66271 0.737 0.0
H512 H 0.86023 0.70192 0.70938 0.0
H513 H 0.84357 0.70276 0.70474 0.0
H514 H 0.85195 0.68062 0.6586 0.0
H515 H 0.83528 0.68133 0.65432 0.0
H516 H 0.80492 0.72252 0.61841 0.0
H517 H 0.77955 0.68994 0.60533 0.0
H518 H 0.78331 0.68354 0.6365 0.0
H519 H 0.80882 0.71604 0.64944 0.0
C520 C 0.39846 0.07969 0.63977 0.0
C521 C 0.3927 0.0685 0.64407 0.0
C522 C 0.39193 0.0641 0.60855 0.0
C523 C 0.3895 0.0608 0.62865 0.0
C524 C 0.39793 0.07532 0.60448 0.0
C525 C 0.40112 0.08298 0.61984 0.0
U526 U 0.40809 0.09336 0.69225 0.0
O527 O 0.41817 0.11081 0.69886 0.0
O528 O 0.40147 0.10193 0.70987 0.0
C529 C 0.41035 0.1114 0.7082 0.0
C530 C 0.4011 0.08816 0.65526 0.0
C531 C 0.40906 0.12108 0.70426 0.0
C532 C 0.41264 0.13719 0.68482 0.0
C533 C 0.41301 0.12747 0.6869 0.0
C534 C 0.40421 0.13422 0.71721 0.0
C535 C 0.4084 0.14082 0.70012 0.0
C536 C 0.40455 0.12453 0.71922 0.0
C537 C 0.41635 0.07833 0.73252 0.0
C538 C 0.42446 0.08407 0.76551 0.0
C539 C 0.41892 0.06589 0.75411 0.0
C540 C 0.41541 0.06813 0.73612 0.0
C541 C 0.42347 0.07378 0.76919 0.0
C542 C 0.42092 0.08632 0.74736 0.0
C543 C 0.41263 0.08021 0.71297 0.0
O544 O 0.39466 0.08549 0.67082 0.0
O545 O 0.41136 0.09434 0.65987 0.0
O546 O 0.41974 0.08822 0.70183 0.0
O547 O 0.40295 0.07924 0.71229 0.0
H548 H 0.39048 0.0657 0.65928 0.0
H549 H 0.38484 0.05226 0.63245 0.0
H550 H 0.40016 0.07823 0.58933 0.0
H551 H 0.40553 0.09154 0.61607 0.0
H552 H 0.41601 0.14203 0.67149 0.0
H553 H 0.4166 0.12508 0.67511 0.0
H554 H 0.40069 0.13657 0.72916 0.0
H555 H 0.40147 0.11982 0.7328 0.0
H556 H 0.42783 0.09034 0.77674 0.0
H557 H 0.41819 0.05796 0.75603 0.0
H558 H 0.41199 0.06186 0.72486 0.0
H559 H 0.42175 0.09426 0.74494 0.0
C560 C 0.01005 0.30344 0.74093 0.0
C561 C 0.01805 0.31419 0.7367 0.0
C562 C 0.019 0.31908 0.77201 0.0
C563 C 0.0225 0.32192 0.75209 0.0
C564 C 0.01111 0.30824 0.77606 0.0
C565 C 1.00672 0.30056 0.76076 0.0
U566 U 1.0071 0.28976 0.68867 0.0
O567 O 0.99988 0.27226 0.68249 0.0
O568 O 0.99232 0.28127 0.67024 0.0
C569 C 0.99169 0.27175 0.67244 0.0
C570 C 1.00462 0.2951 0.72519 0.0
C571 C 0.98075 0.26219 0.67603 0.0
C572 C 0.96791 0.2465 0.69573 0.0
C573 C 0.97796 0.25611 0.69384 0.0
C574 C 0.96321 0.24897 0.66227 0.0
C575 C 0.96044 0.24268 0.67983 0.0
C576 C 0.9732 0.25855 0.66042 0.0
C577 C 0.03083 0.30387 0.6495 0.0
C578 C 0.03142 0.30282 0.6132 0.0
C579 C 0.04811 0.31199 0.63185 0.0
C580 C 0.04219 0.30956 0.64963 0.0
C581 C 0.04284 0.3088 0.6133 0.0
C582 C 0.02547 0.30042 0.6311 0.0
C583 C 0.02502 0.30246 0.66867 0.0
O584 O 1.00135 0.29799 0.70914 0.0
O585 O 1.00874 0.2888 0.72125 0.0
O586 O 0.02399 0.29464 0.68062 0.0
O587 O 0.01638 0.30361 0.66841 0.0
H588 H 0.02076 0.31664 0.72152 0.0
H589 H 0.0285 0.33018 0.74829 0.0
H590 H 1.00833 0.30564 0.79115 0.0
H591 H 1.00057 0.29233 0.76444 0.0
H592 H 0.96615 0.24188 0.70945 0.0
H593 H 0.98362 0.25866 0.70613 0.0
H594 H 0.95765 0.24647 0.64981 0.0
H595 H 0.97512 0.26304 0.6465 0.0
H596 H 0.02705 0.30026 0.59925 0.0
H597 H 0.05686 0.31641 0.63266 0.0
H598 H 0.04653 0.31233 0.66359 0.0
H599 H 0.01671 0.29605 0.63053 0.0
C600 C 0.02348 0.70494 0.63677 0.0
C601 C 0.02649 0.69763 0.62882 0.0
C602 C 0.03886 0.7114 0.60511 0.0
C603 C 0.0341 0.70083 0.61324 0.0
C604 C 0.03602 0.71875 0.6135 0.0
C605 C 0.02844 0.71556 0.62903 0.0
U606 U 1.00828 0.69312 0.68754 0.0
O607 O 0.99903 0.69887 0.70535 0.0
O608 O 0.99074 0.68256 0.69244 0.0
C609 C 0.98972 0.69001 0.70232 0.0
C610 C 0.0145 0.70153 0.65154 0.0
C611 C 0.98015 0.69137 0.69785 0.0
C612 C 0.96331 0.68629 0.67989 0.0
C613 C 0.97293 0.68583 0.68218 0.0
C614 C 0.96799 0.69798 0.70861 0.0
C615 C 0.96062 0.69228 0.69321 0.0
C616 C 0.97757 0.69751 0.71089 0.0
C617 C 0.02228 0.68353 0.72755 0.0
C618 C 0.01975 0.68047 0.7635 0.0
C619 C 0.0314 0.67542 0.74579 0.0
C620 C 0.02913 0.67903 0.72792 0.0
C621 C 0.02686 0.67619 0.76394 0.0
C622 C 0.01752 0.68416 0.7455 0.0
C623 C 0.02094 0.68805 0.7084 0.0
O624 O 1.00832 0.69107 0.655 0.0
O625 O 0.01655 0.70744 0.66771 0.0
O626 O 0.02166 0.69766 0.7088 0.0
O627 O 0.0135 0.6813 0.69603 0.0
H628 H 0.02278 0.68935 0.63428 0.0
H629 H 0.03597 0.69488 0.60715 0.0
H630 H 0.03961 0.72701 0.60799 0.0
H631 H 0.02625 0.72137 0.63471 0.0
H632 H 0.95796 0.68191 0.66767 0.0
H633 H 0.97458 0.68096 0.67189 0.0
H634 H 0.96621 0.70255 0.71939 0.0
H635 H 0.98285 0.70172 0.72331 0.0
H636 H 0.01614 0.68125 0.77714 0.0
H637 H 0.03673 0.67201 0.74536 0.0
H638 H 0.03292 0.67847 0.71431 0.0
H639 H 0.01224 0.68764 0.74566 0.0
C640 C 0.39718 0.29411 0.63976 0.0
C641 C 0.40262 0.3054 0.63642 0.0
C642 C 0.39091 0.30317 0.60783 0.0
C643 C 0.3995 0.30988 0.62068 0.0
C644 C 0.38535 0.29191 0.61165 0.0
C645 C 0.38844 0.28747 0.62735 0.0
U646 U 0.40908 0.29128 0.691 0.0
O647 O 0.40391 0.27633 0.70863 0.0
O648 O 0.42029 0.2849 0.69612 0.0
C649 C 0.41309 0.27636 0.70607 0.0
C650 C 0.4008 0.28886 0.65488 0.0
C651 C 0.41256 0.26577 0.702 0.0
C652 C 0.40334 0.24707 0.68978 0.0
C653 C 0.40395 0.25727 0.6916 0.0
C654 C 0.41997 0.25373 0.7084 0.0
C655 C 0.41126 0.24509 0.69845 0.0
C656 C 0.4206 0.26389 0.71013 0.0
C657 C 0.41802 0.31457 0.73098 0.0
C658 C 0.41933 0.31521 0.76734 0.0
C659 C 0.42782 0.33192 0.74832 0.0
C660 C 0.42422 0.32596 0.73063 0.0
C661 C 0.42532 0.32668 0.76701 0.0
C662 C 0.41568 0.30923 0.74954 0.0
C663 C 0.41351 0.30879 0.71183 0.0
O664 O 0.41123 0.29346 0.65847 0.0
O665 O 0.39486 0.28499 0.67104 0.0
O666 O 0.40409 0.2998 0.71231 0.0
O667 O 0.42033 0.30835 0.69917 0.0
H668 H 0.40942 0.31074 0.64569 0.0
H669 H 0.40404 0.31857 0.61821 0.0
H670 H 0.37858 0.28647 0.60243 0.0
H671 H 0.38411 0.27875 0.62955 0.0
H672 H 0.39648 0.24063 0.68209 0.0
H673 H 0.3976 0.25845 0.68523 0.0
H674 H 0.42634 0.25265 0.71496 0.0
H675 H 0.42732 0.27027 0.71824 0.0
H676 H 0.41719 0.31087 0.7814 0.0
H677 H 0.43256 0.34068 0.74733 0.0
H678 H 0.42613 0.3303 0.71656 0.0
H679 H 0.41087 0.30046 0.75032 0.0
C680 C 0.79657 0.09007 0.73783 0.0
C681 C 0.78546 0.08533 0.73355 0.0
C682 C 0.78083 0.08088 0.76886 0.0
C683 C 0.77769 0.08079 0.74887 0.0
C684 C 0.79197 0.08549 0.77294 0.0
C685 C 0.7997 0.09001 0.75767 0.0
U686 U 0.81095 0.094 0.68599 0.0
O687 O 0.81968 0.10908 0.66813 0.0
O688 O 0.82845 0.10126 0.68027 0.0
C689 C 0.82912 0.10962 0.67044 0.0
C690 C 0.80514 0.09588 0.72249 0.0
C691 C 0.83866 0.12052 0.67435 0.0
C692 C 0.8543 0.13305 0.69427 0.0
C693 C 0.84466 0.12305 0.69215 0.0
C694 C 0.85203 0.13823 0.66103 0.0
C695 C 0.85824 0.14073 0.67858 0.0
C696 C 0.84241 0.12829 0.65897 0.0
C697 C 0.79724 0.07065 0.64601 0.0
C698 C 0.7978 0.07026 0.60961 0.0
C699 C 0.78982 0.05342 0.62823 0.0
C700 C 0.79219 0.05926 0.64608 0.0
C701 C 0.79244 0.0588 0.60967 0.0
C702 C 0.80013 0.07612 0.62758 0.0
C703 C 0.79849 0.0763 0.66531 0.0
O704 O 0.81156 0.09192 0.71854 0.0
O705 O 0.80257 0.09953 0.70653 0.0
O706 O 0.79738 0.08499 0.66525 0.0
O707 O 0.80613 0.07714 0.67743 0.0
H708 H 0.78276 0.08524 0.71842 0.0
H709 H 0.76922 0.0772 0.74501 0.0
H710 H 0.79479 0.08591 0.78807 0.0
H711 H 0.8082 0.09372 0.76147 0.0
H712 H 0.85886 0.13461 0.70796 0.0
H713 H 0.84203 0.11723 0.70427 0.0
H714 H 0.85462 0.14394 0.64875 0.0
H715 H 0.838 0.12656 0.64506 0.0
H716 H 0.7999 0.0747 0.59566 0.0
H717 H 0.78588 0.04465 0.62901 0.0
H718 H 0.78984 0.05482 0.66005 0.0
H719 H 0.80399 0.0849 0.62703 0.0
H720 H 0.60719 0.01019 0.00878 0.0
H721 H 0.59023 0.01069 0.00821 0.0
H722 H 0.60601 0.04187 0.03708 0.0
H723 H 0.62298 0.04142 0.03785 0.0
H724 H 0.57798 0.01163 0.03887 0.0
H725 H 0.5915 0.04793 0.99069 0.0
H726 H 0.59922 0.04102 0.99341 0.0
H727 H 0.59986 0.05032 0.01224 0.0
C728 C 0.6071 0.01716 0.01507 0.0
C729 C 0.61658 0.02578 0.0233 0.0
C730 C 0.59735 0.01745 0.01465 0.0
C731 C 0.59679 0.02639 0.02232 0.0
C732 C 0.60622 0.03499 0.03059 0.0
H733 H 0.54518 0.04262 0.03661 0.0
H734 H 0.56212 0.0421 0.03717 0.0
C735 C 0.61598 0.03472 0.03101 0.0
C736 C 0.58629 0.02654 0.02217 0.0
H737 H 0.57437 0.04118 1.00636 0.0
C738 C 0.57719 0.01807 0.03166 0.0
C739 C 0.58518 0.03494 0.01283 0.0
C740 C 0.59442 0.04402 1.00155 0.0
C741 C 0.56717 0.01787 0.03239 0.0
C742 C 0.56606 0.02626 0.02306 0.0
C743 C 0.57516 0.03474 0.01357 0.0
C744 C 0.55556 0.02643 0.02293 0.0
C745 C 0.55792 0.00878 0.04365 0.0
C746 C 0.54613 0.01785 0.0146 0.0
C747 C 0.53639 0.01814 0.01418 0.0
C748 C 0.53579 0.02706 0.02195 0.0
C749 C 0.54527 0.03565 0.03026 0.0
C750 C 0.55501 0.03535 0.03067 0.0
H751 H 0.56084 1.00484 0.05447 0.0
H752 H 0.55314 0.01179 0.05183 0.0
H753 H 0.55247 1.0025 0.03294 0.0
H754 H 0.54634 0.01098 0.00806 0.0
H755 H 0.52939 0.01146 1.00727 0.0
H756 H 0.08856 0.49262 0.04832 0.0
H757 H 0.08812 0.50963 0.04719 0.0
H758 H 0.06491 0.49712 0.99938 0.0
H759 H 0.06532 0.48003 1.00038 0.0
H760 H 0.09341 0.52456 0.0175 0.0
H761 H 0.05014 0.50793 0.03706 0.0
H762 H 0.05696 0.50012 0.03982 0.0
H763 H 0.05237 0.50169 0.01571 0.0
C764 C 0.0834 0.49346 0.03743 0.0
C765 C 0.07698 0.48485 0.02442 0.0
C766 C 0.08311 0.50322 0.03689 0.0
C767 C 0.07636 0.50469 0.02341 0.0
C768 C 0.07 0.49616 0.01029 0.0
H769 H 0.06589 0.56023 1.00127 0.0
H770 H 0.0655 0.54273 0.99996 0.0
C771 C 0.07026 0.48636 0.01085 0.0
C772 C 0.07626 0.51525 0.02288 0.0
H773 H 0.05988 0.52652 0.0279 0.0
C774 C 0.08606 0.52496 0.01982 0.0
C775 C 0.06669 0.51588 0.0258 0.0
C776 C 0.05595 0.50587 0.02996 0.0
C777 C 0.08657 0.53516 0.01946 0.0
C778 C 0.07704 0.5358 0.02265 0.0
C779 C 0.0672 0.52609 0.02545 0.0
C780 C 0.07717 0.54647 0.02358 0.0
C781 C 0.09732 0.54515 0.01527 0.0
C782 C 0.08369 0.55441 0.03753 0.0
C783 C 0.08392 0.56442 0.03834 0.0
C784 C 0.07756 0.5668 0.02532 0.0
C785 C 0.07086 0.55874 0.01162 0.0
C786 C 0.07066 0.54871 0.0108 0.0
H787 H 0.10293 0.54309 1.00734 0.0
H788 H 0.0963 0.55114 1.00617 0.0
H789 H 0.10117 0.54903 0.02959 0.0
H790 H 0.08856 0.55284 0.048 0.0
H791 H 0.08897 0.57025 0.04946 0.0
H792 H 0.54483 0.47719 0.02707 0.0
H793 H 0.56195 0.49434 0.02844 0.0
H794 H 0.54526 0.51184 0.01352 0.0
H795 H 0.52807 0.4948 0.01285 0.0
H796 H 0.57256 0.50937 0.99931 0.0
H797 H 0.56283 0.52908 0.06081 0.0
H798 H 0.5546 0.51481 0.05531 0.0
H799 H 0.55322 0.52477 0.04082 0.0
C800 C 0.54472 0.48468 0.02445 0.0
C801 C 0.53494 0.4845 0.01995 0.0
C802 C 0.55459 0.49452 0.02507 0.0
C803 C 0.55497 0.50449 0.02138 0.0
C804 C 0.54523 0.50435 0.01686 0.0
H805 H 0.60618 0.5723 0.01113 0.0
H806 H 0.58911 0.55508 0.01212 0.0
C807 C 0.53537 0.49452 0.01623 0.0
C808 C 0.56558 0.51496 0.02155 0.0
H809 H 0.57887 0.54032 0.04238 0.0
C810 C 0.57395 0.5161 0.00885 0.0
C811 C 0.56747 0.52383 0.03391 0.0
C812 C 0.5591 0.52306 0.04863 0.0
C813 C 0.58397 0.52583 1.00784 0.0
C814 C 0.58585 0.53472 0.02015 0.0
C815 C 0.5775 0.53357 0.0329 0.0
C816 C 0.59636 0.54527 0.01988 0.0
C817 C 0.59234 0.52661 0.99312 0.0
C818 C 0.60623 0.54565 0.02426 0.0
C819 C 0.61606 0.55551 0.02358 0.0
C820 C 0.61633 0.56533 0.01861 0.0
C821 C 0.60639 0.56494 0.01468 0.0
C822 C 0.59657 0.55507 0.01538 0.0
H823 H 0.58867 0.52042 0.9812 0.0
H824 H 0.59664 0.53478 0.98608 0.0
H825 H 0.5984 0.5252 1.00102 0.0
H826 H 0.60634 0.53828 0.0282 0.0
H827 H 0.62348 0.55538 0.02657 0.0
H828 H 0.27894 0.35449 0.39394 0.0
H829 H 0.26212 0.35519 0.39187 0.0
H830 H 0.26696 0.36141 0.32878 0.0
H831 H 0.28374 0.36048 0.33063 0.0
H832 H 0.25865 0.37208 0.37932 0.0
H833 H 0.23586 0.33584 0.33144 0.0
H834 H 0.2482 0.33866 0.34405 0.0
H835 H 0.24874 0.34597 0.32177 0.0
C836 C 0.2764 0.35588 0.37953 0.0
C837 C 0.28272 0.35731 0.36241 0.0
C838 C 0.26678 0.35636 0.37841 0.0
C839 C 0.26311 0.35818 0.36013 0.0
C840 C 0.26946 0.35978 0.34303 0.0
H841 H 0.20375 0.36036 0.32978 0.0
H842 H 0.22111 0.36056 0.32851 0.0
C843 C 0.27915 0.35937 0.34415 0.0
C844 C 0.25274 0.35856 0.3592 0.0
H845 H 0.22717 0.34586 0.33947 0.0
C846 C 0.25177 0.36634 0.37059 0.0
C847 C 0.24373 0.35113 0.34774 0.0
C848 C 0.24409 0.34235 0.33566 0.0
C849 C 0.24215 0.36694 0.37078 0.0
C850 C 0.23305 0.35936 0.35969 0.0
C851 C 0.23407 0.35168 0.34803 0.0
C852 C 0.22235 0.35911 0.36038 0.0
C853 C 0.24195 0.37587 0.38263 0.0
C854 C 0.21704 0.35799 0.37863 0.0
C855 C 0.20712 0.35789 0.3794 0.0
C856 C 0.20211 0.35878 0.36191 0.0
C857 C 0.2073 0.35962 0.34357 0.0
C858 C 0.21727 0.35977 0.34282 0.0
H859 H 0.25023 0.38285 0.38483 0.0
H860 H 0.23694 0.37887 0.37519 0.0
H861 H 0.23846 0.37269 0.39757 0.0
H862 H 0.22053 0.35711 0.39237 0.0
H863 H 0.2033 0.35695 0.39377 0.0
H864 H 0.75958 0.90728 0.33752 0.0
H865 H 0.75905 0.88976 0.33662 0.0
H866 H 0.72958 0.8753 0.37098 0.0
H867 H 0.73007 0.89279 0.37207 0.0
H868 H 0.75978 0.87726 0.36701 0.0
H869 H 0.72125 0.85373 0.32593 0.0
H870 H 0.72815 0.86835 0.32747 0.0
H871 H 0.71996 0.86017 0.34791 0.0
C872 C 0.75297 0.9004 0.34494 0.0
C873 C 0.74484 0.90156 0.35482 0.0
C874 C 0.75266 0.89033 0.34433 0.0
C875 C 0.74419 0.88108 0.35346 0.0
C876 C 0.73607 0.88219 0.36335 0.0
H877 H 0.73014 0.81408 0.37226 0.0
H878 H 0.72995 0.83127 0.3714 0.0
C879 C 0.73636 0.89226 0.36396 0.0
C880 C 0.74409 0.87042 0.35323 0.0
H881 H 0.72889 0.84363 0.34016 0.0
C882 C 0.75304 0.86994 0.36102 0.0
C883 C 0.73531 0.86078 0.3455 0.0
C884 C 0.72566 0.86076 0.33605 0.0
C885 C 0.75336 0.86014 0.36162 0.0
C886 C 0.74458 0.8505 0.35389 0.0
C887 C 0.73563 0.85097 0.34612 0.0
C888 C 0.74454 0.83987 0.35377 0.0
C889 C 0.76301 0.86016 0.37106 0.0
C890 C 0.75264 0.83879 0.34378 0.0
C891 C 0.75274 0.82892 0.34413 0.0
C892 C 0.74469 0.81978 0.35441 0.0
C893 C 0.73642 0.82083 0.36399 0.0
C894 C 0.73634 0.83071 0.36362 0.0
H895 H 0.76751 0.86727 0.38099 0.0
H896 H 0.76051 0.85263 0.37985 0.0
H897 H 0.76864 0.8606 0.35919 0.0
H898 H 0.75892 0.8456 0.33561 0.0
H899 H 0.75912 0.82844 0.33619 0.0
H900 H 0.28262 0.8984 0.38662 0.0
H901 H 0.26563 0.88103 0.38797 0.0
H902 H 0.26425 0.88026 0.32384 0.0
H903 H 0.28132 0.89739 0.32233 0.0
H904 H 0.24518 0.87548 0.37362 0.0
H905 H 0.25988 0.85028 0.3367 0.0
H906 H 0.26895 0.86374 0.34592 0.0
H907 H 0.2622 0.86197 0.32242 0.0
C908 C 0.27879 0.89449 0.37277 0.0
C909 C 0.28344 0.89939 0.35436 0.0
C910 C 0.269 0.88456 0.37357 0.0
C911 C 0.26366 0.87917 0.35601 0.0
C912 C 0.26825 0.88408 0.33764 0.0
H913 H 0.20347 0.8193 0.32822 0.0
H914 H 0.22054 0.83658 0.3271 0.0
C915 C 0.278 0.894 0.33681 0.0
C916 C 0.2532 0.8686 0.35686 0.0
H917 H 0.24088 0.84207 0.34161 0.0
C918 C 0.24427 0.86817 0.36672 0.0
C919 C 0.25192 0.859 0.34781 0.0
C920 C 0.26126 0.8587 0.33777 0.0
C921 C 0.23413 0.85855 0.36742 0.0
C922 C 0.23285 0.84896 0.35836 0.0
C923 C 0.24178 0.84938 0.34852 0.0
C924 C 0.22236 0.83839 0.35909 0.0
C925 C 0.22479 0.85886 0.37744 0.0
C926 C 0.21766 0.83348 0.3774 0.0
C927 C 0.20786 0.8236 0.37809 0.0
C928 C 0.20247 0.81827 0.36047 0.0
C929 C 0.20725 0.82317 0.34212 0.0
C930 C 0.21709 0.83305 0.34145 0.0
H931 H 0.22618 0.86729 0.37852 0.0
H932 H 0.21711 0.85384 0.36927 0.0
H933 H 0.22383 0.85558 0.39279 0.0
H934 H 0.22161 0.83727 0.39125 0.0
H935 H 0.20444 0.82022 0.39253 0.0
H936 H 0.94049 0.67549 0.68271 0.0
H937 H 0.92331 0.67552 0.68087 0.0
H938 H 0.9394 0.70906 0.69896 0.0
H939 H 0.95666 0.70922 0.70016 0.0
H940 H 0.91204 0.67914 0.71023 0.0
H941 H 0.92279 0.71005 0.65075 0.0
H942 H 0.93093 0.70381 0.65614 0.0
H943 H 0.93198 0.7147 0.67142 0.0
C944 C 0.94045 0.68295 0.68596 0.0
C945 C 0.95009 0.69237 0.69149 0.0
C946 C 0.93056 0.68292 0.68506 0.0
C947 C 0.92999 0.69233 0.6895 0.0
C948 C 0.93957 0.70174 0.69506 0.0
H949 H 0.87768 0.70815 0.69459 0.0
H950 H 0.8949 0.7082 0.69666 0.0
C951 C 0.94947 0.70177 0.69598 0.0
C952 C 0.91936 0.69219 0.68891 0.0
H953 H 0.90625 0.70457 0.66785 0.0
C954 C 0.91077 0.68467 0.70087 0.0
C955 C 0.91763 0.69942 0.67678 0.0
C956 C 0.92628 0.70739 0.6629 0.0
C957 C 0.90066 0.6843 0.70132 0.0
C958 C 0.89892 0.69151 0.68917 0.0
C959 C 0.90752 0.69905 0.67722 0.0
C960 C 0.88827 0.69133 0.68849 0.0
C961 C 0.89203 0.67636 0.71527 0.0
C962 C 0.87869 0.68187 0.68312 0.0
C963 C 0.86878 0.68178 0.6821 0.0
C964 C 0.86812 0.6912 0.68626 0.0
C965 C 0.87774 0.70068 0.6916 0.0
C966 C 0.88766 0.70075 0.69262 0.0
H967 H 0.89556 0.67381 0.72753 0.0
H968 H 0.88731 0.67989 0.72188 0.0
H969 H 0.88639 0.66898 0.70684 0.0
H970 H 0.87889 0.67453 0.67943 0.0
H971 H 0.8616 0.67428 0.67809 0.0
H972 H 0.40473 0.23054 0.66716 0.0
H973 H 0.4036 0.21267 0.66619 0.0
H974 H 0.41492 0.21683 0.72681 0.0
H975 H 0.41587 0.23451 0.72804 0.0
H976 H 0.42015 0.2072 0.67227 0.0
H977 H 0.38761 0.1869 0.72848 0.0
H978 H 0.39057 0.19955 0.71667 0.0
H979 H 0.39883 0.19944 0.73688 0.0
C980 C 0.40687 0.22762 0.68037 0.0
C981 C 0.4104 0.23406 0.69767 0.0
C982 C 0.40629 0.2174 0.67975 0.0
C983 C 0.40905 0.21328 0.6965 0.0
C984 C 0.41258 0.21969 0.71376 0.0
H985 H 0.41274 0.15583 0.72967 0.0
H986 H 0.41278 0.17307 0.72765 0.0
C987 C 0.41323 0.2299 0.71435 0.0
C988 C 0.40847 0.2024 0.69595 0.0
H989 H 0.39695 0.17757 0.71906 0.0
C990 C 0.415 0.20069 0.68238 0.0
C991 C 0.40179 0.19386 0.70915 0.0
C992 C 0.39422 0.19495 0.7235 0.0
C993 C 0.41531 0.19087 0.68211 0.0
C994 C 0.4087 0.18235 0.69548 0.0
C995 C 0.40205 0.18403 0.70882 0.0
C996 C 0.40876 0.17176 0.69632 0.0
C997 C 0.42304 0.18989 0.66799 0.0
C998 C 0.4064 0.16509 0.67945 0.0
C999 C 0.40637 0.15514 0.68056 0.0
C1000 C 0.40856 0.15151 0.69865 0.0
C1001 C 0.41085 0.1582 0.71552 0.0
C1002 C 0.41093 0.16814 0.71437 0.0
H1003 H 0.42955 0.19797 0.66292 0.0
H1004 H 0.42683 0.18549 0.67508 0.0
H1005 H 0.41852 0.18528 0.65464 0.0
H1006 H 0.40442 0.16748 0.66543 0.0
H1007 H 0.40441 0.15019 0.66731 0.0
H1008 H 0.95046 0.2272 0.65078 0.0
H1009 H 0.93327 0.21018 0.65254 0.0
H1010 H 0.92949 0.21666 0.71381 0.0
H1011 H 0.94658 0.23391 0.71202 0.0
H1012 H 0.92699 0.19219 0.67645 0.0
H1013 H 0.90036 0.20982 0.69036 0.0
H1014 H 0.9142 0.21795 0.68216 0.0
H1015 H 0.91125 0.21389 0.70783 0.0
C1016 C 0.94593 0.22513 0.6646 0.0
C1017 C 0.94995 0.23209 0.68119 0.0
C1018 C 0.9361 0.2153 0.66562 0.0
C1019 C 0.92991 0.21213 0.6832 0.0
C1020 C 0.93395 0.21896 0.69991 0.0
H1021 H 0.867 0.15436 0.71097 0.0
H1022 H 0.88439 0.17132 0.71303 0.0
C1023 C 0.94382 0.2288 0.69893 0.0
C1024 C 0.91939 0.20161 0.68399 0.0
H1025 H 0.89209 0.19066 0.69137 0.0
C1026 C 0.91937 0.19189 0.67971 0.0
C1027 C 0.90938 0.20111 0.68831 0.0
C1028 C 0.90872 0.21124 0.69227 0.0
C1029 C 0.90973 0.18176 0.67971 0.0
C1030 C 0.8997 0.18128 0.68371 0.0
C1031 C 0.89973 0.19097 0.6883 0.0
C1032 C 0.8891 0.17085 0.68258 0.0
C1033 C 0.9104 0.17164 0.6757 0.0
C1034 C 0.88582 0.16492 0.66475 0.0
C1035 C 0.8759 0.15521 0.66354 0.0
C1036 C 0.86889 0.15113 0.68011 0.0
C1037 C 0.87218 0.15712 0.69796 0.0
C1038 C 0.88212 0.16689 0.69913 0.0
H1039 H 0.91864 0.17292 0.67878 0.0
H1040 H 0.90447 0.16472 0.6849 0.0
H1041 H 0.90857 0.16942 0.65977 0.0
H1042 H 0.89091 0.16784 0.65163 0.0
H1043 H 0.87377 0.15082 0.64959 0.0
H1044 H 0.39013 0.99674 0.26836 0.0
H1045 H 0.40178 1.00186 0.23895 0.0
H1046 H 0.38882 0.96808 0.22433 0.0
H1047 H 0.37688 0.96287 0.25348 0.0
H1048 H 0.4178 0.99702 0.22927 0.0
H1049 H 0.38573 0.9806 0.17151 0.0
H1050 H 0.383 0.98231 0.1971 0.0
H1051 H 0.38449 0.97089 0.19008 0.0
C1052 C 0.3896 0.99036 0.25877 0.0
C1053 C 0.38242 0.97936 0.26334 0.0
C1054 C 0.39636 0.99332 0.24197 0.0
C1055 C 0.39612 0.9854 0.22912 0.0
C1056 C 0.38905 0.9744 0.23371 0.0
H1057 H 0.43247 0.98923 0.12076 0.0
H1058 H 0.42008 0.98324 0.14925 0.0
C1059 C 0.38229 0.97142 0.25057 0.0
C1060 C 0.40346 0.98869 0.21131 0.0
H1061 H 0.40375 0.98729 0.16037 0.0
C1062 C 0.41471 0.99491 0.21421 0.0
C1063 C 0.39949 0.98593 0.19157 0.0
C1064 C 0.38752 0.97965 0.18727 0.0
C1065 C 0.42204 0.99831 0.1981 0.0
C1066 C 0.41808 0.99566 0.17834 0.0
C1067 C 0.40684 0.98936 0.17543 0.0
C1068 C 0.42546 0.99939 0.16055 0.0
C1069 C 0.43401 1.00452 0.20249 0.0
C1070 C 0.4325 0.01051 0.15696 0.0
C1071 C 0.43959 0.01398 0.14057 0.0
C1072 C 0.4398 0.00644 0.12717 0.0
C1073 C 0.43252 0.99532 0.13054 0.0
C1074 C 0.42544 0.99185 0.14695 0.0
H1075 H 0.43577 1.00318 0.21805 0.0
H1076 H 0.43859 1.00215 0.19219 0.0
H1077 H 0.43701 0.01334 0.20055 0.0
H1078 H 0.43251 0.01654 0.16682 0.0
H1079 H 0.44486 0.02261 0.13835 0.0
H1080 H 0.11392 0.36149 0.24478 0.0
H1081 H 0.10746 0.36743 0.21615 0.0
H1082 H 0.12811 0.40082 0.23293 0.0
H1083 H 0.13487 0.39498 0.26121 0.0
H1084 H 0.09688 0.37935 0.21404 0.0
H1085 H 0.13629 0.40141 0.17475 0.0
H1086 H 0.13406 0.39229 0.1953 0.0
H1087 H 0.13656 0.40584 0.19987 0.0
C1088 C 0.11719 0.37011 0.24232 0.0
C1089 C 0.12501 0.37773 0.2554 0.0
C1090 C 0.11342 0.3735 0.22595 0.0
C1091 C 0.11741 0.3846 0.22205 0.0
C1092 C 0.12504 0.39222 0.23527 0.0
H1093 H 0.10477 0.41996 0.12736 0.0
H1094 H 0.11128 0.41481 0.15703 0.0
C1095 C 0.12881 0.38884 0.25167 0.0
C1096 C 0.11347 0.38815 0.20432 0.0
H1097 H 0.12181 0.40316 0.16126 0.0
C1098 C 0.10234 0.38453 0.20248 0.0
C1099 C 0.12055 0.39496 0.18917 0.0
C1100 C 0.13252 0.39879 0.1897 0.0
C1101 C 0.09815 0.38761 0.1862 0.0
C1102 C 0.10522 0.39434 0.17095 0.0
C1103 C 0.11636 0.39802 0.17286 0.0
C1104 C 0.10121 0.39749 0.15278 0.0
C1105 C 0.08619 0.3838 0.18575 0.0
C1106 C 0.09349 0.38953 0.14016 0.0
C1107 C 0.08976 0.39245 0.12314 0.0
C1108 C 0.09369 0.40345 0.11809 0.0
C1109 C 0.10157 0.41142 0.13059 0.0
C1110 C 0.10529 0.40848 0.14767 0.0
H1111 H 0.08255 0.38162 0.20088 0.0
H1112 H 0.0846 0.39013 0.17942 0.0
H1113 H 0.08205 0.37645 0.17632 0.0
H1114 H 0.09043 0.38099 0.14332 0.0
H1115 H 0.08391 0.38605 0.11372 0.0
H1116 H 0.70607 0.70955 0.26714 0.0
H1117 H 0.70019 0.69709 0.23885 0.0
H1118 H 0.73004 0.71813 0.20827 0.0
H1119 H 0.73598 0.73066 0.23643 0.0
H1120 H 0.69662 0.70033 0.20009 0.0
H1121 H 0.72887 0.68914 0.20268 0.0
H1122 H 0.72657 0.69616 0.22284 0.0
H1123 H 0.73393 0.70351 0.20102 0.0
C1124 C 0.71141 0.71157 0.25441 0.0
C1125 C 0.72156 0.72117 0.25427 0.0
C1126 C 0.70804 0.70438 0.23821 0.0
C1127 C 0.71471 0.70652 0.22141 0.0
C1128 C 0.72483 0.71609 0.22118 0.0
H1129 H 0.70606 0.67259 0.10746 0.0
H1130 H 0.71273 0.68575 0.13484 0.0
C1131 C 0.72822 0.72329 0.23739 0.0
C1132 C 0.71091 0.69892 0.20396 0.0
H1133 H 0.71726 0.68313 0.17453 0.0
C1134 C 0.70113 0.69655 0.19459 0.0
C1135 C 0.71677 0.69396 0.19657 0.0
C1136 C 0.72706 0.69572 0.20639 0.0
C1137 C 0.69714 0.68953 0.17807 0.0
C1138 C 0.70296 0.68452 0.17077 0.0
C1139 C 0.71279 0.68695 0.18001 0.0
C1140 C 0.69885 0.67655 0.15392 0.0
C1141 C 0.68681 0.6877 0.16833 0.0
C1142 C 0.68886 0.66689 0.15544 0.0
C1143 C 0.68502 0.65937 0.1398 0.0
C1144 C 0.69106 0.66123 0.12213 0.0
C1145 C 0.70109 0.6709 0.12066 0.0
C1146 C 0.70496 0.67842 0.1364 0.0
H1147 H 0.68505 0.69433 0.17184 0.0
H1148 H 0.68722 0.68711 0.15189 0.0
H1149 H 0.67996 0.67998 0.17394 0.0
H1150 H 0.68405 0.66512 0.16886 0.0
H1151 H 0.67721 0.65211 0.14151 0.0
H1152 H 0.06901 0.39367 0.90784 0.0
H1153 H 0.06315 0.38127 0.87941 0.0
H1154 H 0.03054 0.36497 0.90221 0.0
H1155 H 0.03631 0.37722 0.93074 0.0
H1156 H 0.05355 0.3588 0.87687 0.0
H1157 H 0.02601 0.37225 0.84557 0.0
H1158 H 0.03578 0.37974 0.86472 0.0
H1159 H 0.02314 0.36791 0.87108 0.0
C1160 C 0.0606 0.38739 0.90698 0.0
C1161 C 0.05315 0.38658 0.92169 0.0
C1162 C 0.05724 0.38031 0.89058 0.0
C1163 C 0.04634 0.37228 0.88832 0.0
C1164 C 0.03894 0.37126 0.90321 0.0
H1165 H 1.00793 0.32124 0.80365 0.0
H1166 H 0.015 0.33411 0.83121 0.0
C1167 C 0.04228 0.37832 0.91961 0.0
C1168 C 0.0427 0.36492 0.87053 0.0
H1169 H 0.02493 0.35639 0.8314 0.0
C1170 C 0.04735 0.35834 0.86685 0.0
C1171 C 0.03461 0.36428 0.85734 0.0
C1172 C 0.02965 0.37149 0.85971 0.0
C1173 C 0.04392 0.35095 0.85082 0.0
C1174 C 0.03573 0.35021 0.83777 0.0
C1175 C 0.03117 0.35689 0.84134 0.0
C1176 C 0.03155 0.34238 0.82069 0.0
C1177 C 0.04886 0.34373 0.8484 0.0
C1178 C 0.03841 0.34276 0.80522 0.0
C1179 C 0.03438 0.33532 0.78937 0.0
C1180 C 0.02336 0.32731 0.78853 0.0
C1181 C 0.01649 0.32711 0.80388 0.0
C1182 C 0.02052 0.33455 0.81965 0.0
H1183 H 0.0529 0.3433 0.86228 0.0
H1184 H 0.04263 0.33537 0.84417 0.0
H1185 H 0.05504 0.34705 0.83641 0.0
H1186 H 0.04691 0.34884 0.80535 0.0
H1187 H 0.03995 0.33575 0.77793 0.0
H1188 H 0.78154 0.6841 0.80671 0.0
H1189 H 0.76924 0.67837 0.83527 0.0
H1190 H 0.74632 0.64993 0.80314 0.0
H1191 H 0.75855 0.65562 0.77447 0.0
H1192 H 0.7486 0.67476 0.83968 0.0
H1193 H 0.74897 0.63641 0.85451 0.0
H1194 H 0.75847 0.64671 0.83778 0.0
H1195 H 0.74492 0.63743 0.82963 0.0
C1196 C 0.77385 0.67667 0.80557 0.0
C1197 C 0.77113 0.67032 0.78814 0.0
C1198 C 0.76682 0.67336 0.82204 0.0
C1199 C 0.75689 0.66358 0.82165 0.0
C1200 C 0.75404 0.65735 0.80414 0.0
H1201 H 0.7045 0.63091 0.90976 0.0
H1202 H 0.71555 0.63632 0.87932 0.0
C1203 C 0.76107 0.66064 0.78767 0.0
C1204 C 0.7495 0.66003 0.83945 0.0
H1205 H 0.73652 0.63933 0.87325 0.0
C1206 C 0.746 0.66702 0.84702 0.0
C1207 C 0.74602 0.64991 0.84914 0.0
C1208 C 0.74986 0.64221 0.8425 0.0
C1209 C 0.73909 0.66416 0.86373 0.0
C1210 C 0.73566 0.65408 0.87348 0.0
C1211 C 0.73908 0.64704 0.86582 0.0
C1212 C 0.72881 0.65084 0.89195 0.0
C1213 C 0.73536 0.6719 0.8706 0.0
C1214 C 0.73256 0.6571 0.90935 0.0
C1215 C 0.72626 0.65403 0.92676 0.0
C1216 C 0.71602 0.64457 0.92735 0.0
C1217 C 0.71227 0.63829 0.90988 0.0
C1218 C 0.71862 0.64135 0.89246 0.0
H1219 H 0.73613 0.67767 0.8586 0.0
H1220 H 0.7268 0.66744 0.87566 0.0
H1221 H 0.74045 0.67672 0.88331 0.0
H1222 H 0.74044 0.66435 0.90955 0.0
H1223 H 0.72941 0.65916 0.93976 0.0
H1224 H 0.44176 0.02869 0.92019 0.0
H1225 H 0.43668 0.03534 0.89078 0.0
H1226 H 0.46251 0.06778 0.90245 0.0
H1227 H 0.46753 0.06126 0.93227 0.0
H1228 H 0.43023 0.05142 0.88916 0.0
H1229 H 0.4669 0.06336 0.84307 0.0
H1230 H 0.46357 0.05448 0.86444 0.0
H1231 H 0.46932 0.06886 0.86783 0.0
C1232 C 0.44637 0.03726 0.91668 0.0
C1233 C 0.45507 0.0444 0.92888 0.0
C1234 C 0.44347 0.04105 0.89969 0.0
C1235 C 0.44924 0.05206 0.89419 0.0
C1236 C 0.45802 0.05921 0.90611 0.0
H1237 H 0.44138 0.087 0.79215 0.0
H1238 H 0.44751 0.08234 0.82292 0.0
C1239 C 0.4609 0.05544 0.92321 0.0
C1240 C 0.4458 0.05604 0.87639 0.0
H1241 H 0.45385 0.06742 0.83003 0.0
C1242 C 0.43541 0.05492 0.87624 0.0
C1243 C 0.45255 0.0607 0.85953 0.0
C1244 C 0.46368 0.06187 0.85853 0.0
C1245 C 0.43161 0.05833 0.85984 0.0
C1246 C 0.43825 0.06275 0.84274 0.0
C1247 C 0.44872 0.06403 0.84303 0.0
C1248 C 0.43435 0.06574 0.82422 0.0
C1249 C 0.42056 0.05734 0.86124 0.0
C1250 C 0.42493 0.05802 0.81446 0.0
C1251 C 0.42134 0.06069 0.79698 0.0
C1252 C 0.42713 0.07116 0.78848 0.0
C1253 C 0.43659 0.07891 0.79828 0.0
C1254 C 0.44017 0.07622 0.81585 0.0
H1255 H 0.41813 0.05727 0.87699 0.0
H1256 H 0.42032 0.06412 0.85331 0.0
H1257 H 0.4145 0.04958 0.85438 0.0
H1258 H 0.42037 0.04981 0.82024 0.0
H1259 H 0.41396 0.0545 0.79014 0.0
H1260 H 0.78089 0.06968 0.80258 0.0
H1261 H 0.76802 0.06326 0.83029 0.0
H1262 H 0.7493 0.07559 0.80098 0.0
H1263 H 0.76217 0.08213 0.77327 0.0
H1264 H 0.76238 0.07469 0.85598 0.0
H1265 H 0.72601 0.04489 0.81473 0.0
H1266 H 0.73946 0.05077 0.80438 0.0
H1267 H 0.73232 0.0583 0.80416 0.0
C1268 C 0.77406 0.07107 0.80197 0.0
C1269 C 0.77264 0.07645 0.78549 0.0
C1270 C 0.76665 0.06733 0.81787 0.0
C1271 C 0.75755 0.06877 0.81774 0.0
C1272 C 0.75608 0.07412 0.80133 0.0
H1273 H 0.70504 0.05513 0.90066 0.0
H1274 H 0.71778 0.06077 0.87284 0.0
C1275 C 0.76348 0.07787 0.78541 0.0
C1276 C 0.74983 0.065 0.83504 0.0
H1277 H 0.72317 0.04888 0.84781 0.0
C1278 C 0.75382 0.06899 0.85418 0.0
C1279 C 0.73862 0.05757 0.83284 0.0
C1280 C 0.73384 0.05254 0.81297 0.0
C1281 C 0.74694 0.06598 0.87096 0.0
C1282 C 0.73572 0.05858 0.86874 0.0
C1283 C 0.73174 0.05455 0.84962 0.0
C1284 C 0.72796 0.05506 0.88597 0.0
C1285 C 0.75172 0.07103 0.89082 0.0
C1286 C 0.72927 0.0498 0.9027 0.0
C1287 C 0.72199 0.0466 0.91881 0.0
C1288 C 0.71317 0.04855 0.91862 0.0
C1289 C 0.71181 0.05366 0.90166 0.0
C1290 C 0.71907 0.05683 0.88558 0.0
H1291 H 0.75965 0.07857 0.88909 0.0
H1292 H 0.74617 0.07299 0.8992 0.0
H1293 H 0.75303 0.06519 0.89982 0.0
H1294 H 0.7359 0.04811 0.9033 0.0
H1295 H 0.72337 0.04273 0.93154 0.0
H1296 H 0.04674 0.67939 0.77577 0.0
H1297 H 0.05139 0.67305 0.80617 0.0
H1298 H 0.0184 0.65899 0.82645 0.0
H1299 H 0.0136 0.6651 0.79578 0.0
H1300 H 0.04992 0.67756 0.84611 0.0
H1301 H 0.02417 0.63346 0.83149 0.0
H1302 H 0.02729 0.64364 0.81248 0.0
H1303 H 0.01715 0.64108 0.83094 0.0
C1304 C 0.04041 0.67485 0.78657 0.0
C1305 C 0.02974 0.67267 0.78308 0.0
C1306 C 0.04312 0.67129 0.80407 0.0
C1307 C 0.03524 0.66537 0.81857 0.0
C1308 C 0.02462 0.66336 0.81538 0.0
H1309 H 0.0376 0.63477 0.93101 0.0
H1310 H 0.03222 0.64174 0.90237 0.0
C1311 C 0.0219 0.66697 0.79788 0.0
C1312 C 0.03822 0.66139 0.83698 0.0
H1313 H 0.03311 0.63837 0.86258 0.0
C1314 C 0.04625 0.66899 0.84968 0.0
C1315 C 0.03344 0.6502 0.84178 0.0
C1316 C 0.0251 0.64159 0.8284 0.0
C1317 C 0.04952 0.66573 0.86704 0.0
C1318 C 0.04483 0.65453 0.87173 0.0
C1319 C 0.03673 0.64695 0.8591 0.0
C1320 C 0.04825 0.65049 0.8895 0.0
C1321 C 0.05782 0.67437 0.88042 0.0
C1322 C 0.05907 0.65297 0.89193 0.0
C1323 C 0.06218 0.64896 0.90833 0.0
C1324 C 0.05456 0.64225 0.92273 0.0
C1325 C 0.04372 0.63978 0.92022 0.0
C1326 C 0.04062 0.64381 0.90382 0.0
H1327 H 0.05819 0.68233 0.87811 0.0
H1328 H 0.05602 0.67205 0.89636 0.0
H1329 H 0.06592 0.67545 0.87696 0.0
H1330 H 0.0651 0.65786 0.88091 0.0
H1331 H 0.07055 0.65089 0.90941 0.0
H1332 H 0.45013 0.39505 0.91291 0.0
H1333 H 0.44476 0.38395 0.88273 0.0
H1334 H 0.4559 0.36332 0.90849 0.0
H1335 H 0.46148 0.37446 0.93854 0.0
H1336 H 0.45698 0.37884 0.85604 0.0
H1337 H 0.42476 0.34148 0.89209 0.0
H1338 H 0.43068 0.35462 0.90384 0.0
H1339 H 0.4378 0.34709 0.90375 0.0
C1340 C 0.45158 0.38824 0.91215 0.0
C1341 C 0.45621 0.38568 0.92844 0.0
C1342 C 0.44842 0.38183 0.89485 0.0
C1343 C 0.44971 0.37264 0.89337 0.0
C1344 C 0.45454 0.37019 0.90937 0.0
H1345 H 0.4331 0.32258 0.80185 0.0
H1346 H 0.43916 0.33367 0.83211 0.0
C1347 C 0.45773 0.3766 0.92663 0.0
C1348 C 0.44612 0.36569 0.87506 0.0
H1349 H 0.42892 0.3399 0.85855 0.0
C1350 C 0.45082 0.37033 0.8566 0.0
C1351 C 0.43811 0.35455 0.87568 0.0
C1352 C 0.43246 0.34913 0.89485 0.0
C1353 C 0.44788 0.36416 0.83892 0.0
C1354 C 0.43978 0.35304 0.83948 0.0
C1355 C 0.43512 0.34839 0.85798 0.0
C1356 C 0.43593 0.34616 0.82105 0.0
C1357 C 0.45373 0.36959 0.81989 0.0
C1358 C 0.43183 0.34927 0.80477 0.0
C1359 C 0.42837 0.34295 0.78743 0.0
C1360 C 0.42878 0.33323 0.78588 0.0
C1361 C 0.43261 0.32996 0.80243 0.0
C1362 C 0.43613 0.33634 0.81977 0.0
H1363 H 0.46175 0.37681 0.82294 0.0
H1364 H 0.45495 0.3639 0.81036 0.0
H1365 H 0.44885 0.37241 0.81145 0.0
H1366 H 0.43122 0.35658 0.80548 0.0
H1367 H 0.42524 0.34563 0.77528 0.0
H1368 H 0.13511 0.71421 0.26152 0.0
H1369 H 0.12847 0.70179 0.23314 0.0
H1370 H 0.10932 0.71607 0.21402 0.0
H1371 H 0.11583 0.72845 0.24237 0.0
H1372 H 0.10794 0.68625 0.22147 0.0
H1373 H 0.12608 0.71834 0.16361 0.0
H1374 H 0.12969 0.72098 0.18958 0.0
H1375 H 0.11742 0.72025 0.18059 0.0
C1376 C 0.1294 0.71467 0.25142 0.0
C1377 C 0.12611 0.72247 0.25432 0.0
C1378 C 0.12565 0.70757 0.23507 0.0
C1379 C 0.11855 0.70809 0.22108 0.0
C1380 C 0.11502 0.71566 0.2242 0.0
H1381 H 0.08619 0.67384 0.11257 0.0
H1382 H 0.09286 0.68544 0.14195 0.0
C1383 C 0.11877 0.72276 0.24052 0.0
C1384 C 0.11477 0.7007 0.20335 0.0
H1385 H 0.11375 0.70054 0.15234 0.0
C1386 C 0.10928 0.68938 0.20636 0.0
C1387 C 0.1165 0.70472 0.18353 0.0
C1388 C 0.12283 0.71673 0.17906 0.0
C1389 C 0.10523 0.68205 0.19026 0.0
C1390 C 0.10686 0.68608 0.17046 0.0
C1391 C 0.11244 0.69739 0.16745 0.0
C1392 C 0.10271 0.67876 0.15267 0.0
C1393 C 0.09895 0.67003 0.19465 0.0
C1394 C 0.10606 0.67113 0.14859 0.0
C1395 C 0.10219 0.6644 0.13174 0.0
C1396 C 0.09487 0.66511 0.11847 0.0
C1397 C 0.09163 0.67285 0.12255 0.0
C1398 C 0.09552 0.67958 0.13933 0.0
H1399 H 0.09602 0.66837 0.2103 0.0
H1400 H 0.09189 0.66586 0.18454 0.0
H1401 H 0.10428 0.66648 0.19232 0.0
H1402 H 0.11176 0.67043 0.15835 0.0
H1403 H 0.10487 0.65855 0.12923 0.0
H1404 H 0.37562 0.3934 0.24601 0.0
H1405 H 0.38838 0.39904 0.21826 0.0
H1406 H 0.39758 0.37543 0.23573 0.0
H1407 H 0.3845 0.36943 0.26319 0.0
H1408 H 0.41016 0.4077 0.21729 0.0
H1409 H 0.39118 0.36839 0.17723 0.0
H1410 H 0.3845 0.3711 0.19744 0.0
H1411 H 0.39478 0.36753 0.20254 0.0
C1412 C 0.38023 0.38927 0.24387 0.0
C1413 C 0.37885 0.38083 0.25686 0.0
C1414 C 0.38762 0.39259 0.228 0.0
C1415 C 0.39386 0.38755 0.22451 0.0
C1416 C 0.39272 0.3793 0.23771 0.0
H1417 H 0.44299 0.39912 0.13333 0.0
H1418 H 0.43062 0.39238 0.16187 0.0
C1419 C 0.38531 0.37596 0.25363 0.0
C1420 C 0.40162 0.39112 0.20728 0.0
H1421 H 0.40787 0.38228 0.16443 0.0
C1422 C 0.40963 0.40212 0.20574 0.0
C1423 C 0.40102 0.38389 0.1921 0.0
C1424 C 0.39235 0.37209 0.19223 0.0
C1425 C 0.41701 0.40605 0.1897 0.0
C1426 C 0.41633 0.39885 0.17442 0.0
C1427 C 0.40843 0.38782 0.17606 0.0
C1428 C 0.42361 0.40268 0.15652 0.0
C1429 C 0.4256 0.41788 0.18943 0.0
C1430 C 0.42366 0.41052 0.14357 0.0
C1431 C 0.43067 0.41433 0.1271 0.0
C1432 C 0.43785 0.4104 0.12302 0.0
C1433 C 0.43757 0.40231 0.13575 0.0
C1434 C 0.43052 0.39848 0.15222 0.0
H1435 H 0.42694 0.42155 0.20448 0.0
H1436 H 0.43341 0.41894 0.18376 0.0
H1437 H 0.42299 0.42241 0.17943 0.0
H1438 H 0.41824 0.41371 0.14617 0.0
H1439 H 0.43041 0.42035 0.11749 0.0
H1440 H 0.71283 0.02301 0.12065 0.0
H1441 H 0.71736 0.01595 0.15016 0.0
H1442 H 0.68656 0.9865 0.1466 0.0
H1443 H 0.68217 0.99328 0.11645 0.0
H1444 H 0.70848 0.01 0.18647 0.0
H1445 H 0.70649 0.97403 0.15 0.0
H1446 H 0.70621 0.98479 0.13603 0.0
H1447 H 0.69413 0.97448 0.14797 0.0
C1448 C 0.70704 0.01495 0.1259 0.0
C1449 C 0.69716 0.00869 0.11578 0.0
C1450 C 0.70963 0.01095 0.14298 0.0
C1451 C 0.70244 1.00056 0.15052 0.0
C1452 C 0.69241 0.99442 0.14089 0.0
H1453 H 0.70466 0.96257 0.25167 0.0
H1454 H 0.69942 0.96986 0.22337 0.0
C1455 C 0.68983 0.9984 0.12373 0.0
C1456 C 0.70546 0.99625 0.16845 0.0
H1457 H 0.7086 0.97506 0.18512 0.0
C1458 C 0.70853 1.00238 0.1861 0.0
C1459 C 0.7056 0.9863 0.16814 0.0
C1460 C 0.70304 0.97956 0.14948 0.0
C1461 C 0.71153 0.99879 0.20338 0.0
C1462 C 0.71161 0.98883 0.20307 0.0
C1463 C 0.70852 0.98268 0.18546 0.0
C1464 C 0.71485 0.98461 0.2208 0.0
C1465 C 0.71437 1.0056 0.22197 0.0
C1466 C 0.72532 0.99041 0.22892 0.0
C1467 C 0.72841 0.9862 0.24509 0.0
C1468 C 0.72112 0.97604 0.25357 0.0
C1469 C 0.7106 0.97032 0.24547 0.0
C1470 C 0.70755 0.97451 0.22928 0.0
H1471 H 0.71133 0.01147 0.22138 0.0
H1472 H 0.711 1.0004 0.23542 0.0
H1473 H 0.72331 0.01029 0.22354 0.0
H1474 H 0.73121 0.99811 0.22247 0.0
H1475 H 0.73662 0.9908 0.25057 0.0
H1476 H 0.11196 0.35366 0.46977 0.0
H1477 H 0.1003 0.34736 0.49922 0.0
H1478 H 0.08072 0.31619 0.47164 0.0
H1479 H 0.09227 0.32245 0.44204 0.0
H1480 H 0.07862 0.34042 0.5028 0.0
H1481 H 0.08632 0.30721 0.52585 0.0
H1482 H 0.09463 0.31738 0.50773 0.0
H1483 H 0.08175 0.30616 0.5006 0.0
C1484 C 0.10517 0.34546 0.46987 0.0
C1485 C 0.10314 0.33859 0.45335 0.0
C1486 C 0.09851 0.34184 0.48684 0.0
C1487 C 0.08967 0.33122 0.48792 0.0
C1488 C 0.08762 0.32433 0.4715 0.0
H1489 H 0.03948 0.29667 0.57916 0.0
H1490 H 0.05035 0.30197 0.5485 0.0
C1491 C 0.09427 0.32794 0.45451 0.0
C1492 C 0.08243 0.32755 0.5059 0.0
H1493 H 0.07239 0.30841 0.54312 0.0
C1494 C 0.0773 0.33344 0.51163 0.0
C1495 C 0.0806 0.3184 0.51748 0.0
C1496 C 0.08618 0.31196 0.51276 0.0
C1497 C 0.07039 0.33041 0.52835 0.0
C1498 C 0.06865 0.32132 0.54004 0.0
C1499 C 0.07368 0.31536 0.53421 0.0
C1500 C 0.0619 0.3181 0.55864 0.0
C1501 C 0.06486 0.33688 0.53315 0.0
C1502 C 0.06476 0.32532 0.57473 0.0
C1503 C 0.05856 0.32232 0.59225 0.0
C1504 C 0.04931 0.31197 0.59429 0.0
C1505 C 0.04646 0.30474 0.57813 0.0
C1506 C 0.05272 0.30774 0.5606 0.0
H1507 H 0.06453 0.34147 0.51996 0.0
H1508 H 0.05649 0.33153 0.53863 0.0
H1509 H 0.06947 0.34284 0.545 0.0
H1510 H 0.07188 0.33329 0.57382 0.0
H1511 H 0.06099 0.32818 0.60419 0.0
H1512 H 0.77152 0.70047 0.59443 0.0
H1513 H 0.7666 0.70696 0.56456 0.0
H1514 H 0.8003 0.7292 0.55279 0.0
H1515 H 0.80533 0.72252 0.58238 0.0
H1516 H 0.77029 0.72748 0.5549 0.0
H1517 H 0.79009 0.71417 0.4992 0.0
H1518 H 0.78793 0.70945 0.52469 0.0
H1519 H 0.79896 0.72268 0.51848 0.0
C1520 C 0.77793 0.70662 0.58537 0.0
C1521 C 0.78886 0.71086 0.59087 0.0
C1522 C 0.77508 0.7104 0.56831 0.0
C1523 C 0.78305 0.71848 0.55612 0.0
C1524 C 0.79397 0.72282 0.56164 0.0
H1525 H 0.78021 0.75056 0.44596 0.0
H1526 H 0.78587 0.74492 0.47607 0.0
C1527 C 0.79684 0.71906 0.57876 0.0
C1528 C 0.77989 0.72245 0.53794 0.0
H1529 H 0.7828 0.72495 0.48721 0.0
C1530 C 0.77301 0.72689 0.54011 0.0
C1531 C 0.78342 0.72175 0.51854 0.0
C1532 C 0.79043 0.71667 0.51497 0.0
C1533 C 0.76972 0.73074 0.52359 0.0
C1534 C 0.77318 0.72996 0.50417 0.0
C1535 C 0.78012 0.72559 0.50202 0.0
C1536 C 0.76964 0.73352 0.48591 0.0
C1537 C 0.76274 0.73585 0.52721 0.0
C1538 C 0.75861 0.72896 0.48111 0.0
C1539 C 0.75533 0.73215 0.46381 0.0
C1540 C 0.76299 0.73995 0.45066 0.0
C1541 C 0.77404 0.74447 0.4555 0.0
C1542 C 0.77731 0.74128 0.47282 0.0
H1543 H 0.76343 0.73871 0.54281 0.0
H1544 H 0.76496 0.74283 0.51701 0.0
H1545 H 0.75415 0.72972 0.52451 0.0
H1546 H 0.7525 0.72276 0.49059 0.0
H1547 H 0.74677 0.72828 0.46049 0.0
H1548 H 0.36203 0.98609 0.47796 0.0
H1549 H 0.36845 0.99855 0.50628 0.0
H1550 H 0.36248 0.02127 0.47345 0.0
H1551 H 0.35613 0.00891 0.44504 0.0
H1552 H 0.38516 0.01958 0.51035 0.0
H1553 H 0.34616 0.01825 0.52474 0.0
H1554 H 0.34726 0.00875 0.50842 0.0
H1555 H 0.35096 0.02217 0.4997 0.0
C1556 C 0.36216 0.99377 0.47662 0.0
C1557 C 0.35845 0.99639 0.45908 0.0
C1558 C 0.3658 1.00089 0.49295 0.0
C1559 C 0.36577 0.0108 0.49229 0.0
C1560 C 0.36232 0.01356 0.47465 0.0
H1561 H 0.3842 0.06564 0.57178 0.0
H1562 H 0.37823 0.0527 0.5443 0.0
C1563 C 0.35869 0.00646 0.45833 0.0
C1564 C 0.36943 0.01829 0.50991 0.0
H1565 H 0.36146 0.03162 0.54233 0.0
C1566 C 0.37995 0.02215 0.51741 0.0
C1567 C 0.36266 0.02168 0.51927 0.0
C1568 C 0.35109 0.01743 0.51278 0.0
C1569 C 0.38395 0.02949 0.53351 0.0
C1570 C 0.37721 0.03296 0.54272 0.0
C1571 C 0.36667 0.02902 0.53532 0.0
C1572 C 0.38099 0.04085 0.55972 0.0
C1573 C 0.39549 0.03371 0.54011 0.0
C1574 C 0.38444 0.03854 0.57784 0.0
C1575 C 0.38794 0.046 0.59366 0.0
C1576 C 0.38807 0.05598 0.59183 0.0
C1577 C 0.38445 0.05818 0.57374 0.0
C1578 C 0.38093 0.05072 0.55798 0.0
H1579 H 0.40037 0.03252 0.52851 0.0
H1580 H 0.39943 0.04248 0.54377 0.0
H1581 H 0.39555 0.02925 0.55369 0.0
H1582 H 0.38437 0.03091 0.57982 0.0
H1583 H 0.39068 0.04399 0.60726 0.0
H1584 H 0.78003 0.01124 0.43777 0.0
H1585 H 0.78561 0.02218 0.46809 0.0
H1586 H 0.75425 1.00147 0.49404 0.0
H1587 H 0.74851 0.99057 0.46366 0.0
H1588 H 0.77669 0.03384 0.48591 0.0
H1589 H 0.77471 1.00235 0.53782 0.0
H1590 H 0.77462 1.00092 0.5111 0.0
H1591 H 0.76249 0.99833 0.524 0.0
C1592 C 0.77426 0.00899 0.44984 0.0
C1593 C 0.76378 0.99993 0.44806 0.0
C1594 C 0.77751 0.01526 0.46728 0.0
C1595 C 0.77042 0.01262 0.48356 0.0
C1596 C 0.75997 1.00358 0.48192 0.0
H1597 H 0.7736 0.03995 0.60123 0.0
H1598 H 0.7686 0.02925 0.57068 0.0
C1599 C 0.7567 0.99731 0.46446 0.0
C1600 C 0.77387 0.0195 0.50197 0.0
H1601 H 0.77744 0.01876 0.5523 0.0
C1602 C 0.77691 0.03055 0.50041 0.0
C1603 C 0.77415 0.01526 0.52098 0.0
C1604 C 0.77142 1.00359 0.52365 0.0
C1605 C 0.77994 0.03737 0.51726 0.0
C1606 C 0.78023 0.03313 0.5363 0.0
C1607 C 0.77724 0.02208 0.53781 0.0
C1608 C 0.78339 0.03991 0.55488 0.0
C1609 C 0.78247 0.04897 0.51454 0.0
C1610 C 0.79345 0.04951 0.55649 0.0
C1611 C 0.79635 0.05571 0.57406 0.0
C1612 C 0.78934 0.05239 0.59063 0.0
C1613 C 0.7793 0.04273 0.58897 0.0
C1614 C 0.7764 0.03659 0.5714 0.0
H1615 H 0.77888 0.05004 0.50058 0.0
H1616 H 0.77941 0.05167 0.52727 0.0
H1617 H 0.79137 0.05432 0.5136 0.0
H1618 H 0.79916 0.05216 0.54426 0.0
H1619 H 0.80419 0.06298 0.57481 0.0
H1620 H 0.10875 0.73054 0.46236 0.0
H1621 H 0.09721 0.72514 0.49204 0.0
H1622 H 0.08321 0.74446 0.47227 0.0
H1623 H 0.09479 0.75003 0.44274 0.0
H1624 H 0.09505 0.73724 0.52284 0.0
H1625 H 0.05644 0.71482 0.48146 0.0
H1626 H 0.06942 0.71903 0.47004 0.0
H1627 H 0.06473 0.72862 0.47333 0.0
C1628 C 0.10332 0.73377 0.46437 0.0
C1629 C 0.10271 0.74069 0.44988 0.0
C1630 C 0.09665 0.7306 0.48137 0.0
C1631 C 0.08914 0.73419 0.48431 0.0
C1632 C 0.08871 0.74132 0.47018 0.0
H1633 H 0.04042 0.72434 0.57313 0.0
H1634 H 0.05284 0.72983 0.54483 0.0
C1635 C 0.09537 0.74451 0.45322 0.0
C1636 C 0.08178 0.73054 0.50212 0.0
H1637 H 0.05509 0.71759 0.51595 0.0
C1638 C 0.08631 0.73288 0.52133 0.0
C1639 C 0.07036 0.72484 0.50026 0.0
C1640 C 0.06492 0.72157 0.48018 0.0
C1641 C 0.07978 0.72997 0.53859 0.0
C1642 C 0.06834 0.72434 0.53672 0.0
C1643 C 0.06383 0.72192 0.5175 0.0
C1644 C 0.06091 0.72104 0.55441 0.0
C1645 C 0.08521 0.73327 0.55866 0.0
C1646 C 0.06114 0.71415 0.56932 0.0
C1647 C 0.05405 0.71104 0.58572 0.0
C1648 C 0.0465 0.7147 0.58763 0.0
C1649 C 0.04623 0.7215 0.57252 0.0
C1650 C 0.0533 0.7246 0.55615 0.0
H1651 H 0.09372 0.73995 0.55735 0.0
H1652 H 0.08077 0.73593 0.56869 0.0
H1653 H 0.0853 0.72621 0.56566 0.0
H1654 H 0.06674 0.71108 0.56822 0.0
H1655 H 0.05458 0.70584 0.597 0.0
H1656 H 0.36048 0.32327 0.43921 0.0
H1657 H 0.36575 0.31747 0.46951 0.0
H1658 H 0.37037 0.34627 0.49959 0.0
H1659 H 0.36524 0.35224 0.4692 0.0
H1660 H 0.3852 0.32781 0.48993 0.0
H1661 H 0.35168 0.32251 0.53948 0.0
H1662 H 0.35121 0.32382 0.51279 0.0
H1663 H 0.35898 0.33564 0.52785 0.0
C1664 C 0.36264 0.32843 0.4522 0.0
C1665 C 0.36243 0.33828 0.45154 0.0
C1666 C 0.36562 0.32506 0.46962 0.0
C1667 C 0.36837 0.33134 0.48703 0.0
C1668 C 0.36808 0.34113 0.48656 0.0
H1669 H 0.39004 0.32222 0.60518 0.0
H1670 H 0.38506 0.32948 0.57626 0.0
C1671 C 0.36512 0.34454 0.46909 0.0
C1672 C 0.37192 0.32781 0.50532 0.0
H1673 H 0.36579 0.32065 0.55441 0.0
C1674 C 0.38092 0.32623 0.504 0.0
C1675 C 0.36643 0.32579 0.52382 0.0
C1676 C 0.35648 0.32692 0.52613 0.0
C1677 C 0.3846 0.32278 0.52052 0.0
C1678 C 0.37901 0.32059 0.53894 0.0
C1679 C 0.3701 0.32231 0.54036 0.0
C1680 C 0.38211 0.31621 0.55664 0.0
C1681 C 0.39457 0.32169 0.51815 0.0
C1682 C 0.38203 0.30627 0.55549 0.0
C1683 C 0.38491 0.30212 0.57197 0.0
C1684 C 0.38791 0.30775 0.59022 0.0
C1685 C 0.38792 0.3177 0.59139 0.0
C1686 C 0.38499 0.32183 0.57486 0.0
H1687 H 0.39965 0.32662 0.50545 0.0
H1688 H 0.39957 0.32423 0.53189 0.0
H1689 H 0.39209 0.31307 0.51519 0.0
H1690 H 0.37967 0.30164 0.5418 0.0
H1691 H 0.3849 0.29451 0.57031 0.0
loop_
_geom_bond_atom_site_label_1
_geom_bond_atom_site_label_2
_geom_bond_distance
_geom_bond_site_symmetry_2
_ccdc_geom_bond_type
C0 C1 1.264 . S
C0 C5 1.479 . S
C0 C10 1.465 . S
C1 C0 1.264 . S
C1 C3 1.339 . S
C1 H28 0.931 . S
C2 C3 1.395 . S
C2 C4 1.320 . S
C3 C1 1.339 . S
C3 C2 1.395 . S
C3 H29 0.929 . S
C4 C2 1.320 . S
C4 C5 1.405 . S
C4 H30 0.990 . S
C5 C0 1.479 . S
C5 C4 1.405 . S
C5 H31 0.931 . S
U6 O7 2.454 . S
U6 O8 2.458 . S
U6 C9 2.984 . S
U6 C10 2.847 . S
U6 C23 2.882 1_554 S
U6 O24 2.441 . S
U6 O25 2.420 . S
U6 O26 2.455 1_554 S
U6 O27 2.449 . S
O7 U6 2.454 . S
O7 C9 1.353 . S
O8 U6 2.458 . S
O8 C9 1.286 . S
C9 U6 2.984 . S
C9 O7 1.353 . S
C9 O8 1.286 . S
C9 C11 1.363 . S
C10 C0 1.465 . S
C10 U6 2.847 . S
C10 O24 1.249 . S
C10 O25 1.202 . S
C11 C9 1.363 . S
C11 C13 1.408 . S
C11 C16 1.342 . S
C12 C13 1.310 . S
C12 C15 1.461 . S
C12 H32 0.932 . S
C13 C11 1.408 . S
C13 C12 1.310 . S
C13 H33 0.930 . S
C14 C15 1.474 . S
C14 C16 1.285 . S
C14 H34 0.929 1_554 S
C15 C12 1.461 . S
C15 C14 1.474 . S
C16 C11 1.342 . S
C16 C14 1.285 . S
C16 H35 0.930 1_554 S
C17 C20 1.424 . S
C17 C22 1.245 . S
C17 C23 1.428 . S
C18 C21 1.260 . S
C18 C22 1.477 . S
C18 H36 0.932 . S
C19 C20 1.384 . S
C19 C21 1.479 . S
C19 H37 0.929 . S
C20 C17 1.424 . S
C20 C19 1.384 . S
C20 H38 0.928 . S
C21 C18 1.260 . S
C21 C19 1.479 . S
C22 C17 1.245 . S
C22 C18 1.477 . S
C22 H39 0.932 . S
C23 U6 2.882 1_556 S
C23 C17 1.428 . S
C23 O26 1.301 . S
C23 O27 1.282 1_556 S
O24 U6 2.441 . S
O24 C10 1.249 . S
O25 U6 2.420 . S
O25 C10 1.202 . S
O26 U6 2.455 1_556 S
O26 C23 1.301 . S
O27 U6 2.449 . S
O27 C23 1.282 1_554 S
H28 C1 0.931 . S
H29 C3 0.929 . S
H30 C4 0.990 . S
H31 C5 0.931 . S
H32 C12 0.932 . S
H33 C13 0.930 . S
H34 C14 0.929 1_556 S
H35 C16 0.930 1_556 S
H36 C18 0.932 . S
H37 C19 0.929 . S
H38 C20 0.928 . S
H39 C22 0.932 . S
C40 C41 1.264 . S
C40 C45 1.479 . S
C40 C50 1.465 . S
C41 C40 1.264 . S
C41 C43 1.339 . S
C41 H68 0.931 . S
C42 C43 1.395 . S
C42 C44 1.320 . S
C43 C41 1.339 . S
C43 C42 1.395 . S
C43 H69 0.929 . S
C44 C42 1.320 . S
C44 C45 1.405 . S
C44 H70 0.930 . S
C45 C40 1.479 . S
C45 C44 1.405 . S
C45 H71 0.931 . S
U46 O47 2.454 1_554 S
U46 O48 2.458 . S
U46 C49 2.984 . S
U46 C50 2.847 1_554 S
U46 C63 2.882 . S
U46 O64 2.441 1_554 S
U46 O65 2.420 1_554 S
U46 O66 2.455 . S
U46 O67 2.449 . S
O47 U46 2.454 1_556 S
O47 C49 1.353 1_556 S
O48 U46 2.458 . S
O48 C49 1.286 . S
C49 U46 2.984 . S
C49 O47 1.353 1_554 S
C49 O48 1.286 . S
C49 C51 1.363 . S
C50 C40 1.465 . S
C50 U46 2.847 1_556 S
C50 O64 1.249 . S
C50 O65 1.202 . S
C51 C49 1.363 . S
C51 C53 1.408 1_554 S
C51 C56 1.342 . S
C52 C53 1.310 . S
C52 C55 1.461 1_556 S
C52 H72 0.932 . S
C53 C51 1.408 1_556 S
C53 C52 1.310 . S
C53 H73 0.930 . S
C54 C55 1.474 . S
C54 C56 1.285 . S
C54 H74 0.929 . S
C55 C52 1.461 1_554 S
C55 C54 1.474 . S
C56 C51 1.342 . S
C56 C54 1.285 . S
C56 H75 0.930 . S
C57 C60 1.424 . S
C57 C62 1.245 . S
C57 C63 1.428 . S
C58 C61 1.260 . S
C58 C62 1.477 . S
C58 H76 0.932 . S
C59 C60 1.384 . S
C59 C61 1.479 . S
C59 H77 0.929 . S
C60 C57 1.424 . S
C60 C59 1.384 . S
C60 H78 0.928 . S
C61 C58 1.260 . S
C61 C59 1.479 . S
C62 C57 1.245 . S
C62 C58 1.477 . S
C62 H79 0.932 . S
C63 U46 2.882 . S
C63 C57 1.428 . S
C63 O66 1.301 . S
C63 O67 1.282 . S
O64 U46 2.441 1_556 S
O64 C50 1.249 . S
O65 U46 2.420 1_556 S
O65 C50 1.202 . S
O66 U46 2.455 . S
O66 C63 1.301 . S
O67 U46 2.449 . S
O67 C63 1.282 . S
H68 C41 0.931 . S
H69 C43 0.929 . S
H70 C44 0.930 . S
H71 C45 0.931 . S
H72 C52 0.932 . S
H73 C53 0.930 . S
H74 C54 0.929 . S
H75 C56 0.930 . S
H76 C58 0.932 . S
H77 C59 0.929 . S
H78 C60 0.928 . S
H79 C62 0.932 . S
C80 C81 1.264 . S
C80 C85 1.479 . S
C80 C90 1.465 . S
C81 C80 1.264 . S
C81 C83 1.339 . S
C81 H108 0.931 . S
C82 C83 1.395 . S
C82 C84 1.320 . S
C83 C81 1.339 . S
C83 C82 1.395 . S
C83 H109 0.929 . S
C84 C82 1.320 . S
C84 C85 1.405 . S
C84 H110 0.930 . S
C85 C80 1.479 . S
C85 C84 1.405 . S
C85 H111 0.931 . S
U86 O87 2.454 . S
U86 O88 2.458 . S
U86 C89 2.984 . S
U86 C90 2.847 . S
U86 C103 2.882 1_554 S
U86 O104 2.441 . S
U86 O105 2.420 . S
U86 O106 2.455 1_554 S
U86 O107 2.449 . S
O87 U86 2.454 . S
O87 C89 1.353 . S
O88 U86 2.458 . S
O88 C89 1.286 . S
C89 U86 2.984 . S
C89 O87 1.353 . S
C89 O88 1.286 . S
C89 C91 1.363 . S
C90 C80 1.465 . S
C90 U86 2.847 . S
C90 O104 1.249 . S
C90 O105 1.202 . S
C91 C89 1.363 . S
C91 C93 1.408 . S
C91 C96 1.342 1_554 S
C92 C93 1.310 . S
C92 C95 1.461 . S
C92 H112 0.932 . S
C93 C91 1.408 . S
C93 C92 1.310 . S
C93 H113 0.930 . S
C94 C95 1.474 1_556 S
C94 C96 1.285 . S
C94 H114 0.929 . S
C95 C92 1.461 . S
C95 C94 1.474 1_554 S
C96 C91 1.342 1_556 S
C96 C94 1.285 . S
C96 H115 0.930 . S
C97 C100 1.424 . S
C97 C102 1.245 . S
C97 C103 1.428 . S
C98 C101 1.260 . S
C98 C102 1.477 . S
C98 H116 0.932 . S
C99 C100 1.384 . S
C99 C101 1.479 . S
C99 H117 0.929 . S
C100 C97 1.424 . S
C100 C99 1.384 . S
C100 H118 0.928 . S
C101 C98 1.260 . S
C101 C99 1.479 . S
C102 C97 1.245 . S
C102 C98 1.477 . S
C102 H119 0.932 . S
C103 U86 2.882 1_556 S
C103 C97 1.428 . S
C103 O106 1.301 . S
C103 O107 1.282 1_556 S
O104 U86 2.441 . S
O104 C90 1.249 . S
O105 U86 2.420 . S
O105 C90 1.202 . S
O106 U86 2.455 1_556 S
O106 C103 1.301 . S
O107 U86 2.449 . S
O107 C103 1.282 1_554 S
H108 C81 0.931 . S
H109 C83 0.929 . S
H110 C84 0.930 . S
H111 C85 0.931 . S
H112 C92 0.932 . S
H113 C93 0.930 . S
H114 C94 0.929 . S
H115 C96 0.930 . S
H116 C98 0.932 . S
H117 C99 0.929 . S
H118 C100 0.928 . S
H119 C102 0.932 . S
C120 C121 1.264 . S
C120 C125 1.479 . S
C120 C130 1.465 . S
C121 C120 1.264 . S
C121 C123 1.339 . S
C121 H148 0.931 . S
C122 C123 1.395 . S
C122 C124 1.320 . S
C123 C121 1.339 . S
C123 C122 1.395 . S
C123 H149 0.929 . S
C124 C122 1.320 . S
C124 C125 1.405 . S
C124 H150 0.930 . S
C125 C120 1.479 . S
C125 C124 1.405 . S
C125 H151 0.931 . S
U126 O127 2.454 1_554 S
U126 O128 2.458 . S
U126 C129 2.984 . S
U126 C130 2.847 1_554 S
U126 C143 2.882 . S
U126 O144 2.441 1_554 S
U126 O145 2.420 1_554 S
U126 O146 2.455 . S
U126 O147 2.449 . S
O127 U126 2.454 1_556 S
O127 C129 1.353 1_556 S
O128 U126 2.458 . S
O128 C129 1.286 . S
C129 U126 2.984 . S
C129 O127 1.353 1_554 S
C129 O128 1.286 . S
C129 C131 1.363 . S
C130 C120 1.465 . S
C130 U126 2.847 1_556 S
C130 O144 1.249 . S
C130 O145 1.202 . S
C131 C129 1.363 . S
C131 C133 1.408 1_554 S
C131 C136 1.342 . S
C132 C133 1.310 . S
C132 C135 1.461 1_556 S
C132 H152 0.932 . S
C133 C131 1.408 1_556 S
C133 C132 1.310 . S
C133 H153 0.930 . S
C134 C135 1.474 . S
C134 C136 1.285 . S
C134 H154 0.929 . S
C135 C132 1.461 1_554 S
C135 C134 1.474 . S
C136 C131 1.342 . S
C136 C134 1.285 . S
C136 H155 0.930 . S
C137 C140 1.424 . S
C137 C142 1.245 . S
C137 C143 1.428 . S
C138 C141 1.260 . S
C138 C142 1.477 . S
C138 H156 0.932 . S
C139 C140 1.384 . S
C139 C141 1.479 . S
C139 H157 0.929 . S
C140 C137 1.424 . S
C140 C139 1.384 . S
C140 H158 0.928 . S
C141 C138 1.260 . S
C141 C139 1.479 . S
C142 C137 1.245 . S
C142 C138 1.477 . S
C142 H159 0.932 . S
C143 U126 2.882 . S
C143 C137 1.428 . S
C143 O146 1.301 . S
C143 O147 1.282 . S
O144 U126 2.441 1_556 S
O144 C130 1.249 . S
O145 U126 2.420 1_556 S
O145 C130 1.202 . S
O146 U126 2.455 . S
O146 C143 1.301 . S
O147 U126 2.449 . S
O147 C143 1.282 . S
H148 C121 0.931 . S
H149 C123 0.929 . S
H150 C124 0.930 . S
H151 C125 0.931 . S
H152 C132 0.932 . S
H153 C133 0.930 . S
H154 C134 0.929 . S
H155 C136 0.930 . S
H156 C138 0.932 . S
H157 C139 0.929 . S
H158 C140 0.928 . S
H159 C142 0.932 . S
C160 C161 1.264 . S
C160 C165 1.479 . S
C160 C170 1.465 . S
C161 C160 1.264 . S
C161 C163 1.339 . S
C161 H188 0.931 . S
C162 C163 1.395 . S
C162 C164 1.320 . S
C163 C161 1.339 . S
C163 C162 1.395 . S
C163 H189 0.929 . S
C164 C162 1.320 . S
C164 C165 1.405 . S
C164 H190 0.930 . S
C165 C160 1.479 . S
C165 C164 1.405 . S
C165 H191 0.931 . S
U166 O167 2.454 1_554 S
U166 O168 2.458 . S
U166 C169 2.984 . S
U166 C170 2.847 1_554 S
U166 C183 2.882 . S
U166 O184 2.441 1_554 S
U166 O185 2.420 1_554 S
U166 O186 2.455 . S
U166 O187 2.449 . S
O167 U166 2.454 1_556 S
O167 C169 1.353 1_556 S
O168 U166 2.458 . S
O168 C169 1.286 . S
C169 U166 2.984 . S
C169 O167 1.353 1_554 S
C169 O168 1.286 . S
C169 C171 1.363 . S
C170 C160 1.465 . S
C170 U166 2.847 1_556 S
C170 O184 1.249 . S
C170 O185 1.202 . S
C171 C169 1.363 . S
C171 C173 1.408 1_554 S
C171 C176 1.342 . S
C172 C173 1.310 . S
C172 C175 1.461 1_556 S
C172 H192 0.932 . S
C173 C171 1.408 1_556 S
C173 C172 1.310 . S
C173 H193 0.930 . S
C174 C175 1.474 . S
C174 C176 1.285 . S
C174 H194 0.929 . S
C175 C172 1.461 1_554 S
C175 C174 1.474 . S
C176 C171 1.342 . S
C176 C174 1.285 . S
C176 H195 0.930 . S
C177 C180 1.424 . S
C177 C182 1.245 . S
C177 C183 1.428 . S
C178 C181 1.260 . S
C178 C182 1.477 . S
C178 H196 0.932 . S
C179 C180 1.384 . S
C179 C181 1.479 . S
C179 H197 0.929 . S
C180 C177 1.424 . S
C180 C179 1.384 . S
C180 H198 0.928 . S
C181 C178 1.260 . S
C181 C179 1.479 . S
C182 C177 1.245 . S
C182 C178 1.477 . S
C182 H199 0.932 . S
C183 U166 2.882 . S
C183 C177 1.428 . S
C183 O186 1.301 . S
C183 O187 1.282 . S
O184 U166 2.441 1_556 S
O184 C170 1.249 . S
O185 U166 2.420 1_556 S
O185 C170 1.202 . S
O186 U166 2.455 . S
O186 C183 1.301 . S
O187 U166 2.449 . S
O187 C183 1.282 . S
H188 C161 0.931 . S
H189 C163 0.929 . S
H190 C164 0.930 . S
H191 C165 0.931 . S
H192 C172 0.932 . S
H193 C173 0.930 . S
H194 C174 0.929 . S
H195 C176 0.930 . S
H196 C178 0.932 . S
H197 C179 0.929 . S
H198 C180 0.928 . S
H199 C182 0.932 . S
C200 C201 1.264 . S
C200 C205 1.479 . S
C200 C210 1.465 . S
C201 C200 1.264 . S
C201 C203 1.339 . S
C201 H228 0.931 . S
C202 C203 1.395 . S
C202 C204 1.320 . S
C203 C201 1.339 . S
C203 C202 1.395 . S
C203 H229 0.929 . S
C204 C202 1.320 . S
C204 C205 1.405 . S
C204 H230 0.930 . S
C205 C200 1.479 . S
C205 C204 1.405 . S
C205 H231 0.931 . S
U206 O207 2.454 . S
U206 O208 2.456 . S
U206 C209 2.984 . S
U206 C210 2.847 . S
U206 C223 2.882 1_554 S
U206 O224 2.441 . S
U206 O225 2.420 . S
U206 O226 2.455 1_554 S
U206 O227 2.449 1_554 S
O207 U206 2.454 . S
O207 C209 1.353 . S
O208 U206 2.456 . S
O208 C209 1.282 . S
C209 U206 2.984 . S
C209 O207 1.353 . S
C209 O208 1.282 . S
C209 C211 1.363 . S
C210 C200 1.465 . S
C210 U206 2.847 . S
C210 O224 1.249 . S
C210 O225 1.202 . S
C211 C209 1.363 . S
C211 C213 1.408 . S
C211 C216 1.342 1_554 S
C212 C213 1.310 . S
C212 C215 1.461 . S
C212 H232 0.932 . S
C213 C211 1.408 . S
C213 C212 1.310 . S
C213 H233 0.930 . S
C214 C215 1.474 1_556 S
C214 C216 1.285 . S
C214 H234 0.929 . S
C215 C212 1.461 . S
C215 C214 1.474 1_554 S
C216 C211 1.342 1_556 S
C216 C214 1.285 . S
C216 H235 0.930 . S
C217 C220 1.424 . S
C217 C222 1.245 . S
C217 C223 1.428 . S
C218 C221 1.260 . S
C218 C222 1.477 . S
C218 H236 0.932 . S
C219 C220 1.384 . S
C219 C221 1.479 . S
C219 H237 0.929 . S
C220 C217 1.424 . S
C220 C219 1.384 . S
C220 H238 0.928 . S
C221 C218 1.260 . S
C221 C219 1.479 . S
C222 C217 1.245 . S
C222 C218 1.477 . S
C222 H239 0.932 . S
C223 U206 2.882 1_556 S
C223 C217 1.428 . S
C223 O226 1.301 . S
C223 O227 1.282 . S
O224 U206 2.441 . S
O224 C210 1.249 . S
O225 U206 2.420 . S
O225 C210 1.202 . S
O226 U206 2.455 1_556 S
O226 C223 1.301 . S
O227 U206 2.449 1_556 S
O227 C223 1.282 . S
H228 C201 0.931 . S
H229 C203 0.929 . S
H230 C204 0.930 . S
H231 C205 0.931 . S
H232 C212 0.932 . S
H233 C213 0.930 . S
H234 C214 0.929 . S
H235 C216 0.930 . S
H236 C218 0.932 . S
H237 C219 0.929 . S
H238 C220 0.928 . S
H239 C222 0.932 . S
C240 C241 1.264 . S
C240 C245 1.479 . S
C240 C250 1.465 . S
C241 C240 1.264 . S
C241 C243 1.339 . S
C241 H268 0.931 . S
C242 C243 1.395 . S
C242 C244 1.320 . S
C243 C241 1.339 . S
C243 C242 1.395 . S
C243 H269 0.929 . S
C244 C242 1.320 . S
C244 C245 1.405 . S
C244 H270 0.930 . S
C245 C240 1.479 . S
C245 C244 1.405 . S
C245 H271 0.931 . S
U246 O247 2.454 . S
U246 O248 2.458 . S
U246 C249 2.984 . S
U246 C250 2.847 . S
U246 C263 2.882 . S
U246 O264 2.441 . S
U246 O265 2.420 . S
U246 O266 2.455 . S
U246 O267 2.449 . S
O247 U246 2.454 . S
O247 C249 1.353 . S
O248 U246 2.458 . S
O248 C249 1.286 . S
C249 U246 2.984 . S
C249 O247 1.353 . S
C249 O248 1.286 . S
C249 C251 1.363 . S
C250 C240 1.465 . S
C250 U246 2.847 . S
C250 O264 1.249 . S
C250 O265 1.202 . S
C251 C249 1.363 . S
C251 C253 1.408 . S
C251 C256 1.342 . S
C252 C253 1.310 . S
C252 C255 1.461 . S
C252 H272 0.932 . S
C253 C251 1.408 . S
C253 C252 1.310 . S
C253 H273 0.930 . S
C254 C255 1.474 . S
C254 C256 1.285 . S
C254 H274 0.929 . S
C255 C252 1.461 . S
C255 C254 1.474 . S
C256 C251 1.342 . S
C256 C254 1.285 . S
C256 H275 0.930 . S
C257 C260 1.424 . S
C257 C262 1.245 . S
C257 C263 1.428 . S
C258 C261 1.260 . S
C258 C262 1.477 . S
C258 H276 0.932 . S
C259 C260 1.384 . S
C259 C261 1.479 . S
C259 H277 0.929 . S
C260 C257 1.424 . S
C260 C259 1.384 . S
C260 H278 0.928 . S
C261 C258 1.260 . S
C261 C259 1.479 . S
C262 C257 1.245 . S
C262 C258 1.477 . S
C262 H279 0.932 . S
C263 U246 2.882 . S
C263 C257 1.428 . S
C263 O266 1.301 . S
C263 O267 1.282 . S
O264 U246 2.441 . S
O264 C250 1.249 . S
O265 U246 2.420 . S
O265 C250 1.202 . S
O266 U246 2.455 . S
O266 C263 1.301 . S
O267 U246 2.449 . S
O267 C263 1.282 . S
H268 C241 0.931 . S
H269 C243 0.929 . S
H270 C244 0.930 . S
H271 C245 0.931 . S
H272 C252 0.932 . S
H273 C253 0.930 . S
H274 C254 0.929 . S
H275 C256 0.930 . S
H276 C258 0.932 . S
H277 C259 0.929 . S
H278 C260 0.928 . S
H279 C262 0.932 . S
C280 C281 1.264 . S
C280 C285 1.479 . S
C280 C290 1.465 . S
C281 C280 1.264 . S
C281 C283 1.339 . S
C281 H308 0.931 . S
C282 C283 1.395 . S
C282 C284 1.320 . S
C283 C281 1.339 . S
C283 C282 1.395 . S
C283 H309 0.929 . S
C284 C282 1.320 . S
C284 C285 1.405 . S
C284 H310 0.930 . S
C285 C280 1.479 . S
C285 C284 1.405 . S
C285 H311 0.931 . S
U286 O287 2.454 . S
U286 O288 2.458 . S
U286 C289 2.984 . S
U286 C290 2.847 . S
U286 C303 2.882 . S
U286 O304 2.441 . S
U286 O305 2.420 . S
U286 O306 2.455 . S
U286 O307 2.449 . S
O287 U286 2.454 . S
O287 C289 1.353 . S
O288 U286 2.458 . S
O288 C289 1.286 . S
C289 U286 2.984 . S
C289 O287 1.353 . S
C289 O288 1.286 . S
C289 C291 1.363 . S
C290 C280 1.465 . S
C290 U286 2.847 . S
C290 O304 1.249 . S
C290 O305 1.202 . S
C291 C289 1.363 . S
C291 C293 1.408 . S
C291 C296 1.342 . S
C292 C293 1.310 . S
C292 C295 1.461 . S
C292 H312 0.932 . S
C293 C291 1.408 . S
C293 C292 1.310 . S
C293 H313 0.930 . S
C294 C295 1.474 . S
C294 C296 1.285 . S
C294 H314 0.929 . S
C295 C292 1.461 . S
C295 C294 1.474 . S
C296 C291 1.342 . S
C296 C294 1.285 . S
C296 H315 0.930 . S
C297 C300 1.424 . S
C297 C302 1.245 . S
C297 C303 1.428 . S
C298 C301 1.260 . S
C298 C302 1.477 . S
C298 H316 0.932 . S
C299 C300 1.384 . S
C299 C301 1.479 . S
C299 H317 0.929 . S
C300 C297 1.424 . S
C300 C299 1.384 . S
C300 H318 0.928 . S
C301 C298 1.260 . S
C301 C299 1.479 . S
C302 C297 1.245 . S
C302 C298 1.477 . S
C302 H319 0.932 . S
C303 U286 2.882 . S
C303 C297 1.428 . S
C303 O306 1.301 . S
C303 O307 1.282 . S
O304 U286 2.441 . S
O304 C290 1.249 . S
O305 U286 2.420 . S
O305 C290 1.202 . S
O306 U286 2.455 . S
O306 C303 1.301 . S
O307 U286 2.449 . S
O307 C303 1.282 . S
H308 C281 0.931 . S
H309 C283 0.929 . S
H310 C284 0.930 . S
H311 C285 0.931 . S
H312 C292 0.932 . S
H313 C293 0.930 . S
H314 C294 0.929 . S
H315 C296 0.930 . S
H316 C298 0.932 . S
H317 C299 0.929 . S
H318 C300 0.928 . S
H319 C302 0.932 . S
C320 C321 1.264 . S
C320 C325 1.479 . S
C320 C330 1.465 . S
C321 C320 1.264 . S
C321 C323 1.339 . S
C321 H348 0.931 . S
C322 C323 1.395 . S
C322 C324 1.320 . S
C323 C321 1.339 . S
C323 C322 1.395 . S
C323 H349 0.929 . S
C324 C322 1.320 . S
C324 C325 1.405 . S
C324 H350 0.930 . S
C325 C320 1.479 . S
C325 C324 1.405 . S
C325 H351 0.931 . S
U326 O327 2.454 . S
U326 O328 2.458 . S
U326 C329 2.984 . S
U326 C330 2.847 . S
U326 C343 2.882 . S
U326 O344 2.441 . S
U326 O345 2.420 . S
U326 O346 2.455 . S
U326 O347 2.449 . S
O327 U326 2.454 . S
O327 C329 1.353 . S
O328 U326 2.458 . S
O328 C329 1.286 . S
C329 U326 2.984 . S
C329 O327 1.353 . S
C329 O328 1.286 . S
C329 C331 1.363 . S
C330 C320 1.465 . S
C330 U326 2.847 . S
C330 O344 1.249 . S
C330 O345 1.202 . S
C331 C329 1.363 . S
C331 C333 1.408 . S
C331 C336 1.342 . S
C332 C333 1.310 . S
C332 C335 1.461 . S
C332 H352 0.932 . S
C333 C331 1.408 . S
C333 C332 1.310 . S
C333 H353 0.930 . S
C334 C335 1.474 . S
C334 C336 1.285 . S
C334 H354 0.929 . S
C335 C332 1.461 . S
C335 C334 1.474 . S
C336 C331 1.342 . S
C336 C334 1.285 . S
C336 H355 0.930 . S
C337 C340 1.424 . S
C337 C342 1.245 . S
C337 C343 1.428 . S
C338 C341 1.260 . S
C338 C342 1.477 . S
C338 H356 0.932 . S
C339 C340 1.384 . S
C339 C341 1.479 . S
C339 H357 0.929 . S
C340 C337 1.424 . S
C340 C339 1.384 . S
C340 H358 0.928 . S
C341 C338 1.260 . S
C341 C339 1.479 . S
C342 C337 1.245 . S
C342 C338 1.477 . S
C342 H359 0.932 . S
C343 U326 2.882 . S
C343 C337 1.428 . S
C343 O346 1.301 . S
C343 O347 1.282 . S
O344 U326 2.441 . S
O344 C330 1.249 . S
O345 U326 2.420 . S
O345 C330 1.202 . S
O346 U326 2.455 . S
O346 C343 1.301 . S
O347 U326 2.449 . S
O347 C343 1.282 . S
H348 C321 0.931 . S
H349 C323 0.929 . S
H350 C324 0.930 . S
H351 C325 0.931 . S
H352 C332 0.932 . S
H353 C333 0.930 . S
H354 C334 0.929 . S
H355 C336 0.930 . S
H356 C338 0.932 . S
H357 C339 0.929 . S
H358 C340 0.928 . S
H359 C342 0.932 . S
C360 C361 1.264 . S
C360 C365 1.479 . S
C360 C370 1.465 . S
C361 C360 1.264 . S
C361 C363 1.339 . S
C361 H388 0.931 . S
C362 C363 1.395 . S
C362 C364 1.320 . S
C363 C361 1.339 . S
C363 C362 1.395 . S
C363 H389 0.929 . S
C364 C362 1.320 . S
C364 C365 1.405 . S
C364 H390 0.930 . S
C365 C360 1.479 . S
C365 C364 1.405 . S
C365 H391 0.931 . S
U366 O367 2.454 . S
U366 O368 2.458 . S
U366 C369 2.984 . S
U366 C370 2.847 . S
U366 C383 2.882 . S
U366 O384 2.441 . S
U366 O385 2.420 . S
U366 O386 2.455 . S
U366 O387 2.449 . S
O367 U366 2.454 . S
O367 C369 1.353 . S
O368 U366 2.458 . S
O368 C369 1.286 . S
C369 U366 2.984 . S
C369 O367 1.353 . S
C369 O368 1.286 . S
C369 C371 1.363 . S
C370 C360 1.465 . S
C370 U366 2.847 . S
C370 O384 1.249 . S
C370 O385 1.202 . S
C371 C369 1.363 . S
C371 C373 1.408 . S
C371 C376 1.342 . S
C372 C373 1.310 . S
C372 C375 1.461 . S
C372 H392 0.932 . S
C373 C371 1.408 . S
C373 C372 1.310 . S
C373 H393 0.930 . S
C374 C375 1.474 . S
C374 C376 1.285 . S
C374 H394 0.929 . S
C375 C372 1.461 . S
C375 C374 1.474 . S
C376 C371 1.342 . S
C376 C374 1.285 . S
C376 H395 0.930 . S
C377 C380 1.424 . S
C377 C382 1.245 . S
C377 C383 1.428 . S
C378 C381 1.260 . S
C378 C382 1.477 . S
C378 H396 0.932 . S
C379 C380 1.384 . S
C379 C381 1.479 . S
C379 H397 0.929 . S
C380 C377 1.424 . S
C380 C379 1.384 . S
C380 H398 0.928 . S
C381 C378 1.260 . S
C381 C379 1.479 . S
C382 C377 1.245 . S
C382 C378 1.477 . S
C382 H399 0.932 . S
C383 U366 2.882 . S
C383 C377 1.428 . S
C383 O386 1.301 . S
C383 O387 1.282 . S
O384 U366 2.441 . S
O384 C370 1.249 . S
O385 U366 2.420 . S
O385 C370 1.202 . S
O386 U366 2.455 . S
O386 C383 1.301 . S
O387 U366 2.449 . S
O387 C383 1.282 . S
H388 C361 0.931 . S
H389 C363 0.929 . S
H390 C364 0.930 . S
H391 C365 0.931 . S
H392 C372 0.932 . S
H393 C373 0.930 . S
H394 C374 0.929 . S
H395 C376 0.930 . S
H396 C378 0.932 . S
H397 C379 0.929 . S
H398 C380 0.928 . S
H399 C382 0.932 . S
C400 C401 1.264 . S
C400 C405 1.479 . S
C400 C410 1.465 . S
C401 C400 1.264 . S
C401 C403 1.339 . S
C401 H428 0.931 . S
C402 C403 1.395 . S
C402 C404 1.320 . S
C403 C401 1.339 . S
C403 C402 1.395 . S
C403 H429 0.929 . S
C404 C402 1.320 . S
C404 C405 1.405 . S
C404 H430 0.930 . S
C405 C400 1.479 . S
C405 C404 1.405 . S
C405 H431 0.931 . S
U406 O407 2.454 . S
U406 O408 2.458 . S
U406 C409 2.984 . S
U406 C410 2.847 . S
U406 C423 2.882 . S
U406 O424 2.441 . S
U406 O425 2.420 . S
U406 O426 2.455 . S
U406 O427 2.449 . S
O407 U406 2.454 . S
O407 C409 1.353 . S
O408 U406 2.458 . S
O408 C409 1.286 . S
C409 U406 2.984 . S
C409 O407 1.353 . S
C409 O408 1.286 . S
C409 C411 1.363 . S
C410 C400 1.465 . S
C410 U406 2.847 . S
C410 O424 1.249 . S
C410 O425 1.202 . S
C411 C409 1.363 . S
C411 C413 1.408 . S
C411 C416 1.342 . S
C412 C413 1.310 . S
C412 C415 1.461 . S
C412 H432 0.932 . S
C413 C411 1.408 . S
C413 C412 1.310 . S
C413 H433 0.930 . S
C414 C415 1.474 . S
C414 C416 1.285 . S
C414 H434 0.929 . S
C415 C412 1.461 . S
C415 C414 1.474 . S
C416 C411 1.342 . S
C416 C414 1.285 . S
C416 H435 0.930 . S
C417 C420 1.424 . S
C417 C422 1.245 . S
C417 C423 1.428 . S
C418 C421 1.260 . S
C418 C422 1.477 . S
C418 H436 0.932 . S
C419 C420 1.384 . S
C419 C421 1.479 . S
C419 H437 0.929 . S
C420 C417 1.424 . S
C420 C419 1.384 . S
C420 H438 0.928 . S
C421 C418 1.260 . S
C421 C419 1.479 . S
C422 C417 1.245 . S
C422 C418 1.477 . S
C422 H439 0.932 . S
C423 U406 2.882 . S
C423 C417 1.428 . S
C423 O426 1.301 . S
C423 O427 1.282 . S
O424 U406 2.441 . S
O424 C410 1.249 . S
O425 U406 2.420 . S
O425 C410 1.202 . S
O426 U406 2.455 . S
O426 C423 1.301 . S
O427 U406 2.449 . S
O427 C423 1.282 . S
H428 C401 0.931 . S
H429 C403 0.929 . S
H430 C404 0.930 . S
H431 C405 0.931 . S
H432 C412 0.932 . S
H433 C413 0.930 . S
H434 C414 0.929 . S
H435 C416 0.930 . S
H436 C418 0.932 . S
H437 C419 0.929 . S
H438 C420 0.928 . S
H439 C422 0.932 . S
C440 C441 1.264 . S
C440 C445 1.479 . S
C440 C450 1.465 . S
C441 C440 1.264 . S
C441 C443 1.339 . S
C441 H468 0.931 . S
C442 C443 1.395 . S
C442 C444 1.320 . S
C443 C441 1.339 . S
C443 C442 1.395 . S
C443 H469 0.929 . S
C444 C442 1.320 . S
C444 C445 1.405 . S
C444 H470 0.930 . S
C445 C440 1.479 . S
C445 C444 1.405 . S
C445 H471 0.931 . S
U446 O447 2.454 . S
U446 O448 2.458 . S
U446 C449 2.984 . S
U446 C450 2.847 . S
U446 C463 2.882 . S
U446 O464 2.441 . S
U446 O465 2.420 . S
U446 O466 2.455 . S
U446 O467 2.449 . S
O447 U446 2.454 . S
O447 C449 1.353 . S
O448 U446 2.458 . S
O448 C449 1.286 . S
C449 U446 2.984 . S
C449 O447 1.353 . S
C449 O448 1.286 . S
C449 C451 1.363 . S
C450 C440 1.465 . S
C450 U446 2.847 . S
C450 O464 1.249 . S
C450 O465 1.202 . S
C451 C449 1.363 . S
C451 C453 1.408 . S
C451 C456 1.342 . S
C452 C453 1.310 . S
C452 C455 1.461 . S
C452 H472 0.932 . S
C453 C451 1.408 . S
C453 C452 1.310 . S
C453 H473 0.930 . S
C454 C455 1.474 . S
C454 C456 1.285 . S
C454 H474 0.929 . S
C455 C452 1.461 . S
C455 C454 1.474 . S
C456 C451 1.342 . S
C456 C454 1.285 . S
C456 H475 0.930 . S
C457 C460 1.424 . S
C457 C462 1.245 . S
C457 C463 1.428 . S
C458 C461 1.260 . S
C458 C462 1.477 . S
C458 H476 0.932 . S
C459 C460 1.384 . S
C459 C461 1.479 . S
C459 H477 0.929 . S
C460 C457 1.424 . S
C460 C459 1.384 . S
C460 H478 0.928 . S
C461 C458 1.260 . S
C461 C459 1.479 . S
C462 C457 1.245 . S
C462 C458 1.477 . S
C462 H479 0.932 . S
C463 U446 2.882 . S
C463 C457 1.428 . S
C463 O466 1.301 . S
C463 O467 1.282 . S
O464 U446 2.441 . S
O464 C450 1.249 . S
O465 U446 2.420 . S
O465 C450 1.202 . S
O466 U446 2.455 . S
O466 C463 1.301 . S
O467 U446 2.449 . S
O467 C463 1.282 . S
H468 C441 0.931 . S
H469 C443 0.929 . S
H470 C444 0.930 . S
H471 C445 0.931 . S
H472 C452 0.932 . S
H473 C453 0.930 . S
H474 C454 0.929 . S
H475 C456 0.930 . S
H476 C458 0.932 . S
H477 C459 0.929 . S
H478 C460 0.928 . S
H479 C462 0.932 . S
C480 C481 1.264 . S
C480 C485 1.479 . S
C480 C490 1.465 . S
C481 C480 1.264 . S
C481 C483 1.339 . S
C481 H508 0.931 . S
C482 C483 1.395 . S
C482 C484 1.320 . S
C483 C481 1.339 . S
C483 C482 1.395 . S
C483 H509 0.929 . S
C484 C482 1.320 . S
C484 C485 1.405 . S
C484 H510 0.930 . S
C485 C480 1.479 . S
C485 C484 1.405 . S
C485 H511 0.931 . S
U486 O487 2.454 . S
U486 O488 2.458 . S
U486 C489 2.984 . S
U486 C490 2.847 . S
U486 C503 2.882 . S
U486 O504 2.441 . S
U486 O505 2.420 . S
U486 O506 2.455 . S
U486 O507 2.449 . S
O487 U486 2.454 . S
O487 C489 1.353 . S
O488 U486 2.458 . S
O488 C489 1.286 . S
C489 U486 2.984 . S
C489 O487 1.353 . S
C489 O488 1.286 . S
C489 C491 1.363 . S
C490 C480 1.465 . S
C490 U486 2.847 . S
C490 O504 1.249 . S
C490 O505 1.202 . S
C491 C489 1.363 . S
C491 C493 1.408 . S
C491 C496 1.342 . S
C492 C493 1.310 . S
C492 C495 1.461 . S
C492 H512 0.932 . S
C493 C491 1.408 . S
C493 C492 1.310 . S
C493 H513 0.930 . S
C494 C495 1.474 . S
C494 C496 1.285 . S
C494 H514 0.929 . S
C495 C492 1.461 . S
C495 C494 1.474 . S
C496 C491 1.342 . S
C496 C494 1.285 . S
C496 H515 0.930 . S
C497 C500 1.424 . S
C497 C502 1.245 . S
C497 C503 1.428 . S
C498 C501 1.260 . S
C498 C502 1.477 . S
C498 H516 0.932 . S
C499 C500 1.384 . S
C499 C501 1.479 . S
C499 H517 0.929 . S
C500 C497 1.424 . S
C500 C499 1.384 . S
C500 H518 0.928 . S
C501 C498 1.260 . S
C501 C499 1.479 . S
C502 C497 1.245 . S
C502 C498 1.477 . S
C502 H519 0.932 . S
C503 U486 2.882 . S
C503 C497 1.428 . S
C503 O506 1.301 . S
C503 O507 1.282 . S
O504 U486 2.441 . S
O504 C490 1.249 . S
O505 U486 2.420 . S
O505 C490 1.202 . S
O506 U486 2.455 . S
O506 C503 1.301 . S
O507 U486 2.449 . S
O507 C503 1.282 . S
H508 C481 0.931 . S
H509 C483 0.929 . S
H510 C484 0.930 . S
H511 C485 0.931 . S
H512 C492 0.932 . S
H513 C493 0.930 . S
H514 C494 0.929 . S
H515 C496 0.930 . S
H516 C498 0.932 . S
H517 C499 0.929 . S
H518 C500 0.928 . S
H519 C502 0.932 . S
C520 C521 1.264 . S
C520 C525 1.479 . S
C520 C530 1.465 . S
C521 C520 1.264 . S
C521 C523 1.339 . S
C521 H548 0.931 . S
C522 C523 1.395 . S
C522 C524 1.320 . S
C523 C521 1.339 . S
C523 C522 1.395 . S
C523 H549 0.929 . S
C524 C522 1.320 . S
C524 C525 1.405 . S
C524 H550 0.930 . S
C525 C520 1.479 . S
C525 C524 1.405 . S
C525 H551 0.931 . S
U526 O527 2.454 . S
U526 O528 2.458 . S
U526 C529 2.984 . S
U526 C530 2.847 . S
U526 C543 2.882 . S
U526 O544 2.441 . S
U526 O545 2.420 . S
U526 O546 2.455 . S
U526 O547 2.449 . S
O527 U526 2.454 . S
O527 C529 1.353 . S
O528 U526 2.458 . S
O528 C529 1.286 . S
C529 U526 2.984 . S
C529 O527 1.353 . S
C529 O528 1.286 . S
C529 C531 1.363 . S
C530 C520 1.465 . S
C530 U526 2.847 . S
C530 O544 1.249 . S
C530 O545 1.202 . S
C531 C529 1.363 . S
C531 C533 1.408 . S
C531 C536 1.342 . S
C532 C533 1.310 . S
C532 C535 1.461 . S
C532 H552 0.932 . S
C533 C531 1.408 . S
C533 C532 1.310 . S
C533 H553 0.930 . S
C534 C535 1.474 . S
C534 C536 1.285 . S
C534 H554 0.929 . S
C535 C532 1.461 . S
C535 C534 1.474 . S
C536 C531 1.342 . S
C536 C534 1.285 . S
C536 H555 0.930 . S
C537 C540 1.424 . S
C537 C542 1.245 . S
C537 C543 1.428 . S
C538 C541 1.260 . S
C538 C542 1.477 . S
C538 H556 0.932 . S
C539 C540 1.384 . S
C539 C541 1.479 . S
C539 H557 0.929 . S
C540 C537 1.424 . S
C540 C539 1.384 . S
C540 H558 0.928 . S
C541 C538 1.260 . S
C541 C539 1.479 . S
C542 C537 1.245 . S
C542 C538 1.477 . S
C542 H559 0.932 . S
C543 U526 2.882 . S
C543 C537 1.428 . S
C543 O546 1.301 . S
C543 O547 1.282 . S
O544 U526 2.441 . S
O544 C530 1.249 . S
O545 U526 2.420 . S
O545 C530 1.202 . S
O546 U526 2.455 . S
O546 C543 1.301 . S
O547 U526 2.449 . S
O547 C543 1.282 . S
H548 C521 0.931 . S
H549 C523 0.929 . S
H550 C524 0.930 . S
H551 C525 0.931 . S
H552 C532 0.932 . S
H553 C533 0.930 . S
H554 C534 0.929 . S
H555 C536 0.930 . S
H556 C538 0.932 . S
H557 C539 0.929 . S
H558 C540 0.928 . S
H559 C542 0.932 . S
C560 C561 1.264 . S
C560 C565 1.479 . S
C560 C570 1.465 . S
C561 C560 1.264 . S
C561 C563 1.339 . S
C561 H588 0.931 . S
C562 C563 1.395 . S
C562 C564 1.320 . S
C563 C561 1.339 . S
C563 C562 1.395 . S
C563 H589 0.929 . S
C564 C562 1.320 . S
C564 C565 1.405 . S
C564 H590 0.930 . S
C565 C560 1.479 . S
C565 C564 1.405 . S
C565 H591 0.931 1_455 S
U566 O567 2.454 1_455 S
U566 O568 2.458 1_455 S
U566 C569 2.984 1_455 S
U566 C570 2.847 . S
U566 C583 2.882 . S
U566 O584 2.406 1_455 S
U566 O585 2.420 . S
U566 O586 2.455 . S
U566 O587 2.449 . S
O567 U566 2.454 1_655 S
O567 C569 1.353 . S
O568 U566 2.458 1_655 S
O568 C569 1.286 . S
C569 U566 2.984 1_655 S
C569 O567 1.353 . S
C569 O568 1.286 . S
C569 C571 1.363 . S
C570 C560 1.465 . S
C570 U566 2.847 . S
C570 O584 1.179 1_455 S
C570 O585 1.202 . S
C571 C569 1.363 . S
C571 C573 1.408 . S
C571 C576 1.342 . S
C572 C573 1.310 . S
C572 C575 1.461 . S
C572 H592 0.932 . S
C573 C571 1.408 . S
C573 C572 1.310 . S
C573 H593 0.930 . S
C574 C575 1.474 . S
C574 C576 1.285 . S
C574 H594 0.929 . S
C575 C572 1.461 . S
C575 C574 1.474 . S
C576 C571 1.342 . S
C576 C574 1.285 . S
C576 H595 0.930 . S
C577 C580 1.424 . S
C577 C582 1.245 . S
C577 C583 1.428 . S
C578 C581 1.260 . S
C578 C582 1.477 . S
C578 H596 0.932 . S
C579 C580 1.384 . S
C579 C581 1.479 . S
C579 H597 0.929 . S
C580 C577 1.424 . S
C580 C579 1.384 . S
C580 H598 0.928 . S
C581 C578 1.260 . S
C581 C579 1.479 . S
C582 C577 1.245 . S
C582 C578 1.477 . S
C582 H599 0.932 . S
C583 U566 2.882 . S
C583 C577 1.428 . S
C583 O586 1.301 . S
C583 O587 1.282 . S
O584 U566 2.406 1_655 S
O584 C570 1.179 1_655 S
O585 U566 2.420 . S
O585 C570 1.202 . S
O586 U566 2.455 . S
O586 C583 1.301 . S
O587 U566 2.449 . S
O587 C583 1.282 . S
H588 C561 0.931 . S
H589 C563 0.929 . S
H590 C564 0.930 . S
H591 C565 0.931 1_655 S
H592 C572 0.932 . S
H593 C573 0.930 . S
H594 C574 0.929 . S
H595 C576 0.930 . S
H596 C578 0.932 . S
H597 C579 0.929 . S
H598 C580 0.928 . S
H599 C582 0.932 . S
C600 C601 1.264 . S
C600 C605 1.479 . S
C600 C610 1.465 . S
C601 C600 1.264 . S
C601 C603 1.339 . S
C601 H628 0.931 . S
C602 C603 1.395 . S
C602 C604 1.320 . S
C603 C601 1.339 . S
C603 C602 1.395 . S
C603 H629 0.929 . S
C604 C602 1.320 . S
C604 C605 1.405 . S
C604 H630 0.930 . S
C605 C600 1.479 . S
C605 C604 1.405 . S
C605 H631 0.931 . S
U606 O607 2.454 1_455 S
U606 O608 2.458 1_455 S
U606 C609 2.984 1_455 S
U606 C610 2.847 . S
U606 C623 2.882 . S
U606 O624 2.441 . S
U606 O625 2.420 . S
U606 O626 2.455 1_455 S
U606 O627 2.449 . S
O607 U606 2.454 1_655 S
O607 C609 1.353 . S
O608 U606 2.458 1_655 S
O608 C609 1.286 . S
C609 U606 2.984 1_655 S
C609 O607 1.353 . S
C609 O608 1.286 . S
C609 C611 1.363 . S
C610 C600 1.465 . S
C610 U606 2.847 . S
C610 O624 1.249 . S
C610 O625 1.202 . S
C611 C609 1.363 . S
C611 C613 1.408 . S
C611 C616 1.342 . S
C612 C613 1.310 . S
C612 C615 1.461 . S
C612 H632 0.932 . S
C613 C611 1.408 . S
C613 C612 1.310 . S
C613 H633 0.930 . S
C614 C615 1.474 . S
C614 C616 1.285 . S
C614 H634 0.929 . S
C615 C612 1.461 . S
C615 C614 1.474 . S
C616 C611 1.342 . S
C616 C614 1.285 . S
C616 H635 0.930 . S
C617 C620 1.424 . S
C617 C622 1.245 . S
C617 C623 1.428 . S
C618 C621 1.260 . S
C618 C622 1.477 . S
C618 H636 0.932 . S
C619 C620 1.384 . S
C619 C621 1.479 . S
C619 H637 0.929 . S
C620 C617 1.424 . S
C620 C619 1.384 . S
C620 H638 0.928 . S
C621 C618 1.260 . S
C621 C619 1.479 . S
C622 C617 1.245 . S
C622 C618 1.477 . S
C622 H639 0.932 1_455 S
C623 U606 2.882 . S
C623 C617 1.428 . S
C623 O626 1.299 1_455 S
C623 O627 1.282 . S
O624 U606 2.441 . S
O624 C610 1.249 . S
O625 U606 2.420 . S
O625 C610 1.202 . S
O626 U606 2.455 1_655 S
O626 C623 1.299 1_655 S
O627 U606 2.449 . S
O627 C623 1.282 . S
H628 C601 0.931 . S
H629 C603 0.929 . S
H630 C604 0.930 . S
H631 C605 0.931 . S
H632 C612 0.932 . S
H633 C613 0.930 . S
H634 C614 0.929 . S
H635 C616 0.930 . S
H636 C618 0.932 . S
H637 C619 0.929 . S
H638 C620 0.928 . S
H639 C622 0.932 1_655 S
C640 C641 1.264 . S
C640 C645 1.479 . S
C640 C650 1.465 . S
C641 C640 1.264 . S
C641 C643 1.339 . S
C641 H668 0.931 . S
C642 C643 1.395 . S
C642 C644 1.320 . S
C643 C641 1.339 . S
C643 C642 1.395 . S
C643 H669 0.929 . S
C644 C642 1.320 . S
C644 C645 1.405 . S
C644 H670 0.930 . S
C645 C640 1.479 . S
C645 C644 1.405 . S
C645 H671 0.931 . S
U646 O647 2.454 . S
U646 O648 2.458 . S
U646 C649 2.984 . S
U646 C650 2.847 . S
U646 C663 2.882 . S
U646 O664 2.441 . S
U646 O665 2.420 . S
U646 O666 2.455 . S
U646 O667 2.449 . S
O647 U646 2.454 . S
O647 C649 1.353 . S
O648 U646 2.458 . S
O648 C649 1.286 . S
C649 U646 2.984 . S
C649 O647 1.353 . S
C649 O648 1.286 . S
C649 C651 1.363 . S
C650 C640 1.465 . S
C650 U646 2.847 . S
C650 O664 1.249 . S
C650 O665 1.202 . S
C651 C649 1.363 . S
C651 C653 1.408 . S
C651 C656 1.342 . S
C652 C653 1.310 . S
C652 C655 1.461 . S
C652 H672 0.932 . S
C653 C651 1.408 . S
C653 C652 1.310 . S
C653 H673 0.930 . S
C654 C655 1.474 . S
C654 C656 1.285 . S
C654 H674 0.929 . S
C655 C652 1.461 . S
C655 C654 1.474 . S
C656 C651 1.342 . S
C656 C654 1.285 . S
C656 H675 0.930 . S
C657 C660 1.424 . S
C657 C662 1.245 . S
C657 C663 1.428 . S
C658 C661 1.260 . S
C658 C662 1.477 . S
C658 H676 0.932 . S
C659 C660 1.384 . S
C659 C661 1.479 . S
C659 H677 0.929 . S
C660 C657 1.424 . S
C660 C659 1.384 . S
C660 H678 0.928 . S
C661 C658 1.260 . S
C661 C659 1.479 . S
C662 C657 1.245 . S
C662 C658 1.477 . S
C662 H679 0.932 . S
C663 U646 2.882 . S
C663 C657 1.428 . S
C663 O666 1.301 . S
C663 O667 1.282 . S
O664 U646 2.441 . S
O664 C650 1.249 . S
O665 U646 2.420 . S
O665 C650 1.202 . S
O666 U646 2.455 . S
O666 C663 1.301 . S
O667 U646 2.449 . S
O667 C663 1.282 . S
H668 C641 0.931 . S
H669 C643 0.929 . S
H670 C644 0.930 . S
H671 C645 0.931 . S
H672 C652 0.932 . S
H673 C653 0.930 . S
H674 C654 0.929 . S
H675 C656 0.930 . S
H676 C658 0.932 . S
H677 C659 0.929 . S
H678 C660 0.928 . S
H679 C662 0.932 . S
C680 C681 1.264 . S
C680 C685 1.479 . S
C680 C690 1.465 . S
C681 C680 1.264 . S
C681 C683 1.339 . S
C681 H708 0.931 . S
C682 C683 1.395 . S
C682 C684 1.320 . S
C683 C681 1.339 . S
C683 C682 1.395 . S
C683 H709 0.929 . S
C684 C682 1.320 . S
C684 C685 1.405 . S
C684 H710 0.930 . S
C685 C680 1.479 . S
C685 C684 1.405 . S
C685 H711 0.931 . S
U686 O687 2.454 . S
U686 O688 2.458 . S
U686 C689 2.984 . S
U686 C690 2.847 . S
U686 C703 2.882 . S
U686 O704 2.441 . S
U686 O705 2.420 . S
U686 O706 2.455 . S
U686 O707 2.449 . S
O687 U686 2.454 . S
O687 C689 1.353 . S
O688 U686 2.458 . S
O688 C689 1.286 . S
C689 U686 2.984 . S
C689 O687 1.353 . S
C689 O688 1.286 . S
C689 C691 1.363 . S
C690 C680 1.465 . S
C690 U686 2.847 . S
C690 O704 1.249 . S
C690 O705 1.202 . S
C691 C689 1.363 . S
C691 C693 1.408 . S
C691 C696 1.342 . S
C692 C693 1.310 . S
C692 C695 1.461 . S
C692 H712 0.932 . S
C693 C691 1.408 . S
C693 C692 1.310 . S
C693 H713 0.930 . S
C694 C695 1.474 . S
C694 C696 1.285 . S
C694 H714 0.929 . S
C695 C692 1.461 . S
C695 C694 1.474 . S
C696 C691 1.342 . S
C696 C694 1.285 . S
C696 H715 0.930 . S
C697 C700 1.424 . S
C697 C702 1.245 . S
C697 C703 1.428 . S
C698 C701 1.260 . S
C698 C702 1.477 . S
C698 H716 0.932 . S
C699 C700 1.384 . S
C699 C701 1.479 . S
C699 H717 0.929 . S
C700 C697 1.424 . S
C700 C699 1.384 . S
C700 H718 0.928 . S
C701 C698 1.260 . S
C701 C699 1.479 . S
C702 C697 1.245 . S
C702 C698 1.477 . S
C702 H719 0.932 . S
C703 U686 2.882 . S
C703 C697 1.428 . S
C703 O706 1.301 . S
C703 O707 1.282 . S
O704 U686 2.441 . S
O704 C690 1.249 . S
O705 U686 2.420 . S
O705 C690 1.202 . S
O706 U686 2.455 . S
O706 C703 1.301 . S
O707 U686 2.449 . S
O707 C703 1.282 . S
H708 C681 0.931 . S
H709 C683 0.929 . S
H710 C684 0.930 . S
H711 C685 0.931 . S
H712 C692 0.932 . S
H713 C693 0.930 . S
H714 C694 0.929 . S
H715 C696 0.930 . S
H716 C698 0.932 . S
H717 C699 0.929 . S
H718 C700 0.928 . S
H719 C702 0.932 . S
H720 C728 0.929 . S
H721 C730 0.930 . S
H722 C732 0.930 . S
H723 C735 0.929 . S
H724 C738 0.930 . S
H725 C740 0.960 . S
H726 C740 0.960 . S
H727 C740 0.960 . S
C728 H720 0.929 . S
C728 C729 1.377 . S
C728 C730 1.384 . S
C729 C728 1.377 . S
C729 C735 1.390 . S
C730 H721 0.930 . S
C730 C728 1.384 . S
C730 C731 1.372 . S
C731 C730 1.372 . S
C731 C732 1.400 . S
C731 C736 1.490 . S
C732 H722 0.930 . S
C732 C731 1.400 . S
C732 C735 1.386 . S
H733 C749 0.930 . S
H734 C750 0.931 . S
C735 H723 0.929 . S
C735 C729 1.390 . S
C735 C732 1.386 . S
C736 C731 1.490 . S
C736 C738 1.395 . S
C736 C739 1.410 . S
H737 C743 0.930 1_556 S
C738 H724 0.930 . S
C738 C736 1.395 . S
C738 C741 1.403 . S
C739 C736 1.410 . S
C739 C740 1.515 1_554 S
C739 C743 1.401 . S
C740 H725 0.960 . S
C740 H726 0.960 . S
C740 H727 0.960 . S
C740 C739 1.515 1_556 S
C741 C738 1.403 . S
C741 C742 1.392 . S
C741 C745 1.495 . S
C742 C741 1.392 . S
C742 C743 1.385 . S
C742 C744 1.478 . S
C743 H737 0.930 1_554 S
C743 C739 1.401 . S
C743 C742 1.385 . S
C744 C742 1.478 . S
C744 C746 1.381 . S
C744 C750 1.383 . S
C745 C741 1.495 . S
C745 H751 0.959 . S
C745 H752 0.961 . S
C745 H753 0.960 . S
C746 C744 1.381 . S
C746 C747 1.394 . S
C746 H754 0.930 . S
C747 C746 1.394 . S
C747 C748 1.383 . S
C747 H755 0.929 . S
C748 C747 1.383 . S
C748 C749 1.377 . S
C749 H733 0.930 . S
C749 C748 1.377 . S
C749 C750 1.379 . S
C750 H734 0.931 . S
C750 C744 1.383 . S
C750 C749 1.379 . S
H751 C745 0.959 . S
H752 C745 0.961 . S
H753 C745 0.960 . S
H754 C746 0.930 . S
H755 C747 0.929 . S
H756 C764 0.929 . S
H757 C766 0.930 . S
H758 C768 0.930 . S
H759 C771 0.929 . S
H760 C774 0.930 . S
H761 C776 0.960 . S
H762 C776 0.947 1_554 S
H763 C776 0.960 . S
C764 H756 0.929 . S
C764 C765 1.377 . S
C764 C766 1.384 . S
C765 C764 1.377 . S
C765 C771 1.390 1_554 S
C766 H757 0.930 . S
C766 C764 1.384 . S
C766 C767 1.372 . S
C767 C766 1.372 . S
C767 C768 1.400 1_554 S
C767 C772 1.490 . S
C768 H758 0.930 . S
C768 C767 1.400 1_556 S
C768 C771 1.386 . S
H769 C785 0.930 . S
H770 C786 0.931 . S
C771 H759 0.929 . S
C771 C765 1.390 1_556 S
C771 C768 1.386 . S
C772 C767 1.490 . S
C772 C774 1.395 . S
C772 C775 1.403 . S
H773 C779 0.930 1_556 S
C774 H760 0.930 . S
C774 C772 1.395 . S
C774 C777 1.403 . S
C775 C772 1.403 . S
C775 C776 1.524 1_554 S
C775 C779 1.400 . S
C776 H761 0.960 . S
C776 H762 0.947 1_556 S
C776 H763 0.960 . S
C776 C775 1.524 1_556 S
C777 C774 1.403 . S
C777 C778 1.392 . S
C777 C781 1.495 . S
C778 C777 1.392 . S
C778 C779 1.385 . S
C778 C780 1.478 . S
C779 H773 0.930 1_554 S
C779 C775 1.400 . S
C779 C778 1.385 . S
C780 C778 1.478 . S
C780 C782 1.381 . S
C780 C786 1.383 1_554 S
C781 C777 1.495 . S
C781 H787 0.959 . S
C781 H788 0.961 . S
C781 H789 0.960 . S
C782 C780 1.381 . S
C782 C783 1.394 . S
C782 H790 0.930 . S
C783 C782 1.394 . S
C783 C784 1.383 . S
C783 H791 0.929 . S
C784 C783 1.383 . S
C784 C785 1.377 1_554 S
C785 H769 0.930 . S
C785 C784 1.377 1_556 S
C785 C786 1.379 . S
C786 H770 0.931 . S
C786 C780 1.383 1_556 S
C786 C785 1.379 . S
H787 C781 0.959 . S
H788 C781 0.961 . S
H789 C781 0.960 . S
H790 C782 0.930 . S
H791 C783 0.929 . S
H792 C800 0.929 . S
H793 C802 0.930 . S
H794 C804 0.930 1_556 S
H795 C807 0.929 1_556 S
H796 C810 0.930 . S
H797 C812 0.960 . S
H798 C812 0.960 . S
H799 C812 0.960 . S
C800 H792 0.929 . S
C800 C801 1.377 . S
C800 C802 1.384 . S
C801 C800 1.377 . S
C801 C807 1.390 . S
C802 H793 0.930 . S
C802 C800 1.384 . S
C802 C803 1.372 . S
C803 C802 1.372 . S
C803 C804 1.400 . S
C803 C808 1.490 . S
C804 H794 0.930 1_554 S
C804 C803 1.400 . S
C804 C807 1.386 . S
H805 C821 0.930 . S
H806 C822 0.931 . S
C807 H795 0.929 1_554 S
C807 C801 1.390 . S
C807 C804 1.386 . S
C808 C803 1.490 . S
C808 C810 1.395 . S
C808 C811 1.403 . S
H809 C815 0.930 . S
C810 H796 0.930 . S
C810 C808 1.395 . S
C810 C813 1.403 . S
C811 C808 1.403 . S
C811 C812 1.524 . S
C811 C815 1.400 . S
C812 H797 0.960 . S
C812 H798 0.960 . S
C812 H799 0.960 . S
C812 C811 1.524 . S
C813 C810 1.403 . S
C813 C814 1.392 . S
C813 C817 1.495 . S
C814 C813 1.392 . S
C814 C815 1.385 . S
C814 C816 1.478 . S
C815 H809 0.930 . S
C815 C811 1.400 . S
C815 C814 1.385 . S
C816 C814 1.478 . S
C816 C818 1.381 . S
C816 C822 1.383 1_554 S
C817 C813 1.495 . S
C817 H823 0.959 1_554 S
C817 H824 0.961 1_554 S
C817 H825 0.960 . S
C818 C816 1.381 . S
C818 C819 1.394 . S
C818 H826 0.930 . S
C819 C818 1.394 . S
C819 C820 1.383 . S
C819 H827 0.929 . S
C820 C819 1.383 . S
C820 C821 1.377 1_554 S
C821 H805 0.930 . S
C821 C820 1.377 1_556 S
C821 C822 1.379 . S
C822 H806 0.931 . S
C822 C816 1.383 1_556 S
C822 C821 1.379 . S
H823 C817 0.959 1_556 S
H824 C817 0.961 1_556 S
H825 C817 0.960 . S
H826 C818 0.930 . S
H827 C819 0.929 . S
H828 C836 0.929 . S
H829 C838 0.930 . S
H830 C840 0.930 . S
H831 C843 0.929 . S
H832 C846 0.930 . S
H833 C848 0.960 . S
H834 C848 0.960 . S
H835 C848 0.960 . S
C836 H828 0.929 . S
C836 C837 1.377 . S
C836 C838 1.384 . S
C837 C836 1.377 . S
C837 C843 1.390 . S
C838 H829 0.930 . S
C838 C836 1.384 . S
C838 C839 1.372 . S
C839 C838 1.372 . S
C839 C840 1.400 . S
C839 C844 1.490 . S
C840 H830 0.930 . S
C840 C839 1.400 . S
C840 C843 1.386 . S
H841 C857 0.930 . S
H842 C858 0.931 . S
C843 H831 0.929 . S
C843 C837 1.390 . S
C843 C840 1.386 . S
C844 C839 1.490 . S
C844 C846 1.395 . S
C844 C847 1.403 . S
H845 C851 0.930 . S
C846 H832 0.930 . S
C846 C844 1.395 . S
C846 C849 1.403 . S
C847 C844 1.403 . S
C847 C848 1.524 . S
C847 C851 1.400 . S
C848 H833 0.960 . S
C848 H834 0.960 . S
C848 H835 0.960 . S
C848 C847 1.524 . S
C849 C846 1.403 . S
C849 C850 1.392 . S
C849 C853 1.495 . S
C850 C849 1.392 . S
C850 C851 1.385 . S
C850 C852 1.478 . S
C851 H845 0.930 . S
C851 C847 1.400 . S
C851 C850 1.385 . S
C852 C850 1.478 . S
C852 C854 1.381 . S
C852 C858 1.383 . S
C853 C849 1.495 . S
C853 H859 0.959 . S
C853 H860 0.961 . S
C853 H861 0.960 . S
C854 C852 1.381 . S
C854 C855 1.394 . S
C854 H862 0.930 . S
C855 C854 1.394 . S
C855 C856 1.383 . S
C855 H863 0.929 . S
C856 C855 1.383 . S
C856 C857 1.377 . S
C857 H841 0.930 . S
C857 C856 1.377 . S
C857 C858 1.379 . S
C858 H842 0.931 . S
C858 C852 1.383 . S
C858 C857 1.379 . S
H859 C853 0.959 . S
H860 C853 0.961 . S
H861 C853 0.960 . S
H862 C854 0.930 . S
H863 C855 0.929 . S
H864 C872 0.929 . S
H865 C874 0.930 . S
H866 C876 0.930 . S
H867 C879 0.929 . S
H868 C882 0.930 . S
H869 C884 0.960 . S
H870 C884 0.960 . S
H871 C884 0.960 . S
C872 H864 0.929 . S
C872 C873 1.377 . S
C872 C874 1.384 . S
C873 C872 1.377 . S
C873 C879 1.390 . S
C874 H865 0.930 . S
C874 C872 1.384 . S
C874 C875 1.372 . S
C875 C874 1.372 . S
C875 C876 1.400 . S
C875 C880 1.490 . S
C876 H866 0.930 . S
C876 C875 1.400 . S
C876 C879 1.386 . S
H877 C893 0.930 . S
H878 C894 0.931 . S
C879 H867 0.929 . S
C879 C873 1.390 . S
C879 C876 1.386 . S
C880 C875 1.490 . S
C880 C882 1.395 . S
C880 C883 1.403 . S
H881 C887 0.930 . S
C882 H868 0.930 . S
C882 C880 1.395 . S
C882 C885 1.403 . S
C883 C880 1.403 . S
C883 C884 1.524 . S
C883 C887 1.400 . S
C884 H869 0.960 . S
C884 H870 0.960 . S
C884 H871 0.960 . S
C884 C883 1.524 . S
C885 C882 1.403 . S
C885 C886 1.392 . S
C885 C889 1.495 . S
C886 C885 1.392 . S
C886 C887 1.385 . S
C886 C888 1.478 . S
C887 H881 0.930 . S
C887 C883 1.400 . S
C887 C886 1.385 . S
C888 C886 1.478 . S
C888 C890 1.381 . S
C888 C894 1.383 . S
C889 C885 1.495 . S
C889 H895 0.959 . S
C889 H896 0.961 . S
C889 H897 0.960 . S
C890 C888 1.381 . S
C890 C891 1.394 . S
C890 H898 0.930 . S
C891 C890 1.394 . S
C891 C892 1.383 . S
C891 H899 0.929 . S
C892 C891 1.383 . S
C892 C893 1.377 . S
C893 H877 0.930 . S
C893 C892 1.377 . S
C893 C894 1.379 . S
C894 H878 0.931 . S
C894 C888 1.383 . S
C894 C893 1.379 . S
H895 C889 0.959 . S
H896 C889 0.961 . S
H897 C889 0.960 . S
H898 C890 0.930 . S
H899 C891 0.929 . S
H900 C908 0.929 . S
H901 C910 0.930 . S
H902 C912 0.930 . S
H903 C915 0.929 . S
H904 C918 0.930 . S
H905 C920 0.960 . S
H906 C920 0.960 . S
H907 C920 0.960 . S
C908 H900 0.929 . S
C908 C909 1.377 . S
C908 C910 1.384 . S
C909 C908 1.377 . S
C909 C915 1.390 . S
C910 H901 0.930 . S
C910 C908 1.384 . S
C910 C911 1.372 . S
C911 C910 1.372 . S
C911 C912 1.400 . S
C911 C916 1.490 . S
C912 H902 0.930 . S
C912 C911 1.400 . S
C912 C915 1.386 . S
H913 C929 0.930 . S
H914 C930 0.931 . S
C915 H903 0.929 . S
C915 C909 1.390 . S
C915 C912 1.386 . S
C916 C911 1.490 . S
C916 C918 1.395 . S
C916 C919 1.403 . S
H917 C923 0.930 . S
C918 H904 0.930 . S
C918 C916 1.395 . S
C918 C921 1.403 . S
C919 C916 1.403 . S
C919 C920 1.524 . S
C919 C923 1.400 . S
C920 H905 0.960 . S
C920 H906 0.960 . S
C920 H907 0.960 . S
C920 C919 1.524 . S
C921 C918 1.403 . S
C921 C922 1.392 . S
C921 C925 1.495 . S
C922 C921 1.392 . S
C922 C923 1.385 . S
C922 C924 1.478 . S
C923 H917 0.930 . S
C923 C919 1.400 . S
C923 C922 1.385 . S
C924 C922 1.478 . S
C924 C926 1.381 . S
C924 C930 1.383 . S
C925 C921 1.495 . S
C925 H931 0.959 . S
C925 H932 0.961 . S
C925 H933 0.960 . S
C926 C924 1.381 . S
C926 C927 1.394 . S
C926 H934 0.930 . S
C927 C926 1.394 . S
C927 C928 1.383 . S
C927 H935 0.929 . S
C928 C927 1.383 . S
C928 C929 1.377 . S
C929 H913 0.930 . S
C929 C928 1.377 . S
C929 C930 1.379 . S
C930 H914 0.931 . S
C930 C924 1.383 . S
C930 C929 1.379 . S
H931 C925 0.959 . S
H932 C925 0.961 . S
H933 C925 0.960 . S
H934 C926 0.930 . S
H935 C927 0.929 . S
H936 C944 0.929 . S
H937 C946 0.930 . S
H938 C948 0.930 . S
H939 C951 0.929 . S
H940 C954 0.930 . S
H941 C956 0.960 . S
H942 C956 0.960 . S
H943 C956 0.960 . S
C944 H936 0.929 . S
C944 C945 1.377 . S
C944 C946 1.384 . S
C945 C944 1.377 . S
C945 C951 1.390 . S
C946 H937 0.930 . S
C946 C944 1.384 . S
C946 C947 1.372 . S
C947 C946 1.372 . S
C947 C948 1.400 . S
C947 C952 1.490 . S
C948 H938 0.930 . S
C948 C947 1.400 . S
C948 C951 1.386 . S
H949 C965 0.930 . S
H950 C966 0.931 . S
C951 H939 0.929 . S
C951 C945 1.390 . S
C951 C948 1.386 . S
C952 C947 1.490 . S
C952 C954 1.395 . S
C952 C955 1.403 . S
H953 C959 0.930 . S
C954 H940 0.930 . S
C954 C952 1.395 . S
C954 C957 1.403 . S
C955 C952 1.403 . S
C955 C956 1.524 . S
C955 C959 1.400 . S
C956 H941 0.960 . S
C956 H942 0.960 . S
C956 H943 0.960 . S
C956 C955 1.524 . S
C957 C954 1.403 . S
C957 C958 1.392 . S
C957 C961 1.495 . S
C958 C957 1.392 . S
C958 C959 1.385 . S
C958 C960 1.478 . S
C959 H953 0.930 . S
C959 C955 1.400 . S
C959 C958 1.385 . S
C960 C958 1.478 . S
C960 C962 1.381 . S
C960 C966 1.383 . S
C961 C957 1.495 . S
C961 H967 0.959 . S
C961 H968 0.961 . S
C961 H969 0.960 . S
C962 C960 1.381 . S
C962 C963 1.394 . S
C962 H970 0.930 . S
C963 C962 1.394 . S
C963 C964 1.383 . S
C963 H971 0.929 . S
C964 C963 1.383 . S
C964 C965 1.377 . S
C965 H949 0.930 . S
C965 C964 1.377 . S
C965 C966 1.379 . S
C966 H950 0.931 . S
C966 C960 1.383 . S
C966 C965 1.379 . S
H967 C961 0.959 . S
H968 C961 0.961 . S
H969 C961 0.960 . S
H970 C962 0.930 . S
H971 C963 0.929 . S
H972 C980 0.929 . S
H973 C982 0.930 . S
H974 C984 0.930 . S
H975 C987 0.929 . S
H976 C990 0.930 . S
H977 C992 0.960 . S
H978 C992 0.960 . S
H979 C992 0.960 . S
C980 H972 0.929 . S
C980 C981 1.377 . S
C980 C982 1.384 . S
C981 C980 1.377 . S
C981 C987 1.390 . S
C982 H973 0.930 . S
C982 C980 1.384 . S
C982 C983 1.372 . S
C983 C982 1.372 . S
C983 C984 1.400 . S
C983 C988 1.490 . S
C984 H974 0.930 . S
C984 C983 1.400 . S
C984 C987 1.386 . S
H985 C1001 0.930 . S
H986 C1002 0.931 . S
C987 H975 0.929 . S
C987 C981 1.390 . S
C987 C984 1.386 . S
C988 C983 1.490 . S
C988 C990 1.395 . S
C988 C991 1.403 . S
H989 C995 0.930 . S
C990 H976 0.930 . S
C990 C988 1.395 . S
C990 C993 1.403 . S
C991 C988 1.403 . S
C991 C992 1.524 . S
C991 C995 1.400 . S
C992 H977 0.960 . S
C992 H978 0.960 . S
C992 H979 0.960 . S
C992 C991 1.524 . S
C993 C990 1.403 . S
C993 C994 1.392 . S
C993 C997 1.495 . S
C994 C993 1.392 . S
C994 C995 1.385 . S
C994 C996 1.478 . S
C995 H989 0.930 . S
C995 C991 1.400 . S
C995 C994 1.385 . S
C996 C994 1.478 . S
C996 C998 1.381 . S
C996 C1002 1.383 . S
C997 C993 1.495 . S
C997 H1003 0.959 . S
C997 H1004 0.961 . S
C997 H1005 0.960 . S
C998 C996 1.381 . S
C998 C999 1.394 . S
C998 H1006 0.930 . S
C999 C998 1.394 . S
C999 C1000 1.383 . S
C999 H1007 0.929 . S
C1000 C999 1.383 . S
C1000 C1001 1.377 . S
C1001 H985 0.930 . S
C1001 C1000 1.377 . S
C1001 C1002 1.379 . S
C1002 H986 0.931 . S
C1002 C996 1.383 . S
C1002 C1001 1.379 . S
H1003 C997 0.959 . S
H1004 C997 0.961 . S
H1005 C997 0.960 . S
H1006 C998 0.930 . S
H1007 C999 0.929 . S
H1008 C1016 0.929 . S
H1009 C1018 0.930 . S
H1010 C1020 0.930 . S
H1011 C1023 0.929 . S
H1012 C1026 0.930 . S
H1013 C1028 0.960 . S
H1014 C1028 0.960 . S
H1015 C1028 0.960 . S
C1016 H1008 0.929 . S
C1016 C1017 1.377 . S
C1016 C1018 1.384 . S
C1017 C1016 1.377 . S
C1017 C1023 1.390 . S
C1018 H1009 0.930 . S
C1018 C1016 1.384 . S
C1018 C1019 1.372 . S
C1019 C1018 1.372 . S
C1019 C1020 1.400 . S
C1019 C1024 1.490 . S
C1020 H1010 0.930 . S
C1020 C1019 1.400 . S
C1020 C1023 1.386 . S
H1021 C1037 0.930 . S
H1022 C1038 0.931 . S
C1023 H1011 0.929 . S
C1023 C1017 1.390 . S
C1023 C1020 1.386 . S
C1024 C1019 1.490 . S
C1024 C1026 1.395 . S
C1024 C1027 1.403 . S
H1025 C1031 0.930 . S
C1026 H1012 0.930 . S
C1026 C1024 1.395 . S
C1026 C1029 1.403 . S
C1027 C1024 1.403 . S
C1027 C1028 1.524 . S
C1027 C1031 1.400 . S
C1028 H1013 0.960 . S
C1028 H1014 0.960 . S
C1028 H1015 0.960 . S
C1028 C1027 1.524 . S
C1029 C1026 1.403 . S
C1029 C1030 1.392 . S
C1029 C1033 1.495 . S
C1030 C1029 1.392 . S
C1030 C1031 1.385 . S
C1030 C1032 1.478 . S
C1031 H1025 0.930 . S
C1031 C1027 1.400 . S
C1031 C1030 1.385 . S
C1032 C1030 1.478 . S
C1032 C1034 1.381 . S
C1032 C1038 1.383 . S
C1033 C1029 1.495 . S
C1033 H1039 0.959 . S
C1033 H1040 0.961 . S
C1033 H1041 0.960 . S
C1034 C1032 1.381 . S
C1034 C1035 1.394 . S
C1034 H1042 0.930 . S
C1035 C1034 1.394 . S
C1035 C1036 1.383 . S
C1035 H1043 0.929 . S
C1036 C1035 1.383 . S
C1036 C1037 1.377 . S
C1037 H1021 0.930 . S
C1037 C1036 1.377 . S
C1037 C1038 1.379 . S
C1038 H1022 0.931 . S
C1038 C1032 1.383 . S
C1038 C1037 1.379 . S
H1039 C1033 0.959 . S
H1040 C1033 0.961 . S
H1041 C1033 0.960 . S
H1042 C1034 0.930 . S
H1043 C1035 0.929 . S
H1044 C1052 0.929 . S
H1045 C1054 0.930 . S
H1046 C1056 0.930 . S
H1047 C1059 0.929 . S
H1048 C1062 0.930 . S
H1049 C1064 0.960 . S
H1050 C1064 0.960 . S
H1051 C1064 0.960 . S
C1052 H1044 0.929 . S
C1052 C1053 1.377 . S
C1052 C1054 1.384 . S
C1053 C1052 1.377 . S
C1053 C1059 1.390 . S
C1054 H1045 0.930 . S
C1054 C1052 1.384 . S
C1054 C1055 1.372 . S
C1055 C1054 1.372 . S
C1055 C1056 1.400 . S
C1055 C1060 1.490 . S
C1056 H1046 0.930 . S
C1056 C1055 1.400 . S
C1056 C1059 1.386 . S
H1057 C1073 0.930 . S
H1058 C1074 0.931 . S
C1059 H1047 0.929 . S
C1059 C1053 1.390 . S
C1059 C1056 1.386 . S
C1060 C1055 1.490 . S
C1060 C1062 1.395 . S
C1060 C1063 1.403 . S
H1061 C1067 0.930 . S
C1062 H1048 0.930 . S
C1062 C1060 1.395 . S
C1062 C1065 1.403 . S
C1063 C1060 1.403 . S
C1063 C1064 1.524 . S
C1063 C1067 1.400 . S
C1064 H1049 0.960 . S
C1064 H1050 0.960 . S
C1064 H1051 0.960 . S
C1064 C1063 1.524 . S
C1065 C1062 1.403 . S
C1065 C1066 1.392 . S
C1065 C1069 1.495 . S
C1066 C1065 1.392 . S
C1066 C1067 1.385 . S
C1066 C1068 1.478 . S
C1067 H1061 0.930 . S
C1067 C1063 1.400 . S
C1067 C1066 1.385 . S
C1068 C1066 1.478 . S
C1068 C1070 1.381 1_565 S
C1068 C1074 1.383 . S
C1069 C1065 1.495 . S
C1069 H1075 0.959 . S
C1069 H1076 0.961 . S
C1069 H1077 0.960 . S
C1070 C1068 1.381 1_545 S
C1070 C1071 1.394 . S
C1070 H1078 0.930 . S
C1071 C1070 1.394 . S
C1071 C1072 1.376 1_545 S
C1071 H1079 0.929 . S
C1072 C1071 1.376 1_565 S
C1072 C1073 1.385 . S
C1073 H1057 0.930 . S
C1073 C1072 1.385 . S
C1073 C1074 1.379 . S
C1074 H1058 0.931 . S
C1074 C1068 1.383 . S
C1074 C1073 1.379 . S
H1075 C1069 0.959 . S
H1076 C1069 0.961 . S
H1077 C1069 0.960 . S
H1078 C1070 0.930 . S
H1079 C1071 0.929 . S
H1080 C1088 0.929 . S
H1081 C1090 0.930 . S
H1082 C1092 0.930 . S
H1083 C1095 0.929 . S
H1084 C1098 0.930 . S
H1085 C1100 0.960 . S
H1086 C1100 0.960 . S
H1087 C1100 0.960 . S
C1088 H1080 0.929 . S
C1088 C1089 1.377 . S
C1088 C1090 1.384 . S
C1089 C1088 1.377 . S
C1089 C1095 1.390 . S
C1090 H1081 0.930 . S
C1090 C1088 1.384 . S
C1090 C1091 1.372 . S
C1091 C1090 1.372 . S
C1091 C1092 1.400 . S
C1091 C1096 1.490 . S
C1092 H1082 0.930 . S
C1092 C1091 1.400 . S
C1092 C1095 1.386 . S
H1093 C1109 0.930 . S
H1094 C1110 0.931 . S
C1095 H1083 0.929 . S
C1095 C1089 1.390 . S
C1095 C1092 1.386 . S
C1096 C1091 1.490 . S
C1096 C1098 1.395 . S
C1096 C1099 1.403 . S
H1097 C1103 0.930 . S
C1098 H1084 0.930 . S
C1098 C1096 1.395 . S
C1098 C1101 1.403 . S
C1099 C1096 1.403 . S
C1099 C1100 1.524 . S
C1099 C1103 1.400 . S
C1100 H1085 0.960 . S
C1100 H1086 0.960 . S
C1100 H1087 0.960 . S
C1100 C1099 1.524 . S
C1101 C1098 1.403 . S
C1101 C1102 1.392 . S
C1101 C1105 1.495 . S
C1102 C1101 1.392 . S
C1102 C1103 1.385 . S
C1102 C1104 1.478 . S
C1103 H1097 0.930 . S
C1103 C1099 1.400 . S
C1103 C1102 1.385 . S
C1104 C1102 1.478 . S
C1104 C1106 1.381 . S
C1104 C1110 1.383 . S
C1105 C1101 1.495 . S
C1105 H1111 0.959 . S
C1105 H1112 0.961 . S
C1105 H1113 0.960 . S
C1106 C1104 1.381 . S
C1106 C1107 1.394 . S
C1106 H1114 0.930 . S
C1107 C1106 1.394 . S
C1107 C1108 1.383 . S
C1107 H1115 0.929 . S
C1108 C1107 1.383 . S
C1108 C1109 1.377 . S
C1109 H1093 0.930 . S
C1109 C1108 1.377 . S
C1109 C1110 1.379 . S
C1110 H1094 0.931 . S
C1110 C1104 1.383 . S
C1110 C1109 1.379 . S
H1111 C1105 0.959 . S
H1112 C1105 0.961 . S
H1113 C1105 0.960 . S
H1114 C1106 0.930 . S
H1115 C1107 0.929 . S
H1116 C1124 0.929 . S
H1117 C1126 0.930 . S
H1118 C1128 0.930 . S
H1119 C1131 0.929 . S
H1120 C1134 0.930 . S
H1121 C1136 0.960 . S
H1122 C1136 0.960 . S
H1123 C1136 0.960 . S
C1124 H1116 0.929 . S
C1124 C1125 1.377 . S
C1124 C1126 1.384 . S
C1125 C1124 1.377 . S
C1125 C1131 1.390 . S
C1126 H1117 0.930 . S
C1126 C1124 1.384 . S
C1126 C1127 1.372 . S
C1127 C1126 1.372 . S
C1127 C1128 1.400 . S
C1127 C1132 1.490 . S
C1128 H1118 0.930 . S
C1128 C1127 1.400 . S
C1128 C1131 1.386 . S
H1129 C1145 0.930 . S
H1130 C1146 0.931 . S
C1131 H1119 0.929 . S
C1131 C1125 1.390 . S
C1131 C1128 1.386 . S
C1132 C1127 1.490 . S
C1132 C1134 1.395 . S
C1132 C1135 1.403 . S
H1133 C1139 0.930 . S
C1134 H1120 0.930 . S
C1134 C1132 1.395 . S
C1134 C1137 1.403 . S
C1135 C1132 1.403 . S
C1135 C1136 1.524 . S
C1135 C1139 1.400 . S
C1136 H1121 0.960 . S
C1136 H1122 0.960 . S
C1136 H1123 0.960 . S
C1136 C1135 1.524 . S
C1137 C1134 1.403 . S
C1137 C1138 1.392 . S
C1137 C1141 1.495 . S
C1138 C1137 1.392 . S
C1138 C1139 1.385 . S
C1138 C1140 1.478 . S
C1139 H1133 0.930 . S
C1139 C1135 1.400 . S
C1139 C1138 1.385 . S
C1140 C1138 1.478 . S
C1140 C1142 1.381 . S
C1140 C1146 1.383 . S
C1141 C1137 1.495 . S
C1141 H1147 0.959 . S
C1141 H1148 0.961 . S
C1141 H1149 0.960 . S
C1142 C1140 1.381 . S
C1142 C1143 1.394 . S
C1142 H1150 0.930 . S
C1143 C1142 1.394 . S
C1143 C1144 1.383 . S
C1143 H1151 0.929 . S
C1144 C1143 1.383 . S
C1144 C1145 1.377 . S
C1145 H1129 0.930 . S
C1145 C1144 1.377 . S
C1145 C1146 1.379 . S
C1146 H1130 0.931 . S
C1146 C1140 1.383 . S
C1146 C1145 1.379 . S
H1147 C1141 0.959 . S
H1148 C1141 0.961 . S
H1149 C1141 0.960 . S
H1150 C1142 0.930 . S
H1151 C1143 0.929 . S
H1152 C1160 0.929 . S
H1153 C1162 0.930 . S
H1154 C1164 0.930 . S
H1155 C1167 0.929 . S
H1156 C1170 0.930 . S
H1157 C1172 0.960 . S
H1158 C1172 0.960 . S
H1159 C1172 0.960 . S
C1160 H1152 0.929 . S
C1160 C1161 1.377 . S
C1160 C1162 1.384 . S
C1161 C1160 1.377 . S
C1161 C1167 1.390 . S
C1162 H1153 0.930 . S
C1162 C1160 1.384 . S
C1162 C1163 1.372 . S
C1163 C1162 1.372 . S
C1163 C1164 1.400 . S
C1163 C1168 1.490 . S
C1164 H1154 0.930 . S
C1164 C1163 1.400 . S
C1164 C1167 1.386 . S
H1165 C1181 0.930 . S
H1166 C1182 0.931 . S
C1167 H1155 0.929 . S
C1167 C1161 1.390 . S
C1167 C1164 1.386 . S
C1168 C1163 1.490 . S
C1168 C1170 1.395 . S
C1168 C1171 1.403 . S
H1169 C1175 0.930 . S
C1170 H1156 0.930 . S
C1170 C1168 1.395 . S
C1170 C1173 1.403 . S
C1171 C1168 1.403 . S
C1171 C1172 1.524 . S
C1171 C1175 1.400 . S
C1172 H1157 0.960 . S
C1172 H1158 0.960 . S
C1172 H1159 0.960 . S
C1172 C1171 1.524 . S
C1173 C1170 1.403 . S
C1173 C1174 1.392 . S
C1173 C1177 1.495 . S
C1174 C1173 1.392 . S
C1174 C1175 1.385 . S
C1174 C1176 1.478 . S
C1175 H1169 0.930 . S
C1175 C1171 1.400 . S
C1175 C1174 1.385 . S
C1176 C1174 1.478 . S
C1176 C1178 1.381 . S
C1176 C1182 1.383 . S
C1177 C1173 1.495 . S
C1177 H1183 0.959 . S
C1177 H1184 0.961 . S
C1177 H1185 0.960 . S
C1178 C1176 1.381 . S
C1178 C1179 1.394 . S
C1178 H1186 0.930 . S
C1179 C1178 1.394 . S
C1179 C1180 1.383 . S
C1179 H1187 0.929 . S
C1180 C1179 1.383 . S
C1180 C1181 1.377 . S
C1181 H1165 0.930 . S
C1181 C1180 1.377 . S
C1181 C1182 1.379 . S
C1182 H1166 0.931 . S
C1182 C1176 1.383 . S
C1182 C1181 1.379 . S
H1183 C1177 0.959 . S
H1184 C1177 0.961 . S
H1185 C1177 0.960 . S
H1186 C1178 0.930 . S
H1187 C1179 0.929 . S
H1188 C1196 0.929 . S
H1189 C1198 0.930 . S
H1190 C1200 0.930 . S
H1191 C1203 0.929 . S
H1192 C1206 0.930 . S
H1193 C1208 0.960 . S
H1194 C1208 0.960 . S
H1195 C1208 0.960 . S
C1196 H1188 0.929 . S
C1196 C1197 1.377 . S
C1196 C1198 1.384 . S
C1197 C1196 1.377 . S
C1197 C1203 1.390 . S
C1198 H1189 0.930 . S
C1198 C1196 1.384 . S
C1198 C1199 1.372 . S
C1199 C1198 1.372 . S
C1199 C1200 1.400 . S
C1199 C1204 1.490 . S
C1200 H1190 0.930 . S
C1200 C1199 1.400 . S
C1200 C1203 1.386 . S
H1201 C1217 0.930 . S
H1202 C1218 0.931 . S
C1203 H1191 0.929 . S
C1203 C1197 1.390 . S
C1203 C1200 1.386 . S
C1204 C1199 1.490 . S
C1204 C1206 1.395 . S
C1204 C1207 1.403 . S
H1205 C1211 0.930 . S
C1206 H1192 0.930 . S
C1206 C1204 1.395 . S
C1206 C1209 1.403 . S
C1207 C1204 1.403 . S
C1207 C1208 1.524 . S
C1207 C1211 1.400 . S
C1208 H1193 0.960 . S
C1208 H1194 0.960 . S
C1208 H1195 0.960 . S
C1208 C1207 1.524 . S
C1209 C1206 1.403 . S
C1209 C1210 1.392 . S
C1209 C1213 1.495 . S
C1210 C1209 1.392 . S
C1210 C1211 1.385 . S
C1210 C1212 1.478 . S
C1211 H1205 0.930 . S
C1211 C1207 1.400 . S
C1211 C1210 1.385 . S
C1212 C1210 1.478 . S
C1212 C1214 1.381 . S
C1212 C1218 1.383 . S
C1213 C1209 1.495 . S
C1213 H1219 0.959 . S
C1213 H1220 0.961 . S
C1213 H1221 0.960 . S
C1214 C1212 1.381 . S
C1214 C1215 1.394 . S
C1214 H1222 0.930 . S
C1215 C1214 1.394 . S
C1215 C1216 1.383 . S
C1215 H1223 0.929 . S
C1216 C1215 1.383 . S
C1216 C1217 1.377 . S
C1217 H1201 0.930 . S
C1217 C1216 1.377 . S
C1217 C1218 1.379 . S
C1218 H1202 0.931 . S
C1218 C1212 1.383 . S
C1218 C1217 1.379 . S
H1219 C1213 0.959 . S
H1220 C1213 0.961 . S
H1221 C1213 0.960 . S
H1222 C1214 0.930 . S
H1223 C1215 0.929 . S
H1224 C1232 0.929 . S
H1225 C1234 0.930 . S
H1226 C1236 0.930 . S
H1227 C1239 0.929 . S
H1228 C1242 0.930 . S
H1229 C1244 0.960 . S
H1230 C1244 0.960 . S
H1231 C1244 0.960 . S
C1232 H1224 0.929 . S
C1232 C1233 1.377 . S
C1232 C1234 1.384 . S
C1233 C1232 1.377 . S
C1233 C1239 1.390 . S
C1234 H1225 0.930 . S
C1234 C1232 1.384 . S
C1234 C1235 1.372 . S
C1235 C1234 1.372 . S
C1235 C1236 1.400 . S
C1235 C1240 1.490 . S
C1236 H1226 0.930 . S
C1236 C1235 1.400 . S
C1236 C1239 1.386 . S
H1237 C1253 0.930 . S
H1238 C1254 0.931 . S
C1239 H1227 0.929 . S
C1239 C1233 1.390 . S
C1239 C1236 1.386 . S
C1240 C1235 1.490 . S
C1240 C1242 1.395 . S
C1240 C1243 1.403 . S
H1241 C1247 0.930 . S
C1242 H1228 0.930 . S
C1242 C1240 1.395 . S
C1242 C1245 1.403 . S
C1243 C1240 1.403 . S
C1243 C1244 1.524 . S
C1243 C1247 1.400 . S
C1244 H1229 0.960 . S
C1244 H1230 0.960 . S
C1244 H1231 0.960 . S
C1244 C1243 1.524 . S
C1245 C1242 1.403 . S
C1245 C1246 1.392 . S
C1245 C1249 1.495 . S
C1246 C1245 1.392 . S
C1246 C1247 1.385 . S
C1246 C1248 1.478 . S
C1247 H1241 0.930 . S
C1247 C1243 1.400 . S
C1247 C1246 1.385 . S
C1248 C1246 1.478 . S
C1248 C1250 1.381 . S
C1248 C1254 1.383 . S
C1249 C1245 1.495 . S
C1249 H1255 0.959 . S
C1249 H1256 0.961 . S
C1249 H1257 0.960 . S
C1250 C1248 1.381 . S
C1250 C1251 1.394 . S
C1250 H1258 0.930 . S
C1251 C1250 1.394 . S
C1251 C1252 1.383 . S
C1251 H1259 0.929 . S
C1252 C1251 1.383 . S
C1252 C1253 1.377 . S
C1253 H1237 0.930 . S
C1253 C1252 1.377 . S
C1253 C1254 1.379 . S
C1254 H1238 0.931 . S
C1254 C1248 1.383 . S
C1254 C1253 1.379 . S
H1255 C1249 0.959 . S
H1256 C1249 0.961 . S
H1257 C1249 0.960 . S
H1258 C1250 0.930 . S
H1259 C1251 0.929 . S
H1260 C1268 0.929 . S
H1261 C1270 0.930 . S
H1262 C1272 0.930 . S
H1263 C1275 0.929 . S
H1264 C1278 0.930 . S
H1265 C1280 0.960 . S
H1266 C1280 0.960 . S
H1267 C1280 0.960 . S
C1268 H1260 0.929 . S
C1268 C1269 1.377 . S
C1268 C1270 1.384 . S
C1269 C1268 1.377 . S
C1269 C1275 1.390 . S
C1270 H1261 0.930 . S
C1270 C1268 1.384 . S
C1270 C1271 1.372 . S
C1271 C1270 1.372 . S
C1271 C1272 1.400 . S
C1271 C1276 1.490 . S
C1272 H1262 0.930 . S
C1272 C1271 1.400 . S
C1272 C1275 1.386 . S
H1273 C1289 0.930 . S
H1274 C1290 0.931 . S
C1275 H1263 0.929 . S
C1275 C1269 1.390 . S
C1275 C1272 1.386 . S
C1276 C1271 1.490 . S
C1276 C1278 1.395 . S
C1276 C1279 1.403 . S
H1277 C1283 0.930 . S
C1278 H1264 0.930 . S
C1278 C1276 1.395 . S
C1278 C1281 1.403 . S
C1279 C1276 1.403 . S
C1279 C1280 1.524 . S
C1279 C1283 1.400 . S
C1280 H1265 0.960 . S
C1280 H1266 0.960 . S
C1280 H1267 0.960 . S
C1280 C1279 1.524 . S
C1281 C1278 1.403 . S
C1281 C1282 1.392 . S
C1281 C1285 1.495 . S
C1282 C1281 1.392 . S
C1282 C1283 1.385 . S
C1282 C1284 1.478 . S
C1283 H1277 0.930 . S
C1283 C1279 1.400 . S
C1283 C1282 1.385 . S
C1284 C1282 1.478 . S
C1284 C1286 1.381 . S
C1284 C1290 1.383 . S
C1285 C1281 1.495 . S
C1285 H1291 0.959 . S
C1285 H1292 0.961 . S
C1285 H1293 0.960 . S
C1286 C1284 1.381 . S
C1286 C1287 1.394 . S
C1286 H1294 0.930 . S
C1287 C1286 1.394 . S
C1287 C1288 1.383 . S
C1287 H1295 0.929 . S
C1288 C1287 1.383 . S
C1288 C1289 1.377 . S
C1289 H1273 0.930 . S
C1289 C1288 1.377 . S
C1289 C1290 1.379 . S
C1290 H1274 0.931 . S
C1290 C1284 1.383 . S
C1290 C1289 1.379 . S
H1291 C1285 0.959 . S
H1292 C1285 0.961 . S
H1293 C1285 0.960 . S
H1294 C1286 0.930 . S
H1295 C1287 0.929 . S
H1296 C1304 0.929 . S
H1297 C1306 0.930 . S
H1298 C1308 0.930 . S
H1299 C1311 0.929 . S
H1300 C1314 0.930 . S
H1301 C1316 0.960 . S
H1302 C1316 0.960 . S
H1303 C1316 0.960 . S
C1304 H1296 0.929 . S
C1304 C1305 1.377 . S
C1304 C1306 1.384 . S
C1305 C1304 1.377 . S
C1305 C1311 1.390 . S
C1306 H1297 0.930 . S
C1306 C1304 1.384 . S
C1306 C1307 1.372 . S
C1307 C1306 1.372 . S
C1307 C1308 1.400 . S
C1307 C1312 1.490 . S
C1308 H1298 0.930 . S
C1308 C1307 1.400 . S
C1308 C1311 1.386 . S
H1309 C1325 0.930 . S
H1310 C1326 0.931 . S
C1311 H1299 0.929 . S
C1311 C1305 1.390 . S
C1311 C1308 1.386 . S
C1312 C1307 1.490 . S
C1312 C1314 1.395 . S
C1312 C1315 1.403 . S
H1313 C1319 0.930 . S
C1314 H1300 0.930 . S
C1314 C1312 1.395 . S
C1314 C1317 1.403 . S
C1315 C1312 1.403 . S
C1315 C1316 1.524 . S
C1315 C1319 1.400 . S
C1316 H1301 0.960 . S
C1316 H1302 0.960 . S
C1316 H1303 0.960 . S
C1316 C1315 1.524 . S
C1317 C1314 1.403 . S
C1317 C1318 1.392 . S
C1317 C1321 1.495 . S
C1318 C1317 1.392 . S
C1318 C1319 1.385 . S
C1318 C1320 1.478 . S
C1319 H1313 0.930 . S
C1319 C1315 1.400 . S
C1319 C1318 1.385 . S
C1320 C1318 1.478 . S
C1320 C1322 1.381 . S
C1320 C1326 1.383 . S
C1321 C1317 1.495 . S
C1321 H1327 0.959 . S
C1321 H1328 0.961 . S
C1321 H1329 0.960 . S
C1322 C1320 1.381 . S
C1322 C1323 1.394 . S
C1322 H1330 0.930 . S
C1323 C1322 1.394 . S
C1323 C1324 1.383 . S
C1323 H1331 0.929 . S
C1324 C1323 1.383 . S
C1324 C1325 1.377 . S
C1325 H1309 0.930 . S
C1325 C1324 1.377 . S
C1325 C1326 1.379 . S
C1326 H1310 0.931 . S
C1326 C1320 1.383 . S
C1326 C1325 1.379 . S
H1327 C1321 0.959 . S
H1328 C1321 0.961 . S
H1329 C1321 0.960 . S
H1330 C1322 0.930 . S
H1331 C1323 0.929 . S
H1332 C1340 0.929 . S
H1333 C1342 0.930 . S
H1334 C1344 0.930 . S
H1335 C1347 0.929 . S
H1336 C1350 0.930 . S
H1337 C1352 0.960 . S
H1338 C1352 0.960 . S
H1339 C1352 0.960 . S
C1340 H1332 0.929 . S
C1340 C1341 1.377 . S
C1340 C1342 1.384 . S
C1341 C1340 1.377 . S
C1341 C1347 1.390 . S
C1342 H1333 0.930 . S
C1342 C1340 1.384 . S
C1342 C1343 1.372 . S
C1343 C1342 1.372 . S
C1343 C1344 1.400 . S
C1343 C1348 1.490 . S
C1344 H1334 0.930 . S
C1344 C1343 1.400 . S
C1344 C1347 1.386 . S
H1345 C1361 0.930 . S
H1346 C1362 0.931 . S
C1347 H1335 0.929 . S
C1347 C1341 1.390 . S
C1347 C1344 1.386 . S
C1348 C1343 1.490 . S
C1348 C1350 1.395 . S
C1348 C1351 1.403 . S
H1349 C1355 0.930 . S
C1350 H1336 0.930 . S
C1350 C1348 1.395 . S
C1350 C1353 1.403 . S
C1351 C1348 1.403 . S
C1351 C1352 1.524 . S
C1351 C1355 1.400 . S
C1352 H1337 0.960 . S
C1352 H1338 0.960 . S
C1352 H1339 0.960 . S
C1352 C1351 1.524 . S
C1353 C1350 1.403 . S
C1353 C1354 1.392 . S
C1353 C1357 1.495 . S
C1354 C1353 1.392 . S
C1354 C1355 1.385 . S
C1354 C1356 1.478 . S
C1355 H1349 0.930 . S
C1355 C1351 1.400 . S
C1355 C1354 1.385 . S
C1356 C1354 1.478 . S
C1356 C1358 1.381 . S
C1356 C1362 1.383 . S
C1357 C1353 1.495 . S
C1357 H1363 0.959 . S
C1357 H1364 0.961 . S
C1357 H1365 0.960 . S
C1358 C1356 1.381 . S
C1358 C1359 1.394 . S
C1358 H1366 0.930 . S
C1359 C1358 1.394 . S
C1359 C1360 1.383 . S
C1359 H1367 0.929 . S
C1360 C1359 1.383 . S
C1360 C1361 1.377 . S
C1361 H1345 0.930 . S
C1361 C1360 1.377 . S
C1361 C1362 1.379 . S
C1362 H1346 0.931 . S
C1362 C1356 1.383 . S
C1362 C1361 1.379 . S
H1363 C1357 0.959 . S
H1364 C1357 0.961 . S
H1365 C1357 0.960 . S
H1366 C1358 0.930 . S
H1367 C1359 0.929 . S
H1368 C1376 0.929 . S
H1369 C1378 0.930 . S
H1370 C1380 0.930 . S
H1371 C1383 0.929 . S
H1372 C1386 0.930 . S
H1373 C1388 0.960 . S
H1374 C1388 0.960 . S
H1375 C1388 0.960 . S
C1376 H1368 0.929 . S
C1376 C1377 1.377 . S
C1376 C1378 1.384 . S
C1377 C1376 1.377 . S
C1377 C1383 1.390 . S
C1378 H1369 0.930 . S
C1378 C1376 1.384 . S
C1378 C1379 1.372 . S
C1379 C1378 1.372 . S
C1379 C1380 1.400 . S
C1379 C1384 1.490 . S
C1380 H1370 0.930 . S
C1380 C1379 1.400 . S
C1380 C1383 1.386 . S
H1381 C1397 0.930 . S
H1382 C1398 0.931 . S
C1383 H1371 0.929 . S
C1383 C1377 1.390 . S
C1383 C1380 1.386 . S
C1384 C1379 1.490 . S
C1384 C1386 1.395 . S
C1384 C1387 1.403 . S
H1385 C1391 0.930 . S
C1386 H1372 0.930 . S
C1386 C1384 1.395 . S
C1386 C1389 1.403 . S
C1387 C1384 1.403 . S
C1387 C1388 1.524 . S
C1387 C1391 1.400 . S
C1388 H1373 0.960 . S
C1388 H1374 0.960 . S
C1388 H1375 0.960 . S
C1388 C1387 1.524 . S
C1389 C1386 1.403 . S
C1389 C1390 1.392 . S
C1389 C1393 1.495 . S
C1390 C1389 1.392 . S
C1390 C1391 1.385 . S
C1390 C1392 1.478 . S
C1391 H1385 0.930 . S
C1391 C1387 1.400 . S
C1391 C1390 1.385 . S
C1392 C1390 1.478 . S
C1392 C1394 1.381 . S
C1392 C1398 1.383 . S
C1393 C1389 1.495 . S
C1393 H1399 0.959 . S
C1393 H1400 0.961 . S
C1393 H1401 0.960 . S
C1394 C1392 1.381 . S
C1394 C1395 1.394 . S
C1394 H1402 0.930 . S
C1395 C1394 1.394 . S
C1395 C1396 1.383 . S
C1395 H1403 0.929 . S
C1396 C1395 1.383 . S
C1396 C1397 1.377 . S
C1397 H1381 0.930 . S
C1397 C1396 1.377 . S
C1397 C1398 1.379 . S
C1398 H1382 0.931 . S
C1398 C1392 1.383 . S
C1398 C1397 1.379 . S
H1399 C1393 0.959 . S
H1400 C1393 0.961 . S
H1401 C1393 0.960 . S
H1402 C1394 0.930 . S
H1403 C1395 0.929 . S
H1404 C1412 0.929 . S
H1405 C1414 0.930 . S
H1406 C1416 0.930 . S
H1407 C1419 0.929 . S
H1408 C1422 0.930 . S
H1409 C1424 0.960 . S
H1410 C1424 0.960 . S
H1411 C1424 0.960 . S
C1412 H1404 0.929 . S
C1412 C1413 1.377 . S
C1412 C1414 1.384 . S
C1413 C1412 1.377 . S
C1413 C1419 1.390 . S
C1414 H1405 0.930 . S
C1414 C1412 1.384 . S
C1414 C1415 1.372 . S
C1415 C1414 1.372 . S
C1415 C1416 1.400 . S
C1415 C1420 1.490 . S
C1416 H1406 0.930 . S
C1416 C1415 1.400 . S
C1416 C1419 1.386 . S
H1417 C1433 0.930 . S
H1418 C1434 0.931 . S
C1419 H1407 0.929 . S
C1419 C1413 1.390 . S
C1419 C1416 1.386 . S
C1420 C1415 1.490 . S
C1420 C1422 1.395 . S
C1420 C1423 1.403 . S
H1421 C1427 0.930 . S
C1422 H1408 0.930 . S
C1422 C1420 1.395 . S
C1422 C1425 1.403 . S
C1423 C1420 1.403 . S
C1423 C1424 1.524 . S
C1423 C1427 1.400 . S
C1424 H1409 0.960 . S
C1424 H1410 0.960 . S
C1424 H1411 0.960 . S
C1424 C1423 1.524 . S
C1425 C1422 1.403 . S
C1425 C1426 1.392 . S
C1425 C1429 1.495 . S
C1426 C1425 1.392 . S
C1426 C1427 1.385 . S
C1426 C1428 1.478 . S
C1427 H1421 0.930 . S
C1427 C1423 1.400 . S
C1427 C1426 1.385 . S
C1428 C1426 1.478 . S
C1428 C1430 1.381 . S
C1428 C1434 1.383 . S
C1429 C1425 1.495 . S
C1429 H1435 0.959 . S
C1429 H1436 0.961 . S
C1429 H1437 0.960 . S
C1430 C1428 1.381 . S
C1430 C1431 1.394 . S
C1430 H1438 0.930 . S
C1431 C1430 1.394 . S
C1431 C1432 1.383 . S
C1431 H1439 0.929 . S
C1432 C1431 1.383 . S
C1432 C1433 1.377 . S
C1433 H1417 0.930 . S
C1433 C1432 1.377 . S
C1433 C1434 1.379 . S
C1434 H1418 0.931 . S
C1434 C1428 1.383 . S
C1434 C1433 1.379 . S
H1435 C1429 0.959 . S
H1436 C1429 0.961 . S
H1437 C1429 0.960 . S
H1438 C1430 0.930 . S
H1439 C1431 0.929 . S
H1440 C1448 0.929 . S
H1441 C1450 0.930 . S
H1442 C1452 0.930 . S
H1443 C1455 0.929 . S
H1444 C1458 0.930 1_545 S
H1445 C1460 0.960 . S
H1446 C1460 0.960 . S
H1447 C1460 0.960 . S
C1448 H1440 0.929 . S
C1448 C1449 1.363 1_545 S
C1448 C1450 1.384 . S
C1449 C1448 1.363 1_565 S
C1449 C1455 1.462 . S
C1450 H1441 0.930 . S
C1450 C1448 1.384 . S
C1450 C1451 1.372 1_545 S
C1451 C1450 1.372 1_565 S
C1451 C1452 1.400 . S
C1451 C1456 1.490 . S
C1452 H1442 0.930 . S
C1452 C1451 1.400 . S
C1452 C1455 1.386 . S
H1453 C1469 0.930 . S
H1454 C1470 0.931 . S
C1455 H1443 0.929 . S
C1455 C1449 1.462 . S
C1455 C1452 1.386 . S
C1456 C1451 1.490 . S
C1456 C1458 1.395 . S
C1456 C1459 1.403 . S
H1457 C1463 0.930 . S
C1458 H1444 0.930 1_565 S
C1458 C1456 1.395 . S
C1458 C1461 1.403 . S
C1459 C1456 1.403 . S
C1459 C1460 1.524 . S
C1459 C1463 1.400 . S
C1460 H1445 0.960 . S
C1460 H1446 0.960 . S
C1460 H1447 0.960 . S
C1460 C1459 1.524 . S
C1461 C1458 1.403 . S
C1461 C1462 1.392 . S
C1461 C1465 1.495 1_565 S
C1462 C1461 1.392 . S
C1462 C1463 1.385 . S
C1462 C1464 1.478 . S
C1463 H1457 0.930 . S
C1463 C1459 1.400 . S
C1463 C1462 1.385 . S
C1464 C1462 1.478 . S
C1464 C1466 1.381 . S
C1464 C1470 1.383 . S
C1465 C1461 1.495 1_545 S
C1465 H1471 0.959 . S
C1465 H1472 0.961 1_545 S
C1465 H1473 0.960 . S
C1466 C1464 1.381 . S
C1466 C1467 1.394 . S
C1466 H1474 0.930 . S
C1467 C1466 1.394 . S
C1467 C1468 1.383 . S
C1467 H1475 0.929 . S
C1468 C1467 1.383 . S
C1468 C1469 1.377 . S
C1469 H1453 0.930 . S
C1469 C1468 1.377 . S
C1469 C1470 1.379 . S
C1470 H1454 0.931 . S
C1470 C1464 1.383 . S
C1470 C1469 1.379 . S
H1471 C1465 0.959 . S
H1472 C1465 0.961 1_565 S
H1473 C1465 0.960 . S
H1474 C1466 0.930 . S
H1475 C1467 0.929 . S
H1476 C1484 0.929 . S
H1477 C1486 0.930 . S
H1478 C1488 0.930 . S
H1479 C1491 0.929 . S
H1480 C1494 0.930 . S
H1481 C1496 0.960 . S
H1482 C1496 0.960 . S
H1483 C1496 0.960 . S
C1484 H1476 0.929 . S
C1484 C1485 1.377 . S
C1484 C1486 1.384 . S
C1485 C1484 1.377 . S
C1485 C1491 1.390 . S
C1486 H1477 0.930 . S
C1486 C1484 1.384 . S
C1486 C1487 1.372 . S
C1487 C1486 1.372 . S
C1487 C1488 1.400 . S
C1487 C1492 1.490 . S
C1488 H1478 0.930 . S
C1488 C1487 1.400 . S
C1488 C1491 1.386 . S
H1489 C1505 0.930 . S
H1490 C1506 0.931 . S
C1491 H1479 0.929 . S
C1491 C1485 1.390 . S
C1491 C1488 1.386 . S
C1492 C1487 1.490 . S
C1492 C1494 1.395 . S
C1492 C1495 1.403 . S
H1493 C1499 0.930 . S
C1494 H1480 0.930 . S
C1494 C1492 1.395 . S
C1494 C1497 1.403 . S
C1495 C1492 1.403 . S
C1495 C1496 1.524 . S
C1495 C1499 1.400 . S
C1496 H1481 0.960 . S
C1496 H1482 0.960 . S
C1496 H1483 0.960 . S
C1496 C1495 1.524 . S
C1497 C1494 1.403 . S
C1497 C1498 1.392 . S
C1497 C1501 1.495 . S
C1498 C1497 1.392 . S
C1498 C1499 1.385 . S
C1498 C1500 1.478 . S
C1499 H1493 0.930 . S
C1499 C1495 1.400 . S
C1499 C1498 1.385 . S
C1500 C1498 1.478 . S
C1500 C1502 1.381 . S
C1500 C1506 1.383 . S
C1501 C1497 1.495 . S
C1501 H1507 0.959 . S
C1501 H1508 0.961 . S
C1501 H1509 0.960 . S
C1502 C1500 1.381 . S
C1502 C1503 1.394 . S
C1502 H1510 0.930 . S
C1503 C1502 1.394 . S
C1503 C1504 1.383 . S
C1503 H1511 0.929 . S
C1504 C1503 1.383 . S
C1504 C1505 1.377 . S
C1505 H1489 0.930 . S
C1505 C1504 1.377 . S
C1505 C1506 1.379 . S
C1506 H1490 0.931 . S
C1506 C1500 1.383 . S
C1506 C1505 1.379 . S
H1507 C1501 0.959 . S
H1508 C1501 0.961 . S
H1509 C1501 0.960 . S
H1510 C1502 0.930 . S
H1511 C1503 0.929 . S
H1512 C1520 0.929 . S
H1513 C1522 0.930 . S
H1514 C1524 0.930 . S
H1515 C1527 0.929 . S
H1516 C1530 0.930 . S
H1517 C1532 0.960 . S
H1518 C1532 0.960 . S
H1519 C1532 0.960 . S
C1520 H1512 0.929 . S
C1520 C1521 1.377 . S
C1520 C1522 1.384 . S
C1521 C1520 1.377 . S
C1521 C1527 1.390 . S
C1522 H1513 0.930 . S
C1522 C1520 1.384 . S
C1522 C1523 1.372 . S
C1523 C1522 1.372 . S
C1523 C1524 1.400 . S
C1523 C1528 1.490 . S
C1524 H1514 0.930 . S
C1524 C1523 1.400 . S
C1524 C1527 1.386 . S
H1525 C1541 0.930 . S
H1526 C1542 0.931 . S
C1527 H1515 0.929 . S
C1527 C1521 1.390 . S
C1527 C1524 1.386 . S
C1528 C1523 1.490 . S
C1528 C1530 1.395 . S
C1528 C1531 1.403 . S
H1529 C1535 0.930 . S
C1530 H1516 0.930 . S
C1530 C1528 1.395 . S
C1530 C1533 1.403 . S
C1531 C1528 1.403 . S
C1531 C1532 1.524 . S
C1531 C1535 1.400 . S
C1532 H1517 0.960 . S
C1532 H1518 0.960 . S
C1532 H1519 0.960 . S
C1532 C1531 1.524 . S
C1533 C1530 1.403 . S
C1533 C1534 1.392 . S
C1533 C1537 1.495 . S
C1534 C1533 1.392 . S
C1534 C1535 1.385 . S
C1534 C1536 1.478 . S
C1535 H1529 0.930 . S
C1535 C1531 1.400 . S
C1535 C1534 1.385 . S
C1536 C1534 1.478 . S
C1536 C1538 1.381 . S
C1536 C1542 1.383 . S
C1537 C1533 1.495 . S
C1537 H1543 0.959 . S
C1537 H1544 0.961 . S
C1537 H1545 0.960 . S
C1538 C1536 1.381 . S
C1538 C1539 1.394 . S
C1538 H1546 0.930 . S
C1539 C1538 1.394 . S
C1539 C1540 1.383 . S
C1539 H1547 0.929 . S
C1540 C1539 1.383 . S
C1540 C1541 1.377 . S
C1541 H1525 0.930 . S
C1541 C1540 1.377 . S
C1541 C1542 1.379 . S
C1542 H1526 0.931 . S
C1542 C1536 1.383 . S
C1542 C1541 1.379 . S
H1543 C1537 0.959 . S
H1544 C1537 0.961 . S
H1545 C1537 0.960 . S
H1546 C1538 0.930 . S
H1547 C1539 0.929 . S
H1548 C1556 0.929 . S
H1549 C1558 0.930 . S
H1550 C1560 0.930 . S
H1551 C1563 0.929 . S
H1552 C1566 0.930 . S
H1553 C1568 0.960 . S
H1554 C1568 0.960 1_565 S
H1555 C1568 0.960 . S
C1556 H1548 0.929 . S
C1556 C1557 1.377 . S
C1556 C1558 1.384 . S
C1557 C1556 1.377 . S
C1557 C1563 1.390 . S
C1558 H1549 0.930 . S
C1558 C1556 1.384 . S
C1558 C1559 1.372 1_565 S
C1559 C1558 1.372 1_545 S
C1559 C1560 1.400 . S
C1559 C1564 1.490 . S
C1560 H1550 0.930 . S
C1560 C1559 1.400 . S
C1560 C1563 1.386 1_545 S
H1561 C1577 0.930 . S
H1562 C1578 0.931 . S
C1563 H1551 0.929 . S
C1563 C1557 1.390 . S
C1563 C1560 1.386 1_565 S
C1564 C1559 1.490 . S
C1564 C1566 1.395 . S
C1564 C1567 1.403 . S
H1565 C1571 0.930 . S
C1566 H1552 0.930 . S
C1566 C1564 1.395 . S
C1566 C1569 1.403 . S
C1567 C1564 1.403 . S
C1567 C1568 1.524 . S
C1567 C1571 1.400 . S
C1568 H1553 0.960 . S
C1568 H1554 0.960 1_545 S
C1568 H1555 0.960 . S
C1568 C1567 1.524 . S
C1569 C1566 1.403 . S
C1569 C1570 1.392 . S
C1569 C1573 1.495 . S
C1570 C1569 1.392 . S
C1570 C1571 1.385 . S
C1570 C1572 1.478 . S
C1571 H1565 0.930 . S
C1571 C1567 1.400 . S
C1571 C1570 1.385 . S
C1572 C1570 1.478 . S
C1572 C1574 1.381 . S
C1572 C1578 1.383 . S
C1573 C1569 1.495 . S
C1573 H1579 0.959 . S
C1573 H1580 0.961 . S
C1573 H1581 0.960 . S
C1574 C1572 1.381 . S
C1574 C1575 1.394 . S
C1574 H1582 0.930 . S
C1575 C1574 1.394 . S
C1575 C1576 1.383 . S
C1575 H1583 0.929 . S
C1576 C1575 1.383 . S
C1576 C1577 1.377 . S
C1577 H1561 0.930 . S
C1577 C1576 1.377 . S
C1577 C1578 1.379 . S
C1578 H1562 0.931 . S
C1578 C1572 1.383 . S
C1578 C1577 1.379 . S
H1579 C1573 0.959 . S
H1580 C1573 0.961 . S
H1581 C1573 0.960 . S
H1582 C1574 0.930 . S
H1583 C1575 0.929 . S
H1584 C1592 0.929 . S
H1585 C1594 0.930 . S
H1586 C1596 0.919 . S
H1587 C1599 0.929 . S
H1588 C1602 0.930 . S
H1589 C1604 0.968 . S
H1590 C1604 0.996 . S
H1591 C1604 0.968 . S
C1592 H1584 0.929 . S
C1592 C1593 1.377 1_545 S
C1592 C1594 1.384 . S
C1593 C1592 1.377 1_565 S
C1593 C1599 1.390 . S
C1594 H1585 0.930 . S
C1594 C1592 1.384 . S
C1594 C1595 1.372 . S
C1595 C1594 1.372 . S
C1595 C1596 1.384 1_545 S
C1595 C1600 1.490 . S
C1596 H1586 0.919 . S
C1596 C1595 1.384 1_565 S
C1596 C1599 1.415 . S
H1597 C1613 0.930 . S
H1598 C1614 0.931 . S
C1599 H1587 0.929 . S
C1599 C1593 1.390 . S
C1599 C1596 1.415 . S
C1600 C1595 1.490 . S
C1600 C1602 1.395 . S
C1600 C1603 1.403 . S
H1601 C1607 0.930 . S
C1602 H1588 0.930 . S
C1602 C1600 1.395 . S
C1602 C1605 1.403 . S
C1603 C1600 1.403 . S
C1603 C1604 1.476 1_545 S
C1603 C1607 1.400 . S
C1604 H1589 0.968 . S
C1604 H1590 0.996 . S
C1604 H1591 0.968 . S
C1604 C1603 1.476 1_565 S
C1605 C1602 1.403 . S
C1605 C1606 1.392 . S
C1605 C1609 1.495 . S
C1606 C1605 1.392 . S
C1606 C1607 1.385 . S
C1606 C1608 1.478 . S
C1607 H1601 0.930 . S
C1607 C1603 1.400 . S
C1607 C1606 1.385 . S
C1608 C1606 1.478 . S
C1608 C1610 1.381 . S
C1608 C1614 1.383 . S
C1609 C1605 1.495 . S
C1609 H1615 0.959 . S
C1609 H1616 0.961 . S
C1609 H1617 0.960 . S
C1610 C1608 1.381 . S
C1610 C1611 1.394 . S
C1610 H1618 0.930 . S
C1611 C1610 1.394 . S
C1611 C1612 1.383 . S
C1611 H1619 0.929 . S
C1612 C1611 1.383 . S
C1612 C1613 1.377 . S
C1613 H1597 0.930 . S
C1613 C1612 1.377 . S
C1613 C1614 1.379 . S
C1614 H1598 0.931 . S
C1614 C1608 1.383 . S
C1614 C1613 1.379 . S
H1615 C1609 0.959 . S
H1616 C1609 0.961 . S
H1617 C1609 0.960 . S
H1618 C1610 0.930 . S
H1619 C1611 0.929 . S
H1620 C1628 0.929 . S
H1621 C1630 0.930 . S
H1622 C1632 0.930 . S
H1623 C1635 0.929 . S
H1624 C1638 0.930 . S
H1625 C1640 0.960 . S
H1626 C1640 0.960 . S
H1627 C1640 0.960 . S
C1628 H1620 0.929 . S
C1628 C1629 1.377 . S
C1628 C1630 1.384 . S
C1629 C1628 1.377 . S
C1629 C1635 1.390 . S
C1630 H1621 0.930 . S
C1630 C1628 1.384 . S
C1630 C1631 1.372 . S
C1631 C1630 1.372 . S
C1631 C1632 1.400 . S
C1631 C1636 1.490 . S
C1632 H1622 0.930 . S
C1632 C1631 1.400 . S
C1632 C1635 1.386 . S
H1633 C1649 0.930 . S
H1634 C1650 0.931 . S
C1635 H1623 0.929 . S
C1635 C1629 1.390 . S
C1635 C1632 1.386 . S
C1636 C1631 1.490 . S
C1636 C1638 1.395 . S
C1636 C1639 1.403 . S
H1637 C1643 0.930 . S
C1638 H1624 0.930 . S
C1638 C1636 1.395 . S
C1638 C1641 1.403 . S
C1639 C1636 1.403 . S
C1639 C1640 1.524 . S
C1639 C1643 1.400 . S
C1640 H1625 0.960 . S
C1640 H1626 0.960 . S
C1640 H1627 0.960 . S
C1640 C1639 1.524 . S
C1641 C1638 1.403 . S
C1641 C1642 1.392 . S
C1641 C1645 1.495 . S
C1642 C1641 1.392 . S
C1642 C1643 1.385 . S
C1642 C1644 1.478 . S
C1643 H1637 0.930 . S
C1643 C1639 1.400 . S
C1643 C1642 1.385 . S
C1644 C1642 1.478 . S
C1644 C1646 1.381 . S
C1644 C1650 1.383 . S
C1645 C1641 1.495 . S
C1645 H1651 0.959 . S
C1645 H1652 0.961 . S
C1645 H1653 0.960 . S
C1646 C1644 1.381 . S
C1646 C1647 1.394 . S
C1646 H1654 0.930 . S
C1647 C1646 1.394 . S
C1647 C1648 1.383 . S
C1647 H1655 0.929 . S
C1648 C1647 1.383 . S
C1648 C1649 1.377 . S
C1649 H1633 0.930 . S
C1649 C1648 1.377 . S
C1649 C1650 1.379 . S
C1650 H1634 0.931 . S
C1650 C1644 1.383 . S
C1650 C1649 1.379 . S
H1651 C1645 0.959 . S
H1652 C1645 0.961 . S
H1653 C1645 0.960 . S
H1654 C1646 0.930 . S
H1655 C1647 0.929 . S
H1656 C1664 0.929 . S
H1657 C1666 0.930 . S
H1658 C1668 0.930 . S
H1659 C1671 0.929 . S
H1660 C1674 0.930 . S
H1661 C1676 0.960 . S
H1662 C1676 0.960 . S
H1663 C1676 0.960 . S
C1664 H1656 0.929 . S
C1664 C1665 1.377 . S
C1664 C1666 1.384 . S
C1665 C1664 1.377 . S
C1665 C1671 1.390 . S
C1666 H1657 0.930 . S
C1666 C1664 1.384 . S
C1666 C1667 1.372 . S
C1667 C1666 1.372 . S
C1667 C1668 1.400 . S
C1667 C1672 1.490 . S
C1668 H1658 0.930 . S
C1668 C1667 1.400 . S
C1668 C1671 1.386 . S
H1669 C1685 0.930 . S
H1670 C1686 0.931 . S
C1671 H1659 0.929 . S
C1671 C1665 1.390 . S
C1671 C1668 1.386 . S
C1672 C1667 1.490 . S
C1672 C1674 1.395 . S
C1672 C1675 1.403 . S
H1673 C1679 0.930 . S
C1674 H1660 0.930 . S
C1674 C1672 1.395 . S
C1674 C1677 1.403 . S
C1675 C1672 1.403 . S
C1675 C1676 1.524 . S
C1675 C1679 1.400 . S
C1676 H1661 0.960 . S
C1676 H1662 0.960 . S
C1676 H1663 0.960 . S
C1676 C1675 1.524 . S
C1677 C1674 1.403 . S
C1677 C1678 1.392 . S
C1677 C1681 1.495 . S
C1678 C1677 1.392 . S
C1678 C1679 1.385 . S
C1678 C1680 1.478 . S
C1679 H1673 0.930 . S
C1679 C1675 1.400 . S
C1679 C1678 1.385 . S
C1680 C1678 1.478 . S
C1680 C1682 1.381 . S
C1680 C1686 1.383 . S
C1681 C1677 1.495 . S
C1681 H1687 0.959 . S
C1681 H1688 0.961 . S
C1681 H1689 0.960 . S
C1682 C1680 1.381 . S
C1682 C1683 1.394 . S
C1682 H1690 0.930 . S
C1683 C1682 1.394 . S
C1683 C1684 1.383 . S
C1683 H1691 0.929 . S
C1684 C1683 1.383 . S
C1684 C1685 1.377 . S
C1685 H1669 0.930 . S
C1685 C1684 1.377 . S
C1685 C1686 1.379 . S
C1686 H1670 0.931 . S
C1686 C1680 1.383 . S
C1686 C1685 1.379 . S
H1687 C1681 0.959 . S
H1688 C1681 0.961 . S
H1689 C1681 0.960 . S
H1690 C1682 0.930 . S
H1691 C1683 0.929 . S
C729 C135 1.497 . S
C748 C15 1.493 . S
C765 C55 1.497 . S
C784 C175 1.495 . S
C801 C215 1.496 . S
C820 C95 1.492 . S
C837 C375 1.500 . S
C856 C255 1.498 . S
C873 C415 1.501 . S
C892 C295 1.499 . S
C909 C335 1.502 . S
C928 C455 1.500 . S
C945 C615 1.504 . S
C964 C495 1.502 . S
C981 C655 1.505 . S
C1000 C535 1.499 . S
C1017 C575 1.509 . S
C1036 C695 1.496 . S
C1053 C341 1.496 . S
C1072 C2 1.480 1_565 S
C1089 C242 1.484 . S
C1108 C61 1.495 . S
C1125 C282 1.502 . S
C1144 C82 1.507 . S
C1161 C42 1.496 . S
C1180 C562 1.488 . S
C1197 C482 1.478 . S
C1216 C101 1.492 . S
C1233 C21 1.491 . S
C1252 C541 1.494 . S
C1269 C682 1.497 . S
C1288 C122 1.477 . S
C1305 C621 1.494 . S
C1324 C162 1.495 . S
C1341 C221 1.474 . S
C1360 C661 1.484 . S
C1377 C442 1.477 . S
C1396 C181 1.466 . S
C1413 C362 1.498 . S
C1432 C202 1.485 . S
C1449 C141 1.437 1_565 S
C1468 C402 1.497 . S
C1485 C261 1.483 . S
C1504 C581 1.497 . S
C1521 C501 1.480 . S
C1540 C301 1.481 . S
C1557 C322 1.496 . S
C1576 C522 1.478 . S
C1593 C421 1.477 . S
C1612 C701 1.470 . S
C1629 C461 1.488 . S
C1648 C602 1.478 . S
C1665 C381 1.491 . S
C1684 C642 1.496 . S
