# Generated by pormake.
# Topology vmx, (8)-cn, num edge types: 1
# Building blocks:
#     Node 0, Type 0, BuildingBlock: TAGTUT_clean_sbu_3, # of connection points: 8
#     Node 1, Type 0, BuildingBlock: TAGTUT_clean_sbu_3, # of connection points: 8
#     Node 2, Type 0, BuildingBlock: TAGTUT_clean_sbu_3, # of connection points: 8
#     Node 3, Type 0, BuildingBlock: TAGTUT_clean_sbu_3, # of connection points: 8
#     Node 4, Type 0, BuildingBlock: TAGTUT_clean_sbu_3, # of connection points: 8
#     Node 5, Type 0, BuildingBlock: TAGTUT_clean_sbu_3, # of connection points: 8
#     Node 6, Type 0, BuildingBlock: TAGTUT_clean_sbu_3, # of connection points: 8
#     Node 7, Type 0, BuildingBlock: TAGTUT_clean_sbu_3, # of connection points: 8
#     Edge 8, Type (0, 0), BuildingBlock: UVAHIK_clean_linker_0, # of connection points: 2
#     Edge 9, Type (0, 0), BuildingBlock: UVAHIK_clean_linker_0, # of connection points: 2
#     Edge 10, Type (0, 0), BuildingBlock: UVAHIK_clean_linker_0, # of connection points: 2
#     Edge 11, Type (0, 0), BuildingBlock: UVAHIK_clean_linker_0, # of connection points: 2
#     Edge 12, Type (0, 0), BuildingBlock: UVAHIK_clean_linker_0, # of connection points: 2
#     Edge 13, Type (0, 0), BuildingBlock: UVAHIK_clean_linker_0, # of connection points: 2
#     Edge 14, Type (0, 0), BuildingBlock: UVAHIK_clean_linker_0, # of connection points: 2
#     Edge 15, Type (0, 0), BuildingBlock: UVAHIK_clean_linker_0, # of connection points: 2
#     Edge 16, Type (0, 0), BuildingBlock: UVAHIK_clean_linker_0, # of connection points: 2
#     Edge 17, Type (0, 0), BuildingBlock: UVAHIK_clean_linker_0, # of connection points: 2
#     Edge 18, Type (0, 0), BuildingBlock: UVAHIK_clean_linker_0, # of connection points: 2
#     Edge 19, Type (0, 0), BuildingBlock: UVAHIK_clean_linker_0, # of connection points: 2
#     Edge 20, Type (0, 0), BuildingBlock: UVAHIK_clean_linker_0, # of connection points: 2
#     Edge 21, Type (0, 0), BuildingBlock: UVAHIK_clean_linker_0, # of connection points: 2
#     Edge 22, Type (0, 0), BuildingBlock: UVAHIK_clean_linker_0, # of connection points: 2
#     Edge 23, Type (0, 0), BuildingBlock: UVAHIK_clean_linker_0, # of connection points: 2
#     Edge 24, Type (0, 0), BuildingBlock: UVAHIK_clean_linker_0, # of connection points: 2
#     Edge 25, Type (0, 0), BuildingBlock: UVAHIK_clean_linker_0, # of connection points: 2
#     Edge 26, Type (0, 0), BuildingBlock: UVAHIK_clean_linker_0, # of connection points: 2
#     Edge 27, Type (0, 0), BuildingBlock: UVAHIK_clean_linker_0, # of connection points: 2
#     Edge 28, Type (0, 0), BuildingBlock: UVAHIK_clean_linker_0, # of connection points: 2
#     Edge 29, Type (0, 0), BuildingBlock: UVAHIK_clean_linker_0, # of connection points: 2
#     Edge 30, Type (0, 0), BuildingBlock: UVAHIK_clean_linker_0, # of connection points: 2
#     Edge 31, Type (0, 0), BuildingBlock: UVAHIK_clean_linker_0, # of connection points: 2
#     Edge 32, Type (0, 0), BuildingBlock: UVAHIK_clean_linker_0, # of connection points: 2
#     Edge 33, Type (0, 0), BuildingBlock: UVAHIK_clean_linker_0, # of connection points: 2
#     Edge 34, Type (0, 0), BuildingBlock: UVAHIK_clean_linker_0, # of connection points: 2
#     Edge 35, Type (0, 0), BuildingBlock: UVAHIK_clean_linker_0, # of connection points: 2
#     Edge 36, Type (0, 0), BuildingBlock: UVAHIK_clean_linker_0, # of connection points: 2
#     Edge 37, Type (0, 0), BuildingBlock: UVAHIK_clean_linker_0, # of connection points: 2
#     Edge 38, Type (0, 0), BuildingBlock: UVAHIK_clean_linker_0, # of connection points: 2
#     Edge 39, Type (0, 0), BuildingBlock: UVAHIK_clean_linker_0, # of connection points: 2
# Relax obj value: 0.255
# Max RMSD: 0.282
# Mean RMSD: 0.282
data_MOF--net-vmx--node1-TAGTUT_clean_sbu_3--edge1-UVAHIK_clean_linker_0
_symmetry_space_group_name_H-M    P1
_symmetry_Int_Tables_number       1
_symmetry_cell_setting            triclinic
loop_
_symmetry_equiv_pos_as_xyz
'x, y, z'
_cell_length_a     37.998265
_cell_length_b     74.689447
_cell_length_c     22.372778
_cell_angle_alpha  89.997312
_cell_angle_beta   105.91987
_cell_angle_gamma 89.971945
loop_
_atom_site_label
_atom_site_type_symbol
_atom_site_fract_x
_atom_site_fract_y
_atom_site_fract_z
_atom_type_partial_charge
C0 C 0.32629 0.36659 0.42567 0.0
C1 C 0.29096 0.32293 0.23751 0.0
C2 C 0.21059 0.3635 0.15759 0.0
Mg3 Mg 0.28242 0.397 0.46948 0.0
Mg4 Mg 0.19282 0.4015 0.4377 0.0
O5 O 0.23243 0.39555 0.40878 0.0
Mg6 Mg 0.23976 0.3735 0.3618 0.0
O7 O 0.25412 0.35292 0.31619 0.0
Mg8 Mg 0.28788 0.3663 0.27663 0.0
Mg9 Mg 0.2204 0.33738 0.26505 0.0
C10 C 0.15208 0.38485 0.30516 0.0
O11 O 0.2123 0.3525 0.41067 0.0
O12 O 0.2672 0.42435 0.50129 0.0
O13 O 0.19124 0.33216 0.33396 0.0
O14 O 0.26111 0.3833 0.54618 0.0
O15 O 0.20659 0.42887 0.4684 0.0
O16 O 0.19983 0.38424 0.5154 0.0
O17 O 0.2678 0.39238 0.31051 0.0
O18 O 0.2985 0.41012 0.38771 0.0
C19 C 0.28868 0.40582 0.32995 0.0
C20 C 0.23903 0.4343 0.49558 0.0
O21 O 0.18083 0.37734 0.29641 0.0
O22 O 0.30361 0.33894 0.24505 0.0
O23 O 0.15214 0.39379 0.35423 0.0
O24 O 0.24294 0.3689 0.18475 0.0
O25 O 0.25994 0.31859 0.24566 0.0
O26 O 0.19437 0.35185 0.18214 0.0
O27 O 0.2945 0.37028 0.43082 0.0
O28 O 0.33158 0.36395 0.37217 0.0
C29 C 0.22975 0.37933 0.55363 0.0
C30 C 0.1937 0.33839 0.38857 0.0
C31 C 0.61086 0.37 0.00222 0.0
C32 C 0.61728 0.32695 0.18735 0.0
C33 C 0.71332 0.35844 0.27719 0.0
Mg34 Mg 0.67124 0.39313 0.96666 0.0
Mg35 Mg 0.76063 0.38674 0.01037 0.0
O36 O 0.71734 0.38767 0.0336 0.0
Mg37 Mg 0.69712 0.36825 0.07674 0.0
O38 O 0.67094 0.35072 0.11693 0.0
Mg39 Mg 0.64214 0.36829 0.15283 0.0
Mg40 Mg 0.69443 0.33237 0.16885 0.0
C41 C 0.78619 0.37035 0.14719 0.0
O42 O 0.71909 0.34419 0.03223 0.0
O43 O 0.70141 0.41646 0.93742 0.0
O44 O 0.7247 0.32295 0.1067 0.0
O45 O 0.68939 0.37523 0.89615 0.0
O46 O 0.76235 0.41402 0.97679 0.0
O47 O 0.74882 0.36874 0.93374 0.0
O48 O 0.67519 0.3909 0.12342 0.0
O49 O 0.65814 0.40998 0.04373 0.0
C50 C 0.66275 0.4062 0.10138 0.0
C51 C 0.73389 0.42251 0.94571 0.0
O52 O 0.75365 0.36699 0.15107 0.0
O53 O 0.61243 0.34392 0.17999 0.0
O54 O 0.79326 0.37696 0.09878 0.0
O55 O 0.68458 0.36721 0.24907 0.0
O56 O 0.64634 0.31908 0.18233 0.0
O57 O 0.72417 0.34489 0.25259 0.0
O58 O 0.64432 0.3698 0.00137 0.0
O59 O 0.60224 0.36907 0.05371 0.0
C60 C 0.71841 0.36715 0.89214 0.0
C61 C 0.7299 0.32877 0.05581 0.0
C62 C 0.62205 0.61544 0.48946 0.0
C63 C 0.62022 0.66239 0.65726 0.0
C64 C 0.7174 0.63297 0.76515 0.0
Mg65 Mg 0.68552 0.59139 0.46631 0.0
Mg66 Mg 0.77388 0.60047 0.51121 0.0
O67 O 0.73013 0.59921 0.53298 0.0
Mg68 Mg 0.70722 0.61943 0.56836 0.0
O69 O 0.67872 0.63757 0.60183 0.0
Mg70 Mg 0.6496 0.62059 0.63928 0.0
Mg71 Mg 0.7002 0.65687 0.65137 0.0
C72 C 0.7958 0.62007 0.64296 0.0
O73 O 0.72808 0.64289 0.51925 0.0
O74 O 0.71877 0.56736 0.44874 0.0
O75 O 0.73173 0.66517 0.58963 0.0
O76 O 0.70369 0.60747 0.39159 0.0
O77 O 0.77914 0.57276 0.48513 0.0
O78 O 0.76144 0.61668 0.43021 0.0
O79 O 0.68554 0.59779 0.61966 0.0
O80 O 0.67101 0.57668 0.54628 0.0
C81 C 0.67372 0.5821 0.60179 0.0
C82 C 0.75223 0.56251 0.45939 0.0
O83 O 0.76264 0.62302 0.64446 0.0
O84 O 0.61668 0.64529 0.65407 0.0
O85 O 0.80434 0.61256 0.59724 0.0
O86 O 0.68942 0.62375 0.73691 0.0
O87 O 0.65012 0.6702 0.65627 0.0
O88 O 0.72863 0.6461 0.73916 0.0
O89 O 0.6558 0.61562 0.49035 0.0
O90 O 0.61237 0.61746 0.53957 0.0
C91 C 0.73165 0.61631 0.38675 0.0
C92 C 0.73785 0.6587 0.54022 0.0
C93 C 0.33665 0.635 0.92247 0.0
C94 C 0.30364 0.68102 0.74346 0.0
C95 C 0.22146 0.64169 0.65455 0.0
Mg96 Mg 0.2914 0.60512 0.96373 0.0
Mg97 Mg 0.20185 0.60183 0.93394 0.0
O98 O 0.24128 0.60716 0.90358 0.0
Mg99 Mg 0.24941 0.62951 0.85849 0.0
O100 O 0.26444 0.65036 0.81487 0.0
Mg101 Mg 0.29816 0.63723 0.77461 0.0
Mg102 Mg 0.23137 0.66654 0.76478 0.0
C103 C 0.16114 0.61903 0.80223 0.0
O104 O 0.2229 0.65031 0.90936 0.0
O105 O 0.27513 0.57796 -0.00545 0.0
O106 O 0.20254 0.67133 0.83465 0.0
O107 O 0.27139 0.61886 0.04188 0.0
O108 O 0.21428 0.57434 0.96558 0.0
O109 O 0.2101 0.61926 0.01134 0.0
O110 O 0.27653 0.6109 0.80475 0.0
O111 O 0.3061 0.59222 0.87995 0.0
C112 C 0.29648 0.59704 0.82262 0.0
C113 C 0.24664 0.56844 0.99087 0.0
O114 O 0.18998 0.62645 0.79341 0.0
O115 O 0.31588 0.66494 0.75027 0.0
O116 O 0.16118 0.60995 0.85101 0.0
O117 O 0.25361 0.63604 0.68182 0.0
O118 O 0.27167 0.6853 0.74748 0.0
O119 O 0.20504 0.65301 0.68004 0.0
O120 O 0.30465 0.63182 0.92753 0.0
O121 O 0.34185 0.63804 0.8693 0.0
C122 C 0.24045 0.62353 0.04963 0.0
C123 C 0.20486 0.6647 0.88873 0.0
C124 C 0.85519 0.87632 0.51954 0.0
C125 C 0.85822 0.8241 0.36746 0.0
C126 C 0.76361 0.85136 0.24764 0.0
Mg127 Mg 0.78957 0.90053 0.53235 0.0
Mg128 Mg 0.70118 0.89038 0.48717 0.0
O129 O 0.74609 0.89052 0.46848 0.0
Mg130 Mg 0.77086 0.86951 0.44155 0.0
O131 O 0.80027 0.85044 0.41478 0.0
Mg132 Mg 0.82896 0.86638 0.37297 0.0
Mg133 Mg 0.77776 0.83067 0.36786 0.0
C134 C 0.68339 0.86656 0.3638 0.0
O135 O 0.75042 0.84762 0.49715 0.0
O136 O 0.7541 0.92491 0.53628 0.0
O137 O 0.74577 0.82411 0.43116 0.0
O138 O 0.77129 0.88655 0.61149 0.0
O139 O 0.69406 0.91889 0.49938 0.0
O140 O 0.71345 0.87714 0.57464 0.0
O141 O 0.79143 0.88954 0.38327 0.0
O142 O 0.80417 0.9128 0.44821 0.0
C143 C 0.80178 0.90575 0.39497 0.0
C144 C 0.72052 0.92977 0.52108 0.0
O145 O 0.71707 0.86366 0.36602 0.0
O146 O 0.86252 0.84115 0.3682 0.0
O147 O 0.67298 0.87545 0.40511 0.0
O148 O 0.79127 0.8607 0.276 0.0
O149 O 0.82772 0.81663 0.36679 0.0
O150 O 0.75047 0.83932 0.2756 0.0
O151 O 0.82159 0.87578 0.51951 0.0
O152 O 0.86485 0.87265 0.47048 0.0
C153 C 0.74315 0.87819 0.61821 0.0
C154 C 0.74014 0.83159 0.47948 0.0
C155 C 0.15788 0.88646 0.06194 0.0
C156 C 0.17331 0.84335 0.25107 0.0
C157 C 0.27686 0.87034 0.32221 0.0
Mg158 Mg 0.21801 0.90419 0.00694 0.0
Mg159 Mg 0.29969 0.88736 0.02062 0.0
O160 O 0.26547 0.89432 0.0615 0.0
Mg161 Mg 0.24479 0.87762 0.1136 0.0
O162 O 0.22033 0.86304 0.16471 0.0
Mg163 Mg 0.20159 0.88284 0.20826 0.0
Mg164 Mg 0.24695 0.8451 0.21601 0.0
C165 C 0.33271 0.86861 0.15228 0.0
O166 O 0.25075 0.8512 0.06259 0.0
O167 O 0.2529 0.92444 0.97132 0.0
O168 O 0.26559 0.83209 0.14429 0.0
O169 O 0.21845 0.88542 0.92414 0.0
O170 O 0.30954 0.91333 0.98381 0.0
O171 O 0.2715 0.87071 0.94647 0.0
O172 O 0.23768 0.9024 0.16952 0.0
O173 O 0.21998 0.92177 0.09093 0.0
C174 C 0.22865 0.91828 0.14924 0.0
C175 C 0.28576 0.92588 0.96715 0.0
O176 O 0.30405 0.87101 0.17145 0.0
O177 O 0.16944 0.86032 0.24148 0.0
O178 O 0.33488 0.87319 0.0981 0.0
O179 O 0.2483 0.87962 0.29769 0.0
O180 O 0.20114 0.83466 0.24452 0.0
O181 O 0.28509 0.85669 0.29476 0.0
O182 O 0.18856 0.88364 0.05062 0.0
O183 O 0.15521 0.88614 0.11768 0.0
C184 C 0.23958 0.87359 0.91108 0.0
C185 C 0.26169 0.83581 0.08678 0.0
C186 C 0.26597 0.08188 0.59487 0.0
C187 C 0.32558 0.08262 0.41609 0.0
C188 C 0.26482 0.13118 0.35976 0.0
Mg189 Mg 0.231 0.11333 0.65993 0.0
Mg190 Mg 0.26525 0.15376 0.6707 0.0
O191 O 0.24253 0.13534 0.61738 0.0
Mg192 Mg 0.27029 0.12412 0.56378 0.0
O193 O 0.29531 0.1107 0.50967 0.0
Mg194 Mg 0.25169 0.09808 0.45453 0.0
Mg195 Mg 0.32825 0.12061 0.4711 0.0
C196 C 0.27455 0.1674 0.54213 0.0
O197 O 0.32706 0.13369 0.62223 0.0
O198 O 0.19364 0.13221 0.69735 0.0
O199 O 0.35835 0.13617 0.54967 0.0
O200 O 0.27722 0.1183 0.74916 0.0
O201 O 0.21843 0.15982 0.70395 0.0
O202 O 0.3078 0.14343 0.74582 0.0
O203 O 0.2162 0.11491 0.50066 0.0
O204 O 0.18569 0.10828 0.56981 0.0
C205 C 0.18744 0.10919 0.51356 0.0
C206 C 0.19339 0.14902 0.70995 0.0
O207 O 0.2679 0.15192 0.51597 0.0
O208 O 0.29201 0.08202 0.41672 0.0
O209 O 0.27839 0.16997 0.60031 0.0
O210 O 0.24631 0.11829 0.37369 0.0
O211 O 0.34675 0.09583 0.43794 0.0
O212 O 0.29625 0.13543 0.39445 0.0
O213 O 0.27059 0.09786 0.61641 0.0
O214 O 0.25937 0.0788 0.53649 0.0
C215 C 0.30339 0.12905 0.77335 0.0
C216 C 0.35464 0.13908 0.60417 0.0
C217 C 0.86931 0.10264 0.01206 0.0
C218 C 0.87182 0.15338 0.85531 0.0
C219 C 0.76385 0.13343 0.75819 0.0
Mg220 Mg 0.8032 0.08361 0.04623 0.0
Mg221 Mg 0.72022 0.10035 0.0275 0.0
O222 O 0.75922 0.09669 -0.0063 0.0
Mg223 Mg 0.78514 0.11546 0.9578 0.0
O224 O 0.8148 0.13195 0.92037 0.0
Mg225 Mg 0.83234 0.11388 0.86861 0.0
Mg226 Mg 0.7953 0.15314 0.87917 0.0
C227 C 0.69768 0.12607 0.90927 0.0
O228 O 0.77945 0.13893 0.02194 0.0
O229 O 0.76354 0.06224 0.06008 0.0
O230 O 0.77594 0.16245 0.95612 0.0
O231 O 0.79923 0.09848 0.13634 0.0
O232 O 0.70588 0.07262 0.04014 0.0
O233 O 0.74501 0.11244 0.11408 0.0
O234 O 0.792 0.09395 0.89121 0.0
O235 O 0.80425 0.07021 0.95408 0.0
C236 C 0.79871 0.07726 0.90003 0.0
C237 C 0.7294 0.05991 0.05415 0.0
O238 O 0.72875 0.12508 0.89689 0.0
O239 O 0.8707 0.1362 0.8538 0.0
O240 O 0.69072 0.11847 0.95623 0.0
O241 O 0.78913 0.12205 0.78019 0.0
O242 O 0.84583 0.16301 0.86439 0.0
O243 O 0.75832 0.14671 0.79022 0.0
O244 O 0.83852 0.10572 0.02274 0.0
O245 O 0.87394 0.10538 0.95832 0.0
C246 C 0.77629 0.10905 0.15094 0.0
C247 C 0.77411 0.15561 0.00795 0.0
C248 C 0.28608 0.54619 0.0613 0.0
C249 C 0.25229 0.55035 0.01876 0.0
C250 C 0.29222 0.52941 0.08911 0.0
C251 C 0.26657 0.48268 0.07408 0.0
H252 H 0.29989 0.48256 0.25415 0.0
C253 C 0.2702 0.41931 0.22388 0.0
C254 C 0.29449 0.41886 0.28394 0.0
C255 C 0.26914 0.43416 0.18552 0.0
C256 C 0.29148 0.48226 0.20385 0.0
H257 H 0.19867 0.53994 0.97112 0.0
H258 H 0.20981 0.51017 0.01979 0.0
H259 H 0.28785 0.51081 0.19879 0.0
H260 H 0.33967 0.43253 0.34792 0.0
H261 H 0.33922 0.45801 0.27979 0.0
H262 H 0.27087 0.45409 0.07895 0.0
C263 C 0.23131 0.52014 0.03131 0.0
C264 C 0.28416 0.49849 0.17223 0.0
C265 C 0.22489 0.53715 0.00391 0.0
C266 C 0.32026 0.43265 0.30228 0.0
C267 C 0.31967 0.44734 0.26343 0.0
C268 C 0.27444 0.46635 0.10574 0.0
C269 C 0.26493 0.51626 0.07466 0.0
C270 C 0.27156 0.49886 0.10719 0.0
C271 C 0.29281 0.44873 0.206 0.0
C272 C 0.28692 0.46595 0.17114 0.0
H273 H 0.30781 0.55602 0.07402 0.0
H274 H 0.31843 0.52669 0.12211 0.0
H275 H 0.25721 0.48268 0.02377 0.0
H276 H 0.24996 0.40888 0.20824 0.0
H277 H 0.24805 0.43468 0.14177 0.0
C278 C 0.7595 0.54282 0.37536 0.0
C279 C 0.75879 0.54475 0.43722 0.0
C280 C 0.75448 0.52601 0.34715 0.0
C281 C 0.70891 0.48327 0.36131 0.0
H282 H 0.74416 0.47065 0.21985 0.0
C283 C 0.67451 0.41807 0.21006 0.0
C284 C 0.66464 0.4212 0.14549 0.0
C285 C 0.68592 0.43222 0.25187 0.0
C286 C 0.73411 0.47405 0.2593 0.0
H287 H 0.75411 0.5309 0.51952 0.0
H288 H 0.74703 0.50121 0.47128 0.0
H289 H 0.7713 0.49596 0.285 0.0
H290 H 0.65579 0.44194 0.07473 0.0
H291 H 0.67595 0.46643 0.14769 0.0
H292 H 0.67195 0.46108 0.3353 0.0
C293 C 0.75074 0.51266 0.44394 0.0
C294 C 0.74959 0.48855 0.29659 0.0
C295 C 0.75538 0.52956 0.47193 0.0
C296 C 0.66343 0.43895 0.124 0.0
C297 C 0.67527 0.453 0.16568 0.0
C298 C 0.69385 0.46856 0.32448 0.0
C299 C 0.74867 0.5108 0.38043 0.0
C300 C 0.73648 0.49369 0.34703 0.0
C301 C 0.68792 0.44966 0.2297 0.0
C302 C 0.70563 0.46418 0.27218 0.0
H303 H 0.76117 0.5545 0.34752 0.0
H304 H 0.75253 0.52523 0.29802 0.0
H305 H 0.6977 0.48693 0.39918 0.0
H306 H 0.67558 0.40458 0.22825 0.0
H307 H 0.69531 0.42937 0.30119 0.0
C308 C 0.71747 0.44204 0.85394 0.0
C309 C 0.73712 0.43973 0.9163 0.0
C310 C 0.71169 0.45908 0.82822 0.0
C311 C 0.73865 0.50612 0.84335 0.0
H312 H 0.63704 0.51293 0.75043 0.0
C313 C 0.6884 0.57175 0.71225 0.0
C314 C 0.67095 0.56874 0.64892 0.0
C315 C 0.69352 0.55767 0.75491 0.0
C316 C 0.66544 0.51126 0.7764 0.0
H317 H 0.76812 0.45305 9e-05 0.0
H318 H 0.75795 0.4833 0.95465 0.0
H319 H 0.65612 0.48479 0.80465 0.0
H320 H 0.64234 0.54906 0.58182 0.0
H321 H 0.65088 0.52462 0.65613 0.0
H322 H 0.74807 0.53248 0.81322 0.0
C323 C 0.74721 0.47183 0.92578 0.0
C324 C 0.67642 0.49516 0.8072 0.0
C325 C 0.75324 0.4546 0.9516 0.0
C326 C 0.65603 0.55179 0.63017 0.0
C327 C 0.66084 0.53779 0.67286 0.0
C328 C 0.72763 0.52231 0.81235 0.0
C329 C 0.72503 0.4742 0.86463 0.0
C330 C 0.71333 0.49219 0.83917 0.0
C331 C 0.6808 0.54043 0.73514 0.0
C332 C 0.69111 0.52479 0.777 0.0
H333 H 0.70489 0.43069 0.82596 0.0
H334 H 0.69536 0.46049 0.78046 0.0
H335 H 0.76722 0.50418 0.86784 0.0
H336 H 0.70023 0.58467 0.72826 0.0
H337 H 0.7086 0.5601 0.80283 0.0
C338 C 0.27964 0.58608 0.71296 0.0
C339 C 0.3012 0.58429 0.77482 0.0
C340 C 0.27666 0.57196 0.67104 0.0
C341 C 0.31465 0.52877 0.64086 0.0
H342 H 0.21328 0.51358 0.58409 0.0
C343 C 0.2771 0.45639 0.56844 0.0
C344 C 0.24521 0.45264 0.52087 0.0
C345 C 0.28472 0.47374 0.59091 0.0
C346 C 0.24164 0.51776 0.59816 0.0
H347 H 0.33952 0.56701 0.83916 0.0
H348 H 0.33479 0.54246 0.76536 0.0
H349 H 0.2282 0.54246 0.63517 0.0
H350 H 0.19616 0.46414 0.45947 0.0
H351 H 0.20991 0.49476 0.4977 0.0
H352 H 0.32827 0.50415 0.60404 0.0
C353 C 0.31987 0.55473 0.74975 0.0
C354 C 0.25017 0.53432 0.62753 0.0
C355 C 0.3225 0.56877 0.79202 0.0
C356 C 0.22081 0.46664 0.49652 0.0
C357 C 0.22873 0.48416 0.51848 0.0
C358 C 0.3061 0.51234 0.61057 0.0
C359 C 0.29567 0.55592 0.68984 0.0
C360 C 0.28679 0.53975 0.65053 0.0
C361 C 0.26095 0.48792 0.56576 0.0
C362 C 0.26956 0.50637 0.59056 0.0
H363 H 0.26294 0.59787 0.69799 0.0
H364 H 0.25813 0.57325 0.62484 0.0
H365 H 0.34306 0.53276 0.65777 0.0
H366 H 0.29625 0.44584 0.58872 0.0
H367 H 0.30917 0.47596 0.62861 0.0
C368 C 0.70452 0.03666 0.11113 0.0
C369 C 0.71815 0.04146 0.06117 0.0
C370 C 0.70682 0.01882 0.13125 0.0
C371 C 0.71277 0.97754 0.15507 0.0
H372 H 0.81671 0.96686 0.19332 0.0
C373 C 0.77775 0.91338 0.28271 0.0
C374 C 0.80008 0.91787 0.34218 0.0
C375 C 0.76735 0.92647 0.23672 0.0
C376 C 0.7876 0.96957 0.18206 0.0
H377 H 0.74093 0.03159 0.98874 0.0
H378 H 0.74462 0.00053 0.02344 0.0
H379 H 0.79205 0.99309 0.13028 0.0
H380 H 0.83192 0.93904 0.39803 0.0
H381 H 0.81493 0.96175 0.31635 0.0
H382 H 0.7087 0.95408 0.20816 0.0
C383 C 0.73251 0.01038 0.04735 0.0
C384 C 0.77344 0.98446 0.14594 0.0
C385 C 0.7302 0.02809 0.02738 0.0
C386 C 0.81467 0.93522 0.35274 0.0
C387 C 0.80491 0.9482 0.30619 0.0
C388 C 0.72686 0.96238 0.1902 0.0
C389 C 0.72288 0.00581 0.10154 0.0
C390 C 0.73606 0.98876 0.1331 0.0
C391 C 0.77996 0.94407 0.24893 0.0
C392 C 0.76449 0.95853 0.20491 0.0
H393 H 0.69562 0.04685 0.13822 0.0
H394 H 0.69936 0.01557 0.17336 0.0
H395 H 0.68395 0.98068 0.14598 0.0
H396 H 0.76592 0.90014 0.27307 0.0
H397 H 0.74827 0.92304 0.19256 0.0
C398 C 0.35682 0.0533 0.43266 0.0
C399 C 0.33931 0.06676 0.39146 0.0
C400 C 0.35656 0.0356 0.41203 0.0
C401 C 0.32797 0.00663 0.27064 0.0
H402 H 0.28782 0.97628 0.37662 0.0
C403 C 0.22854 0.95103 0.16927 0.0
C404 C 0.23851 0.93369 0.19214 0.0
C405 C 0.24604 0.96595 0.20131 0.0
C406 C 0.29948 0.98451 0.34703 0.0
H407 H 0.31034 0.07287 0.2963 0.0
H408 H 0.31026 0.04225 0.25975 0.0
H409 H 0.3161 0.00486 0.41629 0.0
H410 H 0.27187 0.91855 0.27019 0.0
H411 H 0.30185 0.94492 0.3272 0.0
H412 H 0.30923 0.98676 0.20023 0.0
C413 C 0.3246 0.04511 0.3077 0.0
C414 C 0.31597 0.00081 0.36975 0.0
C415 C 0.32472 0.06271 0.32843 0.0
C416 C 0.26362 0.93172 0.25116 0.0
C417 C 0.28099 0.94677 0.28363 0.0
C418 C 0.31117 0.99049 0.24783 0.0
C419 C 0.3387 0.0312 0.34995 0.0
C420 C 0.32923 0.01234 0.33101 0.0
C421 C 0.27354 0.9639 0.2573 0.0
C422 C 0.29566 0.97961 0.2851 0.0
H423 H 0.36752 0.05613 0.48182 0.0
H424 H 0.36806 0.02521 0.44549 0.0
H425 H 0.33851 0.01503 0.24003 0.0
H426 H 0.20893 0.95305 0.12443 0.0
H427 H 0.23917 0.97909 0.18094 0.0
C428 C 0.31671 0.94254 0.8987 0.0
C429 C 0.29551 0.94267 0.94111 0.0
C430 C 0.32042 0.95818 0.86645 0.0
C431 C 0.31141 0.00713 0.86313 0.0
H432 H 0.27233 0.00144 0.68504 0.0
C433 C 0.26848 0.06791 0.6982 0.0
C434 C 0.2723 0.06645 0.63775 0.0
C435 C 0.2751 0.05307 0.73808 0.0
C436 C 0.28412 0.00333 0.73447 0.0
H437 H 0.26384 0.95929 0.98667 0.0
H438 H 0.27126 0.98666 0.93177 0.0
H439 H 0.28166 0.97524 0.75179 0.0
H440 H 0.28761 0.0486 0.57254 0.0
H441 H 0.30064 0.02321 0.64224 0.0
H442 H 0.31436 0.0352 0.84607 0.0
C443 C 0.28459 0.97452 0.92283 0.0
C444 C 0.28938 0.98825 0.77267 0.0
C445 C 0.2802 0.95886 0.9539 0.0
C446 C 0.28364 0.05006 0.61844 0.0
C447 C 0.29099 0.03542 0.6585 0.0
C448 C 0.30682 0.02224 0.82477 0.0
C449 C 0.30375 0.9742 0.87745 0.0
C450 C 0.30263 0.99003 0.83733 0.0
C451 C 0.28639 0.0366 0.71863 0.0
C452 C 0.29267 0.02056 0.7599 0.0
H453 H 0.32859 0.93018 0.88789 0.0
H454 H 0.33536 0.95766 0.83162 0.0
H455 H 0.32164 0.0088 0.913 0.0
H456 H 0.25984 0.0804 0.71431 0.0
H457 H 0.27076 0.05448 0.78368 0.0
C458 C 0.73434 0.96133 0.50584 0.0
C459 C 0.71358 0.94882 0.52833 0.0
C460 C 0.73766 0.97883 0.52788 0.0
C461 C 0.77118 0.00327 0.6346 0.0
H462 H 0.70217 0.03441 0.68317 0.0
C463 C 0.80658 0.04784 0.85211 0.0
C464 C 0.79353 0.06551 0.8454 0.0
C465 C 0.79669 0.03596 0.80216 0.0
C466 C 0.72164 0.02593 0.66913 0.0
H467 H 0.67714 0.94492 0.58639 0.0
H468 H 0.68329 0.9757 0.62609 0.0
H469 H 0.67941 0.00985 0.60981 0.0
H470 H 0.76076 0.08476 0.78084 0.0
H471 H 0.74317 0.06385 0.69385 0.0
H472 H 0.81334 0.01871 0.69607 0.0
C473 C 0.69663 0.97203 0.59083 0.0
C474 C 0.70865 0.0119 0.62756 0.0
C475 C 0.69305 0.95446 0.5682 0.0
C476 C 0.77156 0.07127 0.7872 0.0
C477 C 0.76117 0.05931 0.73761 0.0
C478 C 0.78409 0.01708 0.67667 0.0
C479 C 0.72067 0.98402 0.57346 0.0
C480 C 0.73336 0.00031 0.61062 0.0
C481 C 0.77315 0.04149 0.74509 0.0
C482 C 0.75946 0.02832 0.69507 0.0
H483 H 0.75025 0.95719 0.47474 0.0
H484 H 0.75583 0.98791 0.51298 0.0
H485 H 0.79089 0.99436 0.62319 0.0
H486 H 0.82346 0.04305 0.89642 0.0
H487 H 0.8061 0.02222 0.80896 0.0
C488 C 0.84056 0.3794 0.22893 0.0
C489 C 0.81814 0.36554 0.19784 0.0
C490 C 0.87802 0.3766 0.25341 0.0
C491 C 0.94645 0.35093 0.20584 0.0
H492 H 0.0121 0.37924 0.33415 0.0
C493 C 0.10599 0.36223 0.2536 0.0
C494 C 0.11566 0.38034 0.2649 0.0
C495 C 0.06937 0.35696 0.24267 0.0
C496 C 0.99405 0.3712 0.29823 0.0
H497 H 0.81579 0.33747 0.17375 0.0
H498 H 0.88156 0.3324 0.21697 0.0
H499 H 0.94934 0.37433 0.33816 0.0
H500 H 0.09476 0.40729 0.26508 0.0
H501 H 0.03099 0.39817 0.24462 0.0
H502 H 0.99139 0.34826 0.16536 0.0
C503 C 0.87037 0.34547 0.22212 0.0
C504 C 0.95825 0.36833 0.30069 0.0
C505 C 0.83272 0.34828 0.19821 0.0
C506 C 0.08793 0.39326 0.25654 0.0
C507 C 0.05158 0.38803 0.24573 0.0
C508 C 0.98254 0.35367 0.20377 0.0
C509 C 0.89365 0.35991 0.24634 0.0
C510 C 0.93356 0.35883 0.2531 0.0
C511 C 0.04239 0.3698 0.24279 0.0
C512 C 0.00604 0.36448 0.24853 0.0
H513 H 0.82987 0.39289 0.22803 0.0
H514 H 0.89507 0.38806 0.27148 0.0
H515 H 0.92804 0.34369 0.16805 0.0
H516 H 0.12695 0.352 0.26051 0.0
H517 H 0.06274 0.34283 0.23999 0.0
C518 C 0.09783 0.61 0.75062 0.0
C519 C 0.1247 0.6234 0.76173 0.0
C520 C 0.06105 0.61456 0.73918 0.0
C521 C 0.98825 0.6461 0.69626 0.0
H522 H 0.95865 0.62568 0.83468 0.0
C523 C 0.83754 0.64468 0.68832 0.0
C524 C 0.82665 0.62687 0.69214 0.0
C525 C 0.87438 0.64945 0.71157 0.0
C526 C 0.9665 0.63162 0.79607 0.0
H527 H 0.13417 0.65201 0.76235 0.0
H528 H 0.06914 0.66001 0.74059 0.0
H529 H 0.02226 0.62337 0.83197 0.0
H530 H 0.84409 0.60058 0.72869 0.0
H531 H 0.90786 0.60884 0.77099 0.0
H532 H 0.93202 0.65325 0.658 0.0
C533 C 0.07681 0.64603 0.74141 0.0
C534 C 0.00282 0.63027 0.79449 0.0
C535 C 0.11387 0.64144 0.75302 0.0
C536 C 0.85186 0.61447 0.72637 0.0
C537 C 0.88851 0.61924 0.7502 0.0
C538 C 0.95167 0.64731 0.69749 0.0
C539 C 0.05057 0.63258 0.73829 0.0
C540 C 0.01363 0.63688 0.74349 0.0
C541 C 0.90057 0.63645 0.73932 0.0
C542 C 0.94015 0.63942 0.74625 0.0
H543 H 0.10557 0.59602 0.75743 0.0
H544 H 0.04108 0.60399 0.73599 0.0
H545 H 0.99616 0.65134 0.65669 0.0
H546 H 0.81849 0.65435 0.66116 0.0
H547 H 0.88277 0.66287 0.70332 0.0
C548 C 0.64844 0.83916 0.32689 0.0
C549 C 0.65463 0.85732 0.31741 0.0
C550 C 0.61374 0.83179 0.30182 0.0
C551 C 0.52288 0.83794 0.1953 0.0
H552 H 0.48491 0.83498 0.33952 0.0
C553 C 0.38815 0.86453 0.24151 0.0
C554 C 0.36294 0.85766 0.18865 0.0
C555 C 0.42274 0.8566 0.26282 0.0
C556 C 0.49519 0.83535 0.2989 0.0
H557 H 0.63163 0.88155 0.26959 0.0
H558 H 0.57155 0.86842 0.22237 0.0
H559 H 0.55115 0.83469 0.35333 0.0
H560 H 0.3518 0.83642 0.12025 0.0
H561 H 0.41191 0.82251 0.1577 0.0
H562 H 0.4672 0.83967 0.14103 0.0
C563 C 0.59314 0.85993 0.24981 0.0
C564 C 0.53293 0.83505 0.30664 0.0
C565 C 0.62743 0.86743 0.27647 0.0
C566 C 0.371 0.84181 0.16142 0.0
C567 C 0.40534 0.83392 0.18257 0.0
C568 C 0.4852 0.83787 0.18743 0.0
C569 C 0.58546 0.84243 0.2655 0.0
C570 C 0.54696 0.83715 0.2551 0.0
C571 C 0.43219 0.84186 0.23106 0.0
C572 C 0.47109 0.83738 0.23938 0.0
H573 H 0.66914 0.83126 0.35902 0.0
H574 H 0.60824 0.8183 0.31461 0.0
H575 H 0.53322 0.83978 0.15514 0.0
H576 H 0.38244 0.87687 0.26255 0.0
H577 H 0.44313 0.86304 0.30012 0.0
C578 C 0.65334 0.13584 0.8102 0.0
C579 C 0.66972 0.13832 0.8737 0.0
C580 C 0.62122 0.14516 0.78125 0.0
C581 C 0.55213 0.16629 0.72693 0.0
H582 H 0.48951 0.1653 0.83783 0.0
C583 C 0.39942 0.16379 0.62379 0.0
C584 C 0.38395 0.14917 0.64681 0.0
C585 C 0.43273 0.17086 0.65794 0.0
C586 C 0.50661 0.16581 0.80629 0.0
H587 H 0.66824 0.15329 0.95556 0.0
H588 H 0.61484 0.17084 0.90424 0.0
H589 H 0.55483 0.1619 0.88001 0.0
H590 H 0.38842 0.13165 0.72544 0.0
H591 H 0.44754 0.14339 0.78448 0.0
H592 H 0.50331 0.16826 0.65258 0.0
C593 C 0.62511 0.16118 0.87707 0.0
C594 C 0.54433 0.16412 0.8305 0.0
C595 C 0.65609 0.15138 0.90632 0.0
C596 C 0.40013 0.14288 0.70694 0.0
C597 C 0.4339 0.14973 0.74074 0.0
C598 C 0.51429 0.16771 0.70261 0.0
C599 C 0.60586 0.15736 0.81536 0.0
C600 C 0.56743 0.1635 0.79082 0.0
C601 C 0.45145 0.16314 0.71499 0.0
C602 C 0.49104 0.16659 0.74186 0.0
H603 H 0.66356 0.12574 0.78447 0.0
H604 H 0.60711 0.14175 0.7337 0.0
H605 H 0.56914 0.16632 0.69522 0.0
H606 H 0.38675 0.16906 0.57777 0.0
H607 H 0.44499 0.18154 0.63771 0.0
C608 C 0.57972 0.29889 0.17881 0.0
C609 C 0.58778 0.31639 0.2016 0.0
C610 C 0.54883 0.28995 0.18668 0.0
C611 C 0.47964 0.29115 0.27535 0.0
H612 H 0.40838 0.28123 0.11818 0.0
C613 C 0.32871 0.3126 0.17057 0.0
C614 C 0.31459 0.30932 0.22115 0.0
C615 C 0.35967 0.30348 0.1651 0.0
C616 C 0.42811 0.28353 0.16268 0.0
H617 H 0.57145 0.33782 0.25361 0.0
H618 H 0.51835 0.32222 0.26832 0.0
H619 H 0.47285 0.28473 0.12177 0.0
H620 H 0.31934 0.29301 0.30285 0.0
H621 H 0.37419 0.27706 0.29395 0.0
H622 H 0.43478 0.29164 0.31547 0.0
C623 C 0.53555 0.31537 0.24419 0.0
C624 C 0.46506 0.28543 0.16479 0.0
C625 C 0.56575 0.32438 0.23523 0.0
C626 C 0.32968 0.29558 0.2631 0.0
C627 C 0.36114 0.28658 0.25819 0.0
C628 C 0.4428 0.2892 0.27332 0.0
C629 C 0.52625 0.29823 0.21889 0.0
C630 C 0.49071 0.29038 0.22047 0.0
C631 C 0.37754 0.29114 0.21093 0.0
C632 C 0.41633 0.28653 0.21624 0.0
H633 H 0.59626 0.29246 0.15252 0.0
H634 H 0.54212 0.27679 0.16648 0.0
H635 H 0.49901 0.29474 0.31903 0.0
H636 H 0.31754 0.32325 0.13797 0.0
H637 H 0.37163 0.3075 0.12846 0.0
C638 C 0.5899 0.6917 0.6704 0.0
C639 C 0.5876 0.67319 0.658 0.0
C640 C 0.55833 0.70156 0.66984 0.0
C641 C 0.45711 0.69917 0.61332 0.0
H642 H 0.45654 0.72423 0.76463 0.0
C643 C 0.36297 0.69629 0.77871 0.0
C644 C 0.32914 0.69476 0.73401 0.0
C645 C 0.39274 0.70395 0.76332 0.0
C646 C 0.45621 0.71752 0.72156 0.0
H647 H 0.55017 0.65066 0.63433 0.0
H648 H 0.49596 0.66765 0.63359 0.0
H649 H 0.51479 0.71612 0.7456 0.0
H650 H 0.29832 0.7016 0.6404 0.0
H651 H 0.35044 0.71534 0.61312 0.0
H652 H 0.39898 0.69882 0.5918 0.0
C653 C 0.52186 0.67467 0.64312 0.0
C654 C 0.48964 0.71301 0.71049 0.0
C655 C 0.55316 0.66485 0.64438 0.0
C656 C 0.32423 0.70278 0.67568 0.0
C657 C 0.35418 0.71047 0.66003 0.0
C658 C 0.42381 0.70354 0.62454 0.0
C659 C 0.52397 0.69311 0.65573 0.0
C660 C 0.49026 0.70276 0.65818 0.0
C661 C 0.38933 0.71005 0.70247 0.0
C662 C 0.42296 0.71169 0.68082 0.0
H663 H 0.61602 0.69852 0.68097 0.0
H664 H 0.56074 0.71574 0.68017 0.0
H665 H 0.45685 0.69163 0.57182 0.0
H666 H 0.36728 0.69005 0.82391 0.0
H667 H 0.41917 0.70321 0.79734 0.0
C668 C 0.92434 0.81814 0.40799 0.0
C669 C 0.89037 0.8131 0.36848 0.0
C670 C 0.95649 0.81082 0.40041 0.0
C671 C 0.02324 0.79429 0.37615 0.0
H672 H 0.01759 0.80747 0.20619 0.0
C673 C 0.14898 0.81597 0.29149 0.0
C674 C 0.14326 0.83327 0.26562 0.0
C675 C 0.11982 0.80628 0.30238 0.0
C676 C 0.01961 0.80337 0.25348 0.0
H677 H 0.86267 0.79538 0.29389 0.0
H678 H 0.91946 0.78278 0.27912 0.0
H679 H 0.96175 0.80059 0.23459 0.0
H680 H 0.10252 0.85386 0.23033 0.0
H681 H 0.05192 0.83695 0.24885 0.0
H682 H 0.08104 0.7987 0.39574 0.0
C683 C 0.92111 0.79228 0.31639 0.0
C684 C 0.98767 0.79923 0.26971 0.0
C685 C 0.88871 0.79943 0.3248 0.0
C686 C 0.10792 0.84063 0.25067 0.0
C687 C 0.07884 0.83086 0.26051 0.0
C688 C 0.05529 0.79837 0.35978 0.0
C689 C 0.95533 0.79854 0.35232 0.0
C690 C 0.98894 0.79583 0.33203 0.0
C691 C 0.08445 0.81359 0.28622 0.0
C692 C 0.05332 0.80404 0.29916 0.0
H693 H 0.92613 0.82858 0.44234 0.0
H694 H 0.98228 0.81611 0.42848 0.0
H695 H 0.02501 0.79149 0.4244 0.0
H696 H 0.17597 0.80997 0.30351 0.0
H697 H 0.12479 0.79305 0.32282 0.0
C698 C 0.12797 0.1475 0.70982 0.0
C699 C 0.16177 0.15638 0.72789 0.0
C700 C 0.0974 0.15476 0.72371 0.0
C701 C 0.06981 0.17979 0.83782 0.0
H702 H 0.9757 0.17957 0.71358 0.0
C703 C 0.90451 0.1778 0.81536 0.0
C704 C 0.9055 0.16203 0.84991 0.0
C705 C 0.93677 0.18457 0.80525 0.0
C706 C 0.00179 0.18025 0.74863 0.0
H707 H 0.19025 0.17975 0.77513 0.0
H708 H 0.13659 0.19212 0.80174 0.0
H709 H 0.03186 0.17704 0.68117 0.0
H710 H 0.94066 0.14175 0.90508 0.0
H711 H -0.00324 0.15367 0.88858 0.0
H712 H 0.03956 0.18138 0.90559 0.0
C713 C 0.13391 0.17973 0.77569 0.0
C714 C 0.03384 0.17865 0.73012 0.0
C715 C 0.16447 0.17263 0.76065 0.0
C716 C 0.93922 0.15382 0.87764 0.0
C717 C 0.97136 0.16078 0.86887 0.0
C718 C 0.03771 0.18117 0.8564 0.0
C719 C 0.1001 0.1709 0.75677 0.0
C720 C 0.0679 0.17751 0.77477 0.0
C721 C 0.97035 0.1759 0.83121 0.0
C722 C 0.00343 0.18048 0.81205 0.0
H723 H 0.12495 0.13504 0.68409 0.0
H724 H 0.07171 0.14754 0.70966 0.0
H725 H 0.09582 0.17891 0.87301 0.0
H726 H 0.8787 0.18434 0.7937 0.0
H727 H 0.9354 0.19618 0.77567 0.0
C728 C 0.3501 0.36681 0.54104 0.0
C729 C 0.35728 0.36692 0.48264 0.0
C730 C 0.3785 0.36798 0.59552 0.0
C731 C 0.47715 0.36082 0.6606 0.0
H732 H 0.46326 0.39095 0.79365 0.0
C733 C 0.59178 0.37227 0.88623 0.0
C734 C 0.58203 0.37147 0.94246 0.0
C735 C 0.56504 0.37276 0.82938 0.0
C736 C 0.46741 0.38236 0.75716 0.0
H737 H 0.40017 0.36789 0.43577 0.0
H738 H 0.45023 0.36997 0.5317 0.0
H739 H 0.41602 0.38979 0.69479 0.0
H740 H 0.53626 0.37083 0.98282 0.0
H741 H 0.48937 0.37151 0.88316 0.0
H742 H 0.52842 0.35327 0.7232 0.0
C743 C 0.42238 0.36896 0.53493 0.0
C744 C 0.4404 0.38171 0.7005 0.0
C745 C 0.39377 0.36779 0.48005 0.0
C746 C 0.54474 0.37148 0.94043 0.0
C747 C 0.51788 0.37195 0.88334 0.0
C748 C 0.5042 0.36148 0.71731 0.0
C749 C 0.41494 0.36927 0.59321 0.0
C750 C 0.44478 0.37078 0.65183 0.0
C751 C 0.52779 0.37242 0.82717 0.0
C752 C 0.49948 0.37214 0.7664 0.0
H753 H 0.3224 0.36578 0.54487 0.0
H754 H 0.37188 0.36773 0.63962 0.0
H755 H 0.48114 0.35211 0.6243 0.0
H756 H 0.62014 0.37229 0.88583 0.0
H757 H 0.5736 0.37339 0.78705 0.0
C758 C 0.60405 0.61311 0.37332 0.0
C759 C 0.59385 0.61386 0.42912 0.0
C760 C 0.57758 0.61347 0.31602 0.0
C761 C 0.47868 0.60737 0.2413 0.0
H762 H 0.49565 0.64026 0.11784 0.0
C763 C 0.36205 0.63192 0.03719 0.0
C764 C 0.3681 0.63281 0.97806 0.0
C765 C 0.39087 0.6286 0.0898 0.0
C766 C 0.49073 0.63083 0.15144 0.0
H767 H 0.54762 0.61494 0.46833 0.0
H768 H 0.50142 0.61567 0.36842 0.0
H769 H 0.54357 0.63537 0.21435 0.0
H770 H 0.40951 0.63146 0.92803 0.0
H771 H 0.4602 0.62567 0.02053 0.0
H772 H 0.42564 0.60306 0.17889 0.0
C773 C 0.52996 0.61466 0.36899 0.0
C774 C 0.51817 0.62801 0.2067 0.0
C775 C 0.55645 0.61433 0.42633 0.0
C776 C 0.40396 0.63085 0.97295 0.0
C777 C 0.43295 0.62754 0.02586 0.0
C778 C 0.45128 0.6102 0.18612 0.0
C779 C 0.54026 0.61455 0.31323 0.0
C780 C 0.51223 0.61644 0.25261 0.0
C781 C 0.42656 0.62614 0.08472 0.0
C782 C 0.45677 0.62218 0.14105 0.0
H783 H 0.63258 0.61272 0.37367 0.0
H784 H 0.58635 0.6131 0.27389 0.0
H785 H 0.47353 0.59814 0.27529 0.0
H786 H 0.33492 0.63374 0.04296 0.0
H787 H 0.38519 0.62805 0.13464 0.0
C788 C 0.87603 0.88145 0.63483 0.0
C789 C 0.88359 0.88131 0.57672 0.0
C790 C 0.90411 0.88445 0.68926 0.0
C791 C 0.00376 0.87951 0.74655 0.0
H792 H 0.99503 0.90745 0.88793 0.0
C793 C 0.12873 0.89274 0.94963 0.0
C794 C 0.12503 0.88968 0.00953 0.0
C795 C 0.098 0.89385 0.89873 0.0
C796 C -0.00231 0.89951 0.84888 0.0
H797 H 0.92592 0.88538 0.52974 0.0
H798 H 0.97446 0.89087 0.62409 0.0
H799 H 0.94304 0.9056 0.79461 0.0
H800 H 0.08592 0.88629 0.06341 0.0
H801 H 0.03194 0.88801 0.97382 0.0
H802 H 0.058 0.87327 0.80021 0.0
C803 C 0.94715 0.88819 0.62795 0.0
C804 C 0.968 0.89845 0.7956 0.0
C805 C 0.91927 0.8851 0.57383 0.0
C806 C 0.0897 0.88862 0.0178 0.0
C807 C 0.05879 0.88966 0.96658 0.0
C808 C 0.03326 0.88059 0.79943 0.0
C809 C 0.94014 0.88742 0.68636 0.0
C810 C 0.97094 0.88857 0.74367 0.0
C811 C 0.06275 0.89182 0.90636 0.0
C812 C 0.03074 0.89073 0.85095 0.0
H813 H 0.84876 0.87859 0.63853 0.0
H814 H 0.8979 0.88372 0.73364 0.0
H815 H 0.00658 0.87138 0.70803 0.0
H816 H 0.1554 0.89391 0.94161 0.0
H817 H 0.10189 0.89593 0.85304 0.0
C818 C 0.12141 0.10088 0.47325 0.0
C819 C 0.15595 0.10318 0.46283 0.0
C820 C 0.09108 0.09645 0.42419 0.0
C821 C 0.05962 0.10037 0.2542 0.0
H822 H 0.97785 0.07184 0.27218 0.0
C823 C 0.93352 0.09159 0.04989 0.0
C824 C 0.90058 0.09638 0.06274 0.0
C825 C 0.96473 0.08808 0.09818 0.0
C826 C 0.00057 0.07979 0.26664 0.0
H827 H 0.18611 0.10165 0.3935 0.0
H828 H 0.13365 0.09341 0.30864 0.0
H829 H 0.03364 0.0737 0.35845 0.0
H830 H 0.8738 0.09997 0.13606 0.0
H831 H 0.92867 0.09404 0.22059 0.0
H832 H 0.02661 0.1067 0.1631 0.0
C833 C 0.12969 0.09554 0.35424 0.0
C834 C 0.0324 0.08092 0.31593 0.0
C835 C 0.15986 0.1002 0.40302 0.0
C836 C 0.89886 0.0964 0.12469 0.0
C837 C 0.93019 0.09291 0.17311 0.0
C838 C 0.02806 0.09912 0.20501 0.0
C839 C 0.09479 0.09405 0.3639 0.0
C840 C 0.06209 0.09143 0.31045 0.0
C841 C 0.96367 0.08933 0.16024 0.0
C842 C -0.00193 0.08901 0.21094 0.0
H843 H 0.11751 0.1031 0.51884 0.0
H844 H 0.06452 0.09562 0.43312 0.0
H845 H 0.08154 0.10892 0.24877 0.0
H846 H 0.93563 0.09117 0.00264 0.0
H847 H 0.9901 0.08504 0.08702 0.0
C848 C 0.16793 0.35801 0.0524 0.0
C849 C 0.1947 0.36874 0.09225 0.0
C850 C 0.16114 0.35963 0.98803 0.0
C851 C 0.18633 0.38614 0.86417 0.0
H852 H 0.19476 0.33924 0.79447 0.0
C853 C 0.25275 0.37678 0.66827 0.0
C854 C 0.22734 0.37161 0.61273 0.0
C855 C 0.24451 0.37448 0.72479 0.0
C856 C 0.19214 0.35237 0.81341 0.0
H857 H 0.23144 0.39122 0.09642 0.0
H858 H 0.22021 0.39385 0.98516 0.0
H859 H 0.18099 0.34157 0.89471 0.0
H860 H 0.17576 0.35807 0.57276 0.0
H861 H 0.16203 0.35352 0.67244 0.0
H862 H 0.19985 0.3968 0.78445 0.0
C863 C 0.20442 0.38413 0.00276 0.0
C864 C 0.18379 0.35377 0.87026 0.0
C865 C 0.21113 0.38254 0.06685 0.0
C866 C 0.19563 0.36227 0.61512 0.0
C867 C 0.18773 0.35968 0.67183 0.0
C868 C 0.19529 0.38471 0.80805 0.0
C869 C 0.18092 0.37203 0.96276 0.0
C870 C 0.18185 0.37069 0.89712 0.0
C871 C 0.21123 0.36664 0.7264 0.0
C872 C 0.1992 0.36782 0.78328 0.0
H873 H 0.15448 0.34738 0.07067 0.0
H874 H 0.14215 0.35043 0.95825 0.0
H875 H 0.18429 0.39936 0.88291 0.0
H876 H 0.2773 0.38406 0.66764 0.0
H877 H 0.26309 0.37977 0.76681 0.0
C878 C 0.71629 0.37546 0.37419 0.0
C879 C 0.73096 0.36229 0.34326 0.0
C880 C 0.72585 0.37587 0.43886 0.0
C881 C 0.75098 0.34331 0.56393 0.0
H882 H 0.74328 0.38481 0.66359 0.0
C883 C 0.75035 0.34974 0.82737 0.0
C884 C 0.71895 0.35893 0.83255 0.0
C885 C 0.75643 0.34722 0.76919 0.0
C886 C 0.74568 0.37315 0.63617 0.0
H887 H 0.77105 0.34087 0.3555 0.0
H888 H 0.78802 0.34177 0.46861 0.0
H889 H 0.75366 0.38902 0.56156 0.0
H890 H 0.66709 0.37049 0.78059 0.0
H891 H 0.67813 0.36623 0.67933 0.0
H892 H 0.74251 0.32754 0.63911 0.0
C893 C 0.76828 0.35139 0.44282 0.0
C894 C 0.75164 0.37553 0.57805 0.0
C895 C 0.75866 0.35095 0.37803 0.0
C896 C 0.69172 0.36353 0.77828 0.0
C897 C 0.69803 0.3612 0.72036 0.0
C898 C 0.7455 0.34094 0.62263 0.0
C899 C 0.75048 0.3632 0.47372 0.0
C900 C 0.75291 0.36067 0.54029 0.0
C901 C 0.73121 0.35389 0.71599 0.0
C902 C 0.74149 0.35588 0.65784 0.0
H903 H 0.6953 0.38458 0.34874 0.0
H904 H 0.71157 0.38515 0.46115 0.0
H905 H 0.7514 0.33158 0.53569 0.0
H906 H 0.77158 0.34581 0.86843 0.0
H907 H 0.78207 0.34144 0.76631 0.0
C908 C 0.76121 0.64126 0.86678 0.0
C909 C 0.73472 0.62946 0.83149 0.0
C910 C 0.77203 0.64004 0.93148 0.0
C911 C 0.7627 0.61224 0.06423 0.0
H912 H 0.75019 0.65814 0.13741 0.0
C913 C 0.76129 0.63441 0.3202 0.0
C914 C 0.7319 0.62369 0.32588 0.0
C915 C 0.76687 0.63742 0.26192 0.0
C916 C 0.75421 0.64532 0.11758 0.0
H917 H 0.70185 0.60596 0.83566 0.0
H918 H 0.72006 0.60406 0.94789 0.0
H919 H 0.75644 0.65699 0.03154 0.0
H920 H 0.68323 0.60934 0.27472 0.0
H921 H 0.69341 0.61447 0.17324 0.0
H922 H 0.75787 0.60056 0.14893 0.0
C923 C 0.73265 0.61423 0.92607 0.0
C924 C 0.75815 0.64462 0.05741 0.0
C925 C 0.72189 0.61543 0.86157 0.0
C926 C 0.70627 0.61752 0.27197 0.0
C927 C 0.71215 0.62034 0.21399 0.0
C928 C 0.75825 0.61294 0.12385 0.0
C929 C 0.75663 0.62698 0.96176 0.0
C930 C 0.76109 0.628 0.02939 0.0
C931 C 0.74328 0.62963 0.20909 0.0
C932 C 0.75277 0.62942 0.1499 0.0
H933 H 0.77206 0.65206 0.84483 0.0
H934 H 0.79109 0.64983 0.95787 0.0
H935 H 0.76565 0.59929 0.0443 0.0
H936 H 0.78123 0.63951 0.36099 0.0
H937 H 0.79086 0.64475 0.25862 0.0
C938 C 0.20813 0.64169 0.11127 0.0
C939 C 0.23881 0.63148 0.10881 0.0
C940 C 0.20063 0.64478 0.16805 0.0
C941 C 0.20586 0.62024 0.30443 0.0
H942 H 0.19606 0.66407 0.39113 0.0
C943 C 0.22162 0.6229 0.56315 0.0
C944 C 0.206 0.63698 0.58863 0.0
C945 C 0.21524 0.62141 0.49912 0.0
C946 C 0.19762 0.65172 0.36667 0.0
H947 H 0.28749 0.61796 0.1636 0.0
H948 H 0.27396 0.62313 0.26291 0.0
H949 H 0.20995 0.6656 0.29077 0.0
H950 H 0.16781 0.65921 0.56712 0.0
H951 H 0.1561 0.6564 0.45462 0.0
H952 H 0.19349 0.60624 0.37937 0.0
C953 C 0.25587 0.62871 0.2209 0.0
C954 C 0.20603 0.65265 0.30976 0.0
C955 C 0.26373 0.62589 0.16431 0.0
C956 C 0.18052 0.64831 0.54875 0.0
C957 C 0.1741 0.64682 0.48438 0.0
C958 C 0.19684 0.6193 0.36059 0.0
C959 C 0.22349 0.63748 0.22262 0.0
C960 C 0.21146 0.63689 0.2796 0.0
C961 C 0.19292 0.63393 0.45916 0.0
C962 C 0.19399 0.63499 0.39355 0.0
H963 H 0.18866 0.64623 0.06894 0.0
H964 H 0.17562 0.65165 0.16873 0.0
H965 H 0.20914 0.60794 0.28083 0.0
H966 H 0.24101 0.6138 0.59271 0.0
H967 H 0.23033 0.61134 0.48155 0.0
C968 C 0.72694 0.84024 0.14334 0.0
C969 C 0.74978 0.85332 0.17963 0.0
C970 C 0.72043 0.84025 0.07868 0.0
C971 C 0.76897 0.84844 0.96943 0.0
H972 H 0.68109 0.86065 0.84044 0.0
C973 C 0.77318 0.8742 0.73161 0.0
C974 C 0.74414 0.87033 0.67914 0.0
C975 C 0.77204 0.86846 0.79031 0.0
C976 C 0.70565 0.85678 0.87571 0.0
H977 H 0.78063 0.87764 0.17632 0.0
H978 H 0.76958 0.87739 0.06397 0.0
H979 H 0.6787 0.85814 0.94843 0.0
H980 H 0.69226 0.85636 0.64645 0.0
H981 H 0.69061 0.84613 0.74903 0.0
H982 H 0.7963 0.84731 0.89787 0.0
C983 C 0.75715 0.8671 0.08567 0.0
C984 C 0.7042 0.85543 0.93729 0.0
C985 C 0.76342 0.8672 0.14985 0.0
C986 C 0.71485 0.85978 0.68614 0.0
C987 C 0.7138 0.85397 0.74487 0.0
C988 C 0.77038 0.84959 0.90805 0.0
C989 C 0.73674 0.85331 0.05008 0.0
C990 C 0.73613 0.85181 0.98448 0.0
C991 C 0.74198 0.85859 0.79771 0.0
C992 C 0.73904 0.85438 0.86082 0.0
H993 H 0.71591 0.82943 0.16497 0.0
H994 H 0.7045 0.82955 0.05152 0.0
H995 H 0.79383 0.84551 0.00558 0.0
H996 H 0.79616 0.88227 0.72781 0.0
H997 H 0.79399 0.87245 0.83018 0.0
C998 C 0.21319 0.87764 0.79778 0.0
C999 C 0.23189 0.86665 0.84724 0.0
C1000 C 0.21978 0.87589 0.73974 0.0
C1001 C 0.27576 0.88088 0.66693 0.0
H1002 H 0.27399 0.84069 0.55678 0.0
C1003 C 0.28506 0.88789 0.41919 0.0
C1004 C 0.29438 0.87284 0.38915 0.0
C1005 C 0.28723 0.88717 0.48228 0.0
C1006 C 0.27564 0.85192 0.58803 0.0
H1007 H 0.26655 0.84321 0.8723 0.0
H1008 H 0.27716 0.83988 0.77007 0.0
H1009 H 0.24945 0.83716 0.6462 0.0
H1010 H 0.31992 0.8466 0.40361 0.0
H1011 H 0.32478 0.84559 0.51436 0.0
H1012 H 0.30232 0.89564 0.61 0.0
C1013 C 0.25841 0.85014 0.7767 0.0
C1014 C 0.26104 0.84992 0.63853 0.0
C1015 C 0.25221 0.85202 0.83503 0.0
C1016 C 0.31181 0.8583 0.42523 0.0
C1017 C 0.31414 0.85761 0.48858 0.0
C1018 C 0.29087 0.8828 0.61717 0.0
C1019 C 0.24439 0.86288 0.73029 0.0
C1020 C 0.26008 0.86454 0.67721 0.0
C1021 C 0.29924 0.87147 0.5165 0.0
C1022 C 0.29011 0.8685 0.57609 0.0
H1023 H 0.19716 0.88896 0.80563 0.0
H1024 H 0.20811 0.88564 0.70388 0.0
H1025 H 0.2763 0.89219 0.69749 0.0
H1026 H 0.27226 0.89946 0.39276 0.0
H1027 H 0.27583 0.89821 0.5022 0.0
C1028 C 0.33751 0.14239 0.8748 0.0
C1029 C 0.32131 0.1273 0.84057 0.0
C1030 C 0.33915 0.14378 0.93775 0.0
C1031 C 0.31579 0.11978 0.06867 0.0
H1032 H 0.27121 0.16534 0.08931 0.0
C1033 C 0.27453 0.15254 0.28057 0.0
C1034 C 0.25552 0.13774 0.29516 0.0
C1035 C 0.28036 0.15396 0.22179 0.0
C1036 C 0.28365 0.1526 0.08396 0.0
H1037 H 0.30128 0.10042 0.84787 0.0
H1038 H 0.30364 0.10287 0.95652 0.0
H1039 H 0.29691 0.161 0.00155 0.0
H1040 H 0.22202 0.11475 0.25664 0.0
H1041 H 0.2323 0.11727 0.15427 0.0
H1042 H 0.30099 0.1112 0.14969 0.0
C1043 C 0.31446 0.11384 0.93534 0.0
C1044 C 0.29893 0.15015 0.03442 0.0
C1045 C 0.31302 0.11242 0.87264 0.0
C1046 C 0.2372 0.12617 0.24716 0.0
C1047 C 0.24339 0.12748 0.1887 0.0
C1048 C 0.30001 0.12215 0.11746 0.0
C1049 C 0.32484 0.13006 0.9672 0.0
C1050 C 0.31464 0.13359 0.02559 0.0
C1051 C 0.26715 0.14061 0.17727 0.0
C1052 C 0.28322 0.13844 0.12478 0.0
H1053 H 0.34503 0.15395 0.85178 0.0
H1054 H 0.34868 0.15618 0.96183 0.0
H1055 H 0.32818 0.10699 0.06394 0.0
H1056 H 0.28847 0.16183 0.31649 0.0
H1057 H 0.29839 0.16434 0.21359 0.0
C1058 C 0.7951 0.10376 0.2647 0.0
C1059 C 0.78285 0.11565 0.21481 0.0
C1060 C 0.78986 0.10787 0.32255 0.0
C1061 C 0.77137 0.14215 0.42456 0.0
H1062 H 0.71048 0.10598 0.47109 0.0
C1063 C 0.73643 0.14809 0.6557 0.0
C1064 C 0.7455 0.1324 0.69118 0.0
C1065 C 0.73129 0.14752 0.59135 0.0
C1066 C 0.72753 0.11619 0.45891 0.0
H1067 H 0.7592 0.14179 0.18705 0.0
H1068 H 0.75147 0.14927 0.28921 0.0
H1069 H 0.72925 0.10238 0.37594 0.0
H1070 H 0.75135 0.1036 0.68686 0.0
H1071 H 0.74278 0.10257 0.57597 0.0
H1072 H 0.77149 0.15553 0.50899 0.0
C1073 C 0.76435 0.1367 0.28325 0.0
C1074 C 0.73835 0.11408 0.40465 0.0
C1075 C 0.76889 0.13245 0.22511 0.0
C1076 C 0.74478 0.11593 0.66068 0.0
C1077 C 0.73967 0.11536 0.59674 0.0
C1078 C 0.7611 0.14413 0.47957 0.0
C1079 C 0.77308 0.12405 0.33134 0.0
C1080 C 0.76101 0.12683 0.38785 0.0
C1081 C 0.735 0.13126 0.56184 0.0
C1082 C 0.73976 0.13094 0.49814 0.0
H1083 H 0.80556 0.09066 0.25762 0.0
H1084 H 0.79711 0.09802 0.35947 0.0
H1085 H 0.78857 0.15222 0.41195 0.0
H1086 H 0.73669 0.16097 0.67807 0.0
H1087 H 0.72681 0.15995 0.56543 0.0
C1088 C 0.29239 0.19849 0.52908 0.0
C1089 C 0.27013 0.18378 0.50466 0.0
C1090 C 0.27929 0.21586 0.5154 0.0
C1091 C 0.20576 0.24412 0.41981 0.0
H1092 H 0.219 0.27022 0.57459 0.0
C1093 C 0.1534 0.31422 0.40566 0.0
C1094 C 0.18278 0.32585 0.43078 0.0
C1095 C 0.15485 0.29653 0.42614 0.0
C1096 C 0.21494 0.2631 0.53105 0.0
H1097 H 0.21904 0.17552 0.44042 0.0
H1098 H 0.19627 0.206 0.41539 0.0
H1099 H 0.24512 0.24034 0.57572 0.0
H1100 H 0.23224 0.32953 0.50561 0.0
H1101 H 0.23508 0.29876 0.5411 0.0
H1102 H 0.17674 0.26702 0.37468 0.0
C1103 C 0.22362 0.20412 0.44572 0.0
C1104 C 0.23018 0.24607 0.53156 0.0
C1105 C 0.23685 0.18668 0.45934 0.0
C1106 C 0.20945 0.32074 0.48496 0.0
C1107 C 0.21119 0.30296 0.50501 0.0
C1108 C 0.19069 0.2612 0.41921 0.0
C1109 C 0.24375 0.21876 0.47702 0.0
C1110 C 0.22646 0.23659 0.47579 0.0
C1111 C 0.18573 0.29034 0.47177 0.0
C1112 C 0.1957 0.27105 0.47471 0.0
H1113 H 0.3182 0.19654 0.5641 0.0
H1114 H 0.29585 0.22696 0.5386 0.0
H1115 H 0.20237 0.2371 0.37624 0.0
H1116 H 0.13213 0.31802 0.36444 0.0
H1117 H 0.13399 0.28726 0.40139 0.0
C1118 C 0.72087 0.3043 0.98158 0.0
C1119 C 0.74556 0.31576 0.02186 0.0
C1120 C 0.72912 0.28613 0.98015 0.0
C1121 C 0.79579 0.2502 0.03578 0.0
H1122 H 0.71838 0.22984 0.09733 0.0
C1123 C 0.80123 0.17672 0.09114 0.0
C1124 C 0.76953 0.16853 0.05408 0.0
C1125 C 0.8007 0.19489 0.1058 0.0
C1126 C 0.74022 0.2353 0.08035 0.0
H1127 H 0.80052 0.31839 0.08205 0.0
H1128 H 0.81554 0.28675 0.07798 0.0
H1129 H 0.71461 0.26099 0.06397 0.0
H1130 H 0.71162 0.1717 0.01229 0.0
H1131 H 0.71003 0.20297 0.03846 0.0
H1132 H 0.82077 0.22436 0.04971 0.0
C1133 C 0.78958 0.29157 0.04885 0.0
C1134 C 0.73787 0.25305 0.0606 0.0
C1135 C 0.78114 0.30971 0.05066 0.0
C1136 C 0.73621 0.1777 0.04141 0.0
C1137 C 0.73553 0.19578 0.0561 0.0
C1138 C 0.79792 0.23232 0.05472 0.0
C1139 C 0.76236 0.2795 0.0181 0.0
C1140 C 0.76521 0.26053 0.0369 0.0
C1141 C 0.76837 0.20488 0.08357 0.0
C1142 C 0.76977 0.22457 0.07611 0.0
H1143 H 0.6932 0.30871 0.95925 0.0
H1144 H 0.70799 0.27702 0.95515 0.0
H1145 H 0.81744 0.25582 0.01864 0.0
H1146 H 0.82735 0.16987 0.101 0.0
H1147 H 0.82625 0.20146 0.12863 0.0
C1148 C 0.72339 0.68031 0.45597 0.0
C1149 C 0.7506 0.67182 0.50253 0.0
C1150 C 0.72412 0.6989 0.44953 0.0
C1151 C 0.75514 0.73437 0.5624 0.0
H1152 H 0.70825 0.76582 0.4263 0.0
C1153 C 0.75459 0.81109 0.5669 0.0
C1154 C 0.72729 0.81945 0.5201 0.0
C1155 C 0.75315 0.79261 0.57555 0.0
C1156 C 0.72067 0.75709 0.465 0.0
H1157 H 0.80392 0.67495 0.56778 0.0
H1158 H 0.80638 0.70723 0.55419 0.0
H1159 H 0.72241 0.73512 0.40435 0.0
H1160 H 0.67301 0.81648 0.45779 0.0
H1161 H 0.66954 0.78441 0.47479 0.0
H1162 H 0.7536 0.7564 0.623 0.0
C1163 C 0.78341 0.69986 0.52528 0.0
C1164 C 0.72925 0.73959 0.45222 0.0
C1165 C 0.78244 0.68132 0.53203 0.0
C1166 C 0.6947 0.81017 0.49332 0.0
C1167 C 0.69305 0.79175 0.50217 0.0
C1168 C 0.74661 0.75189 0.57518 0.0
C1169 C 0.7526 0.70892 0.48864 0.0
C1170 C 0.7467 0.72805 0.50074 0.0
C1171 C 0.72389 0.78262 0.53842 0.0
C1172 C 0.72922 0.76343 0.52663 0.0
H1173 H 0.69858 0.67319 0.43259 0.0
H1174 H 0.70017 0.70545 0.42003 0.0
H1175 H 0.76761 0.72565 0.60111 0.0
H1176 H 0.77993 0.81806 0.5884 0.0
H1177 H 0.77712 0.78601 0.60476 0.0
C1178 C 0.23302 0.81669 -0.00382 0.0
C1179 C 0.26315 0.82035 0.04708 0.0
C1180 C 0.22516 0.79901 0.97636 0.0
C1181 C 0.25986 0.75212 -0.00049 0.0
H1182 H 0.1588 0.74095 0.99071 0.0
C1183 C 0.21964 0.68008 0.99014 0.0
C1184 C 0.1943 0.67692 0.93238 0.0
C1185 C 0.2227 0.69722 0.016 0.0
C1186 C 0.18712 0.7439 -0.0065 0.0
H1187 H 0.31149 0.80913 0.11116 0.0
H1188 H 0.29845 0.77855 0.07609 0.0
H1189 H 0.17868 0.77217 -0.00378 0.0
H1190 H 0.14695 0.68752 0.86413 0.0
H1191 H 0.15184 0.71726 0.90957 0.0
H1192 H 0.2684 0.72392 -0.00306 0.0
C1193 C 0.28044 0.78903 0.05174 0.0
C1194 C 0.1984 0.76175 -0.00442 0.0
C1195 C 0.28812 0.80661 0.07167 0.0
C1196 C 0.16718 0.6898 0.90816 0.0
C1197 C 0.17011 0.7069 0.93412 0.0
C1198 C 0.24866 0.73432 -0.00211 0.0
C1199 C 0.24763 0.78491 0.0068 0.0
C1200 C 0.23492 0.76606 -0.00149 0.0
C1201 C 0.20003 0.71114 0.98476 0.0
C1202 C 0.2122 0.73 -0.00508 0.0
H1203 H 0.21329 0.82707 0.97663 0.0
H1204 H 0.20016 0.79625 0.9404 0.0
H1205 H 0.28807 0.75497 0.00121 0.0
H1206 H 0.24055 0.67027 0.01038 0.0
H1207 H 0.24533 0.70007 0.05634 0.0
loop_
_geom_bond_atom_site_label_1
_geom_bond_atom_site_label_2
_geom_bond_distance
_geom_bond_site_symmetry_2
_ccdc_geom_bond_type
C0 O27 1.312 . S
C0 O28 1.208 . S
C1 O22 1.331 . S
C1 O25 1.244 . S
C2 O24 1.264 . S
C2 O26 1.273 . S
Mg3 O5 1.936 . S
Mg3 O12 2.081 . S
Mg3 O14 2.023 . S
Mg3 O18 2.031 . S
Mg3 O27 2.291 . S
Mg4 O5 1.963 . S
Mg4 O15 1.942 . S
Mg4 O16 1.955 . S
Mg4 O23 1.986 . S
O5 Mg3 1.936 . S
O5 Mg4 1.963 . S
O5 Mg6 1.915 . S
Mg6 O5 1.915 . S
Mg6 O7 1.915 . S
Mg6 O11 2.013 . S
Mg6 O17 2.114 . S
Mg6 O21 2.013 . S
Mg6 O27 2.114 . S
O7 Mg6 1.915 . S
O7 Mg8 1.936 . S
O7 Mg9 1.963 . S
Mg8 O7 1.936 . S
Mg8 O17 2.291 . S
Mg8 O22 2.081 . S
Mg8 O24 2.023 . S
Mg8 O28 2.031 . S
Mg9 O7 1.963 . S
Mg9 O13 1.986 . S
Mg9 O25 1.942 . S
Mg9 O26 1.955 . S
C10 O21 1.191 . S
C10 O23 1.307 . S
O11 Mg6 2.013 . S
O11 C30 1.191 . S
O12 Mg3 2.081 . S
O12 C20 1.331 . S
O13 Mg9 1.986 . S
O13 C30 1.307 . S
O14 Mg3 2.023 . S
O14 C29 1.264 . S
O15 Mg4 1.942 . S
O15 C20 1.244 . S
O16 Mg4 1.955 . S
O16 C29 1.273 . S
O17 Mg6 2.114 . S
O17 Mg8 2.291 . S
O17 C19 1.312 . S
O18 Mg3 2.031 . S
O18 C19 1.208 . S
C19 O17 1.312 . S
C19 O18 1.208 . S
C20 O12 1.331 . S
C20 O15 1.244 . S
O21 Mg6 2.013 . S
O21 C10 1.191 . S
O22 C1 1.331 . S
O22 Mg8 2.081 . S
O23 Mg4 1.986 . S
O23 C10 1.307 . S
O24 C2 1.264 . S
O24 Mg8 2.023 . S
O25 C1 1.244 . S
O25 Mg9 1.942 . S
O26 C2 1.273 . S
O26 Mg9 1.955 . S
O27 C0 1.312 . S
O27 Mg3 2.291 . S
O27 Mg6 2.114 . S
O28 C0 1.208 . S
O28 Mg8 2.031 . S
C29 O14 1.264 . S
C29 O16 1.273 . S
C30 O11 1.191 . S
C30 O13 1.307 . S
C31 O58 1.312 . S
C31 O59 1.208 1_556 S
C32 O53 1.331 . S
C32 O56 1.244 . S
C33 O55 1.264 . S
C33 O57 1.273 . S
Mg34 O36 1.936 . S
Mg34 O43 2.081 . S
Mg34 O45 2.023 . S
Mg34 O49 2.031 1_556 S
Mg34 O58 2.291 . S
Mg35 O36 1.963 . S
Mg35 O46 1.942 . S
Mg35 O47 1.955 . S
Mg35 O54 1.986 1_556 S
O36 Mg34 1.936 . S
O36 Mg35 1.963 . S
O36 Mg37 1.915 1_556 S
Mg37 O36 1.915 1_554 S
Mg37 O38 1.915 . S
Mg37 O42 2.013 . S
Mg37 O48 2.114 . S
Mg37 O52 2.013 . S
Mg37 O58 2.114 1_554 S
O38 Mg37 1.915 . S
O38 Mg39 1.936 . S
O38 Mg40 1.963 . S
Mg39 O38 1.936 . S
Mg39 O48 2.291 . S
Mg39 O53 2.081 . S
Mg39 O55 2.023 . S
Mg39 O59 2.031 . S
Mg40 O38 1.963 . S
Mg40 O44 1.986 . S
Mg40 O56 1.942 . S
Mg40 O57 1.955 . S
C41 O52 1.191 . S
C41 O54 1.307 . S
O42 Mg37 2.013 . S
O42 C61 1.191 . S
O43 Mg34 2.081 . S
O43 C51 1.331 . S
O44 Mg40 1.986 . S
O44 C61 1.307 . S
O45 Mg34 2.023 . S
O45 C60 1.264 . S
O46 Mg35 1.942 . S
O46 C51 1.244 . S
O47 Mg35 1.955 . S
O47 C60 1.273 . S
O48 Mg37 2.114 . S
O48 Mg39 2.291 . S
O48 C50 1.312 . S
O49 Mg34 2.031 1_554 S
O49 C50 1.208 . S
C50 O48 1.312 . S
C50 O49 1.208 . S
C51 O43 1.331 . S
C51 O46 1.244 . S
O52 Mg37 2.013 . S
O52 C41 1.191 . S
O53 C32 1.331 . S
O53 Mg39 2.081 . S
O54 Mg35 1.986 1_554 S
O54 C41 1.307 . S
O55 C33 1.264 . S
O55 Mg39 2.023 . S
O56 C32 1.244 . S
O56 Mg40 1.942 . S
O57 C33 1.273 . S
O57 Mg40 1.955 . S
O58 C31 1.312 . S
O58 Mg34 2.291 . S
O58 Mg37 2.114 1_556 S
O59 C31 1.208 1_554 S
O59 Mg39 2.031 . S
C60 O45 1.264 . S
C60 O47 1.273 . S
C61 O42 1.191 . S
C61 O44 1.307 . S
C62 O89 1.312 . S
C62 O90 1.208 . S
C63 O84 1.331 . S
C63 O87 1.244 . S
C64 O86 1.264 . S
C64 O88 1.273 . S
Mg65 O67 1.936 . S
Mg65 O74 2.081 . S
Mg65 O76 2.023 . S
Mg65 O80 2.031 . S
Mg65 O89 2.291 . S
Mg66 O67 1.963 . S
Mg66 O77 1.942 . S
Mg66 O78 1.955 . S
Mg66 O85 1.986 . S
O67 Mg65 1.936 . S
O67 Mg66 1.963 . S
O67 Mg68 1.915 . S
Mg68 O67 1.915 . S
Mg68 O69 1.915 . S
Mg68 O73 2.013 . S
Mg68 O79 2.114 . S
Mg68 O83 2.013 . S
Mg68 O89 2.114 . S
O69 Mg68 1.915 . S
O69 Mg70 1.936 . S
O69 Mg71 1.963 . S
Mg70 O69 1.936 . S
Mg70 O79 2.291 . S
Mg70 O84 2.081 . S
Mg70 O86 2.023 . S
Mg70 O90 2.031 . S
Mg71 O69 1.963 . S
Mg71 O75 1.986 . S
Mg71 O87 1.942 . S
Mg71 O88 1.955 . S
C72 O83 1.191 . S
C72 O85 1.307 . S
O73 Mg68 2.013 . S
O73 C92 1.191 . S
O74 Mg65 2.081 . S
O74 C82 1.331 . S
O75 Mg71 1.986 . S
O75 C92 1.307 . S
O76 Mg65 2.023 . S
O76 C91 1.264 . S
O77 Mg66 1.942 . S
O77 C82 1.244 . S
O78 Mg66 1.955 . S
O78 C91 1.273 . S
O79 Mg68 2.114 . S
O79 Mg70 2.291 . S
O79 C81 1.312 . S
O80 Mg65 2.031 . S
O80 C81 1.208 . S
C81 O79 1.312 . S
C81 O80 1.208 . S
C82 O74 1.331 . S
C82 O77 1.244 . S
O83 Mg68 2.013 . S
O83 C72 1.191 . S
O84 C63 1.331 . S
O84 Mg70 2.081 . S
O85 Mg66 1.986 . S
O85 C72 1.307 . S
O86 C64 1.264 . S
O86 Mg70 2.023 . S
O87 C63 1.244 . S
O87 Mg71 1.942 . S
O88 C64 1.273 . S
O88 Mg71 1.955 . S
O89 C62 1.312 . S
O89 Mg65 2.291 . S
O89 Mg68 2.114 . S
O90 C62 1.208 . S
O90 Mg70 2.031 . S
C91 O76 1.264 . S
C91 O78 1.273 . S
C92 O73 1.191 . S
C92 O75 1.307 . S
C93 O120 1.312 . S
C93 O121 1.208 1_554 S
C94 O115 1.331 . S
C94 O118 1.244 . S
C95 O117 1.264 . S
C95 O119 1.273 . S
Mg96 O98 1.936 . S
Mg96 O105 2.081 . S
Mg96 O107 2.023 . S
Mg96 O111 2.031 1_554 S
Mg96 O120 2.291 . S
Mg97 O98 1.963 . S
Mg97 O108 1.942 . S
Mg97 O109 1.955 . S
Mg97 O116 1.986 1_554 S
O98 Mg96 1.936 . S
O98 Mg97 1.963 . S
O98 Mg99 1.915 1_554 S
Mg99 O98 1.915 1_556 S
Mg99 O100 1.915 . S
Mg99 O104 2.013 . S
Mg99 O110 2.114 . S
Mg99 O114 2.013 . S
Mg99 O120 2.114 1_556 S
O100 Mg99 1.915 . S
O100 Mg101 1.936 . S
O100 Mg102 1.963 . S
Mg101 O100 1.936 . S
Mg101 O110 2.291 . S
Mg101 O115 2.081 . S
Mg101 O117 2.023 . S
Mg101 O121 2.031 . S
Mg102 O100 1.963 . S
Mg102 O106 1.986 . S
Mg102 O118 1.942 . S
Mg102 O119 1.955 . S
C103 O114 1.191 . S
C103 O116 1.307 . S
O104 Mg99 2.013 . S
O104 C123 1.191 . S
O105 Mg96 2.081 . S
O105 C113 1.331 . S
O106 Mg102 1.986 . S
O106 C123 1.307 . S
O107 Mg96 2.023 . S
O107 C122 1.264 . S
O108 Mg97 1.942 . S
O108 C113 1.244 . S
O109 Mg97 1.955 . S
O109 C122 1.273 . S
O110 Mg99 2.114 . S
O110 Mg101 2.291 . S
O110 C112 1.312 . S
O111 Mg96 2.031 1_556 S
O111 C112 1.208 . S
C112 O110 1.312 . S
C112 O111 1.208 . S
C113 O105 1.331 . S
C113 O108 1.244 . S
O114 Mg99 2.013 . S
O114 C103 1.191 . S
O115 C94 1.331 . S
O115 Mg101 2.081 . S
O116 Mg97 1.986 1_556 S
O116 C103 1.307 . S
O117 C95 1.264 . S
O117 Mg101 2.023 . S
O118 C94 1.244 . S
O118 Mg102 1.942 . S
O119 C95 1.273 . S
O119 Mg102 1.955 . S
O120 C93 1.312 . S
O120 Mg96 2.291 . S
O120 Mg99 2.114 1_554 S
O121 C93 1.208 1_556 S
O121 Mg101 2.031 . S
C122 O107 1.264 . S
C122 O109 1.273 . S
C123 O104 1.191 . S
C123 O106 1.307 . S
C124 O151 1.312 . S
C124 O152 1.208 . S
C125 O146 1.331 . S
C125 O149 1.244 . S
C126 O148 1.264 . S
C126 O150 1.273 . S
Mg127 O129 1.936 . S
Mg127 O136 2.081 . S
Mg127 O138 2.023 . S
Mg127 O142 2.031 . S
Mg127 O151 2.291 . S
Mg128 O129 1.963 . S
Mg128 O139 1.942 . S
Mg128 O140 1.955 . S
Mg128 O147 1.986 . S
O129 Mg127 1.936 . S
O129 Mg128 1.963 . S
O129 Mg130 1.915 . S
Mg130 O129 1.915 . S
Mg130 O131 1.915 . S
Mg130 O135 2.013 . S
Mg130 O141 2.114 . S
Mg130 O145 2.013 . S
Mg130 O151 2.114 . S
O131 Mg130 1.915 . S
O131 Mg132 1.936 . S
O131 Mg133 1.963 . S
Mg132 O131 1.936 . S
Mg132 O141 2.291 . S
Mg132 O146 2.081 . S
Mg132 O148 2.023 . S
Mg132 O152 2.031 . S
Mg133 O131 1.963 . S
Mg133 O137 1.986 . S
Mg133 O149 1.942 . S
Mg133 O150 1.955 . S
C134 O145 1.191 . S
C134 O147 1.307 . S
O135 Mg130 2.013 . S
O135 C154 1.191 . S
O136 Mg127 2.081 . S
O136 C144 1.331 . S
O137 Mg133 1.986 . S
O137 C154 1.307 . S
O138 Mg127 2.023 . S
O138 C153 1.264 . S
O139 Mg128 1.942 . S
O139 C144 1.244 . S
O140 Mg128 1.955 . S
O140 C153 1.273 . S
O141 Mg130 2.114 . S
O141 Mg132 2.291 . S
O141 C143 1.312 . S
O142 Mg127 2.031 . S
O142 C143 1.208 . S
C143 O141 1.312 . S
C143 O142 1.208 . S
C144 O136 1.331 . S
C144 O139 1.244 . S
O145 Mg130 2.013 . S
O145 C134 1.191 . S
O146 C125 1.331 . S
O146 Mg132 2.081 . S
O147 Mg128 1.986 . S
O147 C134 1.307 . S
O148 C126 1.264 . S
O148 Mg132 2.023 . S
O149 C125 1.244 . S
O149 Mg133 1.942 . S
O150 C126 1.273 . S
O150 Mg133 1.955 . S
O151 C124 1.312 . S
O151 Mg127 2.291 . S
O151 Mg130 2.114 . S
O152 C124 1.208 . S
O152 Mg132 2.031 . S
C153 O138 1.264 . S
C153 O140 1.273 . S
C154 O135 1.191 . S
C154 O137 1.307 . S
C155 O182 1.312 . S
C155 O183 1.208 1_556 S
C156 O177 1.331 . S
C156 O180 1.244 . S
C157 O179 1.264 . S
C157 O181 1.273 . S
Mg158 O160 1.936 . S
Mg158 O167 2.081 . S
Mg158 O169 2.023 . S
Mg158 O173 2.031 1_556 S
Mg158 O182 2.291 . S
Mg159 O160 1.963 . S
Mg159 O170 1.942 . S
Mg159 O171 1.955 . S
Mg159 O178 1.986 1_556 S
O160 Mg158 1.936 . S
O160 Mg159 1.963 . S
O160 Mg161 1.915 1_556 S
Mg161 O160 1.915 1_554 S
Mg161 O162 1.915 . S
Mg161 O166 2.013 . S
Mg161 O172 2.114 . S
Mg161 O176 2.013 . S
Mg161 O182 2.114 1_554 S
O162 Mg161 1.915 . S
O162 Mg163 1.936 . S
O162 Mg164 1.963 . S
Mg163 O162 1.936 . S
Mg163 O172 2.291 . S
Mg163 O177 2.081 . S
Mg163 O179 2.023 . S
Mg163 O183 2.031 . S
Mg164 O162 1.963 . S
Mg164 O168 1.986 . S
Mg164 O180 1.942 . S
Mg164 O181 1.955 . S
C165 O176 1.191 . S
C165 O178 1.307 . S
O166 Mg161 2.013 . S
O166 C185 1.191 . S
O167 Mg158 2.081 . S
O167 C175 1.331 . S
O168 Mg164 1.986 . S
O168 C185 1.307 . S
O169 Mg158 2.023 . S
O169 C184 1.264 . S
O170 Mg159 1.942 . S
O170 C175 1.244 . S
O171 Mg159 1.955 . S
O171 C184 1.273 . S
O172 Mg161 2.114 . S
O172 Mg163 2.291 . S
O172 C174 1.312 . S
O173 Mg158 2.031 1_554 S
O173 C174 1.208 . S
C174 O172 1.312 . S
C174 O173 1.208 . S
C175 O167 1.331 . S
C175 O170 1.244 . S
O176 Mg161 2.013 . S
O176 C165 1.191 . S
O177 C156 1.331 . S
O177 Mg163 2.081 . S
O178 Mg159 1.986 1_554 S
O178 C165 1.307 . S
O179 C157 1.264 . S
O179 Mg163 2.023 . S
O180 C156 1.244 . S
O180 Mg164 1.942 . S
O181 C157 1.273 . S
O181 Mg164 1.955 . S
O182 C155 1.312 . S
O182 Mg158 2.291 . S
O182 Mg161 2.114 1_556 S
O183 C155 1.208 1_554 S
O183 Mg163 2.031 . S
C184 O169 1.264 . S
C184 O171 1.273 . S
C185 O166 1.191 . S
C185 O168 1.307 . S
C186 O213 1.312 . S
C186 O214 1.208 . S
C187 O208 1.331 . S
C187 O211 1.244 . S
C188 O210 1.264 . S
C188 O212 1.273 . S
Mg189 O191 1.936 . S
Mg189 O198 2.081 . S
Mg189 O200 2.023 . S
Mg189 O204 2.031 . S
Mg189 O213 2.291 . S
Mg190 O191 1.963 . S
Mg190 O201 1.942 . S
Mg190 O202 1.955 . S
Mg190 O209 1.986 . S
O191 Mg189 1.936 . S
O191 Mg190 1.963 . S
O191 Mg192 1.915 . S
Mg192 O191 1.915 . S
Mg192 O193 1.915 . S
Mg192 O197 2.013 . S
Mg192 O203 2.114 . S
Mg192 O207 2.013 . S
Mg192 O213 2.114 . S
O193 Mg192 1.915 . S
O193 Mg194 1.936 . S
O193 Mg195 1.963 . S
Mg194 O193 1.936 . S
Mg194 O203 2.291 . S
Mg194 O208 2.081 . S
Mg194 O210 2.023 . S
Mg194 O214 2.031 . S
Mg195 O193 1.963 . S
Mg195 O199 1.986 . S
Mg195 O211 1.942 . S
Mg195 O212 1.955 . S
C196 O207 1.191 . S
C196 O209 1.307 . S
O197 Mg192 2.013 . S
O197 C216 1.191 . S
O198 Mg189 2.081 . S
O198 C206 1.331 . S
O199 Mg195 1.986 . S
O199 C216 1.307 . S
O200 Mg189 2.023 . S
O200 C215 1.264 . S
O201 Mg190 1.942 . S
O201 C206 1.244 . S
O202 Mg190 1.955 . S
O202 C215 1.273 . S
O203 Mg192 2.114 . S
O203 Mg194 2.291 . S
O203 C205 1.312 . S
O204 Mg189 2.031 . S
O204 C205 1.208 . S
C205 O203 1.312 . S
C205 O204 1.208 . S
C206 O198 1.331 . S
C206 O201 1.244 . S
O207 Mg192 2.013 . S
O207 C196 1.191 . S
O208 C187 1.331 . S
O208 Mg194 2.081 . S
O209 Mg190 1.986 . S
O209 C196 1.307 . S
O210 C188 1.264 . S
O210 Mg194 2.023 . S
O211 C187 1.244 . S
O211 Mg195 1.942 . S
O212 C188 1.273 . S
O212 Mg195 1.955 . S
O213 C186 1.312 . S
O213 Mg189 2.291 . S
O213 Mg192 2.114 . S
O214 C186 1.208 . S
O214 Mg194 2.031 . S
C215 O200 1.264 . S
C215 O202 1.273 . S
C216 O197 1.191 . S
C216 O199 1.307 . S
C217 O244 1.312 . S
C217 O245 1.208 1_554 S
C218 O239 1.331 . S
C218 O242 1.244 . S
C219 O241 1.264 . S
C219 O243 1.273 . S
Mg220 O222 1.936 . S
Mg220 O229 2.081 . S
Mg220 O231 2.023 . S
Mg220 O235 2.031 1_554 S
Mg220 O244 2.291 . S
Mg221 O222 1.963 . S
Mg221 O232 1.942 . S
Mg221 O233 1.955 . S
Mg221 O240 1.986 1_554 S
O222 Mg220 1.936 . S
O222 Mg221 1.963 . S
O222 Mg223 1.915 1_554 S
Mg223 O222 1.915 1_556 S
Mg223 O224 1.915 . S
Mg223 O228 2.013 . S
Mg223 O234 2.114 . S
Mg223 O238 2.013 . S
Mg223 O244 2.114 1_556 S
O224 Mg223 1.915 . S
O224 Mg225 1.936 . S
O224 Mg226 1.963 . S
Mg225 O224 1.936 . S
Mg225 O234 2.291 . S
Mg225 O239 2.081 . S
Mg225 O241 2.023 . S
Mg225 O245 2.031 . S
Mg226 O224 1.963 . S
Mg226 O230 1.986 . S
Mg226 O242 1.942 . S
Mg226 O243 1.955 . S
C227 O238 1.191 . S
C227 O240 1.307 . S
O228 Mg223 2.013 . S
O228 C247 1.191 . S
O229 Mg220 2.081 . S
O229 C237 1.331 . S
O230 Mg226 1.986 . S
O230 C247 1.307 . S
O231 Mg220 2.023 . S
O231 C246 1.264 . S
O232 Mg221 1.942 . S
O232 C237 1.244 . S
O233 Mg221 1.955 . S
O233 C246 1.273 . S
O234 Mg223 2.114 . S
O234 Mg225 2.291 . S
O234 C236 1.312 . S
O235 Mg220 2.031 1_556 S
O235 C236 1.208 . S
C236 O234 1.312 . S
C236 O235 1.208 . S
C237 O229 1.331 . S
C237 O232 1.244 . S
O238 Mg223 2.013 . S
O238 C227 1.191 . S
O239 C218 1.331 . S
O239 Mg225 2.081 . S
O240 Mg221 1.986 1_556 S
O240 C227 1.307 . S
O241 C219 1.264 . S
O241 Mg225 2.023 . S
O242 C218 1.244 . S
O242 Mg226 1.942 . S
O243 C219 1.273 . S
O243 Mg226 1.955 . S
O244 C217 1.312 . S
O244 Mg220 2.291 . S
O244 Mg223 2.114 1_554 S
O245 C217 1.208 1_556 S
O245 Mg225 2.031 . S
C246 O231 1.264 . S
C246 O233 1.273 . S
C247 O228 1.191 . S
C247 O230 1.307 . S
C248 C249 1.349 . S
C248 C250 1.327 . S
C248 H273 0.950 . S
C249 C248 1.349 . S
C249 C265 1.349 . S
C250 C248 1.327 . S
C250 C269 1.429 . S
C250 H274 0.950 . S
C251 C268 1.574 . S
C251 C270 1.368 . S
C251 H275 0.949 . S
H252 C256 0.949 . S
C253 C254 1.349 . S
C253 C255 1.327 . S
C253 H276 0.950 . S
C254 C253 1.349 . S
C254 C266 1.349 . S
C255 C253 1.327 . S
C255 C271 1.429 . S
C255 H277 0.950 . S
C256 H252 0.949 . S
C256 C264 1.574 . S
C256 C272 1.368 . S
H257 C265 0.950 . S
H258 C263 0.950 . S
H259 C264 0.949 . S
H260 C266 0.950 . S
H261 C267 0.950 . S
H262 C268 0.949 . S
C263 H258 0.950 . S
C263 C265 1.327 . S
C263 C269 1.429 . S
C264 C256 1.574 . S
C264 H259 0.949 . S
C264 C270 1.368 . S
C265 C249 1.349 . S
C265 H257 0.950 . S
C265 C263 1.327 . S
C266 C254 1.349 . S
C266 H260 0.950 . S
C266 C267 1.327 . S
C267 H261 0.950 . S
C267 C266 1.327 . S
C267 C271 1.429 . S
C268 C251 1.574 . S
C268 H262 0.949 . S
C268 C272 1.368 . S
C269 C250 1.429 . S
C269 C263 1.429 . S
C269 C270 1.523 . S
C270 C251 1.368 . S
C270 C264 1.368 . S
C270 C269 1.523 . S
C271 C255 1.429 . S
C271 C267 1.429 . S
C271 C272 1.523 . S
C272 C256 1.368 . S
C272 C268 1.368 . S
C272 C271 1.523 . S
H273 C248 0.950 . S
H274 C250 0.950 . S
H275 C251 0.949 . S
H276 C253 0.950 . S
H277 C255 0.950 . S
C278 C279 1.349 . S
C278 C280 1.327 . S
C278 H303 0.950 . S
C279 C278 1.349 . S
C279 C295 1.349 . S
C280 C278 1.327 . S
C280 C299 1.429 . S
C280 H304 0.950 . S
C281 C298 1.574 . S
C281 C300 1.368 . S
C281 H305 0.949 . S
H282 C286 0.949 . S
C283 C284 1.349 . S
C283 C285 1.327 . S
C283 H306 0.950 . S
C284 C283 1.349 . S
C284 C296 1.349 . S
C285 C283 1.327 . S
C285 C301 1.429 . S
C285 H307 0.950 . S
C286 H282 0.949 . S
C286 C294 1.574 . S
C286 C302 1.368 . S
H287 C295 0.950 . S
H288 C293 0.950 . S
H289 C294 0.949 . S
H290 C296 0.950 . S
H291 C297 0.950 . S
H292 C298 0.949 . S
C293 H288 0.950 . S
C293 C295 1.327 . S
C293 C299 1.429 . S
C294 C286 1.574 . S
C294 H289 0.949 . S
C294 C300 1.368 . S
C295 C279 1.349 . S
C295 H287 0.950 . S
C295 C293 1.327 . S
C296 C284 1.349 . S
C296 H290 0.950 . S
C296 C297 1.327 . S
C297 H291 0.950 . S
C297 C296 1.327 . S
C297 C301 1.429 . S
C298 C281 1.574 . S
C298 H292 0.949 . S
C298 C302 1.368 . S
C299 C280 1.429 . S
C299 C293 1.429 . S
C299 C300 1.523 . S
C300 C281 1.368 . S
C300 C294 1.368 . S
C300 C299 1.523 . S
C301 C285 1.429 . S
C301 C297 1.429 . S
C301 C302 1.523 . S
C302 C286 1.368 . S
C302 C298 1.368 . S
C302 C301 1.523 . S
H303 C278 0.950 . S
H304 C280 0.950 . S
H305 C281 0.949 . S
H306 C283 0.950 . S
H307 C285 0.950 . S
C308 C309 1.349 . S
C308 C310 1.327 . S
C308 H333 0.950 . S
C309 C308 1.349 . S
C309 C325 1.349 . S
C310 C308 1.327 . S
C310 C329 1.429 . S
C310 H334 0.950 . S
C311 C328 1.574 . S
C311 C330 1.368 . S
C311 H335 0.949 . S
H312 C316 0.949 . S
C313 C314 1.349 . S
C313 C315 1.327 . S
C313 H336 0.950 . S
C314 C313 1.349 . S
C314 C326 1.349 . S
C315 C313 1.327 . S
C315 C331 1.429 . S
C315 H337 0.950 . S
C316 H312 0.949 . S
C316 C324 1.574 . S
C316 C332 1.368 . S
H317 C325 0.950 . S
H318 C323 0.950 . S
H319 C324 0.949 . S
H320 C326 0.950 . S
H321 C327 0.950 . S
H322 C328 0.949 . S
C323 H318 0.950 . S
C323 C325 1.327 . S
C323 C329 1.429 . S
C324 C316 1.574 . S
C324 H319 0.949 . S
C324 C330 1.368 . S
C325 C309 1.349 . S
C325 H317 0.950 . S
C325 C323 1.327 . S
C326 C314 1.349 . S
C326 H320 0.950 . S
C326 C327 1.327 . S
C327 H321 0.950 . S
C327 C326 1.327 . S
C327 C331 1.429 . S
C328 C311 1.574 . S
C328 H322 0.949 . S
C328 C332 1.368 . S
C329 C310 1.429 . S
C329 C323 1.429 . S
C329 C330 1.523 . S
C330 C311 1.368 . S
C330 C324 1.368 . S
C330 C329 1.523 . S
C331 C315 1.429 . S
C331 C327 1.429 . S
C331 C332 1.523 . S
C332 C316 1.368 . S
C332 C328 1.368 . S
C332 C331 1.523 . S
H333 C308 0.950 . S
H334 C310 0.950 . S
H335 C311 0.949 . S
H336 C313 0.950 . S
H337 C315 0.950 . S
C338 C339 1.349 . S
C338 C340 1.327 . S
C338 H363 0.950 . S
C339 C338 1.349 . S
C339 C355 1.349 . S
C340 C338 1.327 . S
C340 C359 1.429 . S
C340 H364 0.950 . S
C341 C358 1.574 . S
C341 C360 1.368 . S
C341 H365 0.949 . S
H342 C346 0.949 . S
C343 C344 1.349 . S
C343 C345 1.327 . S
C343 H366 0.950 . S
C344 C343 1.349 . S
C344 C356 1.349 . S
C345 C343 1.327 . S
C345 C361 1.429 . S
C345 H367 0.950 . S
C346 H342 0.949 . S
C346 C354 1.574 . S
C346 C362 1.368 . S
H347 C355 0.950 . S
H348 C353 0.950 . S
H349 C354 0.949 . S
H350 C356 0.950 . S
H351 C357 0.950 . S
H352 C358 0.949 . S
C353 H348 0.950 . S
C353 C355 1.327 . S
C353 C359 1.429 . S
C354 C346 1.574 . S
C354 H349 0.949 . S
C354 C360 1.368 . S
C355 C339 1.349 . S
C355 H347 0.950 . S
C355 C353 1.327 . S
C356 C344 1.349 . S
C356 H350 0.950 . S
C356 C357 1.327 . S
C357 H351 0.950 . S
C357 C356 1.327 . S
C357 C361 1.429 . S
C358 C341 1.574 . S
C358 H352 0.949 . S
C358 C362 1.368 . S
C359 C340 1.429 . S
C359 C353 1.429 . S
C359 C360 1.523 . S
C360 C341 1.368 . S
C360 C354 1.368 . S
C360 C359 1.523 . S
C361 C345 1.429 . S
C361 C357 1.429 . S
C361 C362 1.523 . S
C362 C346 1.368 . S
C362 C358 1.368 . S
C362 C361 1.523 . S
H363 C338 0.950 . S
H364 C340 0.950 . S
H365 C341 0.949 . S
H366 C343 0.950 . S
H367 C345 0.950 . S
C368 C369 1.349 . S
C368 C370 1.327 . S
C368 H393 0.950 . S
C369 C368 1.349 . S
C369 C385 1.349 . S
C370 C368 1.327 . S
C370 C389 1.429 . S
C370 H394 0.950 . S
C371 C388 1.604 . S
C371 C390 1.339 1_565 S
C371 H395 0.949 . S
H372 C376 0.949 . S
C373 C374 1.349 . S
C373 C375 1.327 . S
C373 H396 0.950 . S
C374 C373 1.349 . S
C374 C386 1.349 . S
C375 C373 1.327 . S
C375 C391 1.429 . S
C375 H397 0.950 . S
C376 H372 0.949 . S
C376 C384 1.546 1_565 S
C376 C392 1.395 . S
H377 C385 0.950 . S
H378 C383 0.950 . S
H379 C384 0.949 . S
H380 C386 0.950 . S
H381 C387 0.950 . S
H382 C388 0.949 . S
C383 H378 0.950 . S
C383 C385 1.327 . S
C383 C389 1.429 . S
C384 C376 1.546 1_545 S
C384 H379 0.949 . S
C384 C390 1.368 . S
C385 C369 1.349 . S
C385 H377 0.950 . S
C385 C383 1.327 . S
C386 C374 1.349 . S
C386 H380 0.950 . S
C386 C387 1.327 . S
C387 H381 0.950 . S
C387 C386 1.327 . S
C387 C391 1.429 . S
C388 C371 1.604 . S
C388 H382 0.949 . S
C388 C392 1.368 . S
C389 C370 1.429 . S
C389 C383 1.429 . S
C389 C390 1.523 . S
C390 C371 1.339 1_545 S
C390 C384 1.368 . S
C390 C389 1.523 . S
C391 C375 1.429 . S
C391 C387 1.429 . S
C391 C392 1.523 . S
C392 C376 1.395 . S
C392 C388 1.368 . S
C392 C391 1.523 . S
H393 C368 0.950 . S
H394 C370 0.950 . S
H395 C371 0.949 . S
H396 C373 0.950 . S
H397 C375 0.950 . S
C398 C399 1.349 . S
C398 C400 1.327 . S
C398 H423 0.950 . S
C399 C398 1.349 . S
C399 C415 1.349 . S
C400 C398 1.327 . S
C400 C419 1.429 . S
C400 H424 0.950 . S
C401 C418 1.574 1_545 S
C401 C420 1.368 . S
C401 H425 0.949 . S
H402 C406 0.949 . S
C403 C404 1.349 . S
C403 C405 1.327 . S
C403 H426 0.950 . S
C404 C403 1.349 . S
C404 C416 1.349 . S
C405 C403 1.327 . S
C405 C421 1.429 . S
C405 H427 0.950 . S
C406 H402 0.949 . S
C406 C414 1.574 1_565 S
C406 C422 1.368 . S
H407 C415 0.950 . S
H408 C413 0.950 . S
H409 C414 0.949 . S
H410 C416 0.950 . S
H411 C417 0.950 . S
H412 C418 0.949 . S
C413 H408 0.950 . S
C413 C415 1.327 . S
C413 C419 1.429 . S
C414 C406 1.574 1_545 S
C414 H409 0.949 . S
C414 C420 1.368 . S
C415 C399 1.349 . S
C415 H407 0.950 . S
C415 C413 1.327 . S
C416 C404 1.349 . S
C416 H410 0.950 . S
C416 C417 1.327 . S
C417 H411 0.950 . S
C417 C416 1.327 . S
C417 C421 1.429 . S
C418 C401 1.574 1_565 S
C418 H412 0.949 . S
C418 C422 1.368 . S
C419 C400 1.429 . S
C419 C413 1.429 . S
C419 C420 1.523 . S
C420 C401 1.368 . S
C420 C414 1.368 . S
C420 C419 1.523 . S
C421 C405 1.429 . S
C421 C417 1.429 . S
C421 C422 1.523 . S
C422 C406 1.368 . S
C422 C418 1.368 . S
C422 C421 1.523 . S
H423 C398 0.950 . S
H424 C400 0.950 . S
H425 C401 0.949 . S
H426 C403 0.950 . S
H427 C405 0.950 . S
C428 C429 1.349 . S
C428 C430 1.327 . S
C428 H453 0.950 . S
C429 C428 1.349 . S
C429 C445 1.349 . S
C430 C428 1.327 . S
C430 C449 1.429 . S
C430 H454 0.950 . S
C431 C448 1.594 . S
C431 C450 1.349 1_545 S
C431 H455 0.949 . S
H432 C436 0.952 . S
C433 C434 1.349 . S
C433 C435 1.327 . S
C433 H456 0.950 . S
C434 C433 1.349 . S
C434 C446 1.349 . S
C435 C433 1.327 . S
C435 C451 1.429 . S
C435 H457 0.950 . S
C436 H432 0.952 . S
C436 C444 1.537 1_545 S
C436 C452 1.404 . S
H437 C445 0.950 . S
H438 C443 0.950 . S
H439 C444 0.949 . S
H440 C446 0.950 . S
H441 C447 0.950 . S
H442 C448 0.949 . S
C443 H438 0.950 . S
C443 C445 1.327 . S
C443 C449 1.429 . S
C444 C436 1.537 1_565 S
C444 H439 0.949 . S
C444 C450 1.368 . S
C445 C429 1.349 . S
C445 H437 0.950 . S
C445 C443 1.327 . S
C446 C434 1.349 . S
C446 H440 0.950 . S
C446 C447 1.327 . S
C447 H441 0.950 . S
C447 C446 1.327 . S
C447 C451 1.429 . S
C448 C431 1.594 . S
C448 H442 0.949 . S
C448 C452 1.368 . S
C449 C430 1.429 . S
C449 C443 1.429 . S
C449 C450 1.523 . S
C450 C431 1.349 1_565 S
C450 C444 1.368 . S
C450 C449 1.523 . S
C451 C435 1.429 . S
C451 C447 1.429 . S
C451 C452 1.523 . S
C452 C436 1.404 . S
C452 C448 1.368 . S
C452 C451 1.523 . S
H453 C428 0.950 . S
H454 C430 0.950 . S
H455 C431 0.949 . S
H456 C433 0.950 . S
H457 C435 0.950 . S
C458 C459 1.349 . S
C458 C460 1.327 . S
C458 H483 0.950 . S
C459 C458 1.349 . S
C459 C475 1.349 . S
C460 C458 1.327 . S
C460 C479 1.429 . S
C460 H484 0.950 . S
C461 C478 1.571 1_565 S
C461 C480 1.368 . S
C461 H485 0.949 . S
H462 C466 0.949 . S
C463 C464 1.349 . S
C463 C465 1.327 . S
C463 H486 0.950 . S
C464 C463 1.349 . S
C464 C476 1.349 . S
C465 C463 1.327 . S
C465 C481 1.429 . S
C465 H487 0.950 . S
C466 H462 0.949 . S
C466 C474 1.630 . S
C466 C482 1.368 . S
H467 C475 0.950 . S
H468 C473 0.950 . S
H469 C474 0.949 . S
H470 C476 0.950 . S
H471 C477 0.950 . S
H472 C478 0.949 . S
C473 H468 0.950 . S
C473 C475 1.327 . S
C473 C479 1.429 . S
C474 C466 1.630 . S
C474 H469 0.949 . S
C474 C480 1.314 1_545 S
C475 C459 1.349 . S
C475 H467 0.950 . S
C475 C473 1.327 . S
C476 C464 1.349 . S
C476 H470 0.950 . S
C476 C477 1.327 . S
C477 H471 0.950 . S
C477 C476 1.327 . S
C477 C481 1.429 . S
C478 C461 1.571 1_545 S
C478 H472 0.949 . S
C478 C482 1.371 . S
C479 C460 1.429 . S
C479 C473 1.429 . S
C479 C480 1.523 . S
C480 C461 1.368 . S
C480 C474 1.314 1_565 S
C480 C479 1.523 . S
C481 C465 1.429 . S
C481 C477 1.429 . S
C481 C482 1.523 . S
C482 C466 1.368 . S
C482 C478 1.371 . S
C482 C481 1.523 . S
H483 C458 0.950 . S
H484 C460 0.950 . S
H485 C461 0.949 . S
H486 C463 0.950 . S
H487 C465 0.950 . S
C488 C489 1.349 . S
C488 C490 1.327 . S
C488 H513 0.950 . S
C489 C488 1.349 . S
C489 C505 1.349 . S
C490 C488 1.327 . S
C490 C509 1.429 . S
C490 H514 0.950 . S
C491 C508 1.574 1_655 S
C491 C510 1.368 . S
C491 H515 0.949 . S
H492 C496 0.949 . S
C493 C494 1.349 . S
C493 C495 1.327 . S
C493 H516 0.950 . S
C494 C493 1.349 . S
C494 C506 1.349 . S
C495 C493 1.327 . S
C495 C511 1.429 . S
C495 H517 0.950 . S
C496 H492 0.949 . S
C496 C504 1.574 1_455 S
C496 C512 1.368 . S
H497 C505 0.950 . S
H498 C503 0.950 . S
H499 C504 0.949 . S
H500 C506 0.950 . S
H501 C507 0.950 . S
H502 C508 0.949 . S
C503 H498 0.950 . S
C503 C505 1.327 . S
C503 C509 1.429 . S
C504 C496 1.574 1_655 S
C504 H499 0.949 . S
C504 C510 1.368 . S
C505 C489 1.349 . S
C505 H497 0.950 . S
C505 C503 1.327 . S
C506 C494 1.349 . S
C506 H500 0.950 . S
C506 C507 1.327 . S
C507 H501 0.950 . S
C507 C506 1.327 . S
C507 C511 1.429 . S
C508 C491 1.574 1_455 S
C508 H502 0.949 . S
C508 C512 1.368 . S
C509 C490 1.429 . S
C509 C503 1.429 . S
C509 C510 1.523 . S
C510 C491 1.368 . S
C510 C504 1.368 . S
C510 C509 1.523 . S
C511 C495 1.429 . S
C511 C507 1.429 . S
C511 C512 1.523 . S
C512 C496 1.368 . S
C512 C508 1.368 . S
C512 C511 1.523 . S
H513 C488 0.950 . S
H514 C490 0.950 . S
H515 C491 0.949 . S
H516 C493 0.950 . S
H517 C495 0.950 . S
C518 C519 1.349 . S
C518 C520 1.327 . S
C518 H543 0.950 . S
C519 C518 1.349 . S
C519 C535 1.349 . S
C520 C518 1.327 . S
C520 C539 1.429 . S
C520 H544 0.950 . S
C521 C538 1.574 1_455 S
C521 C540 1.368 . S
C521 H545 0.949 . S
H522 C526 0.949 . S
C523 C524 1.349 . S
C523 C525 1.327 . S
C523 H546 0.950 . S
C524 C523 1.349 . S
C524 C536 1.349 . S
C525 C523 1.327 . S
C525 C541 1.429 . S
C525 H547 0.950 . S
C526 H522 0.949 . S
C526 C534 1.574 1_655 S
C526 C542 1.368 . S
H527 C535 0.950 . S
H528 C533 0.950 . S
H529 C534 0.949 . S
H530 C536 0.950 . S
H531 C537 0.950 . S
H532 C538 0.949 . S
C533 H528 0.950 . S
C533 C535 1.327 . S
C533 C539 1.429 . S
C534 C526 1.574 1_455 S
C534 H529 0.949 . S
C534 C540 1.368 . S
C535 C519 1.349 . S
C535 H527 0.950 . S
C535 C533 1.327 . S
C536 C524 1.349 . S
C536 H530 0.950 . S
C536 C537 1.327 . S
C537 H531 0.950 . S
C537 C536 1.327 . S
C537 C541 1.429 . S
C538 C521 1.574 1_655 S
C538 H532 0.949 . S
C538 C542 1.368 . S
C539 C520 1.429 . S
C539 C533 1.429 . S
C539 C540 1.523 . S
C540 C521 1.368 . S
C540 C534 1.368 . S
C540 C539 1.523 . S
C541 C525 1.429 . S
C541 C537 1.429 . S
C541 C542 1.523 . S
C542 C526 1.368 . S
C542 C538 1.368 . S
C542 C541 1.523 . S
H543 C518 0.950 . S
H544 C520 0.950 . S
H545 C521 0.949 . S
H546 C523 0.950 . S
H547 C525 0.950 . S
C548 C549 1.349 . S
C548 C550 1.327 . S
C548 H573 0.950 . S
C549 C548 1.349 . S
C549 C565 1.349 . S
C550 C548 1.327 . S
C550 C569 1.429 . S
C550 H574 0.950 . S
C551 C568 1.574 . S
C551 C570 1.368 . S
C551 H575 0.949 . S
H552 C556 0.949 . S
C553 C554 1.349 . S
C553 C555 1.327 . S
C553 H576 0.950 . S
C554 C553 1.349 . S
C554 C566 1.349 . S
C555 C553 1.327 . S
C555 C571 1.429 . S
C555 H577 0.950 . S
C556 H552 0.949 . S
C556 C564 1.574 . S
C556 C572 1.368 . S
H557 C565 0.950 . S
H558 C563 0.950 . S
H559 C564 0.949 . S
H560 C566 0.950 . S
H561 C567 0.950 . S
H562 C568 0.949 . S
C563 H558 0.950 . S
C563 C565 1.327 . S
C563 C569 1.429 . S
C564 C556 1.574 . S
C564 H559 0.949 . S
C564 C570 1.368 . S
C565 C549 1.349 . S
C565 H557 0.950 . S
C565 C563 1.327 . S
C566 C554 1.349 . S
C566 H560 0.950 . S
C566 C567 1.327 . S
C567 H561 0.950 . S
C567 C566 1.327 . S
C567 C571 1.429 . S
C568 C551 1.574 . S
C568 H562 0.949 . S
C568 C572 1.368 . S
C569 C550 1.429 . S
C569 C563 1.429 . S
C569 C570 1.523 . S
C570 C551 1.368 . S
C570 C564 1.368 . S
C570 C569 1.523 . S
C571 C555 1.429 . S
C571 C567 1.429 . S
C571 C572 1.523 . S
C572 C556 1.368 . S
C572 C568 1.368 . S
C572 C571 1.523 . S
H573 C548 0.950 . S
H574 C550 0.950 . S
H575 C551 0.949 . S
H576 C553 0.950 . S
H577 C555 0.950 . S
C578 C579 1.349 . S
C578 C580 1.327 . S
C578 H603 0.950 . S
C579 C578 1.349 . S
C579 C595 1.349 . S
C580 C578 1.327 . S
C580 C599 1.429 . S
C580 H604 0.950 . S
C581 C598 1.574 . S
C581 C600 1.368 . S
C581 H605 0.949 . S
H582 C586 0.949 . S
C583 C584 1.349 . S
C583 C585 1.327 . S
C583 H606 0.950 . S
C584 C583 1.349 . S
C584 C596 1.349 . S
C585 C583 1.327 . S
C585 C601 1.429 . S
C585 H607 0.950 . S
C586 H582 0.949 . S
C586 C594 1.574 . S
C586 C602 1.368 . S
H587 C595 0.950 . S
H588 C593 0.950 . S
H589 C594 0.949 . S
H590 C596 0.950 . S
H591 C597 0.950 . S
H592 C598 0.949 . S
C593 H588 0.950 . S
C593 C595 1.327 . S
C593 C599 1.429 . S
C594 C586 1.574 . S
C594 H589 0.949 . S
C594 C600 1.368 . S
C595 C579 1.349 . S
C595 H587 0.950 . S
C595 C593 1.327 . S
C596 C584 1.349 . S
C596 H590 0.950 . S
C596 C597 1.327 . S
C597 H591 0.950 . S
C597 C596 1.327 . S
C597 C601 1.429 . S
C598 C581 1.574 . S
C598 H592 0.949 . S
C598 C602 1.368 . S
C599 C580 1.429 . S
C599 C593 1.429 . S
C599 C600 1.523 . S
C600 C581 1.368 . S
C600 C594 1.368 . S
C600 C599 1.523 . S
C601 C585 1.429 . S
C601 C597 1.429 . S
C601 C602 1.523 . S
C602 C586 1.368 . S
C602 C598 1.368 . S
C602 C601 1.523 . S
H603 C578 0.950 . S
H604 C580 0.950 . S
H605 C581 0.949 . S
H606 C583 0.950 . S
H607 C585 0.950 . S
C608 C609 1.349 . S
C608 C610 1.327 . S
C608 H633 0.950 . S
C609 C608 1.349 . S
C609 C625 1.349 . S
C610 C608 1.327 . S
C610 C629 1.429 . S
C610 H634 0.950 . S
C611 C628 1.574 . S
C611 C630 1.368 . S
C611 H635 0.949 . S
H612 C616 0.949 . S
C613 C614 1.349 . S
C613 C615 1.327 . S
C613 H636 0.950 . S
C614 C613 1.349 . S
C614 C626 1.349 . S
C615 C613 1.327 . S
C615 C631 1.429 . S
C615 H637 0.950 . S
C616 H612 0.949 . S
C616 C624 1.574 . S
C616 C632 1.368 . S
H617 C625 0.950 . S
H618 C623 0.950 . S
H619 C624 0.949 . S
H620 C626 0.950 . S
H621 C627 0.950 . S
H622 C628 0.949 . S
C623 H618 0.950 . S
C623 C625 1.327 . S
C623 C629 1.429 . S
C624 C616 1.574 . S
C624 H619 0.949 . S
C624 C630 1.368 . S
C625 C609 1.349 . S
C625 H617 0.950 . S
C625 C623 1.327 . S
C626 C614 1.349 . S
C626 H620 0.950 . S
C626 C627 1.327 . S
C627 H621 0.950 . S
C627 C626 1.327 . S
C627 C631 1.429 . S
C628 C611 1.574 . S
C628 H622 0.949 . S
C628 C632 1.368 . S
C629 C610 1.429 . S
C629 C623 1.429 . S
C629 C630 1.523 . S
C630 C611 1.368 . S
C630 C624 1.368 . S
C630 C629 1.523 . S
C631 C615 1.429 . S
C631 C627 1.429 . S
C631 C632 1.523 . S
C632 C616 1.368 . S
C632 C628 1.368 . S
C632 C631 1.523 . S
H633 C608 0.950 . S
H634 C610 0.950 . S
H635 C611 0.949 . S
H636 C613 0.950 . S
H637 C615 0.950 . S
C638 C639 1.349 . S
C638 C640 1.327 . S
C638 H663 0.950 . S
C639 C638 1.349 . S
C639 C655 1.349 . S
C640 C638 1.327 . S
C640 C659 1.429 . S
C640 H664 0.950 . S
C641 C658 1.574 . S
C641 C660 1.368 . S
C641 H665 0.949 . S
H642 C646 0.949 . S
C643 C644 1.349 . S
C643 C645 1.327 . S
C643 H666 0.950 . S
C644 C643 1.349 . S
C644 C656 1.349 . S
C645 C643 1.327 . S
C645 C661 1.429 . S
C645 H667 0.950 . S
C646 H642 0.949 . S
C646 C654 1.574 . S
C646 C662 1.368 . S
H647 C655 0.950 . S
H648 C653 0.950 . S
H649 C654 0.949 . S
H650 C656 0.950 . S
H651 C657 0.950 . S
H652 C658 0.949 . S
C653 H648 0.950 . S
C653 C655 1.327 . S
C653 C659 1.429 . S
C654 C646 1.574 . S
C654 H649 0.949 . S
C654 C660 1.368 . S
C655 C639 1.349 . S
C655 H647 0.950 . S
C655 C653 1.327 . S
C656 C644 1.349 . S
C656 H650 0.950 . S
C656 C657 1.327 . S
C657 H651 0.950 . S
C657 C656 1.327 . S
C657 C661 1.429 . S
C658 C641 1.574 . S
C658 H652 0.949 . S
C658 C662 1.368 . S
C659 C640 1.429 . S
C659 C653 1.429 . S
C659 C660 1.523 . S
C660 C641 1.368 . S
C660 C654 1.368 . S
C660 C659 1.523 . S
C661 C645 1.429 . S
C661 C657 1.429 . S
C661 C662 1.523 . S
C662 C646 1.368 . S
C662 C658 1.368 . S
C662 C661 1.523 . S
H663 C638 0.950 . S
H664 C640 0.950 . S
H665 C641 0.949 . S
H666 C643 0.950 . S
H667 C645 0.950 . S
C668 C669 1.349 . S
C668 C670 1.327 . S
C668 H693 0.950 . S
C669 C668 1.349 . S
C669 C685 1.349 . S
C670 C668 1.327 . S
C670 C689 1.429 . S
C670 H694 0.950 . S
C671 C688 1.574 1_655 S
C671 C690 1.368 . S
C671 H695 0.949 . S
H672 C676 0.949 . S
C673 C674 1.349 . S
C673 C675 1.327 . S
C673 H696 0.950 . S
C674 C673 1.349 . S
C674 C686 1.349 . S
C675 C673 1.327 . S
C675 C691 1.429 . S
C675 H697 0.950 . S
C676 H672 0.949 . S
C676 C684 1.574 1_455 S
C676 C692 1.368 . S
H677 C685 0.950 . S
H678 C683 0.950 . S
H679 C684 0.949 . S
H680 C686 0.950 . S
H681 C687 0.950 . S
H682 C688 0.949 . S
C683 H678 0.950 . S
C683 C685 1.327 . S
C683 C689 1.429 . S
C684 C676 1.574 1_655 S
C684 H679 0.949 . S
C684 C690 1.368 . S
C685 C669 1.349 . S
C685 H677 0.950 . S
C685 C683 1.327 . S
C686 C674 1.349 . S
C686 H680 0.950 . S
C686 C687 1.327 . S
C687 H681 0.950 . S
C687 C686 1.327 . S
C687 C691 1.429 . S
C688 C671 1.574 1_455 S
C688 H682 0.949 . S
C688 C692 1.368 . S
C689 C670 1.429 . S
C689 C683 1.429 . S
C689 C690 1.523 . S
C690 C671 1.368 . S
C690 C684 1.368 . S
C690 C689 1.523 . S
C691 C675 1.429 . S
C691 C687 1.429 . S
C691 C692 1.523 . S
C692 C676 1.368 . S
C692 C688 1.368 . S
C692 C691 1.523 . S
H693 C668 0.950 . S
H694 C670 0.950 . S
H695 C671 0.949 . S
H696 C673 0.950 . S
H697 C675 0.950 . S
C698 C699 1.349 . S
C698 C700 1.327 . S
C698 H723 0.950 . S
C699 C698 1.349 . S
C699 C715 1.349 . S
C700 C698 1.327 . S
C700 C719 1.429 . S
C700 H724 0.950 . S
C701 C718 1.574 1_455 S
C701 C720 1.368 . S
C701 H725 0.949 . S
H702 C706 0.949 . S
C703 C704 1.349 . S
C703 C705 1.327 . S
C703 H726 0.950 . S
C704 C703 1.349 . S
C704 C716 1.349 . S
C705 C703 1.327 . S
C705 C721 1.429 . S
C705 H727 0.950 . S
C706 H702 0.949 . S
C706 C714 1.574 1_655 S
C706 C722 1.368 . S
H707 C715 0.950 . S
H708 C713 0.950 . S
H709 C714 0.949 . S
H710 C716 0.950 . S
H711 C717 0.950 . S
H712 C718 0.949 . S
C713 H708 0.950 . S
C713 C715 1.327 . S
C713 C719 1.429 . S
C714 C706 1.574 1_455 S
C714 H709 0.949 . S
C714 C720 1.368 . S
C715 C699 1.349 . S
C715 H707 0.950 . S
C715 C713 1.327 . S
C716 C704 1.349 . S
C716 H710 0.950 . S
C716 C717 1.327 . S
C717 H711 0.950 . S
C717 C716 1.327 . S
C717 C721 1.429 . S
C718 C701 1.574 1_655 S
C718 H712 0.949 . S
C718 C722 1.368 . S
C719 C700 1.429 . S
C719 C713 1.429 . S
C719 C720 1.523 . S
C720 C701 1.368 . S
C720 C714 1.368 . S
C720 C719 1.523 . S
C721 C705 1.429 . S
C721 C717 1.429 . S
C721 C722 1.523 . S
C722 C706 1.368 . S
C722 C718 1.368 . S
C722 C721 1.523 . S
H723 C698 0.950 . S
H724 C700 0.950 . S
H725 C701 0.949 . S
H726 C703 0.950 . S
H727 C705 0.950 . S
C728 C729 1.349 . S
C728 C730 1.327 . S
C728 H753 0.950 . S
C729 C728 1.349 . S
C729 C745 1.349 . S
C730 C728 1.327 . S
C730 C749 1.429 . S
C730 H754 0.950 . S
C731 C748 1.574 . S
C731 C750 1.368 . S
C731 H755 0.949 . S
H732 C736 0.949 . S
C733 C734 1.349 . S
C733 C735 1.327 . S
C733 H756 0.950 . S
C734 C733 1.349 . S
C734 C746 1.349 . S
C735 C733 1.327 . S
C735 C751 1.429 . S
C735 H757 0.950 . S
C736 H732 0.949 . S
C736 C744 1.574 . S
C736 C752 1.368 . S
H737 C745 0.950 . S
H738 C743 0.950 . S
H739 C744 0.949 . S
H740 C746 0.950 . S
H741 C747 0.950 . S
H742 C748 0.949 . S
C743 H738 0.950 . S
C743 C745 1.327 . S
C743 C749 1.429 . S
C744 C736 1.574 . S
C744 H739 0.949 . S
C744 C750 1.368 . S
C745 C729 1.349 . S
C745 H737 0.950 . S
C745 C743 1.327 . S
C746 C734 1.349 . S
C746 H740 0.950 . S
C746 C747 1.327 . S
C747 H741 0.950 . S
C747 C746 1.327 . S
C747 C751 1.429 . S
C748 C731 1.574 . S
C748 H742 0.949 . S
C748 C752 1.368 . S
C749 C730 1.429 . S
C749 C743 1.429 . S
C749 C750 1.523 . S
C750 C731 1.368 . S
C750 C744 1.368 . S
C750 C749 1.523 . S
C751 C735 1.429 . S
C751 C747 1.429 . S
C751 C752 1.523 . S
C752 C736 1.368 . S
C752 C748 1.368 . S
C752 C751 1.523 . S
H753 C728 0.950 . S
H754 C730 0.950 . S
H755 C731 0.949 . S
H756 C733 0.950 . S
H757 C735 0.950 . S
C758 C759 1.349 . S
C758 C760 1.327 . S
C758 H783 0.950 . S
C759 C758 1.349 . S
C759 C775 1.349 . S
C760 C758 1.327 . S
C760 C779 1.429 . S
C760 H784 0.950 . S
C761 C778 1.574 . S
C761 C780 1.368 . S
C761 H785 0.949 . S
H762 C766 0.949 . S
C763 C764 1.349 . S
C763 C765 1.327 . S
C763 H786 0.950 . S
C764 C763 1.349 . S
C764 C776 1.349 . S
C765 C763 1.327 . S
C765 C781 1.429 . S
C765 H787 0.950 . S
C766 H762 0.949 . S
C766 C774 1.574 . S
C766 C782 1.368 . S
H767 C775 0.950 . S
H768 C773 0.950 . S
H769 C774 0.949 . S
H770 C776 0.950 . S
H771 C777 0.950 . S
H772 C778 0.949 . S
C773 H768 0.950 . S
C773 C775 1.327 . S
C773 C779 1.429 . S
C774 C766 1.574 . S
C774 H769 0.949 . S
C774 C780 1.368 . S
C775 C759 1.349 . S
C775 H767 0.950 . S
C775 C773 1.327 . S
C776 C764 1.349 . S
C776 H770 0.950 . S
C776 C777 1.327 . S
C777 H771 0.950 . S
C777 C776 1.327 . S
C777 C781 1.429 . S
C778 C761 1.574 . S
C778 H772 0.949 . S
C778 C782 1.368 . S
C779 C760 1.429 . S
C779 C773 1.429 . S
C779 C780 1.523 . S
C780 C761 1.368 . S
C780 C774 1.368 . S
C780 C779 1.523 . S
C781 C765 1.429 . S
C781 C777 1.429 . S
C781 C782 1.523 . S
C782 C766 1.368 . S
C782 C778 1.368 . S
C782 C781 1.523 . S
H783 C758 0.950 . S
H784 C760 0.950 . S
H785 C761 0.949 . S
H786 C763 0.950 . S
H787 C765 0.950 . S
C788 C789 1.349 . S
C788 C790 1.327 . S
C788 H813 0.950 . S
C789 C788 1.349 . S
C789 C805 1.349 . S
C790 C788 1.327 . S
C790 C809 1.429 . S
C790 H814 0.950 . S
C791 C808 1.574 1_655 S
C791 C810 1.368 . S
C791 H815 0.949 . S
H792 C796 0.949 . S
C793 C794 1.349 . S
C793 C795 1.327 . S
C793 H816 0.950 . S
C794 C793 1.349 . S
C794 C806 1.349 . S
C795 C793 1.327 . S
C795 C811 1.429 . S
C795 H817 0.950 . S
C796 H792 0.949 . S
C796 C804 1.574 1_455 S
C796 C812 1.368 . S
H797 C805 0.950 . S
H798 C803 0.950 . S
H799 C804 0.949 . S
H800 C806 0.950 . S
H801 C807 0.950 . S
H802 C808 0.949 . S
C803 H798 0.950 . S
C803 C805 1.327 . S
C803 C809 1.429 . S
C804 C796 1.574 1_655 S
C804 H799 0.949 . S
C804 C810 1.368 . S
C805 C789 1.349 . S
C805 H797 0.950 . S
C805 C803 1.327 . S
C806 C794 1.349 . S
C806 H800 0.950 . S
C806 C807 1.327 . S
C807 H801 0.950 . S
C807 C806 1.327 . S
C807 C811 1.429 . S
C808 C791 1.574 1_455 S
C808 H802 0.949 . S
C808 C812 1.368 . S
C809 C790 1.429 . S
C809 C803 1.429 . S
C809 C810 1.523 . S
C810 C791 1.368 . S
C810 C804 1.368 . S
C810 C809 1.523 . S
C811 C795 1.429 . S
C811 C807 1.429 . S
C811 C812 1.523 . S
C812 C796 1.368 . S
C812 C808 1.368 . S
C812 C811 1.523 . S
H813 C788 0.950 . S
H814 C790 0.950 . S
H815 C791 0.949 . S
H816 C793 0.950 . S
H817 C795 0.950 . S
C818 C819 1.349 . S
C818 C820 1.327 . S
C818 H843 0.950 . S
C819 C818 1.349 . S
C819 C835 1.349 . S
C820 C818 1.327 . S
C820 C839 1.429 . S
C820 H844 0.950 . S
C821 C838 1.574 1_455 S
C821 C840 1.368 . S
C821 H845 0.949 . S
H822 C826 0.949 . S
C823 C824 1.349 . S
C823 C825 1.327 . S
C823 H846 0.950 . S
C824 C823 1.349 . S
C824 C836 1.349 . S
C825 C823 1.327 . S
C825 C841 1.429 . S
C825 H847 0.950 . S
C826 H822 0.949 . S
C826 C834 1.574 1_655 S
C826 C842 1.368 . S
H827 C835 0.950 . S
H828 C833 0.950 . S
H829 C834 0.949 . S
H830 C836 0.950 . S
H831 C837 0.950 . S
H832 C838 0.949 . S
C833 H828 0.950 . S
C833 C835 1.327 . S
C833 C839 1.429 . S
C834 C826 1.574 1_455 S
C834 H829 0.949 . S
C834 C840 1.368 . S
C835 C819 1.349 . S
C835 H827 0.950 . S
C835 C833 1.327 . S
C836 C824 1.349 . S
C836 H830 0.950 . S
C836 C837 1.327 . S
C837 H831 0.950 . S
C837 C836 1.327 . S
C837 C841 1.429 . S
C838 C821 1.574 1_655 S
C838 H832 0.949 . S
C838 C842 1.368 . S
C839 C820 1.429 . S
C839 C833 1.429 . S
C839 C840 1.523 . S
C840 C821 1.368 . S
C840 C834 1.368 . S
C840 C839 1.523 . S
C841 C825 1.429 . S
C841 C837 1.429 . S
C841 C842 1.523 . S
C842 C826 1.368 . S
C842 C838 1.368 . S
C842 C841 1.523 . S
H843 C818 0.950 . S
H844 C820 0.950 . S
H845 C821 0.949 . S
H846 C823 0.950 . S
H847 C825 0.950 . S
C848 C849 1.349 . S
C848 C850 1.327 . S
C848 H873 0.950 . S
C849 C848 1.349 . S
C849 C865 1.349 . S
C850 C848 1.327 . S
C850 C869 1.429 . S
C850 H874 0.950 . S
C851 C868 1.574 . S
C851 C870 1.368 1_556 S
C851 H875 0.949 1_556 S
H852 C856 0.949 . S
C853 C854 1.349 . S
C853 C855 1.327 . S
C853 H876 0.950 . S
C854 C853 1.349 . S
C854 C866 1.349 . S
C855 C853 1.327 . S
C855 C871 1.429 . S
C855 H877 0.950 . S
C856 H852 0.949 . S
C856 C864 1.574 . S
C856 C872 1.368 . S
H857 C865 0.950 . S
H858 C863 0.950 . S
H859 C864 0.949 . S
H860 C866 0.950 . S
H861 C867 0.950 . S
H862 C868 0.949 . S
C863 H858 0.950 . S
C863 C865 1.327 . S
C863 C869 1.429 . S
C864 C856 1.574 . S
C864 H859 0.949 . S
C864 C870 1.368 1_556 S
C865 C849 1.349 . S
C865 H857 0.950 . S
C865 C863 1.327 . S
C866 C854 1.349 . S
C866 H860 0.950 . S
C866 C867 1.327 . S
C867 H861 0.950 . S
C867 C866 1.327 . S
C867 C871 1.429 . S
C868 C851 1.574 . S
C868 H862 0.949 . S
C868 C872 1.368 . S
C869 C850 1.429 . S
C869 C863 1.429 . S
C869 C870 1.523 . S
C870 C851 1.368 1_554 S
C870 C864 1.368 1_554 S
C870 C869 1.523 . S
C871 C855 1.429 . S
C871 C867 1.429 . S
C871 C872 1.523 . S
C872 C856 1.368 . S
C872 C868 1.368 . S
C872 C871 1.523 . S
H873 C848 0.950 . S
H874 C850 0.950 . S
H875 C851 0.949 1_554 S
H876 C853 0.950 . S
H877 C855 0.950 . S
C878 C879 1.349 . S
C878 C880 1.327 . S
C878 H903 0.950 . S
C879 C878 1.349 . S
C879 C895 1.349 . S
C880 C878 1.327 . S
C880 C899 1.429 . S
C880 H904 0.950 . S
C881 C898 1.574 . S
C881 C900 1.368 . S
C881 H905 0.949 . S
H882 C886 0.949 . S
C883 C884 1.349 . S
C883 C885 1.327 . S
C883 H906 0.950 . S
C884 C883 1.349 . S
C884 C896 1.349 . S
C885 C883 1.327 . S
C885 C901 1.429 . S
C885 H907 0.950 . S
C886 H882 0.949 . S
C886 C894 1.574 . S
C886 C902 1.368 . S
H887 C895 0.950 . S
H888 C893 0.950 . S
H889 C894 0.949 . S
H890 C896 0.950 . S
H891 C897 0.950 . S
H892 C898 0.949 . S
C893 H888 0.950 . S
C893 C895 1.327 . S
C893 C899 1.429 . S
C894 C886 1.574 . S
C894 H889 0.949 . S
C894 C900 1.368 . S
C895 C879 1.349 . S
C895 H887 0.950 . S
C895 C893 1.327 . S
C896 C884 1.349 . S
C896 H890 0.950 . S
C896 C897 1.327 . S
C897 H891 0.950 . S
C897 C896 1.327 . S
C897 C901 1.429 . S
C898 C881 1.574 . S
C898 H892 0.949 . S
C898 C902 1.368 . S
C899 C880 1.429 . S
C899 C893 1.429 . S
C899 C900 1.523 . S
C900 C881 1.368 . S
C900 C894 1.368 . S
C900 C899 1.523 . S
C901 C885 1.429 . S
C901 C897 1.429 . S
C901 C902 1.523 . S
C902 C886 1.368 . S
C902 C898 1.368 . S
C902 C901 1.523 . S
H903 C878 0.950 . S
H904 C880 0.950 . S
H905 C881 0.949 . S
H906 C883 0.950 . S
H907 C885 0.950 . S
C908 C909 1.349 . S
C908 C910 1.327 . S
C908 H933 0.950 . S
C909 C908 1.349 . S
C909 C925 1.349 . S
C910 C908 1.327 . S
C910 C929 1.429 . S
C910 H934 0.950 . S
C911 C928 1.574 . S
C911 C930 1.368 1_554 S
C911 H935 0.949 . S
H912 C916 0.949 . S
C913 C914 1.349 . S
C913 C915 1.327 . S
C913 H936 0.950 . S
C914 C913 1.349 . S
C914 C926 1.349 . S
C915 C913 1.327 . S
C915 C931 1.429 . S
C915 H937 0.950 . S
C916 H912 0.949 . S
C916 C924 1.574 1_554 S
C916 C932 1.368 . S
H917 C925 0.950 . S
H918 C923 0.950 . S
H919 C924 0.949 . S
H920 C926 0.950 . S
H921 C927 0.950 . S
H922 C928 0.949 . S
C923 H918 0.950 . S
C923 C925 1.327 . S
C923 C929 1.429 . S
C924 C916 1.574 1_556 S
C924 H919 0.949 . S
C924 C930 1.368 . S
C925 C909 1.349 . S
C925 H917 0.950 . S
C925 C923 1.327 . S
C926 C914 1.349 . S
C926 H920 0.950 . S
C926 C927 1.327 . S
C927 H921 0.950 . S
C927 C926 1.327 . S
C927 C931 1.429 . S
C928 C911 1.574 . S
C928 H922 0.949 . S
C928 C932 1.368 . S
C929 C910 1.429 . S
C929 C923 1.429 . S
C929 C930 1.523 . S
C930 C911 1.368 1_556 S
C930 C924 1.368 . S
C930 C929 1.523 . S
C931 C915 1.429 . S
C931 C927 1.429 . S
C931 C932 1.523 . S
C932 C916 1.368 . S
C932 C928 1.368 . S
C932 C931 1.523 . S
H933 C908 0.950 . S
H934 C910 0.950 . S
H935 C911 0.949 . S
H936 C913 0.950 . S
H937 C915 0.950 . S
C938 C939 1.349 . S
C938 C940 1.327 . S
C938 H963 0.950 . S
C939 C938 1.349 . S
C939 C955 1.349 . S
C940 C938 1.327 . S
C940 C959 1.429 . S
C940 H964 0.950 . S
C941 C958 1.574 . S
C941 C960 1.368 . S
C941 H965 0.949 . S
H942 C946 0.949 . S
C943 C944 1.349 . S
C943 C945 1.327 . S
C943 H966 0.950 . S
C944 C943 1.349 . S
C944 C956 1.349 . S
C945 C943 1.327 . S
C945 C961 1.429 . S
C945 H967 0.950 . S
C946 H942 0.949 . S
C946 C954 1.574 . S
C946 C962 1.368 . S
H947 C955 0.950 . S
H948 C953 0.950 . S
H949 C954 0.949 . S
H950 C956 0.950 . S
H951 C957 0.950 . S
H952 C958 0.949 . S
C953 H948 0.950 . S
C953 C955 1.327 . S
C953 C959 1.429 . S
C954 C946 1.574 . S
C954 H949 0.949 . S
C954 C960 1.368 . S
C955 C939 1.349 . S
C955 H947 0.950 . S
C955 C953 1.327 . S
C956 C944 1.349 . S
C956 H950 0.950 . S
C956 C957 1.327 . S
C957 H951 0.950 . S
C957 C956 1.327 . S
C957 C961 1.429 . S
C958 C941 1.574 . S
C958 H952 0.949 . S
C958 C962 1.368 . S
C959 C940 1.429 . S
C959 C953 1.429 . S
C959 C960 1.523 . S
C960 C941 1.368 . S
C960 C954 1.368 . S
C960 C959 1.523 . S
C961 C945 1.429 . S
C961 C957 1.429 . S
C961 C962 1.523 . S
C962 C946 1.368 . S
C962 C958 1.368 . S
C962 C961 1.523 . S
H963 C938 0.950 . S
H964 C940 0.950 . S
H965 C941 0.949 . S
H966 C943 0.950 . S
H967 C945 0.950 . S
C968 C969 1.349 . S
C968 C970 1.327 . S
C968 H993 0.950 . S
C969 C968 1.349 . S
C969 C985 1.349 . S
C970 C968 1.327 . S
C970 C989 1.429 . S
C970 H994 0.950 . S
C971 C988 1.574 1_554 S
C971 C990 1.368 . S
C971 H995 0.949 . S
H972 C976 0.949 . S
C973 C974 1.349 . S
C973 C975 1.327 . S
C973 H996 0.950 . S
C974 C973 1.349 . S
C974 C986 1.349 . S
C975 C973 1.327 . S
C975 C991 1.429 . S
C975 H997 0.950 . S
C976 H972 0.949 . S
C976 C984 1.574 . S
C976 C992 1.368 . S
H977 C985 0.950 . S
H978 C983 0.950 . S
H979 C984 0.949 . S
H980 C986 0.950 . S
H981 C987 0.950 . S
H982 C988 0.949 . S
C983 H978 0.950 . S
C983 C985 1.327 . S
C983 C989 1.429 . S
C984 C976 1.574 . S
C984 H979 0.949 . S
C984 C990 1.368 1_556 S
C985 C969 1.349 . S
C985 H977 0.950 . S
C985 C983 1.327 . S
C986 C974 1.349 . S
C986 H980 0.950 . S
C986 C987 1.327 . S
C987 H981 0.950 . S
C987 C986 1.327 . S
C987 C991 1.429 . S
C988 C971 1.574 1_556 S
C988 H982 0.949 . S
C988 C992 1.368 . S
C989 C970 1.429 . S
C989 C983 1.429 . S
C989 C990 1.523 . S
C990 C971 1.368 . S
C990 C984 1.368 1_554 S
C990 C989 1.523 . S
C991 C975 1.429 . S
C991 C987 1.429 . S
C991 C992 1.523 . S
C992 C976 1.368 . S
C992 C988 1.368 . S
C992 C991 1.523 . S
H993 C968 0.950 . S
H994 C970 0.950 . S
H995 C971 0.949 . S
H996 C973 0.950 . S
H997 C975 0.950 . S
C998 C999 1.349 . S
C998 C1000 1.327 . S
C998 H1023 0.950 . S
C999 C998 1.349 . S
C999 C1015 1.349 . S
C1000 C998 1.327 . S
C1000 C1019 1.429 . S
C1000 H1024 0.950 . S
C1001 C1018 1.574 . S
C1001 C1020 1.368 . S
C1001 H1025 0.949 . S
H1002 C1006 0.949 . S
C1003 C1004 1.349 . S
C1003 C1005 1.327 . S
C1003 H1026 0.950 . S
C1004 C1003 1.349 . S
C1004 C1016 1.349 . S
C1005 C1003 1.327 . S
C1005 C1021 1.429 . S
C1005 H1027 0.950 . S
C1006 H1002 0.949 . S
C1006 C1014 1.574 . S
C1006 C1022 1.368 . S
H1007 C1015 0.950 . S
H1008 C1013 0.950 . S
H1009 C1014 0.949 . S
H1010 C1016 0.950 . S
H1011 C1017 0.950 . S
H1012 C1018 0.949 . S
C1013 H1008 0.950 . S
C1013 C1015 1.327 . S
C1013 C1019 1.429 . S
C1014 C1006 1.574 . S
C1014 H1009 0.949 . S
C1014 C1020 1.368 . S
C1015 C999 1.349 . S
C1015 H1007 0.950 . S
C1015 C1013 1.327 . S
C1016 C1004 1.349 . S
C1016 H1010 0.950 . S
C1016 C1017 1.327 . S
C1017 H1011 0.950 . S
C1017 C1016 1.327 . S
C1017 C1021 1.429 . S
C1018 C1001 1.574 . S
C1018 H1012 0.949 . S
C1018 C1022 1.368 . S
C1019 C1000 1.429 . S
C1019 C1013 1.429 . S
C1019 C1020 1.523 . S
C1020 C1001 1.368 . S
C1020 C1014 1.368 . S
C1020 C1019 1.523 . S
C1021 C1005 1.429 . S
C1021 C1017 1.429 . S
C1021 C1022 1.523 . S
C1022 C1006 1.368 . S
C1022 C1018 1.368 . S
C1022 C1021 1.523 . S
H1023 C998 0.950 . S
H1024 C1000 0.950 . S
H1025 C1001 0.949 . S
H1026 C1003 0.950 . S
H1027 C1005 0.950 . S
C1028 C1029 1.349 . S
C1028 C1030 1.327 . S
C1028 H1053 0.950 . S
C1029 C1028 1.349 . S
C1029 C1045 1.349 . S
C1030 C1028 1.327 . S
C1030 C1049 1.429 . S
C1030 H1054 0.950 . S
C1031 C1048 1.574 . S
C1031 C1050 1.368 1_554 S
C1031 H1055 0.949 . S
H1032 C1036 0.949 . S
C1033 C1034 1.349 . S
C1033 C1035 1.327 . S
C1033 H1056 0.950 . S
C1034 C1033 1.349 . S
C1034 C1046 1.349 . S
C1035 C1033 1.327 . S
C1035 C1051 1.429 . S
C1035 H1057 0.950 . S
C1036 H1032 0.949 . S
C1036 C1044 1.574 1_554 S
C1036 C1052 1.368 . S
H1037 C1045 0.950 . S
H1038 C1043 0.950 . S
H1039 C1044 0.949 . S
H1040 C1046 0.950 . S
H1041 C1047 0.950 . S
H1042 C1048 0.949 . S
C1043 H1038 0.950 . S
C1043 C1045 1.327 . S
C1043 C1049 1.429 . S
C1044 C1036 1.574 1_556 S
C1044 H1039 0.949 . S
C1044 C1050 1.368 . S
C1045 C1029 1.349 . S
C1045 H1037 0.950 . S
C1045 C1043 1.327 . S
C1046 C1034 1.349 . S
C1046 H1040 0.950 . S
C1046 C1047 1.327 . S
C1047 H1041 0.950 . S
C1047 C1046 1.327 . S
C1047 C1051 1.429 . S
C1048 C1031 1.574 . S
C1048 H1042 0.949 . S
C1048 C1052 1.368 . S
C1049 C1030 1.429 . S
C1049 C1043 1.429 . S
C1049 C1050 1.523 . S
C1050 C1031 1.368 1_556 S
C1050 C1044 1.368 . S
C1050 C1049 1.523 . S
C1051 C1035 1.429 . S
C1051 C1047 1.429 . S
C1051 C1052 1.523 . S
C1052 C1036 1.368 . S
C1052 C1048 1.368 . S
C1052 C1051 1.523 . S
H1053 C1028 0.950 . S
H1054 C1030 0.950 . S
H1055 C1031 0.949 . S
H1056 C1033 0.950 . S
H1057 C1035 0.950 . S
C1058 C1059 1.349 . S
C1058 C1060 1.327 . S
C1058 H1083 0.950 . S
C1059 C1058 1.349 . S
C1059 C1075 1.349 . S
C1060 C1058 1.327 . S
C1060 C1079 1.429 . S
C1060 H1084 0.950 . S
C1061 C1078 1.574 . S
C1061 C1080 1.368 . S
C1061 H1085 0.949 . S
H1062 C1066 0.949 . S
C1063 C1064 1.349 . S
C1063 C1065 1.327 . S
C1063 H1086 0.950 . S
C1064 C1063 1.349 . S
C1064 C1076 1.349 . S
C1065 C1063 1.327 . S
C1065 C1081 1.429 . S
C1065 H1087 0.950 . S
C1066 H1062 0.949 . S
C1066 C1074 1.574 . S
C1066 C1082 1.368 . S
H1067 C1075 0.950 . S
H1068 C1073 0.950 . S
H1069 C1074 0.949 . S
H1070 C1076 0.950 . S
H1071 C1077 0.950 . S
H1072 C1078 0.949 . S
C1073 H1068 0.950 . S
C1073 C1075 1.327 . S
C1073 C1079 1.429 . S
C1074 C1066 1.574 . S
C1074 H1069 0.949 . S
C1074 C1080 1.368 . S
C1075 C1059 1.349 . S
C1075 H1067 0.950 . S
C1075 C1073 1.327 . S
C1076 C1064 1.349 . S
C1076 H1070 0.950 . S
C1076 C1077 1.327 . S
C1077 H1071 0.950 . S
C1077 C1076 1.327 . S
C1077 C1081 1.429 . S
C1078 C1061 1.574 . S
C1078 H1072 0.949 . S
C1078 C1082 1.368 . S
C1079 C1060 1.429 . S
C1079 C1073 1.429 . S
C1079 C1080 1.523 . S
C1080 C1061 1.368 . S
C1080 C1074 1.368 . S
C1080 C1079 1.523 . S
C1081 C1065 1.429 . S
C1081 C1077 1.429 . S
C1081 C1082 1.523 . S
C1082 C1066 1.368 . S
C1082 C1078 1.368 . S
C1082 C1081 1.523 . S
H1083 C1058 0.950 . S
H1084 C1060 0.950 . S
H1085 C1061 0.949 . S
H1086 C1063 0.950 . S
H1087 C1065 0.950 . S
C1088 C1089 1.349 . S
C1088 C1090 1.327 . S
C1088 H1113 0.950 . S
C1089 C1088 1.349 . S
C1089 C1105 1.349 . S
C1090 C1088 1.327 . S
C1090 C1109 1.429 . S
C1090 H1114 0.950 . S
C1091 C1108 1.574 . S
C1091 C1110 1.368 . S
C1091 H1115 0.949 . S
H1092 C1096 0.949 . S
C1093 C1094 1.349 . S
C1093 C1095 1.327 . S
C1093 H1116 0.950 . S
C1094 C1093 1.349 . S
C1094 C1106 1.349 . S
C1095 C1093 1.327 . S
C1095 C1111 1.429 . S
C1095 H1117 0.950 . S
C1096 H1092 0.949 . S
C1096 C1104 1.574 . S
C1096 C1112 1.368 . S
H1097 C1105 0.950 . S
H1098 C1103 0.950 . S
H1099 C1104 0.949 . S
H1100 C1106 0.950 . S
H1101 C1107 0.950 . S
H1102 C1108 0.949 . S
C1103 H1098 0.950 . S
C1103 C1105 1.327 . S
C1103 C1109 1.429 . S
C1104 C1096 1.574 . S
C1104 H1099 0.949 . S
C1104 C1110 1.368 . S
C1105 C1089 1.349 . S
C1105 H1097 0.950 . S
C1105 C1103 1.327 . S
C1106 C1094 1.349 . S
C1106 H1100 0.950 . S
C1106 C1107 1.327 . S
C1107 H1101 0.950 . S
C1107 C1106 1.327 . S
C1107 C1111 1.429 . S
C1108 C1091 1.574 . S
C1108 H1102 0.949 . S
C1108 C1112 1.368 . S
C1109 C1090 1.429 . S
C1109 C1103 1.429 . S
C1109 C1110 1.523 . S
C1110 C1091 1.368 . S
C1110 C1104 1.368 . S
C1110 C1109 1.523 . S
C1111 C1095 1.429 . S
C1111 C1107 1.429 . S
C1111 C1112 1.523 . S
C1112 C1096 1.368 . S
C1112 C1108 1.368 . S
C1112 C1111 1.523 . S
H1113 C1088 0.950 . S
H1114 C1090 0.950 . S
H1115 C1091 0.949 . S
H1116 C1093 0.950 . S
H1117 C1095 0.950 . S
C1118 C1119 1.341 1_554 S
C1118 C1120 1.327 . S
C1118 H1143 0.950 . S
C1119 C1118 1.341 1_556 S
C1119 C1135 1.357 . S
C1120 C1118 1.327 . S
C1120 C1139 1.425 1_554 S
C1120 H1144 0.950 . S
C1121 C1138 1.574 . S
C1121 C1140 1.369 . S
C1121 H1145 0.949 . S
H1122 C1126 0.949 . S
C1123 C1124 1.341 1_556 S
C1123 C1125 1.327 . S
C1123 H1146 0.950 . S
C1124 C1123 1.341 1_554 S
C1124 C1136 1.357 . S
C1125 C1123 1.327 . S
C1125 C1141 1.425 1_556 S
C1125 H1147 0.950 . S
C1126 H1122 0.949 . S
C1126 C1134 1.574 . S
C1126 C1142 1.369 . S
H1127 C1135 0.950 . S
H1128 C1133 0.950 . S
H1129 C1134 0.949 . S
H1130 C1136 0.950 . S
H1131 C1137 0.950 . S
H1132 C1138 0.949 . S
C1133 H1128 0.950 . S
C1133 C1135 1.327 . S
C1133 C1139 1.432 . S
C1134 C1126 1.574 . S
C1134 H1129 0.949 . S
C1134 C1140 1.368 1_554 S
C1135 C1119 1.357 . S
C1135 H1127 0.950 . S
C1135 C1133 1.327 . S
C1136 C1124 1.357 . S
C1136 H1130 0.950 . S
C1136 C1137 1.327 . S
C1137 H1131 0.950 . S
C1137 C1136 1.327 . S
C1137 C1141 1.432 . S
C1138 C1121 1.574 . S
C1138 H1132 0.949 . S
C1138 C1142 1.368 1_556 S
C1139 C1120 1.425 1_556 S
C1139 C1133 1.432 . S
C1139 C1140 1.523 . S
C1140 C1121 1.369 . S
C1140 C1134 1.368 1_556 S
C1140 C1139 1.523 . S
C1141 C1125 1.425 1_554 S
C1141 C1137 1.432 . S
C1141 C1142 1.523 . S
C1142 C1126 1.369 . S
C1142 C1138 1.368 1_554 S
C1142 C1141 1.523 . S
H1143 C1118 0.950 . S
H1144 C1120 0.950 . S
H1145 C1121 0.949 . S
H1146 C1123 0.950 . S
H1147 C1125 0.950 . S
C1148 C1149 1.349 . S
C1148 C1150 1.327 . S
C1148 H1173 0.950 . S
C1149 C1148 1.349 . S
C1149 C1165 1.349 . S
C1150 C1148 1.327 . S
C1150 C1169 1.429 . S
C1150 H1174 0.950 . S
C1151 C1168 1.574 . S
C1151 C1170 1.368 . S
C1151 H1175 0.949 . S
H1152 C1156 0.949 . S
C1153 C1154 1.349 . S
C1153 C1155 1.327 . S
C1153 H1176 0.950 . S
C1154 C1153 1.349 . S
C1154 C1166 1.349 . S
C1155 C1153 1.327 . S
C1155 C1171 1.429 . S
C1155 H1177 0.950 . S
C1156 H1152 0.949 . S
C1156 C1164 1.574 . S
C1156 C1172 1.368 . S
H1157 C1165 0.950 . S
H1158 C1163 0.950 . S
H1159 C1164 0.949 . S
H1160 C1166 0.950 . S
H1161 C1167 0.950 . S
H1162 C1168 0.949 . S
C1163 H1158 0.950 . S
C1163 C1165 1.327 . S
C1163 C1169 1.429 . S
C1164 C1156 1.574 . S
C1164 H1159 0.949 . S
C1164 C1170 1.368 . S
C1165 C1149 1.349 . S
C1165 H1157 0.950 . S
C1165 C1163 1.327 . S
C1166 C1154 1.349 . S
C1166 H1160 0.950 . S
C1166 C1167 1.327 . S
C1167 H1161 0.950 . S
C1167 C1166 1.327 . S
C1167 C1171 1.429 . S
C1168 C1151 1.574 . S
C1168 H1162 0.949 . S
C1168 C1172 1.368 . S
C1169 C1150 1.429 . S
C1169 C1163 1.429 . S
C1169 C1170 1.523 . S
C1170 C1151 1.368 . S
C1170 C1164 1.368 . S
C1170 C1169 1.523 . S
C1171 C1155 1.429 . S
C1171 C1167 1.429 . S
C1171 C1172 1.523 . S
C1172 C1156 1.368 . S
C1172 C1168 1.368 . S
C1172 C1171 1.523 . S
H1173 C1148 0.950 . S
H1174 C1150 0.950 . S
H1175 C1151 0.949 . S
H1176 C1153 0.950 . S
H1177 C1155 0.950 . S
C1178 C1179 1.340 1_554 S
C1178 C1180 1.327 . S
C1178 H1203 0.950 . S
C1179 C1178 1.340 1_556 S
C1179 C1195 1.357 . S
C1180 C1178 1.327 . S
C1180 C1199 1.425 1_554 S
C1180 H1204 0.950 . S
C1181 C1198 1.574 . S
C1181 C1200 1.369 . S
C1181 H1205 0.949 . S
H1182 C1186 0.949 . S
C1183 C1184 1.340 1_556 S
C1183 C1185 1.327 . S
C1183 H1206 0.950 . S
C1184 C1183 1.340 1_554 S
C1184 C1196 1.357 . S
C1185 C1183 1.327 . S
C1185 C1201 1.425 1_556 S
C1185 H1207 0.950 . S
C1186 H1182 0.949 . S
C1186 C1194 1.574 . S
C1186 C1202 1.369 . S
H1187 C1195 0.950 . S
H1188 C1193 0.950 . S
H1189 C1194 0.949 . S
H1190 C1196 0.950 . S
H1191 C1197 0.950 . S
H1192 C1198 0.949 . S
C1193 H1188 0.950 . S
C1193 C1195 1.327 . S
C1193 C1199 1.432 . S
C1194 C1186 1.574 . S
C1194 H1189 0.949 . S
C1194 C1200 1.368 1_554 S
C1195 C1179 1.357 . S
C1195 H1187 0.950 . S
C1195 C1193 1.327 . S
C1196 C1184 1.357 . S
C1196 H1190 0.950 . S
C1196 C1197 1.327 . S
C1197 H1191 0.950 . S
C1197 C1196 1.327 . S
C1197 C1201 1.432 . S
C1198 C1181 1.574 . S
C1198 H1192 0.949 . S
C1198 C1202 1.368 1_556 S
C1199 C1180 1.425 1_556 S
C1199 C1193 1.432 . S
C1199 C1200 1.523 . S
C1200 C1181 1.369 . S
C1200 C1194 1.368 1_556 S
C1200 C1199 1.523 . S
C1201 C1185 1.425 1_554 S
C1201 C1197 1.432 . S
C1201 C1202 1.523 . S
C1202 C1186 1.369 . S
C1202 C1198 1.368 1_554 S
C1202 C1201 1.523 . S
H1203 C1178 0.950 . S
H1204 C1180 0.950 . S
H1205 C1181 0.949 . S
H1206 C1183 0.950 . S
H1207 C1185 0.950 . S
C249 C113 1.646 . S
C254 C19 1.827 . S
C279 C82 1.646 . S
C284 C50 1.828 . S
C309 C51 1.646 . S
C314 C81 1.828 . S
C339 C112 1.827 . S
C344 C20 1.646 . S
C369 C237 1.646 . S
C374 C143 1.827 . S
C399 C187 1.646 . S
C404 C174 1.827 . S
C429 C175 1.646 . S
C434 C186 1.827 . S
C459 C144 1.646 . S
C464 C236 1.827 . S
C489 C41 0.741 . S
C494 C10 0.741 . S
C519 C103 0.741 . S
C524 C72 0.741 . S
C549 C134 0.741 . S
C554 C165 0.741 . S
C579 C227 0.741 . S
C584 C216 0.741 . S
C609 C32 1.963 . S
C614 C1 1.963 . S
C639 C63 1.963 . S
C644 C94 1.963 . S
C669 C125 1.963 . S
C674 C156 1.963 . S
C699 C206 1.963 . S
C704 C218 1.963 . S
C729 C0 1.530 . S
C734 C31 1.530 . S
C759 C62 1.530 . S
C764 C93 1.530 . S
C789 C124 1.530 . S
C794 C155 1.530 . S
C819 C205 1.530 . S
C824 C217 1.530 . S
C849 C2 1.167 . S
C854 C29 1.168 . S
C879 C33 1.167 . S
C884 C60 1.168 . S
C909 C64 1.167 . S
C914 C91 1.168 . S
C939 C122 1.168 . S
C944 C95 1.167 . S
C969 C126 1.167 . S
C974 C153 1.168 . S
C999 C184 1.168 . S
C1004 C157 1.167 . S
C1029 C215 1.167 . S
C1034 C188 1.168 . S
C1059 C246 1.168 . S
C1064 C219 1.167 . S
C1089 C196 1.115 . S
C1094 C30 1.115 . S
C1119 C61 1.110 1_556 S
C1124 C247 1.110 1_554 S
C1149 C92 1.115 . S
C1154 C154 1.115 . S
C1179 C185 1.111 1_556 S
C1184 C123 1.111 1_554 S
