# Generated by pormake.
# Topology fnu, (5)-cn, num edge types: 1
# Building blocks:
#     Node 0, Type 0, BuildingBlock: XOMCOT_clean_sbu_0, # of connection points: 5
#     Node 1, Type 0, BuildingBlock: XOMCOT_clean_sbu_0, # of connection points: 5
#     Node 2, Type 0, BuildingBlock: XOMCOT_clean_sbu_0, # of connection points: 5
#     Node 3, Type 0, BuildingBlock: XOMCOT_clean_sbu_0, # of connection points: 5
#     Node 4, Type 0, BuildingBlock: XOMCOT_clean_sbu_0, # of connection points: 5
#     Node 5, Type 0, BuildingBlock: XOMCOT_clean_sbu_0, # of connection points: 5
#     Edge 6, Type (0, 0), BuildingBlock: TEMPAE_clean_linker_10, # of connection points: 2
#     Edge 7, Type (0, 0), BuildingBlock: TEMPAE_clean_linker_10, # of connection points: 2
#     Edge 8, Type (0, 0), BuildingBlock: TEMPAE_clean_linker_10, # of connection points: 2
#     Edge 9, Type (0, 0), BuildingBlock: TEMPAE_clean_linker_10, # of connection points: 2
#     Edge 10, Type (0, 0), BuildingBlock: TEMPAE_clean_linker_10, # of connection points: 2
#     Edge 11, Type (0, 0), BuildingBlock: TEMPAE_clean_linker_10, # of connection points: 2
#     Edge 12, Type (0, 0), BuildingBlock: TEMPAE_clean_linker_10, # of connection points: 2
#     Edge 13, Type (0, 0), BuildingBlock: TEMPAE_clean_linker_10, # of connection points: 2
#     Edge 14, Type (0, 0), BuildingBlock: TEMPAE_clean_linker_10, # of connection points: 2
#     Edge 15, Type (0, 0), BuildingBlock: TEMPAE_clean_linker_10, # of connection points: 2
#     Edge 16, Type (0, 0), BuildingBlock: TEMPAE_clean_linker_10, # of connection points: 2
#     Edge 17, Type (0, 0), BuildingBlock: TEMPAE_clean_linker_10, # of connection points: 2
#     Edge 18, Type (0, 0), BuildingBlock: TEMPAE_clean_linker_10, # of connection points: 2
#     Edge 19, Type (0, 0), BuildingBlock: TEMPAE_clean_linker_10, # of connection points: 2
#     Edge 20, Type (0, 0), BuildingBlock: TEMPAE_clean_linker_10, # of connection points: 2
# Relax obj value: 0.174
# Max RMSD: 0.131
# Mean RMSD: 0.131
data_MOF--net-fnu--node1-XOMCOT_clean_sbu_0--edge1-TEMPAE_clean_linker_10
_symmetry_space_group_name_H-M    P1
_symmetry_Int_Tables_number       1
_symmetry_cell_setting            triclinic
loop_
_symmetry_equiv_pos_as_xyz
'x, y, z'
_cell_length_a     26.571422
_cell_length_b     28.871503
_cell_length_c     33.69399
_cell_angle_alpha  89.910658
_cell_angle_beta   98.462863
_cell_angle_gamma 123.13656
loop_
_atom_site_label
_atom_site_type_symbol
_atom_site_fract_x
_atom_site_fract_y
_atom_site_fract_z
_atom_type_partial_charge
Co0 Co 0.07578 0.05616 0.2458 0.0
C1 C 0.07845 0.04151 0.33394 0.0
C2 C 0.16517 0.10656 0.32106 0.0
C3 C 0.16871 0.10691 0.36222 0.0
N4 N 0.10892 0.06489 0.30302 0.0
N5 N 0.11412 0.06617 0.37043 0.0
H6 H 1.03005 1.01041 0.3301 0.0
H7 H 0.2003 0.13728 0.30558 0.0
C8 C 0.20219 0.08182 0.24063 0.0
O9 O 0.19297 0.04294 0.2646 0.0
N10 N 1.04151 0.0484 0.19004 0.0
C11 C 0.98623 1.00568 0.1716 0.0
C12 C 0.97357 1.01879 0.1339 0.0
C13 C 0.06125 0.08746 0.16395 0.0
N14 N 1.02053 0.07025 0.12941 0.0
C15 C 1.01134 0.93818 0.25526 0.0
C16 C 1.05085 0.91225 0.19256 0.0
C17 C 1.0027 0.86855 0.20877 0.0
C18 C 0.98431 0.88219 0.24146 0.0
C19 C 0.07626 0.96736 0.20699 0.0
N20 N 0.05642 0.98028 0.23785 0.0
H21 H 0.99217 0.94742 0.2776 0.0
H22 H 0.10822 0.99956 0.19062 0.0
H23 H 0.9565 0.96823 0.18507 0.0
H24 H 0.10426 0.1275 0.17013 0.0
O25 O 0.99883 0.04035 0.25816 0.0
O26 O 0.07889 0.12413 0.25292 0.0
O27 O 0.16045 0.09139 0.23065 0.0
C28 C 1.02182 0.09336 0.25675 0.0
H29 H 0.20792 0.13643 0.38439 0.0
H30 H 0.93287 0.99285 0.1116 0.0
H31 H 0.06709 0.90421 0.16746 0.0
H32 H 0.94652 0.85017 0.25457 0.0
Co33 Co 1.04591 0.04635 0.7709 0.0
C34 C 1.03937 1.02578 0.68346 0.0
C35 C 0.95074 0.99368 0.69817 0.0
C36 C 0.94507 0.98715 0.65688 0.0
N37 N 1.00986 1.01791 0.71487 0.0
N38 N 1.00082 1.00757 0.64755 0.0
H39 H 0.08841 0.0471 0.68665 0.0
H40 H 0.91442 0.98355 0.71453 0.0
C41 C 0.94939 0.97958 0.82324 0.0
O42 O 0.9932 0.99324 0.85389 0.0
N43 N 0.08491 0.07781 0.8259 0.0
C44 C 0.1391 0.08826 0.84441 0.0
C45 C 0.15919 0.12416 0.87821 0.0
C46 C 0.07375 0.1088 0.84838 0.0
N47 N 0.11823 0.13747 0.8808 0.0
C48 C 0.1263 1.00874 0.76814 0.0
C49 C 0.06232 0.91389 0.8067 0.0
C50 C 0.12237 0.93316 0.8028 0.0
C51 C 0.15329 0.97972 0.78131 0.0
C52 C 1.03684 0.94367 0.79265 0.0
N53 N 0.0705 0.99306 0.77657 0.0
H54 H 0.15261 0.04644 0.75401 0.0
H55 H 0.99052 0.92685 0.79591 0.0
H56 H 0.16439 0.07337 0.83356 0.0
H57 H 1.0338 0.11036 0.84056 0.0
O58 O 0.11865 0.11034 0.75537 0.0
O59 O 1.0361 0.10758 0.76309 0.0
O60 O 0.96239 0.99283 0.78789 0.0
C61 C 0.0923 0.13715 0.75732 0.0
H62 H 0.90315 0.96979 0.63534 0.0
H63 H 0.20106 0.13888 0.8991 0.0
H64 H 1.0355 0.87655 0.8213 0.0
H65 H 0.19939 0.99568 0.77684 0.0
Co66 Co 0.75478 0.37075 0.58221 0.0
C67 C 0.75527 0.36286 0.67026 0.0
C68 C 0.84303 0.42624 0.65727 0.0
C69 C 0.84581 0.42816 0.69844 0.0
N70 N 0.78635 0.3853 0.63958 0.0
N71 N 0.79061 0.38848 0.70666 0.0
H72 H 0.70712 0.33043 0.66598 0.0
H73 H 0.87932 0.45429 0.64139 0.0
C74 C 0.85793 0.39551 0.5378 0.0
O75 O 0.81718 0.35843 0.50832 0.0
N76 N 0.72132 0.35668 0.52534 0.0
C77 C 0.67269 0.3091 0.50511 0.0
C78 C 0.65758 0.31998 0.46712 0.0
C79 C 0.73407 0.39597 0.49962 0.0
N80 N 0.69593 0.37461 0.464 0.0
C81 C 0.6754 0.25383 0.59019 0.0
C82 C 0.74407 0.22124 0.56066 0.0
C83 C 0.68259 0.18085 0.5618 0.0
C84 C 0.6493 0.19731 0.57922 0.0
C85 C 0.76873 0.27711 0.57281 0.0
N86 N 0.73272 0.29356 0.58355 0.0
H87 H 0.64709 0.2657 0.6005 0.0
H88 H 0.81619 0.30658 0.57211 0.0
H89 H 0.64809 0.26937 0.51694 0.0
H90 H 0.7707 0.43932 0.50682 0.0
O91 O 0.6787 0.36058 0.59131 0.0
O92 O 0.7606 0.4408 0.58253 0.0
O93 O 0.84107 0.40175 0.57022 0.0
C94 C 0.70349 0.41302 0.58631 0.0
H95 H 0.88527 0.45729 0.7206 0.0
H96 H 0.62068 0.29024 0.44377 0.0
H97 H 0.77245 0.20996 0.54936 0.0
H98 H 0.60202 0.1674 0.58156 0.0
Co99 Co 0.71648 0.37604 0.10545 0.0
C100 C 0.71159 0.35398 0.0186 0.0
C101 C 0.62253 0.32237 0.03236 0.0
C102 C 0.61757 0.31521 0.9912 0.0
N103 N 0.68146 0.3467 0.04955 0.0
N104 N 0.6736 0.33533 0.98248 0.0
H105 H 0.76068 0.37523 0.02224 0.0
H106 H 0.5859 0.31264 0.04829 0.0
C107 C 0.62091 0.30736 0.15762 0.0
O108 O 0.66529 0.31925 0.18737 0.0
N109 N 0.75371 0.40829 0.1604 0.0
C110 C 0.80769 0.42008 0.18051 0.0
C111 C 0.82373 0.45412 0.21475 0.0
C112 C 0.73876 0.43678 0.18218 0.0
N113 N 0.78048 0.465 0.21581 0.0
C114 C 0.79966 0.34102 0.10639 0.0
C115 C 0.73104 0.24138 0.13866 0.0
C116 C 0.79222 0.26185 0.13726 0.0
C117 C 0.82571 0.31114 0.11904 0.0
C118 C 0.7065 0.27213 0.12507 0.0
N119 N 0.74217 0.3236 0.11221 0.0
H120 H 0.82766 0.38031 0.09452 0.0
H121 H 0.65907 0.2542 0.12577 0.0
H122 H 0.83505 0.40673 0.17085 0.0
H123 H 0.69809 0.43687 0.17304 0.0
O124 O 0.78918 0.43989 0.09001 0.0
O125 O 0.70612 0.43691 0.09649 0.0
O126 O 0.633 0.32225 0.12235 0.0
C127 C 0.76262 0.46659 0.09127 0.0
H128 H 0.57598 0.29768 0.9693 0.0
H129 H 0.86376 0.46846 0.23746 0.0
H130 H 0.70247 0.20213 0.15069 0.0
H131 H 0.87282 0.32818 0.11656 0.0
Co132 Co 0.40478 0.72897 0.91111 0.0
C133 C 0.41005 0.71085 0.99887 0.0
C134 C 0.49683 0.77448 0.98517 0.0
C135 C 0.50217 0.77324 0.0263 0.0
N136 N 0.4394 0.73464 0.96758 0.0
N137 N 0.44756 0.73342 0.03506 0.0
H138 H 0.36141 0.68104 0.9957 0.0
H139 H 0.53179 0.80515 0.96955 0.0
C140 C 0.52844 0.75092 0.90222 0.0
O141 O 0.51813 0.71031 0.92464 0.0
N142 N 0.36959 0.72474 0.85617 0.0
C143 C 0.31116 0.68772 0.8389 0.0
C144 C 0.30062 0.70381 0.80193 0.0
C145 C 0.39372 0.7631 0.83 0.0
N146 N 0.35257 0.75123 0.79642 0.0
C147 C 0.33874 0.61023 0.91841 0.0
C148 C 0.37435 0.58497 0.85308 0.0
C149 C 0.32833 0.54091 0.87054 0.0
C150 C 0.31161 0.55432 0.90431 0.0
C151 C 0.39979 0.63998 0.86782 0.0
N152 N 0.38241 0.65253 0.90029 0.0
H153 H 0.32124 0.61923 0.94203 0.0
H154 H 0.43059 0.67248 0.85106 0.0
H155 H 0.27816 0.65233 0.85275 0.0
H156 H 0.44053 0.79861 0.83536 0.0
O157 O 0.3296 0.71446 0.92578 0.0
O158 O 0.41068 0.79782 0.92113 0.0
O159 O 0.48828 0.76281 0.89442 0.0
C160 C 0.35375 0.76778 0.92545 0.0
H161 H 0.54274 0.80109 0.04816 0.0
H162 H 0.258 0.6822 0.78078 0.0
H163 H 0.38932 0.57727 0.82712 0.0
H164 H 0.27531 0.5221 0.91837 0.0
Co165 Co 0.39694 0.69248 0.43983 0.0
C166 C 0.38789 0.68047 0.35095 0.0
C167 C 0.30115 0.65138 0.3678 0.0
C168 C 0.29422 0.64842 0.32638 0.0
N169 N 0.35983 0.67139 0.38328 0.0
N170 N 0.34877 0.66695 0.31568 0.0
H171 H 0.43642 0.69912 0.35322 0.0
H172 H 0.26606 0.64153 0.38527 0.0
C173 C 0.29853 0.61975 0.48982 0.0
O174 O 0.34116 0.62693 0.51928 0.0
N175 N 0.43655 0.71615 0.49557 0.0
C176 C 0.48972 0.72268 0.51233 0.0
C177 C 0.51179 0.75519 0.54826 0.0
C178 C 0.42785 0.74578 0.52131 0.0
N179 N 0.47309 0.77006 0.55359 0.0
C180 C 0.47239 0.65187 0.42908 0.0
C181 C 0.40842 0.55516 0.46567 0.0
C182 C 0.4682 0.57459 0.46094 0.0
C183 C 0.49885 0.62182 0.44009 0.0
C184 C 0.38332 0.58585 0.45352 0.0
N185 N 0.41743 0.63639 0.43902 0.0
H186 H 0.49894 0.69043 0.41596 0.0
H187 H 0.33722 0.5691 0.45728 0.0
H188 H 0.51341 0.70808 0.49876 0.0
H189 H 0.38951 0.75013 0.51607 0.0
O190 O 0.47142 0.75702 0.42682 0.0
O191 O 0.3918 0.75695 0.43843 0.0
O192 O 0.31286 0.63907 0.45587 0.0
C193 C 0.4479 0.78548 0.43243 0.0
H194 H 0.25227 0.63455 0.30573 0.0
H195 H 0.55396 0.76817 0.56832 0.0
H196 H 0.38184 0.51728 0.47978 0.0
H197 H 0.54467 0.63778 0.43496 0.0
C198 C 0.30081 0.09613 0.22783 0.0
C199 C 0.2611 0.11435 0.22487 0.0
C200 C 0.35702 0.12669 0.21394 0.0
C201 C 0.37511 0.17756 0.19717 0.0
C202 C 0.33496 0.19593 0.19372 0.0
C203 C 0.27844 0.164 0.20721 0.0
C204 C 0.39753 0.10478 0.21775 0.0
C205 C 0.35245 0.25022 0.17678 0.0
C206 C 0.54733 0.28106 0.20519 0.0
C207 C 0.5571 0.27585 0.16603 0.0
C208 C 0.48851 0.25079 0.21522 0.0
C209 C 0.43749 0.21291 0.18569 0.0
C210 C 0.44687 0.2078 0.14587 0.0
C211 C 0.50637 0.23982 0.13639 0.0
C212 C 0.4812 0.25904 0.25775 0.0
C213 C 0.39424 0.16737 0.11356 0.0
H214 H 0.28794 0.0577 0.24103 0.0
H215 H 0.24837 0.17867 0.20474 0.0
H216 H 0.4103 0.10283 0.18818 0.0
H217 H 0.44039 0.13344 0.23912 0.0
H218 H 0.37519 0.06277 0.22865 0.0
H219 H 0.31542 0.25777 0.17458 0.0
H220 H 0.39381 0.28503 0.19628 0.0
H221 H 0.36395 0.25076 0.14637 0.0
H222 H 0.58603 0.30932 0.22824 0.0
H223 H 0.51342 0.23536 0.10612 0.0
H224 H 0.46459 0.21995 0.2724 0.0
H225 H 0.4466 0.26938 0.25735 0.0
H226 H 0.52469 0.29266 0.27643 0.0
H227 H 0.3737 0.12446 0.1225 0.0
H228 H 0.40852 0.16917 0.08392 0.0
H229 H 0.3581 0.17608 0.11013 0.0
C230 C 0.92143 0.08036 0.22966 0.0
C231 C 0.98258 0.11548 0.24859 0.0
C232 C 0.88758 0.1021 0.21294 0.0
C233 C 0.91505 0.1604 0.21583 0.0
C234 C 0.97562 0.19578 0.23703 0.0
C235 C 1.00879 0.17299 0.2527 0.0
C236 C 0.82358 0.0628 0.19015 0.0
C237 C 1.00642 0.25801 0.24169 0.0
C238 C 0.85935 0.22511 0.13669 0.0
C239 C 0.82162 0.23356 0.15642 0.0
C240 C 0.88892 0.20036 0.15531 0.0
C241 C 0.88172 0.1846 0.19505 0.0
C242 C 0.84365 0.19303 0.21508 0.0
C243 C 0.81376 0.21689 0.19545 0.0
C244 C 0.92819 0.19133 0.1325 0.0
C245 C 0.83555 0.17797 0.25765 0.0
H246 H 0.90112 0.03597 0.22559 0.0
H247 H 0.05612 0.20045 0.26701 0.0
H248 H 0.79146 0.07075 0.20125 0.0
H249 H 0.82228 0.06998 0.15775 0.0
H250 H 0.80727 1.01856 0.19288 0.0
H251 H 1.05122 0.27928 0.26226 0.0
H252 H 1.01384 0.27441 0.21182 0.0
H253 H 0.97684 0.26875 0.25351 0.0
H254 H 0.86541 0.23754 0.10647 0.0
H255 H 0.78544 0.22399 0.21118 0.0
H256 H 0.9128 0.14697 0.13122 0.0
H257 H 0.97622 0.21598 0.14844 0.0
H258 H 0.92691 0.20342 0.10123 0.0
H259 H 0.81768 0.13329 0.25927 0.0
H260 H 0.80388 0.1865 0.26891 0.0
H261 H 0.88041 0.20195 0.27807 0.0
C262 C 0.86274 0.5592 0.10689 0.0
C263 C 0.79866 0.52834 0.09892 0.0
C264 C 0.89729 0.61523 0.12306 0.0
C265 C 0.86724 0.64135 0.13142 0.0
C266 C 0.80272 0.61119 0.12157 0.0
C267 C 0.76934 0.55524 0.10553 0.0
C268 C 0.96592 0.64571 0.1329 0.0
C269 C 0.76865 0.63728 0.12963 0.0
C270 C 0.94744 0.76444 0.21248 0.0
C271 C 0.96892 0.81008 0.18935 0.0
C272 C 0.91482 0.7095 0.1941 0.0
C273 C 0.903 0.69961 0.15146 0.0
C274 C 0.9245 0.74542 0.12799 0.0
C275 C 0.95691 0.79977 0.1471 0.0
C276 C 0.89281 0.66192 0.22035 0.0
C277 C 0.91265 0.73699 0.08252 0.0
H278 H 0.88597 0.53882 0.1024 0.0
H279 H 0.7199 0.53182 0.09983 0.0
H280 H 0.98757 0.68562 0.119 0.0
H281 H 0.98112 0.65576 0.166 0.0
H282 H 0.98265 0.62091 0.12228 0.0
H283 H 0.71894 0.60968 0.11778 0.0
H284 H 0.77512 0.64683 0.16258 0.0
H285 H 0.78707 0.67709 0.11574 0.0
H286 H 0.95662 0.77169 0.24506 0.0
H287 H 0.97185 0.83433 0.12872 0.0
H288 H 0.91163 0.63706 0.21419 0.0
H289 H 0.84234 0.63377 0.21313 0.0
H290 H 0.90626 0.67638 0.25299 0.0
H291 H 0.93114 0.71347 0.07249 0.0
H292 H 0.93351 0.77692 0.06856 0.0
H293 H 0.86277 0.71194 0.07108 0.0
C294 C 0.19215 0.23031 0.77202 0.0
C295 C 0.12806 0.19894 0.76457 0.0
C296 C 0.22638 0.28663 0.78754 0.0
C297 C 0.19595 0.31242 0.79589 0.0
C298 C 0.13137 0.28161 0.78669 0.0
C299 C 0.09836 0.22549 0.77118 0.0
C300 C 0.29509 0.31786 0.79664 0.0
C301 C 0.09684 0.3072 0.79488 0.0
C302 C 0.27591 0.43719 0.87549 0.0
C303 C 0.29537 0.48214 0.85174 0.0
C304 C 0.24412 0.38197 0.85779 0.0
C305 C 0.23133 0.37105 0.8152 0.0
C306 C 0.25097 0.41613 0.7911 0.0
C307 C 0.28234 0.47077 0.80954 0.0
C308 C 0.22387 0.33518 0.8847 0.0
C309 C 0.23813 0.40659 0.74567 0.0
H310 H 0.21566 0.21019 0.76756 0.0
H311 H 1.0489 0.20168 0.76586 0.0
H312 H 0.31578 0.35741 0.78227 0.0
H313 H 0.31109 0.32865 0.82964 0.0
H314 H 0.31206 0.29327 0.786 0.0
H315 H 1.047 0.27893 0.78374 0.0
H316 H 0.10425 0.31761 0.82779 0.0
H317 H 0.11413 0.34649 0.7804 0.0
H318 H 0.28595 0.44516 0.90803 0.0
H319 H 0.29563 0.50465 0.79064 0.0
H320 H 0.24329 0.31083 0.87857 0.0
H321 H 0.17344 0.30633 0.87812 0.0
H322 H 0.23802 0.35042 0.9172 0.0
H323 H 0.2568 0.38319 0.73573 0.0
H324 H 0.25816 0.4461 0.73116 0.0
H325 H 0.18812 0.381 0.73472 0.0
C326 C 0.6269 0.76513 0.88917 0.0
C327 C 0.58715 0.78331 0.88623 0.0
C328 C 0.68326 0.79591 0.87551 0.0
C329 C 0.70137 0.84686 0.85887 0.0
C330 C 0.66095 0.86496 0.85511 0.0
C331 C 0.6044 0.83292 0.86853 0.0
C332 C 0.72407 0.77431 0.87964 0.0
C333 C 0.67828 0.91916 0.83809 0.0
C334 C 0.87363 0.9516 0.86943 0.0
C335 C 0.88501 0.94716 0.83064 0.0
C336 C 0.81426 0.9206 0.8785 0.0
C337 C 0.76427 0.88287 0.84833 0.0
C338 C 0.77521 0.87853 0.80887 0.0
C339 C 0.83528 0.91116 0.80037 0.0
C340 C 0.80524 0.92792 0.92071 0.0
C341 C 0.72366 0.83833 0.7759 0.0
H342 H 0.61412 0.72672 0.90238 0.0
H343 H 0.57425 0.8475 0.86597 0.0
H344 H 0.73785 0.77312 0.85032 0.0
H345 H 0.76637 0.80275 0.90154 0.0
H346 H 0.70154 0.73203 0.89008 0.0
H347 H 0.64052 0.92583 0.83478 0.0
H348 H 0.71849 0.95414 0.85824 0.0
H349 H 0.69153 0.92039 0.8082 0.0
H350 H 0.9115 0.97979 0.89298 0.0
H351 H 0.8435 0.90728 0.77036 0.0
H352 H 0.78798 0.88847 0.93498 0.0
H353 H 0.77049 0.93817 0.91974 0.0
H354 H 0.84815 0.96124 0.94007 0.0
H355 H 0.70335 0.79525 0.78442 0.0
H356 H 0.73905 0.84105 0.74656 0.0
H357 H 0.68702 0.84641 0.77205 0.0
C358 C 0.18873 0.8954 0.80296 0.0
C359 C 0.1533 0.90669 0.82298 0.0
C360 C 0.2189 0.87156 0.82234 0.0
C361 C 0.21466 0.85962 0.86306 0.0
C362 C 0.17915 0.87114 0.88343 0.0
C363 C 0.14866 0.89407 0.86313 0.0
C364 C 0.25542 0.85918 0.7992 0.0
C365 C 0.17414 0.86008 0.92694 0.0
C366 C 0.25319 0.7557 0.90074 0.0
C367 C 0.31527 0.79078 0.91774 0.0
C368 C 0.21947 0.77745 0.88378 0.0
C369 C 0.24808 0.83579 0.88436 0.0
C370 C 0.30969 0.87135 0.90376 0.0
C371 C 0.34261 0.84848 0.91982 0.0
C372 C 0.15422 0.73788 0.8631 0.0
C373 C 0.34179 0.93372 0.90592 0.0
H374 H 0.19232 0.90469 0.77193 0.0
H375 H 0.1222 0.90341 0.87908 0.0
H376 H 0.30409 0.88368 0.8139 0.0
H377 H 0.2389 0.81461 0.79949 0.0
H378 H 0.25249 0.86901 0.76739 0.0
H379 H 0.14452 0.87106 0.93848 0.0
H380 H 0.15533 0.81556 0.93041 0.0
H381 H 0.22016 0.88445 0.94597 0.0
H382 H 0.23182 0.71109 0.8983 0.0
H383 H 0.39062 0.87593 0.93263 0.0
H384 H 0.15077 0.74227 0.83025 0.0
H385 H 0.12392 0.7481 0.87439 0.0
H386 H 0.13722 0.69388 0.86769 0.0
H387 H 0.34739 0.9475 0.8752 0.0
H388 H 0.38759 0.95549 0.92532 0.0
H389 H 0.31403 0.94662 0.91781 0.0
C390 C 0.94319 0.40819 0.50499 0.0
C391 C 0.92367 0.42816 0.53318 0.0
C392 C 1.00378 0.43919 0.49794 0.0
C393 C 1.04638 0.49244 0.51889 0.0
C394 C 1.02707 0.51293 0.54747 0.0
C395 C 0.96628 0.48038 0.55458 0.0
C396 C 1.0222 0.41476 0.468 0.0
C397 C 0.07042 0.56972 0.57008 0.0
C398 C 0.2168 0.55156 0.52749 0.0
C399 C 0.23344 0.58629 0.49598 0.0
C400 C 0.15652 0.52103 0.53517 0.0
C401 C 0.11124 0.52583 0.51136 0.0
C402 C 0.12773 0.56111 0.47963 0.0
C403 C 0.1883 0.59039 0.47207 0.0
C404 C 0.14121 0.48313 0.56865 0.0
C405 C 0.08144 0.56833 0.45384 0.0
H406 H 0.91092 0.36786 0.48833 0.0
H407 H 0.95166 0.49653 0.57609 0.0
H408 H 1.03776 0.44175 0.4431 0.0
H409 H 0.06109 0.41284 0.48283 0.0
H410 H 0.9842 0.3723 0.4549 0.0
H411 H 1.04836 0.58021 0.59073 0.0
H412 H 0.11028 0.57185 0.58798 0.0
H413 H 0.08808 0.6017 0.5484 0.0
H414 H 0.25101 0.54776 0.54617 0.0
H415 H 0.20059 0.61744 0.44794 0.0
H416 H 0.10469 0.43989 0.55633 0.0
H417 H 0.12349 0.4958 0.59125 0.0
H418 H 0.18134 0.48352 0.5842 0.0
H419 H 1.04363 0.52786 0.43761 0.0
H420 H 0.10172 0.59868 0.43135 0.0
H421 H 0.06123 0.58267 0.47319 0.0
C422 C 0.60329 0.4012 0.56042 0.0
C423 C 0.66604 0.43656 0.57548 0.0
C424 C 0.56927 0.42227 0.54266 0.0
C425 C 0.59827 0.4803 0.54053 0.0
C426 C 0.66101 0.51637 0.55739 0.0
C427 C 0.6942 0.49407 0.57421 0.0
C428 C 0.50286 0.38216 0.52454 0.0
C429 C 0.69365 0.5785 0.55647 0.0
C430 C 0.53244 0.535 0.45921 0.0
C431 C 0.49975 0.54842 0.48045 0.0
C432 C 0.56372 0.51192 0.47817 0.0
C433 C 0.56358 0.50318 0.51964 0.0
C434 C 0.53088 0.517 0.54121 0.0
C435 C 0.49899 0.53886 0.52131 0.0
C436 C 0.59665 0.49652 0.45375 0.0
C437 C 0.53052 0.50966 0.58556 0.0
H438 H 0.58129 0.35665 0.56056 0.0
H439 H 0.74272 0.52168 0.58547 0.0
H440 H 0.4742 0.3934 0.53709 0.0
H441 H 0.49625 0.38474 0.49151 0.0
H442 H 0.48634 0.33851 0.53009 0.0
H443 H 0.741 0.60112 0.5737 0.0
H444 H 0.69558 0.58907 0.52482 0.0
H445 H 0.66825 0.59352 0.56915 0.0
H446 H 0.53301 0.54205 0.42763 0.0
H447 H 0.47462 0.54993 0.53808 0.0
H448 H 0.5756 0.451 0.45249 0.0
H449 H 0.645 0.51689 0.46844 0.0
H450 H 0.5952 0.50846 0.42245 0.0
H451 H 0.51186 0.46558 0.59069 0.0
H452 H 0.50297 0.52241 0.59805 0.0
H453 H 0.57793 0.53471 0.60257 0.0
C454 C 0.46013 0.87743 0.44225 0.0
C455 C 0.48665 0.84661 0.44323 0.0
C456 C 0.49359 0.93277 0.45973 0.0
C457 C 0.55467 0.95759 0.47981 0.0
C458 C 0.58208 0.92702 0.48007 0.0
C459 C 0.54804 0.87226 0.46139 0.0
C460 C 0.46285 0.96405 0.45784 0.0
C461 C 0.64644 0.95112 0.50185 0.0
C462 C 0.65812 0.1155 0.50223 0.0
C463 C 0.6522 0.12333 0.54199 0.0
C464 C 0.62665 0.06205 0.48167 0.0
C465 C 0.58915 1.01481 0.50152 0.0
C466 C 0.58398 1.02237 0.54201 0.0
C467 C 0.61489 0.07649 0.56154 0.0
C468 C 0.63245 0.05623 0.43834 0.0
C469 C 0.54563 0.97321 0.56467 0.0
H470 H 0.41254 0.85771 0.4287 0.0
H471 H 0.56849 0.84836 0.46321 0.0
H472 H 0.45694 0.97174 0.48854 0.0
H473 H 0.49176 1.00514 0.44652 0.0
H474 H 0.41733 0.94091 0.43806 0.0
H475 H 0.6621 0.92305 0.49785 0.0
H476 H 0.67841 0.99163 0.49092 0.0
H477 H 0.64893 0.95892 0.53454 0.0
H478 H 0.68605 0.15154 0.48669 0.0
H479 H 0.6102 0.08222 0.59226 0.0
H480 H 0.58682 0.03549 0.41889 0.0
H481 H 0.65007 1.02963 0.43505 0.0
H482 H 0.66339 0.09698 0.42717 0.0
H483 H 0.49742 0.94937 0.54908 0.0
H484 H 0.54733 0.98582 0.59623 0.0
H485 H 0.56152 0.94474 0.56512 0.0
C486 C 0.98196 1.02152 0.57564 0.0
C487 C 1.01618 1.01347 0.60748 0.0
C488 C 0.99664 1.02828 0.53667 0.0
C489 C 1.04649 1.0264 0.52888 0.0
C490 C 0.08076 1.01752 0.56075 0.0
C491 C 0.06553 1.01162 0.59965 0.0
C492 C 0.95945 0.03861 0.50397 0.0
C493 C 0.13378 1.01454 0.55377 0.0
C494 C 0.05351 1.00191 0.41864 0.0
C495 C 0.09648 0.05582 0.40985 0.0
C496 C 1.03747 0.99148 0.45732 0.0
C497 C 0.06422 0.03615 0.48787 0.0
C498 C 0.1071 0.09072 0.47895 0.0
C499 C 0.12288 0.09978 0.4403 0.0
C500 C 0.99211 0.93261 0.46558 0.0
C501 C 0.13599 0.13979 0.51016 0.0
H502 H 0.94438 1.0239 0.58141 0.0
H503 H 0.09182 1.00491 0.62391 0.0
H504 H 0.98921 0.07972 0.49293 0.0
H505 H 0.94023 1.00685 0.47793 0.0
H506 H 0.92132 0.03774 0.51461 0.0
H507 H 0.15407 1.00485 0.58109 0.0
H508 H 0.11867 0.98226 0.52881 0.0
H509 H 0.16978 0.05476 0.5446 0.0
H510 H 1.0333 0.96772 0.39542 0.0
H511 H 0.15532 0.14169 0.43369 0.0
H512 H 0.95169 0.92938 0.47426 0.0
H513 H 1.01286 0.92091 0.4913 0.0
H514 H 0.97654 0.90232 0.43903 0.0
H515 H 0.10004 0.14303 0.52029 0.0
H516 H 0.16848 0.1796 0.4985 0.0
H517 H 0.16076 0.13383 0.53703 0.0
C518 C 0.73899 0.3382 0.93566 0.0
C519 C 0.68971 0.34069 0.94269 0.0
C520 C 0.75492 0.3435 0.89701 0.0
C521 C 0.72144 0.35242 0.8646 0.0
C522 C 0.67173 0.35504 0.87159 0.0
C523 C 0.65633 0.34885 0.91033 0.0
C524 C 0.80776 0.33975 0.89086 0.0
C525 C 0.63542 0.36549 0.83828 0.0
C526 C 0.79942 0.42351 0.77602 0.0
C527 C 0.77276 0.37902 0.746 0.0
C528 C 0.78323 0.41538 0.81455 0.0
C529 C 0.7397 0.36121 0.82378 0.0
C530 C 0.71276 0.31599 0.79368 0.0
C531 C 0.7292 0.3255 0.7551 0.0
C532 C 0.81231 0.465 0.84529 0.0
C533 C 0.66673 0.25751 0.80231 0.0
H534 H 0.76464 0.33143 0.96036 0.0
H535 H 0.61883 0.35173 0.91552 0.0
H536 H 0.79265 0.30699 0.86628 0.0
H537 H 0.84418 0.3796 0.88152 0.0
H538 H 0.82749 0.33028 0.91858 0.0
H539 H 0.59744 0.36545 0.84839 0.0
H540 H 0.66582 0.40624 0.82699 0.0
H541 H 0.61609 0.33328 0.81254 0.0
H542 H 0.83236 0.46512 0.76912 0.0
H543 H 0.70881 0.2909 0.73222 0.0
H544 H 0.8365 0.45915 0.87256 0.0
H545 H 0.77653 0.46901 0.85483 0.0
H546 H 0.84535 0.50439 0.83343 0.0
H547 H 0.68686 0.24596 0.82851 0.0
H548 H 0.65117 0.22668 0.77613 0.0
H549 H 0.62637 0.25498 0.81042 0.0
C550 C 0.40898 0.67022 0.26463 0.0
C551 C 0.36252 0.67467 0.27518 0.0
C552 C 0.42212 0.67727 0.22515 0.0
C553 C 0.38861 0.68986 0.1955 0.0
C554 C 0.34178 0.69453 0.20606 0.0
C555 C 0.3292 0.68667 0.24554 0.0
C556 C 0.47203 0.67141 0.21517 0.0
C557 C 0.30554 0.70881 0.17579 0.0
C558 C 0.46204 0.76497 0.10658 0.0
C559 C 0.43194 0.72215 0.07497 0.0
C560 C 0.44853 0.75495 0.14573 0.0
C561 C 0.40405 0.70054 0.15395 0.0
C562 C 0.37346 0.65701 0.12222 0.0
C563 C 0.38743 0.6684 0.0831 0.0
C564 C 0.48155 0.80287 0.17828 0.0
C565 C 0.32613 0.59833 0.12966 0.0
H566 H 0.43454 0.66047 0.28716 0.0
H567 H 0.29391 0.69113 0.25343 0.0
H568 H 0.45374 0.63965 0.18923 0.0
H569 H 0.50882 0.71127 0.2061 0.0
H570 H 0.49222 0.65935 0.24103 0.0
H571 H 0.26983 0.70984 0.18847 0.0
H572 H 0.33658 0.75005 0.16538 0.0
H573 H 0.28327 0.678 0.14892 0.0
H574 H 0.49571 0.80681 0.10055 0.0
H575 H 0.36435 0.63506 0.05898 0.0
H576 H 0.50598 0.79412 0.20364 0.0
H577 H 0.44815 0.80803 0.19049 0.0
H578 H 0.51509 0.84266 0.16709 0.0
H579 H 0.34636 0.584 0.15372 0.0
H580 H 0.3075 0.5689 0.10214 0.0
H581 H 0.28786 0.59699 0.14037 0.0
C582 C 0.05633 0.15548 0.095 0.0
C583 C 1.02886 0.09789 0.09337 0.0
C584 C 0.07124 0.18333 0.06014 0.0
C585 C 0.06038 0.15276 0.02353 0.0
C586 C 1.029 0.09393 0.02152 0.0
C587 C 1.01302 0.06736 0.05646 0.0
C588 C 0.10056 0.24532 0.06347 0.0
C589 C 1.01595 0.05891 0.98325 0.0
C590 C 0.06587 0.17004 0.91605 0.0
C591 C 0.11673 0.16708 0.91468 0.0
C592 C 1.05225 0.17762 0.95318 0.0
C593 C 0.08944 0.1807 0.98891 0.0
C594 C 0.14759 0.19125 0.98717 0.0
C595 C 0.16096 0.18494 0.94974 0.0
C596 C 0.99355 0.17368 0.95426 0.0
C597 C 0.19134 0.19991 0.0249 0.0
H598 H 0.06703 0.17875 0.12363 0.0
H599 H 0.99165 1.02281 0.05549 0.0
H600 H 0.10219 0.26208 0.0337 0.0
H601 H 0.0751 0.25598 0.08072 0.0
H602 H 0.14771 0.26625 0.08073 0.0
H603 H 0.99259 1.01398 0.98753 0.0
H604 H 0.98638 0.0638 0.95918 0.0
H605 H 0.05912 0.0725 0.97251 0.0
H606 H 1.03358 0.1614 0.88895 0.0
H607 H 0.20322 0.18808 0.949 0.0
H608 H 0.99721 0.19703 0.98188 0.0
H609 H 0.95601 0.1295 0.95431 0.0
H610 H 0.98127 0.19 0.92728 0.0
H611 H 0.19668 0.23156 0.04677 0.0
H612 H 0.2371 0.21355 0.01845 0.0
H613 H 0.1729 0.16043 0.03932 0.0
C614 C 0.82072 0.5154 0.2836 0.0
C615 C 0.77402 0.49067 0.24971 0.0
C616 C 0.8068 0.51656 0.32187 0.0
C617 C 0.74545 0.4943 0.32543 0.0
C618 C 0.70286 0.48456 0.29076 0.0
C619 C 0.71721 0.4818 0.25284 0.0
C620 C 0.85526 0.53242 0.35844 0.0
C621 C 0.63905 0.46768 0.29382 0.0
C622 C 0.69072 0.37649 0.3913 0.0
C623 C 0.69976 0.40309 0.42865 0.0
C624 C 0.70257 0.40534 0.35705 0.0
C625 C 0.72265 0.46224 0.36018 0.0
C626 C 0.72725 0.48821 0.39733 0.0
C627 C 0.71654 0.45838 0.43145 0.0
C628 C 0.69696 0.37529 0.31818 0.0
C629 C 0.74561 0.54771 0.40202 0.0
H630 H 0.86648 0.5277 0.28112 0.0
H631 H 0.68156 0.46685 0.2267 0.0
H632 H 0.85409 0.55947 0.38107 0.0
H633 H 0.84633 0.4944 0.37253 0.0
H634 H 0.90175 0.55457 0.35068 0.0
H635 H 0.61938 0.47964 0.26759 0.0
H636 H 0.60942 0.42187 0.29395 0.0
H637 H 0.63858 0.48708 0.32208 0.0
H638 H 0.67789 0.3338 0.38939 0.0
H639 H 0.72217 0.47849 0.46041 0.0
H640 H 0.74101 0.39761 0.30703 0.0
H641 H 0.66199 0.37368 0.2947 0.0
H642 H 0.68358 0.33193 0.32182 0.0
H643 H 0.74374 0.56483 0.37274 0.0
H644 H 0.79269 0.5738 0.41943 0.0
H645 H 0.71544 0.55104 0.41967 0.0
C646 C 0.44629 0.82868 0.58543 0.0
C647 C 0.47528 0.79993 0.58847 0.0
C648 C 0.43361 0.84462 0.61994 0.0
C649 C 0.44886 0.8298 0.6576 0.0
C650 C 0.48673 0.80906 0.66135 0.0
C651 C 0.49958 0.79442 0.62654 0.0
C652 C 0.39821 0.87158 0.61545 0.0
C653 C 0.5065 0.7949 0.70136 0.0
C654 C 0.41386 0.83336 0.76056 0.0
C655 C 0.36524 0.77774 0.75977 0.0
C656 C 0.43721 0.85481 0.72542 0.0
C657 C 0.41181 0.81924 0.68929 0.0
C658 C 0.35733 0.7658 0.68732 0.0
C659 C 0.33458 0.74586 0.72268 0.0
C660 C 0.49246 0.91345 0.72822 0.0
C661 C 0.32753 0.72659 0.64912 0.0
H662 H 0.43026 0.83565 0.556 0.0
H663 H 0.52324 0.7734 0.62908 0.0
H664 H 0.40916 0.89858 0.64305 0.0
H665 H 0.40797 0.89672 0.58923 0.0
H666 H 0.3486 0.839 0.61021 0.0
H667 H 0.54034 0.78405 0.69954 0.0
H668 H 0.52704 0.8304 0.72462 0.0
H669 H 0.46617 0.75894 0.71149 0.0
H670 H 0.43603 0.85906 0.789 0.0
H671 H 0.29641 0.7032 0.72168 0.0
H672 H 0.4884 0.94131 0.74828 0.0
H673 H 0.49888 0.92985 0.69828 0.0
H674 H 0.53382 0.91458 0.7418 0.0
H675 H 0.3199 0.74737 0.62349 0.0
H676 H 0.28293 0.68844 0.65205 0.0
H677 H 0.35794 0.71394 0.64163 0.0
loop_
_geom_bond_atom_site_label_1
_geom_bond_atom_site_label_2
_geom_bond_distance
_geom_bond_site_symmetry_2
_ccdc_geom_bond_type
Co0 N4 2.148 . S
Co0 N10 2.128 . S
Co0 N20 2.194 1_445 S
Co0 O25 2.351 1_455 S
Co0 O26 2.155 . S
Co0 O27 2.096 . S
C1 N4 1.301 . S
C1 N5 1.328 . S
C1 H6 0.930 1_455 S
C2 C3 1.333 . S
C2 N4 1.317 . S
C2 H7 0.930 . S
C3 C2 1.333 . S
C3 N5 1.350 . S
C3 H29 0.931 . S
N4 Co0 2.148 . S
N4 C1 1.301 . S
N4 C2 1.317 . S
N5 C1 1.328 . S
N5 C3 1.350 . S
H6 C1 0.930 1_655 S
H7 C2 0.930 . S
C8 O9 1.224 . S
C8 O27 1.247 . S
O9 C8 1.224 . S
N10 Co0 2.128 . S
N10 C11 1.355 1_445 S
N10 C13 1.311 . S
C11 N10 1.355 1_665 S
C11 C12 1.363 . S
C11 H23 0.929 . S
C12 C11 1.363 . S
C12 N14 1.375 1_665 S
C12 H30 0.931 . S
C13 N10 1.311 . S
C13 N14 1.347 . S
C13 H24 0.929 . S
N14 C12 1.375 1_445 S
N14 C13 1.347 . S
C15 C18 1.365 . S
C15 N20 1.328 . S
C15 H21 0.929 . S
C16 C17 1.362 . S
C16 C19 1.378 1_655 S
C16 H31 0.929 1_655 S
C17 C16 1.362 . S
C17 C18 1.366 . S
C18 C15 1.365 . S
C18 C17 1.366 . S
C18 H32 0.930 . S
C19 C16 1.378 1_455 S
C19 N20 1.315 1_455 S
C19 H22 0.930 . S
N20 Co0 2.194 1_665 S
N20 C15 1.328 . S
N20 C19 1.315 1_655 S
H21 C15 0.929 . S
H22 C19 0.930 . S
H23 C11 0.929 . S
H24 C13 0.929 . S
O25 Co0 2.351 1_655 S
O25 C28 1.244 . S
O26 Co0 2.155 . S
O26 C28 1.240 1_455 S
O27 Co0 2.096 . S
O27 C8 1.247 . S
C28 O25 1.244 . S
C28 O26 1.240 1_655 S
H29 C3 0.931 . S
H30 C12 0.931 . S
H31 C16 0.929 1_455 S
H32 C18 0.930 . S
Co33 N37 2.148 1_455 S
Co33 N43 2.128 . S
Co33 N53 2.194 1_545 S
Co33 O58 2.351 . S
Co33 O59 2.155 . S
Co33 O60 2.096 1_445 S
C34 N37 1.301 1_455 S
C34 N38 1.328 1_455 S
C34 H39 0.930 . S
C35 C36 1.333 . S
C35 N37 1.317 1_565 S
C35 H40 0.930 . S
C36 C35 1.333 . S
C36 N38 1.350 1_565 S
C36 H62 0.931 . S
N37 Co33 2.148 1_655 S
N37 C34 1.301 1_655 S
N37 C35 1.317 1_545 S
N38 C34 1.328 1_655 S
N38 C36 1.350 1_545 S
H39 C34 0.930 . S
H40 C35 0.930 . S
C41 O42 1.224 . S
C41 O60 1.247 . S
O42 C41 1.224 . S
N43 Co33 2.128 . S
N43 C44 1.355 . S
N43 C46 1.311 1_455 S
C44 N43 1.355 . S
C44 C45 1.363 . S
C44 H56 0.929 . S
C45 C44 1.363 . S
C45 N47 1.375 . S
C45 H63 0.931 . S
C46 N43 1.311 1_655 S
C46 N47 1.347 1_655 S
C46 H57 0.929 1_545 S
N47 C45 1.375 . S
N47 C46 1.347 1_455 S
C48 C51 1.365 1_545 S
C48 N53 1.328 1_545 S
C48 H54 0.929 . S
C49 C50 1.362 . S
C49 C52 1.378 . S
C49 H64 0.929 . S
C50 C49 1.362 . S
C50 C51 1.366 . S
C51 C48 1.365 1_565 S
C51 C50 1.366 . S
C51 H65 0.930 . S
C52 C49 1.378 . S
C52 N53 1.315 . S
C52 H55 0.930 1_455 S
N53 Co33 2.194 1_565 S
N53 C48 1.328 1_565 S
N53 C52 1.315 . S
H54 C48 0.929 . S
H55 C52 0.930 1_655 S
H56 C44 0.929 . S
H57 C46 0.929 1_565 S
O58 Co33 2.351 . S
O58 C61 1.244 . S
O59 Co33 2.155 . S
O59 C61 1.240 . S
O60 Co33 2.096 1_665 S
O60 C41 1.247 . S
C61 O58 1.244 . S
C61 O59 1.240 . S
H62 C36 0.931 . S
H63 C45 0.931 . S
H64 C49 0.929 . S
H65 C51 0.930 . S
Co66 N70 2.148 . S
Co66 N76 2.128 . S
Co66 N86 2.194 . S
Co66 O91 2.351 . S
Co66 O92 2.155 . S
Co66 O93 2.096 . S
C67 N70 1.301 . S
C67 N71 1.328 . S
C67 H72 0.930 . S
C68 C69 1.333 . S
C68 N70 1.317 . S
C68 H73 0.930 . S
C69 C68 1.333 . S
C69 N71 1.350 . S
C69 H95 0.931 . S
N70 Co66 2.148 . S
N70 C67 1.301 . S
N70 C68 1.317 . S
N71 C67 1.328 . S
N71 C69 1.350 . S
H72 C67 0.930 . S
H73 C68 0.930 . S
C74 O75 1.224 . S
C74 O93 1.247 . S
O75 C74 1.224 . S
N76 Co66 2.128 . S
N76 C77 1.355 . S
N76 C79 1.311 . S
C77 N76 1.355 . S
C77 C78 1.363 . S
C77 H89 0.929 . S
C78 C77 1.363 . S
C78 N80 1.375 . S
C78 H96 0.931 . S
C79 N76 1.311 . S
C79 N80 1.347 . S
C79 H90 0.929 . S
N80 C78 1.375 . S
N80 C79 1.347 . S
C81 C84 1.365 . S
C81 N86 1.328 . S
C81 H87 0.929 . S
C82 C83 1.362 . S
C82 C85 1.378 . S
C82 H97 0.929 . S
C83 C82 1.362 . S
C83 C84 1.366 . S
C84 C81 1.365 . S
C84 C83 1.366 . S
C84 H98 0.930 . S
C85 C82 1.378 . S
C85 N86 1.315 . S
C85 H88 0.930 . S
N86 Co66 2.194 . S
N86 C81 1.328 . S
N86 C85 1.315 . S
H87 C81 0.929 . S
H88 C85 0.930 . S
H89 C77 0.929 . S
H90 C79 0.929 . S
O91 Co66 2.351 . S
O91 C94 1.244 . S
O92 Co66 2.155 . S
O92 C94 1.240 . S
O93 Co66 2.096 . S
O93 C74 1.247 . S
C94 O91 1.244 . S
C94 O92 1.240 . S
H95 C69 0.931 . S
H96 C78 0.931 . S
H97 C82 0.929 . S
H98 C84 0.930 . S
Co99 N103 2.148 . S
Co99 N109 2.128 . S
Co99 N119 2.194 . S
Co99 O124 2.351 . S
Co99 O125 2.155 . S
Co99 O126 2.096 . S
C100 N103 1.301 . S
C100 N104 1.328 1_554 S
C100 H105 0.930 . S
C101 C102 1.333 1_554 S
C101 N103 1.317 . S
C101 H106 0.930 . S
C102 C101 1.333 1_556 S
C102 N104 1.350 . S
C102 H128 0.931 . S
N103 Co99 2.148 . S
N103 C100 1.301 . S
N103 C101 1.317 . S
N104 C100 1.328 1_556 S
N104 C102 1.350 . S
H105 C100 0.930 . S
H106 C101 0.930 . S
C107 O108 1.224 . S
C107 O126 1.247 . S
O108 C107 1.224 . S
N109 Co99 2.128 . S
N109 C110 1.355 . S
N109 C112 1.311 . S
C110 N109 1.355 . S
C110 C111 1.363 . S
C110 H122 0.929 . S
C111 C110 1.363 . S
C111 N113 1.375 . S
C111 H129 0.931 . S
C112 N109 1.311 . S
C112 N113 1.347 . S
C112 H123 0.929 . S
N113 C111 1.375 . S
N113 C112 1.347 . S
C114 C117 1.365 . S
C114 N119 1.328 . S
C114 H120 0.929 . S
C115 C116 1.362 . S
C115 C118 1.378 . S
C115 H130 0.929 . S
C116 C115 1.362 . S
C116 C117 1.366 . S
C117 C114 1.365 . S
C117 C116 1.366 . S
C117 H131 0.930 . S
C118 C115 1.378 . S
C118 N119 1.315 . S
C118 H121 0.930 . S
N119 Co99 2.194 . S
N119 C114 1.328 . S
N119 C118 1.315 . S
H120 C114 0.929 . S
H121 C118 0.930 . S
H122 C110 0.929 . S
H123 C112 0.929 . S
O124 Co99 2.351 . S
O124 C127 1.244 . S
O125 Co99 2.155 . S
O125 C127 1.240 . S
O126 Co99 2.096 . S
O126 C107 1.247 . S
C127 O124 1.244 . S
C127 O125 1.240 . S
H128 C102 0.931 . S
H129 C111 0.931 . S
H130 C115 0.929 . S
H131 C117 0.930 . S
Co132 N136 2.148 . S
Co132 N142 2.128 . S
Co132 N152 2.194 . S
Co132 O157 2.351 . S
Co132 O158 2.155 . S
Co132 O159 2.096 . S
C133 N136 1.301 . S
C133 N137 1.328 1_556 S
C133 H138 0.930 . S
C134 C135 1.333 1_556 S
C134 N136 1.317 . S
C134 H139 0.930 . S
C135 C134 1.333 1_554 S
C135 N137 1.350 . S
C135 H161 0.931 . S
N136 Co132 2.148 . S
N136 C133 1.301 . S
N136 C134 1.317 . S
N137 C133 1.328 1_554 S
N137 C135 1.350 . S
H138 C133 0.930 . S
H139 C134 0.930 . S
C140 O141 1.224 . S
C140 O159 1.247 . S
O141 C140 1.224 . S
N142 Co132 2.128 . S
N142 C143 1.355 . S
N142 C145 1.311 . S
C143 N142 1.355 . S
C143 C144 1.363 . S
C143 H155 0.929 . S
C144 C143 1.363 . S
C144 N146 1.375 . S
C144 H162 0.931 . S
C145 N142 1.311 . S
C145 N146 1.347 . S
C145 H156 0.929 . S
N146 C144 1.375 . S
N146 C145 1.347 . S
C147 C150 1.365 . S
C147 N152 1.328 . S
C147 H153 0.929 . S
C148 C149 1.362 . S
C148 C151 1.378 . S
C148 H163 0.929 . S
C149 C148 1.362 . S
C149 C150 1.366 . S
C150 C147 1.365 . S
C150 C149 1.366 . S
C150 H164 0.930 . S
C151 C148 1.378 . S
C151 N152 1.315 . S
C151 H154 0.930 . S
N152 Co132 2.194 . S
N152 C147 1.328 . S
N152 C151 1.315 . S
H153 C147 0.929 . S
H154 C151 0.930 . S
H155 C143 0.929 . S
H156 C145 0.929 . S
O157 Co132 2.351 . S
O157 C160 1.244 . S
O158 Co132 2.155 . S
O158 C160 1.240 . S
O159 Co132 2.096 . S
O159 C140 1.247 . S
C160 O157 1.244 . S
C160 O158 1.240 . S
H161 C135 0.931 . S
H162 C144 0.931 . S
H163 C148 0.929 . S
H164 C150 0.930 . S
Co165 N169 2.148 . S
Co165 N175 2.128 . S
Co165 N185 2.194 . S
Co165 O190 2.351 . S
Co165 O191 2.155 . S
Co165 O192 2.096 . S
C166 N169 1.301 . S
C166 N170 1.328 . S
C166 H171 0.930 . S
C167 C168 1.333 . S
C167 N169 1.317 . S
C167 H172 0.930 . S
C168 C167 1.333 . S
C168 N170 1.350 . S
C168 H194 0.931 . S
N169 Co165 2.148 . S
N169 C166 1.301 . S
N169 C167 1.317 . S
N170 C166 1.328 . S
N170 C168 1.350 . S
H171 C166 0.930 . S
H172 C167 0.930 . S
C173 O174 1.224 . S
C173 O192 1.247 . S
O174 C173 1.224 . S
N175 Co165 2.128 . S
N175 C176 1.355 . S
N175 C178 1.311 . S
C176 N175 1.355 . S
C176 C177 1.363 . S
C176 H188 0.929 . S
C177 C176 1.363 . S
C177 N179 1.375 . S
C177 H195 0.931 . S
C178 N175 1.311 . S
C178 N179 1.347 . S
C178 H189 0.929 . S
N179 C177 1.375 . S
N179 C178 1.347 . S
C180 C183 1.365 . S
C180 N185 1.328 . S
C180 H186 0.929 . S
C181 C182 1.362 . S
C181 C184 1.378 . S
C181 H196 0.929 . S
C182 C181 1.362 . S
C182 C183 1.366 . S
C183 C180 1.365 . S
C183 C182 1.366 . S
C183 H197 0.930 . S
C184 C181 1.378 . S
C184 N185 1.315 . S
C184 H187 0.930 . S
N185 Co165 2.194 . S
N185 C180 1.328 . S
N185 C184 1.315 . S
H186 C180 0.929 . S
H187 C184 0.930 . S
H188 C176 0.929 . S
H189 C178 0.929 . S
O190 Co165 2.351 . S
O190 C193 1.244 . S
O191 Co165 2.155 . S
O191 C193 1.240 . S
O192 Co165 2.096 . S
O192 C173 1.247 . S
C193 O190 1.244 . S
C193 O191 1.240 . S
H194 C168 0.931 . S
H195 C177 0.931 . S
H196 C181 0.929 . S
H197 C183 0.930 . S
C198 C199 1.391 . S
C198 C200 1.394 . S
C198 H214 0.931 . S
C199 C198 1.391 . S
C199 C203 1.376 . S
C200 C198 1.394 . S
C200 C201 1.369 . S
C200 C204 1.531 . S
C201 C200 1.369 . S
C201 C202 1.410 . S
C201 C209 1.503 . S
C202 C201 1.410 . S
C202 C203 1.392 . S
C202 C205 1.511 . S
C203 C199 1.376 . S
C203 C202 1.392 . S
C203 H215 0.929 . S
C204 C200 1.531 . S
C204 H216 0.960 . S
C204 H217 0.962 . S
C204 H218 0.960 . S
C205 C202 1.511 . S
C205 H219 0.961 . S
C205 H220 0.961 . S
C205 H221 0.961 . S
C206 C207 1.370 . S
C206 C208 1.363 . S
C206 H222 0.931 . S
C207 C206 1.370 . S
C207 C211 1.408 . S
C208 C206 1.363 . S
C208 C209 1.370 . S
C208 C212 1.524 . S
C209 C201 1.503 . S
C209 C208 1.370 . S
C209 C210 1.403 . S
C210 C209 1.403 . S
C210 C211 1.404 . S
C210 C213 1.539 . S
C211 C207 1.408 . S
C211 C210 1.404 . S
C211 H223 0.930 . S
C212 C208 1.524 . S
C212 H224 0.956 . S
C212 H225 0.961 . S
C212 H226 0.961 . S
C213 C210 1.539 . S
C213 H227 0.958 . S
C213 H228 0.961 . S
C213 H229 0.960 . S
H214 C198 0.931 . S
H215 C203 0.929 . S
H216 C204 0.960 . S
H217 C204 0.962 . S
H218 C204 0.960 . S
H219 C205 0.961 . S
H220 C205 0.961 . S
H221 C205 0.961 . S
H222 C206 0.931 . S
H223 C211 0.930 . S
H224 C212 0.956 . S
H225 C212 0.961 . S
H226 C212 0.961 . S
H227 C213 0.958 . S
H228 C213 0.961 . S
H229 C213 0.960 . S
C230 C231 1.391 . S
C230 C232 1.394 . S
C230 H246 0.931 . S
C231 C230 1.391 . S
C231 C235 1.376 . S
C232 C230 1.394 . S
C232 C233 1.369 . S
C232 C236 1.531 . S
C233 C232 1.369 . S
C233 C234 1.410 . S
C233 C241 1.503 . S
C234 C233 1.410 . S
C234 C235 1.392 . S
C234 C237 1.511 . S
C235 C231 1.376 . S
C235 C234 1.392 . S
C235 H247 0.929 . S
C236 C232 1.531 . S
C236 H248 0.960 . S
C236 H249 0.962 . S
C236 H250 0.960 . S
C237 C234 1.511 . S
C237 H251 0.961 . S
C237 H252 0.961 . S
C237 H253 0.961 . S
C238 C239 1.370 . S
C238 C240 1.363 . S
C238 H254 0.931 . S
C239 C238 1.370 . S
C239 C243 1.408 . S
C240 C238 1.363 . S
C240 C241 1.370 . S
C240 C244 1.524 . S
C241 C233 1.503 . S
C241 C240 1.370 . S
C241 C242 1.403 . S
C242 C241 1.403 . S
C242 C243 1.404 . S
C242 C245 1.539 . S
C243 C239 1.408 . S
C243 C242 1.404 . S
C243 H255 0.930 . S
C244 C240 1.524 . S
C244 H256 0.956 . S
C244 H257 0.961 . S
C244 H258 0.961 . S
C245 C242 1.539 . S
C245 H259 0.958 . S
C245 H260 0.961 . S
C245 H261 0.960 . S
H246 C230 0.931 . S
H247 C235 0.929 . S
H248 C236 0.960 . S
H249 C236 0.962 . S
H250 C236 0.960 . S
H251 C237 0.961 . S
H252 C237 0.961 . S
H253 C237 0.961 . S
H254 C238 0.931 . S
H255 C243 0.930 . S
H256 C244 0.956 . S
H257 C244 0.961 . S
H258 C244 0.961 . S
H259 C245 0.958 . S
H260 C245 0.961 . S
H261 C245 0.960 . S
C262 C263 1.391 . S
C262 C264 1.394 . S
C262 H278 0.931 . S
C263 C262 1.391 . S
C263 C267 1.376 . S
C264 C262 1.394 . S
C264 C265 1.369 . S
C264 C268 1.531 . S
C265 C264 1.369 . S
C265 C266 1.410 . S
C265 C273 1.503 . S
C266 C265 1.410 . S
C266 C267 1.392 . S
C266 C269 1.511 . S
C267 C263 1.376 . S
C267 C266 1.392 . S
C267 H279 0.929 . S
C268 C264 1.531 . S
C268 H280 0.960 . S
C268 H281 0.962 . S
C268 H282 0.960 . S
C269 C266 1.511 . S
C269 H283 0.961 . S
C269 H284 0.961 . S
C269 H285 0.961 . S
C270 C271 1.370 . S
C270 C272 1.363 . S
C270 H286 0.931 . S
C271 C270 1.370 . S
C271 C275 1.408 . S
C272 C270 1.363 . S
C272 C273 1.370 . S
C272 C276 1.524 . S
C273 C265 1.503 . S
C273 C272 1.370 . S
C273 C274 1.403 . S
C274 C273 1.403 . S
C274 C275 1.404 . S
C274 C277 1.539 . S
C275 C271 1.408 . S
C275 C274 1.404 . S
C275 H287 0.930 . S
C276 C272 1.524 . S
C276 H288 0.956 . S
C276 H289 0.961 . S
C276 H290 0.961 . S
C277 C274 1.539 . S
C277 H291 0.958 . S
C277 H292 0.961 . S
C277 H293 0.960 . S
H278 C262 0.931 . S
H279 C267 0.929 . S
H280 C268 0.960 . S
H281 C268 0.962 . S
H282 C268 0.960 . S
H283 C269 0.961 . S
H284 C269 0.961 . S
H285 C269 0.961 . S
H286 C270 0.931 . S
H287 C275 0.930 . S
H288 C276 0.956 . S
H289 C276 0.961 . S
H290 C276 0.961 . S
H291 C277 0.958 . S
H292 C277 0.961 . S
H293 C277 0.960 . S
C294 C295 1.391 . S
C294 C296 1.394 . S
C294 H310 0.931 . S
C295 C294 1.391 . S
C295 C299 1.376 . S
C296 C294 1.394 . S
C296 C297 1.369 . S
C296 C300 1.531 . S
C297 C296 1.369 . S
C297 C298 1.410 . S
C297 C305 1.503 . S
C298 C297 1.410 . S
C298 C299 1.392 . S
C298 C301 1.511 . S
C299 C295 1.376 . S
C299 C298 1.392 . S
C299 H311 0.929 . S
C300 C296 1.531 . S
C300 H312 0.960 . S
C300 H313 0.962 . S
C300 H314 0.960 . S
C301 C298 1.511 . S
C301 H315 0.961 . S
C301 H316 0.961 . S
C301 H317 0.961 . S
C302 C303 1.370 . S
C302 C304 1.363 . S
C302 H318 0.931 . S
C303 C302 1.370 . S
C303 C307 1.408 . S
C304 C302 1.363 . S
C304 C305 1.370 . S
C304 C308 1.524 . S
C305 C297 1.503 . S
C305 C304 1.370 . S
C305 C306 1.403 . S
C306 C305 1.403 . S
C306 C307 1.404 . S
C306 C309 1.539 . S
C307 C303 1.408 . S
C307 C306 1.404 . S
C307 H319 0.930 . S
C308 C304 1.524 . S
C308 H320 0.956 . S
C308 H321 0.961 . S
C308 H322 0.961 . S
C309 C306 1.539 . S
C309 H323 0.958 . S
C309 H324 0.961 . S
C309 H325 0.960 . S
H310 C294 0.931 . S
H311 C299 0.929 . S
H312 C300 0.960 . S
H313 C300 0.962 . S
H314 C300 0.960 . S
H315 C301 0.961 . S
H316 C301 0.961 . S
H317 C301 0.961 . S
H318 C302 0.931 . S
H319 C307 0.930 . S
H320 C308 0.956 . S
H321 C308 0.961 . S
H322 C308 0.961 . S
H323 C309 0.958 . S
H324 C309 0.961 . S
H325 C309 0.960 . S
C326 C327 1.391 . S
C326 C328 1.394 . S
C326 H342 0.931 . S
C327 C326 1.391 . S
C327 C331 1.376 . S
C328 C326 1.394 . S
C328 C329 1.369 . S
C328 C332 1.531 . S
C329 C328 1.369 . S
C329 C330 1.410 . S
C329 C337 1.503 . S
C330 C329 1.410 . S
C330 C331 1.392 . S
C330 C333 1.511 . S
C331 C327 1.376 . S
C331 C330 1.392 . S
C331 H343 0.929 . S
C332 C328 1.531 . S
C332 H344 0.960 . S
C332 H345 0.962 . S
C332 H346 0.960 . S
C333 C330 1.511 . S
C333 H347 0.961 . S
C333 H348 0.961 . S
C333 H349 0.961 . S
C334 C335 1.370 . S
C334 C336 1.363 . S
C334 H350 0.931 . S
C335 C334 1.370 . S
C335 C339 1.408 . S
C336 C334 1.363 . S
C336 C337 1.370 . S
C336 C340 1.524 . S
C337 C329 1.503 . S
C337 C336 1.370 . S
C337 C338 1.403 . S
C338 C337 1.403 . S
C338 C339 1.404 . S
C338 C341 1.539 . S
C339 C335 1.408 . S
C339 C338 1.404 . S
C339 H351 0.930 . S
C340 C336 1.524 . S
C340 H352 0.956 . S
C340 H353 0.961 . S
C340 H354 0.961 . S
C341 C338 1.539 . S
C341 H355 0.958 . S
C341 H356 0.961 . S
C341 H357 0.960 . S
H342 C326 0.931 . S
H343 C331 0.929 . S
H344 C332 0.960 . S
H345 C332 0.962 . S
H346 C332 0.960 . S
H347 C333 0.961 . S
H348 C333 0.961 . S
H349 C333 0.961 . S
H350 C334 0.931 . S
H351 C339 0.930 . S
H352 C340 0.956 . S
H353 C340 0.961 . S
H354 C340 0.961 . S
H355 C341 0.958 . S
H356 C341 0.961 . S
H357 C341 0.960 . S
C358 C359 1.391 . S
C358 C360 1.394 . S
C358 H374 0.931 . S
C359 C358 1.391 . S
C359 C363 1.376 . S
C360 C358 1.394 . S
C360 C361 1.369 . S
C360 C364 1.531 . S
C361 C360 1.369 . S
C361 C362 1.410 . S
C361 C369 1.503 . S
C362 C361 1.410 . S
C362 C363 1.392 . S
C362 C365 1.511 . S
C363 C359 1.376 . S
C363 C362 1.392 . S
C363 H375 0.929 . S
C364 C360 1.531 . S
C364 H376 0.960 . S
C364 H377 0.962 . S
C364 H378 0.960 . S
C365 C362 1.511 . S
C365 H379 0.961 . S
C365 H380 0.961 . S
C365 H381 0.961 . S
C366 C367 1.370 . S
C366 C368 1.363 . S
C366 H382 0.931 . S
C367 C366 1.370 . S
C367 C371 1.408 . S
C368 C366 1.363 . S
C368 C369 1.370 . S
C368 C372 1.524 . S
C369 C361 1.503 . S
C369 C368 1.370 . S
C369 C370 1.403 . S
C370 C369 1.403 . S
C370 C371 1.404 . S
C370 C373 1.539 . S
C371 C367 1.408 . S
C371 C370 1.404 . S
C371 H383 0.930 . S
C372 C368 1.524 . S
C372 H384 0.956 . S
C372 H385 0.961 . S
C372 H386 0.961 . S
C373 C370 1.539 . S
C373 H387 0.958 . S
C373 H388 0.961 . S
C373 H389 0.960 . S
H374 C358 0.931 . S
H375 C363 0.929 . S
H376 C364 0.960 . S
H377 C364 0.962 . S
H378 C364 0.960 . S
H379 C365 0.961 . S
H380 C365 0.961 . S
H381 C365 0.961 . S
H382 C366 0.931 . S
H383 C371 0.930 . S
H384 C372 0.956 . S
H385 C372 0.961 . S
H386 C372 0.961 . S
H387 C373 0.958 . S
H388 C373 0.961 . S
H389 C373 0.960 . S
C390 C391 1.391 . S
C390 C392 1.394 . S
C390 H406 0.931 . S
C391 C390 1.391 . S
C391 C395 1.376 . S
C392 C390 1.394 . S
C392 C393 1.369 . S
C392 C396 1.531 . S
C393 C392 1.369 . S
C393 C394 1.410 . S
C393 C401 1.503 1_655 S
C394 C393 1.410 . S
C394 C395 1.392 . S
C394 C397 1.511 . S
C395 C391 1.376 . S
C395 C394 1.392 . S
C395 H407 0.929 . S
C396 C392 1.531 . S
C396 H408 0.960 1_655 S
C396 H409 0.962 1_655 S
C396 H410 0.960 . S
C397 C394 1.511 . S
C397 H411 0.961 . S
C397 H412 0.961 1_655 S
C397 H413 0.961 . S
C398 C399 1.370 . S
C398 C400 1.363 . S
C398 H414 0.931 . S
C399 C398 1.370 . S
C399 C403 1.408 . S
C400 C398 1.363 . S
C400 C401 1.370 . S
C400 C404 1.524 . S
C401 C393 1.503 1_455 S
C401 C400 1.370 . S
C401 C402 1.403 . S
C402 C401 1.403 . S
C402 C403 1.404 . S
C402 C405 1.539 1_455 S
C403 C399 1.408 . S
C403 C402 1.404 . S
C403 H415 0.930 . S
C404 C400 1.524 . S
C404 H416 0.956 . S
C404 H417 0.961 . S
C404 H418 0.961 . S
C405 C402 1.539 1_655 S
C405 H419 0.958 . S
C405 H420 0.961 . S
C405 H421 0.960 . S
H406 C390 0.931 . S
H407 C395 0.929 . S
H408 C396 0.960 1_455 S
H409 C396 0.962 1_455 S
H410 C396 0.960 . S
H411 C397 0.961 . S
H412 C397 0.961 1_455 S
H413 C397 0.961 . S
H414 C398 0.931 . S
H415 C403 0.930 . S
H416 C404 0.956 . S
H417 C404 0.961 . S
H418 C404 0.961 . S
H419 C405 0.958 . S
H420 C405 0.961 . S
H421 C405 0.960 . S
C422 C423 1.391 . S
C422 C424 1.394 . S
C422 H438 0.931 . S
C423 C422 1.391 . S
C423 C427 1.376 . S
C424 C422 1.394 . S
C424 C425 1.369 . S
C424 C428 1.531 . S
C425 C424 1.369 . S
C425 C426 1.410 . S
C425 C433 1.503 . S
C426 C425 1.410 . S
C426 C427 1.392 . S
C426 C429 1.511 . S
C427 C423 1.376 . S
C427 C426 1.392 . S
C427 H439 0.929 . S
C428 C424 1.531 . S
C428 H440 0.960 . S
C428 H441 0.962 . S
C428 H442 0.960 . S
C429 C426 1.511 . S
C429 H443 0.961 . S
C429 H444 0.961 . S
C429 H445 0.961 . S
C430 C431 1.370 . S
C430 C432 1.363 . S
C430 H446 0.931 . S
C431 C430 1.370 . S
C431 C435 1.408 . S
C432 C430 1.363 . S
C432 C433 1.370 . S
C432 C436 1.524 . S
C433 C425 1.503 . S
C433 C432 1.370 . S
C433 C434 1.403 . S
C434 C433 1.403 . S
C434 C435 1.404 . S
C434 C437 1.539 . S
C435 C431 1.408 . S
C435 C434 1.404 . S
C435 H447 0.930 . S
C436 C432 1.524 . S
C436 H448 0.956 . S
C436 H449 0.961 . S
C436 H450 0.961 . S
C437 C434 1.539 . S
C437 H451 0.958 . S
C437 H452 0.961 . S
C437 H453 0.960 . S
H438 C422 0.931 . S
H439 C427 0.929 . S
H440 C428 0.960 . S
H441 C428 0.962 . S
H442 C428 0.960 . S
H443 C429 0.961 . S
H444 C429 0.961 . S
H445 C429 0.961 . S
H446 C430 0.931 . S
H447 C435 0.930 . S
H448 C436 0.956 . S
H449 C436 0.961 . S
H450 C436 0.961 . S
H451 C437 0.958 . S
H452 C437 0.961 . S
H453 C437 0.960 . S
C454 C455 1.391 . S
C454 C456 1.394 . S
C454 H470 0.931 . S
C455 C454 1.391 . S
C455 C459 1.376 . S
C456 C454 1.394 . S
C456 C457 1.369 . S
C456 C460 1.531 . S
C457 C456 1.369 . S
C457 C458 1.410 . S
C457 C465 1.503 1_565 S
C458 C457 1.410 . S
C458 C459 1.392 . S
C458 C461 1.511 . S
C459 C455 1.376 . S
C459 C458 1.392 . S
C459 H471 0.929 . S
C460 C456 1.531 . S
C460 H472 0.960 . S
C460 H473 0.962 . S
C460 H474 0.960 . S
C461 C458 1.511 . S
C461 H475 0.961 . S
C461 H476 0.961 . S
C461 H477 0.961 . S
C462 C463 1.370 . S
C462 C464 1.363 . S
C462 H478 0.931 . S
C463 C462 1.370 . S
C463 C467 1.408 . S
C464 C462 1.363 . S
C464 C465 1.370 . S
C464 C468 1.524 . S
C465 C457 1.503 1_545 S
C465 C464 1.370 . S
C465 C466 1.403 . S
C466 C465 1.403 . S
C466 C467 1.404 . S
C466 C469 1.539 1_545 S
C467 C463 1.408 . S
C467 C466 1.404 . S
C467 H479 0.930 . S
C468 C464 1.524 . S
C468 H480 0.956 . S
C468 H481 0.961 . S
C468 H482 0.961 . S
C469 C466 1.539 1_565 S
C469 H483 0.958 . S
C469 H484 0.961 . S
C469 H485 0.960 . S
H470 C454 0.931 . S
H471 C459 0.929 . S
H472 C460 0.960 . S
H473 C460 0.962 . S
H474 C460 0.960 . S
H475 C461 0.961 . S
H476 C461 0.961 . S
H477 C461 0.961 . S
H478 C462 0.931 . S
H479 C467 0.930 . S
H480 C468 0.956 . S
H481 C468 0.961 . S
H482 C468 0.961 . S
H483 C469 0.958 . S
H484 C469 0.961 . S
H485 C469 0.960 . S
C486 C487 1.391 . S
C486 C488 1.394 . S
C486 H502 0.931 . S
C487 C486 1.391 . S
C487 C491 1.376 1_545 S
C488 C486 1.394 . S
C488 C489 1.369 . S
C488 C492 1.531 . S
C489 C488 1.369 . S
C489 C490 1.410 1_545 S
C489 C497 1.503 . S
C490 C489 1.410 1_565 S
C490 C491 1.392 . S
C490 C493 1.511 . S
C491 C487 1.376 1_565 S
C491 C490 1.392 . S
C491 H503 0.929 . S
C492 C488 1.531 . S
C492 H504 0.960 . S
C492 H505 0.962 1_455 S
C492 H506 0.960 . S
C493 C490 1.511 . S
C493 H507 0.961 . S
C493 H508 0.961 . S
C493 H509 0.961 . S
C494 C495 1.370 1_655 S
C494 C496 1.363 . S
C494 H510 0.931 1_545 S
C495 C494 1.370 1_455 S
C495 C499 1.408 . S
C496 C494 1.363 . S
C496 C497 1.370 1_655 S
C496 C500 1.524 1_545 S
C497 C489 1.503 . S
C497 C496 1.370 1_455 S
C497 C498 1.403 . S
C498 C497 1.403 . S
C498 C499 1.404 . S
C498 C501 1.539 . S
C499 C495 1.408 . S
C499 C498 1.404 . S
C499 H511 0.930 . S
C500 C496 1.524 1_565 S
C500 H512 0.956 1_565 S
C500 H513 0.961 . S
C500 H514 0.961 . S
C501 C498 1.539 . S
C501 H515 0.958 . S
C501 H516 0.961 . S
C501 H517 0.960 . S
H502 C486 0.931 . S
H503 C491 0.929 . S
H504 C492 0.960 . S
H505 C492 0.962 1_655 S
H506 C492 0.960 . S
H507 C493 0.961 . S
H508 C493 0.961 . S
H509 C493 0.961 . S
H510 C494 0.931 1_565 S
H511 C499 0.930 . S
H512 C500 0.956 1_545 S
H513 C500 0.961 . S
H514 C500 0.961 . S
H515 C501 0.958 . S
H516 C501 0.961 . S
H517 C501 0.960 . S
C518 C519 1.391 . S
C518 C520 1.394 . S
C518 H534 0.931 . S
C519 C518 1.391 . S
C519 C523 1.376 . S
C520 C518 1.394 . S
C520 C521 1.369 . S
C520 C524 1.531 . S
C521 C520 1.369 . S
C521 C522 1.410 . S
C521 C529 1.503 . S
C522 C521 1.410 . S
C522 C523 1.392 . S
C522 C525 1.511 . S
C523 C519 1.376 . S
C523 C522 1.392 . S
C523 H535 0.929 . S
C524 C520 1.531 . S
C524 H536 0.960 . S
C524 H537 0.962 . S
C524 H538 0.960 . S
C525 C522 1.511 . S
C525 H539 0.961 . S
C525 H540 0.961 . S
C525 H541 0.961 . S
C526 C527 1.370 . S
C526 C528 1.363 . S
C526 H542 0.931 . S
C527 C526 1.370 . S
C527 C531 1.408 . S
C528 C526 1.363 . S
C528 C529 1.370 . S
C528 C532 1.524 . S
C529 C521 1.503 . S
C529 C528 1.370 . S
C529 C530 1.403 . S
C530 C529 1.403 . S
C530 C531 1.404 . S
C530 C533 1.539 . S
C531 C527 1.408 . S
C531 C530 1.404 . S
C531 H543 0.930 . S
C532 C528 1.524 . S
C532 H544 0.956 . S
C532 H545 0.961 . S
C532 H546 0.961 . S
C533 C530 1.539 . S
C533 H547 0.958 . S
C533 H548 0.961 . S
C533 H549 0.960 . S
H534 C518 0.931 . S
H535 C523 0.929 . S
H536 C524 0.960 . S
H537 C524 0.962 . S
H538 C524 0.960 . S
H539 C525 0.961 . S
H540 C525 0.961 . S
H541 C525 0.961 . S
H542 C526 0.931 . S
H543 C531 0.930 . S
H544 C532 0.956 . S
H545 C532 0.961 . S
H546 C532 0.961 . S
H547 C533 0.958 . S
H548 C533 0.961 . S
H549 C533 0.960 . S
C550 C551 1.391 . S
C550 C552 1.394 . S
C550 H566 0.931 . S
C551 C550 1.391 . S
C551 C555 1.376 . S
C552 C550 1.394 . S
C552 C553 1.369 . S
C552 C556 1.531 . S
C553 C552 1.369 . S
C553 C554 1.410 . S
C553 C561 1.503 . S
C554 C553 1.410 . S
C554 C555 1.392 . S
C554 C557 1.511 . S
C555 C551 1.376 . S
C555 C554 1.392 . S
C555 H567 0.929 . S
C556 C552 1.531 . S
C556 H568 0.960 . S
C556 H569 0.962 . S
C556 H570 0.960 . S
C557 C554 1.511 . S
C557 H571 0.961 . S
C557 H572 0.961 . S
C557 H573 0.961 . S
C558 C559 1.370 . S
C558 C560 1.363 . S
C558 H574 0.931 . S
C559 C558 1.370 . S
C559 C563 1.408 . S
C560 C558 1.363 . S
C560 C561 1.370 . S
C560 C564 1.524 . S
C561 C553 1.503 . S
C561 C560 1.370 . S
C561 C562 1.403 . S
C562 C561 1.403 . S
C562 C563 1.404 . S
C562 C565 1.539 . S
C563 C559 1.408 . S
C563 C562 1.404 . S
C563 H575 0.930 . S
C564 C560 1.524 . S
C564 H576 0.956 . S
C564 H577 0.961 . S
C564 H578 0.961 . S
C565 C562 1.539 . S
C565 H579 0.958 . S
C565 H580 0.961 . S
C565 H581 0.960 . S
H566 C550 0.931 . S
H567 C555 0.929 . S
H568 C556 0.960 . S
H569 C556 0.962 . S
H570 C556 0.960 . S
H571 C557 0.961 . S
H572 C557 0.961 . S
H573 C557 0.961 . S
H574 C558 0.931 . S
H575 C563 0.930 . S
H576 C564 0.956 . S
H577 C564 0.961 . S
H578 C564 0.961 . S
H579 C565 0.958 . S
H580 C565 0.961 . S
H581 C565 0.960 . S
C582 C583 1.391 . S
C582 C584 1.394 . S
C582 H598 0.931 . S
C583 C582 1.391 . S
C583 C587 1.396 . S
C584 C582 1.394 . S
C584 C585 1.369 . S
C584 C588 1.531 1_455 S
C585 C584 1.369 . S
C585 C586 1.393 1_545 S
C585 C593 1.503 1_554 S
C586 C585 1.393 1_565 S
C586 C587 1.393 1_565 S
C586 C589 1.528 . S
C587 C583 1.396 . S
C587 C586 1.393 1_545 S
C587 H599 0.909 1_545 S
C588 C584 1.531 1_655 S
C588 H600 0.960 1_654 S
C588 H601 0.962 . S
C588 H602 0.960 1_655 S
C589 C586 1.528 . S
C589 H603 0.961 . S
C589 H604 0.961 1_554 S
C589 H605 0.961 . S
C590 C591 1.370 1_565 S
C590 C592 1.363 . S
C590 H606 0.931 . S
C591 C590 1.370 1_545 S
C591 C595 1.408 1_655 S
C592 C590 1.363 . S
C592 C593 1.370 1_665 S
C592 C596 1.524 . S
C593 C585 1.503 1_556 S
C593 C592 1.370 1_445 S
C593 C594 1.403 . S
C594 C593 1.403 . S
C594 C595 1.404 . S
C594 C597 1.539 . S
C595 C591 1.408 1_455 S
C595 C594 1.404 . S
C595 H607 0.930 . S
C596 C592 1.524 . S
C596 H608 0.956 . S
C596 H609 0.968 . S
C596 H610 0.961 . S
C597 C594 1.539 . S
C597 H611 0.958 . S
C597 H612 0.961 . S
C597 H613 0.960 1_556 S
H598 C582 0.931 . S
H599 C587 0.909 1_565 S
H600 C588 0.960 1_456 S
H601 C588 0.962 . S
H602 C588 0.960 1_455 S
H603 C589 0.961 . S
H604 C589 0.961 1_556 S
H605 C589 0.961 . S
H606 C590 0.931 . S
H607 C595 0.930 . S
H608 C596 0.956 . S
H609 C596 0.968 . S
H610 C596 0.961 . S
H611 C597 0.958 . S
H612 C597 0.961 . S
H613 C597 0.960 1_554 S
C614 C615 1.391 . S
C614 C616 1.394 . S
C614 H630 0.931 . S
C615 C614 1.391 . S
C615 C619 1.376 . S
C616 C614 1.394 . S
C616 C617 1.369 . S
C616 C620 1.531 . S
C617 C616 1.369 . S
C617 C618 1.410 . S
C617 C625 1.503 . S
C618 C617 1.410 . S
C618 C619 1.392 . S
C618 C621 1.511 . S
C619 C615 1.376 . S
C619 C618 1.392 . S
C619 H631 0.929 . S
C620 C616 1.531 . S
C620 H632 0.960 . S
C620 H633 0.962 . S
C620 H634 0.960 . S
C621 C618 1.511 . S
C621 H635 0.961 . S
C621 H636 0.961 . S
C621 H637 0.961 . S
C622 C623 1.370 . S
C622 C624 1.363 . S
C622 H638 0.931 . S
C623 C622 1.370 . S
C623 C627 1.408 . S
C624 C622 1.363 . S
C624 C625 1.370 . S
C624 C628 1.524 . S
C625 C617 1.503 . S
C625 C624 1.370 . S
C625 C626 1.403 . S
C626 C625 1.403 . S
C626 C627 1.404 . S
C626 C629 1.539 . S
C627 C623 1.408 . S
C627 C626 1.404 . S
C627 H639 0.930 . S
C628 C624 1.524 . S
C628 H640 0.956 . S
C628 H641 0.961 . S
C628 H642 0.961 . S
C629 C626 1.539 . S
C629 H643 0.958 . S
C629 H644 0.961 . S
C629 H645 0.960 . S
H630 C614 0.931 . S
H631 C619 0.929 . S
H632 C620 0.960 . S
H633 C620 0.962 . S
H634 C620 0.960 . S
H635 C621 0.961 . S
H636 C621 0.961 . S
H637 C621 0.961 . S
H638 C622 0.931 . S
H639 C627 0.930 . S
H640 C628 0.956 . S
H641 C628 0.961 . S
H642 C628 0.961 . S
H643 C629 0.958 . S
H644 C629 0.961 . S
H645 C629 0.960 . S
C646 C647 1.391 . S
C646 C648 1.394 . S
C646 H662 0.931 . S
C647 C646 1.391 . S
C647 C651 1.376 . S
C648 C646 1.394 . S
C648 C649 1.369 . S
C648 C652 1.531 . S
C649 C648 1.369 . S
C649 C650 1.410 . S
C649 C657 1.503 . S
C650 C649 1.410 . S
C650 C651 1.392 . S
C650 C653 1.511 . S
C651 C647 1.376 . S
C651 C650 1.392 . S
C651 H663 0.929 . S
C652 C648 1.531 . S
C652 H664 0.960 . S
C652 H665 0.962 . S
C652 H666 0.960 . S
C653 C650 1.511 . S
C653 H667 0.961 . S
C653 H668 0.961 . S
C653 H669 0.961 . S
C654 C655 1.370 . S
C654 C656 1.363 . S
C654 H670 0.931 . S
C655 C654 1.370 . S
C655 C659 1.408 . S
C656 C654 1.363 . S
C656 C657 1.370 . S
C656 C660 1.524 . S
C657 C649 1.503 . S
C657 C656 1.370 . S
C657 C658 1.403 . S
C658 C657 1.403 . S
C658 C659 1.404 . S
C658 C661 1.539 . S
C659 C655 1.408 . S
C659 C658 1.404 . S
C659 H671 0.930 . S
C660 C656 1.524 . S
C660 H672 0.956 . S
C660 H673 0.961 . S
C660 H674 0.961 . S
C661 C658 1.539 . S
C661 H675 0.958 . S
C661 H676 0.961 . S
C661 H677 0.960 . S
H662 C646 0.931 . S
H663 C651 0.929 . S
H664 C652 0.960 . S
H665 C652 0.962 . S
H666 C652 0.960 . S
H667 C653 0.961 . S
H668 C653 0.961 . S
H669 C653 0.961 . S
H670 C654 0.931 . S
H671 C659 0.930 . S
H672 C660 0.956 . S
H673 C660 0.961 . S
H674 C660 0.961 . S
H675 C661 0.958 . S
H676 C661 0.961 . S
H677 C661 0.960 . S
C199 C8 1.916 . S
C207 C107 1.942 . S
C231 C28 1.571 . S
C239 C116 1.595 . S
C263 C127 1.564 . S
C271 C17 1.597 . S
C295 C61 1.578 . S
C303 C149 1.594 . S
C327 C140 1.916 . S
C335 C41 1.942 . S
C359 C50 1.583 . S
C367 C160 1.571 . S
C391 C74 1.916 . S
C399 C173 1.942 . S
C423 C94 1.554 . S
C431 C182 1.599 . S
C455 C193 1.530 . S
C463 C83 1.603 . S
C487 N38 2.211 1_455 S
C495 N5 2.198 . S
C519 N104 2.188 . S
C527 N71 2.207 . S
C551 N170 2.186 . S
C559 N137 2.209 . S
C583 N14 0.698 . S
C591 N47 0.581 1_655 S
C615 N113 0.622 . S
C623 N80 0.610 . S
C647 N179 0.634 . S
C655 N146 0.621 . S
