# Generated by pormake.
# Topology wkx, (5)-cn, num edge types: 1
# Building blocks:
#     Node 0, Type 0, BuildingBlock: BEQFEK_clean_sbu_0, # of connection points: 5
#     Node 1, Type 0, BuildingBlock: BEQFEK_clean_sbu_0, # of connection points: 5
#     Node 2, Type 0, BuildingBlock: BEQFEK_clean_sbu_0, # of connection points: 5
#     Node 3, Type 0, BuildingBlock: BEQFEK_clean_sbu_0, # of connection points: 5
#     Node 4, Type 0, BuildingBlock: BEQFEK_clean_sbu_0, # of connection points: 5
#     Node 5, Type 0, BuildingBlock: BEQFEK_clean_sbu_0, # of connection points: 5
#     Node 6, Type 0, BuildingBlock: BEQFEK_clean_sbu_0, # of connection points: 5
#     Node 7, Type 0, BuildingBlock: BEQFEK_clean_sbu_0, # of connection points: 5
#     Node 8, Type 0, BuildingBlock: BEQFEK_clean_sbu_0, # of connection points: 5
#     Node 9, Type 0, BuildingBlock: BEQFEK_clean_sbu_0, # of connection points: 5
#     Node 10, Type 0, BuildingBlock: BEQFEK_clean_sbu_0, # of connection points: 5
#     Node 11, Type 0, BuildingBlock: BEQFEK_clean_sbu_0, # of connection points: 5
#     Edge 12, Type (0, 0), None
#     Edge 13, Type (0, 0), None
#     Edge 14, Type (0, 0), None
#     Edge 15, Type (0, 0), None
#     Edge 16, Type (0, 0), None
#     Edge 17, Type (0, 0), None
#     Edge 18, Type (0, 0), None
#     Edge 19, Type (0, 0), None
#     Edge 20, Type (0, 0), None
#     Edge 21, Type (0, 0), None
#     Edge 22, Type (0, 0), None
#     Edge 23, Type (0, 0), None
#     Edge 24, Type (0, 0), None
#     Edge 25, Type (0, 0), None
#     Edge 26, Type (0, 0), None
#     Edge 27, Type (0, 0), None
#     Edge 28, Type (0, 0), None
#     Edge 29, Type (0, 0), None
#     Edge 30, Type (0, 0), None
#     Edge 31, Type (0, 0), None
#     Edge 32, Type (0, 0), None
#     Edge 33, Type (0, 0), None
#     Edge 34, Type (0, 0), None
#     Edge 35, Type (0, 0), None
#     Edge 36, Type (0, 0), None
#     Edge 37, Type (0, 0), None
#     Edge 38, Type (0, 0), None
#     Edge 39, Type (0, 0), None
#     Edge 40, Type (0, 0), None
#     Edge 41, Type (0, 0), None
# Relax obj value: 0.513
# Max RMSD: 0.268
# Mean RMSD: 0.268
data_MOF--net-wkx--node1-BEQFEK_clean_sbu_0--edge1-none
_symmetry_space_group_name_H-M    P1
_symmetry_Int_Tables_number       1
_symmetry_cell_setting            triclinic
loop_
_symmetry_equiv_pos_as_xyz
'x, y, z'
_cell_length_a     18.891124
_cell_length_b     18.891479
_cell_length_c     34.78691
_cell_angle_alpha  90.001095
_cell_angle_beta   89.999454
_cell_angle_gamma 120.00238
loop_
_atom_site_label
_atom_site_type_symbol
_atom_site_fract_x
_atom_site_fract_y
_atom_site_fract_z
_atom_type_partial_charge
Co0 Co 0.23142 0.15606 0.44631 0.0
Co1 Co 0.40447 0.20655 0.46401 0.0
C2 C 0.30428 0.28996 0.49201 0.0
O3 O 0.26204 0.26648 0.46174 0.0
O4 O 0.35763 0.26789 0.49746 0.0
C5 C 0.05222 0.10375 0.43474 0.0
O6 O 0.05527 0.17305 0.44293 0.0
C7 C 0.56381 0.34241 0.44233 0.0
C8 C 0.64922 0.30144 0.46093 0.0
C9 C 0.64582 0.3643 0.44204 0.0
N10 N 0.52118 0.27071 0.4609 0.0
N11 N 0.57266 0.24672 0.47218 0.0
C12 C 0.52447 0.38313 0.42157 0.0
H13 H 0.46142 0.33724 0.41278 0.0
H14 H 0.56078 0.41675 0.39596 0.0
H15 H 0.5201 0.4269 0.44131 0.0
C16 C 0.26118 0.10637 0.37299 0.0
N17 N 0.28988 0.152 0.40482 0.0
N18 N 0.36374 0.16624 0.41231 0.0
C19 C 0.38433 0.12815 0.38495 0.0
C20 C 0.3195 0.08859 0.35885 0.0
C21 C 0.17335 0.06645 0.3617 0.0
H22 H 0.13653 1.01503 0.38161 0.0
H23 H 0.15169 0.11118 0.36321 0.0
H24 H 0.16412 0.04173 0.33259 0.0
O25 O 0.24159 0.08643 0.48745 0.0
O26 O 0.36716 0.10564 0.49415 0.0
H27 H 0.46196 0.09392 0.41426 0.0
H28 H 0.46241 0.08488 0.36227 0.0
C29 C 0.46001 0.12188 0.3865 0.0
H30 H 0.51431 0.18421 0.38554 0.0
H31 H 0.55515 0.19157 0.48623 0.0
O32 O 0.11578 0.09715 0.4349 0.0
C33 C 0.29111 0.06644 0.50214 0.0
Co34 Co 0.10721 0.21549 0.61298 0.0
Co35 Co 0.22976 0.38853 0.63067 0.0
C36 C 1.04617 0.28835 0.65867 0.0
O37 O 1.0274 0.2461 0.6284 0.0
O38 O 0.12159 0.34169 0.66412 0.0
C39 C 0.98031 0.03628 0.60141 0.0
O40 O 0.91404 0.03931 0.60959 0.0
C41 C 0.25324 0.54786 0.60899 0.0
C42 C 0.37963 0.63328 0.6276 0.0
C43 C 0.31337 0.62988 0.60871 0.0
N44 N 0.28231 0.50524 0.62757 0.0
N45 N 0.35779 0.55672 0.63884 0.0
C46 C 0.17318 0.50852 0.58824 0.0
H47 H 0.15602 0.44547 0.57944 0.0
H48 H 0.17586 0.54483 0.56263 0.0
H49 H 0.12503 0.50415 0.60798 0.0
C50 C 0.18667 0.24521 0.53966 0.0
N51 N 0.16973 0.27394 0.57148 0.0
N52 N 0.22934 0.34779 0.57897 0.0
C53 C 0.28805 0.36837 0.55163 0.0
C54 C 0.26282 0.30352 0.52555 0.0
C55 C 0.13877 0.15739 0.52838 0.0
H56 H 0.15335 0.12057 0.54829 0.0
H57 H 0.07236 0.13572 0.52988 0.0
H58 H 0.15427 0.14816 0.49927 0.0
O59 O 0.18701 0.22566 0.65412 0.0
O60 O 0.29337 0.35123 0.66081 0.0
H61 H 0.3999 0.44601 0.58093 0.0
H62 H 0.4094 0.44647 0.52895 0.0
C63 C 0.36999 0.44406 0.55318 0.0
H64 H 0.36196 0.49836 0.55221 0.0
H65 H 0.39543 0.53921 0.65289 0.0
O66 O 0.05046 0.09984 0.60157 0.0
C67 C 0.25652 0.27518 0.6688 0.0
Co68 Co 0.92358 0.09128 0.77964 0.0
Co69 Co 0.87309 0.21383 0.79734 0.0
C70 C 0.78968 1.03024 0.82534 0.0
O71 O 0.81315 1.01147 0.79507 0.0
O72 O 0.81175 0.10566 0.83079 0.0
C73 C 0.97588 0.96438 0.76808 0.0
O74 O 0.90659 0.89813 0.77626 0.0
C75 C 0.73724 0.23731 0.77566 0.0
C76 C 0.77822 0.3637 0.79427 0.0
C77 C 0.71536 0.29744 0.77537 0.0
N78 N 0.80894 0.26638 0.79424 0.0
N79 N 0.83294 0.34185 0.80552 0.0
C80 C 0.69652 0.15726 0.7549 0.0
H81 H 0.7424 0.1401 0.7461 0.0
H82 H 0.66289 0.15995 0.72929 0.0
H83 H 0.65274 0.10911 0.77464 0.0
C84 C 0.9733 0.17074 0.70633 0.0
N85 N 0.92764 0.1538 0.73815 0.0
N86 N 0.9134 0.21341 0.74564 0.0
C87 C 0.95152 0.27211 0.71829 0.0
C88 C 0.99114 0.24688 0.69222 0.0
C89 C 1.01323 0.12284 0.69505 0.0
H90 H 0.06464 0.13743 0.71495 0.0
H91 H 0.96849 0.05644 0.69655 0.0
H92 H 1.03796 0.13834 0.66593 0.0
O93 O 0.99322 0.17109 0.82078 0.0
O94 O 0.97401 0.27744 0.82748 0.0
H95 H 0.98574 0.38396 0.7476 0.0
H96 H 0.99479 0.39346 0.69562 0.0
C97 C 0.95778 0.35405 0.71984 0.0
H98 H 0.89545 0.34602 0.71888 0.0
H99 H 0.88809 0.37949 0.81956 0.0
O100 O 0.98248 0.03454 0.76823 0.0
C101 C 1.01321 0.24059 0.83547 0.0
Co102 Co 0.86417 0.90767 0.94631 0.0
Co103 Co 0.69114 0.85718 0.96402 0.0
C104 C 0.79132 0.77377 0.99201 0.0
O105 O 0.83356 0.79725 0.96174 0.0
O106 O 0.73797 0.79585 0.99746 0.0
C107 C 1.04338 0.95998 0.93474 0.0
O108 O 1.04035 0.89069 0.94293 0.0
C109 C 0.5318 0.72132 0.94233 0.0
C110 C 0.44639 0.7623 0.96094 0.0
C111 C 0.44979 0.69944 0.94204 0.0
N112 N 0.57443 0.79302 0.96091 0.0
N113 N 0.52295 0.81701 0.97219 0.0
C114 C 0.57114 0.68061 0.92157 0.0
H115 H 0.63419 0.7265 0.91278 0.0
H116 H 0.53483 0.64698 0.89597 0.0
H117 H 0.57551 0.63683 0.94131 0.0
C118 C 0.83444 0.95739 0.873 0.0
N119 N 0.80572 0.91173 0.90482 0.0
N120 N 0.73186 0.89749 0.91231 0.0
C121 C 0.71128 0.9356 0.88497 0.0
C122 C 0.77613 0.97522 0.85889 0.0
C123 C 0.92226 0.99731 0.86171 0.0
H124 H 0.95909 0.04872 0.88162 0.0
H125 H 0.94392 0.95257 0.86321 0.0
H126 H 0.93149 1.02204 0.8326 0.0
O127 O 0.85401 0.97731 0.98745 0.0
O128 O 0.72844 0.95809 0.99415 0.0
H129 H 0.63364 0.96981 0.91428 0.0
H130 H 0.63319 0.97886 0.86229 0.0
C131 C 0.63559 0.94186 0.88652 0.0
H132 H 0.58129 0.87953 0.88555 0.0
H133 H 0.54046 0.87216 0.98624 0.0
O134 O 0.97982 0.96657 0.9349 0.0
C135 C 0.8045 0.9973 1.00214 0.0
Co136 Co 0.9884 0.84827 0.11298 0.0
Co137 Co 0.86585 0.67523 0.13068 0.0
C138 C 0.04944 0.77541 0.15868 0.0
O139 O 0.06821 0.81765 0.12841 0.0
O140 O 0.97402 0.72206 0.16413 0.0
C141 C 0.1153 1.02748 0.10141 0.0
O142 O 0.18156 1.02445 0.1096 0.0
C143 C 0.84237 0.51589 0.10899 0.0
C144 C 0.71598 0.43048 0.1276 0.0
C145 C 0.78224 0.43388 0.10871 0.0
N146 N 0.81329 0.55852 0.12757 0.0
N147 N 0.73782 0.50704 0.13885 0.0
C148 C 0.92243 0.55523 0.08824 0.0
H149 H 0.93959 0.61828 0.07945 0.0
H150 H 0.91975 0.51892 0.06263 0.0
H151 H 0.97057 0.5596 0.10798 0.0
C152 C 0.90894 0.81853 0.03967 0.0
N153 N 0.92588 0.78981 0.07148 0.0
N154 N 0.86627 0.71596 0.07897 0.0
C155 C 0.80756 0.69537 0.05163 0.0
C156 C 0.83279 0.76022 0.02555 0.0
C157 C 0.95683 0.90635 0.02838 0.0
H158 H 0.94225 0.94317 0.04829 0.0
H159 H 1.02324 0.92802 0.02988 0.0
H160 H 0.94133 0.91558 0.99927 0.0
O161 O 0.9086 0.8381 0.15412 0.0
O162 O 0.80224 0.71253 0.16081 0.0
H163 H 0.69571 0.61773 0.08094 0.0
H164 H 0.6862 0.61728 0.02896 0.0
C165 C 0.72561 0.61968 0.05318 0.0
H166 H 0.73364 0.56539 0.05222 0.0
H167 H 0.70018 0.52454 0.15289 0.0
O168 O 1.04515 0.96391 0.10157 0.0
C169 C 0.83909 0.78859 0.16881 0.0
Co170 Co 0.17201 0.97248 0.27965 0.0
Co171 Co 0.22253 0.84996 0.29735 0.0
C172 C 0.30593 0.03354 0.32532 0.0
O173 O 0.28243 0.05232 0.29506 0.0
O174 O 0.28388 0.95814 0.3308 0.0
C175 C 0.11971 0.09937 0.26808 0.0
O176 O 0.18901 0.16562 0.27626 0.0
C177 C 0.35838 0.82647 0.27566 0.0
C178 C 0.31739 0.70008 0.29427 0.0
C179 C 0.38025 0.76633 0.27537 0.0
N180 N 0.28668 0.7974 0.29424 0.0
N181 N 0.26268 0.72193 0.30552 0.0
C182 C 0.39909 0.90652 0.2549 0.0
H183 H 0.3532 0.92368 0.24611 0.0
H184 H 0.43272 0.90383 0.22929 0.0
H185 H 0.44287 0.95467 0.27464 0.0
C186 C 0.1223 0.89302 0.20633 0.0
N187 N 0.16795 0.90997 0.23815 0.0
N188 N 0.1822 0.85036 0.24564 0.0
C189 C 0.14409 0.79166 0.2183 0.0
C190 C 0.10446 0.81688 0.19222 0.0
C191 C 0.08237 0.94091 0.19505 0.0
H192 H 1.03096 0.92632 0.21495 0.0
H193 H 0.12711 1.00732 0.19655 0.0
H194 H 0.05765 0.92542 0.16593 0.0
O195 O 0.10239 0.89267 0.32079 0.0
O196 O 0.12163 0.78634 0.32749 0.0
H197 H 0.10989 0.67981 0.24761 0.0
H198 H 0.10082 0.6703 0.19563 0.0
C199 C 0.13784 0.70972 0.21985 0.0
H200 H 0.20017 0.71776 0.21888 0.0
H201 H 0.20753 0.68429 0.31957 0.0
O202 O 0.1131 1.02921 0.26823 0.0
C203 C 0.08241 0.82318 0.33548 0.0
Co204 Co 0.92364 0.8483 0.41822 0.0
Co205 Co 0.87312 0.67525 0.40053 0.0
C206 C 0.78973 0.77543 0.37253 0.0
O207 O 0.81321 0.81768 0.40279 0.0
O208 O 0.81179 0.72208 0.36708 0.0
C209 C 0.97596 1.02751 0.42977 0.0
O210 O 0.90671 1.0245 0.42153 0.0
C211 C 0.73732 0.51593 0.42229 0.0
C212 C 0.77821 0.43049 0.4036 0.0
C213 C 0.71545 0.43393 0.42259 0.0
N214 N 0.80895 0.55854 0.40365 0.0
N215 N 0.83289 0.50704 0.39233 0.0
C216 C 0.69668 0.55529 0.44309 0.0
H217 H 0.7426 0.61832 0.45189 0.0
H218 H 0.66308 0.51897 0.4687 0.0
H219 H 0.65289 0.5597 0.42338 0.0
C220 C 0.97332 0.81855 0.49155 0.0
N221 N 0.92769 0.78985 0.45972 0.0
N222 N 0.91345 0.71599 0.45223 0.0
C223 C 0.95153 0.6954 0.47959 0.0
C224 C 0.99109 0.76022 0.50569 0.0
C225 C 1.01326 0.90638 0.50283 0.0
H226 H 0.06467 0.94319 0.48292 0.0
H227 H 0.96852 0.92805 0.50132 0.0
H228 H 1.03798 0.91561 0.53195 0.0
O229 O 0.99327 0.83812 0.37709 0.0
O230 O 0.97403 0.71254 0.37039 0.0
H231 H 0.98569 0.61772 0.45028 0.0
H232 H 0.99481 0.61733 0.50226 0.0
C233 C 0.95778 0.61971 0.47804 0.0
H234 H 0.89545 0.56542 0.47903 0.0
H235 H 0.88798 0.52453 0.37822 0.0
O236 O 0.98255 0.96395 0.42964 0.0
C237 C 1.01325 0.78859 0.3624 0.0
Co238 Co 0.10719 0.90772 0.58489 0.0
Co239 Co 0.22971 0.85717 0.5672 0.0
C240 C 1.04613 0.77379 0.53923 0.0
O241 O 1.02735 0.7973 0.56948 0.0
O242 O 0.12153 0.79582 0.53375 0.0
C243 C 0.98031 0.96004 0.59644 0.0
O244 O 0.91407 0.89077 0.5882 0.0
C245 C 0.25323 0.72137 0.58896 0.0
C246 C 0.37955 0.76226 0.57027 0.0
C247 C 0.31337 0.69951 0.58926 0.0
N248 N 0.28225 0.793 0.57032 0.0
N249 N 0.35768 0.81694 0.559 0.0
C250 C 0.17322 0.68072 0.60976 0.0
H251 H 0.15612 0.72665 0.61856 0.0
H252 H 0.17595 0.64712 0.63537 0.0
H253 H 0.12501 0.63694 0.59005 0.0
C254 C 0.18663 0.9574 0.65822 0.0
N255 N 0.1697 0.91177 0.62639 0.0
N256 N 0.2293 0.89751 0.6189 0.0
C257 C 0.28799 0.9356 0.64626 0.0
C258 C 0.26274 0.97517 0.67235 0.0
C259 C 0.13875 0.99734 0.6695 0.0
H260 H 0.15335 0.04875 0.64959 0.0
H261 H 0.07234 0.95261 0.66799 0.0
H262 H 0.15423 1.02205 0.69862 0.0
O263 O 0.18702 0.97733 0.54375 0.0
O264 O 0.29334 0.95806 0.53706 0.0
H265 H 0.39983 0.96975 0.61695 0.0
H266 H 0.40935 0.97888 0.66893 0.0
C267 C 0.36993 0.94184 0.64471 0.0
H268 H 0.36188 0.87951 0.6457 0.0
H269 H 0.39528 0.87202 0.54489 0.0
O270 O 0.05047 0.96664 0.59631 0.0
C271 C 0.25651 0.99729 0.52907 0.0
Co272 Co 0.23134 0.09128 0.75156 0.0
Co273 Co 0.40441 0.2138 0.73386 0.0
C274 C 0.30422 1.03021 0.70589 0.0
O275 O 0.26193 1.01144 0.73615 0.0
O276 O 0.35758 0.10562 0.70041 0.0
C277 C 0.05213 0.96439 0.76311 0.0
O278 O 0.05516 0.89815 0.75487 0.0
C279 C 0.56372 0.23731 0.75562 0.0
C280 C 0.64917 0.36363 0.73694 0.0
C281 C 0.64573 0.29745 0.75592 0.0
N282 N 0.52112 0.26634 0.73698 0.0
N283 N 0.57263 0.34177 0.72566 0.0
C284 C 0.52436 0.1573 0.77642 0.0
H285 H 0.46133 0.1402 0.78522 0.0
H286 H 0.56068 0.16002 0.80203 0.0
H287 H 0.51994 0.1091 0.75671 0.0
C288 C 0.26111 0.17071 0.82488 0.0
N289 N 0.28981 0.15379 0.79305 0.0
N290 N 0.36367 0.21339 0.78556 0.0
C291 C 0.38427 0.27208 0.81291 0.0
C292 C 0.31945 0.24683 0.83901 0.0
C293 C 0.17328 0.12283 0.83616 0.0
H294 H 0.13647 0.13743 0.81626 0.0
H295 H 0.1516 0.05642 0.83465 0.0
H296 H 0.16405 0.13832 0.86528 0.0
O297 O 0.24155 0.17109 0.71042 0.0
O298 O 0.36715 0.27742 0.70372 0.0
H299 H 0.46196 0.38391 0.7836 0.0
H300 H 0.46235 0.39344 0.83559 0.0
C301 C 0.45997 0.35402 0.81137 0.0
H302 H 0.51425 0.34598 0.81236 0.0
H303 H 0.55514 0.37937 0.71156 0.0
O304 O 0.11569 0.03455 0.76297 0.0
C305 C 0.29109 0.24059 0.69573 0.0
Co306 Co 0.17195 0.21543 0.91822 0.0
Co307 Co 0.2225 0.38849 0.90052 0.0
C308 C 0.30588 0.28831 0.87255 0.0
O309 O 0.28237 0.24602 0.90281 0.0
O310 O 0.28384 0.34167 0.86708 0.0
C311 C 0.11963 0.03623 0.92977 0.0
O312 O 0.18889 0.03925 0.92153 0.0
C313 C 0.35829 0.54781 0.92229 0.0
C314 C 0.31741 0.63324 0.9036 0.0
C315 C 0.38016 0.62981 0.92259 0.0
N316 N 0.28666 0.5052 0.90365 0.0
N317 N 0.26273 0.5567 0.89232 0.0
C318 C 0.39893 0.50845 0.94309 0.0
H319 H 0.35301 0.44541 0.95188 0.0
H320 H 0.43253 0.54477 0.9687 0.0
H321 H 0.44272 0.50403 0.92338 0.0
C322 C 0.12229 0.24519 0.99155 0.0
N323 N 0.16791 0.27389 0.95972 0.0
N324 N 0.18216 0.34775 0.95223 0.0
C325 C 0.14408 0.36835 0.97958 0.0
C326 C 0.10452 0.30353 1.00568 0.0
C327 C 0.08235 0.15737 1.00283 0.0
H328 H 1.03092 0.12056 0.98293 0.0
H329 H 0.12707 0.1357 1.00132 0.0
H330 H 0.05763 0.14815 0.03195 0.0
O331 O 0.10233 0.22563 0.87708 0.0
O332 O 0.1216 0.35122 0.87038 0.0
H333 H 0.10994 0.44604 0.95027 0.0
H334 H 0.1008 0.44643 1.00225 0.0
C335 C 0.13784 0.44404 0.97804 0.0
H336 H 0.20017 0.49833 0.97903 0.0
H337 H 0.20765 0.53921 0.87822 0.0
O338 O 0.11303 0.09979 0.92964 0.0
C339 C 0.08237 0.27516 0.86239 0.0
Co340 Co 0.98841 0.15604 0.08489 0.0
Co341 Co 0.8659 0.20659 0.06719 0.0
C342 C 0.04948 0.28997 0.03922 0.0
O343 O 0.06826 0.26646 0.06948 0.0
O344 O 0.97407 0.26793 0.03375 0.0
C345 C 0.1153 0.10372 0.09644 0.0
O346 O 0.18154 0.17298 0.0882 0.0
C347 C 0.84238 0.34238 0.08896 0.0
C348 C 0.71606 0.3015 0.07027 0.0
C349 C 0.78224 0.36425 0.08925 0.0
N350 N 0.81336 0.27075 0.07032 0.0
N351 N 0.73792 0.24682 0.05899 0.0
C352 C 0.92239 0.38303 0.10976 0.0
H353 H 0.93949 0.33711 0.11856 0.0
H354 H 0.91966 0.41663 0.13537 0.0
H355 H 0.97059 0.42682 0.09005 0.0
C356 C 0.90898 0.10637 0.15821 0.0
N357 N 0.92591 0.152 0.12639 0.0
N358 N 0.8663 0.16625 0.1189 0.0
C359 C 0.80762 0.12817 0.14625 0.0
C360 C 0.83287 0.0886 0.17235 0.0
C361 C 0.95686 0.06643 0.1695 0.0
H362 H 0.94225 1.01501 0.14959 0.0
H363 H 1.02327 0.11116 0.16799 0.0
H364 H 0.94137 0.04172 0.19861 0.0
O365 O 0.90859 0.08642 0.04375 0.0
O366 O 0.80227 0.10569 0.03705 0.0
H367 H 0.69578 0.09402 0.11694 0.0
H368 H 0.68625 0.08489 0.16892 0.0
C369 C 0.72568 0.12192 0.14471 0.0
H370 H 0.73372 0.18425 0.1457 0.0
H371 H 0.70033 0.19173 0.04489 0.0
O372 O 1.04514 0.09712 0.09631 0.0
C373 C 0.83909 0.06646 0.02906 0.0
Co374 Co 0.86425 0.9725 0.25155 0.0
Co375 Co 0.69119 0.84998 0.23385 0.0
C376 C 0.79139 0.03356 0.20589 0.0
O377 O 0.83367 0.05233 0.23614 0.0
O378 O 0.73802 0.95815 0.20041 0.0
C379 C 1.04347 0.09938 0.26311 0.0
O380 O 1.04046 0.16563 0.25487 0.0
C381 C 0.53188 0.82646 0.25562 0.0
C382 C 0.44643 0.70014 0.23693 0.0
C383 C 0.44987 0.76633 0.25592 0.0
N384 N 0.57448 0.79744 0.23698 0.0
N385 N 0.52298 0.72201 0.22565 0.0
C386 C 0.57125 0.90647 0.27641 0.0
H387 H 0.63428 0.92358 0.28521 0.0
H388 H 0.53493 0.90375 0.30202 0.0
H389 H 0.57567 0.95468 0.2567 0.0
C390 C 0.83451 0.89304 0.32487 0.0
N391 N 0.80579 0.90998 0.29305 0.0
N392 N 0.73193 0.85038 0.28556 0.0
C393 C 0.71134 0.79168 0.3129 0.0
C394 C 0.77619 0.8169 0.33898 0.0
C395 C 0.92233 0.94093 0.33615 0.0
H396 H 0.95915 0.92633 0.31625 0.0
H397 H 0.94401 1.00733 0.33465 0.0
H398 H 0.93155 0.92543 0.36527 0.0
O399 O 0.85405 0.89268 0.21041 0.0
O400 O 0.72846 0.78635 0.20372 0.0
H401 H 0.63363 0.67986 0.28358 0.0
H402 H 0.63325 0.67032 0.33557 0.0
C403 C 0.63563 0.70975 0.31135 0.0
H404 H 0.58135 0.7178 0.31235 0.0
H405 H 0.54046 0.68441 0.21155 0.0
O406 O 0.9799 1.02923 0.26297 0.0
C407 C 0.80452 0.82318 0.19573 0.0
loop_
_geom_bond_atom_site_label_1
_geom_bond_atom_site_label_2
_geom_bond_distance
_geom_bond_site_symmetry_2
_ccdc_geom_bond_type
Co0 O3 1.970 . S
Co0 N17 1.989 . S
Co0 O25 1.967 . S
Co0 O32 1.920 1_545 S
Co1 O4 1.966 . S
Co1 N10 2.022 . S
Co1 N18 1.993 . S
Co1 O26 1.941 . S
C2 O3 1.258 . S
C2 O4 1.263 . S
O3 Co0 1.970 . S
O3 C2 1.258 . S
O4 Co1 1.966 . S
O4 C2 1.263 . S
C5 O6 1.235 1_565 S
C5 O32 1.289 . S
O6 C5 1.235 1_545 S
C7 C9 1.400 . S
C7 N10 1.351 . S
C7 C12 1.501 . S
C8 C9 1.387 . S
C8 N11 1.341 . S
C9 C7 1.400 . S
C9 C8 1.387 . S
N10 Co1 2.022 . S
N10 C7 1.351 . S
N10 N11 1.365 . S
N11 C8 1.341 . S
N11 N10 1.365 . S
N11 H31 0.862 . S
C12 C7 1.501 . S
C12 H13 0.961 . S
C12 H14 0.961 . S
C12 H15 0.960 . S
H13 C12 0.961 . S
H14 C12 0.961 . S
H15 C12 0.960 . S
C16 N17 1.342 . S
C16 C20 1.401 . S
C16 C21 1.499 1_545 S
N17 Co0 1.989 . S
N17 C16 1.342 . S
N17 N18 1.388 . S
N18 Co1 1.993 . S
N18 N17 1.388 . S
N18 C19 1.346 . S
C19 N18 1.346 . S
C19 C20 1.396 . S
C19 C29 1.510 . S
C20 C16 1.401 . S
C20 C19 1.396 . S
C21 C16 1.499 1_565 S
C21 H22 0.959 . S
C21 H23 0.960 1_565 S
C21 H24 0.961 . S
H22 C21 0.959 . S
H23 C21 0.960 1_545 S
H24 C21 0.961 . S
O25 Co0 1.967 . S
O25 C33 1.258 . S
O26 Co1 1.941 . S
O26 C33 1.266 . S
H27 C29 0.959 . S
H28 C29 0.961 . S
C29 C19 1.510 . S
C29 H27 0.959 . S
C29 H28 0.961 . S
C29 H30 0.960 . S
H30 C29 0.960 . S
H31 N11 0.862 . S
O32 Co0 1.920 1_565 S
O32 C5 1.289 . S
C33 O25 1.258 . S
C33 O26 1.266 . S
Co34 O37 1.970 . S
Co34 N51 1.989 . S
Co34 O59 1.967 . S
Co34 O66 1.920 . S
Co35 O38 1.966 . S
Co35 N44 2.022 . S
Co35 N52 1.993 . S
Co35 O60 1.941 . S
C36 O37 1.258 1_655 S
C36 O38 1.263 1_655 S
O37 Co34 1.970 . S
O37 C36 1.258 1_455 S
O38 Co35 1.966 . S
O38 C36 1.263 1_455 S
C39 O40 1.235 1_455 S
C39 O66 1.289 . S
O40 C39 1.235 1_655 S
C41 C43 1.400 . S
C41 N44 1.351 . S
C41 C46 1.501 . S
C42 C43 1.387 . S
C42 N45 1.341 . S
C43 C41 1.400 . S
C43 C42 1.387 . S
N44 Co35 2.022 . S
N44 C41 1.351 . S
N44 N45 1.365 . S
N45 C42 1.341 . S
N45 N44 1.365 . S
N45 H65 0.862 . S
C46 C41 1.501 . S
C46 H47 0.961 . S
C46 H48 0.961 . S
C46 H49 0.960 . S
H47 C46 0.961 . S
H48 C46 0.961 . S
H49 C46 0.960 . S
C50 N51 1.342 . S
C50 C54 1.401 . S
C50 C55 1.499 . S
N51 Co34 1.989 . S
N51 C50 1.342 . S
N51 N52 1.388 . S
N52 Co35 1.993 . S
N52 N51 1.388 . S
N52 C53 1.346 . S
C53 N52 1.346 . S
C53 C54 1.396 . S
C53 C63 1.510 . S
C54 C50 1.401 . S
C54 C53 1.396 . S
C55 C50 1.499 . S
C55 H56 0.959 . S
C55 H57 0.960 . S
C55 H58 0.961 . S
H56 C55 0.959 . S
H57 C55 0.960 . S
H58 C55 0.961 . S
O59 Co34 1.967 . S
O59 C67 1.258 . S
O60 Co35 1.941 . S
O60 C67 1.266 . S
H61 C63 0.959 . S
H62 C63 0.961 . S
C63 C53 1.510 . S
C63 H61 0.959 . S
C63 H62 0.961 . S
C63 H64 0.960 . S
H64 C63 0.960 . S
H65 N45 0.862 . S
O66 Co34 1.920 . S
O66 C39 1.289 . S
C67 O59 1.258 . S
C67 O60 1.266 . S
Co68 O71 1.970 . S
Co68 N85 1.989 . S
Co68 O93 1.967 . S
Co68 O100 1.920 1_655 S
Co69 O72 1.966 . S
Co69 N78 2.022 . S
Co69 N86 1.993 . S
Co69 O94 1.941 . S
C70 O71 1.258 1_565 S
C70 O72 1.263 1_565 S
O71 Co68 1.970 . S
O71 C70 1.258 1_545 S
O72 Co69 1.966 . S
O72 C70 1.263 1_545 S
C73 O74 1.235 1_445 S
C73 O100 1.289 . S
O74 C73 1.235 1_665 S
C75 C77 1.400 . S
C75 N78 1.351 . S
C75 C80 1.501 . S
C76 C77 1.387 . S
C76 N79 1.341 . S
C77 C75 1.400 . S
C77 C76 1.387 . S
N78 Co69 2.022 . S
N78 C75 1.351 . S
N78 N79 1.365 . S
N79 C76 1.341 . S
N79 N78 1.365 . S
N79 H99 0.862 . S
C80 C75 1.501 . S
C80 H81 0.961 . S
C80 H82 0.961 . S
C80 H83 0.960 . S
H81 C80 0.961 . S
H82 C80 0.961 . S
H83 C80 0.960 . S
C84 N85 1.342 . S
C84 C88 1.401 . S
C84 C89 1.499 1_655 S
N85 Co68 1.989 . S
N85 C84 1.342 . S
N85 N86 1.388 . S
N86 Co69 1.993 . S
N86 N85 1.388 . S
N86 C87 1.346 . S
C87 N86 1.346 . S
C87 C88 1.396 . S
C87 C97 1.510 . S
C88 C84 1.401 . S
C88 C87 1.396 . S
C89 C84 1.499 1_455 S
C89 H90 0.959 . S
C89 H91 0.960 1_455 S
C89 H92 0.961 . S
H90 C89 0.959 . S
H91 C89 0.960 1_655 S
H92 C89 0.961 . S
O93 Co68 1.967 . S
O93 C101 1.258 . S
O94 Co69 1.941 . S
O94 C101 1.266 . S
H95 C97 0.959 . S
H96 C97 0.961 . S
C97 C87 1.510 . S
C97 H95 0.959 . S
C97 H96 0.961 . S
C97 H98 0.960 . S
H98 C97 0.960 . S
H99 N79 0.862 . S
O100 Co68 1.920 1_455 S
O100 C73 1.289 . S
C101 O93 1.258 . S
C101 O94 1.266 . S
Co102 O105 1.970 . S
Co102 N119 1.989 . S
Co102 O127 1.967 . S
Co102 O134 1.920 1_565 S
Co103 O106 1.966 . S
Co103 N112 2.022 . S
Co103 N120 1.993 . S
Co103 O128 1.941 . S
C104 O105 1.258 . S
C104 O106 1.263 . S
O105 Co102 1.970 . S
O105 C104 1.258 . S
O106 Co103 1.966 . S
O106 C104 1.263 . S
C107 O108 1.235 1_545 S
C107 O134 1.289 . S
O108 C107 1.235 1_565 S
C109 C111 1.400 . S
C109 N112 1.351 . S
C109 C114 1.501 . S
C110 C111 1.387 . S
C110 N113 1.341 . S
C111 C109 1.400 . S
C111 C110 1.387 . S
N112 Co103 2.022 . S
N112 C109 1.351 . S
N112 N113 1.365 . S
N113 C110 1.341 . S
N113 N112 1.365 . S
N113 H133 0.862 . S
C114 C109 1.501 . S
C114 H115 0.961 . S
C114 H116 0.961 . S
C114 H117 0.960 . S
H115 C114 0.961 . S
H116 C114 0.961 . S
H117 C114 0.960 . S
C118 N119 1.342 . S
C118 C122 1.401 . S
C118 C123 1.499 1_565 S
N119 Co102 1.989 . S
N119 C118 1.342 . S
N119 N120 1.388 . S
N120 Co103 1.993 . S
N120 N119 1.388 . S
N120 C121 1.346 . S
C121 N120 1.346 . S
C121 C122 1.396 . S
C121 C131 1.510 . S
C122 C118 1.401 . S
C122 C121 1.396 . S
C123 C118 1.499 1_545 S
C123 H124 0.959 . S
C123 H125 0.960 1_545 S
C123 H126 0.961 . S
H124 C123 0.959 . S
H125 C123 0.960 1_565 S
H126 C123 0.961 . S
O127 Co102 1.967 . S
O127 C135 1.258 . S
O128 Co103 1.941 . S
O128 C135 1.266 . S
H129 C131 0.959 . S
H130 C131 0.961 . S
C131 C121 1.510 . S
C131 H129 0.959 . S
C131 H130 0.961 . S
C131 H132 0.960 . S
H132 C131 0.960 . S
H133 N113 0.862 . S
O134 Co102 1.920 1_545 S
O134 C107 1.289 . S
C135 O127 1.258 . S
C135 O128 1.266 . S
Co136 O139 1.970 . S
Co136 N153 1.989 . S
Co136 O161 1.967 . S
Co136 O168 1.920 . S
Co137 O140 1.966 . S
Co137 N146 2.022 . S
Co137 N154 1.993 . S
Co137 O162 1.941 . S
C138 O139 1.258 1_455 S
C138 O140 1.263 1_455 S
O139 Co136 1.970 . S
O139 C138 1.258 1_655 S
O140 Co137 1.966 . S
O140 C138 1.263 1_655 S
C141 O142 1.235 1_655 S
C141 O168 1.289 . S
O142 C141 1.235 1_455 S
C143 C145 1.400 . S
C143 N146 1.351 . S
C143 C148 1.501 . S
C144 C145 1.387 . S
C144 N147 1.341 . S
C145 C143 1.400 . S
C145 C144 1.387 . S
N146 Co137 2.022 . S
N146 C143 1.351 . S
N146 N147 1.365 . S
N147 C144 1.341 . S
N147 N146 1.365 . S
N147 H167 0.862 . S
C148 C143 1.501 . S
C148 H149 0.961 . S
C148 H150 0.961 . S
C148 H151 0.960 . S
H149 C148 0.961 . S
H150 C148 0.961 . S
H151 C148 0.960 . S
C152 N153 1.342 . S
C152 C156 1.401 . S
C152 C157 1.499 . S
N153 Co136 1.989 . S
N153 C152 1.342 . S
N153 N154 1.388 . S
N154 Co137 1.993 . S
N154 N153 1.388 . S
N154 C155 1.346 . S
C155 N154 1.346 . S
C155 C156 1.396 . S
C155 C165 1.510 . S
C156 C152 1.401 . S
C156 C155 1.396 . S
C157 C152 1.499 . S
C157 H158 0.959 . S
C157 H159 0.960 1_554 S
C157 H160 0.961 . S
H158 C157 0.959 . S
H159 C157 0.960 1_556 S
H160 C157 0.961 . S
O161 Co136 1.967 . S
O161 C169 1.258 . S
O162 Co137 1.941 . S
O162 C169 1.266 . S
H163 C165 0.959 . S
H164 C165 0.961 1_556 S
C165 C155 1.510 . S
C165 H163 0.959 . S
C165 H164 0.961 1_554 S
C165 H166 0.960 . S
H166 C165 0.960 . S
H167 N147 0.862 . S
O168 Co136 1.920 . S
O168 C141 1.289 . S
C169 O161 1.258 . S
C169 O162 1.266 . S
Co170 O173 1.970 . S
Co170 N187 1.989 . S
Co170 O195 1.967 . S
Co170 O202 1.920 1_455 S
Co171 O174 1.966 . S
Co171 N180 2.022 . S
Co171 N188 1.993 . S
Co171 O196 1.941 . S
C172 O173 1.258 1_545 S
C172 O174 1.263 1_545 S
O173 Co170 1.970 . S
O173 C172 1.258 1_565 S
O174 Co171 1.966 . S
O174 C172 1.263 1_565 S
C175 O176 1.235 1_665 S
C175 O202 1.289 . S
O176 C175 1.235 1_445 S
C177 C179 1.400 . S
C177 N180 1.351 . S
C177 C182 1.501 . S
C178 C179 1.387 . S
C178 N181 1.341 . S
C179 C177 1.400 . S
C179 C178 1.387 . S
N180 Co171 2.022 . S
N180 C177 1.351 . S
N180 N181 1.365 . S
N181 C178 1.341 . S
N181 N180 1.365 . S
N181 H201 0.862 . S
C182 C177 1.501 . S
C182 H183 0.961 . S
C182 H184 0.961 . S
C182 H185 0.960 . S
H183 C182 0.961 . S
H184 C182 0.961 . S
H185 C182 0.960 . S
C186 N187 1.342 . S
C186 C190 1.401 . S
C186 C191 1.499 1_455 S
N187 Co170 1.989 . S
N187 C186 1.342 . S
N187 N188 1.388 . S
N188 Co171 1.993 . S
N188 N187 1.388 . S
N188 C189 1.346 . S
C189 N188 1.346 . S
C189 C190 1.396 . S
C189 C199 1.510 . S
C190 C186 1.401 . S
C190 C189 1.396 . S
C191 C186 1.499 1_655 S
C191 H192 0.959 . S
C191 H193 0.960 1_655 S
C191 H194 0.961 . S
H192 C191 0.959 . S
H193 C191 0.960 1_455 S
H194 C191 0.961 . S
O195 Co170 1.967 . S
O195 C203 1.258 . S
O196 Co171 1.941 . S
O196 C203 1.266 . S
H197 C199 0.959 . S
H198 C199 0.961 . S
C199 C189 1.510 . S
C199 H197 0.959 . S
C199 H198 0.961 . S
C199 H200 0.960 . S
H200 C199 0.960 . S
H201 N181 0.862 . S
O202 Co170 1.920 1_655 S
O202 C175 1.289 . S
C203 O195 1.258 . S
C203 O196 1.266 . S
Co204 O207 1.970 . S
Co204 N221 1.989 . S
Co204 O229 1.967 . S
Co204 O236 1.920 1_655 S
Co205 O208 1.966 . S
Co205 N214 2.022 . S
Co205 N222 1.993 . S
Co205 O230 1.941 . S
C206 O207 1.258 . S
C206 O208 1.263 . S
O207 Co204 1.970 . S
O207 C206 1.258 . S
O208 Co205 1.966 . S
O208 C206 1.263 . S
C209 O210 1.235 1_455 S
C209 O236 1.289 . S
O210 C209 1.235 1_655 S
C211 C213 1.400 . S
C211 N214 1.351 . S
C211 C216 1.501 . S
C212 C213 1.387 . S
C212 N215 1.341 . S
C213 C211 1.400 . S
C213 C212 1.387 . S
N214 Co205 2.022 . S
N214 C211 1.351 . S
N214 N215 1.365 . S
N215 C212 1.341 . S
N215 N214 1.365 . S
N215 H235 0.862 . S
C216 C211 1.501 . S
C216 H217 0.961 . S
C216 H218 0.961 . S
C216 H219 0.960 . S
H217 C216 0.961 . S
H218 C216 0.961 . S
H219 C216 0.960 . S
C220 N221 1.342 . S
C220 C224 1.401 . S
C220 C225 1.499 1_655 S
N221 Co204 1.989 . S
N221 C220 1.342 . S
N221 N222 1.388 . S
N222 Co205 1.993 . S
N222 N221 1.388 . S
N222 C223 1.346 . S
C223 N222 1.346 . S
C223 C224 1.396 . S
C223 C233 1.510 . S
C224 C220 1.401 . S
C224 C223 1.396 . S
C225 C220 1.499 1_455 S
C225 H226 0.959 . S
C225 H227 0.960 1_455 S
C225 H228 0.961 . S
H226 C225 0.959 . S
H227 C225 0.960 1_655 S
H228 C225 0.961 . S
O229 Co204 1.967 . S
O229 C237 1.258 . S
O230 Co205 1.941 . S
O230 C237 1.266 . S
H231 C233 0.959 . S
H232 C233 0.961 . S
C233 C223 1.510 . S
C233 H231 0.959 . S
C233 H232 0.961 . S
C233 H234 0.960 . S
H234 C233 0.960 . S
H235 N215 0.862 . S
O236 Co204 1.920 1_455 S
O236 C209 1.289 . S
C237 O229 1.258 . S
C237 O230 1.266 . S
Co238 O241 1.970 . S
Co238 N255 1.989 . S
Co238 O263 1.967 . S
Co238 O270 1.920 1_565 S
Co239 O242 1.966 . S
Co239 N248 2.022 . S
Co239 N256 1.993 . S
Co239 O264 1.941 . S
C240 O241 1.258 1_655 S
C240 O242 1.263 1_655 S
O241 Co238 1.970 . S
O241 C240 1.258 1_455 S
O242 Co239 1.966 . S
O242 C240 1.263 1_455 S
C243 O244 1.235 1_445 S
C243 O270 1.289 . S
O244 C243 1.235 1_665 S
C245 C247 1.400 . S
C245 N248 1.351 . S
C245 C250 1.501 . S
C246 C247 1.387 . S
C246 N249 1.341 . S
C247 C245 1.400 . S
C247 C246 1.387 . S
N248 Co239 2.022 . S
N248 C245 1.351 . S
N248 N249 1.365 . S
N249 C246 1.341 . S
N249 N248 1.365 . S
N249 H269 0.862 . S
C250 C245 1.501 . S
C250 H251 0.961 . S
C250 H252 0.961 . S
C250 H253 0.960 . S
H251 C250 0.961 . S
H252 C250 0.961 . S
H253 C250 0.960 . S
C254 N255 1.342 . S
C254 C258 1.401 . S
C254 C259 1.499 1_565 S
N255 Co238 1.989 . S
N255 C254 1.342 . S
N255 N256 1.388 . S
N256 Co239 1.993 . S
N256 N255 1.388 . S
N256 C257 1.346 . S
C257 N256 1.346 . S
C257 C258 1.396 . S
C257 C267 1.510 . S
C258 C254 1.401 . S
C258 C257 1.396 . S
C259 C254 1.499 1_545 S
C259 H260 0.959 . S
C259 H261 0.960 1_545 S
C259 H262 0.961 . S
H260 C259 0.959 . S
H261 C259 0.960 1_565 S
H262 C259 0.961 . S
O263 Co238 1.967 . S
O263 C271 1.258 . S
O264 Co239 1.941 . S
O264 C271 1.266 . S
H265 C267 0.959 . S
H266 C267 0.961 . S
C267 C257 1.510 . S
C267 H265 0.959 . S
C267 H266 0.961 . S
C267 H268 0.960 . S
H268 C267 0.960 . S
H269 N249 0.862 . S
O270 Co238 1.920 1_545 S
O270 C243 1.289 . S
C271 O263 1.258 . S
C271 O264 1.266 . S
Co272 O275 1.970 . S
Co272 N289 1.989 . S
Co272 O297 1.967 . S
Co272 O304 1.920 . S
Co273 O276 1.966 . S
Co273 N282 2.022 . S
Co273 N290 1.993 . S
Co273 O298 1.941 . S
C274 O275 1.258 1_565 S
C274 O276 1.263 1_565 S
O275 Co272 1.970 . S
O275 C274 1.258 1_545 S
O276 Co273 1.966 . S
O276 C274 1.263 1_545 S
C277 O278 1.235 1_545 S
C277 O304 1.289 . S
O278 C277 1.235 1_565 S
C279 C281 1.400 . S
C279 N282 1.351 . S
C279 C284 1.501 . S
C280 C281 1.387 . S
C280 N283 1.341 . S
C281 C279 1.400 . S
C281 C280 1.387 . S
N282 Co273 2.022 . S
N282 C279 1.351 . S
N282 N283 1.365 . S
N283 C280 1.341 . S
N283 N282 1.365 . S
N283 H303 0.862 . S
C284 C279 1.501 . S
C284 H285 0.961 . S
C284 H286 0.961 . S
C284 H287 0.960 . S
H285 C284 0.961 . S
H286 C284 0.961 . S
H287 C284 0.960 . S
C288 N289 1.342 . S
C288 C292 1.401 . S
C288 C293 1.499 . S
N289 Co272 1.989 . S
N289 C288 1.342 . S
N289 N290 1.388 . S
N290 Co273 1.993 . S
N290 N289 1.388 . S
N290 C291 1.346 . S
C291 N290 1.346 . S
C291 C292 1.396 . S
C291 C301 1.510 . S
C292 C288 1.401 . S
C292 C291 1.396 . S
C293 C288 1.499 . S
C293 H294 0.959 . S
C293 H295 0.960 . S
C293 H296 0.961 . S
H294 C293 0.959 . S
H295 C293 0.960 . S
H296 C293 0.961 . S
O297 Co272 1.967 . S
O297 C305 1.258 . S
O298 Co273 1.941 . S
O298 C305 1.266 . S
H299 C301 0.959 . S
H300 C301 0.961 . S
C301 C291 1.510 . S
C301 H299 0.959 . S
C301 H300 0.961 . S
C301 H302 0.960 . S
H302 C301 0.960 . S
H303 N283 0.862 . S
O304 Co272 1.920 . S
O304 C277 1.289 . S
C305 O297 1.258 . S
C305 O298 1.266 . S
Co306 O309 1.970 . S
Co306 N323 1.989 . S
Co306 O331 1.967 . S
Co306 O338 1.920 1_455 S
Co307 O310 1.966 . S
Co307 N316 2.022 . S
Co307 N324 1.993 . S
Co307 O332 1.941 . S
C308 O309 1.258 . S
C308 O310 1.263 . S
O309 Co306 1.970 . S
O309 C308 1.258 . S
O310 Co307 1.966 . S
O310 C308 1.263 . S
C311 O312 1.235 1_655 S
C311 O338 1.289 . S
O312 C311 1.235 1_455 S
C313 C315 1.400 . S
C313 N316 1.351 . S
C313 C318 1.501 . S
C314 C315 1.387 . S
C314 N317 1.341 . S
C315 C313 1.400 . S
C315 C314 1.387 . S
N316 Co307 2.022 . S
N316 C313 1.351 . S
N316 N317 1.365 . S
N317 C314 1.341 . S
N317 N316 1.365 . S
N317 H337 0.862 . S
C318 C313 1.501 . S
C318 H319 0.961 . S
C318 H320 0.961 . S
C318 H321 0.960 . S
H319 C318 0.961 . S
H320 C318 0.961 . S
H321 C318 0.960 . S
C322 N323 1.342 . S
C322 C326 1.401 . S
C322 C327 1.499 1_455 S
N323 Co306 1.989 . S
N323 C322 1.342 . S
N323 N324 1.388 . S
N324 Co307 1.993 . S
N324 N323 1.388 . S
N324 C325 1.346 . S
C325 N324 1.346 . S
C325 C326 1.396 . S
C325 C335 1.510 . S
C326 C322 1.401 . S
C326 C325 1.396 . S
C327 C322 1.499 1_655 S
C327 H328 0.959 . S
C327 H329 0.960 1_656 S
C327 H330 0.961 . S
H328 C327 0.959 . S
H329 C327 0.960 1_454 S
H330 C327 0.961 . S
O331 Co306 1.967 . S
O331 C339 1.258 . S
O332 Co307 1.941 . S
O332 C339 1.266 . S
H333 C335 0.959 . S
H334 C335 0.961 1_554 S
C335 C325 1.510 . S
C335 H333 0.959 . S
C335 H334 0.961 1_556 S
C335 H336 0.960 . S
H336 C335 0.960 . S
H337 N317 0.862 . S
O338 Co306 1.920 1_655 S
O338 C311 1.289 . S
C339 O331 1.258 . S
C339 O332 1.266 . S
Co340 O343 1.970 . S
Co340 N357 1.989 . S
Co340 O365 1.967 . S
Co340 O372 1.920 1_545 S
Co341 O344 1.966 . S
Co341 N350 2.022 . S
Co341 N358 1.993 . S
Co341 O366 1.941 . S
C342 O343 1.258 1_455 S
C342 O344 1.263 1_455 S
O343 Co340 1.970 . S
O343 C342 1.258 1_655 S
O344 Co341 1.966 . S
O344 C342 1.263 1_655 S
C345 O346 1.235 1_665 S
C345 O372 1.289 . S
O346 C345 1.235 1_445 S
C347 C349 1.400 . S
C347 N350 1.351 . S
C347 C352 1.501 . S
C348 C349 1.387 . S
C348 N351 1.341 . S
C349 C347 1.400 . S
C349 C348 1.387 . S
N350 Co341 2.022 . S
N350 C347 1.351 . S
N350 N351 1.365 . S
N351 C348 1.341 . S
N351 N350 1.365 . S
N351 H371 0.862 . S
C352 C347 1.501 . S
C352 H353 0.961 . S
C352 H354 0.961 . S
C352 H355 0.960 . S
H353 C352 0.961 . S
H354 C352 0.961 . S
H355 C352 0.960 . S
C356 N357 1.342 . S
C356 C360 1.401 . S
C356 C361 1.499 1_545 S
N357 Co340 1.989 . S
N357 C356 1.342 . S
N357 N358 1.388 . S
N358 Co341 1.993 . S
N358 N357 1.388 . S
N358 C359 1.346 . S
C359 N358 1.346 . S
C359 C360 1.396 . S
C359 C369 1.510 . S
C360 C356 1.401 . S
C360 C359 1.396 . S
C361 C356 1.499 1_565 S
C361 H362 0.959 . S
C361 H363 0.960 1_565 S
C361 H364 0.961 . S
H362 C361 0.959 . S
H363 C361 0.960 1_545 S
H364 C361 0.961 . S
O365 Co340 1.967 . S
O365 C373 1.258 . S
O366 Co341 1.941 . S
O366 C373 1.266 . S
H367 C369 0.959 . S
H368 C369 0.961 . S
C369 C359 1.510 . S
C369 H367 0.959 . S
C369 H368 0.961 . S
C369 H370 0.960 . S
H370 C369 0.960 . S
H371 N351 0.862 . S
O372 Co340 1.920 1_565 S
O372 C345 1.289 . S
C373 O365 1.258 . S
C373 O366 1.266 . S
Co374 O377 1.970 . S
Co374 N391 1.989 . S
Co374 O399 1.967 . S
Co374 O406 1.920 . S
Co375 O378 1.966 . S
Co375 N384 2.022 . S
Co375 N392 1.993 . S
Co375 O400 1.941 . S
C376 O377 1.258 1_545 S
C376 O378 1.263 1_545 S
O377 Co374 1.970 . S
O377 C376 1.258 1_565 S
O378 Co375 1.966 . S
O378 C376 1.263 1_565 S
C379 O380 1.235 1_565 S
C379 O406 1.289 . S
O380 C379 1.235 1_545 S
C381 C383 1.400 . S
C381 N384 1.351 . S
C381 C386 1.501 . S
C382 C383 1.387 . S
C382 N385 1.341 . S
C383 C381 1.400 . S
C383 C382 1.387 . S
N384 Co375 2.022 . S
N384 C381 1.351 . S
N384 N385 1.365 . S
N385 C382 1.341 . S
N385 N384 1.365 . S
N385 H405 0.862 . S
C386 C381 1.501 . S
C386 H387 0.961 . S
C386 H388 0.961 . S
C386 H389 0.960 . S
H387 C386 0.961 . S
H388 C386 0.961 . S
H389 C386 0.960 . S
C390 N391 1.342 . S
C390 C394 1.401 . S
C390 C395 1.499 . S
N391 Co374 1.989 . S
N391 C390 1.342 . S
N391 N392 1.388 . S
N392 Co375 1.993 . S
N392 N391 1.388 . S
N392 C393 1.346 . S
C393 N392 1.346 . S
C393 C394 1.396 . S
C393 C403 1.510 . S
C394 C390 1.401 . S
C394 C393 1.396 . S
C395 C390 1.499 . S
C395 H396 0.959 . S
C395 H397 0.960 . S
C395 H398 0.961 . S
H396 C395 0.959 . S
H397 C395 0.960 . S
H398 C395 0.961 . S
O399 Co374 1.967 . S
O399 C407 1.258 . S
O400 Co375 1.941 . S
O400 C407 1.266 . S
H401 C403 0.959 . S
H402 C403 0.961 . S
C403 C393 1.510 . S
C403 H401 0.959 . S
C403 H402 0.961 . S
C403 H404 0.960 . S
H404 C403 0.960 . S
H405 N385 0.862 . S
O406 Co374 1.920 . S
O406 C379 1.289 . S
C407 O399 1.258 . S
C407 O400 1.266 . S
C5 C209 0.345 . S
C243 C39 0.345 . S
C73 C277 0.345 . S
C107 C311 0.345 . S
C141 C345 0.345 . S
C175 C379 0.345 . S
C213 C9 1.230 . S
C43 C247 1.230 . S
C281 C77 1.229 . S
C315 C111 1.230 . S
C349 C145 1.229 . S
C179 C383 1.230 . S
C172 C20 2.084 . S
C2 C54 2.084 . S
C88 C36 2.084 . S
C70 C122 2.084 . S
C104 C156 2.084 1_556 S
C138 C190 2.084 . S
C240 C224 2.084 . S
C258 C274 2.084 . S
C308 C292 2.084 . S
C342 C326 2.084 1_554 S
C376 C360 2.084 . S
C206 C394 2.084 . S
C33 C271 2.191 1_545 S
C67 C305 2.191 . S
C101 C339 2.191 1_655 S
C373 C135 2.191 1_544 S
C169 C407 2.191 . S
C237 C203 2.191 1_655 S
