# Generated by pormake.
# Topology uml, (4)-cn, num edge types: 1
# Building blocks:
#     Node 0, Type 0, BuildingBlock: MUDLON_clean_sbu_0, # of connection points: 4
#     Node 1, Type 0, BuildingBlock: MUDLON_clean_sbu_0, # of connection points: 4
#     Node 2, Type 0, BuildingBlock: MUDLON_clean_sbu_0, # of connection points: 4
#     Node 3, Type 0, BuildingBlock: MUDLON_clean_sbu_0, # of connection points: 4
#     Node 4, Type 0, BuildingBlock: MUDLON_clean_sbu_0, # of connection points: 4
#     Node 5, Type 0, BuildingBlock: MUDLON_clean_sbu_0, # of connection points: 4
#     Node 6, Type 0, BuildingBlock: MUDLON_clean_sbu_0, # of connection points: 4
#     Node 7, Type 0, BuildingBlock: MUDLON_clean_sbu_0, # of connection points: 4
#     Node 8, Type 0, BuildingBlock: MUDLON_clean_sbu_0, # of connection points: 4
#     Node 9, Type 0, BuildingBlock: MUDLON_clean_sbu_0, # of connection points: 4
#     Node 10, Type 0, BuildingBlock: MUDLON_clean_sbu_0, # of connection points: 4
#     Node 11, Type 0, BuildingBlock: MUDLON_clean_sbu_0, # of connection points: 4
#     Node 12, Type 0, BuildingBlock: MUDLON_clean_sbu_0, # of connection points: 4
#     Node 13, Type 0, BuildingBlock: MUDLON_clean_sbu_0, # of connection points: 4
#     Node 14, Type 0, BuildingBlock: MUDLON_clean_sbu_0, # of connection points: 4
#     Node 15, Type 0, BuildingBlock: MUDLON_clean_sbu_0, # of connection points: 4
#     Node 16, Type 0, BuildingBlock: MUDLON_clean_sbu_0, # of connection points: 4
#     Node 17, Type 0, BuildingBlock: MUDLON_clean_sbu_0, # of connection points: 4
#     Node 18, Type 0, BuildingBlock: MUDLON_clean_sbu_0, # of connection points: 4
#     Node 19, Type 0, BuildingBlock: MUDLON_clean_sbu_0, # of connection points: 4
#     Node 20, Type 0, BuildingBlock: MUDLON_clean_sbu_0, # of connection points: 4
#     Node 21, Type 0, BuildingBlock: MUDLON_clean_sbu_0, # of connection points: 4
#     Node 22, Type 0, BuildingBlock: MUDLON_clean_sbu_0, # of connection points: 4
#     Node 23, Type 0, BuildingBlock: MUDLON_clean_sbu_0, # of connection points: 4
#     Node 24, Type 0, BuildingBlock: MUDLON_clean_sbu_0, # of connection points: 4
#     Node 25, Type 0, BuildingBlock: MUDLON_clean_sbu_0, # of connection points: 4
#     Node 26, Type 0, BuildingBlock: MUDLON_clean_sbu_0, # of connection points: 4
#     Node 27, Type 0, BuildingBlock: MUDLON_clean_sbu_0, # of connection points: 4
#     Node 28, Type 0, BuildingBlock: MUDLON_clean_sbu_0, # of connection points: 4
#     Node 29, Type 0, BuildingBlock: MUDLON_clean_sbu_0, # of connection points: 4
#     Node 30, Type 0, BuildingBlock: MUDLON_clean_sbu_0, # of connection points: 4
#     Node 31, Type 0, BuildingBlock: MUDLON_clean_sbu_0, # of connection points: 4
#     Node 32, Type 0, BuildingBlock: MUDLON_clean_sbu_0, # of connection points: 4
#     Node 33, Type 0, BuildingBlock: MUDLON_clean_sbu_0, # of connection points: 4
#     Node 34, Type 0, BuildingBlock: MUDLON_clean_sbu_0, # of connection points: 4
#     Node 35, Type 0, BuildingBlock: MUDLON_clean_sbu_0, # of connection points: 4
#     Edge 36, Type (0, 0), BuildingBlock: AJUNOK_clean_linker_0, # of connection points: 2
#     Edge 37, Type (0, 0), BuildingBlock: AJUNOK_clean_linker_0, # of connection points: 2
#     Edge 38, Type (0, 0), BuildingBlock: AJUNOK_clean_linker_0, # of connection points: 2
#     Edge 39, Type (0, 0), BuildingBlock: AJUNOK_clean_linker_0, # of connection points: 2
#     Edge 40, Type (0, 0), BuildingBlock: AJUNOK_clean_linker_0, # of connection points: 2
#     Edge 41, Type (0, 0), BuildingBlock: AJUNOK_clean_linker_0, # of connection points: 2
#     Edge 42, Type (0, 0), BuildingBlock: AJUNOK_clean_linker_0, # of connection points: 2
#     Edge 43, Type (0, 0), BuildingBlock: AJUNOK_clean_linker_0, # of connection points: 2
#     Edge 44, Type (0, 0), BuildingBlock: AJUNOK_clean_linker_0, # of connection points: 2
#     Edge 45, Type (0, 0), BuildingBlock: AJUNOK_clean_linker_0, # of connection points: 2
#     Edge 46, Type (0, 0), BuildingBlock: AJUNOK_clean_linker_0, # of connection points: 2
#     Edge 47, Type (0, 0), BuildingBlock: AJUNOK_clean_linker_0, # of connection points: 2
#     Edge 48, Type (0, 0), BuildingBlock: AJUNOK_clean_linker_0, # of connection points: 2
#     Edge 49, Type (0, 0), BuildingBlock: AJUNOK_clean_linker_0, # of connection points: 2
#     Edge 50, Type (0, 0), BuildingBlock: AJUNOK_clean_linker_0, # of connection points: 2
#     Edge 51, Type (0, 0), BuildingBlock: AJUNOK_clean_linker_0, # of connection points: 2
#     Edge 52, Type (0, 0), BuildingBlock: AJUNOK_clean_linker_0, # of connection points: 2
#     Edge 53, Type (0, 0), BuildingBlock: AJUNOK_clean_linker_0, # of connection points: 2
#     Edge 54, Type (0, 0), BuildingBlock: AJUNOK_clean_linker_0, # of connection points: 2
#     Edge 55, Type (0, 0), BuildingBlock: AJUNOK_clean_linker_0, # of connection points: 2
#     Edge 56, Type (0, 0), BuildingBlock: AJUNOK_clean_linker_0, # of connection points: 2
#     Edge 57, Type (0, 0), BuildingBlock: AJUNOK_clean_linker_0, # of connection points: 2
#     Edge 58, Type (0, 0), BuildingBlock: AJUNOK_clean_linker_0, # of connection points: 2
#     Edge 59, Type (0, 0), BuildingBlock: AJUNOK_clean_linker_0, # of connection points: 2
#     Edge 60, Type (0, 0), BuildingBlock: AJUNOK_clean_linker_0, # of connection points: 2
#     Edge 61, Type (0, 0), BuildingBlock: AJUNOK_clean_linker_0, # of connection points: 2
#     Edge 62, Type (0, 0), BuildingBlock: AJUNOK_clean_linker_0, # of connection points: 2
#     Edge 63, Type (0, 0), BuildingBlock: AJUNOK_clean_linker_0, # of connection points: 2
#     Edge 64, Type (0, 0), BuildingBlock: AJUNOK_clean_linker_0, # of connection points: 2
#     Edge 65, Type (0, 0), BuildingBlock: AJUNOK_clean_linker_0, # of connection points: 2
#     Edge 66, Type (0, 0), BuildingBlock: AJUNOK_clean_linker_0, # of connection points: 2
#     Edge 67, Type (0, 0), BuildingBlock: AJUNOK_clean_linker_0, # of connection points: 2
#     Edge 68, Type (0, 0), BuildingBlock: AJUNOK_clean_linker_0, # of connection points: 2
#     Edge 69, Type (0, 0), BuildingBlock: AJUNOK_clean_linker_0, # of connection points: 2
#     Edge 70, Type (0, 0), BuildingBlock: AJUNOK_clean_linker_0, # of connection points: 2
#     Edge 71, Type (0, 0), BuildingBlock: AJUNOK_clean_linker_0, # of connection points: 2
#     Edge 72, Type (0, 0), BuildingBlock: AJUNOK_clean_linker_0, # of connection points: 2
#     Edge 73, Type (0, 0), BuildingBlock: AJUNOK_clean_linker_0, # of connection points: 2
#     Edge 74, Type (0, 0), BuildingBlock: AJUNOK_clean_linker_0, # of connection points: 2
#     Edge 75, Type (0, 0), BuildingBlock: AJUNOK_clean_linker_0, # of connection points: 2
#     Edge 76, Type (0, 0), BuildingBlock: AJUNOK_clean_linker_0, # of connection points: 2
#     Edge 77, Type (0, 0), BuildingBlock: AJUNOK_clean_linker_0, # of connection points: 2
#     Edge 78, Type (0, 0), BuildingBlock: AJUNOK_clean_linker_0, # of connection points: 2
#     Edge 79, Type (0, 0), BuildingBlock: AJUNOK_clean_linker_0, # of connection points: 2
#     Edge 80, Type (0, 0), BuildingBlock: AJUNOK_clean_linker_0, # of connection points: 2
#     Edge 81, Type (0, 0), BuildingBlock: AJUNOK_clean_linker_0, # of connection points: 2
#     Edge 82, Type (0, 0), BuildingBlock: AJUNOK_clean_linker_0, # of connection points: 2
#     Edge 83, Type (0, 0), BuildingBlock: AJUNOK_clean_linker_0, # of connection points: 2
#     Edge 84, Type (0, 0), BuildingBlock: AJUNOK_clean_linker_0, # of connection points: 2
#     Edge 85, Type (0, 0), BuildingBlock: AJUNOK_clean_linker_0, # of connection points: 2
#     Edge 86, Type (0, 0), BuildingBlock: AJUNOK_clean_linker_0, # of connection points: 2
#     Edge 87, Type (0, 0), BuildingBlock: AJUNOK_clean_linker_0, # of connection points: 2
#     Edge 88, Type (0, 0), BuildingBlock: AJUNOK_clean_linker_0, # of connection points: 2
#     Edge 89, Type (0, 0), BuildingBlock: AJUNOK_clean_linker_0, # of connection points: 2
#     Edge 90, Type (0, 0), BuildingBlock: AJUNOK_clean_linker_0, # of connection points: 2
#     Edge 91, Type (0, 0), BuildingBlock: AJUNOK_clean_linker_0, # of connection points: 2
#     Edge 92, Type (0, 0), BuildingBlock: AJUNOK_clean_linker_0, # of connection points: 2
#     Edge 93, Type (0, 0), BuildingBlock: AJUNOK_clean_linker_0, # of connection points: 2
#     Edge 94, Type (0, 0), BuildingBlock: AJUNOK_clean_linker_0, # of connection points: 2
#     Edge 95, Type (0, 0), BuildingBlock: AJUNOK_clean_linker_0, # of connection points: 2
#     Edge 96, Type (0, 0), BuildingBlock: AJUNOK_clean_linker_0, # of connection points: 2
#     Edge 97, Type (0, 0), BuildingBlock: AJUNOK_clean_linker_0, # of connection points: 2
#     Edge 98, Type (0, 0), BuildingBlock: AJUNOK_clean_linker_0, # of connection points: 2
#     Edge 99, Type (0, 0), BuildingBlock: AJUNOK_clean_linker_0, # of connection points: 2
#     Edge 100, Type (0, 0), BuildingBlock: AJUNOK_clean_linker_0, # of connection points: 2
#     Edge 101, Type (0, 0), BuildingBlock: AJUNOK_clean_linker_0, # of connection points: 2
#     Edge 102, Type (0, 0), BuildingBlock: AJUNOK_clean_linker_0, # of connection points: 2
#     Edge 103, Type (0, 0), BuildingBlock: AJUNOK_clean_linker_0, # of connection points: 2
#     Edge 104, Type (0, 0), BuildingBlock: AJUNOK_clean_linker_0, # of connection points: 2
#     Edge 105, Type (0, 0), BuildingBlock: AJUNOK_clean_linker_0, # of connection points: 2
#     Edge 106, Type (0, 0), BuildingBlock: AJUNOK_clean_linker_0, # of connection points: 2
#     Edge 107, Type (0, 0), BuildingBlock: AJUNOK_clean_linker_0, # of connection points: 2
# Relax obj value: 0.067
# Max RMSD: 0.179
# Mean RMSD: 0.173
data_MOF--net-uml--node1-MUDLON_clean_sbu_0--edge1-AJUNOK_clean_linker_0
_symmetry_space_group_name_H-M    P1
_symmetry_Int_Tables_number       1
_symmetry_cell_setting            triclinic
loop_
_symmetry_equiv_pos_as_xyz
'x, y, z'
_cell_length_a     75.737252
_cell_length_b     75.752305
_cell_length_c     21.982839
_cell_angle_alpha  89.984594
_cell_angle_beta   89.820744
_cell_angle_gamma 120.03116
loop_
_atom_site_label
_atom_site_type_symbol
_atom_site_fract_x
_atom_site_fract_y
_atom_site_fract_z
_atom_type_partial_charge
Mg0 Mg 0.37741 0.11647 0.16921 0.0
C1 C 0.35856 0.14291 0.15985 0.0
O2 O 0.34385 0.12521 0.14062 0.0
C3 C 0.41189 0.1068 0.15839 0.0
O4 O 0.40314 0.09602 0.20748 0.0
C5 C 0.35471 0.10243 0.29085 0.0
O6 O 0.34376 0.10932 0.26476 0.0
O7 O 0.36879 0.10206 0.25994 0.0
O8 O 0.37558 0.14443 0.1744 0.0
O9 O 0.35941 0.10127 0.08867 0.0
C10 C 0.36866 0.11183 0.0417 0.0
O11 O 0.3857 0.12915 0.04974 0.0
O12 O 0.40617 0.11894 0.13854 0.0
Mg13 Mg 0.90861 0.26405 0.19165 0.0
C14 C 0.88058 0.22031 0.19819 0.0
O15 O 0.89901 0.22271 0.19854 0.0
C16 C 0.92894 0.30574 0.15054 0.0
O17 O 0.94261 0.29992 0.15231 0.0
C18 C 0.92029 0.27117 0.32346 0.0
O19 O 0.90747 0.27804 0.32036 0.0
O20 O 0.92461 0.265 0.27483 0.0
O21 O 0.87891 0.23624 0.19631 0.0
O22 O 0.92182 0.25916 0.11025 0.0
C23 C 0.91456 0.2623 0.06197 0.0
O24 O 0.90013 0.26703 0.06703 0.0
O25 O 0.91109 0.29358 0.17078 0.0
Mg26 Mg 0.76162 0.65553 0.17329 0.0
C27 C 0.8075 0.67763 0.16477 0.0
O28 O 0.80364 0.69225 0.15125 0.0
C29 C 0.72046 0.61659 0.16513 0.0
O30 O 0.7176 0.62394 0.21597 0.0
C31 C 0.76685 0.67674 0.29649 0.0
O32 O 0.78431 0.68991 0.27131 0.0
O33 O 0.75403 0.66168 0.26486 0.0
O34 O 0.79251 0.65988 0.17625 0.0
O35 O 0.76308 0.67491 0.09742 0.0
C36 C 0.74926 0.66824 0.05674 0.0
O37 O 0.73183 0.65167 0.06814 0.0
O38 O 0.73825 0.62535 0.14173 0.0
Mg39 Mg 0.12233 0.36934 0.35075 0.0
C40 C 0.14911 0.35218 0.34209 0.0
O41 O 0.13044 0.33653 0.34256 0.0
C42 C 0.10319 0.39141 0.39507 0.0
O43 O 0.08902 0.3721 0.39178 0.0
C44 C 0.11 0.36467 0.21972 0.0
O45 O 0.12406 0.38406 0.22138 0.0
O46 O 0.10517 0.35452 0.26907 0.0
O47 O 0.15142 0.37006 0.34367 0.0
O48 O 0.10981 0.3514 0.43243 0.0
C49 C 0.11864 0.36149 0.48001 0.0
O50 O 0.13351 0.38042 0.47381 0.0
O51 O 0.12091 0.39673 0.3745 0.0
Mg52 Mg 0.65179 0.75637 0.35061 0.0
C53 C 0.6731 0.80147 0.35395 0.0
O54 O 0.68796 0.79728 0.35397 0.0
C55 C 0.61714 0.71302 0.3625 0.0
O56 O 0.62688 0.71104 0.31581 0.0
C57 C 0.67481 0.75902 0.22845 0.0
O58 O 0.69154 0.76979 0.26006 0.0
O59 O 0.65763 0.75129 0.2556 0.0
O60 O 0.65479 0.78663 0.35305 0.0
O61 O 0.67112 0.7573 0.42574 0.0
C62 C 0.66292 0.75762 0.47627 0.0
O63 O 0.64569 0.75784 0.47475 0.0
O64 O 0.62261 0.73087 0.38169 0.0
Mg65 Mg 0.26676 0.90501 0.36041 0.0
C66 C 0.22248 0.87903 0.36266 0.0
O67 O 0.22605 0.89781 0.36787 0.0
C68 C 0.31106 0.92281 0.35804 0.0
O69 O 0.30755 0.93633 0.33177 0.0
C70 C 0.27074 0.91527 0.22764 0.0
O71 O 0.27544 0.90076 0.22857 0.0
O72 O 0.26704 0.92112 0.27791 0.0
O73 O 0.23776 0.87629 0.35831 0.0
O74 O 0.26489 0.91963 0.4428 0.0
C75 C 0.27021 0.91403 0.49062 0.0
O76 O 0.27641 0.90072 0.48536 0.0
O77 O 0.29581 0.90563 0.37231 0.0
Mg78 Mg 0.65566 0.90358 0.8563 0.0
C79 C 0.68633 0.92852 0.96563 0.0
O80 O 0.70035 0.94058 0.92648 0.0
C81 C 0.68486 0.92068 0.74673 0.0
O82 O 0.69441 0.91332 0.77836 0.0
C83 C 0.62679 0.91536 0.90706 0.0
O84 O 0.64446 0.92839 0.93086 0.0
O85 O 0.62602 0.90208 0.86972 0.0
O86 O 0.66946 0.91408 0.9464 0.0
O87 O 0.65549 0.87467 0.84587 0.0
C88 C 0.67136 0.87467 0.86526 0.0
O89 O 0.68557 0.89118 0.892 0.0
O90 O 0.66936 0.92042 0.77051 0.0
Mg91 Mg 0.12122 0.75772 0.85572 0.0
C92 C 0.14728 0.80267 0.85437 0.0
O93 O 0.12867 0.79978 0.85392 0.0
C94 C 0.11076 0.71344 0.86295 0.0
O95 O 0.09844 0.7118 0.81862 0.0
C96 C 0.11697 0.75212 0.72138 0.0
O97 O 0.13321 0.75074 0.73382 0.0
O98 O 0.10736 0.75437 0.76561 0.0
O99 O 0.14951 0.78706 0.85474 0.0
O100 O 0.10527 0.7602 0.935 0.0
C101 C 0.11353 0.75896 0.98409 0.0
O102 O 0.12951 0.75655 0.98001 0.0
O103 O 0.12365 0.73113 0.88205 0.0
Mg104 Mg 0.26879 0.36735 0.84574 0.0
C105 C 0.22906 0.36374 0.88983 0.0
O106 O 0.23725 0.3641 0.94272 0.0
C107 C 0.31344 0.39548 0.84416 0.0
O108 O 0.3109 0.37987 0.81146 0.0
C109 C 0.2724 0.36225 0.7115 0.0
O110 O 0.27528 0.38085 0.71343 0.0
O111 O 0.26999 0.35277 0.76142 0.0
O112 O 0.23971 0.36705 0.84172 0.0
O113 O 0.26497 0.34884 0.92552 0.0
C114 C 0.27438 0.3577 0.97399 0.0
O115 O 0.28796 0.37721 0.97186 0.0
O116 O 0.29759 0.39586 0.8617 0.0
Mg117 Mg 0.90421 0.65067 0.66811 0.0
C118 C 0.86347 0.6493 0.64291 0.0
O119 O 0.86635 0.64483 0.58747 0.0
C120 C 0.91814 0.6189 0.66534 0.0
O121 O 0.92884 0.62908 0.71287 0.0
C122 C 0.91455 0.65671 0.7999 0.0
O123 O 0.89743 0.63913 0.79913 0.0
O124 O 0.92228 0.66536 0.74924 0.0
O125 O 0.87546 0.65037 0.68501 0.0
O126 O 0.91592 0.66816 0.5843 0.0
C127 C 0.90919 0.65742 0.53626 0.0
O128 O 0.89635 0.6378 0.54209 0.0
O129 O 0.9049 0.62287 0.64387 0.0
Mg130 Mg 0.37166 0.26415 0.68262 0.0
C131 C 0.35433 0.22046 0.6895 0.0
O132 O 0.33922 0.22422 0.69379 0.0
C133 C 0.41594 0.30771 0.66169 0.0
O134 O 0.42687 0.30656 0.70616 0.0
C135 C 0.37236 0.26933 0.81605 0.0
O136 O 0.3905 0.2723 0.80154 0.0
O137 O 0.35991 0.26621 0.77286 0.0
O138 O 0.3724 0.23566 0.68485 0.0
O139 O 0.35469 0.2598 0.59825 0.0
C140 C 0.36623 0.26052 0.55461 0.0
O141 O 0.38385 0.2621 0.56821 0.0
O142 O 0.39758 0.29355 0.65454 0.0
Mg143 Mg 0.7634 0.1176 0.69988 0.0
C144 C 0.76108 0.1083 0.57036 0.0
O145 O 0.75564 0.12219 0.57542 0.0
C146 C 0.76847 0.09295 0.80614 0.0
O147 O 0.77616 0.08657 0.7636 0.0
C148 C 0.72029 0.09822 0.67711 0.0
O149 O 0.72496 0.08399 0.68807 0.0
O150 O 0.73443 0.11672 0.68241 0.0
O151 O 0.76581 0.10222 0.61859 0.0
O152 O 0.79205 0.1467 0.69733 0.0
C153 C 0.80787 0.14481 0.6959 0.0
O154 O 0.80528 0.12631 0.69644 0.0
O155 O 0.76175 0.10473 0.79115 0.0
Mg156 Mg 0.04189 0.45018 0.52337 0.0
C157 C 0.02339 0.47585 0.51954 0.0
O158 O 1.0082 0.45695 0.52011 0.0
C159 C 0.06873 0.43277 0.52535 0.0
O160 O 0.05227 0.41963 0.55512 0.0
C161 C 0.03656 0.4415 0.65755 0.0
O162 O 0.05584 0.45583 0.65525 0.0
O163 O 0.02675 0.43526 0.60795 0.0
O164 O 0.04152 0.4788 0.52073 0.0
O165 O 0.02468 0.43399 0.4439 0.0
C166 C 0.03508 0.43931 0.39493 0.0
O167 O 0.05449 0.45324 0.39781 0.0
O168 O 0.07026 0.44966 0.50969 0.0
Mg169 Mg 0.57742 0.5981 0.5156 0.0
C170 C 0.55534 0.55361 0.53564 0.0
O171 O 0.57367 0.55968 0.55696 0.0
C172 C 0.58233 0.64025 0.50972 0.0
O173 O 0.59367 0.64255 0.55746 0.0
C174 C 0.60125 0.59988 0.63641 0.0
O175 O 0.6112 0.5932 0.60354 0.0
O176 O 0.58844 0.60361 0.61043 0.0
O177 O 0.55145 0.56694 0.51433 0.0
O178 O 0.596 0.59828 0.43877 0.0
C179 C 0.58793 0.59902 0.38857 0.0
O180 O 0.5709 0.59961 0.39073 0.0
O181 O 0.57166 0.62249 0.48734 0.0
Mg182 Mg 0.43121 0.98561 0.51067 0.0
C183 C 0.47559 1.00432 0.51565 0.0
O184 O 0.47188 0.0195 0.51597 0.0
C185 C 0.38888 0.96292 0.47735 0.0
O186 O 0.39384 0.98211 0.48358 0.0
C187 C 0.42258 0.99069 0.6406 0.0
O188 O 0.41535 0.9709 0.63857 0.0
O189 O 0.42947 1.00096 0.59185 0.0
O190 O 0.46038 0.98617 0.51441 0.0
O191 O 0.43451 1.00245 0.42825 0.0
C192 C 0.43209 0.9916 0.38144 0.0
O193 O 0.42891 0.97304 0.38908 0.0
O194 O 0.40203 0.95784 0.49167 0.0
Mg195 Mg 0.78546 0.70289 0.68225 0.0
C196 C 0.8055 0.67834 0.66489 0.0
O197 O 0.78697 0.66663 0.64402 0.0
C198 C 0.78085 0.73981 0.6939 0.0
O199 O 0.76885 0.73074 0.64735 0.0
C200 C 0.76156 0.68212 0.56089 0.0
O201 O 0.7502 0.66582 0.59396 0.0
O202 O 0.77516 0.69822 0.58696 0.0
O203 O 0.81026 0.69594 0.68512 0.0
O204 O 0.76592 0.68589 0.75903 0.0
C205 C 0.7766 0.69326 0.80698 0.0
O206 O 0.79591 0.70718 0.8002 0.0
O207 O 0.79239 0.73321 0.71241 0.0
Mg208 Mg 0.3215 0.09224 0.67455 0.0
C209 C 0.33869 0.13657 0.6769 0.0
O210 O 0.35446 0.13392 0.67019 0.0
C211 C 0.30003 0.0506 0.7162 0.0
O212 O 0.31897 0.05543 0.70482 0.0
C213 C 0.34564 0.09273 0.55539 0.0
O214 O 0.36122 0.09697 0.59074 0.0
O215 O 0.32906 0.08988 0.57924 0.0
O216 O 0.32096 0.12077 0.67988 0.0
O217 O 0.34206 0.09635 0.74967 0.0
C218 C 0.33282 0.09363 0.80049 0.0
O219 O 0.31366 0.08911 0.80008 0.0
O220 O 0.29451 0.06347 0.70261 0.0
Mg221 Mg 0.93573 0.23949 0.69176 0.0
C222 C 0.8917 0.21349 0.68828 0.0
O223 O 0.89545 0.23239 0.68657 0.0
C224 C 0.98025 0.25817 0.69172 0.0
O225 O 0.97657 0.27129 0.66359 0.0
C226 C 0.93995 0.24983 0.55856 0.0
O227 O 0.945 0.23556 0.55932 0.0
O228 O 0.93601 0.25544 0.60887 0.0
O229 O 0.90689 0.21057 0.69017 0.0
O230 O 0.93265 0.25366 0.77322 0.0
C231 C 0.93594 0.24673 0.82196 0.0
O232 O 0.9414 0.23282 0.81767 0.0
O233 O 0.9651 0.24098 0.70658 0.0
Mg234 Mg 0.32089 0.23448 0.18265 0.0
C235 C 0.35044 0.25883 0.29448 0.0
O236 O 0.36512 0.27062 0.25664 0.0
C237 C 0.3503 0.25427 0.07398 0.0
O238 O 0.36123 0.24843 0.10521 0.0
C239 C 0.29354 0.24801 0.22669 0.0
O240 O 0.31217 0.26275 0.23802 0.0
O241 O 0.29115 0.23239 0.19759 0.0
O242 O 0.33356 0.24491 0.27369 0.0
O243 O 0.32298 0.20669 0.17266 0.0
C244 C 0.33983 0.20861 0.19118 0.0
O245 O 0.35319 0.22603 0.21564 0.0
O246 O 0.33395 0.25209 0.09779 0.0
Mg247 Mg 0.78722 0.09177 0.19739 0.0
C248 C 0.81172 0.13665 0.19683 0.0
O249 O 0.79274 0.13271 0.19658 0.0
C250 C 0.77679 0.04771 0.20863 0.0
O251 O 0.76356 0.04563 0.16671 0.0
C252 C 0.78086 0.0826 0.06353 0.0
O253 O 0.79519 0.07828 0.07666 0.0
O254 O 0.77344 0.08817 0.10666 0.0
O255 O 0.81492 0.12164 0.19679 0.0
O256 O 0.77106 0.09359 0.2774 0.0
C257 C 0.7807 0.09426 0.32568 0.0
O258 O 0.798 0.09432 0.31991 0.0
O259 O 0.79032 0.0656 0.22447 0.0
Mg260 Mg 0.9338 0.70485 0.16651 0.0
C261 C 0.89077 0.69133 0.16725 0.0
O262 O 0.89266 0.67502 0.16988 0.0
C263 C 0.97252 0.74359 0.21805 0.0
O264 O 0.95983 0.74646 0.25167 0.0
C265 C 0.93997 0.69779 0.03467 0.0
O266 O 0.95082 0.71778 0.03713 0.0
O267 O 0.93157 0.68799 0.08335 0.0
O268 O 0.90703 0.70872 0.16468 0.0
O269 O 0.92879 0.68702 0.24865 0.0
C270 C 0.926 0.69481 0.29642 0.0
O271 O 0.92579 0.71199 0.29181 0.0
O272 O 0.9654 0.72981 0.17719 0.0
Mg273 Mg 0.57211 0.98104 1.016 0.0
C274 C 0.527 0.97296 1.00316 0.0
O275 O 0.52219 0.95545 0.97756 0.0
C276 C 0.56949 0.94245 0.95922 0.0
O277 O 0.56226 0.94738 0.91211 0.0
C278 C 0.58431 0.98568 0.14626 0.0
O279 O 0.57055 0.96623 0.143 0.0
O280 O 0.58913 0.99627 0.09768 0.0
O281 O 0.54499 0.98418 0.02301 0.0
O282 O 0.58707 0.99709 0.93288 0.0
C283 C 0.57543 0.9924 0.8869 0.0
O284 O 0.55584 0.97967 0.89409 0.0
O285 O 0.5718 0.95192 1.0092 0.0
Mg286 Mg 0.04151 0.59723 0.02664 0.0
C287 C 0.02747 0.55486 0.07245 0.0
O288 O 0.01783 0.56068 0.10987 0.0
C289 C 0.0745 0.64156 1.01445 0.0
O290 O 0.06316 0.64349 0.05629 0.0
C291 C 0.03881 0.60589 0.159 0.0
O292 O 0.05754 0.60915 0.15602 0.0
O293 O 0.02854 0.6018 0.11008 0.0
O294 O 0.03969 0.56748 0.03318 0.0
O295 O 0.02414 0.59401 0.94548 0.0
C296 C 0.03345 0.5926 0.89904 0.0
O297 O 0.05048 0.59235 0.9076 0.0
O298 O 0.07058 0.62374 0.99942 0.0
Mg299 Mg 0.43108 0.45109 1.01733 0.0
C300 C 0.4353 0.44598 0.88849 0.0
O301 O 0.43226 0.46157 0.89243 0.0
C302 C 0.42315 0.43921 0.15004 0.0
O303 O 0.41643 0.45216 0.14702 0.0
C304 C 0.38947 0.43134 0.97344 0.0
O305 O 0.39456 0.41715 0.9772 0.0
O306 O 0.40201 0.44914 0.9929 0.0
O307 O 0.43615 0.43747 0.93744 0.0
O308 O 0.45928 0.48061 0.02193 0.0
C309 C 0.47517 0.47883 0.02269 0.0
O310 O 0.47267 0.46037 0.02163 0.0
O311 O 0.42939 0.43496 0.10137 0.0
Mg312 Mg 0.70774 0.78224 0.84505 0.0
C313 C 0.68766 0.80745 0.83192 0.0
O314 O 0.67339 0.78947 0.8131 0.0
C315 C 0.7434 0.77462 0.84242 0.0
O316 O 0.73269 0.76224 0.88687 0.0
C317 C 0.68263 0.76515 0.96327 0.0
O318 O 0.66947 0.76819 0.93293 0.0
O319 O 0.69897 0.76846 0.93657 0.0
O320 O 0.70482 0.80958 0.84771 0.0
O321 O 0.69006 0.76551 0.76494 0.0
C322 C 0.70004 0.77216 0.71524 0.0
O323 O 0.7189 0.78735 0.71771 0.0
O324 O 0.73787 0.78674 0.82125 0.0
Mg325 Mg 0.24128 0.93069 0.85882 0.0
C326 C 0.21552 0.8867 0.8589 0.0
O327 O 0.23447 0.89059 0.86082 0.0
C328 C 0.26056 0.97477 0.8504 0.0
O329 O 0.27395 0.97094 0.87607 0.0
C330 C 0.2519 0.93714 0.99212 0.0
O331 O 0.23941 0.94441 0.98868 0.0
O332 O 0.25627 0.93096 0.9436 0.0
O333 O 0.21246 0.9018 0.85804 0.0
O334 O 0.25681 0.92831 0.77929 0.0
C335 C 0.25063 0.93209 0.72987 0.0
O336 O 0.23647 0.93725 0.73264 0.0
O337 O 0.24265 0.95985 0.84178 0.0
Mg338 Mg 0.09936 0.32142 0.85348 0.0
C339 C 0.14232 0.33739 0.88856 0.0
O340 O 0.13744 0.34994 0.91481 0.0
C341 C 0.05773 0.29914 0.81352 0.0
O342 O 0.06288 0.31842 0.81849 0.0
C343 C 0.0894 0.32515 0.98306 0.0
O344 O 0.08314 0.30558 0.97965 0.0
O345 O 0.09608 0.33589 0.93498 0.0
O346 O 0.12848 0.32188 0.86058 0.0
O347 O 0.10417 0.33868 0.77071 0.0
C348 C 0.10237 0.32787 0.72427 0.0
O349 O 0.09879 0.30919 0.73266 0.0
O350 O 0.07041 0.29381 0.8311 0.0
Mg351 Mg 0.45332 0.03162 1.00954 0.0
C352 C 0.47203 1.00646 1.00092 0.0
O353 O 0.45222 0.99425 0.99724 0.0
C354 C 0.44268 0.06431 1.01505 0.0
O355 O 0.42782 0.05015 0.98253 0.0
C356 C 0.44263 0.02952 0.87789 0.0
O357 O 0.45789 0.04832 0.88195 0.0
O358 O 0.4364 0.01877 0.92604 0.0
O359 O 0.47869 0.02554 1.00651 0.0
O360 O 0.43742 0.01523 0.09045 0.0
C361 C 0.4455 0.02541 0.13851 0.0
O362 O 0.4611 0.04399 0.13316 0.0
O363 O 0.4577 0.06196 0.02863 0.0
Mg364 Mg 0.99284 0.42713 0.02901 0.0
C365 C 1.00529 0.46942 0.07427 0.0
O366 O 1.01456 0.46392 0.11384 0.0
C367 C 0.96551 0.38313 0.02718 0.0
O368 O 0.98232 0.38629 0.99998 0.0
C369 C 0.9968 0.42167 0.8952 0.0
O370 O 0.97716 0.41502 0.89964 0.0
O371 O 1.0075 0.42732 0.94337 0.0
O372 O 0.99398 0.4567 0.03392 0.0
O373 O 1.0091 0.42573 0.10814 0.0
C374 C 0.9982 0.41987 0.15618 0.0
O375 O 0.979 0.41503 0.15243 0.0
O376 O 0.96381 0.39859 0.04017 0.0
Mg377 Mg 0.6046 0.57141 0.01904 0.0
C378 C 0.5591 0.5474 0.02753 0.0
O379 O 0.56313 0.56612 0.03803 0.0
C380 C 0.64751 0.57767 0.02057 0.0
O381 O 0.6493 0.58881 0.97265 0.0
C382 C 0.59981 0.59166 0.90153 0.0
O383 O 0.58524 0.59208 0.93295 0.0
O384 O 0.61044 0.58505 0.92719 0.0
O385 O 0.57402 0.54435 1.01843 0.0
O386 O 0.60432 0.58877 0.09854 0.0
C387 C 0.60703 0.58165 0.14813 0.0
O388 O 0.60922 0.56554 0.14548 0.0
O389 O 0.6299 0.56661 0.04388 0.0
Mg390 Mg 0.99144 0.57183 0.5262 0.0
C391 C 0.99847 0.58038 0.65738 0.0
O392 O 0.97854 0.56894 0.65456 0.0
C393 C 0.99746 0.58439 0.39389 0.0
O394 O 0.97796 0.57063 0.3939 0.0
C395 C 0.96267 0.58778 0.53197 0.0
O396 O 0.97829 0.60229 0.50231 0.0
O397 O 0.96278 0.57141 0.54416 0.0
O398 O 1.00877 0.58518 0.60822 0.0
O399 O 0.99096 0.54285 0.52027 0.0
C400 C 1.00867 0.54473 0.51997 0.0
O401 O 0.02461 0.56321 0.52218 0.0
O402 O 1.007 0.58886 0.44419 0.0
Mg403 Mg 0.45794 0.42694 0.51578 0.0
C404 C 0.49619 0.4667 0.5498 0.0
O405 O 0.49132 0.45871 0.60454 0.0
C406 C 0.44138 0.38307 0.52796 0.0
O407 O 0.42601 0.38533 0.5109 0.0
C408 C 0.44518 0.42017 0.38494 0.0
O409 O 0.45969 0.41546 0.38501 0.0
O410 O 0.4401 0.42466 0.43534 0.0
O411 O 0.48617 0.45604 0.50434 0.0
O412 O 0.44464 0.43 0.60008 0.0
C413 C 0.44861 0.42305 0.6477 0.0
O414 O 0.45974 0.4143 0.64234 0.0
O415 O 0.45904 0.39887 0.52995 0.0
Mg416 Mg 0.60214 0.0325 0.51484 0.0
C417 C 0.55923 0.01886 0.50993 0.0
O418 O 0.56135 1.00269 0.50739 0.0
C419 C 0.64249 0.07333 0.55776 0.0
O420 O 0.63207 0.08264 0.56772 0.0
C421 C 0.60626 0.02589 0.38241 0.0
O422 O 0.6136 0.0457 0.38384 0.0
O423 O 0.60075 0.01601 0.43225 0.0
O424 O 0.57538 0.03635 0.51245 0.0
O425 O 0.59583 0.01429 0.59652 0.0
C426 C 0.60062 0.0251 0.64449 0.0
O427 O 0.60806 0.04483 0.63929 0.0
O428 O 0.63392 0.05584 0.53265 0.0
Mg429 Mg 0.24116 0.31559 0.34515 0.0
C430 C 0.21631 0.33492 0.3455 0.0
O431 O 0.23541 0.34971 0.34467 0.0
C432 C 0.2383 0.27628 0.29302 0.0
O433 O 0.22932 0.27958 0.24701 0.0
C434 C 0.25463 0.32183 0.47552 0.0
O435 O 0.24365 0.30185 0.47291 0.0
O436 O 0.25721 0.33203 0.42697 0.0
O437 O 0.2128 0.31659 0.3464 0.0
O438 O 0.25616 0.33082 0.26125 0.0
C439 C 0.24438 0.32546 0.21544 0.0
O440 O 0.22475 0.31321 0.22402 0.0
O441 O 0.24184 0.28699 0.34098 0.0
Mg442 Mg 0.70819 0.93051 0.35486 0.0
C443 C 0.6895 0.88568 0.35741 0.0
O444 O 0.67381 0.88861 0.35962 0.0
C445 C 0.74158 0.97488 0.35523 0.0
O446 O 0.72949 0.97571 0.39671 0.0
C447 C 0.70809 0.93407 0.48909 0.0
O448 O 0.7255 0.93514 0.47535 0.0
O449 O 0.69645 0.93272 0.44526 0.0
O450 O 0.70734 0.90127 0.35537 0.0
O451 O 0.6928 0.92965 0.26937 0.0
C452 C 0.70437 0.93146 0.22449 0.0
O453 O 0.72194 0.93263 0.23606 0.0
O454 O 0.73782 0.95751 0.33587 0.0
Mg455 Mg 0.09425 0.78219 0.35692 0.0
C456 C 0.09537 0.77592 0.22683 0.0
O457 O 0.09208 0.79129 0.23262 0.0
C458 C 0.10416 0.7627 0.46464 0.0
O459 O 0.11823 0.76418 0.42653 0.0
C460 C 0.05256 0.76586 0.3131 0.0
O461 O 0.05643 0.75081 0.30966 0.0
O462 O 0.06601 0.78265 0.33652 0.0
O463 O 0.0976 0.7678 0.27491 0.0
O464 O 0.1231 0.81125 0.36023 0.0
C465 C 0.13897 0.81031 0.34611 0.0
O466 O 0.13662 0.79269 0.32853 0.0
O467 O 0.09133 0.76768 0.4461 0.0
C468 C 0.33251 0.09331 0.45102 0.0
C469 C 0.3477 0.09319 0.48757 0.0
C470 C 0.33465 0.09555 0.38758 0.0
C471 C 0.35199 0.09757 0.35733 0.0
H472 H 0.31901 0.09228 0.47159 0.0
H473 H 0.3227 0.09611 0.36221 0.0
S474 S 0.39557 0.09654 0.43086 0.0
N475 N 0.38028 0.09411 0.48797 0.0
N476 N 0.38421 0.09814 0.36881 0.0
C477 C 0.36695 0.0966 0.39287 0.0
C478 C 0.36484 0.09449 0.45782 0.0
C479 C 0.94114 0.2507 0.44458 0.0
C480 C 0.93695 0.25755 0.4994 0.0
C481 C 0.93652 0.25589 0.38795 0.0
C482 C 0.9274 0.2681 0.38356 0.0
H483 H 0.94758 0.24075 0.44521 0.0
H484 H 0.93949 0.24965 0.34742 0.0
S485 S 0.91523 0.29181 0.51295 0.0
N486 N 0.92458 0.27858 0.5453 0.0
N487 N 0.91587 0.2883 0.43905 0.0
C488 C 0.924 0.27587 0.43785 0.0
C489 C 0.92878 0.27062 0.49562 0.0
C490 C 0.77618 0.69723 0.45851 0.0
C491 C 0.76081 0.68112 0.49287 0.0
C492 C 0.77748 0.6959 0.39513 0.0
C493 C 0.7634 0.67846 0.36274 0.0
H494 H 0.78782 0.71082 0.48086 0.0
H495 H 0.79001 0.70855 0.37159 0.0
S496 S 0.71892 0.63273 0.42983 0.0
N497 N 0.73024 0.64765 0.48872 0.0
N498 N 0.73261 0.64521 0.3697 0.0
C499 C 0.74733 0.6626 0.39599 0.0
C500 C 0.74607 0.66391 0.46086 0.0
C501 C 0.1042 0.35633 0.04876 0.0
C502 C 0.09183 0.33505 0.04332 0.0
C503 C 0.10923 0.36581 0.10588 0.0
C504 C 0.10206 0.35444 0.16011 0.0
H505 H 0.11081 0.36575 1.00872 0.0
H506 H 0.11942 0.38215 0.10735 0.0
S507 S 0.06684 0.29851 0.17071 0.0
N508 N 0.07082 0.30307 0.09705 0.0
N509 N 0.08023 0.32085 0.20426 0.0
C510 C 0.08866 0.33327 0.15523 0.0
C511 C 0.08357 0.3236 0.09696 0.0
C512 C 0.69488 0.76489 0.13147 0.0
C513 C 0.67592 0.75798 0.1606 0.0
C514 C 0.69676 0.76618 0.06766 0.0
C515 C 0.6798 0.76088 0.03006 0.0
H516 H 0.70856 0.76983 0.15816 0.0
H517 H 0.71181 0.77219 0.04787 0.0
S518 S 0.62635 0.74018 0.08261 0.0
N519 N 0.63951 0.74435 0.14593 0.0
N520 N 0.64312 0.74705 0.02666 0.0
C521 C 0.66061 0.75317 0.05838 0.0
C522 C 0.65865 0.75163 0.12332 0.0
C523 C 0.27173 0.91583 0.11369 0.0
C524 C 0.2679 0.92305 0.16837 0.0
C525 C 0.26729 0.92113 0.05697 0.0
C526 C 0.25873 0.93383 0.05235 0.0
H527 H 0.27775 0.90553 0.11448 0.0
H528 H 0.26998 0.91463 1.01657 0.0
S529 S 0.24769 0.9586 0.18125 0.0
N530 N 0.25648 0.94492 0.21387 0.0
N531 N 0.2481 0.95485 0.10743 0.0
C532 C 0.25567 0.94193 0.10647 0.0
C533 C 0.26027 0.93657 0.16436 0.0
C534 C 0.71006 0.93025 0.66153 0.0
C535 C 0.69091 0.92672 0.68179 0.0
C536 C 0.71552 0.9333 0.5998 0.0
C537 C 0.70207 0.93282 0.55471 0.0
H538 H 0.72088 0.93021 0.69357 0.0
H539 H 0.73034 0.93552 0.58739 0.0
S540 S 0.65046 0.92546 0.58353 0.0
N541 N 0.65876 0.92403 0.65176 0.0
N542 N 0.66898 0.92961 0.5355 0.0
C543 C 0.68312 0.93009 0.57436 0.0
C544 C 0.67757 0.9271 0.63777 0.0
C545 C 0.11967 0.75254 0.54842 0.0
C546 C 0.10508 0.75777 0.53004 0.0
C547 C 0.12278 0.75009 0.60996 0.0
C548 C 0.11147 0.75276 0.65646 0.0
H549 H 0.12925 0.7508 0.51506 0.0
H550 H 0.13458 0.74654 0.62104 0.0
S551 S 0.07014 0.76489 0.63313 0.0
N552 N 0.07822 0.7643 0.5637 0.0
N553 N 0.0841 0.75971 0.67941 0.0
C554 C 0.09619 0.75714 0.63884 0.0
C555 C 0.09299 0.75963 0.57579 0.0
C556 C 0.2677 0.35309 0.54057 0.0
C557 C 0.26148 0.33227 0.53537 0.0
C558 C 0.27184 0.36274 0.59744 0.0
C559 C 0.27004 0.35203 0.6517 0.0
H560 H 0.2687 0.36193 0.5006 0.0
H561 H 0.27597 0.37864 0.59879 0.0
S562 S 0.25655 0.29775 0.66259 0.0
N563 N 0.25538 0.30162 0.58918 0.0
N564 N 0.26318 0.31973 0.69585 0.0
C565 C 0.26482 0.33144 0.64692 0.0
C566 C 0.26054 0.32158 0.58892 0.0
C567 C 0.91384 0.65679 0.91395 0.0
C568 C 0.92313 0.66697 0.85921 0.0
C569 C 0.91993 0.6666 0.97047 0.0
C570 C 0.93555 0.68708 0.97493 0.0
H571 H 0.90133 0.64121 0.91327 0.0
H572 H 0.91181 0.65818 1.01077 0.0
S573 S 0.96631 0.72009 0.84613 0.0
N574 N 0.94989 0.69833 0.81374 0.0
N575 N 0.96133 0.71676 0.91974 0.0
C576 C 0.94563 0.6972 0.92086 0.0
C577 C 0.93945 0.68716 0.86318 0.0
C578 C 0.37554 0.26624 0.98829 0.0
C579 C 0.35585 0.26072 1.00911 0.0
C580 C 0.38075 0.26973 0.92643 0.0
C581 C 0.3665 0.26771 0.88186 0.0
H582 H 0.38701 0.26741 0.01995 0.0
H583 H 0.39605 0.27347 0.91348 0.0
S584 S 0.31315 0.25499 0.91236 0.0
N585 N 0.32225 0.25459 0.98023 0.0
N586 N 0.33201 0.26097 0.86377 0.0
C587 C 0.34695 0.26302 0.90212 0.0
C588 C 0.34165 0.25959 0.96562 0.0
C589 C 0.76461 0.09807 0.91795 0.0
C590 C 0.76951 0.08825 0.87181 0.0
C591 C 0.7674 0.09548 0.97998 0.0
C592 C 0.77532 0.08304 0.99859 0.0
H593 H 0.75912 0.10836 0.90615 0.0
H594 H 0.76408 0.10394 1.01336 0.0
S595 S 0.78813 0.05182 0.89704 0.0
N596 N 0.78088 0.064 0.85021 0.0
N597 N 0.7862 0.05927 0.96604 0.0
C598 C 0.77934 0.07236 0.95322 0.0
C599 C 0.77643 0.07492 0.89017 0.0
C600 C 0.02795 0.43672 0.82872 0.0
C601 C 1.00664 0.42458 0.83448 0.0
C602 C 0.03748 0.44152 0.77149 0.0
C603 C 0.02613 0.43431 0.71746 0.0
H604 H 0.03739 0.44316 0.86863 0.0
H605 H 0.05387 0.4514 0.76975 0.0
S606 S 0.97001 0.40015 0.70764 0.0
N607 N 0.97456 0.40413 0.7812 0.0
N608 N 0.99244 0.4131 0.6738 0.0
C609 C 1.00488 0.42136 0.72263 0.0
C610 C 0.99515 0.41653 0.78101 0.0
C611 C 0.61333 0.59189 0.73384 0.0
C612 C 0.60276 0.60035 0.70437 0.0
C613 C 0.61301 0.58993 0.79756 0.0
C614 C 0.60205 0.59628 0.83483 0.0
H615 H 0.62141 0.58607 0.70748 0.0
H616 H 0.62084 0.58267 0.81748 0.0
S617 S 0.57394 0.62186 0.78138 0.0
N618 N 0.58258 0.61693 0.71839 0.0
N619 N 0.58191 0.61316 0.83754 0.0
C620 C 0.59227 0.60571 0.80622 0.0
C621 C 0.59264 0.60777 0.74133 0.0
C622 C 0.42425 0.99873 0.81151 0.0
C623 C 0.43502 0.02009 0.81733 0.0
C624 C 0.4195 0.98939 0.75419 0.0
C625 C 0.42524 1.00101 0.70022 0.0
H626 H 0.42021 0.98906 0.85144 0.0
H627 H 0.4119 0.97291 0.7524 0.0
S628 S 0.45106 0.05751 0.69066 0.0
N629 N 0.44939 0.05261 0.76428 0.0
N630 N 0.44044 0.03511 0.65664 0.0
C631 C 0.43488 0.02238 0.70545 0.0
C632 C 0.43978 0.0319 0.76392 0.0
C633 C 0.60747 0.02655 0.26838 0.0
C634 C 0.60256 0.01523 0.32289 0.0
C635 C 0.6023 0.01692 0.21147 0.0
C636 C 0.59194 0.99554 0.20649 0.0
H637 H 0.61488 0.04302 0.26949 0.0
H638 H 0.60586 0.02637 0.17119 0.0
S639 S 0.57758 0.95884 0.33481 0.0
N640 N 0.5882 0.98141 0.3678 0.0
N641 N 0.5785 0.96334 0.26107 0.0
C642 C 0.58781 0.98403 0.26045 0.0
C643 C 0.59312 0.99386 0.31849 0.0
C644 C 0.99739 0.58726 0.28022 0.0
C645 C 1.00843 0.5926 0.3351 0.0
C646 C 1.0073 0.59257 0.22355 0.0
C647 C 0.02873 0.60336 0.21919 0.0
H648 H 0.98089 0.57831 0.28078 0.0
H649 H 0.99805 0.58737 0.18288 0.0
S650 S 0.06483 0.62318 0.34885 0.0
N651 N 0.04209 0.61099 0.38119 0.0
N652 N 0.06067 0.62086 0.27484 0.0
C653 C 0.03997 0.60977 0.27361 0.0
C654 C 0.02985 0.60444 0.33143 0.0
C655 C 0.43838 0.42291 0.21445 0.0
C656 C 0.42615 0.432 0.21016 0.0
C657 C 0.4437 0.41838 0.27104 0.0
C658 C 0.43697 0.42267 0.326 0.0
H659 H 0.44459 0.41992 0.17383 0.0
H660 H 0.45371 0.41203 0.27151 0.0
S661 S 0.40248 0.44411 0.33993 0.0
N662 N 0.40589 0.44343 0.26596 0.0
N663 N 0.41585 0.43491 0.37215 0.0
C664 C 0.42378 0.43071 0.32236 0.0
C665 C 0.41841 0.43539 0.2646 0.0
C666 C 0.33104 0.1735 0.15633 0.0
C667 C 0.34497 0.19211 0.18361 0.0
C668 C 0.33572 0.15789 0.14837 0.0
C669 C 0.35456 0.16018 0.1672 0.0
H670 H 0.31635 0.17089 0.14098 0.0
H671 H 0.32435 0.14385 0.12732 0.0
S672 S 0.39654 0.20599 0.24094 0.0
N673 N 0.37863 0.21194 0.22941 0.0
N674 N 0.38728 0.18267 0.21423 0.0
C675 C 0.3687 0.17875 0.19424 0.0
C676 C 0.36394 0.19465 0.20253 0.0
C677 C 0.84916 0.1623 0.19854 0.0
C678 C 0.82889 0.15816 0.19746 0.0
C679 C 0.8656 0.18238 0.1991 0.0
C680 C 0.86256 0.1993 0.19855 0.0
H681 H 0.85246 0.14993 0.19892 0.0
H682 H 0.88086 0.18457 0.19978 0.0
S683 S 0.81244 0.19696 0.19613 0.0
N684 N 0.80667 0.17286 0.1962 0.0
N685 N 0.83758 0.21049 0.19717 0.0
C686 C 0.84237 0.19543 0.19766 0.0
C687 C 0.82557 0.17494 0.19712 0.0
C688 C 0.85287 0.66913 0.17583 0.0
C689 C 0.86993 0.68878 0.16744 0.0
C690 C 0.83289 0.66575 0.17531 0.0
C691 C 0.82897 0.68183 0.16615 0.0
H692 H 0.85486 0.65608 0.18285 0.0
H693 H 0.82043 0.6503 0.18177 0.0
S694 S 0.8682 0.73634 0.14295 0.0
N695 N 0.88151 0.72464 0.15051 0.0
N696 N 0.84403 0.71839 0.14933 0.0
C697 C 0.84589 0.70164 0.15811 0.0
C698 C 0.8663 0.70508 0.15885 0.0
C699 C 0.16303 0.32831 0.34114 0.0
C700 C 0.16669 0.3485 0.34195 0.0
C701 C 0.17906 0.32405 0.34238 0.0
C702 C 0.19952 0.3398 0.34443 0.0
H703 H 0.14759 0.31553 0.33975 0.0
H704 H 0.17533 0.30826 0.3417 0.0
S705 S 0.21751 0.39541 0.34711 0.0
N706 N 0.19243 0.38443 0.34477 0.0
N707 N 0.22256 0.37659 0.34707 0.0
C708 C 0.20344 0.36011 0.34506 0.0
C709 C 0.18707 0.36442 0.34381 0.0
C710 C 0.6619 0.82758 0.35886 0.0
C711 C 0.67778 0.82309 0.35487 0.0
C712 C 0.66592 0.84779 0.35983 0.0
C713 C 0.686 0.86447 0.35677 0.0
H714 H 0.64617 0.81539 0.36138 0.0
H715 H 0.65306 0.85028 0.36298 0.0
S716 S 0.73318 0.86117 0.34521 0.0
N717 N 0.71455 0.83721 0.34745 0.0
N718 N 0.72199 0.87505 0.34925 0.0
C719 C 0.70206 0.86024 0.35271 0.0
C720 C 0.69798 0.83963 0.35176 0.0
C721 C 0.19702 0.84215 0.34329 0.0
C722 C 0.20107 0.86173 0.36004 0.0
C723 C 0.17696 0.82581 0.3387 0.0
C724 C 0.15998 0.82823 0.35095 0.0
H725 H 0.20945 0.83942 0.33302 0.0
H726 H 0.17481 0.81109 0.32542 0.0
S727 S 0.16215 0.87629 0.39833 0.0
N728 N 0.18626 0.88254 0.39011 0.0
N729 N 0.14868 0.85182 0.38157 0.0
C730 C 0.16378 0.84769 0.36827 0.0
C731 C 0.18424 0.86439 0.37278 0.0
C732 C 0.69291 0.85836 0.87729 0.0
C733 C 0.67478 0.85711 0.85584 0.0
C734 C 0.69706 0.84245 0.86859 0.0
C735 C 0.68324 0.82446 0.83819 0.0
H736 H 0.70415 0.8718 0.90121 0.0
H737 H 0.71117 0.84423 0.88649 0.0
S738 S 0.63368 0.81353 0.77154 0.0
N739 N 0.643 0.83643 0.80171 0.0
N740 N 0.65068 0.80649 0.78534 0.0
C741 C 0.66506 0.823 0.81606 0.0
C742 C 0.66086 0.83928 0.82488 0.0
C743 C 0.17805 0.8608 0.85684 0.0
C744 C 0.1984 0.86516 0.85754 0.0
C745 C 0.16175 0.84061 0.85569 0.0
C746 C 0.16505 0.82385 0.85514 0.0
H747 H 0.1746 0.87306 0.85729 0.0
H748 H 0.1464 0.8382 0.85532 0.0
S749 S 0.21548 0.82683 0.856 0.0
N750 N 0.22094 0.85082 0.85719 0.0
N751 N 0.19036 0.81308 0.85503 0.0
C752 C 0.18533 0.82797 0.85564 0.0
C753 C 0.20195 0.84853 0.85684 0.0
C754 C 0.17654 0.35359 0.93768 0.0
C755 C 0.16403 0.3427 0.8883 0.0
C756 C 0.19752 0.36047 0.93733 0.0
C757 C 0.20702 0.35725 0.88686 0.0
H758 H 0.17005 0.35683 0.97718 0.0
H759 H 0.20641 0.36856 0.97683 0.0
S760 S 0.18116 0.3297 0.74553 0.0
N761 N 0.16264 0.3289 0.78753 0.0
N762 N 0.20219 0.34223 0.7861 0.0
C763 C 0.19472 0.34646 0.8369 0.0
C764 C 0.17321 0.33904 0.83786 0.0
C765 C 0.81767 0.65617 0.61894 0.0
C766 C 0.82035 0.67097 0.66238 0.0
C767 C 0.83138 0.6489 0.61422 0.0
C768 C 0.84814 0.65576 0.65361 0.0
H769 H 0.80507 0.65042 0.58724 0.0
H770 H 0.8289 0.63791 0.57898 0.0
S771 S 0.86153 0.69373 0.77735 0.0
N772 N 0.84078 0.69187 0.7467 0.0
N773 N 0.86637 0.6779 0.73881 0.0
C774 C 0.85072 0.67016 0.69847 0.0
C775 C 0.83692 0.67787 0.7025 0.0
C776 C 0.36588 0.19469 0.67932 0.0
C777 C 0.34998 0.19894 0.68789 0.0
C778 C 0.362 0.17454 0.67598 0.0
C779 C 0.34204 0.15769 0.681 0.0
H780 H 0.38148 0.20701 0.67475 0.0
H781 H 0.37486 0.17222 0.66913 0.0
S782 S 0.29492 0.16036 0.70518 0.0
N783 N 0.31334 0.1844 0.70237 0.0
N784 N 0.3062 0.14672 0.69594 0.0
C785 C 0.326 0.16169 0.69004 0.0
C786 C 0.32992 0.18222 0.69352 0.0
C787 C 0.84585 0.15963 0.69609 0.0
C788 C 0.82897 0.16272 0.69364 0.0
C789 C 0.86599 0.17601 0.69403 0.0
C790 C 0.87019 0.19626 0.68937 0.0
H791 H 0.84359 0.14438 0.69984 0.0
H792 H 0.87834 0.17273 0.69636 0.0
S793 S 0.83148 0.21276 0.68028 0.0
N794 N 0.81789 0.18769 0.68557 0.0
N795 N 0.85555 0.21845 0.68158 0.0
C796 C 0.85343 0.1996 0.68654 0.0
C797 C 0.83291 0.18287 0.68873 0.0
C798 C 0.03535 0.51337 0.52112 0.0
C799 C 0.0192 0.49311 0.5184 0.0
C800 C 0.03172 0.52982 0.52122 0.0
C801 C 1.01177 0.52679 0.5186 0.0
H802 H 0.05098 0.51662 0.52355 0.0
H803 H 0.04477 0.54508 0.52373 0.0
S804 S 0.96403 0.47674 0.50936 0.0
N805 N 0.98233 0.47097 0.51188 0.0
N806 N 0.97564 0.50186 0.51216 0.0
C807 C 0.99546 0.50662 0.51532 0.0
C808 C 0.99914 0.48983 0.5152 0.0
C809 C 0.52754 0.49807 0.58475 0.0
C810 C 0.51157 0.48863 0.54259 0.0
C811 C 0.54155 0.51903 0.58177 0.0
C812 C 0.53988 0.53156 0.53747 0.0
H813 H 0.52926 0.48917 0.62041 0.0
H814 H 0.55364 0.52553 0.61518 0.0
S815 S 0.50061 0.51444 0.4168 0.0
N816 N 0.49489 0.49341 0.45482 0.0
N817 N 0.52097 0.53295 0.45027 0.0
C818 C 0.52392 0.52237 0.49516 0.0
C819 C 0.50987 0.50088 0.49737 0.0
C820 C 0.52124 0.99608 0.50786 0.0
C821 C 0.53824 0.01599 0.51121 0.0
C822 C 0.50117 0.99245 0.50973 0.0
C823 C 0.49709 1.00856 0.51496 0.0
H824 H 0.52336 0.98301 0.50376 0.0
H825 H 0.48876 0.97685 0.50677 0.0
S826 S 0.53609 0.06365 0.52601 0.0
N827 N 0.54956 0.05206 0.52046 0.0
N828 N 0.51196 0.0454 0.52397 0.0
C829 C 0.51395 0.0286 0.51849 0.0
C830 C 0.53444 0.03228 0.5166 0.0
C831 C 0.50635 1.00959 1.01825 0.0
C832 C 0.48586 0.99772 1.00051 0.0
C833 C 0.51935 1.00134 0.01995 0.0
C834 C 0.51248 0.98089 1.00352 0.0
H835 H 0.51241 0.02535 0.03146 0.0
H836 H 0.535 0.01122 0.03379 0.0
S837 S 0.46017 0.94333 0.95285 0.0
N838 N 0.45932 0.96436 0.96565 0.0
N839 N 0.48371 0.94902 0.96874 0.0
C840 C 0.49203 0.96887 0.98554 0.0
C841 C 0.47876 0.97723 0.98405 0.0
C842 C 0.01956 0.52252 1.01863 0.0
C843 C 0.02252 0.53332 0.07329 0.0
C844 C 1.01308 0.50156 0.01901 0.0
C845 C 1.00985 0.49086 0.07409 0.0
H846 H 0.02185 0.53021 0.97531 0.0
H847 H 1.01109 0.49381 0.976 0.0
S848 S 1.01579 0.51226 0.22938 0.0
N849 N 0.02158 0.53173 0.18368 0.0
N850 N 1.0102 0.49268 0.18448 0.0
C851 C 1.01295 0.50157 0.12889 0.0
C852 C 0.01906 0.52271 0.12848 0.0
C853 C 0.51313 0.49365 0.02179 0.0
C854 C 0.49627 0.49679 0.024 0.0
C855 C 0.53326 0.51001 0.02273 0.0
C856 C 0.53753 0.5303 0.02622 0.0
H857 H 0.51084 0.47837 0.01919 0.0
H858 H 0.54558 0.50665 0.021 0.0
S859 S 0.49896 0.547 0.03226 0.0
N860 N 0.48529 0.52189 0.02925 0.0
N861 N 0.52302 0.55263 0.03121 0.0
C862 C 0.52082 0.53371 0.02836 0.0
C863 C 0.50027 0.517 0.02719 0.0
C864 C 0.44428 0.08394 0.10882 0.0
C865 C 0.43911 0.07953 0.047 0.0
C866 C 0.43643 0.09399 0.14407 0.0
C867 C 0.42364 0.1005 0.11841 0.0
H868 H 0.45316 0.07826 0.1313 0.0
H869 H 0.43966 0.09585 0.19236 0.0
S870 S 0.40709 0.09418 0.95719 0.0
N871 N 0.42146 0.08352 0.96086 0.0
N872 N 0.40729 0.1029 0.02617 0.0
C873 C 0.4196 0.09746 0.05562 0.0
C874 C 0.4272 0.08685 0.02019 0.0
C875 C 0.94385 0.32712 0.05886 0.0
C876 C 0.93378 0.3242 0.11492 0.0
C877 C 0.95244 0.34581 0.02826 0.0
C878 C 0.95155 0.36251 0.05267 0.0
H879 H 0.94588 0.31507 0.03965 0.0
H880 H 0.96086 0.34748 0.98667 0.0
S881 S 0.92501 0.36205 0.19557 0.0
N882 N 0.92171 0.3388 0.19134 0.0
N883 N 0.93808 0.37424 0.13415 0.0
C884 C 0.94019 0.35935 0.10664 0.0
C885 C 0.93127 0.34011 0.13777 0.0
C886 C 0.68291 0.59238 0.1558 0.0
C887 C 0.70239 0.60213 0.12853 0.0
C888 C 0.66509 0.58274 0.12065 0.0
C889 C 0.66602 0.58272 0.05667 0.0
H890 H 0.68132 0.59319 0.20456 0.0
H891 H 0.65055 0.57664 0.14376 0.0
S892 S 0.71302 0.60252 0.96319 0.0
N893 N 0.72139 0.60819 0.03376 0.0
N894 N 0.6879 0.59071 0.96791 0.0
C895 C 0.68532 0.59082 0.02909 0.0
C896 C 0.70349 0.60031 0.06494 0.0
C897 C 0.09167 0.43289 0.44179 0.0
C898 C 0.08221 0.42569 0.49898 0.0
C899 C 0.10004 0.4227 0.40938 0.0
C900 C 0.09912 0.40504 0.43328 0.0
H901 H 0.09135 0.44555 0.42002 0.0
H902 H 0.10595 0.42782 0.36391 0.0
S903 S 0.07939 0.38218 0.5851 0.0
N904 N 0.07513 0.40151 0.58116 0.0
N905 N 0.09044 0.38236 0.5201 0.0
C906 C 0.09122 0.39875 0.49218 0.0
C907 C 0.08289 0.4091 0.52514 0.0
C908 C 0.59471 0.67523 0.37355 0.0
C909 C 0.60383 0.69473 0.40019 0.0
C910 C 0.58603 0.65746 0.40934 0.0
C911 C 0.5865 0.6585 0.47334 0.0
H912 H 0.5952 0.67369 0.32467 0.0
H913 H 0.5803 0.64292 0.38662 0.0
S914 S 0.6061 0.70555 0.56568 0.0
N915 N 0.61063 0.71379 0.49466 0.0
N916 N 0.59484 0.68046 0.56169 0.0
C917 C 0.59424 0.67778 0.50045 0.0
C918 C 0.60274 0.69587 0.46398 0.0
C919 C 0.3349 0.92202 0.43664 0.0
C920 C 0.33192 0.92952 0.38109 0.0
C921 C 0.35398 0.93189 0.46629 0.0
C922 C 0.37054 0.9495 0.44119 0.0
H923 H 0.32213 0.90939 0.45944 0.0
H924 H 0.35536 0.92655 0.51078 0.0
S925 S 0.3716 0.97322 0.29263 0.0
N926 N 0.34801 0.95399 0.2989 0.0
N927 N 0.38337 0.97261 0.35498 0.0
C928 C 0.3681 0.95612 0.38379 0.0
C929 C 0.34893 0.94608 0.35357 0.0
C930 C 0.59429 0.93182 0.99354 0.0
C931 C 0.58025 0.93068 0.94971 0.0
C932 C 0.60837 0.92549 0.98023 0.0
C933 C 0.60886 0.91743 0.92295 0.0
H934 H 0.59541 0.93891 0.03724 0.0
H935 H 0.61963 0.92782 1.01437 0.0
S936 S 0.5732 0.90783 0.79574 0.0
N937 N 0.56607 0.91839 0.84896 0.0
N938 N 0.59252 0.90632 0.8246 0.0
C939 C 0.59376 0.91441 0.88064 0.0
C940 C 0.57947 0.92108 0.89388 0.0
C941 C 0.10671 0.69667 0.96425 0.0
C942 C 0.1058 0.69518 0.90032 0.0
C943 C 0.09765 0.67915 1.00117 0.0
C944 C 0.08785 0.65948 0.97569 0.0
H945 H 0.11315 0.71144 0.98601 0.0
H946 H 0.09753 0.68102 0.05 0.0
S947 S 0.08344 0.64739 0.81082 0.0
N948 N 0.0957 0.67255 0.81325 0.0
N949 N 0.07933 0.63965 0.88236 0.0
C950 C 0.08824 0.65782 0.91192 0.0
C951 C 0.09703 0.67566 0.87434 0.0
C952 C 0.35442 0.42688 0.96083 0.0
C953 C 0.37163 0.42711 0.93574 0.0
C954 C 0.33581 0.41813 0.92876 0.0
C955 C 0.33389 0.40931 0.8708 0.0
H956 H 0.35494 0.43221 1.00686 0.0
H957 H 0.32256 0.41704 0.95128 0.0
S958 S 0.37574 0.40949 0.78183 0.0
N959 N 0.38636 0.42019 0.8472 0.0
N960 N 0.35179 0.40409 0.78687 0.0
C961 C 0.35158 0.41112 0.84362 0.0
C962 C 0.37033 0.41989 0.87619 0.0
C963 C 0.93007 0.59354 0.65345 0.0
C964 C 0.92578 0.60793 0.62732 0.0
C965 C 0.94057 0.58565 0.62046 0.0
C966 C 0.94771 0.59242 0.56088 0.0
H967 H 0.92589 0.58886 0.70033 0.0
H968 H 0.94425 0.57523 0.64321 0.0
S969 S 0.94035 0.62979 0.47193 0.0
N970 N 0.92908 0.62816 0.53777 0.0
N971 N 0.94908 0.61378 0.47664 0.0
C972 C 0.94292 0.60628 0.53377 0.0
C973 C 0.93191 0.61395 0.56677 0.0
C974 C 0.44865 0.36246 0.60351 0.0
C975 C 0.43708 0.36326 0.5546 0.0
C976 C 0.44223 0.34428 0.63662 0.0
C977 C 0.42404 0.32622 0.62195 0.0
H978 H 0.46216 0.3762 0.61841 0.0
H979 H 0.45117 0.34464 0.67544 0.0
S980 S 0.3899 0.31981 0.49207 0.0
N981 N 0.40782 0.34403 0.48927 0.0
N982 N 0.39578 0.31008 0.55048 0.0
C983 C 0.4131 0.32665 0.57059 0.0
C984 C 0.41961 0.34509 0.53724 0.0
C985 C 0.6774 0.10071 0.59268 0.0
C986 C 0.66206 0.08006 0.59004 0.0
C987 C 0.69606 0.10674 0.62248 0.0
C988 C 0.69983 0.09236 0.65165 0.0
H989 H 0.67518 0.11218 0.57026 0.0
H990 H 0.70775 0.12269 0.6214 0.0
S991 S 0.66313 0.03676 0.66575 0.0
N992 N 0.65115 0.04554 0.62399 0.0
N993 N 0.68554 0.05676 0.68108 0.0
C994 C 0.68407 0.07182 0.65189 0.0
C995 C 0.66539 0.0657 0.62085 0.0
C996 C 0.759 0.77289 0.74348 0.0
C997 C 0.75766 0.77037 0.80715 0.0
C998 C 0.768 0.76424 0.70722 0.0
C999 C 0.77646 0.75315 0.7332 0.0
H1000 H 0.75171 0.78025 0.72091 0.0
H1001 H 0.76735 0.76531 0.65821 0.0
S1002 S 0.77964 0.74487 0.8984 0.0
N1003 N 0.76747 0.75784 0.89505 0.0
N1004 N 0.7849 0.74212 0.82726 0.0
C1005 C 0.77688 0.75214 0.79715 0.0
C1006 C 0.76733 0.76059 0.83399 0.0
C1007 C 0.28741 0.01117 0.83855 0.0
C1008 C 0.26788 0.99524 0.82267 0.0
C1009 C 0.29706 0.02938 0.80543 0.0
C1010 C 0.28756 0.03266 0.7554 0.0
H1011 H 0.29582 1.00925 0.87525 0.0
H1012 H 0.31246 0.04078 0.81795 0.0
S1013 S 0.23565 0.99706 0.69856 0.0
N1014 N 0.23867 0.98474 0.75601 0.0
N1015 N 0.2569 0.01938 0.69438 0.0
C1016 C 0.26749 0.01763 0.74145 0.0
C1017 C 0.25762 0.99882 0.77499 0.0
C1018 C 0.02308 0.26782 0.80129 0.0
C1019 C 0.03954 0.28566 0.77685 0.0
C1020 C 1.00411 0.25778 0.7711 0.0
C1021 C 1.00112 0.26531 0.71561 0.0
H1022 H 0.02444 0.26241 0.84568 0.0
H1023 H 0.9914 0.24494 0.79339 0.0
S1024 S 0.04072 0.30952 0.62846 0.0
N1025 N 0.05238 0.30898 0.69111 0.0
N1026 N 0.01722 0.29008 0.63404 0.0
C1027 C 0.01807 0.28213 0.6887 0.0
C1028 C 0.03715 0.29233 0.71947 0.0
C1029 C 0.26057 0.24769 0.20987 0.0
C1030 C 0.27633 0.25032 0.24893 0.0
C1031 C 0.24717 0.25473 0.22644 0.0
C1032 C 0.24897 0.26444 0.28288 0.0
H1033 H 0.25949 0.24153 0.16468 0.0
H1034 H 0.23612 0.25359 0.19325 0.0
S1035 S 0.28564 0.27146 0.40528 0.0
N1036 N 0.2915 0.26091 0.3489 0.0
N1037 N 0.26616 0.27351 0.38092 0.0
C1038 C 0.26352 0.26531 0.32436 0.0
C1039 C 0.27727 0.25847 0.30706 0.0
C1040 C 0.75522 0.9925 0.25552 0.0
C1041 C 0.75503 0.99352 0.3195 0.0
C1042 C 0.76355 1.01027 0.21971 0.0
C1043 C 0.77252 0.02972 0.24644 0.0
H1044 H 0.74752 0.97787 0.23276 0.0
H1045 H 0.7621 1.00871 0.1707 0.0
S1046 S 0.77804 0.04068 0.41209 0.0
N1047 N 0.7659 0.01554 0.40806 0.0
N1048 N 0.78226 0.04891 0.34104 0.0
C1049 C 0.77387 0.03096 0.31036 0.0
C1050 C 0.76492 0.01286 0.34679 0.0
C1051 C 0.02501 0.74951 0.23611 0.0
C1052 C 0.03352 0.76314 0.28512 0.0
C1053 C 1.00595 0.74446 0.21212 0.0
C1054 C 0.9943 0.75254 0.23664 0.0
H1055 H 0.03296 0.74226 0.21676 0.0
H1056 H 0.99996 0.73332 0.17582 0.0
S1057 S 1.01072 0.79069 0.36121 0.0
N1058 N 0.02978 0.78611 0.35393 0.0
N1059 N 0.99366 0.77639 0.30975 0.0
C1060 C 1.00315 0.76711 0.28358 0.0
C1061 C 0.02281 0.77247 0.30755 0.0
C1062 C 0.33974 0.09111 0.97044 0.0
C1063 C 0.36037 0.10567 0.97923 0.0
C1064 C 0.33122 0.08675 0.91198 0.0
C1065 C 0.34306 0.0965 0.85993 0.0
H1066 H 0.32989 0.08359 1.00907 0.0
H1067 H 0.31507 0.07593 0.90769 0.0
S1068 S 0.39827 0.13445 0.85738 0.0
N1069 N 0.39277 0.12901 0.93013 0.0
N1070 N 0.37672 0.12033 0.82056 0.0
C1071 C 0.36392 0.11025 0.86765 0.0
C1072 C 0.37256 0.11499 0.92723 0.0
C1073 C 0.93086 0.24823 0.99339 0.0
C1074 C 0.92155 0.26011 1.00103 0.0
C1075 C 0.93596 0.2445 0.93538 0.0
C1076 C 0.93208 0.25264 0.88274 0.0
H1077 H 0.93366 0.2412 0.0323 0.0
H1078 H 0.94262 0.23479 0.93189 0.0
S1079 S 0.91014 0.28683 0.87901 0.0
N1080 N 0.91021 0.28147 0.95176 0.0
N1081 N 0.91981 0.2745 0.84276 0.0
C1082 C 0.92364 0.26535 0.89005 0.0
C1083 C 0.91835 0.26906 0.94916 0.0
C1084 C 0.77471 0.6913 0.97961 0.0
C1085 C 0.75462 0.67607 0.99319 0.0
C1086 C 0.78134 0.69675 0.9195 0.0
C1087 C 0.76822 0.68729 0.86978 0.0
H1088 H 0.78574 0.6987 1.01562 0.0
H1089 H 0.79712 0.70831 0.91225 0.0
S1090 S 0.71342 0.64803 0.88015 0.0
N1091 N 0.72106 0.65269 0.9516 0.0
N1092 N 0.73365 0.663 0.83841 0.0
C1093 C 0.74781 0.6727 0.88247 0.0
C1094 C 0.74098 0.66711 0.94409 0.0
C1095 C 0.11592 0.35723 0.65193 0.0
C1096 C 0.10488 0.33609 0.6619 0.0
C1097 C 0.11995 0.36524 0.59286 0.0
C1098 C 0.11283 0.35243 0.54154 0.0
H1099 H 0.12204 0.36768 0.68991 0.0
H1100 H 0.12891 0.38164 0.58752 0.0
S1101 S 0.08135 0.29599 0.54342 0.0
N1102 N 0.08569 0.30247 0.61581 0.0
N1103 N 0.09298 0.31759 0.50483 0.0
C1104 C 0.10098 0.33129 0.55096 0.0
C1105 C 0.09711 0.32311 0.61113 0.0
C1106 C 0.66938 0.7582 0.64782 0.0
C1107 C 0.69028 0.76526 0.65481 0.0
C1108 C 0.66066 0.7551 0.5898 0.0
C1109 C 0.67239 0.75869 0.53637 0.0
H1110 H 0.65988 0.75606 0.68724 0.0
H1111 H 0.64463 0.75041 0.58697 0.0
S1112 S 0.72734 0.77468 0.53042 0.0
N1113 N 0.72218 0.77391 0.60374 0.0
N1114 N 0.70569 0.76789 0.49484 0.0
C1115 C 0.69304 0.7645 0.54288 0.0
C1116 C 0.70199 0.76785 0.60203 0.0
C1117 C 0.25056 0.9339 0.61648 0.0
C1118 C 0.25777 0.92926 0.6697 0.0
C1119 C 0.25532 0.92968 0.5587 0.0
C1120 C 0.26743 0.92057 0.55171 0.0
H1121 H 0.24072 0.94043 0.61926 0.0
H1122 H 0.24886 0.93297 0.51937 0.0
S1123 S 0.29203 0.90745 0.67601 0.0
N1124 N 0.27902 0.91653 0.71136 0.0
N1125 N 0.28802 0.90862 0.60274 0.0
C1126 C 0.27556 0.91672 0.60435 0.0
C1127 C 0.27073 0.92107 0.66331 0.0
C1128 C 0.71469 0.94104 0.11607 0.0
C1129 C 0.69895 0.93221 0.15989 0.0
C1130 C 0.7105 0.94044 0.05375 0.0
C1131 C 0.69035 0.93071 0.03231 0.0
H1132 H 0.73052 0.94828 0.12989 0.0
H1133 H 0.72319 0.94707 0.02206 0.0
S1134 S 0.64352 0.90664 0.12825 0.0
N1135 N 0.66238 0.91461 0.17758 0.0
N1136 N 0.65437 0.91319 0.06044 0.0
C1137 C 0.67441 0.92243 0.07575 0.0
C1138 C 0.67873 0.92329 0.13947 0.0
C1139 C 0.10969 0.76031 0.15616 0.0
C1140 C 0.09764 0.76937 0.16518 0.0
C1141 C 0.11413 0.75644 0.09737 0.0
C1142 C 0.10653 0.76126 0.04524 0.0
H1143 H 0.11645 0.75695 0.19461 0.0
H1144 H 0.12402 0.75 0.09288 0.0
S1145 S 0.07205 0.78282 0.04479 0.0
N1146 N 0.07659 0.78137 0.11749 0.0
N1147 N 0.08489 0.77399 1.0071 0.0
C1148 C 0.09351 0.76927 0.05381 0.0
C1149 C 0.08911 0.77337 0.11373 0.0
C1150 C 0.27179 0.34971 0.14472 0.0
C1151 C 0.25249 0.33237 0.15326 0.0
C1152 C 0.27914 0.35722 0.08626 0.0
C1153 C 0.26757 0.34757 0.03404 0.0
H1154 H 0.28105 0.35793 0.1835 0.0
H1155 H 0.29381 0.37105 0.08216 0.0
S1156 S 0.21694 0.3003 0.03156 0.0
N1157 N 0.22258 0.30476 0.10443 0.0
N1158 N 0.23642 0.31883 0.99473 0.0
C1159 C 0.24868 0.3296 0.04185 0.0
C1160 C 0.24111 0.32205 0.10141 0.0
C1161 C 0.92383 0.68794 0.46762 0.0
C1162 C 0.91455 0.66669 0.47469 0.0
C1163 C 0.9277 0.69687 0.40968 0.0
C1164 C 0.92279 0.68494 0.3566 0.0
H1165 H 0.9277 0.69775 0.50704 0.0
H1166 H 0.93454 0.71328 0.4065 0.0
S1167 S 0.89893 0.6287 0.34974 0.0
N1168 N 0.9008 0.63393 0.4231 0.0
N1169 N 0.90867 0.6509 0.31457 0.0
C1170 C 0.91406 0.66376 0.36285 0.0
C1171 C 0.90977 0.6546 0.42179 0.0
C1172 C 0.37743 0.26998 0.44685 0.0
C1173 C 0.36132 0.26097 0.48945 0.0
C1174 C 0.37378 0.26989 0.38436 0.0
C1175 C 0.35383 0.26035 0.36144 0.0
H1176 H 0.39313 0.27719 0.46183 0.0
H1177 H 0.38675 0.27685 0.35373 0.0
S1178 S 0.30619 0.23473 0.45373 0.0
N1179 N 0.32465 0.24277 0.50446 0.0
N1180 N 0.3176 0.24192 0.3868 0.0
C1181 C 0.33751 0.25147 0.40361 0.0
C1182 C 0.34129 0.25196 0.46758 0.0
C1183 C 0.77832 0.09605 0.49829 0.0
C1184 C 0.7637 0.10193 0.50871 0.0
C1185 C 0.78321 0.09309 0.43897 0.0
C1186 C 0.77352 0.09563 0.38766 0.0
H1187 H 0.78672 0.09463 0.53594 0.0
H1188 H 0.79509 0.08922 0.43342 0.0
S1189 S 0.73228 0.10848 0.39114 0.0
N1190 N 0.73824 0.10847 0.46331 0.0
N1191 N 0.74735 0.10272 0.35202 0.0
C1192 C 0.75805 0.10038 0.39773 0.0
C1193 C 0.75318 0.10359 0.45817 0.0
C1194 C 0.02868 0.43428 0.22382 0.0
C1195 C 1.00751 0.42189 0.2167 0.0
C1196 C 0.03748 0.43911 0.2817 0.0
C1197 C 0.02546 0.43172 0.33478 0.0
H1198 H 0.03849 0.44109 0.18459 0.0
H1199 H 0.05379 0.44932 0.28464 0.0
S1200 S 0.96955 0.39613 0.34039 0.0
N1201 N 0.97494 0.40042 0.2672 0.0
N1202 N 0.99148 0.40957 0.37606 0.0
C1203 C 1.00441 0.41824 0.32817 0.0
C1204 C 0.99544 0.41332 0.26913 0.0
C1205 C 0.59307 0.59818 0.21675 0.0
C1206 C 0.60538 0.58938 0.20873 0.0
C1207 C 0.58838 0.60212 0.27521 0.0
C1208 C 0.59596 0.59759 0.32802 0.0
H1209 H 0.5861 0.60105 0.17788 0.0
H1210 H 0.57812 0.60815 0.27895 0.0
S1211 S 0.63148 0.57728 0.33101 0.0
N1212 N 0.62698 0.57834 0.25803 0.0
N1213 N 0.61821 0.58584 0.36772 0.0
C1214 C 0.60949 0.59015 0.32038 0.0
C1215 C 0.61415 0.58599 0.26082 0.0
C1216 C 0.44288 0.02084 0.30993 0.0
C1217 C 0.43338 0.99971 0.31944 0.0
C1218 C 0.44595 0.02894 0.25112 0.0
C1219 C 0.4394 0.01619 0.19965 0.0
H1220 H 0.44866 0.03129 0.348 0.0
H1221 H 0.45396 0.04537 0.24598 0.0
S1222 S 0.41151 0.95963 0.20037 0.0
N1223 N 0.41591 0.96605 0.2728 0.0
N1224 N 0.42147 0.98132 0.16227 0.0
C1225 C 0.42884 0.99498 0.20864 0.0
C1226 C 0.42594 0.98673 0.26854 0.0
C1227 C 0.5721 0.98935 0.77421 0.0
C1228 C 0.58346 1.00026 0.82545 0.0
C1229 C 0.57839 0.99691 0.71522 0.0
C1230 C 0.59604 0.01583 0.70553 0.0
H1231 H 0.55805 0.97496 0.77967 0.0
H1232 H 0.56885 0.98834 0.67727 0.0
S1233 S 0.63214 0.04953 0.82338 0.0
N1234 N 0.61406 0.03019 0.86209 0.0
N1235 N 0.62563 0.04467 0.75111 0.0
C1236 C 0.60798 0.02653 0.756 0.0
C1237 C 0.60176 0.01866 0.81605 0.0
C1238 C 0.99716 0.58464 0.76955 0.0
C1239 C 1.0085 0.58558 0.71752 0.0
C1240 C 1.00549 0.58743 0.82796 0.0
C1241 C 0.02538 0.59097 0.83667 0.0
H1242 H 0.98159 0.58144 0.76526 0.0
H1243 H 0.99605 0.58628 0.86659 0.0
S1244 S 0.06169 0.59554 0.71497 0.0
N1245 N 0.0409 0.59108 0.67819 0.0
N1246 N 0.0565 0.59594 0.78774 0.0
C1247 C 0.03706 0.5924 0.7848 0.0
C1248 C 0.02865 0.58984 0.7253 0.0
C1249 C 0.43815 0.44237 0.71694 0.0
C1250 C 0.44329 0.42709 0.70901 0.0
C1251 C 0.43535 0.44811 0.77511 0.0
C1252 C 0.43746 0.43871 0.82779 0.0
H1253 H 0.4369 0.45047 0.67806 0.0
H1254 H 0.43179 0.46024 0.77861 0.0
S1255 S 0.44863 0.39628 0.83146 0.0
N1256 N 0.44885 0.40153 0.75848 0.0
N1257 N 0.44356 0.4123 0.86784 0.0
C1258 C 0.44174 0.4228 0.82042 0.0
C1259 C 0.44466 0.41699 0.76107 0.0
loop_
_geom_bond_atom_site_label_1
_geom_bond_atom_site_label_2
_geom_bond_distance
_geom_bond_site_symmetry_2
_ccdc_geom_bond_type
Mg0 O7 2.141 . S
Mg0 O8 2.048 . S
Mg0 O9 2.048 . S
Mg0 O12 2.141 . S
C1 O2 1.313 . S
C1 O8 1.195 . S
O2 C1 1.313 . S
C3 O4 1.245 . S
C3 O12 1.289 . S
O4 C3 1.245 . S
C5 O6 1.245 . S
C5 O7 1.289 . S
O6 C5 1.245 . S
O7 Mg0 2.141 . S
O7 C5 1.289 . S
O8 Mg0 2.048 . S
O8 C1 1.195 . S
O9 Mg0 2.048 . S
O9 C10 1.195 . S
C10 O9 1.195 . S
C10 O11 1.313 . S
O11 C10 1.313 . S
O12 Mg0 2.141 . S
O12 C3 1.289 . S
Mg13 O20 2.141 . S
Mg13 O21 2.048 . S
Mg13 O22 2.048 . S
Mg13 O25 2.141 . S
C14 O15 1.313 . S
C14 O21 1.195 . S
O15 C14 1.313 . S
C16 O17 1.245 . S
C16 O25 1.289 . S
O17 C16 1.245 . S
C18 O19 1.245 . S
C18 O20 1.289 . S
O19 C18 1.245 . S
O20 Mg13 2.141 . S
O20 C18 1.289 . S
O21 Mg13 2.048 . S
O21 C14 1.195 . S
O22 Mg13 2.048 . S
O22 C23 1.195 . S
C23 O22 1.195 . S
C23 O24 1.313 . S
O24 C23 1.313 . S
O25 Mg13 2.141 . S
O25 C16 1.289 . S
Mg26 O33 2.141 . S
Mg26 O34 2.048 . S
Mg26 O35 2.048 . S
Mg26 O38 2.141 . S
C27 O28 1.313 . S
C27 O34 1.195 . S
O28 C27 1.313 . S
C29 O30 1.245 . S
C29 O38 1.289 . S
O30 C29 1.245 . S
C31 O32 1.245 . S
C31 O33 1.289 . S
O32 C31 1.245 . S
O33 Mg26 2.141 . S
O33 C31 1.289 . S
O34 Mg26 2.048 . S
O34 C27 1.195 . S
O35 Mg26 2.048 . S
O35 C36 1.195 . S
C36 O35 1.195 . S
C36 O37 1.313 . S
O37 C36 1.313 . S
O38 Mg26 2.141 . S
O38 C29 1.289 . S
Mg39 O46 2.141 . S
Mg39 O47 2.048 . S
Mg39 O48 2.048 . S
Mg39 O51 2.141 . S
C40 O41 1.313 . S
C40 O47 1.195 . S
O41 C40 1.313 . S
C42 O43 1.245 . S
C42 O51 1.289 . S
O43 C42 1.245 . S
C44 O45 1.245 . S
C44 O46 1.289 . S
O45 C44 1.245 . S
O46 Mg39 2.141 . S
O46 C44 1.289 . S
O47 Mg39 2.048 . S
O47 C40 1.195 . S
O48 Mg39 2.048 . S
O48 C49 1.195 . S
C49 O48 1.195 . S
C49 O50 1.313 . S
O50 C49 1.313 . S
O51 Mg39 2.141 . S
O51 C42 1.289 . S
Mg52 O59 2.141 . S
Mg52 O60 2.048 . S
Mg52 O61 2.048 . S
Mg52 O64 2.141 . S
C53 O54 1.313 . S
C53 O60 1.195 . S
O54 C53 1.313 . S
C55 O56 1.245 . S
C55 O64 1.289 . S
O56 C55 1.245 . S
C57 O58 1.245 . S
C57 O59 1.289 . S
O58 C57 1.245 . S
O59 Mg52 2.141 . S
O59 C57 1.289 . S
O60 Mg52 2.048 . S
O60 C53 1.195 . S
O61 Mg52 2.048 . S
O61 C62 1.195 . S
C62 O61 1.195 . S
C62 O63 1.313 . S
O63 C62 1.313 . S
O64 Mg52 2.141 . S
O64 C55 1.289 . S
Mg65 O72 2.141 . S
Mg65 O73 2.048 . S
Mg65 O74 2.048 . S
Mg65 O77 2.141 . S
C66 O67 1.313 . S
C66 O73 1.195 . S
O67 C66 1.313 . S
C68 O69 1.245 . S
C68 O77 1.289 . S
O69 C68 1.245 . S
C70 O71 1.245 . S
C70 O72 1.289 . S
O71 C70 1.245 . S
O72 Mg65 2.141 . S
O72 C70 1.289 . S
O73 Mg65 2.048 . S
O73 C66 1.195 . S
O74 Mg65 2.048 . S
O74 C75 1.195 . S
C75 O74 1.195 . S
C75 O76 1.313 . S
O76 C75 1.313 . S
O77 Mg65 2.141 . S
O77 C68 1.289 . S
Mg78 O85 2.141 . S
Mg78 O86 2.048 . S
Mg78 O87 2.048 . S
Mg78 O90 2.141 . S
C79 O80 1.313 . S
C79 O86 1.195 . S
O80 C79 1.313 . S
C81 O82 1.245 . S
C81 O90 1.289 . S
O82 C81 1.245 . S
C83 O84 1.245 . S
C83 O85 1.289 . S
O84 C83 1.245 . S
O85 Mg78 2.141 . S
O85 C83 1.289 . S
O86 Mg78 2.048 . S
O86 C79 1.195 . S
O87 Mg78 2.048 . S
O87 C88 1.195 . S
C88 O87 1.195 . S
C88 O89 1.313 . S
O89 C88 1.313 . S
O90 Mg78 2.141 . S
O90 C81 1.289 . S
Mg91 O98 2.141 . S
Mg91 O99 2.048 . S
Mg91 O100 2.048 . S
Mg91 O103 2.141 . S
C92 O93 1.313 . S
C92 O99 1.195 . S
O93 C92 1.313 . S
C94 O95 1.245 . S
C94 O103 1.289 . S
O95 C94 1.245 . S
C96 O97 1.245 . S
C96 O98 1.289 . S
O97 C96 1.245 . S
O98 Mg91 2.141 . S
O98 C96 1.289 . S
O99 Mg91 2.048 . S
O99 C92 1.195 . S
O100 Mg91 2.048 . S
O100 C101 1.195 . S
C101 O100 1.195 . S
C101 O102 1.313 . S
O102 C101 1.313 . S
O103 Mg91 2.141 . S
O103 C94 1.289 . S
Mg104 O111 2.141 . S
Mg104 O112 2.048 . S
Mg104 O113 2.048 . S
Mg104 O116 2.141 . S
C105 O106 1.313 . S
C105 O112 1.195 . S
O106 C105 1.313 . S
C107 O108 1.245 . S
C107 O116 1.289 . S
O108 C107 1.245 . S
C109 O110 1.245 . S
C109 O111 1.289 . S
O110 C109 1.245 . S
O111 Mg104 2.141 . S
O111 C109 1.289 . S
O112 Mg104 2.048 . S
O112 C105 1.195 . S
O113 Mg104 2.048 . S
O113 C114 1.195 . S
C114 O113 1.195 . S
C114 O115 1.313 . S
O115 C114 1.313 . S
O116 Mg104 2.141 . S
O116 C107 1.289 . S
Mg117 O124 2.141 . S
Mg117 O125 2.048 . S
Mg117 O126 2.048 . S
Mg117 O129 2.141 . S
C118 O119 1.313 . S
C118 O125 1.195 . S
O119 C118 1.313 . S
C120 O121 1.245 . S
C120 O129 1.289 . S
O121 C120 1.245 . S
C122 O123 1.245 . S
C122 O124 1.289 . S
O123 C122 1.245 . S
O124 Mg117 2.141 . S
O124 C122 1.289 . S
O125 Mg117 2.048 . S
O125 C118 1.195 . S
O126 Mg117 2.048 . S
O126 C127 1.195 . S
C127 O126 1.195 . S
C127 O128 1.313 . S
O128 C127 1.313 . S
O129 Mg117 2.141 . S
O129 C120 1.289 . S
Mg130 O137 2.141 . S
Mg130 O138 2.048 . S
Mg130 O139 2.048 . S
Mg130 O142 2.141 . S
C131 O132 1.313 . S
C131 O138 1.195 . S
O132 C131 1.313 . S
C133 O134 1.245 . S
C133 O142 1.289 . S
O134 C133 1.245 . S
C135 O136 1.245 . S
C135 O137 1.289 . S
O136 C135 1.245 . S
O137 Mg130 2.141 . S
O137 C135 1.289 . S
O138 Mg130 2.048 . S
O138 C131 1.195 . S
O139 Mg130 2.048 . S
O139 C140 1.195 . S
C140 O139 1.195 . S
C140 O141 1.313 . S
O141 C140 1.313 . S
O142 Mg130 2.141 . S
O142 C133 1.289 . S
Mg143 O150 2.141 . S
Mg143 O151 2.048 . S
Mg143 O152 2.048 . S
Mg143 O155 2.141 . S
C144 O145 1.313 . S
C144 O151 1.195 . S
O145 C144 1.313 . S
C146 O147 1.245 . S
C146 O155 1.289 . S
O147 C146 1.245 . S
C148 O149 1.245 . S
C148 O150 1.289 . S
O149 C148 1.245 . S
O150 Mg143 2.141 . S
O150 C148 1.289 . S
O151 Mg143 2.048 . S
O151 C144 1.195 . S
O152 Mg143 2.048 . S
O152 C153 1.195 . S
C153 O152 1.195 . S
C153 O154 1.313 . S
O154 C153 1.313 . S
O155 Mg143 2.141 . S
O155 C146 1.289 . S
Mg156 O163 2.141 . S
Mg156 O164 2.048 . S
Mg156 O165 2.048 . S
Mg156 O168 2.141 . S
C157 O158 1.313 . S
C157 O164 1.195 1_655 S
O158 C157 1.313 . S
C159 O160 1.190 1_455 S
C159 O168 1.289 . S
O160 C159 1.190 1_655 S
C161 O162 1.245 1_455 S
C161 O163 1.289 . S
O162 C161 1.245 1_655 S
O163 Mg156 2.141 . S
O163 C161 1.289 . S
O164 Mg156 2.048 . S
O164 C157 1.195 1_455 S
O165 Mg156 2.048 . S
O165 C166 1.195 . S
C166 O165 1.195 . S
C166 O167 1.313 1_455 S
O167 C166 1.313 1_655 S
O168 Mg156 2.141 . S
O168 C159 1.289 . S
Mg169 O176 2.141 . S
Mg169 O177 2.048 . S
Mg169 O178 2.048 . S
Mg169 O181 2.141 . S
C170 O171 1.313 . S
C170 O177 1.195 . S
O171 C170 1.313 . S
C172 O173 1.245 . S
C172 O181 1.289 . S
O173 C172 1.245 . S
C174 O175 1.245 . S
C174 O176 1.289 . S
O175 C174 1.245 . S
O176 Mg169 2.141 . S
O176 C174 1.289 . S
O177 Mg169 2.048 . S
O177 C170 1.195 . S
O178 Mg169 2.048 . S
O178 C179 1.195 . S
C179 O178 1.195 . S
C179 O180 1.313 . S
O180 C179 1.313 . S
O181 Mg169 2.141 . S
O181 C172 1.289 . S
Mg182 O189 2.141 . S
Mg182 O190 2.048 . S
Mg182 O191 2.048 . S
Mg182 O194 2.141 . S
C183 O184 1.313 . S
C183 O190 1.195 1_545 S
O184 C183 1.313 . S
C185 O186 1.245 1_565 S
C185 O194 1.289 . S
O186 C185 1.245 1_545 S
C187 O188 1.245 1_565 S
C187 O189 1.289 . S
O188 C187 1.245 1_545 S
O189 Mg182 2.141 . S
O189 C187 1.289 . S
O190 Mg182 2.048 . S
O190 C183 1.195 1_565 S
O191 Mg182 2.048 . S
O191 C192 1.195 . S
C192 O191 1.195 . S
C192 O193 1.313 1_565 S
O193 C192 1.313 1_545 S
O194 Mg182 2.141 . S
O194 C185 1.289 . S
Mg195 O202 2.141 . S
Mg195 O203 2.048 . S
Mg195 O204 2.048 . S
Mg195 O207 2.141 . S
C196 O197 1.313 . S
C196 O203 1.195 . S
O197 C196 1.313 . S
C198 O199 1.245 . S
C198 O207 1.289 . S
O199 C198 1.245 . S
C200 O201 1.245 . S
C200 O202 1.289 . S
O201 C200 1.245 . S
O202 Mg195 2.141 . S
O202 C200 1.289 . S
O203 Mg195 2.048 . S
O203 C196 1.195 . S
O204 Mg195 2.048 . S
O204 C205 1.195 . S
C205 O204 1.195 . S
C205 O206 1.313 . S
O206 C205 1.313 . S
O207 Mg195 2.141 . S
O207 C198 1.289 . S
Mg208 O215 2.141 . S
Mg208 O216 2.048 . S
Mg208 O217 2.048 . S
Mg208 O220 2.141 . S
C209 O210 1.313 . S
C209 O216 1.195 . S
O210 C209 1.313 . S
C211 O212 1.245 . S
C211 O220 1.289 . S
O212 C211 1.245 . S
C213 O214 1.245 . S
C213 O215 1.289 . S
O214 C213 1.245 . S
O215 Mg208 2.141 . S
O215 C213 1.289 . S
O216 Mg208 2.048 . S
O216 C209 1.195 . S
O217 Mg208 2.048 . S
O217 C218 1.195 . S
C218 O217 1.195 . S
C218 O219 1.313 . S
O219 C218 1.313 . S
O220 Mg208 2.141 . S
O220 C211 1.289 . S
Mg221 O228 2.141 . S
Mg221 O229 2.048 . S
Mg221 O230 2.048 . S
Mg221 O233 2.141 . S
C222 O223 1.313 . S
C222 O229 1.195 . S
O223 C222 1.313 . S
C224 O225 1.245 . S
C224 O233 1.289 . S
O225 C224 1.245 . S
C226 O227 1.245 . S
C226 O228 1.289 . S
O227 C226 1.245 . S
O228 Mg221 2.141 . S
O228 C226 1.289 . S
O229 Mg221 2.048 . S
O229 C222 1.195 . S
O230 Mg221 2.048 . S
O230 C231 1.195 . S
C231 O230 1.195 . S
C231 O232 1.313 . S
O232 C231 1.313 . S
O233 Mg221 2.141 . S
O233 C224 1.289 . S
Mg234 O241 2.141 . S
Mg234 O242 2.048 . S
Mg234 O243 2.048 . S
Mg234 O246 2.141 . S
C235 O236 1.313 . S
C235 O242 1.195 . S
O236 C235 1.313 . S
C237 O238 1.245 . S
C237 O246 1.289 . S
O238 C237 1.245 . S
C239 O240 1.245 . S
C239 O241 1.289 . S
O240 C239 1.245 . S
O241 Mg234 2.141 . S
O241 C239 1.289 . S
O242 Mg234 2.048 . S
O242 C235 1.195 . S
O243 Mg234 2.048 . S
O243 C244 1.195 . S
C244 O243 1.195 . S
C244 O245 1.313 . S
O245 C244 1.313 . S
O246 Mg234 2.141 . S
O246 C237 1.289 . S
Mg247 O254 2.141 . S
Mg247 O255 2.048 . S
Mg247 O256 2.048 . S
Mg247 O259 2.141 . S
C248 O249 1.313 . S
C248 O255 1.195 . S
O249 C248 1.313 . S
C250 O251 1.245 . S
C250 O259 1.289 . S
O251 C250 1.245 . S
C252 O253 1.245 . S
C252 O254 1.289 . S
O253 C252 1.245 . S
O254 Mg247 2.141 . S
O254 C252 1.289 . S
O255 Mg247 2.048 . S
O255 C248 1.195 . S
O256 Mg247 2.048 . S
O256 C257 1.195 . S
C257 O256 1.195 . S
C257 O258 1.313 . S
O258 C257 1.313 . S
O259 Mg247 2.141 . S
O259 C250 1.289 . S
Mg260 O267 2.141 . S
Mg260 O268 2.048 . S
Mg260 O269 2.048 . S
Mg260 O272 2.141 . S
C261 O262 1.313 . S
C261 O268 1.195 . S
O262 C261 1.313 . S
C263 O264 1.245 . S
C263 O272 1.289 . S
O264 C263 1.245 . S
C265 O266 1.245 . S
C265 O267 1.289 . S
O266 C265 1.245 . S
O267 Mg260 2.141 . S
O267 C265 1.289 . S
O268 Mg260 2.048 . S
O268 C261 1.195 . S
O269 Mg260 2.048 . S
O269 C270 1.195 . S
C270 O269 1.195 . S
C270 O271 1.313 . S
O271 C270 1.313 . S
O272 Mg260 2.141 . S
O272 C263 1.289 . S
Mg273 O280 2.142 . S
Mg273 O281 2.065 . S
Mg273 O282 2.049 1_554 S
Mg273 O285 2.125 1_544 S
C274 O275 1.313 1_544 S
C274 O281 1.195 . S
O275 C274 1.313 1_566 S
C276 O277 1.245 . S
C276 O285 1.289 . S
O277 C276 1.245 . S
C278 O279 1.245 . S
C278 O280 1.274 1_565 S
O279 C278 1.245 . S
O280 Mg273 2.142 . S
O280 C278 1.274 1_545 S
O281 Mg273 2.065 . S
O281 C274 1.195 . S
O282 Mg273 2.049 1_556 S
O282 C283 1.195 1_545 S
C283 O282 1.195 1_565 S
C283 O284 1.313 . S
O284 C283 1.313 . S
O285 Mg273 2.125 1_566 S
O285 C276 1.289 . S
Mg286 O293 2.141 . S
Mg286 O294 2.045 . S
Mg286 O295 2.048 1_554 S
Mg286 O298 2.145 1_654 S
C287 O288 1.313 1_654 S
C287 O294 1.195 . S
O288 C287 1.313 1_456 S
C289 O290 1.245 . S
C289 O298 1.289 . S
O290 C289 1.245 . S
C291 O292 1.245 . S
C291 O293 1.273 1_455 S
O292 C291 1.245 . S
O293 Mg286 2.141 . S
O293 C291 1.273 1_655 S
O294 Mg286 2.045 . S
O294 C287 1.195 . S
O295 Mg286 2.048 1_556 S
O295 C296 1.151 1_655 S
C296 O295 1.151 1_455 S
C296 O297 1.313 . S
O297 C296 1.313 . S
O298 Mg286 2.145 1_456 S
O298 C289 1.289 . S
Mg299 O306 2.141 1_554 S
Mg299 O307 2.035 1_554 S
Mg299 O308 2.049 . S
Mg299 O311 2.155 . S
C300 O301 1.313 . S
C300 O307 1.195 . S
O301 C300 1.313 . S
C302 O303 1.245 . S
C302 O311 1.289 . S
O303 C302 1.245 . S
C304 O305 1.245 . S
C304 O306 1.289 . S
O305 C304 1.245 . S
O306 Mg299 2.141 1_556 S
O306 C304 1.289 . S
O307 Mg299 2.035 1_556 S
O307 C300 1.195 . S
O308 Mg299 2.049 . S
O308 C309 1.195 . S
C309 O308 1.195 . S
C309 O310 1.313 1_554 S
O310 C309 1.313 1_556 S
O311 Mg299 2.155 . S
O311 C302 1.289 . S
Mg312 O319 2.141 . S
Mg312 O320 2.048 . S
Mg312 O321 2.048 . S
Mg312 O324 2.141 . S
C313 O314 1.313 . S
C313 O320 1.195 . S
O314 C313 1.313 . S
C315 O316 1.245 . S
C315 O324 1.289 . S
O316 C315 1.245 . S
C317 O318 1.245 . S
C317 O319 1.289 . S
O318 C317 1.245 . S
O319 Mg312 2.141 . S
O319 C317 1.289 . S
O320 Mg312 2.048 . S
O320 C313 1.195 . S
O321 Mg312 2.048 . S
O321 C322 1.195 . S
C322 O321 1.195 . S
C322 O323 1.313 . S
O323 C322 1.313 . S
O324 Mg312 2.141 . S
O324 C315 1.289 . S
Mg325 O332 2.141 . S
Mg325 O333 2.048 . S
Mg325 O334 2.048 . S
Mg325 O337 2.141 . S
C326 O327 1.313 . S
C326 O333 1.195 . S
O327 C326 1.313 . S
C328 O329 1.245 . S
C328 O337 1.289 . S
O329 C328 1.245 . S
C330 O331 1.245 . S
C330 O332 1.289 . S
O331 C330 1.245 . S
O332 Mg325 2.141 . S
O332 C330 1.289 . S
O333 Mg325 2.048 . S
O333 C326 1.195 . S
O334 Mg325 2.048 . S
O334 C335 1.195 . S
C335 O334 1.195 . S
C335 O336 1.313 . S
O336 C335 1.313 . S
O337 Mg325 2.141 . S
O337 C328 1.289 . S
Mg338 O345 2.141 . S
Mg338 O346 2.048 . S
Mg338 O347 2.048 . S
Mg338 O350 2.141 . S
C339 O340 1.313 . S
C339 O346 1.195 . S
O340 C339 1.313 . S
C341 O342 1.245 . S
C341 O350 1.289 . S
O342 C341 1.245 . S
C343 O344 1.245 . S
C343 O345 1.289 . S
O344 C343 1.245 . S
O345 Mg338 2.141 . S
O345 C343 1.289 . S
O346 Mg338 2.048 . S
O346 C339 1.195 . S
O347 Mg338 2.048 . S
O347 C348 1.195 . S
C348 O347 1.195 . S
C348 O349 1.313 . S
O349 C348 1.313 . S
O350 Mg338 2.141 . S
O350 C341 1.289 . S
Mg351 O358 2.155 . S
Mg351 O359 2.049 . S
Mg351 O360 2.034 1_556 S
Mg351 O363 2.141 1_556 S
C352 O353 1.313 1_556 S
C352 O359 1.195 1_565 S
O353 C352 1.313 1_554 S
C354 O355 1.245 . S
C354 O363 1.289 . S
O355 C354 1.245 . S
C356 O357 1.245 1_545 S
C356 O358 1.289 . S
O357 C356 1.245 1_565 S
O358 Mg351 2.155 . S
O358 C356 1.289 . S
O359 Mg351 2.049 . S
O359 C352 1.195 1_545 S
O360 Mg351 2.034 1_554 S
O360 C361 1.195 . S
C361 O360 1.195 . S
C361 O362 1.313 1_545 S
O362 C361 1.313 1_565 S
O363 Mg351 2.141 1_554 S
O363 C354 1.289 . S
Mg364 O371 2.155 . S
Mg364 O372 2.049 . S
Mg364 O373 2.034 1_556 S
Mg364 O376 2.141 1_556 S
C365 O366 1.313 1_556 S
C365 O372 1.195 1_455 S
O366 C365 1.313 1_554 S
C367 O368 1.245 . S
C367 O376 1.289 . S
O368 C367 1.245 . S
C369 O370 1.245 1_655 S
C369 O371 1.289 . S
O370 C369 1.245 1_455 S
O371 Mg364 2.155 . S
O371 C369 1.289 . S
O372 Mg364 2.049 . S
O372 C365 1.195 1_655 S
O373 Mg364 2.034 1_554 S
O373 C374 1.195 . S
C374 O373 1.195 . S
C374 O375 1.313 1_655 S
O375 C374 1.313 1_455 S
O376 Mg364 2.141 1_554 S
O376 C367 1.289 . S
Mg377 O384 2.155 . S
Mg377 O385 2.049 . S
Mg377 O386 2.035 1_556 S
Mg377 O389 2.141 1_556 S
C378 O379 1.313 1_556 S
C378 O385 1.195 . S
O379 C378 1.313 1_554 S
C380 O381 1.245 . S
C380 O389 1.289 . S
O381 C380 1.245 . S
C382 O383 1.245 . S
C382 O384 1.289 . S
O383 C382 1.245 . S
O384 Mg377 2.155 . S
O384 C382 1.289 . S
O385 Mg377 2.049 . S
O385 C378 1.195 . S
O386 Mg377 2.035 1_554 S
O386 C387 1.195 . S
C387 O386 1.195 . S
C387 O388 1.313 . S
O388 C387 1.313 . S
O389 Mg377 2.141 1_554 S
O389 C380 1.289 . S
Mg390 O397 2.141 . S
Mg390 O398 2.048 . S
Mg390 O399 2.048 . S
Mg390 O402 2.141 . S
C391 O392 1.313 1_655 S
C391 O398 1.195 . S
O392 C391 1.313 1_455 S
C393 O394 1.245 1_655 S
C393 O402 1.289 . S
O394 C393 1.245 1_455 S
C395 O396 1.245 1_655 S
C395 O397 1.289 . S
O396 C395 1.245 1_455 S
O397 Mg390 2.141 . S
O397 C395 1.289 . S
O398 Mg390 2.048 . S
O398 C391 1.195 . S
O399 Mg390 2.048 . S
O399 C400 1.195 1_655 S
C400 O399 1.195 1_455 S
C400 O401 1.313 . S
O401 C400 1.313 . S
O402 Mg390 2.141 . S
O402 C393 1.289 . S
Mg403 O410 2.141 . S
Mg403 O411 2.048 . S
Mg403 O412 2.048 . S
Mg403 O415 2.141 . S
C404 O405 1.313 . S
C404 O411 1.195 . S
O405 C404 1.313 . S
C406 O407 1.245 . S
C406 O415 1.289 . S
O407 C406 1.245 . S
C408 O409 1.245 . S
C408 O410 1.289 . S
O409 C408 1.245 . S
O410 Mg403 2.141 . S
O410 C408 1.289 . S
O411 Mg403 2.048 . S
O411 C404 1.195 . S
O412 Mg403 2.048 . S
O412 C413 1.195 . S
C413 O412 1.195 . S
C413 O414 1.313 . S
O414 C413 1.313 . S
O415 Mg403 2.141 . S
O415 C406 1.289 . S
Mg416 O423 2.141 . S
Mg416 O424 2.048 . S
Mg416 O425 2.048 . S
Mg416 O428 2.141 1_565 S
C417 O418 1.313 1_565 S
C417 O424 1.195 . S
O418 C417 1.313 1_545 S
C419 O420 1.245 . S
C419 O428 1.289 . S
O420 C419 1.245 . S
C421 O422 1.245 . S
C421 O423 1.289 1_545 S
O422 C421 1.245 . S
O423 Mg416 2.141 . S
O423 C421 1.289 1_565 S
O424 Mg416 2.048 . S
O424 C417 1.195 . S
O425 Mg416 2.048 . S
O425 C426 1.195 1_565 S
C426 O425 1.195 1_545 S
C426 O427 1.313 . S
O427 C426 1.313 . S
O428 Mg416 2.141 1_545 S
O428 C419 1.289 . S
Mg429 O436 2.141 . S
Mg429 O437 2.048 . S
Mg429 O438 2.048 . S
Mg429 O441 2.141 . S
C430 O431 1.313 . S
C430 O437 1.195 . S
O431 C430 1.313 . S
C432 O433 1.245 . S
C432 O441 1.289 . S
O433 C432 1.245 . S
C434 O435 1.245 . S
C434 O436 1.289 . S
O435 C434 1.245 . S
O436 Mg429 2.141 . S
O436 C434 1.289 . S
O437 Mg429 2.048 . S
O437 C430 1.195 . S
O438 Mg429 2.048 . S
O438 C439 1.195 . S
C439 O438 1.195 . S
C439 O440 1.313 . S
O440 C439 1.313 . S
O441 Mg429 2.141 . S
O441 C432 1.289 . S
Mg442 O449 2.141 . S
Mg442 O450 2.048 . S
Mg442 O451 2.048 . S
Mg442 O454 2.141 . S
C443 O444 1.313 . S
C443 O450 1.195 . S
O444 C443 1.313 . S
C445 O446 1.245 . S
C445 O454 1.289 . S
O446 C445 1.245 . S
C447 O448 1.245 . S
C447 O449 1.289 . S
O448 C447 1.245 . S
O449 Mg442 2.141 . S
O449 C447 1.289 . S
O450 Mg442 2.048 . S
O450 C443 1.195 . S
O451 Mg442 2.048 . S
O451 C452 1.195 . S
C452 O451 1.195 . S
C452 O453 1.313 . S
O453 C452 1.313 . S
O454 Mg442 2.141 . S
O454 C445 1.289 . S
Mg455 O462 2.141 . S
Mg455 O463 2.048 . S
Mg455 O464 2.048 . S
Mg455 O467 2.141 . S
C456 O457 1.313 . S
C456 O463 1.195 . S
O457 C456 1.313 . S
C458 O459 1.245 . S
C458 O467 1.289 . S
O459 C458 1.245 . S
C460 O461 1.245 . S
C460 O462 1.289 . S
O461 C460 1.245 . S
O462 Mg455 2.141 . S
O462 C460 1.289 . S
O463 Mg455 2.048 . S
O463 C456 1.195 . S
O464 Mg455 2.048 . S
O464 C465 1.195 . S
C465 O464 1.195 . S
C465 O466 1.313 . S
O466 C465 1.313 . S
O467 Mg455 2.141 . S
O467 C458 1.289 . S
C468 C469 1.369 . S
C468 C470 1.419 . S
C468 H472 0.930 . S
C469 C468 1.369 . S
C469 C478 1.429 . S
C470 C468 1.419 . S
C470 C471 1.363 . S
C470 H473 0.929 . S
C471 C470 1.363 . S
C471 C477 1.428 . S
H472 C468 0.930 . S
H473 C470 0.929 . S
S474 N475 1.613 . S
S474 N476 1.610 . S
N475 S474 1.613 . S
N475 C478 1.350 . S
N476 S474 1.610 . S
N476 C477 1.351 . S
C477 C471 1.428 . S
C477 N476 1.351 . S
C477 C478 1.434 . S
C478 C469 1.429 . S
C478 N475 1.350 . S
C478 C477 1.434 . S
C479 C480 1.369 . S
C479 C481 1.419 . S
C479 H483 0.930 . S
C480 C479 1.369 . S
C480 C489 1.429 . S
C481 C479 1.419 . S
C481 C482 1.363 . S
C481 H484 0.929 . S
C482 C481 1.363 . S
C482 C488 1.428 . S
H483 C479 0.930 . S
H484 C481 0.929 . S
S485 N486 1.613 . S
S485 N487 1.610 . S
N486 S485 1.613 . S
N486 C489 1.350 . S
N487 S485 1.610 . S
N487 C488 1.351 . S
C488 C482 1.428 . S
C488 N487 1.351 . S
C488 C489 1.434 . S
C489 C480 1.429 . S
C489 N486 1.350 . S
C489 C488 1.434 . S
C490 C491 1.369 . S
C490 C492 1.419 . S
C490 H494 0.930 . S
C491 C490 1.369 . S
C491 C500 1.429 . S
C492 C490 1.419 . S
C492 C493 1.363 . S
C492 H495 0.929 . S
C493 C492 1.363 . S
C493 C499 1.428 . S
H494 C490 0.930 . S
H495 C492 0.929 . S
S496 N497 1.613 . S
S496 N498 1.610 . S
N497 S496 1.613 . S
N497 C500 1.350 . S
N498 S496 1.610 . S
N498 C499 1.351 . S
C499 C493 1.428 . S
C499 N498 1.351 . S
C499 C500 1.434 . S
C500 C491 1.429 . S
C500 N497 1.350 . S
C500 C499 1.434 . S
C501 C502 1.369 . S
C501 C503 1.419 . S
C501 H505 0.930 . S
C502 C501 1.369 . S
C502 C511 1.429 . S
C503 C501 1.419 . S
C503 C504 1.363 . S
C503 H506 0.929 . S
C504 C503 1.363 . S
C504 C510 1.428 . S
H505 C501 0.930 . S
H506 C503 0.929 . S
S507 N508 1.613 . S
S507 N509 1.610 . S
N508 S507 1.613 . S
N508 C511 1.350 . S
N509 S507 1.610 . S
N509 C510 1.351 . S
C510 C504 1.428 . S
C510 N509 1.351 . S
C510 C511 1.434 . S
C511 C502 1.429 . S
C511 N508 1.350 . S
C511 C510 1.434 . S
C512 C513 1.369 . S
C512 C514 1.419 . S
C512 H516 0.930 . S
C513 C512 1.369 . S
C513 C522 1.429 . S
C514 C512 1.419 . S
C514 C515 1.363 . S
C514 H517 0.929 . S
C515 C514 1.363 . S
C515 C521 1.428 . S
H516 C512 0.930 . S
H517 C514 0.929 . S
S518 N519 1.613 . S
S518 N520 1.610 . S
N519 S518 1.613 . S
N519 C522 1.350 . S
N520 S518 1.610 . S
N520 C521 1.351 . S
C521 C515 1.428 . S
C521 N520 1.351 . S
C521 C522 1.434 . S
C522 C513 1.429 . S
C522 N519 1.350 . S
C522 C521 1.434 . S
C523 C524 1.369 . S
C523 C525 1.419 . S
C523 H527 0.930 . S
C524 C523 1.369 . S
C524 C533 1.429 . S
C525 C523 1.419 . S
C525 C526 1.363 . S
C525 H528 0.929 . S
C526 C525 1.363 . S
C526 C532 1.428 . S
H527 C523 0.930 . S
H528 C525 0.929 . S
S529 N530 1.613 . S
S529 N531 1.610 . S
N530 S529 1.613 . S
N530 C533 1.350 . S
N531 S529 1.610 . S
N531 C532 1.351 . S
C532 C526 1.428 . S
C532 N531 1.351 . S
C532 C533 1.434 . S
C533 C524 1.429 . S
C533 N530 1.350 . S
C533 C532 1.434 . S
C534 C535 1.369 . S
C534 C536 1.419 . S
C534 H538 0.930 . S
C535 C534 1.369 . S
C535 C544 1.429 . S
C536 C534 1.419 . S
C536 C537 1.363 . S
C536 H539 0.929 . S
C537 C536 1.363 . S
C537 C543 1.428 . S
H538 C534 0.930 . S
H539 C536 0.929 . S
S540 N541 1.613 . S
S540 N542 1.610 . S
N541 S540 1.613 . S
N541 C544 1.350 . S
N542 S540 1.610 . S
N542 C543 1.351 . S
C543 C537 1.428 . S
C543 N542 1.351 . S
C543 C544 1.434 . S
C544 C535 1.429 . S
C544 N541 1.350 . S
C544 C543 1.434 . S
C545 C546 1.369 . S
C545 C547 1.419 . S
C545 H549 0.930 . S
C546 C545 1.369 . S
C546 C555 1.429 . S
C547 C545 1.419 . S
C547 C548 1.363 . S
C547 H550 0.929 . S
C548 C547 1.363 . S
C548 C554 1.428 . S
H549 C545 0.930 . S
H550 C547 0.929 . S
S551 N552 1.613 . S
S551 N553 1.610 . S
N552 S551 1.613 . S
N552 C555 1.350 . S
N553 S551 1.610 . S
N553 C554 1.351 . S
C554 C548 1.428 . S
C554 N553 1.351 . S
C554 C555 1.434 . S
C555 C546 1.429 . S
C555 N552 1.350 . S
C555 C554 1.434 . S
C556 C557 1.369 . S
C556 C558 1.419 . S
C556 H560 0.930 . S
C557 C556 1.369 . S
C557 C566 1.429 . S
C558 C556 1.419 . S
C558 C559 1.363 . S
C558 H561 0.929 . S
C559 C558 1.363 . S
C559 C565 1.428 . S
H560 C556 0.930 . S
H561 C558 0.929 . S
S562 N563 1.613 . S
S562 N564 1.610 . S
N563 S562 1.613 . S
N563 C566 1.350 . S
N564 S562 1.610 . S
N564 C565 1.351 . S
C565 C559 1.428 . S
C565 N564 1.351 . S
C565 C566 1.434 . S
C566 C557 1.429 . S
C566 N563 1.350 . S
C566 C565 1.434 . S
C567 C568 1.369 . S
C567 C569 1.419 . S
C567 H571 0.930 . S
C568 C567 1.369 . S
C568 C577 1.429 . S
C569 C567 1.419 . S
C569 C570 1.363 . S
C569 H572 0.929 . S
C570 C569 1.363 . S
C570 C576 1.428 . S
H571 C567 0.930 . S
H572 C569 0.929 . S
S573 N574 1.613 . S
S573 N575 1.610 . S
N574 S573 1.613 . S
N574 C577 1.350 . S
N575 S573 1.610 . S
N575 C576 1.351 . S
C576 C570 1.428 . S
C576 N575 1.351 . S
C576 C577 1.434 . S
C577 C568 1.429 . S
C577 N574 1.350 . S
C577 C576 1.434 . S
C578 C579 1.369 . S
C578 C580 1.419 . S
C578 H582 0.930 . S
C579 C578 1.369 . S
C579 C588 1.429 . S
C580 C578 1.419 . S
C580 C581 1.363 . S
C580 H583 0.929 . S
C581 C580 1.363 . S
C581 C587 1.428 . S
H582 C578 0.930 . S
H583 C580 0.929 . S
S584 N585 1.613 . S
S584 N586 1.610 . S
N585 S584 1.613 . S
N585 C588 1.350 . S
N586 S584 1.610 . S
N586 C587 1.351 . S
C587 C581 1.428 . S
C587 N586 1.351 . S
C587 C588 1.434 . S
C588 C579 1.429 . S
C588 N585 1.350 . S
C588 C587 1.434 . S
C589 C590 1.369 . S
C589 C591 1.419 . S
C589 H593 0.930 . S
C590 C589 1.369 . S
C590 C599 1.429 . S
C591 C589 1.419 . S
C591 C592 1.363 . S
C591 H594 0.929 . S
C592 C591 1.363 . S
C592 C598 1.428 . S
H593 C589 0.930 . S
H594 C591 0.929 . S
S595 N596 1.613 . S
S595 N597 1.610 . S
N596 S595 1.613 . S
N596 C599 1.350 . S
N597 S595 1.610 . S
N597 C598 1.351 . S
C598 C592 1.428 . S
C598 N597 1.351 . S
C598 C599 1.434 . S
C599 C590 1.429 . S
C599 N596 1.350 . S
C599 C598 1.434 . S
C600 C601 1.369 . S
C600 C602 1.419 . S
C600 H604 0.930 . S
C601 C600 1.369 . S
C601 C610 1.429 1_655 S
C602 C600 1.419 . S
C602 C603 1.363 1_655 S
C602 H605 0.929 . S
C603 C602 1.363 1_455 S
C603 C609 1.428 . S
H604 C600 0.930 . S
H605 C602 0.929 . S
S606 N607 1.613 . S
S606 N608 1.610 . S
N607 S606 1.613 . S
N607 C610 1.350 . S
N608 S606 1.610 . S
N608 C609 1.351 . S
C609 C603 1.428 . S
C609 N608 1.351 . S
C609 C610 1.434 . S
C610 C601 1.429 1_455 S
C610 N607 1.350 . S
C610 C609 1.434 . S
C611 C612 1.369 . S
C611 C613 1.419 . S
C611 H615 0.930 . S
C612 C611 1.369 . S
C612 C621 1.429 . S
C613 C611 1.419 . S
C613 C614 1.363 . S
C613 H616 0.929 . S
C614 C613 1.363 . S
C614 C620 1.428 . S
H615 C611 0.930 . S
H616 C613 0.929 . S
S617 N618 1.613 . S
S617 N619 1.610 . S
N618 S617 1.613 . S
N618 C621 1.350 . S
N619 S617 1.610 . S
N619 C620 1.351 . S
C620 C614 1.428 . S
C620 N619 1.351 . S
C620 C621 1.434 . S
C621 C612 1.429 . S
C621 N618 1.350 . S
C621 C620 1.434 . S
C622 C623 1.369 . S
C622 C624 1.414 1_545 S
C622 H626 0.930 . S
C623 C622 1.369 . S
C623 C632 1.429 . S
C624 C622 1.414 1_565 S
C624 C625 1.359 . S
C624 H627 0.939 . S
C625 C624 1.359 . S
C625 C631 1.428 . S
H626 C622 0.930 . S
H627 C624 0.939 . S
S628 N629 1.613 1_565 S
S628 N630 1.610 . S
N629 S628 1.613 1_545 S
N629 C632 1.350 . S
N630 S628 1.610 . S
N630 C631 1.351 . S
C631 C625 1.428 . S
C631 N630 1.351 . S
C631 C632 1.434 1_565 S
C632 C623 1.429 . S
C632 N629 1.350 . S
C632 C631 1.434 1_545 S
C633 C634 1.369 . S
C633 C635 1.419 . S
C633 H637 0.930 . S
C634 C633 1.369 . S
C634 C643 1.429 1_545 S
C635 C633 1.419 . S
C635 C636 1.363 1_545 S
C635 H638 0.929 . S
C636 C635 1.363 1_565 S
C636 C642 1.428 . S
H637 C633 0.930 . S
H638 C635 0.929 . S
S639 N640 1.613 . S
S639 N641 1.610 . S
N640 S639 1.613 . S
N640 C643 1.350 . S
N641 S639 1.610 . S
N641 C642 1.351 . S
C642 C636 1.428 . S
C642 N641 1.351 . S
C642 C643 1.434 . S
C643 C634 1.429 1_565 S
C643 N640 1.350 . S
C643 C642 1.434 . S
C644 C645 1.369 . S
C644 C646 1.419 . S
C644 H648 0.930 . S
C645 C644 1.369 . S
C645 C654 1.429 1_655 S
C646 C644 1.419 . S
C646 C647 1.363 1_655 S
C646 H649 0.929 . S
C647 C646 1.363 1_455 S
C647 C653 1.428 . S
H648 C644 0.930 . S
H649 C646 0.929 . S
S650 N651 1.613 . S
S650 N652 1.610 . S
N651 S650 1.613 . S
N651 C654 1.350 . S
N652 S650 1.610 . S
N652 C653 1.351 . S
C653 C647 1.428 . S
C653 N652 1.351 . S
C653 C654 1.434 . S
C654 C645 1.429 1_455 S
C654 N651 1.350 . S
C654 C653 1.434 . S
C655 C656 1.369 . S
C655 C657 1.419 . S
C655 H659 0.930 . S
C656 C655 1.369 . S
C656 C665 1.429 . S
C657 C655 1.419 . S
C657 C658 1.363 . S
C657 H660 0.929 . S
C658 C657 1.363 . S
C658 C664 1.428 . S
H659 C655 0.930 . S
H660 C657 0.929 . S
S661 N662 1.613 . S
S661 N663 1.610 . S
N662 S661 1.613 . S
N662 C665 1.350 . S
N663 S661 1.610 . S
N663 C664 1.351 . S
C664 C658 1.428 . S
C664 N663 1.351 . S
C664 C665 1.434 . S
C665 C656 1.429 . S
C665 N662 1.350 . S
C665 C664 1.434 . S
C666 C667 1.369 . S
C666 C668 1.419 . S
C666 H670 0.930 . S
C667 C666 1.369 . S
C667 C676 1.429 . S
C668 C666 1.419 . S
C668 C669 1.363 . S
C668 H671 0.929 . S
C669 C668 1.363 . S
C669 C675 1.428 . S
H670 C666 0.930 . S
H671 C668 0.929 . S
S672 N673 1.613 . S
S672 N674 1.610 . S
N673 S672 1.613 . S
N673 C676 1.350 . S
N674 S672 1.610 . S
N674 C675 1.351 . S
C675 C669 1.428 . S
C675 N674 1.351 . S
C675 C676 1.434 . S
C676 C667 1.429 . S
C676 N673 1.350 . S
C676 C675 1.434 . S
C677 C678 1.369 . S
C677 C679 1.419 . S
C677 H681 0.930 . S
C678 C677 1.369 . S
C678 C687 1.429 . S
C679 C677 1.419 . S
C679 C680 1.363 . S
C679 H682 0.929 . S
C680 C679 1.363 . S
C680 C686 1.428 . S
H681 C677 0.930 . S
H682 C679 0.929 . S
S683 N684 1.613 . S
S683 N685 1.610 . S
N684 S683 1.613 . S
N684 C687 1.350 . S
N685 S683 1.610 . S
N685 C686 1.351 . S
C686 C680 1.428 . S
C686 N685 1.351 . S
C686 C687 1.434 . S
C687 C678 1.429 . S
C687 N684 1.350 . S
C687 C686 1.434 . S
C688 C689 1.369 . S
C688 C690 1.419 . S
C688 H692 0.930 . S
C689 C688 1.369 . S
C689 C698 1.429 . S
C690 C688 1.419 . S
C690 C691 1.363 . S
C690 H693 0.929 . S
C691 C690 1.363 . S
C691 C697 1.428 . S
H692 C688 0.930 . S
H693 C690 0.929 . S
S694 N695 1.613 . S
S694 N696 1.610 . S
N695 S694 1.613 . S
N695 C698 1.350 . S
N696 S694 1.610 . S
N696 C697 1.351 . S
C697 C691 1.428 . S
C697 N696 1.351 . S
C697 C698 1.434 . S
C698 C689 1.429 . S
C698 N695 1.350 . S
C698 C697 1.434 . S
C699 C700 1.369 . S
C699 C701 1.419 . S
C699 H703 0.930 . S
C700 C699 1.369 . S
C700 C709 1.429 . S
C701 C699 1.419 . S
C701 C702 1.363 . S
C701 H704 0.929 . S
C702 C701 1.363 . S
C702 C708 1.428 . S
H703 C699 0.930 . S
H704 C701 0.929 . S
S705 N706 1.613 . S
S705 N707 1.610 . S
N706 S705 1.613 . S
N706 C709 1.350 . S
N707 S705 1.610 . S
N707 C708 1.351 . S
C708 C702 1.428 . S
C708 N707 1.351 . S
C708 C709 1.434 . S
C709 C700 1.429 . S
C709 N706 1.350 . S
C709 C708 1.434 . S
C710 C711 1.369 . S
C710 C712 1.419 . S
C710 H714 0.930 . S
C711 C710 1.369 . S
C711 C720 1.429 . S
C712 C710 1.419 . S
C712 C713 1.363 . S
C712 H715 0.929 . S
C713 C712 1.363 . S
C713 C719 1.428 . S
H714 C710 0.930 . S
H715 C712 0.929 . S
S716 N717 1.613 . S
S716 N718 1.610 . S
N717 S716 1.613 . S
N717 C720 1.350 . S
N718 S716 1.610 . S
N718 C719 1.351 . S
C719 C713 1.428 . S
C719 N718 1.351 . S
C719 C720 1.434 . S
C720 C711 1.429 . S
C720 N717 1.350 . S
C720 C719 1.434 . S
C721 C722 1.369 . S
C721 C723 1.419 . S
C721 H725 0.930 . S
C722 C721 1.369 . S
C722 C731 1.429 . S
C723 C721 1.419 . S
C723 C724 1.363 . S
C723 H726 0.929 . S
C724 C723 1.363 . S
C724 C730 1.428 . S
H725 C721 0.930 . S
H726 C723 0.929 . S
S727 N728 1.613 . S
S727 N729 1.610 . S
N728 S727 1.613 . S
N728 C731 1.350 . S
N729 S727 1.610 . S
N729 C730 1.351 . S
C730 C724 1.428 . S
C730 N729 1.351 . S
C730 C731 1.434 . S
C731 C722 1.429 . S
C731 N728 1.350 . S
C731 C730 1.434 . S
C732 C733 1.369 . S
C732 C734 1.419 . S
C732 H736 0.930 . S
C733 C732 1.369 . S
C733 C742 1.429 . S
C734 C732 1.419 . S
C734 C735 1.363 . S
C734 H737 0.929 . S
C735 C734 1.363 . S
C735 C741 1.428 . S
H736 C732 0.930 . S
H737 C734 0.929 . S
S738 N739 1.613 . S
S738 N740 1.610 . S
N739 S738 1.613 . S
N739 C742 1.350 . S
N740 S738 1.610 . S
N740 C741 1.351 . S
C741 C735 1.428 . S
C741 N740 1.351 . S
C741 C742 1.434 . S
C742 C733 1.429 . S
C742 N739 1.350 . S
C742 C741 1.434 . S
C743 C744 1.369 . S
C743 C745 1.419 . S
C743 H747 0.930 . S
C744 C743 1.369 . S
C744 C753 1.429 . S
C745 C743 1.419 . S
C745 C746 1.363 . S
C745 H748 0.929 . S
C746 C745 1.363 . S
C746 C752 1.428 . S
H747 C743 0.930 . S
H748 C745 0.929 . S
S749 N750 1.613 . S
S749 N751 1.610 . S
N750 S749 1.613 . S
N750 C753 1.350 . S
N751 S749 1.610 . S
N751 C752 1.351 . S
C752 C746 1.428 . S
C752 N751 1.351 . S
C752 C753 1.434 . S
C753 C744 1.429 . S
C753 N750 1.350 . S
C753 C752 1.434 . S
C754 C755 1.369 . S
C754 C756 1.419 . S
C754 H758 0.930 . S
C755 C754 1.369 . S
C755 C764 1.429 . S
C756 C754 1.419 . S
C756 C757 1.363 . S
C756 H759 0.929 . S
C757 C756 1.363 . S
C757 C763 1.428 . S
H758 C754 0.930 . S
H759 C756 0.929 . S
S760 N761 1.613 . S
S760 N762 1.610 . S
N761 S760 1.613 . S
N761 C764 1.350 . S
N762 S760 1.610 . S
N762 C763 1.351 . S
C763 C757 1.428 . S
C763 N762 1.351 . S
C763 C764 1.434 . S
C764 C755 1.429 . S
C764 N761 1.350 . S
C764 C763 1.434 . S
C765 C766 1.369 . S
C765 C767 1.419 . S
C765 H769 0.930 . S
C766 C765 1.369 . S
C766 C775 1.429 . S
C767 C765 1.419 . S
C767 C768 1.363 . S
C767 H770 0.929 . S
C768 C767 1.363 . S
C768 C774 1.428 . S
H769 C765 0.930 . S
H770 C767 0.929 . S
S771 N772 1.613 . S
S771 N773 1.610 . S
N772 S771 1.613 . S
N772 C775 1.350 . S
N773 S771 1.610 . S
N773 C774 1.351 . S
C774 C768 1.428 . S
C774 N773 1.351 . S
C774 C775 1.434 . S
C775 C766 1.429 . S
C775 N772 1.350 . S
C775 C774 1.434 . S
C776 C777 1.369 . S
C776 C778 1.419 . S
C776 H780 0.930 . S
C777 C776 1.369 . S
C777 C786 1.429 . S
C778 C776 1.419 . S
C778 C779 1.363 . S
C778 H781 0.929 . S
C779 C778 1.363 . S
C779 C785 1.428 . S
H780 C776 0.930 . S
H781 C778 0.929 . S
S782 N783 1.613 . S
S782 N784 1.610 . S
N783 S782 1.613 . S
N783 C786 1.350 . S
N784 S782 1.610 . S
N784 C785 1.351 . S
C785 C779 1.428 . S
C785 N784 1.351 . S
C785 C786 1.434 . S
C786 C777 1.429 . S
C786 N783 1.350 . S
C786 C785 1.434 . S
C787 C788 1.369 . S
C787 C789 1.419 . S
C787 H791 0.930 . S
C788 C787 1.369 . S
C788 C797 1.429 . S
C789 C787 1.419 . S
C789 C790 1.363 . S
C789 H792 0.929 . S
C790 C789 1.363 . S
C790 C796 1.428 . S
H791 C787 0.930 . S
H792 C789 0.929 . S
S793 N794 1.613 . S
S793 N795 1.610 . S
N794 S793 1.613 . S
N794 C797 1.350 . S
N795 S793 1.610 . S
N795 C796 1.351 . S
C796 C790 1.428 . S
C796 N795 1.351 . S
C796 C797 1.434 . S
C797 C788 1.429 . S
C797 N794 1.350 . S
C797 C796 1.434 . S
C798 C799 1.369 . S
C798 C800 1.419 1_655 S
C798 H802 0.930 . S
C799 C798 1.369 . S
C799 C808 1.424 . S
C800 C798 1.419 1_455 S
C800 C801 1.363 . S
C800 H803 0.929 . S
C801 C800 1.363 . S
C801 C807 1.428 . S
H802 C798 0.930 . S
H803 C800 0.929 . S
S804 N805 1.615 1_455 S
S804 N806 1.610 . S
N805 S804 1.615 1_655 S
N805 C808 1.343 . S
N806 S804 1.610 . S
N806 C807 1.351 . S
C807 C801 1.428 . S
C807 N806 1.351 . S
C807 C808 1.449 1_455 S
C808 C799 1.424 . S
C808 N805 1.343 . S
C808 C807 1.449 1_655 S
C809 C810 1.369 . S
C809 C811 1.419 . S
C809 H813 0.930 . S
C810 C809 1.369 . S
C810 C819 1.429 . S
C811 C809 1.419 . S
C811 C812 1.363 . S
C811 H814 0.929 . S
C812 C811 1.363 . S
C812 C818 1.428 . S
H813 C809 0.930 . S
H814 C811 0.929 . S
S815 N816 1.613 . S
S815 N817 1.610 . S
N816 S815 1.613 . S
N816 C819 1.350 . S
N817 S815 1.610 . S
N817 C818 1.351 . S
C818 C812 1.428 . S
C818 N817 1.351 . S
C818 C819 1.434 . S
C819 C810 1.429 . S
C819 N816 1.350 . S
C819 C818 1.434 . S
C820 C821 1.362 1_545 S
C820 C822 1.428 . S
C820 H824 0.934 . S
C821 C820 1.362 1_565 S
C821 C830 1.429 . S
C822 C820 1.428 . S
C822 C823 1.363 . S
C822 H825 0.929 . S
C823 C822 1.363 . S
C823 C829 1.429 1_545 S
H824 C820 0.934 . S
H825 C822 0.929 . S
S826 N827 1.613 . S
S826 N828 1.617 . S
N827 S826 1.613 . S
N827 C830 1.350 . S
N828 S826 1.617 . S
N828 C829 1.353 . S
C829 C823 1.429 1_565 S
C829 N828 1.353 . S
C829 C830 1.433 . S
C830 C821 1.429 . S
C830 N827 1.350 . S
C830 C829 1.433 . S
C831 C832 1.369 1_544 S
C831 C833 1.419 . S
C831 H835 0.930 . S
C832 C831 1.369 1_566 S
C832 C841 1.429 . S
C833 C831 1.419 . S
C833 C834 1.363 . S
C833 H836 0.929 . S
C834 C833 1.363 . S
C834 C840 1.428 1_544 S
H835 C831 0.930 . S
H836 C833 0.929 . S
S837 N838 1.613 . S
S837 N839 1.610 . S
N838 S837 1.613 . S
N838 C841 1.350 . S
N839 S837 1.610 . S
N839 C840 1.351 . S
C840 C834 1.428 1_566 S
C840 N839 1.351 . S
C840 C841 1.434 . S
C841 C832 1.429 . S
C841 N838 1.350 . S
C841 C840 1.434 . S
C842 C843 1.369 1_556 S
C842 C844 1.419 . S
C842 H846 0.930 . S
C843 C842 1.369 1_554 S
C843 C852 1.429 1_655 S
C844 C842 1.419 . S
C844 C845 1.363 1_655 S
C844 H847 0.929 . S
C845 C844 1.363 1_455 S
C845 C851 1.428 1_556 S
H846 C842 0.930 . S
H847 C844 0.929 . S
S848 N849 1.613 . S
S848 N850 1.610 . S
N849 S848 1.613 . S
N849 C852 1.350 . S
N850 S848 1.610 . S
N850 C851 1.351 . S
C851 C845 1.428 1_554 S
C851 N850 1.351 . S
C851 C852 1.434 . S
C852 C843 1.429 1_455 S
C852 N849 1.350 . S
C852 C851 1.434 . S
C853 C854 1.369 1_556 S
C853 C855 1.419 . S
C853 H857 0.930 . S
C854 C853 1.369 1_554 S
C854 C863 1.429 . S
C855 C853 1.419 . S
C855 C856 1.363 . S
C855 H858 0.929 . S
C856 C855 1.363 . S
C856 C862 1.428 1_556 S
H857 C853 0.930 . S
H858 C855 0.929 . S
S859 N860 1.613 . S
S859 N861 1.610 . S
N860 S859 1.613 . S
N860 C863 1.350 . S
N861 S859 1.610 . S
N861 C862 1.351 . S
C862 C856 1.428 1_554 S
C862 N861 1.351 . S
C862 C863 1.434 . S
C863 C854 1.429 . S
C863 N860 1.350 . S
C863 C862 1.434 . S
C864 C865 1.369 . S
C864 C866 1.419 . S
C864 H868 0.930 . S
C865 C864 1.369 . S
C865 C874 1.429 . S
C866 C864 1.419 . S
C866 C867 1.363 . S
C866 H869 0.929 . S
C867 C866 1.363 . S
C867 C873 1.428 . S
H868 C864 0.930 . S
H869 C866 0.929 . S
S870 N871 1.624 1_565 S
S870 N872 1.610 1_565 S
N871 S870 1.624 1_545 S
N871 C874 1.391 . S
N872 S870 1.610 1_545 S
N872 C873 1.351 . S
C873 C867 1.428 . S
C873 N872 1.351 . S
C873 C874 1.434 . S
C874 C865 1.429 . S
C874 N871 1.391 . S
C874 C873 1.434 . S
C875 C876 1.369 . S
C875 C877 1.419 . S
C875 H879 0.930 . S
C876 C875 1.369 . S
C876 C885 1.429 . S
C877 C875 1.419 . S
C877 C878 1.363 . S
C877 H880 0.929 . S
C878 C877 1.363 . S
C878 C884 1.428 . S
H879 C875 0.930 . S
H880 C877 0.929 . S
S881 N882 1.613 . S
S881 N883 1.610 . S
N882 S881 1.613 . S
N882 C885 1.350 . S
N883 S881 1.610 . S
N883 C884 1.351 . S
C884 C878 1.428 . S
C884 N883 1.351 . S
C884 C885 1.434 . S
C885 C876 1.429 . S
C885 N882 1.350 . S
C885 C884 1.434 . S
C886 C887 1.369 . S
C886 C888 1.419 . S
C886 H890 0.930 . S
C887 C886 1.369 . S
C887 C896 1.429 . S
C888 C886 1.419 . S
C888 C889 1.363 . S
C888 H891 0.929 . S
C889 C888 1.363 . S
C889 C895 1.428 . S
H890 C886 0.930 . S
H891 C888 0.929 . S
S892 N893 1.613 1_556 S
S892 N894 1.610 . S
N893 S892 1.613 1_554 S
N893 C896 1.350 . S
N894 S892 1.610 . S
N894 C895 1.351 1_556 S
C895 C889 1.428 . S
C895 N894 1.351 1_554 S
C895 C896 1.434 . S
C896 C887 1.429 . S
C896 N893 1.350 . S
C896 C895 1.434 . S
C897 C898 1.369 . S
C897 C899 1.419 . S
C897 H901 0.930 . S
C898 C897 1.369 . S
C898 C907 1.429 . S
C899 C897 1.419 . S
C899 C900 1.363 . S
C899 H902 0.929 . S
C900 C899 1.363 . S
C900 C906 1.428 . S
H901 C897 0.930 . S
H902 C899 0.929 . S
S903 N904 1.613 . S
S903 N905 1.610 . S
N904 S903 1.613 . S
N904 C907 1.350 . S
N905 S903 1.610 . S
N905 C906 1.351 . S
C906 C900 1.428 . S
C906 N905 1.351 . S
C906 C907 1.434 . S
C907 C898 1.429 . S
C907 N904 1.350 . S
C907 C906 1.434 . S
C908 C909 1.369 . S
C908 C910 1.419 . S
C908 H912 0.930 . S
C909 C908 1.369 . S
C909 C918 1.429 . S
C910 C908 1.419 . S
C910 C911 1.363 . S
C910 H913 0.929 . S
C911 C910 1.363 . S
C911 C917 1.428 . S
H912 C908 0.930 . S
H913 C910 0.929 . S
S914 N915 1.613 . S
S914 N916 1.610 . S
N915 S914 1.613 . S
N915 C918 1.350 . S
N916 S914 1.610 . S
N916 C917 1.351 . S
C917 C911 1.428 . S
C917 N916 1.351 . S
C917 C918 1.434 . S
C918 C909 1.429 . S
C918 N915 1.350 . S
C918 C917 1.434 . S
C919 C920 1.369 . S
C919 C921 1.419 . S
C919 H923 0.930 . S
C920 C919 1.369 . S
C920 C929 1.429 . S
C921 C919 1.419 . S
C921 C922 1.363 . S
C921 H924 0.929 . S
C922 C921 1.363 . S
C922 C928 1.428 . S
H923 C919 0.930 . S
H924 C921 0.929 . S
S925 N926 1.613 1_545 S
S925 N927 1.610 . S
N926 S925 1.613 1_565 S
N926 C929 1.350 . S
N927 S925 1.610 . S
N927 C928 1.351 1_545 S
C928 C922 1.428 . S
C928 N927 1.351 1_565 S
C928 C929 1.434 . S
C929 C920 1.429 . S
C929 N926 1.350 . S
C929 C928 1.434 . S
C930 C931 1.369 . S
C930 C932 1.419 . S
C930 H934 0.930 1_556 S
C931 C930 1.369 . S
C931 C940 1.429 . S
C932 C930 1.419 . S
C932 C933 1.363 . S
C932 H935 0.929 . S
C933 C932 1.363 . S
C933 C939 1.428 . S
H934 C930 0.930 1_554 S
H935 C932 0.929 . S
S936 N937 1.613 . S
S936 N938 1.610 . S
N937 S936 1.613 . S
N937 C940 1.350 . S
N938 S936 1.610 . S
N938 C939 1.351 . S
C939 C933 1.428 . S
C939 N938 1.351 . S
C939 C940 1.434 . S
C940 C931 1.429 . S
C940 N937 1.350 . S
C940 C939 1.434 . S
C941 C942 1.369 . S
C941 C943 1.419 . S
C941 H945 0.930 . S
C942 C941 1.369 . S
C942 C951 1.429 . S
C943 C941 1.419 . S
C943 C944 1.363 . S
C943 H946 0.929 1_556 S
C944 C943 1.363 . S
C944 C950 1.428 . S
H945 C941 0.930 . S
H946 C943 0.929 1_554 S
S947 N948 1.613 . S
S947 N949 1.610 . S
N948 S947 1.613 . S
N948 C951 1.350 . S
N949 S947 1.610 . S
N949 C950 1.351 . S
C950 C944 1.428 . S
C950 N949 1.351 . S
C950 C951 1.434 . S
C951 C942 1.429 . S
C951 N948 1.350 . S
C951 C950 1.434 . S
C952 C953 1.369 . S
C952 C954 1.419 . S
C952 H956 0.930 1_556 S
C953 C952 1.369 . S
C953 C962 1.429 . S
C954 C952 1.419 . S
C954 C955 1.363 . S
C954 H957 0.929 . S
C955 C954 1.363 . S
C955 C961 1.428 . S
H956 C952 0.930 1_554 S
H957 C954 0.929 . S
S958 N959 1.613 . S
S958 N960 1.610 . S
N959 S958 1.613 . S
N959 C962 1.350 . S
N960 S958 1.610 . S
N960 C961 1.351 . S
C961 C955 1.428 . S
C961 N960 1.351 . S
C961 C962 1.434 . S
C962 C953 1.429 . S
C962 N959 1.350 . S
C962 C961 1.434 . S
C963 C964 1.369 . S
C963 C965 1.419 . S
C963 H967 0.930 . S
C964 C963 1.369 . S
C964 C973 1.429 . S
C965 C963 1.419 . S
C965 C966 1.363 . S
C965 H968 0.929 . S
C966 C965 1.363 . S
C966 C972 1.428 . S
H967 C963 0.930 . S
H968 C965 0.929 . S
S969 N970 1.613 . S
S969 N971 1.610 . S
N970 S969 1.613 . S
N970 C973 1.350 . S
N971 S969 1.610 . S
N971 C972 1.351 . S
C972 C966 1.428 . S
C972 N971 1.351 . S
C972 C973 1.434 . S
C973 C964 1.429 . S
C973 N970 1.350 . S
C973 C972 1.434 . S
C974 C975 1.369 . S
C974 C976 1.419 . S
C974 H978 0.930 . S
C975 C974 1.369 . S
C975 C984 1.429 . S
C976 C974 1.419 . S
C976 C977 1.363 . S
C976 H979 0.929 . S
C977 C976 1.363 . S
C977 C983 1.428 . S
H978 C974 0.930 . S
H979 C976 0.929 . S
S980 N981 1.613 . S
S980 N982 1.610 . S
N981 S980 1.613 . S
N981 C984 1.350 . S
N982 S980 1.610 . S
N982 C983 1.351 . S
C983 C977 1.428 . S
C983 N982 1.351 . S
C983 C984 1.434 . S
C984 C975 1.429 . S
C984 N981 1.350 . S
C984 C983 1.434 . S
C985 C986 1.369 . S
C985 C987 1.419 . S
C985 H989 0.930 . S
C986 C985 1.369 . S
C986 C995 1.429 . S
C987 C985 1.419 . S
C987 C988 1.363 . S
C987 H990 0.929 . S
C988 C987 1.363 . S
C988 C994 1.428 . S
H989 C985 0.930 . S
H990 C987 0.929 . S
S991 N992 1.613 . S
S991 N993 1.610 . S
N992 S991 1.613 . S
N992 C995 1.350 . S
N993 S991 1.610 . S
N993 C994 1.351 . S
C994 C988 1.428 . S
C994 N993 1.351 . S
C994 C995 1.434 . S
C995 C986 1.429 . S
C995 N992 1.350 . S
C995 C994 1.434 . S
C996 C997 1.369 . S
C996 C998 1.419 . S
C996 H1000 0.930 . S
C997 C996 1.369 . S
C997 C1006 1.429 . S
C998 C996 1.419 . S
C998 C999 1.363 . S
C998 H1001 0.929 . S
C999 C998 1.363 . S
C999 C1005 1.428 . S
H1000 C996 0.930 . S
H1001 C998 0.929 . S
S1002 N1003 1.613 . S
S1002 N1004 1.610 . S
N1003 S1002 1.613 . S
N1003 C1006 1.350 . S
N1004 S1002 1.610 . S
N1004 C1005 1.351 . S
C1005 C999 1.428 . S
C1005 N1004 1.351 . S
C1005 C1006 1.434 . S
C1006 C997 1.429 . S
C1006 N1003 1.350 . S
C1006 C1005 1.434 . S
C1007 C1008 1.369 . S
C1007 C1009 1.419 1_565 S
C1007 H1011 0.930 . S
C1008 C1007 1.369 . S
C1008 C1017 1.429 . S
C1009 C1007 1.419 1_545 S
C1009 C1010 1.363 . S
C1009 H1012 0.929 . S
C1010 C1009 1.363 . S
C1010 C1016 1.428 . S
H1011 C1007 0.930 . S
H1012 C1009 0.929 . S
S1013 N1014 1.613 . S
S1013 N1015 1.610 1_565 S
N1014 S1013 1.613 . S
N1014 C1017 1.350 . S
N1015 S1013 1.610 1_545 S
N1015 C1016 1.351 . S
C1016 C1010 1.428 . S
C1016 N1015 1.351 . S
C1016 C1017 1.434 1_545 S
C1017 C1008 1.429 . S
C1017 N1014 1.350 . S
C1017 C1016 1.434 1_565 S
C1018 C1019 1.369 . S
C1018 C1020 1.419 1_455 S
C1018 H1022 0.930 . S
C1019 C1018 1.369 . S
C1019 C1028 1.429 . S
C1020 C1018 1.419 1_655 S
C1020 C1021 1.363 . S
C1020 H1023 0.929 . S
C1021 C1020 1.363 . S
C1021 C1027 1.428 . S
H1022 C1018 0.930 . S
H1023 C1020 0.929 . S
S1024 N1025 1.613 . S
S1024 N1026 1.610 1_455 S
N1025 S1024 1.613 . S
N1025 C1028 1.350 . S
N1026 S1024 1.610 1_655 S
N1026 C1027 1.351 . S
C1027 C1021 1.428 . S
C1027 N1026 1.351 . S
C1027 C1028 1.434 1_655 S
C1028 C1019 1.429 . S
C1028 N1025 1.350 . S
C1028 C1027 1.434 1_455 S
C1029 C1030 1.369 . S
C1029 C1031 1.419 . S
C1029 H1033 0.930 . S
C1030 C1029 1.369 . S
C1030 C1039 1.429 . S
C1031 C1029 1.419 . S
C1031 C1032 1.363 . S
C1031 H1034 0.929 . S
C1032 C1031 1.363 . S
C1032 C1038 1.428 . S
H1033 C1029 0.930 . S
H1034 C1031 0.929 . S
S1035 N1036 1.613 . S
S1035 N1037 1.610 . S
N1036 S1035 1.613 . S
N1036 C1039 1.350 . S
N1037 S1035 1.610 . S
N1037 C1038 1.351 . S
C1038 C1032 1.428 . S
C1038 N1037 1.351 . S
C1038 C1039 1.434 . S
C1039 C1030 1.429 . S
C1039 N1036 1.350 . S
C1039 C1038 1.434 . S
C1040 C1041 1.369 . S
C1040 C1042 1.419 1_565 S
C1040 H1044 0.930 . S
C1041 C1040 1.369 . S
C1041 C1050 1.429 . S
C1042 C1040 1.419 1_545 S
C1042 C1043 1.363 . S
C1042 H1045 0.929 . S
C1043 C1042 1.363 . S
C1043 C1049 1.428 . S
H1044 C1040 0.930 . S
H1045 C1042 0.929 . S
S1046 N1047 1.613 1_545 S
S1046 N1048 1.610 . S
N1047 S1046 1.613 1_565 S
N1047 C1050 1.350 . S
N1048 S1046 1.610 . S
N1048 C1049 1.351 . S
C1049 C1043 1.428 . S
C1049 N1048 1.351 . S
C1049 C1050 1.434 1_545 S
C1050 C1041 1.429 . S
C1050 N1047 1.350 . S
C1050 C1049 1.434 1_565 S
C1051 C1052 1.369 . S
C1051 C1053 1.419 1_455 S
C1051 H1055 0.930 . S
C1052 C1051 1.369 . S
C1052 C1061 1.429 . S
C1053 C1051 1.419 1_655 S
C1053 C1054 1.363 . S
C1053 H1056 0.929 . S
C1054 C1053 1.363 . S
C1054 C1060 1.428 . S
H1055 C1051 0.930 . S
H1056 C1053 0.929 . S
S1057 N1058 1.613 1_655 S
S1057 N1059 1.610 . S
N1058 S1057 1.613 1_455 S
N1058 C1061 1.350 . S
N1059 S1057 1.610 . S
N1059 C1060 1.351 . S
C1060 C1054 1.428 . S
C1060 N1059 1.351 . S
C1060 C1061 1.434 1_655 S
C1061 C1052 1.429 . S
C1061 N1058 1.350 . S
C1061 C1060 1.434 1_455 S
C1062 C1063 1.369 . S
C1062 C1064 1.419 . S
C1062 H1066 0.930 . S
C1063 C1062 1.369 . S
C1063 C1072 1.429 . S
C1064 C1062 1.419 . S
C1064 C1065 1.363 . S
C1064 H1067 0.929 . S
C1065 C1064 1.363 . S
C1065 C1071 1.428 . S
H1066 C1062 0.930 . S
H1067 C1064 0.929 . S
S1068 N1069 1.613 . S
S1068 N1070 1.610 . S
N1069 S1068 1.613 . S
N1069 C1072 1.350 . S
N1070 S1068 1.610 . S
N1070 C1071 1.351 . S
C1071 C1065 1.428 . S
C1071 N1070 1.351 . S
C1071 C1072 1.434 . S
C1072 C1063 1.429 . S
C1072 N1069 1.350 . S
C1072 C1071 1.434 . S
C1073 C1074 1.369 . S
C1073 C1075 1.419 . S
C1073 H1077 0.930 . S
C1074 C1073 1.369 . S
C1074 C1083 1.429 . S
C1075 C1073 1.419 . S
C1075 C1076 1.363 . S
C1075 H1078 0.929 . S
C1076 C1075 1.363 . S
C1076 C1082 1.428 . S
H1077 C1073 0.930 . S
H1078 C1075 0.929 . S
S1079 N1080 1.613 . S
S1079 N1081 1.610 . S
N1080 S1079 1.613 . S
N1080 C1083 1.350 . S
N1081 S1079 1.610 . S
N1081 C1082 1.351 . S
C1082 C1076 1.428 . S
C1082 N1081 1.351 . S
C1082 C1083 1.434 . S
C1083 C1074 1.429 . S
C1083 N1080 1.350 . S
C1083 C1082 1.434 . S
C1084 C1085 1.369 . S
C1084 C1086 1.419 . S
C1084 H1088 0.930 . S
C1085 C1084 1.369 . S
C1085 C1094 1.429 . S
C1086 C1084 1.419 . S
C1086 C1087 1.363 . S
C1086 H1089 0.929 . S
C1087 C1086 1.363 . S
C1087 C1093 1.428 . S
H1088 C1084 0.930 . S
H1089 C1086 0.929 . S
S1090 N1091 1.613 . S
S1090 N1092 1.610 . S
N1091 S1090 1.613 . S
N1091 C1094 1.350 . S
N1092 S1090 1.610 . S
N1092 C1093 1.351 . S
C1093 C1087 1.428 . S
C1093 N1092 1.351 . S
C1093 C1094 1.434 . S
C1094 C1085 1.429 . S
C1094 N1091 1.350 . S
C1094 C1093 1.434 . S
C1095 C1096 1.369 . S
C1095 C1097 1.419 . S
C1095 H1099 0.930 . S
C1096 C1095 1.369 . S
C1096 C1105 1.429 . S
C1097 C1095 1.419 . S
C1097 C1098 1.363 . S
C1097 H1100 0.929 . S
C1098 C1097 1.363 . S
C1098 C1104 1.428 . S
H1099 C1095 0.930 . S
H1100 C1097 0.929 . S
S1101 N1102 1.613 . S
S1101 N1103 1.610 . S
N1102 S1101 1.613 . S
N1102 C1105 1.350 . S
N1103 S1101 1.610 . S
N1103 C1104 1.351 . S
C1104 C1098 1.428 . S
C1104 N1103 1.351 . S
C1104 C1105 1.434 . S
C1105 C1096 1.429 . S
C1105 N1102 1.350 . S
C1105 C1104 1.434 . S
C1106 C1107 1.369 . S
C1106 C1108 1.419 . S
C1106 H1110 0.930 . S
C1107 C1106 1.369 . S
C1107 C1116 1.429 . S
C1108 C1106 1.419 . S
C1108 C1109 1.363 . S
C1108 H1111 0.929 . S
C1109 C1108 1.363 . S
C1109 C1115 1.428 . S
H1110 C1106 0.930 . S
H1111 C1108 0.929 . S
S1112 N1113 1.613 . S
S1112 N1114 1.610 . S
N1113 S1112 1.613 . S
N1113 C1116 1.350 . S
N1114 S1112 1.610 . S
N1114 C1115 1.351 . S
C1115 C1109 1.428 . S
C1115 N1114 1.351 . S
C1115 C1116 1.434 . S
C1116 C1107 1.429 . S
C1116 N1113 1.350 . S
C1116 C1115 1.434 . S
C1117 C1118 1.369 . S
C1117 C1119 1.419 . S
C1117 H1121 0.930 . S
C1118 C1117 1.369 . S
C1118 C1127 1.429 . S
C1119 C1117 1.419 . S
C1119 C1120 1.363 . S
C1119 H1122 0.929 . S
C1120 C1119 1.363 . S
C1120 C1126 1.428 . S
H1121 C1117 0.930 . S
H1122 C1119 0.929 . S
S1123 N1124 1.613 . S
S1123 N1125 1.610 . S
N1124 S1123 1.613 . S
N1124 C1127 1.350 . S
N1125 S1123 1.610 . S
N1125 C1126 1.351 . S
C1126 C1120 1.428 . S
C1126 N1125 1.351 . S
C1126 C1127 1.434 . S
C1127 C1118 1.429 . S
C1127 N1124 1.350 . S
C1127 C1126 1.434 . S
C1128 C1129 1.369 . S
C1128 C1130 1.419 . S
C1128 H1132 0.930 . S
C1129 C1128 1.369 . S
C1129 C1138 1.429 . S
C1130 C1128 1.419 . S
C1130 C1131 1.363 . S
C1130 H1133 0.929 . S
C1131 C1130 1.363 . S
C1131 C1137 1.428 . S
H1132 C1128 0.930 . S
H1133 C1130 0.929 . S
S1134 N1135 1.613 . S
S1134 N1136 1.610 . S
N1135 S1134 1.613 . S
N1135 C1138 1.350 . S
N1136 S1134 1.610 . S
N1136 C1137 1.351 . S
C1137 C1131 1.428 . S
C1137 N1136 1.351 . S
C1137 C1138 1.434 . S
C1138 C1129 1.429 . S
C1138 N1135 1.350 . S
C1138 C1137 1.434 . S
C1139 C1140 1.369 . S
C1139 C1141 1.419 . S
C1139 H1143 0.930 . S
C1140 C1139 1.369 . S
C1140 C1149 1.429 . S
C1141 C1139 1.419 . S
C1141 C1142 1.363 . S
C1141 H1144 0.929 . S
C1142 C1141 1.363 . S
C1142 C1148 1.428 . S
H1143 C1139 0.930 . S
H1144 C1141 0.929 . S
S1145 N1146 1.613 . S
S1145 N1147 1.610 . S
N1146 S1145 1.613 . S
N1146 C1149 1.350 . S
N1147 S1145 1.610 . S
N1147 C1148 1.351 . S
C1148 C1142 1.428 . S
C1148 N1147 1.351 . S
C1148 C1149 1.434 . S
C1149 C1140 1.429 . S
C1149 N1146 1.350 . S
C1149 C1148 1.434 . S
C1150 C1151 1.369 . S
C1150 C1152 1.419 . S
C1150 H1154 0.930 . S
C1151 C1150 1.369 . S
C1151 C1160 1.429 . S
C1152 C1150 1.419 . S
C1152 C1153 1.363 . S
C1152 H1155 0.929 . S
C1153 C1152 1.363 . S
C1153 C1159 1.428 . S
H1154 C1150 0.930 . S
H1155 C1152 0.929 . S
S1156 N1157 1.613 . S
S1156 N1158 1.610 . S
N1157 S1156 1.613 . S
N1157 C1160 1.350 . S
N1158 S1156 1.610 . S
N1158 C1159 1.351 . S
C1159 C1153 1.428 . S
C1159 N1158 1.351 . S
C1159 C1160 1.434 . S
C1160 C1151 1.429 . S
C1160 N1157 1.350 . S
C1160 C1159 1.434 . S
C1161 C1162 1.369 . S
C1161 C1163 1.419 . S
C1161 H1165 0.930 . S
C1162 C1161 1.369 . S
C1162 C1171 1.429 . S
C1163 C1161 1.419 . S
C1163 C1164 1.363 . S
C1163 H1166 0.929 . S
C1164 C1163 1.363 . S
C1164 C1170 1.428 . S
H1165 C1161 0.930 . S
H1166 C1163 0.929 . S
S1167 N1168 1.613 . S
S1167 N1169 1.610 . S
N1168 S1167 1.613 . S
N1168 C1171 1.350 . S
N1169 S1167 1.610 . S
N1169 C1170 1.351 . S
C1170 C1164 1.428 . S
C1170 N1169 1.351 . S
C1170 C1171 1.434 . S
C1171 C1162 1.429 . S
C1171 N1168 1.350 . S
C1171 C1170 1.434 . S
C1172 C1173 1.369 . S
C1172 C1174 1.419 . S
C1172 H1176 0.930 . S
C1173 C1172 1.369 . S
C1173 C1182 1.429 . S
C1174 C1172 1.419 . S
C1174 C1175 1.363 . S
C1174 H1177 0.929 . S
C1175 C1174 1.363 . S
C1175 C1181 1.428 . S
H1176 C1172 0.930 . S
H1177 C1174 0.929 . S
S1178 N1179 1.613 . S
S1178 N1180 1.610 . S
N1179 S1178 1.613 . S
N1179 C1182 1.350 . S
N1180 S1178 1.610 . S
N1180 C1181 1.351 . S
C1181 C1175 1.428 . S
C1181 N1180 1.351 . S
C1181 C1182 1.434 . S
C1182 C1173 1.429 . S
C1182 N1179 1.350 . S
C1182 C1181 1.434 . S
C1183 C1184 1.369 . S
C1183 C1185 1.419 . S
C1183 H1187 0.930 . S
C1184 C1183 1.369 . S
C1184 C1193 1.429 . S
C1185 C1183 1.419 . S
C1185 C1186 1.363 . S
C1185 H1188 0.929 . S
C1186 C1185 1.363 . S
C1186 C1192 1.428 . S
H1187 C1183 0.930 . S
H1188 C1185 0.929 . S
S1189 N1190 1.613 . S
S1189 N1191 1.610 . S
N1190 S1189 1.613 . S
N1190 C1193 1.350 . S
N1191 S1189 1.610 . S
N1191 C1192 1.351 . S
C1192 C1186 1.428 . S
C1192 N1191 1.351 . S
C1192 C1193 1.434 . S
C1193 C1184 1.429 . S
C1193 N1190 1.350 . S
C1193 C1192 1.434 . S
C1194 C1195 1.369 . S
C1194 C1196 1.419 . S
C1194 H1198 0.930 . S
C1195 C1194 1.369 . S
C1195 C1204 1.429 1_655 S
C1196 C1194 1.419 . S
C1196 C1197 1.363 1_655 S
C1196 H1199 0.929 . S
C1197 C1196 1.363 1_455 S
C1197 C1203 1.428 . S
H1198 C1194 0.930 . S
H1199 C1196 0.929 . S
S1200 N1201 1.613 . S
S1200 N1202 1.610 . S
N1201 S1200 1.613 . S
N1201 C1204 1.350 . S
N1202 S1200 1.610 . S
N1202 C1203 1.351 . S
C1203 C1197 1.428 . S
C1203 N1202 1.351 . S
C1203 C1204 1.434 . S
C1204 C1195 1.429 1_455 S
C1204 N1201 1.350 . S
C1204 C1203 1.434 . S
C1205 C1206 1.369 . S
C1205 C1207 1.419 . S
C1205 H1209 0.930 . S
C1206 C1205 1.369 . S
C1206 C1215 1.429 . S
C1207 C1205 1.419 . S
C1207 C1208 1.363 . S
C1207 H1210 0.929 . S
C1208 C1207 1.363 . S
C1208 C1214 1.428 . S
H1209 C1205 0.930 . S
H1210 C1207 0.929 . S
S1211 N1212 1.613 . S
S1211 N1213 1.610 . S
N1212 S1211 1.613 . S
N1212 C1215 1.350 . S
N1213 S1211 1.610 . S
N1213 C1214 1.351 . S
C1214 C1208 1.428 . S
C1214 N1213 1.351 . S
C1214 C1215 1.434 . S
C1215 C1206 1.429 . S
C1215 N1212 1.350 . S
C1215 C1214 1.434 . S
C1216 C1217 1.369 . S
C1216 C1218 1.419 . S
C1216 H1220 0.930 . S
C1217 C1216 1.369 . S
C1217 C1226 1.429 1_565 S
C1218 C1216 1.419 . S
C1218 C1219 1.363 1_565 S
C1218 H1221 0.929 . S
C1219 C1218 1.363 1_545 S
C1219 C1225 1.428 . S
H1220 C1216 0.930 . S
H1221 C1218 0.929 . S
S1222 N1223 1.613 . S
S1222 N1224 1.610 . S
N1223 S1222 1.613 . S
N1223 C1226 1.350 . S
N1224 S1222 1.610 . S
N1224 C1225 1.351 . S
C1225 C1219 1.428 . S
C1225 N1224 1.351 . S
C1225 C1226 1.434 . S
C1226 C1217 1.429 1_545 S
C1226 N1223 1.350 . S
C1226 C1225 1.434 . S
C1227 C1228 1.369 . S
C1227 C1229 1.419 . S
C1227 H1231 0.930 . S
C1228 C1227 1.369 . S
C1228 C1237 1.429 1_565 S
C1229 C1227 1.419 . S
C1229 C1230 1.363 1_565 S
C1229 H1232 0.929 . S
C1230 C1229 1.363 1_545 S
C1230 C1236 1.428 . S
H1231 C1227 0.930 . S
H1232 C1229 0.929 . S
S1233 N1234 1.613 . S
S1233 N1235 1.610 . S
N1234 S1233 1.613 . S
N1234 C1237 1.350 . S
N1235 S1233 1.610 . S
N1235 C1236 1.351 . S
C1236 C1230 1.428 . S
C1236 N1235 1.351 . S
C1236 C1237 1.434 . S
C1237 C1228 1.429 1_545 S
C1237 N1234 1.350 . S
C1237 C1236 1.434 . S
C1238 C1239 1.384 1_455 S
C1238 C1240 1.430 . S
C1238 H1242 0.929 . S
C1239 C1238 1.384 1_655 S
C1239 C1248 1.429 . S
C1240 C1238 1.430 . S
C1240 C1241 1.363 . S
C1240 H1243 0.929 . S
C1241 C1240 1.363 . S
C1241 C1247 1.428 . S
H1242 C1238 0.929 . S
H1243 C1240 0.929 . S
S1244 N1245 1.613 . S
S1244 N1246 1.612 1_655 S
N1245 S1244 1.613 . S
N1245 C1248 1.350 . S
N1246 S1244 1.612 1_455 S
N1246 C1247 1.345 . S
C1247 C1241 1.428 . S
C1247 N1246 1.345 . S
C1247 C1248 1.434 1_455 S
C1248 C1239 1.429 . S
C1248 N1245 1.350 . S
C1248 C1247 1.434 1_655 S
C1249 C1250 1.369 . S
C1249 C1251 1.419 . S
C1249 H1253 0.930 . S
C1250 C1249 1.369 . S
C1250 C1259 1.429 . S
C1251 C1249 1.419 . S
C1251 C1252 1.363 . S
C1251 H1254 0.929 . S
C1252 C1251 1.363 . S
C1252 C1258 1.428 . S
H1253 C1249 0.930 . S
H1254 C1251 0.929 . S
S1255 N1256 1.613 . S
S1255 N1257 1.610 . S
N1256 S1255 1.613 . S
N1256 C1259 1.350 . S
N1257 S1255 1.610 . S
N1257 C1258 1.351 . S
C1258 C1252 1.428 . S
C1258 N1257 1.351 . S
C1258 C1259 1.434 . S
C1259 C1250 1.429 . S
C1259 N1256 1.350 . S
C1259 C1258 1.434 . S
C469 C213 1.653 . S
C471 C5 1.659 . S
C480 C226 1.659 . S
C482 C18 1.656 . S
C491 C200 1.653 . S
C493 C31 1.659 . S
C502 C343 1.627 1_554 S
C504 C44 1.634 . S
C513 C57 1.634 . S
C515 C317 1.629 1_554 S
C524 C70 1.631 . S
C526 C330 1.630 1_554 S
C535 C81 1.660 . S
C537 C447 1.707 . S
C546 C458 1.660 . S
C548 C96 1.706 . S
C557 C434 1.707 . S
C559 C109 1.706 . S
C568 C122 1.681 . S
C570 C265 1.681 1_556 S
C579 C237 1.634 1_556 S
C581 C135 1.682 . S
C590 C146 1.630 . S
C592 C252 1.682 1_556 S
C601 C369 1.573 . S
C603 C161 1.574 . S
C612 C174 1.578 . S
C614 C382 1.569 . S
C623 C356 1.572 . S
C625 C187 1.573 . S
C634 C421 1.626 . S
C636 C278 1.626 . S
C645 C393 1.571 . S
C647 C291 1.625 . S
C656 C302 1.577 . S
C658 C408 1.624 . S
C667 C244 1.785 . S
C669 C1 1.781 . S
C678 C248 1.702 . S
C680 C14 1.781 . S
C689 C261 1.700 . S
C691 C27 1.783 . S
C700 C40 1.778 . S
C702 C430 1.702 . S
C711 C53 1.782 . S
C713 C443 1.694 . S
C722 C66 1.783 . S
C724 C465 1.778 . S
C733 C88 1.781 . S
C735 C313 1.784 . S
C744 C326 1.784 . S
C746 C92 1.697 . S
C755 C339 1.781 . S
C757 C105 1.704 . S
C766 C196 1.778 . S
C768 C118 1.702 . S
C777 C131 1.701 . S
C779 C209 1.779 . S
C788 C153 1.780 . S
C790 C222 1.781 . S
C799 C157 1.787 . S
C801 C400 1.789 . S
C810 C404 1.708 . S
C812 C170 1.785 . S
C821 C417 1.703 . S
C823 C183 1.788 . S
C832 C352 1.771 . S
C834 C274 1.689 . S
C843 C287 1.687 . S
C845 C365 1.770 . S
C854 C309 1.768 . S
C856 C378 1.772 . S
C865 C354 1.788 . S
C867 C3 1.792 . S
C876 C16 1.792 . S
C878 C367 1.789 . S
C887 C29 1.790 . S
C889 C380 1.791 . S
C898 C159 1.752 . S
C900 C42 1.747 . S
C909 C55 1.750 . S
C911 C172 1.749 . S
C920 C68 1.750 . S
C922 C185 1.749 . S
C931 C276 1.748 . S
C933 C83 1.794 . S
C942 C94 1.750 . S
C944 C289 1.752 . S
C953 C304 1.786 . S
C955 C107 1.749 . S
C964 C120 1.706 . S
C966 C395 1.752 . S
C975 C406 1.711 . S
C977 C133 1.710 . S
C986 C419 1.705 . S
C988 C148 1.750 . S
C997 C315 1.769 . S
C999 C198 1.768 . S
C1008 C328 1.767 . S
C1010 C211 1.770 . S
C1019 C341 1.767 . S
C1021 C224 1.769 . S
C1030 C239 1.766 . S
C1032 C432 1.729 . S
C1041 C445 1.727 . S
C1043 C250 1.725 . S
C1052 C460 1.771 . S
C1054 C263 1.725 . S
C1063 C10 1.084 1_556 S
C1065 C218 1.087 . S
C1074 C23 1.081 1_556 S
C1076 C231 1.089 . S
C1085 C36 1.082 1_556 S
C1087 C205 1.088 . S
C1096 C348 1.111 . S
C1098 C49 1.111 . S
C1107 C322 1.109 . S
C1109 C62 1.114 . S
C1118 C335 1.111 . S
C1120 C75 1.113 . S
C1129 C452 1.101 . S
C1131 C79 1.089 1_554 S
C1140 C456 1.089 . S
C1142 C101 1.102 1_554 S
C1151 C439 1.102 . S
C1153 C114 1.102 1_554 S
C1162 C127 1.129 . S
C1164 C270 1.129 . S
C1173 C140 1.129 . S
C1175 C235 1.114 . S
C1184 C144 1.113 . S
C1186 C257 1.129 . S
C1195 C374 1.177 . S
C1197 C166 1.184 . S
C1206 C387 1.176 . S
C1208 C179 1.184 . S
C1217 C192 1.175 . S
C1219 C361 1.184 . S
C1228 C283 1.199 . S
C1230 C426 1.202 . S
C1239 C391 1.182 . S
C1241 C296 1.201 . S
C1250 C413 1.200 . S
C1252 C300 1.179 . S
