# Generated by pormake.
# Topology qtz-e, (6)-cn, num edge types: 1
# Building blocks:
#     Node 0, Type 0, BuildingBlock: INOVEN_clean_sbu_0, # of connection points: 6
#     Node 1, Type 0, BuildingBlock: INOVEN_clean_sbu_0, # of connection points: 6
#     Node 2, Type 0, BuildingBlock: INOVEN_clean_sbu_0, # of connection points: 6
#     Node 3, Type 0, BuildingBlock: INOVEN_clean_sbu_0, # of connection points: 6
#     Node 4, Type 0, BuildingBlock: INOVEN_clean_sbu_0, # of connection points: 6
#     Node 5, Type 0, BuildingBlock: INOVEN_clean_sbu_0, # of connection points: 6
#     Edge 6, Type (0, 0), BuildingBlock: CIFDUS_clean_linker_0, # of connection points: 2
#     Edge 7, Type (0, 0), BuildingBlock: CIFDUS_clean_linker_0, # of connection points: 2
#     Edge 8, Type (0, 0), BuildingBlock: CIFDUS_clean_linker_0, # of connection points: 2
#     Edge 9, Type (0, 0), BuildingBlock: CIFDUS_clean_linker_0, # of connection points: 2
#     Edge 10, Type (0, 0), BuildingBlock: CIFDUS_clean_linker_0, # of connection points: 2
#     Edge 11, Type (0, 0), BuildingBlock: CIFDUS_clean_linker_0, # of connection points: 2
#     Edge 12, Type (0, 0), BuildingBlock: CIFDUS_clean_linker_0, # of connection points: 2
#     Edge 13, Type (0, 0), BuildingBlock: CIFDUS_clean_linker_0, # of connection points: 2
#     Edge 14, Type (0, 0), BuildingBlock: CIFDUS_clean_linker_0, # of connection points: 2
#     Edge 15, Type (0, 0), BuildingBlock: CIFDUS_clean_linker_0, # of connection points: 2
#     Edge 16, Type (0, 0), BuildingBlock: CIFDUS_clean_linker_0, # of connection points: 2
#     Edge 17, Type (0, 0), BuildingBlock: CIFDUS_clean_linker_0, # of connection points: 2
#     Edge 18, Type (0, 0), BuildingBlock: CIFDUS_clean_linker_0, # of connection points: 2
#     Edge 19, Type (0, 0), BuildingBlock: CIFDUS_clean_linker_0, # of connection points: 2
#     Edge 20, Type (0, 0), BuildingBlock: CIFDUS_clean_linker_0, # of connection points: 2
#     Edge 21, Type (0, 0), BuildingBlock: CIFDUS_clean_linker_0, # of connection points: 2
#     Edge 22, Type (0, 0), BuildingBlock: CIFDUS_clean_linker_0, # of connection points: 2
#     Edge 23, Type (0, 0), BuildingBlock: CIFDUS_clean_linker_0, # of connection points: 2
# Relax obj value: 0.084
# Max RMSD: 0.175
# Mean RMSD: 0.175
data_MOF--net-qtz-e--node1-INOVEN_clean_sbu_0--edge1-CIFDUS_clean_linker_0
_symmetry_space_group_name_H-M    P1
_symmetry_Int_Tables_number       1
_symmetry_cell_setting            triclinic
loop_
_symmetry_equiv_pos_as_xyz
'x, y, z'
_cell_length_a     23.52662
_cell_length_b     23.261316
_cell_length_c     47.267287
_cell_angle_alpha  89.973299
_cell_angle_beta   90.198599
_cell_angle_gamma 120.08176
loop_
_atom_site_label
_atom_site_type_symbol
_atom_site_fract_x
_atom_site_fract_y
_atom_site_fract_z
_atom_type_partial_charge
Gd0 Gd 0.22272 0.49757 0.07515 0.0
Gd1 Gd 0.16331 0.36408 0.04418 0.0
C2 C 0.12329 0.36515 0.1083 0.0
C3 C 0.26262 0.61194 0.09781 0.0
C4 C 0.27682 0.63474 0.12722 0.0
C5 C 0.29995 0.605 0.14647 0.0
C6 C 0.25836 0.67974 0.13703 0.0
C7 C 0.28012 0.66051 0.18538 0.0
C8 C 0.25997 0.69256 0.16592 0.0
C9 C 0.302 0.61818 0.17538 0.0
C10 C 0.28519 0.42834 0.08527 0.0
C11 C 0.26324 0.49925 1.01056 0.0
C12 C 0.14062 0.26596 1.01104 0.0
C13 C 0.16806 0.26051 0.98363 0.0
C14 C 0.19184 0.31275 0.96396 0.0
C15 C 0.1692 0.20244 0.97657 0.0
C16 C 0.2192 0.24993 0.93095 0.0
C17 C 0.19423 0.197 0.95037 0.0
C18 C 0.21736 0.30764 0.93804 0.0
C19 C 0.09098 0.425 0.04509 0.0
O20 O 0.14087 0.4281 0.10384 0.0
O21 O 0.13577 0.33063 0.08946 0.0
O22 O 0.30272 0.59524 0.08603 0.0
O23 O 0.20047 0.56963 0.09272 0.0
O24 O 0.27119 0.45909 0.10437 0.0
O25 O 0.26153 0.4329 0.06203 0.0
O26 O 0.2353 0.43396 1.01214 0.0
O27 O 0.25978 0.53509 0.03141 0.0
O28 O 0.10742 0.29723 1.0102 0.0
O29 O 0.17912 0.28201 0.0333 0.0
O30 O 0.06492 0.36115 0.04774 0.0
O31 O 0.15128 0.45111 0.0416 0.0
H32 H 0.31366 0.56939 0.13933 0.0
H33 H 0.23985 0.7026 0.12249 0.0
H34 H 0.24351 0.72597 0.17316 0.0
H35 H 0.31732 0.59262 0.19 0.0
H36 H 0.19025 0.3575 0.96845 0.0
H37 H 0.15069 0.1613 0.99129 0.0
H38 H 0.1952 0.15201 0.94551 0.0
H39 H 0.23504 0.3487 0.92331 0.0
Gd40 Gd 0.70622 0.21822 0.40636 0.0
Gd41 Gd 0.79842 0.18073 0.37675 0.0
C42 C 0.75876 0.13532 0.44031 0.0
C43 C 0.61497 0.23369 0.42857 0.0
C44 C 0.59794 0.23672 0.45807 0.0
C45 C 0.63803 0.23601 0.47997 0.0
C46 C 0.5382 0.23293 0.46455 0.0
C47 C 0.5567 0.22363 0.51466 0.0
C48 C 0.51774 0.22658 0.49266 0.0
C49 C 0.61769 0.22975 0.50808 0.0
C50 C 0.83516 0.29865 0.41853 0.0
C51 C 0.74142 0.26093 0.34125 0.0
C52 C 0.8882 0.17795 0.34602 0.0
C53 C 0.92173 0.20922 0.31921 0.0
C54 C 0.92194 0.26574 0.30869 0.0
C55 C 0.95024 0.17987 0.30299 0.0
C56 C -0.02207 0.2626 0.26571 0.0
C57 C -0.02165 0.20639 0.27661 0.0
C58 C 0.94917 0.29178 0.28219 0.0
C59 C 0.66949 0.08712 0.37712 0.0
O60 O 0.70673 0.14134 0.43505 0.0
O61 O 0.80823 0.15746 0.42223 0.0
O62 O 0.67064 0.28367 0.41967 0.0
O63 O 0.60651 0.17575 0.42103 0.0
O64 O 0.78841 0.27743 0.43693 0.0
O65 O 0.81112 0.2746 0.39463 0.0
O66 O 0.78263 0.23809 0.34262 0.0
O67 O 0.70424 0.25714 0.3629 0.0
O68 O 0.8256 0.13471 0.34368 0.0
O69 O 0.90159 0.217 0.36806 0.0
O70 O 0.71573 0.07263 0.38049 0.0
O71 O 0.69404 0.14812 0.37337 0.0
H72 H 0.68393 0.23784 0.47524 0.0
H73 H 0.50651 0.23284 0.44784 0.0
H74 H 0.47085 0.22278 0.49715 0.0
H75 H 0.64837 0.22687 0.52451 0.0
H76 H 0.90031 0.28937 0.32079 0.0
H77 H 0.95044 0.13607 0.31065 0.0
H78 H 0.00086 0.18306 0.26491 0.0
H79 H 0.94665 0.33429 0.27448 0.0
Gd80 Gd 0.48495 0.7158 0.7371 0.0
Gd81 Gd 0.61687 0.80585 0.708 0.0
C82 C 0.61749 0.77167 0.77297 0.0
C83 C 0.38048 0.62419 0.76067 0.0
C84 C 0.37017 0.604 0.79061 0.0
C85 C 0.3162 0.59864 0.80542 0.0
C86 C 0.41703 0.59433 0.80515 0.0
C87 C 0.35614 0.57409 0.84878 0.0
C88 C 0.40994 0.57932 0.83388 0.0
C89 C 0.30927 0.58391 0.83434 0.0
C90 C 0.53355 0.84744 0.74519 0.0
C91 C 0.48036 0.74368 0.67109 0.0
C92 C 0.71064 0.89524 0.67719 0.0
C93 C 0.71355 0.92182 0.64846 0.0
C94 C 0.66783 0.88207 0.62774 0.0
C95 C 0.76163 0.98704 0.6415 0.0
C96 C 0.71609 0.97274 0.59385 0.0
C97 C 0.76323 0.0122 0.61431 0.0
C98 C 0.66861 0.90728 0.60085 0.0
C99 C 0.57935 0.67582 0.71142 0.0
O100 O 0.55969 0.71877 0.7677 0.0
O101 O 0.64648 0.82001 0.75412 0.0
O102 O 0.38852 0.68305 0.75513 0.0
O103 O 0.42207 0.6124 0.74723 0.0
O104 O 0.50625 0.8028 0.76475 0.0
O105 O 0.53552 0.81987 0.72259 0.0
O106 O 0.5453 0.78004 0.67188 0.0
O107 O 0.44474 0.71446 0.69378 0.0
O108 O 0.69631 0.83322 0.67842 0.0
O109 O 0.67968 0.90969 0.69639 0.0
O110 O 0.64016 0.72246 0.7148 0.0
O111 O 0.5442 0.70066 0.70614 0.0
H112 H 0.2799 0.60651 0.79469 0.0
H113 H 0.45981 0.59908 0.79445 0.0
H114 H 0.44716 0.5728 0.84455 0.0
H115 H 0.26702 0.57958 0.84537 0.0
H116 H 0.63152 0.83134 0.63238 0.0
H117 H 0.79764 0.01856 0.65711 0.0
H118 H 0.80021 0.06294 0.60951 0.0
H119 H 0.63218 0.87541 0.58543 0.0
Gd120 Gd 0.7338 0.5068 0.07364 0.0
Gd121 Gd 0.78447 0.64069 0.04523 0.0
C122 C 0.8293 0.63882 0.10826 0.0
C123 C 0.70427 0.39268 0.09404 0.0
C124 C 0.69991 0.37004 0.12323 0.0
C125 C 0.694 0.30824 0.12883 0.0
C126 C 0.70887 0.41337 0.14565 0.0
C127 C 0.71062 0.335 0.17905 0.0
C128 C 0.71398 0.3959 0.17338 0.0
C129 C 0.6992 0.29072 0.15658 0.0
C130 C 0.66673 0.56893 0.08797 0.0
C131 C 0.68441 0.50816 1.01027 0.0
C132 C 0.8029 0.73964 1.0138 0.0
C133 C 0.77431 0.74479 0.98659 0.0
C134 C 0.8163 0.78148 0.96435 0.0
C135 C 0.7063 0.70861 0.98154 0.0
C136 C 0.72314 0.74327 0.93196 0.0
C137 C 0.68102 0.70821 0.95461 0.0
C138 C 0.79114 0.78065 0.93736 0.0
C139 C 0.86109 0.58454 0.04223 0.0
O140 O 0.81625 0.5777 0.10237 0.0
O141 O 0.81198 0.6717 0.09062 0.0
O142 O 0.65969 0.40763 0.08622 0.0
O143 O 0.76386 0.43697 0.08629 0.0
O144 O 0.68635 0.54004 0.10565 0.0
O145 O 0.68833 0.56752 0.06376 0.0
O146 O 0.71199 0.57324 1.01269 0.0
O147 O 0.68986 0.47134 0.03024 0.0
O148 O 0.83851 0.71114 1.01208 0.0
O149 O 0.76512 0.72105 0.03625 0.0
O150 O 0.885 0.64726 0.04753 0.0
O151 O 0.80057 0.55712 0.03925 0.0
H152 H 0.68753 0.27455 0.11169 0.0
H153 H 0.7145 0.46179 0.14157 0.0
H154 H 0.72354 0.43128 0.1902 0.0
H155 H 0.69571 0.24314 0.16043 0.0
H156 H 0.869 0.80917 0.96764 0.0
H157 H 0.67266 0.6793 0.99819 0.0
H158 H 0.62833 0.67974 0.95154 0.0
H159 H 0.82539 0.80749 0.92052 0.0
Gd160 Gd 0.23407 0.7584 0.40521 0.0
Gd161 Gd 0.14879 0.80921 0.37821 0.0
C162 C 0.18629 0.84047 0.44324 0.0
C163 C 0.32016 0.73117 0.4247 0.0
C164 C 0.33588 0.72071 0.45357 0.0
C165 C 0.37227 0.68909 0.4584 0.0
C166 C 0.31656 0.745 0.47653 0.0
C167 C 0.37459 0.71112 0.50896 0.0
C168 C 0.33612 0.7408 0.50394 0.0
C169 C 0.3912 0.68395 0.48593 0.0
C170 C 0.10346 0.68063 0.41449 0.0
C171 C 0.19459 0.72398 0.33992 0.0
C172 C 0.06656 0.82378 0.34694 0.0
C173 C 0.03355 0.79489 0.31951 0.0
C174 C 0.04376 0.83728 0.29654 0.0
C175 C -0.00413 0.72588 0.31522 0.0
C176 C -0.01921 0.74241 0.2652 0.0
C177 C 0.96956 0.7 0.28845 0.0
C178 C 0.01806 0.8115 0.26974 0.0
C179 C 0.27931 0.89653 0.38086 0.0
O180 O 0.23532 0.8297 0.43772 0.0
O181 O 0.13912 0.8268 0.42446 0.0
O182 O 0.26308 0.68548 0.41478 0.0
O183 O 0.33285 0.79181 0.41948 0.0
O184 O 0.14858 0.69364 0.43327 0.0
O185 O 0.13035 0.71069 0.39198 0.0
O186 O 0.15438 0.74754 0.34313 0.0
O187 O 0.23471 0.72703 0.36024 0.0
O188 O 0.13023 0.86284 0.34549 0.0
O189 O 0.0484 0.78479 0.36921 0.0
O190 O 0.2353 0.91374 0.38483 0.0
O191 O 0.25215 0.83607 0.37498 0.0
H192 H 0.387 0.6695 0.44089 0.0
H193 H 0.28792 0.76904 0.47309 0.0
H194 H 0.3231 0.76308 0.52098 0.0
H195 H 0.41967 0.65958 0.48911 0.0
H196 H 0.07312 0.89066 0.29917 0.0
H197 H -0.01262 0.69173 0.33241 0.0
H198 H 0.94033 0.6466 0.28606 0.0
H199 H 0.02899 0.84597 0.25245 0.0
Gd200 Gd 0.46376 0.23847 0.74378 0.0
Gd201 Gd 0.33228 0.15023 0.71467 0.0
C202 C 0.3315 0.19205 0.77849 0.0
C203 C 0.57301 0.325 0.76657 0.0
C204 C 0.59417 0.3368 0.7963 0.0
C205 C 0.57042 0.28372 0.81554 0.0
C206 C 0.63066 0.4021 0.80635 0.0
C207 C 0.61607 0.36145 0.85476 0.0
C208 C 0.64159 0.41439 0.83535 0.0
C209 C 0.58159 0.29595 0.84453 0.0
C210 C 0.41007 0.10696 0.75482 0.0
C211 C 0.4662 0.2033 0.67813 0.0
C212 C 0.23588 0.06208 0.6843 0.0
C213 C 0.23062 0.02678 0.65756 0.0
C214 C 0.17378 0.00251 0.64085 0.0
C215 C 0.2838 0.02153 0.64745 0.0
C216 C 0.22411 0.96984 0.60371 0.0
C217 C 0.28089 -0.00594 0.62078 0.0
C218 C 0.17031 0.97395 0.61431 0.0
C219 C 0.37419 0.28181 0.71566 0.0
O220 O 0.39081 0.24244 0.77311 0.0
O221 O 0.30114 0.14223 0.76034 0.0
O222 O 0.56448 0.26983 0.75509 0.0
O223 O 0.52554 0.33706 0.76069 0.0
O224 O 0.43683 0.15351 0.77359 0.0
O225 O 0.41043 0.13265 0.73133 0.0
O226 O 0.40227 0.1622 0.68006 0.0
O227 O 0.50112 0.24134 0.69958 0.0
O228 O 0.25942 0.12601 0.68177 0.0
O229 O 0.25976 0.04693 0.70637 0.0
O230 O 0.31287 0.23675 0.71877 0.0
O231 O 0.40793 0.255 0.71148 0.0
H232 H 0.54114 0.23288 0.80831 0.0
H233 H 0.64864 0.44366 0.79185 0.0
H234 H 0.66912 0.46537 0.84263 0.0
H235 H 0.56094 0.25426 0.85899 0.0
H236 H 0.13219 0.00625 0.64822 0.0
H237 H 0.3282 0.03986 0.65995 0.0
H238 H 0.32394 -0.00681 0.61336 0.0
H239 H 0.12529 0.95491 0.60221 0.0
H240 H 0.29546 0.71481 0.31664 0.0
H241 H 0.09883 0.67646 0.29994 0.0
H242 H 0.10727 0.65015 0.25087 0.0
H243 H 0.17319 0.64674 0.2119 0.0
H244 H 0.37067 0.68748 0.22732 0.0
H245 H 0.35917 0.70356 0.27782 0.0
C246 C 0.25414 0.69949 0.30236 0.0
C247 C 0.19692 0.69815 0.31179 0.0
C248 C 0.25976 0.68567 0.27392 0.0
C249 C 0.14373 0.67853 0.29308 0.0
C250 C 0.14848 0.66359 0.265 0.0
C251 C 0.21376 0.65939 0.22635 0.0
C252 C 0.27307 0.66729 0.21602 0.0
C253 C 0.20683 0.66878 0.25505 0.0
C254 C 0.32471 0.68169 0.23492 0.0
C255 C 0.31814 0.69092 0.2637 0.0
H256 H 0.40616 0.13681 0.63026 0.0
H257 H 0.59461 0.28732 0.66251 0.0
H258 H 0.64013 0.30587 0.61464 0.0
H259 H 0.62397 0.28319 0.5632 0.0
H260 H 0.434 0.13285 0.53218 0.0
H261 H 0.39121 0.11075 0.58023 0.0
C262 C 0.45744 0.1732 0.62708 0.0
C263 C 0.4968 0.21061 0.65004 0.0
C264 C 0.48272 0.18421 0.59964 0.0
C265 C 0.56314 0.25773 0.64525 0.0
C266 C 0.5891 0.26855 0.61786 0.0
C267 C 0.57338 0.2453 0.56705 0.0
C268 C 0.53196 0.21034 0.54412 0.0
C269 C 0.54899 0.23274 0.59483 0.0
C270 C 0.46645 0.1615 0.54937 0.0
C271 C 0.44208 0.14844 0.57686 0.0
H272 H 0.31651 0.4562 0.9715 0.0
H273 H 0.2728 0.61213 0.98845 0.0
H274 H 0.3006 0.65137 0.93965 0.0
H275 H 0.32717 0.63419 0.89106 0.0
H276 H 0.37001 0.47731 0.87466 0.0
H277 H 0.35408 0.44662 0.9246 0.0
C278 C 0.31387 0.49929 0.96457 0.0
C279 C 0.29187 0.53074 0.98329 0.0
C280 C 0.3291 0.52093 0.93656 0.0
C281 C 0.28971 0.58719 0.97433 0.0
C282 C 0.30498 0.60922 0.9464 0.0
C283 C 0.33262 0.59307 0.89846 0.0
C284 C 0.34873 0.55744 0.87922 0.0
C285 C 0.32279 0.57516 0.92712 0.0
C286 C 0.35744 0.50537 0.8891 0.0
C287 C 0.34799 0.48749 0.91755 0.0
H288 H 0.7951 0.25526 0.29172 0.0
H289 H 0.66708 0.31846 0.32798 0.0
H290 H 0.64683 0.34817 0.28076 0.0
H291 H 0.66227 0.35137 0.22892 0.0
H292 H 0.78959 0.28591 0.19388 0.0
H293 H 0.81304 0.26134 0.24118 0.0
C294 C 0.76336 0.27632 0.28955 0.0
C295 C 0.73282 0.28479 0.31344 0.0
C296 C 0.75119 0.29203 0.26251 0.0
C297 C 0.69127 0.31147 0.30995 0.0
C298 C 0.67953 0.32824 0.28296 0.0
C299 C 0.69533 0.332 0.23173 0.0
C300 C 0.72358 0.31973 0.20794 0.0
C301 C 0.70863 0.31791 0.25905 0.0
C302 C 0.76617 0.29442 0.2118 0.0
C303 C 0.78001 0.28087 0.23883 0.0
H304 H 0.53302 0.74305 0.62089 0.0
H305 H 0.35434 0.71423 0.65887 0.0
H306 H 0.30394 0.69759 0.61179 0.0
H307 H 0.31297 0.69503 0.55983 0.0
H308 H 0.49628 0.73253 0.5229 0.0
H309 H 0.54285 0.7422 0.56982 0.0
C310 C 0.48365 0.7348 0.61891 0.0
C311 C 0.44812 0.73184 0.6432 0.0
C312 C 0.45576 0.72625 0.59202 0.0
C313 C 0.38282 0.7173 0.64038 0.0
C314 C 0.35415 0.70793 0.61352 0.0
C315 C 0.36321 0.70565 0.56202 0.0
C316 C 0.40086 0.71273 0.53775 0.0
C317 C 0.3905 0.71294 0.58916 0.0
C318 C 0.46557 0.72543 0.54108 0.0
C319 C 0.49259 0.73168 0.56793 0.0
H320 H 0.67642 0.39884 0.98575 0.0
H321 H 0.62822 0.55312 0.97267 0.0
H322 H 0.59904 0.51847 0.92353 0.0
H323 H 0.59709 0.45133 0.88327 0.0
H324 H 0.65023 0.30044 0.8954 0.0
H325 H 0.66705 0.32625 0.94597 0.0
C326 C 0.65802 0.42375 0.9723 0.0
C327 C 0.65464 0.47851 0.98273 0.0
C328 C 0.64321 0.40485 0.9438 0.0
C329 C 0.63153 0.511 0.96502 0.0
C330 C 0.61514 0.49145 0.9369 0.0
C331 C 0.61257 0.42427 0.89699 0.0
C332 C 0.62339 0.37479 0.8856 0.0
C333 C 0.62276 0.43983 0.92587 0.0
C334 C 0.64171 0.33885 0.9037 0.0
C335 C 0.65145 0.35368 0.93258 0.0
H336 H 0.38148 0.49174 0.12451 0.0
H337 H 0.33656 0.38337 0.04572 0.0
H338 H 0.45319 0.42291 0.03847 0.0
H339 H 0.56738 0.49471 0.05265 0.0
H340 H 0.61357 0.602 0.13157 0.0
H341 H 0.49607 0.55859 0.14018 0.0
C342 C 0.39699 0.47544 0.10608 0.0
C343 C 0.35066 0.43496 0.08555 0.0
C344 C 0.4641 0.50037 0.10155 0.0
C345 C 0.37147 0.4143 0.06181 0.0
C346 C 0.43808 0.43773 0.05745 0.0
C347 C 0.55177 0.50975 0.07145 0.0
C348 C 0.59858 0.55321 0.09107 0.0
C349 C 0.48476 0.48251 0.07669 0.0
C350 C 0.57797 0.57013 0.11589 0.0
C351 C 0.51107 0.54453 0.12096 0.0
H352 H 0.0614 0.58268 0.45385 0.0
H353 H 0.01342 0.63017 0.37212 0.0
H354 H 0.92913 0.51408 0.3652 0.0
H355 H 0.87331 0.39857 0.38125 0.0
H356 H 0.91729 0.3506 0.46356 0.0
H357 H 0.00089 0.46751 0.47111 0.0
C358 C 0.03167 0.5678 0.43476 0.0
C359 C 0.04371 0.61473 0.41345 0.0
C360 C -0.01576 0.5008 0.43069 0.0
C361 C 0.00486 0.59485 0.38883 0.0
C362 C 0.95725 0.52843 0.38472 0.0
C363 C 0.90206 0.41364 0.40063 0.0
C364 C 0.89086 0.36635 0.42158 0.0
C365 C 0.94773 0.48083 0.40519 0.0
C366 C 0.9265 0.38643 0.44699 0.0
C367 C 0.97355 0.45313 0.4514 0.0
H368 H 0.46621 0.06889 0.71511 0.0
H369 H 0.38738 0.02524 0.79962 0.0
H370 H 0.42462 0.94444 0.80534 0.0
H371 H 0.48016 0.88733 0.78614 0.0
H372 H 0.56253 0.9351 0.70216 0.0
H373 H 0.52558 0.01568 0.69677 0.0
C374 C 0.45607 0.04071 0.73458 0.0
C375 C 0.42275 0.05141 0.75672 0.0
C376 C 0.47993 -0.00319 0.73806 0.0
C377 C 0.41179 0.01643 0.78216 0.0
C378 C 0.43375 0.97104 0.78552 0.0
C379 C 0.49095 0.91616 0.76684 0.0
C380 C 0.52378 0.9052 0.74452 0.0
C381 C 0.46844 0.96136 0.76369 0.0
C382 C 0.53744 0.94285 0.71964 0.0
C383 C 0.5157 -0.01169 0.71643 0.0
H384 H 0.45392 0.58157 0.7028 0.0
H385 H 0.64607 0.6082 0.71928 0.0
H386 H 0.5987 0.487 0.71989 0.0
H387 H 0.50218 0.37497 0.71586 0.0
H388 H 0.30812 0.35019 0.71065 0.0
H389 H 0.3565 0.47086 0.70598 0.0
C390 C 0.48525 0.56112 0.70767 0.0
C391 C 0.55306 0.60359 0.71188 0.0
C392 C 0.45718 0.49233 0.70997 0.0
C393 C 0.59363 0.57632 0.71633 0.0
C394 C 0.56654 0.50729 0.71674 0.0
C395 C 0.47034 0.396 0.71478 0.0
C396 C 0.4017 0.3541 0.71425 0.0
C397 C 0.4983 0.46504 0.71384 0.0
C398 C 0.36103 0.38171 0.71141 0.0
C399 C 0.38868 0.45044 0.70868 0.0
H400 H 0.95968 0.37826 0.04273 0.0
H401 H 0.14752 0.55878 0.04512 0.0
H402 H 0.094 0.62513 0.04675 0.0
H403 H -0.00716 0.63204 0.04689 0.0
H404 H 0.80676 0.45235 0.03485 0.0
H405 H 0.85986 0.38587 0.03732 0.0
C406 C -0.0114 0.43204 0.04377 0.0
C407 C 0.05709 0.46351 0.04513 0.0
C408 C 0.95765 0.47018 0.04285 0.0
C409 C 0.09442 0.53333 0.04541 0.0
C410 C 0.06395 0.57145 0.04596 0.0
C411 C 0.96423 0.57841 0.04485 0.0
C412 C 0.89596 0.54695 0.04188 0.0
C413 C -0.00452 0.54044 0.04474 0.0
C414 C 0.85936 0.47756 0.03828 0.0
C415 C 0.88962 0.43936 0.03946 0.0
H416 H 0.37217 0.86133 0.37647 0.0
H417 H 0.34655 0.03204 0.38182 0.0
H418 H 0.46573 0.10568 0.37867 0.0
H419 H 0.57572 0.12031 0.374 0.0
H420 H 0.60326 0.95075 0.37889 0.0
H421 H 0.48353 0.87639 0.37837 0.0
C422 C 0.39271 0.91455 0.37792 0.0
C423 C 0.3509 0.94134 0.37999 0.0
C424 C 0.46103 0.95614 0.37771 0.0
C425 C 0.37793 0.01044 0.3805 0.0
C426 C 0.44586 0.05237 0.37866 0.0
C427 C 0.55573 0.0672 0.37592 0.0
C428 C 0.59807 0.04096 0.37717 0.0
C429 C 0.48768 0.02561 0.37737 0.0
C430 C 0.57146 0.97194 0.37821 0.0
C431 C 0.50324 0.92966 0.37793 0.0
H432 H 0.38055 0.28724 0.8193 0.0
H433 H 0.21215 0.0963 0.79955 0.0
H434 H 0.16318 0.09603 0.84524 0.0
H435 H 0.16819 0.15088 0.89103 0.0
H436 H 0.33738 0.3416 0.90974 0.0
H437 H 0.3859 0.3411 0.8643 0.0
C438 C 0.33302 0.24544 0.82483 0.0
C439 C 0.30015 0.19188 0.80584 0.0
C440 C 0.30524 0.24561 0.85108 0.0
C441 C 0.23861 0.13831 0.81363 0.0
C442 C 0.2106 0.13806 0.83982 0.0
C443 C 0.21585 0.19199 0.88516 0.0
C444 C 0.2489 0.24657 0.90366 0.0
C445 C 0.24352 0.19143 0.85878 0.0
C446 C 0.31045 0.29969 0.8957 0.0
C447 C 0.33837 0.29925 0.86976 0.0
H448 H -0.02143 0.1967 0.21739 0.0
H449 H 0.04606 0.39387 0.25035 0.0
H450 H 0.09368 0.44161 0.20468 0.0
H451 H 0.11825 0.42851 0.15567 0.0
H452 H 0.05708 0.23286 0.1228 0.0
H453 H 0.00609 0.1838 0.16827 0.0
C454 C 0.00427 0.25017 0.21477 0.0
C455 C 0.00794 0.29128 0.23754 0.0
C456 C 0.03293 0.27777 0.1884 0.0
C457 C 0.04087 0.36051 0.23329 0.0
C458 C 0.06874 0.38811 0.20714 0.0
C459 C 0.09346 0.37502 0.15829 0.0
C460 C 0.09122 0.33446 0.13566 0.0
C461 C 0.06505 0.34729 0.18456 0.0
C462 C 0.05957 0.26535 0.13976 0.0
C463 C 0.03036 0.23725 0.16579 0.0
H464 H 0.8172 0.03797 0.55652 0.0
H465 H 0.61072 0.96753 0.5677 0.0
H466 H 0.60553 0.01018 0.52113 0.0
H467 H 0.65934 0.06806 0.47752 0.0
H468 H 0.86515 0.13639 0.46498 0.0
H469 H 0.87081 0.09356 0.5116 0.0
C470 C 0.77127 0.03233 0.54873 0.0
C471 C 0.71446 -0.00017 0.56555 0.0
C472 C 0.7684 0.05621 0.52165 0.0
C473 C 0.655 -0.00795 0.55509 0.0
C474 C 0.65202 0.0165 0.52849 0.0
C475 C 0.70552 0.0735 0.48486 0.0
C476 C 0.76179 0.10561 0.46771 0.0
C477 C 0.70835 0.04862 0.51159 0.0
C478 C 0.82099 0.11169 0.47763 0.0
C479 C 0.82434 0.08746 0.50438 0.0
H480 H 0.57807 0.67575 0.81323 0.0
H481 H 0.72536 0.87936 0.79645 0.0
H482 H 0.7706 0.88886 0.84406 0.0
H483 H 0.76602 0.84021 0.891 0.0
H484 H 0.62053 0.63497 0.90643 0.0
H485 H 0.57612 0.62612 0.85907 0.0
C486 C 0.6202 0.72231 0.81985 0.0
C487 C 0.64807 0.77684 0.80117 0.0
C488 C 0.64585 0.72745 0.84722 0.0
C489 C 0.70294 0.83649 0.81025 0.0
C490 C 0.72869 0.84203 0.83756 0.0
C491 C 0.72506 0.79325 0.88398 0.0
C492 C 0.69652 0.73859 0.90268 0.0
C493 C 0.70028 0.78793 0.85631 0.0
C494 C 0.64281 0.67851 0.89302 0.0
C495 C 0.61763 0.67309 0.86573 0.0
H496 H 0.9351 0.79301 0.22419 0.0
H497 H 0.96857 0.6296 0.24057 0.0
H498 H 0.92525 0.58371 0.1939 0.0
H499 H 0.87757 0.58941 0.14829 0.0
H500 H 0.84925 0.75569 0.13107 0.0
H501 H 0.8926 0.80162 0.17781 0.0
C502 C 0.93391 0.74785 0.21754 0.0
C503 C 0.95486 0.71486 0.2363 0.0
C504 C 0.91021 0.72227 0.1903 0.0
C505 C 0.95158 0.65564 0.2271 0.0
C506 C 0.92734 0.62954 0.2002 0.0
C507 C 0.88121 0.63595 0.15463 0.0
C508 C 0.86002 0.6689 0.13601 0.0
C509 C 0.90637 0.66232 0.18162 0.0
C510 C 0.86528 0.72918 0.14477 0.0
C511 C 0.8899 0.75546 0.17161 0.0
H512 H 0.16144 0.97597 0.55532 0.0
H513 H 0.27988 0.89602 0.58742 0.0
H514 H 0.28001 0.85176 0.54088 0.0
H515 H 0.24694 0.8352 0.49119 0.0
H516 H 0.12196 0.90669 0.45906 0.0
H517 H 0.12282 0.95347 0.50567 0.0
C518 C 0.18657 0.94811 0.55236 0.0
C519 C 0.22133 0.94044 0.57514 0.0
C520 C 0.18518 0.92103 0.52548 0.0
C521 C 0.25415 0.90464 0.57041 0.0
C522 C 0.25381 0.87862 0.54375 0.0
C523 C 0.2199 0.86105 0.49426 0.0
C524 C 0.18484 0.86777 0.47152 0.0
C525 C 0.21981 0.88677 0.52114 0.0
C526 C 0.14935 0.90072 0.47615 0.0
C527 C 0.14996 0.9276 0.50281 0.0
loop_
_geom_bond_atom_site_label_1
_geom_bond_atom_site_label_2
_geom_bond_distance
_geom_bond_site_symmetry_2
_ccdc_geom_bond_type
Gd0 C3 2.818 . S
Gd0 O20 2.377 . S
Gd0 O22 2.448 . S
Gd0 O23 2.506 . S
Gd0 O24 2.435 . S
Gd0 O25 2.717 . S
Gd0 O27 2.395 . S
Gd0 O31 2.327 . S
Gd1 C12 2.818 1_554 S
Gd1 O21 2.395 . S
Gd1 O25 2.327 . S
Gd1 O26 2.377 1_554 S
Gd1 O28 2.448 1_554 S
Gd1 O29 2.506 1_554 S
Gd1 O30 2.435 . S
Gd1 O31 2.717 . S
C2 O20 1.240 . S
C2 O21 1.240 . S
C3 Gd0 2.818 . S
C3 C4 1.510 . S
C3 O22 1.249 . S
C3 O23 1.252 . S
C4 C3 1.510 . S
C4 C5 1.404 . S
C4 C6 1.352 . S
C5 C4 1.404 . S
C5 C9 1.389 . S
C5 H32 0.930 . S
C6 C4 1.352 . S
C6 C8 1.374 . S
C6 H33 0.931 . S
C7 C8 1.359 . S
C7 C9 1.364 . S
C8 C6 1.374 . S
C8 C7 1.359 . S
C8 H34 0.931 . S
C9 C5 1.389 . S
C9 C7 1.364 . S
C9 H35 0.931 . S
C10 O24 1.256 . S
C10 O25 1.257 . S
C11 O26 1.240 . S
C11 O27 1.240 1_556 S
C12 Gd1 2.818 1_556 S
C12 C13 1.510 . S
C12 O28 1.249 . S
C12 O29 1.252 . S
C13 C12 1.510 . S
C13 C14 1.404 . S
C13 C15 1.352 . S
C14 C13 1.404 . S
C14 C18 1.389 . S
C14 H36 0.930 . S
C15 C13 1.352 . S
C15 C17 1.374 . S
C15 H37 0.931 . S
C16 C17 1.359 . S
C16 C18 1.364 . S
C17 C15 1.374 . S
C17 C16 1.359 . S
C17 H38 0.931 . S
C18 C14 1.389 . S
C18 C16 1.364 . S
C18 H39 0.931 . S
C19 O30 1.256 . S
C19 O31 1.257 . S
O20 Gd0 2.377 . S
O20 C2 1.240 . S
O21 Gd1 2.395 . S
O21 C2 1.240 . S
O22 Gd0 2.448 . S
O22 C3 1.249 . S
O23 Gd0 2.506 . S
O23 C3 1.252 . S
O24 Gd0 2.435 . S
O24 C10 1.256 . S
O25 Gd0 2.717 . S
O25 Gd1 2.327 . S
O25 C10 1.257 . S
O26 Gd1 2.377 1_556 S
O26 C11 1.240 . S
O27 Gd0 2.395 . S
O27 C11 1.240 1_554 S
O28 Gd1 2.448 1_556 S
O28 C12 1.249 . S
O29 Gd1 2.506 1_556 S
O29 C12 1.252 . S
O30 Gd1 2.435 . S
O30 C19 1.256 . S
O31 Gd0 2.327 . S
O31 Gd1 2.717 . S
O31 C19 1.257 . S
H32 C5 0.930 . S
H33 C6 0.931 . S
H34 C8 0.931 . S
H35 C9 0.931 . S
H36 C14 0.930 . S
H37 C15 0.931 . S
H38 C17 0.931 . S
H39 C18 0.931 . S
Gd40 C43 2.818 . S
Gd40 O60 2.377 . S
Gd40 O62 2.448 . S
Gd40 O63 2.506 . S
Gd40 O64 2.435 . S
Gd40 O65 2.717 . S
Gd40 O67 2.395 . S
Gd40 O71 2.327 . S
Gd41 C52 2.818 . S
Gd41 O61 2.395 . S
Gd41 O65 2.327 . S
Gd41 O66 2.377 . S
Gd41 O68 2.448 . S
Gd41 O69 2.506 . S
Gd41 O70 2.435 . S
Gd41 O71 2.717 . S
C42 O60 1.240 . S
C42 O61 1.240 . S
C43 Gd40 2.818 . S
C43 C44 1.510 . S
C43 O62 1.249 . S
C43 O63 1.252 . S
C44 C43 1.510 . S
C44 C45 1.404 . S
C44 C46 1.352 . S
C45 C44 1.404 . S
C45 C49 1.389 . S
C45 H72 0.930 . S
C46 C44 1.352 . S
C46 C48 1.374 . S
C46 H73 0.931 . S
C47 C48 1.359 . S
C47 C49 1.364 . S
C48 C46 1.374 . S
C48 C47 1.359 . S
C48 H74 0.931 . S
C49 C45 1.389 . S
C49 C47 1.364 . S
C49 H75 0.931 . S
C50 O64 1.256 . S
C50 O65 1.257 . S
C51 O66 1.240 . S
C51 O67 1.240 . S
C52 Gd41 2.818 . S
C52 C53 1.510 . S
C52 O68 1.249 . S
C52 O69 1.252 . S
C53 C52 1.510 . S
C53 C54 1.404 . S
C53 C55 1.352 . S
C54 C53 1.404 . S
C54 C58 1.389 . S
C54 H76 0.930 . S
C55 C53 1.352 . S
C55 C57 1.374 1_655 S
C55 H77 0.931 . S
C56 C57 1.359 1_655 S
C56 C58 1.364 . S
C57 C55 1.374 1_455 S
C57 C56 1.359 1_455 S
C57 H78 0.931 . S
C58 C54 1.389 . S
C58 C56 1.364 . S
C58 H79 0.931 . S
C59 O70 1.256 . S
C59 O71 1.257 . S
O60 Gd40 2.377 . S
O60 C42 1.240 . S
O61 Gd41 2.395 . S
O61 C42 1.240 . S
O62 Gd40 2.448 . S
O62 C43 1.249 . S
O63 Gd40 2.506 . S
O63 C43 1.252 . S
O64 Gd40 2.435 . S
O64 C50 1.256 . S
O65 Gd40 2.717 . S
O65 Gd41 2.327 . S
O65 C50 1.257 . S
O66 Gd41 2.377 . S
O66 C51 1.240 . S
O67 Gd40 2.395 . S
O67 C51 1.240 . S
O68 Gd41 2.448 . S
O68 C52 1.249 . S
O69 Gd41 2.506 . S
O69 C52 1.252 . S
O70 Gd41 2.435 . S
O70 C59 1.256 . S
O71 Gd40 2.327 . S
O71 Gd41 2.717 . S
O71 C59 1.257 . S
H72 C45 0.930 . S
H73 C46 0.931 . S
H74 C48 0.931 . S
H75 C49 0.931 . S
H76 C54 0.930 . S
H77 C55 0.931 . S
H78 C57 0.931 . S
H79 C58 0.931 . S
Gd80 C83 2.818 . S
Gd80 O100 2.377 . S
Gd80 O102 2.448 . S
Gd80 O103 2.506 . S
Gd80 O104 2.435 . S
Gd80 O105 2.717 . S
Gd80 O107 2.395 . S
Gd80 O111 2.327 . S
Gd81 C92 2.818 . S
Gd81 O101 2.395 . S
Gd81 O105 2.327 . S
Gd81 O106 2.377 . S
Gd81 O108 2.448 . S
Gd81 O109 2.506 . S
Gd81 O110 2.435 . S
Gd81 O111 2.717 . S
C82 O100 1.240 . S
C82 O101 1.240 . S
C83 Gd80 2.818 . S
C83 C84 1.510 . S
C83 O102 1.249 . S
C83 O103 1.252 . S
C84 C83 1.510 . S
C84 C85 1.404 . S
C84 C86 1.352 . S
C85 C84 1.404 . S
C85 C89 1.389 . S
C85 H112 0.930 . S
C86 C84 1.352 . S
C86 C88 1.374 . S
C86 H113 0.931 . S
C87 C88 1.359 . S
C87 C89 1.364 . S
C88 C86 1.374 . S
C88 C87 1.359 . S
C88 H114 0.931 . S
C89 C85 1.389 . S
C89 C87 1.364 . S
C89 H115 0.931 . S
C90 O104 1.256 . S
C90 O105 1.257 . S
C91 O106 1.240 . S
C91 O107 1.240 . S
C92 Gd81 2.818 . S
C92 C93 1.510 . S
C92 O108 1.249 . S
C92 O109 1.252 . S
C93 C92 1.510 . S
C93 C94 1.404 . S
C93 C95 1.352 . S
C94 C93 1.404 . S
C94 C98 1.389 . S
C94 H116 0.930 . S
C95 C93 1.352 . S
C95 C97 1.374 1_565 S
C95 H117 0.931 . S
C96 C97 1.359 1_565 S
C96 C98 1.364 . S
C97 C95 1.374 1_545 S
C97 C96 1.359 1_545 S
C97 H118 0.931 . S
C98 C94 1.389 . S
C98 C96 1.364 . S
C98 H119 0.931 . S
C99 O110 1.256 . S
C99 O111 1.257 . S
O100 Gd80 2.377 . S
O100 C82 1.240 . S
O101 Gd81 2.395 . S
O101 C82 1.240 . S
O102 Gd80 2.448 . S
O102 C83 1.249 . S
O103 Gd80 2.506 . S
O103 C83 1.252 . S
O104 Gd80 2.435 . S
O104 C90 1.256 . S
O105 Gd80 2.717 . S
O105 Gd81 2.327 . S
O105 C90 1.257 . S
O106 Gd81 2.377 . S
O106 C91 1.240 . S
O107 Gd80 2.395 . S
O107 C91 1.240 . S
O108 Gd81 2.448 . S
O108 C92 1.249 . S
O109 Gd81 2.506 . S
O109 C92 1.252 . S
O110 Gd81 2.435 . S
O110 C99 1.256 . S
O111 Gd80 2.327 . S
O111 Gd81 2.717 . S
O111 C99 1.257 . S
H112 C85 0.930 . S
H113 C86 0.931 . S
H114 C88 0.931 . S
H115 C89 0.931 . S
H116 C94 0.930 . S
H117 C95 0.931 . S
H118 C97 0.931 . S
H119 C98 0.931 . S
Gd120 C123 2.818 . S
Gd120 O140 2.377 . S
Gd120 O142 2.448 . S
Gd120 O143 2.506 . S
Gd120 O144 2.435 . S
Gd120 O145 2.717 . S
Gd120 O147 2.395 . S
Gd120 O151 2.327 . S
Gd121 C132 2.818 1_554 S
Gd121 O141 2.395 . S
Gd121 O145 2.327 . S
Gd121 O146 2.377 1_554 S
Gd121 O148 2.448 1_554 S
Gd121 O149 2.506 1_554 S
Gd121 O150 2.435 . S
Gd121 O151 2.717 . S
C122 O140 1.240 . S
C122 O141 1.240 . S
C123 Gd120 2.818 . S
C123 C124 1.510 . S
C123 O142 1.249 . S
C123 O143 1.252 . S
C124 C123 1.510 . S
C124 C125 1.404 . S
C124 C126 1.352 . S
C125 C124 1.404 . S
C125 C129 1.389 . S
C125 H152 0.930 . S
C126 C124 1.352 . S
C126 C128 1.374 . S
C126 H153 0.931 . S
C127 C128 1.359 . S
C127 C129 1.364 . S
C128 C126 1.374 . S
C128 C127 1.359 . S
C128 H154 0.931 . S
C129 C125 1.389 . S
C129 C127 1.364 . S
C129 H155 0.931 . S
C130 O144 1.256 . S
C130 O145 1.257 . S
C131 O146 1.240 . S
C131 O147 1.240 1_556 S
C132 Gd121 2.818 1_556 S
C132 C133 1.510 . S
C132 O148 1.249 . S
C132 O149 1.252 . S
C133 C132 1.510 . S
C133 C134 1.404 . S
C133 C135 1.352 . S
C134 C133 1.404 . S
C134 C138 1.389 . S
C134 H156 0.930 . S
C135 C133 1.352 . S
C135 C137 1.374 . S
C135 H157 0.931 . S
C136 C137 1.359 . S
C136 C138 1.364 . S
C137 C135 1.374 . S
C137 C136 1.359 . S
C137 H158 0.931 . S
C138 C134 1.389 . S
C138 C136 1.364 . S
C138 H159 0.931 . S
C139 O150 1.256 . S
C139 O151 1.257 . S
O140 Gd120 2.377 . S
O140 C122 1.240 . S
O141 Gd121 2.395 . S
O141 C122 1.240 . S
O142 Gd120 2.448 . S
O142 C123 1.249 . S
O143 Gd120 2.506 . S
O143 C123 1.252 . S
O144 Gd120 2.435 . S
O144 C130 1.256 . S
O145 Gd120 2.717 . S
O145 Gd121 2.327 . S
O145 C130 1.257 . S
O146 Gd121 2.377 1_556 S
O146 C131 1.240 . S
O147 Gd120 2.395 . S
O147 C131 1.240 1_554 S
O148 Gd121 2.448 1_556 S
O148 C132 1.249 . S
O149 Gd121 2.506 1_556 S
O149 C132 1.252 . S
O150 Gd121 2.435 . S
O150 C139 1.256 . S
O151 Gd120 2.327 . S
O151 Gd121 2.717 . S
O151 C139 1.257 . S
H152 C125 0.930 . S
H153 C126 0.931 . S
H154 C128 0.931 . S
H155 C129 0.931 . S
H156 C134 0.930 . S
H157 C135 0.931 . S
H158 C137 0.931 . S
H159 C138 0.931 . S
Gd160 C163 2.818 . S
Gd160 O180 2.377 . S
Gd160 O182 2.448 . S
Gd160 O183 2.506 . S
Gd160 O184 2.435 . S
Gd160 O185 2.717 . S
Gd160 O187 2.395 . S
Gd160 O191 2.327 . S
Gd161 C172 2.818 . S
Gd161 O181 2.395 . S
Gd161 O185 2.327 . S
Gd161 O186 2.377 . S
Gd161 O188 2.448 . S
Gd161 O189 2.506 . S
Gd161 O190 2.435 . S
Gd161 O191 2.717 . S
C162 O180 1.240 . S
C162 O181 1.240 . S
C163 Gd160 2.818 . S
C163 C164 1.510 . S
C163 O182 1.249 . S
C163 O183 1.252 . S
C164 C163 1.510 . S
C164 C165 1.404 . S
C164 C166 1.352 . S
C165 C164 1.404 . S
C165 C169 1.389 . S
C165 H192 0.930 . S
C166 C164 1.352 . S
C166 C168 1.374 . S
C166 H193 0.931 . S
C167 C168 1.359 . S
C167 C169 1.364 . S
C168 C166 1.374 . S
C168 C167 1.359 . S
C168 H194 0.931 . S
C169 C165 1.389 . S
C169 C167 1.364 . S
C169 H195 0.931 . S
C170 O184 1.256 . S
C170 O185 1.257 . S
C171 O186 1.240 . S
C171 O187 1.240 . S
C172 Gd161 2.818 . S
C172 C173 1.510 . S
C172 O188 1.249 . S
C172 O189 1.252 . S
C173 C172 1.510 . S
C173 C174 1.404 . S
C173 C175 1.352 . S
C174 C173 1.404 . S
C174 C178 1.389 . S
C174 H196 0.930 . S
C175 C173 1.352 . S
C175 C177 1.374 1_455 S
C175 H197 0.931 . S
C176 C177 1.359 1_455 S
C176 C178 1.364 . S
C177 C175 1.374 1_655 S
C177 C176 1.359 1_655 S
C177 H198 0.931 . S
C178 C174 1.389 . S
C178 C176 1.364 . S
C178 H199 0.931 . S
C179 O190 1.256 . S
C179 O191 1.257 . S
O180 Gd160 2.377 . S
O180 C162 1.240 . S
O181 Gd161 2.395 . S
O181 C162 1.240 . S
O182 Gd160 2.448 . S
O182 C163 1.249 . S
O183 Gd160 2.506 . S
O183 C163 1.252 . S
O184 Gd160 2.435 . S
O184 C170 1.256 . S
O185 Gd160 2.717 . S
O185 Gd161 2.327 . S
O185 C170 1.257 . S
O186 Gd161 2.377 . S
O186 C171 1.240 . S
O187 Gd160 2.395 . S
O187 C171 1.240 . S
O188 Gd161 2.448 . S
O188 C172 1.249 . S
O189 Gd161 2.506 . S
O189 C172 1.252 . S
O190 Gd161 2.435 . S
O190 C179 1.256 . S
O191 Gd160 2.327 . S
O191 Gd161 2.717 . S
O191 C179 1.257 . S
H192 C165 0.930 . S
H193 C166 0.931 . S
H194 C168 0.931 . S
H195 C169 0.931 . S
H196 C174 0.930 . S
H197 C175 0.931 . S
H198 C177 0.931 . S
H199 C178 0.931 . S
Gd200 C203 2.818 . S
Gd200 O220 2.377 . S
Gd200 O222 2.448 . S
Gd200 O223 2.506 . S
Gd200 O224 2.435 . S
Gd200 O225 2.717 . S
Gd200 O227 2.395 . S
Gd200 O231 2.327 . S
Gd201 C212 2.818 . S
Gd201 O221 2.395 . S
Gd201 O225 2.327 . S
Gd201 O226 2.377 . S
Gd201 O228 2.448 . S
Gd201 O229 2.506 . S
Gd201 O230 2.435 . S
Gd201 O231 2.717 . S
C202 O220 1.240 . S
C202 O221 1.240 . S
C203 Gd200 2.818 . S
C203 C204 1.510 . S
C203 O222 1.249 . S
C203 O223 1.252 . S
C204 C203 1.510 . S
C204 C205 1.404 . S
C204 C206 1.352 . S
C205 C204 1.404 . S
C205 C209 1.389 . S
C205 H232 0.930 . S
C206 C204 1.352 . S
C206 C208 1.374 . S
C206 H233 0.931 . S
C207 C208 1.359 . S
C207 C209 1.364 . S
C208 C206 1.374 . S
C208 C207 1.359 . S
C208 H234 0.931 . S
C209 C205 1.389 . S
C209 C207 1.364 . S
C209 H235 0.931 . S
C210 O224 1.256 . S
C210 O225 1.257 . S
C211 O226 1.240 . S
C211 O227 1.240 . S
C212 Gd201 2.818 . S
C212 C213 1.510 . S
C212 O228 1.249 . S
C212 O229 1.252 . S
C213 C212 1.510 . S
C213 C214 1.404 . S
C213 C215 1.352 . S
C214 C213 1.404 . S
C214 C218 1.389 . S
C214 H236 0.930 . S
C215 C213 1.352 . S
C215 C217 1.374 1_545 S
C215 H237 0.931 . S
C216 C217 1.359 1_545 S
C216 C218 1.364 . S
C217 C215 1.374 1_565 S
C217 C216 1.359 1_565 S
C217 H238 0.931 . S
C218 C214 1.389 . S
C218 C216 1.364 . S
C218 H239 0.931 . S
C219 O230 1.256 . S
C219 O231 1.257 . S
O220 Gd200 2.377 . S
O220 C202 1.240 . S
O221 Gd201 2.395 . S
O221 C202 1.240 . S
O222 Gd200 2.448 . S
O222 C203 1.249 . S
O223 Gd200 2.506 . S
O223 C203 1.252 . S
O224 Gd200 2.435 . S
O224 C210 1.256 . S
O225 Gd200 2.717 . S
O225 Gd201 2.327 . S
O225 C210 1.257 . S
O226 Gd201 2.377 . S
O226 C211 1.240 . S
O227 Gd200 2.395 . S
O227 C211 1.240 . S
O228 Gd201 2.448 . S
O228 C212 1.249 . S
O229 Gd201 2.506 . S
O229 C212 1.252 . S
O230 Gd201 2.435 . S
O230 C219 1.256 . S
O231 Gd200 2.327 . S
O231 Gd201 2.717 . S
O231 C219 1.257 . S
H232 C205 0.930 . S
H233 C206 0.931 . S
H234 C208 0.931 . S
H235 C209 0.931 . S
H236 C214 0.930 . S
H237 C215 0.931 . S
H238 C217 0.931 . S
H239 C218 0.931 . S
H240 C246 0.930 . S
H241 C249 0.930 . S
H242 C250 0.930 . S
H243 C251 0.930 . S
H244 C254 0.930 . S
H245 C255 0.930 . S
C246 H240 0.930 . S
C246 C247 1.355 . S
C246 C248 1.415 . S
C247 C246 1.355 . S
C247 C249 1.419 . S
C248 C246 1.415 . S
C248 C253 1.425 . S
C248 C255 1.409 . S
C249 H241 0.930 . S
C249 C247 1.419 . S
C249 C250 1.362 . S
C250 H242 0.930 . S
C250 C249 1.362 . S
C250 C253 1.409 . S
C251 H243 0.930 . S
C251 C252 1.355 . S
C251 C253 1.415 . S
C252 C251 1.355 . S
C252 C254 1.419 . S
C253 C248 1.425 . S
C253 C250 1.409 . S
C253 C251 1.415 . S
C254 H244 0.930 . S
C254 C252 1.419 . S
C254 C255 1.362 . S
C255 H245 0.930 . S
C255 C248 1.409 . S
C255 C254 1.362 . S
H256 C262 0.930 . S
H257 C265 0.930 . S
H258 C266 0.930 . S
H259 C267 0.930 . S
H260 C270 0.930 . S
H261 C271 0.930 . S
C262 H256 0.930 . S
C262 C263 1.355 . S
C262 C264 1.415 . S
C263 C262 1.355 . S
C263 C265 1.419 . S
C264 C262 1.415 . S
C264 C269 1.425 . S
C264 C271 1.409 . S
C265 H257 0.930 . S
C265 C263 1.419 . S
C265 C266 1.362 . S
C266 H258 0.930 . S
C266 C265 1.362 . S
C266 C269 1.409 . S
C267 H259 0.930 . S
C267 C268 1.355 . S
C267 C269 1.415 . S
C268 C267 1.355 . S
C268 C270 1.419 . S
C269 C264 1.425 . S
C269 C266 1.409 . S
C269 C267 1.415 . S
C270 H260 0.930 . S
C270 C268 1.419 . S
C270 C271 1.362 . S
C271 H261 0.930 . S
C271 C264 1.409 . S
C271 C270 1.362 . S
H272 C278 0.930 . S
H273 C281 0.930 . S
H274 C282 0.930 . S
H275 C283 0.930 . S
H276 C286 0.930 . S
H277 C287 0.930 . S
C278 H272 0.930 . S
C278 C279 1.355 . S
C278 C280 1.415 . S
C279 C278 1.355 . S
C279 C281 1.419 . S
C280 C278 1.415 . S
C280 C285 1.425 . S
C280 C287 1.409 . S
C281 H273 0.930 . S
C281 C279 1.419 . S
C281 C282 1.362 . S
C282 H274 0.930 . S
C282 C281 1.362 . S
C282 C285 1.409 . S
C283 H275 0.930 . S
C283 C284 1.355 . S
C283 C285 1.415 . S
C284 C283 1.355 . S
C284 C286 1.419 . S
C285 C280 1.425 . S
C285 C282 1.409 . S
C285 C283 1.415 . S
C286 H276 0.930 . S
C286 C284 1.419 . S
C286 C287 1.362 . S
C287 H277 0.930 . S
C287 C280 1.409 . S
C287 C286 1.362 . S
H288 C294 0.930 . S
H289 C297 0.930 . S
H290 C298 0.930 . S
H291 C299 0.930 . S
H292 C302 0.930 . S
H293 C303 0.930 . S
C294 H288 0.930 . S
C294 C295 1.355 . S
C294 C296 1.415 . S
C295 C294 1.355 . S
C295 C297 1.419 . S
C296 C294 1.415 . S
C296 C301 1.425 . S
C296 C303 1.409 . S
C297 H289 0.930 . S
C297 C295 1.419 . S
C297 C298 1.362 . S
C298 H290 0.930 . S
C298 C297 1.362 . S
C298 C301 1.409 . S
C299 H291 0.930 . S
C299 C300 1.355 . S
C299 C301 1.415 . S
C300 C299 1.355 . S
C300 C302 1.419 . S
C301 C296 1.425 . S
C301 C298 1.409 . S
C301 C299 1.415 . S
C302 H292 0.930 . S
C302 C300 1.419 . S
C302 C303 1.362 . S
C303 H293 0.930 . S
C303 C296 1.409 . S
C303 C302 1.362 . S
H304 C310 0.930 . S
H305 C313 0.930 . S
H306 C314 0.930 . S
H307 C315 0.930 . S
H308 C318 0.930 . S
H309 C319 0.930 . S
C310 H304 0.930 . S
C310 C311 1.355 . S
C310 C312 1.415 . S
C311 C310 1.355 . S
C311 C313 1.419 . S
C312 C310 1.415 . S
C312 C317 1.425 . S
C312 C319 1.409 . S
C313 H305 0.930 . S
C313 C311 1.419 . S
C313 C314 1.362 . S
C314 H306 0.930 . S
C314 C313 1.362 . S
C314 C317 1.409 . S
C315 H307 0.930 . S
C315 C316 1.355 . S
C315 C317 1.415 . S
C316 C315 1.355 . S
C316 C318 1.419 . S
C317 C312 1.425 . S
C317 C314 1.409 . S
C317 C315 1.415 . S
C318 H308 0.930 . S
C318 C316 1.419 . S
C318 C319 1.362 . S
C319 H309 0.930 . S
C319 C312 1.409 . S
C319 C318 1.362 . S
H320 C326 0.930 . S
H321 C329 0.930 . S
H322 C330 0.930 . S
H323 C331 0.930 . S
H324 C334 0.930 . S
H325 C335 0.930 . S
C326 H320 0.930 . S
C326 C327 1.355 . S
C326 C328 1.415 . S
C327 C326 1.355 . S
C327 C329 1.419 . S
C328 C326 1.415 . S
C328 C333 1.425 . S
C328 C335 1.409 . S
C329 H321 0.930 . S
C329 C327 1.419 . S
C329 C330 1.362 . S
C330 H322 0.930 . S
C330 C329 1.362 . S
C330 C333 1.409 . S
C331 H323 0.930 . S
C331 C332 1.355 . S
C331 C333 1.415 . S
C332 C331 1.355 . S
C332 C334 1.419 . S
C333 C328 1.425 . S
C333 C330 1.409 . S
C333 C331 1.415 . S
C334 H324 0.930 . S
C334 C332 1.419 . S
C334 C335 1.362 . S
C335 H325 0.930 . S
C335 C328 1.409 . S
C335 C334 1.362 . S
H336 C342 0.930 . S
H337 C345 0.930 . S
H338 C346 0.930 . S
H339 C347 0.930 . S
H340 C350 0.930 . S
H341 C351 0.930 . S
C342 H336 0.930 . S
C342 C343 1.355 . S
C342 C344 1.415 . S
C343 C342 1.355 . S
C343 C345 1.419 . S
C344 C342 1.415 . S
C344 C349 1.425 . S
C344 C351 1.409 . S
C345 H337 0.930 . S
C345 C343 1.419 . S
C345 C346 1.362 . S
C346 H338 0.930 . S
C346 C345 1.362 . S
C346 C349 1.409 . S
C347 H339 0.930 . S
C347 C348 1.355 . S
C347 C349 1.415 . S
C348 C347 1.355 . S
C348 C350 1.419 . S
C349 C344 1.425 . S
C349 C346 1.409 . S
C349 C347 1.415 . S
C350 H340 0.930 . S
C350 C348 1.419 . S
C350 C351 1.362 . S
C351 H341 0.930 . S
C351 C344 1.409 . S
C351 C350 1.362 . S
H352 C358 0.930 . S
H353 C361 0.930 . S
H354 C362 0.930 . S
H355 C363 0.930 . S
H356 C366 0.930 . S
H357 C367 0.930 . S
C358 H352 0.930 . S
C358 C359 1.355 . S
C358 C360 1.415 . S
C359 C358 1.355 . S
C359 C361 1.419 1_455 S
C360 C358 1.415 . S
C360 C365 1.425 1_455 S
C360 C367 1.409 . S
C361 H353 0.930 . S
C361 C359 1.419 1_655 S
C361 C362 1.362 . S
C362 H354 0.930 . S
C362 C361 1.362 . S
C362 C365 1.409 . S
C363 H355 0.930 . S
C363 C364 1.355 . S
C363 C365 1.415 . S
C364 C363 1.355 . S
C364 C366 1.419 1_655 S
C365 C360 1.425 1_655 S
C365 C362 1.409 . S
C365 C363 1.415 . S
C366 H356 0.930 . S
C366 C364 1.419 1_455 S
C366 C367 1.362 . S
C367 H357 0.930 . S
C367 C360 1.409 . S
C367 C366 1.362 . S
H368 C374 0.930 . S
H369 C377 0.930 . S
H370 C378 0.930 . S
H371 C379 0.930 . S
H372 C382 0.930 . S
H373 C383 0.930 . S
C374 H368 0.930 . S
C374 C375 1.355 1_565 S
C374 C376 1.415 . S
C375 C374 1.355 1_545 S
C375 C377 1.419 . S
C376 C374 1.415 . S
C376 C381 1.425 1_565 S
C376 C383 1.409 . S
C377 H369 0.930 . S
C377 C375 1.419 . S
C377 C378 1.362 . S
C378 H370 0.930 . S
C378 C377 1.362 . S
C378 C381 1.409 . S
C379 H371 0.930 . S
C379 C380 1.355 1_545 S
C379 C381 1.415 . S
C380 C379 1.355 1_565 S
C380 C382 1.419 . S
C381 C376 1.425 1_545 S
C381 C378 1.409 . S
C381 C379 1.415 . S
C382 H372 0.930 . S
C382 C380 1.419 . S
C382 C383 1.362 . S
C383 H373 0.930 . S
C383 C376 1.409 . S
C383 C382 1.362 . S
H384 C390 0.930 . S
H385 C393 0.930 . S
H386 C394 0.930 . S
H387 C395 0.930 . S
H388 C398 0.930 . S
H389 C399 0.930 . S
C390 H384 0.930 . S
C390 C391 1.355 . S
C390 C392 1.415 . S
C391 C390 1.355 . S
C391 C393 1.419 . S
C392 C390 1.415 . S
C392 C397 1.425 . S
C392 C399 1.409 . S
C393 H385 0.930 . S
C393 C391 1.419 . S
C393 C394 1.362 . S
C394 H386 0.930 . S
C394 C393 1.362 . S
C394 C397 1.409 . S
C395 H387 0.930 . S
C395 C396 1.355 . S
C395 C397 1.415 . S
C396 C395 1.355 . S
C396 C398 1.419 . S
C397 C392 1.425 . S
C397 C394 1.409 . S
C397 C395 1.415 . S
C398 H388 0.930 . S
C398 C396 1.419 . S
C398 C399 1.362 . S
C399 H389 0.930 . S
C399 C392 1.409 . S
C399 C398 1.362 . S
H400 C406 0.928 1_655 S
H401 C409 0.914 1_556 S
H402 C410 0.930 1_556 S
H403 C411 0.928 1_455 S
H404 C414 0.930 . S
H405 C415 0.930 . S
C406 H400 0.928 1_455 S
C406 C407 1.362 . S
C406 C408 1.409 1_455 S
C407 C406 1.362 . S
C407 C409 1.419 . S
C408 C406 1.409 1_655 S
C408 C413 1.425 1_655 S
C408 C415 1.409 . S
C409 H401 0.914 1_554 S
C409 C407 1.419 . S
C409 C410 1.362 . S
C410 H402 0.930 1_554 S
C410 C409 1.362 . S
C410 C413 1.409 . S
C411 H403 0.928 1_655 S
C411 C412 1.362 . S
C411 C413 1.409 1_655 S
C412 C411 1.362 . S
C412 C414 1.419 . S
C413 C408 1.425 1_455 S
C413 C410 1.409 . S
C413 C411 1.409 1_455 S
C414 H404 0.930 . S
C414 C412 1.419 . S
C414 C415 1.362 . S
C415 H405 0.930 . S
C415 C408 1.409 . S
C415 C414 1.362 . S
H416 C422 0.930 . S
H417 C425 0.930 1_545 S
H418 C426 0.930 . S
H419 C427 0.930 . S
H420 C430 0.930 1_565 S
H421 C431 0.930 . S
C422 H416 0.930 . S
C422 C423 1.355 . S
C422 C424 1.415 . S
C423 C422 1.355 . S
C423 C425 1.419 . S
C424 C422 1.415 . S
C424 C429 1.425 1_565 S
C424 C431 1.409 . S
C425 H417 0.930 1_565 S
C425 C423 1.419 . S
C425 C426 1.362 1_565 S
C426 H418 0.930 . S
C426 C425 1.362 1_545 S
C426 C429 1.409 . S
C427 H419 0.930 . S
C427 C428 1.355 . S
C427 C429 1.415 . S
C428 C427 1.355 . S
C428 C430 1.419 . S
C429 C424 1.425 1_545 S
C429 C426 1.409 . S
C429 C427 1.415 . S
C430 H420 0.930 1_545 S
C430 C428 1.419 . S
C430 C431 1.362 1_545 S
C431 H421 0.930 . S
C431 C424 1.409 . S
C431 C430 1.362 1_565 S
H432 C438 0.930 . S
H433 C441 0.930 . S
H434 C442 0.930 . S
H435 C443 0.930 . S
H436 C446 0.930 . S
H437 C447 0.930 . S
C438 H432 0.930 . S
C438 C439 1.355 . S
C438 C440 1.415 . S
C439 C438 1.355 . S
C439 C441 1.419 . S
C440 C438 1.415 . S
C440 C445 1.425 . S
C440 C447 1.409 . S
C441 H433 0.930 . S
C441 C439 1.419 . S
C441 C442 1.362 . S
C442 H434 0.930 . S
C442 C441 1.362 . S
C442 C445 1.409 . S
C443 H435 0.930 . S
C443 C444 1.355 . S
C443 C445 1.415 . S
C444 C443 1.355 . S
C444 C446 1.419 . S
C445 C440 1.425 . S
C445 C442 1.409 . S
C445 C443 1.415 . S
C446 H436 0.930 . S
C446 C444 1.419 . S
C446 C447 1.362 . S
C447 H437 0.930 . S
C447 C440 1.409 . S
C447 C446 1.362 . S
H448 C454 0.930 . S
H449 C457 0.930 . S
H450 C458 0.930 . S
H451 C459 0.930 . S
H452 C462 0.930 . S
H453 C463 0.930 . S
C454 H448 0.930 . S
C454 C455 1.355 . S
C454 C456 1.415 . S
C455 C454 1.355 . S
C455 C457 1.419 1_455 S
C456 C454 1.415 . S
C456 C461 1.425 . S
C456 C463 1.409 . S
C457 H449 0.930 . S
C457 C455 1.419 1_655 S
C457 C458 1.362 . S
C458 H450 0.930 . S
C458 C457 1.362 . S
C458 C461 1.409 1_655 S
C459 H451 0.930 . S
C459 C460 1.355 . S
C459 C461 1.415 . S
C460 C459 1.355 . S
C460 C462 1.419 . S
C461 C456 1.425 . S
C461 C458 1.409 1_455 S
C461 C459 1.415 . S
C462 H452 0.930 . S
C462 C460 1.419 . S
C462 C463 1.362 . S
C463 H453 0.930 . S
C463 C456 1.409 . S
C463 C462 1.362 . S
H464 C470 0.930 . S
H465 C473 0.930 . S
H466 C474 0.930 1_565 S
H467 C475 0.930 . S
H468 C478 0.930 . S
H469 C479 0.930 . S
C470 H464 0.930 . S
C470 C471 1.355 . S
C470 C472 1.415 . S
C471 C470 1.355 . S
C471 C473 1.419 1_545 S
C472 C470 1.415 . S
C472 C477 1.425 . S
C472 C479 1.409 . S
C473 H465 0.930 . S
C473 C471 1.419 1_565 S
C473 C474 1.362 1_565 S
C474 H466 0.930 1_545 S
C474 C473 1.362 1_545 S
C474 C477 1.409 . S
C475 H467 0.930 . S
C475 C476 1.355 . S
C475 C477 1.415 . S
C476 C475 1.355 . S
C476 C478 1.419 . S
C477 C472 1.425 . S
C477 C474 1.409 . S
C477 C475 1.415 . S
C478 H468 0.930 . S
C478 C476 1.419 . S
C478 C479 1.362 . S
C479 H469 0.930 . S
C479 C472 1.409 . S
C479 C478 1.362 . S
H480 C486 0.930 . S
H481 C489 0.930 . S
H482 C490 0.930 . S
H483 C491 0.930 . S
H484 C494 0.930 . S
H485 C495 0.930 . S
C486 H480 0.930 . S
C486 C487 1.355 . S
C486 C488 1.415 . S
C487 C486 1.355 . S
C487 C489 1.419 . S
C488 C486 1.415 . S
C488 C493 1.425 . S
C488 C495 1.409 . S
C489 H481 0.930 . S
C489 C487 1.419 . S
C489 C490 1.362 . S
C490 H482 0.930 . S
C490 C489 1.362 . S
C490 C493 1.409 . S
C491 H483 0.930 . S
C491 C492 1.355 . S
C491 C493 1.415 . S
C492 C491 1.355 . S
C492 C494 1.419 . S
C493 C488 1.425 . S
C493 C490 1.409 . S
C493 C491 1.415 . S
C494 H484 0.930 . S
C494 C492 1.419 . S
C494 C495 1.362 . S
C495 H485 0.930 . S
C495 C488 1.409 . S
C495 C494 1.362 . S
H496 C502 0.930 . S
H497 C505 0.930 . S
H498 C506 0.930 . S
H499 C507 0.930 . S
H500 C510 0.930 . S
H501 C511 0.930 . S
C502 H496 0.930 . S
C502 C503 1.355 . S
C502 C504 1.415 . S
C503 C502 1.355 . S
C503 C505 1.419 . S
C504 C502 1.415 . S
C504 C509 1.425 . S
C504 C511 1.409 . S
C505 H497 0.930 . S
C505 C503 1.419 . S
C505 C506 1.362 . S
C506 H498 0.930 . S
C506 C505 1.362 . S
C506 C509 1.409 . S
C507 H499 0.930 . S
C507 C508 1.355 . S
C507 C509 1.415 . S
C508 C507 1.355 . S
C508 C510 1.419 . S
C509 C504 1.425 . S
C509 C506 1.409 . S
C509 C507 1.415 . S
C510 H500 0.930 . S
C510 C508 1.419 . S
C510 C511 1.362 . S
C511 H501 0.930 . S
C511 C504 1.409 . S
C511 C510 1.362 . S
H512 C518 0.930 . S
H513 C521 0.930 . S
H514 C522 0.930 . S
H515 C523 0.930 . S
H516 C526 0.930 . S
H517 C527 0.930 1_545 S
C518 H512 0.930 . S
C518 C519 1.355 1_545 S
C518 C520 1.415 1_545 S
C519 C518 1.355 1_565 S
C519 C521 1.419 . S
C520 C518 1.415 1_565 S
C520 C525 1.425 . S
C520 C527 1.409 . S
C521 H513 0.930 . S
C521 C519 1.419 . S
C521 C522 1.362 . S
C522 H514 0.930 . S
C522 C521 1.362 . S
C522 C525 1.409 . S
C523 H515 0.930 . S
C523 C524 1.355 . S
C523 C525 1.415 . S
C524 C523 1.355 . S
C524 C526 1.419 . S
C525 C520 1.425 . S
C525 C522 1.409 . S
C525 C523 1.415 . S
C526 H516 0.930 . S
C526 C524 1.419 . S
C526 C527 1.362 . S
C527 H517 0.930 1_565 S
C527 C520 1.409 . S
C527 C526 1.362 . S
C247 C171 1.204 . S
C252 C7 1.204 . S
C263 C211 1.190 . S
C268 C47 1.201 . S
C279 C11 1.196 . S
C284 C87 1.204 . S
C295 C51 1.209 . S
C300 C127 1.206 . S
C311 C91 1.210 . S
C316 C167 1.206 . S
C327 C131 1.210 . S
C332 C207 1.206 . S
C343 C10 1.187 . S
C348 C130 1.169 . S
C359 C170 1.193 . S
C364 C50 1.177 . S
C375 C210 1.054 . S
C380 C90 1.067 . S
C391 C99 1.315 . S
C396 C219 1.302 . S
C407 C19 1.276 . S
C412 C139 1.294 . S
C423 C179 1.311 . S
C428 C59 1.291 . S
C439 C202 1.347 . S
C444 C16 1.337 . S
C455 C56 1.309 1_455 S
C460 C2 1.341 . S
C471 C96 1.329 1_545 S
C476 C42 1.345 . S
C487 C82 1.341 . S
C492 C136 1.274 . S
C503 C176 1.277 1_655 S
C508 C122 1.344 . S
C519 C216 1.333 1_565 S
C524 C162 1.356 . S
