# Generated by pormake.
# Topology tfs, (6)-cn, num edge types: 1
# Building blocks:
#     Node 0, Type 0, BuildingBlock: UKALOJ_clean_sbu_0, # of connection points: 6
#     Node 1, Type 0, BuildingBlock: UKALOJ_clean_sbu_0, # of connection points: 6
#     Node 2, Type 0, BuildingBlock: UKALOJ_clean_sbu_0, # of connection points: 6
#     Node 3, Type 0, BuildingBlock: UKALOJ_clean_sbu_0, # of connection points: 6
#     Node 4, Type 0, BuildingBlock: UKALOJ_clean_sbu_0, # of connection points: 6
#     Node 5, Type 0, BuildingBlock: UKALOJ_clean_sbu_0, # of connection points: 6
#     Edge 6, Type (0, 0), BuildingBlock: KIFKEQ_clean_linker_1, # of connection points: 2
#     Edge 7, Type (0, 0), BuildingBlock: KIFKEQ_clean_linker_1, # of connection points: 2
#     Edge 8, Type (0, 0), BuildingBlock: KIFKEQ_clean_linker_1, # of connection points: 2
#     Edge 9, Type (0, 0), BuildingBlock: KIFKEQ_clean_linker_1, # of connection points: 2
#     Edge 10, Type (0, 0), BuildingBlock: KIFKEQ_clean_linker_1, # of connection points: 2
#     Edge 11, Type (0, 0), BuildingBlock: KIFKEQ_clean_linker_1, # of connection points: 2
#     Edge 12, Type (0, 0), BuildingBlock: KIFKEQ_clean_linker_1, # of connection points: 2
#     Edge 13, Type (0, 0), BuildingBlock: KIFKEQ_clean_linker_1, # of connection points: 2
#     Edge 14, Type (0, 0), BuildingBlock: KIFKEQ_clean_linker_1, # of connection points: 2
#     Edge 15, Type (0, 0), BuildingBlock: KIFKEQ_clean_linker_1, # of connection points: 2
#     Edge 16, Type (0, 0), BuildingBlock: KIFKEQ_clean_linker_1, # of connection points: 2
#     Edge 17, Type (0, 0), BuildingBlock: KIFKEQ_clean_linker_1, # of connection points: 2
#     Edge 18, Type (0, 0), BuildingBlock: KIFKEQ_clean_linker_1, # of connection points: 2
#     Edge 19, Type (0, 0), BuildingBlock: KIFKEQ_clean_linker_1, # of connection points: 2
#     Edge 20, Type (0, 0), BuildingBlock: KIFKEQ_clean_linker_1, # of connection points: 2
#     Edge 21, Type (0, 0), BuildingBlock: KIFKEQ_clean_linker_1, # of connection points: 2
#     Edge 22, Type (0, 0), BuildingBlock: KIFKEQ_clean_linker_1, # of connection points: 2
#     Edge 23, Type (0, 0), BuildingBlock: KIFKEQ_clean_linker_1, # of connection points: 2
# Relax obj value: 0.225
# Max RMSD: 0.157
# Mean RMSD: 0.157
data_MOF--net-tfs--node1-UKALOJ_clean_sbu_0--edge1-KIFKEQ_clean_linker_1
_symmetry_space_group_name_H-M    P1
_symmetry_Int_Tables_number       1
_symmetry_cell_setting            triclinic
loop_
_symmetry_equiv_pos_as_xyz
'x, y, z'
_cell_length_a     48.630506
_cell_length_b     48.61147
_cell_length_c     15.619879
_cell_angle_alpha  90.007792
_cell_angle_beta   89.993316
_cell_angle_gamma 119.99763
loop_
_atom_site_label
_atom_site_type_symbol
_atom_site_fract_x
_atom_site_fract_y
_atom_site_fract_z
_atom_type_partial_charge
Zn0 Zn 0.18184 0.44689 -0.0009 0.0
O1 O 0.18108 0.44749 0.13462 0.0
C2 C 0.25181 0.47344 -0.0009 0.0
Zn3 Zn 0.19442 0.40859 -0.0012 0.0
C4 C 0.18762 0.42886 0.17548 0.0
O5 O 0.19407 0.41024 0.13426 0.0
C6 C 0.18847 0.42648 0.8224 0.0
O7 O 0.145 0.3738 -0.0022 0.0
O8 O 0.13328 0.41196 -4e-05 0.0
N9 N 0.20576 0.37333 0.00671 0.0
C10 C 0.23037 0.37089 0.97587 0.0
C11 C 0.20277 0.33026 0.05391 0.0
N12 N 0.18861 0.348 0.05489 0.0
N13 N 0.22922 0.3441 0.00529 0.0
C14 C 0.18401 0.51172 0.02054 0.0
C15 C 0.14536 0.50492 0.94166 0.0
N16 N 0.16993 0.48166 -0.00923 0.0
N17 N 0.14585 0.47748 0.94212 0.0
N18 N 0.16919 0.527 -0.01016 0.0
H19 H 0.21087 0.5064 0.12277 0.0
H20 H 0.2101 0.54312 0.12488 0.0
H21 H 0.23387 0.53697 0.04687 0.0
C22 C 0.21114 0.52529 0.08271 0.0
C23 C 0.25442 0.39402 0.91406 0.0
H24 H 0.24434 0.40594 0.87553 0.0
H25 H 0.2629 0.38184 0.87035 0.0
H26 H 0.27495 0.41261 0.95021 0.0
O27 O 0.19429 0.40735 0.86329 0.0
O28 O 0.18257 0.44549 0.86361 0.0
C29 C 0.12431 0.38252 -0.00103 0.0
O30 O 0.23056 0.48133 -0.00205 0.0
O31 O 0.24355 0.44414 0.00018 0.0
Zn32 Zn 0.73877 0.18036 -0.00083 0.0
O33 O 0.73739 0.17966 0.13419 0.0
C34 C 0.78276 0.25042 0.00088 0.0
Zn35 Zn 0.78962 0.19249 -0.00277 0.0
C36 C 0.76229 0.18517 0.17473 0.0
O37 O 0.78711 0.19092 0.13319 0.0
C38 C 0.76599 0.18728 0.82164 0.0
O39 O 0.77452 0.1429 -0.00631 0.0
O40 O 0.72482 0.13166 -0.00072 0.0
N41 N 0.83621 0.20343 0.00573 0.0
C42 C 0.86351 0.22793 0.97551 0.0
C43 C 0.87594 0.20016 0.05472 0.0
N44 N 0.84405 0.18617 0.05459 0.0
N45 N 0.88892 0.22663 0.00613 0.0
C46 C 0.67554 0.18189 0.0218 0.0
C47 C 0.64459 0.14468 0.9378 0.0
N48 N 0.69199 0.16858 -0.00992 0.0
N49 N 0.67262 0.14537 0.93831 0.0
N50 N 0.64574 0.16752 -0.01087 0.0
H51 H 0.70769 0.20814 0.12494 0.0
H52 H 0.66921 0.20519 0.13117 0.0
H53 H 0.69816 0.23103 0.05411 0.0
C54 C 0.68835 0.2079 0.08725 0.0
C55 C 0.86494 0.25209 0.91333 0.0
H56 H 0.84289 0.24251 0.87526 0.0
H57 H 0.88546 0.25997 0.86939 0.0
H58 H 0.86768 0.27295 0.94929 0.0
O59 O 0.79112 0.1935 0.86213 0.0
O60 O 0.74103 0.18095 0.86325 0.0
C61 C 0.74504 0.12239 -0.00398 0.0
O62 O 0.7535 0.22938 -6e-05 0.0
O63 O 0.80356 0.24182 0.00016 0.0
Zn64 Zn 0.56059 0.73608 -0.01197 0.0
O65 O 0.55997 0.73401 0.12313 0.0
C66 C 0.53411 0.77956 -0.01159 0.0
Zn67 Zn 0.59905 0.78703 0.98628 0.0
C68 C 0.57835 0.75936 0.16365 0.0
O69 O 0.59663 0.78449 0.12209 0.0
C70 C 0.58132 0.76369 0.81063 0.0
O71 O 0.63382 0.77234 0.98631 0.0
O72 O 0.59556 0.72249 0.98705 0.0
N73 N 0.63442 0.83376 -0.00381 0.0
C74 C 0.63745 0.86109 0.96539 0.0
C75 C 0.67699 0.87348 0.04719 0.0
N76 N 0.65911 0.84157 0.04668 0.0
N77 N 0.66391 0.88651 -0.0028 0.0
C78 C 0.49676 0.67184 0.01208 0.0
C79 C 0.50229 0.64276 0.91945 0.0
N80 N 0.52602 0.68925 0.97791 0.0
N81 N 0.52943 0.67098 0.92092 0.0
N82 N 0.48152 0.64264 0.97657 0.0
H83 H 0.49988 0.70691 0.10307 0.0
H84 H 0.46984 0.66637 0.12595 0.0
H85 H 0.46373 0.68731 0.0407 0.0
C86 C 0.482 0.68407 0.07438 0.0
C87 C 0.61525 0.86253 0.9014 0.0
H88 H 0.60317 0.84047 0.86313 0.0
H89 H 0.62824 0.8831 0.85781 0.0
H90 H 0.59679 0.86519 0.93578 0.0
O91 O 0.60092 0.78851 0.85119 0.0
O92 O 0.56198 0.739 0.85218 0.0
C93 C 0.62501 0.74288 0.98661 0.0
O94 O 0.52614 0.75036 -0.01032 0.0
O95 O 0.56342 0.80055 0.98586 0.0
Zn96 Zn 0.82808 0.56023 0.98567 0.0
O97 O 0.82586 0.55786 0.12126 0.0
C98 C 0.75836 0.53417 0.98379 0.0
Zn99 Zn 0.81578 0.59867 0.9859 0.0
C100 C 0.82173 0.57811 0.16231 0.0
O101 O 0.81775 0.59842 0.1212 0.0
C102 C 0.82245 0.58093 0.80927 0.0
O103 O 0.86515 0.63326 0.98114 0.0
O104 O 0.8766 0.59508 -0.00656 0.0
N105 N 0.80451 0.6341 -0.00702 0.0
C106 C 0.7795 0.63622 0.9638 0.0
C107 C 0.80782 0.67747 0.03901 0.0
N108 N 0.8221 0.65982 0.0394 0.0
N109 N 0.78084 0.66319 -0.00743 0.0
C110 C 0.82485 0.49477 0.00568 0.0
C111 C 0.86784 0.50351 0.94565 0.0
N112 N 0.8402 0.5254 0.98037 0.0
N113 N 0.86696 0.53078 0.94338 0.0
N114 N 0.84159 0.48047 0.98404 0.0
H115 H 0.79263 0.49715 0.09627 0.0
H116 H 0.79293 0.46013 0.09685 0.0
H117 H 0.77411 0.46907 0.01059 0.0
C118 C 0.79446 0.47945 0.05567 0.0
C119 C 0.75485 0.61255 0.90417 0.0
H120 H 0.76462 0.60041 0.86526 0.0
H121 H 0.74584 0.62432 0.86074 0.0
H122 H 0.73476 0.59419 0.94211 0.0
O123 O 0.81436 0.59837 0.85032 0.0
O124 O 0.83026 0.56329 0.85036 0.0
C125 C 0.88571 0.62449 -0.0122 0.0
O126 O 0.77944 0.52617 0.97709 0.0
O127 O 0.76679 0.56338 -0.00868 0.0
Zn128 Zn 0.27078 0.82654 -0.01134 0.0
O129 O 0.27094 0.82424 0.12426 0.0
C130 C 0.22681 0.75684 0.98695 0.0
Zn131 Zn 0.22019 0.81448 -0.01106 0.0
C132 C 0.24665 0.82033 0.16532 0.0
O133 O 0.22245 0.81655 0.12422 0.0
C134 C 0.2445 0.821 0.81229 0.0
O135 O 0.23517 0.86385 0.98389 0.0
O136 O 0.28472 0.87514 -0.00343 0.0
N137 N 0.17368 0.80356 -0.00402 0.0
C138 C 0.1465 0.77855 0.96713 0.0
C139 C 0.1338 0.80727 0.04143 0.0
N140 N 0.1657 0.8214 0.04183 0.0
N141 N 0.121 0.78015 -0.00446 0.0
C142 C 0.33267 0.82275 0.0074 0.0
C143 C 0.36712 0.86594 0.94856 0.0
N144 N 0.31759 0.83842 0.98326 0.0
N145 N 0.33909 0.86531 0.94704 0.0
N146 N 0.36368 0.83941 0.98576 0.0
H147 H 0.29812 0.79029 0.09768 0.0
H148 H 0.33523 0.79018 0.09651 0.0
H149 H 0.30725 0.77197 0.01046 0.0
C150 C 0.31746 0.7921 0.05628 0.0
C151 C 0.14532 0.75365 0.90808 0.0
H152 H 0.1671 0.76325 0.86877 0.0
H153 H 0.12441 0.74448 0.86504 0.0
H154 H 0.14363 0.73367 0.94649 0.0
O155 O 0.21899 0.81294 0.85335 0.0
O156 O 0.26993 0.82878 0.85338 0.0
C157 C 0.26451 0.88435 -0.00931 0.0
O158 O 0.25591 0.77781 0.97991 0.0
O159 O 0.20617 0.76543 -0.00527 0.0
Zn160 Zn 0.44788 0.26937 -0.01025 0.0
O161 O 0.44865 0.27074 0.12539 0.0
C162 C 0.47347 0.22522 -0.00986 0.0
Zn163 Zn 0.40912 0.21869 -0.01015 0.0
C164 C 0.42965 0.24573 0.16634 0.0
O165 O 0.41065 0.2208 0.1252 0.0
C166 C 0.42722 0.24235 0.81326 0.0
O167 O 0.37487 0.23394 -0.0118 0.0
O168 O 0.41347 0.28364 -0.00888 0.0
N169 N 0.37348 0.17228 -0.00201 0.0
C170 C 0.371 0.14505 0.96846 0.0
C171 C 0.33023 0.13249 0.04541 0.0
N172 N 0.34806 0.1644 0.04548 0.0
N173 N 0.34412 0.11961 -0.00191 0.0
C174 C 0.51314 0.33159 0.011 0.0
C175 C 0.50662 0.36387 0.93322 0.0
N176 N 0.48306 0.31591 0.98138 0.0
N177 N 0.47906 0.33606 0.93338 0.0
N178 N 0.5286 0.36177 0.98092 0.0
H179 H 0.50759 0.29893 0.11215 0.0
H180 H 0.54447 0.33623 0.11487 0.0
H181 H 0.53803 0.3065 0.03581 0.0
C182 C 0.52655 0.3176 0.07236 0.0
C183 C 0.39417 0.14375 0.90757 0.0
H184 H 0.40601 0.16547 0.8679 0.0
H185 H 0.38205 0.12275 0.86494 0.0
H186 H 0.4128 0.14213 0.94451 0.0
O187 O 0.40803 0.21745 0.85425 0.0
O188 O 0.44631 0.26725 0.85437 0.0
C189 C 0.38397 0.26345 -0.01024 0.0
O190 O 0.48177 0.25447 -0.01203 0.0
O191 O 0.44412 0.20448 -0.00781 0.0
H192 H 0.39186 0.31845 0.05673 0.0
H193 H 0.32366 0.23342 0.92488 0.0
H194 H 0.35411 0.33726 0.05919 0.0
H195 H 0.28631 0.2531 0.92156 0.0
H196 H 0.2149 0.28296 0.00245 0.0
H197 H 0.25168 0.26276 -0.00046 0.0
H198 H 0.33032 0.35902 0.98027 0.0
H199 H 0.29384 0.3789 -0.00713 0.0
C200 C 0.36883 0.30397 0.02722 0.0
C201 C 0.36067 0.2745 -0.00939 0.0
C202 C 0.34718 0.31488 0.02778 0.0
C203 C 0.31704 0.29699 -0.01031 0.0
C204 C 0.309 0.26743 0.95278 0.0
C205 C 0.33045 0.25615 0.95414 0.0
C206 C 0.24008 0.29972 -0.0026 0.0
C207 C 0.25122 0.33254 -0.00477 0.0
C208 C 0.26125 0.28815 -0.00514 0.0
C209 C 0.29421 0.30913 -0.01074 0.0
C210 C 0.30524 0.34198 0.98577 0.0
C211 C 0.28411 0.35351 -0.00963 0.0
H212 H 0.07664 0.38978 0.06462 0.0
H213 H 0.09468 0.32204 0.93476 0.0
H214 H 0.02019 0.35166 0.06573 0.0
H215 H 0.03775 0.28429 0.93011 0.0
H216 H 0.93583 0.2124 0.0061 0.0
H217 H 0.99285 0.2493 0.00585 0.0
H218 H 0.9752 0.32788 0.98487 0.0
H219 H 0.91886 0.29134 -0.00514 0.0
C220 C 0.06839 0.36676 0.03529 0.0
C221 C 0.09002 0.35888 -0.00048 0.0
C222 C 0.03588 0.34489 0.03507 0.0
C223 C 0.02398 0.31477 -0.00302 0.0
C224 C 0.04582 0.30695 0.9612 0.0
C225 C 0.0785 0.32864 0.96333 0.0
C226 C 0.94427 0.2376 0.00125 0.0
C227 C 0.92256 0.24868 -0.00228 0.0
C228 C 0.97703 0.25883 0.00027 0.0
C229 C 0.98902 0.29182 -0.00499 0.0
C230 C 0.96718 0.30279 -0.0098 0.0
C231 C 0.93451 0.2816 -0.00678 0.0
H232 H 0.77585 0.09262 0.93221 0.0
H233 H 0.68929 0.07449 0.05752 0.0
H234 H 0.75623 0.03562 0.92526 0.0
H235 H 0.67043 0.01791 0.05601 0.0
H236 H 0.6295 0.91671 0.98182 0.0
H237 H 0.64965 0.97322 0.97297 0.0
H238 H 0.74545 0.99032 0.00081 0.0
H239 H 0.72509 0.93326 0.00043 0.0
C240 C 0.75279 0.07641 0.95925 0.0
C241 C 0.73404 0.08798 -0.00503 0.0
C242 C 0.74154 0.04368 0.95576 0.0
C243 C 0.71152 0.02177 -0.01044 0.0
C244 C 0.6932 0.03368 0.02695 0.0
C245 C 0.70414 0.06627 0.02867 0.0
C246 C 0.65489 0.9323 0.98203 0.0
C247 C 0.67569 0.9202 -0.01149 0.0
C248 C 0.66656 0.96505 0.97957 0.0
C249 C 0.69934 0.98677 0.98665 0.0
C250 C 0.72014 0.9746 -0.00648 0.0
C251 C 0.70846 0.94181 -0.00589 0.0
H252 H 0.71607 0.62818 0.98385 0.0
H253 H 0.79486 0.72426 -0.01039 0.0
H254 H 0.67937 0.64784 0.9739 0.0
H255 H 0.75793 0.74427 -0.01044 0.0
H256 H 0.68521 0.77333 0.92076 0.0
H257 H 0.72274 0.75391 0.91525 0.0
H258 H 0.65572 0.66946 0.05325 0.0
H259 H 0.61776 0.68801 0.05277 0.0
C260 C 0.72572 0.65355 0.98107 0.0
C261 C 0.75864 0.6746 0.98404 0.0
C262 C 0.70446 0.66498 0.97805 0.0
C263 C 0.71539 0.69782 0.98133 0.0
C264 C 0.74838 0.71888 0.98508 0.0
C265 C 0.76965 0.7074 0.98598 0.0
C266 C 0.67864 0.7506 0.94967 0.0
C267 C 0.64855 0.7321 0.98674 0.0
C268 C 0.70021 0.73946 0.94706 0.0
C269 C 0.69245 0.70987 0.98334 0.0
C270 C 0.66246 0.69185 0.02221 0.0
C271 C 0.64068 0.70263 0.02283 0.0
H272 H 0.09124 0.71539 -0.00892 0.0
H273 H 0.07412 0.79431 -0.01111 0.0
H274 H 0.03484 0.67862 0.98142 0.0
H275 H 0.01713 0.7574 -0.01138 0.0
H276 H 0.93293 0.61807 0.06047 0.0
H277 H 0.98945 0.65608 0.06159 0.0
H278 H 0.97276 0.72141 0.91266 0.0
H279 H 0.91581 0.68389 0.91702 0.0
C280 C 0.07553 0.72501 0.98662 0.0
C281 C 0.08741 0.75796 0.98728 0.0
C282 C 0.04286 0.70377 0.98369 0.0
C283 C 0.02102 0.71479 0.98458 0.0
C284 C 0.03297 0.74781 0.98606 0.0
C285 C 0.06571 0.76906 0.98704 0.0
C286 C 0.94139 0.64063 0.02827 0.0
C287 C 0.92 0.64804 -0.01135 0.0
C288 C 0.97393 0.66241 0.02807 0.0
C289 C 0.98607 0.69192 0.9863 0.0
C290 C 0.96448 0.69925 0.94665 0.0
C291 C 0.93178 0.67768 0.94865 0.0
H292 H 0.23503 0.91438 0.92084 0.0
H293 H 0.31846 0.93166 0.06201 0.0
H294 H 0.25443 0.97134 0.91644 0.0
H295 H 0.33697 0.9882 0.06298 0.0
H296 H 0.28307 0.07271 -0.00628 0.0
H297 H 0.26303 0.01569 -0.00656 0.0
H298 H 0.35946 0.03348 0.98182 0.0
H299 H 0.37911 0.08992 -0.00865 0.0
C300 C 0.25733 0.93039 0.95193 0.0
C301 C 0.27532 0.91865 -0.00866 0.0
C302 C 0.26843 0.96308 0.94991 0.0
C303 C 0.29748 0.98471 -0.01109 0.0
C304 C 0.315 0.97263 0.03002 0.0
C305 C 0.30425 0.94009 0.03028 0.0
C306 C 0.29989 0.0643 -0.00912 0.0
C307 C 0.33269 0.08602 -0.01017 0.0
C308 C 0.28843 0.03156 -0.0101 0.0
C309 C 0.30951 0.01965 0.98719 0.0
C310 C 0.34235 0.0415 0.98504 0.0
C311 C 0.35376 0.07417 -0.01208 0.0
H312 H 0.17348 0.70735 0.05683 0.0
H313 H 0.2589 0.72979 0.91781 0.0
H314 H 0.15963 0.65177 0.06398 0.0
H315 H 0.24432 0.6742 0.91976 0.0
H316 H 0.2283 0.57935 -0.00255 0.0
H317 H 0.2414 0.63426 0.00429 0.0
H318 H 0.14157 0.60469 -0.01122 0.0
H319 H 0.12852 0.54936 -0.00886 0.0
C320 C 0.18906 0.70026 0.02681 0.0
C321 C 0.21736 0.72288 0.98731 0.0
C322 C 0.18108 0.66835 0.03043 0.0
C323 C 0.2009 0.65824 -0.007 0.0
C324 C 0.22884 0.68098 0.95161 0.0
C325 C 0.23712 0.71292 0.94969 0.0
C326 C 0.20905 0.58437 -0.00048 0.0
C327 C 0.17726 0.55978 -0.00282 0.0
C328 C 0.2166 0.61612 0.00082 0.0
C329 C 0.19261 0.62425 -0.00333 0.0
C330 C 0.16077 0.59958 -0.00624 0.0
C331 C 0.15323 0.56779 -0.00566 0.0
H332 H 0.53373 0.25889 0.92938 0.0
H333 H 0.46843 0.17017 0.05144 0.0
H334 H 0.57454 0.24411 0.9301 0.0
H335 H 0.50996 0.15602 0.05791 0.0
H336 H 0.58269 0.12675 0.98372 0.0
H337 H 0.54035 0.13972 0.98258 0.0
H338 H 0.6102 0.23913 0.01391 0.0
H339 H 0.65206 0.22636 0.00519 0.0
C340 C 0.52826 0.23632 0.95738 0.0
C341 C 0.49794 0.21571 -0.00951 0.0
C342 C 0.5518 0.2279 0.95867 0.0
C343 C 0.54594 0.19895 -0.00483 0.0
C344 C 0.51541 0.17829 0.02817 0.0
C345 C 0.49159 0.18644 0.025 0.0
C346 C 0.58886 0.15135 -0.00939 0.0
C347 C 0.62084 0.17533 -0.00264 0.0
C348 C 0.56455 0.15883 -0.00924 0.0
C349 C 0.57159 0.19056 -0.00162 0.0
C350 C 0.60362 0.21445 0.00663 0.0
C351 C 0.62787 0.20701 0.00442 0.0
H352 H 0.45184 0.60562 0.11293 0.0
H353 H 0.43772 0.62611 0.8538 0.0
H354 H 0.3956 0.5637 0.12119 0.0
H355 H 0.38158 0.58479 0.86165 0.0
H356 H 0.27713 0.53549 0.95308 0.0
H357 H 0.333 0.5767 0.95064 0.0
H358 H 0.35928 0.50921 0.04193 0.0
H359 H 0.3032 0.46762 0.04354 0.0
C360 C 0.43649 0.60116 0.05823 0.0
C361 C 0.44864 0.61888 0.98295 0.0
C362 C 0.40456 0.57721 0.06257 0.0
C363 C 0.38431 0.57111 -0.00794 0.0
C364 C 0.39661 0.58916 0.91709 0.0
C365 C 0.42857 0.61264 0.91238 0.0
C366 C 0.29477 0.5294 0.9729 0.0
C367 C 0.28576 0.49829 -0.00156 0.0
C368 C 0.32674 0.55298 0.97113 0.0
C369 C 0.35039 0.54611 -0.00386 0.0
C370 C 0.34145 0.51514 0.02289 0.0
C371 C 0.30943 0.49135 0.02328 0.0
H372 H 0.7852 0.42901 0.94516 0.0
H373 H 0.87958 0.45811 0.03532 0.0
H374 H 0.7716 0.37354 0.95177 0.0
H375 H 0.86609 0.40242 0.04373 0.0
H376 H 0.84027 0.30171 0.95754 0.0
H377 H 0.85488 0.35758 0.95588 0.0
H378 H 0.76149 0.33207 0.04968 0.0
H379 H 0.7469 0.27647 0.04925 0.0
C380 C 0.80277 0.42339 0.96845 0.0
C381 C 0.83317 0.44769 -0.00825 0.0
C382 C 0.79508 0.39161 0.97203 0.0
C383 C 0.81765 0.38337 -0.00101 0.0
C384 C 0.84819 0.40784 0.0219 0.0
C385 C 0.8559 0.43967 0.01773 0.0
C386 C 0.82296 0.30807 0.97816 0.0
C387 C 0.7923 0.28454 0.00277 0.0
C388 C 0.83135 0.34015 0.97755 0.0
C389 C 0.80931 0.34942 0.00216 0.0
C390 C 0.77888 0.32584 0.02847 0.0
C391 C 0.77048 0.29386 0.02842 0.0
H392 H 0.4238 0.87602 0.04014 0.0
H393 H 0.35813 0.78336 0.93994 0.0
H394 H 0.46552 0.86185 0.04495 0.0
H395 H 0.39961 0.76916 0.94216 0.0
H396 H 0.47156 0.74217 0.02923 0.0
H397 H 0.43056 0.7568 0.0338 0.0
H398 H 0.49922 0.85223 0.95508 0.0
H399 H 0.54047 0.83773 0.95366 0.0
C400 C 0.41839 0.85257 0.01949 0.0
C401 C 0.3877 0.83051 -0.0084 0.0
C402 C 0.44224 0.84447 0.02152 0.0
C403 C 0.43598 0.81426 -0.00573 0.0
C404 C 0.40518 0.79234 0.96565 0.0
C405 C 0.38133 0.80038 0.96447 0.0
C406 C 0.47794 0.76628 0.01291 0.0
C407 C 0.50932 0.78876 -0.00913 0.0
C408 C 0.45435 0.77466 0.01512 0.0
C409 C 0.46144 0.80569 -0.00557 0.0
C410 C 0.49292 0.82824 0.97268 0.0
C411 C 0.5166 0.8199 0.97133 0.0
H412 H 0.70858 0.53772 0.05274 0.0
H413 H 0.73172 0.47503 0.91468 0.0
H414 H 0.65306 0.49588 0.0587 0.0
H415 H 0.67619 0.43393 0.91527 0.0
H416 H 0.5809 0.35489 -0.01095 0.0
H417 H 0.63577 0.39663 -0.00239 0.0
H418 H 0.60634 0.46705 0.98269 0.0
H419 H 0.55105 0.42482 0.98348 0.0
C420 C 0.70166 0.51508 0.02268 0.0
C421 C 0.72445 0.50953 0.98374 0.0
C422 C 0.66977 0.49109 0.02559 0.0
C423 C 0.65986 0.46121 -0.01207 0.0
C424 C 0.68279 0.45614 0.94724 0.0
C425 C 0.7147 0.47985 0.94608 0.0
C426 C 0.58593 0.37916 -0.00839 0.0
C427 C 0.56138 0.38642 -0.01099 0.0
C428 C 0.61767 0.40333 -0.00609 0.0
C429 C 0.62585 0.43549 -0.00952 0.0
C430 C 0.60121 0.44271 0.98721 0.0
C431 C 0.56944 0.41849 0.98685 0.0
H432 H 0.18531 0.38093 0.71366 0.0
H433 H 0.19193 0.47289 0.71742 0.0
H434 H 0.18429 0.38113 0.55776 0.0
H435 H 0.19255 0.47396 0.56179 0.0
H436 H 0.16137 0.45344 0.28429 0.0
H437 H 0.16088 0.45213 0.44019 0.0
H438 H 0.2155 0.4041 0.43601 0.0
H439 H 0.21452 0.40406 0.28038 0.0
C440 C 0.18686 0.40133 0.68107 0.0
C441 C 0.18859 0.42682 0.72777 0.0
C442 C 0.18649 0.40158 0.59158 0.0
C443 C 0.18834 0.42758 0.54666 0.0
C444 C 0.19042 0.45323 0.5938 0.0
C445 C 0.1903 0.45274 0.68321 0.0
C446 C 0.17322 0.44258 0.31684 0.0
C447 C 0.18788 0.42877 0.27011 0.0
C448 C 0.17314 0.44199 0.40634 0.0
C449 C 0.18817 0.42801 0.45121 0.0
C450 C 0.20312 0.4145 0.40403 0.0
C451 C 0.20276 0.41466 0.31462 0.0
H452 H 0.71423 0.16079 0.71686 0.0
H453 H 0.81676 0.21339 0.71271 0.0
H454 H 0.71326 0.15962 0.56121 0.0
H455 H 0.81591 0.21362 0.55677 0.0
H456 H 0.80502 0.18135 0.27999 0.0
H457 H 0.80567 0.18132 0.43575 0.0
H458 H 0.72187 0.19084 0.43901 0.0
H459 H 0.72046 0.18931 0.2832 0.0
C460 C 0.73659 0.1724 0.68256 0.0
C461 C 0.76558 0.18713 0.72701 0.0
C462 C 0.73605 0.17192 0.59315 0.0
C463 C 0.7645 0.18659 0.5459 0.0
C464 C 0.79352 0.20156 0.59071 0.0
C465 C 0.79404 0.20162 0.68021 0.0
C466 C 0.7867 0.18336 0.31409 0.0
C467 C 0.76264 0.18523 0.26936 0.0
C468 C 0.78719 0.18358 0.40353 0.0
C469 C 0.76387 0.18616 0.45047 0.0
C470 C 0.7399 0.18823 0.40536 0.0
C471 C 0.73916 0.18754 0.3159 0.0
H472 H 0.53467 0.72074 0.70612 0.0
H473 H 0.62685 0.80575 0.7013 0.0
H474 H 0.53348 0.72001 0.55048 0.0
H475 H 0.62648 0.80426 0.54542 0.0
H476 H 0.6033 0.81126 0.26801 0.0
H477 H 0.60338 0.81246 0.42362 0.0
H478 H 0.55525 0.7098 0.42903 0.0
H479 H 0.55384 0.70871 0.27313 0.0
C480 C 0.55484 0.73913 0.6717 0.0
C481 C 0.58085 0.76332 0.71598 0.0
C482 C 0.55427 0.7386 0.58229 0.0
C483 C 0.57993 0.762 0.53486 0.0
C484 C 0.60602 0.78614 0.57948 0.0
C485 C 0.60637 0.78692 0.66897 0.0
C486 C 0.59269 0.78895 0.3025 0.0
C487 C 0.57854 0.75988 0.2583 0.0
C488 C 0.59293 0.78962 0.3919 0.0
C489 C 0.57943 0.76124 0.43942 0.0
C490 C 0.56539 0.73215 0.3949 0.0
C491 C 0.56475 0.73148 0.3054 0.0
H492 H 0.84941 0.55639 0.70327 0.0
H493 H 0.79544 0.60496 0.70129 0.0
H494 H 0.84954 0.556 0.54751 0.0
H495 H 0.79439 0.60344 0.54539 0.0
H496 H 0.82594 0.62478 0.26778 0.0
H497 H 0.82664 0.62575 0.42342 0.0
H498 H 0.81679 0.53228 0.42687 0.0
H499 H 0.81743 0.53196 0.27085 0.0
C500 C 0.83736 0.56679 0.66949 0.0
C501 C 0.82249 0.58078 0.71459 0.0
C502 C 0.83724 0.56637 0.58006 0.0
C503 C 0.8219 0.57961 0.53349 0.0
C504 C 0.8069 0.5935 0.57888 0.0
C505 C 0.80735 0.59424 0.66836 0.0
C506 C 0.82394 0.60443 0.30178 0.0
C507 C 0.8217 0.57831 0.25699 0.0
C508 C 0.82413 0.60489 0.39119 0.0
C509 C 0.82171 0.57907 0.43811 0.0
C510 C 0.81925 0.55283 0.39306 0.0
C511 C 0.81943 0.55254 0.30354 0.0
H512 H 0.20437 0.82481 0.27078 0.0
H513 H 0.28833 0.81576 0.27389 0.0
H514 H 0.20408 0.82548 0.42642 0.0
H515 H 0.28735 0.8151 0.42992 0.0
H516 H 0.29599 0.84778 0.70634 0.0
H517 H 0.29653 0.84792 0.55058 0.0
H518 H 0.19394 0.79312 0.54834 0.0
H519 H 0.19346 0.79416 0.70425 0.0
C520 C 0.22263 0.82268 0.30479 0.0
C521 C 0.24642 0.8203 0.26001 0.0
C522 C 0.22235 0.82286 0.3942 0.0
C523 C 0.24565 0.82028 0.44113 0.0
C524 C 0.26934 0.81768 0.3961 0.0
C525 C 0.26982 0.81787 0.30657 0.0
C526 C 0.27355 0.83582 0.67254 0.0
C527 C 0.24468 0.82103 0.71761 0.0
C528 C 0.27385 0.83569 0.58311 0.0
C529 C 0.24529 0.82046 0.53651 0.0
C530 C 0.2164 0.80556 0.58186 0.0
C531 C 0.2161 0.806 0.67134 0.0
H532 H 0.38143 0.20029 0.70451 0.0
H533 H 0.47389 0.28493 0.70833 0.0
H534 H 0.38165 0.20159 0.54859 0.0
H535 H 0.47497 0.28542 0.55272 0.0
H536 H 0.45487 0.29657 0.27523 0.0
H537 H 0.45354 0.29571 0.43115 0.0
H538 H 0.40425 0.193 0.42673 0.0
H539 H 0.40423 0.19399 0.27113 0.0
C540 C 0.40194 0.21899 0.67193 0.0
C541 C 0.42757 0.24256 0.71864 0.0
C542 C 0.4022 0.21966 0.58242 0.0
C543 C 0.42835 0.24363 0.53752 0.0
C544 C 0.45413 0.26697 0.5847 0.0
C545 C 0.45363 0.26658 0.6741 0.0
C546 C 0.44373 0.27384 0.30775 0.0
C547 C 0.42957 0.24537 0.26096 0.0
C548 C 0.44312 0.2733 0.39725 0.0
C549 C 0.42879 0.24426 0.44207 0.0
C550 C 0.41493 0.21581 0.39482 0.0
C551 C 0.41511 0.21636 0.30542 0.0
loop_
_geom_bond_atom_site_label_1
_geom_bond_atom_site_label_2
_geom_bond_distance
_geom_bond_site_symmetry_2
_ccdc_geom_bond_type
Zn0 O1 2.055 . S
Zn0 O8 2.046 . S
Zn0 N16 2.036 1_554 S
Zn0 O28 2.053 1_554 S
Zn0 O30 2.066 . S
O1 Zn0 2.055 . S
O1 C4 1.259 . S
C2 O30 1.256 . S
C2 O31 1.244 . S
Zn3 O5 2.046 . S
Zn3 O7 2.055 . S
Zn3 N9 2.036 . S
Zn3 O27 2.066 1_554 S
Zn3 O31 2.053 . S
C4 O1 1.259 . S
C4 O5 1.254 . S
O5 Zn3 2.046 . S
O5 C4 1.254 . S
C6 O27 1.256 . S
C6 O28 1.244 . S
O7 Zn3 2.055 . S
O7 C29 1.259 . S
O8 Zn0 2.046 . S
O8 C29 1.255 . S
N9 Zn3 2.036 . S
N9 C10 1.298 1_554 S
N9 N12 1.398 . S
C10 N9 1.298 1_556 S
C10 N13 1.367 . S
C10 C23 1.481 . S
C11 N12 1.299 . S
C11 N13 1.379 1_554 S
N12 N9 1.398 . S
N12 C11 1.299 . S
N13 C10 1.367 . S
N13 C11 1.379 1_556 S
C14 N16 1.298 1_554 S
C14 N18 1.367 1_554 S
C14 C22 1.481 . S
C15 N17 1.299 . S
C15 N18 1.379 . S
N16 Zn0 2.036 1_556 S
N16 C14 1.298 1_556 S
N16 N17 1.398 . S
N17 C15 1.299 . S
N17 N16 1.398 . S
N18 C14 1.367 1_556 S
N18 C15 1.379 . S
H19 C22 0.980 . S
H20 C22 0.981 . S
H21 C22 0.981 . S
C22 C14 1.481 . S
C22 H19 0.980 . S
C22 H20 0.981 . S
C22 H21 0.981 . S
C23 C10 1.481 . S
C23 H24 0.980 . S
C23 H25 0.981 . S
C23 H26 0.981 . S
H24 C23 0.980 . S
H25 C23 0.981 . S
H26 C23 0.981 . S
O27 Zn3 2.066 1_556 S
O27 C6 1.256 . S
O28 Zn0 2.053 1_556 S
O28 C6 1.244 . S
C29 O7 1.259 . S
C29 O8 1.255 . S
O30 Zn0 2.066 . S
O30 C2 1.256 . S
O31 C2 1.244 . S
O31 Zn3 2.053 . S
Zn32 O33 2.055 . S
Zn32 O40 2.046 . S
Zn32 N48 2.036 1_554 S
Zn32 O60 2.053 1_554 S
Zn32 O62 2.066 . S
O33 Zn32 2.055 . S
O33 C36 1.259 . S
C34 O62 1.256 . S
C34 O63 1.244 . S
Zn35 O37 2.046 . S
Zn35 O39 2.055 . S
Zn35 N41 2.036 . S
Zn35 O59 2.066 1_554 S
Zn35 O63 2.053 . S
C36 O33 1.259 . S
C36 O37 1.254 . S
O37 Zn35 2.046 . S
O37 C36 1.254 . S
C38 O59 1.256 . S
C38 O60 1.244 . S
O39 Zn35 2.055 . S
O39 C61 1.259 . S
O40 Zn32 2.046 . S
O40 C61 1.255 . S
N41 Zn35 2.036 . S
N41 C42 1.298 1_554 S
N41 N44 1.398 . S
C42 N41 1.298 1_556 S
C42 N45 1.367 . S
C42 C55 1.481 . S
C43 N44 1.299 . S
C43 N45 1.379 1_554 S
N44 N41 1.398 . S
N44 C43 1.299 . S
N45 C42 1.367 . S
N45 C43 1.379 1_556 S
C46 N48 1.298 1_554 S
C46 N50 1.367 1_554 S
C46 C54 1.481 . S
C47 N49 1.299 . S
C47 N50 1.379 . S
N48 Zn32 2.036 1_556 S
N48 C46 1.298 1_556 S
N48 N49 1.398 . S
N49 C47 1.299 . S
N49 N48 1.398 . S
N50 C46 1.367 1_556 S
N50 C47 1.379 . S
H51 C54 0.980 . S
H52 C54 0.981 . S
H53 C54 0.981 . S
C54 C46 1.481 . S
C54 H51 0.980 . S
C54 H52 0.981 . S
C54 H53 0.981 . S
C55 C42 1.481 . S
C55 H56 0.980 . S
C55 H57 0.981 . S
C55 H58 0.981 . S
H56 C55 0.980 . S
H57 C55 0.981 . S
H58 C55 0.981 . S
O59 Zn35 2.066 1_556 S
O59 C38 1.256 . S
O60 Zn32 2.053 1_556 S
O60 C38 1.244 . S
C61 O39 1.259 . S
C61 O40 1.255 . S
O62 Zn32 2.066 . S
O62 C34 1.256 . S
O63 C34 1.244 . S
O63 Zn35 2.053 . S
Zn64 O65 2.055 . S
Zn64 O72 2.046 . S
Zn64 N80 2.036 1_554 S
Zn64 O92 2.053 1_554 S
Zn64 O94 2.066 . S
O65 Zn64 2.055 . S
O65 C68 1.259 . S
C66 O94 1.256 . S
C66 O95 1.244 . S
Zn67 O69 2.046 . S
Zn67 O71 2.055 . S
Zn67 N73 2.036 . S
Zn67 O91 2.066 1_554 S
Zn67 O95 2.053 . S
C68 O65 1.259 . S
C68 O69 1.254 . S
O69 Zn67 2.046 . S
O69 C68 1.254 . S
C70 O91 1.256 . S
C70 O92 1.244 . S
O71 Zn67 2.055 . S
O71 C93 1.259 . S
O72 Zn64 2.046 . S
O72 C93 1.255 . S
N73 Zn67 2.036 . S
N73 C74 1.298 1_554 S
N73 N76 1.398 . S
C74 N73 1.298 1_556 S
C74 N77 1.367 . S
C74 C87 1.481 . S
C75 N76 1.299 . S
C75 N77 1.379 1_554 S
N76 N73 1.398 . S
N76 C75 1.299 . S
N77 C74 1.367 . S
N77 C75 1.379 1_556 S
C78 N80 1.298 1_554 S
C78 N82 1.367 1_554 S
C78 C86 1.481 . S
C79 N81 1.299 . S
C79 N82 1.379 . S
N80 Zn64 2.036 1_556 S
N80 C78 1.298 1_556 S
N80 N81 1.398 . S
N81 C79 1.299 . S
N81 N80 1.398 . S
N82 C78 1.367 1_556 S
N82 C79 1.379 . S
H83 C86 0.980 . S
H84 C86 0.981 . S
H85 C86 0.981 . S
C86 C78 1.481 . S
C86 H83 0.980 . S
C86 H84 0.981 . S
C86 H85 0.981 . S
C87 C74 1.481 . S
C87 H88 0.980 . S
C87 H89 0.981 . S
C87 H90 0.981 . S
H88 C87 0.980 . S
H89 C87 0.981 . S
H90 C87 0.981 . S
O91 Zn67 2.066 1_556 S
O91 C70 1.256 . S
O92 Zn64 2.053 1_556 S
O92 C70 1.244 . S
C93 O71 1.259 . S
C93 O72 1.255 . S
O94 Zn64 2.066 . S
O94 C66 1.256 . S
O95 C66 1.244 . S
O95 Zn67 2.053 . S
Zn96 O97 2.055 . S
Zn96 O104 2.046 . S
Zn96 N112 2.036 1_554 S
Zn96 O124 2.053 1_554 S
Zn96 O126 2.066 . S
O97 Zn96 2.055 . S
O97 C100 1.259 . S
C98 O126 1.256 . S
C98 O127 1.244 . S
Zn99 O101 2.046 . S
Zn99 O103 2.055 . S
Zn99 N105 2.036 . S
Zn99 O123 2.066 1_554 S
Zn99 O127 2.053 . S
C100 O97 1.259 . S
C100 O101 1.254 . S
O101 Zn99 2.046 . S
O101 C100 1.254 . S
C102 O123 1.256 . S
C102 O124 1.244 . S
O103 Zn99 2.055 . S
O103 C125 1.259 . S
O104 Zn96 2.046 . S
O104 C125 1.255 . S
N105 Zn99 2.036 . S
N105 C106 1.298 1_554 S
N105 N108 1.398 . S
C106 N105 1.298 1_556 S
C106 N109 1.367 . S
C106 C119 1.481 . S
C107 N108 1.299 . S
C107 N109 1.379 1_554 S
N108 N105 1.398 . S
N108 C107 1.299 . S
N109 C106 1.367 . S
N109 C107 1.379 1_556 S
C110 N112 1.298 1_554 S
C110 N114 1.367 1_554 S
C110 C118 1.481 . S
C111 N113 1.299 . S
C111 N114 1.379 . S
N112 Zn96 2.036 1_556 S
N112 C110 1.298 1_556 S
N112 N113 1.398 . S
N113 C111 1.299 . S
N113 N112 1.398 . S
N114 C110 1.367 1_556 S
N114 C111 1.379 . S
H115 C118 0.980 . S
H116 C118 0.981 . S
H117 C118 0.981 . S
C118 C110 1.481 . S
C118 H115 0.980 . S
C118 H116 0.981 . S
C118 H117 0.981 . S
C119 C106 1.481 . S
C119 H120 0.980 . S
C119 H121 0.981 . S
C119 H122 0.981 . S
H120 C119 0.980 . S
H121 C119 0.981 . S
H122 C119 0.981 . S
O123 Zn99 2.066 1_556 S
O123 C102 1.256 . S
O124 Zn96 2.053 1_556 S
O124 C102 1.244 . S
C125 O103 1.259 . S
C125 O104 1.255 . S
O126 Zn96 2.066 . S
O126 C98 1.256 . S
O127 C98 1.244 . S
O127 Zn99 2.053 . S
Zn128 O129 2.055 . S
Zn128 O136 2.046 . S
Zn128 N144 2.036 1_554 S
Zn128 O156 2.053 1_554 S
Zn128 O158 2.066 . S
O129 Zn128 2.055 . S
O129 C132 1.259 . S
C130 O158 1.256 . S
C130 O159 1.244 . S
Zn131 O133 2.046 . S
Zn131 O135 2.055 . S
Zn131 N137 2.036 . S
Zn131 O155 2.066 1_554 S
Zn131 O159 2.053 . S
C132 O129 1.259 . S
C132 O133 1.254 . S
O133 Zn131 2.046 . S
O133 C132 1.254 . S
C134 O155 1.256 . S
C134 O156 1.244 . S
O135 Zn131 2.055 . S
O135 C157 1.259 . S
O136 Zn128 2.046 . S
O136 C157 1.255 . S
N137 Zn131 2.036 . S
N137 C138 1.298 1_554 S
N137 N140 1.398 . S
C138 N137 1.298 1_556 S
C138 N141 1.367 . S
C138 C151 1.481 . S
C139 N140 1.299 . S
C139 N141 1.379 1_554 S
N140 N137 1.398 . S
N140 C139 1.299 . S
N141 C138 1.367 . S
N141 C139 1.379 1_556 S
C142 N144 1.298 1_554 S
C142 N146 1.367 1_554 S
C142 C150 1.481 . S
C143 N145 1.299 . S
C143 N146 1.379 . S
N144 Zn128 2.036 1_556 S
N144 C142 1.298 1_556 S
N144 N145 1.398 . S
N145 C143 1.299 . S
N145 N144 1.398 . S
N146 C142 1.367 1_556 S
N146 C143 1.379 . S
H147 C150 0.980 . S
H148 C150 0.981 . S
H149 C150 0.981 . S
C150 C142 1.481 . S
C150 H147 0.980 . S
C150 H148 0.981 . S
C150 H149 0.981 . S
C151 C138 1.481 . S
C151 H152 0.980 . S
C151 H153 0.981 . S
C151 H154 0.981 . S
H152 C151 0.980 . S
H153 C151 0.981 . S
H154 C151 0.981 . S
O155 Zn131 2.066 1_556 S
O155 C134 1.256 . S
O156 Zn128 2.053 1_556 S
O156 C134 1.244 . S
C157 O135 1.259 . S
C157 O136 1.255 . S
O158 Zn128 2.066 . S
O158 C130 1.256 . S
O159 C130 1.244 . S
O159 Zn131 2.053 . S
Zn160 O161 2.055 . S
Zn160 O168 2.046 . S
Zn160 N176 2.036 1_554 S
Zn160 O188 2.053 1_554 S
Zn160 O190 2.066 . S
O161 Zn160 2.055 . S
O161 C164 1.259 . S
C162 O190 1.256 . S
C162 O191 1.244 . S
Zn163 O165 2.046 . S
Zn163 O167 2.055 . S
Zn163 N169 2.036 . S
Zn163 O187 2.066 1_554 S
Zn163 O191 2.053 . S
C164 O161 1.259 . S
C164 O165 1.254 . S
O165 Zn163 2.046 . S
O165 C164 1.254 . S
C166 O187 1.256 . S
C166 O188 1.244 . S
O167 Zn163 2.055 . S
O167 C189 1.259 . S
O168 Zn160 2.046 . S
O168 C189 1.255 . S
N169 Zn163 2.036 . S
N169 C170 1.298 1_554 S
N169 N172 1.398 . S
C170 N169 1.298 1_556 S
C170 N173 1.367 . S
C170 C183 1.481 . S
C171 N172 1.299 . S
C171 N173 1.379 1_554 S
N172 N169 1.398 . S
N172 C171 1.299 . S
N173 C170 1.367 . S
N173 C171 1.379 1_556 S
C174 N176 1.298 1_554 S
C174 N178 1.367 1_554 S
C174 C182 1.481 . S
C175 N177 1.299 . S
C175 N178 1.379 . S
N176 Zn160 2.036 1_556 S
N176 C174 1.298 1_556 S
N176 N177 1.398 . S
N177 C175 1.299 . S
N177 N176 1.398 . S
N178 C174 1.367 1_556 S
N178 C175 1.379 . S
H179 C182 0.980 . S
H180 C182 0.981 . S
H181 C182 0.981 . S
C182 C174 1.481 . S
C182 H179 0.980 . S
C182 H180 0.981 . S
C182 H181 0.981 . S
C183 C170 1.481 . S
C183 H184 0.980 . S
C183 H185 0.981 . S
C183 H186 0.981 . S
H184 C183 0.980 . S
H185 C183 0.981 . S
H186 C183 0.981 . S
O187 Zn163 2.066 1_556 S
O187 C166 1.256 . S
O188 Zn160 2.053 1_556 S
O188 C166 1.244 . S
C189 O167 1.259 . S
C189 O168 1.255 . S
O190 Zn160 2.066 . S
O190 C162 1.256 . S
O191 C162 1.244 . S
O191 Zn163 2.053 . S
H192 C200 0.950 . S
H193 C205 0.950 . S
H194 C202 0.950 . S
H195 C204 0.950 . S
H196 C206 0.950 . S
H197 C208 0.950 . S
H198 C210 0.950 . S
H199 C211 0.950 . S
C200 H192 0.950 . S
C200 C201 1.386 . S
C200 C202 1.391 . S
C201 C200 1.386 . S
C201 C205 1.393 1_556 S
C202 H194 0.950 . S
C202 C200 1.391 . S
C202 C203 1.400 . S
C203 C202 1.400 . S
C203 C204 1.398 1_556 S
C203 C209 1.491 . S
C204 H195 0.950 . S
C204 C203 1.398 1_554 S
C204 C205 1.391 . S
C205 H193 0.950 . S
C205 C201 1.393 1_554 S
C205 C204 1.391 . S
C206 H196 0.950 . S
C206 C207 1.386 1_554 S
C206 C208 1.391 . S
C207 C206 1.386 1_556 S
C207 C211 1.393 . S
C208 H197 0.950 . S
C208 C206 1.391 . S
C208 C209 1.400 1_554 S
C209 C203 1.491 . S
C209 C208 1.400 1_556 S
C209 C210 1.398 . S
C210 H198 0.950 . S
C210 C209 1.398 . S
C210 C211 1.391 . S
C211 H199 0.950 . S
C211 C207 1.393 . S
C211 C210 1.391 . S
H212 C220 0.950 . S
H213 C225 0.950 1_554 S
H214 C222 0.950 . S
H215 C224 0.950 . S
H216 C226 0.950 . S
H217 C228 0.950 1_455 S
H218 C230 0.950 1_455 S
H219 C231 0.950 . S
C220 H212 0.950 . S
C220 C221 1.386 . S
C220 C222 1.391 . S
C221 C220 1.386 . S
C221 C225 1.393 . S
C222 H214 0.950 . S
C222 C220 1.391 . S
C222 C223 1.400 . S
C223 C222 1.400 . S
C223 C224 1.398 . S
C223 C229 1.491 . S
C224 H215 0.950 . S
C224 C223 1.398 . S
C224 C225 1.391 . S
C225 H213 0.950 1_556 S
C225 C221 1.393 . S
C225 C224 1.391 . S
C226 H216 0.950 . S
C226 C227 1.386 . S
C226 C228 1.391 . S
C227 C226 1.386 . S
C227 C231 1.393 . S
C228 H217 0.950 1_655 S
C228 C226 1.391 . S
C228 C229 1.400 1_655 S
C229 C223 1.491 . S
C229 C228 1.400 1_455 S
C229 C230 1.398 1_455 S
C230 H218 0.950 1_655 S
C230 C229 1.398 1_655 S
C230 C231 1.391 . S
C231 H219 0.950 . S
C231 C227 1.393 . S
C231 C230 1.391 . S
H232 C240 0.950 . S
H233 C245 0.950 . S
H234 C242 0.950 . S
H235 C244 0.950 . S
H236 C246 0.950 . S
H237 C248 0.950 1_545 S
H238 C250 0.946 1_544 S
H239 C251 0.950 1_554 S
C240 H232 0.950 . S
C240 C241 1.386 1_554 S
C240 C242 1.391 . S
C241 C240 1.386 1_556 S
C241 C245 1.393 . S
C242 H234 0.950 . S
C242 C240 1.391 . S
C242 C243 1.400 1_554 S
C243 C242 1.400 1_556 S
C243 C244 1.398 . S
C243 C249 1.491 . S
C244 H235 0.950 . S
C244 C243 1.398 . S
C244 C245 1.391 . S
C245 H233 0.950 . S
C245 C241 1.393 . S
C245 C244 1.391 . S
C246 H236 0.950 . S
C246 C247 1.386 . S
C246 C248 1.391 . S
C247 C246 1.386 . S
C247 C251 1.393 . S
C248 H237 0.950 1_565 S
C248 C246 1.391 . S
C248 C249 1.400 1_565 S
C249 C243 1.491 . S
C249 C248 1.400 1_545 S
C249 C250 1.402 1_545 S
C250 H238 0.946 1_566 S
C250 C249 1.402 1_565 S
C250 C251 1.391 . S
C251 H239 0.950 1_556 S
C251 C247 1.393 . S
C251 C250 1.391 . S
H252 C260 0.950 . S
H253 C265 0.950 1_554 S
H254 C262 0.950 . S
H255 C264 0.950 1_554 S
H256 C266 0.950 . S
H257 C268 0.947 1_554 S
H258 C270 0.950 . S
H259 C271 0.950 . S
C260 H252 0.950 . S
C260 C261 1.386 . S
C260 C262 1.391 . S
C261 C260 1.386 . S
C261 C265 1.393 . S
C262 H254 0.950 . S
C262 C260 1.391 . S
C262 C263 1.400 . S
C263 C262 1.400 . S
C263 C264 1.398 . S
C263 C269 1.491 . S
C264 H255 0.950 1_556 S
C264 C263 1.398 . S
C264 C265 1.391 . S
C265 H253 0.950 1_556 S
C265 C261 1.393 . S
C265 C264 1.391 . S
C266 H256 0.950 . S
C266 C267 1.386 1_554 S
C266 C268 1.391 1_554 S
C267 C266 1.386 1_556 S
C267 C271 1.393 . S
C268 H257 0.947 1_556 S
C268 C266 1.391 1_556 S
C268 C269 1.404 . S
C269 C263 1.491 . S
C269 C268 1.404 . S
C269 C270 1.398 . S
C270 H258 0.950 . S
C270 C269 1.398 . S
C270 C271 1.391 . S
C271 H259 0.950 . S
C271 C267 1.393 . S
C271 C270 1.391 . S
H272 C280 0.950 . S
H273 C285 0.950 . S
H274 C282 0.924 1_655 S
H275 C284 0.950 1_655 S
H276 C286 0.950 . S
H277 C288 0.950 . S
H278 C290 0.950 . S
H279 C291 0.950 . S
C280 H272 0.950 . S
C280 C281 1.386 . S
C280 C282 1.424 . S
C281 C280 1.386 . S
C281 C285 1.393 1_556 S
C282 H274 0.924 1_455 S
C282 C280 1.424 . S
C282 C283 1.394 1_455 S
C283 C282 1.394 1_655 S
C283 C284 1.398 1_656 S
C283 C289 1.491 . S
C284 H275 0.950 1_455 S
C284 C283 1.398 1_454 S
C284 C285 1.391 . S
C285 H273 0.950 . S
C285 C281 1.393 1_554 S
C285 C284 1.391 . S
C286 H276 0.950 . S
C286 C287 1.386 1_554 S
C286 C288 1.391 . S
C287 C286 1.386 1_556 S
C287 C291 1.393 . S
C288 H277 0.950 . S
C288 C286 1.391 . S
C288 C289 1.400 1_554 S
C289 C283 1.491 . S
C289 C288 1.400 1_556 S
C289 C290 1.398 . S
C290 H278 0.950 . S
C290 C289 1.398 . S
C290 C291 1.391 . S
C291 H279 0.950 . S
C291 C287 1.393 . S
C291 C290 1.391 . S
H292 C300 0.950 . S
H293 C305 0.950 . S
H294 C302 0.950 . S
H295 C304 0.950 . S
H296 C306 0.950 . S
H297 C308 0.950 1_565 S
H298 C310 0.940 1_565 S
H299 C311 0.950 . S
C300 H292 0.950 . S
C300 C301 1.386 . S
C300 C302 1.391 . S
C301 C300 1.386 . S
C301 C305 1.393 1_556 S
C302 H294 0.950 . S
C302 C300 1.391 . S
C302 C303 1.400 . S
C303 C302 1.400 . S
C303 C304 1.398 1_556 S
C303 C309 1.491 . S
C304 H295 0.950 . S
C304 C303 1.398 1_554 S
C304 C305 1.391 . S
C305 H293 0.950 . S
C305 C301 1.393 1_554 S
C305 C304 1.391 . S
C306 H296 0.950 . S
C306 C307 1.386 1_554 S
C306 C308 1.391 . S
C307 C306 1.386 1_556 S
C307 C311 1.393 . S
C308 H297 0.950 1_545 S
C308 C306 1.391 . S
C308 C309 1.400 1_544 S
C309 C303 1.491 . S
C309 C308 1.400 1_566 S
C309 C310 1.379 1_565 S
C310 H298 0.940 1_545 S
C310 C309 1.379 1_545 S
C310 C311 1.421 . S
C311 H299 0.950 . S
C311 C307 1.393 . S
C311 C310 1.421 . S
H312 C320 0.950 . S
H313 C325 0.950 . S
H314 C322 0.950 . S
H315 C324 0.950 . S
H316 C326 0.950 . S
H317 C328 0.950 . S
H318 C330 0.950 . S
H319 C331 0.950 . S
C320 H312 0.950 . S
C320 C321 1.386 1_556 S
C320 C322 1.391 . S
C321 C320 1.386 1_554 S
C321 C325 1.393 . S
C322 H314 0.950 . S
C322 C320 1.391 . S
C322 C323 1.400 1_556 S
C323 C322 1.400 1_554 S
C323 C324 1.398 . S
C323 C329 1.491 . S
C324 H315 0.950 . S
C324 C323 1.398 . S
C324 C325 1.391 . S
C325 H313 0.950 . S
C325 C321 1.393 . S
C325 C324 1.391 . S
C326 H316 0.950 . S
C326 C327 1.386 . S
C326 C328 1.391 . S
C327 C326 1.386 . S
C327 C331 1.393 1_554 S
C328 H317 0.950 . S
C328 C326 1.391 . S
C328 C329 1.400 . S
C329 C323 1.491 . S
C329 C328 1.400 . S
C329 C330 1.398 1_554 S
C330 H318 0.950 . S
C330 C329 1.398 1_556 S
C330 C331 1.391 . S
C331 H319 0.950 . S
C331 C327 1.393 1_556 S
C331 C330 1.391 . S
H332 C340 0.951 . S
H333 C345 0.950 . S
H334 C342 0.950 1_556 S
H335 C344 0.950 . S
H336 C346 0.950 . S
H337 C348 0.950 . S
H338 C350 0.950 . S
H339 C351 0.950 . S
C340 H332 0.951 . S
C340 C341 1.386 . S
C340 C342 1.391 . S
C341 C340 1.386 . S
C341 C345 1.393 . S
C342 H334 0.950 1_554 S
C342 C340 1.391 . S
C342 C343 1.400 . S
C343 C342 1.400 . S
C343 C344 1.398 . S
C343 C349 1.491 . S
C344 H335 0.950 . S
C344 C343 1.398 . S
C344 C345 1.391 . S
C345 H333 0.950 . S
C345 C341 1.393 . S
C345 C344 1.391 . S
C346 H336 0.950 . S
C346 C347 1.386 . S
C346 C348 1.391 . S
C347 C346 1.386 . S
C347 C351 1.393 1_554 S
C348 H337 0.950 . S
C348 C346 1.391 . S
C348 C349 1.400 . S
C349 C343 1.491 . S
C349 C348 1.400 . S
C349 C350 1.398 1_554 S
C350 H338 0.950 . S
C350 C349 1.398 1_556 S
C350 C351 1.391 . S
C351 H339 0.950 . S
C351 C347 1.393 1_556 S
C351 C350 1.391 . S
H352 C360 0.950 . S
H353 C365 0.950 . S
H354 C362 0.950 . S
H355 C364 0.950 . S
H356 C366 0.950 . S
H357 C368 0.950 . S
H358 C370 0.950 . S
H359 C371 0.950 . S
C360 H352 0.950 . S
C360 C361 1.386 . S
C360 C362 1.391 . S
C361 C360 1.386 . S
C361 C365 1.393 1_554 S
C362 H354 0.950 . S
C362 C360 1.391 . S
C362 C363 1.400 . S
C363 C362 1.400 . S
C363 C364 1.398 1_554 S
C363 C369 1.491 . S
C364 H355 0.950 . S
C364 C363 1.398 1_556 S
C364 C365 1.391 . S
C365 H353 0.950 . S
C365 C361 1.393 1_556 S
C365 C364 1.391 . S
C366 H356 0.950 . S
C366 C367 1.386 1_556 S
C366 C368 1.391 . S
C367 C366 1.386 1_554 S
C367 C371 1.393 . S
C368 H357 0.950 . S
C368 C366 1.391 . S
C368 C369 1.400 1_556 S
C369 C363 1.491 . S
C369 C368 1.400 1_554 S
C369 C370 1.398 . S
C370 H358 0.950 . S
C370 C369 1.398 . S
C370 C371 1.391 . S
C371 H359 0.950 . S
C371 C367 1.393 . S
C371 C370 1.391 . S
H372 C380 0.950 . S
H373 C385 0.950 . S
H374 C382 0.950 . S
H375 C384 0.950 . S
H376 C386 0.950 . S
H377 C388 0.950 . S
H378 C390 0.950 . S
H379 C391 0.950 . S
C380 H372 0.950 . S
C380 C381 1.386 . S
C380 C382 1.391 . S
C381 C380 1.386 . S
C381 C385 1.393 1_554 S
C382 H374 0.950 . S
C382 C380 1.391 . S
C382 C383 1.400 . S
C383 C382 1.400 . S
C383 C384 1.398 1_554 S
C383 C389 1.491 . S
C384 H375 0.950 . S
C384 C383 1.398 1_556 S
C384 C385 1.391 . S
C385 H373 0.950 . S
C385 C381 1.393 1_556 S
C385 C384 1.391 . S
C386 H376 0.950 . S
C386 C387 1.386 1_556 S
C386 C388 1.391 . S
C387 C386 1.386 1_554 S
C387 C391 1.393 . S
C388 H377 0.950 . S
C388 C386 1.391 . S
C388 C389 1.400 1_556 S
C389 C383 1.491 . S
C389 C388 1.400 1_554 S
C389 C390 1.398 . S
C390 H378 0.950 . S
C390 C389 1.398 . S
C390 C391 1.391 . S
C391 H379 0.950 . S
C391 C387 1.393 . S
C391 C390 1.391 . S
H392 C400 0.950 . S
H393 C405 0.950 . S
H394 C402 0.950 . S
H395 C404 0.950 . S
H396 C406 0.950 . S
H397 C408 0.950 . S
H398 C410 0.950 . S
H399 C411 0.950 . S
C400 H392 0.950 . S
C400 C401 1.386 1_556 S
C400 C402 1.391 . S
C401 C400 1.386 1_554 S
C401 C405 1.393 . S
C402 H394 0.950 . S
C402 C400 1.391 . S
C402 C403 1.400 1_556 S
C403 C402 1.400 1_554 S
C403 C404 1.398 . S
C403 C409 1.491 . S
C404 H395 0.950 . S
C404 C403 1.398 . S
C404 C405 1.391 . S
C405 H393 0.950 . S
C405 C401 1.393 . S
C405 C404 1.391 . S
C406 H396 0.950 . S
C406 C407 1.386 . S
C406 C408 1.391 . S
C407 C406 1.386 . S
C407 C411 1.393 1_554 S
C408 H397 0.950 . S
C408 C406 1.391 . S
C408 C409 1.400 . S
C409 C403 1.491 . S
C409 C408 1.400 . S
C409 C410 1.398 1_554 S
C410 H398 0.950 . S
C410 C409 1.398 1_556 S
C410 C411 1.391 . S
C411 H399 0.950 . S
C411 C407 1.393 1_556 S
C411 C410 1.391 . S
H412 C420 0.950 . S
H413 C425 0.950 . S
H414 C422 0.950 . S
H415 C424 0.950 . S
H416 C426 0.950 . S
H417 C428 0.950 . S
H418 C430 0.950 . S
H419 C431 0.950 . S
C420 H412 0.950 . S
C420 C421 1.386 . S
C420 C422 1.391 . S
C421 C420 1.386 . S
C421 C425 1.393 . S
C422 H414 0.950 . S
C422 C420 1.391 . S
C422 C423 1.400 . S
C423 C422 1.400 . S
C423 C424 1.398 . S
C423 C429 1.491 . S
C424 H415 0.950 . S
C424 C423 1.398 . S
C424 C425 1.391 . S
C425 H413 0.950 . S
C425 C421 1.393 . S
C425 C424 1.391 . S
C426 H416 0.950 . S
C426 C427 1.386 . S
C426 C428 1.391 . S
C427 C426 1.386 . S
C427 C431 1.393 . S
C428 H417 0.950 . S
C428 C426 1.391 . S
C428 C429 1.400 . S
C429 C423 1.491 . S
C429 C428 1.400 . S
C429 C430 1.398 . S
C430 H418 0.950 . S
C430 C429 1.398 . S
C430 C431 1.391 . S
C431 H419 0.950 . S
C431 C427 1.393 . S
C431 C430 1.391 . S
H432 C440 0.950 . S
H433 C445 0.950 . S
H434 C442 0.950 . S
H435 C444 0.950 . S
H436 C446 0.950 . S
H437 C448 0.950 . S
H438 C450 0.950 . S
H439 C451 0.950 . S
C440 H432 0.950 . S
C440 C441 1.386 . S
C440 C442 1.391 . S
C441 C440 1.386 . S
C441 C445 1.393 . S
C442 H434 0.950 . S
C442 C440 1.391 . S
C442 C443 1.400 . S
C443 C442 1.400 . S
C443 C444 1.398 . S
C443 C449 1.491 . S
C444 H435 0.950 . S
C444 C443 1.398 . S
C444 C445 1.391 . S
C445 H433 0.950 . S
C445 C441 1.393 . S
C445 C444 1.391 . S
C446 H436 0.950 . S
C446 C447 1.386 . S
C446 C448 1.391 . S
C447 C446 1.386 . S
C447 C451 1.393 . S
C448 H437 0.950 . S
C448 C446 1.391 . S
C448 C449 1.400 . S
C449 C443 1.491 . S
C449 C448 1.400 . S
C449 C450 1.398 . S
C450 H438 0.950 . S
C450 C449 1.398 . S
C450 C451 1.391 . S
C451 H439 0.950 . S
C451 C447 1.393 . S
C451 C450 1.391 . S
H452 C460 0.950 . S
H453 C465 0.950 . S
H454 C462 0.950 . S
H455 C464 0.950 . S
H456 C466 0.950 . S
H457 C468 0.950 . S
H458 C470 0.950 . S
H459 C471 0.950 . S
C460 H452 0.950 . S
C460 C461 1.386 . S
C460 C462 1.391 . S
C461 C460 1.386 . S
C461 C465 1.393 . S
C462 H454 0.950 . S
C462 C460 1.391 . S
C462 C463 1.400 . S
C463 C462 1.400 . S
C463 C464 1.398 . S
C463 C469 1.491 . S
C464 H455 0.950 . S
C464 C463 1.398 . S
C464 C465 1.391 . S
C465 H453 0.950 . S
C465 C461 1.393 . S
C465 C464 1.391 . S
C466 H456 0.950 . S
C466 C467 1.386 . S
C466 C468 1.391 . S
C467 C466 1.386 . S
C467 C471 1.393 . S
C468 H457 0.950 . S
C468 C466 1.391 . S
C468 C469 1.400 . S
C469 C463 1.491 . S
C469 C468 1.400 . S
C469 C470 1.398 . S
C470 H458 0.950 . S
C470 C469 1.398 . S
C470 C471 1.391 . S
C471 H459 0.950 . S
C471 C467 1.393 . S
C471 C470 1.391 . S
H472 C480 0.950 . S
H473 C485 0.950 . S
H474 C482 0.950 . S
H475 C484 0.950 . S
H476 C486 0.950 . S
H477 C488 0.950 . S
H478 C490 0.950 . S
H479 C491 0.950 . S
C480 H472 0.950 . S
C480 C481 1.386 . S
C480 C482 1.391 . S
C481 C480 1.386 . S
C481 C485 1.393 . S
C482 H474 0.950 . S
C482 C480 1.391 . S
C482 C483 1.400 . S
C483 C482 1.400 . S
C483 C484 1.398 . S
C483 C489 1.491 . S
C484 H475 0.950 . S
C484 C483 1.398 . S
C484 C485 1.391 . S
C485 H473 0.950 . S
C485 C481 1.393 . S
C485 C484 1.391 . S
C486 H476 0.950 . S
C486 C487 1.386 . S
C486 C488 1.391 . S
C487 C486 1.386 . S
C487 C491 1.393 . S
C488 H477 0.950 . S
C488 C486 1.391 . S
C488 C489 1.400 . S
C489 C483 1.491 . S
C489 C488 1.400 . S
C489 C490 1.398 . S
C490 H478 0.950 . S
C490 C489 1.398 . S
C490 C491 1.391 . S
C491 H479 0.950 . S
C491 C487 1.393 . S
C491 C490 1.391 . S
H492 C500 0.950 . S
H493 C505 0.950 . S
H494 C502 0.950 . S
H495 C504 0.950 . S
H496 C506 0.950 . S
H497 C508 0.950 . S
H498 C510 0.950 . S
H499 C511 0.950 . S
C500 H492 0.950 . S
C500 C501 1.386 . S
C500 C502 1.391 . S
C501 C500 1.386 . S
C501 C505 1.393 . S
C502 H494 0.950 . S
C502 C500 1.391 . S
C502 C503 1.400 . S
C503 C502 1.400 . S
C503 C504 1.398 . S
C503 C509 1.491 . S
C504 H495 0.950 . S
C504 C503 1.398 . S
C504 C505 1.391 . S
C505 H493 0.950 . S
C505 C501 1.393 . S
C505 C504 1.391 . S
C506 H496 0.950 . S
C506 C507 1.386 . S
C506 C508 1.391 . S
C507 C506 1.386 . S
C507 C511 1.393 . S
C508 H497 0.950 . S
C508 C506 1.391 . S
C508 C509 1.400 . S
C509 C503 1.491 . S
C509 C508 1.400 . S
C509 C510 1.398 . S
C510 H498 0.950 . S
C510 C509 1.398 . S
C510 C511 1.391 . S
C511 H499 0.950 . S
C511 C507 1.393 . S
C511 C510 1.391 . S
H512 C520 0.950 . S
H513 C525 0.950 . S
H514 C522 0.950 . S
H515 C524 0.950 . S
H516 C526 0.950 . S
H517 C528 0.950 . S
H518 C530 0.950 . S
H519 C531 0.950 . S
C520 H512 0.950 . S
C520 C521 1.386 . S
C520 C522 1.391 . S
C521 C520 1.386 . S
C521 C525 1.393 . S
C522 H514 0.950 . S
C522 C520 1.391 . S
C522 C523 1.400 . S
C523 C522 1.400 . S
C523 C524 1.398 . S
C523 C529 1.491 . S
C524 H515 0.950 . S
C524 C523 1.398 . S
C524 C525 1.391 . S
C525 H513 0.950 . S
C525 C521 1.393 . S
C525 C524 1.391 . S
C526 H516 0.950 . S
C526 C527 1.386 . S
C526 C528 1.391 . S
C527 C526 1.386 . S
C527 C531 1.393 . S
C528 H517 0.950 . S
C528 C526 1.391 . S
C528 C529 1.400 . S
C529 C523 1.491 . S
C529 C528 1.400 . S
C529 C530 1.398 . S
C530 H518 0.950 . S
C530 C529 1.398 . S
C530 C531 1.391 . S
C531 H519 0.950 . S
C531 C527 1.393 . S
C531 C530 1.391 . S
H532 C540 0.950 . S
H533 C545 0.950 . S
H534 C542 0.950 . S
H535 C544 0.950 . S
H536 C546 0.950 . S
H537 C548 0.950 . S
H538 C550 0.950 . S
H539 C551 0.950 . S
C540 H532 0.950 . S
C540 C541 1.386 . S
C540 C542 1.391 . S
C541 C540 1.386 . S
C541 C545 1.393 . S
C542 H534 0.950 . S
C542 C540 1.391 . S
C542 C543 1.400 . S
C543 C542 1.400 . S
C543 C544 1.398 . S
C543 C549 1.491 . S
C544 H535 0.950 . S
C544 C543 1.398 . S
C544 C545 1.391 . S
C545 H533 0.950 . S
C545 C541 1.393 . S
C545 C544 1.391 . S
C546 H536 0.950 . S
C546 C547 1.386 . S
C546 C548 1.391 . S
C547 C546 1.386 . S
C547 C551 1.393 . S
C548 H537 0.950 . S
C548 C546 1.391 . S
C548 C549 1.400 . S
C549 C543 1.491 . S
C549 C548 1.400 . S
C549 C550 1.398 . S
C550 H538 0.950 . S
C550 C549 1.398 . S
C550 C551 1.391 . S
C551 H539 0.950 . S
C551 C547 1.393 . S
C551 C550 1.391 . S
C201 C189 1.438 1_556 S
C207 N13 1.305 . S
C221 C29 1.437 1_556 S
C227 N45 1.308 . S
C241 C61 1.423 1_556 S
C247 N77 1.345 . S
C261 N109 1.310 . S
C267 C93 1.436 1_556 S
C281 N141 1.315 . S
C287 C125 1.435 1_556 S
C301 C157 1.432 1_556 S
C307 N173 1.320 . S
C321 C130 1.536 . S
C327 N18 1.540 1_554 S
C341 C162 1.545 . S
C347 N50 1.530 1_554 S
C361 N82 1.542 1_554 S
C367 C2 1.544 . S
C381 N114 1.531 1_554 S
C387 C34 1.547 . S
C401 N146 1.541 1_554 S
C407 C66 1.537 . S
C421 C98 1.537 . S
C427 N178 1.542 1_554 S
C441 C6 1.516 . S
C447 C4 1.506 . S
C461 C38 1.513 . S
C467 C36 1.501 . S
C481 C70 1.516 . S
C487 C68 1.506 . S
C501 C102 1.514 . S
C507 C100 1.502 . S
C521 C132 1.514 . S
C527 C134 1.521 . S
C541 C166 1.515 . S
C547 C164 1.504 . S
