# Generated by pormake.
# Topology sml, (6)-cn, num edge types: 1
# Building blocks:
#     Node 0, Type 0, BuildingBlock: PAMTUU_clean_sbu_0, # of connection points: 6
#     Node 1, Type 0, BuildingBlock: PAMTUU_clean_sbu_0, # of connection points: 6
#     Node 2, Type 0, BuildingBlock: PAMTUU_clean_sbu_0, # of connection points: 6
#     Node 3, Type 0, BuildingBlock: PAMTUU_clean_sbu_0, # of connection points: 6
#     Node 4, Type 0, BuildingBlock: PAMTUU_clean_sbu_0, # of connection points: 6
#     Node 5, Type 0, BuildingBlock: PAMTUU_clean_sbu_0, # of connection points: 6
#     Edge 6, Type (0, 0), BuildingBlock: XIVTED_clean_linker_0, # of connection points: 2
#     Edge 7, Type (0, 0), BuildingBlock: XIVTED_clean_linker_0, # of connection points: 2
#     Edge 8, Type (0, 0), BuildingBlock: XIVTED_clean_linker_0, # of connection points: 2
#     Edge 9, Type (0, 0), BuildingBlock: XIVTED_clean_linker_0, # of connection points: 2
#     Edge 10, Type (0, 0), BuildingBlock: XIVTED_clean_linker_0, # of connection points: 2
#     Edge 11, Type (0, 0), BuildingBlock: XIVTED_clean_linker_0, # of connection points: 2
#     Edge 12, Type (0, 0), BuildingBlock: XIVTED_clean_linker_0, # of connection points: 2
#     Edge 13, Type (0, 0), BuildingBlock: XIVTED_clean_linker_0, # of connection points: 2
#     Edge 14, Type (0, 0), BuildingBlock: XIVTED_clean_linker_0, # of connection points: 2
#     Edge 15, Type (0, 0), BuildingBlock: XIVTED_clean_linker_0, # of connection points: 2
#     Edge 16, Type (0, 0), BuildingBlock: XIVTED_clean_linker_0, # of connection points: 2
#     Edge 17, Type (0, 0), BuildingBlock: XIVTED_clean_linker_0, # of connection points: 2
#     Edge 18, Type (0, 0), BuildingBlock: XIVTED_clean_linker_0, # of connection points: 2
#     Edge 19, Type (0, 0), BuildingBlock: XIVTED_clean_linker_0, # of connection points: 2
#     Edge 20, Type (0, 0), BuildingBlock: XIVTED_clean_linker_0, # of connection points: 2
#     Edge 21, Type (0, 0), BuildingBlock: XIVTED_clean_linker_0, # of connection points: 2
#     Edge 22, Type (0, 0), BuildingBlock: XIVTED_clean_linker_0, # of connection points: 2
#     Edge 23, Type (0, 0), BuildingBlock: XIVTED_clean_linker_0, # of connection points: 2
# Relax obj value: 0.193
# Max RMSD: 0.234
# Mean RMSD: 0.234
data_MOF--net-sml--node1-PAMTUU_clean_sbu_0--edge1-XIVTED_clean_linker_0
_symmetry_space_group_name_H-M    P1
_symmetry_Int_Tables_number       1
_symmetry_cell_setting            triclinic
loop_
_symmetry_equiv_pos_as_xyz
'x, y, z'
_cell_length_a     33.446024
_cell_length_b     33.503643
_cell_length_c     24.876089
_cell_angle_alpha  90.228835
_cell_angle_beta   89.871075
_cell_angle_gamma 120.26518
loop_
_atom_site_label
_atom_site_type_symbol
_atom_site_fract_x
_atom_site_fract_y
_atom_site_fract_z
_atom_type_partial_charge
Tb0 Tb 0.23814 0.43273 0.06132 0.0
Tb1 Tb 0.17646 0.43626 0.95745 0.0
C2 C 0.2853 0.48751 0.95729 0.0
C3 C 0.2697 0.43807 0.2038 0.0
C4 C 0.24972 0.44433 0.31319 0.0
C5 C 0.28837 0.44041 0.29865 0.0
C6 C 0.29821 0.43729 0.24448 0.0
C7 C 0.23143 0.44246 0.21793 0.0
C8 C 0.22159 0.44565 0.27197 0.0
C9 C 0.27896 0.43301 0.14688 0.0
O10 O 0.23147 0.49379 0.06607 0.0
O11 O 0.16182 0.46852 0.02474 0.0
O12 O 0.12807 0.37763 1.00609 0.0
O13 O 0.16678 0.39994 0.0869 0.0
O14 O 0.16388 0.477 0.90359 0.0
O15 O 0.12783 0.40279 0.89588 0.0
O16 O 0.20759 0.39665 0.93109 0.0
O17 O 0.22235 0.37289 1.01175 0.0
O18 O 0.28704 0.46133 0.99532 0.0
O19 O 0.24829 0.49097 0.94951 0.0
C20 C 0.19235 0.49366 0.06158 0.0
O21 O 0.24735 0.3956 0.12313 0.0
O22 O 0.29217 0.46931 0.11671 0.0
C23 C 0.12937 0.37389 0.05861 0.0
C24 C 0.15081 0.44572 0.81589 0.0
C25 C 0.17469 0.4503 0.70587 0.0
C26 C 0.13524 0.45225 0.72184 0.0
C27 C 0.12346 0.44999 0.77632 0.0
C28 C 0.1904 0.44419 0.80035 0.0
C29 C 0.20227 0.44653 0.74597 0.0
C30 C 0.13747 0.4416 0.87307 0.0
C31 C 0.21638 0.36896 0.9593 0.0
H32 H 0.31049 0.43871 0.32917 0.0
H33 H 0.32778 0.4337 0.23439 0.0
H34 H 0.20893 0.44308 0.1871 0.0
H35 H 0.19199 0.44935 0.28141 0.0
H36 H 0.11354 0.45579 0.69225 0.0
H37 H 0.0928 0.45129 0.78752 0.0
H38 H 0.21184 0.44061 0.83029 0.0
H39 H 0.2325 0.4443 0.73534 0.0
Tb40 Tb 0.79342 0.22082 0.38091 0.0
Tb41 Tb 0.73215 0.16207 0.27423 0.0
C42 C 0.77408 0.26762 0.28305 0.0
C43 C 0.82584 0.24891 0.52298 0.0
C44 C 0.8063 0.22497 0.63239 0.0
C45 C 0.84473 0.26758 0.61733 0.0
C46 C 0.85432 0.27947 0.56303 0.0
C47 C 0.78805 0.20599 0.53768 0.0
C48 C 0.77832 0.19414 0.59187 0.0
C49 C 0.83418 0.26251 0.46615 0.0
O50 O 0.72349 0.17554 0.40747 0.0
O51 O 0.68665 0.17244 0.32892 0.0
O52 O 0.72124 0.11043 0.33343 0.0
O53 O 0.78669 0.15293 0.38481 0.0
O54 O 0.68346 0.15333 0.21541 0.0
O55 O 0.71286 0.10893 0.21736 0.0
O56 O 0.80292 0.17789 0.2598 0.0
O57 O 0.84342 0.24005 0.31692 0.0
O58 O 0.77456 0.26468 0.3357 0.0
O59 O 0.76943 0.23396 0.25204 0.0
C60 C 0.68682 0.16927 0.3816 0.0
O61 O 0.84783 0.23975 0.43589 0.0
O62 O 0.8016 0.26679 0.44307 0.0
C63 C 0.75103 0.11331 0.36972 0.0
C64 C 0.70016 0.13117 0.13262 0.0
C65 C 0.72283 0.14946 0.02267 0.0
C66 C 0.68119 0.1102 0.03876 0.0
C67 C 0.66998 0.10118 0.0933 0.0
C68 C 0.74182 0.17022 0.11697 0.0
C69 C 0.75303 0.17933 0.06252 0.0
C70 C 0.68825 0.12192 0.18987 0.0
C71 C 0.84165 0.2142 0.27612 0.0
H72 H 0.86668 0.29227 0.64753 0.0
H73 H 0.88351 0.31282 0.55234 0.0
H74 H 0.76571 0.18188 0.50722 0.0
H75 H 0.74889 0.16081 0.60203 0.0
H76 H 0.65744 0.08614 1.00924 0.0
H77 H 0.63777 0.07078 0.10475 0.0
H78 H 0.76554 0.19382 0.14689 0.0
H79 H 0.78504 0.21018 0.05168 0.0
Tb80 Tb 0.58733 0.78263 0.70565 0.0
Tb81 Tb 0.59381 0.72439 0.60044 0.0
C82 C 0.51657 0.75094 0.60914 0.0
C83 C 0.59046 0.81006 0.84992 0.0
C84 C 0.59864 0.79031 0.95848 0.0
C85 C 0.58975 0.82597 0.9452 0.0
C86 C 0.58568 0.83569 0.89145 0.0
C87 C 0.59957 0.77463 0.86275 0.0
C88 C 0.60358 0.76482 0.91646 0.0
C89 C 0.5845 0.81938 0.79353 0.0
O90 O 0.57254 0.71503 0.73181 0.0
O91 O 0.53999 0.67516 0.65441 0.0
O92 O 0.63941 0.72509 0.6632 0.0
O93 O 0.65677 0.79589 0.69256 0.0
O94 O 0.56188 0.67177 0.54254 0.0
O95 O 0.63622 0.7148 0.54568 0.0
O96 O 0.63531 0.79781 0.58214 0.0
O97 O 0.60651 0.83143 0.64051 0.0
O98 O 0.52289 0.75712 0.66142 0.0
O99 O 0.54544 0.74624 0.57753 0.0
C100 C 0.54309 0.67688 0.70713 0.0
O101 O 0.62115 0.8355 0.76313 0.0
O102 O 0.54816 0.78662 0.76935 0.0
C103 C 0.66557 0.76217 0.69195 0.0
C104 C 0.60179 0.69424 0.46017 0.0
C105 C 0.60435 0.71412 0.3494 0.0
C106 C 0.61197 0.67863 0.36718 0.0
C107 C 0.61069 0.6688 0.42207 0.0
C108 C 0.59417 0.72966 0.44282 0.0
C109 C 0.59536 0.73947 0.38803 0.0
C110 C 0.60089 0.68423 0.5179 0.0
C111 C 0.63023 0.83272 0.59758 0.0
H112 H 0.58498 0.84584 0.97637 0.0
H113 H 0.57832 0.86294 0.88234 0.0
H114 H 0.60334 0.75438 0.83123 0.0
H115 H 0.61083 0.73743 0.92499 0.0
H116 H 0.61952 0.65884 0.33873 0.0
H117 H 0.61674 0.64143 0.43485 0.0
H118 H 0.58716 0.74966 0.4717 0.0
H119 H 0.58862 0.76654 0.37596 0.0
Tb120 Tb 0.71954 0.59634 0.11132 0.0
Tb121 Tb 0.78017 0.59214 1.00711 0.0
C122 C 0.67342 0.54388 1.00476 0.0
C123 C 0.68846 0.60134 0.25161 0.0
C124 C 0.70859 0.60113 0.36201 0.0
C125 C 0.66857 0.60169 0.34565 0.0
C126 C 0.65861 0.60178 0.29092 0.0
C127 C 0.72836 0.60073 0.26764 0.0
C128 C 0.73838 0.60073 0.3222 0.0
C129 C 0.67786 0.60066 0.194 0.0
O130 O 0.74581 0.552 0.1358 0.0
O131 O 0.75941 0.52954 0.05321 0.0
O132 O 0.82945 0.6152 0.07253 0.0
O133 O 0.79269 0.64173 0.12926 0.0
O134 O 0.78667 0.55418 0.94371 0.0
O135 O 0.83278 0.62767 0.9499 0.0
O136 O 0.78994 0.66024 0.01933 0.0
O137 O 0.71809 0.64034 0.04797 0.0
O138 O 0.67167 0.54129 0.05749 0.0
O139 O 0.71143 0.57347 0.98 0.0
C140 C 0.75348 0.52431 0.10562 0.0
O141 O 0.70734 0.63674 0.1665 0.0
O142 O 0.66686 0.56233 0.16866 0.0
C143 C 0.82912 0.63886 0.11479 0.0
C144 C 0.80847 0.59621 0.86296 0.0
C145 C 0.78703 0.60123 0.75399 0.0
C146 C 0.82429 0.59482 0.76776 0.0
C147 C 0.8348 0.59225 0.82166 0.0
C148 C 0.77182 0.60347 0.84969 0.0
C149 C 0.76121 0.60597 0.79579 0.0
C150 C 0.81831 0.59116 0.91955 0.0
C151 C 0.75497 0.66721 0.01931 0.0
H152 H 0.64447 0.60109 0.37516 0.0
H153 H 0.62743 0.60179 0.27927 0.0
H154 H 0.7517 0.60009 0.23785 0.0
H155 H 0.76972 0.60078 0.33318 0.0
H156 H 0.8455 0.59186 0.73685 0.0
H157 H 0.86329 0.58678 0.83107 0.0
H158 H 0.75099 0.60655 0.881 0.0
H159 H 0.73202 0.61043 0.78696 0.0
Tb160 Tb 0.14594 0.72656 0.44801 0.0
Tb161 Tb 0.2069 0.78513 0.34156 0.0
C162 C 0.14807 0.6791 0.34015 0.0
C163 C 0.11218 0.69515 0.58917 0.0
C164 C 0.1303 0.71627 0.69953 0.0
C165 C 0.08908 0.67689 0.68255 0.0
C166 C 0.08014 0.66645 0.6278 0.0
C167 C 0.15325 0.73451 0.60574 0.0
C168 C 0.16227 0.74494 0.66038 0.0
C169 C 0.10279 0.68423 0.5317 0.0
O170 O 0.21783 0.75676 0.46981 0.0
O171 O 0.24697 0.76086 0.38533 0.0
O172 O 0.23179 0.83506 0.40618 0.0
O173 O 0.16922 0.79915 0.46359 0.0
O174 O 0.25072 0.78911 0.27885 0.0
O175 O 0.22927 0.83974 0.2864 0.0
O176 O 0.14288 0.78674 0.34055 0.0
O177 O 0.09607 0.72087 0.38868 0.0
O178 O 0.15154 0.67846 0.39276 0.0
O179 O 0.1564 0.71665 0.31501 0.0
C180 C 0.25006 0.7591 0.43783 0.0
O181 O 0.09346 0.7117 0.50444 0.0
O182 O 0.13215 0.67612 0.50637 0.0
C183 C 0.20762 0.83589 0.44742 0.0
C184 C 0.23496 0.81542 0.1992 0.0
C185 C 0.2092 0.79644 0.09011 0.0
C186 C 0.25355 0.83249 0.10466 0.0
C187 C 0.26633 0.8418 0.1588 0.0
C188 C 0.19041 0.77999 0.18504 0.0
C189 C 0.17765 0.77054 0.13099 0.0
C190 C 0.24933 0.82326 0.25584 0.0
C191 C 0.10174 0.75278 0.35404 0.0
H192 H 0.06344 0.6544 0.71152 0.0
H193 H 0.04816 0.63604 0.61563 0.0
H194 H 0.17842 0.75708 0.57635 0.0
H195 H 0.19463 0.77514 0.67193 0.0
H196 H 0.27882 0.85274 0.07417 0.0
H197 H 0.30094 0.8691 0.16907 0.0
H198 H 0.1657 0.75926 0.21579 0.0
H199 H 0.14305 0.74297 0.12122 0.0
Tb200 Tb 0.42562 0.18275 0.75304 0.0
Tb201 Tb 0.41878 0.24242 0.64938 0.0
C202 C 0.48494 0.20219 0.64955 0.0
C203 C 0.43509 0.15777 0.89468 0.0
C204 C 0.43767 0.18113 1.00468 0.0
C205 C 0.44366 0.14404 0.98877 0.0
C206 C 0.44237 0.1325 0.9343 0.0
C207 C 0.42957 0.19506 0.91016 0.0
C208 C 0.43084 0.20663 0.96452 0.0
C209 C 0.43215 0.14471 0.83748 0.0
O210 O 0.47878 0.25498 0.76121 0.0
O211 O 0.44749 0.29206 0.71502 0.0
O212 O 0.3586 0.22444 0.69933 0.0
O213 O 0.38479 0.21245 0.77976 0.0
O214 O 0.45261 0.29673 0.59396 0.0
O215 O 0.37931 0.24879 0.58804 0.0
O216 O 0.39004 0.17153 0.62319 0.0
O217 O 0.36821 0.1329 0.70378 0.0
O218 O 0.46081 0.17122 0.68636 0.0
O219 O 0.48198 0.23952 0.64377 0.0
C220 C 0.4744 0.29132 0.75297 0.0
O221 O 0.39306 0.13344 0.81391 0.0
O222 O 0.46747 0.17223 0.80758 0.0
C223 C 0.35583 0.21969 0.7519 0.0
C224 C 0.42097 0.273 0.50707 0.0
C225 C 0.42744 0.25377 0.39746 0.0
C226 C 0.41883 0.28941 0.41228 0.0
C227 C 0.4156 0.29887 0.46657 0.0
C228 C 0.42997 0.23772 0.49265 0.0
C229 C 0.43325 0.22826 0.43847 0.0
C230 C 0.4157 0.28166 0.56414 0.0
C231 C 0.36535 0.13368 0.65112 0.0
H232 H 0.44966 0.12404 0.01839 0.0
H233 H 0.44681 0.10368 0.92316 0.0
H234 H 0.42375 0.21494 0.88019 0.0
H235 H 0.42547 0.23497 0.97506 0.0
H236 H 0.41357 0.30939 0.38193 0.0
H237 H 0.40834 0.32604 0.4769 0.0
H238 H 0.43413 0.21725 0.52335 0.0
H239 H 0.44059 0.20105 0.42878 0.0
H240 H 0.33675 0.2081 0.85938 0.0
H241 H 0.20238 0.34761 0.85239 0.0
H242 H 0.30013 0.25144 0.7133 0.0
H243 H 0.24887 0.31401 0.99825 0.0
H244 H 0.22512 0.30002 0.80159 0.0
H245 H 0.29179 0.23378 0.91076 0.0
C246 C 0.31882 0.22253 0.83795 0.0
C247 C 0.32293 0.22844 0.78195 0.0
C248 C 0.2299 0.30264 0.84477 0.0
C249 C 0.27154 0.2581 0.84079 0.0
C250 C 0.21698 0.32988 0.8739 0.0
C251 C 0.22451 0.33549 0.92964 0.0
C252 C 0.25072 0.28098 0.87144 0.0
C253 C 0.2429 0.31109 0.9553 0.0
C254 C 0.29312 0.23719 0.86742 0.0
C255 C 0.29834 0.2467 0.75643 0.0
N256 N 0.25592 0.28532 0.92585 0.0
N257 N 0.27416 0.26147 0.78617 0.0
H258 H 0.04096 0.31892 0.01915 0.0
H259 H 0.93026 0.26563 0.31142 0.0
H260 H 0.12051 0.35696 0.16622 0.0
H261 H 0.84989 0.19742 0.16989 0.0
H262 H 0.00057 0.29778 0.25764 0.0
H263 H 0.97044 0.2724 0.072 0.0
C264 C 0.0437 0.31721 0.06235 0.0
C265 C 0.08666 0.34238 0.0883 0.0
C266 C 0.96767 0.27538 0.2383 0.0
C267 C 0.00644 0.28953 0.1487 0.0
C268 C 0.92752 0.25712 0.26902 0.0
C269 C 0.8843 0.22908 0.24496 0.0
C270 C 0.9646 0.26624 0.18285 0.0
C271 C 0.88266 0.21884 0.18995 0.0
C272 C 0.00349 0.2906 0.09243 0.0
C273 C 0.08818 0.33868 0.14437 0.0
N274 N 0.92231 0.23797 0.16046 0.0
N275 N 0.04867 0.31317 0.17262 0.0
H276 H 0.7012 0.02353 0.33634 0.0
H277 H 0.65834 0.92124 0.62903 0.0
H278 H 0.77475 0.10848 0.47316 0.0
H279 H 0.65073 0.83931 0.49083 0.0
H280 H 0.69332 0.99031 0.57223 0.0
H281 H 0.67519 0.95456 0.39201 0.0
C282 C 0.7123 0.02756 0.37788 0.0
C283 C 0.7402 0.07158 0.40025 0.0
C284 C 0.68423 0.95719 0.55459 0.0
C285 C 0.70983 -0.00658 0.46403 0.0
C286 C 0.66404 0.91785 0.58678 0.0
C287 C 0.65175 0.87469 0.56448 0.0
C288 C 0.69111 0.95296 0.49966 0.0
C289 C 0.66001 0.87207 0.5096 0.0
C290 C 0.69753 0.98834 0.4095 0.0
C291 C 0.75358 0.07509 0.45428 0.0
N292 N 0.67878 0.91069 0.47884 0.0
N293 N 0.73767 0.03645 0.48465 0.0
H294 H 0.70203 0.70533 0.70201 0.0
H295 H 0.6957 0.70091 1.00825 0.0
H296 H 0.69041 0.81302 0.78405 0.0
H297 H 0.80799 0.69531 0.92914 0.0
H298 H 0.68471 0.7351 0.92631 0.0
H299 H 0.7341 0.69266 0.78474 0.0
C300 C 0.70702 0.7268 0.73692 0.0
C301 C 0.69329 0.75997 0.73635 0.0
C302 C 0.71218 0.72697 0.92771 0.0
C303 C 0.72812 0.74475 0.83037 0.0
C304 C 0.71842 0.70756 0.97417 0.0
C305 C 0.75253 0.69504 0.97532 0.0
C306 C 0.73925 0.73227 0.88215 0.0
C307 C 0.78114 0.70431 0.93003 0.0
C308 C 0.7252 0.71958 0.78384 0.0
C309 C 0.7004 0.78694 0.78271 0.0
N310 N 0.77311 0.72134 0.8847 0.0
N311 N 0.71627 0.77793 0.82842 0.0
H312 H 0.01078 0.70701 0.38365 0.0
H313 H 0.91875 0.66673 0.08749 0.0
H314 H 0.10185 0.78045 0.25128 0.0
H315 H 0.83354 0.66356 0.21997 0.0
H316 H -0.01368 0.70231 0.14709 0.0
H317 H 0.94415 0.68501 0.32474 0.0
C318 C 0.01666 0.71906 0.34246 0.0
C319 C 0.06168 0.74554 0.3222 0.0
C320 C 0.95281 0.69416 0.16277 0.0
C321 C -0.01379 0.71965 0.25473 0.0
C322 C 0.91432 0.67364 0.12899 0.0
C323 C 0.87058 0.66209 0.14895 0.0
C324 C 0.94713 0.70207 0.21695 0.0
C325 C 0.86668 0.67197 0.20296 0.0
C326 C 0.97878 0.70656 0.30899 0.0
C327 C 0.06761 0.76024 0.26853 0.0
N328 N 0.90442 0.69087 0.23536 0.0
N329 N 0.03021 0.74639 0.23627 0.0
H330 H 0.35808 0.12156 0.54238 0.0
H331 H 0.18694 0.84824 0.55086 0.0
H332 H 0.3078 0.04644 0.69137 0.0
H333 H 0.26948 0.92268 0.41324 0.0
H334 H 0.2212 0.92118 0.6014 0.0
H335 H 0.31543 0.04941 0.49302 0.0
C336 C 0.33786 0.08992 0.56486 0.0
C337 C 0.33688 0.09009 0.62128 0.0
C338 C 0.23155 0.9214 0.56007 0.0
C339 C 0.28782 0.00704 0.56455 0.0
C340 C 0.2119 0.87993 0.53115 0.0
C341 C 0.22555 0.87946 0.47784 0.0
C342 C 0.26454 0.96254 0.53515 0.0
C343 C 0.25822 0.92139 0.45436 0.0
C344 C 0.31357 0.04865 0.53651 0.0
C345 C 0.30979 0.04788 0.64792 0.0
N346 N 0.27654 0.96118 0.48315 0.0
N347 N 0.28639 0.00792 0.61928 0.0
H348 H 0.2608 0.49429 0.65816 0.0
H349 H 0.16391 0.40322 0.36107 0.0
H350 H 0.11571 0.40833 0.62054 0.0
H351 H 0.30921 0.48929 0.3976 0.0
H352 H 0.14575 0.40608 0.4556 0.0
H353 H 0.27929 0.49355 0.56311 0.0
C354 C 0.23278 0.47511 0.63004 0.0
C355 C 0.18655 0.45128 0.64772 0.0
C356 C 0.18162 0.42441 0.44299 0.0
C357 C 0.20759 0.45065 0.53829 0.0
C358 C 0.19206 0.42305 0.3888 0.0
C359 C 0.23824 0.44612 0.37096 0.0
C360 C 0.21755 0.44903 0.48007 0.0
C361 C 0.27315 0.47048 0.40935 0.0
C362 C 0.2434 0.47492 0.57562 0.0
C363 C 0.15179 0.42771 0.60896 0.0
N364 N 0.2621 0.47129 0.46193 0.0
N365 N 0.16302 0.42792 0.55629 0.0
H366 H 0.66475 0.13847 0.93885 0.0
H367 H 0.86541 0.2393 0.71631 0.0
H368 H 0.80773 0.18353 0.97395 0.0
H369 H 0.72075 0.18396 0.68004 0.0
H370 H 0.84536 0.22064 0.81113 0.0
H371 H 0.68483 0.15563 0.84404 0.0
C372 C 0.70032 0.15164 0.92664 0.0
C373 C 0.73456 0.15948 0.96464 0.0
C374 C 0.81799 0.21248 0.78241 0.0
C375 C 0.75796 0.17988 0.85588 0.0
C376 C 0.82945 0.22335 0.72829 0.0
C377 C 0.79472 0.21315 0.69008 0.0
C378 C 0.77146 0.19145 0.7986 0.0
C379 C 0.74862 0.19191 0.7079 0.0
C380 C 0.71182 0.16171 0.87245 0.0
C381 C 0.78025 0.17748 0.94634 0.0
N382 N 0.73838 0.1819 0.76081 0.0
N383 N 0.79059 0.18707 0.89336 0.0
H384 H 0.57169 0.65329 0.26396 0.0
H385 H 0.63903 0.85084 0.04287 0.0
H386 H 0.63994 0.79902 0.30103 0.0
H387 H 0.56641 0.70508 1.00539 0.0
H388 H 0.64203 0.8324 0.13707 0.0
H389 H 0.57266 0.67151 0.16871 0.0
C390 C 0.58717 0.68915 0.25217 0.0
C391 C 0.60555 0.72463 0.29092 0.0
C392 C 0.62551 0.80441 0.10826 0.0
C393 C 0.6063 0.74571 0.18157 0.0
C394 C 0.62353 0.81492 0.05438 0.0
C395 C 0.60217 0.77951 1.01588 0.0
C396 C 0.60601 0.75808 0.12415 0.0
C397 C 0.58362 0.73363 0.03334 0.0
C398 C 0.58745 0.6995 0.19769 0.0
C399 C 0.62461 0.7704 0.27294 0.0
N400 N 0.58583 0.72427 0.08611 0.0
N401 N 0.62441 0.77956 0.21975 0.0
H402 H 0.75633 0.65508 0.70582 0.0
H403 H 0.74199 0.55064 0.41104 0.0
H404 H 0.78887 0.54837 0.67028 0.0
H405 H 0.69909 0.64978 0.44589 0.0
H406 H 0.76062 0.55085 0.50585 0.0
H407 H 0.73577 0.65455 0.61134 0.0
C408 C 0.759 0.63138 0.67836 0.0
C409 C 0.77461 0.60182 0.69639 0.0
C410 C 0.74708 0.57256 0.4929 0.0
C411 C 0.75151 0.60145 0.58764 0.0
C412 C 0.73667 0.57266 0.43857 0.0
C413 C 0.71908 0.60038 0.42019 0.0
C414 C 0.74008 0.60049 0.52954 0.0
C415 C 0.71214 0.62752 0.45819 0.0
C416 C 0.74744 0.63128 0.62425 0.0
C417 C 0.77788 0.57239 0.65841 0.0
N418 N 0.7228 0.62702 0.51094 0.0
N419 N 0.76651 0.57301 0.60608 0.0
H420 H 0.11263 0.65644 0.78343 0.0
H421 H 0.22784 0.85635 1.00624 0.0
H422 H 0.17045 0.80142 0.74863 0.0
H423 H 0.16128 0.71087 0.04275 0.0
H424 H 0.20777 0.83694 0.91154 0.0
H425 H 0.13003 0.67563 0.87853 0.0
C426 C 0.12867 0.69229 0.79576 0.0
C427 C 0.14011 0.72735 0.75776 0.0
C428 C 0.19744 0.80924 0.94027 0.0
C429 C 0.16073 0.74965 0.86679 0.0
C430 C 0.20911 0.82032 0.99433 0.0
C431 C 0.19627 0.78521 0.03257 0.0
C432 C 0.17292 0.76268 0.92412 0.0
C433 C 0.17144 0.73909 1.01484 0.0
C434 C 0.13885 0.70325 0.85011 0.0
C435 C 0.1616 0.77327 0.77622 0.0
N436 N 0.16072 0.72919 0.96195 0.0
N437 N 0.17124 0.78306 0.82931 0.0
H438 H 0.39349 0.16835 0.35016 0.0
H439 H 0.47481 0.26709 0.05202 0.0
H440 H 0.46605 0.31381 0.31231 0.0
H441 H 0.40049 0.12171 0.09037 0.0
H442 H 0.47267 0.28499 0.14698 0.0
H443 H 0.39718 0.15088 0.25552 0.0
C444 C 0.41052 0.19671 0.3221 0.0
C445 C 0.42958 0.24271 0.3396 0.0
C446 C 0.4569 0.24917 0.13465 0.0
C447 C 0.43341 0.22276 0.23042 0.0
C448 C 0.45787 0.23886 0.08027 0.0
C449 C 0.43774 0.19273 0.0628 0.0
C450 C 0.4356 0.21316 0.17219 0.0
C451 C 0.41703 0.15779 0.10176 0.0
C452 C 0.41234 0.18664 0.26786 0.0
C453 C 0.45038 0.27782 0.30083 0.0
N454 N 0.41643 0.16871 0.15441 0.0
N455 N 0.45177 0.26713 0.24823 0.0
H456 H 0.12158 0.51292 0.06157 0.0
H457 H 0.17683 0.61724 0.36005 0.0
H458 H 0.23564 0.52751 0.15762 0.0
H459 H 0.10593 0.65378 0.24284 0.0
H460 H 0.18187 0.56564 0.29347 0.0
H461 H 0.10119 0.5491 0.13446 0.0
C462 C 0.14237 0.52381 0.0978 0.0
C463 C 0.18069 0.51771 0.10322 0.0
C464 C 0.16449 0.58438 0.28278 0.0
C465 C 0.15679 0.55761 0.18696 0.0
C466 C 0.16113 0.61331 0.32089 0.0
C467 C 0.14127 0.6399 0.3066 0.0
C468 C 0.14736 0.58184 0.23053 0.0
C469 C 0.12188 0.63405 0.25514 0.0
C470 C 0.13058 0.54416 0.13939 0.0
C471 C 0.20614 0.53201 0.15132 0.0
N472 N 0.12571 0.60588 0.21874 0.0
N473 N 0.19366 0.55114 0.19135 0.0
H474 H 0.6249 0.19771 0.35916 0.0
H475 H 0.51101 0.13644 0.65272 0.0
H476 H 0.66069 0.12852 0.47937 0.0
H477 H 0.51939 0.2463 0.55422 0.0
H478 H 0.55284 0.1203 0.58278 0.0
H479 H 0.57046 0.20087 0.42308 0.0
C480 C 0.62042 0.1822 0.39847 0.0
C481 C 0.64742 0.16317 0.41431 0.0
C482 C 0.54537 0.14787 0.57666 0.0
C483 C 0.58601 0.16699 0.48732 0.0
C484 C 0.52173 0.15722 0.61658 0.0
C485 C 0.51218 0.1931 0.60963 0.0
C486 C 0.55878 0.1741 0.52922 0.0
C487 C 0.52648 0.21865 0.56169 0.0
C488 C 0.58981 0.18443 0.43505 0.0
C489 C 0.64073 0.1439 0.46587 0.0
N490 N 0.54893 0.20857 0.5233 0.0
N491 N 0.61087 0.14654 0.5007 0.0
H492 H 0.28323 0.51866 0.85707 0.0
H493 H 0.55216 0.6575 0.81125 0.0
H494 H 0.37593 0.50977 0.97049 0.0
H495 H 0.45499 0.61083 0.67958 0.0
H496 H 0.48972 0.60531 0.87147 0.0
H497 H 0.34678 0.55594 0.79311 0.0
C498 C 0.31705 0.52475 0.86868 0.0
C499 C 0.3244 0.51144 0.91944 0.0
C500 C 0.48229 0.60582 0.8292 0.0
C501 C 0.39739 0.55421 0.84615 0.0
C502 C 0.51785 0.63552 0.79481 0.0
C503 C 0.50858 0.63861 0.74042 0.0
C504 C 0.43702 0.57989 0.80927 0.0
C505 C 0.46361 0.60941 0.72118 0.0
C506 C 0.35321 0.54562 0.83186 0.0
C507 C 0.36886 0.5197 0.93189 0.0
N508 N 0.42925 0.58188 0.75583 0.0
N509 N 0.40393 0.54113 0.89568 0.0
H510 H 0.7832 0.28853 0.1762 0.0
H511 H 0.74917 0.50644 0.21337 0.0
H512 H 0.7694 0.33913 0.33109 0.0
H513 H 0.76871 0.45861 0.05934 0.0
H514 H 0.75797 0.44648 0.25731 0.0
H515 H 0.78045 0.35219 0.13319 0.0
C516 C 0.77983 0.31318 0.20129 0.0
C517 C 0.77624 0.30831 0.25742 0.0
C518 C 0.76039 0.44912 0.21392 0.0
C519 C 0.77279 0.3813 0.20813 0.0
C520 C 0.75522 0.4833 0.18868 0.0
C521 C 0.75803 0.48752 0.13243 0.0
C522 C 0.76833 0.41879 0.18278 0.0
C523 C 0.76616 0.45662 0.10274 0.0
C524 C 0.77823 0.34956 0.17659 0.0
C525 C 0.77223 0.34152 0.28772 0.0
N526 N 0.77093 0.42351 0.1283 0.0
N527 N 0.77032 0.37649 0.26263 0.0
H528 H 0.32169 0.75725 0.3862 0.0
H529 H 0.44689 0.75681 0.65988 0.0
H530 H 0.26964 0.75989 0.54451 0.0
H531 H 0.49518 0.74591 0.50224 0.0
H532 H 0.38225 0.75913 0.61798 0.0
H533 H 0.38654 0.75474 0.42775 0.0
C534 C 0.32394 0.75745 0.42964 0.0
C535 C 0.29018 0.75878 0.46189 0.0
C536 C 0.40696 0.75617 0.59256 0.0
C537 C 0.36414 0.75581 0.50963 0.0
C538 C 0.44391 0.75484 0.61648 0.0
C539 C 0.47658 0.75121 0.58456 0.0
C540 C 0.40268 0.75399 0.53632 0.0
C541 C 0.47084 0.74871 0.5285 0.0
C542 C 0.36091 0.7559 0.45333 0.0
C543 C 0.29481 0.75885 0.51799 0.0
N544 N 0.43465 0.75024 0.50616 0.0
N545 N 0.33109 0.75738 0.54003 0.0
H546 H 0.60292 0.45843 0.03412 0.0
H547 H 0.50094 0.38269 0.73652 0.0
H548 H 0.65575 0.5519 0.89942 0.0
H549 H 0.50148 0.28932 0.85519 0.0
H550 H 0.54201 0.44689 0.80074 0.0
H551 H 0.54765 0.39782 0.97368 0.0
C552 C 0.6022 0.4665 0.99213 0.0
C553 C 0.63428 0.51002 0.97161 0.0
C554 C 0.53278 0.4122 0.81255 0.0
C555 C 0.5715 0.44103 0.90247 0.0
C556 C 0.50949 0.3757 0.77603 0.0
C557 C 0.49847 0.33082 0.7903 0.0
C558 C 0.54394 0.40332 0.86389 0.0
C559 C 0.50999 0.3235 0.84215 0.0
C560 C 0.57095 0.43185 0.95763 0.0
C561 C 0.63194 0.51857 0.91675 0.0
N562 N 0.53199 0.35931 0.87704 0.0
N563 N 0.6013 0.48426 0.88394 0.0
loop_
_geom_bond_atom_site_label_1
_geom_bond_atom_site_label_2
_geom_bond_distance
_geom_bond_site_symmetry_2
_ccdc_geom_bond_type
Tb0 C9 2.764 . S
Tb0 O10 2.325 . S
Tb0 O13 2.303 . S
Tb0 O17 2.322 1_554 S
Tb0 O18 2.349 . S
Tb0 O21 2.415 . S
Tb0 O22 2.399 . S
Tb1 O11 2.322 1_556 S
Tb1 O12 2.349 . S
Tb1 O14 2.415 . S
Tb1 O15 2.399 . S
Tb1 O16 2.325 . S
Tb1 O19 2.303 . S
Tb1 C30 2.764 . S
C2 O18 1.261 1_556 S
C2 O19 1.257 . S
C3 C6 1.358 . S
C3 C7 1.332 . S
C3 C9 1.504 . S
C4 C5 1.373 . S
C4 C8 1.308 . S
C5 C4 1.373 . S
C5 C6 1.429 . S
C5 H32 0.932 . S
C6 C3 1.358 . S
C6 C5 1.429 . S
C6 H33 0.930 . S
C7 C3 1.332 . S
C7 C8 1.394 . S
C7 H34 0.932 . S
C8 C4 1.308 . S
C8 C7 1.394 . S
C8 H35 0.929 . S
C9 Tb0 2.764 . S
C9 C3 1.504 . S
C9 O21 1.239 . S
C9 O22 1.263 . S
O10 Tb0 2.325 . S
O10 C20 1.236 . S
O11 Tb1 2.322 1_554 S
O11 C20 1.257 . S
O12 Tb1 2.349 . S
O12 C23 1.261 1_556 S
O13 Tb0 2.303 . S
O13 C23 1.257 . S
O14 Tb1 2.415 . S
O14 C30 1.239 . S
O15 Tb1 2.399 . S
O15 C30 1.263 . S
O16 Tb1 2.325 . S
O16 C31 1.236 . S
O17 Tb0 2.322 1_556 S
O17 C31 1.257 . S
O18 Tb0 2.349 . S
O18 C2 1.261 1_554 S
O19 Tb1 2.303 . S
O19 C2 1.257 . S
C20 O10 1.236 . S
C20 O11 1.257 . S
O21 Tb0 2.415 . S
O21 C9 1.239 . S
O22 Tb0 2.399 . S
O22 C9 1.263 . S
C23 O12 1.261 1_554 S
C23 O13 1.257 . S
C24 C27 1.358 . S
C24 C28 1.332 . S
C24 C30 1.504 . S
C25 C26 1.373 . S
C25 C29 1.308 . S
C26 C25 1.373 . S
C26 C27 1.429 . S
C26 H36 0.932 . S
C27 C24 1.358 . S
C27 C26 1.429 . S
C27 H37 0.930 . S
C28 C24 1.332 . S
C28 C29 1.394 . S
C28 H38 0.932 . S
C29 C25 1.308 . S
C29 C28 1.394 . S
C29 H39 0.929 . S
C30 Tb1 2.764 . S
C30 O14 1.239 . S
C30 O15 1.263 . S
C30 C24 1.504 . S
C31 O16 1.236 . S
C31 O17 1.257 . S
H32 C5 0.932 . S
H33 C6 0.930 . S
H34 C7 0.932 . S
H35 C8 0.929 . S
H36 C26 0.932 . S
H37 C27 0.930 . S
H38 C28 0.932 . S
H39 C29 0.929 . S
Tb40 C49 2.764 . S
Tb40 O50 2.325 . S
Tb40 O53 2.303 . S
Tb40 O57 2.322 . S
Tb40 O58 2.349 . S
Tb40 O61 2.415 . S
Tb40 O62 2.399 . S
Tb41 O51 2.322 . S
Tb41 O52 2.349 . S
Tb41 O54 2.415 . S
Tb41 O55 2.399 . S
Tb41 O56 2.325 . S
Tb41 O59 2.303 . S
Tb41 C70 2.764 . S
C42 O58 1.261 . S
C42 O59 1.257 . S
C43 C46 1.358 . S
C43 C47 1.332 . S
C43 C49 1.504 . S
C44 C45 1.373 . S
C44 C48 1.308 . S
C45 C44 1.373 . S
C45 C46 1.429 . S
C45 H72 0.932 . S
C46 C43 1.358 . S
C46 C45 1.429 . S
C46 H73 0.930 . S
C47 C43 1.332 . S
C47 C48 1.394 . S
C47 H74 0.932 . S
C48 C44 1.308 . S
C48 C47 1.394 . S
C48 H75 0.929 . S
C49 Tb40 2.764 . S
C49 C43 1.504 . S
C49 O61 1.239 . S
C49 O62 1.263 . S
O50 Tb40 2.325 . S
O50 C60 1.236 . S
O51 Tb41 2.322 . S
O51 C60 1.257 . S
O52 Tb41 2.349 . S
O52 C63 1.261 . S
O53 Tb40 2.303 . S
O53 C63 1.257 . S
O54 Tb41 2.415 . S
O54 C70 1.239 . S
O55 Tb41 2.399 . S
O55 C70 1.263 . S
O56 Tb41 2.325 . S
O56 C71 1.236 . S
O57 Tb40 2.322 . S
O57 C71 1.257 . S
O58 Tb40 2.349 . S
O58 C42 1.261 . S
O59 Tb41 2.303 . S
O59 C42 1.257 . S
C60 O50 1.236 . S
C60 O51 1.257 . S
O61 Tb40 2.415 . S
O61 C49 1.239 . S
O62 Tb40 2.399 . S
O62 C49 1.263 . S
C63 O52 1.261 . S
C63 O53 1.257 . S
C64 C67 1.358 . S
C64 C68 1.332 . S
C64 C70 1.504 . S
C65 C66 1.373 . S
C65 C69 1.308 . S
C66 C65 1.373 . S
C66 C67 1.429 . S
C66 H76 0.932 . S
C67 C64 1.358 . S
C67 C66 1.429 . S
C67 H77 0.930 . S
C68 C64 1.332 . S
C68 C69 1.394 . S
C68 H78 0.932 . S
C69 C65 1.308 . S
C69 C68 1.394 . S
C69 H79 0.929 . S
C70 Tb41 2.764 . S
C70 O54 1.239 . S
C70 O55 1.263 . S
C70 C64 1.504 . S
C71 O56 1.236 . S
C71 O57 1.257 . S
H72 C45 0.932 . S
H73 C46 0.930 . S
H74 C47 0.932 . S
H75 C48 0.929 . S
H76 C66 0.932 . S
H77 C67 0.930 . S
H78 C68 0.932 . S
H79 C69 0.929 . S
Tb80 C89 2.764 . S
Tb80 O90 2.325 . S
Tb80 O93 2.303 . S
Tb80 O97 2.322 . S
Tb80 O98 2.349 . S
Tb80 O101 2.415 . S
Tb80 O102 2.399 . S
Tb81 O91 2.322 . S
Tb81 O92 2.349 . S
Tb81 O94 2.415 . S
Tb81 O95 2.399 . S
Tb81 O96 2.325 . S
Tb81 O99 2.303 . S
Tb81 C110 2.764 . S
C82 O98 1.261 . S
C82 O99 1.257 . S
C83 C86 1.358 . S
C83 C87 1.332 . S
C83 C89 1.504 . S
C84 C85 1.373 1_554 S
C84 C88 1.308 1_554 S
C85 C84 1.373 1_556 S
C85 C86 1.429 . S
C85 H112 0.932 . S
C86 C83 1.358 . S
C86 C85 1.429 . S
C86 H113 0.930 . S
C87 C83 1.332 . S
C87 C88 1.394 . S
C87 H114 0.932 . S
C88 C84 1.308 1_556 S
C88 C87 1.394 . S
C88 H115 0.929 1_556 S
C89 Tb80 2.764 . S
C89 C83 1.504 . S
C89 O101 1.239 . S
C89 O102 1.263 . S
O90 Tb80 2.325 . S
O90 C100 1.236 . S
O91 Tb81 2.322 . S
O91 C100 1.257 . S
O92 Tb81 2.349 . S
O92 C103 1.261 . S
O93 Tb80 2.303 . S
O93 C103 1.257 . S
O94 Tb81 2.415 . S
O94 C110 1.239 . S
O95 Tb81 2.399 . S
O95 C110 1.263 . S
O96 Tb81 2.325 . S
O96 C111 1.236 . S
O97 Tb80 2.322 . S
O97 C111 1.257 . S
O98 Tb80 2.349 . S
O98 C82 1.261 . S
O99 Tb81 2.303 . S
O99 C82 1.257 . S
C100 O90 1.236 . S
C100 O91 1.257 . S
O101 Tb80 2.415 . S
O101 C89 1.239 . S
O102 Tb80 2.399 . S
O102 C89 1.263 . S
C103 O92 1.261 . S
C103 O93 1.257 . S
C104 C107 1.358 . S
C104 C108 1.332 . S
C104 C110 1.504 . S
C105 C106 1.373 . S
C105 C109 1.308 . S
C106 C105 1.373 . S
C106 C107 1.429 . S
C106 H116 0.932 . S
C107 C104 1.358 . S
C107 C106 1.429 . S
C107 H117 0.930 . S
C108 C104 1.332 . S
C108 C109 1.394 . S
C108 H118 0.932 . S
C109 C105 1.308 . S
C109 C108 1.394 . S
C109 H119 0.929 . S
C110 Tb81 2.764 . S
C110 O94 1.239 . S
C110 O95 1.263 . S
C110 C104 1.504 . S
C111 O96 1.236 . S
C111 O97 1.257 . S
H112 C85 0.932 . S
H113 C86 0.930 . S
H114 C87 0.932 . S
H115 C88 0.929 1_554 S
H116 C106 0.932 . S
H117 C107 0.930 . S
H118 C108 0.932 . S
H119 C109 0.929 . S
Tb120 C129 2.764 . S
Tb120 O130 2.325 . S
Tb120 O133 2.303 . S
Tb120 O137 2.322 1_554 S
Tb120 O138 2.349 . S
Tb120 O141 2.415 . S
Tb120 O142 2.399 . S
Tb121 O131 2.322 1_556 S
Tb121 O132 2.349 . S
Tb121 O134 2.415 . S
Tb121 O135 2.399 . S
Tb121 O136 2.325 . S
Tb121 O139 2.303 . S
Tb121 C150 2.764 . S
C122 O138 1.261 1_556 S
C122 O139 1.257 . S
C123 C126 1.358 . S
C123 C127 1.332 . S
C123 C129 1.504 . S
C124 C125 1.373 . S
C124 C128 1.308 . S
C125 C124 1.373 . S
C125 C126 1.429 . S
C125 H152 0.932 . S
C126 C123 1.358 . S
C126 C125 1.429 . S
C126 H153 0.930 . S
C127 C123 1.332 . S
C127 C128 1.394 . S
C127 H154 0.932 . S
C128 C124 1.308 . S
C128 C127 1.394 . S
C128 H155 0.929 . S
C129 Tb120 2.764 . S
C129 C123 1.504 . S
C129 O141 1.239 . S
C129 O142 1.263 . S
O130 Tb120 2.325 . S
O130 C140 1.236 . S
O131 Tb121 2.322 1_554 S
O131 C140 1.257 . S
O132 Tb121 2.349 . S
O132 C143 1.261 1_556 S
O133 Tb120 2.303 . S
O133 C143 1.257 . S
O134 Tb121 2.415 . S
O134 C150 1.239 . S
O135 Tb121 2.399 . S
O135 C150 1.263 . S
O136 Tb121 2.325 . S
O136 C151 1.236 . S
O137 Tb120 2.322 1_556 S
O137 C151 1.257 . S
O138 Tb120 2.349 . S
O138 C122 1.261 1_554 S
O139 Tb121 2.303 . S
O139 C122 1.257 . S
C140 O130 1.236 . S
C140 O131 1.257 . S
O141 Tb120 2.415 . S
O141 C129 1.239 . S
O142 Tb120 2.399 . S
O142 C129 1.263 . S
C143 O132 1.261 1_554 S
C143 O133 1.257 . S
C144 C147 1.358 . S
C144 C148 1.332 . S
C144 C150 1.504 . S
C145 C146 1.373 . S
C145 C149 1.308 . S
C146 C145 1.373 . S
C146 C147 1.429 . S
C146 H156 0.932 . S
C147 C144 1.358 . S
C147 C146 1.429 . S
C147 H157 0.930 . S
C148 C144 1.332 . S
C148 C149 1.394 . S
C148 H158 0.932 . S
C149 C145 1.308 . S
C149 C148 1.394 . S
C149 H159 0.929 . S
C150 Tb121 2.764 . S
C150 O134 1.239 . S
C150 O135 1.263 . S
C150 C144 1.504 . S
C151 O136 1.236 . S
C151 O137 1.257 . S
H152 C125 0.932 . S
H153 C126 0.930 . S
H154 C127 0.932 . S
H155 C128 0.929 . S
H156 C146 0.932 . S
H157 C147 0.930 . S
H158 C148 0.932 . S
H159 C149 0.929 . S
Tb160 C169 2.764 . S
Tb160 O170 2.325 . S
Tb160 O173 2.303 . S
Tb160 O177 2.322 . S
Tb160 O178 2.349 . S
Tb160 O181 2.415 . S
Tb160 O182 2.399 . S
Tb161 O171 2.322 . S
Tb161 O172 2.349 . S
Tb161 O174 2.415 . S
Tb161 O175 2.399 . S
Tb161 O176 2.325 . S
Tb161 O179 2.303 . S
Tb161 C190 2.764 . S
C162 O178 1.261 . S
C162 O179 1.257 . S
C163 C166 1.358 . S
C163 C167 1.332 . S
C163 C169 1.504 . S
C164 C165 1.373 . S
C164 C168 1.308 . S
C165 C164 1.373 . S
C165 C166 1.429 . S
C165 H192 0.932 . S
C166 C163 1.358 . S
C166 C165 1.429 . S
C166 H193 0.930 . S
C167 C163 1.332 . S
C167 C168 1.394 . S
C167 H194 0.932 . S
C168 C164 1.308 . S
C168 C167 1.394 . S
C168 H195 0.929 . S
C169 Tb160 2.764 . S
C169 C163 1.504 . S
C169 O181 1.239 . S
C169 O182 1.263 . S
O170 Tb160 2.325 . S
O170 C180 1.236 . S
O171 Tb161 2.322 . S
O171 C180 1.257 . S
O172 Tb161 2.349 . S
O172 C183 1.261 . S
O173 Tb160 2.303 . S
O173 C183 1.257 . S
O174 Tb161 2.415 . S
O174 C190 1.239 . S
O175 Tb161 2.399 . S
O175 C190 1.263 . S
O176 Tb161 2.325 . S
O176 C191 1.236 . S
O177 Tb160 2.322 . S
O177 C191 1.257 . S
O178 Tb160 2.349 . S
O178 C162 1.261 . S
O179 Tb161 2.303 . S
O179 C162 1.257 . S
C180 O170 1.236 . S
C180 O171 1.257 . S
O181 Tb160 2.415 . S
O181 C169 1.239 . S
O182 Tb160 2.399 . S
O182 C169 1.263 . S
C183 O172 1.261 . S
C183 O173 1.257 . S
C184 C187 1.358 . S
C184 C188 1.332 . S
C184 C190 1.504 . S
C185 C186 1.373 . S
C185 C189 1.308 . S
C186 C185 1.373 . S
C186 C187 1.429 . S
C186 H196 0.932 . S
C187 C184 1.358 . S
C187 C186 1.429 . S
C187 H197 0.930 . S
C188 C184 1.332 . S
C188 C189 1.394 . S
C188 H198 0.932 . S
C189 C185 1.308 . S
C189 C188 1.394 . S
C189 H199 0.929 . S
C190 Tb161 2.764 . S
C190 O174 1.239 . S
C190 O175 1.263 . S
C190 C184 1.504 . S
C191 O176 1.236 . S
C191 O177 1.257 . S
H192 C165 0.932 . S
H193 C166 0.930 . S
H194 C167 0.932 . S
H195 C168 0.929 . S
H196 C186 0.932 . S
H197 C187 0.930 . S
H198 C188 0.932 . S
H199 C189 0.929 . S
Tb200 C209 2.764 . S
Tb200 O210 2.325 . S
Tb200 O213 2.303 . S
Tb200 O217 2.322 . S
Tb200 O218 2.349 . S
Tb200 O221 2.415 . S
Tb200 O222 2.399 . S
Tb201 O211 2.322 . S
Tb201 O212 2.349 . S
Tb201 O214 2.415 . S
Tb201 O215 2.399 . S
Tb201 O216 2.325 . S
Tb201 O219 2.303 . S
Tb201 C230 2.764 . S
C202 O218 1.261 . S
C202 O219 1.257 . S
C203 C206 1.358 . S
C203 C207 1.332 . S
C203 C209 1.504 . S
C204 C205 1.373 1_554 S
C204 C208 1.308 1_554 S
C205 C204 1.373 1_556 S
C205 C206 1.429 . S
C205 H232 0.932 . S
C206 C203 1.358 . S
C206 C205 1.429 . S
C206 H233 0.930 . S
C207 C203 1.332 . S
C207 C208 1.394 . S
C207 H234 0.932 . S
C208 C204 1.308 1_556 S
C208 C207 1.394 . S
C208 H235 0.929 1_556 S
C209 Tb200 2.764 . S
C209 C203 1.504 . S
C209 O221 1.239 . S
C209 O222 1.263 . S
O210 Tb200 2.325 . S
O210 C220 1.236 . S
O211 Tb201 2.322 . S
O211 C220 1.257 . S
O212 Tb201 2.349 . S
O212 C223 1.261 . S
O213 Tb200 2.303 . S
O213 C223 1.257 . S
O214 Tb201 2.415 . S
O214 C230 1.239 . S
O215 Tb201 2.399 . S
O215 C230 1.263 . S
O216 Tb201 2.325 . S
O216 C231 1.236 . S
O217 Tb200 2.322 . S
O217 C231 1.257 . S
O218 Tb200 2.349 . S
O218 C202 1.261 . S
O219 Tb201 2.303 . S
O219 C202 1.257 . S
C220 O210 1.236 . S
C220 O211 1.257 . S
O221 Tb200 2.415 . S
O221 C209 1.239 . S
O222 Tb200 2.399 . S
O222 C209 1.263 . S
C223 O212 1.261 . S
C223 O213 1.257 . S
C224 C227 1.358 . S
C224 C228 1.332 . S
C224 C230 1.504 . S
C225 C226 1.373 . S
C225 C229 1.308 . S
C226 C225 1.373 . S
C226 C227 1.429 . S
C226 H236 0.932 . S
C227 C224 1.358 . S
C227 C226 1.429 . S
C227 H237 0.930 . S
C228 C224 1.332 . S
C228 C229 1.394 . S
C228 H238 0.932 . S
C229 C225 1.308 . S
C229 C228 1.394 . S
C229 H239 0.929 . S
C230 Tb201 2.764 . S
C230 O214 1.239 . S
C230 O215 1.263 . S
C230 C224 1.504 . S
C231 O216 1.236 . S
C231 O217 1.257 . S
H232 C205 0.932 . S
H233 C206 0.930 . S
H234 C207 0.932 . S
H235 C208 0.929 1_554 S
H236 C226 0.932 . S
H237 C227 0.930 . S
H238 C228 0.932 . S
H239 C229 0.929 . S
H240 C246 0.930 . S
H241 C250 0.930 . S
H242 C255 0.929 . S
H243 C253 0.929 . S
H244 C248 0.929 . S
H245 C254 0.929 . S
C246 H240 0.930 . S
C246 C247 1.367 . S
C246 C254 1.378 . S
C247 C246 1.367 . S
C247 C255 1.433 . S
C248 H244 0.929 . S
C248 C250 1.378 . S
C248 C252 1.350 . S
C249 C252 1.463 . S
C249 C254 1.350 . S
C249 N257 1.427 . S
C250 H241 0.930 . S
C250 C248 1.378 . S
C250 C251 1.367 . S
C251 C250 1.367 . S
C251 C253 1.433 . S
C252 C248 1.350 . S
C252 C249 1.463 . S
C252 N256 1.427 . S
C253 H243 0.929 . S
C253 C251 1.433 . S
C253 N256 1.384 . S
C254 H245 0.929 . S
C254 C246 1.378 . S
C254 C249 1.350 . S
C255 H242 0.929 . S
C255 C247 1.433 . S
C255 N257 1.384 . S
N256 C252 1.427 . S
N256 C253 1.384 . S
N257 C249 1.427 . S
N257 C255 1.384 . S
H258 C264 0.930 . S
H259 C268 0.930 . S
H260 C273 0.929 . S
H261 C271 0.929 . S
H262 C266 0.929 1_455 S
H263 C272 0.929 1_655 S
C264 H258 0.930 . S
C264 C265 1.367 . S
C264 C272 1.378 . S
C265 C264 1.367 . S
C265 C273 1.433 . S
C266 H262 0.929 1_655 S
C266 C268 1.378 . S
C266 C270 1.350 . S
C267 C270 1.463 1_455 S
C267 C272 1.350 . S
C267 N275 1.427 . S
C268 H259 0.930 . S
C268 C266 1.378 . S
C268 C269 1.367 . S
C269 C268 1.367 . S
C269 C271 1.433 . S
C270 C266 1.350 . S
C270 C267 1.463 1_655 S
C270 N274 1.427 . S
C271 H261 0.929 . S
C271 C269 1.433 . S
C271 N274 1.384 . S
C272 H263 0.929 1_455 S
C272 C264 1.378 . S
C272 C267 1.350 . S
C273 H260 0.929 . S
C273 C265 1.433 . S
C273 N275 1.384 . S
N274 C270 1.427 . S
N274 C271 1.384 . S
N275 C267 1.427 . S
N275 C273 1.384 . S
H276 C282 0.930 . S
H277 C286 0.930 . S
H278 C291 0.929 . S
H279 C289 0.929 . S
H280 C284 0.929 1_545 S
H281 C290 0.929 1_565 S
C282 H276 0.930 . S
C282 C283 1.367 . S
C282 C290 1.378 . S
C283 C282 1.367 . S
C283 C291 1.433 . S
C284 H280 0.929 1_565 S
C284 C286 1.378 . S
C284 C288 1.350 . S
C285 C288 1.463 1_545 S
C285 C290 1.350 . S
C285 N293 1.427 . S
C286 H277 0.930 . S
C286 C284 1.378 . S
C286 C287 1.367 . S
C287 C286 1.367 . S
C287 C289 1.433 . S
C288 C284 1.350 . S
C288 C285 1.463 1_565 S
C288 N292 1.427 . S
C289 H279 0.929 . S
C289 C287 1.433 . S
C289 N292 1.384 . S
C290 H281 0.929 1_545 S
C290 C282 1.378 . S
C290 C285 1.350 . S
C291 H278 0.929 . S
C291 C283 1.433 . S
C291 N293 1.384 . S
N292 C288 1.427 . S
N292 C289 1.384 . S
N293 C285 1.427 . S
N293 C291 1.384 . S
H294 C300 0.930 . S
H295 C304 0.930 . S
H296 C309 0.929 . S
H297 C307 0.929 . S
H298 C302 0.929 . S
H299 C308 0.929 . S
C300 H294 0.930 . S
C300 C301 1.367 . S
C300 C308 1.378 . S
C301 C300 1.367 . S
C301 C309 1.433 . S
C302 H298 0.929 . S
C302 C304 1.378 . S
C302 C306 1.350 . S
C303 C306 1.463 . S
C303 C308 1.350 . S
C303 N311 1.427 . S
C304 H295 0.930 . S
C304 C302 1.378 . S
C304 C305 1.367 . S
C305 C304 1.367 . S
C305 C307 1.433 . S
C306 C302 1.350 . S
C306 C303 1.463 . S
C306 N310 1.427 . S
C307 H297 0.929 . S
C307 C305 1.433 . S
C307 N310 1.384 . S
C308 H299 0.929 . S
C308 C300 1.378 . S
C308 C303 1.350 . S
C309 H296 0.929 . S
C309 C301 1.433 . S
C309 N311 1.384 . S
N310 C306 1.427 . S
N310 C307 1.384 . S
N311 C303 1.427 . S
N311 C309 1.384 . S
H312 C318 0.930 . S
H313 C322 0.930 . S
H314 C327 0.929 . S
H315 C325 0.929 . S
H316 C320 0.929 1_455 S
H317 C326 0.929 1_655 S
C318 H312 0.930 . S
C318 C319 1.367 . S
C318 C326 1.378 . S
C319 C318 1.367 . S
C319 C327 1.433 . S
C320 H316 0.929 1_655 S
C320 C322 1.378 . S
C320 C324 1.350 . S
C321 C324 1.463 1_455 S
C321 C326 1.350 . S
C321 N329 1.427 . S
C322 H313 0.930 . S
C322 C320 1.378 . S
C322 C323 1.367 . S
C323 C322 1.367 . S
C323 C325 1.433 . S
C324 C320 1.350 . S
C324 C321 1.463 1_655 S
C324 N328 1.427 . S
C325 H315 0.929 . S
C325 C323 1.433 . S
C325 N328 1.384 . S
C326 H317 0.929 1_455 S
C326 C318 1.378 . S
C326 C321 1.350 . S
C327 H314 0.929 . S
C327 C319 1.433 . S
C327 N329 1.384 . S
N328 C324 1.427 . S
N328 C325 1.384 . S
N329 C321 1.427 . S
N329 C327 1.384 . S
H330 C336 0.930 . S
H331 C340 0.930 . S
H332 C345 0.929 . S
H333 C343 0.929 . S
H334 C338 0.929 . S
H335 C344 0.929 . S
C336 H330 0.930 . S
C336 C337 1.367 . S
C336 C344 1.378 . S
C337 C336 1.367 . S
C337 C345 1.433 . S
C338 H334 0.929 . S
C338 C340 1.378 . S
C338 C342 1.350 . S
C339 C342 1.463 1_545 S
C339 C344 1.350 . S
C339 N347 1.427 . S
C340 H331 0.930 . S
C340 C338 1.378 . S
C340 C341 1.367 . S
C341 C340 1.367 . S
C341 C343 1.433 . S
C342 C338 1.350 . S
C342 C339 1.463 1_565 S
C342 N346 1.427 . S
C343 H333 0.929 . S
C343 C341 1.433 . S
C343 N346 1.384 . S
C344 H335 0.929 . S
C344 C336 1.378 . S
C344 C339 1.350 . S
C345 H332 0.929 . S
C345 C337 1.433 . S
C345 N347 1.384 . S
N346 C342 1.427 . S
N346 C343 1.384 . S
N347 C339 1.427 . S
N347 C345 1.384 . S
H348 C354 0.930 . S
H349 C358 0.930 . S
H350 C363 0.929 . S
H351 C361 0.929 . S
H352 C356 0.929 . S
H353 C362 0.929 . S
C354 H348 0.930 . S
C354 C355 1.367 . S
C354 C362 1.378 . S
C355 C354 1.367 . S
C355 C363 1.433 . S
C356 H352 0.929 . S
C356 C358 1.378 . S
C356 C360 1.350 . S
C357 C360 1.463 . S
C357 C362 1.350 . S
C357 N365 1.427 . S
C358 H349 0.930 . S
C358 C356 1.378 . S
C358 C359 1.367 . S
C359 C358 1.367 . S
C359 C361 1.433 . S
C360 C356 1.350 . S
C360 C357 1.463 . S
C360 N364 1.427 . S
C361 H351 0.929 . S
C361 C359 1.433 . S
C361 N364 1.384 . S
C362 H353 0.929 . S
C362 C354 1.378 . S
C362 C357 1.350 . S
C363 H350 0.929 . S
C363 C355 1.433 . S
C363 N365 1.384 . S
N364 C360 1.427 . S
N364 C361 1.384 . S
N365 C357 1.427 . S
N365 C363 1.384 . S
H366 C372 0.930 . S
H367 C376 0.930 . S
H368 C381 0.929 . S
H369 C379 0.929 . S
H370 C374 0.929 . S
H371 C380 0.929 . S
C372 H366 0.930 . S
C372 C373 1.367 . S
C372 C380 1.378 . S
C373 C372 1.367 . S
C373 C381 1.433 . S
C374 H370 0.929 . S
C374 C376 1.378 . S
C374 C378 1.350 . S
C375 C378 1.463 . S
C375 C380 1.350 . S
C375 N383 1.427 . S
C376 H367 0.930 . S
C376 C374 1.378 . S
C376 C377 1.367 . S
C377 C376 1.367 . S
C377 C379 1.433 . S
C378 C374 1.350 . S
C378 C375 1.463 . S
C378 N382 1.427 . S
C379 H369 0.929 . S
C379 C377 1.433 . S
C379 N382 1.384 . S
C380 H371 0.929 . S
C380 C372 1.378 . S
C380 C375 1.350 . S
C381 H368 0.929 . S
C381 C373 1.433 . S
C381 N383 1.384 . S
N382 C378 1.427 . S
N382 C379 1.384 . S
N383 C375 1.427 . S
N383 C381 1.384 . S
H384 C390 0.930 . S
H385 C394 0.930 . S
H386 C399 0.929 . S
H387 C397 0.929 . S
H388 C392 0.929 . S
H389 C398 0.929 . S
C390 H384 0.930 . S
C390 C391 1.367 . S
C390 C398 1.378 . S
C391 C390 1.367 . S
C391 C399 1.433 . S
C392 H388 0.929 . S
C392 C394 1.378 . S
C392 C396 1.350 . S
C393 C396 1.463 . S
C393 C398 1.350 . S
C393 N401 1.427 . S
C394 H385 0.930 . S
C394 C392 1.378 . S
C394 C395 1.367 . S
C395 C394 1.367 . S
C395 C397 1.433 . S
C396 C392 1.350 . S
C396 C393 1.463 . S
C396 N400 1.427 . S
C397 H387 0.929 . S
C397 C395 1.433 . S
C397 N400 1.384 . S
C398 H389 0.929 . S
C398 C390 1.378 . S
C398 C393 1.350 . S
C399 H386 0.929 . S
C399 C391 1.433 . S
C399 N401 1.384 . S
N400 C396 1.427 . S
N400 C397 1.384 . S
N401 C393 1.427 . S
N401 C399 1.384 . S
H402 C408 0.930 . S
H403 C412 0.930 . S
H404 C417 0.929 . S
H405 C415 0.929 . S
H406 C410 0.929 . S
H407 C416 0.929 . S
C408 H402 0.930 . S
C408 C409 1.367 . S
C408 C416 1.378 . S
C409 C408 1.367 . S
C409 C417 1.433 . S
C410 H406 0.929 . S
C410 C412 1.378 . S
C410 C414 1.350 . S
C411 C414 1.463 . S
C411 C416 1.350 . S
C411 N419 1.427 . S
C412 H403 0.930 . S
C412 C410 1.378 . S
C412 C413 1.367 . S
C413 C412 1.367 . S
C413 C415 1.433 . S
C414 C410 1.350 . S
C414 C411 1.463 . S
C414 N418 1.427 . S
C415 H405 0.929 . S
C415 C413 1.433 . S
C415 N418 1.384 . S
C416 H407 0.929 . S
C416 C408 1.378 . S
C416 C411 1.350 . S
C417 H404 0.929 . S
C417 C409 1.433 . S
C417 N419 1.384 . S
N418 C414 1.427 . S
N418 C415 1.384 . S
N419 C411 1.427 . S
N419 C417 1.384 . S
H420 C426 0.930 . S
H421 C430 0.930 . S
H422 C435 0.929 . S
H423 C433 0.929 . S
H424 C428 0.929 . S
H425 C434 0.929 . S
C426 H420 0.930 . S
C426 C427 1.367 . S
C426 C434 1.378 . S
C427 C426 1.367 . S
C427 C435 1.433 . S
C428 H424 0.929 . S
C428 C430 1.378 . S
C428 C432 1.350 . S
C429 C432 1.463 . S
C429 C434 1.350 . S
C429 N437 1.427 . S
C430 H421 0.930 . S
C430 C428 1.378 . S
C430 C431 1.367 . S
C431 C430 1.367 . S
C431 C433 1.433 . S
C432 C428 1.350 . S
C432 C429 1.463 . S
C432 N436 1.427 . S
C433 H423 0.929 . S
C433 C431 1.433 . S
C433 N436 1.384 . S
C434 H425 0.929 . S
C434 C426 1.378 . S
C434 C429 1.350 . S
C435 H422 0.929 . S
C435 C427 1.433 . S
C435 N437 1.384 . S
N436 C432 1.427 . S
N436 C433 1.384 . S
N437 C429 1.427 . S
N437 C435 1.384 . S
H438 C444 0.930 . S
H439 C448 0.930 . S
H440 C453 0.929 . S
H441 C451 0.929 . S
H442 C446 0.929 . S
H443 C452 0.929 . S
C444 H438 0.930 . S
C444 C445 1.367 . S
C444 C452 1.378 . S
C445 C444 1.367 . S
C445 C453 1.433 . S
C446 H442 0.929 . S
C446 C448 1.378 . S
C446 C450 1.350 . S
C447 C450 1.463 . S
C447 C452 1.350 . S
C447 N455 1.427 . S
C448 H439 0.930 . S
C448 C446 1.378 . S
C448 C449 1.367 . S
C449 C448 1.367 . S
C449 C451 1.433 . S
C450 C446 1.350 . S
C450 C447 1.463 . S
C450 N454 1.427 . S
C451 H441 0.929 . S
C451 C449 1.433 . S
C451 N454 1.384 . S
C452 H443 0.929 . S
C452 C444 1.378 . S
C452 C447 1.350 . S
C453 H440 0.929 . S
C453 C445 1.433 . S
C453 N455 1.384 . S
N454 C450 1.427 . S
N454 C451 1.384 . S
N455 C447 1.427 . S
N455 C453 1.384 . S
H456 C462 0.930 . S
H457 C466 0.930 . S
H458 C471 0.929 . S
H459 C469 0.929 . S
H460 C464 0.929 . S
H461 C470 0.929 . S
C462 H456 0.930 . S
C462 C463 1.367 . S
C462 C470 1.378 . S
C463 C462 1.367 . S
C463 C471 1.433 . S
C464 H460 0.929 . S
C464 C466 1.378 . S
C464 C468 1.350 . S
C465 C468 1.463 . S
C465 C470 1.350 . S
C465 N473 1.427 . S
C466 H457 0.930 . S
C466 C464 1.378 . S
C466 C467 1.367 . S
C467 C466 1.367 . S
C467 C469 1.433 . S
C468 C464 1.350 . S
C468 C465 1.463 . S
C468 N472 1.427 . S
C469 H459 0.929 . S
C469 C467 1.433 . S
C469 N472 1.384 . S
C470 H461 0.929 . S
C470 C462 1.378 . S
C470 C465 1.350 . S
C471 H458 0.929 . S
C471 C463 1.433 . S
C471 N473 1.384 . S
N472 C468 1.427 . S
N472 C469 1.384 . S
N473 C465 1.427 . S
N473 C471 1.384 . S
H474 C480 0.930 . S
H475 C484 0.930 . S
H476 C489 0.929 . S
H477 C487 0.929 . S
H478 C482 0.929 . S
H479 C488 0.929 . S
C480 H474 0.930 . S
C480 C481 1.367 . S
C480 C488 1.378 . S
C481 C480 1.367 . S
C481 C489 1.433 . S
C482 H478 0.929 . S
C482 C484 1.378 . S
C482 C486 1.350 . S
C483 C486 1.463 . S
C483 C488 1.350 . S
C483 N491 1.427 . S
C484 H475 0.930 . S
C484 C482 1.378 . S
C484 C485 1.367 . S
C485 C484 1.367 . S
C485 C487 1.433 . S
C486 C482 1.350 . S
C486 C483 1.463 . S
C486 N490 1.427 . S
C487 H477 0.929 . S
C487 C485 1.433 . S
C487 N490 1.384 . S
C488 H479 0.929 . S
C488 C480 1.378 . S
C488 C483 1.350 . S
C489 H476 0.929 . S
C489 C481 1.433 . S
C489 N491 1.384 . S
N490 C486 1.427 . S
N490 C487 1.384 . S
N491 C483 1.427 . S
N491 C489 1.384 . S
H492 C498 0.930 . S
H493 C502 0.930 . S
H494 C507 0.929 . S
H495 C505 0.929 . S
H496 C500 0.929 . S
H497 C506 0.929 . S
C498 H492 0.930 . S
C498 C499 1.367 . S
C498 C506 1.378 . S
C499 C498 1.367 . S
C499 C507 1.433 . S
C500 H496 0.929 . S
C500 C502 1.378 . S
C500 C504 1.350 . S
C501 C504 1.463 . S
C501 C506 1.350 . S
C501 N509 1.427 . S
C502 H493 0.930 . S
C502 C500 1.378 . S
C502 C503 1.367 . S
C503 C502 1.367 . S
C503 C505 1.433 . S
C504 C500 1.350 . S
C504 C501 1.463 . S
C504 N508 1.427 . S
C505 H495 0.929 . S
C505 C503 1.433 . S
C505 N508 1.384 . S
C506 H497 0.929 . S
C506 C498 1.378 . S
C506 C501 1.350 . S
C507 H494 0.929 . S
C507 C499 1.433 . S
C507 N509 1.384 . S
N508 C504 1.427 . S
N508 C505 1.384 . S
N509 C501 1.427 . S
N509 C507 1.384 . S
H510 C516 0.930 . S
H511 C520 0.930 . S
H512 C525 0.929 . S
H513 C523 0.929 . S
H514 C518 0.929 . S
H515 C524 0.929 . S
C516 H510 0.930 . S
C516 C517 1.367 . S
C516 C524 1.378 . S
C517 C516 1.367 . S
C517 C525 1.433 . S
C518 H514 0.929 . S
C518 C520 1.378 . S
C518 C522 1.350 . S
C519 C522 1.463 . S
C519 C524 1.350 . S
C519 N527 1.427 . S
C520 H511 0.930 . S
C520 C518 1.378 . S
C520 C521 1.367 . S
C521 C520 1.367 . S
C521 C523 1.433 . S
C522 C518 1.350 . S
C522 C519 1.463 . S
C522 N526 1.427 . S
C523 H513 0.929 . S
C523 C521 1.433 . S
C523 N526 1.384 . S
C524 H515 0.929 . S
C524 C516 1.378 . S
C524 C519 1.350 . S
C525 H512 0.929 . S
C525 C517 1.433 . S
C525 N527 1.384 . S
N526 C522 1.427 . S
N526 C523 1.384 . S
N527 C519 1.427 . S
N527 C525 1.384 . S
H528 C534 0.930 . S
H529 C538 0.930 . S
H530 C543 0.929 . S
H531 C541 0.929 . S
H532 C536 0.929 . S
H533 C542 0.929 . S
C534 H528 0.930 . S
C534 C535 1.367 . S
C534 C542 1.378 . S
C535 C534 1.367 . S
C535 C543 1.433 . S
C536 H532 0.929 . S
C536 C538 1.378 . S
C536 C540 1.350 . S
C537 C540 1.463 . S
C537 C542 1.350 . S
C537 N545 1.427 . S
C538 H529 0.930 . S
C538 C536 1.378 . S
C538 C539 1.367 . S
C539 C538 1.367 . S
C539 C541 1.433 . S
C540 C536 1.350 . S
C540 C537 1.463 . S
C540 N544 1.427 . S
C541 H531 0.929 . S
C541 C539 1.433 . S
C541 N544 1.384 . S
C542 H533 0.929 . S
C542 C534 1.378 . S
C542 C537 1.350 . S
C543 H530 0.929 . S
C543 C535 1.433 . S
C543 N545 1.384 . S
N544 C540 1.427 . S
N544 C541 1.384 . S
N545 C537 1.427 . S
N545 C543 1.384 . S
H546 C552 0.930 . S
H547 C556 0.930 . S
H548 C561 0.929 . S
H549 C559 0.929 . S
H550 C554 0.929 . S
H551 C560 0.929 . S
C552 H546 0.930 . S
C552 C553 1.367 . S
C552 C560 1.378 . S
C553 C552 1.367 . S
C553 C561 1.433 . S
C554 H550 0.929 . S
C554 C556 1.378 . S
C554 C558 1.350 . S
C555 C558 1.463 . S
C555 C560 1.350 . S
C555 N563 1.427 . S
C556 H547 0.930 . S
C556 C554 1.378 . S
C556 C557 1.367 . S
C557 C556 1.367 . S
C557 C559 1.433 . S
C558 C554 1.350 . S
C558 C555 1.463 . S
C558 N562 1.427 . S
C559 H549 0.929 . S
C559 C557 1.433 . S
C559 N562 1.384 . S
C560 H551 0.929 . S
C560 C552 1.378 . S
C560 C555 1.350 . S
C561 H548 0.929 . S
C561 C553 1.433 . S
C561 N563 1.384 . S
N562 C558 1.427 . S
N562 C559 1.384 . S
N563 C555 1.427 . S
N563 C561 1.384 . S
C247 C223 1.390 . S
C251 C31 1.413 . S
C265 C23 1.394 . S
C269 C71 1.412 . S
C283 C63 1.394 . S
C287 C111 1.412 . S
C301 C103 1.393 . S
C305 C151 1.413 . S
C319 C191 1.411 . S
C323 C143 1.395 . S
C337 C231 1.410 . S
C341 C183 1.397 . S
C355 C25 1.451 . S
C359 C4 1.451 . S
C373 C65 1.468 1_556 S
C377 C44 1.468 . S
C391 C105 1.470 . S
C395 C84 1.470 . S
C409 C145 1.463 . S
C413 C124 1.463 . S
C427 C164 1.468 . S
C431 C185 1.468 1_556 S
C445 C225 1.463 . S
C449 C204 1.463 . S
C463 C20 1.641 . S
C467 C162 1.649 . S
C481 C60 1.641 . S
C485 C202 1.649 . S
C499 C2 1.650 . S
C503 C100 1.640 . S
C517 C42 1.651 . S
C521 C140 1.634 . S
C535 C180 1.641 . S
C539 C82 1.649 . S
C553 C122 1.650 . S
C557 C220 1.634 . S
