# Generated by pormake.
# Topology smc, (6)-cn, num edge types: 1
# Building blocks:
#     Node 0, Type 0, BuildingBlock: KUMBUR_clean_sbu_0, # of connection points: 6
#     Node 1, Type 0, BuildingBlock: KUMBUR_clean_sbu_0, # of connection points: 6
#     Node 2, Type 0, BuildingBlock: KUMBUR_clean_sbu_0, # of connection points: 6
#     Node 3, Type 0, BuildingBlock: KUMBUR_clean_sbu_0, # of connection points: 6
#     Node 4, Type 0, BuildingBlock: KUMBUR_clean_sbu_0, # of connection points: 6
#     Node 5, Type 0, BuildingBlock: KUMBUR_clean_sbu_0, # of connection points: 6
#     Node 6, Type 0, BuildingBlock: KUMBUR_clean_sbu_0, # of connection points: 6
#     Node 7, Type 0, BuildingBlock: KUMBUR_clean_sbu_0, # of connection points: 6
#     Node 8, Type 0, BuildingBlock: KUMBUR_clean_sbu_0, # of connection points: 6
#     Edge 9, Type (0, 0), BuildingBlock: EZIPEK_clean_linker_0, # of connection points: 2
#     Edge 10, Type (0, 0), BuildingBlock: EZIPEK_clean_linker_0, # of connection points: 2
#     Edge 11, Type (0, 0), BuildingBlock: EZIPEK_clean_linker_0, # of connection points: 2
#     Edge 12, Type (0, 0), BuildingBlock: EZIPEK_clean_linker_0, # of connection points: 2
#     Edge 13, Type (0, 0), BuildingBlock: EZIPEK_clean_linker_0, # of connection points: 2
#     Edge 14, Type (0, 0), BuildingBlock: EZIPEK_clean_linker_0, # of connection points: 2
#     Edge 15, Type (0, 0), BuildingBlock: EZIPEK_clean_linker_0, # of connection points: 2
#     Edge 16, Type (0, 0), BuildingBlock: EZIPEK_clean_linker_0, # of connection points: 2
#     Edge 17, Type (0, 0), BuildingBlock: EZIPEK_clean_linker_0, # of connection points: 2
#     Edge 18, Type (0, 0), BuildingBlock: EZIPEK_clean_linker_0, # of connection points: 2
#     Edge 19, Type (0, 0), BuildingBlock: EZIPEK_clean_linker_0, # of connection points: 2
#     Edge 20, Type (0, 0), BuildingBlock: EZIPEK_clean_linker_0, # of connection points: 2
#     Edge 21, Type (0, 0), BuildingBlock: EZIPEK_clean_linker_0, # of connection points: 2
#     Edge 22, Type (0, 0), BuildingBlock: EZIPEK_clean_linker_0, # of connection points: 2
#     Edge 23, Type (0, 0), BuildingBlock: EZIPEK_clean_linker_0, # of connection points: 2
#     Edge 24, Type (0, 0), BuildingBlock: EZIPEK_clean_linker_0, # of connection points: 2
#     Edge 25, Type (0, 0), BuildingBlock: EZIPEK_clean_linker_0, # of connection points: 2
#     Edge 26, Type (0, 0), BuildingBlock: EZIPEK_clean_linker_0, # of connection points: 2
#     Edge 27, Type (0, 0), BuildingBlock: EZIPEK_clean_linker_0, # of connection points: 2
#     Edge 28, Type (0, 0), BuildingBlock: EZIPEK_clean_linker_0, # of connection points: 2
#     Edge 29, Type (0, 0), BuildingBlock: EZIPEK_clean_linker_0, # of connection points: 2
#     Edge 30, Type (0, 0), BuildingBlock: EZIPEK_clean_linker_0, # of connection points: 2
#     Edge 31, Type (0, 0), BuildingBlock: EZIPEK_clean_linker_0, # of connection points: 2
#     Edge 32, Type (0, 0), BuildingBlock: EZIPEK_clean_linker_0, # of connection points: 2
#     Edge 33, Type (0, 0), BuildingBlock: EZIPEK_clean_linker_0, # of connection points: 2
#     Edge 34, Type (0, 0), BuildingBlock: EZIPEK_clean_linker_0, # of connection points: 2
#     Edge 35, Type (0, 0), BuildingBlock: EZIPEK_clean_linker_0, # of connection points: 2
# Relax obj value: 0.112
# Max RMSD: 0.304
# Mean RMSD: 0.304
data_MOF--net-smc--node1-KUMBUR_clean_sbu_0--edge1-EZIPEK_clean_linker_0
_symmetry_space_group_name_H-M    P1
_symmetry_Int_Tables_number       1
_symmetry_cell_setting            triclinic
loop_
_symmetry_equiv_pos_as_xyz
'x, y, z'
_cell_length_a     29.898278
_cell_length_b     29.963575
_cell_length_c     29.536875
_cell_angle_alpha  90.037589
_cell_angle_beta   90.02207
_cell_angle_gamma 120.00369
loop_
_atom_site_label
_atom_site_type_symbol
_atom_site_fract_x
_atom_site_fract_y
_atom_site_fract_z
_atom_type_partial_charge
Tb0 Tb 0.04983 0.501 0.98815 0.0
C1 C 0.99056 0.29099 0.07204 0.0
C2 C 1.00682 0.23809 0.02033 0.0
C3 C 1.00627 0.22408 0.10113 0.0
C4 C 0.99723 0.27915 0.02827 0.0
C5 C 0.99325 0.26243 0.10871 0.0
C6 C 1.01349 0.21223 0.05698 0.0
C7 C 0.96419 0.3074 0.15763 0.0
N8 N 0.97736 0.32785 0.07843 0.0
C9 C 0.96115 0.33414 0.12021 0.0
C10 C 0.98083 0.27172 0.15181 0.0
Tb11 Tb 0.97235 0.36905 0.01485 0.0
N12 N 0.98788 0.30327 0.99364 0.0
C13 C 0.98094 0.28271 0.95076 0.0
C14 C 1.00538 0.22137 0.97601 0.0
C15 C 0.99069 0.24262 0.94133 0.0
H16 H 0.94817 0.36165 0.12481 0.0
H17 H 0.98619 0.22768 0.90723 0.0
H18 H 1.02147 0.18112 0.05145 0.0
H19 H 0.95339 0.31433 0.19069 0.0
H20 H 0.96796 0.29646 0.9229 0.0
H21 H 1.02231 0.54622 0.16147 0.0
H22 H 1.01226 0.18987 0.96861 0.0
H23 H 1.01806 0.53307 0.88891 0.0
H24 H 1.02572 0.48999 0.10368 0.0
H25 H 0.99587 0.59655 0.86247 0.0
H26 H 1.00923 0.20229 0.12909 0.0
H27 H 1.01519 0.62194 0.13935 0.0
H28 H 1.00657 0.67433 0.07756 0.0
H29 H 0.98244 0.24989 0.18014 0.0
H30 H 0.99466 0.685 0.99676 0.0
N31 N 1.02677 0.53569 0.04767 0.0
C32 C 1.02579 0.52412 0.09265 0.0
C33 C 1.01772 0.59768 0.11344 0.0
C34 C 1.0143 0.6069 0.06758 0.0
C35 C 1.0222 0.55531 0.12602 0.0
C36 C 1.01737 0.5739 0.03519 0.0
H37 H 0.98754 0.65445 0.91693 0.0
N38 N 1.01344 0.54691 0.95947 0.0
C39 C 0.99899 0.59167 0.89842 0.0
C40 C 1.01026 0.57953 0.98967 0.0
C41 C 1.00983 0.55406 0.91399 0.0
C42 C 0.99471 0.62452 0.92921 0.0
C43 C 1.00125 0.61934 0.97534 0.0
O44 O 0.10247 0.5492 0.9387 0.0
O45 O 0.05365 0.43119 0.99587 0.0
O46 O 0.03345 0.39573 0.06566 0.0
O47 O 0.08269 0.48418 0.05332 0.0
O48 O 0.0908 0.47665 0.94242 0.0
O49 O 0.11016 0.57622 0.00828 0.0
O50 O 0.89734 0.33721 0.04254 0.0
O51 O 0.97283 0.44109 0.99886 0.0
O52 O 0.9966 0.45845 0.92952 0.0
O53 O 0.97829 0.37477 0.94165 0.0
O54 O 0.93282 0.40262 0.05398 0.0
O55 O 0.90958 0.30773 0.98076 0.0
C56 C 0.08671 0.43768 0.96438 0.0
C57 C 0.1717 0.63734 0.95207 0.0
C58 C 0.22493 0.7324 0.95137 0.0
C59 C 0.18213 0.68639 0.96847 0.0
C60 C 0.25638 0.72813 0.9183 0.0
C61 C 0.20415 0.63524 0.91888 0.0
C62 C 0.24611 0.68017 0.90232 0.0
C63 C 0.07181 0.44141 0.07754 0.0
C64 C 0.126 0.58785 0.96655 0.0
C65 C 1.00074 0.65378 0.00725 0.0
C66 C 1.00774 0.64784 0.05323 0.0
C67 C 0.94254 0.44118 0.02856 0.0
C68 C 0.83643 0.25078 0.02558 0.0
C69 C 0.78349 0.23618 0.02665 0.0
C70 C 0.74571 0.18627 0.04111 0.0
C71 C 0.76218 0.15235 0.05624 0.0
C72 C 0.85127 0.21553 0.04001 0.0
C73 C 0.81441 0.16685 0.05556 0.0
C74 C 0.97857 0.40993 0.91507 0.0
C75 C 0.8756 0.30323 0.01068 0.0
H76 H 0.15711 0.68875 0.9937 0.0
H77 H 0.28956 0.76237 0.90494 0.0
H78 H 0.19707 0.59852 0.90561 0.0
H79 H 0.27088 0.67782 0.87686 0.0
H80 H 0.77158 0.26314 0.01557 0.0
H81 H 0.73444 0.1143 0.06837 0.0
H82 H 0.89129 0.22556 0.03946 0.0
H83 H 0.82637 0.14009 0.06698 0.0
Tb84 Tb 0.53352 0.56021 0.98092 0.0
C85 C 0.75504 0.69383 0.07438 0.0
C86 C 0.79512 0.77742 0.03813 0.0
C87 C 0.83691 0.76369 0.10248 0.0
C88 C 0.75554 0.72525 0.04025 0.0
C89 C 0.79644 0.7124 0.1055 0.0
C90 C 0.83546 0.79655 0.06974 0.0
C91 C 0.75749 0.62729 0.13755 0.0
N92 N 0.71664 0.6438 0.07439 0.0
C93 C 0.71722 0.61076 0.10631 0.0
C94 C 0.79764 0.67804 0.13675 0.0
Tb95 Tb 0.66568 0.61572 0.01008 0.0
N96 N 0.71915 0.70387 0.00747 0.0
C97 C 0.71969 0.73371 0.97233 0.0
C98 C 0.79451 0.80813 0.00287 0.0
C99 C 0.7563 0.78612 0.96989 0.0
H100 H 0.68824 0.57073 0.10763 0.0
H101 H 0.75552 0.80919 0.94204 0.0
H102 H 0.86685 0.83607 0.06796 0.0
H103 H 0.75802 0.60041 0.16171 0.0
H104 H 0.69143 0.71791 0.94651 0.0
H105 H 0.44597 0.47578 0.14439 0.0
H106 H 0.8239 0.84841 0.00027 0.0
H107 H 0.51334 0.50203 0.87852 0.0
H108 H 0.49547 0.54545 0.09293 0.0
H109 H 0.4775 0.41504 0.84896 0.0
H110 H 0.87025 0.7782 0.12441 0.0
H111 H 0.40545 0.38565 0.1186 0.0
H112 H 0.3885 0.3233 0.05635 0.0
H113 H 0.82979 0.68974 0.15976 0.0
H114 H 0.39931 0.3067 0.97693 0.0
N115 N 0.49012 0.49775 0.03619 0.0
C116 C 0.48172 0.5074 0.08003 0.0
C117 C 0.42862 0.41658 0.09523 0.0
C118 C 0.4349 0.40635 0.05034 0.0
C119 C 0.45177 0.46733 0.10996 0.0
C120 C 0.46565 0.44809 0.02109 0.0
H121 H 0.43322 0.34031 0.89998 0.0
N122 N 0.49989 0.47941 0.94841 0.0
C123 C 0.47664 0.42098 0.88503 0.0
C124 C 0.47143 0.43867 0.97617 0.0
C125 C 0.49906 0.47085 0.90263 0.0
C126 C 0.45126 0.37898 0.91381 0.0
C127 C 0.44693 0.38741 0.95966 0.0
O128 O 0.48414 0.56537 0.93288 0.0
O129 O 0.6023 0.63466 0.99363 0.0
O130 O 0.63777 0.63311 0.0708 0.0
O131 O 0.55281 0.60768 0.04794 0.0
O132 O 0.55791 0.62448 0.93774 0.0
O133 O 0.46016 0.54958 0.00154 0.0
O134 O 0.69497 0.56422 0.00822 0.0
O135 O 0.59371 0.54445 0.99349 0.0
O136 O 0.58153 0.56211 0.91899 0.0
O137 O 0.66329 0.62671 0.93866 0.0
O138 O 0.63183 0.54447 0.04963 0.0
O139 O 0.73183 0.63379 0.97051 0.0
C140 C 0.59517 0.65965 0.96108 0.0
C141 C 0.39281 0.50952 0.94435 0.0
C142 C 0.29618 0.46397 0.94452 0.0
C143 C 0.34514 0.4996 0.96465 0.0
C144 C 0.29646 0.43741 0.90542 0.0
C145 C 0.38983 0.48209 0.90472 0.0
C146 C 0.34255 0.44596 0.88621 0.0
C147 C 0.5921 0.62842 0.07881 0.0
C148 C 0.4455 0.55151 0.96051 0.0
C149 C 0.41784 0.34612 0.98902 0.0
C150 C 0.41156 0.35558 0.03416 0.0
C151 C 0.59275 0.51575 0.02509 0.0
C152 C 0.78533 0.602 0.00101 0.0
C153 C 0.79614 0.56081 0.00338 0.0
C154 C 0.84298 0.5685 0.02301 0.0
C155 C 0.87661 0.61668 0.04226 0.0
C156 C 0.82273 0.65074 0.01691 0.0
C157 C 0.86723 0.65761 0.03837 0.0
C158 C 0.63148 0.59456 0.9084 0.0
C159 C 0.73469 0.59382 0.98381 0.0
H160 H 0.34608 0.52118 0.99442 0.0
H161 H 0.26061 0.41086 0.88862 0.0
H162 H 0.42417 0.48971 0.88656 0.0
H163 H 0.34166 0.42568 0.85556 0.0
H164 H 0.76855 0.52325 0.99001 0.0
H165 H 0.9106 0.62275 0.06012 0.0
H166 H 0.81735 0.68361 0.01348 0.0
H167 H 0.89464 0.69497 0.05216 0.0
Tb168 Tb 0.47203 0.98361 0.97257 0.0
C169 C 0.33544 0.04043 0.08895 0.0
C170 C 0.25265 0.99786 0.05092 0.0
C171 C 0.25683 1.01806 0.13084 0.0
C172 C 0.30696 1.01954 0.04987 0.0
C173 C 0.31073 0.04087 0.12957 0.0
C174 C 0.22779 0.99615 0.0917 0.0
C175 C 0.39454 0.0919 0.16378 0.0
N176 N 0.3877 0.06338 0.08646 0.0
C177 C 0.41742 0.0913 0.12273 0.0
C178 C 0.34094 0.06599 0.16737 0.0
Tb179 Tb 0.42135 0.0588 0.01745 0.0
N180 N 0.33254 0.02383 0.01043 0.0
C181 C 0.30524 1.01105 0.97062 0.0
C182 C 0.22493 0.9808 0.01058 0.0
C183 C 0.25151 0.98847 0.97019 0.0
H184 H 0.4589 0.11337 0.12057 0.0
H185 H 0.2307 0.97781 0.93838 0.0
H186 H 0.18623 0.97955 0.09298 0.0
H187 H 0.41837 0.11313 0.19238 0.0
H188 H 0.32344 1.0185 0.93826 0.0
H189 H 0.64543 0.02886 0.06449 0.0
H190 H 0.18333 0.96396 0.01 0.0
H191 H 0.44845 0.96884 0.86126 0.0
H192 H 0.55301 1.00104 0.05621 0.0
H193 H 0.49908 0.99276 0.79056 0.0
H194 H 0.23734 1.01818 0.16166 0.0
H195 H 0.70317 0.06065 0.99785 0.0
H196 H 0.71431 0.07984 0.91496 0.0
H197 H 0.32315 0.06724 0.19885 0.0
H198 H 0.67473 0.0729 0.84045 0.0
N199 N 0.55859 1.01888 0.98594 0.0
C200 C 0.57806 1.01567 0.02701 0.0
C201 C 0.66281 0.0493 0.99422 0.0
C202 C 0.64257 0.0511 0.95204 0.0
C203 C 0.63033 0.03116 0.03182 0.0
C204 C 0.58949 0.03488 0.94876 0.0
H205 H 0.59444 0.03991 0.79369 0.0
N206 N 0.51462 1.00655 0.90428 0.0
C207 C 0.51863 1.00377 0.82293 0.0
C208 C 0.56698 0.02999 0.90666 0.0
C209 C 0.49012 0.99043 0.86308 0.0
C210 C 0.57248 0.03068 0.82485 0.0
C211 C 0.59728 0.0425 0.86698 0.0
O212 O 0.45405 0.91407 0.93884 0.0
O213 O 0.39967 0.97781 0.99455 0.0
O214 O 0.41029 1.01117 0.07372 0.0
O215 O 0.4495 0.96494 0.04841 0.0
O216 O 0.39969 0.94298 0.93538 0.0
O217 O 0.49036 0.93062 0.00361 0.0
O218 O 0.47074 0.12958 0.98536 0.0
O219 O 0.49162 0.05701 0.00023 0.0
O220 O 0.48019 0.04645 0.92426 0.0
O221 O 0.40765 0.0465 0.94551 0.0
O222 O 0.48994 0.08583 0.06107 0.0
O223 O 0.41333 0.12494 0.02938 0.0
C224 C 0.36901 0.94622 0.96395 0.0
C225 C 0.51642 0.88669 0.95144 0.0
C226 C 0.56351 0.83821 0.95537 0.0
C227 C 0.52552 0.84924 0.97288 0.0
C228 C 0.59391 0.86724 0.9187 0.0
C229 C 0.54443 0.91036 0.91199 0.0
C230 C 0.58404 0.90251 0.89698 0.0
C231 C 0.42236 0.97539 0.07933 0.0
C232 C 0.47731 0.90041 0.96856 0.0
C233 C 0.65082 0.06269 0.8705 0.0
C234 C 0.67333 0.06646 0.91291 0.0
C235 C 0.5195 0.07883 0.03428 0.0
C236 C 0.49294 0.20585 0.02583 0.0
C237 C 0.49287 0.25228 0.01678 0.0
C238 C 0.53421 0.3001 0.03212 0.0
C239 C 0.57469 0.30083 0.05672 0.0
C240 C 0.53413 0.20854 0.05102 0.0
C241 C 0.57444 0.25537 0.06626 0.0
C242 C 0.44515 0.06087 0.91635 0.0
C243 C 0.45335 0.15582 0.00563 0.0
H244 H 0.50179 0.82729 0.00125 0.0
H245 H 0.62295 0.85966 0.90461 0.0
H246 H 0.53503 0.93409 0.89167 0.0
H247 H 0.60578 0.92232 0.86703 0.0
H248 H 0.46161 0.25144 0.9975 0.0
H249 H 0.60653 0.33691 0.06894 0.0
H250 H 0.53641 0.17492 0.0585 0.0
H251 H 0.60591 0.25642 0.0853 0.0
Tb252 Tb 0.73759 0.84689 0.31459 0.0
C253 C 0.65907 0.62629 0.40471 0.0
C254 C 0.70542 0.59 0.36687 0.0
C255 C 0.65203 0.54637 0.43197 0.0
C256 C 0.69031 0.62766 0.36986 0.0
C257 C 0.64003 0.58587 0.43664 0.0
C258 C 0.68572 0.54911 0.39787 0.0
C259 C 0.5975 0.62547 0.47464 0.0
N260 N 0.64606 0.66368 0.4064 0.0
C261 C 0.61587 0.66383 0.44142 0.0
C262 C 0.60874 0.58575 0.47178 0.0
Tb263 Tb 0.6651 0.71387 0.3419 0.0
N264 N 0.70514 0.66539 0.3384 0.0
C265 C 0.73734 0.66864 0.30415 0.0
C266 C 0.73876 0.59378 0.33208 0.0
C267 C 0.75524 0.63371 0.30084 0.0
H268 H 0.60525 0.69304 0.44466 0.0
H269 H 0.78076 0.63694 0.27346 0.0
H270 H 0.69577 0.51911 0.39543 0.0
H271 H 0.57373 0.62606 0.502 0.0
H272 H 0.74906 0.6974 0.27867 0.0
H273 H 0.70779 0.92732 0.4675 0.0
H274 H 0.75157 0.5659 0.32881 0.0
H275 H 0.72801 0.86945 0.20526 0.0
H276 H 0.71637 0.86236 0.42416 0.0
H277 H 0.70335 0.92287 0.16067 0.0
H278 H 0.6361 0.51394 0.45503 0.0
H279 H 0.6933 0.9914 0.42779 0.0
H280 H 0.67598 0.02312 0.35476 0.0
H281 H 0.59342 0.55544 0.497 0.0
H282 H 0.6695 1.0182 0.27183 0.0
N283 N 0.70945 0.89007 0.35975 0.0
C284 C 0.71141 0.8905 0.40601 0.0
C285 C 0.69662 0.96251 0.40838 0.0
C286 C 0.6915 0.96006 0.36123 0.0
C287 C 0.70546 0.92684 0.43091 0.0
C288 C 0.69827 0.92298 0.33752 0.0
H289 H 0.67792 0.9799 0.19931 0.0
N290 N 0.70673 0.88748 0.2689 0.0
C291 C 0.70003 0.92199 0.19718 0.0
C292 C 0.69576 0.92085 0.29068 0.0
C293 C 0.71246 0.89045 0.22272 0.0
C294 C 0.68597 0.95429 0.21911 0.0
C295 C 0.68547 0.95536 0.2664 0.0
O296 O 0.80449 0.89446 0.27722 0.0
O297 O 0.74607 0.78094 0.32787 0.0
O298 O 0.70909 0.73949 0.40298 0.0
O299 O 0.75946 0.82728 0.38487 0.0
O300 O 0.78199 0.82599 0.27166 0.0
O301 O 0.79375 0.91973 0.34212 0.0
O302 O 0.58433 0.68142 0.3338 0.0
O303 O 0.66359 0.78493 0.32966 0.0
O304 O 0.68497 0.79866 0.25552 0.0
O305 O 0.68311 0.72322 0.27104 0.0
O306 O 0.61866 0.73949 0.38013 0.0
O307 O 0.6232 0.64677 0.30182 0.0
C308 C 0.78052 0.79038 0.29706 0.0
C309 C 0.83865 0.98541 0.28474 0.0
C310 C 0.89036 0.08111 0.28804 0.0
C311 C 0.86439 0.03208 0.31026 0.0
C312 C 0.88497 0.08196 0.24075 0.0
C313 C 0.83521 0.98914 0.2375 0.0
C314 C 0.85694 0.03674 0.21609 0.0
C315 C 0.74664 0.78619 0.41268 0.0
C316 C 0.82131 0.93319 0.30523 0.0
C317 C 0.67731 0.99138 0.28994 0.0
C318 C 0.681 0.99418 0.33717 0.0
C319 C 0.63246 0.78212 0.35992 0.0
C320 C 0.53678 0.59089 0.32834 0.0
C321 C 0.48441 0.57889 0.32921 0.0
C322 C 0.44567 0.53206 0.34855 0.0
C323 C 0.46065 0.49932 0.36901 0.0
C324 C 0.54912 0.55471 0.3456 0.0
C325 C 0.5116 0.50996 0.36668 0.0
C326 C 0.67317 0.75073 0.24276 0.0
C327 C 0.5784 0.64175 0.31144 0.0
H328 H 0.86624 0.03 0.34675 0.0
H329 H 0.90386 0.11804 0.22231 0.0
H330 H 0.81712 0.95514 0.21635 0.0
H331 H 0.85396 0.03853 0.17968 0.0
H332 H 0.47385 0.60571 0.31508 0.0
H333 H 0.43264 0.46518 0.38675 0.0
H334 H 0.58796 0.5612 0.34354 0.0
H335 H 0.52213 0.48344 0.38146 0.0
Tb336 Tb 0.22527 0.90239 0.32064 0.0
C337 C 0.42996 0.04114 0.41714 0.0
C338 C 0.4882 0.11777 0.37463 0.0
C339 C 0.49948 0.11495 0.45572 0.0
C340 C 0.44522 0.06729 0.37611 0.0
C341 C 0.45716 0.06468 0.45723 0.0
C342 C 0.5145 0.14171 0.41472 0.0
C343 C 0.40295 0.98484 0.49675 0.0
N344 N 0.39031 0.9915 0.41729 0.0
C345 C 0.37821 0.96246 0.45606 0.0
C346 C 0.44252 0.03627 0.49739 0.0
Tb347 Tb 0.35719 0.95795 0.34742 0.0
N348 N 0.42089 0.04197 0.33742 0.0
C349 C 0.44108 0.06371 0.29625 0.0
C350 C 0.50564 0.14161 0.33261 0.0
C351 C 0.4825 0.11412 0.29324 0.0
H352 H 0.34833 0.92241 0.45541 0.0
H353 H 0.49707 0.1314 0.26044 0.0
H354 H 0.54788 0.18018 0.41408 0.0
H355 H 0.3918 0.96198 0.5273 0.0
H356 H 0.42548 0.04285 0.26512 0.0
H357 H 0.17306 0.84002 0.49404 0.0
H358 H 0.53842 0.18031 0.33013 0.0
H359 H 0.20505 0.83044 0.22349 0.0
H360 H 0.22974 0.89827 0.43537 0.0
H361 H 0.1507 0.74143 0.20123 0.0
H362 H 0.52208 0.13279 0.48577 0.0
H363 H 0.10269 0.75292 0.47338 0.0
H364 H 0.05677 0.68644 0.41304 0.0
H365 H 0.46257 0.05354 0.52869 0.0
H366 H 0.05356 0.65857 0.33419 0.0
N367 N 0.19124 0.84692 0.38069 0.0
C368 C 0.19873 0.86149 0.42517 0.0
C369 C 0.1275 0.77879 0.44721 0.0
C370 C 0.12168 0.76306 0.402 0.0
C371 C 0.167 0.82791 0.45896 0.0
C372 C 0.1552 0.79811 0.36929 0.0
H373 H 0.09083 0.67752 0.25619 0.0
N374 N 0.18609 0.81807 0.29439 0.0
C375 C 0.15154 0.75234 0.23629 0.0
C376 C 0.1533 0.78277 0.32489 0.0
C377 C 0.18447 0.80326 0.24996 0.0
C378 C 0.11749 0.71648 0.26729 0.0
C379 C 0.11761 0.73157 0.31202 0.0
O380 O 0.1682 0.89473 0.27435 0.0
O381 O 0.29596 0.97635 0.32309 0.0
O382 O 0.32689 0.98635 0.40053 0.0
O383 O 0.24313 0.96225 0.37699 0.0
O384 O 0.25375 0.95909 0.26682 0.0
O385 O 0.15763 0.90263 0.34424 0.0
O386 O 0.39042 0.91733 0.37671 0.0
O387 O 0.2797 0.88898 0.35508 0.0
O388 O 0.27143 0.89229 0.26438 0.0
O389 O 0.35424 0.96049 0.27486 0.0
O390 O 0.33817 0.87729 0.33871 0.0
O391 O 0.42524 0.96653 0.31792 0.0
C392 C 0.28916 0.99824 0.288 0.0
C393 C 0.08045 0.84833 0.30013 0.0
C394 C 0.98523 0.80671 0.30801 0.0
C395 C 0.03582 0.85054 0.31413 0.0
C396 C 0.9807 0.76037 0.29262 0.0
C397 C 0.07158 0.8038 0.27689 0.0
C398 C 1.0234 0.75946 0.27579 0.0
C399 C 0.284 0.98827 0.40519 0.0
C400 C 0.13557 0.89259 0.30462 0.0
C401 C 0.08211 0.69752 0.3438 0.0
C402 C 0.08382 0.71343 0.38864 0.0
C403 C 0.29002 0.85376 0.34575 0.0
C404 C 0.47825 0.94393 0.36239 0.0
C405 C 0.49151 0.90501 0.35746 0.0
C406 C 0.53892 0.91232 0.3743 0.0
C407 C 0.57158 0.95828 0.3975 0.0
C408 C 0.51278 0.99023 0.38387 0.0
C409 C 0.55901 0.99711 0.40167 0.0
C410 C 0.32027 0.92228 0.25004 0.0
C411 C 0.42733 0.93412 0.34656 0.0
H412 H 0.04008 0.88635 0.32687 0.0
H413 H 0.943 0.72632 0.2885 0.0
H414 H 0.1016 0.80349 0.2579 0.0
H415 H 1.01864 0.72507 0.25929 0.0
H416 H 0.46499 0.86908 0.34079 0.0
H417 H 0.60678 0.96404 0.41278 0.0
H418 H 0.50396 0.02077 0.38746 0.0
H419 H 0.58504 0.03255 0.41913 0.0
Tb420 Tb 0.16703 0.32477 0.31729 0.0
C421 C 0.0467 0.41246 0.42429 0.0
C422 C 0.95813 0.35953 0.40006 0.0
C423 C 0.9768 0.40798 0.47004 0.0
C424 C 1.01152 0.37877 0.3935 0.0
C425 C 1.02984 0.4301 0.46132 0.0
C426 C 0.94088 0.37204 0.43972 0.0
C427 C 0.11871 0.49259 0.47659 0.0
N428 N 0.0977 0.43259 0.41477 0.0
C429 C 0.13366 0.47293 0.44034 0.0
C430 C 0.06658 0.47131 0.48702 0.0
Tb431 Tb 0.11802 0.40735 0.34725 0.0
N432 N 1.03006 0.37131 0.354 0.0
C433 C 0.99779 0.35208 0.31774 0.0
C434 C 0.9242 0.33267 0.36469 0.0
C435 C 0.94437 0.33073 0.32272 0.0
H436 H 0.17415 0.49227 0.43241 0.0
H437 H 0.91902 0.3147 0.29377 0.0
H438 H 0.90005 0.35709 0.44557 0.0
H439 H 0.14753 0.52472 0.49612 0.0
H440 H 1.01345 0.35614 0.28442 0.0
H441 H 0.2831 0.35762 0.46927 0.0
H442 H 0.88301 0.31749 0.36818 0.0
H443 H 0.20115 0.33903 0.20617 0.0
H444 H 0.207 0.34352 0.42869 0.0
H445 H 0.27889 0.36507 0.16203 0.0
H446 H 0.96321 0.42002 0.49904 0.0
H447 H 0.3615 0.37411 0.42794 0.0
H448 H 0.40579 0.38325 0.35421 0.0
H449 H 0.05514 0.4868 0.515 0.0
H450 H 0.40625 0.39015 0.27161 0.0
N451 N 0.23952 0.35183 0.36227 0.0
C452 C 0.23972 0.35048 0.40875 0.0
C453 C 0.32777 0.36822 0.40924 0.0
C454 C 0.32811 0.3703 0.36204 0.0
C455 C 0.28358 0.35879 0.43263 0.0
C456 C 0.28327 0.36269 0.33915 0.0
H457 H 0.36035 0.38597 0.20025 0.0
N458 N 0.23887 0.35611 0.27086 0.0
C459 C 0.28103 0.36645 0.19863 0.0
C460 C 0.28306 0.3654 0.29224 0.0
C461 C 0.23706 0.3537 0.22431 0.0
C462 C 0.3267 0.37768 0.22028 0.0
C463 C 0.32783 0.3759 0.26744 0.0
O464 O 0.14871 0.25951 0.27712 0.0
O465 O 0.09525 0.32339 0.33407 0.0
O466 O 0.1045 0.36583 0.40911 0.0
O467 O 0.13167 0.30727 0.38988 0.0
O468 O 0.09548 0.28203 0.2793 0.0
O469 O 0.18368 0.26738 0.34197 0.0
O470 O 0.1682 0.48771 0.34019 0.0
O471 O 0.18659 0.40253 0.3277 0.0
O472 O 0.16781 0.37259 0.25738 0.0
O473 O 0.10409 0.39179 0.27535 0.0
O474 O 0.19471 0.44975 0.37935 0.0
O475 O 0.09211 0.45186 0.3123 0.0
C476 C 0.06461 0.28894 0.30504 0.0
C477 C 0.20429 0.22289 0.28417 0.0
C478 C 0.24651 0.16919 0.28497 0.0
C479 C 0.21792 0.1894 0.30742 0.0
C480 C 0.26348 0.18567 0.24055 0.0
C481 C 0.21993 0.23516 0.23884 0.0
C482 C 0.2504 0.2182 0.21791 0.0
C483 C 0.11078 0.32663 0.41933 0.0
C484 C 0.16961 0.24088 0.30451 0.0
C485 C 0.37195 0.38274 0.29019 0.0
C486 C 0.37176 0.37906 0.33725 0.0
C487 C 0.2197 0.4343 0.35512 0.0
C488 C 0.12665 0.53699 0.34314 0.0
C489 C 0.16735 0.58902 0.34255 0.0
C490 C 0.16093 0.62866 0.36237 0.0
C491 C 0.1149 0.6142 0.38605 0.0
C492 C 0.08016 0.52497 0.36476 0.0
C493 C 0.07489 0.56313 0.38689 0.0
C494 C 0.13577 0.38989 0.24578 0.0
C495 C 0.13327 0.4955 0.32214 0.0
H496 H 0.20473 0.17767 0.3418 0.0
H497 H 0.28525 0.17136 0.22236 0.0
H498 H 0.20731 0.25668 0.21857 0.0
H499 H 0.26236 0.2288 0.18312 0.0
H500 H 0.20329 0.59884 0.32565 0.0
H501 H 0.10982 0.64261 0.40411 0.0
H502 H 0.04799 0.48593 0.36518 0.0
H503 H 0.03943 0.55309 0.40465 0.0
Tb504 Tb 0.40738 0.19559 0.65144 0.0
C505 C 0.3475 0.98442 0.73231 0.0
C506 C 0.40359 0.96101 0.69294 0.0
C507 C 0.37101 0.92563 0.76743 0.0
C508 C 0.37623 0.98807 0.69474 0.0
C509 C 0.34305 0.95182 0.76841 0.0
C510 C 0.40162 0.93057 0.72985 0.0
C511 C 0.28053 0.97013 0.80224 0.0
N512 N 0.3219 1.01121 0.73247 0.0
C513 C 0.2868 1.00265 0.7659 0.0
C514 C 0.30913 0.94492 0.80354 0.0
Tb515 Tb 0.32962 0.05858 0.66893 0.0
N516 N 0.37651 1.01735 0.65958 0.0
C517 C 0.4015 1.01876 0.62038 0.0
C518 C 0.43168 0.96497 0.65399 0.0
C519 C 0.43051 0.99382 0.61755 0.0
H520 H 0.26332 0.02062 0.76465 0.0
H521 H 0.45249 0.99704 0.58752 0.0
H522 H 0.42268 0.90983 0.72922 0.0
H523 H 0.25308 0.96393 0.82878 0.0
H524 H 0.40117 0.04082 0.59171 0.0
H525 H 0.36351 0.25279 0.81526 0.0
H526 H 0.45388 0.94549 0.65148 0.0
H527 H 0.3746 0.21736 0.54483 0.0
H528 H 0.37449 0.19506 0.76657 0.0
H529 H 0.34963 0.27433 0.51101 0.0
H530 H 0.36857 0.90089 0.79521 0.0
H531 H 0.35714 0.32544 0.78356 0.0
H532 H 0.35356 0.37269 0.71567 0.0
H533 H 0.30351 0.91848 0.83059 0.0
H534 H 0.34564 0.37595 0.63332 0.0
N535 N 0.37831 0.23391 0.70414 0.0
C536 C 0.37391 0.22649 0.75029 0.0
C537 C 0.36266 0.29997 0.7611 0.0
C538 C 0.36367 0.30595 0.71428 0.0
C539 C 0.36643 0.25922 0.77905 0.0
C540 C 0.37034 0.27129 0.68636 0.0
H541 H 0.34135 0.338 0.55752 0.0
N542 N 0.37167 0.23882 0.61412 0.0
C543 C 0.35352 0.27414 0.54745 0.0
C544 C 0.3665 0.27352 0.63995 0.0
C545 C 0.36587 0.23964 0.56788 0.0
C546 C 0.34953 0.31038 0.57366 0.0
C547 C 0.35615 0.31059 0.62037 0.0
O548 O 0.46218 0.23738 0.60023 0.0
O549 O 0.40495 0.12144 0.64187 0.0
O550 O 0.37507 0.08634 0.73017 0.0
O551 O 0.4235 0.17681 0.7222 0.0
O552 O 0.46997 0.18261 0.66878 0.0
O553 O 0.47016 0.27021 0.66604 0.0
O554 O 0.24811 0.02401 0.66728 0.0
O555 O 0.33154 0.13233 0.65974 0.0
O556 O 0.36825 0.15239 0.58579 0.0
O557 O 0.33572 0.06463 0.59666 0.0
O558 O 0.28186 0.08387 0.70602 0.0
O559 O 0.28468 0.98706 0.6354 0.0
C560 C 0.45116 0.1357 0.6559 0.0
C561 C 0.50368 0.33086 0.60464 0.0
C562 C 0.55344 0.42707 0.60453 0.0
C563 C 0.54085 0.37883 0.62507 0.0
C564 C 0.52591 0.42598 0.56555 0.0
C565 C 0.48295 0.33302 0.56259 0.0
C566 C 0.49205 0.37966 0.54441 0.0
C567 C 0.40873 0.13263 0.74523 0.0
C568 C 0.48839 0.27876 0.62503 0.0
C569 C 0.35261 0.34679 0.64789 0.0
C570 C 0.3571 0.3449 0.69473 0.0
C571 C 0.29741 0.12795 0.68751 0.0
C572 C 0.20103 0.93303 0.66854 0.0
C573 C 0.1478 0.91826 0.66841 0.0
C574 C 0.11043 0.87186 0.68963 0.0
C575 C 0.12767 0.84197 0.71212 0.0
C576 C 0.21607 0.90081 0.68999 0.0
C577 C 0.17976 0.85606 0.71197 0.0
C578 C 0.34384 0.10323 0.5706 0.0
C579 C 0.24066 0.98242 0.64746 0.0
H580 H 0.56097 0.37857 0.65547 0.0
H581 H 0.53375 0.46161 0.5493 0.0
H582 H 0.45998 0.29855 0.54303 0.0
H583 H 0.47405 0.38001 0.5127 0.0
H584 H 0.13547 0.9425 0.65175 0.0
H585 H 0.10065 0.80759 0.73015 0.0
H586 H 0.25606 0.91037 0.69025 0.0
H587 H 0.19211 0.83215 0.72914 0.0
Tb588 Tb 0.88151 0.23855 0.64321 0.0
C589 C 0.0799 0.38331 0.755 0.0
C590 C 0.14025 0.45827 0.71259 0.0
C591 C 0.13989 0.46216 0.79462 0.0
C592 C 0.0988 0.40691 0.71406 0.0
C593 C 0.10096 0.41018 0.79585 0.0
C594 C 0.1593 0.48632 0.75296 0.0
C595 C 0.04686 0.33133 0.83602 0.0
N596 N 0.0426 0.33282 0.75469 0.0
C597 C 1.02715 0.3062 0.79479 0.0
C598 C 0.08334 0.38366 0.83668 0.0
Tb599 Tb 1.01143 0.29461 0.6848 0.0
N600 N 0.08097 0.37754 0.6761 0.0
C601 C 0.10876 0.39571 0.63681 0.0
C602 C 0.16377 0.47871 0.67103 0.0
C603 C 0.14892 0.44674 0.63321 0.0
H604 H 0.99827 0.26593 0.79551 0.0
H605 H 0.1691 0.46104 0.60143 0.0
H606 H 0.19066 0.52592 0.75241 0.0
H607 H 0.03404 0.31021 0.86726 0.0
H608 H 0.10081 0.37146 0.60774 0.0
H609 H 0.77805 0.11296 0.78321 0.0
H610 H 0.19561 0.51792 0.66841 0.0
H611 H 0.87558 0.21405 0.53042 0.0
H612 H 0.84542 0.19225 0.74882 0.0
H613 H 0.8362 0.13862 0.48062 0.0
H614 H 0.15608 0.48358 0.82566 0.0
H615 H 0.72723 0.03575 0.73608 0.0
H616 H 0.71182 0.99289 0.66032 0.0
H617 H 0.09845 0.40299 0.86871 0.0
H618 H 0.73157 0.99875 0.57921 0.0
N619 N 0.83261 0.16259 0.68167 0.0
C620 C 0.82331 0.1599 0.72725 0.0
C621 C 0.75718 0.07074 0.72057 0.0
C622 C 0.7682 0.07267 0.67439 0.0
C623 C 0.78537 0.11436 0.7472 0.0
C624 C 0.8064 0.11982 0.65557 0.0
H625 H 0.77905 0.05219 0.5124 0.0
N626 N 0.85065 0.17054 0.5921 0.0
C627 C 0.83115 0.13357 0.5169 0.0
C628 C 0.81675 0.12358 0.60963 0.0
C629 C 0.85484 0.1762 0.54571 0.0
C630 C 0.79876 0.08497 0.53493 0.0
C631 C 0.78967 0.07977 0.58151 0.0
O632 O 0.83464 0.25452 0.60028 0.0
O633 O 0.94936 0.31124 0.65943 0.0
O634 O 0.97946 0.32837 0.72866 0.0
O635 O 0.89148 0.27331 0.71651 0.0
O636 O 0.91011 0.30797 0.60239 0.0
O637 O 0.80718 0.22294 0.66591 0.0
O638 O 0.04523 0.25312 0.71116 0.0
O639 O 0.94021 0.22374 0.6666 0.0
O640 O 0.9355 0.23749 0.58966 0.0
O641 O 1.01395 0.30503 0.6127 0.0
O642 O 0.97479 0.22299 0.7249 0.0
O643 O 0.06693 0.28755 0.64552 0.0
C644 C 0.94638 0.34044 0.62857 0.0
C645 C 0.74268 0.19738 0.60701 0.0
C646 C 0.64683 0.15366 0.60494 0.0
C647 C 0.69492 0.18784 0.62649 0.0
C648 C 0.64726 0.12772 0.56557 0.0
C649 C 0.74046 0.17336 0.56553 0.0
C650 C 0.69362 0.13785 0.54593 0.0
C651 C 0.93134 0.31046 0.74122 0.0
C652 C 0.79474 0.23466 0.62727 0.0
C653 C 0.75271 0.03258 0.60034 0.0
C654 C 0.7415 0.02923 0.64653 0.0
C655 C 0.93714 0.19447 0.69867 0.0
C656 C 0.12906 0.27655 0.68736 0.0
C657 C 0.14686 0.24125 0.68089 0.0
C658 C 0.19641 0.25313 0.69622 0.0
C659 C 0.22724 0.30016 0.71851 0.0
C660 C 0.1615 0.32388 0.70853 0.0
C661 C 0.21028 0.33557 0.72393 0.0
C662 C 0.98507 0.27192 0.58142 0.0
C663 C 0.07503 0.26147 0.67645 0.0
H664 H 0.69519 0.20795 0.65706 0.0
H665 H 0.6114 0.10128 0.54869 0.0
H666 H 0.77493 0.18304 0.54708 0.0
H667 H 0.69331 0.1193 0.51436 0.0
H668 H 0.12183 0.20419 0.66524 0.0
H669 H 0.26395 0.30887 0.73282 0.0
H670 H 0.1486 0.35114 0.7145 0.0
H671 H 0.23453 0.37169 0.7412 0.0
Tb672 Tb 0.83096 0.66376 0.65206 0.0
C673 C 0.69542 0.74143 0.74209 0.0
C674 C 0.61415 0.69547 0.70197 0.0
C675 C 0.61732 0.73302 0.77561 0.0
C676 C 0.66788 0.71465 0.70433 0.0
C677 C 0.67084 0.75271 0.77739 0.0
C678 C 0.58885 0.70376 0.73829 0.0
C679 C 0.75445 0.80567 0.81161 0.0
N680 N 0.74714 0.75996 0.7425 0.0
C681 C 0.777 0.79296 0.7761 0.0
C682 C 0.7011 0.78534 0.81236 0.0
Tb683 Tb 0.78203 0.7464 0.67854 0.0
N684 N 0.69427 0.7102 0.66883 0.0
C685 C 0.66888 0.68851 0.62914 0.0
C686 C 0.58779 0.67041 0.66246 0.0
C687 C 0.6154 0.66731 0.62577 0.0
H688 H 0.81839 0.80996 0.77575 0.0
H689 H 0.59564 0.64927 0.59453 0.0
H690 H 0.54766 0.68946 0.73704 0.0
H691 H 0.77832 0.83138 0.83826 0.0
H692 H 0.68909 0.68693 0.59959 0.0
H693 H 0.91632 0.68108 0.81927 0.0
H694 H 0.5465 0.65485 0.65942 0.0
H695 H 0.88641 0.69009 0.54804 0.0
H696 H 0.84962 0.67169 0.76797 0.0
H697 H 0.97041 0.71555 0.51589 0.0
H698 H 0.59787 0.74148 0.80227 0.0
H699 H 1.00119 0.69963 0.79025 0.0
H700 H 0.05875 0.71458 0.72434 0.0
H701 H 0.68373 0.79533 0.83987 0.0
H702 H 0.07449 0.72708 0.64263 0.0
N703 N 0.89364 0.68447 0.70722 0.0
C704 C 0.88522 0.67951 0.75308 0.0
C705 C 0.97157 0.6957 0.76677 0.0
C706 C 0.98075 0.70145 0.72027 0.0
C707 C 0.92374 0.68511 0.78321 0.0
C708 C 0.94096 0.69628 0.69099 0.0
H709 H 0.04253 0.72886 0.56527 0.0
N710 N 0.91066 0.69742 0.61736 0.0
C711 C 0.96552 0.71314 0.55228 0.0
C712 C 0.94971 0.70303 0.64479 0.0
C713 C 0.91784 0.70043 0.57126 0.0
C714 C 1.00591 0.72009 0.58018 0.0
C715 C 0.99822 0.71442 0.62689 0.0
O716 O 0.81273 0.60278 0.60692 0.0
O717 O 0.75864 0.66388 0.66223 0.0
O718 O 0.76158 0.6986 0.73842 0.0
O719 O 0.78206 0.63522 0.71754 0.0
O720 O 0.76783 0.62929 0.60607 0.0
O721 O 0.84144 0.60109 0.67258 0.0
O722 O 0.83063 0.82723 0.68448 0.0
O723 O 0.85118 0.74143 0.66311 0.0
O724 O 0.83991 0.71523 0.59201 0.0
O725 O 0.77928 0.74012 0.60585 0.0
O726 O 0.8566 0.78713 0.71526 0.0
O727 O 0.76461 0.79597 0.64107 0.0
C728 C 0.73377 0.63468 0.62829 0.0
C729 C 0.86761 0.56599 0.61039 0.0
C730 C 0.91516 0.51766 0.60743 0.0
C731 C 0.88441 0.53413 0.63161 0.0
C732 C 0.93131 0.5363 0.56342 0.0
C733 C 0.88258 0.58071 0.56513 0.0
C734 C 0.9153 0.56756 0.54265 0.0
C735 C 0.76162 0.6552 0.74694 0.0
C736 C 0.83071 0.58007 0.63252 0.0
C737 C 0.03729 0.71871 0.65588 0.0
C738 C 1.02837 0.71171 0.70239 0.0
C739 C 0.88285 0.77211 0.69198 0.0
C740 C 0.79071 0.87788 0.67595 0.0
C741 C 0.8296 0.9308 0.67719 0.0
C742 C 0.81856 0.9686 0.69421 0.0
C743 C 0.76892 0.95198 0.71152 0.0
C744 C 0.74106 0.86356 0.69167 0.0
C745 C 0.73056 0.90024 0.70985 0.0
C746 C 0.81145 0.73614 0.57848 0.0
C747 C 0.8022 0.83794 0.65874 0.0
H748 H 0.87123 0.51975 0.66549 0.0
H749 H 0.95437 0.52441 0.54406 0.0
H750 H 0.86811 0.60166 0.54617 0.0
H751 H 0.92664 0.58003 0.50807 0.0
H752 H 0.86803 0.94251 0.66482 0.0
H753 H 0.75973 0.97926 0.72646 0.0
H754 H 0.71025 0.82394 0.69014 0.0
H755 H 0.69235 0.88849 0.72272 0.0
C756 C 0.19989 0.40639 0.96428 0.0
C757 C 0.24405 0.4567 0.95963 0.0
C758 C 0.18639 0.491 0.97569 0.0
C759 C 0.14028 0.44147 0.971 0.0
N760 N 0.10843 0.35349 0.94917 0.0
N761 N 0.27299 0.54699 0.94861 0.0
C762 C 0.14865 0.39942 0.96241 0.0
C763 C 0.23557 0.499 0.96201 0.0
N764 N 0.20662 0.36497 0.97006 0.0
N765 N 0.1843 0.53111 0.99441 0.0
H766 H 0.30847 0.55485 0.93541 0.0
H767 H 0.26621 0.5778 0.94565 0.0
H768 H 0.15057 0.5262 0.00765 0.0
H769 H 0.21696 0.56633 0.00219 0.0
H770 H 0.17602 0.3281 0.97687 0.0
H771 H 0.24321 0.36885 0.97284 0.0
H772 H 0.11245 0.3224 0.93887 0.0
H773 H 0.07278 0.34999 0.94291 0.0
C774 C 0.54088 0.74873 0.93677 0.0
C775 C 0.56628 0.79059 0.96672 0.0
C776 C 0.61417 0.74914 0.99713 0.0
C777 C 0.59293 0.71016 0.9626 0.0
N778 N 0.55459 0.69417 0.88679 0.0
N779 N 0.63363 0.83517 0.02143 0.0
C780 C 0.56184 0.71632 0.92865 0.0
C781 C 0.60511 0.79222 0.99568 0.0
N782 N 0.49799 0.74127 0.91384 0.0
N783 N 0.64271 0.74565 0.03125 0.0
H784 H 0.62568 0.86534 0.02268 0.0
H785 H 0.66653 0.84214 0.0393 0.0
H786 H 0.64792 0.71433 0.03459 0.0
H787 H 0.65747 0.77137 0.05824 0.0
H788 H 0.47569 0.70852 0.89419 0.0
H789 H 0.4818 0.76475 0.91843 0.0
H790 H 0.53464 0.70047 0.86094 0.0
H791 H 0.57388 0.67554 0.87542 0.0
C792 C 0.27776 0.87607 0.94018 0.0
C793 C 0.31981 0.89351 0.97137 0.0
C794 C 0.2747 0.80541 0.00452 0.0
C795 C 0.24093 0.78624 0.96743 0.0
N796 N 0.20584 0.80363 0.90145 0.0
N797 N 0.36237 0.86382 0.02287 0.0
C798 C 0.24019 0.82209 0.93652 0.0
C799 C 0.31873 0.85551 0.00172 0.0
N800 N 0.27532 0.91051 0.91187 0.0
N801 N 0.26779 0.77406 0.04045 0.0
H802 H 0.39723 0.8926 0.01144 0.0
H803 H 0.36485 0.8369 0.04347 0.0
H804 H 0.23652 0.73659 0.04233 0.0
H805 H 0.28969 0.78748 0.07001 0.0
H806 H 0.24217 0.90267 0.89395 0.0
H807 H 0.3067 0.94715 0.9067 0.0
H808 H 0.20673 0.82581 0.87397 0.0
H809 H 0.17709 0.76489 0.89956 0.0
C810 C 0.55619 0.3787 0.98498 0.0
C811 C 0.53647 0.35067 0.02567 0.0
C812 C 0.55148 0.4294 0.06458 0.0
C813 C 0.57181 0.45837 0.02395 0.0
N814 N 0.60622 0.46191 0.94909 0.0
N815 N 0.50283 0.34549 0.1003 0.0
C816 C 0.57687 0.43328 0.98476 0.0
C817 C 0.53047 0.37506 0.06427 0.0
N818 N 0.55484 0.35295 0.94635 0.0
N819 N 0.55398 0.45407 0.10419 0.0
H820 H 0.48622 0.30546 0.10049 0.0
H821 H 0.49163 0.35953 0.12769 0.0
H822 H 0.56685 0.49322 0.106 0.0
H823 H 0.54637 0.43649 0.13583 0.0
H824 H 0.56246 0.36955 0.91429 0.0
H825 H 0.5412 0.31342 0.94579 0.0
H826 H 0.61666 0.44662 0.92217 0.0
H827 H 0.62527 0.5019 0.94831 0.0
C828 C 0.60432 0.11843 0.0781 0.0
C829 C 0.57799 0.11273 0.03627 0.0
C830 C 0.66272 0.16185 0.99819 0.0
C831 C 0.68864 0.16778 0.03992 0.0
N832 N 0.68382 0.16548 0.12123 0.0
N833 N 0.58507 0.14699 0.96059 0.0
C834 C 0.65921 0.15055 0.08039 0.0
C835 C 0.608 0.14008 0.99764 0.0
N836 N 0.57758 0.09045 0.11513 0.0
N837 N 0.68961 0.17397 0.95838 0.0
H838 H 0.54584 0.133 0.95836 0.0
H839 H 0.60578 0.17172 0.93412 0.0
H840 H 0.72925 0.18818 0.95654 0.0
H841 H 0.67177 0.16498 0.92674 0.0
H842 H 0.5955 0.08837 0.14466 0.0
H843 H 0.53785 0.06521 0.11517 0.0
H844 H 0.66433 0.15856 0.15194 0.0
H845 H 0.72371 0.18964 0.12394 0.0
C846 C 0.89422 0.47908 0.98517 0.0
C847 C 0.9102 0.46803 0.02723 0.0
C848 C 0.86475 0.50802 0.06556 0.0
C849 C 0.85915 0.52798 0.02363 0.0
N850 N 0.8726 0.53509 0.94292 0.0
N851 N 0.90626 0.47026 0.10916 0.0
C852 C 0.87477 0.51398 0.98327 0.0
C853 C 0.89354 0.48141 0.06793 0.0
N854 N 0.8941 0.45343 0.94713 0.0
N855 N 0.84118 0.51345 0.10312 0.0
H856 H 0.92512 0.44937 0.11344 0.0
H857 H 0.90157 0.48504 0.13955 0.0
H858 H 0.81954 0.53203 0.10222 0.0
H859 H 0.83855 0.4954 0.13389 0.0
H860 H 0.87899 0.45627 0.91619 0.0
H861 H 0.90214 0.42369 0.94855 0.0
H862 H 0.88812 0.53016 0.91304 0.0
H863 H 0.85899 0.56087 0.93978 0.0
C864 C 0.85788 0.78925 0.26305 0.0
C865 C 0.83348 0.79456 0.30246 0.0
C866 C 0.91185 0.81354 0.34602 0.0
C867 C 0.93618 0.8092 0.30667 0.0
N868 N 0.93802 0.8097 0.22518 0.0
N869 N 0.85951 0.84888 0.36881 0.0
C870 C 0.91072 0.80184 0.26439 0.0
C871 C 0.86581 0.81621 0.34137 0.0
N872 N 0.83143 0.77402 0.22332 0.0
N873 N 0.93339 0.81768 0.38757 0.0
H874 H 0.84046 0.86726 0.35647 0.0
H875 H 0.88297 0.86673 0.39687 0.0
H876 H 0.96795 0.81752 0.39198 0.0
H877 H 0.91457 0.81777 0.41731 0.0
H878 H 0.84421 0.76143 0.19634 0.0
H879 H 0.79642 0.77247 0.21773 0.0
H880 H 0.92374 0.81077 0.1933 0.0
H881 H 0.9772 0.82108 0.2248 0.0
C882 C 0.2159 0.07554 0.29965 0.0
C883 C 0.25614 0.12715 0.30296 0.0
C884 C 0.31883 0.09597 0.29621 0.0
C885 C 0.27835 0.04398 0.29103 0.0
N886 N 0.19156 0.99871 0.25826 0.0
N887 N 0.34618 0.18541 0.31509 0.0
C888 C 0.22715 0.03672 0.28554 0.0
C889 C 0.3077 0.1367 0.30508 0.0
N890 N 0.16604 0.06358 0.30669 0.0
N891 N 0.3675 0.10752 0.28521 0.0
H892 H 0.3384 0.21517 0.32145 0.0
H893 H 0.38421 0.19494 0.32139 0.0
H894 H 0.37306 0.08022 0.26853 0.0
H895 H 0.39936 0.14458 0.28494 0.0
H896 H 0.1357 0.02557 0.30826 0.0
H897 H 0.15606 0.09097 0.31604 0.0
H898 H 0.15482 0.99342 0.25245 0.0
H899 H 0.20158 0.98102 0.23317 0.0
C900 C 1.01676 0.19352 0.33297 0.0
C901 C 1.01439 0.23732 0.31549 0.0
C902 C 0.92181 0.17599 0.29928 0.0
C903 C 0.9268 0.13267 0.31043 0.0
N904 N 0.9772 0.10217 0.34935 0.0
N905 N 0.96607 0.25843 0.26333 0.0
C906 C 0.97337 0.14211 0.33124 0.0
C907 C 0.96676 0.22573 0.29469 0.0
N908 N 0.06299 0.19955 0.34533 0.0
N909 N 0.87398 0.16895 0.29022 0.0
H910 H 1.0001 0.28884 0.25045 0.0
H911 H 0.93294 0.25038 0.24525 0.0
H912 H 0.84073 0.1328 0.29295 0.0
H913 H 0.86744 0.19966 0.28499 0.0
H914 H 0.0713 0.16992 0.34924 0.0
H915 H 0.09415 0.23542 0.34946 0.0
H916 H 1.00536 0.10721 0.37283 0.0
H917 H 0.95075 0.0636 0.34388 0.0
C918 C 0.24508 0.77206 0.39396 0.0
C919 C 0.25921 0.79565 0.35054 0.0
C920 C 0.21734 0.70923 0.31511 0.0
C921 C 0.20057 0.68551 0.35824 0.0
N922 N 0.21274 0.69376 0.43898 0.0
N923 N 0.27706 0.78481 0.27272 0.0
C924 C 0.21863 0.71692 0.39782 0.0
C925 C 0.25161 0.76357 0.31222 0.0
N926 N 0.25831 0.80243 0.43166 0.0
N927 N 0.198 0.68082 0.27641 0.0
H928 H 0.30072 0.82418 0.26825 0.0
H929 H 0.27822 0.76309 0.24567 0.0
H930 H 0.16934 0.6422 0.27614 0.0
H931 H 0.206 0.69673 0.24408 0.0
H932 H 0.24451 0.78867 0.46398 0.0
H933 H 0.28141 0.84237 0.43026 0.0
H934 H 0.22813 0.71359 0.46909 0.0
H935 H 0.19653 0.65398 0.44246 0.0
C936 C 0.30858 0.48075 0.39286 0.0
C937 C 0.27846 0.46392 0.35224 0.0
C938 C 0.35959 0.49954 0.30812 0.0
C939 C 0.38911 0.51582 0.34859 0.0
N940 N 0.39245 0.53531 0.42779 0.0
N941 N 0.27846 0.47588 0.27137 0.0
C942 C 0.36367 0.51063 0.3904 0.0
C943 C 0.30492 0.47898 0.30989 0.0
N944 N 0.28497 0.46641 0.43415 0.0
N945 N 0.38332 0.5019 0.26793 0.0
H946 H 0.23944 0.46383 0.27162 0.0
H947 H 0.29609 0.49073 0.2403 0.0
H948 H 0.42293 0.51628 0.26502 0.0
H949 H 0.36326 0.486 0.23795 0.0
H950 H 0.30495 0.47201 0.46442 0.0
H951 H 0.24523 0.44423 0.43833 0.0
H952 H 0.37655 0.53802 0.45832 0.0
H953 H 0.43264 0.55786 0.42685 0.0
C954 C 0.56578 0.85866 0.32658 0.0
C955 C 0.55459 0.87195 0.36963 0.0
C956 C 0.58938 0.82188 0.40645 0.0
C957 C 0.6021 0.80994 0.36323 0.0
N958 N 0.58023 0.79793 0.284 0.0
N959 N 0.54052 0.85256 0.44914 0.0
C960 C 0.58363 0.82257 0.32375 0.0
C961 C 0.56159 0.84913 0.40913 0.0
N962 N 0.56151 0.88189 0.28835 0.0
N963 N 0.606 0.80963 0.44516 0.0
H964 H 0.51916 0.8713 0.45196 0.0
H965 H 0.53944 0.83246 0.47824 0.0
H966 H 0.62689 0.79037 0.44536 0.0
H967 H 0.60351 0.82289 0.47711 0.0
H968 H 0.57395 0.87721 0.25667 0.0
H969 H 0.54977 0.90928 0.28876 0.0
H970 H 0.5624 0.80198 0.25524 0.0
H971 H 0.58877 0.76828 0.28167 0.0
C972 C 0.56692 0.11398 0.65566 0.0
C973 C 0.59526 0.14698 0.61922 0.0
C974 C 0.51742 0.15071 0.59725 0.0
C975 C 0.49152 0.12431 0.63729 0.0
N976 N 0.49462 0.08487 0.70733 0.0
N977 N 0.59918 0.20226 0.55831 0.0
C978 C 0.5171 0.10677 0.66707 0.0
C979 C 0.5708 0.16685 0.59083 0.0
N980 N 0.58718 0.08885 0.67899 0.0
N981 N 0.49064 0.16112 0.56571 0.0
H982 H 0.63845 0.21577 0.55337 0.0
H983 H 0.58543 0.22184 0.53894 0.0
H984 H 0.45093 0.14546 0.56836 0.0
H985 H 0.50601 0.18095 0.53568 0.0
H986 H 0.56623 0.05981 0.70244 0.0
H987 H 0.62395 0.09447 0.6725 0.0
H988 H 0.51303 0.07602 0.73279 0.0
H989 H 0.45835 0.07865 0.71637 0.0
C990 C 0.89328 0.38525 0.64339 0.0
C991 C 0.94272 0.38957 0.63614 0.0
C992 C 0.97638 0.4834 0.62534 0.0
C993 C 0.92522 0.47553 0.62367 0.0
N994 N 0.83401 0.41338 0.62065 0.0
N995 N 0.03171 0.44603 0.61734 0.0
C996 C 0.8835 0.42506 0.63007 0.0
C997 C 0.98449 0.43988 0.62653 0.0
N998 N 0.85516 0.34349 0.66449 0.0
N999 N 1.01726 0.53255 0.62596 0.0
H1000 H 0.03795 0.41512 0.61951 0.0
H1001 H 0.06276 0.48009 0.60521 0.0
H1002 H 1.01234 0.56468 0.62583 0.0
H1003 H 0.05528 0.54127 0.63095 0.0
H1004 H 0.8205 0.34071 0.67489 0.0
H1005 H 0.86136 0.31503 0.67637 0.0
H1006 H 0.80316 0.3756 0.62 0.0
H1007 H 0.82421 0.44006 0.60871 0.0
C1008 C 0.64304 0.5615 0.66077 0.0
C1009 C 0.67967 0.5862 0.62508 0.0
C1010 C 0.63821 0.50398 0.58306 0.0
C1011 C 0.59988 0.4792 0.61676 0.0
N1012 N 0.56113 0.48696 0.68535 0.0
N1013 N 0.69241 0.58454 0.54497 0.0
C1014 C 0.60087 0.50885 0.65508 0.0
C1015 C 0.67038 0.55832 0.58392 0.0
N1016 N 0.6472 0.58845 0.69904 0.0
N1017 N 0.64401 0.4755 0.54986 0.0
H1018 H 0.70968 0.62459 0.54325 0.0
H1019 H 0.68926 0.56669 0.51415 0.0
H1020 H 0.62205 0.43535 0.54881 0.0
H1021 H 0.6744 0.49123 0.52675 0.0
H1022 H 0.62323 0.57346 0.72707 0.0
H1023 H 0.67555 0.62659 0.70263 0.0
H1024 H 0.5562 0.50658 0.71217 0.0
H1025 H 0.53124 0.44889 0.68225 0.0
C1026 C 0.87759 0.0548 0.65511 0.0
C1027 C 0.85765 0.02569 0.6955 0.0
C1028 C 0.89412 0.10708 0.73894 0.0
C1029 C 0.91291 0.13618 0.69816 0.0
N1030 N 0.94302 0.13532 0.62271 0.0
N1031 N 0.86184 0.02447 0.77677 0.0
C1032 C 0.91079 0.10939 0.65774 0.0
C1033 C 0.87077 0.0521 0.73773 0.0
N1034 N 0.86334 0.0311 0.61389 0.0
N1035 N 0.89642 0.13149 0.77874 0.0
H1036 H 0.84608 0.98454 0.77684 0.0
H1037 H 0.87494 0.0413 0.80844 0.0
H1038 H 0.91272 0.17126 0.78163 0.0
H1039 H 0.87789 0.11202 0.80824 0.0
H1040 H 0.87294 0.05149 0.5835 0.0
H1041 H 0.83829 0.99166 0.61004 0.0
H1042 H 0.94698 0.11652 0.59461 0.0
H1043 H 0.97086 0.17424 0.62471 0.0
C1044 C 0.97087 0.81628 0.7319 0.0
C1045 C 0.9419 0.80145 0.69069 0.0
C1046 C 1.0244 0.83788 0.64821 0.0
C1047 C 0.05303 0.85308 0.68919 0.0
N1048 N 0.05375 0.86941 0.76897 0.0
N1049 N 0.94485 0.81728 0.61033 0.0
C1050 C 1.0262 0.84604 0.73069 0.0
C1051 C 0.96981 0.81794 0.64905 0.0
N1052 N 0.9459 0.80067 0.77252 0.0
N1053 N 0.04881 0.84064 0.60832 0.0
H1054 H 0.90625 0.80662 0.61033 0.0
H1055 H 0.9635 0.83329 0.57986 0.0
H1056 H 0.08818 0.85348 0.60607 0.0
H1057 H 1.02927 0.82594 0.5779 0.0
H1058 H 0.96488 0.80455 0.80309 0.0
H1059 H 0.9059 0.77956 0.7757 0.0
H1060 H 0.03684 0.87067 0.79939 0.0
H1061 H 0.09392 0.89237 0.76904 0.0
C1062 C 0.24651 0.16297 0.73049 0.0
C1063 C 0.26639 0.15594 0.68857 0.0
C1064 C 0.23252 0.2067 0.65027 0.0
C1065 C 0.21563 0.21559 0.69235 0.0
N1066 N 0.19358 0.19113 0.77004 0.0
N1067 N 0.25931 0.15564 0.60707 0.0
C1068 C 0.21906 0.1906 0.73172 0.0
C1069 C 0.25372 0.17323 0.64799 0.0
N1070 N 0.25413 0.14385 0.76976 0.0
N1071 N 0.22971 0.23147 0.61244 0.0
H1072 H 0.27458 0.13159 0.60378 0.0
H1073 H 0.24488 0.16119 0.57683 0.0
H1074 H 0.21462 0.2562 0.61273 0.0
H1075 H 0.24523 0.23027 0.58126 0.0
H1076 H 0.25083 0.15648 0.80178 0.0
H1077 H 0.26405 0.11545 0.77064 0.0
H1078 H 0.18896 0.16885 0.79856 0.0
H1079 H 0.17252 0.21025 0.77197 0.0
C1080 C 0.12035 0.37712 0.16001 0.0
C1081 C 0.13445 0.40959 0.1985 0.0
C1082 C 0.12307 0.47325 0.15289 0.0
C1083 C 0.10573 0.43915 0.11531 0.0
N1084 N 0.11123 0.37019 0.07839 0.0
N1085 N 0.1684 0.49661 0.22479 0.0
C1086 C 0.11218 0.3949 0.11748 0.0
C1087 C 0.14142 0.46008 0.19286 0.0
N1088 N 0.11188 0.32814 0.16427 0.0
N1089 N 0.12167 0.51797 0.15109 0.0
H1090 H 0.18504 0.48899 0.25239 0.0
H1091 H 0.17924 0.53532 0.22142 0.0
H1092 H 0.11629 0.53261 0.121 0.0
H1093 H 0.1256 0.54025 0.17952 0.0
H1094 H 0.09861 0.30143 0.13802 0.0
H1095 H 0.11468 0.31279 0.19501 0.0
H1096 H 0.12058 0.34108 0.07668 0.0
H1097 H 0.10622 0.38264 0.04695 0.0
C1098 C 0.61423 0.73168 0.16866 0.0
C1099 C 0.6474 0.72229 0.19771 0.0
C1100 C 0.61193 0.63751 0.16009 0.0
C1101 C 0.59038 0.65136 0.12449 0.0
N1102 N 0.56295 0.70946 0.09841 0.0
N1103 N 0.68984 0.67142 0.20197 0.0
C1104 C 0.58897 0.69798 0.12986 0.0
C1105 C 0.64913 0.67627 0.18826 0.0
N1106 N 0.60631 0.77173 0.17774 0.0
N1107 N 0.60046 0.58767 0.16427 0.0
H1108 H 0.72404 0.70355 0.21164 0.0
H1109 H 0.69255 0.63855 0.19619 0.0
H1110 H 0.57222 0.55898 0.14396 0.0
H1111 H 0.61409 0.575 0.19103 0.0
H1112 H 0.57928 0.77785 0.16089 0.0
H1113 H 0.62522 0.79772 0.20372 0.0
H1114 H 0.56364 0.74451 0.09698 0.0
H1115 H 0.54201 0.68369 0.07249 0.0
C1116 C 0.41715 0.93807 0.1582 0.0
C1117 C 0.39237 0.94118 0.11865 0.0
C1118 C 0.31316 0.91726 0.16366 0.0
C1119 C 0.3389 0.9168 0.20372 0.0
N1120 N 0.4072 0.90564 0.23484 0.0
N1121 N 0.31137 0.91905 0.08232 0.0
C1122 C 0.38842 0.92059 0.19956 0.0
C1123 C 0.33831 0.92462 0.12108 0.0
N1124 N 0.46863 0.95418 0.15698 0.0
N1125 N 0.26668 0.91558 0.16594 0.0
H1126 H 0.32942 0.93229 0.05147 0.0
H1127 H 0.27119 0.89909 0.0804 0.0
H1128 H 0.24721 0.91241 0.1958 0.0
H1129 H 0.24826 0.92067 0.13822 0.0
H1130 H 0.49055 0.959 0.18592 0.0
H1131 H 0.48971 0.96509 0.12689 0.0
H1132 H 0.44108 0.90386 0.2332 0.0
H1133 H 0.38522 0.88895 0.2637 0.0
C1134 C 0.40402 0.10458 0.87128 0.0
C1135 C 0.44572 0.0942 0.87619 0.0
C1136 C 0.47643 0.13787 0.80154 0.0
C1137 C 0.42699 0.13187 0.79266 0.0
N1138 N 0.3416 0.10479 0.82071 0.0
N1139 N 0.52955 0.11459 0.84675 0.0
C1140 C 0.39036 0.11367 0.82799 0.0
C1141 C 0.48449 0.11494 0.84152 0.0
N1142 N 0.37973 0.11087 0.90774 0.0
N1143 N 0.51605 0.16699 0.77269 0.0
H1144 H 0.54155 0.10769 0.87757 0.0
H1145 H 0.55539 0.12178 0.82038 0.0
H1146 H 0.51107 0.18515 0.74468 0.0
H1147 H 0.55427 0.17702 0.7786 0.0
H1148 H 0.35249 0.12278 0.90483 0.0
H1149 H 0.39153 0.11223 0.94075 0.0
H1150 H 0.31177 0.08588 0.8441 0.0
H1151 H 0.33036 0.11238 0.78988 0.0
C1152 C 0.9088 0.34416 0.86209 0.0
C1153 C 0.95653 0.39164 0.86791 0.0
C1154 C 0.96657 0.39403 0.78537 0.0
C1155 C 0.92743 0.34083 0.78125 0.0
N1156 N 0.85511 0.26858 0.81597 0.0
N1157 N 0.03161 0.46136 0.8325 0.0
C1158 C 0.89643 0.317 0.8197 0.0
C1159 C 0.98501 0.41703 0.82871 0.0
N1160 N 0.87365 0.32653 0.89637 0.0
N1161 N 0.98654 0.42271 0.74726 0.0
H1162 H 0.04841 0.47806 0.86332 0.0
H1163 H 0.05598 0.47948 0.80518 0.0
H1164 H 0.97369 0.40685 0.71558 0.0
H1165 H 1.01089 0.46253 0.74721 0.0
H1166 H 0.83661 0.29479 0.89363 0.0
H1167 H 0.87956 0.34744 0.92594 0.0
H1168 H 0.83594 0.2453 0.84366 0.0
H1169 H 0.83967 0.25255 0.78462 0.0
C1170 C 0.69269 0.57761 0.79594 0.0
C1171 C 0.73381 0.62984 0.79113 0.0
C1172 C 0.69474 0.65407 0.85122 0.0
C1173 C 0.65631 0.60267 0.86125 0.0
N1174 N 0.62407 0.51304 0.84417 0.0
N1175 N 0.78293 0.71025 0.83095 0.0
C1176 C 0.65678 0.56338 0.83386 0.0
C1177 C 0.73814 0.66468 0.82525 0.0
N1178 N 0.6874 0.5419 0.76461 0.0
N1179 N 0.6898 0.69458 0.86445 0.0
H1180 H 0.81637 0.7192 0.81283 0.0
H1181 H 0.78684 0.73648 0.85613 0.0
H1182 H 0.65586 0.69013 0.87847 0.0
H1183 H 0.65586 0.69013 0.87847 0.0
H1184 H 0.65547 0.50487 0.7632 0.0
H1185 H 0.71408 0.55043 0.73868 0.0
H1186 H 0.62575 0.4826 0.82887 0.0
H1187 H 0.59671 0.5023 0.86972 0.0
C1188 C 0.79816 0.81957 0.48745 0.0
C1189 C 0.78193 0.7859 0.44982 0.0
C1190 C 0.80189 0.72646 0.4923 0.0
C1191 C 0.81382 0.75765 0.53148 0.0
N1192 N 0.8414 0.84288 0.56028 0.0
N1193 N 0.79328 0.72146 0.41096 0.0
C1194 C 0.81756 0.80707 0.52704 0.0
C1195 C 0.79202 0.744 0.45063 0.0
N1196 N 0.79457 0.86309 0.48585 0.0
N1197 N 0.7965 0.67855 0.49493 0.0
H1198 H 0.78763 0.73426 0.37998 0.0
H1199 H 0.80556 0.69455 0.40848 0.0
H1200 H 0.80357 0.66405 0.52432 0.0
H1201 H 0.78098 0.65162 0.4688 0.0
H1202 H 0.79763 0.88514 0.51419 0.0
H1203 H 0.78879 0.87712 0.45557 0.0
H1204 H 0.84986 0.88098 0.55792 0.0
H1205 H 0.85721 0.83556 0.58864 0.0
C1206 C 0.33454 0.07636 0.44205 0.0
C1207 C 0.2883 0.0272 0.4407 0.0
C1208 C 0.27 0.04347 0.5185 0.0
C1209 C 0.32146 0.08651 0.52308 0.0
N1210 N 0.4006 0.14714 0.48636 0.0
N1211 N 0.20739 0.96868 0.47534 0.0
C1212 C 0.3526 0.1046 0.48369 0.0
C1213 C 0.25422 1.01274 0.47799 0.0
N1214 N 0.36097 0.0963 0.40275 0.0
N1215 N 0.23568 0.0325 0.55298 0.0
H1216 H 0.19219 0.94998 0.44471 0.0
H1217 H 0.18375 0.95054 0.50307 0.0
H1218 H 0.24565 0.05346 0.5829 0.0
H1219 H 0.19652 1.0055 0.55097 0.0
H1220 H 0.39145 0.13388 0.39924 0.0
H1221 H 0.34947 0.07579 0.37254 0.0
H1222 H 0.42835 0.15833 0.46104 0.0
H1223 H 0.41327 0.17099 0.51463 0.0
C1224 C 1.01164 0.23944 0.50913 0.0
C1225 C 1.0122 0.27963 0.53575 0.0
C1226 C 0.09346 0.34103 0.49823 0.0
C1227 C 0.08831 0.30433 0.46566 0.0
N1228 N 0.04756 0.21521 0.44551 0.0
N1229 N 0.04569 0.37067 0.54203 0.0
C1230 C 0.04853 0.25232 0.47257 0.0
C1231 C 0.05084 0.33096 0.5259 0.0
N1232 N 0.97728 0.18939 0.51927 0.0
N1233 N 0.13873 0.38669 0.501 0.0
H1234 H 1.01054 0.36465 0.55465 0.0
H1235 H 0.07483 0.4089 0.54031 0.0
H1236 H 0.17038 0.39407 0.48088 0.0
H1237 H 0.14628 0.41402 0.5261 0.0
H1238 H 0.97759 0.15801 0.50455 0.0
H1239 H 0.94869 0.17931 0.5435 0.0
H1240 H 1.01669 0.17766 0.44341 0.0
H1241 H 0.0801 0.22266 0.42691 0.0
loop_
_geom_bond_atom_site_label_1
_geom_bond_atom_site_label_2
_geom_bond_distance
_geom_bond_site_symmetry_2
_ccdc_geom_bond_type
Tb0 N31 2.658 1_456 S
Tb0 N38 2.600 . S
Tb0 O44 2.546 . S
Tb0 O45 2.610 1_556 S
Tb0 O47 2.320 1_556 S
Tb0 O48 2.552 . S
Tb0 O49 2.413 1_556 S
Tb0 O51 2.358 1_456 S
Tb0 O52 2.421 . S
Tb0 C64 2.833 . S
C1 C4 1.432 . S
C1 C5 1.414 . S
C1 N8 1.359 1_455 S
C2 C4 1.417 1_556 S
C2 C6 1.432 1_556 S
C2 C14 1.410 . S
C3 C5 1.444 . S
C3 C6 1.317 . S
C3 H26 0.929 . S
C4 C1 1.432 . S
C4 C2 1.417 1_554 S
C4 N12 1.360 1_554 S
C5 C1 1.414 . S
C5 C3 1.444 . S
C5 C10 1.385 . S
C6 C2 1.432 1_554 S
C6 C3 1.317 . S
C6 H18 0.930 . S
C7 C9 1.392 . S
C7 C10 1.370 1_655 S
C7 H19 0.931 . S
N8 C1 1.359 1_655 S
N8 C9 1.327 . S
N8 Tb11 2.600 . S
C9 C7 1.392 . S
C9 N8 1.327 . S
C9 H16 0.930 . S
C10 C5 1.385 . S
C10 C7 1.370 1_455 S
C10 H29 0.930 . S
Tb11 N8 2.600 . S
Tb11 N12 2.660 1_654 S
Tb11 O45 2.362 1_655 S
Tb11 O46 2.421 . S
Tb11 O50 2.546 . S
Tb11 O51 2.614 . S
Tb11 O53 2.320 1_554 S
Tb11 O54 2.552 . S
Tb11 O55 2.413 1_554 S
Tb11 C75 2.833 . S
N12 C4 1.360 1_556 S
N12 Tb11 2.660 1_456 S
N12 C13 1.305 . S
C13 N12 1.305 . S
C13 C15 1.407 . S
C13 H20 0.930 . S
C14 C2 1.410 . S
C14 C15 1.345 . S
C14 H22 0.930 . S
C15 C13 1.407 . S
C15 C14 1.345 . S
C15 H17 0.930 . S
H16 C9 0.930 . S
H17 C15 0.930 . S
H18 C6 0.930 . S
H19 C7 0.931 . S
H20 C13 0.930 . S
H21 C35 0.930 . S
H22 C14 0.930 . S
H23 C41 0.930 . S
H24 C32 0.946 . S
H25 C39 0.931 . S
H26 C3 0.929 . S
H27 C33 0.930 . S
H28 C66 0.930 . S
H29 C10 0.930 . S
H30 C65 0.929 . S
N31 Tb0 2.658 1_654 S
N31 C32 1.305 . S
N31 C36 1.361 1_554 S
C32 H24 0.946 . S
C32 N31 1.305 . S
C32 C35 1.407 . S
C33 H27 0.930 . S
C33 C34 1.410 . S
C33 C35 1.345 . S
C34 C33 1.410 . S
C34 C36 1.417 1_554 S
C34 C66 1.432 1_554 S
C35 H21 0.930 . S
C35 C32 1.407 . S
C35 C33 1.345 . S
C36 N31 1.361 1_556 S
C36 C34 1.417 1_556 S
C36 C40 1.432 . S
H37 C42 0.930 . S
N38 Tb0 2.600 . S
N38 C40 1.359 1_455 S
N38 C41 1.327 . S
C39 H25 0.931 . S
C39 C41 1.392 . S
C39 C42 1.370 1_455 S
C40 C36 1.432 . S
C40 N38 1.359 1_655 S
C40 C43 1.414 . S
C41 H23 0.930 . S
C41 N38 1.327 . S
C41 C39 1.392 . S
C42 H37 0.930 . S
C42 C39 1.370 1_655 S
C42 C43 1.385 . S
C43 C40 1.414 . S
C43 C42 1.385 . S
C43 C65 1.444 . S
O44 Tb0 2.546 . S
O44 C64 1.251 . S
O45 Tb0 2.610 1_554 S
O45 Tb11 2.362 1_455 S
O45 C56 1.283 1_554 S
O46 Tb11 2.421 . S
O46 C63 1.262 1_655 S
O47 Tb0 2.320 1_554 S
O47 C63 1.260 . S
O48 Tb0 2.552 . S
O48 C56 1.243 . S
O49 Tb0 2.413 1_554 S
O49 C64 1.256 1_554 S
O50 Tb11 2.546 . S
O50 C75 1.251 . S
O51 Tb0 2.358 1_654 S
O51 Tb11 2.614 . S
O51 C67 1.287 . S
O52 Tb0 2.421 . S
O52 C74 1.262 1_455 S
O53 Tb11 2.320 1_556 S
O53 C74 1.260 . S
O54 Tb11 2.552 . S
O54 C67 1.243 . S
O55 Tb11 2.413 1_556 S
O55 C75 1.256 1_556 S
C56 O45 1.283 1_556 S
C56 O48 1.243 . S
C57 C59 1.382 1_556 S
C57 C61 1.393 . S
C57 C64 1.500 . S
C58 C59 1.400 . S
C58 C60 1.384 1_554 S
C59 C57 1.382 1_554 S
C59 C58 1.400 . S
C59 H76 0.930 . S
C60 C58 1.384 1_556 S
C60 C62 1.392 . S
C60 H77 0.931 . S
C61 C57 1.393 . S
C61 C62 1.401 . S
C61 H78 0.930 . S
C62 C60 1.392 . S
C62 C61 1.401 . S
C62 H79 0.930 . S
C63 O46 1.262 1_455 S
C63 O47 1.260 . S
C64 Tb0 2.833 . S
C64 O44 1.251 . S
C64 O49 1.256 1_556 S
C64 C57 1.500 . S
C65 H30 0.929 . S
C65 C43 1.444 . S
C65 C66 1.317 . S
C66 H28 0.930 . S
C66 C34 1.432 1_556 S
C66 C65 1.317 . S
C67 O51 1.287 . S
C67 O54 1.243 . S
C68 C69 1.382 1_554 S
C68 C72 1.393 . S
C68 C75 1.500 . S
C69 C68 1.382 1_556 S
C69 C70 1.400 . S
C69 H80 0.930 . S
C70 C69 1.400 . S
C70 C71 1.384 1_556 S
C71 C70 1.384 1_554 S
C71 C73 1.392 . S
C71 H81 0.931 . S
C72 C68 1.393 . S
C72 C73 1.401 . S
C72 H82 0.930 . S
C73 C71 1.392 . S
C73 C72 1.401 . S
C73 H83 0.930 . S
C74 O52 1.262 1_655 S
C74 O53 1.260 . S
C75 Tb11 2.833 . S
C75 O50 1.251 . S
C75 O55 1.256 1_554 S
C75 C68 1.500 . S
H76 C59 0.930 . S
H77 C60 0.931 . S
H78 C61 0.930 . S
H79 C62 0.930 . S
H80 C69 0.930 . S
H81 C71 0.931 . S
H82 C72 0.930 . S
H83 C73 0.930 . S
Tb84 N115 2.660 1_556 S
Tb84 N122 2.600 . S
Tb84 O128 2.546 . S
Tb84 O129 2.610 1_556 S
Tb84 O131 2.320 1_556 S
Tb84 O132 2.552 . S
Tb84 O133 2.413 1_556 S
Tb84 O135 2.358 1_556 S
Tb84 O136 2.421 . S
Tb84 C148 2.833 . S
C85 C88 1.432 . S
C85 C89 1.414 . S
C85 N92 1.359 . S
C86 C88 1.417 1_556 S
C86 C90 1.432 1_556 S
C86 C98 1.410 . S
C87 C89 1.444 . S
C87 C90 1.317 . S
C87 H110 0.929 . S
C88 C85 1.432 . S
C88 C86 1.417 1_554 S
C88 N96 1.360 1_554 S
C89 C85 1.414 . S
C89 C87 1.444 . S
C89 C94 1.385 . S
C90 C86 1.432 1_554 S
C90 C87 1.317 . S
C90 H102 0.930 . S
C91 C93 1.392 . S
C91 C94 1.370 . S
C91 H103 0.931 . S
N92 C85 1.359 . S
N92 C93 1.327 . S
N92 Tb95 2.600 . S
C93 C91 1.392 . S
C93 N92 1.327 . S
C93 H100 0.930 . S
C94 C89 1.385 . S
C94 C91 1.370 . S
C94 H113 0.930 . S
Tb95 N92 2.600 . S
Tb95 N96 2.660 1_554 S
Tb95 O129 2.362 . S
Tb95 O130 2.421 . S
Tb95 O134 2.546 . S
Tb95 O135 2.614 . S
Tb95 O137 2.320 1_554 S
Tb95 O138 2.552 . S
Tb95 O139 2.413 1_554 S
Tb95 C159 2.833 . S
N96 C88 1.360 1_556 S
N96 Tb95 2.660 1_556 S
N96 C97 1.305 . S
C97 N96 1.305 . S
C97 C99 1.407 . S
C97 H104 0.930 . S
C98 C86 1.410 . S
C98 C99 1.345 . S
C98 H106 0.930 . S
C99 C97 1.407 . S
C99 C98 1.345 . S
C99 H101 0.930 . S
H100 C93 0.930 . S
H101 C99 0.930 . S
H102 C90 0.930 . S
H103 C91 0.931 . S
H104 C97 0.930 . S
H105 C119 0.930 . S
H106 C98 0.930 . S
H107 C125 0.930 . S
H108 C116 0.930 . S
H109 C123 0.931 . S
H110 C87 0.929 . S
H111 C117 0.930 . S
H112 C150 0.930 . S
H113 C94 0.930 . S
H114 C149 0.929 . S
N115 Tb84 2.660 1_554 S
N115 C116 1.305 . S
N115 C120 1.360 1_554 S
C116 H108 0.930 . S
C116 N115 1.305 . S
C116 C119 1.407 . S
C117 H111 0.930 . S
C117 C118 1.410 . S
C117 C119 1.345 . S
C118 C117 1.410 . S
C118 C120 1.417 1_554 S
C118 C150 1.432 1_554 S
C119 H105 0.930 . S
C119 C116 1.407 . S
C119 C117 1.345 . S
C120 N115 1.360 1_556 S
C120 C118 1.417 1_556 S
C120 C124 1.432 . S
H121 C126 0.930 . S
N122 Tb84 2.600 . S
N122 C124 1.359 . S
N122 C125 1.327 . S
C123 H109 0.931 . S
C123 C125 1.392 . S
C123 C126 1.370 . S
C124 C120 1.432 . S
C124 N122 1.359 . S
C124 C127 1.414 . S
C125 H107 0.930 . S
C125 N122 1.327 . S
C125 C123 1.392 . S
C126 H121 0.930 . S
C126 C123 1.370 . S
C126 C127 1.385 . S
C127 C124 1.414 . S
C127 C126 1.385 . S
C127 C149 1.444 . S
O128 Tb84 2.546 . S
O128 C148 1.251 . S
O129 Tb84 2.610 1_554 S
O129 Tb95 2.362 . S
O129 C140 1.283 1_554 S
O130 Tb95 2.421 . S
O130 C147 1.262 . S
O131 Tb84 2.320 1_554 S
O131 C147 1.260 . S
O132 Tb84 2.552 . S
O132 C140 1.243 . S
O133 Tb84 2.413 1_554 S
O133 C148 1.256 1_554 S
O134 Tb95 2.546 . S
O134 C159 1.251 . S
O135 Tb84 2.358 1_554 S
O135 Tb95 2.614 . S
O135 C151 1.287 . S
O136 Tb84 2.421 . S
O136 C158 1.262 . S
O137 Tb95 2.320 1_556 S
O137 C158 1.260 . S
O138 Tb95 2.552 . S
O138 C151 1.243 . S
O139 Tb95 2.413 1_556 S
O139 C159 1.256 1_556 S
C140 O129 1.283 1_556 S
C140 O132 1.243 . S
C141 C143 1.382 1_556 S
C141 C145 1.393 . S
C141 C148 1.500 . S
C142 C143 1.400 . S
C142 C144 1.384 1_554 S
C143 C141 1.382 1_554 S
C143 C142 1.400 . S
C143 H160 0.930 . S
C144 C142 1.384 1_556 S
C144 C146 1.392 . S
C144 H161 0.931 . S
C145 C141 1.393 . S
C145 C146 1.401 . S
C145 H162 0.930 . S
C146 C144 1.392 . S
C146 C145 1.401 . S
C146 H163 0.930 . S
C147 O130 1.262 . S
C147 O131 1.260 . S
C148 Tb84 2.833 . S
C148 O128 1.251 . S
C148 O133 1.256 1_556 S
C148 C141 1.500 . S
C149 H114 0.929 . S
C149 C127 1.444 . S
C149 C150 1.317 . S
C150 H112 0.930 . S
C150 C118 1.432 1_556 S
C150 C149 1.317 . S
C151 O135 1.287 . S
C151 O138 1.243 . S
C152 C153 1.382 1_554 S
C152 C156 1.393 . S
C152 C159 1.500 . S
C153 C152 1.382 1_556 S
C153 C154 1.400 . S
C153 H164 0.930 . S
C154 C153 1.400 . S
C154 C155 1.384 1_556 S
C155 C154 1.384 1_554 S
C155 C157 1.392 . S
C155 H165 0.931 . S
C156 C152 1.393 . S
C156 C157 1.401 . S
C156 H166 0.930 . S
C157 C155 1.392 . S
C157 C156 1.401 . S
C157 H167 0.930 . S
C158 O136 1.262 . S
C158 O137 1.260 . S
C159 Tb95 2.833 . S
C159 O134 1.251 . S
C159 O139 1.256 1_554 S
C159 C152 1.500 . S
H160 C143 0.930 . S
H161 C144 0.931 . S
H162 C145 0.930 . S
H163 C146 0.930 . S
H164 C153 0.930 . S
H165 C155 0.931 . S
H166 C156 0.930 . S
H167 C157 0.930 . S
Tb168 N199 2.660 1_566 S
Tb168 N206 2.600 . S
Tb168 O212 2.546 . S
Tb168 O213 2.610 1_556 S
Tb168 O215 2.320 1_556 S
Tb168 O216 2.552 . S
Tb168 O217 2.413 1_556 S
Tb168 O219 2.358 1_566 S
Tb168 O220 2.420 . S
Tb168 C232 2.833 . S
C169 C172 1.432 . S
C169 C173 1.414 . S
C169 N176 1.359 1_565 S
C170 C172 1.417 1_556 S
C170 C174 1.432 1_556 S
C170 C182 1.410 . S
C171 C173 1.444 . S
C171 C174 1.317 . S
C171 H194 0.929 . S
C172 C169 1.432 . S
C172 C170 1.417 1_554 S
C172 N180 1.363 1_564 S
C173 C169 1.414 . S
C173 C171 1.444 . S
C173 C178 1.385 . S
C174 C170 1.432 1_554 S
C174 C171 1.317 . S
C174 H186 0.930 . S
C175 C177 1.392 . S
C175 C178 1.370 1_545 S
C175 H187 0.931 . S
N176 C169 1.359 1_545 S
N176 C177 1.327 . S
N176 Tb179 2.600 . S
C177 C175 1.392 . S
C177 N176 1.327 . S
C177 H184 0.930 . S
C178 C173 1.385 . S
C178 C175 1.370 1_565 S
C178 H197 0.930 . S
Tb179 N176 2.600 . S
Tb179 N180 2.660 1_554 S
Tb179 O213 2.362 1_545 S
Tb179 O214 2.421 . S
Tb179 O218 2.546 . S
Tb179 O219 2.614 . S
Tb179 O221 2.320 1_554 S
Tb179 O222 2.552 . S
Tb179 O223 2.413 1_554 S
Tb179 C243 2.833 . S
N180 C172 1.363 1_546 S
N180 Tb179 2.660 1_556 S
N180 C181 1.301 1_545 S
C181 N180 1.301 1_565 S
C181 C183 1.407 . S
C181 H188 0.930 1_565 S
C182 C170 1.410 . S
C182 C183 1.345 . S
C182 H190 0.930 . S
C183 C181 1.407 . S
C183 C182 1.345 . S
C183 H185 0.930 . S
H184 C177 0.930 . S
H185 C183 0.930 . S
H186 C174 0.930 . S
H187 C175 0.931 . S
H188 C181 0.930 1_545 S
H189 C203 0.930 . S
H190 C182 0.930 . S
H191 C209 0.930 . S
H192 C200 0.930 . S
H193 C207 0.931 . S
H194 C171 0.929 . S
H195 C201 0.930 . S
H196 C234 0.930 . S
H197 C178 0.930 . S
H198 C233 0.929 . S
N199 Tb168 2.660 1_544 S
N199 C200 1.305 . S
N199 C204 1.360 1_554 S
C200 H192 0.930 . S
C200 N199 1.305 . S
C200 C203 1.407 . S
C201 H195 0.930 . S
C201 C202 1.410 . S
C201 C203 1.345 . S
C202 C201 1.410 . S
C202 C204 1.417 1_554 S
C202 C234 1.432 1_554 S
C203 H189 0.930 . S
C203 C200 1.407 . S
C203 C201 1.345 . S
C204 N199 1.360 1_556 S
C204 C202 1.417 1_556 S
C204 C208 1.432 . S
H205 C210 0.930 . S
N206 Tb168 2.600 . S
N206 C208 1.359 1_565 S
N206 C209 1.327 . S
C207 H193 0.931 . S
C207 C209 1.392 . S
C207 C210 1.370 1_565 S
C208 C204 1.432 . S
C208 N206 1.359 1_545 S
C208 C211 1.414 . S
C209 H191 0.930 . S
C209 N206 1.327 . S
C209 C207 1.392 . S
C210 H205 0.930 . S
C210 C207 1.370 1_545 S
C210 C211 1.385 . S
C211 C208 1.414 . S
C211 C210 1.385 . S
C211 C233 1.444 . S
O212 Tb168 2.546 . S
O212 C232 1.251 . S
O213 Tb168 2.610 1_554 S
O213 Tb179 2.362 1_565 S
O213 C224 1.283 1_554 S
O214 Tb179 2.421 . S
O214 C231 1.262 1_545 S
O215 Tb168 2.320 1_554 S
O215 C231 1.260 . S
O216 Tb168 2.552 . S
O216 C224 1.243 . S
O217 Tb168 2.413 1_554 S
O217 C232 1.256 1_554 S
O218 Tb179 2.546 . S
O218 C243 1.251 . S
O219 Tb168 2.358 1_544 S
O219 Tb179 2.614 . S
O219 C235 1.287 . S
O220 Tb168 2.420 . S
O220 C242 1.263 1_565 S
O221 Tb179 2.320 1_556 S
O221 C242 1.260 . S
O222 Tb179 2.552 . S
O222 C235 1.243 . S
O223 Tb179 2.413 1_556 S
O223 C243 1.256 1_556 S
C224 O213 1.283 1_556 S
C224 O216 1.243 . S
C225 C227 1.382 1_556 S
C225 C229 1.393 . S
C225 C232 1.500 . S
C226 C227 1.400 . S
C226 C228 1.384 1_554 S
C227 C225 1.382 1_554 S
C227 C226 1.400 . S
C227 H244 0.930 . S
C228 C226 1.384 1_556 S
C228 C230 1.392 . S
C228 H245 0.931 . S
C229 C225 1.393 . S
C229 C230 1.401 . S
C229 H246 0.930 . S
C230 C228 1.392 . S
C230 C229 1.401 . S
C230 H247 0.930 . S
C231 O214 1.262 1_565 S
C231 O215 1.260 . S
C232 Tb168 2.833 . S
C232 O212 1.251 . S
C232 O217 1.256 1_556 S
C232 C225 1.500 . S
C233 H198 0.929 . S
C233 C211 1.444 . S
C233 C234 1.317 . S
C234 H196 0.930 . S
C234 C202 1.432 1_556 S
C234 C233 1.317 . S
C235 O219 1.287 . S
C235 O222 1.243 . S
C236 C237 1.382 1_554 S
C236 C240 1.393 . S
C236 C243 1.500 . S
C237 C236 1.382 1_556 S
C237 C238 1.400 . S
C237 H248 0.930 . S
C238 C237 1.400 . S
C238 C239 1.384 1_556 S
C239 C238 1.384 1_554 S
C239 C241 1.392 . S
C239 H249 0.931 . S
C240 C236 1.393 . S
C240 C241 1.401 . S
C240 H250 0.930 . S
C241 C239 1.392 . S
C241 C240 1.401 . S
C241 H251 0.930 . S
C242 O220 1.263 1_545 S
C242 O221 1.260 . S
C243 Tb179 2.833 . S
C243 O218 1.251 . S
C243 O223 1.256 1_554 S
C243 C236 1.500 . S
H244 C227 0.930 . S
H245 C228 0.931 . S
H246 C229 0.930 . S
H247 C230 0.930 . S
H248 C237 0.930 . S
H249 C239 0.931 . S
H250 C240 0.930 . S
H251 C241 0.930 . S
Tb252 N283 2.660 . S
Tb252 N290 2.600 . S
Tb252 O296 2.546 . S
Tb252 O297 2.610 . S
Tb252 O299 2.320 . S
Tb252 O300 2.552 . S
Tb252 O301 2.413 . S
Tb252 O303 2.362 . S
Tb252 O304 2.421 . S
Tb252 C316 2.833 . S
C253 C256 1.432 . S
C253 C257 1.414 . S
C253 N260 1.359 . S
C254 C256 1.417 . S
C254 C258 1.432 . S
C254 C266 1.410 . S
C255 C257 1.444 . S
C255 C258 1.317 . S
C255 H278 0.929 . S
C256 C253 1.432 . S
C256 C254 1.417 . S
C256 N264 1.360 . S
C257 C253 1.414 . S
C257 C255 1.444 . S
C257 C262 1.385 . S
C258 C254 1.432 . S
C258 C255 1.317 . S
C258 H270 0.930 . S
C259 C261 1.392 . S
C259 C262 1.370 . S
C259 H271 0.931 . S
N260 C253 1.359 . S
N260 C261 1.327 . S
N260 Tb263 2.600 . S
C261 C259 1.392 . S
C261 N260 1.327 . S
C261 H268 0.930 . S
C262 C257 1.385 . S
C262 C259 1.370 . S
C262 H281 0.930 . S
Tb263 N260 2.600 . S
Tb263 N264 2.660 . S
Tb263 O297 2.362 . S
Tb263 O298 2.421 . S
Tb263 O302 2.546 . S
Tb263 O303 2.610 . S
Tb263 O305 2.320 . S
Tb263 O306 2.552 . S
Tb263 O307 2.413 . S
Tb263 C327 2.833 . S
N264 C256 1.360 . S
N264 Tb263 2.660 . S
N264 C265 1.305 . S
C265 N264 1.305 . S
C265 C267 1.407 . S
C265 H272 0.930 . S
C266 C254 1.410 . S
C266 C267 1.345 . S
C266 H274 0.930 . S
C267 C265 1.407 . S
C267 C266 1.345 . S
C267 H269 0.930 . S
H268 C261 0.930 . S
H269 C267 0.930 . S
H270 C258 0.930 . S
H271 C259 0.931 . S
H272 C265 0.930 . S
H273 C287 0.930 . S
H274 C266 0.930 . S
H275 C293 0.930 . S
H276 C284 0.930 . S
H277 C291 0.931 . S
H278 C255 0.929 . S
H279 C285 0.930 . S
H280 C318 0.934 . S
H281 C262 0.930 . S
H282 C317 0.929 . S
N283 Tb252 2.660 . S
N283 C284 1.305 . S
N283 C288 1.360 . S
C284 H276 0.930 . S
C284 N283 1.305 . S
C284 C287 1.407 . S
C285 H279 0.930 . S
C285 C286 1.410 . S
C285 C287 1.345 . S
C286 C285 1.410 . S
C286 C288 1.417 . S
C286 C318 1.428 1_565 S
C287 H273 0.930 . S
C287 C284 1.407 . S
C287 C285 1.345 . S
C288 N283 1.360 . S
C288 C286 1.417 . S
C288 C292 1.432 . S
H289 C294 0.930 1_545 S
N290 Tb252 2.600 . S
N290 C292 1.359 . S
N290 C293 1.327 . S
C291 H277 0.931 . S
C291 C293 1.392 . S
C291 C294 1.370 . S
C292 C288 1.432 . S
C292 N290 1.359 . S
C292 C295 1.414 . S
C293 H275 0.930 . S
C293 N290 1.327 . S
C293 C291 1.392 . S
C294 H289 0.930 1_565 S
C294 C291 1.370 . S
C294 C295 1.385 . S
C295 C292 1.414 . S
C295 C294 1.385 . S
C295 C317 1.444 1_565 S
O296 Tb252 2.546 . S
O296 C316 1.251 . S
O297 Tb252 2.610 . S
O297 Tb263 2.362 . S
O297 C308 1.283 . S
O298 Tb263 2.421 . S
O298 C315 1.262 . S
O299 Tb252 2.320 . S
O299 C315 1.260 . S
O300 Tb252 2.552 . S
O300 C308 1.243 . S
O301 Tb252 2.413 . S
O301 C316 1.256 . S
O302 Tb263 2.546 . S
O302 C327 1.251 . S
O303 Tb252 2.362 . S
O303 Tb263 2.610 . S
O303 C319 1.283 . S
O304 Tb252 2.421 . S
O304 C326 1.262 . S
O305 Tb263 2.320 . S
O305 C326 1.260 . S
O306 Tb263 2.552 . S
O306 C319 1.243 . S
O307 Tb263 2.413 . S
O307 C327 1.256 . S
C308 O297 1.283 . S
C308 O300 1.243 . S
C309 C311 1.382 . S
C309 C313 1.393 . S
C309 C316 1.500 1_545 S
C310 C311 1.400 . S
C310 C312 1.384 . S
C311 C309 1.382 . S
C311 C310 1.400 . S
C311 H328 0.930 . S
C312 C310 1.384 . S
C312 C314 1.392 . S
C312 H329 0.931 . S
C313 C309 1.393 . S
C313 C314 1.401 . S
C313 H330 0.930 . S
C314 C312 1.392 . S
C314 C313 1.401 . S
C314 H331 0.930 . S
C315 O298 1.262 . S
C315 O299 1.260 . S
C316 Tb252 2.833 . S
C316 O296 1.251 . S
C316 O301 1.256 . S
C316 C309 1.500 1_565 S
C317 H282 0.929 . S
C317 C295 1.444 1_545 S
C317 C318 1.317 . S
C318 H280 0.934 . S
C318 C286 1.428 1_545 S
C318 C317 1.317 . S
C319 O303 1.283 . S
C319 O306 1.243 . S
C320 C321 1.382 . S
C320 C324 1.393 . S
C320 C327 1.500 . S
C321 C320 1.382 . S
C321 C322 1.400 . S
C321 H332 0.930 . S
C322 C321 1.400 . S
C322 C323 1.384 . S
C323 C322 1.384 . S
C323 C325 1.392 . S
C323 H333 0.931 . S
C324 C320 1.393 . S
C324 C325 1.401 . S
C324 H334 0.930 . S
C325 C323 1.392 . S
C325 C324 1.401 . S
C325 H335 0.930 . S
C326 O304 1.262 . S
C326 O305 1.260 . S
C327 Tb263 2.833 . S
C327 O302 1.251 . S
C327 O307 1.256 . S
C327 C320 1.500 . S
H328 C311 0.930 . S
H329 C312 0.931 . S
H330 C313 0.930 . S
H331 C314 0.930 . S
H332 C321 0.930 . S
H333 C323 0.931 . S
H334 C324 0.930 . S
H335 C325 0.930 . S
Tb336 N367 2.660 . S
Tb336 N374 2.600 . S
Tb336 O380 2.546 . S
Tb336 O381 2.610 . S
Tb336 O383 2.320 . S
Tb336 O384 2.552 . S
Tb336 O385 2.413 . S
Tb336 O387 2.362 . S
Tb336 O388 2.421 . S
Tb336 C400 2.833 . S
C337 C340 1.432 . S
C337 C341 1.414 . S
C337 N344 1.359 1_545 S
C338 C340 1.417 . S
C338 C342 1.432 . S
C338 C350 1.410 . S
C339 C341 1.444 . S
C339 C342 1.317 . S
C339 H362 0.929 . S
C340 C337 1.432 . S
C340 C338 1.417 . S
C340 N348 1.360 1_545 S
C341 C337 1.414 . S
C341 C339 1.444 . S
C341 C346 1.385 . S
C342 C338 1.432 . S
C342 C339 1.317 . S
C342 H354 0.930 . S
C343 C345 1.392 1_545 S
C343 C346 1.370 . S
C343 H355 0.931 . S
N344 C337 1.359 1_565 S
N344 C345 1.327 . S
N344 Tb347 2.600 . S
C345 C343 1.392 1_565 S
C345 N344 1.327 . S
C345 H352 0.930 . S
C346 C341 1.385 . S
C346 C343 1.370 . S
C346 H365 0.930 . S
Tb347 N344 2.600 . S
Tb347 N348 2.660 . S
Tb347 O381 2.362 . S
Tb347 O382 2.421 . S
Tb347 O386 2.546 . S
Tb347 O387 2.610 . S
Tb347 O389 2.320 . S
Tb347 O390 2.552 . S
Tb347 O391 2.413 . S
Tb347 C411 2.833 . S
N348 C340 1.360 1_565 S
N348 Tb347 2.660 . S
N348 C349 1.305 . S
C349 N348 1.305 . S
C349 C351 1.407 1_565 S
C349 H356 0.930 . S
C350 C338 1.410 . S
C350 C351 1.345 . S
C350 H358 0.930 . S
C351 C349 1.407 1_545 S
C351 C350 1.345 . S
C351 H353 0.930 . S
H352 C345 0.930 . S
H353 C351 0.930 . S
H354 C342 0.930 . S
H355 C343 0.931 . S
H356 C349 0.930 . S
H357 C371 0.930 . S
H358 C350 0.930 . S
H359 C377 0.930 . S
H360 C368 0.930 . S
H361 C375 0.931 . S
H362 C339 0.929 . S
H363 C369 0.930 . S
H364 C402 0.930 1_655 S
H365 C346 0.930 . S
H366 C401 0.929 1_655 S
N367 Tb336 2.660 . S
N367 C368 1.305 . S
N367 C372 1.360 . S
C368 H360 0.930 . S
C368 N367 1.305 . S
C368 C371 1.407 . S
C369 H363 0.930 . S
C369 C370 1.410 . S
C369 C371 1.345 . S
C370 C369 1.410 . S
C370 C372 1.417 . S
C370 C402 1.432 . S
C371 H357 0.930 . S
C371 C368 1.407 . S
C371 C369 1.345 . S
C372 N367 1.360 . S
C372 C370 1.417 . S
C372 C376 1.432 . S
H373 C378 0.930 . S
N374 Tb336 2.600 . S
N374 C376 1.359 . S
N374 C377 1.327 . S
C375 H361 0.931 . S
C375 C377 1.392 . S
C375 C378 1.370 . S
C376 C372 1.432 . S
C376 N374 1.359 . S
C376 C379 1.414 . S
C377 H359 0.930 . S
C377 N374 1.327 . S
C377 C375 1.392 . S
C378 H373 0.930 . S
C378 C375 1.370 . S
C378 C379 1.385 . S
C379 C376 1.414 . S
C379 C378 1.385 . S
C379 C401 1.444 . S
O380 Tb336 2.546 . S
O380 C400 1.251 . S
O381 Tb336 2.610 . S
O381 Tb347 2.362 . S
O381 C392 1.283 . S
O382 Tb347 2.421 . S
O382 C399 1.262 . S
O383 Tb336 2.320 . S
O383 C399 1.260 . S
O384 Tb336 2.552 . S
O384 C392 1.243 . S
O385 Tb336 2.413 . S
O385 C400 1.256 . S
O386 Tb347 2.546 . S
O386 C411 1.251 . S
O387 Tb336 2.362 . S
O387 Tb347 2.610 . S
O387 C403 1.283 . S
O388 Tb336 2.421 . S
O388 C410 1.262 . S
O389 Tb347 2.320 . S
O389 C410 1.260 . S
O390 Tb347 2.552 . S
O390 C403 1.243 . S
O391 Tb347 2.413 . S
O391 C411 1.256 . S
C392 O381 1.283 . S
C392 O384 1.243 . S
C393 C395 1.382 . S
C393 C397 1.393 . S
C393 C400 1.500 1_655 S
C394 C395 1.400 . S
C394 C396 1.384 . S
C395 C393 1.382 . S
C395 C394 1.400 . S
C395 H412 0.930 1_655 S
C396 C394 1.384 . S
C396 C398 1.392 . S
C396 H413 0.931 . S
C397 C393 1.393 . S
C397 C398 1.401 . S
C397 H414 0.930 . S
C398 C396 1.392 . S
C398 C397 1.401 . S
C398 H415 0.930 . S
C399 O382 1.262 . S
C399 O383 1.260 . S
C400 Tb336 2.833 . S
C400 O380 1.251 . S
C400 O385 1.256 . S
C400 C393 1.500 1_455 S
C401 H366 0.929 1_455 S
C401 C379 1.444 . S
C401 C402 1.317 . S
C402 H364 0.930 1_455 S
C402 C370 1.432 . S
C402 C401 1.317 . S
C403 O387 1.283 . S
C403 O390 1.243 . S
C404 C405 1.382 . S
C404 C408 1.393 . S
C404 C411 1.500 . S
C405 C404 1.382 . S
C405 C406 1.400 . S
C405 H416 0.930 . S
C406 C405 1.400 . S
C406 C407 1.384 . S
C407 C406 1.384 . S
C407 C409 1.392 . S
C407 H417 0.931 . S
C408 C404 1.393 . S
C408 C409 1.401 . S
C408 H418 0.930 . S
C409 C407 1.392 . S
C409 C408 1.401 . S
C409 H419 0.930 . S
C410 O388 1.262 . S
C410 O389 1.260 . S
C411 Tb347 2.833 . S
C411 O386 1.251 . S
C411 O391 1.256 . S
C411 C404 1.500 . S
H412 C395 0.930 1_455 S
H413 C396 0.931 . S
H414 C397 0.930 . S
H415 C398 0.930 . S
H416 C405 0.930 . S
H417 C407 0.931 . S
H418 C408 0.930 . S
H419 C409 0.930 . S
Tb420 N451 2.660 . S
Tb420 N458 2.600 . S
Tb420 O464 2.546 . S
Tb420 O465 2.610 . S
Tb420 O467 2.320 . S
Tb420 O468 2.552 . S
Tb420 O469 2.413 . S
Tb420 O471 2.362 . S
Tb420 O472 2.421 . S
Tb420 C484 2.833 . S
C421 C424 1.432 . S
C421 C425 1.414 . S
C421 N428 1.359 1_655 S
C422 C424 1.417 . S
C422 C426 1.432 . S
C422 C434 1.410 . S
C423 C425 1.444 . S
C423 C426 1.317 . S
C423 H446 0.929 . S
C424 C421 1.432 . S
C424 C422 1.417 . S
C424 N432 1.360 1_655 S
C425 C421 1.414 . S
C425 C423 1.444 . S
C425 C430 1.385 . S
C426 C422 1.432 . S
C426 C423 1.317 . S
C426 H438 0.930 . S
C427 C429 1.392 1_655 S
C427 C430 1.370 . S
C427 H439 0.931 1_655 S
N428 C421 1.359 1_455 S
N428 C429 1.327 . S
N428 Tb431 2.600 . S
C429 C427 1.392 1_455 S
C429 N428 1.327 . S
C429 H436 0.930 . S
C430 C425 1.385 . S
C430 C427 1.370 . S
C430 H449 0.930 . S
Tb431 N428 2.600 . S
Tb431 N432 2.660 . S
Tb431 O465 2.362 . S
Tb431 O466 2.421 . S
Tb431 O470 2.546 . S
Tb431 O471 2.610 . S
Tb431 O473 2.320 . S
Tb431 O474 2.552 . S
Tb431 O475 2.413 . S
Tb431 C495 2.833 . S
N432 C424 1.360 1_455 S
N432 Tb431 2.660 . S
N432 C433 1.305 . S
C433 N432 1.305 . S
C433 C435 1.407 1_455 S
C433 H440 0.930 . S
C434 C422 1.410 . S
C434 C435 1.345 . S
C434 H442 0.930 . S
C435 C433 1.407 1_655 S
C435 C434 1.345 . S
C435 H437 0.930 . S
H436 C429 0.930 . S
H437 C435 0.930 . S
H438 C426 0.930 . S
H439 C427 0.931 1_455 S
H440 C433 0.930 . S
H441 C455 0.930 . S
H442 C434 0.930 . S
H443 C461 0.930 . S
H444 C452 0.930 . S
H445 C459 0.931 . S
H446 C423 0.929 . S
H447 C453 0.930 . S
H448 C486 0.930 . S
H449 C430 0.930 . S
H450 C485 0.929 . S
N451 Tb420 2.660 . S
N451 C452 1.305 . S
N451 C456 1.360 . S
C452 H444 0.930 . S
C452 N451 1.305 . S
C452 C455 1.407 . S
C453 H447 0.930 . S
C453 C454 1.410 . S
C453 C455 1.345 . S
C454 C453 1.410 . S
C454 C456 1.417 . S
C454 C486 1.432 . S
C455 H441 0.930 . S
C455 C452 1.407 . S
C455 C453 1.345 . S
C456 N451 1.360 . S
C456 C454 1.417 . S
C456 C460 1.432 . S
H457 C462 0.930 . S
N458 Tb420 2.600 . S
N458 C460 1.359 . S
N458 C461 1.327 . S
C459 H445 0.931 . S
C459 C461 1.392 . S
C459 C462 1.370 . S
C460 C456 1.432 . S
C460 N458 1.359 . S
C460 C463 1.414 . S
C461 H443 0.930 . S
C461 N458 1.327 . S
C461 C459 1.392 . S
C462 H457 0.930 . S
C462 C459 1.370 . S
C462 C463 1.385 . S
C463 C460 1.414 . S
C463 C462 1.385 . S
C463 C485 1.444 . S
O464 Tb420 2.546 . S
O464 C484 1.251 . S
O465 Tb420 2.610 . S
O465 Tb431 2.362 . S
O465 C476 1.283 . S
O466 Tb431 2.421 . S
O466 C483 1.262 . S
O467 Tb420 2.320 . S
O467 C483 1.260 . S
O468 Tb420 2.552 . S
O468 C476 1.243 . S
O469 Tb420 2.413 . S
O469 C484 1.256 . S
O470 Tb431 2.546 . S
O470 C495 1.251 . S
O471 Tb420 2.362 . S
O471 Tb431 2.610 . S
O471 C487 1.283 . S
O472 Tb420 2.421 . S
O472 C494 1.262 . S
O473 Tb431 2.320 . S
O473 C494 1.260 . S
O474 Tb431 2.552 . S
O474 C487 1.243 . S
O475 Tb431 2.413 . S
O475 C495 1.256 . S
C476 O465 1.283 . S
C476 O468 1.243 . S
C477 C479 1.382 . S
C477 C481 1.393 . S
C477 C484 1.500 . S
C478 C479 1.400 . S
C478 C480 1.384 . S
C479 C477 1.382 . S
C479 C478 1.400 . S
C479 H496 0.930 . S
C480 C478 1.384 . S
C480 C482 1.392 . S
C480 H497 0.931 . S
C481 C477 1.393 . S
C481 C482 1.401 . S
C481 H498 0.930 . S
C482 C480 1.392 . S
C482 C481 1.401 . S
C482 H499 0.930 . S
C483 O466 1.262 . S
C483 O467 1.260 . S
C484 Tb420 2.833 . S
C484 O464 1.251 . S
C484 O469 1.256 . S
C484 C477 1.500 . S
C485 H450 0.929 . S
C485 C463 1.444 . S
C485 C486 1.317 . S
C486 H448 0.930 . S
C486 C454 1.432 . S
C486 C485 1.317 . S
C487 O471 1.283 . S
C487 O474 1.243 . S
C488 C489 1.382 . S
C488 C492 1.393 . S
C488 C495 1.500 . S
C489 C488 1.382 . S
C489 C490 1.400 . S
C489 H500 0.930 . S
C490 C489 1.400 . S
C490 C491 1.384 . S
C491 C490 1.384 . S
C491 C493 1.392 . S
C491 H501 0.931 . S
C492 C488 1.393 . S
C492 C493 1.401 . S
C492 H502 0.930 . S
C493 C491 1.392 . S
C493 C492 1.401 . S
C493 H503 0.930 . S
C494 O472 1.262 . S
C494 O473 1.260 . S
C495 Tb431 2.833 . S
C495 O470 1.251 . S
C495 O475 1.256 . S
C495 C488 1.500 . S
H496 C479 0.930 . S
H497 C480 0.931 . S
H498 C481 0.930 . S
H499 C482 0.930 . S
H500 C489 0.930 . S
H501 C491 0.931 . S
H502 C492 0.930 . S
H503 C493 0.930 . S
Tb504 N535 2.660 . S
Tb504 N542 2.600 . S
Tb504 O548 2.546 . S
Tb504 O549 2.610 . S
Tb504 O551 2.320 . S
Tb504 O552 2.552 . S
Tb504 O553 2.413 . S
Tb504 O555 2.362 . S
Tb504 O556 2.421 . S
Tb504 C568 2.833 . S
C505 C508 1.432 . S
C505 C509 1.414 . S
C505 N512 1.359 1_565 S
C506 C508 1.417 . S
C506 C510 1.432 . S
C506 C518 1.410 . S
C507 C509 1.444 . S
C507 C510 1.317 . S
C507 H530 0.929 . S
C508 C505 1.432 . S
C508 C506 1.417 . S
C508 N516 1.360 1_565 S
C509 C505 1.414 . S
C509 C507 1.444 . S
C509 C514 1.385 . S
C510 C506 1.432 . S
C510 C507 1.317 . S
C510 H522 0.930 . S
C511 C513 1.392 1_565 S
C511 C514 1.370 . S
C511 H523 0.931 . S
N512 C505 1.359 1_545 S
N512 C513 1.327 . S
N512 Tb515 2.600 . S
C513 C511 1.392 1_545 S
C513 N512 1.327 . S
C513 H520 0.930 . S
C514 C509 1.385 . S
C514 C511 1.370 . S
C514 H533 0.930 . S
Tb515 N512 2.600 . S
Tb515 N516 2.660 . S
Tb515 O549 2.362 . S
Tb515 O550 2.421 . S
Tb515 O554 2.546 1_545 S
Tb515 O555 2.610 . S
Tb515 O557 2.320 . S
Tb515 O558 2.552 . S
Tb515 O559 2.413 1_545 S
Tb515 C579 2.833 1_545 S
N516 C508 1.360 1_545 S
N516 Tb515 2.660 . S
N516 C517 1.305 . S
C517 N516 1.305 . S
C517 C519 1.407 . S
C517 H524 0.930 . S
C518 C506 1.410 . S
C518 C519 1.345 1_565 S
C518 H526 0.930 . S
C519 C517 1.407 . S
C519 C518 1.345 1_545 S
C519 H521 0.930 . S
H520 C513 0.930 . S
H521 C519 0.930 . S
H522 C510 0.930 . S
H523 C511 0.931 . S
H524 C517 0.930 . S
H525 C539 0.930 . S
H526 C518 0.930 . S
H527 C545 0.930 . S
H528 C536 0.930 . S
H529 C543 0.931 . S
H530 C507 0.929 . S
H531 C537 0.930 . S
H532 C570 0.930 . S
H533 C514 0.930 . S
H534 C569 0.929 . S
N535 Tb504 2.660 . S
N535 C536 1.305 . S
N535 C540 1.360 . S
C536 H528 0.930 . S
C536 N535 1.305 . S
C536 C539 1.407 . S
C537 H531 0.930 . S
C537 C538 1.410 . S
C537 C539 1.345 . S
C538 C537 1.410 . S
C538 C540 1.417 . S
C538 C570 1.432 . S
C539 H525 0.930 . S
C539 C536 1.407 . S
C539 C537 1.345 . S
C540 N535 1.360 . S
C540 C538 1.417 . S
C540 C544 1.432 . S
H541 C546 0.930 . S
N542 Tb504 2.600 . S
N542 C544 1.359 . S
N542 C545 1.327 . S
C543 H529 0.931 . S
C543 C545 1.392 . S
C543 C546 1.370 . S
C544 C540 1.432 . S
C544 N542 1.359 . S
C544 C547 1.414 . S
C545 H527 0.930 . S
C545 N542 1.327 . S
C545 C543 1.392 . S
C546 H541 0.930 . S
C546 C543 1.370 . S
C546 C547 1.385 . S
C547 C544 1.414 . S
C547 C546 1.385 . S
C547 C569 1.444 . S
O548 Tb504 2.546 . S
O548 C568 1.251 . S
O549 Tb504 2.610 . S
O549 Tb515 2.362 . S
O549 C560 1.283 . S
O550 Tb515 2.421 . S
O550 C567 1.262 . S
O551 Tb504 2.320 . S
O551 C567 1.260 . S
O552 Tb504 2.552 . S
O552 C560 1.243 . S
O553 Tb504 2.413 . S
O553 C568 1.256 . S
O554 Tb515 2.546 1_565 S
O554 C579 1.251 . S
O555 Tb504 2.362 . S
O555 Tb515 2.610 . S
O555 C571 1.283 . S
O556 Tb504 2.421 . S
O556 C578 1.262 . S
O557 Tb515 2.320 . S
O557 C578 1.260 . S
O558 Tb515 2.552 . S
O558 C571 1.243 . S
O559 Tb515 2.413 1_565 S
O559 C579 1.256 . S
C560 O549 1.283 . S
C560 O552 1.243 . S
C561 C563 1.382 . S
C561 C565 1.393 . S
C561 C568 1.500 . S
C562 C563 1.400 . S
C562 C564 1.384 . S
C563 C561 1.382 . S
C563 C562 1.400 . S
C563 H580 0.930 . S
C564 C562 1.384 . S
C564 C566 1.392 . S
C564 H581 0.931 . S
C565 C561 1.393 . S
C565 C566 1.401 . S
C565 H582 0.930 . S
C566 C564 1.392 . S
C566 C565 1.401 . S
C566 H583 0.930 . S
C567 O550 1.262 . S
C567 O551 1.260 . S
C568 Tb504 2.833 . S
C568 O548 1.251 . S
C568 O553 1.256 . S
C568 C561 1.500 . S
C569 H534 0.929 . S
C569 C547 1.444 . S
C569 C570 1.317 . S
C570 H532 0.930 . S
C570 C538 1.432 . S
C570 C569 1.317 . S
C571 O555 1.283 . S
C571 O558 1.243 . S
C572 C573 1.382 . S
C572 C576 1.393 . S
C572 C579 1.500 . S
C573 C572 1.382 . S
C573 C574 1.400 . S
C573 H584 0.930 . S
C574 C573 1.400 . S
C574 C575 1.384 . S
C575 C574 1.384 . S
C575 C577 1.392 . S
C575 H585 0.931 . S
C576 C572 1.393 . S
C576 C577 1.401 . S
C576 H586 0.930 . S
C577 C575 1.392 . S
C577 C576 1.401 . S
C577 H587 0.930 . S
C578 O556 1.262 . S
C578 O557 1.260 . S
C579 Tb515 2.833 1_565 S
C579 O554 1.251 . S
C579 O559 1.256 . S
C579 C572 1.500 . S
H580 C563 0.930 . S
H581 C564 0.931 . S
H582 C565 0.930 . S
H583 C566 0.930 . S
H584 C573 0.930 . S
H585 C575 0.931 . S
H586 C576 0.930 . S
H587 C577 0.930 . S
Tb588 N619 2.660 . S
Tb588 N626 2.600 . S
Tb588 O632 2.546 . S
Tb588 O633 2.610 . S
Tb588 O635 2.320 . S
Tb588 O636 2.552 . S
Tb588 O637 2.413 . S
Tb588 O639 2.362 . S
Tb588 O640 2.421 . S
Tb588 C652 2.833 . S
C589 C592 1.432 . S
C589 C593 1.414 . S
C589 N596 1.359 1_455 S
C590 C592 1.417 . S
C590 C594 1.432 . S
C590 C602 1.410 . S
C591 C593 1.444 . S
C591 C594 1.317 . S
C591 H614 0.929 . S
C592 C589 1.432 . S
C592 C590 1.417 . S
C592 N600 1.360 1_455 S
C593 C589 1.414 . S
C593 C591 1.444 . S
C593 C598 1.385 . S
C594 C590 1.432 . S
C594 C591 1.317 . S
C594 H606 0.930 . S
C595 C597 1.392 1_455 S
C595 C598 1.370 . S
C595 H607 0.931 . S
N596 C589 1.359 1_655 S
N596 C597 1.327 . S
N596 Tb599 2.600 . S
C597 C595 1.392 1_655 S
C597 N596 1.327 . S
C597 H604 0.930 . S
C598 C593 1.385 . S
C598 C595 1.370 . S
C598 H617 0.930 . S
Tb599 N596 2.600 . S
Tb599 N600 2.660 . S
Tb599 O633 2.362 . S
Tb599 O634 2.421 . S
Tb599 O638 2.546 1_655 S
Tb599 O639 2.610 . S
Tb599 O641 2.320 . S
Tb599 O642 2.552 . S
Tb599 O643 2.413 1_655 S
Tb599 C663 2.833 1_655 S
N600 C592 1.360 1_655 S
N600 Tb599 2.660 . S
N600 C601 1.305 . S
C601 N600 1.305 . S
C601 C603 1.407 1_655 S
C601 H608 0.930 . S
C602 C590 1.410 . S
C602 C603 1.345 . S
C602 H610 0.930 . S
C603 C601 1.407 1_455 S
C603 C602 1.345 . S
C603 H605 0.930 . S
H604 C597 0.930 . S
H605 C603 0.930 . S
H606 C594 0.930 . S
H607 C595 0.931 . S
H608 C601 0.930 . S
H609 C623 0.930 . S
H610 C602 0.930 . S
H611 C629 0.930 . S
H612 C620 0.930 . S
H613 C627 0.931 . S
H614 C591 0.929 . S
H615 C621 0.930 . S
H616 C654 0.930 . S
H617 C598 0.930 . S
H618 C653 0.929 . S
N619 Tb588 2.660 . S
N619 C620 1.305 . S
N619 C624 1.360 . S
C620 H612 0.930 . S
C620 N619 1.305 . S
C620 C623 1.407 . S
C621 H615 0.930 . S
C621 C622 1.410 . S
C621 C623 1.345 1_565 S
C622 C621 1.410 . S
C622 C624 1.417 1_565 S
C622 C654 1.432 . S
C623 H609 0.930 . S
C623 C620 1.407 . S
C623 C621 1.345 1_545 S
C624 N619 1.360 . S
C624 C622 1.417 1_545 S
C624 C628 1.432 . S
H625 C630 0.930 1_565 S
N626 Tb588 2.600 . S
N626 C628 1.359 . S
N626 C629 1.327 . S
C627 H613 0.931 . S
C627 C629 1.392 . S
C627 C630 1.370 . S
C628 C624 1.432 . S
C628 N626 1.359 . S
C628 C631 1.414 . S
C629 H611 0.930 . S
C629 N626 1.327 . S
C629 C627 1.392 . S
C630 H625 0.930 1_545 S
C630 C627 1.370 . S
C630 C631 1.385 . S
C631 C628 1.414 . S
C631 C630 1.385 . S
C631 C653 1.444 1_545 S
O632 Tb588 2.546 . S
O632 C652 1.251 . S
O633 Tb588 2.610 . S
O633 Tb599 2.362 . S
O633 C644 1.283 . S
O634 Tb599 2.421 . S
O634 C651 1.262 . S
O635 Tb588 2.320 . S
O635 C651 1.260 . S
O636 Tb588 2.552 . S
O636 C644 1.243 . S
O637 Tb588 2.413 . S
O637 C652 1.256 . S
O638 Tb599 2.546 1_455 S
O638 C663 1.251 . S
O639 Tb588 2.362 . S
O639 Tb599 2.610 . S
O639 C655 1.283 . S
O640 Tb588 2.421 . S
O640 C662 1.262 . S
O641 Tb599 2.320 . S
O641 C662 1.260 . S
O642 Tb599 2.552 . S
O642 C655 1.243 . S
O643 Tb599 2.413 1_455 S
O643 C663 1.256 . S
C644 O633 1.283 . S
C644 O636 1.243 . S
C645 C647 1.382 . S
C645 C649 1.393 . S
C645 C652 1.500 . S
C646 C647 1.400 . S
C646 C648 1.384 . S
C647 C645 1.382 . S
C647 C646 1.400 . S
C647 H664 0.930 . S
C648 C646 1.384 . S
C648 C650 1.392 . S
C648 H665 0.931 . S
C649 C645 1.393 . S
C649 C650 1.401 . S
C649 H666 0.930 . S
C650 C648 1.392 . S
C650 C649 1.401 . S
C650 H667 0.930 . S
C651 O634 1.262 . S
C651 O635 1.260 . S
C652 Tb588 2.833 . S
C652 O632 1.251 . S
C652 O637 1.256 . S
C652 C645 1.500 . S
C653 H618 0.929 . S
C653 C631 1.444 1_565 S
C653 C654 1.317 . S
C654 H616 0.930 . S
C654 C622 1.432 . S
C654 C653 1.317 . S
C655 O639 1.283 . S
C655 O642 1.243 . S
C656 C657 1.382 . S
C656 C660 1.393 . S
C656 C663 1.500 . S
C657 C656 1.382 . S
C657 C658 1.400 . S
C657 H668 0.930 . S
C658 C657 1.400 . S
C658 C659 1.384 . S
C659 C658 1.384 . S
C659 C661 1.392 . S
C659 H669 0.931 . S
C660 C656 1.393 . S
C660 C661 1.401 . S
C660 H670 0.930 . S
C661 C659 1.392 . S
C661 C660 1.401 . S
C661 H671 0.930 . S
C662 O640 1.262 . S
C662 O641 1.260 . S
C663 Tb599 2.833 1_455 S
C663 O638 1.251 . S
C663 O643 1.256 . S
C663 C656 1.500 . S
H664 C647 0.930 . S
H665 C648 0.931 . S
H666 C649 0.930 . S
H667 C650 0.930 . S
H668 C657 0.930 . S
H669 C659 0.931 . S
H670 C660 0.930 . S
H671 C661 0.930 . S
Tb672 N703 2.660 . S
Tb672 N710 2.600 . S
Tb672 O716 2.546 . S
Tb672 O717 2.610 . S
Tb672 O719 2.320 . S
Tb672 O720 2.552 . S
Tb672 O721 2.413 . S
Tb672 O723 2.362 . S
Tb672 O724 2.421 . S
Tb672 C736 2.833 . S
C673 C676 1.432 . S
C673 C677 1.414 . S
C673 N680 1.359 . S
C674 C676 1.417 . S
C674 C678 1.432 . S
C674 C686 1.410 . S
C675 C677 1.444 . S
C675 C678 1.317 . S
C675 H698 0.929 . S
C676 C673 1.432 . S
C676 C674 1.417 . S
C676 N684 1.360 . S
C677 C673 1.414 . S
C677 C675 1.444 . S
C677 C682 1.385 . S
C678 C674 1.432 . S
C678 C675 1.317 . S
C678 H690 0.930 . S
C679 C681 1.392 . S
C679 C682 1.370 . S
C679 H691 0.931 . S
N680 C673 1.359 . S
N680 C681 1.327 . S
N680 Tb683 2.600 . S
C681 C679 1.392 . S
C681 N680 1.327 . S
C681 H688 0.930 . S
C682 C677 1.385 . S
C682 C679 1.370 . S
C682 H701 0.930 . S
Tb683 N680 2.600 . S
Tb683 N684 2.660 . S
Tb683 O717 2.362 . S
Tb683 O718 2.421 . S
Tb683 O722 2.546 . S
Tb683 O723 2.610 . S
Tb683 O725 2.320 . S
Tb683 O726 2.552 . S
Tb683 O727 2.413 . S
Tb683 C747 2.833 . S
N684 C676 1.360 . S
N684 Tb683 2.660 . S
N684 C685 1.305 . S
C685 N684 1.305 . S
C685 C687 1.407 . S
C685 H692 0.930 . S
C686 C674 1.410 . S
C686 C687 1.345 . S
C686 H694 0.930 . S
C687 C685 1.407 . S
C687 C686 1.345 . S
C687 H689 0.930 . S
H688 C681 0.930 . S
H689 C687 0.930 . S
H690 C678 0.930 . S
H691 C679 0.931 . S
H692 C685 0.930 . S
H693 C707 0.930 . S
H694 C686 0.930 . S
H695 C713 0.930 . S
H696 C704 0.930 . S
H697 C711 0.931 . S
H698 C675 0.929 . S
H699 C705 0.930 . S
H700 C738 0.930 . S
H701 C682 0.930 . S
H702 C737 0.929 . S
N703 Tb672 2.660 . S
N703 C704 1.305 . S
N703 C708 1.360 . S
C704 H696 0.930 . S
C704 N703 1.305 . S
C704 C707 1.407 . S
C705 H699 0.930 . S
C705 C706 1.410 . S
C705 C707 1.345 1_455 S
C706 C705 1.410 . S
C706 C708 1.417 1_455 S
C706 C738 1.432 . S
C707 H693 0.930 . S
C707 C704 1.407 . S
C707 C705 1.345 1_655 S
C708 N703 1.360 . S
C708 C706 1.417 1_655 S
C708 C712 1.432 . S
H709 C714 0.930 1_455 S
N710 Tb672 2.600 . S
N710 C712 1.359 . S
N710 C713 1.327 . S
C711 H697 0.931 . S
C711 C713 1.392 . S
C711 C714 1.370 . S
C712 C708 1.432 . S
C712 N710 1.359 . S
C712 C715 1.414 1_655 S
C713 H695 0.930 . S
C713 N710 1.327 . S
C713 C711 1.392 . S
C714 H709 0.930 1_655 S
C714 C711 1.370 . S
C714 C715 1.385 1_655 S
C715 C712 1.414 1_455 S
C715 C714 1.385 1_455 S
C715 C737 1.444 . S
O716 Tb672 2.546 . S
O716 C736 1.251 . S
O717 Tb672 2.610 . S
O717 Tb683 2.362 . S
O717 C728 1.283 . S
O718 Tb683 2.421 . S
O718 C735 1.262 . S
O719 Tb672 2.320 . S
O719 C735 1.260 . S
O720 Tb672 2.552 . S
O720 C728 1.243 . S
O721 Tb672 2.413 . S
O721 C736 1.256 . S
O722 Tb683 2.546 . S
O722 C747 1.251 . S
O723 Tb672 2.362 . S
O723 Tb683 2.610 . S
O723 C739 1.283 . S
O724 Tb672 2.421 . S
O724 C746 1.262 . S
O725 Tb683 2.320 . S
O725 C746 1.260 . S
O726 Tb683 2.552 . S
O726 C739 1.243 . S
O727 Tb683 2.413 . S
O727 C747 1.256 . S
C728 O717 1.283 . S
C728 O720 1.243 . S
C729 C731 1.382 . S
C729 C733 1.393 . S
C729 C736 1.500 . S
C730 C731 1.400 . S
C730 C732 1.384 . S
C731 C729 1.382 . S
C731 C730 1.400 . S
C731 H748 0.930 . S
C732 C730 1.384 . S
C732 C734 1.392 . S
C732 H749 0.931 . S
C733 C729 1.393 . S
C733 C734 1.401 . S
C733 H750 0.930 . S
C734 C732 1.392 . S
C734 C733 1.401 . S
C734 H751 0.930 . S
C735 O718 1.262 . S
C735 O719 1.260 . S
C736 Tb672 2.833 . S
C736 O716 1.251 . S
C736 O721 1.256 . S
C736 C729 1.500 . S
C737 H702 0.929 . S
C737 C715 1.444 . S
C737 C738 1.317 . S
C738 H700 0.930 . S
C738 C706 1.432 . S
C738 C737 1.317 . S
C739 O723 1.283 . S
C739 O726 1.243 . S
C740 C741 1.382 . S
C740 C744 1.393 . S
C740 C747 1.500 . S
C741 C740 1.382 . S
C741 C742 1.400 . S
C741 H752 0.930 . S
C742 C741 1.400 . S
C742 C743 1.384 . S
C743 C742 1.384 . S
C743 C745 1.392 . S
C743 H753 0.931 . S
C744 C740 1.393 . S
C744 C745 1.401 . S
C744 H754 0.930 . S
C745 C743 1.392 . S
C745 C744 1.401 . S
C745 H755 0.930 . S
C746 O724 1.262 . S
C746 O725 1.260 . S
C747 Tb683 2.833 . S
C747 O722 1.251 . S
C747 O727 1.256 . S
C747 C740 1.500 . S
H748 C731 0.930 . S
H749 C732 0.931 . S
H750 C733 0.930 . S
H751 C734 0.930 . S
H752 C741 0.930 . S
H753 C743 0.931 . S
H754 C744 0.930 . S
H755 C745 0.930 . S
C756 C757 1.363 . S
C756 C762 1.379 . S
C756 N764 1.356 . S
C757 C756 1.363 . S
C757 C763 1.363 . S
C758 C759 1.363 . S
C758 C763 1.379 . S
C758 N765 1.356 . S
C759 C758 1.363 . S
C759 C762 1.363 . S
N760 C762 1.359 . S
N760 H772 0.985 . S
N760 H773 0.982 1_554 S
N761 C763 1.356 . S
N761 H766 0.984 . S
N761 H767 0.985 . S
C762 C756 1.379 . S
C762 C759 1.363 . S
C762 N760 1.359 . S
C763 C757 1.363 . S
C763 C758 1.379 . S
C763 N761 1.356 . S
N764 C756 1.356 . S
N764 H770 0.984 . S
N764 H771 0.984 . S
N765 C758 1.356 . S
N765 H768 0.982 1_554 S
N765 H769 0.985 . S
H766 N761 0.984 . S
H767 N761 0.985 . S
H768 N765 0.982 1_556 S
H769 N765 0.985 . S
H770 N764 0.984 . S
H771 N764 0.984 . S
H772 N760 0.985 . S
H773 N760 0.982 1_556 S
C774 C775 1.363 1_556 S
C774 C780 1.379 . S
C774 N782 1.356 . S
C775 C774 1.363 1_554 S
C775 C781 1.363 . S
C776 C777 1.363 . S
C776 C781 1.379 . S
C776 N783 1.356 . S
C777 C776 1.363 . S
C777 C780 1.363 1_554 S
N778 C780 1.356 . S
N778 H790 0.984 . S
N778 H791 0.985 . S
N779 C781 1.356 . S
N779 H784 0.984 . S
N779 H785 0.985 . S
C780 C774 1.379 . S
C780 C777 1.363 1_556 S
C780 N778 1.356 . S
C781 C775 1.363 . S
C781 C776 1.379 . S
C781 N779 1.356 . S
N782 C774 1.356 . S
N782 H788 0.984 . S
N782 H789 0.984 . S
N783 C776 1.356 . S
N783 H786 0.984 . S
N783 H787 0.985 . S
H784 N779 0.984 . S
H785 N779 0.985 . S
H786 N783 0.984 . S
H787 N783 0.985 . S
H788 N782 0.984 . S
H789 N782 0.984 . S
H790 N778 0.984 . S
H791 N778 0.985 . S
C792 C793 1.363 1_556 S
C792 C798 1.379 . S
C792 N800 1.356 . S
C793 C792 1.363 1_554 S
C793 C799 1.363 . S
C794 C795 1.363 . S
C794 C799 1.379 . S
C794 N801 1.356 . S
C795 C794 1.363 . S
C795 C798 1.363 1_554 S
N796 C798 1.356 . S
N796 H808 0.984 . S
N796 H809 0.985 . S
N797 C799 1.356 . S
N797 H802 0.984 . S
N797 H803 0.985 . S
C798 C792 1.379 . S
C798 C795 1.363 1_556 S
C798 N796 1.356 . S
C799 C793 1.363 . S
C799 C794 1.379 . S
C799 N797 1.356 . S
N800 C792 1.356 . S
N800 H806 0.984 . S
N800 H807 0.984 . S
N801 C794 1.356 . S
N801 H804 0.984 . S
N801 H805 0.985 . S
H802 N797 0.984 . S
H803 N797 0.985 . S
H804 N801 0.984 . S
H805 N801 0.985 . S
H806 N800 0.984 . S
H807 N800 0.984 . S
H808 N796 0.984 . S
H809 N796 0.985 . S
C810 C811 1.363 . S
C810 C816 1.379 . S
C810 N818 1.356 . S
C811 C810 1.363 . S
C811 C817 1.363 1_556 S
C812 C813 1.367 . S
C812 C817 1.379 . S
C812 N819 1.356 . S
C813 C812 1.367 . S
C813 C816 1.357 1_554 S
N814 C816 1.356 . S
N814 H826 0.984 . S
N814 H827 0.985 . S
N815 C817 1.356 . S
N815 H820 0.984 . S
N815 H821 0.985 . S
C816 C810 1.379 . S
C816 C813 1.357 1_556 S
C816 N814 1.356 . S
C817 C811 1.363 1_554 S
C817 C812 1.379 . S
C817 N815 1.356 . S
N818 C810 1.356 . S
N818 H824 0.984 . S
N818 H825 0.984 . S
N819 C812 1.356 . S
N819 H822 0.984 . S
N819 H823 0.985 . S
H820 N815 0.984 . S
H821 N815 0.985 . S
H822 N819 0.984 . S
H823 N819 0.985 . S
H824 N818 0.984 . S
H825 N818 0.984 . S
H826 N814 0.984 . S
H827 N814 0.985 . S
C828 C829 1.367 . S
C828 C834 1.379 . S
C828 N836 1.356 . S
C829 C828 1.367 . S
C829 C835 1.357 1_554 S
C830 C831 1.363 . S
C830 C835 1.379 . S
C830 N837 1.356 . S
C831 C830 1.363 . S
C831 C834 1.363 1_556 S
N832 C834 1.356 . S
N832 H844 0.984 . S
N832 H845 0.985 . S
N833 C835 1.356 . S
N833 H838 0.984 . S
N833 H839 0.985 . S
C834 C828 1.379 . S
C834 C831 1.363 1_554 S
C834 N832 1.356 . S
C835 C829 1.357 1_556 S
C835 C830 1.379 . S
C835 N833 1.356 . S
N836 C828 1.356 . S
N836 H842 0.984 . S
N836 H843 0.984 . S
N837 C830 1.356 . S
N837 H840 0.984 . S
N837 H841 0.985 . S
H838 N833 0.984 . S
H839 N833 0.985 . S
H840 N837 0.984 . S
H841 N837 0.985 . S
H842 N836 0.984 . S
H843 N836 0.984 . S
H844 N832 0.984 . S
H845 N832 0.985 . S
C846 C847 1.356 1_556 S
C846 C852 1.379 . S
C846 N854 1.356 . S
C847 C846 1.356 1_554 S
C847 C853 1.369 . S
C848 C849 1.363 1_554 S
C848 C853 1.379 . S
C848 N855 1.356 . S
C849 C848 1.363 1_556 S
C849 C852 1.363 . S
N850 C852 1.356 . S
N850 H862 0.984 . S
N850 H863 0.985 . S
N851 C853 1.356 . S
N851 H856 0.984 . S
N851 H857 0.985 . S
C852 C846 1.379 . S
C852 C849 1.363 . S
C852 N850 1.356 . S
C853 C847 1.369 . S
C853 C848 1.379 . S
C853 N851 1.356 . S
N854 C846 1.356 . S
N854 H860 0.984 . S
N854 H861 0.984 . S
N855 C848 1.356 . S
N855 H858 0.984 . S
N855 H859 0.985 . S
H856 N851 0.984 . S
H857 N851 0.985 . S
H858 N855 0.984 . S
H859 N855 0.985 . S
H860 N854 0.984 . S
H861 N854 0.984 . S
H862 N850 0.984 . S
H863 N850 0.985 . S
C864 C865 1.363 . S
C864 C870 1.379 . S
C864 N872 1.356 . S
C865 C864 1.363 . S
C865 C871 1.363 . S
C866 C867 1.363 . S
C866 C871 1.379 . S
C866 N873 1.356 . S
C867 C866 1.363 . S
C867 C870 1.363 . S
N868 C870 1.356 . S
N868 H880 0.984 . S
N868 H881 0.985 . S
N869 C871 1.356 . S
N869 H874 0.984 . S
N869 H875 0.985 . S
C870 C864 1.379 . S
C870 C867 1.363 . S
C870 N868 1.356 . S
C871 C865 1.363 . S
C871 C866 1.379 . S
C871 N869 1.356 . S
N872 C864 1.356 . S
N872 H878 0.984 . S
N872 H879 0.984 . S
N873 C866 1.356 . S
N873 H876 0.984 . S
N873 H877 0.985 . S
H874 N869 0.984 . S
H875 N869 0.985 . S
H876 N873 0.984 . S
H877 N873 0.985 . S
H878 N872 0.984 . S
H879 N872 0.984 . S
H880 N868 0.984 . S
H881 N868 0.985 . S
C882 C883 1.363 . S
C882 C888 1.379 1_545 S
C882 N890 1.356 . S
C883 C882 1.363 . S
C883 C889 1.363 . S
C884 C885 1.363 1_545 S
C884 C889 1.379 . S
C884 N891 1.356 . S
C885 C884 1.363 1_565 S
C885 C888 1.363 . S
N886 C888 1.356 . S
N886 H898 0.984 . S
N886 H899 0.985 . S
N887 C889 1.356 . S
N887 H892 0.984 . S
N887 H893 0.985 . S
C888 C882 1.379 1_565 S
C888 C885 1.363 . S
C888 N886 1.356 . S
C889 C883 1.363 . S
C889 C884 1.379 . S
C889 N887 1.356 . S
N890 C882 1.356 . S
N890 H896 0.984 . S
N890 H897 0.984 . S
N891 C884 1.356 . S
N891 H894 0.984 1_545 S
N891 H895 0.985 . S
H892 N887 0.984 . S
H893 N887 0.985 . S
H894 N891 0.984 1_565 S
H895 N891 0.985 . S
H896 N890 0.984 . S
H897 N890 0.984 . S
H898 N886 0.984 . S
H899 N886 0.985 . S
C900 C901 1.363 . S
C900 C906 1.379 1_455 S
C900 N908 1.356 . S
C901 C900 1.363 . S
C901 C907 1.363 1_455 S
C902 C903 1.363 . S
C902 C907 1.379 . S
C902 N909 1.356 . S
C903 C902 1.363 . S
C903 C906 1.363 . S
N904 C906 1.356 . S
N904 H916 0.984 1_655 S
N904 H917 0.985 . S
N905 C907 1.356 . S
N905 H910 0.984 1_655 S
N905 H911 0.985 . S
C906 C900 1.379 1_655 S
C906 C903 1.363 . S
C906 N904 1.356 . S
C907 C901 1.363 1_655 S
C907 C902 1.379 . S
C907 N905 1.356 . S
N908 C900 1.356 . S
N908 H914 0.984 . S
N908 H915 0.984 . S
N909 C902 1.356 . S
N909 H912 0.984 . S
N909 H913 0.985 . S
H910 N905 0.984 1_455 S
H911 N905 0.985 . S
H912 N909 0.984 . S
H913 N909 0.985 . S
H914 N908 0.984 . S
H915 N908 0.984 . S
H916 N904 0.984 1_455 S
H917 N904 0.985 . S
C918 C919 1.363 . S
C918 C924 1.379 . S
C918 N926 1.356 . S
C919 C918 1.363 . S
C919 C925 1.363 . S
C920 C921 1.363 . S
C920 C925 1.379 . S
C920 N927 1.356 . S
C921 C920 1.363 . S
C921 C924 1.363 . S
N922 C924 1.356 . S
N922 H934 0.984 . S
N922 H935 0.985 . S
N923 C925 1.356 . S
N923 H928 0.984 . S
N923 H929 0.985 . S
C924 C918 1.379 . S
C924 C921 1.363 . S
C924 N922 1.356 . S
C925 C919 1.363 . S
C925 C920 1.379 . S
C925 N923 1.356 . S
N926 C918 1.356 . S
N926 H932 0.984 . S
N926 H933 0.984 . S
N927 C920 1.356 . S
N927 H930 0.984 . S
N927 H931 0.985 . S
H928 N923 0.984 . S
H929 N923 0.985 . S
H930 N927 0.984 . S
H931 N927 0.985 . S
H932 N926 0.984 . S
H933 N926 0.984 . S
H934 N922 0.984 . S
H935 N922 0.985 . S
C936 C937 1.363 . S
C936 C942 1.379 . S
C936 N944 1.356 . S
C937 C936 1.363 . S
C937 C943 1.363 . S
C938 C939 1.363 . S
C938 C943 1.379 . S
C938 N945 1.356 . S
C939 C938 1.363 . S
C939 C942 1.363 . S
N940 C942 1.356 . S
N940 H952 0.984 . S
N940 H953 0.985 . S
N941 C943 1.356 . S
N941 H946 0.984 . S
N941 H947 0.985 . S
C942 C936 1.379 . S
C942 C939 1.363 . S
C942 N940 1.356 . S
C943 C937 1.363 . S
C943 C938 1.379 . S
C943 N941 1.356 . S
N944 C936 1.356 . S
N944 H950 0.984 . S
N944 H951 0.984 . S
N945 C938 1.356 . S
N945 H948 0.984 . S
N945 H949 0.985 . S
H946 N941 0.984 . S
H947 N941 0.985 . S
H948 N945 0.984 . S
H949 N945 0.985 . S
H950 N944 0.984 . S
H951 N944 0.984 . S
H952 N940 0.984 . S
H953 N940 0.985 . S
C954 C955 1.363 . S
C954 C960 1.379 . S
C954 N962 1.356 . S
C955 C954 1.363 . S
C955 C961 1.363 . S
C956 C957 1.363 . S
C956 C961 1.379 . S
C956 N963 1.356 . S
C957 C956 1.363 . S
C957 C960 1.363 . S
N958 C960 1.356 . S
N958 H970 0.984 . S
N958 H971 0.985 . S
N959 C961 1.356 . S
N959 H964 0.984 . S
N959 H965 0.985 . S
C960 C954 1.379 . S
C960 C957 1.363 . S
C960 N958 1.356 . S
C961 C955 1.363 . S
C961 C956 1.379 . S
C961 N959 1.356 . S
N962 C954 1.356 . S
N962 H968 0.984 . S
N962 H969 0.984 . S
N963 C956 1.356 . S
N963 H966 0.984 . S
N963 H967 0.985 . S
H964 N959 0.984 . S
H965 N959 0.985 . S
H966 N963 0.984 . S
H967 N963 0.985 . S
H968 N962 0.984 . S
H969 N962 0.984 . S
H970 N958 0.984 . S
H971 N958 0.985 . S
C972 C973 1.363 . S
C972 C978 1.379 . S
C972 N980 1.356 . S
C973 C972 1.363 . S
C973 C979 1.363 . S
C974 C975 1.363 . S
C974 C979 1.379 . S
C974 N981 1.356 . S
C975 C974 1.363 . S
C975 C978 1.363 . S
N976 C978 1.356 . S
N976 H988 0.984 . S
N976 H989 0.985 . S
N977 C979 1.356 . S
N977 H982 0.984 . S
N977 H983 0.985 . S
C978 C972 1.379 . S
C978 C975 1.363 . S
C978 N976 1.356 . S
C979 C973 1.363 . S
C979 C974 1.379 . S
C979 N977 1.356 . S
N980 C972 1.356 . S
N980 H986 0.984 . S
N980 H987 0.984 . S
N981 C974 1.356 . S
N981 H984 0.984 . S
N981 H985 0.985 . S
H982 N977 0.984 . S
H983 N977 0.985 . S
H984 N981 0.984 . S
H985 N981 0.985 . S
H986 N980 0.984 . S
H987 N980 0.984 . S
H988 N976 0.984 . S
H989 N976 0.985 . S
C990 C991 1.363 . S
C990 C996 1.379 . S
C990 N998 1.356 . S
C991 C990 1.363 . S
C991 C997 1.363 . S
C992 C993 1.363 . S
C992 C997 1.379 . S
C992 N999 1.356 . S
C993 C992 1.363 . S
C993 C996 1.363 . S
N994 C996 1.356 . S
N994 H1006 0.984 . S
N994 H1007 0.985 . S
N995 C997 1.356 . S
N995 H1000 0.984 . S
N995 H1001 0.985 . S
C996 C990 1.379 . S
C996 C993 1.363 . S
C996 N994 1.356 . S
C997 C991 1.363 . S
C997 C992 1.379 . S
C997 N995 1.356 . S
N998 C990 1.356 . S
N998 H1004 0.984 . S
N998 H1005 0.984 . S
N999 C992 1.356 . S
N999 H1002 0.984 . S
N999 H1003 0.985 . S
H1000 N995 0.984 . S
H1001 N995 0.985 . S
H1002 N999 0.984 . S
H1003 N999 0.985 . S
H1004 N998 0.984 . S
H1005 N998 0.984 . S
H1006 N994 0.984 . S
H1007 N994 0.985 . S
C1008 C1009 1.363 . S
C1008 C1014 1.379 . S
C1008 N1016 1.356 . S
C1009 C1008 1.363 . S
C1009 C1015 1.363 . S
C1010 C1011 1.363 . S
C1010 C1015 1.379 . S
C1010 N1017 1.356 . S
C1011 C1010 1.363 . S
C1011 C1014 1.363 . S
N1012 C1014 1.356 . S
N1012 H1024 0.984 . S
N1012 H1025 0.985 . S
N1013 C1015 1.356 . S
N1013 H1018 0.984 . S
N1013 H1019 0.985 . S
C1014 C1008 1.379 . S
C1014 C1011 1.363 . S
C1014 N1012 1.356 . S
C1015 C1009 1.363 . S
C1015 C1010 1.379 . S
C1015 N1013 1.356 . S
N1016 C1008 1.356 . S
N1016 H1022 0.984 . S
N1016 H1023 0.984 . S
N1017 C1010 1.356 . S
N1017 H1020 0.984 . S
N1017 H1021 0.985 . S
H1018 N1013 0.984 . S
H1019 N1013 0.985 . S
H1020 N1017 0.984 . S
H1021 N1017 0.985 . S
H1022 N1016 0.984 . S
H1023 N1016 0.984 . S
H1024 N1012 0.984 . S
H1025 N1012 0.985 . S
C1026 C1027 1.363 1_545 S
C1026 C1032 1.379 . S
C1026 N1034 1.356 1_545 S
C1027 C1026 1.363 1_565 S
C1027 C1033 1.363 . S
C1028 C1029 1.363 . S
C1028 C1033 1.379 1_545 S
C1028 N1035 1.356 . S
C1029 C1028 1.363 . S
C1029 C1032 1.363 . S
N1030 C1032 1.356 . S
N1030 H1042 0.984 . S
N1030 H1043 0.985 . S
N1031 C1033 1.356 . S
N1031 H1036 0.984 . S
N1031 H1037 0.985 . S
C1032 C1026 1.379 . S
C1032 C1029 1.363 . S
C1032 N1030 1.356 . S
C1033 C1027 1.363 . S
C1033 C1028 1.379 1_565 S
C1033 N1031 1.356 . S
N1034 C1026 1.356 1_565 S
N1034 H1040 0.984 . S
N1034 H1041 0.984 . S
N1035 C1028 1.356 . S
N1035 H1038 0.984 . S
N1035 H1039 0.985 . S
H1036 N1031 0.984 . S
H1037 N1031 0.985 . S
H1038 N1035 0.984 . S
H1039 N1035 0.985 . S
H1040 N1034 0.984 . S
H1041 N1034 0.984 . S
H1042 N1030 0.984 . S
H1043 N1030 0.985 . S
C1044 C1045 1.363 . S
C1044 C1050 1.379 1_655 S
C1044 N1052 1.356 . S
C1045 C1044 1.363 . S
C1045 C1051 1.363 . S
C1046 C1047 1.363 . S
C1046 C1051 1.379 1_455 S
C1046 N1053 1.356 . S
C1047 C1046 1.363 . S
C1047 C1050 1.363 . S
N1048 C1050 1.356 . S
N1048 H1060 0.984 . S
N1048 H1061 0.985 . S
N1049 C1051 1.356 . S
N1049 H1054 0.984 . S
N1049 H1055 0.985 . S
C1050 C1044 1.379 1_455 S
C1050 C1047 1.363 . S
C1050 N1048 1.356 . S
C1051 C1045 1.363 . S
C1051 C1046 1.379 1_655 S
C1051 N1049 1.356 . S
N1052 C1044 1.356 . S
N1052 H1058 0.984 . S
N1052 H1059 0.984 . S
N1053 C1046 1.356 . S
N1053 H1056 0.984 . S
N1053 H1057 0.985 . S
H1054 N1049 0.984 . S
H1055 N1049 0.985 . S
H1056 N1053 0.984 . S
H1057 N1053 0.985 . S
H1058 N1052 0.984 . S
H1059 N1052 0.984 . S
H1060 N1048 0.984 . S
H1061 N1048 0.985 . S
C1062 C1063 1.363 . S
C1062 C1068 1.379 . S
C1062 N1070 1.356 . S
C1063 C1062 1.363 . S
C1063 C1069 1.363 . S
C1064 C1065 1.363 . S
C1064 C1069 1.379 . S
C1064 N1071 1.356 . S
C1065 C1064 1.363 . S
C1065 C1068 1.363 . S
N1066 C1068 1.356 . S
N1066 H1078 0.984 . S
N1066 H1079 0.985 . S
N1067 C1069 1.356 . S
N1067 H1072 0.984 . S
N1067 H1073 0.985 . S
C1068 C1062 1.379 . S
C1068 C1065 1.363 . S
C1068 N1066 1.356 . S
C1069 C1063 1.363 . S
C1069 C1064 1.379 . S
C1069 N1067 1.356 . S
N1070 C1062 1.356 . S
N1070 H1076 0.984 . S
N1070 H1077 0.984 . S
N1071 C1064 1.356 . S
N1071 H1074 0.984 . S
N1071 H1075 0.985 . S
H1072 N1067 0.984 . S
H1073 N1067 0.985 . S
H1074 N1071 0.984 . S
H1075 N1071 0.985 . S
H1076 N1070 0.984 . S
H1077 N1070 0.984 . S
H1078 N1066 0.984 . S
H1079 N1066 0.985 . S
C1080 C1081 1.363 . S
C1080 C1086 1.379 . S
C1080 N1088 1.356 . S
C1081 C1080 1.363 . S
C1081 C1087 1.363 . S
C1082 C1083 1.363 . S
C1082 C1087 1.379 . S
C1082 N1089 1.356 . S
C1083 C1082 1.363 . S
C1083 C1086 1.363 . S
N1084 C1086 1.356 . S
N1084 H1096 0.984 . S
N1084 H1097 0.985 . S
N1085 C1087 1.356 . S
N1085 H1090 0.984 . S
N1085 H1091 0.985 . S
C1086 C1080 1.379 . S
C1086 C1083 1.363 . S
C1086 N1084 1.356 . S
C1087 C1081 1.363 . S
C1087 C1082 1.379 . S
C1087 N1085 1.356 . S
N1088 C1080 1.356 . S
N1088 H1094 0.984 . S
N1088 H1095 0.984 . S
N1089 C1082 1.356 . S
N1089 H1092 0.984 . S
N1089 H1093 0.985 . S
H1090 N1085 0.984 . S
H1091 N1085 0.985 . S
H1092 N1089 0.984 . S
H1093 N1089 0.985 . S
H1094 N1088 0.984 . S
H1095 N1088 0.984 . S
H1096 N1084 0.984 . S
H1097 N1084 0.985 . S
C1098 C1099 1.363 . S
C1098 C1104 1.379 . S
C1098 N1106 1.356 . S
C1099 C1098 1.363 . S
C1099 C1105 1.363 . S
C1100 C1101 1.363 . S
C1100 C1105 1.379 . S
C1100 N1107 1.356 . S
C1101 C1100 1.363 . S
C1101 C1104 1.363 . S
N1102 C1104 1.356 . S
N1102 H1114 0.984 . S
N1102 H1115 0.985 . S
N1103 C1105 1.356 . S
N1103 H1108 0.984 . S
N1103 H1109 0.985 . S
C1104 C1098 1.379 . S
C1104 C1101 1.363 . S
C1104 N1102 1.356 . S
C1105 C1099 1.363 . S
C1105 C1100 1.379 . S
C1105 N1103 1.356 . S
N1106 C1098 1.356 . S
N1106 H1112 0.984 . S
N1106 H1113 0.984 . S
N1107 C1100 1.356 . S
N1107 H1110 0.984 . S
N1107 H1111 0.985 . S
H1108 N1103 0.984 . S
H1109 N1103 0.985 . S
H1110 N1107 0.984 . S
H1111 N1107 0.985 . S
H1112 N1106 0.984 . S
H1113 N1106 0.984 . S
H1114 N1102 0.984 . S
H1115 N1102 0.985 . S
C1116 C1117 1.363 . S
C1116 C1122 1.379 . S
C1116 N1124 1.356 . S
C1117 C1116 1.363 . S
C1117 C1123 1.363 . S
C1118 C1119 1.363 . S
C1118 C1123 1.379 . S
C1118 N1125 1.356 . S
C1119 C1118 1.363 . S
C1119 C1122 1.363 . S
N1120 C1122 1.356 . S
N1120 H1132 0.984 . S
N1120 H1133 0.985 . S
N1121 C1123 1.356 . S
N1121 H1126 0.984 . S
N1121 H1127 0.985 . S
C1122 C1116 1.379 . S
C1122 C1119 1.363 . S
C1122 N1120 1.356 . S
C1123 C1117 1.363 . S
C1123 C1118 1.379 . S
C1123 N1121 1.356 . S
N1124 C1116 1.356 . S
N1124 H1130 0.984 . S
N1124 H1131 0.984 . S
N1125 C1118 1.356 . S
N1125 H1128 0.984 . S
N1125 H1129 0.985 . S
H1126 N1121 0.984 . S
H1127 N1121 0.985 . S
H1128 N1125 0.984 . S
H1129 N1125 0.985 . S
H1130 N1124 0.984 . S
H1131 N1124 0.984 . S
H1132 N1120 0.984 . S
H1133 N1120 0.985 . S
C1134 C1135 1.363 . S
C1134 C1140 1.379 . S
C1134 N1142 1.356 . S
C1135 C1134 1.363 . S
C1135 C1141 1.363 . S
C1136 C1137 1.363 . S
C1136 C1141 1.379 . S
C1136 N1143 1.356 . S
C1137 C1136 1.363 . S
C1137 C1140 1.363 . S
N1138 C1140 1.356 . S
N1138 H1150 0.984 . S
N1138 H1151 0.985 . S
N1139 C1141 1.356 . S
N1139 H1144 0.984 . S
N1139 H1145 0.985 . S
C1140 C1134 1.379 . S
C1140 C1137 1.363 . S
C1140 N1138 1.356 . S
C1141 C1135 1.363 . S
C1141 C1136 1.379 . S
C1141 N1139 1.356 . S
N1142 C1134 1.356 . S
N1142 H1148 0.984 . S
N1142 H1149 0.984 . S
N1143 C1136 1.356 . S
N1143 H1146 0.984 . S
N1143 H1147 0.985 . S
H1144 N1139 0.984 . S
H1145 N1139 0.985 . S
H1146 N1143 0.984 . S
H1147 N1143 0.985 . S
H1148 N1142 0.984 . S
H1149 N1142 0.984 . S
H1150 N1138 0.984 . S
H1151 N1138 0.985 . S
C1152 C1153 1.363 . S
C1152 C1158 1.379 . S
C1152 N1160 1.356 . S
C1153 C1152 1.363 . S
C1153 C1159 1.363 . S
C1154 C1155 1.363 . S
C1154 C1159 1.379 . S
C1154 N1161 1.356 . S
C1155 C1154 1.363 . S
C1155 C1158 1.363 . S
N1156 C1158 1.356 . S
N1156 H1168 0.984 . S
N1156 H1169 0.985 . S
N1157 C1159 1.356 . S
N1157 H1162 0.984 . S
N1157 H1163 0.985 . S
C1158 C1152 1.379 . S
C1158 C1155 1.363 . S
C1158 N1156 1.356 . S
C1159 C1153 1.363 . S
C1159 C1154 1.379 . S
C1159 N1157 1.356 . S
N1160 C1152 1.356 . S
N1160 H1166 0.984 . S
N1160 H1167 0.984 . S
N1161 C1154 1.356 . S
N1161 H1164 0.984 . S
N1161 H1165 0.985 . S
H1162 N1157 0.984 . S
H1163 N1157 0.985 . S
H1164 N1161 0.984 . S
H1165 N1161 0.985 . S
H1166 N1160 0.984 . S
H1167 N1160 0.984 . S
H1168 N1156 0.984 . S
H1169 N1156 0.985 . S
C1170 C1171 1.363 . S
C1170 C1176 1.379 . S
C1170 N1178 1.356 . S
C1171 C1170 1.363 . S
C1171 C1177 1.363 . S
C1172 C1173 1.363 . S
C1172 C1177 1.379 . S
C1172 N1179 1.356 . S
C1173 C1172 1.363 . S
C1173 C1176 1.363 . S
N1174 C1176 1.356 . S
N1174 H1186 0.984 . S
N1174 H1187 0.985 . S
N1175 C1177 1.356 . S
N1175 H1180 0.984 . S
N1175 H1181 0.985 . S
C1176 C1170 1.379 . S
C1176 C1173 1.363 . S
C1176 N1174 1.356 . S
C1177 C1171 1.363 . S
C1177 C1172 1.379 . S
C1177 N1175 1.356 . S
N1178 C1170 1.356 . S
N1178 H1184 0.984 . S
N1178 H1185 0.984 . S
N1179 C1172 1.356 . S
N1179 H1182 0.984 . S
N1179 H1183 0.985 . S
H1180 N1175 0.984 . S
H1181 N1175 0.985 . S
H1182 N1179 0.984 . S
H1183 N1179 0.985 . S
H1184 N1178 0.984 . S
H1185 N1178 0.984 . S
H1186 N1174 0.984 . S
H1187 N1174 0.985 . S
C1188 C1189 1.363 . S
C1188 C1194 1.379 . S
C1188 N1196 1.356 . S
C1189 C1188 1.363 . S
C1189 C1195 1.363 . S
C1190 C1191 1.363 . S
C1190 C1195 1.379 . S
C1190 N1197 1.356 . S
C1191 C1190 1.363 . S
C1191 C1194 1.363 . S
N1192 C1194 1.356 . S
N1192 H1204 0.984 . S
N1192 H1205 0.985 . S
N1193 C1195 1.356 . S
N1193 H1198 0.984 . S
N1193 H1199 0.985 . S
C1194 C1188 1.379 . S
C1194 C1191 1.363 . S
C1194 N1192 1.356 . S
C1195 C1189 1.363 . S
C1195 C1190 1.379 . S
C1195 N1193 1.356 . S
N1196 C1188 1.356 . S
N1196 H1202 0.984 . S
N1196 H1203 0.984 . S
N1197 C1190 1.356 . S
N1197 H1200 0.984 . S
N1197 H1201 0.985 . S
H1198 N1193 0.984 . S
H1199 N1193 0.985 . S
H1200 N1197 0.984 . S
H1201 N1197 0.985 . S
H1202 N1196 0.984 . S
H1203 N1196 0.984 . S
H1204 N1192 0.984 . S
H1205 N1192 0.985 . S
C1206 C1207 1.363 . S
C1206 C1212 1.379 1_565 S
C1206 N1214 1.356 . S
C1207 C1206 1.363 . S
C1207 C1213 1.363 . S
C1208 C1209 1.363 1_565 S
C1208 C1213 1.379 . S
C1208 N1215 1.356 1_565 S
C1209 C1208 1.363 1_545 S
C1209 C1212 1.363 . S
N1210 C1212 1.356 . S
N1210 H1222 0.984 . S
N1210 H1223 0.985 . S
N1211 C1213 1.356 . S
N1211 H1216 0.984 . S
N1211 H1217 0.985 . S
C1212 C1206 1.379 1_545 S
C1212 C1209 1.363 . S
C1212 N1210 1.356 . S
C1213 C1207 1.363 . S
C1213 C1208 1.379 . S
C1213 N1211 1.356 . S
N1214 C1206 1.356 . S
N1214 H1220 0.984 1_565 S
N1214 H1221 0.984 . S
N1215 C1208 1.356 1_545 S
N1215 H1218 0.984 . S
N1215 H1219 0.985 1_545 S
H1216 N1211 0.984 . S
H1217 N1211 0.985 . S
H1218 N1215 0.984 . S
H1219 N1215 0.985 1_565 S
H1220 N1214 0.984 1_545 S
H1221 N1214 0.984 . S
H1222 N1210 0.984 . S
H1223 N1210 0.985 . S
C1224 C1225 1.363 . S
C1224 C1230 1.379 1_655 S
C1224 N1232 1.356 . S
C1225 C1224 1.363 . S
C1225 C1231 1.363 1_655 S
C1226 C1227 1.363 . S
C1226 C1231 1.379 . S
C1226 N1233 1.356 . S
C1227 C1226 1.363 . S
C1227 C1230 1.363 . S
N1228 C1230 1.356 . S
N1228 H1240 0.984 . S
N1228 H1241 0.985 . S
N1229 C1231 1.356 1_655 S
N1229 H1234 0.984 . S
N1229 H1235 0.985 . S
C1230 C1224 1.379 1_455 S
C1230 C1227 1.363 . S
C1230 N1228 1.356 . S
C1231 C1225 1.363 1_455 S
C1231 C1226 1.379 . S
C1231 N1229 1.356 1_455 S
N1232 C1224 1.356 . S
N1232 H1238 0.984 . S
N1232 H1239 0.984 . S
N1233 C1226 1.356 . S
N1233 H1236 0.984 . S
N1233 H1237 0.985 . S
H1234 N1229 0.984 . S
H1235 N1229 0.985 . S
H1236 N1233 0.984 . S
H1237 N1233 0.985 . S
H1238 N1232 0.984 . S
H1239 N1232 0.984 . S
H1240 N1228 0.984 . S
H1241 N1228 0.985 . S
C757 C142 1.174 . S
C759 C56 1.378 1_554 S
C775 C226 1.174 . S
C777 C140 1.378 1_554 S
C793 C224 1.377 1_554 S
C795 C58 1.174 . S
C811 C238 1.266 . S
C813 C151 1.454 . S
C829 C235 1.454 . S
C831 C70 1.266 . S
C847 C67 1.454 . S
C849 C154 1.266 . S
C865 C308 1.378 . S
C867 C394 1.174 . S
C883 C478 1.174 . S
C885 C392 1.378 . S
C901 C476 1.377 . S
C903 C310 1.174 . S
C919 C403 1.452 . S
C921 C490 1.266 . S
C937 C487 1.452 . S
C939 C322 1.266 . S
C955 C406 1.266 . S
C957 C319 1.452 . S
C973 C646 1.174 . S
C975 C560 1.378 . S
C991 C644 1.378 . S
C993 C730 1.174 . S
C1009 C728 1.377 . S
C1011 C562 1.174 . S
C1027 C742 1.266 . S
C1029 C655 1.452 . S
C1045 C739 1.452 . S
C1047 C574 1.266 . S
C1063 C571 1.452 . S
C1065 C658 1.266 . S
C1081 C494 2.578 . S
C1083 C63 2.651 . S
C1099 C326 2.578 . S
C1101 C147 2.651 . S
C1117 C231 2.651 . S
C1119 C410 2.578 . S
C1135 C242 2.578 . S
C1137 C567 2.651 . S
C1153 C74 2.578 . S
C1155 C651 2.651 . S
C1171 C735 2.651 . S
C1173 C158 2.578 . S
C1189 C315 2.651 . S
C1191 C746 2.578 . S
C1207 C399 2.651 . S
C1209 C578 2.578 . S
C1225 C662 2.578 . S
C1227 C483 2.651 . S
