# Generated by pormake.
# Topology mmt, (4)-cn, num edge types: 1
# Building blocks:
#     Node 0, Type 0, BuildingBlock: UXUYUI_clean_sbu_0, # of connection points: 4
#     Node 1, Type 0, BuildingBlock: UXUYUI_clean_sbu_0, # of connection points: 4
#     Node 2, Type 0, BuildingBlock: UXUYUI_clean_sbu_0, # of connection points: 4
#     Node 3, Type 0, BuildingBlock: UXUYUI_clean_sbu_0, # of connection points: 4
#     Node 4, Type 0, BuildingBlock: UXUYUI_clean_sbu_0, # of connection points: 4
#     Node 5, Type 0, BuildingBlock: UXUYUI_clean_sbu_0, # of connection points: 4
#     Node 6, Type 0, BuildingBlock: UXUYUI_clean_sbu_0, # of connection points: 4
#     Node 7, Type 0, BuildingBlock: UXUYUI_clean_sbu_0, # of connection points: 4
#     Edge 8, Type (0, 0), BuildingBlock: KIFKEQ_clean_linker_1, # of connection points: 2
#     Edge 9, Type (0, 0), BuildingBlock: KIFKEQ_clean_linker_1, # of connection points: 2
#     Edge 10, Type (0, 0), BuildingBlock: KIFKEQ_clean_linker_1, # of connection points: 2
#     Edge 11, Type (0, 0), BuildingBlock: KIFKEQ_clean_linker_1, # of connection points: 2
#     Edge 12, Type (0, 0), BuildingBlock: KIFKEQ_clean_linker_1, # of connection points: 2
#     Edge 13, Type (0, 0), BuildingBlock: KIFKEQ_clean_linker_1, # of connection points: 2
#     Edge 14, Type (0, 0), BuildingBlock: KIFKEQ_clean_linker_1, # of connection points: 2
#     Edge 15, Type (0, 0), BuildingBlock: KIFKEQ_clean_linker_1, # of connection points: 2
#     Edge 16, Type (0, 0), BuildingBlock: KIFKEQ_clean_linker_1, # of connection points: 2
#     Edge 17, Type (0, 0), BuildingBlock: KIFKEQ_clean_linker_1, # of connection points: 2
#     Edge 18, Type (0, 0), BuildingBlock: KIFKEQ_clean_linker_1, # of connection points: 2
#     Edge 19, Type (0, 0), BuildingBlock: KIFKEQ_clean_linker_1, # of connection points: 2
#     Edge 20, Type (0, 0), BuildingBlock: KIFKEQ_clean_linker_1, # of connection points: 2
#     Edge 21, Type (0, 0), BuildingBlock: KIFKEQ_clean_linker_1, # of connection points: 2
#     Edge 22, Type (0, 0), BuildingBlock: KIFKEQ_clean_linker_1, # of connection points: 2
#     Edge 23, Type (0, 0), BuildingBlock: KIFKEQ_clean_linker_1, # of connection points: 2
# Relax obj value: 0.161
# Max RMSD: 0.176
# Mean RMSD: 0.176
data_MOF--net-mmt--node1-UXUYUI_clean_sbu_0--edge1-KIFKEQ_clean_linker_1
_symmetry_space_group_name_H-M    P1
_symmetry_Int_Tables_number       1
_symmetry_cell_setting            triclinic
loop_
_symmetry_equiv_pos_as_xyz
'x, y, z'
_cell_length_a     31.994251
_cell_length_b     58.095569
_cell_length_c     64.352217
_cell_angle_alpha  89.997723
_cell_angle_beta   89.999871
_cell_angle_gamma 90.006908
loop_
_atom_site_label
_atom_site_type_symbol
_atom_site_fract_x
_atom_site_fract_y
_atom_site_fract_z
_atom_type_partial_charge
Li0 Li 0.09278 0.56594 0.33356 0.0
Li1 Li 0.11279 0.55853 0.36853 0.0
Li2 Li 0.14003 0.59219 0.35058 0.0
Li3 Li 0.1626 0.55326 0.34063 0.0
C4 C 0.04017 0.58417 0.36426 0.0
N5 N 0.95802 0.58084 0.37716 0.0
C6 C 0.01753 0.56396 0.36074 0.0
C7 C 0.02103 0.60268 0.37432 0.0
C8 C 0.97604 0.56261 0.36738 0.0
C9 C 0.97946 0.60067 0.38073 0.0
C10 C 0.11989 0.51448 0.35216 0.0
C11 C 0.16015 0.48899 0.37396 0.0
N12 N 0.13913 0.47069 0.36593 0.0
C13 C 0.09872 0.49542 0.34412 0.0
C14 C 0.15089 0.51126 0.36721 0.0
C15 C 0.10888 0.47342 0.35128 0.0
C16 C 0.05557 0.54323 0.30099 0.0
N17 N 0.05078 0.56232 0.31291 0.0
C18 C 0.98932 0.57299 0.29411 0.0
C19 C 0.01869 0.57727 0.30976 0.0
C20 C 0.99332 0.55322 0.28163 0.0
C21 C 0.02709 0.53829 0.28525 0.0
H22 H 0.08158 0.53176 0.30382 0.0
H23 H 0.01592 0.59247 0.31936 0.0
C24 C 0.10842 0.55662 0.41255 0.0
N25 N 0.09381 0.54708 0.39469 0.0
C26 C 0.09456 0.54851 0.43183 0.0
C27 C 0.05091 0.52097 0.4139 0.0
C28 C 0.06552 0.52961 0.39504 0.0
C29 C 0.06546 0.53039 0.43266 0.0
H30 H 0.13085 0.57053 0.41181 0.0
H31 H 0.05408 0.5224 0.38065 0.0
C32 C 0.13208 0.59036 0.30508 0.0
N33 N 0.10237 0.61252 0.27007 0.0
C34 C 0.1425 0.58223 0.28531 0.0
C35 C 0.10662 0.6098 0.30704 0.0
C36 C 0.12715 0.59367 0.26781 0.0
C37 C 0.09192 0.62076 0.28916 0.0
C38 C 0.21213 0.57664 0.36996 0.0
C39 C 0.23491 0.58377 0.35257 0.0
C40 C 0.23073 0.57727 0.3896 0.0
C41 C 0.27599 0.59141 0.35513 0.0
C42 C 0.27189 0.58501 0.39152 0.0
N43 N 0.29348 0.59187 0.37439 0.0
C44 C 0.14903 0.63539 0.37078 0.0
C45 C 0.18361 0.63214 0.33835 0.0
C46 C 0.16437 0.65777 0.37337 0.0
N47 N 0.15892 0.62312 0.35349 0.0
C48 C 0.19952 0.65439 0.34026 0.0
C49 C 0.19019 0.66752 0.35801 0.0
H50 H 0.12963 0.62768 0.38266 0.0
H51 H 0.19128 0.62197 0.32481 0.0
C52 C 0.19899 0.52777 0.30943 0.0
N53 N 0.20593 0.53469 0.32927 0.0
C54 C 0.22908 0.51505 0.29878 0.0
C55 C 0.2722 0.5157 0.32962 0.0
C56 C 0.24119 0.52851 0.33967 0.0
C57 C 0.26661 0.50909 0.30877 0.0
H58 H 0.1701 0.5324 0.30179 0.0
H59 H 0.24547 0.53365 0.35567 0.0
O60 O 0.08095 0.58595 0.35806 0.0
O61 O 0.11013 0.53608 0.34518 0.0
O62 O 0.14568 0.57903 0.32246 0.0
O63 O 0.17165 0.56936 0.36798 0.0
H64 H 0.03176 0.54943 0.35299 0.0
H65 H 0.03817 0.61844 0.37717 0.0
H66 H 0.95818 0.54706 0.36477 0.0
H67 H 0.96425 0.61486 0.38855 0.0
H68 H 0.18404 0.48626 0.38559 0.0
H69 H 0.07464 0.49763 0.33247 0.0
H70 H 0.16763 0.52574 0.37367 0.0
H71 H 0.09272 0.45852 0.3452 0.0
H72 H 0.96398 0.58505 0.29173 0.0
H73 H 0.03108 0.52267 0.27629 0.0
H74 H 0.10686 0.55615 0.44591 0.0
H75 H 0.02798 0.50726 0.41377 0.0
H76 H 0.16223 0.56727 0.28346 0.0
H77 H 0.09774 0.61615 0.32222 0.0
H78 H 0.1349 0.58754 0.25241 0.0
H79 H 0.07201 0.63574 0.29046 0.0
H80 H 0.22119 0.58334 0.33723 0.0
H81 H 0.21348 0.57185 0.40322 0.0
H82 H 0.29396 0.59696 0.34181 0.0
H83 H 0.28667 0.58559 0.40663 0.0
H84 H 0.15674 0.66715 0.38741 0.0
H85 H 0.21871 0.66127 0.32787 0.0
H86 H 0.2234 0.51056 0.2827 0.0
H87 H 0.30026 0.5111 0.33806 0.0
Li88 Li 0.33538 0.94419 0.34402 0.0
Li89 Li 0.3558 0.90512 0.35306 0.0
Li90 Li 0.38416 0.93986 0.37219 0.0
Li91 Li 0.40823 0.93115 0.33694 0.0
C92 C 0.28484 0.93367 0.37406 0.0
N93 N 0.20197 0.94584 0.37911 0.0
C94 C 0.25313 0.91858 0.36793 0.0
C95 C 0.2744 0.95484 0.38296 0.0
C96 C 0.21142 0.92507 0.37056 0.0
C97 C 0.23232 0.96071 0.38532 0.0
C98 C 0.35756 0.90405 0.3088 0.0
C99 C 0.39563 0.8749 0.28995 0.0
N100 N 0.36359 0.87328 0.27614 0.0
C101 C 0.3253 0.90235 0.29422 0.0
C102 C 0.39322 0.89042 0.30648 0.0
C103 C 0.32881 0.88659 0.27791 0.0
C104 C 0.28982 0.98468 0.33249 0.0
N105 N 0.29029 0.96127 0.33247 0.0
C106 C 0.22875 0.96006 0.31151 0.0
C107 C 0.26013 0.9489 0.32266 0.0
C108 C 0.22815 0.98418 0.31074 0.0
C109 C 0.2585 0.99659 0.32181 0.0
H110 H 0.3144 0.99411 0.34021 0.0
H111 H 0.26112 0.93031 0.3231 0.0
C112 C 0.34819 0.86099 0.37183 0.0
N113 N 0.33561 0.87431 0.35562 0.0
C114 C 0.33285 0.83858 0.37406 0.0
C115 C 0.29136 0.8442 0.3431 0.0
C116 C 0.30746 0.86644 0.34149 0.0
C117 C 0.30397 0.8299 0.35956 0.0
H118 H 0.37007 0.86783 0.38307 0.0
H119 H 0.29694 0.87755 0.32911 0.0
C120 C 0.4054 0.98078 0.35573 0.0
N121 N 0.44078 0.02024 0.37207 0.0
C122 C 0.44606 0.98713 0.35022 0.0
C123 C 0.38257 0.99467 0.36937 0.0
C124 C 0.46343 0.0071 0.35869 0.0
C125 C 0.40106 0.01449 0.37753 0.0
C126 C 0.4481 0.8974 0.36368 0.0
C127 C 0.48349 0.90408 0.37492 0.0
C128 C 0.447 0.87554 0.35458 0.0
C129 C 0.51756 0.88913 0.37633 0.0
C130 C 0.48167 0.86105 0.35637 0.0
N131 N 0.51598 0.86811 0.36708 0.0
C132 C 0.37755 0.95243 0.41504 0.0
C133 C 0.44332 0.95934 0.3993 0.0
C134 C 0.392 0.96138 0.43391 0.0
N135 N 0.40327 0.95162 0.39823 0.0
C136 C 0.45911 0.96824 0.41782 0.0
C137 C 0.43339 0.96932 0.43546 0.0
H138 H 0.34588 0.94609 0.41381 0.0
H139 H 0.46299 0.95875 0.38567 0.0
C140 C 0.44338 0.94065 0.29818 0.0
N141 N 0.45352 0.93472 0.31798 0.0
C142 C 0.47457 0.94631 0.28391 0.0
C143 C 0.52621 0.93959 0.31065 0.0
C144 C 0.49399 0.93388 0.32437 0.0
C145 C 0.51658 0.94623 0.2902 0.0
H146 H 0.41088 0.94174 0.29366 0.0
H147 H 0.50123 0.9298 0.34031 0.0
O148 O 0.32585 0.92785 0.37113 0.0
O149 O 0.35458 0.91944 0.32489 0.0
O150 O 0.38808 0.96111 0.3478 0.0
O151 O 0.41413 0.91175 0.36244 0.0
H152 H 0.26061 0.90213 0.36102 0.0
H153 H 0.29849 0.96667 0.38792 0.0
H154 H 0.18657 0.91362 0.36576 0.0
H155 H 0.22381 0.9771 0.39209 0.0
H156 H 0.42309 0.86425 0.28803 0.0
H157 H 0.29774 0.913 0.29546 0.0
H158 H 0.41916 0.89213 0.31704 0.0
H159 H 0.30393 0.88499 0.26662 0.0
H160 H 0.20557 0.94996 0.3033 0.0
H161 H 0.25905 0.01523 0.32142 0.0
H162 H 0.34298 0.82832 0.38717 0.0
H163 H 0.26947 0.83823 0.33145 0.0
H164 H 0.4641 0.97673 0.33958 0.0
H165 H 0.3511 0.99006 0.37379 0.0
H166 H 0.49493 0.01215 0.35462 0.0
H167 H 0.38385 0.02528 0.38823 0.0
H168 H 0.48488 0.92069 0.38238 0.0
H169 H 0.41961 0.86963 0.34636 0.0
H170 H 0.54523 0.89422 0.38483 0.0
H171 H 0.4812 0.84416 0.34931 0.0
H172 H 0.37126 0.96175 0.44721 0.0
H173 H 0.49099 0.9745 0.41824 0.0
H174 H 0.46572 0.95171 0.26842 0.0
H175 H 0.55823 0.93928 0.3161 0.0
Li176 Li 0.66371 0.44653 0.15661 0.0
Li177 Li 0.64407 0.40685 0.1479 0.0
Li178 Li 0.61562 0.44206 0.12759 0.0
Li179 Li 0.59542 0.43398 0.16364 0.0
C180 C 0.71225 0.43861 0.1251 0.0
N181 N 0.79004 0.45722 0.11717 0.0
C182 C 0.74811 0.42805 0.13301 0.0
C183 C 0.71587 0.45854 0.11308 0.0
C184 C 0.78718 0.43777 0.12886 0.0
C185 C 0.75551 0.46769 0.10924 0.0
C186 C 0.64034 0.41529 0.19535 0.0
C187 C 0.62553 0.38652 0.22134 0.0
N188 N 0.6254 0.40318 0.23619 0.0
C189 C 0.64047 0.43209 0.21089 0.0
C190 C 0.63311 0.39228 0.2006 0.0
C191 C 0.63266 0.42564 0.23143 0.0
C192 C 0.72159 0.4849 0.16068 0.0
N193 N 0.71019 0.46365 0.16756 0.0
C194 C 0.76451 0.46421 0.19305 0.0
C195 C 0.73146 0.45308 0.18315 0.0
C196 C 0.77585 0.4865 0.18686 0.0
C197 C 0.75419 0.49683 0.17034 0.0
H198 H 0.70547 0.49267 0.14775 0.0
H199 H 0.72258 0.43597 0.18805 0.0
C200 C 0.64765 0.36095 0.13224 0.0
N201 N 0.66426 0.37627 0.14591 0.0
C202 C 0.66361 0.33856 0.13104 0.0
C203 C 0.71323 0.3483 0.15799 0.0
C204 C 0.6966 0.37048 0.15854 0.0
C205 C 0.6967 0.33199 0.14414 0.0
H206 H 0.62201 0.36612 0.12232 0.0
H207 H 0.70939 0.38314 0.1691 0.0
C208 C 0.61826 0.48592 0.15566 0.0
N209 N 0.63217 0.53159 0.1654 0.0
C210 C 0.61921 0.49298 0.17641 0.0
C211 C 0.62392 0.50211 0.13984 0.0
C212 C 0.62646 0.51613 0.18102 0.0
C213 C 0.63101 0.52512 0.14509 0.0
C214 C 0.54733 0.40569 0.14369 0.0
C215 C 0.51161 0.41823 0.13844 0.0
C216 C 0.54348 0.3851 0.15475 0.0
C217 C 0.47243 0.41001 0.14451 0.0
C218 C 0.50373 0.37743 0.1605 0.0
N219 N 0.46934 0.38995 0.15532 0.0
C220 C 0.61409 0.44555 0.08355 0.0
C221 C 0.56441 0.46829 0.10161 0.0
C222 C 0.59936 0.45371 0.06446 0.0
N223 N 0.59652 0.45299 0.10156 0.0
C224 C 0.54894 0.47702 0.08294 0.0
C225 C 0.56644 0.46974 0.06403 0.0
H226 H 0.63955 0.43331 0.08403 0.0
H227 H 0.55088 0.47372 0.11622 0.0
C228 C 0.53716 0.4221 0.19678 0.0
N229 N 0.54888 0.43789 0.18228 0.0
C230 C 0.50591 0.42736 0.21122 0.0
C231 C 0.49709 0.46424 0.1945 0.0
C232 C 0.52856 0.45833 0.18053 0.0
C233 C 0.48615 0.44895 0.2105 0.0
H234 H 0.5524 0.40557 0.19743 0.0
H235 H 0.53718 0.47028 0.16842 0.0
O236 O 0.67368 0.42978 0.1295 0.0
O237 O 0.64824 0.42126 0.17517 0.0
O238 O 0.61092 0.46335 0.15083 0.0
O239 O 0.586 0.41376 0.13842 0.0
H240 H 0.74574 0.41269 0.14244 0.0
H241 H 0.68832 0.467 0.107 0.0
H242 H 0.81523 0.42988 0.13499 0.0
H243 H 0.75881 0.48318 0.10006 0.0
H244 H 0.6196 0.36881 0.22561 0.0
H245 H 0.64663 0.44991 0.20713 0.0
H246 H 0.63274 0.37906 0.18877 0.0
H247 H 0.63248 0.43847 0.24361 0.0
H248 H 0.78038 0.45565 0.20575 0.0
H249 H 0.76255 0.51386 0.16489 0.0
H250 H 0.64984 0.32645 0.12024 0.0
H251 H 0.73911 0.34404 0.16814 0.0
H252 H 0.61433 0.48072 0.18881 0.0
H253 H 0.62339 0.49693 0.12369 0.0
H254 H 0.62745 0.52183 0.19702 0.0
H255 H 0.63571 0.53782 0.13302 0.0
H256 H 0.51419 0.43427 0.12997 0.0
H257 H 0.57092 0.37529 0.15904 0.0
H258 H 0.44449 0.41959 0.14066 0.0
H259 H 0.50024 0.36159 0.16915 0.0
H260 H 0.6139 0.4478 0.05024 0.0
H261 H 0.52316 0.48909 0.08329 0.0
H262 H 0.49831 0.41493 0.22318 0.0
H263 H 0.48175 0.48076 0.19287 0.0
Li264 Li 0.8391 0.05516 0.15973 0.0
Li265 Li 0.86363 0.09511 0.15006 0.0
Li266 Li 0.88854 0.0594 0.13034 0.0
Li267 Li 0.90914 0.06683 0.16555 0.0
C268 C 0.79161 0.07493 0.12527 0.0
N269 N 0.71206 0.08091 0.10941 0.0
C270 C 0.76503 0.09156 0.13373 0.0
C271 C 0.77791 0.06155 0.10854 0.0
C272 C 0.72488 0.09426 0.12556 0.0
C273 C 0.73753 0.06477 0.10081 0.0
C274 C 0.87033 0.08298 0.19779 0.0
C275 C 0.9087 0.10343 0.22425 0.0
N276 N 0.8988 0.08668 0.23818 0.0
C277 C 0.86038 0.06603 0.21238 0.0
C278 C 0.89457 0.10188 0.20375 0.0
C279 C 0.87512 0.0682 0.23272 0.0
C280 C 0.80066 0.01742 0.18029 0.0
N281 N 0.79336 0.03846 0.17171 0.0
C282 C 0.72325 0.03816 0.18462 0.0
C283 C 0.75558 0.04893 0.17375 0.0
C284 C 0.73 0.01649 0.19369 0.0
C285 C 0.76917 0.00597 0.19117 0.0
H286 H 0.83143 0.00987 0.1795 0.0
H287 H 0.75094 0.06602 0.16767 0.0
C288 C 0.84638 0.13682 0.12868 0.0
N289 N 0.84719 0.12641 0.14759 0.0
C290 C 0.83216 0.15951 0.1268 0.0
C291 C 0.8205 0.16027 0.16392 0.0
C292 C 0.83446 0.13756 0.16503 0.0
C293 C 0.81907 0.17151 0.14462 0.0
H294 H 0.85629 0.1274 0.11504 0.0
H295 H 0.83441 0.12869 0.17978 0.0
C296 C 0.88156 0.01567 0.14631 0.0
N297 N 0.86354 0.97238 0.13096 0.0
C298 C 0.9073 0.99701 0.15121 0.0
C299 C 0.84669 0.01231 0.1336 0.0
C300 C 0.89766 0.97526 0.1433 0.0
C301 C 0.83808 0.9903 0.12599 0.0
C302 C 0.96163 0.09206 0.1402 0.0
C303 C 0.99167 0.07495 0.13712 0.0
C304 C 0.97409 0.11495 0.14269 0.0
C305 C 0.03392 0.08102 0.13676 0.0
C306 C 0.01665 0.12033 0.14219 0.0
N307 N 0.04542 0.10339 0.13928 0.0
C308 C 0.88912 0.05708 0.08614 0.0
C309 C 0.93493 0.03127 0.10332 0.0
C310 C 0.90219 0.04886 0.06676 0.0
N311 N 0.90554 0.04815 0.10388 0.0
C312 C 0.94873 0.02251 0.08435 0.0
C313 C 0.93235 0.03128 0.06572 0.0
H314 H 0.86597 0.0706 0.08706 0.0
H315 H 0.94792 0.02469 0.11763 0.0
C316 C 0.95135 0.04163 0.19533 0.0
N317 N 0.9534 0.06213 0.18519 0.0
C318 C 0.98085 0.03601 0.21043 0.0
C319 C 0.01457 0.07264 0.20436 0.0
C320 C 0.98383 0.07776 0.18963 0.0
C321 C 0.01314 0.05154 0.21495 0.0
H322 H 0.92642 0.02969 0.19179 0.0
H323 H 0.98407 0.09428 0.18199 0.0
O324 O 0.83139 0.07237 0.13275 0.0
O325 O 0.85717 0.08082 0.17767 0.0
O326 O 0.89106 0.03712 0.15375 0.0
O327 O 0.92016 0.08653 0.14066 0.0
H328 H 0.77505 0.10209 0.14666 0.0
H329 H 0.79828 0.04888 0.10152 0.0
H330 H 0.7039 0.10695 0.13207 0.0
H331 H 0.72649 0.05449 0.08791 0.0
H332 H 0.92776 0.11786 0.22904 0.0
H333 H 0.84182 0.05124 0.208 0.0
H334 H 0.90307 0.11499 0.19257 0.0
H335 H 0.86786 0.05514 0.24415 0.0
H336 H 0.69354 0.04691 0.18626 0.0
H337 H 0.77604 0.98955 0.19836 0.0
H338 H 0.83162 0.1676 0.11165 0.0
H339 H 0.80997 0.16876 0.17796 0.0
H340 H 0.93454 0.99935 0.16096 0.0
H341 H 0.82635 0.02649 0.12977 0.0
H342 H 0.91734 0.96066 0.14695 0.0
H343 H 0.81114 0.98747 0.11617 0.0
H344 H 0.98249 0.05714 0.13534 0.0
H345 H 0.9511 0.12838 0.14506 0.0
H346 H 0.05756 0.06794 0.13452 0.0
H347 H 0.0268 0.13796 0.14415 0.0
H348 H 0.88855 0.05601 0.05278 0.0
H349 H 0.97255 0.00926 0.08429 0.0
H350 H 0.97888 0.01952 0.21823 0.0
H351 H 0.03884 0.08511 0.20765 0.0
Li352 Li 0.83374 0.4456 0.6552 0.0
Li353 Li 0.90612 0.4343 0.66558 0.0
Li354 Li 0.88952 0.43825 0.62843 0.0
Li355 Li 0.86296 0.40727 0.64837 0.0
C356 C 0.90773 0.48011 0.64183 0.0
N357 N 0.95039 0.51479 0.6215 0.0
C358 C 0.9509 0.48244 0.64442 0.0
C359 C 0.88624 0.49542 0.62892 0.0
C360 C 0.97189 0.50011 0.63401 0.0
C361 C 0.90838 0.51283 0.61876 0.0
C362 C 0.85719 0.42127 0.69628 0.0
C363 C 0.88777 0.40397 0.72677 0.0
N364 N 0.87104 0.421 0.73866 0.0
C365 C 0.84009 0.43852 0.70882 0.0
C366 C 0.88101 0.40378 0.70533 0.0
C367 C 0.84751 0.4381 0.73021 0.0
C368 C 0.75246 0.45217 0.67063 0.0
N369 N 0.78734 0.46333 0.66404 0.0
C370 C 0.76008 0.49935 0.67575 0.0
C371 C 0.79156 0.48648 0.66621 0.0
C372 C 0.72416 0.48822 0.68331 0.0
C373 C 0.72023 0.46435 0.68028 0.0
H374 H 0.75059 0.43365 0.66933 0.0
H375 H 0.82009 0.49483 0.66133 0.0
C376 C 0.98269 0.42904 0.68828 0.0
N377 N 0.94637 0.44097 0.6864 0.0
C378 C 0.01213 0.43546 0.70327 0.0
C379 C 0.96575 0.46602 0.71417 0.0
C380 C 0.93754 0.45917 0.69889 0.0
C381 C 0.00396 0.45433 0.71638 0.0
H382 H 0.98917 0.41485 0.6779 0.0
H383 H 0.9086 0.4685 0.69682 0.0
C384 C 0.80873 0.41246 0.61722 0.0
N385 N 0.7646 0.38032 0.59441 0.0
C386 C 0.82347 0.40534 0.59781 0.0
C387 C 0.7714 0.40337 0.62497 0.0
C388 C 0.8007 0.38907 0.58652 0.0
C389 C 0.74962 0.38707 0.61323 0.0
C390 C 0.93834 0.39327 0.63698 0.0
C391 C 0.94494 0.38784 0.61608 0.0
C392 C 0.94772 0.37705 0.65233 0.0
C393 C 0.96045 0.36611 0.61086 0.0
C394 C 0.96307 0.35549 0.64647 0.0
N395 N 0.96905 0.35052 0.62603 0.0
C396 C 0.95377 0.44892 0.60029 0.0
C397 C 0.88594 0.45826 0.5881 0.0
C398 C 0.97178 0.45782 0.58224 0.0
N399 N 0.91162 0.44925 0.60283 0.0
C400 C 0.90263 0.46736 0.56978 0.0
C401 C 0.94614 0.46722 0.56667 0.0
H402 H 0.97343 0.44199 0.61245 0.0
H403 H 0.85254 0.45854 0.59068 0.0
C404 C 0.82655 0.36707 0.66499 0.0
N405 N 0.846 0.37541 0.64777 0.0
C406 C 0.81127 0.34456 0.66536 0.0
C407 C 0.836 0.33951 0.6302 0.0
C408 C 0.85107 0.36207 0.63057 0.0
C409 C 0.81562 0.33052 0.64774 0.0
H410 H 0.82209 0.37805 0.67835 0.0
H411 H 0.8661 0.36902 0.61694 0.0
O412 O 0.88686 0.46245 0.6513 0.0
O413 O 0.85099 0.4216 0.67525 0.0
O414 O 0.83079 0.4282 0.62859 0.0
O415 O 0.9233 0.41446 0.6424 0.0
H416 H 0.96813 0.47057 0.65413 0.0
H417 H 0.85293 0.49361 0.62648 0.0
H418 H 0.00532 0.50206 0.6358 0.0
H419 H 0.89221 0.5247 0.60861 0.0
H420 H 0.90634 0.39061 0.73396 0.0
H421 H 0.82172 0.45226 0.7021 0.0
H422 H 0.89433 0.39026 0.69587 0.0
H423 H 0.83469 0.45142 0.74008 0.0
H424 H 0.7643 0.51773 0.67763 0.0
H425 H 0.69353 0.45497 0.68622 0.0
H426 H 0.04139 0.42616 0.70417 0.0
H427 H 0.9577 0.4804 0.72409 0.0
H428 H 0.85249 0.41203 0.59166 0.0
H429 H 0.75967 0.40862 0.63999 0.0
H430 H 0.81186 0.3833 0.57153 0.0
H431 H 0.72087 0.37975 0.61911 0.0
H432 H 0.93768 0.40014 0.60399 0.0
H433 H 0.94297 0.38102 0.66857 0.0
H434 H 0.96547 0.36162 0.59474 0.0
H435 H 0.97022 0.34272 0.65817 0.0
H436 H 0.00548 0.4577 0.58068 0.0
H437 H 0.88167 0.47424 0.55813 0.0
H438 H 0.79521 0.33844 0.6791 0.0
H439 H 0.84024 0.32922 0.61632 0.0
Li440 Li 0.58455 0.07001 0.6659 0.0
Li441 Li 0.65986 0.05607 0.65743 0.0
Li442 Li 0.63512 0.09528 0.64941 0.0
Li443 Li 0.60999 0.06463 0.63002 0.0
C444 C 0.65194 0.09749 0.68997 0.0
N445 N 0.67798 0.1335 0.71481 0.0
C446 C 0.69405 0.10384 0.69037 0.0
C447 C 0.62309 0.1093 0.7023 0.0
C448 C 0.70658 0.12216 0.70298 0.0
C449 C 0.63689 0.12748 0.71475 0.0
C450 C 0.58657 0.02302 0.6426 0.0
C451 C 0.5909 0.98685 0.62437 0.0
N452 N 0.54889 0.98745 0.62116 0.0
C453 C 0.54342 0.02324 0.63924 0.0
C454 C 0.61055 0.00467 0.63519 0.0
C455 C 0.52497 0.00511 0.62831 0.0
C456 C 0.50025 0.06844 0.67991 0.0
N457 N 0.54092 0.06515 0.6852 0.0
C458 C 0.52121 0.05079 0.71856 0.0
C459 C 0.55189 0.05665 0.70409 0.0
C460 C 0.47877 0.05367 0.71352 0.0
C461 C 0.46849 0.0629 0.69395 0.0
H462 H 0.49248 0.07495 0.66464 0.0
H463 H 0.58454 0.05393 0.7077 0.0
C464 C 0.74286 0.04527 0.66923 0.0
N465 N 0.70295 0.03734 0.66832 0.0
C466 C 0.77356 0.03257 0.67958 0.0
C467 C 0.72177 0.00342 0.68706 0.0
C468 C 0.69204 0.01678 0.67677 0.0
C469 C 0.76303 0.01149 0.689 0.0
H470 H 0.7505 0.06179 0.66247 0.0
H471 H 0.65992 0.01106 0.67602 0.0
C472 C 0.56086 0.11141 0.63795 0.0
N473 N 0.53145 0.1554 0.6308 0.0
C474 C 0.57023 0.12265 0.61933 0.0
C475 C 0.53614 0.12242 0.65285 0.0
C476 C 0.55521 0.14493 0.61604 0.0
C477 C 0.52165 0.14469 0.64896 0.0
C478 C 0.68602 0.06985 0.61325 0.0
C479 C 0.67639 0.08397 0.59634 0.0
C480 C 0.71302 0.05117 0.61058 0.0
C481 C 0.69336 0.07889 0.57687 0.0
C482 C 0.72942 0.0467 0.59086 0.0
N483 N 0.71928 0.06051 0.57456 0.0
C484 C 0.69047 0.13063 0.63756 0.0
C485 C 0.63607 0.14371 0.65952 0.0
C486 C 0.70793 0.15265 0.63694 0.0
N487 N 0.65512 0.12655 0.64868 0.0
C488 C 0.65234 0.16602 0.65926 0.0
C489 C 0.68888 0.17075 0.6479 0.0
H490 H 0.70562 0.11669 0.6294 0.0
H491 H 0.60854 0.14008 0.66862 0.0
C492 C 0.55361 0.06255 0.59635 0.0
N493 N 0.59044 0.05394 0.60346 0.0
C494 C 0.53579 0.05403 0.57809 0.0
C495 C 0.59437 0.0281 0.5746 0.0
C496 C 0.61089 0.03702 0.59298 0.0
C497 C 0.55605 0.03642 0.567 0.0
H498 H 0.53741 0.07562 0.60518 0.0
H499 H 0.63951 0.02996 0.59914 0.0
O500 O 0.6389 0.07992 0.67743 0.0
O501 O 0.60532 0.04093 0.65274 0.0
O502 O 0.57525 0.08959 0.64144 0.0
O503 O 0.66988 0.07457 0.63245 0.0
H504 H 0.71669 0.09493 0.68082 0.0
H505 H 0.59034 0.10465 0.70208 0.0
H506 H 0.73902 0.12739 0.70333 0.0
H507 H 0.6149 0.13687 0.7243 0.0
H508 H 0.60909 0.9726 0.61842 0.0
H509 H 0.52451 0.03741 0.64475 0.0
H510 H 0.64406 0.00438 0.63748 0.0
H511 H 0.49165 0.00512 0.62546 0.0
H512 H 0.53067 0.04336 0.73326 0.0
H513 H 0.43626 0.06565 0.68946 0.0
H514 H 0.80473 0.03968 0.68089 0.0
H515 H 0.71228 0.98713 0.69373 0.0
H516 H 0.58894 0.11426 0.60757 0.0
H517 H 0.52879 0.11402 0.6674 0.0
H518 H 0.5624 0.15389 0.60175 0.0
H519 H 0.50275 0.15349 0.66041 0.0
H520 H 0.65596 0.09864 0.59823 0.0
H521 H 0.72093 0.04013 0.62354 0.0
H522 H 0.68597 0.08959 0.56361 0.0
H523 H 0.75015 0.03222 0.58852 0.0
H524 H 0.73658 0.15531 0.62831 0.0
H525 H 0.63632 0.17941 0.66782 0.0
H526 H 0.50587 0.06072 0.57307 0.0
H527 H 0.61139 0.01471 0.56651 0.0
Li528 Li 0.39008 0.56057 0.86792 0.0
Li529 Li 0.36254 0.59448 0.84988 0.0
Li530 Li 0.33873 0.55597 0.84192 0.0
Li531 Li 0.40969 0.5677 0.83229 0.0
C532 C 0.29276 0.56643 0.87401 0.0
N533 N 0.2123 0.55297 0.88392 0.0
C534 C 0.26074 0.58274 0.8752 0.0
C535 C 0.28397 0.54334 0.87827 0.0
C536 C 0.22025 0.57558 0.88014 0.0
C537 C 0.24307 0.53684 0.88311 0.0
C538 C 0.43666 0.60105 0.87239 0.0
C539 C 0.48983 0.62523 0.88755 0.0
N540 N 0.46513 0.6285 0.9045 0.0
C541 C 0.41181 0.60462 0.88999 0.0
C542 C 0.47603 0.61139 0.87118 0.0
C543 C 0.42677 0.61856 0.90604 0.0
C544 C 0.45417 0.54916 0.89608 0.0
N545 N 0.41196 0.54918 0.89361 0.0
C546 C 0.40272 0.53226 0.92715 0.0
C547 C 0.38615 0.54113 0.90873 0.0
C548 C 0.44624 0.53193 0.93009 0.0
C549 C 0.47206 0.54061 0.91429 0.0
H550 H 0.47399 0.55562 0.88377 0.0
H551 H 0.35273 0.54155 0.90651 0.0
C552 C 0.30446 0.62929 0.84321 0.0
N553 N 0.34399 0.62587 0.85032 0.0
C554 C 0.28729 0.65137 0.84275 0.0
C555 C 0.35244 0.66629 0.85609 0.0
C556 C 0.36834 0.64389 0.85632 0.0
C557 C 0.31123 0.67025 0.84941 0.0
H558 H 0.28626 0.61477 0.83784 0.0
H559 H 0.40017 0.64106 0.86118 0.0
C560 C 0.41398 0.52091 0.85313 0.0
N561 N 0.46141 0.48695 0.8718 0.0
C562 C 0.45727 0.52035 0.85025 0.0
C563 C 0.39479 0.50408 0.86539 0.0
C564 C 0.4807 0.50305 0.85983 0.0
C565 C 0.41932 0.4871 0.87474 0.0
C566 C 0.3626 0.59646 0.80712 0.0
C567 C 0.33563 0.59786 0.7901 0.0
C568 C 0.39631 0.61169 0.80867 0.0
C569 C 0.34288 0.61449 0.77483 0.0
C570 C 0.4025 0.62807 0.79308 0.0
N571 N 0.37588 0.62912 0.77663 0.0
C572 C 0.25974 0.55234 0.82384 0.0
C573 C 0.29198 0.51628 0.83019 0.0
C574 C 0.22595 0.54158 0.8142 0.0
N575 N 0.29193 0.53963 0.83142 0.0
C576 C 0.25868 0.50477 0.82074 0.0
C577 C 0.2253 0.51746 0.81231 0.0
H578 H 0.26093 0.57093 0.82484 0.0
H579 H 0.31824 0.50664 0.83616 0.0
C580 C 0.48986 0.573 0.81348 0.0
N581 N 0.45075 0.5642 0.81137 0.0
C582 C 0.52023 0.56854 0.7984 0.0
C583 C 0.46905 0.54655 0.77913 0.0
C584 C 0.43977 0.55141 0.79457 0.0
C585 C 0.5101 0.5549 0.78105 0.0
H586 H 0.49765 0.58306 0.82706 0.0
H587 H 0.40841 0.54455 0.79346 0.0
O588 O 0.33255 0.57307 0.86893 0.0
O589 O 0.42314 0.58721 0.85653 0.0
O590 O 0.39065 0.53809 0.84433 0.0
O591 O 0.35557 0.58038 0.82224 0.0
H592 H 0.26707 0.60076 0.87254 0.0
H593 H 0.30832 0.53049 0.87747 0.0
H594 H 0.19516 0.58802 0.88103 0.0
H595 H 0.23579 0.51898 0.88619 0.0
H596 H 0.52022 0.63336 0.8868 0.0
H597 H 0.38133 0.59678 0.89132 0.0
H598 H 0.49572 0.60877 0.85772 0.0
H599 H 0.40787 0.62148 0.91972 0.0
H600 H 0.3817 0.52599 0.93907 0.0
H601 H 0.50576 0.54047 0.91584 0.0
H602 H 0.25575 0.65365 0.83699 0.0
H603 H 0.37206 0.68032 0.86135 0.0
H604 H 0.47277 0.53328 0.84097 0.0
H605 H 0.36138 0.50423 0.86784 0.0
H606 H 0.51426 0.5025 0.85783 0.0
H607 H 0.4049 0.47408 0.88438 0.0
H608 H 0.30932 0.58624 0.78873 0.0
H609 H 0.41743 0.61094 0.82177 0.0
H610 H 0.32225 0.61578 0.76156 0.0
H611 H 0.42843 0.63996 0.79408 0.0
H612 H 0.20139 0.55213 0.80764 0.0
H613 H 0.25932 0.48616 0.81984 0.0
H614 H 0.55137 0.57551 0.80039 0.0
H615 H 0.46 0.53569 0.76621 0.0
Li616 Li 0.10574 0.9398 0.86906 0.0
Li617 Li 0.13451 0.90604 0.85125 0.0
Li618 Li 0.15579 0.94486 0.84237 0.0
Li619 Li 0.08487 0.93157 0.83377 0.0
C620 C 0.20348 0.93558 0.87469 0.0
N621 N 0.28322 0.95012 0.88478 0.0
C622 C 0.23591 0.91961 0.87666 0.0
C623 C 0.21149 0.95889 0.87827 0.0
C624 C 0.27604 0.9273 0.88167 0.0
C625 C 0.25204 0.96593 0.88322 0.0
C626 C 0.06148 0.89869 0.87463 0.0
C627 C 0.00964 0.87441 0.89075 0.0
N628 N 0.03534 0.87148 0.90738 0.0
C629 C 0.08738 0.89547 0.8919 0.0
C630 C 0.02226 0.88812 0.87406 0.0
C631 C 0.0736 0.88165 0.90829 0.0
C632 C 0.04202 0.95089 0.89744 0.0
N633 N 0.08415 0.95136 0.89473 0.0
C634 C 0.0934 0.96899 0.92797 0.0
C635 C 0.10994 0.96004 0.90957 0.0
C636 C 0.04992 0.96887 0.93115 0.0
C637 C 0.02416 0.95959 0.91559 0.0
H638 H 0.02221 0.94393 0.88535 0.0
H639 H 0.14333 0.96003 0.90714 0.0
C640 C 0.19437 0.87188 0.84517 0.0
N641 N 0.1545 0.87495 0.85191 0.0
C642 C 0.21198 0.8499 0.84458 0.0
C643 C 0.14664 0.83441 0.85715 0.0
C644 C 0.13031 0.85671 0.85751 0.0
C645 C 0.18811 0.83078 0.85073 0.0
H646 H 0.21241 0.88658 0.84006 0.0
H647 H 0.09821 0.85928 0.86206 0.0
C648 C 0.08047 0.9792 0.85399 0.0
N649 N 0.03517 0.01396 0.87279 0.0
C650 C 0.0369 0.9796 0.85241 0.0
C651 C 0.10101 0.99664 0.86494 0.0
C652 C 0.01456 0.99729 0.86206 0.0
C653 C 0.07755 0.014 0.87439 0.0
C654 C 0.13316 0.90309 0.80858 0.0
C655 C 0.16067 0.90126 0.79181 0.0
C656 C 0.09976 0.88769 0.81034 0.0
C657 C 0.15425 0.88404 0.77699 0.0
C658 C 0.09441 0.87071 0.79521 0.0
N659 N 0.12154 0.86925 0.77899 0.0
C660 C 0.23684 0.95141 0.82617 0.0
C661 C 0.1941 0.98476 0.82618 0.0
C662 C 0.26852 0.96324 0.81573 0.0
N663 N 0.20051 0.96227 0.83103 0.0
C664 C 0.22481 0.9972 0.81564 0.0
C665 C 0.26238 0.98634 0.81001 0.0
H666 H 0.24067 0.93337 0.82987 0.0
H667 H 0.16461 0.99283 0.82992 0.0
C668 C 0.00202 0.92844 0.81818 0.0
N669 N 0.04218 0.93403 0.81354 0.0
C670 C 0.97016 0.93291 0.8039 0.0
C671 C 0.02198 0.9478 0.78006 0.0
C672 C 0.05275 0.94321 0.79486 0.0
C673 C 0.97994 0.94308 0.78468 0.0
H674 H 0.99459 0.9213 0.83326 0.0
H675 H 0.085 0.94763 0.79173 0.0
O676 O 0.16403 0.92838 0.8696 0.0
O677 O 0.07388 0.91238 0.85846 0.0
O678 O 0.1028 0.96167 0.8451 0.0
O679 O 0.13944 0.91971 0.82331 0.0
H680 H 0.23015 0.90144 0.87453 0.0
H681 H 0.18677 0.97146 0.87696 0.0
H682 H 0.30144 0.91513 0.88315 0.0
H683 H 0.25871 0.98396 0.8858 0.0
H684 H 0.97938 0.8661 0.8905 0.0
H685 H 0.11779 0.9035 0.89272 0.0
H686 H 0.00181 0.89047 0.86084 0.0
H687 H 0.09331 0.879 0.92173 0.0
H688 H 0.11445 0.97568 0.93968 0.0
H689 H 0.99048 0.95938 0.91726 0.0
H690 H 0.24373 0.84788 0.83904 0.0
H691 H 0.12707 0.82019 0.86202 0.0
H692 H 0.02042 0.96625 0.8441 0.0
H693 H 0.13468 0.99675 0.86622 0.0
H694 H 0.98081 0.9977 0.86109 0.0
H695 H 0.09304 0.02751 0.88303 0.0
H696 H 0.18677 0.91301 0.7903 0.0
H697 H 0.07826 0.88875 0.82328 0.0
H698 H 0.17531 0.88242 0.76392 0.0
H699 H 0.06874 0.85866 0.79639 0.0
H700 H 0.29675 0.95413 0.81143 0.0
H701 H 0.21896 0.01502 0.81163 0.0
H702 H 0.93815 0.92886 0.80799 0.0
H703 H 0.0308 0.9559 0.76555 0.0
H704 H 0.35101 0.51655 0.31096 0.0
H705 H 0.25859 0.47462 0.27986 0.0
H706 H 0.40548 0.4997 0.28942 0.0
H707 H 0.31278 0.45873 0.25751 0.0
H708 H 0.42477 0.42269 0.22881 0.0
H709 H 0.37395 0.43479 0.25496 0.0
H710 H 0.42617 0.50339 0.25398 0.0
H711 H 0.47799 0.49106 0.22882 0.0
C712 C 0.34232 0.50354 0.29971 0.0
C713 C 0.3003 0.49711 0.29705 0.0
C714 C 0.37352 0.4941 0.28714 0.0
C715 C 0.36348 0.47809 0.27151 0.0
C716 C 0.32172 0.47092 0.26944 0.0
C717 C 0.29053 0.48027 0.28209 0.0
C718 C 0.42573 0.44026 0.23442 0.0
C719 C 0.45528 0.45594 0.22659 0.0
C720 C 0.39634 0.44726 0.24925 0.0
C721 C 0.39592 0.47008 0.25659 0.0
C722 C 0.42587 0.48561 0.24894 0.0
C723 C 0.45523 0.47862 0.23421 0.0
H724 H 0.00189 0.0361 0.25456 0.0
H725 H 0.09749 0.05248 0.20959 0.0
H726 H 0.05555 0.02215 0.27865 0.0
H727 H 0.1511 0.03822 0.23357 0.0
H728 H 0.21374 0.97665 0.26982 0.0
H729 H 0.16301 0.9959 0.24734 0.0
H730 H 0.12262 0.03778 0.29898 0.0
H731 H 0.17419 0.0187 0.32149 0.0
C732 C 0.03443 0.0369 0.24996 0.0
C733 C 0.04568 0.04527 0.23025 0.0
C734 C 0.06505 0.02906 0.26374 0.0
C735 C 0.10731 0.02907 0.25788 0.0
C736 C 0.11865 0.03798 0.23838 0.0
C737 C 0.08811 0.04621 0.22475 0.0
C738 C 0.19406 0.99 0.27633 0.0
C739 C 0.19759 0.99617 0.29735 0.0
C740 C 0.16534 0.00111 0.26346 0.0
C741 C 0.13911 0.01833 0.27146 0.0
C742 C 0.14254 0.02452 0.2925 0.0
C743 C 0.17196 0.0137 0.30531 0.0
H744 H 0.85262 0.47015 0.1977 0.0
H745 H 0.77476 0.53071 0.20138 0.0
H746 H 0.90569 0.48921 0.21878 0.0
H747 H 0.82824 0.54997 0.22236 0.0
H748 H 0.90812 0.55779 0.28364 0.0
H749 H 0.85656 0.54431 0.25846 0.0
H750 H 0.95596 0.52189 0.21785 0.0
H751 H 0.00754 0.53565 0.24282 0.0
C752 C 0.84707 0.48762 0.20289 0.0
C753 C 0.80954 0.49892 0.19799 0.0
C754 C 0.87757 0.49861 0.21481 0.0
C755 C 0.8711 0.52109 0.22223 0.0
C756 C 0.83394 0.5326 0.21695 0.0
C757 C 0.80354 0.52166 0.20483 0.0
C758 C 0.919 0.55046 0.26914 0.0
C759 C 0.96196 0.54754 0.26537 0.0
C760 C 0.88944 0.54272 0.25473 0.0
C761 C 0.90225 0.53183 0.23629 0.0
C762 C 0.94518 0.52985 0.23209 0.0
C763 C 0.97468 0.53768 0.24643 0.0
H764 H 0.68131 0.03713 0.22306 0.0
H765 H 0.70588 0.97124 0.19446 0.0
H766 H 0.63027 0.01916 0.24603 0.0
H767 H 0.65523 0.95313 0.21781 0.0
H768 H 0.52684 0.93648 0.24885 0.0
H769 H 0.57815 0.95305 0.22496 0.0
H770 H 0.63219 0.99172 0.27559 0.0
H771 H 0.58056 0.97556 0.29933 0.0
C772 C 0.67551 0.01884 0.22155 0.0
C773 C 0.69753 0.00561 0.20691 0.0
C774 C 0.64665 0.0085 0.23488 0.0
C775 C 0.63898 0.98471 0.23382 0.0
C776 C 0.66039 0.97152 0.21892 0.0
C777 C 0.68954 0.98185 0.20567 0.0
C778 C 0.54977 0.94848 0.25485 0.0
C779 C 0.54967 0.95472 0.27596 0.0
C780 C 0.57928 0.95784 0.24121 0.0
C781 C 0.60899 0.97379 0.24839 0.0
C782 C 0.60935 0.97968 0.26957 0.0
C783 C 0.5801 0.97021 0.28321 0.0
H784 H 0.59098 0.54225 0.78853 0.0
H785 H 0.50239 0.55226 0.73867 0.0
H786 H 0.64259 0.52858 0.76366 0.0
H787 H 0.55417 0.53851 0.71371 0.0
H788 H 0.63885 0.48374 0.68222 0.0
H789 H 0.58775 0.50201 0.705 0.0
H790 H 0.68673 0.54031 0.73484 0.0
H791 H 0.73793 0.52139 0.71266 0.0
C792 C 0.58276 0.54195 0.77221 0.0
C793 C 0.54251 0.54831 0.7656 0.0
C794 C 0.61237 0.53408 0.75793 0.0
C795 C 0.60248 0.5324 0.73669 0.0
C796 C 0.56256 0.53928 0.73 0.0
C797 C 0.53292 0.54716 0.7443 0.0
C798 C 0.64968 0.49608 0.69363 0.0
C799 C 0.6925 0.50101 0.69566 0.0
C800 C 0.62035 0.50674 0.70654 0.0
C801 C 0.63319 0.52256 0.72181 0.0
C802 C 0.67587 0.528 0.72341 0.0
C803 C 0.70517 0.51736 0.7105 0.0
H804 H 0.74923 0.98813 0.72533 0.0
H805 H 0.84731 0.00613 0.68207 0.0
H806 H 0.79995 0.96883 0.74728 0.0
H807 H 0.89857 0.98803 0.70479 0.0
H808 H 0.97751 0.93803 0.74235 0.0
H809 H 0.92419 0.9523 0.71841 0.0
H810 H 0.85435 0.97953 0.7704 0.0
H811 H 0.90705 0.9649 0.79418 0.0
C812 C 0.78155 0.98781 0.72035 0.0
C813 C 0.79407 0.99874 0.70186 0.0
C814 C 0.81081 0.97701 0.73315 0.0
C815 C 0.85347 0.97703 0.72794 0.0
C816 C 0.86594 0.98749 0.70922 0.0
C817 C 0.83658 0.99817 0.69632 0.0
C818 C 0.9506 0.94697 0.74861 0.0
C819 C 0.94638 0.95028 0.77014 0.0
C820 C 0.92013 0.95522 0.73491 0.0
C821 C 0.88493 0.9671 0.74244 0.0
C822 C 0.88056 0.97009 0.76403 0.0
C823 C 0.91082 0.96171 0.7777 0.0
H824 H 0.14173 0.52794 0.81221 0.0
H825 H 0.23163 0.48086 0.78559 0.0
H826 H 0.08726 0.51151 0.79024 0.0
H827 H 0.17687 0.46418 0.76398 0.0
H828 H 0.05671 0.42828 0.74063 0.0
H829 H 0.10909 0.44196 0.76539 0.0
H830 H 0.0745 0.5122 0.75185 0.0
H831 H 0.02315 0.49874 0.72682 0.0
C832 C 0.14989 0.51405 0.80175 0.0
C833 C 0.1912 0.50588 0.80057 0.0
C834 C 0.11865 0.50462 0.7892 0.0
C835 C 0.1279 0.48668 0.7753 0.0
C836 C 0.16874 0.47785 0.77469 0.0
C837 C 0.20009 0.4874 0.78713 0.0
C838 C 0.06049 0.44665 0.74281 0.0
C839 C 0.03549 0.46238 0.73176 0.0
C840 C 0.09037 0.45445 0.75705 0.0
C841 C 0.09562 0.47813 0.76066 0.0
C842 C 0.07059 0.49383 0.7497 0.0
C843 C 0.04106 0.48607 0.73537 0.0
H844 H 0.24808 0.01355 0.77618 0.0
H845 H 0.34755 0.98638 0.81437 0.0
H846 H 0.29952 0.03183 0.7536 0.0
H847 H 0.39912 0.0043 0.79147 0.0
H848 H 0.47763 0.05763 0.75604 0.0
H849 H 0.4251 0.04287 0.78012 0.0
H850 H 0.35228 0.01783 0.72835 0.0
H851 H 0.40494 0.03212 0.7043 0.0
C852 C 0.28093 0.01171 0.77989 0.0
C853 C 0.29378 0.99853 0.79707 0.0
C854 C 0.31038 0.02198 0.76683 0.0
C855 C 0.35334 0.01942 0.77071 0.0
C856 C 0.36621 0.00672 0.78818 0.0
C857 C 0.33673 0.9963 0.80117 0.0
C858 C 0.45051 0.04889 0.74978 0.0
C859 C 0.4456 0.04605 0.7282 0.0
C860 C 0.42042 0.04048 0.76359 0.0
C861 C 0.3846 0.0292 0.75613 0.0
C862 C 0.37927 0.02675 0.73457 0.0
C863 C 0.40944 0.03501 0.72077 0.0
H864 H 0.04374 0.55479 0.4675 0.0
H865 H 0.05214 0.48548 0.44354 0.0
H866 H 0.01667 0.53983 0.50031 0.0
H867 H 0.02367 0.47063 0.47597 0.0
H868 H 0.01089 0.44975 0.54378 0.0
H869 H 0.04173 0.46553 0.51223 0.0
H870 H 0.95343 0.52176 0.51379 0.0
H871 H 0.92362 0.50645 0.54583 0.0
C872 C 0.04001 0.53636 0.46927 0.0
C873 C 0.05002 0.52134 0.45288 0.0
C874 C 0.02403 0.52781 0.48798 0.0
C875 C 0.01786 0.50403 0.49075 0.0
C876 C 0.02839 0.48901 0.47445 0.0
C877 C 0.04428 0.49755 0.45576 0.0
C878 C 0.99834 0.46562 0.53753 0.0
C879 C 0.96475 0.47682 0.54734 0.0
C880 C 0.01574 0.47454 0.51931 0.0
C881 C -1e-05 0.49488 0.51044 0.0
C882 C 0.96658 0.50618 0.52032 0.0
C883 C 0.94914 0.49724 0.53854 0.0
H884 H 0.39559 0.99948 0.46222 0.0
H885 H 0.50877 0.96016 0.45348 0.0
H886 H 0.42407 0.01546 0.49443 0.0
H887 H 0.53744 0.97638 0.4854 0.0
H888 H 0.55519 0.99122 0.55482 0.0
H889 H 0.52465 0.97481 0.52347 0.0
H890 H 0.48182 0.0422 0.50489 0.0
H891 H 0.51311 0.05881 0.53606 0.0
C892 C 0.42642 0.99416 0.46724 0.0
C893 C 0.44998 0.9786 0.45531 0.0
C894 C 0.44287 0.00347 0.48556 0.0
C895 C 0.48301 0.9972 0.49242 0.0
C896 C 0.50629 0.9814 0.48061 0.0
C897 C 0.49002 0.97227 0.46224 0.0
C898 C 0.53974 0.00263 0.54396 0.0
C899 C 0.5369 0.02639 0.54795 0.0
C900 C 0.52209 0.99318 0.52602 0.0
C901 C 0.50088 0.00721 0.51171 0.0
C902 C 0.49754 0.03091 0.51577 0.0
C903 C 0.51546 0.04041 0.53365 0.0
H904 H 0.5494 0.44572 0.02844 0.0
H905 H 0.54672 0.51424 0.05444 0.0
H906 H 0.52138 0.46063 0.99576 0.0
H907 H 0.518 0.52905 0.02194 0.0
H908 H 0.50941 0.55032 0.95336 0.0
H909 H 0.53981 0.53501 0.98531 0.0
H910 H 0.45451 0.47745 0.98291 0.0
H911 H 0.42463 0.49253 0.95072 0.0
C912 C 0.54302 0.46397 0.02713 0.0
C913 C 0.55021 0.4788 0.04401 0.0
C914 C 0.52661 0.47246 0.0085 0.0
C915 C 0.51741 0.496 0.0063 0.0
C916 C 0.52508 0.51086 0.02311 0.0
C917 C 0.54116 0.50235 0.04177 0.0
C918 C 0.49738 0.53431 0.95958 0.0
C919 C 0.46462 0.52263 0.94954 0.0
C920 C 0.51454 0.52565 0.97796 0.0
C921 C 0.49953 0.50504 0.98663 0.0
C922 C 0.46697 0.49327 0.97651 0.0
C923 C 0.44959 0.50202 0.95821 0.0
H924 H 0.07202 0.00817 0.95192 0.0
H925 H 0.98609 0.95087 0.95432 0.0
H926 H 0.04236 0.02329 0.98408 0.0
H927 H 0.95555 0.96638 0.98609 0.0
H928 H 0.94719 0.98648 0.05504 0.0
H929 H 0.97507 0.97174 0.02241 0.0
H930 H 0.97802 0.0408 0.99757 0.0
H931 H 0.95132 0.05565 0.0305 0.0
C932 C 0.04683 0.9988 0.95932 0.0
C933 C 0.03151 0.97828 0.95059 0.0
C934 C 0.0295 0.00761 0.97762 0.0
C935 C 0.99655 0.99606 0.98764 0.0
C936 C 0.98115 0.97559 0.97886 0.0
C937 C 0.99838 0.96682 0.96054 0.0
C938 C 0.95397 0.99854 0.04265 0.0
C939 C 0.94721 0.02226 0.04541 0.0
C940 C 0.96954 0.99006 0.02387 0.0
C941 C 0.97883 0.00509 0.00739 0.0
C942 C 0.97161 0.02879 0.01004 0.0
C943 C 0.95586 0.03728 0.02882 0.0
H944 H 0.15105 0.70586 0.37356 0.0
H945 H 0.2685 0.68278 0.34779 0.0
H946 H 0.17879 0.74486 0.37622 0.0
H947 H 0.29547 0.72188 0.34952 0.0
H948 H 0.34561 0.79063 0.37102 0.0
H949 H 0.31821 0.75153 0.37297 0.0
H950 H 0.19697 0.77614 0.35344 0.0
H951 H 0.22381 0.81531 0.35247 0.0
C952 C 0.18285 0.70906 0.36856 0.0
C953 C 0.20743 0.69118 0.36035 0.0
C954 C 0.1986 0.73148 0.36987 0.0
C955 C 0.23932 0.73657 0.36298 0.0
C956 C 0.26414 0.71858 0.35516 0.0
C957 C 0.24844 0.69619 0.3539 0.0
C958 C 0.31294 0.78776 0.36747 0.0
C959 C 0.287 0.80613 0.36148 0.0
C960 C 0.29734 0.76528 0.36835 0.0
C961 C 0.25541 0.76063 0.36325 0.0
C962 C 0.22929 0.77908 0.35767 0.0
C963 C 0.24486 0.80153 0.35683 0.0
H964 H 0.8386 0.20785 0.16961 0.0
H965 H 0.76339 0.18916 0.11654 0.0
H966 H 0.8097 0.24661 0.16871 0.0
H967 H 0.73353 0.22784 0.11587 0.0
H968 H 0.71638 0.30612 0.10992 0.0
H969 H 0.74737 0.26769 0.10912 0.0
H970 H 0.74599 0.26584 0.17627 0.0
H971 H 0.71598 0.30432 0.17698 0.0
C972 C 0.81571 0.21204 0.15779 0.0
C973 C 0.80311 0.19545 0.14321 0.0
C974 C 0.79897 0.23423 0.15732 0.0
C975 C 0.76888 0.24035 0.14236 0.0
C976 C 0.75694 0.22385 0.12748 0.0
C977 C 0.77399 0.20167 0.12786 0.0
C978 C 0.7225 0.29739 0.12448 0.0
C979 C 0.71399 0.30828 0.14351 0.0
C980 C 0.74022 0.27536 0.12404 0.0
C981 C 0.74952 0.26368 0.14264 0.0
C982 C 0.74022 0.27449 0.16165 0.0
C983 C 0.72285 0.29653 0.16207 0.0
H984 H 0.72575 0.19337 0.61528 0.0
H985 H 0.69419 0.20146 0.68017 0.0
H986 H 0.75781 0.23136 0.61527 0.0
H987 H 0.72416 0.23996 0.67985 0.0
H988 H 0.82007 0.29792 0.67832 0.0
H989 H 0.79001 0.25935 0.67823 0.0
H990 H 0.74041 0.27134 0.61669 0.0
H991 H 0.77114 0.30973 0.61671 0.0
C992 C 0.72561 0.20323 0.62956 0.0
C993 C 0.7074 0.19427 0.64773 0.0
C994 C 0.74354 0.22518 0.62948 0.0
C995 C 0.74358 0.23879 0.64755 0.0
C996 C 0.7252 0.22987 0.6657 0.0
C997 C 0.70743 0.20789 0.66581 0.0
C998 C 0.80264 0.29231 0.66481 0.0
C999 C 0.79803 0.30685 0.64751 0.0
C1000 C 0.78528 0.27022 0.66477 0.0
C1001 C 0.76264 0.2622 0.64747 0.0
C1002 C 0.75819 0.27677 0.63014 0.0
C1003 C 0.77578 0.2988 0.63015 0.0
H1004 H 0.34926 0.71055 0.83783 0.0
H1005 H 0.23252 0.68341 0.86103 0.0
H1006 H 0.31967 0.74924 0.83794 0.0
H1007 H 0.20297 0.72207 0.86116 0.0
H1008 H 0.15076 0.79077 0.83794 0.0
H1009 H 0.18053 0.75215 0.83741 0.0
H1010 H 0.29642 0.77883 0.86206 0.0
H1011 H 0.26665 0.81745 0.86257 0.0
C1012 C 0.3174 0.71286 0.84311 0.0
C1013 C 0.29327 0.69386 0.8494 0.0
C1014 C 0.30043 0.73504 0.84318 0.0
C1015 C 0.25893 0.73877 0.84955 0.0
C1016 C 0.23481 0.71977 0.85584 0.0
C1017 C 0.25177 0.6976 0.85576 0.0
C1018 C 0.18247 0.78837 0.84341 0.0
C1019 C 0.20629 0.80722 0.85032 0.0
C1020 C 0.19955 0.76622 0.84311 0.0
C1021 C 0.24087 0.76237 0.84971 0.0
C1022 C 0.26472 0.78123 0.85657 0.0
C1023 C 0.24764 0.80338 0.85687 0.0
loop_
_geom_bond_atom_site_label_1
_geom_bond_atom_site_label_2
_geom_bond_distance
_geom_bond_site_symmetry_2
_ccdc_geom_bond_type
Li0 N17 1.990 . S
Li0 O60 1.956 . S
Li0 O61 1.970 . S
Li0 O62 1.961 . S
Li1 N25 1.990 . S
Li1 O60 1.970 . S
Li1 O61 1.956 . S
Li1 O63 1.961 . S
Li2 N47 1.990 . S
Li2 O60 1.961 . S
Li2 O62 1.956 . S
Li2 O63 1.970 . S
Li3 N53 1.990 . S
Li3 O61 1.961 . S
Li3 O62 1.970 . S
Li3 O63 1.956 . S
C4 C6 1.348 . S
C4 C7 1.356 . S
C4 O60 1.325 . S
N5 C8 1.314 . S
N5 C9 1.279 . S
C6 C4 1.348 . S
C6 C8 1.353 1_455 S
C6 H64 0.929 . S
C7 C4 1.356 . S
C7 C9 1.358 1_455 S
C7 H65 0.930 . S
C8 N5 1.314 . S
C8 C6 1.353 1_655 S
C8 H66 0.930 . S
C9 N5 1.279 . S
C9 C7 1.358 1_655 S
C9 H67 0.930 . S
C10 C13 1.348 . S
C10 C14 1.356 . S
C10 O61 1.325 . S
C11 N12 1.279 . S
C11 C14 1.358 . S
C11 H68 0.930 . S
N12 C11 1.279 . S
N12 C15 1.314 . S
C13 C10 1.348 . S
C13 C15 1.353 . S
C13 H69 0.929 . S
C14 C10 1.356 . S
C14 C11 1.358 . S
C14 H70 0.930 . S
C15 N12 1.314 . S
C15 C13 1.353 . S
C15 H71 0.930 . S
C16 N17 1.314 . S
C16 C21 1.353 . S
C16 H22 0.930 . S
N17 Li0 1.990 . S
N17 C16 1.314 . S
N17 C19 1.279 1_455 S
C18 C19 1.358 . S
C18 C20 1.356 . S
C18 H72 0.930 . S
C19 N17 1.279 1_655 S
C19 C18 1.358 . S
C19 H23 0.930 . S
C20 C18 1.356 . S
C20 C21 1.348 1_655 S
C21 C16 1.353 . S
C21 C20 1.348 1_455 S
C21 H73 0.929 . S
H22 C16 0.930 . S
H23 C19 0.930 . S
C24 N25 1.314 . S
C24 C26 1.353 . S
C24 H30 0.930 . S
N25 Li1 1.990 . S
N25 C24 1.314 . S
N25 C28 1.279 . S
C26 C24 1.353 . S
C26 C29 1.348 . S
C26 H74 0.929 . S
C27 C28 1.358 . S
C27 C29 1.356 . S
C27 H75 0.930 . S
C28 N25 1.279 . S
C28 C27 1.358 . S
C28 H31 0.930 . S
C29 C26 1.348 . S
C29 C27 1.356 . S
H30 C24 0.930 . S
H31 C28 0.930 . S
C32 C34 1.348 . S
C32 C35 1.356 . S
C32 O62 1.325 . S
N33 C36 1.314 . S
N33 C37 1.279 . S
C34 C32 1.348 . S
C34 C36 1.353 . S
C34 H76 0.929 . S
C35 C32 1.356 . S
C35 C37 1.358 . S
C35 H77 0.930 . S
C36 N33 1.314 . S
C36 C34 1.353 . S
C36 H78 0.930 . S
C37 N33 1.279 . S
C37 C35 1.358 . S
C37 H79 0.930 . S
C38 C39 1.348 . S
C38 C40 1.356 . S
C38 O63 1.325 . S
C39 C38 1.348 . S
C39 C41 1.353 . S
C39 H80 0.929 . S
C40 C38 1.356 . S
C40 C42 1.358 . S
C40 H81 0.930 . S
C41 C39 1.353 . S
C41 N43 1.314 . S
C41 H82 0.930 . S
C42 C40 1.358 . S
C42 N43 1.279 . S
C42 H83 0.930 . S
N43 C41 1.314 . S
N43 C42 1.279 . S
C44 C46 1.353 . S
C44 N47 1.314 . S
C44 H50 0.930 . S
C45 N47 1.279 . S
C45 C48 1.358 . S
C45 H51 0.930 . S
C46 C44 1.353 . S
C46 C49 1.348 . S
C46 H84 0.929 . S
N47 Li2 1.990 . S
N47 C44 1.314 . S
N47 C45 1.279 . S
C48 C45 1.358 . S
C48 C49 1.356 . S
C48 H85 0.930 . S
C49 C46 1.348 . S
C49 C48 1.356 . S
H50 C44 0.930 . S
H51 C45 0.930 . S
C52 N53 1.314 . S
C52 C54 1.353 . S
C52 H58 0.930 . S
N53 Li3 1.990 . S
N53 C52 1.314 . S
N53 C56 1.279 . S
C54 C52 1.353 . S
C54 C57 1.348 . S
C54 H86 0.929 . S
C55 C56 1.358 . S
C55 C57 1.356 . S
C55 H87 0.930 . S
C56 N53 1.279 . S
C56 C55 1.358 . S
C56 H59 0.930 . S
C57 C54 1.348 . S
C57 C55 1.356 . S
H58 C52 0.930 . S
H59 C56 0.930 . S
O60 Li0 1.956 . S
O60 Li1 1.970 . S
O60 Li2 1.961 . S
O60 C4 1.325 . S
O61 Li0 1.970 . S
O61 Li1 1.956 . S
O61 Li3 1.961 . S
O61 C10 1.325 . S
O62 Li0 1.961 . S
O62 Li2 1.956 . S
O62 Li3 1.970 . S
O62 C32 1.325 . S
O63 Li1 1.961 . S
O63 Li2 1.970 . S
O63 Li3 1.956 . S
O63 C38 1.325 . S
H64 C6 0.929 . S
H65 C7 0.930 . S
H66 C8 0.930 . S
H67 C9 0.930 . S
H68 C11 0.930 . S
H69 C13 0.929 . S
H70 C14 0.930 . S
H71 C15 0.930 . S
H72 C18 0.930 . S
H73 C21 0.929 . S
H74 C26 0.929 . S
H75 C27 0.930 . S
H76 C34 0.929 . S
H77 C35 0.930 . S
H78 C36 0.930 . S
H79 C37 0.930 . S
H80 C39 0.929 . S
H81 C40 0.930 . S
H82 C41 0.930 . S
H83 C42 0.930 . S
H84 C46 0.929 . S
H85 C48 0.930 . S
H86 C54 0.929 . S
H87 C55 0.930 . S
Li88 N105 1.990 . S
Li88 O148 1.956 . S
Li88 O149 1.970 . S
Li88 O150 1.961 . S
Li89 N113 1.990 . S
Li89 O148 1.970 . S
Li89 O149 1.956 . S
Li89 O151 1.961 . S
Li90 N135 1.990 . S
Li90 O148 1.961 . S
Li90 O150 1.956 . S
Li90 O151 1.970 . S
Li91 N141 1.990 . S
Li91 O149 1.961 . S
Li91 O150 1.970 . S
Li91 O151 1.956 . S
C92 C94 1.348 . S
C92 C95 1.356 . S
C92 O148 1.325 . S
N93 C96 1.314 . S
N93 C97 1.279 . S
C94 C92 1.348 . S
C94 C96 1.353 . S
C94 H152 0.929 . S
C95 C92 1.356 . S
C95 C97 1.358 . S
C95 H153 0.930 . S
C96 N93 1.314 . S
C96 C94 1.353 . S
C96 H154 0.930 . S
C97 N93 1.279 . S
C97 C95 1.358 . S
C97 H155 0.930 . S
C98 C101 1.348 . S
C98 C102 1.356 . S
C98 O149 1.325 . S
C99 N100 1.279 . S
C99 C102 1.358 . S
C99 H156 0.930 . S
N100 C99 1.279 . S
N100 C103 1.314 . S
C101 C98 1.348 . S
C101 C103 1.353 . S
C101 H157 0.929 . S
C102 C98 1.356 . S
C102 C99 1.358 . S
C102 H158 0.930 . S
C103 N100 1.314 . S
C103 C101 1.353 . S
C103 H159 0.930 . S
C104 N105 1.314 . S
C104 C109 1.353 . S
C104 H110 0.930 . S
N105 Li88 1.990 . S
N105 C104 1.314 . S
N105 C107 1.279 . S
C106 C107 1.358 . S
C106 C108 1.356 . S
C106 H160 0.930 . S
C107 N105 1.279 . S
C107 C106 1.358 . S
C107 H111 0.930 . S
C108 C106 1.356 . S
C108 C109 1.348 . S
C109 C104 1.353 . S
C109 C108 1.348 . S
C109 H161 0.929 1_565 S
H110 C104 0.930 . S
H111 C107 0.930 . S
C112 N113 1.314 . S
C112 C114 1.353 . S
C112 H118 0.930 . S
N113 Li89 1.990 . S
N113 C112 1.314 . S
N113 C116 1.279 . S
C114 C112 1.353 . S
C114 C117 1.348 . S
C114 H162 0.929 . S
C115 C116 1.358 . S
C115 C117 1.356 . S
C115 H163 0.930 . S
C116 N113 1.279 . S
C116 C115 1.358 . S
C116 H119 0.930 . S
C117 C114 1.348 . S
C117 C115 1.356 . S
H118 C112 0.930 . S
H119 C116 0.930 . S
C120 C122 1.348 . S
C120 C123 1.356 1_565 S
C120 O150 1.325 . S
N121 C124 1.314 . S
N121 C125 1.279 . S
C122 C120 1.348 . S
C122 C124 1.353 1_565 S
C122 H164 0.929 . S
C123 C120 1.356 1_545 S
C123 C125 1.358 . S
C123 H165 0.930 1_545 S
C124 N121 1.314 . S
C124 C122 1.353 1_545 S
C124 H166 0.930 . S
C125 N121 1.279 . S
C125 C123 1.358 . S
C125 H167 0.930 . S
C126 C127 1.348 . S
C126 C128 1.356 . S
C126 O151 1.325 . S
C127 C126 1.348 . S
C127 C129 1.353 . S
C127 H168 0.929 . S
C128 C126 1.356 . S
C128 C130 1.358 . S
C128 H169 0.930 . S
C129 C127 1.353 . S
C129 N131 1.314 . S
C129 H170 0.930 . S
C130 C128 1.358 . S
C130 N131 1.279 . S
C130 H171 0.930 . S
N131 C129 1.314 . S
N131 C130 1.279 . S
C132 C134 1.353 . S
C132 N135 1.314 . S
C132 H138 0.930 . S
C133 N135 1.279 . S
C133 C136 1.358 . S
C133 H139 0.930 . S
C134 C132 1.353 . S
C134 C137 1.348 . S
C134 H172 0.929 . S
N135 Li90 1.990 . S
N135 C132 1.314 . S
N135 C133 1.279 . S
C136 C133 1.358 . S
C136 C137 1.356 . S
C136 H173 0.929 . S
C137 C134 1.348 . S
C137 C136 1.356 . S
H138 C132 0.930 . S
H139 C133 0.930 . S
C140 N141 1.314 . S
C140 C142 1.353 . S
C140 H146 0.930 . S
N141 Li91 1.990 . S
N141 C140 1.314 . S
N141 C144 1.279 . S
C142 C140 1.353 . S
C142 C145 1.348 . S
C142 H174 0.929 . S
C143 C144 1.358 . S
C143 C145 1.356 . S
C143 H175 0.930 . S
C144 N141 1.279 . S
C144 C143 1.358 . S
C144 H147 0.930 . S
C145 C142 1.348 . S
C145 C143 1.356 . S
H146 C140 0.930 . S
H147 C144 0.930 . S
O148 Li88 1.956 . S
O148 Li89 1.970 . S
O148 Li90 1.961 . S
O148 C92 1.325 . S
O149 Li88 1.970 . S
O149 Li89 1.956 . S
O149 Li91 1.961 . S
O149 C98 1.325 . S
O150 Li88 1.961 . S
O150 Li90 1.956 . S
O150 Li91 1.970 . S
O150 C120 1.325 . S
O151 Li89 1.961 . S
O151 Li90 1.970 . S
O151 Li91 1.956 . S
O151 C126 1.325 . S
H152 C94 0.929 . S
H153 C95 0.930 . S
H154 C96 0.930 . S
H155 C97 0.930 . S
H156 C99 0.930 . S
H157 C101 0.929 . S
H158 C102 0.930 . S
H159 C103 0.930 . S
H160 C106 0.930 . S
H161 C109 0.929 1_545 S
H162 C114 0.929 . S
H163 C115 0.930 . S
H164 C122 0.929 . S
H165 C123 0.930 1_565 S
H166 C124 0.930 . S
H167 C125 0.930 . S
H168 C127 0.929 . S
H169 C128 0.930 . S
H170 C129 0.930 . S
H171 C130 0.930 . S
H172 C134 0.929 . S
H173 C136 0.929 . S
H174 C142 0.929 . S
H175 C143 0.930 . S
Li176 N193 1.990 . S
Li176 O236 1.956 . S
Li176 O237 1.970 . S
Li176 O238 1.961 . S
Li177 N201 1.990 . S
Li177 O236 1.970 . S
Li177 O237 1.956 . S
Li177 O239 1.961 . S
Li178 N223 1.990 . S
Li178 O236 1.961 . S
Li178 O238 1.956 . S
Li178 O239 1.970 . S
Li179 N229 1.990 . S
Li179 O237 1.961 . S
Li179 O238 1.970 . S
Li179 O239 1.956 . S
C180 C182 1.348 . S
C180 C183 1.356 . S
C180 O236 1.325 . S
N181 C184 1.314 . S
N181 C185 1.279 . S
C182 C180 1.348 . S
C182 C184 1.353 . S
C182 H240 0.929 . S
C183 C180 1.356 . S
C183 C185 1.358 . S
C183 H241 0.930 . S
C184 N181 1.314 . S
C184 C182 1.353 . S
C184 H242 0.930 . S
C185 N181 1.279 . S
C185 C183 1.358 . S
C185 H243 0.930 . S
C186 C189 1.348 . S
C186 C190 1.356 . S
C186 O237 1.325 . S
C187 N188 1.279 . S
C187 C190 1.358 . S
C187 H244 0.930 . S
N188 C187 1.279 . S
N188 C191 1.314 . S
C189 C186 1.348 . S
C189 C191 1.353 . S
C189 H245 0.929 . S
C190 C186 1.356 . S
C190 C187 1.358 . S
C190 H246 0.930 . S
C191 N188 1.314 . S
C191 C189 1.353 . S
C191 H247 0.930 . S
C192 N193 1.314 . S
C192 C197 1.353 . S
C192 H198 0.930 . S
N193 Li176 1.990 . S
N193 C192 1.314 . S
N193 C195 1.279 . S
C194 C195 1.358 . S
C194 C196 1.356 . S
C194 H248 0.930 . S
C195 N193 1.279 . S
C195 C194 1.358 . S
C195 H199 0.930 . S
C196 C194 1.356 . S
C196 C197 1.348 . S
C197 C192 1.353 . S
C197 C196 1.348 . S
C197 H249 0.929 . S
H198 C192 0.930 . S
H199 C195 0.930 . S
C200 N201 1.314 . S
C200 C202 1.353 . S
C200 H206 0.930 . S
N201 Li177 1.990 . S
N201 C200 1.314 . S
N201 C204 1.279 . S
C202 C200 1.353 . S
C202 C205 1.348 . S
C202 H250 0.929 . S
C203 C204 1.358 . S
C203 C205 1.356 . S
C203 H251 0.930 . S
C204 N201 1.279 . S
C204 C203 1.358 . S
C204 H207 0.930 . S
C205 C202 1.348 . S
C205 C203 1.356 . S
H206 C200 0.930 . S
H207 C204 0.930 . S
C208 C210 1.348 . S
C208 C211 1.356 . S
C208 O238 1.325 . S
N209 C212 1.314 . S
N209 C213 1.279 . S
C210 C208 1.348 . S
C210 C212 1.353 . S
C210 H252 0.929 . S
C211 C208 1.356 . S
C211 C213 1.358 . S
C211 H253 0.930 . S
C212 N209 1.314 . S
C212 C210 1.353 . S
C212 H254 0.930 . S
C213 N209 1.279 . S
C213 C211 1.358 . S
C213 H255 0.930 . S
C214 C215 1.348 . S
C214 C216 1.356 . S
C214 O239 1.325 . S
C215 C214 1.348 . S
C215 C217 1.353 . S
C215 H256 0.929 . S
C216 C214 1.356 . S
C216 C218 1.358 . S
C216 H257 0.930 . S
C217 C215 1.353 . S
C217 N219 1.314 . S
C217 H258 0.930 . S
C218 C216 1.358 . S
C218 N219 1.279 . S
C218 H259 0.930 . S
N219 C217 1.314 . S
N219 C218 1.279 . S
C220 C222 1.353 . S
C220 N223 1.314 . S
C220 H226 0.930 . S
C221 N223 1.279 . S
C221 C224 1.358 . S
C221 H227 0.930 . S
C222 C220 1.353 . S
C222 C225 1.348 . S
C222 H260 0.929 . S
N223 Li178 1.990 . S
N223 C220 1.314 . S
N223 C221 1.279 . S
C224 C221 1.358 . S
C224 C225 1.356 . S
C224 H261 0.930 . S
C225 C222 1.348 . S
C225 C224 1.356 . S
H226 C220 0.930 . S
H227 C221 0.930 . S
C228 N229 1.314 . S
C228 C230 1.353 . S
C228 H234 0.930 . S
N229 Li179 1.990 . S
N229 C228 1.314 . S
N229 C232 1.279 . S
C230 C228 1.353 . S
C230 C233 1.348 . S
C230 H262 0.929 . S
C231 C232 1.358 . S
C231 C233 1.356 . S
C231 H263 0.930 . S
C232 N229 1.279 . S
C232 C231 1.358 . S
C232 H235 0.930 . S
C233 C230 1.348 . S
C233 C231 1.356 . S
H234 C228 0.930 . S
H235 C232 0.930 . S
O236 Li176 1.956 . S
O236 Li177 1.970 . S
O236 Li178 1.961 . S
O236 C180 1.325 . S
O237 Li176 1.970 . S
O237 Li177 1.956 . S
O237 Li179 1.961 . S
O237 C186 1.325 . S
O238 Li176 1.961 . S
O238 Li178 1.956 . S
O238 Li179 1.970 . S
O238 C208 1.325 . S
O239 Li177 1.961 . S
O239 Li178 1.970 . S
O239 Li179 1.956 . S
O239 C214 1.325 . S
H240 C182 0.929 . S
H241 C183 0.930 . S
H242 C184 0.930 . S
H243 C185 0.930 . S
H244 C187 0.930 . S
H245 C189 0.929 . S
H246 C190 0.930 . S
H247 C191 0.930 . S
H248 C194 0.930 . S
H249 C197 0.929 . S
H250 C202 0.929 . S
H251 C203 0.930 . S
H252 C210 0.929 . S
H253 C211 0.930 . S
H254 C212 0.930 . S
H255 C213 0.930 . S
H256 C215 0.929 . S
H257 C216 0.930 . S
H258 C217 0.930 . S
H259 C218 0.930 . S
H260 C222 0.929 . S
H261 C224 0.930 . S
H262 C230 0.929 . S
H263 C231 0.930 . S
Li264 N281 1.990 . S
Li264 O324 1.956 . S
Li264 O325 1.970 . S
Li264 O326 1.961 . S
Li265 N289 1.990 . S
Li265 O324 1.970 . S
Li265 O325 1.956 . S
Li265 O327 1.961 . S
Li266 N311 1.990 . S
Li266 O324 1.961 . S
Li266 O326 1.956 . S
Li266 O327 1.970 . S
Li267 N317 1.990 . S
Li267 O325 1.961 . S
Li267 O326 1.970 . S
Li267 O327 1.956 . S
C268 C270 1.348 . S
C268 C271 1.356 . S
C268 O324 1.325 . S
N269 C272 1.314 . S
N269 C273 1.279 . S
C270 C268 1.348 . S
C270 C272 1.353 . S
C270 H328 0.929 . S
C271 C268 1.356 . S
C271 C273 1.358 . S
C271 H329 0.930 . S
C272 N269 1.314 . S
C272 C270 1.353 . S
C272 H330 0.930 . S
C273 N269 1.279 . S
C273 C271 1.358 . S
C273 H331 0.930 . S
C274 C277 1.348 . S
C274 C278 1.356 . S
C274 O325 1.325 . S
C275 N276 1.279 . S
C275 C278 1.358 . S
C275 H332 0.930 . S
N276 C275 1.279 . S
N276 C279 1.314 . S
C277 C274 1.348 . S
C277 C279 1.353 . S
C277 H333 0.929 . S
C278 C274 1.356 . S
C278 C275 1.358 . S
C278 H334 0.930 . S
C279 N276 1.314 . S
C279 C277 1.353 . S
C279 H335 0.930 . S
C280 N281 1.314 . S
C280 C285 1.353 . S
C280 H286 0.930 . S
N281 Li264 1.990 . S
N281 C280 1.314 . S
N281 C283 1.279 . S
C282 C283 1.358 . S
C282 C284 1.356 . S
C282 H336 0.930 . S
C283 N281 1.279 . S
C283 C282 1.358 . S
C283 H287 0.930 . S
C284 C282 1.356 . S
C284 C285 1.348 . S
C285 C280 1.353 . S
C285 C284 1.348 . S
C285 H337 0.929 1_545 S
H286 C280 0.930 . S
H287 C283 0.930 . S
C288 N289 1.314 . S
C288 C290 1.353 . S
C288 H294 0.930 . S
N289 Li265 1.990 . S
N289 C288 1.314 . S
N289 C292 1.279 . S
C290 C288 1.353 . S
C290 C293 1.348 . S
C290 H338 0.929 . S
C291 C292 1.358 . S
C291 C293 1.356 . S
C291 H339 0.930 . S
C292 N289 1.279 . S
C292 C291 1.358 . S
C292 H295 0.930 . S
C293 C290 1.348 . S
C293 C291 1.356 . S
H294 C288 0.930 . S
H295 C292 0.930 . S
C296 C298 1.348 . S
C296 C299 1.356 1_545 S
C296 O326 1.325 . S
N297 C300 1.314 . S
N297 C301 1.279 . S
C298 C296 1.348 . S
C298 C300 1.353 1_545 S
C298 H340 0.929 . S
C299 C296 1.356 1_565 S
C299 C301 1.358 . S
C299 H341 0.930 1_565 S
C300 N297 1.314 . S
C300 C298 1.353 1_565 S
C300 H342 0.930 . S
C301 N297 1.279 . S
C301 C299 1.358 . S
C301 H343 0.930 . S
C302 C303 1.348 . S
C302 C304 1.356 . S
C302 O327 1.325 . S
C303 C302 1.348 . S
C303 C305 1.353 1_655 S
C303 H344 0.929 . S
C304 C302 1.356 . S
C304 C306 1.358 1_655 S
C304 H345 0.930 . S
C305 C303 1.353 1_455 S
C305 N307 1.314 . S
C305 H346 0.930 . S
C306 C304 1.358 1_455 S
C306 N307 1.279 . S
C306 H347 0.930 . S
N307 C305 1.314 . S
N307 C306 1.279 . S
C308 C310 1.353 . S
C308 N311 1.314 . S
C308 H314 0.930 . S
C309 N311 1.279 . S
C309 C312 1.358 . S
C309 H315 0.930 . S
C310 C308 1.353 . S
C310 C313 1.348 . S
C310 H348 0.929 . S
N311 Li266 1.990 . S
N311 C308 1.314 . S
N311 C309 1.279 . S
C312 C309 1.358 . S
C312 C313 1.356 . S
C312 H349 0.929 . S
C313 C310 1.348 . S
C313 C312 1.356 . S
H314 C308 0.930 . S
H315 C309 0.930 . S
C316 N317 1.314 . S
C316 C318 1.353 . S
C316 H322 0.930 . S
N317 Li267 1.990 . S
N317 C316 1.314 . S
N317 C320 1.279 1_655 S
C318 C316 1.353 . S
C318 C321 1.348 1_655 S
C318 H350 0.929 . S
C319 C320 1.358 . S
C319 C321 1.356 . S
C319 H351 0.930 . S
C320 N317 1.279 1_455 S
C320 C319 1.358 . S
C320 H323 0.930 . S
C321 C318 1.348 1_455 S
C321 C319 1.356 . S
H322 C316 0.930 . S
H323 C320 0.930 . S
O324 Li264 1.956 . S
O324 Li265 1.970 . S
O324 Li266 1.961 . S
O324 C268 1.325 . S
O325 Li264 1.970 . S
O325 Li265 1.956 . S
O325 Li267 1.961 . S
O325 C274 1.325 . S
O326 Li264 1.961 . S
O326 Li266 1.956 . S
O326 Li267 1.970 . S
O326 C296 1.325 . S
O327 Li265 1.961 . S
O327 Li266 1.970 . S
O327 Li267 1.956 . S
O327 C302 1.325 . S
H328 C270 0.929 . S
H329 C271 0.930 . S
H330 C272 0.930 . S
H331 C273 0.930 . S
H332 C275 0.930 . S
H333 C277 0.929 . S
H334 C278 0.930 . S
H335 C279 0.930 . S
H336 C282 0.930 . S
H337 C285 0.929 1_565 S
H338 C290 0.929 . S
H339 C291 0.930 . S
H340 C298 0.929 . S
H341 C299 0.930 1_545 S
H342 C300 0.930 . S
H343 C301 0.930 . S
H344 C303 0.929 . S
H345 C304 0.930 . S
H346 C305 0.930 . S
H347 C306 0.930 . S
H348 C310 0.929 . S
H349 C312 0.929 . S
H350 C318 0.929 . S
H351 C319 0.930 . S
Li352 N369 1.990 . S
Li352 O412 1.956 . S
Li352 O413 1.970 . S
Li352 O414 1.961 . S
Li353 N377 1.990 . S
Li353 O412 1.970 . S
Li353 O413 1.956 . S
Li353 O415 1.961 . S
Li354 N399 1.990 . S
Li354 O412 1.961 . S
Li354 O414 1.956 . S
Li354 O415 1.970 . S
Li355 N405 1.990 . S
Li355 O413 1.961 . S
Li355 O414 1.970 . S
Li355 O415 1.956 . S
C356 C358 1.348 . S
C356 C359 1.356 . S
C356 O412 1.325 . S
N357 C360 1.314 . S
N357 C361 1.279 . S
C358 C356 1.348 . S
C358 C360 1.353 . S
C358 H416 0.929 . S
C359 C356 1.356 . S
C359 C361 1.358 . S
C359 H417 0.930 . S
C360 N357 1.314 . S
C360 C358 1.353 . S
C360 H418 0.930 . S
C361 N357 1.279 . S
C361 C359 1.358 . S
C361 H419 0.930 . S
C362 C365 1.348 . S
C362 C366 1.356 . S
C362 O413 1.325 . S
C363 N364 1.279 . S
C363 C366 1.358 . S
C363 H420 0.930 . S
N364 C363 1.279 . S
N364 C367 1.314 . S
C365 C362 1.348 . S
C365 C367 1.353 . S
C365 H421 0.929 . S
C366 C362 1.356 . S
C366 C363 1.358 . S
C366 H422 0.930 . S
C367 N364 1.314 . S
C367 C365 1.353 . S
C367 H423 0.930 . S
C368 N369 1.314 . S
C368 C373 1.353 . S
C368 H374 0.930 . S
N369 Li352 1.990 . S
N369 C368 1.314 . S
N369 C371 1.279 . S
C370 C371 1.358 . S
C370 C372 1.356 . S
C370 H424 0.930 . S
C371 N369 1.279 . S
C371 C370 1.358 . S
C371 H375 0.930 . S
C372 C370 1.356 . S
C372 C373 1.348 . S
C373 C368 1.353 . S
C373 C372 1.348 . S
C373 H425 0.929 . S
H374 C368 0.930 . S
H375 C371 0.930 . S
C376 N377 1.314 1_455 S
C376 C378 1.353 . S
C376 H382 0.930 . S
N377 Li353 1.990 . S
N377 C376 1.314 1_655 S
N377 C380 1.279 . S
C378 C376 1.353 . S
C378 C381 1.348 . S
C378 H426 0.929 . S
C379 C380 1.358 . S
C379 C381 1.356 1_655 S
C379 H427 0.930 . S
C380 N377 1.279 . S
C380 C379 1.358 . S
C380 H383 0.930 . S
C381 C378 1.348 . S
C381 C379 1.356 1_455 S
H382 C376 0.930 . S
H383 C380 0.930 . S
C384 C386 1.348 . S
C384 C387 1.356 . S
C384 O414 1.325 . S
N385 C388 1.314 . S
N385 C389 1.279 . S
C386 C384 1.348 . S
C386 C388 1.353 . S
C386 H428 0.929 . S
C387 C384 1.356 . S
C387 C389 1.358 . S
C387 H429 0.930 . S
C388 N385 1.314 . S
C388 C386 1.353 . S
C388 H430 0.930 . S
C389 N385 1.279 . S
C389 C387 1.358 . S
C389 H431 0.930 . S
C390 C391 1.348 . S
C390 C392 1.356 . S
C390 O415 1.325 . S
C391 C390 1.348 . S
C391 C393 1.353 . S
C391 H432 0.929 . S
C392 C390 1.356 . S
C392 C394 1.358 1_655 S
C392 H433 0.930 . S
C393 C391 1.353 . S
C393 N395 1.314 1_655 S
C393 H434 0.932 . S
C394 C392 1.358 1_455 S
C394 N395 1.279 . S
C394 H435 0.930 . S
N395 C393 1.314 1_455 S
N395 C394 1.279 . S
C396 C398 1.353 . S
C396 N399 1.314 . S
C396 H402 0.930 . S
C397 N399 1.279 . S
C397 C400 1.358 . S
C397 H403 0.930 . S
C398 C396 1.353 . S
C398 C401 1.348 . S
C398 H436 0.929 . S
N399 Li354 1.990 . S
N399 C396 1.314 . S
N399 C397 1.279 . S
C400 C397 1.358 . S
C400 C401 1.356 . S
C400 H437 0.930 . S
C401 C398 1.348 . S
C401 C400 1.356 . S
H402 C396 0.930 . S
H403 C397 0.930 . S
C404 N405 1.314 . S
C404 C406 1.353 . S
C404 H410 0.930 . S
N405 Li355 1.990 . S
N405 C404 1.314 . S
N405 C408 1.279 . S
C406 C404 1.353 . S
C406 C409 1.348 . S
C406 H438 0.929 . S
C407 C408 1.358 . S
C407 C409 1.356 . S
C407 H439 0.930 . S
C408 N405 1.279 . S
C408 C407 1.358 . S
C408 H411 0.930 . S
C409 C406 1.348 . S
C409 C407 1.356 . S
H410 C404 0.930 . S
H411 C408 0.930 . S
O412 Li352 1.956 . S
O412 Li353 1.970 . S
O412 Li354 1.961 . S
O412 C356 1.325 . S
O413 Li352 1.970 . S
O413 Li353 1.956 . S
O413 Li355 1.961 . S
O413 C362 1.325 . S
O414 Li352 1.961 . S
O414 Li354 1.956 . S
O414 Li355 1.970 . S
O414 C384 1.325 . S
O415 Li353 1.961 . S
O415 Li354 1.970 . S
O415 Li355 1.956 . S
O415 C390 1.325 . S
H416 C358 0.929 . S
H417 C359 0.930 . S
H418 C360 0.930 . S
H419 C361 0.930 . S
H420 C363 0.930 . S
H421 C365 0.929 . S
H422 C366 0.930 . S
H423 C367 0.930 . S
H424 C370 0.930 . S
H425 C373 0.929 . S
H426 C378 0.929 . S
H427 C379 0.930 . S
H428 C386 0.929 . S
H429 C387 0.930 . S
H430 C388 0.930 . S
H431 C389 0.930 . S
H432 C391 0.929 . S
H433 C392 0.930 . S
H434 C393 0.932 . S
H435 C394 0.930 . S
H436 C398 0.929 . S
H437 C400 0.930 . S
H438 C406 0.929 . S
H439 C407 0.930 . S
Li440 N457 1.990 . S
Li440 O500 1.956 . S
Li440 O501 1.970 . S
Li440 O502 1.961 . S
Li441 N465 1.990 . S
Li441 O500 1.970 . S
Li441 O501 1.956 . S
Li441 O503 1.961 . S
Li442 N487 1.990 . S
Li442 O500 1.961 . S
Li442 O502 1.956 . S
Li442 O503 1.970 . S
Li443 N493 1.990 . S
Li443 O501 1.961 . S
Li443 O502 1.970 . S
Li443 O503 1.956 . S
C444 C446 1.348 . S
C444 C447 1.356 . S
C444 O500 1.325 . S
N445 C448 1.314 . S
N445 C449 1.279 . S
C446 C444 1.348 . S
C446 C448 1.353 . S
C446 H504 0.929 . S
C447 C444 1.356 . S
C447 C449 1.358 . S
C447 H505 0.930 . S
C448 N445 1.314 . S
C448 C446 1.353 . S
C448 H506 0.930 . S
C449 N445 1.279 . S
C449 C447 1.358 . S
C449 H507 0.930 . S
C450 C453 1.348 . S
C450 C454 1.356 1_545 S
C450 O501 1.325 . S
C451 N452 1.279 . S
C451 C454 1.358 . S
C451 H508 0.930 . S
N452 C451 1.279 . S
N452 C455 1.314 . S
C453 C450 1.348 . S
C453 C455 1.353 1_545 S
C453 H509 0.929 . S
C454 C450 1.356 1_565 S
C454 C451 1.358 . S
C454 H510 0.930 1_565 S
C455 N452 1.314 . S
C455 C453 1.353 1_565 S
C455 H511 0.930 . S
C456 N457 1.314 . S
C456 C461 1.353 . S
C456 H462 0.930 . S
N457 Li440 1.990 . S
N457 C456 1.314 . S
N457 C459 1.279 . S
C458 C459 1.358 . S
C458 C460 1.356 . S
C458 H512 0.930 . S
C459 N457 1.279 . S
C459 C458 1.358 . S
C459 H463 0.930 . S
C460 C458 1.356 . S
C460 C461 1.348 . S
C461 C456 1.353 . S
C461 C460 1.348 . S
C461 H513 0.929 . S
H462 C456 0.930 . S
H463 C459 0.930 . S
C464 N465 1.314 . S
C464 C466 1.353 . S
C464 H470 0.930 . S
N465 Li441 1.990 . S
N465 C464 1.314 . S
N465 C468 1.279 . S
C466 C464 1.353 . S
C466 C469 1.348 . S
C466 H514 0.929 . S
C467 C468 1.358 . S
C467 C469 1.356 . S
C467 H515 0.930 1_545 S
C468 N465 1.279 . S
C468 C467 1.358 . S
C468 H471 0.930 . S
C469 C466 1.348 . S
C469 C467 1.356 . S
H470 C464 0.930 . S
H471 C468 0.930 . S
C472 C474 1.348 . S
C472 C475 1.356 . S
C472 O502 1.325 . S
N473 C476 1.314 . S
N473 C477 1.279 . S
C474 C472 1.348 . S
C474 C476 1.353 . S
C474 H516 0.929 . S
C475 C472 1.356 . S
C475 C477 1.358 . S
C475 H517 0.930 . S
C476 N473 1.314 . S
C476 C474 1.353 . S
C476 H518 0.930 . S
C477 N473 1.279 . S
C477 C475 1.358 . S
C477 H519 0.930 . S
C478 C479 1.348 . S
C478 C480 1.356 . S
C478 O503 1.325 . S
C479 C478 1.348 . S
C479 C481 1.353 . S
C479 H520 0.929 . S
C480 C478 1.356 . S
C480 C482 1.358 . S
C480 H521 0.930 . S
C481 C479 1.353 . S
C481 N483 1.314 . S
C481 H522 0.930 . S
C482 C480 1.358 . S
C482 N483 1.279 . S
C482 H523 0.930 . S
N483 C481 1.314 . S
N483 C482 1.279 . S
C484 C486 1.353 . S
C484 N487 1.314 . S
C484 H490 0.930 . S
C485 N487 1.279 . S
C485 C488 1.358 . S
C485 H491 0.930 . S
C486 C484 1.353 . S
C486 C489 1.348 . S
C486 H524 0.929 . S
N487 Li442 1.990 . S
N487 C484 1.314 . S
N487 C485 1.279 . S
C488 C485 1.358 . S
C488 C489 1.356 . S
C488 H525 0.930 . S
C489 C486 1.348 . S
C489 C488 1.356 . S
H490 C484 0.930 . S
H491 C485 0.930 . S
C492 N493 1.314 . S
C492 C494 1.353 . S
C492 H498 0.930 . S
N493 Li443 1.990 . S
N493 C492 1.314 . S
N493 C496 1.279 . S
C494 C492 1.353 . S
C494 C497 1.348 . S
C494 H526 0.929 . S
C495 C496 1.358 . S
C495 C497 1.356 . S
C495 H527 0.930 . S
C496 N493 1.279 . S
C496 C495 1.358 . S
C496 H499 0.930 . S
C497 C494 1.348 . S
C497 C495 1.356 . S
H498 C492 0.930 . S
H499 C496 0.930 . S
O500 Li440 1.956 . S
O500 Li441 1.970 . S
O500 Li442 1.961 . S
O500 C444 1.325 . S
O501 Li440 1.970 . S
O501 Li441 1.956 . S
O501 Li443 1.961 . S
O501 C450 1.325 . S
O502 Li440 1.961 . S
O502 Li442 1.956 . S
O502 Li443 1.970 . S
O502 C472 1.325 . S
O503 Li441 1.961 . S
O503 Li442 1.970 . S
O503 Li443 1.956 . S
O503 C478 1.325 . S
H504 C446 0.929 . S
H505 C447 0.930 . S
H506 C448 0.930 . S
H507 C449 0.930 . S
H508 C451 0.930 . S
H509 C453 0.929 . S
H510 C454 0.930 1_545 S
H511 C455 0.930 . S
H512 C458 0.930 . S
H513 C461 0.929 . S
H514 C466 0.929 . S
H515 C467 0.930 1_565 S
H516 C474 0.929 . S
H517 C475 0.930 . S
H518 C476 0.930 . S
H519 C477 0.930 . S
H520 C479 0.929 . S
H521 C480 0.930 . S
H522 C481 0.930 . S
H523 C482 0.930 . S
H524 C486 0.929 . S
H525 C488 0.930 . S
H526 C494 0.929 . S
H527 C495 0.930 . S
Li528 N545 1.990 . S
Li528 O588 1.956 . S
Li528 O589 1.970 . S
Li528 O590 1.961 . S
Li529 N553 1.990 . S
Li529 O588 1.970 . S
Li529 O589 1.956 . S
Li529 O591 1.961 . S
Li530 N575 1.990 . S
Li530 O588 1.961 . S
Li530 O590 1.956 . S
Li530 O591 1.970 . S
Li531 N581 1.990 . S
Li531 O589 1.961 . S
Li531 O590 1.970 . S
Li531 O591 1.956 . S
C532 C534 1.348 . S
C532 C535 1.356 . S
C532 O588 1.325 . S
N533 C536 1.314 . S
N533 C537 1.279 . S
C534 C532 1.348 . S
C534 C536 1.353 . S
C534 H592 0.929 . S
C535 C532 1.356 . S
C535 C537 1.358 . S
C535 H593 0.930 . S
C536 N533 1.314 . S
C536 C534 1.353 . S
C536 H594 0.930 . S
C537 N533 1.279 . S
C537 C535 1.358 . S
C537 H595 0.930 . S
C538 C541 1.348 . S
C538 C542 1.356 . S
C538 O589 1.325 . S
C539 N540 1.279 . S
C539 C542 1.358 . S
C539 H596 0.930 . S
N540 C539 1.279 . S
N540 C543 1.314 . S
C541 C538 1.348 . S
C541 C543 1.353 . S
C541 H597 0.929 . S
C542 C538 1.356 . S
C542 C539 1.358 . S
C542 H598 0.930 . S
C543 N540 1.314 . S
C543 C541 1.353 . S
C543 H599 0.930 . S
C544 N545 1.314 . S
C544 C549 1.353 . S
C544 H550 0.930 . S
N545 Li528 1.990 . S
N545 C544 1.314 . S
N545 C547 1.279 . S
C546 C547 1.358 . S
C546 C548 1.356 . S
C546 H600 0.930 . S
C547 N545 1.279 . S
C547 C546 1.358 . S
C547 H551 0.930 . S
C548 C546 1.356 . S
C548 C549 1.348 . S
C549 C544 1.353 . S
C549 C548 1.348 . S
C549 H601 0.929 . S
H550 C544 0.930 . S
H551 C547 0.930 . S
C552 N553 1.314 . S
C552 C554 1.353 . S
C552 H558 0.930 . S
N553 Li529 1.990 . S
N553 C552 1.314 . S
N553 C556 1.279 . S
C554 C552 1.353 . S
C554 C557 1.348 . S
C554 H602 0.929 . S
C555 C556 1.358 . S
C555 C557 1.356 . S
C555 H603 0.930 . S
C556 N553 1.279 . S
C556 C555 1.358 . S
C556 H559 0.930 . S
C557 C554 1.348 . S
C557 C555 1.356 . S
H558 C552 0.930 . S
H559 C556 0.930 . S
C560 C562 1.348 . S
C560 C563 1.356 . S
C560 O590 1.325 . S
N561 C564 1.314 . S
N561 C565 1.279 . S
C562 C560 1.348 . S
C562 C564 1.353 . S
C562 H604 0.929 . S
C563 C560 1.356 . S
C563 C565 1.358 . S
C563 H605 0.930 . S
C564 N561 1.314 . S
C564 C562 1.353 . S
C564 H606 0.930 . S
C565 N561 1.279 . S
C565 C563 1.358 . S
C565 H607 0.930 . S
C566 C567 1.348 . S
C566 C568 1.356 . S
C566 O591 1.325 . S
C567 C566 1.348 . S
C567 C569 1.353 . S
C567 H608 0.929 . S
C568 C566 1.356 . S
C568 C570 1.358 . S
C568 H609 0.930 . S
C569 C567 1.353 . S
C569 N571 1.314 . S
C569 H610 0.930 . S
C570 C568 1.358 . S
C570 N571 1.279 . S
C570 H611 0.930 . S
N571 C569 1.314 . S
N571 C570 1.279 . S
C572 C574 1.353 . S
C572 N575 1.314 . S
C572 H578 0.930 . S
C573 N575 1.279 . S
C573 C576 1.358 . S
C573 H579 0.930 . S
C574 C572 1.353 . S
C574 C577 1.348 . S
C574 H612 0.929 . S
N575 Li530 1.990 . S
N575 C572 1.314 . S
N575 C573 1.279 . S
C576 C573 1.358 . S
C576 C577 1.356 . S
C576 H613 0.930 . S
C577 C574 1.348 . S
C577 C576 1.356 . S
H578 C572 0.930 . S
H579 C573 0.930 . S
C580 N581 1.314 . S
C580 C582 1.353 . S
C580 H586 0.930 . S
N581 Li531 1.990 . S
N581 C580 1.314 . S
N581 C584 1.279 . S
C582 C580 1.353 . S
C582 C585 1.348 . S
C582 H614 0.929 . S
C583 C584 1.358 . S
C583 C585 1.356 . S
C583 H615 0.930 . S
C584 N581 1.279 . S
C584 C583 1.358 . S
C584 H587 0.930 . S
C585 C582 1.348 . S
C585 C583 1.356 . S
H586 C580 0.930 . S
H587 C584 0.930 . S
O588 Li528 1.956 . S
O588 Li529 1.970 . S
O588 Li530 1.961 . S
O588 C532 1.325 . S
O589 Li528 1.970 . S
O589 Li529 1.956 . S
O589 Li531 1.961 . S
O589 C538 1.325 . S
O590 Li528 1.961 . S
O590 Li530 1.956 . S
O590 Li531 1.970 . S
O590 C560 1.325 . S
O591 Li529 1.961 . S
O591 Li530 1.970 . S
O591 Li531 1.956 . S
O591 C566 1.325 . S
H592 C534 0.929 . S
H593 C535 0.930 . S
H594 C536 0.930 . S
H595 C537 0.930 . S
H596 C539 0.930 . S
H597 C541 0.929 . S
H598 C542 0.930 . S
H599 C543 0.930 . S
H600 C546 0.930 . S
H601 C549 0.929 . S
H602 C554 0.929 . S
H603 C555 0.930 . S
H604 C562 0.929 . S
H605 C563 0.930 . S
H606 C564 0.930 . S
H607 C565 0.930 . S
H608 C567 0.929 . S
H609 C568 0.930 . S
H610 C569 0.930 . S
H611 C570 0.930 . S
H612 C574 0.929 . S
H613 C576 0.930 . S
H614 C582 0.929 . S
H615 C583 0.930 . S
Li616 N633 1.990 . S
Li616 O676 1.956 . S
Li616 O677 1.970 . S
Li616 O678 1.961 . S
Li617 N641 1.990 . S
Li617 O676 1.970 . S
Li617 O677 1.956 . S
Li617 O679 1.961 . S
Li618 N663 1.990 . S
Li618 O676 1.961 . S
Li618 O678 1.956 . S
Li618 O679 1.970 . S
Li619 N669 1.990 . S
Li619 O677 1.961 . S
Li619 O678 1.970 . S
Li619 O679 1.956 . S
C620 C622 1.348 . S
C620 C623 1.356 . S
C620 O676 1.325 . S
N621 C624 1.314 . S
N621 C625 1.279 . S
C622 C620 1.348 . S
C622 C624 1.353 . S
C622 H680 0.929 . S
C623 C620 1.356 . S
C623 C625 1.358 . S
C623 H681 0.930 . S
C624 N621 1.314 . S
C624 C622 1.353 . S
C624 H682 0.930 . S
C625 N621 1.279 . S
C625 C623 1.358 . S
C625 H683 0.930 . S
C626 C629 1.348 . S
C626 C630 1.356 . S
C626 O677 1.325 . S
C627 N628 1.279 . S
C627 C630 1.358 1_655 S
C627 H684 0.930 . S
N628 C627 1.279 . S
N628 C631 1.314 1_655 S
C629 C626 1.348 . S
C629 C631 1.353 . S
C629 H685 0.929 . S
C630 C626 1.356 . S
C630 C627 1.358 1_455 S
C630 H686 0.930 . S
C631 N628 1.314 1_455 S
C631 C629 1.353 . S
C631 H687 0.932 . S
C632 N633 1.314 . S
C632 C637 1.353 . S
C632 H638 0.930 . S
N633 Li616 1.990 . S
N633 C632 1.314 . S
N633 C635 1.279 . S
C634 C635 1.358 . S
C634 C636 1.356 . S
C634 H688 0.930 . S
C635 N633 1.279 . S
C635 C634 1.358 . S
C635 H639 0.930 . S
C636 C634 1.356 . S
C636 C637 1.348 . S
C637 C632 1.353 . S
C637 C636 1.348 . S
C637 H689 0.929 . S
H638 C632 0.930 . S
H639 C635 0.930 . S
C640 N641 1.314 . S
C640 C642 1.353 . S
C640 H646 0.930 . S
N641 Li617 1.990 . S
N641 C640 1.314 . S
N641 C644 1.279 . S
C642 C640 1.353 . S
C642 C645 1.348 . S
C642 H690 0.929 . S
C643 C644 1.358 . S
C643 C645 1.356 . S
C643 H691 0.930 . S
C644 N641 1.279 . S
C644 C643 1.358 . S
C644 H647 0.930 . S
C645 C642 1.348 . S
C645 C643 1.356 . S
H646 C640 0.930 . S
H647 C644 0.930 . S
C648 C650 1.348 . S
C648 C651 1.356 1_565 S
C648 O678 1.325 . S
N649 C652 1.314 . S
N649 C653 1.279 . S
C650 C648 1.348 . S
C650 C652 1.353 1_565 S
C650 H692 0.929 . S
C651 C648 1.356 1_545 S
C651 C653 1.358 . S
C651 H693 0.930 1_545 S
C652 N649 1.314 . S
C652 C650 1.353 1_545 S
C652 H694 0.930 . S
C653 N649 1.279 . S
C653 C651 1.358 . S
C653 H695 0.930 . S
C654 C655 1.348 . S
C654 C656 1.356 . S
C654 O679 1.325 . S
C655 C654 1.348 . S
C655 C657 1.353 . S
C655 H696 0.929 . S
C656 C654 1.356 . S
C656 C658 1.358 . S
C656 H697 0.930 . S
C657 C655 1.353 . S
C657 N659 1.314 . S
C657 H698 0.930 . S
C658 C656 1.358 . S
C658 N659 1.279 . S
C658 H699 0.930 . S
N659 C657 1.314 . S
N659 C658 1.279 . S
C660 C662 1.353 . S
C660 N663 1.314 . S
C660 H666 0.930 . S
C661 N663 1.279 . S
C661 C664 1.358 . S
C661 H667 0.930 . S
C662 C660 1.353 . S
C662 C665 1.348 . S
C662 H700 0.929 . S
N663 Li618 1.990 . S
N663 C660 1.314 . S
N663 C661 1.279 . S
C664 C661 1.358 . S
C664 C665 1.356 . S
C664 H701 0.930 1_565 S
C665 C662 1.348 . S
C665 C664 1.356 . S
H666 C660 0.930 . S
H667 C661 0.930 . S
C668 N669 1.314 1_655 S
C668 C670 1.353 . S
C668 H674 0.930 . S
N669 Li619 1.990 . S
N669 C668 1.314 1_455 S
N669 C672 1.279 . S
C670 C668 1.353 . S
C670 C673 1.348 . S
C670 H702 0.929 . S
C671 C672 1.358 . S
C671 C673 1.356 1_455 S
C671 H703 0.930 . S
C672 N669 1.279 . S
C672 C671 1.358 . S
C672 H675 0.930 . S
C673 C670 1.348 . S
C673 C671 1.356 1_655 S
H674 C668 0.930 . S
H675 C672 0.930 . S
O676 Li616 1.956 . S
O676 Li617 1.970 . S
O676 Li618 1.961 . S
O676 C620 1.325 . S
O677 Li616 1.970 . S
O677 Li617 1.956 . S
O677 Li619 1.961 . S
O677 C626 1.325 . S
O678 Li616 1.961 . S
O678 Li618 1.956 . S
O678 Li619 1.970 . S
O678 C648 1.325 . S
O679 Li617 1.961 . S
O679 Li618 1.970 . S
O679 Li619 1.956 . S
O679 C654 1.325 . S
H680 C622 0.929 . S
H681 C623 0.930 . S
H682 C624 0.930 . S
H683 C625 0.930 . S
H684 C627 0.930 . S
H685 C629 0.929 . S
H686 C630 0.930 . S
H687 C631 0.932 . S
H688 C634 0.930 . S
H689 C637 0.929 . S
H690 C642 0.929 . S
H691 C643 0.930 . S
H692 C650 0.929 . S
H693 C651 0.930 1_565 S
H694 C652 0.930 . S
H695 C653 0.930 . S
H696 C655 0.929 . S
H697 C656 0.930 . S
H698 C657 0.930 . S
H699 C658 0.930 . S
H700 C662 0.929 . S
H701 C664 0.930 1_545 S
H702 C670 0.929 . S
H703 C671 0.930 . S
H704 C712 0.950 . S
H705 C717 0.950 . S
H706 C714 0.950 . S
H707 C716 0.950 . S
H708 C718 0.950 . S
H709 C720 0.950 . S
H710 C722 0.950 . S
H711 C723 0.950 . S
C712 H704 0.950 . S
C712 C713 1.386 . S
C712 C714 1.391 . S
C713 C712 1.386 . S
C713 C717 1.393 . S
C714 H706 0.950 . S
C714 C712 1.391 . S
C714 C715 1.400 . S
C715 C714 1.400 . S
C715 C716 1.398 . S
C715 C721 1.491 . S
C716 H707 0.950 . S
C716 C715 1.398 . S
C716 C717 1.391 . S
C717 H705 0.950 . S
C717 C713 1.393 . S
C717 C716 1.391 . S
C718 H708 0.950 . S
C718 C719 1.386 . S
C718 C720 1.391 . S
C719 C718 1.386 . S
C719 C723 1.393 . S
C720 H709 0.950 . S
C720 C718 1.391 . S
C720 C721 1.400 . S
C721 C715 1.491 . S
C721 C720 1.400 . S
C721 C722 1.398 . S
C722 H710 0.950 . S
C722 C721 1.398 . S
C722 C723 1.391 . S
C723 H711 0.950 . S
C723 C719 1.393 . S
C723 C722 1.391 . S
H724 C732 0.950 . S
H725 C737 0.950 . S
H726 C734 0.950 . S
H727 C736 0.950 1_565 S
H728 C738 0.950 . S
H729 C740 0.950 . S
H730 C742 0.950 . S
H731 C743 0.950 . S
C732 H724 0.950 . S
C732 C733 1.386 . S
C732 C734 1.391 . S
C733 C732 1.386 . S
C733 C737 1.393 . S
C734 H726 0.950 . S
C734 C732 1.391 . S
C734 C735 1.400 . S
C735 C734 1.400 . S
C735 C736 1.398 . S
C735 C741 1.491 . S
C736 H727 0.950 1_545 S
C736 C735 1.398 . S
C736 C737 1.391 . S
C737 H725 0.950 . S
C737 C733 1.393 . S
C737 C736 1.391 . S
C738 H728 0.950 . S
C738 C739 1.386 . S
C738 C740 1.391 . S
C739 C738 1.386 . S
C739 C743 1.393 1_565 S
C740 H729 0.950 . S
C740 C738 1.391 . S
C740 C741 1.400 1_565 S
C741 C735 1.491 . S
C741 C740 1.400 1_545 S
C741 C742 1.398 . S
C742 H730 0.950 . S
C742 C741 1.398 . S
C742 C743 1.391 . S
C743 H731 0.950 . S
C743 C739 1.393 1_545 S
C743 C742 1.391 . S
H744 C752 0.950 . S
H745 C757 0.950 . S
H746 C754 0.950 . S
H747 C756 0.950 . S
H748 C758 0.950 . S
H749 C760 0.950 . S
H750 C762 0.950 . S
H751 C763 0.950 . S
C752 H744 0.950 . S
C752 C753 1.386 . S
C752 C754 1.391 . S
C753 C752 1.386 . S
C753 C757 1.393 . S
C754 H746 0.950 . S
C754 C752 1.391 . S
C754 C755 1.400 . S
C755 C754 1.400 . S
C755 C756 1.398 . S
C755 C761 1.491 . S
C756 H747 0.950 . S
C756 C755 1.398 . S
C756 C757 1.391 . S
C757 H745 0.950 . S
C757 C753 1.393 . S
C757 C756 1.391 . S
C758 H748 0.950 . S
C758 C759 1.386 . S
C758 C760 1.391 . S
C759 C758 1.386 . S
C759 C763 1.393 . S
C760 H749 0.950 . S
C760 C758 1.391 . S
C760 C761 1.400 . S
C761 C755 1.491 . S
C761 C760 1.400 . S
C761 C762 1.398 . S
C762 H750 0.950 . S
C762 C761 1.398 . S
C762 C763 1.391 . S
C763 H751 0.950 . S
C763 C759 1.393 . S
C763 C762 1.391 . S
H764 C772 0.950 . S
H765 C777 0.950 . S
H766 C774 0.950 . S
H767 C776 0.950 . S
H768 C778 0.950 . S
H769 C780 0.950 . S
H770 C782 0.950 1_545 S
H771 C783 0.950 . S
C772 H764 0.950 . S
C772 C773 1.386 . S
C772 C774 1.391 . S
C773 C772 1.386 . S
C773 C777 1.393 1_545 S
C774 H766 0.950 . S
C774 C772 1.391 . S
C774 C775 1.400 1_545 S
C775 C774 1.400 1_565 S
C775 C776 1.398 . S
C775 C781 1.491 . S
C776 H767 0.950 . S
C776 C775 1.398 . S
C776 C777 1.391 . S
C777 H765 0.950 . S
C777 C773 1.393 1_565 S
C777 C776 1.391 . S
C778 H768 0.950 . S
C778 C779 1.386 . S
C778 C780 1.391 . S
C779 C778 1.386 . S
C779 C783 1.393 . S
C780 H769 0.950 . S
C780 C778 1.391 . S
C780 C781 1.400 . S
C781 C775 1.491 . S
C781 C780 1.400 . S
C781 C782 1.398 . S
C782 H770 0.950 1_565 S
C782 C781 1.398 . S
C782 C783 1.391 . S
C783 H771 0.950 . S
C783 C779 1.393 . S
C783 C782 1.391 . S
H784 C792 0.950 . S
H785 C797 0.950 . S
H786 C794 0.950 . S
H787 C796 0.950 . S
H788 C798 0.950 . S
H789 C800 0.950 . S
H790 C802 0.950 . S
H791 C803 0.950 . S
C792 H784 0.950 . S
C792 C793 1.386 . S
C792 C794 1.391 . S
C793 C792 1.386 . S
C793 C797 1.393 . S
C794 H786 0.950 . S
C794 C792 1.391 . S
C794 C795 1.400 . S
C795 C794 1.400 . S
C795 C796 1.398 . S
C795 C801 1.491 . S
C796 H787 0.950 . S
C796 C795 1.398 . S
C796 C797 1.391 . S
C797 H785 0.950 . S
C797 C793 1.393 . S
C797 C796 1.391 . S
C798 H788 0.950 . S
C798 C799 1.386 . S
C798 C800 1.391 . S
C799 C798 1.386 . S
C799 C803 1.393 . S
C800 H789 0.950 . S
C800 C798 1.391 . S
C800 C801 1.400 . S
C801 C795 1.491 . S
C801 C800 1.400 . S
C801 C802 1.398 . S
C802 H790 0.950 . S
C802 C801 1.398 . S
C802 C803 1.391 . S
C803 H791 0.950 . S
C803 C799 1.393 . S
C803 C802 1.391 . S
H804 C812 0.950 . S
H805 C817 0.950 . S
H806 C814 0.951 . S
H807 C816 0.950 . S
H808 C818 0.950 . S
H809 C820 0.950 . S
H810 C822 0.950 . S
H811 C823 0.950 . S
C812 H804 0.950 . S
C812 C813 1.386 . S
C812 C814 1.391 1_545 S
C813 C812 1.386 . S
C813 C817 1.393 1_545 S
C814 H806 0.951 . S
C814 C812 1.391 1_565 S
C814 C815 1.400 . S
C815 C814 1.400 . S
C815 C816 1.398 . S
C815 C821 1.491 . S
C816 H807 0.950 . S
C816 C815 1.398 . S
C816 C817 1.391 . S
C817 H805 0.950 . S
C817 C813 1.393 1_565 S
C817 C816 1.391 . S
C818 H808 0.950 . S
C818 C819 1.386 . S
C818 C820 1.391 . S
C819 C818 1.386 . S
C819 C823 1.393 . S
C820 H809 0.950 . S
C820 C818 1.391 . S
C820 C821 1.400 . S
C821 C815 1.491 . S
C821 C820 1.400 . S
C821 C822 1.398 . S
C822 H810 0.950 . S
C822 C821 1.398 . S
C822 C823 1.391 . S
C823 H811 0.950 . S
C823 C819 1.393 . S
C823 C822 1.391 . S
H824 C832 0.950 . S
H825 C837 0.950 . S
H826 C834 0.950 . S
H827 C836 0.950 . S
H828 C838 0.950 . S
H829 C840 0.950 . S
H830 C842 0.950 . S
H831 C843 0.950 . S
C832 H824 0.950 . S
C832 C833 1.386 . S
C832 C834 1.391 . S
C833 C832 1.386 . S
C833 C837 1.393 . S
C834 H826 0.950 . S
C834 C832 1.391 . S
C834 C835 1.400 . S
C835 C834 1.400 . S
C835 C836 1.398 . S
C835 C841 1.491 . S
C836 H827 0.950 . S
C836 C835 1.398 . S
C836 C837 1.391 . S
C837 H825 0.950 . S
C837 C833 1.393 . S
C837 C836 1.391 . S
C838 H828 0.950 . S
C838 C839 1.386 . S
C838 C840 1.391 . S
C839 C838 1.386 . S
C839 C843 1.393 . S
C840 H829 0.950 . S
C840 C838 1.391 . S
C840 C841 1.400 . S
C841 C835 1.491 . S
C841 C840 1.400 . S
C841 C842 1.398 . S
C842 H830 0.950 . S
C842 C841 1.398 . S
C842 C843 1.391 . S
C843 H831 0.950 . S
C843 C839 1.393 . S
C843 C842 1.391 . S
H844 C852 0.950 . S
H845 C857 0.950 . S
H846 C854 0.950 . S
H847 C856 0.950 . S
H848 C858 0.950 . S
H849 C860 0.950 . S
H850 C862 0.973 . S
H851 C863 0.950 . S
C852 H844 0.950 . S
C852 C853 1.386 . S
C852 C854 1.391 . S
C853 C852 1.386 . S
C853 C857 1.393 1_565 S
C854 H846 0.950 . S
C854 C852 1.391 . S
C854 C855 1.400 1_565 S
C855 C854 1.400 1_545 S
C855 C856 1.398 . S
C855 C861 1.491 . S
C856 H847 0.950 . S
C856 C855 1.398 . S
C856 C857 1.391 . S
C857 H845 0.950 . S
C857 C853 1.393 1_545 S
C857 C856 1.391 . S
C858 H848 0.950 . S
C858 C859 1.386 . S
C858 C860 1.391 . S
C859 C858 1.386 . S
C859 C863 1.393 . S
C860 H849 0.950 . S
C860 C858 1.391 . S
C860 C861 1.400 . S
C861 C855 1.491 . S
C861 C860 1.400 . S
C861 C862 1.398 . S
C862 H850 0.973 . S
C862 C861 1.398 . S
C862 C863 1.391 . S
C863 H851 0.950 . S
C863 C859 1.393 . S
C863 C862 1.391 . S
H864 C872 0.950 . S
H865 C877 0.950 . S
H866 C874 0.950 1_655 S
H867 C876 0.950 . S
H868 C878 0.950 . S
H869 C880 0.950 1_455 S
H870 C882 0.950 . S
H871 C883 0.950 . S
C872 H864 0.950 . S
C872 C873 1.386 . S
C872 C874 1.391 . S
C873 C872 1.386 . S
C873 C877 1.393 . S
C874 H866 0.950 1_455 S
C874 C872 1.391 . S
C874 C875 1.400 . S
C875 C874 1.400 . S
C875 C876 1.398 . S
C875 C881 1.491 1_455 S
C876 H867 0.950 . S
C876 C875 1.398 . S
C876 C877 1.391 . S
C877 H865 0.950 . S
C877 C873 1.393 . S
C877 C876 1.391 . S
C878 H868 0.950 . S
C878 C879 1.386 . S
C878 C880 1.391 . S
C879 C878 1.386 . S
C879 C883 1.393 . S
C880 H869 0.950 1_655 S
C880 C878 1.391 . S
C880 C881 1.400 . S
C881 C875 1.491 1_655 S
C881 C880 1.400 . S
C881 C882 1.398 . S
C882 H870 0.950 . S
C882 C881 1.398 . S
C882 C883 1.391 . S
C883 H871 0.950 . S
C883 C879 1.393 . S
C883 C882 1.391 . S
H884 C892 0.950 . S
H885 C897 0.950 . S
H886 C894 0.950 1_545 S
H887 C896 0.950 . S
H888 C898 0.950 . S
H889 C900 0.950 1_565 S
H890 C902 0.950 . S
H891 C903 0.950 . S
C892 H884 0.950 . S
C892 C893 1.386 . S
C892 C894 1.391 . S
C893 C892 1.386 . S
C893 C897 1.393 . S
C894 H886 0.950 1_565 S
C894 C892 1.391 . S
C894 C895 1.400 . S
C895 C894 1.400 . S
C895 C896 1.398 . S
C895 C901 1.491 1_565 S
C896 H887 0.950 . S
C896 C895 1.398 . S
C896 C897 1.391 . S
C897 H885 0.950 . S
C897 C893 1.393 . S
C897 C896 1.391 . S
C898 H888 0.950 . S
C898 C899 1.386 . S
C898 C900 1.391 . S
C899 C898 1.386 . S
C899 C903 1.393 . S
C900 H889 0.950 1_545 S
C900 C898 1.391 . S
C900 C901 1.400 . S
C901 C895 1.491 1_545 S
C901 C900 1.400 . S
C901 C902 1.398 . S
C902 H890 0.950 . S
C902 C901 1.398 . S
C902 C903 1.391 . S
C903 H891 0.950 . S
C903 C899 1.393 . S
C903 C902 1.391 . S
H904 C912 0.950 . S
H905 C917 0.950 . S
H906 C914 0.950 . S
H907 C916 0.950 . S
H908 C918 0.950 . S
H909 C920 0.950 . S
H910 C922 0.950 . S
H911 C923 0.950 . S
C912 H904 0.950 . S
C912 C913 1.386 . S
C912 C914 1.391 . S
C913 C912 1.386 . S
C913 C917 1.393 . S
C914 H906 0.950 . S
C914 C912 1.391 . S
C914 C915 1.400 . S
C915 C914 1.400 . S
C915 C916 1.398 . S
C915 C921 1.491 1_554 S
C916 H907 0.950 . S
C916 C915 1.398 . S
C916 C917 1.391 . S
C917 H905 0.950 . S
C917 C913 1.393 . S
C917 C916 1.391 . S
C918 H908 0.950 . S
C918 C919 1.386 . S
C918 C920 1.391 . S
C919 C918 1.386 . S
C919 C923 1.393 . S
C920 H909 0.950 . S
C920 C918 1.391 . S
C920 C921 1.400 . S
C921 C915 1.491 1_556 S
C921 C920 1.400 . S
C921 C922 1.398 . S
C922 H910 0.950 . S
C922 C921 1.398 . S
C922 C923 1.391 . S
C923 H911 0.950 . S
C923 C919 1.393 . S
C923 C922 1.391 . S
H924 C932 0.950 . S
H925 C937 0.950 . S
H926 C934 0.950 . S
H927 C936 0.950 1_655 S
H928 C938 0.950 . S
H929 C940 0.950 . S
H930 C942 0.950 1_455 S
H931 C943 0.950 . S
C932 H924 0.950 . S
C932 C933 1.386 1_545 S
C932 C934 1.391 . S
C933 C932 1.386 1_565 S
C933 C937 1.393 . S
C934 H926 0.950 . S
C934 C932 1.391 . S
C934 C935 1.400 1_545 S
C935 C934 1.400 1_565 S
C935 C936 1.398 . S
C935 C941 1.491 1_466 S
C936 H927 0.950 1_455 S
C936 C935 1.398 . S
C936 C937 1.391 . S
C937 H925 0.950 . S
C937 C933 1.393 . S
C937 C936 1.391 . S
C938 H928 0.950 . S
C938 C939 1.386 1_565 S
C938 C940 1.391 . S
C939 C938 1.386 1_545 S
C939 C943 1.393 . S
C940 H929 0.950 . S
C940 C938 1.391 . S
C940 C941 1.400 1_565 S
C941 C935 1.491 1_644 S
C941 C940 1.400 1_545 S
C941 C942 1.398 . S
C942 H930 0.950 1_655 S
C942 C941 1.398 . S
C942 C943 1.391 . S
C943 H931 0.950 . S
C943 C939 1.393 . S
C943 C942 1.391 . S
H944 C952 0.950 . S
H945 C957 0.950 . S
H946 C954 0.950 . S
H947 C956 0.950 . S
H948 C958 0.950 . S
H949 C960 0.950 . S
H950 C962 0.950 . S
H951 C963 0.950 . S
C952 H944 0.950 . S
C952 C953 1.386 . S
C952 C954 1.391 . S
C953 C952 1.386 . S
C953 C957 1.393 . S
C954 H946 0.950 . S
C954 C952 1.391 . S
C954 C955 1.400 . S
C955 C954 1.400 . S
C955 C956 1.398 . S
C955 C961 1.491 . S
C956 H947 0.950 . S
C956 C955 1.398 . S
C956 C957 1.391 . S
C957 H945 0.950 . S
C957 C953 1.393 . S
C957 C956 1.391 . S
C958 H948 0.950 . S
C958 C959 1.386 . S
C958 C960 1.391 . S
C959 C958 1.386 . S
C959 C963 1.393 . S
C960 H949 0.950 . S
C960 C958 1.391 . S
C960 C961 1.400 . S
C961 C955 1.491 . S
C961 C960 1.400 . S
C961 C962 1.398 . S
C962 H950 0.950 . S
C962 C961 1.398 . S
C962 C963 1.391 . S
C963 H951 0.950 . S
C963 C959 1.393 . S
C963 C962 1.391 . S
H964 C972 0.950 . S
H965 C977 0.950 . S
H966 C974 0.950 . S
H967 C976 0.950 . S
H968 C978 0.950 . S
H969 C980 0.950 . S
H970 C982 0.950 . S
H971 C983 0.950 . S
C972 H964 0.950 . S
C972 C973 1.386 . S
C972 C974 1.391 . S
C973 C972 1.386 . S
C973 C977 1.393 . S
C974 H966 0.950 . S
C974 C972 1.391 . S
C974 C975 1.400 . S
C975 C974 1.400 . S
C975 C976 1.398 . S
C975 C981 1.491 . S
C976 H967 0.950 . S
C976 C975 1.398 . S
C976 C977 1.391 . S
C977 H965 0.950 . S
C977 C973 1.393 . S
C977 C976 1.391 . S
C978 H968 0.950 . S
C978 C979 1.386 . S
C978 C980 1.391 . S
C979 C978 1.386 . S
C979 C983 1.393 . S
C980 H969 0.950 . S
C980 C978 1.391 . S
C980 C981 1.400 . S
C981 C975 1.491 . S
C981 C980 1.400 . S
C981 C982 1.398 . S
C982 H970 0.950 . S
C982 C981 1.398 . S
C982 C983 1.391 . S
C983 H971 0.950 . S
C983 C979 1.393 . S
C983 C982 1.391 . S
H984 C992 0.950 . S
H985 C997 0.950 . S
H986 C994 0.950 . S
H987 C996 0.950 . S
H988 C998 0.950 . S
H989 C1000 0.950 . S
H990 C1002 0.950 . S
H991 C1003 0.950 . S
C992 H984 0.950 . S
C992 C993 1.386 . S
C992 C994 1.391 . S
C993 C992 1.386 . S
C993 C997 1.393 . S
C994 H986 0.950 . S
C994 C992 1.391 . S
C994 C995 1.400 . S
C995 C994 1.400 . S
C995 C996 1.398 . S
C995 C1001 1.491 . S
C996 H987 0.950 . S
C996 C995 1.398 . S
C996 C997 1.391 . S
C997 H985 0.950 . S
C997 C993 1.393 . S
C997 C996 1.391 . S
C998 H988 0.950 . S
C998 C999 1.386 . S
C998 C1000 1.391 . S
C999 C998 1.386 . S
C999 C1003 1.393 . S
C1000 H989 0.950 . S
C1000 C998 1.391 . S
C1000 C1001 1.400 . S
C1001 C995 1.491 . S
C1001 C1000 1.400 . S
C1001 C1002 1.398 . S
C1002 H990 0.950 . S
C1002 C1001 1.398 . S
C1002 C1003 1.391 . S
C1003 H991 0.950 . S
C1003 C999 1.393 . S
C1003 C1002 1.391 . S
H1004 C1012 0.950 . S
H1005 C1017 0.950 . S
H1006 C1014 0.950 . S
H1007 C1016 0.950 . S
H1008 C1018 0.950 . S
H1009 C1020 0.950 . S
H1010 C1022 0.950 . S
H1011 C1023 0.950 . S
C1012 H1004 0.950 . S
C1012 C1013 1.386 . S
C1012 C1014 1.391 . S
C1013 C1012 1.386 . S
C1013 C1017 1.393 . S
C1014 H1006 0.950 . S
C1014 C1012 1.391 . S
C1014 C1015 1.400 . S
C1015 C1014 1.400 . S
C1015 C1016 1.398 . S
C1015 C1021 1.491 . S
C1016 H1007 0.950 . S
C1016 C1015 1.398 . S
C1016 C1017 1.391 . S
C1017 H1005 0.950 . S
C1017 C1013 1.393 . S
C1017 C1016 1.391 . S
C1018 H1008 0.950 . S
C1018 C1019 1.386 . S
C1018 C1020 1.391 . S
C1019 C1018 1.386 . S
C1019 C1023 1.393 . S
C1020 H1009 0.950 . S
C1020 C1018 1.391 . S
C1020 C1021 1.400 . S
C1021 C1015 1.491 . S
C1021 C1020 1.400 . S
C1021 C1022 1.398 . S
C1022 H1010 0.950 . S
C1022 C1021 1.398 . S
C1022 C1023 1.391 . S
C1023 H1011 0.950 . S
C1023 C1019 1.393 . S
C1023 C1022 1.391 . S
C713 C57 0.957 . S
C719 C233 0.955 . S
C733 C321 0.936 . S
C739 C108 0.938 . S
C753 C196 0.942 . S
C759 C20 0.937 . S
C773 C284 0.954 . S
C779 C145 0.957 . S
C793 C585 0.928 . S
C799 C372 0.933 . S
C813 C469 0.937 . S
C819 C673 0.930 . S
C833 C577 0.924 . S
C839 C381 0.934 . S
C853 C665 0.931 . S
C859 C460 0.928 . S
C873 C29 1.687 . S
C879 C401 1.691 . S
C893 C137 1.694 . S
C899 C497 1.697 . S
C913 C225 1.689 . S
C919 C548 1.693 . S
C933 C636 1.690 . S
C939 C313 1.686 . S
C953 C49 1.689 . S
C959 C117 1.686 . S
C973 C293 1.699 . S
C979 C205 1.699 . S
C993 C489 1.708 . S
C999 C409 1.707 . S
C1013 C557 1.696 . S
C1019 C645 1.697 . S
