# Generated by pormake.
# Topology vmp, (7)-cn, num edge types: 1
# Building blocks:
#     Node 0, Type 0, BuildingBlock: HICVOG_clean_sbu_0, # of connection points: 7
#     Node 1, Type 0, BuildingBlock: HICVOG_clean_sbu_0, # of connection points: 7
#     Node 2, Type 0, BuildingBlock: HICVOG_clean_sbu_0, # of connection points: 7
#     Node 3, Type 0, BuildingBlock: HICVOG_clean_sbu_0, # of connection points: 7
#     Node 4, Type 0, BuildingBlock: HICVOG_clean_sbu_0, # of connection points: 7
#     Node 5, Type 0, BuildingBlock: HICVOG_clean_sbu_0, # of connection points: 7
#     Node 6, Type 0, BuildingBlock: HICVOG_clean_sbu_0, # of connection points: 7
#     Node 7, Type 0, BuildingBlock: HICVOG_clean_sbu_0, # of connection points: 7
#     Edge 8, Type (0, 0), BuildingBlock: XUDNAN_clean_linker_2, # of connection points: 2
#     Edge 9, Type (0, 0), BuildingBlock: XUDNAN_clean_linker_2, # of connection points: 2
#     Edge 10, Type (0, 0), BuildingBlock: XUDNAN_clean_linker_2, # of connection points: 2
#     Edge 11, Type (0, 0), BuildingBlock: XUDNAN_clean_linker_2, # of connection points: 2
#     Edge 12, Type (0, 0), BuildingBlock: XUDNAN_clean_linker_2, # of connection points: 2
#     Edge 13, Type (0, 0), BuildingBlock: XUDNAN_clean_linker_2, # of connection points: 2
#     Edge 14, Type (0, 0), BuildingBlock: XUDNAN_clean_linker_2, # of connection points: 2
#     Edge 15, Type (0, 0), BuildingBlock: XUDNAN_clean_linker_2, # of connection points: 2
#     Edge 16, Type (0, 0), BuildingBlock: XUDNAN_clean_linker_2, # of connection points: 2
#     Edge 17, Type (0, 0), BuildingBlock: XUDNAN_clean_linker_2, # of connection points: 2
#     Edge 18, Type (0, 0), BuildingBlock: XUDNAN_clean_linker_2, # of connection points: 2
#     Edge 19, Type (0, 0), BuildingBlock: XUDNAN_clean_linker_2, # of connection points: 2
#     Edge 20, Type (0, 0), BuildingBlock: XUDNAN_clean_linker_2, # of connection points: 2
#     Edge 21, Type (0, 0), BuildingBlock: XUDNAN_clean_linker_2, # of connection points: 2
#     Edge 22, Type (0, 0), BuildingBlock: XUDNAN_clean_linker_2, # of connection points: 2
#     Edge 23, Type (0, 0), BuildingBlock: XUDNAN_clean_linker_2, # of connection points: 2
#     Edge 24, Type (0, 0), BuildingBlock: XUDNAN_clean_linker_2, # of connection points: 2
#     Edge 25, Type (0, 0), BuildingBlock: XUDNAN_clean_linker_2, # of connection points: 2
#     Edge 26, Type (0, 0), BuildingBlock: XUDNAN_clean_linker_2, # of connection points: 2
#     Edge 27, Type (0, 0), BuildingBlock: XUDNAN_clean_linker_2, # of connection points: 2
#     Edge 28, Type (0, 0), BuildingBlock: XUDNAN_clean_linker_2, # of connection points: 2
#     Edge 29, Type (0, 0), BuildingBlock: XUDNAN_clean_linker_2, # of connection points: 2
#     Edge 30, Type (0, 0), BuildingBlock: XUDNAN_clean_linker_2, # of connection points: 2
#     Edge 31, Type (0, 0), BuildingBlock: XUDNAN_clean_linker_2, # of connection points: 2
#     Edge 32, Type (0, 0), BuildingBlock: XUDNAN_clean_linker_2, # of connection points: 2
#     Edge 33, Type (0, 0), BuildingBlock: XUDNAN_clean_linker_2, # of connection points: 2
#     Edge 34, Type (0, 0), BuildingBlock: XUDNAN_clean_linker_2, # of connection points: 2
#     Edge 35, Type (0, 0), BuildingBlock: XUDNAN_clean_linker_2, # of connection points: 2
# Relax obj value: 0.158
# Max RMSD: 0.204
# Mean RMSD: 0.204
data_MOF--net-vmp--node1-HICVOG_clean_sbu_0--edge1-XUDNAN_clean_linker_2
_symmetry_space_group_name_H-M    P1
_symmetry_Int_Tables_number       1
_symmetry_cell_setting            triclinic
loop_
_symmetry_equiv_pos_as_xyz
'x, y, z'
_cell_length_a     18.034078
_cell_length_b     79.68302
_cell_length_c     27.986413
_cell_angle_alpha  89.924197
_cell_angle_beta   111.01906
_cell_angle_gamma 89.914154
loop_
_atom_site_label
_atom_site_type_symbol
_atom_site_fract_x
_atom_site_fract_y
_atom_site_fract_z
_atom_type_partial_charge
Zn0 Zn 0.2775 0.14742 0.24017 0.0
C1 C 0.39997 0.12126 0.17099 0.0
N2 N 0.32924 0.11745 0.13588 0.0
C3 C 0.27702 0.12379 0.1552 0.0
N4 N 0.31425 0.13125 0.20101 0.0
N5 N 0.3912 0.12895 0.21154 0.0
C6 C 0.61387 0.12896 0.26969 0.0
O7 O 0.58999 0.14452 0.27026 0.0
O8 O 0.16321 0.14282 0.23444 0.0
Zn9 Zn 0.46024 0.12092 0.27733 0.0
N10 N 0.28597 0.17009 0.21484 0.0
C11 C 0.30758 0.18717 0.15124 0.0
C12 C 0.29945 0.17141 0.1702 0.0
C13 C 0.28157 0.1841 0.24185 0.0
N14 N 0.30343 0.20108 0.17807 0.0
C15 C 0.29118 0.20019 0.22329 0.0
O16 O 0.46501 0.13543 0.33814 0.0
C17 C 0.41288 0.1436 0.34973 0.0
O18 O 0.34511 0.14724 0.31627 0.0
H19 H 0.30384 0.1603 0.14931 0.0
H20 H 0.27039 0.18257 0.27704 0.0
C21 C 0.43815 0.08407 0.27727 0.0
C22 C 0.39822 0.06968 0.28521 0.0
C23 C 0.31789 0.08714 0.31574 0.0
C24 C 0.35672 0.10125 0.30739 0.0
N25 N 0.41596 0.09956 0.28846 0.0
N26 N 0.3392 0.07181 0.30431 0.0
H27 H 0.48435 0.08307 0.26123 0.0
C28 C 0.13801 0.12792 0.23456 0.0
O29 O 0.18621 0.11532 0.23691 0.0
O30 O 0.56986 0.11703 0.27411 0.0
H31 H 0.33879 0.11353 0.31528 0.0
H32 H 0.31776 0.18836 0.11557 0.0
H33 H 0.27045 0.08837 0.33061 0.0
Zn34 Zn 0.71328 0.15566 0.81099 0.0
C35 C 0.64466 0.14719 0.92721 0.0
N36 N 0.71819 0.15258 0.95435 0.0
C37 C 0.75385 0.15258 0.91987 0.0
N38 N 0.70334 0.1478 0.87345 0.0
N39 N 0.63524 0.14378 0.87804 0.0
C40 C 0.4277 0.14322 0.84771 0.0
O41 O 0.46723 0.15707 0.84804 0.0
O42 O 0.82951 0.15672 0.82183 0.0
Zn43 Zn 0.55772 0.13046 0.82528 0.0
N44 N 0.67073 0.17834 0.80076 0.0
C45 C 0.56201 0.19613 0.79541 0.0
C46 C 0.59658 0.18026 0.80192 0.0
C47 C 0.71176 0.19171 0.79268 0.0
N48 N 0.60265 0.20948 0.78732 0.0
C49 C 0.67668 0.20783 0.78536 0.0
O50 O 0.53324 0.13959 0.7527 0.0
C51 C 0.57635 0.14164 0.72551 0.0
O52 O 0.65158 0.14314 0.7458 0.0
H53 H 0.56472 0.1695 0.80788 0.0
H54 H 0.77108 0.18975 0.79265 0.0
C55 C 0.5722 0.09302 0.83069 0.0
C56 C 0.61722 0.07823 0.83402 0.0
C57 C 0.72391 0.09462 0.82888 0.0
C58 C 0.67945 0.10912 0.82533 0.0
N59 N 0.60529 0.10821 0.82722 0.0
N60 N 0.69205 0.0796 0.83335 0.0
H61 H 0.51287 0.09248 0.83178 0.0
C62 C 0.86809 0.14524 0.80938 0.0
O63 O 0.83038 0.1319 0.78518 0.0
O64 O 0.45471 0.12934 0.8385 0.0
H65 H 0.7042 0.12109 0.82127 0.0
H66 H 0.50314 0.19784 0.79655 0.0
H67 H 0.78335 0.09528 0.82805 0.0
Zn68 Zn 0.72019 0.87361 0.79641 0.0
C69 C 0.61581 0.88202 0.89428 0.0
N70 N 0.67672 0.8728 0.9245 0.0
C71 C 0.72854 0.87298 0.90002 0.0
N72 N 0.69819 0.88153 0.85541 0.0
N73 N 0.62847 0.8877 0.85267 0.0
C74 C 0.41002 0.8946 0.80434 0.0
O75 O 0.42854 0.88046 0.78722 0.0
O76 O 0.83921 0.87529 0.80762 0.0
Zn77 Zn 0.56968 0.90599 0.8093 0.0
N78 N 0.68387 0.85036 0.78732 0.0
C79 C 0.57327 0.83282 0.7789 0.0
C80 C 0.60752 0.84865 0.7846 0.0
C81 C 0.72764 0.83671 0.78399 0.0
N82 N 0.61638 0.81924 0.77544 0.0
C83 C 0.69276 0.82055 0.77748 0.0
O84 O 0.56313 0.90383 0.73519 0.0
C85 C 0.59817 0.89595 0.70956 0.0
O86 O 0.65422 0.88547 0.73018 0.0
H87 H 0.57354 0.8596 0.78702 0.0
H88 H 0.78856 0.83849 0.78696 0.0
C89 C 0.58922 0.94247 0.83054 0.0
C90 C 0.63525 0.95679 0.85277 0.0
C91 C 0.7489 0.93917 0.88683 0.0
C92 C 0.70351 0.92525 0.86475 0.0
N93 N 0.62482 0.92702 0.83714 0.0
N94 N 0.71396 0.95446 0.88028 0.0
H95 H 0.52628 0.94344 0.8089 0.0
C96 C 0.87655 0.88867 0.82682 0.0
O97 O 0.83763 0.90077 0.8394 0.0
O98 O 0.45881 0.90682 0.81399 0.0
H99 H 0.73098 0.91308 0.8698 0.0
H100 H 0.51267 0.83131 0.77699 0.0
H101 H 0.8116 0.93785 0.90899 0.0
Zn102 Zn 0.43293 0.89807 0.227 0.0
C103 C 0.25658 0.8664 0.14962 0.0
N104 N 0.28904 0.86716 0.11364 0.0
C105 C 0.35591 0.87597 0.13596 0.0
N106 N 0.36445 0.88061 0.18433 0.0
N107 N 0.30272 0.8741 0.19287 0.0
C108 C 0.15487 0.87711 0.2717 0.0
O109 O 0.20234 0.88876 0.2995 0.0
O110 O 0.54178 0.89494 0.22175 0.0
Zn111 Zn 0.29908 0.86598 0.25683 0.0
N112 N 0.38383 0.91985 0.19979 0.0
C113 C 0.27005 0.93343 0.14055 0.0
C114 C 0.31178 0.9189 0.16118 0.0
C115 C 0.41559 0.93507 0.21903 0.0
N116 N 0.30091 0.94848 0.15996 0.0
C117 C 0.37243 0.94989 0.1988 0.0
O118 O 0.36605 0.87883 0.31932 0.0
C119 C 0.41936 0.8901 0.33394 0.0
O120 O 0.44616 0.89745 0.30295 0.0
H121 H 0.28601 0.90693 0.14641 0.0
H122 H 0.47195 0.93557 0.25059 0.0
C123 C 0.3081 0.82955 0.27631 0.0
C124 C 0.34532 0.8137 0.28022 0.0
C125 C 0.44938 0.82655 0.26013 0.0
C126 C 0.41293 0.84213 0.2569 0.0
N127 N 0.34295 0.84336 0.26466 0.0
N128 N 0.41491 0.81279 0.27162 0.0
H129 H 0.25192 0.83092 0.28166 0.0
C130 C 0.60793 0.90047 0.2522 0.0
O131 O 0.60939 0.90981 0.29118 0.0
O132 O 0.18347 0.86574 0.25138 0.0
H133 H 0.44002 0.85322 0.24801 0.0
H134 H 0.21288 0.93278 0.1098 0.0
H135 H 0.50484 0.8254 0.25368 0.0
Zn136 Zn 0.82007 0.65461 0.75092 0.0
C137 C 0.88362 0.6409 0.63247 0.0
N138 N 0.82017 0.65045 0.60756 0.0
C139 C 0.78902 0.65374 0.64324 0.0
N140 N 0.83144 0.64654 0.68845 0.0
N141 N 0.8912 0.63826 0.68198 0.0
C142 C 0.09928 0.63924 0.71876 0.0
O143 O 0.05169 0.65204 0.71535 0.0
O144 O 0.70218 0.65721 0.74066 0.0
Zn145 Zn 0.9652 0.62304 0.73197 0.0
N146 N 0.87478 0.67622 0.76328 0.0
C147 C 1.0047 0.68768 0.78652 0.0
C148 C 0.95457 0.67393 0.7783 0.0
C149 C 0.84252 0.692 0.75617 0.0
N150 N 0.97311 0.70331 0.77903 0.0
C151 C 0.89345 0.70606 0.76407 0.0
O152 O 0.97844 0.62765 0.80667 0.0
C153 C 0.94172 0.63321 0.83492 0.0
O154 O 0.87673 0.64138 0.81634 0.0
H155 H 0.97899 0.66139 0.78309 0.0
H156 H 0.77871 0.69354 0.74323 0.0
C157 C 0.95451 0.58556 0.71751 0.0
C158 C 0.90844 0.57073 0.70411 0.0
C159 C 0.79223 0.58683 0.69304 0.0
C160 C 0.83757 0.60132 0.7062 0.0
N161 N 0.91737 0.60057 0.71754 0.0
N162 N 0.82847 0.57201 0.69219 0.0
H163 H 0.01807 0.58526 0.72658 0.0
C164 C 0.66102 0.64499 0.74703 0.0
O165 O 0.69565 0.63036 0.76136 0.0
O166 O 0.0761 0.62465 0.72601 0.0
H167 H 0.80914 0.61319 0.7072 0.0
H168 H 0.06827 0.68596 0.79825 0.0
H169 H 0.72859 0.58734 0.68353 0.0
Zn170 Zn 0.23724 0.64795 0.31627 0.0
C171 C 0.15583 0.61884 0.40503 0.0
N172 N 0.22575 0.62231 0.44155 0.0
C173 C 0.26285 0.63155 0.41688 0.0
N174 N 0.21738 0.63373 0.36689 0.0
N175 N 0.1499 0.62566 0.35965 0.0
C176 C 0.91316 0.62937 0.29834 0.0
O177 O 0.93022 0.64384 0.28227 0.0
O178 O 0.35669 0.64842 0.32807 0.0
Zn179 Zn 0.06887 0.61851 0.29589 0.0
N180 N 0.18888 0.66962 0.31995 0.0
C181 C 0.06891 0.68125 0.32275 0.0
C182 C 0.11353 0.66748 0.31884 0.0
C183 C 0.22132 0.68529 0.3237 0.0
N184 N 0.10108 0.69677 0.32719 0.0
C185 C 0.17595 0.69937 0.32765 0.0
O186 O 0.05975 0.63098 0.2294 0.0
C187 C 0.11431 0.63541 0.21289 0.0
O188 O 0.18298 0.63988 0.2432 0.0
H189 H 0.08834 0.65505 0.31511 0.0
H190 H 0.28151 0.6867 0.32467 0.0
C191 C 0.065 0.58136 0.2844 0.0
C192 C 0.0978 0.56638 0.27353 0.0
C193 C 0.20547 0.58195 0.26615 0.0
C194 C 0.17296 0.59665 0.27668 0.0
N195 N 0.10324 0.59619 0.28496 0.0
N196 N 0.16713 0.56726 0.2646 0.0
H197 H 1.0096 0.58128 0.29122 0.0
C198 C 0.39055 0.63408 0.33608 0.0
O199 O 0.34809 0.62087 0.33775 0.0
O200 O 0.96178 0.61718 0.30526 0.0
H201 H 0.2029 0.60845 0.27802 0.0
H202 H 1.00911 0.67965 0.32232 0.0
H203 H 0.26067 0.58219 0.25913 0.0
Zn204 Zn 0.07552 0.39424 0.28939 0.0
C205 C 0.26888 0.39041 0.40571 0.0
N206 N 0.223 0.39748 0.42876 0.0
C207 C 0.14935 0.39461 0.3959 0.0
N208 N 0.15072 0.38656 0.35386 0.0
N209 N 0.2257 0.38314 0.36083 0.0
C210 C 0.41328 0.37822 0.32713 0.0
O211 O 0.37824 0.39279 0.31237 0.0
O212 O 0.96475 0.39325 0.29254 0.0
Zn213 Zn 0.254 0.36709 0.31743 0.0
N214 N 0.10838 0.41707 0.28272 0.0
C215 C 0.21369 0.43216 0.2702 0.0
C216 C 0.18054 0.41714 0.27761 0.0
C217 C 0.06808 0.43168 0.28181 0.0
N218 N 0.17338 0.44664 0.26824 0.0
C219 C 0.10149 0.44698 0.27391 0.0
O220 O 0.20278 0.37311 0.24284 0.0
C221 C 0.13529 0.37761 0.21094 0.0
O222 O 0.07947 0.38285 0.22514 0.0
H223 H 0.21194 0.40549 0.27894 0.0
H224 H 1.01069 0.43136 0.28595 0.0
C225 C 0.25215 0.32979 0.32277 0.0
C226 C 0.21835 0.31445 0.33013 0.0
C227 C 0.1129 0.32948 0.34221 0.0
C228 C 0.14578 0.34453 0.33432 0.0
N229 N 0.21542 0.34458 0.32597 0.0
N230 N 0.14995 0.31485 0.34014 0.0
H231 H 0.30681 0.32995 0.31504 0.0
C232 C 0.93304 0.3788 0.28775 0.0
O233 O 0.97043 0.36599 0.2772 0.0
O234 O 0.37264 0.36593 0.33333 0.0
H235 H 0.11562 0.35612 0.33431 0.0
H236 H 0.27085 0.43234 0.26576 0.0
H237 H 0.05789 0.32942 0.34949 0.0
Zn238 Zn 0.83593 0.37071 0.7568 0.0
C239 C 0.89909 0.37535 0.64146 0.0
N240 N 0.82646 0.36882 0.61807 0.0
C241 C 0.79048 0.37154 0.65155 0.0
N242 N 0.83984 0.37906 0.69398 0.0
N243 N 0.90755 0.38213 0.68741 0.0
C244 C 0.1174 0.38196 0.71976 0.0
O245 O 0.07653 0.36891 0.72488 0.0
O246 O 0.72046 0.36779 0.74852 0.0
Zn247 Zn 0.98467 0.39772 0.73308 0.0
N248 N 0.88929 0.34899 0.76697 0.0
C249 C 0.01475 0.3357 0.78511 0.0
C250 C 0.96924 0.35013 0.77987 0.0
C251 C 0.8525 0.33373 0.75934 0.0
N252 N 0.97846 0.32057 0.77698 0.0
C253 C 0.89852 0.31902 0.76428 0.0
O254 O 1.00648 0.39297 0.80876 0.0
C255 C 0.96668 0.38969 0.83736 0.0
O256 O 0.89521 0.38443 0.81932 0.0
H257 H 0.99739 0.36223 0.78512 0.0
H258 H 0.78857 0.3331 0.74817 0.0
C259 C 0.97013 0.4351 0.71512 0.0
C260 C 0.92448 0.45004 0.70732 0.0
C261 C 0.81611 0.43433 0.71303 0.0
C262 C 0.86151 0.4198 0.72171 0.0
N263 N 0.93652 0.42021 0.72115 0.0
N264 N 0.84846 0.44901 0.70604 0.0
H265 H 0.03073 0.43532 0.71624 0.0
C266 C 0.6759 0.38016 0.74885 0.0
O267 O 0.70665 0.39529 0.75775 0.0
O268 O 0.09 0.39659 0.72155 0.0
H269 H 0.83728 0.40822 0.72955 0.0
H270 H 0.0784 0.33652 0.79501 0.0
H271 H 0.75592 0.43402 0.71264 0.0
H272 H 0.64404 0.13668 0.65269 0.0
H273 H 0.42205 0.15013 0.67047 0.0
H274 H 0.3595 0.15406 0.57693 0.0
H275 H 0.62933 0.16527 0.54924 0.0
H276 H 0.67024 0.15061 0.51626 0.0
H277 H 0.6989 0.14945 0.58484 0.0
H278 H 0.65466 0.11835 0.57804 0.0
H279 H 0.62667 0.11937 0.50954 0.0
H280 H 0.55513 0.11288 0.5372 0.0
H281 H 0.32152 0.15695 0.48159 0.0
H282 H 0.30564 0.15536 0.39058 0.0
H283 H 0.55058 0.13873 0.43378 0.0
C284 C 0.58229 0.14049 0.63691 0.0
C285 C 0.53801 0.14316 0.66903 0.0
C286 C 0.45711 0.14794 0.64673 0.0
C287 C 0.42121 0.15033 0.59364 0.0
C288 C 0.46668 0.14773 0.56317 0.0
C289 C 0.54514 0.14268 0.58387 0.0
C290 C 0.57951 0.13991 0.5423 0.0
C291 C 0.64859 0.15204 0.54855 0.0
C292 C 0.6055 0.12153 0.54174 0.0
C293 C 0.50801 0.14411 0.49495 0.0
C294 C 0.44397 0.14883 0.50797 0.0
C295 C 0.37123 0.15323 0.47095 0.0
C296 C 0.36297 0.15235 0.41922 0.0
C297 C 0.42676 0.1469 0.40465 0.0
C298 C 0.50063 0.143 0.44338 0.0
H299 H 0.45676 0.86881 0.41569 0.0
H300 H 0.45282 0.92148 0.37601 0.0
H301 H 0.49667 0.92896 0.46807 0.0
H302 H 0.3898 0.87262 0.52025 0.0
H303 H 0.45594 0.8568 0.55891 0.0
H304 H 0.42324 0.85572 0.49018 0.0
H305 H 0.56955 0.85512 0.4953 0.0
H306 H 0.60273 0.85608 0.56409 0.0
H307 H 0.63638 0.87151 0.52931 0.0
H308 H 0.53027 0.93052 0.56484 0.0
H309 H 0.56992 0.92593 0.65846 0.0
H310 H 0.56646 0.87217 0.63478 0.0
C311 C 0.46539 0.88192 0.42649 0.0
C312 C 0.45081 0.89461 0.3889 0.0
C313 C 0.4638 0.91159 0.40435 0.0
C314 C 0.48829 0.91594 0.45646 0.0
C315 C 0.50139 0.90311 0.49263 0.0
C316 C 0.49206 0.88641 0.47831 0.0
C317 C 0.51325 0.87497 0.52461 0.0
C318 C 0.44126 0.8644 0.52339 0.0
C319 C 0.58474 0.86376 0.52855 0.0
C320 C 0.53478 0.88779 0.56731 0.0
C321 C 0.52634 0.90397 0.54813 0.0
C322 C 0.53834 0.9179 0.58025 0.0
C323 C 0.56045 0.9152 0.63326 0.0
C324 C 0.57213 0.89874 0.65365 0.0
C325 C 0.5592 0.8849 0.62015 0.0
H326 H 0.87286 0.63736 0.90831 0.0
H327 H 0.0962 0.62509 0.89042 0.0
H328 H 0.16242 0.62417 0.98419 0.0
H329 H 0.95188 0.66378 1.01743 0.0
H330 H 0.88629 0.65653 0.04879 0.0
H331 H 0.85481 0.65584 0.98004 0.0
H332 H 0.82685 0.62401 0.98134 0.0
H333 H 0.85776 0.62462 0.05011 0.0
H334 H 0.9045 0.61019 1.02004 0.0
H335 H 0.20721 0.62662 0.07931 0.0
H336 H 0.22566 0.62947 0.17047 0.0
H337 H 0.97283 0.63841 0.12934 0.0
C338 C 0.93556 0.63433 0.92411 0.0
C339 C 0.97919 0.63131 0.89163 0.0
C340 C 0.06114 0.62736 0.91412 0.0
C341 C 0.0995 0.62688 0.96749 0.0
C342 C 0.05515 0.63013 0.99826 0.0
C343 C 0.97475 0.63352 0.97756 0.0
C344 C 0.94118 0.6364 1.01964 0.0
C345 C 0.9065 0.65419 1.01626 0.0
C346 C 0.87888 0.62301 1.01766 0.0
C347 C 0.01557 0.63434 0.06715 0.0
C348 C 0.08061 0.63087 0.05368 0.0
C349 C 0.15658 0.62916 0.09033 0.0
C350 C 0.16649 0.63091 0.1421 0.0
C351 C 0.10079 0.63414 0.15728 0.0
C352 C 0.02413 0.6358 0.11907 0.0
H353 H 0.89819 0.38939 0.91066 0.0
H354 H 0.12683 0.38996 0.89163 0.0
H355 H 0.19422 0.38659 0.98496 0.0
H356 H 0.96282 0.41269 0.0315 0.0
H357 H 0.90073 0.40066 0.05687 0.0
H358 H 0.87102 0.40386 0.98882 0.0
H359 H 0.85976 0.37167 0.97509 0.0
H360 H 0.89058 0.36836 0.04312 0.0
H361 H 0.94447 0.35853 1.00746 0.0
H362 H 0.23612 0.38087 0.07914 0.0
H363 H 0.25123 0.37672 0.16941 0.0
H364 H 0.99559 0.38095 0.12798 0.0
C365 C 0.9625 0.38904 0.92615 0.0
C366 C 1.00721 0.38994 0.89373 0.0
C367 C 0.09126 0.38943 0.91562 0.0
C368 C 0.1301 0.3874 0.96858 0.0
C369 C 0.08413 0.38611 0.99921 0.0
C370 C 1.00227 0.38722 0.97897 0.0
C371 C 0.96686 0.38551 1.02036 0.0
C372 C 0.92277 0.40164 1.02464 0.0
C373 C 0.9122 0.3701 1.01092 0.0
C374 C 0.0416 0.38303 0.06699 0.0
C375 C 0.10849 0.38329 0.05382 0.0
C376 C 0.18425 0.3808 0.08999 0.0
C377 C 0.19209 0.37833 0.14118 0.0
C378 C 0.1246 0.37852 0.15594 0.0
C379 C 0.04836 0.38079 0.11805 0.0
H380 H 0.27835 0.97522 0.20738 0.0
H381 H 0.52488 0.96339 0.23454 0.0
H382 H 0.56103 0.99312 0.25872 0.0
H383 H 0.27352 0.01495 0.15093 0.0
H384 H 0.20851 0.02414 0.1799 0.0
H385 H 0.20422 1.00196 0.16718 0.0
H386 H 0.22918 0.99559 0.26262 0.0
H387 H 0.23249 0.01776 0.2755 0.0
H388 H 0.31465 1.00452 0.3116 0.0
H389 H 0.56632 0.02545 0.27553 0.0
H390 H 0.54216 0.05535 0.29054 0.0
H391 H 0.29176 0.04449 0.25156 0.0
C392 C 0.34021 0.9788 0.21872 0.0
C393 C 0.39876 0.96698 0.21906 0.0
C394 C 0.47907 0.97219 0.23455 0.0
C395 C 0.49995 0.98908 0.24792 0.0
C396 C 0.43991 1.00051 0.24597 0.0
C397 C 0.36182 0.99541 0.23234 0.0
C398 C 0.30767 1.00979 0.2331 0.0
C399 C 0.2448 0.01289 0.1796 0.0
C400 C 0.26874 1.00673 0.27309 0.0
C401 C 0.36697 0.02394 0.24889 0.0
C402 C 0.44304 0.01853 0.25599 0.0
C403 C 0.5069 0.02973 0.27019 0.0
C404 C 0.49255 0.04674 0.2782 0.0
C405 C 0.41499 0.05232 0.27223 0.0
C406 C 0.35188 0.04068 0.25687 0.0
H407 H 0.70468 0.98365 0.91178 0.0
H408 H 0.49587 0.97036 0.78071 0.0
H409 H 0.45631 1.00023 0.76969 0.0
H410 H 0.61802 0.01879 0.95949 0.0
H411 H 0.70855 0.03075 0.97637 0.0
H412 H 0.71252 1.00815 0.97868 0.0
H413 H 0.79236 1.00808 0.91789 0.0
H414 H 0.78895 0.03061 0.91561 0.0
H415 H 0.75223 0.01872 0.85705 0.0
H416 H 0.44806 0.03272 0.76802 0.0
H417 H 0.47779 0.06326 0.77261 0.0
H418 H 0.69452 0.0543 0.90198 0.0
C419 C 0.6497 0.98682 0.8811 0.0
C420 C 0.60341 0.97436 0.84754 0.0
C421 C 0.53219 0.97939 0.80784 0.0
C422 C 0.50919 0.99644 0.80112 0.0
C423 C 0.55767 1.00836 0.83441 0.0
C424 C 0.62651 1.00364 0.87365 0.0
C425 C 0.67328 0.01871 0.90127 0.0
C426 C 0.67835 0.01912 0.95727 0.0
C427 C 0.75656 0.01904 0.89769 0.0
C428 C 0.62152 0.03277 0.8706 0.0
C429 C 0.55407 0.02669 0.83279 0.0
C430 C 0.50013 0.03755 0.79801 0.0
C431 C 0.51704 0.0549 0.80108 0.0
C432 C 0.58786 0.06111 0.83811 0.0
C433 C 0.6393 0.0499 0.87385 0.0
H434 H 0.83498 0.54513 0.64143 0.0
H435 H 0.05475 0.55728 0.76495 0.0
H436 H 0.09518 0.52736 0.76998 0.0
H437 H 0.79614 0.50929 0.69413 0.0
H438 H 0.75321 0.49803 0.63476 0.0
H439 H 0.75011 0.52055 0.63485 0.0
H440 H 0.82042 0.52146 0.56871 0.0
H441 H 0.82374 0.49885 0.56843 0.0
H442 H 0.91396 0.51076 0.58248 0.0
H443 H 0.10077 0.49481 0.76926 0.0
H444 H 0.06885 0.4644 0.76443 0.0
H445 H 0.84499 0.4745 0.64204 0.0
C446 C 0.89269 0.54164 0.66876 0.0
C447 C 0.94183 0.55366 0.7025 0.0
C448 C 0.01654 0.54844 0.73795 0.0
C449 C 0.03984 0.53141 0.74118 0.0
C450 C 0.98828 0.51978 0.70831 0.0
C451 C 0.91649 0.52483 0.67242 0.0
C452 C 0.86741 0.51001 0.64491 0.0
C453 C 0.78705 0.50944 0.65268 0.0
C454 C 0.85573 0.51029 0.58774 0.0
C455 C 0.92093 0.49568 0.67224 0.0
C456 C 0.99123 0.50142 0.70807 0.0
C457 C 0.0466 0.49025 0.74055 0.0
C458 C 0.02835 0.47295 0.73734 0.0
C459 C 0.95488 0.46705 0.70237 0.0
C460 C 0.90215 0.47859 0.6686 0.0
H461 H 0.09054 0.54189 0.20576 0.0
H462 H 0.02842 0.55268 0.33833 0.0
H463 H 0.99688 0.52259 0.34387 0.0
H464 H 0.9446 0.50662 0.15225 0.0
H465 H 0.01607 0.49544 0.13286 0.0
H466 H 0.01544 0.51806 0.133 0.0
H467 H 0.16406 0.51809 0.19168 0.0
H468 H 0.16508 0.49558 0.19195 0.0
H469 H 0.19456 0.50686 0.25164 0.0
H470 H 0.9971 0.49026 0.34365 0.0
H471 H 0.03002 0.46021 0.338 0.0
H472 H 0.09218 0.47147 0.20572 0.0
C473 C 0.06757 0.53802 0.2349 0.0
C474 C 0.06118 0.54961 0.27129 0.0
C475 C 0.03218 0.54406 0.30939 0.0
C476 C 0.01443 0.52697 0.31287 0.0
C477 C 0.02481 0.5157 0.27747 0.0
C478 C 0.04965 0.52116 0.2387 0.0
C479 C 0.0658 0.50665 0.20909 0.0
C480 C 1.00694 0.5067 0.15351 0.0
C481 C 0.15248 0.50681 0.21129 0.0
C482 C 0.05049 0.49206 0.23877 0.0
C483 C 0.02518 0.49737 0.27744 0.0
C484 C 0.01497 0.48599 0.31269 0.0
C485 C 0.03337 0.46892 0.30911 0.0
C486 C 0.06274 0.46354 0.27105 0.0
C487 C 0.06873 0.47522 0.23473 0.0
H488 H 0.86791 0.16934 0.99605 0.0
H489 H 0.83015 0.12812 0.88905 0.0
H490 H 0.96045 0.11645 0.94016 0.0
H491 H 0.09248 0.17196 0.02986 0.0
H492 H 0.10784 0.17683 0.09561 0.0
H493 H 0.01842 0.18367 0.04525 0.0
H494 H 0.93549 0.16868 0.0917 0.0
H495 H 0.02479 0.16131 0.14091 0.0
H496 H 0.94993 0.14654 0.10523 0.0
H497 H 0.07584 0.10588 1.01096 0.0
H498 H 0.19716 0.10108 0.08573 0.0
H499 H 0.16903 0.14979 0.14638 0.0
C500 C 0.88937 0.15839 0.98204 0.0
C501 C 0.84005 0.14989 0.93774 0.0
C502 C 0.86812 0.13519 0.92156 0.0
C503 C 0.94151 0.12827 0.951 0.0
C504 C 0.98604 0.13628 0.99634 0.0
C505 C 0.96303 0.15136 1.011 0.0
C506 C 0.02117 0.15685 0.0629 0.0
C507 C 0.06245 0.1733 0.05811 0.0
C508 C 0.98033 0.15843 0.10247 0.0
C509 C 0.07866 0.1422 0.07559 0.0
C510 C 0.05596 0.1304 0.03691 0.0
C511 C 0.09572 0.11525 0.04081 0.0
C512 C 0.16396 0.11257 0.08377 0.0
C513 C 0.19297 0.12512 0.12175 0.0
C514 C 0.14826 0.13991 0.11847 0.0
H515 H 0.15815 0.84346 0.08587 0.0
H516 H 0.16146 0.88944 0.16921 0.0
H517 H 0.02625 0.89603 0.1106 0.0
H518 H 0.06822 0.85863 0.96678 0.0
H519 H 1.00421 0.84115 0.93866 0.0
H520 H 0.09506 0.83777 0.99224 0.0
H521 H 0.01853 0.82405 0.04474 0.0
H522 H 0.92771 0.82659 0.99038 0.0
H523 H 0.93543 0.83497 0.05179 0.0
H524 H 0.91051 0.90124 0.03212 0.0
H525 H 0.79063 0.90012 0.9545 0.0
H526 H 0.85061 0.84952 0.92414 0.0
C527 C 0.1282 0.85434 0.09359 0.0
C528 C 0.16956 0.86579 0.13261 0.0
C529 C 0.13009 0.88027 0.14059 0.0
C530 C 0.05381 0.88429 0.10677 0.0
C531 C 0.01748 0.87349 0.06601 0.0
C532 C 0.0512 0.85839 0.06059 0.0
C533 C 0.99967 0.84938 1.01222 0.0
C534 C 0.04453 0.84657 0.97534 0.0
C535 C 0.96844 0.83276 0.02558 0.0
C536 C 0.93332 0.86209 0.99053 0.0
C537 C 0.94648 0.87606 1.02174 0.0
C538 C 0.89819 0.89018 1.00815 0.0
C539 C 0.83127 0.88956 0.96338 0.0
C540 C 0.81205 0.8748 0.93333 0.0
C541 C 0.86461 0.86099 0.94627 0.0
H542 H 0.67311 0.63356 0.64658 0.0
H543 H 0.71791 0.68221 0.59432 0.0
H544 H 0.58007 0.68316 0.53178 0.0
H545 H 0.58586 0.61814 0.53075 0.0
H546 H 0.51307 0.60512 0.54312 0.0
H547 H 0.60393 0.61023 0.59437 0.0
H548 H 0.52626 0.62259 0.64736 0.0
H549 H 0.434 0.61729 0.59739 0.0
H550 H 0.45202 0.63859 0.6201 0.0
H551 H 0.44484 0.67608 0.46382 0.0
H552 H 0.32156 0.66283 0.40448 0.0
H553 H 0.37652 0.61776 0.49733 0.0
C554 C 0.65179 0.64496 0.62475 0.0
C555 C 0.70457 0.65814 0.62661 0.0
C556 C 0.67694 0.67233 0.59473 0.0
C557 C 0.5991 0.67284 0.55864 0.0
C558 C 0.55025 0.65897 0.55483 0.0
C559 C 0.57523 0.64541 0.58786 0.0
C560 C 0.51766 0.63094 0.57111 0.0
C561 C 0.55756 0.6152 0.55914 0.0
C562 C 0.48022 0.62715 0.61139 0.0
C563 C 0.45757 0.63827 0.52302 0.0
C564 C 0.47627 0.65448 0.51419 0.0
C565 C 0.42948 0.66341 0.47072 0.0
C566 C 0.36046 0.65572 0.43659 0.0
C567 C 0.3405 0.63918 0.44574 0.0
C568 C 0.39054 0.63041 0.48915 0.0
H569 H 0.36966 0.36305 0.43084 0.0
H570 H 0.35766 0.41713 0.44402 0.0
H571 H 0.48288 0.41682 0.51808 0.0
H572 H 0.449 0.35291 0.5594 0.0
H573 H 0.51912 0.33726 0.55587 0.0
H574 H 0.43041 0.34123 0.50111 0.0
H575 H 0.51367 0.34748 0.44472 0.0
H576 H 0.60271 0.34288 0.49851 0.0
H577 H 0.59249 0.36273 0.46575 0.0
H578 H 0.59227 0.4104 0.59803 0.0
H579 H 0.71783 0.40025 0.66072 0.0
H580 H 0.67343 0.35081 0.59168 0.0
C581 C 0.39595 0.37486 0.44763 0.0
C582 C 0.35486 0.39015 0.43191 0.0
C583 C 0.38923 0.40535 0.45557 0.0
C584 C 0.45936 0.40527 0.49813 0.0
C585 C 0.49538 0.38991 0.51542 0.0
C586 C 0.46799 0.3751 0.48945 0.0
C587 C 0.52206 0.36057 0.51518 0.0
C588 C 0.47742 0.34721 0.53398 0.0
C589 C 0.56006 0.35297 0.47891 0.0
C590 C 0.58278 0.36961 0.5599 0.0
C591 C 0.5639 0.38639 0.5601 0.0
C592 C 0.60884 0.39735 0.59797 0.0
C593 C 0.67935 0.39136 0.63416 0.0
C594 C 0.70483 0.37474 0.63124 0.0
C595 C 0.6543 0.3635 0.59515 0.0
H596 H 0.57978 0.11861 0.95134 0.0
H597 H 0.58773 0.17282 0.96398 0.0
H598 H 0.54152 0.17123 0.03663 0.0
H599 H 0.39613 0.11428 0.98618 0.0
H600 H 0.4313 0.09477 1.01936 0.0
H601 H 0.45789 0.10051 0.96533 0.0
H602 H 0.60627 0.09679 1.02226 0.0
H603 H 0.58036 0.09187 0.07715 0.0
H604 H 0.6472 0.10896 0.08008 0.0
H605 H 0.51792 0.16383 0.11551 0.0
H606 H 0.4669 0.15191 0.17859 0.0
H607 H 0.46234 0.10248 0.11288 0.0
C608 C 0.56754 0.13011 0.96779 0.0
C609 C 0.58606 0.14587 0.95198 0.0
C610 C 0.57224 0.16068 0.97526 0.0
C611 C 0.5475 0.15989 1.01707 0.0
C612 C 0.53557 0.14416 0.03445 0.0
C613 C 0.54103 0.12956 1.00922 0.0
C614 C 0.52207 0.11438 0.03552 0.0
C615 C 0.44739 0.10546 0.99948 0.0
C616 C 0.59324 0.10229 0.05488 0.0
C617 C 0.50697 0.12278 0.07987 0.0
C618 C 0.5175 0.13991 0.07913 0.0
C619 C 0.50841 0.15045 0.11627 0.0
C620 C 0.48114 0.14348 0.15277 0.0
C621 C 0.46191 0.12622 0.15113 0.0
C622 C 0.47842 0.11563 0.11566 0.0
H623 H 0.49617 0.86425 0.90276 0.0
H624 H 0.61169 0.91254 0.93625 0.0
H625 H 0.55058 0.91776 1.00135 0.0
H626 H 0.31031 0.87655 0.93151 0.0
H627 H 0.30887 0.85594 0.95778 0.0
H628 H 0.34379 0.85866 0.90544 0.0
H629 H 0.47482 0.84367 0.95964 0.0
H630 H 0.44274 0.84171 1.01313 0.0
H631 H 0.53467 0.85227 1.02093 0.0
H632 H 0.49744 0.91475 0.07469 0.0
H633 H 0.44116 0.90564 0.13907 0.0
H634 H 0.37142 0.85844 0.05899 0.0
C635 C 0.50421 0.87634 0.92159 0.0
C636 C 0.55614 0.88822 0.91388 0.0
C637 C 0.56932 0.90361 0.94064 0.0
C638 C 0.5357 0.90655 0.97806 0.0
C639 C 0.48894 0.89398 0.98754 0.0
C640 C 0.47134 0.87938 0.95882 0.0
C641 C 0.42762 0.86698 0.97969 0.0
C642 C 0.34261 0.86439 0.94136 0.0
C643 C 0.47272 0.85018 0.9942 0.0
C644 C 0.42776 0.87634 0.02646 0.0
C645 C 0.46181 0.89201 0.03023 0.0
C646 C 0.46979 0.90256 0.07164 0.0
C647 C 0.43913 0.89715 0.10882 0.0
C648 C 0.40289 0.88123 0.10477 0.0
C649 C 0.39897 0.8707 0.06344 0.0
H650 H 0.03646 0.63925 0.40153 0.0
H651 H 0.13664 0.59019 0.45176 0.0
H652 H 0.07 0.58939 0.51509 0.0
H653 H 0.08089 0.65439 0.51782 0.0
H654 H 0.99527 0.66765 0.50679 0.0
H655 H 0.02722 0.66258 0.45467 0.0
H656 H 0.88943 0.65048 0.40217 0.0
H657 H 0.85494 0.6561 0.4529 0.0
H658 H 0.84541 0.63479 0.43025 0.0
H659 H 0.01533 0.59674 0.58486 0.0
H660 H 0.96035 0.60994 0.64511 0.0
H661 H 0.90856 0.65503 0.55256 0.0
C662 C 0.03897 0.62781 0.42304 0.0
C663 C 0.0888 0.61449 0.42053 0.0
C664 C 0.09596 0.60019 0.45189 0.0
C665 C 0.0593 0.59977 0.48849 0.0
C666 C 0.01616 0.61381 0.49321 0.0
C667 C 1.0043 0.62742 0.46039 0.0
C668 C 0.96671 0.64197 0.47803 0.0
C669 C 0.02079 0.65755 0.49003 0.0
C670 C 0.88418 0.64606 0.43847 0.0
C671 C 0.96085 0.63459 0.52625 0.0
C672 C 0.98902 0.61834 0.53452 0.0
C673 C 0.99198 0.60939 0.57819 0.0
C674 C 0.96191 0.61705 0.61286 0.0
C675 C 0.93052 0.6335 0.60389 0.0
C676 C 0.93195 0.64238 0.56054 0.0
H677 H 0.11238 0.41488 0.46322 0.0
H678 H 0.05175 0.36777 0.38101 0.0
H679 H 0.99366 0.35763 0.44206 0.0
H680 H 0.16799 0.3992 0.58569 0.0
H681 H 0.12269 0.41498 0.61238 0.0
H682 H 0.15246 0.42011 0.55916 0.0
H683 H 1.00946 0.42989 0.50507 0.0
H684 H 0.98041 0.42558 0.5591 0.0
H685 H 0.92701 0.4161 0.49794 0.0
H686 H 0.97466 0.34999 0.52136 0.0
H687 H 0.93345 0.34894 0.59586 0.0
H688 H 0.98379 0.40206 0.62261 0.0
C689 C 0.08311 0.40279 0.4567 0.0
C690 C 0.08633 0.39213 0.41703 0.0
C691 C 0.049 0.37627 0.41022 0.0
C692 C 0.01724 0.37024 0.44553 0.0
C693 C 0.02158 0.38042 0.48668 0.0
C694 C 0.04905 0.3967 0.49111 0.0
C695 C 0.04406 0.40498 0.53883 0.0
C696 C 0.12673 0.41012 0.57618 0.0
C697 C 0.98679 0.42002 0.52437 0.0
C698 C 1.01088 0.39061 0.56063 0.0
C699 C 1.00196 0.37643 0.53072 0.0
C700 C 0.97865 0.36112 0.54424 0.0
C701 C 0.95667 0.36062 0.58705 0.0
C702 C 0.95513 0.37543 0.6145 0.0
C703 C 0.98561 0.39053 0.60263 0.0
H704 H 0.26283 0.232 0.1829 0.0
H705 H 0.31756 0.20515 0.32686 0.0
H706 H 0.31604 0.23188 0.37043 0.0
H707 H 0.38386 0.26867 0.23599 0.0
H708 H 0.31399 0.2831 0.19331 0.0
H709 H 0.3207 0.26185 0.17318 0.0
H710 H 0.17028 0.25764 0.15375 0.0
H711 H 0.16296 0.27891 0.17321 0.0
H712 H 0.13038 0.26183 0.20311 0.0
H713 H 0.30212 0.26154 0.39797 0.0
H714 H 0.27216 0.29149 0.40611 0.0
H715 H 0.23314 0.29938 0.24581 0.0
C716 C 0.27493 0.23165 0.22368 0.0
C717 C 0.28923 0.21621 0.25091 0.0
C718 C 0.30445 0.21654 0.30432 0.0
C719 C 0.30473 0.23178 0.32975 0.0
C720 C 0.29048 0.24668 0.3016 0.0
C721 C 0.2758 0.24672 0.2497 0.0
C722 C 0.25984 0.2644 0.22792 0.0
C723 C 0.3234 0.26982 0.20633 0.0
C724 C 0.17588 0.26577 0.1871 0.0
C725 C 0.26674 0.27431 0.27558 0.0
C726 C 0.28489 0.26384 0.31775 0.0
C727 C 0.28927 0.26988 0.36541 0.0
C728 C 0.27266 0.28691 0.36979 0.0
C729 C 0.25287 0.2978 0.32703 0.0
C730 C 0.25118 0.29146 0.27953 0.0
H731 H 0.65524 0.24046 0.80834 0.0
H732 H 0.78787 0.20978 0.73836 0.0
H733 H 0.85164 0.2352 0.72111 0.0
H734 H 0.62119 0.27565 0.72042 0.0
H735 H 0.63301 0.29119 0.76933 0.0
H736 H 0.59611 0.27061 0.7756 0.0
H737 H 0.70848 0.26689 0.86399 0.0
H738 H 0.74525 0.28749 0.85819 0.0
H739 H 0.8104 0.26956 0.86932 0.0
H740 H 0.90379 0.26366 0.71339 0.0
H741 H 0.94531 0.29325 0.71878 0.0
H742 H 0.7775 0.30588 0.79211 0.0
C743 C 0.69748 0.23905 0.78919 0.0
C744 C 0.71712 0.22299 0.77543 0.0
C745 C 0.77297 0.22179 0.75056 0.0
C746 C 0.80892 0.23622 0.73998 0.0
C747 C 0.7882 0.25179 0.75417 0.0
C748 C 0.73396 0.25332 0.77834 0.0
C749 C 0.72399 0.27152 0.79091 0.0
C750 C 0.63848 0.27759 0.76235 0.0
C751 C 0.74852 0.27401 0.84905 0.0
C752 C 0.78182 0.27998 0.77046 0.0
C753 C 0.81773 0.26833 0.74916 0.0
C754 C 0.8757 0.2729 0.72963 0.0
C755 C 0.89889 0.28975 0.73292 0.0
C756 C 0.86419 0.3019 0.75542 0.0
C757 C 0.80382 0.29696 0.77366 0.0
H758 H 0.66146 0.78831 0.79876 0.0
H759 H 0.81755 0.81703 0.74207 0.0
H760 H 0.88 0.79075 0.72926 0.0
H761 H 0.8046 0.75697 0.86618 0.0
H762 H 0.73352 0.74008 0.84992 0.0
H763 H 0.70148 0.7612 0.85499 0.0
H764 H 0.59798 0.75917 0.76284 0.0
H765 H 0.63032 0.73809 0.75728 0.0
H766 H 0.63043 0.7538 0.71089 0.0
H767 H 0.92535 0.76143 0.72216 0.0
H768 H 0.95628 0.73125 0.72588 0.0
H769 H 0.76975 0.72113 0.78587 0.0
C770 C 0.70888 0.78914 0.78369 0.0
C771 C 0.73485 0.80492 0.77205 0.0
C772 C 0.79731 0.80529 0.7525 0.0
C773 C 0.8327 0.79036 0.74449 0.0
C774 C 0.80501 0.7751 0.75599 0.0
C775 C 0.74483 0.77437 0.77544 0.0
C776 C 0.7269 0.75634 0.78533 0.0
C777 C 0.74259 0.75348 0.8425 0.0
C778 C 0.64132 0.75158 0.75209 0.0
C779 C 0.78672 0.74699 0.76854 0.0
C780 C 0.83081 0.75811 0.75153 0.0
C781 C 0.89111 0.75263 0.73529 0.0
C782 C 0.90817 0.73543 0.73756 0.0
C783 C 0.86521 0.72376 0.75586 0.0
C784 C 0.80265 0.72965 0.77076 0.0
H785 H 0.36488 0.78157 0.2521 0.0
H786 H 0.25342 0.8101 0.34037 0.0
H787 H 0.20554 0.78376 0.36537 0.0
H788 H 0.21168 0.75056 0.20536 0.0
H789 H 0.27981 0.73356 0.20948 0.0
H790 H 0.30596 0.75469 0.19898 0.0
H791 H 0.43523 0.7522 0.27862 0.0
H792 H 0.40901 0.73112 0.2897 0.0
H793 H 0.4293 0.74662 0.3396 0.0
H794 H 0.16969 0.75448 0.38086 0.0
H795 H 0.13991 0.72436 0.38123 0.0
H796 H 0.27451 0.71445 0.28305 0.0
C797 C 0.33039 0.78232 0.27672 0.0
C798 C 0.31236 0.79802 0.29374 0.0
C799 C 0.26677 0.79836 0.32578 0.0
C800 C 0.24002 0.78341 0.34072 0.0
C801 C 0.25934 0.7682 0.32345 0.0
C802 C 0.30299 0.76753 0.29186 0.0
C803 C 0.31377 0.74954 0.27759 0.0
C804 C 0.27551 0.74694 0.2194 0.0
C805 C 0.40209 0.74458 0.29758 0.0
C806 C 0.2689 0.74017 0.30591 0.0
C807 C 0.23859 0.75122 0.3324 0.0
C808 C 0.19323 0.74572 0.36036 0.0
C809 C 0.17667 0.72856 0.36029 0.0
C810 C 0.20515 0.71696 0.33242 0.0
C811 C 0.25316 0.72288 0.30558 0.0
H812 H 0.71703 0.15152 0.25233 0.0
H813 H 0.68165 0.09823 0.26846 0.0
H814 H 0.80779 0.09218 0.25603 0.0
H815 H 0.80741 0.14722 0.15439 0.0
H816 H 0.87604 0.16421 0.17979 0.0
H817 H 0.78065 0.16436 0.18702 0.0
H818 H 0.8502 0.16727 0.28535 0.0
H819 H 0.9456 0.16716 0.27836 0.0
H820 H 0.92442 0.15209 0.31984 0.0
H821 H 0.94047 0.09194 0.24567 0.0
H822 H 0.07129 0.09751 0.23971 0.0
H823 H 0.02148 0.151 0.23048 0.0
C824 C 0.7356 0.13857 0.25309 0.0
C825 C 0.68944 0.12535 0.26171 0.0
C826 C 0.71592 0.10858 0.26215 0.0
C827 C 0.78743 0.105 0.25493 0.0
C828 C 0.83171 0.11832 0.24694 0.0
C829 C 0.80677 0.13477 0.24579 0.0
C830 C 0.86668 0.14678 0.23792 0.0
C831 C 0.83052 0.1562 0.18674 0.0
C832 C 0.89861 0.15904 0.28306 0.0
C833 C 0.93037 0.13455 0.23651 0.0
C834 C 0.90843 0.11818 0.24106 0.0
C835 C 0.95807 0.1047 0.24182 0.0
C836 C 0.03241 0.10801 0.23843 0.0
C837 C 0.05697 0.1247 0.23469 0.0
C838 C 1.00457 0.1381 0.23318 0.0
H839 H 0.29985 0.12207 0.81122 0.0
H840 H 0.38425 0.16682 0.90255 0.0
H841 H 0.25246 0.17067 0.90915 0.0
H842 H 0.11557 0.13803 0.73765 0.0
H843 H 0.06052 0.1189 0.73389 0.0
H844 H 0.16435 0.11797 0.74293 0.0
H845 H 0.19229 0.10016 0.82511 0.0
H846 H 0.08818 0.10088 0.81604 0.0
H847 H 0.16124 0.10786 0.87554 0.0
H848 H 0.1095 0.1714 0.89855 0.0
H849 H 0.9641 0.16896 0.87174 0.0
H850 H 0.9701 0.12411 0.78513 0.0
C851 C 0.29098 0.1324 0.83373 0.0
C852 C 0.35198 0.14414 0.85652 0.0
C853 C 0.33801 0.15773 0.88471 0.0
C854 C 0.26355 0.15997 0.88887 0.0
C855 C 0.2037 0.14851 0.86455 0.0
C856 C 0.21652 0.13493 0.83773 0.0
C857 C 0.14016 0.12535 0.81142 0.0
C858 C 0.11893 0.12506 0.75302 0.0
C859 C 0.14582 0.1075 0.83335 0.0
C860 C 0.08209 0.13601 0.82617 0.0
C861 C 0.1203 0.14914 0.8575 0.0
C862 C 0.07896 0.16109 0.87438 0.0
C863 C 0.99625 0.15966 0.85862 0.0
C864 C 0.95557 0.14641 0.82598 0.0
C865 C 0.99944 0.13436 0.81009 0.0
H866 H 0.28478 0.87228 0.77952 0.0
H867 H 0.36692 0.91983 0.85551 0.0
H868 H 0.24343 0.92238 0.87389 0.0
H869 H 0.08302 0.88401 0.71901 0.0
H870 H 0.0428 0.86397 0.72711 0.0
H871 H 0.14006 0.86511 0.72305 0.0
H872 H 0.20147 0.84981 0.81092 0.0
H873 H 0.1031 0.84827 0.81328 0.0
H874 H 0.18162 0.85786 0.86534 0.0
H875 H 0.10902 0.92054 0.88069 0.0
H876 H 0.97172 0.91481 0.87426 0.0
H877 H 0.97372 0.86847 0.79324 0.0
C878 C 0.27701 0.88319 0.80027 0.0
C879 C 0.33559 0.89593 0.81569 0.0
C880 C 0.32286 0.90998 0.8428 0.0
C881 C 0.25299 0.9115 0.85371 0.0
C882 C 0.19612 0.89885 0.83742 0.0
C883 C 0.20728 0.88493 0.81138 0.0
C884 C 0.13511 0.87349 0.7964 0.0
C885 C 0.09807 0.87154 0.73792 0.0
C886 C 0.15668 0.85634 0.82307 0.0
C887 C 0.08097 0.88335 0.81706 0.0
C888 C 0.11794 0.89783 0.84108 0.0
C889 C 0.07968 0.9092 0.8622 0.0
C890 C 1.00139 0.90582 0.85823 0.0
C891 C 0.96141 0.89119 0.83314 0.0
C892 C 1.00249 0.87972 0.81284 0.0
H893 H 0.76055 0.91019 0.30934 0.0
H894 H 0.62525 0.87942 0.17943 0.0
H895 H 0.74999 0.86996 0.17044 0.0
H896 H 0.91096 0.9231 0.25878 0.0
H897 H 0.99004 0.92253 0.32045 0.0
H898 H 0.88989 0.92703 0.31606 0.0
H899 H 0.89689 0.90247 0.37835 0.0
H900 H 0.99685 0.89783 0.38267 0.0
H901 H 0.92195 0.88172 0.36338 0.0
H902 H 0.89067 0.86294 0.17777 0.0
H903 H 0.03532 0.86028 0.19784 0.0
H904 H 0.07823 0.89621 0.32129 0.0
C905 C 0.757 0.90153 0.27882 0.0
C906 C 0.68289 0.89551 0.24527 0.0
C907 C 0.68116 0.8842 0.20576 0.0
C908 C 0.75178 0.87873 0.20034 0.0
C909 C 0.82382 0.88473 0.23449 0.0
C910 C 0.82689 0.896 0.27267 0.0
C911 C 0.91196 0.90059 0.30423 0.0
C912 C 0.92655 0.91943 0.29958 0.0
C913 C 0.93313 0.89534 0.36048 0.0
C914 C 0.95629 0.89005 0.27812 0.0
C915 C 0.90446 0.88094 0.2381 0.0
C916 C 0.93174 0.87008 0.20892 0.0
C917 C 1.01407 0.86859 0.22076 0.0
C918 C 0.06822 0.87803 0.26113 0.0
C919 C 0.03849 0.88886 0.29009 0.0
H920 H 0.22959 0.61777 0.7433 0.0
H921 H 0.14902 0.66777 0.68595 0.0
H922 H 0.28132 0.67422 0.68411 0.0
H923 H 0.42201 0.62959 0.82625 0.0
H924 H 0.47222 0.61143 0.81407 0.0
H925 H 0.36932 0.61006 0.80738 0.0
H926 H 0.33302 0.5996 0.71413 0.0
H927 H 0.43593 0.60091 0.72053 0.0
H928 H 0.36124 0.61194 0.66936 0.0
H929 H 0.4241 0.67595 0.69178 0.0
H930 H 0.56741 0.6726 0.70842 0.0
H931 H 0.5582 0.6218 0.76233 0.0
C932 C 0.23956 0.62999 0.72975 0.0
C933 C 0.1785 0.64225 0.71485 0.0
C934 C 0.19451 0.65815 0.69779 0.0
C935 C 0.26963 0.66196 0.69645 0.0
C936 C 0.32885 0.64976 0.71224 0.0
C937 C 0.3148 0.63407 0.72836 0.0
C938 C 0.39004 0.62349 0.74494 0.0
C939 C 0.41484 0.61834 0.80152 0.0
C940 C 0.3794 0.60807 0.71017 0.0
C941 C 0.44862 0.63584 0.73682 0.0
C942 C 0.41179 0.65085 0.71736 0.0
C943 C 0.45358 0.66423 0.70697 0.0
C944 C 0.53516 0.66223 0.71675 0.0
C945 C 0.57457 0.64699 0.73701 0.0
C946 C 0.53018 0.63365 0.74701 0.0
H947 H 0.48829 0.65574 0.30784 0.0
H948 H 0.48319 0.60678 0.37477 0.0
H949 H 0.61755 0.60083 0.37553 0.0
H950 H 0.58419 0.64299 0.22454 0.0
H951 H 0.64516 0.66143 0.23217 0.0
H952 H 0.55146 0.66278 0.24129 0.0
H953 H 0.62207 0.67485 0.3323 0.0
H954 H 0.71603 0.67366 0.32329 0.0
H955 H 0.70377 0.66344 0.37746 0.0
H956 H 0.74845 0.59916 0.36384 0.0
H957 H 0.86929 0.60236 0.34274 0.0
H958 H 0.79121 0.65218 0.28231 0.0
C959 C 0.51615 0.64392 0.32354 0.0
C960 C 0.47489 0.63173 0.34118 0.0
C961 C 0.51317 0.61631 0.36082 0.0
C962 C 0.58974 0.6128 0.36154 0.0
C963 C 0.62792 0.62483 0.34261 0.0
C964 C 0.59293 0.64015 0.32438 0.0
C965 C 0.64612 0.65054 0.30431 0.0
C966 C 0.60421 0.65467 0.24719 0.0
C967 C 0.67362 0.66658 0.33624 0.0
C968 C 0.715 0.63848 0.31274 0.0
C969 C 0.70355 0.62379 0.33537 0.0
C970 C 0.75822 0.61063 0.34626 0.0
C971 C 0.8266 0.61254 0.33388 0.0
C972 C 0.83982 0.62747 0.31055 0.0
C973 C 0.78298 0.64059 0.3 0.0
H974 H 0.51765 0.40162 0.31514 0.0
H975 H 0.49781 0.34885 0.3476 0.0
H976 H 0.63164 0.34377 0.34587 0.0
H977 H 0.61251 0.39619 0.22723 0.0
H978 H 0.67801 0.41396 0.24768 0.0
H979 H 0.58398 0.41398 0.25655 0.0
H980 H 0.65533 0.41921 0.3537 0.0
H981 H 0.74967 0.41938 0.34503 0.0
H982 H 0.73358 0.4052 0.39058 0.0
H983 H 0.76071 0.34373 0.33176 0.0
H984 H 0.88109 0.34906 0.31189 0.0
H985 H 0.8207 0.40199 0.29061 0.0
C986 C 0.54196 0.38905 0.32274 0.0
C987 C 0.49697 0.37563 0.33147 0.0
C988 C 0.53096 0.35935 0.34095 0.0
C989 C 0.60704 0.35633 0.34003 0.0
C990 C 0.64888 0.36973 0.33001 0.0
C991 C 0.61815 0.38581 0.32221 0.0
C992 C 0.67448 0.39784 0.31033 0.0
C993 C 0.63486 0.40596 0.2573 0.0
C994 C 0.70508 0.4112 0.35243 0.0
C995 C 0.74037 0.38589 0.31098 0.0
C996 C 0.72443 0.36975 0.32268 0.0
C997 C 0.77428 0.35635 0.32314 0.0
C998 C 0.84226 0.35949 0.3114 0.0
C999 C 0.86021 0.37593 0.29951 0.0
C1000 C 0.80877 0.38931 0.2998 0.0
H1001 H 0.56436 0.40363 0.75004 0.0
H1002 H 0.59193 0.35097 0.72013 0.0
H1003 H 0.4491 0.34649 0.70182 0.0
H1004 H 0.43145 0.39805 0.81466 0.0
H1005 H 0.37188 0.41633 0.7881 0.0
H1006 H 0.47473 0.41581 0.79442 0.0
H1007 H 0.43457 0.42213 0.69749 0.0
H1008 H 0.33139 0.42264 0.69087 0.0
H1009 H 0.3639 0.40872 0.65157 0.0
H1010 H 0.30649 0.34716 0.69291 0.0
H1011 H 0.17365 0.35275 0.69547 0.0
H1012 H 0.23634 0.40507 0.73038 0.0
C1013 C 0.54026 0.39119 0.73922 0.0
C1014 C 0.58962 0.37763 0.73683 0.0
C1015 C 0.55561 0.36153 0.72257 0.0
C1016 C 0.47437 0.35888 0.71179 0.0
C1017 C 0.42764 0.37246 0.71508 0.0
C1018 C 0.45912 0.38831 0.72827 0.0
C1019 C 0.39641 0.40055 0.73139 0.0
C1020 C 0.42004 0.40812 0.78535 0.0
C1021 C 0.38066 0.41432 0.69039 0.0
C1022 C 0.32554 0.38895 0.71977 0.0
C1023 C 0.34475 0.37286 0.70976 0.0
C1024 C 0.29056 0.35974 0.70027 0.0
C1025 C 0.21526 0.36304 0.702 0.0
C1026 C 0.19463 0.37934 0.71332 0.0
C1027 C 0.25014 0.39252 0.72127 0.0
loop_
_geom_bond_atom_site_label_1
_geom_bond_atom_site_label_2
_geom_bond_distance
_geom_bond_site_symmetry_2
_ccdc_geom_bond_type
Zn0 N4 2.020 . S
Zn0 O8 2.019 . S
Zn0 N10 2.119 . S
Zn0 O18 1.975 . S
C1 N2 1.334 . S
C1 N5 1.336 . S
N2 C1 1.334 . S
N2 C3 1.334 . S
C3 N2 1.334 . S
C3 N4 1.336 . S
N4 Zn0 2.020 . S
N4 C3 1.336 . S
N4 N5 1.354 . S
N5 C1 1.336 . S
N5 N4 1.354 . S
N5 Zn9 2.020 . S
C6 O7 1.244 . S
C6 O30 1.257 . S
O7 C6 1.244 . S
O8 Zn0 2.019 . S
O8 C28 1.257 . S
Zn9 N5 2.020 . S
Zn9 O16 1.975 . S
Zn9 N25 2.119 . S
Zn9 O30 2.019 . S
N10 Zn0 2.119 . S
N10 C12 1.334 . S
N10 C13 1.328 . S
C11 C12 1.391 . S
C11 N14 1.329 . S
C11 H32 0.930 . S
C12 N10 1.334 . S
C12 C11 1.391 . S
C12 H19 0.930 . S
C13 N10 1.328 . S
C13 C15 1.392 . S
C13 H20 0.930 . S
N14 C11 1.329 . S
N14 C15 1.331 . S
C15 C13 1.392 . S
C15 N14 1.331 . S
O16 Zn9 1.975 . S
O16 C17 1.252 . S
C17 O16 1.252 . S
C17 O18 1.252 . S
O18 Zn0 1.975 . S
O18 C17 1.252 . S
H19 C12 0.930 . S
H20 C13 0.930 . S
C21 C22 1.392 . S
C21 N25 1.328 . S
C21 H27 0.930 . S
C22 C21 1.392 . S
C22 N26 1.331 . S
C23 C24 1.391 . S
C23 N26 1.329 . S
C23 H33 0.930 . S
C24 C23 1.391 . S
C24 N25 1.334 . S
C24 H31 0.930 . S
N25 Zn9 2.119 . S
N25 C21 1.328 . S
N25 C24 1.334 . S
N26 C22 1.331 . S
N26 C23 1.329 . S
H27 C21 0.930 . S
C28 O8 1.257 . S
C28 O29 1.244 . S
O29 C28 1.244 . S
O30 C6 1.257 . S
O30 Zn9 2.019 . S
H31 C24 0.930 . S
H32 C11 0.930 . S
H33 C23 0.930 . S
Zn34 N38 2.020 . S
Zn34 O42 2.019 . S
Zn34 N44 2.119 . S
Zn34 O52 1.975 . S
C35 N36 1.334 . S
C35 N39 1.336 . S
N36 C35 1.334 . S
N36 C37 1.334 . S
C37 N36 1.334 . S
C37 N38 1.336 . S
N38 Zn34 2.020 . S
N38 C37 1.336 . S
N38 N39 1.354 . S
N39 C35 1.336 . S
N39 N38 1.354 . S
N39 Zn43 2.020 . S
C40 O41 1.244 . S
C40 O64 1.257 . S
O41 C40 1.244 . S
O42 Zn34 2.019 . S
O42 C62 1.257 . S
Zn43 N39 2.020 . S
Zn43 O50 1.975 . S
Zn43 N59 2.119 . S
Zn43 O64 2.019 . S
N44 Zn34 2.119 . S
N44 C46 1.334 . S
N44 C47 1.328 . S
C45 C46 1.391 . S
C45 N48 1.329 . S
C45 H66 0.930 . S
C46 N44 1.334 . S
C46 C45 1.391 . S
C46 H53 0.930 . S
C47 N44 1.328 . S
C47 C49 1.392 . S
C47 H54 0.930 . S
N48 C45 1.329 . S
N48 C49 1.331 . S
C49 C47 1.392 . S
C49 N48 1.331 . S
O50 Zn43 1.975 . S
O50 C51 1.252 . S
C51 O50 1.252 . S
C51 O52 1.252 . S
O52 Zn34 1.975 . S
O52 C51 1.252 . S
H53 C46 0.930 . S
H54 C47 0.930 . S
C55 C56 1.392 . S
C55 N59 1.328 . S
C55 H61 0.930 . S
C56 C55 1.392 . S
C56 N60 1.331 . S
C57 C58 1.391 . S
C57 N60 1.329 . S
C57 H67 0.930 . S
C58 C57 1.391 . S
C58 N59 1.334 . S
C58 H65 0.930 . S
N59 Zn43 2.119 . S
N59 C55 1.328 . S
N59 C58 1.334 . S
N60 C56 1.331 . S
N60 C57 1.329 . S
H61 C55 0.930 . S
C62 O42 1.257 . S
C62 O63 1.244 . S
O63 C62 1.244 . S
O64 C40 1.257 . S
O64 Zn43 2.019 . S
H65 C58 0.930 . S
H66 C45 0.930 . S
H67 C57 0.930 . S
Zn68 N72 2.020 . S
Zn68 O76 2.019 . S
Zn68 N78 2.119 . S
Zn68 O86 1.975 . S
C69 N70 1.334 . S
C69 N73 1.336 . S
N70 C69 1.334 . S
N70 C71 1.334 . S
C71 N70 1.334 . S
C71 N72 1.336 . S
N72 Zn68 2.020 . S
N72 C71 1.336 . S
N72 N73 1.354 . S
N73 C69 1.336 . S
N73 N72 1.354 . S
N73 Zn77 2.020 . S
C74 O75 1.244 . S
C74 O98 1.257 . S
O75 C74 1.244 . S
O76 Zn68 2.019 . S
O76 C96 1.257 . S
Zn77 N73 2.020 . S
Zn77 O84 1.975 . S
Zn77 N93 2.119 . S
Zn77 O98 2.019 . S
N78 Zn68 2.119 . S
N78 C80 1.334 . S
N78 C81 1.328 . S
C79 C80 1.391 . S
C79 N82 1.329 . S
C79 H100 0.930 . S
C80 N78 1.334 . S
C80 C79 1.391 . S
C80 H87 0.930 . S
C81 N78 1.328 . S
C81 C83 1.392 . S
C81 H88 0.930 . S
N82 C79 1.329 . S
N82 C83 1.331 . S
C83 C81 1.392 . S
C83 N82 1.331 . S
O84 Zn77 1.975 . S
O84 C85 1.252 . S
C85 O84 1.252 . S
C85 O86 1.252 . S
O86 Zn68 1.975 . S
O86 C85 1.252 . S
H87 C80 0.930 . S
H88 C81 0.930 . S
C89 C90 1.392 . S
C89 N93 1.328 . S
C89 H95 0.930 . S
C90 C89 1.392 . S
C90 N94 1.331 . S
C91 C92 1.391 . S
C91 N94 1.329 . S
C91 H101 0.930 . S
C92 C91 1.391 . S
C92 N93 1.334 . S
C92 H99 0.930 . S
N93 Zn77 2.119 . S
N93 C89 1.328 . S
N93 C92 1.334 . S
N94 C90 1.331 . S
N94 C91 1.329 . S
H95 C89 0.930 . S
C96 O76 1.257 . S
C96 O97 1.244 . S
O97 C96 1.244 . S
O98 C74 1.257 . S
O98 Zn77 2.019 . S
H99 C92 0.930 . S
H100 C79 0.930 . S
H101 C91 0.930 . S
Zn102 N106 2.020 . S
Zn102 O110 2.019 . S
Zn102 N112 2.119 . S
Zn102 O120 1.975 . S
C103 N104 1.334 . S
C103 N107 1.336 . S
N104 C103 1.334 . S
N104 C105 1.334 . S
C105 N104 1.334 . S
C105 N106 1.336 . S
N106 Zn102 2.020 . S
N106 C105 1.336 . S
N106 N107 1.354 . S
N107 C103 1.336 . S
N107 N106 1.354 . S
N107 Zn111 2.020 . S
C108 O109 1.244 . S
C108 O132 1.257 . S
O109 C108 1.244 . S
O110 Zn102 2.019 . S
O110 C130 1.257 . S
Zn111 N107 2.020 . S
Zn111 O118 1.975 . S
Zn111 N127 2.119 . S
Zn111 O132 2.019 . S
N112 Zn102 2.119 . S
N112 C114 1.334 . S
N112 C115 1.328 . S
C113 C114 1.391 . S
C113 N116 1.329 . S
C113 H134 0.930 . S
C114 N112 1.334 . S
C114 C113 1.391 . S
C114 H121 0.930 . S
C115 N112 1.328 . S
C115 C117 1.392 . S
C115 H122 0.930 . S
N116 C113 1.329 . S
N116 C117 1.331 . S
C117 C115 1.392 . S
C117 N116 1.331 . S
O118 Zn111 1.975 . S
O118 C119 1.252 . S
C119 O118 1.252 . S
C119 O120 1.252 . S
O120 Zn102 1.975 . S
O120 C119 1.252 . S
H121 C114 0.930 . S
H122 C115 0.930 . S
C123 C124 1.392 . S
C123 N127 1.328 . S
C123 H129 0.930 . S
C124 C123 1.392 . S
C124 N128 1.331 . S
C125 C126 1.391 . S
C125 N128 1.329 . S
C125 H135 0.930 . S
C126 C125 1.391 . S
C126 N127 1.334 . S
C126 H133 0.930 . S
N127 Zn111 2.119 . S
N127 C123 1.328 . S
N127 C126 1.334 . S
N128 C124 1.331 . S
N128 C125 1.329 . S
H129 C123 0.930 . S
C130 O110 1.257 . S
C130 O131 1.244 . S
O131 C130 1.244 . S
O132 C108 1.257 . S
O132 Zn111 2.019 . S
H133 C126 0.930 . S
H134 C113 0.930 . S
H135 C125 0.930 . S
Zn136 N140 2.020 . S
Zn136 O144 2.019 . S
Zn136 N146 2.119 . S
Zn136 O154 1.975 . S
C137 N138 1.334 . S
C137 N141 1.336 . S
N138 C137 1.334 . S
N138 C139 1.334 . S
C139 N138 1.334 . S
C139 N140 1.336 . S
N140 Zn136 2.020 . S
N140 C139 1.336 . S
N140 N141 1.354 . S
N141 C137 1.336 . S
N141 N140 1.354 . S
N141 Zn145 2.020 . S
C142 O143 1.244 . S
C142 O166 1.257 . S
O143 C142 1.244 . S
O144 Zn136 2.019 . S
O144 C164 1.257 . S
Zn145 N141 2.020 . S
Zn145 O152 1.975 . S
Zn145 N161 2.119 . S
Zn145 O166 2.019 1_655 S
N146 Zn136 2.119 . S
N146 C148 1.334 . S
N146 C149 1.328 . S
C147 C148 1.391 . S
C147 N150 1.329 . S
C147 H168 0.930 . S
C148 N146 1.334 . S
C148 C147 1.391 . S
C148 H155 0.930 . S
C149 N146 1.328 . S
C149 C151 1.392 . S
C149 H156 0.930 . S
N150 C147 1.329 . S
N150 C151 1.331 . S
C151 C149 1.392 . S
C151 N150 1.331 . S
O152 Zn145 1.975 . S
O152 C153 1.252 . S
C153 O152 1.252 . S
C153 O154 1.252 . S
O154 Zn136 1.975 . S
O154 C153 1.252 . S
H155 C148 0.930 . S
H156 C149 0.930 . S
C157 C158 1.388 1_455 S
C157 N161 1.328 1_455 S
C157 H163 0.930 . S
C158 C157 1.388 1_655 S
C158 N162 1.343 . S
C159 C160 1.391 . S
C159 N162 1.329 . S
C159 H169 0.930 . S
C160 C159 1.391 . S
C160 N161 1.334 . S
C160 H167 0.930 . S
N161 Zn145 2.119 . S
N161 C157 1.328 1_655 S
N161 C160 1.334 . S
N162 C158 1.343 . S
N162 C159 1.329 . S
H163 C157 0.930 . S
C164 O144 1.257 . S
C164 O165 1.244 . S
O165 C164 1.244 . S
O166 C142 1.257 . S
O166 Zn145 2.019 1_455 S
H167 C160 0.930 . S
H168 C147 0.930 . S
H169 C159 0.930 . S
Zn170 N174 2.020 . S
Zn170 O178 2.019 . S
Zn170 N180 2.119 . S
Zn170 O188 1.975 . S
C171 N172 1.334 . S
C171 N175 1.336 . S
N172 C171 1.334 . S
N172 C173 1.334 . S
C173 N172 1.334 . S
C173 N174 1.336 . S
N174 Zn170 2.020 . S
N174 C173 1.336 . S
N174 N175 1.354 . S
N175 C171 1.336 . S
N175 N174 1.354 . S
N175 Zn179 2.020 . S
C176 O177 1.244 . S
C176 O200 1.257 . S
O177 C176 1.244 . S
O178 Zn170 2.019 . S
O178 C198 1.257 . S
Zn179 N175 2.020 . S
Zn179 O186 1.975 . S
Zn179 N195 2.119 . S
Zn179 O200 2.019 1_455 S
N180 Zn170 2.119 . S
N180 C182 1.334 . S
N180 C183 1.328 . S
C181 C182 1.391 . S
C181 N184 1.329 . S
C181 H202 0.930 . S
C182 N180 1.334 . S
C182 C181 1.391 . S
C182 H189 0.930 . S
C183 N180 1.328 . S
C183 C185 1.392 . S
C183 H190 0.930 . S
N184 C181 1.329 . S
N184 C185 1.331 . S
C185 C183 1.392 . S
C185 N184 1.331 . S
O186 Zn179 1.975 . S
O186 C187 1.252 . S
C187 O186 1.252 . S
C187 O188 1.252 . S
O188 Zn170 1.975 . S
O188 C187 1.252 . S
H189 C182 0.930 . S
H190 C183 0.930 . S
C191 C192 1.388 1_655 S
C191 N195 1.328 1_655 S
C191 H197 0.930 . S
C192 C191 1.388 1_455 S
C192 N196 1.343 . S
C193 C194 1.391 . S
C193 N196 1.329 . S
C193 H203 0.930 . S
C194 C193 1.391 . S
C194 N195 1.334 . S
C194 H201 0.930 . S
N195 Zn179 2.119 . S
N195 C191 1.328 1_455 S
N195 C194 1.334 . S
N196 C192 1.343 . S
N196 C193 1.329 . S
H197 C191 0.930 . S
C198 O178 1.257 . S
C198 O199 1.244 . S
O199 C198 1.244 . S
O200 C176 1.257 . S
O200 Zn179 2.019 1_655 S
H201 C194 0.930 . S
H202 C181 0.930 . S
H203 C193 0.930 . S
Zn204 N208 2.020 . S
Zn204 O212 2.019 1_455 S
Zn204 N214 2.119 . S
Zn204 O222 1.975 . S
C205 N206 1.334 . S
C205 N209 1.336 . S
N206 C205 1.334 . S
N206 C207 1.334 . S
C207 N206 1.334 . S
C207 N208 1.336 . S
N208 Zn204 2.020 . S
N208 C207 1.336 . S
N208 N209 1.354 . S
N209 C205 1.336 . S
N209 N208 1.354 . S
N209 Zn213 2.020 . S
C210 O211 1.244 . S
C210 O234 1.257 . S
O211 C210 1.244 . S
O212 Zn204 2.019 1_655 S
O212 C232 1.257 . S
Zn213 N209 2.020 . S
Zn213 O220 1.975 . S
Zn213 N229 2.119 . S
Zn213 O234 2.019 . S
N214 Zn204 2.119 . S
N214 C216 1.334 . S
N214 C217 1.328 1_455 S
C215 C216 1.391 . S
C215 N218 1.329 . S
C215 H236 0.930 . S
C216 N214 1.334 . S
C216 C215 1.391 . S
C216 H223 0.930 . S
C217 N214 1.328 1_655 S
C217 C219 1.388 1_655 S
C217 H224 0.930 . S
N218 C215 1.329 . S
N218 C219 1.343 . S
C219 C217 1.388 1_455 S
C219 N218 1.343 . S
O220 Zn213 1.975 . S
O220 C221 1.252 . S
C221 O220 1.252 . S
C221 O222 1.252 . S
O222 Zn204 1.975 . S
O222 C221 1.252 . S
H223 C216 0.930 . S
H224 C217 0.930 . S
C225 C226 1.392 . S
C225 N229 1.328 . S
C225 H231 0.930 . S
C226 C225 1.392 . S
C226 N230 1.331 . S
C227 C228 1.391 . S
C227 N230 1.329 . S
C227 H237 0.930 . S
C228 C227 1.391 . S
C228 N229 1.334 . S
C228 H235 0.930 . S
N229 Zn213 2.119 . S
N229 C225 1.328 . S
N229 C228 1.334 . S
N230 C226 1.331 . S
N230 C227 1.329 . S
H231 C225 0.930 . S
C232 O212 1.257 . S
C232 O233 1.244 . S
O233 C232 1.244 . S
O234 C210 1.257 . S
O234 Zn213 2.019 . S
H235 C228 0.930 . S
H236 C215 0.930 . S
H237 C227 0.930 . S
Zn238 N242 2.020 . S
Zn238 O246 2.019 . S
Zn238 N248 2.119 . S
Zn238 O256 1.975 . S
C239 N240 1.334 . S
C239 N243 1.336 . S
N240 C239 1.334 . S
N240 C241 1.334 . S
C241 N240 1.334 . S
C241 N242 1.336 . S
N242 Zn238 2.020 . S
N242 C241 1.336 . S
N242 N243 1.354 . S
N243 C239 1.336 . S
N243 N242 1.354 . S
N243 Zn247 2.020 . S
C244 O245 1.244 . S
C244 O268 1.257 . S
O245 C244 1.244 . S
O246 Zn238 2.019 . S
O246 C266 1.257 . S
Zn247 N243 2.020 . S
Zn247 O254 1.975 . S
Zn247 N263 2.119 . S
Zn247 O268 2.019 1_655 S
N248 Zn238 2.119 . S
N248 C250 1.334 . S
N248 C251 1.328 . S
C249 C250 1.391 . S
C249 N252 1.329 . S
C249 H270 0.930 . S
C250 N248 1.334 . S
C250 C249 1.391 . S
C250 H257 0.930 . S
C251 N248 1.328 . S
C251 C253 1.392 . S
C251 H258 0.930 . S
N252 C249 1.329 . S
N252 C253 1.331 . S
C253 C251 1.392 . S
C253 N252 1.331 . S
O254 Zn247 1.975 . S
O254 C255 1.252 . S
C255 O254 1.252 . S
C255 O256 1.252 . S
O256 Zn238 1.975 . S
O256 C255 1.252 . S
H257 C250 0.930 . S
H258 C251 0.930 . S
C259 C260 1.388 1_455 S
C259 N263 1.328 1_455 S
C259 H265 0.930 . S
C260 C259 1.388 1_655 S
C260 N264 1.343 . S
C261 C262 1.391 . S
C261 N264 1.329 . S
C261 H271 0.930 . S
C262 C261 1.391 . S
C262 N263 1.334 . S
C262 H269 0.930 . S
N263 Zn247 2.119 . S
N263 C259 1.328 1_655 S
N263 C262 1.334 . S
N264 C260 1.343 . S
N264 C261 1.329 . S
H265 C259 0.930 . S
C266 O246 1.257 . S
C266 O267 1.244 . S
O267 C266 1.244 . S
O268 C244 1.257 . S
O268 Zn247 2.019 1_455 S
H269 C262 0.930 . S
H270 C249 0.930 . S
H271 C261 0.930 . S
H272 C284 0.930 . S
H273 C286 0.930 . S
H274 C287 0.930 . S
H275 C291 0.959 . S
H276 C291 0.959 . S
H277 C291 0.961 . S
H278 C292 0.960 . S
H279 C292 0.961 . S
H280 C292 0.959 . S
H281 C295 0.929 . S
H282 C296 0.931 . S
H283 C298 0.930 . S
C284 H272 0.930 . S
C284 C285 1.399 . S
C284 C289 1.399 . S
C285 C284 1.399 . S
C285 C286 1.376 . S
C286 H273 0.930 . S
C286 C285 1.376 . S
C286 C287 1.388 . S
C287 H274 0.930 . S
C287 C286 1.388 . S
C287 C288 1.390 . S
C288 C287 1.390 . S
C288 C289 1.394 . S
C288 C294 1.465 . S
C289 C284 1.399 . S
C289 C288 1.394 . S
C289 C290 1.516 . S
C290 C289 1.516 . S
C290 C291 1.502 . S
C290 C292 1.561 . S
C290 C293 1.526 . S
C291 H275 0.959 . S
C291 H276 0.959 . S
C291 H277 0.961 . S
C291 C290 1.502 . S
C292 H278 0.960 . S
C292 H279 0.961 . S
C292 H280 0.959 . S
C292 C290 1.561 . S
C293 C290 1.526 . S
C293 C294 1.396 . S
C293 C298 1.390 . S
C294 C288 1.465 . S
C294 C293 1.396 . S
C294 C295 1.399 . S
C295 H281 0.929 . S
C295 C294 1.399 . S
C295 C296 1.385 . S
C296 H282 0.931 . S
C296 C295 1.385 . S
C296 C297 1.389 . S
C297 C296 1.389 . S
C297 C298 1.387 . S
C298 H283 0.930 . S
C298 C293 1.390 . S
C298 C297 1.387 . S
H299 C311 0.930 . S
H300 C313 0.930 . S
H301 C314 0.930 . S
H302 C318 0.959 . S
H303 C318 0.959 . S
H304 C318 0.961 . S
H305 C319 0.960 . S
H306 C319 0.961 . S
H307 C319 0.959 . S
H308 C322 0.929 . S
H309 C323 0.931 . S
H310 C325 0.930 . S
C311 H299 0.930 . S
C311 C312 1.399 . S
C311 C316 1.399 . S
C312 C311 1.399 . S
C312 C313 1.376 . S
C313 H300 0.930 . S
C313 C312 1.376 . S
C313 C314 1.388 . S
C314 H301 0.930 . S
C314 C313 1.388 . S
C314 C315 1.390 . S
C315 C314 1.390 . S
C315 C316 1.394 . S
C315 C321 1.465 . S
C316 C311 1.399 . S
C316 C315 1.394 . S
C316 C317 1.516 . S
C317 C316 1.516 . S
C317 C318 1.502 . S
C317 C319 1.561 . S
C317 C320 1.526 . S
C318 H302 0.959 . S
C318 H303 0.959 . S
C318 H304 0.961 . S
C318 C317 1.502 . S
C319 H305 0.960 . S
C319 H306 0.961 . S
C319 H307 0.959 . S
C319 C317 1.561 . S
C320 C317 1.526 . S
C320 C321 1.396 . S
C320 C325 1.390 . S
C321 C315 1.465 . S
C321 C320 1.396 . S
C321 C322 1.399 . S
C322 H308 0.929 . S
C322 C321 1.399 . S
C322 C323 1.385 . S
C323 H309 0.931 . S
C323 C322 1.385 . S
C323 C324 1.389 . S
C324 C323 1.389 . S
C324 C325 1.387 . S
C325 H310 0.930 . S
C325 C320 1.390 . S
C325 C324 1.387 . S
H326 C338 0.930 . S
H327 C340 0.930 . S
H328 C341 0.930 . S
H329 C345 0.959 . S
H330 C345 0.959 1_554 S
H331 C345 0.961 . S
H332 C346 0.960 1_556 S
H333 C346 0.961 . S
H334 C346 0.959 . S
H335 C349 0.929 . S
H336 C350 0.931 . S
H337 C352 0.930 1_655 S
C338 H326 0.930 . S
C338 C339 1.399 . S
C338 C343 1.399 . S
C339 C338 1.399 . S
C339 C340 1.376 1_655 S
C340 H327 0.930 . S
C340 C339 1.376 1_455 S
C340 C341 1.388 . S
C341 H328 0.930 . S
C341 C340 1.388 . S
C341 C342 1.390 . S
C342 C341 1.390 . S
C342 C343 1.394 1_455 S
C342 C348 1.465 1_556 S
C343 C338 1.399 . S
C343 C342 1.394 1_655 S
C343 C344 1.516 . S
C344 C343 1.516 . S
C344 C345 1.502 . S
C344 C346 1.561 1_656 S
C344 C347 1.526 1_556 S
C345 H329 0.959 . S
C345 H330 0.959 1_556 S
C345 H331 0.961 . S
C345 C344 1.502 . S
C346 H332 0.960 1_554 S
C346 H333 0.961 . S
C346 H334 0.959 . S
C346 C344 1.561 1_454 S
C347 C344 1.526 1_554 S
C347 C348 1.393 1_655 S
C347 C352 1.391 1_655 S
C348 C342 1.465 1_554 S
C348 C347 1.393 1_455 S
C348 C349 1.399 . S
C349 H335 0.929 . S
C349 C348 1.399 . S
C349 C350 1.385 . S
C350 H336 0.931 . S
C350 C349 1.385 . S
C350 C351 1.389 . S
C351 C350 1.389 . S
C351 C352 1.387 . S
C352 H337 0.930 1_455 S
C352 C347 1.391 1_455 S
C352 C351 1.387 . S
H353 C365 0.930 . S
H354 C367 0.930 . S
H355 C368 0.930 . S
H356 C372 0.959 . S
H357 C372 0.959 1_554 S
H358 C372 0.961 . S
H359 C373 0.960 . S
H360 C373 0.961 1_554 S
H361 C373 0.971 1_554 S
H362 C376 0.929 . S
H363 C377 0.931 . S
H364 C379 0.930 . S
C365 H353 0.930 . S
C365 C366 1.399 . S
C365 C370 1.399 . S
C366 C365 1.399 . S
C366 C367 1.376 1_655 S
C367 H354 0.930 . S
C367 C366 1.376 1_455 S
C367 C368 1.388 . S
C368 H355 0.930 . S
C368 C367 1.388 . S
C368 C369 1.390 . S
C369 C368 1.390 . S
C369 C370 1.394 1_455 S
C369 C375 1.465 1_556 S
C370 C365 1.399 . S
C370 C369 1.394 1_655 S
C370 C371 1.516 . S
C371 C370 1.516 . S
C371 C372 1.502 . S
C371 C373 1.561 . S
C371 C374 1.526 1_556 S
C372 H356 0.959 . S
C372 H357 0.959 1_556 S
C372 H358 0.961 . S
C372 C371 1.502 . S
C373 H359 0.960 . S
C373 H360 0.961 1_556 S
C373 H361 0.971 1_556 S
C373 C371 1.561 . S
C374 C371 1.526 1_554 S
C374 C375 1.396 1_655 S
C374 C379 1.390 . S
C375 C369 1.465 1_554 S
C375 C374 1.396 1_455 S
C375 C376 1.399 . S
C376 H362 0.929 . S
C376 C375 1.399 . S
C376 C377 1.385 . S
C377 H363 0.931 . S
C377 C376 1.385 . S
C377 C378 1.389 . S
C378 C377 1.389 . S
C378 C379 1.387 1_455 S
C379 H364 0.930 . S
C379 C374 1.390 . S
C379 C378 1.387 1_655 S
H380 C392 0.930 . S
H381 C394 0.930 . S
H382 C395 0.930 . S
H383 C399 0.962 . S
H384 C399 0.977 . S
H385 C399 0.941 1_565 S
H386 C400 0.960 1_565 S
H387 C400 0.961 . S
H388 C400 0.959 . S
H389 C403 0.929 . S
H390 C404 0.931 . S
H391 C406 0.930 . S
C392 H380 0.930 . S
C392 C393 1.399 . S
C392 C397 1.399 . S
C393 C392 1.399 . S
C393 C394 1.376 . S
C394 H381 0.930 . S
C394 C393 1.376 . S
C394 C395 1.388 . S
C395 H382 0.930 . S
C395 C394 1.388 . S
C395 C396 1.390 . S
C396 C395 1.390 . S
C396 C397 1.394 . S
C396 C402 1.465 1_565 S
C397 C392 1.399 . S
C397 C396 1.394 . S
C397 C398 1.519 1_565 S
C398 C397 1.519 1_545 S
C398 C399 1.502 . S
C398 C400 1.561 . S
C398 C401 1.523 . S
C399 H383 0.962 . S
C399 H384 0.977 . S
C399 H385 0.941 1_545 S
C399 C398 1.502 . S
C400 H386 0.960 1_545 S
C400 H387 0.961 . S
C400 H388 0.959 . S
C400 C398 1.561 . S
C401 C398 1.523 . S
C401 C402 1.396 . S
C401 C406 1.390 . S
C402 C396 1.465 1_545 S
C402 C401 1.396 . S
C402 C403 1.399 . S
C403 H389 0.929 . S
C403 C402 1.399 . S
C403 C404 1.385 . S
C404 H390 0.931 . S
C404 C403 1.385 . S
C404 C405 1.389 . S
C405 C404 1.389 . S
C405 C406 1.387 . S
C406 H391 0.930 . S
C406 C401 1.390 . S
C406 C405 1.387 . S
H407 C419 0.930 . S
H408 C421 0.930 . S
H409 C422 0.930 . S
H410 C426 0.962 . S
H411 C426 0.977 . S
H412 C426 0.941 1_565 S
H413 C427 0.960 1_565 S
H414 C427 0.961 . S
H415 C427 0.959 . S
H416 C430 0.929 . S
H417 C431 0.931 . S
H418 C433 0.930 . S
C419 H407 0.930 . S
C419 C420 1.399 . S
C419 C424 1.399 . S
C420 C419 1.399 . S
C420 C421 1.376 . S
C421 H408 0.930 . S
C421 C420 1.376 . S
C421 C422 1.388 . S
C422 H409 0.930 . S
C422 C421 1.388 . S
C422 C423 1.390 . S
C423 C422 1.390 . S
C423 C424 1.394 . S
C423 C429 1.465 1_565 S
C424 C419 1.399 . S
C424 C423 1.394 . S
C424 C425 1.519 1_565 S
C425 C424 1.519 1_545 S
C425 C426 1.502 . S
C425 C427 1.561 . S
C425 C428 1.523 . S
C426 H410 0.962 . S
C426 H411 0.977 . S
C426 H412 0.941 1_545 S
C426 C425 1.502 . S
C427 H413 0.960 1_545 S
C427 H414 0.961 . S
C427 H415 0.959 . S
C427 C425 1.561 . S
C428 C425 1.523 . S
C428 C429 1.396 . S
C428 C433 1.390 . S
C429 C423 1.465 1_545 S
C429 C428 1.396 . S
C429 C430 1.399 . S
C430 H416 0.929 . S
C430 C429 1.399 . S
C430 C431 1.385 . S
C431 H417 0.931 . S
C431 C430 1.385 . S
C431 C432 1.389 . S
C432 C431 1.389 . S
C432 C433 1.387 . S
C433 H418 0.930 . S
C433 C428 1.390 . S
C433 C432 1.387 . S
H434 C446 0.930 1_655 S
H435 C448 0.930 . S
H436 C449 0.930 . S
H437 C453 0.959 . S
H438 C453 0.959 . S
H439 C453 0.961 . S
H440 C454 0.960 . S
H441 C454 0.961 . S
H442 C454 0.959 . S
H443 C457 0.929 . S
H444 C458 0.931 . S
H445 C460 0.930 1_655 S
C446 H434 0.930 1_455 S
C446 C447 1.399 . S
C446 C451 1.399 . S
C447 C446 1.399 . S
C447 C448 1.376 . S
C448 H435 0.930 . S
C448 C447 1.376 . S
C448 C449 1.388 . S
C449 H436 0.930 . S
C449 C448 1.388 . S
C449 C450 1.390 . S
C450 C449 1.390 . S
C450 C451 1.394 . S
C450 C456 1.465 . S
C451 C446 1.399 . S
C451 C450 1.394 . S
C451 C452 1.516 1_455 S
C452 C451 1.516 1_655 S
C452 C453 1.502 . S
C452 C454 1.561 1_655 S
C452 C455 1.526 1_655 S
C453 H437 0.959 . S
C453 H438 0.959 . S
C453 H439 0.961 . S
C453 C452 1.502 . S
C454 H440 0.960 . S
C454 H441 0.961 . S
C454 H442 0.959 . S
C454 C452 1.561 1_455 S
C455 C452 1.526 1_455 S
C455 C456 1.396 . S
C455 C460 1.390 . S
C456 C450 1.465 . S
C456 C455 1.396 . S
C456 C457 1.399 . S
C457 H443 0.929 . S
C457 C456 1.399 . S
C457 C458 1.385 . S
C458 H444 0.931 . S
C458 C457 1.385 . S
C458 C459 1.389 . S
C459 C458 1.389 . S
C459 C460 1.387 . S
C460 H445 0.930 1_455 S
C460 C455 1.390 . S
C460 C459 1.387 . S
H461 C473 0.930 . S
H462 C475 0.930 . S
H463 C476 0.930 . S
H464 C480 0.959 . S
H465 C480 0.959 . S
H466 C480 0.961 . S
H467 C481 0.960 . S
H468 C481 0.961 . S
H469 C481 0.959 1_455 S
H470 C484 0.929 . S
H471 C485 0.931 . S
H472 C487 0.930 . S
C473 H461 0.930 . S
C473 C474 1.399 . S
C473 C478 1.399 . S
C474 C473 1.399 . S
C474 C475 1.376 1_655 S
C475 H462 0.930 . S
C475 C474 1.376 1_455 S
C475 C476 1.388 . S
C476 H463 0.930 . S
C476 C475 1.388 . S
C476 C477 1.390 1_455 S
C477 C476 1.390 1_655 S
C477 C478 1.394 . S
C477 C483 1.465 . S
C478 C473 1.399 . S
C478 C477 1.394 . S
C478 C479 1.516 . S
C479 C478 1.516 . S
C479 C480 1.502 . S
C479 C481 1.561 . S
C479 C482 1.526 . S
C480 H464 0.959 . S
C480 H465 0.959 . S
C480 H466 0.961 . S
C480 C479 1.502 . S
C481 H467 0.960 . S
C481 H468 0.961 . S
C481 H469 0.959 1_655 S
C481 C479 1.561 . S
C482 C479 1.526 . S
C482 C483 1.396 . S
C482 C487 1.390 . S
C483 C477 1.465 . S
C483 C482 1.396 . S
C483 C484 1.399 1_655 S
C484 H470 0.929 . S
C484 C483 1.399 1_455 S
C484 C485 1.385 . S
C485 H471 0.931 . S
C485 C484 1.385 . S
C485 C486 1.389 1_455 S
C486 C485 1.389 1_655 S
C486 C487 1.387 . S
C487 H472 0.930 . S
C487 C482 1.390 . S
C487 C486 1.387 . S
H488 C500 0.930 . S
H489 C502 0.930 . S
H490 C503 0.930 . S
H491 C507 0.959 1_456 S
H492 C507 0.959 1_455 S
H493 C507 0.961 . S
H494 C508 0.960 . S
H495 C508 0.961 . S
H496 C508 0.959 . S
H497 C511 0.929 . S
H498 C512 0.931 . S
H499 C514 0.930 . S
C500 H488 0.930 . S
C500 C501 1.399 . S
C500 C505 1.399 . S
C501 C500 1.399 . S
C501 C502 1.376 . S
C502 H489 0.930 . S
C502 C501 1.376 . S
C502 C503 1.388 . S
C503 H490 0.930 . S
C503 C502 1.388 . S
C503 C504 1.390 . S
C504 C503 1.390 . S
C504 C505 1.394 . S
C504 C510 1.465 1_656 S
C505 C500 1.399 . S
C505 C504 1.394 . S
C505 C506 1.516 1_556 S
C506 C505 1.516 1_554 S
C506 C507 1.502 . S
C506 C508 1.561 . S
C506 C509 1.526 1_655 S
C507 H491 0.959 1_654 S
C507 H492 0.959 1_655 S
C507 H493 0.961 . S
C507 C506 1.502 . S
C508 H494 0.960 . S
C508 H495 0.961 . S
C508 H496 0.959 . S
C508 C506 1.561 . S
C509 C506 1.526 1_455 S
C509 C510 1.396 . S
C509 C514 1.390 . S
C510 C504 1.465 1_454 S
C510 C509 1.396 . S
C510 C511 1.399 . S
C511 H497 0.929 . S
C511 C510 1.399 . S
C511 C512 1.385 . S
C512 H498 0.931 . S
C512 C511 1.385 . S
C512 C513 1.389 . S
C513 C512 1.389 . S
C513 C514 1.387 . S
C514 H499 0.930 . S
C514 C509 1.390 . S
C514 C513 1.387 . S
H515 C527 0.930 . S
H516 C529 0.930 . S
H517 C530 0.930 . S
H518 C534 0.959 . S
H519 C534 0.959 1_655 S
H520 C534 0.961 . S
H521 C535 0.960 1_455 S
H522 C535 0.961 . S
H523 C535 0.959 . S
H524 C538 0.929 . S
H525 C539 0.931 . S
H526 C541 0.930 . S
C527 H515 0.930 . S
C527 C528 1.399 . S
C527 C532 1.399 . S
C528 C527 1.399 . S
C528 C529 1.376 . S
C529 H516 0.930 . S
C529 C528 1.376 . S
C529 C530 1.388 . S
C530 H517 0.930 . S
C530 C529 1.388 . S
C530 C531 1.390 . S
C531 C530 1.390 . S
C531 C532 1.394 . S
C531 C537 1.465 1_454 S
C532 C527 1.399 . S
C532 C531 1.394 . S
C532 C533 1.516 1_554 S
C533 C532 1.516 1_556 S
C533 C534 1.502 . S
C533 C535 1.561 1_456 S
C533 C536 1.526 1_455 S
C534 H518 0.959 . S
C534 H519 0.959 1_455 S
C534 H520 0.961 . S
C534 C533 1.502 . S
C535 H521 0.960 1_655 S
C535 H522 0.961 . S
C535 H523 0.959 . S
C535 C533 1.561 1_654 S
C536 C533 1.526 1_655 S
C536 C537 1.396 . S
C536 C541 1.390 . S
C537 C531 1.465 1_656 S
C537 C536 1.396 . S
C537 C538 1.399 . S
C538 H524 0.929 . S
C538 C537 1.399 . S
C538 C539 1.385 . S
C539 H525 0.931 . S
C539 C538 1.385 . S
C539 C540 1.389 . S
C540 C539 1.389 . S
C540 C541 1.387 . S
C541 H526 0.930 . S
C541 C536 1.390 . S
C541 C540 1.387 . S
H542 C554 0.930 . S
H543 C556 0.930 . S
H544 C557 0.930 . S
H545 C561 0.959 . S
H546 C561 0.959 . S
H547 C561 0.961 . S
H548 C562 0.960 . S
H549 C562 0.961 . S
H550 C562 0.959 . S
H551 C565 0.929 . S
H552 C566 0.931 . S
H553 C568 0.930 . S
C554 H542 0.930 . S
C554 C555 1.399 . S
C554 C559 1.399 . S
C555 C554 1.399 . S
C555 C556 1.376 . S
C556 H543 0.930 . S
C556 C555 1.376 . S
C556 C557 1.388 . S
C557 H544 0.930 . S
C557 C556 1.388 . S
C557 C558 1.390 . S
C558 C557 1.390 . S
C558 C559 1.394 . S
C558 C564 1.465 . S
C559 C554 1.399 . S
C559 C558 1.394 . S
C559 C560 1.516 . S
C560 C559 1.516 . S
C560 C561 1.502 . S
C560 C562 1.561 . S
C560 C563 1.526 . S
C561 H545 0.959 . S
C561 H546 0.959 . S
C561 H547 0.961 . S
C561 C560 1.502 . S
C562 H548 0.960 . S
C562 H549 0.961 . S
C562 H550 0.959 . S
C562 C560 1.561 . S
C563 C560 1.526 . S
C563 C564 1.396 . S
C563 C568 1.390 . S
C564 C558 1.465 . S
C564 C563 1.396 . S
C564 C565 1.399 . S
C565 H551 0.929 . S
C565 C564 1.399 . S
C565 C566 1.385 . S
C566 H552 0.931 . S
C566 C565 1.385 . S
C566 C567 1.389 . S
C567 C566 1.389 . S
C567 C568 1.387 . S
C568 H553 0.930 . S
C568 C563 1.390 . S
C568 C567 1.387 . S
H569 C581 0.930 . S
H570 C583 0.930 . S
H571 C584 0.930 . S
H572 C588 0.959 . S
H573 C588 0.959 . S
H574 C588 0.961 . S
H575 C589 0.960 . S
H576 C589 0.961 . S
H577 C589 0.959 . S
H578 C592 0.929 . S
H579 C593 0.931 . S
H580 C595 0.930 . S
C581 H569 0.930 . S
C581 C582 1.399 . S
C581 C586 1.399 . S
C582 C581 1.399 . S
C582 C583 1.376 . S
C583 H570 0.930 . S
C583 C582 1.376 . S
C583 C584 1.388 . S
C584 H571 0.930 . S
C584 C583 1.388 . S
C584 C585 1.390 . S
C585 C584 1.390 . S
C585 C586 1.394 . S
C585 C591 1.465 . S
C586 C581 1.399 . S
C586 C585 1.394 . S
C586 C587 1.516 . S
C587 C586 1.516 . S
C587 C588 1.502 . S
C587 C589 1.561 . S
C587 C590 1.526 . S
C588 H572 0.959 . S
C588 H573 0.959 . S
C588 H574 0.961 . S
C588 C587 1.502 . S
C589 H575 0.960 . S
C589 H576 0.961 . S
C589 H577 0.959 . S
C589 C587 1.561 . S
C590 C587 1.526 . S
C590 C591 1.396 . S
C590 C595 1.390 . S
C591 C585 1.465 . S
C591 C590 1.396 . S
C591 C592 1.399 . S
C592 H578 0.929 . S
C592 C591 1.399 . S
C592 C593 1.385 . S
C593 H579 0.931 . S
C593 C592 1.385 . S
C593 C594 1.389 . S
C594 C593 1.389 . S
C594 C595 1.387 . S
C595 H580 0.930 . S
C595 C590 1.390 . S
C595 C594 1.387 . S
H596 C608 0.930 . S
H597 C610 0.930 . S
H598 C611 0.930 . S
H599 C615 0.959 . S
H600 C615 0.959 . S
H601 C615 0.961 . S
H602 C616 0.960 1_556 S
H603 C616 0.961 . S
H604 C616 0.959 . S
H605 C619 0.929 . S
H606 C620 0.931 . S
H607 C622 0.930 . S
C608 H596 0.930 . S
C608 C609 1.399 . S
C608 C613 1.399 . S
C609 C608 1.399 . S
C609 C610 1.376 . S
C610 H597 0.930 . S
C610 C609 1.376 . S
C610 C611 1.388 . S
C611 H598 0.930 . S
C611 C610 1.388 . S
C611 C612 1.390 . S
C612 C611 1.390 . S
C612 C613 1.394 . S
C612 C618 1.465 1_556 S
C613 C608 1.399 . S
C613 C612 1.394 . S
C613 C614 1.516 . S
C614 C613 1.516 . S
C614 C615 1.502 . S
C614 C616 1.561 1_556 S
C614 C617 1.526 1_556 S
C615 H599 0.959 . S
C615 H600 0.959 . S
C615 H601 0.961 . S
C615 C614 1.502 . S
C616 H602 0.960 1_554 S
C616 H603 0.961 . S
C616 H604 0.959 . S
C616 C614 1.561 1_554 S
C617 C614 1.526 1_554 S
C617 C618 1.396 . S
C617 C622 1.390 . S
C618 C612 1.465 1_554 S
C618 C617 1.396 . S
C618 C619 1.399 . S
C619 H605 0.929 . S
C619 C618 1.399 . S
C619 C620 1.385 . S
C620 H606 0.931 . S
C620 C619 1.385 . S
C620 C621 1.389 . S
C621 C620 1.389 . S
C621 C622 1.387 . S
C622 H607 0.930 . S
C622 C617 1.390 . S
C622 C621 1.387 . S
H623 C635 0.930 . S
H624 C637 0.930 . S
H625 C638 0.930 . S
H626 C642 0.959 . S
H627 C642 0.959 . S
H628 C642 0.961 . S
H629 C643 0.960 1_556 S
H630 C643 0.961 . S
H631 C643 0.959 . S
H632 C646 0.929 . S
H633 C647 0.931 . S
H634 C649 0.930 . S
C635 H623 0.930 . S
C635 C636 1.399 . S
C635 C640 1.399 . S
C636 C635 1.399 . S
C636 C637 1.376 . S
C637 H624 0.930 . S
C637 C636 1.376 . S
C637 C638 1.388 . S
C638 H625 0.930 . S
C638 C637 1.388 . S
C638 C639 1.390 . S
C639 C638 1.390 . S
C639 C640 1.394 . S
C639 C645 1.465 1_556 S
C640 C635 1.399 . S
C640 C639 1.394 . S
C640 C641 1.516 . S
C641 C640 1.516 . S
C641 C642 1.502 . S
C641 C643 1.561 1_556 S
C641 C644 1.526 1_556 S
C642 H626 0.959 . S
C642 H627 0.959 . S
C642 H628 0.961 . S
C642 C641 1.502 . S
C643 H629 0.960 1_554 S
C643 H630 0.961 . S
C643 H631 0.959 . S
C643 C641 1.561 1_554 S
C644 C641 1.526 1_554 S
C644 C645 1.396 . S
C644 C649 1.390 . S
C645 C639 1.465 1_554 S
C645 C644 1.396 . S
C645 C646 1.399 . S
C646 H632 0.929 . S
C646 C645 1.399 . S
C646 C647 1.385 . S
C647 H633 0.931 . S
C647 C646 1.385 . S
C647 C648 1.389 . S
C648 C647 1.389 . S
C648 C649 1.387 . S
C649 H634 0.930 . S
C649 C644 1.390 . S
C649 C648 1.387 . S
H650 C662 0.930 . S
H651 C664 0.930 . S
H652 C665 0.930 . S
H653 C669 0.959 . S
H654 C669 0.959 . S
H655 C669 0.961 . S
H656 C670 0.960 . S
H657 C670 0.961 . S
H658 C670 0.959 . S
H659 C673 0.929 . S
H660 C674 0.931 . S
H661 C676 0.930 . S
C662 H650 0.930 . S
C662 C663 1.399 . S
C662 C667 1.399 . S
C663 C662 1.399 . S
C663 C664 1.376 . S
C664 H651 0.930 . S
C664 C663 1.376 . S
C664 C665 1.388 1_455 S
C665 H652 0.930 . S
C665 C664 1.388 1_655 S
C665 C666 1.390 . S
C666 C665 1.390 . S
C666 C667 1.394 1_655 S
C666 C672 1.465 . S
C667 C662 1.399 . S
C667 C666 1.394 1_455 S
C667 C668 1.516 . S
C668 C667 1.516 . S
C668 C669 1.502 . S
C668 C670 1.561 1_455 S
C668 C671 1.526 1_455 S
C669 H653 0.959 . S
C669 H654 0.959 . S
C669 H655 0.961 . S
C669 C668 1.502 . S
C670 H656 0.960 . S
C670 H657 0.961 . S
C670 H658 0.959 . S
C670 C668 1.561 1_655 S
C671 C668 1.526 1_655 S
C671 C672 1.396 . S
C671 C676 1.390 . S
C672 C666 1.465 . S
C672 C671 1.396 . S
C672 C673 1.399 . S
C673 H659 0.929 . S
C673 C672 1.399 . S
C673 C674 1.385 . S
C674 H660 0.931 . S
C674 C673 1.385 . S
C674 C675 1.389 . S
C675 C674 1.389 . S
C675 C676 1.387 . S
C676 H661 0.930 . S
C676 C671 1.390 . S
C676 C675 1.387 . S
H677 C689 0.930 . S
H678 C691 0.930 . S
H679 C692 0.930 . S
H680 C696 0.959 . S
H681 C696 0.959 . S
H682 C696 0.961 . S
H683 C697 0.960 . S
H684 C697 0.961 . S
H685 C697 0.959 . S
H686 C700 0.929 . S
H687 C701 0.931 . S
H688 C703 0.930 . S
C689 H677 0.930 . S
C689 C690 1.399 . S
C689 C694 1.399 . S
C690 C689 1.399 . S
C690 C691 1.376 . S
C691 H678 0.930 . S
C691 C690 1.376 . S
C691 C692 1.388 1_455 S
C692 H679 0.930 . S
C692 C691 1.388 1_655 S
C692 C693 1.390 . S
C693 C692 1.390 . S
C693 C694 1.394 1_655 S
C693 C699 1.465 . S
C694 C689 1.399 . S
C694 C693 1.394 1_455 S
C694 C695 1.516 . S
C695 C694 1.516 . S
C695 C696 1.502 . S
C695 C697 1.561 1_455 S
C695 C698 1.526 1_455 S
C696 H680 0.959 . S
C696 H681 0.959 . S
C696 H682 0.961 . S
C696 C695 1.502 . S
C697 H683 0.960 . S
C697 H684 0.961 . S
C697 H685 0.959 . S
C697 C695 1.561 1_655 S
C698 C695 1.526 1_655 S
C698 C699 1.396 . S
C698 C703 1.390 . S
C699 C693 1.465 . S
C699 C698 1.396 . S
C699 C700 1.399 . S
C700 H686 0.929 . S
C700 C699 1.399 . S
C700 C701 1.385 . S
C701 H687 0.931 . S
C701 C700 1.385 . S
C701 C702 1.389 . S
C702 C701 1.389 . S
C702 C703 1.387 . S
C703 H688 0.930 . S
C703 C698 1.390 . S
C703 C702 1.387 . S
H704 C716 0.930 . S
H705 C718 0.930 . S
H706 C719 0.930 . S
H707 C723 0.959 . S
H708 C723 0.959 . S
H709 C723 0.961 . S
H710 C724 0.960 . S
H711 C724 0.961 . S
H712 C724 0.959 . S
H713 C727 0.929 . S
H714 C728 0.931 . S
H715 C730 0.930 . S
C716 H704 0.930 . S
C716 C717 1.399 . S
C716 C721 1.399 . S
C717 C716 1.399 . S
C717 C718 1.376 . S
C718 H705 0.930 . S
C718 C717 1.376 . S
C718 C719 1.388 . S
C719 H706 0.930 . S
C719 C718 1.388 . S
C719 C720 1.390 . S
C720 C719 1.390 . S
C720 C721 1.394 . S
C720 C726 1.465 . S
C721 C716 1.399 . S
C721 C720 1.394 . S
C721 C722 1.516 . S
C722 C721 1.516 . S
C722 C723 1.502 . S
C722 C724 1.561 . S
C722 C725 1.526 . S
C723 H707 0.959 . S
C723 H708 0.959 . S
C723 H709 0.961 . S
C723 C722 1.502 . S
C724 H710 0.960 . S
C724 H711 0.961 . S
C724 H712 0.959 . S
C724 C722 1.561 . S
C725 C722 1.526 . S
C725 C726 1.396 . S
C725 C730 1.390 . S
C726 C720 1.465 . S
C726 C725 1.396 . S
C726 C727 1.399 . S
C727 H713 0.929 . S
C727 C726 1.399 . S
C727 C728 1.385 . S
C728 H714 0.931 . S
C728 C727 1.385 . S
C728 C729 1.389 . S
C729 C728 1.389 . S
C729 C730 1.387 . S
C730 H715 0.930 . S
C730 C725 1.390 . S
C730 C729 1.387 . S
H731 C743 0.930 . S
H732 C745 0.930 . S
H733 C746 0.930 . S
H734 C750 0.959 . S
H735 C750 0.959 . S
H736 C750 0.961 . S
H737 C751 0.960 . S
H738 C751 0.961 . S
H739 C751 0.959 . S
H740 C754 0.929 . S
H741 C755 0.931 . S
H742 C757 0.930 . S
C743 H731 0.930 . S
C743 C744 1.399 . S
C743 C748 1.399 . S
C744 C743 1.399 . S
C744 C745 1.376 . S
C745 H732 0.930 . S
C745 C744 1.376 . S
C745 C746 1.388 . S
C746 H733 0.930 . S
C746 C745 1.388 . S
C746 C747 1.390 . S
C747 C746 1.390 . S
C747 C748 1.394 . S
C747 C753 1.465 . S
C748 C743 1.399 . S
C748 C747 1.394 . S
C748 C749 1.516 . S
C749 C748 1.516 . S
C749 C750 1.502 . S
C749 C751 1.561 . S
C749 C752 1.526 . S
C750 H734 0.959 . S
C750 H735 0.959 . S
C750 H736 0.961 . S
C750 C749 1.502 . S
C751 H737 0.960 . S
C751 H738 0.961 . S
C751 H739 0.959 . S
C751 C749 1.561 . S
C752 C749 1.526 . S
C752 C753 1.396 . S
C752 C757 1.390 . S
C753 C747 1.465 . S
C753 C752 1.396 . S
C753 C754 1.399 . S
C754 H740 0.929 . S
C754 C753 1.399 . S
C754 C755 1.385 . S
C755 H741 0.931 . S
C755 C754 1.385 . S
C755 C756 1.389 . S
C756 C755 1.389 . S
C756 C757 1.387 . S
C757 H742 0.930 . S
C757 C752 1.390 . S
C757 C756 1.387 . S
H758 C770 0.930 . S
H759 C772 0.930 . S
H760 C773 0.930 . S
H761 C777 0.959 . S
H762 C777 0.959 . S
H763 C777 0.961 . S
H764 C778 0.960 . S
H765 C778 0.961 . S
H766 C778 0.959 . S
H767 C781 0.929 . S
H768 C782 0.931 . S
H769 C784 0.930 . S
C770 H758 0.930 . S
C770 C771 1.399 . S
C770 C775 1.399 . S
C771 C770 1.399 . S
C771 C772 1.376 . S
C772 H759 0.930 . S
C772 C771 1.376 . S
C772 C773 1.388 . S
C773 H760 0.930 . S
C773 C772 1.388 . S
C773 C774 1.390 . S
C774 C773 1.390 . S
C774 C775 1.394 . S
C774 C780 1.465 . S
C775 C770 1.399 . S
C775 C774 1.394 . S
C775 C776 1.516 . S
C776 C775 1.516 . S
C776 C777 1.502 . S
C776 C778 1.561 . S
C776 C779 1.526 . S
C777 H761 0.959 . S
C777 H762 0.959 . S
C777 H763 0.961 . S
C777 C776 1.502 . S
C778 H764 0.960 . S
C778 H765 0.961 . S
C778 H766 0.959 . S
C778 C776 1.561 . S
C779 C776 1.526 . S
C779 C780 1.396 . S
C779 C784 1.390 . S
C780 C774 1.465 . S
C780 C779 1.396 . S
C780 C781 1.399 . S
C781 H767 0.929 . S
C781 C780 1.399 . S
C781 C782 1.385 . S
C782 H768 0.931 . S
C782 C781 1.385 . S
C782 C783 1.389 . S
C783 C782 1.389 . S
C783 C784 1.387 . S
C784 H769 0.930 . S
C784 C779 1.390 . S
C784 C783 1.387 . S
H785 C797 0.930 . S
H786 C799 0.930 . S
H787 C800 0.930 . S
H788 C804 0.959 . S
H789 C804 0.959 . S
H790 C804 0.961 . S
H791 C805 0.960 . S
H792 C805 0.961 . S
H793 C805 0.959 . S
H794 C808 0.929 . S
H795 C809 0.931 . S
H796 C811 0.930 . S
C797 H785 0.930 . S
C797 C798 1.399 . S
C797 C802 1.399 . S
C798 C797 1.399 . S
C798 C799 1.376 . S
C799 H786 0.930 . S
C799 C798 1.376 . S
C799 C800 1.388 . S
C800 H787 0.930 . S
C800 C799 1.388 . S
C800 C801 1.390 . S
C801 C800 1.390 . S
C801 C802 1.394 . S
C801 C807 1.465 . S
C802 C797 1.399 . S
C802 C801 1.394 . S
C802 C803 1.516 . S
C803 C802 1.516 . S
C803 C804 1.502 . S
C803 C805 1.561 . S
C803 C806 1.526 . S
C804 H788 0.959 . S
C804 H789 0.959 . S
C804 H790 0.961 . S
C804 C803 1.502 . S
C805 H791 0.960 . S
C805 H792 0.961 . S
C805 H793 0.959 . S
C805 C803 1.561 . S
C806 C803 1.526 . S
C806 C807 1.396 . S
C806 C811 1.390 . S
C807 C801 1.465 . S
C807 C806 1.396 . S
C807 C808 1.399 . S
C808 H794 0.929 . S
C808 C807 1.399 . S
C808 C809 1.385 . S
C809 H795 0.931 . S
C809 C808 1.385 . S
C809 C810 1.389 . S
C810 C809 1.389 . S
C810 C811 1.387 . S
C811 H796 0.930 . S
C811 C806 1.390 . S
C811 C810 1.387 . S
H812 C824 0.930 . S
H813 C826 0.930 . S
H814 C827 0.930 . S
H815 C831 0.959 . S
H816 C831 0.959 . S
H817 C831 0.961 . S
H818 C832 0.960 . S
H819 C832 0.961 . S
H820 C832 0.959 . S
H821 C835 0.927 1_655 S
H822 C836 0.931 . S
H823 C838 0.930 . S
C824 H812 0.930 . S
C824 C825 1.399 . S
C824 C829 1.399 . S
C825 C824 1.399 . S
C825 C826 1.376 . S
C826 H813 0.930 . S
C826 C825 1.376 . S
C826 C827 1.388 . S
C827 H814 0.930 . S
C827 C826 1.388 . S
C827 C828 1.390 . S
C828 C827 1.390 . S
C828 C829 1.394 . S
C828 C834 1.465 . S
C829 C824 1.399 . S
C829 C828 1.394 . S
C829 C830 1.516 . S
C830 C829 1.516 . S
C830 C831 1.502 . S
C830 C832 1.561 . S
C830 C833 1.526 . S
C831 H815 0.959 . S
C831 H816 0.959 . S
C831 H817 0.961 . S
C831 C830 1.502 . S
C832 H818 0.960 . S
C832 H819 0.961 . S
C832 H820 0.959 . S
C832 C830 1.561 . S
C833 C830 1.526 . S
C833 C834 1.396 . S
C833 C838 1.390 1_655 S
C834 C828 1.465 . S
C834 C833 1.396 . S
C834 C835 1.399 1_655 S
C835 H821 0.927 1_455 S
C835 C834 1.399 1_455 S
C835 C836 1.385 . S
C836 H822 0.931 . S
C836 C835 1.385 . S
C836 C837 1.389 . S
C837 C836 1.389 . S
C837 C838 1.387 . S
C838 H823 0.930 . S
C838 C833 1.390 1_455 S
C838 C837 1.387 . S
H839 C851 0.930 . S
H840 C853 0.930 . S
H841 C854 0.930 . S
H842 C858 0.959 . S
H843 C858 0.959 1_655 S
H844 C858 0.961 . S
H845 C859 0.960 . S
H846 C859 0.961 . S
H847 C859 0.959 . S
H848 C862 0.929 . S
H849 C863 0.931 . S
H850 C865 0.930 . S
C851 H839 0.930 . S
C851 C852 1.399 . S
C851 C856 1.399 . S
C852 C851 1.399 . S
C852 C853 1.376 . S
C853 H840 0.930 . S
C853 C852 1.376 . S
C853 C854 1.388 . S
C854 H841 0.930 . S
C854 C853 1.388 . S
C854 C855 1.390 . S
C855 C854 1.390 . S
C855 C856 1.394 . S
C855 C861 1.465 . S
C856 C851 1.399 . S
C856 C855 1.394 . S
C856 C857 1.516 . S
C857 C856 1.516 . S
C857 C858 1.502 . S
C857 C859 1.561 . S
C857 C860 1.526 . S
C858 H842 0.959 . S
C858 H843 0.959 1_455 S
C858 H844 0.961 . S
C858 C857 1.502 . S
C859 H845 0.960 . S
C859 H846 0.961 . S
C859 H847 0.959 . S
C859 C857 1.561 . S
C860 C857 1.526 . S
C860 C861 1.396 . S
C860 C865 1.390 1_455 S
C861 C855 1.465 . S
C861 C860 1.396 . S
C861 C862 1.399 . S
C862 H848 0.929 . S
C862 C861 1.399 . S
C862 C863 1.385 1_455 S
C863 H849 0.931 . S
C863 C862 1.385 1_655 S
C863 C864 1.389 . S
C864 C863 1.389 . S
C864 C865 1.387 . S
C865 H850 0.930 . S
C865 C860 1.390 1_655 S
C865 C864 1.387 . S
H866 C878 0.930 . S
H867 C880 0.930 . S
H868 C881 0.930 . S
H869 C885 0.959 . S
H870 C885 0.959 . S
H871 C885 0.961 . S
H872 C886 0.960 . S
H873 C886 0.961 . S
H874 C886 0.959 . S
H875 C889 0.929 . S
H876 C890 0.931 . S
H877 C892 0.930 . S
C878 H866 0.930 . S
C878 C879 1.399 . S
C878 C883 1.399 . S
C879 C878 1.399 . S
C879 C880 1.376 . S
C880 H867 0.930 . S
C880 C879 1.376 . S
C880 C881 1.388 . S
C881 H868 0.930 . S
C881 C880 1.388 . S
C881 C882 1.390 . S
C882 C881 1.390 . S
C882 C883 1.394 . S
C882 C888 1.465 . S
C883 C878 1.399 . S
C883 C882 1.394 . S
C883 C884 1.516 . S
C884 C883 1.516 . S
C884 C885 1.502 . S
C884 C886 1.561 . S
C884 C887 1.526 . S
C885 H869 0.959 . S
C885 H870 0.959 . S
C885 H871 0.961 . S
C885 C884 1.502 . S
C886 H872 0.960 . S
C886 H873 0.961 . S
C886 H874 0.959 . S
C886 C884 1.561 . S
C887 C884 1.526 . S
C887 C888 1.396 . S
C887 C892 1.390 1_455 S
C888 C882 1.465 . S
C888 C887 1.396 . S
C888 C889 1.399 . S
C889 H875 0.929 . S
C889 C888 1.399 . S
C889 C890 1.385 1_455 S
C890 H876 0.931 . S
C890 C889 1.385 1_655 S
C890 C891 1.389 . S
C891 C890 1.389 . S
C891 C892 1.387 . S
C892 H877 0.930 . S
C892 C887 1.390 1_655 S
C892 C891 1.387 . S
H893 C905 0.930 . S
H894 C907 0.930 . S
H895 C908 0.930 . S
H896 C912 0.959 . S
H897 C912 0.959 1_455 S
H898 C912 0.961 . S
H899 C913 0.960 . S
H900 C913 0.961 1_455 S
H901 C913 0.959 . S
H902 C916 0.929 . S
H903 C917 0.931 . S
H904 C919 0.930 . S
C905 H893 0.930 . S
C905 C906 1.399 . S
C905 C910 1.399 . S
C906 C905 1.399 . S
C906 C907 1.376 . S
C907 H894 0.930 . S
C907 C906 1.376 . S
C907 C908 1.388 . S
C908 H895 0.930 . S
C908 C907 1.388 . S
C908 C909 1.390 . S
C909 C908 1.390 . S
C909 C910 1.394 . S
C909 C915 1.465 . S
C910 C905 1.399 . S
C910 C909 1.394 . S
C910 C911 1.516 . S
C911 C910 1.516 . S
C911 C912 1.502 . S
C911 C913 1.561 . S
C911 C914 1.526 . S
C912 H896 0.959 . S
C912 H897 0.959 1_655 S
C912 H898 0.961 . S
C912 C911 1.502 . S
C913 H899 0.960 . S
C913 H900 0.961 1_655 S
C913 H901 0.959 . S
C913 C911 1.561 . S
C914 C911 1.526 . S
C914 C915 1.396 . S
C914 C919 1.390 1_655 S
C915 C909 1.465 . S
C915 C914 1.396 . S
C915 C916 1.399 . S
C916 H902 0.929 . S
C916 C915 1.399 . S
C916 C917 1.385 1_655 S
C917 H903 0.931 . S
C917 C916 1.385 1_455 S
C917 C918 1.389 . S
C918 C917 1.389 . S
C918 C919 1.387 . S
C919 H904 0.930 . S
C919 C914 1.390 1_455 S
C919 C918 1.387 . S
H920 C932 0.930 . S
H921 C934 0.930 . S
H922 C935 0.930 . S
H923 C939 0.959 . S
H924 C939 0.959 . S
H925 C939 0.961 . S
H926 C940 0.960 . S
H927 C940 0.961 . S
H928 C940 0.959 . S
H929 C943 0.929 . S
H930 C944 0.931 . S
H931 C946 0.930 . S
C932 H920 0.930 . S
C932 C933 1.399 . S
C932 C937 1.399 . S
C933 C932 1.399 . S
C933 C934 1.376 . S
C934 H921 0.930 . S
C934 C933 1.376 . S
C934 C935 1.388 . S
C935 H922 0.930 . S
C935 C934 1.388 . S
C935 C936 1.390 . S
C936 C935 1.390 . S
C936 C937 1.394 . S
C936 C942 1.465 . S
C937 C932 1.399 . S
C937 C936 1.394 . S
C937 C938 1.516 . S
C938 C937 1.516 . S
C938 C939 1.502 . S
C938 C940 1.561 . S
C938 C941 1.526 . S
C939 H923 0.959 . S
C939 H924 0.959 . S
C939 H925 0.961 . S
C939 C938 1.502 . S
C940 H926 0.960 . S
C940 H927 0.961 . S
C940 H928 0.959 . S
C940 C938 1.561 . S
C941 C938 1.526 . S
C941 C942 1.396 . S
C941 C946 1.390 . S
C942 C936 1.465 . S
C942 C941 1.396 . S
C942 C943 1.399 . S
C943 H929 0.929 . S
C943 C942 1.399 . S
C943 C944 1.385 . S
C944 H930 0.931 . S
C944 C943 1.385 . S
C944 C945 1.389 . S
C945 C944 1.389 . S
C945 C946 1.387 . S
C946 H931 0.930 . S
C946 C941 1.390 . S
C946 C945 1.387 . S
H947 C959 0.930 . S
H948 C961 0.930 . S
H949 C962 0.930 . S
H950 C966 0.959 . S
H951 C966 0.959 . S
H952 C966 0.961 . S
H953 C967 0.960 . S
H954 C967 0.961 . S
H955 C967 0.959 . S
H956 C970 0.929 . S
H957 C971 0.931 . S
H958 C973 0.930 . S
C959 H947 0.930 . S
C959 C960 1.399 . S
C959 C964 1.399 . S
C960 C959 1.399 . S
C960 C961 1.376 . S
C961 H948 0.930 . S
C961 C960 1.376 . S
C961 C962 1.388 . S
C962 H949 0.930 . S
C962 C961 1.388 . S
C962 C963 1.390 . S
C963 C962 1.390 . S
C963 C964 1.394 . S
C963 C969 1.465 . S
C964 C959 1.399 . S
C964 C963 1.394 . S
C964 C965 1.516 . S
C965 C964 1.516 . S
C965 C966 1.502 . S
C965 C967 1.561 . S
C965 C968 1.526 . S
C966 H950 0.959 . S
C966 H951 0.959 . S
C966 H952 0.961 . S
C966 C965 1.502 . S
C967 H953 0.960 . S
C967 H954 0.961 . S
C967 H955 0.959 . S
C967 C965 1.561 . S
C968 C965 1.526 . S
C968 C969 1.396 . S
C968 C973 1.390 . S
C969 C963 1.465 . S
C969 C968 1.396 . S
C969 C970 1.399 . S
C970 H956 0.929 . S
C970 C969 1.399 . S
C970 C971 1.385 . S
C971 H957 0.931 . S
C971 C970 1.385 . S
C971 C972 1.389 . S
C972 C971 1.389 . S
C972 C973 1.387 . S
C973 H958 0.930 . S
C973 C968 1.390 . S
C973 C972 1.387 . S
H974 C986 0.930 . S
H975 C988 0.930 . S
H976 C989 0.930 . S
H977 C993 0.959 . S
H978 C993 0.959 . S
H979 C993 0.961 . S
H980 C994 0.960 . S
H981 C994 0.961 . S
H982 C994 0.959 . S
H983 C997 0.929 . S
H984 C998 0.931 . S
H985 C1000 0.930 . S
C986 H974 0.930 . S
C986 C987 1.399 . S
C986 C991 1.399 . S
C987 C986 1.399 . S
C987 C988 1.376 . S
C988 H975 0.930 . S
C988 C987 1.376 . S
C988 C989 1.388 . S
C989 H976 0.930 . S
C989 C988 1.388 . S
C989 C990 1.390 . S
C990 C989 1.390 . S
C990 C991 1.394 . S
C990 C996 1.465 . S
C991 C986 1.399 . S
C991 C990 1.394 . S
C991 C992 1.516 . S
C992 C991 1.516 . S
C992 C993 1.502 . S
C992 C994 1.561 . S
C992 C995 1.526 . S
C993 H977 0.959 . S
C993 H978 0.959 . S
C993 H979 0.961 . S
C993 C992 1.502 . S
C994 H980 0.960 . S
C994 H981 0.961 . S
C994 H982 0.959 . S
C994 C992 1.561 . S
C995 C992 1.526 . S
C995 C996 1.396 . S
C995 C1000 1.390 . S
C996 C990 1.465 . S
C996 C995 1.396 . S
C996 C997 1.399 . S
C997 H983 0.929 . S
C997 C996 1.399 . S
C997 C998 1.385 . S
C998 H984 0.931 . S
C998 C997 1.385 . S
C998 C999 1.389 . S
C999 C998 1.389 . S
C999 C1000 1.387 . S
C1000 H985 0.930 . S
C1000 C995 1.390 . S
C1000 C999 1.387 . S
H1001 C1013 0.930 . S
H1002 C1015 0.930 . S
H1003 C1016 0.930 . S
H1004 C1020 0.959 . S
H1005 C1020 0.959 . S
H1006 C1020 0.961 . S
H1007 C1021 0.960 . S
H1008 C1021 0.961 . S
H1009 C1021 0.959 . S
H1010 C1024 0.929 . S
H1011 C1025 0.931 . S
H1012 C1027 0.930 . S
C1013 H1001 0.930 . S
C1013 C1014 1.399 . S
C1013 C1018 1.399 . S
C1014 C1013 1.399 . S
C1014 C1015 1.376 . S
C1015 H1002 0.930 . S
C1015 C1014 1.376 . S
C1015 C1016 1.388 . S
C1016 H1003 0.930 . S
C1016 C1015 1.388 . S
C1016 C1017 1.390 . S
C1017 C1016 1.390 . S
C1017 C1018 1.394 . S
C1017 C1023 1.465 . S
C1018 C1013 1.399 . S
C1018 C1017 1.394 . S
C1018 C1019 1.516 . S
C1019 C1018 1.516 . S
C1019 C1020 1.502 . S
C1019 C1021 1.561 . S
C1019 C1022 1.526 . S
C1020 H1004 0.959 . S
C1020 H1005 0.959 . S
C1020 H1006 0.961 . S
C1020 C1019 1.502 . S
C1021 H1007 0.960 . S
C1021 H1008 0.961 . S
C1021 H1009 0.959 . S
C1021 C1019 1.561 . S
C1022 C1019 1.526 . S
C1022 C1023 1.396 . S
C1022 C1027 1.390 . S
C1023 C1017 1.465 . S
C1023 C1022 1.396 . S
C1023 C1024 1.399 . S
C1024 H1010 0.929 . S
C1024 C1023 1.399 . S
C1024 C1025 1.385 . S
C1025 H1011 0.931 . S
C1025 C1024 1.385 . S
C1025 C1026 1.389 . S
C1026 C1025 1.389 . S
C1026 C1027 1.387 . S
C1027 H1012 0.930 . S
C1027 C1022 1.390 . S
C1027 C1026 1.387 . S
C285 C51 1.733 . S
C297 C17 1.719 . S
C312 C119 1.734 . S
C324 C85 1.721 . S
C339 C153 1.733 . S
C351 C187 1.718 . S
C366 C255 1.736 . S
C378 C221 1.716 . S
C393 C117 1.816 . S
C405 C22 1.804 . S
C420 C90 1.755 . S
C432 C56 1.762 . S
C447 C158 1.815 1_455 S
C459 C260 1.804 1_455 S
C474 C192 1.767 1_655 S
C486 C219 1.780 1_655 S
C501 C37 1.925 . S
C513 C3 1.916 . S
C528 C103 1.939 . S
C540 C71 1.918 . S
C555 C139 1.939 . S
C567 C173 1.973 . S
C582 C205 1.940 . S
C594 C241 1.917 . S
C609 C35 1.414 . S
C621 C1 1.452 . S
C636 C69 1.465 . S
C648 C105 1.508 . S
C663 C171 1.514 . S
C675 C137 1.476 . S
C690 C207 1.472 . S
C702 C239 1.418 . S
C717 C15 1.562 . S
C729 C226 1.491 . S
C744 C49 1.562 . S
C756 C253 1.492 . S
C771 C83 1.511 . S
C783 C151 1.524 . S
C798 C124 1.507 . S
C810 C185 1.527 . S
C825 C6 1.380 . S
C837 C28 1.371 . S
C852 C40 1.359 . S
C864 C62 1.374 . S
C879 C74 1.368 . S
C891 C96 1.369 . S
C906 C130 1.360 . S
C918 C108 1.372 . S
C933 C142 1.380 . S
C945 C164 1.380 . S
C960 C198 1.368 . S
C972 C176 1.367 . S
C987 C210 1.374 . S
C999 C232 1.363 . S
C1014 C266 1.374 . S
C1026 C244 1.363 . S
