# Generated by pormake.
# Topology crs, (6)-cn, num edge types: 1
# Building blocks:
#     Node 0, Type 0, BuildingBlock: MIFKUJ_clean_sbu_0, # of connection points: 6
#     Node 1, Type 0, BuildingBlock: MIFKUJ_clean_sbu_0, # of connection points: 6
#     Node 2, Type 0, BuildingBlock: MIFKUJ_clean_sbu_0, # of connection points: 6
#     Node 3, Type 0, BuildingBlock: MIFKUJ_clean_sbu_0, # of connection points: 6
#     Node 4, Type 0, BuildingBlock: MIFKUJ_clean_sbu_0, # of connection points: 6
#     Node 5, Type 0, BuildingBlock: MIFKUJ_clean_sbu_0, # of connection points: 6
#     Node 6, Type 0, BuildingBlock: MIFKUJ_clean_sbu_0, # of connection points: 6
#     Node 7, Type 0, BuildingBlock: MIFKUJ_clean_sbu_0, # of connection points: 6
#     Node 8, Type 0, BuildingBlock: MIFKUJ_clean_sbu_0, # of connection points: 6
#     Node 9, Type 0, BuildingBlock: MIFKUJ_clean_sbu_0, # of connection points: 6
#     Node 10, Type 0, BuildingBlock: MIFKUJ_clean_sbu_0, # of connection points: 6
#     Node 11, Type 0, BuildingBlock: MIFKUJ_clean_sbu_0, # of connection points: 6
#     Node 12, Type 0, BuildingBlock: MIFKUJ_clean_sbu_0, # of connection points: 6
#     Node 13, Type 0, BuildingBlock: MIFKUJ_clean_sbu_0, # of connection points: 6
#     Node 14, Type 0, BuildingBlock: MIFKUJ_clean_sbu_0, # of connection points: 6
#     Node 15, Type 0, BuildingBlock: MIFKUJ_clean_sbu_0, # of connection points: 6
#     Edge 16, Type (0, 0), BuildingBlock: ZUJKAS_clean_linker_0, # of connection points: 2
#     Edge 17, Type (0, 0), BuildingBlock: ZUJKAS_clean_linker_0, # of connection points: 2
#     Edge 18, Type (0, 0), BuildingBlock: ZUJKAS_clean_linker_0, # of connection points: 2
#     Edge 19, Type (0, 0), BuildingBlock: ZUJKAS_clean_linker_0, # of connection points: 2
#     Edge 20, Type (0, 0), BuildingBlock: ZUJKAS_clean_linker_0, # of connection points: 2
#     Edge 21, Type (0, 0), BuildingBlock: ZUJKAS_clean_linker_0, # of connection points: 2
#     Edge 22, Type (0, 0), BuildingBlock: ZUJKAS_clean_linker_0, # of connection points: 2
#     Edge 23, Type (0, 0), BuildingBlock: ZUJKAS_clean_linker_0, # of connection points: 2
#     Edge 24, Type (0, 0), BuildingBlock: ZUJKAS_clean_linker_0, # of connection points: 2
#     Edge 25, Type (0, 0), BuildingBlock: ZUJKAS_clean_linker_0, # of connection points: 2
#     Edge 26, Type (0, 0), BuildingBlock: ZUJKAS_clean_linker_0, # of connection points: 2
#     Edge 27, Type (0, 0), BuildingBlock: ZUJKAS_clean_linker_0, # of connection points: 2
#     Edge 28, Type (0, 0), BuildingBlock: ZUJKAS_clean_linker_0, # of connection points: 2
#     Edge 29, Type (0, 0), BuildingBlock: ZUJKAS_clean_linker_0, # of connection points: 2
#     Edge 30, Type (0, 0), BuildingBlock: ZUJKAS_clean_linker_0, # of connection points: 2
#     Edge 31, Type (0, 0), BuildingBlock: ZUJKAS_clean_linker_0, # of connection points: 2
#     Edge 32, Type (0, 0), BuildingBlock: ZUJKAS_clean_linker_0, # of connection points: 2
#     Edge 33, Type (0, 0), BuildingBlock: ZUJKAS_clean_linker_0, # of connection points: 2
#     Edge 34, Type (0, 0), BuildingBlock: ZUJKAS_clean_linker_0, # of connection points: 2
#     Edge 35, Type (0, 0), BuildingBlock: ZUJKAS_clean_linker_0, # of connection points: 2
#     Edge 36, Type (0, 0), BuildingBlock: ZUJKAS_clean_linker_0, # of connection points: 2
#     Edge 37, Type (0, 0), BuildingBlock: ZUJKAS_clean_linker_0, # of connection points: 2
#     Edge 38, Type (0, 0), BuildingBlock: ZUJKAS_clean_linker_0, # of connection points: 2
#     Edge 39, Type (0, 0), BuildingBlock: ZUJKAS_clean_linker_0, # of connection points: 2
#     Edge 40, Type (0, 0), BuildingBlock: ZUJKAS_clean_linker_0, # of connection points: 2
#     Edge 41, Type (0, 0), BuildingBlock: ZUJKAS_clean_linker_0, # of connection points: 2
#     Edge 42, Type (0, 0), BuildingBlock: ZUJKAS_clean_linker_0, # of connection points: 2
#     Edge 43, Type (0, 0), BuildingBlock: ZUJKAS_clean_linker_0, # of connection points: 2
#     Edge 44, Type (0, 0), BuildingBlock: ZUJKAS_clean_linker_0, # of connection points: 2
#     Edge 45, Type (0, 0), BuildingBlock: ZUJKAS_clean_linker_0, # of connection points: 2
#     Edge 46, Type (0, 0), BuildingBlock: ZUJKAS_clean_linker_0, # of connection points: 2
#     Edge 47, Type (0, 0), BuildingBlock: ZUJKAS_clean_linker_0, # of connection points: 2
#     Edge 48, Type (0, 0), BuildingBlock: ZUJKAS_clean_linker_0, # of connection points: 2
#     Edge 49, Type (0, 0), BuildingBlock: ZUJKAS_clean_linker_0, # of connection points: 2
#     Edge 50, Type (0, 0), BuildingBlock: ZUJKAS_clean_linker_0, # of connection points: 2
#     Edge 51, Type (0, 0), BuildingBlock: ZUJKAS_clean_linker_0, # of connection points: 2
#     Edge 52, Type (0, 0), BuildingBlock: ZUJKAS_clean_linker_0, # of connection points: 2
#     Edge 53, Type (0, 0), BuildingBlock: ZUJKAS_clean_linker_0, # of connection points: 2
#     Edge 54, Type (0, 0), BuildingBlock: ZUJKAS_clean_linker_0, # of connection points: 2
#     Edge 55, Type (0, 0), BuildingBlock: ZUJKAS_clean_linker_0, # of connection points: 2
#     Edge 56, Type (0, 0), BuildingBlock: ZUJKAS_clean_linker_0, # of connection points: 2
#     Edge 57, Type (0, 0), BuildingBlock: ZUJKAS_clean_linker_0, # of connection points: 2
#     Edge 58, Type (0, 0), BuildingBlock: ZUJKAS_clean_linker_0, # of connection points: 2
#     Edge 59, Type (0, 0), BuildingBlock: ZUJKAS_clean_linker_0, # of connection points: 2
#     Edge 60, Type (0, 0), BuildingBlock: ZUJKAS_clean_linker_0, # of connection points: 2
#     Edge 61, Type (0, 0), BuildingBlock: ZUJKAS_clean_linker_0, # of connection points: 2
#     Edge 62, Type (0, 0), BuildingBlock: ZUJKAS_clean_linker_0, # of connection points: 2
#     Edge 63, Type (0, 0), BuildingBlock: ZUJKAS_clean_linker_0, # of connection points: 2
# Relax obj value: 0.310
# Max RMSD: 0.278
# Mean RMSD: 0.243
data_MOF--net-crs--node1-MIFKUJ_clean_sbu_0--edge1-ZUJKAS_clean_linker_0
_symmetry_space_group_name_H-M    P1
_symmetry_Int_Tables_number       1
_symmetry_cell_setting            triclinic
loop_
_symmetry_equiv_pos_as_xyz
'x, y, z'
_cell_length_a     55.378741
_cell_length_b     55.298402
_cell_length_c     56.659665
_cell_angle_alpha  90.055667
_cell_angle_beta   90.11761
_cell_angle_gamma 81.318166
loop_
_atom_site_label
_atom_site_type_symbol
_atom_site_fract_x
_atom_site_fract_y
_atom_site_fract_z
_atom_type_partial_charge
Zn0 Zn 0.01528 0.02167 0.98177 0.0
Zn1 Zn 0.97258 0.00258 0.00097 0.0
C2 C 0.00154 0.06983 0.00171 0.0
O3 O 0.00396 0.07657 0.97972 0.0
C4 C 0.98264 0.95345 0.98363 0.0
O5 O 0.98009 0.94871 0.00613 0.0
O6 O 0.04258 0.03401 0.96521 0.0
O7 O 0.02863 0.99063 0.99857 0.0
O8 O -0.00039 0.00047 0.02473 0.0
C9 C 0.0602 0.03983 0.97718 0.0
O10 O 0.06133 0.03492 -0.00012 0.0
O11 O 0.0046 0.04717 0.00668 0.0
C12 C 0.925 0.99054 0.00818 0.0
O13 O 0.92262 0.99649 0.98575 0.0
O14 O 0.94454 0.99331 0.01886 0.0
O15 O 0.96068 0.03371 0.98335 0.0
O16 O 0.98931 0.02235 0.95724 0.0
O17 O 0.98095 0.9756 0.97701 0.0
C18 C 0.02096 0.98995 0.01963 0.0
C19 C 0.96848 0.03408 0.96231 0.0
Zn20 Zn 0.98387 0.24894 0.25354 0.0
Zn21 Zn 0.01551 0.27417 0.22418 0.0
C22 C -0.00108 0.26818 0.29679 0.0
O23 O 0.00223 0.24471 0.30179 0.0
C24 C 0.00297 0.25378 0.17989 0.0
O25 O 0.00051 0.27685 0.17346 0.0
O26 O 0.96258 0.22999 0.27227 0.0
O27 O 0.96402 0.26479 0.22656 0.0
O28 O 0.98376 0.29606 0.2303 0.0
C29 C 0.94154 0.24076 0.27804 0.0
O30 O 0.93384 0.26264 0.26946 0.0
O31 O -0.00869 0.27505 0.27632 0.0
C32 C 0.05973 0.29176 0.20893 0.0
O33 O 0.07043 0.27587 0.22432 0.0
O34 O 0.03667 0.2945 0.20668 0.0
O35 O 0.03512 0.25716 0.25109 0.0
O36 O 0.01476 0.22635 0.24703 0.0
O37 O 0.00904 0.24811 0.20105 0.0
C38 C 0.96441 0.2876 0.22481 0.0
C39 C 0.03423 0.2344 0.25281 0.0
Zn40 Zn 0.7802 0.25101 0.51716 0.0
Zn41 Zn 0.74912 0.22435 0.48974 0.0
C42 C 0.82537 0.22568 0.49562 0.0
O43 O 0.83604 0.22874 0.51591 0.0
C44 C 0.70598 0.25544 0.50877 0.0
O45 O 0.69834 0.25806 0.48682 0.0
O46 O 0.79972 0.2715 0.53626 0.0
O47 O 0.7566 0.2752 0.49855 0.0
O48 O 0.76046 0.24981 0.46859 0.0
C49 C 0.78905 0.29065 0.54642 0.0
O50 O 0.76508 0.29544 0.54586 0.0
O51 O 0.80271 0.23322 0.49317 0.0
C52 C 0.72102 0.18714 0.47994 0.0
O53 O 0.72695 0.18219 0.50206 0.0
O54 O 0.72892 0.20492 0.46995 0.0
O55 O 0.77238 0.20012 0.50914 0.0
O56 O 0.7685 0.22634 0.53849 0.0
O57 O 0.72622 0.2422 0.5133 0.0
C58 C 0.75667 0.27163 0.47638 0.0
C59 C 0.77175 0.20432 0.53126 0.0
Zn60 Zn 0.76369 0.01084 0.77451 0.0
Zn61 Zn 0.72818 0.99552 0.74076 0.0
C62 C 0.74759 0.98989 0.81678 0.0
O63 O 0.74668 0.01264 0.8239 0.0
C64 C 0.74711 0.01582 0.69977 0.0
O65 O 0.74737 0.99313 0.69274 0.0
O66 O 0.7879 0.02606 0.79323 0.0
O67 O 0.78132 0.99494 0.74633 0.0
O68 O 0.75586 0.96822 0.74585 0.0
C69 C 0.80094 0.04101 0.78486 0.0
O70 O 0.79931 0.04667 0.76234 0.0
O71 O 0.75375 0.98453 0.79559 0.0
C72 C 0.68687 0.99786 0.71201 0.0
O73 O 0.68433 0.02037 0.72014 0.0
O74 O 0.70435 0.98235 0.71967 0.0
O75 O 0.70932 0.01161 0.76832 0.0
O76 O 0.73557 0.0375 0.76999 0.0
O77 O 0.74018 0.02163 0.72069 0.0
C78 C 0.77692 0.97359 0.7416 0.0
C79 C 0.71416 0.03273 0.77335 0.0
Zn80 Zn 0.48207 0.75775 0.28489 0.0
Zn81 Zn 0.5243 0.76831 0.25675 0.0
C82 C 0.49363 0.78484 0.32579 0.0
O83 O 0.49207 0.7638 0.33598 0.0
C84 C 0.51595 0.74644 0.21249 0.0
O85 O 0.51768 0.76881 0.20567 0.0
O86 O 0.45314 0.7485 0.30128 0.0
O87 O 0.47044 0.76869 0.25279 0.0
O88 O 0.49572 0.79546 0.25452 0.0
C89 C 0.43594 0.76571 0.3059 0.0
O90 O 0.43771 0.78802 0.29889 0.0
O91 O 0.49103 0.78659 0.30351 0.0
C92 C 0.57316 0.76945 0.24186 0.0
O93 O 0.5766 0.74774 0.2518 0.0
O94 O 0.5521 0.78216 0.24256 0.0
O95 O 0.53636 0.75298 0.28787 0.0
O96 O 0.50821 0.72906 0.2874 0.0
O97 O 0.51789 0.74133 0.23437 0.0
C98 C 0.47567 0.78951 0.24739 0.0
C99 C 0.52941 0.73284 0.2933 0.0
Zn100 Zn 0.21303 0.76692 0.5033 0.0
Zn101 Zn 0.25005 0.80006 0.51901 0.0
C102 C 0.23506 0.72355 0.52688 0.0
O103 O 0.23666 0.71564 0.50497 0.0
C104 C 0.23488 0.84438 0.49243 0.0
O105 O 0.23555 0.85456 0.51334 0.0
O106 O 0.19051 0.747 0.48751 0.0
O107 O 0.19362 0.79735 0.51652 0.0
O108 O 0.22289 0.79994 0.5422 0.0
C109 C 0.17569 0.73715 0.5 0.0
O110 O 0.17332 0.74293 0.52247 0.0
O111 O 0.22671 0.74588 0.53076 0.0
C112 C 0.29369 0.82016 0.52308 0.0
O113 O 0.29455 0.81417 0.50061 0.0
O114 O 0.2757 0.81579 0.53536 0.0
O115 O 0.2673 0.76809 0.50651 0.0
O116 O 0.23889 0.76921 0.47941 0.0
O117 O 0.23917 0.82122 0.49078 0.0
C118 C 0.20032 0.80288 0.53702 0.0
C119 C 0.26099 0.76338 0.48567 0.0
Zn120 Zn 0.26859 0.53221 0.77265 0.0
Zn121 Zn 0.23404 0.50917 0.74311 0.0
C122 C 0.26307 0.50858 0.81664 0.0
O123 O 0.26009 0.53144 0.82382 0.0
C124 C 0.24318 0.53561 0.70204 0.0
O125 O 0.2472 0.51307 0.69396 0.0
O126 O 0.28967 0.55332 0.78911 0.0
O127 O 0.28621 0.51835 0.74314 0.0
O128 O 0.26572 0.48728 0.74358 0.0
C129 C 0.31259 0.54684 0.79064 0.0
O130 O 0.32267 0.52694 0.77964 0.0
O131 O 0.26698 0.50398 0.79488 0.0
C132 C 0.18903 0.50149 0.72278 0.0
O133 O 0.18152 0.52194 0.73418 0.0
O134 O 0.21118 0.4917 0.72474 0.0
O135 O 0.21833 0.5187 0.77402 0.0
O136 O 0.23491 0.55214 0.77195 0.0
O137 O 0.2374 0.53912 0.72361 0.0
C138 C 0.28468 0.49625 0.73797 0.0
C139 C 0.21763 0.54116 0.77888 0.0
Zn140 Zn 0.02543 0.51331 0.4927 0.0
Zn141 Zn 0.98738 0.48451 0.50955 0.0
C142 C 0.0041 0.55748 0.51587 0.0
O143 O 0.00441 0.56592 0.49422 0.0
C144 C 0.00503 0.43878 0.48649 0.0
O145 O 0.00563 0.43047 0.50823 0.0
O146 O 0.0494 0.53221 0.47803 0.0
O147 O 0.04339 0.4825 0.50689 0.0
O148 O 0.01423 0.48454 0.5333 0.0
C149 C 0.07178 0.52546 0.47322 0.0
O150 O 0.0819 0.50285 0.47759 0.0
O151 O 0.01132 0.53488 0.51956 0.0
C152 C 0.94219 0.46729 0.51369 0.0
O153 O 0.94068 0.47499 0.49174 0.0
O154 O 0.96105 0.46971 0.52569 0.0
O155 O 0.97124 0.51596 0.49475 0.0
O156 O 4e-05 0.51161 0.468 0.0
O157 O -0.00125 0.46152 0.48289 0.0
C158 C 0.03656 0.47865 0.52776 0.0
C159 C 0.97798 0.51879 0.47365 0.0
Zn160 Zn 0.21917 0.2526 0.981 0.0
Zn161 Zn 0.2621 0.2672 0.00334 0.0
C162 C 0.22896 0.20335 0.99891 0.0
O163 O 0.22614 0.19799 0.97657 0.0
C164 C 0.25466 0.31695 0.98634 0.0
O165 O 0.25666 0.32186 0.00889 0.0
O166 O 0.19099 0.24364 0.96299 0.0
O167 O 0.20804 0.28404 0.99832 0.0
O168 O 0.23395 0.26933 0.02584 0.0
C169 C 0.17103 0.24237 0.9735 0.0
O170 O 0.16851 0.24969 0.99555 0.0
O171 O 0.22721 0.22566 0.00502 0.0
C172 C 0.30896 0.27969 0.01275 0.0
O173 O 0.31143 0.27552 0.98998 0.0
O174 O 0.28966 0.2754 0.02288 0.0
O175 O 0.27389 0.2368 0.98462 0.0
O176 O 0.24643 0.25023 0.95782 0.0
O177 O 0.25557 0.29483 0.97986 0.0
C178 C 0.21422 0.28276 0.01993 0.0
C179 C 0.26695 0.23795 0.96321 0.0
Zn180 Zn 0.27403 0.01529 0.24923 0.0
Zn181 Zn 0.23309 0.00063 0.22367 0.0
C182 C 0.25911 0.99855 0.29332 0.0
O183 O 0.26173 0.02119 0.29847 0.0
C184 C 0.2433 0.01816 0.17767 0.0
O185 O 0.241 0.99559 0.17194 0.0
O186 O 0.30265 0.02577 0.26558 0.0
O187 O 0.28623 0.99866 0.21936 0.0
O188 O 0.26094 0.97251 0.22536 0.0
C189 C 0.31988 0.00894 0.27128 0.0
O190 O 0.31919 0.98658 0.26372 0.0
O191 O 0.26286 0.99107 0.27221 0.0
C192 C 0.18689 0.00381 0.2034 0.0
O193 O 0.18851 0.02696 0.2072 0.0
O194 O 0.20425 0.9876 0.21013 0.0
O195 O 0.22078 0.02046 0.25234 0.0
O196 O 0.24835 0.04453 0.24702 0.0
O197 O 0.24147 0.02455 0.19922 0.0
C198 C 0.28122 0.97712 0.21748 0.0
C199 C 0.22734 0.04145 0.25417 0.0
Zn200 Zn 0.48124 0.26234 0.76611 0.0
Zn201 Zn 0.52199 0.27542 0.73916 0.0
C202 C 0.49149 0.28103 0.8119 0.0
O203 O 0.48971 0.25843 0.81792 0.0
C204 C 0.50604 0.25491 0.69594 0.0
O205 O 0.50869 0.27664 0.68792 0.0
O206 O 0.45255 0.24911 0.7794 0.0
O207 O 0.4691 0.28062 0.73663 0.0
O208 O 0.49639 0.30479 0.74231 0.0
C209 C 0.43508 0.26469 0.7869 0.0
O210 O 0.4363 0.28811 0.78448 0.0
O211 O 0.48941 0.28703 0.79024 0.0
C212 C 0.5666 0.27031 0.71468 0.0
O213 O 0.56731 0.24778 0.72235 0.0
O214 O 0.5491 0.28647 0.72106 0.0
O215 O 0.53608 0.25859 0.76848 0.0
O216 O 0.50864 0.2341 0.76497 0.0
O217 O 0.51003 0.25018 0.71769 0.0
C218 C 0.47552 0.30163 0.73482 0.0
C219 C 0.52975 0.2377 0.77155 0.0
Zn220 Zn 0.96602 0.73537 0.77381 0.0
Zn221 Zn 0.00846 0.74895 0.74957 0.0
C222 C 0.97528 0.75781 0.81844 0.0
O223 O 0.97207 0.73635 0.82674 0.0
C224 C -0.00316 0.72998 0.70495 0.0
O225 O -0.00216 0.7528 0.6991 0.0
O226 O 0.93713 0.72311 0.78759 0.0
O227 O 0.95475 0.75205 0.7434 0.0
O228 O 0.98131 0.77705 0.7495 0.0
C229 C 0.9191 0.73898 0.79332 0.0
O230 O 0.91987 0.76215 0.78875 0.0
O231 O 0.97404 0.76146 0.7963 0.0
C232 C 0.05418 0.74684 0.72686 0.0
O233 O 0.05371 0.72326 0.72902 0.0
O234 O 0.03691 0.76186 0.73558 0.0
O235 O 0.01965 0.73261 0.77997 0.0
O236 O -0.00661 0.70715 0.77464 0.0
O237 O 0.00031 0.72356 0.72638 0.0
C238 C 0.96102 0.77309 0.74109 0.0
C239 C 0.01359 0.71159 0.78293 0.0
Zn240 Zn 0.75439 0.50373 0.2786 0.0
Zn241 Zn 0.71253 0.49118 0.25302 0.0
C242 C 0.74438 0.4789 0.32166 0.0
O243 O 0.74618 0.50031 0.33101 0.0
C244 C 0.72217 0.51415 0.2094 0.0
O245 O 0.71957 0.49239 0.20136 0.0
O246 O 0.78334 0.51511 0.2935 0.0
O247 O 0.76579 0.48939 0.24732 0.0
O248 O 0.74014 0.46322 0.25152 0.0
C249 C 0.8007 0.49867 0.29971 0.0
O250 O 0.79914 0.47564 0.29518 0.0
O251 O 0.74645 0.47622 0.29943 0.0
C252 C 0.66377 0.49307 0.23675 0.0
O253 O 0.66155 0.51469 0.24685 0.0
O254 O 0.68409 0.47904 0.23796 0.0
O255 O 0.70106 0.5061 0.28423 0.0
O256 O 0.72711 0.53187 0.28 0.0
O257 O 0.7203 0.51819 0.23147 0.0
C258 C 0.76028 0.46823 0.24373 0.0
C259 C 0.70682 0.52719 0.2877 0.0
Zn260 Zn 0.72641 0.74382 0.01135 0.0
Zn261 Zn 0.77071 0.76582 0.02321 0.0
C262 C 0.7377 0.69668 0.03303 0.0
O263 O 0.73401 0.68972 0.0113 0.0
C264 C 0.75405 0.81192 0.0003 0.0
O265 O 0.75794 0.82041 0.02142 0.0
O266 O 0.69657 0.73322 0.99788 0.0
O267 O 0.71632 0.77675 0.02634 0.0
O268 O 0.74742 0.76734 0.05011 0.0
C269 C 0.67923 0.73049 0.01174 0.0
O270 O 0.68044 0.73741 0.03385 0.0
O271 O 0.73659 0.71938 0.03738 0.0
C272 C 0.81533 0.78523 0.02223 0.0
O273 O 0.81497 0.77841 3e-05 0.0
O274 O 0.79884 0.78012 0.03603 0.0
O275 O 0.7832 0.73351 0.00841 0.0
O276 O 0.75095 0.73891 0.98527 0.0
O277 O 0.75721 0.78891 0.99703 0.0
C278 C 0.72571 0.7778 0.04669 0.0
C279 C 0.77309 0.72981 0.98887 0.0
Zn280 Zn 0.47278 0.01082 0.52439 0.0
Zn281 Zn 0.49843 0.0397 0.49246 0.0
C282 C 0.43197 0.00987 0.49538 0.0
O283 O 0.43482 0.98759 0.50406 0.0
C284 C 0.54416 0.01082 0.50857 0.0
O285 O 0.55039 0.00949 0.4862 0.0
O286 O 0.45868 0.98985 0.54794 0.0
O287 O 0.49448 0.98802 0.5023 0.0
O288 O 0.48582 0.01388 0.47299 0.0
C289 C 0.46905 0.96848 0.55326 0.0
O290 O 0.49076 0.9604 0.54458 0.0
O291 O 0.44527 0.0249 0.50322 0.0
C292 C 0.5236 0.07833 0.48002 0.0
O293 O 0.51803 0.0839 0.50209 0.0
O294 O 0.51651 0.05957 0.471 0.0
O295 O 0.47557 0.06336 0.51251 0.0
O296 O 0.48438 0.03839 0.5424 0.0
O297 O 0.52362 0.0226 0.51455 0.0
C298 C 0.49119 0.99198 0.48028 0.0
C299 C 0.47871 0.06006 0.5346 0.0
Zn300 Zn 0.50144 0.52243 0.00797 0.0
Zn301 Zn 0.45743 0.50383 0.02287 0.0
C302 C 0.4944 0.57012 0.02975 0.0
O303 O 0.4987 0.57684 0.00811 0.0
C304 C 0.47118 0.45685 -6e-05 0.0
O305 O 0.46681 0.44863 0.02101 0.0
O306 O 0.53111 0.53187 0.99307 0.0
O307 O 0.51147 0.48988 0.0238 0.0
O308 O 0.48204 0.5016 0.04881 0.0
C309 C 0.54943 0.53316 0.00622 0.0
O310 O 0.54915 0.52516 0.02804 0.0
O311 O 0.49334 0.5477 0.03384 0.0
C312 C 0.41146 0.48666 0.02458 0.0
O313 O 0.41062 0.49326 0.00228 0.0
O314 O 0.42916 0.49112 0.03725 0.0
O315 O 0.44573 0.5365 0.00809 0.0
O316 O 0.4756 0.52731 0.98279 0.0
O317 O 0.46911 0.47982 0.99667 0.0
C318 C 0.50318 0.49006 0.04468 0.0
C319 C 0.45443 0.5385 0.9876 0.0
H320 H -0.00472 0.11963 0.99733 0.0
H321 H -0.00754 0.14998 0.02905 0.0
H322 H -0.00378 0.09244 0.08082 0.0
H323 H -0.00078 0.06191 0.04927 0.0
H324 H 0.9582 0.15935 0.06759 0.0
H325 H 0.05369 0.12952 0.0978 0.0
H326 H 0.04267 0.12084 0.06949 0.0
H327 H 0.0348 0.10586 0.09587 0.0
C328 C -0.00466 0.11342 0.01545 0.0
C329 C -0.00234 0.08833 0.02077 0.0
C330 C -0.0063 0.13079 0.03354 0.0
C331 C -0.0055 0.1234 0.05723 0.0
C332 C -0.00403 0.09846 0.06263 0.0
H333 H 0.00521 0.20464 0.18768 0.0
H334 H 0.00112 0.17281 0.15855 0.0
C335 C -0.00244 0.08107 0.04456 0.0
C336 C -0.00551 0.14176 0.07626 0.0
H337 H 0.03002 0.16063 0.11984 0.0
C338 C 0.97386 0.15966 0.07906 0.0
C339 C 0.01495 0.14202 0.09118 0.0
C340 C 0.0379 0.12368 0.08842 0.0
C341 C 0.97309 0.17778 0.09654 0.0
C342 C -0.00629 0.17828 0.11123 0.0
C343 C 0.01422 0.16019 0.10858 0.0
C344 C -0.00523 0.19777 0.12903 0.0
C345 C 0.95009 0.19602 0.09931 0.0
C346 C -0.00734 0.22235 0.12208 0.0
C347 C -0.0051 0.24059 0.13867 0.0
C348 C -0.00044 0.23456 0.16252 0.0
C349 C 0.0016 0.20992 0.16946 0.0
C350 C -0.00073 0.1917 0.15284 0.0
H351 H 0.93396 0.18895 0.09183 0.0
H352 H 0.94648 0.2007 0.11817 0.0
H353 H 0.95222 0.21305 0.08971 0.0
H354 H 0.98977 0.2274 0.10371 0.0
H355 H -0.0066 0.25936 0.13271 0.0
H356 H 0.87522 0.21755 0.49088 0.0
H357 H 0.89814 0.21078 0.45389 0.0
H358 H 0.83103 0.20811 0.41591 0.0
H359 H 0.80809 0.21447 0.45261 0.0
H360 H 0.8723 0.1748 0.39873 0.0
H361 H 0.88996 0.2708 0.40907 0.0
H362 H 0.90016 0.25025 0.43284 0.0
H363 H 0.86805 0.25821 0.42701 0.0
C364 C 0.86543 0.21494 0.47474 0.0
C365 C 0.83982 0.21703 0.47457 0.0
C366 C 0.87853 0.21112 0.45365 0.0
C367 C 0.86616 0.20938 0.43221 0.0
C368 C 0.84086 0.20949 0.43229 0.0
H369 H 0.89653 0.25938 0.29499 0.0
H370 H 0.87794 0.2481 0.33162 0.0
C371 C 0.82778 0.21328 0.45329 0.0
C372 C 0.87877 0.21065 0.40942 0.0
H373 H 0.90392 0.25027 0.37438 0.0
C374 C 0.87949 0.19115 0.39341 0.0
C375 C 0.88766 0.23224 0.40251 0.0
C376 C 0.88633 0.25419 0.41861 0.0
C377 C 0.88872 0.19281 0.37049 0.0
C378 C 0.89747 0.21445 0.36363 0.0
C379 C 0.89711 0.23373 0.37977 0.0
C380 C 0.90659 0.21808 0.33963 0.0
C381 C 0.88834 0.17183 0.35354 0.0
C382 C 0.92847 0.20443 0.33172 0.0
C383 C 0.93913 0.2108 0.31074 0.0
C384 C 0.92815 0.23107 0.29752 0.0
C385 C 0.9055 0.24377 0.30482 0.0
C386 C 0.89486 0.23735 0.32574 0.0
H387 H 0.87673 0.15852 0.36003 0.0
H388 H 0.88152 0.17867 0.33596 0.0
H389 H 0.90721 0.16204 0.35124 0.0
H390 H 0.93796 0.18972 0.34238 0.0
H391 H 0.95662 0.20067 0.3056 0.0
H392 H 0.7467 0.06486 0.70762 0.0
H393 H 0.75366 0.09597 0.67865 0.0
H394 H 0.76785 0.04029 0.62504 0.0
H395 H 0.7608 0.00916 0.65369 0.0
H396 H 0.79549 0.0993 0.6492 0.0
H397 H 0.7122 0.09037 0.59699 0.0
H398 H 0.71699 0.07844 0.62656 0.0
H399 H 0.73241 0.06224 0.60207 0.0
C400 C 0.75143 0.05922 0.68969 0.0
C401 C 0.753 0.03455 0.68293 0.0
C402 C 0.7554 0.07701 0.67318 0.0
C403 C 0.76087 0.07046 0.64963 0.0
C404 C 0.76321 0.04578 0.64302 0.0
H405 H 0.77665 0.15504 0.52226 0.0
H406 H 0.77607 0.12197 0.5509 0.0
C407 C 0.75928 0.028 0.65948 0.0
C408 C 0.76375 0.08945 0.63185 0.0
H409 H 0.73864 0.11607 0.58135 0.0
C410 C 0.78306 0.10303 0.63438 0.0
C411 C 0.74755 0.09417 0.6125 0.0
C412 C 0.72598 0.08072 0.60937 0.0
C413 C 0.78677 0.12106 0.61788 0.0
C414 C 0.77042 0.12594 0.59863 0.0
C415 C 0.75121 0.11223 0.59605 0.0
C416 C 0.77231 0.14579 0.58142 0.0
C417 C 0.80839 0.13442 0.62101 0.0
C418 C 0.7703 0.17014 0.58906 0.0
C419 C 0.7707 0.18904 0.57278 0.0
C420 C 0.77288 0.184 0.54847 0.0
C421 C 0.77505 0.15955 0.54085 0.0
C422 C 0.77468 0.14063 0.55719 0.0
H423 H 0.82284 0.12381 0.63207 0.0
H424 H 0.81642 0.13824 0.60371 0.0
H425 H 0.80232 0.15213 0.62998 0.0
H426 H 0.76786 0.17463 0.6076 0.0
H427 H 0.76881 0.20765 0.57928 0.0
H428 H 0.98318 0.04938 0.91983 0.0
H429 H 0.95735 0.06507 0.88656 0.0
H430 H 0.89311 0.06114 0.92856 0.0
H431 H 0.91887 0.04639 0.96212 0.0
H432 H 0.92897 0.03896 0.86529 0.0
H433 H 0.87118 0.12352 0.89437 0.0
H434 H 0.89835 0.11055 0.9103 0.0
H435 H 0.86965 0.0998 0.91556 0.0
C436 C 0.96354 0.0524 0.9221 0.0
C437 C 0.95297 0.04646 0.94344 0.0
C438 C 0.94882 0.06147 0.90312 0.0
C439 C 0.92328 0.06458 0.9051 0.0
C440 C 0.91274 0.05962 0.92677 0.0
H441 H 0.80221 0.03967 0.83275 0.0
H442 H 0.83322 0.05212 0.8587 0.0
C443 C 0.92748 0.05091 0.94589 0.0
C444 C 0.90778 0.06904 0.88375 0.0
H445 H 0.8531 0.09941 0.86446 0.0
C446 C 0.91279 0.05272 0.86476 0.0
C447 C 0.88675 0.08706 0.88297 0.0
C448 C 0.88136 0.10637 0.90183 0.0
C449 C 0.89626 0.05249 0.84607 0.0
C450 C 0.87424 0.06911 0.84637 0.0
C451 C 0.87001 0.08663 0.8644 0.0
C452 C 0.8539 0.06559 0.83055 0.0
C453 C 0.90153 0.03323 0.8271 0.0
C454 C 0.85504 0.06962 0.80616 0.0
C455 C 0.83728 0.06246 0.79117 0.0
C456 C 0.81835 0.05103 0.80046 0.0
C457 C 0.81673 0.04815 0.82502 0.0
C458 C 0.83431 0.05543 0.83991 0.0
H459 H 0.91874 0.02054 0.83045 0.0
H460 H 0.88627 0.02236 0.82584 0.0
H461 H 0.90311 0.0422 0.80978 0.0
H462 H 0.87007 0.07751 0.7987 0.0
H463 H 0.83889 0.06502 0.77232 0.0
H464 H 0.00938 0.97102 0.06162 0.0
H465 H 0.03597 0.96284 0.09617 0.0
H466 H 0.09647 0.98183 0.05591 0.0
H467 H 0.07035 0.98851 0.02101 0.0
H468 H 0.11202 0.94684 0.08658 0.0
H469 H 0.0504 0.0208 0.13242 0.0
H470 H 0.03611 0.995 0.12425 0.0
H471 H 0.04672 0.01378 0.10172 0.0
C472 C 0.02851 0.97291 0.06008 0.0
C473 C 0.03778 0.98082 0.03885 0.0
C474 C 0.0436 0.96842 0.07983 0.0
C475 C 0.06795 0.97259 0.07885 0.0
C476 C 0.07766 0.97871 0.05714 0.0
H477 H 0.15539 0.03406 0.17597 0.0
H478 H 0.1255 0.02276 0.14816 0.0
C479 C 0.06273 0.98258 0.03721 0.0
C480 C 0.08277 0.9729 0.10061 0.0
H481 H 0.08536 0.00315 0.15286 0.0
C482 C 0.10616 0.95898 0.10121 0.0
C483 C 0.07509 0.98895 0.11957 0.0
C484 C 0.05083 0.00565 0.11945 0.0
C485 C 0.12253 0.96149 0.11967 0.0
C486 C 0.11491 0.97774 0.13847 0.0
C487 C 0.09108 0.99065 0.13847 0.0
C488 C 0.13215 0.98412 0.15665 0.0
C489 C 0.14826 0.94789 0.11807 0.0
C490 C 0.14548 0.96624 0.17109 0.0
C491 C 0.16298 0.97264 0.18681 0.0
C492 C 0.16697 0.99709 0.18865 0.0
C493 C 0.15273 0.01508 0.17501 0.0
C494 C 0.13561 0.00863 0.15908 0.0
H495 H 0.15259 0.94051 0.10007 0.0
H496 H 0.16179 0.95998 0.12287 0.0
H497 H 0.15038 0.93225 0.13053 0.0
H498 H 0.14262 0.94734 0.16998 0.0
H499 H 0.17356 0.95844 0.19729 0.0
H500 H -0.00048 0.44953 0.43946 0.0
H501 H 0.00144 0.42067 0.40654 0.0
H502 H 0.02117 0.36054 0.45467 0.0
H503 H 0.01891 0.3892 0.48777 0.0
H504 H 0.03873 0.38472 0.38942 0.0
H505 H 0.95951 0.34393 0.42232 0.0
H506 H 0.96732 0.37219 0.43382 0.0
H507 H 0.98394 0.34336 0.44329 0.0
C508 C 0.00447 0.43018 0.44305 0.0
C509 C 0.0088 0.42163 0.4663 0.0
C510 C 0.00557 0.41373 0.4242 0.0
C511 C 0.01098 0.38847 0.42824 0.0
C512 C 0.01644 0.37995 0.45125 0.0
H513 H 0.01403 0.25902 0.34219 0.0
H514 H 0.01851 0.28871 0.37321 0.0
C515 C 0.01526 0.39637 0.47013 0.0
C516 C 0.01008 0.37101 0.40852 0.0
H517 H 0.98066 0.3246 0.38947 0.0
C518 C 0.02601 0.37161 0.38936 0.0
C519 C -0.00667 0.35405 0.40846 0.0
C520 C 0.97488 0.35341 0.42795 0.0
C521 C 0.02601 0.35526 0.37034 0.0
C522 C 0.00944 0.33815 0.37044 0.0
C523 C -0.00657 0.33768 0.38953 0.0
C524 C 0.00834 0.32042 0.35101 0.0
C525 C 0.04406 0.35607 0.35056 0.0
C526 C 0.00116 0.32844 0.3282 0.0
C527 C -0.00146 0.31149 0.31037 0.0
C528 C 0.00295 0.28624 0.31512 0.0
C529 C 0.01048 0.27832 0.33791 0.0
C530 C 0.01306 0.29525 0.35569 0.0
H531 H 0.05912 0.3662 0.3557 0.0
H532 H 0.05203 0.3373 0.345 0.0
H533 H 0.03449 0.36546 0.33512 0.0
H534 H -0.00299 0.3478 0.32434 0.0
H535 H -0.00736 0.31818 0.29302 0.0
H536 H 0.65851 0.27845 0.50741 0.0
H537 H 0.63259 0.29243 0.54128 0.0
H538 H 0.69343 0.27094 0.58828 0.0
H539 H 0.71937 0.25743 0.55481 0.0
H540 H 0.62229 0.26146 0.57528 0.0
H541 H 0.6639 0.33558 0.61682 0.0
H542 H 0.67059 0.32565 0.58683 0.0
H543 H 0.68651 0.30944 0.61121 0.0
C544 C 0.66645 0.27724 0.52493 0.0
C545 C 0.69088 0.26663 0.52848 0.0
C546 C 0.65166 0.28527 0.54423 0.0
C547 C 0.66119 0.28305 0.56725 0.0
C548 C 0.68584 0.27342 0.57066 0.0
H549 H 0.60342 0.23897 0.69426 0.0
H550 H 0.62548 0.24579 0.65818 0.0
C551 C 0.70057 0.26539 0.55148 0.0
C552 C 0.64492 0.28722 0.58795 0.0
H553 H 0.64105 0.31244 0.6431 0.0
C554 C 0.62603 0.27306 0.58989 0.0
C555 C 0.64966 0.3025 0.60692 0.0
C556 C 0.66862 0.31934 0.60523 0.0
C557 C 0.6129 0.27246 0.61089 0.0
C558 C 0.61912 0.28609 0.6305 0.0
C559 C 0.63676 0.30161 0.62811 0.0
C560 C 0.60819 0.28331 0.65385 0.0
C561 C 0.59295 0.25668 0.61217 0.0
C562 C 0.59213 0.30257 0.66383 0.0
C563 C 0.57953 0.29877 0.6845 0.0
C564 C 0.58292 0.27566 0.69545 0.0
C565 C 0.60025 0.25691 0.68617 0.0
C566 C 0.6128 0.26073 0.66553 0.0
H567 H 0.5862 0.25263 0.59434 0.0
H568 H 0.60025 0.23904 0.62073 0.0
H569 H 0.57731 0.26566 0.62284 0.0
H570 H 0.58854 0.32016 0.65507 0.0
H571 H 0.56638 0.31363 0.69129 0.0
H572 H 0.74975 0.94072 0.80853 0.0
H573 H 0.74591 0.90866 0.83749 0.0
H574 H 0.7333 0.96311 0.89242 0.0
H575 H 0.73667 0.99522 0.86365 0.0
H576 H 0.77504 0.897 0.87607 0.0
H577 H 0.67917 0.92305 0.90483 0.0
H578 H 0.69101 0.93521 0.87842 0.0
H579 H 0.69643 0.94794 0.90685 0.0
C580 C 0.7458 0.94591 0.82672 0.0
C581 C 0.74348 0.97056 0.83376 0.0
C582 C 0.74364 0.92755 0.84324 0.0
C583 C 0.73896 0.9335 0.86706 0.0
C584 C 0.73632 0.95812 0.87405 0.0
H585 H 0.74589 0.8619 0.00138 0.0
H586 H 0.74071 0.88995 0.96779 0.0
C587 C 0.73843 0.97646 0.85757 0.0
C588 C 0.7386 0.91395 0.88496 0.0
H589 H 0.70492 0.89543 0.93012 0.0
C590 C 0.75957 0.89642 0.88766 0.0
C591 C 0.71841 0.91324 0.90009 0.0
C592 C 0.69489 0.93072 0.89728 0.0
C593 C 0.76129 0.87883 0.90569 0.0
C594 C 0.74138 0.87858 0.92123 0.0
C595 C 0.72018 0.89572 0.91821 0.0
C596 C 0.74274 0.86141 0.94143 0.0
C597 C 0.78476 0.86126 0.90856 0.0
C598 C 0.74499 0.83607 0.93774 0.0
C599 C 0.74791 0.81995 0.95691 0.0
C600 C 0.74861 0.82892 0.98013 0.0
C601 C 0.74551 0.85437 0.98375 0.0
C602 C 0.74252 0.87045 0.96458 0.0
H603 H 0.79992 0.86691 0.89811 0.0
H604 H 0.79035 0.85979 0.9274 0.0
H605 H 0.78191 0.84283 0.90246 0.0
H606 H 0.74484 0.82876 0.92001 0.0
H607 H 0.75018 0.80046 0.9535 0.0
H608 H 0.16912 0.31036 0.01409 0.0
H609 H 0.14054 0.32669 0.04518 0.0
H610 H 0.19342 0.29824 0.09808 0.0
H611 H 0.22212 0.28247 0.06735 0.0
H612 H 0.12236 0.29787 0.07597 0.0
H613 H 0.16764 0.36369 0.12634 0.0
H614 H 0.17738 0.35357 0.09706 0.0
H615 H 0.18791 0.33548 0.12256 0.0
C616 C 0.17483 0.30807 0.03235 0.0
C617 C 0.1978 0.29496 0.03828 0.0
C618 C 0.15852 0.31748 0.05007 0.0
C619 C 0.16499 0.31405 0.07395 0.0
C620 C 0.18826 0.30175 0.07981 0.0
H621 H 0.10938 0.28453 0.20429 0.0
H622 H 0.13278 0.29709 0.1712 0.0
C623 C 0.20455 0.29244 0.06218 0.0
C624 C 0.14648 0.31979 0.09273 0.0
H625 H 0.13886 0.34303 0.14851 0.0
C626 C 0.12556 0.30835 0.09156 0.0
C627 C 0.15074 0.33344 0.11304 0.0
C628 C 0.17204 0.34744 0.1147 0.0
C629 C 0.10983 0.30852 0.11088 0.0
C630 C 0.115 0.32081 0.13178 0.0
C631 C 0.13504 0.33356 0.13246 0.0
C632 C 0.10153 0.31786 0.1538 0.0
C633 C 0.08881 0.29405 0.10936 0.0
C634 C 0.07643 0.32634 0.15542 0.0
C635 C 0.06295 0.31902 0.17421 0.0
C636 C 0.07445 0.30323 0.1917 0.0
C637 C 0.09994 0.2965 0.19101 0.0
C638 C 0.11337 0.30375 0.17216 0.0
H639 H 0.08964 0.28256 0.0932 0.0
H640 H 0.08865 0.28198 0.125 0.0
H641 H 0.07132 0.30683 0.10908 0.0
H642 H 0.06708 0.33754 0.14153 0.0
H643 H 0.04337 0.32478 0.1744 0.0
H644 H 0.74398 0.43135 0.30831 0.0
H645 H 0.74302 0.39591 0.33393 0.0
H646 H 0.73924 0.4427 0.39515 0.0
H647 H 0.73998 0.47826 0.36972 0.0
H648 H 0.77746 0.37964 0.36907 0.0
H649 H 0.68441 0.40187 0.40696 0.0
H650 H 0.69372 0.41658 0.38077 0.0
H651 H 0.7026 0.42604 0.40946 0.0
C652 C 0.74263 0.43417 0.32721 0.0
C653 C 0.74202 0.45767 0.33697 0.0
C654 C 0.74213 0.41388 0.34182 0.0
C655 C 0.74078 0.41671 0.36642 0.0
C656 C 0.73981 0.44016 0.37619 0.0
H657 H 0.75021 0.32039 0.48735 0.0
H658 H 0.74603 0.35503 0.46007 0.0
C659 C 0.74037 0.46046 0.36161 0.0
C660 C 0.74187 0.39498 0.38193 0.0
H661 H 0.71099 0.36922 0.42499 0.0
C662 C 0.76285 0.37723 0.38116 0.0
C663 C 0.72283 0.39197 0.39776 0.0
C664 C 0.69951 0.41 0.39871 0.0
C665 C 0.76557 0.35683 0.39621 0.0
C666 C 0.74657 0.35387 0.41212 0.0
C667 C 0.72552 0.37154 0.41278 0.0
C668 C 0.74842 0.33276 0.42851 0.0
C669 C 0.78907 0.33903 0.39542 0.0
C670 C 0.75073 0.30875 0.41981 0.0
C671 C 0.75319 0.28888 0.43534 0.0
C672 C 0.75321 0.29267 0.4599 0.0
C673 C 0.75034 0.3168 0.46855 0.0
C674 C 0.74791 0.33664 0.45299 0.0
H675 H 0.80397 0.34707 0.38671 0.0
H676 H 0.79514 0.33307 0.41347 0.0
H677 H 0.78607 0.3226 0.38523 0.0
H678 H 0.75067 0.30536 0.40098 0.0
H679 H 0.75521 0.27056 0.42809 0.0
H680 H 0.59249 0.99125 0.50409 0.0
H681 H 0.62112 0.97727 0.53608 0.0
H682 H 0.56259 0.99217 0.58664 0.0
H683 H 0.53402 0.00568 0.55504 0.0
H684 H 0.63147 0.00713 0.57119 0.0
H685 H 0.59763 0.92749 0.61059 0.0
H686 H 0.58868 0.93863 0.5814 0.0
H687 H 0.57317 0.95244 0.60712 0.0
C688 C 0.58567 0.99102 0.52198 0.0
C689 C 0.56108 -0.00023 0.52709 0.0
C690 C 0.60201 0.98299 0.54019 0.0
C691 C 0.59389 0.98332 0.56367 0.0
C692 C 0.56915 0.99114 0.56861 0.0
H693 H 0.64952 0.02748 0.69052 0.0
H694 H 0.62938 0.01993 0.65347 0.0
C695 C 0.55289 -0.00082 0.55051 0.0
C696 C 0.61146 0.97904 0.58344 0.0
H697 H 0.61935 0.95152 0.63738 0.0
C698 C 0.62925 0.99451 0.58539 0.0
C699 C 0.60876 0.96238 0.60185 0.0
C700 C 0.59118 0.94413 0.6 0.0
C701 C 0.64302 0.99515 0.60605 0.0
C702 C 0.63859 0.98021 0.6253 0.0
C703 C 0.62229 0.9633 0.62271 0.0
C704 C 0.64929 0.98348 0.64871 0.0
C705 C 0.66156 0.01251 0.60747 0.0
C706 C 0.66632 0.965 0.65871 0.0
C707 C 0.67784 0.96921 0.67998 0.0
C708 C 0.67234 0.99193 0.69152 0.0
C709 C 0.65429 0.00986 0.682 0.0
C710 C 0.64286 0.00564 0.66079 0.0
H711 H 0.66765 0.01735 0.58964 0.0
H712 H 0.65317 0.02965 0.6163 0.0
H713 H 0.6778 0.00446 0.6179 0.0
H714 H 0.67131 0.9477 0.64967 0.0
H715 H 0.69163 0.95501 0.68691 0.0
H716 H 0.98462 0.90452 0.99188 0.0
H717 H 0.98658 0.87168 0.96278 0.0
H718 H 0.98907 0.92382 0.90663 0.0
H719 H 0.98679 0.95693 0.93563 0.0
H720 H 0.95439 0.89307 0.89958 0.0
H721 H 0.04397 0.8393 0.92311 0.0
H722 H 0.02361 0.84551 0.94771 0.0
H723 H 0.03476 0.87039 0.93295 0.0
C724 C 0.98587 0.90901 0.97336 0.0
C725 C 0.98559 0.93336 0.96608 0.0
C726 C 0.98713 0.89017 0.95676 0.0
C727 C 0.98833 0.89526 0.93257 0.0
C728 C 0.98831 0.91949 0.92523 0.0
H729 H 0.98164 0.80453 0.80704 0.0
H730 H 0.98579 0.83818 0.83407 0.0
C731 C 0.98704 0.93838 0.94183 0.0
C732 C 0.98812 0.87548 0.91491 0.0
H733 H 0.01844 0.81994 0.89754 0.0
C734 C 0.96852 0.87719 0.89895 0.0
C735 C 0.00652 0.85476 0.91422 0.0
C736 C 0.02853 0.85241 0.93026 0.0
C737 C 0.96645 0.85839 0.88274 0.0
C738 C 0.98471 0.83754 0.88223 0.0
C739 C 0.00446 0.83594 0.89801 0.0
C740 C 0.98332 0.81693 0.86579 0.0
C741 C 0.94434 0.86066 0.86682 0.0
C742 C 0.98132 0.79364 0.87467 0.0
C743 C 0.97909 0.77432 0.85928 0.0
C744 C 0.97892 0.77793 0.83471 0.0
C745 C 0.98155 0.80116 0.82587 0.0
C746 C 0.9838 0.82046 0.84128 0.0
H747 H 0.92938 0.87482 0.8732 0.0
H748 H 0.94954 0.86598 0.84887 0.0
H749 H 0.93729 0.84295 0.86542 0.0
H750 H 0.98104 0.79053 0.89353 0.0
H751 H 0.97716 0.75666 0.86667 0.0
H752 H 0.05677 0.06016 0.93313 0.0
H753 H 0.07627 0.09438 0.91947 0.0
H754 H 0.11708 0.09248 0.98453 0.0
H755 H 0.09781 0.05826 0.99832 0.0
H756 H 0.06944 0.13841 0.94419 0.0
H757 H 0.16786 0.10333 0.93472 0.0
H758 H 0.14475 0.08347 0.93478 0.0
H759 H 0.15584 0.09422 0.96216 0.0
C760 C 0.07041 0.06656 0.94428 0.0
C761 C 0.0756 0.05667 0.96693 0.0
C762 C 0.08148 0.08613 0.93642 0.0
C763 C 0.09816 0.09582 0.95094 0.0
C764 C 0.10455 0.08496 0.97289 0.0
H765 H 0.13056 0.22873 0.99392 0.0
H766 H 0.10928 0.19557 0.98099 0.0
C767 C 0.09342 0.06548 0.98081 0.0
C768 C 0.10635 0.11921 0.94487 0.0
H769 H 0.15737 0.14659 0.94325 0.0
C770 C 0.08866 0.1402 0.94335 0.0
C771 C 0.13136 0.12142 0.94345 0.0
C772 C 0.15103 0.09935 0.94362 0.0
C773 C 0.09544 0.1636 0.94242 0.0
C774 C 0.12047 0.16589 0.94327 0.0
C775 C 0.13813 0.1448 0.94279 0.0
C776 C 0.12887 0.18953 0.94794 0.0
C777 C 0.07576 0.18563 0.94147 0.0
C778 C 0.14644 0.19758 0.93335 0.0
C779 C 0.15877 0.21645 0.94078 0.0
C780 C 0.15388 0.22734 0.96307 0.0
C781 C 0.1348 0.22066 0.97671 0.0
C782 C 0.12249 0.20179 0.96925 0.0
H783 H 0.05905 0.18115 0.93264 0.0
H784 H 0.0707 0.19164 0.95973 0.0
H785 H 0.08209 0.20108 0.93199 0.0
H786 H 0.15164 0.18828 0.91687 0.0
H787 H 0.17325 0.22132 0.92976 0.0
H788 H 0.66226 0.52336 0.30694 0.0
H789 H 0.63075 0.55691 0.31912 0.0
H790 H 0.6792 0.60888 0.30332 0.0
H791 H 0.71095 0.57554 0.29166 0.0
H792 H 0.65019 0.62108 0.34389 0.0
H793 H 0.59567 0.59891 0.26625 0.0
H794 H 0.60354 0.57453 0.28708 0.0
H795 H 0.62716 0.5856 0.27038 0.0
C796 C 0.66633 0.5419 0.30641 0.0
C797 C 0.68893 0.54686 0.29795 0.0
C798 C 0.64832 0.56102 0.31335 0.0
C799 C 0.65255 0.58534 0.31167 0.0
C800 C 0.67559 0.59021 0.30467 0.0
H801 H 0.57885 0.73029 0.29902 0.0
H802 H 0.60781 0.69403 0.3094 0.0
C803 C 0.69366 0.57113 0.2979 0.0
C804 C 0.63242 0.60586 0.31476 0.0
H805 H 0.5797 0.63299 0.28878 0.0
C806 C 0.63459 0.6236 0.33206 0.0
C807 C 0.61222 0.60908 0.29917 0.0
C808 C 0.60949 0.59117 0.27953 0.0
C809 C 0.61717 0.64477 0.33394 0.0
C810 C 0.59738 0.64828 0.31791 0.0
C811 C 0.59483 0.63014 0.30115 0.0
C812 C 0.58004 0.67134 0.31659 0.0
C813 C 0.62022 0.66326 0.35287 0.0
C814 C 0.55485 0.6707 0.31747 0.0
C815 C 0.5383 0.69123 0.31115 0.0
C816 C 0.54668 0.71278 0.3038 0.0
C817 C 0.57185 0.71393 0.30451 0.0
C818 C 0.58843 0.69328 0.31067 0.0
H819 H 0.63119 0.65465 0.36793 0.0
H820 H 0.62999 0.67758 0.34539 0.0
H821 H 0.60225 0.67223 0.35958 0.0
H822 H 0.54804 0.65391 0.32191 0.0
H823 H 0.519 0.68986 0.31104 0.0
H824 H 0.29723 0.83549 0.5688 0.0
H825 H 0.32729 0.8594 0.58502 0.0
H826 H 0.36285 0.85767 0.5173 0.0
H827 H 0.33309 0.83384 0.50092 0.0
H828 H 0.3846 0.84884 0.58227 0.0
H829 H 0.33794 0.93249 0.53753 0.0
H830 H 0.3227 0.90662 0.54411 0.0
H831 H 0.34317 0.90545 0.51946 0.0
C832 C 0.3116 0.84 0.55742 0.0
C833 C 0.31267 0.83298 0.53351 0.0
C834 C 0.32875 0.85355 0.56675 0.0
C835 C 0.34708 0.86029 0.55227 0.0
C836 C 0.34871 0.85262 0.52867 0.0
H837 H 0.47686 0.91863 0.55108 0.0
H838 H 0.44681 0.89177 0.55904 0.0
C839 C 0.33166 0.83907 0.51935 0.0
C840 C 0.36364 0.87677 0.56104 0.0
H841 H 0.37814 0.93357 0.55161 0.0
C842 C 0.38307 0.86753 0.57598 0.0
C843 C 0.3612 0.9012 0.55312 0.0
C844 C 0.34003 0.91219 0.53782 0.0
C845 C 0.40109 0.88182 0.58206 0.0
C846 C 0.39965 0.90567 0.57261 0.0
C847 C 0.37932 0.91529 0.55887 0.0
C848 C 0.42003 0.92015 0.57414 0.0
C849 C 0.42168 0.87107 0.59811 0.0
C850 C 0.41532 0.94493 0.58058 0.0
C851 C 0.4323 0.96045 0.57557 0.0
C852 C 0.45433 0.95138 0.56417 0.0
C853 C 0.46006 0.92614 0.55992 0.0
C854 C 0.44292 0.91068 0.56465 0.0
H855 H 0.41561 0.85766 0.61052 0.0
H856 H 0.43672 0.86119 0.5873 0.0
H857 H 0.42892 0.88547 0.60845 0.0
H858 H 0.39778 0.95262 0.58792 0.0
H859 H 0.42751 0.97981 0.57924 0.0
H860 H 0.06163 0.71226 0.79281 0.0
H861 H 0.09191 0.67778 0.80471 0.0
H862 H 0.03555 0.63202 0.80969 0.0
H863 H 0.00507 0.66637 0.79705 0.0
H864 H 0.09911 0.64489 0.84233 0.0
H865 H 0.07976 0.59923 0.75799 0.0
H866 H 0.06746 0.63066 0.76408 0.0
H867 H 0.05463 0.60636 0.77806 0.0
C868 C 0.05557 0.69498 0.79676 0.0
C869 C 0.03108 0.69184 0.79351 0.0
C870 C 0.07288 0.67533 0.80369 0.0
C871 C 0.06599 0.65229 0.80764 0.0
C872 C 0.04126 0.64957 0.80623 0.0
H873 H 0.17673 0.5233 0.79329 0.0
H874 H 0.13868 0.54678 0.80765 0.0
C875 C 0.02391 0.66918 0.79902 0.0
C876 C 0.08523 0.6309 0.81035 0.0
H877 H 0.11387 0.58197 0.77944 0.0
C878 C 0.10212 0.6308 0.82887 0.0
C879 C 0.08902 0.61255 0.79275 0.0
C880 C 0.07191 0.61215 0.77199 0.0
C881 C 0.12348 0.61358 0.82951 0.0
C882 C 0.128 0.59631 0.81107 0.0
C883 C 0.11026 0.59529 0.79356 0.0
C884 C 0.15217 0.5815 0.80741 0.0
C885 C 0.1414 0.61457 0.84943 0.0
C886 C 0.17243 0.59326 0.80288 0.0
C887 C 0.19415 0.57996 0.79453 0.0
C888 C 0.19585 0.55472 0.79041 0.0
C889 C 0.17593 0.54278 0.79614 0.0
C890 C 0.15423 0.5561 0.80447 0.0
H891 H 0.13202 0.62238 0.86566 0.0
H892 H 0.15146 0.59611 0.85352 0.0
H893 H 0.15486 0.62656 0.84426 0.0
H894 H 0.17103 0.61294 0.80448 0.0
H895 H 0.2092 0.58965 0.79038 0.0
H896 H 0.77277 0.3389 0.55554 0.0
H897 H 0.79786 0.37162 0.55803 0.0
H898 H 0.86311 0.31812 0.55669 0.0
H899 H 0.83825 0.2853 0.5538 0.0
H900 H 0.8394 0.38351 0.58661 0.0
H901 H 0.86183 0.35735 0.49349 0.0
H902 H 0.83726 0.34663 0.5093 0.0
H903 H 0.86834 0.33294 0.51453 0.0
C904 C 0.79244 0.33404 0.55646 0.0
C905 C 0.80358 0.30958 0.55395 0.0
C906 C 0.80673 0.35276 0.55794 0.0
C907 C 0.83225 0.34721 0.55709 0.0
C908 C 0.84338 0.3227 0.55705 0.0
H909 H 0.94429 0.4405 0.55441 0.0
H910 H 0.91547 0.4138 0.56731 0.0
C911 C 0.82916 0.304 0.55537 0.0
C912 C 0.84701 0.3668 0.55257 0.0
H913 H 0.88188 0.38797 0.51006 0.0
C914 C 0.84873 0.38458 0.56992 0.0
C915 C 0.85866 0.36832 0.53055 0.0
C916 C 0.85632 0.35046 0.51078 0.0
C917 C 0.86232 0.4037 0.56592 0.0
C918 C 0.87455 0.40474 0.54413 0.0
C919 C 0.8725 0.3871 0.52675 0.0
C920 C 0.88992 0.42366 0.53871 0.0
C921 C 0.86318 0.42277 0.58482 0.0
C922 C 0.88506 0.43811 0.51841 0.0
C923 C 0.90163 0.45306 0.51079 0.0
C924 C 0.92338 0.45385 0.52338 0.0
C925 C 0.92765 0.4403 0.54437 0.0
C926 C 0.91111 0.42518 0.55188 0.0
H927 H 0.84779 0.42323 0.59744 0.0
H928 H 0.88049 0.41837 0.59489 0.0
H929 H 0.86261 0.44124 0.57696 0.0
H930 H 0.86882 0.43711 0.50796 0.0
H931 H 0.89775 0.46342 0.49465 0.0
H932 H 0.32537 0.98174 0.19835 0.0
H933 H 0.35978 0.94929 0.19199 0.0
H934 H 0.31527 0.89543 0.213 0.0
H935 H 0.2806 0.92777 0.21924 0.0
H936 H 0.3769 0.92134 0.23112 0.0
H937 H 0.35538 0.86197 0.15744 0.0
H938 H 0.3403 0.8931 0.16112 0.0
H939 H 0.33123 0.86894 0.17863 0.0
C940 C 0.3227 0.96295 0.20108 0.0
C941 C 0.30039 0.95731 0.20964 0.0
C942 C 0.34235 0.94445 0.19732 0.0
C943 C 0.33999 0.92002 0.20188 0.0
C944 C 0.3173 0.91415 0.20894 0.0
H945 H 0.42718 0.78746 0.24143 0.0
H946 H 0.39607 0.8196 0.22608 0.0
C947 C 0.29757 0.93267 0.21269 0.0
C948 C 0.36203 0.90143 0.20333 0.0
H949 H 0.38738 0.84492 0.18387 0.0
C950 C 0.37949 0.90482 0.22049 0.0
C951 C 0.36507 0.87989 0.18959 0.0
C952 C 0.34711 0.87578 0.1705 0.0
C953 C 0.39939 0.88669 0.22512 0.0
C954 C 0.40225 0.86485 0.2117 0.0
C955 C 0.38518 0.86176 0.194 0.0
C956 C 0.42159 0.84427 0.21742 0.0
C957 C 0.41636 0.89056 0.24524 0.0
C958 C 0.4463 0.84721 0.21685 0.0
C959 C 0.4641 0.82905 0.226 0.0
C960 C 0.45743 0.80751 0.2354 0.0
C961 C 0.43286 0.80392 0.2344 0.0
C962 C 0.41507 0.82221 0.22556 0.0
H963 H 0.4084 0.90577 0.25701 0.0
H964 H 0.42072 0.87371 0.25603 0.0
H965 H 0.43368 0.89519 0.23799 0.0
H966 H 0.45171 0.86393 0.21015 0.0
H967 H 0.48296 0.83211 0.2262 0.0
H968 H 0.33305 0.50181 0.73772 0.0
H969 H 0.36743 0.47045 0.72702 0.0
H970 H 0.31703 0.42341 0.70278 0.0
H971 H 0.28274 0.45427 0.71388 0.0
H972 H 0.34714 0.40482 0.73993 0.0
H973 H 0.40121 0.43785 0.66745 0.0
H974 H 0.3934 0.45905 0.6913 0.0
H975 H 0.36965 0.45042 0.67293 0.0
C976 C 0.32935 0.48504 0.72954 0.0
C977 C 0.30529 0.48019 0.72712 0.0
C978 C 0.34899 0.46725 0.72325 0.0
C979 C 0.34469 0.44469 0.71409 0.0
C980 C 0.32067 0.44074 0.70981 0.0
H981 H 0.43167 0.30049 0.71311 0.0
H982 H 0.40052 0.33543 0.70377 0.0
C983 C 0.30113 0.45832 0.71631 0.0
C984 C 0.36456 0.42371 0.71314 0.0
H985 H 0.4196 0.40214 0.68812 0.0
C986 C 0.36284 0.40408 0.72838 0.0
C987 C 0.3851 0.4231 0.69831 0.0
C988 C 0.38748 0.44363 0.68141 0.0
C989 C 0.38133 0.38393 0.72953 0.0
C990 C 0.40186 0.38316 0.71461 0.0
C991 C 0.40365 0.40276 0.69931 0.0
C992 C 0.42209 0.36256 0.71585 0.0
C993 C 0.37909 0.36405 0.74733 0.0
C994 C 0.44488 0.36646 0.72455 0.0
C995 C 0.46277 0.34658 0.72973 0.0
C996 C 0.458 0.32255 0.72637 0.0
C997 C 0.4357 0.31879 0.71622 0.0
C998 C 0.41793 0.33869 0.71085 0.0
H999 H 0.36516 0.3702 0.76102 0.0
H1000 H 0.37349 0.34806 0.73813 0.0
H1001 H 0.39683 0.35796 0.75625 0.0
H1002 H 0.44838 0.3848 0.72848 0.0
H1003 H 0.47986 0.35005 0.73737 0.0
H1004 H 0.20643 0.82253 0.58026 0.0
H1005 H 0.18081 0.82018 0.61502 0.0
H1006 H 0.1288 0.78864 0.57255 0.0
H1007 H 0.1539 0.79165 0.53757 0.0
H1008 H 0.10684 0.81921 0.6075 0.0
H1009 H 0.18296 0.75209 0.64324 0.0
H1010 H 0.19095 0.78172 0.6371 0.0
H1011 H 0.18254 0.76312 0.61329 0.0
C1012 C 0.18923 0.81565 0.57823 0.0
C1013 C 0.18237 0.80683 0.55632 0.0
C1014 C 0.17472 0.81419 0.59811 0.0
C1015 C 0.15337 0.80353 0.59642 0.0
C1016 C 0.14538 0.79671 0.57421 0.0
H1017 H 0.0852 0.72026 0.69593 0.0
H1018 H 0.11011 0.73601 0.66577 0.0
C1019 C 0.15973 0.79846 0.55424 0.0
C1020 C 0.14062 0.79729 0.61792 0.0
H1021 H 0.14804 0.76135 0.66711 0.0
C1022 C 0.11583 0.80671 0.62066 0.0
C1023 C 0.15239 0.78058 0.63475 0.0
C1024 C 0.1786 0.76858 0.63192 0.0
C1025 C 0.10235 0.79967 0.63972 0.0
C1026 C 0.11423 0.78328 0.65675 0.0
C1027 C 0.1391 0.77413 0.65415 0.0
C1028 C 0.10079 0.77389 0.6764 0.0
C1029 C 0.07531 0.809 0.64084 0.0
C1030 C 0.08802 0.78989 0.69287 0.0
C1031 C 0.07359 0.78096 0.71 0.0
C1032 C 0.07203 0.75584 0.71112 0.0
C1033 C 0.08602 0.7397 0.69551 0.0
C1034 C 0.10022 0.74868 0.67824 0.0
H1035 H 0.06805 0.81643 0.62359 0.0
H1036 H 0.06492 0.79426 0.64627 0.0
H1037 H 0.07197 0.82395 0.65405 0.0
H1038 H 0.08879 0.80933 0.69215 0.0
H1039 H 0.06319 0.7938 0.72198 0.0
H1040 H 0.25665 0.94938 0.29032 0.0
H1041 H 0.24946 0.92185 0.32261 0.0
H1042 H 0.24084 0.98265 0.37114 0.0
H1043 H 0.2483 0.01012 0.33922 0.0
H1044 H 0.27356 0.943 0.38664 0.0
H1045 H 0.1865 0.91361 0.35774 0.0
H1046 H 0.21063 0.90962 0.33628 0.0
H1047 H 0.19761 0.93992 0.34535 0.0
C1048 C 0.25295 0.95691 0.30782 0.0
C1049 C 0.25308 0.98194 0.3122 0.0
C1050 C 0.24871 0.94118 0.32623 0.0
C1051 C 0.24435 0.95026 0.34923 0.0
C1052 C 0.24409 0.97528 0.35351 0.0
H1053 H 0.22681 0.8943 0.48959 0.0
H1054 H 0.22785 0.91944 0.45425 0.0
C1055 C 0.24836 0.99096 0.33521 0.0
C1056 C 0.24161 0.93364 0.36927 0.0
H1057 H 0.20557 0.8942 0.3917 0.0
C1058 C 0.25866 0.93238 0.38776 0.0
C1059 C 0.22226 0.91966 0.37061 0.0
C1060 C 0.20306 0.92083 0.35155 0.0
C1061 C 0.25691 0.91755 0.40756 0.0
C1062 C 0.23731 0.90392 0.40913 0.0
C1063 C 0.22047 0.9048 0.39048 0.0
C1064 C 0.23413 0.88877 0.43014 0.0
C1065 C 0.27626 0.91635 0.42651 0.0
C1066 C 0.23627 0.86325 0.42816 0.0
C1067 C 0.23555 0.84881 0.44834 0.0
C1068 C 0.2326 0.85967 0.47084 0.0
C1069 C 0.22929 0.88533 0.47258 0.0
C1070 C 0.22999 0.89973 0.45241 0.0
H1071 H 0.29307 0.92284 0.41997 0.0
H1072 H 0.26909 0.92822 0.4415 0.0
H1073 H 0.28122 0.89739 0.43323 0.0
H1074 H 0.23935 0.85447 0.41111 0.0
H1075 H 0.2381 0.8291 0.44635 0.0
H1076 H 0.98763 0.7384 0.65814 0.0
H1077 H 0.98465 0.70825 0.62718 0.0
H1078 H -0.00425 0.65036 0.6788 0.0
H1079 H -0.00158 0.68047 0.71004 0.0
H1080 H 0.02152 0.67065 0.61542 0.0
H1081 H 0.93732 0.63385 0.64087 0.0
H1082 H 0.94482 0.6622 0.65256 0.0
H1083 H 0.95968 0.63342 0.66394 0.0
C1084 C 0.98914 0.71929 0.663 0.0
C1085 C -0.00671 0.71183 0.68656 0.0
C1086 C 0.98743 0.70209 0.64526 0.0
C1087 C 0.98972 0.67711 0.65072 0.0
C1088 C -0.00656 0.66959 0.67427 0.0
H1089 H 0.00566 0.54665 0.56308 0.0
H1090 H 0.00077 0.57559 0.59608 0.0
C1091 C -0.0049 0.68682 0.69208 0.0
C1092 C 0.99003 0.65893 0.63145 0.0
H1093 H 0.96098 0.61326 0.60988 0.0
C1094 C 0.0082 0.6582 0.61414 0.0
C1095 C 0.97274 0.64259 0.62996 0.0
C1096 C 0.95239 0.6431 0.64769 0.0
C1097 C 0.00969 0.64145 0.59543 0.0
C1098 C -0.00773 0.62527 0.59377 0.0
C1099 C 0.97422 0.62579 0.61119 0.0
C1100 C -0.00728 0.60769 0.57401 0.0
C1101 C 0.03017 0.64091 0.5778 0.0
C1102 C 0.98904 0.61617 0.55076 0.0
C1103 C -0.00816 0.59973 0.53188 0.0
C1104 C -0.00171 0.5745 0.53594 0.0
C1105 C 0.00079 0.56598 0.55935 0.0
C1106 C -0.00202 0.58246 0.57823 0.0
H1107 H 0.04516 0.65025 0.58464 0.0
H1108 H 0.03785 0.62179 0.57309 0.0
H1109 H 0.02297 0.65043 0.56144 0.0
H1110 H 0.98456 0.63557 0.5472 0.0
H1111 H 0.9896 0.60689 0.5141 0.0
H1112 H 0.30972 0.76642 0.48701 0.0
H1113 H 0.3384 0.75942 0.45415 0.0
H1114 H 0.28327 0.73273 0.41163 0.0
H1115 H 0.25408 0.74095 0.44403 0.0
H1116 H 0.35796 0.72202 0.42678 0.0
H1117 H 0.29703 0.79011 0.37327 0.0
H1118 H 0.2917 0.78515 0.40411 0.0
H1119 H 0.28325 0.76427 0.38228 0.0
C1120 C 0.30379 0.75885 0.47074 0.0
C1121 C 0.27953 0.75485 0.46778 0.0
C1122 C 0.32021 0.75476 0.45201 0.0
C1123 C 0.31269 0.74625 0.43025 0.0
C1124 C 0.28915 0.74008 0.42803 0.0
H1125 H 0.42197 0.72177 0.31683 0.0
H1126 H 0.39051 0.7143 0.34505 0.0
C1127 C 0.27257 0.74466 0.44656 0.0
C1128 C 0.3289 0.74581 0.40953 0.0
H1129 H 0.3334 0.77164 0.35539 0.0
C1130 C 0.35259 0.73271 0.41106 0.0
C1131 C 0.32184 0.76008 0.38923 0.0
C1132 C 0.29717 0.77589 0.38713 0.0
C1133 C 0.36974 0.73405 0.39313 0.0
C1134 C 0.36262 0.74824 0.3728 0.0
C1135 C 0.33868 0.76065 0.37094 0.0
C1136 C 0.38028 0.75246 0.3543 0.0
C1137 C 0.39558 0.72133 0.39671 0.0
C1138 C 0.38403 0.77646 0.34931 0.0
C1139 C 0.40152 0.78082 0.33286 0.0
C1140 C 0.41574 0.7612 0.3213 0.0
C1141 C 0.41142 0.73721 0.32571 0.0
C1142 C 0.39362 0.73289 0.34193 0.0
H1143 H 0.39935 0.7163 0.41549 0.0
H1144 H 0.39848 0.70426 0.38613 0.0
H1145 H 0.409 0.7331 0.39087 0.0
H1146 H 0.37383 0.79184 0.35861 0.0
H1147 H 0.40446 0.79949 0.32984 0.0
H1148 H 0.24515 0.01104 0.12993 0.0
H1149 H 0.24603 0.04188 0.09918 0.0
H1150 H 0.24714 0.09746 0.15243 0.0
H1151 H 0.24652 0.06674 0.18335 0.0
H1152 H 0.21056 0.08314 0.09284 0.0
H1153 H 0.30215 0.10972 0.10761 0.0
H1154 H 0.29356 0.08192 0.11943 0.0
H1155 H 0.28347 0.11078 0.13357 0.0
C1156 C 0.24591 0.02976 0.13514 0.0
C1157 C 0.24579 0.03642 0.1591 0.0
C1158 C 0.24638 0.04735 0.11753 0.0
C1159 C 0.24692 0.07188 0.12353 0.0
C1160 C 0.2472 0.07854 0.14742 0.0
H1161 H 0.23424 0.20832 0.04661 0.0
H1162 H 0.23904 0.17594 0.07639 0.0
C1163 C 0.24672 0.06097 0.16506 0.0
C1164 C 0.24556 0.09072 0.10482 0.0
H1165 H 0.27551 0.13478 0.08153 0.0
C1166 C 0.22483 0.09431 0.09022 0.0
C1167 C 0.26416 0.10533 0.10158 0.0
C1168 C 0.28721 0.10167 0.11623 0.0
C1169 C 0.22195 0.11247 0.07275 0.0
C1170 C 0.24053 0.12712 0.06951 0.0
C1171 C 0.26131 0.12349 0.08406 0.0
C1172 C 0.23854 0.14651 0.0513 0.0
C1173 C 0.19873 0.11627 0.05833 0.0
C1174 C 0.23714 0.14062 0.02729 0.0
C1175 C 0.23433 0.15907 0.01022 0.0
C1176 C 0.23304 0.18374 0.01686 0.0
C1177 C 0.23509 0.18951 0.0409 0.0
C1178 C 0.23786 0.17104 0.05795 0.0
H1179 H 0.18395 0.10788 0.06685 0.0
H1180 H 0.19217 0.13606 0.05559 0.0
H1181 H 0.20236 0.10761 0.04076 0.0
H1182 H 0.2381 0.12175 0.02176 0.0
H1183 H 0.23297 0.15398 0.99186 0.0
H1184 H 0.82159 0.73003 0.98129 0.0
H1185 H 0.84338 0.72061 0.94423 0.0
H1186 H 0.78009 0.69463 0.91471 0.0
H1187 H 0.7577 0.70543 0.95139 0.0
H1188 H 0.85674 0.68296 0.91555 0.0
H1189 H 0.78617 0.75019 0.87121 0.0
H1190 H 0.78686 0.74595 0.90271 0.0
H1191 H 0.77505 0.72427 0.88384 0.0
C1192 C 0.81247 0.72192 0.96704 0.0
C1193 C 0.78784 0.71896 0.96892 0.0
C1194 C 0.82494 0.71649 0.94588 0.0
C1195 C 0.81308 0.70763 0.92647 0.0
C1196 C 0.78928 0.70225 0.92919 0.0
H1197 H 0.90762 0.69312 0.80033 0.0
H1198 H 0.87875 0.68114 0.82921 0.0
C1199 C 0.7766 0.70826 0.95016 0.0
C1200 C 0.82489 0.70663 0.90302 0.0
H1201 H 0.82008 0.73391 0.84887 0.0
C1202 C 0.84865 0.69382 0.90081 0.0
C1203 C 0.81425 0.72098 0.8839 0.0
C1204 C 0.78928 0.7363 0.88549 0.0
C1205 C 0.8627 0.69618 0.88061 0.0
C1206 C 0.85226 0.71105 0.86177 0.0
C1207 C 0.82794 0.72249 0.86334 0.0
C1208 C 0.86718 0.71797 0.84197 0.0
C1209 C 0.88907 0.68418 0.88042 0.0
C1210 C 0.86907 0.74277 0.83858 0.0
C1211 C 0.88501 0.7497 0.82178 0.0
C1212 C 0.8996 0.73191 0.80826 0.0
C1213 C 0.89679 0.70718 0.81077 0.0
C1214 C 0.88047 0.70029 0.82735 0.0
H1215 H 0.89547 0.67757 0.89821 0.0
H1216 H 0.8911 0.66819 0.86837 0.0
H1217 H 0.90113 0.69709 0.87403 0.0
H1218 H 0.8589 0.75674 0.84962 0.0
H1219 H 0.88676 0.76888 0.82024 0.0
H1220 H 0.25592 0.5336 0.65556 0.0
H1221 H 0.25626 0.56766 0.62828 0.0
H1222 H 0.23317 0.61878 0.68426 0.0
H1223 H 0.23306 0.58471 0.71189 0.0
H1224 H 0.21603 0.60247 0.61663 0.0
H1225 H 0.29119 0.64638 0.65492 0.0
H1226 H 0.28673 0.61563 0.66242 0.0
H1227 H 0.26745 0.64137 0.67511 0.0
C1228 C 0.25112 0.55207 0.66218 0.0
C1229 C 0.24446 0.55643 0.68592 0.0
C1230 C 0.25131 0.57153 0.64654 0.0
C1231 C 0.24498 0.59574 0.65428 0.0
C1232 C 0.23855 0.60024 0.67802 0.0
H1233 H 0.22719 0.73239 0.57411 0.0
H1234 H 0.22988 0.70209 0.60592 0.0
C1235 C 0.23837 0.58074 0.69374 0.0
C1236 C 0.24394 0.61606 0.63708 0.0
H1237 H 0.26963 0.66648 0.62262 0.0
C1238 C 0.22775 0.61646 0.61794 0.0
C1239 C 0.25912 0.63438 0.63895 0.0
C1240 C 0.27726 0.63444 0.65883 0.0
C1241 C 0.22641 0.63462 0.60053 0.0
C1242 C 0.242 0.65261 0.60207 0.0
C1243 C 0.25781 0.65257 0.62147 0.0
C1244 C 0.24241 0.6712 0.58334 0.0
C1245 C 0.20817 0.63451 0.5807 0.0
C1246 C 0.24933 0.66391 0.5603 0.0
C1247 C 0.24783 0.68111 0.54212 0.0
C1248 C 0.2395 0.70596 0.54666 0.0
C1249 C 0.23366 0.71338 0.57 0.0
C1250 C 0.23515 0.69611 0.5882 0.0
H1251 H 0.19345 0.62374 0.58534 0.0
H1252 H 0.19969 0.65341 0.57609 0.0
H1253 H 0.21767 0.62606 0.56482 0.0
H1254 H 0.25542 0.64481 0.55628 0.0
H1255 H 0.25261 0.67479 0.5244 0.0
H1256 H 0.35346 0.97523 0.29339 0.0
H1257 H 0.37478 0.98087 0.33027 0.0
H1258 H 0.34638 0.0579 0.32928 0.0
H1259 H 0.32458 0.05241 0.29255 0.0
H1260 H 0.40829 0.0111 0.34647 0.0
H1261 H 0.3173 0.03215 0.38956 0.0
H1262 H 0.32116 0.01965 0.36015 0.0
H1263 H 0.32219 0.05157 0.36517 0.0
C1264 C 0.35213 0.99348 0.30072 0.0
C1265 C 0.33695 0.0133 0.29031 0.0
C1266 C 0.36435 0.99666 0.32179 0.0
C1267 C 0.36163 0.01968 0.33269 0.0
C1268 C 0.34824 0.03989 0.32131 0.0
H1269 H 0.43316 0.04833 0.46533 0.0
H1270 H 0.41545 0.05309 0.42567 0.0
C1271 C 0.3359 0.03673 0.30029 0.0
C1272 C 0.37086 0.02189 0.35694 0.0
H1273 H 0.35184 0.0325 0.41381 0.0
C1274 C 0.39603 0.01604 0.36118 0.0
C1275 C 0.35465 0.02785 0.37608 0.0
C1276 C 0.3273 0.03296 0.37266 0.0
C1277 C 0.40543 0.01593 0.38419 0.0
C1278 C 0.38922 0.02213 0.40322 0.0
C1279 C 0.36412 0.02811 0.39901 0.0
C1280 C 0.3979 0.02079 0.42782 0.0
C1281 C 0.43248 0.00834 0.38819 0.0
C1282 C 0.39306 0.00154 0.44225 0.0
C1283 C 0.4031 0.99874 0.46485 0.0
C1284 C 0.41797 0.01529 0.47338 0.0
C1285 C 0.42168 0.03534 0.45929 0.0
C1286 C 0.41177 0.03801 0.43661 0.0
H1287 H 0.4421 0.00116 0.37187 0.0
H1288 H 0.44066 0.02433 0.39442 0.0
H1289 H 0.43565 0.99405 0.4021 0.0
H1290 H 0.38227 0.98817 0.43568 0.0
H1291 H 0.3999 0.98314 0.4753 0.0
H1292 H 0.85094 0.80245 0.9968 0.0
H1293 H 0.8705 0.83798 0.00624 0.0
H1294 H 0.83418 0.84471 0.0737 0.0
H1295 H 0.8145 0.80918 0.06448 0.0
H1296 H 0.82512 0.88678 0.04488 0.0
H1297 H 0.92414 0.85276 0.05243 0.0
H1298 H 0.91044 0.84115 0.02688 0.0
H1299 H 0.90111 0.83308 0.05585 0.0
C1300 C 0.84761 0.81105 0.01391 0.0
C1301 C 0.831 0.80315 0.02978 0.0
C1302 C 0.85889 0.83129 0.01932 0.0
C1303 C 0.85381 0.84383 0.0407 0.0
C1304 C 0.83836 0.83516 0.05717 0.0
H1305 H 0.92764 0.97157 0.05276 0.0
H1306 H 0.90675 0.93868 0.06722 0.0
C1307 C 0.82718 0.81483 0.05184 0.0
C1308 C 0.86207 0.86769 0.04427 0.0
H1309 H 0.91294 0.8953 0.04217 0.0
C1310 C 0.84433 0.8887 0.04486 0.0
C1311 C 0.88708 0.87005 0.04452 0.0
C1312 C 0.9068 0.84804 0.04513 0.0
C1313 C 0.85101 0.91213 0.04392 0.0
C1314 C 0.87598 0.91443 0.04216 0.0
C1315 C 0.89375 0.89346 0.04336 0.0
C1316 C 0.88415 0.93785 0.03615 0.0
C1317 C 0.83129 0.93415 0.04398 0.0
C1318 C 0.87764 0.94882 0.01427 0.0
C1319 C 0.88956 0.96758 0.00589 0.0
C1320 C 0.90833 0.97545 0.01922 0.0
C1321 C 0.91337 0.96578 0.04198 0.0
C1322 C 0.90147 0.947 0.05031 0.0
H1323 H 0.8146 0.93012 0.05308 0.0
H1324 H 0.83765 0.95004 0.05273 0.0
H1325 H 0.82624 0.9393 0.0255 0.0
H1326 H 0.86459 0.94173 0.00291 0.0
H1327 H 0.88522 0.97469 0.98834 0.0
H1328 H 0.70224 0.14772 0.4963 0.0
H1329 H 0.66989 0.12844 0.47881 0.0
H1330 H 0.66782 0.17627 0.41848 0.0
H1331 H 0.70016 0.19616 0.43622 0.0
H1332 H 0.62352 0.17711 0.43671 0.0
H1333 H 0.66406 0.08079 0.42653 0.0
H1334 H 0.67088 0.09056 0.4556 0.0
H1335 H 0.68261 0.10476 0.43027 0.0
C1336 C 0.69527 0.1539 0.47911 0.0
C1337 C 0.70366 0.17357 0.46773 0.0
C1338 C 0.67694 0.14262 0.46896 0.0
C1339 C 0.66674 0.15056 0.44709 0.0
C1340 C 0.67564 0.16967 0.43524 0.0
H1341 H 0.54532 0.06745 0.43701 0.0
H1342 H 0.57742 0.08723 0.41886 0.0
C1343 C 0.69407 0.18102 0.44542 0.0
C1344 C 0.64465 0.14103 0.43873 0.0
H1345 H 0.62049 0.08797 0.43851 0.0
C1346 C 0.62293 0.15759 0.43627 0.0
C1347 C 0.64383 0.11564 0.43731 0.0
C1348 C 0.66671 0.097 0.43729 0.0
C1349 C 0.60021 0.14937 0.43559 0.0
C1350 C 0.59929 0.12407 0.43802 0.0
C1351 C 0.6211 0.10744 0.43726 0.0
C1352 C 0.57686 0.11494 0.44595 0.0
C1353 C 0.57739 0.16796 0.43371 0.0
C1354 C 0.56567 0.12414 0.46698 0.0
C1355 C 0.54745 0.11294 0.47735 0.0
C1356 C 0.5402 0.09208 0.46704 0.0
C1357 C 0.55055 0.08351 0.44537 0.0
C1358 C 0.56885 0.09479 0.43496 0.0
H1359 H 0.58057 0.18342 0.42219 0.0
H1360 H 0.56179 0.15976 0.42654 0.0
H1361 H 0.57243 0.17561 0.45147 0.0
H1362 H 0.57199 0.13918 0.4762 0.0
H1363 H 0.53984 0.12003 0.49401 0.0
H1364 H 0.80736 0.47112 0.23132 0.0
H1365 H 0.83844 0.43775 0.2185 0.0
H1366 H 0.78508 0.38841 0.21892 0.0
H1367 H 0.75386 0.42166 0.2322 0.0
H1368 H 0.82476 0.3723 0.24553 0.0
H1369 H 0.85486 0.39994 0.15793 0.0
H1370 H 0.85483 0.42377 0.17943 0.0
H1371 H 0.82647 0.41381 0.1712 0.0
C1372 C 0.80208 0.4533 0.22823 0.0
C1373 C 0.77821 0.44896 0.23297 0.0
C1374 C 0.81984 0.43429 0.22067 0.0
C1375 C 0.81397 0.4107 0.21743 0.0
C1376 C 0.7899 0.40655 0.22116 0.0
H1377 H 0.91974 0.27552 0.21335 0.0
H1378 H 0.88161 0.30352 0.20724 0.0
C1379 C 0.77213 0.42554 0.22881 0.0
C1380 C 0.83363 0.3899 0.21347 0.0
H1381 H 0.88363 0.37066 0.17945 0.0
C1382 C 0.83733 0.3716 0.23079 0.0
C1383 C 0.85 0.38914 0.19428 0.0
C1384 C 0.8462 0.40761 0.17453 0.0
C1385 C 0.8578 0.35335 0.23023 0.0
C1386 C 0.87476 0.35324 0.2116 0.0
C1387 C 0.87054 0.37089 0.1937 0.0
C1388 C 0.89804 0.33631 0.21178 0.0
C1389 C 0.86184 0.33521 0.25029 0.0
C1390 C 0.91994 0.34561 0.21539 0.0
C1391 C 0.94173 0.32973 0.2188 0.0
C1392 C 0.94192 0.30429 0.21866 0.0
C1393 C 0.92013 0.29504 0.2138 0.0
C1394 C 0.89834 0.31096 0.21033 0.0
H1395 H 0.84929 0.34052 0.26531 0.0
H1396 H 0.85864 0.31698 0.2439 0.0
H1397 H 0.88095 0.33342 0.25683 0.0
H1398 H 0.92 0.36517 0.21653 0.0
H1399 H 0.95824 0.33742 0.22232 0.0
H1400 H 0.0553 0.5727 0.46155 0.0
H1401 H 0.07926 0.60546 0.45611 0.0
H1402 H 0.14574 0.55389 0.46196 0.0
H1403 H 0.12163 0.52073 0.46823 0.0
H1404 H 0.1458 0.58983 0.49205 0.0
H1405 H 0.1186 0.6315 0.40613 0.0
H1406 H 0.09165 0.62846 0.42257 0.0
H1407 H 0.11231 0.60144 0.41408 0.0
C1408 C 0.07502 0.56812 0.46119 0.0
C1409 C 0.08658 0.54413 0.46563 0.0
C1410 C 0.08873 0.58692 0.45774 0.0
C1411 C 0.11432 0.58213 0.45826 0.0
C1412 C 0.12599 0.55795 0.46131 0.0
H1413 H 0.18529 0.71414 0.45754 0.0
H1414 H 0.17326 0.67533 0.44502 0.0
C1415 C 0.11221 0.53903 0.46491 0.0
C1416 C 0.12825 0.60294 0.4595 0.0
H1417 H 0.1294 0.65982 0.43663 0.0
C1418 C 0.14273 0.60486 0.47958 0.0
C1419 C 0.12464 0.62244 0.44309 0.0
C1420 C 0.11116 0.62068 0.42015 0.0
C1421 C 0.15198 0.62649 0.48466 0.0
C1422 C 0.14601 0.6469 0.46961 0.0
C1423 C 0.13333 0.64435 0.44851 0.0
C1424 C 0.15174 0.67128 0.47617 0.0
C1425 C 0.16757 0.62742 0.50645 0.0
C1426 C 0.14272 0.68231 0.49735 0.0
C1427 C 0.14958 0.7044 0.50462 0.0
C1428 C 0.16535 0.71599 0.49066 0.0
C1429 C 0.17314 0.70564 0.46874 0.0
C1430 C 0.16638 0.68343 0.46156 0.0
H1431 H 0.17692 0.60891 0.51139 0.0
H1432 H 0.18158 0.63956 0.50381 0.0
H1433 H 0.15576 0.6346 0.52146 0.0
H1434 H 0.13078 0.67353 0.50854 0.0
H1435 H 0.1431 0.71201 0.52147 0.0
H1436 H 0.66467 0.03307 0.77183 0.0
H1437 H 0.63287 0.06812 0.77937 0.0
H1438 H 0.68798 0.11155 0.7996 0.0
H1439 H 0.71984 0.07687 0.79191 0.0
H1440 H 0.62122 0.10138 0.82033 0.0
H1441 H 0.65308 0.14562 0.74037 0.0
H1442 H 0.66173 0.11347 0.74657 0.0
H1443 H 0.67618 0.13577 0.76207 0.0
C1444 C 0.66997 0.04997 0.77825 0.0
C1445 C 0.69473 0.0524 0.78089 0.0
C1446 C 0.65181 0.0699 0.7826 0.0
C1447 C 0.65823 0.09239 0.7897 0.0
C1448 C 0.68279 0.09437 0.79383 0.0
H1449 H 0.57666 0.23878 0.78609 0.0
H1450 H 0.60772 0.20375 0.79524 0.0
C1451 C 0.70092 0.07457 0.78937 0.0
C1452 C 0.63959 0.11439 0.79053 0.0
H1453 H 0.62148 0.16841 0.7622 0.0
C1454 C 0.62123 0.11613 0.80772 0.0
C1455 C 0.63978 0.13345 0.77397 0.0
C1456 C 0.6586 0.13203 0.75455 0.0
C1457 C 0.603 0.1367 0.80887 0.0
C1458 C 0.6031 0.15566 0.79215 0.0
C1459 C 0.62162 0.15393 0.77513 0.0
C1460 C 0.58345 0.17686 0.79078 0.0
C1461 C 0.58395 0.13806 0.828 0.0
C1462 C 0.55946 0.1733 0.78563 0.0
C1463 C 0.54168 0.19325 0.78043 0.0
C1464 C 0.54769 0.21706 0.78001 0.0
C1465 C 0.57149 0.22066 0.78616 0.0
C1466 C 0.58923 0.20069 0.79145 0.0
H1467 H 0.59051 0.12621 0.84324 0.0
H1468 H 0.57871 0.15712 0.83436 0.0
H1469 H 0.56738 0.13162 0.82082 0.0
H1470 H 0.55476 0.15502 0.78449 0.0
H1471 H 0.5235 0.18988 0.77577 0.0
H1472 H 0.72755 0.56152 0.21981 0.0
H1473 H 0.73353 0.59401 0.19203 0.0
H1474 H 0.7323 0.54381 0.13391 0.0
H1475 H 0.72664 0.5112 0.16146 0.0
H1476 H 0.7702 0.57226 0.13116 0.0
H1477 H 0.68053 0.62967 0.14831 0.0
H1478 H 0.69926 0.62176 0.17391 0.0
H1479 H 0.68734 0.5982 0.15775 0.0
C1480 C 0.72859 0.55738 0.20111 0.0
C1481 C 0.72648 0.53378 0.19285 0.0
C1482 C 0.73188 0.57601 0.18526 0.0
C1483 C 0.733 0.5714 0.16088 0.0
C1484 C 0.73139 0.54777 0.15265 0.0
H1485 H 0.74038 0.64709 0.02953 0.0
H1486 H 0.74143 0.61751 0.06161 0.0
C1487 C 0.72811 0.52916 0.16844 0.0
C1488 C 0.73579 0.59111 0.1438 0.0
H1489 H 0.70687 0.64526 0.12158 0.0
C1490 C 0.75641 0.58827 0.12911 0.0
C1491 C 0.7178 0.61202 0.14123 0.0
C1492 C 0.69486 0.61562 0.15597 0.0
C1493 C 0.75946 0.60571 0.1118 0.0
C1494 C 0.7412 0.62632 0.10885 0.0
C1495 C 0.72086 0.62946 0.12391 0.0
C1496 C 0.74216 0.64418 0.08948 0.0
C1497 C 0.78224 0.60196 0.09687 0.0
C1498 C 0.74192 0.66908 0.09448 0.0
C1499 C 0.74124 0.68611 0.07613 0.0
C1500 C 0.74054 0.67854 0.05245 0.0
C1501 C 0.74106 0.65354 0.04754 0.0
C1502 C 0.7418 0.63655 0.06587 0.0
H1503 H 0.79731 0.58967 0.10567 0.0
H1504 H 0.77822 0.59336 0.07989 0.0
H1505 H 0.78857 0.61965 0.09294 0.0
H1506 H 0.74202 0.67537 0.11259 0.0
H1507 H 0.74071 0.70525 0.08054 0.0
H1508 H 0.9284 0.52094 0.47614 0.0
H1509 H 0.89983 0.5251 0.44305 0.0
H1510 H 0.95732 0.54001 0.39643 0.0
H1511 H 0.98639 0.53426 0.4292 0.0
H1512 H 0.8824 0.55794 0.41096 0.0
H1513 H 0.93938 0.47968 0.36658 0.0
H1514 H 0.94543 0.48888 0.39624 0.0
H1515 H 0.95481 0.50553 0.37143 0.0
C1516 C 0.93495 0.52522 0.45888 0.0
C1517 C 0.95978 0.52642 0.45506 0.0
C1518 C 0.91856 0.52776 0.44 0.0
C1519 C 0.92666 0.53204 0.41713 0.0
C1520 C 0.95091 0.53579 0.41377 0.0
H1521 H 0.81546 0.54345 0.30427 0.0
H1522 H 0.84761 0.55425 0.33025 0.0
C1523 C 0.96744 0.53265 0.43253 0.0
C1524 C 0.91021 0.5304 0.39677 0.0
H1525 H 0.90358 0.49706 0.34711 0.0
C1526 C 0.88704 0.54477 0.39688 0.0
C1527 C 0.91628 0.51295 0.37859 0.0
C1528 C 0.94021 0.49571 0.37824 0.0
C1529 C 0.86942 0.54156 0.3798 0.0
C1530 C 0.87553 0.52412 0.36164 0.0
C1531 C 0.89903 0.5105 0.36099 0.0
C1532 C 0.8572 0.51777 0.34459 0.0
C1533 C 0.84408 0.55589 0.3822 0.0
C1534 C 0.85277 0.49347 0.34318 0.0
C1535 C 0.83494 0.48715 0.32797 0.0
C1536 C 0.82099 0.50509 0.31407 0.0
C1537 C 0.82581 0.52932 0.31501 0.0
C1538 C 0.84401 0.53555 0.32996 0.0
H1539 H 0.84087 0.56389 0.40012 0.0
H1540 H 0.84179 0.57116 0.36931 0.0
H1541 H 0.82992 0.54415 0.37855 0.0
H1542 H 0.86277 0.47943 0.35427 0.0
H1543 H 0.83158 0.46836 0.32768 0.0
H1544 H 0.14134 0.51902 0.713 0.0
H1545 H 0.11691 0.50726 0.68018 0.0
H1546 H 0.1762 0.4515 0.65961 0.0
H1547 H 0.20074 0.46293 0.69255 0.0
H1548 H 0.13323 0.51054 0.63329 0.0
H1549 H 0.11499 0.41682 0.6547 0.0
H1550 H 0.12356 0.43747 0.67687 0.0
H1551 H 0.14622 0.42188 0.65733 0.0
C1552 C 0.14903 0.50393 0.70181 0.0
C1553 C 0.17304 0.49204 0.70526 0.0
C1554 C 0.13505 0.49723 0.68308 0.0
C1555 C 0.14475 0.47847 0.66759 0.0
C1556 C 0.16827 0.46578 0.6716 0.0
H1557 H 0.08648 0.47376 0.52458 0.0
H1558 H 0.11559 0.46925 0.55746 0.0
C1559 C 0.18229 0.47244 0.69036 0.0
C1560 C 0.13128 0.47417 0.64587 0.0
H1561 H 0.10247 0.43243 0.61696 0.0
C1562 C 0.12657 0.49344 0.62965 0.0
C1563 C 0.12273 0.45181 0.64128 0.0
C1564 C 0.12692 0.43081 0.6585 0.0
C1565 C 0.1131 0.49115 0.60907 0.0
C1566 C 0.1045 0.46881 0.60442 0.0
C1567 C 0.10944 0.44938 0.62049 0.0
C1568 C 0.08827 0.46643 0.58414 0.0
C1569 C 0.10739 0.51299 0.59291 0.0
C1570 C 0.06359 0.46502 0.58825 0.0
C1571 C 0.04697 0.46753 0.56959 0.0
C1572 C 0.05479 0.47148 0.5465 0.0
C1573 C 0.07986 0.47096 0.54219 0.0
C1574 C 0.0965 0.46843 0.56093 0.0
H1575 H 0.11158 0.53007 0.60126 0.0
H1576 H 0.1185 0.50973 0.57662 0.0
H1577 H 0.08782 0.51579 0.58771 0.0
H1578 H 0.05694 0.46341 0.60607 0.0
H1579 H 0.02782 0.46755 0.57345 0.0
H1580 H 0.61931 0.74555 0.23412 0.0
H1581 H 0.64776 0.75477 0.2037 0.0
H1582 H 0.59821 0.81959 0.18438 0.0
H1583 H 0.56981 0.81077 0.21492 0.0
H1584 H 0.63222 0.75602 0.15694 0.0
H1585 H 0.66553 0.84255 0.18144 0.0
H1586 H 0.6526 0.8238 0.20269 0.0
H1587 H 0.63299 0.84349 0.18319 0.0
C1588 C 0.61473 0.7621 0.22382 0.0
C1589 C 0.59219 0.77726 0.22671 0.0
C1590 C 0.63102 0.76736 0.20649 0.0
C1591 C 0.62508 0.78789 0.1919 0.0
C1592 C 0.6033 0.80389 0.19572 0.0
H1593 H 0.67613 0.79191 0.04768 0.0
H1594 H 0.65054 0.79901 0.08293 0.0
C1595 C 0.58701 0.79869 0.21309 0.0
C1596 C 0.63976 0.79046 0.17062 0.0
H1597 H 0.67368 0.82808 0.14217 0.0
C1598 C 0.64136 0.77173 0.15374 0.0
C1599 C 0.65151 0.81105 0.16656 0.0
C1600 C 0.6508 0.83131 0.18449 0.0
C1601 C 0.65447 0.77296 0.13285 0.0
C1602 C 0.66592 0.7937 0.12857 0.0
C1603 C 0.66449 0.81243 0.14546 0.0
C1604 C 0.68096 0.795 0.10735 0.0
C1605 C 0.65642 0.75181 0.11571 0.0
C1606 C 0.70642 0.79163 0.10954 0.0
C1607 C 0.72106 0.78754 0.08953 0.0
C1608 C 0.71039 0.78677 0.06705 0.0
C1609 C 0.68487 0.79217 0.06478 0.0
C1610 C 0.67023 0.79624 0.08485 0.0
H1611 H 0.6503 0.7354 0.12365 0.0
H1612 H 0.6448 0.75727 0.10006 0.0
H1613 H 0.67554 0.74672 0.10954 0.0
H1614 H 0.71495 0.79066 0.12682 0.0
H1615 H 0.74069 0.78374 0.09181 0.0
H1616 H 0.61937 0.52022 0.22754 0.0
H1617 H 0.59033 0.51264 0.19688 0.0
H1618 H 0.63552 0.44452 0.17933 0.0
H1619 H 0.66454 0.45175 0.21009 0.0
H1620 H 0.60552 0.50836 0.14967 0.0
H1621 H 0.56566 0.42684 0.17853 0.0
H1622 H 0.58025 0.4454 0.19877 0.0
H1623 H 0.59842 0.42377 0.17991 0.0
C1624 C 0.62287 0.50336 0.21754 0.0
C1625 C 0.64436 0.4867 0.22108 0.0
C1626 C 0.60626 0.49906 0.20005 0.0
C1627 C 0.61078 0.47799 0.18597 0.0
C1628 C 0.63153 0.4607 0.19027 0.0
H1629 H 0.55233 0.47317 0.04361 0.0
H1630 H 0.57971 0.46583 0.07771 0.0
C1631 C 0.64816 0.46496 0.20777 0.0
C1632 C 0.59545 0.47569 0.16499 0.0
H1633 H 0.55697 0.44064 0.13927 0.0
C1634 C 0.59489 0.49356 0.14738 0.0
C1635 C 0.58173 0.45632 0.16215 0.0
C1636 C 0.5813 0.43705 0.1809 0.0
C1637 C 0.58078 0.49273 0.12698 0.0
C1638 C 0.56721 0.47324 0.12399 0.0
C1639 C 0.56775 0.45531 0.14156 0.0
C1640 C 0.55079 0.47265 0.10357 0.0
C1641 C 0.57995 0.51307 0.10909 0.0
C1642 C 0.5255 0.47771 0.10698 0.0
C1643 C 0.50986 0.48194 0.08763 0.0
C1644 C 0.5193 0.48114 0.06457 0.0
C1645 C 0.54453 0.47415 0.06117 0.0
C1646 C 0.56019 0.46997 0.08058 0.0
H1647 H 0.58794 0.5289 0.1161 0.0
H1648 H 0.59049 0.5061 0.09322 0.0
H1649 H 0.56085 0.51959 0.10348 0.0
H1650 H 0.51797 0.47979 0.12463 0.0
H1651 H 0.49047 0.48699 0.09082 0.0
H1652 H 0.37527 0.46837 0.00076 0.0
H1653 H 0.3563 0.43308 0.01207 0.0
H1654 H 0.39357 0.42984 0.07917 0.0
H1655 H 0.41274 0.46511 0.06802 0.0
H1656 H 0.40342 0.38706 0.05293 0.0
H1657 H 0.30384 0.41785 0.05827 0.0
H1658 H 0.3168 0.42866 0.03202 0.0
H1659 H 0.32589 0.43876 0.06045 0.0
C1660 C 0.37888 0.46064 0.0182 0.0
C1661 C 0.39573 0.46934 0.03336 0.0
C1662 C 0.36792 0.44053 0.0247 0.0
C1663 C 0.37349 0.42896 0.04649 0.0
C1664 C 0.38901 0.43861 0.06231 0.0
H1665 H 0.30396 0.29831 0.05749 0.0
H1666 H 0.32313 0.33192 0.07319 0.0
C1667 C 0.39991 0.45877 0.05588 0.0
C1668 C 0.36603 0.40488 0.05099 0.0
H1669 H 0.31656 0.37517 0.04838 0.0
C1670 C 0.38439 0.38444 0.05257 0.0
C1671 C 0.34126 0.40156 0.05085 0.0
C1672 C 0.32081 0.42292 0.05055 0.0
C1673 C 0.37865 0.36062 0.05202 0.0
C1674 C 0.35399 0.35732 0.0496 0.0
C1675 C 0.33553 0.37775 0.05004 0.0
C1676 C 0.34698 0.33344 0.04323 0.0
C1677 C 0.39906 0.33926 0.05303 0.0
C1678 C 0.35477 0.3226 0.02161 0.0
C1679 C 0.34383 0.30345 0.01253 0.0
C1680 C 0.32477 0.29502 0.02486 0.0
C1681 C 0.3185 0.3045 0.04747 0.0
C1682 C 0.32941 0.32371 0.0565 0.0
H1683 H 0.41504 0.34408 0.06289 0.0
H1684 H 0.39299 0.32311 0.06151 0.0
H1685 H 0.40515 0.33414 0.03481 0.0
H1686 H 0.36802 0.33012 0.0109 0.0
H1687 H 0.34913 0.29648 0.99512 0.0
H1688 H 0.07894 0.24514 0.26644 0.0
H1689 H 0.11543 0.21599 0.27629 0.0
H1690 H 0.07471 0.15611 0.26654 0.0
H1691 H 0.03823 0.18492 0.25698 0.0
H1692 H 0.10707 0.15124 0.30656 0.0
H1693 H 0.15171 0.17412 0.22305 0.0
H1694 H 0.14156 0.19899 0.24286 0.0
H1695 H 0.11953 0.18337 0.22835 0.0
C1696 C 0.07773 0.22576 0.26657 0.0
C1697 C 0.05581 0.21728 0.26057 0.0
C1698 C 0.09856 0.2092 0.27221 0.0
C1699 C 0.09774 0.18397 0.27184 0.0
C1700 C 0.07565 0.17555 0.2669 0.0
H1701 H 0.17867 0.04343 0.26328 0.0
H1702 H 0.14948 0.07967 0.27298 0.0
C1703 C 0.05486 0.19204 0.26131 0.0
C1704 C 0.12012 0.16603 0.27468 0.0
H1705 H 0.17161 0.14147 0.24524 0.0
C1706 C 0.12143 0.14928 0.2934 0.0
C1707 C 0.13877 0.16365 0.25748 0.0
C1708 C 0.13791 0.18083 0.23668 0.0
C1709 C 0.14056 0.12959 0.29488 0.0
C1710 C 0.15846 0.12645 0.27695 0.0
C1711 C 0.15782 0.14396 0.25896 0.0
C1712 C 0.17659 0.10403 0.27494 0.0
C1713 C 0.14116 0.11211 0.31537 0.0
C1714 C 0.20149 0.10573 0.27276 0.0
C1715 C 0.21817 0.08511 0.26688 0.0
C1716 C 0.21018 0.06248 0.26302 0.0
C1717 C 0.18539 0.0606 0.26623 0.0
C1718 C 0.16871 0.08126 0.27199 0.0
H1719 H 0.13191 0.12126 0.33109 0.0
H1720 H 0.13131 0.09681 0.31038 0.0
H1721 H 0.16019 0.10437 0.32023 0.0
H1722 H 0.20789 0.12319 0.27481 0.0
H1723 H 0.2372 0.0871 0.26468 0.0
H1724 H 0.25243 0.36604 0.99414 0.0
H1725 H 0.25244 0.39832 0.96467 0.0
H1726 H 0.25475 0.34482 0.90897 0.0
H1727 H 0.25432 0.31248 0.93825 0.0
H1728 H 0.28813 0.40221 0.93153 0.0
H1729 H 0.19935 0.3972 0.88758 0.0
H1730 H 0.20749 0.38297 0.91573 0.0
H1731 H 0.21938 0.3685 0.88887 0.0
C1732 C 0.25265 0.36116 0.97562 0.0
C1733 C 0.25326 0.33669 0.96855 0.0
C1734 C 0.2527 0.37963 0.95881 0.0
C1735 C 0.25327 0.37402 0.93463 0.0
C1736 C 0.25376 0.34964 0.92751 0.0
H1737 H 0.26555 0.45958 0.80755 0.0
H1738 H 0.26372 0.42669 0.83615 0.0
C1739 C 0.25364 0.33116 0.94429 0.0
C1740 C 0.25453 0.39353 0.91695 0.0
H1741 H 0.2253 0.42204 0.86913 0.0
C1742 C 0.27433 0.40664 0.91796 0.0
C1743 C 0.23656 0.39917 0.8992 0.0
C1744 C 0.21437 0.38639 0.89783 0.0
C1745 C 0.2768 0.42507 0.90152 0.0
C1746 C 0.25881 0.43074 0.88382 0.0
C1747 C 0.23908 0.41757 0.88271 0.0
C1748 C 0.25993 0.45062 0.86657 0.0
C1749 C 0.29884 0.43806 0.90299 0.0
C1750 C 0.25811 0.47495 0.87422 0.0
C1751 C 0.2591 0.49376 0.85798 0.0
C1752 C 0.26188 0.48858 0.83374 0.0
C1753 C 0.2635 0.46417 0.8261 0.0
C1754 C 0.26241 0.44537 0.84239 0.0
H1755 H 0.31373 0.42764 0.91369 0.0
H1756 H 0.30601 0.4411 0.88511 0.0
H1757 H 0.29351 0.45619 0.91144 0.0
H1758 H 0.25577 0.47942 0.89278 0.0
H1759 H 0.25771 0.51235 0.86445 0.0
H1760 H 0.31661 0.23374 0.96363 0.0
H1761 H 0.3433 0.22867 0.92917 0.0
H1762 H 0.28267 0.21498 0.88573 0.0
H1763 H 0.25553 0.22178 0.91992 0.0
H1764 H 0.35862 0.19671 0.89568 0.0
H1765 H 0.29844 0.27575 0.85565 0.0
H1766 H 0.29437 0.26588 0.88544 0.0
H1767 H 0.28368 0.24958 0.86095 0.0
C1768 C 0.30907 0.22928 0.94681 0.0
C1769 C 0.28395 0.22883 0.94421 0.0
C1770 C 0.32434 0.2263 0.92713 0.0
C1771 C 0.31477 0.22231 0.90472 0.0
C1772 C 0.29023 0.21899 0.90268 0.0
H1773 H 0.42159 0.2191 0.78842 0.0
H1774 H 0.39046 0.20553 0.81383 0.0
C1775 C 0.27481 0.22269 0.92222 0.0
C1776 C 0.32984 0.22445 0.88348 0.0
H1777 H 0.33355 0.25989 0.83474 0.0
C1778 C 0.3531 0.21035 0.88219 0.0
C1779 C 0.32261 0.24247 0.86604 0.0
C1780 C 0.29853 0.25944 0.86712 0.0
C1781 C 0.36981 0.21456 0.86463 0.0
C1782 C 0.36265 0.23278 0.84741 0.0
C1783 C 0.33892 0.2459 0.84794 0.0
C1784 C 0.38021 0.24081 0.83054 0.0
C1785 C 0.39539 0.20054 0.86563 0.0
C1786 C 0.3839 0.26538 0.83067 0.0
C1787 C 0.40111 0.27328 0.81581 0.0
C1788 C 0.41522 0.25669 0.80073 0.0
C1789 C 0.4111 0.23222 0.80008 0.0
C1790 C 0.39349 0.2244 0.8147 0.0
H1791 H 0.3994 0.1913 0.88291 0.0
H1792 H 0.39751 0.18627 0.85171 0.0
H1793 H 0.40916 0.21285 0.86251 0.0
H1794 H 0.37382 0.27839 0.84272 0.0
H1795 H 0.40392 0.29223 0.81676 0.0
H1796 H 0.46596 0.54099 0.9411 0.0
H1797 H 0.43929 0.55725 0.90898 0.0
H1798 H 0.38194 0.58189 0.95876 0.0
H1799 H 0.40845 0.56482 0.9912 0.0
H1800 H 0.36645 0.55477 0.926 0.0
H1801 H 0.41386 0.62204 0.8808 0.0
H1802 H 0.43449 0.5941 0.8846 0.0
H1803 H 0.42226 0.61116 0.91017 0.0
C1804 C 0.44784 0.55027 0.94534 0.0
C1805 C 0.43923 0.55139 0.96869 0.0
C1806 C 0.43268 0.55989 0.92692 0.0
C1807 C 0.40874 0.57124 0.93145 0.0
C1808 C 0.40044 0.57341 0.95488 0.0
H1809 H 0.2956 0.58359 0.82145 0.0
H1810 H 0.31735 0.59698 0.85553 0.0
C1811 C 0.41557 0.56357 0.97338 0.0
C1812 C 0.39153 0.57705 0.9115 0.0
H1813 H 0.38791 0.60032 0.85557 0.0
C1814 C 0.37071 0.5654 0.9109 0.0
C1815 C 0.39706 0.59094 0.89179 0.0
C1816 C 0.41802 0.60546 0.89202 0.0
C1817 C 0.35648 0.56553 0.89044 0.0
C1818 C 0.36319 0.57777 0.87015 0.0
C1819 C 0.38299 0.59081 0.87117 0.0
C1820 C 0.35162 0.5744 0.84718 0.0
C1821 C 0.33538 0.55111 0.89011 0.0
C1822 C 0.36412 0.55817 0.83075 0.0
C1823 C 0.35179 0.55038 0.81133 0.0
C1824 C 0.32677 0.55877 0.80809 0.0
C1825 C 0.31484 0.57663 0.82356 0.0
C1826 C 0.3272 0.58434 0.84301 0.0
H1827 H 0.3341 0.54067 0.90669 0.0
H1828 H 0.31801 0.5638 0.88773 0.0
H1829 H 0.33724 0.53809 0.87506 0.0
H1830 H 0.38301 0.55031 0.83376 0.0
H1831 H 0.36153 0.53679 0.79964 0.0
H1832 H 0.64422 0.71445 0.03891 0.0
H1833 H 0.62129 0.68128 0.02939 0.0
H1834 H 0.65102 0.6772 0.95898 0.0
H1835 H 0.67423 0.71024 0.96831 0.0
H1836 H 0.58768 0.6726 0.99233 0.0
H1837 H 0.67627 0.60965 0.98985 0.0
H1838 H 0.67352 0.64011 0.00202 0.0
H1839 H 0.67335 0.63579 0.97063 0.0
C1840 C 0.64548 0.7069 0.02123 0.0
C1841 C 0.66136 0.71465 0.0045 0.0
C1842 C 0.63237 0.68796 0.01583 0.0
C1843 C 0.63496 0.67656 0.99368 0.0
C1844 C 0.64919 0.68557 0.9763 0.0
H1845 H 0.55142 0.55755 0.96448 0.0
H1846 H 0.57444 0.59111 0.95686 0.0
C1847 C 0.66233 0.7045 0.98167 0.0
C1848 C 0.62455 0.6539 0.98972 0.0
H1849 H 0.64051 0.59196 0.98564 0.0
C1850 C 0.59913 0.65498 0.99047 0.0
C1851 C 0.63974 0.63101 0.98765 0.0
C1852 C 0.66725 0.62887 0.98764 0.0
C1853 C 0.58843 0.63359 0.98982 0.0
C1854 C 0.60364 0.61068 0.98806 0.0
C1855 C 0.62902 0.60964 0.98669 0.0
C1856 C 0.59353 0.58765 0.99029 0.0
C1857 C 0.56105 0.63555 0.99221 0.0
C1858 C 0.59786 0.57381 0.011 0.0
C1859 C 0.58484 0.5546 0.01542 0.0
C1860 C 0.5673 0.54902 0.99915 0.0
C1861 C 0.56464 0.56156 0.97747 0.0
C1862 C 0.57767 0.58079 0.9731 0.0
H1863 H 0.55237 0.65434 0.99703 0.0
H1864 H 0.55315 0.63061 0.97518 0.0
H1865 H 0.5563 0.62264 0.00584 0.0
H1866 H 0.6102 0.57883 0.02439 0.0
H1867 H 0.58744 0.54517 0.03219 0.0
H1868 H 0.9716 0.81684 0.72562 0.0
H1869 H 0.9425 0.85296 0.71499 0.0
H1870 H 0.8829 0.81184 0.72399 0.0
H1871 H 0.91189 0.77543 0.73415 0.0
H1872 H 0.8767 0.84665 0.6857 0.0
H1873 H 0.90289 0.88618 0.7708 0.0
H1874 H 0.92743 0.87717 0.75045 0.0
H1875 H 0.9117 0.85435 0.76342 0.0
C1876 C 0.95231 0.81538 0.72494 0.0
C1877 C 0.94392 0.7935 0.73114 0.0
C1878 C 0.93577 0.836 0.71884 0.0
C1879 C 0.91063 0.83509 0.71918 0.0
C1880 C 0.90229 0.81283 0.7237 0.0
H1881 H 0.77449 0.92554 0.73259 0.0
H1882 H 0.80806 0.8937 0.72175 0.0
C1883 C 0.91885 0.7921 0.72957 0.0
C1884 C 0.89295 0.8578 0.71771 0.0
H1885 H 0.87215 0.90956 0.7487 0.0
C1886 C 0.8758 0.86059 0.69929 0.0
C1887 C 0.89192 0.87583 0.73555 0.0
C1888 C 0.90931 0.87327 0.7563 0.0
C1889 C 0.85726 0.88089 0.69847 0.0
C1890 C 0.8558 0.89849 0.71673 0.0
C1891 C 0.87348 0.89608 0.73465 0.0
C1892 C 0.83489 0.91829 0.71916 0.0
C1893 C 0.8393 0.88322 0.67826 0.0
C1894 C 0.83889 0.94263 0.72134 0.0
C1895 C 0.81981 0.96083 0.72787 0.0
C1896 C 0.79646 0.9549 0.73245 0.0
C1897 C 0.79227 0.93067 0.72924 0.0
C1898 C 0.81138 0.91249 0.72277 0.0
H1899 H 0.84728 0.87326 0.66239 0.0
H1900 H 0.82297 0.8751 0.68352 0.0
H1901 H 0.83329 0.90268 0.67354 0.0
H1902 H 0.85698 0.94738 0.71881 0.0
H1903 H 0.82356 0.97938 0.73004 0.0
H1904 H 0.49554 0.25957 0.64885 0.0
H1905 H 0.48735 0.2277 0.62135 0.0
H1906 H 0.49511 0.17508 0.67803 0.0
H1907 H 0.50291 0.20695 0.70577 0.0
H1908 H 0.51779 0.18569 0.60992 0.0
H1909 H 0.43165 0.16288 0.64746 0.0
H1910 H 0.4439 0.19017 0.65561 0.0
H1911 H 0.45604 0.16119 0.66858 0.0
C1912 C 0.49524 0.24128 0.65556 0.0
C1913 C 0.49981 0.23584 0.67955 0.0
C1914 C 0.49058 0.22307 0.63978 0.0
C1915 C 0.49028 0.19907 0.64766 0.0
C1916 C 0.49469 0.19359 0.67163 0.0
H1917 H 0.48491 0.05899 0.58247 0.0
H1918 H 0.48661 0.09351 0.60905 0.0
C1919 C 0.49929 0.21181 0.68745 0.0
C1920 C 0.48668 0.17953 0.63055 0.0
H1921 H 0.45134 0.13541 0.61851 0.0
C1922 C 0.50312 0.17485 0.61167 0.0
C1923 C 0.46755 0.16538 0.63286 0.0
C1924 C 0.44863 0.17027 0.65208 0.0
C1925 C 0.50137 0.15599 0.59542 0.0
C1926 C 0.48243 0.14165 0.59791 0.0
C1927 C 0.46584 0.14645 0.61664 0.0
C1928 C 0.4801 0.12101 0.58172 0.0
C1929 C 0.52025 0.15108 0.57614 0.0
C1930 C 0.47536 0.12506 0.55758 0.0
C1931 C 0.47434 0.10534 0.54228 0.0
C1932 C 0.47802 0.08119 0.55088 0.0
C1933 C 0.48208 0.07731 0.5752 0.0
C1934 C 0.48304 0.09703 0.59046 0.0
H1935 H 0.53651 0.16007 0.57975 0.0
H1936 H 0.52631 0.13112 0.57399 0.0
H1937 H 0.51209 0.1583 0.55918 0.0
H1938 H 0.47263 0.14348 0.55054 0.0
H1939 H 0.47105 0.109 0.52368 0.0
H1940 H 0.49272 0.33005 0.80594 0.0
H1941 H 0.49339 0.36107 0.83673 0.0
H1942 H 0.49487 0.30541 0.89019 0.0
H1943 H 0.49456 0.27432 0.85964 0.0
H1944 H 0.45886 0.37324 0.87146 0.0
H1945 H 0.54926 0.34201 0.91208 0.0
H1946 H 0.54069 0.33132 0.88358 0.0
H1947 H 0.53048 0.31832 0.91019 0.0
C1948 C 0.49354 0.32436 0.82424 0.0
C1949 C 0.49367 0.29967 0.83031 0.0
C1950 C 0.49388 0.34212 0.84182 0.0
C1951 C 0.49454 0.33553 0.86577 0.0
C1952 C 0.49493 0.31087 0.87184 0.0
H1953 H 0.47629 0.4069 0.00093 0.0
H1954 H 0.483 0.37862 0.96757 0.0
C1955 C 0.49461 0.29311 0.85431 0.0
C1956 C 0.49323 0.35455 0.88446 0.0
H1957 H 0.52175 0.37092 0.93423 0.0
C1958 C 0.47276 0.37293 0.88502 0.0
C1959 C 0.51134 0.35407 0.90218 0.0
C1960 C 0.5343 0.33551 0.90191 0.0
C1961 C 0.46949 0.39033 0.90326 0.0
C1962 C 0.48737 0.38956 0.92123 0.0
C1963 C 0.50805 0.37145 0.92046 0.0
C1964 C 0.48446 0.40685 0.94144 0.0
C1965 C 0.44649 0.40886 0.90363 0.0
C1966 C 0.48356 0.43209 0.93788 0.0
C1967 C 0.47972 0.44834 0.95694 0.0
C1968 C 0.4768 0.43962 0.97992 0.0
C1969 C 0.47839 0.41426 0.98348 0.0
C1970 C 0.48225 0.39804 0.96443 0.0
H1971 H 0.43225 0.40365 0.8916 0.0
H1972 H 0.43885 0.41102 0.92175 0.0
H1973 H 0.45084 0.42687 0.89784 0.0
H1974 H 0.48565 0.43924 0.92034 0.0
H1975 H 0.47871 0.46775 0.95359 0.0
H1976 H 0.49109 0.83251 0.31131 0.0
H1977 H 0.49259 0.86865 0.33606 0.0
H1978 H 0.50272 0.82276 0.39784 0.0
H1979 H 0.5014 0.78662 0.37334 0.0
H1980 H 0.46083 0.88471 0.37417 0.0
H1981 H 0.55739 0.86522 0.40365 0.0
H1982 H 0.54603 0.8502 0.37854 0.0
H1983 H 0.54047 0.84031 0.40799 0.0
C1984 C 0.49394 0.83007 0.33013 0.0
C1985 C 0.49621 0.80664 0.34033 0.0
C1986 C 0.49472 0.85076 0.34424 0.0
C1987 C 0.49805 0.84837 0.36875 0.0
C1988 C 0.50057 0.825 0.37892 0.0
H1989 H 0.50066 0.94292 0.48991 0.0
H1990 H 0.50187 0.90894 0.46204 0.0
C1991 C 0.4997 0.80435 0.36487 0.0
C1992 C 0.4978 0.87033 0.38391 0.0
H1993 H 0.53174 0.89679 0.42409 0.0
C1994 C 0.47639 0.88751 0.38493 0.0
C1995 C 0.5181 0.87388 0.39798 0.0
C1996 C 0.54189 0.85656 0.39689 0.0
C1997 C 0.47446 0.90776 0.40022 0.0
C1998 C 0.49469 0.91114 0.41453 0.0
C1999 C 0.51622 0.89413 0.41321 0.0
C2000 C 0.49382 0.93196 0.43129 0.0
C2001 C 0.4505 0.92484 0.40148 0.0
C2002 C 0.48916 0.95623 0.42326 0.0
C2003 C 0.48835 0.9757 0.43916 0.0
C2004 C 0.49248 0.9713 0.46341 0.0
C2005 C 0.49744 0.94697 0.47136 0.0
C2006 C 0.49815 0.92751 0.45545 0.0
H2007 H 0.43514 0.91616 0.39444 0.0
H2008 H 0.44618 0.93079 0.41992 0.0
H2009 H 0.45177 0.94135 0.39071 0.0
H2010 H 0.48628 0.96014 0.40466 0.0
H2011 H 0.4845 0.9942 0.4324 0.0
H2012 H 0.49053 0.56149 0.07715 0.0
H2013 H 0.49279 0.59033 0.10959 0.0
H2014 H 0.49895 0.64769 0.05945 0.0
H2015 H 0.49709 0.61896 0.02695 0.0
H2016 H 0.53411 0.64407 0.09443 0.0
H2017 H 0.44201 0.64603 0.13371 0.0
H2018 H 0.45926 0.616 0.13043 0.0
H2019 H 0.44966 0.63383 0.10465 0.0
C2020 C 0.49202 0.58033 0.07301 0.0
C2021 C 0.49353 0.58793 0.04943 0.0
C2022 C 0.49322 0.59682 0.09159 0.0
C2023 C 0.49573 0.62125 0.08695 0.0
C2024 C 0.4969 0.62895 0.06344 0.0
H2025 H 0.51262 0.75178 0.16468 0.0
H2026 H 0.50795 0.72061 0.13519 0.0
C2027 C 0.49577 0.61249 0.04487 0.0
C2028 C 0.49851 0.63854 0.1065 0.0
H2029 H 0.46976 0.66687 0.15465 0.0
C2030 C 0.52002 0.64909 0.10756 0.0
C2031 C 0.48018 0.64492 0.12374 0.0
C2032 C 0.45637 0.6348 0.12306 0.0
C2033 C 0.5237 0.66584 0.12535 0.0
C2034 C 0.50522 0.67254 0.14235 0.0
C2035 C 0.48389 0.6617 0.14158 0.0
C2036 C 0.50741 0.69145 0.16051 0.0
C2037 C 0.54746 0.67608 0.12593 0.0
C2038 C 0.50798 0.68555 0.18462 0.0
C2039 C 0.5106 0.7034 0.20162 0.0
C2040 C 0.51248 0.7275 0.19477 0.0
C2041 C 0.51137 0.73339 0.1706 0.0
C2042 C 0.50882 0.71557 0.15368 0.0
H2043 H 0.56202 0.66443 0.11586 0.0
H2044 H 0.54467 0.69454 0.1178 0.0
H2045 H 0.55385 0.67785 0.14435 0.0
H2046 H 0.50676 0.66706 0.19025 0.0
H2047 H 0.5113 0.69828 0.22008 0.0
loop_
_geom_bond_atom_site_label_1
_geom_bond_atom_site_label_2
_geom_bond_distance
_geom_bond_site_symmetry_2
_ccdc_geom_bond_type
Zn0 O6 1.969 1_554 S
Zn0 O7 1.965 . S
Zn0 O11 2.024 1_455 S
Zn0 O16 1.969 1_454 S
Zn1 O8 1.969 1_656 S
Zn1 O14 1.969 1_556 S
Zn1 O15 1.965 1_565 S
Zn1 O17 2.024 1_655 S
C2 O3 1.229 . S
C2 O11 1.058 . S
O3 C2 1.229 . S
C4 O5 1.229 . S
C4 O17 1.058 . S
O5 C4 1.229 . S
O6 Zn0 1.969 1_556 S
O6 C9 1.258 1_556 S
O7 Zn0 1.965 . S
O7 C18 1.260 1_545 S
O8 Zn1 1.969 1_454 S
O8 C18 1.258 . S
C9 O6 1.258 1_554 S
C9 O10 1.246 . S
O10 C9 1.246 . S
O11 Zn0 2.024 1_655 S
O11 C2 1.058 . S
C12 O13 1.228 1_554 S
C12 O14 1.267 . S
O13 C12 1.228 1_556 S
O14 Zn1 1.969 1_554 S
O14 C12 1.267 . S
O15 Zn1 1.965 1_545 S
O15 C19 1.260 . S
O16 Zn0 1.969 1_656 S
O16 C19 1.258 . S
O17 Zn1 2.024 1_455 S
O17 C4 1.058 . S
C18 O7 1.260 1_565 S
C18 O8 1.258 . S
C19 O15 1.260 . S
C19 O16 1.258 . S
Zn20 O26 1.969 1_455 S
Zn20 O27 1.965 1_455 S
Zn20 O31 2.024 . S
Zn20 O36 1.969 . S
Zn21 O28 1.969 . S
Zn21 O34 1.969 . S
Zn21 O35 1.965 . S
Zn21 O37 2.024 . S
C22 O23 1.229 . S
C22 O31 1.058 . S
O23 C22 1.229 . S
C24 O25 1.229 . S
C24 O37 1.058 . S
O25 C24 1.229 . S
O26 Zn20 1.969 1_655 S
O26 C29 1.267 . S
O27 Zn20 1.965 1_655 S
O27 C38 1.260 . S
O28 Zn21 1.969 . S
O28 C38 1.258 1_455 S
C29 O26 1.267 . S
C29 O30 1.228 . S
O30 C29 1.228 . S
O31 Zn20 2.024 . S
O31 C22 1.058 . S
C32 O33 1.228 . S
C32 O34 1.267 . S
O33 C32 1.228 . S
O34 Zn21 1.969 . S
O34 C32 1.267 . S
O35 Zn21 1.965 . S
O35 C39 1.260 . S
O36 Zn20 1.969 . S
O36 C39 1.258 . S
O37 Zn21 2.024 . S
O37 C24 1.058 . S
C38 O27 1.260 . S
C38 O28 1.258 1_655 S
C39 O35 1.260 . S
C39 O36 1.258 . S
Zn40 O46 1.969 . S
Zn40 O47 1.965 . S
Zn40 O51 2.024 . S
Zn40 O56 1.969 . S
Zn41 O48 1.969 . S
Zn41 O54 1.969 . S
Zn41 O55 1.965 . S
Zn41 O57 2.024 . S
C42 O43 1.229 . S
C42 O51 1.058 . S
O43 C42 1.229 . S
C44 O45 1.229 . S
C44 O57 1.058 . S
O45 C44 1.229 . S
O46 Zn40 1.969 . S
O46 C49 1.267 . S
O47 Zn40 1.965 . S
O47 C58 1.260 . S
O48 Zn41 1.969 . S
O48 C58 1.258 . S
C49 O46 1.267 . S
C49 O50 1.228 . S
O50 C49 1.228 . S
O51 Zn40 2.024 . S
O51 C42 1.058 . S
C52 O53 1.228 . S
C52 O54 1.267 . S
O53 C52 1.228 . S
O54 Zn41 1.969 . S
O54 C52 1.267 . S
O55 Zn41 1.965 . S
O55 C59 1.260 . S
O56 Zn40 1.969 . S
O56 C59 1.258 . S
O57 Zn41 2.024 . S
O57 C44 1.058 . S
C58 O47 1.260 . S
C58 O48 1.258 . S
C59 O55 1.260 . S
C59 O56 1.258 . S
Zn60 O66 1.969 . S
Zn60 O67 1.965 . S
Zn60 O71 2.024 1_545 S
Zn60 O76 1.969 . S
Zn61 O68 1.969 . S
Zn61 O74 1.969 . S
Zn61 O75 1.965 . S
Zn61 O77 2.024 . S
C62 O63 1.229 1_565 S
C62 O71 1.058 . S
O63 C62 1.229 1_545 S
C64 O65 1.229 . S
C64 O77 1.058 . S
O65 C64 1.229 . S
O66 Zn60 1.969 . S
O66 C69 1.267 . S
O67 Zn60 1.965 . S
O67 C78 1.260 . S
O68 Zn61 1.969 . S
O68 C78 1.258 . S
C69 O66 1.267 . S
C69 O70 1.228 . S
O70 C69 1.228 . S
O71 Zn60 2.024 1_565 S
O71 C62 1.058 . S
C72 O73 1.228 . S
C72 O74 1.267 . S
O73 C72 1.228 . S
O74 Zn61 1.969 . S
O74 C72 1.267 . S
O75 Zn61 1.965 . S
O75 C79 1.260 . S
O76 Zn60 1.969 . S
O76 C79 1.258 . S
O77 Zn61 2.024 . S
O77 C64 1.058 . S
C78 O67 1.260 . S
C78 O68 1.258 . S
C79 O75 1.260 . S
C79 O76 1.258 . S
Zn80 O86 1.969 . S
Zn80 O87 1.965 . S
Zn80 O91 2.024 . S
Zn80 O96 1.969 . S
Zn81 O88 1.969 . S
Zn81 O94 1.969 . S
Zn81 O95 1.965 . S
Zn81 O97 2.024 . S
C82 O83 1.229 . S
C82 O91 1.058 . S
O83 C82 1.229 . S
C84 O85 1.229 . S
C84 O97 1.058 . S
O85 C84 1.229 . S
O86 Zn80 1.969 . S
O86 C89 1.267 . S
O87 Zn80 1.965 . S
O87 C98 1.260 . S
O88 Zn81 1.969 . S
O88 C98 1.258 . S
C89 O86 1.267 . S
C89 O90 1.228 . S
O90 C89 1.228 . S
O91 Zn80 2.024 . S
O91 C82 1.058 . S
C92 O93 1.228 . S
C92 O94 1.267 . S
O93 C92 1.228 . S
O94 Zn81 1.969 . S
O94 C92 1.267 . S
O95 Zn81 1.965 . S
O95 C99 1.260 . S
O96 Zn80 1.969 . S
O96 C99 1.258 . S
O97 Zn81 2.024 . S
O97 C84 1.058 . S
C98 O87 1.260 . S
C98 O88 1.258 . S
C99 O95 1.260 . S
C99 O96 1.258 . S
Zn100 O106 1.969 . S
Zn100 O107 1.965 . S
Zn100 O111 2.024 . S
Zn100 O116 1.969 . S
Zn101 O108 1.969 . S
Zn101 O114 1.969 . S
Zn101 O115 1.965 . S
Zn101 O117 2.024 . S
C102 O103 1.229 . S
C102 O111 1.058 . S
O103 C102 1.229 . S
C104 O105 1.229 . S
C104 O117 1.058 . S
O105 C104 1.229 . S
O106 Zn100 1.969 . S
O106 C109 1.267 . S
O107 Zn100 1.965 . S
O107 C118 1.260 . S
O108 Zn101 1.969 . S
O108 C118 1.258 . S
C109 O106 1.267 . S
C109 O110 1.228 . S
O110 C109 1.228 . S
O111 Zn100 2.024 . S
O111 C102 1.058 . S
C112 O113 1.228 . S
C112 O114 1.267 . S
O113 C112 1.228 . S
O114 Zn101 1.969 . S
O114 C112 1.267 . S
O115 Zn101 1.965 . S
O115 C119 1.260 . S
O116 Zn100 1.969 . S
O116 C119 1.258 . S
O117 Zn101 2.024 . S
O117 C104 1.058 . S
C118 O107 1.260 . S
C118 O108 1.258 . S
C119 O115 1.260 . S
C119 O116 1.258 . S
Zn120 O126 1.969 . S
Zn120 O127 1.965 . S
Zn120 O131 2.024 . S
Zn120 O136 1.969 . S
Zn121 O128 1.969 . S
Zn121 O134 1.969 . S
Zn121 O135 1.965 . S
Zn121 O137 2.024 . S
C122 O123 1.229 . S
C122 O131 1.058 . S
O123 C122 1.229 . S
C124 O125 1.229 . S
C124 O137 1.058 . S
O125 C124 1.229 . S
O126 Zn120 1.969 . S
O126 C129 1.267 . S
O127 Zn120 1.965 . S
O127 C138 1.260 . S
O128 Zn121 1.969 . S
O128 C138 1.258 . S
C129 O126 1.267 . S
C129 O130 1.228 . S
O130 C129 1.228 . S
O131 Zn120 2.024 . S
O131 C122 1.058 . S
C132 O133 1.228 . S
C132 O134 1.267 . S
O133 C132 1.228 . S
O134 Zn121 1.969 . S
O134 C132 1.267 . S
O135 Zn121 1.965 . S
O135 C139 1.260 . S
O136 Zn120 1.969 . S
O136 C139 1.258 . S
O137 Zn121 2.024 . S
O137 C124 1.058 . S
C138 O127 1.260 . S
C138 O128 1.258 . S
C139 O135 1.260 . S
C139 O136 1.258 . S
Zn140 O146 1.969 . S
Zn140 O147 1.965 . S
Zn140 O151 2.024 . S
Zn140 O156 1.969 1_455 S
Zn141 O148 1.969 . S
Zn141 O154 1.969 1_455 S
Zn141 O155 1.965 1_455 S
Zn141 O157 2.024 . S
C142 O143 1.232 . S
C142 O151 1.068 . S
O143 C142 1.232 . S
C144 O145 1.229 . S
C144 O157 1.058 . S
O145 C144 1.229 . S
O146 Zn140 1.969 . S
O146 C149 1.267 . S
O147 Zn140 1.965 . S
O147 C158 1.260 . S
O148 Zn141 1.969 . S
O148 C158 1.258 . S
C149 O146 1.267 . S
C149 O150 1.228 . S
O150 C149 1.228 . S
O151 Zn140 2.024 . S
O151 C142 1.068 . S
C152 O153 1.228 . S
C152 O154 1.267 . S
O153 C152 1.228 . S
O154 Zn141 1.969 1_655 S
O154 C152 1.267 . S
O155 Zn141 1.965 1_655 S
O155 C159 1.260 . S
O156 Zn140 1.969 1_655 S
O156 C159 1.258 . S
O157 Zn141 2.024 . S
O157 C144 1.058 . S
C158 O147 1.260 . S
C158 O148 1.258 . S
C159 O155 1.260 . S
C159 O156 1.258 . S
Zn160 O166 1.969 1_554 S
Zn160 O167 1.965 . S
Zn160 O171 2.024 . S
Zn160 O176 1.969 1_554 S
Zn161 O168 1.969 1_556 S
Zn161 O174 1.969 1_556 S
Zn161 O175 1.965 . S
Zn161 O177 2.024 . S
C162 O163 1.229 . S
C162 O171 1.058 . S
O163 C162 1.229 . S
C164 O165 1.229 . S
C164 O177 1.058 . S
O165 C164 1.229 . S
O166 Zn160 1.969 1_556 S
O166 C169 1.258 1_556 S
O167 Zn160 1.965 . S
O167 C178 1.260 . S
O168 Zn161 1.969 1_554 S
O168 C178 1.258 . S
C169 O166 1.258 1_554 S
C169 O170 1.246 . S
O170 C169 1.246 . S
O171 Zn160 2.024 . S
O171 C162 1.058 . S
C172 O173 1.228 1_554 S
C172 O174 1.267 . S
O173 C172 1.228 1_556 S
O174 Zn161 1.969 1_554 S
O174 C172 1.267 . S
O175 Zn161 1.965 . S
O175 C179 1.260 . S
O176 Zn160 1.969 1_556 S
O176 C179 1.258 . S
O177 Zn161 2.024 . S
O177 C164 1.058 . S
C178 O167 1.260 . S
C178 O168 1.258 . S
C179 O175 1.260 . S
C179 O176 1.258 . S
Zn180 O186 1.969 1_565 S
Zn180 O187 1.965 . S
Zn180 O191 2.024 . S
Zn180 O196 1.969 1_565 S
Zn181 O188 1.969 1_545 S
Zn181 O194 1.969 1_545 S
Zn181 O195 1.965 . S
Zn181 O197 2.024 . S
C182 O183 1.229 . S
C182 O191 1.058 . S
O183 C182 1.229 . S
C184 O185 1.229 . S
C184 O197 1.058 . S
O185 C184 1.229 . S
O186 Zn180 1.969 1_545 S
O186 C189 1.267 . S
O187 Zn180 1.965 . S
O187 C198 1.260 . S
O188 Zn181 1.969 1_565 S
O188 C198 1.258 . S
C189 O186 1.267 . S
C189 O190 1.228 1_545 S
O190 C189 1.228 1_565 S
O191 Zn180 2.024 . S
O191 C182 1.058 . S
C192 O193 1.192 1_565 S
C192 O194 1.285 . S
O193 C192 1.192 1_545 S
O194 Zn181 1.969 1_565 S
O194 C192 1.285 . S
O195 Zn181 1.965 . S
O195 C199 1.260 . S
O196 Zn180 1.969 1_545 S
O196 C199 1.258 . S
O197 Zn181 2.024 . S
O197 C184 1.058 . S
C198 O187 1.260 . S
C198 O188 1.258 . S
C199 O195 1.260 . S
C199 O196 1.258 . S
Zn200 O206 1.969 . S
Zn200 O207 1.965 . S
Zn200 O211 2.024 . S
Zn200 O216 1.969 . S
Zn201 O208 1.969 . S
Zn201 O214 1.969 . S
Zn201 O215 1.965 . S
Zn201 O217 2.024 . S
C202 O203 1.229 . S
C202 O211 1.058 . S
O203 C202 1.229 . S
C204 O205 1.229 . S
C204 O217 1.058 . S
O205 C204 1.229 . S
O206 Zn200 1.969 . S
O206 C209 1.267 . S
O207 Zn200 1.965 . S
O207 C218 1.260 . S
O208 Zn201 1.969 . S
O208 C218 1.258 . S
C209 O206 1.267 . S
C209 O210 1.228 . S
O210 C209 1.228 . S
O211 Zn200 2.024 . S
O211 C202 1.058 . S
C212 O213 1.228 . S
C212 O214 1.267 . S
O213 C212 1.228 . S
O214 Zn201 1.969 . S
O214 C212 1.267 . S
O215 Zn201 1.965 . S
O215 C219 1.260 . S
O216 Zn200 1.969 . S
O216 C219 1.258 . S
O217 Zn201 2.024 . S
O217 C204 1.058 . S
C218 O207 1.260 . S
C218 O208 1.258 . S
C219 O215 1.260 . S
C219 O216 1.258 . S
Zn220 O226 1.969 . S
Zn220 O227 1.965 . S
Zn220 O231 2.024 1_655 S
Zn220 O236 1.969 1_655 S
Zn221 O228 1.969 1_455 S
Zn221 O234 1.969 . S
Zn221 O235 1.965 . S
Zn221 O237 2.024 1_455 S
C222 O223 1.229 . S
C222 O231 1.058 . S
O223 C222 1.229 . S
C224 O225 1.229 . S
C224 O237 1.058 . S
O225 C224 1.229 . S
O226 Zn220 1.969 . S
O226 C229 1.267 . S
O227 Zn220 1.965 . S
O227 C238 1.260 . S
O228 Zn221 1.969 1_655 S
O228 C238 1.258 . S
C229 O226 1.267 . S
C229 O230 1.228 . S
O230 C229 1.228 . S
O231 Zn220 2.024 1_455 S
O231 C222 1.058 . S
C232 O233 1.228 . S
C232 O234 1.267 . S
O233 C232 1.228 . S
O234 Zn221 1.969 . S
O234 C232 1.267 . S
O235 Zn221 1.965 . S
O235 C239 1.260 . S
O236 Zn220 1.969 1_455 S
O236 C239 1.258 . S
O237 Zn221 2.024 1_655 S
O237 C224 1.058 . S
C238 O227 1.260 . S
C238 O228 1.258 . S
C239 O235 1.260 . S
C239 O236 1.258 . S
Zn240 O246 1.969 . S
Zn240 O247 1.965 . S
Zn240 O251 2.024 . S
Zn240 O256 1.969 . S
Zn241 O248 1.969 . S
Zn241 O254 1.969 . S
Zn241 O255 1.965 . S
Zn241 O257 2.024 . S
C242 O243 1.229 . S
C242 O251 1.058 . S
O243 C242 1.229 . S
C244 O245 1.229 . S
C244 O257 1.058 . S
O245 C244 1.229 . S
O246 Zn240 1.969 . S
O246 C249 1.267 . S
O247 Zn240 1.965 . S
O247 C258 1.260 . S
O248 Zn241 1.969 . S
O248 C258 1.258 . S
C249 O246 1.267 . S
C249 O250 1.228 . S
O250 C249 1.228 . S
O251 Zn240 2.024 . S
O251 C242 1.058 . S
C252 O253 1.228 . S
C252 O254 1.267 . S
O253 C252 1.228 . S
O254 Zn241 1.969 . S
O254 C252 1.267 . S
O255 Zn241 1.965 . S
O255 C259 1.260 . S
O256 Zn240 1.969 . S
O256 C259 1.258 . S
O257 Zn241 2.024 . S
O257 C244 1.058 . S
C258 O247 1.260 . S
C258 O248 1.258 . S
C259 O255 1.260 . S
C259 O256 1.258 . S
Zn260 O266 1.969 1_554 S
Zn260 O267 1.965 . S
Zn260 O271 2.024 . S
Zn260 O276 1.969 1_554 S
Zn261 O268 1.969 . S
Zn261 O274 1.969 . S
Zn261 O275 1.963 1_554 S
Zn261 O277 2.024 1_554 S
C262 O263 1.229 . S
C262 O271 1.058 . S
O263 C262 1.229 . S
C264 O265 1.229 . S
C264 O277 1.058 . S
O265 C264 1.229 . S
O266 Zn260 1.969 1_556 S
O266 C269 1.267 1_556 S
O267 Zn260 1.965 . S
O267 C278 1.260 . S
O268 Zn261 1.969 . S
O268 C278 1.258 . S
C269 O266 1.267 1_554 S
C269 O270 1.228 . S
O270 C269 1.228 . S
O271 Zn260 2.024 . S
O271 C262 1.058 . S
C272 O273 1.228 1_554 S
C272 O274 1.267 . S
O273 C272 1.228 1_556 S
O274 Zn261 1.969 . S
O274 C272 1.267 . S
O275 Zn261 1.963 1_556 S
O275 C279 1.284 . S
O276 Zn260 1.969 1_556 S
O276 C279 1.258 . S
O277 Zn261 2.024 1_556 S
O277 C264 1.058 . S
C278 O267 1.260 . S
C278 O268 1.258 . S
C279 O275 1.284 . S
C279 O276 1.258 . S
Zn280 O286 1.969 1_545 S
Zn280 O287 1.965 1_545 S
Zn280 O291 2.024 . S
Zn280 O296 1.969 . S
Zn281 O288 1.969 . S
Zn281 O294 1.969 . S
Zn281 O295 1.965 . S
Zn281 O297 2.024 . S
C282 O283 1.229 . S
C282 O291 1.058 . S
O283 C282 1.229 . S
C284 O285 1.229 . S
C284 O297 1.058 . S
O285 C284 1.229 . S
O286 Zn280 1.969 1_565 S
O286 C289 1.267 . S
O287 Zn280 1.965 1_565 S
O287 C298 1.260 . S
O288 Zn281 1.969 . S
O288 C298 1.258 1_545 S
C289 O286 1.267 . S
C289 O290 1.228 . S
O290 C289 1.228 . S
O291 Zn280 2.024 . S
O291 C282 1.058 . S
C292 O293 1.228 . S
C292 O294 1.267 . S
O293 C292 1.228 . S
O294 Zn281 1.969 . S
O294 C292 1.267 . S
O295 Zn281 1.965 . S
O295 C299 1.260 . S
O296 Zn280 1.969 . S
O296 C299 1.258 . S
O297 Zn281 2.024 . S
O297 C284 1.058 . S
C298 O287 1.260 . S
C298 O288 1.258 1_565 S
C299 O295 1.260 . S
C299 O296 1.258 . S
Zn300 O306 1.969 1_554 S
Zn300 O307 1.965 . S
Zn300 O311 2.024 . S
Zn300 O316 1.969 1_554 S
Zn301 O308 1.969 . S
Zn301 O314 1.969 . S
Zn301 O315 1.963 1_554 S
Zn301 O317 2.024 1_554 S
C302 O303 1.229 . S
C302 O311 1.058 . S
O303 C302 1.229 . S
C304 O305 1.229 . S
C304 O317 1.058 . S
O305 C304 1.229 . S
O306 Zn300 1.969 1_556 S
O306 C309 1.267 1_556 S
O307 Zn300 1.965 . S
O307 C318 1.260 . S
O308 Zn301 1.969 . S
O308 C318 1.258 . S
C309 O306 1.267 1_554 S
C309 O310 1.228 . S
O310 C309 1.228 . S
O311 Zn300 2.024 . S
O311 C302 1.058 . S
C312 O313 1.228 1_554 S
C312 O314 1.267 . S
O313 C312 1.228 1_556 S
O314 Zn301 1.969 . S
O314 C312 1.267 . S
O315 Zn301 1.963 1_556 S
O315 C319 1.284 . S
O316 Zn300 1.969 1_556 S
O316 C319 1.258 . S
O317 Zn301 2.024 1_556 S
O317 C304 1.058 . S
C318 O307 1.260 . S
C318 O308 1.258 . S
C319 O315 1.284 . S
C319 O316 1.258 . S
H320 C328 0.929 . S
H321 C330 0.930 . S
H322 C332 0.929 . S
H323 C335 0.929 1_455 S
H324 C338 0.930 . S
H325 C340 0.960 . S
H326 C340 0.960 . S
H327 C340 0.960 . S
C328 H320 0.929 . S
C328 C329 1.377 . S
C328 C330 1.384 . S
C329 C328 1.377 . S
C329 C335 1.390 . S
C330 H321 0.930 . S
C330 C328 1.384 . S
C330 C331 1.372 . S
C331 C330 1.372 . S
C331 C332 1.400 1_655 S
C331 C336 1.490 . S
C332 H322 0.929 . S
C332 C331 1.400 1_455 S
C332 C335 1.386 1_455 S
H333 C349 0.930 . S
H334 C350 0.931 . S
C335 H323 0.929 1_655 S
C335 C329 1.390 . S
C335 C332 1.386 1_655 S
C336 C331 1.490 . S
C336 C338 1.395 . S
C336 C339 1.403 1_655 S
H337 C343 0.930 . S
C338 H324 0.930 . S
C338 C336 1.395 . S
C338 C341 1.403 . S
C339 C336 1.403 1_455 S
C339 C340 1.524 . S
C339 C343 1.400 . S
C340 H325 0.960 . S
C340 H326 0.960 . S
C340 H327 0.960 . S
C340 C339 1.524 . S
C341 C338 1.403 . S
C341 C342 1.392 . S
C341 C345 1.495 . S
C342 C341 1.392 . S
C342 C343 1.385 1_655 S
C342 C344 1.478 . S
C343 H337 0.930 . S
C343 C339 1.400 . S
C343 C342 1.385 1_455 S
C344 C342 1.478 . S
C344 C346 1.381 . S
C344 C350 1.383 1_655 S
C345 C341 1.495 . S
C345 H351 0.959 . S
C345 H352 0.961 . S
C345 H353 0.960 . S
C346 C344 1.381 . S
C346 C347 1.394 . S
C346 H354 0.930 . S
C347 C346 1.394 . S
C347 C348 1.383 1_655 S
C347 H355 0.929 . S
C348 C347 1.383 1_455 S
C348 C349 1.377 . S
C349 H333 0.930 . S
C349 C348 1.377 . S
C349 C350 1.379 . S
C350 H334 0.931 . S
C350 C344 1.383 1_455 S
C350 C349 1.379 . S
H351 C345 0.959 . S
H352 C345 0.961 . S
H353 C345 0.960 . S
H354 C346 0.930 . S
H355 C347 0.929 . S
H356 C364 0.929 . S
H357 C366 0.930 . S
H358 C368 0.930 . S
H359 C371 0.929 . S
H360 C374 0.930 . S
H361 C376 0.960 . S
H362 C376 0.960 . S
H363 C376 0.960 . S
C364 H356 0.929 . S
C364 C365 1.377 . S
C364 C366 1.384 . S
C365 C364 1.377 . S
C365 C371 1.390 . S
C366 H357 0.930 . S
C366 C364 1.384 . S
C366 C367 1.372 . S
C367 C366 1.372 . S
C367 C368 1.400 . S
C367 C372 1.490 . S
C368 H358 0.930 . S
C368 C367 1.400 . S
C368 C371 1.386 . S
H369 C385 0.930 . S
H370 C386 0.931 . S
C371 H359 0.929 . S
C371 C365 1.390 . S
C371 C368 1.386 . S
C372 C367 1.490 . S
C372 C374 1.395 . S
C372 C375 1.403 . S
H373 C379 0.930 . S
C374 H360 0.930 . S
C374 C372 1.395 . S
C374 C377 1.403 . S
C375 C372 1.403 . S
C375 C376 1.524 . S
C375 C379 1.400 . S
C376 H361 0.960 . S
C376 H362 0.960 . S
C376 H363 0.960 . S
C376 C375 1.524 . S
C377 C374 1.403 . S
C377 C378 1.392 . S
C377 C381 1.495 . S
C378 C377 1.392 . S
C378 C379 1.385 . S
C378 C380 1.478 . S
C379 H373 0.930 . S
C379 C375 1.400 . S
C379 C378 1.385 . S
C380 C378 1.478 . S
C380 C382 1.381 . S
C380 C386 1.383 . S
C381 C377 1.495 . S
C381 H387 0.959 . S
C381 H388 0.961 . S
C381 H389 0.960 . S
C382 C380 1.381 . S
C382 C383 1.394 . S
C382 H390 0.930 . S
C383 C382 1.394 . S
C383 C384 1.383 . S
C383 H391 0.929 . S
C384 C383 1.383 . S
C384 C385 1.377 . S
C385 H369 0.930 . S
C385 C384 1.377 . S
C385 C386 1.379 . S
C386 H370 0.931 . S
C386 C380 1.383 . S
C386 C385 1.379 . S
H387 C381 0.959 . S
H388 C381 0.961 . S
H389 C381 0.960 . S
H390 C382 0.930 . S
H391 C383 0.929 . S
H392 C400 0.929 . S
H393 C402 0.930 . S
H394 C404 0.930 . S
H395 C407 0.929 . S
H396 C410 0.930 . S
H397 C412 0.960 . S
H398 C412 0.960 . S
H399 C412 0.960 . S
C400 H392 0.929 . S
C400 C401 1.377 . S
C400 C402 1.384 . S
C401 C400 1.377 . S
C401 C407 1.390 . S
C402 H393 0.930 . S
C402 C400 1.384 . S
C402 C403 1.372 . S
C403 C402 1.372 . S
C403 C404 1.400 . S
C403 C408 1.490 . S
C404 H394 0.930 . S
C404 C403 1.400 . S
C404 C407 1.386 . S
H405 C421 0.930 . S
H406 C422 0.931 . S
C407 H395 0.929 . S
C407 C401 1.390 . S
C407 C404 1.386 . S
C408 C403 1.490 . S
C408 C410 1.395 . S
C408 C411 1.403 . S
H409 C415 0.930 . S
C410 H396 0.930 . S
C410 C408 1.395 . S
C410 C413 1.403 . S
C411 C408 1.403 . S
C411 C412 1.524 . S
C411 C415 1.400 . S
C412 H397 0.960 . S
C412 H398 0.960 . S
C412 H399 0.960 . S
C412 C411 1.524 . S
C413 C410 1.403 . S
C413 C414 1.392 . S
C413 C417 1.495 . S
C414 C413 1.392 . S
C414 C415 1.385 . S
C414 C416 1.478 . S
C415 H409 0.930 . S
C415 C411 1.400 . S
C415 C414 1.385 . S
C416 C414 1.478 . S
C416 C418 1.381 . S
C416 C422 1.383 . S
C417 C413 1.495 . S
C417 H423 0.959 . S
C417 H424 0.961 . S
C417 H425 0.960 . S
C418 C416 1.381 . S
C418 C419 1.394 . S
C418 H426 0.930 . S
C419 C418 1.394 . S
C419 C420 1.383 . S
C419 H427 0.929 . S
C420 C419 1.383 . S
C420 C421 1.377 . S
C421 H405 0.930 . S
C421 C420 1.377 . S
C421 C422 1.379 . S
C422 H406 0.931 . S
C422 C416 1.383 . S
C422 C421 1.379 . S
H423 C417 0.959 . S
H424 C417 0.961 . S
H425 C417 0.960 . S
H426 C418 0.930 . S
H427 C419 0.929 . S
H428 C436 0.929 . S
H429 C438 0.930 . S
H430 C440 0.930 . S
H431 C443 0.929 . S
H432 C446 0.930 . S
H433 C448 0.960 . S
H434 C448 0.960 . S
H435 C448 0.960 . S
C436 H428 0.929 . S
C436 C437 1.377 . S
C436 C438 1.384 . S
C437 C436 1.377 . S
C437 C443 1.390 . S
C438 H429 0.930 . S
C438 C436 1.384 . S
C438 C439 1.372 . S
C439 C438 1.372 . S
C439 C440 1.400 . S
C439 C444 1.490 . S
C440 H430 0.930 . S
C440 C439 1.400 . S
C440 C443 1.386 . S
H441 C457 0.930 . S
H442 C458 0.931 . S
C443 H431 0.929 . S
C443 C437 1.390 . S
C443 C440 1.386 . S
C444 C439 1.490 . S
C444 C446 1.395 . S
C444 C447 1.403 . S
H445 C451 0.930 . S
C446 H432 0.930 . S
C446 C444 1.395 . S
C446 C449 1.403 . S
C447 C444 1.403 . S
C447 C448 1.524 . S
C447 C451 1.400 . S
C448 H433 0.960 . S
C448 H434 0.960 . S
C448 H435 0.960 . S
C448 C447 1.524 . S
C449 C446 1.403 . S
C449 C450 1.392 . S
C449 C453 1.495 1_545 S
C450 C449 1.392 . S
C450 C451 1.385 . S
C450 C452 1.478 . S
C451 H445 0.930 . S
C451 C447 1.400 . S
C451 C450 1.385 . S
C452 C450 1.478 . S
C452 C454 1.381 . S
C452 C458 1.383 . S
C453 C449 1.495 1_565 S
C453 H459 0.959 . S
C453 H460 0.961 . S
C453 H461 0.960 1_565 S
C454 C452 1.381 . S
C454 C455 1.394 . S
C454 H462 0.930 . S
C455 C454 1.394 . S
C455 C456 1.383 . S
C455 H463 0.929 . S
C456 C455 1.383 . S
C456 C457 1.377 . S
C457 H441 0.930 . S
C457 C456 1.377 . S
C457 C458 1.379 . S
C458 H442 0.931 . S
C458 C452 1.383 . S
C458 C457 1.379 . S
H459 C453 0.959 . S
H460 C453 0.961 . S
H461 C453 0.960 1_545 S
H462 C454 0.930 . S
H463 C455 0.929 . S
H464 C472 0.929 . S
H465 C474 0.930 . S
H466 C476 0.930 . S
H467 C479 0.929 . S
H468 C482 0.930 . S
H469 C484 0.960 . S
H470 C484 0.960 . S
H471 C484 0.960 . S
C472 H464 0.929 . S
C472 C473 1.377 . S
C472 C474 1.384 . S
C473 C472 1.377 . S
C473 C479 1.390 1_565 S
C474 H465 0.930 . S
C474 C472 1.384 . S
C474 C475 1.372 . S
C475 C474 1.372 . S
C475 C476 1.400 1_565 S
C475 C480 1.490 . S
C476 H466 0.930 . S
C476 C475 1.400 1_545 S
C476 C479 1.386 . S
H477 C493 0.930 . S
H478 C494 0.931 . S
C479 H467 0.929 . S
C479 C473 1.390 1_545 S
C479 C476 1.386 . S
C480 C475 1.490 . S
C480 C482 1.395 . S
C480 C483 1.403 1_565 S
H481 C487 0.930 . S
C482 H468 0.930 . S
C482 C480 1.395 . S
C482 C485 1.403 . S
C483 C480 1.403 1_545 S
C483 C484 1.524 . S
C483 C487 1.400 . S
C484 H469 0.960 . S
C484 H470 0.960 . S
C484 H471 0.960 . S
C484 C483 1.524 . S
C485 C482 1.403 . S
C485 C486 1.392 . S
C485 C489 1.495 . S
C486 C485 1.392 . S
C486 C487 1.385 1_565 S
C486 C488 1.478 . S
C487 H481 0.930 . S
C487 C483 1.400 . S
C487 C486 1.385 1_545 S
C488 C486 1.478 . S
C488 C490 1.381 . S
C488 C494 1.383 1_565 S
C489 C485 1.495 . S
C489 H495 0.959 . S
C489 H496 0.961 . S
C489 H497 0.960 . S
C490 C488 1.381 . S
C490 C491 1.394 . S
C490 H498 0.930 . S
C491 C490 1.394 . S
C491 C492 1.383 . S
C491 H499 0.929 . S
C492 C491 1.383 . S
C492 C493 1.377 1_565 S
C493 H477 0.930 . S
C493 C492 1.377 1_545 S
C493 C494 1.379 . S
C494 H478 0.931 . S
C494 C488 1.383 1_545 S
C494 C493 1.379 . S
H495 C489 0.959 . S
H496 C489 0.961 . S
H497 C489 0.960 . S
H498 C490 0.930 . S
H499 C491 0.929 . S
H500 C508 0.929 . S
H501 C510 0.930 . S
H502 C512 0.930 . S
H503 C515 0.929 . S
H504 C518 0.930 . S
H505 C520 0.960 . S
H506 C520 0.960 . S
H507 C520 0.960 . S
C508 H500 0.929 . S
C508 C509 1.377 . S
C508 C510 1.384 . S
C509 C508 1.377 . S
C509 C515 1.390 . S
C510 H501 0.930 . S
C510 C508 1.384 . S
C510 C511 1.372 . S
C511 C510 1.372 . S
C511 C512 1.400 . S
C511 C516 1.490 . S
C512 H502 0.930 . S
C512 C511 1.400 . S
C512 C515 1.386 . S
H513 C529 0.930 . S
H514 C530 0.931 . S
C515 H503 0.929 . S
C515 C509 1.390 . S
C515 C512 1.386 . S
C516 C511 1.490 . S
C516 C518 1.395 . S
C516 C519 1.403 . S
H517 C523 0.930 . S
C518 H504 0.930 . S
C518 C516 1.395 . S
C518 C521 1.403 . S
C519 C516 1.403 . S
C519 C520 1.524 . S
C519 C523 1.400 . S
C520 H505 0.960 . S
C520 H506 0.960 . S
C520 H507 0.960 . S
C520 C519 1.524 . S
C521 C518 1.403 . S
C521 C522 1.392 . S
C521 C525 1.495 . S
C522 C521 1.392 . S
C522 C523 1.385 . S
C522 C524 1.478 . S
C523 H517 0.930 . S
C523 C519 1.400 . S
C523 C522 1.385 . S
C524 C522 1.478 . S
C524 C526 1.381 . S
C524 C530 1.383 . S
C525 C521 1.495 . S
C525 H531 0.959 . S
C525 H532 0.961 . S
C525 H533 0.960 . S
C526 C524 1.381 . S
C526 C527 1.394 . S
C526 H534 0.904 1_455 S
C527 C526 1.394 . S
C527 C528 1.383 . S
C527 H535 0.929 1_455 S
C528 C527 1.383 . S
C528 C529 1.377 . S
C529 H513 0.930 . S
C529 C528 1.377 . S
C529 C530 1.379 . S
C530 H514 0.931 . S
C530 C524 1.383 . S
C530 C529 1.379 . S
H531 C525 0.959 . S
H532 C525 0.961 . S
H533 C525 0.960 . S
H534 C526 0.904 1_655 S
H535 C527 0.929 1_655 S
H536 C544 0.929 . S
H537 C546 0.930 . S
H538 C548 0.930 . S
H539 C551 0.929 . S
H540 C554 0.930 . S
H541 C556 0.960 . S
H542 C556 0.960 . S
H543 C556 0.960 . S
C544 H536 0.929 . S
C544 C545 1.377 . S
C544 C546 1.384 . S
C545 C544 1.377 . S
C545 C551 1.390 . S
C546 H537 0.930 . S
C546 C544 1.384 . S
C546 C547 1.372 . S
C547 C546 1.372 . S
C547 C548 1.400 . S
C547 C552 1.490 . S
C548 H538 0.930 . S
C548 C547 1.400 . S
C548 C551 1.386 . S
H549 C565 0.930 . S
H550 C566 0.931 . S
C551 H539 0.929 . S
C551 C545 1.390 . S
C551 C548 1.386 . S
C552 C547 1.490 . S
C552 C554 1.395 . S
C552 C555 1.403 . S
H553 C559 0.930 . S
C554 H540 0.930 . S
C554 C552 1.395 . S
C554 C557 1.403 . S
C555 C552 1.403 . S
C555 C556 1.524 . S
C555 C559 1.400 . S
C556 H541 0.960 . S
C556 H542 0.960 . S
C556 H543 0.960 . S
C556 C555 1.524 . S
C557 C554 1.403 . S
C557 C558 1.392 . S
C557 C561 1.495 . S
C558 C557 1.392 . S
C558 C559 1.385 . S
C558 C560 1.478 . S
C559 H553 0.930 . S
C559 C555 1.400 . S
C559 C558 1.385 . S
C560 C558 1.478 . S
C560 C562 1.381 . S
C560 C566 1.383 . S
C561 C557 1.495 . S
C561 H567 0.959 . S
C561 H568 0.961 . S
C561 H569 0.960 . S
C562 C560 1.381 . S
C562 C563 1.394 . S
C562 H570 0.930 . S
C563 C562 1.394 . S
C563 C564 1.383 . S
C563 H571 0.929 . S
C564 C563 1.383 . S
C564 C565 1.377 . S
C565 H549 0.930 . S
C565 C564 1.377 . S
C565 C566 1.379 . S
C566 H550 0.931 . S
C566 C560 1.383 . S
C566 C565 1.379 . S
H567 C561 0.959 . S
H568 C561 0.961 . S
H569 C561 0.960 . S
H570 C562 0.930 . S
H571 C563 0.929 . S
H572 C580 0.929 . S
H573 C582 0.930 . S
H574 C584 0.930 . S
H575 C587 0.929 1_545 S
H576 C590 0.930 . S
H577 C592 0.960 . S
H578 C592 0.960 . S
H579 C592 0.960 . S
C580 H572 0.929 . S
C580 C581 1.377 . S
C580 C582 1.384 . S
C581 C580 1.377 . S
C581 C587 1.390 . S
C582 H573 0.930 . S
C582 C580 1.384 . S
C582 C583 1.372 . S
C583 C582 1.372 . S
C583 C584 1.400 . S
C583 C588 1.490 . S
C584 H574 0.930 . S
C584 C583 1.400 . S
C584 C587 1.386 . S
H585 C601 0.930 . S
H586 C602 0.931 . S
C587 H575 0.929 1_565 S
C587 C581 1.390 . S
C587 C584 1.386 . S
C588 C583 1.490 . S
C588 C590 1.395 . S
C588 C591 1.403 . S
H589 C595 0.930 . S
C590 H576 0.930 . S
C590 C588 1.395 . S
C590 C593 1.403 . S
C591 C588 1.403 . S
C591 C592 1.524 . S
C591 C595 1.400 . S
C592 H577 0.960 . S
C592 H578 0.960 . S
C592 H579 0.960 . S
C592 C591 1.524 . S
C593 C590 1.403 . S
C593 C594 1.392 . S
C593 C597 1.495 . S
C594 C593 1.392 . S
C594 C595 1.385 . S
C594 C596 1.478 . S
C595 H589 0.930 . S
C595 C591 1.400 . S
C595 C594 1.385 . S
C596 C594 1.478 . S
C596 C598 1.381 . S
C596 C602 1.383 . S
C597 C593 1.495 . S
C597 H603 0.959 . S
C597 H604 0.961 . S
C597 H605 0.960 . S
C598 C596 1.381 . S
C598 C599 1.394 . S
C598 H606 0.930 . S
C599 C598 1.394 . S
C599 C600 1.383 . S
C599 H607 0.929 . S
C600 C599 1.383 . S
C600 C601 1.377 . S
C601 H585 0.930 . S
C601 C600 1.377 . S
C601 C602 1.379 . S
C602 H586 0.931 . S
C602 C596 1.383 . S
C602 C601 1.379 . S
H603 C597 0.959 . S
H604 C597 0.961 . S
H605 C597 0.960 . S
H606 C598 0.930 . S
H607 C599 0.929 . S
H608 C616 0.929 . S
H609 C618 0.930 . S
H610 C620 0.930 . S
H611 C623 0.929 . S
H612 C626 0.930 . S
H613 C628 0.960 . S
H614 C628 0.960 . S
H615 C628 0.960 . S
C616 H608 0.929 . S
C616 C617 1.377 . S
C616 C618 1.384 . S
C617 C616 1.377 . S
C617 C623 1.390 . S
C618 H609 0.930 . S
C618 C616 1.384 . S
C618 C619 1.372 . S
C619 C618 1.372 . S
C619 C620 1.400 . S
C619 C624 1.490 . S
C620 H610 0.930 . S
C620 C619 1.400 . S
C620 C623 1.386 . S
H621 C637 0.930 . S
H622 C638 0.931 . S
C623 H611 0.929 . S
C623 C617 1.390 . S
C623 C620 1.386 . S
C624 C619 1.490 . S
C624 C626 1.395 . S
C624 C627 1.403 . S
H625 C631 0.930 . S
C626 H612 0.930 . S
C626 C624 1.395 . S
C626 C629 1.403 . S
C627 C624 1.403 . S
C627 C628 1.524 . S
C627 C631 1.400 . S
C628 H613 0.960 . S
C628 H614 0.960 . S
C628 H615 0.960 . S
C628 C627 1.524 . S
C629 C626 1.403 . S
C629 C630 1.392 . S
C629 C633 1.495 . S
C630 C629 1.392 . S
C630 C631 1.385 . S
C630 C632 1.478 . S
C631 H625 0.930 . S
C631 C627 1.400 . S
C631 C630 1.385 . S
C632 C630 1.478 . S
C632 C634 1.381 . S
C632 C638 1.383 . S
C633 C629 1.495 . S
C633 H639 0.959 . S
C633 H640 0.961 . S
C633 H641 0.960 . S
C634 C632 1.381 . S
C634 C635 1.394 . S
C634 H642 0.930 . S
C635 C634 1.394 . S
C635 C636 1.383 . S
C635 H643 0.929 . S
C636 C635 1.383 . S
C636 C637 1.377 . S
C637 H621 0.930 . S
C637 C636 1.377 . S
C637 C638 1.379 . S
C638 H622 0.931 . S
C638 C632 1.383 . S
C638 C637 1.379 . S
H639 C633 0.959 . S
H640 C633 0.961 . S
H641 C633 0.960 . S
H642 C634 0.930 . S
H643 C635 0.929 . S
H644 C652 0.929 . S
H645 C654 0.930 . S
H646 C656 0.930 . S
H647 C659 0.929 . S
H648 C662 0.930 . S
H649 C664 0.960 . S
H650 C664 0.960 . S
H651 C664 0.960 . S
C652 H644 0.929 . S
C652 C653 1.377 . S
C652 C654 1.384 . S
C653 C652 1.377 . S
C653 C659 1.390 . S
C654 H645 0.930 . S
C654 C652 1.384 . S
C654 C655 1.372 . S
C655 C654 1.372 . S
C655 C656 1.400 . S
C655 C660 1.490 . S
C656 H646 0.930 . S
C656 C655 1.400 . S
C656 C659 1.386 . S
H657 C673 0.930 . S
H658 C674 0.931 . S
C659 H647 0.929 . S
C659 C653 1.390 . S
C659 C656 1.386 . S
C660 C655 1.490 . S
C660 C662 1.395 . S
C660 C663 1.403 . S
H661 C667 0.930 . S
C662 H648 0.930 . S
C662 C660 1.395 . S
C662 C665 1.403 . S
C663 C660 1.403 . S
C663 C664 1.524 . S
C663 C667 1.400 . S
C664 H649 0.960 . S
C664 H650 0.960 . S
C664 H651 0.960 . S
C664 C663 1.524 . S
C665 C662 1.403 . S
C665 C666 1.392 . S
C665 C669 1.495 . S
C666 C665 1.392 . S
C666 C667 1.385 . S
C666 C668 1.478 . S
C667 H661 0.930 . S
C667 C663 1.400 . S
C667 C666 1.385 . S
C668 C666 1.478 . S
C668 C670 1.381 . S
C668 C674 1.383 . S
C669 C665 1.495 . S
C669 H675 0.959 . S
C669 H676 0.961 . S
C669 H677 0.960 . S
C670 C668 1.381 . S
C670 C671 1.394 . S
C670 H678 0.930 . S
C671 C670 1.394 . S
C671 C672 1.383 . S
C671 H679 0.929 . S
C672 C671 1.383 . S
C672 C673 1.377 . S
C673 H657 0.930 . S
C673 C672 1.377 . S
C673 C674 1.379 . S
C674 H658 0.931 . S
C674 C668 1.383 . S
C674 C673 1.379 . S
H675 C669 0.959 . S
H676 C669 0.961 . S
H677 C669 0.960 . S
H678 C670 0.930 . S
H679 C671 0.929 . S
H680 C688 0.929 . S
H681 C690 0.930 . S
H682 C692 0.930 . S
H683 C695 0.929 . S
H684 C698 0.930 . S
H685 C700 0.960 . S
H686 C700 0.960 . S
H687 C700 0.960 1_545 S
C688 H680 0.929 . S
C688 C689 1.377 1_565 S
C688 C690 1.384 . S
C689 C688 1.377 1_545 S
C689 C695 1.390 . S
C690 H681 0.930 . S
C690 C688 1.384 . S
C690 C691 1.372 1_565 S
C691 C690 1.372 1_545 S
C691 C692 1.400 . S
C691 C696 1.490 . S
C692 H682 0.930 . S
C692 C691 1.400 . S
C692 C695 1.386 . S
H693 C709 0.930 . S
H694 C710 0.931 . S
C695 H683 0.929 . S
C695 C689 1.390 . S
C695 C692 1.386 . S
C696 C691 1.490 . S
C696 C698 1.395 . S
C696 C699 1.403 . S
H697 C703 0.930 . S
C698 H684 0.930 . S
C698 C696 1.395 . S
C698 C701 1.403 . S
C699 C696 1.403 . S
C699 C700 1.524 1_545 S
C699 C703 1.400 . S
C700 H685 0.960 . S
C700 H686 0.960 . S
C700 H687 0.960 1_565 S
C700 C699 1.524 1_565 S
C701 C698 1.403 . S
C701 C702 1.392 . S
C701 C705 1.495 . S
C702 C701 1.392 . S
C702 C703 1.385 . S
C702 C704 1.478 . S
C703 H697 0.930 . S
C703 C699 1.400 . S
C703 C702 1.385 . S
C704 C702 1.478 . S
C704 C706 1.381 . S
C704 C710 1.383 . S
C705 C701 1.495 . S
C705 H711 0.959 . S
C705 H712 0.961 . S
C705 H713 0.960 . S
C706 C704 1.381 . S
C706 C707 1.394 . S
C706 H714 0.930 1_545 S
C707 C706 1.394 . S
C707 C708 1.383 . S
C707 H715 0.929 1_545 S
C708 C707 1.383 . S
C708 C709 1.377 . S
C709 H693 0.930 . S
C709 C708 1.377 . S
C709 C710 1.379 . S
C710 H694 0.931 . S
C710 C704 1.383 . S
C710 C709 1.379 . S
H711 C705 0.959 . S
H712 C705 0.961 . S
H713 C705 0.960 . S
H714 C706 0.930 1_565 S
H715 C707 0.929 1_565 S
H716 C724 0.929 1_655 S
H717 C726 0.904 1_655 S
H718 C728 0.930 . S
H719 C731 0.929 . S
H720 C734 0.956 . S
H721 C736 0.960 . S
H722 C736 0.960 . S
H723 C736 0.960 . S
C724 H716 0.929 1_455 S
C724 C725 1.377 . S
C724 C726 1.389 . S
C725 C724 1.377 . S
C725 C731 1.390 . S
C726 H717 0.904 1_455 S
C726 C724 1.389 . S
C726 C727 1.393 . S
C727 C726 1.393 . S
C727 C728 1.400 . S
C727 C732 1.490 . S
C728 H718 0.930 . S
C728 C727 1.400 . S
C728 C731 1.386 . S
H729 C745 0.930 . S
H730 C746 0.931 . S
C731 H719 0.929 . S
C731 C725 1.390 . S
C731 C728 1.386 . S
C732 C727 1.490 . S
C732 C734 1.361 1_455 S
C732 C735 1.403 . S
H733 C739 0.930 . S
C734 H720 0.956 . S
C734 C732 1.361 1_655 S
C734 C737 1.414 . S
C735 C732 1.403 . S
C735 C736 1.524 . S
C735 C739 1.400 . S
C736 H721 0.960 . S
C736 H722 0.960 . S
C736 H723 0.960 . S
C736 C735 1.524 . S
C737 C734 1.414 . S
C737 C738 1.392 1_655 S
C737 C741 1.495 . S
C738 C737 1.392 1_455 S
C738 C739 1.385 . S
C738 C740 1.478 . S
C739 H733 0.930 . S
C739 C735 1.400 . S
C739 C738 1.385 . S
C740 C738 1.478 . S
C740 C742 1.381 1_455 S
C740 C746 1.383 . S
C741 C737 1.495 . S
C741 H747 0.959 . S
C741 H748 0.961 . S
C741 H749 0.960 . S
C742 C740 1.381 1_655 S
C742 C743 1.394 . S
C742 H750 0.930 . S
C743 C742 1.394 . S
C743 C744 1.383 1_655 S
C743 H751 0.929 . S
C744 C743 1.383 1_455 S
C744 C745 1.377 . S
C745 H729 0.930 . S
C745 C744 1.377 . S
C745 C746 1.379 . S
C746 H730 0.931 . S
C746 C740 1.383 . S
C746 C745 1.379 . S
H747 C741 0.959 . S
H748 C741 0.961 . S
H749 C741 0.960 . S
H750 C742 0.930 . S
H751 C743 0.929 . S
H752 C760 0.929 . S
H753 C762 0.930 . S
H754 C764 0.930 . S
H755 C767 0.929 . S
H756 C770 0.930 . S
H757 C772 0.960 . S
H758 C772 0.960 . S
H759 C772 0.960 1_554 S
C760 H752 0.929 . S
C760 C761 1.377 . S
C760 C762 1.384 . S
C761 C760 1.377 . S
C761 C767 1.390 1_556 S
C762 H753 0.930 . S
C762 C760 1.384 . S
C762 C763 1.372 . S
C763 C762 1.372 . S
C763 C764 1.400 1_556 S
C763 C768 1.490 . S
C764 H754 0.930 . S
C764 C763 1.400 1_554 S
C764 C767 1.386 . S
H765 C781 0.930 . S
H766 C782 0.931 . S
C767 H755 0.929 . S
C767 C761 1.390 1_554 S
C767 C764 1.386 . S
C768 C763 1.490 . S
C768 C770 1.395 . S
C768 C771 1.403 . S
H769 C775 0.930 . S
C770 H756 0.930 . S
C770 C768 1.395 . S
C770 C773 1.403 . S
C771 C768 1.403 . S
C771 C772 1.524 . S
C771 C775 1.400 . S
C772 H757 0.960 . S
C772 H758 0.960 . S
C772 H759 0.960 1_556 S
C772 C771 1.524 . S
C773 C770 1.403 . S
C773 C774 1.392 . S
C773 C777 1.495 . S
C774 C773 1.392 . S
C774 C775 1.385 . S
C774 C776 1.478 . S
C775 H769 0.930 . S
C775 C771 1.400 . S
C775 C774 1.385 . S
C776 C774 1.478 . S
C776 C778 1.381 . S
C776 C782 1.383 1_556 S
C777 C773 1.495 . S
C777 H783 0.959 . S
C777 H784 0.961 1_556 S
C777 H785 0.960 . S
C778 C776 1.381 . S
C778 C779 1.394 . S
C778 H786 0.930 . S
C779 C778 1.394 . S
C779 C780 1.383 . S
C779 H787 0.929 . S
C780 C779 1.383 . S
C780 C781 1.377 1_556 S
C781 H765 0.930 . S
C781 C780 1.377 1_554 S
C781 C782 1.379 . S
C782 H766 0.931 . S
C782 C776 1.383 1_554 S
C782 C781 1.379 . S
H783 C777 0.959 . S
H784 C777 0.961 1_554 S
H785 C777 0.960 . S
H786 C778 0.930 . S
H787 C779 0.929 . S
H788 C796 0.929 . S
H789 C798 0.930 . S
H790 C800 0.930 . S
H791 C803 0.929 . S
H792 C806 0.930 . S
H793 C808 0.960 . S
H794 C808 0.960 . S
H795 C808 0.960 . S
C796 H788 0.929 . S
C796 C797 1.377 . S
C796 C798 1.384 . S
C797 C796 1.377 . S
C797 C803 1.390 . S
C798 H789 0.930 . S
C798 C796 1.384 . S
C798 C799 1.372 . S
C799 C798 1.372 . S
C799 C800 1.400 . S
C799 C804 1.490 . S
C800 H790 0.930 . S
C800 C799 1.400 . S
C800 C803 1.386 . S
H801 C817 0.930 . S
H802 C818 0.931 . S
C803 H791 0.929 . S
C803 C797 1.390 . S
C803 C800 1.386 . S
C804 C799 1.490 . S
C804 C806 1.395 . S
C804 C807 1.403 . S
H805 C811 0.930 . S
C806 H792 0.930 . S
C806 C804 1.395 . S
C806 C809 1.403 . S
C807 C804 1.403 . S
C807 C808 1.524 . S
C807 C811 1.400 . S
C808 H793 0.960 . S
C808 H794 0.960 . S
C808 H795 0.960 . S
C808 C807 1.524 . S
C809 C806 1.403 . S
C809 C810 1.392 . S
C809 C813 1.495 . S
C810 C809 1.392 . S
C810 C811 1.385 . S
C810 C812 1.478 . S
C811 H805 0.930 . S
C811 C807 1.400 . S
C811 C810 1.385 . S
C812 C810 1.478 . S
C812 C814 1.381 . S
C812 C818 1.383 . S
C813 C809 1.495 . S
C813 H819 0.959 . S
C813 H820 0.961 . S
C813 H821 0.960 . S
C814 C812 1.381 . S
C814 C815 1.394 . S
C814 H822 0.930 . S
C815 C814 1.394 . S
C815 C816 1.383 . S
C815 H823 0.929 . S
C816 C815 1.383 . S
C816 C817 1.377 . S
C817 H801 0.930 . S
C817 C816 1.377 . S
C817 C818 1.379 . S
C818 H802 0.931 . S
C818 C812 1.383 . S
C818 C817 1.379 . S
H819 C813 0.959 . S
H820 C813 0.961 . S
H821 C813 0.960 . S
H822 C814 0.930 . S
H823 C815 0.929 . S
H824 C832 0.929 . S
H825 C834 0.930 . S
H826 C836 0.930 . S
H827 C839 0.929 . S
H828 C842 0.930 . S
H829 C844 0.960 . S
H830 C844 0.960 . S
H831 C844 0.960 . S
C832 H824 0.929 . S
C832 C833 1.377 . S
C832 C834 1.384 . S
C833 C832 1.377 . S
C833 C839 1.390 . S
C834 H825 0.930 . S
C834 C832 1.384 . S
C834 C835 1.372 . S
C835 C834 1.372 . S
C835 C836 1.400 . S
C835 C840 1.490 . S
C836 H826 0.930 . S
C836 C835 1.400 . S
C836 C839 1.386 . S
H837 C853 0.930 . S
H838 C854 0.931 . S
C839 H827 0.929 . S
C839 C833 1.390 . S
C839 C836 1.386 . S
C840 C835 1.490 . S
C840 C842 1.395 . S
C840 C843 1.403 . S
H841 C847 0.930 . S
C842 H828 0.930 . S
C842 C840 1.395 . S
C842 C845 1.403 . S
C843 C840 1.403 . S
C843 C844 1.524 . S
C843 C847 1.400 . S
C844 H829 0.960 . S
C844 H830 0.960 . S
C844 H831 0.960 . S
C844 C843 1.524 . S
C845 C842 1.403 . S
C845 C846 1.392 . S
C845 C849 1.495 . S
C846 C845 1.392 . S
C846 C847 1.385 . S
C846 C848 1.478 . S
C847 H841 0.930 . S
C847 C843 1.400 . S
C847 C846 1.385 . S
C848 C846 1.478 . S
C848 C850 1.381 . S
C848 C854 1.383 . S
C849 C845 1.495 . S
C849 H855 0.959 . S
C849 H856 0.961 . S
C849 H857 0.960 . S
C850 C848 1.381 . S
C850 C851 1.394 . S
C850 H858 0.930 . S
C851 C850 1.394 . S
C851 C852 1.383 . S
C851 H859 0.929 . S
C852 C851 1.383 . S
C852 C853 1.377 . S
C853 H837 0.930 . S
C853 C852 1.377 . S
C853 C854 1.379 . S
C854 H838 0.931 . S
C854 C848 1.383 . S
C854 C853 1.379 . S
H855 C849 0.959 . S
H856 C849 0.961 . S
H857 C849 0.960 . S
H858 C850 0.930 . S
H859 C851 0.929 . S
H860 C868 0.929 . S
H861 C870 0.930 . S
H862 C872 0.930 . S
H863 C875 0.929 . S
H864 C878 0.930 . S
H865 C880 0.960 . S
H866 C880 0.960 . S
H867 C880 0.960 . S
C868 H860 0.929 . S
C868 C869 1.377 . S
C868 C870 1.384 . S
C869 C868 1.377 . S
C869 C875 1.390 . S
C870 H861 0.930 . S
C870 C868 1.384 . S
C870 C871 1.372 . S
C871 C870 1.372 . S
C871 C872 1.400 . S
C871 C876 1.490 . S
C872 H862 0.930 . S
C872 C871 1.400 . S
C872 C875 1.386 . S
H873 C889 0.930 . S
H874 C890 0.931 . S
C875 H863 0.929 . S
C875 C869 1.390 . S
C875 C872 1.386 . S
C876 C871 1.490 . S
C876 C878 1.395 . S
C876 C879 1.403 . S
H877 C883 0.930 . S
C878 H864 0.930 . S
C878 C876 1.395 . S
C878 C881 1.403 . S
C879 C876 1.403 . S
C879 C880 1.524 . S
C879 C883 1.400 . S
C880 H865 0.960 . S
C880 H866 0.960 . S
C880 H867 0.960 . S
C880 C879 1.524 . S
C881 C878 1.403 . S
C881 C882 1.392 . S
C881 C885 1.495 . S
C882 C881 1.392 . S
C882 C883 1.385 . S
C882 C884 1.478 . S
C883 H877 0.930 . S
C883 C879 1.400 . S
C883 C882 1.385 . S
C884 C882 1.478 . S
C884 C886 1.381 . S
C884 C890 1.383 . S
C885 C881 1.495 . S
C885 H891 0.959 . S
C885 H892 0.961 . S
C885 H893 0.960 . S
C886 C884 1.381 . S
C886 C887 1.394 . S
C886 H894 0.930 . S
C887 C886 1.394 . S
C887 C888 1.383 . S
C887 H895 0.929 . S
C888 C887 1.383 . S
C888 C889 1.377 . S
C889 H873 0.930 . S
C889 C888 1.377 . S
C889 C890 1.379 . S
C890 H874 0.931 . S
C890 C884 1.383 . S
C890 C889 1.379 . S
H891 C885 0.959 . S
H892 C885 0.961 . S
H893 C885 0.960 . S
H894 C886 0.930 . S
H895 C887 0.929 . S
H896 C904 0.929 . S
H897 C906 0.930 . S
H898 C908 0.930 . S
H899 C911 0.929 . S
H900 C914 0.930 . S
H901 C916 0.960 . S
H902 C916 0.960 . S
H903 C916 0.960 . S
C904 H896 0.929 . S
C904 C905 1.377 . S
C904 C906 1.384 . S
C905 C904 1.377 . S
C905 C911 1.390 . S
C906 H897 0.930 . S
C906 C904 1.384 . S
C906 C907 1.372 . S
C907 C906 1.372 . S
C907 C908 1.400 . S
C907 C912 1.490 . S
C908 H898 0.930 . S
C908 C907 1.400 . S
C908 C911 1.386 . S
H909 C925 0.930 . S
H910 C926 0.931 . S
C911 H899 0.929 . S
C911 C905 1.390 . S
C911 C908 1.386 . S
C912 C907 1.490 . S
C912 C914 1.395 . S
C912 C915 1.403 . S
H913 C919 0.930 . S
C914 H900 0.930 . S
C914 C912 1.395 . S
C914 C917 1.403 . S
C915 C912 1.403 . S
C915 C916 1.524 . S
C915 C919 1.400 . S
C916 H901 0.960 . S
C916 H902 0.960 . S
C916 H903 0.960 . S
C916 C915 1.524 . S
C917 C914 1.403 . S
C917 C918 1.392 . S
C917 C921 1.495 . S
C918 C917 1.392 . S
C918 C919 1.385 . S
C918 C920 1.478 . S
C919 H913 0.930 . S
C919 C915 1.400 . S
C919 C918 1.385 . S
C920 C918 1.478 . S
C920 C922 1.381 . S
C920 C926 1.383 . S
C921 C917 1.495 . S
C921 H927 0.959 . S
C921 H928 0.961 . S
C921 H929 0.960 . S
C922 C920 1.381 . S
C922 C923 1.394 . S
C922 H930 0.930 . S
C923 C922 1.394 . S
C923 C924 1.383 . S
C923 H931 0.929 . S
C924 C923 1.383 . S
C924 C925 1.377 . S
C925 H909 0.930 . S
C925 C924 1.377 . S
C925 C926 1.379 . S
C926 H910 0.931 . S
C926 C920 1.383 . S
C926 C925 1.379 . S
H927 C921 0.959 . S
H928 C921 0.961 . S
H929 C921 0.960 . S
H930 C922 0.930 . S
H931 C923 0.929 . S
H932 C940 0.929 . S
H933 C942 0.930 . S
H934 C944 0.930 . S
H935 C947 0.929 . S
H936 C950 0.930 . S
H937 C952 0.960 . S
H938 C952 0.960 . S
H939 C952 0.960 . S
C940 H932 0.929 . S
C940 C941 1.377 . S
C940 C942 1.384 . S
C941 C940 1.377 . S
C941 C947 1.390 . S
C942 H933 0.930 . S
C942 C940 1.384 . S
C942 C943 1.372 . S
C943 C942 1.372 . S
C943 C944 1.400 . S
C943 C948 1.490 . S
C944 H934 0.930 . S
C944 C943 1.400 . S
C944 C947 1.386 . S
H945 C961 0.930 . S
H946 C962 0.931 . S
C947 H935 0.929 . S
C947 C941 1.390 . S
C947 C944 1.386 . S
C948 C943 1.490 . S
C948 C950 1.395 . S
C948 C951 1.403 . S
H949 C955 0.930 . S
C950 H936 0.930 . S
C950 C948 1.395 . S
C950 C953 1.403 . S
C951 C948 1.403 . S
C951 C952 1.524 . S
C951 C955 1.400 . S
C952 H937 0.960 . S
C952 H938 0.960 . S
C952 H939 0.960 . S
C952 C951 1.524 . S
C953 C950 1.403 . S
C953 C954 1.392 . S
C953 C957 1.495 . S
C954 C953 1.392 . S
C954 C955 1.385 . S
C954 C956 1.478 . S
C955 H949 0.930 . S
C955 C951 1.400 . S
C955 C954 1.385 . S
C956 C954 1.478 . S
C956 C958 1.381 . S
C956 C962 1.383 . S
C957 C953 1.495 . S
C957 H963 0.959 . S
C957 H964 0.961 . S
C957 H965 0.960 . S
C958 C956 1.381 . S
C958 C959 1.394 . S
C958 H966 0.930 . S
C959 C958 1.394 . S
C959 C960 1.383 . S
C959 H967 0.929 . S
C960 C959 1.383 . S
C960 C961 1.377 . S
C961 H945 0.930 . S
C961 C960 1.377 . S
C961 C962 1.379 . S
C962 H946 0.931 . S
C962 C956 1.383 . S
C962 C961 1.379 . S
H963 C957 0.959 . S
H964 C957 0.961 . S
H965 C957 0.960 . S
H966 C958 0.930 . S
H967 C959 0.929 . S
H968 C976 0.929 . S
H969 C978 0.930 . S
H970 C980 0.930 . S
H971 C983 0.929 . S
H972 C986 0.930 . S
H973 C988 0.960 . S
H974 C988 0.960 . S
H975 C988 0.960 . S
C976 H968 0.929 . S
C976 C977 1.377 . S
C976 C978 1.384 . S
C977 C976 1.377 . S
C977 C983 1.390 . S
C978 H969 0.930 . S
C978 C976 1.384 . S
C978 C979 1.372 . S
C979 C978 1.372 . S
C979 C980 1.400 . S
C979 C984 1.490 . S
C980 H970 0.930 . S
C980 C979 1.400 . S
C980 C983 1.386 . S
H981 C997 0.930 . S
H982 C998 0.931 . S
C983 H971 0.929 . S
C983 C977 1.390 . S
C983 C980 1.386 . S
C984 C979 1.490 . S
C984 C986 1.395 . S
C984 C987 1.403 . S
H985 C991 0.930 . S
C986 H972 0.930 . S
C986 C984 1.395 . S
C986 C989 1.403 . S
C987 C984 1.403 . S
C987 C988 1.524 . S
C987 C991 1.400 . S
C988 H973 0.960 . S
C988 H974 0.960 . S
C988 H975 0.960 . S
C988 C987 1.524 . S
C989 C986 1.403 . S
C989 C990 1.392 . S
C989 C993 1.495 . S
C990 C989 1.392 . S
C990 C991 1.385 . S
C990 C992 1.478 . S
C991 H985 0.930 . S
C991 C987 1.400 . S
C991 C990 1.385 . S
C992 C990 1.478 . S
C992 C994 1.381 . S
C992 C998 1.383 . S
C993 C989 1.495 . S
C993 H999 0.959 . S
C993 H1000 0.961 . S
C993 H1001 0.960 . S
C994 C992 1.381 . S
C994 C995 1.394 . S
C994 H1002 0.930 . S
C995 C994 1.394 . S
C995 C996 1.383 . S
C995 H1003 0.929 . S
C996 C995 1.383 . S
C996 C997 1.377 . S
C997 H981 0.930 . S
C997 C996 1.377 . S
C997 C998 1.379 . S
C998 H982 0.931 . S
C998 C992 1.383 . S
C998 C997 1.379 . S
H999 C993 0.959 . S
H1000 C993 0.961 . S
H1001 C993 0.960 . S
H1002 C994 0.930 . S
H1003 C995 0.929 . S
H1004 C1012 0.929 . S
H1005 C1014 0.930 . S
H1006 C1016 0.930 . S
H1007 C1019 0.929 . S
H1008 C1022 0.930 . S
H1009 C1024 0.960 . S
H1010 C1024 0.960 . S
H1011 C1024 0.960 . S
C1012 H1004 0.929 . S
C1012 C1013 1.377 . S
C1012 C1014 1.384 . S
C1013 C1012 1.377 . S
C1013 C1019 1.390 . S
C1014 H1005 0.930 . S
C1014 C1012 1.384 . S
C1014 C1015 1.372 . S
C1015 C1014 1.372 . S
C1015 C1016 1.400 . S
C1015 C1020 1.490 . S
C1016 H1006 0.930 . S
C1016 C1015 1.400 . S
C1016 C1019 1.386 . S
H1017 C1033 0.930 . S
H1018 C1034 0.931 . S
C1019 H1007 0.929 . S
C1019 C1013 1.390 . S
C1019 C1016 1.386 . S
C1020 C1015 1.490 . S
C1020 C1022 1.395 . S
C1020 C1023 1.403 . S
H1021 C1027 0.930 . S
C1022 H1008 0.930 . S
C1022 C1020 1.395 . S
C1022 C1025 1.403 . S
C1023 C1020 1.403 . S
C1023 C1024 1.524 . S
C1023 C1027 1.400 . S
C1024 H1009 0.960 . S
C1024 H1010 0.960 . S
C1024 H1011 0.960 . S
C1024 C1023 1.524 . S
C1025 C1022 1.403 . S
C1025 C1026 1.392 . S
C1025 C1029 1.495 . S
C1026 C1025 1.392 . S
C1026 C1027 1.385 . S
C1026 C1028 1.478 . S
C1027 H1021 0.930 . S
C1027 C1023 1.400 . S
C1027 C1026 1.385 . S
C1028 C1026 1.478 . S
C1028 C1030 1.381 . S
C1028 C1034 1.383 . S
C1029 C1025 1.495 . S
C1029 H1035 0.959 . S
C1029 H1036 0.961 . S
C1029 H1037 0.960 . S
C1030 C1028 1.381 . S
C1030 C1031 1.394 . S
C1030 H1038 0.930 . S
C1031 C1030 1.394 . S
C1031 C1032 1.383 . S
C1031 H1039 0.929 . S
C1032 C1031 1.383 . S
C1032 C1033 1.377 . S
C1033 H1017 0.930 . S
C1033 C1032 1.377 . S
C1033 C1034 1.379 . S
C1034 H1018 0.931 . S
C1034 C1028 1.383 . S
C1034 C1033 1.379 . S
H1035 C1029 0.959 . S
H1036 C1029 0.961 . S
H1037 C1029 0.960 . S
H1038 C1030 0.930 . S
H1039 C1031 0.929 . S
H1040 C1048 0.929 . S
H1041 C1050 0.930 . S
H1042 C1052 0.930 . S
H1043 C1055 0.929 . S
H1044 C1058 0.930 . S
H1045 C1060 0.960 . S
H1046 C1060 0.960 . S
H1047 C1060 0.960 . S
C1048 H1040 0.929 . S
C1048 C1049 1.377 . S
C1048 C1050 1.384 . S
C1049 C1048 1.377 . S
C1049 C1055 1.390 . S
C1050 H1041 0.930 . S
C1050 C1048 1.384 . S
C1050 C1051 1.372 . S
C1051 C1050 1.372 . S
C1051 C1052 1.400 . S
C1051 C1056 1.490 . S
C1052 H1042 0.930 . S
C1052 C1051 1.400 . S
C1052 C1055 1.386 . S
H1053 C1069 0.930 . S
H1054 C1070 0.931 . S
C1055 H1043 0.929 . S
C1055 C1049 1.390 . S
C1055 C1052 1.386 . S
C1056 C1051 1.490 . S
C1056 C1058 1.395 . S
C1056 C1059 1.403 . S
H1057 C1063 0.930 . S
C1058 H1044 0.930 . S
C1058 C1056 1.395 . S
C1058 C1061 1.403 . S
C1059 C1056 1.403 . S
C1059 C1060 1.524 . S
C1059 C1063 1.400 . S
C1060 H1045 0.960 . S
C1060 H1046 0.960 . S
C1060 H1047 0.960 . S
C1060 C1059 1.524 . S
C1061 C1058 1.403 . S
C1061 C1062 1.392 . S
C1061 C1065 1.495 . S
C1062 C1061 1.392 . S
C1062 C1063 1.385 . S
C1062 C1064 1.478 . S
C1063 H1057 0.930 . S
C1063 C1059 1.400 . S
C1063 C1062 1.385 . S
C1064 C1062 1.478 . S
C1064 C1066 1.381 . S
C1064 C1070 1.383 . S
C1065 C1061 1.495 . S
C1065 H1071 0.959 . S
C1065 H1072 0.961 . S
C1065 H1073 0.960 . S
C1066 C1064 1.381 . S
C1066 C1067 1.394 . S
C1066 H1074 0.930 . S
C1067 C1066 1.394 . S
C1067 C1068 1.383 . S
C1067 H1075 0.929 . S
C1068 C1067 1.383 . S
C1068 C1069 1.377 . S
C1069 H1053 0.930 . S
C1069 C1068 1.377 . S
C1069 C1070 1.379 . S
C1070 H1054 0.931 . S
C1070 C1064 1.383 . S
C1070 C1069 1.379 . S
H1071 C1065 0.959 . S
H1072 C1065 0.961 . S
H1073 C1065 0.960 . S
H1074 C1066 0.930 . S
H1075 C1067 0.929 . S
H1076 C1084 0.929 . S
H1077 C1086 0.930 . S
H1078 C1088 0.930 . S
H1079 C1091 0.929 . S
H1080 C1094 0.930 . S
H1081 C1096 0.960 . S
H1082 C1096 0.960 . S
H1083 C1096 0.960 . S
C1084 H1076 0.929 . S
C1084 C1085 1.377 . S
C1084 C1086 1.384 . S
C1085 C1084 1.377 . S
C1085 C1091 1.390 1_655 S
C1086 H1077 0.930 . S
C1086 C1084 1.384 . S
C1086 C1087 1.372 . S
C1087 C1086 1.372 . S
C1087 C1088 1.400 1_655 S
C1087 C1092 1.490 . S
C1088 H1078 0.930 . S
C1088 C1087 1.400 1_455 S
C1088 C1091 1.386 . S
H1089 C1105 0.930 . S
H1090 C1106 0.931 . S
C1091 H1079 0.929 . S
C1091 C1085 1.390 1_455 S
C1091 C1088 1.386 . S
C1092 C1087 1.490 . S
C1092 C1094 1.395 . S
C1092 C1095 1.403 . S
H1093 C1099 0.930 . S
C1094 H1080 0.930 . S
C1094 C1092 1.395 . S
C1094 C1097 1.403 . S
C1095 C1092 1.403 . S
C1095 C1096 1.524 . S
C1095 C1099 1.400 . S
C1096 H1081 0.960 . S
C1096 H1082 0.960 . S
C1096 H1083 0.960 . S
C1096 C1095 1.524 . S
C1097 C1094 1.403 . S
C1097 C1098 1.392 . S
C1097 C1101 1.495 1_655 S
C1098 C1097 1.392 . S
C1098 C1099 1.385 . S
C1098 C1100 1.478 . S
C1099 H1093 0.930 . S
C1099 C1095 1.400 . S
C1099 C1098 1.385 . S
C1100 C1098 1.478 . S
C1100 C1102 1.381 . S
C1100 C1106 1.383 1_655 S
C1101 C1097 1.495 1_455 S
C1101 H1107 0.959 . S
C1101 H1108 0.961 . S
C1101 H1109 0.960 1_455 S
C1102 C1100 1.381 . S
C1102 C1103 1.394 . S
C1102 H1110 0.930 . S
C1103 C1102 1.394 . S
C1103 C1104 1.383 . S
C1103 H1111 0.929 . S
C1104 C1103 1.383 . S
C1104 C1105 1.377 1_655 S
C1105 H1089 0.930 . S
C1105 C1104 1.377 1_455 S
C1105 C1106 1.379 . S
C1106 H1090 0.931 . S
C1106 C1100 1.383 1_455 S
C1106 C1105 1.379 . S
H1107 C1101 0.959 . S
H1108 C1101 0.961 . S
H1109 C1101 0.960 1_655 S
H1110 C1102 0.930 . S
H1111 C1103 0.929 . S
H1112 C1120 0.929 . S
H1113 C1122 0.930 . S
H1114 C1124 0.930 . S
H1115 C1127 0.929 . S
H1116 C1130 0.930 . S
H1117 C1132 0.960 . S
H1118 C1132 0.960 . S
H1119 C1132 0.960 . S
C1120 H1112 0.929 . S
C1120 C1121 1.377 . S
C1120 C1122 1.384 . S
C1121 C1120 1.377 . S
C1121 C1127 1.390 . S
C1122 H1113 0.930 . S
C1122 C1120 1.384 . S
C1122 C1123 1.372 . S
C1123 C1122 1.372 . S
C1123 C1124 1.400 . S
C1123 C1128 1.490 . S
C1124 H1114 0.930 . S
C1124 C1123 1.400 . S
C1124 C1127 1.386 . S
H1125 C1141 0.930 . S
H1126 C1142 0.931 . S
C1127 H1115 0.929 . S
C1127 C1121 1.390 . S
C1127 C1124 1.386 . S
C1128 C1123 1.490 . S
C1128 C1130 1.395 . S
C1128 C1131 1.403 . S
H1129 C1135 0.930 . S
C1130 H1116 0.930 . S
C1130 C1128 1.395 . S
C1130 C1133 1.403 . S
C1131 C1128 1.403 . S
C1131 C1132 1.524 . S
C1131 C1135 1.400 . S
C1132 H1117 0.960 . S
C1132 H1118 0.960 . S
C1132 H1119 0.960 . S
C1132 C1131 1.524 . S
C1133 C1130 1.403 . S
C1133 C1134 1.392 . S
C1133 C1137 1.495 . S
C1134 C1133 1.392 . S
C1134 C1135 1.385 . S
C1134 C1136 1.478 . S
C1135 H1129 0.930 . S
C1135 C1131 1.400 . S
C1135 C1134 1.385 . S
C1136 C1134 1.478 . S
C1136 C1138 1.381 . S
C1136 C1142 1.383 . S
C1137 C1133 1.495 . S
C1137 H1143 0.959 . S
C1137 H1144 0.961 . S
C1137 H1145 0.960 . S
C1138 C1136 1.381 . S
C1138 C1139 1.394 . S
C1138 H1146 0.930 . S
C1139 C1138 1.394 . S
C1139 C1140 1.383 . S
C1139 H1147 0.929 . S
C1140 C1139 1.383 . S
C1140 C1141 1.377 . S
C1141 H1125 0.930 . S
C1141 C1140 1.377 . S
C1141 C1142 1.379 . S
C1142 H1126 0.931 . S
C1142 C1136 1.383 . S
C1142 C1141 1.379 . S
H1143 C1137 0.959 . S
H1144 C1137 0.961 . S
H1145 C1137 0.960 . S
H1146 C1138 0.930 . S
H1147 C1139 0.929 . S
H1148 C1156 0.929 . S
H1149 C1158 0.930 . S
H1150 C1160 0.930 . S
H1151 C1163 0.929 . S
H1152 C1166 0.930 . S
H1153 C1168 0.960 . S
H1154 C1168 0.960 . S
H1155 C1168 0.960 . S
C1156 H1148 0.929 . S
C1156 C1157 1.377 . S
C1156 C1158 1.384 . S
C1157 C1156 1.377 . S
C1157 C1163 1.390 . S
C1158 H1149 0.930 . S
C1158 C1156 1.384 . S
C1158 C1159 1.372 . S
C1159 C1158 1.372 . S
C1159 C1160 1.400 . S
C1159 C1164 1.490 . S
C1160 H1150 0.930 . S
C1160 C1159 1.400 . S
C1160 C1163 1.386 . S
H1161 C1177 0.930 . S
H1162 C1178 0.931 . S
C1163 H1151 0.929 . S
C1163 C1157 1.390 . S
C1163 C1160 1.386 . S
C1164 C1159 1.490 . S
C1164 C1166 1.395 . S
C1164 C1167 1.403 . S
H1165 C1171 0.930 . S
C1166 H1152 0.930 . S
C1166 C1164 1.395 . S
C1166 C1169 1.403 . S
C1167 C1164 1.403 . S
C1167 C1168 1.524 . S
C1167 C1171 1.400 . S
C1168 H1153 0.960 . S
C1168 H1154 0.960 . S
C1168 H1155 0.960 . S
C1168 C1167 1.524 . S
C1169 C1166 1.403 . S
C1169 C1170 1.392 . S
C1169 C1173 1.495 . S
C1170 C1169 1.392 . S
C1170 C1171 1.385 . S
C1170 C1172 1.478 . S
C1171 H1165 0.930 . S
C1171 C1167 1.400 . S
C1171 C1170 1.385 . S
C1172 C1170 1.478 . S
C1172 C1174 1.381 . S
C1172 C1178 1.383 . S
C1173 C1169 1.495 . S
C1173 H1179 0.959 . S
C1173 H1180 0.961 . S
C1173 H1181 0.960 . S
C1174 C1172 1.381 . S
C1174 C1175 1.394 . S
C1174 H1182 0.930 . S
C1175 C1174 1.394 . S
C1175 C1176 1.383 . S
C1175 H1183 0.929 . S
C1176 C1175 1.383 . S
C1176 C1177 1.377 . S
C1177 H1161 0.930 . S
C1177 C1176 1.377 . S
C1177 C1178 1.379 . S
C1178 H1162 0.931 . S
C1178 C1172 1.383 . S
C1178 C1177 1.379 . S
H1179 C1173 0.959 . S
H1180 C1173 0.961 . S
H1181 C1173 0.960 . S
H1182 C1174 0.930 . S
H1183 C1175 0.929 . S
H1184 C1192 0.929 . S
H1185 C1194 0.930 . S
H1186 C1196 0.930 . S
H1187 C1199 0.929 . S
H1188 C1202 0.930 . S
H1189 C1204 0.960 . S
H1190 C1204 0.960 . S
H1191 C1204 0.960 . S
C1192 H1184 0.929 . S
C1192 C1193 1.377 . S
C1192 C1194 1.384 . S
C1193 C1192 1.377 . S
C1193 C1199 1.390 . S
C1194 H1185 0.930 . S
C1194 C1192 1.384 . S
C1194 C1195 1.372 . S
C1195 C1194 1.372 . S
C1195 C1196 1.400 . S
C1195 C1200 1.490 . S
C1196 H1186 0.930 . S
C1196 C1195 1.400 . S
C1196 C1199 1.386 . S
H1197 C1213 0.930 . S
H1198 C1214 0.931 . S
C1199 H1187 0.929 . S
C1199 C1193 1.390 . S
C1199 C1196 1.386 . S
C1200 C1195 1.490 . S
C1200 C1202 1.395 . S
C1200 C1203 1.403 . S
H1201 C1207 0.930 . S
C1202 H1188 0.930 . S
C1202 C1200 1.395 . S
C1202 C1205 1.403 . S
C1203 C1200 1.403 . S
C1203 C1204 1.524 . S
C1203 C1207 1.400 . S
C1204 H1189 0.960 . S
C1204 H1190 0.960 . S
C1204 H1191 0.960 . S
C1204 C1203 1.524 . S
C1205 C1202 1.403 . S
C1205 C1206 1.392 . S
C1205 C1209 1.495 . S
C1206 C1205 1.392 . S
C1206 C1207 1.385 . S
C1206 C1208 1.478 . S
C1207 H1201 0.930 . S
C1207 C1203 1.400 . S
C1207 C1206 1.385 . S
C1208 C1206 1.478 . S
C1208 C1210 1.381 . S
C1208 C1214 1.383 . S
C1209 C1205 1.495 . S
C1209 H1215 0.959 . S
C1209 H1216 0.961 . S
C1209 H1217 0.960 . S
C1210 C1208 1.381 . S
C1210 C1211 1.394 . S
C1210 H1218 0.930 . S
C1211 C1210 1.394 . S
C1211 C1212 1.383 . S
C1211 H1219 0.929 . S
C1212 C1211 1.383 . S
C1212 C1213 1.377 . S
C1213 H1197 0.930 . S
C1213 C1212 1.377 . S
C1213 C1214 1.379 . S
C1214 H1198 0.931 . S
C1214 C1208 1.383 . S
C1214 C1213 1.379 . S
H1215 C1209 0.959 . S
H1216 C1209 0.961 . S
H1217 C1209 0.960 . S
H1218 C1210 0.930 . S
H1219 C1211 0.929 . S
H1220 C1228 0.929 . S
H1221 C1230 0.930 . S
H1222 C1232 0.930 . S
H1223 C1235 0.929 . S
H1224 C1238 0.930 . S
H1225 C1240 0.960 . S
H1226 C1240 0.960 . S
H1227 C1240 0.960 . S
C1228 H1220 0.929 . S
C1228 C1229 1.377 . S
C1228 C1230 1.384 . S
C1229 C1228 1.377 . S
C1229 C1235 1.390 . S
C1230 H1221 0.930 . S
C1230 C1228 1.384 . S
C1230 C1231 1.372 . S
C1231 C1230 1.372 . S
C1231 C1232 1.400 . S
C1231 C1236 1.490 . S
C1232 H1222 0.930 . S
C1232 C1231 1.400 . S
C1232 C1235 1.386 . S
H1233 C1249 0.930 . S
H1234 C1250 0.931 . S
C1235 H1223 0.929 . S
C1235 C1229 1.390 . S
C1235 C1232 1.386 . S
C1236 C1231 1.490 . S
C1236 C1238 1.395 . S
C1236 C1239 1.403 . S
H1237 C1243 0.930 . S
C1238 H1224 0.930 . S
C1238 C1236 1.395 . S
C1238 C1241 1.403 . S
C1239 C1236 1.403 . S
C1239 C1240 1.524 . S
C1239 C1243 1.400 . S
C1240 H1225 0.960 . S
C1240 H1226 0.960 . S
C1240 H1227 0.960 . S
C1240 C1239 1.524 . S
C1241 C1238 1.403 . S
C1241 C1242 1.392 . S
C1241 C1245 1.495 . S
C1242 C1241 1.392 . S
C1242 C1243 1.385 . S
C1242 C1244 1.478 . S
C1243 H1237 0.930 . S
C1243 C1239 1.400 . S
C1243 C1242 1.385 . S
C1244 C1242 1.478 . S
C1244 C1246 1.381 . S
C1244 C1250 1.383 . S
C1245 C1241 1.495 . S
C1245 H1251 0.959 . S
C1245 H1252 0.961 . S
C1245 H1253 0.960 . S
C1246 C1244 1.381 . S
C1246 C1247 1.394 . S
C1246 H1254 0.930 . S
C1247 C1246 1.394 . S
C1247 C1248 1.383 . S
C1247 H1255 0.929 . S
C1248 C1247 1.383 . S
C1248 C1249 1.377 . S
C1249 H1233 0.930 . S
C1249 C1248 1.377 . S
C1249 C1250 1.379 . S
C1250 H1234 0.931 . S
C1250 C1244 1.383 . S
C1250 C1249 1.379 . S
H1251 C1245 0.959 . S
H1252 C1245 0.961 . S
H1253 C1245 0.960 . S
H1254 C1246 0.930 . S
H1255 C1247 0.929 . S
H1256 C1264 0.929 . S
H1257 C1266 0.930 1_565 S
H1258 C1268 0.930 . S
H1259 C1271 0.929 . S
H1260 C1274 0.930 . S
H1261 C1276 0.960 . S
H1262 C1276 0.960 . S
H1263 C1276 0.960 . S
C1264 H1256 0.929 . S
C1264 C1265 1.377 1_565 S
C1264 C1266 1.384 1_565 S
C1265 C1264 1.377 1_545 S
C1265 C1271 1.390 . S
C1266 H1257 0.930 1_545 S
C1266 C1264 1.384 1_545 S
C1266 C1267 1.372 . S
C1267 C1266 1.372 . S
C1267 C1268 1.400 . S
C1267 C1272 1.490 . S
C1268 H1258 0.930 . S
C1268 C1267 1.400 . S
C1268 C1271 1.386 . S
H1269 C1285 0.930 . S
H1270 C1286 0.931 . S
C1271 H1259 0.929 . S
C1271 C1265 1.390 . S
C1271 C1268 1.386 . S
C1272 C1267 1.490 . S
C1272 C1274 1.395 1_545 S
C1272 C1275 1.403 . S
H1273 C1279 0.930 . S
C1274 H1260 0.930 . S
C1274 C1272 1.395 1_565 S
C1274 C1277 1.404 1_565 S
C1275 C1272 1.403 . S
C1275 C1276 1.524 . S
C1275 C1279 1.400 . S
C1276 H1261 0.960 . S
C1276 H1262 0.960 . S
C1276 H1263 0.960 . S
C1276 C1275 1.524 . S
C1277 C1274 1.404 1_545 S
C1277 C1278 1.391 . S
C1277 C1281 1.496 1_545 S
C1278 C1277 1.391 . S
C1278 C1279 1.385 . S
C1278 C1280 1.478 . S
C1279 H1273 0.930 . S
C1279 C1275 1.400 . S
C1279 C1278 1.385 . S
C1280 C1278 1.478 . S
C1280 C1282 1.381 . S
C1280 C1286 1.383 . S
C1281 C1277 1.496 1_565 S
C1281 H1287 0.959 . S
C1281 H1288 0.961 . S
C1281 H1289 0.960 . S
C1282 C1280 1.381 . S
C1282 C1283 1.394 . S
C1282 H1290 0.930 . S
C1283 C1282 1.394 . S
C1283 C1284 1.383 . S
C1283 H1291 0.929 . S
C1284 C1283 1.383 . S
C1284 C1285 1.377 . S
C1285 H1269 0.930 . S
C1285 C1284 1.377 . S
C1285 C1286 1.379 . S
C1286 H1270 0.931 . S
C1286 C1280 1.383 . S
C1286 C1285 1.379 . S
H1287 C1281 0.959 . S
H1288 C1281 0.961 . S
H1289 C1281 0.960 . S
H1290 C1282 0.930 . S
H1291 C1283 0.929 . S
H1292 C1300 0.929 . S
H1293 C1302 0.930 . S
H1294 C1304 0.930 . S
H1295 C1307 0.929 . S
H1296 C1310 0.930 1_556 S
H1297 C1312 0.960 . S
H1298 C1312 0.960 . S
H1299 C1312 0.960 . S
C1300 H1292 0.929 . S
C1300 C1301 1.377 1_556 S
C1300 C1302 1.384 . S
C1301 C1300 1.377 1_554 S
C1301 C1307 1.390 . S
C1302 H1293 0.930 . S
C1302 C1300 1.384 . S
C1302 C1303 1.372 1_556 S
C1303 C1302 1.372 1_554 S
C1303 C1304 1.400 . S
C1303 C1308 1.490 . S
C1304 H1294 0.930 . S
C1304 C1303 1.400 . S
C1304 C1307 1.386 . S
H1305 C1321 0.930 . S
H1306 C1322 0.931 . S
C1307 H1295 0.929 . S
C1307 C1301 1.390 . S
C1307 C1304 1.386 . S
C1308 C1303 1.490 . S
C1308 C1310 1.395 . S
C1308 C1311 1.403 . S
H1309 C1315 0.930 . S
C1310 H1296 0.930 1_554 S
C1310 C1308 1.395 . S
C1310 C1313 1.403 . S
C1311 C1308 1.403 . S
C1311 C1312 1.524 . S
C1311 C1315 1.400 . S
C1312 H1297 0.960 . S
C1312 H1298 0.960 . S
C1312 H1299 0.960 . S
C1312 C1311 1.524 . S
C1313 C1310 1.403 . S
C1313 C1314 1.392 . S
C1313 C1317 1.495 1_554 S
C1314 C1313 1.392 . S
C1314 C1315 1.385 . S
C1314 C1316 1.478 . S
C1315 H1309 0.930 . S
C1315 C1311 1.400 . S
C1315 C1314 1.385 . S
C1316 C1314 1.478 . S
C1316 C1318 1.381 1_554 S
C1316 C1322 1.383 . S
C1317 C1313 1.495 1_556 S
C1317 H1323 0.959 . S
C1317 H1324 0.946 1_556 S
C1317 H1325 0.960 . S
C1318 C1316 1.381 1_556 S
C1318 C1319 1.394 . S
C1318 H1326 0.930 . S
C1319 C1318 1.394 . S
C1319 C1320 1.383 1_556 S
C1319 H1327 0.929 . S
C1320 C1319 1.383 1_554 S
C1320 C1321 1.377 . S
C1321 H1305 0.930 . S
C1321 C1320 1.377 . S
C1321 C1322 1.379 . S
C1322 H1306 0.931 . S
C1322 C1316 1.383 . S
C1322 C1321 1.379 . S
H1323 C1317 0.959 . S
H1324 C1317 0.946 1_554 S
H1325 C1317 0.960 . S
H1326 C1318 0.930 . S
H1327 C1319 0.929 . S
H1328 C1336 0.929 . S
H1329 C1338 0.930 . S
H1330 C1340 0.930 . S
H1331 C1343 0.929 . S
H1332 C1346 0.930 . S
H1333 C1348 0.960 . S
H1334 C1348 0.960 . S
H1335 C1348 0.960 . S
C1336 H1328 0.929 . S
C1336 C1337 1.377 . S
C1336 C1338 1.384 . S
C1337 C1336 1.377 . S
C1337 C1343 1.390 . S
C1338 H1329 0.930 . S
C1338 C1336 1.384 . S
C1338 C1339 1.372 . S
C1339 C1338 1.372 . S
C1339 C1340 1.400 . S
C1339 C1344 1.490 . S
C1340 H1330 0.930 . S
C1340 C1339 1.400 . S
C1340 C1343 1.386 . S
H1341 C1357 0.930 . S
H1342 C1358 0.931 . S
C1343 H1331 0.929 . S
C1343 C1337 1.390 . S
C1343 C1340 1.386 . S
C1344 C1339 1.490 . S
C1344 C1346 1.395 . S
C1344 C1347 1.403 . S
H1345 C1351 0.930 . S
C1346 H1332 0.930 . S
C1346 C1344 1.395 . S
C1346 C1349 1.403 . S
C1347 C1344 1.403 . S
C1347 C1348 1.524 . S
C1347 C1351 1.400 . S
C1348 H1333 0.960 . S
C1348 H1334 0.960 . S
C1348 H1335 0.960 . S
C1348 C1347 1.524 . S
C1349 C1346 1.403 . S
C1349 C1350 1.392 . S
C1349 C1353 1.495 . S
C1350 C1349 1.392 . S
C1350 C1351 1.385 . S
C1350 C1352 1.478 . S
C1351 H1345 0.930 . S
C1351 C1347 1.400 . S
C1351 C1350 1.385 . S
C1352 C1350 1.478 . S
C1352 C1354 1.381 . S
C1352 C1358 1.383 . S
C1353 C1349 1.495 . S
C1353 H1359 0.959 . S
C1353 H1360 0.961 . S
C1353 H1361 0.960 . S
C1354 C1352 1.381 . S
C1354 C1355 1.394 . S
C1354 H1362 0.930 . S
C1355 C1354 1.394 . S
C1355 C1356 1.383 . S
C1355 H1363 0.929 . S
C1356 C1355 1.383 . S
C1356 C1357 1.377 . S
C1357 H1341 0.930 . S
C1357 C1356 1.377 . S
C1357 C1358 1.379 . S
C1358 H1342 0.931 . S
C1358 C1352 1.383 . S
C1358 C1357 1.379 . S
H1359 C1353 0.959 . S
H1360 C1353 0.961 . S
H1361 C1353 0.960 . S
H1362 C1354 0.930 . S
H1363 C1355 0.929 . S
H1364 C1372 0.929 . S
H1365 C1374 0.930 . S
H1366 C1376 0.930 . S
H1367 C1379 0.929 . S
H1368 C1382 0.930 . S
H1369 C1384 0.960 . S
H1370 C1384 0.960 . S
H1371 C1384 0.960 . S
C1372 H1364 0.929 . S
C1372 C1373 1.377 . S
C1372 C1374 1.384 . S
C1373 C1372 1.377 . S
C1373 C1379 1.390 . S
C1374 H1365 0.930 . S
C1374 C1372 1.384 . S
C1374 C1375 1.372 . S
C1375 C1374 1.372 . S
C1375 C1376 1.400 . S
C1375 C1380 1.490 . S
C1376 H1366 0.930 . S
C1376 C1375 1.400 . S
C1376 C1379 1.386 . S
H1377 C1393 0.930 . S
H1378 C1394 0.931 . S
C1379 H1367 0.929 . S
C1379 C1373 1.390 . S
C1379 C1376 1.386 . S
C1380 C1375 1.490 . S
C1380 C1382 1.395 . S
C1380 C1383 1.403 . S
H1381 C1387 0.930 . S
C1382 H1368 0.930 . S
C1382 C1380 1.395 . S
C1382 C1385 1.403 . S
C1383 C1380 1.403 . S
C1383 C1384 1.524 . S
C1383 C1387 1.400 . S
C1384 H1369 0.960 . S
C1384 H1370 0.960 . S
C1384 H1371 0.960 . S
C1384 C1383 1.524 . S
C1385 C1382 1.403 . S
C1385 C1386 1.392 . S
C1385 C1389 1.495 . S
C1386 C1385 1.392 . S
C1386 C1387 1.385 . S
C1386 C1388 1.478 . S
C1387 H1381 0.930 . S
C1387 C1383 1.400 . S
C1387 C1386 1.385 . S
C1388 C1386 1.478 . S
C1388 C1390 1.381 . S
C1388 C1394 1.383 . S
C1389 C1385 1.495 . S
C1389 H1395 0.959 . S
C1389 H1396 0.961 . S
C1389 H1397 0.960 . S
C1390 C1388 1.381 . S
C1390 C1391 1.394 . S
C1390 H1398 0.930 . S
C1391 C1390 1.394 . S
C1391 C1392 1.383 . S
C1391 H1399 0.929 . S
C1392 C1391 1.383 . S
C1392 C1393 1.377 . S
C1393 H1377 0.930 . S
C1393 C1392 1.377 . S
C1393 C1394 1.379 . S
C1394 H1378 0.931 . S
C1394 C1388 1.383 . S
C1394 C1393 1.379 . S
H1395 C1389 0.959 . S
H1396 C1389 0.961 . S
H1397 C1389 0.960 . S
H1398 C1390 0.930 . S
H1399 C1391 0.929 . S
H1400 C1408 0.929 . S
H1401 C1410 0.930 . S
H1402 C1412 0.930 . S
H1403 C1415 0.929 . S
H1404 C1418 0.930 . S
H1405 C1420 0.960 . S
H1406 C1420 0.960 . S
H1407 C1420 0.960 . S
C1408 H1400 0.929 . S
C1408 C1409 1.377 . S
C1408 C1410 1.384 . S
C1409 C1408 1.377 . S
C1409 C1415 1.390 . S
C1410 H1401 0.930 . S
C1410 C1408 1.384 . S
C1410 C1411 1.372 . S
C1411 C1410 1.372 . S
C1411 C1412 1.400 . S
C1411 C1416 1.490 . S
C1412 H1402 0.930 . S
C1412 C1411 1.400 . S
C1412 C1415 1.386 . S
H1413 C1429 0.930 . S
H1414 C1430 0.931 . S
C1415 H1403 0.929 . S
C1415 C1409 1.390 . S
C1415 C1412 1.386 . S
C1416 C1411 1.490 . S
C1416 C1418 1.395 . S
C1416 C1419 1.403 . S
H1417 C1423 0.930 . S
C1418 H1404 0.930 . S
C1418 C1416 1.395 . S
C1418 C1421 1.403 . S
C1419 C1416 1.403 . S
C1419 C1420 1.524 . S
C1419 C1423 1.400 . S
C1420 H1405 0.960 . S
C1420 H1406 0.960 . S
C1420 H1407 0.960 . S
C1420 C1419 1.524 . S
C1421 C1418 1.403 . S
C1421 C1422 1.392 . S
C1421 C1425 1.495 . S
C1422 C1421 1.392 . S
C1422 C1423 1.385 . S
C1422 C1424 1.478 . S
C1423 H1417 0.930 . S
C1423 C1419 1.400 . S
C1423 C1422 1.385 . S
C1424 C1422 1.478 . S
C1424 C1426 1.381 . S
C1424 C1430 1.383 . S
C1425 C1421 1.495 . S
C1425 H1431 0.959 . S
C1425 H1432 0.961 . S
C1425 H1433 0.960 . S
C1426 C1424 1.381 . S
C1426 C1427 1.394 . S
C1426 H1434 0.930 . S
C1427 C1426 1.394 . S
C1427 C1428 1.383 . S
C1427 H1435 0.929 . S
C1428 C1427 1.383 . S
C1428 C1429 1.377 . S
C1429 H1413 0.930 . S
C1429 C1428 1.377 . S
C1429 C1430 1.379 . S
C1430 H1414 0.931 . S
C1430 C1424 1.383 . S
C1430 C1429 1.379 . S
H1431 C1425 0.959 . S
H1432 C1425 0.961 . S
H1433 C1425 0.960 . S
H1434 C1426 0.930 . S
H1435 C1427 0.929 . S
H1436 C1444 0.929 . S
H1437 C1446 0.930 . S
H1438 C1448 0.930 . S
H1439 C1451 0.929 . S
H1440 C1454 0.930 . S
H1441 C1456 0.960 . S
H1442 C1456 0.960 . S
H1443 C1456 0.960 . S
C1444 H1436 0.929 . S
C1444 C1445 1.377 . S
C1444 C1446 1.384 . S
C1445 C1444 1.377 . S
C1445 C1451 1.390 . S
C1446 H1437 0.930 . S
C1446 C1444 1.384 . S
C1446 C1447 1.372 . S
C1447 C1446 1.372 . S
C1447 C1448 1.400 . S
C1447 C1452 1.490 . S
C1448 H1438 0.930 . S
C1448 C1447 1.400 . S
C1448 C1451 1.386 . S
H1449 C1465 0.930 . S
H1450 C1466 0.931 . S
C1451 H1439 0.929 . S
C1451 C1445 1.390 . S
C1451 C1448 1.386 . S
C1452 C1447 1.490 . S
C1452 C1454 1.395 . S
C1452 C1455 1.403 . S
H1453 C1459 0.930 . S
C1454 H1440 0.930 . S
C1454 C1452 1.395 . S
C1454 C1457 1.403 . S
C1455 C1452 1.403 . S
C1455 C1456 1.524 . S
C1455 C1459 1.400 . S
C1456 H1441 0.960 . S
C1456 H1442 0.960 . S
C1456 H1443 0.960 . S
C1456 C1455 1.524 . S
C1457 C1454 1.403 . S
C1457 C1458 1.392 . S
C1457 C1461 1.495 . S
C1458 C1457 1.392 . S
C1458 C1459 1.385 . S
C1458 C1460 1.478 . S
C1459 H1453 0.930 . S
C1459 C1455 1.400 . S
C1459 C1458 1.385 . S
C1460 C1458 1.478 . S
C1460 C1462 1.381 . S
C1460 C1466 1.383 . S
C1461 C1457 1.495 . S
C1461 H1467 0.959 . S
C1461 H1468 0.961 . S
C1461 H1469 0.960 . S
C1462 C1460 1.381 . S
C1462 C1463 1.394 . S
C1462 H1470 0.930 . S
C1463 C1462 1.394 . S
C1463 C1464 1.383 . S
C1463 H1471 0.929 . S
C1464 C1463 1.383 . S
C1464 C1465 1.377 . S
C1465 H1449 0.930 . S
C1465 C1464 1.377 . S
C1465 C1466 1.379 . S
C1466 H1450 0.931 . S
C1466 C1460 1.383 . S
C1466 C1465 1.379 . S
H1467 C1461 0.959 . S
H1468 C1461 0.961 . S
H1469 C1461 0.960 . S
H1470 C1462 0.930 . S
H1471 C1463 0.929 . S
H1472 C1480 0.929 . S
H1473 C1482 0.930 . S
H1474 C1484 0.930 . S
H1475 C1487 0.929 . S
H1476 C1490 0.930 . S
H1477 C1492 0.960 . S
H1478 C1492 0.960 . S
H1479 C1492 0.960 . S
C1480 H1472 0.929 . S
C1480 C1481 1.377 . S
C1480 C1482 1.384 . S
C1481 C1480 1.377 . S
C1481 C1487 1.390 . S
C1482 H1473 0.930 . S
C1482 C1480 1.384 . S
C1482 C1483 1.372 . S
C1483 C1482 1.372 . S
C1483 C1484 1.400 . S
C1483 C1488 1.490 . S
C1484 H1474 0.930 . S
C1484 C1483 1.400 . S
C1484 C1487 1.386 . S
H1485 C1501 0.930 . S
H1486 C1502 0.931 . S
C1487 H1475 0.929 . S
C1487 C1481 1.390 . S
C1487 C1484 1.386 . S
C1488 C1483 1.490 . S
C1488 C1490 1.395 . S
C1488 C1491 1.403 . S
H1489 C1495 0.930 . S
C1490 H1476 0.930 . S
C1490 C1488 1.395 . S
C1490 C1493 1.403 . S
C1491 C1488 1.403 . S
C1491 C1492 1.524 . S
C1491 C1495 1.400 . S
C1492 H1477 0.960 . S
C1492 H1478 0.960 . S
C1492 H1479 0.960 . S
C1492 C1491 1.524 . S
C1493 C1490 1.403 . S
C1493 C1494 1.392 . S
C1493 C1497 1.495 . S
C1494 C1493 1.392 . S
C1494 C1495 1.385 . S
C1494 C1496 1.478 . S
C1495 H1489 0.930 . S
C1495 C1491 1.400 . S
C1495 C1494 1.385 . S
C1496 C1494 1.478 . S
C1496 C1498 1.381 . S
C1496 C1502 1.383 . S
C1497 C1493 1.495 . S
C1497 H1503 0.959 . S
C1497 H1504 0.961 . S
C1497 H1505 0.960 . S
C1498 C1496 1.381 . S
C1498 C1499 1.394 . S
C1498 H1506 0.930 . S
C1499 C1498 1.394 . S
C1499 C1500 1.383 . S
C1499 H1507 0.929 . S
C1500 C1499 1.383 . S
C1500 C1501 1.377 . S
C1501 H1485 0.930 . S
C1501 C1500 1.377 . S
C1501 C1502 1.379 . S
C1502 H1486 0.931 . S
C1502 C1496 1.383 . S
C1502 C1501 1.379 . S
H1503 C1497 0.959 . S
H1504 C1497 0.961 . S
H1505 C1497 0.960 . S
H1506 C1498 0.930 . S
H1507 C1499 0.929 . S
H1508 C1516 0.929 . S
H1509 C1518 0.930 . S
H1510 C1520 0.930 . S
H1511 C1523 0.929 . S
H1512 C1526 0.930 . S
H1513 C1528 0.960 . S
H1514 C1528 0.960 . S
H1515 C1528 0.960 . S
C1516 H1508 0.929 . S
C1516 C1517 1.377 . S
C1516 C1518 1.384 . S
C1517 C1516 1.377 . S
C1517 C1523 1.390 . S
C1518 H1509 0.930 . S
C1518 C1516 1.384 . S
C1518 C1519 1.372 . S
C1519 C1518 1.372 . S
C1519 C1520 1.400 . S
C1519 C1524 1.490 . S
C1520 H1510 0.930 . S
C1520 C1519 1.400 . S
C1520 C1523 1.386 . S
H1521 C1537 0.930 . S
H1522 C1538 0.931 . S
C1523 H1511 0.929 . S
C1523 C1517 1.390 . S
C1523 C1520 1.386 . S
C1524 C1519 1.490 . S
C1524 C1526 1.395 . S
C1524 C1527 1.403 . S
H1525 C1531 0.930 . S
C1526 H1512 0.930 . S
C1526 C1524 1.395 . S
C1526 C1529 1.403 . S
C1527 C1524 1.403 . S
C1527 C1528 1.524 . S
C1527 C1531 1.400 . S
C1528 H1513 0.960 . S
C1528 H1514 0.960 . S
C1528 H1515 0.960 . S
C1528 C1527 1.524 . S
C1529 C1526 1.403 . S
C1529 C1530 1.392 . S
C1529 C1533 1.495 . S
C1530 C1529 1.392 . S
C1530 C1531 1.385 . S
C1530 C1532 1.478 . S
C1531 H1525 0.930 . S
C1531 C1527 1.400 . S
C1531 C1530 1.385 . S
C1532 C1530 1.478 . S
C1532 C1534 1.381 . S
C1532 C1538 1.383 . S
C1533 C1529 1.495 . S
C1533 H1539 0.959 . S
C1533 H1540 0.961 . S
C1533 H1541 0.960 . S
C1534 C1532 1.381 . S
C1534 C1535 1.394 . S
C1534 H1542 0.930 . S
C1535 C1534 1.394 . S
C1535 C1536 1.383 . S
C1535 H1543 0.929 . S
C1536 C1535 1.383 . S
C1536 C1537 1.377 . S
C1537 H1521 0.930 . S
C1537 C1536 1.377 . S
C1537 C1538 1.379 . S
C1538 H1522 0.931 . S
C1538 C1532 1.383 . S
C1538 C1537 1.379 . S
H1539 C1533 0.959 . S
H1540 C1533 0.961 . S
H1541 C1533 0.960 . S
H1542 C1534 0.930 . S
H1543 C1535 0.929 . S
H1544 C1552 0.929 . S
H1545 C1554 0.930 . S
H1546 C1556 0.930 . S
H1547 C1559 0.929 . S
H1548 C1562 0.930 . S
H1549 C1564 0.960 . S
H1550 C1564 0.960 . S
H1551 C1564 0.960 . S
C1552 H1544 0.929 . S
C1552 C1553 1.377 . S
C1552 C1554 1.384 . S
C1553 C1552 1.377 . S
C1553 C1559 1.390 . S
C1554 H1545 0.930 . S
C1554 C1552 1.384 . S
C1554 C1555 1.372 . S
C1555 C1554 1.372 . S
C1555 C1556 1.400 . S
C1555 C1560 1.490 . S
C1556 H1546 0.930 . S
C1556 C1555 1.400 . S
C1556 C1559 1.386 . S
H1557 C1573 0.930 . S
H1558 C1574 0.931 . S
C1559 H1547 0.929 . S
C1559 C1553 1.390 . S
C1559 C1556 1.386 . S
C1560 C1555 1.490 . S
C1560 C1562 1.395 . S
C1560 C1563 1.403 . S
H1561 C1567 0.930 . S
C1562 H1548 0.930 . S
C1562 C1560 1.395 . S
C1562 C1565 1.403 . S
C1563 C1560 1.403 . S
C1563 C1564 1.524 . S
C1563 C1567 1.400 . S
C1564 H1549 0.960 . S
C1564 H1550 0.960 . S
C1564 H1551 0.960 . S
C1564 C1563 1.524 . S
C1565 C1562 1.403 . S
C1565 C1566 1.392 . S
C1565 C1569 1.495 . S
C1566 C1565 1.392 . S
C1566 C1567 1.385 . S
C1566 C1568 1.478 . S
C1567 H1561 0.930 . S
C1567 C1563 1.400 . S
C1567 C1566 1.385 . S
C1568 C1566 1.478 . S
C1568 C1570 1.381 . S
C1568 C1574 1.383 . S
C1569 C1565 1.495 . S
C1569 H1575 0.959 . S
C1569 H1576 0.961 . S
C1569 H1577 0.960 . S
C1570 C1568 1.381 . S
C1570 C1571 1.394 . S
C1570 H1578 0.930 . S
C1571 C1570 1.394 . S
C1571 C1572 1.383 . S
C1571 H1579 0.929 . S
C1572 C1571 1.383 . S
C1572 C1573 1.377 . S
C1573 H1557 0.930 . S
C1573 C1572 1.377 . S
C1573 C1574 1.379 . S
C1574 H1558 0.931 . S
C1574 C1568 1.383 . S
C1574 C1573 1.379 . S
H1575 C1569 0.959 . S
H1576 C1569 0.961 . S
H1577 C1569 0.960 . S
H1578 C1570 0.930 . S
H1579 C1571 0.929 . S
H1580 C1588 0.929 . S
H1581 C1590 0.930 . S
H1582 C1592 0.930 . S
H1583 C1595 0.929 . S
H1584 C1598 0.930 . S
H1585 C1600 0.960 . S
H1586 C1600 0.960 . S
H1587 C1600 0.960 . S
C1588 H1580 0.929 . S
C1588 C1589 1.377 . S
C1588 C1590 1.384 . S
C1589 C1588 1.377 . S
C1589 C1595 1.390 . S
C1590 H1581 0.930 . S
C1590 C1588 1.384 . S
C1590 C1591 1.372 . S
C1591 C1590 1.372 . S
C1591 C1592 1.400 . S
C1591 C1596 1.490 . S
C1592 H1582 0.930 . S
C1592 C1591 1.400 . S
C1592 C1595 1.386 . S
H1593 C1609 0.930 . S
H1594 C1610 0.931 . S
C1595 H1583 0.929 . S
C1595 C1589 1.390 . S
C1595 C1592 1.386 . S
C1596 C1591 1.490 . S
C1596 C1598 1.395 . S
C1596 C1599 1.403 . S
H1597 C1603 0.930 . S
C1598 H1584 0.930 . S
C1598 C1596 1.395 . S
C1598 C1601 1.403 . S
C1599 C1596 1.403 . S
C1599 C1600 1.524 . S
C1599 C1603 1.400 . S
C1600 H1585 0.960 . S
C1600 H1586 0.960 . S
C1600 H1587 0.960 . S
C1600 C1599 1.524 . S
C1601 C1598 1.403 . S
C1601 C1602 1.392 . S
C1601 C1605 1.495 . S
C1602 C1601 1.392 . S
C1602 C1603 1.385 . S
C1602 C1604 1.478 . S
C1603 H1597 0.930 . S
C1603 C1599 1.400 . S
C1603 C1602 1.385 . S
C1604 C1602 1.478 . S
C1604 C1606 1.381 . S
C1604 C1610 1.383 . S
C1605 C1601 1.495 . S
C1605 H1611 0.959 . S
C1605 H1612 0.961 . S
C1605 H1613 0.960 . S
C1606 C1604 1.381 . S
C1606 C1607 1.394 . S
C1606 H1614 0.930 . S
C1607 C1606 1.394 . S
C1607 C1608 1.383 . S
C1607 H1615 0.929 . S
C1608 C1607 1.383 . S
C1608 C1609 1.377 . S
C1609 H1593 0.930 . S
C1609 C1608 1.377 . S
C1609 C1610 1.379 . S
C1610 H1594 0.931 . S
C1610 C1604 1.383 . S
C1610 C1609 1.379 . S
H1611 C1605 0.959 . S
H1612 C1605 0.961 . S
H1613 C1605 0.960 . S
H1614 C1606 0.930 . S
H1615 C1607 0.929 . S
H1616 C1624 0.929 . S
H1617 C1626 0.930 . S
H1618 C1628 0.930 . S
H1619 C1631 0.929 . S
H1620 C1634 0.930 . S
H1621 C1636 0.960 . S
H1622 C1636 0.960 . S
H1623 C1636 0.960 . S
C1624 H1616 0.929 . S
C1624 C1625 1.377 . S
C1624 C1626 1.384 . S
C1625 C1624 1.377 . S
C1625 C1631 1.390 . S
C1626 H1617 0.930 . S
C1626 C1624 1.384 . S
C1626 C1627 1.372 . S
C1627 C1626 1.372 . S
C1627 C1628 1.400 . S
C1627 C1632 1.490 . S
C1628 H1618 0.930 . S
C1628 C1627 1.400 . S
C1628 C1631 1.386 . S
H1629 C1645 0.930 . S
H1630 C1646 0.931 . S
C1631 H1619 0.929 . S
C1631 C1625 1.390 . S
C1631 C1628 1.386 . S
C1632 C1627 1.490 . S
C1632 C1634 1.395 . S
C1632 C1635 1.403 . S
H1633 C1639 0.930 . S
C1634 H1620 0.930 . S
C1634 C1632 1.395 . S
C1634 C1637 1.403 . S
C1635 C1632 1.403 . S
C1635 C1636 1.524 . S
C1635 C1639 1.400 . S
C1636 H1621 0.960 . S
C1636 H1622 0.960 . S
C1636 H1623 0.960 . S
C1636 C1635 1.524 . S
C1637 C1634 1.403 . S
C1637 C1638 1.392 . S
C1637 C1641 1.495 . S
C1638 C1637 1.392 . S
C1638 C1639 1.385 . S
C1638 C1640 1.478 . S
C1639 H1633 0.930 . S
C1639 C1635 1.400 . S
C1639 C1638 1.385 . S
C1640 C1638 1.478 . S
C1640 C1642 1.381 . S
C1640 C1646 1.383 . S
C1641 C1637 1.495 . S
C1641 H1647 0.959 . S
C1641 H1648 0.961 . S
C1641 H1649 0.960 . S
C1642 C1640 1.381 . S
C1642 C1643 1.394 . S
C1642 H1650 0.930 . S
C1643 C1642 1.394 . S
C1643 C1644 1.383 . S
C1643 H1651 0.929 . S
C1644 C1643 1.383 . S
C1644 C1645 1.377 . S
C1645 H1629 0.930 . S
C1645 C1644 1.377 . S
C1645 C1646 1.379 . S
C1646 H1630 0.931 . S
C1646 C1640 1.383 . S
C1646 C1645 1.379 . S
H1647 C1641 0.959 . S
H1648 C1641 0.961 . S
H1649 C1641 0.960 . S
H1650 C1642 0.930 . S
H1651 C1643 0.929 . S
H1652 C1660 0.929 . S
H1653 C1662 0.930 . S
H1654 C1664 0.930 . S
H1655 C1667 0.929 . S
H1656 C1670 0.930 . S
H1657 C1672 0.960 . S
H1658 C1672 0.960 . S
H1659 C1672 0.960 . S
C1660 H1652 0.929 . S
C1660 C1661 1.377 1_556 S
C1660 C1662 1.384 . S
C1661 C1660 1.377 1_554 S
C1661 C1667 1.390 . S
C1662 H1653 0.930 . S
C1662 C1660 1.384 . S
C1662 C1663 1.372 1_556 S
C1663 C1662 1.372 1_554 S
C1663 C1664 1.400 . S
C1663 C1668 1.490 . S
C1664 H1654 0.930 . S
C1664 C1663 1.400 . S
C1664 C1667 1.386 . S
H1665 C1681 0.930 . S
H1666 C1682 0.931 . S
C1667 H1655 0.929 . S
C1667 C1661 1.390 . S
C1667 C1664 1.386 . S
C1668 C1663 1.490 . S
C1668 C1670 1.395 1_554 S
C1668 C1671 1.403 . S
H1669 C1675 0.930 . S
C1670 H1656 0.930 . S
C1670 C1668 1.395 1_556 S
C1670 C1673 1.403 . S
C1671 C1668 1.403 . S
C1671 C1672 1.524 . S
C1671 C1675 1.400 . S
C1672 H1657 0.960 . S
C1672 H1658 0.960 . S
C1672 H1659 0.960 . S
C1672 C1671 1.524 . S
C1673 C1670 1.403 . S
C1673 C1674 1.392 1_556 S
C1673 C1677 1.495 . S
C1674 C1673 1.392 1_554 S
C1674 C1675 1.385 . S
C1674 C1676 1.478 . S
C1675 H1669 0.930 . S
C1675 C1671 1.400 . S
C1675 C1674 1.385 . S
C1676 C1674 1.478 . S
C1676 C1678 1.381 1_554 S
C1676 C1682 1.383 . S
C1677 C1673 1.495 . S
C1677 H1683 0.959 . S
C1677 H1684 0.961 . S
C1677 H1685 0.960 . S
C1678 C1676 1.381 1_556 S
C1678 C1679 1.394 . S
C1678 H1686 0.930 . S
C1679 C1678 1.394 . S
C1679 C1680 1.383 1_556 S
C1679 H1687 0.929 . S
C1680 C1679 1.383 1_554 S
C1680 C1681 1.377 . S
C1681 H1665 0.930 . S
C1681 C1680 1.377 . S
C1681 C1682 1.379 . S
C1682 H1666 0.931 . S
C1682 C1676 1.383 . S
C1682 C1681 1.379 . S
H1683 C1677 0.959 . S
H1684 C1677 0.961 . S
H1685 C1677 0.960 . S
H1686 C1678 0.930 . S
H1687 C1679 0.929 . S
H1688 C1696 0.929 . S
H1689 C1698 0.930 . S
H1690 C1700 0.930 . S
H1691 C1703 0.929 . S
H1692 C1706 0.930 . S
H1693 C1708 0.960 . S
H1694 C1708 0.960 . S
H1695 C1708 0.960 . S
C1696 H1688 0.929 . S
C1696 C1697 1.377 . S
C1696 C1698 1.384 . S
C1697 C1696 1.377 . S
C1697 C1703 1.390 . S
C1698 H1689 0.930 . S
C1698 C1696 1.384 . S
C1698 C1699 1.372 . S
C1699 C1698 1.372 . S
C1699 C1700 1.400 . S
C1699 C1704 1.490 . S
C1700 H1690 0.930 . S
C1700 C1699 1.400 . S
C1700 C1703 1.386 . S
H1701 C1717 0.930 . S
H1702 C1718 0.931 . S
C1703 H1691 0.929 . S
C1703 C1697 1.390 . S
C1703 C1700 1.386 . S
C1704 C1699 1.490 . S
C1704 C1706 1.395 . S
C1704 C1707 1.403 . S
H1705 C1711 0.930 . S
C1706 H1692 0.930 . S
C1706 C1704 1.395 . S
C1706 C1709 1.403 . S
C1707 C1704 1.403 . S
C1707 C1708 1.524 . S
C1707 C1711 1.400 . S
C1708 H1693 0.960 . S
C1708 H1694 0.960 . S
C1708 H1695 0.960 . S
C1708 C1707 1.524 . S
C1709 C1706 1.403 . S
C1709 C1710 1.392 . S
C1709 C1713 1.495 . S
C1710 C1709 1.392 . S
C1710 C1711 1.385 . S
C1710 C1712 1.478 . S
C1711 H1705 0.930 . S
C1711 C1707 1.400 . S
C1711 C1710 1.385 . S
C1712 C1710 1.478 . S
C1712 C1714 1.381 . S
C1712 C1718 1.383 . S
C1713 C1709 1.495 . S
C1713 H1719 0.959 . S
C1713 H1720 0.961 . S
C1713 H1721 0.960 . S
C1714 C1712 1.381 . S
C1714 C1715 1.394 . S
C1714 H1722 0.930 . S
C1715 C1714 1.394 . S
C1715 C1716 1.383 . S
C1715 H1723 0.929 . S
C1716 C1715 1.383 . S
C1716 C1717 1.377 . S
C1717 H1701 0.930 . S
C1717 C1716 1.377 . S
C1717 C1718 1.379 . S
C1718 H1702 0.931 . S
C1718 C1712 1.383 . S
C1718 C1717 1.379 . S
H1719 C1713 0.959 . S
H1720 C1713 0.961 . S
H1721 C1713 0.960 . S
H1722 C1714 0.930 . S
H1723 C1715 0.929 . S
H1724 C1732 0.929 . S
H1725 C1734 0.930 . S
H1726 C1736 0.930 . S
H1727 C1739 0.929 . S
H1728 C1742 0.930 . S
H1729 C1744 0.960 . S
H1730 C1744 0.960 . S
H1731 C1744 0.960 . S
C1732 H1724 0.929 . S
C1732 C1733 1.377 . S
C1732 C1734 1.384 . S
C1733 C1732 1.377 . S
C1733 C1739 1.390 . S
C1734 H1725 0.930 . S
C1734 C1732 1.384 . S
C1734 C1735 1.372 . S
C1735 C1734 1.372 . S
C1735 C1736 1.400 . S
C1735 C1740 1.490 . S
C1736 H1726 0.930 . S
C1736 C1735 1.400 . S
C1736 C1739 1.386 . S
H1737 C1753 0.930 . S
H1738 C1754 0.931 . S
C1739 H1727 0.929 . S
C1739 C1733 1.390 . S
C1739 C1736 1.386 . S
C1740 C1735 1.490 . S
C1740 C1742 1.395 . S
C1740 C1743 1.403 . S
H1741 C1747 0.930 . S
C1742 H1728 0.930 . S
C1742 C1740 1.395 . S
C1742 C1745 1.403 . S
C1743 C1740 1.403 . S
C1743 C1744 1.524 . S
C1743 C1747 1.400 . S
C1744 H1729 0.960 . S
C1744 H1730 0.960 . S
C1744 H1731 0.960 . S
C1744 C1743 1.524 . S
C1745 C1742 1.403 . S
C1745 C1746 1.392 . S
C1745 C1749 1.495 . S
C1746 C1745 1.392 . S
C1746 C1747 1.385 . S
C1746 C1748 1.478 . S
C1747 H1741 0.930 . S
C1747 C1743 1.400 . S
C1747 C1746 1.385 . S
C1748 C1746 1.478 . S
C1748 C1750 1.381 . S
C1748 C1754 1.383 . S
C1749 C1745 1.495 . S
C1749 H1755 0.959 . S
C1749 H1756 0.961 . S
C1749 H1757 0.960 . S
C1750 C1748 1.381 . S
C1750 C1751 1.394 . S
C1750 H1758 0.930 . S
C1751 C1750 1.394 . S
C1751 C1752 1.383 . S
C1751 H1759 0.929 . S
C1752 C1751 1.383 . S
C1752 C1753 1.377 . S
C1753 H1737 0.930 . S
C1753 C1752 1.377 . S
C1753 C1754 1.379 . S
C1754 H1738 0.931 . S
C1754 C1748 1.383 . S
C1754 C1753 1.379 . S
H1755 C1749 0.959 . S
H1756 C1749 0.961 . S
H1757 C1749 0.960 . S
H1758 C1750 0.930 . S
H1759 C1751 0.929 . S
H1760 C1768 0.929 . S
H1761 C1770 0.930 . S
H1762 C1772 0.930 . S
H1763 C1775 0.929 . S
H1764 C1778 0.930 . S
H1765 C1780 0.960 . S
H1766 C1780 0.960 . S
H1767 C1780 0.960 . S
C1768 H1760 0.929 . S
C1768 C1769 1.377 . S
C1768 C1770 1.384 . S
C1769 C1768 1.377 . S
C1769 C1775 1.390 . S
C1770 H1761 0.930 . S
C1770 C1768 1.384 . S
C1770 C1771 1.372 . S
C1771 C1770 1.372 . S
C1771 C1772 1.400 . S
C1771 C1776 1.490 . S
C1772 H1762 0.930 . S
C1772 C1771 1.400 . S
C1772 C1775 1.386 . S
H1773 C1789 0.930 . S
H1774 C1790 0.931 . S
C1775 H1763 0.929 . S
C1775 C1769 1.390 . S
C1775 C1772 1.386 . S
C1776 C1771 1.490 . S
C1776 C1778 1.395 . S
C1776 C1779 1.403 . S
H1777 C1783 0.930 . S
C1778 H1764 0.930 . S
C1778 C1776 1.395 . S
C1778 C1781 1.403 . S
C1779 C1776 1.403 . S
C1779 C1780 1.524 . S
C1779 C1783 1.400 . S
C1780 H1765 0.960 . S
C1780 H1766 0.960 . S
C1780 H1767 0.960 . S
C1780 C1779 1.524 . S
C1781 C1778 1.403 . S
C1781 C1782 1.392 . S
C1781 C1785 1.495 . S
C1782 C1781 1.392 . S
C1782 C1783 1.385 . S
C1782 C1784 1.478 . S
C1783 H1777 0.930 . S
C1783 C1779 1.400 . S
C1783 C1782 1.385 . S
C1784 C1782 1.478 . S
C1784 C1786 1.381 . S
C1784 C1790 1.383 . S
C1785 C1781 1.495 . S
C1785 H1791 0.959 . S
C1785 H1792 0.961 . S
C1785 H1793 0.960 . S
C1786 C1784 1.381 . S
C1786 C1787 1.394 . S
C1786 H1794 0.930 . S
C1787 C1786 1.394 . S
C1787 C1788 1.383 . S
C1787 H1795 0.929 . S
C1788 C1787 1.383 . S
C1788 C1789 1.377 . S
C1789 H1773 0.930 . S
C1789 C1788 1.377 . S
C1789 C1790 1.379 . S
C1790 H1774 0.931 . S
C1790 C1784 1.383 . S
C1790 C1789 1.379 . S
H1791 C1785 0.959 . S
H1792 C1785 0.961 . S
H1793 C1785 0.960 . S
H1794 C1786 0.930 . S
H1795 C1787 0.929 . S
H1796 C1804 0.929 . S
H1797 C1806 0.930 . S
H1798 C1808 0.930 . S
H1799 C1811 0.929 . S
H1800 C1814 0.930 . S
H1801 C1816 0.960 . S
H1802 C1816 0.960 . S
H1803 C1816 0.960 . S
C1804 H1796 0.929 . S
C1804 C1805 1.377 . S
C1804 C1806 1.384 . S
C1805 C1804 1.377 . S
C1805 C1811 1.390 . S
C1806 H1797 0.930 . S
C1806 C1804 1.384 . S
C1806 C1807 1.372 . S
C1807 C1806 1.372 . S
C1807 C1808 1.400 . S
C1807 C1812 1.490 . S
C1808 H1798 0.930 . S
C1808 C1807 1.400 . S
C1808 C1811 1.386 . S
H1809 C1825 0.930 . S
H1810 C1826 0.931 . S
C1811 H1799 0.929 . S
C1811 C1805 1.390 . S
C1811 C1808 1.386 . S
C1812 C1807 1.490 . S
C1812 C1814 1.395 . S
C1812 C1815 1.403 . S
H1813 C1819 0.930 . S
C1814 H1800 0.930 . S
C1814 C1812 1.395 . S
C1814 C1817 1.403 . S
C1815 C1812 1.403 . S
C1815 C1816 1.524 . S
C1815 C1819 1.400 . S
C1816 H1801 0.960 . S
C1816 H1802 0.960 . S
C1816 H1803 0.960 . S
C1816 C1815 1.524 . S
C1817 C1814 1.403 . S
C1817 C1818 1.392 . S
C1817 C1821 1.495 . S
C1818 C1817 1.392 . S
C1818 C1819 1.385 . S
C1818 C1820 1.478 . S
C1819 H1813 0.930 . S
C1819 C1815 1.400 . S
C1819 C1818 1.385 . S
C1820 C1818 1.478 . S
C1820 C1822 1.381 . S
C1820 C1826 1.383 . S
C1821 C1817 1.495 . S
C1821 H1827 0.959 . S
C1821 H1828 0.961 . S
C1821 H1829 0.960 . S
C1822 C1820 1.381 . S
C1822 C1823 1.394 . S
C1822 H1830 0.930 . S
C1823 C1822 1.394 . S
C1823 C1824 1.383 . S
C1823 H1831 0.929 . S
C1824 C1823 1.383 . S
C1824 C1825 1.377 . S
C1825 H1809 0.930 . S
C1825 C1824 1.377 . S
C1825 C1826 1.379 . S
C1826 H1810 0.931 . S
C1826 C1820 1.383 . S
C1826 C1825 1.379 . S
H1827 C1821 0.959 . S
H1828 C1821 0.961 . S
H1829 C1821 0.960 . S
H1830 C1822 0.930 . S
H1831 C1823 0.929 . S
H1832 C1840 0.929 . S
H1833 C1842 0.930 . S
H1834 C1844 0.930 . S
H1835 C1847 0.929 . S
H1836 C1850 0.930 . S
H1837 C1852 0.960 . S
H1838 C1852 0.960 . S
H1839 C1852 0.960 1_556 S
C1840 H1832 0.929 . S
C1840 C1841 1.377 1_554 S
C1840 C1842 1.384 . S
C1841 C1840 1.377 1_556 S
C1841 C1847 1.390 . S
C1842 H1833 0.930 . S
C1842 C1840 1.384 . S
C1842 C1843 1.372 1_554 S
C1843 C1842 1.372 1_556 S
C1843 C1844 1.400 . S
C1843 C1848 1.490 . S
C1844 H1834 0.930 . S
C1844 C1843 1.400 . S
C1844 C1847 1.386 . S
H1845 C1861 0.930 . S
H1846 C1862 0.931 . S
C1847 H1835 0.929 . S
C1847 C1841 1.390 . S
C1847 C1844 1.386 . S
C1848 C1843 1.490 . S
C1848 C1850 1.395 . S
C1848 C1851 1.403 1_556 S
H1849 C1855 0.930 . S
C1850 H1836 0.930 . S
C1850 C1848 1.395 . S
C1850 C1853 1.403 . S
C1851 C1848 1.403 1_554 S
C1851 C1852 1.523 . S
C1851 C1855 1.399 1_554 S
C1852 H1837 0.960 . S
C1852 H1838 0.960 . S
C1852 H1839 0.960 1_554 S
C1852 C1851 1.523 . S
C1853 C1850 1.403 . S
C1853 C1854 1.392 . S
C1853 C1857 1.495 . S
C1854 C1853 1.392 . S
C1854 C1855 1.387 . S
C1854 C1856 1.478 . S
C1855 H1849 0.930 . S
C1855 C1851 1.399 1_556 S
C1855 C1854 1.387 . S
C1856 C1854 1.478 . S
C1856 C1858 1.381 1_556 S
C1856 C1862 1.383 . S
C1857 C1853 1.495 . S
C1857 H1863 0.959 . S
C1857 H1864 0.961 . S
C1857 H1865 0.960 1_556 S
C1858 C1856 1.381 1_554 S
C1858 C1859 1.394 . S
C1858 H1866 0.930 . S
C1859 C1858 1.394 . S
C1859 C1860 1.383 1_554 S
C1859 H1867 0.929 . S
C1860 C1859 1.383 1_556 S
C1860 C1861 1.377 . S
C1861 H1845 0.930 . S
C1861 C1860 1.377 . S
C1861 C1862 1.379 . S
C1862 H1846 0.931 . S
C1862 C1856 1.383 . S
C1862 C1861 1.379 . S
H1863 C1857 0.959 . S
H1864 C1857 0.961 . S
H1865 C1857 0.960 1_554 S
H1866 C1858 0.930 . S
H1867 C1859 0.929 . S
H1868 C1876 0.929 . S
H1869 C1878 0.930 . S
H1870 C1880 0.930 . S
H1871 C1883 0.929 . S
H1872 C1886 0.930 . S
H1873 C1888 0.960 . S
H1874 C1888 0.960 . S
H1875 C1888 0.960 . S
C1876 H1868 0.929 . S
C1876 C1877 1.377 . S
C1876 C1878 1.384 . S
C1877 C1876 1.377 . S
C1877 C1883 1.390 . S
C1878 H1869 0.930 . S
C1878 C1876 1.384 . S
C1878 C1879 1.372 . S
C1879 C1878 1.372 . S
C1879 C1880 1.400 . S
C1879 C1884 1.490 . S
C1880 H1870 0.930 . S
C1880 C1879 1.400 . S
C1880 C1883 1.386 . S
H1881 C1897 0.930 . S
H1882 C1898 0.931 . S
C1883 H1871 0.929 . S
C1883 C1877 1.390 . S
C1883 C1880 1.386 . S
C1884 C1879 1.490 . S
C1884 C1886 1.395 . S
C1884 C1887 1.403 . S
H1885 C1891 0.930 . S
C1886 H1872 0.930 . S
C1886 C1884 1.395 . S
C1886 C1889 1.403 . S
C1887 C1884 1.403 . S
C1887 C1888 1.524 . S
C1887 C1891 1.400 . S
C1888 H1873 0.960 . S
C1888 H1874 0.960 . S
C1888 H1875 0.960 . S
C1888 C1887 1.524 . S
C1889 C1886 1.403 . S
C1889 C1890 1.392 . S
C1889 C1893 1.495 . S
C1890 C1889 1.392 . S
C1890 C1891 1.385 . S
C1890 C1892 1.478 . S
C1891 H1885 0.930 . S
C1891 C1887 1.400 . S
C1891 C1890 1.385 . S
C1892 C1890 1.478 . S
C1892 C1894 1.381 . S
C1892 C1898 1.383 . S
C1893 C1889 1.495 . S
C1893 H1899 0.959 . S
C1893 H1900 0.961 . S
C1893 H1901 0.960 . S
C1894 C1892 1.381 . S
C1894 C1895 1.394 . S
C1894 H1902 0.930 . S
C1895 C1894 1.394 . S
C1895 C1896 1.383 . S
C1895 H1903 0.929 . S
C1896 C1895 1.383 . S
C1896 C1897 1.377 . S
C1897 H1881 0.930 . S
C1897 C1896 1.377 . S
C1897 C1898 1.379 . S
C1898 H1882 0.931 . S
C1898 C1892 1.383 . S
C1898 C1897 1.379 . S
H1899 C1893 0.959 . S
H1900 C1893 0.961 . S
H1901 C1893 0.960 . S
H1902 C1894 0.930 . S
H1903 C1895 0.929 . S
H1904 C1912 0.929 . S
H1905 C1914 0.930 . S
H1906 C1916 0.930 . S
H1907 C1919 0.929 . S
H1908 C1922 0.930 . S
H1909 C1924 0.960 . S
H1910 C1924 0.960 . S
H1911 C1924 0.960 . S
C1912 H1904 0.929 . S
C1912 C1913 1.377 . S
C1912 C1914 1.384 . S
C1913 C1912 1.377 . S
C1913 C1919 1.390 . S
C1914 H1905 0.930 . S
C1914 C1912 1.384 . S
C1914 C1915 1.372 . S
C1915 C1914 1.372 . S
C1915 C1916 1.400 . S
C1915 C1920 1.490 . S
C1916 H1906 0.930 . S
C1916 C1915 1.400 . S
C1916 C1919 1.386 . S
H1917 C1933 0.930 . S
H1918 C1934 0.931 . S
C1919 H1907 0.929 . S
C1919 C1913 1.390 . S
C1919 C1916 1.386 . S
C1920 C1915 1.490 . S
C1920 C1922 1.395 . S
C1920 C1923 1.403 . S
H1921 C1927 0.930 . S
C1922 H1908 0.930 . S
C1922 C1920 1.395 . S
C1922 C1925 1.403 . S
C1923 C1920 1.403 . S
C1923 C1924 1.524 . S
C1923 C1927 1.400 . S
C1924 H1909 0.960 . S
C1924 H1910 0.960 . S
C1924 H1911 0.960 . S
C1924 C1923 1.524 . S
C1925 C1922 1.403 . S
C1925 C1926 1.392 . S
C1925 C1929 1.495 . S
C1926 C1925 1.392 . S
C1926 C1927 1.385 . S
C1926 C1928 1.478 . S
C1927 H1921 0.930 . S
C1927 C1923 1.400 . S
C1927 C1926 1.385 . S
C1928 C1926 1.478 . S
C1928 C1930 1.381 . S
C1928 C1934 1.383 . S
C1929 C1925 1.495 . S
C1929 H1935 0.959 . S
C1929 H1936 0.961 . S
C1929 H1937 0.960 . S
C1930 C1928 1.381 . S
C1930 C1931 1.394 . S
C1930 H1938 0.930 . S
C1931 C1930 1.394 . S
C1931 C1932 1.383 . S
C1931 H1939 0.929 . S
C1932 C1931 1.383 . S
C1932 C1933 1.377 . S
C1933 H1917 0.930 . S
C1933 C1932 1.377 . S
C1933 C1934 1.379 . S
C1934 H1918 0.931 . S
C1934 C1928 1.383 . S
C1934 C1933 1.379 . S
H1935 C1929 0.959 . S
H1936 C1929 0.961 . S
H1937 C1929 0.960 . S
H1938 C1930 0.930 . S
H1939 C1931 0.929 . S
H1940 C1948 0.929 . S
H1941 C1950 0.930 . S
H1942 C1952 0.930 . S
H1943 C1955 0.929 . S
H1944 C1958 0.930 . S
H1945 C1960 0.960 . S
H1946 C1960 0.960 . S
H1947 C1960 0.960 . S
C1948 H1940 0.929 . S
C1948 C1949 1.377 . S
C1948 C1950 1.384 . S
C1949 C1948 1.377 . S
C1949 C1955 1.390 . S
C1950 H1941 0.930 . S
C1950 C1948 1.384 . S
C1950 C1951 1.372 . S
C1951 C1950 1.372 . S
C1951 C1952 1.400 . S
C1951 C1956 1.490 . S
C1952 H1942 0.930 . S
C1952 C1951 1.400 . S
C1952 C1955 1.386 . S
H1953 C1969 0.930 . S
H1954 C1970 0.931 . S
C1955 H1943 0.929 . S
C1955 C1949 1.390 . S
C1955 C1952 1.386 . S
C1956 C1951 1.490 . S
C1956 C1958 1.395 . S
C1956 C1959 1.403 . S
H1957 C1963 0.930 . S
C1958 H1944 0.930 . S
C1958 C1956 1.395 . S
C1958 C1961 1.403 . S
C1959 C1956 1.403 . S
C1959 C1960 1.524 . S
C1959 C1963 1.400 . S
C1960 H1945 0.960 . S
C1960 H1946 0.960 . S
C1960 H1947 0.960 . S
C1960 C1959 1.524 . S
C1961 C1958 1.403 . S
C1961 C1962 1.392 . S
C1961 C1965 1.495 . S
C1962 C1961 1.392 . S
C1962 C1963 1.385 . S
C1962 C1964 1.478 . S
C1963 H1957 0.930 . S
C1963 C1959 1.400 . S
C1963 C1962 1.385 . S
C1964 C1962 1.478 . S
C1964 C1966 1.381 . S
C1964 C1970 1.383 . S
C1965 C1961 1.495 . S
C1965 H1971 0.959 . S
C1965 H1972 0.961 . S
C1965 H1973 0.960 . S
C1966 C1964 1.381 . S
C1966 C1967 1.394 . S
C1966 H1974 0.930 . S
C1967 C1966 1.394 . S
C1967 C1968 1.383 . S
C1967 H1975 0.929 . S
C1968 C1967 1.383 . S
C1968 C1969 1.377 . S
C1969 H1953 0.930 . S
C1969 C1968 1.377 . S
C1969 C1970 1.379 . S
C1970 H1954 0.931 . S
C1970 C1964 1.383 . S
C1970 C1969 1.379 . S
H1971 C1965 0.959 . S
H1972 C1965 0.961 . S
H1973 C1965 0.960 . S
H1974 C1966 0.930 . S
H1975 C1967 0.929 . S
H1976 C1984 0.929 . S
H1977 C1986 0.930 . S
H1978 C1988 0.930 . S
H1979 C1991 0.929 . S
H1980 C1994 0.930 . S
H1981 C1996 0.960 . S
H1982 C1996 0.960 . S
H1983 C1996 0.960 . S
C1984 H1976 0.929 . S
C1984 C1985 1.377 . S
C1984 C1986 1.384 . S
C1985 C1984 1.377 . S
C1985 C1991 1.390 . S
C1986 H1977 0.930 . S
C1986 C1984 1.384 . S
C1986 C1987 1.372 . S
C1987 C1986 1.372 . S
C1987 C1988 1.400 . S
C1987 C1992 1.490 . S
C1988 H1978 0.930 . S
C1988 C1987 1.400 . S
C1988 C1991 1.386 . S
H1989 C2005 0.930 . S
H1990 C2006 0.931 . S
C1991 H1979 0.929 . S
C1991 C1985 1.390 . S
C1991 C1988 1.386 . S
C1992 C1987 1.490 . S
C1992 C1994 1.395 . S
C1992 C1995 1.403 . S
H1993 C1999 0.930 . S
C1994 H1980 0.930 . S
C1994 C1992 1.395 . S
C1994 C1997 1.403 . S
C1995 C1992 1.403 . S
C1995 C1996 1.524 . S
C1995 C1999 1.400 . S
C1996 H1981 0.960 . S
C1996 H1982 0.960 . S
C1996 H1983 0.960 . S
C1996 C1995 1.524 . S
C1997 C1994 1.403 . S
C1997 C1998 1.392 . S
C1997 C2001 1.495 . S
C1998 C1997 1.392 . S
C1998 C1999 1.385 . S
C1998 C2000 1.478 . S
C1999 H1993 0.930 . S
C1999 C1995 1.400 . S
C1999 C1998 1.385 . S
C2000 C1998 1.478 . S
C2000 C2002 1.381 . S
C2000 C2006 1.383 . S
C2001 C1997 1.495 . S
C2001 H2007 0.959 . S
C2001 H2008 0.961 . S
C2001 H2009 0.960 . S
C2002 C2000 1.381 . S
C2002 C2003 1.394 . S
C2002 H2010 0.930 . S
C2003 C2002 1.394 . S
C2003 C2004 1.383 . S
C2003 H2011 0.929 . S
C2004 C2003 1.383 . S
C2004 C2005 1.377 . S
C2005 H1989 0.930 . S
C2005 C2004 1.377 . S
C2005 C2006 1.379 . S
C2006 H1990 0.931 . S
C2006 C2000 1.383 . S
C2006 C2005 1.379 . S
H2007 C2001 0.959 . S
H2008 C2001 0.961 . S
H2009 C2001 0.960 . S
H2010 C2002 0.930 . S
H2011 C2003 0.929 . S
H2012 C2020 0.929 . S
H2013 C2022 0.930 . S
H2014 C2024 0.930 . S
H2015 C2027 0.929 . S
H2016 C2030 0.930 . S
H2017 C2032 0.960 . S
H2018 C2032 0.960 . S
H2019 C2032 0.960 . S
C2020 H2012 0.929 . S
C2020 C2021 1.377 . S
C2020 C2022 1.384 . S
C2021 C2020 1.377 . S
C2021 C2027 1.390 . S
C2022 H2013 0.930 . S
C2022 C2020 1.384 . S
C2022 C2023 1.372 . S
C2023 C2022 1.372 . S
C2023 C2024 1.400 . S
C2023 C2028 1.490 . S
C2024 H2014 0.930 . S
C2024 C2023 1.400 . S
C2024 C2027 1.386 . S
H2025 C2041 0.930 . S
H2026 C2042 0.931 . S
C2027 H2015 0.929 . S
C2027 C2021 1.390 . S
C2027 C2024 1.386 . S
C2028 C2023 1.490 . S
C2028 C2030 1.395 . S
C2028 C2031 1.403 . S
H2029 C2035 0.930 . S
C2030 H2016 0.930 . S
C2030 C2028 1.395 . S
C2030 C2033 1.403 . S
C2031 C2028 1.403 . S
C2031 C2032 1.524 . S
C2031 C2035 1.400 . S
C2032 H2017 0.960 . S
C2032 H2018 0.960 . S
C2032 H2019 0.960 . S
C2032 C2031 1.524 . S
C2033 C2030 1.403 . S
C2033 C2034 1.392 . S
C2033 C2037 1.495 . S
C2034 C2033 1.392 . S
C2034 C2035 1.385 . S
C2034 C2036 1.478 . S
C2035 H2029 0.930 . S
C2035 C2031 1.400 . S
C2035 C2034 1.385 . S
C2036 C2034 1.478 . S
C2036 C2038 1.381 . S
C2036 C2042 1.383 . S
C2037 C2033 1.495 . S
C2037 H2043 0.959 . S
C2037 H2044 0.961 . S
C2037 H2045 0.960 . S
C2038 C2036 1.381 . S
C2038 C2039 1.394 . S
C2038 H2046 0.930 . S
C2039 C2038 1.394 . S
C2039 C2040 1.383 . S
C2039 H2047 0.929 . S
C2040 C2039 1.383 . S
C2040 C2041 1.377 . S
C2041 H2025 0.930 . S
C2041 C2040 1.377 . S
C2041 C2042 1.379 . S
C2042 H2026 0.931 . S
C2042 C2036 1.383 . S
C2042 C2041 1.379 . S
H2043 C2037 0.959 . S
H2044 C2037 0.961 . S
H2045 C2037 0.960 . S
H2046 C2038 0.930 . S
H2047 C2039 0.929 . S
C329 C2 0.643 . S
C348 C24 0.681 . S
C365 C42 0.633 . S
C384 C29 0.638 . S
C401 C64 0.786 . S
C420 C59 0.818 . S
C437 C19 0.590 . S
C456 C69 0.580 . S
C473 C18 0.557 . S
C492 C192 0.659 . S
C509 C144 0.505 . S
C528 C22 0.602 . S
C545 C44 0.806 . S
C564 C212 0.804 . S
C581 C62 1.000 . S
C600 C264 0.899 . S
C617 C178 0.555 . S
C636 C32 0.541 . S
C653 C242 1.071 . S
C672 C58 1.114 . S
C689 C284 0.804 . S
C708 C72 0.787 . S
C725 C4 0.620 . S
C744 C222 0.612 . S
C761 C9 0.450 1_556 S
C780 C169 0.453 1_556 S
C797 C259 1.652 . S
C816 C99 1.650 . S
C833 C112 0.501 . S
C852 C289 0.528 . S
C869 C239 1.382 . S
C888 C139 1.386 . S
C905 C49 0.477 . S
C924 C152 0.504 . S
C941 C198 1.429 . S
C960 C98 1.437 . S
C977 C138 1.473 . S
C996 C218 1.472 . S
C1013 C118 0.977 . S
C1032 C232 0.992 . S
C1049 C182 0.531 . S
C1068 C104 0.475 . S
C1085 C224 0.670 . S
C1104 C142 0.572 1_655 S
C1121 C119 1.269 . S
C1140 C89 1.255 . S
C1157 C184 0.633 . S
C1176 C162 0.571 . S
C1193 C279 0.987 . S
C1212 C229 0.963 . S
C1229 C124 0.672 . S
C1248 C102 0.613 . S
C1265 C189 0.594 . S
C1284 C282 0.577 . S
C1301 C272 0.467 . S
C1320 C12 0.452 . S
C1337 C52 0.474 . S
C1356 C292 0.561 . S
C1373 C258 1.425 . S
C1392 C38 1.419 . S
C1409 C149 0.477 . S
C1428 C109 0.388 . S
C1445 C79 1.480 . S
C1464 C219 1.493 . S
C1481 C244 0.962 . S
C1500 C262 0.988 . S
C1517 C159 1.268 . S
C1536 C249 1.265 . S
C1553 C132 0.971 . S
C1572 C158 0.962 . S
C1589 C92 0.992 . S
C1608 C278 1.005 . S
C1625 C252 0.997 . S
C1644 C318 1.007 . S
C1661 C312 0.471 . S
C1680 C172 0.433 . S
C1697 C39 1.291 . S
C1716 C199 1.291 . S
C1733 C164 0.647 . S
C1752 C122 0.546 . S
C1769 C179 0.585 . S
C1788 C209 0.649 . S
C1805 C319 0.990 . S
C1824 C129 0.936 . S
C1841 C269 0.481 1_556 S
C1860 C309 0.497 1_556 S
C1877 C238 1.472 . S
C1896 C78 1.468 1_565 S
C1913 C204 0.812 . S
C1932 C299 0.810 . S
C1949 C202 1.001 . S
C1968 C304 0.909 . S
C1985 C82 1.070 . S
C2004 C298 1.125 . S
C2021 C302 0.937 . S
C2040 C84 0.917 . S
