# Generated by pormake.
# Topology qtz-h, (3)-cn, num edge types: 1
# Building blocks:
#     Node 0, Type 0, BuildingBlock: OLANEW_clean_sbu_2, # of connection points: 3
#     Node 1, Type 0, BuildingBlock: OLANEW_clean_sbu_2, # of connection points: 3
#     Node 2, Type 0, BuildingBlock: OLANEW_clean_sbu_2, # of connection points: 3
#     Node 3, Type 0, BuildingBlock: OLANEW_clean_sbu_2, # of connection points: 3
#     Node 4, Type 0, BuildingBlock: OLANEW_clean_sbu_2, # of connection points: 3
#     Node 5, Type 0, BuildingBlock: OLANEW_clean_sbu_2, # of connection points: 3
#     Node 6, Type 0, BuildingBlock: OLANEW_clean_sbu_2, # of connection points: 3
#     Node 7, Type 0, BuildingBlock: OLANEW_clean_sbu_2, # of connection points: 3
#     Node 8, Type 0, BuildingBlock: OLANEW_clean_sbu_2, # of connection points: 3
#     Node 9, Type 0, BuildingBlock: OLANEW_clean_sbu_2, # of connection points: 3
#     Node 10, Type 0, BuildingBlock: OLANEW_clean_sbu_2, # of connection points: 3
#     Node 11, Type 0, BuildingBlock: OLANEW_clean_sbu_2, # of connection points: 3
#     Edge 12, Type (0, 0), BuildingBlock: FUNLAD_clean_linker_1, # of connection points: 2
#     Edge 13, Type (0, 0), BuildingBlock: FUNLAD_clean_linker_1, # of connection points: 2
#     Edge 14, Type (0, 0), BuildingBlock: FUNLAD_clean_linker_1, # of connection points: 2
#     Edge 15, Type (0, 0), BuildingBlock: FUNLAD_clean_linker_1, # of connection points: 2
#     Edge 16, Type (0, 0), BuildingBlock: FUNLAD_clean_linker_1, # of connection points: 2
#     Edge 17, Type (0, 0), BuildingBlock: FUNLAD_clean_linker_1, # of connection points: 2
#     Edge 18, Type (0, 0), BuildingBlock: FUNLAD_clean_linker_1, # of connection points: 2
#     Edge 19, Type (0, 0), BuildingBlock: FUNLAD_clean_linker_1, # of connection points: 2
#     Edge 20, Type (0, 0), BuildingBlock: FUNLAD_clean_linker_1, # of connection points: 2
#     Edge 21, Type (0, 0), BuildingBlock: FUNLAD_clean_linker_1, # of connection points: 2
#     Edge 22, Type (0, 0), BuildingBlock: FUNLAD_clean_linker_1, # of connection points: 2
#     Edge 23, Type (0, 0), BuildingBlock: FUNLAD_clean_linker_1, # of connection points: 2
#     Edge 24, Type (0, 0), BuildingBlock: FUNLAD_clean_linker_1, # of connection points: 2
#     Edge 25, Type (0, 0), BuildingBlock: FUNLAD_clean_linker_1, # of connection points: 2
#     Edge 26, Type (0, 0), BuildingBlock: FUNLAD_clean_linker_1, # of connection points: 2
#     Edge 27, Type (0, 0), BuildingBlock: FUNLAD_clean_linker_1, # of connection points: 2
#     Edge 28, Type (0, 0), BuildingBlock: FUNLAD_clean_linker_1, # of connection points: 2
#     Edge 29, Type (0, 0), BuildingBlock: FUNLAD_clean_linker_1, # of connection points: 2
# Relax obj value: 0.007
# Max RMSD: 0.029
# Mean RMSD: 0.029
data_MOF--net-qtz-h--node1-OLANEW_clean_sbu_2--edge1-FUNLAD_clean_linker_1
_symmetry_space_group_name_H-M    P1
_symmetry_Int_Tables_number       1
_symmetry_cell_setting            triclinic
loop_
_symmetry_equiv_pos_as_xyz
'x, y, z'
_cell_length_a     62.018447
_cell_length_b     61.865196
_cell_length_c     71.462573
_cell_angle_alpha  89.973091
_cell_angle_beta   90.037373
_cell_angle_gamma 120.02372
loop_
_atom_site_label
_atom_site_type_symbol
_atom_site_fract_x
_atom_site_fract_y
_atom_site_fract_z
_atom_type_partial_charge
O0 O 0.6466 0.21329 0.06899 0.0
Cd1 Cd 0.66602 0.21509 0.09914 0.0
O2 O 0.61366 0.1782 0.07755 0.0
Cd3 Cd 0.57799 0.14571 0.06995 0.0
O4 O 0.54762 0.10895 0.06184 0.0
C5 C 0.55319 0.0935 0.05485 0.0
O6 O 0.57674 0.10037 0.05227 0.0
C7 C 0.62495 0.19522 0.06545 0.0
C8 C 0.6706 0.2544 0.12105 0.0
O9 O 0.68805 0.25745 0.10989 0.0
O10 O 0.65098 0.23279 0.12192 0.0
O11 O 0.41309 0.64546 0.40505 0.0
Cd12 Cd 0.42849 0.65932 0.4368 0.0
O13 O 0.43191 0.62346 0.40474 0.0
Cd14 Cd 0.44112 0.59585 0.39408 0.0
O15 O 0.45121 0.56747 0.3878 0.0
C16 C 0.45395 0.55624 0.40169 0.0
O17 O 0.45052 0.56205 0.41867 0.0
C18 C 0.41863 0.63093 0.39647 0.0
C19 C 0.39155 0.65697 0.4603 0.0
O20 O 0.40554 0.67677 0.45087 0.0
O21 O 0.39498 0.63829 0.45864 0.0
O22 O 0.77024 0.41523 0.74061 0.0
Cd23 Cd 0.77223 0.4256 0.77381 0.0
O24 O 0.81046 0.42936 0.74129 0.0
Cd25 Cd 0.84722 0.44137 0.72919 0.0
O26 O 0.88595 0.45466 0.72153 0.0
C27 C 0.89544 0.46533 0.70604 0.0
O28 O 0.88155 0.46842 0.69367 0.0
C29 C 0.79005 0.41952 0.73223 0.0
C30 C 0.72966 0.39214 0.79346 0.0
O31 O 0.73113 0.41144 0.78561 0.0
O32 O 0.7482 0.3885 0.79195 0.0
O33 O 0.35318 0.78155 0.07656 0.0
Cd34 Cd 0.3368 0.77788 0.10822 0.0
O35 O 0.38644 0.8166 0.08465 0.0
Cd36 Cd 0.4214 0.85002 0.07719 0.0
O37 O 0.45174 0.88758 0.07089 0.0
C38 C 0.44797 0.9013 0.0597 0.0
O39 O 0.42599 0.89246 0.05183 0.0
C40 C 0.37425 0.80013 0.07236 0.0
C41 C 0.34355 0.7442 0.12979 0.0
O42 O 0.32365 0.73692 0.12015 0.0
O43 O 0.36024 0.76735 0.12928 0.0
O44 O 0.57173 0.36114 0.41043 0.0
Cd45 Cd 0.561 0.34634 0.44267 0.0
O46 O 0.55218 0.38223 0.41367 0.0
Cd47 Cd 0.53946 0.40707 0.40294 0.0
O48 O 0.5253 0.43193 0.39543 0.0
C49 C 0.50996 0.42682 0.38205 0.0
O50 O 0.50266 0.40633 0.37231 0.0
C51 C 0.56472 0.3756 0.40359 0.0
C52 C 0.60255 0.3548 0.46345 0.0
O53 O 0.58991 0.33449 0.45421 0.0
O54 O 0.59561 0.37112 0.46288 0.0
O55 O 0.20964 0.57661 0.74809 0.0
Cd56 Cd 0.21084 0.56183 0.77958 0.0
O57 O 0.16883 0.55741 0.74937 0.0
Cd58 Cd 0.13284 0.54707 0.7366 0.0
O59 O 0.09518 0.53532 0.72672 0.0
C60 C 0.07737 0.52011 0.73708 0.0
O61 O 0.08244 0.51235 0.75268 0.0
C62 C 0.18893 0.57094 0.74051 0.0
C63 C 0.25299 0.59617 0.79923 0.0
O64 O 0.25332 0.57912 0.78929 0.0
O65 O 0.23278 0.59703 0.79993 0.0
O66 O 0.79191 0.37011 0.5863 0.0
Cd67 Cd 0.78965 0.35855 0.55335 0.0
O68 O 0.83194 0.39599 0.58295 0.0
Cd69 Cd 0.86828 0.42413 0.59383 0.0
O70 O 0.90629 0.45374 0.59983 0.0
C71 C 0.91776 0.45459 0.61478 0.0
O72 O 0.90655 0.43726 0.62761 0.0
C73 C 0.81272 0.38613 0.59327 0.0
C74 C 0.74635 0.35123 0.53585 0.0
O75 O 0.74696 0.3332 0.54415 0.0
O76 O 0.7661 0.37278 0.53589 0.0
O77 O 0.42139 0.77874 0.92882 0.0
Cd78 Cd 0.43431 0.7741 0.89748 0.0
O79 O 0.4274 0.81565 0.92095 0.0
Cd80 Cd 0.42971 0.85089 0.92875 0.0
O81 O 0.44107 0.88941 0.93605 0.0
C82 C 0.45942 0.90135 0.94705 0.0
O83 O 0.47077 0.8901 0.9541 0.0
C84 C 0.42099 0.79848 0.93305 0.0
C85 C 0.39383 0.74117 0.87568 0.0
O86 O 0.40569 0.73333 0.88568 0.0
O87 O 0.40107 0.76453 0.87594 0.0
O88 O 0.64643 0.40858 0.25981 0.0
Cd89 Cd 0.66117 0.42232 0.22793 0.0
O90 O 0.61884 0.42039 0.25571 0.0
Cd91 Cd 0.58644 0.4243 0.26217 0.0
O92 O 0.55501 0.43074 0.2648 0.0
C93 C 0.55772 0.45018 0.27295 0.0
O94 O 0.57946 0.46613 0.28019 0.0
C95 C 0.62874 0.41112 0.26622 0.0
C96 C 0.65561 0.38325 0.20526 0.0
O97 O 0.67572 0.39644 0.21455 0.0
O98 O 0.63812 0.38844 0.20669 0.0
O99 O 0.23413 0.6649 0.59935 0.0
Cd100 Cd 0.23183 0.67915 0.5679 0.0
O101 O 0.19386 0.63866 0.59915 0.0
Cd102 Cd 0.15906 0.60722 0.60979 0.0
O103 O 0.12424 0.57527 0.61958 0.0
C104 C 0.10582 0.57811 0.6234 0.0
O105 O 0.10817 0.60035 0.62176 0.0
C106 C 0.21475 0.64824 0.60755 0.0
C107 C 0.26959 0.682 0.54512 0.0
O108 O 0.27298 0.70073 0.55496 0.0
O109 O 0.24836 0.66192 0.54595 0.0
O110 O 0.56426 0.21689 0.92667 0.0
Cd111 Cd 0.54855 0.22207 0.89662 0.0
O112 O 0.55168 0.17776 0.91982 0.0
Cd113 Cd 0.54549 0.14108 0.92818 0.0
O114 O 0.53112 0.10186 0.93527 0.0
C115 C 0.50925 0.08642 0.9297 0.0
O116 O 0.49668 0.09463 0.92018 0.0
C117 C 0.5622 0.19603 0.93105 0.0
C118 C 0.58748 0.25237 0.87262 0.0
O119 O 0.57817 0.26179 0.88375 0.0
O120 O 0.57836 0.22867 0.87273 0.0
O121 O 0.35699 0.57046 0.25397 0.0
Cd122 Cd 0.34023 0.55853 0.22231 0.0
O123 O 0.38405 0.55849 0.24768 0.0
Cd124 Cd 0.41479 0.55267 0.25576 0.0
O125 O 0.44515 0.54531 0.26146 0.0
C126 C 0.44063 0.52459 0.26845 0.0
O127 O 0.41757 0.50773 0.27255 0.0
C128 C 0.37501 0.56755 0.25912 0.0
C129 C 0.33471 0.59553 0.20444 0.0
O130 O 0.317 0.57864 0.21423 0.0
O131 O 0.3551 0.59506 0.20313 0.0
H132 H 0.63487 0.35196 0.18567 0.0
C133 C 0.65244 0.36263 0.19308 0.0
H134 H 0.68784 0.36685 0.19851 0.0
H135 H 0.65751 0.25644 0.17635 0.0
H136 H 0.66145 0.25511 0.21004 0.0
H137 H 0.66758 0.29043 0.2298 0.0
H138 H 0.66994 0.32737 0.21599 0.0
C139 C 0.67047 0.35686 0.19078 0.0
C140 C 0.66663 0.33561 0.17871 0.0
C141 C 0.66515 0.3141 0.18703 0.0
C142 C 0.66131 0.2936 0.17566 0.0
C143 C 0.66016 0.27245 0.18433 0.0
C144 C 0.66242 0.27144 0.20366 0.0
C145 C 0.6659 0.29134 0.21478 0.0
C146 C 0.66725 0.31245 0.20665 0.0
H147 H 0.69046 0.29327 0.13123 0.0
C148 C 0.67331 0.27544 0.13248 0.0
H149 H 0.63848 0.2554 0.14606 0.0
H150 H 0.67118 0.37504 0.15803 0.0
H151 H 0.6657 0.37577 0.1245 0.0
H152 H 0.65604 0.33907 0.10506 0.0
H153 H 0.65229 0.30161 0.119 0.0
C154 C 0.6554 0.27328 0.1442 0.0
C155 C 0.65892 0.29464 0.15599 0.0
C156 C 0.66005 0.31603 0.14769 0.0
C157 C 0.66447 0.33676 0.15901 0.0
C158 C 0.66688 0.35839 0.15022 0.0
C159 C 0.66393 0.35913 0.13095 0.0
C160 C 0.65859 0.3385 0.12 0.0
C161 C 0.65664 0.31716 0.12818 0.0
H162 H 0.36079 0.6382 0.48055 0.0
C163 C 0.37197 0.65544 0.47284 0.0
H164 H 0.37806 0.69154 0.46691 0.0
H165 H 0.2696 0.66611 0.49055 0.0
H166 H 0.26723 0.66863 0.45679 0.0
H167 H 0.30129 0.67262 0.43661 0.0
H168 H 0.338 0.67423 0.45005 0.0
C169 C 0.36761 0.67449 0.47498 0.0
C170 C 0.34723 0.67219 0.4873 0.0
C171 C 0.32588 0.6712 0.4792 0.0
C172 C 0.30612 0.66864 0.49082 0.0
C173 C 0.28507 0.66784 0.48237 0.0
C174 C 0.28347 0.66929 0.46301 0.0
C175 C 0.30266 0.67157 0.45165 0.0
C176 C 0.32365 0.6725 0.45956 0.0
H177 H 0.30764 0.70108 0.53348 0.0
C178 C 0.28988 0.68373 0.53331 0.0
H179 H 0.26927 0.64754 0.52173 0.0
H180 H 0.38659 0.67599 0.50749 0.0
H181 H 0.38847 0.67236 0.54116 0.0
H182 H 0.35318 0.66547 0.56116 0.0
H183 H 0.31596 0.66257 0.54763 0.0
C184 C 0.28712 0.66471 0.52255 0.0
C185 C 0.30778 0.66714 0.51051 0.0
C186 C 0.32907 0.66796 0.51862 0.0
C187 C 0.34901 0.67094 0.50702 0.0
C188 C 0.37053 0.67287 0.51556 0.0
C189 C 0.37193 0.67096 0.53489 0.0
C190 C 0.35209 0.66716 0.54616 0.0
C191 C 0.33087 0.66566 0.5382 0.0
H192 H 0.61539 0.25913 0.85084 0.0
C193 C 0.6083 0.26818 0.85999 0.0
H194 H 0.61252 0.30254 0.8692 0.0
H195 H 0.72546 0.36611 0.84533 0.0
H196 H 0.72929 0.36608 0.8791 0.0
H197 H 0.69275 0.33976 0.89884 0.0
H198 H 0.65213 0.31339 0.88493 0.0
C199 C 0.61881 0.29315 0.85967 0.0
C200 C 0.64072 0.30883 0.84759 0.0
C201 C 0.66436 0.32405 0.85594 0.0
C202 C 0.68548 0.339 0.84455 0.0
C203 C 0.70883 0.35419 0.85329 0.0
C204 C 0.71129 0.35438 0.87267 0.0
C205 C 0.69072 0.33959 0.88379 0.0
C206 C 0.66749 0.32456 0.87561 0.0
H207 H 0.69208 0.37899 0.80492 0.0
C208 C 0.70719 0.3749 0.80413 0.0
H209 H 0.72038 0.35101 0.813 0.0
H210 H 0.59772 0.28349 0.82716 0.0
H211 H 0.59411 0.28249 0.79335 0.0
H212 H 0.63117 0.30648 0.7735 0.0
H213 H 0.672 0.33193 0.78737 0.0
C214 C 0.70508 0.35483 0.81309 0.0
C215 C 0.68292 0.33873 0.82482 0.0
C216 C 0.65933 0.32328 0.81644 0.0
C217 C 0.63812 0.30866 0.82786 0.0
C218 C 0.61459 0.2943 0.81916 0.0
C219 C 0.61223 0.29366 0.79975 0.0
C220 C 0.63308 0.30723 0.78858 0.0
C221 C 0.6564 0.32188 0.79674 0.0
H222 H 0.3135 0.61395 0.19629 0.0
C223 C 0.33132 0.61471 0.19482 0.0
H224 H 0.36681 0.6331 0.18209 0.0
H225 H 0.3342 0.67732 0.11532 0.0
H226 H 0.33971 0.64587 0.09931 0.0
H227 H 0.34737 0.61617 0.11709 0.0
H228 H 0.34969 0.61782 0.15097 0.0
C229 C 0.34922 0.63262 0.18421 0.0
C230 C 0.34474 0.65076 0.17365 0.0
C231 C 0.34332 0.64946 0.15385 0.0
C232 C 0.33859 0.66637 0.14361 0.0
C233 C 0.33748 0.66478 0.12382 0.0
C234 C 0.34065 0.64683 0.11444 0.0
C235 C 0.34499 0.63013 0.12445 0.0
C236 C 0.34632 0.63132 0.14391 0.0
H237 H 0.36486 0.7338 0.14889 0.0
C238 C 0.34747 0.7266 0.1412 0.0
H239 H 0.31329 0.69458 0.13422 0.0
H240 H 0.34892 0.6601 0.21136 0.0
H241 H 0.34211 0.69067 0.22745 0.0
H242 H 0.33116 0.71816 0.20985 0.0
H243 H 0.32739 0.71553 0.17606 0.0
C244 C 0.33041 0.7022 0.14229 0.0
C245 C 0.33525 0.68455 0.15319 0.0
C246 C 0.33649 0.68575 0.17303 0.0
C247 C 0.34173 0.66916 0.18324 0.0
C248 C 0.34408 0.67159 0.20295 0.0
C249 C 0.34036 0.68917 0.21237 0.0
C250 C 0.33428 0.7047 0.20246 0.0
C251 C 0.33232 0.70309 0.18303 0.0
H252 H 0.70717 0.32828 0.52698 0.0
C253 C 0.7234 0.34691 0.52637 0.0
H254 H 0.73845 0.38342 0.5155 0.0
H255 H 0.66217 0.35019 0.44819 0.0
H256 H 0.70006 0.35906 0.43194 0.0
H257 H 0.73793 0.36816 0.44952 0.0
H258 H 0.73818 0.36853 0.48346 0.0
C259 C 0.72213 0.36496 0.51683 0.0
C260 C 0.69922 0.35966 0.50639 0.0
C261 C 0.69939 0.35947 0.48655 0.0
C262 C 0.67749 0.35398 0.47641 0.0
C263 C 0.67822 0.35404 0.4566 0.0
C264 C 0.69985 0.35913 0.44708 0.0
C265 C 0.72118 0.36427 0.45698 0.0
C266 C 0.72107 0.36445 0.47647 0.0
H267 H 0.63433 0.37697 0.48228 0.0
C268 C 0.62453 0.35953 0.47456 0.0
H269 H 0.62364 0.326 0.46724 0.0
H270 H 0.6932 0.36075 0.5443 0.0
H271 H 0.65502 0.3508 0.56056 0.0
H272 H 0.61642 0.33904 0.54302 0.0
H273 H 0.61586 0.33752 0.50911 0.0
C274 C 0.63271 0.34314 0.47536 0.0
C275 C 0.65548 0.34875 0.48613 0.0
C276 C 0.65525 0.3488 0.50598 0.0
C277 C 0.67727 0.35467 0.51612 0.0
C278 C 0.67681 0.35562 0.53591 0.0
C279 C 0.65505 0.35008 0.54543 0.0
C280 C 0.63334 0.34354 0.53555 0.0
C281 C 0.63331 0.34286 0.51607 0.0
H282 H 0.292 0.61241 0.80851 0.0
C283 C 0.27546 0.61418 0.80956 0.0
H284 H 0.25946 0.63396 0.82177 0.0
H285 H 0.33444 0.67499 0.88982 0.0
H286 H 0.29654 0.64445 0.90532 0.0
H287 H 0.25926 0.61587 0.88703 0.0
H288 H 0.25963 0.61775 0.85313 0.0
C289 C 0.27606 0.63244 0.8201 0.0
C290 C 0.29868 0.64979 0.83097 0.0
C291 C 0.29819 0.64836 0.85078 0.0
C292 C 0.31978 0.66462 0.86131 0.0
C293 C 0.31868 0.66293 0.8811 0.0
C294 C 0.29702 0.6455 0.89019 0.0
C295 C 0.27603 0.62943 0.8799 0.0
C296 C 0.27649 0.63074 0.86043 0.0
H297 H 0.36285 0.73171 0.85607 0.0
C298 C 0.37233 0.724 0.8641 0.0
H299 H 0.37297 0.69129 0.87163 0.0
H300 H 0.3052 0.65925 0.7933 0.0
H301 H 0.34349 0.68879 0.77773 0.0
H302 H 0.38174 0.715 0.79587 0.0
H303 H 0.38178 0.71214 0.8297 0.0
C304 C 0.3642 0.69941 0.86322 0.0
C305 C 0.34183 0.68228 0.85202 0.0
C306 C 0.34242 0.68354 0.83219 0.0
C307 C 0.32066 0.66764 0.82167 0.0
C308 C 0.32141 0.67019 0.80194 0.0
C309 C 0.34324 0.68719 0.79282 0.0
C310 C 0.36475 0.70201 0.80304 0.0
C311 C 0.36446 0.70028 0.82248 0.0
H312 H 0.48425 0.93466 0.06564 0.0
C313 C 0.46734 0.92766 0.05735 0.0
H314 H 0.44757 0.93694 0.03781 0.0
H315 H 0.5236 0.04252 0.08283 0.0
H316 H 0.49669 0.02265 0.10937 0.0
H317 H 0.46188 0.97929 0.10729 0.0
H318 H 0.45438 0.95537 0.0788 0.0
C319 C 0.46402 0.94357 0.04656 0.0
C320 C 0.48243 0.97079 0.04673 0.0
C321 C 0.4854 0.98508 0.06306 0.0
C322 C 0.50433 0.01061 0.0638 0.0
C323 C 0.50851 0.02362 0.08096 0.0
C324 C 0.49334 0.01233 0.09644 0.0
C325 C 0.47384 0.98789 0.09531 0.0
C326 C 0.46985 0.97432 0.07888 0.0
H327 H 0.51418 0.06278 0.05355 0.0
C328 C 0.53343 0.06747 0.0516 0.0
H329 H 0.55781 0.05369 0.04599 0.0
H330 H 0.48173 0.94867 0.01345 0.0
H331 H 0.5073 0.96908 0.98619 0.0
H332 H 0.5374 0.01427 0.98639 0.0
H333 H 0.54294 0.03922 0.01411 0.0
C334 C 0.53867 0.04921 0.04821 0.0
C335 C 0.51889 0.02239 0.04764 0.0
C336 C 0.51532 0.00827 0.03112 0.0
C337 C 0.49733 0.98235 0.03077 0.0
C338 C 0.49492 0.96847 0.01438 0.0
C339 C 0.50946 0.97994 0.99864 0.0
C340 C 0.52645 0.00539 0.99877 0.0
C341 C 0.52944 0.01949 0.01477 0.0
H342 H 0.48509 0.43708 0.36723 0.0
C343 C 0.49926 0.44292 0.37804 0.0
H344 H 0.52055 0.47036 0.39822 0.0
H345 H 0.50685 0.55676 0.36517 0.0
H346 H 0.5487 0.56985 0.35438 0.0
H347 H 0.56614 0.54184 0.35717 0.0
H348 H 0.54181 0.50054 0.37078 0.0
C349 C 0.50587 0.4639 0.38778 0.0
C350 C 0.49428 0.47956 0.3843 0.0
C351 C 0.50874 0.50364 0.37634 0.0
C352 C 0.49863 0.51973 0.37463 0.0
C353 C 0.51356 0.54374 0.36674 0.0
C354 C 0.53762 0.55149 0.36049 0.0
C355 C 0.54744 0.53573 0.36208 0.0
C356 C 0.53331 0.51211 0.36997 0.0
H357 H 0.464 0.5289 0.41181 0.0
C358 C 0.46138 0.53723 0.39924 0.0
H359 H 0.46352 0.5387 0.36969 0.0
H360 H 0.46124 0.43446 0.4002 0.0
H361 H 0.41838 0.42029 0.40858 0.0
H362 H 0.40017 0.44734 0.40373 0.0
H363 H 0.42498 0.48897 0.39076 0.0
C364 C 0.46531 0.53012 0.38241 0.0
C365 C 0.47421 0.51181 0.38112 0.0
C366 C 0.45913 0.48708 0.3878 0.0
C367 C 0.46932 0.4711 0.38979 0.0
C368 C 0.45428 0.4471 0.3977 0.0
C369 C 0.42964 0.43875 0.40268 0.0
C370 C 0.41941 0.45401 0.40002 0.0
C371 C 0.4339 0.47791 0.39269 0.0
H372 H 0.9303 0.48695 0.68993 0.0
C373 C 0.92232 0.4759 0.7025 0.0
H374 H 0.92941 0.46296 0.72779 0.0
H375 H 0.0354 0.4926 0.68639 0.0
H376 H 0.01089 0.4595 0.66415 0.0
H377 H 0.965 0.43808 0.66459 0.0
H378 H 0.94328 0.45008 0.68685 0.0
C379 C 0.93714 0.47325 0.71488 0.0
C380 C 0.96471 0.48719 0.71311 0.0
C381 C 0.97697 0.47961 0.70017 0.0
C382 C 0.00343 0.49149 0.70024 0.0
C383 C 0.01533 0.4839 0.68706 0.0
C384 C 0.0015 0.46497 0.67424 0.0
C385 C 0.97564 0.45294 0.67447 0.0
C386 C 0.9634 0.46002 0.6873 0.0
H387 H 0.03717 0.50016 0.74263 0.0
C388 C 0.05124 0.51188 0.73246 0.0
H389 H 0.05765 0.52961 0.70601 0.0
H390 H 0.94717 0.50849 0.73793 0.0
H391 H 0.97196 0.54337 0.75863 0.0
H392 H 0.01782 0.56388 0.75863 0.0
H393 H 0.03914 0.54952 0.73796 0.0
C394 C 0.04416 0.51852 0.71671 0.0
C395 C 0.01737 0.51017 0.71368 0.0
C396 C 0.00524 0.51911 0.72552 0.0
C397 C 0.97886 0.50749 0.72535 0.0
C398 C 0.96719 0.51656 0.73754 0.0
C399 C 0.98119 0.53663 0.74945 0.0
C400 C 0.00701 0.54816 0.74947 0.0
C401 C 0.019 0.53962 0.73764 0.0
H402 H 0.08056 0.53815 0.62952 0.0
C403 C 0.0815 0.55606 0.62785 0.0
H404 H 0.06119 0.57506 0.62676 0.0
H405 H 0.97544 0.45839 0.60549 0.0
H406 H 0.002 0.46148 0.57953 0.0
H407 H 0.04339 0.4989 0.5755 0.0
H408 H 0.05877 0.53285 0.59769 0.0
C409 C 0.0604 0.55717 0.62809 0.0
C410 C 0.03531 0.53449 0.63003 0.0
C411 C 0.02609 0.51554 0.6161 0.0
C412 C 0.00148 0.49487 0.61756 0.0
C413 C 0.99343 0.47518 0.60441 0.0
C414 C 0.00855 0.47662 0.58953 0.0
C415 C 0.03189 0.49761 0.58732 0.0
C416 C 0.04062 0.51692 0.60035 0.0
H417 H 0.95229 0.48778 0.60558 0.0
C418 C 0.94403 0.47421 0.61683 0.0
H419 H 0.95031 0.46225 0.64294 0.0
H420 H 0.04799 0.56564 0.66027 0.0
H421 H 0.02053 0.5632 0.68543 0.0
H422 H 0.97643 0.52999 0.68582 0.0
H423 H 0.95977 0.49825 0.66159 0.0
C424 C 0.95832 0.47519 0.63132 0.0
C425 C 0.98533 0.49434 0.63183 0.0
C426 C 0.99464 0.51293 0.64592 0.0
C427 C 0.0198 0.53273 0.64523 0.0
C428 C 0.02884 0.5506 0.65984 0.0
C429 C 0.01331 0.54941 0.67436 0.0
C430 C 0.98848 0.53067 0.67461 0.0
C431 C 0.97916 0.51257 0.66061 0.0
H432 H 0.48607 0.93784 0.95936 0.0
C433 C 0.46957 0.9282 0.95061 0.0
H434 H 0.44449 0.93209 0.93286 0.0
H435 H 0.49235 0.04053 0.97643 0.0
H436 H 0.46739 0.01639 0.00299 0.0
H437 H 0.44463 0.97034 0.00217 0.0
H438 H 0.44715 0.94808 0.975 0.0
C439 C 0.46032 0.94127 0.94226 0.0
C440 C 0.47383 0.96897 0.94304 0.0
C441 C 0.47204 0.98161 0.95899 0.0
C442 C 0.48471 0.00816 0.9593 0.0
C443 C 0.48282 0.02038 0.97542 0.0
C444 C 0.46855 0.00676 0.99072 0.0
C445 C 0.45573 0.98082 0.99026 0.0
C446 C 0.4574 0.96828 0.97462 0.0
H447 H 0.48097 0.04701 0.92538 0.0
C448 C 0.49837 0.05935 0.93252 0.0
H449 H 0.52646 0.06125 0.95049 0.0
H450 H 0.48182 0.95049 0.91057 0.0
H451 H 0.50722 0.97465 0.88431 0.0
H452 H 0.52934 0.02069 0.88495 0.0
H453 H 0.52612 0.04283 0.91183 0.0
C454 C 0.50938 0.04944 0.94283 0.0
C455 C 0.49857 0.02191 0.94349 0.0
C456 C 0.50094 0.00928 0.92777 0.0
C457 C 0.48842 0.98278 0.9275 0.0
C458 C 0.49093 0.97062 0.91154 0.0
C459 C 0.50549 0.98426 0.89637 0.0
C460 C 0.51792 0.01017 0.89672 0.0
C461 C 0.51579 0.02264 0.91221 0.0
H462 H 0.47981 0.53372 0.2669 0.0
C463 C 0.46112 0.51923 0.27073 0.0
H464 H 0.43883 0.48232 0.28066 0.0
H465 H 0.54012 0.48588 0.245 0.0
H466 H 0.52569 0.49218 0.21509 0.0
H467 H 0.48852 0.49685 0.21309 0.0
H468 H 0.46596 0.49584 0.24103 0.0
C469 C 0.45726 0.49684 0.27636 0.0
C470 C 0.47806 0.49136 0.27725 0.0
C471 C 0.49027 0.49075 0.26063 0.0
C472 C 0.51085 0.48664 0.26166 0.0
C473 C 0.52371 0.48777 0.24498 0.0
C474 C 0.51573 0.49155 0.2277 0.0
C475 C 0.49487 0.49428 0.22658 0.0
C476 C 0.4822 0.49387 0.24278 0.0
H477 H 0.51954 0.44182 0.26643 0.0
C478 C 0.53691 0.45528 0.27308 0.0
H479 H 0.55608 0.48974 0.28742 0.0
H480 H 0.45849 0.49085 0.31171 0.0
H481 H 0.47135 0.48191 0.34145 0.0
H482 H 0.50553 0.47241 0.34291 0.0
H483 H 0.52741 0.4724 0.31488 0.0
C484 C 0.53911 0.47635 0.28029 0.0
C485 C 0.51824 0.48168 0.27919 0.0
C486 C 0.50566 0.4817 0.29574 0.0
C487 C 0.48562 0.48665 0.29479 0.0
C488 C 0.47362 0.48688 0.31159 0.0
C489 C 0.48084 0.48184 0.32876 0.0
C490 C 0.50011 0.47656 0.32961 0.0
C491 C 0.51251 0.47657 0.31338 0.0
H492 H 0.57841 0.17925 0.94939 0.0
C493 C 0.57239 0.193 0.94881 0.0
H494 H 0.56821 0.22021 0.96335 0.0
H495 H 0.59748 0.15559 0.02485 0.0
H496 H 0.56115 0.11813 0.01359 0.0
H497 H 0.53484 0.12039 0.98862 0.0
H498 H 0.54536 0.15997 0.97431 0.0
C499 C 0.57439 0.2066 0.96404 0.0
C500 C 0.58708 0.20539 0.98144 0.0
C501 C 0.57922 0.18236 0.9908 0.0
C502 C 0.59297 0.18136 0.00639 0.0
C503 C 0.58658 0.15771 0.01396 0.0
C504 C 0.56591 0.13599 0.00748 0.0
C505 C 0.55121 0.13724 0.99335 0.0
C506 C 0.55765 0.16009 0.98509 0.0
H507 H 0.59237 0.18456 0.04745 0.0
C508 C 0.61259 0.19394 0.04758 0.0
H509 H 0.64562 0.21273 0.03188 0.0
H510 H 0.60798 0.25257 0.96647 0.0
H511 H 0.64199 0.29037 0.97946 0.0
H512 H 0.66252 0.28934 0.00873 0.0
H513 H 0.64949 0.25043 0.02495 0.0
C514 C 0.6254 0.20353 0.03169 0.0
C515 C 0.61275 0.20379 0.01399 0.0
C516 C 0.6201 0.22691 0.00499 0.0
C517 C 0.60761 0.22764 0.9885 0.0
C518 C 0.61618 0.25088 0.97935 0.0
C519 C 0.63581 0.2728 0.98661 0.0
C520 C 0.6474 0.27221 0.00306 0.0
C521 C 0.63974 0.24964 0.0122 0.0
H522 H 0.40216 0.57366 0.28141 0.0
C523 C 0.38559 0.57468 0.2781 0.0
H524 H 0.35924 0.58403 0.28804 0.0
H525 H 0.40958 0.57058 0.36658 0.0
H526 H 0.39175 0.52711 0.35772 0.0
H527 H 0.37082 0.51205 0.32724 0.0
H528 H 0.36784 0.5404 0.30538 0.0
C529 C 0.37544 0.58232 0.29127 0.0
C530 C 0.38722 0.59084 0.30999 0.0
C531 C 0.38834 0.57382 0.32275 0.0
C532 C 0.3999 0.58237 0.34051 0.0
C533 C 0.40095 0.56508 0.35294 0.0
C534 C 0.39074 0.54005 0.34805 0.0
C535 C 0.379 0.53159 0.33088 0.0
C536 C 0.37762 0.54814 0.31838 0.0
H537 H 0.39178 0.62254 0.3736 0.0
C538 C 0.40866 0.62239 0.37751 0.0
H539 H 0.43774 0.61677 0.36797 0.0
H540 H 0.38849 0.62838 0.28877 0.0
H541 H 0.4067 0.67188 0.2976 0.0
H542 H 0.42704 0.68669 0.3283 0.0
H543 H 0.42917 0.65806 0.35037 0.0
C544 C 0.42035 0.61609 0.36469 0.0
C545 C 0.40966 0.60769 0.34567 0.0
C546 C 0.40882 0.62476 0.33285 0.0
C547 C 0.39739 0.61628 0.31506 0.0
C548 C 0.39683 0.63374 0.30252 0.0
C549 C 0.40729 0.65881 0.30737 0.0
C550 C 0.41872 0.66714 0.32466 0.0
C551 C 0.41964 0.65044 0.33727 0.0
H552 H 0.77422 0.41393 0.70385 0.0
C553 C 0.78909 0.41416 0.71208 0.0
H554 H 0.81846 0.4062 0.71209 0.0
H555 H 0.78155 0.34143 0.6382 0.0
H556 H 0.77149 0.30935 0.66158 0.0
H557 H 0.77557 0.31949 0.69524 0.0
H558 H 0.7899 0.36183 0.70572 0.0
C559 C 0.80507 0.40851 0.70382 0.0
C560 C 0.80314 0.40265 0.68351 0.0
C561 C 0.79461 0.3778 0.67763 0.0
C562 C 0.79193 0.3719 0.65823 0.0
C563 C 0.78364 0.34694 0.65275 0.0
C564 C 0.77784 0.32833 0.66603 0.0
C565 C 0.78016 0.33404 0.68498 0.0
C566 C 0.78843 0.35843 0.6908 0.0
H567 H 0.83324 0.4061 0.61871 0.0
C568 C 0.81484 0.39328 0.61316 0.0
H569 H 0.77654 0.37106 0.61933 0.0
H570 H 0.82292 0.4527 0.69002 0.0
H571 H 0.83191 0.48467 0.66676 0.0
H572 H 0.82424 0.47396 0.63325 0.0
H573 H 0.80804 0.43134 0.62277 0.0
C574 C 0.79496 0.38445 0.62451 0.0
C575 C 0.79773 0.39088 0.64476 0.0
C576 C 0.80617 0.41576 0.65067 0.0
C577 C 0.80945 0.42175 0.67005 0.0
C578 C 0.81919 0.44695 0.67553 0.0
C579 C 0.82457 0.46553 0.66232 0.0
C580 C 0.82034 0.45951 0.64345 0.0
C581 C 0.8112 0.43496 0.63761 0.0
H582 H 0.40504 0.81338 0.0521 0.0
C583 C 0.38492 0.80246 0.05357 0.0
H584 H 0.35051 0.7806 0.04004 0.0
H585 H 0.44124 0.83742 0.97505 0.0
H586 H 0.44996 0.87671 0.98899 0.0
H587 H 0.42593 0.87759 0.01607 0.0
H588 H 0.39399 0.83913 0.03016 0.0
C589 C 0.37063 0.79145 0.0385 0.0
C590 C 0.38166 0.79148 0.01993 0.0
C591 C 0.39876 0.81421 0.01098 0.0
C592 C 0.41092 0.81376 0.99422 0.0
C593 C 0.43006 0.83666 0.98689 0.0
C594 C 0.43546 0.85937 0.99487 0.0
C595 C 0.42207 0.85986 0.01024 0.0
C596 C 0.40394 0.83762 0.01829 0.0
H597 H 0.40478 0.81357 0.95298 0.0
C598 C 0.41274 0.80147 0.95169 0.0
H599 H 0.4228 0.77776 0.96546 0.0
H600 H 0.35018 0.74435 0.03347 0.0
H601 H 0.33865 0.70528 0.01802 0.0
H602 H 0.356 0.70463 0.98713 0.0
H603 H 0.38536 0.74302 0.97171 0.0
C604 C 0.41474 0.78975 0.96685 0.0
C605 C 0.40393 0.79064 0.9853 0.0
C606 C 0.38607 0.76795 0.99386 0.0
C607 C 0.37533 0.76835 0.01135 0.0
C608 C 0.35843 0.74532 0.01995 0.0
C609 C 0.35167 0.72266 0.01126 0.0
C610 C 0.36148 0.72229 0.9939 0.0
C611 C 0.37845 0.74456 0.98524 0.0
H612 H 0.56527 0.39767 0.37908 0.0
C613 C 0.57104 0.38479 0.38419 0.0
H614 H 0.58884 0.36428 0.37738 0.0
H615 H 0.57081 0.36738 0.29029 0.0
H616 H 0.53892 0.32489 0.29745 0.0
H617 H 0.5298 0.31019 0.33014 0.0
H618 H 0.5524 0.33798 0.35586 0.0
C619 C 0.58363 0.37778 0.37277 0.0
C620 C 0.58932 0.38683 0.35312 0.0
C621 C 0.57631 0.37021 0.33825 0.0
C622 C 0.58189 0.37855 0.3194 0.0
C623 C 0.56789 0.36182 0.30484 0.0
C624 C 0.54939 0.33743 0.30876 0.0
C625 C 0.54423 0.32916 0.32716 0.0
C626 C 0.55739 0.34529 0.34179 0.0
H627 H 0.62369 0.38869 0.29146 0.0
C628 C 0.61969 0.4024 0.28535 0.0
H629 H 0.60617 0.42706 0.29066 0.0
H630 H 0.61835 0.42328 0.37836 0.0
H631 H 0.64995 0.46585 0.37122 0.0
H632 H 0.65947 0.48039 0.33853 0.0
H633 H 0.63751 0.45241 0.31279 0.0
C634 C 0.6082 0.41168 0.29578 0.0
C635 C 0.60091 0.40334 0.31546 0.0
C636 C 0.61357 0.42012 0.33036 0.0
C637 C 0.6079 0.41181 0.34922 0.0
C638 C 0.62149 0.42871 0.3638 0.0
C639 C 0.6398 0.45319 0.35989 0.0
C640 C 0.64517 0.46137 0.34149 0.0
C641 C 0.63237 0.4451 0.32684 0.0
H642 H 0.16986 0.57583 0.7162 0.0
C643 C 0.18789 0.57992 0.72162 0.0
H644 H 0.22655 0.59759 0.7163 0.0
H645 H 0.17358 0.58391 0.6322 0.0
H646 H 0.15503 0.53935 0.63731 0.0
H647 H 0.16077 0.52308 0.6673 0.0
H648 H 0.18477 0.55125 0.6924 0.0
C649 C 0.20826 0.59275 0.71096 0.0
C650 C 0.20661 0.60233 0.69223 0.0
C651 C 0.19305 0.58554 0.67753 0.0
C652 C 0.19027 0.59491 0.66008 0.0
C653 C 0.17631 0.57778 0.64572 0.0
C654 C 0.16563 0.55216 0.64844 0.0
C655 C 0.16882 0.54301 0.66534 0.0
C656 C 0.18247 0.5594 0.67971 0.0
H657 H 0.23507 0.6413 0.62988 0.0
C658 C 0.21724 0.63952 0.62618 0.0
H659 H 0.1813 0.62979 0.63589 0.0
H660 H 0.23452 0.63963 0.71723 0.0
H661 H 0.25369 0.68417 0.71178 0.0
H662 H 0.24912 0.70035 0.68137 0.0
H663 H 0.22534 0.67205 0.65622 0.0
C664 C 0.19882 0.63057 0.63884 0.0
C665 C 0.20166 0.621 0.65717 0.0
C666 C 0.21568 0.6378 0.67169 0.0
C667 C 0.21824 0.62846 0.68923 0.0
C668 C 0.23209 0.64567 0.70358 0.0
C669 C 0.24315 0.6713 0.70066 0.0
C670 C 0.24059 0.68041 0.68353 0.0
C671 C 0.22697 0.66396 0.66919 0.0
loop_
_geom_bond_atom_site_label_1
_geom_bond_atom_site_label_2
_geom_bond_distance
_geom_bond_site_symmetry_2
_ccdc_geom_bond_type
O0 Cd1 2.300 . S
O0 C7 1.275 . S
Cd1 O0 2.300 . S
Cd1 O9 2.381 . S
Cd1 O10 2.378 . S
O2 Cd3 2.385 . S
O2 C7 1.255 . S
Cd3 O2 2.385 . S
Cd3 O4 2.317 . S
O4 Cd3 2.317 . S
O4 C5 1.232 . S
C5 O4 1.232 . S
C5 O6 1.218 . S
O6 C5 1.218 . S
C7 O0 1.275 . S
C7 O2 1.255 . S
C8 O9 1.258 . S
C8 O10 1.256 . S
O9 Cd1 2.381 . S
O9 C8 1.258 . S
O10 Cd1 2.378 . S
O10 C8 1.256 . S
O11 Cd12 2.300 . S
O11 C18 1.275 . S
Cd12 O11 2.300 . S
Cd12 O20 2.381 . S
Cd12 O21 2.378 . S
O13 Cd14 2.385 . S
O13 C18 1.255 . S
Cd14 O13 2.385 . S
Cd14 O15 2.317 . S
O15 Cd14 2.317 . S
O15 C16 1.232 . S
C16 O15 1.232 . S
C16 O17 1.218 . S
O17 C16 1.218 . S
C18 O11 1.275 . S
C18 O13 1.255 . S
C19 O20 1.258 . S
C19 O21 1.256 . S
O20 Cd12 2.381 . S
O20 C19 1.258 . S
O21 Cd12 2.378 . S
O21 C19 1.256 . S
O22 Cd23 2.300 . S
O22 C29 1.275 . S
Cd23 O22 2.300 . S
Cd23 O31 2.381 . S
Cd23 O32 2.378 . S
O24 Cd25 2.385 . S
O24 C29 1.255 . S
Cd25 O24 2.385 . S
Cd25 O26 2.317 . S
O26 Cd25 2.317 . S
O26 C27 1.232 . S
C27 O26 1.232 . S
C27 O28 1.218 . S
O28 C27 1.218 . S
C29 O22 1.275 . S
C29 O24 1.255 . S
C30 O31 1.258 . S
C30 O32 1.256 . S
O31 Cd23 2.381 . S
O31 C30 1.258 . S
O32 Cd23 2.378 . S
O32 C30 1.256 . S
O33 Cd34 2.300 . S
O33 C40 1.275 . S
Cd34 O33 2.300 . S
Cd34 O42 2.381 . S
Cd34 O43 2.378 . S
O35 Cd36 2.385 . S
O35 C40 1.255 . S
Cd36 O35 2.385 . S
Cd36 O37 2.317 . S
O37 Cd36 2.317 . S
O37 C38 1.232 . S
C38 O37 1.232 . S
C38 O39 1.218 . S
O39 C38 1.218 . S
C40 O33 1.275 . S
C40 O35 1.255 . S
C41 O42 1.258 . S
C41 O43 1.256 . S
O42 Cd34 2.381 . S
O42 C41 1.258 . S
O43 Cd34 2.378 . S
O43 C41 1.256 . S
O44 Cd45 2.300 . S
O44 C51 1.275 . S
Cd45 O44 2.300 . S
Cd45 O53 2.381 . S
Cd45 O54 2.378 . S
O46 Cd47 2.385 . S
O46 C51 1.255 . S
Cd47 O46 2.385 . S
Cd47 O48 2.317 . S
O48 Cd47 2.317 . S
O48 C49 1.232 . S
C49 O48 1.232 . S
C49 O50 1.218 . S
O50 C49 1.218 . S
C51 O44 1.275 . S
C51 O46 1.255 . S
C52 O53 1.258 . S
C52 O54 1.256 . S
O53 Cd45 2.381 . S
O53 C52 1.258 . S
O54 Cd45 2.378 . S
O54 C52 1.256 . S
O55 Cd56 2.300 . S
O55 C62 1.275 . S
Cd56 O55 2.300 . S
Cd56 O64 2.381 . S
Cd56 O65 2.378 . S
O57 Cd58 2.385 . S
O57 C62 1.255 . S
Cd58 O57 2.385 . S
Cd58 O59 2.317 . S
O59 Cd58 2.317 . S
O59 C60 1.232 . S
C60 O59 1.232 . S
C60 O61 1.218 . S
O61 C60 1.218 . S
C62 O55 1.275 . S
C62 O57 1.255 . S
C63 O64 1.258 . S
C63 O65 1.256 . S
O64 Cd56 2.381 . S
O64 C63 1.258 . S
O65 Cd56 2.378 . S
O65 C63 1.256 . S
O66 Cd67 2.300 . S
O66 C73 1.275 . S
Cd67 O66 2.300 . S
Cd67 O75 2.381 . S
Cd67 O76 2.378 . S
O68 Cd69 2.385 . S
O68 C73 1.255 . S
Cd69 O68 2.385 . S
Cd69 O70 2.317 . S
O70 Cd69 2.317 . S
O70 C71 1.232 . S
C71 O70 1.232 . S
C71 O72 1.218 . S
O72 C71 1.218 . S
C73 O66 1.275 . S
C73 O68 1.255 . S
C74 O75 1.258 . S
C74 O76 1.256 . S
O75 Cd67 2.381 . S
O75 C74 1.258 . S
O76 Cd67 2.378 . S
O76 C74 1.256 . S
O77 Cd78 2.300 . S
O77 C84 1.275 . S
Cd78 O77 2.300 . S
Cd78 O86 2.381 . S
Cd78 O87 2.378 . S
O79 Cd80 2.385 . S
O79 C84 1.255 . S
Cd80 O79 2.385 . S
Cd80 O81 2.317 . S
O81 Cd80 2.317 . S
O81 C82 1.232 . S
C82 O81 1.232 . S
C82 O83 1.218 . S
O83 C82 1.218 . S
C84 O77 1.275 . S
C84 O79 1.255 . S
C85 O86 1.258 . S
C85 O87 1.256 . S
O86 Cd78 2.381 . S
O86 C85 1.258 . S
O87 Cd78 2.378 . S
O87 C85 1.256 . S
O88 Cd89 2.300 . S
O88 C95 1.275 . S
Cd89 O88 2.300 . S
Cd89 O97 2.381 . S
Cd89 O98 2.378 . S
O90 Cd91 2.385 . S
O90 C95 1.255 . S
Cd91 O90 2.385 . S
Cd91 O92 2.317 . S
O92 Cd91 2.317 . S
O92 C93 1.232 . S
C93 O92 1.232 . S
C93 O94 1.218 . S
O94 C93 1.218 . S
C95 O88 1.275 . S
C95 O90 1.255 . S
C96 O97 1.258 . S
C96 O98 1.256 . S
O97 Cd89 2.381 . S
O97 C96 1.258 . S
O98 Cd89 2.378 . S
O98 C96 1.256 . S
O99 Cd100 2.300 . S
O99 C106 1.275 . S
Cd100 O99 2.300 . S
Cd100 O108 2.381 . S
Cd100 O109 2.378 . S
O101 Cd102 2.385 . S
O101 C106 1.255 . S
Cd102 O101 2.385 . S
Cd102 O103 2.317 . S
O103 Cd102 2.317 . S
O103 C104 1.232 . S
C104 O103 1.232 . S
C104 O105 1.218 . S
O105 C104 1.218 . S
C106 O99 1.275 . S
C106 O101 1.255 . S
C107 O108 1.258 . S
C107 O109 1.256 . S
O108 Cd100 2.381 . S
O108 C107 1.258 . S
O109 Cd100 2.378 . S
O109 C107 1.256 . S
O110 Cd111 2.300 . S
O110 C117 1.275 . S
Cd111 O110 2.300 . S
Cd111 O119 2.381 . S
Cd111 O120 2.378 . S
O112 Cd113 2.385 . S
O112 C117 1.255 . S
Cd113 O112 2.385 . S
Cd113 O114 2.317 . S
O114 Cd113 2.317 . S
O114 C115 1.232 . S
C115 O114 1.232 . S
C115 O116 1.218 . S
O116 C115 1.218 . S
C117 O110 1.275 . S
C117 O112 1.255 . S
C118 O119 1.258 . S
C118 O120 1.256 . S
O119 Cd111 2.381 . S
O119 C118 1.258 . S
O120 Cd111 2.378 . S
O120 C118 1.256 . S
O121 Cd122 2.300 . S
O121 C128 1.275 . S
Cd122 O121 2.300 . S
Cd122 O130 2.381 . S
Cd122 O131 2.378 . S
O123 Cd124 2.385 . S
O123 C128 1.255 . S
Cd124 O123 2.385 . S
Cd124 O125 2.317 . S
O125 Cd124 2.317 . S
O125 C126 1.232 . S
C126 O125 1.232 . S
C126 O127 1.218 . S
O127 C126 1.218 . S
C128 O121 1.275 . S
C128 O123 1.255 . S
C129 O130 1.258 . S
C129 O131 1.256 . S
O130 Cd122 2.381 . S
O130 C129 1.258 . S
O131 Cd122 2.378 . S
O131 C129 1.256 . S
H132 C133 0.951 . S
C133 H132 0.951 . S
C133 C139 1.265 . S
H134 C139 0.950 . S
H135 C143 0.949 . S
H136 C144 0.950 . S
H137 C145 0.951 . S
H138 C146 0.951 . S
C139 C133 1.265 . S
C139 H134 0.950 . S
C139 C140 1.478 . S
C140 C139 1.478 . S
C140 C141 1.397 . S
C140 C157 1.394 . S
C141 C140 1.397 . S
C141 C142 1.438 . S
C141 C146 1.429 . S
C142 C141 1.438 . S
C142 C143 1.428 . S
C142 C155 1.394 . S
C143 H135 0.949 . S
C143 C142 1.428 . S
C143 C144 1.345 . S
C144 H136 0.950 . S
C144 C143 1.345 . S
C144 C145 1.424 . S
C145 H137 0.951 . S
C145 C144 1.424 . S
C145 C146 1.347 . S
C146 H138 0.951 . S
C146 C141 1.429 . S
C146 C145 1.347 . S
H147 C148 0.951 . S
C148 H147 0.951 . S
C148 C154 1.265 . S
H149 C154 0.950 . S
H150 C158 0.949 . S
H151 C159 0.950 . S
H152 C160 0.951 . S
H153 C161 0.951 . S
C154 C148 1.265 . S
C154 H149 0.950 . S
C154 C155 1.478 . S
C155 C142 1.394 . S
C155 C154 1.478 . S
C155 C156 1.397 . S
C156 C155 1.397 . S
C156 C157 1.438 . S
C156 C161 1.429 . S
C157 C140 1.394 . S
C157 C156 1.438 . S
C157 C158 1.428 . S
C158 H150 0.949 . S
C158 C157 1.428 . S
C158 C159 1.345 . S
C159 H151 0.950 . S
C159 C158 1.345 . S
C159 C160 1.424 . S
C160 H152 0.951 . S
C160 C159 1.424 . S
C160 C161 1.347 . S
C161 H153 0.951 . S
C161 C156 1.429 . S
C161 C160 1.347 . S
H162 C163 0.951 . S
C163 H162 0.951 . S
C163 C169 1.265 . S
H164 C169 0.950 . S
H165 C173 0.949 . S
H166 C174 0.950 . S
H167 C175 0.951 . S
H168 C176 0.951 . S
C169 C163 1.265 . S
C169 H164 0.950 . S
C169 C170 1.478 . S
C170 C169 1.478 . S
C170 C171 1.397 . S
C170 C187 1.394 . S
C171 C170 1.397 . S
C171 C172 1.438 . S
C171 C176 1.429 . S
C172 C171 1.438 . S
C172 C173 1.428 . S
C172 C185 1.394 . S
C173 H165 0.949 . S
C173 C172 1.428 . S
C173 C174 1.345 . S
C174 H166 0.950 . S
C174 C173 1.345 . S
C174 C175 1.424 . S
C175 H167 0.951 . S
C175 C174 1.424 . S
C175 C176 1.347 . S
C176 H168 0.951 . S
C176 C171 1.429 . S
C176 C175 1.347 . S
H177 C178 0.951 . S
C178 H177 0.951 . S
C178 C184 1.265 . S
H179 C184 0.950 . S
H180 C188 0.949 . S
H181 C189 0.950 . S
H182 C190 0.951 . S
H183 C191 0.951 . S
C184 C178 1.265 . S
C184 H179 0.950 . S
C184 C185 1.478 . S
C185 C172 1.394 . S
C185 C184 1.478 . S
C185 C186 1.397 . S
C186 C185 1.397 . S
C186 C187 1.438 . S
C186 C191 1.429 . S
C187 C170 1.394 . S
C187 C186 1.438 . S
C187 C188 1.428 . S
C188 H180 0.949 . S
C188 C187 1.428 . S
C188 C189 1.345 . S
C189 H181 0.950 . S
C189 C188 1.345 . S
C189 C190 1.424 . S
C190 H182 0.951 . S
C190 C189 1.424 . S
C190 C191 1.347 . S
C191 H183 0.951 . S
C191 C186 1.429 . S
C191 C190 1.347 . S
H192 C193 0.951 . S
C193 H192 0.951 . S
C193 C199 1.265 . S
H194 C199 0.950 . S
H195 C203 0.949 . S
H196 C204 0.950 . S
H197 C205 0.951 . S
H198 C206 0.951 . S
C199 C193 1.265 . S
C199 H194 0.950 . S
C199 C200 1.478 . S
C200 C199 1.478 . S
C200 C201 1.397 . S
C200 C217 1.394 . S
C201 C200 1.397 . S
C201 C202 1.438 . S
C201 C206 1.429 . S
C202 C201 1.438 . S
C202 C203 1.428 . S
C202 C215 1.394 . S
C203 H195 0.949 . S
C203 C202 1.428 . S
C203 C204 1.345 . S
C204 H196 0.950 . S
C204 C203 1.345 . S
C204 C205 1.424 . S
C205 H197 0.951 . S
C205 C204 1.424 . S
C205 C206 1.347 . S
C206 H198 0.951 . S
C206 C201 1.429 . S
C206 C205 1.347 . S
H207 C208 0.951 . S
C208 H207 0.951 . S
C208 C214 1.265 . S
H209 C214 0.950 . S
H210 C218 0.949 . S
H211 C219 0.950 . S
H212 C220 0.951 . S
H213 C221 0.951 . S
C214 C208 1.265 . S
C214 H209 0.950 . S
C214 C215 1.478 . S
C215 C202 1.394 . S
C215 C214 1.478 . S
C215 C216 1.397 . S
C216 C215 1.397 . S
C216 C217 1.438 . S
C216 C221 1.429 . S
C217 C200 1.394 . S
C217 C216 1.438 . S
C217 C218 1.428 . S
C218 H210 0.949 . S
C218 C217 1.428 . S
C218 C219 1.345 . S
C219 H211 0.950 . S
C219 C218 1.345 . S
C219 C220 1.424 . S
C220 H212 0.951 . S
C220 C219 1.424 . S
C220 C221 1.347 . S
C221 H213 0.951 . S
C221 C216 1.429 . S
C221 C220 1.347 . S
H222 C223 0.951 . S
C223 H222 0.951 . S
C223 C229 1.265 . S
H224 C229 0.950 . S
H225 C233 0.949 . S
H226 C234 0.950 . S
H227 C235 0.951 . S
H228 C236 0.951 . S
C229 C223 1.265 . S
C229 H224 0.950 . S
C229 C230 1.478 . S
C230 C229 1.478 . S
C230 C231 1.397 . S
C230 C247 1.394 . S
C231 C230 1.397 . S
C231 C232 1.438 . S
C231 C236 1.429 . S
C232 C231 1.438 . S
C232 C233 1.428 . S
C232 C245 1.394 . S
C233 H225 0.949 . S
C233 C232 1.428 . S
C233 C234 1.345 . S
C234 H226 0.950 . S
C234 C233 1.345 . S
C234 C235 1.424 . S
C235 H227 0.951 . S
C235 C234 1.424 . S
C235 C236 1.347 . S
C236 H228 0.951 . S
C236 C231 1.429 . S
C236 C235 1.347 . S
H237 C238 0.951 . S
C238 H237 0.951 . S
C238 C244 1.265 . S
H239 C244 0.950 . S
H240 C248 0.949 . S
H241 C249 0.950 . S
H242 C250 0.951 . S
H243 C251 0.951 . S
C244 C238 1.265 . S
C244 H239 0.950 . S
C244 C245 1.478 . S
C245 C232 1.394 . S
C245 C244 1.478 . S
C245 C246 1.397 . S
C246 C245 1.397 . S
C246 C247 1.438 . S
C246 C251 1.429 . S
C247 C230 1.394 . S
C247 C246 1.438 . S
C247 C248 1.428 . S
C248 H240 0.949 . S
C248 C247 1.428 . S
C248 C249 1.345 . S
C249 H241 0.950 . S
C249 C248 1.345 . S
C249 C250 1.424 . S
C250 H242 0.951 . S
C250 C249 1.424 . S
C250 C251 1.347 . S
C251 H243 0.951 . S
C251 C246 1.429 . S
C251 C250 1.347 . S
H252 C253 0.951 . S
C253 H252 0.951 . S
C253 C259 1.265 . S
H254 C259 0.950 . S
H255 C263 0.949 . S
H256 C264 0.950 . S
H257 C265 0.951 . S
H258 C266 0.951 . S
C259 C253 1.265 . S
C259 H254 0.950 . S
C259 C260 1.478 . S
C260 C259 1.478 . S
C260 C261 1.397 . S
C260 C277 1.394 . S
C261 C260 1.397 . S
C261 C262 1.438 . S
C261 C266 1.429 . S
C262 C261 1.438 . S
C262 C263 1.428 . S
C262 C275 1.394 . S
C263 H255 0.949 . S
C263 C262 1.428 . S
C263 C264 1.345 . S
C264 H256 0.950 . S
C264 C263 1.345 . S
C264 C265 1.424 . S
C265 H257 0.951 . S
C265 C264 1.424 . S
C265 C266 1.347 . S
C266 H258 0.951 . S
C266 C261 1.429 . S
C266 C265 1.347 . S
H267 C268 0.951 . S
C268 H267 0.951 . S
C268 C274 1.265 . S
H269 C274 0.950 . S
H270 C278 0.949 . S
H271 C279 0.950 . S
H272 C280 0.951 . S
H273 C281 0.951 . S
C274 C268 1.265 . S
C274 H269 0.950 . S
C274 C275 1.478 . S
C275 C262 1.394 . S
C275 C274 1.478 . S
C275 C276 1.397 . S
C276 C275 1.397 . S
C276 C277 1.438 . S
C276 C281 1.429 . S
C277 C260 1.394 . S
C277 C276 1.438 . S
C277 C278 1.428 . S
C278 H270 0.949 . S
C278 C277 1.428 . S
C278 C279 1.345 . S
C279 H271 0.950 . S
C279 C278 1.345 . S
C279 C280 1.424 . S
C280 H272 0.951 . S
C280 C279 1.424 . S
C280 C281 1.347 . S
C281 H273 0.951 . S
C281 C276 1.429 . S
C281 C280 1.347 . S
H282 C283 0.951 . S
C283 H282 0.951 . S
C283 C289 1.265 . S
H284 C289 0.950 . S
H285 C293 0.949 . S
H286 C294 0.950 . S
H287 C295 0.951 . S
H288 C296 0.951 . S
C289 C283 1.265 . S
C289 H284 0.950 . S
C289 C290 1.478 . S
C290 C289 1.478 . S
C290 C291 1.397 . S
C290 C307 1.394 . S
C291 C290 1.397 . S
C291 C292 1.438 . S
C291 C296 1.429 . S
C292 C291 1.438 . S
C292 C293 1.428 . S
C292 C305 1.394 . S
C293 H285 0.949 . S
C293 C292 1.428 . S
C293 C294 1.345 . S
C294 H286 0.950 . S
C294 C293 1.345 . S
C294 C295 1.424 . S
C295 H287 0.951 . S
C295 C294 1.424 . S
C295 C296 1.347 . S
C296 H288 0.951 . S
C296 C291 1.429 . S
C296 C295 1.347 . S
H297 C298 0.951 . S
C298 H297 0.951 . S
C298 C304 1.265 . S
H299 C304 0.950 . S
H300 C308 0.949 . S
H301 C309 0.950 . S
H302 C310 0.951 . S
H303 C311 0.951 . S
C304 C298 1.265 . S
C304 H299 0.950 . S
C304 C305 1.478 . S
C305 C292 1.394 . S
C305 C304 1.478 . S
C305 C306 1.397 . S
C306 C305 1.397 . S
C306 C307 1.438 . S
C306 C311 1.429 . S
C307 C290 1.394 . S
C307 C306 1.438 . S
C307 C308 1.428 . S
C308 H300 0.949 . S
C308 C307 1.428 . S
C308 C309 1.345 . S
C309 H301 0.950 . S
C309 C308 1.345 . S
C309 C310 1.424 . S
C310 H302 0.951 . S
C310 C309 1.424 . S
C310 C311 1.347 . S
C311 H303 0.951 . S
C311 C306 1.429 . S
C311 C310 1.347 . S
H312 C313 0.951 . S
C313 H312 0.951 . S
C313 C319 1.265 . S
H314 C319 0.950 . S
H315 C323 0.949 . S
H316 C324 0.950 . S
H317 C325 0.951 . S
H318 C326 0.951 . S
C319 C313 1.265 . S
C319 H314 0.950 . S
C319 C320 1.478 . S
C320 C319 1.478 . S
C320 C321 1.397 . S
C320 C337 1.394 . S
C321 C320 1.397 . S
C321 C322 1.438 1_565 S
C321 C326 1.429 . S
C322 C321 1.438 1_545 S
C322 C323 1.428 . S
C322 C335 1.394 . S
C323 H315 0.949 . S
C323 C322 1.428 . S
C323 C324 1.345 . S
C324 H316 0.950 . S
C324 C323 1.345 . S
C324 C325 1.424 1_545 S
C325 H317 0.951 . S
C325 C324 1.424 1_565 S
C325 C326 1.347 . S
C326 H318 0.951 . S
C326 C321 1.429 . S
C326 C325 1.347 . S
H327 C328 0.951 . S
C328 H327 0.951 . S
C328 C334 1.265 . S
H329 C334 0.950 . S
H330 C338 0.949 . S
H331 C339 0.950 . S
H332 C340 0.951 . S
H333 C341 0.951 . S
C334 C328 1.265 . S
C334 H329 0.950 . S
C334 C335 1.478 . S
C335 C322 1.394 . S
C335 C334 1.478 . S
C335 C336 1.397 . S
C336 C335 1.397 . S
C336 C337 1.438 1_545 S
C336 C341 1.429 . S
C337 C320 1.394 . S
C337 C336 1.438 1_565 S
C337 C338 1.428 . S
C338 H330 0.949 . S
C338 C337 1.428 . S
C338 C339 1.345 . S
C339 H331 0.950 . S
C339 C338 1.345 . S
C339 C340 1.424 1_565 S
C340 H332 0.951 . S
C340 C339 1.424 1_545 S
C340 C341 1.347 . S
C341 H333 0.951 . S
C341 C336 1.429 . S
C341 C340 1.347 . S
H342 C343 0.951 . S
C343 H342 0.951 . S
C343 C349 1.265 . S
H344 C349 0.950 . S
H345 C353 0.949 . S
H346 C354 0.950 . S
H347 C355 0.951 . S
H348 C356 0.951 . S
C349 C343 1.265 . S
C349 H344 0.950 . S
C349 C350 1.478 . S
C350 C349 1.478 . S
C350 C351 1.397 . S
C350 C367 1.394 . S
C351 C350 1.397 . S
C351 C352 1.438 . S
C351 C356 1.429 . S
C352 C351 1.438 . S
C352 C353 1.428 . S
C352 C365 1.394 . S
C353 H345 0.949 . S
C353 C352 1.428 . S
C353 C354 1.345 . S
C354 H346 0.950 . S
C354 C353 1.345 . S
C354 C355 1.424 . S
C355 H347 0.951 . S
C355 C354 1.424 . S
C355 C356 1.347 . S
C356 H348 0.951 . S
C356 C351 1.429 . S
C356 C355 1.347 . S
H357 C358 0.951 . S
C358 H357 0.951 . S
C358 C364 1.265 . S
H359 C364 0.950 . S
H360 C368 0.949 . S
H361 C369 0.950 . S
H362 C370 0.951 . S
H363 C371 0.951 . S
C364 C358 1.265 . S
C364 H359 0.950 . S
C364 C365 1.478 . S
C365 C352 1.394 . S
C365 C364 1.478 . S
C365 C366 1.397 . S
C366 C365 1.397 . S
C366 C367 1.438 . S
C366 C371 1.429 . S
C367 C350 1.394 . S
C367 C366 1.438 . S
C367 C368 1.428 . S
C368 H360 0.949 . S
C368 C367 1.428 . S
C368 C369 1.345 . S
C369 H361 0.950 . S
C369 C368 1.345 . S
C369 C370 1.424 . S
C370 H362 0.951 . S
C370 C369 1.424 . S
C370 C371 1.347 . S
C371 H363 0.951 . S
C371 C366 1.429 . S
C371 C370 1.347 . S
H372 C373 0.951 . S
C373 H372 0.951 . S
C373 C379 1.265 . S
H374 C379 0.950 . S
H375 C383 0.949 . S
H376 C384 0.950 . S
H377 C385 0.951 . S
H378 C386 0.951 . S
C379 C373 1.265 . S
C379 H374 0.950 . S
C379 C380 1.478 . S
C380 C379 1.478 . S
C380 C381 1.397 . S
C380 C397 1.394 . S
C381 C380 1.397 . S
C381 C382 1.438 1_655 S
C381 C386 1.429 . S
C382 C381 1.438 1_455 S
C382 C383 1.428 . S
C382 C395 1.394 . S
C383 H375 0.949 . S
C383 C382 1.428 . S
C383 C384 1.345 . S
C384 H376 0.950 . S
C384 C383 1.345 . S
C384 C385 1.424 1_455 S
C385 H377 0.951 . S
C385 C384 1.424 1_655 S
C385 C386 1.347 . S
C386 H378 0.951 . S
C386 C381 1.429 . S
C386 C385 1.347 . S
H387 C388 0.951 . S
C388 H387 0.951 . S
C388 C394 1.265 . S
H389 C394 0.950 . S
H390 C398 0.949 . S
H391 C399 0.950 . S
H392 C400 0.951 . S
H393 C401 0.951 . S
C394 C388 1.265 . S
C394 H389 0.950 . S
C394 C395 1.478 . S
C395 C382 1.394 . S
C395 C394 1.478 . S
C395 C396 1.397 . S
C396 C395 1.397 . S
C396 C397 1.438 1_455 S
C396 C401 1.429 . S
C397 C380 1.394 . S
C397 C396 1.438 1_655 S
C397 C398 1.428 . S
C398 H390 0.949 . S
C398 C397 1.428 . S
C398 C399 1.345 . S
C399 H391 0.950 . S
C399 C398 1.345 . S
C399 C400 1.424 1_655 S
C400 H392 0.951 . S
C400 C399 1.424 1_455 S
C400 C401 1.347 . S
C401 H393 0.951 . S
C401 C396 1.429 . S
C401 C400 1.347 . S
H402 C403 0.951 . S
C403 H402 0.951 . S
C403 C409 1.265 . S
H404 C409 0.950 . S
H405 C413 0.949 . S
H406 C414 0.950 . S
H407 C415 0.951 . S
H408 C416 0.951 . S
C409 C403 1.265 . S
C409 H404 0.950 . S
C409 C410 1.478 . S
C410 C409 1.478 . S
C410 C411 1.397 . S
C410 C427 1.394 . S
C411 C410 1.397 . S
C411 C412 1.438 1_455 S
C411 C416 1.429 . S
C412 C411 1.438 1_655 S
C412 C413 1.428 . S
C412 C425 1.394 . S
C413 H405 0.949 . S
C413 C412 1.428 . S
C413 C414 1.345 . S
C414 H406 0.950 . S
C414 C413 1.345 . S
C414 C415 1.424 1_655 S
C415 H407 0.951 . S
C415 C414 1.424 1_455 S
C415 C416 1.347 . S
C416 H408 0.951 . S
C416 C411 1.429 . S
C416 C415 1.347 . S
H417 C418 0.951 . S
C418 H417 0.951 . S
C418 C424 1.265 . S
H419 C424 0.950 . S
H420 C428 0.949 . S
H421 C429 0.950 . S
H422 C430 0.951 . S
H423 C431 0.951 . S
C424 C418 1.265 . S
C424 H419 0.950 . S
C424 C425 1.478 . S
C425 C412 1.394 . S
C425 C424 1.478 . S
C425 C426 1.397 . S
C426 C425 1.397 . S
C426 C427 1.438 1_655 S
C426 C431 1.429 . S
C427 C410 1.394 . S
C427 C426 1.438 1_455 S
C427 C428 1.428 . S
C428 H420 0.949 . S
C428 C427 1.428 . S
C428 C429 1.345 . S
C429 H421 0.950 . S
C429 C428 1.345 . S
C429 C430 1.424 1_455 S
C430 H422 0.951 . S
C430 C429 1.424 1_655 S
C430 C431 1.347 . S
C431 H423 0.951 . S
C431 C426 1.429 . S
C431 C430 1.347 . S
H432 C433 0.951 . S
C433 H432 0.951 . S
C433 C439 1.265 . S
H434 C439 0.950 . S
H435 C443 0.949 . S
H436 C444 0.950 . S
H437 C445 0.951 . S
H438 C446 0.951 . S
C439 C433 1.265 . S
C439 H434 0.950 . S
C439 C440 1.478 . S
C440 C439 1.478 . S
C440 C441 1.397 . S
C440 C457 1.394 . S
C441 C440 1.397 . S
C441 C442 1.438 1_565 S
C441 C446 1.429 . S
C442 C441 1.438 1_545 S
C442 C443 1.428 . S
C442 C455 1.394 . S
C443 H435 0.949 . S
C443 C442 1.428 . S
C443 C444 1.345 . S
C444 H436 0.950 . S
C444 C443 1.345 . S
C444 C445 1.424 1_545 S
C445 H437 0.951 . S
C445 C444 1.424 1_565 S
C445 C446 1.347 . S
C446 H438 0.951 . S
C446 C441 1.429 . S
C446 C445 1.347 . S
H447 C448 0.951 . S
C448 H447 0.951 . S
C448 C454 1.265 . S
H449 C454 0.950 . S
H450 C458 0.949 . S
H451 C459 0.950 . S
H452 C460 0.951 . S
H453 C461 0.951 . S
C454 C448 1.265 . S
C454 H449 0.950 . S
C454 C455 1.478 . S
C455 C442 1.394 . S
C455 C454 1.478 . S
C455 C456 1.397 . S
C456 C455 1.397 . S
C456 C457 1.438 1_545 S
C456 C461 1.429 . S
C457 C440 1.394 . S
C457 C456 1.438 1_565 S
C457 C458 1.428 . S
C458 H450 0.949 . S
C458 C457 1.428 . S
C458 C459 1.345 . S
C459 H451 0.950 . S
C459 C458 1.345 . S
C459 C460 1.424 1_565 S
C460 H452 0.951 . S
C460 C459 1.424 1_545 S
C460 C461 1.347 . S
C461 H453 0.951 . S
C461 C456 1.429 . S
C461 C460 1.347 . S
H462 C463 0.951 . S
C463 H462 0.951 . S
C463 C469 1.265 . S
H464 C469 0.950 . S
H465 C473 0.949 . S
H466 C474 0.950 . S
H467 C475 0.951 . S
H468 C476 0.951 . S
C469 C463 1.265 . S
C469 H464 0.950 . S
C469 C470 1.478 . S
C470 C469 1.478 . S
C470 C471 1.397 . S
C470 C487 1.394 . S
C471 C470 1.397 . S
C471 C472 1.438 . S
C471 C476 1.429 . S
C472 C471 1.438 . S
C472 C473 1.428 . S
C472 C485 1.394 . S
C473 H465 0.949 . S
C473 C472 1.428 . S
C473 C474 1.345 . S
C474 H466 0.950 . S
C474 C473 1.345 . S
C474 C475 1.424 . S
C475 H467 0.951 . S
C475 C474 1.424 . S
C475 C476 1.347 . S
C476 H468 0.951 . S
C476 C471 1.429 . S
C476 C475 1.347 . S
H477 C478 0.951 . S
C478 H477 0.951 . S
C478 C484 1.265 . S
H479 C484 0.950 . S
H480 C488 0.949 . S
H481 C489 0.950 . S
H482 C490 0.951 . S
H483 C491 0.951 . S
C484 C478 1.265 . S
C484 H479 0.950 . S
C484 C485 1.478 . S
C485 C472 1.394 . S
C485 C484 1.478 . S
C485 C486 1.397 . S
C486 C485 1.397 . S
C486 C487 1.438 . S
C486 C491 1.429 . S
C487 C470 1.394 . S
C487 C486 1.438 . S
C487 C488 1.428 . S
C488 H480 0.949 . S
C488 C487 1.428 . S
C488 C489 1.345 . S
C489 H481 0.950 . S
C489 C488 1.345 . S
C489 C490 1.424 . S
C490 H482 0.951 . S
C490 C489 1.424 . S
C490 C491 1.347 . S
C491 H483 0.951 . S
C491 C486 1.429 . S
C491 C490 1.347 . S
H492 C493 0.951 . S
C493 H492 0.951 . S
C493 C499 1.265 . S
H494 C499 0.950 . S
H495 C503 0.949 . S
H496 C504 0.950 . S
H497 C505 0.951 . S
H498 C506 0.951 . S
C499 C493 1.265 . S
C499 H494 0.950 . S
C499 C500 1.478 . S
C500 C499 1.478 . S
C500 C501 1.397 . S
C500 C517 1.394 . S
C501 C500 1.397 . S
C501 C502 1.438 1_556 S
C501 C506 1.429 . S
C502 C501 1.438 1_554 S
C502 C503 1.428 . S
C502 C515 1.394 . S
C503 H495 0.949 . S
C503 C502 1.428 . S
C503 C504 1.345 . S
C504 H496 0.950 . S
C504 C503 1.345 . S
C504 C505 1.424 1_554 S
C505 H497 0.951 . S
C505 C504 1.424 1_556 S
C505 C506 1.347 . S
C506 H498 0.951 . S
C506 C501 1.429 . S
C506 C505 1.347 . S
H507 C508 0.951 . S
C508 H507 0.951 . S
C508 C514 1.265 . S
H509 C514 0.950 . S
H510 C518 0.949 . S
H511 C519 0.950 . S
H512 C520 0.951 . S
H513 C521 0.951 . S
C514 C508 1.265 . S
C514 H509 0.950 . S
C514 C515 1.478 . S
C515 C502 1.394 . S
C515 C514 1.478 . S
C515 C516 1.397 . S
C516 C515 1.397 . S
C516 C517 1.438 1_554 S
C516 C521 1.429 . S
C517 C500 1.394 . S
C517 C516 1.438 1_556 S
C517 C518 1.428 . S
C518 H510 0.949 . S
C518 C517 1.428 . S
C518 C519 1.345 . S
C519 H511 0.950 . S
C519 C518 1.345 . S
C519 C520 1.424 1_556 S
C520 H512 0.951 . S
C520 C519 1.424 1_554 S
C520 C521 1.347 . S
C521 H513 0.951 . S
C521 C516 1.429 . S
C521 C520 1.347 . S
H522 C523 0.951 . S
C523 H522 0.951 . S
C523 C529 1.265 . S
H524 C529 0.950 . S
H525 C533 0.949 . S
H526 C534 0.950 . S
H527 C535 0.951 . S
H528 C536 0.951 . S
C529 C523 1.265 . S
C529 H524 0.950 . S
C529 C530 1.478 . S
C530 C529 1.478 . S
C530 C531 1.397 . S
C530 C547 1.394 . S
C531 C530 1.397 . S
C531 C532 1.438 . S
C531 C536 1.429 . S
C532 C531 1.438 . S
C532 C533 1.428 . S
C532 C545 1.394 . S
C533 H525 0.949 . S
C533 C532 1.428 . S
C533 C534 1.345 . S
C534 H526 0.950 . S
C534 C533 1.345 . S
C534 C535 1.424 . S
C535 H527 0.951 . S
C535 C534 1.424 . S
C535 C536 1.347 . S
C536 H528 0.951 . S
C536 C531 1.429 . S
C536 C535 1.347 . S
H537 C538 0.951 . S
C538 H537 0.951 . S
C538 C544 1.265 . S
H539 C544 0.950 . S
H540 C548 0.949 . S
H541 C549 0.950 . S
H542 C550 0.951 . S
H543 C551 0.951 . S
C544 C538 1.265 . S
C544 H539 0.950 . S
C544 C545 1.478 . S
C545 C532 1.394 . S
C545 C544 1.478 . S
C545 C546 1.397 . S
C546 C545 1.397 . S
C546 C547 1.438 . S
C546 C551 1.429 . S
C547 C530 1.394 . S
C547 C546 1.438 . S
C547 C548 1.428 . S
C548 H540 0.949 . S
C548 C547 1.428 . S
C548 C549 1.345 . S
C549 H541 0.950 . S
C549 C548 1.345 . S
C549 C550 1.424 . S
C550 H542 0.951 . S
C550 C549 1.424 . S
C550 C551 1.347 . S
C551 H543 0.951 . S
C551 C546 1.429 . S
C551 C550 1.347 . S
H552 C553 0.951 . S
C553 H552 0.951 . S
C553 C559 1.265 . S
H554 C559 0.950 . S
H555 C563 0.949 . S
H556 C564 0.950 . S
H557 C565 0.951 . S
H558 C566 0.951 . S
C559 C553 1.265 . S
C559 H554 0.950 . S
C559 C560 1.478 . S
C560 C559 1.478 . S
C560 C561 1.397 . S
C560 C577 1.394 . S
C561 C560 1.397 . S
C561 C562 1.438 . S
C561 C566 1.429 . S
C562 C561 1.438 . S
C562 C563 1.428 . S
C562 C575 1.394 . S
C563 H555 0.949 . S
C563 C562 1.428 . S
C563 C564 1.345 . S
C564 H556 0.950 . S
C564 C563 1.345 . S
C564 C565 1.424 . S
C565 H557 0.951 . S
C565 C564 1.424 . S
C565 C566 1.347 . S
C566 H558 0.951 . S
C566 C561 1.429 . S
C566 C565 1.347 . S
H567 C568 0.951 . S
C568 H567 0.951 . S
C568 C574 1.265 . S
H569 C574 0.950 . S
H570 C578 0.949 . S
H571 C579 0.950 . S
H572 C580 0.951 . S
H573 C581 0.951 . S
C574 C568 1.265 . S
C574 H569 0.950 . S
C574 C575 1.478 . S
C575 C562 1.394 . S
C575 C574 1.478 . S
C575 C576 1.397 . S
C576 C575 1.397 . S
C576 C577 1.438 . S
C576 C581 1.429 . S
C577 C560 1.394 . S
C577 C576 1.438 . S
C577 C578 1.428 . S
C578 H570 0.949 . S
C578 C577 1.428 . S
C578 C579 1.345 . S
C579 H571 0.950 . S
C579 C578 1.345 . S
C579 C580 1.424 . S
C580 H572 0.951 . S
C580 C579 1.424 . S
C580 C581 1.347 . S
C581 H573 0.951 . S
C581 C576 1.429 . S
C581 C580 1.347 . S
H582 C583 0.951 . S
C583 H582 0.951 . S
C583 C589 1.265 . S
H584 C589 0.950 . S
H585 C593 0.949 . S
H586 C594 0.950 . S
H587 C595 0.951 . S
H588 C596 0.951 . S
C589 C583 1.265 . S
C589 H584 0.950 . S
C589 C590 1.478 . S
C590 C589 1.478 . S
C590 C591 1.397 . S
C590 C607 1.394 . S
C591 C590 1.397 . S
C591 C592 1.438 1_554 S
C591 C596 1.429 . S
C592 C591 1.438 1_556 S
C592 C593 1.428 . S
C592 C605 1.394 . S
C593 H585 0.949 . S
C593 C592 1.428 . S
C593 C594 1.345 . S
C594 H586 0.950 . S
C594 C593 1.345 . S
C594 C595 1.424 1_556 S
C595 H587 0.951 . S
C595 C594 1.424 1_554 S
C595 C596 1.347 . S
C596 H588 0.951 . S
C596 C591 1.429 . S
C596 C595 1.347 . S
H597 C598 0.951 . S
C598 H597 0.951 . S
C598 C604 1.265 . S
H599 C604 0.950 . S
H600 C608 0.949 . S
H601 C609 0.950 . S
H602 C610 0.951 . S
H603 C611 0.951 . S
C604 C598 1.265 . S
C604 H599 0.950 . S
C604 C605 1.478 . S
C605 C592 1.394 . S
C605 C604 1.478 . S
C605 C606 1.397 . S
C606 C605 1.397 . S
C606 C607 1.438 1_556 S
C606 C611 1.429 . S
C607 C590 1.394 . S
C607 C606 1.438 1_554 S
C607 C608 1.428 . S
C608 H600 0.949 . S
C608 C607 1.428 . S
C608 C609 1.345 . S
C609 H601 0.950 . S
C609 C608 1.345 . S
C609 C610 1.424 1_554 S
C610 H602 0.951 . S
C610 C609 1.424 1_556 S
C610 C611 1.347 . S
C611 H603 0.951 . S
C611 C606 1.429 . S
C611 C610 1.347 . S
H612 C613 0.951 . S
C613 H612 0.951 . S
C613 C619 1.265 . S
H614 C619 0.950 . S
H615 C623 0.949 . S
H616 C624 0.950 . S
H617 C625 0.951 . S
H618 C626 0.951 . S
C619 C613 1.265 . S
C619 H614 0.950 . S
C619 C620 1.478 . S
C620 C619 1.478 . S
C620 C621 1.397 . S
C620 C637 1.394 . S
C621 C620 1.397 . S
C621 C622 1.438 . S
C621 C626 1.429 . S
C622 C621 1.438 . S
C622 C623 1.428 . S
C622 C635 1.394 . S
C623 H615 0.949 . S
C623 C622 1.428 . S
C623 C624 1.345 . S
C624 H616 0.950 . S
C624 C623 1.345 . S
C624 C625 1.424 . S
C625 H617 0.951 . S
C625 C624 1.424 . S
C625 C626 1.347 . S
C626 H618 0.951 . S
C626 C621 1.429 . S
C626 C625 1.347 . S
H627 C628 0.951 . S
C628 H627 0.951 . S
C628 C634 1.265 . S
H629 C634 0.950 . S
H630 C638 0.949 . S
H631 C639 0.950 . S
H632 C640 0.951 . S
H633 C641 0.951 . S
C634 C628 1.265 . S
C634 H629 0.950 . S
C634 C635 1.478 . S
C635 C622 1.394 . S
C635 C634 1.478 . S
C635 C636 1.397 . S
C636 C635 1.397 . S
C636 C637 1.438 . S
C636 C641 1.429 . S
C637 C620 1.394 . S
C637 C636 1.438 . S
C637 C638 1.428 . S
C638 H630 0.949 . S
C638 C637 1.428 . S
C638 C639 1.345 . S
C639 H631 0.950 . S
C639 C638 1.345 . S
C639 C640 1.424 . S
C640 H632 0.951 . S
C640 C639 1.424 . S
C640 C641 1.347 . S
C641 H633 0.951 . S
C641 C636 1.429 . S
C641 C640 1.347 . S
H642 C643 0.951 . S
C643 H642 0.951 . S
C643 C649 1.265 . S
H644 C649 0.950 . S
H645 C653 0.949 . S
H646 C654 0.950 . S
H647 C655 0.951 . S
H648 C656 0.951 . S
C649 C643 1.265 . S
C649 H644 0.950 . S
C649 C650 1.478 . S
C650 C649 1.478 . S
C650 C651 1.397 . S
C650 C667 1.394 . S
C651 C650 1.397 . S
C651 C652 1.438 . S
C651 C656 1.429 . S
C652 C651 1.438 . S
C652 C653 1.428 . S
C652 C665 1.394 . S
C653 H645 0.949 . S
C653 C652 1.428 . S
C653 C654 1.345 . S
C654 H646 0.950 . S
C654 C653 1.345 . S
C654 C655 1.424 . S
C655 H647 0.951 . S
C655 C654 1.424 . S
C655 C656 1.347 . S
C656 H648 0.951 . S
C656 C651 1.429 . S
C656 C655 1.347 . S
H657 C658 0.951 . S
C658 H657 0.951 . S
C658 C664 1.265 . S
H659 C664 0.950 . S
H660 C668 0.949 . S
H661 C669 0.950 . S
H662 C670 0.951 . S
H663 C671 0.951 . S
C664 C658 1.265 . S
C664 H659 0.950 . S
C664 C665 1.478 . S
C665 C652 1.394 . S
C665 C664 1.478 . S
C665 C666 1.397 . S
C666 C665 1.397 . S
C666 C667 1.438 . S
C666 C671 1.429 . S
C667 C650 1.394 . S
C667 C666 1.438 . S
C667 C668 1.428 . S
C668 H660 0.949 . S
C668 C667 1.428 . S
C668 C669 1.345 . S
C669 H661 0.950 . S
C669 C668 1.345 . S
C669 C670 1.424 . S
C670 H662 0.951 . S
C670 C669 1.424 . S
C670 C671 1.347 . S
C671 H663 0.951 . S
C671 C666 1.429 . S
C671 C670 1.347 . S
C133 C96 1.520 . S
C148 C8 1.570 . S
C163 C19 1.512 . S
C178 C107 1.521 . S
C193 C118 1.529 . S
C208 C30 1.573 . S
C223 C129 1.551 . S
C238 C41 1.505 . S
C253 C74 1.564 . S
C268 C52 1.558 . S
C283 C63 1.526 . S
C298 C85 1.509 . S
C313 C38 1.174 . S
C328 C5 1.187 . S
C343 C49 1.351 . S
C358 C16 1.351 . S
C373 C27 1.354 . S
C388 C60 1.348 . S
C403 C104 1.169 . S
C418 C71 1.197 . S
C433 C82 1.354 . S
C448 C115 1.348 . S
C463 C126 1.176 . S
C478 C93 1.185 . S
C493 C117 1.428 . S
C508 C7 1.437 . S
C523 C128 1.460 . S
C538 C18 1.438 . S
C553 C29 1.505 . S
C568 C73 1.529 . S
C583 C40 1.429 . S
C598 C84 1.432 . S
C613 C51 1.521 . S
C628 C95 1.494 . S
C643 C62 1.466 . S
C658 C106 1.441 . S
