# Generated by pormake.
# Topology wmt, (6)-cn, num edge types: 1
# Building blocks:
#     Node 0, Type 0, BuildingBlock: BETFAJ_clean_sbu_0, # of connection points: 6
#     Node 1, Type 0, BuildingBlock: BETFAJ_clean_sbu_0, # of connection points: 6
#     Node 2, Type 0, BuildingBlock: BETFAJ_clean_sbu_0, # of connection points: 6
#     Node 3, Type 0, BuildingBlock: BETFAJ_clean_sbu_0, # of connection points: 6
#     Node 4, Type 0, BuildingBlock: BETFAJ_clean_sbu_0, # of connection points: 6
#     Node 5, Type 0, BuildingBlock: BETFAJ_clean_sbu_0, # of connection points: 6
#     Node 6, Type 0, BuildingBlock: BETFAJ_clean_sbu_0, # of connection points: 6
#     Node 7, Type 0, BuildingBlock: BETFAJ_clean_sbu_0, # of connection points: 6
#     Node 8, Type 0, BuildingBlock: BETFAJ_clean_sbu_0, # of connection points: 6
#     Node 9, Type 0, BuildingBlock: BETFAJ_clean_sbu_0, # of connection points: 6
#     Node 10, Type 0, BuildingBlock: BETFAJ_clean_sbu_0, # of connection points: 6
#     Node 11, Type 0, BuildingBlock: BETFAJ_clean_sbu_0, # of connection points: 6
#     Node 12, Type 0, BuildingBlock: BETFAJ_clean_sbu_0, # of connection points: 6
#     Node 13, Type 0, BuildingBlock: BETFAJ_clean_sbu_0, # of connection points: 6
#     Node 14, Type 0, BuildingBlock: BETFAJ_clean_sbu_0, # of connection points: 6
#     Node 15, Type 0, BuildingBlock: BETFAJ_clean_sbu_0, # of connection points: 6
#     Node 16, Type 0, BuildingBlock: BETFAJ_clean_sbu_0, # of connection points: 6
#     Node 17, Type 0, BuildingBlock: BETFAJ_clean_sbu_0, # of connection points: 6
#     Node 18, Type 0, BuildingBlock: BETFAJ_clean_sbu_0, # of connection points: 6
#     Node 19, Type 0, BuildingBlock: BETFAJ_clean_sbu_0, # of connection points: 6
#     Node 20, Type 0, BuildingBlock: BETFAJ_clean_sbu_0, # of connection points: 6
#     Node 21, Type 0, BuildingBlock: BETFAJ_clean_sbu_0, # of connection points: 6
#     Node 22, Type 0, BuildingBlock: BETFAJ_clean_sbu_0, # of connection points: 6
#     Node 23, Type 0, BuildingBlock: BETFAJ_clean_sbu_0, # of connection points: 6
#     Node 24, Type 0, BuildingBlock: BETFAJ_clean_sbu_0, # of connection points: 6
#     Node 25, Type 0, BuildingBlock: BETFAJ_clean_sbu_0, # of connection points: 6
#     Node 26, Type 0, BuildingBlock: BETFAJ_clean_sbu_0, # of connection points: 6
#     Node 27, Type 0, BuildingBlock: BETFAJ_clean_sbu_0, # of connection points: 6
#     Node 28, Type 0, BuildingBlock: BETFAJ_clean_sbu_0, # of connection points: 6
#     Node 29, Type 0, BuildingBlock: BETFAJ_clean_sbu_0, # of connection points: 6
#     Node 30, Type 0, BuildingBlock: BETFAJ_clean_sbu_0, # of connection points: 6
#     Node 31, Type 0, BuildingBlock: BETFAJ_clean_sbu_0, # of connection points: 6
#     Node 32, Type 0, BuildingBlock: BETFAJ_clean_sbu_0, # of connection points: 6
#     Node 33, Type 0, BuildingBlock: BETFAJ_clean_sbu_0, # of connection points: 6
#     Node 34, Type 0, BuildingBlock: BETFAJ_clean_sbu_0, # of connection points: 6
#     Node 35, Type 0, BuildingBlock: BETFAJ_clean_sbu_0, # of connection points: 6
#     Edge 36, Type (0, 0), BuildingBlock: EZIPEK_clean_linker_0, # of connection points: 2
#     Edge 37, Type (0, 0), BuildingBlock: EZIPEK_clean_linker_0, # of connection points: 2
#     Edge 38, Type (0, 0), BuildingBlock: EZIPEK_clean_linker_0, # of connection points: 2
#     Edge 39, Type (0, 0), BuildingBlock: EZIPEK_clean_linker_0, # of connection points: 2
#     Edge 40, Type (0, 0), BuildingBlock: EZIPEK_clean_linker_0, # of connection points: 2
#     Edge 41, Type (0, 0), BuildingBlock: EZIPEK_clean_linker_0, # of connection points: 2
#     Edge 42, Type (0, 0), BuildingBlock: EZIPEK_clean_linker_0, # of connection points: 2
#     Edge 43, Type (0, 0), BuildingBlock: EZIPEK_clean_linker_0, # of connection points: 2
#     Edge 44, Type (0, 0), BuildingBlock: EZIPEK_clean_linker_0, # of connection points: 2
#     Edge 45, Type (0, 0), BuildingBlock: EZIPEK_clean_linker_0, # of connection points: 2
#     Edge 46, Type (0, 0), BuildingBlock: EZIPEK_clean_linker_0, # of connection points: 2
#     Edge 47, Type (0, 0), BuildingBlock: EZIPEK_clean_linker_0, # of connection points: 2
#     Edge 48, Type (0, 0), BuildingBlock: EZIPEK_clean_linker_0, # of connection points: 2
#     Edge 49, Type (0, 0), BuildingBlock: EZIPEK_clean_linker_0, # of connection points: 2
#     Edge 50, Type (0, 0), BuildingBlock: EZIPEK_clean_linker_0, # of connection points: 2
#     Edge 51, Type (0, 0), BuildingBlock: EZIPEK_clean_linker_0, # of connection points: 2
#     Edge 52, Type (0, 0), BuildingBlock: EZIPEK_clean_linker_0, # of connection points: 2
#     Edge 53, Type (0, 0), BuildingBlock: EZIPEK_clean_linker_0, # of connection points: 2
#     Edge 54, Type (0, 0), BuildingBlock: EZIPEK_clean_linker_0, # of connection points: 2
#     Edge 55, Type (0, 0), BuildingBlock: EZIPEK_clean_linker_0, # of connection points: 2
#     Edge 56, Type (0, 0), BuildingBlock: EZIPEK_clean_linker_0, # of connection points: 2
#     Edge 57, Type (0, 0), BuildingBlock: EZIPEK_clean_linker_0, # of connection points: 2
#     Edge 58, Type (0, 0), BuildingBlock: EZIPEK_clean_linker_0, # of connection points: 2
#     Edge 59, Type (0, 0), BuildingBlock: EZIPEK_clean_linker_0, # of connection points: 2
#     Edge 60, Type (0, 0), BuildingBlock: EZIPEK_clean_linker_0, # of connection points: 2
#     Edge 61, Type (0, 0), BuildingBlock: EZIPEK_clean_linker_0, # of connection points: 2
#     Edge 62, Type (0, 0), BuildingBlock: EZIPEK_clean_linker_0, # of connection points: 2
#     Edge 63, Type (0, 0), BuildingBlock: EZIPEK_clean_linker_0, # of connection points: 2
#     Edge 64, Type (0, 0), BuildingBlock: EZIPEK_clean_linker_0, # of connection points: 2
#     Edge 65, Type (0, 0), BuildingBlock: EZIPEK_clean_linker_0, # of connection points: 2
#     Edge 66, Type (0, 0), BuildingBlock: EZIPEK_clean_linker_0, # of connection points: 2
#     Edge 67, Type (0, 0), BuildingBlock: EZIPEK_clean_linker_0, # of connection points: 2
#     Edge 68, Type (0, 0), BuildingBlock: EZIPEK_clean_linker_0, # of connection points: 2
#     Edge 69, Type (0, 0), BuildingBlock: EZIPEK_clean_linker_0, # of connection points: 2
#     Edge 70, Type (0, 0), BuildingBlock: EZIPEK_clean_linker_0, # of connection points: 2
#     Edge 71, Type (0, 0), BuildingBlock: EZIPEK_clean_linker_0, # of connection points: 2
#     Edge 72, Type (0, 0), BuildingBlock: EZIPEK_clean_linker_0, # of connection points: 2
#     Edge 73, Type (0, 0), BuildingBlock: EZIPEK_clean_linker_0, # of connection points: 2
#     Edge 74, Type (0, 0), BuildingBlock: EZIPEK_clean_linker_0, # of connection points: 2
#     Edge 75, Type (0, 0), BuildingBlock: EZIPEK_clean_linker_0, # of connection points: 2
#     Edge 76, Type (0, 0), BuildingBlock: EZIPEK_clean_linker_0, # of connection points: 2
#     Edge 77, Type (0, 0), BuildingBlock: EZIPEK_clean_linker_0, # of connection points: 2
#     Edge 78, Type (0, 0), BuildingBlock: EZIPEK_clean_linker_0, # of connection points: 2
#     Edge 79, Type (0, 0), BuildingBlock: EZIPEK_clean_linker_0, # of connection points: 2
#     Edge 80, Type (0, 0), BuildingBlock: EZIPEK_clean_linker_0, # of connection points: 2
#     Edge 81, Type (0, 0), BuildingBlock: EZIPEK_clean_linker_0, # of connection points: 2
#     Edge 82, Type (0, 0), BuildingBlock: EZIPEK_clean_linker_0, # of connection points: 2
#     Edge 83, Type (0, 0), BuildingBlock: EZIPEK_clean_linker_0, # of connection points: 2
#     Edge 84, Type (0, 0), BuildingBlock: EZIPEK_clean_linker_0, # of connection points: 2
#     Edge 85, Type (0, 0), BuildingBlock: EZIPEK_clean_linker_0, # of connection points: 2
#     Edge 86, Type (0, 0), BuildingBlock: EZIPEK_clean_linker_0, # of connection points: 2
#     Edge 87, Type (0, 0), BuildingBlock: EZIPEK_clean_linker_0, # of connection points: 2
#     Edge 88, Type (0, 0), BuildingBlock: EZIPEK_clean_linker_0, # of connection points: 2
#     Edge 89, Type (0, 0), BuildingBlock: EZIPEK_clean_linker_0, # of connection points: 2
#     Edge 90, Type (0, 0), BuildingBlock: EZIPEK_clean_linker_0, # of connection points: 2
#     Edge 91, Type (0, 0), BuildingBlock: EZIPEK_clean_linker_0, # of connection points: 2
#     Edge 92, Type (0, 0), BuildingBlock: EZIPEK_clean_linker_0, # of connection points: 2
#     Edge 93, Type (0, 0), BuildingBlock: EZIPEK_clean_linker_0, # of connection points: 2
#     Edge 94, Type (0, 0), BuildingBlock: EZIPEK_clean_linker_0, # of connection points: 2
#     Edge 95, Type (0, 0), BuildingBlock: EZIPEK_clean_linker_0, # of connection points: 2
#     Edge 96, Type (0, 0), BuildingBlock: EZIPEK_clean_linker_0, # of connection points: 2
#     Edge 97, Type (0, 0), BuildingBlock: EZIPEK_clean_linker_0, # of connection points: 2
#     Edge 98, Type (0, 0), BuildingBlock: EZIPEK_clean_linker_0, # of connection points: 2
#     Edge 99, Type (0, 0), BuildingBlock: EZIPEK_clean_linker_0, # of connection points: 2
#     Edge 100, Type (0, 0), BuildingBlock: EZIPEK_clean_linker_0, # of connection points: 2
#     Edge 101, Type (0, 0), BuildingBlock: EZIPEK_clean_linker_0, # of connection points: 2
#     Edge 102, Type (0, 0), BuildingBlock: EZIPEK_clean_linker_0, # of connection points: 2
#     Edge 103, Type (0, 0), BuildingBlock: EZIPEK_clean_linker_0, # of connection points: 2
#     Edge 104, Type (0, 0), BuildingBlock: EZIPEK_clean_linker_0, # of connection points: 2
#     Edge 105, Type (0, 0), BuildingBlock: EZIPEK_clean_linker_0, # of connection points: 2
#     Edge 106, Type (0, 0), BuildingBlock: EZIPEK_clean_linker_0, # of connection points: 2
#     Edge 107, Type (0, 0), BuildingBlock: EZIPEK_clean_linker_0, # of connection points: 2
#     Edge 108, Type (0, 0), BuildingBlock: EZIPEK_clean_linker_0, # of connection points: 2
#     Edge 109, Type (0, 0), BuildingBlock: EZIPEK_clean_linker_0, # of connection points: 2
#     Edge 110, Type (0, 0), BuildingBlock: EZIPEK_clean_linker_0, # of connection points: 2
#     Edge 111, Type (0, 0), BuildingBlock: EZIPEK_clean_linker_0, # of connection points: 2
#     Edge 112, Type (0, 0), BuildingBlock: EZIPEK_clean_linker_0, # of connection points: 2
#     Edge 113, Type (0, 0), BuildingBlock: EZIPEK_clean_linker_0, # of connection points: 2
#     Edge 114, Type (0, 0), BuildingBlock: EZIPEK_clean_linker_0, # of connection points: 2
#     Edge 115, Type (0, 0), BuildingBlock: EZIPEK_clean_linker_0, # of connection points: 2
#     Edge 116, Type (0, 0), BuildingBlock: EZIPEK_clean_linker_0, # of connection points: 2
#     Edge 117, Type (0, 0), BuildingBlock: EZIPEK_clean_linker_0, # of connection points: 2
#     Edge 118, Type (0, 0), BuildingBlock: EZIPEK_clean_linker_0, # of connection points: 2
#     Edge 119, Type (0, 0), BuildingBlock: EZIPEK_clean_linker_0, # of connection points: 2
#     Edge 120, Type (0, 0), BuildingBlock: EZIPEK_clean_linker_0, # of connection points: 2
#     Edge 121, Type (0, 0), BuildingBlock: EZIPEK_clean_linker_0, # of connection points: 2
#     Edge 122, Type (0, 0), BuildingBlock: EZIPEK_clean_linker_0, # of connection points: 2
#     Edge 123, Type (0, 0), BuildingBlock: EZIPEK_clean_linker_0, # of connection points: 2
#     Edge 124, Type (0, 0), BuildingBlock: EZIPEK_clean_linker_0, # of connection points: 2
#     Edge 125, Type (0, 0), BuildingBlock: EZIPEK_clean_linker_0, # of connection points: 2
#     Edge 126, Type (0, 0), BuildingBlock: EZIPEK_clean_linker_0, # of connection points: 2
#     Edge 127, Type (0, 0), BuildingBlock: EZIPEK_clean_linker_0, # of connection points: 2
#     Edge 128, Type (0, 0), BuildingBlock: EZIPEK_clean_linker_0, # of connection points: 2
#     Edge 129, Type (0, 0), BuildingBlock: EZIPEK_clean_linker_0, # of connection points: 2
#     Edge 130, Type (0, 0), BuildingBlock: EZIPEK_clean_linker_0, # of connection points: 2
#     Edge 131, Type (0, 0), BuildingBlock: EZIPEK_clean_linker_0, # of connection points: 2
#     Edge 132, Type (0, 0), BuildingBlock: EZIPEK_clean_linker_0, # of connection points: 2
#     Edge 133, Type (0, 0), BuildingBlock: EZIPEK_clean_linker_0, # of connection points: 2
#     Edge 134, Type (0, 0), BuildingBlock: EZIPEK_clean_linker_0, # of connection points: 2
#     Edge 135, Type (0, 0), BuildingBlock: EZIPEK_clean_linker_0, # of connection points: 2
#     Edge 136, Type (0, 0), BuildingBlock: EZIPEK_clean_linker_0, # of connection points: 2
#     Edge 137, Type (0, 0), BuildingBlock: EZIPEK_clean_linker_0, # of connection points: 2
#     Edge 138, Type (0, 0), BuildingBlock: EZIPEK_clean_linker_0, # of connection points: 2
#     Edge 139, Type (0, 0), BuildingBlock: EZIPEK_clean_linker_0, # of connection points: 2
#     Edge 140, Type (0, 0), BuildingBlock: EZIPEK_clean_linker_0, # of connection points: 2
#     Edge 141, Type (0, 0), BuildingBlock: EZIPEK_clean_linker_0, # of connection points: 2
#     Edge 142, Type (0, 0), BuildingBlock: EZIPEK_clean_linker_0, # of connection points: 2
#     Edge 143, Type (0, 0), BuildingBlock: EZIPEK_clean_linker_0, # of connection points: 2
# Relax obj value: 0.473
# Max RMSD: 0.204
# Mean RMSD: 0.204
data_MOF--net-wmt--node1-BETFAJ_clean_sbu_0--edge1-EZIPEK_clean_linker_0
_symmetry_space_group_name_H-M    P1
_symmetry_Int_Tables_number       1
_symmetry_cell_setting            triclinic
loop_
_symmetry_equiv_pos_as_xyz
'x, y, z'
_cell_length_a     58.727535
_cell_length_b     58.757274
_cell_length_c     27.870862
_cell_angle_alpha  90.014561
_cell_angle_beta   90.002803
_cell_angle_gamma 119.90288
loop_
_atom_site_label
_atom_site_type_symbol
_atom_site_fract_x
_atom_site_fract_y
_atom_site_fract_z
_atom_type_partial_charge
Sm0 Sm 0.06427 0.47233 0.18183 0.0
Sm1 Sm 0.01877 0.42322 0.13782 0.0
C2 C 0.08902 0.51224 0.24309 0.0
C3 C 0.08315 0.52013 0.29141 0.0
C4 C 0.07016 0.53487 0.29486 0.0
C5 C 0.0655 0.543 0.33975 0.0
C6 C 0.0738 0.53688 0.38288 0.0
C7 C 0.08662 0.52206 0.37967 0.0
C8 C 0.09123 0.51385 0.33478 0.0
C9 C 0.0817 0.44654 0.119 0.0
C10 C 0.01945 0.42484 0.25601 0.0
C11 C 0.98845 0.37947 0.08987 0.0
C12 C 0.98986 0.37033 1.04213 0.0
C13 C 0.01311 0.38446 1.01614 0.0
C14 C 0.01438 0.3781 0.9688 0.0
C15 C 0.99209 0.3579 0.94647 0.0
C16 C 0.96889 0.343 0.97276 0.0
C17 C 0.96786 0.34911 1.02092 0.0
C18 C 0.0049 0.4595 0.16641 0.0
C19 C 0.05311 0.47692 0.06673 0.0
O20 O 0.07586 0.51301 0.20561 0.0
O21 O 0.09308 0.49217 0.24148 0.0
O22 O 0.06164 0.43539 0.14723 0.0
O23 O 0.09609 0.47045 0.13487 0.0
O24 O 0.03908 0.44907 0.24946 0.0
O25 O 0.00985 0.40916 0.21822 0.0
O26 O 0.0068 0.382 0.11968 0.0
O27 O 0.98482 0.39965 0.09031 0.0
O28 O 0.02625 0.46374 0.14881 0.0
O29 O 0.99028 0.43446 0.17377 0.0
O30 O 0.03532 0.45127 0.0699 0.0
O31 O 0.06594 0.4902 0.10603 0.0
H32 H 0.06374 0.54037 0.2627 0.0
H33 H 0.0556 0.55438 0.34077 0.0
H34 H 0.09325 0.51695 0.41205 0.0
H35 H 0.10137 0.5027 0.33409 0.0
H36 H 0.02987 0.4011 1.0321 0.0
H37 H 0.03224 0.39005 0.94859 0.0
H38 H 0.95141 0.3277 0.95546 0.0
H39 H 0.94971 0.33816 1.04081 0.0
Sm40 Sm 0.52705 0.58443 0.17557 0.0
Sm41 Sm 0.57889 0.59544 0.1393 0.0
C42 C 0.48538 0.57122 0.23142 0.0
C43 C 0.4761 0.55885 0.2804 0.0
C44 C 0.46058 0.5314 0.28609 0.0
C45 C 0.45253 0.51984 0.33182 0.0
C46 C 0.45848 0.53537 0.37355 0.0
C47 C 0.47315 0.56288 0.36778 0.0
C48 C 0.48208 0.57439 0.32219 0.0
C49 C 0.55028 0.62849 0.111 0.0
C50 C 0.5719 0.59331 0.25892 0.0
C51 C 0.62796 0.60999 0.11509 0.0
C52 C 0.63804 0.60017 0.07721 0.0
C53 C 0.66105 0.61791 0.05317 0.0
C54 C 0.66265 0.61555 1.00371 0.0
C55 C 0.64148 0.59494 0.97951 0.0
C56 C 0.62184 0.57398 1.00547 0.0
C57 C 0.62031 0.57651 0.05471 0.0
C58 C 0.54487 0.54285 0.14196 0.0
C59 C 0.52696 0.57047 0.06341 0.0
O60 O 0.4855 0.55634 0.19636 0.0
O61 O 0.50579 0.59504 0.22963 0.0
O62 O 0.5625 0.62314 0.14374 0.0
O63 O 0.52558 0.61219 0.11797 0.0
O64 O 0.54745 0.58697 0.24946 0.0
O65 O 0.58863 0.60006 0.2226 0.0
O66 O 0.6154 0.62167 0.09938 0.0
O67 O 0.61545 0.59356 0.14972 0.0
O68 O 0.54617 0.55905 0.17387 0.0
O69 O 0.56244 0.55485 0.10931 0.0
O70 O 0.5532 0.58587 0.06735 0.0
O71 O 0.51241 0.56249 0.10297 0.0
H72 H 0.45433 0.5187 0.2551 0.0
H73 H 0.44111 0.49864 0.33451 0.0
H74 H 0.4779 0.57557 0.3988 0.0
H75 H 0.49354 0.59558 0.3197 0.0
H76 H 0.67573 0.63548 0.0707 0.0
H77 H 0.67827 0.63162 0.9839 0.0
H78 H 0.6057 0.5576 0.98716 0.0
H79 H 0.60323 0.56175 0.07341 0.0
Sm80 Sm 0.40541 0.92714 0.18016 0.0
Sm81 Sm 0.4078 0.97395 0.13735 0.0
C82 C 0.4172 0.90049 0.24337 0.0
C83 C 0.43277 0.90765 0.28984 0.0
C84 C 0.45805 0.91034 0.29133 0.0
C85 C 0.47286 0.91701 0.3342 0.0
C86 C 0.46288 0.92102 0.37736 0.0
C87 C 0.43766 0.91838 0.37613 0.0
C88 C 0.42288 0.91186 0.33315 0.0
C89 C 0.36209 0.91239 0.11771 0.0
C90 C 0.40465 0.97286 0.25469 0.0
C91 C 0.40543 0.01027 0.08485 0.0
C92 C 0.39884 0.01186 1.03456 0.0
C93 C 0.37473 0.0101 1.02362 0.0
C94 C 0.36562 0.00589 0.97659 0.0
C95 C 0.38101 0.00433 0.93988 0.0
C96 C 0.4064 0.0091 0.94973 0.0
C97 C 0.4152 0.01255 0.99699 0.0
C98 C 0.45581 0.98293 0.17138 0.0
C99 C 0.42226 0.93613 0.06642 0.0
O100 O 0.43044 0.91042 0.20367 0.0
O101 O 0.39445 0.89974 0.24284 0.0
O102 O 0.37202 0.9326 0.14591 0.0
O103 O 0.37261 0.89816 0.12934 0.0
O104 O 0.40864 0.95278 0.24842 0.0
O105 O 0.4001 0.98307 0.21603 0.0
O106 O 0.38612 0.99375 0.11214 0.0
O107 O 0.42697 0.00954 0.09211 0.0
O108 O 0.43859 0.96316 0.14998 0.0
O109 O 0.44652 -0.00157 0.17975 0.0
O110 O 0.41525 0.95454 0.06889 0.0
O111 O 0.42196 0.92333 0.10612 0.0
H112 H 0.46639 0.90711 0.25917 0.0
H113 H 0.49209 0.91871 0.33379 0.0
H114 H 0.42928 0.92121 0.40866 0.0
H115 H 0.40359 0.90996 0.33401 0.0
H116 H 0.3622 0.01029 0.05173 0.0
H117 H 0.34609 0.00258 0.96911 0.0
H118 H 0.41856 0.00828 0.92132 0.0
H119 H 0.4342 0.01442 1.00411 0.0
Sm120 Sm 0.46713 0.05382 0.53876 0.0
Sm121 Sm 0.41574 0.01537 0.57725 0.0
C122 C 0.50914 0.07771 0.4818 0.0
C123 C 0.51745 0.07217 0.43361 0.0
C124 C 0.53898 0.06784 0.4303 0.0
C125 C 0.54743 0.06325 0.38566 0.0
C126 C 0.5348 0.06306 0.34253 0.0
C127 C 0.51316 0.06719 0.34563 0.0
C128 C 0.50459 0.07162 0.39035 0.0
C129 C 0.44549 0.07715 0.60151 0.0
C130 C 0.42185 0.01629 0.45733 0.0
C131 C 0.36646 0.98731 0.60626 0.0
C132 C 0.35586 0.97386 0.65152 0.0
C133 C 0.33211 0.97081 0.66911 0.0
C134 C 0.3276 0.96896 0.71857 0.0
C135 C 0.34708 0.97042 0.74966 0.0
C136 C 0.36868 0.96929 0.73132 0.0
C137 C 0.37303 0.97094 0.68236 0.0
C138 C 0.44778 0.99473 0.5745 0.0
C139 C 0.46733 0.04178 0.65394 0.0
O140 O 0.50765 0.06283 0.51821 0.0
O141 O 0.49035 0.08372 0.48269 0.0
O142 O 0.4329 0.05937 0.56941 0.0
O143 O 0.47008 0.08431 0.5954 0.0
O144 O 0.44532 0.03668 0.46557 0.0
O145 O 0.40594 0.0053 0.49454 0.0
O146 O 0.38058 0.0128 0.61078 0.0
O147 O 0.3778 0.97768 0.57937 0.0
O148 O 0.44673 0.00936 0.54186 0.0
O149 O 0.43154 0.99092 0.60924 0.0
O150 O 0.44108 0.02879 0.64936 0.0
O151 O 0.482 0.05092 0.61457 0.0
H152 H 0.54952 0.0682 0.46242 0.0
H153 H 0.56409 0.0601 0.38475 0.0
H154 H 0.50288 0.06707 0.31328 0.0
H155 H 0.48792 0.07475 0.39088 0.0
H156 H 0.31839 0.97237 0.64534 0.0
H157 H 0.31053 0.96924 0.73256 0.0
H158 H 0.38361 0.96991 0.75507 0.0
H159 H 0.39135 0.97305 0.66931 0.0
Sm160 Sm 0.93018 0.40216 0.53415 0.0
Sm161 Sm 0.97827 0.40607 0.57469 0.0
C162 C 0.90113 0.41076 0.47087 0.0
C163 C 0.90763 0.42628 0.42466 0.0
C164 C 0.93316 0.44722 0.41503 0.0
C165 C 0.93895 0.46181 0.37192 0.0
C166 C 0.91946 0.45583 0.33681 0.0
C167 C 0.89404 0.43473 0.3462 0.0
C168 C 0.88822 0.42025 0.38942 0.0
C169 C 0.91709 0.36017 0.59844 0.0
C170 C 0.97596 0.40372 0.45781 0.0
C171 C 0.01816 0.40451 0.61654 0.0
C172 C 0.02385 0.39307 0.65833 0.0
C173 C 0.00819 0.36628 0.66816 0.0
C174 C 0.00727 0.35706 0.71427 0.0
C175 C 0.02207 0.37446 0.75067 0.0
C176 C 0.04149 0.40017 0.73892 0.0
C177 C 0.04218 0.40958 0.69262 0.0
C178 C 0.98552 0.45438 0.54358 0.0
C179 C 0.94049 0.419 0.64745 0.0
O180 O 0.91014 0.42411 0.51077 0.0
O181 O 0.90295 0.38938 0.47086 0.0
O182 O 0.93707 0.36973 0.56962 0.0
O183 O 0.90174 0.36911 0.58513 0.0
O184 O 0.95626 0.40807 0.46538 0.0
O185 O 0.98587 0.39804 0.49538 0.0
O186 O 0.00359 0.38827 0.58282 0.0
O187 O 0.01174 0.4224 0.62584 0.0
O188 O 0.96601 0.43606 0.56353 0.0
O189 O 0.00161 0.44587 0.5349 0.0
O190 O 0.95803 0.41089 0.64447 0.0
O191 O 0.92878 0.42081 0.60772 0.0
H192 H 0.94875 0.45234 0.44086 0.0
H193 H 0.95877 0.47774 0.36586 0.0
H194 H 0.87859 0.42946 0.31998 0.0
H195 H 0.86842 0.40425 0.39531 0.0
H196 H 0.99418 0.35322 0.64214 0.0
H197 H 0.99247 0.33731 0.72302 0.0
H198 H 0.05339 0.41379 0.76678 0.0
H199 H 0.05497 0.43026 0.68519 0.0
Sm200 Sm 0.58359 0.52243 0.53642 0.0
Sm201 Sm 0.59077 0.57361 0.58145 0.0
C202 C 0.56476 0.48229 0.47443 0.0
C203 C 0.54888 0.47513 0.42855 0.0
C204 C 0.54255 0.49263 0.40529 0.0
C205 C 0.52817 0.48573 0.36179 0.0
C206 C 0.51933 0.46096 0.34031 0.0
C207 C 0.5252 0.44331 0.36419 0.0
C208 C 0.53973 0.4503 0.40742 0.0
C209 C 0.62764 0.54721 0.59854 0.0
C210 C 0.59069 0.57263 0.46353 0.0
C211 C 0.60228 0.61329 0.63929 0.0
C212 C 0.60828 0.61593 0.69091 0.0
C213 C 0.63279 0.62041 0.7067 0.0
C214 C 0.63724 0.61816 0.75478 0.0
C215 C 0.61701 0.61083 0.7879 0.0
C216 C 0.59261 0.60724 0.7732 0.0
C217 C 0.58835 0.61008 0.72486 0.0
C218 C 0.53995 0.53826 0.55457 0.0
C219 C 0.5693 0.51912 0.65077 0.0
O220 O 0.55276 0.48205 0.51421 0.0
O221 O 0.58896 0.50208 0.47309 0.0
O222 O 0.61913 0.5586 0.57005 0.0
O223 O 0.61672 0.52288 0.58376 0.0
O224 O 0.58394 0.54773 0.47026 0.0
O225 O 0.59786 0.58862 0.50127 0.0
O226 O 0.61968 0.61279 0.61038 0.0
O227 O 0.57827 0.59555 0.62858 0.0
O228 O 0.55719 0.53405 0.57083 0.0
O229 O 0.5504 0.56338 0.54836 0.0
O230 O 0.58319 0.54539 0.64832 0.0
O231 O 0.5629 0.50528 0.61009 0.0
H232 H 0.54878 0.51175 0.42049 0.0
H233 H 0.52422 0.49992 0.34454 0.0
H234 H 0.51887 0.42414 0.34884 0.0
H235 H 0.54402 0.43623 0.42422 0.0
H236 H 0.64831 0.62467 0.68178 0.0
H237 H 0.65617 0.62116 0.76609 0.0
H238 H 0.57681 0.60156 0.7988 0.0
H239 H 0.56911 0.60634 0.71374 0.0
Sm240 Sm 0.97486 0.56631 0.07806 0.0
Sm241 Sm 0.92852 0.51766 1.03649 0.0
C242 C 0.00557 0.61072 0.12347 0.0
C243 C 0.00585 0.62106 0.17141 0.0
C244 C 0.99384 0.63629 0.17953 0.0
C245 C 0.98935 0.64147 0.22626 0.0
C246 C 0.99732 0.63188 0.26476 0.0
C247 C 0.01139 0.6188 0.25677 0.0
C248 C 0.01575 0.61349 0.21034 0.0
C249 C 0.98741 0.52858 0.05346 0.0
C250 C 0.94012 0.51383 0.1515 0.0
C251 C 0.90285 0.47816 0.97457 0.0
C252 C 0.909 0.46988 0.92667 0.0
C253 C 0.92383 0.45695 0.92375 0.0
C254 C 0.92892 0.44877 0.87918 0.0
C255 C 0.91928 0.45301 0.83571 0.0
C256 C 0.9045 0.46592 0.83848 0.0
C257 C 0.89944 0.47416 0.88303 0.0
C258 C 0.91276 0.54603 0.0975 0.0
C259 C 0.97466 0.56258 0.96107 0.0
O260 O 0.98644 0.60754 0.09511 0.0
O261 O 0.01003 0.59107 0.12159 0.0
O262 O 0.96611 0.52511 0.06999 0.0
O263 O 0.0027 0.55343 0.04484 0.0
O264 O 0.95831 0.53932 0.14734 0.0
O265 O 0.92672 0.50029 0.11279 0.0
O266 O 0.91467 0.47634 1.01322 0.0
O267 O 0.90024 0.49913 0.97546 0.0
O268 O 0.93248 0.55581 0.06836 0.0
O269 O 0.89779 0.52179 0.08353 0.0
O270 O 0.95509 0.53855 0.96892 0.0
O271 O 0.98416 0.57916 0.99745 0.0
H272 H 0.98677 0.64301 0.14996 0.0
H273 H 0.97852 0.65161 0.23252 0.0
H274 H 0.01783 0.61154 0.28656 0.0
H275 H 0.02562 0.60226 0.2052 0.0
H276 H 0.93145 0.45297 0.95607 0.0
H277 H 0.94037 0.43893 0.87868 0.0
H278 H 0.89677 0.46961 0.80596 0.0
H279 H 0.88784 0.48382 0.88328 0.0
Sm280 Sm 0.41462 0.40476 0.07223 0.0
Sm281 Sm 0.46647 0.41395 1.03812 0.0
C282 C 0.36528 0.38994 0.09414 0.0
C283 C 0.35521 0.39209 0.14115 0.0
C284 C 0.34253 0.36968 0.17019 0.0
C285 C 0.34503 0.37228 0.2198 0.0
C286 C 0.35964 0.39731 0.24002 0.0
C287 C 0.36782 0.41969 0.21178 0.0
C288 C 0.36531 0.41708 0.16227 0.0
C289 C 0.45023 0.45691 0.07071 0.0
C290 C 0.46571 0.42909 0.15001 0.0
C291 C 0.50864 0.42828 0.98239 0.0
C292 C 0.51794 0.44226 0.93474 0.0
C293 C 0.50419 0.45284 0.91074 0.0
C294 C 0.51272 0.46549 0.86583 0.0
C295 C 0.53536 0.46808 0.84317 0.0
C296 C 0.5493 0.45771 0.86741 0.0
C297 C 0.54071 0.44501 0.91237 0.0
C298 C 0.44279 0.37077 0.10409 0.0
C299 C 0.42284 0.40795 0.95398 0.0
O300 O 0.37382 0.37329 0.09151 0.0
O301 O 0.38119 0.41215 0.07339 0.0
O302 O 0.44864 0.44041 1.03899 0.0
O303 O 0.43169 0.44542 0.10227 0.0
O304 O 0.43943 0.41483 0.14539 0.0
O305 O 0.48077 0.43565 0.11105 0.0
O306 O 0.5083 0.44212 1.01903 0.0
O307 O 0.48789 0.40467 0.9819 0.0
O308 O 0.43033 0.37599 0.0714 0.0
O309 O 0.46764 0.38565 0.0952 0.0
O310 O 0.44598 0.41059 0.9639 0.0
O311 O 0.40657 0.40425 0.98953 0.0
H312 H 0.33413 0.35028 0.1548 0.0
H313 H 0.33822 0.35485 0.24175 0.0
H314 H 0.3787 0.43911 0.22746 0.0
H315 H 0.37447 0.43481 0.14083 0.0
H316 H 0.48673 0.45128 0.92668 0.0
H317 H 0.5015 0.47318 0.84851 0.0
H318 H 0.56681 0.45929 0.85132 0.0
H319 H 0.55188 0.43719 0.92961 0.0
Sm320 Sm 0.58976 0.0135 0.07718 0.0
Sm321 Sm 0.58545 0.05913 1.03944 0.0
C322 C 0.59755 0.9776 0.12078 0.0
C323 C 0.6073 0.97343 0.1668 0.0
C324 C 0.6343 0.98526 0.17578 0.0
C325 C 0.64331 0.98849 0.22286 0.0
C326 C 0.62549 0.97976 0.26108 0.0
C327 C 0.59865 0.96344 0.25162 0.0
C328 C 0.58954 0.96041 0.20452 0.0
C329 C 0.53887 2e-05 0.05271 0.0
C330 C 0.57156 0.04648 0.15338 0.0
C331 C 0.56959 0.08416 0.97916 0.0
C332 C 0.55448 0.07791 0.93175 0.0
C333 C 0.52823 0.05728 0.92762 0.0
C334 C 0.51415 0.05154 0.88387 0.0
C335 C 0.52548 0.06663 0.8422 0.0
C336 C 0.55162 0.08765 0.84631 0.0
C337 C 0.56586 0.09305 0.89003 0.0
C338 C 0.62981 0.07675 0.1009 0.0
C339 C 0.58716 0.01601 0.95948 0.0
O340 O 0.61452 0.99492 0.09069 0.0
O341 O 0.57612 0.97893 0.12382 0.0
O342 O 0.55627 0.02085 0.0709 0.0
O343 O 0.54936 0.9859 1.0416 0.0
O344 O 0.5834 0.03218 0.14822 0.0
O345 O 0.56648 0.05658 0.1146 0.0
O346 O 0.55668 0.07176 1.01794 0.0
O347 O 0.59347 0.08757 0.97885 0.0
O348 O 0.62163 0.05718 0.07102 0.0
O349 O 0.61774 0.08965 0.0899 0.0
O350 O 0.58254 0.03534 0.96923 0.0
O351 O 0.59407 0.00588 0.99531 0.0
H352 H 0.64836 0.99481 0.14731 0.0
H353 H 0.664 0.00022 0.22982 0.0
H354 H 0.5846 0.95581 0.28079 0.0
H355 H 0.56853 0.95009 0.19826 0.0
H356 H 0.51838 0.04556 0.95849 0.0
H357 H 0.49419 0.03525 0.88266 0.0
H358 H 0.56119 0.09982 0.81532 0.0
H359 H 0.58584 0.10928 0.89124 0.0
Sm360 Sm 0.57367 0.97384 0.6359 0.0
Sm361 Sm 0.52281 0.93232 0.67534 0.0
C362 C 0.62163 0.00448 0.60165 0.0
C363 C 0.63019 0.00671 0.5518 0.0
C364 C 0.61244 0.9887 0.51876 0.0
C365 C 0.6189 0.99062 0.47066 0.0
C366 C 0.6432 0.01072 0.45442 0.0
C367 C 0.66096 0.02938 0.48702 0.0
C368 C 0.65442 0.02735 0.53584 0.0
C369 C 0.5378 0.98993 0.63393 0.0
C370 C 0.5211 0.94326 0.5624 0.0
C371 C 0.48264 0.90481 0.73542 0.0
C372 C 0.47417 0.90938 0.78415 0.0
C373 C 0.48194 0.93481 0.80127 0.0
C374 C 0.4737 0.93887 0.84659 0.0
C375 C 0.45761 0.9176 0.87678 0.0
C376 C 0.44998 0.89214 0.85997 0.0
C377 C 0.45811 0.88811 0.81443 0.0
C378 C 0.54665 0.91128 0.61202 0.0
C379 C 0.56665 0.97396 0.75562 0.0
O380 O 0.61433 0.98189 0.62209 0.0
O381 O 0.60493 0.01255 0.60913 0.0
O382 O 0.53983 0.97649 0.66816 0.0
O383 O 0.5559 0.99568 0.60219 0.0
O384 O 0.54733 0.95412 0.56599 0.0
O385 O 0.50664 0.93684 0.60213 0.0
O386 O 0.48149 0.91831 0.69889 0.0
O387 O 0.50373 0.90249 0.73383 0.0
O388 O 0.55874 0.93004 0.64275 0.0
O389 O 0.52182 0.90175 0.62071 0.0
O390 O 0.54396 0.95252 0.74752 0.0
O391 O 0.58243 0.98582 0.71853 0.0
H392 H 0.59335 0.9732 0.5301 0.0
H393 H 0.60468 0.9765 0.44575 0.0
H394 H 0.67944 0.04556 0.47459 0.0
H395 H 0.6679 0.04208 0.56069 0.0
H396 H 0.49442 0.95163 0.77954 0.0
H397 H 0.47985 0.95871 0.85806 0.0
H398 H 0.43759 0.87527 0.88207 0.0
H399 H 0.45175 0.86823 0.80282 0.0
Sm400 Sm 0.01961 0.58599 0.64571 0.0
Sm401 Sm 0.06784 0.58994 0.68442 0.0
C402 C 0.98108 0.5876 0.5999 0.0
C403 C 0.97719 0.59406 0.55132 0.0
C404 C 0.96618 0.61016 0.54397 0.0
C405 C 0.96565 0.61919 0.49794 0.0
C406 C 0.97583 0.61176 0.45941 0.0
C407 C 0.98514 0.59424 0.46639 0.0
C408 C 0.98614 0.58569 0.51218 0.0
C409 C 0.01268 0.53742 0.67349 0.0
C410 C 0.0566 0.57338 0.57115 0.0
C411 C 0.09713 0.58151 0.74746 0.0
C412 C 0.09043 0.5661 0.79399 0.0
C413 C 0.0667 0.54213 0.79966 0.0
C414 C 0.06048 0.5278 0.84303 0.0
C415 C 0.07768 0.53692 0.88264 0.0
C416 C 0.10138 0.56095 0.87722 0.0
C417 C 0.10764 0.57528 0.83366 0.0
C418 C 0.08013 0.6324 0.62106 0.0
C419 C 0.02131 0.58645 0.76203 0.0
O420 O -0.00153 0.60718 0.62561 0.0
O421 O 0.98283 0.56641 0.60411 0.0
O422 O 0.03228 0.5561 0.6543 0.0
O423 O 0.99658 0.54573 0.68394 0.0
O424 O 0.03961 0.58214 0.57497 0.0
O425 O 0.06835 0.57113 0.61046 0.0
O426 O 0.08809 0.56814 0.70759 0.0
O427 O 0.09566 0.60308 0.74703 0.0
O428 O 0.06077 0.62256 0.65138 0.0
O429 O 0.09495 0.6224 0.63151 0.0
O430 O 0.04224 0.58419 0.75364 0.0
O431 O 0.01019 0.59119 0.72521 0.0
H432 H 0.9591 0.61664 0.57398 0.0
H433 H 0.95817 0.63253 0.49259 0.0
H434 H 0.99293 0.58834 0.43665 0.0
H435 H 0.99474 0.57327 0.51701 0.0
H436 H 0.0527 0.53444 0.77062 0.0
H437 H 0.04208 0.50947 0.8457 0.0
H438 H 0.11514 0.56866 0.9068 0.0
H439 H 0.12603 0.59362 0.83101 0.0
Sm440 Sm 0.40639 0.43125 0.63545 0.0
Sm441 Sm 0.40764 0.47846 0.67764 0.0
C442 C 0.40088 0.39214 0.58072 0.0
C443 C 0.40016 0.39042 0.52829 0.0
C444 C 0.37807 0.37021 0.50538 0.0
C445 C 0.37461 0.37169 0.45623 0.0
C446 C 0.39327 0.39332 0.42992 0.0
C447 C 0.41615 0.41261 0.45201 0.0
C448 C 0.41962 0.41119 0.50096 0.0
C449 C 0.45553 0.46849 0.66664 0.0
C450 C 0.42319 0.48461 0.5644 0.0
C451 C 0.4242 0.51763 0.74118 0.0
C452 C 0.43995 0.52454 0.78766 0.0
C453 C 0.46647 0.54491 0.78894 0.0
C454 C 0.48141 0.55173 0.83178 0.0
C455 C 0.47033 0.53874 0.87538 0.0
C456 C 0.44379 0.51854 0.87437 0.0
C457 C 0.42895 0.51141 0.83134 0.0
C458 C 0.36291 0.45039 0.61819 0.0
C459 C 0.40444 0.43109 0.75214 0.0
O460 O 0.38101 0.3925 0.60077 0.0
O461 O 0.42323 0.40954 0.59907 0.0
O462 O 0.43872 0.47214 0.64596 0.0
O463 O 0.44539 0.44367 0.67557 0.0
O464 O 0.41574 0.45908 0.56742 0.0
O465 O 0.42362 0.49782 0.60346 0.0
O466 O 0.43674 0.51919 0.70132 0.0
O467 O 0.40008 0.49758 0.74071 0.0
O468 O 0.37273 0.43993 0.64637 0.0
O469 O 0.37439 0.4754 0.62865 0.0
O470 O 0.40785 0.45481 0.74523 0.0
O471 O 0.39986 0.41563 0.71452 0.0
H472 H 0.36279 0.35422 0.52591 0.0
H473 H 0.35676 0.35678 0.43924 0.0
H474 H 0.43056 0.42945 0.43189 0.0
H475 H 0.4368 0.42721 0.51767 0.0
H476 H 0.47569 0.55587 0.75662 0.0
H477 H 0.50159 0.56761 0.83105 0.0
H478 H 0.43441 0.50828 0.9072 0.0
H479 H 0.40871 0.4957 0.83251 0.0
Sm480 Sm 0.73221 0.80564 0.50728 0.0
Sm481 Sm 0.68769 0.75881 0.46527 0.0
C482 C 0.75857 0.84546 0.5682 0.0
C483 C 0.75282 0.85303 0.61653 0.0
C484 C 0.72686 0.84334 0.63299 0.0
C485 C 0.72172 0.8513 0.67766 0.0
C486 C 0.7424 0.86907 0.70748 0.0
C487 C 0.76831 0.87859 0.69113 0.0
C488 C 0.77343 0.87071 0.6464 0.0
C489 C 0.7502 0.77952 0.44551 0.0
C490 C 0.68785 0.75966 0.58354 0.0
C491 C 0.65483 0.7159 0.41689 0.0
C492 C 0.65496 0.70602 0.36909 0.0
C493 C 0.67391 0.7228 0.33634 0.0
C494 C 0.67366 0.71459 0.28977 0.0
C495 C 0.65432 0.6895 0.27499 0.0
C496 C 0.63522 0.67247 0.30765 0.0
C497 C 0.6357 0.68069 0.35497 0.0
C498 C 0.67383 0.79539 0.4925 0.0
C499 C 0.72268 0.81159 0.39318 0.0
O500 O 0.74499 0.8464 0.53169 0.0
O501 O 0.76181 0.82491 0.56617 0.0
O502 O 0.73027 0.7681 0.47424 0.0
O503 O 0.76259 0.80441 0.45629 0.0
O504 O 0.70784 0.78357 0.57654 0.0
O505 O 0.67779 0.74431 0.54553 0.0
O506 O 0.6725 0.71691 0.44654 0.0
O507 O 0.65337 0.7373 0.41753 0.0
O508 O 0.69503 0.7996 0.47434 0.0
O509 O 0.65981 0.77059 0.50216 0.0
O510 O 0.70509 0.78593 0.39626 0.0
O511 O 0.73518 0.82473 0.43259 0.0
H512 H 0.71047 0.82965 0.61117 0.0
H513 H 0.70155 0.84355 0.68901 0.0
H514 H 0.78469 0.89228 0.71302 0.0
H515 H 0.79361 0.87862 0.63499 0.0
H516 H 0.68874 0.74243 0.34665 0.0
H517 H 0.6882 0.72814 0.26466 0.0
H518 H 0.61974 0.65333 0.29623 0.0
H519 H 0.62074 0.66767 0.38001 0.0
Sm520 Sm 0.19905 0.91802 0.50312 0.0
Sm521 Sm 0.25138 0.92835 0.46761 0.0
C522 C 0.15738 0.90286 0.56053 0.0
C523 C 0.14867 0.8892 0.60865 0.0
C524 C 0.16267 0.87885 0.63275 0.0
C525 C 0.15428 0.8663 0.6779 0.0
C526 C 0.13166 0.86381 0.70072 0.0
C527 C 0.11764 0.87404 0.67647 0.0
C528 C 0.126 0.8865 0.63131 0.0
C529 C 0.22285 0.96175 0.43849 0.0
C530 C 0.24228 0.92326 0.58748 0.0
C531 C 0.30198 0.94842 0.44614 0.0
C532 C 0.31725 0.95546 0.40125 0.0
C533 C 0.32682 0.98062 0.38204 0.0
C534 C 0.33006 0.98432 0.33275 0.0
C535 C 0.32466 0.96303 0.30301 0.0
C536 C 0.32173 0.93987 0.3233 0.0
C537 C 0.31765 0.93592 0.37263 0.0
C538 C 0.21665 0.87641 0.46889 0.0
C539 C 0.1993 0.90385 0.39067 0.0
O540 O 0.15777 0.88899 0.52396 0.0
O541 O 0.17763 0.92679 0.56015 0.0
O542 O 0.23503 0.95615 0.47076 0.0
O543 O 0.19794 0.94735 0.44756 0.0
O544 O 0.21974 0.92196 0.57721 0.0
O545 O 0.25828 0.92627 0.55131 0.0
O546 O 0.29153 0.9628 0.45796 0.0
O547 O 0.28572 0.92345 0.45263 0.0
O548 O 0.21823 0.89273 0.50105 0.0
O549 O 0.23527 0.88789 0.43742 0.0
O550 O 0.22559 0.91843 0.39522 0.0
O551 O 0.18436 0.89673 0.42983 0.0
H552 H 0.18018 0.88044 0.61677 0.0
H553 H 0.16559 0.85867 0.69525 0.0
H554 H 0.10016 0.87248 0.69268 0.0
H555 H 0.11467 0.89414 0.61407 0.0
H556 H 0.32847 0.99641 0.4041 0.0
H557 H 0.33364 0.00276 0.31753 0.0
H558 H 0.3185 0.92355 0.30062 0.0
H559 H 0.31171 0.91663 0.38705 0.0
Sm560 Sm 0.07164 0.26952 0.51102 0.0
Sm561 Sm 0.07345 0.31734 0.46767 0.0
C562 C 0.08262 0.24175 0.57398 0.0
C563 C 0.09682 0.24653 0.62175 0.0
C564 C 0.09738 0.26447 0.65615 0.0
C565 C 0.11093 0.26874 0.70027 0.0
C566 C 0.12439 0.25518 0.71183 0.0
C567 C 0.12387 0.23726 0.67749 0.0
C568 C 0.11039 0.23307 0.63331 0.0
C569 C 0.02877 0.25632 0.44804 0.0
C570 C 0.07237 0.31535 0.58628 0.0
C571 C 0.0669 0.35361 0.42188 0.0
C572 C 0.05459 0.35732 0.37876 0.0
C573 C 0.02829 0.33966 0.36777 0.0
C574 C 0.01924 0.33767 0.32092 0.0
C575 C 0.03645 0.35343 0.28484 0.0
C576 C 0.06102 0.37469 0.2979 0.0
C577 C 0.07025 0.37636 0.34475 0.0
C578 C 0.12216 0.32693 0.49821 0.0
C579 C 0.0898 0.27902 0.39877 0.0
O580 O 0.09696 0.25324 0.536 0.0
O581 O 0.06011 0.24148 0.57285 0.0
O582 O 0.03873 0.27601 0.47719 0.0
O583 O 0.03802 0.24096 0.4598 0.0
O584 O 0.07564 0.29499 0.57898 0.0
O585 O 0.06799 0.3263 0.54842 0.0
O586 O 0.05141 0.33866 0.45608 0.0
O587 O 0.08641 0.34942 0.41404 0.0
O588 O 0.10413 0.30648 0.47987 0.0
O589 O 0.11329 0.34283 0.50626 0.0
O590 O 0.0827 0.29753 0.40031 0.0
O591 O 0.08904 0.26607 0.43844 0.0
H592 H 0.08739 0.2753 0.64906 0.0
H593 H 0.11086 0.28272 0.72554 0.0
H594 H 0.13401 0.2265 0.68482 0.0
H595 H 0.11059 0.21919 0.60799 0.0
H596 H 0.01584 0.32531 0.39384 0.0
H597 H 4e-05 0.32167 0.31165 0.0
H598 H 0.07438 0.38758 0.27065 0.0
H599 H 0.09043 0.3908 0.35299 0.0
Sm600 Sm 0.13847 0.39782 0.86913 0.0
Sm601 Sm 0.09286 0.34962 0.91018 0.0
C602 C 0.17767 0.42528 0.80721 0.0
C603 C 0.1859 0.41945 0.75928 0.0
C604 C 0.17448 0.39369 0.74073 0.0
C605 C 0.18327 0.38833 0.69709 0.0
C606 C 0.20353 0.4086 0.66994 0.0
C607 C 0.21464 0.43439 0.68811 0.0
C608 C 0.20607 0.43969 0.73207 0.0
C609 C 0.11016 0.41138 0.93397 0.0
C610 C 0.09297 0.35369 0.79194 0.0
C611 C 0.05067 0.31178 0.9547 0.0
C612 C 0.0348 0.30756 0.99833 0.0
C613 C 0.02322 0.32298 1.00771 0.0
C614 C 0.01619 0.32528 0.05441 0.0
C615 C 0.01965 0.31139 0.09174 0.0
C616 C 0.026 0.29188 0.0805 0.0
C617 C 0.03409 0.29035 1.03402 0.0
C618 C 0.13229 0.34092 0.87667 0.0
C619 C 0.14569 0.38651 0.98227 0.0
O620 O 0.17979 0.41304 0.84476 0.0
O621 O 0.15612 0.42684 0.80878 0.0
O622 O 0.09957 0.39166 0.90457 0.0
O623 O 0.13468 0.42635 0.92151 0.0
O624 O 0.11618 0.37461 0.79937 0.0
O625 O 0.07827 0.34164 0.82984 0.0
O626 O 0.04953 0.32673 0.92108 0.0
O627 O 0.07458 0.31633 0.96165 0.0
O628 O 0.13445 0.36071 0.89741 0.0
O629 O 0.10753 0.32511 0.86894 0.0
O630 O 0.12064 0.36707 0.97867 0.0
O631 O 0.1579 0.40078 0.94362 0.0
H632 H 0.15876 0.37756 0.76006 0.0
H633 H 0.17409 0.36827 0.68432 0.0
H634 H 0.23018 0.45052 0.66833 0.0
H635 H 0.21539 0.45973 0.74496 0.0
H636 H 0.02258 0.33565 0.98042 0.0
H637 H 0.01094 0.34003 0.06231 0.0
H638 H 0.02814 0.28042 0.10876 0.0
H639 H 0.042 0.27749 1.02713 0.0
Sm640 Sm 0.59906 0.73553 0.8634 0.0
Sm641 Sm 0.64596 0.73638 0.90536 0.0
C642 C 0.57187 0.74773 0.80131 0.0
C643 C 0.57745 0.76196 0.75357 0.0
C644 C 0.60319 0.77712 0.73528 0.0
C645 C 0.60809 0.79088 0.69124 0.0
C646 C 0.58742 0.79002 0.6639 0.0
C647 C 0.56173 0.77487 0.68218 0.0
C648 C 0.55684 0.7611 0.72615 0.0
C649 C 0.58421 0.69171 0.92498 0.0
C650 C 0.64492 0.73693 0.78689 0.0
C651 C 0.68385 0.73101 0.94742 0.0
C652 C 0.68991 0.71965 0.98909 0.0
C653 C 0.67596 0.69255 0.99772 0.0
C654 C 0.67374 0.68343 0.04455 0.0
C655 C 0.68604 0.70126 0.08218 0.0
C656 C 0.7048 0.72732 0.07162 0.0
C657 C 0.70652 0.73661 1.02497 0.0
C658 C 0.65611 0.78573 0.87738 0.0
C659 C 0.60873 0.75229 0.97724 0.0
O660 O 0.58402 0.76187 0.83912 0.0
O661 O 0.57049 0.72471 0.80233 0.0
O662 O 0.6042 0.70154 0.89621 0.0
O663 O 0.56974 0.70207 0.91375 0.0
O664 O 0.62438 0.73994 0.7944 0.0
O665 O 0.65542 0.7319 0.82458 0.0
O666 O 0.66851 0.71517 0.91392 0.0
O667 O 0.6785 0.74952 0.95735 0.0
O668 O 0.63569 0.76774 0.8957 0.0
O669 O 0.67151 0.77653 0.86766 0.0
O670 O 0.62681 0.7446 0.97482 0.0
O671 O 0.59595 0.75217 0.9376 0.0
H672 H 0.61965 0.77847 0.75513 0.0
H673 H 0.62812 0.80223 0.67846 0.0
H674 H 0.54531 0.77366 0.6623 0.0
H675 H 0.53681 0.7498 0.7389 0.0
H676 H 0.6639 0.67893 0.97006 0.0
H677 H 0.6595 0.66322 0.052 0.0
H678 H 0.71502 0.7412 0.10027 0.0
H679 H 0.71837 0.75751 1.01836 0.0
Sm680 Sm 0.25426 0.85356 0.87068 0.0
Sm681 Sm 0.25638 0.90186 0.91264 0.0
C682 C 0.23799 0.81337 0.80941 0.0
C683 C 0.22346 0.80638 0.76201 0.0
C684 C 0.21012 0.8193 0.74551 0.0
C685 C 0.19551 0.81175 0.70226 0.0
C686 C 0.19395 0.79117 0.67369 0.0
C687 C 0.20745 0.77841 0.69005 0.0
C688 C 0.22189 0.78585 0.73346 0.0
C689 C 0.29797 0.88045 0.93307 0.0
C690 C 0.25826 0.90095 0.79425 0.0
C691 C 0.26462 0.94297 0.96502 0.0
C692 C 0.2732 0.94943 1.01464 0.0
C693 C 0.27892 0.93242 1.04015 0.0
C694 C 0.28676 0.93745 0.08759 0.0
C695 C 0.28843 0.95932 0.11068 0.0
C696 C 0.28116 0.97564 0.08629 0.0
C697 C 0.274 0.97097 1.03785 0.0
C698 C 0.20688 0.86439 0.88311 0.0
C699 C 0.23789 0.8482 0.98456 0.0
O700 O 0.22463 0.81314 0.84729 0.0
O701 O 0.26225 0.83316 0.81031 0.0
O702 O 0.28898 0.8914 0.90421 0.0
O703 O 0.28636 0.85559 0.92157 0.0
O704 O 0.25405 0.87693 0.80183 0.0
O705 O 0.26284 0.91647 0.83202 0.0
O706 O 0.28201 0.94346 0.93514 0.0
O707 O 0.2418 0.92189 0.96034 0.0
O708 O 0.22431 0.86124 0.90202 0.0
O709 O 0.2165 0.88929 0.87519 0.0
O710 O 0.24591 0.87387 0.98095 0.0
O711 O 0.2379 0.83498 0.94569 0.0
H712 H 0.21086 0.83522 0.76622 0.0
H713 H 0.18547 0.82209 0.69095 0.0
H714 H 0.20675 0.76253 0.66917 0.0
H715 H 0.23175 0.77536 0.7449 0.0
H716 H 0.27744 0.91527 1.02315 0.0
H717 H 0.29138 0.92416 0.10655 0.0
H718 H 0.28123 0.9919 0.10464 0.0
H719 H 0.26879 0.98382 1.01887 0.0
Sm720 Sm 0.64087 0.89849 0.40324 0.0
Sm721 Sm 0.59532 0.85255 0.36262 0.0
C722 C 0.67626 0.94128 0.44867 0.0
C723 C 0.67842 0.95218 0.49619 0.0
C724 C 0.66063 0.93638 0.53135 0.0
C725 C 0.66317 0.9456 0.57771 0.0
C726 C 0.68355 0.97073 0.58975 0.0
C727 C 0.70165 0.98662 0.55474 0.0
C728 C 0.69895 0.97737 0.50769 0.0
C729 C 0.65282 0.86051 0.37556 0.0
C730 C 0.60568 0.84646 0.47667 0.0
C731 C 0.56896 0.81312 0.30068 0.0
C732 C 0.57542 0.80557 0.25271 0.0
C733 C 0.60157 0.81627 0.23643 0.0
C734 C 0.60743 0.80835 0.19231 0.0
C735 C 0.58734 0.78947 0.16283 0.0
C736 C 0.56123 0.77888 0.17899 0.0
C737 C 0.55538 0.7868 0.22311 0.0
C738 C 0.57875 0.8797 0.42545 0.0
C739 C 0.6402 0.89787 0.28537 0.0
O740 O 0.65812 0.94083 0.42104 0.0
O741 O 0.67636 0.91918 0.44814 0.0
O742 O 0.63208 0.85715 0.39435 0.0
O743 O 0.66729 0.88514 0.36522 0.0
O744 O 0.62355 0.87205 0.47321 0.0
O745 O 0.59272 0.83338 0.43744 0.0
O746 O 0.58154 0.81152 0.33821 0.0
O747 O 0.56635 0.83405 0.30239 0.0
O748 O 0.59854 0.89067 0.39615 0.0
O749 O 0.56561 0.8548 0.41451 0.0
O750 O 0.61985 0.87421 0.29284 0.0
O751 O 0.65053 0.91323 0.32319 0.0
H752 H 0.64492 0.91677 0.52309 0.0
H753 H 0.64941 0.93283 0.60467 0.0
H754 H 0.71806 0.00562 0.5641 0.0
H755 H 0.71317 0.98947 0.48079 0.0
H756 H 0.61758 0.83069 0.25803 0.0
H757 H 0.62774 0.81694 0.18123 0.0
H758 H 0.54525 0.7643 0.15746 0.0
H759 H 0.53507 0.77803 0.2343 0.0
Sm760 Sm 0.08283 0.73778 0.41143 0.0
Sm761 Sm 0.13076 0.74228 0.37269 0.0
C762 C 0.03327 0.72391 0.43333 0.0
C763 C 0.01719 0.71591 0.47734 0.0
C764 C 0.00493 0.68964 0.49203 0.0
C765 C 0.00152 0.68375 0.5407 0.0
C766 C 0.0091 0.70395 0.57425 0.0
C767 C 0.0143 0.72881 0.55863 0.0
C768 C 0.0188 0.73496 0.50992 0.0
C769 C 0.12004 0.78871 0.40806 0.0
C770 C 0.13448 0.75744 0.48713 0.0
C771 C 0.17234 0.75715 0.31505 0.0
C772 C 0.18106 0.77043 0.26666 0.0
C773 C 0.16685 0.78024 0.24162 0.0
C774 C 0.17563 0.79298 0.19669 0.0
C775 C 0.19883 0.7962 0.17509 0.0
C776 C 0.21302 0.78649 0.20031 0.0
C777 C 0.2043 0.77386 0.24523 0.0
C778 C 0.10653 0.69945 0.43923 0.0
C779 C 0.08831 0.73854 0.29079 0.0
O780 O 0.04037 0.7076 0.41669 0.0
O781 O 0.05258 0.74804 0.43229 0.0
O782 O 0.11669 0.77211 0.37504 0.0
O783 O 0.10321 0.77797 0.44261 0.0
O784 O 0.10815 0.74646 0.48395 0.0
O785 O 0.14795 0.76014 0.44723 0.0
O786 O 0.17176 0.77141 0.35071 0.0
O787 O 0.15225 0.73312 0.31624 0.0
O788 O 0.09434 0.70584 0.40815 0.0
O789 O 0.13149 0.71346 0.42959 0.0
O790 O 0.10756 0.73379 0.30018 0.0
O791 O 0.0761 0.74169 0.32812 0.0
H792 H 0.0017 0.67433 0.46699 0.0
H793 H 0.99669 0.66433 0.55226 0.0
H794 H 0.01922 0.74445 0.58428 0.0
H795 H 0.02681 0.75523 0.49904 0.0
H796 H 0.14893 0.7781 0.25681 0.0
H797 H 0.16417 0.8002 0.17858 0.0
H798 H 0.23094 0.78861 0.18508 0.0
H799 H 0.21585 0.76673 0.26335 0.0
Sm800 Sm 0.25821 0.35405 0.40846 0.0
Sm801 Sm 0.25637 0.39919 0.36833 0.0
C802 C 0.27017 0.32086 0.44988 0.0
C803 C 0.28313 0.31938 0.49315 0.0
C804 C 0.28355 0.33367 0.53355 0.0
C805 C 0.29161 0.32901 0.57722 0.0
C806 C 0.29895 0.30975 0.58119 0.0
C807 C 0.30057 0.2969 0.54019 0.0
C808 C 0.29264 0.30175 0.49594 0.0
C809 C 0.20759 0.34112 0.38392 0.0
C810 C 0.24072 0.38854 0.48291 0.0
C811 C 0.2435 0.42602 0.30755 0.0
C812 C 0.23056 0.41995 0.2588 0.0
C813 C 0.21452 0.39386 0.24294 0.0
C814 C 0.20155 0.38827 0.19814 0.0
C815 C 0.20433 0.40859 0.16754 0.0
C816 C 0.22073 0.43468 0.18295 0.0
C817 C 0.23361 0.44026 0.22789 0.0
C818 C 0.29917 0.41625 0.4328 0.0
C819 C 0.25669 0.35457 0.28995 0.0
O820 O 0.2851 0.33784 0.41757 0.0
O821 O 0.24816 0.32079 0.45689 0.0
O822 O 0.22523 0.36224 0.40079 0.0
O823 O 0.21741 0.32613 0.37492 0.0
O824 O 0.24841 0.37057 0.47897 0.0
O825 O 0.24031 0.40147 0.44381 0.0
O826 O 0.22874 0.41245 0.34384 0.0
O827 O 0.26733 0.42939 0.31042 0.0
O828 O 0.29139 0.39684 0.40288 0.0
O829 O 0.28698 0.4289 0.42131 0.0
O830 O 0.25381 0.37519 0.29781 0.0
O831 O 0.26159 0.34398 0.32757 0.0
H832 H 0.27641 0.34747 0.53185 0.0
H833 H 0.29013 0.33898 0.60881 0.0
H834 H 0.30611 0.282 0.54311 0.0
H835 H 0.2924 0.29064 0.46472 0.0
H836 H 0.2118 0.3777 0.26541 0.0
H837 H 0.18911 0.36799 0.18752 0.0
H838 H 0.22327 0.45079 0.16042 0.0
H839 H 0.24577 0.46054 0.23874 0.0
Sm840 Sm 0.2345 0.30799 0.96915 0.0
Sm841 Sm 0.18695 0.26488 1.01231 0.0
C842 C 0.2751 0.33749 0.91345 0.0
C843 C 0.2798 0.33182 0.86483 0.0
C844 C 0.26294 0.30681 0.84672 0.0
C845 C 0.2664 0.30001 0.80103 0.0
C846 C 0.28639 0.31836 0.7717 0.0
C847 C 0.30229 0.34421 0.78848 0.0
C848 C 0.29931 0.35085 0.83542 0.0
C849 C 0.19895 0.32353 0.99502 0.0
C850 C 0.18075 0.27367 0.89886 0.0
C851 C 0.1479 0.2391 0.07496 0.0
C852 C 0.1406 0.24579 0.12265 0.0
C853 C 0.15171 0.27197 0.13875 0.0
C854 C 0.14423 0.27799 0.18309 0.0
C855 C 0.12545 0.25799 0.21273 0.0
C856 C 0.11442 0.23185 0.19664 0.0
C857 C 0.12189 0.22585 0.15235 0.0
C858 C 0.21231 0.24548 0.95078 0.0
C859 C 0.23422 0.31001 0.08689 0.0
O860 O 0.27545 0.32175 0.9463 0.0
O861 O 0.25475 0.34067 0.9173 0.0
O862 O 0.19426 0.30194 0.97821 0.0
O863 O 0.22392 0.33745 1.00347 0.0
O864 O 0.20691 0.2878 0.90145 0.0
O865 O 0.16703 0.26466 0.93935 0.0
O866 O 0.1461 0.25144 1.03728 0.0
O867 O 0.16891 0.23665 0.07344 0.0
O868 O 0.22393 0.26523 0.97982 0.0
O869 O 0.18738 0.23414 0.96088 0.0
O870 O 0.20966 0.29114 0.07982 0.0
O871 O 0.25005 0.3184 0.04905 0.0
H872 H 0.24712 0.29238 0.86823 0.0
H873 H 0.25317 0.28037 0.78823 0.0
H874 H 0.31713 0.359 0.76548 0.0
H875 H 0.31197 0.37061 0.84851 0.0
H876 H 0.16613 0.28786 0.11696 0.0
H877 H 0.15311 0.29831 0.19425 0.0
H878 H 0.09989 0.21599 0.21845 0.0
H879 H 0.11289 0.20553 0.14117 0.0
Sm880 Sm 0.68516 0.9213 0.96424 0.0
Sm881 Sm 0.73108 0.9219 1.00746 0.0
C882 C 0.64944 0.92811 0.91733 0.0
C883 C 0.64683 0.94101 0.87426 0.0
C884 C 0.66449 0.9676 0.86558 0.0
C885 C 0.66776 0.97751 0.81931 0.0
C886 C 0.65361 0.96081 0.78143 0.0
C887 C 0.6325 0.93565 0.79141 0.0
C888 C 0.62929 0.92565 0.83792 0.0
C889 C 0.67334 0.87178 0.99294 0.0
C890 C 0.72284 0.90472 0.89502 0.0
C891 C 0.75887 0.91138 0.0708 0.0
C892 C 0.75301 0.8969 0.11806 0.0
C893 C 0.72704 0.88067 0.13445 0.0
C894 C 0.72183 0.86674 0.17823 0.0
C895 C 0.74242 0.86849 0.20699 0.0
C896 C 0.76834 0.88472 0.19065 0.0
C897 C 0.77354 0.89869 0.14694 0.0
C898 C 0.74646 0.96578 0.94582 0.0
C899 C 0.68458 0.92004 0.08255 0.0
O900 O 0.66375 0.94314 0.95257 0.0
O901 O 0.65383 0.90878 0.90931 0.0
O902 O 0.69444 0.88922 0.97524 0.0
O903 O 0.65845 0.88167 1.00189 0.0
O904 O 0.70488 0.91248 0.89648 0.0
O905 O 0.73503 0.90454 0.9351 0.0
O906 O 0.74786 0.89722 1.03243 0.0
O907 O 0.75886 0.93372 0.06986 0.0
O908 O 0.72653 0.95623 0.97455 0.0
O909 O 0.76057 0.95502 0.95656 0.0
O910 O 0.70457 0.91612 0.07536 0.0
O911 O 0.67495 0.92597 0.0446 0.0
H912 H 0.678 0.9798 0.893 0.0
H913 H 0.68351 0.99716 0.81206 0.0
H914 H 0.62101 0.9227 0.76246 0.0
H915 H 0.61502 0.9052 0.84429 0.0
H916 H 0.71068 0.87863 0.11333 0.0
H917 H 0.70165 0.85455 0.18967 0.0
H918 H 0.78466 0.88662 0.21183 0.0
H919 H 0.79373 0.91086 0.13557 0.0
Sm920 Sm 0.07373 0.75812 0.96455 0.0
Sm921 Sm 0.07836 0.80775 1.006 0.0
C922 C 0.06419 0.7165 0.91235 0.0
C923 C 0.05755 0.71097 0.8617 0.0
C924 C 0.0545 0.72932 0.83484 0.0
C925 C 0.04889 0.72541 0.78636 0.0
C926 C 0.04569 0.70272 0.76399 0.0
C927 C 0.05036 0.68495 0.78993 0.0
C928 C 0.05599 0.68891 0.83909 0.0
C929 C 0.12357 0.79387 0.99463 0.0
C930 C 0.09431 0.81232 0.89227 0.0
C931 C 0.09716 0.84799 0.06746 0.0
C932 C 0.11283 0.85497 0.11409 0.0
C933 C 0.14 0.87355 0.11465 0.0
C934 C 0.15474 0.88078 0.15779 0.0
C935 C 0.14291 0.8698 0.20228 0.0
C936 C 0.11582 0.8511 0.20183 0.0
C937 C 0.10107 0.84381 0.15867 0.0
C938 C 0.03433 0.78219 0.9437 0.0
C939 C 0.07243 0.75978 0.08302 0.0
O940 O 0.04645 0.7174 0.93929 0.0
O941 O 0.08759 0.73629 0.9199 0.0
O942 O 0.10698 0.7981 0.97504 0.0
O943 O 0.11295 0.76886 1.00265 0.0
O944 O 0.08561 0.7865 0.89625 0.0
O945 O 0.09488 0.82591 0.93096 0.0
O946 O 0.10938 0.84804 1.02801 0.0
O947 O 0.07249 0.82895 0.06758 0.0
O948 O 0.04253 0.77052 0.97268 0.0
O949 O 0.04669 0.80704 0.9555 0.0
O950 O 0.07833 0.7843 0.07487 0.0
O951 O 0.06637 0.74375 0.04553 0.0
H952 H 0.05602 0.74651 0.85165 0.0
H953 H 0.04627 0.73975 0.7664 0.0
H954 H 0.04917 0.66797 0.77234 0.0
H955 H 0.05911 0.67494 0.85924 0.0
H956 H 0.14993 0.88283 0.08153 0.0
H957 H 0.17542 0.89537 0.15649 0.0
H958 H 0.10591 0.84239 0.23526 0.0
H959 H 0.08031 0.82961 0.16042 0.0
Sm960 Sm 0.40051 0.14279 0.8466 0.0
Sm961 Sm 0.3519 0.10091 0.80956 0.0
C962 C 0.42876 0.18079 0.90977 0.0
C963 C 0.42211 0.18958 0.95686 0.0
C964 C 0.41265 0.20753 0.95755 0.0
C965 C 0.40672 0.21594 1.00112 0.0
C966 C 0.4102 0.20698 0.04598 0.0
C967 C 0.41962 0.18907 0.04552 0.0
C968 C 0.42542 0.18052 1.00191 0.0
C969 C 0.41166 0.11225 0.78205 0.0
C970 C 0.35489 0.10091 0.92539 0.0
C971 C 0.31026 0.06211 0.76745 0.0
C972 C 0.30292 0.05309 0.71852 0.0
C973 C 0.31377 0.07116 0.68084 0.0
C974 C 0.30821 0.06256 0.6339 0.0
C975 C 0.29193 0.03583 0.62421 0.0
C976 C 0.28 0.01787 0.66164 0.0
C977 C 0.28556 0.02651 0.70902 0.0
C978 C 0.34633 0.14246 0.83978 0.0
C979 C 0.3903 0.15071 0.73383 0.0
O980 O 0.41932 0.18475 0.86996 0.0
O981 O 0.42863 0.15833 0.90878 0.0
O982 O 0.39205 0.1027 0.81193 0.0
O983 O 0.42763 0.13663 0.79423 0.0
O984 O 0.37618 0.12361 0.91709 0.0
O985 O 0.34318 0.08546 0.88852 0.0
O986 O 0.32881 0.05893 0.78648 0.0
O987 O 0.3131 0.08516 0.77595 0.0
O988 O 0.36551 0.14353 0.81822 0.0
O989 O 0.33145 0.11855 0.85408 0.0
O990 O 0.36924 0.12679 0.73919 0.0
O991 O 0.40555 0.16225 0.77171 0.0
H992 H 0.40995 0.21534 0.92423 0.0
H993 H 0.39963 0.22977 0.99975 0.0
H994 H 0.42265 0.18173 0.07915 0.0
H995 H 0.43269 0.16684 1.00359 0.0
H996 H 0.32716 0.09179 0.68761 0.0
H997 H 0.31777 0.07653 0.60507 0.0
H998 H 0.26795 0.99721 0.65405 0.0
H999 H 0.27709 0.01244 0.73802 0.0
Sm1000 Sm 0.85459 0.25438 0.84571 0.0
Sm1001 Sm 0.90541 0.26143 0.80502 0.0
C1002 C 0.81334 0.23778 0.90495 0.0
C1003 C 0.80462 0.22321 0.95221 0.0
C1004 C 0.8216 0.21862 0.98132 0.0
C1005 C 0.81309 0.20514 1.02555 0.0
C1006 C 0.78718 0.19555 1.04216 0.0
C1007 C 0.77012 0.19988 1.01278 0.0
C1008 C 0.77871 0.21349 0.9687 0.0
C1009 C 0.88055 0.29948 0.78592 0.0
C1010 C 0.90204 0.25893 0.92166 0.0
C1011 C 0.95021 0.27484 0.76132 0.0
C1012 C 0.96075 0.28597 0.71492 0.0
C1013 C 0.94663 0.29418 0.68646 0.0
C1014 C 0.95438 0.30202 0.63978 0.0
C1015 C 0.97573 0.30071 0.62052 0.0
C1016 C 0.99059 0.29346 0.64938 0.0
C1017 C 0.98319 0.28625 0.69702 0.0
C1018 C 0.86934 0.21 0.82906 0.0
C1019 C 0.85348 0.24229 0.73086 0.0
O1020 O 0.81365 0.22453 0.86735 0.0
O1021 O 0.83354 0.26176 0.90541 0.0
O1022 O 0.89171 0.29117 0.81559 0.0
O1023 O 0.85552 0.28629 0.79566 0.0
O1024 O 0.87724 0.25179 0.91331 0.0
O1025 O 0.91873 0.26747 0.88541 0.0
O1026 O 0.94721 0.2904 0.79104 0.0
O1027 O 0.92969 0.25135 0.75916 0.0
O1028 O 0.86541 0.22721 0.81187 0.0
O1029 O 0.8943 0.22051 0.8372 0.0
O1030 O 0.87975 0.25536 0.73493 0.0
O1031 O 0.83869 0.23562 0.77043 0.0
H1032 H 0.84155 0.22543 0.97014 0.0
H1033 H 0.82684 0.20227 0.04698 0.0
H1034 H 0.75007 0.19283 1.02417 0.0
H1035 H 0.76499 0.21649 0.94742 0.0
H1036 H 0.92884 0.2932 0.69961 0.0
H1037 H 0.94248 0.30714 0.61744 0.0
H1038 H 0.00668 0.29184 0.6342 0.0
H1039 H 0.99404 0.27967 0.71894 0.0
Sm1040 Sm 0.73923 0.60239 0.84026 0.0
Sm1041 Sm 0.73642 0.64913 0.79907 0.0
C1042 C 0.75293 0.5772 0.90375 0.0
C1043 C 0.76713 0.58365 0.95209 0.0
C1044 C 0.79484 0.5961 0.95517 0.0
C1045 C 0.80795 0.60113 0.99998 0.0
C1046 C 0.79393 0.5938 0.04367 0.0
C1047 C 0.7663 0.58159 1.0408 0.0
C1048 C 0.75318 0.57662 0.99599 0.0
C1049 C 0.69476 0.58614 0.78026 0.0
C1050 C 0.7404 0.64776 0.91714 0.0
C1051 C 0.72406 0.68351 0.76135 0.0
C1052 C 0.71699 0.68956 0.71421 0.0
C1053 C 0.69054 0.67863 0.70126 0.0
C1054 C 0.68367 0.67567 0.65286 0.0
C1055 C 0.70331 0.68468 0.61769 0.0
C1056 C 0.72953 0.70142 0.63114 0.0
C1057 C 0.73646 0.7034 0.67944 0.0
C1058 C 0.78701 0.66041 0.82085 0.0
C1059 C 0.75524 0.61343 0.72613 0.0
O1060 O 0.76675 0.58883 0.86518 0.0
O1061 O 0.72926 0.57436 0.90185 0.0
O1062 O 0.70409 0.60606 0.80941 0.0
O1063 O 0.70591 0.57231 0.79087 0.0
O1064 O 0.74556 0.62876 0.90824 0.0
O1065 O 0.73259 0.65683 0.88104 0.0
O1066 O 0.70692 0.66189 0.78282 0.0
O1067 O 0.74772 0.68734 0.76503 0.0
O1068 O 0.76823 0.63961 0.80571 0.0
O1069 O 0.77869 0.67686 0.82826 0.0
O1070 O 0.74658 0.63091 0.72905 0.0
O1071 O 0.75618 0.60093 0.76549 0.0
H1072 H 0.80655 0.6018 0.92274 0.0
H1073 H 0.82918 0.61053 1.00046 0.0
H1074 H 0.75475 0.57567 0.07343 0.0
H1075 H 0.73193 0.56697 0.99579 0.0
H1076 H 0.67527 0.66991 0.7281 0.0
H1077 H 0.66319 0.66422 0.64285 0.0
H1078 H 0.7449 0.70954 0.60427 0.0
H1079 H 0.75712 0.71347 0.68877 0.0
Sm1080 Sm 0.81105 0.73695 0.19419 0.0
Sm1081 Sm 0.76482 0.69041 0.23674 0.0
C1082 C 0.84938 0.76461 0.13118 0.0
C1083 C 0.8582 0.75845 0.0841 0.0
C1084 C 0.86686 0.73994 0.08102 0.0
C1085 C 0.87539 0.73468 1.03714 0.0
C1086 C 0.87581 0.74784 0.99459 0.0
C1087 C 0.8671 0.76627 0.99745 0.0
C1088 C 0.85842 0.77144 1.04136 0.0
C1089 C 0.78268 0.75215 0.25656 0.0
C1090 C 0.76539 0.69115 0.11924 0.0
C1091 C 0.72346 0.65488 0.28495 0.0
C1092 C 0.71306 0.65404 0.33263 0.0
C1093 C 0.72899 0.67317 0.36593 0.0
C1094 C 0.72009 0.67231 0.41214 0.0
C1095 C 0.69518 0.65223 0.42599 0.0
C1096 C 0.67906 0.63288 0.39283 0.0
C1097 C 0.68794 0.63396 0.34585 0.0
C1098 C 0.80419 0.67997 0.20899 0.0
C1099 C 0.81649 0.72702 0.30838 0.0
O1100 O 0.85284 0.75457 0.17063 0.0
O1101 O 0.82704 0.76466 0.13163 0.0
O1102 O 0.77242 0.7323 0.22762 0.0
O1103 O 0.80745 0.76606 0.2452 0.0
O1104 O 0.78956 0.71077 0.12613 0.0
O1105 O 0.74987 0.68149 0.15705 0.0
O1106 O 0.72249 0.67154 0.25518 0.0
O1107 O 0.7461 0.65575 0.28435 0.0
O1108 O 0.80642 0.70052 0.22647 0.0
O1109 O 0.77941 0.66448 0.20074 0.0
O1110 O 0.79048 0.71128 0.30564 0.0
O1111 O 0.83034 0.73745 0.26831 0.0
H1112 H 0.86723 0.72949 0.11257 0.0
H1113 H 0.88189 0.72036 1.03649 0.0
H1114 H 0.86711 0.7768 0.96556 0.0
H1115 H 0.85201 0.78582 1.04192 0.0
H1116 H 0.74843 0.6887 0.35635 0.0
H1117 H 0.73296 0.68707 0.43767 0.0
H1118 H 0.6601 0.61685 0.40359 0.0
H1119 H 0.67557 0.61893 0.32032 0.0
Sm1120 Sm 0.25745 0.07241 0.19454 0.0
Sm1121 Sm 0.30557 0.07853 0.23912 0.0
C1122 C 0.22779 0.07786 0.12801 0.0
C1123 C 0.23367 0.0923 0.08054 0.0
C1124 C 0.24902 0.08938 0.0446 0.0
C1125 C 0.2545 0.10318 1.00068 0.0
C1126 C 0.24466 0.12022 0.99088 0.0
C1127 C 0.22933 0.12315 1.02666 0.0
C1128 C 0.224 0.10949 0.07073 0.0
C1129 C 0.24612 0.03161 0.26199 0.0
C1130 C 0.30636 0.07741 0.12244 0.0
C1131 C 0.34073 0.07565 0.29318 0.0
C1132 C 0.33796 0.06419 0.34074 0.0
C1133 C 0.3179 0.03831 0.34906 0.0
C1134 C 0.31016 0.02965 0.39553 0.0
C1135 C 0.32213 0.04652 0.4339 0.0
C1136 C 0.34346 0.07174 0.42643 0.0
C1137 C 0.35148 0.08056 0.3797 0.0
C1138 C 0.31335 0.12592 0.20362 0.0
C1139 C 0.26719 0.09401 0.30431 0.0
O1140 O 0.23562 0.09207 0.16717 0.0
O1141 O 0.23092 0.05729 0.13073 0.0
O1142 O 0.26561 0.0417 0.23237 0.0
O1143 O 0.22984 0.03928 0.24782 0.0
O1144 O 0.28434 0.07797 0.12793 0.0
O1145 O 0.31756 0.07413 0.1609 0.0
O1146 O 0.32837 0.05912 0.25818 0.0
O1147 O 0.33769 0.09622 0.29238 0.0
O1148 O 0.29307 0.10786 0.22273 0.0
O1149 O 0.32974 0.11742 0.19813 0.0
O1150 O 0.28344 0.08424 0.30519 0.0
O1151 O 0.25701 0.0954 0.2625 0.0
H1152 H 0.25687 0.0764 0.05028 0.0
H1153 H 0.26642 0.10046 0.97415 0.0
H1154 H 0.22147 0.13611 1.02049 0.0
H1155 H 0.21218 0.11234 0.09726 0.0
H1156 H 0.30713 0.02522 0.31983 0.0
H1157 H 0.29416 0.01018 0.40219 0.0
H1158 H 0.35288 0.0849 0.45638 0.0
H1159 H 0.36685 0.10068 0.37391 0.0
Sm1160 Sm 0.92162 0.19229 0.20144 0.0
Sm1161 Sm 0.92003 0.2386 0.24083 0.0
C1162 C 0.90945 0.15216 0.14232 0.0
C1163 C 0.89617 0.14455 0.09413 0.0
C1164 C 0.88119 0.15552 0.07671 0.0
C1165 C 0.86812 0.14774 1.03215 0.0
C1166 C 0.86988 0.12898 1.00334 0.0
C1167 C 0.88516 0.1183 1.02037 0.0
C1168 C 0.89805 0.12592 0.06518 0.0
C1169 C 0.96329 0.21968 0.26606 0.0
C1170 C 0.92188 0.23729 0.12375 0.0
C1171 C 0.93018 0.28255 0.28409 0.0
C1172 C 0.94387 0.29325 0.32867 0.0
C1173 C 0.95613 0.28063 0.3498 0.0
C1174 C 0.96618 0.28732 0.39553 0.0
C1175 C 0.96345 0.30628 0.42119 0.0
C1176 C 0.95211 0.31983 0.39955 0.0
C1177 C 0.94244 0.31341 0.35278 0.0
C1178 C 0.87081 0.19891 0.21359 0.0
C1179 C 0.90451 0.18806 0.3159 0.0
O1180 O 0.89478 0.15094 0.17881 0.0
O1181 O 0.93291 0.17311 0.14404 0.0
O1182 O 0.95414 0.23034 0.23685 0.0
O1183 O 0.95512 0.19592 0.25057 0.0
O1184 O 0.91999 0.21419 0.13132 0.0
O1185 O 0.92502 0.25236 0.16104 0.0
O1186 O 0.94499 0.28152 0.25007 0.0
O1187 O 0.908 0.26057 0.28919 0.0
O1188 O 0.88908 0.19683 0.23191 0.0
O1189 O 0.87955 0.2235 0.20418 0.0
O1190 O 0.91029 0.21301 0.31097 0.0
O1191 O 0.9058 0.17493 0.27776 0.0
H1192 H 0.87949 0.17009 0.09765 0.0
H1193 H 0.85659 0.1564 1.02011 0.0
H1194 H 0.88691 0.10381 0.99912 0.0
H1195 H 0.90942 0.11711 0.07735 0.0
H1196 H 0.95668 0.26467 0.3316 0.0
H1197 H 0.97433 0.27633 0.4124 0.0
H1198 H 0.94935 0.33402 0.41975 0.0
H1199 H 0.93261 0.32295 0.33663 0.0
Sm1200 Sm 0.30505 0.22884 0.73514 0.0
Sm1201 Sm 0.25827 0.1877 0.69499 0.0
C1202 C 0.34504 0.26475 0.78589 0.0
C1203 C 0.34681 0.27155 0.83631 0.0
C1204 C 0.32772 0.2534 0.86736 0.0
C1205 C 0.32598 0.26032 0.91369 0.0
C1206 C 0.34422 0.28519 0.93067 0.0
C1207 C 0.36524 0.30256 0.90156 0.0
C1208 C 0.3661 0.29604 0.8536 0.0
C1209 C 0.31313 0.18911 0.70208 0.0
C1210 C 0.26663 0.17704 0.80491 0.0
C1211 C 0.2284 0.15301 0.62867 0.0
C1212 C 0.23464 0.14517 0.58073 0.0
C1213 C 0.24412 0.12731 0.57766 0.0
C1214 C 0.25003 0.12014 0.53295 0.0
C1215 C 0.24663 0.13048 0.4897 0.0
C1216 C 0.2373 0.14838 0.49258 0.0
C1217 C 0.23138 0.15557 0.53727 0.0
C1218 C 0.24526 0.21546 0.76347 0.0
C1219 C 0.30452 0.23206 0.62 0.0
O1220 O 0.32978 0.27015 0.76011 0.0
O1221 O 0.34091 0.24116 0.77812 0.0
O1222 O 0.29315 0.18661 0.72281 0.0
O1223 O 0.32694 0.21331 0.68894 0.0
O1224 O 0.28315 0.20282 0.80305 0.0
O1225 O 0.25593 0.16434 0.76426 0.0
O1226 O 0.23643 0.14654 0.66753 0.0
O1227 O 0.23093 0.17646 0.6322 0.0
O1228 O 0.26471 0.22627 0.73349 0.0
O1229 O 0.23067 0.19108 0.75042 0.0
O1230 O 0.28545 0.2077 0.62712 0.0
O1231 O 0.31324 0.24738 0.6581 0.0
H1232 H 0.31325 0.23424 0.85542 0.0
H1233 H 0.31003 0.24636 0.93616 0.0
H1234 H 0.38031 0.32116 0.91561 0.0
H1235 H 0.3814 0.31003 0.83016 0.0
H1236 H 0.24696 0.11875 0.6099 0.0
H1237 H 0.2571 0.10628 0.53212 0.0
H1238 H 0.23444 0.15672 0.46005 0.0
H1239 H 0.22416 0.16931 0.53774 0.0
Sm1240 Sm 0.76143 0.07524 0.74447 0.0
Sm1241 Sm 0.80898 0.07688 0.70188 0.0
C1242 C 0.71888 0.06343 0.79467 0.0
C1243 C 0.71129 0.05084 0.84122 0.0
C1244 C 0.7246 0.0383 0.8581 0.0
C1245 C 0.72025 0.02826 0.90407 0.0
C1246 C 0.70304 0.03133 0.93439 0.0
C1247 C 0.68974 0.04412 0.91797 0.0
C1248 C 0.6936 0.05361 0.87093 0.0
C1249 C 0.79856 0.12513 0.71599 0.0
C1250 C 0.81419 0.09355 0.81622 0.0
C1251 C 0.84876 0.09098 0.64075 0.0
C1252 C 0.85589 0.10485 0.59305 0.0
C1253 C 0.84325 0.11829 0.57576 0.0
C1254 C 0.85058 0.13191 0.53167 0.0
C1255 C 0.87063 0.13232 0.50326 0.0
C1256 C 0.88309 0.11868 0.52026 0.0
C1257 C 0.87586 0.1052 0.56455 0.0
C1258 C 0.78401 0.03468 0.76668 0.0
C1259 C 0.76182 0.07518 0.62696 0.0
O1260 O 0.71931 0.04844 0.76029 0.0
O1261 O 0.74 0.08652 0.79577 0.0
O1262 O 0.80234 0.10776 0.73368 0.0
O1263 O 0.77358 0.11525 0.70866 0.0
O1264 O 0.78881 0.08647 0.81258 0.0
O1265 O 0.8273 0.09325 0.7773 0.0
O1266 O 0.8498 0.10504 0.67813 0.0
O1267 O 0.82821 0.06722 0.64204 0.0
O1268 O 0.77216 0.04284 0.73804 0.0
O1269 O 0.80795 0.04441 0.75085 0.0
O1270 O 0.78565 0.07855 0.63363 0.0
O1271 O 0.74654 0.07024 0.66491 0.0
H1272 H 0.73907 0.03719 0.83594 0.0
H1273 H 0.73137 0.01939 0.91712 0.0
H1274 H 0.6772 0.04749 0.94193 0.0
H1275 H 0.68375 0.06394 0.85852 0.0
H1276 H 0.82772 0.11835 0.59643 0.0
H1277 H 0.84054 0.14212 0.51964 0.0
H1278 H 0.89857 0.1186 0.49931 0.0
H1279 H 0.88601 0.09511 0.57664 0.0
Sm1280 Sm 0.92945 0.68977 0.73739 0.0
Sm1281 Sm 0.92801 0.73565 0.69569 0.0
C1282 C 0.9372 0.65335 0.77885 0.0
C1283 C 0.93437 0.64295 0.82745 0.0
C1284 C 0.95716 0.65008 0.85419 0.0
C1285 C 0.95593 0.64915 0.90394 0.0
C1286 C 0.93201 0.64183 0.92677 0.0
C1287 C 0.90868 0.63079 0.90024 0.0
C1288 C 0.90982 0.63089 0.85045 0.0
C1289 C 0.87903 0.67887 0.71686 0.0
C1290 C 0.91345 0.72667 0.81035 0.0
C1291 C 0.91558 0.76193 0.63249 0.0
C1292 C 0.90085 0.75566 0.58493 0.0
C1293 C 0.87312 0.74328 0.58306 0.0
C1294 C 0.85953 0.73831 0.53888 0.0
C1295 C 0.87307 0.74561 0.49474 0.0
C1296 C 0.90071 0.75776 0.4964 0.0
C1297 C 0.91433 0.7627 0.54058 0.0
C1298 C 0.97284 0.75216 0.75521 0.0
C1299 C 0.92705 0.69018 0.62071 0.0
O1300 O 0.95511 0.67779 0.77387 0.0
O1301 O 0.91581 0.64795 0.75597 0.0
O1302 O 0.89765 0.69974 0.73212 0.0
O1303 O 0.88732 0.66262 0.70824 0.0
O1304 O 0.92116 0.70856 0.80745 0.0
O1305 O 0.91223 0.73878 0.77071 0.0
O1306 O 0.90197 0.75111 0.6716 0.0
O1307 O 0.93865 0.76336 0.63345 0.0
O1308 O 0.96325 0.73201 0.72649 0.0
O1309 O 0.96119 0.7655 0.74478 0.0
O1310 O 0.91997 0.70785 0.62898 0.0
O1311 O 0.93669 0.68326 0.65701 0.0
H1312 H 0.97623 0.65894 0.83708 0.0
H1313 H 0.97406 0.65748 0.9243 0.0
H1314 H 0.89004 0.62482 0.91766 0.0
H1315 H 0.89179 0.6241 0.83044 0.0
H1316 H 0.86178 0.73753 0.61593 0.0
H1317 H 0.8383 0.72891 0.53922 0.0
H1318 H 0.91186 0.76361 0.46331 0.0
H1319 H 0.93556 0.77229 0.53997 0.0
Sm1320 Sm 0.90004 0.64673 0.3069 0.0
Sm1321 Sm 0.85584 0.59867 0.3446 0.0
C1322 C 0.93863 0.68748 0.26241 0.0
C1323 C 0.94389 0.69365 0.2114 0.0
C1324 C 0.96396 0.69115 0.18928 0.0
C1325 C 0.96289 0.68671 0.14014 0.0
C1326 C 0.94227 0.6857 0.11329 0.0
C1327 C 0.92494 0.69268 0.13385 0.0
C1328 C 0.92567 0.69659 0.18301 0.0
C1329 C 0.85888 0.65322 0.34018 0.0
C1330 C 0.84933 0.61163 0.23209 0.0
C1331 C 0.81821 0.57049 0.40847 0.0
C1332 C 0.80988 0.57778 0.45479 0.0
C1333 C 0.81821 0.60417 0.46678 0.0
C1334 C 0.81002 0.61077 0.50984 0.0
C1335 C 0.79326 0.59121 0.54254 0.0
C1336 C 0.78499 0.56488 0.53059 0.0
C1337 C 0.79317 0.5583 0.48754 0.0
C1338 C 0.88367 0.58562 0.27758 0.0
C1339 C 0.90186 0.64321 0.42157 0.0
O1340 O 0.94094 0.66772 0.278 0.0
O1341 O 0.91761 0.68699 0.27864 0.0
O1342 O 0.85783 0.63453 0.31742 0.0
O1343 O 0.88324 0.66851 0.35142 0.0
O1344 O 0.87501 0.62886 0.23582 0.0
O1345 O 0.83586 0.59918 0.27151 0.0
O1346 O 0.81401 0.57961 0.36857 0.0
O1347 O 0.84106 0.57151 0.40797 0.0
O1348 O 0.89463 0.60494 0.30798 0.0
O1349 O 0.85928 0.57064 0.29061 0.0
O1350 O 0.8773 0.62453 0.41377 0.0
O1351 O 0.91749 0.65223 0.38404 0.0
H1352 H 0.97879 0.69001 0.21046 0.0
H1353 H 0.97685 0.6821 0.12381 0.0
H1354 H 0.90944 0.69266 0.11271 0.0
H1355 H 0.91048 0.69948 0.19894 0.0
H1356 H 0.83106 0.6198 0.44274 0.0
H1357 H 0.8168 0.63122 0.51763 0.0
H1358 H 0.77209 0.5493 0.55471 0.0
H1359 H 0.78631 0.53782 0.47975 0.0
Sm1360 Sm 0.35453 0.26177 0.30411 0.0
Sm1361 Sm 0.39906 0.25855 0.34626 0.0
C1362 C 0.32169 0.27392 0.26146 0.0
C1363 C 0.32237 0.28726 0.21732 0.0
C1364 C 0.34578 0.29897 0.19155 0.0
C1365 C 0.34628 0.30681 0.14481 0.0
C1366 C 0.32267 0.30023 0.12165 0.0
C1367 C 0.29932 0.2905 0.14811 0.0
C1368 C 0.29928 0.28432 0.19661 0.0
C1369 C 0.3405 0.21052 0.32902 0.0
C1370 C 0.3894 0.24427 0.23177 0.0
C1371 C 0.42734 0.24803 0.40816 0.0
C1372 C 0.42154 0.23356 0.45526 0.0
C1373 C 0.39565 0.21528 0.46939 0.0
C1374 C 0.39052 0.20196 0.51379 0.0
C1375 C 0.41111 0.20643 0.54541 0.0
C1376 C 0.43696 0.22471 0.53122 0.0
C1377 C 0.44207 0.23808 0.48693 0.0
C1378 C 0.41667 0.30339 0.28589 0.0
C1379 C 0.35264 0.25681 0.42139 0.0
O1380 O 0.33867 0.28868 0.2941 0.0
O1381 O 0.32121 0.25164 0.25503 0.0
O1382 O 0.36197 0.22819 0.31299 0.0
O1383 O 0.3256 0.22073 0.33483 0.0
O1384 O 0.37434 0.2555 0.2344 0.0
O1385 O 0.39896 0.23983 0.27199 0.0
O1386 O 0.41636 0.23404 0.36959 0.0
O1387 O 0.42723 0.2703 0.40783 0.0
O1388 O 0.397 0.29446 0.31529 0.0
O1389 O 0.42878 0.29046 0.295 0.0
O1390 O 0.37189 0.25175 0.41381 0.0
O1391 O 0.34433 0.2649 0.38462 0.0
H1392 H 0.3629 0.29908 0.20567 0.0
H1393 H 0.36423 0.31359 0.12434 0.0
H1394 H 0.28089 0.28498 0.13027 0.0
H1395 H 0.28091 0.27481 0.21619 0.0
H1396 H 0.37932 0.21126 0.44606 0.0
H1397 H 0.3704 0.1881 0.52348 0.0
H1398 H 0.45327 0.22868 0.55457 0.0
H1399 H 0.46219 0.252 0.47737 0.0
Sm1400 Sm 0.73536 0.09232 0.30881 0.0
Sm1401 Sm 0.74004 0.14146 0.34675 0.0
C1402 C 0.72483 0.04738 0.26902 0.0
C1403 C 0.71473 0.03443 0.22377 0.0
C1404 C 0.70655 0.04639 0.18997 0.0
C1405 C 0.70072 0.03656 0.14386 0.0
C1406 C 0.70397 0.01532 0.13089 0.0
C1407 C 0.71068 0.00234 0.16526 0.0
C1408 C 0.71601 0.0119 0.21208 0.0
C1409 C 0.78667 0.12978 0.33156 0.0
C1410 C 0.75253 0.14227 0.23187 0.0
C1411 C 0.75595 0.18297 0.40499 0.0
C1412 C 0.77075 0.1916 0.45207 0.0
C1413 C 0.78023 0.17667 0.47556 0.0
C1414 C 0.79381 0.18488 0.51976 0.0
C1415 C 0.79898 0.20866 0.54166 0.0
C1416 C 0.78996 0.22384 0.5176 0.0
C1417 C 0.77597 0.21537 0.47382 0.0
C1418 C 0.69526 0.1148 0.28587 0.0
C1419 C 0.73775 0.09576 0.42549 0.0
O1420 O 0.70815 0.04986 0.2965 0.0
O1421 O 0.7475 0.06887 0.2656 0.0
O1422 O 0.76914 0.13305 0.31369 0.0
O1423 O 0.77651 0.10515 0.34183 0.0
O1424 O 0.7405 0.11613 0.23691 0.0
O1425 O 0.75824 0.15738 0.27091 0.0
O1426 O 0.76914 0.18276 0.36726 0.0
O1427 O 0.73207 0.16261 0.40562 0.0
O1428 O 0.70351 0.10384 0.31638 0.0
O1429 O 0.70831 0.13989 0.29516 0.0
O1430 O 0.74327 0.12008 0.41651 0.0
O1431 O 0.73004 0.07912 0.38929 0.0
H1432 H 0.70615 0.06416 0.19848 0.0
H1433 H 0.69581 0.04687 0.11721 0.0
H1434 H 0.71367 0.9863 0.15495 0.0
H1435 H 0.72256 0.00274 0.23822 0.0
H1436 H 0.77731 0.15864 0.45982 0.0
H1437 H 0.80038 0.17261 0.53686 0.0
H1438 H 0.79356 0.24226 0.53301 0.0
H1439 H 0.76925 0.22755 0.45683 0.0
C1440 C 0.10628 0.44589 0.98575 0.0
C1441 C 0.09807 0.41896 0.97725 0.0
C1442 C 0.0773 0.40969 0.0595 0.0
C1443 C 0.08671 0.43683 0.06945 0.0
N1444 N 0.11287 0.48138 1.03838 0.0
N1445 N 0.07112 0.37491 1.00688 0.0
C1446 C 0.10204 0.45497 1.03162 0.0
C1447 C 0.08197 0.40104 1.01376 0.0
N1448 N 0.11611 0.46287 0.94783 0.0
N1449 N 0.0647 0.39148 0.09463 0.0
H1450 H 0.07352 0.36676 0.97553 0.0
H1451 H 0.07352 0.36676 0.97553 0.0
H1452 H 0.06212 0.39619 0.12943 0.0
H1453 H 0.05812 0.3716 0.08955 0.0
H1454 H 0.1198 0.48212 0.94862 0.0
H1455 H 0.11742 0.45679 0.91328 0.0
H1456 H 0.12877 0.49524 1.01848 0.0
H1457 H 0.10631 0.48991 0.06322 0.0
C1458 C 0.59575 0.67426 1.00414 0.0
C1459 C 0.57711 0.67234 0.96887 0.0
C1460 C 0.54234 0.64626 1.02983 0.0
C1461 C 0.56055 0.64583 0.06393 0.0
N1462 N 0.60604 0.66299 0.08244 0.0
N1463 N 0.53165 0.64819 0.94616 0.0
C1464 C 0.5876 0.66063 0.05031 0.0
C1465 C 0.55021 0.65568 0.98129 0.0
N1466 N 0.6215 0.69137 0.99575 0.0
N1467 N 0.51777 0.6402 0.04451 0.0
H1468 H 0.53656 0.6536 0.91034 0.0
H1469 H 0.51203 0.63402 0.9516 0.0
H1470 H 0.51231 0.63814 0.08045 0.0
H1471 H 0.50441 0.64183 1.02219 0.0
H1472 H 0.63552 0.69871 1.02259 0.0
H1473 H 0.62834 0.69978 0.96245 0.0
H1474 H 0.62534 0.66946 0.07298 0.0
H1475 H 0.60208 0.65837 0.11859 0.0
C1476 C 0.33253 0.87967 0.05229 0.0
C1477 C 0.34291 0.90506 0.07349 0.0
C1478 C 0.32514 0.91667 1.00039 0.0
C1479 C 0.31664 0.89158 0.97832 0.0
N1480 N 0.3254 0.85552 0.97864 0.0
N1481 N 0.34274 0.9457 0.07073 0.0
C1482 C 0.32407 0.87495 1.00308 0.0
C1483 C 0.33749 0.92307 0.04807 0.0
N1484 N 0.3289 0.85898 0.08001 0.0
N1485 N 0.32263 0.93498 0.97475 0.0
H1486 H 0.3475 0.94865 0.10697 0.0
H1487 H 0.3393 0.96 0.05641 0.0
H1488 H 0.31663 0.93195 0.93918 0.0
H1489 H 0.32853 0.95387 0.98641 0.0
H1490 H 0.31955 0.83973 0.06724 0.0
H1491 H 0.33127 0.8604 0.11717 0.0
H1492 H 0.33251 0.84414 0.99421 0.0
H1493 H 0.32388 0.85384 0.94141 0.0
C1494 C 0.40808 0.07727 0.65643 0.0
C1495 C 0.43523 0.08602 0.64657 0.0
C1496 C 0.445 0.10717 0.72845 0.0
C1497 C 0.41823 0.09928 0.7383 0.0
N1498 N 0.37372 0.07301 0.7115 0.0
N1499 N 0.47895 0.12056 0.66856 0.0
C1500 C 0.3997 0.08306 0.70222 0.0
C1501 C 0.45347 0.10395 0.68145 0.0
N1502 N 0.39045 0.06634 0.61985 0.0
N1503 N 0.4628 0.11704 0.76503 0.0
H1504 H 0.48535 0.12341 0.63315 0.0
H1505 H 0.49251 0.13513 0.69123 0.0
H1506 H 0.45745 0.11827 0.80021 0.0
H1507 H 0.48195 0.12049 0.76175 0.0
H1508 H 0.37127 0.0628 0.62143 0.0
H1509 H 0.39581 0.06381 0.58553 0.0
H1510 H 0.35868 0.05808 0.69162 0.0
H1511 H 0.36752 0.0791 0.74107 0.0
C1512 C 0.92811 0.3457 0.68162 0.0
C1513 C 0.91013 0.3418 0.64349 0.0
C1514 C 0.87417 0.31567 0.70184 0.0
C1515 C 0.89169 0.31638 0.73867 0.0
N1516 N 0.93702 0.33506 0.76193 0.0
N1517 N 0.86569 0.31478 0.61647 0.0
C1518 C 0.91915 0.33222 0.72782 0.0
C1519 C 0.8832 0.32406 0.65354 0.0
N1520 N 0.95393 0.36317 0.6746 0.0
N1521 N 0.84917 0.30965 0.71313 0.0
H1522 H 0.87152 0.31952 0.58077 0.0
H1523 H 0.84623 0.29993 0.62093 0.0
H1524 H 0.84285 0.30903 0.74818 0.0
H1525 H 0.83632 0.31026 0.68802 0.0
H1526 H 0.96727 0.37149 0.70254 0.0
H1527 H 0.96152 0.37018 0.64067 0.0
H1528 H 0.95692 0.34295 0.75497 0.0
H1529 H 0.9319 0.32913 0.79735 0.0
C1530 C 0.6609 0.58522 0.65535 0.0
C1531 C 0.64348 0.55777 0.64726 0.0
C1532 C 0.65555 0.55061 0.73115 0.0
C1533 C 0.67419 0.57772 0.7379 0.0
N1534 N 0.69303 0.62096 0.70564 0.0
N1535 N 0.62695 0.51399 0.68068 0.0
C1536 C 0.67563 0.595 0.7002 0.0
C1537 C 0.64159 0.54055 0.68615 0.0
N1538 N 0.66489 0.60215 0.61854 0.0
N1539 N 0.64966 0.53416 0.76964 0.0
H1540 H 0.61276 0.50466 0.65474 0.0
H1541 H 0.62943 0.50076 0.70179 0.0
H1542 H 0.65863 0.54049 0.803 0.0
H1543 H 0.63374 0.51512 0.77072 0.0
H1544 H 0.67371 0.62231 0.62215 0.0
H1545 H 0.65946 0.59618 0.58325 0.0
H1546 H 0.69645 0.63548 0.6811 0.0
H1547 H 0.70444 0.62804 0.73603 0.0
C1548 C 0.91168 0.59484 0.19725 0.0
C1549 C 0.89571 0.57743 0.23473 0.0
C1550 C 0.89272 0.54044 0.18465 0.0
C1551 C 0.90817 0.55756 0.14579 0.0
N1552 N 0.93296 0.60228 0.11835 0.0
N1553 N 0.8795 0.53468 0.26869 0.0
C1554 C 0.9181 0.58516 0.15362 0.0
C1555 C 0.88844 0.55056 0.22915 0.0
N1556 N 0.92076 0.62092 0.20351 0.0
N1557 N 0.88194 0.51389 0.18042 0.0
H1558 H 0.87801 0.54149 0.30244 0.0
H1559 H 0.87688 0.51581 0.26993 0.0
H1560 H 0.88872 0.50476 0.15737 0.0
H1561 H 0.86602 0.50061 0.20106 0.0
H1562 H 0.9326 0.63563 0.17973 0.0
H1563 H 0.91673 0.628 0.23442 0.0
H1564 H 0.94227 0.62257 0.12076 0.0
H1565 H 0.93607 0.59631 0.08512 0.0
C1566 C 0.40965 0.33568 0.22901 0.0
C1567 C 0.42397 0.32271 0.24157 0.0
C1568 C 0.44729 0.3385 0.16198 0.0
C1569 C 0.43305 0.35135 0.14865 0.0
N1570 N 0.39892 0.36009 0.17105 0.0
N1571 N 0.46495 0.3233 0.22231 0.0
C1572 C 0.41366 0.34911 0.1828 0.0
C1573 C 0.4449 0.32724 0.20892 0.0
N1574 N 0.39324 0.33667 0.26265 0.0
N1575 N 0.46383 0.33688 0.12947 0.0
H1576 H 0.46842 0.31945 0.2572 0.0
H1577 H 0.46842 0.31945 0.2572 0.0
H1578 H 0.46492 0.34262 0.09376 0.0
H1579 H 0.47469 0.32767 0.13724 0.0
H1580 H 0.38122 0.34472 0.25739 0.0
H1581 H 0.39265 0.33074 0.29798 0.0
H1582 H 0.38222 0.35706 0.18915 0.0
H1583 H 0.4031 0.3714 0.14069 0.0
C1584 C 0.66354 0.11223 0.15914 0.0
C1585 C 0.64922 0.08522 0.14546 0.0
C1586 C 0.66448 0.07626 0.22505 0.0
C1587 C 0.67693 0.10321 0.23985 0.0
N1588 N 0.67612 0.14341 0.22417 0.0
N1589 N 0.63565 0.04135 0.17001 0.0
C1590 C 0.67312 0.1202 0.20765 0.0
C1591 C 0.64997 0.06735 0.17965 0.0
N1592 N 0.66885 0.13095 0.12518 0.0
N1593 N 0.66573 0.05861 0.25492 0.0
H1594 H 0.62749 0.03441 0.13656 0.0
H1595 H 0.63055 0.02704 0.19596 0.0
H1596 H 0.67126 0.06263 0.29071 0.0
H1597 H 0.66131 0.03995 0.24414 0.0
H1598 H 0.68129 0.15092 0.13162 0.0
H1599 H 0.66374 0.12631 0.08919 0.0
H1600 H 0.67192 0.15558 0.2033 0.0
H1601 H 0.67807 0.14826 0.26041 0.0
C1602 C 0.54483 0.87644 0.48958 0.0
C1603 C 0.57074 0.89106 0.46993 0.0
C1604 C 0.58247 0.91834 0.54565 0.0
C1605 C 0.55671 0.90315 0.56567 0.0
N1606 N 0.51739 0.8607 0.56048 0.0
N1607 N 0.61104 0.93185 0.47474 0.0
C1608 C 0.53903 0.88037 0.53842 0.0
C1609 C 0.58862 0.9138 0.49682 0.0
N1610 N 0.52472 0.85989 0.46022 0.0
N1611 N 0.60181 0.93572 0.57491 0.0
H1612 H 0.61355 0.93102 0.43798 0.0
H1613 H 0.62524 0.94913 0.49056 0.0
H1614 H 0.59921 0.93517 0.61193 0.0
H1615 H 0.62083 0.94855 0.56377 0.0
H1616 H 0.50506 0.85075 0.47057 0.0
H1617 H 0.52725 0.85853 0.42351 0.0
H1618 H 0.50508 0.8427 0.54414 0.0
H1619 H 0.51413 0.8605 0.59724 0.0
C1620 C 0.06814 0.65882 0.55675 0.0
C1621 C 0.08571 0.65066 0.57554 0.0
C1622 C 0.1111 0.66794 0.49865 0.0
C1623 C 0.09587 0.6792 0.48231 0.0
N1624 N 0.06193 0.68855 0.50476 0.0
N1625 N 0.13068 0.65983 0.56784 0.0
C1626 C 0.07446 0.6748 0.51322 0.0
C1627 C 0.10901 0.65863 0.54732 0.0
N1628 N 0.04582 0.65266 0.58142 0.0
N1629 N 0.12771 0.66559 0.46745 0.0
H1630 H 0.1325 0.65837 0.6047 0.0
H1631 H 0.14846 0.66696 0.54962 0.0
H1632 H 0.12866 0.67039 0.43119 0.0
H1633 H 0.13767 0.65562 0.4763 0.0
H1634 H 0.03019 0.65375 0.56629 0.0
H1635 H 0.04299 0.64635 0.61683 0.0
H1636 H 0.04918 0.68953 0.52928 0.0
H1637 H 0.0665 0.7011 0.47578 0.0
C1638 C 0.33602 0.41373 0.55218 0.0
C1639 C 0.34341 0.43844 0.57429 0.0
C1640 C 0.3255 0.44895 0.50131 0.0
C1641 C 0.3173 0.42409 0.4789 0.0
N1642 N 0.32214 0.38586 0.48058 0.0
N1643 N 0.33224 0.47276 0.57559 0.0
C1644 C 0.3246 0.40729 0.50391 0.0
C1645 C 0.33435 0.45397 0.55042 0.0
N1646 N 0.33758 0.39528 0.57911 0.0
N1647 N 0.32748 0.46927 0.47438 0.0
H1648 H 0.33485 0.47482 0.61265 0.0
H1649 H 0.32377 0.48317 0.56117 0.0
H1650 H 0.32556 0.46827 0.43716 0.0
H1651 H 0.33541 0.48831 0.48775 0.0
H1652 H 0.33274 0.37676 0.56679 0.0
H1653 H 0.34134 0.39775 0.61583 0.0
H1654 H 0.32971 0.37436 0.49333 0.0
H1655 H 0.31597 0.38188 0.44518 0.0
C1656 C 0.74746 0.73998 0.32696 0.0
C1657 C 0.77147 0.75819 0.30335 0.0
C1658 C 0.78285 0.78576 0.37751 0.0
C1659 C 0.75829 0.76897 0.40033 0.0
N1660 N 0.72054 0.72597 0.40034 0.0
N1661 N 0.80514 0.80395 0.30266 0.0
C1662 C 0.74151 0.74482 0.37586 0.0
C1663 C 0.78715 0.78255 0.3278 0.0
N1664 N 0.72956 0.71882 0.30152 0.0
N1665 N 0.80331 0.80406 0.40415 0.0
H1666 H 0.80637 0.80409 0.26535 0.0
H1667 H 0.81563 0.8226 0.31792 0.0
H1668 H 0.80245 0.80497 0.44143 0.0
H1669 H 0.82222 0.8153 0.39027 0.0
H1670 H 0.71195 0.70395 0.31514 0.0
H1671 H 0.7313 0.71748 0.26463 0.0
H1672 H 0.70647 0.70814 0.38603 0.0
H1673 H 0.71871 0.72732 0.43721 0.0
C1674 C 0.22524 0.00184 0.39443 0.0
C1675 C 0.23339 0.98274 0.39698 0.0
C1676 C 0.25062 0.996 0.3124 0.0
C1677 C 0.24241 0.01514 0.3093 0.0
N1678 N 0.21899 0.03378 0.35004 0.0
N1679 N 0.26155 0.96871 0.36176 0.0
C1680 C 0.22904 0.01732 0.35126 0.0
C1681 C 0.24803 0.98173 0.3567 0.0
N1682 N 0.21551 0.00674 0.43532 0.0
N1683 N 0.25939 0.98979 0.27184 0.0
H1684 H 0.26241 0.96078 0.39447 0.0
H1685 H 0.27563 0.97036 0.33727 0.0
H1686 H 0.26111 -0.00121 0.23883 0.0
H1687 H 0.26229 0.97377 0.26967 0.0
H1688 H 0.21225 0.02247 0.43966 0.0
H1689 H 0.21331 0.99666 0.46735 0.0
H1690 H 0.205 0.03294 0.37398 0.0
H1691 H 0.22379 0.04791 0.32399 0.0
C1692 C 0.97474 0.21329 0.35503 0.0
C1693 C 0.9789 0.23042 0.31455 0.0
C1694 C 0.01369 0.26664 0.36532 0.0
C1695 C 0.00885 0.24959 0.40551 0.0
N1696 N 0.97917 0.2082 0.4409 0.0
N1697 N 0.00454 0.27403 0.28269 0.0
C1698 C 0.98785 0.22342 0.40055 0.0
C1699 C -0.00111 0.25731 0.32057 0.0
N1700 N 0.95848 0.18679 0.35096 0.0
N1701 N 0.03407 0.29158 0.36876 0.0
H1702 H 0.99617 0.26801 0.24887 0.0
H1703 H 0.01766 0.29402 0.28406 0.0
H1704 H 0.04224 0.29966 0.40176 0.0
H1705 H 0.04343 0.30371 0.33962 0.0
H1706 H 0.95873 0.17339 0.37511 0.0
H1707 H 0.9454 0.1775 0.32321 0.0
H1708 H 0.96204 0.19 0.4422 0.0
H1709 H 0.98736 0.21516 0.47469 0.0
C1710 C 0.25757 0.24523 0.84292 0.0
C1711 C 0.23857 0.22633 0.81021 0.0
C1712 C 0.20502 0.21678 0.87425 0.0
C1713 C 0.223 0.23746 0.90531 0.0
N1714 N 0.26868 0.2664 0.92235 0.0
N1715 N 0.19226 0.20192 0.79257 0.0
C1716 C 0.24998 0.25025 0.89035 0.0
C1717 C 0.21185 0.21451 0.82549 0.0
N1718 N 0.28267 0.26008 0.82709 0.0
N1719 N 0.18189 0.19716 0.89222 0.0
H1720 H 0.19594 0.2017 0.75601 0.0
H1721 H 0.17255 0.19509 0.80061 0.0
H1722 H 0.17786 0.19459 0.9288 0.0
H1723 H 0.16899 0.18081 0.87204 0.0
H1724 H 0.29715 0.27654 0.84474 0.0
H1725 H 0.28794 0.25807 0.79261 0.0
H1726 H 0.28871 0.27606 0.91579 0.0
H1727 H 0.26427 0.26863 0.95757 0.0
C1728 C 0.74712 0.99712 0.81922 0.0
C1729 C 0.77378 0.0175 0.8138 0.0
C1730 C 0.78086 0.00677 0.89852 0.0
C1731 C 0.75427 0.98629 0.90389 0.0
N1732 N 0.71244 0.96182 0.86637 0.0
N1733 N 0.81682 0.03994 0.85269 0.0
C1734 C 0.73749 0.98204 0.8636 0.0
C1735 C 0.79075 0.02141 0.85435 0.0
N1736 N 0.73059 0.99184 0.78142 0.0
N1737 N 0.79772 0.01372 0.93633 0.0
H1738 H 0.82593 0.05278 0.82451 0.0
H1739 H 0.82975 0.04301 0.88087 0.0
H1740 H 0.7923 0.00564 0.97063 0.0
H1741 H 0.7923 0.00564 0.97063 0.0
H1742 H 0.71054 0.98015 0.78437 0.0
H1743 H 0.73676 -0.00067 0.74707 0.0
H1744 H 0.70069 0.95253 0.83682 0.0
H1745 H 0.70389 0.95362 0.89909 0.0
C1746 C 0.00764 0.74705 0.87476 0.0
C1747 C 0.01614 0.77188 0.89761 0.0
C1748 C 0.00081 0.7846 0.82333 0.0
C1749 C 0.99148 0.75963 0.80067 0.0
N1750 N 0.996 0.72155 0.80041 0.0
N1751 N 0.00806 0.80835 0.89783 0.0
C1752 C -0.00247 0.74201 0.82552 0.0
C1753 C 0.00923 0.78898 0.87285 0.0
N1754 N 0.0075 0.72749 0.9011 0.0
N1755 N 0.00375 0.80533 0.79652 0.0
H1756 H 0.0097 0.80985 0.93507 0.0
H1757 H 0.00099 0.8199 0.8829 0.0
H1758 H 0.00136 0.80425 0.75937 0.0
H1759 H 0.01258 0.82445 0.80982 0.0
H1760 H -0.0 0.70834 0.88886 0.0
H1761 H 0.01147 0.72959 0.93771 0.0
H1762 H -0.0003 0.70742 0.81493 0.0
H1763 H 0.99397 0.72064 0.76317 0.0
C1764 C -0.00064 0.33979 0.87097 0.0
C1765 C 0.99235 0.35686 0.89385 0.0
C1766 C -0.00075 0.38135 0.81973 0.0
C1767 C 0.01173 0.36799 0.80003 0.0
N1768 N 0.02286 0.33367 0.80522 0.0
N1769 N 0.98428 0.39324 0.89108 0.0
C1770 C 0.01126 0.34667 0.82493 0.0
C1771 C 0.99153 0.37721 0.86826 0.0
N1772 N 0.99437 0.31707 0.89326 0.0
N1773 N 0.99371 0.39709 0.79166 0.0
H1774 H 0.9765 0.38959 0.92571 0.0
H1775 H 0.98715 0.41083 0.8766 0.0
H1776 H -0.00142 0.40066 0.75549 0.0
H1777 H 0.9819 0.40466 0.8029 0.0
H1778 H 0.99702 0.30259 0.8771 0.0
H1779 H 0.98503 0.31161 0.92654 0.0
H1780 H 0.02479 0.31916 0.82302 0.0
H1781 H 0.03215 0.33857 0.77187 0.0
C1782 C 0.63554 0.58291 0.89277 0.0
C1783 C 0.63543 0.59901 0.93024 0.0
C1784 C 0.62338 0.62321 0.87436 0.0
C1785 C 0.62154 0.60583 0.83756 0.0
N1786 N 0.61948 0.56532 0.8137 0.0
N1787 N 0.62121 0.62884 0.95944 0.0
C1788 C 0.62573 0.58449 0.84729 0.0
C1789 C 0.62701 0.61757 0.92196 0.0
N1790 N 0.64547 0.56657 0.90041 0.0
N1791 N 0.62249 0.64549 0.86387 0.0
H1792 H 0.62268 0.62476 0.9953 0.0
H1793 H 0.61232 0.64023 0.95478 0.0
H1794 H 0.61999 0.65049 0.82914 0.0
H1795 H 0.62656 0.66013 0.88912 0.0
H1796 H 0.64827 0.55618 0.87302 0.0
H1797 H 0.65291 0.56508 0.93354 0.0
H1798 H 0.61893 0.54772 0.8214 0.0
H1799 H 0.61201 0.56569 0.77991 0.0
C1800 C 0.36694 0.01267 0.86044 0.0
C1801 C 0.36946 0.99521 0.89205 0.0
C1802 C 0.34709 0.95937 0.83468 0.0
C1803 C 0.3482 0.97757 0.80051 0.0
N1804 N 0.36171 0.02237 0.77847 0.0
N1805 N 0.36541 0.95285 0.90732 0.0
C1806 C 0.35826 0.00438 0.81291 0.0
C1807 C 0.3604 0.96874 0.87878 0.0
N1808 N 0.3736 0.03739 0.87536 0.0
N1809 N 0.33374 0.93319 0.82405 0.0
H1810 H 0.3744 0.95848 0.94083 0.0
H1811 H 0.36139 0.9342 0.89702 0.0
H1812 H 0.32375 0.92616 0.79167 0.0
H1813 H 0.33062 0.91851 0.84844 0.0
H1814 H 0.36895 0.04973 0.85614 0.0
H1815 H 0.38247 0.04505 0.90837 0.0
H1816 H 0.37258 0.04253 0.78422 0.0
H1817 H 0.35533 0.01741 0.74317 0.0
C1818 C 0.00941 0.64864 0.34703 0.0
C1819 C 0.98942 0.63326 0.31399 0.0
C1820 C 0.95817 0.61223 0.37928 0.0
C1821 C 0.97931 0.62372 0.41188 0.0
N1822 N 0.02577 0.65062 0.42716 0.0
N1823 N 0.94603 0.59685 0.29828 0.0
C1824 C 0.00514 0.64174 0.39603 0.0
C1825 C 0.96386 0.61453 0.32975 0.0
N1826 N 0.03279 0.66881 0.33093 0.0
N1827 N 0.93296 0.59782 0.3956 0.0
H1828 H 0.94959 0.59721 0.2616 0.0
H1829 H 0.9289 0.58023 0.3095 0.0
H1830 H 0.92826 0.59518 0.43199 0.0
H1831 H 0.91665 0.59033 0.3731 0.0
H1832 H 0.04817 0.68123 0.35336 0.0
H1833 H 0.03604 0.67428 0.29484 0.0
H1834 H 0.04529 0.66047 0.41611 0.0
H1835 H 0.02323 0.64668 0.46385 0.0
C1836 C 0.35956 0.40619 0.32717 0.0
C1837 C 0.3707 0.40002 0.28818 0.0
C1838 C 0.39929 0.39246 0.34144 0.0
C1839 C 0.38728 0.39753 0.38071 0.0
N1840 N 0.36371 0.41827 0.41078 0.0
N1841 N 0.40709 0.39689 0.25582 0.0
C1842 C 0.36973 0.4072 0.37355 0.0
C1843 C 0.39251 0.39615 0.29454 0.0
N1844 N 0.33914 0.41071 0.31979 0.0
N1845 N 0.41679 0.3839 0.34909 0.0
H1846 H 0.40328 0.40098 0.22131 0.0
H1847 H 0.42421 0.39583 0.25819 0.0
H1848 H 0.42229 0.38126 0.3833 0.0
H1849 H 0.42499 0.37819 0.32183 0.0
H1850 H 0.32898 0.41366 0.34724 0.0
H1851 H 0.33152 0.41046 0.28588 0.0
H1852 H 0.35311 0.42796 0.40649 0.0
H1853 H 0.3713 0.41977 0.44521 0.0
C1854 C 0.65289 0.98853 0.33579 0.0
C1855 C 0.63432 0.99211 0.30898 0.0
C1856 C 0.63117 0.01853 0.37393 0.0
C1857 C 0.64757 0.01267 0.40209 0.0
N1858 N 0.68091 0.0006 0.40648 0.0
N1859 N 0.61159 0.01669 0.29684 0.0
C1860 C 0.66093 0.00065 0.38158 0.0
C1861 C 0.6253 0.00912 0.32623 0.0
N1862 N 0.66165 0.97244 0.31868 0.0
N1863 N 0.62 0.03182 0.3943 0.0
H1864 H 0.60626 0.01003 0.26186 0.0
H1865 H 0.6072 0.0313 0.3055 0.0
H1866 H 0.62556 0.04048 0.42817 0.0
H1867 H 0.60477 0.03351 0.37887 0.0
H1868 H 0.67405 0.96779 0.33759 0.0
H1869 H 0.65528 0.96229 0.28631 0.0
H1870 H 0.69316 0.99423 0.39231 0.0
H1871 H 0.68682 0.00943 0.44009 0.0
C1872 C 0.66513 0.66994 0.20578 0.0
C1873 C 0.65296 0.68378 0.22328 0.0
C1874 C 0.65783 0.70483 0.14563 0.0
C1875 C 0.67418 0.69456 0.13065 0.0
N1876 N 0.69355 0.66749 0.14533 0.0
N1877 N 0.63365 0.71085 0.21031 0.0
C1878 C 0.67742 0.67666 0.16003 0.0
C1879 C 0.64743 0.69956 0.19265 0.0
N1880 N 0.66515 0.65078 0.23345 0.0
N1881 N 0.65203 0.71936 0.1148 0.0
H1882 H 0.62415 0.70553 0.2435 0.0
H1883 H 0.63231 0.72593 0.19351 0.0
H1884 H 0.66033 0.72523 0.08095 0.0
H1885 H 0.63776 0.72453 0.12128 0.0
H1886 H 0.67151 0.63811 0.22146 0.0
H1887 H 0.65646 0.646 0.26731 0.0
H1888 H 0.69777 0.65526 0.16579 0.0
H1889 H 0.70402 0.67337 0.1132 0.0
C1890 C 0.27925 0.94529 0.19564 0.0
C1891 C 0.29646 0.96351 0.16145 0.0
C1892 C 0.33259 0.98124 0.21947 0.0
C1893 C 0.31538 0.96285 0.25367 0.0
N1894 N 0.27061 0.93239 0.27843 0.0
N1895 N 0.33764 0.00192 0.14191 0.0
C1896 C 0.28825 0.94616 0.24293 0.0
C1897 C 0.32256 0.98261 0.17386 0.0
N1898 N 0.25431 0.92671 0.18257 0.0
N1899 N 0.35863 0.9968 0.23028 0.0
H1900 H 0.33101 0.00289 0.10782 0.0
H1901 H 0.35585 0.01805 0.14996 0.0
H1902 H 0.36661 0.99607 0.26326 0.0
H1903 H 0.37279 0.00924 0.20593 0.0
H1904 H 0.24228 0.91032 0.20341 0.0
H1905 H 0.24599 0.92696 0.14963 0.0
H1906 H 0.25042 0.92374 0.27368 0.0
H1907 H 0.27561 0.93212 0.31413 0.0
C1908 C 0.0497 0.33664 0.21389 0.0
C1909 C 0.03174 0.3433 0.23482 0.0
C1910 C 0.003 0.32447 0.16476 0.0
C1911 C 0.02304 0.32172 0.14151 0.0
N1912 N 0.06925 0.33452 0.13979 0.0
N1913 N 0.99267 0.34679 0.22714 0.0
C1914 C 0.04753 0.33057 0.16475 0.0
C1915 C 0.00871 0.33817 0.20934 0.0
N1916 N 0.06805 0.33469 0.24101 0.0
N1917 N 0.97848 0.31346 0.14502 0.0
H1918 H 0.99661 0.35722 0.25926 0.0
H1919 H 0.9769 0.34567 0.20805 0.0
H1920 H 0.97354 0.30268 0.11319 0.0
H1921 H 0.96254 0.313 0.16232 0.0
H1922 H 0.07981 0.32758 0.22714 0.0
H1923 H 0.06928 0.3368 0.27818 0.0
H1924 H 0.08781 0.34279 0.15549 0.0
H1925 H 0.06958 0.33291 0.10259 0.0
C1926 C 0.69086 0.96063 0.67081 0.0
C1927 C 0.68686 0.97754 0.64095 0.0
C1928 C 0.66619 0.98823 0.7063 0.0
C1929 C 0.66543 0.96723 0.73304 0.0
N1930 N 0.67804 0.93372 0.7417 0.0
N1931 N 0.67976 0.01402 0.63263 0.0
C1932 C 0.67817 0.95355 0.71567 0.0
C1933 C 0.67741 0.99358 0.65957 0.0
N1934 N 0.7066 0.95116 0.65508 0.0
N1935 N 0.65507 0.002 0.72466 0.0
H1936 H 0.68859 0.01825 0.59891 0.0
H1937 H 0.67513 0.02796 0.64464 0.0
H1938 H 0.64714 -0.00117 0.75902 0.0
H1939 H 0.65293 0.01608 0.70584 0.0
H1940 H 0.71212 0.94006 0.67599 0.0
H1941 H 0.71615 0.95669 0.62195 0.0
H1942 H 0.68392 0.92098 0.728 0.0
H1943 H 0.67125 0.92912 0.77677 0.0
C1944 C 0.04611 0.71669 0.63194 0.0
C1945 C 0.01878 0.7011 0.62169 0.0
C1946 C 0.01131 0.68023 0.70059 0.0
C1947 C 0.03768 0.69867 0.71306 0.0
N1948 N 0.08034 0.73461 0.69209 0.0
N1949 N 0.97535 0.66714 0.64426 0.0
C1950 C 0.05516 0.71678 0.67894 0.0
C1951 C 0.00144 0.68222 0.65515 0.0
N1952 N 0.06361 0.73058 0.59627 0.0
N1953 N 0.99559 0.66133 0.73273 0.0
H1954 H 0.96736 0.66838 0.61164 0.0
H1955 H 0.96108 0.65437 0.66811 0.0
H1956 H 0.00134 0.66078 0.76774 0.0
H1957 H 0.9774 0.64528 0.72433 0.0
H1958 H 0.08384 0.74106 0.601 0.0
H1959 H 0.0584 0.72999 0.56043 0.0
H1960 H 0.09267 0.7512 0.67202 0.0
H1961 H 0.08859 0.73353 0.72456 0.0
C1962 C 0.26854 0.29576 0.69269 0.0
C1963 C 0.29037 0.31011 0.72369 0.0
C1964 C 0.32008 0.3132 0.65952 0.0
C1965 C 0.29807 0.2995 0.62947 0.0
N1966 N 0.25241 0.26727 0.62345 0.0
N1967 N 0.33556 0.32279 0.74152 0.0
C1968 C 0.27272 0.28622 0.64929 0.0
C1969 C 0.31585 0.31569 0.70885 0.0
N1970 N 0.24471 0.29376 0.70155 0.0
N1971 N 0.34468 0.3249 0.64028 0.0
H1972 H 0.3323 0.32249 0.77836 0.0
H1973 H 0.35406 0.32576 0.73244 0.0
H1974 H 0.34773 0.32228 0.60425 0.0
H1975 H 0.36148 0.3377 0.65949 0.0
H1976 H 0.22906 0.28502 0.6775 0.0
H1977 H 0.24155 0.30363 0.72953 0.0
H1978 H 0.23349 0.25628 0.63741 0.0
H1979 H 0.25552 0.26109 0.59018 0.0
C1980 C 0.27768 0.03282 0.54067 0.0
C1981 C 0.29177 0.02719 0.57495 0.0
C1982 C 0.32133 0.02734 0.51347 0.0
C1983 C 0.31054 0.03811 0.48148 0.0
N1984 N 0.27804 0.05052 0.46202 0.0
N1985 N 0.32528 0.01688 0.5957 0.0
C1986 C 0.28817 0.04017 0.49391 0.0
C1987 C 0.31249 0.02283 0.56146 0.0
N1988 N 0.25484 0.03189 0.55392 0.0
N1989 N 0.34032 0.02203 0.49813 0.0
H1990 H 0.31902 0.01282 0.63122 0.0
H1991 H 0.34285 0.01732 0.58946 0.0
H1992 H 0.34882 0.02721 0.46416 0.0
H1993 H 0.34667 0.0112 0.51786 0.0
H1994 H 0.24247 0.03423 0.53022 0.0
H1995 H 0.24725 0.02645 0.58857 0.0
H1996 H 0.26354 0.05507 0.47067 0.0
H1997 H 0.28516 0.05603 0.42718 0.0
C1998 C 0.98949 0.32735 0.49548 0.0
C1999 C 0.96696 0.30667 0.47316 0.0
C2000 C 0.95634 0.27953 0.54445 0.0
C2001 C 0.97747 0.30077 0.5682 0.0
N2002 N 0.01765 0.3421 0.56615 0.0
N2003 N 0.92567 0.26598 0.47877 0.0
C2004 C 0.99519 0.32399 0.54364 0.0
C2005 C 0.94945 0.28352 0.49835 0.0
N2006 N 0.00459 0.35025 0.47113 0.0
N2007 N 0.94298 0.25557 0.56641 0.0
H2008 H 0.91939 0.2688 0.44541 0.0
H2009 H 0.91107 0.24998 0.49735 0.0
H2010 H 0.94798 0.25208 0.60048 0.0
H2011 H 0.92886 0.23863 0.54923 0.0
H2012 H 0.02047 0.36681 0.48587 0.0
H2013 H 0.00023 0.3533 0.43627 0.0
H2014 H 0.03229 0.3591 0.55014 0.0
H2015 H 0.02254 0.33896 0.60054 0.0
C2016 C 0.70867 0.65645 0.5563 0.0
C2017 C 0.69722 0.67203 0.56973 0.0
C2018 C 0.67316 0.66115 0.49357 0.0
C2019 C 0.68871 0.65058 0.47733 0.0
N2020 N 0.71819 0.6343 0.49267 0.0
N2021 N 0.66774 0.6885 0.55239 0.0
C2022 C 0.705 0.64645 0.50913 0.0
C2023 C 0.67872 0.67369 0.53911 0.0
N2024 N 0.72234 0.65045 0.58891 0.0
N2025 N 0.65353 0.65949 0.46493 0.0
H2026 H 0.67252 0.69923 0.58421 0.0
H2027 H 0.65507 0.69157 0.53085 0.0
H2028 H 0.64959 0.65068 0.43118 0.0
H2029 H 0.63967 0.66449 0.47603 0.0
H2030 H 0.7284 0.63682 0.58272 0.0
H2031 H 0.7258 0.65711 0.62411 0.0
H2032 H 0.73389 0.63454 0.51047 0.0
H2033 H 0.71402 0.62483 0.45944 0.0
C2034 C 0.33219 0.31034 0.98825 0.0
C2035 C 0.34054 0.29173 0.97968 0.0
C2036 C 0.32679 0.27356 0.05918 0.0
C2037 C 0.32209 0.29435 0.0705 0.0
N2038 N 0.31934 0.33226 0.04763 0.0
N2039 N 0.35201 0.26036 1.01036 0.0
C2040 C 0.32459 0.31283 1.03551 0.0
C2041 C 0.3398 0.27482 1.01635 0.0
N2042 N 0.33072 0.32477 0.95117 0.0
N2043 N 0.31925 0.25295 0.09007 0.0
H2044 H 0.36263 0.2616 0.97947 0.0
H2045 H 0.35395 0.2494 1.03781 0.0
H2046 H 0.30926 0.25131 0.12197 0.0
H2047 H 0.32048 0.23631 0.08165 0.0
H2048 H 0.32482 0.33867 0.95487 0.0
H2049 H 0.33427 0.32204 0.91563 0.0
H2050 H 0.32306 0.34799 1.02547 0.0
H2051 H 0.3116 0.3328 0.08103 0.0
C2052 C 0.68107 0.0025 1.00577 0.0
C2053 C 0.70295 0.02488 0.98522 0.0
C2054 C 0.72881 0.03145 0.05722 0.0
C2055 C 0.7061 0.01158 0.07971 0.0
N2056 N 0.66332 0.97373 0.07538 0.0
N2057 N 0.74555 0.06381 0.99434 0.0
C2058 C 0.68298 0.99555 0.05374 0.0
C2059 C 0.72643 0.04009 1.01153 0.0
N2060 N 0.6584 0.98883 0.98014 0.0
N2061 N 0.75236 0.04255 0.08071 0.0
H2062 H 0.74397 0.07164 0.96175 0.0
H2063 H 0.76188 0.07692 1.01429 0.0
H2064 H 0.75429 0.03638 0.11481 0.0
H2065 H 0.77015 0.05573 0.06465 0.0
H2066 H 0.64105 0.97343 0.99368 0.0
H2067 H 0.65664 0.99355 0.94496 0.0
H2068 H 0.64589 0.96024 0.0588 0.0
H2069 H 0.6655 0.96824 0.10997 0.0
C2070 C 0.91953 0.63598 1.01367 0.0
C2071 C 0.93254 0.65265 0.97443 0.0
C2072 C 0.951 0.69126 1.02603 0.0
C2073 C 0.93731 0.67477 0.06492 0.0
N2074 N 0.90273 0.63288 0.09407 0.0
N2075 N 0.95212 0.69622 0.9403 0.0
C2076 C 0.9196 0.64752 0.05825 0.0
C2077 C 0.94579 0.68037 0.97964 0.0
N2078 N 0.9079 0.60935 1.0087 0.0
N2079 N 0.96892 0.71718 1.03337 0.0
H2080 H 0.94687 0.68912 0.90538 0.0
H2081 H 0.96027 0.71641 0.94288 0.0
H2082 H 0.97235 0.72617 0.06694 0.0
H2083 H 0.98165 0.72929 1.00674 0.0
H2084 H 0.89987 0.59629 1.03725 0.0
H2085 H 0.90798 0.60037 0.97646 0.0
H2086 H 0.88773 0.61355 0.0894 0.0
H2087 H 0.90222 0.64067 0.12738 0.0
C2088 C 0.06481 0.53086 0.97166 0.0
C2089 C 0.07081 0.52129 0.92945 0.0
C2090 C 0.06095 0.48078 0.97427 0.0
C2091 C 0.05803 0.49163 1.01852 0.0
N2092 N 0.05815 0.52857 0.05761 0.0
N2093 N 0.07788 0.48837 0.89255 0.0
C2094 C 0.06042 0.51716 1.01657 0.0
C2095 C 0.06954 0.4965 0.93135 0.0
N2096 N 0.06179 0.55243 0.96839 0.0
N2097 N 0.05552 0.45535 0.97241 0.0
H2098 H 0.08471 0.4993 0.86106 0.0
H2099 H 0.08027 0.47196 0.89275 0.0
H2100 H 0.05218 0.44368 1.00234 0.0
H2101 H 0.05303 0.44519 0.94042 0.0
H2102 H 0.054 0.55856 0.99574 0.0
H2103 H 0.06467 0.56287 0.93658 0.0
H2104 H 0.06414 0.54845 0.06027 0.0
H2105 H 0.05076 0.51845 0.08957 0.0
C2106 C 0.49139 0.56692 1.00373 0.0
C2107 C 0.5131 0.56287 1.01418 0.0
C2108 C 0.50578 0.54145 0.93378 0.0
C2109 C 0.48574 0.54753 0.92253 0.0
N2110 N 0.46417 0.57175 0.94342 0.0
N2111 N 0.54254 0.54852 0.98426 0.0
C2112 C 0.47996 0.56186 0.95662 0.0
C2113 C 0.52083 0.55098 0.97755 0.0
N2114 N 0.48092 0.57521 1.0387 0.0
N2115 N 0.50977 0.52552 0.90346 0.0
H2116 H 0.55285 0.55294 1.01641 0.0
H2117 H 0.55122 0.54336 0.95695 0.0
H2118 H 0.49995 0.51896 0.87081 0.0
H2119 H 0.52109 0.51705 0.91248 0.0
H2120 H 0.46302 0.5747 1.03492 0.0
H2121 H 0.4886 0.58073 0.07285 0.0
H2122 H 0.46195 0.58534 0.96396 0.0
H2123 H 0.45537 0.56853 0.90971 0.0
C2124 C 0.45476 0.9291 1.01359 0.0
C2125 C 0.43111 0.93039 1.01798 0.0
C2126 C 0.42454 0.92233 0.92964 0.0
C2127 C 0.44844 0.92189 0.92551 0.0
N2128 N 0.48852 0.92929 0.96238 0.0
N2129 N 0.39074 0.922 0.98022 0.0
C2130 C 0.46401 0.92632 0.96728 0.0
C2131 C 0.41545 0.9256 0.97577 0.0
N2132 N 0.46819 0.9295 0.05381 0.0
N2133 N 0.41089 0.92067 0.8888 0.0
H2134 H 0.38331 0.92425 1.0125 0.0
H2135 H 0.37663 0.91416 0.95331 0.0
H2136 H 0.41633 0.91747 0.85494 0.0
H2137 H 0.39529 0.92428 0.88765 0.0
H2138 H 0.48266 0.9242 0.05395 0.0
H2139 H 0.46397 0.93349 0.08788 0.0
H2140 H 0.5026 0.93639 0.98949 0.0
H2141 H 0.49568 0.92671 0.9298 0.0
C2142 C 0.50562 0.04677 0.7086 0.0
C2143 C 0.4812 0.04677 0.70371 0.0
C2144 C 0.48693 0.06165 0.78958 0.0
C2145 C 0.51026 0.06002 0.79446 0.0
N2146 N 0.5392 0.04669 0.75963 0.0
N2147 N 0.44748 0.05168 0.74518 0.0
C2148 C 0.51889 0.05159 0.75408 0.0
C2149 C 0.47147 0.05323 0.74597 0.0
N2150 N 0.51652 0.04195 0.66959 0.0
N2151 N 0.48028 0.0729 0.82588 0.0
H2152 H 0.43666 0.04929 0.71432 0.0
H2153 H 0.43749 0.05165 0.77608 0.0
H2154 H 0.4912 0.07982 0.85738 0.0
H2155 H 0.46547 0.07766 0.82333 0.0
H2156 H 0.53621 0.04703 0.66759 0.0
H2157 H 0.50599 0.03308 0.63885 0.0
H2158 H 0.54448 0.03728 0.73397 0.0
H2159 H 0.54946 0.04979 0.79169 0.0
C2160 C 0.90893 0.41535 0.71524 0.0
C2161 C 0.93495 0.42742 0.69603 0.0
C2162 C 0.95026 0.45707 0.76702 0.0
C2163 C 0.92466 0.44402 0.78753 0.0
N2164 N 0.88045 0.40771 0.78427 0.0
N2165 N 0.98118 0.45769 0.70844 0.0
C2166 C 0.90422 0.4224 0.76226 0.0
C2167 C 0.95581 0.4475 0.7236 0.0
N2168 N 0.88851 0.39684 0.68873 0.0
N2169 N 0.96918 0.47971 0.7877 0.0
H2170 H 0.98629 0.45373 0.67499 0.0
H2171 H 0.99739 0.46925 0.73003 0.0
H2172 H 0.96595 0.48743 0.81897 0.0
H2173 H 0.9872 0.49203 0.77155 0.0
H2174 H 0.86885 0.38977 0.6972 0.0
H2175 H 0.89111 0.38942 0.65661 0.0
H2176 H 0.86555 0.38994 0.77093 0.0
H2177 H 0.87631 0.41214 0.81827 0.0
C2178 C 0.54382 0.46626 0.75323 0.0
C2179 C 0.54399 0.48099 0.79383 0.0
C2180 C 0.55537 0.51841 0.73917 0.0
C2181 C 0.55972 0.50532 0.69975 0.0
N2182 N 0.56173 0.4665 0.6752 0.0
N2183 N 0.55549 0.52348 0.82567 0.0
C2184 C 0.55488 0.47914 0.70838 0.0
C2185 C 0.55149 0.50778 0.78679 0.0
N2186 N 0.5322 0.43957 0.75671 0.0
N2187 N 0.55297 0.54006 0.73131 0.0
H2188 H 0.55388 0.51675 0.86081 0.0
H2189 H 0.56313 0.5437 0.82299 0.0
H2190 H 0.55231 0.54691 0.69723 0.0
H2191 H 0.54761 0.54883 0.75816 0.0
H2192 H 0.52864 0.42744 0.72705 0.0
H2193 H 0.52361 0.42933 0.78826 0.0
H2194 H 0.56143 0.44897 0.68257 0.0
H2195 H 0.5704 0.47433 0.64237 0.0
C2196 C 0.93382 0.47417 0.20218 0.0
C2197 C 0.93587 0.49955 0.19988 0.0
C2198 C 0.9264 0.49577 0.28783 0.0
C2199 C 0.92568 0.47124 0.28994 0.0
N2200 N 0.93402 0.43977 0.25065 0.0
N2201 N 0.93833 0.53607 0.24498 0.0
C2202 C 0.9308 0.46122 0.24746 0.0
C2203 C 0.93357 0.51083 0.24405 0.0
N2204 N 0.93486 0.46207 0.16109 0.0
N2205 N 0.91916 0.50434 0.32749 0.0
H2206 H 0.94108 0.54738 0.21462 0.0
H2207 H 0.94107 0.54655 0.27662 0.0
H2208 H 0.91437 0.4943 0.36011 0.0
H2209 H 0.91588 0.5202 0.32723 0.0
H2210 H 0.92888 0.44215 0.1593 0.0
H2211 H 0.94113 0.47153 0.12829 0.0
H2212 H 0.9413 0.43339 0.22282 0.0
H2213 H 0.93165 0.42961 0.28265 0.0
C2214 C 0.48036 0.45136 0.28449 0.0
C2215 C 0.50559 0.45396 0.29153 0.0
C2216 C 0.50317 0.43764 0.20886 0.0
C2217 C 0.4791 0.43752 0.19946 0.0
N2218 N 0.44881 0.45115 0.228 0.0
N2219 N 0.54377 0.45652 0.25428 0.0
C2220 C 0.46882 0.44632 0.23725 0.0
C2221 C 0.51777 0.44925 0.2518 0.0
N2222 N 0.46689 0.45291 0.32312 0.0
N2223 N 0.51174 0.42529 0.17846 0.0
H2224 H 0.55536 0.46557 0.28437 0.0
H2225 H 0.55444 0.45624 0.22462 0.0
H2226 H 0.5015 0.41504 0.14827 0.0
H2227 H 0.52747 0.42243 0.18649 0.0
H2228 H 0.44737 0.44844 0.32127 0.0
H2229 H 0.47446 0.45633 0.35788 0.0
H2230 H 0.44236 0.46005 0.25263 0.0
H2231 H 0.44026 0.44863 0.19434 0.0
C2232 C 0.54803 0.02926 0.23494 0.0
C2233 C 0.56322 0.05081 0.20323 0.0
C2234 C 0.56182 0.08066 0.26548 0.0
C2235 C 0.54449 0.05887 0.29433 0.0
N2236 N 0.51804 0.01211 0.30284 0.0
N2237 N 0.58435 0.09759 0.18959 0.0
C2238 C 0.53691 0.03314 0.27805 0.0
C2239 C 0.56988 0.07662 0.21892 0.0
N2240 N 0.54429 0.00491 0.2247 0.0
N2241 N 0.57147 0.10544 0.28352 0.0
H2242 H 0.59366 0.09641 0.15875 0.0
H2243 H 0.58656 0.11611 0.19492 0.0
H2244 H 0.56568 0.10917 0.3166 0.0
H2245 H 0.58658 0.12223 0.26769 0.0
H2246 H 0.5371 0.98967 0.24961 0.0
H2247 H 0.5497 3e-05 0.19256 0.0
H2248 H 0.50914 0.99288 0.29023 0.0
H2249 H 0.50955 0.01412 0.33425 0.0
C2250 C 0.48534 0.91187 0.50308 0.0
C2251 C 0.50724 0.93739 0.51338 0.0
C2252 C 0.49892 0.95254 0.43507 0.0
C2253 C 0.47831 0.92678 0.42409 0.0
N2254 N 0.4554 0.88091 0.44392 0.0
N2255 N 0.53703 0.98107 0.48341 0.0
C2256 C 0.47254 0.90624 0.45715 0.0
C2257 C 0.51473 0.95735 0.4775 0.0
N2258 N 0.47633 0.89263 0.53715 0.0
N2259 N 0.50282 0.97276 0.4056 0.0
H2260 H 0.54853 0.9863 0.51411 0.0
H2261 H 0.54533 0.99507 0.45635 0.0
H2262 H 0.49185 0.96991 0.37449 0.0
H2263 H 0.51531 0.99247 0.41371 0.0
H2264 H 0.45829 0.87536 0.53484 0.0
H2265 H 0.48598 0.89422 0.56915 0.0
H2266 H 0.45286 0.86461 0.46313 0.0
H2267 H 0.44529 0.87597 0.41136 0.0
C2268 C 0.09055 0.56784 0.45527 0.0
C2269 C 0.0694 0.54631 0.43113 0.0
C2270 C 0.0395 0.54424 0.49603 0.0
C2271 C 0.06105 0.56427 0.5225 0.0
N2272 N 0.10781 0.59378 0.52798 0.0
N2273 N 0.02443 0.51138 0.43262 0.0
C2274 C 0.08678 0.57552 0.50233 0.0
C2275 C 0.04406 0.53393 0.45259 0.0
N2276 N 0.11412 0.58178 0.43222 0.0
N2277 N 0.01443 0.53489 0.51217 0.0
H2278 H 0.0269 0.50331 0.40105 0.0
H2279 H 0.00647 0.49943 0.44933 0.0
H2280 H 0.00995 0.53947 0.54565 0.0
H2281 H -0.00214 0.52339 0.49133 0.0
H2282 H 0.12946 0.59952 0.44471 0.0
H2283 H 0.11768 0.57674 0.39828 0.0
H2284 H 0.12726 0.6003 0.5186 0.0
H2285 H 0.10595 0.60151 0.56035 0.0
C2286 C 0.467 0.52929 0.46157 0.0
C2287 C 0.44904 0.52291 0.42287 0.0
C2288 C 0.41395 0.49094 0.47653 0.0
C2289 C 0.43169 0.49871 0.51604 0.0
N2290 N 0.47267 0.53362 0.54729 0.0
N2291 N 0.40359 0.50295 0.39919 0.0
C2292 C 0.45743 0.52041 0.509 0.0
C2293 C 0.42191 0.5052 0.43199 0.0
N2294 N 0.49343 0.5429 0.45323 0.0
N2295 N 0.38916 0.47032 0.48176 0.0
H2296 H 0.40853 0.51396 0.3677 0.0
H2297 H 0.38344 0.49256 0.40537 0.0
H2298 H 0.38282 0.45928 0.51298 0.0
H2299 H 0.37537 0.46331 0.45441 0.0
H2300 H 0.5072 0.54602 0.47977 0.0
H2301 H 0.50146 0.54849 0.41898 0.0
H2302 H 0.49 0.55154 0.54346 0.0
H2303 H 0.46687 0.52827 0.58265 0.0
C2304 C 0.73368 0.86492 0.29737 0.0
C2305 C 0.73699 0.85377 0.2545 0.0
C2306 C 0.73111 0.8153 0.30166 0.0
C2307 C 0.7274 0.82613 0.34503 0.0
N2308 N 0.72726 0.86297 0.38356 0.0
N2309 N 0.73408 0.81623 0.21435 0.0
C2310 C 0.72924 0.8514 0.34251 0.0
C2311 C 0.73434 0.82837 0.25638 0.0
N2312 N 0.73338 0.88802 0.29444 0.0
N2313 N 0.73361 0.79343 0.30396 0.0
H2314 H 0.73713 0.82534 0.18097 0.0
H2315 H 0.72874 0.79651 0.21191 0.0
H2316 H 0.73254 0.78386 0.33588 0.0
H2317 H 0.73935 0.78615 0.2752 0.0
H2318 H 0.72742 0.89577 0.32206 0.0
H2319 H 0.73759 0.89891 0.26286 0.0
H2320 H 0.73335 0.88284 0.38644 0.0
H2321 H 0.72011 0.85295 0.41566 0.0
C2322 C 0.17802 0.87282 0.26198 0.0
C2323 C 0.15826 0.87912 0.24951 0.0
C2324 C 0.16462 0.90052 0.32904 0.0
C2325 C 0.18581 0.89593 0.34096 0.0
N2326 N 0.21431 0.87983 0.31387 0.0
N2327 N 0.13755 0.90454 0.26734 0.0
C2328 C 0.19308 0.8829 0.30572 0.0
C2329 C 0.15295 0.89445 0.28209 0.0
N2330 N 0.18175 0.85627 0.23273 0.0
N2331 N 0.15504 0.91054 0.36251 0.0
H2332 H 0.1288 0.90087 0.23353 0.0
H2333 H 0.1356 0.91868 0.28653 0.0
H2334 H 0.16362 0.91762 0.39562 0.0
H2335 H 0.13728 0.91029 0.35854 0.0
H2336 H 0.19369 0.84845 0.24128 0.0
H2337 H 0.17125 0.84866 0.20099 0.0
H2338 H 0.22254 0.8733 0.28805 0.0
H2339 H 0.22511 0.88554 0.34547 0.0
C2340 C 0.09269 0.26374 0.26398 0.0
C2341 C 0.11699 0.26412 0.26033 0.0
C2342 C 0.1235 0.273 0.34794 0.0
C2343 C 0.09917 0.27297 0.35148 0.0
N2344 N 0.05688 0.25712 0.31558 0.0
N2345 N 0.15715 0.27212 0.2979 0.0
C2346 C 0.08291 0.26568 0.30996 0.0
C2347 C 0.13275 0.26946 0.30219 0.0
N2348 N 0.07896 0.26198 0.22324 0.0
N2349 N 0.13716 0.27477 0.38868 0.0
H2350 H 0.16401 0.26849 0.26594 0.0
H2351 H 0.17134 0.27962 0.32478 0.0
H2352 H 0.13232 0.27877 0.42224 0.0
H2353 H 0.15246 0.27067 0.39001 0.0
H2354 H 0.06274 0.26471 0.22296 0.0
H2355 H 0.08521 0.2602 0.1891 0.0
H2356 H 0.04315 0.24927 0.28794 0.0
H2357 H 0.04868 0.25376 0.34963 0.0
C2358 C 0.20016 0.39923 0.07731 0.0
C2359 C 0.18931 0.40261 0.1204 0.0
C2360 C 0.14924 0.39327 0.075 0.0
C2361 C 0.16076 0.39192 1.03036 0.0
N2362 N 0.20012 0.39772 0.99066 0.0
N2363 N 0.15474 0.40616 0.15925 0.0
C2364 C 0.18706 0.39617 1.0321 0.0
C2365 C 0.16418 0.40049 0.11881 0.0
N2366 N 0.22279 0.39803 0.07962 0.0
N2367 N 0.12382 0.38771 0.0761 0.0
H2368 H 0.1644 0.41037 0.19224 0.0
H2369 H 0.13841 0.40868 0.15963 0.0
H2370 H 0.11297 0.38487 0.04543 0.0
H2371 H 0.11301 0.38465 0.1074 0.0
H2372 H 0.22998 0.39199 0.05108 0.0
H2373 H 0.2333 0.40095 0.11139 0.0
H2374 H 0.22035 0.40523 0.98927 0.0
H2375 H 0.19133 0.39275 0.95712 0.0
C2376 C 0.60245 0.78608 1.02776 0.0
C2377 C 0.60326 0.76211 1.02509 0.0
C2378 C 0.59405 0.75654 0.11319 0.0
C2379 C 0.59344 0.78041 0.11552 0.0
N2380 N 0.60096 0.81993 0.07621 0.0
N2381 N 0.59228 0.72156 0.06435 0.0
C2382 C 0.59859 0.79561 0.07301 0.0
C2383 C 0.59736 0.74676 0.06788 0.0
N2384 N 0.60416 0.79944 0.98666 0.0
N2385 N 0.59208 0.74337 0.15482 0.0
H2386 H 0.59184 0.7133 1.03134 0.0
H2387 H 0.58529 0.708 0.09226 0.0
H2388 H 0.58931 0.74961 0.18824 0.0
H2389 H 0.59517 0.72744 0.15701 0.0
H2390 H 0.59897 0.81396 0.98455 0.0
H2391 H 0.60945 0.79527 0.95371 0.0
H2392 H 0.60848 0.83386 0.04891 0.0
H2393 H 0.59722 0.82708 0.1077 0.0
C2394 C 0.19529 0.79631 0.08312 0.0
C2395 C 0.20833 0.80943 0.12614 0.0
C2396 C 0.2414 0.84632 0.07671 0.0
C2397 C 0.22784 0.83408 1.03324 0.0
N2398 N 0.19317 0.79466 0.99614 0.0
N2399 N 0.24063 0.8495 0.16365 0.0
C2400 C 0.2051 0.80834 1.03688 0.0
C2401 C 0.23047 0.83513 0.1227 0.0
N2402 N 0.17263 0.77259 0.08657 0.0
N2403 N 0.26613 0.86755 0.07427 0.0
H2404 H 0.23336 0.84214 0.19775 0.0
H2405 H 0.25448 0.86946 0.16353 0.0
H2406 H 0.27578 0.87508 1.04195 0.0
H2407 H 0.27835 0.87556 0.10396 0.0
H2408 H 0.15957 0.76354 0.05837 0.0
H2409 H 0.16583 0.76239 0.11879 0.0
H2410 H 0.18003 0.77457 0.99533 0.0
H2411 H 0.19667 0.80297 0.96223 0.0
C2412 C 0.59572 0.7935 0.57303 0.0
C2413 C 0.59248 0.80462 0.61605 0.0
C2414 C 0.59759 0.84279 0.56847 0.0
C2415 C 0.60118 0.83194 0.525 0.0
N2416 N 0.6011 0.79501 0.48652 0.0
N2417 N 0.59509 0.8421 0.65589 0.0
C2418 C 0.59956 0.80678 0.52766 0.0
C2419 C 0.59473 0.82988 0.61391 0.0
N2420 N 0.59645 0.77062 0.57592 0.0
N2421 N 0.59489 0.86454 0.56612 0.0
H2422 H 0.59247 0.83319 0.68937 0.0
H2423 H 0.6001 0.86174 0.65813 0.0
H2424 H 0.59583 0.87401 0.53411 0.0
H2425 H 0.58914 0.87181 0.59489 0.0
H2426 H 0.60247 0.763 0.54816 0.0
H2427 H 0.5926 0.75984 0.60756 0.0
H2428 H 0.59533 0.7752 0.48398 0.0
H2429 H 0.60748 0.80476 0.45398 0.0
C2430 C 0.13969 0.75112 0.57893 0.0
C2431 C 0.14962 0.76655 0.53595 0.0
C2432 C 0.18888 0.79819 0.58453 0.0
C2433 C 0.17844 0.78297 0.62668 0.0
N2434 N 0.1423 0.74649 0.66563 0.0
N2435 N 0.18874 0.80203 0.49872 0.0
C2436 C 0.15342 0.75986 0.62411 0.0
C2437 C 0.17554 0.78932 0.53921 0.0
N2438 N 0.11827 0.72669 0.57587 0.0
N2439 N 0.21148 0.82196 0.58781 0.0
H2440 H 0.18013 0.79953 0.46547 0.0
H2441 H 0.20898 0.81464 0.49765 0.0
H2442 H 0.22275 0.82856 0.61897 0.0
H2443 H 0.2181 0.83608 0.56079 0.0
H2444 H 0.11169 0.71272 0.60306 0.0
H2445 H 0.10833 0.71941 0.54412 0.0
H2446 H 0.12322 0.73082 0.66822 0.0
H2447 H 0.1516 0.75219 0.6989 0.0
C2448 C 0.2076 0.39517 0.53438 0.0
C2449 C 0.23109 0.3934 0.53144 0.0
C2450 C 0.23707 0.40282 0.61961 0.0
C2451 C 0.2129 0.40295 0.62243 0.0
N2452 N 0.17334 0.39549 0.58309 0.0
N2453 N 0.26734 0.39422 0.57423 0.0
C2454 C 0.19777 0.39808 0.57994 0.0
C2455 C 0.24543 0.39672 0.57505 0.0
N2456 N 0.19451 0.39456 0.49351 0.0
N2457 N 0.25251 0.40919 0.65968 0.0
H2458 H 0.27609 0.39296 0.5428 0.0
H2459 H 0.27646 0.39237 0.6048 0.0
H2460 H 0.24649 0.41212 0.69318 0.0
H2461 H 0.27186 0.41313 0.65953 0.0
H2462 H 0.18063 0.40064 0.49217 0.0
H2463 H 0.19789 0.38886 0.46028 0.0
H2464 H 0.15953 0.38804 0.55554 0.0
H2465 H 0.16598 0.39901 0.61455 0.0
C2466 C 0.1295 0.2403 0.796 0.0
C2467 C 0.13911 0.25983 0.75946 0.0
C2468 C 0.1751 0.28916 0.81479 0.0
C2469 C 0.16673 0.26881 0.85013 0.0
N2470 N 0.13926 0.22254 0.8666 0.0
N2471 N 0.17446 0.30106 0.73125 0.0
C2472 C 0.14477 0.24373 0.83856 0.0
C2473 C 0.16292 0.2837 0.76814 0.0
N2474 N 0.10528 0.21853 0.79078 0.0
N2475 N 0.19388 0.31423 0.82611 0.0
H2476 H 0.16619 0.29796 0.69708 0.0
H2477 H 0.19334 0.31725 0.73315 0.0
H2478 H 0.20264 0.31973 0.85969 0.0
H2479 H 0.19887 0.33025 0.80382 0.0
H2480 H 0.09582 0.20504 0.81827 0.0
H2481 H 0.09361 0.2152 0.76047 0.0
H2482 H 0.12544 0.20335 0.85727 0.0
H2483 H 0.15051 0.22362 0.89628 0.0
C2484 C 0.72688 0.87043 0.8426 0.0
C2485 C 0.72898 0.89562 0.8475 0.0
C2486 C 0.74045 0.90347 0.76083 0.0
C2487 C 0.73719 0.87794 0.7556 0.0
N2488 N 0.72458 0.83592 0.79085 0.0
N2489 N 0.74818 0.93898 0.81475 0.0
C2490 C 0.72976 0.86118 0.79642 0.0
C2491 C 0.73831 0.91282 0.80726 0.0
N2492 N 0.72393 0.85587 0.88259 0.0
N2493 N 0.74506 0.91876 0.72105 0.0
H2494 H 0.75063 0.94645 0.8493 0.0
H2495 H 0.75754 0.95333 0.78857 0.0
H2496 H 0.74681 0.91273 0.6867 0.0
H2497 H 0.74506 0.93647 0.72144 0.0
H2498 H 0.72694 0.83986 0.88281 0.0
H2499 H 0.72061 0.8609 0.91654 0.0
H2500 H 0.71543 0.82144 0.81689 0.0
H2501 H 0.72778 0.82883 0.75876 0.0
C2502 C 0.12707 0.85176 0.83897 0.0
C2503 C 0.10414 0.82619 0.84324 0.0
C2504 C 0.10035 0.82518 0.7539 0.0
C2505 C 0.12261 0.85074 0.74989 0.0
N2506 N 0.15889 0.8875 0.78833 0.0
N2507 N 0.06512 0.79316 0.80331 0.0
C2508 C 0.13628 0.8638 0.7925 0.0
C2509 C 0.08995 0.81409 0.80016 0.0
N2510 N 0.13977 0.86523 0.87941 0.0
N2511 N 0.08951 0.81083 0.71317 0.0
H2512 H 0.05592 0.78566 0.83591 0.0
H2513 H 0.05245 0.78543 0.77411 0.0
H2514 H 0.09629 0.81815 0.67884 0.0
H2515 H 0.07553 0.79092 0.71357 0.0
H2516 H 0.15333 0.88521 0.8802 0.0
H2517 H 0.13649 0.85681 0.9132 0.0
H2518 H 0.17231 0.89667 0.81597 0.0
H2519 H 0.16521 0.89763 0.75595 0.0
C2520 C 0.40687 0.19319 0.68243 0.0
C2521 C 0.3962 0.16522 0.68506 0.0
C2522 C 0.39759 0.16498 0.59518 0.0
C2523 C 0.40573 0.19213 0.59335 0.0
N2524 N 0.41424 0.23123 0.6355 0.0
N2525 N 0.3811 0.12475 0.6404 0.0
C2526 C 0.40952 0.20596 0.63707 0.0
C2527 C 0.39128 0.15127 0.64035 0.0
N2528 N 0.41476 0.20818 0.72303 0.0
N2529 N 0.39739 0.15245 0.55366 0.0
H2530 H 0.38107 0.11443 0.67042 0.0
H2531 H 0.37239 0.11286 0.61056 0.0
H2532 H 0.40188 0.16164 0.52023 0.0
H2533 H 0.395 0.13367 0.55245 0.0
H2534 H 0.4276 0.22839 0.72238 0.0
H2535 H 0.40861 0.20101 0.7574 0.0
H2536 H 0.41426 0.24169 0.66567 0.0
H2537 H 0.41586 0.24113 0.6035 0.0
C2538 C 0.81583 0.2337 0.67281 0.0
C2539 C 0.84013 0.2343 0.6815 0.0
C2540 C 0.83921 0.22163 0.59596 0.0
C2541 C 0.81329 0.21743 0.58987 0.0
N2542 N 0.77483 0.21365 0.62855 0.0
N2543 N 0.87141 0.22229 0.65116 0.0
C2544 C 0.80103 0.22177 0.6301 0.0
C2545 C 0.8509 0.22653 0.64294 0.0
N2546 N 0.80723 0.24578 0.70387 0.0
N2547 N 0.85319 0.22176 0.55671 0.0
H2548 H 0.87938 0.22343 0.68499 0.0
H2549 H 0.87838 0.21439 0.62543 0.0
H2550 H 0.84575 0.21894 0.5219 0.0
H2551 H 0.87304 0.22738 0.55826 0.0
H2552 H 0.79104 0.24802 0.69669 0.0
H2553 H 0.81797 0.25649 0.73352 0.0
H2554 H 0.76433 0.21387 0.65854 0.0
H2555 H 0.76303 0.20404 0.59899 0.0
C2556 C 0.80029 0.60596 0.63067 0.0
C2557 C 0.78412 0.59805 0.58901 0.0
C2558 C 0.74935 0.60004 0.63653 0.0
C2559 C 0.76555 0.60856 0.6784 0.0
N2560 N 0.80517 0.61442 0.71636 0.0
N2561 N 0.74486 0.59183 0.55034 0.0
C2562 C 0.7907 0.61014 0.67558 0.0
C2563 C 0.75915 0.59641 0.59152 0.0
N2564 N 0.82547 0.61058 0.62687 0.0
N2565 N 0.72351 0.59268 0.64101 0.0
H2566 H 0.7511 0.58869 0.51722 0.0
H2567 H 0.72787 0.59314 0.54803 0.0
H2568 H 0.71547 0.59231 0.67423 0.0
H2569 H 0.70956 0.58387 0.614 0.0
H2570 H 0.83975 0.61994 0.65317 0.0
H2571 H 0.83282 0.60683 0.59564 0.0
H2572 H 0.82121 0.61149 0.7188 0.0
H2573 H 0.80065 0.61982 0.7489 0.0
C2574 C 0.85914 0.76213 0.42114 0.0
C2575 C 0.85836 0.74086 0.44711 0.0
C2576 C 0.82763 0.71035 0.38559 0.0
C2577 C 0.83047 0.73181 0.35692 0.0
N2578 N 0.8505 0.77873 0.34742 0.0
N2579 N 0.84492 0.69493 0.44939 0.0
C2580 C 0.84684 0.75785 0.37469 0.0
C2581 C 0.84328 0.71503 0.42811 0.0
N2582 N 0.87066 0.78642 0.44199 0.0
N2583 N 0.80987 0.68521 0.37257 0.0
H2584 H 0.85606 0.69747 0.48016 0.0
H2585 H 0.83722 0.67631 0.43429 0.0
H2586 H 0.79988 0.68027 0.34002 0.0
H2587 H 0.80408 0.66916 0.39527 0.0
H2588 H 0.86936 0.8022 0.42825 0.0
H2589 H 0.87976 0.79032 0.4755 0.0
H2590 H 0.8647 0.79807 0.35472 0.0
H2591 H 0.84017 0.77671 0.3159 0.0
C2592 C 0.2832 0.12157 0.38166 0.0
C2593 C 0.26197 0.10505 0.35024 0.0
C2594 C 0.23099 0.10494 0.41118 0.0
C2595 C 0.2521 0.12203 0.44146 0.0
N2596 N 0.29856 0.15077 0.45106 0.0
N2597 N 0.21573 0.08774 0.33166 0.0
C2598 C 0.27828 0.13139 0.42547 0.0
C2599 C 0.23597 0.09892 0.3638 0.0
N2600 N 0.30838 0.1286 0.36925 0.0
N2601 N 0.20587 0.09333 0.42845 0.0
H2602 H 0.21716 0.08153 0.29751 0.0
H2603 H 0.19758 0.08636 0.33773 0.0
H2604 H 0.20126 0.09712 0.46258 0.0
H2605 H 0.18991 0.07809 0.41079 0.0
H2606 H 0.32406 0.13682 0.3932 0.0
H2607 H 0.31373 0.12599 0.33496 0.0
H2608 H 0.31789 0.16092 0.43898 0.0
H2609 H 0.29572 0.15835 0.48292 0.0
C2610 C 0.86477 0.13481 0.41314 0.0
C2611 C 0.87865 0.14702 0.45584 0.0
C2612 C 0.90744 0.18719 0.40888 0.0
C2613 C 0.89523 0.17414 0.3647 0.0
N2614 N 0.86226 0.13389 0.32662 0.0
N2615 N 0.91432 0.18424 0.49448 0.0
C2616 C 0.87398 0.14751 0.36752 0.0
C2617 C 0.90017 0.17309 0.45362 0.0
N2618 N 0.84193 0.11124 0.41628 0.0
N2619 N 0.92615 0.21319 0.40877 0.0
H2620 H 0.90899 0.17516 0.52798 0.0
H2621 H 0.93224 0.20167 0.49512 0.0
H2622 H 0.93524 0.22383 0.37812 0.0
H2623 H 0.93248 0.22474 0.43954 0.0
H2624 H 0.82865 0.1029 0.38809 0.0
H2625 H 0.83504 0.10088 0.44834 0.0
H2626 H 0.85052 0.11354 0.32554 0.0
H2627 H 0.86446 0.14255 0.29325 0.0
C2628 C 0.2348 0.14324 0.866 0.0
C2629 C 0.26094 0.16247 0.85281 0.0
C2630 C 0.27582 0.15607 0.93277 0.0
C2631 C 0.25029 0.13486 0.94328 0.0
N2632 N 0.20641 0.10543 0.91529 0.0
N2633 N 0.30721 0.18335 0.87216 0.0
C2634 C 0.2301 0.12766 0.90848 0.0
C2635 C 0.28166 0.1679 0.88596 0.0
N2636 N 0.21408 0.14076 0.83963 0.0
N2637 N 0.29447 0.16551 0.96805 0.0
H2638 H 0.31266 0.19128 0.83792 0.0
H2639 H 0.32312 0.18593 0.89276 0.0
H2640 H 0.29101 0.15744 1.00242 0.0
H2641 H 0.31246 0.18276 0.96473 0.0
H2642 H 0.19459 0.12923 0.85033 0.0
H2643 H 0.21629 0.15238 0.80989 0.0
H2644 H 0.19193 0.09743 0.88892 0.0
H2645 H 0.20214 0.09361 0.94567 0.0
C2646 C 0.83075 0.09675 0.95289 0.0
C2647 C 0.85543 0.12022 0.95577 0.0
C2648 C 0.85405 0.12571 0.86784 0.0
C2649 C 0.82836 0.10294 0.86474 0.0
N2650 N 0.79121 0.06863 0.90814 0.0
N2651 N 0.88855 0.15943 0.91734 0.0
C2652 C 0.8164 0.08916 0.90845 0.0
C2653 C 0.86644 0.13529 0.9136 0.0
N2654 N 0.82117 0.08121 0.99275 0.0
N2655 N 0.8671 0.13845 0.82714 0.0
H2656 H 0.89881 0.16668 0.94942 0.0
H2657 H 0.89558 0.17318 0.88969 0.0
H2658 H 0.85843 0.13518 0.79355 0.0
H2659 H 0.88715 0.15194 0.82635 0.0
H2660 H 0.8054 0.06208 0.99225 0.0
H2661 H 0.83016 0.0867 1.02631 0.0
H2662 H 0.78036 0.05999 0.93895 0.0
H2663 H 0.78048 0.06019 0.87729 0.0
C2664 C 0.87788 0.72824 0.86241 0.0
C2665 C 0.90382 0.73203 0.85797 0.0
C2666 C 0.91248 0.74986 0.94134 0.0
C2667 C 0.88559 0.74255 0.94741 0.0
N2668 N 0.84172 0.72031 0.91513 0.0
N2669 N 0.94573 0.74625 0.89526 0.0
C2670 C 0.8681 0.73059 0.90824 0.0
C2671 C 0.92098 0.7426 0.89832 0.0
N2672 N 0.86247 0.7231 0.82272 0.0
N2673 N 0.93015 0.76466 0.9761 0.0
H2674 H 0.95241 0.74098 0.86512 0.0
H2675 H 0.95919 0.75305 0.92326 0.0
H2676 H 0.92474 0.77051 1.00737 0.0
H2677 H 0.9504 0.77323 0.97256 0.0
H2678 H 0.84525 0.7241 0.82283 0.0
H2679 H 0.86752 0.71957 0.78893 0.0
H2680 H 0.8277 0.7087 0.88969 0.0
H2681 H 0.83366 0.7212 0.94794 0.0
C2682 C 0.8199 0.58118 0.16399 0.0
C2683 C 0.83531 0.60707 0.18333 0.0
C2684 C 0.82208 0.62394 0.11253 0.0
C2685 C 0.80812 0.59838 0.09203 0.0
N2686 N 0.79729 0.55321 0.09524 0.0
N2687 N 0.85391 0.65372 0.17039 0.0
C2688 C 0.80793 0.57717 0.11719 0.0
C2689 C 0.83732 0.62857 0.15572 0.0
N2690 N 0.8168 0.56015 0.19007 0.0
N2691 N 0.81978 0.64382 0.09193 0.0
H2692 H 0.86335 0.65844 0.20347 0.0
H2693 H 0.85931 0.67004 0.14866 0.0
H2694 H 0.80902 0.64131 0.06064 0.0
H2695 H 0.82651 0.66209 0.10794 0.0
H2696 H 0.80302 0.54079 0.18191 0.0
H2697 H 0.82717 0.56198 0.22141 0.0
H2698 H 0.79913 0.5376 0.10825 0.0
H2699 H 0.78832 0.54945 0.06163 0.0
C2700 C 0.37854 0.20704 0.11008 0.0
C2701 C 0.40472 0.21687 0.0932 0.0
C2702 C 0.42092 0.24395 0.16739 0.0
C2703 C 0.39466 0.23526 0.18326 0.0
N2704 N 0.34824 0.20985 0.16623 0.0
N2705 N 0.45062 0.24817 0.10246 0.0
C2706 C 0.37346 0.21736 0.15328 0.0
C2707 C 0.42579 0.23622 0.12114 0.0
N2708 N 0.35842 0.1868 0.08583 0.0
N2709 N 0.44151 0.25967 0.19662 0.0
H2710 H 0.45503 0.24299 0.06939 0.0
H2711 H 0.4665 0.26466 0.11753 0.0
H2712 H 0.43933 0.26753 0.22851 0.0
H2713 H 0.4607 0.26378 0.19074 0.0
H2714 H 0.33923 0.17644 0.09851 0.0
H2715 H 0.36131 0.17896 0.05439 0.0
H2716 H 0.33218 0.20005 0.14343 0.0
H2717 H 0.34323 0.2143 0.19936 0.0
C2718 C 0.77035 0.19254 0.12812 0.0
C2719 C 0.77805 0.18149 0.09042 0.0
C2720 C 0.77107 0.14554 0.14608 0.0
C2721 C 0.76059 0.15511 0.18218 0.0
N2722 N 0.74391 0.18448 0.19942 0.0
N2723 N 0.78015 0.14398 0.0613 0.0
C2724 C 0.75851 0.17773 0.17088 0.0
C2725 C 0.77672 0.15694 0.09881 0.0
N2726 N 0.77506 0.21769 0.12405 0.0
N2727 N 0.77705 0.12647 0.15712 0.0
H2728 H 0.78407 0.15144 1.02646 0.0
H2729 H 0.77653 0.12476 0.06375 0.0
H2730 H 0.77505 0.11866 0.19135 0.0
H2731 H 0.78685 0.12049 0.13364 0.0
H2732 H 0.77249 0.22777 0.15241 0.0
H2733 H 0.78409 0.22941 0.09411 0.0
H2734 H 0.73957 0.19909 0.19028 0.0
H2735 H 0.73341 0.17346 0.22898 0.0
C2736 C 0.98022 0.40315 0.31714 0.0
C2737 C 0.00787 0.41611 0.30744 0.0
C2738 C 0.01496 0.42095 0.39647 0.0
C2739 C 0.98733 0.40649 0.40624 0.0
N2740 N 0.94441 0.378 0.37311 0.0
N2741 N 0.05063 0.43018 0.34107 0.0
C2742 C 0.97028 0.39592 0.36565 0.0
C2743 C 0.02486 0.42284 0.34816 0.0
N2744 N 0.96309 0.39875 0.28051 0.0
N2745 N 0.0321 0.43436 0.43271 0.0
H2746 H 0.05837 0.43068 0.30715 0.0
H2747 H 0.06345 0.43269 0.36905 0.0
H2748 H 0.02622 0.43435 0.4679 0.0
H2749 H 0.05192 0.44767 0.42684 0.0
H2750 H 0.94326 0.3924 0.28593 0.0
H2751 H 0.96892 0.40364 0.24505 0.0
H2752 H 0.93147 0.36745 0.34547 0.0
H2753 H 0.93658 0.37136 0.40719 0.0
C2754 C 0.59946 0.5742 0.3719 0.0
C2755 C 0.58903 0.58158 0.41155 0.0
C2756 C 0.57253 0.60162 0.35097 0.0
C2757 C 0.57974 0.59098 0.3114 0.0
N2758 N 0.59634 0.56249 0.28743 0.0
N2759 N 0.56157 0.59934 0.43579 0.0
C2760 C 0.5924 0.57621 0.32288 0.0
C2761 C 0.57466 0.59469 0.40013 0.0
N2762 N 0.61698 0.56584 0.38082 0.0
N2763 N 0.56432 0.61921 0.34185 0.0
H2764 H 0.56227 0.59466 0.47156 0.0
H2765 H 0.54812 0.60563 0.42927 0.0
H2766 H 0.56318 0.62528 0.3072 0.0
H2767 H 0.56142 0.62987 0.36865 0.0
H2768 H 0.6275 0.56285 0.35387 0.0
H2769 H 0.62329 0.5649 0.41537 0.0
H2770 H 0.60251 0.54897 0.29418 0.0
H2771 H 0.59092 0.56247 0.25185 0.0
C2772 C 0.3962 0.96727 0.34702 0.0
C2773 C 0.4066 0.98427 0.30629 0.0
C2774 C 0.4212 0.02173 0.36446 0.0
C2775 C 0.41453 0.00485 0.40536 0.0
N2776 N 0.40013 0.96058 0.43201 0.0
N2777 N 0.43387 0.02925 0.28039 0.0
C2778 C 0.40309 0.97735 0.39554 0.0
C2779 C 0.42027 0.01193 0.31624 0.0
N2780 N 0.37875 0.94128 0.3398 0.0
N2781 N 0.42772 0.04728 0.3712 0.0
H2782 H 0.43469 0.02352 0.24545 0.0
H2783 H 0.44664 0.04916 0.28654 0.0
H2784 H 0.42764 0.05493 0.40493 0.0
H2785 H 0.43019 0.05995 0.34299 0.0
H2786 H 0.36852 0.92838 0.3677 0.0
H2787 H 0.37209 0.93331 0.3058 0.0
H2788 H 0.39473 0.941 0.42626 0.0
H2789 H 0.40585 0.96673 0.46719 0.0
C2790 C -0.00068 0.55593 0.89052 0.0
C2791 C 0.98742 0.56979 0.91073 0.0
C2792 C -0.00066 0.59623 0.83513 0.0
C2793 C 0.00898 0.58069 0.81311 0.0
N2794 N 0.01117 0.54088 0.81873 0.0
N2795 N 0.97198 0.60006 0.89671 0.0
C2796 C 0.00714 0.5593 0.84075 0.0
C2797 C 0.98642 0.58914 0.88146 0.0
N2798 N 0.00374 0.53971 0.91922 0.0
N2799 N 0.00351 0.61869 0.8131 0.0
H2800 H 0.96285 0.59607 0.93021 0.0
H2801 H 0.96689 0.61078 0.87387 0.0
H2802 H 0.01275 0.6247 0.77992 0.0
H2803 H 7e-05 0.6325 0.83004 0.0
H2804 H 0.01488 0.53124 0.90874 0.0
H2805 H -0.00147 0.53684 0.95528 0.0
H2806 H 0.00848 0.52399 0.83582 0.0
H2807 H 0.01405 0.5407 0.78191 0.0
C2808 C 0.42999 0.44298 0.83194 0.0
C2809 C 0.40895 0.42377 0.80325 0.0
C2810 C 0.39733 0.39307 0.87299 0.0
C2811 C 0.41683 0.41314 0.90249 0.0
N2812 N 0.44594 0.45945 0.91206 0.0
N2813 N 0.36996 0.3812 0.80126 0.0
C2814 C 0.43146 0.43872 0.88237 0.0
C2815 C 0.39201 0.39892 0.82508 0.0
N2816 N 0.44953 0.46503 0.81068 0.0
N2817 N 0.38398 0.36813 0.89046 0.0
H2818 H 0.36515 0.38465 0.7671 0.0
H2819 H 0.35532 0.36416 0.81715 0.0
H2820 H 0.3864 0.36357 0.92557 0.0
H2821 H 0.37204 0.35195 0.86918 0.0
H2822 H 0.46601 0.47914 0.8289 0.0
H2823 H 0.45094 0.46773 0.77367 0.0
H2824 H 0.45571 0.4789 0.9007 0.0
H2825 H 0.44551 0.45729 0.94916 0.0
C2826 C 0.55903 -0.00018 0.88154 0.0
C2827 C 0.58204 0.00453 0.9075 0.0
C2828 C 0.59365 0.98666 0.83557 0.0
C2829 C 0.57288 0.98556 0.80747 0.0
N2830 N 0.53831 0.9961 0.80404 0.0
N2831 N 0.62387 0.00648 0.90228 0.0
C2832 C 0.55633 0.99357 0.83081 0.0
C2833 C 0.59995 -0.00108 0.88256 0.0
N2834 N 0.53889 2e-05 0.90572 0.0
N2835 N 0.60667 0.97457 0.81886 0.0
H2836 H 0.62952 0.0157 0.93559 0.0
H2837 H 0.6388 0.00594 0.88301 0.0
H2838 H 0.60278 0.96544 0.78536 0.0
H2839 H 0.6191 0.97133 0.84075 0.0
H2840 H 0.52075 0.99458 0.89029 0.0
H2841 H 0.5391 0.00263 0.94272 0.0
H2842 H 0.52661 0.00333 0.81745 0.0
H2843 H 0.53711 0.99345 0.76704 0.0
C2844 C 0.63916 0.73018 0.69417 0.0
C2845 C 0.65629 0.74024 0.73486 0.0
C2846 C 0.69361 0.75713 0.67588 0.0
C2847 C 0.67651 0.75094 0.63537 0.0
N2848 N 0.63169 0.73455 0.6097 0.0
N2849 N 0.70122 0.76785 0.76077 0.0
C2850 C 0.64893 0.73814 0.64567 0.0
C2851 C 0.68389 0.7548 0.72458 0.0
N2852 N 0.61339 0.71189 0.70135 0.0
N2853 N 0.7193 0.76436 0.66822 0.0
H2854 H 0.6955 0.76767 0.79613 0.0
H2855 H 0.72105 0.78106 0.75479 0.0
H2856 H 0.72691 0.76515 0.63406 0.0
H2857 H 0.73216 0.76644 0.69585 0.0
H2858 H 0.60046 0.7018 0.67339 0.0
H2859 H 0.60571 0.70443 0.73517 0.0
H2860 H 0.61194 0.7283 0.61584 0.0
H2861 H 0.63745 0.74017 0.57441 0.0
C2862 C 0.24198 0.92227 0.72949 0.0
C2863 C 0.25645 0.90935 0.74166 0.0
C2864 C 0.26028 0.90407 0.65297 0.0
C2865 C 0.24849 0.91958 0.64072 0.0
N2866 N 0.23281 0.94769 0.67155 0.0
N2867 N 0.28463 0.89372 0.71118 0.0
C2868 C 0.24077 0.92987 0.68033 0.0
C2869 C 0.26713 0.90207 0.70218 0.0
N2870 N 0.22788 0.92611 0.76427 0.0
N2871 N 0.26334 0.88938 0.6183 0.0
H2872 H 0.29066 0.89236 0.74568 0.0
H2873 H 0.29532 0.89098 0.68419 0.0
H2874 H 0.25706 0.88838 0.58306 0.0
H2875 H 0.2691 0.87562 0.62589 0.0
H2876 H 0.21455 0.93246 0.75698 0.0
H2877 H 0.22732 0.92045 0.79978 0.0
H2878 H 0.22957 0.95797 0.69862 0.0
H2879 H 0.23252 0.95465 0.63734 0.0
C2880 C 0.07187 0.31627 0.72702 0.0
C2881 C 0.0844 0.34354 0.7395 0.0
C2882 C 0.08884 0.35301 0.65101 0.0
C2883 C 0.07454 0.3257 0.6387 0.0
N2884 N 0.04559 0.28216 0.66913 0.0
N2885 N 0.09705 0.38683 0.71005 0.0
C2886 C 0.06401 0.30769 0.67805 0.0
C2887 C 0.09054 0.36152 0.70041 0.0
N2888 N 0.06863 0.29821 0.76106 0.0
N2889 N 0.10222 0.37117 0.6162 0.0
H2890 H 0.09703 0.39348 0.74473 0.0
H2891 H 0.0992 0.40018 0.68336 0.0
H2892 H 0.10242 0.36628 0.5804 0.0
H2893 H 0.11527 0.39085 0.62382 0.0
H2894 H 0.06248 0.27867 0.75284 0.0
H2895 H 0.07469 0.30307 0.79645 0.0
H2896 H 0.03523 0.26876 0.69629 0.0
H2897 H 0.03842 0.27523 0.63481 0.0
C2898 C 0.64521 0.90308 0.14405 0.0
C2899 C 0.67291 0.91674 0.13442 0.0
C2900 C 0.67951 0.91805 0.22389 0.0
C2901 C 0.65192 0.90622 0.23357 0.0
N2902 N 0.60964 0.89408 0.19975 0.0
N2903 N 0.71601 0.94275 0.16905 0.0
C2904 C 0.63522 0.9007 0.19262 0.0
C2905 C 0.68981 0.92575 0.17559 0.0
N2906 N 0.628 0.89083 0.10732 0.0
N2907 N 0.69624 0.92095 0.26038 0.0
H2908 H 0.72424 0.95007 0.1355 0.0
H2909 H 0.72898 0.95232 0.19721 0.0
H2910 H 0.69018 0.91569 0.29563 0.0
H2911 H 0.71583 0.92633 0.25495 0.0
H2912 H 0.60801 0.87807 0.11268 0.0
H2913 H 0.63388 0.89114 0.07203 0.0
H2914 H 0.59712 0.89257 0.17191 0.0
H2915 H 0.60183 0.89312 0.23378 0.0
C2916 C 0.08454 0.72748 0.19869 0.0
C2917 C 0.08177 0.74198 0.23753 0.0
C2918 C 0.06638 0.76218 0.1753 0.0
C2919 C 0.07369 0.7514 0.13602 0.0
N2920 N 0.09541 0.72707 0.11456 0.0
N2921 N 0.07585 0.77889 0.25679 0.0
C2922 C 0.08424 0.73487 0.14899 0.0
C2923 C 0.07418 0.76083 0.22409 0.0
N2924 N 0.08638 0.70573 0.2087 0.0
N2925 N 0.05099 0.77308 0.16669 0.0
H2926 H 0.08353 0.78061 0.2911 0.0
H2927 H 0.07274 0.79433 0.24771 0.0
H2928 H 0.04334 0.77295 0.13286 0.0
H2929 H 0.04313 0.77912 0.19413 0.0
H2930 H 0.08603 0.69307 0.18212 0.0
H2931 H 0.08482 0.6985 0.24342 0.0
H2932 H 0.10584 0.71749 0.12267 0.0
H2933 H 0.09679 0.73257 0.07874 0.0
C2934 C 0.25679 0.3495 0.14816 0.0
C2935 C 0.24301 0.32181 0.13862 0.0
C2936 C 0.238 0.31529 0.22811 0.0
C2937 C 0.25326 0.34293 0.23786 0.0
N2938 N 0.28288 0.38527 0.2038 0.0
N2939 N 0.22725 0.27899 0.17311 0.0
C2940 C 0.26423 0.35962 0.19677 0.0
C2941 C 0.23566 0.30503 0.17978 0.0
N2942 N 0.26187 0.36656 0.11112 0.0
N2943 N 0.2243 0.29848 0.26453 0.0
H2944 H 0.22623 0.27091 0.13931 0.0
H2945 H 0.22435 0.26614 0.20122 0.0
H2946 H 0.22441 0.30461 0.29953 0.0
H2947 H 0.21071 0.27871 0.25906 0.0
H2948 H 0.26895 0.38655 0.11611 0.0
H2949 H 0.2568 0.3605 0.07574 0.0
H2950 H 0.29384 0.39779 0.17597 0.0
H2951 H 0.28957 0.39321 0.23779 0.0
C2952 C 0.32718 0.06657 0.0497 0.0
C2953 C 0.31982 0.0837 0.07256 0.0
C2954 C 0.33461 0.11163 0.99841 0.0
C2955 C 0.3424 0.09463 0.97599 0.0
N2956 N 0.34999 0.05834 0.98472 0.0
N2957 N 0.31598 0.12258 0.06683 0.0
C2958 C 0.33952 0.07269 1.00287 0.0
C2959 C 0.32347 0.10622 0.04619 0.0
N2960 N 0.32095 0.04338 0.07146 0.0
N2961 N 0.33867 0.13367 0.97446 0.0
H2962 H 0.31191 0.12223 0.10321 0.0
H2963 H 0.31306 0.1362 0.04811 0.0
H2964 H 0.34542 0.13787 0.93936 0.0
H2965 H 0.33633 0.14862 0.98918 0.0
H2966 H 0.32205 0.02828 0.05415 0.0
H2967 H 0.3125 0.03831 0.10546 0.0
H2968 H 0.35221 0.04464 1.0047 0.0
H2969 H 0.35865 0.06184 0.9509 0.0
C2970 C 0.92517 0.24365 0.98357 0.0
C2971 C 0.9103 0.25634 0.97323 0.0
C2972 C 0.90271 0.25646 0.06137 0.0
C2973 C 0.91919 0.24557 0.07212 0.0
N2974 N 0.95176 0.23591 1.04119 0.0
N2975 N 0.89169 0.28142 1.00578 0.0
C2976 C 0.93204 0.24127 1.03246 0.0
C2977 C 0.90117 0.26469 1.01326 0.0
N2978 N 0.93175 0.23248 0.94715 0.0
N2979 N 0.88707 0.25771 0.09626 0.0
H2980 H 0.89123 0.28876 0.97194 0.0
H2981 H 0.88726 0.29039 1.03366 0.0
H2982 H 0.88664 0.25149 0.13126 0.0
H2983 H 0.87246 0.2624 0.08915 0.0
H2984 H 0.93974 0.22038 0.95302 0.0
H2985 H 0.92701 0.23319 0.91144 0.0
H2986 H 0.96372 0.23527 1.01423 0.0
H2987 H 0.95817 0.23517 0.07575 0.0
C2988 C 0.73589 0.64198 1.00987 0.0
C2989 C 0.74439 0.65907 0.96905 0.0
C2990 C 0.76147 0.69655 1.02743 0.0
C2991 C 0.7564 0.67965 0.06783 0.0
N2992 N 0.74201 0.63535 0.09399 0.0
N2993 N 0.77022 0.70391 0.94188 0.0
C2994 C 0.74433 0.65211 0.05797 0.0
C2995 C 0.75836 0.6867 0.97876 0.0
N2996 N 0.71873 0.61584 1.00317 0.0
N2997 N 0.76843 0.72215 1.03529 0.0
H2998 H 0.76933 0.69801 0.90641 0.0
H2999 H 0.78319 0.72386 0.94717 0.0
H3000 H 0.77002 0.72989 0.06961 0.0
H3001 H 0.76968 0.7348 1.00793 0.0
H3002 H 0.70964 0.60275 1.03136 0.0
H3003 H 0.71108 0.6078 0.96963 0.0
H3004 H 0.7366 0.61578 0.08807 0.0
H3005 H 0.74791 0.64147 0.12907 0.0
C3006 C 0.31225 0.23678 0.47972 0.0
C3007 C 0.34002 0.25241 0.4722 0.0
C3008 C 0.345 0.25455 0.56179 0.0
C3009 C 0.31712 0.24074 0.56928 0.0
N3010 N 0.27474 0.22449 0.53223 0.0
N3011 N 0.38193 0.28098 0.50875 0.0
C3012 C 0.301 0.23344 0.52723 0.0
C3013 C 0.35602 0.2626 0.51412 0.0
N3014 N 0.2963 0.22387 0.4418 0.0
N3015 N 0.36138 0.25888 0.59975 0.0
H3016 H 0.39059 0.28792 0.4753 0.0
H3017 H 0.39408 0.29139 0.5374 0.0
H3018 H 0.3548 0.25341 0.63473 0.0
H3019 H 0.38139 0.26563 0.59584 0.0
H3020 H 0.27663 0.20951 0.44568 0.0
H3021 H 0.30316 0.22568 0.40688 0.0
H3022 H 0.26232 0.22155 0.50332 0.0
H3023 H 0.26589 0.22296 0.56542 0.0
C3024 C 0.74037 0.09324 0.56618 0.0
C3025 C 0.75304 0.07817 0.57554 0.0
C3026 C 0.75597 0.07459 0.48624 0.0
C3027 C 0.74156 0.08792 0.47708 0.0
N3028 N 0.71441 0.10364 0.51161 0.0
N3029 N 0.76656 0.04908 0.54149 0.0
C3030 C 0.73217 0.09535 0.51812 0.0
C3031 C 0.75896 0.06734 0.53458 0.0
N3032 N 0.73735 0.10704 0.60257 0.0
N3033 N 0.76821 0.06986 0.44912 0.0
H3034 H 0.76786 0.04233 0.5754 0.0
H3035 H 0.76842 0.03831 0.51359 0.0
H3036 H 0.76697 0.07472 0.41375 0.0
H3037 H 0.78164 0.06338 0.45405 0.0
H3038 H 0.73139 0.12083 0.59697 0.0
H3039 H 0.74323 0.10683 0.63761 0.0
H3040 H 0.70455 0.10658 0.53988 0.0
H3041 H 0.70725 0.10462 0.47789 0.0
C3042 C 0.93236 0.69408 0.52825 0.0
C3043 C 0.92312 0.67781 0.56989 0.0
C3044 C 0.90482 0.63909 0.51415 0.0
C3045 C 0.91083 0.65538 0.47257 0.0
N3046 N 0.92747 0.69964 0.44322 0.0
N3047 N 0.89704 0.63376 0.60037 0.0
C3048 C 0.92402 0.68321 0.48061 0.0
C3049 C 0.90857 0.65002 0.56212 0.0
N3050 N 0.9501 0.72016 0.53388 0.0
N3051 N 0.89637 0.61301 0.50807 0.0
H3052 H 0.8991 0.64052 0.6355 0.0
H3053 H 0.88356 0.61381 0.59683 0.0
H3054 H 0.89402 0.60444 0.47433 0.0
H3055 H 0.89445 0.60053 0.53625 0.0
H3056 H 0.95998 0.73264 0.50528 0.0
H3057 H 0.95715 0.7287 0.56738 0.0
H3058 H 0.93362 0.71948 0.44773 0.0
H3059 H 0.92195 0.69321 0.40819 0.0
C3060 C 0.98305 0.46706 0.09668 0.0
C3061 C 0.99413 0.47474 0.14337 0.0
C3062 C 0.00814 0.52049 0.1247 0.0
C3063 C 0.99732 0.51285 0.07773 0.0
N3064 N 0.97977 0.48043 1.01568 0.0
N3065 N 0.01143 0.50689 0.20571 0.0
C3066 C 0.98649 0.48655 0.06277 0.0
C3067 C 0.00477 0.50096 0.15853 0.0
N3068 N 0.96742 0.44106 0.08612 0.0
N3069 N 0.02342 0.54647 0.13567 0.0
H3070 H 0.00871 0.49249 0.23069 0.0
H3071 H 0.01701 0.52509 0.22096 0.0
H3072 H 0.02969 0.56113 0.10986 0.0
H3073 H 0.03307 0.55342 0.16826 0.0
H3074 H 0.95736 0.43413 0.05387 0.0
H3075 H 0.96129 0.42645 0.11204 0.0
H3076 H 0.97434 0.46219 1.00071 0.0
H3077 H 0.98227 0.49462 0.99047 0.0
C3078 C 0.52205 0.50458 0.08688 0.0
C3079 C 0.52167 0.51701 0.13032 0.0
C3080 C 0.4741 0.49431 0.12783 0.0
C3081 C 0.47429 0.482 0.08396 0.0
N3082 N 0.49898 0.48466 1.01345 0.0
N3083 N 0.49752 0.51368 0.20154 0.0
C3084 C 0.49844 0.48967 0.06098 0.0
C3085 C 0.49773 0.50893 0.15377 0.0
N3086 N 0.54478 0.50584 0.07187 0.0
N3087 N 0.45172 0.49377 0.14285 0.0
H3088 H 0.51468 0.52263 0.222 0.0
H3089 H 0.48027 0.50524 0.22149 0.0
H3090 H 0.43492 0.48626 0.12146 0.0
H3091 H 0.45109 0.50383 0.17315 0.0
H3092 H 0.54578 0.49565 1.04208 0.0
H3093 H 0.56173 0.51432 0.09296 0.0
H3094 H 0.51632 0.49195 0.99379 0.0
H3095 H 0.48203 0.47625 0.9927 0.0
C3096 C 0.50929 0.97451 0.12113 0.0
C3097 C 0.51329 0.98892 0.07779 0.0
C3098 C 0.48905 0.00883 0.11098 0.0
C3099 C 0.48249 0.9927 0.15211 0.0
N3100 N 0.48645 0.96037 0.19782 0.0
N3101 N 0.49862 0.01143 1.02635 0.0
C3102 C 0.49311 0.9759 0.15792 0.0
C3103 C 0.50029 0.00327 0.07118 0.0
N3104 N 0.52009 0.9588 0.12632 0.0
N3105 N 0.48501 0.02976 0.11013 0.0
H3106 H 0.50606 0.00637 0.99669 0.0
H3107 H 0.48724 0.02007 1.01865 0.0
H3108 H 0.47929 0.03593 0.14059 0.0
H3109 H 0.4908 0.04284 0.08139 0.0
H3110 H 0.52131 0.95078 0.15884 0.0
H3111 H 0.52709 0.95297 0.09725 0.0
H3112 H 0.49099 0.94556 0.20299 0.0
H3113 H 0.4758 0.96235 0.22596 0.0
C3114 C 0.5153 0.00542 0.57682 0.0
C3115 C 0.51426 0.99188 0.62019 0.0
C3116 C 0.4666 0.97196 0.62048 0.0
C3117 C 0.46808 0.98693 0.5797 0.0
N3118 N 0.49145 0.00688 0.50712 0.0
N3119 N 0.4892 0.97037 0.69097 0.0
C3120 C 0.49168 0.00015 0.55386 0.0
C3121 C 0.48995 0.97704 0.64405 0.0
N3122 N 0.53858 0.02587 0.56112 0.0
N3123 N 0.44278 0.95224 0.63568 0.0
H3124 H 0.50617 0.97708 0.7112 0.0
H3125 H 0.47199 0.96177 0.71122 0.0
H3126 H 0.42556 0.94689 0.61648 0.0
H3127 H 0.44073 0.93929 0.6631 0.0
H3128 H 0.53999 0.03748 0.53179 0.0
H3129 H 0.55569 0.03385 0.58167 0.0
H3130 H 0.5081 0.0148 0.48539 0.0
H3131 H 0.47397 0.00123 0.48866 0.0
C3132 C 0.9749 0.48547 0.5835 0.0
C3133 C 0.9947 0.48044 0.56637 0.0
C3134 C 0.02346 0.50689 0.63148 0.0
C3135 C 0.00357 0.51174 0.64905 0.0
N3136 N 0.95736 0.49702 0.65194 0.0
N3137 N 0.04087 0.49532 0.56281 0.0
C3138 C 0.97834 0.49863 0.62788 0.0
C3139 C 0.01996 0.49371 0.58716 0.0
N3140 N 0.95297 0.47787 0.55635 0.0
N3141 N 0.04556 0.51461 0.65816 0.0
H3142 H 0.03905 0.48843 0.5277 0.0
H3143 H 0.06023 0.50658 0.57443 0.0
H3144 H 0.04759 0.5231 0.69182 0.0
H3145 H 0.06002 0.50995 0.64954 0.0
H3146 H 0.93851 0.48256 0.56471 0.0
H3147 H 0.95114 0.4695 0.52254 0.0
H3148 H 0.93807 0.48597 0.63983 0.0
H3149 H 0.95894 0.50357 0.68724 0.0
C3150 C 0.50986 0.5303 0.62386 0.0
C3151 C 0.51436 0.52213 0.5783 0.0
C3152 C 0.48832 0.47645 0.60385 0.0
C3153 C 0.48245 0.4845 0.64791 0.0
N3154 N 0.49133 0.51918 0.70321 0.0
N3155 N 0.5043 0.48699 0.52287 0.0
C3156 C 0.49481 0.51144 0.659 0.0
C3157 C 0.50199 0.49506 0.56762 0.0
N3158 N 0.51818 0.55589 0.63414 0.0
N3159 N 0.48182 0.45111 0.59584 0.0
H3160 H 0.51373 0.50029 0.49495 0.0
H3161 H 0.49566 0.46718 0.51356 0.0
H3162 H 0.4743 0.43664 0.62228 0.0
H3163 H 0.4743 0.43664 0.62228 0.0
H3164 H 0.52654 0.57109 0.60921 0.0
H3165 H 0.52654 0.57109 0.60921 0.0
H3166 H 0.50014 0.5389 0.7132 0.0
H3167 H 0.48073 0.50566 0.73014 0.0
C3168 C 0.65198 0.81871 0.38778 0.0
C3169 C 0.66393 0.84562 0.39914 0.0
C3170 C 0.67398 0.83671 0.48023 0.0
C3171 C 0.66231 0.80986 0.46881 0.0
N3172 N 0.63312 0.7742 0.41719 0.0
N3173 N 0.69377 0.88111 0.45031 0.0
C3174 C 0.64949 0.80048 0.42383 0.0
C3175 C 0.67684 0.85493 0.444 0.0
N3176 N 0.64325 0.81087 0.34203 0.0
N3177 N 0.68226 0.84458 0.52617 0.0
H3178 H 0.6996 0.89439 0.422 0.0
H3179 H 0.70508 0.8891 0.48102 0.0
H3180 H 0.67966 0.8311 0.55302 0.0
H3181 H 0.68894 0.86358 0.53863 0.0
H3182 H 0.63623 0.79186 0.32937 0.0
H3183 H 0.64566 0.82436 0.31534 0.0
H3184 H 0.62196 0.76605 0.3864 0.0
H3185 H 0.6277 0.76076 0.44515 0.0
C3186 C 0.19118 0.83942 0.41068 0.0
C3187 C 0.19232 0.85178 0.45549 0.0
C3188 C 0.14471 0.82827 0.45911 0.0
C3189 C 0.1435 0.81506 0.41571 0.0
N3190 N 0.1647 0.81657 0.34132 0.0
N3191 N 0.1703 0.84809 0.53022 0.0
C3192 C 0.16648 0.82323 0.38858 0.0
C3193 C 0.16912 0.84354 0.48206 0.0
N3194 N 0.21318 0.84022 0.39258 0.0
N3195 N 0.12261 0.82723 0.47721 0.0
H3196 H 0.18797 0.85665 0.54913 0.0
H3197 H 0.15362 0.84006 0.55193 0.0
H3198 H 0.10498 0.81877 0.45807 0.0
H3199 H 0.12279 0.83769 0.50757 0.0
H3200 H 0.21298 0.82979 0.36219 0.0
H3201 H 0.23069 0.84799 0.4119 0.0
H3202 H 0.18098 0.82348 0.31884 0.0
H3203 H 0.1467 0.8069 0.32351 0.0
C3204 C 0.16758 0.34368 0.39429 0.0
C3205 C 0.18186 0.3313 0.40789 0.0
C3206 C 0.16172 0.32311 0.48833 0.0
C3207 C 0.14798 0.33611 0.47494 0.0
N3208 N 0.14359 0.36457 0.41654 0.0
N3209 N 0.18831 0.30472 0.46754 0.0
C3210 C 0.15232 0.34782 0.42854 0.0
C3211 C 0.17802 0.32003 0.45467 0.0
N3212 N 0.16947 0.35264 0.34846 0.0
N3213 N 0.15854 0.31275 0.53334 0.0
H3214 H 0.19779 0.29847 0.44385 0.0
H3215 H 0.19779 0.29847 0.44385 0.0
H3216 H 0.14721 0.31525 0.55946 0.0
H3217 H 0.16797 0.30262 0.54471 0.0
H3218 H 0.15962 0.36231 0.33684 0.0
H3219 H 0.17972 0.34889 0.32192 0.0
H3220 H 0.13536 0.37189 0.44085 0.0
H3221 H 0.13536 0.37189 0.44085 0.0
C3222 C 0.15635 0.31865 0.97657 0.0
C3223 C 0.18383 0.33433 0.97115 0.0
C3224 C 0.17688 0.34885 0.89233 0.0
C3225 C 0.14951 0.33158 0.89695 0.0
N3226 N 0.11505 0.29302 0.93538 0.0
N3227 N 0.22077 0.36603 0.9244 0.0
C3228 C 0.13976 0.3143 0.93666 0.0
C3229 C 0.19429 0.34997 0.9291 0.0
N3230 N 0.1463 0.30725 1.01991 0.0
N3231 N 0.18589 0.36486 0.8531 0.0
H3232 H 0.23355 0.37184 0.9535 0.0
H3233 H 0.23005 0.37444 0.89212 0.0
H3234 H 0.17355 0.36247 0.8243 0.0
H3235 H 0.20501 0.38033 0.84903 0.0
H3236 H 0.12624 0.29706 1.02736 0.0
H3237 H 0.15843 0.31055 0.04959 0.0
H3238 H 0.10755 0.27888 0.96237 0.0
H3239 H 0.10363 0.28749 0.90434 0.0
C3240 C 0.67548 0.83156 0.98178 0.0
C3241 C 0.66288 0.84582 0.9696 0.0
C3242 C 0.65301 0.8255 0.88933 0.0
C3243 C 0.6659 0.81147 0.90133 0.0
N3244 N 0.69478 0.80636 0.95771 0.0
N3245 N 0.63405 0.85108 0.91336 0.0
C3246 C 0.67833 0.81565 0.94707 0.0
C3247 C 0.65034 0.84158 0.92399 0.0
N3248 N 0.68593 0.83409 1.02655 0.0
N3249 N 0.64225 0.82272 0.84478 0.0
H3250 H 0.62781 0.86005 0.93822 0.0
H3251 H 0.62781 0.86005 0.93822 0.0
H3252 H 0.64461 0.81168 0.81789 0.0
H3253 H 0.63216 0.83237 0.83444 0.0
H3254 H 0.69581 0.82426 1.03708 0.0
H3255 H 0.68342 0.84503 0.05344 0.0
H3256 H 0.70136 0.79777 0.9327 0.0
H3257 H 0.70136 0.79777 0.9327 0.0
C3258 C 0.15316 0.80205 0.92623 0.0
C3259 C 0.14982 0.80926 0.97325 0.0
C3260 C 0.17787 0.85549 0.95323 0.0
C3261 C 0.18107 0.84832 0.906 0.0
N3262 N 0.16707 0.81604 0.8441 0.0
N3263 N 0.16384 0.84146 1.03529 0.0
C3264 C 0.16709 0.82187 0.89151 0.0
C3265 C 0.16398 0.83566 0.98791 0.0
N3266 N 0.14442 0.7763 0.916 0.0
N3267 N 0.18631 0.88117 0.96357 0.0
H3268 H 0.1536 0.82675 0.0607 0.0
H3269 H 0.17571 0.86006 0.04981 0.0
H3270 H 0.19308 0.89552 0.93699 0.0
H3271 H 0.18321 0.88765 0.99639 0.0
H3272 H 0.1475 0.7697 0.8833 0.0
H3273 H 0.1372 0.76194 0.94261 0.0
H3274 H 0.15571 0.79732 0.82971 0.0
H3275 H 0.17654 0.83084 0.81856 0.0
C3276 C 0.3491 0.19164 0.7543 0.0
C3277 C 0.32549 0.17595 0.72829 0.0
C3278 C 0.31084 0.14193 0.79009 0.0
C3279 C 0.33491 0.15674 0.81468 0.0
N3280 N 0.37355 0.19809 0.82867 0.0
N3281 N 0.28769 0.1336 0.71451 0.0
C3282 C 0.35289 0.18258 0.79938 0.0
C3283 C 0.30784 0.15006 0.74385 0.0
N3284 N 0.36815 0.21462 0.73488 0.0
N3285 N 0.29018 0.12141 0.81258 0.0
H3286 H 0.28536 0.13941 0.68029 0.0
H3287 H 0.27523 0.1138 0.7222 0.0
H3288 H 0.29089 0.11743 0.84886 0.0
H3289 H 0.27146 0.11104 0.79763 0.0
H3290 H 0.385 0.22826 0.75278 0.0
H3291 H 0.36824 0.21883 0.69853 0.0
H3292 H 0.38728 0.21761 0.82185 0.0
H3293 H 0.37556 0.19152 0.86237 0.0
C3294 C 0.86101 0.17968 0.76022 0.0
C3295 C 0.85336 0.18405 0.80632 0.0
C3296 C 0.80726 0.15626 0.78371 0.0
C3297 C 0.81487 0.15133 0.73805 0.0
N3298 N 0.84911 0.16109 0.68096 0.0
N3299 N 0.81908 0.17365 0.86379 0.0
C3300 C 0.84176 0.16427 0.72578 0.0
C3301 C 0.82648 0.171 0.81861 0.0
N3302 N 0.88662 0.18905 0.74839 0.0
N3303 N 0.78174 0.14779 0.79493 0.0
H3304 H 0.83281 0.18389 0.89074 0.0
H3305 H 0.79944 0.16472 0.87445 0.0
H3306 H 0.76628 0.13913 0.77051 0.0
H3307 H 0.76628 0.13913 0.77051 0.0
H3308 H 0.90218 0.19828 0.77247 0.0
H3309 H 0.90218 0.19828 0.77247 0.0
H3310 H 0.86873 0.16959 0.67038 0.0
H3311 H 0.83529 0.15094 0.65415 0.0
C3312 C 0.83598 0.67627 0.7193 0.0
C3313 C 0.85382 0.67028 0.74138 0.0
C3314 C 0.8299 0.66196 0.8181 0.0
C3315 C 0.81228 0.6685 0.79628 0.0
N3316 N 0.79945 0.68243 0.72336 0.0
N3317 N 0.86785 0.65775 0.81438 0.0
C3318 C 0.81561 0.67587 0.7466 0.0
C3319 C 0.85077 0.6631 0.79104 0.0
N3320 N 0.83837 0.68249 0.67154 0.0
N3321 N 0.82703 0.65483 0.86539 0.0
H3322 H 0.88401 0.65815 0.79831 0.0
H3323 H 0.88401 0.65815 0.79831 0.0
H3324 H 0.81249 0.6546 0.88728 0.0
H3325 H 0.83952 0.64964 0.8828 0.0
H3326 H 0.82569 0.68729 0.65373 0.0
H3327 H 0.85254 0.68207 0.64952 0.0
H3328 H 0.78405 0.68329 0.73963 0.0
H3329 H 0.78405 0.68329 0.73963 0.0
C3330 C 0.81706 0.64383 0.30413 0.0
C3331 C 0.84251 0.66331 0.31896 0.0
C3332 C 0.84543 0.69007 0.24997 0.0
C3333 C 0.82009 0.67046 0.23464 0.0
N3334 N 0.78692 0.62486 0.23744 0.0
N3335 N 0.87576 0.70879 0.31648 0.0
C3336 C 0.8072 0.64616 0.25905 0.0
C3337 C 0.85528 0.68765 0.29491 0.0
N3338 N 0.80256 0.62309 0.33373 0.0
N3339 N 0.86016 0.71074 0.22043 0.0
H3340 H 0.88124 0.70794 0.35177 0.0
H3341 H 0.88469 0.72768 0.30221 0.0
H3342 H 0.85334 0.71173 0.18642 0.0
H3343 H 0.87965 0.72478 0.22728 0.0
H3344 H 0.78308 0.60899 0.327 0.0
H3345 H 0.80952 0.62198 0.36761 0.0
H3346 H 0.77793 0.60606 0.25211 0.0
H3347 H 0.78173 0.62542 0.20182 0.0
C3348 C 0.30582 0.17221 0.28247 0.0
C3349 C 0.3305 0.1844 0.30585 0.0
C3350 C 0.34721 0.16514 0.24764 0.0
C3351 C 0.32245 0.15232 0.22482 0.0
N3352 N 0.28113 0.1501 0.21075 0.0
N3353 N 0.37047 0.18409 0.32162 0.0
C3354 C 0.30271 0.1581 0.2392 0.0
C3355 C 0.3498 0.17801 0.29184 0.0
N3356 N 0.28494 0.17229 0.30375 0.0
N3357 N 0.36855 0.16645 0.22558 0.0
H3358 H 0.3716 0.19221 0.35548 0.0
H3359 H 0.38435 0.17835 0.31506 0.0
H3360 H 0.36758 0.1598 0.19048 0.0
H3361 H 0.38756 0.1773 0.2392 0.0
H3362 H 0.28617 0.1796 0.33837 0.0
H3363 H 0.26586 0.16205 0.29035 0.0
H3364 H 0.26674 0.15519 0.21688 0.0
H3365 H 0.27929 0.14051 0.1782 0.0
C3366 C 0.83312 0.15501 0.22845 0.0
C3367 C 0.845 0.18227 0.23723 0.0
C3368 C 0.82503 0.17281 0.31771 0.0
C3369 C 0.81267 0.1456 0.30854 0.0
N3370 N 0.8093 0.11094 0.25602 0.0
N3371 N 0.84696 0.21664 0.28924 0.0
C3372 C 0.81779 0.13674 0.2644 0.0
C3373 C 0.83947 0.19103 0.28117 0.0
N3374 N 0.83718 0.14635 0.1856 0.0
N3375 N 0.82199 0.18145 0.36145 0.0
H3376 H 0.85521 0.23137 0.26339 0.0
H3377 H 0.85521 0.23137 0.26339 0.0
H3378 H 0.81207 0.16851 0.3896 0.0
H3379 H 0.83039 0.20135 0.36988 0.0
H3380 H 0.8295 0.12647 0.17775 0.0
H3381 H 0.84719 0.15922 0.15749 0.0
H3382 H 0.80034 0.09621 0.28173 0.0
H3383 H 0.80034 0.09621 0.28173 0.0
loop_
_geom_bond_atom_site_label_1
_geom_bond_atom_site_label_2
_geom_bond_distance
_geom_bond_site_symmetry_2
_ccdc_geom_bond_type
Sm0 C2 2.846 . S
Sm0 O20 2.543 . S
Sm0 O21 2.450 . S
Sm0 O22 2.681 . S
Sm0 O23 2.464 . S
Sm0 O24 2.396 . S
Sm0 O28 2.386 . S
Sm0 O31 2.408 . S
Sm1 C11 2.846 1_554 S
Sm1 O22 2.386 . S
Sm1 O25 2.408 . S
Sm1 O26 2.533 1_554 S
Sm1 O27 2.450 . S
Sm1 O28 2.681 . S
Sm1 O29 2.464 . S
Sm1 O30 2.396 . S
C2 Sm0 2.846 . S
C2 C3 1.506 . S
C2 O20 1.261 . S
C2 O21 1.242 . S
C3 C2 1.506 . S
C3 C4 1.358 . S
C3 C8 1.382 . S
C4 C3 1.358 . S
C4 C5 1.385 . S
C4 H32 0.930 . S
C5 C4 1.385 . S
C5 C6 1.395 . S
C5 H33 0.929 . S
C6 C5 1.395 . S
C6 C7 1.335 . S
C7 C6 1.335 . S
C7 C8 1.398 . S
C7 H34 0.930 . S
C8 C3 1.382 . S
C8 C7 1.398 . S
C8 H35 0.929 . S
C9 O22 1.271 . S
C9 O23 1.251 . S
C10 O24 1.252 . S
C10 O25 1.272 . S
C11 Sm1 2.846 1_556 S
C11 C12 1.506 . S
C11 O26 1.265 . S
C11 O27 1.242 1_556 S
C12 C11 1.506 . S
C12 C13 1.358 . S
C12 C17 1.392 . S
C13 C12 1.358 . S
C13 C14 1.385 . S
C13 H36 0.930 . S
C14 C13 1.385 . S
C14 C15 1.395 . S
C14 H37 0.929 . S
C15 C14 1.395 . S
C15 C16 1.335 1_455 S
C16 C15 1.335 1_655 S
C16 C17 1.397 1_655 S
C16 H38 0.930 . S
C17 C12 1.392 . S
C17 C16 1.397 1_455 S
C17 H39 0.920 1_455 S
C18 O28 1.271 . S
C18 O29 1.251 . S
C19 O30 1.252 . S
C19 O31 1.272 . S
O20 Sm0 2.543 . S
O20 C2 1.261 . S
O21 Sm0 2.450 . S
O21 C2 1.242 . S
O22 Sm0 2.681 . S
O22 Sm1 2.386 . S
O22 C9 1.271 . S
O23 Sm0 2.464 . S
O23 C9 1.251 . S
O24 Sm0 2.396 . S
O24 C10 1.252 . S
O25 Sm1 2.408 . S
O25 C10 1.272 . S
O26 Sm1 2.533 1_556 S
O26 C11 1.265 . S
O27 Sm1 2.450 . S
O27 C11 1.242 1_554 S
O28 Sm0 2.386 . S
O28 Sm1 2.681 . S
O28 C18 1.271 . S
O29 Sm1 2.464 . S
O29 C18 1.251 . S
O30 Sm1 2.396 . S
O30 C19 1.252 . S
O31 Sm0 2.408 . S
O31 C19 1.272 . S
H32 C4 0.930 . S
H33 C5 0.929 . S
H34 C7 0.930 . S
H35 C8 0.929 . S
H36 C13 0.930 . S
H37 C14 0.929 . S
H38 C16 0.930 . S
H39 C17 0.920 1_655 S
Sm40 C42 2.846 . S
Sm40 O60 2.543 . S
Sm40 O61 2.450 . S
Sm40 O62 2.681 . S
Sm40 O63 2.464 . S
Sm40 O64 2.396 . S
Sm40 O68 2.386 . S
Sm40 O71 2.408 . S
Sm41 C51 2.846 1_554 S
Sm41 O62 2.386 . S
Sm41 O65 2.408 . S
Sm41 O66 2.533 1_554 S
Sm41 O67 2.450 . S
Sm41 O68 2.681 . S
Sm41 O69 2.464 . S
Sm41 O70 2.396 . S
C42 Sm40 2.846 . S
C42 C43 1.506 . S
C42 O60 1.261 . S
C42 O61 1.242 . S
C43 C42 1.506 . S
C43 C44 1.358 . S
C43 C48 1.382 . S
C44 C43 1.358 . S
C44 C45 1.385 . S
C44 H72 0.930 . S
C45 C44 1.385 . S
C45 C46 1.395 . S
C45 H73 0.929 . S
C46 C45 1.395 . S
C46 C47 1.335 . S
C47 C46 1.335 . S
C47 C48 1.398 . S
C47 H74 0.930 . S
C48 C43 1.382 . S
C48 C47 1.398 . S
C48 H75 0.929 . S
C49 O62 1.271 . S
C49 O63 1.251 . S
C50 O64 1.252 . S
C50 O65 1.272 . S
C51 Sm41 2.846 1_556 S
C51 C52 1.506 . S
C51 O66 1.265 . S
C51 O67 1.242 1_556 S
C52 C51 1.506 . S
C52 C53 1.358 . S
C52 C57 1.382 . S
C53 C52 1.358 . S
C53 C54 1.385 . S
C53 H76 0.930 . S
C54 C53 1.385 . S
C54 C55 1.395 . S
C54 H77 0.929 . S
C55 C54 1.395 . S
C55 C56 1.335 . S
C56 C55 1.335 . S
C56 C57 1.398 . S
C56 H78 0.930 . S
C57 C52 1.382 . S
C57 C56 1.398 . S
C57 H79 0.929 . S
C58 O68 1.271 . S
C58 O69 1.251 . S
C59 O70 1.252 . S
C59 O71 1.272 . S
O60 Sm40 2.543 . S
O60 C42 1.261 . S
O61 Sm40 2.450 . S
O61 C42 1.242 . S
O62 Sm40 2.681 . S
O62 Sm41 2.386 . S
O62 C49 1.271 . S
O63 Sm40 2.464 . S
O63 C49 1.251 . S
O64 Sm40 2.396 . S
O64 C50 1.252 . S
O65 Sm41 2.408 . S
O65 C50 1.272 . S
O66 Sm41 2.533 1_556 S
O66 C51 1.265 . S
O67 Sm41 2.450 . S
O67 C51 1.242 1_554 S
O68 Sm40 2.386 . S
O68 Sm41 2.681 . S
O68 C58 1.271 . S
O69 Sm41 2.464 . S
O69 C58 1.251 . S
O70 Sm41 2.396 . S
O70 C59 1.252 . S
O71 Sm40 2.408 . S
O71 C59 1.272 . S
H72 C44 0.930 . S
H73 C45 0.929 . S
H74 C47 0.930 . S
H75 C48 0.929 . S
H76 C53 0.930 . S
H77 C54 0.929 . S
H78 C56 0.930 . S
H79 C57 0.929 . S
Sm80 C82 2.846 . S
Sm80 O100 2.543 . S
Sm80 O101 2.450 . S
Sm80 O102 2.681 . S
Sm80 O103 2.464 . S
Sm80 O104 2.396 . S
Sm80 O108 2.386 . S
Sm80 O111 2.408 . S
Sm81 C91 2.846 1_554 S
Sm81 O102 2.386 . S
Sm81 O105 2.408 . S
Sm81 O106 2.533 1_554 S
Sm81 O107 2.450 . S
Sm81 O108 2.681 . S
Sm81 O109 2.464 . S
Sm81 O110 2.396 . S
C82 Sm80 2.846 . S
C82 C83 1.506 . S
C82 O100 1.261 . S
C82 O101 1.242 . S
C83 C82 1.506 . S
C83 C84 1.358 . S
C83 C88 1.382 . S
C84 C83 1.358 . S
C84 C85 1.385 . S
C84 H112 0.930 . S
C85 C84 1.385 . S
C85 C86 1.395 . S
C85 H113 0.929 . S
C86 C85 1.395 . S
C86 C87 1.335 . S
C87 C86 1.335 . S
C87 C88 1.398 . S
C87 H114 0.930 . S
C88 C83 1.382 . S
C88 C87 1.398 . S
C88 H115 0.929 . S
C89 O102 1.271 . S
C89 O103 1.251 . S
C90 O104 1.252 . S
C90 O105 1.272 . S
C91 Sm81 2.846 1_556 S
C91 C92 1.506 . S
C91 O106 1.265 . S
C91 O107 1.242 1_556 S
C92 C91 1.506 . S
C92 C93 1.358 . S
C92 C97 1.388 . S
C93 C92 1.358 . S
C93 C94 1.385 . S
C93 H116 0.930 . S
C94 C93 1.385 . S
C94 C95 1.395 . S
C94 H117 0.929 . S
C95 C94 1.395 . S
C95 C96 1.335 1_565 S
C96 C95 1.335 1_545 S
C96 C97 1.395 1_545 S
C96 H118 0.930 . S
C97 C92 1.388 . S
C97 C96 1.395 1_565 S
C97 H119 0.926 1_565 S
C98 O108 1.271 . S
C98 O109 1.251 . S
C99 O110 1.252 . S
C99 O111 1.272 . S
O100 Sm80 2.543 . S
O100 C82 1.261 . S
O101 Sm80 2.450 . S
O101 C82 1.242 . S
O102 Sm80 2.681 . S
O102 Sm81 2.386 . S
O102 C89 1.271 . S
O103 Sm80 2.464 . S
O103 C89 1.251 . S
O104 Sm80 2.396 . S
O104 C90 1.252 . S
O105 Sm81 2.408 . S
O105 C90 1.272 . S
O106 Sm81 2.533 1_556 S
O106 C91 1.265 . S
O107 Sm81 2.450 . S
O107 C91 1.242 1_554 S
O108 Sm80 2.386 . S
O108 Sm81 2.681 . S
O108 C98 1.271 . S
O109 Sm81 2.464 . S
O109 C98 1.251 . S
O110 Sm81 2.396 . S
O110 C99 1.252 . S
O111 Sm80 2.408 . S
O111 C99 1.272 . S
H112 C84 0.930 . S
H113 C85 0.929 . S
H114 C87 0.930 . S
H115 C88 0.929 . S
H116 C93 0.930 . S
H117 C94 0.929 . S
H118 C96 0.930 . S
H119 C97 0.926 1_545 S
Sm120 C122 2.846 . S
Sm120 O140 2.543 . S
Sm120 O141 2.450 . S
Sm120 O142 2.681 . S
Sm120 O143 2.464 . S
Sm120 O144 2.396 . S
Sm120 O148 2.386 . S
Sm120 O151 2.408 . S
Sm121 C131 2.846 . S
Sm121 O142 2.386 . S
Sm121 O145 2.408 . S
Sm121 O146 2.543 . S
Sm121 O147 2.450 . S
Sm121 O148 2.681 . S
Sm121 O149 2.464 . S
Sm121 O150 2.396 . S
C122 Sm120 2.846 . S
C122 C123 1.506 . S
C122 O140 1.261 . S
C122 O141 1.242 . S
C123 C122 1.506 . S
C123 C124 1.358 . S
C123 C128 1.382 . S
C124 C123 1.358 . S
C124 C125 1.385 . S
C124 H152 0.930 . S
C125 C124 1.385 . S
C125 C126 1.395 . S
C125 H153 0.929 . S
C126 C125 1.395 . S
C126 C127 1.335 . S
C127 C126 1.335 . S
C127 C128 1.398 . S
C127 H154 0.930 . S
C128 C123 1.382 . S
C128 C127 1.398 . S
C128 H155 0.929 . S
C129 O142 1.271 . S
C129 O143 1.251 . S
C130 O144 1.252 . S
C130 O145 1.272 . S
C131 Sm121 2.846 . S
C131 C132 1.506 . S
C131 O146 1.261 . S
C131 O147 1.242 . S
C132 C131 1.506 . S
C132 C133 1.358 . S
C132 C137 1.394 . S
C133 C132 1.358 . S
C133 C134 1.385 . S
C133 H156 0.930 . S
C134 C133 1.385 . S
C134 C135 1.395 . S
C134 H157 0.929 . S
C135 C134 1.395 . S
C135 C136 1.335 1_545 S
C136 C135 1.335 1_565 S
C136 C137 1.397 1_565 S
C136 H158 0.930 . S
C137 C132 1.394 . S
C137 C136 1.397 1_545 S
C137 H159 0.918 1_545 S
C138 O148 1.271 . S
C138 O149 1.251 . S
C139 O150 1.252 . S
C139 O151 1.272 . S
O140 Sm120 2.543 . S
O140 C122 1.261 . S
O141 Sm120 2.450 . S
O141 C122 1.242 . S
O142 Sm120 2.681 . S
O142 Sm121 2.386 . S
O142 C129 1.271 . S
O143 Sm120 2.464 . S
O143 C129 1.251 . S
O144 Sm120 2.396 . S
O144 C130 1.252 . S
O145 Sm121 2.408 . S
O145 C130 1.272 . S
O146 Sm121 2.543 . S
O146 C131 1.261 . S
O147 Sm121 2.450 . S
O147 C131 1.242 . S
O148 Sm120 2.386 . S
O148 Sm121 2.681 . S
O148 C138 1.271 . S
O149 Sm121 2.464 . S
O149 C138 1.251 . S
O150 Sm121 2.396 . S
O150 C139 1.252 . S
O151 Sm120 2.408 . S
O151 C139 1.272 . S
H152 C124 0.930 . S
H153 C125 0.929 . S
H154 C127 0.930 . S
H155 C128 0.929 . S
H156 C133 0.930 . S
H157 C134 0.929 . S
H158 C136 0.930 . S
H159 C137 0.918 1_565 S
Sm160 C162 2.846 . S
Sm160 O180 2.543 . S
Sm160 O181 2.450 . S
Sm160 O182 2.681 . S
Sm160 O183 2.464 . S
Sm160 O184 2.396 . S
Sm160 O188 2.386 . S
Sm160 O191 2.408 . S
Sm161 C171 2.846 . S
Sm161 O182 2.386 . S
Sm161 O185 2.408 . S
Sm161 O186 2.543 . S
Sm161 O187 2.450 . S
Sm161 O188 2.681 . S
Sm161 O189 2.464 . S
Sm161 O190 2.396 . S
C162 Sm160 2.846 . S
C162 C163 1.506 . S
C162 O180 1.261 . S
C162 O181 1.242 . S
C163 C162 1.506 . S
C163 C164 1.358 . S
C163 C168 1.382 . S
C164 C163 1.358 . S
C164 C165 1.385 . S
C164 H192 0.930 . S
C165 C164 1.385 . S
C165 C166 1.395 . S
C165 H193 0.929 . S
C166 C165 1.395 . S
C166 C167 1.335 . S
C167 C166 1.335 . S
C167 C168 1.398 . S
C167 H194 0.930 . S
C168 C163 1.382 . S
C168 C167 1.398 . S
C168 H195 0.929 . S
C169 O182 1.271 . S
C169 O183 1.251 . S
C170 O184 1.252 . S
C170 O185 1.272 . S
C171 Sm161 2.846 . S
C171 C172 1.506 . S
C171 O186 1.261 . S
C171 O187 1.242 . S
C172 C171 1.506 . S
C172 C173 1.358 . S
C172 C177 1.389 . S
C173 C172 1.358 . S
C173 C174 1.385 . S
C173 H196 0.930 . S
C174 C173 1.385 . S
C174 C175 1.395 . S
C174 H197 0.929 . S
C175 C174 1.395 . S
C175 C176 1.335 1_655 S
C176 C175 1.335 1_455 S
C176 C177 1.395 1_455 S
C176 H198 0.930 . S
C177 C172 1.389 . S
C177 C176 1.395 1_655 S
C177 H199 0.925 1_655 S
C178 O188 1.271 . S
C178 O189 1.251 . S
C179 O190 1.252 . S
C179 O191 1.272 . S
O180 Sm160 2.543 . S
O180 C162 1.261 . S
O181 Sm160 2.450 . S
O181 C162 1.242 . S
O182 Sm160 2.681 . S
O182 Sm161 2.386 . S
O182 C169 1.271 . S
O183 Sm160 2.464 . S
O183 C169 1.251 . S
O184 Sm160 2.396 . S
O184 C170 1.252 . S
O185 Sm161 2.408 . S
O185 C170 1.272 . S
O186 Sm161 2.543 . S
O186 C171 1.261 . S
O187 Sm161 2.450 . S
O187 C171 1.242 . S
O188 Sm160 2.386 . S
O188 Sm161 2.681 . S
O188 C178 1.271 . S
O189 Sm161 2.464 . S
O189 C178 1.251 . S
O190 Sm161 2.396 . S
O190 C179 1.252 . S
O191 Sm160 2.408 . S
O191 C179 1.272 . S
H192 C164 0.930 . S
H193 C165 0.929 . S
H194 C167 0.930 . S
H195 C168 0.929 . S
H196 C173 0.930 . S
H197 C174 0.929 . S
H198 C176 0.930 . S
H199 C177 0.925 1_455 S
Sm200 C202 2.846 . S
Sm200 O220 2.543 . S
Sm200 O221 2.450 . S
Sm200 O222 2.681 . S
Sm200 O223 2.464 . S
Sm200 O224 2.396 . S
Sm200 O228 2.386 . S
Sm200 O231 2.408 . S
Sm201 C211 2.846 . S
Sm201 O222 2.386 . S
Sm201 O225 2.408 . S
Sm201 O226 2.543 . S
Sm201 O227 2.450 . S
Sm201 O228 2.681 . S
Sm201 O229 2.464 . S
Sm201 O230 2.396 . S
C202 Sm200 2.846 . S
C202 C203 1.506 . S
C202 O220 1.261 . S
C202 O221 1.242 . S
C203 C202 1.506 . S
C203 C204 1.358 . S
C203 C208 1.382 . S
C204 C203 1.358 . S
C204 C205 1.385 . S
C204 H232 0.930 . S
C205 C204 1.385 . S
C205 C206 1.395 . S
C205 H233 0.929 . S
C206 C205 1.395 . S
C206 C207 1.335 . S
C207 C206 1.335 . S
C207 C208 1.398 . S
C207 H234 0.930 . S
C208 C203 1.382 . S
C208 C207 1.398 . S
C208 H235 0.929 . S
C209 O222 1.271 . S
C209 O223 1.251 . S
C210 O224 1.252 . S
C210 O225 1.272 . S
C211 Sm201 2.846 . S
C211 C212 1.506 . S
C211 O226 1.261 . S
C211 O227 1.242 . S
C212 C211 1.506 . S
C212 C213 1.358 . S
C212 C217 1.382 . S
C213 C212 1.358 . S
C213 C214 1.385 . S
C213 H236 0.930 . S
C214 C213 1.385 . S
C214 C215 1.395 . S
C214 H237 0.929 . S
C215 C214 1.395 . S
C215 C216 1.335 . S
C216 C215 1.335 . S
C216 C217 1.398 . S
C216 H238 0.930 . S
C217 C212 1.382 . S
C217 C216 1.398 . S
C217 H239 0.929 . S
C218 O228 1.271 . S
C218 O229 1.251 . S
C219 O230 1.252 . S
C219 O231 1.272 . S
O220 Sm200 2.543 . S
O220 C202 1.261 . S
O221 Sm200 2.450 . S
O221 C202 1.242 . S
O222 Sm200 2.681 . S
O222 Sm201 2.386 . S
O222 C209 1.271 . S
O223 Sm200 2.464 . S
O223 C209 1.251 . S
O224 Sm200 2.396 . S
O224 C210 1.252 . S
O225 Sm201 2.408 . S
O225 C210 1.272 . S
O226 Sm201 2.543 . S
O226 C211 1.261 . S
O227 Sm201 2.450 . S
O227 C211 1.242 . S
O228 Sm200 2.386 . S
O228 Sm201 2.681 . S
O228 C218 1.271 . S
O229 Sm201 2.464 . S
O229 C218 1.251 . S
O230 Sm201 2.396 . S
O230 C219 1.252 . S
O231 Sm200 2.408 . S
O231 C219 1.272 . S
H232 C204 0.930 . S
H233 C205 0.929 . S
H234 C207 0.930 . S
H235 C208 0.929 . S
H236 C213 0.930 . S
H237 C214 0.929 . S
H238 C216 0.930 . S
H239 C217 0.929 . S
Sm240 C242 2.846 . S
Sm240 O260 2.543 . S
Sm240 O261 2.450 . S
Sm240 O262 2.681 . S
Sm240 O263 2.464 . S
Sm240 O264 2.396 . S
Sm240 O268 2.386 . S
Sm240 O271 2.408 1_554 S
Sm241 C251 2.846 . S
Sm241 O262 2.386 1_556 S
Sm241 O265 2.408 1_556 S
Sm241 O266 2.543 . S
Sm241 O267 2.450 . S
Sm241 O268 2.681 1_556 S
Sm241 O269 2.466 . S
Sm241 O270 2.396 . S
C242 Sm240 2.846 . S
C242 C243 1.506 . S
C242 O260 1.261 . S
C242 O261 1.242 . S
C243 C242 1.506 . S
C243 C244 1.358 . S
C243 C248 1.395 . S
C244 C243 1.358 . S
C244 C245 1.385 . S
C244 H272 0.930 . S
C245 C244 1.385 . S
C245 C246 1.395 . S
C245 H273 0.929 . S
C246 C245 1.395 . S
C246 C247 1.335 1_655 S
C247 C246 1.335 1_455 S
C247 C248 1.397 1_455 S
C247 H274 0.930 . S
C248 C243 1.395 . S
C248 C247 1.397 1_655 S
C248 H275 0.918 1_655 S
C249 O262 1.271 . S
C249 O263 1.251 . S
C250 O264 1.252 . S
C250 O265 1.272 . S
C251 Sm241 2.846 . S
C251 C252 1.506 . S
C251 O266 1.261 . S
C251 O267 1.242 . S
C252 C251 1.506 . S
C252 C253 1.358 . S
C252 C257 1.382 . S
C253 C252 1.358 . S
C253 C254 1.385 . S
C253 H276 0.930 . S
C254 C253 1.385 . S
C254 C255 1.395 . S
C254 H277 0.929 . S
C255 C254 1.395 . S
C255 C256 1.335 . S
C256 C255 1.335 . S
C256 C257 1.398 . S
C256 H278 0.930 . S
C257 C252 1.382 . S
C257 C256 1.398 . S
C257 H279 0.929 . S
C258 O268 1.271 . S
C258 O269 1.240 1_554 S
C259 O270 1.252 . S
C259 O271 1.272 . S
O260 Sm240 2.543 . S
O260 C242 1.261 . S
O261 Sm240 2.450 . S
O261 C242 1.242 . S
O262 Sm240 2.681 . S
O262 Sm241 2.386 1_554 S
O262 C249 1.271 . S
O263 Sm240 2.464 . S
O263 C249 1.251 . S
O264 Sm240 2.396 . S
O264 C250 1.252 . S
O265 Sm241 2.408 1_554 S
O265 C250 1.272 . S
O266 Sm241 2.543 . S
O266 C251 1.261 . S
O267 Sm241 2.450 . S
O267 C251 1.242 . S
O268 Sm240 2.386 . S
O268 Sm241 2.681 1_554 S
O268 C258 1.271 . S
O269 Sm241 2.466 . S
O269 C258 1.240 1_556 S
O270 Sm241 2.396 . S
O270 C259 1.252 . S
O271 Sm240 2.408 1_556 S
O271 C259 1.272 . S
H272 C244 0.930 . S
H273 C245 0.929 . S
H274 C247 0.930 . S
H275 C248 0.918 1_455 S
H276 C253 0.930 . S
H277 C254 0.929 . S
H278 C256 0.930 . S
H279 C257 0.929 . S
Sm280 C282 2.846 . S
Sm280 O300 2.543 . S
Sm280 O301 2.450 . S
Sm280 O302 2.681 . S
Sm280 O303 2.464 . S
Sm280 O304 2.396 . S
Sm280 O308 2.386 . S
Sm280 O311 2.408 1_554 S
Sm281 C291 2.846 . S
Sm281 O302 2.386 1_556 S
Sm281 O305 2.408 1_556 S
Sm281 O306 2.543 . S
Sm281 O307 2.450 . S
Sm281 O308 2.681 1_556 S
Sm281 O309 2.466 . S
Sm281 O310 2.396 . S
C282 Sm280 2.846 . S
C282 C283 1.506 . S
C282 O300 1.261 . S
C282 O301 1.242 . S
C283 C282 1.506 . S
C283 C284 1.358 . S
C283 C288 1.382 . S
C284 C283 1.358 . S
C284 C285 1.385 . S
C284 H312 0.930 . S
C285 C284 1.385 . S
C285 C286 1.395 . S
C285 H313 0.929 . S
C286 C285 1.395 . S
C286 C287 1.335 . S
C287 C286 1.335 . S
C287 C288 1.398 . S
C287 H314 0.930 . S
C288 C283 1.382 . S
C288 C287 1.398 . S
C288 H315 0.929 . S
C289 O302 1.271 . S
C289 O303 1.251 . S
C290 O304 1.252 . S
C290 O305 1.272 . S
C291 Sm281 2.846 . S
C291 C292 1.506 . S
C291 O306 1.261 . S
C291 O307 1.242 . S
C292 C291 1.506 . S
C292 C293 1.358 . S
C292 C297 1.382 . S
C293 C292 1.358 . S
C293 C294 1.385 . S
C293 H316 0.930 . S
C294 C293 1.385 . S
C294 C295 1.395 . S
C294 H317 0.929 . S
C295 C294 1.395 . S
C295 C296 1.335 . S
C296 C295 1.335 . S
C296 C297 1.398 . S
C296 H318 0.930 . S
C297 C292 1.382 . S
C297 C296 1.398 . S
C297 H319 0.929 . S
C298 O308 1.271 . S
C298 O309 1.241 1_554 S
C299 O310 1.252 . S
C299 O311 1.272 . S
O300 Sm280 2.543 . S
O300 C282 1.261 . S
O301 Sm280 2.450 . S
O301 C282 1.242 . S
O302 Sm280 2.681 . S
O302 Sm281 2.386 1_554 S
O302 C289 1.271 . S
O303 Sm280 2.464 . S
O303 C289 1.251 . S
O304 Sm280 2.396 . S
O304 C290 1.252 . S
O305 Sm281 2.408 1_554 S
O305 C290 1.272 . S
O306 Sm281 2.543 . S
O306 C291 1.261 . S
O307 Sm281 2.450 . S
O307 C291 1.242 . S
O308 Sm280 2.386 . S
O308 Sm281 2.681 1_554 S
O308 C298 1.271 . S
O309 Sm281 2.466 . S
O309 C298 1.241 1_556 S
O310 Sm281 2.396 . S
O310 C299 1.252 . S
O311 Sm280 2.408 1_556 S
O311 C299 1.272 . S
H312 C284 0.930 . S
H313 C285 0.929 . S
H314 C287 0.930 . S
H315 C288 0.929 . S
H316 C293 0.930 . S
H317 C294 0.929 . S
H318 C296 0.930 . S
H319 C297 0.929 . S
Sm320 C322 2.846 . S
Sm320 O340 2.543 . S
Sm320 O341 2.450 . S
Sm320 O342 2.681 . S
Sm320 O343 2.464 . S
Sm320 O344 2.396 . S
Sm320 O348 2.386 . S
Sm320 O351 2.408 1_554 S
Sm321 C331 2.846 . S
Sm321 O342 2.386 1_556 S
Sm321 O345 2.408 1_556 S
Sm321 O346 2.543 . S
Sm321 O347 2.450 . S
Sm321 O348 2.681 1_556 S
Sm321 O349 2.466 . S
Sm321 O350 2.396 . S
C322 Sm320 2.846 . S
C322 C323 1.506 . S
C322 O340 1.261 . S
C322 O341 1.242 . S
C323 C322 1.506 . S
C323 C324 1.358 . S
C323 C328 1.389 . S
C324 C323 1.358 . S
C324 C325 1.385 . S
C324 H352 0.930 . S
C325 C324 1.385 . S
C325 C326 1.395 . S
C325 H353 0.929 . S
C326 C325 1.395 . S
C326 C327 1.335 1_545 S
C327 C326 1.335 1_565 S
C327 C328 1.395 1_565 S
C327 H354 0.930 . S
C328 C323 1.389 . S
C328 C327 1.395 1_545 S
C328 H355 0.925 1_545 S
C329 O342 1.271 . S
C329 O343 1.251 . S
C330 O344 1.252 . S
C330 O345 1.272 . S
C331 Sm321 2.846 . S
C331 C332 1.506 . S
C331 O346 1.261 . S
C331 O347 1.242 . S
C332 C331 1.506 . S
C332 C333 1.358 . S
C332 C337 1.382 . S
C333 C332 1.358 . S
C333 C334 1.385 . S
C333 H356 0.930 . S
C334 C333 1.385 . S
C334 C335 1.395 . S
C334 H357 0.929 . S
C335 C334 1.395 . S
C335 C336 1.335 . S
C336 C335 1.335 . S
C336 C337 1.398 . S
C336 H358 0.930 . S
C337 C332 1.382 . S
C337 C336 1.398 . S
C337 H359 0.929 . S
C338 O348 1.271 . S
C338 O349 1.241 1_554 S
C339 O350 1.252 . S
C339 O351 1.272 . S
O340 Sm320 2.543 . S
O340 C322 1.261 . S
O341 Sm320 2.450 . S
O341 C322 1.242 . S
O342 Sm320 2.681 . S
O342 Sm321 2.386 1_554 S
O342 C329 1.271 . S
O343 Sm320 2.464 . S
O343 C329 1.251 . S
O344 Sm320 2.396 . S
O344 C330 1.252 . S
O345 Sm321 2.408 1_554 S
O345 C330 1.272 . S
O346 Sm321 2.543 . S
O346 C331 1.261 . S
O347 Sm321 2.450 . S
O347 C331 1.242 . S
O348 Sm320 2.386 . S
O348 Sm321 2.681 1_554 S
O348 C338 1.271 . S
O349 Sm321 2.466 . S
O349 C338 1.241 1_556 S
O350 Sm321 2.396 . S
O350 C339 1.252 . S
O351 Sm320 2.408 1_556 S
O351 C339 1.272 . S
H352 C324 0.930 . S
H353 C325 0.929 . S
H354 C327 0.930 . S
H355 C328 0.925 1_565 S
H356 C333 0.930 . S
H357 C334 0.929 . S
H358 C336 0.930 . S
H359 C337 0.929 . S
Sm360 C362 2.846 . S
Sm360 O380 2.543 . S
Sm360 O381 2.450 . S
Sm360 O382 2.681 . S
Sm360 O383 2.464 . S
Sm360 O384 2.396 . S
Sm360 O388 2.386 . S
Sm360 O391 2.408 . S
Sm361 C371 2.846 . S
Sm361 O382 2.386 . S
Sm361 O385 2.408 . S
Sm361 O386 2.543 . S
Sm361 O387 2.450 . S
Sm361 O388 2.681 . S
Sm361 O389 2.464 . S
Sm361 O390 2.396 . S
C362 Sm360 2.846 . S
C362 C363 1.506 . S
C362 O380 1.261 . S
C362 O381 1.242 . S
C363 C362 1.506 . S
C363 C364 1.358 . S
C363 C368 1.392 . S
C364 C363 1.358 . S
C364 C365 1.385 . S
C364 H392 0.930 . S
C365 C364 1.385 . S
C365 C366 1.395 . S
C365 H393 0.929 . S
C366 C365 1.395 . S
C366 C367 1.335 1_565 S
C367 C366 1.335 1_545 S
C367 C368 1.397 1_545 S
C367 H394 0.930 . S
C368 C363 1.392 . S
C368 C367 1.397 1_565 S
C368 H395 0.920 1_565 S
C369 O382 1.271 . S
C369 O383 1.251 . S
C370 O384 1.252 . S
C370 O385 1.272 . S
C371 Sm361 2.846 . S
C371 C372 1.506 . S
C371 O386 1.261 . S
C371 O387 1.242 . S
C372 C371 1.506 . S
C372 C373 1.358 . S
C372 C377 1.382 . S
C373 C372 1.358 . S
C373 C374 1.385 . S
C373 H396 0.930 . S
C374 C373 1.385 . S
C374 C375 1.395 . S
C374 H397 0.929 . S
C375 C374 1.395 . S
C375 C376 1.335 . S
C376 C375 1.335 . S
C376 C377 1.398 . S
C376 H398 0.930 . S
C377 C372 1.382 . S
C377 C376 1.398 . S
C377 H399 0.929 . S
C378 O388 1.271 . S
C378 O389 1.251 . S
C379 O390 1.252 . S
C379 O391 1.272 . S
O380 Sm360 2.543 . S
O380 C362 1.261 . S
O381 Sm360 2.450 . S
O381 C362 1.242 . S
O382 Sm360 2.681 . S
O382 Sm361 2.386 . S
O382 C369 1.271 . S
O383 Sm360 2.464 . S
O383 C369 1.251 . S
O384 Sm360 2.396 . S
O384 C370 1.252 . S
O385 Sm361 2.408 . S
O385 C370 1.272 . S
O386 Sm361 2.543 . S
O386 C371 1.261 . S
O387 Sm361 2.450 . S
O387 C371 1.242 . S
O388 Sm360 2.386 . S
O388 Sm361 2.681 . S
O388 C378 1.271 . S
O389 Sm361 2.464 . S
O389 C378 1.251 . S
O390 Sm361 2.396 . S
O390 C379 1.252 . S
O391 Sm360 2.408 . S
O391 C379 1.272 . S
H392 C364 0.930 . S
H393 C365 0.929 . S
H394 C367 0.930 . S
H395 C368 0.920 1_545 S
H396 C373 0.930 . S
H397 C374 0.929 . S
H398 C376 0.930 . S
H399 C377 0.929 . S
Sm400 C402 2.846 . S
Sm400 O420 2.543 . S
Sm400 O421 2.450 . S
Sm400 O422 2.681 . S
Sm400 O423 2.464 . S
Sm400 O424 2.396 . S
Sm400 O428 2.386 . S
Sm400 O431 2.408 . S
Sm401 C411 2.846 . S
Sm401 O422 2.386 . S
Sm401 O425 2.408 . S
Sm401 O426 2.543 . S
Sm401 O427 2.450 . S
Sm401 O428 2.681 . S
Sm401 O429 2.464 . S
Sm401 O430 2.396 . S
C402 Sm400 2.846 . S
C402 C403 1.506 . S
C402 O420 1.261 . S
C402 O421 1.242 . S
C403 C402 1.506 . S
C403 C404 1.358 . S
C403 C408 1.388 . S
C404 C403 1.358 . S
C404 C405 1.385 . S
C404 H432 0.930 . S
C405 C404 1.385 . S
C405 C406 1.395 . S
C405 H433 0.929 . S
C406 C405 1.395 . S
C406 C407 1.335 1_455 S
C407 C406 1.335 1_655 S
C407 C408 1.396 1_655 S
C407 H434 0.930 . S
C408 C403 1.388 . S
C408 C407 1.396 1_455 S
C408 H435 0.926 1_455 S
C409 O422 1.271 . S
C409 O423 1.251 . S
C410 O424 1.252 . S
C410 O425 1.272 . S
C411 Sm401 2.846 . S
C411 C412 1.506 . S
C411 O426 1.261 . S
C411 O427 1.242 . S
C412 C411 1.506 . S
C412 C413 1.358 . S
C412 C417 1.382 . S
C413 C412 1.358 . S
C413 C414 1.385 . S
C413 H436 0.930 . S
C414 C413 1.385 . S
C414 C415 1.395 . S
C414 H437 0.929 . S
C415 C414 1.395 . S
C415 C416 1.335 . S
C416 C415 1.335 . S
C416 C417 1.398 . S
C416 H438 0.930 . S
C417 C412 1.382 . S
C417 C416 1.398 . S
C417 H439 0.929 . S
C418 O428 1.271 . S
C418 O429 1.251 . S
C419 O430 1.252 . S
C419 O431 1.272 . S
O420 Sm400 2.543 . S
O420 C402 1.261 . S
O421 Sm400 2.450 . S
O421 C402 1.242 . S
O422 Sm400 2.681 . S
O422 Sm401 2.386 . S
O422 C409 1.271 . S
O423 Sm400 2.464 . S
O423 C409 1.251 . S
O424 Sm400 2.396 . S
O424 C410 1.252 . S
O425 Sm401 2.408 . S
O425 C410 1.272 . S
O426 Sm401 2.543 . S
O426 C411 1.261 . S
O427 Sm401 2.450 . S
O427 C411 1.242 . S
O428 Sm400 2.386 . S
O428 Sm401 2.681 . S
O428 C418 1.271 . S
O429 Sm401 2.464 . S
O429 C418 1.251 . S
O430 Sm401 2.396 . S
O430 C419 1.252 . S
O431 Sm400 2.408 . S
O431 C419 1.272 . S
H432 C404 0.930 . S
H433 C405 0.929 . S
H434 C407 0.930 . S
H435 C408 0.926 1_655 S
H436 C413 0.930 . S
H437 C414 0.929 . S
H438 C416 0.930 . S
H439 C417 0.929 . S
Sm440 C442 2.846 . S
Sm440 O460 2.543 . S
Sm440 O461 2.450 . S
Sm440 O462 2.681 . S
Sm440 O463 2.464 . S
Sm440 O464 2.396 . S
Sm440 O468 2.386 . S
Sm440 O471 2.408 . S
Sm441 C451 2.846 . S
Sm441 O462 2.386 . S
Sm441 O465 2.408 . S
Sm441 O466 2.543 . S
Sm441 O467 2.450 . S
Sm441 O468 2.681 . S
Sm441 O469 2.464 . S
Sm441 O470 2.396 . S
C442 Sm440 2.846 . S
C442 C443 1.506 . S
C442 O460 1.261 . S
C442 O461 1.242 . S
C443 C442 1.506 . S
C443 C444 1.358 . S
C443 C448 1.382 . S
C444 C443 1.358 . S
C444 C445 1.385 . S
C444 H472 0.930 . S
C445 C444 1.385 . S
C445 C446 1.395 . S
C445 H473 0.929 . S
C446 C445 1.395 . S
C446 C447 1.335 . S
C447 C446 1.335 . S
C447 C448 1.398 . S
C447 H474 0.930 . S
C448 C443 1.382 . S
C448 C447 1.398 . S
C448 H475 0.929 . S
C449 O462 1.271 . S
C449 O463 1.251 . S
C450 O464 1.252 . S
C450 O465 1.272 . S
C451 Sm441 2.846 . S
C451 C452 1.506 . S
C451 O466 1.261 . S
C451 O467 1.242 . S
C452 C451 1.506 . S
C452 C453 1.358 . S
C452 C457 1.382 . S
C453 C452 1.358 . S
C453 C454 1.385 . S
C453 H476 0.930 . S
C454 C453 1.385 . S
C454 C455 1.395 . S
C454 H477 0.929 . S
C455 C454 1.395 . S
C455 C456 1.335 . S
C456 C455 1.335 . S
C456 C457 1.398 . S
C456 H478 0.930 . S
C457 C452 1.382 . S
C457 C456 1.398 . S
C457 H479 0.929 . S
C458 O468 1.271 . S
C458 O469 1.251 . S
C459 O470 1.252 . S
C459 O471 1.272 . S
O460 Sm440 2.543 . S
O460 C442 1.261 . S
O461 Sm440 2.450 . S
O461 C442 1.242 . S
O462 Sm440 2.681 . S
O462 Sm441 2.386 . S
O462 C449 1.271 . S
O463 Sm440 2.464 . S
O463 C449 1.251 . S
O464 Sm440 2.396 . S
O464 C450 1.252 . S
O465 Sm441 2.408 . S
O465 C450 1.272 . S
O466 Sm441 2.543 . S
O466 C451 1.261 . S
O467 Sm441 2.450 . S
O467 C451 1.242 . S
O468 Sm440 2.386 . S
O468 Sm441 2.681 . S
O468 C458 1.271 . S
O469 Sm441 2.464 . S
O469 C458 1.251 . S
O470 Sm441 2.396 . S
O470 C459 1.252 . S
O471 Sm440 2.408 . S
O471 C459 1.272 . S
H472 C444 0.930 . S
H473 C445 0.929 . S
H474 C447 0.930 . S
H475 C448 0.929 . S
H476 C453 0.930 . S
H477 C454 0.929 . S
H478 C456 0.930 . S
H479 C457 0.929 . S
Sm480 C482 2.846 . S
Sm480 O500 2.543 . S
Sm480 O501 2.450 . S
Sm480 O502 2.681 . S
Sm480 O503 2.464 . S
Sm480 O504 2.396 . S
Sm480 O508 2.386 . S
Sm480 O511 2.408 . S
Sm481 C491 2.846 . S
Sm481 O502 2.386 . S
Sm481 O505 2.408 . S
Sm481 O506 2.543 . S
Sm481 O507 2.450 . S
Sm481 O508 2.681 . S
Sm481 O509 2.464 . S
Sm481 O510 2.396 . S
C482 Sm480 2.846 . S
C482 C483 1.506 . S
C482 O500 1.261 . S
C482 O501 1.242 . S
C483 C482 1.506 . S
C483 C484 1.358 . S
C483 C488 1.382 . S
C484 C483 1.358 . S
C484 C485 1.385 . S
C484 H512 0.930 . S
C485 C484 1.385 . S
C485 C486 1.395 . S
C485 H513 0.929 . S
C486 C485 1.395 . S
C486 C487 1.335 . S
C487 C486 1.335 . S
C487 C488 1.398 . S
C487 H514 0.930 . S
C488 C483 1.382 . S
C488 C487 1.398 . S
C488 H515 0.929 . S
C489 O502 1.271 . S
C489 O503 1.251 . S
C490 O504 1.252 . S
C490 O505 1.272 . S
C491 Sm481 2.846 . S
C491 C492 1.506 . S
C491 O506 1.261 . S
C491 O507 1.242 . S
C492 C491 1.506 . S
C492 C493 1.358 . S
C492 C497 1.382 . S
C493 C492 1.358 . S
C493 C494 1.385 . S
C493 H516 0.930 . S
C494 C493 1.385 . S
C494 C495 1.395 . S
C494 H517 0.929 . S
C495 C494 1.395 . S
C495 C496 1.335 . S
C496 C495 1.335 . S
C496 C497 1.398 . S
C496 H518 0.930 . S
C497 C492 1.382 . S
C497 C496 1.398 . S
C497 H519 0.929 . S
C498 O508 1.271 . S
C498 O509 1.251 . S
C499 O510 1.252 . S
C499 O511 1.272 . S
O500 Sm480 2.543 . S
O500 C482 1.261 . S
O501 Sm480 2.450 . S
O501 C482 1.242 . S
O502 Sm480 2.681 . S
O502 Sm481 2.386 . S
O502 C489 1.271 . S
O503 Sm480 2.464 . S
O503 C489 1.251 . S
O504 Sm480 2.396 . S
O504 C490 1.252 . S
O505 Sm481 2.408 . S
O505 C490 1.272 . S
O506 Sm481 2.543 . S
O506 C491 1.261 . S
O507 Sm481 2.450 . S
O507 C491 1.242 . S
O508 Sm480 2.386 . S
O508 Sm481 2.681 . S
O508 C498 1.271 . S
O509 Sm481 2.464 . S
O509 C498 1.251 . S
O510 Sm481 2.396 . S
O510 C499 1.252 . S
O511 Sm480 2.408 . S
O511 C499 1.272 . S
H512 C484 0.930 . S
H513 C485 0.929 . S
H514 C487 0.930 . S
H515 C488 0.929 . S
H516 C493 0.930 . S
H517 C494 0.929 . S
H518 C496 0.930 . S
H519 C497 0.929 . S
Sm520 C522 2.846 . S
Sm520 O540 2.543 . S
Sm520 O541 2.450 . S
Sm520 O542 2.681 . S
Sm520 O543 2.464 . S
Sm520 O544 2.396 . S
Sm520 O548 2.386 . S
Sm520 O551 2.408 . S
Sm521 C531 2.846 . S
Sm521 O542 2.386 . S
Sm521 O545 2.408 . S
Sm521 O546 2.543 . S
Sm521 O547 2.450 . S
Sm521 O548 2.681 . S
Sm521 O549 2.464 . S
Sm521 O550 2.396 . S
C522 Sm520 2.846 . S
C522 C523 1.506 . S
C522 O540 1.261 . S
C522 O541 1.242 . S
C523 C522 1.506 . S
C523 C524 1.358 . S
C523 C528 1.382 . S
C524 C523 1.358 . S
C524 C525 1.385 . S
C524 H552 0.930 . S
C525 C524 1.385 . S
C525 C526 1.395 . S
C525 H553 0.929 . S
C526 C525 1.395 . S
C526 C527 1.335 . S
C527 C526 1.335 . S
C527 C528 1.398 . S
C527 H554 0.930 . S
C528 C523 1.382 . S
C528 C527 1.398 . S
C528 H555 0.929 . S
C529 O542 1.271 . S
C529 O543 1.251 . S
C530 O544 1.252 . S
C530 O545 1.272 . S
C531 Sm521 2.846 . S
C531 C532 1.506 . S
C531 O546 1.261 . S
C531 O547 1.242 . S
C532 C531 1.506 . S
C532 C533 1.358 . S
C532 C537 1.382 . S
C533 C532 1.358 . S
C533 C534 1.385 . S
C533 H556 0.930 . S
C534 C533 1.385 . S
C534 C535 1.395 . S
C534 H557 0.929 . S
C535 C534 1.395 . S
C535 C536 1.335 . S
C536 C535 1.335 . S
C536 C537 1.398 . S
C536 H558 0.930 . S
C537 C532 1.382 . S
C537 C536 1.398 . S
C537 H559 0.929 . S
C538 O548 1.271 . S
C538 O549 1.251 . S
C539 O550 1.252 . S
C539 O551 1.272 . S
O540 Sm520 2.543 . S
O540 C522 1.261 . S
O541 Sm520 2.450 . S
O541 C522 1.242 . S
O542 Sm520 2.681 . S
O542 Sm521 2.386 . S
O542 C529 1.271 . S
O543 Sm520 2.464 . S
O543 C529 1.251 . S
O544 Sm520 2.396 . S
O544 C530 1.252 . S
O545 Sm521 2.408 . S
O545 C530 1.272 . S
O546 Sm521 2.543 . S
O546 C531 1.261 . S
O547 Sm521 2.450 . S
O547 C531 1.242 . S
O548 Sm520 2.386 . S
O548 Sm521 2.681 . S
O548 C538 1.271 . S
O549 Sm521 2.464 . S
O549 C538 1.251 . S
O550 Sm521 2.396 . S
O550 C539 1.252 . S
O551 Sm520 2.408 . S
O551 C539 1.272 . S
H552 C524 0.930 . S
H553 C525 0.929 . S
H554 C527 0.930 . S
H555 C528 0.929 . S
H556 C533 0.930 . S
H557 C534 0.929 . S
H558 C536 0.930 . S
H559 C537 0.929 . S
Sm560 C562 2.846 . S
Sm560 O580 2.543 . S
Sm560 O581 2.450 . S
Sm560 O582 2.681 . S
Sm560 O583 2.464 . S
Sm560 O584 2.396 . S
Sm560 O588 2.386 . S
Sm560 O591 2.408 . S
Sm561 C571 2.846 . S
Sm561 O582 2.386 . S
Sm561 O585 2.408 . S
Sm561 O586 2.543 . S
Sm561 O587 2.450 . S
Sm561 O588 2.681 . S
Sm561 O589 2.464 . S
Sm561 O590 2.396 . S
C562 Sm560 2.846 . S
C562 C563 1.506 . S
C562 O580 1.261 . S
C562 O581 1.242 . S
C563 C562 1.506 . S
C563 C564 1.358 . S
C563 C568 1.382 . S
C564 C563 1.358 . S
C564 C565 1.385 . S
C564 H592 0.930 . S
C565 C564 1.385 . S
C565 C566 1.395 . S
C565 H593 0.929 . S
C566 C565 1.395 . S
C566 C567 1.335 . S
C567 C566 1.335 . S
C567 C568 1.398 . S
C567 H594 0.930 . S
C568 C563 1.382 . S
C568 C567 1.398 . S
C568 H595 0.929 . S
C569 O582 1.271 . S
C569 O583 1.251 . S
C570 O584 1.252 . S
C570 O585 1.272 . S
C571 Sm561 2.846 . S
C571 C572 1.506 . S
C571 O586 1.261 . S
C571 O587 1.242 . S
C572 C571 1.506 . S
C572 C573 1.358 . S
C572 C577 1.382 . S
C573 C572 1.358 . S
C573 C574 1.385 . S
C573 H596 0.930 . S
C574 C573 1.385 . S
C574 C575 1.395 . S
C574 H597 0.929 . S
C575 C574 1.395 . S
C575 C576 1.335 . S
C576 C575 1.335 . S
C576 C577 1.398 . S
C576 H598 0.930 . S
C577 C572 1.382 . S
C577 C576 1.398 . S
C577 H599 0.929 . S
C578 O588 1.271 . S
C578 O589 1.251 . S
C579 O590 1.252 . S
C579 O591 1.272 . S
O580 Sm560 2.543 . S
O580 C562 1.261 . S
O581 Sm560 2.450 . S
O581 C562 1.242 . S
O582 Sm560 2.681 . S
O582 Sm561 2.386 . S
O582 C569 1.271 . S
O583 Sm560 2.464 . S
O583 C569 1.251 . S
O584 Sm560 2.396 . S
O584 C570 1.252 . S
O585 Sm561 2.408 . S
O585 C570 1.272 . S
O586 Sm561 2.543 . S
O586 C571 1.261 . S
O587 Sm561 2.450 . S
O587 C571 1.242 . S
O588 Sm560 2.386 . S
O588 Sm561 2.681 . S
O588 C578 1.271 . S
O589 Sm561 2.464 . S
O589 C578 1.251 . S
O590 Sm561 2.396 . S
O590 C579 1.252 . S
O591 Sm560 2.408 . S
O591 C579 1.272 . S
H592 C564 0.930 . S
H593 C565 0.929 . S
H594 C567 0.930 . S
H595 C568 0.929 . S
H596 C573 0.930 . S
H597 C574 0.929 . S
H598 C576 0.930 . S
H599 C577 0.929 . S
Sm600 C602 2.846 . S
Sm600 O620 2.543 . S
Sm600 O621 2.450 . S
Sm600 O622 2.681 . S
Sm600 O623 2.464 . S
Sm600 O624 2.396 . S
Sm600 O628 2.386 . S
Sm600 O631 2.408 . S
Sm601 C611 2.846 . S
Sm601 O622 2.386 . S
Sm601 O625 2.408 . S
Sm601 O626 2.543 . S
Sm601 O627 2.450 . S
Sm601 O628 2.681 . S
Sm601 O629 2.464 . S
Sm601 O630 2.396 . S
C602 Sm600 2.846 . S
C602 C603 1.506 . S
C602 O620 1.261 . S
C602 O621 1.242 . S
C603 C602 1.506 . S
C603 C604 1.358 . S
C603 C608 1.382 . S
C604 C603 1.358 . S
C604 C605 1.385 . S
C604 H632 0.930 . S
C605 C604 1.385 . S
C605 C606 1.395 . S
C605 H633 0.929 . S
C606 C605 1.395 . S
C606 C607 1.335 . S
C607 C606 1.335 . S
C607 C608 1.398 . S
C607 H634 0.930 . S
C608 C603 1.382 . S
C608 C607 1.398 . S
C608 H635 0.929 . S
C609 O622 1.271 . S
C609 O623 1.251 . S
C610 O624 1.252 . S
C610 O625 1.272 . S
C611 Sm601 2.846 . S
C611 C612 1.506 1_556 S
C611 O626 1.261 . S
C611 O627 1.242 . S
C612 C611 1.506 1_554 S
C612 C613 1.358 . S
C612 C617 1.382 . S
C613 C612 1.358 . S
C613 C614 1.385 . S
C613 H636 0.930 . S
C614 C613 1.385 . S
C614 C615 1.395 . S
C614 H637 0.929 . S
C615 C614 1.395 . S
C615 C616 1.335 . S
C616 C615 1.335 . S
C616 C617 1.398 . S
C616 H638 0.930 . S
C617 C612 1.382 . S
C617 C616 1.398 . S
C617 H639 0.929 . S
C618 O628 1.271 . S
C618 O629 1.251 . S
C619 O630 1.252 . S
C619 O631 1.272 . S
O620 Sm600 2.543 . S
O620 C602 1.261 . S
O621 Sm600 2.450 . S
O621 C602 1.242 . S
O622 Sm600 2.681 . S
O622 Sm601 2.386 . S
O622 C609 1.271 . S
O623 Sm600 2.464 . S
O623 C609 1.251 . S
O624 Sm600 2.396 . S
O624 C610 1.252 . S
O625 Sm601 2.408 . S
O625 C610 1.272 . S
O626 Sm601 2.543 . S
O626 C611 1.261 . S
O627 Sm601 2.450 . S
O627 C611 1.242 . S
O628 Sm600 2.386 . S
O628 Sm601 2.681 . S
O628 C618 1.271 . S
O629 Sm601 2.464 . S
O629 C618 1.251 . S
O630 Sm601 2.396 . S
O630 C619 1.252 . S
O631 Sm600 2.408 . S
O631 C619 1.272 . S
H632 C604 0.930 . S
H633 C605 0.929 . S
H634 C607 0.930 . S
H635 C608 0.929 . S
H636 C613 0.930 . S
H637 C614 0.929 . S
H638 C616 0.930 . S
H639 C617 0.929 . S
Sm640 C642 2.846 . S
Sm640 O660 2.543 . S
Sm640 O661 2.450 . S
Sm640 O662 2.681 . S
Sm640 O663 2.464 . S
Sm640 O664 2.396 . S
Sm640 O668 2.386 . S
Sm640 O671 2.408 . S
Sm641 C651 2.846 . S
Sm641 O662 2.386 . S
Sm641 O665 2.408 . S
Sm641 O666 2.543 . S
Sm641 O667 2.450 . S
Sm641 O668 2.681 . S
Sm641 O669 2.464 . S
Sm641 O670 2.396 . S
C642 Sm640 2.846 . S
C642 C643 1.506 . S
C642 O660 1.261 . S
C642 O661 1.242 . S
C643 C642 1.506 . S
C643 C644 1.358 . S
C643 C648 1.382 . S
C644 C643 1.358 . S
C644 C645 1.385 . S
C644 H672 0.930 . S
C645 C644 1.385 . S
C645 C646 1.395 . S
C645 H673 0.929 . S
C646 C645 1.395 . S
C646 C647 1.335 . S
C647 C646 1.335 . S
C647 C648 1.398 . S
C647 H674 0.930 . S
C648 C643 1.382 . S
C648 C647 1.398 . S
C648 H675 0.929 . S
C649 O662 1.271 . S
C649 O663 1.251 . S
C650 O664 1.252 . S
C650 O665 1.272 . S
C651 Sm641 2.846 . S
C651 C652 1.506 1_556 S
C651 O666 1.261 . S
C651 O667 1.242 . S
C652 C651 1.506 1_554 S
C652 C653 1.358 . S
C652 C657 1.382 . S
C653 C652 1.358 . S
C653 C654 1.385 . S
C653 H676 0.930 . S
C654 C653 1.385 . S
C654 C655 1.395 . S
C654 H677 0.929 . S
C655 C654 1.395 . S
C655 C656 1.335 . S
C656 C655 1.335 . S
C656 C657 1.398 . S
C656 H678 0.930 . S
C657 C652 1.382 . S
C657 C656 1.398 . S
C657 H679 0.929 . S
C658 O668 1.271 . S
C658 O669 1.251 . S
C659 O670 1.252 . S
C659 O671 1.272 . S
O660 Sm640 2.543 . S
O660 C642 1.261 . S
O661 Sm640 2.450 . S
O661 C642 1.242 . S
O662 Sm640 2.681 . S
O662 Sm641 2.386 . S
O662 C649 1.271 . S
O663 Sm640 2.464 . S
O663 C649 1.251 . S
O664 Sm640 2.396 . S
O664 C650 1.252 . S
O665 Sm641 2.408 . S
O665 C650 1.272 . S
O666 Sm641 2.543 . S
O666 C651 1.261 . S
O667 Sm641 2.450 . S
O667 C651 1.242 . S
O668 Sm640 2.386 . S
O668 Sm641 2.681 . S
O668 C658 1.271 . S
O669 Sm641 2.464 . S
O669 C658 1.251 . S
O670 Sm641 2.396 . S
O670 C659 1.252 . S
O671 Sm640 2.408 . S
O671 C659 1.272 . S
H672 C644 0.930 . S
H673 C645 0.929 . S
H674 C647 0.930 . S
H675 C648 0.929 . S
H676 C653 0.930 . S
H677 C654 0.929 . S
H678 C656 0.930 . S
H679 C657 0.929 . S
Sm680 C682 2.846 . S
Sm680 O700 2.543 . S
Sm680 O701 2.450 . S
Sm680 O702 2.681 . S
Sm680 O703 2.464 . S
Sm680 O704 2.396 . S
Sm680 O708 2.386 . S
Sm680 O711 2.408 . S
Sm681 C691 2.846 . S
Sm681 O702 2.386 . S
Sm681 O705 2.408 . S
Sm681 O706 2.543 . S
Sm681 O707 2.450 . S
Sm681 O708 2.681 . S
Sm681 O709 2.464 . S
Sm681 O710 2.396 . S
C682 Sm680 2.846 . S
C682 C683 1.506 . S
C682 O700 1.261 . S
C682 O701 1.242 . S
C683 C682 1.506 . S
C683 C684 1.358 . S
C683 C688 1.382 . S
C684 C683 1.358 . S
C684 C685 1.385 . S
C684 H712 0.930 . S
C685 C684 1.385 . S
C685 C686 1.395 . S
C685 H713 0.929 . S
C686 C685 1.395 . S
C686 C687 1.335 . S
C687 C686 1.335 . S
C687 C688 1.398 . S
C687 H714 0.930 . S
C688 C683 1.382 . S
C688 C687 1.398 . S
C688 H715 0.929 . S
C689 O702 1.271 . S
C689 O703 1.251 . S
C690 O704 1.252 . S
C690 O705 1.272 . S
C691 Sm681 2.846 . S
C691 C692 1.506 1_556 S
C691 O706 1.261 . S
C691 O707 1.242 . S
C692 C691 1.506 1_554 S
C692 C693 1.358 . S
C692 C697 1.382 . S
C693 C692 1.358 . S
C693 C694 1.385 . S
C693 H716 0.930 . S
C694 C693 1.385 . S
C694 C695 1.395 . S
C694 H717 0.929 . S
C695 C694 1.395 . S
C695 C696 1.335 . S
C696 C695 1.335 . S
C696 C697 1.398 . S
C696 H718 0.930 . S
C697 C692 1.382 . S
C697 C696 1.398 . S
C697 H719 0.929 . S
C698 O708 1.271 . S
C698 O709 1.251 . S
C699 O710 1.252 . S
C699 O711 1.272 . S
O700 Sm680 2.543 . S
O700 C682 1.261 . S
O701 Sm680 2.450 . S
O701 C682 1.242 . S
O702 Sm680 2.681 . S
O702 Sm681 2.386 . S
O702 C689 1.271 . S
O703 Sm680 2.464 . S
O703 C689 1.251 . S
O704 Sm680 2.396 . S
O704 C690 1.252 . S
O705 Sm681 2.408 . S
O705 C690 1.272 . S
O706 Sm681 2.543 . S
O706 C691 1.261 . S
O707 Sm681 2.450 . S
O707 C691 1.242 . S
O708 Sm680 2.386 . S
O708 Sm681 2.681 . S
O708 C698 1.271 . S
O709 Sm681 2.464 . S
O709 C698 1.251 . S
O710 Sm681 2.396 . S
O710 C699 1.252 . S
O711 Sm680 2.408 . S
O711 C699 1.272 . S
H712 C684 0.930 . S
H713 C685 0.929 . S
H714 C687 0.930 . S
H715 C688 0.929 . S
H716 C693 0.930 . S
H717 C694 0.929 . S
H718 C696 0.930 . S
H719 C697 0.929 . S
Sm720 C722 2.846 . S
Sm720 O740 2.543 . S
Sm720 O741 2.450 . S
Sm720 O742 2.681 . S
Sm720 O743 2.464 . S
Sm720 O744 2.396 . S
Sm720 O748 2.386 . S
Sm720 O751 2.408 . S
Sm721 C731 2.846 . S
Sm721 O742 2.386 . S
Sm721 O745 2.408 . S
Sm721 O746 2.543 . S
Sm721 O747 2.450 . S
Sm721 O748 2.681 . S
Sm721 O749 2.464 . S
Sm721 O750 2.396 . S
C722 Sm720 2.846 . S
C722 C723 1.506 . S
C722 O740 1.261 . S
C722 O741 1.242 . S
C723 C722 1.506 . S
C723 C724 1.358 . S
C723 C728 1.382 . S
C724 C723 1.358 . S
C724 C725 1.385 . S
C724 H752 0.930 . S
C725 C724 1.385 . S
C725 C726 1.395 . S
C725 H753 0.929 . S
C726 C725 1.395 . S
C726 C727 1.335 . S
C727 C726 1.335 . S
C727 C728 1.398 . S
C727 H754 0.930 . S
C728 C723 1.382 . S
C728 C727 1.398 . S
C728 H755 0.929 . S
C729 O742 1.271 . S
C729 O743 1.251 . S
C730 O744 1.252 . S
C730 O745 1.272 . S
C731 Sm721 2.846 . S
C731 C732 1.506 . S
C731 O746 1.261 . S
C731 O747 1.242 . S
C732 C731 1.506 . S
C732 C733 1.358 . S
C732 C737 1.382 . S
C733 C732 1.358 . S
C733 C734 1.385 . S
C733 H756 0.930 . S
C734 C733 1.385 . S
C734 C735 1.395 . S
C734 H757 0.929 . S
C735 C734 1.395 . S
C735 C736 1.335 . S
C736 C735 1.335 . S
C736 C737 1.398 . S
C736 H758 0.930 . S
C737 C732 1.382 . S
C737 C736 1.398 . S
C737 H759 0.929 . S
C738 O748 1.271 . S
C738 O749 1.251 . S
C739 O750 1.252 . S
C739 O751 1.272 . S
O740 Sm720 2.543 . S
O740 C722 1.261 . S
O741 Sm720 2.450 . S
O741 C722 1.242 . S
O742 Sm720 2.681 . S
O742 Sm721 2.386 . S
O742 C729 1.271 . S
O743 Sm720 2.464 . S
O743 C729 1.251 . S
O744 Sm720 2.396 . S
O744 C730 1.252 . S
O745 Sm721 2.408 . S
O745 C730 1.272 . S
O746 Sm721 2.543 . S
O746 C731 1.261 . S
O747 Sm721 2.450 . S
O747 C731 1.242 . S
O748 Sm720 2.386 . S
O748 Sm721 2.681 . S
O748 C738 1.271 . S
O749 Sm721 2.464 . S
O749 C738 1.251 . S
O750 Sm721 2.396 . S
O750 C739 1.252 . S
O751 Sm720 2.408 . S
O751 C739 1.272 . S
H752 C724 0.930 . S
H753 C725 0.929 . S
H754 C727 0.930 . S
H755 C728 0.929 . S
H756 C733 0.930 . S
H757 C734 0.929 . S
H758 C736 0.930 . S
H759 C737 0.929 . S
Sm760 C762 2.846 . S
Sm760 O780 2.543 . S
Sm760 O781 2.450 . S
Sm760 O782 2.681 . S
Sm760 O783 2.464 . S
Sm760 O784 2.396 . S
Sm760 O788 2.386 . S
Sm760 O791 2.408 . S
Sm761 C771 2.846 . S
Sm761 O782 2.386 . S
Sm761 O785 2.408 . S
Sm761 O786 2.543 . S
Sm761 O787 2.450 . S
Sm761 O788 2.681 . S
Sm761 O789 2.464 . S
Sm761 O790 2.396 . S
C762 Sm760 2.846 . S
C762 C763 1.506 . S
C762 O780 1.261 . S
C762 O781 1.242 . S
C763 C762 1.506 . S
C763 C764 1.358 . S
C763 C768 1.382 . S
C764 C763 1.358 . S
C764 C765 1.385 . S
C764 H792 0.930 . S
C765 C764 1.385 . S
C765 C766 1.395 . S
C765 H793 0.929 . S
C766 C765 1.395 . S
C766 C767 1.335 . S
C767 C766 1.335 . S
C767 C768 1.398 . S
C767 H794 0.930 . S
C768 C763 1.382 . S
C768 C767 1.398 . S
C768 H795 0.929 . S
C769 O782 1.271 . S
C769 O783 1.251 . S
C770 O784 1.252 . S
C770 O785 1.272 . S
C771 Sm761 2.846 . S
C771 C772 1.506 . S
C771 O786 1.261 . S
C771 O787 1.242 . S
C772 C771 1.506 . S
C772 C773 1.358 . S
C772 C777 1.382 . S
C773 C772 1.358 . S
C773 C774 1.385 . S
C773 H796 0.930 . S
C774 C773 1.385 . S
C774 C775 1.395 . S
C774 H797 0.929 . S
C775 C774 1.395 . S
C775 C776 1.335 . S
C776 C775 1.335 . S
C776 C777 1.398 . S
C776 H798 0.930 . S
C777 C772 1.382 . S
C777 C776 1.398 . S
C777 H799 0.929 . S
C778 O788 1.271 . S
C778 O789 1.251 . S
C779 O790 1.252 . S
C779 O791 1.272 . S
O780 Sm760 2.543 . S
O780 C762 1.261 . S
O781 Sm760 2.450 . S
O781 C762 1.242 . S
O782 Sm760 2.681 . S
O782 Sm761 2.386 . S
O782 C769 1.271 . S
O783 Sm760 2.464 . S
O783 C769 1.251 . S
O784 Sm760 2.396 . S
O784 C770 1.252 . S
O785 Sm761 2.408 . S
O785 C770 1.272 . S
O786 Sm761 2.543 . S
O786 C771 1.261 . S
O787 Sm761 2.450 . S
O787 C771 1.242 . S
O788 Sm760 2.386 . S
O788 Sm761 2.681 . S
O788 C778 1.271 . S
O789 Sm761 2.464 . S
O789 C778 1.251 . S
O790 Sm761 2.396 . S
O790 C779 1.252 . S
O791 Sm760 2.408 . S
O791 C779 1.272 . S
H792 C764 0.930 . S
H793 C765 0.929 . S
H794 C767 0.930 . S
H795 C768 0.929 . S
H796 C773 0.930 . S
H797 C774 0.929 . S
H798 C776 0.930 . S
H799 C777 0.929 . S
Sm800 C802 2.846 . S
Sm800 O820 2.543 . S
Sm800 O821 2.450 . S
Sm800 O822 2.681 . S
Sm800 O823 2.464 . S
Sm800 O824 2.396 . S
Sm800 O828 2.386 . S
Sm800 O831 2.408 . S
Sm801 C811 2.846 . S
Sm801 O822 2.386 . S
Sm801 O825 2.408 . S
Sm801 O826 2.543 . S
Sm801 O827 2.450 . S
Sm801 O828 2.681 . S
Sm801 O829 2.464 . S
Sm801 O830 2.396 . S
C802 Sm800 2.846 . S
C802 C803 1.506 . S
C802 O820 1.261 . S
C802 O821 1.242 . S
C803 C802 1.506 . S
C803 C804 1.358 . S
C803 C808 1.382 . S
C804 C803 1.358 . S
C804 C805 1.385 . S
C804 H832 0.930 . S
C805 C804 1.385 . S
C805 C806 1.395 . S
C805 H833 0.929 . S
C806 C805 1.395 . S
C806 C807 1.335 . S
C807 C806 1.335 . S
C807 C808 1.398 . S
C807 H834 0.930 . S
C808 C803 1.382 . S
C808 C807 1.398 . S
C808 H835 0.929 . S
C809 O822 1.271 . S
C809 O823 1.251 . S
C810 O824 1.252 . S
C810 O825 1.272 . S
C811 Sm801 2.846 . S
C811 C812 1.506 . S
C811 O826 1.261 . S
C811 O827 1.242 . S
C812 C811 1.506 . S
C812 C813 1.358 . S
C812 C817 1.382 . S
C813 C812 1.358 . S
C813 C814 1.385 . S
C813 H836 0.930 . S
C814 C813 1.385 . S
C814 C815 1.395 . S
C814 H837 0.929 . S
C815 C814 1.395 . S
C815 C816 1.335 . S
C816 C815 1.335 . S
C816 C817 1.398 . S
C816 H838 0.930 . S
C817 C812 1.382 . S
C817 C816 1.398 . S
C817 H839 0.929 . S
C818 O828 1.271 . S
C818 O829 1.251 . S
C819 O830 1.252 . S
C819 O831 1.272 . S
O820 Sm800 2.543 . S
O820 C802 1.261 . S
O821 Sm800 2.450 . S
O821 C802 1.242 . S
O822 Sm800 2.681 . S
O822 Sm801 2.386 . S
O822 C809 1.271 . S
O823 Sm800 2.464 . S
O823 C809 1.251 . S
O824 Sm800 2.396 . S
O824 C810 1.252 . S
O825 Sm801 2.408 . S
O825 C810 1.272 . S
O826 Sm801 2.543 . S
O826 C811 1.261 . S
O827 Sm801 2.450 . S
O827 C811 1.242 . S
O828 Sm800 2.386 . S
O828 Sm801 2.681 . S
O828 C818 1.271 . S
O829 Sm801 2.464 . S
O829 C818 1.251 . S
O830 Sm801 2.396 . S
O830 C819 1.252 . S
O831 Sm800 2.408 . S
O831 C819 1.272 . S
H832 C804 0.930 . S
H833 C805 0.929 . S
H834 C807 0.930 . S
H835 C808 0.929 . S
H836 C813 0.930 . S
H837 C814 0.929 . S
H838 C816 0.930 . S
H839 C817 0.929 . S
Sm840 C842 2.846 . S
Sm840 O860 2.543 . S
Sm840 O861 2.450 . S
Sm840 O862 2.681 . S
Sm840 O863 2.464 . S
Sm840 O864 2.396 . S
Sm840 O868 2.386 . S
Sm840 O871 2.408 . S
Sm841 C851 2.846 1_556 S
Sm841 O862 2.386 . S
Sm841 O865 2.408 . S
Sm841 O866 2.543 1_556 S
Sm841 O867 2.450 1_556 S
Sm841 O868 2.681 . S
Sm841 O869 2.464 . S
Sm841 O870 2.396 1_556 S
C842 Sm840 2.846 . S
C842 C843 1.506 . S
C842 O860 1.261 . S
C842 O861 1.242 . S
C843 C842 1.506 . S
C843 C844 1.358 . S
C843 C848 1.382 . S
C844 C843 1.358 . S
C844 C845 1.385 . S
C844 H872 0.930 . S
C845 C844 1.385 . S
C845 C846 1.395 . S
C845 H873 0.929 . S
C846 C845 1.395 . S
C846 C847 1.335 . S
C847 C846 1.335 . S
C847 C848 1.398 . S
C847 H874 0.930 . S
C848 C843 1.382 . S
C848 C847 1.398 . S
C848 H875 0.929 . S
C849 O862 1.271 . S
C849 O863 1.251 . S
C850 O864 1.252 . S
C850 O865 1.272 . S
C851 Sm841 2.846 1_554 S
C851 C852 1.506 . S
C851 O866 1.261 . S
C851 O867 1.242 . S
C852 C851 1.506 . S
C852 C853 1.358 . S
C852 C857 1.382 . S
C853 C852 1.358 . S
C853 C854 1.385 . S
C853 H876 0.930 . S
C854 C853 1.385 . S
C854 C855 1.395 . S
C854 H877 0.929 . S
C855 C854 1.395 . S
C855 C856 1.335 . S
C856 C855 1.335 . S
C856 C857 1.398 . S
C856 H878 0.930 . S
C857 C852 1.382 . S
C857 C856 1.398 . S
C857 H879 0.929 . S
C858 O868 1.271 . S
C858 O869 1.251 . S
C859 O870 1.252 . S
C859 O871 1.272 1_554 S
O860 Sm840 2.543 . S
O860 C842 1.261 . S
O861 Sm840 2.450 . S
O861 C842 1.242 . S
O862 Sm840 2.681 . S
O862 Sm841 2.386 . S
O862 C849 1.271 . S
O863 Sm840 2.464 . S
O863 C849 1.251 . S
O864 Sm840 2.396 . S
O864 C850 1.252 . S
O865 Sm841 2.408 . S
O865 C850 1.272 . S
O866 Sm841 2.543 1_554 S
O866 C851 1.261 . S
O867 Sm841 2.450 1_554 S
O867 C851 1.242 . S
O868 Sm840 2.386 . S
O868 Sm841 2.681 . S
O868 C858 1.271 . S
O869 Sm841 2.464 . S
O869 C858 1.251 . S
O870 Sm841 2.396 1_554 S
O870 C859 1.252 . S
O871 Sm840 2.408 . S
O871 C859 1.272 1_556 S
H872 C844 0.930 . S
H873 C845 0.929 . S
H874 C847 0.930 . S
H875 C848 0.929 . S
H876 C853 0.930 . S
H877 C854 0.929 . S
H878 C856 0.930 . S
H879 C857 0.929 . S
Sm880 C882 2.846 . S
Sm880 O900 2.543 . S
Sm880 O901 2.450 . S
Sm880 O902 2.681 . S
Sm880 O903 2.464 . S
Sm880 O904 2.396 . S
Sm880 O908 2.386 . S
Sm880 O911 2.408 . S
Sm881 C891 2.846 1_556 S
Sm881 O902 2.386 . S
Sm881 O905 2.408 . S
Sm881 O906 2.543 1_556 S
Sm881 O907 2.450 1_556 S
Sm881 O908 2.681 . S
Sm881 O909 2.464 . S
Sm881 O910 2.396 1_556 S
C882 Sm880 2.846 . S
C882 C883 1.506 . S
C882 O900 1.261 . S
C882 O901 1.242 . S
C883 C882 1.506 . S
C883 C884 1.358 . S
C883 C888 1.382 . S
C884 C883 1.358 . S
C884 C885 1.385 . S
C884 H912 0.930 . S
C885 C884 1.385 . S
C885 C886 1.395 . S
C885 H913 0.929 . S
C886 C885 1.395 . S
C886 C887 1.335 . S
C887 C886 1.335 . S
C887 C888 1.398 . S
C887 H914 0.930 . S
C888 C883 1.382 . S
C888 C887 1.398 . S
C888 H915 0.929 . S
C889 O902 1.271 . S
C889 O903 1.251 . S
C890 O904 1.252 . S
C890 O905 1.272 . S
C891 Sm881 2.846 1_554 S
C891 C892 1.506 . S
C891 O906 1.261 . S
C891 O907 1.242 . S
C892 C891 1.506 . S
C892 C893 1.358 . S
C892 C897 1.382 . S
C893 C892 1.358 . S
C893 C894 1.385 . S
C893 H916 0.930 . S
C894 C893 1.385 . S
C894 C895 1.395 . S
C894 H917 0.929 . S
C895 C894 1.395 . S
C895 C896 1.335 . S
C896 C895 1.335 . S
C896 C897 1.398 . S
C896 H918 0.930 . S
C897 C892 1.382 . S
C897 C896 1.398 . S
C897 H919 0.929 . S
C898 O908 1.271 . S
C898 O909 1.251 . S
C899 O910 1.252 . S
C899 O911 1.272 1_554 S
O900 Sm880 2.543 . S
O900 C882 1.261 . S
O901 Sm880 2.450 . S
O901 C882 1.242 . S
O902 Sm880 2.681 . S
O902 Sm881 2.386 . S
O902 C889 1.271 . S
O903 Sm880 2.464 . S
O903 C889 1.251 . S
O904 Sm880 2.396 . S
O904 C890 1.252 . S
O905 Sm881 2.408 . S
O905 C890 1.272 . S
O906 Sm881 2.543 1_554 S
O906 C891 1.261 . S
O907 Sm881 2.450 1_554 S
O907 C891 1.242 . S
O908 Sm880 2.386 . S
O908 Sm881 2.681 . S
O908 C898 1.271 . S
O909 Sm881 2.464 . S
O909 C898 1.251 . S
O910 Sm881 2.396 1_554 S
O910 C899 1.252 . S
O911 Sm880 2.408 . S
O911 C899 1.272 1_556 S
H912 C884 0.930 . S
H913 C885 0.929 . S
H914 C887 0.930 . S
H915 C888 0.929 . S
H916 C893 0.930 . S
H917 C894 0.929 . S
H918 C896 0.930 . S
H919 C897 0.929 . S
Sm920 C922 2.846 . S
Sm920 O940 2.543 . S
Sm920 O941 2.450 . S
Sm920 O942 2.681 . S
Sm920 O943 2.464 . S
Sm920 O944 2.396 . S
Sm920 O948 2.386 . S
Sm920 O951 2.408 . S
Sm921 C931 2.846 1_556 S
Sm921 O942 2.386 . S
Sm921 O945 2.408 . S
Sm921 O946 2.543 1_556 S
Sm921 O947 2.450 1_556 S
Sm921 O948 2.681 . S
Sm921 O949 2.464 . S
Sm921 O950 2.396 1_556 S
C922 Sm920 2.846 . S
C922 C923 1.506 . S
C922 O940 1.261 . S
C922 O941 1.242 . S
C923 C922 1.506 . S
C923 C924 1.358 . S
C923 C928 1.382 . S
C924 C923 1.358 . S
C924 C925 1.385 . S
C924 H952 0.930 . S
C925 C924 1.385 . S
C925 C926 1.395 . S
C925 H953 0.929 . S
C926 C925 1.395 . S
C926 C927 1.335 . S
C927 C926 1.335 . S
C927 C928 1.398 . S
C927 H954 0.930 . S
C928 C923 1.382 . S
C928 C927 1.398 . S
C928 H955 0.929 . S
C929 O942 1.271 . S
C929 O943 1.251 . S
C930 O944 1.252 . S
C930 O945 1.272 . S
C931 Sm921 2.846 1_554 S
C931 C932 1.506 . S
C931 O946 1.261 . S
C931 O947 1.242 . S
C932 C931 1.506 . S
C932 C933 1.358 . S
C932 C937 1.382 . S
C933 C932 1.358 . S
C933 C934 1.385 . S
C933 H956 0.930 . S
C934 C933 1.385 . S
C934 C935 1.395 . S
C934 H957 0.929 . S
C935 C934 1.395 . S
C935 C936 1.335 . S
C936 C935 1.335 . S
C936 C937 1.398 . S
C936 H958 0.930 . S
C937 C932 1.382 . S
C937 C936 1.398 . S
C937 H959 0.929 . S
C938 O948 1.271 . S
C938 O949 1.251 . S
C939 O950 1.252 . S
C939 O951 1.272 1_554 S
O940 Sm920 2.543 . S
O940 C922 1.261 . S
O941 Sm920 2.450 . S
O941 C922 1.242 . S
O942 Sm920 2.681 . S
O942 Sm921 2.386 . S
O942 C929 1.271 . S
O943 Sm920 2.464 . S
O943 C929 1.251 . S
O944 Sm920 2.396 . S
O944 C930 1.252 . S
O945 Sm921 2.408 . S
O945 C930 1.272 . S
O946 Sm921 2.543 1_554 S
O946 C931 1.261 . S
O947 Sm921 2.450 1_554 S
O947 C931 1.242 . S
O948 Sm920 2.386 . S
O948 Sm921 2.681 . S
O948 C938 1.271 . S
O949 Sm921 2.464 . S
O949 C938 1.251 . S
O950 Sm921 2.396 1_554 S
O950 C939 1.252 . S
O951 Sm920 2.408 . S
O951 C939 1.272 1_556 S
H952 C924 0.930 . S
H953 C925 0.929 . S
H954 C927 0.930 . S
H955 C928 0.929 . S
H956 C933 0.930 . S
H957 C934 0.929 . S
H958 C936 0.930 . S
H959 C937 0.929 . S
Sm960 C962 2.846 . S
Sm960 O980 2.543 . S
Sm960 O981 2.450 . S
Sm960 O982 2.681 . S
Sm960 O983 2.464 . S
Sm960 O984 2.396 . S
Sm960 O988 2.386 . S
Sm960 O991 2.408 . S
Sm961 C971 2.846 . S
Sm961 O982 2.386 . S
Sm961 O985 2.408 . S
Sm961 O986 2.543 . S
Sm961 O987 2.450 . S
Sm961 O988 2.681 . S
Sm961 O989 2.464 . S
Sm961 O990 2.396 . S
C962 Sm960 2.846 . S
C962 C963 1.506 . S
C962 O980 1.261 . S
C962 O981 1.242 . S
C963 C962 1.506 . S
C963 C964 1.358 . S
C963 C968 1.382 . S
C964 C963 1.358 . S
C964 C965 1.385 1_556 S
C964 H992 0.930 . S
C965 C964 1.385 1_554 S
C965 C966 1.395 . S
C965 H993 0.929 . S
C966 C965 1.395 . S
C966 C967 1.335 . S
C967 C966 1.335 . S
C967 C968 1.398 1_554 S
C967 H994 0.930 . S
C968 C963 1.382 . S
C968 C967 1.398 1_556 S
C968 H995 0.929 . S
C969 O982 1.271 . S
C969 O983 1.251 . S
C970 O984 1.252 . S
C970 O985 1.272 . S
C971 Sm961 2.846 . S
C971 C972 1.506 . S
C971 O986 1.261 . S
C971 O987 1.242 . S
C972 C971 1.506 . S
C972 C973 1.358 . S
C972 C977 1.382 . S
C973 C972 1.358 . S
C973 C974 1.385 . S
C973 H996 0.930 . S
C974 C973 1.385 . S
C974 C975 1.395 . S
C974 H997 0.929 . S
C975 C974 1.395 . S
C975 C976 1.335 . S
C976 C975 1.335 . S
C976 C977 1.398 . S
C976 H998 0.930 . S
C977 C972 1.382 . S
C977 C976 1.398 . S
C977 H999 0.929 . S
C978 O988 1.271 . S
C978 O989 1.251 . S
C979 O990 1.252 . S
C979 O991 1.272 . S
O980 Sm960 2.543 . S
O980 C962 1.261 . S
O981 Sm960 2.450 . S
O981 C962 1.242 . S
O982 Sm960 2.681 . S
O982 Sm961 2.386 . S
O982 C969 1.271 . S
O983 Sm960 2.464 . S
O983 C969 1.251 . S
O984 Sm960 2.396 . S
O984 C970 1.252 . S
O985 Sm961 2.408 . S
O985 C970 1.272 . S
O986 Sm961 2.543 . S
O986 C971 1.261 . S
O987 Sm961 2.450 . S
O987 C971 1.242 . S
O988 Sm960 2.386 . S
O988 Sm961 2.681 . S
O988 C978 1.271 . S
O989 Sm961 2.464 . S
O989 C978 1.251 . S
O990 Sm961 2.396 . S
O990 C979 1.252 . S
O991 Sm960 2.408 . S
O991 C979 1.272 . S
H992 C964 0.930 . S
H993 C965 0.929 . S
H994 C967 0.930 . S
H995 C968 0.929 . S
H996 C973 0.930 . S
H997 C974 0.929 . S
H998 C976 0.930 . S
H999 C977 0.929 . S
Sm1000 C1002 2.846 . S
Sm1000 O1020 2.543 . S
Sm1000 O1021 2.450 . S
Sm1000 O1022 2.681 . S
Sm1000 O1023 2.464 . S
Sm1000 O1024 2.396 . S
Sm1000 O1028 2.386 . S
Sm1000 O1031 2.408 . S
Sm1001 C1011 2.846 . S
Sm1001 O1022 2.386 . S
Sm1001 O1025 2.408 . S
Sm1001 O1026 2.543 . S
Sm1001 O1027 2.450 . S
Sm1001 O1028 2.681 . S
Sm1001 O1029 2.464 . S
Sm1001 O1030 2.396 . S
C1002 Sm1000 2.846 . S
C1002 C1003 1.506 . S
C1002 O1020 1.261 . S
C1002 O1021 1.242 . S
C1003 C1002 1.506 . S
C1003 C1004 1.358 . S
C1003 C1008 1.382 . S
C1004 C1003 1.358 . S
C1004 C1005 1.385 1_556 S
C1004 H1032 0.930 . S
C1005 C1004 1.385 1_554 S
C1005 C1006 1.395 . S
C1005 H1033 0.929 . S
C1006 C1005 1.395 . S
C1006 C1007 1.335 . S
C1007 C1006 1.335 . S
C1007 C1008 1.398 1_554 S
C1007 H1034 0.930 . S
C1008 C1003 1.382 . S
C1008 C1007 1.398 1_556 S
C1008 H1035 0.929 . S
C1009 O1022 1.271 . S
C1009 O1023 1.251 . S
C1010 O1024 1.252 . S
C1010 O1025 1.272 . S
C1011 Sm1001 2.846 . S
C1011 C1012 1.506 . S
C1011 O1026 1.261 . S
C1011 O1027 1.242 . S
C1012 C1011 1.506 . S
C1012 C1013 1.358 . S
C1012 C1017 1.382 . S
C1013 C1012 1.358 . S
C1013 C1014 1.385 . S
C1013 H1036 0.930 . S
C1014 C1013 1.385 . S
C1014 C1015 1.395 . S
C1014 H1037 0.929 . S
C1015 C1014 1.395 . S
C1015 C1016 1.335 . S
C1016 C1015 1.335 . S
C1016 C1017 1.398 . S
C1016 H1038 0.930 . S
C1017 C1012 1.382 . S
C1017 C1016 1.398 . S
C1017 H1039 0.929 . S
C1018 O1028 1.271 . S
C1018 O1029 1.251 . S
C1019 O1030 1.252 . S
C1019 O1031 1.272 . S
O1020 Sm1000 2.543 . S
O1020 C1002 1.261 . S
O1021 Sm1000 2.450 . S
O1021 C1002 1.242 . S
O1022 Sm1000 2.681 . S
O1022 Sm1001 2.386 . S
O1022 C1009 1.271 . S
O1023 Sm1000 2.464 . S
O1023 C1009 1.251 . S
O1024 Sm1000 2.396 . S
O1024 C1010 1.252 . S
O1025 Sm1001 2.408 . S
O1025 C1010 1.272 . S
O1026 Sm1001 2.543 . S
O1026 C1011 1.261 . S
O1027 Sm1001 2.450 . S
O1027 C1011 1.242 . S
O1028 Sm1000 2.386 . S
O1028 Sm1001 2.681 . S
O1028 C1018 1.271 . S
O1029 Sm1001 2.464 . S
O1029 C1018 1.251 . S
O1030 Sm1001 2.396 . S
O1030 C1019 1.252 . S
O1031 Sm1000 2.408 . S
O1031 C1019 1.272 . S
H1032 C1004 0.930 . S
H1033 C1005 0.929 . S
H1034 C1007 0.930 . S
H1035 C1008 0.929 . S
H1036 C1013 0.930 . S
H1037 C1014 0.929 . S
H1038 C1016 0.930 . S
H1039 C1017 0.929 . S
Sm1040 C1042 2.846 . S
Sm1040 O1060 2.543 . S
Sm1040 O1061 2.450 . S
Sm1040 O1062 2.681 . S
Sm1040 O1063 2.464 . S
Sm1040 O1064 2.396 . S
Sm1040 O1068 2.386 . S
Sm1040 O1071 2.408 . S
Sm1041 C1051 2.846 . S
Sm1041 O1062 2.386 . S
Sm1041 O1065 2.408 . S
Sm1041 O1066 2.543 . S
Sm1041 O1067 2.450 . S
Sm1041 O1068 2.681 . S
Sm1041 O1069 2.464 . S
Sm1041 O1070 2.396 . S
C1042 Sm1040 2.846 . S
C1042 C1043 1.506 . S
C1042 O1060 1.261 . S
C1042 O1061 1.242 . S
C1043 C1042 1.506 . S
C1043 C1044 1.358 . S
C1043 C1048 1.382 . S
C1044 C1043 1.358 . S
C1044 C1045 1.385 1_556 S
C1044 H1072 0.930 . S
C1045 C1044 1.385 1_554 S
C1045 C1046 1.395 . S
C1045 H1073 0.929 . S
C1046 C1045 1.395 . S
C1046 C1047 1.335 . S
C1047 C1046 1.335 . S
C1047 C1048 1.398 1_554 S
C1047 H1074 0.930 . S
C1048 C1043 1.382 . S
C1048 C1047 1.398 1_556 S
C1048 H1075 0.929 . S
C1049 O1062 1.271 . S
C1049 O1063 1.251 . S
C1050 O1064 1.252 . S
C1050 O1065 1.272 . S
C1051 Sm1041 2.846 . S
C1051 C1052 1.506 . S
C1051 O1066 1.261 . S
C1051 O1067 1.242 . S
C1052 C1051 1.506 . S
C1052 C1053 1.358 . S
C1052 C1057 1.382 . S
C1053 C1052 1.358 . S
C1053 C1054 1.385 . S
C1053 H1076 0.930 . S
C1054 C1053 1.385 . S
C1054 C1055 1.395 . S
C1054 H1077 0.929 . S
C1055 C1054 1.395 . S
C1055 C1056 1.335 . S
C1056 C1055 1.335 . S
C1056 C1057 1.398 . S
C1056 H1078 0.930 . S
C1057 C1052 1.382 . S
C1057 C1056 1.398 . S
C1057 H1079 0.929 . S
C1058 O1068 1.271 . S
C1058 O1069 1.251 . S
C1059 O1070 1.252 . S
C1059 O1071 1.272 . S
O1060 Sm1040 2.543 . S
O1060 C1042 1.261 . S
O1061 Sm1040 2.450 . S
O1061 C1042 1.242 . S
O1062 Sm1040 2.681 . S
O1062 Sm1041 2.386 . S
O1062 C1049 1.271 . S
O1063 Sm1040 2.464 . S
O1063 C1049 1.251 . S
O1064 Sm1040 2.396 . S
O1064 C1050 1.252 . S
O1065 Sm1041 2.408 . S
O1065 C1050 1.272 . S
O1066 Sm1041 2.543 . S
O1066 C1051 1.261 . S
O1067 Sm1041 2.450 . S
O1067 C1051 1.242 . S
O1068 Sm1040 2.386 . S
O1068 Sm1041 2.681 . S
O1068 C1058 1.271 . S
O1069 Sm1041 2.464 . S
O1069 C1058 1.251 . S
O1070 Sm1041 2.396 . S
O1070 C1059 1.252 . S
O1071 Sm1040 2.408 . S
O1071 C1059 1.272 . S
H1072 C1044 0.930 . S
H1073 C1045 0.929 . S
H1074 C1047 0.930 . S
H1075 C1048 0.929 . S
H1076 C1053 0.930 . S
H1077 C1054 0.929 . S
H1078 C1056 0.930 . S
H1079 C1057 0.929 . S
Sm1080 C1082 2.846 . S
Sm1080 O1100 2.543 . S
Sm1080 O1101 2.450 . S
Sm1080 O1102 2.681 . S
Sm1080 O1103 2.464 . S
Sm1080 O1104 2.396 . S
Sm1080 O1108 2.386 . S
Sm1080 O1111 2.408 . S
Sm1081 C1091 2.846 . S
Sm1081 O1102 2.386 . S
Sm1081 O1105 2.408 . S
Sm1081 O1106 2.543 . S
Sm1081 O1107 2.450 . S
Sm1081 O1108 2.681 . S
Sm1081 O1109 2.464 . S
Sm1081 O1110 2.396 . S
C1082 Sm1080 2.846 . S
C1082 C1083 1.506 . S
C1082 O1100 1.261 . S
C1082 O1101 1.242 . S
C1083 C1082 1.506 . S
C1083 C1084 1.358 1_554 S
C1083 C1088 1.382 1_554 S
C1084 C1083 1.358 1_556 S
C1084 C1085 1.385 . S
C1084 H1112 0.930 . S
C1085 C1084 1.385 . S
C1085 C1086 1.395 . S
C1085 H1113 0.929 . S
C1086 C1085 1.395 . S
C1086 C1087 1.335 . S
C1087 C1086 1.335 . S
C1087 C1088 1.398 . S
C1087 H1114 0.930 . S
C1088 C1083 1.382 1_556 S
C1088 C1087 1.398 . S
C1088 H1115 0.929 1_556 S
C1089 O1102 1.271 . S
C1089 O1103 1.251 . S
C1090 O1104 1.252 . S
C1090 O1105 1.272 . S
C1091 Sm1081 2.846 . S
C1091 C1092 1.506 . S
C1091 O1106 1.261 . S
C1091 O1107 1.242 . S
C1092 C1091 1.506 . S
C1092 C1093 1.358 . S
C1092 C1097 1.382 . S
C1093 C1092 1.358 . S
C1093 C1094 1.385 . S
C1093 H1116 0.930 . S
C1094 C1093 1.385 . S
C1094 C1095 1.395 . S
C1094 H1117 0.929 . S
C1095 C1094 1.395 . S
C1095 C1096 1.335 . S
C1096 C1095 1.335 . S
C1096 C1097 1.398 . S
C1096 H1118 0.930 . S
C1097 C1092 1.382 . S
C1097 C1096 1.398 . S
C1097 H1119 0.929 . S
C1098 O1108 1.271 . S
C1098 O1109 1.251 . S
C1099 O1110 1.252 . S
C1099 O1111 1.272 . S
O1100 Sm1080 2.543 . S
O1100 C1082 1.261 . S
O1101 Sm1080 2.450 . S
O1101 C1082 1.242 . S
O1102 Sm1080 2.681 . S
O1102 Sm1081 2.386 . S
O1102 C1089 1.271 . S
O1103 Sm1080 2.464 . S
O1103 C1089 1.251 . S
O1104 Sm1080 2.396 . S
O1104 C1090 1.252 . S
O1105 Sm1081 2.408 . S
O1105 C1090 1.272 . S
O1106 Sm1081 2.543 . S
O1106 C1091 1.261 . S
O1107 Sm1081 2.450 . S
O1107 C1091 1.242 . S
O1108 Sm1080 2.386 . S
O1108 Sm1081 2.681 . S
O1108 C1098 1.271 . S
O1109 Sm1081 2.464 . S
O1109 C1098 1.251 . S
O1110 Sm1081 2.396 . S
O1110 C1099 1.252 . S
O1111 Sm1080 2.408 . S
O1111 C1099 1.272 . S
H1112 C1084 0.930 . S
H1113 C1085 0.929 . S
H1114 C1087 0.930 . S
H1115 C1088 0.929 1_554 S
H1116 C1093 0.930 . S
H1117 C1094 0.929 . S
H1118 C1096 0.930 . S
H1119 C1097 0.929 . S
Sm1120 C1122 2.846 . S
Sm1120 O1140 2.543 . S
Sm1120 O1141 2.450 . S
Sm1120 O1142 2.681 . S
Sm1120 O1143 2.464 . S
Sm1120 O1144 2.396 . S
Sm1120 O1148 2.386 . S
Sm1120 O1151 2.408 . S
Sm1121 C1131 2.846 . S
Sm1121 O1142 2.386 . S
Sm1121 O1145 2.408 . S
Sm1121 O1146 2.543 . S
Sm1121 O1147 2.450 . S
Sm1121 O1148 2.681 . S
Sm1121 O1149 2.464 . S
Sm1121 O1150 2.396 . S
C1122 Sm1120 2.846 . S
C1122 C1123 1.506 . S
C1122 O1140 1.261 . S
C1122 O1141 1.242 . S
C1123 C1122 1.506 . S
C1123 C1124 1.358 1_554 S
C1123 C1128 1.382 1_554 S
C1124 C1123 1.358 1_556 S
C1124 C1125 1.385 . S
C1124 H1152 0.930 . S
C1125 C1124 1.385 . S
C1125 C1126 1.395 . S
C1125 H1153 0.929 . S
C1126 C1125 1.395 . S
C1126 C1127 1.335 . S
C1127 C1126 1.335 . S
C1127 C1128 1.398 . S
C1127 H1154 0.930 . S
C1128 C1123 1.382 1_556 S
C1128 C1127 1.398 . S
C1128 H1155 0.929 1_556 S
C1129 O1142 1.271 . S
C1129 O1143 1.251 . S
C1130 O1144 1.252 . S
C1130 O1145 1.272 . S
C1131 Sm1121 2.846 . S
C1131 C1132 1.506 . S
C1131 O1146 1.261 . S
C1131 O1147 1.242 . S
C1132 C1131 1.506 . S
C1132 C1133 1.358 . S
C1132 C1137 1.382 . S
C1133 C1132 1.358 . S
C1133 C1134 1.385 . S
C1133 H1156 0.930 . S
C1134 C1133 1.385 . S
C1134 C1135 1.395 . S
C1134 H1157 0.929 . S
C1135 C1134 1.395 . S
C1135 C1136 1.335 . S
C1136 C1135 1.335 . S
C1136 C1137 1.398 . S
C1136 H1158 0.930 . S
C1137 C1132 1.382 . S
C1137 C1136 1.398 . S
C1137 H1159 0.929 . S
C1138 O1148 1.271 . S
C1138 O1149 1.251 . S
C1139 O1150 1.252 . S
C1139 O1151 1.272 . S
O1140 Sm1120 2.543 . S
O1140 C1122 1.261 . S
O1141 Sm1120 2.450 . S
O1141 C1122 1.242 . S
O1142 Sm1120 2.681 . S
O1142 Sm1121 2.386 . S
O1142 C1129 1.271 . S
O1143 Sm1120 2.464 . S
O1143 C1129 1.251 . S
O1144 Sm1120 2.396 . S
O1144 C1130 1.252 . S
O1145 Sm1121 2.408 . S
O1145 C1130 1.272 . S
O1146 Sm1121 2.543 . S
O1146 C1131 1.261 . S
O1147 Sm1121 2.450 . S
O1147 C1131 1.242 . S
O1148 Sm1120 2.386 . S
O1148 Sm1121 2.681 . S
O1148 C1138 1.271 . S
O1149 Sm1121 2.464 . S
O1149 C1138 1.251 . S
O1150 Sm1121 2.396 . S
O1150 C1139 1.252 . S
O1151 Sm1120 2.408 . S
O1151 C1139 1.272 . S
H1152 C1124 0.930 . S
H1153 C1125 0.929 . S
H1154 C1127 0.930 . S
H1155 C1128 0.929 1_554 S
H1156 C1133 0.930 . S
H1157 C1134 0.929 . S
H1158 C1136 0.930 . S
H1159 C1137 0.929 . S
Sm1160 C1162 2.846 . S
Sm1160 O1180 2.543 . S
Sm1160 O1181 2.450 . S
Sm1160 O1182 2.681 . S
Sm1160 O1183 2.464 . S
Sm1160 O1184 2.396 . S
Sm1160 O1188 2.386 . S
Sm1160 O1191 2.408 . S
Sm1161 C1171 2.846 . S
Sm1161 O1182 2.386 . S
Sm1161 O1185 2.408 . S
Sm1161 O1186 2.543 . S
Sm1161 O1187 2.450 . S
Sm1161 O1188 2.681 . S
Sm1161 O1189 2.464 . S
Sm1161 O1190 2.396 . S
C1162 Sm1160 2.846 . S
C1162 C1163 1.506 . S
C1162 O1180 1.261 . S
C1162 O1181 1.242 . S
C1163 C1162 1.506 . S
C1163 C1164 1.358 1_554 S
C1163 C1168 1.382 1_554 S
C1164 C1163 1.358 1_556 S
C1164 C1165 1.385 . S
C1164 H1192 0.930 . S
C1165 C1164 1.385 . S
C1165 C1166 1.395 . S
C1165 H1193 0.929 . S
C1166 C1165 1.395 . S
C1166 C1167 1.335 . S
C1167 C1166 1.335 . S
C1167 C1168 1.398 . S
C1167 H1194 0.930 . S
C1168 C1163 1.382 1_556 S
C1168 C1167 1.398 . S
C1168 H1195 0.929 1_556 S
C1169 O1182 1.271 . S
C1169 O1183 1.251 . S
C1170 O1184 1.252 . S
C1170 O1185 1.272 . S
C1171 Sm1161 2.846 . S
C1171 C1172 1.506 . S
C1171 O1186 1.261 . S
C1171 O1187 1.242 . S
C1172 C1171 1.506 . S
C1172 C1173 1.358 . S
C1172 C1177 1.382 . S
C1173 C1172 1.358 . S
C1173 C1174 1.385 . S
C1173 H1196 0.930 . S
C1174 C1173 1.385 . S
C1174 C1175 1.395 . S
C1174 H1197 0.929 . S
C1175 C1174 1.395 . S
C1175 C1176 1.335 . S
C1176 C1175 1.335 . S
C1176 C1177 1.398 . S
C1176 H1198 0.930 . S
C1177 C1172 1.382 . S
C1177 C1176 1.398 . S
C1177 H1199 0.929 . S
C1178 O1188 1.271 . S
C1178 O1189 1.251 . S
C1179 O1190 1.252 . S
C1179 O1191 1.272 . S
O1180 Sm1160 2.543 . S
O1180 C1162 1.261 . S
O1181 Sm1160 2.450 . S
O1181 C1162 1.242 . S
O1182 Sm1160 2.681 . S
O1182 Sm1161 2.386 . S
O1182 C1169 1.271 . S
O1183 Sm1160 2.464 . S
O1183 C1169 1.251 . S
O1184 Sm1160 2.396 . S
O1184 C1170 1.252 . S
O1185 Sm1161 2.408 . S
O1185 C1170 1.272 . S
O1186 Sm1161 2.543 . S
O1186 C1171 1.261 . S
O1187 Sm1161 2.450 . S
O1187 C1171 1.242 . S
O1188 Sm1160 2.386 . S
O1188 Sm1161 2.681 . S
O1188 C1178 1.271 . S
O1189 Sm1161 2.464 . S
O1189 C1178 1.251 . S
O1190 Sm1161 2.396 . S
O1190 C1179 1.252 . S
O1191 Sm1160 2.408 . S
O1191 C1179 1.272 . S
H1192 C1164 0.930 . S
H1193 C1165 0.929 . S
H1194 C1167 0.930 . S
H1195 C1168 0.929 1_554 S
H1196 C1173 0.930 . S
H1197 C1174 0.929 . S
H1198 C1176 0.930 . S
H1199 C1177 0.929 . S
Sm1200 C1202 2.846 . S
Sm1200 O1220 2.543 . S
Sm1200 O1221 2.450 . S
Sm1200 O1222 2.681 . S
Sm1200 O1223 2.464 . S
Sm1200 O1224 2.396 . S
Sm1200 O1228 2.386 . S
Sm1200 O1231 2.408 . S
Sm1201 C1211 2.846 . S
Sm1201 O1222 2.386 . S
Sm1201 O1225 2.408 . S
Sm1201 O1226 2.543 . S
Sm1201 O1227 2.450 . S
Sm1201 O1228 2.681 . S
Sm1201 O1229 2.464 . S
Sm1201 O1230 2.396 . S
C1202 Sm1200 2.846 . S
C1202 C1203 1.506 . S
C1202 O1220 1.261 . S
C1202 O1221 1.242 . S
C1203 C1202 1.506 . S
C1203 C1204 1.358 . S
C1203 C1208 1.382 . S
C1204 C1203 1.358 . S
C1204 C1205 1.385 . S
C1204 H1232 0.930 . S
C1205 C1204 1.385 . S
C1205 C1206 1.395 . S
C1205 H1233 0.929 . S
C1206 C1205 1.395 . S
C1206 C1207 1.335 . S
C1207 C1206 1.335 . S
C1207 C1208 1.398 . S
C1207 H1234 0.930 . S
C1208 C1203 1.382 . S
C1208 C1207 1.398 . S
C1208 H1235 0.929 . S
C1209 O1222 1.271 . S
C1209 O1223 1.251 . S
C1210 O1224 1.252 . S
C1210 O1225 1.272 . S
C1211 Sm1201 2.846 . S
C1211 C1212 1.506 . S
C1211 O1226 1.261 . S
C1211 O1227 1.242 . S
C1212 C1211 1.506 . S
C1212 C1213 1.358 . S
C1212 C1217 1.382 . S
C1213 C1212 1.358 . S
C1213 C1214 1.385 . S
C1213 H1236 0.930 . S
C1214 C1213 1.385 . S
C1214 C1215 1.395 . S
C1214 H1237 0.929 . S
C1215 C1214 1.395 . S
C1215 C1216 1.335 . S
C1216 C1215 1.335 . S
C1216 C1217 1.398 . S
C1216 H1238 0.930 . S
C1217 C1212 1.382 . S
C1217 C1216 1.398 . S
C1217 H1239 0.929 . S
C1218 O1228 1.271 . S
C1218 O1229 1.251 . S
C1219 O1230 1.252 . S
C1219 O1231 1.272 . S
O1220 Sm1200 2.543 . S
O1220 C1202 1.261 . S
O1221 Sm1200 2.450 . S
O1221 C1202 1.242 . S
O1222 Sm1200 2.681 . S
O1222 Sm1201 2.386 . S
O1222 C1209 1.271 . S
O1223 Sm1200 2.464 . S
O1223 C1209 1.251 . S
O1224 Sm1200 2.396 . S
O1224 C1210 1.252 . S
O1225 Sm1201 2.408 . S
O1225 C1210 1.272 . S
O1226 Sm1201 2.543 . S
O1226 C1211 1.261 . S
O1227 Sm1201 2.450 . S
O1227 C1211 1.242 . S
O1228 Sm1200 2.386 . S
O1228 Sm1201 2.681 . S
O1228 C1218 1.271 . S
O1229 Sm1201 2.464 . S
O1229 C1218 1.251 . S
O1230 Sm1201 2.396 . S
O1230 C1219 1.252 . S
O1231 Sm1200 2.408 . S
O1231 C1219 1.272 . S
H1232 C1204 0.930 . S
H1233 C1205 0.929 . S
H1234 C1207 0.930 . S
H1235 C1208 0.929 . S
H1236 C1213 0.930 . S
H1237 C1214 0.929 . S
H1238 C1216 0.930 . S
H1239 C1217 0.929 . S
Sm1240 C1242 2.846 . S
Sm1240 O1260 2.543 . S
Sm1240 O1261 2.450 . S
Sm1240 O1262 2.681 . S
Sm1240 O1263 2.464 . S
Sm1240 O1264 2.396 . S
Sm1240 O1268 2.386 . S
Sm1240 O1271 2.408 . S
Sm1241 C1251 2.846 . S
Sm1241 O1262 2.386 . S
Sm1241 O1265 2.408 . S
Sm1241 O1266 2.543 . S
Sm1241 O1267 2.450 . S
Sm1241 O1268 2.681 . S
Sm1241 O1269 2.464 . S
Sm1241 O1270 2.396 . S
C1242 Sm1240 2.846 . S
C1242 C1243 1.506 . S
C1242 O1260 1.261 . S
C1242 O1261 1.242 . S
C1243 C1242 1.506 . S
C1243 C1244 1.358 . S
C1243 C1248 1.382 . S
C1244 C1243 1.358 . S
C1244 C1245 1.385 . S
C1244 H1272 0.930 . S
C1245 C1244 1.385 . S
C1245 C1246 1.395 . S
C1245 H1273 0.929 . S
C1246 C1245 1.395 . S
C1246 C1247 1.335 . S
C1247 C1246 1.335 . S
C1247 C1248 1.398 . S
C1247 H1274 0.930 . S
C1248 C1243 1.382 . S
C1248 C1247 1.398 . S
C1248 H1275 0.929 . S
C1249 O1262 1.271 . S
C1249 O1263 1.251 . S
C1250 O1264 1.252 . S
C1250 O1265 1.272 . S
C1251 Sm1241 2.846 . S
C1251 C1252 1.506 . S
C1251 O1266 1.261 . S
C1251 O1267 1.242 . S
C1252 C1251 1.506 . S
C1252 C1253 1.358 . S
C1252 C1257 1.382 . S
C1253 C1252 1.358 . S
C1253 C1254 1.385 . S
C1253 H1276 0.930 . S
C1254 C1253 1.385 . S
C1254 C1255 1.395 . S
C1254 H1277 0.929 . S
C1255 C1254 1.395 . S
C1255 C1256 1.335 . S
C1256 C1255 1.335 . S
C1256 C1257 1.398 . S
C1256 H1278 0.930 . S
C1257 C1252 1.382 . S
C1257 C1256 1.398 . S
C1257 H1279 0.929 . S
C1258 O1268 1.271 . S
C1258 O1269 1.251 . S
C1259 O1270 1.252 . S
C1259 O1271 1.272 . S
O1260 Sm1240 2.543 . S
O1260 C1242 1.261 . S
O1261 Sm1240 2.450 . S
O1261 C1242 1.242 . S
O1262 Sm1240 2.681 . S
O1262 Sm1241 2.386 . S
O1262 C1249 1.271 . S
O1263 Sm1240 2.464 . S
O1263 C1249 1.251 . S
O1264 Sm1240 2.396 . S
O1264 C1250 1.252 . S
O1265 Sm1241 2.408 . S
O1265 C1250 1.272 . S
O1266 Sm1241 2.543 . S
O1266 C1251 1.261 . S
O1267 Sm1241 2.450 . S
O1267 C1251 1.242 . S
O1268 Sm1240 2.386 . S
O1268 Sm1241 2.681 . S
O1268 C1258 1.271 . S
O1269 Sm1241 2.464 . S
O1269 C1258 1.251 . S
O1270 Sm1241 2.396 . S
O1270 C1259 1.252 . S
O1271 Sm1240 2.408 . S
O1271 C1259 1.272 . S
H1272 C1244 0.930 . S
H1273 C1245 0.929 . S
H1274 C1247 0.930 . S
H1275 C1248 0.929 . S
H1276 C1253 0.930 . S
H1277 C1254 0.929 . S
H1278 C1256 0.930 . S
H1279 C1257 0.929 . S
Sm1280 C1282 2.846 . S
Sm1280 O1300 2.543 . S
Sm1280 O1301 2.450 . S
Sm1280 O1302 2.681 . S
Sm1280 O1303 2.464 . S
Sm1280 O1304 2.396 . S
Sm1280 O1308 2.386 . S
Sm1280 O1311 2.408 . S
Sm1281 C1291 2.846 . S
Sm1281 O1302 2.386 . S
Sm1281 O1305 2.408 . S
Sm1281 O1306 2.543 . S
Sm1281 O1307 2.450 . S
Sm1281 O1308 2.681 . S
Sm1281 O1309 2.464 . S
Sm1281 O1310 2.396 . S
C1282 Sm1280 2.846 . S
C1282 C1283 1.506 . S
C1282 O1300 1.261 . S
C1282 O1301 1.242 . S
C1283 C1282 1.506 . S
C1283 C1284 1.358 . S
C1283 C1288 1.382 . S
C1284 C1283 1.358 . S
C1284 C1285 1.385 . S
C1284 H1312 0.930 . S
C1285 C1284 1.385 . S
C1285 C1286 1.395 . S
C1285 H1313 0.929 . S
C1286 C1285 1.395 . S
C1286 C1287 1.335 . S
C1287 C1286 1.335 . S
C1287 C1288 1.398 . S
C1287 H1314 0.930 . S
C1288 C1283 1.382 . S
C1288 C1287 1.398 . S
C1288 H1315 0.929 . S
C1289 O1302 1.271 . S
C1289 O1303 1.251 . S
C1290 O1304 1.252 . S
C1290 O1305 1.272 . S
C1291 Sm1281 2.846 . S
C1291 C1292 1.506 . S
C1291 O1306 1.261 . S
C1291 O1307 1.242 . S
C1292 C1291 1.506 . S
C1292 C1293 1.358 . S
C1292 C1297 1.382 . S
C1293 C1292 1.358 . S
C1293 C1294 1.385 . S
C1293 H1316 0.930 . S
C1294 C1293 1.385 . S
C1294 C1295 1.395 . S
C1294 H1317 0.929 . S
C1295 C1294 1.395 . S
C1295 C1296 1.335 . S
C1296 C1295 1.335 . S
C1296 C1297 1.398 . S
C1296 H1318 0.930 . S
C1297 C1292 1.382 . S
C1297 C1296 1.398 . S
C1297 H1319 0.929 . S
C1298 O1308 1.271 . S
C1298 O1309 1.251 . S
C1299 O1310 1.252 . S
C1299 O1311 1.272 . S
O1300 Sm1280 2.543 . S
O1300 C1282 1.261 . S
O1301 Sm1280 2.450 . S
O1301 C1282 1.242 . S
O1302 Sm1280 2.681 . S
O1302 Sm1281 2.386 . S
O1302 C1289 1.271 . S
O1303 Sm1280 2.464 . S
O1303 C1289 1.251 . S
O1304 Sm1280 2.396 . S
O1304 C1290 1.252 . S
O1305 Sm1281 2.408 . S
O1305 C1290 1.272 . S
O1306 Sm1281 2.543 . S
O1306 C1291 1.261 . S
O1307 Sm1281 2.450 . S
O1307 C1291 1.242 . S
O1308 Sm1280 2.386 . S
O1308 Sm1281 2.681 . S
O1308 C1298 1.271 . S
O1309 Sm1281 2.464 . S
O1309 C1298 1.251 . S
O1310 Sm1281 2.396 . S
O1310 C1299 1.252 . S
O1311 Sm1280 2.408 . S
O1311 C1299 1.272 . S
H1312 C1284 0.930 . S
H1313 C1285 0.929 . S
H1314 C1287 0.930 . S
H1315 C1288 0.929 . S
H1316 C1293 0.930 . S
H1317 C1294 0.929 . S
H1318 C1296 0.930 . S
H1319 C1297 0.929 . S
Sm1320 C1322 2.846 . S
Sm1320 O1340 2.543 . S
Sm1320 O1341 2.450 . S
Sm1320 O1342 2.681 . S
Sm1320 O1343 2.464 . S
Sm1320 O1344 2.396 . S
Sm1320 O1348 2.386 . S
Sm1320 O1351 2.408 . S
Sm1321 C1331 2.846 . S
Sm1321 O1342 2.386 . S
Sm1321 O1345 2.408 . S
Sm1321 O1346 2.543 . S
Sm1321 O1347 2.450 . S
Sm1321 O1348 2.681 . S
Sm1321 O1349 2.464 . S
Sm1321 O1350 2.396 . S
C1322 Sm1320 2.846 . S
C1322 C1323 1.506 . S
C1322 O1340 1.261 . S
C1322 O1341 1.242 . S
C1323 C1322 1.506 . S
C1323 C1324 1.358 . S
C1323 C1328 1.382 . S
C1324 C1323 1.358 . S
C1324 C1325 1.385 . S
C1324 H1352 0.930 . S
C1325 C1324 1.385 . S
C1325 C1326 1.395 . S
C1325 H1353 0.929 . S
C1326 C1325 1.395 . S
C1326 C1327 1.335 . S
C1327 C1326 1.335 . S
C1327 C1328 1.398 . S
C1327 H1354 0.930 . S
C1328 C1323 1.382 . S
C1328 C1327 1.398 . S
C1328 H1355 0.929 . S
C1329 O1342 1.271 . S
C1329 O1343 1.251 . S
C1330 O1344 1.252 . S
C1330 O1345 1.272 . S
C1331 Sm1321 2.846 . S
C1331 C1332 1.506 . S
C1331 O1346 1.261 . S
C1331 O1347 1.242 . S
C1332 C1331 1.506 . S
C1332 C1333 1.358 . S
C1332 C1337 1.382 . S
C1333 C1332 1.358 . S
C1333 C1334 1.385 . S
C1333 H1356 0.930 . S
C1334 C1333 1.385 . S
C1334 C1335 1.395 . S
C1334 H1357 0.929 . S
C1335 C1334 1.395 . S
C1335 C1336 1.335 . S
C1336 C1335 1.335 . S
C1336 C1337 1.398 . S
C1336 H1358 0.930 . S
C1337 C1332 1.382 . S
C1337 C1336 1.398 . S
C1337 H1359 0.929 . S
C1338 O1348 1.271 . S
C1338 O1349 1.251 . S
C1339 O1350 1.252 . S
C1339 O1351 1.272 . S
O1340 Sm1320 2.543 . S
O1340 C1322 1.261 . S
O1341 Sm1320 2.450 . S
O1341 C1322 1.242 . S
O1342 Sm1320 2.681 . S
O1342 Sm1321 2.386 . S
O1342 C1329 1.271 . S
O1343 Sm1320 2.464 . S
O1343 C1329 1.251 . S
O1344 Sm1320 2.396 . S
O1344 C1330 1.252 . S
O1345 Sm1321 2.408 . S
O1345 C1330 1.272 . S
O1346 Sm1321 2.543 . S
O1346 C1331 1.261 . S
O1347 Sm1321 2.450 . S
O1347 C1331 1.242 . S
O1348 Sm1320 2.386 . S
O1348 Sm1321 2.681 . S
O1348 C1338 1.271 . S
O1349 Sm1321 2.464 . S
O1349 C1338 1.251 . S
O1350 Sm1321 2.396 . S
O1350 C1339 1.252 . S
O1351 Sm1320 2.408 . S
O1351 C1339 1.272 . S
H1352 C1324 0.930 . S
H1353 C1325 0.929 . S
H1354 C1327 0.930 . S
H1355 C1328 0.929 . S
H1356 C1333 0.930 . S
H1357 C1334 0.929 . S
H1358 C1336 0.930 . S
H1359 C1337 0.929 . S
Sm1360 C1362 2.846 . S
Sm1360 O1380 2.543 . S
Sm1360 O1381 2.450 . S
Sm1360 O1382 2.681 . S
Sm1360 O1383 2.464 . S
Sm1360 O1384 2.396 . S
Sm1360 O1388 2.386 . S
Sm1360 O1391 2.408 . S
Sm1361 C1371 2.846 . S
Sm1361 O1382 2.386 . S
Sm1361 O1385 2.408 . S
Sm1361 O1386 2.543 . S
Sm1361 O1387 2.450 . S
Sm1361 O1388 2.681 . S
Sm1361 O1389 2.464 . S
Sm1361 O1390 2.396 . S
C1362 Sm1360 2.846 . S
C1362 C1363 1.506 . S
C1362 O1380 1.261 . S
C1362 O1381 1.242 . S
C1363 C1362 1.506 . S
C1363 C1364 1.358 . S
C1363 C1368 1.382 . S
C1364 C1363 1.358 . S
C1364 C1365 1.385 . S
C1364 H1392 0.930 . S
C1365 C1364 1.385 . S
C1365 C1366 1.395 . S
C1365 H1393 0.929 . S
C1366 C1365 1.395 . S
C1366 C1367 1.335 . S
C1367 C1366 1.335 . S
C1367 C1368 1.398 . S
C1367 H1394 0.930 . S
C1368 C1363 1.382 . S
C1368 C1367 1.398 . S
C1368 H1395 0.929 . S
C1369 O1382 1.271 . S
C1369 O1383 1.251 . S
C1370 O1384 1.252 . S
C1370 O1385 1.272 . S
C1371 Sm1361 2.846 . S
C1371 C1372 1.506 . S
C1371 O1386 1.261 . S
C1371 O1387 1.242 . S
C1372 C1371 1.506 . S
C1372 C1373 1.358 . S
C1372 C1377 1.382 . S
C1373 C1372 1.358 . S
C1373 C1374 1.385 . S
C1373 H1396 0.930 . S
C1374 C1373 1.385 . S
C1374 C1375 1.395 . S
C1374 H1397 0.929 . S
C1375 C1374 1.395 . S
C1375 C1376 1.335 . S
C1376 C1375 1.335 . S
C1376 C1377 1.398 . S
C1376 H1398 0.930 . S
C1377 C1372 1.382 . S
C1377 C1376 1.398 . S
C1377 H1399 0.929 . S
C1378 O1388 1.271 . S
C1378 O1389 1.251 . S
C1379 O1390 1.252 . S
C1379 O1391 1.272 . S
O1380 Sm1360 2.543 . S
O1380 C1362 1.261 . S
O1381 Sm1360 2.450 . S
O1381 C1362 1.242 . S
O1382 Sm1360 2.681 . S
O1382 Sm1361 2.386 . S
O1382 C1369 1.271 . S
O1383 Sm1360 2.464 . S
O1383 C1369 1.251 . S
O1384 Sm1360 2.396 . S
O1384 C1370 1.252 . S
O1385 Sm1361 2.408 . S
O1385 C1370 1.272 . S
O1386 Sm1361 2.543 . S
O1386 C1371 1.261 . S
O1387 Sm1361 2.450 . S
O1387 C1371 1.242 . S
O1388 Sm1360 2.386 . S
O1388 Sm1361 2.681 . S
O1388 C1378 1.271 . S
O1389 Sm1361 2.464 . S
O1389 C1378 1.251 . S
O1390 Sm1361 2.396 . S
O1390 C1379 1.252 . S
O1391 Sm1360 2.408 . S
O1391 C1379 1.272 . S
H1392 C1364 0.930 . S
H1393 C1365 0.929 . S
H1394 C1367 0.930 . S
H1395 C1368 0.929 . S
H1396 C1373 0.930 . S
H1397 C1374 0.929 . S
H1398 C1376 0.930 . S
H1399 C1377 0.929 . S
Sm1400 C1402 2.846 . S
Sm1400 O1420 2.543 . S
Sm1400 O1421 2.450 . S
Sm1400 O1422 2.681 . S
Sm1400 O1423 2.464 . S
Sm1400 O1424 2.396 . S
Sm1400 O1428 2.386 . S
Sm1400 O1431 2.408 . S
Sm1401 C1411 2.846 . S
Sm1401 O1422 2.386 . S
Sm1401 O1425 2.408 . S
Sm1401 O1426 2.543 . S
Sm1401 O1427 2.450 . S
Sm1401 O1428 2.681 . S
Sm1401 O1429 2.464 . S
Sm1401 O1430 2.396 . S
C1402 Sm1400 2.846 . S
C1402 C1403 1.506 . S
C1402 O1420 1.261 . S
C1402 O1421 1.242 . S
C1403 C1402 1.506 . S
C1403 C1404 1.358 . S
C1403 C1408 1.382 . S
C1404 C1403 1.358 . S
C1404 C1405 1.385 . S
C1404 H1432 0.930 . S
C1405 C1404 1.385 . S
C1405 C1406 1.395 . S
C1405 H1433 0.929 . S
C1406 C1405 1.395 . S
C1406 C1407 1.335 . S
C1407 C1406 1.335 . S
C1407 C1408 1.398 . S
C1407 H1434 0.930 . S
C1408 C1403 1.382 . S
C1408 C1407 1.398 . S
C1408 H1435 0.929 . S
C1409 O1422 1.271 . S
C1409 O1423 1.251 . S
C1410 O1424 1.252 . S
C1410 O1425 1.272 . S
C1411 Sm1401 2.846 . S
C1411 C1412 1.506 . S
C1411 O1426 1.261 . S
C1411 O1427 1.242 . S
C1412 C1411 1.506 . S
C1412 C1413 1.358 . S
C1412 C1417 1.382 . S
C1413 C1412 1.358 . S
C1413 C1414 1.385 . S
C1413 H1436 0.930 . S
C1414 C1413 1.385 . S
C1414 C1415 1.395 . S
C1414 H1437 0.929 . S
C1415 C1414 1.395 . S
C1415 C1416 1.335 . S
C1416 C1415 1.335 . S
C1416 C1417 1.398 . S
C1416 H1438 0.930 . S
C1417 C1412 1.382 . S
C1417 C1416 1.398 . S
C1417 H1439 0.929 . S
C1418 O1428 1.271 . S
C1418 O1429 1.251 . S
C1419 O1430 1.252 . S
C1419 O1431 1.272 . S
O1420 Sm1400 2.543 . S
O1420 C1402 1.261 . S
O1421 Sm1400 2.450 . S
O1421 C1402 1.242 . S
O1422 Sm1400 2.681 . S
O1422 Sm1401 2.386 . S
O1422 C1409 1.271 . S
O1423 Sm1400 2.464 . S
O1423 C1409 1.251 . S
O1424 Sm1400 2.396 . S
O1424 C1410 1.252 . S
O1425 Sm1401 2.408 . S
O1425 C1410 1.272 . S
O1426 Sm1401 2.543 . S
O1426 C1411 1.261 . S
O1427 Sm1401 2.450 . S
O1427 C1411 1.242 . S
O1428 Sm1400 2.386 . S
O1428 Sm1401 2.681 . S
O1428 C1418 1.271 . S
O1429 Sm1401 2.464 . S
O1429 C1418 1.251 . S
O1430 Sm1401 2.396 . S
O1430 C1419 1.252 . S
O1431 Sm1400 2.408 . S
O1431 C1419 1.272 . S
H1432 C1404 0.930 . S
H1433 C1405 0.929 . S
H1434 C1407 0.930 . S
H1435 C1408 0.929 . S
H1436 C1413 0.930 . S
H1437 C1414 0.929 . S
H1438 C1416 0.930 . S
H1439 C1417 0.929 . S
C1440 C1441 1.363 . S
C1440 C1446 1.379 . S
C1440 N1448 1.356 . S
C1441 C1440 1.363 . S
C1441 C1447 1.363 . S
C1442 C1443 1.363 . S
C1442 C1447 1.379 1_554 S
C1442 N1449 1.356 . S
C1443 C1442 1.363 . S
C1443 C1446 1.363 1_554 S
N1444 C1446 1.356 1_554 S
N1444 H1456 0.984 . S
N1444 H1457 0.985 . S
N1445 C1447 1.356 . S
N1445 H1450 0.984 . S
N1445 H1451 0.985 . S
C1446 C1440 1.379 . S
C1446 C1443 1.363 1_556 S
C1446 N1444 1.356 1_556 S
C1447 C1441 1.363 . S
C1447 C1442 1.379 1_556 S
C1447 N1445 1.356 . S
N1448 C1440 1.356 . S
N1448 H1454 0.984 . S
N1448 H1455 0.984 . S
N1449 C1442 1.356 . S
N1449 H1452 0.984 . S
N1449 H1453 0.985 . S
H1450 N1445 0.984 . S
H1451 N1445 0.985 . S
H1452 N1449 0.984 . S
H1453 N1449 0.985 . S
H1454 N1448 0.984 . S
H1455 N1448 0.984 . S
H1456 N1444 0.984 . S
H1457 N1444 0.985 . S
C1458 C1459 1.363 . S
C1458 C1464 1.379 1_556 S
C1458 N1466 1.356 . S
C1459 C1458 1.363 . S
C1459 C1465 1.363 . S
C1460 C1461 1.363 1_556 S
C1460 C1465 1.379 . S
C1460 N1467 1.356 1_556 S
C1461 C1460 1.363 1_554 S
C1461 C1464 1.363 . S
N1462 C1464 1.356 . S
N1462 H1474 0.984 . S
N1462 H1475 0.985 . S
N1463 C1465 1.356 . S
N1463 H1468 0.984 . S
N1463 H1469 0.985 . S
C1464 C1458 1.379 1_554 S
C1464 C1461 1.363 . S
C1464 N1462 1.356 . S
C1465 C1459 1.363 . S
C1465 C1460 1.379 . S
C1465 N1463 1.356 . S
N1466 C1458 1.356 . S
N1466 H1472 0.984 . S
N1466 H1473 0.984 . S
N1467 C1460 1.356 1_554 S
N1467 H1470 0.984 . S
N1467 H1471 0.985 . S
H1468 N1463 0.984 . S
H1469 N1463 0.985 . S
H1470 N1467 0.984 . S
H1471 N1467 0.985 . S
H1472 N1466 0.984 . S
H1473 N1466 0.984 . S
H1474 N1462 0.984 . S
H1475 N1462 0.985 . S
C1476 C1477 1.370 . S
C1476 C1482 1.367 1_554 S
C1476 N1484 1.365 . S
C1477 C1476 1.370 . S
C1477 C1483 1.363 . S
C1478 C1479 1.363 . S
C1478 C1483 1.379 1_556 S
C1478 N1485 1.356 . S
C1479 C1478 1.363 . S
C1479 C1482 1.363 . S
N1480 C1482 1.356 . S
N1480 H1492 0.984 . S
N1480 H1493 0.985 . S
N1481 C1483 1.356 . S
N1481 H1486 0.984 . S
N1481 H1487 0.985 . S
C1482 C1476 1.367 1_556 S
C1482 C1479 1.363 . S
C1482 N1480 1.356 . S
C1483 C1477 1.363 . S
C1483 C1478 1.379 1_554 S
C1483 N1481 1.356 . S
N1484 C1476 1.365 . S
N1484 H1490 0.984 . S
N1484 H1491 0.984 . S
N1485 C1478 1.356 . S
N1485 H1488 0.984 . S
N1485 H1489 0.985 . S
H1486 N1481 0.984 . S
H1487 N1481 0.985 . S
H1488 N1485 0.984 . S
H1489 N1485 0.985 . S
H1490 N1484 0.984 . S
H1491 N1484 0.984 . S
H1492 N1480 0.984 . S
H1493 N1480 0.985 . S
C1494 C1495 1.363 . S
C1494 C1500 1.379 . S
C1494 N1502 1.356 . S
C1495 C1494 1.363 . S
C1495 C1501 1.363 . S
C1496 C1497 1.363 . S
C1496 C1501 1.379 . S
C1496 N1503 1.356 . S
C1497 C1496 1.363 . S
C1497 C1500 1.363 . S
N1498 C1500 1.356 . S
N1498 H1510 0.984 . S
N1498 H1511 0.985 . S
N1499 C1501 1.356 . S
N1499 H1504 0.984 . S
N1499 H1505 0.985 . S
C1500 C1494 1.379 . S
C1500 C1497 1.363 . S
C1500 N1498 1.356 . S
C1501 C1495 1.363 . S
C1501 C1496 1.379 . S
C1501 N1499 1.356 . S
N1502 C1494 1.356 . S
N1502 H1508 0.984 . S
N1502 H1509 0.984 . S
N1503 C1496 1.356 . S
N1503 H1506 0.984 . S
N1503 H1507 0.985 . S
H1504 N1499 0.984 . S
H1505 N1499 0.985 . S
H1506 N1503 0.984 . S
H1507 N1503 0.985 . S
H1508 N1502 0.984 . S
H1509 N1502 0.984 . S
H1510 N1498 0.984 . S
H1511 N1498 0.985 . S
C1512 C1513 1.363 . S
C1512 C1518 1.379 . S
C1512 N1520 1.356 . S
C1513 C1512 1.363 . S
C1513 C1519 1.363 . S
C1514 C1515 1.363 . S
C1514 C1519 1.379 . S
C1514 N1521 1.356 . S
C1515 C1514 1.363 . S
C1515 C1518 1.363 . S
N1516 C1518 1.356 . S
N1516 H1528 0.984 . S
N1516 H1529 0.985 . S
N1517 C1519 1.356 . S
N1517 H1522 0.984 . S
N1517 H1523 0.985 . S
C1518 C1512 1.379 . S
C1518 C1515 1.363 . S
C1518 N1516 1.356 . S
C1519 C1513 1.363 . S
C1519 C1514 1.379 . S
C1519 N1517 1.356 . S
N1520 C1512 1.356 . S
N1520 H1526 0.984 . S
N1520 H1527 0.984 . S
N1521 C1514 1.356 . S
N1521 H1524 0.984 . S
N1521 H1525 0.985 . S
H1522 N1517 0.984 . S
H1523 N1517 0.985 . S
H1524 N1521 0.984 . S
H1525 N1521 0.985 . S
H1526 N1520 0.984 . S
H1527 N1520 0.984 . S
H1528 N1516 0.984 . S
H1529 N1516 0.985 . S
C1530 C1531 1.363 . S
C1530 C1536 1.379 . S
C1530 N1538 1.356 . S
C1531 C1530 1.363 . S
C1531 C1537 1.363 . S
C1532 C1533 1.363 . S
C1532 C1537 1.379 . S
C1532 N1539 1.356 . S
C1533 C1532 1.363 . S
C1533 C1536 1.363 . S
N1534 C1536 1.356 . S
N1534 H1546 0.984 . S
N1534 H1547 0.985 . S
N1535 C1537 1.356 . S
N1535 H1540 0.984 . S
N1535 H1541 0.985 . S
C1536 C1530 1.379 . S
C1536 C1533 1.363 . S
C1536 N1534 1.356 . S
C1537 C1531 1.363 . S
C1537 C1532 1.379 . S
C1537 N1535 1.356 . S
N1538 C1530 1.356 . S
N1538 H1544 0.984 . S
N1538 H1545 0.984 . S
N1539 C1532 1.356 . S
N1539 H1542 0.984 . S
N1539 H1543 0.985 . S
H1540 N1535 0.984 . S
H1541 N1535 0.985 . S
H1542 N1539 0.984 . S
H1543 N1539 0.985 . S
H1544 N1538 0.984 . S
H1545 N1538 0.984 . S
H1546 N1534 0.984 . S
H1547 N1534 0.985 . S
C1548 C1549 1.363 . S
C1548 C1554 1.379 . S
C1548 N1556 1.356 . S
C1549 C1548 1.363 . S
C1549 C1555 1.363 . S
C1550 C1551 1.363 . S
C1550 C1555 1.379 . S
C1550 N1557 1.356 . S
C1551 C1550 1.363 . S
C1551 C1554 1.363 . S
N1552 C1554 1.356 . S
N1552 H1564 0.984 . S
N1552 H1565 0.985 . S
N1553 C1555 1.356 . S
N1553 H1558 0.984 . S
N1553 H1559 0.985 . S
C1554 C1548 1.379 . S
C1554 C1551 1.363 . S
C1554 N1552 1.356 . S
C1555 C1549 1.363 . S
C1555 C1550 1.379 . S
C1555 N1553 1.356 . S
N1556 C1548 1.356 . S
N1556 H1562 0.984 . S
N1556 H1563 0.984 . S
N1557 C1550 1.356 . S
N1557 H1560 0.984 . S
N1557 H1561 0.985 . S
H1558 N1553 0.984 . S
H1559 N1553 0.985 . S
H1560 N1557 0.984 . S
H1561 N1557 0.985 . S
H1562 N1556 0.984 . S
H1563 N1556 0.984 . S
H1564 N1552 0.984 . S
H1565 N1552 0.985 . S
C1566 C1567 1.363 . S
C1566 C1572 1.379 . S
C1566 N1574 1.356 . S
C1567 C1566 1.363 . S
C1567 C1573 1.363 . S
C1568 C1569 1.363 . S
C1568 C1573 1.379 . S
C1568 N1575 1.356 . S
C1569 C1568 1.363 . S
C1569 C1572 1.363 . S
N1570 C1572 1.356 . S
N1570 H1582 0.984 . S
N1570 H1583 0.985 . S
N1571 C1573 1.356 . S
N1571 H1576 0.984 . S
N1571 H1577 0.985 . S
C1572 C1566 1.379 . S
C1572 C1569 1.363 . S
C1572 N1570 1.356 . S
C1573 C1567 1.363 . S
C1573 C1568 1.379 . S
C1573 N1571 1.356 . S
N1574 C1566 1.356 . S
N1574 H1580 0.984 . S
N1574 H1581 0.984 . S
N1575 C1568 1.356 . S
N1575 H1578 0.984 . S
N1575 H1579 0.985 . S
H1576 N1571 0.984 . S
H1577 N1571 0.985 . S
H1578 N1575 0.984 . S
H1579 N1575 0.985 . S
H1580 N1574 0.984 . S
H1581 N1574 0.984 . S
H1582 N1570 0.984 . S
H1583 N1570 0.985 . S
C1584 C1585 1.363 . S
C1584 C1590 1.379 . S
C1584 N1592 1.356 . S
C1585 C1584 1.363 . S
C1585 C1591 1.363 . S
C1586 C1587 1.363 . S
C1586 C1591 1.379 . S
C1586 N1593 1.356 . S
C1587 C1586 1.363 . S
C1587 C1590 1.363 . S
N1588 C1590 1.356 . S
N1588 H1600 0.984 . S
N1588 H1601 0.985 . S
N1589 C1591 1.356 . S
N1589 H1594 0.984 . S
N1589 H1595 0.985 . S
C1590 C1584 1.379 . S
C1590 C1587 1.363 . S
C1590 N1588 1.356 . S
C1591 C1585 1.363 . S
C1591 C1586 1.379 . S
C1591 N1589 1.356 . S
N1592 C1584 1.356 . S
N1592 H1598 0.984 . S
N1592 H1599 0.984 . S
N1593 C1586 1.356 . S
N1593 H1596 0.984 . S
N1593 H1597 0.985 . S
H1594 N1589 0.984 . S
H1595 N1589 0.985 . S
H1596 N1593 0.984 . S
H1597 N1593 0.985 . S
H1598 N1592 0.984 . S
H1599 N1592 0.984 . S
H1600 N1588 0.984 . S
H1601 N1588 0.985 . S
C1602 C1603 1.363 . S
C1602 C1608 1.379 . S
C1602 N1610 1.356 . S
C1603 C1602 1.363 . S
C1603 C1609 1.363 . S
C1604 C1605 1.363 . S
C1604 C1609 1.379 . S
C1604 N1611 1.356 . S
C1605 C1604 1.363 . S
C1605 C1608 1.363 . S
N1606 C1608 1.356 . S
N1606 H1618 0.984 . S
N1606 H1619 0.985 . S
N1607 C1609 1.356 . S
N1607 H1612 0.984 . S
N1607 H1613 0.985 . S
C1608 C1602 1.379 . S
C1608 C1605 1.363 . S
C1608 N1606 1.356 . S
C1609 C1603 1.363 . S
C1609 C1604 1.379 . S
C1609 N1607 1.356 . S
N1610 C1602 1.356 . S
N1610 H1616 0.984 . S
N1610 H1617 0.984 . S
N1611 C1604 1.356 . S
N1611 H1614 0.984 . S
N1611 H1615 0.985 . S
H1612 N1607 0.984 . S
H1613 N1607 0.985 . S
H1614 N1611 0.984 . S
H1615 N1611 0.985 . S
H1616 N1610 0.984 . S
H1617 N1610 0.984 . S
H1618 N1606 0.984 . S
H1619 N1606 0.985 . S
C1620 C1621 1.363 . S
C1620 C1626 1.379 . S
C1620 N1628 1.356 . S
C1621 C1620 1.363 . S
C1621 C1627 1.363 . S
C1622 C1623 1.363 . S
C1622 C1627 1.379 . S
C1622 N1629 1.356 . S
C1623 C1622 1.363 . S
C1623 C1626 1.363 . S
N1624 C1626 1.356 . S
N1624 H1636 0.984 . S
N1624 H1637 0.985 . S
N1625 C1627 1.356 . S
N1625 H1630 0.984 . S
N1625 H1631 0.985 . S
C1626 C1620 1.379 . S
C1626 C1623 1.363 . S
C1626 N1624 1.356 . S
C1627 C1621 1.363 . S
C1627 C1622 1.379 . S
C1627 N1625 1.356 . S
N1628 C1620 1.356 . S
N1628 H1634 0.984 . S
N1628 H1635 0.984 . S
N1629 C1622 1.356 . S
N1629 H1632 0.984 . S
N1629 H1633 0.985 . S
H1630 N1625 0.984 . S
H1631 N1625 0.985 . S
H1632 N1629 0.984 . S
H1633 N1629 0.985 . S
H1634 N1628 0.984 . S
H1635 N1628 0.984 . S
H1636 N1624 0.984 . S
H1637 N1624 0.985 . S
C1638 C1639 1.363 . S
C1638 C1644 1.379 . S
C1638 N1646 1.356 . S
C1639 C1638 1.363 . S
C1639 C1645 1.363 . S
C1640 C1641 1.363 . S
C1640 C1645 1.379 . S
C1640 N1647 1.356 . S
C1641 C1640 1.363 . S
C1641 C1644 1.363 . S
N1642 C1644 1.356 . S
N1642 H1654 0.984 . S
N1642 H1655 0.985 . S
N1643 C1645 1.356 . S
N1643 H1648 0.984 . S
N1643 H1649 0.985 . S
C1644 C1638 1.379 . S
C1644 C1641 1.363 . S
C1644 N1642 1.356 . S
C1645 C1639 1.363 . S
C1645 C1640 1.379 . S
C1645 N1643 1.356 . S
N1646 C1638 1.356 . S
N1646 H1652 0.984 . S
N1646 H1653 0.984 . S
N1647 C1640 1.356 . S
N1647 H1650 0.984 . S
N1647 H1651 0.985 . S
H1648 N1643 0.984 . S
H1649 N1643 0.985 . S
H1650 N1647 0.984 . S
H1651 N1647 0.985 . S
H1652 N1646 0.984 . S
H1653 N1646 0.984 . S
H1654 N1642 0.984 . S
H1655 N1642 0.985 . S
C1656 C1657 1.363 . S
C1656 C1662 1.379 . S
C1656 N1664 1.356 . S
C1657 C1656 1.363 . S
C1657 C1663 1.363 . S
C1658 C1659 1.363 . S
C1658 C1663 1.379 . S
C1658 N1665 1.356 . S
C1659 C1658 1.363 . S
C1659 C1662 1.363 . S
N1660 C1662 1.356 . S
N1660 H1672 0.984 . S
N1660 H1673 0.985 . S
N1661 C1663 1.356 . S
N1661 H1666 0.984 . S
N1661 H1667 0.985 . S
C1662 C1656 1.379 . S
C1662 C1659 1.363 . S
C1662 N1660 1.356 . S
C1663 C1657 1.363 . S
C1663 C1658 1.379 . S
C1663 N1661 1.356 . S
N1664 C1656 1.356 . S
N1664 H1670 0.984 . S
N1664 H1671 0.984 . S
N1665 C1658 1.356 . S
N1665 H1668 0.984 . S
N1665 H1669 0.985 . S
H1666 N1661 0.984 . S
H1667 N1661 0.985 . S
H1668 N1665 0.984 . S
H1669 N1665 0.985 . S
H1670 N1664 0.984 . S
H1671 N1664 0.984 . S
H1672 N1660 0.984 . S
H1673 N1660 0.985 . S
C1674 C1675 1.363 1_545 S
C1674 C1680 1.379 . S
C1674 N1682 1.356 . S
C1675 C1674 1.363 1_565 S
C1675 C1681 1.363 . S
C1676 C1677 1.363 1_565 S
C1676 C1681 1.379 . S
C1676 N1683 1.356 . S
C1677 C1676 1.363 1_545 S
C1677 C1680 1.363 . S
N1678 C1680 1.356 . S
N1678 H1690 0.984 . S
N1678 H1691 0.985 . S
N1679 C1681 1.356 . S
N1679 H1684 0.984 . S
N1679 H1685 0.985 . S
C1680 C1674 1.379 . S
C1680 C1677 1.363 . S
C1680 N1678 1.356 . S
C1681 C1675 1.363 . S
C1681 C1676 1.379 . S
C1681 N1679 1.356 . S
N1682 C1674 1.356 . S
N1682 H1688 0.984 . S
N1682 H1689 0.984 . S
N1683 C1676 1.356 . S
N1683 H1686 0.984 . S
N1683 H1687 0.985 . S
H1684 N1679 0.984 . S
H1685 N1679 0.985 . S
H1686 N1683 0.984 . S
H1687 N1683 0.985 . S
H1688 N1682 0.984 . S
H1689 N1682 0.984 . S
H1690 N1678 0.984 . S
H1691 N1678 0.985 . S
C1692 C1693 1.363 . S
C1692 C1698 1.379 . S
C1692 N1700 1.356 . S
C1693 C1692 1.363 . S
C1693 C1699 1.363 1_655 S
C1694 C1695 1.363 . S
C1694 C1699 1.379 . S
C1694 N1701 1.356 . S
C1695 C1694 1.363 . S
C1695 C1698 1.363 1_455 S
N1696 C1698 1.356 . S
N1696 H1708 0.984 . S
N1696 H1709 0.985 . S
N1697 C1699 1.356 . S
N1697 H1702 0.984 . S
N1697 H1703 0.985 . S
C1698 C1692 1.379 . S
C1698 C1695 1.363 1_655 S
C1698 N1696 1.356 . S
C1699 C1693 1.363 1_455 S
C1699 C1694 1.379 . S
C1699 N1697 1.356 . S
N1700 C1692 1.356 . S
N1700 H1706 0.984 . S
N1700 H1707 0.984 . S
N1701 C1694 1.356 . S
N1701 H1704 0.984 . S
N1701 H1705 0.985 . S
H1702 N1697 0.984 . S
H1703 N1697 0.985 . S
H1704 N1701 0.984 . S
H1705 N1701 0.985 . S
H1706 N1700 0.984 . S
H1707 N1700 0.984 . S
H1708 N1696 0.984 . S
H1709 N1696 0.985 . S
C1710 C1711 1.363 . S
C1710 C1716 1.379 . S
C1710 N1718 1.356 . S
C1711 C1710 1.363 . S
C1711 C1717 1.363 . S
C1712 C1713 1.363 . S
C1712 C1717 1.379 . S
C1712 N1719 1.356 . S
C1713 C1712 1.363 . S
C1713 C1716 1.363 . S
N1714 C1716 1.356 . S
N1714 H1726 0.984 . S
N1714 H1727 0.985 . S
N1715 C1717 1.356 . S
N1715 H1720 0.984 . S
N1715 H1721 0.985 . S
C1716 C1710 1.379 . S
C1716 C1713 1.363 . S
C1716 N1714 1.356 . S
C1717 C1711 1.363 . S
C1717 C1712 1.379 . S
C1717 N1715 1.356 . S
N1718 C1710 1.356 . S
N1718 H1724 0.984 . S
N1718 H1725 0.984 . S
N1719 C1712 1.356 . S
N1719 H1722 0.984 . S
N1719 H1723 0.985 . S
H1720 N1715 0.984 . S
H1721 N1715 0.985 . S
H1722 N1719 0.984 . S
H1723 N1719 0.985 . S
H1724 N1718 0.984 . S
H1725 N1718 0.984 . S
H1726 N1714 0.984 . S
H1727 N1714 0.985 . S
C1728 C1729 1.363 1_565 S
C1728 C1734 1.379 . S
C1728 N1736 1.356 . S
C1729 C1728 1.363 1_545 S
C1729 C1735 1.363 . S
C1730 C1731 1.363 1_545 S
C1730 C1735 1.379 . S
C1730 N1737 1.356 . S
C1731 C1730 1.363 1_565 S
C1731 C1734 1.363 . S
N1732 C1734 1.356 . S
N1732 H1744 0.984 . S
N1732 H1745 0.985 . S
N1733 C1735 1.356 . S
N1733 H1738 0.984 . S
N1733 H1739 0.985 . S
C1734 C1728 1.379 . S
C1734 C1731 1.363 . S
C1734 N1732 1.356 . S
C1735 C1729 1.363 . S
C1735 C1730 1.379 . S
C1735 N1733 1.356 . S
N1736 C1728 1.356 . S
N1736 H1742 0.984 . S
N1736 H1743 0.984 . S
N1737 C1730 1.356 . S
N1737 H1740 0.984 . S
N1737 H1741 0.985 . S
H1738 N1733 0.984 . S
H1739 N1733 0.985 . S
H1740 N1737 0.984 . S
H1741 N1737 0.985 . S
H1742 N1736 0.984 . S
H1743 N1736 0.984 . S
H1744 N1732 0.984 . S
H1745 N1732 0.985 . S
C1746 C1747 1.363 . S
C1746 C1752 1.370 1_455 S
C1746 N1754 1.356 . S
C1747 C1746 1.363 . S
C1747 C1753 1.392 . S
C1748 C1749 1.363 . S
C1748 C1753 1.371 1_655 S
C1748 N1755 1.356 . S
C1749 C1748 1.363 . S
C1749 C1752 1.394 . S
N1750 C1752 1.344 . S
N1750 H1762 0.984 . S
N1750 H1763 0.985 . S
N1751 C1753 1.345 . S
N1751 H1756 0.984 . S
N1751 H1757 0.985 . S
C1752 C1746 1.370 1_655 S
C1752 C1749 1.394 . S
C1752 N1750 1.344 . S
C1753 C1747 1.392 . S
C1753 C1748 1.371 1_455 S
C1753 N1751 1.345 . S
N1754 C1746 1.356 . S
N1754 H1760 0.984 . S
N1754 H1761 0.984 . S
N1755 C1748 1.356 . S
N1755 H1758 0.984 . S
N1755 H1759 0.985 . S
H1756 N1751 0.984 . S
H1757 N1751 0.985 . S
H1758 N1755 0.984 . S
H1759 N1755 0.985 . S
H1760 N1754 0.984 . S
H1761 N1754 0.984 . S
H1762 N1750 0.984 . S
H1763 N1750 0.985 . S
C1764 C1765 1.363 1_655 S
C1764 C1770 1.379 . S
C1764 N1772 1.356 1_655 S
C1765 C1764 1.363 1_455 S
C1765 C1771 1.363 . S
C1766 C1767 1.363 1_455 S
C1766 C1771 1.379 . S
C1766 N1773 1.356 1_455 S
C1767 C1766 1.363 1_655 S
C1767 C1770 1.363 . S
N1768 C1770 1.356 . S
N1768 H1780 0.984 . S
N1768 H1781 0.985 . S
N1769 C1771 1.356 . S
N1769 H1774 0.984 . S
N1769 H1775 0.985 . S
C1770 C1764 1.379 . S
C1770 C1767 1.363 . S
C1770 N1768 1.356 . S
C1771 C1765 1.363 . S
C1771 C1766 1.379 . S
C1771 N1769 1.356 . S
N1772 C1764 1.356 1_455 S
N1772 H1778 0.984 1_455 S
N1772 H1779 0.984 . S
N1773 C1766 1.356 1_655 S
N1773 H1776 0.984 . S
N1773 H1777 0.985 1_655 S
H1774 N1769 0.984 . S
H1775 N1769 0.985 . S
H1776 N1773 0.984 . S
H1777 N1773 0.985 1_455 S
H1778 N1772 0.984 1_655 S
H1779 N1772 0.984 . S
H1780 N1768 0.984 . S
H1781 N1768 0.985 . S
C1782 C1783 1.363 . S
C1782 C1788 1.379 . S
C1782 N1790 1.356 . S
C1783 C1782 1.363 . S
C1783 C1789 1.363 . S
C1784 C1785 1.363 . S
C1784 C1789 1.379 . S
C1784 N1791 1.356 . S
C1785 C1784 1.363 . S
C1785 C1788 1.363 . S
N1786 C1788 1.356 . S
N1786 H1798 0.984 . S
N1786 H1799 0.985 . S
N1787 C1789 1.356 . S
N1787 H1792 0.984 . S
N1787 H1793 0.985 . S
C1788 C1782 1.379 . S
C1788 C1785 1.363 . S
C1788 N1786 1.356 . S
C1789 C1783 1.363 . S
C1789 C1784 1.379 . S
C1789 N1787 1.356 . S
N1790 C1782 1.356 . S
N1790 H1796 0.984 . S
N1790 H1797 0.984 . S
N1791 C1784 1.356 . S
N1791 H1794 0.984 . S
N1791 H1795 0.985 . S
H1792 N1787 0.984 . S
H1793 N1787 0.985 . S
H1794 N1791 0.984 . S
H1795 N1791 0.985 . S
H1796 N1790 0.984 . S
H1797 N1790 0.984 . S
H1798 N1786 0.984 . S
H1799 N1786 0.985 . S
C1800 C1801 1.363 1_545 S
C1800 C1806 1.379 . S
C1800 N1808 1.356 . S
C1801 C1800 1.363 1_565 S
C1801 C1807 1.363 . S
C1802 C1803 1.363 1_565 S
C1802 C1807 1.379 . S
C1802 N1809 1.356 . S
C1803 C1802 1.363 1_545 S
C1803 C1806 1.363 . S
N1804 C1806 1.356 . S
N1804 H1816 0.984 . S
N1804 H1817 0.985 . S
N1805 C1807 1.356 . S
N1805 H1810 0.984 . S
N1805 H1811 0.985 . S
C1806 C1800 1.379 . S
C1806 C1803 1.363 . S
C1806 N1804 1.356 . S
C1807 C1801 1.363 . S
C1807 C1802 1.379 . S
C1807 N1805 1.356 . S
N1808 C1800 1.356 . S
N1808 H1814 0.984 . S
N1808 H1815 0.984 1_545 S
N1809 C1802 1.356 . S
N1809 H1812 0.984 1_565 S
N1809 H1813 0.985 . S
H1810 N1805 0.984 . S
H1811 N1805 0.985 . S
H1812 N1809 0.984 1_545 S
H1813 N1809 0.985 . S
H1814 N1808 0.984 . S
H1815 N1808 0.984 1_565 S
H1816 N1804 0.984 . S
H1817 N1804 0.985 . S
C1818 C1819 1.363 1_455 S
C1818 C1824 1.379 . S
C1818 N1826 1.356 . S
C1819 C1818 1.363 1_655 S
C1819 C1825 1.363 . S
C1820 C1821 1.363 1_655 S
C1820 C1825 1.379 . S
C1820 N1827 1.356 . S
C1821 C1820 1.363 1_455 S
C1821 C1824 1.363 . S
N1822 C1824 1.356 . S
N1822 H1834 0.984 . S
N1822 H1835 0.985 . S
N1823 C1825 1.356 . S
N1823 H1828 0.984 . S
N1823 H1829 0.985 . S
C1824 C1818 1.379 . S
C1824 C1821 1.363 . S
C1824 N1822 1.356 . S
C1825 C1819 1.363 . S
C1825 C1820 1.379 . S
C1825 N1823 1.356 . S
N1826 C1818 1.356 . S
N1826 H1832 0.984 . S
N1826 H1833 0.984 1_455 S
N1827 C1820 1.356 . S
N1827 H1830 0.984 1_655 S
N1827 H1831 0.985 . S
H1828 N1823 0.984 . S
H1829 N1823 0.985 . S
H1830 N1827 0.984 1_455 S
H1831 N1827 0.985 . S
H1832 N1826 0.984 . S
H1833 N1826 0.984 1_655 S
H1834 N1822 0.984 . S
H1835 N1822 0.985 . S
C1836 C1837 1.363 . S
C1836 C1842 1.379 . S
C1836 N1844 1.356 . S
C1837 C1836 1.363 . S
C1837 C1843 1.363 . S
C1838 C1839 1.363 . S
C1838 C1843 1.379 . S
C1838 N1845 1.356 . S
C1839 C1838 1.363 . S
C1839 C1842 1.363 . S
N1840 C1842 1.356 . S
N1840 H1852 0.984 . S
N1840 H1853 0.985 . S
N1841 C1843 1.356 . S
N1841 H1846 0.984 . S
N1841 H1847 0.985 . S
C1842 C1836 1.379 . S
C1842 C1839 1.363 . S
C1842 N1840 1.356 . S
C1843 C1837 1.363 . S
C1843 C1838 1.379 . S
C1843 N1841 1.356 . S
N1844 C1836 1.356 . S
N1844 H1850 0.984 . S
N1844 H1851 0.984 . S
N1845 C1838 1.356 . S
N1845 H1848 0.984 . S
N1845 H1849 0.985 . S
H1846 N1841 0.984 . S
H1847 N1841 0.985 . S
H1848 N1845 0.984 . S
H1849 N1845 0.985 . S
H1850 N1844 0.984 . S
H1851 N1844 0.984 . S
H1852 N1840 0.984 . S
H1853 N1840 0.985 . S
C1854 C1855 1.363 . S
C1854 C1860 1.379 . S
C1854 N1862 1.356 . S
C1855 C1854 1.363 . S
C1855 C1861 1.363 1_545 S
C1856 C1857 1.363 . S
C1856 C1861 1.379 . S
C1856 N1863 1.356 . S
C1857 C1856 1.363 . S
C1857 C1860 1.363 1_565 S
N1858 C1860 1.356 . S
N1858 H1870 0.984 . S
N1858 H1871 0.985 1_545 S
N1859 C1861 1.356 . S
N1859 H1864 0.984 1_565 S
N1859 H1865 0.985 . S
C1860 C1854 1.379 . S
C1860 C1857 1.363 1_545 S
C1860 N1858 1.356 . S
C1861 C1855 1.363 1_565 S
C1861 C1856 1.379 . S
C1861 N1859 1.356 . S
N1862 C1854 1.356 . S
N1862 H1868 0.984 . S
N1862 H1869 0.984 . S
N1863 C1856 1.356 . S
N1863 H1866 0.984 . S
N1863 H1867 0.985 . S
H1864 N1859 0.984 1_545 S
H1865 N1859 0.985 . S
H1866 N1863 0.984 . S
H1867 N1863 0.985 . S
H1868 N1862 0.984 . S
H1869 N1862 0.984 . S
H1870 N1858 0.984 . S
H1871 N1858 0.985 1_565 S
C1872 C1873 1.363 . S
C1872 C1878 1.379 . S
C1872 N1880 1.356 . S
C1873 C1872 1.363 . S
C1873 C1879 1.363 . S
C1874 C1875 1.363 . S
C1874 C1879 1.379 . S
C1874 N1881 1.356 . S
C1875 C1874 1.363 . S
C1875 C1878 1.363 . S
N1876 C1878 1.356 . S
N1876 H1888 0.984 . S
N1876 H1889 0.985 . S
N1877 C1879 1.356 . S
N1877 H1882 0.984 . S
N1877 H1883 0.985 . S
C1878 C1872 1.379 . S
C1878 C1875 1.363 . S
C1878 N1876 1.356 . S
C1879 C1873 1.363 . S
C1879 C1874 1.379 . S
C1879 N1877 1.356 . S
N1880 C1872 1.356 . S
N1880 H1886 0.984 . S
N1880 H1887 0.984 . S
N1881 C1874 1.356 . S
N1881 H1884 0.984 . S
N1881 H1885 0.985 . S
H1882 N1877 0.984 . S
H1883 N1877 0.985 . S
H1884 N1881 0.984 . S
H1885 N1881 0.985 . S
H1886 N1880 0.984 . S
H1887 N1880 0.984 . S
H1888 N1876 0.984 . S
H1889 N1876 0.985 . S
C1890 C1891 1.363 . S
C1890 C1896 1.379 . S
C1890 N1898 1.356 . S
C1891 C1890 1.363 . S
C1891 C1897 1.363 . S
C1892 C1893 1.363 . S
C1892 C1897 1.379 . S
C1892 N1899 1.356 . S
C1893 C1892 1.363 . S
C1893 C1896 1.363 . S
N1894 C1896 1.356 . S
N1894 H1906 0.984 . S
N1894 H1907 0.985 . S
N1895 C1897 1.356 . S
N1895 H1900 0.984 . S
N1895 H1901 0.985 . S
C1896 C1890 1.379 . S
C1896 C1893 1.363 . S
C1896 N1894 1.356 . S
C1897 C1891 1.363 . S
C1897 C1892 1.379 . S
C1897 N1895 1.356 . S
N1898 C1890 1.356 . S
N1898 H1904 0.984 . S
N1898 H1905 0.984 . S
N1899 C1892 1.356 . S
N1899 H1902 0.984 . S
N1899 H1903 0.985 . S
H1900 N1895 0.984 . S
H1901 N1895 0.985 . S
H1902 N1899 0.984 . S
H1903 N1899 0.985 . S
H1904 N1898 0.984 . S
H1905 N1898 0.984 . S
H1906 N1894 0.984 . S
H1907 N1894 0.985 . S
C1908 C1909 1.363 . S
C1908 C1914 1.379 . S
C1908 N1916 1.356 . S
C1909 C1908 1.363 . S
C1909 C1915 1.363 . S
C1910 C1911 1.363 . S
C1910 C1915 1.379 . S
C1910 N1917 1.356 . S
C1911 C1910 1.363 . S
C1911 C1914 1.363 . S
N1912 C1914 1.356 . S
N1912 H1924 0.984 . S
N1912 H1925 0.985 . S
N1913 C1915 1.356 . S
N1913 H1918 0.984 . S
N1913 H1919 0.985 . S
C1914 C1908 1.379 . S
C1914 C1911 1.363 . S
C1914 N1912 1.356 . S
C1915 C1909 1.363 . S
C1915 C1910 1.379 . S
C1915 N1913 1.356 . S
N1916 C1908 1.356 . S
N1916 H1922 0.984 . S
N1916 H1923 0.984 . S
N1917 C1910 1.356 . S
N1917 H1920 0.984 . S
N1917 H1921 0.985 . S
H1918 N1913 0.984 . S
H1919 N1913 0.985 . S
H1920 N1917 0.984 . S
H1921 N1917 0.985 . S
H1922 N1916 0.984 . S
H1923 N1916 0.984 . S
H1924 N1912 0.984 . S
H1925 N1912 0.985 . S
C1926 C1927 1.363 . S
C1926 C1932 1.379 . S
C1926 N1934 1.356 . S
C1927 C1926 1.363 . S
C1927 C1933 1.363 . S
C1928 C1929 1.363 . S
C1928 C1933 1.379 . S
C1928 N1935 1.356 . S
C1929 C1928 1.363 . S
C1929 C1932 1.363 . S
N1930 C1932 1.356 . S
N1930 H1942 0.984 . S
N1930 H1943 0.985 . S
N1931 C1933 1.356 . S
N1931 H1936 0.984 . S
N1931 H1937 0.985 . S
C1932 C1926 1.379 . S
C1932 C1929 1.363 . S
C1932 N1930 1.356 . S
C1933 C1927 1.363 . S
C1933 C1928 1.379 . S
C1933 N1931 1.356 . S
N1934 C1926 1.356 . S
N1934 H1940 0.984 . S
N1934 H1941 0.984 . S
N1935 C1928 1.356 . S
N1935 H1938 0.984 . S
N1935 H1939 0.985 . S
H1936 N1931 0.984 . S
H1937 N1931 0.985 . S
H1938 N1935 0.984 . S
H1939 N1935 0.985 . S
H1940 N1934 0.984 . S
H1941 N1934 0.984 . S
H1942 N1930 0.984 . S
H1943 N1930 0.985 . S
C1944 C1945 1.363 . S
C1944 C1950 1.379 . S
C1944 N1952 1.356 . S
C1945 C1944 1.363 . S
C1945 C1951 1.363 . S
C1946 C1947 1.363 . S
C1946 C1951 1.379 . S
C1946 N1953 1.356 . S
C1947 C1946 1.363 . S
C1947 C1950 1.363 . S
N1948 C1950 1.356 . S
N1948 H1960 0.984 . S
N1948 H1961 0.985 . S
N1949 C1951 1.356 . S
N1949 H1954 0.984 . S
N1949 H1955 0.985 . S
C1950 C1944 1.379 . S
C1950 C1947 1.363 . S
C1950 N1948 1.356 . S
C1951 C1945 1.363 . S
C1951 C1946 1.379 . S
C1951 N1949 1.356 . S
N1952 C1944 1.356 . S
N1952 H1958 0.984 . S
N1952 H1959 0.984 . S
N1953 C1946 1.356 . S
N1953 H1956 0.984 . S
N1953 H1957 0.985 . S
H1954 N1949 0.984 . S
H1955 N1949 0.985 . S
H1956 N1953 0.984 . S
H1957 N1953 0.985 . S
H1958 N1952 0.984 . S
H1959 N1952 0.984 . S
H1960 N1948 0.984 . S
H1961 N1948 0.985 . S
C1962 C1963 1.363 . S
C1962 C1968 1.379 . S
C1962 N1970 1.356 . S
C1963 C1962 1.363 . S
C1963 C1969 1.363 . S
C1964 C1965 1.363 . S
C1964 C1969 1.379 . S
C1964 N1971 1.356 . S
C1965 C1964 1.363 . S
C1965 C1968 1.363 . S
N1966 C1968 1.356 . S
N1966 H1978 0.984 . S
N1966 H1979 0.985 . S
N1967 C1969 1.356 . S
N1967 H1972 0.984 . S
N1967 H1973 0.985 . S
C1968 C1962 1.379 . S
C1968 C1965 1.363 . S
C1968 N1966 1.356 . S
C1969 C1963 1.363 . S
C1969 C1964 1.379 . S
C1969 N1967 1.356 . S
N1970 C1962 1.356 . S
N1970 H1976 0.984 . S
N1970 H1977 0.984 . S
N1971 C1964 1.356 . S
N1971 H1974 0.984 . S
N1971 H1975 0.985 . S
H1972 N1967 0.984 . S
H1973 N1967 0.985 . S
H1974 N1971 0.984 . S
H1975 N1971 0.985 . S
H1976 N1970 0.984 . S
H1977 N1970 0.984 . S
H1978 N1966 0.984 . S
H1979 N1966 0.985 . S
C1980 C1981 1.363 . S
C1980 C1986 1.379 . S
C1980 N1988 1.356 . S
C1981 C1980 1.363 . S
C1981 C1987 1.363 . S
C1982 C1983 1.363 . S
C1982 C1987 1.379 . S
C1982 N1989 1.356 . S
C1983 C1982 1.363 . S
C1983 C1986 1.363 . S
N1984 C1986 1.356 . S
N1984 H1996 0.984 . S
N1984 H1997 0.985 . S
N1985 C1987 1.356 . S
N1985 H1990 0.984 . S
N1985 H1991 0.985 . S
C1986 C1980 1.379 . S
C1986 C1983 1.363 . S
C1986 N1984 1.356 . S
C1987 C1981 1.363 . S
C1987 C1982 1.379 . S
C1987 N1985 1.356 . S
N1988 C1980 1.356 . S
N1988 H1994 0.984 . S
N1988 H1995 0.984 . S
N1989 C1982 1.356 . S
N1989 H1992 0.984 . S
N1989 H1993 0.985 . S
H1990 N1985 0.984 . S
H1991 N1985 0.985 . S
H1992 N1989 0.984 . S
H1993 N1989 0.985 . S
H1994 N1988 0.984 . S
H1995 N1988 0.984 . S
H1996 N1984 0.984 . S
H1997 N1984 0.985 . S
C1998 C1999 1.363 . S
C1998 C2004 1.379 . S
C1998 N2006 1.356 . S
C1999 C1998 1.363 . S
C1999 C2005 1.363 . S
C2000 C2001 1.363 . S
C2000 C2005 1.379 . S
C2000 N2007 1.356 . S
C2001 C2000 1.363 . S
C2001 C2004 1.363 . S
N2002 C2004 1.356 . S
N2002 H2014 0.984 . S
N2002 H2015 0.985 . S
N2003 C2005 1.356 . S
N2003 H2008 0.984 . S
N2003 H2009 0.985 . S
C2004 C1998 1.379 . S
C2004 C2001 1.363 . S
C2004 N2002 1.356 . S
C2005 C1999 1.363 . S
C2005 C2000 1.379 . S
C2005 N2003 1.356 . S
N2006 C1998 1.356 . S
N2006 H2012 0.984 . S
N2006 H2013 0.984 . S
N2007 C2000 1.356 . S
N2007 H2010 0.984 . S
N2007 H2011 0.985 . S
H2008 N2003 0.984 . S
H2009 N2003 0.985 . S
H2010 N2007 0.984 . S
H2011 N2007 0.985 . S
H2012 N2006 0.984 . S
H2013 N2006 0.984 . S
H2014 N2002 0.984 . S
H2015 N2002 0.985 . S
C2016 C2017 1.363 . S
C2016 C2022 1.379 . S
C2016 N2024 1.356 . S
C2017 C2016 1.363 . S
C2017 C2023 1.363 . S
C2018 C2019 1.363 . S
C2018 C2023 1.379 . S
C2018 N2025 1.356 . S
C2019 C2018 1.363 . S
C2019 C2022 1.363 . S
N2020 C2022 1.356 . S
N2020 H2032 0.984 . S
N2020 H2033 0.985 . S
N2021 C2023 1.356 . S
N2021 H2026 0.984 . S
N2021 H2027 0.985 . S
C2022 C2016 1.379 . S
C2022 C2019 1.363 . S
C2022 N2020 1.356 . S
C2023 C2017 1.363 . S
C2023 C2018 1.379 . S
C2023 N2021 1.356 . S
N2024 C2016 1.356 . S
N2024 H2030 0.984 . S
N2024 H2031 0.984 . S
N2025 C2018 1.356 . S
N2025 H2028 0.984 . S
N2025 H2029 0.985 . S
H2026 N2021 0.984 . S
H2027 N2021 0.985 . S
H2028 N2025 0.984 . S
H2029 N2025 0.985 . S
H2030 N2024 0.984 . S
H2031 N2024 0.984 . S
H2032 N2020 0.984 . S
H2033 N2020 0.985 . S
C2034 C2035 1.363 . S
C2034 C2040 1.379 . S
C2034 N2042 1.356 . S
C2035 C2034 1.363 . S
C2035 C2041 1.363 . S
C2036 C2037 1.363 . S
C2036 C2041 1.379 1_554 S
C2036 N2043 1.356 . S
C2037 C2036 1.363 . S
C2037 C2040 1.363 1_554 S
N2038 C2040 1.356 . S
N2038 H2050 0.984 . S
N2038 H2051 0.985 1_556 S
N2039 C2041 1.356 . S
N2039 H2044 0.984 . S
N2039 H2045 0.985 . S
C2040 C2034 1.379 . S
C2040 C2037 1.363 1_556 S
C2040 N2038 1.356 . S
C2041 C2035 1.363 . S
C2041 C2036 1.379 1_556 S
C2041 N2039 1.356 . S
N2042 C2034 1.356 . S
N2042 H2048 0.984 . S
N2042 H2049 0.984 . S
N2043 C2036 1.356 . S
N2043 H2046 0.984 . S
N2043 H2047 0.985 . S
H2044 N2039 0.984 . S
H2045 N2039 0.985 . S
H2046 N2043 0.984 . S
H2047 N2043 0.985 . S
H2048 N2042 0.984 . S
H2049 N2042 0.984 . S
H2050 N2038 0.984 . S
H2051 N2038 0.985 1_554 S
C2052 C2053 1.363 . S
C2052 C2058 1.379 . S
C2052 N2060 1.356 . S
C2053 C2052 1.363 . S
C2053 C2059 1.363 . S
C2054 C2055 1.363 1_556 S
C2054 C2059 1.379 . S
C2054 N2061 1.356 1_556 S
C2055 C2054 1.363 1_554 S
C2055 C2058 1.363 1_554 S
N2056 C2058 1.356 1_554 S
N2056 H2068 0.984 . S
N2056 H2069 0.985 . S
N2057 C2059 1.356 . S
N2057 H2062 0.984 . S
N2057 H2063 0.985 . S
C2058 C2052 1.379 . S
C2058 C2055 1.363 1_556 S
C2058 N2056 1.356 1_556 S
C2059 C2053 1.363 . S
C2059 C2054 1.379 . S
C2059 N2057 1.356 . S
N2060 C2052 1.356 . S
N2060 H2066 0.984 . S
N2060 H2067 0.984 . S
N2061 C2054 1.356 1_554 S
N2061 H2064 0.984 . S
N2061 H2065 0.985 . S
H2062 N2057 0.984 . S
H2063 N2057 0.985 . S
H2064 N2061 0.984 . S
H2065 N2061 0.985 . S
H2066 N2060 0.984 . S
H2067 N2060 0.984 . S
H2068 N2056 0.984 . S
H2069 N2056 0.985 . S
C2070 C2071 1.363 . S
C2070 C2076 1.379 . S
C2070 N2078 1.356 . S
C2071 C2070 1.363 . S
C2071 C2077 1.363 . S
C2072 C2073 1.363 . S
C2072 C2077 1.379 1_554 S
C2072 N2079 1.356 . S
C2073 C2072 1.363 . S
C2073 C2076 1.363 1_554 S
N2074 C2076 1.356 . S
N2074 H2086 0.984 . S
N2074 H2087 0.985 1_556 S
N2075 C2077 1.356 . S
N2075 H2080 0.984 . S
N2075 H2081 0.974 1_556 S
C2076 C2070 1.379 . S
C2076 C2073 1.363 1_556 S
C2076 N2074 1.356 . S
C2077 C2071 1.363 . S
C2077 C2072 1.379 1_556 S
C2077 N2075 1.356 . S
N2078 C2070 1.356 . S
N2078 H2084 0.984 . S
N2078 H2085 0.984 . S
N2079 C2072 1.356 . S
N2079 H2082 0.984 . S
N2079 H2083 0.985 . S
H2080 N2075 0.984 . S
H2081 N2075 0.974 1_554 S
H2082 N2079 0.984 . S
H2083 N2079 0.985 . S
H2084 N2078 0.984 . S
H2085 N2078 0.984 . S
H2086 N2074 0.984 . S
H2087 N2074 0.985 1_554 S
C2088 C2089 1.363 . S
C2088 C2094 1.379 . S
C2088 N2096 1.356 . S
C2089 C2088 1.363 . S
C2089 C2095 1.363 . S
C2090 C2091 1.363 . S
C2090 C2095 1.379 . S
C2090 N2097 1.356 . S
C2091 C2090 1.363 . S
C2091 C2094 1.363 . S
N2092 C2094 1.356 1_554 S
N2092 H2104 0.984 . S
N2092 H2105 0.985 . S
N2093 C2095 1.356 . S
N2093 H2098 0.984 . S
N2093 H2099 0.985 . S
C2094 C2088 1.379 . S
C2094 C2091 1.363 . S
C2094 N2092 1.356 1_556 S
C2095 C2089 1.363 . S
C2095 C2090 1.379 . S
C2095 N2093 1.356 . S
N2096 C2088 1.356 . S
N2096 H2102 0.984 . S
N2096 H2103 0.984 . S
N2097 C2090 1.356 . S
N2097 H2100 0.984 . S
N2097 H2101 0.985 . S
H2098 N2093 0.984 . S
H2099 N2093 0.985 . S
H2100 N2097 0.984 . S
H2101 N2097 0.985 . S
H2102 N2096 0.984 . S
H2103 N2096 0.984 . S
H2104 N2092 0.984 . S
H2105 N2092 0.985 . S
C2106 C2107 1.363 . S
C2106 C2112 1.379 . S
C2106 N2114 1.356 1_556 S
C2107 C2106 1.363 . S
C2107 C2113 1.363 . S
C2108 C2109 1.363 . S
C2108 C2113 1.379 . S
C2108 N2115 1.356 . S
C2109 C2108 1.363 . S
C2109 C2112 1.363 . S
N2110 C2112 1.356 . S
N2110 H2122 0.984 . S
N2110 H2123 0.985 . S
N2111 C2113 1.356 . S
N2111 H2116 0.984 . S
N2111 H2117 0.985 . S
C2112 C2106 1.379 . S
C2112 C2109 1.363 . S
C2112 N2110 1.356 . S
C2113 C2107 1.363 . S
C2113 C2108 1.379 . S
C2113 N2111 1.356 . S
N2114 C2106 1.356 1_554 S
N2114 H2120 0.984 . S
N2114 H2121 0.984 . S
N2115 C2108 1.356 . S
N2115 H2118 0.984 . S
N2115 H2119 0.985 . S
H2116 N2111 0.984 . S
H2117 N2111 0.985 . S
H2118 N2115 0.984 . S
H2119 N2115 0.985 . S
H2120 N2114 0.984 . S
H2121 N2114 0.984 . S
H2122 N2110 0.984 . S
H2123 N2110 0.985 . S
C2124 C2125 1.363 . S
C2124 C2130 1.379 . S
C2124 N2132 1.356 1_556 S
C2125 C2124 1.363 . S
C2125 C2131 1.363 . S
C2126 C2127 1.363 . S
C2126 C2131 1.379 . S
C2126 N2133 1.356 . S
C2127 C2126 1.363 . S
C2127 C2130 1.363 . S
N2128 C2130 1.356 . S
N2128 H2140 0.984 . S
N2128 H2141 0.985 . S
N2129 C2131 1.356 . S
N2129 H2134 0.984 . S
N2129 H2135 0.985 . S
C2130 C2124 1.379 . S
C2130 C2127 1.363 . S
C2130 N2128 1.356 . S
C2131 C2125 1.363 . S
C2131 C2126 1.379 . S
C2131 N2129 1.356 . S
N2132 C2124 1.356 1_554 S
N2132 H2138 0.984 . S
N2132 H2139 0.984 . S
N2133 C2126 1.356 . S
N2133 H2136 0.984 . S
N2133 H2137 0.985 . S
H2134 N2129 0.984 . S
H2135 N2129 0.985 . S
H2136 N2133 0.984 . S
H2137 N2133 0.985 . S
H2138 N2132 0.984 . S
H2139 N2132 0.984 . S
H2140 N2128 0.984 . S
H2141 N2128 0.985 . S
C2142 C2143 1.363 . S
C2142 C2148 1.379 . S
C2142 N2150 1.356 . S
C2143 C2142 1.363 . S
C2143 C2149 1.363 . S
C2144 C2145 1.363 . S
C2144 C2149 1.379 . S
C2144 N2151 1.356 . S
C2145 C2144 1.363 . S
C2145 C2148 1.363 . S
N2146 C2148 1.356 . S
N2146 H2158 0.984 . S
N2146 H2159 0.985 . S
N2147 C2149 1.356 . S
N2147 H2152 0.984 . S
N2147 H2153 0.985 . S
C2148 C2142 1.379 . S
C2148 C2145 1.363 . S
C2148 N2146 1.356 . S
C2149 C2143 1.363 . S
C2149 C2144 1.379 . S
C2149 N2147 1.356 . S
N2150 C2142 1.356 . S
N2150 H2156 0.984 . S
N2150 H2157 0.984 . S
N2151 C2144 1.356 . S
N2151 H2154 0.984 . S
N2151 H2155 0.985 . S
H2152 N2147 0.984 . S
H2153 N2147 0.985 . S
H2154 N2151 0.984 . S
H2155 N2151 0.985 . S
H2156 N2150 0.984 . S
H2157 N2150 0.984 . S
H2158 N2146 0.984 . S
H2159 N2146 0.985 . S
C2160 C2161 1.363 . S
C2160 C2166 1.379 . S
C2160 N2168 1.356 . S
C2161 C2160 1.363 . S
C2161 C2167 1.363 . S
C2162 C2163 1.363 . S
C2162 C2167 1.379 . S
C2162 N2169 1.356 . S
C2163 C2162 1.363 . S
C2163 C2166 1.363 . S
N2164 C2166 1.356 . S
N2164 H2176 0.984 . S
N2164 H2177 0.985 . S
N2165 C2167 1.356 . S
N2165 H2170 0.984 . S
N2165 H2171 0.985 . S
C2166 C2160 1.379 . S
C2166 C2163 1.363 . S
C2166 N2164 1.356 . S
C2167 C2161 1.363 . S
C2167 C2162 1.379 . S
C2167 N2165 1.356 . S
N2168 C2160 1.356 . S
N2168 H2174 0.984 . S
N2168 H2175 0.984 . S
N2169 C2162 1.356 . S
N2169 H2172 0.984 . S
N2169 H2173 0.985 . S
H2170 N2165 0.984 . S
H2171 N2165 0.985 . S
H2172 N2169 0.984 . S
H2173 N2169 0.985 . S
H2174 N2168 0.984 . S
H2175 N2168 0.984 . S
H2176 N2164 0.984 . S
H2177 N2164 0.985 . S
C2178 C2179 1.363 . S
C2178 C2184 1.379 . S
C2178 N2186 1.356 . S
C2179 C2178 1.363 . S
C2179 C2185 1.363 . S
C2180 C2181 1.363 . S
C2180 C2185 1.379 . S
C2180 N2187 1.356 . S
C2181 C2180 1.363 . S
C2181 C2184 1.363 . S
N2182 C2184 1.356 . S
N2182 H2194 0.984 . S
N2182 H2195 0.985 . S
N2183 C2185 1.356 . S
N2183 H2188 0.984 . S
N2183 H2189 0.985 . S
C2184 C2178 1.379 . S
C2184 C2181 1.363 . S
C2184 N2182 1.356 . S
C2185 C2179 1.363 . S
C2185 C2180 1.379 . S
C2185 N2183 1.356 . S
N2186 C2178 1.356 . S
N2186 H2192 0.984 . S
N2186 H2193 0.984 . S
N2187 C2180 1.356 . S
N2187 H2190 0.984 . S
N2187 H2191 0.985 . S
H2188 N2183 0.984 . S
H2189 N2183 0.985 . S
H2190 N2187 0.984 . S
H2191 N2187 0.985 . S
H2192 N2186 0.984 . S
H2193 N2186 0.984 . S
H2194 N2182 0.984 . S
H2195 N2182 0.985 . S
C2196 C2197 1.363 . S
C2196 C2202 1.379 . S
C2196 N2204 1.356 . S
C2197 C2196 1.363 . S
C2197 C2203 1.363 . S
C2198 C2199 1.363 . S
C2198 C2203 1.379 . S
C2198 N2205 1.356 . S
C2199 C2198 1.363 . S
C2199 C2202 1.363 . S
N2200 C2202 1.356 . S
N2200 H2212 0.984 . S
N2200 H2213 0.985 . S
N2201 C2203 1.356 . S
N2201 H2206 0.984 . S
N2201 H2207 0.985 . S
C2202 C2196 1.379 . S
C2202 C2199 1.363 . S
C2202 N2200 1.356 . S
C2203 C2197 1.363 . S
C2203 C2198 1.379 . S
C2203 N2201 1.356 . S
N2204 C2196 1.356 . S
N2204 H2210 0.984 . S
N2204 H2211 0.984 . S
N2205 C2198 1.356 . S
N2205 H2208 0.984 . S
N2205 H2209 0.985 . S
H2206 N2201 0.984 . S
H2207 N2201 0.985 . S
H2208 N2205 0.984 . S
H2209 N2205 0.985 . S
H2210 N2204 0.984 . S
H2211 N2204 0.984 . S
H2212 N2200 0.984 . S
H2213 N2200 0.985 . S
C2214 C2215 1.363 . S
C2214 C2220 1.379 . S
C2214 N2222 1.356 . S
C2215 C2214 1.363 . S
C2215 C2221 1.363 . S
C2216 C2217 1.363 . S
C2216 C2221 1.379 . S
C2216 N2223 1.356 . S
C2217 C2216 1.363 . S
C2217 C2220 1.363 . S
N2218 C2220 1.356 . S
N2218 H2230 0.984 . S
N2218 H2231 0.985 . S
N2219 C2221 1.356 . S
N2219 H2224 0.984 . S
N2219 H2225 0.985 . S
C2220 C2214 1.379 . S
C2220 C2217 1.363 . S
C2220 N2218 1.356 . S
C2221 C2215 1.363 . S
C2221 C2216 1.379 . S
C2221 N2219 1.356 . S
N2222 C2214 1.356 . S
N2222 H2228 0.984 . S
N2222 H2229 0.984 . S
N2223 C2216 1.356 . S
N2223 H2226 0.984 . S
N2223 H2227 0.985 . S
H2224 N2219 0.984 . S
H2225 N2219 0.985 . S
H2226 N2223 0.984 . S
H2227 N2223 0.985 . S
H2228 N2222 0.984 . S
H2229 N2222 0.984 . S
H2230 N2218 0.984 . S
H2231 N2218 0.985 . S
C2232 C2233 1.363 . S
C2232 C2238 1.379 . S
C2232 N2240 1.356 . S
C2233 C2232 1.363 . S
C2233 C2239 1.363 . S
C2234 C2235 1.363 . S
C2234 C2239 1.379 . S
C2234 N2241 1.356 . S
C2235 C2234 1.363 . S
C2235 C2238 1.363 . S
N2236 C2238 1.356 . S
N2236 H2248 0.984 . S
N2236 H2249 0.985 . S
N2237 C2239 1.356 . S
N2237 H2242 0.984 . S
N2237 H2243 0.985 . S
C2238 C2232 1.379 . S
C2238 C2235 1.363 . S
C2238 N2236 1.356 . S
C2239 C2233 1.363 . S
C2239 C2234 1.379 . S
C2239 N2237 1.356 . S
N2240 C2232 1.356 . S
N2240 H2246 0.984 . S
N2240 H2247 0.984 . S
N2241 C2234 1.356 . S
N2241 H2244 0.984 . S
N2241 H2245 0.985 . S
H2242 N2237 0.984 . S
H2243 N2237 0.985 . S
H2244 N2241 0.984 . S
H2245 N2241 0.985 . S
H2246 N2240 0.984 . S
H2247 N2240 0.984 . S
H2248 N2236 0.984 . S
H2249 N2236 0.985 . S
C2250 C2251 1.363 . S
C2250 C2256 1.379 . S
C2250 N2258 1.356 . S
C2251 C2250 1.363 . S
C2251 C2257 1.363 . S
C2252 C2253 1.363 . S
C2252 C2257 1.379 . S
C2252 N2259 1.356 . S
C2253 C2252 1.363 . S
C2253 C2256 1.363 . S
N2254 C2256 1.356 . S
N2254 H2266 0.984 . S
N2254 H2267 0.985 . S
N2255 C2257 1.356 . S
N2255 H2260 0.984 . S
N2255 H2261 0.985 . S
C2256 C2250 1.379 . S
C2256 C2253 1.363 . S
C2256 N2254 1.356 . S
C2257 C2251 1.363 . S
C2257 C2252 1.379 . S
C2257 N2255 1.356 . S
N2258 C2250 1.356 . S
N2258 H2264 0.984 . S
N2258 H2265 0.984 . S
N2259 C2252 1.356 . S
N2259 H2262 0.984 . S
N2259 H2263 0.985 . S
H2260 N2255 0.984 . S
H2261 N2255 0.985 . S
H2262 N2259 0.984 . S
H2263 N2259 0.985 . S
H2264 N2258 0.984 . S
H2265 N2258 0.984 . S
H2266 N2254 0.984 . S
H2267 N2254 0.985 . S
C2268 C2269 1.363 . S
C2268 C2274 1.379 . S
C2268 N2276 1.356 . S
C2269 C2268 1.363 . S
C2269 C2275 1.363 . S
C2270 C2271 1.363 . S
C2270 C2275 1.379 . S
C2270 N2277 1.356 . S
C2271 C2270 1.363 . S
C2271 C2274 1.363 . S
N2272 C2274 1.356 . S
N2272 H2284 0.984 . S
N2272 H2285 0.985 . S
N2273 C2275 1.356 . S
N2273 H2278 0.984 . S
N2273 H2279 0.985 . S
C2274 C2268 1.379 . S
C2274 C2271 1.363 . S
C2274 N2272 1.356 . S
C2275 C2269 1.363 . S
C2275 C2270 1.379 . S
C2275 N2273 1.356 . S
N2276 C2268 1.356 . S
N2276 H2282 0.984 . S
N2276 H2283 0.984 . S
N2277 C2270 1.356 . S
N2277 H2280 0.984 . S
N2277 H2281 0.985 . S
H2278 N2273 0.984 . S
H2279 N2273 0.985 . S
H2280 N2277 0.984 . S
H2281 N2277 0.985 . S
H2282 N2276 0.984 . S
H2283 N2276 0.984 . S
H2284 N2272 0.984 . S
H2285 N2272 0.985 . S
C2286 C2287 1.363 . S
C2286 C2292 1.379 . S
C2286 N2294 1.356 . S
C2287 C2286 1.363 . S
C2287 C2293 1.363 . S
C2288 C2289 1.363 . S
C2288 C2293 1.379 . S
C2288 N2295 1.356 . S
C2289 C2288 1.363 . S
C2289 C2292 1.363 . S
N2290 C2292 1.356 . S
N2290 H2302 0.984 . S
N2290 H2303 0.985 . S
N2291 C2293 1.356 . S
N2291 H2296 0.984 . S
N2291 H2297 0.985 . S
C2292 C2286 1.379 . S
C2292 C2289 1.363 . S
C2292 N2290 1.356 . S
C2293 C2287 1.363 . S
C2293 C2288 1.379 . S
C2293 N2291 1.356 . S
N2294 C2286 1.356 . S
N2294 H2300 0.984 . S
N2294 H2301 0.984 . S
N2295 C2288 1.356 . S
N2295 H2298 0.984 . S
N2295 H2299 0.985 . S
H2296 N2291 0.984 . S
H2297 N2291 0.985 . S
H2298 N2295 0.984 . S
H2299 N2295 0.985 . S
H2300 N2294 0.984 . S
H2301 N2294 0.984 . S
H2302 N2290 0.984 . S
H2303 N2290 0.985 . S
C2304 C2305 1.363 . S
C2304 C2310 1.379 . S
C2304 N2312 1.356 . S
C2305 C2304 1.363 . S
C2305 C2311 1.363 . S
C2306 C2307 1.363 . S
C2306 C2311 1.379 . S
C2306 N2313 1.356 . S
C2307 C2306 1.363 . S
C2307 C2310 1.363 . S
N2308 C2310 1.356 . S
N2308 H2320 0.984 . S
N2308 H2321 0.985 . S
N2309 C2311 1.356 . S
N2309 H2314 0.984 . S
N2309 H2315 0.985 . S
C2310 C2304 1.379 . S
C2310 C2307 1.363 . S
C2310 N2308 1.356 . S
C2311 C2305 1.363 . S
C2311 C2306 1.379 . S
C2311 N2309 1.356 . S
N2312 C2304 1.356 . S
N2312 H2318 0.984 . S
N2312 H2319 0.984 . S
N2313 C2306 1.356 . S
N2313 H2316 0.984 . S
N2313 H2317 0.985 . S
H2314 N2309 0.984 . S
H2315 N2309 0.985 . S
H2316 N2313 0.984 . S
H2317 N2313 0.985 . S
H2318 N2312 0.984 . S
H2319 N2312 0.984 . S
H2320 N2308 0.984 . S
H2321 N2308 0.985 . S
C2322 C2323 1.363 . S
C2322 C2328 1.379 . S
C2322 N2330 1.356 . S
C2323 C2322 1.363 . S
C2323 C2329 1.363 . S
C2324 C2325 1.363 . S
C2324 C2329 1.379 . S
C2324 N2331 1.356 . S
C2325 C2324 1.363 . S
C2325 C2328 1.363 . S
N2326 C2328 1.356 . S
N2326 H2338 0.984 . S
N2326 H2339 0.985 . S
N2327 C2329 1.356 . S
N2327 H2332 0.984 . S
N2327 H2333 0.985 . S
C2328 C2322 1.379 . S
C2328 C2325 1.363 . S
C2328 N2326 1.356 . S
C2329 C2323 1.363 . S
C2329 C2324 1.379 . S
C2329 N2327 1.356 . S
N2330 C2322 1.356 . S
N2330 H2336 0.984 . S
N2330 H2337 0.984 . S
N2331 C2324 1.356 . S
N2331 H2334 0.984 . S
N2331 H2335 0.985 . S
H2332 N2327 0.984 . S
H2333 N2327 0.985 . S
H2334 N2331 0.984 . S
H2335 N2331 0.985 . S
H2336 N2330 0.984 . S
H2337 N2330 0.984 . S
H2338 N2326 0.984 . S
H2339 N2326 0.985 . S
C2340 C2341 1.363 . S
C2340 C2346 1.379 . S
C2340 N2348 1.356 . S
C2341 C2340 1.363 . S
C2341 C2347 1.363 . S
C2342 C2343 1.363 . S
C2342 C2347 1.379 . S
C2342 N2349 1.356 . S
C2343 C2342 1.363 . S
C2343 C2346 1.363 . S
N2344 C2346 1.356 . S
N2344 H2356 0.984 . S
N2344 H2357 0.985 . S
N2345 C2347 1.356 . S
N2345 H2350 0.984 . S
N2345 H2351 0.985 . S
C2346 C2340 1.379 . S
C2346 C2343 1.363 . S
C2346 N2344 1.356 . S
C2347 C2341 1.363 . S
C2347 C2342 1.379 . S
C2347 N2345 1.356 . S
N2348 C2340 1.356 . S
N2348 H2354 0.984 . S
N2348 H2355 0.984 . S
N2349 C2342 1.356 . S
N2349 H2352 0.984 . S
N2349 H2353 0.985 . S
H2350 N2345 0.984 . S
H2351 N2345 0.985 . S
H2352 N2349 0.984 . S
H2353 N2349 0.985 . S
H2354 N2348 0.984 . S
H2355 N2348 0.984 . S
H2356 N2344 0.984 . S
H2357 N2344 0.985 . S
C2358 C2359 1.363 . S
C2358 C2364 1.379 1_554 S
C2358 N2366 1.356 . S
C2359 C2358 1.363 . S
C2359 C2365 1.363 . S
C2360 C2361 1.363 1_554 S
C2360 C2365 1.379 . S
C2360 N2367 1.356 1_554 S
C2361 C2360 1.363 1_556 S
C2361 C2364 1.363 . S
N2362 C2364 1.356 . S
N2362 H2374 0.984 . S
N2362 H2375 0.985 . S
N2363 C2365 1.356 . S
N2363 H2368 0.984 . S
N2363 H2369 0.985 . S
C2364 C2358 1.379 1_556 S
C2364 C2361 1.363 . S
C2364 N2362 1.356 . S
C2365 C2359 1.363 . S
C2365 C2360 1.379 . S
C2365 N2363 1.356 . S
N2366 C2358 1.356 . S
N2366 H2372 0.984 . S
N2366 H2373 0.984 . S
N2367 C2360 1.356 1_556 S
N2367 H2370 0.984 . S
N2367 H2371 0.985 1_556 S
H2368 N2363 0.984 . S
H2369 N2363 0.985 . S
H2370 N2367 0.984 . S
H2371 N2367 0.985 1_554 S
H2372 N2366 0.984 . S
H2373 N2366 0.984 . S
H2374 N2362 0.984 . S
H2375 N2362 0.985 . S
C2376 C2377 1.363 1_554 S
C2376 C2382 1.379 . S
C2376 N2384 1.356 1_554 S
C2377 C2376 1.363 1_556 S
C2377 C2383 1.363 . S
C2378 C2379 1.363 . S
C2378 C2383 1.379 1_554 S
C2378 N2385 1.356 . S
C2379 C2378 1.363 . S
C2379 C2382 1.363 . S
N2380 C2382 1.356 . S
N2380 H2392 0.984 . S
N2380 H2393 0.985 . S
N2381 C2383 1.356 . S
N2381 H2386 0.984 . S
N2381 H2387 0.985 . S
C2382 C2376 1.379 . S
C2382 C2379 1.363 . S
C2382 N2380 1.356 . S
C2383 C2377 1.363 . S
C2383 C2378 1.379 1_556 S
C2383 N2381 1.356 . S
N2384 C2376 1.356 1_556 S
N2384 H2390 0.984 . S
N2384 H2391 0.984 . S
N2385 C2378 1.356 . S
N2385 H2388 0.984 . S
N2385 H2389 0.985 . S
H2386 N2381 0.984 . S
H2387 N2381 0.985 . S
H2388 N2385 0.984 . S
H2389 N2385 0.985 . S
H2390 N2384 0.984 . S
H2391 N2384 0.984 . S
H2392 N2380 0.984 . S
H2393 N2380 0.985 . S
C2394 C2395 1.363 . S
C2394 C2400 1.379 1_554 S
C2394 N2402 1.356 . S
C2395 C2394 1.363 . S
C2395 C2401 1.363 . S
C2396 C2397 1.363 1_554 S
C2396 C2401 1.379 . S
C2396 N2403 1.356 . S
C2397 C2396 1.363 1_556 S
C2397 C2400 1.363 . S
N2398 C2400 1.356 . S
N2398 H2410 0.984 . S
N2398 H2411 0.985 . S
N2399 C2401 1.356 . S
N2399 H2404 0.984 . S
N2399 H2405 0.985 . S
C2400 C2394 1.379 1_556 S
C2400 C2397 1.363 . S
C2400 N2398 1.356 . S
C2401 C2395 1.363 . S
C2401 C2396 1.379 . S
C2401 N2399 1.356 . S
N2402 C2394 1.356 . S
N2402 H2408 0.984 1_554 S
N2402 H2409 0.984 . S
N2403 C2396 1.356 . S
N2403 H2406 0.984 1_554 S
N2403 H2407 0.985 . S
H2404 N2399 0.984 . S
H2405 N2399 0.985 . S
H2406 N2403 0.984 1_556 S
H2407 N2403 0.985 . S
H2408 N2402 0.984 1_556 S
H2409 N2402 0.984 . S
H2410 N2398 0.984 . S
H2411 N2398 0.985 . S
C2412 C2413 1.363 . S
C2412 C2418 1.379 . S
C2412 N2420 1.356 . S
C2413 C2412 1.363 . S
C2413 C2419 1.363 . S
C2414 C2415 1.363 . S
C2414 C2419 1.379 . S
C2414 N2421 1.356 . S
C2415 C2414 1.363 . S
C2415 C2418 1.363 . S
N2416 C2418 1.356 . S
N2416 H2428 0.984 . S
N2416 H2429 0.985 . S
N2417 C2419 1.356 . S
N2417 H2422 0.984 . S
N2417 H2423 0.985 . S
C2418 C2412 1.379 . S
C2418 C2415 1.363 . S
C2418 N2416 1.356 . S
C2419 C2413 1.363 . S
C2419 C2414 1.379 . S
C2419 N2417 1.356 . S
N2420 C2412 1.356 . S
N2420 H2426 0.984 . S
N2420 H2427 0.984 . S
N2421 C2414 1.356 . S
N2421 H2424 0.984 . S
N2421 H2425 0.985 . S
H2422 N2417 0.984 . S
H2423 N2417 0.985 . S
H2424 N2421 0.984 . S
H2425 N2421 0.985 . S
H2426 N2420 0.984 . S
H2427 N2420 0.984 . S
H2428 N2416 0.984 . S
H2429 N2416 0.985 . S
C2430 C2431 1.363 . S
C2430 C2436 1.379 . S
C2430 N2438 1.356 . S
C2431 C2430 1.363 . S
C2431 C2437 1.363 . S
C2432 C2433 1.363 . S
C2432 C2437 1.379 . S
C2432 N2439 1.356 . S
C2433 C2432 1.363 . S
C2433 C2436 1.363 . S
N2434 C2436 1.356 . S
N2434 H2446 0.984 . S
N2434 H2447 0.985 . S
N2435 C2437 1.356 . S
N2435 H2440 0.984 . S
N2435 H2441 0.985 . S
C2436 C2430 1.379 . S
C2436 C2433 1.363 . S
C2436 N2434 1.356 . S
C2437 C2431 1.363 . S
C2437 C2432 1.379 . S
C2437 N2435 1.356 . S
N2438 C2430 1.356 . S
N2438 H2444 0.984 . S
N2438 H2445 0.984 . S
N2439 C2432 1.356 . S
N2439 H2442 0.984 . S
N2439 H2443 0.985 . S
H2440 N2435 0.984 . S
H2441 N2435 0.985 . S
H2442 N2439 0.984 . S
H2443 N2439 0.985 . S
H2444 N2438 0.984 . S
H2445 N2438 0.984 . S
H2446 N2434 0.984 . S
H2447 N2434 0.985 . S
C2448 C2449 1.363 . S
C2448 C2454 1.379 . S
C2448 N2456 1.356 . S
C2449 C2448 1.363 . S
C2449 C2455 1.363 . S
C2450 C2451 1.363 . S
C2450 C2455 1.379 . S
C2450 N2457 1.356 . S
C2451 C2450 1.363 . S
C2451 C2454 1.363 . S
N2452 C2454 1.356 . S
N2452 H2464 0.984 . S
N2452 H2465 0.985 . S
N2453 C2455 1.356 . S
N2453 H2458 0.984 . S
N2453 H2459 0.985 . S
C2454 C2448 1.379 . S
C2454 C2451 1.363 . S
C2454 N2452 1.356 . S
C2455 C2449 1.363 . S
C2455 C2450 1.379 . S
C2455 N2453 1.356 . S
N2456 C2448 1.356 . S
N2456 H2462 0.984 . S
N2456 H2463 0.984 . S
N2457 C2450 1.356 . S
N2457 H2460 0.984 . S
N2457 H2461 0.985 . S
H2458 N2453 0.984 . S
H2459 N2453 0.985 . S
H2460 N2457 0.984 . S
H2461 N2457 0.985 . S
H2462 N2456 0.984 . S
H2463 N2456 0.984 . S
H2464 N2452 0.984 . S
H2465 N2452 0.985 . S
C2466 C2467 1.363 . S
C2466 C2472 1.379 . S
C2466 N2474 1.356 . S
C2467 C2466 1.363 . S
C2467 C2473 1.363 . S
C2468 C2469 1.363 . S
C2468 C2473 1.379 . S
C2468 N2475 1.356 . S
C2469 C2468 1.363 . S
C2469 C2472 1.363 . S
N2470 C2472 1.356 . S
N2470 H2482 0.984 . S
N2470 H2483 0.985 . S
N2471 C2473 1.356 . S
N2471 H2476 0.984 . S
N2471 H2477 0.985 . S
C2472 C2466 1.379 . S
C2472 C2469 1.363 . S
C2472 N2470 1.356 . S
C2473 C2467 1.363 . S
C2473 C2468 1.379 . S
C2473 N2471 1.356 . S
N2474 C2466 1.356 . S
N2474 H2480 0.984 . S
N2474 H2481 0.984 . S
N2475 C2468 1.356 . S
N2475 H2478 0.984 . S
N2475 H2479 0.985 . S
H2476 N2471 0.984 . S
H2477 N2471 0.985 . S
H2478 N2475 0.984 . S
H2479 N2475 0.985 . S
H2480 N2474 0.984 . S
H2481 N2474 0.984 . S
H2482 N2470 0.984 . S
H2483 N2470 0.985 . S
C2484 C2485 1.363 . S
C2484 C2490 1.379 . S
C2484 N2492 1.356 . S
C2485 C2484 1.363 . S
C2485 C2491 1.363 . S
C2486 C2487 1.363 . S
C2486 C2491 1.379 . S
C2486 N2493 1.356 . S
C2487 C2486 1.363 . S
C2487 C2490 1.363 . S
N2488 C2490 1.356 . S
N2488 H2500 0.984 . S
N2488 H2501 0.985 . S
N2489 C2491 1.356 . S
N2489 H2494 0.984 . S
N2489 H2495 0.985 . S
C2490 C2484 1.379 . S
C2490 C2487 1.363 . S
C2490 N2488 1.356 . S
C2491 C2485 1.363 . S
C2491 C2486 1.379 . S
C2491 N2489 1.356 . S
N2492 C2484 1.356 . S
N2492 H2498 0.984 . S
N2492 H2499 0.984 . S
N2493 C2486 1.356 . S
N2493 H2496 0.984 . S
N2493 H2497 0.985 . S
H2494 N2489 0.984 . S
H2495 N2489 0.985 . S
H2496 N2493 0.984 . S
H2497 N2493 0.985 . S
H2498 N2492 0.984 . S
H2499 N2492 0.984 . S
H2500 N2488 0.984 . S
H2501 N2488 0.985 . S
C2502 C2503 1.363 . S
C2502 C2508 1.379 . S
C2502 N2510 1.356 . S
C2503 C2502 1.363 . S
C2503 C2509 1.363 . S
C2504 C2505 1.363 . S
C2504 C2509 1.379 . S
C2504 N2511 1.356 . S
C2505 C2504 1.363 . S
C2505 C2508 1.363 . S
N2506 C2508 1.356 . S
N2506 H2518 0.984 . S
N2506 H2519 0.985 . S
N2507 C2509 1.356 . S
N2507 H2512 0.984 . S
N2507 H2513 0.985 . S
C2508 C2502 1.379 . S
C2508 C2505 1.363 . S
C2508 N2506 1.356 . S
C2509 C2503 1.363 . S
C2509 C2504 1.379 . S
C2509 N2507 1.356 . S
N2510 C2502 1.356 . S
N2510 H2516 0.984 . S
N2510 H2517 0.984 . S
N2511 C2504 1.356 . S
N2511 H2514 0.984 . S
N2511 H2515 0.985 . S
H2512 N2507 0.984 . S
H2513 N2507 0.985 . S
H2514 N2511 0.984 . S
H2515 N2511 0.985 . S
H2516 N2510 0.984 . S
H2517 N2510 0.984 . S
H2518 N2506 0.984 . S
H2519 N2506 0.985 . S
C2520 C2521 1.363 . S
C2520 C2526 1.379 . S
C2520 N2528 1.356 . S
C2521 C2520 1.363 . S
C2521 C2527 1.363 . S
C2522 C2523 1.363 . S
C2522 C2527 1.379 . S
C2522 N2529 1.356 . S
C2523 C2522 1.363 . S
C2523 C2526 1.363 . S
N2524 C2526 1.356 . S
N2524 H2536 0.984 . S
N2524 H2537 0.985 . S
N2525 C2527 1.356 . S
N2525 H2530 0.984 . S
N2525 H2531 0.985 . S
C2526 C2520 1.379 . S
C2526 C2523 1.363 . S
C2526 N2524 1.356 . S
C2527 C2521 1.363 . S
C2527 C2522 1.379 . S
C2527 N2525 1.356 . S
N2528 C2520 1.356 . S
N2528 H2534 0.984 . S
N2528 H2535 0.984 . S
N2529 C2522 1.356 . S
N2529 H2532 0.984 . S
N2529 H2533 0.985 . S
H2530 N2525 0.984 . S
H2531 N2525 0.985 . S
H2532 N2529 0.984 . S
H2533 N2529 0.985 . S
H2534 N2528 0.984 . S
H2535 N2528 0.984 . S
H2536 N2524 0.984 . S
H2537 N2524 0.985 . S
C2538 C2539 1.363 . S
C2538 C2544 1.379 . S
C2538 N2546 1.356 . S
C2539 C2538 1.363 . S
C2539 C2545 1.363 . S
C2540 C2541 1.363 . S
C2540 C2545 1.379 . S
C2540 N2547 1.356 . S
C2541 C2540 1.363 . S
C2541 C2544 1.363 . S
N2542 C2544 1.356 . S
N2542 H2554 0.984 . S
N2542 H2555 0.985 . S
N2543 C2545 1.356 . S
N2543 H2548 0.984 . S
N2543 H2549 0.985 . S
C2544 C2538 1.379 . S
C2544 C2541 1.363 . S
C2544 N2542 1.356 . S
C2545 C2539 1.363 . S
C2545 C2540 1.379 . S
C2545 N2543 1.356 . S
N2546 C2538 1.356 . S
N2546 H2552 0.984 . S
N2546 H2553 0.984 . S
N2547 C2540 1.356 . S
N2547 H2550 0.984 . S
N2547 H2551 0.985 . S
H2548 N2543 0.984 . S
H2549 N2543 0.985 . S
H2550 N2547 0.984 . S
H2551 N2547 0.985 . S
H2552 N2546 0.984 . S
H2553 N2546 0.984 . S
H2554 N2542 0.984 . S
H2555 N2542 0.985 . S
C2556 C2557 1.363 . S
C2556 C2562 1.379 . S
C2556 N2564 1.356 . S
C2557 C2556 1.363 . S
C2557 C2563 1.363 . S
C2558 C2559 1.363 . S
C2558 C2563 1.379 . S
C2558 N2565 1.356 . S
C2559 C2558 1.363 . S
C2559 C2562 1.363 . S
N2560 C2562 1.356 . S
N2560 H2572 0.984 . S
N2560 H2573 0.985 . S
N2561 C2563 1.356 . S
N2561 H2566 0.984 . S
N2561 H2567 0.985 . S
C2562 C2556 1.379 . S
C2562 C2559 1.363 . S
C2562 N2560 1.356 . S
C2563 C2557 1.363 . S
C2563 C2558 1.379 . S
C2563 N2561 1.356 . S
N2564 C2556 1.356 . S
N2564 H2570 0.984 . S
N2564 H2571 0.984 . S
N2565 C2558 1.356 . S
N2565 H2568 0.984 . S
N2565 H2569 0.985 . S
H2566 N2561 0.984 . S
H2567 N2561 0.985 . S
H2568 N2565 0.984 . S
H2569 N2565 0.985 . S
H2570 N2564 0.984 . S
H2571 N2564 0.984 . S
H2572 N2560 0.984 . S
H2573 N2560 0.985 . S
C2574 C2575 1.363 . S
C2574 C2580 1.379 . S
C2574 N2582 1.356 . S
C2575 C2574 1.363 . S
C2575 C2581 1.363 . S
C2576 C2577 1.363 . S
C2576 C2581 1.379 . S
C2576 N2583 1.356 . S
C2577 C2576 1.363 . S
C2577 C2580 1.363 . S
N2578 C2580 1.356 . S
N2578 H2590 0.984 . S
N2578 H2591 0.985 . S
N2579 C2581 1.356 . S
N2579 H2584 0.984 . S
N2579 H2585 0.985 . S
C2580 C2574 1.379 . S
C2580 C2577 1.363 . S
C2580 N2578 1.356 . S
C2581 C2575 1.363 . S
C2581 C2576 1.379 . S
C2581 N2579 1.356 . S
N2582 C2574 1.356 . S
N2582 H2588 0.984 . S
N2582 H2589 0.984 . S
N2583 C2576 1.356 . S
N2583 H2586 0.984 . S
N2583 H2587 0.985 . S
H2584 N2579 0.984 . S
H2585 N2579 0.985 . S
H2586 N2583 0.984 . S
H2587 N2583 0.985 . S
H2588 N2582 0.984 . S
H2589 N2582 0.984 . S
H2590 N2578 0.984 . S
H2591 N2578 0.985 . S
C2592 C2593 1.363 . S
C2592 C2598 1.379 . S
C2592 N2600 1.356 . S
C2593 C2592 1.363 . S
C2593 C2599 1.363 . S
C2594 C2595 1.363 . S
C2594 C2599 1.379 . S
C2594 N2601 1.356 . S
C2595 C2594 1.363 . S
C2595 C2598 1.363 . S
N2596 C2598 1.356 . S
N2596 H2608 0.984 . S
N2596 H2609 0.985 . S
N2597 C2599 1.356 . S
N2597 H2602 0.984 . S
N2597 H2603 0.985 . S
C2598 C2592 1.379 . S
C2598 C2595 1.363 . S
C2598 N2596 1.356 . S
C2599 C2593 1.363 . S
C2599 C2594 1.379 . S
C2599 N2597 1.356 . S
N2600 C2592 1.356 . S
N2600 H2606 0.984 . S
N2600 H2607 0.984 . S
N2601 C2594 1.356 . S
N2601 H2604 0.984 . S
N2601 H2605 0.985 . S
H2602 N2597 0.984 . S
H2603 N2597 0.985 . S
H2604 N2601 0.984 . S
H2605 N2601 0.985 . S
H2606 N2600 0.984 . S
H2607 N2600 0.984 . S
H2608 N2596 0.984 . S
H2609 N2596 0.985 . S
C2610 C2611 1.363 . S
C2610 C2616 1.379 . S
C2610 N2618 1.356 . S
C2611 C2610 1.363 . S
C2611 C2617 1.363 . S
C2612 C2613 1.363 . S
C2612 C2617 1.379 . S
C2612 N2619 1.356 . S
C2613 C2612 1.363 . S
C2613 C2616 1.363 . S
N2614 C2616 1.356 . S
N2614 H2626 0.984 . S
N2614 H2627 0.985 . S
N2615 C2617 1.356 . S
N2615 H2620 0.984 . S
N2615 H2621 0.985 . S
C2616 C2610 1.379 . S
C2616 C2613 1.363 . S
C2616 N2614 1.356 . S
C2617 C2611 1.363 . S
C2617 C2612 1.379 . S
C2617 N2615 1.356 . S
N2618 C2610 1.356 . S
N2618 H2624 0.984 . S
N2618 H2625 0.984 . S
N2619 C2612 1.356 . S
N2619 H2622 0.984 . S
N2619 H2623 0.985 . S
H2620 N2615 0.984 . S
H2621 N2615 0.985 . S
H2622 N2619 0.984 . S
H2623 N2619 0.985 . S
H2624 N2618 0.984 . S
H2625 N2618 0.984 . S
H2626 N2614 0.984 . S
H2627 N2614 0.985 . S
C2628 C2629 1.363 . S
C2628 C2634 1.379 . S
C2628 N2636 1.356 . S
C2629 C2628 1.363 . S
C2629 C2635 1.363 . S
C2630 C2631 1.363 . S
C2630 C2635 1.379 . S
C2630 N2637 1.356 . S
C2631 C2630 1.363 . S
C2631 C2634 1.363 . S
N2632 C2634 1.356 . S
N2632 H2644 0.984 . S
N2632 H2645 0.985 . S
N2633 C2635 1.356 . S
N2633 H2638 0.984 . S
N2633 H2639 0.985 . S
C2634 C2628 1.379 . S
C2634 C2631 1.363 . S
C2634 N2632 1.356 . S
C2635 C2629 1.363 . S
C2635 C2630 1.379 . S
C2635 N2633 1.356 . S
N2636 C2628 1.356 . S
N2636 H2642 0.984 . S
N2636 H2643 0.984 . S
N2637 C2630 1.356 . S
N2637 H2640 0.984 . S
N2637 H2641 0.985 . S
H2638 N2633 0.984 . S
H2639 N2633 0.985 . S
H2640 N2637 0.984 . S
H2641 N2637 0.985 . S
H2642 N2636 0.984 . S
H2643 N2636 0.984 . S
H2644 N2632 0.984 . S
H2645 N2632 0.985 . S
C2646 C2647 1.363 . S
C2646 C2652 1.379 . S
C2646 N2654 1.356 . S
C2647 C2646 1.363 . S
C2647 C2653 1.363 . S
C2648 C2649 1.363 . S
C2648 C2653 1.379 . S
C2648 N2655 1.356 . S
C2649 C2648 1.363 . S
C2649 C2652 1.363 . S
N2650 C2652 1.356 . S
N2650 H2662 0.984 . S
N2650 H2663 0.985 . S
N2651 C2653 1.356 . S
N2651 H2656 0.984 . S
N2651 H2657 0.985 . S
C2652 C2646 1.379 . S
C2652 C2649 1.363 . S
C2652 N2650 1.356 . S
C2653 C2647 1.363 . S
C2653 C2648 1.379 . S
C2653 N2651 1.356 . S
N2654 C2646 1.356 . S
N2654 H2660 0.984 . S
N2654 H2661 0.984 . S
N2655 C2648 1.356 . S
N2655 H2658 0.984 . S
N2655 H2659 0.985 . S
H2656 N2651 0.984 . S
H2657 N2651 0.985 . S
H2658 N2655 0.984 . S
H2659 N2655 0.985 . S
H2660 N2654 0.984 . S
H2661 N2654 0.984 . S
H2662 N2650 0.984 . S
H2663 N2650 0.985 . S
C2664 C2665 1.363 . S
C2664 C2670 1.379 . S
C2664 N2672 1.356 . S
C2665 C2664 1.363 . S
C2665 C2671 1.363 . S
C2666 C2667 1.363 . S
C2666 C2671 1.379 . S
C2666 N2673 1.356 . S
C2667 C2666 1.363 . S
C2667 C2670 1.363 . S
N2668 C2670 1.356 . S
N2668 H2680 0.984 . S
N2668 H2681 0.985 . S
N2669 C2671 1.356 . S
N2669 H2674 0.984 . S
N2669 H2675 0.985 . S
C2670 C2664 1.379 . S
C2670 C2667 1.363 . S
C2670 N2668 1.356 . S
C2671 C2665 1.363 . S
C2671 C2666 1.379 . S
C2671 N2669 1.356 . S
N2672 C2664 1.356 . S
N2672 H2678 0.984 . S
N2672 H2679 0.984 . S
N2673 C2666 1.356 . S
N2673 H2676 0.984 . S
N2673 H2677 0.985 . S
H2674 N2669 0.984 . S
H2675 N2669 0.985 . S
H2676 N2673 0.984 . S
H2677 N2673 0.985 . S
H2678 N2672 0.984 . S
H2679 N2672 0.984 . S
H2680 N2668 0.984 . S
H2681 N2668 0.985 . S
C2682 C2683 1.363 . S
C2682 C2688 1.379 . S
C2682 N2690 1.356 . S
C2683 C2682 1.363 . S
C2683 C2689 1.363 . S
C2684 C2685 1.363 . S
C2684 C2689 1.379 . S
C2684 N2691 1.356 . S
C2685 C2684 1.363 . S
C2685 C2688 1.363 . S
N2686 C2688 1.356 . S
N2686 H2698 0.984 . S
N2686 H2699 0.985 . S
N2687 C2689 1.356 . S
N2687 H2692 0.984 . S
N2687 H2693 0.985 . S
C2688 C2682 1.379 . S
C2688 C2685 1.363 . S
C2688 N2686 1.356 . S
C2689 C2683 1.363 . S
C2689 C2684 1.379 . S
C2689 N2687 1.356 . S
N2690 C2682 1.356 . S
N2690 H2696 0.984 . S
N2690 H2697 0.984 . S
N2691 C2684 1.356 . S
N2691 H2694 0.984 . S
N2691 H2695 0.985 . S
H2692 N2687 0.984 . S
H2693 N2687 0.985 . S
H2694 N2691 0.984 . S
H2695 N2691 0.985 . S
H2696 N2690 0.984 . S
H2697 N2690 0.984 . S
H2698 N2686 0.984 . S
H2699 N2686 0.985 . S
C2700 C2701 1.363 . S
C2700 C2706 1.379 . S
C2700 N2708 1.356 . S
C2701 C2700 1.363 . S
C2701 C2707 1.363 . S
C2702 C2703 1.363 . S
C2702 C2707 1.379 . S
C2702 N2709 1.356 . S
C2703 C2702 1.363 . S
C2703 C2706 1.363 . S
N2704 C2706 1.356 . S
N2704 H2716 0.984 . S
N2704 H2717 0.985 . S
N2705 C2707 1.356 . S
N2705 H2710 0.984 . S
N2705 H2711 0.985 . S
C2706 C2700 1.379 . S
C2706 C2703 1.363 . S
C2706 N2704 1.356 . S
C2707 C2701 1.363 . S
C2707 C2702 1.379 . S
C2707 N2705 1.356 . S
N2708 C2700 1.356 . S
N2708 H2714 0.984 . S
N2708 H2715 0.984 . S
N2709 C2702 1.356 . S
N2709 H2712 0.984 . S
N2709 H2713 0.985 . S
H2710 N2705 0.984 . S
H2711 N2705 0.985 . S
H2712 N2709 0.984 . S
H2713 N2709 0.985 . S
H2714 N2708 0.984 . S
H2715 N2708 0.984 . S
H2716 N2704 0.984 . S
H2717 N2704 0.985 . S
C2718 C2719 1.363 . S
C2718 C2724 1.379 . S
C2718 N2726 1.356 . S
C2719 C2718 1.363 . S
C2719 C2725 1.363 . S
C2720 C2721 1.363 . S
C2720 C2725 1.379 . S
C2720 N2727 1.356 . S
C2721 C2720 1.363 . S
C2721 C2724 1.363 . S
N2722 C2724 1.356 . S
N2722 H2734 0.984 . S
N2722 H2735 0.985 . S
N2723 C2725 1.356 . S
N2723 H2728 0.984 . S
N2723 H2729 0.985 . S
C2724 C2718 1.379 . S
C2724 C2721 1.363 . S
C2724 N2722 1.356 . S
C2725 C2719 1.363 . S
C2725 C2720 1.379 . S
C2725 N2723 1.356 . S
N2726 C2718 1.356 . S
N2726 H2732 0.984 . S
N2726 H2733 0.984 . S
N2727 C2720 1.356 . S
N2727 H2730 0.984 . S
N2727 H2731 0.985 . S
H2728 N2723 0.984 . S
H2729 N2723 0.985 . S
H2730 N2727 0.984 . S
H2731 N2727 0.985 . S
H2732 N2726 0.984 . S
H2733 N2726 0.984 . S
H2734 N2722 0.984 . S
H2735 N2722 0.985 . S
C2736 C2737 1.363 1_655 S
C2736 C2742 1.379 . S
C2736 N2744 1.356 . S
C2737 C2736 1.363 1_455 S
C2737 C2743 1.363 . S
C2738 C2739 1.363 1_455 S
C2738 C2743 1.379 . S
C2738 N2745 1.356 . S
C2739 C2738 1.363 1_655 S
C2739 C2742 1.363 . S
N2740 C2742 1.356 . S
N2740 H2752 0.984 . S
N2740 H2753 0.985 . S
N2741 C2743 1.356 . S
N2741 H2746 0.984 . S
N2741 H2747 0.985 . S
C2742 C2736 1.379 . S
C2742 C2739 1.363 . S
C2742 N2740 1.356 . S
C2743 C2737 1.363 . S
C2743 C2738 1.379 . S
C2743 N2741 1.356 . S
N2744 C2736 1.356 . S
N2744 H2750 0.984 . S
N2744 H2751 0.984 1_655 S
N2745 C2738 1.356 . S
N2745 H2748 0.984 1_455 S
N2745 H2749 0.985 . S
H2746 N2741 0.984 . S
H2747 N2741 0.985 . S
H2748 N2745 0.984 1_655 S
H2749 N2745 0.985 . S
H2750 N2744 0.984 . S
H2751 N2744 0.984 1_455 S
H2752 N2740 0.984 . S
H2753 N2740 0.985 . S
C2754 C2755 1.363 . S
C2754 C2760 1.379 . S
C2754 N2762 1.356 . S
C2755 C2754 1.363 . S
C2755 C2761 1.363 . S
C2756 C2757 1.363 . S
C2756 C2761 1.379 . S
C2756 N2763 1.356 . S
C2757 C2756 1.363 . S
C2757 C2760 1.363 . S
N2758 C2760 1.356 . S
N2758 H2770 0.984 . S
N2758 H2771 0.985 . S
N2759 C2761 1.356 . S
N2759 H2764 0.984 . S
N2759 H2765 0.985 . S
C2760 C2754 1.379 . S
C2760 C2757 1.363 . S
C2760 N2758 1.356 . S
C2761 C2755 1.363 . S
C2761 C2756 1.379 . S
C2761 N2759 1.356 . S
N2762 C2754 1.356 . S
N2762 H2768 0.984 . S
N2762 H2769 0.984 . S
N2763 C2756 1.356 . S
N2763 H2766 0.984 . S
N2763 H2767 0.985 . S
H2764 N2759 0.984 . S
H2765 N2759 0.985 . S
H2766 N2763 0.984 . S
H2767 N2763 0.985 . S
H2768 N2762 0.984 . S
H2769 N2762 0.984 . S
H2770 N2758 0.984 . S
H2771 N2758 0.985 . S
C2772 C2773 1.363 . S
C2772 C2778 1.379 . S
C2772 N2780 1.356 . S
C2773 C2772 1.363 . S
C2773 C2779 1.363 1_565 S
C2774 C2775 1.363 . S
C2774 C2779 1.379 . S
C2774 N2781 1.356 . S
C2775 C2774 1.363 . S
C2775 C2778 1.363 1_545 S
N2776 C2778 1.356 . S
N2776 H2788 0.984 . S
N2776 H2789 0.985 1_565 S
N2777 C2779 1.356 . S
N2777 H2782 0.984 1_545 S
N2777 H2783 0.985 . S
C2778 C2772 1.379 . S
C2778 C2775 1.363 1_565 S
C2778 N2776 1.356 . S
C2779 C2773 1.363 1_545 S
C2779 C2774 1.379 . S
C2779 N2777 1.356 . S
N2780 C2772 1.356 . S
N2780 H2786 0.984 . S
N2780 H2787 0.984 . S
N2781 C2774 1.356 . S
N2781 H2784 0.984 . S
N2781 H2785 0.985 . S
H2782 N2777 0.984 1_565 S
H2783 N2777 0.985 . S
H2784 N2781 0.984 . S
H2785 N2781 0.985 . S
H2786 N2780 0.984 . S
H2787 N2780 0.984 . S
H2788 N2776 0.984 . S
H2789 N2776 0.985 1_545 S
C2790 C2791 1.363 . S
C2790 C2796 1.379 1_655 S
C2790 N2798 1.356 . S
C2791 C2790 1.363 . S
C2791 C2797 1.363 . S
C2792 C2793 1.363 . S
C2792 C2797 1.379 1_455 S
C2792 N2799 1.356 . S
C2793 C2792 1.363 . S
C2793 C2796 1.363 . S
N2794 C2796 1.356 . S
N2794 H2806 0.984 . S
N2794 H2807 0.985 . S
N2795 C2797 1.356 . S
N2795 H2800 0.984 . S
N2795 H2801 0.985 . S
C2796 C2790 1.379 1_455 S
C2796 C2793 1.363 . S
C2796 N2794 1.356 . S
C2797 C2791 1.363 . S
C2797 C2792 1.379 1_655 S
C2797 N2795 1.356 . S
N2798 C2790 1.356 . S
N2798 H2804 0.984 . S
N2798 H2805 0.984 . S
N2799 C2792 1.356 . S
N2799 H2802 0.984 . S
N2799 H2803 0.985 . S
H2800 N2795 0.984 . S
H2801 N2795 0.985 . S
H2802 N2799 0.984 . S
H2803 N2799 0.985 . S
H2804 N2798 0.984 . S
H2805 N2798 0.984 . S
H2806 N2794 0.984 . S
H2807 N2794 0.985 . S
C2808 C2809 1.363 . S
C2808 C2814 1.379 . S
C2808 N2816 1.356 . S
C2809 C2808 1.363 . S
C2809 C2815 1.363 . S
C2810 C2811 1.363 . S
C2810 C2815 1.379 . S
C2810 N2817 1.356 . S
C2811 C2810 1.363 . S
C2811 C2814 1.363 . S
N2812 C2814 1.356 . S
N2812 H2824 0.984 . S
N2812 H2825 0.985 . S
N2813 C2815 1.356 . S
N2813 H2818 0.984 . S
N2813 H2819 0.985 . S
C2814 C2808 1.379 . S
C2814 C2811 1.363 . S
C2814 N2812 1.356 . S
C2815 C2809 1.363 . S
C2815 C2810 1.379 . S
C2815 N2813 1.356 . S
N2816 C2808 1.356 . S
N2816 H2822 0.984 . S
N2816 H2823 0.984 . S
N2817 C2810 1.356 . S
N2817 H2820 0.984 . S
N2817 H2821 0.985 . S
H2818 N2813 0.984 . S
H2819 N2813 0.985 . S
H2820 N2817 0.984 . S
H2821 N2817 0.985 . S
H2822 N2816 0.984 . S
H2823 N2816 0.984 . S
H2824 N2812 0.984 . S
H2825 N2812 0.985 . S
C2826 C2827 1.363 . S
C2826 C2832 1.379 . S
C2826 N2834 1.356 . S
C2827 C2826 1.363 . S
C2827 C2833 1.363 1_545 S
C2828 C2829 1.363 . S
C2828 C2833 1.379 . S
C2828 N2835 1.356 . S
C2829 C2828 1.363 . S
C2829 C2832 1.363 1_565 S
N2830 C2832 1.356 1_565 S
N2830 H2842 0.984 1_565 S
N2830 H2843 0.985 . S
N2831 C2833 1.356 1_545 S
N2831 H2836 0.984 . S
N2831 H2837 0.985 1_545 S
C2832 C2826 1.379 . S
C2832 C2829 1.363 1_545 S
C2832 N2830 1.356 1_545 S
C2833 C2827 1.363 1_565 S
C2833 C2828 1.379 . S
C2833 N2831 1.356 1_565 S
N2834 C2826 1.356 . S
N2834 H2840 0.984 . S
N2834 H2841 0.984 . S
N2835 C2828 1.356 . S
N2835 H2838 0.984 . S
N2835 H2839 0.985 . S
H2836 N2831 0.984 . S
H2837 N2831 0.985 1_565 S
H2838 N2835 0.984 . S
H2839 N2835 0.985 . S
H2840 N2834 0.984 . S
H2841 N2834 0.984 . S
H2842 N2830 0.984 1_545 S
H2843 N2830 0.985 . S
C2844 C2845 1.363 . S
C2844 C2850 1.379 . S
C2844 N2852 1.356 . S
C2845 C2844 1.363 . S
C2845 C2851 1.363 . S
C2846 C2847 1.363 . S
C2846 C2851 1.379 . S
C2846 N2853 1.356 . S
C2847 C2846 1.363 . S
C2847 C2850 1.363 . S
N2848 C2850 1.356 . S
N2848 H2860 0.984 . S
N2848 H2861 0.985 . S
N2849 C2851 1.356 . S
N2849 H2854 0.984 . S
N2849 H2855 0.985 . S
C2850 C2844 1.379 . S
C2850 C2847 1.363 . S
C2850 N2848 1.356 . S
C2851 C2845 1.363 . S
C2851 C2846 1.379 . S
C2851 N2849 1.356 . S
N2852 C2844 1.356 . S
N2852 H2858 0.984 . S
N2852 H2859 0.984 . S
N2853 C2846 1.356 . S
N2853 H2856 0.984 . S
N2853 H2857 0.985 . S
H2854 N2849 0.984 . S
H2855 N2849 0.985 . S
H2856 N2853 0.984 . S
H2857 N2853 0.985 . S
H2858 N2852 0.984 . S
H2859 N2852 0.984 . S
H2860 N2848 0.984 . S
H2861 N2848 0.985 . S
C2862 C2863 1.363 . S
C2862 C2868 1.379 . S
C2862 N2870 1.356 . S
C2863 C2862 1.363 . S
C2863 C2869 1.363 . S
C2864 C2865 1.363 . S
C2864 C2869 1.379 . S
C2864 N2871 1.356 . S
C2865 C2864 1.363 . S
C2865 C2868 1.363 . S
N2866 C2868 1.356 . S
N2866 H2878 0.984 . S
N2866 H2879 0.985 . S
N2867 C2869 1.356 . S
N2867 H2872 0.984 . S
N2867 H2873 0.985 . S
C2868 C2862 1.379 . S
C2868 C2865 1.363 . S
C2868 N2866 1.356 . S
C2869 C2863 1.363 . S
C2869 C2864 1.379 . S
C2869 N2867 1.356 . S
N2870 C2862 1.356 . S
N2870 H2876 0.984 . S
N2870 H2877 0.984 . S
N2871 C2864 1.356 . S
N2871 H2874 0.984 . S
N2871 H2875 0.985 . S
H2872 N2867 0.984 . S
H2873 N2867 0.985 . S
H2874 N2871 0.984 . S
H2875 N2871 0.985 . S
H2876 N2870 0.984 . S
H2877 N2870 0.984 . S
H2878 N2866 0.984 . S
H2879 N2866 0.985 . S
C2880 C2881 1.363 . S
C2880 C2886 1.379 . S
C2880 N2888 1.356 . S
C2881 C2880 1.363 . S
C2881 C2887 1.363 . S
C2882 C2883 1.363 . S
C2882 C2887 1.379 . S
C2882 N2889 1.356 . S
C2883 C2882 1.363 . S
C2883 C2886 1.363 . S
N2884 C2886 1.356 . S
N2884 H2896 0.984 . S
N2884 H2897 0.985 . S
N2885 C2887 1.356 . S
N2885 H2890 0.984 . S
N2885 H2891 0.985 . S
C2886 C2880 1.379 . S
C2886 C2883 1.363 . S
C2886 N2884 1.356 . S
C2887 C2881 1.363 . S
C2887 C2882 1.379 . S
C2887 N2885 1.356 . S
N2888 C2880 1.356 . S
N2888 H2894 0.984 . S
N2888 H2895 0.984 . S
N2889 C2882 1.356 . S
N2889 H2892 0.984 . S
N2889 H2893 0.985 . S
H2890 N2885 0.984 . S
H2891 N2885 0.985 . S
H2892 N2889 0.984 . S
H2893 N2889 0.985 . S
H2894 N2888 0.984 . S
H2895 N2888 0.984 . S
H2896 N2884 0.984 . S
H2897 N2884 0.985 . S
C2898 C2899 1.363 . S
C2898 C2904 1.379 . S
C2898 N2906 1.356 . S
C2899 C2898 1.363 . S
C2899 C2905 1.363 . S
C2900 C2901 1.363 . S
C2900 C2905 1.379 . S
C2900 N2907 1.356 . S
C2901 C2900 1.363 . S
C2901 C2904 1.363 . S
N2902 C2904 1.356 . S
N2902 H2914 0.984 . S
N2902 H2915 0.985 . S
N2903 C2905 1.356 . S
N2903 H2908 0.984 . S
N2903 H2909 0.985 . S
C2904 C2898 1.379 . S
C2904 C2901 1.363 . S
C2904 N2902 1.356 . S
C2905 C2899 1.363 . S
C2905 C2900 1.379 . S
C2905 N2903 1.356 . S
N2906 C2898 1.356 . S
N2906 H2912 0.984 . S
N2906 H2913 0.984 . S
N2907 C2900 1.356 . S
N2907 H2910 0.984 . S
N2907 H2911 0.985 . S
H2908 N2903 0.984 . S
H2909 N2903 0.985 . S
H2910 N2907 0.984 . S
H2911 N2907 0.985 . S
H2912 N2906 0.984 . S
H2913 N2906 0.984 . S
H2914 N2902 0.984 . S
H2915 N2902 0.985 . S
C2916 C2917 1.363 . S
C2916 C2922 1.379 . S
C2916 N2924 1.356 . S
C2917 C2916 1.363 . S
C2917 C2923 1.363 . S
C2918 C2919 1.363 . S
C2918 C2923 1.379 . S
C2918 N2925 1.356 . S
C2919 C2918 1.363 . S
C2919 C2922 1.363 . S
N2920 C2922 1.356 . S
N2920 H2932 0.984 . S
N2920 H2933 0.985 . S
N2921 C2923 1.356 . S
N2921 H2926 0.984 . S
N2921 H2927 0.985 . S
C2922 C2916 1.379 . S
C2922 C2919 1.363 . S
C2922 N2920 1.356 . S
C2923 C2917 1.363 . S
C2923 C2918 1.379 . S
C2923 N2921 1.356 . S
N2924 C2916 1.356 . S
N2924 H2930 0.984 . S
N2924 H2931 0.984 . S
N2925 C2918 1.356 . S
N2925 H2928 0.984 . S
N2925 H2929 0.985 . S
H2926 N2921 0.984 . S
H2927 N2921 0.985 . S
H2928 N2925 0.984 . S
H2929 N2925 0.985 . S
H2930 N2924 0.984 . S
H2931 N2924 0.984 . S
H2932 N2920 0.984 . S
H2933 N2920 0.985 . S
C2934 C2935 1.363 . S
C2934 C2940 1.379 . S
C2934 N2942 1.356 . S
C2935 C2934 1.363 . S
C2935 C2941 1.363 . S
C2936 C2937 1.363 . S
C2936 C2941 1.379 . S
C2936 N2943 1.356 . S
C2937 C2936 1.363 . S
C2937 C2940 1.363 . S
N2938 C2940 1.356 . S
N2938 H2950 0.984 . S
N2938 H2951 0.985 . S
N2939 C2941 1.356 . S
N2939 H2944 0.984 . S
N2939 H2945 0.985 . S
C2940 C2934 1.379 . S
C2940 C2937 1.363 . S
C2940 N2938 1.356 . S
C2941 C2935 1.363 . S
C2941 C2936 1.379 . S
C2941 N2939 1.356 . S
N2942 C2934 1.356 . S
N2942 H2948 0.984 . S
N2942 H2949 0.984 . S
N2943 C2936 1.356 . S
N2943 H2946 0.984 . S
N2943 H2947 0.985 . S
H2944 N2939 0.984 . S
H2945 N2939 0.985 . S
H2946 N2943 0.984 . S
H2947 N2943 0.985 . S
H2948 N2942 0.984 . S
H2949 N2942 0.984 . S
H2950 N2938 0.984 . S
H2951 N2938 0.985 . S
C2952 C2953 1.363 1_556 S
C2952 C2958 1.379 . S
C2952 N2960 1.356 1_556 S
C2953 C2952 1.363 1_554 S
C2953 C2959 1.363 . S
C2954 C2955 1.363 . S
C2954 C2959 1.379 1_556 S
C2954 N2961 1.356 . S
C2955 C2954 1.363 . S
C2955 C2958 1.363 . S
N2956 C2958 1.356 . S
N2956 H2968 0.984 . S
N2956 H2969 0.985 . S
N2957 C2959 1.356 . S
N2957 H2962 0.984 . S
N2957 H2963 0.985 . S
C2958 C2952 1.379 . S
C2958 C2955 1.363 . S
C2958 N2956 1.356 . S
C2959 C2953 1.363 . S
C2959 C2954 1.379 1_554 S
C2959 N2957 1.356 . S
N2960 C2952 1.356 1_554 S
N2960 H2966 0.984 1_554 S
N2960 H2967 0.984 . S
N2961 C2954 1.356 . S
N2961 H2964 0.984 . S
N2961 H2965 0.985 . S
H2962 N2957 0.984 . S
H2963 N2957 0.985 . S
H2964 N2961 0.984 . S
H2965 N2961 0.985 . S
H2966 N2960 0.984 1_556 S
H2967 N2960 0.984 . S
H2968 N2956 0.984 . S
H2969 N2956 0.985 . S
C2970 C2971 1.363 . S
C2970 C2976 1.379 . S
C2970 N2978 1.356 . S
C2971 C2970 1.363 . S
C2971 C2977 1.363 . S
C2972 C2973 1.363 . S
C2972 C2977 1.379 1_554 S
C2972 N2979 1.356 . S
C2973 C2972 1.363 . S
C2973 C2976 1.363 1_554 S
N2974 C2976 1.356 . S
N2974 H2986 0.984 . S
N2974 H2987 0.985 1_556 S
N2975 C2977 1.356 . S
N2975 H2980 0.984 . S
N2975 H2981 0.985 . S
C2976 C2970 1.379 . S
C2976 C2973 1.363 1_556 S
C2976 N2974 1.356 . S
C2977 C2971 1.363 . S
C2977 C2972 1.379 1_556 S
C2977 N2975 1.356 . S
N2978 C2970 1.356 . S
N2978 H2984 0.984 . S
N2978 H2985 0.984 . S
N2979 C2972 1.356 . S
N2979 H2982 0.984 . S
N2979 H2983 0.985 . S
H2980 N2975 0.984 . S
H2981 N2975 0.985 . S
H2982 N2979 0.984 . S
H2983 N2979 0.985 . S
H2984 N2978 0.984 . S
H2985 N2978 0.984 . S
H2986 N2974 0.984 . S
H2987 N2974 0.985 1_554 S
C2988 C2989 1.363 . S
C2988 C2994 1.379 1_556 S
C2988 N2996 1.356 . S
C2989 C2988 1.363 . S
C2989 C2995 1.363 . S
C2990 C2991 1.363 1_556 S
C2990 C2995 1.379 . S
C2990 N2997 1.356 . S
C2991 C2990 1.363 1_554 S
C2991 C2994 1.363 . S
N2992 C2994 1.356 . S
N2992 H3004 0.984 . S
N2992 H3005 0.985 . S
N2993 C2995 1.356 . S
N2993 H2998 0.984 . S
N2993 H2999 0.985 . S
C2994 C2988 1.379 1_554 S
C2994 C2991 1.363 . S
C2994 N2992 1.356 . S
C2995 C2989 1.363 . S
C2995 C2990 1.379 . S
C2995 N2993 1.356 . S
N2996 C2988 1.356 . S
N2996 H3002 0.984 1_556 S
N2996 H3003 0.984 . S
N2997 C2990 1.356 . S
N2997 H3000 0.984 1_556 S
N2997 H3001 0.985 . S
H2998 N2993 0.984 . S
H2999 N2993 0.985 . S
H3000 N2997 0.984 1_554 S
H3001 N2997 0.985 . S
H3002 N2996 0.984 1_554 S
H3003 N2996 0.984 . S
H3004 N2992 0.984 . S
H3005 N2992 0.985 . S
C3006 C3007 1.363 . S
C3006 C3012 1.379 . S
C3006 N3014 1.356 . S
C3007 C3006 1.363 . S
C3007 C3013 1.363 . S
C3008 C3009 1.363 . S
C3008 C3013 1.379 . S
C3008 N3015 1.356 . S
C3009 C3008 1.363 . S
C3009 C3012 1.363 . S
N3010 C3012 1.356 . S
N3010 H3022 0.984 . S
N3010 H3023 0.985 . S
N3011 C3013 1.356 . S
N3011 H3016 0.984 . S
N3011 H3017 0.985 . S
C3012 C3006 1.379 . S
C3012 C3009 1.363 . S
C3012 N3010 1.356 . S
C3013 C3007 1.363 . S
C3013 C3008 1.379 . S
C3013 N3011 1.356 . S
N3014 C3006 1.356 . S
N3014 H3020 0.984 . S
N3014 H3021 0.984 . S
N3015 C3008 1.356 . S
N3015 H3018 0.984 . S
N3015 H3019 0.985 . S
H3016 N3011 0.984 . S
H3017 N3011 0.985 . S
H3018 N3015 0.984 . S
H3019 N3015 0.985 . S
H3020 N3014 0.984 . S
H3021 N3014 0.984 . S
H3022 N3010 0.984 . S
H3023 N3010 0.985 . S
C3024 C3025 1.363 . S
C3024 C3030 1.379 . S
C3024 N3032 1.356 . S
C3025 C3024 1.363 . S
C3025 C3031 1.363 . S
C3026 C3027 1.363 . S
C3026 C3031 1.379 . S
C3026 N3033 1.356 . S
C3027 C3026 1.363 . S
C3027 C3030 1.363 . S
N3028 C3030 1.356 . S
N3028 H3040 0.984 . S
N3028 H3041 0.985 . S
N3029 C3031 1.356 . S
N3029 H3034 0.984 . S
N3029 H3035 0.985 . S
C3030 C3024 1.379 . S
C3030 C3027 1.363 . S
C3030 N3028 1.356 . S
C3031 C3025 1.363 . S
C3031 C3026 1.379 . S
C3031 N3029 1.356 . S
N3032 C3024 1.356 . S
N3032 H3038 0.984 . S
N3032 H3039 0.984 . S
N3033 C3026 1.356 . S
N3033 H3036 0.984 . S
N3033 H3037 0.985 . S
H3034 N3029 0.984 . S
H3035 N3029 0.985 . S
H3036 N3033 0.984 . S
H3037 N3033 0.985 . S
H3038 N3032 0.984 . S
H3039 N3032 0.984 . S
H3040 N3028 0.984 . S
H3041 N3028 0.985 . S
C3042 C3043 1.363 . S
C3042 C3048 1.379 . S
C3042 N3050 1.356 . S
C3043 C3042 1.363 . S
C3043 C3049 1.363 . S
C3044 C3045 1.363 . S
C3044 C3049 1.379 . S
C3044 N3051 1.356 . S
C3045 C3044 1.363 . S
C3045 C3048 1.363 . S
N3046 C3048 1.356 . S
N3046 H3058 0.984 . S
N3046 H3059 0.985 . S
N3047 C3049 1.356 . S
N3047 H3052 0.984 . S
N3047 H3053 0.985 . S
C3048 C3042 1.379 . S
C3048 C3045 1.363 . S
C3048 N3046 1.356 . S
C3049 C3043 1.363 . S
C3049 C3044 1.379 . S
C3049 N3047 1.356 . S
N3050 C3042 1.356 . S
N3050 H3056 0.984 . S
N3050 H3057 0.984 . S
N3051 C3044 1.356 . S
N3051 H3054 0.984 . S
N3051 H3055 0.985 . S
H3052 N3047 0.984 . S
H3053 N3047 0.985 . S
H3054 N3051 0.984 . S
H3055 N3051 0.985 . S
H3056 N3050 0.984 . S
H3057 N3050 0.984 . S
H3058 N3046 0.984 . S
H3059 N3046 0.985 . S
C3060 C3061 1.363 . S
C3060 C3066 1.379 1_455 S
C3060 N3068 1.356 . S
C3061 C3060 1.363 . S
C3061 C3067 1.363 . S
C3062 C3063 1.363 . S
C3062 C3067 1.379 1_655 S
C3062 N3069 1.356 . S
C3063 C3062 1.363 . S
C3063 C3066 1.363 . S
N3064 C3066 1.347 1_556 S
N3064 H3076 0.987 . S
N3064 H3077 0.992 . S
N3065 C3067 1.356 . S
N3065 H3070 0.984 . S
N3065 H3071 0.985 . S
C3066 C3060 1.379 1_655 S
C3066 C3063 1.363 . S
C3066 N3064 1.347 1_554 S
C3067 C3061 1.363 . S
C3067 C3062 1.379 1_455 S
C3067 N3065 1.356 . S
N3068 C3060 1.356 . S
N3068 H3074 0.984 . S
N3068 H3075 0.984 . S
N3069 C3062 1.356 . S
N3069 H3072 0.984 . S
N3069 H3073 0.985 . S
H3070 N3065 0.984 . S
H3071 N3065 0.985 . S
H3072 N3069 0.984 . S
H3073 N3069 0.985 . S
H3074 N3068 0.984 . S
H3075 N3068 0.984 . S
H3076 N3064 0.987 . S
H3077 N3064 0.992 . S
C3078 C3079 1.363 . S
C3078 C3084 1.379 . S
C3078 N3086 1.356 . S
C3079 C3078 1.363 . S
C3079 C3085 1.363 . S
C3080 C3081 1.363 . S
C3080 C3085 1.379 . S
C3080 N3087 1.356 . S
C3081 C3080 1.363 . S
C3081 C3084 1.363 . S
N3082 C3084 1.356 . S
N3082 H3094 0.984 . S
N3082 H3095 0.985 . S
N3083 C3085 1.356 . S
N3083 H3088 0.984 . S
N3083 H3089 0.985 . S
C3084 C3078 1.379 . S
C3084 C3081 1.363 . S
C3084 N3082 1.356 . S
C3085 C3079 1.363 . S
C3085 C3080 1.379 . S
C3085 N3083 1.356 . S
N3086 C3078 1.356 . S
N3086 H3092 0.984 . S
N3086 H3093 0.984 . S
N3087 C3080 1.356 . S
N3087 H3090 0.984 1_554 S
N3087 H3091 0.985 . S
H3088 N3083 0.984 . S
H3089 N3083 0.985 . S
H3090 N3087 0.984 1_556 S
H3091 N3087 0.985 . S
H3092 N3086 0.984 . S
H3093 N3086 0.984 . S
H3094 N3082 0.984 . S
H3095 N3082 0.985 . S
C3096 C3097 1.363 1_565 S
C3096 C3102 1.379 . S
C3096 N3104 1.356 1_554 S
C3097 C3096 1.363 1_545 S
C3097 C3103 1.363 . S
C3098 C3099 1.363 1_545 S
C3098 C3103 1.379 . S
C3098 N3105 1.356 . S
C3099 C3098 1.363 1_565 S
C3099 C3102 1.363 . S
N3100 C3102 1.356 . S
N3100 H3112 0.984 . S
N3100 H3113 0.985 . S
N3101 C3103 1.356 . S
N3101 H3106 0.984 . S
N3101 H3107 0.985 . S
C3102 C3096 1.379 . S
C3102 C3099 1.363 . S
C3102 N3100 1.356 . S
C3103 C3097 1.363 . S
C3103 C3098 1.379 . S
C3103 N3101 1.356 . S
N3104 C3096 1.356 1_556 S
N3104 H3110 0.984 . S
N3104 H3111 0.984 1_565 S
N3105 C3098 1.356 . S
N3105 H3108 0.984 1_545 S
N3105 H3109 0.985 . S
H3106 N3101 0.984 . S
H3107 N3101 0.985 . S
H3108 N3105 0.984 1_565 S
H3109 N3105 0.985 . S
H3110 N3104 0.984 . S
H3111 N3104 0.984 1_545 S
H3112 N3100 0.984 . S
H3113 N3100 0.985 . S
C3114 C3115 1.363 1_545 S
C3114 C3120 1.379 . S
C3114 N3122 1.356 . S
C3115 C3114 1.363 1_565 S
C3115 C3121 1.363 . S
C3116 C3117 1.363 1_565 S
C3116 C3121 1.379 . S
C3116 N3123 1.356 . S
C3117 C3116 1.363 1_545 S
C3117 C3120 1.363 . S
N3118 C3120 1.356 . S
N3118 H3130 0.984 . S
N3118 H3131 0.985 . S
N3119 C3121 1.356 . S
N3119 H3124 0.984 . S
N3119 H3125 0.985 . S
C3120 C3114 1.379 . S
C3120 C3117 1.363 . S
C3120 N3118 1.356 . S
C3121 C3115 1.363 . S
C3121 C3116 1.379 . S
C3121 N3119 1.356 . S
N3122 C3114 1.356 . S
N3122 H3128 0.984 . S
N3122 H3129 0.984 1_545 S
N3123 C3116 1.356 . S
N3123 H3126 0.984 1_565 S
N3123 H3127 0.985 . S
H3124 N3119 0.984 . S
H3125 N3119 0.985 . S
H3126 N3123 0.984 1_545 S
H3127 N3123 0.985 . S
H3128 N3122 0.984 . S
H3129 N3122 0.984 1_565 S
H3130 N3118 0.984 . S
H3131 N3118 0.985 . S
C3132 C3133 1.363 . S
C3132 C3138 1.379 . S
C3132 N3140 1.356 . S
C3133 C3132 1.363 . S
C3133 C3139 1.363 1_655 S
C3134 C3135 1.363 . S
C3134 C3139 1.379 . S
C3134 N3141 1.356 . S
C3135 C3134 1.363 . S
C3135 C3138 1.363 1_455 S
N3136 C3138 1.356 . S
N3136 H3148 0.984 . S
N3136 H3149 0.985 1_655 S
N3137 C3139 1.356 . S
N3137 H3142 0.984 1_455 S
N3137 H3143 0.985 . S
C3138 C3132 1.379 . S
C3138 C3135 1.363 1_655 S
C3138 N3136 1.356 . S
C3139 C3133 1.363 1_455 S
C3139 C3134 1.379 . S
C3139 N3137 1.356 . S
N3140 C3132 1.356 . S
N3140 H3146 0.984 . S
N3140 H3147 0.984 . S
N3141 C3134 1.356 . S
N3141 H3144 0.984 . S
N3141 H3145 0.985 . S
H3142 N3137 0.984 1_655 S
H3143 N3137 0.985 . S
H3144 N3141 0.984 . S
H3145 N3141 0.985 . S
H3146 N3140 0.984 . S
H3147 N3140 0.984 . S
H3148 N3136 0.984 . S
H3149 N3136 0.985 1_455 S
C3150 C3151 1.363 . S
C3150 C3156 1.379 . S
C3150 N3158 1.356 . S
C3151 C3150 1.363 . S
C3151 C3157 1.363 . S
C3152 C3153 1.363 . S
C3152 C3157 1.379 . S
C3152 N3159 1.356 . S
C3153 C3152 1.363 . S
C3153 C3156 1.363 . S
N3154 C3156 1.356 . S
N3154 H3166 0.984 . S
N3154 H3167 0.985 . S
N3155 C3157 1.356 . S
N3155 H3160 0.984 . S
N3155 H3161 0.985 . S
C3156 C3150 1.379 . S
C3156 C3153 1.363 . S
C3156 N3154 1.356 . S
C3157 C3151 1.363 . S
C3157 C3152 1.379 . S
C3157 N3155 1.356 . S
N3158 C3150 1.356 . S
N3158 H3164 0.984 . S
N3158 H3165 0.984 . S
N3159 C3152 1.356 . S
N3159 H3162 0.984 . S
N3159 H3163 0.985 . S
H3160 N3155 0.984 . S
H3161 N3155 0.985 . S
H3162 N3159 0.984 . S
H3163 N3159 0.985 . S
H3164 N3158 0.984 . S
H3165 N3158 0.984 . S
H3166 N3154 0.984 . S
H3167 N3154 0.985 . S
C3168 C3169 1.363 . S
C3168 C3174 1.379 . S
C3168 N3176 1.356 . S
C3169 C3168 1.363 . S
C3169 C3175 1.363 . S
C3170 C3171 1.363 . S
C3170 C3175 1.379 . S
C3170 N3177 1.356 . S
C3171 C3170 1.363 . S
C3171 C3174 1.363 . S
N3172 C3174 1.356 . S
N3172 H3184 0.984 . S
N3172 H3185 0.985 . S
N3173 C3175 1.356 . S
N3173 H3178 0.984 . S
N3173 H3179 0.985 . S
C3174 C3168 1.379 . S
C3174 C3171 1.363 . S
C3174 N3172 1.356 . S
C3175 C3169 1.363 . S
C3175 C3170 1.379 . S
C3175 N3173 1.356 . S
N3176 C3168 1.356 . S
N3176 H3182 0.984 . S
N3176 H3183 0.984 . S
N3177 C3170 1.356 . S
N3177 H3180 0.984 . S
N3177 H3181 0.985 . S
H3178 N3173 0.984 . S
H3179 N3173 0.985 . S
H3180 N3177 0.984 . S
H3181 N3177 0.985 . S
H3182 N3176 0.984 . S
H3183 N3176 0.984 . S
H3184 N3172 0.984 . S
H3185 N3172 0.985 . S
C3186 C3187 1.363 . S
C3186 C3192 1.379 . S
C3186 N3194 1.356 . S
C3187 C3186 1.363 . S
C3187 C3193 1.363 . S
C3188 C3189 1.363 . S
C3188 C3193 1.379 . S
C3188 N3195 1.356 . S
C3189 C3188 1.363 . S
C3189 C3192 1.363 . S
N3190 C3192 1.356 . S
N3190 H3202 0.984 . S
N3190 H3203 0.985 . S
N3191 C3193 1.356 . S
N3191 H3196 0.984 . S
N3191 H3197 0.985 . S
C3192 C3186 1.379 . S
C3192 C3189 1.363 . S
C3192 N3190 1.356 . S
C3193 C3187 1.363 . S
C3193 C3188 1.379 . S
C3193 N3191 1.356 . S
N3194 C3186 1.356 . S
N3194 H3200 0.984 . S
N3194 H3201 0.984 . S
N3195 C3188 1.356 . S
N3195 H3198 0.984 . S
N3195 H3199 0.985 . S
H3196 N3191 0.984 . S
H3197 N3191 0.985 . S
H3198 N3195 0.984 . S
H3199 N3195 0.985 . S
H3200 N3194 0.984 . S
H3201 N3194 0.984 . S
H3202 N3190 0.984 . S
H3203 N3190 0.985 . S
C3204 C3205 1.363 . S
C3204 C3210 1.379 . S
C3204 N3212 1.356 . S
C3205 C3204 1.363 . S
C3205 C3211 1.363 . S
C3206 C3207 1.363 . S
C3206 C3211 1.379 . S
C3206 N3213 1.356 . S
C3207 C3206 1.363 . S
C3207 C3210 1.363 . S
N3208 C3210 1.356 . S
N3208 H3220 0.984 . S
N3208 H3221 0.985 . S
N3209 C3211 1.356 . S
N3209 H3214 0.984 . S
N3209 H3215 0.985 . S
C3210 C3204 1.379 . S
C3210 C3207 1.363 . S
C3210 N3208 1.356 . S
C3211 C3205 1.363 . S
C3211 C3206 1.379 . S
C3211 N3209 1.356 . S
N3212 C3204 1.356 . S
N3212 H3218 0.984 . S
N3212 H3219 0.984 . S
N3213 C3206 1.356 . S
N3213 H3216 0.984 . S
N3213 H3217 0.985 . S
H3214 N3209 0.984 . S
H3215 N3209 0.985 . S
H3216 N3213 0.984 . S
H3217 N3213 0.985 . S
H3218 N3212 0.984 . S
H3219 N3212 0.984 . S
H3220 N3208 0.984 . S
H3221 N3208 0.985 . S
C3222 C3223 1.363 . S
C3222 C3228 1.379 . S
C3222 N3230 1.356 . S
C3223 C3222 1.363 . S
C3223 C3229 1.363 . S
C3224 C3225 1.363 . S
C3224 C3229 1.379 . S
C3224 N3231 1.356 . S
C3225 C3224 1.363 . S
C3225 C3228 1.363 . S
N3226 C3228 1.356 . S
N3226 H3238 0.984 . S
N3226 H3239 0.985 . S
N3227 C3229 1.356 . S
N3227 H3232 0.990 . S
N3227 H3233 0.985 1_556 S
C3228 C3222 1.379 . S
C3228 C3225 1.363 . S
C3228 N3226 1.356 . S
C3229 C3223 1.363 . S
C3229 C3224 1.379 . S
C3229 N3227 1.356 . S
N3230 C3222 1.356 . S
N3230 H3236 0.984 . S
N3230 H3237 0.984 . S
N3231 C3224 1.356 . S
N3231 H3234 0.984 . S
N3231 H3235 0.985 . S
H3232 N3227 0.990 . S
H3233 N3227 0.985 1_554 S
H3234 N3231 0.984 . S
H3235 N3231 0.985 . S
H3236 N3230 0.984 . S
H3237 N3230 0.984 . S
H3238 N3226 0.984 . S
H3239 N3226 0.985 . S
C3240 C3241 1.363 . S
C3240 C3246 1.379 . S
C3240 N3248 1.356 . S
C3241 C3240 1.363 . S
C3241 C3247 1.363 . S
C3242 C3243 1.363 . S
C3242 C3247 1.379 . S
C3242 N3249 1.356 . S
C3243 C3242 1.363 . S
C3243 C3246 1.363 . S
N3244 C3246 1.356 . S
N3244 H3256 0.984 . S
N3244 H3257 0.985 . S
N3245 C3247 1.356 . S
N3245 H3250 0.984 . S
N3245 H3251 0.985 . S
C3246 C3240 1.379 . S
C3246 C3243 1.363 . S
C3246 N3244 1.356 . S
C3247 C3241 1.363 . S
C3247 C3242 1.379 . S
C3247 N3245 1.356 . S
N3248 C3240 1.356 . S
N3248 H3254 0.984 . S
N3248 H3255 0.984 . S
N3249 C3242 1.356 . S
N3249 H3252 0.984 . S
N3249 H3253 0.985 . S
H3250 N3245 0.984 . S
H3251 N3245 0.985 . S
H3252 N3249 0.984 . S
H3253 N3249 0.985 . S
H3254 N3248 0.984 . S
H3255 N3248 0.984 . S
H3256 N3244 0.984 . S
H3257 N3244 0.985 . S
C3258 C3259 1.363 . S
C3258 C3264 1.379 . S
C3258 N3266 1.356 . S
C3259 C3258 1.363 . S
C3259 C3265 1.363 . S
C3260 C3261 1.363 . S
C3260 C3265 1.379 . S
C3260 N3267 1.356 . S
C3261 C3260 1.363 . S
C3261 C3264 1.363 . S
N3262 C3264 1.356 . S
N3262 H3274 0.984 . S
N3262 H3275 0.985 . S
N3263 C3265 1.356 . S
N3263 H3268 0.984 . S
N3263 H3269 0.985 . S
C3264 C3258 1.379 . S
C3264 C3261 1.363 . S
C3264 N3262 1.356 . S
C3265 C3259 1.363 . S
C3265 C3260 1.379 . S
C3265 N3263 1.356 . S
N3266 C3258 1.356 . S
N3266 H3272 0.984 . S
N3266 H3273 0.984 . S
N3267 C3260 1.356 . S
N3267 H3270 0.984 . S
N3267 H3271 0.985 . S
H3268 N3263 0.984 . S
H3269 N3263 0.985 . S
H3270 N3267 0.984 . S
H3271 N3267 0.985 . S
H3272 N3266 0.984 . S
H3273 N3266 0.984 . S
H3274 N3262 0.984 . S
H3275 N3262 0.985 . S
C3276 C3277 1.363 . S
C3276 C3282 1.379 . S
C3276 N3284 1.356 . S
C3277 C3276 1.363 . S
C3277 C3283 1.363 . S
C3278 C3279 1.363 . S
C3278 C3283 1.379 . S
C3278 N3285 1.356 . S
C3279 C3278 1.363 . S
C3279 C3282 1.363 . S
N3280 C3282 1.356 . S
N3280 H3292 0.984 . S
N3280 H3293 0.985 . S
N3281 C3283 1.356 . S
N3281 H3286 0.984 . S
N3281 H3287 0.985 . S
C3282 C3276 1.379 . S
C3282 C3279 1.363 . S
C3282 N3280 1.356 . S
C3283 C3277 1.363 . S
C3283 C3278 1.379 . S
C3283 N3281 1.356 . S
N3284 C3276 1.356 . S
N3284 H3290 0.984 . S
N3284 H3291 0.984 . S
N3285 C3278 1.356 . S
N3285 H3288 0.984 . S
N3285 H3289 0.985 . S
H3286 N3281 0.984 . S
H3287 N3281 0.985 . S
H3288 N3285 0.984 . S
H3289 N3285 0.985 . S
H3290 N3284 0.984 . S
H3291 N3284 0.984 . S
H3292 N3280 0.984 . S
H3293 N3280 0.985 . S
C3294 C3295 1.363 . S
C3294 C3300 1.379 . S
C3294 N3302 1.356 . S
C3295 C3294 1.363 . S
C3295 C3301 1.363 . S
C3296 C3297 1.363 . S
C3296 C3301 1.379 . S
C3296 N3303 1.356 . S
C3297 C3296 1.363 . S
C3297 C3300 1.363 . S
N3298 C3300 1.356 . S
N3298 H3310 0.984 . S
N3298 H3311 0.985 . S
N3299 C3301 1.356 . S
N3299 H3304 0.984 . S
N3299 H3305 0.985 . S
C3300 C3294 1.379 . S
C3300 C3297 1.363 . S
C3300 N3298 1.356 . S
C3301 C3295 1.363 . S
C3301 C3296 1.379 . S
C3301 N3299 1.356 . S
N3302 C3294 1.356 . S
N3302 H3308 0.984 . S
N3302 H3309 0.984 . S
N3303 C3296 1.356 . S
N3303 H3306 0.984 . S
N3303 H3307 0.985 . S
H3304 N3299 0.984 . S
H3305 N3299 0.985 . S
H3306 N3303 0.984 . S
H3307 N3303 0.985 . S
H3308 N3302 0.984 . S
H3309 N3302 0.984 . S
H3310 N3298 0.984 . S
H3311 N3298 0.985 . S
C3312 C3313 1.363 . S
C3312 C3318 1.379 . S
C3312 N3320 1.356 . S
C3313 C3312 1.363 . S
C3313 C3319 1.363 . S
C3314 C3315 1.363 . S
C3314 C3319 1.379 . S
C3314 N3321 1.356 . S
C3315 C3314 1.363 . S
C3315 C3318 1.363 . S
N3316 C3318 1.356 . S
N3316 H3328 0.984 . S
N3316 H3329 0.985 . S
N3317 C3319 1.356 . S
N3317 H3322 0.984 . S
N3317 H3323 0.985 . S
C3318 C3312 1.379 . S
C3318 C3315 1.363 . S
C3318 N3316 1.356 . S
C3319 C3313 1.363 . S
C3319 C3314 1.379 . S
C3319 N3317 1.356 . S
N3320 C3312 1.356 . S
N3320 H3326 0.984 . S
N3320 H3327 0.984 . S
N3321 C3314 1.356 . S
N3321 H3324 0.984 . S
N3321 H3325 0.985 . S
H3322 N3317 0.984 . S
H3323 N3317 0.985 . S
H3324 N3321 0.984 . S
H3325 N3321 0.985 . S
H3326 N3320 0.984 . S
H3327 N3320 0.984 . S
H3328 N3316 0.984 . S
H3329 N3316 0.985 . S
C3330 C3331 1.363 . S
C3330 C3336 1.379 . S
C3330 N3338 1.356 . S
C3331 C3330 1.363 . S
C3331 C3337 1.363 . S
C3332 C3333 1.363 . S
C3332 C3337 1.379 . S
C3332 N3339 1.356 . S
C3333 C3332 1.363 . S
C3333 C3336 1.363 . S
N3334 C3336 1.356 . S
N3334 H3346 0.984 . S
N3334 H3347 0.985 . S
N3335 C3337 1.356 . S
N3335 H3340 0.984 . S
N3335 H3341 0.985 . S
C3336 C3330 1.379 . S
C3336 C3333 1.363 . S
C3336 N3334 1.356 . S
C3337 C3331 1.363 . S
C3337 C3332 1.379 . S
C3337 N3335 1.356 . S
N3338 C3330 1.356 . S
N3338 H3344 0.984 . S
N3338 H3345 0.984 . S
N3339 C3332 1.356 . S
N3339 H3342 0.984 . S
N3339 H3343 0.985 . S
H3340 N3335 0.984 . S
H3341 N3335 0.985 . S
H3342 N3339 0.984 . S
H3343 N3339 0.985 . S
H3344 N3338 0.984 . S
H3345 N3338 0.984 . S
H3346 N3334 0.984 . S
H3347 N3334 0.985 . S
C3348 C3349 1.363 . S
C3348 C3354 1.379 . S
C3348 N3356 1.356 . S
C3349 C3348 1.363 . S
C3349 C3355 1.363 . S
C3350 C3351 1.363 . S
C3350 C3355 1.379 . S
C3350 N3357 1.356 . S
C3351 C3350 1.363 . S
C3351 C3354 1.363 . S
N3352 C3354 1.356 . S
N3352 H3364 0.984 . S
N3352 H3365 0.985 . S
N3353 C3355 1.356 . S
N3353 H3358 0.984 . S
N3353 H3359 0.985 . S
C3354 C3348 1.379 . S
C3354 C3351 1.363 . S
C3354 N3352 1.356 . S
C3355 C3349 1.363 . S
C3355 C3350 1.379 . S
C3355 N3353 1.356 . S
N3356 C3348 1.356 . S
N3356 H3362 0.984 . S
N3356 H3363 0.984 . S
N3357 C3350 1.356 . S
N3357 H3360 0.984 . S
N3357 H3361 0.985 . S
H3358 N3353 0.984 . S
H3359 N3353 0.985 . S
H3360 N3357 0.984 . S
H3361 N3357 0.985 . S
H3362 N3356 0.984 . S
H3363 N3356 0.984 . S
H3364 N3352 0.984 . S
H3365 N3352 0.985 . S
C3366 C3367 1.363 . S
C3366 C3372 1.379 . S
C3366 N3374 1.356 . S
C3367 C3366 1.363 . S
C3367 C3373 1.363 . S
C3368 C3369 1.363 . S
C3368 C3373 1.379 . S
C3368 N3375 1.356 . S
C3369 C3368 1.363 . S
C3369 C3372 1.363 . S
N3370 C3372 1.356 . S
N3370 H3382 0.984 . S
N3370 H3383 0.985 . S
N3371 C3373 1.356 . S
N3371 H3376 0.984 . S
N3371 H3377 0.985 . S
C3372 C3366 1.379 . S
C3372 C3369 1.363 . S
C3372 N3370 1.356 . S
C3373 C3367 1.363 . S
C3373 C3368 1.379 . S
C3373 N3371 1.356 . S
N3374 C3366 1.356 . S
N3374 H3380 0.984 . S
N3374 H3381 0.984 . S
N3375 C3368 1.356 . S
N3375 H3378 0.984 . S
N3375 H3379 0.985 . S
H3376 N3371 0.984 . S
H3377 N3371 0.985 . S
H3378 N3375 0.984 . S
H3379 N3375 0.985 . S
H3380 N3374 0.984 . S
H3381 N3374 0.984 . S
H3382 N3370 0.984 . S
H3383 N3370 0.985 . S
C1441 C609 2.560 . S
C1443 C9 2.560 . S
C1459 C649 2.561 . S
C1461 C49 2.561 . S
C1477 C89 2.561 . S
C1479 C689 2.561 . S
C1495 C129 2.560 . S
C1497 C969 2.561 . S
C1513 C169 2.561 . S
C1515 C1009 2.561 . S
C1531 C209 2.561 . S
C1533 C1049 2.561 . S
C1549 C1338 2.561 . S
C1551 C258 2.560 . S
C1567 C1378 2.561 . S
C1569 C298 2.561 . S
C1585 C338 2.561 . S
C1587 C1418 2.561 . S
C1603 C738 2.560 . S
C1605 C378 2.560 . S
C1621 C418 2.561 . S
C1623 C778 2.561 . S
C1639 C458 2.561 . S
C1641 C818 2.561 . S
C1657 C1089 2.561 . S
C1659 C489 2.561 . S
C1675 C529 2.561 . S
C1677 C1129 2.561 . S
C1693 C1169 2.561 . S
C1695 C569 2.561 . S
C1711 C1218 2.560 . S
C1713 C858 2.560 . S
C1729 C1258 2.561 . S
C1731 C898 2.561 . S
C1747 C938 2.561 . S
C1749 C1298 2.561 . S
C1765 C15 0.410 . S
C1767 C175 0.410 . S
C1783 C55 0.410 . S
C1785 C215 0.410 . S
C1801 C95 0.410 . S
C1803 C135 0.410 . S
C1819 C246 0.409 . S
C1821 C406 0.410 . S
C1837 C286 0.410 . S
C1839 C446 0.409 . S
C1855 C326 0.410 . S
C1857 C366 0.410 . S
C1873 C495 0.410 . S
C1875 C655 0.410 . S
C1891 C695 0.410 . S
C1893 C535 0.409 . S
C1909 C575 0.410 . S
C1911 C615 0.410 . S
C1927 C726 0.410 . S
C1929 C886 0.410 . S
C1945 C766 0.410 . S
C1947 C926 0.409 . S
C1963 C846 0.410 . S
C1965 C806 0.410 . S
C1981 C975 0.409 . S
C1983 C1135 0.410 . S
C1999 C1175 0.409 . S
C2001 C1015 0.410 . S
C2017 C1055 0.410 . S
C2019 C1095 0.410 . S
C2035 C1206 0.409 . S
C2037 C1366 0.410 . S
C2053 C1246 0.409 . S
C2055 C1406 0.410 . S
C2071 C1286 0.410 . S
C2073 C1326 0.409 . S
C2089 C415 1.685 . S
C2091 C19 1.784 1_556 S
C2107 C59 1.784 1_556 S
C2109 C455 1.685 . S
C2125 C99 1.784 1_556 S
C2127 C375 1.685 . S
C2143 C139 1.784 . S
C2145 C335 1.685 . S
C2161 C179 1.784 . S
C2163 C255 1.685 . S
C2179 C295 1.685 . S
C2181 C219 1.784 . S
C2197 C250 1.784 . S
C2199 C166 1.685 . S
C2215 C206 1.685 . S
C2217 C290 1.784 . S
C2233 C330 1.784 . S
C2235 C126 1.685 . S
C2251 C370 1.784 . S
C2253 C86 1.685 . S
C2269 C6 1.685 . S
C2271 C410 1.784 . S
C2287 C46 1.685 . S
C2289 C450 1.784 . S
C2305 C895 1.685 . S
C2307 C499 1.784 . S
C2323 C935 1.685 . S
C2325 C539 1.785 . S
C2341 C855 1.685 . S
C2343 C579 1.784 . S
C2359 C815 1.685 . S
C2361 C619 1.784 . S
C2377 C659 1.784 . S
C2379 C735 1.685 . S
C2395 C775 1.685 . S
C2397 C699 1.785 . S
C2413 C646 1.685 . S
C2415 C730 1.784 . S
C2431 C770 1.784 . S
C2433 C686 1.685 . S
C2449 C810 1.784 . S
C2451 C606 1.685 . S
C2467 C566 1.685 . S
C2469 C850 1.784 . S
C2485 C890 1.784 . S
C2487 C486 1.685 . S
C2503 C930 1.785 . S
C2505 C526 1.685 . S
C2521 C979 1.784 . S
C2523 C1375 1.685 . S
C2539 C1019 1.784 . S
C2541 C1415 1.685 . S
C2557 C1335 1.685 . S
C2559 C1059 1.784 . S
C2575 C1295 1.685 . S
C2577 C1099 1.784 . S
C2593 C1139 1.784 . S
C2595 C1215 1.685 . S
C2611 C1255 1.685 . S
C2613 C1179 1.785 . S
C2629 C1210 1.784 . S
C2631 C1126 1.685 . S
C2647 C1166 1.685 . S
C2649 C1250 1.785 . S
C2665 C1290 1.784 . S
C2667 C1086 1.685 . S
C2683 C1330 1.784 . S
C2685 C1046 1.685 . S
C2701 C966 1.685 . S
C2703 C1370 1.784 . S
C2719 C1006 1.685 . S
C2721 C1410 1.784 . S
C2737 C10 3.340 . S
C2739 C170 3.340 . S
C2755 C210 3.340 . S
C2757 C50 3.340 . S
C2773 C90 3.340 . S
C2775 C130 3.340 . S
C2791 C259 3.340 . S
C2793 C419 3.340 . S
C2809 C459 3.340 . S
C2811 C299 3.340 . S
C2827 C339 3.340 . S
C2829 C379 3.340 . S
C2845 C650 3.340 . S
C2847 C490 3.340 . S
C2863 C690 3.340 . S
C2865 C530 3.340 . S
C2881 C610 3.340 . S
C2883 C570 3.340 . S
C2899 C899 3.340 . S
C2901 C739 3.340 . S
C2917 C779 3.340 . S
C2919 C939 3.340 . S
C2935 C859 3.340 . S
C2937 C819 3.340 . S
C2953 C1130 3.340 . S
C2955 C970 3.340 . S
C2971 C1010 3.340 . S
C2973 C1170 3.340 . S
C2989 C1050 3.340 . S
C2991 C1090 3.340 . S
C3007 C1379 3.340 . S
C3009 C1219 3.340 . S
C3025 C1259 3.340 . S
C3027 C1419 3.340 . S
C3043 C1299 3.340 . S
C3045 C1339 3.340 . S
C3061 C18 1.363 . S
C3063 C249 1.363 . S
C3079 C58 1.363 . S
C3081 C289 1.363 . S
C3097 C329 1.363 . S
C3099 C98 1.363 . S
C3115 C369 1.363 . S
C3117 C138 1.363 . S
C3133 C178 1.363 . S
C3135 C409 1.363 . S
C3151 C218 1.363 . S
C3153 C449 1.363 . S
C3169 C729 1.363 . S
C3171 C498 1.363 . S
C3187 C538 1.363 . S
C3189 C769 1.363 . S
C3205 C809 1.363 . S
C3207 C578 1.363 . S
C3223 C849 1.363 . S
C3225 C618 1.363 . S
C3241 C889 1.363 . S
C3243 C658 1.363 . S
C3259 C929 1.363 . S
C3261 C698 1.363 . S
C3277 C1209 1.363 . S
C3279 C978 1.363 . S
C3295 C1018 1.363 . S
C3297 C1249 1.363 . S
C3313 C1289 1.363 . S
C3315 C1058 1.363 . S
C3331 C1329 1.363 . S
C3333 C1098 1.363 . S
C3349 C1369 1.363 . S
C3351 C1138 1.363 . S
C3367 C1178 1.363 . S
C3369 C1409 1.363 . S
