# Generated by pormake.
# Topology wiu, (6)-cn, num edge types: 1
# Building blocks:
#     Node 0, Type 0, BuildingBlock: UKALOJ_clean_sbu_0, # of connection points: 6
#     Node 1, Type 0, BuildingBlock: UKALOJ_clean_sbu_0, # of connection points: 6
#     Node 2, Type 0, BuildingBlock: UKALOJ_clean_sbu_0, # of connection points: 6
#     Node 3, Type 0, BuildingBlock: UKALOJ_clean_sbu_0, # of connection points: 6
#     Node 4, Type 0, BuildingBlock: UKALOJ_clean_sbu_0, # of connection points: 6
#     Node 5, Type 0, BuildingBlock: UKALOJ_clean_sbu_0, # of connection points: 6
#     Node 6, Type 0, BuildingBlock: UKALOJ_clean_sbu_0, # of connection points: 6
#     Node 7, Type 0, BuildingBlock: UKALOJ_clean_sbu_0, # of connection points: 6
#     Node 8, Type 0, BuildingBlock: UKALOJ_clean_sbu_0, # of connection points: 6
#     Node 9, Type 0, BuildingBlock: UKALOJ_clean_sbu_0, # of connection points: 6
#     Node 10, Type 0, BuildingBlock: UKALOJ_clean_sbu_0, # of connection points: 6
#     Node 11, Type 0, BuildingBlock: UKALOJ_clean_sbu_0, # of connection points: 6
#     Node 12, Type 0, BuildingBlock: UKALOJ_clean_sbu_0, # of connection points: 6
#     Node 13, Type 0, BuildingBlock: UKALOJ_clean_sbu_0, # of connection points: 6
#     Node 14, Type 0, BuildingBlock: UKALOJ_clean_sbu_0, # of connection points: 6
#     Node 15, Type 0, BuildingBlock: UKALOJ_clean_sbu_0, # of connection points: 6
#     Edge 16, Type (0, 0), BuildingBlock: AJUNOK_clean_linker_0, # of connection points: 2
#     Edge 17, Type (0, 0), BuildingBlock: AJUNOK_clean_linker_0, # of connection points: 2
#     Edge 18, Type (0, 0), BuildingBlock: AJUNOK_clean_linker_0, # of connection points: 2
#     Edge 19, Type (0, 0), BuildingBlock: AJUNOK_clean_linker_0, # of connection points: 2
#     Edge 20, Type (0, 0), BuildingBlock: AJUNOK_clean_linker_0, # of connection points: 2
#     Edge 21, Type (0, 0), BuildingBlock: AJUNOK_clean_linker_0, # of connection points: 2
#     Edge 22, Type (0, 0), BuildingBlock: AJUNOK_clean_linker_0, # of connection points: 2
#     Edge 23, Type (0, 0), BuildingBlock: AJUNOK_clean_linker_0, # of connection points: 2
#     Edge 24, Type (0, 0), BuildingBlock: AJUNOK_clean_linker_0, # of connection points: 2
#     Edge 25, Type (0, 0), BuildingBlock: AJUNOK_clean_linker_0, # of connection points: 2
#     Edge 26, Type (0, 0), BuildingBlock: AJUNOK_clean_linker_0, # of connection points: 2
#     Edge 27, Type (0, 0), BuildingBlock: AJUNOK_clean_linker_0, # of connection points: 2
#     Edge 28, Type (0, 0), BuildingBlock: AJUNOK_clean_linker_0, # of connection points: 2
#     Edge 29, Type (0, 0), BuildingBlock: AJUNOK_clean_linker_0, # of connection points: 2
#     Edge 30, Type (0, 0), BuildingBlock: AJUNOK_clean_linker_0, # of connection points: 2
#     Edge 31, Type (0, 0), BuildingBlock: AJUNOK_clean_linker_0, # of connection points: 2
#     Edge 32, Type (0, 0), BuildingBlock: AJUNOK_clean_linker_0, # of connection points: 2
#     Edge 33, Type (0, 0), BuildingBlock: AJUNOK_clean_linker_0, # of connection points: 2
#     Edge 34, Type (0, 0), BuildingBlock: AJUNOK_clean_linker_0, # of connection points: 2
#     Edge 35, Type (0, 0), BuildingBlock: AJUNOK_clean_linker_0, # of connection points: 2
#     Edge 36, Type (0, 0), BuildingBlock: AJUNOK_clean_linker_0, # of connection points: 2
#     Edge 37, Type (0, 0), BuildingBlock: AJUNOK_clean_linker_0, # of connection points: 2
#     Edge 38, Type (0, 0), BuildingBlock: AJUNOK_clean_linker_0, # of connection points: 2
#     Edge 39, Type (0, 0), BuildingBlock: AJUNOK_clean_linker_0, # of connection points: 2
#     Edge 40, Type (0, 0), BuildingBlock: AJUNOK_clean_linker_0, # of connection points: 2
#     Edge 41, Type (0, 0), BuildingBlock: AJUNOK_clean_linker_0, # of connection points: 2
#     Edge 42, Type (0, 0), BuildingBlock: AJUNOK_clean_linker_0, # of connection points: 2
#     Edge 43, Type (0, 0), BuildingBlock: AJUNOK_clean_linker_0, # of connection points: 2
#     Edge 44, Type (0, 0), BuildingBlock: AJUNOK_clean_linker_0, # of connection points: 2
#     Edge 45, Type (0, 0), BuildingBlock: AJUNOK_clean_linker_0, # of connection points: 2
#     Edge 46, Type (0, 0), BuildingBlock: AJUNOK_clean_linker_0, # of connection points: 2
#     Edge 47, Type (0, 0), BuildingBlock: AJUNOK_clean_linker_0, # of connection points: 2
#     Edge 48, Type (0, 0), BuildingBlock: AJUNOK_clean_linker_0, # of connection points: 2
#     Edge 49, Type (0, 0), BuildingBlock: AJUNOK_clean_linker_0, # of connection points: 2
#     Edge 50, Type (0, 0), BuildingBlock: AJUNOK_clean_linker_0, # of connection points: 2
#     Edge 51, Type (0, 0), BuildingBlock: AJUNOK_clean_linker_0, # of connection points: 2
#     Edge 52, Type (0, 0), BuildingBlock: AJUNOK_clean_linker_0, # of connection points: 2
#     Edge 53, Type (0, 0), BuildingBlock: AJUNOK_clean_linker_0, # of connection points: 2
#     Edge 54, Type (0, 0), BuildingBlock: AJUNOK_clean_linker_0, # of connection points: 2
#     Edge 55, Type (0, 0), BuildingBlock: AJUNOK_clean_linker_0, # of connection points: 2
#     Edge 56, Type (0, 0), BuildingBlock: AJUNOK_clean_linker_0, # of connection points: 2
#     Edge 57, Type (0, 0), BuildingBlock: AJUNOK_clean_linker_0, # of connection points: 2
#     Edge 58, Type (0, 0), BuildingBlock: AJUNOK_clean_linker_0, # of connection points: 2
#     Edge 59, Type (0, 0), BuildingBlock: AJUNOK_clean_linker_0, # of connection points: 2
#     Edge 60, Type (0, 0), BuildingBlock: AJUNOK_clean_linker_0, # of connection points: 2
#     Edge 61, Type (0, 0), BuildingBlock: AJUNOK_clean_linker_0, # of connection points: 2
#     Edge 62, Type (0, 0), BuildingBlock: AJUNOK_clean_linker_0, # of connection points: 2
#     Edge 63, Type (0, 0), BuildingBlock: AJUNOK_clean_linker_0, # of connection points: 2
# Relax obj value: 0.425
# Max RMSD: 0.205
# Mean RMSD: 0.205
data_MOF--net-wiu--node1-UKALOJ_clean_sbu_0--edge1-AJUNOK_clean_linker_0
_symmetry_space_group_name_H-M    P1
_symmetry_Int_Tables_number       1
_symmetry_cell_setting            triclinic
loop_
_symmetry_equiv_pos_as_xyz
'x, y, z'
_cell_length_a     19.594317
_cell_length_b     19.609125
_cell_length_c     54.517028
_cell_angle_alpha  90.031844
_cell_angle_beta   89.708294
_cell_angle_gamma 90.388568
loop_
_atom_site_label
_atom_site_type_symbol
_atom_site_fract_x
_atom_site_fract_y
_atom_site_fract_z
_atom_type_partial_charge
Zn0 Zn 0.36724 0.17054 0.1011 0.0
O1 O 0.33119 0.25694 0.1214 0.0
C2 C 0.23447 0.09933 0.11449 0.0
Zn3 Zn 0.28617 0.19466 0.07379 0.0
C4 C 0.28044 0.29402 0.11635 0.0
O5 O 0.24575 0.27962 0.09714 0.0
C6 C 0.3966 0.0839 0.05762 0.0
O7 O 0.34316 0.26355 0.05501 0.0
O8 O 0.42835 0.23251 0.07835 0.0
N9 N 0.21098 0.21076 0.04803 0.0
C10 C 0.21583 0.22671 1.02397 0.0
C11 C 0.1105 0.23136 0.03367 0.0
N12 N 0.14541 0.21395 0.05401 0.0
N13 N 0.15388 0.24133 1.01475 0.0
C14 C 0.44239 0.15697 0.15114 0.0
C15 C 0.53882 0.20345 0.14416 0.0
N16 N 0.44602 0.16731 0.12674 0.0
N17 N 0.50659 0.19569 0.12243 0.0
N18 N 0.49917 0.17935 0.16246 0.0
H19 H 0.38889 0.12572 0.18431 0.0
H20 H 0.36712 0.08045 0.15698 0.0
H21 H 0.33913 0.1684 0.16127 0.0
C22 C 0.38073 0.13142 0.16431 0.0
C23 C 0.28045 0.22488 1.00904 0.0
H24 H 0.31864 0.19114 1.0173 0.0
H25 H 0.30263 0.27698 1.00796 0.0
H26 H 0.27003 0.20712 0.99008 0.0
O27 O 0.34184 0.11423 0.05059 0.0
O28 O 0.4116 0.08794 0.08034 0.0
C29 C 0.40588 0.26274 0.05938 0.0
O30 O 0.29544 0.10709 0.12237 0.0
O31 O 0.22014 0.12368 0.09348 0.0
Zn32 Zn 0.64025 0.5945 0.33876 0.0
O33 O 0.5793 0.66764 0.324 0.0
C34 C 0.74873 0.69543 0.31918 0.0
Zn35 Zn 0.67615 0.66319 0.3678 0.0
C36 C 0.58404 0.72576 0.33381 0.0
O37 O 0.60994 0.73228 0.35486 0.0
C38 C 0.74202 0.52715 0.37326 0.0
O39 O 0.59729 0.62628 0.39151 0.0
O40 O 0.5579 0.55863 0.36296 0.0
N41 N 0.70516 0.73273 0.39349 0.0
C42 C 0.71999 0.72322 0.4172 0.0
C43 C 0.73177 0.82969 0.40998 0.0
N44 N 0.71211 0.79891 0.38896 0.0
N45 N 0.73745 0.78292 0.42787 0.0
C46 C 0.55423 0.52118 0.29924 0.0
C47 C 0.63072 0.46126 0.28188 0.0
N48 N 0.61229 0.52885 0.31214 0.0
N49 N 0.65948 0.49092 0.30152 0.0
N50 N 0.56476 0.47956 0.27989 0.0
H51 H 0.47876 0.54422 0.32671 0.0
H52 H 0.44419 0.52363 0.29695 0.0
H53 H 0.48457 0.60511 0.30242 0.0
C54 C 0.48644 0.54997 0.30669 0.0
C55 C 0.71566 0.65569 0.43021 0.0
H56 H 0.6961 0.6622 0.4492 0.0
H57 H 0.76712 0.63272 0.43099 0.0
H58 H 0.68272 0.61902 0.42069 0.0
O59 O 0.7444 0.58725 0.38209 0.0
O60 O 0.70641 0.51664 0.35411 0.0
C61 C 0.55285 0.58322 0.38456 0.0
O62 O 0.7167 0.64093 0.31302 0.0
O63 O 0.75027 0.70959 0.34206 0.0
Zn64 Zn 0.20344 0.92029 0.60485 0.0
O65 O 0.24591 0.83523 0.62275 0.0
C66 C 0.32951 0.99061 0.62203 0.0
Zn67 Zn 0.285 0.90244 0.57694 0.0
C68 C 0.29511 0.79804 0.61629 0.0
O69 O 0.32771 0.81348 0.59669 0.0
C70 C 0.1671 1.01014 0.56338 0.0
O71 O 0.23279 0.83948 0.5548 0.0
O72 O 0.14956 0.85508 0.58117 0.0
N73 N 0.36141 0.89915 0.55089 0.0
C74 C 0.37827 0.84824 0.53527 0.0
C75 C 0.42682 0.93815 0.52224 0.0
N76 N 0.39286 0.95487 0.54295 0.0
N77 N 0.41887 0.87127 0.51706 0.0
C78 C 0.12837 0.89159 0.65393 0.0
C79 C 1.02328 0.89154 0.64415 0.0
N80 N 0.12517 0.91131 0.63025 0.0
N81 N 0.05972 0.91088 0.62417 0.0
N82 N 0.06551 0.87716 0.66285 0.0
H83 H 0.23444 0.91755 0.66033 0.0
H84 H 0.20997 0.83568 0.67028 0.0
H85 H 0.18369 0.90916 0.68758 0.0
C86 C 0.19261 0.88897 0.66882 0.0
C87 C 0.35137 0.77644 0.5363 0.0
H88 H 0.33631 0.76168 0.55515 0.0
H89 H 0.39087 0.7407 0.52948 0.0
H90 H 0.30668 0.77153 0.52398 0.0
O91 O 0.22478 0.98528 0.5561 0.0
O92 O 0.15129 1.00167 0.58591 0.0
C93 C 0.17205 0.83043 0.56104 0.0
O94 O 0.2665 0.98623 0.62811 0.0
O95 O 0.34693 0.96818 0.60089 0.0
Zn96 Zn 0.88763 0.42584 0.87691 0.0
O97 O 0.96042 0.47215 0.90186 0.0
C98 C 0.83111 0.56237 0.88086 0.0
Zn99 Zn 0.93226 0.48813 0.84761 0.0
C100 C 1.00956 0.50863 0.89405 0.0
O101 O 1.01199 0.52318 0.8714 0.0
C102 C 0.82168 0.38568 0.8279 0.0
O103 O 0.99396 0.41414 0.83496 0.0
O104 O 0.95594 0.35354 0.86578 0.0
N105 N 0.97037 0.55419 0.82223 0.0
C106 C 0.99418 0.54509 0.79932 0.0
C107 C 1.01113 0.64947 0.80852 0.0
N108 N 0.98148 0.61899 0.82802 0.0
N109 N 1.02123 0.60362 0.7905 0.0
C110 C 0.89742 0.33434 0.92159 0.0
C111 C 0.79751 0.33909 0.93672 0.0
N112 N 0.85745 0.36479 0.9049 0.0
N113 N 0.79495 0.36672 0.91413 0.0
N114 N 0.86147 0.31885 0.94195 0.0
H115 H 0.97608 0.28052 0.90257 0.0
H116 H 0.99261 0.29357 0.93454 0.0
H117 H 1.00223 0.36278 0.91321 0.0
C118 C 0.97132 0.31736 0.91789 0.0
C119 C 0.987 0.48023 0.78497 0.0
H120 H 0.95126 0.4446 0.79388 0.0
H121 H 1.03721 0.45493 0.78372 0.0
H122 H 0.96921 0.49104 0.76608 0.0
O123 O 0.85466 0.44013 0.8217 0.0
O124 O 0.81766 0.37293 0.85091 0.0
C125 C 0.98548 0.357 0.84516 0.0
O126 O 0.81842 0.50264 0.88888 0.0
O127 O 0.86979 0.56876 0.86216 0.0
Zn128 Zn 0.66579 0.89883 0.95503 0.0
O129 O 0.70941 0.80521 0.94643 0.0
C130 C 0.77774 0.9779 0.92849 0.0
Zn131 Zn 0.75461 0.91555 0.97652 0.0
C132 C 0.77246 0.79284 0.94612 0.0
O133 O 0.8126 0.83589 0.95623 0.0
C134 C 0.62509 1.00679 0.98834 0.0
O135 O 0.72348 0.84375 1.00184 0.0
O136 O 0.62164 0.85445 0.9857 0.0
N137 N 0.83583 0.93224 0.99886 0.0
C138 C 0.83523 0.94293 1.02323 0.0
C139 C 0.93278 0.90272 1.01396 0.0
N140 N 0.89684 0.90822 0.99304 0.0
N141 N 0.89532 0.92455 0.03315 0.0
C142 C 0.58422 0.84161 0.91102 0.0
C143 C 0.50201 0.91104 0.90947 0.0
N144 N 0.58418 0.87638 0.93238 0.0
N145 N 0.53123 0.91787 0.93167 0.0
N146 N 0.53516 0.86426 0.89586 0.0
H147 H 0.63799 0.74833 0.91617 0.0
H148 H 0.62633 0.77018 0.88476 0.0
H149 H 0.68833 0.81676 0.90225 0.0
C150 C 0.63757 0.79154 0.90311 0.0
C151 C 0.7732 0.96445 0.03767 0.0
H152 H 0.78058 0.96323 0.05772 0.0
H153 H 0.76004 1.01742 1.03249 0.0
H154 H 0.72914 0.93105 0.03368 0.0
O155 O 0.68369 0.98948 0.99669 0.0
O156 O 0.61256 0.99021 0.96621 0.0
C157 C 0.65989 0.83567 1.00335 0.0
O158 O 0.72347 0.94388 0.92373 0.0
O159 O 0.79325 0.98723 0.95088 0.0
Zn160 Zn 0.40257 0.49269 0.71902 0.0
O161 O 0.46963 0.42913 0.73358 0.0
C162 C 0.28992 0.37958 0.73257 0.0
Zn163 Zn 0.37582 0.41967 0.68998 0.0
C164 C 0.46504 0.36795 0.7271 0.0
O165 O 0.43083 0.35098 0.70856 0.0
C166 C 0.31539 0.55573 0.67949 0.0
O167 O 0.46574 0.46061 0.67172 0.0
O168 O 0.48771 0.53885 0.6993 0.0
N169 N 0.3667 0.35246 0.66221 0.0
C170 C 0.4153 0.31444 0.65133 0.0
C171 C 0.3285 0.31318 0.62821 0.0
N172 N 0.31214 0.35047 0.64808 0.0
N173 N 0.39318 0.29025 0.62967 0.0
C174 C 0.42848 0.53986 0.77244 0.0
C175 C 0.42986 0.64843 0.7701 0.0
N176 N 0.41691 0.55634 0.74876 0.0
N177 N 0.4177 0.62381 0.74735 0.0
N178 N 0.43705 0.59663 0.78607 0.0
H179 H 0.49452 0.45614 0.77818 0.0
H180 H 0.43323 0.46212 0.80157 0.0
H181 H 0.40729 0.43097 0.77249 0.0
C182 C 0.44051 0.46859 0.78168 0.0
C183 C 0.48392 0.29844 0.66207 0.0
H184 H 0.47666 0.26446 0.67815 0.0
H185 H 0.51672 0.27117 0.64874 0.0
H186 H 0.51057 0.3451 0.66834 0.0
O187 O 0.31868 0.49572 0.67049 0.0
O188 O 0.33571 0.565 0.7015 0.0
C189 C 0.50359 0.50898 0.6793 0.0
O190 O 0.32189 0.43256 0.74049 0.0
O191 O 0.29061 0.3702 0.70936 0.0
Zn192 Zn 0.92145 0.16953 0.44401 0.0
O193 O 0.87634 0.25306 0.42425 0.0
C194 C 0.7586 0.12155 0.44357 0.0
Zn195 Zn 0.81751 0.19935 0.48338 0.0
C196 C 0.82631 0.29045 0.43211 0.0
O197 O 0.79653 0.27951 0.45334 0.0
C198 C 0.93618 0.08714 0.49506 0.0
O199 O 0.8875 0.27326 0.50297 0.0
O200 O 0.91111 0.22775 0.46963 0.0
N201 N 0.74732 0.22771 0.50946 0.0
C202 C 0.75393 0.22547 0.53403 0.0
C203 C 0.66409 0.28224 0.52646 0.0
N204 N 0.6915 0.26306 0.50473 0.0
N205 N 0.70309 0.26013 0.54507 0.0
C206 C 0.98596 0.14212 0.39781 0.0
C207 C 0.95501 0.04442 0.38526 0.0
N208 N 0.94671 0.11447 0.41521 0.0
N209 N 0.92767 0.05298 0.40786 0.0
N210 N 0.99286 0.09947 0.37884 0.0
H211 H 1.00294 0.23785 0.41666 0.0
H212 H 0.07142 0.20915 0.39712 0.0
H213 H 0.99541 0.24412 0.38381 0.0
C214 C 1.01524 0.21265 0.39905 0.0
C215 C 0.80812 0.18601 0.54706 0.0
H216 H 0.80614 0.13217 0.54089 0.0
H217 H 0.85921 0.20701 0.54243 0.0
H218 H 0.80112 0.1868 0.56724 0.0
O219 O 0.88147 0.11724 0.50351 0.0
O220 O 0.95053 0.09014 0.47183 0.0
C221 C 0.93344 0.25483 0.48843 0.0
O222 O 0.8194 0.13411 0.43696 0.0
O223 O 0.74322 0.1326 0.46587 0.0
Zn224 Zn 0.18157 0.64993 0.2059 0.0
O225 O 0.08838 0.61775 0.18941 0.0
C226 C 0.23898 0.51845 0.18795 0.0
Zn227 Zn 0.16163 0.57072 0.23403 0.0
C228 C 0.05049 0.56826 0.19592 0.0
O229 O 0.06852 0.53288 0.21453 0.0
C230 C 0.27717 0.68132 0.2457 0.0
O231 O 0.10431 0.62663 0.25647 0.0
O232 O 0.12884 0.71078 0.23144 0.0
N233 N 0.15622 0.49575 0.26054 0.0
C234 C 0.10611 0.48146 0.27695 0.0
C235 C 0.19487 0.42909 0.2886 0.0
N236 N 0.21115 0.46247 0.26772 0.0
N237 N 0.12923 0.44039 0.29492 0.0
C238 C 0.18324 0.7305 0.15708 0.0
C239 C 0.1888 0.83414 0.1689 0.0
N240 N 0.18419 0.72974 0.18174 0.0
N241 N 0.18705 0.79423 0.18908 0.0
N242 N 0.18588 0.79499 0.14868 0.0
H243 H 0.15908 0.68001 0.12292 0.0
H244 H 0.23509 0.65116 0.13785 0.0
H245 H 0.1527 0.62639 0.14968 0.0
C246 C 0.18195 0.66837 0.14101 0.0
C247 C 1.03401 0.50628 0.27522 0.0
H248 H 1.01923 0.51424 0.2559 0.0
H249 H 0.99837 0.46909 0.28387 0.0
H250 H 1.02901 0.55544 0.28506 0.0
O251 O 0.24867 0.6268 0.25432 0.0
O252 O 0.27091 0.69174 0.22278 0.0
C253 C 0.10498 0.6891 0.25181 0.0
O254 O 0.23494 0.58045 0.18087 0.0
O255 O 0.22156 0.50479 0.21003 0.0
Zn256 Zn 0.90351 0.62715 0.62434 0.0
O257 O 0.86558 0.71332 0.64609 0.0
C258 C 0.76009 0.56684 0.62619 0.0
Zn259 Zn 0.83732 0.66818 0.5957 0.0
C260 C 0.81997 0.75509 0.63923 0.0
O261 O 0.79181 0.74548 0.6185 0.0
C262 C 0.94391 0.55451 0.57849 0.0
O263 O 0.90926 0.73767 0.58788 0.0
O264 O 0.98252 0.68623 0.61127 0.0
N265 N 0.78527 0.70468 0.56592 0.0
C266 C 0.80932 0.71854 0.5432 0.0
C267 C 0.70711 0.75442 0.54481 0.0
N268 N 0.72186 0.72749 0.56695 0.0
N269 N 0.76136 0.74977 0.52958 0.0
C270 C 0.95711 0.60986 0.67668 0.0
C271 C 0.06297 0.59207 0.67025 0.0
N272 N 0.96554 0.60178 0.65239 0.0
N273 N 1.03127 0.59044 0.64839 0.0
N274 N 1.01764 0.60531 0.68823 0.0
H275 H 0.88189 0.67531 0.69252 0.0
H276 H 0.8877 0.59314 0.70695 0.0
H277 H 0.84695 0.60226 0.67763 0.0
C278 C 0.88945 0.6203 0.68909 0.0
C279 C 0.87992 0.70202 0.53421 0.0
H280 H 0.91752 0.69585 0.54866 0.0
H281 H 0.89916 0.7416 0.52134 0.0
H282 H 0.87763 0.65231 0.52477 0.0
O283 O 0.89539 0.59333 0.57138 0.0
O284 O 0.95054 0.54726 0.60163 0.0
C285 C 0.96971 0.72856 0.59452 0.0
O286 O 0.81755 0.56548 0.63721 0.0
O287 O 0.7564 0.59886 0.60585 0.0
Zn288 Zn 0.11516 1.03063 0.82162 0.0
O289 O 0.04178 0.08092 0.80333 0.0
C290 C 0.21907 0.15058 0.80359 0.0
Zn291 Zn 0.14118 0.11289 0.84837 0.0
C292 C 1.03588 0.14192 0.80974 0.0
O293 O 0.06986 0.16566 0.82781 0.0
C294 C 0.21809 0.98886 0.86205 0.0
O295 O 0.05871 0.06982 0.86935 0.0
O296 O 1.03181 0.98632 0.84485 0.0
N297 N 0.14349 0.18878 0.87507 0.0
C298 C 0.1492 0.1812 0.89961 0.0
C299 C 0.12363 0.28494 0.89316 0.0
N300 N 0.12762 0.25345 0.87111 0.0
N301 N 0.13627 0.24031 0.91135 0.0
C302 C 0.08565 0.95453 0.77281 0.0
C303 C 0.08291 0.8502 0.78368 0.0
N304 N 0.10301 0.95253 0.7967 0.0
N305 N 0.1011 0.88759 0.80344 0.0
N306 N 0.07175 0.89127 0.76432 0.0
H307 H 1.0312 1.03617 0.75581 0.0
H308 H 0.10474 1.00777 0.73879 0.0
H309 H 0.11476 0.05917 0.76582 0.0
C310 C 0.08447 1.01805 0.75747 0.0
C311 C 0.1742 0.1177 0.91191 0.0
H312 H 0.1737 0.12042 0.93214 0.0
H313 H 0.22833 0.11099 0.90668 0.0
H314 H 0.14383 0.07278 0.90603 0.0
O315 O 0.21325 0.05129 0.86817 0.0
O316 O 0.1893 0.97004 0.84219 0.0
C317 C 1.01856 1.02091 0.86418 0.0
O318 O 0.19197 0.09278 0.79737 0.0
O319 O 0.2168 0.16612 0.82632 0.0
Zn320 Zn 0.6677 0.46076 0.12245 0.0
O321 O 0.69668 0.37005 0.14215 0.0
C322 C 0.80395 0.52479 0.1353 0.0
Zn323 Zn 0.74636 0.43345 0.09541 0.0
C324 C 0.74884 0.33509 0.13676 0.0
O325 O 0.78478 0.35379 0.11847 0.0
C326 C 0.6406 0.54209 0.07674 0.0
O327 O 0.68245 0.36431 0.07883 0.0
O328 O 0.6015 0.40497 0.10252 0.0
N329 N 0.82319 0.40851 0.07127 0.0
C330 C 0.82077 0.38161 0.04861 0.0
C331 C 0.92432 0.37649 0.06012 0.0
N332 N 0.8877 0.40506 0.07845 0.0
N333 N 0.88272 0.35988 0.04147 0.0
C334 C 0.59004 0.46012 0.17152 0.0
C335 C 0.49008 0.49239 0.16178 0.0
N336 N 0.59169 0.47545 0.1475 0.0
N337 N 0.52942 0.49517 0.14139 0.0
N338 N 0.5269 0.46904 0.18074 0.0
H339 H 0.64724 0.38433 0.19065 0.0
H340 H 0.65138 0.46779 0.2041 0.0
H341 H 0.69895 0.44929 0.17667 0.0
C342 C 0.65069 0.43957 0.18645 0.0
C343 C 0.75899 0.38021 0.03273 0.0
H344 H 0.73853 0.32751 1.03173 0.0
H345 H 0.77213 0.39695 1.01383 0.0
H346 H 0.72019 0.41405 0.04037 0.0
O347 O 0.69455 0.5093 0.07027 0.0
O348 O 0.6279 0.54533 0.09981 0.0
C349 C 0.62 0.37092 0.084 0.0
O350 O 0.74312 0.51937 0.14367 0.0
O351 O 0.81563 0.5034 0.11359 0.0
Zn352 Zn 0.43802 0.96438 0.35456 0.0
O353 O 0.51583 1.015 0.37384 0.0
C354 C 0.3512 0.08145 0.36915 0.0
Zn355 Zn 0.44776 0.04731 0.3269 0.0
C356 C 0.54448 0.07147 0.36924 0.0
O357 O 0.5267 0.10364 0.34975 0.0
C358 C 0.35434 0.91735 0.31227 0.0
O359 O 0.5221 1.00665 0.3068 0.0
O360 O 0.51275 0.91844 0.33156 0.0
N361 N 0.44067 0.12094 0.30019 0.0
C362 C 0.48705 0.14357 0.2836 0.0
C363 C 0.38898 0.17087 0.27049 0.0
N364 N 0.37983 0.13875 0.29209 0.0
N365 N 0.45584 0.17426 0.2645 0.0
C366 C 0.43631 0.89328 0.40519 0.0
C367 C 0.44567 0.78737 0.39721 0.0
N368 N 0.44278 0.88784 0.38064 0.0
N369 N 0.44912 0.82187 0.3757 0.0
N370 N 0.43723 0.83149 0.41588 0.0
H371 H 0.4578 0.95611 0.43668 0.0
H372 H 0.37413 0.96527 0.4241 0.0
H373 H 0.44603 1.00354 0.40898 0.0
C374 C 0.42867 0.95861 0.4193 0.0
C375 C 0.56288 0.13859 0.28674 0.0
H376 H 0.57619 0.13908 0.30648 0.0
H377 H 0.58902 0.18161 0.27727 0.0
H378 H 0.58172 0.09031 0.27868 0.0
O379 O 0.37588 0.97596 0.30456 0.0
O380 O 0.36353 0.90418 0.33486 0.0
C381 C 0.539 0.94765 0.31264 0.0
O382 O 0.36433 1.02125 0.37658 0.0
O383 O 0.37098 0.09819 0.34774 0.0
Zn384 Zn 0.20534 0.41407 0.45893 0.0
O385 O 0.24955 0.34158 0.4349 0.0
C386 C 0.32528 0.50132 0.44867 0.0
Zn387 Zn 0.2876 0.38904 0.48549 0.0
C388 C 0.30054 0.30463 0.43938 0.0
O389 O 0.33206 0.31397 0.45954 0.0
C390 C 0.16911 0.48315 0.50659 0.0
O391 O 0.24166 0.31077 0.50244 0.0
O392 O 0.15587 0.33445 0.478 0.0
N393 N 0.36972 0.37367 0.50741 0.0
C394 C 0.37242 0.34635 0.52995 0.0
C395 C 0.47378 0.34503 0.51541 0.0
N396 N 0.43273 0.37289 0.49836 0.0
N397 N 0.43635 0.32634 0.53504 0.0
C398 C 0.13483 0.43239 0.40856 0.0
C399 C 1.03572 0.38947 0.41356 0.0
N400 N 0.12813 0.4186 0.43276 0.0
N401 N 0.06627 0.39182 0.43579 0.0
N402 N 0.07801 0.41494 0.39627 0.0
H403 H 0.19647 0.45548 0.37617 0.0
H404 H 0.20357 0.51446 0.4011 0.0
H405 H 0.24334 0.43175 0.40284 0.0
C406 C 0.19814 0.45966 0.39643 0.0
C407 C 0.31304 0.34043 0.54735 0.0
H408 H 0.29407 0.28698 0.54755 0.0
H409 H 0.32913 0.35375 0.56626 0.0
H410 H 0.27108 0.37428 0.54192 0.0
O411 O 0.22754 0.45746 0.51224 0.0
O412 O 0.15219 0.48198 0.48396 0.0
C413 C 0.18167 0.3004 0.49567 0.0
O414 O 0.26435 0.49358 0.44108 0.0
O415 O 0.34318 0.46925 0.46778 0.0
Zn416 Zn 0.91349 1.0206 0.22259 0.0
O417 O 0.98404 0.95302 0.23327 0.0
C418 C 0.80598 0.91704 0.24471 0.0
Zn419 Zn 0.87373 0.94675 0.19613 0.0
C420 C 0.9759 0.89133 0.22764 0.0
O421 O 0.93479 0.87397 0.21091 0.0
C422 C 0.8088 0.08522 0.19123 0.0
O423 O 0.95525 0.98257 0.17166 0.0
O424 O 0.98768 0.06135 0.19723 0.0
N425 N 0.8435 0.8821 0.16912 0.0
C426 C 0.88231 0.85739 0.15072 0.0
C427 C 0.7808 0.86235 0.1377 0.0
N428 N 0.77983 0.88311 0.16124 0.0
N429 N 0.84485 0.84707 0.13044 0.0
C430 C 0.97929 0.07754 0.26932 0.0
C431 C 0.98529 0.18405 0.26185 0.0
N432 N 0.95051 0.08765 0.24734 0.0
N433 N 0.955 0.15376 0.24252 0.0
N434 N 1.00289 0.13683 0.27853 0.0
H435 H 0.946 0.9726 0.27453 0.0
H436 H 1.03267 0.99038 0.28279 0.0
H437 H 0.96412 1.01802 0.30223 0.0
C438 C 0.98003 1.01076 0.28285 0.0
C439 C 0.95858 0.85002 0.15112 0.0
H440 H 0.97926 0.85182 0.16991 0.0
H441 H 0.97259 0.8007 0.14252 0.0
H442 H 0.98273 0.89066 0.13982 0.0
O443 O 0.81008 1.02653 0.18117 0.0
O444 O 0.84192 0.09463 0.2109 0.0
C445 C 0.99653 1.03036 0.17701 0.0
O446 O 0.84321 0.9692 0.24991 0.0
O447 O 0.79758 0.90364 0.22192 0.0
Zn448 Zn 0.30984 0.70993 0.98513 0.0
O449 O 0.38763 0.77121 0.99701 0.0
C450 C 0.41155 0.59972 1.0054 0.0
Zn451 Zn 0.3764 0.66425 0.95679 0.0
C452 C 0.44578 0.76166 0.98749 0.0
O453 O 0.45171 0.72946 0.96744 0.0
C454 C 0.23818 0.60042 0.95471 0.0
O455 O 0.33607 0.74235 0.93271 0.0
O456 O 0.27118 0.79015 0.96033 0.0
N457 N 0.43457 0.63124 0.92771 0.0
C458 C 0.41493 0.62384 0.90416 0.0
C459 C 0.52208 0.60567 0.9053 0.0
N460 N 0.50114 0.61978 0.92843 0.0
N461 N 0.46871 0.60775 0.88983 0.0
C462 C 0.25 0.79245 1.02926 0.0
C463 C 0.16954 0.7261 0.04058 0.0
N464 N 0.24675 0.74121 1.0128 0.0
N465 N 0.19586 0.70071 1.01969 0.0
N466 N 0.20264 0.78369 0.04707 0.0
H467 H 0.30345 0.86863 1.00818 0.0
H468 H 0.27818 0.89566 0.03871 0.0
H469 H 0.3484 0.83818 0.03466 0.0
C470 C 0.2976 0.85243 1.02759 0.0
C471 C 0.3456 0.64171 0.89426 0.0
H472 H 0.30711 0.65037 0.90852 0.0
H473 H 0.35062 0.68767 0.8825 0.0
H474 H 0.32414 0.60064 0.88282 0.0
O475 O 0.29841 0.59443 0.94643 0.0
O476 O 0.22817 0.64259 0.97212 0.0
C477 C 0.29407 0.78875 0.93838 0.0
O478 O 0.35947 0.63578 1.01128 0.0
O479 O 0.4242 0.59271 0.98246 0.0
Zn480 Zn 0.67531 0.12446 0.71053 0.0
O481 O 0.59053 0.08665 0.68932 0.0
C482 C 0.75036 0.99532 0.69912 0.0
Zn483 Zn 0.64703 0.04382 0.73717 0.0
C484 C 0.5538 1.03454 0.69348 0.0
O485 O 0.56686 0.99927 0.71261 0.0
C486 C 0.75393 0.15855 0.75566 0.0
O487 O 0.57409 0.0963 0.75375 0.0
O488 O 0.60927 0.18435 0.73209 0.0
N489 N 0.62878 0.96856 0.76238 0.0
C490 C 0.61023 0.97282 0.78617 0.0
C491 C 0.60403 0.86781 0.77602 0.0
N492 N 0.62472 0.90333 0.75608 0.0
N493 N 0.59367 0.91063 0.79493 0.0
C494 C 0.67693 0.19539 0.65952 0.0
C495 C 0.69769 0.29974 0.66751 0.0
N496 N 0.68543 0.20005 0.68406 0.0
N497 N 0.69813 0.26513 0.68897 0.0
N498 N 0.68355 0.25706 0.64879 0.0
H499 H 0.60995 0.12755 0.64044 0.0
H500 H 0.69543 0.12976 0.62849 0.0
H501 H 0.67637 0.08476 0.65637 0.0
C502 C 0.6645 0.13041 0.6456 0.0
C503 C 0.6015 0.0383 0.80026 0.0
H504 H 0.54825 0.05608 0.79804 0.0
H505 H 0.60988 1.03183 0.82015 0.0
H506 H 0.63672 0.0784 0.7936 0.0
O507 O 0.72173 0.10391 0.76234 0.0
O508 O 0.7549 0.17161 0.7327 0.0
C509 C 0.5758 0.15922 0.75017 0.0
O510 O 0.74348 0.05559 0.69061 0.0
O511 O 0.72253 0.98131 0.71966 0.0
C512 C 0.45289 0.37111 0.05235 0.0
C513 C 0.45198 0.30338 0.0446 0.0
C514 C 0.51014 0.39446 0.06472 0.0
C515 C 0.5687 0.3534 0.06615 0.0
H516 H 0.40559 0.39885 0.05464 0.0
H517 H 0.50641 0.44191 0.07481 0.0
S518 S 0.60093 0.19541 1.03138 0.0
N519 N 0.5192 0.21191 1.02707 0.0
N520 N 0.63075 0.2576 0.04881 0.0
C521 C 0.5737 0.29599 0.05114 0.0
C522 C 0.51422 0.27192 0.03933 0.0
C523 C 0.6418 0.83369 0.32346 0.0
C524 C 0.59105 0.78441 0.31786 0.0
C525 C 0.6439 0.89516 0.31082 0.0
C526 C 0.58674 0.91146 0.29707 0.0
H527 H 0.67743 0.82672 0.33833 0.0
H528 H 0.67749 0.93518 0.31746 0.0
S529 S 0.47933 0.78892 0.26363 0.0
N530 N 0.51158 0.74463 0.28657 0.0
N531 N 0.51232 0.86653 0.26552 0.0
C532 C 0.55417 0.85768 0.28497 0.0
C533 C 0.55299 0.79293 0.29645 0.0
C534 C 0.1303 0.72048 0.5574 0.0
C535 C 0.12908 0.78537 0.54686 0.0
C536 C 0.07927 0.70381 0.57429 0.0
C537 C 1.0226 0.74712 0.57717 0.0
H538 H 0.17723 0.69152 0.55759 0.0
H539 H 0.08512 0.65836 0.58536 0.0
S540 S 0.97744 0.89002 0.5359 0.0
N541 N 0.05551 0.86795 0.52764 0.0
N542 N 0.95567 0.83832 0.55857 0.0
C543 C 1.01263 0.79931 0.55987 0.0
C544 C 0.06547 0.8146 0.54302 0.0
C545 C 1.00744 0.24339 0.79025 0.0
C546 C 0.98132 0.18253 0.79992 0.0
C547 C 1.01171 0.29991 0.80573 0.0
C548 C 0.98024 0.29797 0.82904 0.0
H549 H 0.03933 0.24232 0.77396 0.0
H550 H 0.0426 0.34304 0.80004 0.0
S551 S 0.86315 0.16118 0.85171 0.0
N552 N 0.893 0.13276 0.82526 0.0
N553 N 0.89742 0.23767 0.85535 0.0
C554 C 0.93528 0.24311 0.83445 0.0
C555 C 0.93132 0.18727 0.81802 0.0
C556 C 0.57287 0.82741 0.03304 0.0
C557 C 0.63044 0.79504 1.02312 0.0
C558 C 0.50995 0.81622 1.02159 0.0
C559 C 0.50519 0.76581 1.00329 0.0
H560 H 0.57923 0.87258 0.04426 0.0
H561 H 0.46815 0.8506 1.02528 0.0
S562 S 0.63602 0.63441 0.98948 0.0
N563 N 0.67305 0.6871 1.00899 0.0
N564 N 0.55769 0.66314 0.98585 0.0
C565 C 0.55862 0.71785 1.00115 0.0
C566 C 0.62039 0.72986 1.01386 0.0
C567 C 0.4671 0.2017 0.75894 0.0
C568 C 0.5355 0.20254 0.76584 0.0
C569 C 0.44269 0.25806 0.74652 0.0
C570 C 0.48437 0.31638 0.74408 0.0
H571 H 0.43947 0.15383 0.75726 0.0
H572 H 0.39428 0.25384 0.73713 0.0
S573 S 0.64582 0.35198 0.77621 0.0
N574 N 0.62739 0.27141 0.78237 0.0
N575 N 0.58327 0.37967 0.75881 0.0
C576 C 0.5432 0.32289 0.75817 0.0
C577 C 0.56662 0.26521 0.7708 0.0
C578 C 0.09562 0.27005 0.52442 0.0
C579 C 0.14228 0.24639 0.50688 0.0
C580 C 1.02617 0.27005 0.51883 0.0
C581 C 1.00414 0.24466 0.49607 0.0
H582 H 0.11324 0.30062 0.53974 0.0
H583 H 0.99108 0.29534 0.53122 0.0
S584 S 0.11262 0.15373 0.45015 0.0
N585 N 0.1639 0.17118 0.47316 0.0
N586 N 1.03798 0.18458 0.45849 0.0
C587 C 0.05149 0.20896 0.48121 0.0
C588 C 0.11968 0.20198 0.48895 0.0
C589 C 0.09509 0.79981 0.26887 0.0
C590 C 0.06622 0.73445 0.26718 0.0
C591 C 0.06436 0.85281 0.2562 0.0
C592 C 1.00246 0.8407 0.24404 0.0
H593 H 0.14774 0.8061 0.27451 0.0
H594 H 0.09179 0.90062 0.25403 0.0
S595 S 0.891 0.68809 0.25002 0.0
N596 N 0.96179 0.66848 0.26459 0.0
N597 N 0.90199 0.76709 0.24021 0.0
C598 C 0.96542 0.78067 0.249 0.0
C599 C 0.99678 0.72829 0.26243 0.0
C600 C 0.51715 0.03961 0.04762 0.0
C601 C 0.45117 0.05816 0.03932 0.0
C602 C 0.57254 1.02543 1.03134 0.0
C603 C 0.56641 1.02924 1.0055 0.0
H604 H 0.52702 1.03737 0.06712 0.0
H605 H 0.62091 1.01112 0.03926 0.0
S606 S 0.40425 0.07056 0.97342 0.0
N607 N 0.38343 0.07572 1.00275 0.0
N608 N 0.4858 0.04984 0.97258 0.0
C609 C 0.50027 0.04603 0.99688 0.0
C610 C 0.44369 0.06025 1.01351 0.0
C611 C 0.74309 0.74748 0.27564 0.0
C612 C 0.76815 0.75032 0.30001 0.0
C613 C 0.75238 0.80198 0.25849 0.0
C614 C 0.78649 0.86382 0.26455 0.0
H615 H 0.71517 0.70267 0.26967 0.0
H616 H 0.73347 0.79479 0.24004 0.0
S617 S 0.8563 0.90195 0.32656 0.0
N618 N 0.82628 0.82347 0.32929 0.0
N619 N 0.8408 0.92495 0.29803 0.0
C620 C 0.80975 0.86813 0.28911 0.0
C621 C 0.80154 0.81216 0.3064 0.0
C622 C 0.0494 0.06401 0.55382 0.0
C623 C 0.11138 1.03458 0.54531 0.0
C624 C 0.99298 0.07838 0.53805 0.0
C625 C 0.99344 0.06287 0.51261 0.0
H626 H 0.04395 0.07589 0.57312 0.0
H627 H 0.94858 0.1026 0.54598 0.0
S628 S 0.14075 0.98127 0.48061 0.0
N629 N 0.16754 0.9893 0.50913 0.0
N630 N 0.06299 1.01315 0.48019 0.0
C631 C 0.0549 1.0326 0.50394 0.0
C632 C 0.11284 1.01941 0.51991 0.0
C633 C 0.77068 0.26718 0.8161 0.0
C634 C 0.80119 0.33008 0.80882 0.0
C635 C 0.75955 0.21127 0.79955 0.0
C636 C 0.77701 0.21428 0.77426 0.0
H637 H 0.75546 0.26052 0.83506 0.0
H638 H 0.73492 0.16577 0.80665 0.0
S639 S 0.85533 0.36747 0.74457 0.0
N640 N 0.8465 0.39083 0.77349 0.0
N641 N 0.826 0.28851 0.74301 0.0
C642 C 0.80722 0.27705 0.76668 0.0
C643 C 0.81878 0.33372 0.78357 0.0
C644 C 0.27616 0.32717 0.77606 0.0
C645 C 0.26649 0.32201 0.75035 0.0
C646 C 0.26331 0.2717 0.79255 0.0
C647 C 0.24056 0.20621 0.78467 0.0
H648 H 0.29461 0.37475 0.78371 0.0
H649 H 0.27096 0.28084 0.81193 0.0
S650 S 0.20648 0.16336 0.71928 0.0
N651 N 0.23167 0.24381 0.7181 0.0
N652 N 0.20899 0.14135 0.74849 0.0
C653 C 0.23086 0.20025 0.75898 0.0
C654 C 0.24329 0.25705 0.74217 0.0
C655 C 0.32059 0.79159 0.30383 0.0
C656 C 0.33026 0.85934 0.29497 0.0
C657 C 0.30568 0.7348 0.28818 0.0
C658 C 0.30033 0.74121 0.26239 0.0
H659 H 0.32543 0.7817 0.32328 0.0
H660 H 0.2982 0.68519 0.29651 0.0
S661 S 0.319 0.90698 0.22912 0.0
N662 N 0.33142 0.92819 0.25807 0.0
N663 N 0.3045 0.82394 0.22904 0.0
C664 C 0.30921 0.80895 0.25329 0.0
C665 C 0.32382 0.86678 0.2693 0.0
C666 C 0.05319 0.53489 0.51863 0.0
C667 C 0.11496 0.50375 0.52594 0.0
C668 C 0.99819 0.54773 0.53519 0.0
C669 C 1.00032 0.53079 0.56043 0.0
H670 H 0.0465 0.54908 0.49961 0.0
H671 H 0.95322 0.57119 0.52788 0.0
S672 S 0.14661 0.44162 0.58941 0.0
N673 N 0.17171 0.45168 0.56066 0.0
N674 N 0.07032 0.47655 0.5914 0.0
C675 C 0.06126 0.49822 0.56799 0.0
C676 C 0.11751 0.48483 0.55105 0.0
C677 C 0.52866 0.60352 0.06369 0.0
C678 C 0.58406 0.55986 0.05787 0.0
C679 C 0.47218 0.61391 0.04747 0.0
C680 C 0.46593 0.5798 1.02455 0.0
H681 H 0.52889 0.63047 0.08103 0.0
H682 H 0.43361 0.65037 0.05283 0.0
S683 S 0.59123 0.45397 1.001 0.0
N684 N 0.62463 0.48005 1.0271 0.0
N685 N 0.51924 0.49623 0.99811 0.0
C686 C 0.51931 0.53422 1.01897 0.0
C687 C 0.57761 0.52533 0.03504 0.0
C688 C 0.27787 0.42033 0.12762 0.0
C689 C 0.26346 0.35165 0.13361 0.0
C690 C 0.27181 0.47355 0.14523 0.0
C691 C 0.25171 0.4607 0.16981 0.0
H692 H 0.29547 0.43292 0.1093 0.0
H693 H 0.28309 0.52527 0.13949 0.0
S694 S 0.20482 0.2891 0.19438 0.0
N695 N 0.22697 0.27403 0.16564 0.0
N696 N 0.21424 0.37213 0.19835 0.0
C697 C 0.23654 0.39181 0.17577 0.0
C698 C 0.24294 0.33806 0.15788 0.0
C699 C 0.42974 0.54896 0.39164 0.0
C700 C 0.49433 0.56549 0.40123 0.0
C701 C 0.37367 0.53396 0.40711 0.0
C702 C 0.3798 0.53337 0.43291 0.0
H703 H 0.42229 0.54763 0.37196 0.0
H704 H 0.32613 0.51986 0.39859 0.0
S705 S 0.53768 0.57476 0.46743 0.0
N706 N 0.56033 0.58277 0.43837 0.0
N707 N 0.45615 0.55315 0.46721 0.0
C708 C 0.44384 0.55154 0.4427 0.0
C709 C 0.50059 0.56782 0.42698 0.0
C710 C 0.31681 0.74091 0.65668 0.0
C711 C 0.30767 0.73525 0.63115 0.0
C712 C 0.31588 0.68326 0.67216 0.0
C713 C 0.30485 0.61667 0.66298 0.0
H714 H 0.32443 0.79075 0.66485 0.0
H715 H 0.3249 0.69116 0.69154 0.0
S716 S 0.27289 0.57482 0.5974 0.0
N717 N 0.2836 0.65841 0.59746 0.0
N718 N 0.28197 0.54995 0.62615 0.0
C719 C 0.29439 0.61061 0.63738 0.0
C720 C 0.29587 0.66963 0.62162 0.0
C721 C 0.05615 0.56371 0.93243 0.0
C722 C 0.06706 0.5276 0.91047 0.0
C723 C 0.11133 0.58423 0.94737 0.0
C724 C 0.17953 0.56832 0.94116 0.0
H725 H 1.00483 0.57806 0.9377 0.0
H726 H 0.10048 0.61454 0.96352 0.0
S727 S 0.23327 0.46573 0.88699 0.0
N728 N 0.14969 0.47168 0.88425 0.0
N729 N 0.25277 0.50761 0.91231 0.0
C730 C 0.19012 0.52873 0.91981 0.0
C731 C 0.13416 0.50915 0.90449 0.0
C732 C 0.76362 0.61991 0.91445 0.0
C733 C 0.81577 0.62322 0.89665 0.0
C734 C 0.75305 0.67345 0.93123 0.0
C735 C 0.79494 0.73234 0.93153 0.0
H736 H 0.73025 0.5757 0.91535 0.0
H737 H 0.71037 0.66935 0.94381 0.0
S738 S 0.94138 0.76553 0.88986 0.0
N739 N 0.91191 0.6903 0.88108 0.0
N740 N 0.89185 0.78989 0.91281 0.0
C741 C 0.84843 0.73576 0.91434 0.0
C742 C 0.85868 0.68171 0.89687 0.0
C743 C 0.56938 0.54831 0.6419 0.0
C744 C 0.56918 0.52388 0.66615 0.0
C745 C 0.63095 0.55893 0.62878 0.0
C746 C 0.69534 0.54416 0.63909 0.0
H747 H 0.52148 0.56011 0.63306 0.0
H748 H 0.62787 0.58023 0.6105 0.0
S749 S 0.7214 0.47042 0.70121 0.0
N750 N 0.63791 0.48013 0.69938 0.0
N751 N 0.75303 0.49789 0.67483 0.0
C752 C 0.69517 0.51663 0.66306 0.0
C753 C 0.63245 0.50708 0.67652 0.0
C754 C 0.77761 0.40889 0.42749 0.0
C755 C 0.80519 0.35 0.41658 0.0
C756 C 0.76056 0.46663 0.41343 0.0
C757 C 0.76892 0.46804 0.38769 0.0
H758 H 0.76972 0.4108 0.44716 0.0
H759 H 0.73842 0.50974 0.42283 0.0
S760 S 0.83876 0.32733 0.34985 0.0
N761 N 0.84091 0.29747 0.37816 0.0
N762 N 0.80649 0.40477 0.3519 0.0
C763 C 0.79603 0.40945 0.37649 0.0
C764 C 0.81485 0.35105 0.39085 0.0
C765 C 0.92813 0.55782 0.14124 0.0
C766 C 0.86378 0.54262 0.15171 0.0
C767 C 0.98748 0.56483 0.15565 0.0
C768 C 0.98658 0.5549 0.18132 0.0
H769 H 0.93304 0.56375 0.12155 0.0
H770 H 1.03504 0.57734 0.14645 0.0
S771 S 0.83195 0.51706 0.21851 0.0
N772 N 0.80331 0.52113 0.19011 0.0
N773 N 0.915 0.53143 0.21674 0.0
C774 C 0.92289 0.54014 0.19218 0.0
C775 C 0.86176 0.53488 0.17756 0.0
C776 C 0.80075 0.81412 0.68 0.0
C777 C 0.80502 0.81754 0.65424 0.0
C778 C 0.787 0.87244 0.69436 0.0
C779 C 0.77817 0.9376 0.68376 0.0
H780 H 0.80576 0.76553 0.68916 0.0
H781 H 0.7814 0.86583 0.71399 0.0
S782 S 0.79325 0.97569 0.61712 0.0
N783 N 0.80467 0.89245 0.61881 0.0
N784 N 0.78097 1.00186 0.6456 0.0
C785 C 0.78602 0.94217 0.65804 0.0
C786 C 0.79863 0.8824 0.64339 0.0
C787 C 0.84783 0.94814 0.8903 0.0
C788 C 0.83095 0.99449 0.90926 0.0
C789 C 0.90798 0.95627 0.87577 0.0
C790 C 0.95429 1.01089 0.87963 0.0
H791 H 0.81603 0.9035 0.88737 0.0
H792 H 0.91883 0.9187 0.86175 0.0
S793 S 0.92804 0.15042 0.92514 0.0
N794 N 0.86216 0.09941 0.92954 0.0
N795 N 0.97357 0.11548 0.90297 0.0
C796 C 0.93579 0.05882 0.89798 0.0
C797 C 0.87485 0.05046 0.9125 0.0
C798 C 0.72987 0.1822 0.18036 0.0
C799 C 0.79068 0.14613 0.1765 0.0
C800 C 0.71686 0.24335 0.16757 0.0
C801 C 0.76467 0.2713 0.15072 0.0
H802 H 0.69247 0.16334 0.19342 0.0
H803 H 0.6688 0.26875 0.1709 0.0
S804 S 0.93474 0.19867 0.13615 0.0
N805 N 0.90047 0.14415 0.15579 0.0
N806 N 0.87703 0.25854 0.13215 0.0
C807 C 0.82616 0.23581 0.14716 0.0
C808 C 0.83891 0.17356 0.15998 0.0
C809 C 0.63575 0.09755 0.43063 0.0
C810 C 0.70459 0.10894 0.42411 0.0
C811 C 0.58418 0.09023 0.41271 0.0
C812 C 0.59796 0.095 0.38724 0.0
H813 H 0.62136 0.09383 0.44979 0.0
H814 H 0.5327 0.07986 0.41897 0.0
S815 S 0.7688 0.12542 0.35979 0.0
N816 N 0.78296 0.12579 0.38963 0.0
N817 N 0.68603 0.11199 0.35654 0.0
C818 C 0.66604 0.10768 0.38038 0.0
C819 C 0.71903 0.1145 0.39858 0.0
C820 C 0.32261 0.18027 0.42946 0.0
C821 C 0.31719 0.24851 0.42167 0.0
C822 C 0.32879 0.12599 0.41244 0.0
C823 C 0.33046 0.13732 0.3868 0.0
H824 H 0.32055 0.1685 0.44887 0.0
H825 H 0.33356 0.07491 0.41954 0.0
S826 S 0.31839 0.30786 0.35707 0.0
N827 N 0.31329 0.32442 0.38669 0.0
N828 N 0.32552 0.22424 0.3549 0.0
C829 C 0.32414 0.20578 0.37894 0.0
C830 C 0.31746 0.26062 0.39625 0.0
C831 C 0.05652 1.0368 0.13548 0.0
C832 C 0.05791 0.04506 0.16118 0.0
C833 C 0.1142 0.05187 0.12062 0.0
C834 C 0.17714 0.07304 0.13081 0.0
H835 H 1.01009 1.02001 0.12672 0.0
H836 H 0.10909 0.0476 0.1009 0.0
S837 S 0.21029 0.09204 0.19769 0.0
N838 N 0.12903 0.07015 0.19631 0.0
N839 N 0.23699 0.09469 0.16898 0.0
C840 C 0.17974 0.07713 0.15668 0.0
C841 C 0.12055 0.06411 0.17166 0.0
C842 C 0.27362 0.95689 0.90279 0.0
C843 C 0.24396 0.93656 0.88027 0.0
C844 C 0.28768 0.90969 0.92178 0.0
C845 C 0.27342 0.83956 0.91914 0.0
H846 H 0.2858 1.00994 0.90597 0.0
H847 H 0.31091 0.92819 0.93852 0.0
S848 S 0.1968 0.75783 0.86427 0.0
N849 N 0.20208 0.8393 0.85683 0.0
N850 N 0.22809 0.75213 0.89224 0.0
C851 C 0.24512 0.8182 0.89669 0.0
C852 C 0.23068 0.86602 0.87739 0.0
C853 C 0.50805 1.01395 0.65071 0.0
C854 C 0.4957 1.01916 0.67616 0.0
C855 C 0.45436 1.0078 0.63353 0.0
C856 C 0.38479 1.00802 0.64068 0.0
H857 H 0.56009 1.01387 0.64395 0.0
H858 H 0.46789 1.00191 0.61436 0.0
S859 S 0.32444 1.02626 0.70525 0.0
N860 N 0.40844 1.02711 0.70762 0.0
N861 N 0.30783 1.0182 0.67571 0.0
C862 C 0.37184 1.01538 0.66617 0.0
C863 C 0.42689 1.02014 0.68371 0.0
C864 C 0.09476 0.2056 0.97737 0.0
C865 C 0.13664 0.25274 0.98951 0.0
C866 C 0.09139 0.2049 0.95176 0.0
C867 C 0.12986 0.25105 0.93741 0.0
H868 H 0.06874 0.16586 0.98764 0.0
H869 H 0.06248 0.16479 0.943 0.0
S870 S 0.23491 0.394 0.96092 0.0
N871 N 0.20744 0.35433 0.98585 0.0
N872 N 0.20218 0.35193 0.93742 0.0
C873 C 0.16599 0.30298 0.94945 0.0
C874 C 0.16925 0.30393 0.97561 0.0
C875 C 0.5243 0.40677 0.2195 0.0
C876 C 0.50798 0.46537 0.20608 0.0
C877 C 0.53249 0.40953 0.24489 0.0
C878 C 0.52696 0.47166 0.25755 0.0
H879 H 0.5377 0.36035 0.20996 0.0
H880 H 0.5513 0.36477 0.25425 0.0
S881 S 0.47338 0.63684 0.23067 0.0
N882 N 0.47479 0.58368 0.20724 0.0
N883 N 0.4952 0.59147 0.25485 0.0
C884 C 0.5029 0.52891 0.24461 0.0
C885 C 0.49226 0.52506 0.2188 0.0
C886 C 0.36271 0.85856 0.47737 0.0
C887 C 0.41874 0.84506 0.49249 0.0
C888 C 0.3654 0.84445 0.45228 0.0
C889 C 0.42488 0.81816 0.44142 0.0
H890 H 0.31825 0.88391 0.48484 0.0
H891 H 0.32334 0.86029 0.44085 0.0
S892 S 0.57598 0.75466 0.47438 0.0
N893 N 0.52833 0.78932 0.49612 0.0
N894 N 0.53458 0.76521 0.44832 0.0
C895 C 0.47773 0.79674 0.45678 0.0
C896 C 0.47461 0.81022 0.48253 0.0
C897 C 0.99781 0.66588 0.72723 0.0
C898 C 1.03195 0.61512 0.71379 0.0
C899 C 0.99986 0.66667 0.75281 0.0
C900 C 1.03811 0.61813 0.76549 0.0
H901 H 0.96722 0.70367 0.71808 0.0
H902 H 0.96754 0.70186 0.76268 0.0
S903 S 0.1572 0.49296 0.73852 0.0
N904 N 0.11806 0.52654 0.71468 0.0
N905 N 0.1263 0.5321 0.76296 0.0
C906 C 0.08175 0.57537 0.75218 0.0
C907 C 0.07782 0.57284 0.72615 0.0
C908 C 0.87902 0.8155 0.08842 0.0
C909 C 0.8696 0.86511 0.10657 0.0
C910 C 0.8958 0.83495 0.06436 0.0
C911 C 0.9039 0.90427 0.0581 0.0
H912 H 0.86992 0.76223 0.0926 0.0
H913 H 0.8969 0.79635 0.05015 0.0
S914 S 0.88773 0.05224 0.09943 0.0
N915 N 0.87222 0.9855 0.11713 0.0
N916 N 0.9061 1.02126 0.07204 0.0
C917 C 0.90037 0.95336 0.0766 0.0
C918 C 0.88188 0.93401 0.10081 0.0
C919 C 0.41765 0.55916 0.8528 0.0
C920 C 0.46837 0.59977 0.86364 0.0
C921 C 0.40435 0.56327 0.82782 0.0
C922 C 0.44712 0.60086 0.81209 0.0
H923 H 0.38637 0.52549 0.86395 0.0
H924 H 0.36116 0.53511 0.82054 0.0
S925 S 0.59554 0.70645 0.83062 0.0
N926 N 0.56442 0.6764 0.85674 0.0
N927 N 0.54621 0.67544 0.8087 0.0
C928 C 0.50132 0.63824 0.82233 0.0
C929 C 0.51159 0.63822 0.84826 0.0
C930 C 0.62916 0.24533 0.60819 0.0
C931 C 0.6819 0.27204 0.62291 0.0
C932 C 0.63458 0.24481 0.58255 0.0
C933 C 0.6925 0.27177 0.57081 0.0
H934 H 0.58489 0.22169 0.61657 0.0
H935 H 0.59508 0.22003 0.57187 0.0
S936 S 0.83805 0.35992 0.6005 0.0
N937 N 0.78926 0.33453 0.62363 0.0
N938 N 0.79863 0.33498 0.57527 0.0
C939 C 0.74237 0.30455 0.5851 0.0
C940 C 0.73708 0.30468 0.61122 0.0
C941 C 0.05541 0.47358 0.35755 0.0
C942 C 0.07097 0.41324 0.37005 0.0
C943 C 0.07021 0.48082 0.33246 0.0
C944 C 0.10023 0.42744 0.31889 0.0
H945 H 1.03729 0.51734 0.36774 0.0
H946 H 0.06338 0.53045 0.3243 0.0
S947 S 0.14736 0.25799 0.34305 0.0
N948 N 0.11712 0.2993 0.36712 0.0
N949 N 0.1406 0.31087 0.31963 0.0
C950 C 0.11196 0.36547 0.33094 0.0
C951 C 0.09819 0.35875 0.35656 0.0
C952 C 0.80337 0.74398 0.46249 0.0
C953 C 0.75922 0.79221 0.45269 0.0
C954 C 0.80119 0.72862 0.48724 0.0
C955 C 0.76447 0.76887 0.50402 0.0
H956 H 0.83287 0.71148 0.45046 0.0
H957 H 0.825 0.68178 0.49248 0.0
S958 S 0.65954 0.91906 0.48786 0.0
N959 N 0.68593 0.8889 0.46113 0.0
N960 N 0.69324 0.86939 0.50906 0.0
C961 C 0.72875 0.82534 0.49471 0.0
C962 C 0.72537 0.83649 0.46881 0.0
C963 C 1.00419 0.90642 0.70068 0.0
C964 C 0.04751 0.86204 0.6879 0.0
C965 C 1.00645 0.91024 0.72632 0.0
C966 C 0.0539 0.8717 0.73971 0.0
H967 H 0.97337 0.94271 0.69076 0.0
H968 H 0.97495 0.9475 0.73553 0.0
S969 S 0.16145 0.73279 0.71507 0.0
N970 N 0.12229 0.764 0.69081 0.0
N971 N 0.13364 0.77745 0.73876 0.0
C972 C 0.08969 0.82024 0.7274 0.0
C973 C 0.0846 0.81392 0.70144 0.0
C974 C 0.85541 0.26894 0.98306 0.0
C975 C 0.88677 0.31423 0.96654 0.0
C976 C 0.86252 0.27805 1.00838 0.0
C977 C 0.90008 0.33348 1.01779 0.0
H978 H 0.82068 0.23007 0.97635 0.0
H979 H 0.83262 0.24625 1.02068 0.0
S980 S 1.00134 0.45918 0.98246 0.0
N981 N 0.96428 0.41107 0.96147 0.0
N982 N 0.97739 0.42714 1.00916 0.0
C983 C 0.93836 0.37369 1.0016 0.0
C984 C 0.9313 0.36469 0.97585 0.0
C985 C 0.52736 0.14284 0.22854 0.0
C986 C 0.48124 0.18797 0.24002 0.0
C987 C 0.53934 0.1451 0.20312 0.0
C988 C 0.50546 0.19218 0.18829 0.0
H989 H 0.54957 0.10132 0.23866 0.0
H990 H 0.57044 0.106 0.1947 0.0
S991 S 0.38159 0.32213 0.20884 0.0
N992 N 0.4041 0.28296 0.23433 0.0
N993 N 0.42622 0.28629 0.18659 0.0
C994 C 0.46254 0.24 0.19957 0.0
C995 C 0.45033 0.2379 0.22538 0.0
C996 C 0.41162 0.22973 0.59122 0.0
C997 C 0.43358 0.27906 0.6081 0.0
C998 C 0.42462 0.23826 0.56616 0.0
C999 C 0.45849 0.29705 0.55757 0.0
H1000 H 0.37673 0.18976 0.59704 0.0
H1001 H 0.39891 0.2049 0.55328 0.0
S1002 S 0.54513 0.42831 0.59468 0.0
N1003 N 0.50573 0.37905 0.61489 0.0
N1004 N 0.5292 0.39434 0.56759 0.0
C1005 C 0.49161 0.33903 0.57442 0.0
C1006 C 0.47884 0.33054 0.59991 0.0
C1007 C 0.9597 0.16456 0.34291 0.0
C1008 C 1.00591 0.12056 0.35431 0.0
C1009 C 0.96523 0.17878 0.31798 0.0
C1010 C 1.01656 0.14838 0.30383 0.0
H1011 H 0.91666 0.18441 0.3531 0.0
H1012 H 0.9249 0.20722 0.30923 0.0
S1013 S 0.15812 0.04166 0.32636 0.0
N1014 N 0.11038 0.05575 0.35093 0.0
N1015 N 0.12116 0.0826 0.30353 0.0
C1016 C 0.06754 0.11078 0.31561 0.0
C1017 C 0.06163 0.096 0.34103 0.0
C1018 C 0.13837 0.82981 0.10924 0.0
C1019 C 0.1954 0.81537 0.12375 0.0
C1020 C 0.14262 0.82617 0.08357 0.0
C1021 C 0.20406 0.80825 0.07185 0.0
H1022 H 0.08916 0.83784 0.11783 0.0
H1023 H 0.09659 0.83207 0.07288 0.0
S1024 S 0.36806 0.76897 0.1023 0.0
N1025 N 0.31522 0.7871 0.12504 0.0
N1026 N 0.32344 0.77839 0.07694 0.0
C1027 C 0.26245 0.79857 0.0863 0.0
C1028 C 0.25802 0.80274 0.11228 0.0
C1029 C 0.61008 0.90242 0.86258 0.0
C1030 C 0.54746 0.87354 0.87013 0.0
C1031 C 0.62604 0.91009 0.8379 0.0
C1032 C 0.5786 0.89296 0.81982 0.0
H1033 H 0.64725 0.91905 0.87598 0.0
H1034 H 0.67502 0.93199 0.83283 0.0
S1035 S 0.40817 0.81436 0.82972 0.0
N1036 N 0.43888 0.82484 0.8577 0.0
N1037 N 0.46725 0.84402 0.81063 0.0
C1038 C 0.51578 0.86375 0.82687 0.0
C1039 C 0.50023 0.85375 0.85226 0.0
loop_
_geom_bond_atom_site_label_1
_geom_bond_atom_site_label_2
_geom_bond_distance
_geom_bond_site_symmetry_2
_ccdc_geom_bond_type
Zn0 O1 2.055 . S
Zn0 O8 2.046 . S
Zn0 N16 2.036 . S
Zn0 O28 2.053 . S
Zn0 O30 2.066 . S
O1 Zn0 2.055 . S
O1 C4 1.259 . S
C2 O30 1.256 . S
C2 O31 1.244 . S
Zn3 O5 2.046 . S
Zn3 O7 2.055 . S
Zn3 N9 2.036 . S
Zn3 O27 2.066 . S
Zn3 O31 2.053 . S
C4 O1 1.259 . S
C4 O5 1.254 . S
O5 Zn3 2.046 . S
O5 C4 1.254 . S
C6 O27 1.256 . S
C6 O28 1.244 . S
O7 Zn3 2.055 . S
O7 C29 1.259 . S
O8 Zn0 2.046 . S
O8 C29 1.254 . S
N9 Zn3 2.036 . S
N9 C10 1.298 . S
N9 N12 1.398 . S
C10 N9 1.298 . S
C10 N13 1.367 1_554 S
C10 C23 1.481 1_554 S
C11 N12 1.299 1_556 S
C11 N13 1.379 . S
N12 N9 1.398 . S
N12 C11 1.299 1_554 S
N13 C10 1.367 1_556 S
N13 C11 1.379 . S
C14 N16 1.298 . S
C14 N18 1.367 . S
C14 C22 1.481 . S
C15 N17 1.299 . S
C15 N18 1.379 . S
N16 Zn0 2.036 . S
N16 C14 1.298 . S
N16 N17 1.398 . S
N17 C15 1.299 . S
N17 N16 1.398 . S
N18 C14 1.367 . S
N18 C15 1.379 . S
H19 C22 0.980 . S
H20 C22 0.981 . S
H21 C22 0.981 . S
C22 C14 1.481 . S
C22 H19 0.980 . S
C22 H20 0.981 . S
C22 H21 0.981 . S
C23 C10 1.481 1_556 S
C23 H24 0.980 1_556 S
C23 H25 0.981 . S
C23 H26 0.981 . S
H24 C23 0.980 1_554 S
H25 C23 0.981 . S
H26 C23 0.981 . S
O27 Zn3 2.066 . S
O27 C6 1.256 . S
O28 Zn0 2.053 . S
O28 C6 1.244 . S
C29 O7 1.259 . S
C29 O8 1.254 . S
O30 Zn0 2.066 . S
O30 C2 1.256 . S
O31 C2 1.244 . S
O31 Zn3 2.053 . S
Zn32 O33 2.055 . S
Zn32 O40 2.046 . S
Zn32 N48 2.036 . S
Zn32 O60 2.053 . S
Zn32 O62 2.066 . S
O33 Zn32 2.055 . S
O33 C36 1.259 . S
C34 O62 1.256 . S
C34 O63 1.244 . S
Zn35 O37 2.046 . S
Zn35 O39 2.055 . S
Zn35 N41 2.036 . S
Zn35 O59 2.066 . S
Zn35 O63 2.053 . S
C36 O33 1.259 . S
C36 O37 1.254 . S
O37 Zn35 2.046 . S
O37 C36 1.254 . S
C38 O59 1.256 . S
C38 O60 1.244 . S
O39 Zn35 2.055 . S
O39 C61 1.259 . S
O40 Zn32 2.046 . S
O40 C61 1.254 . S
N41 Zn35 2.036 . S
N41 C42 1.298 . S
N41 N44 1.398 . S
C42 N41 1.298 . S
C42 N45 1.367 . S
C42 C55 1.481 . S
C43 N44 1.299 . S
C43 N45 1.379 . S
N44 N41 1.398 . S
N44 C43 1.299 . S
N45 C42 1.367 . S
N45 C43 1.379 . S
C46 N48 1.298 . S
C46 N50 1.367 . S
C46 C54 1.481 . S
C47 N49 1.299 . S
C47 N50 1.379 . S
N48 Zn32 2.036 . S
N48 C46 1.298 . S
N48 N49 1.398 . S
N49 C47 1.299 . S
N49 N48 1.398 . S
N50 C46 1.367 . S
N50 C47 1.379 . S
H51 C54 0.980 . S
H52 C54 0.981 . S
H53 C54 0.981 . S
C54 C46 1.481 . S
C54 H51 0.980 . S
C54 H52 0.981 . S
C54 H53 0.981 . S
C55 C42 1.481 . S
C55 H56 0.980 . S
C55 H57 0.981 . S
C55 H58 0.981 . S
H56 C55 0.980 . S
H57 C55 0.981 . S
H58 C55 0.981 . S
O59 Zn35 2.066 . S
O59 C38 1.256 . S
O60 Zn32 2.053 . S
O60 C38 1.244 . S
C61 O39 1.259 . S
C61 O40 1.254 . S
O62 Zn32 2.066 . S
O62 C34 1.256 . S
O63 C34 1.244 . S
O63 Zn35 2.053 . S
Zn64 O65 2.055 . S
Zn64 O72 2.046 . S
Zn64 N80 2.036 . S
Zn64 O92 2.053 . S
Zn64 O94 2.066 . S
O65 Zn64 2.055 . S
O65 C68 1.259 . S
C66 O94 1.256 . S
C66 O95 1.244 . S
Zn67 O69 2.046 . S
Zn67 O71 2.055 . S
Zn67 N73 2.036 . S
Zn67 O91 2.066 . S
Zn67 O95 2.053 . S
C68 O65 1.259 . S
C68 O69 1.254 . S
O69 Zn67 2.046 . S
O69 C68 1.254 . S
C70 O91 1.256 . S
C70 O92 1.244 . S
O71 Zn67 2.055 . S
O71 C93 1.259 . S
O72 Zn64 2.046 . S
O72 C93 1.254 . S
N73 Zn67 2.036 . S
N73 C74 1.298 . S
N73 N76 1.398 . S
C74 N73 1.298 . S
C74 N77 1.367 . S
C74 C87 1.481 . S
C75 N76 1.299 . S
C75 N77 1.379 . S
N76 N73 1.398 . S
N76 C75 1.299 . S
N77 C74 1.367 . S
N77 C75 1.379 . S
C78 N80 1.298 . S
C78 N82 1.367 . S
C78 C86 1.481 . S
C79 N81 1.299 . S
C79 N82 1.379 . S
N80 Zn64 2.036 . S
N80 C78 1.298 . S
N80 N81 1.398 . S
N81 C79 1.299 . S
N81 N80 1.398 . S
N82 C78 1.367 . S
N82 C79 1.379 . S
H83 C86 0.980 . S
H84 C86 0.981 . S
H85 C86 0.981 . S
C86 C78 1.481 . S
C86 H83 0.980 . S
C86 H84 0.981 . S
C86 H85 0.981 . S
C87 C74 1.481 . S
C87 H88 0.980 . S
C87 H89 0.981 . S
C87 H90 0.981 . S
H88 C87 0.980 . S
H89 C87 0.981 . S
H90 C87 0.981 . S
O91 Zn67 2.066 . S
O91 C70 1.256 . S
O92 Zn64 2.053 . S
O92 C70 1.244 . S
C93 O71 1.259 . S
C93 O72 1.254 . S
O94 Zn64 2.066 . S
O94 C66 1.256 . S
O95 C66 1.244 . S
O95 Zn67 2.053 . S
Zn96 O97 2.055 . S
Zn96 O104 2.046 . S
Zn96 N112 2.036 . S
Zn96 O124 2.053 . S
Zn96 O126 2.066 . S
O97 Zn96 2.055 . S
O97 C100 1.259 1_655 S
C98 O126 1.256 . S
C98 O127 1.244 . S
Zn99 O101 2.046 1_655 S
Zn99 O103 2.055 . S
Zn99 N105 2.036 . S
Zn99 O123 2.066 . S
Zn99 O127 2.053 . S
C100 O97 1.259 1_455 S
C100 O101 1.254 . S
O101 Zn99 2.046 1_455 S
O101 C100 1.254 . S
C102 O123 1.256 . S
C102 O124 1.244 . S
O103 Zn99 2.055 . S
O103 C125 1.259 . S
O104 Zn96 2.046 . S
O104 C125 1.254 . S
N105 Zn99 2.036 . S
N105 C106 1.298 . S
N105 N108 1.398 . S
C106 N105 1.298 . S
C106 N109 1.367 . S
C106 C119 1.481 . S
C107 N108 1.299 . S
C107 N109 1.379 . S
N108 N105 1.398 . S
N108 C107 1.299 . S
N109 C106 1.367 . S
N109 C107 1.379 . S
C110 N112 1.298 . S
C110 N114 1.367 . S
C110 C118 1.481 . S
C111 N113 1.299 . S
C111 N114 1.379 . S
N112 Zn96 2.036 . S
N112 C110 1.298 . S
N112 N113 1.398 . S
N113 C111 1.299 . S
N113 N112 1.398 . S
N114 C110 1.367 . S
N114 C111 1.379 . S
H115 C118 0.980 . S
H116 C118 0.981 . S
H117 C118 0.981 . S
C118 C110 1.481 . S
C118 H115 0.980 . S
C118 H116 0.981 . S
C118 H117 0.981 . S
C119 C106 1.481 . S
C119 H120 0.980 . S
C119 H121 0.981 1_655 S
C119 H122 0.981 . S
H120 C119 0.980 . S
H121 C119 0.981 1_455 S
H122 C119 0.981 . S
O123 Zn99 2.066 . S
O123 C102 1.256 . S
O124 Zn96 2.053 . S
O124 C102 1.244 . S
C125 O103 1.259 . S
C125 O104 1.254 . S
O126 Zn96 2.066 . S
O126 C98 1.256 . S
O127 C98 1.244 . S
O127 Zn99 2.053 . S
Zn128 O129 2.055 . S
Zn128 O136 2.046 . S
Zn128 N144 2.036 . S
Zn128 O156 2.053 . S
Zn128 O158 2.066 . S
O129 Zn128 2.055 . S
O129 C132 1.259 . S
C130 O158 1.256 . S
C130 O159 1.244 . S
Zn131 O133 2.046 . S
Zn131 O135 2.055 . S
Zn131 N137 2.036 . S
Zn131 O155 2.066 . S
Zn131 O159 2.053 . S
C132 O129 1.259 . S
C132 O133 1.254 . S
O133 Zn131 2.046 . S
O133 C132 1.254 . S
C134 O155 1.256 . S
C134 O156 1.244 . S
O135 Zn131 2.055 . S
O135 C157 1.259 . S
O136 Zn128 2.046 . S
O136 C157 1.254 . S
N137 Zn131 2.036 . S
N137 C138 1.298 . S
N137 N140 1.398 . S
C138 N137 1.298 . S
C138 N141 1.367 1_556 S
C138 C151 1.481 1_556 S
C139 N140 1.299 1_554 S
C139 N141 1.379 . S
N140 N137 1.398 . S
N140 C139 1.299 1_556 S
N141 C138 1.367 1_554 S
N141 C139 1.379 . S
C142 N144 1.298 . S
C142 N146 1.367 . S
C142 C150 1.481 . S
C143 N145 1.299 . S
C143 N146 1.379 . S
N144 Zn128 2.036 . S
N144 C142 1.298 . S
N144 N145 1.398 . S
N145 C143 1.299 . S
N145 N144 1.398 . S
N146 C142 1.367 . S
N146 C143 1.379 . S
H147 C150 0.980 . S
H148 C150 0.981 . S
H149 C150 0.981 . S
C150 C142 1.481 . S
C150 H147 0.980 . S
C150 H148 0.981 . S
C150 H149 0.981 . S
C151 C138 1.481 1_554 S
C151 H152 0.980 1_554 S
C151 H153 0.981 . S
C151 H154 0.981 . S
H152 C151 0.980 1_556 S
H153 C151 0.981 . S
H154 C151 0.981 . S
O155 Zn131 2.066 . S
O155 C134 1.256 . S
O156 Zn128 2.053 . S
O156 C134 1.244 . S
C157 O135 1.259 . S
C157 O136 1.254 . S
O158 Zn128 2.066 . S
O158 C130 1.256 . S
O159 C130 1.244 . S
O159 Zn131 2.053 . S
Zn160 O161 2.055 . S
Zn160 O168 2.046 . S
Zn160 N176 2.036 . S
Zn160 O188 2.053 . S
Zn160 O190 2.066 . S
O161 Zn160 2.055 . S
O161 C164 1.259 . S
C162 O190 1.256 . S
C162 O191 1.244 . S
Zn163 O165 2.046 . S
Zn163 O167 2.055 . S
Zn163 N169 2.036 . S
Zn163 O187 2.066 . S
Zn163 O191 2.053 . S
C164 O161 1.259 . S
C164 O165 1.254 . S
O165 Zn163 2.046 . S
O165 C164 1.254 . S
C166 O187 1.256 . S
C166 O188 1.244 . S
O167 Zn163 2.055 . S
O167 C189 1.259 . S
O168 Zn160 2.046 . S
O168 C189 1.254 . S
N169 Zn163 2.036 . S
N169 C170 1.298 . S
N169 N172 1.398 . S
C170 N169 1.298 . S
C170 N173 1.367 . S
C170 C183 1.481 . S
C171 N172 1.299 . S
C171 N173 1.379 . S
N172 N169 1.398 . S
N172 C171 1.299 . S
N173 C170 1.367 . S
N173 C171 1.379 . S
C174 N176 1.298 . S
C174 N178 1.367 . S
C174 C182 1.481 . S
C175 N177 1.299 . S
C175 N178 1.379 . S
N176 Zn160 2.036 . S
N176 C174 1.298 . S
N176 N177 1.398 . S
N177 C175 1.299 . S
N177 N176 1.398 . S
N178 C174 1.367 . S
N178 C175 1.379 . S
H179 C182 0.980 . S
H180 C182 0.981 . S
H181 C182 0.981 . S
C182 C174 1.481 . S
C182 H179 0.980 . S
C182 H180 0.981 . S
C182 H181 0.981 . S
C183 C170 1.481 . S
C183 H184 0.980 . S
C183 H185 0.981 . S
C183 H186 0.981 . S
H184 C183 0.980 . S
H185 C183 0.981 . S
H186 C183 0.981 . S
O187 Zn163 2.066 . S
O187 C166 1.256 . S
O188 Zn160 2.053 . S
O188 C166 1.244 . S
C189 O167 1.259 . S
C189 O168 1.254 . S
O190 Zn160 2.066 . S
O190 C162 1.256 . S
O191 C162 1.244 . S
O191 Zn163 2.053 . S
Zn192 O193 2.055 . S
Zn192 O200 2.046 . S
Zn192 N208 2.036 . S
Zn192 O220 2.053 . S
Zn192 O222 2.066 . S
O193 Zn192 2.055 . S
O193 C196 1.259 . S
C194 O222 1.256 . S
C194 O223 1.244 . S
Zn195 O197 2.046 . S
Zn195 O199 2.055 . S
Zn195 N201 2.036 . S
Zn195 O219 2.066 . S
Zn195 O223 2.053 . S
C196 O193 1.259 . S
C196 O197 1.254 . S
O197 Zn195 2.046 . S
O197 C196 1.254 . S
C198 O219 1.256 . S
C198 O220 1.244 . S
O199 Zn195 2.055 . S
O199 C221 1.259 . S
O200 Zn192 2.046 . S
O200 C221 1.254 . S
N201 Zn195 2.036 . S
N201 C202 1.298 . S
N201 N204 1.398 . S
C202 N201 1.298 . S
C202 N205 1.367 . S
C202 C215 1.481 . S
C203 N204 1.299 . S
C203 N205 1.379 . S
N204 N201 1.398 . S
N204 C203 1.299 . S
N205 C202 1.367 . S
N205 C203 1.379 . S
C206 N208 1.298 . S
C206 N210 1.367 . S
C206 C214 1.481 . S
C207 N209 1.299 . S
C207 N210 1.379 . S
N208 Zn192 2.036 . S
N208 C206 1.298 . S
N208 N209 1.398 . S
N209 C207 1.299 . S
N209 N208 1.398 . S
N210 C206 1.367 . S
N210 C207 1.379 . S
H211 C214 0.980 . S
H212 C214 0.981 . S
H213 C214 0.981 . S
C214 C206 1.481 . S
C214 H211 0.980 . S
C214 H212 0.981 . S
C214 H213 0.981 . S
C215 C202 1.481 . S
C215 H216 0.980 . S
C215 H217 0.981 . S
C215 H218 0.981 . S
H216 C215 0.980 . S
H217 C215 0.981 . S
H218 C215 0.981 . S
O219 Zn195 2.066 . S
O219 C198 1.256 . S
O220 Zn192 2.053 . S
O220 C198 1.244 . S
C221 O199 1.259 . S
C221 O200 1.254 . S
O222 Zn192 2.066 . S
O222 C194 1.256 . S
O223 C194 1.244 . S
O223 Zn195 2.053 . S
Zn224 O225 2.055 . S
Zn224 O232 2.046 . S
Zn224 N240 2.036 . S
Zn224 O252 2.053 . S
Zn224 O254 2.066 . S
O225 Zn224 2.055 . S
O225 C228 1.259 1_455 S
C226 O254 1.256 . S
C226 O255 1.244 . S
Zn227 O229 2.046 1_455 S
Zn227 O231 2.055 . S
Zn227 N233 2.036 . S
Zn227 O251 2.066 . S
Zn227 O255 2.053 . S
C228 O225 1.259 1_655 S
C228 O229 1.254 . S
O229 Zn227 2.046 1_655 S
O229 C228 1.254 . S
C230 O251 1.256 . S
C230 O252 1.244 . S
O231 Zn227 2.055 . S
O231 C253 1.259 . S
O232 Zn224 2.046 . S
O232 C253 1.254 . S
N233 Zn227 2.036 . S
N233 C234 1.298 . S
N233 N236 1.398 . S
C234 N233 1.298 . S
C234 N237 1.367 . S
C234 C247 1.481 . S
C235 N236 1.299 . S
C235 N237 1.379 . S
N236 N233 1.398 . S
N236 C235 1.299 . S
N237 C234 1.367 . S
N237 C235 1.379 . S
C238 N240 1.298 . S
C238 N242 1.367 . S
C238 C246 1.481 . S
C239 N241 1.299 . S
C239 N242 1.379 . S
N240 Zn224 2.036 . S
N240 C238 1.298 . S
N240 N241 1.398 . S
N241 C239 1.299 . S
N241 N240 1.398 . S
N242 C238 1.367 . S
N242 C239 1.379 . S
H243 C246 0.980 . S
H244 C246 0.981 . S
H245 C246 0.981 . S
C246 C238 1.481 . S
C246 H243 0.980 . S
C246 H244 0.981 . S
C246 H245 0.981 . S
C247 C234 1.481 . S
C247 H248 0.980 . S
C247 H249 0.981 1_455 S
C247 H250 0.981 . S
H248 C247 0.980 . S
H249 C247 0.981 1_655 S
H250 C247 0.981 . S
O251 Zn227 2.066 . S
O251 C230 1.256 . S
O252 Zn224 2.053 . S
O252 C230 1.244 . S
C253 O231 1.259 . S
C253 O232 1.254 . S
O254 Zn224 2.066 . S
O254 C226 1.256 . S
O255 C226 1.244 . S
O255 Zn227 2.053 . S
Zn256 O257 2.055 . S
Zn256 O264 2.046 . S
Zn256 N272 2.036 . S
Zn256 O284 2.053 . S
Zn256 O286 2.066 . S
O257 Zn256 2.055 . S
O257 C260 1.259 . S
C258 O286 1.256 . S
C258 O287 1.244 . S
Zn259 O261 2.046 . S
Zn259 O263 2.055 . S
Zn259 N265 2.036 . S
Zn259 O283 2.066 . S
Zn259 O287 2.053 . S
C260 O257 1.259 . S
C260 O261 1.254 . S
O261 Zn259 2.046 . S
O261 C260 1.254 . S
C262 O283 1.256 . S
C262 O284 1.244 . S
O263 Zn259 2.055 . S
O263 C285 1.259 . S
O264 Zn256 2.046 . S
O264 C285 1.254 . S
N265 Zn259 2.036 . S
N265 C266 1.298 . S
N265 N268 1.398 . S
C266 N265 1.298 . S
C266 N269 1.367 . S
C266 C279 1.481 . S
C267 N268 1.299 . S
C267 N269 1.379 . S
N268 N265 1.398 . S
N268 C267 1.299 . S
N269 C266 1.367 . S
N269 C267 1.379 . S
C270 N272 1.298 . S
C270 N274 1.367 . S
C270 C278 1.481 . S
C271 N273 1.299 . S
C271 N274 1.379 . S
N272 Zn256 2.036 . S
N272 C270 1.298 . S
N272 N273 1.398 . S
N273 C271 1.299 . S
N273 N272 1.398 . S
N274 C270 1.367 . S
N274 C271 1.379 . S
H275 C278 0.980 . S
H276 C278 0.981 . S
H277 C278 0.981 . S
C278 C270 1.481 . S
C278 H275 0.980 . S
C278 H276 0.981 . S
C278 H277 0.981 . S
C279 C266 1.481 . S
C279 H280 0.980 . S
C279 H281 0.981 . S
C279 H282 0.981 . S
H280 C279 0.980 . S
H281 C279 0.981 . S
H282 C279 0.981 . S
O283 Zn259 2.066 . S
O283 C262 1.256 . S
O284 Zn256 2.053 . S
O284 C262 1.244 . S
C285 O263 1.259 . S
C285 O264 1.254 . S
O286 Zn256 2.066 . S
O286 C258 1.256 . S
O287 C258 1.244 . S
O287 Zn259 2.053 . S
Zn288 O289 2.055 . S
Zn288 O296 2.046 1_455 S
Zn288 N304 2.036 . S
Zn288 O316 2.052 1_545 S
Zn288 O318 2.066 . S
O289 Zn288 2.055 . S
O289 C292 1.259 . S
C290 O318 1.256 . S
C290 O319 1.244 . S
Zn291 O293 2.046 . S
Zn291 O295 2.055 . S
Zn291 N297 2.036 . S
Zn291 O315 2.066 . S
Zn291 O319 2.053 . S
C292 O289 1.259 . S
C292 O293 1.254 . S
O293 Zn291 2.046 . S
O293 C292 1.254 . S
C294 O315 1.256 1_565 S
C294 O316 1.244 . S
O295 Zn291 2.055 . S
O295 C317 1.259 1_455 S
O296 Zn288 2.046 1_655 S
O296 C317 1.254 . S
N297 Zn291 2.036 . S
N297 C298 1.298 . S
N297 N300 1.398 . S
C298 N297 1.298 . S
C298 N301 1.367 . S
C298 C311 1.481 . S
C299 N300 1.299 . S
C299 N301 1.379 . S
N300 N297 1.398 . S
N300 C299 1.299 . S
N301 C298 1.367 . S
N301 C299 1.379 . S
C302 N304 1.298 . S
C302 N306 1.367 1_545 S
C302 C310 1.481 . S
C303 N305 1.299 . S
C303 N306 1.379 . S
N304 Zn288 2.036 . S
N304 C302 1.298 . S
N304 N305 1.398 1_545 S
N305 C303 1.299 . S
N305 N304 1.398 1_565 S
N306 C302 1.367 1_565 S
N306 C303 1.379 . S
H307 C310 0.980 . S
H308 C310 0.981 1_655 S
H309 C310 0.981 . S
C310 C302 1.481 . S
C310 H307 0.980 . S
C310 H308 0.981 1_455 S
C310 H309 0.981 . S
C311 C298 1.481 . S
C311 H312 0.980 . S
C311 H313 0.981 . S
C311 H314 0.981 . S
H312 C311 0.980 . S
H313 C311 0.981 . S
H314 C311 0.981 . S
O315 Zn291 2.066 . S
O315 C294 1.256 1_545 S
O316 Zn288 2.052 1_565 S
O316 C294 1.244 . S
C317 O295 1.259 1_655 S
C317 O296 1.254 . S
O318 Zn288 2.066 . S
O318 C290 1.256 . S
O319 C290 1.244 . S
O319 Zn291 2.053 . S
Zn320 O321 2.055 . S
Zn320 O328 2.046 . S
Zn320 N336 2.036 . S
Zn320 O348 2.053 . S
Zn320 O350 2.066 . S
O321 Zn320 2.055 . S
O321 C324 1.259 . S
C322 O350 1.256 . S
C322 O351 1.244 . S
Zn323 O325 2.046 . S
Zn323 O327 2.055 . S
Zn323 N329 2.036 . S
Zn323 O347 2.066 . S
Zn323 O351 2.053 . S
C324 O321 1.259 . S
C324 O325 1.254 . S
O325 Zn323 2.046 . S
O325 C324 1.254 . S
C326 O347 1.256 . S
C326 O348 1.244 . S
O327 Zn323 2.055 . S
O327 C349 1.259 . S
O328 Zn320 2.046 . S
O328 C349 1.254 . S
N329 Zn323 2.036 . S
N329 C330 1.298 . S
N329 N332 1.398 . S
C330 N329 1.298 . S
C330 N333 1.367 1_554 S
C330 C343 1.481 1_554 S
C331 N332 1.299 1_556 S
C331 N333 1.379 . S
N332 N329 1.398 . S
N332 C331 1.299 1_554 S
N333 C330 1.367 1_556 S
N333 C331 1.379 . S
C334 N336 1.298 . S
C334 N338 1.367 . S
C334 C342 1.481 . S
C335 N337 1.299 . S
C335 N338 1.379 . S
N336 Zn320 2.036 . S
N336 C334 1.298 . S
N336 N337 1.398 . S
N337 C335 1.299 . S
N337 N336 1.398 . S
N338 C334 1.367 . S
N338 C335 1.379 . S
H339 C342 0.980 . S
H340 C342 0.981 . S
H341 C342 0.981 . S
C342 C334 1.481 . S
C342 H339 0.980 . S
C342 H340 0.981 . S
C342 H341 0.981 . S
C343 C330 1.481 1_556 S
C343 H344 0.980 1_556 S
C343 H345 0.981 . S
C343 H346 0.981 . S
H344 C343 0.980 1_554 S
H345 C343 0.981 . S
H346 C343 0.981 . S
O347 Zn323 2.066 . S
O347 C326 1.256 . S
O348 Zn320 2.053 . S
O348 C326 1.244 . S
C349 O327 1.259 . S
C349 O328 1.254 . S
O350 Zn320 2.066 . S
O350 C322 1.256 . S
O351 C322 1.244 . S
O351 Zn323 2.053 . S
Zn352 O353 2.055 . S
Zn352 O360 2.046 . S
Zn352 N368 2.036 . S
Zn352 O380 2.053 . S
Zn352 O382 2.066 . S
O353 Zn352 2.055 . S
O353 C356 1.259 . S
C354 O382 1.256 1_545 S
C354 O383 1.244 . S
Zn355 O357 2.046 . S
Zn355 O359 2.055 . S
Zn355 N361 2.036 . S
Zn355 O379 2.066 . S
Zn355 O383 2.052 1_565 S
C356 O353 1.259 . S
C356 O357 1.254 . S
O357 Zn355 2.046 . S
O357 C356 1.254 . S
C358 O379 1.256 . S
C358 O380 1.244 . S
O359 Zn355 2.055 . S
O359 C381 1.259 . S
O360 Zn352 2.046 . S
O360 C381 1.254 . S
N361 Zn355 2.036 . S
N361 C362 1.298 . S
N361 N364 1.398 1_565 S
C362 N361 1.298 . S
C362 N365 1.367 1_565 S
C362 C375 1.481 . S
C363 N364 1.299 . S
C363 N365 1.379 . S
N364 N361 1.398 1_545 S
N364 C363 1.299 . S
N365 C362 1.367 1_545 S
N365 C363 1.379 . S
C366 N368 1.298 . S
C366 N370 1.367 . S
C366 C374 1.481 . S
C367 N369 1.299 . S
C367 N370 1.379 . S
N368 Zn352 2.036 . S
N368 C366 1.298 . S
N368 N369 1.398 . S
N369 C367 1.299 . S
N369 N368 1.398 . S
N370 C366 1.367 . S
N370 C367 1.379 . S
H371 C374 0.980 . S
H372 C374 0.981 . S
H373 C374 0.981 . S
C374 C366 1.481 . S
C374 H371 0.980 . S
C374 H372 0.981 . S
C374 H373 0.981 . S
C375 C362 1.481 . S
C375 H376 0.980 . S
C375 H377 0.981 . S
C375 H378 0.981 . S
H376 C375 0.980 . S
H377 C375 0.981 . S
H378 C375 0.981 . S
O379 Zn355 2.066 . S
O379 C358 1.256 . S
O380 Zn352 2.053 . S
O380 C358 1.244 . S
C381 O359 1.259 . S
C381 O360 1.254 . S
O382 Zn352 2.066 . S
O382 C354 1.256 1_565 S
O383 C354 1.244 . S
O383 Zn355 2.052 1_545 S
Zn384 O385 2.055 . S
Zn384 O392 2.046 . S
Zn384 N400 2.036 . S
Zn384 O412 2.053 . S
Zn384 O414 2.066 . S
O385 Zn384 2.055 . S
O385 C388 1.259 . S
C386 O414 1.256 . S
C386 O415 1.244 . S
Zn387 O389 2.046 . S
Zn387 O391 2.055 . S
Zn387 N393 2.036 . S
Zn387 O411 2.066 . S
Zn387 O415 2.053 . S
C388 O385 1.259 . S
C388 O389 1.254 . S
O389 Zn387 2.046 . S
O389 C388 1.254 . S
C390 O411 1.256 . S
C390 O412 1.244 . S
O391 Zn387 2.055 . S
O391 C413 1.259 . S
O392 Zn384 2.046 . S
O392 C413 1.254 . S
N393 Zn387 2.036 . S
N393 C394 1.298 . S
N393 N396 1.398 . S
C394 N393 1.298 . S
C394 N397 1.367 . S
C394 C407 1.481 . S
C395 N396 1.299 . S
C395 N397 1.379 . S
N396 N393 1.398 . S
N396 C395 1.299 . S
N397 C394 1.367 . S
N397 C395 1.379 . S
C398 N400 1.298 . S
C398 N402 1.367 . S
C398 C406 1.481 . S
C399 N401 1.299 . S
C399 N402 1.379 . S
N400 Zn384 2.036 . S
N400 C398 1.298 . S
N400 N401 1.398 . S
N401 C399 1.299 . S
N401 N400 1.398 . S
N402 C398 1.367 . S
N402 C399 1.379 . S
H403 C406 0.980 . S
H404 C406 0.981 . S
H405 C406 0.981 . S
C406 C398 1.481 . S
C406 H403 0.980 . S
C406 H404 0.981 . S
C406 H405 0.981 . S
C407 C394 1.481 . S
C407 H408 0.980 . S
C407 H409 0.981 . S
C407 H410 0.981 . S
H408 C407 0.980 . S
H409 C407 0.981 . S
H410 C407 0.981 . S
O411 Zn387 2.066 . S
O411 C390 1.256 . S
O412 Zn384 2.053 . S
O412 C390 1.244 . S
C413 O391 1.259 . S
C413 O392 1.254 . S
O414 Zn384 2.066 . S
O414 C386 1.256 . S
O415 C386 1.244 . S
O415 Zn387 2.053 . S
Zn416 O417 2.055 . S
Zn416 O424 2.046 1_655 S
Zn416 N432 2.036 . S
Zn416 O444 2.052 1_565 S
Zn416 O446 2.066 . S
O417 Zn416 2.055 . S
O417 C420 1.259 . S
C418 O446 1.256 . S
C418 O447 1.244 . S
Zn419 O421 2.046 . S
Zn419 O423 2.055 . S
Zn419 N425 2.036 . S
Zn419 O443 2.066 . S
Zn419 O447 2.053 . S
C420 O417 1.259 . S
C420 O421 1.254 . S
O421 Zn419 2.046 . S
O421 C420 1.254 . S
C422 O443 1.256 1_545 S
C422 O444 1.244 . S
O423 Zn419 2.055 . S
O423 C445 1.259 1_655 S
O424 Zn416 2.046 1_455 S
O424 C445 1.254 . S
N425 Zn419 2.036 . S
N425 C426 1.298 . S
N425 N428 1.398 . S
C426 N425 1.298 . S
C426 N429 1.367 . S
C426 C439 1.481 . S
C427 N428 1.299 . S
C427 N429 1.379 . S
N428 N425 1.398 . S
N428 C427 1.299 . S
N429 C426 1.367 . S
N429 C427 1.379 . S
C430 N432 1.298 . S
C430 N434 1.367 1_565 S
C430 C438 1.481 . S
C431 N433 1.299 . S
C431 N434 1.379 . S
N432 Zn416 2.036 . S
N432 C430 1.298 . S
N432 N433 1.398 1_565 S
N433 C431 1.299 . S
N433 N432 1.398 1_545 S
N434 C430 1.367 1_545 S
N434 C431 1.379 . S
H435 C438 0.980 . S
H436 C438 0.981 1_455 S
H437 C438 0.981 . S
C438 C430 1.481 . S
C438 H435 0.980 . S
C438 H436 0.981 1_655 S
C438 H437 0.981 . S
C439 C426 1.481 . S
C439 H440 0.980 . S
C439 H441 0.981 . S
C439 H442 0.981 . S
H440 C439 0.980 . S
H441 C439 0.981 . S
H442 C439 0.981 . S
O443 Zn419 2.066 . S
O443 C422 1.256 1_565 S
O444 Zn416 2.052 1_545 S
O444 C422 1.244 . S
C445 O423 1.259 1_455 S
C445 O424 1.254 . S
O446 Zn416 2.066 . S
O446 C418 1.256 . S
O447 C418 1.244 . S
O447 Zn419 2.053 . S
Zn448 O449 2.055 . S
Zn448 O456 2.046 . S
Zn448 N464 2.036 . S
Zn448 O476 2.053 . S
Zn448 O478 2.066 . S
O449 Zn448 2.055 . S
O449 C452 1.259 . S
C450 O478 1.256 . S
C450 O479 1.244 . S
Zn451 O453 2.046 . S
Zn451 O455 2.055 . S
Zn451 N457 2.036 . S
Zn451 O475 2.066 . S
Zn451 O479 2.053 . S
C452 O449 1.259 . S
C452 O453 1.254 . S
O453 Zn451 2.046 . S
O453 C452 1.254 . S
C454 O475 1.256 . S
C454 O476 1.244 . S
O455 Zn451 2.055 . S
O455 C477 1.259 . S
O456 Zn448 2.046 . S
O456 C477 1.254 . S
N457 Zn451 2.036 . S
N457 C458 1.298 . S
N457 N460 1.398 . S
C458 N457 1.298 . S
C458 N461 1.367 . S
C458 C471 1.481 . S
C459 N460 1.299 . S
C459 N461 1.379 . S
N460 N457 1.398 . S
N460 C459 1.299 . S
N461 C458 1.367 . S
N461 C459 1.379 . S
C462 N464 1.298 . S
C462 N466 1.367 1_556 S
C462 C470 1.481 1_556 S
C463 N465 1.299 1_554 S
C463 N466 1.379 . S
N464 Zn448 2.036 . S
N464 C462 1.298 . S
N464 N465 1.398 . S
N465 C463 1.299 1_556 S
N465 N464 1.398 . S
N466 C462 1.367 1_554 S
N466 C463 1.379 . S
H467 C470 0.980 1_556 S
H468 C470 0.981 . S
H469 C470 0.981 . S
C470 C462 1.481 1_554 S
C470 H467 0.980 1_554 S
C470 H468 0.981 . S
C470 H469 0.981 . S
C471 C458 1.481 . S
C471 H472 0.980 . S
C471 H473 0.981 . S
C471 H474 0.981 . S
H472 C471 0.980 . S
H473 C471 0.981 . S
H474 C471 0.981 . S
O475 Zn451 2.066 . S
O475 C454 1.256 . S
O476 Zn448 2.053 . S
O476 C454 1.244 . S
C477 O455 1.259 . S
C477 O456 1.254 . S
O478 Zn448 2.066 . S
O478 C450 1.256 . S
O479 C450 1.244 . S
O479 Zn451 2.053 . S
Zn480 O481 2.055 . S
Zn480 O488 2.046 . S
Zn480 N496 2.036 . S
Zn480 O508 2.053 . S
Zn480 O510 2.066 . S
O481 Zn480 2.055 . S
O481 C484 1.259 . S
C482 O510 1.256 1_565 S
C482 O511 1.244 . S
Zn483 O485 2.046 . S
Zn483 O487 2.055 . S
Zn483 N489 2.036 . S
Zn483 O507 2.066 . S
Zn483 O511 2.052 1_545 S
C484 O481 1.259 . S
C484 O485 1.254 . S
O485 Zn483 2.046 . S
O485 C484 1.254 . S
C486 O507 1.256 . S
C486 O508 1.244 . S
O487 Zn483 2.055 . S
O487 C509 1.259 . S
O488 Zn480 2.046 . S
O488 C509 1.254 . S
N489 Zn483 2.036 . S
N489 C490 1.298 . S
N489 N492 1.398 1_545 S
C490 N489 1.298 . S
C490 N493 1.367 1_545 S
C490 C503 1.481 . S
C491 N492 1.299 . S
C491 N493 1.379 . S
N492 N489 1.398 1_565 S
N492 C491 1.299 . S
N493 C490 1.367 1_565 S
N493 C491 1.379 . S
C494 N496 1.298 . S
C494 N498 1.367 . S
C494 C502 1.481 . S
C495 N497 1.299 . S
C495 N498 1.379 . S
N496 Zn480 2.036 . S
N496 C494 1.298 . S
N496 N497 1.398 . S
N497 C495 1.299 . S
N497 N496 1.398 . S
N498 C494 1.367 . S
N498 C495 1.379 . S
H499 C502 0.980 . S
H500 C502 0.981 . S
H501 C502 0.981 . S
C502 C494 1.481 . S
C502 H499 0.980 . S
C502 H500 0.981 . S
C502 H501 0.981 . S
C503 C490 1.481 . S
C503 H504 0.980 . S
C503 H505 0.981 . S
C503 H506 0.981 . S
H504 C503 0.980 . S
H505 C503 0.981 . S
H506 C503 0.981 . S
O507 Zn483 2.066 . S
O507 C486 1.256 . S
O508 Zn480 2.053 . S
O508 C486 1.244 . S
C509 O487 1.259 . S
C509 O488 1.254 . S
O510 Zn480 2.066 . S
O510 C482 1.256 1_545 S
O511 C482 1.244 . S
O511 Zn483 2.052 1_565 S
C512 C513 1.369 . S
C512 C514 1.419 . S
C512 H516 0.930 . S
C513 C512 1.369 . S
C513 C522 1.429 . S
C514 C512 1.419 . S
C514 C515 1.363 . S
C514 H517 0.929 . S
C515 C514 1.363 . S
C515 C521 1.428 . S
H516 C512 0.930 . S
H517 C514 0.929 . S
S518 N519 1.613 . S
S518 N520 1.610 . S
N519 S518 1.613 . S
N519 C522 1.350 . S
N520 S518 1.610 . S
N520 C521 1.351 . S
C521 C515 1.428 . S
C521 N520 1.351 . S
C521 C522 1.434 . S
C522 C513 1.429 . S
C522 N519 1.350 . S
C522 C521 1.434 . S
C523 C524 1.369 . S
C523 C525 1.419 . S
C523 H527 0.930 . S
C524 C523 1.369 . S
C524 C533 1.429 . S
C525 C523 1.419 . S
C525 C526 1.363 . S
C525 H528 0.929 . S
C526 C525 1.363 . S
C526 C532 1.428 . S
H527 C523 0.930 . S
H528 C525 0.929 . S
S529 N530 1.613 . S
S529 N531 1.610 . S
N530 S529 1.613 . S
N530 C533 1.350 . S
N531 S529 1.610 . S
N531 C532 1.351 . S
C532 C526 1.428 . S
C532 N531 1.351 . S
C532 C533 1.434 . S
C533 C524 1.429 . S
C533 N530 1.350 . S
C533 C532 1.434 . S
C534 C535 1.369 . S
C534 C536 1.419 1_455 S
C534 H538 0.930 . S
C535 C534 1.369 . S
C535 C544 1.429 . S
C536 C534 1.419 1_655 S
C536 C537 1.363 . S
C536 H539 0.929 . S
C537 C536 1.363 . S
C537 C543 1.428 . S
H538 C534 0.930 . S
H539 C536 0.929 . S
S540 N541 1.613 . S
S540 N542 1.610 1_455 S
N541 S540 1.613 . S
N541 C544 1.350 . S
N542 S540 1.610 1_655 S
N542 C543 1.351 . S
C543 C537 1.428 . S
C543 N542 1.351 . S
C543 C544 1.434 1_655 S
C544 C535 1.429 . S
C544 N541 1.350 . S
C544 C543 1.434 1_455 S
C545 C546 1.369 1_455 S
C545 C547 1.419 . S
C545 H549 0.930 . S
C546 C545 1.369 1_655 S
C546 C555 1.429 . S
C547 C545 1.419 . S
C547 C548 1.363 . S
C547 H550 0.929 . S
C548 C547 1.363 . S
C548 C554 1.428 1_455 S
H549 C545 0.930 . S
H550 C547 0.929 . S
S551 N552 1.613 . S
S551 N553 1.610 . S
N552 S551 1.613 . S
N552 C555 1.350 . S
N553 S551 1.610 . S
N553 C554 1.351 . S
C554 C548 1.428 1_655 S
C554 N553 1.351 . S
C554 C555 1.434 . S
C555 C546 1.429 . S
C555 N552 1.350 . S
C555 C554 1.434 . S
C556 C557 1.369 . S
C556 C558 1.419 . S
C556 H560 0.930 . S
C557 C556 1.369 . S
C557 C566 1.429 . S
C558 C556 1.419 . S
C558 C559 1.363 . S
C558 H561 0.929 . S
C559 C558 1.363 . S
C559 C565 1.428 . S
H560 C556 0.930 . S
H561 C558 0.929 . S
S562 N563 1.613 . S
S562 N564 1.610 . S
N563 S562 1.613 . S
N563 C566 1.350 . S
N564 S562 1.610 . S
N564 C565 1.351 . S
C565 C559 1.428 . S
C565 N564 1.351 . S
C565 C566 1.434 . S
C566 C557 1.429 . S
C566 N563 1.350 . S
C566 C565 1.434 . S
C567 C568 1.369 . S
C567 C569 1.419 . S
C567 H571 0.930 . S
C568 C567 1.369 . S
C568 C577 1.429 . S
C569 C567 1.419 . S
C569 C570 1.363 . S
C569 H572 0.929 . S
C570 C569 1.363 . S
C570 C576 1.428 . S
H571 C567 0.930 . S
H572 C569 0.929 . S
S573 N574 1.613 . S
S573 N575 1.610 . S
N574 S573 1.613 . S
N574 C577 1.350 . S
N575 S573 1.610 . S
N575 C576 1.351 . S
C576 C570 1.428 . S
C576 N575 1.351 . S
C576 C577 1.434 . S
C577 C568 1.429 . S
C577 N574 1.350 . S
C577 C576 1.434 . S
C578 C579 1.369 . S
C578 C580 1.419 1_455 S
C578 H582 0.930 . S
C579 C578 1.369 . S
C579 C588 1.429 . S
C580 C578 1.419 1_655 S
C580 C581 1.363 . S
C580 H583 0.929 . S
C581 C580 1.363 . S
C581 C587 1.428 . S
H582 C578 0.930 . S
H583 C580 0.929 . S
S584 N585 1.613 1_655 S
S584 N586 1.610 . S
N585 S584 1.613 1_455 S
N585 C588 1.350 . S
N586 S584 1.610 . S
N586 C587 1.351 . S
C587 C581 1.428 . S
C587 N586 1.351 . S
C587 C588 1.434 1_655 S
C588 C579 1.429 . S
C588 N585 1.350 . S
C588 C587 1.434 1_455 S
C589 C590 1.369 1_455 S
C589 C591 1.419 . S
C589 H593 0.930 . S
C590 C589 1.369 1_655 S
C590 C599 1.429 . S
C591 C589 1.419 . S
C591 C592 1.363 . S
C591 H594 0.929 . S
C592 C591 1.363 . S
C592 C598 1.428 1_455 S
H593 C589 0.930 . S
H594 C591 0.929 . S
S595 N596 1.613 . S
S595 N597 1.610 . S
N596 S595 1.613 . S
N596 C599 1.350 . S
N597 S595 1.610 . S
N597 C598 1.351 . S
C598 C592 1.428 1_655 S
C598 N597 1.351 . S
C598 C599 1.434 . S
C599 C590 1.429 . S
C599 N596 1.350 . S
C599 C598 1.434 . S
C600 C601 1.369 1_565 S
C600 C602 1.419 1_554 S
C600 H604 0.930 . S
C601 C600 1.369 1_545 S
C601 C610 1.429 . S
C602 C600 1.419 1_556 S
C602 C603 1.363 . S
C602 H605 0.929 . S
C603 C602 1.363 . S
C603 C609 1.428 1_565 S
H604 C600 0.930 . S
H605 C602 0.929 . S
S606 N607 1.615 1_556 S
S606 N608 1.608 . S
N607 S606 1.615 1_554 S
N607 C610 1.350 . S
N608 S606 1.608 . S
N608 C609 1.351 . S
C609 C603 1.428 1_545 S
C609 N608 1.351 . S
C609 C610 1.434 1_556 S
C610 C601 1.429 . S
C610 N607 1.350 . S
C610 C609 1.434 1_554 S
C611 C612 1.369 . S
C611 C613 1.419 . S
C611 H615 0.930 . S
C612 C611 1.369 . S
C612 C621 1.429 . S
C613 C611 1.419 . S
C613 C614 1.363 . S
C613 H616 0.929 . S
C614 C613 1.363 . S
C614 C620 1.428 . S
H615 C611 0.930 . S
H616 C613 0.929 . S
S617 N618 1.613 . S
S617 N619 1.610 . S
N618 S617 1.613 . S
N618 C621 1.350 . S
N619 S617 1.610 . S
N619 C620 1.351 . S
C620 C614 1.428 . S
C620 N619 1.351 . S
C620 C621 1.434 . S
C621 C612 1.429 . S
C621 N618 1.350 . S
C621 C620 1.434 . S
C622 C623 1.369 1_655 S
C622 C624 1.419 1_565 S
C622 H626 0.930 . S
C623 C622 1.369 1_455 S
C623 C632 1.429 . S
C624 C622 1.419 1_545 S
C624 C625 1.363 . S
C624 H627 0.929 . S
C625 C624 1.363 . S
C625 C631 1.428 1_655 S
H626 C622 0.930 . S
H627 C624 0.929 . S
S628 N629 1.613 . S
S628 N630 1.610 1_565 S
N629 S628 1.613 . S
N629 C632 1.350 . S
N630 S628 1.610 1_545 S
N630 C631 1.351 . S
C631 C625 1.428 1_455 S
C631 N630 1.351 . S
C631 C632 1.434 1_545 S
C632 C623 1.429 . S
C632 N629 1.350 . S
C632 C631 1.434 1_565 S
C633 C634 1.369 . S
C633 C635 1.419 . S
C633 H637 0.930 . S
C634 C633 1.369 . S
C634 C643 1.429 . S
C635 C633 1.419 . S
C635 C636 1.363 . S
C635 H638 0.929 . S
C636 C635 1.363 . S
C636 C642 1.428 . S
H637 C633 0.930 . S
H638 C635 0.929 . S
S639 N640 1.613 . S
S639 N641 1.610 . S
N640 S639 1.613 . S
N640 C643 1.350 . S
N641 S639 1.610 . S
N641 C642 1.351 . S
C642 C636 1.428 . S
C642 N641 1.351 . S
C642 C643 1.434 . S
C643 C634 1.429 . S
C643 N640 1.350 . S
C643 C642 1.434 . S
C644 C645 1.369 . S
C644 C646 1.419 . S
C644 H648 0.930 . S
C645 C644 1.369 . S
C645 C654 1.429 . S
C646 C644 1.419 . S
C646 C647 1.363 . S
C646 H649 0.929 . S
C647 C646 1.363 . S
C647 C653 1.428 . S
H648 C644 0.930 . S
H649 C646 0.929 . S
S650 N651 1.613 . S
S650 N652 1.610 . S
N651 S650 1.613 . S
N651 C654 1.350 . S
N652 S650 1.610 . S
N652 C653 1.351 . S
C653 C647 1.428 . S
C653 N652 1.351 . S
C653 C654 1.434 . S
C654 C645 1.429 . S
C654 N651 1.350 . S
C654 C653 1.434 . S
C655 C656 1.369 . S
C655 C657 1.419 . S
C655 H659 0.930 . S
C656 C655 1.369 . S
C656 C665 1.429 . S
C657 C655 1.419 . S
C657 C658 1.363 . S
C657 H660 0.929 . S
C658 C657 1.363 . S
C658 C664 1.428 . S
H659 C655 0.930 . S
H660 C657 0.929 . S
S661 N662 1.613 . S
S661 N663 1.610 . S
N662 S661 1.613 . S
N662 C665 1.350 . S
N663 S661 1.610 . S
N663 C664 1.351 . S
C664 C658 1.428 . S
C664 N663 1.351 . S
C664 C665 1.434 . S
C665 C656 1.429 . S
C665 N662 1.350 . S
C665 C664 1.434 . S
C666 C667 1.369 . S
C666 C668 1.419 . S
C666 H670 0.930 . S
C667 C666 1.369 . S
C667 C676 1.429 1_455 S
C668 C666 1.419 . S
C668 C669 1.363 1_455 S
C668 H671 0.929 . S
C669 C668 1.363 1_655 S
C669 C675 1.428 . S
H670 C666 0.930 . S
H671 C668 0.929 . S
S672 N673 1.613 . S
S672 N674 1.610 . S
N673 S672 1.613 . S
N673 C676 1.350 . S
N674 S672 1.610 . S
N674 C675 1.351 . S
C675 C669 1.428 . S
C675 N674 1.351 . S
C675 C676 1.434 . S
C676 C667 1.429 1_655 S
C676 N673 1.350 . S
C676 C675 1.434 . S
C677 C678 1.369 . S
C677 C679 1.419 1_554 S
C677 H681 0.930 . S
C678 C677 1.369 . S
C678 C687 1.429 . S
C679 C677 1.419 1_556 S
C679 C680 1.363 . S
C679 H682 0.929 . S
C680 C679 1.363 . S
C680 C686 1.428 . S
H681 C677 0.930 . S
H682 C679 0.929 . S
S683 N684 1.613 1_556 S
S683 N685 1.610 . S
N684 S683 1.613 1_554 S
N684 C687 1.350 . S
N685 S683 1.610 . S
N685 C686 1.351 . S
C686 C680 1.428 . S
C686 N685 1.351 . S
C686 C687 1.434 1_556 S
C687 C678 1.429 . S
C687 N684 1.350 . S
C687 C686 1.434 1_554 S
C688 C689 1.369 . S
C688 C690 1.419 . S
C688 H692 0.930 . S
C689 C688 1.369 . S
C689 C698 1.429 . S
C690 C688 1.419 . S
C690 C691 1.363 . S
C690 H693 0.929 . S
C691 C690 1.363 . S
C691 C697 1.428 . S
H692 C688 0.930 . S
H693 C690 0.929 . S
S694 N695 1.613 . S
S694 N696 1.610 . S
N695 S694 1.613 . S
N695 C698 1.350 . S
N696 S694 1.610 . S
N696 C697 1.351 . S
C697 C691 1.428 . S
C697 N696 1.351 . S
C697 C698 1.434 . S
C698 C689 1.429 . S
C698 N695 1.350 . S
C698 C697 1.434 . S
C699 C700 1.369 . S
C699 C701 1.419 . S
C699 H703 0.930 . S
C700 C699 1.369 . S
C700 C709 1.429 . S
C701 C699 1.419 . S
C701 C702 1.363 . S
C701 H704 0.929 . S
C702 C701 1.363 . S
C702 C708 1.428 . S
H703 C699 0.930 . S
H704 C701 0.929 . S
S705 N706 1.613 . S
S705 N707 1.610 . S
N706 S705 1.613 . S
N706 C709 1.350 . S
N707 S705 1.610 . S
N707 C708 1.351 . S
C708 C702 1.428 . S
C708 N707 1.351 . S
C708 C709 1.434 . S
C709 C700 1.429 . S
C709 N706 1.350 . S
C709 C708 1.434 . S
C710 C711 1.369 . S
C710 C712 1.419 . S
C710 H714 0.930 . S
C711 C710 1.369 . S
C711 C720 1.429 . S
C712 C710 1.419 . S
C712 C713 1.363 . S
C712 H715 0.929 . S
C713 C712 1.363 . S
C713 C719 1.428 . S
H714 C710 0.930 . S
H715 C712 0.929 . S
S716 N717 1.613 . S
S716 N718 1.610 . S
N717 S716 1.613 . S
N717 C720 1.350 . S
N718 S716 1.610 . S
N718 C719 1.351 . S
C719 C713 1.428 . S
C719 N718 1.351 . S
C719 C720 1.434 . S
C720 C711 1.429 . S
C720 N717 1.350 . S
C720 C719 1.434 . S
C721 C722 1.369 . S
C721 C723 1.419 . S
C721 H725 0.930 . S
C722 C721 1.369 . S
C722 C731 1.429 . S
C723 C721 1.419 . S
C723 C724 1.363 . S
C723 H726 0.929 . S
C724 C723 1.363 . S
C724 C730 1.428 . S
H725 C721 0.930 . S
H726 C723 0.929 . S
S727 N728 1.613 . S
S727 N729 1.610 . S
N728 S727 1.613 . S
N728 C731 1.350 . S
N729 S727 1.610 . S
N729 C730 1.351 . S
C730 C724 1.428 . S
C730 N729 1.351 . S
C730 C731 1.434 . S
C731 C722 1.429 . S
C731 N728 1.350 . S
C731 C730 1.434 . S
C732 C733 1.369 . S
C732 C734 1.419 . S
C732 H736 0.930 . S
C733 C732 1.369 . S
C733 C742 1.429 . S
C734 C732 1.419 . S
C734 C735 1.363 . S
C734 H737 0.929 . S
C735 C734 1.363 . S
C735 C741 1.428 . S
H736 C732 0.930 . S
H737 C734 0.929 . S
S738 N739 1.613 . S
S738 N740 1.610 . S
N739 S738 1.613 . S
N739 C742 1.350 . S
N740 S738 1.610 . S
N740 C741 1.351 . S
C741 C735 1.428 . S
C741 N740 1.351 . S
C741 C742 1.434 . S
C742 C733 1.429 . S
C742 N739 1.350 . S
C742 C741 1.434 . S
C743 C744 1.369 . S
C743 C745 1.419 . S
C743 H747 0.930 . S
C744 C743 1.369 . S
C744 C753 1.429 . S
C745 C743 1.419 . S
C745 C746 1.363 . S
C745 H748 0.929 . S
C746 C745 1.363 . S
C746 C752 1.428 . S
H747 C743 0.930 . S
H748 C745 0.929 . S
S749 N750 1.613 . S
S749 N751 1.610 . S
N750 S749 1.613 . S
N750 C753 1.350 . S
N751 S749 1.610 . S
N751 C752 1.351 . S
C752 C746 1.428 . S
C752 N751 1.351 . S
C752 C753 1.434 . S
C753 C744 1.429 . S
C753 N750 1.350 . S
C753 C752 1.434 . S
C754 C755 1.369 . S
C754 C756 1.419 . S
C754 H758 0.930 . S
C755 C754 1.369 . S
C755 C764 1.429 . S
C756 C754 1.419 . S
C756 C757 1.363 . S
C756 H759 0.929 . S
C757 C756 1.363 . S
C757 C763 1.428 . S
H758 C754 0.930 . S
H759 C756 0.929 . S
S760 N761 1.613 . S
S760 N762 1.610 . S
N761 S760 1.613 . S
N761 C764 1.350 . S
N762 S760 1.610 . S
N762 C763 1.351 . S
C763 C757 1.428 . S
C763 N762 1.351 . S
C763 C764 1.434 . S
C764 C755 1.429 . S
C764 N761 1.350 . S
C764 C763 1.434 . S
C765 C766 1.369 . S
C765 C767 1.419 . S
C765 H769 0.930 . S
C766 C765 1.369 . S
C766 C775 1.429 . S
C767 C765 1.419 . S
C767 C768 1.363 . S
C767 H770 0.929 . S
C768 C767 1.363 . S
C768 C774 1.428 . S
H769 C765 0.930 . S
H770 C767 0.929 . S
S771 N772 1.613 . S
S771 N773 1.610 . S
N772 S771 1.613 . S
N772 C775 1.350 . S
N773 S771 1.610 . S
N773 C774 1.351 . S
C774 C768 1.428 . S
C774 N773 1.351 . S
C774 C775 1.434 . S
C775 C766 1.429 . S
C775 N772 1.350 . S
C775 C774 1.434 . S
C776 C777 1.369 . S
C776 C778 1.419 . S
C776 H780 0.930 . S
C777 C776 1.369 . S
C777 C786 1.429 . S
C778 C776 1.419 . S
C778 C779 1.363 . S
C778 H781 0.929 . S
C779 C778 1.363 . S
C779 C785 1.428 . S
H780 C776 0.930 . S
H781 C778 0.929 . S
S782 N783 1.613 . S
S782 N784 1.610 . S
N783 S782 1.613 . S
N783 C786 1.350 . S
N784 S782 1.610 . S
N784 C785 1.351 . S
C785 C779 1.428 . S
C785 N784 1.351 . S
C785 C786 1.434 . S
C786 C777 1.429 . S
C786 N783 1.350 . S
C786 C785 1.434 . S
C787 C788 1.369 . S
C787 C789 1.419 . S
C787 H791 0.930 . S
C788 C787 1.369 . S
C788 C797 1.429 . S
C789 C787 1.419 . S
C789 C790 1.363 . S
C789 H792 0.929 . S
C790 C789 1.363 . S
C790 C796 1.428 1_565 S
H791 C787 0.930 . S
H792 C789 0.929 . S
S793 N794 1.613 . S
S793 N795 1.610 . S
N794 S793 1.613 . S
N794 C797 1.350 1_545 S
N795 S793 1.610 . S
N795 C796 1.351 . S
C796 C790 1.428 1_545 S
C796 N795 1.351 . S
C796 C797 1.434 1_545 S
C797 C788 1.429 . S
C797 N794 1.350 1_565 S
C797 C796 1.434 1_565 S
C798 C799 1.369 . S
C798 C800 1.419 . S
C798 H802 0.930 . S
C799 C798 1.369 . S
C799 C808 1.429 . S
C800 C798 1.419 . S
C800 C801 1.363 . S
C800 H803 0.929 . S
C801 C800 1.363 . S
C801 C807 1.428 . S
H802 C798 0.930 . S
H803 C800 0.929 . S
S804 N805 1.613 . S
S804 N806 1.610 . S
N805 S804 1.613 . S
N805 C808 1.350 . S
N806 S804 1.610 . S
N806 C807 1.351 . S
C807 C801 1.428 . S
C807 N806 1.351 . S
C807 C808 1.434 . S
C808 C799 1.429 . S
C808 N805 1.350 . S
C808 C807 1.434 . S
C809 C810 1.369 . S
C809 C811 1.419 . S
C809 H813 0.930 . S
C810 C809 1.369 . S
C810 C819 1.429 . S
C811 C809 1.419 . S
C811 C812 1.363 . S
C811 H814 0.929 . S
C812 C811 1.363 . S
C812 C818 1.428 1_545 S
H813 C809 0.930 . S
H814 C811 0.929 . S
S815 N816 1.613 . S
S815 N817 1.610 . S
N816 S815 1.613 . S
N816 C819 1.350 1_565 S
N817 S815 1.610 . S
N817 C818 1.351 . S
C818 C812 1.428 1_565 S
C818 N817 1.351 . S
C818 C819 1.434 1_565 S
C819 C810 1.429 . S
C819 N816 1.350 1_545 S
C819 C818 1.434 1_545 S
C820 C821 1.369 . S
C820 C822 1.419 . S
C820 H824 0.930 . S
C821 C820 1.369 . S
C821 C830 1.429 . S
C822 C820 1.419 . S
C822 C823 1.363 . S
C822 H825 0.929 . S
C823 C822 1.363 . S
C823 C829 1.428 . S
H824 C820 0.930 . S
H825 C822 0.929 . S
S826 N827 1.613 . S
S826 N828 1.610 . S
N827 S826 1.613 . S
N827 C830 1.350 . S
N828 S826 1.610 . S
N828 C829 1.351 . S
C829 C823 1.428 . S
C829 N828 1.351 . S
C829 C830 1.434 . S
C830 C821 1.429 . S
C830 N827 1.350 . S
C830 C829 1.434 . S
C831 C832 1.369 1_565 S
C831 C833 1.419 1_565 S
C831 H835 0.930 . S
C832 C831 1.369 1_545 S
C832 C841 1.429 . S
C833 C831 1.419 1_545 S
C833 C834 1.363 . S
C833 H836 0.929 . S
C834 C833 1.363 . S
C834 C840 1.428 . S
H835 C831 0.930 . S
H836 C833 0.929 . S
S837 N838 1.613 . S
S837 N839 1.610 . S
N838 S837 1.613 . S
N838 C841 1.350 . S
N839 S837 1.610 . S
N839 C840 1.351 . S
C840 C834 1.428 . S
C840 N839 1.351 . S
C840 C841 1.434 . S
C841 C832 1.429 . S
C841 N838 1.350 . S
C841 C840 1.434 . S
C842 C843 1.369 . S
C842 C844 1.419 . S
C842 H846 0.930 . S
C843 C842 1.369 . S
C843 C852 1.429 . S
C844 C842 1.419 . S
C844 C845 1.363 . S
C844 H847 0.929 . S
C845 C844 1.363 . S
C845 C851 1.428 . S
H846 C842 0.930 . S
H847 C844 0.929 . S
S848 N849 1.613 . S
S848 N850 1.610 . S
N849 S848 1.613 . S
N849 C852 1.350 . S
N850 S848 1.610 . S
N850 C851 1.351 . S
C851 C845 1.428 . S
C851 N850 1.351 . S
C851 C852 1.434 . S
C852 C843 1.429 . S
C852 N849 1.350 . S
C852 C851 1.434 . S
C853 C854 1.369 . S
C853 C855 1.419 . S
C853 H857 0.930 . S
C854 C853 1.369 . S
C854 C863 1.429 1_565 S
C855 C853 1.419 . S
C855 C856 1.363 . S
C855 H858 0.929 . S
C856 C855 1.363 . S
C856 C862 1.428 . S
H857 C853 0.930 . S
H858 C855 0.929 . S
S859 N860 1.613 . S
S859 N861 1.610 . S
N860 S859 1.613 . S
N860 C863 1.350 . S
N861 S859 1.610 . S
N861 C862 1.351 1_545 S
C862 C856 1.428 . S
C862 N861 1.351 1_565 S
C862 C863 1.434 1_565 S
C863 C854 1.429 1_545 S
C863 N860 1.350 . S
C863 C862 1.434 1_545 S
C864 C865 1.369 . S
C864 C866 1.419 . S
C864 H868 0.930 . S
C865 C864 1.369 . S
C865 C874 1.429 . S
C866 C864 1.419 . S
C866 C867 1.363 . S
C866 H869 0.929 . S
C867 C866 1.363 . S
C867 C873 1.428 . S
H868 C864 0.930 . S
H869 C866 0.929 . S
S870 N871 1.613 . S
S870 N872 1.610 . S
N871 S870 1.613 . S
N871 C874 1.350 . S
N872 S870 1.610 . S
N872 C873 1.351 . S
C873 C867 1.428 . S
C873 N872 1.351 . S
C873 C874 1.434 . S
C874 C865 1.429 . S
C874 N871 1.350 . S
C874 C873 1.434 . S
C875 C876 1.369 . S
C875 C877 1.419 . S
C875 H879 0.930 . S
C876 C875 1.369 . S
C876 C885 1.429 . S
C877 C875 1.419 . S
C877 C878 1.363 . S
C877 H880 0.929 . S
C878 C877 1.363 . S
C878 C884 1.428 . S
H879 C875 0.930 . S
H880 C877 0.929 . S
S881 N882 1.613 . S
S881 N883 1.610 . S
N882 S881 1.613 . S
N882 C885 1.350 . S
N883 S881 1.610 . S
N883 C884 1.351 . S
C884 C878 1.428 . S
C884 N883 1.351 . S
C884 C885 1.434 . S
C885 C876 1.429 . S
C885 N882 1.350 . S
C885 C884 1.434 . S
C886 C887 1.369 . S
C886 C888 1.419 . S
C886 H890 0.930 . S
C887 C886 1.369 . S
C887 C896 1.429 . S
C888 C886 1.419 . S
C888 C889 1.363 . S
C888 H891 0.929 . S
C889 C888 1.363 . S
C889 C895 1.428 . S
H890 C886 0.930 . S
H891 C888 0.929 . S
S892 N893 1.613 . S
S892 N894 1.610 . S
N893 S892 1.613 . S
N893 C896 1.350 . S
N894 S892 1.610 . S
N894 C895 1.351 . S
C895 C889 1.428 . S
C895 N894 1.351 . S
C895 C896 1.434 . S
C896 C887 1.429 . S
C896 N893 1.350 . S
C896 C895 1.434 . S
C897 C898 1.369 . S
C897 C899 1.419 . S
C897 H901 0.930 . S
C898 C897 1.369 . S
C898 C907 1.429 . S
C899 C897 1.419 . S
C899 C900 1.363 . S
C899 H902 0.929 . S
C900 C899 1.363 . S
C900 C906 1.428 . S
H901 C897 0.930 . S
H902 C899 0.929 . S
S903 N904 1.613 . S
S903 N905 1.610 . S
N904 S903 1.613 . S
N904 C907 1.350 . S
N905 S903 1.610 . S
N905 C906 1.351 . S
C906 C900 1.428 . S
C906 N905 1.351 . S
C906 C907 1.434 . S
C907 C898 1.429 . S
C907 N904 1.350 . S
C907 C906 1.434 . S
C908 C909 1.369 . S
C908 C910 1.419 . S
C908 H912 0.930 . S
C909 C908 1.369 . S
C909 C918 1.429 . S
C910 C908 1.419 . S
C910 C911 1.363 . S
C910 H913 0.929 . S
C911 C910 1.363 . S
C911 C917 1.428 . S
H912 C908 0.930 . S
H913 C910 0.929 . S
S914 N915 1.613 . S
S914 N916 1.610 . S
N915 S914 1.613 . S
N915 C918 1.350 . S
N916 S914 1.610 . S
N916 C917 1.351 . S
C917 C911 1.428 . S
C917 N916 1.351 . S
C917 C918 1.434 . S
C918 C909 1.429 . S
C918 N915 1.350 . S
C918 C917 1.434 . S
C919 C920 1.369 . S
C919 C921 1.419 . S
C919 H923 0.930 . S
C920 C919 1.369 . S
C920 C929 1.429 . S
C921 C919 1.419 . S
C921 C922 1.363 . S
C921 H924 0.929 . S
C922 C921 1.363 . S
C922 C928 1.428 . S
H923 C919 0.930 . S
H924 C921 0.929 . S
S925 N926 1.613 . S
S925 N927 1.610 . S
N926 S925 1.613 . S
N926 C929 1.350 . S
N927 S925 1.610 . S
N927 C928 1.351 . S
C928 C922 1.428 . S
C928 N927 1.351 . S
C928 C929 1.434 . S
C929 C920 1.429 . S
C929 N926 1.350 . S
C929 C928 1.434 . S
C930 C931 1.369 . S
C930 C932 1.419 . S
C930 H934 0.930 . S
C931 C930 1.369 . S
C931 C940 1.429 . S
C932 C930 1.419 . S
C932 C933 1.363 . S
C932 H935 0.929 . S
C933 C932 1.363 . S
C933 C939 1.428 . S
H934 C930 0.930 . S
H935 C932 0.929 . S
S936 N937 1.613 . S
S936 N938 1.610 . S
N937 S936 1.613 . S
N937 C940 1.350 . S
N938 S936 1.610 . S
N938 C939 1.351 . S
C939 C933 1.428 . S
C939 N938 1.351 . S
C939 C940 1.434 . S
C940 C931 1.429 . S
C940 N937 1.350 . S
C940 C939 1.434 . S
C941 C942 1.369 . S
C941 C943 1.419 . S
C941 H945 0.930 . S
C942 C941 1.369 . S
C942 C951 1.429 . S
C943 C941 1.419 . S
C943 C944 1.363 . S
C943 H946 0.929 . S
C944 C943 1.363 . S
C944 C950 1.424 1_455 S
H945 C941 0.930 . S
H946 C943 0.929 . S
S947 N948 1.613 . S
S947 N949 1.610 . S
N948 S947 1.613 . S
N948 C951 1.350 1_655 S
N949 S947 1.610 . S
N949 C950 1.357 . S
C950 C944 1.424 1_655 S
C950 N949 1.357 . S
C950 C951 1.432 1_655 S
C951 C942 1.429 . S
C951 N948 1.350 1_455 S
C951 C950 1.432 1_455 S
C952 C953 1.369 . S
C952 C954 1.419 . S
C952 H956 0.930 . S
C953 C952 1.369 . S
C953 C962 1.429 . S
C954 C952 1.419 . S
C954 C955 1.363 . S
C954 H957 0.929 . S
C955 C954 1.363 . S
C955 C961 1.428 . S
H956 C952 0.930 . S
H957 C954 0.929 . S
S958 N959 1.613 . S
S958 N960 1.610 . S
N959 S958 1.613 . S
N959 C962 1.350 . S
N960 S958 1.610 . S
N960 C961 1.351 . S
C961 C955 1.428 . S
C961 N960 1.351 . S
C961 C962 1.434 . S
C962 C953 1.429 . S
C962 N959 1.350 . S
C962 C961 1.434 . S
C963 C964 1.369 . S
C963 C965 1.419 1_565 S
C963 H967 0.930 . S
C964 C963 1.369 . S
C964 C973 1.429 . S
C965 C963 1.419 1_545 S
C965 C966 1.363 1_545 S
C965 H968 0.929 1_455 S
C966 C965 1.363 1_565 S
C966 C972 1.428 . S
H967 C963 0.930 . S
H968 C965 0.929 1_655 S
S969 N970 1.613 . S
S969 N971 1.610 . S
N970 S969 1.613 . S
N970 C973 1.350 . S
N971 S969 1.610 . S
N971 C972 1.351 . S
C972 C966 1.428 . S
C972 N971 1.351 . S
C972 C973 1.434 . S
C973 C964 1.429 . S
C973 N970 1.350 . S
C973 C972 1.434 . S
C974 C975 1.369 . S
C974 C976 1.419 . S
C974 H978 0.930 . S
C975 C974 1.369 . S
C975 C984 1.429 . S
C976 C974 1.419 . S
C976 C977 1.363 . S
C976 H979 0.929 . S
C977 C976 1.363 . S
C977 C983 1.428 . S
H978 C974 0.930 . S
H979 C976 0.929 . S
S980 N981 1.613 . S
S980 N982 1.610 . S
N981 S980 1.613 . S
N981 C984 1.350 . S
N982 S980 1.610 . S
N982 C983 1.351 . S
C983 C977 1.428 . S
C983 N982 1.351 . S
C983 C984 1.434 . S
C984 C975 1.429 . S
C984 N981 1.350 . S
C984 C983 1.434 . S
C985 C986 1.369 1_565 S
C985 C987 1.419 1_565 S
C985 H989 0.930 . S
C986 C985 1.369 1_545 S
C986 C995 1.429 . S
C987 C985 1.419 1_545 S
C987 C988 1.363 . S
C987 H990 0.929 1_545 S
C988 C987 1.363 . S
C988 C994 1.428 . S
H989 C985 0.930 . S
H990 C987 0.929 1_565 S
S991 N992 1.613 . S
S991 N993 1.610 . S
N992 S991 1.613 . S
N992 C995 1.350 . S
N993 S991 1.610 . S
N993 C994 1.351 . S
C994 C988 1.428 . S
C994 N993 1.351 . S
C994 C995 1.434 . S
C995 C986 1.429 . S
C995 N992 1.350 . S
C995 C994 1.434 . S
C996 C997 1.369 . S
C996 C998 1.419 . S
C996 H1000 0.930 . S
C997 C996 1.369 . S
C997 C1006 1.429 . S
C998 C996 1.419 . S
C998 C999 1.363 . S
C998 H1001 0.929 . S
C999 C998 1.363 . S
C999 C1005 1.428 . S
H1000 C996 0.930 . S
H1001 C998 0.929 . S
S1002 N1003 1.613 . S
S1002 N1004 1.610 . S
N1003 S1002 1.613 . S
N1003 C1006 1.350 . S
N1004 S1002 1.610 . S
N1004 C1005 1.351 . S
C1005 C999 1.428 . S
C1005 N1004 1.351 . S
C1005 C1006 1.434 . S
C1006 C997 1.429 . S
C1006 N1003 1.350 . S
C1006 C1005 1.434 . S
C1007 C1008 1.369 . S
C1007 C1009 1.419 1_545 S
C1007 H1011 0.930 . S
C1008 C1007 1.369 . S
C1008 C1017 1.429 . S
C1009 C1007 1.419 1_565 S
C1009 C1010 1.363 1_565 S
C1009 H1012 0.929 . S
C1010 C1009 1.363 1_545 S
C1010 C1016 1.428 1_655 S
H1011 C1007 0.930 . S
H1012 C1009 0.929 . S
S1013 N1014 1.613 . S
S1013 N1015 1.610 . S
N1014 S1013 1.613 . S
N1014 C1017 1.350 1_455 S
N1015 S1013 1.610 . S
N1015 C1016 1.351 . S
C1016 C1010 1.428 1_455 S
C1016 N1015 1.351 . S
C1016 C1017 1.434 1_455 S
C1017 C1008 1.429 . S
C1017 N1014 1.350 1_655 S
C1017 C1016 1.434 1_655 S
C1018 C1019 1.369 . S
C1018 C1020 1.419 . S
C1018 H1022 0.930 . S
C1019 C1018 1.369 . S
C1019 C1028 1.429 . S
C1020 C1018 1.419 . S
C1020 C1021 1.363 . S
C1020 H1023 0.929 . S
C1021 C1020 1.363 . S
C1021 C1027 1.428 . S
H1022 C1018 0.930 . S
H1023 C1020 0.929 . S
S1024 N1025 1.613 . S
S1024 N1026 1.610 . S
N1025 S1024 1.613 . S
N1025 C1028 1.350 . S
N1026 S1024 1.610 . S
N1026 C1027 1.351 . S
C1027 C1021 1.428 . S
C1027 N1026 1.351 . S
C1027 C1028 1.434 . S
C1028 C1019 1.429 . S
C1028 N1025 1.350 . S
C1028 C1027 1.434 . S
C1029 C1030 1.369 . S
C1029 C1031 1.419 1_565 S
C1029 H1033 0.930 1_565 S
C1030 C1029 1.369 . S
C1030 C1039 1.429 . S
C1031 C1029 1.419 1_545 S
C1031 C1032 1.363 1_545 S
C1031 H1034 0.929 . S
C1032 C1031 1.363 1_565 S
C1032 C1038 1.428 . S
H1033 C1029 0.930 1_545 S
H1034 C1031 0.929 . S
S1035 N1036 1.613 . S
S1035 N1037 1.610 . S
N1036 S1035 1.613 . S
N1036 C1039 1.350 . S
N1037 S1035 1.610 . S
N1037 C1038 1.351 . S
C1038 C1032 1.428 . S
C1038 N1037 1.351 . S
C1038 C1039 1.434 . S
C1039 C1030 1.429 . S
C1039 N1036 1.350 . S
C1039 C1038 1.434 . S
C513 C29 0.512 . S
C515 C349 0.531 . S
C524 C36 0.539 . S
C526 C381 0.528 . S
C535 C93 0.514 . S
C537 C285 0.536 . S
C546 C292 0.540 1_655 S
C548 C125 0.518 1_455 S
C557 C157 0.530 . S
C559 C452 0.516 . S
C568 C509 0.528 . S
C570 C164 0.537 . S
C579 C413 0.519 . S
C581 C221 0.519 . S
C590 C253 0.534 1_655 S
C592 C420 0.516 1_455 S
C601 C6 2.766 . S
C603 C134 2.769 . S
C612 C34 2.770 . S
C614 C418 2.766 . S
C623 C70 2.767 . S
C625 C198 2.768 . S
C634 C102 2.766 . S
C636 C486 2.769 . S
C645 C162 2.769 . S
C647 C290 2.767 . S
C656 C358 2.766 . S
C658 C230 2.769 . S
C667 C390 2.767 . S
C669 C262 2.768 . S
C678 C326 2.766 . S
C680 C450 2.769 . S
C689 C4 2.018 . S
C691 C226 1.997 . S
C700 C61 2.015 . S
C702 C386 1.999 . S
C711 C68 2.016 . S
C713 C166 1.999 . S
C722 C100 2.016 . S
C724 C454 1.996 . S
C733 C98 1.995 . S
C735 C132 2.018 . S
C744 C189 2.015 . S
C746 C258 1.998 . S
C755 C196 2.016 . S
C757 C38 1.999 . S
C766 C322 1.995 . S
C768 C228 2.018 . S
C777 C260 2.015 . S
C779 C482 1.998 . S
C788 C130 1.996 . S
C790 C317 2.016 1_565 S
C799 C422 1.995 . S
C801 C324 2.018 . S
C810 C194 1.995 . S
C812 C356 2.016 1_545 S
C821 C388 2.017 . S
C823 C354 1.998 . S
C832 C445 2.018 1_545 S
C834 C2 1.996 . S
C843 C294 2.000 . S
C845 C477 2.016 . S
C854 C484 2.016 1_565 S
C856 C66 1.996 . S
C865 N13 0.944 . S
C867 N301 0.949 . S
C876 N338 0.956 . S
C878 N50 0.936 . S
C887 N77 0.926 . S
C889 N370 0.957 . S
C898 N274 0.950 . S
C900 N109 0.941 . S
C909 N429 0.953 . S
C911 N141 0.939 . S
C920 N461 0.958 . S
C922 N178 0.928 . S
C931 N498 0.947 . S
C933 N205 0.942 . S
C942 N402 0.953 . S
C944 N237 0.932 . S
C953 N45 0.947 . S
C955 N269 0.938 . S
C964 N82 0.957 . S
C966 N306 0.928 . S
C975 N114 0.960 . S
C977 N333 0.930 . S
C986 N365 0.926 . S
C988 N18 0.957 . S
C997 N173 0.959 . S
C999 N397 0.931 . S
C1008 N210 0.953 . S
C1010 N434 0.932 . S
C1019 N242 0.949 . S
C1021 N466 0.941 . S
C1030 N146 0.957 . S
C1032 N493 0.929 . S
