# Generated by pormake.
# Topology yfy, (5)-cn, num edge types: 1
# Building blocks:
#     Node 0, Type 0, BuildingBlock: XOMCOT_clean_sbu_1, # of connection points: 5
#     Node 1, Type 0, BuildingBlock: XOMCOT_clean_sbu_1, # of connection points: 5
#     Node 2, Type 0, BuildingBlock: XOMCOT_clean_sbu_1, # of connection points: 5
#     Node 3, Type 0, BuildingBlock: XOMCOT_clean_sbu_1, # of connection points: 5
#     Node 4, Type 0, BuildingBlock: XOMCOT_clean_sbu_1, # of connection points: 5
#     Node 5, Type 0, BuildingBlock: XOMCOT_clean_sbu_1, # of connection points: 5
#     Node 6, Type 0, BuildingBlock: XOMCOT_clean_sbu_1, # of connection points: 5
#     Node 7, Type 0, BuildingBlock: XOMCOT_clean_sbu_1, # of connection points: 5
#     Node 8, Type 0, BuildingBlock: XOMCOT_clean_sbu_1, # of connection points: 5
#     Node 9, Type 0, BuildingBlock: XOMCOT_clean_sbu_1, # of connection points: 5
#     Node 10, Type 0, BuildingBlock: XOMCOT_clean_sbu_1, # of connection points: 5
#     Node 11, Type 0, BuildingBlock: XOMCOT_clean_sbu_1, # of connection points: 5
#     Node 12, Type 0, BuildingBlock: XOMCOT_clean_sbu_1, # of connection points: 5
#     Node 13, Type 0, BuildingBlock: XOMCOT_clean_sbu_1, # of connection points: 5
#     Node 14, Type 0, BuildingBlock: XOMCOT_clean_sbu_1, # of connection points: 5
#     Node 15, Type 0, BuildingBlock: XOMCOT_clean_sbu_1, # of connection points: 5
#     Edge 16, Type (0, 0), BuildingBlock: UVAHIK_clean_linker_0, # of connection points: 2
#     Edge 17, Type (0, 0), BuildingBlock: UVAHIK_clean_linker_0, # of connection points: 2
#     Edge 18, Type (0, 0), BuildingBlock: UVAHIK_clean_linker_0, # of connection points: 2
#     Edge 19, Type (0, 0), BuildingBlock: UVAHIK_clean_linker_0, # of connection points: 2
#     Edge 20, Type (0, 0), BuildingBlock: UVAHIK_clean_linker_0, # of connection points: 2
#     Edge 21, Type (0, 0), BuildingBlock: UVAHIK_clean_linker_0, # of connection points: 2
#     Edge 22, Type (0, 0), BuildingBlock: UVAHIK_clean_linker_0, # of connection points: 2
#     Edge 23, Type (0, 0), BuildingBlock: UVAHIK_clean_linker_0, # of connection points: 2
#     Edge 24, Type (0, 0), BuildingBlock: UVAHIK_clean_linker_0, # of connection points: 2
#     Edge 25, Type (0, 0), BuildingBlock: UVAHIK_clean_linker_0, # of connection points: 2
#     Edge 26, Type (0, 0), BuildingBlock: UVAHIK_clean_linker_0, # of connection points: 2
#     Edge 27, Type (0, 0), BuildingBlock: UVAHIK_clean_linker_0, # of connection points: 2
#     Edge 28, Type (0, 0), BuildingBlock: UVAHIK_clean_linker_0, # of connection points: 2
#     Edge 29, Type (0, 0), BuildingBlock: UVAHIK_clean_linker_0, # of connection points: 2
#     Edge 30, Type (0, 0), BuildingBlock: UVAHIK_clean_linker_0, # of connection points: 2
#     Edge 31, Type (0, 0), BuildingBlock: UVAHIK_clean_linker_0, # of connection points: 2
#     Edge 32, Type (0, 0), BuildingBlock: UVAHIK_clean_linker_0, # of connection points: 2
#     Edge 33, Type (0, 0), BuildingBlock: UVAHIK_clean_linker_0, # of connection points: 2
#     Edge 34, Type (0, 0), BuildingBlock: UVAHIK_clean_linker_0, # of connection points: 2
#     Edge 35, Type (0, 0), BuildingBlock: UVAHIK_clean_linker_0, # of connection points: 2
#     Edge 36, Type (0, 0), BuildingBlock: UVAHIK_clean_linker_0, # of connection points: 2
#     Edge 37, Type (0, 0), BuildingBlock: UVAHIK_clean_linker_0, # of connection points: 2
#     Edge 38, Type (0, 0), BuildingBlock: UVAHIK_clean_linker_0, # of connection points: 2
#     Edge 39, Type (0, 0), BuildingBlock: UVAHIK_clean_linker_0, # of connection points: 2
#     Edge 40, Type (0, 0), BuildingBlock: UVAHIK_clean_linker_0, # of connection points: 2
#     Edge 41, Type (0, 0), BuildingBlock: UVAHIK_clean_linker_0, # of connection points: 2
#     Edge 42, Type (0, 0), BuildingBlock: UVAHIK_clean_linker_0, # of connection points: 2
#     Edge 43, Type (0, 0), BuildingBlock: UVAHIK_clean_linker_0, # of connection points: 2
#     Edge 44, Type (0, 0), BuildingBlock: UVAHIK_clean_linker_0, # of connection points: 2
#     Edge 45, Type (0, 0), BuildingBlock: UVAHIK_clean_linker_0, # of connection points: 2
#     Edge 46, Type (0, 0), BuildingBlock: UVAHIK_clean_linker_0, # of connection points: 2
#     Edge 47, Type (0, 0), BuildingBlock: UVAHIK_clean_linker_0, # of connection points: 2
#     Edge 48, Type (0, 0), BuildingBlock: UVAHIK_clean_linker_0, # of connection points: 2
#     Edge 49, Type (0, 0), BuildingBlock: UVAHIK_clean_linker_0, # of connection points: 2
#     Edge 50, Type (0, 0), BuildingBlock: UVAHIK_clean_linker_0, # of connection points: 2
#     Edge 51, Type (0, 0), BuildingBlock: UVAHIK_clean_linker_0, # of connection points: 2
#     Edge 52, Type (0, 0), BuildingBlock: UVAHIK_clean_linker_0, # of connection points: 2
#     Edge 53, Type (0, 0), BuildingBlock: UVAHIK_clean_linker_0, # of connection points: 2
#     Edge 54, Type (0, 0), BuildingBlock: UVAHIK_clean_linker_0, # of connection points: 2
#     Edge 55, Type (0, 0), BuildingBlock: UVAHIK_clean_linker_0, # of connection points: 2
# Relax obj value: 0.167
# Max RMSD: 0.199
# Mean RMSD: 0.199
data_MOF--net-yfy--node1-XOMCOT_clean_sbu_1--edge1-UVAHIK_clean_linker_0
_symmetry_space_group_name_H-M    P1
_symmetry_Int_Tables_number       1
_symmetry_cell_setting            triclinic
loop_
_symmetry_equiv_pos_as_xyz
'x, y, z'
_cell_length_a     55.581861
_cell_length_b     55.579757
_cell_length_c     62.478525
_cell_angle_alpha  90.00485
_cell_angle_beta   89.991112
_cell_angle_gamma 89.984909
loop_
_atom_site_label
_atom_site_type_symbol
_atom_site_fract_x
_atom_site_fract_y
_atom_site_fract_z
_atom_type_partial_charge
C0 C 0.98822 0.30057 0.3315 0.0
C1 C 0.97006 0.28383 0.33087 0.0
N2 N 0.97672 0.26579 0.31767 0.0
N3 N 1.00631 0.29328 0.31875 0.0
C4 C 0.9988 0.2721 0.31043 0.0
H5 H 0.98829 0.31704 0.34072 0.0
Co6 Co 0.0347 0.3105 0.31495 0.0
C7 C 0.06444 0.27892 0.28765 0.0
O8 O 0.06764 0.2967 0.27409 0.0
N9 N 0.06359 0.32809 0.31126 0.0
C10 C 0.10205 0.33904 0.31384 0.0
C11 C 0.08524 0.3221 0.31959 0.0
C12 C 0.06789 0.34865 0.30024 0.0
N13 N 0.09111 0.35567 0.30162 0.0
O14 O 0.02312 0.32062 0.28735 0.0
H15 H 0.08872 0.30621 0.32909 0.0
H16 H 0.05439 0.35844 0.29137 0.0
O17 O 0.05079 0.28196 0.30385 0.0
C18 C 0.01022 0.33915 0.29128 0.0
O19 O 0.00966 0.34759 0.31091 0.0
N20 N 0.04363 0.30258 0.34284 0.0
C21 C 0.04677 0.2955 0.38687 0.0
C22 C 0.04816 0.27588 0.37276 0.0
C23 C 0.04633 0.27979 0.35067 0.0
C24 C 0.04315 0.32185 0.35626 0.0
C25 C 0.0449 0.31875 0.3783 0.0
H26 H 0.04571 0.26447 0.34005 0.0
H27 H 0.04037 0.33969 0.3498 0.0
H28 H 0.00945 0.26137 0.29954 0.0
H29 H 0.95313 0.28512 0.33934 0.0
H30 H 0.121 0.33881 0.31784 0.0
H31 H 0.04929 0.25764 0.37876 0.0
H32 H 0.04405 0.33441 0.3886 0.0
C33 C 0.79577 0.98517 0.32612 0.0
C34 C 0.81285 0.96767 0.32312 0.0
N35 N 0.83233 0.97775 0.3139 0.0
N36 N 0.80422 1.00633 0.31886 0.0
C37 C 0.82665 1.00135 0.31156 0.0
H38 H 0.77823 0.98271 0.33329 0.0
Co39 Co 0.78542 0.03404 0.32042 0.0
C40 C 0.81548 0.07517 0.30872 0.0
O41 O 0.80507 0.0869 0.32443 0.0
N42 N 0.76509 0.06191 0.32181 0.0
C43 C 0.74009 0.09125 0.33172 0.0
C44 C 0.75417 0.0725 0.33871 0.0
C45 C 0.75702 0.07466 0.3047 0.0
N46 N 0.74181 0.09263 0.31027 0.0
O47 O 0.77001 0.02477 0.29428 0.0
H48 H 0.75575 0.0671 0.3552 0.0
H49 H 0.76233 0.0708 0.2884 0.0
O50 O 0.81021 0.05307 0.30517 0.0
C51 C 0.74954 0.01607 0.2994 0.0
O52 O 0.74297 0.0168 0.3196 0.0
N53 N 0.79895 0.04016 0.34735 0.0
C54 C 0.81503 0.03742 0.38966 0.0
C55 C 0.83055 0.04506 0.37326 0.0
C56 C 0.8223 0.04579 0.35207 0.0
C57 C 0.78404 0.03192 0.363 0.0
C58 C 0.79142 0.031 0.38423 0.0
H59 H 0.83508 0.04958 0.33954 0.0
H60 H 0.76625 0.02557 0.35882 0.0
H61 H 0.83847 0.01466 0.30455 0.0
H62 H 0.81116 0.94901 0.3278 0.0
H63 H 0.72884 0.10249 0.34172 0.0
H64 H 0.84919 0.04932 0.37662 0.0
H65 H 0.77875 0.02493 0.39624 0.0
C66 C 0.11072 0.81234 0.33658 0.0
C67 C 0.12957 0.82822 0.33538 0.0
N68 N 0.12962 0.83825 0.31574 0.0
N69 N 0.09841 0.81263 0.31798 0.0
C70 C 0.11116 0.82766 0.30523 0.0
H71 H 0.10598 0.80166 0.35041 0.0
Co72 Co 0.0703 0.79473 0.31263 0.0
C73 C 0.05332 0.84527 0.29749 0.0
O74 O 0.07234 0.85747 0.30353 0.0
N75 N 0.04219 0.77642 0.30729 0.0
C76 C 1.00371 0.76515 0.30806 0.0
C77 C 0.01994 0.78238 0.31431 0.0
C78 C 0.03879 0.75562 0.29633 0.0
N79 N 0.01558 0.7484 0.29672 0.0
O80 O 0.08389 0.78476 0.28564 0.0
H81 H 0.01567 0.79837 0.3234 0.0
H82 H 0.05292 0.7458 0.2883 0.0
O83 O 0.05259 0.82241 0.30016 0.0
C84 C 0.09691 0.76658 0.29055 0.0
O85 O 0.09678 0.75902 0.31048 0.0
N86 N 0.05889 0.80211 0.34023 0.0
C87 C 0.04852 0.80744 0.38366 0.0
C88 C 0.04968 0.82758 0.37017 0.0
C89 C 0.05497 0.82454 0.34846 0.0
C90 C 0.05764 0.78236 0.35311 0.0
C91 C 0.05227 0.78458 0.37479 0.0
H92 H 0.05698 0.84033 0.33873 0.0
H93 H 0.06158 0.76477 0.34656 0.0
H94 H 0.10616 0.83176 0.28889 0.0
H95 H 0.14198 0.83241 0.34819 0.0
H96 H 0.98455 0.76521 0.31116 0.0
H97 H 0.04701 0.84556 0.37642 0.0
H98 H 0.05209 0.76858 0.38469 0.0
C99 C 0.30144 0.1183 0.32109 0.0
C100 C 0.28206 0.13343 0.31994 0.0
N101 N 0.26312 0.12098 0.31236 0.0
N102 N 0.29507 0.09624 0.31422 0.0
C103 C 0.27149 0.09837 0.30885 0.0
H104 H 0.31905 0.12297 0.32712 0.0
Co105 Co 0.31745 0.07119 0.31585 0.0
C106 C 0.29317 0.02575 0.30514 0.0
O107 O 0.30635 0.01558 0.32005 0.0
N108 N 0.3415 0.04657 0.31758 0.0
C109 C 0.36943 0.02061 0.3287 0.0
C110 C 0.35313 0.03781 0.33494 0.0
C111 C 0.35157 0.03448 0.30091 0.0
N112 N 0.36848 0.01847 0.30728 0.0
O113 O 0.33062 0.08119 0.28897 0.0
H114 H 0.3503 0.04326 0.35127 0.0
H115 H 0.34628 0.0371 0.28441 0.0
O116 O 0.29485 0.04848 0.30179 0.0
C117 C 0.34868 0.09448 0.29332 0.0
O118 O 0.35506 0.09719 0.31341 0.0
N119 N 0.30562 0.06431 0.3433 0.0
C120 C 0.29059 0.06592 0.38594 0.0
C121 C 0.27637 0.0546 0.37031 0.0
C122 C 0.28397 0.05446 0.34891 0.0
C123 C 0.31915 0.07597 0.3582 0.0
C124 C 0.3123 0.07654 0.37959 0.0
H125 H 0.27183 0.04754 0.33695 0.0
H126 H 0.33541 0.08513 0.35331 0.0
H127 H 0.26049 0.08357 0.3033 0.0
H128 H 0.28188 0.15223 0.3245 0.0
H129 H 0.38142 0.01076 0.33917 0.0
H130 H 0.25909 0.04689 0.37442 0.0
H131 H 0.32391 0.08548 0.39102 0.0
C132 C 0.98642 0.79262 0.66826 0.0
C133 C 0.96807 0.80919 0.66966 0.0
N134 N 0.97417 0.82587 0.68438 0.0
N135 N 1.00408 0.79888 0.68192 0.0
C136 C 0.99604 0.81906 0.69165 0.0
H137 H 0.98703 0.77715 0.65778 0.0
Co138 Co 0.0331 0.78258 0.68532 0.0
C139 C 0.06118 0.81595 0.71273 0.0
O140 O 0.06309 0.79947 0.72771 0.0
N141 N 0.06272 0.76623 0.68881 0.0
C142 C 0.10203 0.75879 0.68751 0.0
C143 C 0.08423 0.77486 0.6823 0.0
C144 C 0.06803 0.74476 0.69795 0.0
N145 N 0.09186 0.7398 0.69737 0.0
O146 O 0.02207 0.77188 0.71291 0.0
H147 H 0.08688 0.79201 0.67446 0.0
H148 H 0.05477 0.73287 0.70485 0.0
O149 O 0.0485 0.81164 0.69614 0.0
C150 C 0.0108 0.75243 0.70851 0.0
O151 O 0.01144 0.74441 0.68872 0.0
N152 N 0.04158 0.79089 0.65739 0.0
C153 C 0.04546 0.79825 0.61344 0.0
C154 C 0.04379 0.81789 0.6275 0.0
C155 C 0.04164 0.8138 0.64952 0.0
C156 C 0.04384 0.77168 0.64403 0.0
C157 C 0.04606 0.77495 0.62204 0.0
H158 H 0.03853 0.82891 0.66003 0.0
H159 H 0.04298 0.75362 0.65046 0.0
H160 H 1.00629 0.8289 0.70347 0.0
H161 H 0.95151 0.8089 0.66056 0.0
H162 H 0.12109 0.76127 0.68472 0.0
H163 H 0.04282 0.83613 0.62147 0.0
H164 H 0.04755 0.75929 0.6118 0.0
C165 C 0.28589 0.99588 0.66059 0.0
C166 C 0.26866 0.97812 0.66109 0.0
N167 N 0.25482 0.98148 0.67855 0.0
N168 N 0.28283 0.0106 0.67752 0.0
C169 C 0.26392 1.00119 0.68835 0.0
H170 H 0.29942 0.99835 0.64833 0.0
Co171 Co 0.30055 0.03882 0.68256 0.0
C172 C 0.2706 0.06503 0.71385 0.0
O173 O 0.28847 0.06561 0.7276 0.0
N174 N 0.31813 0.06752 0.6878 0.0
C175 C 0.32662 0.10663 0.68911 0.0
C176 C 0.31021 0.08976 0.6826 0.0
C177 C 0.33946 0.07151 0.69779 0.0
N178 N 0.34505 0.09523 0.69871 0.0
O179 O 0.31293 0.02464 0.70833 0.0
H180 H 0.2932 0.09357 0.6749 0.0
H181 H 0.35063 0.05739 0.70437 0.0
O182 O 0.273 0.05343 0.69638 0.0
C183 C 0.32993 0.01132 0.70127 0.0
O184 O 0.33522 0.0124 0.68078 0.0
N185 N 0.2903 0.05077 0.65604 0.0
C186 C 0.27912 0.06186 0.61375 0.0
C187 C 0.2608 0.05679 0.6285 0.0
C188 C 0.26679 0.05136 0.6497 0.0
C189 C 0.30829 0.05553 0.64184 0.0
C190 C 0.30307 0.06157 0.6207 0.0
H191 H 0.25266 0.04632 0.66068 0.0
H192 H 0.32686 0.05399 0.64684 0.0
H193 H 0.25642 0.00912 0.7027 0.0
H194 H 0.26636 0.96391 0.64942 0.0
H195 H 0.32474 0.12594 0.68753 0.0
H196 H 0.24212 0.05652 0.62356 0.0
H197 H 0.31771 0.06487 0.60964 0.0
C198 C 0.10953 0.30253 0.66465 0.0
C199 C 0.12718 0.28515 0.66555 0.0
N200 N 0.12325 0.27144 0.68298 0.0
N201 N 0.09435 0.29951 0.68126 0.0
C202 C 0.10338 0.28066 0.69233 0.0
H203 H 0.10732 0.31592 0.65224 0.0
Co204 Co 0.06574 0.31626 0.68576 0.0
C205 C 0.03926 0.28558 0.71651 0.0
O206 O 0.03765 0.30364 0.73 0.0
N207 N 0.03633 0.3329 0.69045 0.0
C208 C 0.99675 0.33864 0.69237 0.0
C209 C 0.0146 0.3237 0.6852 0.0
C210 C 0.03106 0.35379 0.7007 0.0
N211 N 1.00706 0.35753 0.70219 0.0
O212 O 0.07921 0.32888 0.71181 0.0
H213 H 0.0118 0.30661 0.6773 0.0
H214 H 0.04432 0.36553 0.70783 0.0
O215 O 0.05146 0.2881 0.69934 0.0
C216 C 0.08969 0.34821 0.70577 0.0
O217 O 0.08689 0.35518 0.68581 0.0
N218 N 0.05472 0.30589 0.65902 0.0
C219 C 0.04497 0.29508 0.61635 0.0
C220 C 0.0489 0.2766 0.63127 0.0
C221 C 0.05379 0.28241 0.65263 0.0
C222 C 0.05093 0.32401 0.64476 0.0
C223 C 0.04573 0.31901 0.62342 0.0
H224 H 0.05801 0.26814 0.66374 0.0
H225 H 0.05266 0.34252 0.64989 0.0
H226 H 0.09495 0.27308 0.70641 0.0
H227 H 0.14153 0.28251 0.65407 0.0
H228 H 0.97758 0.33562 0.69085 0.0
H229 H 0.04868 0.25791 0.62639 0.0
H230 H 0.04341 0.33384 0.61235 0.0
C231 C 0.82262 0.10057 0.65828 0.0
C232 C 0.83847 0.11947 0.65928 0.0
N233 N 0.8458 0.12198 0.67969 0.0
N234 N 0.82035 0.09053 0.67786 0.0
C235 C 0.83377 0.10485 0.69078 0.0
H236 H 0.81383 0.09413 0.64395 0.0
Co237 Co 0.80177 0.0626 0.68367 0.0
C238 C 0.84975 0.04791 0.70567 0.0
O239 O 0.86286 0.06667 0.70057 0.0
N240 N 0.78313 0.03482 0.68949 0.0
C241 C 0.77476 0.99599 0.69387 0.0
C242 C 0.79142 0.01219 0.68661 0.0
C243 C 0.76107 0.03178 0.69846 0.0
N244 N 0.75568 0.00821 0.70145 0.0
O245 O 0.78857 0.07823 0.70843 0.0
H246 H 0.80886 0.00768 0.68007 0.0
H247 H 0.7496 0.04647 0.70345 0.0
O248 O 0.82767 0.04687 0.69997 0.0
C249 C 0.77299 0.09285 0.70089 0.0
O250 O 0.76945 0.09323 0.68009 0.0
N251 N 0.81275 0.04857 0.65804 0.0
C252 C 0.82467 0.03609 0.61614 0.0
C253 C 0.84267 0.03929 0.63159 0.0
C254 C 0.83634 0.0455 0.65252 0.0
C255 C 0.79501 0.04487 0.64335 0.0
C256 C 0.80054 0.03834 0.62236 0.0
H257 H 0.85051 0.0494 0.6637 0.0
H258 H 0.77645 0.04807 0.64773 0.0
H259 H 0.83571 0.10195 0.70782 0.0
H260 H 0.8446 0.13019 0.64588 0.0
H261 H 0.77666 0.9766 0.69375 0.0
H262 H 0.86152 0.03782 0.62735 0.0
H263 H 0.78612 0.03645 0.61083 0.0
C264 C 0.4858 0.78889 0.83256 0.0
C265 C 0.47413 0.76737 0.83007 0.0
N266 N 0.48401 0.75572 0.8134 0.0
N267 N 0.50334 0.79091 0.81773 0.0
C268 C 0.50162 0.77041 0.80599 0.0
H269 H 0.48181 0.80222 0.84463 0.0
Co270 Co 0.52413 0.81766 0.81734 0.0
C271 C 0.57076 0.80109 0.79962 0.0
O272 O 0.58163 0.81639 0.81237 0.0
N273 N 0.54421 0.84557 0.81708 0.0
C274 C 0.56512 0.87812 0.82641 0.0
C275 C 0.55107 0.85956 0.83369 0.0
C276 C 0.55397 0.85667 0.79972 0.0
N277 N 0.56711 0.87635 0.805 0.0
O278 O 0.50785 0.83004 0.7926 0.0
H279 H 0.54652 0.85679 0.85025 0.0
H280 H 0.55175 0.85012 0.78353 0.0
O281 O 0.54774 0.79938 0.7999 0.0
C282 C 0.49023 0.84206 0.80023 0.0
O283 O 0.4876 0.84289 0.82112 0.0
N284 N 0.53747 0.8065 0.84324 0.0
C285 C 0.54434 0.78893 0.88461 0.0
C286 C 0.55593 0.77806 0.8672 0.0
C287 C 0.55175 0.78676 0.84648 0.0
C288 C 0.52622 0.81714 0.86015 0.0
C289 C 0.52954 0.80883 0.88092 0.0
H290 H 0.55883 0.77662 0.83325 0.0
H291 H 0.51365 0.83165 0.85734 0.0
H292 H 0.5133 0.76606 0.79268 0.0
H293 H 0.45933 0.76079 0.83971 0.0
H294 H 0.57377 0.89152 0.83635 0.0
H295 H 0.56696 0.76219 0.86947 0.0
H296 H 0.52008 0.81754 0.89396 0.0
C297 C 0.31307 0.47926 0.82805 0.0
C298 C 0.32944 0.46074 0.82756 0.0
N299 N 0.34688 0.46623 0.81333 0.0
N300 N 0.31998 0.49645 0.81419 0.0
C301 C 0.34056 0.48802 0.80537 0.0
H302 H 0.2971 0.4802 0.83792 0.0
Co303 Co 0.30312 0.52499 0.80944 0.0
C304 C 0.33576 0.55217 0.78082 0.0
O305 O 0.31897 0.55287 0.76604 0.0
N306 N 0.28615 0.5539 0.80469 0.0
C307 C 0.27753 0.59296 0.80433 0.0
C308 C 0.29435 0.57602 0.80988 0.0
C309 C 0.26418 0.55794 0.79602 0.0
N310 N 0.2585 0.58162 0.79562 0.0
O311 O 0.29278 0.51255 0.78219 0.0
H312 H 0.31163 0.57964 0.81717 0.0
H313 H 0.25245 0.54384 0.79031 0.0
O314 O 0.33199 0.54036 0.79803 0.0
C315 C 0.27441 0.49961 0.78658 0.0
O316 O 0.26664 0.49898 0.80643 0.0
N317 N 0.31099 0.53518 0.83701 0.0
C318 C 0.31754 0.54517 0.88031 0.0
C319 C 0.33745 0.54186 0.86677 0.0
C320 C 0.33377 0.53681 0.84505 0.0
C321 C 0.29152 0.53808 0.84998 0.0
C322 C 0.29437 0.54338 0.87159 0.0
H323 H 0.34912 0.53331 0.83492 0.0
H324 H 0.27361 0.53574 0.84354 0.0
H325 H 0.35087 0.49785 0.79359 0.0
H326 H 0.32833 0.44439 0.8369 0.0
H327 H 0.27946 0.61222 0.80619 0.0
H328 H 0.35562 0.54286 0.87295 0.0
H329 H 0.27852 0.54515 0.88156 0.0
C330 C 0.62756 0.29315 0.81399 0.0
C331 C 0.64346 0.31169 0.81068 0.0
N332 N 0.63086 0.332 0.8069 0.0
N333 N 0.6049 0.30152 0.81232 0.0
C334 C 0.60744 0.32529 0.8081 0.0
H335 H 0.63223 0.27472 0.81767 0.0
Co336 Co 0.57759 0.28229 0.81602 0.0
C337 C 0.54821 0.30876 0.78265 0.0
O338 O 0.55069 0.29289 0.76724 0.0
N339 N 0.55014 0.26258 0.81965 0.0
C340 C 0.52332 0.23742 0.83376 0.0
C341 C 0.54192 0.25304 0.83812 0.0
C342 C 0.53628 0.25234 0.80431 0.0
N343 N 0.51982 0.2369 0.81242 0.0
O344 O 0.58652 0.26446 0.79087 0.0
H345 H 0.54946 0.25653 0.85376 0.0
H346 H 0.53913 0.25503 0.78738 0.0
O347 O 0.55833 0.30543 0.80069 0.0
C348 C 0.5955 0.24461 0.79742 0.0
O349 O 0.59492 0.23998 0.81805 0.0
N350 N 0.57099 0.29815 0.84172 0.0
C351 C 0.56634 0.31777 0.88259 0.0
C352 C 0.54921 0.32277 0.86665 0.0
C353 C 0.55183 0.3127 0.84621 0.0
C354 C 0.58749 0.29281 0.85708 0.0
C355 C 0.5856 0.30249 0.87754 0.0
H356 H 0.53827 0.31627 0.83424 0.0
H357 H 0.60212 0.28065 0.85344 0.0
H358 H 0.59242 0.33739 0.80589 0.0
H359 H 0.66285 0.31031 0.8115 0.0
H360 H 0.51341 0.22699 0.84543 0.0
H361 H 0.53395 0.33432 0.86993 0.0
H362 H 0.59885 0.29751 0.88945 0.0
C363 C 0.78174 0.61644 0.84073 0.0
C364 C 0.76752 0.63644 0.83827 0.0
N365 N 0.75977 0.63729 0.81785 0.0
N366 N 0.78267 0.60421 0.82209 0.0
C367 C 0.76979 0.61787 0.80826 0.0
H368 H 0.79062 0.61107 0.85535 0.0
Co369 Co 0.80011 0.57553 0.81751 0.0
C370 C 0.74989 0.56062 0.80068 0.0
O371 O 0.73817 0.57997 0.8067 0.0
N372 N 0.81765 0.54702 0.81294 0.0
C373 C 0.82571 0.5079 0.8119 0.0
C374 C 0.80906 0.5249 0.81753 0.0
C375 C 0.83974 0.54291 0.80447 0.0
N376 N 0.84511 0.51913 0.80369 0.0
O377 O 0.81162 0.58834 0.79079 0.0
H378 H 0.79153 0.52129 0.82433 0.0
H379 H 0.85161 0.55702 0.79897 0.0
O380 O 0.77256 0.55898 0.80401 0.0
C381 C 0.82869 0.60263 0.79595 0.0
O382 O 0.83447 0.60473 0.81625 0.0
N383 N 0.79126 0.56445 0.84484 0.0
C384 C 0.78412 0.55677 0.88851 0.0
C385 C 0.76457 0.55689 0.8743 0.0
C386 C 0.7685 0.56089 0.85247 0.0
C387 C 0.81051 0.56338 0.8583 0.0
C388 C 0.80738 0.55939 0.88013 0.0
H389 H 0.75313 0.56251 0.84217 0.0
H390 H 0.82839 0.56668 0.85214 0.0
H391 H 0.76746 0.61336 0.79153 0.0
H392 H 0.76267 0.64893 0.85083 0.0
H393 H 0.82328 0.48863 0.81317 0.0
H394 H 0.74629 0.55527 0.88012 0.0
H395 H 0.82303 0.5591 0.89045 0.0
C396 C 0.4825 0.29822 0.17327 0.0
C397 C 0.46506 0.3156 0.17523 0.0
N398 N 0.47572 0.33636 0.18104 0.0
N399 N 0.50416 0.3079 0.17767 0.0
C400 C 0.49947 0.33121 0.18248 0.0
H401 H 0.47965 0.27969 0.16863 0.0
Co402 Co 0.53277 0.29044 0.17561 0.0
C403 C 0.55905 0.31869 0.20932 0.0
O404 O 0.55634 0.30256 0.22448 0.0
N405 N 0.56164 0.27236 0.17352 0.0
C406 C 0.59124 0.24947 0.16075 0.0
C407 C 0.57218 0.26411 0.15548 0.0
C408 C 0.57469 0.26232 0.18954 0.0
N409 N 0.59276 0.24822 0.18224 0.0
O410 O 0.52388 0.27331 0.20103 0.0
H411 H 0.56599 0.26773 0.1394 0.0
H412 H 0.57014 0.2641 0.20627 0.0
O413 O 0.54993 0.31524 0.19088 0.0
C414 C 0.51683 0.25231 0.19564 0.0
O415 O 0.51878 0.24583 0.17548 0.0
N416 N 0.53939 0.30562 0.14959 0.0
C417 C 0.5446 0.32318 0.10799 0.0
C418 C 0.55945 0.33159 0.12461 0.0
C419 C 0.55663 0.32248 0.14538 0.0
C420 C 0.52499 0.29717 0.13366 0.0
C421 C 0.52726 0.30567 0.11282 0.0
H422 H 0.56857 0.32869 0.15783 0.0
H423 H 0.51191 0.28332 0.13716 0.0
H424 H 0.51318 0.34431 0.18639 0.0
H425 H 0.44595 0.31314 0.17267 0.0
H426 H 0.60278 0.24013 0.14954 0.0
H427 H 0.57314 0.34504 0.12163 0.0
H428 H 0.51588 0.29803 0.1005 0.0
C429 C 0.80076 0.48058 0.17223 0.0
C430 C 0.78411 0.46232 0.17307 0.0
N431 N 0.76537 0.46964 0.18517 0.0
N432 N 0.79272 0.49938 0.18376 0.0
C433 C 0.77116 0.49219 0.19154 0.0
H434 H 0.81759 0.4803 0.16354 0.0
Co435 Co 0.8092 0.52843 0.18635 0.0
C436 C 0.77963 0.55767 0.21588 0.0
O437 O 0.79865 0.5621 0.22772 0.0
N438 N 0.82603 0.55815 0.18881 0.0
C439 C 0.83509 0.59703 0.18509 0.0
C440 C 0.8185 0.57941 0.18063 0.0
C441 C 0.84713 0.5636 0.19859 0.0
N442 N 0.85302 0.58704 0.19644 0.0
O443 O 0.82264 0.51701 0.21287 0.0
H444 H 0.80179 0.5821 0.17211 0.0
H445 H 0.85816 0.55082 0.20714 0.0
O446 O 0.78143 0.54343 0.19994 0.0
C447 C 0.84206 0.50621 0.20753 0.0
O448 O 0.84907 0.50733 0.18746 0.0
N449 N 0.79793 0.53732 0.15936 0.0
C450 C 0.78592 0.5459 0.11676 0.0
C451 C 0.76791 0.54414 0.13244 0.0
C452 C 0.7743 0.5398 0.15376 0.0
C453 C 0.81558 0.53861 0.1443 0.0
C454 C 0.81001 0.54318 0.12295 0.0
H455 H 0.76026 0.53779 0.16558 0.0
H456 H 0.83412 0.53578 0.14892 0.0
H457 H 0.75963 0.50349 0.2012 0.0
H458 H 0.78579 0.44498 0.16534 0.0
H459 H 0.83381 0.61586 0.1808 0.0
H460 H 0.74909 0.54597 0.12825 0.0
H461 H 0.82442 0.54384 0.11129 0.0
C462 C 0.61985 0.78931 0.16759 0.0
C463 C 0.63372 0.76912 0.16963 0.0
N464 N 0.62181 0.7531 0.18182 0.0
N465 N 0.5991 0.7864 0.17843 0.0
C466 C 0.6008 0.76407 0.18714 0.0
H467 H 0.62445 0.80502 0.15827 0.0
Co468 Co 0.57577 0.81072 0.17707 0.0
C469 C 0.52943 0.79078 0.19154 0.0
O470 O 0.51906 0.80434 0.17702 0.0
N471 N 0.55314 0.83659 0.17546 0.0
C472 C 0.52974 0.86665 0.16431 0.0
C473 C 0.54533 0.84882 0.15809 0.0
C474 C 0.54215 0.84785 0.19213 0.0
N475 N 0.52766 0.86612 0.18577 0.0
O476 O 0.58856 0.82477 0.20262 0.0
H477 H 0.55033 0.84534 0.14174 0.0
H478 H 0.54478 0.84267 0.20866 0.0
O479 O 0.55244 0.7908 0.19336 0.0
C480 C 0.6042 0.83993 0.19617 0.0
O481 O 0.60702 0.84304 0.17549 0.0
N482 N 0.56591 0.79788 0.15067 0.0
C483 C 0.56204 0.78043 0.10893 0.0
C484 C 0.551 0.76826 0.12598 0.0
C485 C 0.55369 0.77695 0.14689 0.0
C486 C 0.57741 0.8093 0.13433 0.0
C487 C 0.57542 0.80117 0.11336 0.0
H488 H 0.54684 0.76617 0.15986 0.0
H489 H 0.58846 0.82486 0.13769 0.0
H490 H 0.58674 0.75575 0.19655 0.0
H491 H 0.65131 0.7664 0.16258 0.0
H492 H 0.52035 0.87881 0.15367 0.0
H493 H 0.54118 0.75171 0.12326 0.0
H494 H 0.58434 0.81109 0.10072 0.0
C495 C 0.31052 0.61605 0.15861 0.0
C496 C 0.32628 0.63498 0.16014 0.0
N497 N 0.33651 0.63451 0.17969 0.0
N498 N 0.31106 0.60323 0.17693 0.0
C499 C 0.32612 0.6157 0.18986 0.0
H500 H 0.2998 0.61159 0.14473 0.0
Co501 Co 0.29367 0.57474 0.18195 0.0
C502 C 0.34477 0.55847 0.19567 0.0
O503 O 0.35639 0.57742 0.18861 0.0
N504 N 0.27597 0.54631 0.18698 0.0
C505 C 0.26573 0.50758 0.18598 0.0
C506 C 0.28274 0.52422 0.18015 0.0
C507 C 0.25491 0.54245 0.19738 0.0
N508 N 0.24832 0.51905 0.19685 0.0
O509 O 0.28403 0.58748 0.20933 0.0
H510 H 0.29912 0.52039 0.17145 0.0
H511 H 0.24443 0.55639 0.20503 0.0
O512 O 0.32182 0.55736 0.19392 0.0
C513 C 0.26592 0.60091 0.20518 0.0
O514 O 0.25793 0.6018 0.1854 0.0
N515 N 0.30069 0.56408 0.15398 0.0
C516 C 0.30526 0.55626 0.11001 0.0
C517 C 0.32555 0.55601 0.12337 0.0
C518 C 0.3229 0.56009 0.14532 0.0
C519 C 0.28072 0.56361 0.14133 0.0
C520 C 0.28256 0.55959 0.11937 0.0
H521 H 0.33888 0.56125 0.15486 0.0
H522 H 0.26327 0.56727 0.14828 0.0
H523 H 0.33054 0.61012 0.20598 0.0
H524 H 0.33034 0.64772 0.14756 0.0
H525 H 0.26629 0.48842 0.18287 0.0
H526 H 0.34346 0.55391 0.11679 0.0
H527 H 0.26636 0.55965 0.10974 0.0
C528 C 0.0609 0.27589 0.42104 0.0
C529 C 0.04544 0.29195 0.4104 0.0
C530 C 0.06 0.27366 0.44338 0.0
C531 C 0.04071 0.30786 0.491 0.0
H532 H 0.04584 0.24691 0.52085 0.0
C533 C 0.02481 0.30277 0.58118 0.0
C534 C 0.04181 0.28987 0.59322 0.0
C535 C 0.02404 0.30051 0.55895 0.0
C536 C 0.04455 0.26407 0.51272 0.0
H537 H 0.01593 0.31704 0.41464 0.0
H538 H 0.01431 0.31311 0.45333 0.0
H539 H 0.04744 0.24779 0.48166 0.0
H540 H 0.07063 0.26365 0.59148 0.0
H541 H 0.06933 0.25974 0.55252 0.0
H542 H 0.03796 0.32423 0.52181 0.0
C543 C 0.0276 0.30275 0.44461 0.0
C544 C 0.04551 0.26457 0.4903 0.0
C545 C 0.02854 0.30501 0.42242 0.0
C546 C 0.0572 0.27368 0.58264 0.0
C547 C 0.05647 0.27146 0.56033 0.0
C548 C 0.03973 0.30735 0.51328 0.0
C549 C 0.04357 0.28738 0.45542 0.0
C550 C 0.04337 0.28649 0.4792 0.0
C551 C 0.04032 0.28537 0.5482 0.0
C552 C 0.04142 0.28546 0.52443 0.0
H553 H 0.0741 0.26559 0.41218 0.0
H554 H 0.07261 0.26174 0.45126 0.0
H555 H 0.03959 0.32511 0.48299 0.0
H556 H 0.01245 0.31507 0.58894 0.0
H557 H 0.01099 0.31104 0.55012 0.0
C558 C 0.81852 0.01585 0.58068 0.0
C559 C 0.83086 0.03278 0.59325 0.0
C560 C 0.82248 0.01466 0.55861 0.0
C561 C 0.83888 0.05317 0.514 0.0
H562 H 0.84349 0.99344 0.48223 0.0
C563 C 0.83803 0.05275 0.42162 0.0
C564 C 0.82331 0.03513 0.4122 0.0
C565 C 0.84394 0.05142 0.44339 0.0
C566 C 0.84206 0.01029 0.49083 0.0
H567 H 0.85735 0.0614 0.59269 0.0
H568 H 0.86413 0.05942 0.55406 0.0
H569 H 0.84427 0.99264 0.52128 0.0
H570 H 0.80465 1.00144 0.41794 0.0
H571 H 0.81403 0.99965 0.45576 0.0
H572 H 0.83542 0.07081 0.48377 0.0
C573 C 0.8515 0.04703 0.56132 0.0
C574 C 0.84261 0.0098 0.51319 0.0
C575 C 0.84776 0.04801 0.58343 0.0
C576 C 0.81556 0.01564 0.42478 0.0
C577 C 0.82131 0.01439 0.44647 0.0
C578 C 0.83804 0.05366 0.49165 0.0
C579 C 0.83862 0.0306 0.54866 0.0
C580 C 0.84061 0.0312 0.525 0.0
C581 C 0.83523 0.03246 0.45618 0.0
C582 C 0.83914 0.03218 0.47977 0.0
H583 H 0.80545 1.00387 0.58787 0.0
H584 H 0.81216 1.00195 0.54921 0.0
H585 H 0.83703 0.06993 0.5227 0.0
H586 H 0.84432 0.06798 0.41238 0.0
H587 H 0.85502 0.06546 0.45025 0.0
C588 C 0.0582 0.81994 0.57987 0.0
C589 C 0.04478 0.80168 0.58988 0.0
C590 C 0.05779 0.82245 0.55756 0.0
C591 C 0.04506 0.7873 0.5088 0.0
H592 H 0.04149 0.84938 0.48066 0.0
C593 C 0.03031 0.79394 0.41833 0.0
C594 C 0.04504 0.81013 0.40709 0.0
C595 C 0.0291 0.79472 0.44063 0.0
C596 C 0.04268 0.83194 0.48831 0.0
H597 H 0.01941 0.77266 0.58446 0.0
H598 H 0.01873 0.777 0.54578 0.0
H599 H 0.04228 0.84733 0.51979 0.0
H600 H 0.06947 0.84032 0.4104 0.0
H601 H 0.06738 0.84164 0.44942 0.0
H602 H 0.04558 0.77184 0.47752 0.0
C603 C 0.03005 0.78899 0.55502 0.0
C604 C 0.04317 0.83077 0.51069 0.0
C605 C 0.03048 0.78648 0.57721 0.0
C606 C 0.05777 0.82776 0.4186 0.0
C607 C 0.05659 0.8285 0.44095 0.0
C608 C 0.04456 0.78846 0.48652 0.0
C609 C 0.04392 0.80678 0.5449 0.0
C610 C 0.04417 0.8084 0.52117 0.0
C611 C 0.04265 0.81164 0.45223 0.0
C612 C 0.04317 0.81076 0.47599 0.0
H613 H 0.06942 0.83189 0.58923 0.0
H614 H 0.06878 0.83625 0.55021 0.0
H615 H 0.04637 0.76981 0.51636 0.0
H616 H 0.01999 0.78042 0.40988 0.0
H617 H 0.01777 0.78181 0.44883 0.0
C618 C 0.2836 0.08536 0.57992 0.0
C619 C 0.27376 0.06563 0.59081 0.0
C620 C 0.28126 0.08731 0.55774 0.0
C621 C 0.25032 0.06119 0.50984 0.0
H622 H 0.30763 0.08438 0.4811 0.0
C623 C 0.27289 0.04747 0.41927 0.0
C624 C 0.28285 0.06746 0.40868 0.0
C625 C 0.26827 0.04839 0.44131 0.0
C626 C 0.29139 0.0781 0.48889 0.0
H627 H 0.25317 0.03281 0.58732 0.0
H628 H 0.24971 0.03569 0.54845 0.0
H629 H 0.30613 0.08418 0.51989 0.0
H630 H 0.29381 0.10469 0.41255 0.0
H631 H 0.28618 0.10607 0.45089 0.0
H632 H 0.23615 0.05427 0.47843 0.0
C633 C 0.25872 0.05004 0.55699 0.0
C634 C 0.29043 0.0781 0.51118 0.0
C635 C 0.26073 0.04832 0.57926 0.0
C636 C 0.2868 0.08874 0.42033 0.0
C637 C 0.28235 0.0896 0.44227 0.0
C638 C 0.25142 0.06091 0.48743 0.0
C639 C 0.26946 0.06928 0.54587 0.0
C640 C 0.26987 0.06976 0.52201 0.0
C641 C 0.27363 0.06927 0.45309 0.0
C642 C 0.27195 0.06948 0.47677 0.0
H643 H 0.29355 0.09904 0.58854 0.0
H644 H 0.28918 0.10274 0.54985 0.0
H645 H 0.2341 0.05483 0.51759 0.0
H646 H 0.26968 0.03081 0.41074 0.0
H647 H 0.2616 0.03244 0.4493 0.0
C648 C 0.52506 0.77358 0.91787 0.0
C649 C 0.54614 0.77897 0.90648 0.0
C650 C 0.52617 0.76707 0.93939 0.0
C651 C 0.56769 0.74976 0.98364 0.0
H652 H 0.52015 0.78267 0.01842 0.0
C653 C 0.58023 0.77178 0.07309 0.0
C654 C 0.55997 0.77177 0.08656 0.0
C655 C 0.57788 0.76682 0.05129 0.0
C656 C 0.53327 0.77291 0.00898 0.0
H657 H 0.58497 0.78069 0.90815 0.0
H658 H 0.58703 0.76995 0.94613 0.0
H659 H 0.51754 0.7849 0.97974 0.0
H660 H 0.5216 0.76514 0.08805 0.0
H661 H 0.51746 0.7563 0.04986 0.0
H662 H 0.58392 0.73864 0.01317 0.0
C663 C 0.56962 0.77033 0.93836 0.0
C664 C 0.53179 0.77419 0.98673 0.0
C665 C 0.5685 0.77656 0.91666 0.0
C666 C 0.53751 0.76529 0.07803 0.0
C667 C 0.53513 0.76043 0.05617 0.0
C668 C 0.56923 0.74857 0.00598 0.0
C669 C 0.54839 0.76615 0.95012 0.0
C670 C 0.54914 0.7629 0.97375 0.0
C671 C 0.55519 0.76179 0.04247 0.0
C672 C 0.55221 0.76044 0.01888 0.0
H673 H 0.50762 0.77496 0.91021 0.0
H674 H 0.50953 0.76337 0.94778 0.0
H675 H 0.58116 0.74059 0.97413 0.0
H676 H 0.59785 0.77634 0.0793 0.0
H677 H 0.59366 0.76816 0.04119 0.0
C678 C 0.33631 0.53465 0.91567 0.0
C679 C 0.32047 0.54903 0.90367 0.0
C680 C 0.33656 0.5361 0.93804 0.0
C681 C 0.2966 0.55319 0.98248 0.0
H682 H 0.35422 0.5495 0.01731 0.0
C683 C 0.29406 0.56984 0.0731 0.0
C684 C 0.30784 0.55475 0.08637 0.0
C685 C 0.2966 0.56895 0.05091 0.0
C686 C 0.33796 0.55027 0.00778 0.0
H687 H 0.29373 0.57734 0.90554 0.0
H688 H 0.29434 0.58006 0.94446 0.0
H689 H 0.35764 0.54928 0.97826 0.0
H690 H 0.33515 0.52689 0.08664 0.0
H691 H 0.33954 0.52528 0.0477 0.0
H692 H 0.27687 0.55409 0.01182 0.0
C693 C 0.30611 0.56722 0.93668 0.0
C694 C 0.33993 0.55019 0.98544 0.0
C695 C 0.30583 0.56574 0.91439 0.0
C696 C 0.32438 0.53885 0.07687 0.0
C697 C 0.32693 0.53796 0.05459 0.0
C698 C 0.29464 0.55326 0.00474 0.0
C699 C 0.32101 0.55198 0.94881 0.0
C700 C 0.31926 0.55187 0.97254 0.0
C701 C 0.31299 0.55296 0.04136 0.0
C702 C 0.31528 0.552 0.01767 0.0
H703 H 0.34766 0.52146 0.90786 0.0
H704 H 0.34816 0.52403 0.94692 0.0
H705 H 0.28028 0.55391 0.97304 0.0
H706 H 0.28158 0.58272 0.07989 0.0
H707 H 0.28594 0.5811 0.04122 0.0
C708 C 0.58446 0.33464 0.91615 0.0
C709 C 0.56393 0.32727 0.90474 0.0
C710 C 0.58298 0.34021 0.93789 0.0
C711 C 0.5415 0.35427 0.98241 0.0
H712 H 0.58825 0.31958 0.01662 0.0
C713 C 0.52754 0.3341 0.07204 0.0
C714 C 0.54767 0.33145 0.08549 0.0
C715 C 0.53041 0.3386 0.0502 0.0
C716 C 0.57536 0.32989 0.00742 0.0
H717 H 0.52545 0.32135 0.907 0.0
H718 H 0.52282 0.33134 0.94503 0.0
H719 H 0.59133 0.31885 0.97788 0.0
H720 H 0.58665 0.33298 0.08659 0.0
H721 H 0.59164 0.3418 0.04867 0.0
H722 H 0.5254 0.36517 0.01199 0.0
C723 C 0.54007 0.33279 0.93707 0.0
C724 C 0.57709 0.32938 0.98514 0.0
C725 C 0.54158 0.3271 0.91528 0.0
C726 C 0.57073 0.33494 0.07677 0.0
C727 C 0.57359 0.33967 0.05492 0.0
C728 C 0.53989 0.35499 0.00476 0.0
C729 C 0.56089 0.33871 0.94873 0.0
C730 C 0.55999 0.34124 0.97237 0.0
C731 C 0.5535 0.34085 0.04123 0.0
C732 C 0.55657 0.34244 0.01756 0.0
H733 H 0.60187 0.33548 0.90838 0.0
H734 H 0.59924 0.34514 0.94637 0.0
H735 H 0.52821 0.36378 0.97297 0.0
H736 H 0.50948 0.33204 0.07829 0.0
H737 H 0.51448 0.33922 0.04024 0.0
C738 C 0.79333 0.56571 0.08141 0.0
C739 C 0.77989 0.54953 0.09387 0.0
C740 C 0.78933 0.56757 0.05943 0.0
C741 C 0.76769 0.53235 0.01388 0.0
H742 H 0.77154 0.59354 0.98428 0.0
C743 C 0.76319 0.54039 0.92122 0.0
C744 C 0.78032 0.55589 0.91204 0.0
C745 C 0.75971 0.54 0.94343 0.0
C746 C 0.77053 0.57629 0.9923 0.0
H747 H 0.7513 0.52303 0.09316 0.0
H748 H 0.74422 0.52636 0.0546 0.0
H749 H 0.77103 0.5927 0.02329 0.0
H750 H 0.80672 0.58357 0.91895 0.0
H751 H 0.80108 0.58251 0.95746 0.0
H752 H 0.76787 0.51592 0.98287 0.0
C753 C 0.75793 0.53751 0.06189 0.0
C754 C 0.7702 0.57583 0.01464 0.0
C755 C 0.76182 0.53577 0.08398 0.0
C756 C 0.79368 0.57112 0.9255 0.0
C757 C 0.79017 0.57078 0.94759 0.0
C758 C 0.76807 0.53281 0.9915 0.0
C759 C 0.77187 0.55322 0.04935 0.0
C760 C 0.7693 0.55383 0.02569 0.0
C761 C 0.77315 0.55525 0.95685 0.0
C762 C 0.77006 0.55477 0.98047 0.0
H763 H 0.80725 0.57668 0.08864 0.0
H764 H 0.80055 0.57967 0.0502 0.0
H765 H 0.76722 0.5151 0.02194 0.0
H766 H 0.75267 0.5284 0.91127 0.0
H767 H 0.74638 0.52792 0.95007 0.0
C768 C 0.07583 0.2374 0.30012 0.0
C769 C 0.07994 0.25711 0.28648 0.0
C770 C 0.09226 0.21831 0.30113 0.0
C771 C 0.1466 0.19152 0.27444 0.0
H772 H 0.16064 0.16917 0.33185 0.0
C773 C 0.22448 0.12392 0.2924 0.0
C774 C 0.23908 0.13049 0.30981 0.0
C775 C 0.20238 0.13563 0.28884 0.0
C776 C 0.15699 0.17517 0.31568 0.0
H777 H 0.10415 0.27156 0.2625 0.0
H778 H 0.13294 0.23864 0.26452 0.0
H779 H 0.12747 0.19684 0.32607 0.0
H780 H 0.2413 0.15344 0.33776 0.0
H781 H 0.20334 0.17377 0.3316 0.0
H782 H 0.17706 0.1707 0.26431 0.0
C783 C 0.11686 0.23766 0.27426 0.0
C784 C 0.13768 0.19088 0.3123 0.0
C785 C 0.10033 0.25667 0.27315 0.0
C786 C 0.23064 0.14816 0.32405 0.0
C787 C 0.20866 0.15967 0.32062 0.0
C788 C 0.16601 0.17581 0.27785 0.0
C789 C 0.11337 0.21845 0.28863 0.0
C790 C 0.13245 0.1997 0.2917 0.0
C791 C 0.19433 0.15389 0.30281 0.0
C792 C 0.17182 0.16788 0.2986 0.0
H793 H 0.06017 0.23697 0.31043 0.0
H794 H 0.08861 0.20362 0.31204 0.0
H795 H 0.14294 0.19757 0.25829 0.0
H796 H 0.23057 0.11042 0.28113 0.0
H797 H 0.19171 0.13056 0.27506 0.0
C798 C 0.82908 0.10842 0.28564 0.0
C799 C 0.83487 0.08766 0.29728 0.0
C800 C 0.84664 0.12572 0.28133 0.0
C801 C 0.91183 0.14143 0.28692 0.0
H802 H 0.88549 0.20316 0.30399 0.0
C803 C 0.96748 0.23092 0.294 0.0
C804 C 0.96297 0.24439 0.31269 0.0
C805 C 0.95335 0.21077 0.28896 0.0
C806 C 0.89316 0.18607 0.29915 0.0
H807 H 0.86367 0.06777 0.31238 0.0
H808 H 0.89446 0.09817 0.30519 0.0
H809 H 0.85872 0.16925 0.29867 0.0
H810 H 0.9407 0.24616 0.34121 0.0
H811 H 0.91604 0.21166 0.33224 0.0
H812 H 0.94652 0.1585 0.28828 0.0
C813 C 0.87651 0.10095 0.29893 0.0
C814 C 0.87775 0.16664 0.29579 0.0
C815 C 0.85892 0.08345 0.30299 0.0
C816 C 0.94439 0.23679 0.32641 0.0
C817 C 0.93023 0.21688 0.3213 0.0
C818 C 0.92732 0.16106 0.29018 0.0
C819 C 0.87025 0.12288 0.28908 0.0
C820 C 0.88685 0.14394 0.28995 0.0
C821 C 0.9343 0.20381 0.30241 0.0
C822 C 0.91814 0.18344 0.29681 0.0
H823 H 0.81055 0.11215 0.28135 0.0
H824 H 0.84131 0.14212 0.27326 0.0
H825 H 0.91943 0.12423 0.28237 0.0
H826 H 0.98152 0.23622 0.28298 0.0
H827 H 0.95686 0.20106 0.27426 0.0
C828 C 0.87661 0.97754 0.30773 0.0
C829 C 0.8544 0.9654 0.30829 0.0
C830 C 0.89808 0.96489 0.30389 0.0
C831 C 0.92336 0.90326 0.30772 0.0
H832 H 0.9753 0.92877 0.27313 0.0
C833 C 0.00852 0.84676 0.29098 0.0
C834 C 0.03069 0.85875 0.29295 0.0
C835 C 0.98689 0.85975 0.29025 0.0
C836 C 0.96105 0.92144 0.28297 0.0
H837 H 0.83742 0.9306 0.30389 0.0
H838 H 0.87451 0.90876 0.29731 0.0
H839 H 0.93818 0.95191 0.2773 0.0
H840 H 0.0474 0.89402 0.29439 0.0
H841 H 0.00992 0.91648 0.29325 0.0
H842 H 0.94619 0.87302 0.31373 0.0
C843 C 0.87552 0.92792 0.30036 0.0
C844 C 0.93976 0.93475 0.28538 0.0
C845 C 0.85417 0.9405 0.30415 0.0
C846 C 0.03072 0.88409 0.29295 0.0
C847 C 0.00913 0.89705 0.2922 0.0
C848 C 0.94461 0.89 0.30536 0.0
C849 C 0.89783 0.93981 0.30051 0.0
C850 C 0.92062 0.92583 0.2978 0.0
C851 C 0.98686 0.88508 0.2914 0.0
C852 C 0.9638 0.89888 0.29298 0.0
H853 H 0.8775 0.99665 0.31095 0.0
H854 H 0.91495 0.97463 0.30424 0.0
H855 H 0.90922 0.89598 0.31774 0.0
H856 H 0.00775 0.82731 0.29074 0.0
H857 H 0.97014 0.84989 0.28917 0.0
C858 C 0.27949 0.98622 0.29154 0.0
C859 C 0.27459 0.01073 0.29481 0.0
C860 C 0.26106 0.97016 0.28657 0.0
C861 C 0.19722 0.96274 0.29777 0.0
H862 H 0.2068 0.90273 0.2672 0.0
C863 C 0.15202 0.87541 0.32427 0.0
C864 C 0.14365 0.8588 0.30901 0.0
C865 C 0.16496 0.89574 0.31805 0.0
C866 C 0.20358 0.91951 0.27553 0.0
H867 H 0.24683 0.03802 0.29408 0.0
H868 H 0.21426 0.00979 0.28532 0.0
H869 H 0.23482 0.93602 0.26181 0.0
H870 H 0.14238 0.85071 0.27511 0.0
H871 H 0.16525 0.88643 0.26415 0.0
H872 H 0.16635 0.94607 0.31187 0.0
C873 C 0.23247 1.00301 0.28671 0.0
C874 C 0.21975 0.93855 0.27257 0.0
C875 C 0.2511 0.01922 0.2915 0.0
C876 C 0.14854 0.86316 0.28725 0.0
C877 C 0.1617 0.88355 0.281 0.0
C878 C 0.18108 0.94372 0.30072 0.0
C879 C 0.23714 0.97814 0.28491 0.0
C880 C 0.21729 0.96009 0.28427 0.0
C881 C 0.16996 0.90015 0.29636 0.0
C882 C 0.18458 0.92156 0.29027 0.0
H883 H 0.29748 0.97921 0.29397 0.0
H884 H 0.26541 0.95119 0.28555 0.0
H885 H 0.19477 0.97894 0.30714 0.0
H886 H 0.14828 0.87297 0.34112 0.0
H887 H 0.17136 0.90787 0.33037 0.0
C888 C 0.22846 0.9629 0.70604 0.0
C889 C 0.23382 0.96768 0.68446 0.0
C890 C 0.20852 0.94864 0.71153 0.0
C891 C 0.1497 0.92812 0.69162 0.0
H892 H 0.15869 0.87246 0.72812 0.0
C893 C 0.08025 0.85123 0.6942 0.0
C894 C 0.07757 0.83718 0.71276 0.0
C895 C 0.09783 0.86917 0.69299 0.0
C896 C 0.1556 0.88818 0.71826 0.0
H897 H 0.22208 0.96195 0.65181 0.0
H898 H 0.18714 0.93756 0.66135 0.0
H899 H 0.19207 0.90019 0.72214 0.0
H900 H 0.09083 0.83187 0.74504 0.0
H901 H 0.12097 0.86379 0.74326 0.0
H902 H 0.11329 0.91653 0.68783 0.0
C903 C 0.19843 0.94458 0.67403 0.0
C904 C 0.17485 0.90403 0.71477 0.0
C905 C 0.21855 0.95838 0.66855 0.0
C906 C 0.09239 0.84228 0.73045 0.0
C907 C 0.10988 0.86047 0.72933 0.0
C908 C 0.13037 0.91252 0.69535 0.0
C909 C 0.19326 0.93937 0.69555 0.0
C910 C 0.17225 0.92388 0.70104 0.0
C911 C 0.11318 0.87391 0.71041 0.0
C912 C 0.13313 0.89196 0.70832 0.0
H913 H 0.23999 0.96974 0.7186 0.0
H914 H 0.20494 0.94498 0.72825 0.0
H915 H 0.14704 0.94347 0.6812 0.0
H916 H 0.0694 0.84781 0.68017 0.0
H917 H 0.09992 0.87867 0.67798 0.0
C918 C 0.14391 0.23369 0.67327 0.0
C919 C 0.13602 0.24992 0.68901 0.0
C920 C 0.15582 0.21249 0.67902 0.0
C921 C 0.19488 0.18594 0.71847 0.0
H922 H 0.17194 0.12477 0.69677 0.0
C923 C 0.24887 0.09841 0.7332 0.0
C924 C 0.25035 0.08242 0.71581 0.0
C925 C 0.23217 0.11735 0.7331 0.0
C926 C 0.17883 0.14167 0.70279 0.0
H927 H 0.13463 0.25691 0.72306 0.0
H928 H 0.15635 0.22002 0.73316 0.0
H929 H 0.14899 0.16131 0.68979 0.0
H930 H 0.23439 0.07321 0.6852 0.0
H931 H 0.20629 0.10626 0.6846 0.0
H932 H 0.22546 0.16682 0.73037 0.0
C933 C 0.15293 0.22365 0.7164 0.0
C934 C 0.16553 0.16258 0.69889 0.0
C935 C 0.14048 0.24463 0.71065 0.0
C936 C 0.23392 0.08512 0.69887 0.0
C937 C 0.21752 0.10415 0.69862 0.0
C938 C 0.20849 0.16509 0.72202 0.0
C939 C 0.16053 0.20731 0.70062 0.0
C940 C 0.1736 0.18495 0.70642 0.0
C941 C 0.21669 0.1209 0.7155 0.0
C942 C 0.20089 0.14267 0.71389 0.0
H943 H 0.14048 0.23722 0.6565 0.0
H944 H 0.16162 0.20026 0.66654 0.0
H945 H 0.20154 0.20303 0.72435 0.0
H946 H 0.26115 0.09682 0.74658 0.0
H947 H 0.23177 0.12948 0.74665 0.0
C948 C 0.86566 0.14697 0.70761 0.0
C949 C 0.8655 0.13686 0.68698 0.0
C950 C 0.88501 0.16144 0.71433 0.0
C951 C 0.94921 0.1733 0.70342 0.0
H952 H 0.9376 0.23714 0.72611 0.0
C953 C 0.02248 0.24658 0.70271 0.0
C954 C 0.02247 0.26478 0.71834 0.0
C955 C 1.00431 0.22917 0.7022 0.0
C956 C 0.94129 0.21919 0.72022 0.0
H957 H 0.88587 0.13334 0.65756 0.0
H958 H 0.91942 0.15818 0.66925 0.0
H959 H 0.90371 0.2102 0.71939 0.0
H960 H 1.00386 0.27798 0.74651 0.0
H961 H 0.97256 0.24718 0.74602 0.0
H962 H 0.98667 0.18202 0.70418 0.0
C963 C 0.90462 0.15518 0.68021 0.0
C964 C 0.92178 0.20378 0.71632 0.0
C965 C 0.88523 0.14116 0.67342 0.0
C966 C 1.00446 0.2643 0.73418 0.0
C967 C 0.9863 0.24675 0.73375 0.0
C968 C 0.9687 0.18855 0.70754 0.0
C969 C 0.90478 0.16556 0.7007 0.0
C970 C 0.92549 0.18088 0.70737 0.0
C971 C 0.98564 0.22925 0.71744 0.0
C972 C 0.96504 0.21198 0.71549 0.0
H973 H 0.85071 0.14396 0.71839 0.0
H974 H 0.88465 0.16916 0.73024 0.0
H975 H 0.95269 0.1556 0.69685 0.0
H976 H 0.03605 0.24623 0.6903 0.0
H977 H 1.00442 0.21628 0.68921 0.0
C978 C 0.94452 0.85763 0.67568 0.0
C979 C 0.96067 0.8471 0.69025 0.0
C980 C 0.93173 0.8784 0.68111 0.0
C981 C 0.93256 0.93046 0.71809 0.0
H982 H 0.86759 0.93907 0.69687 0.0
C983 C 0.88727 0.02349 0.71055 0.0
C984 C 0.86208 0.02528 0.71201 0.0
C985 C 0.8987 1.00116 0.71219 0.0
C986 C 0.88556 0.9369 0.70328 0.0
H987 H 0.97564 0.85006 0.72218 0.0
H988 H 0.95319 0.88627 0.73174 0.0
H989 H 0.88804 0.90094 0.69129 0.0
H990 H 0.82942 1.00521 0.71842 0.0
H991 H 0.84939 0.96629 0.72163 0.0
H992 H 0.92997 0.96641 0.73022 0.0
C993 C 0.95071 0.87863 0.71595 0.0
C994 C 0.89746 0.91509 0.69977 0.0
C995 C 0.96359 0.85785 0.71047 0.0
C996 C 0.8488 1.00444 0.7168 0.0
C997 C 0.86026 0.98208 0.71853 0.0
C998 C 0.92061 0.95228 0.72168 0.0
C999 C 0.93462 0.88921 0.70131 0.0
C1000 C 0.92129 0.91172 0.70674 0.0
C1001 C 0.88528 0.98003 0.71551 0.0
C1002 C 0.8971 0.95596 0.71397 0.0
H1003 H 0.94212 0.85015 0.65984 0.0
H1004 H 0.91993 0.88629 0.66924 0.0
H1005 H 0.95093 0.9286 0.72361 0.0
H1006 H 0.89814 0.03913 0.70689 0.0
H1007 H 0.91795 1.00036 0.70963 0.0
C1008 C 0.58211 0.75814 0.7934 0.0
C1009 C 0.58596 0.78267 0.7893 0.0
C1010 C 0.60063 0.74143 0.78996 0.0
C1011 C 0.66756 0.74185 0.78721 0.0
H1012 H 0.65922 0.67284 0.78287 0.0
C1013 C 0.73912 0.6767 0.8188 0.0
C1014 C 0.74243 0.65408 0.80916 0.0
C1015 C 0.72074 0.69205 0.81208 0.0
C1016 C 0.66201 0.69209 0.78375 0.0
H1017 H 0.61085 0.80863 0.77615 0.0
H1018 H 0.6423 0.77943 0.76841 0.0
H1019 H 0.62504 0.69936 0.77648 0.0
H1020 H 0.72919 0.63032 0.78427 0.0
H1021 H 0.69753 0.65752 0.77202 0.0
H1022 H 0.70452 0.73474 0.79396 0.0
C1023 C 0.62571 0.77305 0.77549 0.0
C1024 C 0.64225 0.70736 0.78038 0.0
C1025 C 0.60752 0.7898 0.77954 0.0
C1026 C 0.72733 0.64764 0.792 0.0
C1027 C 0.70893 0.66313 0.78515 0.0
C1028 C 0.68729 0.72668 0.79026 0.0
C1029 C 0.62315 0.74887 0.78188 0.0
C1030 C 0.64459 0.73248 0.78256 0.0
C1031 C 0.70518 0.68545 0.79531 0.0
C1032 C 0.6847 0.70154 0.78922 0.0
H1033 H 0.56567 0.7522 0.80106 0.0
H1034 H 0.59778 0.72307 0.79515 0.0
H1035 H 0.67032 0.76096 0.78944 0.0
H1036 H 0.75054 0.68247 0.83184 0.0
H1037 H 0.71833 0.70886 0.82058 0.0
C1038 C 0.47226 0.71392 0.82087 0.0
C1039 C 0.47665 0.7323 0.80595 0.0
C1040 C 0.46146 0.69234 0.81459 0.0
C1041 C 0.41893 0.66883 0.77538 0.0
H1042 H 0.4372 0.60697 0.79901 0.0
C1043 C 0.35993 0.5841 0.76183 0.0
C1044 C 0.35664 0.56897 0.77964 0.0
C1045 C 0.37762 0.60213 0.76199 0.0
C1046 C 0.43167 0.6241 0.79239 0.0
H1047 H 0.47378 0.74235 0.77265 0.0
H1048 H 0.45441 0.70448 0.7615 0.0
H1049 H 0.46301 0.64186 0.80467 0.0
H1050 H 0.37022 0.56054 0.81131 0.0
H1051 H 0.40044 0.59197 0.81181 0.0
H1052 H 0.38706 0.65146 0.76394 0.0
C1053 C 0.45953 0.70679 0.7781 0.0
C1054 C 0.4466 0.6441 0.79554 0.0
C1055 C 0.4708 0.72833 0.78438 0.0
C1056 C 0.37216 0.57174 0.79726 0.0
C1057 C 0.3897 0.58981 0.79748 0.0
C1058 C 0.40387 0.64886 0.77239 0.0
C1059 C 0.45439 0.6887 0.79324 0.0
C1060 C 0.4402 0.66683 0.78744 0.0
C1061 C 0.39245 0.60559 0.78001 0.0
C1062 C 0.40976 0.62627 0.78122 0.0
H1063 H 0.47656 0.71661 0.83761 0.0
H1064 H 0.45759 0.67896 0.82672 0.0
H1065 H 0.41331 0.68611 0.76913 0.0
H1066 H 0.3484 0.58249 0.74793 0.0
H1067 H 0.37941 0.61356 0.74805 0.0
C1068 C 0.51027 0.32673 0.76763 0.0
C1069 C 0.53065 0.32873 0.78082 0.0
C1070 C 0.49169 0.34379 0.76889 0.0
C1071 C 0.46705 0.38824 0.80747 0.0
H1072 H 0.42528 0.4058 0.76032 0.0
C1073 C 0.37592 0.43395 0.82245 0.0
C1074 C 0.36799 0.452 0.80831 0.0
C1075 C 0.39624 0.42012 0.81779 0.0
C1076 C 0.43692 0.4013 0.77364 0.0
H1077 H 0.54836 0.35108 0.80447 0.0
H1078 H 0.51666 0.38115 0.80606 0.0
H1079 H 0.46066 0.38079 0.75363 0.0
H1080 H 0.37554 0.46931 0.7779 0.0
H1081 H 0.41144 0.44561 0.77009 0.0
H1082 H 0.4438 0.40904 0.82741 0.0
C1083 C 0.51443 0.36604 0.79531 0.0
C1084 C 0.45707 0.3867 0.76983 0.0
C1085 C 0.53277 0.34889 0.79426 0.0
C1086 C 0.38112 0.45579 0.78932 0.0
C1087 C 0.40161 0.44197 0.78469 0.0
C1088 C 0.44707 0.40288 0.81123 0.0
C1089 C 0.49324 0.36332 0.78322 0.0
C1090 C 0.47235 0.37983 0.78675 0.0
C1091 C 0.4095 0.424 0.79894 0.0
C1092 C 0.43152 0.40939 0.79445 0.0
H1093 H 0.50804 0.31131 0.75722 0.0
H1094 H 0.47564 0.34096 0.75941 0.0
H1095 H 0.47805 0.38308 0.82102 0.0
H1096 H 0.36663 0.43053 0.83734 0.0
H1097 H 0.40145 0.40621 0.82901 0.0
C1098 C 0.74781 0.51686 0.79021 0.0
C1099 C 0.73601 0.53851 0.79534 0.0
C1100 C 0.73489 0.49529 0.78845 0.0
C1101 C 0.6792 0.46706 0.80825 0.0
H1102 H 0.69359 0.41765 0.76641 0.0
C1103 C 0.6271 0.37665 0.80672 0.0
C1104 C 0.64071 0.35572 0.80288 0.0
C1105 C 0.63723 0.39953 0.80373 0.0
C1106 C 0.68947 0.43114 0.77836 0.0
H1107 H 0.70102 0.5545 0.80144 0.0
H1108 H 0.67862 0.51703 0.79824 0.0
H1109 H 0.71421 0.45634 0.76452 0.0
H1110 H 0.6755 0.34282 0.79201 0.0
H1111 H 0.6932 0.38231 0.78752 0.0
H1112 H 0.65498 0.44178 0.82249 0.0
C1113 C 0.69793 0.51666 0.79593 0.0
C1114 C 0.70129 0.45337 0.77722 0.0
C1115 C 0.7108 0.53822 0.79758 0.0
C1116 C 0.6645 0.35838 0.79552 0.0
C1117 C 0.67462 0.38118 0.79261 0.0
C1118 C 0.66749 0.4448 0.80948 0.0
C1119 C 0.70985 0.49483 0.79183 0.0
C1120 C 0.69644 0.47156 0.79225 0.0
C1121 C 0.66123 0.40212 0.79682 0.0
C1122 C 0.67261 0.42641 0.79468 0.0
H1123 H 0.76716 0.5164 0.78823 0.0
H1124 H 0.74468 0.47881 0.78533 0.0
H1125 H 0.67527 0.48052 0.8203 0.0
H1126 H 0.60878 0.37542 0.81247 0.0
H1127 H 0.62621 0.41521 0.80688 0.0
C1128 C 0.59595 0.33683 0.22596 0.0
C1129 C 0.57635 0.33877 0.21186 0.0
C1130 C 0.61469 0.35371 0.22531 0.0
C1131 C 0.64225 0.39636 0.18703 0.0
H1132 H 0.68142 0.41482 0.23566 0.0
C1133 C 0.73609 0.43774 0.17576 0.0
C1134 C 0.74343 0.45646 0.18944 0.0
C1135 C 0.71491 0.42498 0.1797 0.0
C1136 C 0.67052 0.41006 0.22193 0.0
H1137 H 0.56002 0.36094 0.18732 0.0
H1138 H 0.59217 0.39067 0.18662 0.0
H1139 H 0.64497 0.39105 0.24132 0.0
H1140 H 0.73402 0.47613 0.21825 0.0
H1141 H 0.69672 0.45413 0.22487 0.0
H1142 H 0.66747 0.41551 0.16765 0.0
C1143 C 0.59361 0.37573 0.19768 0.0
C1144 C 0.64975 0.3962 0.22516 0.0
C1145 C 0.57506 0.35878 0.19818 0.0
C1146 C 0.7289 0.46202 0.20724 0.0
C1147 C 0.70761 0.44921 0.21117 0.0
C1148 C 0.6629 0.41021 0.18383 0.0
C1149 C 0.6141 0.37298 0.21067 0.0
C1150 C 0.63543 0.38899 0.20771 0.0
C1151 C 0.70029 0.43058 0.19738 0.0
C1152 C 0.67752 0.41699 0.20117 0.0
H1153 H 0.59754 0.32152 0.2366 0.0
H1154 H 0.6302 0.35089 0.23549 0.0
H1155 H 0.63197 0.39091 0.17313 0.0
H1156 H 0.74654 0.43304 0.16177 0.0
H1157 H 0.71009 0.41052 0.16889 0.0
C1158 C 0.73645 0.5669 0.20709 0.0
C1159 C 0.75779 0.57297 0.21791 0.0
C1160 C 0.71711 0.58307 0.20626 0.0
C1161 C 0.69421 0.64198 0.22822 0.0
H1162 H 0.66291 0.64559 0.17292 0.0
C1163 C 0.62672 0.71886 0.20714 0.0
C1164 C 0.63036 0.72921 0.18687 0.0
C1165 C 0.63811 0.69707 0.21261 0.0
C1166 C 0.67146 0.64493 0.18848 0.0
H1167 H 0.77505 0.6005 0.23708 0.0
H1168 H 0.74182 0.62886 0.23516 0.0
H1169 H 0.69107 0.6133 0.18007 0.0
H1170 H 0.64748 0.72406 0.15607 0.0
H1171 H 0.6674 0.68682 0.16549 0.0
H1172 H 0.67561 0.67464 0.23602 0.0
C1173 C 0.73964 0.61144 0.22766 0.0
C1174 C 0.68745 0.62609 0.19273 0.0
C1175 C 0.75886 0.59514 0.22871 0.0
C1176 C 0.64456 0.71675 0.17191 0.0
C1177 C 0.6558 0.69514 0.17729 0.0
C1178 C 0.67833 0.66101 0.22387 0.0
C1179 C 0.71868 0.60592 0.21597 0.0
C1180 C 0.69952 0.62456 0.2125 0.0
C1181 C 0.65313 0.68511 0.19781 0.0
C1182 C 0.66721 0.6631 0.20372 0.0
H1183 H 0.73491 0.54987 0.19877 0.0
H1184 H 0.70112 0.57779 0.19757 0.0
H1185 H 0.70271 0.64125 0.2438 0.0
H1186 H 0.61593 0.7281 0.219 0.0
H1187 H 0.63541 0.68978 0.2285 0.0
C1188 C 0.52166 0.74887 0.2049 0.0
C1189 C 0.51414 0.77283 0.20243 0.0
C1190 C 0.50478 0.73084 0.20964 0.0
C1191 C 0.44006 0.72031 0.22438 0.0
H1192 H 0.44478 0.66853 0.18305 0.0
C1193 C 0.36213 0.65208 0.20836 0.0
C1194 C 0.35725 0.64819 0.18653 0.0
C1195 C 0.3829 0.66456 0.21473 0.0
C1196 C 0.44321 0.68281 0.19477 0.0
H1197 H 0.48381 0.79711 0.20491 0.0
H1198 H 0.45462 0.76604 0.21324 0.0
H1199 H 0.47884 0.69533 0.18837 0.0
H1200 H 0.37083 0.65405 0.15437 0.0
H1201 H 0.40639 0.67595 0.16534 0.0
H1202 H 0.40381 0.70853 0.22976 0.0
C1203 C 0.47332 0.76088 0.21158 0.0
C1204 C 0.4629 0.69801 0.19805 0.0
C1205 C 0.49006 0.77874 0.20669 0.0
C1206 C 0.37366 0.65701 0.17129 0.0
C1207 C 0.39437 0.66926 0.17761 0.0
C1208 C 0.42032 0.70506 0.22108 0.0
C1209 C 0.48022 0.73656 0.21219 0.0
C1210 C 0.46131 0.7175 0.21233 0.0
C1211 C 0.39936 0.67312 0.19939 0.0
C1212 C 0.42138 0.6867 0.20564 0.0
H1213 H 0.5401 0.74381 0.20155 0.0
H1214 H 0.51075 0.7123 0.21026 0.0
H1215 H 0.43832 0.73493 0.23572 0.0
H1216 H 0.34985 0.64558 0.2205 0.0
H1217 H 0.38623 0.66725 0.23164 0.0
C1218 C 0.47128 0.37487 0.20072 0.0
C1219 C 0.46383 0.35914 0.18443 0.0
C1220 C 0.45857 0.39623 0.20476 0.0
C1221 C 0.3994 0.42614 0.19295 0.0
H1222 H 0.43269 0.48339 0.21216 0.0
C1223 C 0.34725 0.51487 0.2068 0.0
C1224 C 0.35873 0.53621 0.20033 0.0
C1225 C 0.36018 0.49323 0.20824 0.0
C1226 C 0.42305 0.46767 0.20661 0.0
H1227 H 0.43795 0.35397 0.15897 0.0
H1228 H 0.41648 0.39139 0.16526 0.0
H1229 H 0.45516 0.44644 0.20666 0.0
H1230 H 0.39311 0.55152 0.19105 0.0
H1231 H 0.4152 0.5141 0.19281 0.0
H1232 H 0.3676 0.44766 0.19159 0.0
C1233 C 0.43143 0.38698 0.17565 0.0
C1234 C 0.43596 0.44624 0.20376 0.0
C1235 C 0.44386 0.36553 0.17189 0.0
C1236 C 0.3836 0.53552 0.19617 0.0
C1237 C 0.39641 0.51391 0.19732 0.0
C1238 C 0.38658 0.44763 0.19547 0.0
C1239 C 0.43832 0.40255 0.19236 0.0
C1240 C 0.42441 0.42519 0.19659 0.0
C1241 C 0.38485 0.49229 0.20299 0.0
C1242 C 0.39822 0.46885 0.20209 0.0
H1243 H 0.48649 0.37027 0.21075 0.0
H1244 H 0.46437 0.40749 0.21792 0.0
H1245 H 0.38961 0.41028 0.18794 0.0
H1246 H 0.32816 0.51474 0.21025 0.0
H1247 H 0.35066 0.47717 0.21316 0.0
C1248 C 0.21346 0.49206 0.19435 0.0
C1249 C 0.22767 0.50784 0.20643 0.0
C1250 C 0.19524 0.47863 0.20407 0.0
C1251 C 0.16153 0.47019 0.25589 0.0
H1252 H 0.1521 0.40608 0.23284 0.0
C1253 C 0.12054 0.38891 0.30194 0.0
C1254 C 0.10246 0.37589 0.29131 0.0
C1255 C 0.1329 0.40741 0.29147 0.0
C1256 C 0.15435 0.42403 0.23931 0.0
H1257 H 0.23392 0.52245 0.23795 0.0
H1258 H 0.20296 0.49814 0.2554 0.0
H1259 H 0.17935 0.43366 0.21493 0.0
H1260 H 0.0829 0.37214 0.26156 0.0
H1261 H 0.10511 0.40409 0.24292 0.0
H1262 H 0.13749 0.45953 0.28111 0.0
C1263 C 0.2051 0.4966 0.23824 0.0
C1264 C 0.16989 0.44002 0.22896 0.0
C1265 C 0.22294 0.51053 0.22833 0.0
C1266 C 0.09665 0.38202 0.27012 0.0
C1267 C 0.1094 0.40017 0.25948 0.0
C1268 C 0.14638 0.45393 0.2665 0.0
C1269 C 0.19126 0.48004 0.22632 0.0
C1270 C 0.17379 0.46339 0.23707 0.0
C1271 C 0.12778 0.41289 0.27001 0.0
C1272 C 0.14269 0.4307 0.2583 0.0
H1273 H 0.21678 0.48989 0.17737 0.0
H1274 H 0.18458 0.46682 0.19409 0.0
H1275 H 0.16359 0.48806 0.26251 0.0
H1276 H 0.12523 0.3846 0.31831 0.0
H1277 H 0.14708 0.41684 0.2999 0.0
C1278 C 0.72389 0.10311 0.27502 0.0
C1279 C 0.72899 0.10913 0.29642 0.0
C1280 C 0.71027 0.11861 0.26208 0.0
C1281 C 0.68823 0.18189 0.25804 0.0
H1282 H 0.64023 0.15397 0.22052 0.0
C1283 C 0.61465 0.23917 0.21597 0.0
C1284 C 0.60887 0.23326 0.19468 0.0
C1285 C 0.62998 0.22443 0.22805 0.0
C1286 C 0.65373 0.16209 0.23072 0.0
H1287 H 0.72439 0.13676 0.3206 0.0
H1288 H 0.70037 0.16336 0.29833 0.0
H1289 H 0.66606 0.12775 0.24169 0.0
H1290 H 0.61468 0.20688 0.1696 0.0
H1291 H 0.64153 0.18151 0.19045 0.0
H1292 H 0.67568 0.21626 0.24718 0.0
C1293 C 0.70699 0.14676 0.29143 0.0
C1294 C 0.66861 0.14702 0.24286 0.0
C1295 C 0.72057 0.1313 0.30433 0.0
C1296 C 0.61888 0.21223 0.18582 0.0
C1297 C 0.6341 0.19747 0.1979 0.0
C1298 C 0.67329 0.19697 0.24593 0.0
C1299 C 0.70144 0.14056 0.27017 0.0
C1300 C 0.68605 0.15668 0.25674 0.0
C1301 C 0.63982 0.2033 0.2192 0.0
C1302 C 0.65581 0.18728 0.23212 0.0
H1303 H 0.7299 0.08618 0.26837 0.0
H1304 H 0.70666 0.11334 0.24571 0.0
H1305 H 0.70167 0.19003 0.26828 0.0
H1306 H 0.60746 0.2553 0.22327 0.0
H1307 H 0.63381 0.2294 0.24446 0.0
C1308 C 0.88589 0.61646 0.19272 0.0
C1309 C 0.87356 0.59942 0.20511 0.0
C1310 C 0.90478 0.62982 0.2015 0.0
C1311 C 0.94448 0.6349 0.25022 0.0
H1312 H 0.95124 0.70059 0.23018 0.0
C1313 C 0.98775 0.71396 0.29736 0.0
C1314 C 1.00488 0.72789 0.28641 0.0
C1315 C 0.97518 0.69571 0.28678 0.0
C1316 C 0.94975 0.68218 0.23574 0.0
H1317 H 0.87129 0.58274 0.23627 0.0
H1318 H 0.90334 0.60687 0.25214 0.0
H1319 H 0.92214 0.67414 0.2132 0.0
H1320 H 0.02266 0.73351 0.25605 0.0
H1321 H 0.99992 0.70198 0.23717 0.0
H1322 H 0.97114 0.64393 0.2738 0.0
C1323 C 0.89923 0.60946 0.23537 0.0
C1324 C 0.93313 0.66685 0.22593 0.0
C1325 C 0.88072 0.59565 0.22637 0.0
C1326 C 0.00968 0.72284 0.26481 0.0
C1327 C 0.99663 0.70496 0.25405 0.0
C1328 C 0.96072 0.65046 0.26035 0.0
C1329 C 0.91141 0.627 0.22313 0.0
C1330 C 0.93009 0.64296 0.23306 0.0
C1331 C 0.97907 0.69143 0.26491 0.0
C1332 C 0.96342 0.67426 0.25324 0.0
H1333 H 0.88084 0.61943 0.17619 0.0
H1334 H 0.91404 0.64249 0.19125 0.0
H1335 H 0.94321 0.61658 0.25597 0.0
H1336 H 0.98381 0.71757 0.31402 0.0
H1337 H 0.96163 0.68565 0.29547 0.0
C1338 C 0.39131 0.98058 0.30268 0.0
C1339 C 0.38296 1.00253 0.29427 0.0
C1340 C 0.40643 0.96562 0.29071 0.0
C1341 C 0.44991 0.96686 0.24609 0.0
H1342 H 0.44202 0.89754 0.24697 0.0
C1343 C 0.50534 0.9043 0.19098 0.0
C1344 C 0.51261 0.88165 0.19873 0.0
C1345 C 0.48977 0.91892 0.20282 0.0
C1346 C 0.44474 0.91683 0.24678 0.0
H1347 H 0.38381 0.02577 0.26646 0.0
H1348 H 0.41021 0.99957 0.24542 0.0
H1349 H 0.41376 0.92299 0.26647 0.0
H1350 H 0.50925 0.85692 0.22539 0.0
H1351 H 0.48257 0.88271 0.24635 0.0
H1352 H 0.48101 0.96079 0.22663 0.0
C1353 C 0.40512 0.99403 0.26141 0.0
C1354 C 0.42844 0.93145 0.25791 0.0
C1355 C 0.38979 0.00894 0.27337 0.0
C1356 C 0.50421 0.87427 0.21894 0.0
C1357 C 0.48862 0.88897 0.23085 0.0
C1358 C 0.46627 0.95225 0.23504 0.0
C1359 C 0.41377 0.97224 0.27 0.0
C1360 C 0.43078 0.95667 0.2577 0.0
C1361 C 0.48105 0.91147 0.22288 0.0
C1362 C 0.46391 0.92701 0.23517 0.0
H1363 H 0.38617 0.97493 0.31862 0.0
H1364 H 0.41285 0.94911 0.29792 0.0
H1365 H 0.45254 0.98617 0.24587 0.0
H1366 H 0.51163 0.91085 0.17568 0.0
H1367 H 0.48421 0.93594 0.19598 0.0
C1368 C 0.22972 0.6155 0.79484 0.0
C1369 C 0.23714 0.59293 0.7871 0.0
C1370 C 0.21032 0.62757 0.78556 0.0
C1371 C 0.17679 0.63169 0.73487 0.0
H1372 H 0.13552 0.67349 0.76839 0.0
C1373 C 0.12686 0.71231 0.69801 0.0
C1374 C 0.10431 0.71921 0.70617 0.0
C1375 C 0.1399 0.69362 0.70743 0.0
C1376 C 0.14659 0.66165 0.75875 0.0
H1377 H 0.22932 0.565 0.76391 0.0
H1378 H 0.1951 0.58596 0.74785 0.0
H1379 H 0.16316 0.64625 0.78647 0.0
H1380 H 0.0775 0.71118 0.73035 0.0
H1381 H 0.10008 0.6782 0.74658 0.0
H1382 H 0.1602 0.64708 0.70716 0.0
C1383 C 0.20458 0.59445 0.76097 0.0
C1384 C 0.16268 0.64622 0.76914 0.0
C1385 C 0.22406 0.58231 0.77031 0.0
C1386 C 0.09474 0.70632 0.72358 0.0
C1387 C 0.10782 0.68756 0.73303 0.0
C1388 C 0.16064 0.64707 0.72448 0.0
C1389 C 0.19769 0.6174 0.76829 0.0
C1390 C 0.17843 0.63147 0.75734 0.0
C1391 C 0.13073 0.68118 0.72525 0.0
C1392 C 0.14574 0.66269 0.73627 0.0
H1393 H 0.2391 0.62405 0.80796 0.0
H1394 H 0.20578 0.6453 0.7915 0.0
H1395 H 0.1887 0.62071 0.72523 0.0
H1396 H 0.13464 0.72154 0.68442 0.0
H1397 H 0.15756 0.68947 0.70111 0.0
C1398 C 0.37428 0.12859 0.70049 0.0
C1399 C 0.36542 0.1068 0.70874 0.0
C1400 C 0.39217 0.14145 0.71124 0.0
C1401 C 0.43872 0.13738 0.75402 0.0
H1402 H 0.43086 0.20672 0.75505 0.0
C1403 C 0.49511 0.19984 0.80927 0.0
C1404 C 0.50318 0.22183 0.80067 0.0
C1405 C 0.47906 0.18521 0.79789 0.0
C1406 C 0.43353 0.18742 0.75474 0.0
H1407 H 0.36908 0.08101 0.73448 0.0
H1408 H 0.4003 0.10361 0.75355 0.0
H1409 H 0.40206 0.18203 0.73569 0.0
H1410 H 0.50042 0.24559 0.77328 0.0
H1411 H 0.47259 0.22005 0.75338 0.0
H1412 H 0.47012 0.14292 0.77336 0.0
C1413 C 0.39353 0.11066 0.73856 0.0
C1414 C 0.41698 0.17319 0.74358 0.0
C1415 C 0.37564 0.09766 0.72765 0.0
C1416 C 0.49476 0.22874 0.78035 0.0
C1417 C 0.4786 0.21417 0.76902 0.0
C1418 C 0.45526 0.15165 0.76528 0.0
C1419 C 0.40168 0.13301 0.7307 0.0
C1420 C 0.41938 0.14797 0.74293 0.0
C1421 C 0.47049 0.19221 0.77765 0.0
C1422 C 0.45293 0.17688 0.76571 0.0
H1423 H 0.36713 0.13588 0.68573 0.0
H1424 H 0.39843 0.15818 0.70432 0.0
H1425 H 0.44133 0.11808 0.75372 0.0
H1426 H 0.5014 0.19375 0.82473 0.0
H1427 H 0.47307 0.16856 0.80513 0.0
C1428 C 1.00208 0.40037 0.71253 0.0
C1429 C 0.99445 0.37629 0.7135 0.0
C1430 C 0.98818 0.41868 0.72194 0.0
C1431 C 0.92541 0.42953 0.74057 0.0
H1432 H 0.95211 0.48472 0.7702 0.0
C1433 C 0.8721 0.48391 0.80144 0.0
C1434 C 0.86611 0.50738 0.79485 0.0
C1435 C 0.89014 0.47095 0.79108 0.0
C1436 C 0.94452 0.46951 0.76173 0.0
H1437 H 0.96743 0.35227 0.72632 0.0
H1438 H 0.94376 0.38369 0.74319 0.0
H1439 H 0.9792 0.45551 0.75304 0.0
H1440 H 0.87575 0.53614 0.77299 0.0
H1441 H 0.90794 0.51336 0.75508 0.0
H1442 H 0.89089 0.44288 0.75009 0.0
C1443 C 0.95978 0.38883 0.73445 0.0
C1444 C 0.95995 0.45281 0.75188 0.0
C1445 C 0.97342 0.37074 0.72488 0.0
C1446 C 0.87987 0.51815 0.7785 0.0
C1447 C 0.89824 0.50515 0.76823 0.0
C1448 C 0.91014 0.44594 0.75058 0.0
C1449 C 0.96655 0.41314 0.73265 0.0
C1450 C 0.95057 0.43228 0.74159 0.0
C1451 C 0.903 0.48122 0.7741 0.0
C1452 C 0.91953 0.46583 0.76154 0.0
H1453 H 0.01825 0.40509 0.70382 0.0
H1454 H 0.99398 0.43718 0.72022 0.0
H1455 H 0.91742 0.41441 0.73225 0.0
H1456 H 0.86244 0.47524 0.81433 0.0
H1457 H 0.89366 0.45258 0.79598 0.0
C1458 C 0.5914 0.8827 0.772 0.0
C1459 C 0.58187 0.89143 0.79137 0.0
C1460 C 0.60769 0.89658 0.76006 0.0
C1461 C 0.63369 0.95885 0.75498 0.0
H1462 H 0.68768 0.92457 0.73035 0.0
C1463 C 0.71173 1.00723 0.70904 0.0
C1464 C 0.73491 0.99757 0.71169 0.0
C1465 C 0.69152 0.99527 0.71747 0.0
C1466 C 0.67285 0.93453 0.73727 0.0
H1467 H 0.5811 0.92237 0.81254 0.0
H1468 H 0.60985 0.94598 0.79234 0.0
H1469 H 0.65515 0.90213 0.74681 0.0
H1470 H 0.75517 0.96871 0.72645 0.0
H1471 H 0.72045 0.94835 0.74145 0.0
H1472 H 0.65209 0.99132 0.74626 0.0
C1473 C 0.60467 0.92856 0.78612 0.0
C1474 C 0.65388 0.92156 0.74644 0.0
C1475 C 0.58834 0.91478 0.79795 0.0
C1476 C 0.73752 0.97633 0.72367 0.0
C1477 C 0.71751 0.96455 0.73219 0.0
C1478 C 0.65278 0.97185 0.74591 0.0
C1479 C 0.61495 0.91954 0.76718 0.0
C1480 C 0.63414 0.93349 0.75573 0.0
C1481 C 0.69414 0.9735 0.72887 0.0
C1482 C 0.67286 0.95988 0.73725 0.0
H1483 H 0.58694 0.86482 0.76641 0.0
H1484 H 0.61484 0.88912 0.74537 0.0
H1485 H 0.61866 0.96875 0.76162 0.0
H1486 H 0.70916 0.02353 0.69982 0.0
H1487 H 0.67384 1.00273 0.71452 0.0
C1488 C 0.99774 0.7138 0.72411 0.0
C1489 C 0.99591 0.73899 0.72395 0.0
C1490 C 0.97933 0.69966 0.73263 0.0
C1491 C 0.92304 0.69995 0.7647 0.0
H1492 H 0.90684 0.6458 0.72822 0.0
C1493 C 0.83877 0.64272 0.78151 0.0
C1494 C 0.8418 0.61769 0.7805 0.0
C1495 C 0.85607 0.65819 0.77282 0.0
C1496 C 0.91118 0.66069 0.73871 0.0
H1497 H 0.97393 0.76926 0.73346 0.0
H1498 H 0.94154 0.74451 0.74861 0.0
H1499 H 0.94095 0.67132 0.71918 0.0
H1500 H 0.86492 0.58906 0.76933 0.0
H1501 H 0.89519 0.61593 0.75396 0.0
H1502 H 0.89337 0.68918 0.78434 0.0
C1503 C 0.9574 0.73566 0.74234 0.0
C1504 C 0.93084 0.67533 0.73356 0.0
C1505 C 0.97604 0.74989 0.73387 0.0
C1506 C 0.8618 0.6083 0.76967 0.0
C1507 C 0.87923 0.62377 0.76104 0.0
C1508 C 0.90338 0.68525 0.76989 0.0
C1509 C 0.9584 0.71034 0.74096 0.0
C1510 C 0.9372 0.69504 0.74659 0.0
C1511 C 0.87703 0.64894 0.76322 0.0
C1512 C 0.89723 0.66532 0.75701 0.0
H1513 H 0.0128 0.70497 0.71637 0.0
H1514 H 0.98105 0.68027 0.73182 0.0
H1515 H 0.92747 0.71484 0.77516 0.0
H1516 H 0.82374 0.65035 0.79024 0.0
H1517 H 0.85347 0.67741 0.77442 0.0
C1518 C 0.35301 0.99854 0.73406 0.0
C1519 C 0.34238 0.99305 0.71429 0.0
C1520 C 0.36883 0.98203 0.74372 0.0
C1521 C 0.40774 0.92995 0.72893 0.0
H1522 H 0.41124 0.91934 0.79008 0.0
C1523 C 0.48056 0.86905 0.769 0.0
C1524 C 0.47312 0.85588 0.78699 0.0
C1525 C 0.46489 0.88579 0.75949 0.0
C1526 C 0.41038 0.92192 0.77292 0.0
H1527 H 0.3385 0.96574 0.68981 0.0
H1528 H 0.36501 0.93683 0.70689 0.0
H1529 H 0.38253 0.94838 0.77591 0.0
H1530 H 0.4432 0.84859 0.80825 0.0
H1531 H 0.41581 0.87679 0.79133 0.0
H1532 H 0.43504 0.90296 0.72588 0.0
C1533 C 0.3621 0.954 0.71467 0.0
C1534 C 0.3941 0.93885 0.76483 0.0
C1535 C 0.34665 0.97046 0.70501 0.0
C1536 C 0.44946 0.85867 0.79449 0.0
C1537 C 0.43385 0.87508 0.78495 0.0
C1538 C 0.42395 0.91296 0.73701 0.0
C1539 C 0.37407 0.95981 0.73378 0.0
C1540 C 0.3923 0.94284 0.7427 0.0
C1541 C 0.44153 0.88945 0.76777 0.0
C1542 C 0.42524 0.90845 0.75909 0.0
H1543 H 0.35021 0.01599 0.74136 0.0
H1544 H 0.37774 0.98711 0.75846 0.0
H1545 H 0.40727 0.93291 0.71181 0.0
H1546 H 0.49881 0.86743 0.7631 0.0
H1547 H 0.47143 0.89656 0.74628 0.0
C1548 C 0.12555 0.35176 0.72998 0.0
C1549 C 0.10601 0.36249 0.71943 0.0
C1550 C 0.14482 0.36597 0.7373 0.0
C1551 C 0.17311 0.4251 0.72529 0.0
H1552 H 0.21035 0.41332 0.7766 0.0
C1553 C 0.24176 0.49332 0.76009 0.0
C1554 C 0.26194 0.48431 0.77091 0.0
C1555 C 0.22449 0.47755 0.75165 0.0
C1556 C 0.20039 0.41664 0.762 0.0
H1557 H 0.09036 0.39638 0.70958 0.0
H1558 H 0.12312 0.42112 0.72309 0.0
H1559 H 0.17583 0.38776 0.76848 0.0
H1560 H 0.28038 0.45197 0.78094 0.0
H1561 H 0.25077 0.42437 0.76562 0.0
H1562 H 0.19747 0.4541 0.7189 0.0
C1563 C 0.1242 0.4018 0.72517 0.0
C1564 C 0.1805 0.40199 0.7574 0.0
C1565 C 0.10521 0.38766 0.71773 0.0
C1566 C 0.26528 0.45932 0.77211 0.0
C1567 C 0.24806 0.44354 0.76372 0.0
C1568 C 0.19293 0.43974 0.7299 0.0
C1569 C 0.14476 0.39113 0.73422 0.0
C1570 C 0.16639 0.4062 0.7391 0.0
C1571 C 0.22695 0.45245 0.75413 0.0
C1572 C 0.20676 0.43586 0.7484 0.0
H1573 H 0.12683 0.33234 0.73108 0.0
H1574 H 0.16034 0.3571 0.74419 0.0
H1575 H 0.16311 0.42855 0.71074 0.0
H1576 H 0.23837 0.51251 0.75964 0.0
H1577 H 0.2084 0.4851 0.74456 0.0
C1578 C 0.61249 0.20422 0.79007 0.0
C1579 C 0.60952 0.22823 0.78356 0.0
C1580 C 0.62979 0.18956 0.78053 0.0
C1581 C 0.67037 0.18262 0.73422 0.0
H1582 H 0.70944 0.14671 0.77464 0.0
C1583 C 0.75504 0.13305 0.70621 0.0
C1584 C 0.75906 0.10978 0.71416 0.0
C1585 C 0.73799 0.1481 0.71562 0.0
C1586 C 0.69857 0.15638 0.76311 0.0
H1587 H 0.62139 0.25537 0.76107 0.0
H1588 H 0.65177 0.22955 0.74409 0.0
H1589 H 0.67608 0.17122 0.78758 0.0
H1590 H 0.74915 0.08418 0.73867 0.0
H1591 H 0.71882 0.11042 0.75518 0.0
H1592 H 0.6926 0.1676 0.70972 0.0
C1593 C 0.6406 0.2221 0.75664 0.0
C1594 C 0.67942 0.17046 0.77051 0.0
C1595 C 0.62313 0.23685 0.76624 0.0
C1596 C 0.74659 0.1022 0.73247 0.0
C1597 C 0.72917 0.11723 0.74181 0.0
C1598 C 0.68944 0.16845 0.7268 0.0
C1599 C 0.64466 0.19855 0.76423 0.0
C1600 C 0.66506 0.18371 0.75616 0.0
C1601 C 0.72415 0.1401 0.73304 0.0
C1602 C 0.70386 0.15518 0.74114 0.0
H1603 H 0.6021 0.19701 0.80327 0.0
H1604 H 0.63199 0.17134 0.78636 0.0
H1605 H 0.65951 0.19238 0.72274 0.0
H1606 H 0.76455 0.13934 0.69213 0.0
H1607 H 0.73521 0.16581 0.70883 0.0
C1608 C 1.0019 0.37318 0.26687 0.0
C1609 C 0.99473 0.35097 0.27537 0.0
C1610 C 0.9848 0.38929 0.25875 0.0
C1611 C 0.91992 0.39667 0.24398 0.0
H1612 H 0.93139 0.46245 0.26203 0.0
C1613 C 0.84814 0.47142 0.23231 0.0
C1614 C 0.85709 0.4923 0.22251 0.0
C1615 C 0.86406 0.45424 0.2408 0.0
C1616 C 0.92792 0.4442 0.25679 0.0
H1617 H 0.9643 0.3278 0.28159 0.0
H1618 H 0.93437 0.35569 0.26727 0.0
H1619 H 0.96127 0.4316 0.26962 0.0
H1620 H 0.88933 0.51221 0.21469 0.0
H1621 H 0.91696 0.48289 0.22999 0.0
H1622 H 0.88644 0.40944 0.2312 0.0
C1623 C 0.95318 0.36064 0.2664 0.0
C1624 C 0.94518 0.42648 0.26098 0.0
C1625 C 0.97035 0.3445 0.27442 0.0
C1626 C 0.88199 0.49646 0.22256 0.0
C1627 C 0.89781 0.47956 0.23125 0.0
C1628 C 0.90258 0.41443 0.23983 0.0
C1629 C 0.96007 0.38369 0.25932 0.0
C1630 C 0.94159 0.4025 0.25443 0.0
C1631 C 0.88915 0.45783 0.2398 0.0
C1632 C 0.90647 0.43848 0.24601 0.0
H1633 H 0.02051 0.37885 0.26797 0.0
H1634 H 0.99087 0.40664 0.253 0.0
H1635 H 0.91653 0.37847 0.23861 0.0
H1636 H 0.82904 0.46754 0.23197 0.0
H1637 H 0.85679 0.43778 0.24746 0.0
C1638 C 0.64384 0.85708 0.20506 0.0
C1639 C 0.61961 0.85391 0.21069 0.0
C1640 C 0.65798 0.87411 0.21549 0.0
C1641 C 0.65228 0.93191 0.24245 0.0
H1642 H 0.71959 0.92207 0.2563 0.0
C1643 C 0.70944 1.00092 0.28869 0.0
C1644 C 0.73415 1.00271 0.28429 0.0
C1645 C 0.69518 0.98412 0.27807 0.0
C1646 C 0.70094 0.92524 0.25215 0.0
H1647 H 0.59119 0.86531 0.23206 0.0
H1648 H 0.61608 0.8955 0.25054 0.0
H1649 H 0.6953 0.88822 0.24409 0.0
H1650 H 0.76312 0.98942 0.26438 0.0
H1651 H 0.73801 0.96004 0.24538 0.0
H1652 H 0.65794 0.96897 0.25032 0.0
C1653 C 0.62409 0.88467 0.23801 0.0
C1654 C 0.68696 0.90578 0.24536 0.0
C1655 C 0.60996 0.86726 0.22769 0.0
C1656 C 0.74407 0.98851 0.26796 0.0
C1657 C 0.72976 0.97149 0.25734 0.0
C1658 C 0.66629 0.9514 0.24917 0.0
C1659 C 0.64811 0.88863 0.23164 0.0
C1660 C 0.66248 0.90889 0.24043 0.0
C1661 C 0.70531 0.96859 0.26281 0.0
C1662 C 0.6908 0.94831 0.25412 0.0
H1663 H 0.6516 0.84704 0.19188 0.0
H1664 H 0.67629 0.8768 0.21006 0.0
H1665 H 0.6336 0.93499 0.23834 0.0
H1666 H 0.70132 0.01171 0.30121 0.0
H1667 H 0.67652 0.98236 0.28281 0.0
C1668 C 0.13442 0.76179 0.26907 0.0
C1669 C 0.11173 0.75302 0.27513 0.0
C1670 C 0.1521 0.74601 0.26118 0.0
C1671 C 0.16824 0.6814 0.26527 0.0
H1672 H 0.21592 0.6961 0.22198 0.0
C1673 C 0.23035 0.60933 0.22778 0.0
C1674 C 0.25356 0.61591 0.2212 0.0
C1675 C 0.2147 0.62642 0.23658 0.0
C1676 C 0.20299 0.69184 0.23438 0.0
H1677 H 0.08935 0.72128 0.2769 0.0
H1678 H 0.11954 0.69404 0.26228 0.0
H1679 H 0.18456 0.72549 0.23028 0.0
H1680 H 0.27884 0.64534 0.21891 0.0
H1681 H 0.25175 0.67525 0.23483 0.0
H1682 H 0.18649 0.64777 0.26933 0.0
C1683 C 0.12404 0.7129 0.26393 0.0
C1684 C 0.1849 0.70869 0.23906 0.0
C1685 C 0.10652 0.7286 0.2719 0.0
C1686 C 0.26128 0.63967 0.2245 0.0
C1687 C 0.24557 0.65687 0.2332 0.0
C1688 C 0.18628 0.6646 0.26061 0.0
C1689 C 0.14742 0.72115 0.25936 0.0
C1690 C 0.16707 0.70357 0.25438 0.0
C1691 C 0.22177 0.65065 0.23869 0.0
C1692 C 0.20378 0.66944 0.24494 0.0
H1693 H 0.13912 0.78041 0.27207 0.0
H1694 H 0.1699 0.75304 0.25791 0.0
H1695 H 0.15527 0.67702 0.2776 0.0
H1696 H 0.22369 0.59134 0.22471 0.0
H1697 H 0.19649 0.62094 0.24035 0.0
C1698 C 0.35817 0.13453 0.27892 0.0
C1699 C 0.36072 0.10951 0.2773 0.0
C1700 C 0.37449 0.14987 0.26885 0.0
C1701 C 0.4377 0.14995 0.25138 0.0
H1702 H 0.42171 0.21313 0.22921 0.0
C1703 C 0.50498 0.21132 0.20703 0.0
C1704 C 0.50357 0.23628 0.21026 0.0
C1705 C 0.4886 0.19585 0.21685 0.0
C1706 C 0.42648 0.19568 0.23566 0.0
H1707 H 0.38165 0.08065 0.26348 0.0
H1708 H 0.41006 0.1075 0.24518 0.0
H1709 H 0.38957 0.18562 0.23959 0.0
H1710 H 0.48468 0.26466 0.22701 0.0
H1711 H 0.45578 0.23748 0.24433 0.0
H1712 H 0.47463 0.15998 0.2472 0.0
C1713 C 0.39551 0.11533 0.25438 0.0
C1714 C 0.40805 0.17984 0.24149 0.0
C1715 C 0.37906 0.09995 0.26448 0.0
C1716 C 0.48632 0.24544 0.22449 0.0
C1717 C 0.46962 0.22993 0.23413 0.0
C1718 C 0.45612 0.16575 0.24544 0.0
C1719 C 0.39392 0.14047 0.25709 0.0
C1720 C 0.41341 0.15677 0.24946 0.0
C1721 C 0.47019 0.20503 0.2299 0.0
C1722 C 0.45072 0.18881 0.23755 0.0
H1723 H 0.34445 0.14221 0.2892 0.0
H1724 H 0.37279 0.16905 0.27153 0.0
H1725 H 0.44256 0.13257 0.25791 0.0
H1726 H 0.51808 0.20384 0.19604 0.0
H1727 H 0.48948 0.17683 0.21315 0.0
loop_
_geom_bond_atom_site_label_1
_geom_bond_atom_site_label_2
_geom_bond_distance
_geom_bond_site_symmetry_2
_ccdc_geom_bond_type
C0 C1 1.351 . S
C0 N3 1.368 . S
C0 H5 0.931 . S
C1 C0 1.351 . S
C1 N2 1.373 . S
C1 H29 0.930 . S
N2 C1 1.373 . S
N2 C4 1.340 . S
N3 C0 1.368 . S
N3 C4 1.321 . S
N3 Co6 2.135 1_655 S
C4 N2 1.340 . S
C4 N3 1.321 . S
C4 H28 0.930 1_655 S
H5 C0 0.931 . S
Co6 N3 2.135 1_455 S
Co6 N9 2.121 . S
Co6 O14 2.055 . S
Co6 O17 2.039 . S
Co6 N20 2.140 . S
C7 O8 1.227 . S
C7 O17 1.265 . S
O8 C7 1.227 . S
N9 Co6 2.121 . S
N9 C11 1.375 . S
N9 C12 1.313 . S
C10 C11 1.338 . S
C10 N13 1.377 . S
C10 H30 0.930 . S
C11 N9 1.375 . S
C11 C10 1.338 . S
C11 H15 0.931 . S
C12 N9 1.313 . S
C12 N13 1.344 . S
C12 H16 0.930 . S
N13 C10 1.377 . S
N13 C12 1.344 . S
O14 Co6 2.055 . S
O14 C18 1.253 1_455 S
H15 C11 0.931 . S
H16 C12 0.930 . S
O17 Co6 2.039 . S
O17 C7 1.265 . S
C18 O14 1.253 1_655 S
C18 O19 1.227 . S
O19 C18 1.227 . S
N20 Co6 2.140 . S
N20 C23 1.346 . S
N20 C24 1.345 . S
C21 C22 1.387 . S
C21 C25 1.391 . S
C22 C21 1.387 . S
C22 C23 1.369 . S
C22 H31 0.929 . S
C23 N20 1.346 . S
C23 C22 1.369 . S
C23 H26 0.928 . S
C24 N20 1.345 . S
C24 C25 1.371 . S
C24 H27 0.931 . S
C25 C21 1.391 . S
C25 C24 1.371 . S
C25 H32 0.930 . S
H26 C23 0.928 . S
H27 C24 0.931 . S
H28 C4 0.930 1_455 S
H29 C1 0.930 . S
H30 C10 0.930 . S
H31 C22 0.929 . S
H32 C25 0.930 . S
C33 C34 1.351 . S
C33 N36 1.368 . S
C33 H38 0.931 . S
C34 C33 1.351 . S
C34 N35 1.373 . S
C34 H62 0.930 . S
N35 C34 1.373 . S
N35 C37 1.340 . S
N36 C33 1.368 . S
N36 C37 1.321 . S
N36 Co39 2.135 1_565 S
C37 N35 1.340 . S
C37 N36 1.321 . S
C37 H61 0.930 1_565 S
H38 C33 0.931 . S
Co39 N36 2.135 1_545 S
Co39 N42 2.121 . S
Co39 O47 2.055 . S
Co39 O50 2.039 . S
Co39 N53 2.140 . S
C40 O41 1.227 . S
C40 O50 1.265 . S
O41 C40 1.227 . S
N42 Co39 2.121 . S
N42 C44 1.375 . S
N42 C45 1.313 . S
C43 C44 1.338 . S
C43 N46 1.377 . S
C43 H63 0.930 . S
C44 N42 1.375 . S
C44 C43 1.338 . S
C44 H48 0.931 . S
C45 N42 1.313 . S
C45 N46 1.344 . S
C45 H49 0.930 . S
N46 C43 1.377 . S
N46 C45 1.344 . S
O47 Co39 2.055 . S
O47 C51 1.253 1_545 S
H48 C44 0.931 . S
H49 C45 0.930 . S
O50 Co39 2.039 . S
O50 C40 1.265 . S
C51 O47 1.253 1_565 S
C51 O52 1.227 . S
O52 C51 1.227 . S
N53 Co39 2.140 . S
N53 C56 1.346 . S
N53 C57 1.345 . S
C54 C55 1.387 . S
C54 C58 1.391 . S
C55 C54 1.387 . S
C55 C56 1.369 . S
C55 H64 0.929 . S
C56 N53 1.346 . S
C56 C55 1.369 . S
C56 H59 0.928 . S
C57 N53 1.345 . S
C57 C58 1.371 . S
C57 H60 0.931 . S
C58 C54 1.391 . S
C58 C57 1.371 . S
C58 H65 0.930 . S
H59 C56 0.928 . S
H60 C57 0.931 . S
H61 C37 0.930 1_545 S
H62 C34 0.930 . S
H63 C43 0.930 . S
H64 C55 0.929 . S
H65 C58 0.930 . S
C66 C67 1.351 . S
C66 N69 1.368 . S
C66 H71 0.931 . S
C67 C66 1.351 . S
C67 N68 1.373 . S
C67 H95 0.930 . S
N68 C67 1.373 . S
N68 C70 1.340 . S
N69 C66 1.368 . S
N69 C70 1.321 . S
N69 Co72 2.135 . S
C70 N68 1.340 . S
C70 N69 1.321 . S
C70 H94 0.930 . S
H71 C66 0.931 . S
Co72 N69 2.135 . S
Co72 N75 2.121 . S
Co72 O80 2.055 . S
Co72 O83 2.039 . S
Co72 N86 2.140 . S
C73 O74 1.227 . S
C73 O83 1.265 . S
O74 C73 1.227 . S
N75 Co72 2.121 . S
N75 C77 1.375 . S
N75 C78 1.313 . S
C76 C77 1.338 1_655 S
C76 N79 1.377 1_655 S
C76 H96 0.930 . S
C77 N75 1.375 . S
C77 C76 1.338 1_455 S
C77 H81 0.931 . S
C78 N75 1.313 . S
C78 N79 1.344 . S
C78 H82 0.930 . S
N79 C76 1.377 1_455 S
N79 C78 1.344 . S
O80 Co72 2.055 . S
O80 C84 1.253 . S
H81 C77 0.931 . S
H82 C78 0.930 . S
O83 Co72 2.039 . S
O83 C73 1.265 . S
C84 O80 1.253 . S
C84 O85 1.227 . S
O85 C84 1.227 . S
N86 Co72 2.140 . S
N86 C89 1.346 . S
N86 C90 1.345 . S
C87 C88 1.387 . S
C87 C91 1.391 . S
C88 C87 1.387 . S
C88 C89 1.369 . S
C88 H97 0.929 . S
C89 N86 1.346 . S
C89 C88 1.369 . S
C89 H92 0.928 . S
C90 N86 1.345 . S
C90 C91 1.371 . S
C90 H93 0.931 . S
C91 C87 1.391 . S
C91 C90 1.371 . S
C91 H98 0.930 . S
H92 C89 0.928 . S
H93 C90 0.931 . S
H94 C70 0.930 . S
H95 C67 0.930 . S
H96 C76 0.930 . S
H97 C88 0.929 . S
H98 C91 0.930 . S
C99 C100 1.351 . S
C99 N102 1.368 . S
C99 H104 0.931 . S
C100 C99 1.351 . S
C100 N101 1.373 . S
C100 H128 0.930 . S
N101 C100 1.373 . S
N101 C103 1.340 . S
N102 C99 1.368 . S
N102 C103 1.321 . S
N102 Co105 2.135 . S
C103 N101 1.340 . S
C103 N102 1.321 . S
C103 H127 0.930 . S
H104 C99 0.931 . S
Co105 N102 2.135 . S
Co105 N108 2.121 . S
Co105 O113 2.055 . S
Co105 O116 2.039 . S
Co105 N119 2.140 . S
C106 O107 1.227 . S
C106 O116 1.265 . S
O107 C106 1.227 . S
N108 Co105 2.121 . S
N108 C110 1.375 . S
N108 C111 1.313 . S
C109 C110 1.338 1_565 S
C109 N112 1.377 1_565 S
C109 H129 0.930 . S
C110 N108 1.375 . S
C110 C109 1.338 1_545 S
C110 H114 0.931 . S
C111 N108 1.313 . S
C111 N112 1.344 . S
C111 H115 0.930 . S
N112 C109 1.377 1_545 S
N112 C111 1.344 . S
O113 Co105 2.055 . S
O113 C117 1.253 . S
H114 C110 0.931 . S
H115 C111 0.930 . S
O116 Co105 2.039 . S
O116 C106 1.265 . S
C117 O113 1.253 . S
C117 O118 1.227 . S
O118 C117 1.227 . S
N119 Co105 2.140 . S
N119 C122 1.346 . S
N119 C123 1.345 . S
C120 C121 1.387 . S
C120 C124 1.391 . S
C121 C120 1.387 . S
C121 C122 1.369 . S
C121 H130 0.929 . S
C122 N119 1.346 . S
C122 C121 1.369 . S
C122 H125 0.928 . S
C123 N119 1.345 . S
C123 C124 1.371 . S
C123 H126 0.931 . S
C124 C120 1.391 . S
C124 C123 1.371 . S
C124 H131 0.930 . S
H125 C122 0.928 . S
H126 C123 0.931 . S
H127 C103 0.930 . S
H128 C100 0.930 . S
H129 C109 0.930 . S
H130 C121 0.929 . S
H131 C124 0.930 . S
C132 C133 1.351 . S
C132 N135 1.368 . S
C132 H137 0.931 . S
C133 C132 1.351 . S
C133 N134 1.373 . S
C133 H161 0.930 . S
N134 C133 1.373 . S
N134 C136 1.340 . S
N135 C132 1.368 . S
N135 C136 1.321 . S
N135 Co138 2.135 1_655 S
C136 N134 1.340 . S
C136 N135 1.321 . S
C136 H160 0.930 1_655 S
H137 C132 0.931 . S
Co138 N135 2.135 1_455 S
Co138 N141 2.121 . S
Co138 O146 2.055 . S
Co138 O149 2.039 . S
Co138 N152 2.140 . S
C139 O140 1.227 . S
C139 O149 1.265 . S
O140 C139 1.227 . S
N141 Co138 2.121 . S
N141 C143 1.375 . S
N141 C144 1.313 . S
C142 C143 1.338 . S
C142 N145 1.377 . S
C142 H162 0.930 . S
C143 N141 1.375 . S
C143 C142 1.338 . S
C143 H147 0.931 . S
C144 N141 1.313 . S
C144 N145 1.344 . S
C144 H148 0.930 . S
N145 C142 1.377 . S
N145 C144 1.344 . S
O146 Co138 2.055 . S
O146 C150 1.253 1_455 S
H147 C143 0.931 . S
H148 C144 0.930 . S
O149 Co138 2.039 . S
O149 C139 1.265 . S
C150 O146 1.253 1_655 S
C150 O151 1.227 . S
O151 C150 1.227 . S
N152 Co138 2.140 . S
N152 C155 1.346 . S
N152 C156 1.345 . S
C153 C154 1.387 . S
C153 C157 1.391 . S
C154 C153 1.387 . S
C154 C155 1.369 . S
C154 H163 0.929 . S
C155 N152 1.346 . S
C155 C154 1.369 . S
C155 H158 0.928 . S
C156 N152 1.345 . S
C156 C157 1.371 . S
C156 H159 0.931 . S
C157 C153 1.391 . S
C157 C156 1.371 . S
C157 H164 0.930 . S
H158 C155 0.928 . S
H159 C156 0.931 . S
H160 C136 0.930 1_455 S
H161 C133 0.930 . S
H162 C142 0.930 . S
H163 C154 0.929 . S
H164 C157 0.930 . S
C165 C166 1.351 . S
C165 N168 1.368 . S
C165 H170 0.931 . S
C166 C165 1.351 . S
C166 N167 1.373 . S
C166 H194 0.930 . S
N167 C166 1.373 . S
N167 C169 1.340 . S
N168 C165 1.368 . S
N168 C169 1.321 . S
N168 Co171 2.135 1_565 S
C169 N167 1.340 . S
C169 N168 1.321 . S
C169 H193 0.930 1_565 S
H170 C165 0.931 . S
Co171 N168 2.135 1_545 S
Co171 N174 2.121 . S
Co171 O179 2.055 . S
Co171 O182 2.039 . S
Co171 N185 2.140 . S
C172 O173 1.227 . S
C172 O182 1.265 . S
O173 C172 1.227 . S
N174 Co171 2.121 . S
N174 C176 1.375 . S
N174 C177 1.313 . S
C175 C176 1.338 . S
C175 N178 1.377 . S
C175 H195 0.930 . S
C176 N174 1.375 . S
C176 C175 1.338 . S
C176 H180 0.931 . S
C177 N174 1.313 . S
C177 N178 1.344 . S
C177 H181 0.930 . S
N178 C175 1.377 . S
N178 C177 1.344 . S
O179 Co171 2.055 . S
O179 C183 1.253 1_545 S
H180 C176 0.931 . S
H181 C177 0.930 . S
O182 Co171 2.039 . S
O182 C172 1.265 . S
C183 O179 1.253 1_565 S
C183 O184 1.227 . S
O184 C183 1.227 . S
N185 Co171 2.140 . S
N185 C188 1.346 . S
N185 C189 1.345 . S
C186 C187 1.387 . S
C186 C190 1.391 . S
C187 C186 1.387 . S
C187 C188 1.369 . S
C187 H196 0.929 . S
C188 N185 1.346 . S
C188 C187 1.369 . S
C188 H191 0.928 . S
C189 N185 1.345 . S
C189 C190 1.371 . S
C189 H192 0.931 . S
C190 C186 1.391 . S
C190 C189 1.371 . S
C190 H197 0.930 . S
H191 C188 0.928 . S
H192 C189 0.931 . S
H193 C169 0.930 1_545 S
H194 C166 0.930 . S
H195 C175 0.930 . S
H196 C187 0.929 . S
H197 C190 0.930 . S
C198 C199 1.351 . S
C198 N201 1.368 . S
C198 H203 0.931 . S
C199 C198 1.351 . S
C199 N200 1.373 . S
C199 H227 0.930 . S
N200 C199 1.373 . S
N200 C202 1.340 . S
N201 C198 1.368 . S
N201 C202 1.321 . S
N201 Co204 2.135 . S
C202 N200 1.340 . S
C202 N201 1.321 . S
C202 H226 0.930 . S
H203 C198 0.931 . S
Co204 N201 2.135 . S
Co204 N207 2.121 . S
Co204 O212 2.055 . S
Co204 O215 2.039 . S
Co204 N218 2.140 . S
C205 O206 1.227 . S
C205 O215 1.265 . S
O206 C205 1.227 . S
N207 Co204 2.121 . S
N207 C209 1.375 . S
N207 C210 1.313 . S
C208 C209 1.338 1_655 S
C208 N211 1.377 1_655 S
C208 H228 0.930 . S
C209 N207 1.375 . S
C209 C208 1.338 1_455 S
C209 H213 0.931 . S
C210 N207 1.313 . S
C210 N211 1.344 . S
C210 H214 0.930 . S
N211 C208 1.377 1_455 S
N211 C210 1.344 . S
O212 Co204 2.055 . S
O212 C216 1.253 . S
H213 C209 0.931 . S
H214 C210 0.930 . S
O215 Co204 2.039 . S
O215 C205 1.265 . S
C216 O212 1.253 . S
C216 O217 1.227 . S
O217 C216 1.227 . S
N218 Co204 2.140 . S
N218 C221 1.346 . S
N218 C222 1.345 . S
C219 C220 1.387 . S
C219 C223 1.391 . S
C220 C219 1.387 . S
C220 C221 1.369 . S
C220 H229 0.929 . S
C221 N218 1.346 . S
C221 C220 1.369 . S
C221 H224 0.928 . S
C222 N218 1.345 . S
C222 C223 1.371 . S
C222 H225 0.931 . S
C223 C219 1.391 . S
C223 C222 1.371 . S
C223 H230 0.930 . S
H224 C221 0.928 . S
H225 C222 0.931 . S
H226 C202 0.930 . S
H227 C199 0.930 . S
H228 C208 0.930 . S
H229 C220 0.929 . S
H230 C223 0.930 . S
C231 C232 1.351 . S
C231 N234 1.368 . S
C231 H236 0.931 . S
C232 C231 1.351 . S
C232 N233 1.373 . S
C232 H260 0.930 . S
N233 C232 1.373 . S
N233 C235 1.340 . S
N234 C231 1.368 . S
N234 C235 1.321 . S
N234 Co237 2.135 . S
C235 N233 1.340 . S
C235 N234 1.321 . S
C235 H259 0.930 . S
H236 C231 0.931 . S
Co237 N234 2.135 . S
Co237 N240 2.121 . S
Co237 O245 2.055 . S
Co237 O248 2.039 . S
Co237 N251 2.140 . S
C238 O239 1.227 . S
C238 O248 1.265 . S
O239 C238 1.227 . S
N240 Co237 2.121 . S
N240 C242 1.375 . S
N240 C243 1.313 . S
C241 C242 1.338 1_565 S
C241 N244 1.377 1_565 S
C241 H261 0.930 . S
C242 N240 1.375 . S
C242 C241 1.338 1_545 S
C242 H246 0.931 . S
C243 N240 1.313 . S
C243 N244 1.344 . S
C243 H247 0.930 . S
N244 C241 1.377 1_545 S
N244 C243 1.344 . S
O245 Co237 2.055 . S
O245 C249 1.253 . S
H246 C242 0.931 . S
H247 C243 0.930 . S
O248 Co237 2.039 . S
O248 C238 1.265 . S
C249 O245 1.253 . S
C249 O250 1.227 . S
O250 C249 1.227 . S
N251 Co237 2.140 . S
N251 C254 1.346 . S
N251 C255 1.345 . S
C252 C253 1.387 . S
C252 C256 1.391 . S
C253 C252 1.387 . S
C253 C254 1.369 . S
C253 H262 0.929 . S
C254 N251 1.346 . S
C254 C253 1.369 . S
C254 H257 0.928 . S
C255 N251 1.345 . S
C255 C256 1.371 . S
C255 H258 0.931 . S
C256 C252 1.391 . S
C256 C255 1.371 . S
C256 H263 0.930 . S
H257 C254 0.928 . S
H258 C255 0.931 . S
H259 C235 0.930 . S
H260 C232 0.930 . S
H261 C241 0.930 . S
H262 C253 0.929 . S
H263 C256 0.930 . S
C264 C265 1.351 . S
C264 N267 1.368 . S
C264 H269 0.931 . S
C265 C264 1.351 . S
C265 N266 1.373 . S
C265 H293 0.930 . S
N266 C265 1.373 . S
N266 C268 1.340 . S
N267 C264 1.368 . S
N267 C268 1.321 . S
N267 Co270 2.135 . S
C268 N266 1.340 . S
C268 N267 1.321 . S
C268 H292 0.930 . S
H269 C264 0.931 . S
Co270 N267 2.135 . S
Co270 N273 2.121 . S
Co270 O278 2.055 . S
Co270 O281 2.039 . S
Co270 N284 2.140 . S
C271 O272 1.227 . S
C271 O281 1.265 . S
O272 C271 1.227 . S
N273 Co270 2.121 . S
N273 C275 1.375 . S
N273 C276 1.313 . S
C274 C275 1.338 . S
C274 N277 1.377 . S
C274 H294 0.930 . S
C275 N273 1.375 . S
C275 C274 1.338 . S
C275 H279 0.931 . S
C276 N273 1.313 . S
C276 N277 1.344 . S
C276 H280 0.930 . S
N277 C274 1.377 . S
N277 C276 1.344 . S
O278 Co270 2.055 . S
O278 C282 1.253 . S
H279 C275 0.931 . S
H280 C276 0.930 . S
O281 Co270 2.039 . S
O281 C271 1.265 . S
C282 O278 1.253 . S
C282 O283 1.227 . S
O283 C282 1.227 . S
N284 Co270 2.140 . S
N284 C287 1.346 . S
N284 C288 1.345 . S
C285 C286 1.387 . S
C285 C289 1.391 . S
C286 C285 1.387 . S
C286 C287 1.369 . S
C286 H295 0.929 . S
C287 N284 1.346 . S
C287 C286 1.369 . S
C287 H290 0.928 . S
C288 N284 1.345 . S
C288 C289 1.371 . S
C288 H291 0.931 . S
C289 C285 1.391 . S
C289 C288 1.371 . S
C289 H296 0.930 . S
H290 C287 0.928 . S
H291 C288 0.931 . S
H292 C268 0.930 . S
H293 C265 0.930 . S
H294 C274 0.930 . S
H295 C286 0.929 . S
H296 C289 0.930 . S
C297 C298 1.351 . S
C297 N300 1.368 . S
C297 H302 0.931 . S
C298 C297 1.351 . S
C298 N299 1.373 . S
C298 H326 0.930 . S
N299 C298 1.373 . S
N299 C301 1.340 . S
N300 C297 1.368 . S
N300 C301 1.321 . S
N300 Co303 2.135 . S
C301 N299 1.340 . S
C301 N300 1.321 . S
C301 H325 0.930 . S
H302 C297 0.931 . S
Co303 N300 2.135 . S
Co303 N306 2.121 . S
Co303 O311 2.055 . S
Co303 O314 2.039 . S
Co303 N317 2.140 . S
C304 O305 1.227 . S
C304 O314 1.265 . S
O305 C304 1.227 . S
N306 Co303 2.121 . S
N306 C308 1.375 . S
N306 C309 1.313 . S
C307 C308 1.338 . S
C307 N310 1.377 . S
C307 H327 0.930 . S
C308 N306 1.375 . S
C308 C307 1.338 . S
C308 H312 0.931 . S
C309 N306 1.313 . S
C309 N310 1.344 . S
C309 H313 0.930 . S
N310 C307 1.377 . S
N310 C309 1.344 . S
O311 Co303 2.055 . S
O311 C315 1.253 . S
H312 C308 0.931 . S
H313 C309 0.930 . S
O314 Co303 2.039 . S
O314 C304 1.265 . S
C315 O311 1.253 . S
C315 O316 1.227 . S
O316 C315 1.227 . S
N317 Co303 2.140 . S
N317 C320 1.346 . S
N317 C321 1.345 . S
C318 C319 1.387 . S
C318 C322 1.391 . S
C319 C318 1.387 . S
C319 C320 1.369 . S
C319 H328 0.929 . S
C320 N317 1.346 . S
C320 C319 1.369 . S
C320 H323 0.928 . S
C321 N317 1.345 . S
C321 C322 1.371 . S
C321 H324 0.931 . S
C322 C318 1.391 . S
C322 C321 1.371 . S
C322 H329 0.930 . S
H323 C320 0.928 . S
H324 C321 0.931 . S
H325 C301 0.930 . S
H326 C298 0.930 . S
H327 C307 0.930 . S
H328 C319 0.929 . S
H329 C322 0.930 . S
C330 C331 1.351 . S
C330 N333 1.368 . S
C330 H335 0.931 . S
C331 C330 1.351 . S
C331 N332 1.373 . S
C331 H359 0.930 . S
N332 C331 1.373 . S
N332 C334 1.340 . S
N333 C330 1.368 . S
N333 C334 1.321 . S
N333 Co336 2.135 . S
C334 N332 1.340 . S
C334 N333 1.321 . S
C334 H358 0.930 . S
H335 C330 0.931 . S
Co336 N333 2.135 . S
Co336 N339 2.121 . S
Co336 O344 2.055 . S
Co336 O347 2.039 . S
Co336 N350 2.140 . S
C337 O338 1.227 . S
C337 O347 1.265 . S
O338 C337 1.227 . S
N339 Co336 2.121 . S
N339 C341 1.375 . S
N339 C342 1.313 . S
C340 C341 1.338 . S
C340 N343 1.377 . S
C340 H360 0.930 . S
C341 N339 1.375 . S
C341 C340 1.338 . S
C341 H345 0.931 . S
C342 N339 1.313 . S
C342 N343 1.344 . S
C342 H346 0.930 . S
N343 C340 1.377 . S
N343 C342 1.344 . S
O344 Co336 2.055 . S
O344 C348 1.253 . S
H345 C341 0.931 . S
H346 C342 0.930 . S
O347 Co336 2.039 . S
O347 C337 1.265 . S
C348 O344 1.253 . S
C348 O349 1.227 . S
O349 C348 1.227 . S
N350 Co336 2.140 . S
N350 C353 1.346 . S
N350 C354 1.345 . S
C351 C352 1.387 . S
C351 C355 1.391 . S
C352 C351 1.387 . S
C352 C353 1.369 . S
C352 H361 0.929 . S
C353 N350 1.346 . S
C353 C352 1.369 . S
C353 H356 0.928 . S
C354 N350 1.345 . S
C354 C355 1.371 . S
C354 H357 0.931 . S
C355 C351 1.391 . S
C355 C354 1.371 . S
C355 H362 0.930 . S
H356 C353 0.928 . S
H357 C354 0.931 . S
H358 C334 0.930 . S
H359 C331 0.930 . S
H360 C340 0.930 . S
H361 C352 0.929 . S
H362 C355 0.930 . S
C363 C364 1.351 . S
C363 N366 1.368 . S
C363 H368 0.931 . S
C364 C363 1.351 . S
C364 N365 1.373 . S
C364 H392 0.930 . S
N365 C364 1.373 . S
N365 C367 1.340 . S
N366 C363 1.368 . S
N366 C367 1.321 . S
N366 Co369 2.135 . S
C367 N365 1.340 . S
C367 N366 1.321 . S
C367 H391 0.930 . S
H368 C363 0.931 . S
Co369 N366 2.135 . S
Co369 N372 2.121 . S
Co369 O377 2.055 . S
Co369 O380 2.039 . S
Co369 N383 2.140 . S
C370 O371 1.227 . S
C370 O380 1.265 . S
O371 C370 1.227 . S
N372 Co369 2.121 . S
N372 C374 1.375 . S
N372 C375 1.313 . S
C373 C374 1.338 . S
C373 N376 1.377 . S
C373 H393 0.930 . S
C374 N372 1.375 . S
C374 C373 1.338 . S
C374 H378 0.931 . S
C375 N372 1.313 . S
C375 N376 1.344 . S
C375 H379 0.930 . S
N376 C373 1.377 . S
N376 C375 1.344 . S
O377 Co369 2.055 . S
O377 C381 1.253 . S
H378 C374 0.931 . S
H379 C375 0.930 . S
O380 Co369 2.039 . S
O380 C370 1.265 . S
C381 O377 1.253 . S
C381 O382 1.227 . S
O382 C381 1.227 . S
N383 Co369 2.140 . S
N383 C386 1.346 . S
N383 C387 1.345 . S
C384 C385 1.387 . S
C384 C388 1.391 . S
C385 C384 1.387 . S
C385 C386 1.369 . S
C385 H394 0.929 . S
C386 N383 1.346 . S
C386 C385 1.369 . S
C386 H389 0.928 . S
C387 N383 1.345 . S
C387 C388 1.371 . S
C387 H390 0.931 . S
C388 C384 1.391 . S
C388 C387 1.371 . S
C388 H395 0.930 . S
H389 C386 0.928 . S
H390 C387 0.931 . S
H391 C367 0.930 . S
H392 C364 0.930 . S
H393 C373 0.930 . S
H394 C385 0.929 . S
H395 C388 0.930 . S
C396 C397 1.351 . S
C396 N399 1.368 . S
C396 H401 0.931 . S
C397 C396 1.351 . S
C397 N398 1.373 . S
C397 H425 0.930 . S
N398 C397 1.373 . S
N398 C400 1.340 . S
N399 C396 1.368 . S
N399 C400 1.321 . S
N399 Co402 2.135 . S
C400 N398 1.340 . S
C400 N399 1.321 . S
C400 H424 0.930 . S
H401 C396 0.931 . S
Co402 N399 2.135 . S
Co402 N405 2.121 . S
Co402 O410 2.055 . S
Co402 O413 2.039 . S
Co402 N416 2.140 . S
C403 O404 1.227 . S
C403 O413 1.265 . S
O404 C403 1.227 . S
N405 Co402 2.121 . S
N405 C407 1.375 . S
N405 C408 1.313 . S
C406 C407 1.338 . S
C406 N409 1.377 . S
C406 H426 0.930 . S
C407 N405 1.375 . S
C407 C406 1.338 . S
C407 H411 0.931 . S
C408 N405 1.313 . S
C408 N409 1.344 . S
C408 H412 0.930 . S
N409 C406 1.377 . S
N409 C408 1.344 . S
O410 Co402 2.055 . S
O410 C414 1.253 . S
H411 C407 0.931 . S
H412 C408 0.930 . S
O413 Co402 2.039 . S
O413 C403 1.265 . S
C414 O410 1.253 . S
C414 O415 1.227 . S
O415 C414 1.227 . S
N416 Co402 2.140 . S
N416 C419 1.346 . S
N416 C420 1.345 . S
C417 C418 1.387 . S
C417 C421 1.391 . S
C418 C417 1.387 . S
C418 C419 1.369 . S
C418 H427 0.929 . S
C419 N416 1.346 . S
C419 C418 1.369 . S
C419 H422 0.928 . S
C420 N416 1.345 . S
C420 C421 1.371 . S
C420 H423 0.931 . S
C421 C417 1.391 . S
C421 C420 1.371 . S
C421 H428 0.930 . S
H422 C419 0.928 . S
H423 C420 0.931 . S
H424 C400 0.930 . S
H425 C397 0.930 . S
H426 C406 0.930 . S
H427 C418 0.929 . S
H428 C421 0.930 . S
C429 C430 1.351 . S
C429 N432 1.368 . S
C429 H434 0.931 . S
C430 C429 1.351 . S
C430 N431 1.373 . S
C430 H458 0.930 . S
N431 C430 1.373 . S
N431 C433 1.340 . S
N432 C429 1.368 . S
N432 C433 1.321 . S
N432 Co435 2.135 . S
C433 N431 1.340 . S
C433 N432 1.321 . S
C433 H457 0.930 . S
H434 C429 0.931 . S
Co435 N432 2.135 . S
Co435 N438 2.121 . S
Co435 O443 2.055 . S
Co435 O446 2.039 . S
Co435 N449 2.140 . S
C436 O437 1.227 . S
C436 O446 1.265 . S
O437 C436 1.227 . S
N438 Co435 2.121 . S
N438 C440 1.375 . S
N438 C441 1.313 . S
C439 C440 1.338 . S
C439 N442 1.377 . S
C439 H459 0.930 . S
C440 N438 1.375 . S
C440 C439 1.338 . S
C440 H444 0.931 . S
C441 N438 1.313 . S
C441 N442 1.344 . S
C441 H445 0.930 . S
N442 C439 1.377 . S
N442 C441 1.344 . S
O443 Co435 2.055 . S
O443 C447 1.253 . S
H444 C440 0.931 . S
H445 C441 0.930 . S
O446 Co435 2.039 . S
O446 C436 1.265 . S
C447 O443 1.253 . S
C447 O448 1.227 . S
O448 C447 1.227 . S
N449 Co435 2.140 . S
N449 C452 1.346 . S
N449 C453 1.345 . S
C450 C451 1.387 . S
C450 C454 1.391 . S
C451 C450 1.387 . S
C451 C452 1.369 . S
C451 H460 0.929 . S
C452 N449 1.346 . S
C452 C451 1.369 . S
C452 H455 0.928 . S
C453 N449 1.345 . S
C453 C454 1.371 . S
C453 H456 0.931 . S
C454 C450 1.391 . S
C454 C453 1.371 . S
C454 H461 0.930 . S
H455 C452 0.928 . S
H456 C453 0.931 . S
H457 C433 0.930 . S
H458 C430 0.930 . S
H459 C439 0.930 . S
H460 C451 0.929 . S
H461 C454 0.930 . S
C462 C463 1.351 . S
C462 N465 1.368 . S
C462 H467 0.931 . S
C463 C462 1.351 . S
C463 N464 1.373 . S
C463 H491 0.930 . S
N464 C463 1.373 . S
N464 C466 1.340 . S
N465 C462 1.368 . S
N465 C466 1.321 . S
N465 Co468 2.135 . S
C466 N464 1.340 . S
C466 N465 1.321 . S
C466 H490 0.930 . S
H467 C462 0.931 . S
Co468 N465 2.135 . S
Co468 N471 2.121 . S
Co468 O476 2.055 . S
Co468 O479 2.039 . S
Co468 N482 2.140 . S
C469 O470 1.227 . S
C469 O479 1.265 . S
O470 C469 1.227 . S
N471 Co468 2.121 . S
N471 C473 1.375 . S
N471 C474 1.313 . S
C472 C473 1.338 . S
C472 N475 1.377 . S
C472 H492 0.930 . S
C473 N471 1.375 . S
C473 C472 1.338 . S
C473 H477 0.931 . S
C474 N471 1.313 . S
C474 N475 1.344 . S
C474 H478 0.930 . S
N475 C472 1.377 . S
N475 C474 1.344 . S
O476 Co468 2.055 . S
O476 C480 1.253 . S
H477 C473 0.931 . S
H478 C474 0.930 . S
O479 Co468 2.039 . S
O479 C469 1.265 . S
C480 O476 1.253 . S
C480 O481 1.227 . S
O481 C480 1.227 . S
N482 Co468 2.140 . S
N482 C485 1.346 . S
N482 C486 1.345 . S
C483 C484 1.387 . S
C483 C487 1.391 . S
C484 C483 1.387 . S
C484 C485 1.369 . S
C484 H493 0.929 . S
C485 N482 1.346 . S
C485 C484 1.369 . S
C485 H488 0.928 . S
C486 N482 1.345 . S
C486 C487 1.371 . S
C486 H489 0.931 . S
C487 C483 1.391 . S
C487 C486 1.371 . S
C487 H494 0.930 . S
H488 C485 0.928 . S
H489 C486 0.931 . S
H490 C466 0.930 . S
H491 C463 0.930 . S
H492 C472 0.930 . S
H493 C484 0.929 . S
H494 C487 0.930 . S
C495 C496 1.351 . S
C495 N498 1.368 . S
C495 H500 0.931 . S
C496 C495 1.351 . S
C496 N497 1.373 . S
C496 H524 0.930 . S
N497 C496 1.373 . S
N497 C499 1.340 . S
N498 C495 1.368 . S
N498 C499 1.321 . S
N498 Co501 2.135 . S
C499 N497 1.340 . S
C499 N498 1.321 . S
C499 H523 0.930 . S
H500 C495 0.931 . S
Co501 N498 2.135 . S
Co501 N504 2.121 . S
Co501 O509 2.055 . S
Co501 O512 2.039 . S
Co501 N515 2.140 . S
C502 O503 1.227 . S
C502 O512 1.265 . S
O503 C502 1.227 . S
N504 Co501 2.121 . S
N504 C506 1.375 . S
N504 C507 1.313 . S
C505 C506 1.338 . S
C505 N508 1.377 . S
C505 H525 0.930 . S
C506 N504 1.375 . S
C506 C505 1.338 . S
C506 H510 0.931 . S
C507 N504 1.313 . S
C507 N508 1.344 . S
C507 H511 0.930 . S
N508 C505 1.377 . S
N508 C507 1.344 . S
O509 Co501 2.055 . S
O509 C513 1.253 . S
H510 C506 0.931 . S
H511 C507 0.930 . S
O512 Co501 2.039 . S
O512 C502 1.265 . S
C513 O509 1.253 . S
C513 O514 1.227 . S
O514 C513 1.227 . S
N515 Co501 2.140 . S
N515 C518 1.346 . S
N515 C519 1.345 . S
C516 C517 1.387 . S
C516 C520 1.391 . S
C517 C516 1.387 . S
C517 C518 1.369 . S
C517 H526 0.929 . S
C518 N515 1.346 . S
C518 C517 1.369 . S
C518 H521 0.928 . S
C519 N515 1.345 . S
C519 C520 1.371 . S
C519 H522 0.931 . S
C520 C516 1.391 . S
C520 C519 1.371 . S
C520 H527 0.930 . S
H521 C518 0.928 . S
H522 C519 0.931 . S
H523 C499 0.930 . S
H524 C496 0.930 . S
H525 C505 0.930 . S
H526 C517 0.929 . S
H527 C520 0.930 . S
C528 C529 1.349 . S
C528 C530 1.327 . S
C528 H553 0.950 . S
C529 C528 1.349 . S
C529 C545 1.349 . S
C530 C528 1.327 . S
C530 C549 1.429 . S
C530 H554 0.950 . S
C531 C548 1.574 . S
C531 C550 1.368 . S
C531 H555 0.949 . S
H532 C536 0.949 . S
C533 C534 1.349 . S
C533 C535 1.327 . S
C533 H556 0.950 . S
C534 C533 1.349 . S
C534 C546 1.349 . S
C535 C533 1.327 . S
C535 C551 1.429 . S
C535 H557 0.950 . S
C536 H532 0.949 . S
C536 C544 1.574 . S
C536 C552 1.368 . S
H537 C545 0.950 . S
H538 C543 0.950 . S
H539 C544 0.949 . S
H540 C546 0.950 . S
H541 C547 0.950 . S
H542 C548 0.949 . S
C543 H538 0.950 . S
C543 C545 1.327 . S
C543 C549 1.429 . S
C544 C536 1.574 . S
C544 H539 0.949 . S
C544 C550 1.368 . S
C545 C529 1.349 . S
C545 H537 0.950 . S
C545 C543 1.327 . S
C546 C534 1.349 . S
C546 H540 0.950 . S
C546 C547 1.327 . S
C547 H541 0.950 . S
C547 C546 1.327 . S
C547 C551 1.429 . S
C548 C531 1.574 . S
C548 H542 0.949 . S
C548 C552 1.368 . S
C549 C530 1.429 . S
C549 C543 1.429 . S
C549 C550 1.523 . S
C550 C531 1.368 . S
C550 C544 1.368 . S
C550 C549 1.523 . S
C551 C535 1.429 . S
C551 C547 1.429 . S
C551 C552 1.523 . S
C552 C536 1.368 . S
C552 C548 1.368 . S
C552 C551 1.523 . S
H553 C528 0.950 . S
H554 C530 0.950 . S
H555 C531 0.949 . S
H556 C533 0.950 . S
H557 C535 0.950 . S
C558 C559 1.349 . S
C558 C560 1.327 . S
C558 H583 0.950 . S
C559 C558 1.349 . S
C559 C575 1.349 . S
C560 C558 1.327 . S
C560 C579 1.429 . S
C560 H584 0.950 . S
C561 C578 1.574 . S
C561 C580 1.368 . S
C561 H585 0.949 . S
H562 C566 0.949 . S
C563 C564 1.349 . S
C563 C565 1.327 . S
C563 H586 0.950 . S
C564 C563 1.349 . S
C564 C576 1.349 . S
C565 C563 1.327 . S
C565 C581 1.429 . S
C565 H587 0.950 . S
C566 H562 0.949 . S
C566 C574 1.574 . S
C566 C582 1.368 . S
H567 C575 0.950 . S
H568 C573 0.950 . S
H569 C574 0.949 . S
H570 C576 0.950 1_565 S
H571 C577 0.950 . S
H572 C578 0.949 . S
C573 H568 0.950 . S
C573 C575 1.327 . S
C573 C579 1.429 . S
C574 C566 1.574 . S
C574 H569 0.949 . S
C574 C580 1.368 . S
C575 C559 1.349 . S
C575 H567 0.950 . S
C575 C573 1.327 . S
C576 C564 1.349 . S
C576 H570 0.950 1_545 S
C576 C577 1.327 . S
C577 H571 0.950 . S
C577 C576 1.327 . S
C577 C581 1.429 . S
C578 C561 1.574 . S
C578 H572 0.949 . S
C578 C582 1.368 . S
C579 C560 1.429 . S
C579 C573 1.429 . S
C579 C580 1.523 . S
C580 C561 1.368 . S
C580 C574 1.368 . S
C580 C579 1.523 . S
C581 C565 1.429 . S
C581 C577 1.429 . S
C581 C582 1.523 . S
C582 C566 1.368 . S
C582 C578 1.368 . S
C582 C581 1.523 . S
H583 C558 0.950 . S
H584 C560 0.950 . S
H585 C561 0.949 . S
H586 C563 0.950 . S
H587 C565 0.950 . S
C588 C589 1.349 . S
C588 C590 1.327 . S
C588 H613 0.950 . S
C589 C588 1.349 . S
C589 C605 1.349 . S
C590 C588 1.327 . S
C590 C609 1.429 . S
C590 H614 0.950 . S
C591 C608 1.574 . S
C591 C610 1.368 . S
C591 H615 0.949 . S
H592 C596 0.949 . S
C593 C594 1.349 . S
C593 C595 1.327 . S
C593 H616 0.950 . S
C594 C593 1.349 . S
C594 C606 1.349 . S
C595 C593 1.327 . S
C595 C611 1.429 . S
C595 H617 0.950 . S
C596 H592 0.949 . S
C596 C604 1.574 . S
C596 C612 1.368 . S
H597 C605 0.950 . S
H598 C603 0.950 . S
H599 C604 0.949 . S
H600 C606 0.950 . S
H601 C607 0.950 . S
H602 C608 0.949 . S
C603 H598 0.950 . S
C603 C605 1.327 . S
C603 C609 1.429 . S
C604 C596 1.574 . S
C604 H599 0.949 . S
C604 C610 1.368 . S
C605 C589 1.349 . S
C605 H597 0.950 . S
C605 C603 1.327 . S
C606 C594 1.349 . S
C606 H600 0.950 . S
C606 C607 1.327 . S
C607 H601 0.950 . S
C607 C606 1.327 . S
C607 C611 1.429 . S
C608 C591 1.574 . S
C608 H602 0.949 . S
C608 C612 1.368 . S
C609 C590 1.429 . S
C609 C603 1.429 . S
C609 C610 1.523 . S
C610 C591 1.368 . S
C610 C604 1.368 . S
C610 C609 1.523 . S
C611 C595 1.429 . S
C611 C607 1.429 . S
C611 C612 1.523 . S
C612 C596 1.368 . S
C612 C608 1.368 . S
C612 C611 1.523 . S
H613 C588 0.950 . S
H614 C590 0.950 . S
H615 C591 0.949 . S
H616 C593 0.950 . S
H617 C595 0.950 . S
C618 C619 1.349 . S
C618 C620 1.327 . S
C618 H643 0.950 . S
C619 C618 1.349 . S
C619 C635 1.349 . S
C620 C618 1.327 . S
C620 C639 1.429 . S
C620 H644 0.950 . S
C621 C638 1.574 . S
C621 C640 1.368 . S
C621 H645 0.949 . S
H622 C626 0.949 . S
C623 C624 1.349 . S
C623 C625 1.327 . S
C623 H646 0.950 . S
C624 C623 1.349 . S
C624 C636 1.349 . S
C625 C623 1.327 . S
C625 C641 1.429 . S
C625 H647 0.950 . S
C626 H622 0.949 . S
C626 C634 1.574 . S
C626 C642 1.368 . S
H627 C635 0.950 . S
H628 C633 0.950 . S
H629 C634 0.949 . S
H630 C636 0.950 . S
H631 C637 0.950 . S
H632 C638 0.949 . S
C633 H628 0.950 . S
C633 C635 1.327 . S
C633 C639 1.429 . S
C634 C626 1.574 . S
C634 H629 0.949 . S
C634 C640 1.368 . S
C635 C619 1.349 . S
C635 H627 0.950 . S
C635 C633 1.327 . S
C636 C624 1.349 . S
C636 H630 0.950 . S
C636 C637 1.327 . S
C637 H631 0.950 . S
C637 C636 1.327 . S
C637 C641 1.429 . S
C638 C621 1.574 . S
C638 H632 0.949 . S
C638 C642 1.368 . S
C639 C620 1.429 . S
C639 C633 1.429 . S
C639 C640 1.523 . S
C640 C621 1.368 . S
C640 C634 1.368 . S
C640 C639 1.523 . S
C641 C625 1.429 . S
C641 C637 1.429 . S
C641 C642 1.523 . S
C642 C626 1.368 . S
C642 C638 1.368 . S
C642 C641 1.523 . S
H643 C618 0.950 . S
H644 C620 0.950 . S
H645 C621 0.949 . S
H646 C623 0.950 . S
H647 C625 0.950 . S
C648 C649 1.349 . S
C648 C650 1.327 . S
C648 H673 0.950 . S
C649 C648 1.349 . S
C649 C665 1.349 . S
C650 C648 1.327 . S
C650 C669 1.429 . S
C650 H674 0.950 . S
C651 C668 1.574 1_556 S
C651 C670 1.368 . S
C651 H675 0.949 . S
H652 C656 0.949 . S
C653 C654 1.349 . S
C653 C655 1.327 . S
C653 H676 0.950 . S
C654 C653 1.349 . S
C654 C666 1.349 . S
C655 C653 1.327 . S
C655 C671 1.429 . S
C655 H677 0.950 . S
C656 H652 0.949 . S
C656 C664 1.574 1_554 S
C656 C672 1.368 . S
H657 C665 0.950 . S
H658 C663 0.950 . S
H659 C664 0.949 . S
H660 C666 0.950 . S
H661 C667 0.950 . S
H662 C668 0.949 . S
C663 H658 0.950 . S
C663 C665 1.327 . S
C663 C669 1.429 . S
C664 C656 1.574 1_556 S
C664 H659 0.949 . S
C664 C670 1.368 . S
C665 C649 1.349 . S
C665 H657 0.950 . S
C665 C663 1.327 . S
C666 C654 1.349 . S
C666 H660 0.950 . S
C666 C667 1.327 . S
C667 H661 0.950 . S
C667 C666 1.327 . S
C667 C671 1.429 . S
C668 C651 1.574 1_554 S
C668 H662 0.949 . S
C668 C672 1.368 . S
C669 C650 1.429 . S
C669 C663 1.429 . S
C669 C670 1.523 . S
C670 C651 1.368 . S
C670 C664 1.368 . S
C670 C669 1.523 . S
C671 C655 1.429 . S
C671 C667 1.429 . S
C671 C672 1.523 . S
C672 C656 1.368 . S
C672 C668 1.368 . S
C672 C671 1.523 . S
H673 C648 0.950 . S
H674 C650 0.950 . S
H675 C651 0.949 . S
H676 C653 0.950 . S
H677 C655 0.950 . S
C678 C679 1.349 . S
C678 C680 1.327 . S
C678 H703 0.950 . S
C679 C678 1.349 . S
C679 C695 1.349 . S
C680 C678 1.327 . S
C680 C699 1.429 . S
C680 H704 0.950 . S
C681 C698 1.574 1_556 S
C681 C700 1.368 . S
C681 H705 0.949 . S
H682 C686 0.949 . S
C683 C684 1.349 . S
C683 C685 1.327 . S
C683 H706 0.950 . S
C684 C683 1.349 . S
C684 C696 1.349 . S
C685 C683 1.327 . S
C685 C701 1.429 . S
C685 H707 0.950 . S
C686 H682 0.949 . S
C686 C694 1.574 1_554 S
C686 C702 1.368 . S
H687 C695 0.950 . S
H688 C693 0.950 . S
H689 C694 0.949 . S
H690 C696 0.950 . S
H691 C697 0.950 . S
H692 C698 0.949 . S
C693 H688 0.950 . S
C693 C695 1.327 . S
C693 C699 1.429 . S
C694 C686 1.574 1_556 S
C694 H689 0.949 . S
C694 C700 1.368 . S
C695 C679 1.349 . S
C695 H687 0.950 . S
C695 C693 1.327 . S
C696 C684 1.349 . S
C696 H690 0.950 . S
C696 C697 1.327 . S
C697 H691 0.950 . S
C697 C696 1.327 . S
C697 C701 1.429 . S
C698 C681 1.574 1_554 S
C698 H692 0.949 . S
C698 C702 1.368 . S
C699 C680 1.429 . S
C699 C693 1.429 . S
C699 C700 1.523 . S
C700 C681 1.368 . S
C700 C694 1.368 . S
C700 C699 1.523 . S
C701 C685 1.429 . S
C701 C697 1.429 . S
C701 C702 1.523 . S
C702 C686 1.368 . S
C702 C698 1.368 . S
C702 C701 1.523 . S
H703 C678 0.950 . S
H704 C680 0.950 . S
H705 C681 0.949 . S
H706 C683 0.950 . S
H707 C685 0.950 . S
C708 C709 1.349 . S
C708 C710 1.327 . S
C708 H733 0.950 . S
C709 C708 1.349 . S
C709 C725 1.349 . S
C710 C708 1.327 . S
C710 C729 1.429 . S
C710 H734 0.950 . S
C711 C728 1.574 1_556 S
C711 C730 1.368 . S
C711 H735 0.949 . S
H712 C716 0.949 . S
C713 C714 1.349 . S
C713 C715 1.327 . S
C713 H736 0.950 . S
C714 C713 1.349 . S
C714 C726 1.349 . S
C715 C713 1.327 . S
C715 C731 1.429 . S
C715 H737 0.950 . S
C716 H712 0.949 . S
C716 C724 1.574 1_554 S
C716 C732 1.368 . S
H717 C725 0.950 . S
H718 C723 0.950 . S
H719 C724 0.949 . S
H720 C726 0.950 . S
H721 C727 0.950 . S
H722 C728 0.949 . S
C723 H718 0.950 . S
C723 C725 1.327 . S
C723 C729 1.429 . S
C724 C716 1.574 1_556 S
C724 H719 0.949 . S
C724 C730 1.368 . S
C725 C709 1.349 . S
C725 H717 0.950 . S
C725 C723 1.327 . S
C726 C714 1.349 . S
C726 H720 0.950 . S
C726 C727 1.327 . S
C727 H721 0.950 . S
C727 C726 1.327 . S
C727 C731 1.429 . S
C728 C711 1.574 1_554 S
C728 H722 0.949 . S
C728 C732 1.368 . S
C729 C710 1.429 . S
C729 C723 1.429 . S
C729 C730 1.523 . S
C730 C711 1.368 . S
C730 C724 1.368 . S
C730 C729 1.523 . S
C731 C715 1.429 . S
C731 C727 1.429 . S
C731 C732 1.523 . S
C732 C716 1.368 . S
C732 C728 1.368 . S
C732 C731 1.523 . S
H733 C708 0.950 . S
H734 C710 0.950 . S
H735 C711 0.949 . S
H736 C713 0.950 . S
H737 C715 0.950 . S
C738 C739 1.349 . S
C738 C740 1.327 . S
C738 H763 0.950 . S
C739 C738 1.349 . S
C739 C755 1.349 . S
C740 C738 1.327 . S
C740 C759 1.429 . S
C740 H764 0.950 . S
C741 C758 1.574 1_554 S
C741 C760 1.368 . S
C741 H765 0.949 . S
H742 C746 0.949 . S
C743 C744 1.349 . S
C743 C745 1.327 . S
C743 H766 0.950 . S
C744 C743 1.349 . S
C744 C756 1.349 . S
C745 C743 1.327 . S
C745 C761 1.429 . S
C745 H767 0.950 . S
C746 H742 0.949 . S
C746 C754 1.574 1_556 S
C746 C762 1.368 . S
H747 C755 0.950 . S
H748 C753 0.950 . S
H749 C754 0.949 . S
H750 C756 0.950 . S
H751 C757 0.950 . S
H752 C758 0.949 . S
C753 H748 0.950 . S
C753 C755 1.327 . S
C753 C759 1.429 . S
C754 C746 1.574 1_554 S
C754 H749 0.949 . S
C754 C760 1.368 . S
C755 C739 1.349 . S
C755 H747 0.950 . S
C755 C753 1.327 . S
C756 C744 1.349 . S
C756 H750 0.950 . S
C756 C757 1.327 . S
C757 H751 0.950 . S
C757 C756 1.327 . S
C757 C761 1.429 . S
C758 C741 1.574 1_556 S
C758 H752 0.949 . S
C758 C762 1.368 . S
C759 C740 1.429 . S
C759 C753 1.429 . S
C759 C760 1.523 . S
C760 C741 1.368 . S
C760 C754 1.368 . S
C760 C759 1.523 . S
C761 C745 1.429 . S
C761 C757 1.429 . S
C761 C762 1.523 . S
C762 C746 1.368 . S
C762 C758 1.368 . S
C762 C761 1.523 . S
H763 C738 0.950 . S
H764 C740 0.950 . S
H765 C741 0.949 . S
H766 C743 0.950 . S
H767 C745 0.950 . S
C768 C769 1.349 . S
C768 C770 1.327 . S
C768 H793 0.950 . S
C769 C768 1.349 . S
C769 C785 1.349 . S
C770 C768 1.327 . S
C770 C789 1.429 . S
C770 H794 0.950 . S
C771 C788 1.574 . S
C771 C790 1.368 . S
C771 H795 0.949 . S
H772 C776 0.949 . S
C773 C774 1.349 . S
C773 C775 1.327 . S
C773 H796 0.950 . S
C774 C773 1.349 . S
C774 C786 1.349 . S
C775 C773 1.327 . S
C775 C791 1.429 . S
C775 H797 0.950 . S
C776 H772 0.949 . S
C776 C784 1.574 . S
C776 C792 1.368 . S
H777 C785 0.950 . S
H778 C783 0.950 . S
H779 C784 0.949 . S
H780 C786 0.950 . S
H781 C787 0.950 . S
H782 C788 0.949 . S
C783 H778 0.950 . S
C783 C785 1.327 . S
C783 C789 1.429 . S
C784 C776 1.574 . S
C784 H779 0.949 . S
C784 C790 1.368 . S
C785 C769 1.349 . S
C785 H777 0.950 . S
C785 C783 1.327 . S
C786 C774 1.349 . S
C786 H780 0.950 . S
C786 C787 1.327 . S
C787 H781 0.950 . S
C787 C786 1.327 . S
C787 C791 1.429 . S
C788 C771 1.574 . S
C788 H782 0.949 . S
C788 C792 1.368 . S
C789 C770 1.429 . S
C789 C783 1.429 . S
C789 C790 1.523 . S
C790 C771 1.368 . S
C790 C784 1.368 . S
C790 C789 1.523 . S
C791 C775 1.429 . S
C791 C787 1.429 . S
C791 C792 1.523 . S
C792 C776 1.368 . S
C792 C788 1.368 . S
C792 C791 1.523 . S
H793 C768 0.950 . S
H794 C770 0.950 . S
H795 C771 0.949 . S
H796 C773 0.950 . S
H797 C775 0.950 . S
C798 C799 1.349 . S
C798 C800 1.327 . S
C798 H823 0.950 . S
C799 C798 1.349 . S
C799 C815 1.349 . S
C800 C798 1.327 . S
C800 C819 1.429 . S
C800 H824 0.950 . S
C801 C818 1.574 . S
C801 C820 1.368 . S
C801 H825 0.949 . S
H802 C806 0.949 . S
C803 C804 1.349 . S
C803 C805 1.327 . S
C803 H826 0.950 . S
C804 C803 1.349 . S
C804 C816 1.349 . S
C805 C803 1.327 . S
C805 C821 1.429 . S
C805 H827 0.950 . S
C806 H802 0.949 . S
C806 C814 1.574 . S
C806 C822 1.368 . S
H807 C815 0.950 . S
H808 C813 0.950 . S
H809 C814 0.949 . S
H810 C816 0.950 . S
H811 C817 0.950 . S
H812 C818 0.949 . S
C813 H808 0.950 . S
C813 C815 1.327 . S
C813 C819 1.429 . S
C814 C806 1.574 . S
C814 H809 0.949 . S
C814 C820 1.368 . S
C815 C799 1.349 . S
C815 H807 0.950 . S
C815 C813 1.327 . S
C816 C804 1.349 . S
C816 H810 0.950 . S
C816 C817 1.327 . S
C817 H811 0.950 . S
C817 C816 1.327 . S
C817 C821 1.429 . S
C818 C801 1.574 . S
C818 H812 0.949 . S
C818 C822 1.368 . S
C819 C800 1.429 . S
C819 C813 1.429 . S
C819 C820 1.523 . S
C820 C801 1.368 . S
C820 C814 1.368 . S
C820 C819 1.523 . S
C821 C805 1.429 . S
C821 C817 1.429 . S
C821 C822 1.523 . S
C822 C806 1.368 . S
C822 C818 1.368 . S
C822 C821 1.523 . S
H823 C798 0.950 . S
H824 C800 0.950 . S
H825 C801 0.949 . S
H826 C803 0.950 . S
H827 C805 0.950 . S
C828 C829 1.349 . S
C828 C830 1.327 . S
C828 H853 0.950 . S
C829 C828 1.349 . S
C829 C845 1.349 . S
C830 C828 1.327 . S
C830 C849 1.429 . S
C830 H854 0.950 . S
C831 C848 1.574 . S
C831 C850 1.368 . S
C831 H855 0.949 . S
H832 C836 0.949 . S
C833 C834 1.349 1_655 S
C833 C835 1.327 . S
C833 H856 0.950 . S
C834 C833 1.349 1_455 S
C834 C846 1.349 . S
C835 C833 1.327 . S
C835 C851 1.429 . S
C835 H857 0.950 . S
C836 H832 0.949 . S
C836 C844 1.574 . S
C836 C852 1.368 . S
H837 C845 0.950 . S
H838 C843 0.950 . S
H839 C844 0.949 . S
H840 C846 0.950 . S
H841 C847 0.950 . S
H842 C848 0.949 . S
C843 H838 0.950 . S
C843 C845 1.327 . S
C843 C849 1.429 . S
C844 C836 1.574 . S
C844 H839 0.949 . S
C844 C850 1.368 . S
C845 C829 1.349 . S
C845 H837 0.950 . S
C845 C843 1.327 . S
C846 C834 1.349 . S
C846 H840 0.950 . S
C846 C847 1.327 1_455 S
C847 H841 0.950 . S
C847 C846 1.327 1_655 S
C847 C851 1.429 . S
C848 C831 1.574 . S
C848 H842 0.949 . S
C848 C852 1.368 . S
C849 C830 1.429 . S
C849 C843 1.429 . S
C849 C850 1.523 . S
C850 C831 1.368 . S
C850 C844 1.368 . S
C850 C849 1.523 . S
C851 C835 1.429 . S
C851 C847 1.429 . S
C851 C852 1.523 . S
C852 C836 1.368 . S
C852 C848 1.368 . S
C852 C851 1.523 . S
H853 C828 0.950 . S
H854 C830 0.950 . S
H855 C831 0.949 . S
H856 C833 0.950 . S
H857 C835 0.950 . S
C858 C859 1.349 1_565 S
C858 C860 1.327 . S
C858 H883 0.950 . S
C859 C858 1.349 1_545 S
C859 C875 1.349 . S
C860 C858 1.327 . S
C860 C879 1.429 . S
C860 H884 0.950 . S
C861 C878 1.574 . S
C861 C880 1.368 . S
C861 H885 0.949 . S
H862 C866 0.949 . S
C863 C864 1.349 . S
C863 C865 1.327 . S
C863 H886 0.950 . S
C864 C863 1.349 . S
C864 C876 1.349 . S
C865 C863 1.327 . S
C865 C881 1.429 . S
C865 H887 0.950 . S
C866 H862 0.949 . S
C866 C874 1.574 . S
C866 C882 1.368 . S
H867 C875 0.950 . S
H868 C873 0.950 . S
H869 C874 0.949 . S
H870 C876 0.950 . S
H871 C877 0.950 . S
H872 C878 0.949 . S
C873 H868 0.950 . S
C873 C875 1.327 1_565 S
C873 C879 1.429 . S
C874 C866 1.574 . S
C874 H869 0.949 . S
C874 C880 1.368 . S
C875 C859 1.349 . S
C875 H867 0.950 . S
C875 C873 1.327 1_545 S
C876 C864 1.349 . S
C876 H870 0.950 . S
C876 C877 1.327 . S
C877 H871 0.950 . S
C877 C876 1.327 . S
C877 C881 1.429 . S
C878 C861 1.574 . S
C878 H872 0.949 . S
C878 C882 1.368 . S
C879 C860 1.429 . S
C879 C873 1.429 . S
C879 C880 1.523 . S
C880 C861 1.368 . S
C880 C874 1.368 . S
C880 C879 1.523 . S
C881 C865 1.429 . S
C881 C877 1.429 . S
C881 C882 1.523 . S
C882 C866 1.368 . S
C882 C878 1.368 . S
C882 C881 1.523 . S
H883 C858 0.950 . S
H884 C860 0.950 . S
H885 C861 0.949 . S
H886 C863 0.950 . S
H887 C865 0.950 . S
C888 C889 1.349 . S
C888 C890 1.327 . S
C888 H913 0.950 . S
C889 C888 1.349 . S
C889 C905 1.349 . S
C890 C888 1.327 . S
C890 C909 1.429 . S
C890 H914 0.950 . S
C891 C908 1.574 . S
C891 C910 1.368 . S
C891 H915 0.949 . S
H892 C896 0.949 . S
C893 C894 1.349 . S
C893 C895 1.327 . S
C893 H916 0.950 . S
C894 C893 1.349 . S
C894 C906 1.349 . S
C895 C893 1.327 . S
C895 C911 1.429 . S
C895 H917 0.950 . S
C896 H892 0.949 . S
C896 C904 1.574 . S
C896 C912 1.368 . S
H897 C905 0.950 . S
H898 C903 0.950 . S
H899 C904 0.949 . S
H900 C906 0.950 . S
H901 C907 0.950 . S
H902 C908 0.949 . S
C903 H898 0.950 . S
C903 C905 1.327 . S
C903 C909 1.429 . S
C904 C896 1.574 . S
C904 H899 0.949 . S
C904 C910 1.368 . S
C905 C889 1.349 . S
C905 H897 0.950 . S
C905 C903 1.327 . S
C906 C894 1.349 . S
C906 H900 0.950 . S
C906 C907 1.327 . S
C907 H901 0.950 . S
C907 C906 1.327 . S
C907 C911 1.429 . S
C908 C891 1.574 . S
C908 H902 0.949 . S
C908 C912 1.368 . S
C909 C890 1.429 . S
C909 C903 1.429 . S
C909 C910 1.523 . S
C910 C891 1.368 . S
C910 C904 1.368 . S
C910 C909 1.523 . S
C911 C895 1.429 . S
C911 C907 1.429 . S
C911 C912 1.523 . S
C912 C896 1.368 . S
C912 C908 1.368 . S
C912 C911 1.523 . S
H913 C888 0.950 . S
H914 C890 0.950 . S
H915 C891 0.949 . S
H916 C893 0.950 . S
H917 C895 0.950 . S
C918 C919 1.349 . S
C918 C920 1.327 . S
C918 H943 0.950 . S
C919 C918 1.349 . S
C919 C935 1.349 . S
C920 C918 1.327 . S
C920 C939 1.429 . S
C920 H944 0.950 . S
C921 C938 1.574 . S
C921 C940 1.368 . S
C921 H945 0.949 . S
H922 C926 0.949 . S
C923 C924 1.349 . S
C923 C925 1.327 . S
C923 H946 0.950 . S
C924 C923 1.349 . S
C924 C936 1.349 . S
C925 C923 1.327 . S
C925 C941 1.429 . S
C925 H947 0.950 . S
C926 H922 0.949 . S
C926 C934 1.574 . S
C926 C942 1.368 . S
H927 C935 0.950 . S
H928 C933 0.950 . S
H929 C934 0.949 . S
H930 C936 0.950 . S
H931 C937 0.950 . S
H932 C938 0.949 . S
C933 H928 0.950 . S
C933 C935 1.327 . S
C933 C939 1.429 . S
C934 C926 1.574 . S
C934 H929 0.949 . S
C934 C940 1.368 . S
C935 C919 1.349 . S
C935 H927 0.950 . S
C935 C933 1.327 . S
C936 C924 1.349 . S
C936 H930 0.950 . S
C936 C937 1.327 . S
C937 H931 0.950 . S
C937 C936 1.327 . S
C937 C941 1.429 . S
C938 C921 1.574 . S
C938 H932 0.949 . S
C938 C942 1.368 . S
C939 C920 1.429 . S
C939 C933 1.429 . S
C939 C940 1.523 . S
C940 C921 1.368 . S
C940 C934 1.368 . S
C940 C939 1.523 . S
C941 C925 1.429 . S
C941 C937 1.429 . S
C941 C942 1.523 . S
C942 C926 1.368 . S
C942 C938 1.368 . S
C942 C941 1.523 . S
H943 C918 0.950 . S
H944 C920 0.950 . S
H945 C921 0.949 . S
H946 C923 0.950 . S
H947 C925 0.950 . S
C948 C949 1.349 . S
C948 C950 1.327 . S
C948 H973 0.950 . S
C949 C948 1.349 . S
C949 C965 1.349 . S
C950 C948 1.327 . S
C950 C969 1.429 . S
C950 H974 0.950 . S
C951 C968 1.574 . S
C951 C970 1.368 . S
C951 H975 0.949 . S
H952 C956 0.949 . S
C953 C954 1.349 1_655 S
C953 C955 1.327 . S
C953 H976 0.950 1_655 S
C954 C953 1.349 1_455 S
C954 C966 1.349 . S
C955 C953 1.327 . S
C955 C971 1.429 . S
C955 H977 0.950 . S
C956 H952 0.949 . S
C956 C964 1.574 . S
C956 C972 1.368 . S
H957 C965 0.950 . S
H958 C963 0.950 . S
H959 C964 0.949 . S
H960 C966 0.950 . S
H961 C967 0.950 . S
H962 C968 0.949 . S
C963 H958 0.950 . S
C963 C965 1.327 . S
C963 C969 1.429 . S
C964 C956 1.574 . S
C964 H959 0.949 . S
C964 C970 1.368 . S
C965 C949 1.349 . S
C965 H957 0.950 . S
C965 C963 1.327 . S
C966 C954 1.349 . S
C966 H960 0.950 . S
C966 C967 1.327 1_455 S
C967 H961 0.950 . S
C967 C966 1.327 1_655 S
C967 C971 1.429 . S
C968 C951 1.574 . S
C968 H962 0.949 . S
C968 C972 1.368 . S
C969 C950 1.429 . S
C969 C963 1.429 . S
C969 C970 1.523 . S
C970 C951 1.368 . S
C970 C964 1.368 . S
C970 C969 1.523 . S
C971 C955 1.429 . S
C971 C967 1.429 . S
C971 C972 1.523 . S
C972 C956 1.368 . S
C972 C968 1.368 . S
C972 C971 1.523 . S
H973 C948 0.950 . S
H974 C950 0.950 . S
H975 C951 0.949 . S
H976 C953 0.950 1_455 S
H977 C955 0.950 . S
C978 C979 1.349 . S
C978 C980 1.327 . S
C978 H1003 0.950 . S
C979 C978 1.349 . S
C979 C995 1.349 . S
C980 C978 1.327 . S
C980 C999 1.429 . S
C980 H1004 0.950 . S
C981 C998 1.574 . S
C981 C1000 1.368 . S
C981 H1005 0.949 . S
H982 C986 0.949 . S
C983 C984 1.349 . S
C983 C985 1.327 1_545 S
C983 H1006 0.950 . S
C984 C983 1.349 . S
C984 C996 1.349 1_545 S
C985 C983 1.327 1_565 S
C985 C1001 1.429 . S
C985 H1007 0.950 . S
C986 H982 0.949 . S
C986 C994 1.574 . S
C986 C1002 1.368 . S
H987 C995 0.950 . S
H988 C993 0.950 . S
H989 C994 0.949 . S
H990 C996 0.950 . S
H991 C997 0.950 . S
H992 C998 0.949 . S
C993 H988 0.950 . S
C993 C995 1.327 . S
C993 C999 1.429 . S
C994 C986 1.574 . S
C994 H989 0.949 . S
C994 C1000 1.368 . S
C995 C979 1.349 . S
C995 H987 0.950 . S
C995 C993 1.327 . S
C996 C984 1.349 1_565 S
C996 H990 0.950 . S
C996 C997 1.327 . S
C997 H991 0.950 . S
C997 C996 1.327 . S
C997 C1001 1.429 . S
C998 C981 1.574 . S
C998 H992 0.949 . S
C998 C1002 1.368 . S
C999 C980 1.429 . S
C999 C993 1.429 . S
C999 C1000 1.523 . S
C1000 C981 1.368 . S
C1000 C994 1.368 . S
C1000 C999 1.523 . S
C1001 C985 1.429 . S
C1001 C997 1.429 . S
C1001 C1002 1.523 . S
C1002 C986 1.368 . S
C1002 C998 1.368 . S
C1002 C1001 1.523 . S
H1003 C978 0.950 . S
H1004 C980 0.950 . S
H1005 C981 0.949 . S
H1006 C983 0.950 . S
H1007 C985 0.950 . S
C1008 C1009 1.349 . S
C1008 C1010 1.327 . S
C1008 H1033 0.950 . S
C1009 C1008 1.349 . S
C1009 C1025 1.349 . S
C1010 C1008 1.327 . S
C1010 C1029 1.429 . S
C1010 H1034 0.950 . S
C1011 C1028 1.574 . S
C1011 C1030 1.368 . S
C1011 H1035 0.949 . S
H1012 C1016 0.949 . S
C1013 C1014 1.349 . S
C1013 C1015 1.327 . S
C1013 H1036 0.950 . S
C1014 C1013 1.349 . S
C1014 C1026 1.349 . S
C1015 C1013 1.327 . S
C1015 C1031 1.429 . S
C1015 H1037 0.950 . S
C1016 H1012 0.949 . S
C1016 C1024 1.574 . S
C1016 C1032 1.368 . S
H1017 C1025 0.950 . S
H1018 C1023 0.950 . S
H1019 C1024 0.949 . S
H1020 C1026 0.950 . S
H1021 C1027 0.950 . S
H1022 C1028 0.949 . S
C1023 H1018 0.950 . S
C1023 C1025 1.327 . S
C1023 C1029 1.429 . S
C1024 C1016 1.574 . S
C1024 H1019 0.949 . S
C1024 C1030 1.368 . S
C1025 C1009 1.349 . S
C1025 H1017 0.950 . S
C1025 C1023 1.327 . S
C1026 C1014 1.349 . S
C1026 H1020 0.950 . S
C1026 C1027 1.327 . S
C1027 H1021 0.950 . S
C1027 C1026 1.327 . S
C1027 C1031 1.429 . S
C1028 C1011 1.574 . S
C1028 H1022 0.949 . S
C1028 C1032 1.368 . S
C1029 C1010 1.429 . S
C1029 C1023 1.429 . S
C1029 C1030 1.523 . S
C1030 C1011 1.368 . S
C1030 C1024 1.368 . S
C1030 C1029 1.523 . S
C1031 C1015 1.429 . S
C1031 C1027 1.429 . S
C1031 C1032 1.523 . S
C1032 C1016 1.368 . S
C1032 C1028 1.368 . S
C1032 C1031 1.523 . S
H1033 C1008 0.950 . S
H1034 C1010 0.950 . S
H1035 C1011 0.949 . S
H1036 C1013 0.950 . S
H1037 C1015 0.950 . S
C1038 C1039 1.349 . S
C1038 C1040 1.327 . S
C1038 H1063 0.950 . S
C1039 C1038 1.349 . S
C1039 C1055 1.349 . S
C1040 C1038 1.327 . S
C1040 C1059 1.429 . S
C1040 H1064 0.950 . S
C1041 C1058 1.574 . S
C1041 C1060 1.368 . S
C1041 H1065 0.949 . S
H1042 C1046 0.949 . S
C1043 C1044 1.349 . S
C1043 C1045 1.327 . S
C1043 H1066 0.950 . S
C1044 C1043 1.349 . S
C1044 C1056 1.349 . S
C1045 C1043 1.327 . S
C1045 C1061 1.429 . S
C1045 H1067 0.950 . S
C1046 H1042 0.949 . S
C1046 C1054 1.574 . S
C1046 C1062 1.368 . S
H1047 C1055 0.950 . S
H1048 C1053 0.950 . S
H1049 C1054 0.949 . S
H1050 C1056 0.950 . S
H1051 C1057 0.950 . S
H1052 C1058 0.949 . S
C1053 H1048 0.950 . S
C1053 C1055 1.327 . S
C1053 C1059 1.429 . S
C1054 C1046 1.574 . S
C1054 H1049 0.949 . S
C1054 C1060 1.368 . S
C1055 C1039 1.349 . S
C1055 H1047 0.950 . S
C1055 C1053 1.327 . S
C1056 C1044 1.349 . S
C1056 H1050 0.950 . S
C1056 C1057 1.327 . S
C1057 H1051 0.950 . S
C1057 C1056 1.327 . S
C1057 C1061 1.429 . S
C1058 C1041 1.574 . S
C1058 H1052 0.949 . S
C1058 C1062 1.368 . S
C1059 C1040 1.429 . S
C1059 C1053 1.429 . S
C1059 C1060 1.523 . S
C1060 C1041 1.368 . S
C1060 C1054 1.368 . S
C1060 C1059 1.523 . S
C1061 C1045 1.429 . S
C1061 C1057 1.429 . S
C1061 C1062 1.523 . S
C1062 C1046 1.368 . S
C1062 C1058 1.368 . S
C1062 C1061 1.523 . S
H1063 C1038 0.950 . S
H1064 C1040 0.950 . S
H1065 C1041 0.949 . S
H1066 C1043 0.950 . S
H1067 C1045 0.950 . S
C1068 C1069 1.349 . S
C1068 C1070 1.327 . S
C1068 H1093 0.950 . S
C1069 C1068 1.349 . S
C1069 C1085 1.349 . S
C1070 C1068 1.327 . S
C1070 C1089 1.429 . S
C1070 H1094 0.950 . S
C1071 C1088 1.574 . S
C1071 C1090 1.368 . S
C1071 H1095 0.949 . S
H1072 C1076 0.949 . S
C1073 C1074 1.349 . S
C1073 C1075 1.327 . S
C1073 H1096 0.950 . S
C1074 C1073 1.349 . S
C1074 C1086 1.349 . S
C1075 C1073 1.327 . S
C1075 C1091 1.429 . S
C1075 H1097 0.950 . S
C1076 H1072 0.949 . S
C1076 C1084 1.574 . S
C1076 C1092 1.368 . S
H1077 C1085 0.950 . S
H1078 C1083 0.950 . S
H1079 C1084 0.949 . S
H1080 C1086 0.950 . S
H1081 C1087 0.950 . S
H1082 C1088 0.949 . S
C1083 H1078 0.950 . S
C1083 C1085 1.327 . S
C1083 C1089 1.429 . S
C1084 C1076 1.574 . S
C1084 H1079 0.949 . S
C1084 C1090 1.368 . S
C1085 C1069 1.349 . S
C1085 H1077 0.950 . S
C1085 C1083 1.327 . S
C1086 C1074 1.349 . S
C1086 H1080 0.950 . S
C1086 C1087 1.327 . S
C1087 H1081 0.950 . S
C1087 C1086 1.327 . S
C1087 C1091 1.429 . S
C1088 C1071 1.574 . S
C1088 H1082 0.949 . S
C1088 C1092 1.368 . S
C1089 C1070 1.429 . S
C1089 C1083 1.429 . S
C1089 C1090 1.523 . S
C1090 C1071 1.368 . S
C1090 C1084 1.368 . S
C1090 C1089 1.523 . S
C1091 C1075 1.429 . S
C1091 C1087 1.429 . S
C1091 C1092 1.523 . S
C1092 C1076 1.368 . S
C1092 C1088 1.368 . S
C1092 C1091 1.523 . S
H1093 C1068 0.950 . S
H1094 C1070 0.950 . S
H1095 C1071 0.949 . S
H1096 C1073 0.950 . S
H1097 C1075 0.950 . S
C1098 C1099 1.349 . S
C1098 C1100 1.327 . S
C1098 H1123 0.950 . S
C1099 C1098 1.349 . S
C1099 C1115 1.349 . S
C1100 C1098 1.327 . S
C1100 C1119 1.429 . S
C1100 H1124 0.950 . S
C1101 C1118 1.574 . S
C1101 C1120 1.368 . S
C1101 H1125 0.949 . S
H1102 C1106 0.949 . S
C1103 C1104 1.349 . S
C1103 C1105 1.327 . S
C1103 H1126 0.950 . S
C1104 C1103 1.349 . S
C1104 C1116 1.349 . S
C1105 C1103 1.327 . S
C1105 C1121 1.429 . S
C1105 H1127 0.950 . S
C1106 H1102 0.949 . S
C1106 C1114 1.574 . S
C1106 C1122 1.368 . S
H1107 C1115 0.950 . S
H1108 C1113 0.950 . S
H1109 C1114 0.949 . S
H1110 C1116 0.950 . S
H1111 C1117 0.950 . S
H1112 C1118 0.949 . S
C1113 H1108 0.950 . S
C1113 C1115 1.327 . S
C1113 C1119 1.429 . S
C1114 C1106 1.574 . S
C1114 H1109 0.949 . S
C1114 C1120 1.368 . S
C1115 C1099 1.349 . S
C1115 H1107 0.950 . S
C1115 C1113 1.327 . S
C1116 C1104 1.349 . S
C1116 H1110 0.950 . S
C1116 C1117 1.327 . S
C1117 H1111 0.950 . S
C1117 C1116 1.327 . S
C1117 C1121 1.429 . S
C1118 C1101 1.574 . S
C1118 H1112 0.949 . S
C1118 C1122 1.368 . S
C1119 C1100 1.429 . S
C1119 C1113 1.429 . S
C1119 C1120 1.523 . S
C1120 C1101 1.368 . S
C1120 C1114 1.368 . S
C1120 C1119 1.523 . S
C1121 C1105 1.429 . S
C1121 C1117 1.429 . S
C1121 C1122 1.523 . S
C1122 C1106 1.368 . S
C1122 C1118 1.368 . S
C1122 C1121 1.523 . S
H1123 C1098 0.950 . S
H1124 C1100 0.950 . S
H1125 C1101 0.949 . S
H1126 C1103 0.950 . S
H1127 C1105 0.950 . S
C1128 C1129 1.349 . S
C1128 C1130 1.327 . S
C1128 H1153 0.950 . S
C1129 C1128 1.349 . S
C1129 C1145 1.349 . S
C1130 C1128 1.327 . S
C1130 C1149 1.429 . S
C1130 H1154 0.950 . S
C1131 C1148 1.574 . S
C1131 C1150 1.368 . S
C1131 H1155 0.949 . S
H1132 C1136 0.949 . S
C1133 C1134 1.349 . S
C1133 C1135 1.327 . S
C1133 H1156 0.950 . S
C1134 C1133 1.349 . S
C1134 C1146 1.349 . S
C1135 C1133 1.327 . S
C1135 C1151 1.429 . S
C1135 H1157 0.950 . S
C1136 H1132 0.949 . S
C1136 C1144 1.574 . S
C1136 C1152 1.368 . S
H1137 C1145 0.950 . S
H1138 C1143 0.950 . S
H1139 C1144 0.949 . S
H1140 C1146 0.950 . S
H1141 C1147 0.950 . S
H1142 C1148 0.949 . S
C1143 H1138 0.950 . S
C1143 C1145 1.327 . S
C1143 C1149 1.429 . S
C1144 C1136 1.574 . S
C1144 H1139 0.949 . S
C1144 C1150 1.368 . S
C1145 C1129 1.349 . S
C1145 H1137 0.950 . S
C1145 C1143 1.327 . S
C1146 C1134 1.349 . S
C1146 H1140 0.950 . S
C1146 C1147 1.327 . S
C1147 H1141 0.950 . S
C1147 C1146 1.327 . S
C1147 C1151 1.429 . S
C1148 C1131 1.574 . S
C1148 H1142 0.949 . S
C1148 C1152 1.368 . S
C1149 C1130 1.429 . S
C1149 C1143 1.429 . S
C1149 C1150 1.523 . S
C1150 C1131 1.368 . S
C1150 C1144 1.368 . S
C1150 C1149 1.523 . S
C1151 C1135 1.429 . S
C1151 C1147 1.429 . S
C1151 C1152 1.523 . S
C1152 C1136 1.368 . S
C1152 C1148 1.368 . S
C1152 C1151 1.523 . S
H1153 C1128 0.950 . S
H1154 C1130 0.950 . S
H1155 C1131 0.949 . S
H1156 C1133 0.950 . S
H1157 C1135 0.950 . S
C1158 C1159 1.349 . S
C1158 C1160 1.327 . S
C1158 H1183 0.950 . S
C1159 C1158 1.349 . S
C1159 C1175 1.349 . S
C1160 C1158 1.327 . S
C1160 C1179 1.429 . S
C1160 H1184 0.950 . S
C1161 C1178 1.574 . S
C1161 C1180 1.368 . S
C1161 H1185 0.949 . S
H1162 C1166 0.949 . S
C1163 C1164 1.349 . S
C1163 C1165 1.327 . S
C1163 H1186 0.950 . S
C1164 C1163 1.349 . S
C1164 C1176 1.349 . S
C1165 C1163 1.327 . S
C1165 C1181 1.429 . S
C1165 H1187 0.950 . S
C1166 H1162 0.949 . S
C1166 C1174 1.574 . S
C1166 C1182 1.368 . S
H1167 C1175 0.950 . S
H1168 C1173 0.950 . S
H1169 C1174 0.949 . S
H1170 C1176 0.950 . S
H1171 C1177 0.950 . S
H1172 C1178 0.949 . S
C1173 H1168 0.950 . S
C1173 C1175 1.327 . S
C1173 C1179 1.429 . S
C1174 C1166 1.574 . S
C1174 H1169 0.949 . S
C1174 C1180 1.368 . S
C1175 C1159 1.349 . S
C1175 H1167 0.950 . S
C1175 C1173 1.327 . S
C1176 C1164 1.349 . S
C1176 H1170 0.950 . S
C1176 C1177 1.327 . S
C1177 H1171 0.950 . S
C1177 C1176 1.327 . S
C1177 C1181 1.429 . S
C1178 C1161 1.574 . S
C1178 H1172 0.949 . S
C1178 C1182 1.368 . S
C1179 C1160 1.429 . S
C1179 C1173 1.429 . S
C1179 C1180 1.523 . S
C1180 C1161 1.368 . S
C1180 C1174 1.368 . S
C1180 C1179 1.523 . S
C1181 C1165 1.429 . S
C1181 C1177 1.429 . S
C1181 C1182 1.523 . S
C1182 C1166 1.368 . S
C1182 C1178 1.368 . S
C1182 C1181 1.523 . S
H1183 C1158 0.950 . S
H1184 C1160 0.950 . S
H1185 C1161 0.949 . S
H1186 C1163 0.950 . S
H1187 C1165 0.950 . S
C1188 C1189 1.349 . S
C1188 C1190 1.327 . S
C1188 H1213 0.950 . S
C1189 C1188 1.349 . S
C1189 C1205 1.349 . S
C1190 C1188 1.327 . S
C1190 C1209 1.429 . S
C1190 H1214 0.950 . S
C1191 C1208 1.574 . S
C1191 C1210 1.368 . S
C1191 H1215 0.949 . S
H1192 C1196 0.949 . S
C1193 C1194 1.349 . S
C1193 C1195 1.327 . S
C1193 H1216 0.950 . S
C1194 C1193 1.349 . S
C1194 C1206 1.349 . S
C1195 C1193 1.327 . S
C1195 C1211 1.429 . S
C1195 H1217 0.950 . S
C1196 H1192 0.949 . S
C1196 C1204 1.574 . S
C1196 C1212 1.368 . S
H1197 C1205 0.950 . S
H1198 C1203 0.950 . S
H1199 C1204 0.949 . S
H1200 C1206 0.950 . S
H1201 C1207 0.950 . S
H1202 C1208 0.949 . S
C1203 H1198 0.950 . S
C1203 C1205 1.327 . S
C1203 C1209 1.429 . S
C1204 C1196 1.574 . S
C1204 H1199 0.949 . S
C1204 C1210 1.368 . S
C1205 C1189 1.349 . S
C1205 H1197 0.950 . S
C1205 C1203 1.327 . S
C1206 C1194 1.349 . S
C1206 H1200 0.950 . S
C1206 C1207 1.327 . S
C1207 H1201 0.950 . S
C1207 C1206 1.327 . S
C1207 C1211 1.429 . S
C1208 C1191 1.574 . S
C1208 H1202 0.949 . S
C1208 C1212 1.368 . S
C1209 C1190 1.429 . S
C1209 C1203 1.429 . S
C1209 C1210 1.523 . S
C1210 C1191 1.368 . S
C1210 C1204 1.368 . S
C1210 C1209 1.523 . S
C1211 C1195 1.429 . S
C1211 C1207 1.429 . S
C1211 C1212 1.523 . S
C1212 C1196 1.368 . S
C1212 C1208 1.368 . S
C1212 C1211 1.523 . S
H1213 C1188 0.950 . S
H1214 C1190 0.950 . S
H1215 C1191 0.949 . S
H1216 C1193 0.950 . S
H1217 C1195 0.950 . S
C1218 C1219 1.349 . S
C1218 C1220 1.327 . S
C1218 H1243 0.950 . S
C1219 C1218 1.349 . S
C1219 C1235 1.349 . S
C1220 C1218 1.327 . S
C1220 C1239 1.429 . S
C1220 H1244 0.950 . S
C1221 C1238 1.574 . S
C1221 C1240 1.368 . S
C1221 H1245 0.949 . S
H1222 C1226 0.949 . S
C1223 C1224 1.349 . S
C1223 C1225 1.327 . S
C1223 H1246 0.950 . S
C1224 C1223 1.349 . S
C1224 C1236 1.349 . S
C1225 C1223 1.327 . S
C1225 C1241 1.429 . S
C1225 H1247 0.950 . S
C1226 H1222 0.949 . S
C1226 C1234 1.574 . S
C1226 C1242 1.368 . S
H1227 C1235 0.950 . S
H1228 C1233 0.950 . S
H1229 C1234 0.949 . S
H1230 C1236 0.950 . S
H1231 C1237 0.950 . S
H1232 C1238 0.949 . S
C1233 H1228 0.950 . S
C1233 C1235 1.327 . S
C1233 C1239 1.429 . S
C1234 C1226 1.574 . S
C1234 H1229 0.949 . S
C1234 C1240 1.368 . S
C1235 C1219 1.349 . S
C1235 H1227 0.950 . S
C1235 C1233 1.327 . S
C1236 C1224 1.349 . S
C1236 H1230 0.950 . S
C1236 C1237 1.327 . S
C1237 H1231 0.950 . S
C1237 C1236 1.327 . S
C1237 C1241 1.429 . S
C1238 C1221 1.574 . S
C1238 H1232 0.949 . S
C1238 C1242 1.368 . S
C1239 C1220 1.429 . S
C1239 C1233 1.429 . S
C1239 C1240 1.523 . S
C1240 C1221 1.368 . S
C1240 C1234 1.368 . S
C1240 C1239 1.523 . S
C1241 C1225 1.429 . S
C1241 C1237 1.429 . S
C1241 C1242 1.523 . S
C1242 C1226 1.368 . S
C1242 C1238 1.368 . S
C1242 C1241 1.523 . S
H1243 C1218 0.950 . S
H1244 C1220 0.950 . S
H1245 C1221 0.949 . S
H1246 C1223 0.950 . S
H1247 C1225 0.950 . S
C1248 C1249 1.349 . S
C1248 C1250 1.327 . S
C1248 H1273 0.950 . S
C1249 C1248 1.349 . S
C1249 C1265 1.349 . S
C1250 C1248 1.327 . S
C1250 C1269 1.429 . S
C1250 H1274 0.950 . S
C1251 C1268 1.574 . S
C1251 C1270 1.368 . S
C1251 H1275 0.949 . S
H1252 C1256 0.949 . S
C1253 C1254 1.349 . S
C1253 C1255 1.327 . S
C1253 H1276 0.950 . S
C1254 C1253 1.349 . S
C1254 C1266 1.349 . S
C1255 C1253 1.327 . S
C1255 C1271 1.429 . S
C1255 H1277 0.950 . S
C1256 H1252 0.949 . S
C1256 C1264 1.574 . S
C1256 C1272 1.368 . S
H1257 C1265 0.950 . S
H1258 C1263 0.950 . S
H1259 C1264 0.949 . S
H1260 C1266 0.950 . S
H1261 C1267 0.950 . S
H1262 C1268 0.949 . S
C1263 H1258 0.950 . S
C1263 C1265 1.327 . S
C1263 C1269 1.429 . S
C1264 C1256 1.574 . S
C1264 H1259 0.949 . S
C1264 C1270 1.368 . S
C1265 C1249 1.349 . S
C1265 H1257 0.950 . S
C1265 C1263 1.327 . S
C1266 C1254 1.349 . S
C1266 H1260 0.950 . S
C1266 C1267 1.327 . S
C1267 H1261 0.950 . S
C1267 C1266 1.327 . S
C1267 C1271 1.429 . S
C1268 C1251 1.574 . S
C1268 H1262 0.949 . S
C1268 C1272 1.368 . S
C1269 C1250 1.429 . S
C1269 C1263 1.429 . S
C1269 C1270 1.523 . S
C1270 C1251 1.368 . S
C1270 C1264 1.368 . S
C1270 C1269 1.523 . S
C1271 C1255 1.429 . S
C1271 C1267 1.429 . S
C1271 C1272 1.523 . S
C1272 C1256 1.368 . S
C1272 C1268 1.368 . S
C1272 C1271 1.523 . S
H1273 C1248 0.950 . S
H1274 C1250 0.950 . S
H1275 C1251 0.949 . S
H1276 C1253 0.950 . S
H1277 C1255 0.950 . S
C1278 C1279 1.349 . S
C1278 C1280 1.327 . S
C1278 H1303 0.950 . S
C1279 C1278 1.349 . S
C1279 C1295 1.349 . S
C1280 C1278 1.327 . S
C1280 C1299 1.429 . S
C1280 H1304 0.950 . S
C1281 C1298 1.574 . S
C1281 C1300 1.368 . S
C1281 H1305 0.949 . S
H1282 C1286 0.949 . S
C1283 C1284 1.349 . S
C1283 C1285 1.327 . S
C1283 H1306 0.950 . S
C1284 C1283 1.349 . S
C1284 C1296 1.349 . S
C1285 C1283 1.327 . S
C1285 C1301 1.429 . S
C1285 H1307 0.950 . S
C1286 H1282 0.949 . S
C1286 C1294 1.574 . S
C1286 C1302 1.368 . S
H1287 C1295 0.950 . S
H1288 C1293 0.950 . S
H1289 C1294 0.949 . S
H1290 C1296 0.950 . S
H1291 C1297 0.950 . S
H1292 C1298 0.949 . S
C1293 H1288 0.950 . S
C1293 C1295 1.327 . S
C1293 C1299 1.429 . S
C1294 C1286 1.574 . S
C1294 H1289 0.949 . S
C1294 C1300 1.368 . S
C1295 C1279 1.349 . S
C1295 H1287 0.950 . S
C1295 C1293 1.327 . S
C1296 C1284 1.349 . S
C1296 H1290 0.950 . S
C1296 C1297 1.327 . S
C1297 H1291 0.950 . S
C1297 C1296 1.327 . S
C1297 C1301 1.429 . S
C1298 C1281 1.574 . S
C1298 H1292 0.949 . S
C1298 C1302 1.368 . S
C1299 C1280 1.429 . S
C1299 C1293 1.429 . S
C1299 C1300 1.523 . S
C1300 C1281 1.368 . S
C1300 C1294 1.368 . S
C1300 C1299 1.523 . S
C1301 C1285 1.429 . S
C1301 C1297 1.429 . S
C1301 C1302 1.523 . S
C1302 C1286 1.368 . S
C1302 C1298 1.368 . S
C1302 C1301 1.523 . S
H1303 C1278 0.950 . S
H1304 C1280 0.950 . S
H1305 C1281 0.949 . S
H1306 C1283 0.950 . S
H1307 C1285 0.950 . S
C1308 C1309 1.349 . S
C1308 C1310 1.327 . S
C1308 H1333 0.950 . S
C1309 C1308 1.349 . S
C1309 C1325 1.349 . S
C1310 C1308 1.327 . S
C1310 C1329 1.429 . S
C1310 H1334 0.950 . S
C1311 C1328 1.574 . S
C1311 C1330 1.368 . S
C1311 H1335 0.949 . S
H1312 C1316 0.949 . S
C1313 C1314 1.349 . S
C1313 C1315 1.315 1_455 S
C1313 H1336 0.963 . S
C1314 C1313 1.349 . S
C1314 C1326 1.330 1_455 S
C1315 C1313 1.315 1_655 S
C1315 C1331 1.429 . S
C1315 H1337 0.950 . S
C1316 H1312 0.949 . S
C1316 C1324 1.574 . S
C1316 C1332 1.368 . S
H1317 C1325 0.950 . S
H1318 C1323 0.950 . S
H1319 C1324 0.949 . S
H1320 C1326 0.950 . S
H1321 C1327 0.950 . S
H1322 C1328 0.949 . S
C1323 H1318 0.950 . S
C1323 C1325 1.327 . S
C1323 C1329 1.429 . S
C1324 C1316 1.574 . S
C1324 H1319 0.949 . S
C1324 C1330 1.368 . S
C1325 C1309 1.349 . S
C1325 H1317 0.950 . S
C1325 C1323 1.327 . S
C1326 C1314 1.330 1_655 S
C1326 H1320 0.950 . S
C1326 C1327 1.327 . S
C1327 H1321 0.950 . S
C1327 C1326 1.327 . S
C1327 C1331 1.429 . S
C1328 C1311 1.574 . S
C1328 H1322 0.949 . S
C1328 C1332 1.368 . S
C1329 C1310 1.429 . S
C1329 C1323 1.429 . S
C1329 C1330 1.523 . S
C1330 C1311 1.368 . S
C1330 C1324 1.368 . S
C1330 C1329 1.523 . S
C1331 C1315 1.429 . S
C1331 C1327 1.429 . S
C1331 C1332 1.523 . S
C1332 C1316 1.368 . S
C1332 C1328 1.368 . S
C1332 C1331 1.523 . S
H1333 C1308 0.950 . S
H1334 C1310 0.950 . S
H1335 C1311 0.949 . S
H1336 C1313 0.963 . S
H1337 C1315 0.950 . S
C1338 C1339 1.318 1_565 S
C1338 C1340 1.327 . S
C1338 H1363 0.950 . S
C1339 C1338 1.318 1_545 S
C1339 C1355 1.361 . S
C1340 C1338 1.327 . S
C1340 C1359 1.429 . S
C1340 H1364 0.950 . S
C1341 C1358 1.574 . S
C1341 C1360 1.368 . S
C1341 H1365 0.949 . S
H1342 C1346 0.949 . S
C1343 C1344 1.349 . S
C1343 C1345 1.327 . S
C1343 H1366 0.950 . S
C1344 C1343 1.349 . S
C1344 C1356 1.349 . S
C1345 C1343 1.327 . S
C1345 C1361 1.429 . S
C1345 H1367 0.950 . S
C1346 H1342 0.949 . S
C1346 C1354 1.574 . S
C1346 C1362 1.368 . S
H1347 C1355 0.950 . S
H1348 C1353 0.950 1_545 S
H1349 C1354 0.949 . S
H1350 C1356 0.950 . S
H1351 C1357 0.950 . S
H1352 C1358 0.949 . S
C1353 H1348 0.950 1_565 S
C1353 C1355 1.327 1_565 S
C1353 C1359 1.429 . S
C1354 C1346 1.574 . S
C1354 H1349 0.949 . S
C1354 C1360 1.368 . S
C1355 C1339 1.361 . S
C1355 H1347 0.950 . S
C1355 C1353 1.327 1_545 S
C1356 C1344 1.349 . S
C1356 H1350 0.950 . S
C1356 C1357 1.327 . S
C1357 H1351 0.950 . S
C1357 C1356 1.327 . S
C1357 C1361 1.429 . S
C1358 C1341 1.574 . S
C1358 H1352 0.949 . S
C1358 C1362 1.368 . S
C1359 C1340 1.429 . S
C1359 C1353 1.429 . S
C1359 C1360 1.523 . S
C1360 C1341 1.368 . S
C1360 C1354 1.368 . S
C1360 C1359 1.523 . S
C1361 C1345 1.429 . S
C1361 C1357 1.429 . S
C1361 C1362 1.523 . S
C1362 C1346 1.368 . S
C1362 C1358 1.368 . S
C1362 C1361 1.523 . S
H1363 C1338 0.950 . S
H1364 C1340 0.950 . S
H1365 C1341 0.949 . S
H1366 C1343 0.950 . S
H1367 C1345 0.950 . S
C1368 C1369 1.349 . S
C1368 C1370 1.327 . S
C1368 H1393 0.950 . S
C1369 C1368 1.349 . S
C1369 C1385 1.349 . S
C1370 C1368 1.327 . S
C1370 C1389 1.429 . S
C1370 H1394 0.950 . S
C1371 C1388 1.574 . S
C1371 C1390 1.368 . S
C1371 H1395 0.949 . S
H1372 C1376 0.949 . S
C1373 C1374 1.349 . S
C1373 C1375 1.327 . S
C1373 H1396 0.950 . S
C1374 C1373 1.349 . S
C1374 C1386 1.349 . S
C1375 C1373 1.327 . S
C1375 C1391 1.429 . S
C1375 H1397 0.950 . S
C1376 H1372 0.949 . S
C1376 C1384 1.574 . S
C1376 C1392 1.368 . S
H1377 C1385 0.950 . S
H1378 C1383 0.950 . S
H1379 C1384 0.949 . S
H1380 C1386 0.950 . S
H1381 C1387 0.950 . S
H1382 C1388 0.949 . S
C1383 H1378 0.950 . S
C1383 C1385 1.327 . S
C1383 C1389 1.429 . S
C1384 C1376 1.574 . S
C1384 H1379 0.949 . S
C1384 C1390 1.368 . S
C1385 C1369 1.349 . S
C1385 H1377 0.950 . S
C1385 C1383 1.327 . S
C1386 C1374 1.349 . S
C1386 H1380 0.950 . S
C1386 C1387 1.327 . S
C1387 H1381 0.950 . S
C1387 C1386 1.327 . S
C1387 C1391 1.429 . S
C1388 C1371 1.574 . S
C1388 H1382 0.949 . S
C1388 C1392 1.368 . S
C1389 C1370 1.429 . S
C1389 C1383 1.429 . S
C1389 C1390 1.523 . S
C1390 C1371 1.368 . S
C1390 C1384 1.368 . S
C1390 C1389 1.523 . S
C1391 C1375 1.429 . S
C1391 C1387 1.429 . S
C1391 C1392 1.523 . S
C1392 C1376 1.368 . S
C1392 C1388 1.368 . S
C1392 C1391 1.523 . S
H1393 C1368 0.950 . S
H1394 C1370 0.950 . S
H1395 C1371 0.949 . S
H1396 C1373 0.950 . S
H1397 C1375 0.950 . S
C1398 C1399 1.349 . S
C1398 C1400 1.327 . S
C1398 H1423 0.950 . S
C1399 C1398 1.349 . S
C1399 C1415 1.349 . S
C1400 C1398 1.327 . S
C1400 C1419 1.429 . S
C1400 H1424 0.950 . S
C1401 C1418 1.574 . S
C1401 C1420 1.368 . S
C1401 H1425 0.949 . S
H1402 C1406 0.949 . S
C1403 C1404 1.349 . S
C1403 C1405 1.327 . S
C1403 H1426 0.950 . S
C1404 C1403 1.349 . S
C1404 C1416 1.349 . S
C1405 C1403 1.327 . S
C1405 C1421 1.429 . S
C1405 H1427 0.950 . S
C1406 H1402 0.949 . S
C1406 C1414 1.574 . S
C1406 C1422 1.368 . S
H1407 C1415 0.950 . S
H1408 C1413 0.950 . S
H1409 C1414 0.949 . S
H1410 C1416 0.950 . S
H1411 C1417 0.950 . S
H1412 C1418 0.949 . S
C1413 H1408 0.950 . S
C1413 C1415 1.327 . S
C1413 C1419 1.429 . S
C1414 C1406 1.574 . S
C1414 H1409 0.949 . S
C1414 C1420 1.368 . S
C1415 C1399 1.349 . S
C1415 H1407 0.950 . S
C1415 C1413 1.327 . S
C1416 C1404 1.349 . S
C1416 H1410 0.950 . S
C1416 C1417 1.327 . S
C1417 H1411 0.950 . S
C1417 C1416 1.327 . S
C1417 C1421 1.429 . S
C1418 C1401 1.574 . S
C1418 H1412 0.949 . S
C1418 C1422 1.368 . S
C1419 C1400 1.429 . S
C1419 C1413 1.429 . S
C1419 C1420 1.523 . S
C1420 C1401 1.368 . S
C1420 C1414 1.368 . S
C1420 C1419 1.523 . S
C1421 C1405 1.429 . S
C1421 C1417 1.429 . S
C1421 C1422 1.523 . S
C1422 C1406 1.368 . S
C1422 C1418 1.368 . S
C1422 C1421 1.523 . S
H1423 C1398 0.950 . S
H1424 C1400 0.950 . S
H1425 C1401 0.949 . S
H1426 C1403 0.950 . S
H1427 C1405 0.950 . S
C1428 C1429 1.355 . S
C1428 C1430 1.327 1_455 S
C1428 H1453 0.950 . S
C1429 C1428 1.355 . S
C1429 C1445 1.324 1_455 S
C1430 C1428 1.327 1_655 S
C1430 C1449 1.429 . S
C1430 H1454 0.950 . S
C1431 C1448 1.574 . S
C1431 C1450 1.368 . S
C1431 H1455 0.949 . S
H1432 C1436 0.949 . S
C1433 C1434 1.349 . S
C1433 C1435 1.327 . S
C1433 H1456 0.950 . S
C1434 C1433 1.349 . S
C1434 C1446 1.349 . S
C1435 C1433 1.327 . S
C1435 C1451 1.429 . S
C1435 H1457 0.950 . S
C1436 H1432 0.949 . S
C1436 C1444 1.574 . S
C1436 C1452 1.368 . S
H1437 C1445 0.950 . S
H1438 C1443 0.950 . S
H1439 C1444 0.949 . S
H1440 C1446 0.950 . S
H1441 C1447 0.950 . S
H1442 C1448 0.949 . S
C1443 H1438 0.950 . S
C1443 C1445 1.327 . S
C1443 C1449 1.429 . S
C1444 C1436 1.574 . S
C1444 H1439 0.949 . S
C1444 C1450 1.368 . S
C1445 C1429 1.324 1_655 S
C1445 H1437 0.950 . S
C1445 C1443 1.327 . S
C1446 C1434 1.349 . S
C1446 H1440 0.950 . S
C1446 C1447 1.327 . S
C1447 H1441 0.950 . S
C1447 C1446 1.327 . S
C1447 C1451 1.429 . S
C1448 C1431 1.574 . S
C1448 H1442 0.949 . S
C1448 C1452 1.368 . S
C1449 C1430 1.429 . S
C1449 C1443 1.429 . S
C1449 C1450 1.523 . S
C1450 C1431 1.368 . S
C1450 C1444 1.368 . S
C1450 C1449 1.523 . S
C1451 C1435 1.429 . S
C1451 C1447 1.429 . S
C1451 C1452 1.523 . S
C1452 C1436 1.368 . S
C1452 C1448 1.368 . S
C1452 C1451 1.523 . S
H1453 C1428 0.950 . S
H1454 C1430 0.950 . S
H1455 C1431 0.949 . S
H1456 C1433 0.950 . S
H1457 C1435 0.950 . S
C1458 C1459 1.349 . S
C1458 C1460 1.327 . S
C1458 H1483 0.950 . S
C1459 C1458 1.349 . S
C1459 C1475 1.349 . S
C1460 C1458 1.327 . S
C1460 C1479 1.429 . S
C1460 H1484 0.950 . S
C1461 C1478 1.574 . S
C1461 C1480 1.368 . S
C1461 H1485 0.949 . S
H1462 C1466 0.949 . S
C1463 C1464 1.359 . S
C1463 C1465 1.327 1_545 S
C1463 H1486 0.950 . S
C1464 C1463 1.359 . S
C1464 C1476 1.319 1_545 S
C1465 C1463 1.327 1_565 S
C1465 C1481 1.429 . S
C1465 H1487 0.950 1_565 S
C1466 H1462 0.949 . S
C1466 C1474 1.574 . S
C1466 C1482 1.368 . S
H1467 C1475 0.950 . S
H1468 C1473 0.950 . S
H1469 C1474 0.949 . S
H1470 C1476 0.950 . S
H1471 C1477 0.950 . S
H1472 C1478 0.949 . S
C1473 H1468 0.950 . S
C1473 C1475 1.327 . S
C1473 C1479 1.429 . S
C1474 C1466 1.574 . S
C1474 H1469 0.949 . S
C1474 C1480 1.368 . S
C1475 C1459 1.349 . S
C1475 H1467 0.950 . S
C1475 C1473 1.327 . S
C1476 C1464 1.319 1_565 S
C1476 H1470 0.950 . S
C1476 C1477 1.327 . S
C1477 H1471 0.950 . S
C1477 C1476 1.327 . S
C1477 C1481 1.429 . S
C1478 C1461 1.574 . S
C1478 H1472 0.949 . S
C1478 C1482 1.368 . S
C1479 C1460 1.429 . S
C1479 C1473 1.429 . S
C1479 C1480 1.523 . S
C1480 C1461 1.368 . S
C1480 C1474 1.368 . S
C1480 C1479 1.523 . S
C1481 C1465 1.429 . S
C1481 C1477 1.429 . S
C1481 C1482 1.523 . S
C1482 C1466 1.368 . S
C1482 C1478 1.368 . S
C1482 C1481 1.523 . S
H1483 C1458 0.950 . S
H1484 C1460 0.950 . S
H1485 C1461 0.949 . S
H1486 C1463 0.950 . S
H1487 C1465 0.950 1_545 S
C1488 C1489 1.349 . S
C1488 C1490 1.327 . S
C1488 H1513 0.950 . S
C1489 C1488 1.349 . S
C1489 C1505 1.349 . S
C1490 C1488 1.327 . S
C1490 C1509 1.429 . S
C1490 H1514 0.950 . S
C1491 C1508 1.574 . S
C1491 C1510 1.368 . S
C1491 H1515 0.949 . S
H1492 C1496 0.949 . S
C1493 C1494 1.349 . S
C1493 C1495 1.327 . S
C1493 H1516 0.950 . S
C1494 C1493 1.349 . S
C1494 C1506 1.349 . S
C1495 C1493 1.327 . S
C1495 C1511 1.429 . S
C1495 H1517 0.950 . S
C1496 H1492 0.949 . S
C1496 C1504 1.574 . S
C1496 C1512 1.368 . S
H1497 C1505 0.950 . S
H1498 C1503 0.950 . S
H1499 C1504 0.949 . S
H1500 C1506 0.950 . S
H1501 C1507 0.950 . S
H1502 C1508 0.949 . S
C1503 H1498 0.950 . S
C1503 C1505 1.327 . S
C1503 C1509 1.429 . S
C1504 C1496 1.574 . S
C1504 H1499 0.949 . S
C1504 C1510 1.368 . S
C1505 C1489 1.349 . S
C1505 H1497 0.950 . S
C1505 C1503 1.327 . S
C1506 C1494 1.349 . S
C1506 H1500 0.950 . S
C1506 C1507 1.327 . S
C1507 H1501 0.950 . S
C1507 C1506 1.327 . S
C1507 C1511 1.429 . S
C1508 C1491 1.574 . S
C1508 H1502 0.949 . S
C1508 C1512 1.368 . S
C1509 C1490 1.429 . S
C1509 C1503 1.429 . S
C1509 C1510 1.523 . S
C1510 C1491 1.368 . S
C1510 C1504 1.368 . S
C1510 C1509 1.523 . S
C1511 C1495 1.429 . S
C1511 C1507 1.429 . S
C1511 C1512 1.523 . S
C1512 C1496 1.368 . S
C1512 C1508 1.368 . S
C1512 C1511 1.523 . S
H1513 C1488 0.950 . S
H1514 C1490 0.950 . S
H1515 C1491 0.949 . S
H1516 C1493 0.950 . S
H1517 C1495 0.950 . S
C1518 C1519 1.349 . S
C1518 C1520 1.327 . S
C1518 H1543 0.950 . S
C1519 C1518 1.349 . S
C1519 C1535 1.349 . S
C1520 C1518 1.327 . S
C1520 C1539 1.429 . S
C1520 H1544 0.950 . S
C1521 C1538 1.574 . S
C1521 C1540 1.368 . S
C1521 H1545 0.949 . S
H1522 C1526 0.949 . S
C1523 C1524 1.349 . S
C1523 C1525 1.327 . S
C1523 H1546 0.950 . S
C1524 C1523 1.349 . S
C1524 C1536 1.349 . S
C1525 C1523 1.327 . S
C1525 C1541 1.429 . S
C1525 H1547 0.950 . S
C1526 H1522 0.949 . S
C1526 C1534 1.574 . S
C1526 C1542 1.368 . S
H1527 C1535 0.950 . S
H1528 C1533 0.950 . S
H1529 C1534 0.949 . S
H1530 C1536 0.950 . S
H1531 C1537 0.950 . S
H1532 C1538 0.949 . S
C1533 H1528 0.950 . S
C1533 C1535 1.327 . S
C1533 C1539 1.429 . S
C1534 C1526 1.574 . S
C1534 H1529 0.949 . S
C1534 C1540 1.368 . S
C1535 C1519 1.349 . S
C1535 H1527 0.950 . S
C1535 C1533 1.327 . S
C1536 C1524 1.349 . S
C1536 H1530 0.950 . S
C1536 C1537 1.327 . S
C1537 H1531 0.950 . S
C1537 C1536 1.327 . S
C1537 C1541 1.429 . S
C1538 C1521 1.574 . S
C1538 H1532 0.949 . S
C1538 C1542 1.368 . S
C1539 C1520 1.429 . S
C1539 C1533 1.429 . S
C1539 C1540 1.523 . S
C1540 C1521 1.368 . S
C1540 C1534 1.368 . S
C1540 C1539 1.523 . S
C1541 C1525 1.429 . S
C1541 C1537 1.429 . S
C1541 C1542 1.523 . S
C1542 C1526 1.368 . S
C1542 C1538 1.368 . S
C1542 C1541 1.523 . S
H1543 C1518 0.950 . S
H1544 C1520 0.950 . S
H1545 C1521 0.949 . S
H1546 C1523 0.950 . S
H1547 C1525 0.950 . S
C1548 C1549 1.349 . S
C1548 C1550 1.327 . S
C1548 H1573 0.950 . S
C1549 C1548 1.349 . S
C1549 C1565 1.349 . S
C1550 C1548 1.327 . S
C1550 C1569 1.429 . S
C1550 H1574 0.950 . S
C1551 C1568 1.574 . S
C1551 C1570 1.368 . S
C1551 H1575 0.949 . S
H1552 C1556 0.949 . S
C1553 C1554 1.349 . S
C1553 C1555 1.327 . S
C1553 H1576 0.950 . S
C1554 C1553 1.349 . S
C1554 C1566 1.349 . S
C1555 C1553 1.327 . S
C1555 C1571 1.429 . S
C1555 H1577 0.950 . S
C1556 H1552 0.949 . S
C1556 C1564 1.574 . S
C1556 C1572 1.368 . S
H1557 C1565 0.950 . S
H1558 C1563 0.950 . S
H1559 C1564 0.949 . S
H1560 C1566 0.950 . S
H1561 C1567 0.950 . S
H1562 C1568 0.949 . S
C1563 H1558 0.950 . S
C1563 C1565 1.327 . S
C1563 C1569 1.429 . S
C1564 C1556 1.574 . S
C1564 H1559 0.949 . S
C1564 C1570 1.368 . S
C1565 C1549 1.349 . S
C1565 H1557 0.950 . S
C1565 C1563 1.327 . S
C1566 C1554 1.349 . S
C1566 H1560 0.950 . S
C1566 C1567 1.327 . S
C1567 H1561 0.950 . S
C1567 C1566 1.327 . S
C1567 C1571 1.429 . S
C1568 C1551 1.574 . S
C1568 H1562 0.949 . S
C1568 C1572 1.368 . S
C1569 C1550 1.429 . S
C1569 C1563 1.429 . S
C1569 C1570 1.523 . S
C1570 C1551 1.368 . S
C1570 C1564 1.368 . S
C1570 C1569 1.523 . S
C1571 C1555 1.429 . S
C1571 C1567 1.429 . S
C1571 C1572 1.523 . S
C1572 C1556 1.368 . S
C1572 C1568 1.368 . S
C1572 C1571 1.523 . S
H1573 C1548 0.950 . S
H1574 C1550 0.950 . S
H1575 C1551 0.949 . S
H1576 C1553 0.950 . S
H1577 C1555 0.950 . S
C1578 C1579 1.349 . S
C1578 C1580 1.327 . S
C1578 H1603 0.950 . S
C1579 C1578 1.349 . S
C1579 C1595 1.349 . S
C1580 C1578 1.327 . S
C1580 C1599 1.429 . S
C1580 H1604 0.950 . S
C1581 C1598 1.574 . S
C1581 C1600 1.368 . S
C1581 H1605 0.949 . S
H1582 C1586 0.949 . S
C1583 C1584 1.349 . S
C1583 C1585 1.327 . S
C1583 H1606 0.950 . S
C1584 C1583 1.349 . S
C1584 C1596 1.349 . S
C1585 C1583 1.327 . S
C1585 C1601 1.429 . S
C1585 H1607 0.950 . S
C1586 H1582 0.949 . S
C1586 C1594 1.574 . S
C1586 C1602 1.368 . S
H1587 C1595 0.950 . S
H1588 C1593 0.950 . S
H1589 C1594 0.949 . S
H1590 C1596 0.950 . S
H1591 C1597 0.950 . S
H1592 C1598 0.949 . S
C1593 H1588 0.950 . S
C1593 C1595 1.327 . S
C1593 C1599 1.429 . S
C1594 C1586 1.574 . S
C1594 H1589 0.949 . S
C1594 C1600 1.368 . S
C1595 C1579 1.349 . S
C1595 H1587 0.950 . S
C1595 C1593 1.327 . S
C1596 C1584 1.349 . S
C1596 H1590 0.950 . S
C1596 C1597 1.327 . S
C1597 H1591 0.950 . S
C1597 C1596 1.327 . S
C1597 C1601 1.429 . S
C1598 C1581 1.574 . S
C1598 H1592 0.949 . S
C1598 C1602 1.368 . S
C1599 C1580 1.429 . S
C1599 C1593 1.429 . S
C1599 C1600 1.523 . S
C1600 C1581 1.368 . S
C1600 C1594 1.368 . S
C1600 C1599 1.523 . S
C1601 C1585 1.429 . S
C1601 C1597 1.429 . S
C1601 C1602 1.523 . S
C1602 C1586 1.368 . S
C1602 C1598 1.368 . S
C1602 C1601 1.523 . S
H1603 C1578 0.950 . S
H1604 C1580 0.950 . S
H1605 C1581 0.949 . S
H1606 C1583 0.950 . S
H1607 C1585 0.950 . S
C1608 C1609 1.349 . S
C1608 C1610 1.327 . S
C1608 H1633 0.950 . S
C1609 C1608 1.349 . S
C1609 C1625 1.349 . S
C1610 C1608 1.327 . S
C1610 C1629 1.429 . S
C1610 H1634 0.950 . S
C1611 C1628 1.574 . S
C1611 C1630 1.368 . S
C1611 H1635 0.949 . S
H1612 C1616 0.949 . S
C1613 C1614 1.349 . S
C1613 C1615 1.327 . S
C1613 H1636 0.950 . S
C1614 C1613 1.349 . S
C1614 C1626 1.349 . S
C1615 C1613 1.327 . S
C1615 C1631 1.429 . S
C1615 H1637 0.950 . S
C1616 H1612 0.949 . S
C1616 C1624 1.574 . S
C1616 C1632 1.368 . S
H1617 C1625 0.950 . S
H1618 C1623 0.950 . S
H1619 C1624 0.949 . S
H1620 C1626 0.950 . S
H1621 C1627 0.950 . S
H1622 C1628 0.949 . S
C1623 H1618 0.950 . S
C1623 C1625 1.327 . S
C1623 C1629 1.429 . S
C1624 C1616 1.574 . S
C1624 H1619 0.949 . S
C1624 C1630 1.368 . S
C1625 C1609 1.349 . S
C1625 H1617 0.950 . S
C1625 C1623 1.327 . S
C1626 C1614 1.349 . S
C1626 H1620 0.950 . S
C1626 C1627 1.327 . S
C1627 H1621 0.950 . S
C1627 C1626 1.327 . S
C1627 C1631 1.429 . S
C1628 C1611 1.574 . S
C1628 H1622 0.949 . S
C1628 C1632 1.368 . S
C1629 C1610 1.429 . S
C1629 C1623 1.429 . S
C1629 C1630 1.523 . S
C1630 C1611 1.368 . S
C1630 C1624 1.368 . S
C1630 C1629 1.523 . S
C1631 C1615 1.429 . S
C1631 C1627 1.429 . S
C1631 C1632 1.523 . S
C1632 C1616 1.368 . S
C1632 C1628 1.368 . S
C1632 C1631 1.523 . S
H1633 C1608 0.950 . S
H1634 C1610 0.950 . S
H1635 C1611 0.949 . S
H1636 C1613 0.950 . S
H1637 C1615 0.950 . S
C1638 C1639 1.349 . S
C1638 C1640 1.327 . S
C1638 H1663 0.950 . S
C1639 C1638 1.349 . S
C1639 C1655 1.349 . S
C1640 C1638 1.327 . S
C1640 C1659 1.429 . S
C1640 H1664 0.950 . S
C1641 C1658 1.574 . S
C1641 C1660 1.368 . S
C1641 H1665 0.949 . S
H1642 C1646 0.949 . S
C1643 C1644 1.349 . S
C1643 C1645 1.327 . S
C1643 H1666 0.954 1_565 S
C1644 C1643 1.349 . S
C1644 C1656 1.349 . S
C1645 C1643 1.327 . S
C1645 C1661 1.429 . S
C1645 H1667 0.950 . S
C1646 H1642 0.949 . S
C1646 C1654 1.574 . S
C1646 C1662 1.368 . S
H1647 C1655 0.950 . S
H1648 C1653 0.950 . S
H1649 C1654 0.949 . S
H1650 C1656 0.950 . S
H1651 C1657 0.950 . S
H1652 C1658 0.949 . S
C1653 H1648 0.950 . S
C1653 C1655 1.327 . S
C1653 C1659 1.429 . S
C1654 C1646 1.574 . S
C1654 H1649 0.949 . S
C1654 C1660 1.368 . S
C1655 C1639 1.349 . S
C1655 H1647 0.950 . S
C1655 C1653 1.327 . S
C1656 C1644 1.349 . S
C1656 H1650 0.950 . S
C1656 C1657 1.327 . S
C1657 H1651 0.950 . S
C1657 C1656 1.327 . S
C1657 C1661 1.429 . S
C1658 C1641 1.574 . S
C1658 H1652 0.949 . S
C1658 C1662 1.368 . S
C1659 C1640 1.429 . S
C1659 C1653 1.429 . S
C1659 C1660 1.523 . S
C1660 C1641 1.368 . S
C1660 C1654 1.368 . S
C1660 C1659 1.523 . S
C1661 C1645 1.429 . S
C1661 C1657 1.429 . S
C1661 C1662 1.523 . S
C1662 C1646 1.368 . S
C1662 C1658 1.368 . S
C1662 C1661 1.523 . S
H1663 C1638 0.950 . S
H1664 C1640 0.950 . S
H1665 C1641 0.949 . S
H1666 C1643 0.954 1_545 S
H1667 C1645 0.950 . S
C1668 C1669 1.349 . S
C1668 C1670 1.327 . S
C1668 H1693 0.950 . S
C1669 C1668 1.349 . S
C1669 C1685 1.349 . S
C1670 C1668 1.327 . S
C1670 C1689 1.429 . S
C1670 H1694 0.950 . S
C1671 C1688 1.574 . S
C1671 C1690 1.368 . S
C1671 H1695 0.949 . S
H1672 C1676 0.949 . S
C1673 C1674 1.349 . S
C1673 C1675 1.327 . S
C1673 H1696 0.950 . S
C1674 C1673 1.349 . S
C1674 C1686 1.349 . S
C1675 C1673 1.327 . S
C1675 C1691 1.429 . S
C1675 H1697 0.950 . S
C1676 H1672 0.949 . S
C1676 C1684 1.574 . S
C1676 C1692 1.368 . S
H1677 C1685 0.950 . S
H1678 C1683 0.950 . S
H1679 C1684 0.949 . S
H1680 C1686 0.950 . S
H1681 C1687 0.950 . S
H1682 C1688 0.949 . S
C1683 H1678 0.950 . S
C1683 C1685 1.327 . S
C1683 C1689 1.429 . S
C1684 C1676 1.574 . S
C1684 H1679 0.949 . S
C1684 C1690 1.368 . S
C1685 C1669 1.349 . S
C1685 H1677 0.950 . S
C1685 C1683 1.327 . S
C1686 C1674 1.349 . S
C1686 H1680 0.950 . S
C1686 C1687 1.327 . S
C1687 H1681 0.950 . S
C1687 C1686 1.327 . S
C1687 C1691 1.429 . S
C1688 C1671 1.574 . S
C1688 H1682 0.949 . S
C1688 C1692 1.368 . S
C1689 C1670 1.429 . S
C1689 C1683 1.429 . S
C1689 C1690 1.523 . S
C1690 C1671 1.368 . S
C1690 C1684 1.368 . S
C1690 C1689 1.523 . S
C1691 C1675 1.429 . S
C1691 C1687 1.429 . S
C1691 C1692 1.523 . S
C1692 C1676 1.368 . S
C1692 C1688 1.368 . S
C1692 C1691 1.523 . S
H1693 C1668 0.950 . S
H1694 C1670 0.950 . S
H1695 C1671 0.949 . S
H1696 C1673 0.950 . S
H1697 C1675 0.950 . S
C1698 C1699 1.349 . S
C1698 C1700 1.327 . S
C1698 H1723 0.950 . S
C1699 C1698 1.349 . S
C1699 C1715 1.349 . S
C1700 C1698 1.327 . S
C1700 C1719 1.429 . S
C1700 H1724 0.950 . S
C1701 C1718 1.574 . S
C1701 C1720 1.368 . S
C1701 H1725 0.949 . S
H1702 C1706 0.949 . S
C1703 C1704 1.349 . S
C1703 C1705 1.327 . S
C1703 H1726 0.950 . S
C1704 C1703 1.349 . S
C1704 C1716 1.349 . S
C1705 C1703 1.327 . S
C1705 C1721 1.429 . S
C1705 H1727 0.950 . S
C1706 H1702 0.949 . S
C1706 C1714 1.574 . S
C1706 C1722 1.368 . S
H1707 C1715 0.950 . S
H1708 C1713 0.950 . S
H1709 C1714 0.949 . S
H1710 C1716 0.950 . S
H1711 C1717 0.950 . S
H1712 C1718 0.949 . S
C1713 H1708 0.950 . S
C1713 C1715 1.327 . S
C1713 C1719 1.429 . S
C1714 C1706 1.574 . S
C1714 H1709 0.949 . S
C1714 C1720 1.368 . S
C1715 C1699 1.349 . S
C1715 H1707 0.950 . S
C1715 C1713 1.327 . S
C1716 C1704 1.349 . S
C1716 H1710 0.950 . S
C1716 C1717 1.327 . S
C1717 H1711 0.950 . S
C1717 C1716 1.327 . S
C1717 C1721 1.429 . S
C1718 C1701 1.574 . S
C1718 H1712 0.949 . S
C1718 C1722 1.368 . S
C1719 C1700 1.429 . S
C1719 C1713 1.429 . S
C1719 C1720 1.523 . S
C1720 C1701 1.368 . S
C1720 C1714 1.368 . S
C1720 C1719 1.523 . S
C1721 C1705 1.429 . S
C1721 C1717 1.429 . S
C1721 C1722 1.523 . S
C1722 C1706 1.368 . S
C1722 C1718 1.368 . S
C1722 C1721 1.523 . S
H1723 C1698 0.950 . S
H1724 C1700 0.950 . S
H1725 C1701 0.949 . S
H1726 C1703 0.950 . S
H1727 C1705 0.950 . S
C529 C21 1.434 . S
C534 C219 1.434 . S
C559 C252 1.434 . S
C564 C54 1.434 . S
C589 C153 1.434 . S
C594 C87 1.434 . S
C619 C186 1.434 . S
C624 C120 1.434 . S
C649 C285 1.435 . S
C654 C483 1.435 . S
C679 C318 1.434 . S
C684 C516 1.434 . S
C709 C351 1.434 . S
C714 C417 1.434 . S
C739 C450 1.434 . S
C744 C384 1.434 . S
C769 C7 1.368 . S
C774 N101 1.360 . S
C799 C40 1.368 . S
C804 N2 1.360 . S
C829 N35 1.360 . S
C834 C73 1.368 . S
C859 C106 1.368 . S
C864 N68 1.360 . S
C889 N167 1.360 . S
C894 C139 1.368 . S
C919 N200 1.360 . S
C924 C172 1.368 . S
C949 N233 1.360 . S
C954 C205 1.368 . S
C979 N134 1.360 . S
C984 C238 1.368 . S
C1009 C271 1.368 . S
C1014 N365 1.360 . S
C1039 N266 1.360 . S
C1044 C304 1.368 . S
C1069 C337 1.368 . S
C1074 N299 1.360 . S
C1099 C370 1.368 . S
C1104 N332 1.360 . S
C1129 C403 1.368 . S
C1134 N431 1.360 . S
C1159 C436 1.368 . S
C1164 N464 1.360 . S
C1189 C469 1.368 . S
C1194 N497 1.360 . S
C1219 N398 1.360 . S
C1224 C502 1.368 . S
C1249 N508 1.254 . S
C1254 N13 1.254 . S
C1279 N46 1.254 . S
C1284 N409 1.254 . S
C1309 N442 1.254 . S
C1314 N79 1.268 . S
C1339 N112 1.267 . S
C1344 N475 1.254 . S
C1369 N310 1.254 . S
C1374 N145 1.254 . S
C1399 N178 1.254 . S
C1404 N343 1.254 . S
C1429 N211 1.268 . S
C1434 N376 1.254 . S
C1459 N277 1.254 . S
C1464 N244 1.268 . S
C1489 C150 1.341 . S
C1494 C381 1.341 . S
C1519 C183 1.342 . S
C1524 C282 1.342 . S
C1549 C216 1.342 . S
C1554 C315 1.342 . S
C1579 C348 1.341 . S
C1584 C249 1.341 . S
C1609 C18 1.342 . S
C1614 C447 1.342 . S
C1639 C480 1.341 . S
C1644 C51 1.341 . S
C1669 C84 1.341 . S
C1674 C513 1.341 . S
C1699 C117 1.341 . S
C1704 C414 1.342 . S
