# Generated by pormake.
# Topology umx, (4)-cn, num edge types: 1
# Building blocks:
#     Node 0, Type 0, BuildingBlock: ICAMEG_clean_sbu_1, # of connection points: 4
#     Node 1, Type 0, BuildingBlock: ICAMEG_clean_sbu_1, # of connection points: 4
#     Node 2, Type 0, BuildingBlock: ICAMEG_clean_sbu_1, # of connection points: 4
#     Node 3, Type 0, BuildingBlock: ICAMEG_clean_sbu_1, # of connection points: 4
#     Node 4, Type 0, BuildingBlock: ICAMEG_clean_sbu_1, # of connection points: 4
#     Node 5, Type 0, BuildingBlock: ICAMEG_clean_sbu_1, # of connection points: 4
#     Node 6, Type 0, BuildingBlock: ICAMEG_clean_sbu_1, # of connection points: 4
#     Node 7, Type 0, BuildingBlock: ICAMEG_clean_sbu_1, # of connection points: 4
#     Edge 8, Type (0, 0), BuildingBlock: CIFDUS_clean_linker_0, # of connection points: 2
#     Edge 9, Type (0, 0), BuildingBlock: CIFDUS_clean_linker_0, # of connection points: 2
#     Edge 10, Type (0, 0), BuildingBlock: CIFDUS_clean_linker_0, # of connection points: 2
#     Edge 11, Type (0, 0), BuildingBlock: CIFDUS_clean_linker_0, # of connection points: 2
#     Edge 12, Type (0, 0), BuildingBlock: CIFDUS_clean_linker_0, # of connection points: 2
#     Edge 13, Type (0, 0), BuildingBlock: CIFDUS_clean_linker_0, # of connection points: 2
#     Edge 14, Type (0, 0), BuildingBlock: CIFDUS_clean_linker_0, # of connection points: 2
#     Edge 15, Type (0, 0), BuildingBlock: CIFDUS_clean_linker_0, # of connection points: 2
#     Edge 16, Type (0, 0), BuildingBlock: CIFDUS_clean_linker_0, # of connection points: 2
#     Edge 17, Type (0, 0), BuildingBlock: CIFDUS_clean_linker_0, # of connection points: 2
#     Edge 18, Type (0, 0), BuildingBlock: CIFDUS_clean_linker_0, # of connection points: 2
#     Edge 19, Type (0, 0), BuildingBlock: CIFDUS_clean_linker_0, # of connection points: 2
#     Edge 20, Type (0, 0), BuildingBlock: CIFDUS_clean_linker_0, # of connection points: 2
#     Edge 21, Type (0, 0), BuildingBlock: CIFDUS_clean_linker_0, # of connection points: 2
#     Edge 22, Type (0, 0), BuildingBlock: CIFDUS_clean_linker_0, # of connection points: 2
#     Edge 23, Type (0, 0), BuildingBlock: CIFDUS_clean_linker_0, # of connection points: 2
# Relax obj value: 0.034
# Max RMSD: 0.111
# Mean RMSD: 0.111
data_MOF--net-umx--node1-ICAMEG_clean_sbu_1--edge1-CIFDUS_clean_linker_0
_symmetry_space_group_name_H-M    P1
_symmetry_Int_Tables_number       1
_symmetry_cell_setting            triclinic
loop_
_symmetry_equiv_pos_as_xyz
'x, y, z'
_cell_length_a     36.835727
_cell_length_b     36.79784
_cell_length_c     26.704163
_cell_angle_alpha  90.006014
_cell_angle_beta   89.948016
_cell_angle_gamma 90.175259
loop_
_atom_site_label
_atom_site_type_symbol
_atom_site_fract_x
_atom_site_fract_y
_atom_site_fract_z
_atom_type_partial_charge
Co0 Co 0.17779 0.49039 0.02957 0.0
Co1 Co 0.16295 0.40097 0.06454 0.0
O2 O 0.18559 0.43799 0.02218 0.0
C3 C 0.15846 0.47353 0.92399 0.0
O4 O 0.14055 0.44565 0.94228 0.0
C5 C 0.24221 0.38087 0.06081 0.0
O6 O 0.25148 0.41533 0.0611 0.0
O7 O 0.179 0.4271 0.12629 0.0
O8 O 0.18031 0.48633 0.10525 0.0
H9 H 0.08732 0.35708 0.20913 0.0
H10 H 0.23607 0.46459 0.9617 0.0
O11 O 0.17481 0.49533 0.95376 0.0
H12 H 0.29812 0.53848 0.08994 0.0
H13 H 0.19546 0.62159 0.98187 0.0
H14 H 0.13444 0.5368 0.09781 0.0
H15 H 0.23162 0.53054 0.09209 0.0
H16 H 0.20504 0.55546 0.97458 0.0
O17 O 0.2089 0.37164 0.06407 0.0
H18 H 0.1153 0.40302 0.15387 0.0
H19 H 0.16371 0.31974 0.06649 0.0
H20 H 0.1243 0.60271 0.10669 0.0
H21 H 0.30258 0.47215 0.9578 0.0
H22 H 0.15493 0.6456 0.04843 0.0
H23 H 0.33404 0.50922 0.02236 0.0
O24 O 0.12417 0.4839 0.03263 0.0
H25 H 0.17998 0.34921 0.89193 0.0
H26 H 0.09358 0.36666 0.0308 0.0
H27 H 0.07312 0.33598 0.9537 0.0
H28 H 0.11654 0.32698 0.88359 0.0
H29 H 0.199 0.3804 0.96931 0.0
H30 H 0.13652 0.27292 0.12104 0.0
H31 H 0.09789 0.29149 0.19285 0.0
O32 O 0.11582 0.42817 0.06512 0.0
C33 C 0.18189 0.46073 0.1378 0.0
C34 C 0.10402 0.34864 0.17788 0.0
C35 C 0.13169 0.30141 0.1285 0.0
N36 N 0.14095 0.36409 0.10685 0.0
C37 C 0.11986 0.37452 0.14639 0.0
C38 C 0.14712 0.32806 0.09783 0.0
C39 C 0.10999 0.31185 0.16876 0.0
C40 C 0.24953 0.48109 0.9896 0.0
N41 N 0.22998 0.4972 0.02696 0.0
C42 C 0.28721 0.48513 0.98734 0.0
C43 C 0.30485 0.50588 0.02363 0.0
C44 C 0.28472 0.52226 0.0616 0.0
C45 C 0.24709 0.51757 0.06272 0.0
C46 C 0.18199 0.60318 0.00752 0.0
C47 C 0.14802 0.5553 0.0725 0.0
C48 C 0.18725 0.56571 1.0035 0.0
N49 N 0.17046 0.54234 0.03592 0.0
C50 C 0.1421 0.59259 0.07763 0.0
C51 C 0.15927 0.61663 0.04489 0.0
C52 C 0.10386 0.45883 0.05019 0.0
C53 C 0.1608 0.35296 0.92221 0.0
C54 C 0.11243 0.36331 1.00024 0.0
C55 C 0.1008 0.34567 0.95679 0.0
C56 C 0.12519 0.34056 0.91751 0.0
N57 N 0.14733 0.37558 1.00449 0.0
C58 C 0.17146 0.37048 0.96622 0.0
Co59 Co 0.50871 0.19082 0.5197 0.0
Co60 Co 0.59242 0.16535 0.5664 0.0
O61 O 0.5617 0.19057 0.51829 0.0
C62 C 0.52862 0.16161 0.4213 0.0
O63 O 0.55295 0.14213 0.44492 0.0
C64 C 0.61841 0.24231 0.56598 0.0
O65 O 0.58435 0.2526 0.56796 0.0
O66 O 0.56437 0.18583 0.62375 0.0
O67 O 0.50858 0.19769 0.59385 0.0
H68 H 0.61758 0.0894 0.71866 0.0
H69 H 0.54786 0.23985 0.44988 0.0
O70 O 0.5079 0.18308 0.4454 0.0
H71 H 0.47714 0.32054 0.56023 0.0
H72 H 0.38531 0.22376 0.45323 0.0
H73 H 0.45213 0.15888 0.58567 0.0
H74 H 0.4736 0.25395 0.57002 0.0
H75 H 0.45229 0.22338 0.4538 0.0
O76 O 0.62625 0.20855 0.56741 0.0
H77 H 0.57897 0.12042 0.65659 0.0
H78 H 0.67254 0.15841 0.57945 0.0
H79 H 0.38518 0.15878 0.58678 0.0
H80 H 0.55205 0.30627 0.43859 0.0
H81 H 0.35131 0.1914 0.52019 0.0
H82 H 0.5166 0.34709 0.49413 0.0
O83 O 0.50668 0.13736 0.52955 0.0
H84 H 0.6581 0.17103 0.40146 0.0
H85 H 0.61878 0.09127 0.53971 0.0
H86 H 0.65183 0.065 0.46804 0.0
H87 H 0.67179 0.10502 0.39828 0.0
H88 H 0.62454 0.19604 0.47351 0.0
H89 H 0.71218 0.12801 0.64085 0.0
H90 H 0.6847 0.09309 0.71097 0.0
O91 O 0.55959 0.12137 0.56523 0.0
C92 C 0.53135 0.19547 0.62971 0.0
C93 C 0.62988 0.10442 0.68817 0.0
C94 C 0.68297 0.12615 0.64455 0.0
N95 N 0.62349 0.14094 0.61425 0.0
C96 C 0.60816 0.12195 0.65285 0.0
C97 C 0.6604 0.14337 0.60996 0.0
C98 C 0.66754 0.10654 0.68387 0.0
C99 C 0.53205 0.25743 0.47382 0.0
N100 N 0.51037 0.24306 0.51038 0.0
C101 C 0.53466 0.29502 0.46741 0.0
C102 C 0.51481 0.31791 0.49865 0.0
C103 C 0.49269 0.30303 0.53577 0.0
C104 C 0.49083 0.26531 0.54118 0.0
C105 C 0.39976 0.20952 0.48251 0.0
C106 C 0.43759 0.17333 0.55676 0.0
C107 C 0.43767 0.20916 0.48297 0.0
N108 N 0.45607 0.19137 0.51996 0.0
C109 C 0.39968 0.17309 0.5575 0.0
C110 C 0.3807 0.19136 0.5201 0.0
C111 C 0.52771 0.11388 0.54916 0.0
C112 C 0.64962 0.15333 0.43168 0.0
C113 C 0.62716 0.10879 0.50936 0.0
C114 C 0.646 0.0938 0.46897 0.0
C115 C 0.65723 0.11628 0.42988 0.0
N116 N 0.61971 0.14514 0.51083 0.0
C117 C 0.63074 0.16736 0.4727 0.0
Co118 Co 0.82396 0.49714 0.03104 0.0
Co119 Co 0.8392 0.58541 0.07135 0.0
O120 O 0.81812 0.54998 0.02473 0.0
C121 C 0.85267 0.51315 0.93117 0.0
O122 O 0.869 0.54152 0.95075 0.0
C123 C 0.76073 0.60817 0.06097 0.0
O124 O 0.75042 0.57422 0.05574 0.0
O125 O 0.81946 0.55796 0.13014 0.0
O126 O 0.81622 0.49993 0.10424 0.0
H127 H 0.90815 0.62338 0.22497 0.0
H128 H 0.7718 0.52577 0.95656 0.0
O129 O 0.83245 0.49285 0.95777 0.0
H130 H 0.69843 0.4518 0.07296 0.0
H131 H 0.80572 0.36711 0.97771 0.0
H132 H 0.86228 0.4486 0.102 0.0
H133 H 0.76461 0.45755 0.08449 0.0
H134 H 0.79815 0.43354 0.97149 0.0
O135 O 0.79402 0.61591 0.06867 0.0
H136 H 0.88204 0.57971 0.16475 0.0
H137 H 0.84026 0.66655 0.07755 0.0
H138 H 0.87035 0.38233 0.10983 0.0
H139 H 0.70572 0.52043 0.9433 0.0
H140 H 0.84194 0.3411 0.04738 0.0
H141 H 0.66857 0.48332 1.00188 0.0
O142 O 0.87725 0.50201 0.041 0.0
H143 H 0.83207 0.64119 0.89988 0.0
H144 H 0.91081 0.61909 0.04577 0.0
H145 H 0.9357 0.65098 0.97212 0.0
H146 H 0.89617 0.66228 0.89847 0.0
H147 H 0.80848 0.60899 0.97408 0.0
H148 H 0.86563 0.71113 0.13703 0.0
H149 H 0.89999 0.68962 0.21128 0.0
O150 O 0.88574 0.55731 0.07449 0.0
C151 C 0.81385 0.52412 0.13809 0.0
C152 C 0.89331 0.63309 0.19269 0.0
C153 C 0.8694 0.68234 0.14339 0.0
N154 N 0.8598 0.62055 0.11756 0.0
C155 C 0.87854 0.6085 0.15841 0.0
C156 C 0.85498 0.65696 0.10992 0.0
C157 C 0.88869 0.67025 0.18502 0.0
C158 C 0.75585 0.50929 0.9819 0.0
N159 N 0.77205 0.49194 0.02116 0.0
C160 C 0.71843 0.50649 0.97434 0.0
C161 C 0.69759 0.48571 0.00727 0.0
C162 C 0.71432 0.46805 0.04719 0.0
C163 C 0.7518 0.47152 0.05363 0.0
C164 C 0.81814 0.38479 0.00524 0.0
C165 C 0.84962 0.43081 0.07489 0.0
C166 C 0.81398 0.42242 1.00188 0.0
N167 N 0.82946 0.44489 0.03665 0.0
C168 C 0.85438 0.39332 0.07942 0.0
C169 C 0.83847 0.37021 0.04434 0.0
C170 C 0.89754 0.52648 0.05998 0.0
C171 C 0.84955 0.63647 0.93175 0.0
C172 C 0.89357 0.62359 0.01375 0.0
C173 C 0.90774 0.64185 0.97223 0.0
C174 C 0.88554 0.64824 0.93095 0.0
N175 N 0.85829 0.61203 0.01424 0.0
C176 C 0.83631 0.61836 0.97398 0.0
Co177 Co 0.50323 0.82174 0.52951 0.0
Co178 Co 0.41627 0.85151 0.55552 0.0
O179 O 0.45099 0.82306 0.51671 0.0
C180 C 0.49573 0.84416 0.4241 0.0
O181 O 0.4697 0.86574 0.43937 0.0
C182 C 0.38628 0.77594 0.55468 0.0
O183 O 0.41917 0.76381 0.56328 0.0
O184 O 0.43617 0.83216 0.61962 0.0
O185 O 0.49477 0.81962 0.60363 0.0
H186 H 0.37761 0.93485 0.69455 0.0
H187 H 0.47085 0.76911 0.45816 0.0
O188 O 0.51277 0.82438 0.4554 0.0
H189 H 0.52541 0.69457 0.59163 0.0
H190 H 0.6314 0.78168 0.49524 0.0
H191 H 0.55269 0.85685 0.60268 0.0
H192 H 0.52996 0.76144 0.59421 0.0
H193 H 0.56526 0.78365 0.48096 0.0
O194 O 0.38049 0.81006 0.55228 0.0
H195 H 0.42129 0.89948 0.64435 0.0
H196 H 0.33615 0.86257 0.54985 0.0
H197 H 0.61863 0.85543 0.61857 0.0
H198 H 0.4659 0.70231 0.4539 0.0
H199 H 0.65846 0.81764 0.56461 0.0
H200 H 0.49321 0.66459 0.52108 0.0
O201 O 0.50601 0.87562 0.53315 0.0
H202 H 0.37036 0.84144 0.37885 0.0
H203 H 0.39729 0.92544 0.51787 0.0
H204 H 0.37443 0.94988 0.43796 0.0
H205 H 0.36075 0.90773 0.36775 0.0
H206 H 0.39371 0.81824 0.45918 0.0
H207 H 0.2915 0.89728 0.59925 0.0
H208 H 0.3122 0.93388 0.67206 0.0
O209 O 0.45087 0.89394 0.55873 0.0
C210 C 0.46798 0.82293 0.63369 0.0
C211 C 0.36828 0.9191 0.66281 0.0
C212 C 0.31994 0.89797 0.60937 0.0
N213 N 0.38131 0.87922 0.59402 0.0
C214 C 0.39289 0.89911 0.63417 0.0
C215 C 0.34533 0.8783 0.58161 0.0
C216 C 0.33157 0.91851 0.6502 0.0
C217 C 0.48315 0.75286 0.48722 0.0
N218 N 0.50082 0.76914 0.52624 0.0
C219 C 0.48012 0.71506 0.48474 0.0
C220 C 0.49538 0.69391 0.52249 0.0
C221 C 0.51343 0.71072 0.56212 0.0
C222 C 0.51585 0.74859 0.56343 0.0
C223 C 0.61432 0.79819 0.51907 0.0
C224 C 0.56982 0.84015 0.57926 0.0
C225 C 0.57687 0.79946 0.5111 0.0
N226 N 0.55513 0.8201 0.54124 0.0
C227 C 0.60715 0.83954 0.58834 0.0
C228 C 0.62948 0.81836 0.55801 0.0
C229 C 0.48407 0.90024 0.54755 0.0
C230 C 0.37614 0.86007 0.4092 0.0
C231 C 0.39164 0.90697 0.48742 0.0
C232 C 0.37854 0.92094 0.44231 0.0
C233 C 0.37082 0.89727 0.40296 0.0
N234 N 0.39688 0.87046 0.49323 0.0
C235 C 0.38921 0.84707 0.45487 0.0
Co236 Co 0.17632 0.51225 0.52694 0.0
Co237 Co 0.16401 0.60203 0.49276 0.0
O238 O 0.18547 0.56432 0.53463 0.0
C239 C 0.15789 0.52931 0.63278 0.0
O240 O 0.14062 0.55756 0.61478 0.0
C241 C 0.24364 0.61726 0.49058 0.0
O242 O 0.24913 0.58253 0.48232 0.0
O243 O 0.17874 0.5757 0.43054 0.0
O244 O 0.17884 0.51643 0.45129 0.0
H245 H 0.08904 0.64939 0.35007 0.0
H246 H 0.23555 0.53749 0.59369 0.0
O247 O 0.17348 0.5072 0.60276 0.0
H248 H 0.29522 0.46207 0.46526 0.0
H249 H 0.19061 0.38059 0.57377 0.0
H250 H 0.13141 0.467 0.45896 0.0
H251 H 0.22884 0.47071 0.46428 0.0
H252 H 0.20203 0.44648 0.58129 0.0
O253 O 0.21136 0.62944 0.49347 0.0
H254 H 0.11551 0.60214 0.40433 0.0
H255 H 0.16864 0.68306 0.49114 0.0
H256 H 0.11943 0.40134 0.44985 0.0
H257 H 0.30196 0.52936 0.59631 0.0
H258 H 0.14914 0.35764 0.50754 0.0
H259 H 0.33223 0.49149 0.53167 0.0
O260 O 0.1229 0.52 0.5243 0.0
H261 H 0.18374 0.65334 0.66509 0.0
H262 H 0.09576 0.63747 0.5278 0.0
H263 H 0.07675 0.66862 0.60522 0.0
H264 H 0.12096 0.67681 0.67453 0.0
H265 H 0.20135 0.62177 0.58739 0.0
H266 H 0.14298 0.73115 0.4376 0.0
H267 H 0.10274 0.71443 0.36659 0.0
O268 O 0.11586 0.57611 0.4924 0.0
C269 C 0.18092 0.54206 0.41885 0.0
C270 C 0.10644 0.65703 0.38099 0.0
C271 C 0.13676 0.70291 0.43007 0.0
N272 N 0.14336 0.63984 0.45107 0.0
C273 C 0.12142 0.63041 0.41193 0.0
C274 C 0.15129 0.67555 0.46018 0.0
C275 C 0.11417 0.69351 0.39025 0.0
C276 C 0.24848 0.52066 0.56576 0.0
N277 N 0.22833 0.50443 0.52905 0.0
C278 C 0.28612 0.51629 0.56729 0.0
C279 C 0.30309 0.49509 0.53096 0.0
C280 C 0.28234 0.4786 0.49367 0.0
C281 C 0.24478 0.48364 0.49325 0.0
C282 C 0.17754 0.39936 0.54837 0.0
C283 C 0.1446 0.44813 0.48401 0.0
C284 C 0.18384 0.43669 0.55252 0.0
N285 N 0.16757 0.4605 0.5204 0.0
C286 C 0.13763 0.41099 0.47876 0.0
C287 C 0.15429 0.3865 0.51118 0.0
C288 C 0.10315 0.54557 0.50718 0.0
C289 C 0.16423 0.64996 0.63516 0.0
C290 C 0.11498 0.64054 0.55799 0.0
C291 C 0.10415 0.65842 0.60163 0.0
C292 C 0.12899 0.66306 0.64046 0.0
N293 N 0.14954 0.62762 0.55312 0.0
C294 C 0.17409 0.63223 0.59097 0.0
Co295 Co 0.50566 0.1768 0.03076 0.0
Co296 Co 0.41909 0.16559 0.98379 0.0
O297 O 0.45336 0.18516 0.03253 0.0
C298 C 0.48207 0.15348 0.13085 0.0
O299 O 0.45487 0.13697 0.10871 0.0
C300 C 0.40364 0.24512 0.98699 0.0
O301 O 0.43851 0.25138 0.98118 0.0
O302 O 0.44942 0.18397 0.92704 0.0
O303 O 0.50655 0.18253 0.9565 0.0
H304 H 0.38255 0.09816 0.82816 0.0
H305 H 0.47547 0.23291 0.09862 0.0
O306 O 0.50569 0.17066 0.10521 0.0
H307 H 0.55909 0.29866 0.98604 0.0
H308 H 0.63343 0.19011 0.09506 0.0
H309 H 0.55544 0.13457 0.96582 0.0
H310 H 0.55103 0.23232 0.97838 0.0
H311 H 0.56736 0.20094 0.09492 0.0
O312 O 0.39156 0.21262 0.98613 0.0
H313 H 0.42554 0.12194 0.89104 0.0
H314 H 0.33865 0.16988 0.97189 0.0
H315 H 0.62139 0.12321 0.96433 0.0
H316 H 0.48291 0.29921 0.10782 0.0
H317 H 0.66086 0.15109 0.0293 0.0
H318 H 0.5249 0.33254 0.05117 0.0
O319 O 0.49841 0.12358 0.02282 0.0
H320 H 0.35565 0.1755 0.14997 0.0
H321 H 0.38223 0.09519 0.0069 0.0
H322 H 0.34593 0.07176 0.07755 0.0
H323 H 0.33233 0.1121 0.14973 0.0
H324 H 0.39236 0.19757 0.07894 0.0
H325 H 0.29475 0.14685 0.90972 0.0
H326 H 0.31663 0.11059 0.83733 0.0
O327 O 0.44537 0.11762 0.98197 0.0
C328 C 0.48375 0.18664 0.92102 0.0
C329 C 0.37267 0.11382 0.85964 0.0
C330 C 0.3234 0.1412 0.90537 0.0
N331 N 0.38458 0.14699 0.93528 0.0
C332 C 0.39686 0.12725 0.89542 0.0
C333 C 0.34839 0.15423 0.94039 0.0
C334 C 0.33569 0.12084 0.86477 0.0
C335 C 0.49407 0.24717 0.07417 0.0
N336 N 0.51294 0.22874 0.03821 0.0
C337 C 0.49805 0.28474 0.07941 0.0
C338 C 0.52157 0.30343 0.04756 0.0
C339 C 0.54075 0.28443 0.01099 0.0
C340 C 0.53602 0.24688 0.00677 0.0
C341 C 0.61653 0.17788 0.06648 0.0
C342 C 0.57248 0.14699 0.994 0.0
C343 C 0.5791 0.18387 0.06626 0.0
N344 N 0.55764 0.16865 0.03013 0.0
C345 C 0.60978 0.14038 0.99306 0.0
C346 C 0.63191 0.15599 0.02956 0.0
C347 C 0.47457 0.10441 1.00034 0.0
C348 C 0.36136 0.15767 0.11873 0.0
C349 C 0.37678 0.11274 0.03838 0.0
C350 C 0.35601 0.09942 0.07817 0.0
C351 C 0.34834 0.12208 0.11861 0.0
N352 N 0.38957 0.14763 0.03882 0.0
C353 C 0.38202 0.17006 0.07827 0.0
Co354 Co 0.82283 0.51342 0.53643 0.0
Co355 Co 0.83441 0.42398 0.49948 0.0
O356 O 0.81543 0.46106 0.545 0.0
C357 C 0.85244 0.4984 0.63589 0.0
O358 O 0.86772 0.46943 0.61659 0.0
C359 C 0.75493 0.4073 0.50554 0.0
O360 O 0.74822 0.44199 0.49888 0.0
O361 O 0.81556 0.4509 0.4397 0.0
O362 O 0.81385 0.50939 0.46372 0.0
H363 H 0.90043 0.37927 0.34691 0.0
H364 H 0.77078 0.48665 0.61267 0.0
O365 O 0.83253 0.51884 0.60928 0.0
H366 H 0.69812 0.56106 0.49667 0.0
H367 H 0.80957 0.64485 0.58534 0.0
H368 H 0.86133 0.55953 0.46224 0.0
H369 H 0.76405 0.55405 0.48394 0.0
H370 H 0.80013 0.57878 0.59444 0.0
O371 O 0.78758 0.39593 0.50514 0.0
H372 H 0.87709 0.42552 0.40548 0.0
H373 H 0.83056 0.34291 0.49644 0.0
H374 H 0.87122 0.62539 0.45151 0.0
H375 H 0.70494 0.49314 0.62702 0.0
H376 H 0.84523 0.66855 0.51334 0.0
H377 H 0.66814 0.53049 0.56867 0.0
O378 O 0.87576 0.50682 0.52482 0.0
H379 H 0.82636 0.37187 0.6731 0.0
H380 H 0.90478 0.38846 0.52514 0.0
H381 H 0.92895 0.35714 0.59955 0.0
H382 H 0.88959 0.34864 0.67425 0.0
H383 H 0.80347 0.40339 0.59807 0.0
H384 H 0.85315 0.2958 0.43868 0.0
H385 H 0.88849 0.31388 0.36338 0.0
O386 O 0.88218 0.4503 0.49418 0.0
C387 C 0.81072 0.48469 0.43071 0.0
C388 C 0.88517 0.37105 0.37968 0.0
C389 C 0.85858 0.3242 0.43114 0.0
N390 N 0.85272 0.38691 0.4545 0.0
C391 C 0.87198 0.3971 0.41304 0.0
C392 C 0.84578 0.35101 0.46364 0.0
C393 C 0.87842 0.33436 0.38891 0.0
C394 C 0.75499 0.50322 0.5874 0.0
N395 N 0.77125 0.52008 0.54767 0.0
C396 C 0.71771 0.50668 0.5956 0.0
C397 C 0.69707 0.5276 0.5628 0.0
C398 C 0.71386 0.54474 0.52237 0.0
C399 C 0.7512 0.54061 0.5153 0.0
C400 C 0.82095 0.62633 0.55808 0.0
C401 C 0.84974 0.57816 0.48913 0.0
C402 C 0.81574 0.58889 0.56307 0.0
N403 N 0.82989 0.56536 0.52865 0.0
C404 C 0.85552 0.61541 0.48293 0.0
C405 C 0.84096 0.63961 0.51767 0.0
C406 C 0.89508 0.48129 0.50668 0.0
C407 C 0.84377 0.37538 0.64078 0.0
C408 C 0.88762 0.38514 0.5576 0.0
C409 C 0.90137 0.36721 0.59956 0.0
C410 C 0.87926 0.36241 0.64143 0.0
N411 N 0.85282 0.39789 0.55728 0.0
C412 C 0.83092 0.39311 0.59811 0.0
Co413 Co 0.50271 0.82317 0.0209 0.0
Co414 Co 0.59428 0.83483 0.99678 0.0
O415 O 0.55396 0.81374 0.03436 0.0
C416 C 0.51405 0.84334 0.12651 0.0
O417 O 0.54408 0.85925 0.11159 0.0
C418 C 0.60765 0.75488 0.99312 0.0
O419 O 0.57368 0.75029 0.9796 0.0
O420 O 0.57122 0.82093 0.93182 0.0
O421 O 0.51115 0.81945 0.947 0.0
H422 H 0.65124 0.90997 0.86057 0.0
H423 H 0.52335 0.76484 0.09189 0.0
O424 O 0.49341 0.82752 0.09493 0.0
H425 H 0.45455 0.70348 0.95782 0.0
H426 H 0.36868 0.81035 0.05357 0.0
H427 H 0.4622 0.86751 0.94706 0.0
H428 H 0.46409 0.76984 0.95571 0.0
H429 H 0.43369 0.79862 0.06857 0.0
O430 O 0.62024 0.78685 0.99966 0.0
H431 H 0.6005 0.88398 0.90933 0.0
H432 H 0.6749 0.82859 1.00352 0.0
H433 H 0.39753 0.87977 0.93048 0.0
H434 H 0.51423 0.69845 0.09566 0.0
H435 H 0.35025 0.85109 0.98397 0.0
H436 H 0.4797 0.66734 0.0282 0.0
O437 O 0.51124 0.8765 0.01752 0.0
H438 H 0.63516 0.81313 0.17378 0.0
H439 H 0.62888 0.90239 0.03644 0.0
H440 H 0.65579 0.92045 0.11727 0.0
H441 H 0.65909 0.87561 0.18663 0.0
H442 H 0.60801 0.79643 0.09258 0.0
H443 H 0.72643 0.85374 0.95557 0.0
H444 H 0.71474 0.89487 0.88364 0.0
O445 O 0.56956 0.88354 0.9944 0.0
C446 C 0.5383 0.81788 0.91727 0.0
C447 C 0.65668 0.89218 0.89194 0.0
C448 C 0.69888 0.86058 0.94521 0.0
N449 N 0.63474 0.85506 0.95945 0.0
C450 C 0.62807 0.87748 0.91976 0.0
C451 C 0.66959 0.84635 0.97215 0.0
C452 C 0.69231 0.88367 0.90487 0.0
C453 C 0.50798 0.75154 0.06267 0.0
N454 N 0.49408 0.77121 0.02381 0.0
C455 C 0.50304 0.71392 0.06489 0.0
C456 C 0.48371 0.69647 0.02698 0.0
C457 C 0.46961 0.71673 0.98747 0.0
C458 C 0.47515 0.75429 0.98643 0.0
C459 C 0.38902 0.82296 0.02995 0.0
C460 C 0.44178 0.85476 0.97029 0.0
C461 C 0.42586 0.81648 0.03833 0.0
N462 N 0.45167 0.83217 0.00848 0.0
C463 C 0.4052 0.86188 0.96082 0.0
C464 C 0.3787 0.84581 0.99088 0.0
C465 C 0.53814 0.89628 1.00456 0.0
C466 C 0.63392 0.8329 0.14382 0.0
C467 C 0.62993 0.88287 0.06656 0.0
C468 C 0.64537 0.89317 0.11217 0.0
C469 C 0.64727 0.86798 0.15104 0.0
N470 N 0.61674 0.84847 0.05981 0.0
C471 C 0.6187 0.82356 0.09768 0.0
H472 H 0.18524 0.52866 0.18126 0.0
H473 H 0.18544 0.41438 0.2181 0.0
H474 H 0.18645 0.4291 0.30704 0.0
H475 H 0.18485 0.47421 0.37537 0.0
H476 H 0.1842 0.58849 0.33856 0.0
H477 H 0.18592 0.5738 0.24963 0.0
C478 C 0.1858 0.50689 0.20861 0.0
C479 C 0.18523 0.47036 0.19227 0.0
C480 C 0.18617 0.5155 0.26028 0.0
C481 C 0.18589 0.44275 0.2289 0.0
C482 C 0.18639 0.45113 0.28011 0.0
C483 C 0.18535 0.49599 0.34803 0.0
C484 C 0.18434 0.5325 0.36437 0.0
C485 C 0.18617 0.4874 0.29637 0.0
C486 C 0.18496 0.56013 0.32776 0.0
C487 C 0.18589 0.55177 0.27655 0.0
H488 H 0.56988 0.19367 0.71698 0.0
H489 H 0.46149 0.20936 0.65934 0.0
H490 H 0.43736 0.20979 0.74427 0.0
H491 H 0.44622 0.20096 0.83476 0.0
H492 H 0.55489 0.18612 0.89191 0.0
H493 H 0.57935 0.19028 0.80756 0.0
C494 C 0.54103 0.19766 0.72287 0.0
C495 C 0.51763 0.20106 0.6815 0.0
C496 C 0.52716 0.19774 0.77191 0.0
C497 C 0.4803 0.20645 0.69022 0.0
C498 C 0.46635 0.20658 0.73891 0.0
C499 C 0.47529 0.19897 0.82889 0.0
C500 C 0.49848 0.1928 0.86988 0.0
C501 C 0.48941 0.20146 0.78001 0.0
C502 C 0.53617 0.19062 0.86132 0.0
C503 C 0.55031 0.19297 0.81293 0.0
H504 H 0.80578 0.44342 0.34575 0.0
H505 H 0.8009 0.55439 0.39838 0.0
H506 H 0.79901 0.57634 0.31279 0.0
H507 H 0.80433 0.56473 0.22276 0.0
H508 H 0.80781 0.45378 0.16993 0.0
H509 H 0.80433 0.43159 0.25538 0.0
C510 C 0.80376 0.47236 0.33857 0.0
C511 C 0.80407 0.49704 0.37869 0.0
C512 C 0.80272 0.48507 0.28898 0.0
C513 C 0.80114 0.53453 0.36845 0.0
C514 C 0.8001 0.54729 0.31935 0.0
C515 C 0.80388 0.53571 0.22983 0.0
C516 C 0.80692 0.51117 0.18979 0.0
C517 C 0.8018 0.52288 0.27929 0.0
C518 C 0.8059 0.47355 0.19985 0.0
C519 C 0.80394 0.46066 0.24887 0.0
H520 H 0.47246 0.81765 0.87021 0.0
H521 H 0.58756 0.81009 0.84089 0.0
H522 H 0.5757 0.80852 0.75101 0.0
H523 H 0.53309 0.81262 0.68061 0.0
H524 H 0.4182 0.82259 0.71009 0.0
H525 H 0.42974 0.81964 0.79993 0.0
C526 C 0.49504 0.81537 0.84433 0.0
C527 C 0.53092 0.81411 0.86268 0.0
C528 C 0.48811 0.81502 0.79254 0.0
C529 C 0.55967 0.81118 0.82816 0.0
C530 C 0.55292 0.81033 0.77662 0.0
C531 C 0.51045 0.81383 0.70653 0.0
C532 C 0.47478 0.81794 0.68823 0.0
C533 C 0.51729 0.81272 0.75835 0.0
C534 C 0.44594 0.81951 0.72278 0.0
C535 C 0.45251 0.81788 0.77431 0.0
H536 H 0.85848 0.45096 0.71236 0.0
H537 H 0.85594 0.56536 0.6777 0.0
H538 H 0.85951 0.58032 0.7668 0.0
H539 H 0.85932 0.56067 0.85471 0.0
H540 H 0.85505 0.44627 0.88925 0.0
H541 H 0.85838 0.43132 0.80017 0.0
C542 C 0.85918 0.4791 0.72449 0.0
C543 C 0.85711 0.50705 0.68904 0.0
C544 C 0.85981 0.48742 0.77566 0.0
C545 C 0.85742 0.54347 0.70476 0.0
C546 C 0.85946 0.55202 0.75554 0.0
C547 C 0.85957 0.53253 0.84254 0.0
C548 C 0.85707 0.50458 0.87797 0.0
C549 C 0.86009 0.52421 0.79134 0.0
C550 C 0.85683 0.46816 0.86221 0.0
C551 C 0.85875 0.45962 0.81145 0.0
H552 H 0.56011 0.83884 0.20508 0.0
H553 H 0.44662 0.84745 0.1678 0.0
H554 H 0.43091 0.84964 0.25694 0.0
H555 H 0.44971 0.84969 0.34555 0.0
H556 H 0.56256 0.83477 0.38272 0.0
H557 H 0.57843 0.83435 0.2936 0.0
C558 C 0.53197 0.84124 0.21661 0.0
C559 C 0.50454 0.84341 0.18018 0.0
C560 C 0.52312 0.84132 0.26781 0.0
C561 C 0.46813 0.8458 0.19535 0.0
C562 C 0.45918 0.84712 0.24622 0.0
C563 C 0.47775 0.84639 0.33399 0.0
C564 C 0.50503 0.84268 0.3704 0.0
C565 C 0.48647 0.84503 0.28277 0.0
C566 C 0.54117 0.83772 0.35519 0.0
C567 C 0.55023 0.83756 0.30433 0.0
H568 H 0.16264 0.53695 0.87034 0.0
H569 H 0.15841 0.42055 0.85313 0.0
H570 H 0.16026 0.42698 0.76207 0.0
H571 H 0.16126 0.46582 0.68637 0.0
H572 H 0.15929 0.58226 0.70365 0.0
H573 H 0.16174 0.5758 0.79466 0.0
C574 C 0.16234 0.51304 0.84659 0.0
C575 C 0.16056 0.47831 0.86865 0.0
C576 C 0.16218 0.51697 0.79391 0.0
C577 C 0.15968 0.44761 0.83725 0.0
C578 C 0.16078 0.45125 0.78505 0.0
C579 C 0.16158 0.48973 0.71013 0.0
C580 C 0.16025 0.52448 0.6881 0.0
C581 C 0.16177 0.4858 0.76281 0.0
C582 C 0.16018 0.55519 0.71951 0.0
C583 C 0.16163 0.55153 0.77168 0.0
H584 H 0.4674 0.16294 0.36562 0.0
H585 H 0.58385 0.15443 0.35498 0.0
H586 H 0.57985 0.15186 0.26354 0.0
H587 H 0.5431 0.15267 0.1867 0.0
H588 H 0.42635 0.15503 0.19755 0.0
H589 H 0.43037 0.15914 0.28891 0.0
C590 C 0.4918 0.16054 0.34309 0.0
C591 C 0.52586 0.15922 0.36653 0.0
C592 C 0.48917 0.15787 0.2908 0.0
C593 C 0.55737 0.15549 0.33742 0.0
C594 C 0.55509 0.15408 0.28528 0.0
C595 C 0.51861 0.15399 0.20923 0.0
C596 C 0.48452 0.1538 0.1858 0.0
C597 C 0.52115 0.15533 0.26159 0.0
C598 C 0.45287 0.15502 0.21506 0.0
C599 C 0.45517 0.15751 0.26716 0.0
H600 H 0.93225 0.46123 0.05402 0.0
H601 H 0.95245 0.57604 0.07286 0.0
H602 H 0.01764 0.56547 0.07001 0.0
H603 H 0.06927 0.5238 0.0599 0.0
H604 H 0.04907 0.40859 0.04821 0.0
H605 H 0.98385 0.41917 0.05053 0.0
C606 C 0.95087 0.48398 0.05765 0.0
C607 C 0.93722 0.51949 0.06272 0.0
C608 C 0.98851 0.47765 0.05706 0.0
C609 C 0.96193 0.54847 0.06829 0.0
C610 C 0.99936 0.54246 0.06666 0.0
C611 C 0.0506 0.50101 0.05779 0.0
C612 C 0.06419 0.46546 0.05311 0.0
C613 C 0.01298 0.50721 0.06052 0.0
C614 C 0.03954 0.43622 0.05144 0.0
C615 C 1.00212 0.44225 0.0528 0.0
H616 H 0.44488 0.96312 0.55252 0.0
H617 H 0.55485 0.92296 0.55002 0.0
H618 H 0.57808 0.98508 0.55325 0.0
H619 H 0.56732 0.05114 0.55413 0.0
H620 H 0.45728 0.091 0.55101 0.0
H621 H 0.43413 0.02889 0.55273 0.0
C622 C 0.47392 0.96785 0.55275 0.0
C623 C 0.49795 0.9382 0.55083 0.0
C624 C 0.4872 0.00376 0.55355 0.0
C625 C 0.53558 0.94512 0.55115 0.0
C626 C 0.54897 0.98072 0.55308 0.0
C627 C 0.5383 0.04627 0.55414 0.0
C628 C 0.51417 0.07585 0.55244 0.0
C629 C 0.52505 0.0103 0.55391 0.0
C630 C 0.47657 0.06886 0.55206 0.0
C631 C 0.46324 0.03328 0.55308 0.0
H632 H 0.06684 0.48096 0.5026 0.0
H633 H 0.0495 0.59687 0.50537 0.0
H634 H 0.98399 0.58732 0.505 0.0
H635 H 0.93137 0.54605 0.50616 0.0
H636 H 0.94869 0.43027 0.49704 0.0
H637 H 0.01419 0.43984 0.4972 0.0
C638 C 0.04875 0.50416 0.50315 0.0
C639 C 0.06326 0.53961 0.50484 0.0
C640 C 0.01096 0.4985 0.50172 0.0
C641 C 0.03929 0.5693 0.50453 0.0
C642 C 1.00171 0.56386 0.50428 0.0
C643 C 0.94943 0.52287 0.50406 0.0
C644 C 0.9349 0.48742 0.50241 0.0
C645 C 0.98722 0.52858 0.50325 0.0
C646 C 0.95887 0.45783 0.49881 0.0
C647 C 0.99646 0.46327 0.49895 0.0
H648 H 0.47453 0.93254 0.99086 0.0
H649 H 0.58935 0.95012 0.01221 0.0
H650 H 0.57987 0.01572 0.01272 0.0
H651 H 0.53875 0.06821 0.00944 0.0
H652 H 0.42455 0.05071 0.98204 0.0
H653 H 0.43408 0.98516 0.98138 0.0
C654 C 0.49752 0.95069 0.9956 0.0
C655 C 0.53258 0.93624 1.00217 0.0
C656 C 0.49197 0.98851 0.99485 0.0
C657 C 0.56208 0.9603 0.00735 0.0
C658 C 0.55666 0.99792 0.0077 0.0
C659 C 0.5159 0.05011 1.00325 0.0
C660 C 0.48083 0.06457 0.99663 0.0
C661 C 0.52169 0.01233 1.00188 0.0
C662 C 0.45175 0.04056 0.98775 0.0
C663 C 0.45718 1.00295 0.98736 0.0
H664 H 0.31381 0.38844 0.03297 0.0
H665 H 0.23216 0.3078 0.06795 0.0
H666 H 0.27437 0.25947 0.04735 0.0
H667 H 0.33368 0.23953 0.01793 0.0
H668 H 0.4167 0.31873 0.9838 0.0
H669 H 0.37479 0.36793 0.00533 0.0
C670 C 0.30538 0.3603 0.03653 0.0
C671 C 0.26967 0.35197 0.05195 0.0
C672 C 0.32995 0.33224 0.02433 0.0
C673 C 0.25928 0.31524 0.05604 0.0
C674 C 0.28344 0.28743 0.04417 0.0
C675 C 0.3427 0.26753 0.01489 0.0
C676 C 0.37827 0.27533 0.99874 0.0
C677 C 0.31867 0.29558 0.02783 0.0
C678 C 0.38943 0.31187 0.9958 0.0
C679 C 0.36547 0.34004 0.00824 0.0
H680 H 0.76049 0.33523 0.52755 0.0
H681 H 0.68157 0.42044 0.50747 0.0
H682 H 0.63251 0.37742 0.52568 0.0
H683 H 0.61188 0.31522 0.54665 0.0
H684 H 0.69153 0.23056 0.5665 0.0
H685 H 0.7402 0.2738 0.54929 0.0
C686 C 0.73258 0.3445 0.52698 0.0
C687 C 0.72487 0.38113 0.51583 0.0
C688 C 0.7045 0.31967 0.53771 0.0
C689 C 0.68843 0.39247 0.51569 0.0
C690 C 0.6603 0.36785 0.52621 0.0
C691 C 0.63989 0.30627 0.5476 0.0
C692 C 0.64787 0.26955 0.55807 0.0
C693 C 0.66799 0.33135 0.53729 0.0
C694 C 0.68441 0.25853 0.55867 0.0
C695 C 0.71237 0.28327 0.54872 0.0
H696 H 0.69081 0.60558 0.02471 0.0
H697 H 0.7721 0.67972 0.08142 0.0
H698 H 0.73235 0.73092 0.06514 0.0
H699 H 0.67539 0.75535 0.03325 0.0
H700 H 0.593 0.68252 0.97687 0.0
H701 H 0.6322 0.63043 0.99451 0.0
C702 C 0.69968 0.6329 0.0339 0.0
C703 C 0.73461 0.63858 0.05415 0.0
C704 C 0.67657 0.66264 0.02417 0.0
C705 C 0.74558 0.67431 0.06557 0.0
C706 C 0.72283 0.70377 0.05625 0.0
C707 C 0.66592 0.72812 0.02461 0.0
C708 C 0.63132 0.72301 1.00333 0.0
C709 C 0.68845 0.69833 0.03513 0.0
C710 C 0.61954 0.68738 0.99301 0.0
C711 C 0.64195 0.65752 1.00318 0.0
H712 H 0.38987 0.70272 0.53628 0.0
H713 H 0.31407 0.79148 0.54984 0.0
H714 H 0.26386 0.75059 0.53045 0.0
H715 H 0.24114 0.68995 0.50936 0.0
H716 H 0.31623 0.60073 0.49479 0.0
H717 H 0.36684 0.64149 0.51451 0.0
C718 C 0.36235 0.71307 0.53531 0.0
C719 C 0.35588 0.75021 0.54476 0.0
C720 C 0.33339 0.68937 0.52359 0.0
C721 C 0.31999 0.76312 0.54279 0.0
C722 C 0.29117 0.73973 0.53162 0.0
C723 C 0.26856 0.67932 0.51026 0.0
C724 C 0.27474 0.64222 0.50037 0.0
C725 C 0.29753 0.70286 0.52179 0.0
C726 C 0.31057 0.62913 0.50195 0.0
C727 C 0.33957 0.65244 0.51342 0.0
loop_
_geom_bond_atom_site_label_1
_geom_bond_atom_site_label_2
_geom_bond_distance
_geom_bond_site_symmetry_2
_ccdc_geom_bond_type
Co0 O2 2.143 . S
Co0 O8 2.074 . S
Co0 O11 2.093 1_554 S
Co0 O24 2.097 . S
Co0 N41 2.151 . S
Co0 N49 2.214 . S
Co1 O2 2.160 . S
Co1 O7 2.058 . S
Co1 O17 2.057 . S
Co1 O32 2.037 . S
Co1 N36 2.145 . S
Co1 N57 2.257 1_554 S
O2 Co0 2.143 . S
O2 Co1 2.160 . S
C3 O4 1.278 . S
C3 O11 1.224 . S
O4 C3 1.278 . S
C5 O6 1.245 . S
C5 O17 1.232 . S
O6 C5 1.245 . S
O7 Co1 2.058 . S
O7 C33 1.269 . S
O8 Co0 2.074 . S
O8 C33 1.257 . S
H9 C34 0.930 . S
H10 C40 0.930 . S
O11 Co0 2.093 1_556 S
O11 C3 1.224 . S
H12 C44 0.929 . S
H13 C46 0.930 1_556 S
H14 C47 0.930 . S
H15 C45 0.929 . S
H16 C48 0.928 1_556 S
O17 Co1 2.057 . S
O17 C5 1.232 . S
H18 C37 0.929 . S
H19 C38 0.929 . S
H20 C50 0.931 . S
H21 C42 0.929 . S
H22 C51 0.930 . S
H23 C43 0.931 . S
O24 Co0 2.097 . S
O24 C52 1.214 . S
H25 C53 0.929 . S
H26 C54 0.929 1_554 S
H27 C55 0.930 . S
H28 C56 0.929 . S
H29 C58 0.930 . S
H30 C35 0.930 . S
H31 C39 0.930 . S
O32 Co1 2.037 . S
O32 C52 1.234 . S
C33 O7 1.269 . S
C33 O8 1.257 . S
C34 H9 0.930 . S
C34 C37 1.388 . S
C34 C39 1.418 . S
C35 H30 0.930 . S
C35 C38 1.404 . S
C35 C39 1.353 . S
N36 Co1 2.145 . S
N36 C37 1.397 . S
N36 C38 1.334 . S
C37 H18 0.929 . S
C37 C34 1.388 . S
C37 N36 1.397 . S
C38 H19 0.929 . S
C38 C35 1.404 . S
C38 N36 1.334 . S
C39 H31 0.930 . S
C39 C34 1.418 . S
C39 C35 1.353 . S
C40 H10 0.930 . S
C40 N41 1.330 1_556 S
C40 C42 1.446 . S
N41 Co0 2.151 . S
N41 C40 1.330 1_554 S
N41 C45 1.418 . S
C42 H21 0.929 . S
C42 C40 1.446 . S
C42 C43 1.332 1_556 S
C43 H23 0.931 . S
C43 C42 1.332 1_554 S
C43 C44 1.267 . S
C44 H12 0.929 . S
C44 C43 1.267 . S
C44 C45 1.251 . S
C45 H15 0.929 . S
C45 N41 1.418 . S
C45 C44 1.251 . S
C46 H13 0.930 1_554 S
C46 C48 1.406 . S
C46 C51 1.261 . S
C47 H14 0.930 . S
C47 N49 1.325 . S
C47 C50 1.357 . S
C48 H16 0.928 1_554 S
C48 C46 1.406 . S
C48 N49 1.261 . S
N49 Co0 2.214 . S
N49 C47 1.325 . S
N49 C48 1.261 . S
C50 H20 0.931 . S
C50 C47 1.357 . S
C50 C51 1.312 . S
C51 H22 0.930 . S
C51 C46 1.261 . S
C51 C50 1.312 . S
C52 O24 1.214 . S
C52 O32 1.234 . S
C53 H25 0.929 . S
C53 C56 1.391 . S
C53 C58 1.391 . S
C54 H26 0.929 1_556 S
C54 C55 1.390 . S
C54 N57 1.391 . S
C55 H27 0.930 . S
C55 C54 1.390 . S
C55 C56 1.392 . S
C56 H28 0.929 . S
C56 C53 1.391 . S
C56 C55 1.392 . S
N57 Co1 2.257 1_556 S
N57 C54 1.391 . S
N57 C58 1.388 . S
C58 H29 0.930 . S
C58 C53 1.391 . S
C58 N57 1.388 . S
Co59 O61 2.143 . S
Co59 O67 2.074 . S
Co59 O70 2.093 . S
Co59 O83 2.097 . S
Co59 N100 2.151 . S
Co59 N108 2.214 . S
Co60 O61 2.160 . S
Co60 O66 2.058 . S
Co60 O76 2.057 . S
Co60 O91 2.037 . S
Co60 N95 2.145 . S
Co60 N116 2.257 . S
O61 Co59 2.143 . S
O61 Co60 2.160 . S
C62 O63 1.278 . S
C62 O70 1.224 . S
O63 C62 1.278 . S
C64 O65 1.245 . S
C64 O76 1.232 . S
O65 C64 1.245 . S
O66 Co60 2.058 . S
O66 C92 1.269 . S
O67 Co59 2.074 . S
O67 C92 1.257 . S
H68 C93 0.930 . S
H69 C99 0.930 . S
O70 Co59 2.093 . S
O70 C62 1.224 . S
H71 C103 0.929 . S
H72 C105 0.930 . S
H73 C106 0.930 . S
H74 C104 0.929 . S
H75 C107 0.928 . S
O76 Co60 2.057 . S
O76 C64 1.232 . S
H77 C96 0.929 . S
H78 C97 0.929 . S
H79 C109 0.931 . S
H80 C101 0.929 . S
H81 C110 0.930 . S
H82 C102 0.931 . S
O83 Co59 2.097 . S
O83 C111 1.214 . S
H84 C112 0.929 . S
H85 C113 0.929 . S
H86 C114 0.930 . S
H87 C115 0.929 . S
H88 C117 0.930 . S
H89 C94 0.930 . S
H90 C98 0.930 . S
O91 Co60 2.037 . S
O91 C111 1.234 . S
C92 O66 1.269 . S
C92 O67 1.257 . S
C93 H68 0.930 . S
C93 C96 1.388 . S
C93 C98 1.418 . S
C94 H89 0.930 . S
C94 C97 1.404 . S
C94 C98 1.353 . S
N95 Co60 2.145 . S
N95 C96 1.397 . S
N95 C97 1.334 . S
C96 H77 0.929 . S
C96 C93 1.388 . S
C96 N95 1.397 . S
C97 H78 0.929 . S
C97 C94 1.404 . S
C97 N95 1.334 . S
C98 H90 0.930 . S
C98 C93 1.418 . S
C98 C94 1.353 . S
C99 H69 0.930 . S
C99 N100 1.330 . S
C99 C101 1.446 . S
N100 Co59 2.151 . S
N100 C99 1.330 . S
N100 C104 1.418 . S
C101 H80 0.929 . S
C101 C99 1.446 . S
C101 C102 1.332 . S
C102 H82 0.931 . S
C102 C101 1.332 . S
C102 C103 1.267 . S
C103 H71 0.929 . S
C103 C102 1.267 . S
C103 C104 1.251 . S
C104 H74 0.929 . S
C104 N100 1.418 . S
C104 C103 1.251 . S
C105 H72 0.930 . S
C105 C107 1.406 . S
C105 C110 1.261 . S
C106 H73 0.930 . S
C106 N108 1.325 . S
C106 C109 1.357 . S
C107 H75 0.928 . S
C107 C105 1.406 . S
C107 N108 1.261 . S
N108 Co59 2.214 . S
N108 C106 1.325 . S
N108 C107 1.261 . S
C109 H79 0.931 . S
C109 C106 1.357 . S
C109 C110 1.312 . S
C110 H81 0.930 . S
C110 C105 1.261 . S
C110 C109 1.312 . S
C111 O83 1.214 . S
C111 O91 1.234 . S
C112 H84 0.929 . S
C112 C115 1.391 . S
C112 C117 1.391 . S
C113 H85 0.929 . S
C113 C114 1.390 . S
C113 N116 1.391 . S
C114 H86 0.930 . S
C114 C113 1.390 . S
C114 C115 1.392 . S
C115 H87 0.929 . S
C115 C112 1.391 . S
C115 C114 1.392 . S
N116 Co60 2.257 . S
N116 C113 1.391 . S
N116 C117 1.388 . S
C117 H88 0.930 . S
C117 C112 1.391 . S
C117 N116 1.388 . S
Co118 O120 2.143 . S
Co118 O126 2.074 . S
Co118 O129 2.093 1_554 S
Co118 O142 2.097 . S
Co118 N159 2.151 . S
Co118 N167 2.214 . S
Co119 O120 2.160 . S
Co119 O125 2.058 . S
Co119 O135 2.057 . S
Co119 O150 2.037 . S
Co119 N154 2.145 . S
Co119 N175 2.257 1_554 S
O120 Co118 2.143 . S
O120 Co119 2.160 . S
C121 O122 1.278 . S
C121 O129 1.224 . S
O122 C121 1.278 . S
C123 O124 1.245 . S
C123 O135 1.232 . S
O124 C123 1.245 . S
O125 Co119 2.058 . S
O125 C151 1.269 . S
O126 Co118 2.074 . S
O126 C151 1.257 . S
H127 C152 0.930 . S
H128 C158 0.930 . S
O129 Co118 2.093 1_556 S
O129 C121 1.224 . S
H130 C162 0.929 . S
H131 C164 0.930 1_556 S
H132 C165 0.930 . S
H133 C163 0.929 . S
H134 C166 0.928 1_556 S
O135 Co119 2.057 . S
O135 C123 1.232 . S
H136 C155 0.929 . S
H137 C156 0.929 . S
H138 C168 0.931 . S
H139 C160 0.929 . S
H140 C169 0.930 . S
H141 C161 0.931 . S
O142 Co118 2.097 . S
O142 C170 1.214 . S
H143 C171 0.929 . S
H144 C172 0.929 1_554 S
H145 C173 0.930 . S
H146 C174 0.929 . S
H147 C176 0.930 . S
H148 C153 0.930 . S
H149 C157 0.930 . S
O150 Co119 2.037 . S
O150 C170 1.234 . S
C151 O125 1.269 . S
C151 O126 1.257 . S
C152 H127 0.930 . S
C152 C155 1.388 . S
C152 C157 1.418 . S
C153 H148 0.930 . S
C153 C156 1.404 . S
C153 C157 1.353 . S
N154 Co119 2.145 . S
N154 C155 1.397 . S
N154 C156 1.334 . S
C155 H136 0.929 . S
C155 C152 1.388 . S
C155 N154 1.397 . S
C156 H137 0.929 . S
C156 C153 1.404 . S
C156 N154 1.334 . S
C157 H149 0.930 . S
C157 C152 1.418 . S
C157 C153 1.353 . S
C158 H128 0.930 . S
C158 N159 1.330 1_556 S
C158 C160 1.446 . S
N159 Co118 2.151 . S
N159 C158 1.330 1_554 S
N159 C163 1.418 . S
C160 H139 0.929 . S
C160 C158 1.446 . S
C160 C161 1.332 1_556 S
C161 H141 0.931 . S
C161 C160 1.332 1_554 S
C161 C162 1.267 . S
C162 H130 0.929 . S
C162 C161 1.267 . S
C162 C163 1.251 . S
C163 H133 0.929 . S
C163 N159 1.418 . S
C163 C162 1.251 . S
C164 H131 0.930 1_554 S
C164 C166 1.406 . S
C164 C169 1.261 . S
C165 H132 0.930 . S
C165 N167 1.325 . S
C165 C168 1.357 . S
C166 H134 0.928 1_554 S
C166 C164 1.406 . S
C166 N167 1.261 . S
N167 Co118 2.214 . S
N167 C165 1.325 . S
N167 C166 1.261 . S
C168 H138 0.931 . S
C168 C165 1.357 . S
C168 C169 1.312 . S
C169 H140 0.930 . S
C169 C164 1.261 . S
C169 C168 1.312 . S
C170 O142 1.214 . S
C170 O150 1.234 . S
C171 H143 0.929 . S
C171 C174 1.391 . S
C171 C176 1.391 . S
C172 H144 0.929 1_556 S
C172 C173 1.390 . S
C172 N175 1.391 . S
C173 H145 0.930 . S
C173 C172 1.390 . S
C173 C174 1.392 . S
C174 H146 0.929 . S
C174 C171 1.391 . S
C174 C173 1.392 . S
N175 Co119 2.257 1_556 S
N175 C172 1.391 . S
N175 C176 1.388 . S
C176 H147 0.930 . S
C176 C171 1.391 . S
C176 N175 1.388 . S
Co177 O179 2.143 . S
Co177 O185 2.074 . S
Co177 O188 2.093 . S
Co177 O201 2.097 . S
Co177 N218 2.151 . S
Co177 N226 2.214 . S
Co178 O179 2.160 . S
Co178 O184 2.058 . S
Co178 O194 2.057 . S
Co178 O209 2.037 . S
Co178 N213 2.145 . S
Co178 N234 2.257 . S
O179 Co177 2.143 . S
O179 Co178 2.160 . S
C180 O181 1.278 . S
C180 O188 1.224 . S
O181 C180 1.278 . S
C182 O183 1.245 . S
C182 O194 1.232 . S
O183 C182 1.245 . S
O184 Co178 2.058 . S
O184 C210 1.269 . S
O185 Co177 2.074 . S
O185 C210 1.257 . S
H186 C211 0.930 . S
H187 C217 0.930 . S
O188 Co177 2.093 . S
O188 C180 1.224 . S
H189 C221 0.929 . S
H190 C223 0.930 . S
H191 C224 0.930 . S
H192 C222 0.929 . S
H193 C225 0.928 . S
O194 Co178 2.057 . S
O194 C182 1.232 . S
H195 C214 0.929 . S
H196 C215 0.929 . S
H197 C227 0.931 . S
H198 C219 0.929 . S
H199 C228 0.930 . S
H200 C220 0.931 . S
O201 Co177 2.097 . S
O201 C229 1.214 . S
H202 C230 0.929 . S
H203 C231 0.929 . S
H204 C232 0.930 . S
H205 C233 0.929 . S
H206 C235 0.930 . S
H207 C212 0.930 . S
H208 C216 0.930 . S
O209 Co178 2.037 . S
O209 C229 1.234 . S
C210 O184 1.269 . S
C210 O185 1.257 . S
C211 H186 0.930 . S
C211 C214 1.388 . S
C211 C216 1.418 . S
C212 H207 0.930 . S
C212 C215 1.404 . S
C212 C216 1.353 . S
N213 Co178 2.145 . S
N213 C214 1.397 . S
N213 C215 1.334 . S
C214 H195 0.929 . S
C214 C211 1.388 . S
C214 N213 1.397 . S
C215 H196 0.929 . S
C215 C212 1.404 . S
C215 N213 1.334 . S
C216 H208 0.930 . S
C216 C211 1.418 . S
C216 C212 1.353 . S
C217 H187 0.930 . S
C217 N218 1.330 . S
C217 C219 1.446 . S
N218 Co177 2.151 . S
N218 C217 1.330 . S
N218 C222 1.418 . S
C219 H198 0.929 . S
C219 C217 1.446 . S
C219 C220 1.332 . S
C220 H200 0.931 . S
C220 C219 1.332 . S
C220 C221 1.267 . S
C221 H189 0.929 . S
C221 C220 1.267 . S
C221 C222 1.251 . S
C222 H192 0.929 . S
C222 N218 1.418 . S
C222 C221 1.251 . S
C223 H190 0.930 . S
C223 C225 1.406 . S
C223 C228 1.261 . S
C224 H191 0.930 . S
C224 N226 1.325 . S
C224 C227 1.357 . S
C225 H193 0.928 . S
C225 C223 1.406 . S
C225 N226 1.261 . S
N226 Co177 2.214 . S
N226 C224 1.325 . S
N226 C225 1.261 . S
C227 H197 0.931 . S
C227 C224 1.357 . S
C227 C228 1.312 . S
C228 H199 0.930 . S
C228 C223 1.261 . S
C228 C227 1.312 . S
C229 O201 1.214 . S
C229 O209 1.234 . S
C230 H202 0.929 . S
C230 C233 1.391 . S
C230 C235 1.391 . S
C231 H203 0.929 . S
C231 C232 1.390 . S
C231 N234 1.391 . S
C232 H204 0.930 . S
C232 C231 1.390 . S
C232 C233 1.392 . S
C233 H205 0.929 . S
C233 C230 1.391 . S
C233 C232 1.392 . S
N234 Co178 2.257 . S
N234 C231 1.391 . S
N234 C235 1.388 . S
C235 H206 0.930 . S
C235 C230 1.391 . S
C235 N234 1.388 . S
Co236 O238 2.143 . S
Co236 O244 2.074 . S
Co236 O247 2.093 . S
Co236 O260 2.097 . S
Co236 N277 2.151 . S
Co236 N285 2.214 . S
Co237 O238 2.160 . S
Co237 O243 2.058 . S
Co237 O253 2.057 . S
Co237 O268 2.037 . S
Co237 N272 2.145 . S
Co237 N293 2.257 . S
O238 Co236 2.143 . S
O238 Co237 2.160 . S
C239 O240 1.278 . S
C239 O247 1.224 . S
O240 C239 1.278 . S
C241 O242 1.245 . S
C241 O253 1.232 . S
O242 C241 1.245 . S
O243 Co237 2.058 . S
O243 C269 1.269 . S
O244 Co236 2.074 . S
O244 C269 1.257 . S
H245 C270 0.930 . S
H246 C276 0.930 . S
O247 Co236 2.093 . S
O247 C239 1.224 . S
H248 C280 0.929 . S
H249 C282 0.930 . S
H250 C283 0.930 . S
H251 C281 0.929 . S
H252 C284 0.928 . S
O253 Co237 2.057 . S
O253 C241 1.232 . S
H254 C273 0.929 . S
H255 C274 0.929 . S
H256 C286 0.931 . S
H257 C278 0.929 . S
H258 C287 0.930 . S
H259 C279 0.931 . S
O260 Co236 2.097 . S
O260 C288 1.214 . S
H261 C289 0.929 . S
H262 C290 0.929 . S
H263 C291 0.930 . S
H264 C292 0.929 . S
H265 C294 0.930 . S
H266 C271 0.930 . S
H267 C275 0.930 . S
O268 Co237 2.037 . S
O268 C288 1.234 . S
C269 O243 1.269 . S
C269 O244 1.257 . S
C270 H245 0.930 . S
C270 C273 1.388 . S
C270 C275 1.418 . S
C271 H266 0.930 . S
C271 C274 1.404 . S
C271 C275 1.353 . S
N272 Co237 2.145 . S
N272 C273 1.397 . S
N272 C274 1.334 . S
C273 H254 0.929 . S
C273 C270 1.388 . S
C273 N272 1.397 . S
C274 H255 0.929 . S
C274 C271 1.404 . S
C274 N272 1.334 . S
C275 H267 0.930 . S
C275 C270 1.418 . S
C275 C271 1.353 . S
C276 H246 0.930 . S
C276 N277 1.330 . S
C276 C278 1.446 . S
N277 Co236 2.151 . S
N277 C276 1.330 . S
N277 C281 1.418 . S
C278 H257 0.929 . S
C278 C276 1.446 . S
C278 C279 1.332 . S
C279 H259 0.931 . S
C279 C278 1.332 . S
C279 C280 1.267 . S
C280 H248 0.929 . S
C280 C279 1.267 . S
C280 C281 1.251 . S
C281 H251 0.929 . S
C281 N277 1.418 . S
C281 C280 1.251 . S
C282 H249 0.930 . S
C282 C284 1.406 . S
C282 C287 1.261 . S
C283 H250 0.930 . S
C283 N285 1.325 . S
C283 C286 1.357 . S
C284 H252 0.928 . S
C284 C282 1.406 . S
C284 N285 1.261 . S
N285 Co236 2.214 . S
N285 C283 1.325 . S
N285 C284 1.261 . S
C286 H256 0.931 . S
C286 C283 1.357 . S
C286 C287 1.312 . S
C287 H258 0.930 . S
C287 C282 1.261 . S
C287 C286 1.312 . S
C288 O260 1.214 . S
C288 O268 1.234 . S
C289 H261 0.929 . S
C289 C292 1.391 . S
C289 C294 1.391 . S
C290 H262 0.929 . S
C290 C291 1.390 . S
C290 N293 1.391 . S
C291 H263 0.930 . S
C291 C290 1.390 . S
C291 C292 1.392 . S
C292 H264 0.929 . S
C292 C289 1.391 . S
C292 C291 1.392 . S
N293 Co237 2.257 . S
N293 C290 1.391 . S
N293 C294 1.388 . S
C294 H265 0.930 . S
C294 C289 1.391 . S
C294 N293 1.388 . S
Co295 O297 2.143 . S
Co295 O303 2.074 1_554 S
Co295 O306 2.093 . S
Co295 O319 2.097 . S
Co295 N336 2.151 . S
Co295 N344 2.214 . S
Co296 O297 2.160 1_556 S
Co296 O302 2.058 . S
Co296 O312 2.057 . S
Co296 O327 2.037 . S
Co296 N331 2.145 . S
Co296 N352 2.257 1_556 S
O297 Co295 2.143 . S
O297 Co296 2.160 1_554 S
C298 O299 1.278 . S
C298 O306 1.224 . S
O299 C298 1.278 . S
C300 O301 1.245 . S
C300 O312 1.232 1_554 S
O301 C300 1.245 . S
O302 Co296 2.058 . S
O302 C328 1.269 . S
O303 Co295 2.074 1_556 S
O303 C328 1.257 . S
H304 C329 0.930 . S
H305 C335 0.930 . S
O306 Co295 2.093 . S
O306 C298 1.224 . S
H307 C339 0.929 . S
H308 C341 0.930 . S
H309 C342 0.930 . S
H310 C340 0.929 . S
H311 C343 0.928 . S
O312 Co296 2.057 . S
O312 C300 1.232 1_556 S
H313 C332 0.929 . S
H314 C333 0.929 . S
H315 C345 0.931 . S
H316 C337 0.929 . S
H317 C346 0.930 . S
H318 C338 0.931 . S
O319 Co295 2.097 . S
O319 C347 1.214 . S
H320 C348 0.929 . S
H321 C349 0.929 . S
H322 C350 0.930 . S
H323 C351 0.929 . S
H324 C353 0.930 . S
H325 C330 0.930 . S
H326 C334 0.930 . S
O327 Co296 2.037 . S
O327 C347 1.234 1_556 S
C328 O302 1.269 . S
C328 O303 1.257 . S
C329 H304 0.930 . S
C329 C332 1.388 . S
C329 C334 1.418 . S
C330 H325 0.930 . S
C330 C333 1.404 . S
C330 C334 1.353 . S
N331 Co296 2.145 . S
N331 C332 1.397 . S
N331 C333 1.334 . S
C332 H313 0.929 . S
C332 C329 1.388 . S
C332 N331 1.397 . S
C333 H314 0.929 . S
C333 C330 1.404 . S
C333 N331 1.334 . S
C334 H326 0.930 . S
C334 C329 1.418 . S
C334 C330 1.353 . S
C335 H305 0.930 . S
C335 N336 1.330 . S
C335 C337 1.446 . S
N336 Co295 2.151 . S
N336 C335 1.330 . S
N336 C340 1.418 1_554 S
C337 H316 0.929 . S
C337 C335 1.446 . S
C337 C338 1.332 . S
C338 H318 0.931 . S
C338 C337 1.332 . S
C338 C339 1.267 1_554 S
C339 H307 0.929 . S
C339 C338 1.267 1_556 S
C339 C340 1.251 . S
C340 H310 0.929 . S
C340 N336 1.418 1_556 S
C340 C339 1.251 . S
C341 H308 0.930 . S
C341 C343 1.406 . S
C341 C346 1.261 1_554 S
C342 H309 0.930 . S
C342 N344 1.325 1_556 S
C342 C345 1.357 . S
C343 H311 0.928 . S
C343 C341 1.406 . S
C343 N344 1.261 . S
N344 Co295 2.214 . S
N344 C342 1.325 1_554 S
N344 C343 1.261 . S
C345 H315 0.931 . S
C345 C342 1.357 . S
C345 C346 1.312 . S
C346 H317 0.930 . S
C346 C341 1.261 1_556 S
C346 C345 1.312 . S
C347 O319 1.214 . S
C347 O327 1.234 1_554 S
C348 H320 0.929 . S
C348 C351 1.391 . S
C348 C353 1.391 . S
C349 H321 0.929 . S
C349 C350 1.390 . S
C349 N352 1.391 . S
C350 H322 0.930 . S
C350 C349 1.390 . S
C350 C351 1.392 . S
C351 H323 0.929 . S
C351 C348 1.391 . S
C351 C350 1.392 . S
N352 Co296 2.257 1_554 S
N352 C349 1.391 . S
N352 C353 1.388 . S
C353 H324 0.930 . S
C353 C348 1.391 . S
C353 N352 1.388 . S
Co354 O356 2.143 . S
Co354 O362 2.074 . S
Co354 O365 2.093 . S
Co354 O378 2.097 . S
Co354 N395 2.151 . S
Co354 N403 2.214 . S
Co355 O356 2.160 . S
Co355 O361 2.058 . S
Co355 O371 2.057 . S
Co355 O386 2.037 . S
Co355 N390 2.145 . S
Co355 N411 2.257 . S
O356 Co354 2.143 . S
O356 Co355 2.160 . S
C357 O358 1.278 . S
C357 O365 1.224 . S
O358 C357 1.278 . S
C359 O360 1.245 . S
C359 O371 1.232 . S
O360 C359 1.245 . S
O361 Co355 2.058 . S
O361 C387 1.269 . S
O362 Co354 2.074 . S
O362 C387 1.257 . S
H363 C388 0.930 . S
H364 C394 0.930 . S
O365 Co354 2.093 . S
O365 C357 1.224 . S
H366 C398 0.929 . S
H367 C400 0.930 . S
H368 C401 0.930 . S
H369 C399 0.929 . S
H370 C402 0.928 . S
O371 Co355 2.057 . S
O371 C359 1.232 . S
H372 C391 0.929 . S
H373 C392 0.929 . S
H374 C404 0.931 . S
H375 C396 0.929 . S
H376 C405 0.930 . S
H377 C397 0.931 . S
O378 Co354 2.097 . S
O378 C406 1.214 . S
H379 C407 0.929 . S
H380 C408 0.929 . S
H381 C409 0.930 . S
H382 C410 0.929 . S
H383 C412 0.930 . S
H384 C389 0.930 . S
H385 C393 0.930 . S
O386 Co355 2.037 . S
O386 C406 1.234 . S
C387 O361 1.269 . S
C387 O362 1.257 . S
C388 H363 0.930 . S
C388 C391 1.388 . S
C388 C393 1.418 . S
C389 H384 0.930 . S
C389 C392 1.404 . S
C389 C393 1.353 . S
N390 Co355 2.145 . S
N390 C391 1.397 . S
N390 C392 1.334 . S
C391 H372 0.929 . S
C391 C388 1.388 . S
C391 N390 1.397 . S
C392 H373 0.929 . S
C392 C389 1.404 . S
C392 N390 1.334 . S
C393 H385 0.930 . S
C393 C388 1.418 . S
C393 C389 1.353 . S
C394 H364 0.930 . S
C394 N395 1.330 . S
C394 C396 1.446 . S
N395 Co354 2.151 . S
N395 C394 1.330 . S
N395 C399 1.418 . S
C396 H375 0.929 . S
C396 C394 1.446 . S
C396 C397 1.332 . S
C397 H377 0.931 . S
C397 C396 1.332 . S
C397 C398 1.267 . S
C398 H366 0.929 . S
C398 C397 1.267 . S
C398 C399 1.251 . S
C399 H369 0.929 . S
C399 N395 1.418 . S
C399 C398 1.251 . S
C400 H367 0.930 . S
C400 C402 1.406 . S
C400 C405 1.261 . S
C401 H368 0.930 . S
C401 N403 1.325 . S
C401 C404 1.357 . S
C402 H370 0.928 . S
C402 C400 1.406 . S
C402 N403 1.261 . S
N403 Co354 2.214 . S
N403 C401 1.325 . S
N403 C402 1.261 . S
C404 H374 0.931 . S
C404 C401 1.357 . S
C404 C405 1.312 . S
C405 H376 0.930 . S
C405 C400 1.261 . S
C405 C404 1.312 . S
C406 O378 1.214 . S
C406 O386 1.234 . S
C407 H379 0.929 . S
C407 C410 1.391 . S
C407 C412 1.391 . S
C408 H380 0.929 . S
C408 C409 1.390 . S
C408 N411 1.391 . S
C409 H381 0.930 . S
C409 C408 1.390 . S
C409 C410 1.392 . S
C410 H382 0.929 . S
C410 C407 1.391 . S
C410 C409 1.392 . S
N411 Co355 2.257 . S
N411 C408 1.391 . S
N411 C412 1.388 . S
C412 H383 0.930 . S
C412 C407 1.391 . S
C412 N411 1.388 . S
Co413 O415 2.143 . S
Co413 O421 2.074 1_554 S
Co413 O424 2.093 . S
Co413 O437 2.097 . S
Co413 N454 2.151 . S
Co413 N462 2.214 . S
Co414 O415 2.160 1_556 S
Co414 O420 2.058 . S
Co414 O430 2.057 . S
Co414 O445 2.037 . S
Co414 N449 2.145 . S
Co414 N470 2.257 1_556 S
O415 Co413 2.143 . S
O415 Co414 2.160 1_554 S
C416 O417 1.278 . S
C416 O424 1.224 . S
O417 C416 1.278 . S
C418 O419 1.245 . S
C418 O430 1.232 1_554 S
O419 C418 1.245 . S
O420 Co414 2.058 . S
O420 C446 1.269 . S
O421 Co413 2.074 1_556 S
O421 C446 1.257 . S
H422 C447 0.930 . S
H423 C453 0.930 . S
O424 Co413 2.093 . S
O424 C416 1.224 . S
H425 C457 0.929 . S
H426 C459 0.930 . S
H427 C460 0.930 . S
H428 C458 0.929 . S
H429 C461 0.928 . S
O430 Co414 2.057 . S
O430 C418 1.232 1_556 S
H431 C450 0.929 . S
H432 C451 0.929 . S
H433 C463 0.931 . S
H434 C455 0.929 . S
H435 C464 0.930 . S
H436 C456 0.931 . S
O437 Co413 2.097 . S
O437 C465 1.214 . S
H438 C466 0.929 . S
H439 C467 0.929 . S
H440 C468 0.930 . S
H441 C469 0.929 . S
H442 C471 0.930 . S
H443 C448 0.930 . S
H444 C452 0.930 . S
O445 Co414 2.037 . S
O445 C465 1.234 1_556 S
C446 O420 1.269 . S
C446 O421 1.257 . S
C447 H422 0.930 . S
C447 C450 1.388 . S
C447 C452 1.418 . S
C448 H443 0.930 . S
C448 C451 1.404 . S
C448 C452 1.353 . S
N449 Co414 2.145 . S
N449 C450 1.397 . S
N449 C451 1.334 . S
C450 H431 0.929 . S
C450 C447 1.388 . S
C450 N449 1.397 . S
C451 H432 0.929 . S
C451 C448 1.404 . S
C451 N449 1.334 . S
C452 H444 0.930 . S
C452 C447 1.418 . S
C452 C448 1.353 . S
C453 H423 0.930 . S
C453 N454 1.330 . S
C453 C455 1.446 . S
N454 Co413 2.151 . S
N454 C453 1.330 . S
N454 C458 1.418 1_554 S
C455 H434 0.929 . S
C455 C453 1.446 . S
C455 C456 1.332 . S
C456 H436 0.931 . S
C456 C455 1.332 . S
C456 C457 1.267 1_554 S
C457 H425 0.929 . S
C457 C456 1.267 1_556 S
C457 C458 1.251 . S
C458 H428 0.929 . S
C458 N454 1.418 1_556 S
C458 C457 1.251 . S
C459 H426 0.930 . S
C459 C461 1.406 . S
C459 C464 1.261 1_554 S
C460 H427 0.930 . S
C460 N462 1.325 1_556 S
C460 C463 1.357 . S
C461 H429 0.928 . S
C461 C459 1.406 . S
C461 N462 1.261 . S
N462 Co413 2.214 . S
N462 C460 1.325 1_554 S
N462 C461 1.261 . S
C463 H433 0.931 . S
C463 C460 1.357 . S
C463 C464 1.312 . S
C464 H435 0.930 . S
C464 C459 1.261 1_556 S
C464 C463 1.312 . S
C465 O437 1.214 . S
C465 O445 1.234 1_554 S
C466 H438 0.929 . S
C466 C469 1.391 . S
C466 C471 1.391 . S
C467 H439 0.929 . S
C467 C468 1.390 . S
C467 N470 1.391 . S
C468 H440 0.930 . S
C468 C467 1.390 . S
C468 C469 1.392 . S
C469 H441 0.929 . S
C469 C466 1.391 . S
C469 C468 1.392 . S
N470 Co414 2.257 1_554 S
N470 C467 1.391 . S
N470 C471 1.388 . S
C471 H442 0.930 . S
C471 C466 1.391 . S
C471 N470 1.388 . S
H472 C478 0.930 . S
H473 C481 0.930 . S
H474 C482 0.930 . S
H475 C483 0.930 . S
H476 C486 0.930 . S
H477 C487 0.930 . S
C478 H472 0.930 . S
C478 C479 1.355 . S
C478 C480 1.415 . S
C479 C478 1.355 . S
C479 C481 1.419 . S
C480 C478 1.415 . S
C480 C485 1.425 . S
C480 C487 1.409 . S
C481 H473 0.930 . S
C481 C479 1.419 . S
C481 C482 1.362 . S
C482 H474 0.930 . S
C482 C481 1.362 . S
C482 C485 1.409 . S
C483 H475 0.930 . S
C483 C484 1.355 . S
C483 C485 1.415 . S
C484 C483 1.355 . S
C484 C486 1.419 . S
C485 C480 1.425 . S
C485 C482 1.409 . S
C485 C483 1.415 . S
C486 H476 0.930 . S
C486 C484 1.419 . S
C486 C487 1.362 . S
C487 H477 0.930 . S
C487 C480 1.409 . S
C487 C486 1.362 . S
H488 C494 0.930 . S
H489 C497 0.930 . S
H490 C498 0.930 . S
H491 C499 0.930 . S
H492 C502 0.930 . S
H493 C503 0.930 . S
C494 H488 0.930 . S
C494 C495 1.355 . S
C494 C496 1.415 . S
C495 C494 1.355 . S
C495 C497 1.419 . S
C496 C494 1.415 . S
C496 C501 1.425 . S
C496 C503 1.409 . S
C497 H489 0.930 . S
C497 C495 1.419 . S
C497 C498 1.362 . S
C498 H490 0.930 . S
C498 C497 1.362 . S
C498 C501 1.409 . S
C499 H491 0.930 . S
C499 C500 1.355 . S
C499 C501 1.415 . S
C500 C499 1.355 . S
C500 C502 1.419 . S
C501 C496 1.425 . S
C501 C498 1.409 . S
C501 C499 1.415 . S
C502 H492 0.930 . S
C502 C500 1.419 . S
C502 C503 1.362 . S
C503 H493 0.930 . S
C503 C496 1.409 . S
C503 C502 1.362 . S
H504 C510 0.930 . S
H505 C513 0.930 . S
H506 C514 0.930 . S
H507 C515 0.930 . S
H508 C518 0.930 . S
H509 C519 0.930 . S
C510 H504 0.930 . S
C510 C511 1.355 . S
C510 C512 1.415 . S
C511 C510 1.355 . S
C511 C513 1.419 . S
C512 C510 1.415 . S
C512 C517 1.425 . S
C512 C519 1.409 . S
C513 H505 0.930 . S
C513 C511 1.419 . S
C513 C514 1.362 . S
C514 H506 0.930 . S
C514 C513 1.362 . S
C514 C517 1.409 . S
C515 H507 0.930 . S
C515 C516 1.355 . S
C515 C517 1.415 . S
C516 C515 1.355 . S
C516 C518 1.419 . S
C517 C512 1.425 . S
C517 C514 1.409 . S
C517 C515 1.415 . S
C518 H508 0.930 . S
C518 C516 1.419 . S
C518 C519 1.362 . S
C519 H509 0.930 . S
C519 C512 1.409 . S
C519 C518 1.362 . S
H520 C526 0.930 . S
H521 C529 0.930 . S
H522 C530 0.930 . S
H523 C531 0.930 . S
H524 C534 0.930 . S
H525 C535 0.930 . S
C526 H520 0.930 . S
C526 C527 1.355 . S
C526 C528 1.415 . S
C527 C526 1.355 . S
C527 C529 1.419 . S
C528 C526 1.415 . S
C528 C533 1.425 . S
C528 C535 1.409 . S
C529 H521 0.930 . S
C529 C527 1.419 . S
C529 C530 1.362 . S
C530 H522 0.930 . S
C530 C529 1.362 . S
C530 C533 1.409 . S
C531 H523 0.930 . S
C531 C532 1.355 . S
C531 C533 1.415 . S
C532 C531 1.355 . S
C532 C534 1.419 . S
C533 C528 1.425 . S
C533 C530 1.409 . S
C533 C531 1.415 . S
C534 H524 0.930 . S
C534 C532 1.419 . S
C534 C535 1.362 . S
C535 H525 0.930 . S
C535 C528 1.409 . S
C535 C534 1.362 . S
H536 C542 0.930 . S
H537 C545 0.930 . S
H538 C546 0.930 . S
H539 C547 0.930 . S
H540 C550 0.930 . S
H541 C551 0.930 . S
C542 H536 0.930 . S
C542 C543 1.355 . S
C542 C544 1.415 . S
C543 C542 1.355 . S
C543 C545 1.419 . S
C544 C542 1.415 . S
C544 C549 1.425 . S
C544 C551 1.409 . S
C545 H537 0.930 . S
C545 C543 1.419 . S
C545 C546 1.362 . S
C546 H538 0.930 . S
C546 C545 1.362 . S
C546 C549 1.409 . S
C547 H539 0.930 . S
C547 C548 1.355 . S
C547 C549 1.415 . S
C548 C547 1.355 . S
C548 C550 1.419 . S
C549 C544 1.425 . S
C549 C546 1.409 . S
C549 C547 1.415 . S
C550 H540 0.930 . S
C550 C548 1.419 . S
C550 C551 1.362 . S
C551 H541 0.930 . S
C551 C544 1.409 . S
C551 C550 1.362 . S
H552 C558 0.930 . S
H553 C561 0.930 . S
H554 C562 0.930 . S
H555 C563 0.930 . S
H556 C566 0.930 . S
H557 C567 0.930 . S
C558 H552 0.930 . S
C558 C559 1.355 . S
C558 C560 1.415 . S
C559 C558 1.355 . S
C559 C561 1.419 . S
C560 C558 1.415 . S
C560 C565 1.425 . S
C560 C567 1.409 . S
C561 H553 0.930 . S
C561 C559 1.419 . S
C561 C562 1.362 . S
C562 H554 0.930 . S
C562 C561 1.362 . S
C562 C565 1.409 . S
C563 H555 0.930 . S
C563 C564 1.355 . S
C563 C565 1.415 . S
C564 C563 1.355 . S
C564 C566 1.419 . S
C565 C560 1.425 . S
C565 C562 1.409 . S
C565 C563 1.415 . S
C566 H556 0.930 . S
C566 C564 1.419 . S
C566 C567 1.362 . S
C567 H557 0.930 . S
C567 C560 1.409 . S
C567 C566 1.362 . S
H568 C574 0.930 . S
H569 C577 0.930 . S
H570 C578 0.930 . S
H571 C579 0.930 . S
H572 C582 0.930 . S
H573 C583 0.930 . S
C574 H568 0.930 . S
C574 C575 1.355 . S
C574 C576 1.415 . S
C575 C574 1.355 . S
C575 C577 1.419 . S
C576 C574 1.415 . S
C576 C581 1.425 . S
C576 C583 1.409 . S
C577 H569 0.930 . S
C577 C575 1.419 . S
C577 C578 1.362 . S
C578 H570 0.930 . S
C578 C577 1.362 . S
C578 C581 1.409 . S
C579 H571 0.930 . S
C579 C580 1.355 . S
C579 C581 1.415 . S
C580 C579 1.355 . S
C580 C582 1.419 . S
C581 C576 1.425 . S
C581 C578 1.409 . S
C581 C579 1.415 . S
C582 H572 0.930 . S
C582 C580 1.419 . S
C582 C583 1.362 . S
C583 H573 0.930 . S
C583 C576 1.409 . S
C583 C582 1.362 . S
H584 C590 0.930 . S
H585 C593 0.930 . S
H586 C594 0.930 . S
H587 C595 0.930 . S
H588 C598 0.930 . S
H589 C599 0.930 . S
C590 H584 0.930 . S
C590 C591 1.355 . S
C590 C592 1.415 . S
C591 C590 1.355 . S
C591 C593 1.419 . S
C592 C590 1.415 . S
C592 C597 1.425 . S
C592 C599 1.409 . S
C593 H585 0.930 . S
C593 C591 1.419 . S
C593 C594 1.362 . S
C594 H586 0.930 . S
C594 C593 1.362 . S
C594 C597 1.409 . S
C595 H587 0.930 . S
C595 C596 1.355 . S
C595 C597 1.415 . S
C596 C595 1.355 . S
C596 C598 1.419 . S
C597 C592 1.425 . S
C597 C594 1.409 . S
C597 C595 1.415 . S
C598 H588 0.930 . S
C598 C596 1.419 . S
C598 C599 1.362 . S
C599 H589 0.930 . S
C599 C592 1.409 . S
C599 C598 1.362 . S
H600 C606 0.930 . S
H601 C609 0.930 . S
H602 C610 0.930 1_455 S
H603 C611 0.930 . S
H604 C614 0.930 . S
H605 C615 0.930 1_655 S
C606 H600 0.930 . S
C606 C607 1.355 . S
C606 C608 1.415 . S
C607 C606 1.355 . S
C607 C609 1.419 . S
C608 C606 1.415 . S
C608 C613 1.425 1_655 S
C608 C615 1.409 1_655 S
C609 H601 0.930 . S
C609 C607 1.419 . S
C609 C610 1.362 . S
C610 H602 0.930 1_655 S
C610 C609 1.362 . S
C610 C613 1.409 1_655 S
C611 H603 0.930 . S
C611 C612 1.355 . S
C611 C613 1.415 . S
C612 C611 1.355 . S
C612 C614 1.419 . S
C613 C608 1.425 1_455 S
C613 C610 1.409 1_455 S
C613 C611 1.415 . S
C614 H604 0.930 . S
C614 C612 1.419 . S
C614 C615 1.362 . S
C615 H605 0.930 1_455 S
C615 C608 1.409 1_455 S
C615 C614 1.362 . S
H616 C622 0.930 . S
H617 C625 0.930 . S
H618 C626 0.930 . S
H619 C627 0.930 . S
H620 C630 0.930 . S
H621 C631 0.930 . S
C622 H616 0.930 . S
C622 C623 1.355 . S
C622 C624 1.413 1_565 S
C623 C622 1.355 . S
C623 C625 1.419 . S
C624 C622 1.413 1_545 S
C624 C629 1.425 1_545 S
C624 C631 1.410 . S
C625 H617 0.930 . S
C625 C623 1.419 . S
C625 C626 1.362 . S
C626 H618 0.930 . S
C626 C625 1.362 . S
C626 C629 1.410 . S
C627 H619 0.930 . S
C627 C628 1.355 . S
C627 C629 1.413 1_545 S
C628 C627 1.355 . S
C628 C630 1.419 . S
C629 C624 1.425 1_565 S
C629 C626 1.410 . S
C629 C627 1.413 1_565 S
C630 H620 0.930 . S
C630 C628 1.419 . S
C630 C631 1.362 . S
C631 H621 0.930 . S
C631 C624 1.410 . S
C631 C630 1.362 . S
H632 C638 0.930 . S
H633 C641 0.930 . S
H634 C642 0.930 1_655 S
H635 C643 0.930 . S
H636 C646 0.930 . S
H637 C647 0.930 1_455 S
C638 H632 0.930 . S
C638 C639 1.355 . S
C638 C640 1.415 . S
C639 C638 1.355 . S
C639 C641 1.419 . S
C640 C638 1.415 . S
C640 C645 1.425 1_455 S
C640 C647 1.409 1_455 S
C641 H633 0.930 . S
C641 C639 1.419 . S
C641 C642 1.362 . S
C642 H634 0.930 1_455 S
C642 C641 1.362 . S
C642 C645 1.409 1_455 S
C643 H635 0.930 . S
C643 C644 1.355 . S
C643 C645 1.415 . S
C644 C643 1.355 . S
C644 C646 1.419 . S
C645 C640 1.425 1_655 S
C645 C642 1.409 1_655 S
C645 C643 1.415 . S
C646 H636 0.930 . S
C646 C644 1.419 . S
C646 C647 1.362 . S
C647 H637 0.930 1_655 S
C647 C640 1.409 1_655 S
C647 C646 1.362 . S
H648 C654 0.930 . S
H649 C657 0.930 . S
H650 C658 0.930 . S
H651 C659 0.930 . S
H652 C662 0.930 . S
H653 C663 0.930 . S
C654 H648 0.930 . S
C654 C655 1.355 1_554 S
C654 C656 1.415 . S
C655 C654 1.355 1_556 S
C655 C657 1.419 . S
C656 C654 1.415 . S
C656 C661 1.425 1_564 S
C656 C663 1.409 1_565 S
C657 H649 0.930 . S
C657 C655 1.419 . S
C657 C658 1.362 . S
C658 H650 0.930 . S
C658 C657 1.362 . S
C658 C661 1.409 1_565 S
C659 H651 0.930 . S
C659 C660 1.355 1_556 S
C659 C661 1.415 . S
C660 C659 1.355 1_554 S
C660 C662 1.419 . S
C661 C656 1.425 1_546 S
C661 C658 1.409 1_545 S
C661 C659 1.415 . S
C662 H652 0.930 . S
C662 C660 1.419 . S
C662 C663 1.362 . S
C663 H653 0.930 . S
C663 C656 1.409 1_545 S
C663 C662 1.362 . S
H664 C670 0.930 . S
H665 C673 0.930 . S
H666 C674 0.930 . S
H667 C675 0.930 . S
H668 C678 0.930 . S
H669 C679 0.930 . S
C670 H664 0.930 . S
C670 C671 1.355 . S
C670 C672 1.415 . S
C671 C670 1.355 . S
C671 C673 1.419 . S
C672 C670 1.415 . S
C672 C677 1.425 . S
C672 C679 1.409 . S
C673 H665 0.930 . S
C673 C671 1.419 . S
C673 C674 1.362 . S
C674 H666 0.930 . S
C674 C673 1.362 . S
C674 C677 1.409 . S
C675 H667 0.930 . S
C675 C676 1.355 . S
C675 C677 1.415 . S
C676 C675 1.355 . S
C676 C678 1.419 . S
C677 C672 1.425 . S
C677 C674 1.409 . S
C677 C675 1.415 . S
C678 H668 0.930 . S
C678 C676 1.419 . S
C678 C679 1.362 . S
C679 H669 0.930 . S
C679 C672 1.409 . S
C679 C678 1.362 . S
H680 C686 0.930 . S
H681 C689 0.930 . S
H682 C690 0.930 . S
H683 C691 0.930 . S
H684 C694 0.930 . S
H685 C695 0.930 . S
C686 H680 0.930 . S
C686 C687 1.355 . S
C686 C688 1.415 . S
C687 C686 1.355 . S
C687 C689 1.419 . S
C688 C686 1.415 . S
C688 C693 1.425 . S
C688 C695 1.409 . S
C689 H681 0.930 . S
C689 C687 1.419 . S
C689 C690 1.362 . S
C690 H682 0.930 . S
C690 C689 1.362 . S
C690 C693 1.409 . S
C691 H683 0.930 . S
C691 C692 1.355 . S
C691 C693 1.415 . S
C692 C691 1.355 . S
C692 C694 1.419 . S
C693 C688 1.425 . S
C693 C690 1.409 . S
C693 C691 1.415 . S
C694 H684 0.930 . S
C694 C692 1.419 . S
C694 C695 1.362 . S
C695 H685 0.930 . S
C695 C688 1.409 . S
C695 C694 1.362 . S
H696 C702 0.930 . S
H697 C705 0.930 . S
H698 C706 0.930 1_556 S
H699 C707 0.926 1_556 S
H700 C710 0.930 . S
H701 C711 0.930 . S
C702 H696 0.930 . S
C702 C703 1.355 . S
C702 C704 1.415 . S
C703 C702 1.355 . S
C703 C705 1.419 . S
C704 C702 1.415 . S
C704 C709 1.425 . S
C704 C711 1.409 . S
C705 H697 0.930 . S
C705 C703 1.419 . S
C705 C706 1.362 . S
C706 H698 0.930 1_554 S
C706 C705 1.362 . S
C706 C709 1.409 . S
C707 H699 0.926 1_554 S
C707 C708 1.355 . S
C707 C709 1.415 . S
C708 C707 1.355 . S
C708 C710 1.419 . S
C709 C704 1.425 . S
C709 C706 1.409 . S
C709 C707 1.415 . S
C710 H700 0.930 . S
C710 C708 1.419 . S
C710 C711 1.362 . S
C711 H701 0.930 . S
C711 C704 1.409 . S
C711 C710 1.362 . S
H712 C718 0.930 . S
H713 C721 0.930 . S
H714 C722 0.930 . S
H715 C723 0.930 . S
H716 C726 0.930 . S
H717 C727 0.930 . S
C718 H712 0.930 . S
C718 C719 1.355 . S
C718 C720 1.415 . S
C719 C718 1.355 . S
C719 C721 1.419 . S
C720 C718 1.415 . S
C720 C725 1.425 . S
C720 C727 1.409 . S
C721 H713 0.930 . S
C721 C719 1.419 . S
C721 C722 1.362 . S
C722 H714 0.930 . S
C722 C721 1.362 . S
C722 C725 1.409 . S
C723 H715 0.930 . S
C723 C724 1.355 . S
C723 C725 1.415 . S
C724 C723 1.355 . S
C724 C726 1.419 . S
C725 C720 1.425 . S
C725 C722 1.409 . S
C725 C723 1.415 . S
C726 H716 0.930 . S
C726 C724 1.419 . S
C726 C727 1.362 . S
C727 H717 0.930 . S
C727 C720 1.409 . S
C727 C726 1.362 . S
C479 C33 1.516 . S
C484 C269 1.499 . S
C495 C92 1.497 . S
C500 C328 1.513 . S
C511 C387 1.525 . S
C516 C151 1.510 . S
C527 C446 1.504 . S
C532 C210 1.494 . S
C543 C357 1.299 . S
C548 C121 1.268 . S
C559 C416 1.289 . S
C564 C180 1.245 . S
C575 C3 1.254 . S
C580 C239 1.269 . S
C591 C62 1.245 . S
C596 C298 1.287 . S
C607 C170 1.436 . S
C612 C52 1.438 . S
C623 C229 1.408 . S
C628 C111 1.414 . S
C639 C288 1.440 . S
C644 C406 1.422 . S
C655 C465 1.424 1_556 S
C660 C347 1.407 . S
C671 C5 1.456 . S
C676 C300 1.443 . S
C687 C359 1.452 . S
C692 C64 1.463 . S
C703 C123 1.455 . S
C708 C418 1.443 . S
C719 C182 1.463 . S
C724 C241 1.453 . S
