# Generated by pormake.
# Topology ukc, (4)-cn, num edge types: 1
# Building blocks:
#     Node 0, Type 0, BuildingBlock: TATPOV_clean_sbu_0, # of connection points: 4
#     Node 1, Type 0, BuildingBlock: TATPOV_clean_sbu_0, # of connection points: 4
#     Node 2, Type 0, BuildingBlock: TATPOV_clean_sbu_0, # of connection points: 4
#     Node 3, Type 0, BuildingBlock: TATPOV_clean_sbu_0, # of connection points: 4
#     Node 4, Type 0, BuildingBlock: TATPOV_clean_sbu_0, # of connection points: 4
#     Node 5, Type 0, BuildingBlock: TATPOV_clean_sbu_0, # of connection points: 4
#     Node 6, Type 0, BuildingBlock: TATPOV_clean_sbu_0, # of connection points: 4
#     Node 7, Type 0, BuildingBlock: TATPOV_clean_sbu_0, # of connection points: 4
#     Node 8, Type 0, BuildingBlock: TATPOV_clean_sbu_0, # of connection points: 4
#     Node 9, Type 0, BuildingBlock: TATPOV_clean_sbu_0, # of connection points: 4
#     Node 10, Type 0, BuildingBlock: TATPOV_clean_sbu_0, # of connection points: 4
#     Node 11, Type 0, BuildingBlock: TATPOV_clean_sbu_0, # of connection points: 4
#     Node 12, Type 0, BuildingBlock: TATPOV_clean_sbu_0, # of connection points: 4
#     Node 13, Type 0, BuildingBlock: TATPOV_clean_sbu_0, # of connection points: 4
#     Node 14, Type 0, BuildingBlock: TATPOV_clean_sbu_0, # of connection points: 4
#     Node 15, Type 0, BuildingBlock: TATPOV_clean_sbu_0, # of connection points: 4
#     Node 16, Type 0, BuildingBlock: TATPOV_clean_sbu_0, # of connection points: 4
#     Node 17, Type 0, BuildingBlock: TATPOV_clean_sbu_0, # of connection points: 4
#     Node 18, Type 0, BuildingBlock: TATPOV_clean_sbu_0, # of connection points: 4
#     Node 19, Type 0, BuildingBlock: TATPOV_clean_sbu_0, # of connection points: 4
#     Node 20, Type 0, BuildingBlock: TATPOV_clean_sbu_0, # of connection points: 4
#     Node 21, Type 0, BuildingBlock: TATPOV_clean_sbu_0, # of connection points: 4
#     Node 22, Type 0, BuildingBlock: TATPOV_clean_sbu_0, # of connection points: 4
#     Node 23, Type 0, BuildingBlock: TATPOV_clean_sbu_0, # of connection points: 4
#     Node 24, Type 0, BuildingBlock: TATPOV_clean_sbu_0, # of connection points: 4
#     Node 25, Type 0, BuildingBlock: TATPOV_clean_sbu_0, # of connection points: 4
#     Node 26, Type 0, BuildingBlock: TATPOV_clean_sbu_0, # of connection points: 4
#     Node 27, Type 0, BuildingBlock: TATPOV_clean_sbu_0, # of connection points: 4
#     Node 28, Type 0, BuildingBlock: TATPOV_clean_sbu_0, # of connection points: 4
#     Node 29, Type 0, BuildingBlock: TATPOV_clean_sbu_0, # of connection points: 4
#     Node 30, Type 0, BuildingBlock: TATPOV_clean_sbu_0, # of connection points: 4
#     Node 31, Type 0, BuildingBlock: TATPOV_clean_sbu_0, # of connection points: 4
#     Edge 32, Type (0, 0), BuildingBlock: MIFKUJ_clean_linker_0, # of connection points: 2
#     Edge 33, Type (0, 0), BuildingBlock: MIFKUJ_clean_linker_0, # of connection points: 2
#     Edge 34, Type (0, 0), BuildingBlock: MIFKUJ_clean_linker_0, # of connection points: 2
#     Edge 35, Type (0, 0), BuildingBlock: MIFKUJ_clean_linker_0, # of connection points: 2
#     Edge 36, Type (0, 0), BuildingBlock: MIFKUJ_clean_linker_0, # of connection points: 2
#     Edge 37, Type (0, 0), BuildingBlock: MIFKUJ_clean_linker_0, # of connection points: 2
#     Edge 38, Type (0, 0), BuildingBlock: MIFKUJ_clean_linker_0, # of connection points: 2
#     Edge 39, Type (0, 0), BuildingBlock: MIFKUJ_clean_linker_0, # of connection points: 2
#     Edge 40, Type (0, 0), BuildingBlock: MIFKUJ_clean_linker_0, # of connection points: 2
#     Edge 41, Type (0, 0), BuildingBlock: MIFKUJ_clean_linker_0, # of connection points: 2
#     Edge 42, Type (0, 0), BuildingBlock: MIFKUJ_clean_linker_0, # of connection points: 2
#     Edge 43, Type (0, 0), BuildingBlock: MIFKUJ_clean_linker_0, # of connection points: 2
#     Edge 44, Type (0, 0), BuildingBlock: MIFKUJ_clean_linker_0, # of connection points: 2
#     Edge 45, Type (0, 0), BuildingBlock: MIFKUJ_clean_linker_0, # of connection points: 2
#     Edge 46, Type (0, 0), BuildingBlock: MIFKUJ_clean_linker_0, # of connection points: 2
#     Edge 47, Type (0, 0), BuildingBlock: MIFKUJ_clean_linker_0, # of connection points: 2
#     Edge 48, Type (0, 0), BuildingBlock: MIFKUJ_clean_linker_0, # of connection points: 2
#     Edge 49, Type (0, 0), BuildingBlock: MIFKUJ_clean_linker_0, # of connection points: 2
#     Edge 50, Type (0, 0), BuildingBlock: MIFKUJ_clean_linker_0, # of connection points: 2
#     Edge 51, Type (0, 0), BuildingBlock: MIFKUJ_clean_linker_0, # of connection points: 2
#     Edge 52, Type (0, 0), BuildingBlock: MIFKUJ_clean_linker_0, # of connection points: 2
#     Edge 53, Type (0, 0), BuildingBlock: MIFKUJ_clean_linker_0, # of connection points: 2
#     Edge 54, Type (0, 0), BuildingBlock: MIFKUJ_clean_linker_0, # of connection points: 2
#     Edge 55, Type (0, 0), BuildingBlock: MIFKUJ_clean_linker_0, # of connection points: 2
#     Edge 56, Type (0, 0), BuildingBlock: MIFKUJ_clean_linker_0, # of connection points: 2
#     Edge 57, Type (0, 0), BuildingBlock: MIFKUJ_clean_linker_0, # of connection points: 2
#     Edge 58, Type (0, 0), BuildingBlock: MIFKUJ_clean_linker_0, # of connection points: 2
#     Edge 59, Type (0, 0), BuildingBlock: MIFKUJ_clean_linker_0, # of connection points: 2
#     Edge 60, Type (0, 0), BuildingBlock: MIFKUJ_clean_linker_0, # of connection points: 2
#     Edge 61, Type (0, 0), BuildingBlock: MIFKUJ_clean_linker_0, # of connection points: 2
#     Edge 62, Type (0, 0), BuildingBlock: MIFKUJ_clean_linker_0, # of connection points: 2
#     Edge 63, Type (0, 0), BuildingBlock: MIFKUJ_clean_linker_0, # of connection points: 2
#     Edge 64, Type (0, 0), BuildingBlock: MIFKUJ_clean_linker_0, # of connection points: 2
#     Edge 65, Type (0, 0), BuildingBlock: MIFKUJ_clean_linker_0, # of connection points: 2
#     Edge 66, Type (0, 0), BuildingBlock: MIFKUJ_clean_linker_0, # of connection points: 2
#     Edge 67, Type (0, 0), BuildingBlock: MIFKUJ_clean_linker_0, # of connection points: 2
#     Edge 68, Type (0, 0), BuildingBlock: MIFKUJ_clean_linker_0, # of connection points: 2
#     Edge 69, Type (0, 0), BuildingBlock: MIFKUJ_clean_linker_0, # of connection points: 2
#     Edge 70, Type (0, 0), BuildingBlock: MIFKUJ_clean_linker_0, # of connection points: 2
#     Edge 71, Type (0, 0), BuildingBlock: MIFKUJ_clean_linker_0, # of connection points: 2
#     Edge 72, Type (0, 0), BuildingBlock: MIFKUJ_clean_linker_0, # of connection points: 2
#     Edge 73, Type (0, 0), BuildingBlock: MIFKUJ_clean_linker_0, # of connection points: 2
#     Edge 74, Type (0, 0), BuildingBlock: MIFKUJ_clean_linker_0, # of connection points: 2
#     Edge 75, Type (0, 0), BuildingBlock: MIFKUJ_clean_linker_0, # of connection points: 2
#     Edge 76, Type (0, 0), BuildingBlock: MIFKUJ_clean_linker_0, # of connection points: 2
#     Edge 77, Type (0, 0), BuildingBlock: MIFKUJ_clean_linker_0, # of connection points: 2
#     Edge 78, Type (0, 0), BuildingBlock: MIFKUJ_clean_linker_0, # of connection points: 2
#     Edge 79, Type (0, 0), BuildingBlock: MIFKUJ_clean_linker_0, # of connection points: 2
#     Edge 80, Type (0, 0), BuildingBlock: MIFKUJ_clean_linker_0, # of connection points: 2
#     Edge 81, Type (0, 0), BuildingBlock: MIFKUJ_clean_linker_0, # of connection points: 2
#     Edge 82, Type (0, 0), BuildingBlock: MIFKUJ_clean_linker_0, # of connection points: 2
#     Edge 83, Type (0, 0), BuildingBlock: MIFKUJ_clean_linker_0, # of connection points: 2
#     Edge 84, Type (0, 0), BuildingBlock: MIFKUJ_clean_linker_0, # of connection points: 2
#     Edge 85, Type (0, 0), BuildingBlock: MIFKUJ_clean_linker_0, # of connection points: 2
#     Edge 86, Type (0, 0), BuildingBlock: MIFKUJ_clean_linker_0, # of connection points: 2
#     Edge 87, Type (0, 0), BuildingBlock: MIFKUJ_clean_linker_0, # of connection points: 2
#     Edge 88, Type (0, 0), BuildingBlock: MIFKUJ_clean_linker_0, # of connection points: 2
#     Edge 89, Type (0, 0), BuildingBlock: MIFKUJ_clean_linker_0, # of connection points: 2
#     Edge 90, Type (0, 0), BuildingBlock: MIFKUJ_clean_linker_0, # of connection points: 2
#     Edge 91, Type (0, 0), BuildingBlock: MIFKUJ_clean_linker_0, # of connection points: 2
#     Edge 92, Type (0, 0), BuildingBlock: MIFKUJ_clean_linker_0, # of connection points: 2
#     Edge 93, Type (0, 0), BuildingBlock: MIFKUJ_clean_linker_0, # of connection points: 2
#     Edge 94, Type (0, 0), BuildingBlock: MIFKUJ_clean_linker_0, # of connection points: 2
#     Edge 95, Type (0, 0), BuildingBlock: MIFKUJ_clean_linker_0, # of connection points: 2
# Relax obj value: 0.025
# Max RMSD: 0.064
# Mean RMSD: 0.064
data_MOF--net-ukc--node1-TATPOV_clean_sbu_0--edge1-MIFKUJ_clean_linker_0
_symmetry_space_group_name_H-M    P1
_symmetry_Int_Tables_number       1
_symmetry_cell_setting            triclinic
loop_
_symmetry_equiv_pos_as_xyz
'x, y, z'
_cell_length_a     58.381956
_cell_length_b     58.377329
_cell_length_c     111.17698
_cell_angle_alpha  89.970965
_cell_angle_beta   90.007587
_cell_angle_gamma 89.985291
loop_
_atom_site_label
_atom_site_type_symbol
_atom_site_fract_x
_atom_site_fract_y
_atom_site_fract_z
_atom_type_partial_charge
Zn0 Zn 0.05325 0.38531 0.05357 0.0
Zn1 Zn 0.09209 0.38073 0.04203 0.0
O2 O 0.1014 0.38601 0.05987 0.0
O3 O 0.06855 0.38658 0.06954 0.0
O4 O 0.12319 0.37896 0.03382 0.0
O5 O 0.04598 0.41428 0.04508 0.0
O6 O 0.07636 0.40858 0.03374 0.0
C7 C 0.09018 0.3875 0.06969 0.0
C8 C 0.05545 0.34298 0.0408 0.0
O9 O 0.07592 0.34949 0.03858 0.0
O10 O 0.0421 0.35572 0.04676 0.0
C11 C 0.12682 0.37019 0.02351 0.0
O12 O 0.10957 0.36124 0.01755 0.0
C13 C 0.0585 0.4202 0.03634 0.0
Zn14 Zn 0.86691 0.82046 0.30488 0.0
Zn15 Zn 0.86558 0.85353 0.28956 0.0
O16 O 0.86705 0.86922 0.30634 0.0
O17 O 0.87543 0.84071 0.31853 0.0
O18 O 0.86361 0.88113 0.27848 0.0
O19 O 0.83413 0.81224 0.30192 0.0
O20 O 0.83577 0.83546 0.28635 0.0
C21 C 0.87227 0.86185 0.31678 0.0
C22 C 0.90091 0.81506 0.28682 0.0
O23 O 0.89434 0.83517 0.28387 0.0
O24 O 0.89104 0.80459 0.29533 0.0
C25 C 0.8811 0.89364 0.27661 0.0
O26 O 0.90076 0.88775 0.28147 0.0
C27 C 0.8252 0.82024 0.29244 0.0
Zn28 Zn 0.45587 0.60273 0.54322 0.0
Zn29 Zn 0.41588 0.60968 0.53309 0.0
O30 O 0.40816 0.60708 0.55129 0.0
O31 O 0.44212 0.60297 0.55959 0.0
O32 O 0.385 0.61495 0.52517 0.0
O33 O 0.45955 0.57318 0.53481 0.0
O34 O 0.42696 0.5792 0.52539 0.0
C35 C 0.4206 0.60447 0.56063 0.0
C36 C 0.456 0.64369 0.52969 0.0
O37 O 0.43495 0.63845 0.52821 0.0
O38 O 0.46901 0.63076 0.53574 0.0
C39 C 0.3675 0.60346 0.52836 0.0
O40 O 0.36963 0.58816 0.53696 0.0
C41 C 0.44466 0.56686 0.52726 0.0
Zn42 Zn 0.63199 0.19164 0.79272 0.0
Zn43 Zn 0.62796 0.15335 0.78256 0.0
O44 O 0.63127 0.14497 0.8007 0.0
O45 O 0.62675 0.17882 0.80901 0.0
O46 O 0.62618 0.12237 0.77431 0.0
O47 O 0.66381 0.19665 0.78722 0.0
O48 O 0.65714 0.1679 0.77496 0.0
C49 C 0.62911 0.15739 0.81007 0.0
C50 C 0.59274 0.19139 0.77832 0.0
O51 O 0.59743 0.17002 0.77804 0.0
O52 O 0.60631 0.20523 0.78336 0.0
C53 C 0.61334 0.10634 0.77815 0.0
O54 O 0.6003 0.11014 0.78758 0.0
C55 C 0.66991 0.18435 0.77846 0.0
Zn56 Zn 0.07655 0.60094 0.4406 0.0
Zn57 Zn 0.1092 0.60579 0.45618 0.0
O58 O 0.1248 0.60758 0.43933 0.0
O59 O 0.0959 0.60917 0.42662 0.0
O60 O 0.13639 0.60786 0.46752 0.0
O61 O 0.07148 0.56818 0.44507 0.0
O62 O 0.09422 0.57486 0.46044 0.0
C63 C 0.11716 0.60973 0.42865 0.0
C64 C 0.06701 0.63649 0.45765 0.0
O65 O 0.0875 0.63251 0.46109 0.0
O66 O 0.05836 0.62483 0.4492 0.0
C67 C 0.15246 0.62205 0.46544 0.0
O68 O 0.15057 0.63599 0.45621 0.0
C69 C 0.08012 0.56184 0.45495 0.0
Zn70 Zn 0.63817 0.81054 0.69338 0.0
Zn71 Zn 0.63502 0.84682 0.70657 0.0
O72 O 0.63275 0.85833 0.68889 0.0
O73 O 0.6292 0.82668 0.67834 0.0
O74 O 0.63364 0.87679 0.71593 0.0
O75 O 0.6712 0.80651 0.69729 0.0
O76 O 0.6665 0.83284 0.71122 0.0
C77 C 0.62962 0.8483 0.67882 0.0
C78 C 0.60349 0.80576 0.7111 0.0
O79 O 0.60774 0.82697 0.71279 0.0
O80 O 0.61506 0.79441 0.70356 0.0
C81 C 0.62126 0.88065 0.72513 0.0
O82 O 0.6083 0.86417 0.72942 0.0
C83 C 0.67886 0.81752 0.70621 0.0
Zn84 Zn 0.42869 0.40774 0.94695 0.0
Zn85 Zn 0.39439 0.39764 0.96142 0.0
O86 O 0.37981 0.40638 0.94486 0.0
O87 O 0.40883 0.41531 0.9331 0.0
O88 O 0.36607 0.39179 0.97167 0.0
O89 O 0.43861 0.43319 0.95743 0.0
O90 O 0.41188 0.42351 0.97049 0.0
C91 C 0.38754 0.4133 0.93476 0.0
C92 C 0.43192 0.36211 0.95673 0.0
O93 O 0.41301 0.36738 0.9618 0.0
O94 O 0.44165 0.37628 0.94978 0.0
C95 C 0.34982 0.37965 0.96746 0.0
O96 O 0.35234 0.37023 0.95681 0.0
C97 C 0.42884 0.43607 0.96746 0.0
Zn98 Zn 0.83919 0.18775 0.1911 0.0
Zn99 Zn 0.84529 0.15285 0.20619 0.0
O100 O 0.84059 0.13824 0.18935 0.0
O101 O 0.83618 0.16726 0.17692 0.0
O102 O 0.84819 0.12455 0.21674 0.0
O103 O 0.81095 0.1972 0.19972 0.0
O104 O 0.81761 0.17052 0.21331 0.0
C105 C 0.83711 0.14592 0.17877 0.0
C106 C 0.88203 0.19005 0.20402 0.0
O107 O 0.87548 0.17093 0.20842 0.0
O108 O 0.86957 0.20049 0.19647 0.0
C109 C 0.86688 0.11342 0.21754 0.0
O110 O 0.88505 0.12108 0.21184 0.0
C111 C 0.80574 0.18739 0.20948 0.0
Zn112 Zn 0.94675 0.61606 0.9409 0.0
Zn113 Zn 0.91138 0.62165 0.9558 0.0
O114 O 0.89677 0.61387 0.93928 0.0
O115 O 0.92605 0.60948 0.92704 0.0
O116 O 0.8835 0.62347 0.96673 0.0
O117 O 0.95881 0.5901 0.95057 0.0
O118 O 0.93075 0.59563 0.96349 0.0
C119 C 0.90467 0.60933 0.92886 0.0
C120 C 0.9459 0.66058 0.95218 0.0
O121 O 0.9273 0.65343 0.95692 0.0
O122 O 0.95706 0.64787 0.94505 0.0
C123 C 0.86577 0.63491 0.96384 0.0
O124 O 0.86597 0.64677 0.95379 0.0
C125 C 0.94882 0.58491 0.96029 0.0
Zn126 Zn 0.15981 0.17628 0.69068 0.0
Zn127 Zn 0.14637 0.14266 0.70496 0.0
O128 O 0.14879 0.12832 0.68791 0.0
O129 O 0.1603 0.15642 0.67618 0.0
O130 O 0.13992 0.11477 0.71532 0.0
O131 O 0.18859 0.18131 0.69974 0.0
O132 O 0.1757 0.15608 0.71279 0.0
C133 C 0.15461 0.1357 0.67755 0.0
C134 C 0.11655 0.18502 0.70287 0.0
O135 O 0.11908 0.16481 0.70705 0.0
O136 O 0.13143 0.19343 0.69584 0.0
C137 C 0.12051 0.10503 0.71624 0.0
O138 O 0.1028 0.11384 0.7106 0.0
C139 C 0.19067 0.17082 0.70962 0.0
Zn140 Zn 0.56298 0.34963 0.44902 0.0
Zn141 Zn 0.59596 0.36251 0.46369 0.0
O142 O 0.60956 0.36466 0.44639 0.0
O143 O 0.58172 0.35381 0.43434 0.0
O144 O 0.62329 0.37052 0.47408 0.0
O145 O 0.54367 0.37555 0.45551 0.0
O146 O 0.57198 0.38706 0.46715 0.0
C147 C 0.60197 0.36088 0.43581 0.0
C148 C 0.57096 0.31627 0.46678 0.0
O149 O 0.58448 0.33166 0.47074 0.0
O150 O 0.56087 0.31899 0.45682 0.0
C151 C 0.64136 0.35854 0.47288 0.0
O152 O 0.64123 0.34144 0.4652 0.0
C153 C 0.55156 0.38935 0.46326 0.0
Zn154 Zn 0.34892 0.81981 0.18779 0.0
Zn155 Zn 0.35798 0.85433 0.20252 0.0
O156 O 0.3502 0.86925 0.18603 0.0
O157 O 0.34242 0.84039 0.17398 0.0
O158 O 0.36251 0.88242 0.21308 0.0
O159 O 0.32321 0.80933 0.198 0.0
O160 O 0.33202 0.83622 0.2111 0.0
C161 C 0.34422 0.86171 0.17573 0.0
C162 C 0.39428 0.81755 0.19797 0.0
O163 O 0.38859 0.83641 0.20295 0.0
O164 O 0.3804 0.80732 0.19107 0.0
C165 C 0.38161 0.89272 0.2142 0.0
O166 O 0.39974 0.88445 0.20871 0.0
C167 C 0.31989 0.81899 0.20802 0.0
Zn168 Zn 0.93816 0.4201 0.55205 0.0
Zn169 Zn 0.8996 0.40884 0.54099 0.0
O170 O 0.88947 0.41816 0.55824 0.0
O171 O 0.92191 0.42573 0.56747 0.0
O172 O 0.86973 0.40099 0.53269 0.0
O173 O 0.94321 0.44591 0.54069 0.0
O174 O 0.9135 0.4341 0.53018 0.0
C175 C 0.90032 0.42411 0.5677 0.0
C176 C 0.93885 0.37411 0.54303 0.0
O177 O 0.91826 0.37884 0.54008 0.0
O178 O 0.95118 0.38906 0.54813 0.0
C179 C 0.85206 0.41348 0.53405 0.0
O180 O 0.85341 0.43172 0.54094 0.0
C181 C 0.93053 0.44753 0.53151 0.0
Zn182 Zn 0.37408 0.18108 0.30592 0.0
Zn183 Zn 0.37815 0.14817 0.28989 0.0
O184 O 0.37268 0.13136 0.30606 0.0
O185 O 0.37489 0.15884 0.31959 0.0
O186 O 0.3792 0.12137 0.27825 0.0
O187 O 0.34423 0.19116 0.29891 0.0
O188 O 0.35051 0.16729 0.28394 0.0
C189 C 0.37276 0.13789 0.31699 0.0
C190 C 0.41532 0.18501 0.29221 0.0
O191 O 0.40925 0.16555 0.28802 0.0
O192 O 0.40269 0.19547 0.29964 0.0
C193 C 0.39671 0.1086 0.277 0.0
O194 O 0.41551 0.1136 0.28294 0.0
C195 C 0.33862 0.18319 0.28875 0.0
Zn196 Zn 0.58007 0.59438 0.05665 0.0
Zn197 Zn 0.61293 0.6069 0.04179 0.0
O198 O 0.62853 0.60336 0.05853 0.0
O199 O 0.6006 0.59396 0.07086 0.0
O200 O 0.64005 0.61427 0.03093 0.0
O201 O 0.57469 0.56533 0.04797 0.0
O202 O 0.5986 0.57768 0.03409 0.0
C203 C 0.62154 0.59822 0.06906 0.0
C204 C 0.57102 0.63755 0.0449 0.0
O205 O 0.5911 0.6348 0.04059 0.0
O206 O 0.56239 0.62252 0.05176 0.0
C207 C 0.65787 0.6018 0.03183 0.0
O208 O 0.65768 0.58462 0.03948 0.0
C209 C 0.58424 0.56282 0.03787 0.0
Zn210 Zn 0.14226 0.80296 0.79424 0.0
Zn211 Zn 0.13274 0.8417 0.783 0.0
O212 O 0.14241 0.8514 0.80027 0.0
O213 O 0.14921 0.8188 0.8096 0.0
O214 O 0.12863 0.87245 0.7747 0.0
O215 O 0.16809 0.79627 0.78339 0.0
O216 O 0.15826 0.82645 0.77266 0.0
C217 C 0.14853 0.84044 0.80967 0.0
C218 C 0.0964 0.80423 0.78485 0.0
O219 O 0.1015 0.82475 0.78193 0.0
O220 O 0.11098 0.7915 0.78998 0.0
C221 C 0.10989 0.88322 0.77323 0.0
O222 O 0.0907 0.87403 0.77708 0.0
C223 C 0.17097 0.80893 0.7743 0.0
Zn224 Zn 0.54812 0.90542 0.54511 0.0
Zn225 Zn 0.58786 0.90168 0.53417 0.0
O226 O 0.59597 0.9069 0.55221 0.0
O227 O 0.5625 0.90989 0.56114 0.0
O228 O 0.61932 0.89892 0.52645 0.0
O229 O 0.53988 0.93219 0.53508 0.0
O230 O 0.5727 0.92935 0.52544 0.0
C231 C 0.58412 0.90987 0.56174 0.0
C232 C 0.55201 0.86281 0.53304 0.0
O233 O 0.57179 0.87064 0.53038 0.0
O234 O 0.53854 0.87451 0.53949 0.0
C235 C 0.62294 0.88802 0.51673 0.0
O236 O 0.6056 0.87827 0.51121 0.0
C237 C 0.55334 0.93912 0.52696 0.0
Zn238 Zn 0.34501 0.31359 0.80851 0.0
Zn239 Zn 0.35141 0.34902 0.794 0.0
O240 O 0.34517 0.36297 0.81093 0.0
O241 O 0.34046 0.33323 0.82284 0.0
O242 O 0.35457 0.37747 0.78358 0.0
O243 O 0.31774 0.30358 0.79916 0.0
O244 O 0.32459 0.33129 0.78619 0.0
C245 C 0.34102 0.35468 0.82133 0.0
C246 C 0.38842 0.31202 0.79629 0.0
O247 O 0.38176 0.33107 0.79187 0.0
O248 O 0.37592 0.30149 0.80378 0.0
C249 C 0.37306 0.38898 0.78302 0.0
O250 O 0.39102 0.38188 0.78909 0.0
C251 C 0.313 0.31383 0.78946 0.0
Zn252 Zn 0.93421 0.08314 0.05234 0.0
Zn253 Zn 0.89942 0.09761 0.03911 0.0
O254 O 0.88582 0.08946 0.05589 0.0
O255 O 0.9151 0.07783 0.0668 0.0
O256 O 0.87092 0.10594 0.02952 0.0
O257 O 0.93981 0.05688 0.04149 0.0
O258 O 0.91379 0.07106 0.02922 0.0
C259 C 0.89392 0.08177 0.06576 0.0
C260 C 0.94051 0.12901 0.04292 0.0
O261 O 0.92032 0.12623 0.03876 0.0
O262 O 0.94999 0.11321 0.04895 0.0
C263 C 0.8551 0.11809 0.03415 0.0
O264 O 0.858 0.12634 0.04504 0.0
C265 C 0.92917 0.05619 0.0316 0.0
Zn266 Zn 0.13674 0.68758 0.2933 0.0
Zn267 Zn 0.13331 0.65038 0.28199 0.0
O268 O 0.13506 0.64117 0.30011 0.0
O269 O 0.13 0.6741 0.30927 0.0
O270 O 0.13189 0.61943 0.27363 0.0
O271 O 0.16921 0.69221 0.28863 0.0
O272 O 0.16331 0.6649 0.27538 0.0
C273 C 0.13244 0.65262 0.30979 0.0
C274 C 0.09965 0.68956 0.27723 0.0
O275 O 0.10397 0.66816 0.27643 0.0
O276 O 0.11241 0.70238 0.28346 0.0
C277 C 0.11339 0.60816 0.27238 0.0
O278 O 0.09413 0.61706 0.27632 0.0
C279 C 0.17595 0.68076 0.27967 0.0
Zn280 Zn 0.56283 0.12218 0.94521 0.0
Zn281 Zn 0.59952 0.12407 0.95817 0.0
O282 O 0.61116 0.12384 0.94057 0.0
O283 O 0.57969 0.12965 0.9301 0.0
O284 O 0.62955 0.12441 0.96743 0.0
O285 O 0.55724 0.08963 0.94965 0.0
O286 O 0.58403 0.09369 0.96341 0.0
C287 C 0.60121 0.12741 0.93054 0.0
C288 C 0.56062 0.15872 0.96182 0.0
O289 O 0.58166 0.15351 0.96341 0.0
O290 O 0.54816 0.14676 0.95497 0.0
C291 C 0.63279 0.1331 0.97779 0.0
O292 O 0.61555 0.14287 0.98339 0.0
C293 C 0.5681 0.08184 0.9586 0.0
Zn294 Zn 0.13859 0.2994 0.2012 0.0
Zn295 Zn 0.13356 0.33741 0.2132 0.0
O296 O 0.13844 0.34788 0.19551 0.0
O297 O 0.13869 0.31549 0.18543 0.0
O298 O 0.13154 0.36783 0.22204 0.0
O299 O 0.16814 0.29228 0.20913 0.0
O300 O 0.16158 0.32139 0.22122 0.0
C301 C 0.13954 0.33713 0.18553 0.0
C302 C 0.09665 0.30011 0.21427 0.0
O303 O 0.10257 0.32075 0.21646 0.0
O304 O 0.1097 0.28707 0.20831 0.0
C305 C 0.11334 0.3798 0.22246 0.0
O306 O 0.09465 0.37196 0.21733 0.0
C307 C 0.17368 0.30411 0.21819 0.0
Zn308 Zn 0.93451 0.8542 0.44941 0.0
Zn309 Zn 0.89689 0.86179 0.46183 0.0
O310 O 0.88741 0.86523 0.44382 0.0
O311 O 0.91821 0.855 0.4338 0.0
O312 O 0.86676 0.86692 0.47058 0.0
O313 O 0.94804 0.88322 0.45581 0.0
O314 O 0.91782 0.88819 0.46742 0.0
C315 C 0.8976 0.86159 0.43385 0.0
C316 C 0.92589 0.81808 0.46567 0.0
O317 O 0.90816 0.83 0.4681 0.0
O318 O 0.94014 0.82478 0.45788 0.0
C319 C 0.84913 0.85588 0.46716 0.0
O320 O 0.8512 0.84119 0.45827 0.0
C321 C 0.93755 0.89458 0.46379 0.0
Zn322 Zn 0.3692 0.68438 0.69722 0.0
Zn323 Zn 0.3689 0.64754 0.70918 0.0
O324 O 0.37269 0.63696 0.69139 0.0
O325 O 0.38057 0.66953 0.68235 0.0
O326 O 0.36753 0.61748 0.71841 0.0
O327 O 0.33579 0.68972 0.69911 0.0
O328 O 0.33762 0.66288 0.71296 0.0
C329 C 0.3785 0.64801 0.68196 0.0
C330 C 0.40185 0.68651 0.71572 0.0
O331 O 0.39669 0.66529 0.71648 0.0
O332 O 0.39101 0.69933 0.70853 0.0
C333 C 0.38545 0.6063 0.72127 0.0
O334 O 0.4056 0.6146 0.71833 0.0
C335 C 0.32649 0.67867 0.70757 0.0
Zn336 Zn 0.4185 0.14687 0.44776 0.0
Zn337 Zn 0.38443 0.13317 0.46014 0.0
O338 O 0.37505 0.12654 0.44228 0.0
O339 O 0.40627 0.13563 0.43234 0.0
O340 O 0.35553 0.12554 0.4694 0.0
O341 O 0.43923 0.12624 0.45729 0.0
O342 O 0.40924 0.11089 0.46619 0.0
C343 C 0.38621 0.12754 0.43242 0.0
C344 C 0.40376 0.18264 0.46181 0.0
O345 O 0.39189 0.16618 0.46607 0.0
O346 O 0.41543 0.17959 0.45239 0.0
C347 C 0.33763 0.13699 0.46684 0.0
O348 O 0.33889 0.15272 0.45841 0.0
C349 C 0.43083 0.1115 0.46438 0.0
Zn350 Zn 0.65813 0.69986 0.19934 0.0
Zn351 Zn 0.64244 0.66166 0.20943 0.0
O352 O 0.65451 0.65204 0.19259 0.0
O353 O 0.66723 0.68384 0.18428 0.0
O354 O 0.6333 0.63106 0.2166 0.0
O355 O 0.68138 0.70339 0.21217 0.0
O356 O 0.66672 0.67355 0.22155 0.0
C357 C 0.6639 0.66248 0.18379 0.0
C358 C 0.61031 0.70242 0.2059 0.0
O359 O 0.6131 0.68161 0.20911 0.0
O360 O 0.6269 0.71372 0.20157 0.0
C361 C 0.62501 0.62871 0.22711 0.0
O362 O 0.62106 0.64706 0.23364 0.0
C363 C 0.68107 0.68999 0.22109 0.0
Zn364 Zn 0.07826 0.91288 0.94042 0.0
Zn365 Zn 0.11236 0.8979 0.95387 0.0
O366 O 0.12579 0.90109 0.93661 0.0
O367 O 0.0968 0.91253 0.92547 0.0
O368 O 0.14022 0.8889 0.96381 0.0
O369 O 0.07597 0.94196 0.94948 0.0
O370 O 0.10065 0.92736 0.96234 0.0
C371 C 0.11764 0.907 0.92642 0.0
C372 C 0.06844 0.86983 0.95222 0.0
O373 O 0.08921 0.87131 0.95572 0.0
O374 O 0.0597 0.88556 0.94584 0.0
C375 C 0.15864 0.90023 0.9623 0.0
O376 O 0.15873 0.91713 0.95449 0.0
C377 C 0.08687 0.9433 0.95927 0.0
Zn378 Zn 0.8693 0.30991 0.6944 0.0
Zn379 Zn 0.87206 0.34583 0.70836 0.0
O380 O 0.8667 0.35862 0.69116 0.0
O381 O 0.86946 0.32847 0.6794 0.0
O382 O 0.87236 0.3753 0.71814 0.0
O383 O 0.83963 0.30069 0.70166 0.0
O384 O 0.84475 0.32743 0.71536 0.0
C385 C 0.86685 0.34982 0.68067 0.0
C386 C 0.91029 0.3098 0.70828 0.0
O387 O 0.90349 0.32977 0.71131 0.0
O388 O 0.89816 0.29748 0.70143 0.0
C389 C 0.88836 0.38222 0.72501 0.0
O390 O 0.90659 0.36934 0.72652 0.0
C391 C 0.83343 0.31043 0.71128 0.0
Zn392 Zn 0.44703 0.89454 0.05188 0.0
Zn393 Zn 0.41232 0.88519 0.03734 0.0
O394 O 0.39731 0.89649 0.05324 0.0
O395 O 0.42644 0.90611 0.06477 0.0
O396 O 0.38465 0.88086 0.02649 0.0
O397 O 0.46022 0.91677 0.04038 0.0
O398 O 0.43185 0.90908 0.02798 0.0
C399 C 0.4051 0.90476 0.06303 0.0
C400 C 0.44648 0.8475 0.044 0.0
O401 O 0.42849 0.85357 0.03829 0.0
O402 O 0.45689 0.86171 0.05064 0.0
C403 C 0.36687 0.87009 0.02996 0.0
O404 O 0.36692 0.8604 0.04063 0.0
C405 C 0.45032 0.91985 0.03041 0.0
Zn406 Zn 0.83856 0.68016 0.80358 0.0
Zn407 Zn 0.85059 0.64594 0.78949 0.0
O408 O 0.84142 0.63122 0.80588 0.0
O409 O 0.82847 0.65978 0.81687 0.0
O410 O 0.85696 0.6179 0.77923 0.0
O411 O 0.81574 0.69157 0.79188 0.0
O412 O 0.82598 0.6637 0.77969 0.0
C413 C 0.83242 0.63865 0.81558 0.0
C414 C 0.88565 0.68274 0.79564 0.0
O415 O 0.88073 0.66434 0.79 0.0
O416 O 0.87084 0.69217 0.80234 0.0
C417 C 0.87295 0.60396 0.78186 0.0
O418 O 0.88622 0.6085 0.7911 0.0
C419 C 0.81397 0.68151 0.78186 0.0
Zn420 Zn 0.03714 0.10644 0.54759 0.0
Zn421 Zn 0.07603 0.11449 0.53582 0.0
O422 O 0.08641 0.10698 0.55321 0.0
O423 O 0.05412 0.10017 0.56282 0.0
O424 O 0.10604 0.11961 0.52699 0.0
O425 O 0.03007 0.0802 0.53699 0.0
O426 O 0.06154 0.08703 0.52667 0.0
C427 C 0.07575 0.10132 0.56277 0.0
C428 C 0.03839 0.15132 0.53727 0.0
O429 O 0.05846 0.14526 0.53401 0.0
O430 O 0.02582 0.13767 0.54315 0.0
C431 C 0.12276 0.106 0.52875 0.0
O432 O 0.12013 0.08885 0.53628 0.0
C433 C 0.04342 0.07526 0.52843 0.0
Zn434 Zn 0.66042 0.3337 0.30667 0.0
Zn435 Zn 0.6434 0.36641 0.29309 0.0
O436 O 0.65015 0.38181 0.30969 0.0
O437 O 0.66558 0.35425 0.32055 0.0
O438 O 0.63399 0.39346 0.28268 0.0
O439 O 0.68636 0.32772 0.29575 0.0
O440 O 0.67076 0.35279 0.28344 0.0
C441 C 0.65936 0.37485 0.31944 0.0
C442 C 0.61466 0.32389 0.29788 0.0
O443 O 0.6161 0.34376 0.29312 0.0
O444 O 0.63107 0.31615 0.30414 0.0
C445 C 0.62233 0.41018 0.28675 0.0
O446 O 0.61479 0.40933 0.29788 0.0
C447 C 0.68625 0.33798 0.28575 0.0
H448 H 0.93744 0.57354 0.98352 0.0
H449 H 0.95742 0.54635 0.99668 0.0
H450 H 0.00333 0.529 0.96768 0.0
H451 H 0.98383 0.55612 0.95459 0.0
H452 H 0.96492 0.50046 0.99519 0.0
H453 H 0.05689 0.52064 0.97879 0.0
H454 H 0.07866 0.55305 0.97029 0.0
H455 H 0.03272 0.60056 0.98723 0.0
H456 H 0.01087 0.56847 0.99597 0.0
H457 H 0.0723 0.43156 0.01345 0.0
H458 H 0.05495 0.46063 0.00031 0.0
H459 H 0.01061 0.48176 0.02928 0.0
H460 H 0.02755 0.45292 0.04234 0.0
H461 H 0.04873 0.50831 0.00163 0.0
H462 H 0.95693 0.48842 0.01815 0.0
H463 H 0.93518 0.45614 0.0268 0.0
H464 H 0.98072 0.40838 0.00976 0.0
H465 H 0.00252 0.44035 0.00086 0.0
C466 C 0.95168 0.5638 0.97994 0.0
C467 C 0.95918 0.56715 0.96805 0.0
C468 C 0.96308 0.54832 0.98746 0.0
C469 C 0.98213 0.53604 0.98321 0.0
C470 C 0.98901 0.5387 0.97122 0.0
C471 C 0.97774 0.55416 0.96374 0.0
C472 C 0.99497 0.52047 0.99126 0.0
C473 C 0.98317 0.50238 0.99674 0.0
C474 C 0.01891 0.52267 0.993 0.0
C475 C 0.03211 0.54212 0.98792 0.0
C476 C 0.05149 0.53801 0.98073 0.0
C477 C 0.06384 0.55632 0.97587 0.0
C478 C 0.05703 0.57884 0.97818 0.0
C479 C 0.03792 0.5831 0.9854 0.0
C480 C 0.02553 0.56485 0.9903 0.0
C481 C 0.05913 0.44268 0.01705 0.0
C482 C 0.05104 0.43973 0.02886 0.0
C483 C 0.04924 0.45923 0.00955 0.0
C484 C 0.03119 0.47294 0.01378 0.0
C485 C 0.0242 0.47101 0.02579 0.0
C486 C 0.03394 0.45452 0.03324 0.0
C487 C 0.01863 0.48842 0.00558 0.0
C488 C 0.03048 0.50644 6e-05 0.0
C489 C 0.99471 0.48619 0.0038 0.0
C490 C 0.98149 0.4668 0.00895 0.0
C491 C 0.96224 0.47103 0.01621 0.0
C492 C 0.94991 0.45279 0.02116 0.0
C493 C 0.95661 0.43023 0.01886 0.0
C494 C 0.9756 0.42586 0.01157 0.0
C495 C 0.98797 0.44404 0.00658 0.0
H496 H 0.94706 0.41613 0.02271 0.0
H497 H 0.06661 0.59299 0.9744 0.0
H498 H 0.72273 0.70956 0.21957 0.0
H499 H 0.74539 0.72529 0.23587 0.0
H500 H 0.69742 0.69812 0.26175 0.0
H501 H 0.67425 0.68231 0.2452 0.0
H502 H 0.70477 0.74325 0.26521 0.0
H503 H 0.75219 0.67862 0.26199 0.0
H504 H 0.77431 0.64779 0.25228 0.0
H505 H 0.81941 0.69754 0.23654 0.0
H506 H 0.79738 0.72873 0.24599 0.0
H507 H 0.79367 0.79486 0.30474 0.0
H508 H 0.76547 0.7686 0.296 0.0
H509 H 0.78298 0.79263 0.2605 0.0
H510 H 0.81087 0.8192 0.26913 0.0
H511 H 0.78965 0.74186 0.26714 0.0
H512 H 0.73537 0.80585 0.26784 0.0
H513 H 0.71288 0.83566 0.27821 0.0
H514 H 0.68096 0.78434 0.30023 0.0
H515 H 0.70353 0.75424 0.2901 0.0
C516 C 0.71726 0.70643 0.22874 0.0
C517 C 0.69671 0.69486 0.23115 0.0
C518 C 0.73032 0.71531 0.23807 0.0
C519 C 0.72319 0.71275 0.25004 0.0
C520 C 0.70324 0.70016 0.25256 0.0
C521 C 0.69014 0.69104 0.24314 0.0
C522 C 0.73543 0.72569 0.2595 0.0
C523 C 0.72329 0.7425 0.26592 0.0
C524 C 0.75958 0.72474 0.26041 0.0
C525 C 0.77306 0.70606 0.25471 0.0
C526 C 0.76674 0.68302 0.2564 0.0
C527 C 0.77928 0.66547 0.25095 0.0
C528 C 0.79825 0.6707 0.2438 0.0
C529 C 0.80473 0.69351 0.2421 0.0
C530 C 0.79224 0.71114 0.24753 0.0
C531 C 0.79101 0.79502 0.29509 0.0
C532 C 0.8046 0.80892 0.28759 0.0
C533 C 0.77495 0.78002 0.29014 0.0
C534 C 0.77244 0.77863 0.27765 0.0
C535 C 0.78482 0.79354 0.27019 0.0
C536 C 0.80062 0.80879 0.27513 0.0
C537 C 0.75903 0.75996 0.2722 0.0
C538 C 0.77108 0.74209 0.26666 0.0
C539 C 0.73487 0.75974 0.27227 0.0
C540 C 0.72137 0.77784 0.27834 0.0
C541 C 0.72376 0.80095 0.27499 0.0
C542 C 0.71095 0.81789 0.2808 0.0
C543 C 0.69557 0.81191 0.2899 0.0
C544 C 0.69292 0.78896 0.2932 0.0
C545 C 0.70571 0.77195 0.28742 0.0
H546 H 0.68566 0.82505 0.29438 0.0
H547 H 0.80793 0.65709 0.23958 0.0
H548 H 0.5617 0.42035 0.48087 0.0
H549 H 0.5354 0.44684 0.49075 0.0
H550 H 0.4806 0.42445 0.46755 0.0
H551 H 0.50681 0.39793 0.45752 0.0
H552 H 0.48256 0.47245 0.47088 0.0
H553 H 0.48258 0.40372 0.49474 0.0
H554 H 0.50093 0.3721 0.50591 0.0
H555 H 0.53142 0.42024 0.53024 0.0
H556 H 0.5139 0.45222 0.51907 0.0
H557 H 0.41732 0.54621 0.51011 0.0
H558 H 0.42643 0.51159 0.49843 0.0
H559 H 0.49075 0.50561 0.51734 0.0
H560 H 0.48166 0.53914 0.52909 0.0
H561 H 0.47279 0.46534 0.51504 0.0
H562 H 0.48511 0.53176 0.48886 0.0
H563 H 0.47227 0.5659 0.47763 0.0
H564 H 0.42361 0.52493 0.45825 0.0
H565 H 0.43604 0.49058 0.46947 0.0
C566 C 0.54413 0.42118 0.47777 0.0
C567 C 0.53633 0.40695 0.46845 0.0
C568 C 0.5291 0.43623 0.48347 0.0
C569 C 0.50602 0.43723 0.47998 0.0
C570 C 0.49834 0.42376 0.47038 0.0
C571 C 0.51336 0.40866 0.46468 0.0
C572 C 0.48999 0.45218 0.48659 0.0
C573 C 0.47995 0.47067 0.4805 0.0
C574 C 0.48679 0.44979 0.49914 0.0
C575 C 0.49692 0.43043 0.50603 0.0
C576 C 0.49329 0.4076 0.50243 0.0
C577 C 0.50355 0.38961 0.50876 0.0
C578 C 0.51725 0.39416 0.51877 0.0
C579 C 0.52077 0.41673 0.52249 0.0
C580 C 0.51068 0.4348 0.51616 0.0
C581 C 0.43326 0.5373 0.51182 0.0
C582 C 0.4488 0.54551 0.52047 0.0
C583 C 0.43846 0.5176 0.50514 0.0
C584 C 0.45933 0.50609 0.50698 0.0
C585 C 0.47447 0.51405 0.51581 0.0
C586 C 0.46926 0.53341 0.52249 0.0
C587 C 0.46662 0.48645 0.49948 0.0
C588 C 0.47481 0.46681 0.50537 0.0
C589 C 0.46869 0.48812 0.48683 0.0
C590 C 0.46126 0.50872 0.4801 0.0
C591 C 0.47156 0.53009 0.48226 0.0
C592 C 0.46438 0.54946 0.47589 0.0
C593 C 0.44707 0.5476 0.46726 0.0
C594 C 0.43697 0.52635 0.46496 0.0
C595 C 0.44406 0.50693 0.47131 0.0
H596 H 0.44154 0.56262 0.46234 0.0
H597 H 0.52515 0.38019 0.52365 0.0
H598 H 0.80037 0.28216 0.70271 0.0
H599 H 0.77277 0.26006 0.7143 0.0
H600 H 0.79569 0.29299 0.74689 0.0
H601 H 0.82373 0.3152 0.73527 0.0
H602 H 0.79539 0.24601 0.74862 0.0
H603 H 0.74359 0.30479 0.73601 0.0
H604 H 0.72433 0.33053 0.72162 0.0
H605 H 0.69717 0.27248 0.70269 0.0
H606 H 0.71654 0.24636 0.71687 0.0
H607 H 0.7058 0.20908 0.78679 0.0
H608 H 0.73537 0.22778 0.7749 0.0
H609 H 0.71008 0.19447 0.74291 0.0
H610 H 0.68006 0.17573 0.75483 0.0
H611 H 0.712 0.24067 0.74051 0.0
H612 H 0.76292 0.18181 0.75362 0.0
H613 H 0.78202 0.15625 0.76816 0.0
H614 H 0.8107 0.21447 0.78631 0.0
H615 H 0.79151 0.24042 0.77198 0.0
C616 C 0.79932 0.28502 0.71232 0.0
C617 C 0.81429 0.30032 0.71811 0.0
C618 C 0.78347 0.27242 0.71892 0.0
C619 C 0.78221 0.27491 0.73144 0.0
C620 C 0.79647 0.29085 0.73722 0.0
C621 C 0.81232 0.30362 0.73058 0.0
C622 C 0.76708 0.25966 0.73846 0.0
C623 C 0.77708 0.24507 0.74701 0.0
C624 C 0.74338 0.25794 0.736 0.0
C625 C 0.7317 0.27361 0.72745 0.0
C626 C 0.73368 0.2975 0.72872 0.0
C627 C 0.7227 0.31217 0.72061 0.0
C628 C 0.70958 0.30315 0.71123 0.0
C629 C 0.70736 0.27944 0.70996 0.0
C630 C 0.71832 0.2647 0.71803 0.0
C631 C 0.70685 0.20528 0.77727 0.0
C632 C 0.69051 0.19114 0.7717 0.0
C633 C 0.72385 0.2159 0.7705 0.0
C634 C 0.72489 0.21252 0.75803 0.0
C635 C 0.7095 0.19727 0.75253 0.0
C636 C 0.69249 0.18648 0.75935 0.0
C637 C 0.74028 0.227 0.75071 0.0
C638 C 0.73033 0.2415 0.7421 0.0
C639 C 0.764 0.22864 0.75313 0.0
C640 C 0.77561 0.21308 0.76177 0.0
C641 C 0.77314 0.18919 0.76077 0.0
C642 C 0.78402 0.17462 0.76896 0.0
C643 C 0.79753 0.18373 0.77816 0.0
C644 C 0.80022 0.20743 0.77918 0.0
C645 C 0.78937 0.22208 0.77101 0.0
H646 H 0.80594 0.17243 0.78449 0.0
H647 H 0.7011 0.31453 0.70497 0.0
H648 H 0.92312 0.44246 0.50735 0.0
H649 H 0.94521 0.46106 0.49132 0.0
H650 H 0.97799 0.50432 0.51766 0.0
H651 H 0.95591 0.48613 0.53358 0.0
H652 H 0.97246 0.52684 0.49701 0.0
H653 H 0.00062 0.45258 0.51008 0.0
H654 H 0.99782 0.4109 0.51345 0.0
H655 H 0.98597 0.40033 0.47573 0.0
H656 H 0.98838 0.44202 0.47218 0.0
H657 H 0.0819 0.552 0.47892 0.0
H658 H 0.05404 0.52877 0.48982 0.0
H659 H 0.02602 0.50463 0.45627 0.0
H660 H 0.05376 0.52792 0.44523 0.0
H661 H 0.02553 0.47181 0.47739 0.0
H662 H 0.00183 0.54788 0.46471 0.0
H663 H 0.0081 0.58947 0.46247 0.0
H664 H 0.01426 0.59629 0.50079 0.0
H665 H 0.00827 0.55473 0.50323 0.0
C666 C 0.9344 0.45654 0.50963 0.0
C667 C 0.93811 0.46267 0.5217 0.0
C668 C 0.94714 0.46699 0.50049 0.0
C669 C 0.96361 0.48365 0.50337 0.0
C670 C 0.9655 0.49138 0.51526 0.0
C671 C 0.95289 0.48095 0.52435 0.0
C672 C 0.98087 0.49121 0.49448 0.0
C673 C 0.98395 0.51479 0.49267 0.0
C674 C 0.99581 0.47545 0.48876 0.0
C675 C 0.99437 0.45042 0.49089 0.0
C676 C 0.99723 0.44138 0.50252 0.0
C677 C 0.99574 0.41776 0.50446 0.0
C678 C 0.99165 0.40298 0.49482 0.0
C679 C 0.98908 0.4118 0.4832 0.0
C680 C 0.9905 0.43542 0.48122 0.0
C681 C 0.07049 0.54104 0.47383 0.0
C682 C 0.06966 0.54217 0.46122 0.0
C683 C 0.05452 0.52785 0.48008 0.0
C684 C 0.03776 0.5155 0.47379 0.0
C685 C 0.03877 0.51423 0.46123 0.0
C686 C 0.05462 0.52757 0.45496 0.0
C687 C 0.01724 0.50731 0.48019 0.0
C688 C 0.01363 0.48374 0.4815 0.0
C689 C 0.00193 0.52304 0.48557 0.0
C690 C 0.00476 0.54817 0.48414 0.0
C691 C 0.00461 0.55825 0.47265 0.0
C692 C 0.00809 0.58183 0.47134 0.0
C693 C 0.01157 0.59554 0.48148 0.0
C694 C 0.0115 0.58569 0.49294 0.0
C695 C 0.00803 0.56213 0.49429 0.0
H696 H 0.01432 0.61377 0.48045 0.0
H697 H 0.99053 0.38469 0.49633 0.0
H698 H 0.71193 0.79123 0.69587 0.0
H699 H 0.74145 0.76944 0.70637 0.0
H700 H 0.72396 0.80341 0.73956 0.0
H701 H 0.69432 0.82543 0.7291 0.0
H702 H 0.77133 0.79235 0.73746 0.0
H703 H 0.6966 0.75663 0.73303 0.0
H704 H 0.66352 0.74294 0.72126 0.0
H705 H 0.70754 0.698 0.70124 0.0
H706 H 0.74096 0.71173 0.71278 0.0
H707 H 0.78377 0.71643 0.78469 0.0
H708 H 0.76654 0.73982 0.76903 0.0
H709 H 0.79542 0.69581 0.74184 0.0
H710 H 0.81323 0.67216 0.75759 0.0
H711 H 0.74803 0.7105 0.73804 0.0
H712 H 0.82194 0.74171 0.74521 0.0
H713 H 0.85445 0.75519 0.75745 0.0
H714 H 0.81233 0.8082 0.77252 0.0
H715 H 0.77943 0.7948 0.76052 0.0
C716 C 0.71479 0.79459 0.70534 0.0
C717 C 0.70048 0.80968 0.71174 0.0
C718 C 0.73168 0.78211 0.7113 0.0
C719 C 0.73446 0.78448 0.72376 0.0
C720 C 0.72193 0.8013 0.72993 0.0
C721 C 0.70501 0.81387 0.72395 0.0
C722 C 0.74773 0.76727 0.73058 0.0
C723 C 0.7663 0.77447 0.7376 0.0
C724 C 0.74139 0.74384 0.7305 0.0
C725 C 0.7213 0.7354 0.72365 0.0
C726 C 0.69924 0.74396 0.72605 0.0
C727 C 0.68043 0.73618 0.71943 0.0
C728 C 0.68344 0.71966 0.71048 0.0
C729 C 0.70525 0.71084 0.70815 0.0
C730 C 0.72413 0.71861 0.71473 0.0
C731 C 0.7863 0.71145 0.7754 0.0
C732 C 0.80012 0.69257 0.77238 0.0
C733 C 0.7765 0.72493 0.76647 0.0
C734 C 0.78021 0.71979 0.75433 0.0
C735 C 0.79264 0.7001 0.7512 0.0
C736 C 0.80266 0.68658 0.76019 0.0
C737 C 0.77138 0.73564 0.74509 0.0
C738 C 0.75351 0.72825 0.73766 0.0
C739 C 0.77838 0.75886 0.7448 0.0
C740 C 0.79815 0.76713 0.75201 0.0
C741 C 0.81954 0.75613 0.7512 0.0
C742 C 0.83806 0.76378 0.75809 0.0
C743 C 0.83545 0.78252 0.76577 0.0
C744 C 0.81433 0.79368 0.76657 0.0
C745 C 0.79574 0.78608 0.75971 0.0
H746 H 0.84981 0.78842 0.7711 0.0
H747 H 0.66885 0.71365 0.70536 0.0
H748 H 0.43278 0.43185 0.99186 0.0
H749 H 0.46001 0.45275 0.00458 0.0
H750 H 0.47688 0.49681 0.97468 0.0
H751 H 0.45018 0.47576 0.96195 0.0
H752 H 0.51431 0.47732 0.98364 0.0
H753 H 0.44873 0.51702 -0.00042 0.0
H754 H 0.41066 0.52031 0.00902 0.0
H755 H 0.43525 0.48463 0.04025 0.0
H756 H 0.47341 0.48086 0.03092 0.0
H757 H 0.58069 0.5633 0.01337 0.0
H758 H 0.55547 0.53873 0.00143 0.0
H759 H 0.54207 0.4971 0.03274 0.0
H760 H 0.56685 0.52182 0.04472 0.0
H761 H 0.50342 0.51321 0.02362 0.0
H762 H 0.56959 0.47514 0.00809 0.0
H763 H 0.6077 0.47205 -0.00133 0.0
H764 H 0.58218 0.50465 0.96674 0.0
H765 H 0.54397 0.50823 0.97602 0.0
C766 C 0.44172 0.44652 0.98816 0.0
C767 C 0.43954 0.45217 0.97594 0.0
C768 C 0.45735 0.45836 0.9954 0.0
C769 C 0.47065 0.47617 0.99052 0.0
C770 C 0.46701 0.48296 0.97858 0.0
C771 C 0.45163 0.47104 0.97135 0.0
C772 C 0.48985 0.48634 0.99739 0.0
C773 C 0.5119 0.48544 0.99233 0.0
C774 C 0.4868 0.4962 0.00887 0.0
C775 C 0.46386 0.49844 0.01449 0.0
C776 C 0.44597 0.5097 0.00841 0.0
C777 C 0.42439 0.51169 0.01376 0.0
C778 C 0.42052 0.50263 0.02521 0.0
C779 C 0.43826 0.49161 0.03136 0.0
C780 C 0.45987 0.48956 0.02606 0.0
C781 C 0.57307 0.54839 0.01757 0.0
C782 C 0.5755 0.54456 0.02998 0.0
C783 C 0.55858 0.5344 0.01076 0.0
C784 C 0.5467 0.51623 0.01625 0.0
C785 C 0.55088 0.51117 0.02837 0.0
C786 C 0.56514 0.52522 0.03518 0.0
C787 C 0.52788 0.50442 0.00983 0.0
C788 C 0.50589 0.50498 0.01497 0.0
C789 C 0.53099 0.49426 -0.00158 0.0
C790 C 0.55395 0.49213 0.9928 0.0
C791 C 0.57214 0.48182 -0.00091 0.0
C792 C 0.59376 0.47995 0.99377 0.0
C793 C 0.59737 0.48819 0.98213 0.0
C794 C 0.57936 0.49829 0.97577 0.0
C795 C 0.55771 0.50022 0.98105 0.0
H796 H 0.61412 0.48672 0.97802 0.0
H797 H 0.4038 0.50419 0.02934 0.0
H798 H 0.76954 0.21263 0.20184 0.0
H799 H 0.74636 0.23855 0.21401 0.0
H800 H 0.77922 0.21329 0.24615 0.0
H801 H 0.80222 0.18689 0.234 0.0
H802 H 0.73444 0.22433 0.25016 0.0
H803 H 0.80062 0.25935 0.23204 0.0
H804 H 0.82606 0.26987 0.21521 0.0
H805 H 0.77126 0.30738 0.19857 0.0
H806 H 0.74539 0.29678 0.21523 0.0
H807 H 0.72662 0.31592 0.28901 0.0
H808 H 0.74586 0.29156 0.27437 0.0
H809 H 0.70018 0.31553 0.24661 0.0
H810 H 0.68057 0.34003 0.2613 0.0
H811 H 0.74884 0.30574 0.23946 0.0
H812 H 0.68322 0.27163 0.25881 0.0
H813 H 0.65944 0.26185 0.2764 0.0
H814 H 0.71499 0.22298 0.2914 0.0
H815 H 0.73926 0.2329 0.27398 0.0
C816 C 0.77136 0.21213 0.21154 0.0
C817 C 0.78789 0.19802 0.21699 0.0
C818 C 0.75819 0.22702 0.21846 0.0
C819 C 0.7616 0.22827 0.23092 0.0
C820 C 0.77652 0.21268 0.23652 0.0
C821 C 0.78957 0.19756 0.22958 0.0
C822 C 0.75142 0.24728 0.23789 0.0
C823 C 0.73768 0.2421 0.24785 0.0
C824 C 0.75544 0.2705 0.23477 0.0
C825 C 0.77101 0.27707 0.2248 0.0
C826 C 0.79395 0.2697 0.22474 0.0
C827 C 0.80845 0.2757 0.21525 0.0
C828 C 0.80026 0.28924 0.20581 0.0
C829 C 0.77757 0.29686 0.20588 0.0
C830 C 0.76298 0.29087 0.21534 0.0
C831 C 0.72109 0.31659 0.27971 0.0
C832 C 0.70184 0.32954 0.27632 0.0
C833 C 0.73208 0.30263 0.27138 0.0
C834 C 0.72403 0.30144 0.25954 0.0
C835 C 0.70647 0.31621 0.25577 0.0
C836 C 0.69537 0.33024 0.26415 0.0
C837 C 0.73202 0.28271 0.2517 0.0
C838 C 0.74539 0.28795 0.24164 0.0
C839 C 0.7278 0.25954 0.25477 0.0
C840 C 0.71312 0.25318 0.26514 0.0
C841 C 0.69042 0.26115 0.2659 0.0
C842 C 0.67685 0.25556 0.27584 0.0
C843 C 0.68572 0.24184 0.28502 0.0
C844 C 0.70816 0.23363 0.28428 0.0
C845 C 0.72182 0.23921 0.27437 0.0
H846 H 0.67518 0.23754 0.29271 0.0
H847 H 0.81152 0.29387 0.19847 0.0
H848 H 0.3107 0.31737 0.76499 0.0
H849 H 0.28914 0.29229 0.75151 0.0
H850 H 0.2562 0.26078 0.78209 0.0
H851 H 0.27811 0.28537 0.79559 0.0
H852 H 0.27466 0.22928 0.76834 0.0
H853 H 0.22626 0.29421 0.76186 0.0
H854 H 0.21686 0.33435 0.75702 0.0
H855 H 0.24642 0.32636 0.72191 0.0
H856 H 0.25629 0.28624 0.7266 0.0
H857 H 0.19118 0.16592 0.7341 0.0
H858 H 0.21375 0.18892 0.74817 0.0
H859 H 0.25164 0.2178 0.71851 0.0
H860 H 0.22916 0.19504 0.70442 0.0
H861 H 0.23025 0.25033 0.73197 0.0
H862 H 0.27827 0.18475 0.7388 0.0
H863 H 0.28667 0.1445 0.74389 0.0
H864 H 0.25621 0.15368 0.77871 0.0
H865 H 0.24735 0.19392 0.77376 0.0
C866 C 0.29836 0.30557 0.76881 0.0
C867 C 0.29619 0.30317 0.78132 0.0
C868 C 0.28607 0.2912 0.7611 0.0
C869 C 0.27117 0.27456 0.76581 0.0
C870 C 0.26779 0.27334 0.77828 0.0
C871 C 0.28021 0.28749 0.78597 0.0
C872 C 0.26069 0.25712 0.75787 0.0
C873 C 0.26462 0.23388 0.76049 0.0
C874 C 0.24812 0.26314 0.74748 0.0
C875 C 0.24221 0.28727 0.74463 0.0
C876 C 0.23093 0.30106 0.75315 0.0
C877 C 0.22548 0.3238 0.75042 0.0
C878 C 0.23109 0.33292 0.73918 0.0
C879 C 0.24211 0.31928 0.73063 0.0
C880 C 0.24761 0.29654 0.73331 0.0
C881 C 0.20487 0.17654 0.73062 0.0
C882 C 0.20819 0.17896 0.71816 0.0
C883 C 0.2177 0.18973 0.73866 0.0
C884 C 0.23412 0.20526 0.73434 0.0
C885 C 0.23885 0.20609 0.72199 0.0
C886 C 0.22606 0.193 0.71397 0.0
C887 C 0.24432 0.22256 0.74241 0.0
C888 C 0.24028 0.24577 0.73983 0.0
C889 C 0.25662 0.2165 0.75287 0.0
C890 C 0.26194 0.1923 0.75586 0.0
C891 C 0.27318 0.17814 0.7475 0.0
C892 C 0.27806 0.15533 0.75037 0.0
C893 C 0.27192 0.14652 0.7616 0.0
C894 C 0.26093 0.16052 0.77 0.0
C895 C 0.256 0.18333 0.76718 0.0
H896 H 0.27573 0.12886 0.7638 0.0
H897 H 0.22686 0.35052 0.73709 0.0
H898 H 0.21171 0.70405 0.28931 0.0
H899 H 0.24055 0.72585 0.27831 0.0
H900 H 0.21566 0.69782 0.24488 0.0
H901 H 0.18683 0.67563 0.25589 0.0
H902 H 0.26283 0.70527 0.24479 0.0
H903 H 0.19351 0.74636 0.25477 0.0
H904 H 0.16385 0.76083 0.26861 0.0
H905 H 0.21486 0.79836 0.28824 0.0
H906 H 0.2449 0.78381 0.27461 0.0
H907 H 0.28564 0.78948 0.2025 0.0
H908 H 0.26426 0.76525 0.21633 0.0
H909 H 0.29628 0.79889 0.24649 0.0
H910 H 0.31794 0.82346 0.2326 0.0
H911 H 0.24913 0.78872 0.24985 0.0
H912 H 0.31803 0.7505 0.23823 0.0
H913 H 0.34707 0.7362 0.224 0.0
H914 H 0.29659 0.69347 0.20712 0.0
H915 H 0.26713 0.70779 0.22114 0.0
C916 C 0.2128 0.70201 0.27964 0.0
C917 C 0.1968 0.68848 0.27341 0.0
C918 C 0.22925 0.71451 0.27338 0.0
C919 C 0.22977 0.71388 0.26079 0.0
C920 C 0.21536 0.69863 0.25461 0.0
C921 C 0.19895 0.68593 0.2609 0.0
C922 C 0.24326 0.73103 0.25406 0.0
C923 C 0.25978 0.7235 0.24584 0.0
C924 C 0.23954 0.75484 0.25565 0.0
C925 C 0.22147 0.7638 0.26376 0.0
C926 C 0.19842 0.75757 0.26209 0.0
C927 C 0.18154 0.7658 0.26989 0.0
C928 C 0.18748 0.78046 0.27932 0.0
C929 C 0.2103 0.78697 0.28095 0.0
C930 C 0.22726 0.77874 0.27319 0.0
C931 C 0.28789 0.79204 0.21208 0.0
C932 C 0.3037 0.80816 0.21647 0.0
C933 C 0.27573 0.7781 0.21995 0.0
C934 C 0.27919 0.77992 0.23238 0.0
C935 C 0.29361 0.79714 0.23689 0.0
C936 C 0.30586 0.8112 0.22897 0.0
C937 C 0.2685 0.76295 0.24048 0.0
C938 C 0.25244 0.77052 0.24893 0.0
C939 C 0.27262 0.73919 0.23907 0.0
C940 C 0.29033 0.73036 0.23069 0.0
C941 C 0.31307 0.73818 0.23143 0.0
C942 C 0.32962 0.73006 0.22341 0.0
C943 C 0.32367 0.71397 0.21465 0.0
C944 C 0.30117 0.70594 0.21391 0.0
C945 C 0.28455 0.71404 0.2219 0.0
H946 H 0.33651 0.7077 0.20844 0.0
H947 H 0.17438 0.78681 0.28535 0.0
H948 H 0.3074 0.21361 0.29753 0.0
H949 H 0.27836 0.2347 0.2863 0.0
H950 H 0.29771 0.19898 0.25389 0.0
H951 H 0.32663 0.17747 0.26511 0.0
H952 H 0.28462 0.26412 0.26839 0.0
H953 H 0.2519 0.19443 0.23538 0.0
H954 H 0.24527 0.1527 0.23503 0.0
H955 H 0.23716 0.15238 0.27341 0.0
H956 H 0.24343 0.19413 0.27398 0.0
H957 H 0.20815 0.27597 0.21125 0.0
H958 H 0.23637 0.25724 0.22401 0.0
H959 H 0.21114 0.29466 0.25474 0.0
H960 H 0.18276 0.3138 0.24189 0.0
H961 H 0.22544 0.22903 0.24225 0.0
H962 H 0.25616 0.29859 0.27529 0.0
H963 H 0.26252 0.34037 0.27586 0.0
H964 H 0.27402 0.34091 0.23772 0.0
H965 H 0.26803 0.29912 0.23695 0.0
C966 C 0.3053 0.21 0.28803 0.0
C967 C 0.31937 0.19389 0.28219 0.0
C968 C 0.28875 0.22215 0.28163 0.0
C969 C 0.28586 0.21841 0.26928 0.0
C970 C 0.29946 0.20193 0.26346 0.0
C971 C 0.31598 0.18965 0.26988 0.0
C972 C 0.26934 0.2325 0.26238 0.0
C973 C 0.27144 0.25647 0.26281 0.0
C974 C 0.2524 0.22249 0.25498 0.0
C975 C 0.24837 0.19739 0.25472 0.0
C976 C 0.24862 0.18547 0.24374 0.0
C977 C 0.24493 0.16181 0.2435 0.0
C978 C 0.24087 0.14989 0.25419 0.0
C979 C 0.2404 0.16162 0.26514 0.0
C980 C 0.24406 0.18528 0.26543 0.0
C981 C 0.20881 0.28054 0.22069 0.0
C982 C 0.19309 0.2962 0.22561 0.0
C983 C 0.22492 0.26975 0.22797 0.0
C984 C 0.2257 0.2744 0.24032 0.0
C985 C 0.21087 0.29093 0.24519 0.0
C986 C 0.19472 0.30188 0.23786 0.0
C987 C 0.24098 0.26061 0.2481 0.0
C988 C 0.23857 0.23668 0.24787 0.0
C989 C 0.25754 0.27067 0.2557 0.0
C990 C 0.26136 0.29577 0.25605 0.0
C991 C 0.2601 0.30763 0.26704 0.0
C992 C 0.26364 0.33131 0.26739 0.0
C993 C 0.26858 0.3433 0.25682 0.0
C994 C 0.27008 0.33162 0.24589 0.0
C995 C 0.26657 0.30794 0.24548 0.0
H996 H 0.2713 0.36163 0.25712 0.0
H997 H 0.23803 0.13157 0.25399 0.0
H998 H 0.17068 0.81541 0.74983 0.0
H999 H 0.19599 0.79633 0.73524 0.0
H1000 H 0.23493 0.76715 0.76449 0.0
H1001 H 0.21013 0.78615 0.77892 0.0
H1002 H 0.26245 0.77887 0.74643 0.0
H1003 H 0.19007 0.73837 0.75173 0.0
H1004 H 0.14798 0.73501 0.75081 0.0
H1005 H 0.14949 0.74911 0.7129 0.0
H1006 H 0.1916 0.75285 0.71364 0.0
H1007 H 0.31034 0.67544 0.73051 0.0
H1008 H 0.2802 0.69929 0.73927 0.0
H1009 H 0.26324 0.72534 0.70408 0.0
H1010 H 0.29349 0.70173 0.69525 0.0
H1011 H 0.22425 0.71945 0.72155 0.0
H1012 H 0.29835 0.75514 0.71646 0.0
H1013 H 0.34046 0.75596 0.7181 0.0
H1014 H 0.33553 0.74949 0.75649 0.0
H1015 H 0.29336 0.74819 0.75505 0.0
C1016 C 0.18506 0.80544 0.75308 0.0
C1017 C 0.18836 0.80199 0.76546 0.0
C1018 C 0.19936 0.79444 0.74477 0.0
C1019 C 0.21707 0.78004 0.74881 0.0
C1020 C 0.22134 0.77812 0.76117 0.0
C1021 C 0.20709 0.78891 0.76941 0.0
C1022 C 0.23009 0.76518 0.7405 0.0
C1023 C 0.25407 0.76597 0.74095 0.0
C1024 C 0.21915 0.74853 0.73322 0.0
C1025 C 0.1939 0.74618 0.73277 0.0
C1026 C 0.18139 0.74092 0.74322 0.0
C1027 C 0.15755 0.73892 0.74273 0.0
C1028 C 0.14606 0.74192 0.73181 0.0
C1029 C 0.15841 0.74685 0.72136 0.0
C1030 C 0.18225 0.74891 0.7218 0.0
C1031 C 0.29962 0.68555 0.72458 0.0
C1032 C 0.30444 0.68705 0.71224 0.0
C1033 C 0.28248 0.69921 0.72959 0.0
C1034 C 0.26987 0.71426 0.7223 0.0
C1035 C 0.2729 0.71385 0.70982 0.0
C1036 C 0.29021 0.70042 0.70482 0.0
C1037 C 0.25643 0.7328 0.72787 0.0
C1038 C 0.23253 0.7327 0.72683 0.0
C1039 C 0.26739 0.75002 0.7347 0.0
C1040 C 0.29271 0.75137 0.73563 0.0
C1041 C 0.30625 0.75373 0.72524 0.0
C1042 C 0.33013 0.75429 0.72614 0.0
C1043 C 0.34067 0.75273 0.73739 0.0
C1044 C 0.32734 0.75068 0.74778 0.0
C1045 C 0.30345 0.75004 0.74693 0.0
H1046 H 0.35916 0.75315 0.73807 0.0
H1047 H 0.1276 0.74036 0.73145 0.0
H1048 H 0.51003 0.95513 0.52494 0.0
H1049 H 0.49568 0.98485 0.51173 0.0
H1050 H 0.56357 0.99549 0.49752 0.0
H1051 H 0.57839 0.96504 0.51082 0.0
H1052 H 0.53575 0.03715 0.50526 0.0
H1053 H 0.53265 0.97241 0.47923 0.0
H1054 H 0.52502 0.93219 0.47381 0.0
H1055 H 0.45356 0.94159 0.48148 0.0
H1056 H 0.4608 0.98177 0.48714 0.0
H1057 H 0.47753 0.11108 0.46381 0.0
H1058 H 0.50327 0.08261 0.47245 0.0
H1059 H 0.44531 0.04581 0.48681 0.0
H1060 H 0.41928 0.07413 0.47802 0.0
H1061 H 0.47531 0.01744 0.47561 0.0
H1062 H 0.47904 0.07774 0.50539 0.0
H1063 H 0.48519 0.11728 0.51243 0.0
H1064 H 0.55383 0.11598 0.49856 0.0
H1065 H 0.54807 0.07632 0.49146 0.0
C1066 C 0.52208 0.96372 0.51907 0.0
C1067 C 0.54542 0.95771 0.51895 0.0
C1068 C 0.51377 0.98067 0.51148 0.0
C1069 C 0.52854 0.99214 0.50362 0.0
C1070 C 0.55196 0.98664 0.50353 0.0
C1071 C 0.56035 0.9693 0.51109 0.0
C1072 C 0.51882 0.00993 0.49571 0.0
C1073 C 0.52304 0.03295 0.49849 0.0
C1074 C 0.50183 0.00425 0.48715 0.0
C1075 C 0.49731 0.98011 0.48366 0.0
C1076 C 0.51533 0.96587 0.47985 0.0
C1077 C 0.51107 0.94307 0.47671 0.0
C1078 C 0.48882 0.93433 0.47731 0.0
C1079 C 0.47078 0.94838 0.48102 0.0
C1080 C 0.47495 0.97119 0.48417 0.0
C1081 C 0.47019 0.09696 0.46882 0.0
C1082 C 0.44631 0.0948 0.47019 0.0
C1083 C 0.48498 0.08076 0.47379 0.0
C1084 C 0.4762 0.06216 0.48029 0.0
C1085 C 0.4524 0.06004 0.48178 0.0
C1086 C 0.43756 0.07627 0.47681 0.0
C1087 C 0.49175 0.04468 0.4854 0.0
C1088 C 0.4885 0.02174 0.4821 0.0
C1089 C 0.5095 0.05043 0.49353 0.0
C1090 C 0.51304 0.07421 0.49778 0.0
C1091 C 0.49539 0.08595 0.50377 0.0
C1092 C 0.49883 0.10836 0.5078 0.0
C1093 C 0.51985 0.11921 0.50588 0.0
C1094 C 0.53754 0.10758 0.50001 0.0
C1095 C 0.53422 0.08511 0.49602 0.0
H1096 H 0.52246 0.13659 0.50898 0.0
H1097 H 0.48556 0.91668 0.47488 0.0
H1098 H 0.08504 0.93972 0.98368 0.0
H1099 H 0.05895 0.96161 0.9965 0.0
H1100 H 0.0447 0.00755 0.96705 0.0
H1101 H 0.07072 0.98581 0.95421 0.0
H1102 H 0.04108 0.0286 0.98993 0.0
H1103 H 0.01448 0.96183 0.96831 0.0
H1104 H 0.01667 0.92121 0.96232 0.0
H1105 H 0.00816 0.90067 -0.00086 0.0
H1106 H 0.0064 0.94123 0.00538 0.0
H1107 H 0.93188 0.06364 0.00742 0.0
H1108 H 0.95841 0.04405 0.99378 0.0
H1109 H 0.97381 0.99469 0.02153 0.0
H1110 H 0.94736 0.01407 0.03511 0.0
H1111 H 0.97644 0.97587 -0.00118 0.0
H1112 H 0.00378 0.04245 0.0205 0.0
H1113 H 0.00213 0.08303 0.02662 0.0
H1114 H 0.00933 0.10388 0.98977 0.0
H1115 H 0.01062 0.06337 0.98341 0.0
C1116 C 0.07726 0.95515 0.98013 0.0
C1117 C 0.07949 0.96086 0.96792 0.0
C1118 C 0.06223 0.96753 0.98743 0.0
C1119 C 0.04949 0.98574 0.98257 0.0
C1120 C 0.05423 0.99341 0.9709 0.0
C1121 C 0.0691 0.98097 0.96358 0.0
C1122 C 0.02863 0.99397 0.9887 0.0
C1123 C 0.02688 0.01715 0.9918 0.0
C1124 C 0.01013 0.97895 0.99109 0.0
C1125 C 0.01055 0.95455 0.98732 0.0
C1126 C 0.01322 0.94865 0.97514 0.0
C1127 C 0.01439 0.92564 0.9717 0.0
C1128 C 0.01261 0.90837 0.98035 0.0
C1129 C 0.00958 0.91408 0.99245 0.0
C1130 C 0.0085 0.93707 0.99595 0.0
C1131 C 0.94013 0.04801 0.0104 0.0
C1132 C 0.9379 0.0405 0.02234 0.0
C1133 C 0.95542 0.03697 0.00265 0.0
C1134 C 0.96846 0.01833 0.00679 0.0
C1135 C 0.96405 0.00917 0.01821 0.0
C1136 C 0.94894 0.02025 0.02595 0.0
C1137 C 0.98891 0.01049 0.00014 0.0
C1138 C 0.9906 0.98736 0.99692 0.0
C1139 C 0.00734 0.02556 0.99764 0.0
C1140 C 0.00705 0.0499 0.00147 0.0
C1141 C 0.00487 0.05569 0.0137 0.0
C1142 C 0.004 0.07867 0.01721 0.0
C1143 C 0.00557 0.09602 0.00859 0.0
C1144 C 0.00808 0.09042 0.99644 0.0
C1145 C 0.00888 0.06746 0.99287 0.0
H1146 H 0.00488 0.1138 0.01132 0.0
H1147 H 0.01353 0.89057 0.97767 0.0
H1148 H 0.54009 0.04997 0.94849 0.0
H1149 H 0.52162 0.01775 0.9585 0.0
H1150 H 0.55956 0.03225 0.99091 0.0
H1151 H 0.57838 0.06457 0.9809 0.0
H1152 H 0.55383 0.98536 0.98671 0.0
H1153 H 0.50778 0.05438 0.98765 0.0
H1154 H 0.48769 0.08721 0.9785 0.0
H1155 H 0.44576 0.04122 0.95792 0.0
H1156 H 0.46586 0.0081 0.96684 0.0
H1157 H 0.48643 0.94818 0.03421 0.0
H1158 H 0.50702 0.97107 0.01955 0.0
H1159 H 0.46034 0.94923 0.99175 0.0
H1160 H 0.43925 0.92607 0.00654 0.0
H1161 H 0.46976 0.99557 0.99096 0.0
H1162 H 0.51235 0.92624 0.99239 0.0
H1163 H 0.5322 0.89367 0.00191 0.0
H1164 H 0.58042 0.93977 0.01815 0.0
H1165 H 0.56066 0.97267 0.00887 0.0
C1166 C 0.54485 0.0461 0.95769 0.0
C1167 C 0.56041 0.06005 0.96399 0.0
C1168 C 0.53426 0.02767 0.96338 0.0
C1169 C 0.53891 0.02297 0.97549 0.0
C1170 C 0.5557 0.03574 0.98155 0.0
C1171 C 0.56642 0.05419 0.97584 0.0
C1172 C 0.52474 0.00625 0.98213 0.0
C1173 C 0.53548 0.98759 0.9877 0.0
C1174 C 0.5007 0.0089 0.98309 0.0
C1175 C 0.4885 0.02879 0.9778 0.0
C1176 C 0.4944 0.05128 0.9811 0.0
C1177 C 0.48299 0.06994 0.97597 0.0
C1178 C 0.46551 0.06631 0.9676 0.0
C1179 C 0.45934 0.04401 0.96438 0.0
C1180 C 0.47073 0.02529 0.96947 0.0
C1181 C 0.4804 0.9482 0.025 0.0
C1182 C 0.46129 0.93513 0.02152 0.0
C1183 C 0.49232 0.96122 0.01661 0.0
C1184 C 0.48552 0.96139 0.00453 0.0
C1185 C 0.46596 0.94908 0.00104 0.0
C1186 C 0.45392 0.93595 0.00948 0.0
C1187 C 0.4989 0.97488 0.99576 0.0
C1188 C 0.48804 0.99301 0.98979 0.0
C1189 C 0.52283 0.97171 0.99444 0.0
C1190 C 0.53492 0.95195 -2e-05 0.0
C1191 C 0.52709 0.92946 0.99805 0.0
C1192 C 0.53835 0.91093 0.0034 0.0
C1193 C 0.55754 0.91465 0.01065 0.0
C1194 C 0.56555 0.93691 0.01254 0.0
C1195 C 0.55435 0.95551 0.00722 0.0
H1196 H 0.56623 0.90028 0.01478 0.0
H1197 H 0.45669 0.08077 0.96364 0.0
H1198 H 0.01303 0.04166 0.53348 0.0
H1199 H 0.00061 0.01055 0.52063 0.0
H1200 H 0.0474 0.03276 0.49294 0.0
H1201 H 0.06006 0.06454 0.50592 0.0
H1202 H 0.00321 0.02449 0.48448 0.0
H1203 H 0.05917 0.98441 0.50682 0.0
H1204 H 0.08083 0.97201 0.52471 0.0
H1205 H 0.02013 0.94132 0.53938 0.0
H1206 H 0.99799 0.95383 0.52167 0.0
H1207 H 0.97216 0.91956 0.45399 0.0
H1208 H 0.99363 0.95074 0.46335 0.0
H1209 H 0.95081 0.94603 0.49486 0.0
H1210 H 0.92898 0.91489 0.48549 0.0
H1211 H 0.9995 0.94426 0.49914 0.0
H1212 H 0.94324 0.98924 0.47751 0.0
H1213 H 0.92222 0.0018 0.45944 0.0
H1214 H 0.98535 0.02277 0.44297 0.0
H1215 H 0.00679 0.01002 0.46089 0.0
C1216 C 0.02087 0.03997 0.52469 0.0
C1217 C 0.03748 0.05563 0.52068 0.0
C1218 C 0.01383 0.02203 0.51738 0.0
C1219 C 0.02327 0.01922 0.5059 0.0
C1220 C 0.04004 0.03464 0.50183 0.0
C1221 C 0.04728 0.05267 0.50924 0.0
C1222 C 0.01432 0.00076 0.49814 0.0
C1223 C 0.00289 0.00682 0.4875 0.0
C1224 C 0.01367 0.97781 0.50222 0.0
C1225 C 0.02689 0.97017 0.51292 0.0
C1226 C 0.05039 0.97516 0.5139 0.0
C1227 C 0.06276 0.96809 0.52401 0.0
C1228 C 0.05185 0.95591 0.53318 0.0
C1229 C 0.02855 0.95075 0.53227 0.0
C1230 C 0.01609 0.9578 0.52218 0.0
C1231 C 0.96715 0.9253 0.46287 0.0
C1232 C 0.94896 0.91475 0.46905 0.0
C1233 C 0.9794 0.94313 0.46817 0.0
C1234 C 0.97378 0.95056 0.47977 0.0
C1235 C 0.95535 0.94042 0.48589 0.0
C1236 C 0.94286 0.92276 0.48052 0.0
C1237 C 0.98781 0.96819 0.48575 0.0
C1238 C 0.00021 0.96186 0.49602 0.0
C1239 C 0.98952 0.99078 0.48126 0.0
C1240 C 0.97665 0.9984 0.47048 0.0
C1241 C 0.95267 0.9963 0.46999 0.0
C1242 C 0.94067 0.00351 0.45978 0.0
C1243 C 0.95245 0.013 0.45004 0.0
C1244 C 0.97625 0.01537 0.45051 0.0
C1245 C 0.98833 0.00817 0.46069 0.0
H1246 H 0.94313 0.01859 0.44215 0.0
H1247 H 0.06147 0.95045 0.541 0.0
H1248 H 0.92429 0.17127 0.03604 0.0
H1249 H 0.94672 0.20617 0.03263 0.0
H1250 H 0.00896 0.16887 0.04015 0.0
H1251 H 0.98668 0.1344 0.044 0.0
H1252 H 0.01047 0.20665 0.0515 0.0
H1253 H 0.99308 0.18681 0.01091 0.0
H1254 H 0.96867 0.17631 0.99368 0.0
H1255 H 0.93266 0.24019 0.99673 0.0
H1256 H 0.95666 0.25095 0.01409 0.0
H1257 H 0.07966 0.30316 0.03704 0.0
H1258 H 0.0634 0.26472 0.03389 0.0
H1259 H 0.99549 0.29377 0.03277 0.0
H1260 H 0.01146 0.33183 0.03593 0.0
H1261 H 0.00089 0.25822 0.01638 0.0
H1262 H 0.01569 0.27456 0.0587 0.0
H1263 H 0.04064 0.28473 0.07579 0.0
H1264 H 0.08283 0.226 0.06871 0.0
H1265 H 0.05827 0.21566 0.05147 0.0
C1266 C 0.94276 0.17055 0.03692 0.0
C1267 C 0.95368 0.15015 0.0404 0.0
C1268 C 0.9556 0.19046 0.03488 0.0
C1269 C 0.97962 0.19015 0.03601 0.0
C1270 C 0.99049 0.16963 0.03926 0.0
C1271 C 0.97768 0.14991 0.04148 0.0
C1272 C 0.99342 0.21139 0.03446 0.0
C1273 C 0.00867 0.21761 0.04367 0.0
C1274 C 0.99099 0.22597 0.02434 0.0
C1275 C 0.97656 0.2196 0.01387 0.0
C1276 C 0.97985 0.19855 0.00796 0.0
C1277 C 0.9661 0.19256 0.99816 0.0
C1278 C 0.94909 0.20755 0.99413 0.0
C1279 C 0.94583 0.22859 -0.00013 0.0
C1280 C 0.95952 0.23465 0.00968 0.0
C1281 C 0.06134 0.30133 0.03584 0.0
C1282 C 0.04679 0.3204 0.03689 0.0
C1283 C 0.05207 0.27941 0.03408 0.0
C1284 C 0.02821 0.27641 0.03322 0.0
C1285 C 0.01391 0.29568 0.03341 0.0
C1286 C 0.02308 0.31741 0.0353 0.0
C1287 C 0.01766 0.25331 0.03343 0.0
C1288 C 0.00294 0.24687 0.02404 0.0
C1289 C 0.02069 0.23838 0.04332 0.0
C1290 C 0.03533 0.2445 0.05372 0.0
C1291 C 0.03039 0.26392 0.06074 0.0
C1292 C 0.04444 0.2697 0.07046 0.0
C1293 C 0.06335 0.25606 0.07331 0.0
C1294 C 0.06821 0.23657 0.06647 0.0
C1295 C 0.05423 0.23074 0.05673 0.0
H1296 H 0.07421 0.26056 0.08084 0.0
H1297 H 0.93846 0.20288 0.98654 0.0
H1298 H 0.0558 0.67303 0.27619 0.0
H1299 H 0.02146 0.69549 0.27139 0.0
H1300 H 0.06408 0.75231 0.26056 0.0
H1301 H 0.09816 0.73027 0.26581 0.0
H1302 H 0.03624 0.76594 0.27671 0.0
H1303 H 0.02707 0.7239 0.24048 0.0
H1304 H 0.02462 0.68982 0.22746 0.0
H1305 H 0.96553 0.66657 0.24694 0.0
H1306 H 0.96781 0.70034 0.2602 0.0
H1307 H 0.93542 0.83393 0.27306 0.0
H1308 H 0.96907 0.81383 0.26491 0.0
H1309 H 0.94268 0.74977 0.27841 0.0
H1310 H 0.90935 0.76946 0.28641 0.0
H1311 H 0.96363 0.74385 0.25671 0.0
H1312 H 0.97918 0.78108 0.29519 0.0
H1313 H 0.98186 0.81457 0.30864 0.0
H1314 H 0.02974 0.84633 0.28452 0.0
H1315 H 0.0271 0.81311 0.27085 0.0
C1316 C 0.05775 0.69003 0.2724 0.0
C1317 C 0.07951 0.70004 0.27145 0.0
C1318 C 0.03815 0.70288 0.26963 0.0
C1319 C 0.04014 0.7257 0.26564 0.0
C1320 C 0.06205 0.73486 0.26371 0.0
C1321 C 0.08151 0.72223 0.26668 0.0
C1322 C 0.01981 0.74105 0.26524 0.0
C1323 C 0.02059 0.76134 0.27203 0.0
C1324 C 0.99919 0.73498 0.25935 0.0
C1325 C 0.99771 0.71462 0.25139 0.0
C1326 C 0.01365 0.71144 0.24205 0.0
C1327 C 0.01227 0.69219 0.23462 0.0
C1328 C 0.99495 0.67602 0.23639 0.0
C1329 C 0.97894 0.6791 0.24558 0.0
C1330 C 0.98025 0.69832 0.25305 0.0
C1331 C 0.93667 0.81552 0.27408 0.0
C1332 C 0.91996 0.80335 0.28055 0.0
C1333 C 0.95586 0.80406 0.26943 0.0
C1334 C 0.95845 0.78031 0.27116 0.0
C1335 C 0.94105 0.76805 0.27695 0.0
C1336 C 0.92209 0.77942 0.28163 0.0
C1337 C 0.98019 0.76834 0.26828 0.0
C1338 C 0.9796 0.74866 0.26101 0.0
C1339 C 0.00108 0.7749 0.27371 0.0
C1340 C 0.00272 0.79479 0.28194 0.0
C1341 C 0.99014 0.79529 0.29272 0.0
C1342 C 0.99167 0.8142 0.30039 0.0
C1343 C 0.0059 0.8326 0.29742 0.0
C1344 C 0.01868 0.8321 0.28679 0.0
C1345 C 0.01717 0.81324 0.27908 0.0
H1346 H 0.00707 0.84723 0.30337 0.0
H1347 H 0.99392 0.66113 0.23062 0.0
H1348 H 0.43471 0.6851 0.52649 0.0
H1349 H 0.45337 0.72169 0.52189 0.0
H1350 H 0.5178 0.68661 0.51697 0.0
H1351 H 0.49945 0.65036 0.52204 0.0
H1352 H 0.52374 0.71915 0.53181 0.0
H1353 H 0.48884 0.71466 0.49328 0.0
H1354 H 0.4578 0.7093 0.47851 0.0
H1355 H 0.42218 0.76743 0.49298 0.0
H1356 H 0.45284 0.77297 0.50796 0.0
H1357 H 0.57758 0.82778 0.52325 0.0
H1358 H 0.56377 0.78955 0.51744 0.0
H1359 H 0.49488 0.80915 0.52697 0.0
H1360 H 0.50834 0.84697 0.53271 0.0
H1361 H 0.49589 0.7831 0.50634 0.0
H1362 H 0.52765 0.78169 0.54699 0.0
H1363 H 0.55865 0.78682 0.56183 0.0
H1364 H 0.60058 0.73881 0.54256 0.0
H1365 H 0.56989 0.73362 0.52752 0.0
C1366 C 0.45272 0.68522 0.52415 0.0
C1367 C 0.46571 0.66502 0.52475 0.0
C1368 C 0.46338 0.7061 0.52147 0.0
C1369 C 0.48705 0.70695 0.51907 0.0
C1370 C 0.4996 0.68646 0.51887 0.0
C1371 C 0.48909 0.66576 0.52177 0.0
C1372 C 0.49926 0.72923 0.51824 0.0
C1373 C 0.51795 0.73289 0.52598 0.0
C1374 C 0.4916 0.74737 0.5108 0.0
C1375 C 0.47309 0.74413 0.50181 0.0
C1376 C 0.47431 0.7262 0.49338 0.0
C1377 C 0.45679 0.72315 0.48495 0.0
C1378 C 0.43801 0.73799 0.48482 0.0
C1379 C 0.43673 0.75595 0.4931 0.0
C1380 C 0.4542 0.75907 0.50155 0.0
C1381 C 0.55948 0.82396 0.52397 0.0
C1382 C 0.54412 0.84026 0.52861 0.0
C1383 C 0.55162 0.80218 0.52064 0.0
C1384 C 0.52831 0.79653 0.52184 0.0
C1385 C 0.5129 0.81316 0.52593 0.0
C1386 C 0.5207 0.83473 0.52932 0.0
C1387 C 0.51995 0.77284 0.51999 0.0
C1388 C 0.50196 0.76902 0.51186 0.0
C1389 C 0.52826 0.75444 0.52701 0.0
C1390 C 0.54663 0.75749 0.53606 0.0
C1391 C 0.54356 0.77237 0.54588 0.0
C1392 C 0.56105 0.77526 0.55433 0.0
C1393 C 0.58161 0.76321 0.55311 0.0
C1394 C 0.58468 0.74818 0.54347 0.0
C1395 C 0.56724 0.74525 0.53498 0.0
H1396 H 0.59513 0.76547 0.55967 0.0
H1397 H 0.42447 0.73559 0.47829 0.0
H1398 H 0.55008 0.17343 0.78168 0.0
H1399 H 0.51397 0.19449 0.7799 0.0
H1400 H 0.54989 0.25125 0.76363 0.0
H1401 H 0.58602 0.23063 0.76594 0.0
H1402 H 0.52784 0.26612 0.78164 0.0
H1403 H 0.50688 0.21955 0.74847 0.0
H1404 H 0.50096 0.18404 0.7369 0.0
H1405 H 0.45155 0.16112 0.76285 0.0
H1406 H 0.4574 0.19636 0.77468 0.0
H1407 H 0.42167 0.32945 0.78125 0.0
H1408 H 0.45586 0.30948 0.77374 0.0
H1409 H 0.43711 0.24942 0.79407 0.0
H1410 H 0.40331 0.26903 0.80163 0.0
H1411 H 0.45016 0.23929 0.77045 0.0
H1412 H 0.47684 0.28373 0.80476 0.0
H1413 H 0.48304 0.31954 0.81606 0.0
H1414 H 0.52211 0.34688 0.78665 0.0
H1415 H 0.51588 0.3113 0.77511 0.0
C1416 C 0.55006 0.19004 0.77732 0.0
C1417 C 0.57073 0.20049 0.77399 0.0
C1418 C 0.52941 0.20211 0.7763 0.0
C1419 C 0.52915 0.22457 0.77166 0.0
C1420 C 0.54963 0.23407 0.76733 0.0
C1421 C 0.57024 0.22223 0.76858 0.0
C1422 C 0.50848 0.23927 0.77297 0.0
C1423 C 0.51095 0.26043 0.77888 0.0
C1424 C 0.48632 0.23182 0.76959 0.0
C1425 C 0.48271 0.21057 0.76251 0.0
C1426 C 0.49488 0.20687 0.75176 0.0
C1427 C 0.49151 0.1868 0.74515 0.0
C1428 C 0.47592 0.17032 0.74915 0.0
C1429 C 0.46362 0.1739 0.75976 0.0
C1430 C 0.46694 0.19395 0.76642 0.0
C1431 C 0.42492 0.31203 0.78415 0.0
C1432 C 0.4098 0.30091 0.79209 0.0
C1433 C 0.44438 0.30064 0.77983 0.0
C1434 C 0.4489 0.27794 0.78332 0.0
C1435 C 0.43382 0.26685 0.79119 0.0
C1436 C 0.41459 0.27822 0.79559 0.0
C1437 C 0.46971 0.26571 0.77921 0.0
C1438 C 0.4672 0.24506 0.77287 0.0
C1439 C 0.49188 0.27366 0.78208 0.0
C1440 C 0.49565 0.295 0.78902 0.0
C1441 C 0.48658 0.29746 0.80067 0.0
C1442 C 0.49013 0.31769 0.80712 0.0
C1443 C 0.50289 0.33551 0.80206 0.0
C1444 C 0.51219 0.33309 0.79055 0.0
C1445 C 0.50866 0.3129 0.78405 0.0
H1446 H 0.50563 0.35116 0.80708 0.0
H1447 H 0.47333 0.15479 0.74401 0.0
H1448 H 0.95047 0.81559 0.48611 0.0
H1449 H 0.97305 0.78229 0.49242 0.0
H1450 H 0.93891 0.74094 0.46575 0.0
H1451 H 0.91649 0.77431 0.45939 0.0
H1452 H 0.95344 0.71594 0.48731 0.0
H1453 H 0.98224 0.76975 0.45673 0.0
H1454 H 0.99298 0.8086 0.45006 0.0
H1455 H 0.04123 0.81365 0.4791 0.0
H1456 H 0.03045 0.77493 0.48605 0.0
H1457 H 0.02128 0.64244 0.45481 0.0
H1458 H 0.99692 0.67156 0.46353 0.0
H1459 H 0.05459 0.69937 0.4829 0.0
H1460 H 0.07959 0.67 0.47394 0.0
H1461 H 0.03142 0.73234 0.47167 0.0
H1462 H 0.01023 0.67438 0.49887 0.0
H1463 H 0.99977 0.63569 0.5058 0.0
H1464 H 0.9387 0.63784 0.48431 0.0
H1465 H 0.94878 0.67661 0.47725 0.0
C1466 C 0.94692 0.79906 0.48208 0.0
C1467 C 0.93162 0.79728 0.47239 0.0
C1468 C 0.95992 0.78012 0.48563 0.0
C1469 C 0.9578 0.75926 0.47946 0.0
C1470 C 0.94069 0.75686 0.47067 0.0
C1471 C 0.92782 0.77587 0.46707 0.0
C1472 C 0.97608 0.74172 0.48027 0.0
C1473 C 0.97055 0.71946 0.48398 0.0
C1474 C 0.99861 0.74656 0.47628 0.0
C1475 C 0.00535 0.76962 0.47199 0.0
C1476 C 0.99502 0.77923 0.46174 0.0
C1477 C 0.00112 0.8012 0.4579 0.0
C1478 C 0.01773 0.81362 0.46418 0.0
C1479 C 0.02833 0.80404 0.47427 0.0
C1480 C 0.02223 0.78209 0.47816 0.0
C1481 C 0.02893 0.65462 0.46096 0.0
C1482 C 0.0525 0.654 0.46358 0.0
C1483 C 0.01482 0.67114 0.46609 0.0
C1484 C 0.02378 0.68743 0.47406 0.0
C1485 C 0.04727 0.6868 0.47686 0.0
C1486 C 0.06153 0.67008 0.47172 0.0
C1487 C 0.00867 0.7062 0.47836 0.0
C1488 C 0.01468 0.7288 0.47549 0.0
C1489 C 0.9867 0.70165 0.48324 0.0
C1490 C 0.98031 0.67841 0.48751 0.0
C1491 C 0.99461 0.66658 0.49559 0.0
C1492 C 0.98872 0.64464 0.49955 0.0
C1493 C 0.96862 0.63426 0.49547 0.0
C1494 C 0.95426 0.6459 0.48747 0.0
C1495 C 0.96 0.66792 0.48353 0.0
H1496 H 0.96416 0.61722 0.4985 0.0
H1497 H 0.02243 0.83063 0.4612 0.0
H1498 H 0.5619 0.8228 0.71841 0.0
H1499 H 0.52912 0.80031 0.72561 0.0
H1500 H 0.57113 0.73944 0.7259 0.0
H1501 H 0.60341 0.76159 0.7183 0.0
H1502 H 0.53533 0.73206 0.71321 0.0
H1503 H 0.54785 0.7634 0.75222 0.0
H1504 H 0.55419 0.79359 0.76735 0.0
H1505 H 0.48884 0.82327 0.75888 0.0
H1506 H 0.48223 0.79344 0.74357 0.0
H1507 H 0.4395 0.66412 0.72481 0.0
H1508 H 0.47569 0.68203 0.73097 0.0
H1509 H 0.44512 0.74889 0.72698 0.0
H1510 H 0.40909 0.73124 0.72106 0.0
H1511 H 0.47758 0.74921 0.74465 0.0
H1512 H 0.46993 0.72347 0.70312 0.0
H1513 H 0.4632 0.69424 0.68749 0.0
H1514 H 0.52012 0.65499 0.70072 0.0
H1515 H 0.52697 0.68388 0.71653 0.0
C1516 C 0.56419 0.80474 0.72029 0.0
C1517 C 0.58501 0.79383 0.71764 0.0
C1518 C 0.54551 0.79189 0.72447 0.0
C1519 C 0.54762 0.76811 0.72629 0.0
C1520 C 0.56899 0.75768 0.72448 0.0
C1521 C 0.58742 0.77036 0.72013 0.0
C1522 C 0.5271 0.75355 0.7284 0.0
C1523 C 0.52307 0.7355 0.72032 0.0
C1524 C 0.51074 0.75827 0.73747 0.0
C1525 C 0.51462 0.77625 0.74668 0.0
C1526 C 0.5349 0.77646 0.75352 0.0
C1527 C 0.53853 0.7935 0.76214 0.0
C1528 C 0.52195 0.81036 0.76406 0.0
C1529 C 0.50168 0.8102 0.75738 0.0
C1530 C 0.49797 0.79321 0.74874 0.0
C1531 C 0.44032 0.68259 0.72565 0.0
C1532 C 0.42167 0.69631 0.72219 0.0
C1533 C 0.46099 0.69281 0.72914 0.0
C1534 C 0.4632 0.71682 0.72919 0.0
C1535 C 0.44386 0.73037 0.72696 0.0
C1536 C 0.42331 0.72022 0.72346 0.0
C1537 C 0.48604 0.72794 0.72947 0.0
C1538 C 0.49033 0.74545 0.73784 0.0
C1539 C 0.50273 0.72287 0.72065 0.0
C1540 C 0.49878 0.70565 0.71108 0.0
C1541 C 0.48091 0.70852 0.70273 0.0
C1542 C 0.47709 0.69204 0.69384 0.0
C1543 C 0.49118 0.67273 0.69314 0.0
C1544 C 0.50918 0.66992 0.7013 0.0
C1545 C 0.51304 0.68634 0.71022 0.0
H1546 H 0.48819 0.65998 0.68625 0.0
H1547 H 0.52479 0.82354 0.77074 0.0
H1548 H 0.5204 0.16139 0.97367 0.0
H1549 H 0.49809 0.19607 0.97746 0.0
H1550 H 0.55427 0.23728 0.9645 0.0
H1551 H 0.57706 0.20246 0.96123 0.0
H1552 H 0.53087 0.26021 0.9813 0.0
H1553 H 0.51182 0.21803 0.94544 0.0
H1554 H 0.50026 0.18389 0.93388 0.0
H1555 H 0.4372 0.18047 0.95368 0.0
H1556 H 0.44856 0.21443 0.96548 0.0
H1557 H 0.47584 0.35074 0.95122 0.0
H1558 H 0.49655 0.31598 0.95643 0.0
H1559 H 0.43629 0.28906 0.97382 0.0
H1560 H 0.41521 0.32427 0.96873 0.0
H1561 H 0.45886 0.25826 0.95755 0.0
H1562 H 0.4771 0.30557 0.99124 0.0
H1563 H 0.48964 0.3409 0.00143 0.0
H1564 H 0.55526 0.33614 0.98417 0.0
H1565 H 0.54299 0.30096 0.97372 0.0
C1566 C 0.52826 0.17793 0.97206 0.0
C1567 C 0.55035 0.17937 0.96713 0.0
C1568 C 0.51545 0.19771 0.97414 0.0
C1569 C 0.52423 0.21923 0.9709 0.0
C1570 C 0.54709 0.22084 0.96698 0.0
C1571 C 0.56014 0.20099 0.96515 0.0
C1572 C 0.50882 0.23947 0.97025 0.0
C1573 C 0.51518 0.25981 0.97608 0.0
C1574 C 0.48809 0.23888 0.96358 0.0
C1575 C 0.48115 0.21859 0.95643 0.0
C1576 C 0.49556 0.2099 0.94738 0.0
C1577 C 0.48904 0.1906 0.94078 0.0
C1578 C 0.46804 0.17997 0.94307 0.0
C1579 C 0.45348 0.18868 0.95194 0.0
C1580 C 0.45995 0.20796 0.95858 0.0
C1581 C 0.46684 0.33747 0.95613 0.0
C1582 C 0.44379 0.3403 0.95954 0.0
C1583 C 0.47883 0.31767 0.95918 0.0
C1584 C 0.46806 0.30012 0.96565 0.0
C1585 C 0.44493 0.30255 0.9689 0.0
C1586 C 0.43292 0.32261 0.96597 0.0
C1587 C 0.48103 0.27899 0.96851 0.0
C1588 C 0.47429 0.25851 0.963 0.0
C1589 C 0.50154 0.2796 0.9753 0.0
C1590 C 0.50905 0.30069 0.98163 0.0
C1591 C 0.49414 0.31214 0.98954 0.0
C1592 C 0.50122 0.33213 0.99538 0.0
C1593 C 0.52322 0.34078 0.99343 0.0
C1594 C 0.53822 0.32942 0.98567 0.0
C1595 C 0.53122 0.30944 0.97979 0.0
H1596 H 0.52866 0.35626 0.99796 0.0
H1597 H 0.46302 0.16503 0.93795 0.0
H1598 H 0.0884 0.25793 0.22318 0.0
H1599 H 0.05125 0.23932 0.22557 0.0
H1600 H 0.01736 0.30222 0.21557 0.0
H1601 H 0.05477 0.32125 0.21369 0.0
H1602 H 0.99188 0.27877 0.23156 0.0
H1603 H 0.03017 0.26154 0.19445 0.0
H1604 H 0.06216 0.24852 0.18169 0.0
H1605 H 0.05952 0.18207 0.19821 0.0
H1606 H 0.0277 0.19481 0.2112 0.0
H1607 H 0.89442 0.23465 0.20144 0.0
H1608 H 0.93034 0.25275 0.20724 0.0
H1609 H 0.95499 0.18832 0.22114 0.0
H1610 H 0.91869 0.16993 0.21543 0.0
H1611 H 0.98521 0.21065 0.20507 0.0
H1612 H 0.94246 0.22826 0.24055 0.0
H1613 H 0.90933 0.24252 0.25207 0.0
H1614 H 0.91879 0.30965 0.23708 0.0
H1615 H 0.95179 0.29572 0.22532 0.0
C1616 C 0.07298 0.26795 0.22181 0.0
C1617 C 0.07435 0.29092 0.21813 0.0
C1618 C 0.05178 0.25728 0.22312 0.0
C1619 C 0.03155 0.26918 0.22039 0.0
C1620 C 0.03278 0.29267 0.21763 0.0
C1621 C 0.0541 0.30354 0.21657 0.0
C1622 C 0.0096 0.25651 0.21924 0.0
C1623 C 0.99036 0.26398 0.22571 0.0
C1624 C 0.00769 0.23696 0.21174 0.0
C1625 C 0.02673 0.22921 0.20389 0.0
C1626 C 0.03652 0.24421 0.19542 0.0
C1627 C 0.05461 0.23687 0.18814 0.0
C1628 C 0.06291 0.2145 0.18916 0.0
C1629 C 0.0531 0.1994 0.19744 0.0
C1630 C 0.03503 0.20667 0.20477 0.0
C1631 C 0.9074 0.22427 0.20577 0.0
C1632 C 0.90376 0.20079 0.20791 0.0
C1633 C 0.92786 0.23473 0.20918 0.0
C1634 C 0.9452 0.22193 0.21472 0.0
C1635 C 0.94169 0.19849 0.21693 0.0
C1636 C 0.921 0.18803 0.21367 0.0
C1637 C 0.96751 0.2329 0.21737 0.0
C1638 C 0.98681 0.22521 0.21108 0.0
C1639 C 0.9693 0.25241 0.22488 0.0
C1640 C 0.94952 0.26089 0.23198 0.0
C1641 C 0.93737 0.24602 0.23963 0.0
C1642 C 0.91863 0.25405 0.24622 0.0
C1643 C 0.91193 0.27696 0.24529 0.0
C1644 C 0.92399 0.2919 0.23779 0.0
C1645 C 0.94274 0.28395 0.23117 0.0
H1646 H 0.89741 0.28315 0.2504 0.0
H1647 H 0.07691 0.20885 0.18351 0.0
H1648 H 0.92322 0.69986 0.95908 0.0
H1649 H 0.94037 0.73786 0.96263 0.0
H1650 H 0.00752 0.70977 0.956 0.0
H1651 H 0.99067 0.67229 0.95224 0.0
H1652 H 0.00502 0.74033 0.97631 0.0
H1653 H 0.98272 0.73478 0.93393 0.0
H1654 H 0.95444 0.72935 0.91769 0.0
H1655 H 0.91519 0.78613 0.93104 0.0
H1656 H 0.94313 0.79168 0.94746 0.0
H1657 H 0.08241 0.82622 0.95765 0.0
H1658 H 0.05809 0.7927 0.96107 0.0
H1659 H 0.99783 0.8352 0.95794 0.0
H1660 H 0.02204 0.86843 0.95401 0.0
H1661 H 0.99142 0.79988 0.94528 0.0
H1662 H 0.01608 0.81041 0.98551 0.0
H1663 H 0.04313 0.81651 0.00223 0.0
H1664 H 0.07564 0.7522 0.9945 0.0
H1665 H 0.049 0.74584 0.97762 0.0
C1666 C 0.94163 0.70184 0.9585 0.0
C1667 C 0.95559 0.68322 0.95526 0.0
C1668 C 0.95139 0.72347 0.96053 0.0
C1669 C 0.97521 0.72654 0.95957 0.0
C1670 C 0.98914 0.70773 0.95683 0.0
C1671 C 0.97943 0.68637 0.95459 0.0
C1672 C 0.98587 0.74949 0.96049 0.0
C1673 C 0.00209 0.75345 0.96957 0.0
C1674 C 0.98151 0.76674 0.95188 0.0
C1675 C 0.96482 0.76345 0.942 0.0
C1676 C 0.96795 0.74597 0.93346 0.0
C1677 C 0.95201 0.7429 0.92422 0.0
C1678 C 0.93298 0.75734 0.92336 0.0
C1679 C 0.9299 0.77493 0.93173 0.0
C1680 C 0.94578 0.77804 0.94101 0.0
C1681 C 0.06399 0.8284 0.95783 0.0
C1682 C 0.05413 0.84986 0.95546 0.0
C1683 C 0.05006 0.80927 0.95986 0.0
C1684 C 0.02603 0.81138 0.95988 0.0
C1685 C 0.01626 0.83303 0.95792 0.0
C1686 C 0.03014 0.85203 0.95567 0.0
C1687 C 0.01111 0.7908 0.96103 0.0
C1688 C 0.9941 0.78718 0.95227 0.0
C1689 C 0.01454 0.77403 0.97007 0.0
C1690 C 0.03062 0.77773 0.98023 0.0
C1691 C 0.0291 0.79764 0.98732 0.0
C1692 C 0.04435 0.80113 0.99683 0.0
C1693 C 0.06112 0.78477 -0.00059 0.0
C1694 C 0.06265 0.76486 0.99249 0.0
C1695 C 0.04745 0.76129 0.98295 0.0
H1696 H 0.07291 0.78751 0.00679 0.0
H1697 H 0.92066 0.75494 0.9162 0.0
H1698 H 0.95077 0.3326 0.7122 0.0
H1699 H 0.98858 0.31488 0.71538 0.0
H1700 H 0.95691 0.24818 0.7168 0.0
H1701 H 0.91949 0.26562 0.7135 0.0
H1702 H 0.99388 0.2529 0.73305 0.0
H1703 H 0.97483 0.26633 0.69084 0.0
H1704 H 0.96422 0.291 0.6737 0.0
H1705 H 0.02478 0.33142 0.67916 0.0
H1706 H 0.03557 0.30714 0.69645 0.0
H1707 H 0.07477 0.17126 0.71172 0.0
H1708 H 0.04168 0.19566 0.71625 0.0
H1709 H 0.0812 0.2556 0.70693 0.0
H1710 H 0.11375 0.23137 0.70194 0.0
H1711 H 0.04264 0.25861 0.69664 0.0
H1712 H 0.06537 0.24176 0.73686 0.0
H1713 H 0.07624 0.21758 0.75413 0.0
H1714 H 0.01041 0.18485 0.75318 0.0
H1715 H 0.99924 0.20861 0.73579 0.0
C1716 C 0.95191 0.31425 0.71351 0.0
C1717 C 0.93234 0.30041 0.71246 0.0
C1718 C 0.97344 0.30415 0.7153 0.0
C1719 C 0.97549 0.2802 0.71623 0.0
C1720 C 0.9557 0.26666 0.71613 0.0
C1721 C 0.93436 0.27664 0.71416 0.0
C1722 C 0.99809 0.26874 0.71571 0.0
C1723 C 0.00465 0.25413 0.72513 0.0
C1724 C 0.01224 0.27067 0.70545 0.0
C1725 C 0.00584 0.28513 0.69501 0.0
C1726 C 0.98578 0.28059 0.68844 0.0
C1727 C 0.97975 0.29448 0.67869 0.0
C1728 C 0.99378 0.31281 0.67537 0.0
C1729 C 0.0139 0.31725 0.68176 0.0
C1730 C 0.01998 0.30343 0.69154 0.0
C1731 C 0.07637 0.18965 0.71072 0.0
C1732 C 0.09676 0.19937 0.70636 0.0
C1733 C 0.05753 0.20362 0.7134 0.0
C1734 C 0.05897 0.22756 0.71204 0.0
C1735 C 0.07957 0.23722 0.70801 0.0
C1736 C 0.09818 0.22331 0.70514 0.0
C1737 C 0.03865 0.2425 0.71399 0.0
C1738 C 0.03235 0.25767 0.70475 0.0
C1739 C 0.02492 0.24117 0.72448 0.0
C1740 C 0.03154 0.22686 0.73495 0.0
C1741 C 0.05327 0.22929 0.74027 0.0
C1742 C 0.05947 0.21567 0.75009 0.0
C1743 C 0.04404 0.19965 0.75473 0.0
C1744 C 0.02235 0.19725 0.74957 0.0
C1745 C 0.01606 0.21081 0.73974 0.0
H1746 H 0.04888 0.18913 0.76234 0.0
H1747 H 0.98909 0.32354 0.66782 0.0
H1748 H 0.56198 0.27226 0.46082 0.0
H1749 H 0.53183 0.24943 0.47003 0.0
H1750 H 0.52752 0.29762 0.49935 0.0
H1751 H 0.55807 0.32046 0.49015 0.0
H1752 H 0.51587 0.22888 0.49043 0.0
H1753 H 0.46641 0.31176 0.49982 0.0
H1754 H 0.46822 0.35331 0.49582 0.0
H1755 H 0.50684 0.34083 0.46362 0.0
H1756 H 0.50428 0.29919 0.46712 0.0
H1757 H 0.40612 0.18549 0.4863 0.0
H1758 H 0.43127 0.21204 0.49706 0.0
H1759 H 0.44024 0.2512 0.46447 0.0
H1760 H 0.41506 0.22501 0.4538 0.0
H1761 H 0.44751 0.27785 0.48376 0.0
H1762 H 0.47227 0.20145 0.46904 0.0
H1763 H 0.46949 0.15923 0.46916 0.0
H1764 H 0.48092 0.15863 0.50733 0.0
H1765 H 0.48373 0.20079 0.50739 0.0
C1766 C 0.55557 0.27724 0.46958 0.0
C1767 C 0.56212 0.29817 0.47472 0.0
C1768 C 0.53825 0.26422 0.47485 0.0
C1769 C 0.52703 0.27217 0.48521 0.0
C1770 C 0.53583 0.29133 0.49129 0.0
C1771 C 0.55344 0.30425 0.48607 0.0
C1772 C 0.50373 0.26334 0.48777 0.0
C1773 C 0.50087 0.23969 0.48939 0.0
C1774 C 0.4841 0.2774 0.48623 0.0
C1775 C 0.48571 0.30239 0.48393 0.0
C1776 C 0.4753 0.3179 0.49189 0.0
C1777 C 0.47636 0.34146 0.48968 0.0
C1778 C 0.48792 0.34973 0.47957 0.0
C1779 C 0.49807 0.33442 0.47151 0.0
C1780 C 0.49673 0.31083 0.47358 0.0
C1781 C 0.41239 0.20052 0.48162 0.0
C1782 C 0.4091 0.20297 0.46915 0.0
C1783 C 0.42694 0.21558 0.48776 0.0
C1784 C 0.43821 0.23314 0.48147 0.0
C1785 C 0.43193 0.23765 0.46951 0.0
C1786 C 0.41751 0.22264 0.46339 0.0
C1787 C 0.45979 0.24337 0.48604 0.0
C1788 C 0.46235 0.26723 0.48564 0.0
C1789 C 0.47924 0.2295 0.48832 0.0
C1790 C 0.47802 0.20418 0.48824 0.0
C1791 C 0.47418 0.19225 0.47744 0.0
C1792 C 0.4726 0.16835 0.47748 0.0
C1793 C 0.47502 0.15621 0.48824 0.0
C1794 C 0.47909 0.16798 0.49898 0.0
C1795 C 0.48069 0.19188 0.49899 0.0
H1796 H 0.47375 0.13771 0.48826 0.0
H1797 H 0.48887 0.36799 0.47793 0.0
H1798 H 0.43364 0.83761 0.20657 0.0
H1799 H 0.47081 0.81887 0.21004 0.0
H1800 H 0.44211 0.75423 0.19887 0.0
H1801 H 0.40532 0.77271 0.19522 0.0
H1802 H 0.46975 0.75189 0.22022 0.0
H1803 H 0.47138 0.78131 0.17934 0.0
H1804 H 0.46836 0.81182 0.16406 0.0
H1805 H 0.52265 0.849 0.18131 0.0
H1806 H 0.52576 0.81884 0.19679 0.0
H1807 H 0.56737 0.68321 0.20653 0.0
H1808 H 0.53061 0.70354 0.20717 0.0
H1809 H 0.56645 0.76808 0.20952 0.0
H1810 H 0.60292 0.748 0.20833 0.0
H1811 H 0.53526 0.77229 0.19391 0.0
H1812 H 0.53646 0.74273 0.23399 0.0
H1813 H 0.53973 0.71339 0.24986 0.0
H1814 H 0.48117 0.67824 0.23554 0.0
H1815 H 0.47773 0.70721 0.21948 0.0
C1816 C 0.43529 0.81941 0.20491 0.0
C1817 C 0.41665 0.80668 0.20052 0.0
C1818 C 0.45646 0.80874 0.2069 0.0
C1819 C 0.45912 0.78518 0.20469 0.0
C1820 C 0.44036 0.7724 0.20065 0.0
C1821 C 0.4194 0.78305 0.19849 0.0
C1822 C 0.48165 0.77386 0.20598 0.0
C1823 C 0.48412 0.75622 0.21446 0.0
C1824 C 0.50041 0.77991 0.19863 0.0
C1825 C 0.49861 0.79797 0.1893 0.0
C1826 C 0.48253 0.7961 0.17993 0.0
C1827 C 0.48083 0.8133 0.17122 0.0
C1828 C 0.49525 0.83237 0.17174 0.0
C1829 C 0.51146 0.83425 0.18094 0.0
C1830 C 0.5132 0.8171 0.18968 0.0
C1831 C 0.56732 0.70171 0.20728 0.0
C1832 C 0.58797 0.71403 0.20728 0.0
C1833 C 0.54633 0.71333 0.20771 0.0
C1834 C 0.5457 0.7374 0.20848 0.0
C1835 C 0.56641 0.74956 0.20885 0.0
C1836 C 0.58727 0.73804 0.20818 0.0
C1837 C 0.52364 0.75015 0.20822 0.0
C1838 C 0.52114 0.76803 0.19985 0.0
C1839 C 0.50498 0.74449 0.21581 0.0
C1840 C 0.50697 0.72704 0.22546 0.0
C1841 C 0.52438 0.72865 0.23417 0.0
C1842 C 0.52625 0.7121 0.24321 0.0
C1843 C 0.5107 0.69393 0.24369 0.0
C1844 C 0.49322 0.6923 0.23515 0.0
C1845 C 0.49128 0.7088 0.22608 0.0
H1846 H 0.51217 0.68113 0.2507 0.0
H1847 H 0.49392 0.84567 0.16499 0.0
H1848 H 0.98391 0.36203 0.5435 0.0
H1849 H 0.00055 0.32438 0.53975 0.0
H1850 H 0.93325 0.29688 0.53291 0.0
H1851 H 0.91633 0.33471 0.53659 0.0
H1852 H 0.95935 0.27149 0.54943 0.0
H1853 H 0.96809 0.30418 0.5101 0.0
H1854 H 0.97995 0.33402 0.49569 0.0
H1855 H 0.05008 0.32542 0.50641 0.0
H1856 H 0.0386 0.2958 0.52104 0.0
H1857 H 0.99419 0.16248 0.53304 0.0
H1858 H 0.97771 0.20066 0.53113 0.0
H1859 H 0.04517 0.23043 0.5338 0.0
H1860 H 0.06194 0.19186 0.53523 0.0
H1861 H 0.01868 0.25498 0.51864 0.0
H1862 H 0.01117 0.2256 0.55863 0.0
H1863 H 0.00075 0.19739 0.57422 0.0
H1864 H 0.93018 0.20155 0.56355 0.0
H1865 H 0.94023 0.22956 0.54778 0.0
C1866 C 0.97259 0.34802 0.54115 0.0
C1867 C 0.94875 0.35133 0.5404 0.0
C1868 C 0.98218 0.32656 0.53893 0.0
C1869 C 0.96814 0.30793 0.53596 0.0
C1870 C 0.94435 0.31112 0.53514 0.0
C1871 C 0.93473 0.33271 0.53724 0.0
C1872 C 0.9783 0.2849 0.53441 0.0
C1873 C 0.97198 0.26773 0.54255 0.0
C1874 C 0.99543 0.28037 0.52571 0.0
C1875 C 0.00244 0.29789 0.51675 0.0
C1876 C 0.98602 0.30876 0.50945 0.0
C1877 C 0.99268 0.32563 0.50123 0.0
C1878 C 0.01574 0.33165 0.50015 0.0
C1879 C 0.03221 0.32076 0.50726 0.0
C1880 C 0.02564 0.30391 0.51551 0.0
C1881 C 0.00557 0.17714 0.53304 0.0
C1882 C 0.0293 0.17429 0.53447 0.0
C1883 C 0.99612 0.19895 0.53197 0.0
C1884 C 0.01013 0.21842 0.53266 0.0
C1885 C 0.03402 0.21563 0.53333 0.0
C1886 C 0.04358 0.19364 0.53417 0.0
C1887 C 0.99954 0.24147 0.53362 0.0
C1888 C 0.00588 0.25867 0.52544 0.0
C1889 C 0.98263 0.24623 0.54242 0.0
C1890 C 0.97649 0.22951 0.55195 0.0
C1891 C 0.99345 0.22038 0.55956 0.0
C1892 C 0.98761 0.20444 0.56843 0.0
C1893 C 0.96483 0.19764 0.56985 0.0
C1894 C 0.94783 0.20681 0.56243 0.0
C1895 C 0.95358 0.22273 0.55353 0.0
H1896 H 0.96034 0.1853 0.57673 0.0
H1897 H 0.02085 0.34474 0.49379 0.0
H1898 H 0.42105 0.22966 0.28698 0.0
H1899 H 0.45706 0.25036 0.28457 0.0
H1900 H 0.49441 0.18685 0.28755 0.0
H1901 H 0.45801 0.16583 0.28972 0.0
H1902 H 0.50683 0.22163 0.30444 0.0
H1903 H 0.49733 0.21351 0.26199 0.0
H1904 H 0.47658 0.21522 0.2427 0.0
H1905 H 0.46781 0.28783 0.2468 0.0
H1906 H 0.48821 0.28652 0.26621 0.0
H1907 H 0.61278 0.27769 0.30045 0.0
H1908 H 0.58058 0.25229 0.29674 0.0
H1909 H 0.53883 0.31019 0.28664 0.0
H1910 H 0.57159 0.33586 0.28991 0.0
H1911 H 0.53023 0.2755 0.27217 0.0
H1912 H 0.53468 0.28417 0.3149 0.0
H1913 H 0.55309 0.28407 0.33486 0.0
H1914 H 0.56838 0.21248 0.33112 0.0
H1915 H 0.55032 0.21222 0.31105 0.0
C1916 C 0.43692 0.22003 0.2868 0.0
C1917 C 0.43684 0.19619 0.28855 0.0
C1918 C 0.45746 0.23187 0.28539 0.0
C1919 C 0.47838 0.22014 0.28585 0.0
C1920 C 0.47838 0.19616 0.2871 0.0
C1921 C 0.45767 0.18418 0.28828 0.0
C1922 C 0.49995 0.23347 0.28647 0.0
C1923 C 0.51232 0.233 0.29727 0.0
C1924 C 0.50643 0.249 0.27731 0.0
C1925 C 0.49418 0.24988 0.26561 0.0
C1926 C 0.49081 0.22982 0.25883 0.0
C1927 C 0.47915 0.23072 0.24786 0.0
C1928 C 0.47085 0.25161 0.24354 0.0
C1929 C 0.47424 0.27165 0.25016 0.0
C1930 C 0.48589 0.27084 0.26115 0.0
C1931 C 0.59674 0.28513 0.29748 0.0
C1932 C 0.59465 0.30888 0.29564 0.0
C1933 C 0.5783 0.27052 0.29538 0.0
C1934 C 0.55709 0.27932 0.29166 0.0
C1935 C 0.555 0.303 0.28956 0.0
C1936 C 0.57367 0.31767 0.29148 0.0
C1937 C 0.53713 0.26372 0.29018 0.0
C1938 C 0.52498 0.2639 0.27927 0.0
C1939 C 0.53053 0.24816 0.29934 0.0
C1940 C 0.54136 0.24824 0.31142 0.0
C1941 C 0.54213 0.26845 0.31829 0.0
C1942 C 0.55247 0.26845 0.32963 0.0
C1943 C 0.56196 0.2483 0.33424 0.0
C1944 C 0.56106 0.22808 0.32753 0.0
C1945 C 0.55076 0.228 0.31618 0.0
H1946 H 0.56996 0.24833 0.34303 0.0
H1947 H 0.46182 0.25227 0.23504 0.0
H1948 H 0.49079 0.83562 0.04757 0.0
H1949 H 0.50867 0.79834 0.04473 0.0
H1950 H 0.44375 0.76981 0.03392 0.0
H1951 H 0.42556 0.80763 0.03648 0.0
H1952 H 0.47163 0.74562 0.05344 0.0
H1953 H 0.47664 0.77395 0.01297 0.0
H1954 H 0.48534 0.80288 0.99746 0.0
H1955 H 0.55591 0.80331 0.00833 0.0
H1956 H 0.54757 0.77463 0.02403 0.0
H1957 H 0.52489 0.63992 0.04281 0.0
H1958 H 0.5013 0.67391 0.03979 0.0
H1959 H 0.56223 0.71568 0.03809 0.0
H1960 H 0.58602 0.68127 0.04046 0.0
H1961 H 0.5325 0.73192 0.02311 0.0
H1962 H 0.52878 0.70933 0.06454 0.0
H1963 H 0.52222 0.68315 0.08162 0.0
H1964 H 0.45203 0.67486 0.07091 0.0
H1965 H 0.45827 0.70078 0.05368 0.0
C1966 C 0.4802 0.82147 0.04459 0.0
C1967 C 0.45669 0.82453 0.04231 0.0
C1968 C 0.49052 0.80022 0.0429 0.0
C1969 C 0.47755 0.78145 0.03905 0.0
C1970 C 0.45402 0.78423 0.03685 0.0
C1971 C 0.44368 0.80575 0.03831 0.0
C1972 C 0.48885 0.7589 0.03784 0.0
C1973 C 0.48453 0.74229 0.04663 0.0
C1974 C 0.5063 0.75515 0.02925 0.0
C1975 C 0.51143 0.77225 0.01974 0.0
C1976 C 0.49398 0.78035 0.01212 0.0
C1977 C 0.49885 0.79667 0.00328 0.0
C1978 C 0.52116 0.80496 0.00193 0.0
C1979 C 0.53864 0.79689 0.00939 0.0
C1980 C 0.53386 0.78057 0.01825 0.0
C1981 C 0.53327 0.65634 0.04168 0.0
C1982 C 0.55727 0.65805 0.04202 0.0
C1983 C 0.51976 0.67578 0.04001 0.0
C1984 C 0.52991 0.6975 0.03906 0.0
C1985 C 0.55396 0.69914 0.03888 0.0
C1986 C 0.56756 0.67952 0.04025 0.0
C1987 C 0.51543 0.71848 0.03879 0.0
C1988 C 0.51929 0.73492 0.02979 0.0
C1989 C 0.49787 0.72234 0.04738 0.0
C1990 C 0.49406 0.70678 0.05775 0.0
C1991 C 0.51199 0.70179 0.06578 0.0
C1992 C 0.50833 0.68702 0.07549 0.0
C1993 C 0.48674 0.67729 0.07733 0.0
C1994 C 0.46876 0.68237 0.06947 0.0
C1995 C 0.47234 0.69711 0.05973 0.0
H1996 H 0.48393 0.66587 0.08485 0.0
H1997 H 0.52489 0.81761 0.99508 0.0
H1998 H 0.89776 0.72543 0.80317 0.0
H1999 H 0.93302 0.74618 0.79893 0.0
H2000 H 0.9592 0.68792 0.77947 0.0
H2001 H 0.92363 0.66686 0.78359 0.0
H2002 H 0.99038 0.70804 0.79626 0.0
H2003 H 0.94107 0.73093 0.76381 0.0
H2004 H 0.90522 0.74568 0.755 0.0
H2005 H 0.91391 0.80911 0.77399 0.0
H2006 H 0.94964 0.7946 0.78308 0.0
H2007 H 0.08763 0.76285 0.77524 0.0
H2008 H 0.05086 0.74305 0.77442 0.0
H2009 H 0.01736 0.80299 0.78882 0.0
H2010 H 0.05428 0.82332 0.78907 0.0
H2011 H 0.98944 0.78135 0.77359 0.0
H2012 H 0.03541 0.75911 0.8073 0.0
H2013 H 0.07014 0.74529 0.81764 0.0
H2014 H 0.06644 0.68191 0.79815 0.0
H2015 H 0.03185 0.69549 0.78757 0.0
C2016 C 0.91101 0.71688 0.79804 0.0
C2017 C 0.90785 0.69443 0.79371 0.0
C2018 C 0.93109 0.72888 0.79556 0.0
C2019 C 0.94852 0.71869 0.78875 0.0
C2020 C 0.94581 0.69609 0.78467 0.0
C2021 C 0.92553 0.6841 0.78704 0.0
C2022 C 0.9697 0.73169 0.78615 0.0
C2023 C 0.9903 0.72383 0.7911 0.0
C2024 C 0.9693 0.75271 0.77979 0.0
C2025 C 0.94796 0.76159 0.7742 0.0
C2026 C 0.93526 0.74796 0.76618 0.0
C2027 C 0.91496 0.75629 0.76113 0.0
C2028 C 0.90727 0.7783 0.76395 0.0
C2029 C 0.91988 0.79205 0.77181 0.0
C2030 C 0.94017 0.78379 0.77691 0.0
C2031 C 0.0723 0.77197 0.77796 0.0
C2032 C 0.07368 0.79447 0.78233 0.0
C2033 C 0.05134 0.76061 0.77755 0.0
C2034 C 0.03147 0.77127 0.78192 0.0
C2035 C 0.03252 0.79437 0.7855 0.0
C2036 C 0.05355 0.80598 0.78564 0.0
C2037 C 0.01024 0.75764 0.78366 0.0
C2038 C 0.98961 0.76544 0.77863 0.0
C2039 C 0.01047 0.7367 0.79014 0.0
C2040 C 0.03117 0.72841 0.79656 0.0
C2041 C 0.04209 0.74228 0.80516 0.0
C2042 C 0.06174 0.73449 0.81107 0.0
C2043 C 0.07053 0.71276 0.80853 0.0
C2044 C 0.05964 0.69875 0.8001 0.0
C2045 C 0.04 0.70648 0.79415 0.0
H2046 H 0.08574 0.70675 0.81312 0.0
H2047 H 0.89157 0.78472 0.76002 0.0
H2048 H 0.33807 0.39726 0.98955 0.0
H2049 H 0.30083 0.39498 -0.00036 0.0
H2050 H 0.27434 0.35469 0.97026 0.0
H2051 H 0.31133 0.35703 0.9601 0.0
H2052 H 0.24518 0.38847 0.97616 0.0
H2053 H 0.28717 0.33019 0.99734 0.0
H2054 H 0.31924 0.31457 0.00923 0.0
H2055 H 0.3051 0.36258 0.03752 0.0
H2056 H 0.27312 0.3787 0.02572 0.0
H2057 H 0.14087 0.35158 0.00213 0.0
H2058 H 0.17913 0.35269 0.99325 0.0
H2059 H 0.20395 0.39086 0.02379 0.0
H2060 H 0.1658 0.38944 0.03286 0.0
H2061 H 0.23424 0.35895 0.01761 0.0
H2062 H 0.19241 0.41724 0.99671 0.0
H2063 H 0.16049 0.43343 0.98491 0.0
H2064 H 0.17461 0.38636 0.95619 0.0
H2065 H 0.20643 0.36967 0.96788 0.0
C2066 C 0.32437 0.38778 0.98528 0.0
C2067 C 0.32774 0.37733 0.97401 0.0
C2068 C 0.30309 0.38643 0.99107 0.0
C2069 C 0.28476 0.37455 0.98574 0.0
C2070 C 0.28817 0.36398 0.97455 0.0
C2071 C 0.30941 0.36527 0.96877 0.0
C2072 C 0.26183 0.37367 0.9916 0.0
C2073 C 0.24276 0.38173 0.98517 0.0
C2074 C 0.2587 0.36549 0.00348 0.0
C2075 C 0.27791 0.35581 0.01059 0.0
C2076 C 0.29102 0.33755 0.00605 0.0
C2077 C 0.30916 0.32858 0.01278 0.0
C2078 C 0.31425 0.33762 0.0241 0.0
C2079 C 0.30116 0.35562 0.02874 0.0
C2080 C 0.28302 0.36467 0.02204 0.0
C2081 C 0.15445 0.3602 0.00698 0.0
C2082 C 0.15018 0.37052 0.01819 0.0
C2083 C 0.17634 0.36091 0.00186 0.0
C2084 C 0.19442 0.37216 0.00775 0.0
C2085 C 0.1903 0.38212 0.01904 0.0
C2086 C 0.16843 0.38135 0.0242 0.0
C2087 C 0.21756 0.3736 0.00212 0.0
C2088 C 0.23666 0.3657 0.0086 0.0
C2089 C 0.22076 0.38203 0.99029 0.0
C2090 C 0.20166 0.39205 0.98322 0.0
C2091 C 0.1886 0.41022 0.98791 0.0
C2092 C 0.17054 0.41951 0.98124 0.0
C2093 C 0.16549 0.41088 0.96982 0.0
C2094 C 0.17853 0.393 0.96504 0.0
C2095 C 0.19658 0.38363 0.97168 0.0
H2096 H 0.15151 0.4181 0.96467 0.0
H2097 H 0.32829 0.33065 0.0293 0.0
H2098 H 0.90488 0.08839 0.22337 0.0
H2099 H 0.90648 0.0511 0.23329 0.0
H2100 H 0.83279 0.05059 0.23618 0.0
H2101 H 0.83112 0.08828 0.22658 0.0
H2102 H 0.85047 0.03452 0.25606 0.0
H2103 H 0.86208 0.019 0.21428 0.0
H2104 H 0.88001 0.02312 0.19432 0.0
H2105 H 0.94473 0.00193 0.20893 0.0
H2106 H 0.92725 0.99798 0.22902 0.0
H2107 H 0.84201 0.91488 0.26863 0.0
H2108 H 0.83889 0.95192 0.2584 0.0
H2109 H 0.91242 0.95876 0.25891 0.0
H2110 H 0.91571 0.9218 0.26914 0.0
H2111 H 0.89362 0.97095 0.23698 0.0
H2112 H 0.88104 0.9872 0.27899 0.0
H2113 H 0.86209 0.98247 0.29866 0.0
H2114 H 0.79758 0.00145 0.28299 0.0
H2115 H 0.81611 0.00598 0.26318 0.0
C2116 C 0.889 0.08041 0.22616 0.0
C2117 C 0.86786 0.09129 0.22411 0.0
C2118 C 0.88993 0.05898 0.23177 0.0
C2119 C 0.86972 0.04773 0.23528 0.0
C2120 C 0.84862 0.05883 0.23352 0.0
C2121 C 0.84769 0.08039 0.22802 0.0
C2122 C 0.87062 0.02438 0.24072 0.0
C2123 C 0.85963 0.02056 0.25178 0.0
C2124 C 0.88284 0.00614 0.23527 0.0
C2125 C 0.8934 0.0084 0.22318 0.0
C2126 C 0.88017 0.01538 0.21326 0.0
C2127 C 0.89025 0.01766 0.20191 0.0
C2128 C 0.91351 0.01284 0.20036 0.0
C2129 C 0.92672 0.00568 0.21015 0.0
C2130 C 0.91674 0.0034 0.22151 0.0
C2131 C 0.85753 0.92418 0.2665 0.0
C2132 C 0.87911 0.91539 0.26975 0.0
C2133 C 0.85571 0.9454 0.2607 0.0
C2134 C 0.87542 0.95822 0.258 0.0
C2135 C 0.89699 0.94919 0.26093 0.0
C2136 C 0.89883 0.92807 0.2668 0.0
C2137 C 0.87359 0.98121 0.25231 0.0
C2138 C 0.88441 0.98494 0.24121 0.0
C2139 C 0.86104 0.99928 0.25766 0.0
C2140 C 0.84991 0.99669 0.26958 0.0
C2141 C 0.86278 0.99018 0.27972 0.0
C2142 C 0.85212 0.98757 0.29089 0.0
C2143 C 0.82863 0.9916 0.29207 0.0
C2144 C 0.81577 0.99831 0.28207 0.0
C2145 C 0.82634 0.00092 0.27086 0.0
H2146 H 0.82042 0.98956 0.30073 0.0
H2147 H 0.92128 0.01462 0.19157 0.0
H2148 H 0.19158 0.64669 0.46164 0.0
H2149 H 0.22749 0.64473 0.47286 0.0
H2150 H 0.19778 0.59502 0.49694 0.0
H2151 H 0.16165 0.59689 0.48575 0.0
H2152 H 0.22344 0.62784 0.50897 0.0
H2153 H 0.23249 0.57717 0.47532 0.0
H2154 H 0.2319 0.56631 0.45389 0.0
H2155 H 0.28251 0.61759 0.44613 0.0
H2156 H 0.28315 0.62899 0.4675 0.0
H2157 H 0.32646 0.58361 0.53402 0.0
H2158 H 0.28969 0.58851 0.52386 0.0
H2159 H 0.32071 0.63589 0.49894 0.0
H2160 H 0.35768 0.63096 0.50901 0.0
H2161 H 0.29425 0.60489 0.48741 0.0
H2162 H 0.28593 0.65516 0.52107 0.0
H2163 H 0.28649 0.66627 0.54246 0.0
H2164 H 0.23469 0.61621 0.55023 0.0
H2165 H 0.23405 0.60455 0.5289 0.0
C2166 C 0.19258 0.63543 0.46936 0.0
C2167 C 0.17374 0.62184 0.47275 0.0
C2168 C 0.21317 0.63428 0.47575 0.0
C2169 C 0.21541 0.61954 0.48566 0.0
C2170 C 0.19644 0.60648 0.48931 0.0
C2171 C 0.17583 0.60752 0.48288 0.0
C2172 C 0.23773 0.61735 0.49199 0.0
C2173 C 0.23888 0.62254 0.5043 0.0
C2174 C 0.25797 0.61096 0.48583 0.0
C2175 C 0.25769 0.60409 0.47298 0.0
C2176 C 0.24335 0.58626 0.46902 0.0
C2177 C 0.24303 0.57999 0.45689 0.0
C2178 C 0.25711 0.5913 0.44865 0.0
C2179 C 0.27159 0.60887 0.45252 0.0
C2180 C 0.27195 0.61523 0.46464 0.0
C2181 C 0.32549 0.59514 0.5264 0.0
C2182 C 0.34505 0.6069 0.52234 0.0
C2183 C 0.3044 0.598 0.52063 0.0
C2184 C 0.30236 0.61273 0.5107 0.0
C2185 C 0.32186 0.62446 0.5066 0.0
C2186 C 0.34297 0.62167 0.51239 0.0
C2187 C 0.28002 0.6154 0.50441 0.0
C2188 C 0.27885 0.61025 0.49209 0.0
C2189 C 0.25979 0.62186 0.51057 0.0
C2190 C 0.26012 0.62882 0.5234 0.0
C2191 C 0.2748 0.64638 0.52735 0.0
C2192 C 0.27511 0.6528 0.53946 0.0
C2193 C 0.26068 0.64191 0.5477 0.0
C2194 C 0.24588 0.62461 0.54384 0.0
C2195 C 0.24553 0.6181 0.53174 0.0
H2196 H 0.26094 0.64692 0.55707 0.0
H2197 H 0.25685 0.58641 0.43926 0.0
H2198 H 0.58822 0.06847 0.78423 0.0
H2199 H 0.58969 0.03041 0.77514 0.0
H2200 H 0.64097 0.0539 0.75008 0.0
H2201 H 0.63936 0.09216 0.75901 0.0
H2202 H 0.60959 0.02787 0.73891 0.0
H2203 H 0.65553 0.02134 0.77457 0.0
H2204 H 0.6638 0.02465 0.79625 0.0
H2205 H 0.60884 0.97818 0.8042 0.0
H2206 H 0.60004 0.97483 0.78256 0.0
H2207 H 0.64622 0.9185 0.7187 0.0
H2208 H 0.64497 0.95669 0.72768 0.0
H2209 H 0.59416 0.93354 0.75308 0.0
H2210 H 0.59557 0.89518 0.74429 0.0
H2211 H 0.6255 0.95945 0.76406 0.0
H2212 H 0.57937 0.96609 0.7285 0.0
H2213 H 0.57082 0.9629 0.70684 0.0
H2214 H 0.62586 0.00918 0.69875 0.0
H2215 H 0.63494 0.01241 0.72036 0.0
C2216 C 0.59979 0.0656 0.77676 0.0
C2217 C 0.61375 0.08339 0.77239 0.0
C2218 C 0.60068 0.04376 0.77161 0.0
C2219 C 0.61568 0.03916 0.76203 0.0
C2220 C 0.62931 0.057 0.75748 0.0
C2221 C 0.6284 0.07887 0.76262 0.0
C2222 C 0.61719 0.01575 0.75677 0.0
C2223 C 0.61339 0.01296 0.74439 0.0
C2224 C 0.62163 0.99617 0.76394 0.0
C2225 C 0.62699 0.99801 0.77695 0.0
C2226 C 0.6451 0.01196 0.78094 0.0
C2227 C 0.6499 0.01382 0.79323 0.0
C2228 C 0.63681 0.00168 0.8016 0.0
C2229 C 0.61894 0.98759 0.7977 0.0
C2230 C 0.61406 0.98569 0.78543 0.0
C2231 C 0.63479 0.92149 0.72622 0.0
C2232 C 0.62092 0.90375 0.73074 0.0
C2233 C 0.63402 0.9434 0.73131 0.0
C2234 C 0.61923 0.94812 0.74096 0.0
C2235 C 0.60567 0.93035 0.74563 0.0
C2236 C 0.60646 0.90842 0.74056 0.0
C2237 C 0.61789 0.97157 0.7462 0.0
C2238 C 0.62172 0.97436 0.75858 0.0
C2239 C 0.61346 0.99115 0.73903 0.0
C2240 C 0.60797 0.98931 0.72604 0.0
C2241 C 0.58976 0.97545 0.72209 0.0
C2242 C 0.5848 0.97366 0.70983 0.0
C2243 C 0.59782 0.98578 0.70142 0.0
C2244 C 0.6158 0.99977 0.70527 0.0
C2245 C 0.62085 0.00161 0.71752 0.0
H2246 H 0.59396 0.98436 0.69193 0.0
H2247 H 0.64055 0.00315 0.8111 0.0
H2248 H 0.66381 0.63372 0.01387 0.0
H2249 H 0.69876 0.64144 0.00232 0.0
H2250 H 0.7342 0.58865 0.02209 0.0
H2251 H 0.69953 0.58089 0.03365 0.0
H2252 H 0.75992 0.62735 0.02023 0.0
H2253 H 0.71589 0.57898 0.99375 0.0
H2254 H 0.68187 0.5679 0.98196 0.0
H2255 H 0.68683 0.63009 0.96149 0.0
H2256 H 0.72072 0.64169 0.97327 0.0
H2257 H 0.85792 0.6087 0.9839 0.0
H2258 H 0.82244 0.60539 0.99542 0.0
H2259 H 0.7903 0.65524 0.97226 0.0
H2260 H 0.82558 0.65828 0.96053 0.0
H2261 H 0.76224 0.62063 0.97577 0.0
H2262 H 0.80707 0.66853 0.00142 0.0
H2263 H 0.84092 0.68018 0.01317 0.0
H2264 H 0.8343 0.62015 0.03524 0.0
H2265 H 0.80057 0.60798 0.0235 0.0
C2266 C 0.67904 0.62374 0.01575 0.0
C2267 C 0.67881 0.60664 0.02467 0.0
C2268 C 0.69899 0.62813 0.00912 0.0
C2269 C 0.7191 0.61553 0.01129 0.0
C2270 C 0.71893 0.59861 0.02026 0.0
C2271 C 0.69902 0.59414 0.02683 0.0
C2272 C 0.7404 0.61985 0.00428 0.0
C2273 C 0.76049 0.62567 0.01051 0.0
C2274 C 0.74102 0.61829 0.99158 0.0
C2275 C 0.72068 0.61132 0.98448 0.0
C2276 C 0.70961 0.59039 0.9868 0.0
C2277 C 0.69037 0.58399 0.98011 0.0
C2278 C 0.68215 0.59831 0.97101 0.0
C2279 C 0.69319 0.61903 0.96856 0.0
C2280 C 0.71242 0.62552 0.97523 0.0
C2281 C 0.84337 0.6191 0.9813 0.0
C2282 C 0.84466 0.6338 0.97129 0.0
C2283 C 0.82308 0.61725 0.98793 0.0
C2284 C 0.80369 0.63026 0.98482 0.0
C2285 C 0.80498 0.64503 0.97487 0.0
C2286 C 0.82523 0.64681 0.96818 0.0
C2287 C 0.7819 0.62794 0.99172 0.0
C2288 C 0.76169 0.62249 0.98547 0.0
C2289 C 0.78114 0.62996 0.00441 0.0
C2290 C 0.80141 0.63724 0.01151 0.0
C2291 C 0.81293 0.65772 0.00872 0.0
C2292 C 0.83208 0.66443 0.01539 0.0
C2293 C 0.83979 0.65089 0.02493 0.0
C2294 C 0.82833 0.63062 0.02784 0.0
C2295 C 0.80917 0.62382 0.02119 0.0
H2296 H 0.85462 0.65611 0.03008 0.0
H2297 H 0.66726 0.59333 0.96583 0.0
H2298 H 0.14692 0.90897 0.76653 0.0
H2299 H 0.147 0.94714 0.75751 0.0
H2300 H 0.07316 0.94796 0.75797 0.0
H2301 H 0.07289 0.90966 0.767 0.0
H2302 H 0.09085 0.96334 0.73641 0.0
H2303 H 0.10195 0.97831 0.77842 0.0
H2304 H 0.12035 0.97391 0.79825 0.0
H2305 H 0.18428 0.99704 0.78353 0.0
H2306 H 0.16634 0.00127 0.76356 0.0
H2307 H 0.08125 0.08139 0.72163 0.0
H2308 H 0.07792 0.04455 0.73196 0.0
H2309 H 0.15135 0.04201 0.73613 0.0
H2310 H 0.15475 0.07909 0.72612 0.0
H2311 H 0.13192 0.02776 0.75595 0.0
H2312 H 0.12221 0.01092 0.71394 0.0
H2313 H 0.10481 0.01465 0.69382 0.0
H2314 H 0.03957 0.99438 0.70813 0.0
H2315 H 0.05654 0.99083 0.72838 0.0
C2316 C 0.13067 0.91721 0.76471 0.0
C2317 C 0.10989 0.90624 0.76753 0.0
C2318 C 0.13076 0.9391 0.7596 0.0
C2319 C 0.11009 0.95053 0.75719 0.0
C2320 C 0.08931 0.93949 0.75979 0.0
C2321 C 0.08919 0.91762 0.76498 0.0
C2322 C 0.11027 0.97394 0.7519 0.0
C2323 C 0.09952 0.97754 0.74077 0.0
C2324 C 0.12202 0.99232 0.75745 0.0
C2325 C 0.13284 0.98991 0.76946 0.0
C2326 C 0.11997 0.98229 0.77939 0.0
C2327 C 0.13032 0.97985 0.79066 0.0
C2328 C 0.15348 0.98514 0.79214 0.0
C2329 C 0.16634 0.99293 0.78236 0.0
C2330 C 0.15609 0.99537 0.77107 0.0
C2331 C 0.09669 0.07305 0.72479 0.0
C2332 C 0.11828 0.08317 0.72299 0.0
C2333 C 0.09477 0.05189 0.73065 0.0
C2334 C 0.11441 0.04024 0.73466 0.0
C2335 C 0.13593 0.05059 0.73311 0.0
C2336 C 0.13785 0.07181 0.72735 0.0
C2337 C 0.11269 0.01719 0.74037 0.0
C2338 C 0.12315 0.01363 0.7516 0.0
C2339 C 0.10081 0.99879 0.73486 0.0
C2340 C 0.09059 0.00085 0.72269 0.0
C2341 C 0.10412 0.00743 0.71281 0.0
C2342 C 0.09434 0.00948 0.70138 0.0
C2343 C 0.07108 0.00482 0.6997 0.0
C2344 C 0.05757 0.99802 0.70945 0.0
C2345 C 0.06726 0.99597 0.7209 0.0
H2346 H 0.06354 0.00641 0.69085 0.0
H2347 H 0.16146 0.98324 0.80087 0.0
H2348 H 0.81062 0.43489 0.53636 0.0
H2349 H 0.77464 0.42537 0.5263 0.0
H2350 H 0.80785 0.36939 0.50797 0.0
H2351 H 0.84401 0.37888 0.51794 0.0
H2352 H 0.78132 0.39458 0.49276 0.0
H2353 H 0.77289 0.35904 0.5314 0.0
H2354 H 0.77286 0.35755 0.55357 0.0
H2355 H 0.71918 0.4078 0.55465 0.0
H2356 H 0.71913 0.40985 0.53248 0.0
H2357 H 0.68285 0.33709 0.47153 0.0
H2358 H 0.71804 0.34667 0.48224 0.0
H2359 H 0.68332 0.40208 0.50028 0.0
H2360 H 0.64783 0.39247 0.48964 0.0
H2361 H 0.71038 0.37776 0.51571 0.0
H2362 H 0.71871 0.41325 0.47711 0.0
H2363 H 0.71888 0.41496 0.45495 0.0
H2364 H 0.77284 0.36501 0.45382 0.0
H2365 H 0.77276 0.36276 0.47598 0.0
C2366 C 0.81031 0.42053 0.5302 0.0
C2367 C 0.83021 0.40762 0.52797 0.0
C2368 C 0.78968 0.41506 0.52449 0.0
C2369 C 0.78849 0.39654 0.51646 0.0
C2370 C 0.80837 0.38374 0.51414 0.0
C2371 C 0.829 0.38915 0.51988 0.0
C2372 C 0.76658 0.39068 0.5104 0.0
C2373 C 0.76589 0.39059 0.49778 0.0
C2374 C 0.74629 0.38606 0.51695 0.0
C2375 C 0.74617 0.38476 0.53028 0.0
C2376 C 0.76121 0.36991 0.53637 0.0
C2377 C 0.76118 0.36894 0.54893 0.0
C2378 C 0.74607 0.38262 0.55551 0.0
C2379 C 0.7309 0.39724 0.54954 0.0
C2380 C 0.73088 0.3983 0.53697 0.0
C2381 C 0.68262 0.3513 0.47779 0.0
C2382 C 0.66251 0.36409 0.47968 0.0
C2383 C 0.70281 0.3568 0.48388 0.0
C2384 C 0.70342 0.37528 0.49195 0.0
C2385 C 0.68327 0.38779 0.49406 0.0
C2386 C 0.66301 0.38231 0.48795 0.0
C2387 C 0.72515 0.38156 0.49808 0.0
C2388 C 0.72581 0.38176 0.5107 0.0
C2389 C 0.74542 0.3863 0.49154 0.0
C2390 C 0.74557 0.38768 0.47821 0.0
C2391 C 0.73049 0.4025 0.47214 0.0
C2392 C 0.73059 0.40359 0.45958 0.0
C2393 C 0.74582 0.39006 0.45298 0.0
C2394 C 0.76102 0.37546 0.45894 0.0
C2395 C 0.76097 0.37428 0.4715 0.0
H2396 H 0.74587 0.39093 0.44326 0.0
H2397 H 0.74607 0.38185 0.56524 0.0
H2398 H 0.3585 0.08861 0.26727 0.0
H2399 H 0.35608 0.0522 0.25645 0.0
H2400 H 0.42925 0.0439 0.25943 0.0
H2401 H 0.43184 0.08026 0.27032 0.0
H2402 H 0.41223 0.03318 0.23648 0.0
H2403 H 0.39616 0.01504 0.27791 0.0
H2404 H 0.37589 0.01916 0.29725 0.0
H2405 H 0.31221 0.00235 0.28005 0.0
H2406 H 0.33208 0.99845 0.26057 0.0
H2407 H 0.42027 0.91608 0.22075 0.0
H2408 H 0.42279 0.9527 0.2313 0.0
H2409 H 0.34905 0.95579 0.23333 0.0
H2410 H 0.34645 0.91879 0.22312 0.0
H2411 H 0.36615 0.96967 0.25366 0.0
H2412 H 0.38083 0.98777 0.2124 0.0
H2413 H 0.39987 0.9845 0.19268 0.0
H2414 H 0.46427 0.00243 0.20878 0.0
H2415 H 0.44567 0.0055 0.22864 0.0
C2416 C 0.37412 0.07915 0.26556 0.0
C2417 C 0.39537 0.08733 0.26971 0.0
C2418 C 0.37268 0.05828 0.25941 0.0
C2419 C 0.39246 0.04522 0.25723 0.0
C2420 C 0.41377 0.05367 0.26103 0.0
C2421 C 0.4152 0.07444 0.26728 0.0
C2422 C 0.39086 0.02253 0.25122 0.0
C2423 C 0.40239 0.01918 0.2403 0.0
C2424 C 0.37752 0.00448 0.25604 0.0
C2425 C 0.36557 0.00668 0.26776 0.0
C2426 C 0.37781 0.01241 0.27824 0.0
C2427 C 0.3664 0.01467 0.28923 0.0
C2428 C 0.34277 0.01108 0.28987 0.0
C2429 C 0.33051 0.00516 0.27953 0.0
C2430 C 0.34184 0.0029 0.26852 0.0
C2431 C 0.40458 0.9245 0.22348 0.0
C2432 C 0.38315 0.91453 0.22103 0.0
C2433 C 0.40603 0.94555 0.22945 0.0
C2434 C 0.3861 0.95732 0.23293 0.0
C2435 C 0.36469 0.94714 0.23072 0.0
C2436 C 0.36323 0.92597 0.22486 0.0
C2437 C 0.38754 0.9802 0.23885 0.0
C2438 C 0.37598 0.98362 0.24979 0.0
C2439 C 0.40066 0.99841 0.23396 0.0
C2440 C 0.41189 0.99664 0.22203 0.0
C2441 C 0.39909 0.99085 0.21175 0.0
C2442 C 0.40979 0.98906 0.20055 0.0
C2443 C 0.43328 0.9932 0.19948 0.0
C2444 C 0.44609 0.9992 0.20962 0.0
C2445 C 0.43547 0.00098 0.22085 0.0
H2446 H 0.44153 0.99181 0.1908 0.0
H2447 H 0.33396 0.01284 0.29839 0.0
H2448 H 0.80816 0.8368 0.46084 0.0
H2449 H 0.77055 0.84385 0.46966 0.0
H2450 H 0.80063 0.89104 0.49496 0.0
H2451 H 0.83853 0.88396 0.48621 0.0
H2452 H 0.76957 0.86229 0.50574 0.0
H2453 H 0.77147 0.9113 0.47118 0.0
H2454 H 0.77722 0.92079 0.44978 0.0
H2455 H 0.72408 0.87359 0.43987 0.0
H2456 H 0.71823 0.86357 0.46121 0.0
H2457 H 0.66246 0.90765 0.52522 0.0
H2458 H 0.70123 0.90364 0.51715 0.0
H2459 H 0.67566 0.85927 0.48919 0.0
H2460 H 0.63682 0.86357 0.49705 0.0
H2461 H 0.70526 0.88871 0.48006 0.0
H2462 H 0.70438 0.83826 0.51423 0.0
H2463 H 0.69879 0.82778 0.53552 0.0
H2464 H 0.74992 0.87668 0.54606 0.0
H2465 H 0.7556 0.88767 0.52483 0.0
C2466 C 0.80686 0.84867 0.46829 0.0
C2467 C 0.8264 0.85989 0.47278 0.0
C2468 C 0.78528 0.85275 0.4733 0.0
C2469 C 0.7827 0.8682 0.48287 0.0
C2470 C 0.80221 0.87911 0.48755 0.0
C2471 C 0.82385 0.87508 0.48251 0.0
C2472 C 0.75958 0.87289 0.48795 0.0
C2473 C 0.75559 0.86843 0.50018 0.0
C2474 C 0.7412 0.88042 0.48063 0.0
C2475 C 0.74455 0.88654 0.46779 0.0
C2476 C 0.76112 0.90282 0.46444 0.0
C2477 C 0.76438 0.90831 0.45232 0.0
C2478 C 0.75106 0.89776 0.44347 0.0
C2479 C 0.7344 0.88174 0.44673 0.0
C2480 C 0.73109 0.87616 0.45884 0.0
C2481 C 0.66507 0.89705 0.51734 0.0
C2482 C 0.6465 0.88588 0.5118 0.0
C2483 C 0.6873 0.89469 0.51277 0.0
C2484 C 0.69148 0.88091 0.50264 0.0
C2485 C 0.67291 0.86998 0.49702 0.0
C2486 C 0.65069 0.87242 0.50155 0.0
C2487 C 0.71512 0.87788 0.49785 0.0
C2488 C 0.71924 0.88269 0.48566 0.0
C2489 C 0.73358 0.87057 0.50519 0.0
C2490 C 0.73023 0.86396 0.51796 0.0
C2491 C 0.7143 0.8469 0.5211 0.0
C2492 C 0.71114 0.84085 0.53315 0.0
C2493 C 0.72394 0.85161 0.54214 0.0
C2494 C 0.73999 0.8684 0.53909 0.0
C2495 C 0.7432 0.87453 0.52705 0.0
H2496 H 0.72148 0.8469 0.55147 0.0
H2497 H 0.75362 0.90203 0.43409 0.0
H2498 H 0.42028 0.58 0.73024 0.0
H2499 H 0.41749 0.54298 0.74037 0.0
H2500 H 0.34397 0.54461 0.73659 0.0
H2501 H 0.34659 0.58197 0.72669 0.0
H2502 H 0.35491 0.52986 0.75825 0.0
H2503 H 0.37825 0.51075 0.71828 0.0
H2504 H 0.4021 0.51275 0.7 0.0
H2505 H 0.46075 0.49058 0.72021 0.0
H2506 H 0.43731 0.48875 0.73865 0.0
H2507 H 0.33773 0.41176 0.77199 0.0
H2508 H 0.33937 0.44829 0.7612 0.0
H2509 H 0.41216 0.45191 0.76749 0.0
H2510 H 0.4107 0.4154 0.77828 0.0
H2511 H 0.40069 0.46345 0.74419 0.0
H2512 H 0.37665 0.4833 0.78427 0.0
H2513 H 0.35211 0.48085 0.80228 0.0
H2514 H 0.2937 0.50105 0.78132 0.0
H2515 H 0.31785 0.5033 0.76314 0.0
C2516 C 0.40349 0.57252 0.73156 0.0
C2517 C 0.38366 0.58394 0.72759 0.0
C2518 C 0.40193 0.55125 0.73731 0.0
C2519 C 0.38054 0.54075 0.73909 0.0
C2520 C 0.36068 0.55229 0.7353 0.0
C2521 C 0.36221 0.57365 0.72962 0.0
C2522 C 0.37891 0.51784 0.74496 0.0
C2523 C 0.36467 0.51527 0.75505 0.0
C2524 C 0.39193 0.49881 0.74095 0.0
C2525 C 0.40606 0.49982 0.72987 0.0
C2526 C 0.39627 0.50646 0.71884 0.0
C2527 C 0.40971 0.50754 0.70845 0.0
C2528 C 0.43294 0.50185 0.70895 0.0
C2529 C 0.44276 0.49501 0.71984 0.0
C2530 C 0.4294 0.49393 0.73026 0.0
C2531 C 0.35412 0.42026 0.77104 0.0
C2532 C 0.37408 0.41067 0.77605 0.0
C2533 C 0.355 0.4412 0.76491 0.0
C2534 C 0.37585 0.45295 0.76363 0.0
C2535 C 0.39588 0.44317 0.76837 0.0
C2536 C 0.39499 0.42231 0.77457 0.0
C2537 C 0.37679 0.47557 0.75748 0.0
C2538 C 0.39089 0.47806 0.74734 0.0
C2539 C 0.36353 0.49447 0.7614 0.0
C2540 C 0.34901 0.49324 0.77232 0.0
C2541 C 0.35854 0.48704 0.78348 0.0
C2542 C 0.3447 0.48572 0.79372 0.0
C2543 C 0.32135 0.49073 0.79294 0.0
C2544 C 0.31179 0.49714 0.78191 0.0
C2545 C 0.32554 0.49845 0.77164 0.0
H2546 H 0.31067 0.4897 0.80087 0.0
H2547 H 0.44332 0.5027 0.70089 0.0
H2548 H 0.8426 0.10243 0.0118 0.0
H2549 H 0.80529 0.10623 0.00197 0.0
H2550 H 0.7802 0.14516 0.03218 0.0
H2551 H 0.81732 0.14125 0.04212 0.0
H2552 H 0.75014 0.11269 0.02585 0.0
H2553 H 0.79284 0.1711 0.00538 0.0
H2554 H 0.82506 0.18694 0.9937 0.0
H2555 H 0.81023 0.14066 0.96472 0.0
H2556 H 0.7781 0.12432 0.97631 0.0
H2557 H 0.64613 0.15096 -0.00051 0.0
H2558 H 0.68411 0.1494 0.00872 0.0
H2559 H 0.70961 0.11147 0.97824 0.0
H2560 H 0.67179 0.11329 0.96885 0.0
H2561 H 0.73955 0.14368 0.98467 0.0
H2562 H 0.69736 0.08488 0.00511 0.0
H2563 H 0.66528 0.06865 0.01674 0.0
H2564 H 0.67935 0.11517 0.04572 0.0
H2565 H 0.71135 0.13189 0.03418 0.0
C2566 C 0.82921 0.11196 0.01632 0.0
C2567 C 0.833 0.12154 0.02776 0.0
C2568 C 0.80789 0.11418 0.01066 0.0
C2569 C 0.78994 0.12611 0.01629 0.0
C2570 C 0.79376 0.13586 0.02766 0.0
C2571 C 0.81505 0.13367 0.03331 0.0
C2572 C 0.76695 0.12782 0.01054 0.0
C2573 C 0.7478 0.11978 0.01691 0.0
C2574 C 0.76391 0.13652 -0.00125 0.0
C2575 C 0.78321 0.14633 0.99177 0.0
C2576 C 0.79657 0.16417 0.99656 0.0
C2577 C 0.81479 0.17327 0.98995 0.0
C2578 C 0.81973 0.16477 0.97849 0.0
C2579 C 0.80641 0.1472 0.97361 0.0
C2580 C 0.78817 0.13803 0.98019 0.0
C2581 C 0.6598 0.14227 0.99474 0.0
C2582 C 0.65584 0.13218 0.98344 0.0
C2583 C 0.68152 0.14132 6e-05 0.0
C2584 C 0.69971 0.13007 0.99425 0.0
C2585 C 0.69587 0.12022 0.98291 0.0
C2586 C 0.67418 0.12122 0.97757 0.0
C2587 C 0.72274 0.12858 -1e-05 0.0
C2588 C 0.7419 0.13663 0.99361 0.0
C2589 C 0.72581 0.11984 0.01176 0.0
C2590 C 0.7066 0.10979 0.01873 0.0
C2591 C 0.6935 0.09177 0.01392 0.0
C2592 C 0.67535 0.08246 0.0205 0.0
C2593 C 0.67024 0.09092 0.03195 0.0
C2594 C 0.68331 0.10866 0.03685 0.0
C2595 C 0.70146 0.11805 0.03029 0.0
H2596 H 0.65618 0.08368 0.03703 0.0
H2597 H 0.83384 0.17184 0.97339 0.0
H2598 H 0.07666 0.58137 0.26638 0.0
H2599 H 0.07705 0.54266 0.25806 0.0
H2600 H 0.15094 0.54315 0.25815 0.0
H2601 H 0.15068 0.58215 0.26618 0.0
H2602 H 0.1363 0.52455 0.23814 0.0
H2603 H 0.11913 0.51383 0.27982 0.0
H2604 H 0.09833 0.51987 0.29886 0.0
H2605 H 0.03632 0.49539 0.28256 0.0
H2606 H 0.05669 0.48948 0.26337 0.0
H2607 H 0.15026 0.40403 0.23085 0.0
H2608 H 0.15046 0.4426 0.23947 0.0
H2609 H 0.07707 0.44632 0.2356 0.0
H2610 H 0.07669 0.40777 0.22696 0.0
H2611 H 0.09201 0.46233 0.25773 0.0
H2612 H 0.11026 0.47336 0.21588 0.0
H2613 H 0.13208 0.46672 0.19721 0.0
H2614 H 0.19358 0.48998 0.21451 0.0
H2615 H 0.17218 0.49645 0.23335 0.0
C2616 C 0.09302 0.57328 0.26461 0.0
C2617 C 0.11364 0.58486 0.26701 0.0
C2618 C 0.09321 0.55106 0.25991 0.0
C2619 C 0.11403 0.53974 0.25765 0.0
C2620 C 0.13465 0.55143 0.25983 0.0
C2621 C 0.13447 0.57375 0.26445 0.0
C2622 C 0.11429 0.51579 0.253 0.0
C2623 C 0.12687 0.51091 0.24254 0.0
C2624 C 0.10169 0.49795 0.25859 0.0
C2625 C 0.08939 0.50142 0.27012 0.0
C2626 C 0.10102 0.50989 0.28027 0.0
C2627 C 0.08932 0.51327 0.2911 0.0
C2628 C 0.06601 0.50807 0.29191 0.0
C2629 C 0.05437 0.49943 0.28191 0.0
C2630 C 0.06599 0.49605 0.27106 0.0
C2631 C 0.13413 0.41299 0.23188 0.0
C2632 C 0.11346 0.40281 0.22817 0.0
C2633 C 0.1343 0.43509 0.23676 0.0
C2634 C 0.1138 0.44744 0.23808 0.0
C2635 C 0.09309 0.43712 0.23465 0.0
C2636 C 0.09292 0.4151 0.22968 0.0
C2637 C 0.11396 0.47121 0.24289 0.0
C2638 C 0.10146 0.47602 0.25337 0.0
C2639 C 0.12679 0.48892 0.23739 0.0
C2640 C 0.13966 0.48516 0.22606 0.0
C2641 C 0.12847 0.47688 0.21573 0.0
C2642 C 0.14076 0.47318 0.20512 0.0
C2643 C 0.16421 0.47786 0.20469 0.0
C2644 C 0.17542 0.48633 0.21486 0.0
C2645 C 0.16322 0.49003 0.22551 0.0
H2646 H 0.17369 0.47499 0.19646 0.0
H2647 H 0.05698 0.51069 0.3003 0.0
H2648 H 0.16283 0.08288 0.53247 0.0
H2649 H 0.19933 0.088 0.52207 0.0
H2650 H 0.16958 0.14149 0.50034 0.0
H2651 H 0.13289 0.13646 0.51071 0.0
H2652 H 0.19481 0.11086 0.48691 0.0
H2653 H 0.20483 0.15526 0.52285 0.0
H2654 H 0.2049 0.16231 0.54472 0.0
H2655 H 0.25555 0.10977 0.54957 0.0
H2656 H 0.25555 0.10217 0.52773 0.0
H2657 H 0.29657 0.15807 0.4629 0.0
H2658 H 0.26047 0.15199 0.47347 0.0
H2659 H 0.29256 0.10082 0.49583 0.0
H2660 H 0.32898 0.107 0.48535 0.0
H2661 H 0.26626 0.12945 0.50902 0.0
H2662 H 0.2568 0.08512 0.47325 0.0
H2663 H 0.25684 0.07758 0.45143 0.0
H2664 H 0.20528 0.12913 0.44628 0.0
H2665 H 0.20516 0.13721 0.46806 0.0
C2666 C 0.16401 0.09576 0.52549 0.0
C2667 C 0.14492 0.1093 0.52244 0.0
C2668 C 0.18494 0.09872 0.51958 0.0
C2669 C 0.18725 0.11525 0.5105 0.0
C2670 C 0.16819 0.12865 0.50734 0.0
C2671 C 0.14725 0.12581 0.5133 0.0
C2672 C 0.20951 0.11838 0.50422 0.0
C2673 C 0.21038 0.11524 0.49172 0.0
C2674 C 0.22995 0.12344 0.51054 0.0
C2675 C 0.23 0.12798 0.52367 0.0
C2676 C 0.21583 0.14506 0.52859 0.0
C2677 C 0.21589 0.14919 0.54098 0.0
C2678 C 0.23017 0.13645 0.54853 0.0
C2679 C 0.24447 0.1196 0.54371 0.0
C2680 C 0.24446 0.11539 0.53133 0.0
C2681 C 0.296 0.14547 0.47005 0.0
C2682 C 0.31569 0.13297 0.47325 0.0
C2683 C 0.27528 0.14195 0.47605 0.0
C2684 C 0.2737 0.12575 0.48535 0.0
C2685 C 0.29336 0.11337 0.48866 0.0
C2686 C 0.31414 0.11687 0.48263 0.0
C2687 C 0.25157 0.12203 0.49169 0.0
C2688 C 0.25072 0.12504 0.50421 0.0
C2689 C 0.23115 0.11676 0.48538 0.0
C2690 C 0.23113 0.11192 0.47228 0.0
C2691 C 0.2456 0.09498 0.46746 0.0
C2692 C 0.24561 0.09059 0.4551 0.0
C2693 C 0.23111 0.10291 0.44747 0.0
C2694 C 0.21652 0.11962 0.45219 0.0
C2695 C 0.21646 0.1241 0.46455 0.0
H2696 H 0.23114 0.09948 0.4379 0.0
H2697 H 0.2302 0.13967 0.55812 0.0
H2698 H 0.60116 0.45004 0.2934 0.0
H2699 H 0.59884 0.4858 0.28208 0.0
H2700 H 0.63386 0.45405 0.25226 0.0
H2701 H 0.63664 0.41827 0.26363 0.0
H2702 H 0.65234 0.49424 0.25705 0.0
H2703 H 0.57602 0.46723 0.25104 0.0
H2704 H 0.53815 0.45218 0.25686 0.0
H2705 H 0.52538 0.5126 0.27783 0.0
H2706 H 0.56332 0.52789 0.27227 0.0
H2707 H 0.63598 0.58736 0.21699 0.0
H2708 H 0.63275 0.54936 0.22608 0.0
H2709 H 0.60321 0.57926 0.25796 0.0
H2710 H 0.60629 0.6174 0.24893 0.0
H2711 H 0.58115 0.53933 0.25119 0.0
H2712 H 0.65847 0.56507 0.25785 0.0
H2713 H 0.69626 0.58003 0.25181 0.0
H2714 H 0.70682 0.52134 0.22921 0.0
H2715 H 0.66893 0.50618 0.23499 0.0
C2716 C 0.60817 0.45055 0.28438 0.0
C2717 C 0.61912 0.43125 0.27944 0.0
C2718 C 0.60673 0.47103 0.27789 0.0
C2719 C 0.616 0.47264 0.26625 0.0
C2720 C 0.62657 0.45326 0.26121 0.0
C2721 C 0.62808 0.43278 0.26772 0.0
C2722 C 0.61577 0.49484 0.25964 0.0
C2723 C 0.63669 0.50386 0.25558 0.0
C2724 C 0.59545 0.50774 0.25795 0.0
C2725 C 0.57261 0.49861 0.26132 0.0
C2726 C 0.56522 0.47723 0.25698 0.0
C2727 C 0.54372 0.46867 0.26021 0.0
C2728 C 0.52939 0.4814 0.26774 0.0
C2729 C 0.53651 0.50274 0.27201 0.0
C2730 C 0.558 0.51138 0.26881 0.0
C2731 C 0.62862 0.58589 0.2259 0.0
C2732 C 0.62154 0.60549 0.23226 0.0
C2733 C 0.62686 0.56413 0.2311 0.0
C2734 C 0.61799 0.56148 0.24276 0.0
C2735 C 0.61015 0.5809 0.24896 0.0
C2736 C 0.612 0.6027 0.2438 0.0
C2737 C 0.61769 0.5386 0.24864 0.0
C2738 C 0.59672 0.52954 0.25259 0.0
C2739 C 0.63794 0.52559 0.2502 0.0
C2740 C 0.66077 0.53462 0.24676 0.0
C2741 C 0.66877 0.55545 0.25152 0.0
C2742 C 0.69022 0.56395 0.24816 0.0
C2743 C 0.7039 0.55168 0.24011 0.0
C2744 C 0.69619 0.53085 0.23543 0.0
C2745 C 0.67473 0.52229 0.23875 0.0
H2746 H 0.72051 0.55828 0.23752 0.0
H2747 H 0.51276 0.47474 0.27023 0.0
H2748 H 0.16387 0.86978 0.98099 0.0
H2749 H 0.1989 0.86158 0.99239 0.0
H2750 H 0.2361 0.90996 0.97053 0.0
H2751 H 0.20135 0.91819 0.95912 0.0
H2752 H 0.26017 0.87029 0.97377 0.0
H2753 H 0.21878 0.92442 -0.00161 0.0
H2754 H 0.18545 0.93856 0.00982 0.0
H2755 H 0.18829 0.87932 0.03268 0.0
H2756 H 0.22146 0.86467 0.02128 0.0
H2757 H 0.35932 0.89232 0.0086 0.0
H2758 H 0.32377 0.89413 0.99706 0.0
H2759 H 0.29106 0.84939 0.02273 0.0
H2760 H 0.32645 0.8479 0.03448 0.0
H2761 H 0.26382 0.88393 0.01777 0.0
H2762 H 0.30649 0.83066 0.9942 0.0
H2763 H 0.33964 0.81595 0.98283 0.0
H2764 H 0.33424 0.87212 0.95805 0.0
H2765 H 0.30124 0.88735 0.96936 0.0
C2766 C 0.17952 0.87863 0.9786 0.0
C2767 C 0.17976 0.89472 0.96917 0.0
C2768 C 0.19952 0.87397 0.98515 0.0
C2769 C 0.22011 0.88527 0.98237 0.0
C2770 C 0.22044 0.90102 0.97284 0.0
C2771 C 0.20049 0.90578 0.96635 0.0
C2772 C 0.24135 0.88102 0.98943 0.0
C2773 C 0.26104 0.87345 0.98338 0.0
C2774 C 0.24233 0.88452 0.00202 0.0
C2775 C 0.22242 0.89332 0.00889 0.0
C2776 C 0.21217 0.91431 0.00579 0.0
C2777 C 0.19333 0.92244 0.01228 0.0
C2778 C 0.18471 0.90981 0.02195 0.0
C2779 C 0.19495 0.88906 0.02517 0.0
C2780 C 0.21378 0.88084 0.01871 0.0
C2781 C 0.34464 0.88269 0.01175 0.0
C2782 C 0.34578 0.86994 0.02248 0.0
C2783 C 0.3243 0.88367 0.0051 0.0
C2784 C 0.30472 0.8717 0.00893 0.0
C2785 C 0.3059 0.85877 0.01958 0.0
C2786 C 0.3262 0.85788 0.02627 0.0
C2787 C 0.28283 0.87341 0.00209 0.0
C2788 C 0.26297 0.88053 0.00818 0.0
C2789 C 0.28168 0.86937 0.98954 0.0
C2790 C 0.30151 0.86025 0.98269 0.0
C2791 C 0.31248 0.83997 0.98638 0.0
C2792 C 0.33122 0.83152 0.97993 0.0
C2793 C 0.33907 0.84312 0.96974 0.0
C2794 C 0.32816 0.86317 0.96595 0.0
C2795 C 0.30941 0.8717 0.97237 0.0
H2796 H 0.35359 0.83654 0.96476 0.0
H2797 H 0.17013 0.91613 0.02696 0.0
H2798 H 0.85474 0.4146 0.72234 0.0
H2799 H 0.85276 0.45253 0.73159 0.0
H2800 H 0.91642 0.43967 0.75008 0.0
H2801 H 0.91848 0.40161 0.74093 0.0
H2802 H 0.88465 0.45882 0.7649 0.0
H2803 H 0.91497 0.47382 0.72545 0.0
H2804 H 0.91538 0.47211 0.70328 0.0
H2805 H 0.85123 0.508 0.70198 0.0
H2806 H 0.85026 0.50963 0.72415 0.0
H2807 H 0.90661 0.57171 0.78445 0.0
H2808 H 0.90975 0.53473 0.77433 0.0
H2809 H 0.84825 0.54929 0.75422 0.0
H2810 H 0.84527 0.58659 0.76413 0.0
H2811 H 0.87893 0.52926 0.74007 0.0
H2812 H 0.84761 0.51383 0.77906 0.0
H2813 H 0.84583 0.51508 0.80121 0.0
H2814 H 0.91011 0.47956 0.8034 0.0
H2815 H 0.91243 0.47837 0.78124 0.0
C2816 C 0.86832 0.41979 0.72839 0.0
C2817 C 0.88682 0.40504 0.73086 0.0
C2818 C 0.86721 0.44155 0.73363 0.0
C2819 C 0.88458 0.44908 0.74142 0.0
C2820 C 0.90285 0.43426 0.74407 0.0
C2821 C 0.90402 0.41251 0.73881 0.0
C2822 C 0.88362 0.47233 0.74688 0.0
C2823 C 0.88373 0.47424 0.75947 0.0
C2824 C 0.88178 0.49243 0.73981 0.0
C2825 C 0.88244 0.49165 0.72647 0.0
C2826 C 0.90086 0.4812 0.72044 0.0
C2827 C 0.90121 0.48027 0.70787 0.0
C2828 C 0.88331 0.48989 0.70123 0.0
C2829 C 0.86506 0.50053 0.70713 0.0
C2830 C 0.86462 0.50148 0.7197 0.0
C2831 C 0.8938 0.56714 0.77783 0.0
C2832 C 0.87559 0.58209 0.77517 0.0
C2833 C 0.89557 0.5459 0.77208 0.0
C2834 C 0.87901 0.53899 0.76365 0.0
C2835 C 0.8612 0.55417 0.76071 0.0
C2836 C 0.85949 0.5755 0.76641 0.0
C2837 C 0.88004 0.51577 0.75811 0.0
C2838 C 0.87989 0.51385 0.74551 0.0
C2839 C 0.88168 0.49562 0.76517 0.0
C2840 C 0.8803 0.49622 0.77849 0.0
C2841 C 0.86145 0.50643 0.78426 0.0
C2842 C 0.86033 0.50711 0.79682 0.0
C2843 C 0.87788 0.49746 0.8037 0.0
C2844 C 0.89655 0.48706 0.79805 0.0
C2845 C 0.89777 0.48636 0.78549 0.0
H2846 H 0.87698 0.49799 0.81342 0.0
H2847 H 0.8836 0.48914 0.6915 0.0
H2848 H 0.07113 0.38477 0.0919 0.0
H2849 H 0.0898 0.38814 0.11124 0.0
H2850 H 0.15457 0.40047 0.09366 0.0
H2851 H 0.13584 0.39634 0.07399 0.0
H2852 H 0.16092 0.37168 0.11059 0.0
H2853 H 0.12806 0.44396 0.11057 0.0
H2854 H 0.09956 0.47446 0.10725 0.0
H2855 H 0.05495 0.44362 0.13333 0.0
H2856 H 0.08297 0.41272 0.13669 0.0
H2857 H 0.14716 0.38319 0.18169 0.0
H2858 H 0.15081 0.40271 0.16218 0.0
H2859 H 0.14006 0.3383 0.14399 0.0
H2860 H 0.13709 0.31887 0.16314 0.0
H2861 H 0.12182 0.40877 0.14509 0.0
H2862 H 0.16579 0.33275 0.11878 0.0
H2863 H 0.19742 0.30557 0.12217 0.0
H2864 H 0.22632 0.35047 0.14871 0.0
H2865 H 0.19507 0.37814 0.14536 0.0
C2866 C 0.08932 0.38841 0.09207 0.0
C2867 C 0.10199 0.39027 0.08137 0.0
C2868 C 0.09997 0.39063 0.10319 0.0
C2869 C 0.12352 0.3952 0.10396 0.0
C2870 C 0.13632 0.39721 0.0933 0.0
C2871 C 0.12563 0.39477 0.08208 0.0
C2872 C 0.1346 0.3954 0.11598 0.0
C2873 C 0.15266 0.38009 0.11812 0.0
C2874 C 0.12475 0.40738 0.12578 0.0
C2875 C 0.10771 0.42598 0.12389 0.0
C2876 C 0.11214 0.4436 0.11557 0.0
C2877 C 0.09605 0.46098 0.11368 0.0
C2878 C 0.07547 0.46099 0.12008 0.0
C2879 C 0.07093 0.44362 0.1284 0.0
C2880 C 0.08695 0.42619 0.13032 0.0
C2881 C 0.14581 0.37324 0.1735 0.0
C2882 C 0.1419 0.34947 0.17397 0.0
C2883 C 0.14797 0.38438 0.16238 0.0
C2884 C 0.1463 0.3719 0.1516 0.0
C2885 C 0.14225 0.34824 0.15214 0.0
C2886 C 0.14028 0.33714 0.16315 0.0
C2887 C 0.14646 0.38334 0.13968 0.0
C2888 C 0.13065 0.40097 0.13755 0.0
C2889 C 0.15897 0.37412 0.12989 0.0
C2890 C 0.17802 0.35758 0.1318 0.0
C2891 C 0.17899 0.33698 0.12526 0.0
C2892 C 0.19683 0.32143 0.1272 0.0
C2893 C 0.21386 0.32629 0.13565 0.0
C2894 C 0.2131 0.34671 0.14217 0.0
C2895 C 0.1953 0.36233 0.14027 0.0
H2896 H 0.22765 0.31421 0.13714 0.0
H2897 H 0.06304 0.47445 0.11861 0.0
H2898 H 0.8583 0.88672 0.42963 0.0
H2899 H 0.84517 0.90145 0.41 0.0
H2900 H 0.90004 0.86503 0.39246 0.0
H2901 H 0.91291 0.85012 0.41167 0.0
H2902 H 0.89654 0.91534 0.38782 0.0
H2903 H 0.85112 0.84298 0.39005 0.0
H2904 H 0.82068 0.81965 0.39938 0.0
H2905 H 0.7724 0.87421 0.39396 0.0
H2906 H 0.80267 0.89793 0.3847 0.0
H2907 H 0.90469 0.86302 0.33394 0.0
H2908 H 0.90122 0.88004 0.35382 0.0
H2909 H 0.83667 0.91052 0.34369 0.0
H2910 H 0.84043 0.89362 0.32348 0.0
H2911 H 0.83322 0.88261 0.36358 0.0
H2912 H 0.87733 0.94653 0.35337 0.0
H2913 H 0.908 0.96885 0.34365 0.0
H2914 H 0.95864 0.93219 0.364 0.0
H2915 H 0.92836 0.90937 0.37371 0.0
C2916 C 0.86723 0.88153 0.42154 0.0
C2917 C 0.88679 0.86745 0.42221 0.0
C2918 C 0.85983 0.89009 0.41039 0.0
C2919 C 0.872 0.88467 0.39988 0.0
C2920 C 0.89071 0.86972 0.40052 0.0
C2921 C 0.89795 0.86111 0.41152 0.0
C2922 C 0.86617 0.89449 0.38804 0.0
C2923 C 0.8825 0.90861 0.38249 0.0
C2924 C 0.84725 0.88659 0.38134 0.0
C2925 C 0.82916 0.8723 0.38685 0.0
C2926 C 0.83405 0.85005 0.39095 0.0
C2927 C 0.81683 0.83675 0.3962 0.0
C2928 C 0.79464 0.84547 0.39731 0.0
C2929 C 0.78961 0.86749 0.39313 0.0
C2930 C 0.80678 0.88086 0.38788 0.0
C2931 C 0.89023 0.87411 0.3358 0.0
C2932 C 0.87288 0.87714 0.32725 0.0
C2933 C 0.88825 0.88391 0.34715 0.0
C2934 C 0.86873 0.89668 0.35023 0.0
C2935 C 0.85195 0.9009 0.34144 0.0
C2936 C 0.85417 0.89139 0.32993 0.0
C2937 C 0.86474 0.90191 0.36309 0.0
C2938 C 0.84658 0.89061 0.3689 0.0
C2939 C 0.88201 0.91251 0.37005 0.0
C2940 C 0.90047 0.92627 0.36433 0.0
C2941 C 0.895 0.94315 0.35575 0.0
C2942 C 0.91234 0.9559 0.35024 0.0
C2943 C 0.93525 0.95196 0.35322 0.0
C2944 C 0.94087 0.93527 0.36173 0.0
C2945 C 0.92361 0.92247 0.36727 0.0
H2946 H 0.94864 0.96184 0.34893 0.0
H2947 H 0.78133 0.83515 0.40138 0.0
H2948 H 0.35889 0.60779 0.67421 0.0
H2949 H 0.35837 0.5933 0.65342 0.0
H2950 H 0.40316 0.64839 0.64261 0.0
H2951 H 0.40348 0.66295 0.66309 0.0
H2952 H 0.36608 0.64598 0.62832 0.0
H2953 H 0.42234 0.5934 0.64582 0.0
H2954 H 0.43447 0.56316 0.65996 0.0
H2955 H 0.38194 0.51862 0.64642 0.0
H2956 H 0.36934 0.54873 0.63229 0.0
H2957 H 0.44289 0.59587 0.58158 0.0
H2958 H 0.42737 0.59547 0.60179 0.0
H2959 H 0.35968 0.6084 0.58775 0.0
H2960 H 0.3753 0.60919 0.56722 0.0
H2961 H 0.39637 0.57134 0.61417 0.0
H2962 H 0.33374 0.64486 0.60795 0.0
H2963 H 0.3256 0.67698 0.59412 0.0
H2964 H 0.39716 0.68225 0.5856 0.0
H2965 H 0.4057 0.65034 0.59947 0.0
C2966 C 0.36894 0.61647 0.66741 0.0
C2967 C 0.38108 0.63658 0.67021 0.0
C2968 C 0.36852 0.60829 0.65555 0.0
C2969 C 0.38044 0.62002 0.64646 0.0
C2970 C 0.39351 0.63933 0.64945 0.0
C2971 C 0.39379 0.64755 0.66117 0.0
C2972 C 0.37922 0.613 0.63369 0.0
C2973 C 0.37232 0.62948 0.62523 0.0
C2974 C 0.3871 0.59144 0.62966 0.0
C2975 C 0.39472 0.57339 0.63812 0.0
C2976 C 0.41327 0.57722 0.64593 0.0
C2977 C 0.42025 0.5601 0.65393 0.0
C2978 C 0.40893 0.53901 0.65412 0.0
C2979 C 0.39065 0.53498 0.64629 0.0
C2980 C 0.38359 0.55206 0.63828 0.0
C2981 C 0.42465 0.5985 0.58271 0.0
C2982 C 0.41038 0.60293 0.57278 0.0
C2983 C 0.41575 0.598 0.5943 0.0
C2984 C 0.39239 0.60193 0.5963 0.0
C2985 C 0.37781 0.60542 0.5864 0.0
C2986 C 0.38675 0.60595 0.5747 0.0
C2987 C 0.38438 0.60479 0.60884 0.0
C2988 C 0.3893 0.58749 0.61726 0.0
C2989 C 0.37514 0.62581 0.61288 0.0
C2990 C 0.37027 0.64506 0.60459 0.0
C2991 C 0.34771 0.65291 0.60312 0.0
C2992 C 0.34303 0.67107 0.59528 0.0
C2993 C 0.36084 0.68158 0.58895 0.0
C2994 C 0.38337 0.67403 0.59047 0.0
C2995 C 0.38813 0.65591 0.59831 0.0
H2996 H 0.35718 0.69562 0.58288 0.0
H2997 H 0.41435 0.52578 0.66032 0.0
H2998 H 0.64773 0.11608 0.81713 0.0
H2999 H 0.65465 0.10335 0.83796 0.0
H3000 H 0.62128 0.16433 0.85115 0.0
H3001 H 0.61456 0.17706 0.83068 0.0
H3002 H 0.66302 0.15763 0.86168 0.0
H3003 H 0.59449 0.11239 0.85102 0.0
H3004 H 0.57463 0.08277 0.8391 0.0
H3005 H 0.62488 0.03302 0.84979 0.0
H3006 H 0.64515 0.06245 0.86167 0.0
H3007 H 0.59297 0.15442 0.91135 0.0
H3008 H 0.61075 0.15225 0.89152 0.0
H3009 H 0.65547 0.09843 0.90399 0.0
H3010 H 0.63805 0.10105 0.92416 0.0
H3011 H 0.62462 0.09138 0.88099 0.0
H3012 H 0.68453 0.13671 0.89721 0.0
H3013 H 0.70143 0.16744 0.90955 0.0
H3014 H 0.66591 0.21803 0.8886 0.0
H3015 H 0.6485 0.18761 0.87625 0.0
C3016 C 0.64165 0.12654 0.82451 0.0
C3017 C 0.63079 0.14766 0.82229 0.0
C3018 C 0.64572 0.11933 0.83637 0.0
C3019 C 0.63881 0.13312 0.84607 0.0
C3020 C 0.62715 0.15365 0.84379 0.0
C3021 C 0.6232 0.16084 0.83207 0.0
C3022 C 0.64343 0.12687 0.85873 0.0
C3023 C 0.65494 0.14296 0.86591 0.0
C3024 C 0.63372 0.10726 0.86416 0.0
C3025 C 0.62148 0.08964 0.85707 0.0
C3026 C 0.60138 0.09517 0.85074 0.0
C3027 C 0.59004 0.07842 0.84402 0.0
C3028 C 0.59854 0.05604 0.84365 0.0
C3029 C 0.61836 0.05036 0.85005 0.0
C3030 C 0.62977 0.06707 0.85678 0.0
C3031 C 0.60688 0.14243 0.90993 0.0
C3032 C 0.61421 0.12794 0.91923 0.0
C3033 C 0.617 0.1412 0.89863 0.0
C3034 C 0.63434 0.12517 0.89635 0.0
C3035 C 0.64213 0.11093 0.90565 0.0
C3036 C 0.63231 0.11254 0.91713 0.0
C3037 C 0.64284 0.12297 0.88392 0.0
C3038 C 0.63379 0.10539 0.87675 0.0
C3039 C 0.65464 0.14134 0.87848 0.0
C3040 C 0.66519 0.15982 0.8858 0.0
C3041 C 0.68021 0.15438 0.89527 0.0
C3042 C 0.6899 0.17175 0.90227 0.0
C3043 C 0.68476 0.19467 0.89986 0.0
C3044 C 0.66992 0.20027 0.89044 0.0
C3045 C 0.66017 0.18296 0.88342 0.0
H3046 H 0.69227 0.2081 0.90529 0.0
H3047 H 0.58974 0.0431 0.83844 0.0
H3048 H 0.14931 0.6098 0.31539 0.0
H3049 H 0.15838 0.59524 0.33562 0.0
H3050 H 0.13038 0.65682 0.35121 0.0
H3051 H 0.12129 0.67131 0.3313 0.0
H3052 H 0.1745 0.6465 0.35945 0.0
H3053 H 0.10072 0.60803 0.35185 0.0
H3054 H 0.07607 0.58112 0.34067 0.0
H3055 H 0.12338 0.52645 0.34784 0.0
H3056 H 0.14844 0.55315 0.35895 0.0
H3057 H 0.12036 0.64622 0.41407 0.0
H3058 H 0.13698 0.64678 0.39395 0.0
H3059 H 0.16315 0.57836 0.3993 0.0
H3060 H 0.14665 0.57802 0.41969 0.0
H3061 H 0.13501 0.58184 0.3796 0.0
H3062 H 0.20133 0.61929 0.39308 0.0
H3063 H 0.22482 0.64646 0.40472 0.0
H3064 H 0.19239 0.70299 0.38681 0.0
H3065 H 0.16843 0.67623 0.37519 0.0
C3066 C 0.14476 0.62 0.32316 0.0
C3067 C 0.13475 0.64178 0.32175 0.0
C3068 C 0.15009 0.61174 0.33468 0.0
C3069 C 0.1454 0.62518 0.34486 0.0
C3070 C 0.1345 0.64639 0.34345 0.0
C3071 C 0.12918 0.65457 0.33204 0.0
C3072 C 0.15176 0.61781 0.35714 0.0
C3073 C 0.16608 0.63225 0.36388 0.0
C3074 C 0.14166 0.59857 0.36272 0.0
C3075 C 0.12658 0.58261 0.35607 0.0
C3076 C 0.10595 0.59031 0.35094 0.0
C3077 C 0.09189 0.5751 0.34464 0.0
C3078 C 0.0982 0.55211 0.3435 0.0
C3079 C 0.11855 0.54427 0.3487 0.0
C3080 C 0.13268 0.55943 0.355 0.0
C3081 C 0.13054 0.63174 0.41113 0.0
C3082 C 0.13257 0.61223 0.41837 0.0
C3083 C 0.14004 0.63202 0.39965 0.0
C3084 C 0.15144 0.61264 0.39515 0.0
C3085 C 0.1546 0.59354 0.40265 0.0
C3086 C 0.14536 0.59342 0.41428 0.0
C3087 C 0.15645 0.61155 0.38211 0.0
C3088 C 0.14435 0.59551 0.37516 0.0
C3089 C 0.1686 0.62935 0.37633 0.0
C3090 C 0.18306 0.64568 0.38324 0.0
C3091 C 0.19911 0.63752 0.39166 0.0
C3092 C 0.21252 0.65286 0.39826 0.0
C3093 C 0.21011 0.67643 0.3965 0.0
C3094 C 0.19428 0.68472 0.38814 0.0
C3095 C 0.18081 0.66946 0.38152 0.0
H3096 H 0.2205 0.68828 0.40163 0.0
H3097 H 0.08729 0.54035 0.33862 0.0
H3098 H 0.61178 0.83364 0.65769 0.0
H3099 H 0.61272 0.85292 0.63832 0.0
H3100 H 0.64529 0.91155 0.6546 0.0
H3101 H 0.64389 0.89237 0.67429 0.0
H3102 H 0.61458 0.92492 0.63832 0.0
H3103 H 0.67762 0.8752 0.63795 0.0
H3104 H 0.69938 0.83955 0.64123 0.0
H3105 H 0.65691 0.80461 0.61561 0.0
H3106 H 0.63464 0.83994 0.6123 0.0
H3107 H 0.63012 0.9089 0.56732 0.0
H3108 H 0.64719 0.90927 0.5875 0.0
H3109 H 0.57979 0.91569 0.6031 0.0
H3110 H 0.56291 0.91611 0.58324 0.0
H3111 H 0.64286 0.87911 0.60378 0.0
H3112 H 0.57809 0.93914 0.62945 0.0
H3113 H 0.55965 0.97662 0.62624 0.0
H3114 H 0.61241 0.99532 0.6012 0.0
H3115 H 0.63141 0.9581 0.60438 0.0
C3116 C 0.61902 0.85071 0.6572 0.0
C3117 C 0.62797 0.86141 0.66749 0.0
C3118 C 0.6197 0.86165 0.64609 0.0
C3119 C 0.62973 0.88337 0.64494 0.0
C3120 C 0.63775 0.89465 0.65528 0.0
C3121 C 0.63685 0.88373 0.66651 0.0
C3122 C 0.63151 0.8939 0.63284 0.0
C3123 C 0.62098 0.91511 0.63075 0.0
C3124 C 0.64098 0.88161 0.62305 0.0
C3125 C 0.65443 0.86027 0.62489 0.0
C3126 C 0.67284 0.8599 0.63305 0.0
C3127 C 0.68527 0.83973 0.63492 0.0
C3128 C 0.67953 0.81983 0.62863 0.0
C3129 C 0.66136 0.82006 0.62046 0.0
C3130 C 0.64885 0.84017 0.61856 0.0
C3131 C 0.61904 0.91087 0.57507 0.0
C3132 C 0.59515 0.91231 0.57366 0.0
C3133 C 0.62881 0.9111 0.58659 0.0
C3134 C 0.61484 0.91285 0.59685 0.0
C3135 C 0.59108 0.915 0.59538 0.0
C3136 C 0.58138 0.91493 0.58395 0.0
C3137 C 0.62425 0.90932 0.60913 0.0
C3138 C 0.63702 0.88938 0.61131 0.0
C3139 C 0.61744 0.92316 0.61898 0.0
C3140 C 0.60618 0.94574 0.61715 0.0
C3141 C 0.5859 0.9513 0.62333 0.0
C3142 C 0.5753 0.9725 0.6215 0.0
C3143 C 0.58484 0.98833 0.61351 0.0
C3144 C 0.60501 0.98302 0.60736 0.0
C3145 C 0.61569 0.96186 0.60917 0.0
H3146 H 0.5766 0.00473 0.6121 0.0
H3147 H 0.68917 0.80424 0.6301 0.0
H3148 H 0.34993 0.4008 0.82357 0.0
H3149 H 0.34791 0.42362 0.8421 0.0
H3150 H 0.3216 0.36493 0.86123 0.0
H3151 H 0.32323 0.34235 0.84292 0.0
H3152 H 0.30262 0.40437 0.86969 0.0
H3153 H 0.37914 0.37465 0.85961 0.0
H3154 H 0.41305 0.37156 0.84646 0.0
H3155 H 0.42171 0.44459 0.84759 0.0
H3156 H 0.38766 0.44808 0.86065 0.0
H3157 H 0.3512 0.38805 0.92692 0.0
H3158 H 0.33339 0.39081 0.90705 0.0
H3159 H 0.37159 0.45271 0.89994 0.0
H3160 H 0.39024 0.44918 0.91951 0.0
H3161 H 0.38077 0.42395 0.88377 0.0
H3162 H 0.31066 0.45082 0.89963 0.0
H3163 H 0.27745 0.45265 0.91328 0.0
H3164 H 0.25635 0.38559 0.90197 0.0
H3165 H 0.28961 0.38318 0.88838 0.0
C3166 C 0.34329 0.39296 0.83168 0.0
C3167 C 0.33721 0.36967 0.83185 0.0
C3168 C 0.3421 0.406 0.84223 0.0
C3169 C 0.33483 0.39587 0.85306 0.0
C3170 C 0.32721 0.37313 0.85299 0.0
C3171 C 0.32843 0.36015 0.84252 0.0
C3172 C 0.33818 0.40733 0.86481 0.0
C3173 C 0.31963 0.4089 0.87281 0.0
C3174 C 0.36027 0.41378 0.86874 0.0
C3175 C 0.38075 0.41165 0.86095 0.0
C3176 C 0.38821 0.39004 0.85698 0.0
C3177 C 0.40745 0.38822 0.84956 0.0
C3178 C 0.41948 0.40788 0.84615 0.0
C3179 C 0.41234 0.42939 0.8502 0.0
C3180 C 0.39308 0.4313 0.85761 0.0
C3181 C 0.35513 0.40263 0.92125 0.0
C3182 C 0.37221 0.41825 0.9246 0.0
C3183 C 0.34487 0.40432 0.90991 0.0
C3184 C 0.35117 0.42199 0.90194 0.0
C3185 C 0.36656 0.43886 0.90587 0.0
C3186 C 0.37718 0.43685 0.91705 0.0
C3187 C 0.34529 0.42037 0.88896 0.0
C3188 C 0.36348 0.42047 0.88068 0.0
C3189 C 0.32287 0.41546 0.88486 0.0
C3190 C 0.30273 0.4168 0.893 0.0
C3191 C 0.29903 0.43639 0.9001 0.0
C3192 C 0.28017 0.43755 0.90783 0.0
C3193 C 0.26481 0.41925 0.9085 0.0
C3194 C 0.26826 0.39977 0.90144 0.0
C3195 C 0.28709 0.39852 0.8937 0.0
H3196 H 0.25023 0.42017 0.91449 0.0
H3197 H 0.43437 0.40643 0.84041 0.0
H3198 H 0.81739 0.15531 0.15724 0.0
H3199 H 0.81855 0.13219 0.13907 0.0
H3200 H 0.85286 0.07813 0.15848 0.0
H3201 H 0.85177 0.1014 0.17687 0.0
H3202 H 0.87679 0.09279 0.13919 0.0
H3203 H 0.80094 0.06762 0.14604 0.0
H3204 H 0.76005 0.07081 0.15128 0.0
H3205 H 0.74877 0.11434 0.12071 0.0
H3206 H 0.78966 0.11172 0.11537 0.0
H3207 H 0.89791 0.04862 0.08264 0.0
H3208 H 0.8795 0.04766 0.10235 0.0
H3209 H 0.83946 0.10712 0.09283 0.0
H3210 H 0.85721 0.1075 0.07283 0.0
H3211 H 0.81629 0.07966 0.10859 0.0
H3212 H 0.892 0.11334 0.10545 0.0
H3213 H 0.9331 0.1133 0.1003 0.0
H3214 H 0.94435 0.0568 0.12434 0.0
H3215 H 0.90322 0.05632 0.1295 0.0
C3216 C 0.8248 0.13831 0.15772 0.0
C3217 C 0.83481 0.13027 0.16842 0.0
C3218 C 0.82519 0.12499 0.14735 0.0
C3219 C 0.83562 0.10336 0.14744 0.0
C3220 C 0.84457 0.09472 0.15827 0.0
C3221 C 0.84397 0.10802 0.16874 0.0
C3222 C 0.84046 0.09192 0.13584 0.0
C3223 C 0.8635 0.08916 0.13263 0.0
C3224 C 0.82313 0.0879 0.12719 0.0
C3225 C 0.79845 0.08952 0.13032 0.0
C3226 C 0.78979 0.07801 0.14047 0.0
C3227 C 0.76659 0.0797 0.14346 0.0
C3228 C 0.75183 0.09278 0.13634 0.0
C3229 C 0.76023 0.10419 0.12621 0.0
C3230 C 0.78342 0.10257 0.12318 0.0
C3231 C 0.88468 0.06107 0.08464 0.0
C3232 C 0.87922 0.0784 0.07636 0.0
C3233 C 0.87418 0.06049 0.09588 0.0
C3234 C 0.8586 0.07768 0.09915 0.0
C3235 C 0.85154 0.09375 0.09049 0.0
C3236 C 0.86172 0.09402 0.0791 0.0
C3237 C 0.85256 0.08109 0.11196 0.0
C3238 C 0.82944 0.08252 0.11532 0.0
C3239 C 0.8698 0.08426 0.12078 0.0
C3240 C 0.89453 0.0846 0.11774 0.0
C3241 C 0.90323 0.10081 0.10957 0.0
C3242 C 0.92652 0.10089 0.10665 0.0
C3243 C 0.94131 0.08501 0.11196 0.0
C3244 C 0.93285 0.06905 0.12021 0.0
C3245 C 0.90956 0.06886 0.12313 0.0
H3246 H 0.95934 0.0851 0.10969 0.0
H3247 H 0.73387 0.09407 0.13867 0.0
H3248 H 0.79717 0.63951 0.83143 0.0
H3249 H 0.79759 0.62361 0.85177 0.0
H3250 H 0.86168 0.58981 0.84409 0.0
H3251 H 0.86069 0.6048 0.82353 0.0
H3252 H 0.83825 0.56686 0.86142 0.0
H3253 H 0.86087 0.64556 0.85338 0.0
H3254 H 0.85455 0.68477 0.84579 0.0
H3255 H 0.79741 0.69275 0.86975 0.0
H3256 H 0.80322 0.65342 0.87735 0.0
H3257 H 0.91583 0.58838 0.90786 0.0
H3258 H 0.89196 0.58345 0.89013 0.0
H3259 H 0.83467 0.61347 0.9089 0.0
H3260 H 0.85867 0.61851 0.92686 0.0
H3261 H 0.84429 0.63499 0.88793 0.0
H3262 H 0.83122 0.55826 0.8998 0.0
H3263 H 0.84094 0.51971 0.90727 0.0
H3264 H 0.88358 0.5083 0.87639 0.0
H3265 H 0.87441 0.54692 0.8688 0.0
C3266 C 0.81082 0.62787 0.83394 0.0
C3267 C 0.82909 0.62361 0.82604 0.0
C3268 C 0.81108 0.61885 0.84556 0.0
C3269 C 0.83004 0.60616 0.84955 0.0
C3270 C 0.84696 0.5997 0.84122 0.0
C3271 C 0.84641 0.60828 0.82948 0.0
C3272 C 0.83448 0.60346 0.86261 0.0
C3273 C 0.8395 0.58168 0.86726 0.0
C3274 C 0.83566 0.6228 0.87029 0.0
C3275 C 0.83229 0.6465 0.86582 0.0
C3276 C 0.84688 0.65564 0.85697 0.0
C3277 C 0.8434 0.67788 0.85267 0.0
C3278 C 0.82554 0.69122 0.85726 0.0
C3279 C 0.81119 0.68237 0.86618 0.0
C3280 C 0.81456 0.66011 0.87049 0.0
C3281 C 0.89805 0.59364 0.90832 0.0
C3282 C 0.88919 0.6041 0.91871 0.0
C3283 C 0.88434 0.59054 0.8982 0.0
C3284 C 0.86147 0.59785 0.89823 0.0
C3285 C 0.85225 0.60752 0.90874 0.0
C3286 C 0.86596 0.61043 0.91896 0.0
C3287 C 0.84866 0.59843 0.88673 0.0
C3288 C 0.84223 0.61995 0.88229 0.0
C3289 C 0.84661 0.5789 0.87926 0.0
C3290 C 0.85216 0.55557 0.88375 0.0
C3291 C 0.84279 0.54761 0.89463 0.0
C3292 C 0.84818 0.52572 0.89888 0.0
C3293 C 0.86288 0.51157 0.89231 0.0
C3294 C 0.87218 0.51927 0.88146 0.0
C3295 C 0.86685 0.54115 0.87717 0.0
H3296 H 0.86704 0.49464 0.89562 0.0
H3297 H 0.82287 0.70843 0.85392 0.0
H3298 H 0.06185 0.07329 0.58078 0.0
H3299 H 0.07986 0.06767 0.60034 0.0
H3300 H 0.1354 0.11215 0.58983 0.0
H3301 H 0.1178 0.11712 0.56994 0.0
H3302 H 0.15058 0.07805 0.6044 0.0
H3303 H 0.08904 0.13333 0.60476 0.0
H3304 H 0.04958 0.14688 0.60126 0.0
H3305 H 0.0237 0.09465 0.62483 0.0
H3306 H 0.06303 0.0806 0.62834 0.0
H3307 H 0.177 0.14125 0.65638 0.0
H3308 H 0.16829 0.12275 0.63732 0.0
H3309 H 0.11955 0.07874 0.65513 0.0
H3310 H 0.12822 0.09738 0.67437 0.0
H3311 H 0.1004 0.10442 0.63765 0.0
H3312 H 0.16485 0.05529 0.64044 0.0
H3313 H 0.20508 0.04457 0.64413 0.0
H3314 H 0.22671 0.08803 0.61511 0.0
H3315 H 0.18665 0.0993 0.61135 0.0
C3316 C 0.07807 0.08163 0.58257 0.0
C3317 C 0.08824 0.09603 0.57396 0.0
C3318 C 0.08836 0.07836 0.59374 0.0
C3319 C 0.10867 0.08992 0.59664 0.0
C3320 C 0.11966 0.10314 0.58778 0.0
C3321 C 0.10955 0.10608 0.57647 0.0
C3322 C 0.11699 0.09021 0.60922 0.0
C3323 C 0.1397 0.08387 0.6117 0.0
C3324 C 0.10256 0.09727 0.61876 0.0
C3325 C 0.07892 0.10575 0.6167 0.0
C3326 C 0.07491 0.12464 0.60913 0.0
C3327 C 0.05258 0.13242 0.60715 0.0
C3328 C 0.03414 0.12158 0.61279 0.0
C3329 C 0.038 0.10299 0.62045 0.0
C3330 C 0.0603 0.09511 0.62244 0.0
C3331 C 0.16487 0.1272 0.65631 0.0
C3332 C 0.153 0.12098 0.66681 0.0
C3333 C 0.16008 0.11648 0.64541 0.0
C3334 C 0.1433 0.09934 0.6448 0.0
C3335 C 0.13263 0.09189 0.65544 0.0
C3336 C 0.1376 0.10252 0.66641 0.0
C3337 C 0.13417 0.0926 0.6329 0.0
C3338 C 0.11122 0.09794 0.63048 0.0
C3339 C 0.14852 0.08498 0.62345 0.0
C3340 C 0.17269 0.07823 0.62565 0.0
C3341 C 0.17818 0.0627 0.6349 0.0
C3342 C 0.20097 0.0565 0.63699 0.0
C3343 C 0.21844 0.06563 0.62987 0.0
C3344 C 0.21316 0.08096 0.62062 0.0
C3345 C 0.1904 0.08723 0.61849 0.0
H3346 H 0.23607 0.0608 0.6315 0.0
H3347 H 0.01686 0.12764 0.61125 0.0
H3348 H 0.63791 0.39104 0.43352 0.0
H3349 H 0.65703 0.40238 0.41468 0.0
H3350 H 0.61593 0.35346 0.39519 0.0
H3351 H 0.59699 0.34222 0.41373 0.0
H3352 H 0.66046 0.35258 0.3882 0.0
H3353 H 0.60017 0.40848 0.39641 0.0
H3354 H 0.58181 0.43882 0.40846 0.0
H3355 H 0.64258 0.47995 0.40577 0.0
H3356 H 0.66139 0.44967 0.39381 0.0
H3357 H 0.62501 0.39805 0.33049 0.0
H3358 H 0.62461 0.40721 0.35197 0.0
H3359 H 0.69702 0.39302 0.35405 0.0
H3360 H 0.6972 0.38298 0.33272 0.0
H3361 H 0.6457 0.43005 0.37143 0.0
H3362 H 0.70348 0.35155 0.37412 0.0
H3363 H 0.71691 0.31962 0.36136 0.0
H3364 H 0.6537 0.32127 0.34161 0.0
H3365 H 0.63986 0.35299 0.35434 0.0
C3366 C 0.63333 0.38248 0.42523 0.0
C3367 C 0.61592 0.36582 0.42506 0.0
C3368 C 0.64412 0.38907 0.4145 0.0
C3369 C 0.63775 0.37885 0.40356 0.0
C3370 C 0.62111 0.36155 0.40353 0.0
C3371 C 0.61025 0.35517 0.41414 0.0
C3372 C 0.6474 0.38634 0.3919 0.0
C3373 C 0.65775 0.36969 0.38464 0.0
C3374 C 0.64359 0.40858 0.38721 0.0
C3375 C 0.63228 0.42672 0.39437 0.0
C3376 C 0.60968 0.42391 0.39848 0.0
C3377 C 0.59918 0.44111 0.40527 0.0
C3378 C 0.61105 0.46127 0.40792 0.0
C3379 C 0.63343 0.4643 0.40374 0.0
C3380 C 0.64401 0.44713 0.39696 0.0
C3381 C 0.64103 0.39811 0.3354 0.0
C3382 C 0.66106 0.38957 0.33009 0.0
C3383 C 0.64082 0.40336 0.34768 0.0
C3384 C 0.66069 0.40022 0.35464 0.0
C3385 C 0.68146 0.39526 0.34886 0.0
C3386 C 0.68157 0.38957 0.33668 0.0
C3387 C 0.65839 0.39613 0.36773 0.0
C3388 C 0.64935 0.41329 0.37518 0.0
C3389 C 0.66285 0.37413 0.37259 0.0
C3390 C 0.67081 0.35477 0.36507 0.0
C3391 C 0.69247 0.34502 0.36707 0.0
C3392 C 0.70014 0.32698 0.35984 0.0
C3393 C 0.6862 0.31848 0.35065 0.0
C3394 C 0.66451 0.32791 0.3487 0.0
C3395 C 0.65675 0.34591 0.35592 0.0
H3396 H 0.69219 0.30456 0.34504 0.0
H3397 H 0.60289 0.47457 0.41317 0.0
H3398 H 0.41007 0.9414 0.07766 0.0
H3399 H 0.39042 0.94807 0.09674 0.0
H3400 H 0.34692 0.88971 0.09 0.0
H3401 H 0.36592 0.88367 0.07058 0.0
H3402 H 0.32502 0.92163 0.10399 0.0
H3403 H 0.39855 0.88254 0.10348 0.0
H3404 H 0.4397 0.8791 0.09879 0.0
H3405 H 0.45374 0.93926 0.11975 0.0
H3406 H 0.41258 0.9432 0.12442 0.0
H3407 H 0.32093 0.85287 0.15513 0.0
H3408 H 0.32224 0.87457 0.13651 0.0
H3409 H 0.36135 0.92753 0.15414 0.0
H3410 H 0.36028 0.90557 0.17295 0.0
H3411 H 0.38373 0.90983 0.13567 0.0
H3412 H 0.30953 0.94036 0.14078 0.0
H3413 H 0.26839 0.94066 0.14574 0.0
H3414 H 0.25497 0.89386 0.11681 0.0
H3415 H 0.29607 0.89298 0.11177 0.0
C3416 C 0.39579 0.93049 0.08009 0.0
C3417 C 0.38969 0.91179 0.07282 0.0
C3418 C 0.38457 0.93432 0.09096 0.0
C3419 C 0.36766 0.91901 0.09493 0.0
C3420 C 0.36001 0.90167 0.08713 0.0
C3421 C 0.37089 0.89816 0.07607 0.0
C3422 C 0.36102 0.91848 0.10779 0.0
C3423 C 0.33777 0.91911 0.11096 0.0
C3424 C 0.37776 0.91577 0.11691 0.0
C3425 C 0.4025 0.91334 0.11416 0.0
C3426 C 0.41041 0.89511 0.10702 0.0
C3427 C 0.43372 0.89307 0.10437 0.0
C3428 C 0.44932 0.909 0.10893 0.0
C3429 C 0.44163 0.92697 0.11619 0.0
C3430 C 0.41832 0.92913 0.11884 0.0
C3431 C 0.32932 0.86942 0.15515 0.0
C3432 C 0.34089 0.87733 0.16543 0.0
C3433 C 0.3298 0.88198 0.14451 0.0
C3434 C 0.34182 0.90275 0.14392 0.0
C3435 C 0.35189 0.91159 0.15443 0.0
C3436 C 0.35129 0.89902 0.16515 0.0
C3437 C 0.34759 0.91235 0.13195 0.0
C3438 C 0.37084 0.91323 0.12886 0.0
C3439 C 0.33079 0.9161 0.12297 0.0
C3440 C 0.30597 0.91657 0.12592 0.0
C3441 C 0.29785 0.93001 0.13552 0.0
C3442 C 0.27451 0.9303 0.13833 0.0
C3443 C 0.25908 0.91728 0.1316 0.0
C3444 C 0.26695 0.90396 0.12201 0.0
C3445 C 0.29027 0.9036 0.11915 0.0
H3446 H 0.24102 0.91753 0.13379 0.0
H3447 H 0.46737 0.90738 0.10688 0.0
H3448 H 0.8781 0.33884 0.65778 0.0
H3449 H 0.87161 0.36102 0.63965 0.0
H3450 H 0.84038 0.41485 0.66063 0.0
H3451 H 0.84765 0.39277 0.67908 0.0
H3452 H 0.8346 0.37476 0.62883 0.0
H3453 H 0.84937 0.46534 0.64516 0.0
H3454 H 0.86762 0.48638 0.66189 0.0
H3455 H 0.91842 0.43352 0.66518 0.0
H3456 H 0.90055 0.41232 0.64842 0.0
H3457 H 0.85382 0.42489 0.57215 0.0
H3458 H 0.8352 0.4248 0.59195 0.0
H3459 H 0.90151 0.42936 0.60901 0.0
H3460 H 0.91981 0.43076 0.58956 0.0
H3461 H 0.8731 0.44954 0.62269 0.0
H3462 H 0.87271 0.37487 0.60082 0.0
H3463 H 0.86041 0.35036 0.58391 0.0
H3464 H 0.79001 0.36603 0.59154 0.0
H3465 H 0.80198 0.39073 0.60846 0.0
C3466 C 0.86988 0.35541 0.65858 0.0
C3467 C 0.86344 0.36409 0.66985 0.0
C3468 C 0.866 0.36802 0.64818 0.0
C3469 C 0.85534 0.38954 0.64874 0.0
C3470 C 0.84874 0.39833 0.65998 0.0
C3471 C 0.85296 0.38576 0.6705 0.0
C3472 C 0.85242 0.40266 0.63741 0.0
C3473 C 0.84261 0.39136 0.62753 0.0
C3474 C 0.86243 0.42448 0.63571 0.0
C3475 C 0.87347 0.43717 0.64567 0.0
C3476 C 0.86445 0.45826 0.64946 0.0
C3477 C 0.87472 0.4702 0.65894 0.0
C3478 C 0.89412 0.46124 0.66462 0.0
C3479 C 0.90335 0.44039 0.6608 0.0
C3480 C 0.89315 0.42841 0.65132 0.0
C3481 C 0.8643 0.4264 0.58015 0.0
C3482 C 0.88832 0.42733 0.57929 0.0
C3483 C 0.85366 0.42634 0.59146 0.0
C3484 C 0.86696 0.42655 0.60202 0.0
C3485 C 0.89077 0.4292 0.60106 0.0
C3486 C 0.90129 0.42974 0.58986 0.0
C3487 C 0.85727 0.42058 0.61398 0.0
C3488 C 0.86419 0.43343 0.62404 0.0
C3489 C 0.8454 0.39972 0.61582 0.0
C3490 C 0.83821 0.38478 0.60577 0.0
C3491 C 0.85462 0.37308 0.59885 0.0
C3492 C 0.84772 0.35919 0.58928 0.0
C3493 C 0.82444 0.3567 0.58663 0.0
C3494 C 0.80803 0.36802 0.59359 0.0
C3495 C 0.81485 0.38196 0.60317 0.0
H3496 H 0.81913 0.34595 0.57921 0.0
H3497 H 0.90203 0.47049 0.67196 0.0
H3498 H 0.33446 0.1131 0.3218 0.0
H3499 H 0.3252 0.09483 0.34116 0.0
H3500 H 0.39369 0.10895 0.35372 0.0
H3501 H 0.40262 0.12767 0.33462 0.0
H3502 H 0.37418 0.0659 0.36239 0.0
H3503 H 0.35553 0.14929 0.35746 0.0
H3504 H 0.33375 0.17984 0.34719 0.0
H3505 H 0.27074 0.14504 0.35517 0.0
H3506 H 0.29225 0.11416 0.36536 0.0
H3507 H 0.41005 0.11834 0.41217 0.0
H3508 H 0.39602 0.10424 0.39315 0.0
H3509 H 0.32735 0.10105 0.4074 0.0
H3510 H 0.34153 0.1155 0.42689 0.0
H3511 H 0.32961 0.12323 0.3856 0.0
H3512 H 0.35146 0.05089 0.39924 0.0
H3513 H 0.3744 0.02167 0.40978 0.0
H3514 H 0.43066 0.03382 0.38575 0.0
H3515 H 0.40826 0.06337 0.37518 0.0
C3516 C 0.34771 0.11141 0.32856 0.0
C3517 C 0.36926 0.12157 0.32682 0.0
C3518 C 0.34241 0.10105 0.33958 0.0
C3519 C 0.35877 0.10056 0.34884 0.0
C3520 C 0.38091 0.10895 0.34664 0.0
C3521 C 0.38602 0.11967 0.33577 0.0
C3522 C 0.35233 0.09546 0.36142 0.0
C3523 C 0.36407 0.07804 0.36751 0.0
C3524 C 0.33831 0.11074 0.36799 0.0
C3525 C 0.32545 0.12939 0.36203 0.0
C3526 C 0.33704 0.14814 0.35696 0.0
C3527 C 0.32476 0.1655 0.35116 0.0
C3528 C 0.30088 0.16435 0.3505 0.0
C3529 C 0.28923 0.14588 0.35566 0.0
C3530 C 0.30145 0.12845 0.36144 0.0
C3531 C 0.39194 0.11456 0.41139 0.0
C3532 C 0.37687 0.11822 0.42105 0.0
C3533 C 0.38398 0.10615 0.4005 0.0
C3534 C 0.36072 0.10106 0.39891 0.0
C3535 C 0.34545 0.10455 0.40851 0.0
C3536 C 0.35353 0.11286 0.41959 0.0
C3537 C 0.35287 0.09463 0.38669 0.0
C3538 C 0.33853 0.11 0.38059 0.0
C3539 C 0.36437 0.07728 0.38014 0.0
C3540 C 0.37805 0.05934 0.38636 0.0
C3541 C 0.36875 0.0474 0.39622 0.0
C3542 C 0.38167 0.03077 0.4022 0.0
C3543 C 0.40396 0.02586 0.39842 0.0
C3544 C 0.41336 0.03758 0.38864 0.0
C3545 C 0.40051 0.05424 0.38262 0.0
H3546 H 0.41394 0.013 0.40308 0.0
H3547 H 0.29139 0.1778 0.34601 0.0
H3548 H 0.69646 0.67453 0.16753 0.0
H3549 H 0.70271 0.6581 0.14762 0.0
H3550 H 0.65119 0.60689 0.15478 0.0
H3551 H 0.64542 0.62283 0.17494 0.0
H3552 H 0.68502 0.58988 0.14044 0.0
H3553 H 0.63693 0.6579 0.1417 0.0
H3554 H 0.62858 0.69832 0.14646 0.0
H3555 H 0.68521 0.71975 0.12452 0.0
H3556 H 0.69405 0.67939 0.11977 0.0
H3557 H 0.61573 0.57583 0.09018 0.0
H3558 H 0.63718 0.5812 0.10869 0.0
H3559 H 0.6842 0.62611 0.09021 0.0
H3560 H 0.6625 0.62082 0.07148 0.0
H3561 H 0.66426 0.64654 0.10899 0.0
H3562 H 0.70431 0.5772 0.10346 0.0
H3563 H 0.71001 0.53649 0.09841 0.0
H3564 H 0.66653 0.51675 0.12778 0.0
H3565 H 0.66026 0.55733 0.1329 0.0
C3566 C 0.68678 0.65948 0.16495 0.0
C3567 C 0.67012 0.65019 0.17267 0.0
C3568 C 0.69042 0.65009 0.15358 0.0
C3569 C 0.67705 0.63162 0.14963 0.0
C3570 C 0.66164 0.62121 0.15766 0.0
C3571 C 0.65827 0.63037 0.16914 0.0
C3572 C 0.67685 0.62514 0.13675 0.0
C3573 C 0.68052 0.60219 0.13352 0.0
C3574 C 0.67168 0.64142 0.1277 0.0
C3575 C 0.66633 0.66566 0.13051 0.0
C3576 C 0.64769 0.67123 0.13797 0.0
C3577 C 0.64286 0.69412 0.14065 0.0
C3578 C 0.6564 0.71159 0.13583 0.0
C3579 C 0.67477 0.7062 0.12828 0.0
C3580 C 0.6797 0.68333 0.12559 0.0
C3581 C 0.63095 0.58645 0.08997 0.0
C3582 C 0.63725 0.59822 0.07945 0.0
C3583 C 0.64338 0.58929 0.10054 0.0
C3584 C 0.66239 0.60395 0.10083 0.0
C3585 C 0.66965 0.6146 0.09014 0.0
C3586 C 0.65726 0.61159 0.07947 0.0
C3587 C 0.67167 0.61106 0.11265 0.0
C3588 C 0.66959 0.63423 0.11575 0.0
C3589 C 0.67803 0.59491 0.12155 0.0
C3590 C 0.68177 0.57039 0.11855 0.0
C3591 C 0.69583 0.5642 0.1088 0.0
C3592 C 0.69918 0.54113 0.10593 0.0
C3593 C 0.68863 0.52404 0.11276 0.0
C3594 C 0.67472 0.53 0.1225 0.0
C3595 C 0.6713 0.55305 0.12541 0.0
H3596 H 0.69124 0.50619 0.11052 0.0
H3597 H 0.65263 0.7293 0.13791 0.0
H3598 H 0.17923 0.8265 0.82635 0.0
H3599 H 0.18589 0.84287 0.84622 0.0
H3600 H 0.13825 0.89735 0.83829 0.0
H3601 H 0.13218 0.88142 0.81809 0.0
H3602 H 0.17302 0.91221 0.85287 0.0
H3603 H 0.11985 0.84875 0.85177 0.0
H3604 H 0.10768 0.80931 0.84704 0.0
H3605 H 0.16199 0.7826 0.86901 0.0
H3606 H 0.17467 0.82192 0.87373 0.0
H3607 H 0.11049 0.93061 0.90578 0.0
H3608 H 0.12868 0.92426 0.88639 0.0
H3609 H 0.17466 0.87528 0.9026 0.0
H3610 H 0.15633 0.8816 0.9222 0.0
H3611 H 0.14958 0.85718 0.88459 0.0
H3612 H 0.19639 0.92279 0.8892 0.0
H3613 H 0.20589 0.96281 0.89416 0.0
H3614 H 0.16108 0.9865 0.86617 0.0
H3615 H 0.15102 0.94664 0.86114 0.0
C3616 C 0.17049 0.84222 0.82876 0.0
C3617 C 0.15484 0.85249 0.82082 0.0
C3618 C 0.17435 0.85156 0.8401 0.0
C3619 C 0.16215 0.87099 0.84382 0.0
C3620 C 0.14777 0.88228 0.83559 0.0
C3621 C 0.14422 0.87314 0.8241 0.0
C3622 C 0.16221 0.87771 0.85666 0.0
C3623 C 0.16787 0.90027 0.85983 0.0
C3624 C 0.15604 0.86189 0.86576 0.0
C3625 C 0.14837 0.83825 0.86298 0.0
C3626 C 0.12929 0.83446 0.85552 0.0
C3627 C 0.12229 0.81213 0.85285 0.0
C3628 C 0.1341 0.79346 0.85769 0.0
C3629 C 0.1529 0.79708 0.86524 0.0
C3630 C 0.15999 0.81938 0.86792 0.0
C3631 C 0.12484 0.91888 0.90529 0.0
C3632 C 0.13178 0.90631 0.91544 0.0
C3633 C 0.1354 0.91546 0.89421 0.0
C3634 C 0.15308 0.89937 0.89306 0.0
C3635 C 0.1611 0.88787 0.90334 0.0
C3636 C 0.15064 0.89148 0.91451 0.0
C3637 C 0.15999 0.89187 0.88087 0.0
C3638 C 0.15544 0.86907 0.87775 0.0
C3639 C 0.16685 0.90759 0.87187 0.0
C3640 C 0.17287 0.93166 0.87482 0.0
C3641 C 0.18842 0.93652 0.88415 0.0
C3642 C 0.19393 0.95919 0.88696 0.0
C3643 C 0.18408 0.97719 0.88049 0.0
C3644 C 0.16871 0.97255 0.87117 0.0
C3645 C 0.16313 0.9499 0.86832 0.0
H3646 H 0.18837 0.99473 0.88268 0.0
H3647 H 0.12865 0.77619 0.85562 0.0
loop_
_geom_bond_atom_site_label_1
_geom_bond_atom_site_label_2
_geom_bond_distance
_geom_bond_site_symmetry_2
_ccdc_geom_bond_type
Zn0 O3 2.031 . S
Zn0 O5 2.049 . S
Zn0 O10 2.067 . S
Zn1 O2 1.962 . S
Zn1 O4 1.986 . S
Zn1 O6 1.996 . S
Zn1 O9 1.943 . S
O2 Zn1 1.962 . S
O2 C7 1.254 . S
O3 Zn0 2.031 . S
O3 C7 1.269 . S
O4 Zn1 1.986 . S
O4 C11 1.262 . S
O5 Zn0 2.049 . S
O5 C13 1.260 . S
O6 Zn1 1.996 . S
O6 C13 1.257 . S
C7 O2 1.254 . S
C7 O3 1.269 . S
C8 O9 1.249 . S
C8 O10 1.270 . S
O9 Zn1 1.943 . S
O9 C8 1.249 . S
O10 Zn0 2.067 . S
O10 C8 1.270 . S
C11 O4 1.262 . S
C11 O12 1.232 . S
O12 C11 1.232 . S
C13 O5 1.260 . S
C13 O6 1.257 . S
Zn14 O17 2.031 . S
Zn14 O19 2.049 . S
Zn14 O24 2.067 . S
Zn15 O16 1.962 . S
Zn15 O18 1.986 . S
Zn15 O20 1.996 . S
Zn15 O23 1.943 . S
O16 Zn15 1.962 . S
O16 C21 1.254 . S
O17 Zn14 2.031 . S
O17 C21 1.269 . S
O18 Zn15 1.986 . S
O18 C25 1.262 . S
O19 Zn14 2.049 . S
O19 C27 1.260 . S
O20 Zn15 1.996 . S
O20 C27 1.257 . S
C21 O16 1.254 . S
C21 O17 1.269 . S
C22 O23 1.249 . S
C22 O24 1.270 . S
O23 Zn15 1.943 . S
O23 C22 1.249 . S
O24 Zn14 2.067 . S
O24 C22 1.270 . S
C25 O18 1.262 . S
C25 O26 1.232 . S
O26 C25 1.232 . S
C27 O19 1.260 . S
C27 O20 1.257 . S
Zn28 O31 2.031 . S
Zn28 O33 2.049 . S
Zn28 O38 2.067 . S
Zn29 O30 1.962 . S
Zn29 O32 1.986 . S
Zn29 O34 1.996 . S
Zn29 O37 1.943 . S
O30 Zn29 1.962 . S
O30 C35 1.254 . S
O31 Zn28 2.031 . S
O31 C35 1.269 . S
O32 Zn29 1.986 . S
O32 C39 1.262 . S
O33 Zn28 2.049 . S
O33 C41 1.260 . S
O34 Zn29 1.996 . S
O34 C41 1.257 . S
C35 O30 1.254 . S
C35 O31 1.269 . S
C36 O37 1.249 . S
C36 O38 1.270 . S
O37 Zn29 1.943 . S
O37 C36 1.249 . S
O38 Zn28 2.067 . S
O38 C36 1.270 . S
C39 O32 1.262 . S
C39 O40 1.232 . S
O40 C39 1.232 . S
C41 O33 1.260 . S
C41 O34 1.257 . S
Zn42 O45 2.031 . S
Zn42 O47 2.049 . S
Zn42 O52 2.067 . S
Zn43 O44 1.962 . S
Zn43 O46 1.986 . S
Zn43 O48 1.996 . S
Zn43 O51 1.943 . S
O44 Zn43 1.962 . S
O44 C49 1.254 . S
O45 Zn42 2.031 . S
O45 C49 1.269 . S
O46 Zn43 1.986 . S
O46 C53 1.262 . S
O47 Zn42 2.049 . S
O47 C55 1.260 . S
O48 Zn43 1.996 . S
O48 C55 1.257 . S
C49 O44 1.254 . S
C49 O45 1.269 . S
C50 O51 1.249 . S
C50 O52 1.270 . S
O51 Zn43 1.943 . S
O51 C50 1.249 . S
O52 Zn42 2.067 . S
O52 C50 1.270 . S
C53 O46 1.262 . S
C53 O54 1.232 . S
O54 C53 1.232 . S
C55 O47 1.260 . S
C55 O48 1.257 . S
Zn56 O59 2.031 . S
Zn56 O61 2.049 . S
Zn56 O66 2.067 . S
Zn57 O58 1.962 . S
Zn57 O60 1.986 . S
Zn57 O62 1.996 . S
Zn57 O65 1.943 . S
O58 Zn57 1.962 . S
O58 C63 1.254 . S
O59 Zn56 2.031 . S
O59 C63 1.269 . S
O60 Zn57 1.986 . S
O60 C67 1.262 . S
O61 Zn56 2.049 . S
O61 C69 1.260 . S
O62 Zn57 1.996 . S
O62 C69 1.257 . S
C63 O58 1.254 . S
C63 O59 1.269 . S
C64 O65 1.249 . S
C64 O66 1.270 . S
O65 Zn57 1.943 . S
O65 C64 1.249 . S
O66 Zn56 2.067 . S
O66 C64 1.270 . S
C67 O60 1.262 . S
C67 O68 1.232 . S
O68 C67 1.232 . S
C69 O61 1.260 . S
C69 O62 1.257 . S
Zn70 O73 2.031 . S
Zn70 O75 2.049 . S
Zn70 O80 2.067 . S
Zn71 O72 1.962 . S
Zn71 O74 1.986 . S
Zn71 O76 1.996 . S
Zn71 O79 1.943 . S
O72 Zn71 1.962 . S
O72 C77 1.254 . S
O73 Zn70 2.031 . S
O73 C77 1.269 . S
O74 Zn71 1.986 . S
O74 C81 1.262 . S
O75 Zn70 2.049 . S
O75 C83 1.260 . S
O76 Zn71 1.996 . S
O76 C83 1.257 . S
C77 O72 1.254 . S
C77 O73 1.269 . S
C78 O79 1.249 . S
C78 O80 1.270 . S
O79 Zn71 1.943 . S
O79 C78 1.249 . S
O80 Zn70 2.067 . S
O80 C78 1.270 . S
C81 O74 1.262 . S
C81 O82 1.232 . S
O82 C81 1.232 . S
C83 O75 1.260 . S
C83 O76 1.257 . S
Zn84 O87 2.031 . S
Zn84 O89 2.049 . S
Zn84 O94 2.067 . S
Zn85 O86 1.962 . S
Zn85 O88 1.986 . S
Zn85 O90 1.996 . S
Zn85 O93 1.943 . S
O86 Zn85 1.962 . S
O86 C91 1.254 . S
O87 Zn84 2.031 . S
O87 C91 1.269 . S
O88 Zn85 1.986 . S
O88 C95 1.262 . S
O89 Zn84 2.049 . S
O89 C97 1.260 . S
O90 Zn85 1.996 . S
O90 C97 1.257 . S
C91 O86 1.254 . S
C91 O87 1.269 . S
C92 O93 1.249 . S
C92 O94 1.270 . S
O93 Zn85 1.943 . S
O93 C92 1.249 . S
O94 Zn84 2.067 . S
O94 C92 1.270 . S
C95 O88 1.262 . S
C95 O96 1.232 . S
O96 C95 1.232 . S
C97 O89 1.260 . S
C97 O90 1.257 . S
Zn98 O101 2.031 . S
Zn98 O103 2.049 . S
Zn98 O108 2.067 . S
Zn99 O100 1.962 . S
Zn99 O102 1.986 . S
Zn99 O104 1.996 . S
Zn99 O107 1.943 . S
O100 Zn99 1.962 . S
O100 C105 1.254 . S
O101 Zn98 2.031 . S
O101 C105 1.269 . S
O102 Zn99 1.986 . S
O102 C109 1.262 . S
O103 Zn98 2.049 . S
O103 C111 1.260 . S
O104 Zn99 1.996 . S
O104 C111 1.257 . S
C105 O100 1.254 . S
C105 O101 1.269 . S
C106 O107 1.249 . S
C106 O108 1.270 . S
O107 Zn99 1.943 . S
O107 C106 1.249 . S
O108 Zn98 2.067 . S
O108 C106 1.270 . S
C109 O102 1.262 . S
C109 O110 1.232 . S
O110 C109 1.232 . S
C111 O103 1.260 . S
C111 O104 1.257 . S
Zn112 O115 2.031 . S
Zn112 O117 2.049 . S
Zn112 O122 2.067 . S
Zn113 O114 1.962 . S
Zn113 O116 1.986 . S
Zn113 O118 1.996 . S
Zn113 O121 1.943 . S
O114 Zn113 1.962 . S
O114 C119 1.254 . S
O115 Zn112 2.031 . S
O115 C119 1.269 . S
O116 Zn113 1.986 . S
O116 C123 1.262 . S
O117 Zn112 2.049 . S
O117 C125 1.260 . S
O118 Zn113 1.996 . S
O118 C125 1.257 . S
C119 O114 1.254 . S
C119 O115 1.269 . S
C120 O121 1.249 . S
C120 O122 1.270 . S
O121 Zn113 1.943 . S
O121 C120 1.249 . S
O122 Zn112 2.067 . S
O122 C120 1.270 . S
C123 O116 1.262 . S
C123 O124 1.232 . S
O124 C123 1.232 . S
C125 O117 1.260 . S
C125 O118 1.257 . S
Zn126 O129 2.031 . S
Zn126 O131 2.049 . S
Zn126 O136 2.067 . S
Zn127 O128 1.962 . S
Zn127 O130 1.986 . S
Zn127 O132 1.996 . S
Zn127 O135 1.943 . S
O128 Zn127 1.962 . S
O128 C133 1.254 . S
O129 Zn126 2.031 . S
O129 C133 1.269 . S
O130 Zn127 1.986 . S
O130 C137 1.262 . S
O131 Zn126 2.049 . S
O131 C139 1.260 . S
O132 Zn127 1.996 . S
O132 C139 1.257 . S
C133 O128 1.254 . S
C133 O129 1.269 . S
C134 O135 1.249 . S
C134 O136 1.270 . S
O135 Zn127 1.943 . S
O135 C134 1.249 . S
O136 Zn126 2.067 . S
O136 C134 1.270 . S
C137 O130 1.262 . S
C137 O138 1.232 . S
O138 C137 1.232 . S
C139 O131 1.260 . S
C139 O132 1.257 . S
Zn140 O143 2.031 . S
Zn140 O145 2.049 . S
Zn140 O150 2.067 . S
Zn141 O142 1.962 . S
Zn141 O144 1.986 . S
Zn141 O146 1.996 . S
Zn141 O149 1.943 . S
O142 Zn141 1.962 . S
O142 C147 1.254 . S
O143 Zn140 2.031 . S
O143 C147 1.269 . S
O144 Zn141 1.986 . S
O144 C151 1.262 . S
O145 Zn140 2.049 . S
O145 C153 1.260 . S
O146 Zn141 1.996 . S
O146 C153 1.257 . S
C147 O142 1.254 . S
C147 O143 1.269 . S
C148 O149 1.249 . S
C148 O150 1.270 . S
O149 Zn141 1.943 . S
O149 C148 1.249 . S
O150 Zn140 2.067 . S
O150 C148 1.270 . S
C151 O144 1.262 . S
C151 O152 1.232 . S
O152 C151 1.232 . S
C153 O145 1.260 . S
C153 O146 1.257 . S
Zn154 O157 2.031 . S
Zn154 O159 2.049 . S
Zn154 O164 2.067 . S
Zn155 O156 1.962 . S
Zn155 O158 1.986 . S
Zn155 O160 1.996 . S
Zn155 O163 1.943 . S
O156 Zn155 1.962 . S
O156 C161 1.254 . S
O157 Zn154 2.031 . S
O157 C161 1.269 . S
O158 Zn155 1.986 . S
O158 C165 1.262 . S
O159 Zn154 2.049 . S
O159 C167 1.260 . S
O160 Zn155 1.996 . S
O160 C167 1.257 . S
C161 O156 1.254 . S
C161 O157 1.269 . S
C162 O163 1.249 . S
C162 O164 1.270 . S
O163 Zn155 1.943 . S
O163 C162 1.249 . S
O164 Zn154 2.067 . S
O164 C162 1.270 . S
C165 O158 1.262 . S
C165 O166 1.232 . S
O166 C165 1.232 . S
C167 O159 1.260 . S
C167 O160 1.257 . S
Zn168 O171 2.031 . S
Zn168 O173 2.049 . S
Zn168 O178 2.067 . S
Zn169 O170 1.962 . S
Zn169 O172 1.986 . S
Zn169 O174 1.996 . S
Zn169 O177 1.943 . S
O170 Zn169 1.962 . S
O170 C175 1.254 . S
O171 Zn168 2.031 . S
O171 C175 1.269 . S
O172 Zn169 1.986 . S
O172 C179 1.262 . S
O173 Zn168 2.049 . S
O173 C181 1.260 . S
O174 Zn169 1.996 . S
O174 C181 1.257 . S
C175 O170 1.254 . S
C175 O171 1.269 . S
C176 O177 1.249 . S
C176 O178 1.270 . S
O177 Zn169 1.943 . S
O177 C176 1.249 . S
O178 Zn168 2.067 . S
O178 C176 1.270 . S
C179 O172 1.262 . S
C179 O180 1.232 . S
O180 C179 1.232 . S
C181 O173 1.260 . S
C181 O174 1.257 . S
Zn182 O185 2.031 . S
Zn182 O187 2.049 . S
Zn182 O192 2.067 . S
Zn183 O184 1.962 . S
Zn183 O186 1.986 . S
Zn183 O188 1.996 . S
Zn183 O191 1.943 . S
O184 Zn183 1.962 . S
O184 C189 1.254 . S
O185 Zn182 2.031 . S
O185 C189 1.269 . S
O186 Zn183 1.986 . S
O186 C193 1.262 . S
O187 Zn182 2.049 . S
O187 C195 1.260 . S
O188 Zn183 1.996 . S
O188 C195 1.257 . S
C189 O184 1.254 . S
C189 O185 1.269 . S
C190 O191 1.249 . S
C190 O192 1.270 . S
O191 Zn183 1.943 . S
O191 C190 1.249 . S
O192 Zn182 2.067 . S
O192 C190 1.270 . S
C193 O186 1.262 . S
C193 O194 1.232 . S
O194 C193 1.232 . S
C195 O187 1.260 . S
C195 O188 1.257 . S
Zn196 O199 2.031 . S
Zn196 O201 2.049 . S
Zn196 O206 2.067 . S
Zn197 O198 1.962 . S
Zn197 O200 1.986 . S
Zn197 O202 1.996 . S
Zn197 O205 1.943 . S
O198 Zn197 1.962 . S
O198 C203 1.254 . S
O199 Zn196 2.031 . S
O199 C203 1.269 . S
O200 Zn197 1.986 . S
O200 C207 1.262 . S
O201 Zn196 2.049 . S
O201 C209 1.260 . S
O202 Zn197 1.996 . S
O202 C209 1.257 . S
C203 O198 1.254 . S
C203 O199 1.269 . S
C204 O205 1.249 . S
C204 O206 1.270 . S
O205 Zn197 1.943 . S
O205 C204 1.249 . S
O206 Zn196 2.067 . S
O206 C204 1.270 . S
C207 O200 1.262 . S
C207 O208 1.232 . S
O208 C207 1.232 . S
C209 O201 1.260 . S
C209 O202 1.257 . S
Zn210 O213 2.031 . S
Zn210 O215 2.049 . S
Zn210 O220 2.067 . S
Zn211 O212 1.962 . S
Zn211 O214 1.986 . S
Zn211 O216 1.996 . S
Zn211 O219 1.943 . S
O212 Zn211 1.962 . S
O212 C217 1.254 . S
O213 Zn210 2.031 . S
O213 C217 1.269 . S
O214 Zn211 1.986 . S
O214 C221 1.262 . S
O215 Zn210 2.049 . S
O215 C223 1.260 . S
O216 Zn211 1.996 . S
O216 C223 1.257 . S
C217 O212 1.254 . S
C217 O213 1.269 . S
C218 O219 1.249 . S
C218 O220 1.270 . S
O219 Zn211 1.943 . S
O219 C218 1.249 . S
O220 Zn210 2.067 . S
O220 C218 1.270 . S
C221 O214 1.262 . S
C221 O222 1.232 . S
O222 C221 1.232 . S
C223 O215 1.260 . S
C223 O216 1.257 . S
Zn224 O227 2.031 . S
Zn224 O229 2.049 . S
Zn224 O234 2.067 . S
Zn225 O226 1.962 . S
Zn225 O228 1.986 . S
Zn225 O230 1.996 . S
Zn225 O233 1.943 . S
O226 Zn225 1.962 . S
O226 C231 1.254 . S
O227 Zn224 2.031 . S
O227 C231 1.269 . S
O228 Zn225 1.986 . S
O228 C235 1.262 . S
O229 Zn224 2.049 . S
O229 C237 1.260 . S
O230 Zn225 1.996 . S
O230 C237 1.257 . S
C231 O226 1.254 . S
C231 O227 1.269 . S
C232 O233 1.249 . S
C232 O234 1.270 . S
O233 Zn225 1.943 . S
O233 C232 1.249 . S
O234 Zn224 2.067 . S
O234 C232 1.270 . S
C235 O228 1.262 . S
C235 O236 1.232 . S
O236 C235 1.232 . S
C237 O229 1.260 . S
C237 O230 1.257 . S
Zn238 O241 2.031 . S
Zn238 O243 2.049 . S
Zn238 O248 2.067 . S
Zn239 O240 1.962 . S
Zn239 O242 1.986 . S
Zn239 O244 1.996 . S
Zn239 O247 1.943 . S
O240 Zn239 1.962 . S
O240 C245 1.254 . S
O241 Zn238 2.031 . S
O241 C245 1.269 . S
O242 Zn239 1.986 . S
O242 C249 1.262 . S
O243 Zn238 2.049 . S
O243 C251 1.260 . S
O244 Zn239 1.996 . S
O244 C251 1.257 . S
C245 O240 1.254 . S
C245 O241 1.269 . S
C246 O247 1.249 . S
C246 O248 1.270 . S
O247 Zn239 1.943 . S
O247 C246 1.249 . S
O248 Zn238 2.067 . S
O248 C246 1.270 . S
C249 O242 1.262 . S
C249 O250 1.232 . S
O250 C249 1.232 . S
C251 O243 1.260 . S
C251 O244 1.257 . S
Zn252 O255 2.031 . S
Zn252 O257 2.049 . S
Zn252 O262 2.067 . S
Zn253 O254 1.962 . S
Zn253 O256 1.986 . S
Zn253 O258 1.996 . S
Zn253 O261 1.943 . S
O254 Zn253 1.962 . S
O254 C259 1.254 . S
O255 Zn252 2.031 . S
O255 C259 1.269 . S
O256 Zn253 1.986 . S
O256 C263 1.262 . S
O257 Zn252 2.049 . S
O257 C265 1.260 . S
O258 Zn253 1.996 . S
O258 C265 1.257 . S
C259 O254 1.254 . S
C259 O255 1.269 . S
C260 O261 1.249 . S
C260 O262 1.270 . S
O261 Zn253 1.943 . S
O261 C260 1.249 . S
O262 Zn252 2.067 . S
O262 C260 1.270 . S
C263 O256 1.262 . S
C263 O264 1.232 . S
O264 C263 1.232 . S
C265 O257 1.260 . S
C265 O258 1.257 . S
Zn266 O269 2.031 . S
Zn266 O271 2.049 . S
Zn266 O276 2.067 . S
Zn267 O268 1.962 . S
Zn267 O270 1.986 . S
Zn267 O272 1.996 . S
Zn267 O275 1.943 . S
O268 Zn267 1.962 . S
O268 C273 1.254 . S
O269 Zn266 2.031 . S
O269 C273 1.269 . S
O270 Zn267 1.986 . S
O270 C277 1.262 . S
O271 Zn266 2.049 . S
O271 C279 1.260 . S
O272 Zn267 1.996 . S
O272 C279 1.257 . S
C273 O268 1.254 . S
C273 O269 1.269 . S
C274 O275 1.249 . S
C274 O276 1.270 . S
O275 Zn267 1.943 . S
O275 C274 1.249 . S
O276 Zn266 2.067 . S
O276 C274 1.270 . S
C277 O270 1.262 . S
C277 O278 1.232 . S
O278 C277 1.232 . S
C279 O271 1.260 . S
C279 O272 1.257 . S
Zn280 O283 2.031 . S
Zn280 O285 2.049 . S
Zn280 O290 2.067 . S
Zn281 O282 1.962 . S
Zn281 O284 1.986 . S
Zn281 O286 1.996 . S
Zn281 O289 1.943 . S
O282 Zn281 1.962 . S
O282 C287 1.254 . S
O283 Zn280 2.031 . S
O283 C287 1.269 . S
O284 Zn281 1.986 . S
O284 C291 1.262 . S
O285 Zn280 2.049 . S
O285 C293 1.260 . S
O286 Zn281 1.996 . S
O286 C293 1.257 . S
C287 O282 1.254 . S
C287 O283 1.269 . S
C288 O289 1.249 . S
C288 O290 1.270 . S
O289 Zn281 1.943 . S
O289 C288 1.249 . S
O290 Zn280 2.067 . S
O290 C288 1.270 . S
C291 O284 1.262 . S
C291 O292 1.232 . S
O292 C291 1.232 . S
C293 O285 1.260 . S
C293 O286 1.257 . S
Zn294 O297 2.031 . S
Zn294 O299 2.049 . S
Zn294 O304 2.067 . S
Zn295 O296 1.962 . S
Zn295 O298 1.986 . S
Zn295 O300 1.996 . S
Zn295 O303 1.943 . S
O296 Zn295 1.962 . S
O296 C301 1.254 . S
O297 Zn294 2.031 . S
O297 C301 1.269 . S
O298 Zn295 1.986 . S
O298 C305 1.262 . S
O299 Zn294 2.049 . S
O299 C307 1.260 . S
O300 Zn295 1.996 . S
O300 C307 1.257 . S
C301 O296 1.254 . S
C301 O297 1.269 . S
C302 O303 1.249 . S
C302 O304 1.270 . S
O303 Zn295 1.943 . S
O303 C302 1.249 . S
O304 Zn294 2.067 . S
O304 C302 1.270 . S
C305 O298 1.262 . S
C305 O306 1.232 . S
O306 C305 1.232 . S
C307 O299 1.260 . S
C307 O300 1.257 . S
Zn308 O311 2.031 . S
Zn308 O313 2.049 . S
Zn308 O318 2.067 . S
Zn309 O310 1.962 . S
Zn309 O312 1.986 . S
Zn309 O314 1.996 . S
Zn309 O317 1.943 . S
O310 Zn309 1.962 . S
O310 C315 1.254 . S
O311 Zn308 2.031 . S
O311 C315 1.269 . S
O312 Zn309 1.986 . S
O312 C319 1.262 . S
O313 Zn308 2.049 . S
O313 C321 1.260 . S
O314 Zn309 1.996 . S
O314 C321 1.257 . S
C315 O310 1.254 . S
C315 O311 1.269 . S
C316 O317 1.249 . S
C316 O318 1.270 . S
O317 Zn309 1.943 . S
O317 C316 1.249 . S
O318 Zn308 2.067 . S
O318 C316 1.270 . S
C319 O312 1.262 . S
C319 O320 1.232 . S
O320 C319 1.232 . S
C321 O313 1.260 . S
C321 O314 1.257 . S
Zn322 O325 2.031 . S
Zn322 O327 2.049 . S
Zn322 O332 2.067 . S
Zn323 O324 1.962 . S
Zn323 O326 1.986 . S
Zn323 O328 1.996 . S
Zn323 O331 1.943 . S
O324 Zn323 1.962 . S
O324 C329 1.254 . S
O325 Zn322 2.031 . S
O325 C329 1.269 . S
O326 Zn323 1.986 . S
O326 C333 1.262 . S
O327 Zn322 2.049 . S
O327 C335 1.260 . S
O328 Zn323 1.996 . S
O328 C335 1.257 . S
C329 O324 1.254 . S
C329 O325 1.269 . S
C330 O331 1.249 . S
C330 O332 1.270 . S
O331 Zn323 1.943 . S
O331 C330 1.249 . S
O332 Zn322 2.067 . S
O332 C330 1.270 . S
C333 O326 1.262 . S
C333 O334 1.232 . S
O334 C333 1.232 . S
C335 O327 1.260 . S
C335 O328 1.257 . S
Zn336 O339 2.031 . S
Zn336 O341 2.049 . S
Zn336 O346 2.067 . S
Zn337 O338 1.962 . S
Zn337 O340 1.986 . S
Zn337 O342 1.996 . S
Zn337 O345 1.943 . S
O338 Zn337 1.962 . S
O338 C343 1.254 . S
O339 Zn336 2.031 . S
O339 C343 1.269 . S
O340 Zn337 1.986 . S
O340 C347 1.262 . S
O341 Zn336 2.049 . S
O341 C349 1.260 . S
O342 Zn337 1.996 . S
O342 C349 1.257 . S
C343 O338 1.254 . S
C343 O339 1.269 . S
C344 O345 1.249 . S
C344 O346 1.270 . S
O345 Zn337 1.943 . S
O345 C344 1.249 . S
O346 Zn336 2.067 . S
O346 C344 1.270 . S
C347 O340 1.262 . S
C347 O348 1.232 . S
O348 C347 1.232 . S
C349 O341 1.260 . S
C349 O342 1.257 . S
Zn350 O353 2.031 . S
Zn350 O355 2.049 . S
Zn350 O360 2.067 . S
Zn351 O352 1.962 . S
Zn351 O354 1.986 . S
Zn351 O356 1.996 . S
Zn351 O359 1.943 . S
O352 Zn351 1.962 . S
O352 C357 1.254 . S
O353 Zn350 2.031 . S
O353 C357 1.269 . S
O354 Zn351 1.986 . S
O354 C361 1.262 . S
O355 Zn350 2.049 . S
O355 C363 1.260 . S
O356 Zn351 1.996 . S
O356 C363 1.257 . S
C357 O352 1.254 . S
C357 O353 1.269 . S
C358 O359 1.249 . S
C358 O360 1.270 . S
O359 Zn351 1.943 . S
O359 C358 1.249 . S
O360 Zn350 2.067 . S
O360 C358 1.270 . S
C361 O354 1.262 . S
C361 O362 1.232 . S
O362 C361 1.232 . S
C363 O355 1.260 . S
C363 O356 1.257 . S
Zn364 O367 2.031 . S
Zn364 O369 2.049 . S
Zn364 O374 2.067 . S
Zn365 O366 1.962 . S
Zn365 O368 1.986 . S
Zn365 O370 1.996 . S
Zn365 O373 1.943 . S
O366 Zn365 1.962 . S
O366 C371 1.254 . S
O367 Zn364 2.031 . S
O367 C371 1.269 . S
O368 Zn365 1.986 . S
O368 C375 1.262 . S
O369 Zn364 2.049 . S
O369 C377 1.260 . S
O370 Zn365 1.996 . S
O370 C377 1.257 . S
C371 O366 1.254 . S
C371 O367 1.269 . S
C372 O373 1.249 . S
C372 O374 1.270 . S
O373 Zn365 1.943 . S
O373 C372 1.249 . S
O374 Zn364 2.067 . S
O374 C372 1.270 . S
C375 O368 1.262 . S
C375 O376 1.232 . S
O376 C375 1.232 . S
C377 O369 1.260 . S
C377 O370 1.257 . S
Zn378 O381 2.031 . S
Zn378 O383 2.049 . S
Zn378 O388 2.067 . S
Zn379 O380 1.962 . S
Zn379 O382 1.986 . S
Zn379 O384 1.996 . S
Zn379 O387 1.943 . S
O380 Zn379 1.962 . S
O380 C385 1.254 . S
O381 Zn378 2.031 . S
O381 C385 1.269 . S
O382 Zn379 1.986 . S
O382 C389 1.262 . S
O383 Zn378 2.049 . S
O383 C391 1.260 . S
O384 Zn379 1.996 . S
O384 C391 1.257 . S
C385 O380 1.254 . S
C385 O381 1.269 . S
C386 O387 1.249 . S
C386 O388 1.270 . S
O387 Zn379 1.943 . S
O387 C386 1.249 . S
O388 Zn378 2.067 . S
O388 C386 1.270 . S
C389 O382 1.262 . S
C389 O390 1.232 . S
O390 C389 1.232 . S
C391 O383 1.260 . S
C391 O384 1.257 . S
Zn392 O395 2.031 . S
Zn392 O397 2.049 . S
Zn392 O402 2.067 . S
Zn393 O394 1.962 . S
Zn393 O396 1.986 . S
Zn393 O398 1.996 . S
Zn393 O401 1.943 . S
O394 Zn393 1.962 . S
O394 C399 1.254 . S
O395 Zn392 2.031 . S
O395 C399 1.269 . S
O396 Zn393 1.986 . S
O396 C403 1.262 . S
O397 Zn392 2.049 . S
O397 C405 1.260 . S
O398 Zn393 1.996 . S
O398 C405 1.257 . S
C399 O394 1.254 . S
C399 O395 1.269 . S
C400 O401 1.249 . S
C400 O402 1.270 . S
O401 Zn393 1.943 . S
O401 C400 1.249 . S
O402 Zn392 2.067 . S
O402 C400 1.270 . S
C403 O396 1.262 . S
C403 O404 1.232 . S
O404 C403 1.232 . S
C405 O397 1.260 . S
C405 O398 1.257 . S
Zn406 O409 2.031 . S
Zn406 O411 2.049 . S
Zn406 O416 2.067 . S
Zn407 O408 1.962 . S
Zn407 O410 1.986 . S
Zn407 O412 1.996 . S
Zn407 O415 1.943 . S
O408 Zn407 1.962 . S
O408 C413 1.254 . S
O409 Zn406 2.031 . S
O409 C413 1.269 . S
O410 Zn407 1.986 . S
O410 C417 1.262 . S
O411 Zn406 2.049 . S
O411 C419 1.260 . S
O412 Zn407 1.996 . S
O412 C419 1.257 . S
C413 O408 1.254 . S
C413 O409 1.269 . S
C414 O415 1.249 . S
C414 O416 1.270 . S
O415 Zn407 1.943 . S
O415 C414 1.249 . S
O416 Zn406 2.067 . S
O416 C414 1.270 . S
C417 O410 1.262 . S
C417 O418 1.232 . S
O418 C417 1.232 . S
C419 O411 1.260 . S
C419 O412 1.257 . S
Zn420 O423 2.031 . S
Zn420 O425 2.049 . S
Zn420 O430 2.067 . S
Zn421 O422 1.962 . S
Zn421 O424 1.986 . S
Zn421 O426 1.996 . S
Zn421 O429 1.943 . S
O422 Zn421 1.962 . S
O422 C427 1.254 . S
O423 Zn420 2.031 . S
O423 C427 1.269 . S
O424 Zn421 1.986 . S
O424 C431 1.262 . S
O425 Zn420 2.049 . S
O425 C433 1.260 . S
O426 Zn421 1.996 . S
O426 C433 1.257 . S
C427 O422 1.254 . S
C427 O423 1.269 . S
C428 O429 1.249 . S
C428 O430 1.270 . S
O429 Zn421 1.943 . S
O429 C428 1.249 . S
O430 Zn420 2.067 . S
O430 C428 1.270 . S
C431 O424 1.262 . S
C431 O432 1.232 . S
O432 C431 1.232 . S
C433 O425 1.260 . S
C433 O426 1.257 . S
Zn434 O437 2.031 . S
Zn434 O439 2.049 . S
Zn434 O444 2.067 . S
Zn435 O436 1.962 . S
Zn435 O438 1.986 . S
Zn435 O440 1.996 . S
Zn435 O443 1.943 . S
O436 Zn435 1.962 . S
O436 C441 1.254 . S
O437 Zn434 2.031 . S
O437 C441 1.269 . S
O438 Zn435 1.986 . S
O438 C445 1.262 . S
O439 Zn434 2.049 . S
O439 C447 1.260 . S
O440 Zn435 1.996 . S
O440 C447 1.257 . S
C441 O436 1.254 . S
C441 O437 1.269 . S
C442 O443 1.249 . S
C442 O444 1.270 . S
O443 Zn435 1.943 . S
O443 C442 1.249 . S
O444 Zn434 2.067 . S
O444 C442 1.270 . S
C445 O438 1.262 . S
C445 O446 1.232 . S
O446 C445 1.232 . S
C447 O439 1.260 . S
C447 O440 1.257 . S
H448 C466 0.951 . S
H449 C468 0.951 . S
H450 C470 0.950 . S
H451 C471 0.950 . S
H452 C473 0.950 . S
H453 C476 0.950 1_655 S
H454 C477 0.950 . S
H455 C479 0.950 . S
H456 C480 0.950 . S
H457 C481 0.951 . S
H458 C483 0.951 . S
H459 C485 0.950 . S
H460 C486 0.950 . S
H461 C488 0.950 . S
H462 C491 0.950 1_455 S
H463 C492 0.950 . S
H464 C494 0.950 . S
H465 C495 0.950 . S
C466 H448 0.951 . S
C466 C467 1.366 . S
C466 C468 1.388 . S
C467 C466 1.366 . S
C467 C471 1.385 . S
C468 H449 0.951 . S
C468 C466 1.388 . S
C468 C469 1.366 . S
C469 C468 1.366 . S
C469 C470 1.414 . S
C469 C472 1.499 . S
C470 H450 0.950 . S
C470 C469 1.414 . S
C470 C471 1.374 . S
C471 H451 0.950 . S
C471 C467 1.385 . S
C471 C470 1.374 . S
C472 C469 1.499 . S
C472 C473 1.373 1_556 S
C472 C474 1.389 1_655 S
C473 H452 0.950 . S
C473 C472 1.373 1_554 S
C473 C489 1.377 . S
C474 C472 1.389 1_455 S
C474 C475 1.524 . S
C474 C488 1.377 . S
C475 C474 1.524 . S
C475 C476 1.397 . S
C475 C480 1.363 . S
C476 H453 0.950 1_455 S
C476 C475 1.397 . S
C476 C477 1.334 . S
C477 H454 0.950 . S
C477 C476 1.334 . S
C477 C478 1.287 . S
C478 C477 1.287 . S
C478 C479 1.524 . S
C478 H497 0.913 . S
C479 H455 0.950 . S
C479 C478 1.524 . S
C479 C480 1.415 . S
C480 H456 0.950 . S
C480 C475 1.363 . S
C480 C479 1.415 . S
C481 H457 0.951 . S
C481 C482 1.366 . S
C481 C483 1.388 . S
C482 C481 1.366 . S
C482 C486 1.385 . S
C483 H458 0.951 . S
C483 C481 1.388 . S
C483 C484 1.366 . S
C484 C483 1.366 . S
C484 C485 1.414 . S
C484 C487 1.499 . S
C485 H459 0.950 . S
C485 C484 1.414 . S
C485 C486 1.374 . S
C486 H460 0.950 . S
C486 C482 1.385 . S
C486 C485 1.374 . S
C487 C484 1.499 . S
C487 C488 1.373 1_554 S
C487 C489 1.389 1_455 S
C488 H461 0.950 . S
C488 C474 1.377 . S
C488 C487 1.373 1_556 S
C489 C473 1.377 . S
C489 C487 1.389 1_655 S
C489 C490 1.524 . S
C490 C489 1.524 . S
C490 C491 1.397 . S
C490 C495 1.363 . S
C491 H462 0.950 1_655 S
C491 C490 1.397 . S
C491 C492 1.334 . S
C492 H463 0.950 . S
C492 C491 1.334 . S
C492 C493 1.287 . S
C493 C492 1.287 . S
C493 C494 1.524 . S
C493 H496 0.999 . S
C494 H464 0.950 . S
C494 C493 1.524 . S
C494 C495 1.415 . S
C495 H465 0.950 . S
C495 C490 1.363 . S
C495 C494 1.415 . S
H496 C493 0.999 . S
H497 C478 0.913 . S
H498 C516 0.951 . S
H499 C518 0.951 . S
H500 C520 0.950 . S
H501 C521 0.950 . S
H502 C523 0.950 . S
H503 C526 0.950 . S
H504 C527 0.950 . S
H505 C529 0.950 . S
H506 C530 0.950 . S
H507 C531 0.951 . S
H508 C533 0.951 . S
H509 C535 0.950 . S
H510 C536 0.950 . S
H511 C538 0.950 . S
H512 C541 0.950 . S
H513 C542 0.950 . S
H514 C544 0.950 . S
H515 C545 0.950 . S
C516 H498 0.951 . S
C516 C517 1.366 . S
C516 C518 1.388 . S
C517 C516 1.366 . S
C517 C521 1.385 . S
C518 H499 0.951 . S
C518 C516 1.388 . S
C518 C519 1.366 . S
C519 C518 1.366 . S
C519 C520 1.414 . S
C519 C522 1.499 . S
C520 H500 0.950 . S
C520 C519 1.414 . S
C520 C521 1.374 . S
C521 H501 0.950 . S
C521 C517 1.385 . S
C521 C520 1.374 . S
C522 C519 1.499 . S
C522 C523 1.373 . S
C522 C524 1.389 . S
C523 H502 0.950 . S
C523 C522 1.373 . S
C523 C539 1.377 . S
C524 C522 1.389 . S
C524 C525 1.524 . S
C524 C538 1.377 . S
C525 C524 1.524 . S
C525 C526 1.397 . S
C525 C530 1.363 . S
C526 H503 0.950 . S
C526 C525 1.397 . S
C526 C527 1.334 . S
C527 H504 0.950 . S
C527 C526 1.334 . S
C527 C528 1.287 . S
C528 C527 1.287 . S
C528 C529 1.524 . S
C528 H547 0.913 . S
C529 H505 0.950 . S
C529 C528 1.524 . S
C529 C530 1.415 . S
C530 H506 0.950 . S
C530 C525 1.363 . S
C530 C529 1.415 . S
C531 H507 0.951 . S
C531 C532 1.366 . S
C531 C533 1.388 . S
C532 C531 1.366 . S
C532 C536 1.385 . S
C533 H508 0.951 . S
C533 C531 1.388 . S
C533 C534 1.366 . S
C534 C533 1.366 . S
C534 C535 1.414 . S
C534 C537 1.499 . S
C535 H509 0.950 . S
C535 C534 1.414 . S
C535 C536 1.374 . S
C536 H510 0.950 . S
C536 C532 1.385 . S
C536 C535 1.374 . S
C537 C534 1.499 . S
C537 C538 1.373 . S
C537 C539 1.389 . S
C538 H511 0.950 . S
C538 C524 1.377 . S
C538 C537 1.373 . S
C539 C523 1.377 . S
C539 C537 1.389 . S
C539 C540 1.524 . S
C540 C539 1.524 . S
C540 C541 1.397 . S
C540 C545 1.363 . S
C541 H512 0.950 . S
C541 C540 1.397 . S
C541 C542 1.334 . S
C542 H513 0.950 . S
C542 C541 1.334 . S
C542 C543 1.287 . S
C543 C542 1.287 . S
C543 C544 1.524 . S
C543 H546 0.999 . S
C544 H514 0.950 . S
C544 C543 1.524 . S
C544 C545 1.415 . S
C545 H515 0.950 . S
C545 C540 1.363 . S
C545 C544 1.415 . S
H546 C543 0.999 . S
H547 C528 0.913 . S
H548 C566 0.951 . S
H549 C568 0.951 . S
H550 C570 0.950 . S
H551 C571 0.950 . S
H552 C573 0.950 . S
H553 C576 0.950 . S
H554 C577 0.950 . S
H555 C579 0.950 . S
H556 C580 0.950 . S
H557 C581 0.951 . S
H558 C583 0.951 . S
H559 C585 0.950 . S
H560 C586 0.950 . S
H561 C588 0.950 . S
H562 C591 0.950 . S
H563 C592 0.950 . S
H564 C594 0.950 . S
H565 C595 0.950 . S
C566 H548 0.951 . S
C566 C567 1.366 . S
C566 C568 1.388 . S
C567 C566 1.366 . S
C567 C571 1.385 . S
C568 H549 0.951 . S
C568 C566 1.388 . S
C568 C569 1.366 . S
C569 C568 1.366 . S
C569 C570 1.414 . S
C569 C572 1.499 . S
C570 H550 0.950 . S
C570 C569 1.414 . S
C570 C571 1.374 . S
C571 H551 0.950 . S
C571 C567 1.385 . S
C571 C570 1.374 . S
C572 C569 1.499 . S
C572 C573 1.373 . S
C572 C574 1.389 . S
C573 H552 0.950 . S
C573 C572 1.373 . S
C573 C589 1.377 . S
C574 C572 1.389 . S
C574 C575 1.524 . S
C574 C588 1.377 . S
C575 C574 1.524 . S
C575 C576 1.397 . S
C575 C580 1.363 . S
C576 H553 0.950 . S
C576 C575 1.397 . S
C576 C577 1.334 . S
C577 H554 0.950 . S
C577 C576 1.334 . S
C577 C578 1.287 . S
C578 C577 1.287 . S
C578 C579 1.524 . S
C578 H597 0.913 . S
C579 H555 0.950 . S
C579 C578 1.524 . S
C579 C580 1.415 . S
C580 H556 0.950 . S
C580 C575 1.363 . S
C580 C579 1.415 . S
C581 H557 0.951 . S
C581 C582 1.366 . S
C581 C583 1.388 . S
C582 C581 1.366 . S
C582 C586 1.385 . S
C583 H558 0.951 . S
C583 C581 1.388 . S
C583 C584 1.366 . S
C584 C583 1.366 . S
C584 C585 1.414 . S
C584 C587 1.499 . S
C585 H559 0.950 . S
C585 C584 1.414 . S
C585 C586 1.374 . S
C586 H560 0.950 . S
C586 C582 1.385 . S
C586 C585 1.374 . S
C587 C584 1.499 . S
C587 C588 1.373 . S
C587 C589 1.389 . S
C588 H561 0.950 . S
C588 C574 1.377 . S
C588 C587 1.373 . S
C589 C573 1.377 . S
C589 C587 1.389 . S
C589 C590 1.524 . S
C590 C589 1.524 . S
C590 C591 1.397 . S
C590 C595 1.363 . S
C591 H562 0.950 . S
C591 C590 1.397 . S
C591 C592 1.334 . S
C592 H563 0.950 . S
C592 C591 1.334 . S
C592 C593 1.287 . S
C593 C592 1.287 . S
C593 C594 1.524 . S
C593 H596 0.999 . S
C594 H564 0.950 . S
C594 C593 1.524 . S
C594 C595 1.415 . S
C595 H565 0.950 . S
C595 C590 1.363 . S
C595 C594 1.415 . S
H596 C593 0.999 . S
H597 C578 0.913 . S
H598 C616 0.951 . S
H599 C618 0.951 . S
H600 C620 0.950 . S
H601 C621 0.950 . S
H602 C623 0.950 . S
H603 C626 0.950 . S
H604 C627 0.950 . S
H605 C629 0.950 . S
H606 C630 0.950 . S
H607 C631 0.951 . S
H608 C633 0.951 . S
H609 C635 0.950 . S
H610 C636 0.950 . S
H611 C638 0.950 . S
H612 C641 0.950 . S
H613 C642 0.950 . S
H614 C644 0.950 . S
H615 C645 0.950 . S
C616 H598 0.951 . S
C616 C617 1.366 . S
C616 C618 1.388 . S
C617 C616 1.366 . S
C617 C621 1.385 . S
C618 H599 0.951 . S
C618 C616 1.388 . S
C618 C619 1.366 . S
C619 C618 1.366 . S
C619 C620 1.414 . S
C619 C622 1.499 . S
C620 H600 0.950 . S
C620 C619 1.414 . S
C620 C621 1.374 . S
C621 H601 0.950 . S
C621 C617 1.385 . S
C621 C620 1.374 . S
C622 C619 1.499 . S
C622 C623 1.373 . S
C622 C624 1.389 . S
C623 H602 0.950 . S
C623 C622 1.373 . S
C623 C639 1.377 . S
C624 C622 1.389 . S
C624 C625 1.524 . S
C624 C638 1.377 . S
C625 C624 1.524 . S
C625 C626 1.397 . S
C625 C630 1.363 . S
C626 H603 0.950 . S
C626 C625 1.397 . S
C626 C627 1.334 . S
C627 H604 0.950 . S
C627 C626 1.334 . S
C627 C628 1.287 . S
C628 C627 1.287 . S
C628 C629 1.524 . S
C628 H647 0.913 . S
C629 H605 0.950 . S
C629 C628 1.524 . S
C629 C630 1.415 . S
C630 H606 0.950 . S
C630 C625 1.363 . S
C630 C629 1.415 . S
C631 H607 0.951 . S
C631 C632 1.366 . S
C631 C633 1.388 . S
C632 C631 1.366 . S
C632 C636 1.385 . S
C633 H608 0.951 . S
C633 C631 1.388 . S
C633 C634 1.366 . S
C634 C633 1.366 . S
C634 C635 1.414 . S
C634 C637 1.499 . S
C635 H609 0.950 . S
C635 C634 1.414 . S
C635 C636 1.374 . S
C636 H610 0.950 . S
C636 C632 1.385 . S
C636 C635 1.374 . S
C637 C634 1.499 . S
C637 C638 1.373 . S
C637 C639 1.389 . S
C638 H611 0.950 . S
C638 C624 1.377 . S
C638 C637 1.373 . S
C639 C623 1.377 . S
C639 C637 1.389 . S
C639 C640 1.524 . S
C640 C639 1.524 . S
C640 C641 1.397 . S
C640 C645 1.363 . S
C641 H612 0.950 . S
C641 C640 1.397 . S
C641 C642 1.334 . S
C642 H613 0.950 . S
C642 C641 1.334 . S
C642 C643 1.287 . S
C643 C642 1.287 . S
C643 C644 1.524 . S
C643 H646 0.999 . S
C644 H614 0.950 . S
C644 C643 1.524 . S
C644 C645 1.415 . S
C645 H615 0.950 . S
C645 C640 1.363 . S
C645 C644 1.415 . S
H646 C643 0.999 . S
H647 C628 0.913 . S
H648 C666 0.951 . S
H649 C668 0.951 . S
H650 C670 0.950 . S
H651 C671 0.950 . S
H652 C673 0.950 . S
H653 C676 0.950 . S
H654 C677 0.950 . S
H655 C679 0.950 . S
H656 C680 0.950 . S
H657 C681 0.951 . S
H658 C683 0.951 . S
H659 C685 0.950 . S
H660 C686 0.950 . S
H661 C688 0.950 . S
H662 C691 0.950 . S
H663 C692 0.950 . S
H664 C694 0.950 . S
H665 C695 0.950 . S
C666 H648 0.951 . S
C666 C667 1.366 . S
C666 C668 1.388 . S
C667 C666 1.366 . S
C667 C671 1.385 . S
C668 H649 0.951 . S
C668 C666 1.388 . S
C668 C669 1.366 . S
C669 C668 1.366 . S
C669 C670 1.414 . S
C669 C672 1.499 . S
C670 H650 0.950 . S
C670 C669 1.414 . S
C670 C671 1.374 . S
C671 H651 0.950 . S
C671 C667 1.385 . S
C671 C670 1.374 . S
C672 C669 1.499 . S
C672 C673 1.373 . S
C672 C674 1.389 1_655 S
C673 H652 0.950 . S
C673 C672 1.373 . S
C673 C689 1.377 . S
C674 C672 1.389 1_455 S
C674 C675 1.524 . S
C674 C688 1.377 . S
C675 C674 1.524 . S
C675 C676 1.397 . S
C675 C680 1.363 . S
C676 H653 0.950 . S
C676 C675 1.397 . S
C676 C677 1.334 . S
C677 H654 0.950 . S
C677 C676 1.334 . S
C677 C678 1.287 . S
C678 C677 1.287 . S
C678 C679 1.524 . S
C678 H697 0.913 . S
C679 H655 0.950 . S
C679 C678 1.524 . S
C679 C680 1.415 . S
C680 H656 0.950 . S
C680 C675 1.363 . S
C680 C679 1.415 . S
C681 H657 0.951 . S
C681 C682 1.366 . S
C681 C683 1.388 . S
C682 C681 1.366 . S
C682 C686 1.385 . S
C683 H658 0.951 . S
C683 C681 1.388 . S
C683 C684 1.366 . S
C684 C683 1.366 . S
C684 C685 1.414 . S
C684 C687 1.499 . S
C685 H659 0.950 . S
C685 C684 1.414 . S
C685 C686 1.374 . S
C686 H660 0.950 . S
C686 C682 1.385 . S
C686 C685 1.374 . S
C687 C684 1.499 . S
C687 C688 1.373 . S
C687 C689 1.389 1_455 S
C688 H661 0.950 . S
C688 C674 1.377 . S
C688 C687 1.373 . S
C689 C673 1.377 . S
C689 C687 1.389 1_655 S
C689 C690 1.524 . S
C690 C689 1.524 . S
C690 C691 1.397 . S
C690 C695 1.363 . S
C691 H662 0.950 . S
C691 C690 1.397 . S
C691 C692 1.334 . S
C692 H663 0.950 . S
C692 C691 1.334 . S
C692 C693 1.287 . S
C693 C692 1.287 . S
C693 C694 1.524 . S
C693 H696 0.999 . S
C694 H664 0.950 . S
C694 C693 1.524 . S
C694 C695 1.415 . S
C695 H665 0.950 . S
C695 C690 1.363 . S
C695 C694 1.415 . S
H696 C693 0.999 . S
H697 C678 0.913 . S
H698 C716 0.951 . S
H699 C718 0.951 . S
H700 C720 0.950 . S
H701 C721 0.950 . S
H702 C723 0.950 . S
H703 C726 0.950 . S
H704 C727 0.950 . S
H705 C729 0.950 . S
H706 C730 0.950 . S
H707 C731 0.951 . S
H708 C733 0.951 . S
H709 C735 0.950 . S
H710 C736 0.950 . S
H711 C738 0.950 . S
H712 C741 0.950 . S
H713 C742 0.950 . S
H714 C744 0.950 . S
H715 C745 0.950 . S
C716 H698 0.951 . S
C716 C717 1.366 . S
C716 C718 1.388 . S
C717 C716 1.366 . S
C717 C721 1.385 . S
C718 H699 0.951 . S
C718 C716 1.388 . S
C718 C719 1.366 . S
C719 C718 1.366 . S
C719 C720 1.414 . S
C719 C722 1.499 . S
C720 H700 0.950 . S
C720 C719 1.414 . S
C720 C721 1.374 . S
C721 H701 0.950 . S
C721 C717 1.385 . S
C721 C720 1.374 . S
C722 C719 1.499 . S
C722 C723 1.373 . S
C722 C724 1.389 . S
C723 H702 0.950 . S
C723 C722 1.373 . S
C723 C739 1.377 . S
C724 C722 1.389 . S
C724 C725 1.524 . S
C724 C738 1.377 . S
C725 C724 1.524 . S
C725 C726 1.397 . S
C725 C730 1.363 . S
C726 H703 0.950 . S
C726 C725 1.397 . S
C726 C727 1.334 . S
C727 H704 0.950 . S
C727 C726 1.334 . S
C727 C728 1.287 . S
C728 C727 1.287 . S
C728 C729 1.524 . S
C728 H747 0.913 . S
C729 H705 0.950 . S
C729 C728 1.524 . S
C729 C730 1.415 . S
C730 H706 0.950 . S
C730 C725 1.363 . S
C730 C729 1.415 . S
C731 H707 0.951 . S
C731 C732 1.366 . S
C731 C733 1.388 . S
C732 C731 1.366 . S
C732 C736 1.385 . S
C733 H708 0.951 . S
C733 C731 1.388 . S
C733 C734 1.366 . S
C734 C733 1.366 . S
C734 C735 1.414 . S
C734 C737 1.499 . S
C735 H709 0.950 . S
C735 C734 1.414 . S
C735 C736 1.374 . S
C736 H710 0.950 . S
C736 C732 1.385 . S
C736 C735 1.374 . S
C737 C734 1.499 . S
C737 C738 1.373 . S
C737 C739 1.389 . S
C738 H711 0.950 . S
C738 C724 1.377 . S
C738 C737 1.373 . S
C739 C723 1.377 . S
C739 C737 1.389 . S
C739 C740 1.524 . S
C740 C739 1.524 . S
C740 C741 1.397 . S
C740 C745 1.363 . S
C741 H712 0.950 . S
C741 C740 1.397 . S
C741 C742 1.334 . S
C742 H713 0.950 . S
C742 C741 1.334 . S
C742 C743 1.287 . S
C743 C742 1.287 . S
C743 C744 1.524 . S
C743 H746 0.999 . S
C744 H714 0.950 . S
C744 C743 1.524 . S
C744 C745 1.415 . S
C745 H715 0.950 . S
C745 C740 1.363 . S
C745 C744 1.415 . S
H746 C743 0.999 . S
H747 C728 0.913 . S
H748 C766 0.951 . S
H749 C768 0.951 1_554 S
H750 C770 0.950 . S
H751 C771 0.950 . S
H752 C773 0.950 . S
H753 C776 0.950 . S
H754 C777 0.950 . S
H755 C779 0.950 . S
H756 C780 0.950 . S
H757 C781 0.951 . S
H758 C783 0.951 1_556 S
H759 C785 0.950 . S
H760 C786 0.950 . S
H761 C788 0.950 . S
H762 C791 0.950 . S
H763 C792 0.950 . S
H764 C794 0.950 . S
H765 C795 0.950 . S
C766 H748 0.951 . S
C766 C767 1.366 . S
C766 C768 1.388 . S
C767 C766 1.366 . S
C767 C771 1.385 . S
C768 H749 0.951 1_556 S
C768 C766 1.388 . S
C768 C769 1.366 . S
C769 C768 1.366 . S
C769 C770 1.414 . S
C769 C772 1.499 . S
C770 H750 0.950 . S
C770 C769 1.414 . S
C770 C771 1.374 . S
C771 H751 0.950 . S
C771 C767 1.385 . S
C771 C770 1.374 . S
C772 C769 1.499 . S
C772 C773 1.373 . S
C772 C774 1.389 1_556 S
C773 H752 0.950 . S
C773 C772 1.373 . S
C773 C789 1.377 . S
C774 C772 1.389 1_554 S
C774 C775 1.524 . S
C774 C788 1.377 . S
C775 C774 1.524 . S
C775 C776 1.397 . S
C775 C780 1.363 . S
C776 H753 0.950 . S
C776 C775 1.397 . S
C776 C777 1.334 . S
C777 H754 0.950 . S
C777 C776 1.334 . S
C777 C778 1.287 . S
C778 C777 1.287 . S
C778 C779 1.524 . S
C778 H797 0.913 . S
C779 H755 0.950 . S
C779 C778 1.524 . S
C779 C780 1.415 . S
C780 H756 0.950 . S
C780 C775 1.363 . S
C780 C779 1.415 . S
C781 H757 0.951 . S
C781 C782 1.366 . S
C781 C783 1.388 . S
C782 C781 1.366 . S
C782 C786 1.385 . S
C783 H758 0.951 1_554 S
C783 C781 1.388 . S
C783 C784 1.366 . S
C784 C783 1.366 . S
C784 C785 1.414 . S
C784 C787 1.499 . S
C785 H759 0.950 . S
C785 C784 1.414 . S
C785 C786 1.374 . S
C786 H760 0.950 . S
C786 C782 1.385 . S
C786 C785 1.374 . S
C787 C784 1.499 . S
C787 C788 1.373 . S
C787 C789 1.389 1_554 S
C788 H761 0.950 . S
C788 C774 1.377 . S
C788 C787 1.373 . S
C789 C773 1.377 . S
C789 C787 1.389 1_556 S
C789 C790 1.524 . S
C790 C789 1.524 . S
C790 C791 1.397 . S
C790 C795 1.363 . S
C791 H762 0.950 . S
C791 C790 1.397 . S
C791 C792 1.334 . S
C792 H763 0.950 . S
C792 C791 1.334 . S
C792 C793 1.287 . S
C793 C792 1.287 . S
C793 C794 1.524 . S
C793 H796 0.999 . S
C794 H764 0.950 . S
C794 C793 1.524 . S
C794 C795 1.415 . S
C795 H765 0.950 . S
C795 C790 1.363 . S
C795 C794 1.415 . S
H796 C793 0.999 . S
H797 C778 0.913 . S
H798 C816 0.951 . S
H799 C818 0.951 . S
H800 C820 0.950 . S
H801 C821 0.950 . S
H802 C823 0.950 . S
H803 C826 0.950 . S
H804 C827 0.950 . S
H805 C829 0.950 . S
H806 C830 0.950 . S
H807 C831 0.951 . S
H808 C833 0.951 . S
H809 C835 0.950 . S
H810 C836 0.950 . S
H811 C838 0.950 . S
H812 C841 0.950 . S
H813 C842 0.950 . S
H814 C844 0.950 . S
H815 C845 0.950 . S
C816 H798 0.951 . S
C816 C817 1.366 . S
C816 C818 1.388 . S
C817 C816 1.366 . S
C817 C821 1.385 . S
C818 H799 0.951 . S
C818 C816 1.388 . S
C818 C819 1.366 . S
C819 C818 1.366 . S
C819 C820 1.414 . S
C819 C822 1.499 . S
C820 H800 0.950 . S
C820 C819 1.414 . S
C820 C821 1.374 . S
C821 H801 0.950 . S
C821 C817 1.385 . S
C821 C820 1.374 . S
C822 C819 1.499 . S
C822 C823 1.373 . S
C822 C824 1.389 . S
C823 H802 0.950 . S
C823 C822 1.373 . S
C823 C839 1.377 . S
C824 C822 1.389 . S
C824 C825 1.524 . S
C824 C838 1.377 . S
C825 C824 1.524 . S
C825 C826 1.397 . S
C825 C830 1.363 . S
C826 H803 0.950 . S
C826 C825 1.397 . S
C826 C827 1.334 . S
C827 H804 0.950 . S
C827 C826 1.334 . S
C827 C828 1.287 . S
C828 C827 1.287 . S
C828 C829 1.524 . S
C828 H847 0.913 . S
C829 H805 0.950 . S
C829 C828 1.524 . S
C829 C830 1.415 . S
C830 H806 0.950 . S
C830 C825 1.363 . S
C830 C829 1.415 . S
C831 H807 0.951 . S
C831 C832 1.366 . S
C831 C833 1.388 . S
C832 C831 1.366 . S
C832 C836 1.385 . S
C833 H808 0.951 . S
C833 C831 1.388 . S
C833 C834 1.366 . S
C834 C833 1.366 . S
C834 C835 1.414 . S
C834 C837 1.499 . S
C835 H809 0.950 . S
C835 C834 1.414 . S
C835 C836 1.374 . S
C836 H810 0.950 . S
C836 C832 1.385 . S
C836 C835 1.374 . S
C837 C834 1.499 . S
C837 C838 1.373 . S
C837 C839 1.389 . S
C838 H811 0.950 . S
C838 C824 1.377 . S
C838 C837 1.373 . S
C839 C823 1.377 . S
C839 C837 1.389 . S
C839 C840 1.524 . S
C840 C839 1.524 . S
C840 C841 1.397 . S
C840 C845 1.363 . S
C841 H812 0.950 . S
C841 C840 1.397 . S
C841 C842 1.334 . S
C842 H813 0.950 . S
C842 C841 1.334 . S
C842 C843 1.287 . S
C843 C842 1.287 . S
C843 C844 1.524 . S
C843 H846 0.999 . S
C844 H814 0.950 . S
C844 C843 1.524 . S
C844 C845 1.415 . S
C845 H815 0.950 . S
C845 C840 1.363 . S
C845 C844 1.415 . S
H846 C843 0.999 . S
H847 C828 0.913 . S
H848 C866 0.951 . S
H849 C868 0.951 . S
H850 C870 0.950 . S
H851 C871 0.950 . S
H852 C873 0.950 . S
H853 C876 0.950 . S
H854 C877 0.950 . S
H855 C879 0.950 . S
H856 C880 0.950 . S
H857 C881 0.951 . S
H858 C883 0.951 . S
H859 C885 0.950 . S
H860 C886 0.950 . S
H861 C888 0.950 . S
H862 C891 0.950 . S
H863 C892 0.950 . S
H864 C894 0.950 . S
H865 C895 0.950 . S
C866 H848 0.951 . S
C866 C867 1.366 . S
C866 C868 1.388 . S
C867 C866 1.366 . S
C867 C871 1.385 . S
C868 H849 0.951 . S
C868 C866 1.388 . S
C868 C869 1.366 . S
C869 C868 1.366 . S
C869 C870 1.414 . S
C869 C872 1.499 . S
C870 H850 0.950 . S
C870 C869 1.414 . S
C870 C871 1.374 . S
C871 H851 0.950 . S
C871 C867 1.385 . S
C871 C870 1.374 . S
C872 C869 1.499 . S
C872 C873 1.373 . S
C872 C874 1.389 . S
C873 H852 0.950 . S
C873 C872 1.373 . S
C873 C889 1.377 . S
C874 C872 1.389 . S
C874 C875 1.524 . S
C874 C888 1.377 . S
C875 C874 1.524 . S
C875 C876 1.397 . S
C875 C880 1.363 . S
C876 H853 0.950 . S
C876 C875 1.397 . S
C876 C877 1.334 . S
C877 H854 0.950 . S
C877 C876 1.334 . S
C877 C878 1.287 . S
C878 C877 1.287 . S
C878 C879 1.524 . S
C878 H897 0.913 . S
C879 H855 0.950 . S
C879 C878 1.524 . S
C879 C880 1.415 . S
C880 H856 0.950 . S
C880 C875 1.363 . S
C880 C879 1.415 . S
C881 H857 0.951 . S
C881 C882 1.366 . S
C881 C883 1.388 . S
C882 C881 1.366 . S
C882 C886 1.385 . S
C883 H858 0.951 . S
C883 C881 1.388 . S
C883 C884 1.366 . S
C884 C883 1.366 . S
C884 C885 1.414 . S
C884 C887 1.499 . S
C885 H859 0.950 . S
C885 C884 1.414 . S
C885 C886 1.374 . S
C886 H860 0.950 . S
C886 C882 1.385 . S
C886 C885 1.374 . S
C887 C884 1.499 . S
C887 C888 1.373 . S
C887 C889 1.389 . S
C888 H861 0.950 . S
C888 C874 1.377 . S
C888 C887 1.373 . S
C889 C873 1.377 . S
C889 C887 1.389 . S
C889 C890 1.524 . S
C890 C889 1.524 . S
C890 C891 1.397 . S
C890 C895 1.363 . S
C891 H862 0.950 . S
C891 C890 1.397 . S
C891 C892 1.334 . S
C892 H863 0.950 . S
C892 C891 1.334 . S
C892 C893 1.287 . S
C893 C892 1.287 . S
C893 C894 1.524 . S
C893 H896 0.999 . S
C894 H864 0.950 . S
C894 C893 1.524 . S
C894 C895 1.415 . S
C895 H865 0.950 . S
C895 C890 1.363 . S
C895 C894 1.415 . S
H896 C893 0.999 . S
H897 C878 0.913 . S
H898 C916 0.951 . S
H899 C918 0.951 . S
H900 C920 0.950 . S
H901 C921 0.950 . S
H902 C923 0.950 . S
H903 C926 0.950 . S
H904 C927 0.950 . S
H905 C929 0.950 . S
H906 C930 0.950 . S
H907 C931 0.951 . S
H908 C933 0.951 . S
H909 C935 0.950 . S
H910 C936 0.950 . S
H911 C938 0.950 . S
H912 C941 0.950 . S
H913 C942 0.950 . S
H914 C944 0.950 . S
H915 C945 0.950 . S
C916 H898 0.951 . S
C916 C917 1.366 . S
C916 C918 1.388 . S
C917 C916 1.366 . S
C917 C921 1.385 . S
C918 H899 0.951 . S
C918 C916 1.388 . S
C918 C919 1.366 . S
C919 C918 1.366 . S
C919 C920 1.414 . S
C919 C922 1.499 . S
C920 H900 0.950 . S
C920 C919 1.414 . S
C920 C921 1.374 . S
C921 H901 0.950 . S
C921 C917 1.385 . S
C921 C920 1.374 . S
C922 C919 1.499 . S
C922 C923 1.373 . S
C922 C924 1.389 . S
C923 H902 0.950 . S
C923 C922 1.373 . S
C923 C939 1.377 . S
C924 C922 1.389 . S
C924 C925 1.524 . S
C924 C938 1.377 . S
C925 C924 1.524 . S
C925 C926 1.397 . S
C925 C930 1.363 . S
C926 H903 0.950 . S
C926 C925 1.397 . S
C926 C927 1.334 . S
C927 H904 0.950 . S
C927 C926 1.334 . S
C927 C928 1.287 . S
C928 C927 1.287 . S
C928 C929 1.524 . S
C928 H947 0.913 . S
C929 H905 0.950 . S
C929 C928 1.524 . S
C929 C930 1.415 . S
C930 H906 0.950 . S
C930 C925 1.363 . S
C930 C929 1.415 . S
C931 H907 0.951 . S
C931 C932 1.366 . S
C931 C933 1.388 . S
C932 C931 1.366 . S
C932 C936 1.385 . S
C933 H908 0.951 . S
C933 C931 1.388 . S
C933 C934 1.366 . S
C934 C933 1.366 . S
C934 C935 1.414 . S
C934 C937 1.499 . S
C935 H909 0.950 . S
C935 C934 1.414 . S
C935 C936 1.374 . S
C936 H910 0.950 . S
C936 C932 1.385 . S
C936 C935 1.374 . S
C937 C934 1.499 . S
C937 C938 1.373 . S
C937 C939 1.389 . S
C938 H911 0.950 . S
C938 C924 1.377 . S
C938 C937 1.373 . S
C939 C923 1.377 . S
C939 C937 1.389 . S
C939 C940 1.524 . S
C940 C939 1.524 . S
C940 C941 1.397 . S
C940 C945 1.363 . S
C941 H912 0.950 . S
C941 C940 1.397 . S
C941 C942 1.334 . S
C942 H913 0.950 . S
C942 C941 1.334 . S
C942 C943 1.287 . S
C943 C942 1.287 . S
C943 C944 1.524 . S
C943 H946 0.999 . S
C944 H914 0.950 . S
C944 C943 1.524 . S
C944 C945 1.415 . S
C945 H915 0.950 . S
C945 C940 1.363 . S
C945 C944 1.415 . S
H946 C943 0.999 . S
H947 C928 0.913 . S
H948 C966 0.951 . S
H949 C968 0.951 . S
H950 C970 0.950 . S
H951 C971 0.950 . S
H952 C973 0.950 . S
H953 C976 0.950 . S
H954 C977 0.950 . S
H955 C979 0.950 . S
H956 C980 0.950 . S
H957 C981 0.951 . S
H958 C983 0.951 . S
H959 C985 0.950 . S
H960 C986 0.950 . S
H961 C988 0.950 . S
H962 C991 0.950 . S
H963 C992 0.950 . S
H964 C994 0.950 . S
H965 C995 0.950 . S
C966 H948 0.951 . S
C966 C967 1.366 . S
C966 C968 1.388 . S
C967 C966 1.366 . S
C967 C971 1.385 . S
C968 H949 0.951 . S
C968 C966 1.388 . S
C968 C969 1.366 . S
C969 C968 1.366 . S
C969 C970 1.414 . S
C969 C972 1.499 . S
C970 H950 0.950 . S
C970 C969 1.414 . S
C970 C971 1.374 . S
C971 H951 0.950 . S
C971 C967 1.385 . S
C971 C970 1.374 . S
C972 C969 1.499 . S
C972 C973 1.373 . S
C972 C974 1.389 . S
C973 H952 0.950 . S
C973 C972 1.373 . S
C973 C989 1.377 . S
C974 C972 1.389 . S
C974 C975 1.524 . S
C974 C988 1.377 . S
C975 C974 1.524 . S
C975 C976 1.397 . S
C975 C980 1.363 . S
C976 H953 0.950 . S
C976 C975 1.397 . S
C976 C977 1.334 . S
C977 H954 0.950 . S
C977 C976 1.334 . S
C977 C978 1.287 . S
C978 C977 1.287 . S
C978 C979 1.524 . S
C978 H997 0.913 . S
C979 H955 0.950 . S
C979 C978 1.524 . S
C979 C980 1.415 . S
C980 H956 0.950 . S
C980 C975 1.363 . S
C980 C979 1.415 . S
C981 H957 0.951 . S
C981 C982 1.366 . S
C981 C983 1.388 . S
C982 C981 1.366 . S
C982 C986 1.385 . S
C983 H958 0.951 . S
C983 C981 1.388 . S
C983 C984 1.366 . S
C984 C983 1.366 . S
C984 C985 1.414 . S
C984 C987 1.499 . S
C985 H959 0.950 . S
C985 C984 1.414 . S
C985 C986 1.374 . S
C986 H960 0.950 . S
C986 C982 1.385 . S
C986 C985 1.374 . S
C987 C984 1.499 . S
C987 C988 1.373 . S
C987 C989 1.389 . S
C988 H961 0.950 . S
C988 C974 1.377 . S
C988 C987 1.373 . S
C989 C973 1.377 . S
C989 C987 1.389 . S
C989 C990 1.524 . S
C990 C989 1.524 . S
C990 C991 1.397 . S
C990 C995 1.363 . S
C991 H962 0.950 . S
C991 C990 1.397 . S
C991 C992 1.334 . S
C992 H963 0.950 . S
C992 C991 1.334 . S
C992 C993 1.287 . S
C993 C992 1.287 . S
C993 C994 1.524 . S
C993 H996 0.999 . S
C994 H964 0.950 . S
C994 C993 1.524 . S
C994 C995 1.415 . S
C995 H965 0.950 . S
C995 C990 1.363 . S
C995 C994 1.415 . S
H996 C993 0.999 . S
H997 C978 0.913 . S
H998 C1016 0.951 . S
H999 C1018 0.951 . S
H1000 C1020 0.950 . S
H1001 C1021 0.950 . S
H1002 C1023 0.950 . S
H1003 C1026 0.950 . S
H1004 C1027 0.950 . S
H1005 C1029 0.950 . S
H1006 C1030 0.950 . S
H1007 C1031 0.951 . S
H1008 C1033 0.951 . S
H1009 C1035 0.950 . S
H1010 C1036 0.950 . S
H1011 C1038 0.950 . S
H1012 C1041 0.950 . S
H1013 C1042 0.950 . S
H1014 C1044 0.950 . S
H1015 C1045 0.950 . S
C1016 H998 0.951 . S
C1016 C1017 1.366 . S
C1016 C1018 1.388 . S
C1017 C1016 1.366 . S
C1017 C1021 1.385 . S
C1018 H999 0.951 . S
C1018 C1016 1.388 . S
C1018 C1019 1.366 . S
C1019 C1018 1.366 . S
C1019 C1020 1.414 . S
C1019 C1022 1.499 . S
C1020 H1000 0.950 . S
C1020 C1019 1.414 . S
C1020 C1021 1.374 . S
C1021 H1001 0.950 . S
C1021 C1017 1.385 . S
C1021 C1020 1.374 . S
C1022 C1019 1.499 . S
C1022 C1023 1.373 . S
C1022 C1024 1.389 . S
C1023 H1002 0.950 . S
C1023 C1022 1.373 . S
C1023 C1039 1.377 . S
C1024 C1022 1.389 . S
C1024 C1025 1.524 . S
C1024 C1038 1.377 . S
C1025 C1024 1.524 . S
C1025 C1026 1.397 . S
C1025 C1030 1.363 . S
C1026 H1003 0.950 . S
C1026 C1025 1.397 . S
C1026 C1027 1.334 . S
C1027 H1004 0.950 . S
C1027 C1026 1.334 . S
C1027 C1028 1.287 . S
C1028 C1027 1.287 . S
C1028 C1029 1.524 . S
C1028 H1047 0.913 . S
C1029 H1005 0.950 . S
C1029 C1028 1.524 . S
C1029 C1030 1.415 . S
C1030 H1006 0.950 . S
C1030 C1025 1.363 . S
C1030 C1029 1.415 . S
C1031 H1007 0.951 . S
C1031 C1032 1.366 . S
C1031 C1033 1.388 . S
C1032 C1031 1.366 . S
C1032 C1036 1.385 . S
C1033 H1008 0.951 . S
C1033 C1031 1.388 . S
C1033 C1034 1.366 . S
C1034 C1033 1.366 . S
C1034 C1035 1.414 . S
C1034 C1037 1.499 . S
C1035 H1009 0.950 . S
C1035 C1034 1.414 . S
C1035 C1036 1.374 . S
C1036 H1010 0.950 . S
C1036 C1032 1.385 . S
C1036 C1035 1.374 . S
C1037 C1034 1.499 . S
C1037 C1038 1.373 . S
C1037 C1039 1.389 . S
C1038 H1011 0.950 . S
C1038 C1024 1.377 . S
C1038 C1037 1.373 . S
C1039 C1023 1.377 . S
C1039 C1037 1.389 . S
C1039 C1040 1.524 . S
C1040 C1039 1.524 . S
C1040 C1041 1.397 . S
C1040 C1045 1.363 . S
C1041 H1012 0.950 . S
C1041 C1040 1.397 . S
C1041 C1042 1.334 . S
C1042 H1013 0.950 . S
C1042 C1041 1.334 . S
C1042 C1043 1.287 . S
C1043 C1042 1.287 . S
C1043 C1044 1.524 . S
C1043 H1046 0.999 . S
C1044 H1014 0.950 . S
C1044 C1043 1.524 . S
C1044 C1045 1.415 . S
C1045 H1015 0.950 . S
C1045 C1040 1.363 . S
C1045 C1044 1.415 . S
H1046 C1043 0.999 . S
H1047 C1028 0.913 . S
H1048 C1066 0.951 . S
H1049 C1068 0.951 . S
H1050 C1070 0.950 . S
H1051 C1071 0.950 . S
H1052 C1073 0.950 . S
H1053 C1076 0.950 . S
H1054 C1077 0.950 . S
H1055 C1079 0.950 . S
H1056 C1080 0.950 . S
H1057 C1081 0.951 . S
H1058 C1083 0.951 . S
H1059 C1085 0.950 . S
H1060 C1086 0.950 . S
H1061 C1088 0.950 . S
H1062 C1091 0.950 . S
H1063 C1092 0.950 . S
H1064 C1094 0.950 . S
H1065 C1095 0.950 . S
C1066 H1048 0.951 . S
C1066 C1067 1.366 . S
C1066 C1068 1.388 . S
C1067 C1066 1.366 . S
C1067 C1071 1.385 . S
C1068 H1049 0.951 . S
C1068 C1066 1.388 . S
C1068 C1069 1.366 . S
C1069 C1068 1.366 . S
C1069 C1070 1.414 . S
C1069 C1072 1.499 . S
C1070 H1050 0.950 . S
C1070 C1069 1.414 . S
C1070 C1071 1.374 . S
C1071 H1051 0.950 . S
C1071 C1067 1.385 . S
C1071 C1070 1.374 . S
C1072 C1069 1.499 . S
C1072 C1073 1.373 1_565 S
C1072 C1074 1.389 . S
C1073 H1052 0.950 . S
C1073 C1072 1.373 1_545 S
C1073 C1089 1.377 . S
C1074 C1072 1.389 . S
C1074 C1075 1.524 . S
C1074 C1088 1.377 . S
C1075 C1074 1.524 . S
C1075 C1076 1.397 . S
C1075 C1080 1.363 . S
C1076 H1053 0.950 . S
C1076 C1075 1.397 . S
C1076 C1077 1.334 . S
C1077 H1054 0.950 . S
C1077 C1076 1.334 . S
C1077 C1078 1.287 . S
C1078 C1077 1.287 . S
C1078 C1079 1.524 . S
C1078 H1097 0.913 . S
C1079 H1055 0.950 . S
C1079 C1078 1.524 . S
C1079 C1080 1.415 . S
C1080 H1056 0.950 . S
C1080 C1075 1.363 . S
C1080 C1079 1.415 . S
C1081 H1057 0.951 . S
C1081 C1082 1.366 . S
C1081 C1083 1.388 . S
C1082 C1081 1.366 . S
C1082 C1086 1.385 . S
C1083 H1058 0.951 . S
C1083 C1081 1.388 . S
C1083 C1084 1.366 . S
C1084 C1083 1.366 . S
C1084 C1085 1.414 . S
C1084 C1087 1.499 . S
C1085 H1059 0.950 . S
C1085 C1084 1.414 . S
C1085 C1086 1.374 . S
C1086 H1060 0.950 . S
C1086 C1082 1.385 . S
C1086 C1085 1.374 . S
C1087 C1084 1.499 . S
C1087 C1088 1.373 1_545 S
C1087 C1089 1.389 . S
C1088 H1061 0.950 . S
C1088 C1074 1.377 . S
C1088 C1087 1.373 1_565 S
C1089 C1073 1.377 . S
C1089 C1087 1.389 . S
C1089 C1090 1.524 . S
C1090 C1089 1.524 . S
C1090 C1091 1.397 . S
C1090 C1095 1.363 . S
C1091 H1062 0.950 . S
C1091 C1090 1.397 . S
C1091 C1092 1.334 . S
C1092 H1063 0.950 . S
C1092 C1091 1.334 . S
C1092 C1093 1.287 . S
C1093 C1092 1.287 . S
C1093 C1094 1.524 . S
C1093 H1096 0.999 . S
C1094 H1064 0.950 . S
C1094 C1093 1.524 . S
C1094 C1095 1.415 . S
C1095 H1065 0.950 . S
C1095 C1090 1.363 . S
C1095 C1094 1.415 . S
H1096 C1093 0.999 . S
H1097 C1078 0.913 . S
H1098 C1116 0.951 . S
H1099 C1118 0.951 . S
H1100 C1120 0.950 . S
H1101 C1121 0.950 . S
H1102 C1123 0.959 . S
H1103 C1126 0.950 . S
H1104 C1127 0.950 . S
H1105 C1129 0.950 . S
H1106 C1130 0.950 1_554 S
H1107 C1131 0.951 . S
H1108 C1133 0.951 . S
H1109 C1135 0.950 . S
H1110 C1136 0.950 . S
H1111 C1138 0.959 . S
H1112 C1141 0.950 . S
H1113 C1142 0.950 . S
H1114 C1144 0.950 . S
H1115 C1145 0.950 1_556 S
C1116 H1098 0.951 . S
C1116 C1117 1.366 . S
C1116 C1118 1.388 . S
C1117 C1116 1.366 . S
C1117 C1121 1.385 . S
C1118 H1099 0.951 . S
C1118 C1116 1.388 . S
C1118 C1119 1.366 . S
C1119 C1118 1.366 . S
C1119 C1120 1.414 . S
C1119 C1122 1.499 . S
C1120 H1100 0.950 . S
C1120 C1119 1.414 . S
C1120 C1121 1.374 . S
C1121 H1101 0.950 . S
C1121 C1117 1.385 . S
C1121 C1120 1.374 . S
C1122 C1119 1.499 . S
C1122 C1123 1.409 1_565 S
C1122 C1124 1.389 1_455 S
C1123 H1102 0.959 . S
C1123 C1122 1.409 1_545 S
C1123 C1139 1.339 1_556 S
C1124 C1122 1.389 1_655 S
C1124 C1125 1.524 . S
C1124 C1138 1.339 1_556 S
C1125 C1124 1.524 . S
C1125 C1126 1.397 . S
C1125 C1130 1.363 . S
C1126 H1103 0.950 . S
C1126 C1125 1.397 . S
C1126 C1127 1.334 . S
C1127 H1104 0.950 . S
C1127 C1126 1.334 . S
C1127 C1128 1.287 . S
C1128 C1127 1.287 . S
C1128 C1129 1.524 . S
C1128 H1147 0.913 . S
C1129 H1105 0.950 . S
C1129 C1128 1.524 . S
C1129 C1130 1.415 . S
C1130 H1106 0.950 1_556 S
C1130 C1125 1.363 . S
C1130 C1129 1.415 . S
C1131 H1107 0.951 . S
C1131 C1132 1.366 . S
C1131 C1133 1.388 . S
C1132 C1131 1.366 . S
C1132 C1136 1.385 . S
C1133 H1108 0.951 . S
C1133 C1131 1.388 . S
C1133 C1134 1.366 . S
C1134 C1133 1.366 . S
C1134 C1135 1.414 . S
C1134 C1137 1.499 . S
C1135 H1109 0.950 . S
C1135 C1134 1.414 . S
C1135 C1136 1.374 . S
C1136 H1110 0.950 . S
C1136 C1132 1.385 . S
C1136 C1135 1.374 . S
C1137 C1134 1.499 . S
C1137 C1138 1.409 1_545 S
C1137 C1139 1.389 1_655 S
C1138 H1111 0.959 . S
C1138 C1124 1.339 1_554 S
C1138 C1137 1.409 1_565 S
C1139 C1123 1.339 1_554 S
C1139 C1137 1.389 1_455 S
C1139 C1140 1.524 . S
C1140 C1139 1.524 . S
C1140 C1141 1.397 . S
C1140 C1145 1.363 . S
C1141 H1112 0.950 . S
C1141 C1140 1.397 . S
C1141 C1142 1.334 . S
C1142 H1113 0.950 . S
C1142 C1141 1.334 . S
C1142 C1143 1.287 . S
C1143 C1142 1.287 . S
C1143 C1144 1.524 . S
C1143 H1146 0.999 . S
C1144 H1114 0.950 . S
C1144 C1143 1.524 . S
C1144 C1145 1.415 . S
C1145 H1115 0.950 1_554 S
C1145 C1140 1.363 . S
C1145 C1144 1.415 . S
H1146 C1143 0.999 . S
H1147 C1128 0.913 . S
H1148 C1166 0.951 . S
H1149 C1168 0.951 . S
H1150 C1170 0.950 1_554 S
H1151 C1171 0.950 . S
H1152 C1173 0.951 . S
H1153 C1176 0.950 1_554 S
H1154 C1177 0.950 . S
H1155 C1179 0.950 . S
H1156 C1180 0.950 . S
H1157 C1181 0.951 . S
H1158 C1183 0.951 . S
H1159 C1185 0.950 1_556 S
H1160 C1186 0.950 . S
H1161 C1188 0.951 . S
H1162 C1191 0.950 1_556 S
H1163 C1192 0.950 . S
H1164 C1194 0.950 . S
H1165 C1195 0.950 . S
C1166 H1148 0.951 . S
C1166 C1167 1.366 . S
C1166 C1168 1.388 . S
C1167 C1166 1.366 . S
C1167 C1171 1.385 . S
C1168 H1149 0.951 . S
C1168 C1166 1.388 . S
C1168 C1169 1.366 . S
C1169 C1168 1.366 . S
C1169 C1170 1.414 . S
C1169 C1172 1.499 . S
C1170 H1150 0.950 1_556 S
C1170 C1169 1.414 . S
C1170 C1171 1.374 . S
C1171 H1151 0.950 . S
C1171 C1167 1.385 . S
C1171 C1170 1.374 . S
C1172 C1169 1.499 . S
C1172 C1173 1.331 1_546 S
C1172 C1174 1.389 . S
C1173 H1152 0.951 . S
C1173 C1172 1.331 1_564 S
C1173 C1189 1.416 . S
C1174 C1172 1.389 . S
C1174 C1175 1.524 . S
C1174 C1188 1.416 . S
C1175 C1174 1.524 . S
C1175 C1176 1.397 . S
C1175 C1180 1.363 . S
C1176 H1153 0.950 1_556 S
C1176 C1175 1.397 . S
C1176 C1177 1.334 . S
C1177 H1154 0.950 . S
C1177 C1176 1.334 . S
C1177 C1178 1.287 . S
C1178 C1177 1.287 . S
C1178 C1179 1.524 . S
C1178 H1197 0.913 . S
C1179 H1155 0.950 . S
C1179 C1178 1.524 . S
C1179 C1180 1.415 . S
C1180 H1156 0.950 . S
C1180 C1175 1.363 . S
C1180 C1179 1.415 . S
C1181 H1157 0.951 . S
C1181 C1182 1.366 . S
C1181 C1183 1.388 . S
C1182 C1181 1.366 . S
C1182 C1186 1.385 . S
C1183 H1158 0.951 . S
C1183 C1181 1.388 . S
C1183 C1184 1.366 . S
C1184 C1183 1.366 . S
C1184 C1185 1.414 . S
C1184 C1187 1.499 . S
C1185 H1159 0.950 1_554 S
C1185 C1184 1.414 . S
C1185 C1186 1.374 . S
C1186 H1160 0.950 . S
C1186 C1182 1.385 . S
C1186 C1185 1.374 . S
C1187 C1184 1.499 . S
C1187 C1188 1.331 1_564 S
C1187 C1189 1.389 . S
C1188 H1161 0.951 . S
C1188 C1174 1.416 . S
C1188 C1187 1.331 1_546 S
C1189 C1173 1.416 . S
C1189 C1187 1.389 . S
C1189 C1190 1.524 . S
C1190 C1189 1.524 . S
C1190 C1191 1.397 . S
C1190 C1195 1.363 . S
C1191 H1162 0.950 1_554 S
C1191 C1190 1.397 . S
C1191 C1192 1.334 . S
C1192 H1163 0.950 . S
C1192 C1191 1.334 . S
C1192 C1193 1.287 . S
C1193 C1192 1.287 . S
C1193 C1194 1.524 . S
C1193 H1196 0.999 . S
C1194 H1164 0.950 . S
C1194 C1193 1.524 . S
C1194 C1195 1.415 . S
C1195 H1165 0.950 . S
C1195 C1190 1.363 . S
C1195 C1194 1.415 . S
H1196 C1193 0.999 . S
H1197 C1178 0.913 . S
H1198 C1216 0.951 . S
H1199 C1218 0.951 . S
H1200 C1220 0.950 . S
H1201 C1221 0.950 . S
H1202 C1223 0.953 . S
H1203 C1226 0.950 . S
H1204 C1227 0.950 . S
H1205 C1229 0.950 . S
H1206 C1230 0.950 . S
H1207 C1231 0.951 . S
H1208 C1233 0.951 . S
H1209 C1235 0.950 . S
H1210 C1236 0.950 . S
H1211 C1238 0.953 . S
H1212 C1241 0.950 . S
H1213 C1242 0.950 . S
H1214 C1244 0.950 . S
H1215 C1245 0.950 . S
C1216 H1198 0.951 . S
C1216 C1217 1.366 . S
C1216 C1218 1.388 . S
C1217 C1216 1.366 . S
C1217 C1221 1.385 . S
C1218 H1199 0.951 . S
C1218 C1216 1.388 . S
C1218 C1219 1.366 . S
C1219 C1218 1.366 . S
C1219 C1220 1.414 . S
C1219 C1222 1.499 . S
C1220 H1200 0.950 . S
C1220 C1219 1.414 . S
C1220 C1221 1.374 . S
C1221 H1201 0.950 . S
C1221 C1217 1.385 . S
C1221 C1220 1.374 . S
C1222 C1219 1.499 . S
C1222 C1223 1.404 . S
C1222 C1224 1.389 1_545 S
C1223 H1202 0.953 . S
C1223 C1222 1.404 . S
C1223 C1239 1.345 1_455 S
C1224 C1222 1.389 1_565 S
C1224 C1225 1.524 . S
C1224 C1238 1.345 1_455 S
C1225 C1224 1.524 . S
C1225 C1226 1.397 . S
C1225 C1230 1.363 . S
C1226 H1203 0.950 . S
C1226 C1225 1.397 . S
C1226 C1227 1.334 . S
C1227 H1204 0.950 . S
C1227 C1226 1.334 . S
C1227 C1228 1.287 . S
C1228 C1227 1.287 . S
C1228 C1229 1.524 . S
C1228 H1247 0.913 . S
C1229 H1205 0.950 . S
C1229 C1228 1.524 . S
C1229 C1230 1.415 . S
C1230 H1206 0.950 . S
C1230 C1225 1.363 . S
C1230 C1229 1.415 . S
C1231 H1207 0.951 . S
C1231 C1232 1.366 . S
C1231 C1233 1.388 . S
C1232 C1231 1.366 . S
C1232 C1236 1.385 . S
C1233 H1208 0.951 . S
C1233 C1231 1.388 . S
C1233 C1234 1.366 . S
C1234 C1233 1.366 . S
C1234 C1235 1.414 . S
C1234 C1237 1.499 . S
C1235 H1209 0.950 . S
C1235 C1234 1.414 . S
C1235 C1236 1.374 . S
C1236 H1210 0.950 . S
C1236 C1232 1.385 . S
C1236 C1235 1.374 . S
C1237 C1234 1.499 . S
C1237 C1238 1.404 . S
C1237 C1239 1.389 1_565 S
C1238 H1211 0.953 . S
C1238 C1224 1.345 1_655 S
C1238 C1237 1.404 . S
C1239 C1223 1.345 1_655 S
C1239 C1237 1.389 1_545 S
C1239 C1240 1.524 . S
C1240 C1239 1.524 . S
C1240 C1241 1.397 . S
C1240 C1245 1.363 . S
C1241 H1212 0.950 . S
C1241 C1240 1.397 . S
C1241 C1242 1.334 . S
C1242 H1213 0.950 . S
C1242 C1241 1.334 . S
C1242 C1243 1.287 . S
C1243 C1242 1.287 . S
C1243 C1244 1.524 . S
C1243 H1246 0.999 . S
C1244 H1214 0.950 . S
C1244 C1243 1.524 . S
C1244 C1245 1.415 . S
C1245 H1215 0.950 . S
C1245 C1240 1.363 . S
C1245 C1244 1.415 . S
H1246 C1243 0.999 . S
H1247 C1228 0.913 . S
H1248 C1266 0.951 . S
H1249 C1268 0.951 . S
H1250 C1270 0.950 . S
H1251 C1271 0.950 . S
H1252 C1273 0.950 . S
H1253 C1276 0.950 . S
H1254 C1277 0.950 . S
H1255 C1279 0.950 . S
H1256 C1280 0.950 . S
H1257 C1281 0.951 . S
H1258 C1283 0.951 . S
H1259 C1285 0.950 . S
H1260 C1286 0.950 . S
H1261 C1288 0.950 . S
H1262 C1291 0.950 . S
H1263 C1292 0.950 . S
H1264 C1294 0.950 . S
H1265 C1295 0.950 . S
C1266 H1248 0.951 . S
C1266 C1267 1.366 . S
C1266 C1268 1.388 . S
C1267 C1266 1.366 . S
C1267 C1271 1.385 . S
C1268 H1249 0.951 . S
C1268 C1266 1.388 . S
C1268 C1269 1.366 . S
C1269 C1268 1.366 . S
C1269 C1270 1.414 . S
C1269 C1272 1.499 . S
C1270 H1250 0.950 . S
C1270 C1269 1.414 . S
C1270 C1271 1.374 . S
C1271 H1251 0.950 . S
C1271 C1267 1.385 . S
C1271 C1270 1.374 . S
C1272 C1269 1.499 . S
C1272 C1273 1.373 1_655 S
C1272 C1274 1.389 . S
C1273 H1252 0.950 . S
C1273 C1272 1.373 1_455 S
C1273 C1289 1.377 . S
C1274 C1272 1.389 . S
C1274 C1275 1.524 . S
C1274 C1288 1.377 . S
C1275 C1274 1.524 . S
C1275 C1276 1.397 . S
C1275 C1280 1.363 . S
C1276 H1253 0.950 . S
C1276 C1275 1.397 . S
C1276 C1277 1.334 . S
C1277 H1254 0.950 . S
C1277 C1276 1.334 . S
C1277 C1278 1.287 . S
C1278 C1277 1.287 . S
C1278 C1279 1.524 . S
C1278 H1297 0.913 . S
C1279 H1255 0.950 . S
C1279 C1278 1.524 . S
C1279 C1280 1.415 . S
C1280 H1256 0.950 . S
C1280 C1275 1.363 . S
C1280 C1279 1.415 . S
C1281 H1257 0.951 . S
C1281 C1282 1.366 . S
C1281 C1283 1.388 . S
C1282 C1281 1.366 . S
C1282 C1286 1.385 . S
C1283 H1258 0.951 . S
C1283 C1281 1.388 . S
C1283 C1284 1.366 . S
C1284 C1283 1.366 . S
C1284 C1285 1.414 . S
C1284 C1287 1.499 . S
C1285 H1259 0.950 . S
C1285 C1284 1.414 . S
C1285 C1286 1.374 . S
C1286 H1260 0.950 . S
C1286 C1282 1.385 . S
C1286 C1285 1.374 . S
C1287 C1284 1.499 . S
C1287 C1288 1.373 1_455 S
C1287 C1289 1.389 . S
C1288 H1261 0.950 . S
C1288 C1274 1.377 . S
C1288 C1287 1.373 1_655 S
C1289 C1273 1.377 . S
C1289 C1287 1.389 . S
C1289 C1290 1.524 . S
C1290 C1289 1.524 . S
C1290 C1291 1.397 . S
C1290 C1295 1.363 . S
C1291 H1262 0.950 . S
C1291 C1290 1.397 . S
C1291 C1292 1.334 . S
C1292 H1263 0.950 . S
C1292 C1291 1.334 . S
C1292 C1293 1.287 . S
C1293 C1292 1.287 . S
C1293 C1294 1.524 . S
C1293 H1296 0.999 . S
C1294 H1264 0.950 . S
C1294 C1293 1.524 . S
C1294 C1295 1.415 . S
C1295 H1265 0.950 . S
C1295 C1290 1.363 . S
C1295 C1294 1.415 . S
H1296 C1293 0.999 . S
H1297 C1278 0.913 . S
H1298 C1316 0.951 . S
H1299 C1318 0.951 . S
H1300 C1320 0.950 . S
H1301 C1321 0.950 . S
H1302 C1323 0.950 . S
H1303 C1326 0.950 . S
H1304 C1327 0.950 . S
H1305 C1329 0.950 . S
H1306 C1330 0.950 . S
H1307 C1331 0.951 . S
H1308 C1333 0.951 . S
H1309 C1335 0.950 . S
H1310 C1336 0.950 . S
H1311 C1338 0.950 . S
H1312 C1341 0.950 . S
H1313 C1342 0.950 . S
H1314 C1344 0.950 . S
H1315 C1345 0.950 . S
C1316 H1298 0.951 . S
C1316 C1317 1.366 . S
C1316 C1318 1.388 . S
C1317 C1316 1.366 . S
C1317 C1321 1.385 . S
C1318 H1299 0.951 . S
C1318 C1316 1.388 . S
C1318 C1319 1.366 . S
C1319 C1318 1.366 . S
C1319 C1320 1.414 . S
C1319 C1322 1.499 . S
C1320 H1300 0.950 . S
C1320 C1319 1.414 . S
C1320 C1321 1.374 . S
C1321 H1301 0.950 . S
C1321 C1317 1.385 . S
C1321 C1320 1.374 . S
C1322 C1319 1.499 . S
C1322 C1323 1.373 . S
C1322 C1324 1.412 . S
C1323 H1302 0.950 . S
C1323 C1322 1.373 . S
C1323 C1339 1.354 1_455 S
C1324 C1322 1.412 . S
C1324 C1325 1.524 . S
C1324 C1338 1.354 1_455 S
C1325 C1324 1.524 . S
C1325 C1326 1.411 . S
C1325 C1330 1.348 1_455 S
C1326 H1303 0.950 . S
C1326 C1325 1.411 . S
C1326 C1327 1.334 . S
C1327 H1304 0.950 . S
C1327 C1326 1.334 . S
C1327 C1328 1.287 . S
C1328 C1327 1.287 . S
C1328 C1329 1.524 1_455 S
C1328 H1347 0.913 . S
C1329 H1305 0.950 . S
C1329 C1328 1.524 1_655 S
C1329 C1330 1.415 . S
C1330 H1306 0.950 . S
C1330 C1325 1.348 1_655 S
C1330 C1329 1.415 . S
C1331 H1307 0.951 . S
C1331 C1332 1.366 . S
C1331 C1333 1.388 . S
C1332 C1331 1.366 . S
C1332 C1336 1.385 . S
C1333 H1308 0.951 . S
C1333 C1331 1.388 . S
C1333 C1334 1.366 . S
C1334 C1333 1.366 . S
C1334 C1335 1.414 . S
C1334 C1337 1.499 . S
C1335 H1309 0.950 . S
C1335 C1334 1.414 . S
C1335 C1336 1.374 . S
C1336 H1310 0.950 . S
C1336 C1332 1.385 . S
C1336 C1335 1.374 . S
C1337 C1334 1.499 . S
C1337 C1338 1.373 . S
C1337 C1339 1.412 . S
C1338 H1311 0.950 . S
C1338 C1324 1.354 1_655 S
C1338 C1337 1.373 . S
C1339 C1323 1.354 1_655 S
C1339 C1337 1.412 . S
C1339 C1340 1.524 . S
C1340 C1339 1.524 . S
C1340 C1341 1.411 . S
C1340 C1345 1.348 1_655 S
C1341 H1312 0.950 . S
C1341 C1340 1.411 . S
C1341 C1342 1.334 . S
C1342 H1313 0.950 . S
C1342 C1341 1.334 . S
C1342 C1343 1.287 . S
C1343 C1342 1.287 . S
C1343 C1344 1.524 1_655 S
C1343 H1346 0.999 . S
C1344 H1314 0.950 . S
C1344 C1343 1.524 1_455 S
C1344 C1345 1.415 . S
C1345 H1315 0.950 . S
C1345 C1340 1.348 1_455 S
C1345 C1344 1.415 . S
H1346 C1343 0.999 . S
H1347 C1328 0.913 . S
H1348 C1366 0.951 . S
H1349 C1368 0.951 . S
H1350 C1370 0.950 . S
H1351 C1371 0.950 . S
H1352 C1373 0.950 . S
H1353 C1376 0.950 . S
H1354 C1377 0.950 . S
H1355 C1379 0.950 . S
H1356 C1380 0.950 . S
H1357 C1381 0.951 . S
H1358 C1383 0.951 . S
H1359 C1385 0.950 . S
H1360 C1386 0.950 . S
H1361 C1388 0.950 . S
H1362 C1391 0.950 . S
H1363 C1392 0.950 . S
H1364 C1394 0.950 . S
H1365 C1395 0.950 . S
C1366 H1348 0.951 . S
C1366 C1367 1.366 . S
C1366 C1368 1.388 . S
C1367 C1366 1.366 . S
C1367 C1371 1.385 . S
C1368 H1349 0.951 . S
C1368 C1366 1.388 . S
C1368 C1369 1.366 . S
C1369 C1368 1.366 . S
C1369 C1370 1.414 . S
C1369 C1372 1.499 . S
C1370 H1350 0.950 . S
C1370 C1369 1.414 . S
C1370 C1371 1.374 . S
C1371 H1351 0.950 . S
C1371 C1367 1.385 . S
C1371 C1370 1.374 . S
C1372 C1369 1.499 . S
C1372 C1373 1.373 . S
C1372 C1374 1.389 . S
C1373 H1352 0.950 . S
C1373 C1372 1.373 . S
C1373 C1389 1.377 . S
C1374 C1372 1.389 . S
C1374 C1375 1.524 . S
C1374 C1388 1.377 . S
C1375 C1374 1.524 . S
C1375 C1376 1.397 . S
C1375 C1380 1.363 . S
C1376 H1353 0.950 . S
C1376 C1375 1.397 . S
C1376 C1377 1.334 . S
C1377 H1354 0.950 . S
C1377 C1376 1.334 . S
C1377 C1378 1.287 . S
C1378 C1377 1.287 . S
C1378 C1379 1.524 . S
C1378 H1397 0.913 . S
C1379 H1355 0.950 . S
C1379 C1378 1.524 . S
C1379 C1380 1.415 . S
C1380 H1356 0.950 . S
C1380 C1375 1.363 . S
C1380 C1379 1.415 . S
C1381 H1357 0.951 . S
C1381 C1382 1.366 . S
C1381 C1383 1.388 . S
C1382 C1381 1.366 . S
C1382 C1386 1.385 . S
C1383 H1358 0.951 . S
C1383 C1381 1.388 . S
C1383 C1384 1.366 . S
C1384 C1383 1.366 . S
C1384 C1385 1.414 . S
C1384 C1387 1.499 . S
C1385 H1359 0.950 . S
C1385 C1384 1.414 . S
C1385 C1386 1.374 . S
C1386 H1360 0.950 . S
C1386 C1382 1.385 . S
C1386 C1385 1.374 . S
C1387 C1384 1.499 . S
C1387 C1388 1.373 . S
C1387 C1389 1.389 . S
C1388 H1361 0.950 . S
C1388 C1374 1.377 . S
C1388 C1387 1.373 . S
C1389 C1373 1.377 . S
C1389 C1387 1.389 . S
C1389 C1390 1.524 . S
C1390 C1389 1.524 . S
C1390 C1391 1.397 . S
C1390 C1395 1.363 . S
C1391 H1362 0.950 . S
C1391 C1390 1.397 . S
C1391 C1392 1.334 . S
C1392 H1363 0.950 . S
C1392 C1391 1.334 . S
C1392 C1393 1.287 . S
C1393 C1392 1.287 . S
C1393 C1394 1.524 . S
C1393 H1396 0.999 . S
C1394 H1364 0.950 . S
C1394 C1393 1.524 . S
C1394 C1395 1.415 . S
C1395 H1365 0.950 . S
C1395 C1390 1.363 . S
C1395 C1394 1.415 . S
H1396 C1393 0.999 . S
H1397 C1378 0.913 . S
H1398 C1416 0.951 . S
H1399 C1418 0.951 . S
H1400 C1420 0.950 . S
H1401 C1421 0.950 . S
H1402 C1423 0.950 . S
H1403 C1426 0.950 . S
H1404 C1427 0.950 . S
H1405 C1429 0.950 . S
H1406 C1430 0.950 . S
H1407 C1431 0.951 . S
H1408 C1433 0.951 . S
H1409 C1435 0.950 . S
H1410 C1436 0.950 . S
H1411 C1438 0.950 . S
H1412 C1441 0.950 . S
H1413 C1442 0.950 . S
H1414 C1444 0.950 . S
H1415 C1445 0.950 . S
C1416 H1398 0.951 . S
C1416 C1417 1.366 . S
C1416 C1418 1.388 . S
C1417 C1416 1.366 . S
C1417 C1421 1.385 . S
C1418 H1399 0.951 . S
C1418 C1416 1.388 . S
C1418 C1419 1.366 . S
C1419 C1418 1.366 . S
C1419 C1420 1.414 . S
C1419 C1422 1.499 . S
C1420 H1400 0.950 . S
C1420 C1419 1.414 . S
C1420 C1421 1.374 . S
C1421 H1401 0.950 . S
C1421 C1417 1.385 . S
C1421 C1420 1.374 . S
C1422 C1419 1.499 . S
C1422 C1423 1.373 . S
C1422 C1424 1.389 . S
C1423 H1402 0.950 . S
C1423 C1422 1.373 . S
C1423 C1439 1.377 . S
C1424 C1422 1.389 . S
C1424 C1425 1.524 . S
C1424 C1438 1.377 . S
C1425 C1424 1.524 . S
C1425 C1426 1.397 . S
C1425 C1430 1.363 . S
C1426 H1403 0.950 . S
C1426 C1425 1.397 . S
C1426 C1427 1.334 . S
C1427 H1404 0.950 . S
C1427 C1426 1.334 . S
C1427 C1428 1.287 . S
C1428 C1427 1.287 . S
C1428 C1429 1.524 . S
C1428 H1447 0.913 . S
C1429 H1405 0.950 . S
C1429 C1428 1.524 . S
C1429 C1430 1.415 . S
C1430 H1406 0.950 . S
C1430 C1425 1.363 . S
C1430 C1429 1.415 . S
C1431 H1407 0.951 . S
C1431 C1432 1.366 . S
C1431 C1433 1.388 . S
C1432 C1431 1.366 . S
C1432 C1436 1.385 . S
C1433 H1408 0.951 . S
C1433 C1431 1.388 . S
C1433 C1434 1.366 . S
C1434 C1433 1.366 . S
C1434 C1435 1.414 . S
C1434 C1437 1.499 . S
C1435 H1409 0.950 . S
C1435 C1434 1.414 . S
C1435 C1436 1.374 . S
C1436 H1410 0.950 . S
C1436 C1432 1.385 . S
C1436 C1435 1.374 . S
C1437 C1434 1.499 . S
C1437 C1438 1.373 . S
C1437 C1439 1.389 . S
C1438 H1411 0.950 . S
C1438 C1424 1.377 . S
C1438 C1437 1.373 . S
C1439 C1423 1.377 . S
C1439 C1437 1.389 . S
C1439 C1440 1.524 . S
C1440 C1439 1.524 . S
C1440 C1441 1.397 . S
C1440 C1445 1.363 . S
C1441 H1412 0.950 . S
C1441 C1440 1.397 . S
C1441 C1442 1.334 . S
C1442 H1413 0.950 . S
C1442 C1441 1.334 . S
C1442 C1443 1.287 . S
C1443 C1442 1.287 . S
C1443 C1444 1.524 . S
C1443 H1446 0.999 . S
C1444 H1414 0.950 . S
C1444 C1443 1.524 . S
C1444 C1445 1.415 . S
C1445 H1415 0.950 . S
C1445 C1440 1.363 . S
C1445 C1444 1.415 . S
H1446 C1443 0.999 . S
H1447 C1428 0.913 . S
H1448 C1466 0.951 . S
H1449 C1468 0.951 . S
H1450 C1470 0.950 . S
H1451 C1471 0.950 . S
H1452 C1473 0.950 . S
H1453 C1476 0.950 1_655 S
H1454 C1477 0.950 . S
H1455 C1479 0.950 . S
H1456 C1480 0.950 . S
H1457 C1481 0.951 . S
H1458 C1483 0.951 . S
H1459 C1485 0.950 . S
H1460 C1486 0.950 . S
H1461 C1488 0.950 . S
H1462 C1491 0.950 1_455 S
H1463 C1492 0.950 . S
H1464 C1494 0.950 . S
H1465 C1495 0.950 . S
C1466 H1448 0.951 . S
C1466 C1467 1.366 . S
C1466 C1468 1.388 . S
C1467 C1466 1.366 . S
C1467 C1471 1.385 . S
C1468 H1449 0.951 . S
C1468 C1466 1.388 . S
C1468 C1469 1.366 . S
C1469 C1468 1.366 . S
C1469 C1470 1.414 . S
C1469 C1472 1.499 . S
C1470 H1450 0.950 . S
C1470 C1469 1.414 . S
C1470 C1471 1.374 . S
C1471 H1451 0.950 . S
C1471 C1467 1.385 . S
C1471 C1470 1.374 . S
C1472 C1469 1.499 . S
C1472 C1473 1.373 . S
C1472 C1474 1.389 1_655 S
C1473 H1452 0.950 . S
C1473 C1472 1.373 . S
C1473 C1489 1.377 . S
C1474 C1472 1.389 1_455 S
C1474 C1475 1.524 . S
C1474 C1488 1.377 . S
C1475 C1474 1.524 . S
C1475 C1476 1.397 . S
C1475 C1480 1.363 . S
C1476 H1453 0.950 1_455 S
C1476 C1475 1.397 . S
C1476 C1477 1.334 . S
C1477 H1454 0.950 . S
C1477 C1476 1.334 . S
C1477 C1478 1.287 . S
C1478 C1477 1.287 . S
C1478 C1479 1.524 . S
C1478 H1497 0.913 . S
C1479 H1455 0.950 . S
C1479 C1478 1.524 . S
C1479 C1480 1.415 . S
C1480 H1456 0.950 . S
C1480 C1475 1.363 . S
C1480 C1479 1.415 . S
C1481 H1457 0.951 . S
C1481 C1482 1.366 . S
C1481 C1483 1.388 . S
C1482 C1481 1.366 . S
C1482 C1486 1.385 . S
C1483 H1458 0.951 . S
C1483 C1481 1.388 . S
C1483 C1484 1.366 . S
C1484 C1483 1.366 . S
C1484 C1485 1.414 . S
C1484 C1487 1.499 . S
C1485 H1459 0.950 . S
C1485 C1484 1.414 . S
C1485 C1486 1.374 . S
C1486 H1460 0.950 . S
C1486 C1482 1.385 . S
C1486 C1485 1.374 . S
C1487 C1484 1.499 . S
C1487 C1488 1.373 . S
C1487 C1489 1.389 1_455 S
C1488 H1461 0.950 . S
C1488 C1474 1.377 . S
C1488 C1487 1.373 . S
C1489 C1473 1.377 . S
C1489 C1487 1.389 1_655 S
C1489 C1490 1.524 . S
C1490 C1489 1.524 . S
C1490 C1491 1.397 . S
C1490 C1495 1.363 . S
C1491 H1462 0.950 1_655 S
C1491 C1490 1.397 . S
C1491 C1492 1.334 . S
C1492 H1463 0.950 . S
C1492 C1491 1.334 . S
C1492 C1493 1.287 . S
C1493 C1492 1.287 . S
C1493 C1494 1.524 . S
C1493 H1496 0.999 . S
C1494 H1464 0.950 . S
C1494 C1493 1.524 . S
C1494 C1495 1.415 . S
C1495 H1465 0.950 . S
C1495 C1490 1.363 . S
C1495 C1494 1.415 . S
H1496 C1493 0.999 . S
H1497 C1478 0.913 . S
H1498 C1516 0.951 . S
H1499 C1518 0.951 . S
H1500 C1520 0.950 . S
H1501 C1521 0.950 . S
H1502 C1523 0.950 . S
H1503 C1526 0.950 . S
H1504 C1527 0.950 . S
H1505 C1529 0.950 . S
H1506 C1530 0.950 . S
H1507 C1531 0.951 . S
H1508 C1533 0.951 . S
H1509 C1535 0.950 . S
H1510 C1536 0.950 . S
H1511 C1538 0.950 . S
H1512 C1541 0.950 . S
H1513 C1542 0.950 . S
H1514 C1544 0.950 . S
H1515 C1545 0.950 . S
C1516 H1498 0.951 . S
C1516 C1517 1.366 . S
C1516 C1518 1.388 . S
C1517 C1516 1.366 . S
C1517 C1521 1.385 . S
C1518 H1499 0.951 . S
C1518 C1516 1.388 . S
C1518 C1519 1.366 . S
C1519 C1518 1.366 . S
C1519 C1520 1.414 . S
C1519 C1522 1.499 . S
C1520 H1500 0.950 . S
C1520 C1519 1.414 . S
C1520 C1521 1.374 . S
C1521 H1501 0.950 . S
C1521 C1517 1.385 . S
C1521 C1520 1.374 . S
C1522 C1519 1.499 . S
C1522 C1523 1.373 . S
C1522 C1524 1.389 . S
C1523 H1502 0.950 . S
C1523 C1522 1.373 . S
C1523 C1539 1.377 . S
C1524 C1522 1.389 . S
C1524 C1525 1.524 . S
C1524 C1538 1.377 . S
C1525 C1524 1.524 . S
C1525 C1526 1.397 . S
C1525 C1530 1.363 . S
C1526 H1503 0.950 . S
C1526 C1525 1.397 . S
C1526 C1527 1.334 . S
C1527 H1504 0.950 . S
C1527 C1526 1.334 . S
C1527 C1528 1.287 . S
C1528 C1527 1.287 . S
C1528 C1529 1.524 . S
C1528 H1547 0.913 . S
C1529 H1505 0.950 . S
C1529 C1528 1.524 . S
C1529 C1530 1.415 . S
C1530 H1506 0.950 . S
C1530 C1525 1.363 . S
C1530 C1529 1.415 . S
C1531 H1507 0.951 . S
C1531 C1532 1.366 . S
C1531 C1533 1.388 . S
C1532 C1531 1.366 . S
C1532 C1536 1.385 . S
C1533 H1508 0.951 . S
C1533 C1531 1.388 . S
C1533 C1534 1.366 . S
C1534 C1533 1.366 . S
C1534 C1535 1.414 . S
C1534 C1537 1.499 . S
C1535 H1509 0.950 . S
C1535 C1534 1.414 . S
C1535 C1536 1.374 . S
C1536 H1510 0.950 . S
C1536 C1532 1.385 . S
C1536 C1535 1.374 . S
C1537 C1534 1.499 . S
C1537 C1538 1.373 . S
C1537 C1539 1.389 . S
C1538 H1511 0.950 . S
C1538 C1524 1.377 . S
C1538 C1537 1.373 . S
C1539 C1523 1.377 . S
C1539 C1537 1.389 . S
C1539 C1540 1.524 . S
C1540 C1539 1.524 . S
C1540 C1541 1.397 . S
C1540 C1545 1.363 . S
C1541 H1512 0.950 . S
C1541 C1540 1.397 . S
C1541 C1542 1.334 . S
C1542 H1513 0.950 . S
C1542 C1541 1.334 . S
C1542 C1543 1.287 . S
C1543 C1542 1.287 . S
C1543 C1544 1.524 . S
C1543 H1546 0.999 . S
C1544 H1514 0.950 . S
C1544 C1543 1.524 . S
C1544 C1545 1.415 . S
C1545 H1515 0.950 . S
C1545 C1540 1.363 . S
C1545 C1544 1.415 . S
H1546 C1543 0.999 . S
H1547 C1528 0.913 . S
H1548 C1566 0.951 . S
H1549 C1568 0.951 . S
H1550 C1570 0.950 . S
H1551 C1571 0.950 . S
H1552 C1573 0.950 . S
H1553 C1576 0.950 . S
H1554 C1577 0.950 . S
H1555 C1579 0.950 . S
H1556 C1580 0.950 . S
H1557 C1581 0.951 . S
H1558 C1583 0.951 . S
H1559 C1585 0.950 . S
H1560 C1586 0.950 . S
H1561 C1588 0.950 . S
H1562 C1591 0.950 . S
H1563 C1592 0.950 . S
H1564 C1594 0.952 1_554 S
H1565 C1595 0.950 . S
C1566 H1548 0.951 . S
C1566 C1567 1.366 . S
C1566 C1568 1.388 . S
C1567 C1566 1.366 . S
C1567 C1571 1.385 . S
C1568 H1549 0.951 . S
C1568 C1566 1.388 . S
C1568 C1569 1.366 . S
C1569 C1568 1.366 . S
C1569 C1570 1.414 . S
C1569 C1572 1.499 . S
C1570 H1550 0.950 . S
C1570 C1569 1.414 . S
C1570 C1571 1.374 . S
C1571 H1551 0.950 . S
C1571 C1567 1.385 . S
C1571 C1570 1.374 . S
C1572 C1569 1.499 . S
C1572 C1573 1.373 . S
C1572 C1574 1.389 . S
C1573 H1552 0.950 . S
C1573 C1572 1.373 . S
C1573 C1589 1.377 . S
C1574 C1572 1.389 . S
C1574 C1575 1.524 . S
C1574 C1588 1.377 . S
C1575 C1574 1.524 . S
C1575 C1576 1.397 . S
C1575 C1580 1.363 . S
C1576 H1553 0.950 . S
C1576 C1575 1.397 . S
C1576 C1577 1.334 . S
C1577 H1554 0.950 . S
C1577 C1576 1.334 . S
C1577 C1578 1.287 . S
C1578 C1577 1.287 . S
C1578 C1579 1.524 . S
C1578 H1597 0.913 . S
C1579 H1555 0.950 . S
C1579 C1578 1.524 . S
C1579 C1580 1.415 . S
C1580 H1556 0.950 . S
C1580 C1575 1.363 . S
C1580 C1579 1.415 . S
C1581 H1557 0.951 . S
C1581 C1582 1.366 . S
C1581 C1583 1.388 . S
C1582 C1581 1.366 . S
C1582 C1586 1.385 . S
C1583 H1558 0.951 . S
C1583 C1581 1.388 . S
C1583 C1584 1.366 . S
C1584 C1583 1.366 . S
C1584 C1585 1.414 . S
C1584 C1587 1.499 . S
C1585 H1559 0.950 . S
C1585 C1584 1.414 . S
C1585 C1586 1.374 . S
C1586 H1560 0.950 . S
C1586 C1582 1.385 . S
C1586 C1585 1.374 . S
C1587 C1584 1.499 . S
C1587 C1588 1.373 . S
C1587 C1589 1.389 . S
C1588 H1561 0.950 . S
C1588 C1574 1.377 . S
C1588 C1587 1.373 . S
C1589 C1573 1.377 . S
C1589 C1587 1.389 . S
C1589 C1590 1.524 . S
C1590 C1589 1.524 . S
C1590 C1591 1.397 . S
C1590 C1595 1.363 . S
C1591 H1562 0.950 . S
C1591 C1590 1.397 . S
C1591 C1592 1.334 1_556 S
C1592 H1563 0.950 . S
C1592 C1591 1.334 1_554 S
C1592 C1593 1.287 . S
C1593 C1592 1.287 . S
C1593 C1594 1.524 1_554 S
C1593 H1596 0.999 . S
C1594 H1564 0.952 1_556 S
C1594 C1593 1.524 1_556 S
C1594 C1595 1.415 . S
C1595 H1565 0.950 . S
C1595 C1590 1.363 . S
C1595 C1594 1.415 . S
H1596 C1593 0.999 . S
H1597 C1578 0.913 . S
H1598 C1616 0.951 . S
H1599 C1618 0.951 . S
H1600 C1620 0.950 . S
H1601 C1621 0.950 . S
H1602 C1623 0.950 . S
H1603 C1626 0.950 . S
H1604 C1627 0.950 . S
H1605 C1629 0.950 . S
H1606 C1630 0.950 . S
H1607 C1631 0.951 . S
H1608 C1633 0.951 . S
H1609 C1635 0.950 . S
H1610 C1636 0.950 . S
H1611 C1638 0.950 . S
H1612 C1641 0.950 . S
H1613 C1642 0.950 . S
H1614 C1644 0.950 . S
H1615 C1645 0.950 . S
C1616 H1598 0.951 . S
C1616 C1617 1.366 . S
C1616 C1618 1.388 . S
C1617 C1616 1.366 . S
C1617 C1621 1.385 . S
C1618 H1599 0.951 . S
C1618 C1616 1.388 . S
C1618 C1619 1.366 . S
C1619 C1618 1.366 . S
C1619 C1620 1.414 . S
C1619 C1622 1.499 . S
C1620 H1600 0.950 . S
C1620 C1619 1.414 . S
C1620 C1621 1.374 . S
C1621 H1601 0.950 . S
C1621 C1617 1.385 . S
C1621 C1620 1.374 . S
C1622 C1619 1.499 . S
C1622 C1623 1.373 . S
C1622 C1624 1.389 . S
C1623 H1602 0.950 . S
C1623 C1622 1.373 . S
C1623 C1639 1.377 1_455 S
C1624 C1622 1.389 . S
C1624 C1625 1.524 . S
C1624 C1638 1.377 1_455 S
C1625 C1624 1.524 . S
C1625 C1626 1.397 . S
C1625 C1630 1.363 . S
C1626 H1603 0.950 . S
C1626 C1625 1.397 . S
C1626 C1627 1.334 . S
C1627 H1604 0.950 . S
C1627 C1626 1.334 . S
C1627 C1628 1.287 . S
C1628 C1627 1.287 . S
C1628 C1629 1.524 . S
C1628 H1647 0.913 . S
C1629 H1605 0.950 . S
C1629 C1628 1.524 . S
C1629 C1630 1.415 . S
C1630 H1606 0.950 . S
C1630 C1625 1.363 . S
C1630 C1629 1.415 . S
C1631 H1607 0.951 . S
C1631 C1632 1.366 . S
C1631 C1633 1.388 . S
C1632 C1631 1.366 . S
C1632 C1636 1.385 . S
C1633 H1608 0.951 . S
C1633 C1631 1.388 . S
C1633 C1634 1.366 . S
C1634 C1633 1.366 . S
C1634 C1635 1.414 . S
C1634 C1637 1.499 . S
C1635 H1609 0.950 . S
C1635 C1634 1.414 . S
C1635 C1636 1.374 . S
C1636 H1610 0.950 . S
C1636 C1632 1.385 . S
C1636 C1635 1.374 . S
C1637 C1634 1.499 . S
C1637 C1638 1.373 . S
C1637 C1639 1.389 . S
C1638 H1611 0.950 . S
C1638 C1624 1.377 1_655 S
C1638 C1637 1.373 . S
C1639 C1623 1.377 1_655 S
C1639 C1637 1.389 . S
C1639 C1640 1.524 . S
C1640 C1639 1.524 . S
C1640 C1641 1.397 . S
C1640 C1645 1.363 . S
C1641 H1612 0.950 . S
C1641 C1640 1.397 . S
C1641 C1642 1.334 . S
C1642 H1613 0.950 . S
C1642 C1641 1.334 . S
C1642 C1643 1.287 . S
C1643 C1642 1.287 . S
C1643 C1644 1.524 . S
C1643 H1646 0.999 . S
C1644 H1614 0.950 . S
C1644 C1643 1.524 . S
C1644 C1645 1.415 . S
C1645 H1615 0.950 . S
C1645 C1640 1.363 . S
C1645 C1644 1.415 . S
H1646 C1643 0.999 . S
H1647 C1628 0.913 . S
H1648 C1666 0.951 . S
H1649 C1668 0.951 . S
H1650 C1670 0.950 . S
H1651 C1671 0.950 . S
H1652 C1673 0.950 . S
H1653 C1676 0.950 . S
H1654 C1677 0.950 . S
H1655 C1679 0.950 . S
H1656 C1680 0.950 . S
H1657 C1681 0.951 . S
H1658 C1683 0.951 . S
H1659 C1685 0.950 . S
H1660 C1686 0.950 . S
H1661 C1688 0.950 . S
H1662 C1691 0.950 . S
H1663 C1692 0.955 . S
H1664 C1694 0.950 . S
H1665 C1695 0.950 . S
C1666 H1648 0.951 . S
C1666 C1667 1.366 . S
C1666 C1668 1.388 . S
C1667 C1666 1.366 . S
C1667 C1671 1.385 . S
C1668 H1649 0.951 . S
C1668 C1666 1.388 . S
C1668 C1669 1.366 . S
C1669 C1668 1.366 . S
C1669 C1670 1.414 . S
C1669 C1672 1.499 . S
C1670 H1650 0.950 . S
C1670 C1669 1.414 . S
C1670 C1671 1.374 . S
C1671 H1651 0.950 . S
C1671 C1667 1.385 . S
C1671 C1670 1.374 . S
C1672 C1669 1.499 . S
C1672 C1673 1.373 1_655 S
C1672 C1674 1.389 . S
C1673 H1652 0.950 . S
C1673 C1672 1.373 1_455 S
C1673 C1689 1.377 . S
C1674 C1672 1.389 . S
C1674 C1675 1.524 . S
C1674 C1688 1.377 . S
C1675 C1674 1.524 . S
C1675 C1676 1.397 . S
C1675 C1680 1.363 . S
C1676 H1653 0.950 . S
C1676 C1675 1.397 . S
C1676 C1677 1.334 . S
C1677 H1654 0.950 . S
C1677 C1676 1.334 . S
C1677 C1678 1.287 . S
C1678 C1677 1.287 . S
C1678 C1679 1.524 . S
C1678 H1697 0.913 . S
C1679 H1655 0.950 . S
C1679 C1678 1.524 . S
C1679 C1680 1.415 . S
C1680 H1656 0.950 . S
C1680 C1675 1.363 . S
C1680 C1679 1.415 . S
C1681 H1657 0.951 . S
C1681 C1682 1.366 . S
C1681 C1683 1.388 . S
C1682 C1681 1.366 . S
C1682 C1686 1.385 . S
C1683 H1658 0.951 . S
C1683 C1681 1.388 . S
C1683 C1684 1.366 . S
C1684 C1683 1.366 . S
C1684 C1685 1.414 . S
C1684 C1687 1.499 . S
C1685 H1659 0.950 . S
C1685 C1684 1.414 . S
C1685 C1686 1.374 . S
C1686 H1660 0.950 . S
C1686 C1682 1.385 . S
C1686 C1685 1.374 . S
C1687 C1684 1.499 . S
C1687 C1688 1.373 1_455 S
C1687 C1689 1.389 . S
C1688 H1661 0.950 . S
C1688 C1674 1.377 . S
C1688 C1687 1.373 1_655 S
C1689 C1673 1.377 . S
C1689 C1687 1.389 . S
C1689 C1690 1.524 . S
C1690 C1689 1.524 . S
C1690 C1691 1.397 . S
C1690 C1695 1.363 . S
C1691 H1662 0.950 . S
C1691 C1690 1.397 . S
C1691 C1692 1.328 1_556 S
C1692 H1663 0.955 . S
C1692 C1691 1.328 1_554 S
C1692 C1693 1.288 . S
C1693 C1692 1.288 . S
C1693 C1694 1.524 1_554 S
C1693 H1696 0.999 . S
C1694 H1664 0.950 . S
C1694 C1693 1.524 1_556 S
C1694 C1695 1.415 . S
C1695 H1665 0.950 . S
C1695 C1690 1.363 . S
C1695 C1694 1.415 . S
H1696 C1693 0.999 . S
H1697 C1678 0.913 . S
H1698 C1716 0.951 . S
H1699 C1718 0.951 . S
H1700 C1720 0.950 . S
H1701 C1721 0.950 . S
H1702 C1723 0.950 . S
H1703 C1726 0.950 . S
H1704 C1727 0.950 . S
H1705 C1729 0.950 . S
H1706 C1730 0.950 . S
H1707 C1731 0.951 . S
H1708 C1733 0.951 . S
H1709 C1735 0.950 . S
H1710 C1736 0.950 . S
H1711 C1738 0.950 . S
H1712 C1741 0.950 . S
H1713 C1742 0.950 . S
H1714 C1744 0.950 . S
H1715 C1745 0.950 . S
C1716 H1698 0.951 . S
C1716 C1717 1.366 . S
C1716 C1718 1.388 . S
C1717 C1716 1.366 . S
C1717 C1721 1.385 . S
C1718 H1699 0.951 . S
C1718 C1716 1.388 . S
C1718 C1719 1.366 . S
C1719 C1718 1.366 . S
C1719 C1720 1.414 . S
C1719 C1722 1.499 . S
C1720 H1700 0.950 . S
C1720 C1719 1.414 . S
C1720 C1721 1.374 . S
C1721 H1701 0.950 . S
C1721 C1717 1.385 . S
C1721 C1720 1.374 . S
C1722 C1719 1.499 . S
C1722 C1723 1.373 . S
C1722 C1724 1.389 . S
C1723 H1702 0.950 . S
C1723 C1722 1.373 . S
C1723 C1739 1.377 1_655 S
C1724 C1722 1.389 . S
C1724 C1725 1.524 . S
C1724 C1738 1.377 1_655 S
C1725 C1724 1.524 . S
C1725 C1726 1.397 . S
C1725 C1730 1.363 1_655 S
C1726 H1703 0.950 . S
C1726 C1725 1.397 . S
C1726 C1727 1.334 . S
C1727 H1704 0.950 . S
C1727 C1726 1.334 . S
C1727 C1728 1.287 . S
C1728 C1727 1.287 . S
C1728 C1729 1.524 1_655 S
C1728 H1747 0.913 . S
C1729 H1705 0.950 . S
C1729 C1728 1.524 1_455 S
C1729 C1730 1.415 . S
C1730 H1706 0.950 . S
C1730 C1725 1.363 1_455 S
C1730 C1729 1.415 . S
C1731 H1707 0.951 . S
C1731 C1732 1.366 . S
C1731 C1733 1.388 . S
C1732 C1731 1.366 . S
C1732 C1736 1.385 . S
C1733 H1708 0.951 . S
C1733 C1731 1.388 . S
C1733 C1734 1.366 . S
C1734 C1733 1.366 . S
C1734 C1735 1.414 . S
C1734 C1737 1.499 . S
C1735 H1709 0.950 . S
C1735 C1734 1.414 . S
C1735 C1736 1.374 . S
C1736 H1710 0.950 . S
C1736 C1732 1.385 . S
C1736 C1735 1.374 . S
C1737 C1734 1.499 . S
C1737 C1738 1.373 . S
C1737 C1739 1.389 . S
C1738 H1711 0.950 . S
C1738 C1724 1.377 1_455 S
C1738 C1737 1.373 . S
C1739 C1723 1.377 1_455 S
C1739 C1737 1.389 . S
C1739 C1740 1.524 . S
C1740 C1739 1.524 . S
C1740 C1741 1.397 . S
C1740 C1745 1.363 1_455 S
C1741 H1712 0.950 . S
C1741 C1740 1.397 . S
C1741 C1742 1.334 . S
C1742 H1713 0.950 . S
C1742 C1741 1.334 . S
C1742 C1743 1.287 . S
C1743 C1742 1.287 . S
C1743 C1744 1.524 1_455 S
C1743 H1746 0.999 . S
C1744 H1714 0.950 . S
C1744 C1743 1.524 1_655 S
C1744 C1745 1.415 . S
C1745 H1715 0.950 . S
C1745 C1740 1.363 1_655 S
C1745 C1744 1.415 . S
H1746 C1743 0.999 . S
H1747 C1728 0.913 . S
H1748 C1766 0.951 . S
H1749 C1768 0.951 . S
H1750 C1770 0.950 . S
H1751 C1771 0.950 . S
H1752 C1773 0.950 . S
H1753 C1776 0.950 . S
H1754 C1777 0.950 . S
H1755 C1779 0.950 . S
H1756 C1780 0.950 . S
H1757 C1781 0.951 . S
H1758 C1783 0.951 . S
H1759 C1785 0.950 . S
H1760 C1786 0.950 . S
H1761 C1788 0.950 . S
H1762 C1791 0.950 . S
H1763 C1792 0.950 . S
H1764 C1794 0.950 . S
H1765 C1795 0.950 . S
C1766 H1748 0.951 . S
C1766 C1767 1.366 . S
C1766 C1768 1.388 . S
C1767 C1766 1.366 . S
C1767 C1771 1.385 . S
C1768 H1749 0.951 . S
C1768 C1766 1.388 . S
C1768 C1769 1.366 . S
C1769 C1768 1.366 . S
C1769 C1770 1.414 . S
C1769 C1772 1.499 . S
C1770 H1750 0.950 . S
C1770 C1769 1.414 . S
C1770 C1771 1.374 . S
C1771 H1751 0.950 . S
C1771 C1767 1.385 . S
C1771 C1770 1.374 . S
C1772 C1769 1.499 . S
C1772 C1773 1.373 . S
C1772 C1774 1.389 . S
C1773 H1752 0.950 . S
C1773 C1772 1.373 . S
C1773 C1789 1.377 . S
C1774 C1772 1.389 . S
C1774 C1775 1.524 . S
C1774 C1788 1.377 . S
C1775 C1774 1.524 . S
C1775 C1776 1.397 . S
C1775 C1780 1.363 . S
C1776 H1753 0.950 . S
C1776 C1775 1.397 . S
C1776 C1777 1.334 . S
C1777 H1754 0.950 . S
C1777 C1776 1.334 . S
C1777 C1778 1.287 . S
C1778 C1777 1.287 . S
C1778 C1779 1.524 . S
C1778 H1797 0.913 . S
C1779 H1755 0.950 . S
C1779 C1778 1.524 . S
C1779 C1780 1.415 . S
C1780 H1756 0.950 . S
C1780 C1775 1.363 . S
C1780 C1779 1.415 . S
C1781 H1757 0.951 . S
C1781 C1782 1.366 . S
C1781 C1783 1.388 . S
C1782 C1781 1.366 . S
C1782 C1786 1.385 . S
C1783 H1758 0.951 . S
C1783 C1781 1.388 . S
C1783 C1784 1.366 . S
C1784 C1783 1.366 . S
C1784 C1785 1.414 . S
C1784 C1787 1.499 . S
C1785 H1759 0.950 . S
C1785 C1784 1.414 . S
C1785 C1786 1.374 . S
C1786 H1760 0.950 . S
C1786 C1782 1.385 . S
C1786 C1785 1.374 . S
C1787 C1784 1.499 . S
C1787 C1788 1.373 . S
C1787 C1789 1.389 . S
C1788 H1761 0.950 . S
C1788 C1774 1.377 . S
C1788 C1787 1.373 . S
C1789 C1773 1.377 . S
C1789 C1787 1.389 . S
C1789 C1790 1.524 . S
C1790 C1789 1.524 . S
C1790 C1791 1.397 . S
C1790 C1795 1.363 . S
C1791 H1762 0.950 . S
C1791 C1790 1.397 . S
C1791 C1792 1.334 . S
C1792 H1763 0.950 . S
C1792 C1791 1.334 . S
C1792 C1793 1.287 . S
C1793 C1792 1.287 . S
C1793 C1794 1.524 . S
C1793 H1796 0.999 . S
C1794 H1764 0.950 . S
C1794 C1793 1.524 . S
C1794 C1795 1.415 . S
C1795 H1765 0.950 . S
C1795 C1790 1.363 . S
C1795 C1794 1.415 . S
H1796 C1793 0.999 . S
H1797 C1778 0.913 . S
H1798 C1816 0.951 . S
H1799 C1818 0.951 . S
H1800 C1820 0.950 . S
H1801 C1821 0.950 . S
H1802 C1823 0.950 . S
H1803 C1826 0.950 . S
H1804 C1827 0.950 . S
H1805 C1829 0.950 . S
H1806 C1830 0.950 . S
H1807 C1831 0.951 . S
H1808 C1833 0.951 . S
H1809 C1835 0.950 . S
H1810 C1836 0.950 . S
H1811 C1838 0.950 . S
H1812 C1841 0.950 . S
H1813 C1842 0.950 . S
H1814 C1844 0.950 . S
H1815 C1845 0.950 . S
C1816 H1798 0.951 . S
C1816 C1817 1.366 . S
C1816 C1818 1.388 . S
C1817 C1816 1.366 . S
C1817 C1821 1.385 . S
C1818 H1799 0.951 . S
C1818 C1816 1.388 . S
C1818 C1819 1.366 . S
C1819 C1818 1.366 . S
C1819 C1820 1.414 . S
C1819 C1822 1.499 . S
C1820 H1800 0.950 . S
C1820 C1819 1.414 . S
C1820 C1821 1.374 . S
C1821 H1801 0.950 . S
C1821 C1817 1.385 . S
C1821 C1820 1.374 . S
C1822 C1819 1.499 . S
C1822 C1823 1.373 . S
C1822 C1824 1.389 . S
C1823 H1802 0.950 . S
C1823 C1822 1.373 . S
C1823 C1839 1.377 . S
C1824 C1822 1.389 . S
C1824 C1825 1.524 . S
C1824 C1838 1.377 . S
C1825 C1824 1.524 . S
C1825 C1826 1.397 . S
C1825 C1830 1.363 . S
C1826 H1803 0.950 . S
C1826 C1825 1.397 . S
C1826 C1827 1.334 . S
C1827 H1804 0.950 . S
C1827 C1826 1.334 . S
C1827 C1828 1.287 . S
C1828 C1827 1.287 . S
C1828 C1829 1.524 . S
C1828 H1847 0.913 . S
C1829 H1805 0.950 . S
C1829 C1828 1.524 . S
C1829 C1830 1.415 . S
C1830 H1806 0.950 . S
C1830 C1825 1.363 . S
C1830 C1829 1.415 . S
C1831 H1807 0.951 . S
C1831 C1832 1.366 . S
C1831 C1833 1.388 . S
C1832 C1831 1.366 . S
C1832 C1836 1.385 . S
C1833 H1808 0.951 . S
C1833 C1831 1.388 . S
C1833 C1834 1.366 . S
C1834 C1833 1.366 . S
C1834 C1835 1.414 . S
C1834 C1837 1.499 . S
C1835 H1809 0.950 . S
C1835 C1834 1.414 . S
C1835 C1836 1.374 . S
C1836 H1810 0.950 . S
C1836 C1832 1.385 . S
C1836 C1835 1.374 . S
C1837 C1834 1.499 . S
C1837 C1838 1.373 . S
C1837 C1839 1.389 . S
C1838 H1811 0.950 . S
C1838 C1824 1.377 . S
C1838 C1837 1.373 . S
C1839 C1823 1.377 . S
C1839 C1837 1.389 . S
C1839 C1840 1.524 . S
C1840 C1839 1.524 . S
C1840 C1841 1.397 . S
C1840 C1845 1.363 . S
C1841 H1812 0.950 . S
C1841 C1840 1.397 . S
C1841 C1842 1.334 . S
C1842 H1813 0.950 . S
C1842 C1841 1.334 . S
C1842 C1843 1.287 . S
C1843 C1842 1.287 . S
C1843 C1844 1.524 . S
C1843 H1846 0.999 . S
C1844 H1814 0.950 . S
C1844 C1843 1.524 . S
C1844 C1845 1.415 . S
C1845 H1815 0.950 . S
C1845 C1840 1.363 . S
C1845 C1844 1.415 . S
H1846 C1843 0.999 . S
H1847 C1828 0.913 . S
H1848 C1866 0.951 . S
H1849 C1868 0.951 . S
H1850 C1870 0.950 . S
H1851 C1871 0.950 . S
H1852 C1873 0.950 . S
H1853 C1876 0.950 . S
H1854 C1877 0.950 . S
H1855 C1879 0.950 . S
H1856 C1880 0.950 . S
H1857 C1881 0.951 . S
H1858 C1883 0.951 . S
H1859 C1885 0.950 . S
H1860 C1886 0.950 . S
H1861 C1888 0.950 . S
H1862 C1891 0.950 . S
H1863 C1892 0.950 . S
H1864 C1894 0.950 . S
H1865 C1895 0.950 . S
C1866 H1848 0.951 . S
C1866 C1867 1.366 . S
C1866 C1868 1.388 . S
C1867 C1866 1.366 . S
C1867 C1871 1.385 . S
C1868 H1849 0.951 . S
C1868 C1866 1.388 . S
C1868 C1869 1.366 . S
C1869 C1868 1.366 . S
C1869 C1870 1.414 . S
C1869 C1872 1.499 . S
C1870 H1850 0.950 . S
C1870 C1869 1.414 . S
C1870 C1871 1.374 . S
C1871 H1851 0.950 . S
C1871 C1867 1.385 . S
C1871 C1870 1.374 . S
C1872 C1869 1.499 . S
C1872 C1873 1.373 . S
C1872 C1874 1.421 . S
C1873 H1852 0.950 . S
C1873 C1872 1.373 . S
C1873 C1889 1.344 1_655 S
C1874 C1872 1.421 . S
C1874 C1875 1.527 . S
C1874 C1888 1.344 1_655 S
C1875 C1874 1.527 . S
C1875 C1876 1.397 . S
C1875 C1880 1.363 1_655 S
C1876 H1853 0.950 . S
C1876 C1875 1.397 . S
C1876 C1877 1.334 . S
C1877 H1854 0.950 . S
C1877 C1876 1.334 . S
C1877 C1878 1.287 . S
C1878 C1877 1.287 . S
C1878 C1879 1.524 1_655 S
C1878 H1897 0.913 . S
C1879 H1855 0.950 . S
C1879 C1878 1.524 1_455 S
C1879 C1880 1.415 . S
C1880 H1856 0.950 . S
C1880 C1875 1.363 1_455 S
C1880 C1879 1.415 . S
C1881 H1857 0.951 . S
C1881 C1882 1.366 . S
C1881 C1883 1.388 . S
C1882 C1881 1.366 . S
C1882 C1886 1.385 . S
C1883 H1858 0.951 . S
C1883 C1881 1.388 . S
C1883 C1884 1.366 . S
C1884 C1883 1.366 . S
C1884 C1885 1.414 . S
C1884 C1887 1.499 . S
C1885 H1859 0.950 . S
C1885 C1884 1.414 . S
C1885 C1886 1.374 . S
C1886 H1860 0.950 . S
C1886 C1882 1.385 . S
C1886 C1885 1.374 . S
C1887 C1884 1.499 . S
C1887 C1888 1.373 . S
C1887 C1889 1.421 . S
C1888 H1861 0.950 . S
C1888 C1874 1.344 1_455 S
C1888 C1887 1.373 . S
C1889 C1873 1.344 1_455 S
C1889 C1887 1.421 . S
C1889 C1890 1.527 . S
C1890 C1889 1.527 . S
C1890 C1891 1.397 . S
C1890 C1895 1.363 1_455 S
C1891 H1862 0.950 . S
C1891 C1890 1.397 . S
C1891 C1892 1.334 . S
C1892 H1863 0.950 . S
C1892 C1891 1.334 . S
C1892 C1893 1.287 . S
C1893 C1892 1.287 . S
C1893 C1894 1.524 1_455 S
C1893 H1896 0.999 . S
C1894 H1864 0.950 . S
C1894 C1893 1.524 1_655 S
C1894 C1895 1.415 . S
C1895 H1865 0.950 . S
C1895 C1890 1.363 1_655 S
C1895 C1894 1.415 . S
H1896 C1893 0.999 . S
H1897 C1878 0.913 . S
H1898 C1916 0.951 . S
H1899 C1918 0.951 . S
H1900 C1920 0.950 . S
H1901 C1921 0.950 . S
H1902 C1923 0.950 . S
H1903 C1926 0.950 . S
H1904 C1927 0.950 . S
H1905 C1929 0.950 . S
H1906 C1930 0.950 . S
H1907 C1931 0.951 . S
H1908 C1933 0.951 . S
H1909 C1935 0.950 . S
H1910 C1936 0.950 . S
H1911 C1938 0.950 . S
H1912 C1941 0.950 . S
H1913 C1942 0.950 . S
H1914 C1944 0.950 . S
H1915 C1945 0.950 . S
C1916 H1898 0.951 . S
C1916 C1917 1.366 . S
C1916 C1918 1.388 . S
C1917 C1916 1.366 . S
C1917 C1921 1.385 . S
C1918 H1899 0.951 . S
C1918 C1916 1.388 . S
C1918 C1919 1.366 . S
C1919 C1918 1.366 . S
C1919 C1920 1.414 . S
C1919 C1922 1.499 . S
C1920 H1900 0.950 . S
C1920 C1919 1.414 . S
C1920 C1921 1.374 . S
C1921 H1901 0.950 . S
C1921 C1917 1.385 . S
C1921 C1920 1.374 . S
C1922 C1919 1.499 . S
C1922 C1923 1.373 . S
C1922 C1924 1.389 . S
C1923 H1902 0.950 . S
C1923 C1922 1.373 . S
C1923 C1939 1.377 . S
C1924 C1922 1.389 . S
C1924 C1925 1.524 . S
C1924 C1938 1.377 . S
C1925 C1924 1.524 . S
C1925 C1926 1.397 . S
C1925 C1930 1.363 . S
C1926 H1903 0.950 . S
C1926 C1925 1.397 . S
C1926 C1927 1.334 . S
C1927 H1904 0.950 . S
C1927 C1926 1.334 . S
C1927 C1928 1.287 . S
C1928 C1927 1.287 . S
C1928 C1929 1.524 . S
C1928 H1947 0.913 . S
C1929 H1905 0.950 . S
C1929 C1928 1.524 . S
C1929 C1930 1.415 . S
C1930 H1906 0.950 . S
C1930 C1925 1.363 . S
C1930 C1929 1.415 . S
C1931 H1907 0.951 . S
C1931 C1932 1.366 . S
C1931 C1933 1.388 . S
C1932 C1931 1.366 . S
C1932 C1936 1.385 . S
C1933 H1908 0.951 . S
C1933 C1931 1.388 . S
C1933 C1934 1.366 . S
C1934 C1933 1.366 . S
C1934 C1935 1.414 . S
C1934 C1937 1.499 . S
C1935 H1909 0.950 . S
C1935 C1934 1.414 . S
C1935 C1936 1.374 . S
C1936 H1910 0.950 . S
C1936 C1932 1.385 . S
C1936 C1935 1.374 . S
C1937 C1934 1.499 . S
C1937 C1938 1.373 . S
C1937 C1939 1.389 . S
C1938 H1911 0.950 . S
C1938 C1924 1.377 . S
C1938 C1937 1.373 . S
C1939 C1923 1.377 . S
C1939 C1937 1.389 . S
C1939 C1940 1.524 . S
C1940 C1939 1.524 . S
C1940 C1941 1.397 . S
C1940 C1945 1.363 . S
C1941 H1912 0.950 . S
C1941 C1940 1.397 . S
C1941 C1942 1.334 . S
C1942 H1913 0.950 . S
C1942 C1941 1.334 . S
C1942 C1943 1.287 . S
C1943 C1942 1.287 . S
C1943 C1944 1.524 . S
C1943 H1946 0.999 . S
C1944 H1914 0.950 . S
C1944 C1943 1.524 . S
C1944 C1945 1.415 . S
C1945 H1915 0.950 . S
C1945 C1940 1.363 . S
C1945 C1944 1.415 . S
H1946 C1943 0.999 . S
H1947 C1928 0.913 . S
H1948 C1966 0.951 . S
H1949 C1968 0.951 . S
H1950 C1970 0.950 . S
H1951 C1971 0.950 . S
H1952 C1973 0.950 . S
H1953 C1976 0.950 . S
H1954 C1977 0.950 . S
H1955 C1979 0.950 . S
H1956 C1980 0.950 . S
H1957 C1981 0.951 . S
H1958 C1983 0.951 . S
H1959 C1985 0.950 . S
H1960 C1986 0.950 . S
H1961 C1988 0.950 . S
H1962 C1991 0.950 . S
H1963 C1992 0.950 . S
H1964 C1994 0.950 . S
H1965 C1995 0.950 . S
C1966 H1948 0.951 . S
C1966 C1967 1.366 . S
C1966 C1968 1.388 . S
C1967 C1966 1.366 . S
C1967 C1971 1.385 . S
C1968 H1949 0.951 . S
C1968 C1966 1.388 . S
C1968 C1969 1.366 . S
C1969 C1968 1.366 . S
C1969 C1970 1.414 . S
C1969 C1972 1.499 . S
C1970 H1950 0.950 . S
C1970 C1969 1.414 . S
C1970 C1971 1.374 . S
C1971 H1951 0.950 . S
C1971 C1967 1.385 . S
C1971 C1970 1.374 . S
C1972 C1969 1.499 . S
C1972 C1973 1.373 . S
C1972 C1974 1.389 . S
C1973 H1952 0.950 . S
C1973 C1972 1.373 . S
C1973 C1989 1.377 . S
C1974 C1972 1.389 . S
C1974 C1975 1.524 . S
C1974 C1988 1.377 . S
C1975 C1974 1.524 . S
C1975 C1976 1.397 . S
C1975 C1980 1.363 . S
C1976 H1953 0.950 . S
C1976 C1975 1.397 . S
C1976 C1977 1.334 1_554 S
C1977 H1954 0.950 . S
C1977 C1976 1.334 1_556 S
C1977 C1978 1.287 . S
C1978 C1977 1.287 . S
C1978 C1979 1.524 . S
C1978 H1997 0.913 . S
C1979 H1955 0.950 . S
C1979 C1978 1.524 . S
C1979 C1980 1.415 1_556 S
C1980 H1956 0.950 . S
C1980 C1975 1.363 . S
C1980 C1979 1.415 1_554 S
C1981 H1957 0.951 . S
C1981 C1982 1.366 . S
C1981 C1983 1.388 . S
C1982 C1981 1.366 . S
C1982 C1986 1.385 . S
C1983 H1958 0.951 . S
C1983 C1981 1.388 . S
C1983 C1984 1.366 . S
C1984 C1983 1.366 . S
C1984 C1985 1.414 . S
C1984 C1987 1.499 . S
C1985 H1959 0.950 . S
C1985 C1984 1.414 . S
C1985 C1986 1.374 . S
C1986 H1960 0.950 . S
C1986 C1982 1.385 . S
C1986 C1985 1.374 . S
C1987 C1984 1.499 . S
C1987 C1988 1.373 . S
C1987 C1989 1.389 . S
C1988 H1961 0.950 . S
C1988 C1974 1.377 . S
C1988 C1987 1.373 . S
C1989 C1973 1.377 . S
C1989 C1987 1.389 . S
C1989 C1990 1.524 . S
C1990 C1989 1.524 . S
C1990 C1991 1.397 . S
C1990 C1995 1.363 . S
C1991 H1962 0.950 . S
C1991 C1990 1.397 . S
C1991 C1992 1.334 . S
C1992 H1963 0.950 . S
C1992 C1991 1.334 . S
C1992 C1993 1.287 . S
C1993 C1992 1.287 . S
C1993 C1994 1.524 . S
C1993 H1996 0.999 . S
C1994 H1964 0.950 . S
C1994 C1993 1.524 . S
C1994 C1995 1.415 . S
C1995 H1965 0.950 . S
C1995 C1990 1.363 . S
C1995 C1994 1.415 . S
H1996 C1993 0.999 . S
H1997 C1978 0.913 . S
H1998 C2016 0.951 . S
H1999 C2018 0.951 . S
H2000 C2020 0.950 . S
H2001 C2021 0.950 . S
H2002 C2023 0.950 . S
H2003 C2026 0.950 . S
H2004 C2027 0.950 . S
H2005 C2029 0.950 . S
H2006 C2030 0.950 . S
H2007 C2031 0.951 . S
H2008 C2033 0.951 . S
H2009 C2035 0.950 . S
H2010 C2036 0.950 . S
H2011 C2038 0.950 . S
H2012 C2041 0.950 . S
H2013 C2042 0.950 . S
H2014 C2044 0.950 . S
H2015 C2045 0.950 . S
C2016 H1998 0.951 . S
C2016 C2017 1.366 . S
C2016 C2018 1.388 . S
C2017 C2016 1.366 . S
C2017 C2021 1.385 . S
C2018 H1999 0.951 . S
C2018 C2016 1.388 . S
C2018 C2019 1.366 . S
C2019 C2018 1.366 . S
C2019 C2020 1.414 . S
C2019 C2022 1.499 . S
C2020 H2000 0.950 . S
C2020 C2019 1.414 . S
C2020 C2021 1.374 . S
C2021 H2001 0.950 . S
C2021 C2017 1.385 . S
C2021 C2020 1.374 . S
C2022 C2019 1.499 . S
C2022 C2023 1.373 1_655 S
C2022 C2024 1.389 . S
C2023 H2002 0.950 . S
C2023 C2022 1.373 1_455 S
C2023 C2039 1.377 . S
C2024 C2022 1.389 . S
C2024 C2025 1.524 . S
C2024 C2038 1.377 . S
C2025 C2024 1.524 . S
C2025 C2026 1.397 . S
C2025 C2030 1.363 . S
C2026 H2003 0.950 . S
C2026 C2025 1.397 . S
C2026 C2027 1.334 . S
C2027 H2004 0.950 . S
C2027 C2026 1.334 . S
C2027 C2028 1.287 . S
C2028 C2027 1.287 . S
C2028 C2029 1.524 . S
C2028 H2047 0.913 . S
C2029 H2005 0.950 . S
C2029 C2028 1.524 . S
C2029 C2030 1.415 . S
C2030 H2006 0.950 . S
C2030 C2025 1.363 . S
C2030 C2029 1.415 . S
C2031 H2007 0.951 . S
C2031 C2032 1.366 . S
C2031 C2033 1.388 . S
C2032 C2031 1.366 . S
C2032 C2036 1.385 . S
C2033 H2008 0.951 . S
C2033 C2031 1.388 . S
C2033 C2034 1.366 . S
C2034 C2033 1.366 . S
C2034 C2035 1.414 . S
C2034 C2037 1.499 . S
C2035 H2009 0.950 . S
C2035 C2034 1.414 . S
C2035 C2036 1.374 . S
C2036 H2010 0.950 . S
C2036 C2032 1.385 . S
C2036 C2035 1.374 . S
C2037 C2034 1.499 . S
C2037 C2038 1.373 1_455 S
C2037 C2039 1.389 . S
C2038 H2011 0.950 . S
C2038 C2024 1.377 . S
C2038 C2037 1.373 1_655 S
C2039 C2023 1.377 . S
C2039 C2037 1.389 . S
C2039 C2040 1.524 . S
C2040 C2039 1.524 . S
C2040 C2041 1.397 . S
C2040 C2045 1.363 . S
C2041 H2012 0.950 . S
C2041 C2040 1.397 . S
C2041 C2042 1.334 . S
C2042 H2013 0.950 . S
C2042 C2041 1.334 . S
C2042 C2043 1.287 . S
C2043 C2042 1.287 . S
C2043 C2044 1.524 . S
C2043 H2046 0.999 . S
C2044 H2014 0.950 . S
C2044 C2043 1.524 . S
C2044 C2045 1.415 . S
C2045 H2015 0.950 . S
C2045 C2040 1.363 . S
C2045 C2044 1.415 . S
H2046 C2043 0.999 . S
H2047 C2028 0.913 . S
H2048 C2066 0.951 . S
H2049 C2068 0.951 1_554 S
H2050 C2070 0.950 . S
H2051 C2071 0.950 . S
H2052 C2073 0.950 . S
H2053 C2076 1.000 . S
H2054 C2077 0.950 . S
H2055 C2079 0.950 . S
H2056 C2080 0.950 . S
H2057 C2081 0.951 . S
H2058 C2083 0.951 1_556 S
H2059 C2085 0.950 . S
H2060 C2086 0.950 . S
H2061 C2088 0.950 . S
H2062 C2091 1.000 . S
H2063 C2092 0.950 . S
H2064 C2094 0.950 . S
H2065 C2095 0.950 . S
C2066 H2048 0.951 . S
C2066 C2067 1.366 . S
C2066 C2068 1.388 . S
C2067 C2066 1.366 . S
C2067 C2071 1.385 . S
C2068 H2049 0.951 1_556 S
C2068 C2066 1.388 . S
C2068 C2069 1.366 . S
C2069 C2068 1.366 . S
C2069 C2070 1.414 . S
C2069 C2072 1.499 . S
C2070 H2050 0.950 . S
C2070 C2069 1.414 . S
C2070 C2071 1.374 . S
C2071 H2051 0.950 . S
C2071 C2067 1.385 . S
C2071 C2070 1.374 . S
C2072 C2069 1.499 . S
C2072 C2073 1.373 . S
C2072 C2074 1.389 1_556 S
C2073 H2052 0.950 . S
C2073 C2072 1.373 . S
C2073 C2089 1.377 . S
C2074 C2072 1.389 1_554 S
C2074 C2075 1.524 . S
C2074 C2088 1.377 . S
C2075 C2074 1.524 . S
C2075 C2076 1.397 . S
C2075 C2080 1.363 . S
C2076 H2053 1.000 . S
C2076 C2075 1.397 . S
C2076 C2077 1.334 . S
C2077 H2054 0.950 . S
C2077 C2076 1.334 . S
C2077 C2078 1.287 . S
C2078 C2077 1.287 . S
C2078 C2079 1.524 . S
C2078 H2097 0.913 . S
C2079 H2055 0.950 . S
C2079 C2078 1.524 . S
C2079 C2080 1.415 . S
C2080 H2056 0.950 . S
C2080 C2075 1.363 . S
C2080 C2079 1.415 . S
C2081 H2057 0.951 . S
C2081 C2082 1.366 . S
C2081 C2083 1.388 . S
C2082 C2081 1.366 . S
C2082 C2086 1.385 . S
C2083 H2058 0.951 1_554 S
C2083 C2081 1.388 . S
C2083 C2084 1.366 . S
C2084 C2083 1.366 . S
C2084 C2085 1.414 . S
C2084 C2087 1.499 . S
C2085 H2059 0.950 . S
C2085 C2084 1.414 . S
C2085 C2086 1.374 . S
C2086 H2060 0.950 . S
C2086 C2082 1.385 . S
C2086 C2085 1.374 . S
C2087 C2084 1.499 . S
C2087 C2088 1.373 . S
C2087 C2089 1.389 1_554 S
C2088 H2061 0.950 . S
C2088 C2074 1.377 . S
C2088 C2087 1.373 . S
C2089 C2073 1.377 . S
C2089 C2087 1.389 1_556 S
C2089 C2090 1.524 . S
C2090 C2089 1.524 . S
C2090 C2091 1.397 . S
C2090 C2095 1.363 . S
C2091 H2062 1.000 . S
C2091 C2090 1.397 . S
C2091 C2092 1.334 . S
C2092 H2063 0.950 . S
C2092 C2091 1.334 . S
C2092 C2093 1.287 . S
C2093 C2092 1.287 . S
C2093 C2094 1.524 . S
C2093 H2096 0.999 . S
C2094 H2064 0.950 . S
C2094 C2093 1.524 . S
C2094 C2095 1.415 . S
C2095 H2065 0.950 . S
C2095 C2090 1.363 . S
C2095 C2094 1.415 . S
H2096 C2093 0.999 . S
H2097 C2078 0.913 . S
H2098 C2116 0.951 . S
H2099 C2118 0.951 . S
H2100 C2120 0.950 . S
H2101 C2121 0.950 . S
H2102 C2123 0.950 . S
H2103 C2126 0.950 . S
H2104 C2127 0.950 . S
H2105 C2129 0.950 . S
H2106 C2130 0.950 1_565 S
H2107 C2131 0.951 . S
H2108 C2133 0.951 . S
H2109 C2135 0.950 . S
H2110 C2136 0.950 . S
H2111 C2138 0.950 . S
H2112 C2141 0.950 . S
H2113 C2142 0.950 . S
H2114 C2144 0.950 . S
H2115 C2145 0.950 1_545 S
C2116 H2098 0.951 . S
C2116 C2117 1.366 . S
C2116 C2118 1.388 . S
C2117 C2116 1.366 . S
C2117 C2121 1.385 . S
C2118 H2099 0.951 . S
C2118 C2116 1.388 . S
C2118 C2119 1.366 . S
C2119 C2118 1.366 . S
C2119 C2120 1.414 . S
C2119 C2122 1.499 . S
C2120 H2100 0.950 . S
C2120 C2119 1.414 . S
C2120 C2121 1.374 . S
C2121 H2101 0.950 . S
C2121 C2117 1.385 . S
C2121 C2120 1.374 . S
C2122 C2119 1.499 . S
C2122 C2123 1.373 . S
C2122 C2124 1.389 . S
C2123 H2102 0.950 . S
C2123 C2122 1.373 . S
C2123 C2139 1.377 1_545 S
C2124 C2122 1.389 . S
C2124 C2125 1.524 . S
C2124 C2138 1.377 1_545 S
C2125 C2124 1.524 . S
C2125 C2126 1.397 . S
C2125 C2130 1.363 . S
C2126 H2103 0.950 . S
C2126 C2125 1.397 . S
C2126 C2127 1.334 . S
C2127 H2104 0.950 . S
C2127 C2126 1.334 . S
C2127 C2128 1.287 . S
C2128 C2127 1.287 . S
C2128 C2129 1.524 . S
C2128 H2147 0.913 . S
C2129 H2105 0.950 . S
C2129 C2128 1.524 . S
C2129 C2130 1.415 . S
C2130 H2106 0.950 1_545 S
C2130 C2125 1.363 . S
C2130 C2129 1.415 . S
C2131 H2107 0.951 . S
C2131 C2132 1.366 . S
C2131 C2133 1.388 . S
C2132 C2131 1.366 . S
C2132 C2136 1.385 . S
C2133 H2108 0.951 . S
C2133 C2131 1.388 . S
C2133 C2134 1.366 . S
C2134 C2133 1.366 . S
C2134 C2135 1.414 . S
C2134 C2137 1.499 . S
C2135 H2109 0.950 . S
C2135 C2134 1.414 . S
C2135 C2136 1.374 . S
C2136 H2110 0.950 . S
C2136 C2132 1.385 . S
C2136 C2135 1.374 . S
C2137 C2134 1.499 . S
C2137 C2138 1.373 . S
C2137 C2139 1.389 . S
C2138 H2111 0.950 . S
C2138 C2124 1.377 1_565 S
C2138 C2137 1.373 . S
C2139 C2123 1.377 1_565 S
C2139 C2137 1.389 . S
C2139 C2140 1.524 . S
C2140 C2139 1.524 . S
C2140 C2141 1.397 . S
C2140 C2145 1.363 . S
C2141 H2112 0.950 . S
C2141 C2140 1.397 . S
C2141 C2142 1.334 . S
C2142 H2113 0.950 . S
C2142 C2141 1.334 . S
C2142 C2143 1.287 . S
C2143 C2142 1.287 . S
C2143 C2144 1.524 . S
C2143 H2146 0.999 . S
C2144 H2114 0.950 . S
C2144 C2143 1.524 . S
C2144 C2145 1.415 . S
C2145 H2115 0.950 1_565 S
C2145 C2140 1.363 . S
C2145 C2144 1.415 . S
H2146 C2143 0.999 . S
H2147 C2128 0.913 . S
H2148 C2166 0.951 . S
H2149 C2168 0.951 . S
H2150 C2170 0.950 . S
H2151 C2171 0.950 . S
H2152 C2173 0.950 . S
H2153 C2176 0.950 . S
H2154 C2177 0.950 . S
H2155 C2179 0.950 . S
H2156 C2180 0.950 . S
H2157 C2181 0.951 . S
H2158 C2183 0.951 . S
H2159 C2185 0.950 . S
H2160 C2186 0.950 . S
H2161 C2188 0.950 . S
H2162 C2191 0.950 . S
H2163 C2192 0.950 . S
H2164 C2194 0.950 . S
H2165 C2195 0.950 . S
C2166 H2148 0.951 . S
C2166 C2167 1.366 . S
C2166 C2168 1.388 . S
C2167 C2166 1.366 . S
C2167 C2171 1.385 . S
C2168 H2149 0.951 . S
C2168 C2166 1.388 . S
C2168 C2169 1.366 . S
C2169 C2168 1.366 . S
C2169 C2170 1.414 . S
C2169 C2172 1.499 . S
C2170 H2150 0.950 . S
C2170 C2169 1.414 . S
C2170 C2171 1.374 . S
C2171 H2151 0.950 . S
C2171 C2167 1.385 . S
C2171 C2170 1.374 . S
C2172 C2169 1.499 . S
C2172 C2173 1.373 . S
C2172 C2174 1.389 . S
C2173 H2152 0.950 . S
C2173 C2172 1.373 . S
C2173 C2189 1.377 . S
C2174 C2172 1.389 . S
C2174 C2175 1.524 . S
C2174 C2188 1.377 . S
C2175 C2174 1.524 . S
C2175 C2176 1.397 . S
C2175 C2180 1.363 . S
C2176 H2153 0.950 . S
C2176 C2175 1.397 . S
C2176 C2177 1.334 . S
C2177 H2154 0.950 . S
C2177 C2176 1.334 . S
C2177 C2178 1.287 . S
C2178 C2177 1.287 . S
C2178 C2179 1.524 . S
C2178 H2197 0.913 . S
C2179 H2155 0.950 . S
C2179 C2178 1.524 . S
C2179 C2180 1.415 . S
C2180 H2156 0.950 . S
C2180 C2175 1.363 . S
C2180 C2179 1.415 . S
C2181 H2157 0.951 . S
C2181 C2182 1.366 . S
C2181 C2183 1.388 . S
C2182 C2181 1.366 . S
C2182 C2186 1.385 . S
C2183 H2158 0.951 . S
C2183 C2181 1.388 . S
C2183 C2184 1.366 . S
C2184 C2183 1.366 . S
C2184 C2185 1.414 . S
C2184 C2187 1.499 . S
C2185 H2159 0.950 . S
C2185 C2184 1.414 . S
C2185 C2186 1.374 . S
C2186 H2160 0.950 . S
C2186 C2182 1.385 . S
C2186 C2185 1.374 . S
C2187 C2184 1.499 . S
C2187 C2188 1.373 . S
C2187 C2189 1.389 . S
C2188 H2161 0.950 . S
C2188 C2174 1.377 . S
C2188 C2187 1.373 . S
C2189 C2173 1.377 . S
C2189 C2187 1.389 . S
C2189 C2190 1.524 . S
C2190 C2189 1.524 . S
C2190 C2191 1.397 . S
C2190 C2195 1.363 . S
C2191 H2162 0.950 . S
C2191 C2190 1.397 . S
C2191 C2192 1.334 . S
C2192 H2163 0.950 . S
C2192 C2191 1.334 . S
C2192 C2193 1.287 . S
C2193 C2192 1.287 . S
C2193 C2194 1.524 . S
C2193 H2196 0.999 . S
C2194 H2164 0.950 . S
C2194 C2193 1.524 . S
C2194 C2195 1.415 . S
C2195 H2165 0.950 . S
C2195 C2190 1.363 . S
C2195 C2194 1.415 . S
H2196 C2193 0.999 . S
H2197 C2178 0.913 . S
H2198 C2216 0.951 . S
H2199 C2218 0.951 . S
H2200 C2220 0.950 . S
H2201 C2221 0.950 . S
H2202 C2223 0.950 . S
H2203 C2226 0.950 . S
H2204 C2227 0.950 . S
H2205 C2229 0.950 . S
H2206 C2230 0.950 . S
H2207 C2231 0.951 . S
H2208 C2233 0.951 . S
H2209 C2235 0.950 . S
H2210 C2236 0.950 . S
H2211 C2238 0.950 . S
H2212 C2241 0.950 . S
H2213 C2242 0.950 . S
H2214 C2244 0.950 . S
H2215 C2245 0.950 . S
C2216 H2198 0.951 . S
C2216 C2217 1.366 . S
C2216 C2218 1.388 . S
C2217 C2216 1.366 . S
C2217 C2221 1.385 . S
C2218 H2199 0.951 . S
C2218 C2216 1.388 . S
C2218 C2219 1.366 . S
C2219 C2218 1.366 . S
C2219 C2220 1.414 . S
C2219 C2222 1.499 . S
C2220 H2200 0.950 . S
C2220 C2219 1.414 . S
C2220 C2221 1.374 . S
C2221 H2201 0.950 . S
C2221 C2217 1.385 . S
C2221 C2220 1.374 . S
C2222 C2219 1.499 . S
C2222 C2223 1.373 . S
C2222 C2224 1.389 . S
C2223 H2202 0.950 . S
C2223 C2222 1.373 . S
C2223 C2239 1.377 1_545 S
C2224 C2222 1.389 . S
C2224 C2225 1.524 . S
C2224 C2238 1.377 1_545 S
C2225 C2224 1.524 . S
C2225 C2226 1.397 . S
C2225 C2230 1.363 1_545 S
C2226 H2203 0.950 . S
C2226 C2225 1.397 . S
C2226 C2227 1.334 . S
C2227 H2204 0.950 . S
C2227 C2226 1.334 . S
C2227 C2228 1.287 . S
C2228 C2227 1.287 . S
C2228 C2229 1.524 1_545 S
C2228 H2247 0.913 . S
C2229 H2205 0.950 . S
C2229 C2228 1.524 1_565 S
C2229 C2230 1.415 . S
C2230 H2206 0.950 . S
C2230 C2225 1.363 1_565 S
C2230 C2229 1.415 . S
C2231 H2207 0.951 . S
C2231 C2232 1.366 . S
C2231 C2233 1.388 . S
C2232 C2231 1.366 . S
C2232 C2236 1.385 . S
C2233 H2208 0.951 . S
C2233 C2231 1.388 . S
C2233 C2234 1.366 . S
C2234 C2233 1.366 . S
C2234 C2235 1.414 . S
C2234 C2237 1.499 . S
C2235 H2209 0.950 . S
C2235 C2234 1.414 . S
C2235 C2236 1.374 . S
C2236 H2210 0.950 . S
C2236 C2232 1.385 . S
C2236 C2235 1.374 . S
C2237 C2234 1.499 . S
C2237 C2238 1.373 . S
C2237 C2239 1.389 . S
C2238 H2211 0.950 . S
C2238 C2224 1.377 1_565 S
C2238 C2237 1.373 . S
C2239 C2223 1.377 1_565 S
C2239 C2237 1.389 . S
C2239 C2240 1.524 . S
C2240 C2239 1.524 . S
C2240 C2241 1.397 . S
C2240 C2245 1.363 1_565 S
C2241 H2212 0.950 . S
C2241 C2240 1.397 . S
C2241 C2242 1.334 . S
C2242 H2213 0.950 . S
C2242 C2241 1.334 . S
C2242 C2243 1.287 . S
C2243 C2242 1.287 . S
C2243 C2244 1.524 1_565 S
C2243 H2246 0.999 . S
C2244 H2214 0.950 . S
C2244 C2243 1.524 1_545 S
C2244 C2245 1.415 . S
C2245 H2215 0.950 . S
C2245 C2240 1.363 1_545 S
C2245 C2244 1.415 . S
H2246 C2243 0.999 . S
H2247 C2228 0.913 . S
H2248 C2266 0.951 . S
H2249 C2268 0.951 1_556 S
H2250 C2270 0.950 . S
H2251 C2271 0.950 . S
H2252 C2273 0.950 . S
H2253 C2276 0.950 1_554 S
H2254 C2277 0.950 . S
H2255 C2279 0.950 . S
H2256 C2280 0.950 . S
H2257 C2281 0.951 . S
H2258 C2283 0.951 1_554 S
H2259 C2285 0.950 . S
H2260 C2286 0.950 . S
H2261 C2288 0.950 . S
H2262 C2291 0.950 1_556 S
H2263 C2292 0.950 . S
H2264 C2294 0.950 . S
H2265 C2295 0.950 . S
C2266 H2248 0.951 . S
C2266 C2267 1.366 . S
C2266 C2268 1.388 . S
C2267 C2266 1.366 . S
C2267 C2271 1.385 . S
C2268 H2249 0.951 1_554 S
C2268 C2266 1.388 . S
C2268 C2269 1.366 . S
C2269 C2268 1.366 . S
C2269 C2270 1.414 . S
C2269 C2272 1.499 . S
C2270 H2250 0.950 . S
C2270 C2269 1.414 . S
C2270 C2271 1.374 . S
C2271 H2251 0.950 . S
C2271 C2267 1.385 . S
C2271 C2270 1.374 . S
C2272 C2269 1.499 . S
C2272 C2273 1.373 . S
C2272 C2274 1.389 1_554 S
C2273 H2252 0.950 . S
C2273 C2272 1.373 . S
C2273 C2289 1.377 . S
C2274 C2272 1.389 1_556 S
C2274 C2275 1.524 . S
C2274 C2288 1.377 . S
C2275 C2274 1.524 . S
C2275 C2276 1.397 . S
C2275 C2280 1.363 . S
C2276 H2253 0.950 1_556 S
C2276 C2275 1.397 . S
C2276 C2277 1.334 . S
C2277 H2254 0.950 . S
C2277 C2276 1.334 . S
C2277 C2278 1.287 . S
C2278 C2277 1.287 . S
C2278 C2279 1.524 . S
C2278 H2297 0.913 . S
C2279 H2255 0.950 . S
C2279 C2278 1.524 . S
C2279 C2280 1.415 . S
C2280 H2256 0.950 . S
C2280 C2275 1.363 . S
C2280 C2279 1.415 . S
C2281 H2257 0.951 . S
C2281 C2282 1.366 . S
C2281 C2283 1.388 . S
C2282 C2281 1.366 . S
C2282 C2286 1.385 . S
C2283 H2258 0.951 1_556 S
C2283 C2281 1.388 . S
C2283 C2284 1.366 . S
C2284 C2283 1.366 . S
C2284 C2285 1.414 . S
C2284 C2287 1.499 . S
C2285 H2259 0.950 . S
C2285 C2284 1.414 . S
C2285 C2286 1.374 . S
C2286 H2260 0.950 . S
C2286 C2282 1.385 . S
C2286 C2285 1.374 . S
C2287 C2284 1.499 . S
C2287 C2288 1.373 . S
C2287 C2289 1.389 1_556 S
C2288 H2261 0.950 . S
C2288 C2274 1.377 . S
C2288 C2287 1.373 . S
C2289 C2273 1.377 . S
C2289 C2287 1.389 1_554 S
C2289 C2290 1.524 . S
C2290 C2289 1.524 . S
C2290 C2291 1.397 . S
C2290 C2295 1.363 . S
C2291 H2262 0.950 1_554 S
C2291 C2290 1.397 . S
C2291 C2292 1.334 . S
C2292 H2263 0.950 . S
C2292 C2291 1.334 . S
C2292 C2293 1.287 . S
C2293 C2292 1.287 . S
C2293 C2294 1.524 . S
C2293 H2296 0.999 . S
C2294 H2264 0.950 . S
C2294 C2293 1.524 . S
C2294 C2295 1.415 . S
C2295 H2265 0.950 . S
C2295 C2290 1.363 . S
C2295 C2294 1.415 . S
H2296 C2293 0.999 . S
H2297 C2278 0.913 . S
H2298 C2316 0.951 . S
H2299 C2318 0.951 . S
H2300 C2320 0.950 . S
H2301 C2321 0.950 . S
H2302 C2323 0.950 . S
H2303 C2326 0.950 . S
H2304 C2327 0.950 . S
H2305 C2329 0.958 . S
H2306 C2330 0.950 1_545 S
H2307 C2331 0.951 . S
H2308 C2333 0.951 . S
H2309 C2335 0.950 . S
H2310 C2336 0.950 . S
H2311 C2338 0.950 . S
H2312 C2341 0.950 . S
H2313 C2342 0.950 . S
H2314 C2344 0.958 . S
H2315 C2345 0.950 1_565 S
C2316 H2298 0.951 . S
C2316 C2317 1.366 . S
C2316 C2318 1.388 . S
C2317 C2316 1.366 . S
C2317 C2321 1.385 . S
C2318 H2299 0.951 . S
C2318 C2316 1.388 . S
C2318 C2319 1.366 . S
C2319 C2318 1.366 . S
C2319 C2320 1.414 . S
C2319 C2322 1.499 . S
C2320 H2300 0.950 . S
C2320 C2319 1.414 . S
C2320 C2321 1.374 . S
C2321 H2301 0.950 . S
C2321 C2317 1.385 . S
C2321 C2320 1.374 . S
C2322 C2319 1.499 . S
C2322 C2323 1.373 . S
C2322 C2324 1.389 . S
C2323 H2302 0.950 . S
C2323 C2322 1.373 . S
C2323 C2339 1.377 1_565 S
C2324 C2322 1.389 . S
C2324 C2325 1.524 . S
C2324 C2338 1.377 1_565 S
C2325 C2324 1.524 . S
C2325 C2326 1.397 . S
C2325 C2330 1.363 . S
C2326 H2303 0.950 . S
C2326 C2325 1.397 . S
C2326 C2327 1.334 . S
C2327 H2304 0.950 . S
C2327 C2326 1.334 . S
C2327 C2328 1.287 . S
C2328 C2327 1.287 . S
C2328 C2329 1.524 . S
C2328 H2347 0.913 . S
C2329 H2305 0.958 . S
C2329 C2328 1.524 . S
C2329 C2330 1.415 . S
C2330 H2306 0.950 1_565 S
C2330 C2325 1.363 . S
C2330 C2329 1.415 . S
C2331 H2307 0.951 . S
C2331 C2332 1.366 . S
C2331 C2333 1.388 . S
C2332 C2331 1.366 . S
C2332 C2336 1.385 . S
C2333 H2308 0.951 . S
C2333 C2331 1.388 . S
C2333 C2334 1.366 . S
C2334 C2333 1.366 . S
C2334 C2335 1.414 . S
C2334 C2337 1.499 . S
C2335 H2309 0.950 . S
C2335 C2334 1.414 . S
C2335 C2336 1.374 . S
C2336 H2310 0.950 . S
C2336 C2332 1.385 . S
C2336 C2335 1.374 . S
C2337 C2334 1.499 . S
C2337 C2338 1.373 . S
C2337 C2339 1.389 . S
C2338 H2311 0.950 . S
C2338 C2324 1.377 1_545 S
C2338 C2337 1.373 . S
C2339 C2323 1.377 1_545 S
C2339 C2337 1.389 . S
C2339 C2340 1.524 . S
C2340 C2339 1.524 . S
C2340 C2341 1.397 . S
C2340 C2345 1.363 . S
C2341 H2312 0.950 . S
C2341 C2340 1.397 . S
C2341 C2342 1.334 . S
C2342 H2313 0.950 . S
C2342 C2341 1.334 . S
C2342 C2343 1.287 . S
C2343 C2342 1.287 . S
C2343 C2344 1.524 . S
C2343 H2346 0.999 . S
C2344 H2314 0.958 . S
C2344 C2343 1.524 . S
C2344 C2345 1.415 . S
C2345 H2315 0.950 1_545 S
C2345 C2340 1.363 . S
C2345 C2344 1.415 . S
H2346 C2343 0.999 . S
H2347 C2328 0.913 . S
H2348 C2366 0.951 . S
H2349 C2368 0.951 . S
H2350 C2370 0.950 . S
H2351 C2371 0.950 . S
H2352 C2373 0.950 . S
H2353 C2376 0.950 . S
H2354 C2377 0.950 . S
H2355 C2379 0.950 . S
H2356 C2380 0.950 . S
H2357 C2381 0.951 . S
H2358 C2383 0.951 . S
H2359 C2385 0.950 . S
H2360 C2386 0.950 . S
H2361 C2388 0.950 . S
H2362 C2391 0.950 . S
H2363 C2392 0.950 . S
H2364 C2394 0.950 . S
H2365 C2395 0.950 . S
C2366 H2348 0.951 . S
C2366 C2367 1.366 . S
C2366 C2368 1.388 . S
C2367 C2366 1.366 . S
C2367 C2371 1.385 . S
C2368 H2349 0.951 . S
C2368 C2366 1.388 . S
C2368 C2369 1.366 . S
C2369 C2368 1.366 . S
C2369 C2370 1.414 . S
C2369 C2372 1.499 . S
C2370 H2350 0.950 . S
C2370 C2369 1.414 . S
C2370 C2371 1.374 . S
C2371 H2351 0.950 . S
C2371 C2367 1.385 . S
C2371 C2370 1.374 . S
C2372 C2369 1.499 . S
C2372 C2373 1.373 . S
C2372 C2374 1.389 . S
C2373 H2352 0.950 . S
C2373 C2372 1.373 . S
C2373 C2389 1.377 . S
C2374 C2372 1.389 . S
C2374 C2375 1.524 . S
C2374 C2388 1.377 . S
C2375 C2374 1.524 . S
C2375 C2376 1.397 . S
C2375 C2380 1.363 . S
C2376 H2353 0.950 . S
C2376 C2375 1.397 . S
C2376 C2377 1.334 . S
C2377 H2354 0.950 . S
C2377 C2376 1.334 . S
C2377 C2378 1.287 . S
C2378 C2377 1.287 . S
C2378 C2379 1.524 . S
C2378 H2397 0.913 . S
C2379 H2355 0.950 . S
C2379 C2378 1.524 . S
C2379 C2380 1.415 . S
C2380 H2356 0.950 . S
C2380 C2375 1.363 . S
C2380 C2379 1.415 . S
C2381 H2357 0.951 . S
C2381 C2382 1.366 . S
C2381 C2383 1.388 . S
C2382 C2381 1.366 . S
C2382 C2386 1.385 . S
C2383 H2358 0.951 . S
C2383 C2381 1.388 . S
C2383 C2384 1.366 . S
C2384 C2383 1.366 . S
C2384 C2385 1.414 . S
C2384 C2387 1.499 . S
C2385 H2359 0.950 . S
C2385 C2384 1.414 . S
C2385 C2386 1.374 . S
C2386 H2360 0.950 . S
C2386 C2382 1.385 . S
C2386 C2385 1.374 . S
C2387 C2384 1.499 . S
C2387 C2388 1.373 . S
C2387 C2389 1.389 . S
C2388 H2361 0.950 . S
C2388 C2374 1.377 . S
C2388 C2387 1.373 . S
C2389 C2373 1.377 . S
C2389 C2387 1.389 . S
C2389 C2390 1.524 . S
C2390 C2389 1.524 . S
C2390 C2391 1.397 . S
C2390 C2395 1.363 . S
C2391 H2362 0.950 . S
C2391 C2390 1.397 . S
C2391 C2392 1.334 . S
C2392 H2363 0.950 . S
C2392 C2391 1.334 . S
C2392 C2393 1.287 . S
C2393 C2392 1.287 . S
C2393 C2394 1.524 . S
C2393 H2396 0.999 . S
C2394 H2364 0.950 . S
C2394 C2393 1.524 . S
C2394 C2395 1.415 . S
C2395 H2365 0.950 . S
C2395 C2390 1.363 . S
C2395 C2394 1.415 . S
H2396 C2393 0.999 . S
H2397 C2378 0.913 . S
H2398 C2416 0.951 . S
H2399 C2418 0.951 . S
H2400 C2420 0.950 . S
H2401 C2421 0.950 . S
H2402 C2423 0.950 . S
H2403 C2426 0.950 . S
H2404 C2427 0.950 . S
H2405 C2429 0.950 1_565 S
H2406 C2430 0.967 . S
H2407 C2431 0.951 . S
H2408 C2433 0.951 . S
H2409 C2435 0.950 . S
H2410 C2436 0.950 . S
H2411 C2438 0.950 . S
H2412 C2441 0.950 . S
H2413 C2442 0.950 . S
H2414 C2444 0.950 1_545 S
H2415 C2445 0.967 . S
C2416 H2398 0.951 . S
C2416 C2417 1.366 . S
C2416 C2418 1.388 . S
C2417 C2416 1.366 . S
C2417 C2421 1.385 . S
C2418 H2399 0.951 . S
C2418 C2416 1.388 . S
C2418 C2419 1.366 . S
C2419 C2418 1.366 . S
C2419 C2420 1.414 . S
C2419 C2422 1.499 . S
C2420 H2400 0.950 . S
C2420 C2419 1.414 . S
C2420 C2421 1.374 . S
C2421 H2401 0.950 . S
C2421 C2417 1.385 . S
C2421 C2420 1.374 . S
C2422 C2419 1.499 . S
C2422 C2423 1.373 . S
C2422 C2424 1.389 . S
C2423 H2402 0.950 . S
C2423 C2422 1.373 . S
C2423 C2439 1.377 1_545 S
C2424 C2422 1.389 . S
C2424 C2425 1.524 . S
C2424 C2438 1.377 1_545 S
C2425 C2424 1.524 . S
C2425 C2426 1.397 . S
C2425 C2430 1.350 1_545 S
C2426 H2403 0.950 . S
C2426 C2425 1.397 . S
C2426 C2427 1.334 . S
C2427 H2404 0.950 . S
C2427 C2426 1.334 . S
C2427 C2428 1.287 . S
C2428 C2427 1.287 . S
C2428 C2429 1.524 . S
C2428 H2447 0.913 . S
C2429 H2405 0.950 1_545 S
C2429 C2428 1.524 . S
C2429 C2430 1.414 1_545 S
C2430 H2406 0.967 . S
C2430 C2425 1.350 1_565 S
C2430 C2429 1.414 1_565 S
C2431 H2407 0.951 . S
C2431 C2432 1.366 . S
C2431 C2433 1.388 . S
C2432 C2431 1.366 . S
C2432 C2436 1.385 . S
C2433 H2408 0.951 . S
C2433 C2431 1.388 . S
C2433 C2434 1.366 . S
C2434 C2433 1.366 . S
C2434 C2435 1.414 . S
C2434 C2437 1.499 . S
C2435 H2409 0.950 . S
C2435 C2434 1.414 . S
C2435 C2436 1.374 . S
C2436 H2410 0.950 . S
C2436 C2432 1.385 . S
C2436 C2435 1.374 . S
C2437 C2434 1.499 . S
C2437 C2438 1.373 . S
C2437 C2439 1.389 . S
C2438 H2411 0.950 . S
C2438 C2424 1.377 1_565 S
C2438 C2437 1.373 . S
C2439 C2423 1.377 1_565 S
C2439 C2437 1.389 . S
C2439 C2440 1.524 . S
C2440 C2439 1.524 . S
C2440 C2441 1.397 . S
C2440 C2445 1.350 1_565 S
C2441 H2412 0.950 . S
C2441 C2440 1.397 . S
C2441 C2442 1.334 . S
C2442 H2413 0.950 . S
C2442 C2441 1.334 . S
C2442 C2443 1.287 . S
C2443 C2442 1.287 . S
C2443 C2444 1.524 . S
C2443 H2446 0.999 . S
C2444 H2414 0.950 1_565 S
C2444 C2443 1.524 . S
C2444 C2445 1.414 1_565 S
C2445 H2415 0.967 . S
C2445 C2440 1.350 1_545 S
C2445 C2444 1.414 1_545 S
H2446 C2443 0.999 . S
H2447 C2428 0.913 . S
H2448 C2466 0.951 . S
H2449 C2468 0.951 . S
H2450 C2470 0.950 . S
H2451 C2471 0.950 . S
H2452 C2473 0.950 . S
H2453 C2476 0.950 . S
H2454 C2477 0.950 . S
H2455 C2479 0.950 . S
H2456 C2480 0.950 . S
H2457 C2481 0.951 . S
H2458 C2483 0.951 . S
H2459 C2485 0.950 . S
H2460 C2486 0.950 . S
H2461 C2488 0.950 . S
H2462 C2491 0.950 . S
H2463 C2492 0.950 . S
H2464 C2494 0.950 . S
H2465 C2495 0.950 . S
C2466 H2448 0.951 . S
C2466 C2467 1.366 . S
C2466 C2468 1.388 . S
C2467 C2466 1.366 . S
C2467 C2471 1.385 . S
C2468 H2449 0.951 . S
C2468 C2466 1.388 . S
C2468 C2469 1.366 . S
C2469 C2468 1.366 . S
C2469 C2470 1.414 . S
C2469 C2472 1.499 . S
C2470 H2450 0.950 . S
C2470 C2469 1.414 . S
C2470 C2471 1.374 . S
C2471 H2451 0.950 . S
C2471 C2467 1.385 . S
C2471 C2470 1.374 . S
C2472 C2469 1.499 . S
C2472 C2473 1.373 . S
C2472 C2474 1.389 . S
C2473 H2452 0.950 . S
C2473 C2472 1.373 . S
C2473 C2489 1.377 . S
C2474 C2472 1.389 . S
C2474 C2475 1.524 . S
C2474 C2488 1.377 . S
C2475 C2474 1.524 . S
C2475 C2476 1.397 . S
C2475 C2480 1.363 . S
C2476 H2453 0.950 . S
C2476 C2475 1.397 . S
C2476 C2477 1.334 . S
C2477 H2454 0.950 . S
C2477 C2476 1.334 . S
C2477 C2478 1.287 . S
C2478 C2477 1.287 . S
C2478 C2479 1.524 . S
C2478 H2497 0.913 . S
C2479 H2455 0.950 . S
C2479 C2478 1.524 . S
C2479 C2480 1.415 . S
C2480 H2456 0.950 . S
C2480 C2475 1.363 . S
C2480 C2479 1.415 . S
C2481 H2457 0.951 . S
C2481 C2482 1.366 . S
C2481 C2483 1.388 . S
C2482 C2481 1.366 . S
C2482 C2486 1.385 . S
C2483 H2458 0.951 . S
C2483 C2481 1.388 . S
C2483 C2484 1.366 . S
C2484 C2483 1.366 . S
C2484 C2485 1.414 . S
C2484 C2487 1.499 . S
C2485 H2459 0.950 . S
C2485 C2484 1.414 . S
C2485 C2486 1.374 . S
C2486 H2460 0.950 . S
C2486 C2482 1.385 . S
C2486 C2485 1.374 . S
C2487 C2484 1.499 . S
C2487 C2488 1.373 . S
C2487 C2489 1.389 . S
C2488 H2461 0.950 . S
C2488 C2474 1.377 . S
C2488 C2487 1.373 . S
C2489 C2473 1.377 . S
C2489 C2487 1.389 . S
C2489 C2490 1.524 . S
C2490 C2489 1.524 . S
C2490 C2491 1.397 . S
C2490 C2495 1.363 . S
C2491 H2462 0.950 . S
C2491 C2490 1.397 . S
C2491 C2492 1.334 . S
C2492 H2463 0.950 . S
C2492 C2491 1.334 . S
C2492 C2493 1.287 . S
C2493 C2492 1.287 . S
C2493 C2494 1.524 . S
C2493 H2496 0.999 . S
C2494 H2464 0.950 . S
C2494 C2493 1.524 . S
C2494 C2495 1.415 . S
C2495 H2465 0.950 . S
C2495 C2490 1.363 . S
C2495 C2494 1.415 . S
H2496 C2493 0.999 . S
H2497 C2478 0.913 . S
H2498 C2516 0.951 . S
H2499 C2518 0.951 . S
H2500 C2520 0.950 . S
H2501 C2521 0.950 . S
H2502 C2523 0.950 . S
H2503 C2526 0.950 . S
H2504 C2527 0.950 . S
H2505 C2529 0.950 . S
H2506 C2530 0.950 . S
H2507 C2531 0.951 . S
H2508 C2533 0.951 . S
H2509 C2535 0.950 . S
H2510 C2536 0.950 . S
H2511 C2538 0.950 . S
H2512 C2541 0.950 . S
H2513 C2542 0.950 . S
H2514 C2544 0.950 . S
H2515 C2545 0.950 . S
C2516 H2498 0.951 . S
C2516 C2517 1.366 . S
C2516 C2518 1.388 . S
C2517 C2516 1.366 . S
C2517 C2521 1.385 . S
C2518 H2499 0.951 . S
C2518 C2516 1.388 . S
C2518 C2519 1.366 . S
C2519 C2518 1.366 . S
C2519 C2520 1.414 . S
C2519 C2522 1.499 . S
C2520 H2500 0.950 . S
C2520 C2519 1.414 . S
C2520 C2521 1.374 . S
C2521 H2501 0.950 . S
C2521 C2517 1.385 . S
C2521 C2520 1.374 . S
C2522 C2519 1.499 . S
C2522 C2523 1.373 . S
C2522 C2524 1.389 . S
C2523 H2502 0.950 . S
C2523 C2522 1.373 . S
C2523 C2539 1.377 . S
C2524 C2522 1.389 . S
C2524 C2525 1.524 . S
C2524 C2538 1.377 . S
C2525 C2524 1.524 . S
C2525 C2526 1.397 . S
C2525 C2530 1.363 . S
C2526 H2503 0.950 . S
C2526 C2525 1.397 . S
C2526 C2527 1.334 . S
C2527 H2504 0.950 . S
C2527 C2526 1.334 . S
C2527 C2528 1.287 . S
C2528 C2527 1.287 . S
C2528 C2529 1.524 . S
C2528 H2547 0.913 . S
C2529 H2505 0.950 . S
C2529 C2528 1.524 . S
C2529 C2530 1.415 . S
C2530 H2506 0.950 . S
C2530 C2525 1.363 . S
C2530 C2529 1.415 . S
C2531 H2507 0.951 . S
C2531 C2532 1.366 . S
C2531 C2533 1.388 . S
C2532 C2531 1.366 . S
C2532 C2536 1.385 . S
C2533 H2508 0.951 . S
C2533 C2531 1.388 . S
C2533 C2534 1.366 . S
C2534 C2533 1.366 . S
C2534 C2535 1.414 . S
C2534 C2537 1.499 . S
C2535 H2509 0.950 . S
C2535 C2534 1.414 . S
C2535 C2536 1.374 . S
C2536 H2510 0.950 . S
C2536 C2532 1.385 . S
C2536 C2535 1.374 . S
C2537 C2534 1.499 . S
C2537 C2538 1.373 . S
C2537 C2539 1.389 . S
C2538 H2511 0.950 . S
C2538 C2524 1.377 . S
C2538 C2537 1.373 . S
C2539 C2523 1.377 . S
C2539 C2537 1.389 . S
C2539 C2540 1.524 . S
C2540 C2539 1.524 . S
C2540 C2541 1.397 . S
C2540 C2545 1.363 . S
C2541 H2512 0.950 . S
C2541 C2540 1.397 . S
C2541 C2542 1.334 . S
C2542 H2513 0.950 . S
C2542 C2541 1.334 . S
C2542 C2543 1.287 . S
C2543 C2542 1.287 . S
C2543 C2544 1.524 . S
C2543 H2546 0.999 . S
C2544 H2514 0.950 . S
C2544 C2543 1.524 . S
C2544 C2545 1.415 . S
C2545 H2515 0.950 . S
C2545 C2540 1.363 . S
C2545 C2544 1.415 . S
H2546 C2543 0.999 . S
H2547 C2528 0.913 . S
H2548 C2566 0.951 . S
H2549 C2568 0.951 1_556 S
H2550 C2570 0.950 . S
H2551 C2571 0.950 . S
H2552 C2573 0.950 . S
H2553 C2576 0.950 . S
H2554 C2577 0.950 . S
H2555 C2579 0.950 . S
H2556 C2580 0.950 . S
H2557 C2581 0.951 . S
H2558 C2583 0.951 1_554 S
H2559 C2585 0.950 . S
H2560 C2586 0.950 . S
H2561 C2588 0.950 . S
H2562 C2591 0.950 . S
H2563 C2592 0.950 . S
H2564 C2594 0.950 . S
H2565 C2595 0.950 . S
C2566 H2548 0.951 . S
C2566 C2567 1.366 . S
C2566 C2568 1.388 . S
C2567 C2566 1.366 . S
C2567 C2571 1.385 . S
C2568 H2549 0.951 1_554 S
C2568 C2566 1.388 . S
C2568 C2569 1.366 . S
C2569 C2568 1.366 . S
C2569 C2570 1.414 . S
C2569 C2572 1.499 . S
C2570 H2550 0.950 . S
C2570 C2569 1.414 . S
C2570 C2571 1.374 . S
C2571 H2551 0.950 . S
C2571 C2567 1.385 . S
C2571 C2570 1.374 . S
C2572 C2569 1.499 . S
C2572 C2573 1.373 . S
C2572 C2574 1.389 1_554 S
C2573 H2552 0.950 . S
C2573 C2572 1.373 . S
C2573 C2589 1.377 . S
C2574 C2572 1.389 1_556 S
C2574 C2575 1.524 . S
C2574 C2588 1.377 . S
C2575 C2574 1.524 . S
C2575 C2576 1.397 . S
C2575 C2580 1.363 . S
C2576 H2553 0.950 . S
C2576 C2575 1.397 . S
C2576 C2577 1.334 . S
C2577 H2554 0.950 . S
C2577 C2576 1.334 . S
C2577 C2578 1.287 . S
C2578 C2577 1.287 . S
C2578 C2579 1.524 . S
C2578 H2597 0.913 . S
C2579 H2555 0.950 . S
C2579 C2578 1.524 . S
C2579 C2580 1.415 . S
C2580 H2556 0.950 . S
C2580 C2575 1.363 . S
C2580 C2579 1.415 . S
C2581 H2557 0.951 . S
C2581 C2582 1.366 . S
C2581 C2583 1.388 . S
C2582 C2581 1.366 . S
C2582 C2586 1.385 . S
C2583 H2558 0.951 1_556 S
C2583 C2581 1.388 . S
C2583 C2584 1.366 . S
C2584 C2583 1.366 . S
C2584 C2585 1.414 . S
C2584 C2587 1.499 . S
C2585 H2559 0.950 . S
C2585 C2584 1.414 . S
C2585 C2586 1.374 . S
C2586 H2560 0.950 . S
C2586 C2582 1.385 . S
C2586 C2585 1.374 . S
C2587 C2584 1.499 . S
C2587 C2588 1.373 . S
C2587 C2589 1.389 1_556 S
C2588 H2561 0.950 . S
C2588 C2574 1.377 . S
C2588 C2587 1.373 . S
C2589 C2573 1.377 . S
C2589 C2587 1.389 1_554 S
C2589 C2590 1.524 . S
C2590 C2589 1.524 . S
C2590 C2591 1.397 . S
C2590 C2595 1.363 . S
C2591 H2562 0.950 . S
C2591 C2590 1.397 . S
C2591 C2592 1.334 . S
C2592 H2563 0.950 . S
C2592 C2591 1.334 . S
C2592 C2593 1.287 . S
C2593 C2592 1.287 . S
C2593 C2594 1.524 . S
C2593 H2596 0.999 . S
C2594 H2564 0.950 . S
C2594 C2593 1.524 . S
C2594 C2595 1.415 . S
C2595 H2565 0.950 . S
C2595 C2590 1.363 . S
C2595 C2594 1.415 . S
H2596 C2593 0.999 . S
H2597 C2578 0.913 . S
H2598 C2616 0.951 . S
H2599 C2618 0.951 . S
H2600 C2620 0.950 . S
H2601 C2621 0.950 . S
H2602 C2623 0.950 . S
H2603 C2626 0.950 . S
H2604 C2627 0.950 . S
H2605 C2629 0.950 . S
H2606 C2630 0.950 . S
H2607 C2631 0.951 . S
H2608 C2633 0.951 . S
H2609 C2635 0.950 . S
H2610 C2636 0.950 . S
H2611 C2638 0.950 . S
H2612 C2641 0.950 . S
H2613 C2642 0.950 . S
H2614 C2644 0.950 . S
H2615 C2645 0.950 . S
C2616 H2598 0.951 . S
C2616 C2617 1.366 . S
C2616 C2618 1.388 . S
C2617 C2616 1.366 . S
C2617 C2621 1.385 . S
C2618 H2599 0.951 . S
C2618 C2616 1.388 . S
C2618 C2619 1.366 . S
C2619 C2618 1.366 . S
C2619 C2620 1.414 . S
C2619 C2622 1.499 . S
C2620 H2600 0.950 . S
C2620 C2619 1.414 . S
C2620 C2621 1.374 . S
C2621 H2601 0.950 . S
C2621 C2617 1.385 . S
C2621 C2620 1.374 . S
C2622 C2619 1.499 . S
C2622 C2623 1.373 . S
C2622 C2624 1.389 . S
C2623 H2602 0.950 . S
C2623 C2622 1.373 . S
C2623 C2639 1.377 . S
C2624 C2622 1.389 . S
C2624 C2625 1.524 . S
C2624 C2638 1.377 . S
C2625 C2624 1.524 . S
C2625 C2626 1.397 . S
C2625 C2630 1.363 . S
C2626 H2603 0.950 . S
C2626 C2625 1.397 . S
C2626 C2627 1.334 . S
C2627 H2604 0.950 . S
C2627 C2626 1.334 . S
C2627 C2628 1.287 . S
C2628 C2627 1.287 . S
C2628 C2629 1.524 . S
C2628 H2647 0.913 . S
C2629 H2605 0.950 . S
C2629 C2628 1.524 . S
C2629 C2630 1.415 . S
C2630 H2606 0.950 . S
C2630 C2625 1.363 . S
C2630 C2629 1.415 . S
C2631 H2607 0.951 . S
C2631 C2632 1.366 . S
C2631 C2633 1.388 . S
C2632 C2631 1.366 . S
C2632 C2636 1.385 . S
C2633 H2608 0.951 . S
C2633 C2631 1.388 . S
C2633 C2634 1.366 . S
C2634 C2633 1.366 . S
C2634 C2635 1.414 . S
C2634 C2637 1.499 . S
C2635 H2609 0.950 . S
C2635 C2634 1.414 . S
C2635 C2636 1.374 . S
C2636 H2610 0.950 . S
C2636 C2632 1.385 . S
C2636 C2635 1.374 . S
C2637 C2634 1.499 . S
C2637 C2638 1.373 . S
C2637 C2639 1.389 . S
C2638 H2611 0.950 . S
C2638 C2624 1.377 . S
C2638 C2637 1.373 . S
C2639 C2623 1.377 . S
C2639 C2637 1.389 . S
C2639 C2640 1.524 . S
C2640 C2639 1.524 . S
C2640 C2641 1.397 . S
C2640 C2645 1.363 . S
C2641 H2612 0.950 . S
C2641 C2640 1.397 . S
C2641 C2642 1.334 . S
C2642 H2613 0.950 . S
C2642 C2641 1.334 . S
C2642 C2643 1.287 . S
C2643 C2642 1.287 . S
C2643 C2644 1.524 . S
C2643 H2646 0.999 . S
C2644 H2614 0.950 . S
C2644 C2643 1.524 . S
C2644 C2645 1.415 . S
C2645 H2615 0.950 . S
C2645 C2640 1.363 . S
C2645 C2644 1.415 . S
H2646 C2643 0.999 . S
H2647 C2628 0.913 . S
H2648 C2666 0.951 . S
H2649 C2668 0.951 . S
H2650 C2670 0.950 . S
H2651 C2671 0.950 . S
H2652 C2673 0.950 . S
H2653 C2676 0.950 . S
H2654 C2677 0.950 . S
H2655 C2679 0.950 . S
H2656 C2680 0.950 . S
H2657 C2681 0.951 . S
H2658 C2683 0.951 . S
H2659 C2685 0.950 . S
H2660 C2686 0.950 . S
H2661 C2688 0.950 . S
H2662 C2691 0.950 . S
H2663 C2692 0.950 . S
H2664 C2694 0.950 . S
H2665 C2695 0.950 . S
C2666 H2648 0.951 . S
C2666 C2667 1.366 . S
C2666 C2668 1.388 . S
C2667 C2666 1.366 . S
C2667 C2671 1.385 . S
C2668 H2649 0.951 . S
C2668 C2666 1.388 . S
C2668 C2669 1.366 . S
C2669 C2668 1.366 . S
C2669 C2670 1.414 . S
C2669 C2672 1.499 . S
C2670 H2650 0.950 . S
C2670 C2669 1.414 . S
C2670 C2671 1.374 . S
C2671 H2651 0.950 . S
C2671 C2667 1.385 . S
C2671 C2670 1.374 . S
C2672 C2669 1.499 . S
C2672 C2673 1.373 . S
C2672 C2674 1.389 . S
C2673 H2652 0.950 . S
C2673 C2672 1.373 . S
C2673 C2689 1.377 . S
C2674 C2672 1.389 . S
C2674 C2675 1.524 . S
C2674 C2688 1.377 . S
C2675 C2674 1.524 . S
C2675 C2676 1.397 . S
C2675 C2680 1.363 . S
C2676 H2653 0.950 . S
C2676 C2675 1.397 . S
C2676 C2677 1.334 . S
C2677 H2654 0.950 . S
C2677 C2676 1.334 . S
C2677 C2678 1.287 . S
C2678 C2677 1.287 . S
C2678 C2679 1.524 . S
C2678 H2697 0.913 . S
C2679 H2655 0.950 . S
C2679 C2678 1.524 . S
C2679 C2680 1.415 . S
C2680 H2656 0.950 . S
C2680 C2675 1.363 . S
C2680 C2679 1.415 . S
C2681 H2657 0.951 . S
C2681 C2682 1.366 . S
C2681 C2683 1.388 . S
C2682 C2681 1.366 . S
C2682 C2686 1.385 . S
C2683 H2658 0.951 . S
C2683 C2681 1.388 . S
C2683 C2684 1.366 . S
C2684 C2683 1.366 . S
C2684 C2685 1.414 . S
C2684 C2687 1.499 . S
C2685 H2659 0.950 . S
C2685 C2684 1.414 . S
C2685 C2686 1.374 . S
C2686 H2660 0.950 . S
C2686 C2682 1.385 . S
C2686 C2685 1.374 . S
C2687 C2684 1.499 . S
C2687 C2688 1.373 . S
C2687 C2689 1.389 . S
C2688 H2661 0.950 . S
C2688 C2674 1.377 . S
C2688 C2687 1.373 . S
C2689 C2673 1.377 . S
C2689 C2687 1.389 . S
C2689 C2690 1.524 . S
C2690 C2689 1.524 . S
C2690 C2691 1.397 . S
C2690 C2695 1.363 . S
C2691 H2662 0.950 . S
C2691 C2690 1.397 . S
C2691 C2692 1.334 . S
C2692 H2663 0.950 . S
C2692 C2691 1.334 . S
C2692 C2693 1.287 . S
C2693 C2692 1.287 . S
C2693 C2694 1.524 . S
C2693 H2696 0.999 . S
C2694 H2664 0.950 . S
C2694 C2693 1.524 . S
C2694 C2695 1.415 . S
C2695 H2665 0.950 . S
C2695 C2690 1.363 . S
C2695 C2694 1.415 . S
H2696 C2693 0.999 . S
H2697 C2678 0.913 . S
H2698 C2716 0.951 . S
H2699 C2718 0.951 . S
H2700 C2720 0.950 . S
H2701 C2721 0.950 . S
H2702 C2723 0.950 . S
H2703 C2726 0.950 . S
H2704 C2727 0.950 . S
H2705 C2729 0.950 . S
H2706 C2730 0.950 . S
H2707 C2731 0.951 . S
H2708 C2733 0.951 . S
H2709 C2735 0.950 . S
H2710 C2736 0.950 . S
H2711 C2738 0.950 . S
H2712 C2741 0.950 . S
H2713 C2742 0.950 . S
H2714 C2744 0.950 . S
H2715 C2745 0.950 . S
C2716 H2698 0.951 . S
C2716 C2717 1.366 . S
C2716 C2718 1.388 . S
C2717 C2716 1.366 . S
C2717 C2721 1.385 . S
C2718 H2699 0.951 . S
C2718 C2716 1.388 . S
C2718 C2719 1.366 . S
C2719 C2718 1.366 . S
C2719 C2720 1.414 . S
C2719 C2722 1.499 . S
C2720 H2700 0.950 . S
C2720 C2719 1.414 . S
C2720 C2721 1.374 . S
C2721 H2701 0.950 . S
C2721 C2717 1.385 . S
C2721 C2720 1.374 . S
C2722 C2719 1.499 . S
C2722 C2723 1.373 . S
C2722 C2724 1.389 . S
C2723 H2702 0.950 . S
C2723 C2722 1.373 . S
C2723 C2739 1.377 . S
C2724 C2722 1.389 . S
C2724 C2725 1.524 . S
C2724 C2738 1.377 . S
C2725 C2724 1.524 . S
C2725 C2726 1.397 . S
C2725 C2730 1.363 . S
C2726 H2703 0.950 . S
C2726 C2725 1.397 . S
C2726 C2727 1.334 . S
C2727 H2704 0.950 . S
C2727 C2726 1.334 . S
C2727 C2728 1.287 . S
C2728 C2727 1.287 . S
C2728 C2729 1.524 . S
C2728 H2747 0.913 . S
C2729 H2705 0.950 . S
C2729 C2728 1.524 . S
C2729 C2730 1.415 . S
C2730 H2706 0.950 . S
C2730 C2725 1.363 . S
C2730 C2729 1.415 . S
C2731 H2707 0.951 . S
C2731 C2732 1.366 . S
C2731 C2733 1.388 . S
C2732 C2731 1.366 . S
C2732 C2736 1.385 . S
C2733 H2708 0.951 . S
C2733 C2731 1.388 . S
C2733 C2734 1.366 . S
C2734 C2733 1.366 . S
C2734 C2735 1.414 . S
C2734 C2737 1.499 . S
C2735 H2709 0.950 . S
C2735 C2734 1.414 . S
C2735 C2736 1.374 . S
C2736 H2710 0.950 . S
C2736 C2732 1.385 . S
C2736 C2735 1.374 . S
C2737 C2734 1.499 . S
C2737 C2738 1.373 . S
C2737 C2739 1.389 . S
C2738 H2711 0.950 . S
C2738 C2724 1.377 . S
C2738 C2737 1.373 . S
C2739 C2723 1.377 . S
C2739 C2737 1.389 . S
C2739 C2740 1.524 . S
C2740 C2739 1.524 . S
C2740 C2741 1.397 . S
C2740 C2745 1.363 . S
C2741 H2712 0.950 . S
C2741 C2740 1.397 . S
C2741 C2742 1.334 . S
C2742 H2713 0.950 . S
C2742 C2741 1.334 . S
C2742 C2743 1.287 . S
C2743 C2742 1.287 . S
C2743 C2744 1.524 . S
C2743 H2746 0.999 . S
C2744 H2714 0.950 . S
C2744 C2743 1.524 . S
C2744 C2745 1.415 . S
C2745 H2715 0.950 . S
C2745 C2740 1.363 . S
C2745 C2744 1.415 . S
H2746 C2743 0.999 . S
H2747 C2728 0.913 . S
H2748 C2766 0.951 . S
H2749 C2768 0.951 1_554 S
H2750 C2770 0.950 . S
H2751 C2771 0.950 . S
H2752 C2773 0.950 . S
H2753 C2776 0.950 1_556 S
H2754 C2777 0.971 . S
H2755 C2779 0.950 . S
H2756 C2780 0.950 . S
H2757 C2781 0.951 . S
H2758 C2783 0.951 1_556 S
H2759 C2785 0.950 . S
H2760 C2786 0.950 . S
H2761 C2788 0.950 . S
H2762 C2791 0.950 1_554 S
H2763 C2792 0.971 . S
H2764 C2794 0.950 . S
H2765 C2795 0.950 . S
C2766 H2748 0.951 . S
C2766 C2767 1.366 . S
C2766 C2768 1.388 . S
C2767 C2766 1.366 . S
C2767 C2771 1.385 . S
C2768 H2749 0.951 1_556 S
C2768 C2766 1.388 . S
C2768 C2769 1.366 . S
C2769 C2768 1.366 . S
C2769 C2770 1.414 . S
C2769 C2772 1.499 . S
C2770 H2750 0.950 . S
C2770 C2769 1.414 . S
C2770 C2771 1.374 . S
C2771 H2751 0.950 . S
C2771 C2767 1.385 . S
C2771 C2770 1.374 . S
C2772 C2769 1.499 . S
C2772 C2773 1.373 . S
C2772 C2774 1.389 1_556 S
C2773 H2752 0.950 . S
C2773 C2772 1.373 . S
C2773 C2789 1.377 . S
C2774 C2772 1.389 1_554 S
C2774 C2775 1.524 . S
C2774 C2788 1.377 . S
C2775 C2774 1.524 . S
C2775 C2776 1.397 . S
C2775 C2780 1.363 . S
C2776 H2753 0.950 1_554 S
C2776 C2775 1.397 . S
C2776 C2777 1.334 . S
C2777 H2754 0.971 . S
C2777 C2776 1.334 . S
C2777 C2778 1.287 . S
C2778 C2777 1.287 . S
C2778 C2779 1.524 . S
C2778 H2797 0.913 . S
C2779 H2755 0.950 . S
C2779 C2778 1.524 . S
C2779 C2780 1.415 . S
C2780 H2756 0.950 . S
C2780 C2775 1.363 . S
C2780 C2779 1.415 . S
C2781 H2757 0.951 . S
C2781 C2782 1.366 . S
C2781 C2783 1.388 . S
C2782 C2781 1.366 . S
C2782 C2786 1.385 . S
C2783 H2758 0.951 1_554 S
C2783 C2781 1.388 . S
C2783 C2784 1.366 . S
C2784 C2783 1.366 . S
C2784 C2785 1.414 . S
C2784 C2787 1.499 . S
C2785 H2759 0.950 . S
C2785 C2784 1.414 . S
C2785 C2786 1.374 . S
C2786 H2760 0.950 . S
C2786 C2782 1.385 . S
C2786 C2785 1.374 . S
C2787 C2784 1.499 . S
C2787 C2788 1.373 . S
C2787 C2789 1.389 1_554 S
C2788 H2761 0.950 . S
C2788 C2774 1.377 . S
C2788 C2787 1.373 . S
C2789 C2773 1.377 . S
C2789 C2787 1.389 1_556 S
C2789 C2790 1.524 . S
C2790 C2789 1.524 . S
C2790 C2791 1.397 . S
C2790 C2795 1.363 . S
C2791 H2762 0.950 1_556 S
C2791 C2790 1.397 . S
C2791 C2792 1.334 . S
C2792 H2763 0.971 . S
C2792 C2791 1.334 . S
C2792 C2793 1.287 . S
C2793 C2792 1.287 . S
C2793 C2794 1.524 . S
C2793 H2796 0.999 . S
C2794 H2764 0.950 . S
C2794 C2793 1.524 . S
C2794 C2795 1.415 . S
C2795 H2765 0.950 . S
C2795 C2790 1.363 . S
C2795 C2794 1.415 . S
H2796 C2793 0.999 . S
H2797 C2778 0.913 . S
H2798 C2816 0.951 . S
H2799 C2818 0.951 . S
H2800 C2820 0.950 . S
H2801 C2821 0.950 . S
H2802 C2823 0.950 . S
H2803 C2826 0.950 . S
H2804 C2827 0.950 . S
H2805 C2829 0.950 . S
H2806 C2830 0.950 . S
H2807 C2831 0.951 . S
H2808 C2833 0.951 . S
H2809 C2835 0.950 . S
H2810 C2836 0.950 . S
H2811 C2838 0.950 . S
H2812 C2841 0.950 . S
H2813 C2842 0.950 . S
H2814 C2844 0.950 . S
H2815 C2845 0.950 . S
C2816 H2798 0.951 . S
C2816 C2817 1.366 . S
C2816 C2818 1.388 . S
C2817 C2816 1.366 . S
C2817 C2821 1.385 . S
C2818 H2799 0.951 . S
C2818 C2816 1.388 . S
C2818 C2819 1.366 . S
C2819 C2818 1.366 . S
C2819 C2820 1.414 . S
C2819 C2822 1.499 . S
C2820 H2800 0.950 . S
C2820 C2819 1.414 . S
C2820 C2821 1.374 . S
C2821 H2801 0.950 . S
C2821 C2817 1.385 . S
C2821 C2820 1.374 . S
C2822 C2819 1.499 . S
C2822 C2823 1.373 . S
C2822 C2824 1.389 . S
C2823 H2802 0.950 . S
C2823 C2822 1.373 . S
C2823 C2839 1.377 . S
C2824 C2822 1.389 . S
C2824 C2825 1.524 . S
C2824 C2838 1.377 . S
C2825 C2824 1.524 . S
C2825 C2826 1.397 . S
C2825 C2830 1.363 . S
C2826 H2803 0.950 . S
C2826 C2825 1.397 . S
C2826 C2827 1.334 . S
C2827 H2804 0.950 . S
C2827 C2826 1.334 . S
C2827 C2828 1.287 . S
C2828 C2827 1.287 . S
C2828 C2829 1.524 . S
C2828 H2847 0.913 . S
C2829 H2805 0.950 . S
C2829 C2828 1.524 . S
C2829 C2830 1.415 . S
C2830 H2806 0.950 . S
C2830 C2825 1.363 . S
C2830 C2829 1.415 . S
C2831 H2807 0.951 . S
C2831 C2832 1.366 . S
C2831 C2833 1.388 . S
C2832 C2831 1.366 . S
C2832 C2836 1.385 . S
C2833 H2808 0.951 . S
C2833 C2831 1.388 . S
C2833 C2834 1.366 . S
C2834 C2833 1.366 . S
C2834 C2835 1.414 . S
C2834 C2837 1.499 . S
C2835 H2809 0.950 . S
C2835 C2834 1.414 . S
C2835 C2836 1.374 . S
C2836 H2810 0.950 . S
C2836 C2832 1.385 . S
C2836 C2835 1.374 . S
C2837 C2834 1.499 . S
C2837 C2838 1.373 . S
C2837 C2839 1.389 . S
C2838 H2811 0.950 . S
C2838 C2824 1.377 . S
C2838 C2837 1.373 . S
C2839 C2823 1.377 . S
C2839 C2837 1.389 . S
C2839 C2840 1.524 . S
C2840 C2839 1.524 . S
C2840 C2841 1.397 . S
C2840 C2845 1.363 . S
C2841 H2812 0.950 . S
C2841 C2840 1.397 . S
C2841 C2842 1.334 . S
C2842 H2813 0.950 . S
C2842 C2841 1.334 . S
C2842 C2843 1.287 . S
C2843 C2842 1.287 . S
C2843 C2844 1.524 . S
C2843 H2846 0.999 . S
C2844 H2814 0.950 . S
C2844 C2843 1.524 . S
C2844 C2845 1.415 . S
C2845 H2815 0.950 . S
C2845 C2840 1.363 . S
C2845 C2844 1.415 . S
H2846 C2843 0.999 . S
H2847 C2828 0.913 . S
H2848 C2866 0.951 . S
H2849 C2868 0.951 . S
H2850 C2870 0.950 . S
H2851 C2871 0.950 . S
H2852 C2873 0.950 . S
H2853 C2876 0.950 . S
H2854 C2877 0.950 . S
H2855 C2879 0.950 . S
H2856 C2880 0.950 . S
H2857 C2881 0.951 . S
H2858 C2883 0.951 . S
H2859 C2885 0.950 . S
H2860 C2886 0.950 . S
H2861 C2888 0.950 . S
H2862 C2891 0.950 . S
H2863 C2892 0.950 . S
H2864 C2894 0.950 . S
H2865 C2895 0.950 . S
C2866 H2848 0.951 . S
C2866 C2867 1.366 . S
C2866 C2868 1.388 . S
C2867 C2866 1.366 . S
C2867 C2871 1.385 . S
C2868 H2849 0.951 . S
C2868 C2866 1.388 . S
C2868 C2869 1.366 . S
C2869 C2868 1.366 . S
C2869 C2870 1.414 . S
C2869 C2872 1.499 . S
C2870 H2850 0.950 . S
C2870 C2869 1.414 . S
C2870 C2871 1.374 . S
C2871 H2851 0.950 . S
C2871 C2867 1.385 . S
C2871 C2870 1.374 . S
C2872 C2869 1.499 . S
C2872 C2873 1.373 . S
C2872 C2874 1.389 . S
C2873 H2852 0.950 . S
C2873 C2872 1.373 . S
C2873 C2889 1.377 . S
C2874 C2872 1.389 . S
C2874 C2875 1.524 . S
C2874 C2888 1.377 . S
C2875 C2874 1.524 . S
C2875 C2876 1.397 . S
C2875 C2880 1.363 . S
C2876 H2853 0.950 . S
C2876 C2875 1.397 . S
C2876 C2877 1.334 . S
C2877 H2854 0.950 . S
C2877 C2876 1.334 . S
C2877 C2878 1.287 . S
C2878 C2877 1.287 . S
C2878 C2879 1.524 . S
C2878 H2897 0.913 . S
C2879 H2855 0.950 . S
C2879 C2878 1.524 . S
C2879 C2880 1.415 . S
C2880 H2856 0.950 . S
C2880 C2875 1.363 . S
C2880 C2879 1.415 . S
C2881 H2857 0.951 . S
C2881 C2882 1.366 . S
C2881 C2883 1.388 . S
C2882 C2881 1.366 . S
C2882 C2886 1.385 . S
C2883 H2858 0.951 . S
C2883 C2881 1.388 . S
C2883 C2884 1.366 . S
C2884 C2883 1.366 . S
C2884 C2885 1.414 . S
C2884 C2887 1.499 . S
C2885 H2859 0.950 . S
C2885 C2884 1.414 . S
C2885 C2886 1.374 . S
C2886 H2860 0.950 . S
C2886 C2882 1.385 . S
C2886 C2885 1.374 . S
C2887 C2884 1.499 . S
C2887 C2888 1.373 . S
C2887 C2889 1.389 . S
C2888 H2861 0.950 . S
C2888 C2874 1.377 . S
C2888 C2887 1.373 . S
C2889 C2873 1.377 . S
C2889 C2887 1.389 . S
C2889 C2890 1.524 . S
C2890 C2889 1.524 . S
C2890 C2891 1.397 . S
C2890 C2895 1.363 . S
C2891 H2862 0.950 . S
C2891 C2890 1.397 . S
C2891 C2892 1.334 . S
C2892 H2863 0.950 . S
C2892 C2891 1.334 . S
C2892 C2893 1.287 . S
C2893 C2892 1.287 . S
C2893 C2894 1.524 . S
C2893 H2896 0.999 . S
C2894 H2864 0.950 . S
C2894 C2893 1.524 . S
C2894 C2895 1.415 . S
C2895 H2865 0.950 . S
C2895 C2890 1.363 . S
C2895 C2894 1.415 . S
H2896 C2893 0.999 . S
H2897 C2878 0.913 . S
H2898 C2916 0.951 . S
H2899 C2918 0.951 . S
H2900 C2920 0.950 . S
H2901 C2921 0.950 . S
H2902 C2923 0.950 . S
H2903 C2926 0.950 . S
H2904 C2927 0.950 . S
H2905 C2929 0.950 . S
H2906 C2930 0.950 . S
H2907 C2931 0.951 . S
H2908 C2933 0.951 . S
H2909 C2935 0.950 . S
H2910 C2936 0.950 . S
H2911 C2938 0.950 . S
H2912 C2941 0.950 . S
H2913 C2942 0.950 . S
H2914 C2944 0.950 . S
H2915 C2945 0.950 . S
C2916 H2898 0.951 . S
C2916 C2917 1.366 . S
C2916 C2918 1.388 . S
C2917 C2916 1.366 . S
C2917 C2921 1.385 . S
C2918 H2899 0.951 . S
C2918 C2916 1.388 . S
C2918 C2919 1.366 . S
C2919 C2918 1.366 . S
C2919 C2920 1.414 . S
C2919 C2922 1.499 . S
C2920 H2900 0.950 . S
C2920 C2919 1.414 . S
C2920 C2921 1.374 . S
C2921 H2901 0.950 . S
C2921 C2917 1.385 . S
C2921 C2920 1.374 . S
C2922 C2919 1.499 . S
C2922 C2923 1.373 . S
C2922 C2924 1.389 . S
C2923 H2902 0.950 . S
C2923 C2922 1.373 . S
C2923 C2939 1.377 . S
C2924 C2922 1.389 . S
C2924 C2925 1.524 . S
C2924 C2938 1.377 . S
C2925 C2924 1.524 . S
C2925 C2926 1.397 . S
C2925 C2930 1.363 . S
C2926 H2903 0.950 . S
C2926 C2925 1.397 . S
C2926 C2927 1.334 . S
C2927 H2904 0.950 . S
C2927 C2926 1.334 . S
C2927 C2928 1.287 . S
C2928 C2927 1.287 . S
C2928 C2929 1.524 . S
C2928 H2947 0.913 . S
C2929 H2905 0.950 . S
C2929 C2928 1.524 . S
C2929 C2930 1.415 . S
C2930 H2906 0.950 . S
C2930 C2925 1.363 . S
C2930 C2929 1.415 . S
C2931 H2907 0.951 . S
C2931 C2932 1.366 . S
C2931 C2933 1.388 . S
C2932 C2931 1.366 . S
C2932 C2936 1.385 . S
C2933 H2908 0.951 . S
C2933 C2931 1.388 . S
C2933 C2934 1.366 . S
C2934 C2933 1.366 . S
C2934 C2935 1.414 . S
C2934 C2937 1.499 . S
C2935 H2909 0.950 . S
C2935 C2934 1.414 . S
C2935 C2936 1.374 . S
C2936 H2910 0.950 . S
C2936 C2932 1.385 . S
C2936 C2935 1.374 . S
C2937 C2934 1.499 . S
C2937 C2938 1.373 . S
C2937 C2939 1.389 . S
C2938 H2911 0.950 . S
C2938 C2924 1.377 . S
C2938 C2937 1.373 . S
C2939 C2923 1.377 . S
C2939 C2937 1.389 . S
C2939 C2940 1.524 . S
C2940 C2939 1.524 . S
C2940 C2941 1.397 . S
C2940 C2945 1.363 . S
C2941 H2912 0.950 . S
C2941 C2940 1.397 . S
C2941 C2942 1.334 . S
C2942 H2913 0.950 . S
C2942 C2941 1.334 . S
C2942 C2943 1.287 . S
C2943 C2942 1.287 . S
C2943 C2944 1.524 . S
C2943 H2946 0.999 . S
C2944 H2914 0.950 . S
C2944 C2943 1.524 . S
C2944 C2945 1.415 . S
C2945 H2915 0.950 . S
C2945 C2940 1.363 . S
C2945 C2944 1.415 . S
H2946 C2943 0.999 . S
H2947 C2928 0.913 . S
H2948 C2966 0.951 . S
H2949 C2968 0.951 . S
H2950 C2970 0.950 . S
H2951 C2971 0.950 . S
H2952 C2973 0.950 . S
H2953 C2976 0.950 . S
H2954 C2977 0.950 . S
H2955 C2979 0.950 . S
H2956 C2980 0.950 . S
H2957 C2981 0.951 . S
H2958 C2983 0.951 . S
H2959 C2985 0.950 . S
H2960 C2986 0.950 . S
H2961 C2988 0.950 . S
H2962 C2991 0.950 . S
H2963 C2992 0.950 . S
H2964 C2994 0.950 . S
H2965 C2995 0.950 . S
C2966 H2948 0.951 . S
C2966 C2967 1.366 . S
C2966 C2968 1.388 . S
C2967 C2966 1.366 . S
C2967 C2971 1.385 . S
C2968 H2949 0.951 . S
C2968 C2966 1.388 . S
C2968 C2969 1.366 . S
C2969 C2968 1.366 . S
C2969 C2970 1.414 . S
C2969 C2972 1.499 . S
C2970 H2950 0.950 . S
C2970 C2969 1.414 . S
C2970 C2971 1.374 . S
C2971 H2951 0.950 . S
C2971 C2967 1.385 . S
C2971 C2970 1.374 . S
C2972 C2969 1.499 . S
C2972 C2973 1.373 . S
C2972 C2974 1.389 . S
C2973 H2952 0.950 . S
C2973 C2972 1.373 . S
C2973 C2989 1.377 . S
C2974 C2972 1.389 . S
C2974 C2975 1.524 . S
C2974 C2988 1.377 . S
C2975 C2974 1.524 . S
C2975 C2976 1.397 . S
C2975 C2980 1.363 . S
C2976 H2953 0.950 . S
C2976 C2975 1.397 . S
C2976 C2977 1.334 . S
C2977 H2954 0.950 . S
C2977 C2976 1.334 . S
C2977 C2978 1.287 . S
C2978 C2977 1.287 . S
C2978 C2979 1.524 . S
C2978 H2997 0.913 . S
C2979 H2955 0.950 . S
C2979 C2978 1.524 . S
C2979 C2980 1.415 . S
C2980 H2956 0.950 . S
C2980 C2975 1.363 . S
C2980 C2979 1.415 . S
C2981 H2957 0.951 . S
C2981 C2982 1.366 . S
C2981 C2983 1.388 . S
C2982 C2981 1.366 . S
C2982 C2986 1.385 . S
C2983 H2958 0.951 . S
C2983 C2981 1.388 . S
C2983 C2984 1.366 . S
C2984 C2983 1.366 . S
C2984 C2985 1.414 . S
C2984 C2987 1.499 . S
C2985 H2959 0.950 . S
C2985 C2984 1.414 . S
C2985 C2986 1.374 . S
C2986 H2960 0.950 . S
C2986 C2982 1.385 . S
C2986 C2985 1.374 . S
C2987 C2984 1.499 . S
C2987 C2988 1.373 . S
C2987 C2989 1.389 . S
C2988 H2961 0.950 . S
C2988 C2974 1.377 . S
C2988 C2987 1.373 . S
C2989 C2973 1.377 . S
C2989 C2987 1.389 . S
C2989 C2990 1.524 . S
C2990 C2989 1.524 . S
C2990 C2991 1.397 . S
C2990 C2995 1.363 . S
C2991 H2962 0.950 . S
C2991 C2990 1.397 . S
C2991 C2992 1.334 . S
C2992 H2963 0.950 . S
C2992 C2991 1.334 . S
C2992 C2993 1.287 . S
C2993 C2992 1.287 . S
C2993 C2994 1.524 . S
C2993 H2996 0.999 . S
C2994 H2964 0.950 . S
C2994 C2993 1.524 . S
C2994 C2995 1.415 . S
C2995 H2965 0.950 . S
C2995 C2990 1.363 . S
C2995 C2994 1.415 . S
H2996 C2993 0.999 . S
H2997 C2978 0.913 . S
H2998 C3016 0.951 . S
H2999 C3018 0.951 . S
H3000 C3020 0.950 . S
H3001 C3021 0.950 . S
H3002 C3023 0.950 . S
H3003 C3026 0.950 . S
H3004 C3027 0.950 . S
H3005 C3029 0.950 . S
H3006 C3030 0.950 . S
H3007 C3031 0.951 . S
H3008 C3033 0.951 . S
H3009 C3035 0.950 . S
H3010 C3036 0.950 . S
H3011 C3038 0.950 . S
H3012 C3041 0.950 . S
H3013 C3042 0.950 . S
H3014 C3044 0.950 . S
H3015 C3045 0.950 . S
C3016 H2998 0.951 . S
C3016 C3017 1.366 . S
C3016 C3018 1.388 . S
C3017 C3016 1.366 . S
C3017 C3021 1.385 . S
C3018 H2999 0.951 . S
C3018 C3016 1.388 . S
C3018 C3019 1.366 . S
C3019 C3018 1.366 . S
C3019 C3020 1.414 . S
C3019 C3022 1.499 . S
C3020 H3000 0.950 . S
C3020 C3019 1.414 . S
C3020 C3021 1.374 . S
C3021 H3001 0.950 . S
C3021 C3017 1.385 . S
C3021 C3020 1.374 . S
C3022 C3019 1.499 . S
C3022 C3023 1.373 . S
C3022 C3024 1.389 . S
C3023 H3002 0.950 . S
C3023 C3022 1.373 . S
C3023 C3039 1.377 . S
C3024 C3022 1.389 . S
C3024 C3025 1.524 . S
C3024 C3038 1.377 . S
C3025 C3024 1.524 . S
C3025 C3026 1.397 . S
C3025 C3030 1.363 . S
C3026 H3003 0.950 . S
C3026 C3025 1.397 . S
C3026 C3027 1.334 . S
C3027 H3004 0.950 . S
C3027 C3026 1.334 . S
C3027 C3028 1.287 . S
C3028 C3027 1.287 . S
C3028 C3029 1.524 . S
C3028 H3047 0.913 . S
C3029 H3005 0.950 . S
C3029 C3028 1.524 . S
C3029 C3030 1.415 . S
C3030 H3006 0.950 . S
C3030 C3025 1.363 . S
C3030 C3029 1.415 . S
C3031 H3007 0.951 . S
C3031 C3032 1.366 . S
C3031 C3033 1.388 . S
C3032 C3031 1.366 . S
C3032 C3036 1.385 . S
C3033 H3008 0.951 . S
C3033 C3031 1.388 . S
C3033 C3034 1.366 . S
C3034 C3033 1.366 . S
C3034 C3035 1.414 . S
C3034 C3037 1.499 . S
C3035 H3009 0.950 . S
C3035 C3034 1.414 . S
C3035 C3036 1.374 . S
C3036 H3010 0.950 . S
C3036 C3032 1.385 . S
C3036 C3035 1.374 . S
C3037 C3034 1.499 . S
C3037 C3038 1.373 . S
C3037 C3039 1.389 . S
C3038 H3011 0.950 . S
C3038 C3024 1.377 . S
C3038 C3037 1.373 . S
C3039 C3023 1.377 . S
C3039 C3037 1.389 . S
C3039 C3040 1.524 . S
C3040 C3039 1.524 . S
C3040 C3041 1.397 . S
C3040 C3045 1.363 . S
C3041 H3012 0.950 . S
C3041 C3040 1.397 . S
C3041 C3042 1.334 . S
C3042 H3013 0.950 . S
C3042 C3041 1.334 . S
C3042 C3043 1.287 . S
C3043 C3042 1.287 . S
C3043 C3044 1.524 . S
C3043 H3046 0.999 . S
C3044 H3014 0.950 . S
C3044 C3043 1.524 . S
C3044 C3045 1.415 . S
C3045 H3015 0.950 . S
C3045 C3040 1.363 . S
C3045 C3044 1.415 . S
H3046 C3043 0.999 . S
H3047 C3028 0.913 . S
H3048 C3066 0.951 . S
H3049 C3068 0.951 . S
H3050 C3070 0.950 . S
H3051 C3071 0.950 . S
H3052 C3073 0.950 . S
H3053 C3076 0.950 . S
H3054 C3077 0.950 . S
H3055 C3079 0.950 . S
H3056 C3080 0.950 . S
H3057 C3081 0.951 . S
H3058 C3083 0.951 . S
H3059 C3085 0.950 . S
H3060 C3086 0.950 . S
H3061 C3088 0.950 . S
H3062 C3091 0.950 . S
H3063 C3092 0.950 . S
H3064 C3094 0.950 . S
H3065 C3095 0.950 . S
C3066 H3048 0.951 . S
C3066 C3067 1.366 . S
C3066 C3068 1.388 . S
C3067 C3066 1.366 . S
C3067 C3071 1.385 . S
C3068 H3049 0.951 . S
C3068 C3066 1.388 . S
C3068 C3069 1.366 . S
C3069 C3068 1.366 . S
C3069 C3070 1.414 . S
C3069 C3072 1.499 . S
C3070 H3050 0.950 . S
C3070 C3069 1.414 . S
C3070 C3071 1.374 . S
C3071 H3051 0.950 . S
C3071 C3067 1.385 . S
C3071 C3070 1.374 . S
C3072 C3069 1.499 . S
C3072 C3073 1.373 . S
C3072 C3074 1.389 . S
C3073 H3052 0.950 . S
C3073 C3072 1.373 . S
C3073 C3089 1.377 . S
C3074 C3072 1.389 . S
C3074 C3075 1.524 . S
C3074 C3088 1.377 . S
C3075 C3074 1.524 . S
C3075 C3076 1.397 . S
C3075 C3080 1.363 . S
C3076 H3053 0.950 . S
C3076 C3075 1.397 . S
C3076 C3077 1.334 . S
C3077 H3054 0.950 . S
C3077 C3076 1.334 . S
C3077 C3078 1.287 . S
C3078 C3077 1.287 . S
C3078 C3079 1.524 . S
C3078 H3097 0.913 . S
C3079 H3055 0.950 . S
C3079 C3078 1.524 . S
C3079 C3080 1.415 . S
C3080 H3056 0.950 . S
C3080 C3075 1.363 . S
C3080 C3079 1.415 . S
C3081 H3057 0.951 . S
C3081 C3082 1.366 . S
C3081 C3083 1.388 . S
C3082 C3081 1.366 . S
C3082 C3086 1.385 . S
C3083 H3058 0.951 . S
C3083 C3081 1.388 . S
C3083 C3084 1.366 . S
C3084 C3083 1.366 . S
C3084 C3085 1.414 . S
C3084 C3087 1.499 . S
C3085 H3059 0.950 . S
C3085 C3084 1.414 . S
C3085 C3086 1.374 . S
C3086 H3060 0.950 . S
C3086 C3082 1.385 . S
C3086 C3085 1.374 . S
C3087 C3084 1.499 . S
C3087 C3088 1.373 . S
C3087 C3089 1.389 . S
C3088 H3061 0.950 . S
C3088 C3074 1.377 . S
C3088 C3087 1.373 . S
C3089 C3073 1.377 . S
C3089 C3087 1.389 . S
C3089 C3090 1.524 . S
C3090 C3089 1.524 . S
C3090 C3091 1.397 . S
C3090 C3095 1.363 . S
C3091 H3062 0.950 . S
C3091 C3090 1.397 . S
C3091 C3092 1.334 . S
C3092 H3063 0.950 . S
C3092 C3091 1.334 . S
C3092 C3093 1.287 . S
C3093 C3092 1.287 . S
C3093 C3094 1.524 . S
C3093 H3096 0.999 . S
C3094 H3064 0.950 . S
C3094 C3093 1.524 . S
C3094 C3095 1.415 . S
C3095 H3065 0.950 . S
C3095 C3090 1.363 . S
C3095 C3094 1.415 . S
H3096 C3093 0.999 . S
H3097 C3078 0.913 . S
H3098 C3116 0.951 . S
H3099 C3118 0.951 . S
H3100 C3120 0.950 . S
H3101 C3121 0.950 . S
H3102 C3123 0.950 . S
H3103 C3126 0.950 . S
H3104 C3127 0.950 . S
H3105 C3129 0.950 . S
H3106 C3130 0.950 . S
H3107 C3131 0.951 . S
H3108 C3133 0.951 . S
H3109 C3135 0.950 . S
H3110 C3136 0.950 . S
H3111 C3138 0.950 . S
H3112 C3141 0.950 . S
H3113 C3142 0.950 . S
H3114 C3144 0.950 . S
H3115 C3145 0.950 . S
C3116 H3098 0.951 . S
C3116 C3117 1.366 . S
C3116 C3118 1.388 . S
C3117 C3116 1.366 . S
C3117 C3121 1.385 . S
C3118 H3099 0.951 . S
C3118 C3116 1.388 . S
C3118 C3119 1.366 . S
C3119 C3118 1.366 . S
C3119 C3120 1.414 . S
C3119 C3122 1.499 . S
C3120 H3100 0.950 . S
C3120 C3119 1.414 . S
C3120 C3121 1.374 . S
C3121 H3101 0.950 . S
C3121 C3117 1.385 . S
C3121 C3120 1.374 . S
C3122 C3119 1.499 . S
C3122 C3123 1.373 . S
C3122 C3124 1.389 . S
C3123 H3102 0.950 . S
C3123 C3122 1.373 . S
C3123 C3139 1.377 . S
C3124 C3122 1.389 . S
C3124 C3125 1.524 . S
C3124 C3138 1.377 . S
C3125 C3124 1.524 . S
C3125 C3126 1.397 . S
C3125 C3130 1.363 . S
C3126 H3103 0.950 . S
C3126 C3125 1.397 . S
C3126 C3127 1.334 . S
C3127 H3104 0.950 . S
C3127 C3126 1.334 . S
C3127 C3128 1.287 . S
C3128 C3127 1.287 . S
C3128 C3129 1.524 . S
C3128 H3147 0.913 . S
C3129 H3105 0.950 . S
C3129 C3128 1.524 . S
C3129 C3130 1.415 . S
C3130 H3106 0.950 . S
C3130 C3125 1.363 . S
C3130 C3129 1.415 . S
C3131 H3107 0.951 . S
C3131 C3132 1.366 . S
C3131 C3133 1.388 . S
C3132 C3131 1.366 . S
C3132 C3136 1.385 . S
C3133 H3108 0.951 . S
C3133 C3131 1.388 . S
C3133 C3134 1.366 . S
C3134 C3133 1.366 . S
C3134 C3135 1.414 . S
C3134 C3137 1.499 . S
C3135 H3109 0.950 . S
C3135 C3134 1.414 . S
C3135 C3136 1.374 . S
C3136 H3110 0.950 . S
C3136 C3132 1.385 . S
C3136 C3135 1.374 . S
C3137 C3134 1.499 . S
C3137 C3138 1.373 . S
C3137 C3139 1.389 . S
C3138 H3111 0.950 . S
C3138 C3124 1.377 . S
C3138 C3137 1.373 . S
C3139 C3123 1.377 . S
C3139 C3137 1.389 . S
C3139 C3140 1.524 . S
C3140 C3139 1.524 . S
C3140 C3141 1.397 . S
C3140 C3145 1.363 . S
C3141 H3112 0.950 . S
C3141 C3140 1.397 . S
C3141 C3142 1.334 . S
C3142 H3113 0.950 . S
C3142 C3141 1.334 . S
C3142 C3143 1.287 . S
C3143 C3142 1.287 . S
C3143 C3144 1.524 . S
C3143 H3146 0.999 . S
C3144 H3114 0.950 . S
C3144 C3143 1.524 . S
C3144 C3145 1.415 . S
C3145 H3115 0.950 . S
C3145 C3140 1.363 . S
C3145 C3144 1.415 . S
H3146 C3143 0.999 . S
H3147 C3128 0.913 . S
H3148 C3166 0.951 . S
H3149 C3168 0.951 . S
H3150 C3170 0.950 . S
H3151 C3171 0.950 . S
H3152 C3173 0.950 . S
H3153 C3176 0.950 . S
H3154 C3177 0.950 . S
H3155 C3179 0.950 . S
H3156 C3180 0.950 . S
H3157 C3181 0.951 . S
H3158 C3183 0.951 . S
H3159 C3185 0.950 . S
H3160 C3186 0.950 . S
H3161 C3188 0.950 . S
H3162 C3191 0.950 . S
H3163 C3192 0.950 . S
H3164 C3194 0.950 . S
H3165 C3195 0.950 . S
C3166 H3148 0.951 . S
C3166 C3167 1.366 . S
C3166 C3168 1.388 . S
C3167 C3166 1.366 . S
C3167 C3171 1.385 . S
C3168 H3149 0.951 . S
C3168 C3166 1.388 . S
C3168 C3169 1.366 . S
C3169 C3168 1.366 . S
C3169 C3170 1.414 . S
C3169 C3172 1.499 . S
C3170 H3150 0.950 . S
C3170 C3169 1.414 . S
C3170 C3171 1.374 . S
C3171 H3151 0.950 . S
C3171 C3167 1.385 . S
C3171 C3170 1.374 . S
C3172 C3169 1.499 . S
C3172 C3173 1.373 . S
C3172 C3174 1.389 . S
C3173 H3152 0.950 . S
C3173 C3172 1.373 . S
C3173 C3189 1.377 . S
C3174 C3172 1.389 . S
C3174 C3175 1.524 . S
C3174 C3188 1.377 . S
C3175 C3174 1.524 . S
C3175 C3176 1.397 . S
C3175 C3180 1.363 . S
C3176 H3153 0.950 . S
C3176 C3175 1.397 . S
C3176 C3177 1.334 . S
C3177 H3154 0.950 . S
C3177 C3176 1.334 . S
C3177 C3178 1.287 . S
C3178 C3177 1.287 . S
C3178 C3179 1.524 . S
C3178 H3197 0.913 . S
C3179 H3155 0.950 . S
C3179 C3178 1.524 . S
C3179 C3180 1.415 . S
C3180 H3156 0.950 . S
C3180 C3175 1.363 . S
C3180 C3179 1.415 . S
C3181 H3157 0.951 . S
C3181 C3182 1.366 . S
C3181 C3183 1.388 . S
C3182 C3181 1.366 . S
C3182 C3186 1.385 . S
C3183 H3158 0.951 . S
C3183 C3181 1.388 . S
C3183 C3184 1.366 . S
C3184 C3183 1.366 . S
C3184 C3185 1.414 . S
C3184 C3187 1.499 . S
C3185 H3159 0.950 . S
C3185 C3184 1.414 . S
C3185 C3186 1.374 . S
C3186 H3160 0.950 . S
C3186 C3182 1.385 . S
C3186 C3185 1.374 . S
C3187 C3184 1.499 . S
C3187 C3188 1.373 . S
C3187 C3189 1.389 . S
C3188 H3161 0.950 . S
C3188 C3174 1.377 . S
C3188 C3187 1.373 . S
C3189 C3173 1.377 . S
C3189 C3187 1.389 . S
C3189 C3190 1.524 . S
C3190 C3189 1.524 . S
C3190 C3191 1.397 . S
C3190 C3195 1.363 . S
C3191 H3162 0.950 . S
C3191 C3190 1.397 . S
C3191 C3192 1.334 . S
C3192 H3163 0.950 . S
C3192 C3191 1.334 . S
C3192 C3193 1.287 . S
C3193 C3192 1.287 . S
C3193 C3194 1.524 . S
C3193 H3196 0.999 . S
C3194 H3164 0.950 . S
C3194 C3193 1.524 . S
C3194 C3195 1.415 . S
C3195 H3165 0.950 . S
C3195 C3190 1.363 . S
C3195 C3194 1.415 . S
H3196 C3193 0.999 . S
H3197 C3178 0.913 . S
H3198 C3216 0.951 . S
H3199 C3218 0.951 . S
H3200 C3220 0.950 . S
H3201 C3221 0.950 . S
H3202 C3223 0.950 . S
H3203 C3226 0.950 . S
H3204 C3227 0.950 . S
H3205 C3229 0.950 . S
H3206 C3230 0.950 . S
H3207 C3231 0.951 . S
H3208 C3233 0.951 . S
H3209 C3235 0.950 . S
H3210 C3236 0.950 . S
H3211 C3238 0.950 . S
H3212 C3241 0.950 . S
H3213 C3242 0.950 . S
H3214 C3244 0.950 . S
H3215 C3245 0.950 . S
C3216 H3198 0.951 . S
C3216 C3217 1.366 . S
C3216 C3218 1.388 . S
C3217 C3216 1.366 . S
C3217 C3221 1.385 . S
C3218 H3199 0.951 . S
C3218 C3216 1.388 . S
C3218 C3219 1.366 . S
C3219 C3218 1.366 . S
C3219 C3220 1.414 . S
C3219 C3222 1.499 . S
C3220 H3200 0.950 . S
C3220 C3219 1.414 . S
C3220 C3221 1.374 . S
C3221 H3201 0.950 . S
C3221 C3217 1.385 . S
C3221 C3220 1.374 . S
C3222 C3219 1.499 . S
C3222 C3223 1.373 . S
C3222 C3224 1.389 . S
C3223 H3202 0.950 . S
C3223 C3222 1.373 . S
C3223 C3239 1.377 . S
C3224 C3222 1.389 . S
C3224 C3225 1.524 . S
C3224 C3238 1.377 . S
C3225 C3224 1.524 . S
C3225 C3226 1.397 . S
C3225 C3230 1.363 . S
C3226 H3203 0.950 . S
C3226 C3225 1.397 . S
C3226 C3227 1.334 . S
C3227 H3204 0.950 . S
C3227 C3226 1.334 . S
C3227 C3228 1.287 . S
C3228 C3227 1.287 . S
C3228 C3229 1.524 . S
C3228 H3247 0.913 . S
C3229 H3205 0.950 . S
C3229 C3228 1.524 . S
C3229 C3230 1.415 . S
C3230 H3206 0.950 . S
C3230 C3225 1.363 . S
C3230 C3229 1.415 . S
C3231 H3207 0.951 . S
C3231 C3232 1.366 . S
C3231 C3233 1.388 . S
C3232 C3231 1.366 . S
C3232 C3236 1.385 . S
C3233 H3208 0.951 . S
C3233 C3231 1.388 . S
C3233 C3234 1.366 . S
C3234 C3233 1.366 . S
C3234 C3235 1.414 . S
C3234 C3237 1.499 . S
C3235 H3209 0.950 . S
C3235 C3234 1.414 . S
C3235 C3236 1.374 . S
C3236 H3210 0.950 . S
C3236 C3232 1.385 . S
C3236 C3235 1.374 . S
C3237 C3234 1.499 . S
C3237 C3238 1.373 . S
C3237 C3239 1.389 . S
C3238 H3211 0.950 . S
C3238 C3224 1.377 . S
C3238 C3237 1.373 . S
C3239 C3223 1.377 . S
C3239 C3237 1.389 . S
C3239 C3240 1.524 . S
C3240 C3239 1.524 . S
C3240 C3241 1.397 . S
C3240 C3245 1.363 . S
C3241 H3212 0.950 . S
C3241 C3240 1.397 . S
C3241 C3242 1.334 . S
C3242 H3213 0.950 . S
C3242 C3241 1.334 . S
C3242 C3243 1.287 . S
C3243 C3242 1.287 . S
C3243 C3244 1.524 . S
C3243 H3246 0.999 . S
C3244 H3214 0.950 . S
C3244 C3243 1.524 . S
C3244 C3245 1.415 . S
C3245 H3215 0.950 . S
C3245 C3240 1.363 . S
C3245 C3244 1.415 . S
H3246 C3243 0.999 . S
H3247 C3228 0.913 . S
H3248 C3266 0.951 . S
H3249 C3268 0.951 . S
H3250 C3270 0.950 . S
H3251 C3271 0.950 . S
H3252 C3273 0.950 . S
H3253 C3276 0.950 . S
H3254 C3277 0.950 . S
H3255 C3279 0.950 . S
H3256 C3280 0.950 . S
H3257 C3281 0.951 . S
H3258 C3283 0.951 . S
H3259 C3285 0.950 . S
H3260 C3286 0.950 . S
H3261 C3288 0.950 . S
H3262 C3291 0.950 . S
H3263 C3292 0.950 . S
H3264 C3294 0.950 . S
H3265 C3295 0.950 . S
C3266 H3248 0.951 . S
C3266 C3267 1.366 . S
C3266 C3268 1.388 . S
C3267 C3266 1.366 . S
C3267 C3271 1.385 . S
C3268 H3249 0.951 . S
C3268 C3266 1.388 . S
C3268 C3269 1.366 . S
C3269 C3268 1.366 . S
C3269 C3270 1.414 . S
C3269 C3272 1.499 . S
C3270 H3250 0.950 . S
C3270 C3269 1.414 . S
C3270 C3271 1.374 . S
C3271 H3251 0.950 . S
C3271 C3267 1.385 . S
C3271 C3270 1.374 . S
C3272 C3269 1.499 . S
C3272 C3273 1.373 . S
C3272 C3274 1.389 . S
C3273 H3252 0.950 . S
C3273 C3272 1.373 . S
C3273 C3289 1.377 . S
C3274 C3272 1.389 . S
C3274 C3275 1.524 . S
C3274 C3288 1.377 . S
C3275 C3274 1.524 . S
C3275 C3276 1.397 . S
C3275 C3280 1.363 . S
C3276 H3253 0.950 . S
C3276 C3275 1.397 . S
C3276 C3277 1.334 . S
C3277 H3254 0.950 . S
C3277 C3276 1.334 . S
C3277 C3278 1.287 . S
C3278 C3277 1.287 . S
C3278 C3279 1.524 . S
C3278 H3297 0.913 . S
C3279 H3255 0.950 . S
C3279 C3278 1.524 . S
C3279 C3280 1.415 . S
C3280 H3256 0.950 . S
C3280 C3275 1.363 . S
C3280 C3279 1.415 . S
C3281 H3257 0.951 . S
C3281 C3282 1.366 . S
C3281 C3283 1.388 . S
C3282 C3281 1.366 . S
C3282 C3286 1.385 . S
C3283 H3258 0.951 . S
C3283 C3281 1.388 . S
C3283 C3284 1.366 . S
C3284 C3283 1.366 . S
C3284 C3285 1.414 . S
C3284 C3287 1.499 . S
C3285 H3259 0.950 . S
C3285 C3284 1.414 . S
C3285 C3286 1.374 . S
C3286 H3260 0.950 . S
C3286 C3282 1.385 . S
C3286 C3285 1.374 . S
C3287 C3284 1.499 . S
C3287 C3288 1.373 . S
C3287 C3289 1.389 . S
C3288 H3261 0.950 . S
C3288 C3274 1.377 . S
C3288 C3287 1.373 . S
C3289 C3273 1.377 . S
C3289 C3287 1.389 . S
C3289 C3290 1.524 . S
C3290 C3289 1.524 . S
C3290 C3291 1.397 . S
C3290 C3295 1.363 . S
C3291 H3262 0.950 . S
C3291 C3290 1.397 . S
C3291 C3292 1.334 . S
C3292 H3263 0.950 . S
C3292 C3291 1.334 . S
C3292 C3293 1.287 . S
C3293 C3292 1.287 . S
C3293 C3294 1.524 . S
C3293 H3296 0.999 . S
C3294 H3264 0.950 . S
C3294 C3293 1.524 . S
C3294 C3295 1.415 . S
C3295 H3265 0.950 . S
C3295 C3290 1.363 . S
C3295 C3294 1.415 . S
H3296 C3293 0.999 . S
H3297 C3278 0.913 . S
H3298 C3316 0.951 . S
H3299 C3318 0.951 . S
H3300 C3320 0.950 . S
H3301 C3321 0.950 . S
H3302 C3323 0.950 . S
H3303 C3326 0.950 . S
H3304 C3327 0.950 . S
H3305 C3329 0.950 . S
H3306 C3330 0.950 . S
H3307 C3331 0.951 . S
H3308 C3333 0.951 . S
H3309 C3335 0.950 . S
H3310 C3336 0.950 . S
H3311 C3338 0.950 . S
H3312 C3341 0.950 . S
H3313 C3342 0.950 . S
H3314 C3344 0.950 . S
H3315 C3345 0.950 . S
C3316 H3298 0.951 . S
C3316 C3317 1.366 . S
C3316 C3318 1.388 . S
C3317 C3316 1.366 . S
C3317 C3321 1.385 . S
C3318 H3299 0.951 . S
C3318 C3316 1.388 . S
C3318 C3319 1.366 . S
C3319 C3318 1.366 . S
C3319 C3320 1.414 . S
C3319 C3322 1.499 . S
C3320 H3300 0.950 . S
C3320 C3319 1.414 . S
C3320 C3321 1.374 . S
C3321 H3301 0.950 . S
C3321 C3317 1.385 . S
C3321 C3320 1.374 . S
C3322 C3319 1.499 . S
C3322 C3323 1.373 . S
C3322 C3324 1.389 . S
C3323 H3302 0.950 . S
C3323 C3322 1.373 . S
C3323 C3339 1.377 . S
C3324 C3322 1.389 . S
C3324 C3325 1.524 . S
C3324 C3338 1.377 . S
C3325 C3324 1.524 . S
C3325 C3326 1.397 . S
C3325 C3330 1.363 . S
C3326 H3303 0.950 . S
C3326 C3325 1.397 . S
C3326 C3327 1.334 . S
C3327 H3304 0.950 . S
C3327 C3326 1.334 . S
C3327 C3328 1.287 . S
C3328 C3327 1.287 . S
C3328 C3329 1.524 . S
C3328 H3347 0.913 . S
C3329 H3305 0.950 . S
C3329 C3328 1.524 . S
C3329 C3330 1.415 . S
C3330 H3306 0.950 . S
C3330 C3325 1.363 . S
C3330 C3329 1.415 . S
C3331 H3307 0.951 . S
C3331 C3332 1.366 . S
C3331 C3333 1.388 . S
C3332 C3331 1.366 . S
C3332 C3336 1.385 . S
C3333 H3308 0.951 . S
C3333 C3331 1.388 . S
C3333 C3334 1.366 . S
C3334 C3333 1.366 . S
C3334 C3335 1.414 . S
C3334 C3337 1.499 . S
C3335 H3309 0.950 . S
C3335 C3334 1.414 . S
C3335 C3336 1.374 . S
C3336 H3310 0.950 . S
C3336 C3332 1.385 . S
C3336 C3335 1.374 . S
C3337 C3334 1.499 . S
C3337 C3338 1.373 . S
C3337 C3339 1.389 . S
C3338 H3311 0.950 . S
C3338 C3324 1.377 . S
C3338 C3337 1.373 . S
C3339 C3323 1.377 . S
C3339 C3337 1.389 . S
C3339 C3340 1.524 . S
C3340 C3339 1.524 . S
C3340 C3341 1.397 . S
C3340 C3345 1.363 . S
C3341 H3312 0.950 . S
C3341 C3340 1.397 . S
C3341 C3342 1.334 . S
C3342 H3313 0.950 . S
C3342 C3341 1.334 . S
C3342 C3343 1.287 . S
C3343 C3342 1.287 . S
C3343 C3344 1.524 . S
C3343 H3346 0.999 . S
C3344 H3314 0.950 . S
C3344 C3343 1.524 . S
C3344 C3345 1.415 . S
C3345 H3315 0.950 . S
C3345 C3340 1.363 . S
C3345 C3344 1.415 . S
H3346 C3343 0.999 . S
H3347 C3328 0.913 . S
H3348 C3366 0.951 . S
H3349 C3368 0.951 . S
H3350 C3370 0.950 . S
H3351 C3371 0.950 . S
H3352 C3373 0.950 . S
H3353 C3376 0.950 . S
H3354 C3377 0.950 . S
H3355 C3379 0.950 . S
H3356 C3380 0.950 . S
H3357 C3381 0.951 . S
H3358 C3383 0.951 . S
H3359 C3385 0.950 . S
H3360 C3386 0.950 . S
H3361 C3388 0.950 . S
H3362 C3391 0.950 . S
H3363 C3392 0.950 . S
H3364 C3394 0.950 . S
H3365 C3395 0.950 . S
C3366 H3348 0.951 . S
C3366 C3367 1.366 . S
C3366 C3368 1.388 . S
C3367 C3366 1.366 . S
C3367 C3371 1.385 . S
C3368 H3349 0.951 . S
C3368 C3366 1.388 . S
C3368 C3369 1.366 . S
C3369 C3368 1.366 . S
C3369 C3370 1.414 . S
C3369 C3372 1.499 . S
C3370 H3350 0.950 . S
C3370 C3369 1.414 . S
C3370 C3371 1.374 . S
C3371 H3351 0.950 . S
C3371 C3367 1.385 . S
C3371 C3370 1.374 . S
C3372 C3369 1.499 . S
C3372 C3373 1.373 . S
C3372 C3374 1.389 . S
C3373 H3352 0.950 . S
C3373 C3372 1.373 . S
C3373 C3389 1.377 . S
C3374 C3372 1.389 . S
C3374 C3375 1.524 . S
C3374 C3388 1.377 . S
C3375 C3374 1.524 . S
C3375 C3376 1.397 . S
C3375 C3380 1.363 . S
C3376 H3353 0.950 . S
C3376 C3375 1.397 . S
C3376 C3377 1.334 . S
C3377 H3354 0.950 . S
C3377 C3376 1.334 . S
C3377 C3378 1.287 . S
C3378 C3377 1.287 . S
C3378 C3379 1.524 . S
C3378 H3397 0.913 . S
C3379 H3355 0.950 . S
C3379 C3378 1.524 . S
C3379 C3380 1.415 . S
C3380 H3356 0.950 . S
C3380 C3375 1.363 . S
C3380 C3379 1.415 . S
C3381 H3357 0.951 . S
C3381 C3382 1.366 . S
C3381 C3383 1.388 . S
C3382 C3381 1.366 . S
C3382 C3386 1.385 . S
C3383 H3358 0.951 . S
C3383 C3381 1.388 . S
C3383 C3384 1.366 . S
C3384 C3383 1.366 . S
C3384 C3385 1.414 . S
C3384 C3387 1.499 . S
C3385 H3359 0.950 . S
C3385 C3384 1.414 . S
C3385 C3386 1.374 . S
C3386 H3360 0.950 . S
C3386 C3382 1.385 . S
C3386 C3385 1.374 . S
C3387 C3384 1.499 . S
C3387 C3388 1.373 . S
C3387 C3389 1.389 . S
C3388 H3361 0.950 . S
C3388 C3374 1.377 . S
C3388 C3387 1.373 . S
C3389 C3373 1.377 . S
C3389 C3387 1.389 . S
C3389 C3390 1.524 . S
C3390 C3389 1.524 . S
C3390 C3391 1.397 . S
C3390 C3395 1.363 . S
C3391 H3362 0.950 . S
C3391 C3390 1.397 . S
C3391 C3392 1.334 . S
C3392 H3363 0.950 . S
C3392 C3391 1.334 . S
C3392 C3393 1.287 . S
C3393 C3392 1.287 . S
C3393 C3394 1.524 . S
C3393 H3396 0.999 . S
C3394 H3364 0.950 . S
C3394 C3393 1.524 . S
C3394 C3395 1.415 . S
C3395 H3365 0.950 . S
C3395 C3390 1.363 . S
C3395 C3394 1.415 . S
H3396 C3393 0.999 . S
H3397 C3378 0.913 . S
H3398 C3416 0.951 . S
H3399 C3418 0.951 . S
H3400 C3420 0.950 . S
H3401 C3421 0.950 . S
H3402 C3423 0.950 . S
H3403 C3426 0.950 . S
H3404 C3427 0.950 . S
H3405 C3429 0.950 . S
H3406 C3430 0.950 . S
H3407 C3431 0.951 . S
H3408 C3433 0.951 . S
H3409 C3435 0.950 . S
H3410 C3436 0.950 . S
H3411 C3438 0.950 . S
H3412 C3441 0.950 . S
H3413 C3442 0.950 . S
H3414 C3444 0.950 . S
H3415 C3445 0.950 . S
C3416 H3398 0.951 . S
C3416 C3417 1.366 . S
C3416 C3418 1.388 . S
C3417 C3416 1.366 . S
C3417 C3421 1.385 . S
C3418 H3399 0.951 . S
C3418 C3416 1.388 . S
C3418 C3419 1.366 . S
C3419 C3418 1.366 . S
C3419 C3420 1.414 . S
C3419 C3422 1.499 . S
C3420 H3400 0.950 . S
C3420 C3419 1.414 . S
C3420 C3421 1.374 . S
C3421 H3401 0.950 . S
C3421 C3417 1.385 . S
C3421 C3420 1.374 . S
C3422 C3419 1.499 . S
C3422 C3423 1.373 . S
C3422 C3424 1.389 . S
C3423 H3402 0.950 . S
C3423 C3422 1.373 . S
C3423 C3439 1.377 . S
C3424 C3422 1.389 . S
C3424 C3425 1.524 . S
C3424 C3438 1.377 . S
C3425 C3424 1.524 . S
C3425 C3426 1.397 . S
C3425 C3430 1.363 . S
C3426 H3403 0.950 . S
C3426 C3425 1.397 . S
C3426 C3427 1.334 . S
C3427 H3404 0.950 . S
C3427 C3426 1.334 . S
C3427 C3428 1.287 . S
C3428 C3427 1.287 . S
C3428 C3429 1.524 . S
C3428 H3447 0.913 . S
C3429 H3405 0.950 . S
C3429 C3428 1.524 . S
C3429 C3430 1.415 . S
C3430 H3406 0.950 . S
C3430 C3425 1.363 . S
C3430 C3429 1.415 . S
C3431 H3407 0.951 . S
C3431 C3432 1.366 . S
C3431 C3433 1.388 . S
C3432 C3431 1.366 . S
C3432 C3436 1.385 . S
C3433 H3408 0.951 . S
C3433 C3431 1.388 . S
C3433 C3434 1.366 . S
C3434 C3433 1.366 . S
C3434 C3435 1.414 . S
C3434 C3437 1.499 . S
C3435 H3409 0.950 . S
C3435 C3434 1.414 . S
C3435 C3436 1.374 . S
C3436 H3410 0.950 . S
C3436 C3432 1.385 . S
C3436 C3435 1.374 . S
C3437 C3434 1.499 . S
C3437 C3438 1.373 . S
C3437 C3439 1.389 . S
C3438 H3411 0.950 . S
C3438 C3424 1.377 . S
C3438 C3437 1.373 . S
C3439 C3423 1.377 . S
C3439 C3437 1.389 . S
C3439 C3440 1.524 . S
C3440 C3439 1.524 . S
C3440 C3441 1.397 . S
C3440 C3445 1.363 . S
C3441 H3412 0.950 . S
C3441 C3440 1.397 . S
C3441 C3442 1.334 . S
C3442 H3413 0.950 . S
C3442 C3441 1.334 . S
C3442 C3443 1.287 . S
C3443 C3442 1.287 . S
C3443 C3444 1.524 . S
C3443 H3446 0.999 . S
C3444 H3414 0.950 . S
C3444 C3443 1.524 . S
C3444 C3445 1.415 . S
C3445 H3415 0.950 . S
C3445 C3440 1.363 . S
C3445 C3444 1.415 . S
H3446 C3443 0.999 . S
H3447 C3428 0.913 . S
H3448 C3466 0.951 . S
H3449 C3468 0.951 . S
H3450 C3470 0.950 . S
H3451 C3471 0.950 . S
H3452 C3473 0.950 . S
H3453 C3476 0.950 . S
H3454 C3477 0.950 . S
H3455 C3479 0.950 . S
H3456 C3480 0.950 . S
H3457 C3481 0.951 . S
H3458 C3483 0.951 . S
H3459 C3485 0.950 . S
H3460 C3486 0.950 . S
H3461 C3488 0.950 . S
H3462 C3491 0.950 . S
H3463 C3492 0.950 . S
H3464 C3494 0.950 . S
H3465 C3495 0.950 . S
C3466 H3448 0.951 . S
C3466 C3467 1.366 . S
C3466 C3468 1.388 . S
C3467 C3466 1.366 . S
C3467 C3471 1.385 . S
C3468 H3449 0.951 . S
C3468 C3466 1.388 . S
C3468 C3469 1.366 . S
C3469 C3468 1.366 . S
C3469 C3470 1.414 . S
C3469 C3472 1.499 . S
C3470 H3450 0.950 . S
C3470 C3469 1.414 . S
C3470 C3471 1.374 . S
C3471 H3451 0.950 . S
C3471 C3467 1.385 . S
C3471 C3470 1.374 . S
C3472 C3469 1.499 . S
C3472 C3473 1.373 . S
C3472 C3474 1.389 . S
C3473 H3452 0.950 . S
C3473 C3472 1.373 . S
C3473 C3489 1.377 . S
C3474 C3472 1.389 . S
C3474 C3475 1.524 . S
C3474 C3488 1.377 . S
C3475 C3474 1.524 . S
C3475 C3476 1.397 . S
C3475 C3480 1.363 . S
C3476 H3453 0.950 . S
C3476 C3475 1.397 . S
C3476 C3477 1.334 . S
C3477 H3454 0.950 . S
C3477 C3476 1.334 . S
C3477 C3478 1.287 . S
C3478 C3477 1.287 . S
C3478 C3479 1.524 . S
C3478 H3497 0.913 . S
C3479 H3455 0.950 . S
C3479 C3478 1.524 . S
C3479 C3480 1.415 . S
C3480 H3456 0.950 . S
C3480 C3475 1.363 . S
C3480 C3479 1.415 . S
C3481 H3457 0.951 . S
C3481 C3482 1.366 . S
C3481 C3483 1.388 . S
C3482 C3481 1.366 . S
C3482 C3486 1.385 . S
C3483 H3458 0.951 . S
C3483 C3481 1.388 . S
C3483 C3484 1.366 . S
C3484 C3483 1.366 . S
C3484 C3485 1.414 . S
C3484 C3487 1.499 . S
C3485 H3459 0.950 . S
C3485 C3484 1.414 . S
C3485 C3486 1.374 . S
C3486 H3460 0.950 . S
C3486 C3482 1.385 . S
C3486 C3485 1.374 . S
C3487 C3484 1.499 . S
C3487 C3488 1.373 . S
C3487 C3489 1.389 . S
C3488 H3461 0.950 . S
C3488 C3474 1.377 . S
C3488 C3487 1.373 . S
C3489 C3473 1.377 . S
C3489 C3487 1.389 . S
C3489 C3490 1.524 . S
C3490 C3489 1.524 . S
C3490 C3491 1.397 . S
C3490 C3495 1.363 . S
C3491 H3462 0.950 . S
C3491 C3490 1.397 . S
C3491 C3492 1.334 . S
C3492 H3463 0.950 . S
C3492 C3491 1.334 . S
C3492 C3493 1.287 . S
C3493 C3492 1.287 . S
C3493 C3494 1.524 . S
C3493 H3496 0.999 . S
C3494 H3464 0.950 . S
C3494 C3493 1.524 . S
C3494 C3495 1.415 . S
C3495 H3465 0.950 . S
C3495 C3490 1.363 . S
C3495 C3494 1.415 . S
H3496 C3493 0.999 . S
H3497 C3478 0.913 . S
H3498 C3516 0.951 . S
H3499 C3518 0.951 . S
H3500 C3520 0.950 . S
H3501 C3521 0.950 . S
H3502 C3523 0.950 . S
H3503 C3526 0.950 . S
H3504 C3527 0.950 . S
H3505 C3529 0.950 . S
H3506 C3530 0.950 . S
H3507 C3531 0.951 . S
H3508 C3533 0.951 . S
H3509 C3535 0.950 . S
H3510 C3536 0.950 . S
H3511 C3538 0.950 . S
H3512 C3541 0.950 . S
H3513 C3542 0.950 . S
H3514 C3544 0.950 . S
H3515 C3545 0.950 . S
C3516 H3498 0.951 . S
C3516 C3517 1.366 . S
C3516 C3518 1.388 . S
C3517 C3516 1.366 . S
C3517 C3521 1.385 . S
C3518 H3499 0.951 . S
C3518 C3516 1.388 . S
C3518 C3519 1.366 . S
C3519 C3518 1.366 . S
C3519 C3520 1.414 . S
C3519 C3522 1.499 . S
C3520 H3500 0.950 . S
C3520 C3519 1.414 . S
C3520 C3521 1.374 . S
C3521 H3501 0.950 . S
C3521 C3517 1.385 . S
C3521 C3520 1.374 . S
C3522 C3519 1.499 . S
C3522 C3523 1.373 . S
C3522 C3524 1.389 . S
C3523 H3502 0.950 . S
C3523 C3522 1.373 . S
C3523 C3539 1.377 . S
C3524 C3522 1.389 . S
C3524 C3525 1.524 . S
C3524 C3538 1.377 . S
C3525 C3524 1.524 . S
C3525 C3526 1.397 . S
C3525 C3530 1.363 . S
C3526 H3503 0.950 . S
C3526 C3525 1.397 . S
C3526 C3527 1.334 . S
C3527 H3504 0.950 . S
C3527 C3526 1.334 . S
C3527 C3528 1.287 . S
C3528 C3527 1.287 . S
C3528 C3529 1.524 . S
C3528 H3547 0.913 . S
C3529 H3505 0.950 . S
C3529 C3528 1.524 . S
C3529 C3530 1.415 . S
C3530 H3506 0.950 . S
C3530 C3525 1.363 . S
C3530 C3529 1.415 . S
C3531 H3507 0.951 . S
C3531 C3532 1.366 . S
C3531 C3533 1.388 . S
C3532 C3531 1.366 . S
C3532 C3536 1.385 . S
C3533 H3508 0.951 . S
C3533 C3531 1.388 . S
C3533 C3534 1.366 . S
C3534 C3533 1.366 . S
C3534 C3535 1.414 . S
C3534 C3537 1.499 . S
C3535 H3509 0.950 . S
C3535 C3534 1.414 . S
C3535 C3536 1.374 . S
C3536 H3510 0.950 . S
C3536 C3532 1.385 . S
C3536 C3535 1.374 . S
C3537 C3534 1.499 . S
C3537 C3538 1.373 . S
C3537 C3539 1.389 . S
C3538 H3511 0.950 . S
C3538 C3524 1.377 . S
C3538 C3537 1.373 . S
C3539 C3523 1.377 . S
C3539 C3537 1.389 . S
C3539 C3540 1.524 . S
C3540 C3539 1.524 . S
C3540 C3541 1.397 . S
C3540 C3545 1.363 . S
C3541 H3512 0.950 . S
C3541 C3540 1.397 . S
C3541 C3542 1.334 . S
C3542 H3513 0.950 . S
C3542 C3541 1.334 . S
C3542 C3543 1.287 . S
C3543 C3542 1.287 . S
C3543 C3544 1.524 . S
C3543 H3546 0.999 . S
C3544 H3514 0.950 . S
C3544 C3543 1.524 . S
C3544 C3545 1.415 . S
C3545 H3515 0.950 . S
C3545 C3540 1.363 . S
C3545 C3544 1.415 . S
H3546 C3543 0.999 . S
H3547 C3528 0.913 . S
H3548 C3566 0.951 . S
H3549 C3568 0.951 . S
H3550 C3570 0.950 . S
H3551 C3571 0.950 . S
H3552 C3573 0.950 . S
H3553 C3576 0.950 . S
H3554 C3577 0.950 . S
H3555 C3579 0.950 . S
H3556 C3580 0.950 . S
H3557 C3581 0.951 . S
H3558 C3583 0.951 . S
H3559 C3585 0.950 . S
H3560 C3586 0.950 . S
H3561 C3588 0.950 . S
H3562 C3591 0.950 . S
H3563 C3592 0.950 . S
H3564 C3594 0.950 . S
H3565 C3595 0.950 . S
C3566 H3548 0.951 . S
C3566 C3567 1.366 . S
C3566 C3568 1.388 . S
C3567 C3566 1.366 . S
C3567 C3571 1.385 . S
C3568 H3549 0.951 . S
C3568 C3566 1.388 . S
C3568 C3569 1.366 . S
C3569 C3568 1.366 . S
C3569 C3570 1.414 . S
C3569 C3572 1.499 . S
C3570 H3550 0.950 . S
C3570 C3569 1.414 . S
C3570 C3571 1.374 . S
C3571 H3551 0.950 . S
C3571 C3567 1.385 . S
C3571 C3570 1.374 . S
C3572 C3569 1.499 . S
C3572 C3573 1.373 . S
C3572 C3574 1.389 . S
C3573 H3552 0.950 . S
C3573 C3572 1.373 . S
C3573 C3589 1.377 . S
C3574 C3572 1.389 . S
C3574 C3575 1.524 . S
C3574 C3588 1.377 . S
C3575 C3574 1.524 . S
C3575 C3576 1.397 . S
C3575 C3580 1.363 . S
C3576 H3553 0.950 . S
C3576 C3575 1.397 . S
C3576 C3577 1.334 . S
C3577 H3554 0.950 . S
C3577 C3576 1.334 . S
C3577 C3578 1.287 . S
C3578 C3577 1.287 . S
C3578 C3579 1.524 . S
C3578 H3597 0.913 . S
C3579 H3555 0.950 . S
C3579 C3578 1.524 . S
C3579 C3580 1.415 . S
C3580 H3556 0.950 . S
C3580 C3575 1.363 . S
C3580 C3579 1.415 . S
C3581 H3557 0.951 . S
C3581 C3582 1.366 . S
C3581 C3583 1.388 . S
C3582 C3581 1.366 . S
C3582 C3586 1.385 . S
C3583 H3558 0.951 . S
C3583 C3581 1.388 . S
C3583 C3584 1.366 . S
C3584 C3583 1.366 . S
C3584 C3585 1.414 . S
C3584 C3587 1.499 . S
C3585 H3559 0.950 . S
C3585 C3584 1.414 . S
C3585 C3586 1.374 . S
C3586 H3560 0.950 . S
C3586 C3582 1.385 . S
C3586 C3585 1.374 . S
C3587 C3584 1.499 . S
C3587 C3588 1.373 . S
C3587 C3589 1.389 . S
C3588 H3561 0.950 . S
C3588 C3574 1.377 . S
C3588 C3587 1.373 . S
C3589 C3573 1.377 . S
C3589 C3587 1.389 . S
C3589 C3590 1.524 . S
C3590 C3589 1.524 . S
C3590 C3591 1.397 . S
C3590 C3595 1.363 . S
C3591 H3562 0.950 . S
C3591 C3590 1.397 . S
C3591 C3592 1.334 . S
C3592 H3563 0.950 . S
C3592 C3591 1.334 . S
C3592 C3593 1.287 . S
C3593 C3592 1.287 . S
C3593 C3594 1.524 . S
C3593 H3596 0.999 . S
C3594 H3564 0.950 . S
C3594 C3593 1.524 . S
C3594 C3595 1.415 . S
C3595 H3565 0.950 . S
C3595 C3590 1.363 . S
C3595 C3594 1.415 . S
H3596 C3593 0.999 . S
H3597 C3578 0.913 . S
H3598 C3616 0.951 . S
H3599 C3618 0.951 . S
H3600 C3620 0.950 . S
H3601 C3621 0.950 . S
H3602 C3623 0.950 . S
H3603 C3626 0.950 . S
H3604 C3627 0.950 . S
H3605 C3629 0.950 . S
H3606 C3630 0.950 . S
H3607 C3631 0.951 . S
H3608 C3633 0.951 . S
H3609 C3635 0.950 . S
H3610 C3636 0.950 . S
H3611 C3638 0.950 . S
H3612 C3641 0.950 . S
H3613 C3642 0.950 . S
H3614 C3644 0.950 . S
H3615 C3645 0.950 . S
C3616 H3598 0.951 . S
C3616 C3617 1.366 . S
C3616 C3618 1.388 . S
C3617 C3616 1.366 . S
C3617 C3621 1.385 . S
C3618 H3599 0.951 . S
C3618 C3616 1.388 . S
C3618 C3619 1.366 . S
C3619 C3618 1.366 . S
C3619 C3620 1.414 . S
C3619 C3622 1.499 . S
C3620 H3600 0.950 . S
C3620 C3619 1.414 . S
C3620 C3621 1.374 . S
C3621 H3601 0.950 . S
C3621 C3617 1.385 . S
C3621 C3620 1.374 . S
C3622 C3619 1.499 . S
C3622 C3623 1.373 . S
C3622 C3624 1.389 . S
C3623 H3602 0.950 . S
C3623 C3622 1.373 . S
C3623 C3639 1.377 . S
C3624 C3622 1.389 . S
C3624 C3625 1.524 . S
C3624 C3638 1.377 . S
C3625 C3624 1.524 . S
C3625 C3626 1.397 . S
C3625 C3630 1.363 . S
C3626 H3603 0.950 . S
C3626 C3625 1.397 . S
C3626 C3627 1.334 . S
C3627 H3604 0.950 . S
C3627 C3626 1.334 . S
C3627 C3628 1.287 . S
C3628 C3627 1.287 . S
C3628 C3629 1.524 . S
C3628 H3647 0.913 . S
C3629 H3605 0.950 . S
C3629 C3628 1.524 . S
C3629 C3630 1.415 . S
C3630 H3606 0.950 . S
C3630 C3625 1.363 . S
C3630 C3629 1.415 . S
C3631 H3607 0.951 . S
C3631 C3632 1.366 . S
C3631 C3633 1.388 . S
C3632 C3631 1.366 . S
C3632 C3636 1.385 . S
C3633 H3608 0.951 . S
C3633 C3631 1.388 . S
C3633 C3634 1.366 . S
C3634 C3633 1.366 . S
C3634 C3635 1.414 . S
C3634 C3637 1.499 . S
C3635 H3609 0.950 . S
C3635 C3634 1.414 . S
C3635 C3636 1.374 . S
C3636 H3610 0.950 . S
C3636 C3632 1.385 . S
C3636 C3635 1.374 . S
C3637 C3634 1.499 . S
C3637 C3638 1.373 . S
C3637 C3639 1.389 . S
C3638 H3611 0.950 . S
C3638 C3624 1.377 . S
C3638 C3637 1.373 . S
C3639 C3623 1.377 . S
C3639 C3637 1.389 . S
C3639 C3640 1.524 . S
C3640 C3639 1.524 . S
C3640 C3641 1.397 . S
C3640 C3645 1.363 . S
C3641 H3612 0.950 . S
C3641 C3640 1.397 . S
C3641 C3642 1.334 . S
C3642 H3613 0.950 . S
C3642 C3641 1.334 . S
C3642 C3643 1.287 . S
C3643 C3642 1.287 . S
C3643 C3644 1.524 . S
C3643 H3646 0.999 . S
C3644 H3614 0.950 . S
C3644 C3643 1.524 . S
C3644 C3645 1.415 . S
C3645 H3615 0.950 . S
C3645 C3640 1.363 . S
C3645 C3644 1.415 . S
H3646 C3643 0.999 . S
H3647 C3628 0.913 . S
C467 C125 1.497 . S
C482 C13 1.497 . S
C517 C363 1.496 . S
C532 C27 1.496 . S
C567 C153 1.496 . S
C582 C41 1.496 . S
C617 C391 1.496 . S
C632 C55 1.496 . S
C667 C181 1.497 . S
C682 C69 1.497 . S
C717 C83 1.497 . S
C732 C419 1.497 . S
C767 C97 1.496 . S
C782 C209 1.496 . S
C817 C111 1.497 . S
C832 C447 1.497 . S
C867 C251 1.496 . S
C882 C139 1.496 . S
C917 C279 1.497 . S
C932 C167 1.497 . S
C967 C195 1.496 . S
C982 C307 1.496 . S
C1017 C223 1.497 . S
C1032 C335 1.497 . S
C1067 C237 1.496 . S
C1082 C349 1.496 . S
C1117 C377 1.497 . S
C1132 C265 1.497 . S
C1167 C293 1.497 . S
C1182 C405 1.497 . S
C1217 C433 1.496 . S
C1232 C321 1.496 . S
C1267 C260 1.204 . S
C1282 C8 1.205 . S
C1317 C274 1.205 . S
C1332 C22 1.205 . S
C1367 C36 1.205 . S
C1382 C232 1.205 . S
C1417 C50 1.205 . S
C1432 C246 1.205 . S
C1467 C316 1.206 . S
C1482 C64 1.205 . S
C1517 C78 1.205 . S
C1532 C330 1.205 . S
C1567 C288 1.205 . S
C1582 C92 1.205 . S
C1617 C302 1.205 . S
C1632 C106 1.205 . S
C1667 C120 1.205 . S
C1682 C372 1.205 . S
C1717 C386 1.205 . S
C1732 C134 1.205 . S
C1767 C148 1.206 . S
C1782 C344 1.206 . S
C1817 C162 1.205 . S
C1832 C358 1.205 . S
C1867 C176 1.205 . S
C1882 C428 1.205 . S
C1917 C190 1.205 . S
C1932 C442 1.205 . S
C1967 C400 1.205 . S
C1982 C204 1.205 . S
C2017 C414 1.205 . S
C2032 C218 1.206 . S
C2067 C95 1.309 . S
C2082 C11 1.309 . S
C2117 C109 1.310 . S
C2132 C25 1.310 . S
C2167 C67 1.310 . S
C2182 C39 1.310 . S
C2217 C53 1.310 . S
C2232 C81 1.310 . S
C2267 C207 1.309 . S
C2282 C123 1.309 . S
C2317 C221 1.310 . S
C2332 C137 1.310 . S
C2367 C179 1.310 . S
C2382 C151 1.310 . S
C2417 C193 1.310 . S
C2432 C165 1.310 . S
C2467 C319 1.310 . S
C2482 C235 1.310 . S
C2517 C333 1.310 . S
C2532 C249 1.310 . S
C2567 C263 1.309 . S
C2582 C291 1.309 . S
C2617 C277 1.310 . S
C2632 C305 1.310 . S
C2667 C431 1.310 . S
C2682 C347 1.310 . S
C2717 C445 1.310 . S
C2732 C361 1.310 . S
C2767 C375 1.309 . S
C2782 C403 1.309 . S
C2817 C389 1.310 . S
C2832 C417 1.310 . S
C2867 C7 1.478 . S
C2882 C301 1.478 . S
C2917 C315 1.478 . S
C2932 C21 1.478 . S
C2967 C329 1.478 . S
C2982 C35 1.478 . S
C3017 C49 1.478 . S
C3032 C287 1.478 . S
C3067 C273 1.478 . S
C3082 C63 1.478 . S
C3117 C77 1.478 . S
C3132 C231 1.478 . S
C3167 C245 1.478 . S
C3182 C91 1.478 . S
C3217 C105 1.478 . S
C3232 C259 1.478 . S
C3267 C413 1.478 . S
C3282 C119 1.478 . S
C3317 C427 1.478 . S
C3332 C133 1.478 . S
C3367 C147 1.478 . S
C3382 C441 1.478 . S
C3417 C399 1.478 . S
C3432 C161 1.478 . S
C3467 C385 1.478 . S
C3482 C175 1.478 . S
C3517 C189 1.478 . S
C3532 C343 1.478 . S
C3567 C357 1.478 . S
C3582 C203 1.478 . S
C3617 C217 1.478 . S
C3632 C371 1.478 . S
