# Generated by pormake.
# Topology qtz-e, (6)-cn, num edge types: 1
# Building blocks:
#     Node 0, Type 0, BuildingBlock: BETDEL_clean_sbu_0, # of connection points: 6
#     Node 1, Type 0, BuildingBlock: BETDEL_clean_sbu_0, # of connection points: 6
#     Node 2, Type 0, BuildingBlock: BETDEL_clean_sbu_0, # of connection points: 6
#     Node 3, Type 0, BuildingBlock: BETDEL_clean_sbu_0, # of connection points: 6
#     Node 4, Type 0, BuildingBlock: BETDEL_clean_sbu_0, # of connection points: 6
#     Node 5, Type 0, BuildingBlock: BETDEL_clean_sbu_0, # of connection points: 6
#     Edge 6, Type (0, 0), BuildingBlock: EZIPEK_clean_linker_0, # of connection points: 2
#     Edge 7, Type (0, 0), BuildingBlock: EZIPEK_clean_linker_0, # of connection points: 2
#     Edge 8, Type (0, 0), BuildingBlock: EZIPEK_clean_linker_0, # of connection points: 2
#     Edge 9, Type (0, 0), BuildingBlock: EZIPEK_clean_linker_0, # of connection points: 2
#     Edge 10, Type (0, 0), BuildingBlock: EZIPEK_clean_linker_0, # of connection points: 2
#     Edge 11, Type (0, 0), BuildingBlock: EZIPEK_clean_linker_0, # of connection points: 2
#     Edge 12, Type (0, 0), BuildingBlock: EZIPEK_clean_linker_0, # of connection points: 2
#     Edge 13, Type (0, 0), BuildingBlock: EZIPEK_clean_linker_0, # of connection points: 2
#     Edge 14, Type (0, 0), BuildingBlock: EZIPEK_clean_linker_0, # of connection points: 2
#     Edge 15, Type (0, 0), BuildingBlock: EZIPEK_clean_linker_0, # of connection points: 2
#     Edge 16, Type (0, 0), BuildingBlock: EZIPEK_clean_linker_0, # of connection points: 2
#     Edge 17, Type (0, 0), BuildingBlock: EZIPEK_clean_linker_0, # of connection points: 2
#     Edge 18, Type (0, 0), BuildingBlock: EZIPEK_clean_linker_0, # of connection points: 2
#     Edge 19, Type (0, 0), BuildingBlock: EZIPEK_clean_linker_0, # of connection points: 2
#     Edge 20, Type (0, 0), BuildingBlock: EZIPEK_clean_linker_0, # of connection points: 2
#     Edge 21, Type (0, 0), BuildingBlock: EZIPEK_clean_linker_0, # of connection points: 2
#     Edge 22, Type (0, 0), BuildingBlock: EZIPEK_clean_linker_0, # of connection points: 2
#     Edge 23, Type (0, 0), BuildingBlock: EZIPEK_clean_linker_0, # of connection points: 2
# Relax obj value: 0.193
# Max RMSD: 0.208
# Mean RMSD: 0.208
data_MOF--net-qtz-e--node1-BETDEL_clean_sbu_0--edge1-EZIPEK_clean_linker_0
_symmetry_space_group_name_H-M    P1
_symmetry_Int_Tables_number       1
_symmetry_cell_setting            triclinic
loop_
_symmetry_equiv_pos_as_xyz
'x, y, z'
_cell_length_a     18.895397
_cell_length_b     18.834273
_cell_length_c     29.402134
_cell_angle_alpha  90.162807
_cell_angle_beta   89.908572
_cell_angle_gamma 119.82946
loop_
_atom_site_label
_atom_site_type_symbol
_atom_site_fract_x
_atom_site_fract_y
_atom_site_fract_z
_atom_type_partial_charge
Dy0 Dy 0.15989 0.45885 0.06021 0.0
C1 C 0.07903 0.16747 0.96105 0.0
C2 C 0.17884 0.58181 0.1169 0.0
Dy3 Dy 0.08606 0.28746 1.01863 0.0
O4 O 0.23763 0.5792 0.09539 0.0
O5 O 0.10935 0.52027 0.10448 0.0
O6 O 0.28414 0.48963 0.04337 0.0
O7 O 0.19765 0.36579 0.0592 0.0
C8 C 0.26984 0.41484 0.04495 0.0
C9 C -0.01317 0.35163 1.02364 0.0
O10 O 0.04541 0.2435 0.08974 0.0
O11 O 0.1083 0.37453 0.12035 0.0
O12 O 0.03663 0.20433 0.95749 0.0
O13 O 0.12196 0.19384 0.99821 0.0
O14 O -0.04137 0.27291 1.02576 0.0
O15 O 0.06123 0.38693 1.01513 0.0
O16 O 0.16739 0.49241 0.98663 0.0
O17 O 0.16468 0.37329 0.96413 0.0
C18 C 0.06158 0.29428 0.1246 0.0
C19 C 0.18016 0.44847 0.95565 0.0
Dy20 Dy 0.68411 0.19282 0.43119 0.0
C21 C 0.89783 0.17362 0.29937 0.0
C22 C 0.60949 0.21398 0.50323 0.0
Dy23 Dy 0.78733 0.15136 0.36719 0.0
O24 O 0.68581 0.25959 0.49347 0.0
O25 O 0.57195 0.15647 0.47302 0.0
O26 O 0.74935 0.32057 0.41081 0.0
O27 O 0.8146 0.25535 0.41357 0.0
C28 C 0.81816 0.32322 0.40354 0.0
C29 C 0.63309 0.03064 0.38313 0.0
O30 O 0.82193 0.11453 0.43241 0.0
O31 O 0.71818 0.1159 0.4741 0.0
O32 O 0.82142 0.11728 0.30008 0.0
O33 O 0.914 0.21631 0.3366 0.0
O34 O 0.69079 0.01488 0.37185 0.0
O35 O 0.66102 0.10542 0.37983 0.0
O36 O 0.62744 0.20193 0.36666 0.0
O37 O 0.73632 0.21411 0.32362 0.0
C38 C 0.77754 0.09838 0.47002 0.0
C39 C 0.67 0.22112 0.32829 0.0
Dy40 Dy 0.45761 0.6725 0.73401 0.0
C41 C 0.73976 0.9134 0.63054 0.0
C42 C 0.33965 0.54883 0.78302 0.0
Dy43 Dy 0.62779 0.7933 0.68789 0.0
O44 O 0.32683 0.59174 0.753 0.0
O45 O 0.41613 0.56907 0.78263 0.0
O46 O 0.41607 0.75701 0.75631 0.0
O47 O 0.52981 0.80319 0.72322 0.0
C48 C 0.4795 0.82131 0.74107 0.0
C49 C 0.57799 0.63213 0.69233 0.0
O50 O 0.6707 0.81427 0.75997 0.0
O51 O 0.55325 0.70178 0.78882 0.0
O52 O 0.71752 0.83601 0.62949 0.0
O53 O 0.70187 0.92455 0.66444 0.0
O54 O 0.65515 0.6874 0.69475 0.0
O55 O 0.53714 0.66587 0.68548 0.0
O56 O 0.41747 0.65958 0.66107 0.0
O57 O 0.53743 0.7707 0.63327 0.0
C58 C 0.62977 0.76276 0.79342 0.0
C59 C 0.46046 0.71236 0.62826 0.0
Dy60 Dy 0.72445 0.49801 0.09667 0.0
C61 C 0.74965 0.7322 0.96865 0.0
C62 C 0.69163 0.39673 0.16859 0.0
Dy63 Dy 0.77283 0.63958 1.03314 0.0
O64 O 0.65174 0.43355 0.15812 0.0
O65 O 0.75014 0.41445 0.13963 0.0
O66 O 0.60569 0.42863 0.06325 0.0
O67 O 0.65828 0.5572 0.06989 0.0
C68 C 0.59722 0.49133 0.05502 0.0
C69 C 0.88557 0.59066 0.03833 0.0
O70 O 0.82388 0.7129 0.09774 0.0
O71 O 0.7509 0.60151 0.14451 0.0
O72 O 0.81981 0.74997 0.98653 0.0
O73 O 0.69293 0.66775 0.98887 0.0
O74 O 0.87277 0.62339 1.00258 0.0
O75 O 0.84138 0.59235 0.07047 0.0
O76 O 0.73485 0.43833 0.03351 0.0
O77 O 0.72421 0.53147 0.98714 0.0
C78 C 0.80558 0.67946 0.13892 0.0
C79 C 0.72251 0.46118 0.99329 0.0
Dy80 Dy 0.22692 0.75497 0.39928 0.0
C81 C 0.02668 0.83719 0.29237 0.0
C82 C 0.32236 0.72653 0.45651 0.0
Dy83 Dy 0.13441 0.82595 0.3524 0.0
O84 O 0.24628 0.67609 0.44832 0.0
O85 O 0.3483 0.79102 0.43099 0.0
O86 O 0.131 0.63114 0.38398 0.0
O87 O 0.09699 0.72038 0.40002 0.0
C88 C 0.0712 0.64527 0.39017 0.0
C89 C 0.29818 0.92104 0.35789 0.0
O90 O 0.12161 0.86671 0.42169 0.0
O91 O 0.21443 0.83453 0.45347 0.0
O92 O 0.10318 0.86179 0.28517 0.0
O93 O 0.01112 0.81172 0.33427 0.0
O94 O 0.25025 0.95226 0.36024 0.0
O95 O 0.25682 0.84687 0.34993 0.0
O96 O 0.24957 0.73128 0.32742 0.0
O97 O 0.13633 0.73595 0.30223 0.0
C98 C 0.16692 0.86791 0.4563 0.0
C99 C 0.19483 0.71793 0.29541 0.0
Dy100 Dy 0.43333 0.22485 0.77449 0.0
C101 C 0.22093 0.03879 0.62852 0.0
C102 C 0.54304 0.32 0.83743 0.0
Dy103 Dy 0.30048 0.13203 0.70447 0.0
O104 O 0.46703 0.30132 0.83775 0.0
O105 O 0.55926 0.28962 0.80224 0.0
O106 O 0.47953 0.1407 0.77541 0.0
O107 O 0.35387 0.09228 0.76018 0.0
C108 C 0.41346 0.07824 0.76116 0.0
C109 C 0.35242 0.29437 0.71401 0.0
O110 O 0.22005 0.10197 0.76631 0.0
O111 O 0.32106 0.19667 0.81426 0.0
O112 O 0.19562 0.01964 0.67034 0.0
O113 O 0.28654 0.10971 0.62876 0.0
O114 O 0.27893 0.24213 0.70034 0.0
O115 O 0.39117 0.25773 0.7162 0.0
O116 O 0.50305 0.26768 0.70972 0.0
O117 O 0.41532 0.14644 0.67414 0.0
C118 C 0.24391 0.14219 0.80562 0.0
C119 C 0.4868 0.21401 0.67671 0.0
C120 C 0.19595 0.72931 0.21043 0.0
C121 C 0.19991 0.68718 0.24965 0.0
C122 C 0.20499 0.58473 0.20047 0.0
C123 C 0.19022 0.62111 0.16193 0.0
N124 N 0.15971 0.72078 0.1307 0.0
N125 N 0.19363 0.56652 0.28208 0.0
C126 C 0.18205 0.69125 0.16704 0.0
C127 C 0.20122 0.61296 0.24477 0.0
N128 N 0.20889 0.80721 0.21435 0.0
N129 N 0.22274 0.52313 0.19494 0.0
H130 H 0.18946 0.58395 0.31516 0.0
H131 H 0.18384 0.50708 0.27999 0.0
H132 H 0.22436 0.49874 0.16341 0.0
H133 H 0.24294 0.50094 0.22136 0.0
H134 H 0.21413 0.84356 0.18649 0.0
H135 H 0.22318 0.83883 0.24515 0.0
H136 H 0.14351 0.766 0.13362 0.0
H137 H 0.15131 0.6956 0.09814 0.0
C138 C 0.5554 0.29158 0.60741 0.0
C139 C 0.54289 0.22979 0.63887 0.0
C140 C 0.58081 0.16057 0.58179 0.0
C141 C 0.57932 0.21451 0.54868 0.0
N142 N 0.56158 0.32837 0.52805 0.0
N143 N 0.55085 0.11049 0.65921 0.0
C144 C 0.56623 0.27969 0.56098 0.0
C145 C 0.559 0.16636 0.62705 0.0
N146 N 0.5581 0.36174 0.62201 0.0
N147 N 0.60515 0.10557 0.57022 0.0
H148 H 0.54295 0.11866 0.69358 0.0
H149 H 0.55 0.05592 0.65202 0.0
H150 H 0.61727 0.09615 0.53691 0.0
H151 H 0.61755 0.07204 0.59377 0.0
H152 H 0.57365 0.4119 0.6011 0.0
H153 H 0.55435 0.37381 0.65621 0.0
H154 H 0.54358 0.3715 0.53441 0.0
H155 H 0.56899 0.32076 0.49352 0.0
C156 C 0.28755 0.55626 0.90615 0.0
C157 C 0.21334 0.48127 0.91027 0.0
C158 C 0.22225 0.44877 0.83016 0.0
C159 C 0.29373 0.52537 0.82584 0.0
N160 N 0.38306 0.66097 0.85617 0.0
N161 N 0.10055 0.36411 0.87404 0.0
C162 C 0.32259 0.58193 0.86265 0.0
C163 C 0.17764 0.42996 0.87149 0.0
N164 N 0.32846 0.60054 0.94375 0.0
N165 N 0.19854 0.39327 0.79539 0.0
H166 H 0.06534 0.34909 0.90347 0.0
H167 H 0.06859 0.3288 0.84603 0.0
H168 H 0.22971 0.40611 0.76447 0.0
H169 H 0.15186 0.33285 0.79832 0.0
H170 H 0.38827 0.64909 0.94257 0.0
H171 H 0.30645 0.58554 0.97675 0.0
H172 H 0.39789 0.70698 0.88025 0.0
H173 H 0.41361 0.68256 0.82552 0.0
C174 C 0.6442 0.21737 0.24545 0.0
C175 C 0.64699 0.25284 0.28855 0.0
C176 C 0.67517 0.38072 0.25258 0.0
C177 C 0.67475 0.34627 0.20951 0.0
N178 N 0.64096 0.22765 0.16328 0.0
N179 N 0.63789 0.35688 0.33209 0.0
C180 C 0.65372 0.26311 0.20536 0.0
C181 C 0.65247 0.33041 0.29171 0.0
N182 N 0.63441 0.14048 0.24332 0.0
N183 N 0.70284 0.46284 0.2566 0.0
H184 H 0.62035 0.32163 0.36148 0.0
H185 H 0.63419 0.41003 0.33527 0.0
H186 H 0.72305 0.50293 0.22909 0.0
H187 H 0.71357 0.493 0.28772 0.0
H188 H 0.64239 0.11447 0.21387 0.0
H189 H 0.62034 0.10334 0.27199 0.0
H190 H 0.61822 0.16536 0.15802 0.0
H191 H 0.64735 0.25957 0.13321 0.0
C192 C 0.43044 0.78747 0.56971 0.0
C193 C 0.42202 0.71232 0.58457 0.0
C194 C 0.36066 0.6501 0.51137 0.0
C195 C 0.36119 0.72321 0.49913 0.0
N196 N 0.36981 0.84967 0.5251 0.0
N197 N 0.37015 0.5679 0.57183 0.0
C198 C 0.38906 0.78918 0.53037 0.0
C199 C 0.38374 0.6419 0.55629 0.0
N200 N 0.47887 0.85694 0.59384 0.0
N201 N 0.34064 0.5898 0.47968 0.0
H202 H 0.38919 0.56003 0.60364 0.0
H203 H 0.33492 0.5131 0.55444 0.0
H204 H 0.3248 0.59464 0.44632 0.0
H205 H 0.34675 0.53851 0.48513 0.0
H206 H 0.49344 0.91567 0.58357 0.0
H207 H 0.49344 0.91567 0.58357 0.0
H208 H 0.37997 0.89273 0.55033 0.0
H209 H 0.33505 0.85166 0.49836 0.0
C210 C 0.72629 0.443 0.91124 0.0
C211 C 0.69537 0.40559 0.95388 0.0
C212 C 0.57355 0.29862 0.91653 0.0
C213 C 0.59639 0.34806 0.87693 0.0
N214 N 0.69452 0.46628 0.83502 0.0
N215 N 0.59371 0.29102 0.9971 0.0
C216 C 0.67356 0.4192 0.87341 0.0
C217 C 0.62107 0.3302 0.95645 0.0
N218 N 0.80572 0.5032 0.90783 0.0
N219 N 0.50833 0.22071 0.91549 0.0
H220 H 0.6306 0.30522 1.02574 0.0
H221 H 0.53398 0.24438 1.00249 0.0
H222 H 0.47272 0.19468 0.88657 0.0
H223 H 0.49387 0.17901 0.94191 0.0
H224 H 0.83465 0.5291 0.87718 0.0
H225 H 0.84419 0.52088 0.93585 0.0
H226 H 0.74646 0.5238 0.8326 0.0
H227 H 0.65684 0.45066 0.8065 0.0
C228 C 0.38254 0.40431 1.01045 0.0
C229 C 0.34139 0.40444 0.05053 0.0
C230 C 0.46996 0.47082 0.09286 0.0
C231 C 0.51245 0.47503 0.05198 0.0
N232 N 0.51025 0.4392 0.97294 0.0
N233 N 0.33905 0.41695 0.13145 0.0
C234 C 0.46879 0.43955 1.01104 0.0
C235 C 0.38327 0.43076 0.09235 0.0
N236 N 0.33816 0.37201 0.97166 0.0
N237 N 0.51237 0.50567 0.13199 0.0
H238 H 0.2754 0.38613 0.13136 0.0
H239 H 0.36375 0.42886 0.16401 0.0
H240 H 0.57553 0.53387 0.13447 0.0
H241 H 0.48599 0.51171 0.16174 0.0
H242 H 0.36284 0.37702 0.93941 0.0
H243 H 0.27462 0.33832 0.97246 0.0
H244 H 0.48284 0.40758 0.94317 0.0
H245 H 0.57365 0.47074 0.97117 0.0
C246 C 0.92809 0.54462 0.37909 0.0
C247 C -0.00468 0.57587 0.40782 0.0
C248 C 0.94682 0.43774 0.43827 0.0
C249 C 0.89107 0.40548 0.40122 0.0
N250 N 0.84078 0.4314 0.33126 0.0
N251 N 0.06331 0.55725 0.47145 0.0
C252 C 0.88556 0.46011 0.37006 0.0
C253 C 0.00232 0.52365 0.43996 0.0
N254 N 0.9029 0.59539 0.36218 0.0
N255 N 0.94501 0.38781 0.47238 0.0
H256 H 0.0983 0.6206 0.47558 0.0
H257 H 0.07977 0.52338 0.49242 0.0
H258 H 0.90857 0.32451 0.47151 0.0
H259 H -0.02257 0.40935 0.50263 0.0
H260 H 0.84873 0.57397 0.34391 0.0
H261 H 0.93242 0.65723 0.37129 0.0
H262 H 0.83937 0.47006 0.30641 0.0
H263 H 0.81384 0.37013 0.32186 0.0
C264 C 0.3889 0.95401 0.71746 0.0
C265 C 0.41181 -0.00056 0.75833 0.0
C266 C 0.50408 0.94766 0.77636 0.0
C267 C 0.47651 0.89699 0.73771 0.0
N268 N 0.37806 0.83779 0.67678 0.0
N269 N 0.46946 0.01798 0.83337 0.0
C270 C 0.41528 0.89668 0.70937 0.0
C271 C 0.46234 -0.01113 0.79003 0.0
N272 N 0.34314 0.96619 0.6861 0.0
N273 N 0.56893 0.95467 0.80047 0.0
H274 H 0.43611 0.04533 0.84456 0.0
H275 H 0.50099 0.00716 0.85896 0.0
H276 H 0.60102 0.92557 0.79004 0.0
H277 H 0.5953 -0.00473 0.82756 0.0
H278 H 0.33598 0.94484 0.65273 0.0
H279 H 0.31468 -0.0001 0.69359 0.0
H280 H 0.32696 0.82897 0.65863 0.0
H281 H 0.39515 0.79414 0.67017 0.0
C282 C 0.49272 0.49618 0.65698 0.0
C283 C 0.5371 0.5419 0.69562 0.0
C284 C 0.44303 0.43125 0.74553 0.0
C285 C 0.39927 0.38409 0.70717 0.0
N286 N 0.38743 0.36677 0.62572 0.0
N287 N 0.56815 0.54601 0.7748 0.0
C288 C 0.42518 0.41545 0.66257 0.0
C289 C 0.51679 0.50669 0.73931 0.0
N290 N 0.51574 0.5311 0.61492 0.0
N291 N 0.41213 0.40437 0.78804 0.0
H292 H 0.62312 0.60042 0.7702 0.0
H293 H 0.56043 0.52127 0.80726 0.0
H294 H 0.35613 0.35123 0.7931 0.0
H295 H 0.43722 0.43823 0.8176 0.0
H296 H 0.48303 0.50556 0.58518 0.0
H297 H 0.56832 0.58768 0.61 0.0
H298 H 0.4087 0.38149 0.59251 0.0
H299 H 0.33549 0.3093 0.62842 0.0
C300 C -0.04039 0.45366 0.9867 0.0
C301 C 0.94115 0.39676 1.0225 0.0
C302 C 0.91034 0.48146 0.07174 0.0
C303 C 0.92088 0.53456 0.03541 0.0
N304 N -0.00695 0.59108 0.96538 0.0
N305 N 0.87478 0.3444 0.09412 0.0
C306 C -0.04416 0.52632 0.99447 0.0
C307 C 0.90776 0.40628 0.06325 0.0
N308 N -0.02182 0.43615 0.94481 0.0
N309 N 0.91917 0.51017 0.11485 0.0
H310 H 0.87195 0.28836 0.08827 0.0
H311 H 0.84528 0.34754 0.12345 0.0
H312 H 0.94348 0.57283 0.12007 0.0
H313 H 0.91801 0.47646 0.1432 0.0
H314 H -0.01413 0.47121 0.91594 0.0
H315 H -0.02369 0.38076 0.93837 0.0
H316 H 0.0256 0.59131 0.93673 0.0
H317 H 0.00016 0.64834 0.97311 0.0
C318 C 0.42164 -0.02227 0.40781 0.0
C319 C 0.38798 0.95999 0.36346 0.0
C320 C 0.50948 0.95752 0.33494 0.0
C321 C 0.54365 -0.02275 0.37909 0.0
N322 N 0.52589 -0.01584 0.45906 0.0
N323 N 0.40248 0.94379 0.28355 0.0
C324 C 0.49722 -0.01966 0.41601 0.0
C325 C 0.43273 0.95244 0.32667 0.0
N326 N 0.38203 -0.00615 0.44161 0.0
N327 N 0.55053 0.94284 0.3013 0.0
H328 H 0.34884 0.94487 0.27675 0.0
H329 H 0.4328 0.94255 0.25429 0.0
H330 H 0.60508 0.94334 0.3074 0.0
H331 H 0.52822 0.9237 0.26859 0.0
H332 H 0.4049 0.01204 0.47434 0.0
H333 H 0.32895 -0.00386 0.43543 0.0
H334 H 0.49519 -0.01607 0.48847 0.0
H335 H 0.57864 -0.01915 0.46504 0.0
C336 C 0.11723 0.1372 0.83879 0.0
C337 C 0.18455 0.12398 0.84361 0.0
C338 C 0.15907 0.10501 0.92621 0.0
C339 C 0.09853 0.12832 0.92174 0.0
N340 N -0.00651 0.12213 0.87292 0.0
N341 N 0.25392 0.07114 0.88895 0.0
C342 C 0.06894 0.1301 0.87766 0.0
C343 C 0.20048 0.10014 0.88657 0.0
N344 N 0.10194 0.16112 0.7979 0.0
N345 N 0.17615 0.08694 0.96829 0.0
H346 H 0.2824 0.06405 0.86024 0.0
H347 H 0.26585 0.04828 0.91832 0.0
H348 H 0.13776 0.0764 0.99606 0.0
H349 H 0.22652 0.08059 0.97569 0.0
H350 H 0.05907 0.18002 0.79376 0.0
H351 H 0.13605 0.16785 0.76872 0.0
H352 H -0.03399 0.11722 0.84149 0.0
H353 H -0.04598 0.10868 0.90048 0.0
C354 C 0.93991 0.27026 0.23368 0.0
C355 C 0.94463 0.20646 0.25631 0.0
C356 C 0.02611 0.19846 0.19283 0.0
C357 C 0.0219 0.26314 0.17019 0.0
N358 N -0.0143 0.37022 0.17423 0.0
N359 N 0.00319 0.11942 0.26235 0.0
C360 C -0.01761 0.30185 0.19223 0.0
C361 C -0.00949 0.17289 0.23714 0.0
N362 N 0.89132 0.29885 0.25071 0.0
N363 N 0.06513 0.16221 0.17241 0.0
H364 H -0.0232 0.09883 0.29429 0.0
H365 H 0.04492 0.10091 0.25362 0.0
H366 H 0.09935 0.18449 0.14274 0.0
H367 H 0.06192 0.10856 0.18405 0.0
H368 H 0.87328 0.33414 0.23209 0.0
H369 H 0.86507 0.28394 0.2828 0.0
H370 H -0.02523 0.41055 0.19326 0.0
H371 H 0.00118 0.38873 0.14081 0.0
C372 C 0.79364 0.05409 0.5947 0.0
C373 C 0.78034 -0.02703 0.59188 0.0
C374 C 0.78808 -0.01706 0.50844 0.0
C375 C 0.79317 0.06068 0.51084 0.0
N376 N 0.82526 0.18029 0.55557 0.0
N377 N 0.80977 0.88257 0.54789 0.0
C378 C 0.80366 0.0994 0.55393 0.0
C379 C 0.7919 0.94437 0.5493 0.0
N380 N 0.79745 0.08797 0.63638 0.0
N381 N 0.7746 0.9432 0.46772 0.0
H382 H 0.82196 0.85962 0.57726 0.0
H383 H 0.82446 0.8631 0.51793 0.0
H384 H 0.77091 -0.03153 0.43698 0.0
H385 H 0.76079 0.88245 0.46503 0.0
H386 H 0.79378 0.14073 0.64147 0.0
H387 H 0.80574 0.06322 0.66623 0.0
H388 H 0.83953 0.21473 0.5853 0.0
H389 H 0.83557 0.21536 0.52634 0.0
C390 C 0.63454 0.7814 0.87873 0.0
C391 C 0.67069 0.77174 0.8385 0.0
C392 C 0.77939 0.77262 0.88529 0.0
C393 C 0.73423 0.76544 0.92552 0.0
N394 N 0.62068 0.7685 0.96086 0.0
N395 N 0.77436 0.75008 0.80388 0.0
C396 C 0.6626 0.77206 0.92222 0.0
C397 C 0.74294 0.76635 0.84182 0.0
N398 N 0.57494 0.8021 0.87535 0.0
N399 N 0.85722 0.786 0.88811 0.0
H400 H 0.74996 0.74457 0.77148 0.0
H401 H 0.82022 0.73471 0.80506 0.0
H402 H 0.88811 0.79503 0.91867 0.0
H403 H 0.89509 0.79885 0.85991 0.0
H404 H 0.55162 0.81831 0.90308 0.0
H405 H 0.55369 0.81022 0.8442 0.0
H406 H 0.56219 0.7609 0.96075 0.0
H407 H 0.64388 0.7708 0.99335 0.0
C408 C 0.93911 0.84337 0.22808 0.0
C409 C -0.03468 0.79819 0.255 0.0
C410 C 0.89187 0.67977 0.20443 0.0
C411 C 0.85969 0.72203 0.17912 0.0
N412 N 0.84414 0.84071 0.17108 0.0
N413 N -0.04308 0.66886 0.27197 0.0
C414 C 0.88127 0.80324 0.19201 0.0
C415 C 0.93816 0.71517 0.24422 0.0
N416 N -0.02958 0.92482 0.2366 0.0
N417 N 0.88325 0.60721 0.18923 0.0
H418 H -0.00463 0.69204 0.29972 0.0
H419 H 0.92889 0.60537 0.26998 0.0
H420 H 0.84987 0.57566 0.161 0.0
H421 H 0.91657 0.58113 0.20181 0.0
H422 H -0.03909 0.96358 0.21552 0.0
H423 H 0.01029 0.95453 0.26356 0.0
H424 H 0.85095 0.89663 0.18149 0.0
H425 H 0.80089 0.81246 0.14541 0.0
C426 C 0.18758 0.02753 0.54523 0.0
C427 C 0.18745 -0.01238 0.58621 0.0
C428 C 0.1499 0.86254 0.54164 0.0
C429 C 0.16565 0.90746 0.50051 0.0
N430 N 0.20655 0.0367 0.46359 0.0
N431 N 0.17087 0.86536 0.62296 0.0
C432 C 0.18535 -0.00922 0.50235 0.0
C433 C 0.16809 0.90422 0.58444 0.0
N434 N 0.18784 0.10016 0.54735 0.0
N435 N 0.11505 0.77925 0.53986 0.0
H436 H 0.1796 0.89067 0.65531 0.0
H437 H 0.16941 0.80934 0.62253 0.0
H438 H 0.09873 0.7466 0.50933 0.0
H439 H 0.09436 0.74192 0.5685 0.0
H440 H 0.18012 0.12861 0.51897 0.0
H441 H 0.1863 0.12714 0.57812 0.0
H442 H 0.23132 0.1 0.46373 0.0
H443 H 0.20601 0.01313 0.43146 0.0
loop_
_geom_bond_atom_site_label_1
_geom_bond_atom_site_label_2
_geom_bond_distance
_geom_bond_site_symmetry_2
_ccdc_geom_bond_type
Dy0 O4 2.398 . S
Dy0 O5 2.491 . S
Dy0 O6 2.403 . S
Dy0 O7 2.664 . S
Dy0 O11 2.326 . S
Dy0 O15 2.310 . S
Dy0 O16 2.351 1_554 S
C1 O12 1.185 . S
C1 O13 1.355 . S
C2 O4 1.185 . S
C2 O5 1.355 . S
Dy3 O7 2.310 1_556 S
Dy3 O10 2.351 1_556 S
Dy3 O12 2.398 . S
Dy3 O13 2.491 . S
Dy3 O14 2.403 . S
Dy3 O15 2.664 1_556 S
Dy3 O17 2.326 . S
O4 Dy0 2.398 . S
O4 C2 1.185 . S
O5 Dy0 2.491 . S
O5 C2 1.355 . S
O6 Dy0 2.403 . S
O6 C8 1.254 . S
O7 Dy0 2.664 . S
O7 Dy3 2.310 1_554 S
O7 C8 1.268 . S
C8 O6 1.254 . S
C8 O7 1.268 . S
C9 O14 1.255 1_554 S
C9 O15 1.267 . S
O10 Dy3 2.351 1_554 S
O10 C18 1.249 . S
O11 Dy0 2.326 . S
O11 C18 1.267 . S
O12 C1 1.185 . S
O12 Dy3 2.398 . S
O13 C1 1.355 . S
O13 Dy3 2.491 . S
O14 Dy3 2.403 . S
O14 C9 1.255 1_556 S
O15 Dy0 2.310 . S
O15 Dy3 2.664 1_554 S
O15 C9 1.267 . S
O16 Dy0 2.351 1_556 S
O16 C19 1.249 . S
O17 Dy3 2.326 . S
O17 C19 1.267 . S
C18 O10 1.249 . S
C18 O11 1.267 . S
C19 O16 1.249 . S
C19 O17 1.267 . S
Dy20 O24 2.398 . S
Dy20 O25 2.491 . S
Dy20 O26 2.403 . S
Dy20 O27 2.664 . S
Dy20 O31 2.326 . S
Dy20 O35 2.310 . S
Dy20 O36 2.351 . S
C21 O32 1.185 . S
C21 O33 1.355 . S
C22 O24 1.185 . S
C22 O25 1.355 . S
Dy23 O27 2.310 . S
Dy23 O30 2.351 . S
Dy23 O32 2.398 . S
Dy23 O33 2.491 . S
Dy23 O34 2.403 . S
Dy23 O35 2.664 . S
Dy23 O37 2.326 . S
O24 Dy20 2.398 . S
O24 C22 1.185 . S
O25 Dy20 2.491 . S
O25 C22 1.355 . S
O26 Dy20 2.403 . S
O26 C28 1.254 . S
O27 Dy20 2.664 . S
O27 Dy23 2.310 . S
O27 C28 1.268 . S
C28 O26 1.254 . S
C28 O27 1.268 . S
C29 O34 1.254 . S
C29 O35 1.268 . S
O30 Dy23 2.351 . S
O30 C38 1.249 . S
O31 Dy20 2.326 . S
O31 C38 1.267 . S
O32 C21 1.185 . S
O32 Dy23 2.398 . S
O33 C21 1.355 . S
O33 Dy23 2.491 . S
O34 Dy23 2.403 . S
O34 C29 1.254 . S
O35 Dy20 2.310 . S
O35 Dy23 2.664 . S
O35 C29 1.268 . S
O36 Dy20 2.351 . S
O36 C39 1.249 . S
O37 Dy23 2.326 . S
O37 C39 1.267 . S
C38 O30 1.249 . S
C38 O31 1.267 . S
C39 O36 1.249 . S
C39 O37 1.267 . S
Dy40 O44 2.398 . S
Dy40 O45 2.491 . S
Dy40 O46 2.403 . S
Dy40 O47 2.664 . S
Dy40 O51 2.326 . S
Dy40 O55 2.310 . S
Dy40 O56 2.351 . S
C41 O52 1.185 . S
C41 O53 1.355 . S
C42 O44 1.185 . S
C42 O45 1.355 . S
Dy43 O47 2.310 . S
Dy43 O50 2.351 . S
Dy43 O52 2.398 . S
Dy43 O53 2.491 . S
Dy43 O54 2.403 . S
Dy43 O55 2.664 . S
Dy43 O57 2.326 . S
O44 Dy40 2.398 . S
O44 C42 1.185 . S
O45 Dy40 2.491 . S
O45 C42 1.355 . S
O46 Dy40 2.403 . S
O46 C48 1.254 . S
O47 Dy40 2.664 . S
O47 Dy43 2.310 . S
O47 C48 1.268 . S
C48 O46 1.254 . S
C48 O47 1.268 . S
C49 O54 1.254 . S
C49 O55 1.268 . S
O50 Dy43 2.351 . S
O50 C58 1.249 . S
O51 Dy40 2.326 . S
O51 C58 1.267 . S
O52 C41 1.185 . S
O52 Dy43 2.398 . S
O53 C41 1.355 . S
O53 Dy43 2.491 . S
O54 Dy43 2.403 . S
O54 C49 1.254 . S
O55 Dy40 2.310 . S
O55 Dy43 2.664 . S
O55 C49 1.268 . S
O56 Dy40 2.351 . S
O56 C59 1.249 . S
O57 Dy43 2.326 . S
O57 C59 1.267 . S
C58 O50 1.249 . S
C58 O51 1.267 . S
C59 O56 1.249 . S
C59 O57 1.267 . S
Dy60 O64 2.398 . S
Dy60 O65 2.491 . S
Dy60 O66 2.403 . S
Dy60 O67 2.664 . S
Dy60 O71 2.326 . S
Dy60 O75 2.310 . S
Dy60 O76 2.351 1_554 S
C61 O72 1.185 . S
C61 O73 1.355 . S
C62 O64 1.185 . S
C62 O65 1.355 . S
Dy63 O67 2.310 1_556 S
Dy63 O70 2.351 1_556 S
Dy63 O72 2.398 . S
Dy63 O73 2.491 . S
Dy63 O74 2.403 . S
Dy63 O75 2.664 1_556 S
Dy63 O77 2.326 . S
O64 Dy60 2.398 . S
O64 C62 1.185 . S
O65 Dy60 2.491 . S
O65 C62 1.355 . S
O66 Dy60 2.403 . S
O66 C68 1.254 . S
O67 Dy60 2.664 . S
O67 Dy63 2.310 1_554 S
O67 C68 1.268 . S
C68 O66 1.254 . S
C68 O67 1.268 . S
C69 O74 1.255 1_554 S
C69 O75 1.267 . S
O70 Dy63 2.351 1_554 S
O70 C78 1.249 . S
O71 Dy60 2.326 . S
O71 C78 1.267 . S
O72 C61 1.185 . S
O72 Dy63 2.398 . S
O73 C61 1.355 . S
O73 Dy63 2.491 . S
O74 Dy63 2.403 . S
O74 C69 1.255 1_556 S
O75 Dy60 2.310 . S
O75 Dy63 2.664 1_554 S
O75 C69 1.267 . S
O76 Dy60 2.351 1_556 S
O76 C79 1.249 . S
O77 Dy63 2.326 . S
O77 C79 1.267 . S
C78 O70 1.249 . S
C78 O71 1.267 . S
C79 O76 1.249 . S
C79 O77 1.267 . S
Dy80 O84 2.398 . S
Dy80 O85 2.491 . S
Dy80 O86 2.403 . S
Dy80 O87 2.664 . S
Dy80 O91 2.326 . S
Dy80 O95 2.310 . S
Dy80 O96 2.351 . S
C81 O92 1.185 . S
C81 O93 1.355 . S
C82 O84 1.185 . S
C82 O85 1.355 . S
Dy83 O87 2.310 . S
Dy83 O90 2.351 . S
Dy83 O92 2.398 . S
Dy83 O93 2.491 . S
Dy83 O94 2.403 . S
Dy83 O95 2.664 . S
Dy83 O97 2.326 . S
O84 Dy80 2.398 . S
O84 C82 1.185 . S
O85 Dy80 2.491 . S
O85 C82 1.355 . S
O86 Dy80 2.403 . S
O86 C88 1.254 . S
O87 Dy80 2.664 . S
O87 Dy83 2.310 . S
O87 C88 1.268 . S
C88 O86 1.254 . S
C88 O87 1.268 . S
C89 O94 1.254 . S
C89 O95 1.268 . S
O90 Dy83 2.351 . S
O90 C98 1.249 . S
O91 Dy80 2.326 . S
O91 C98 1.267 . S
O92 C81 1.185 . S
O92 Dy83 2.398 . S
O93 C81 1.355 . S
O93 Dy83 2.491 . S
O94 Dy83 2.403 . S
O94 C89 1.254 . S
O95 Dy80 2.310 . S
O95 Dy83 2.664 . S
O95 C89 1.268 . S
O96 Dy80 2.351 . S
O96 C99 1.249 . S
O97 Dy83 2.326 . S
O97 C99 1.267 . S
C98 O90 1.249 . S
C98 O91 1.267 . S
C99 O96 1.249 . S
C99 O97 1.267 . S
Dy100 O104 2.398 . S
Dy100 O105 2.491 . S
Dy100 O106 2.403 . S
Dy100 O107 2.664 . S
Dy100 O111 2.326 . S
Dy100 O115 2.310 . S
Dy100 O116 2.351 . S
C101 O112 1.185 . S
C101 O113 1.355 . S
C102 O104 1.185 . S
C102 O105 1.355 . S
Dy103 O107 2.310 . S
Dy103 O110 2.351 . S
Dy103 O112 2.398 . S
Dy103 O113 2.491 . S
Dy103 O114 2.403 . S
Dy103 O115 2.664 . S
Dy103 O117 2.326 . S
O104 Dy100 2.398 . S
O104 C102 1.185 . S
O105 Dy100 2.491 . S
O105 C102 1.355 . S
O106 Dy100 2.403 . S
O106 C108 1.254 . S
O107 Dy100 2.664 . S
O107 Dy103 2.310 . S
O107 C108 1.268 . S
C108 O106 1.254 . S
C108 O107 1.268 . S
C109 O114 1.254 . S
C109 O115 1.268 . S
O110 Dy103 2.351 . S
O110 C118 1.249 . S
O111 Dy100 2.326 . S
O111 C118 1.267 . S
O112 C101 1.185 . S
O112 Dy103 2.398 . S
O113 C101 1.355 . S
O113 Dy103 2.491 . S
O114 Dy103 2.403 . S
O114 C109 1.254 . S
O115 Dy100 2.310 . S
O115 Dy103 2.664 . S
O115 C109 1.268 . S
O116 Dy100 2.351 . S
O116 C119 1.249 . S
O117 Dy103 2.326 . S
O117 C119 1.267 . S
C118 O110 1.249 . S
C118 O111 1.267 . S
C119 O116 1.249 . S
C119 O117 1.267 . S
C120 C121 1.363 . S
C120 C126 1.379 . S
C120 N128 1.356 . S
C121 C120 1.363 . S
C121 C127 1.363 . S
C122 C123 1.363 . S
C122 C127 1.379 . S
C122 N129 1.356 . S
C123 C122 1.363 . S
C123 C126 1.363 . S
N124 C126 1.356 . S
N124 H136 0.984 . S
N124 H137 0.985 . S
N125 C127 1.356 . S
N125 H130 0.984 . S
N125 H131 0.985 . S
C126 C120 1.379 . S
C126 C123 1.363 . S
C126 N124 1.356 . S
C127 C121 1.363 . S
C127 C122 1.379 . S
C127 N125 1.356 . S
N128 C120 1.356 . S
N128 H134 0.984 . S
N128 H135 0.984 . S
N129 C122 1.356 . S
N129 H132 0.984 . S
N129 H133 0.985 . S
H130 N125 0.984 . S
H131 N125 0.985 . S
H132 N129 0.984 . S
H133 N129 0.985 . S
H134 N128 0.984 . S
H135 N128 0.984 . S
H136 N124 0.984 . S
H137 N124 0.985 . S
C138 C139 1.363 . S
C138 C144 1.379 . S
C138 N146 1.356 . S
C139 C138 1.363 . S
C139 C145 1.363 . S
C140 C141 1.363 . S
C140 C145 1.379 . S
C140 N147 1.356 . S
C141 C140 1.363 . S
C141 C144 1.363 . S
N142 C144 1.356 . S
N142 H154 0.984 . S
N142 H155 0.985 . S
N143 C145 1.356 . S
N143 H148 0.984 . S
N143 H149 0.985 . S
C144 C138 1.379 . S
C144 C141 1.363 . S
C144 N142 1.356 . S
C145 C139 1.363 . S
C145 C140 1.379 . S
C145 N143 1.356 . S
N146 C138 1.356 . S
N146 H152 0.984 . S
N146 H153 0.984 . S
N147 C140 1.356 . S
N147 H150 0.984 . S
N147 H151 0.985 . S
H148 N143 0.984 . S
H149 N143 0.985 . S
H150 N147 0.984 . S
H151 N147 0.985 . S
H152 N146 0.984 . S
H153 N146 0.984 . S
H154 N142 0.984 . S
H155 N142 0.985 . S
C156 C157 1.363 . S
C156 C162 1.379 . S
C156 N164 1.356 . S
C157 C156 1.363 . S
C157 C163 1.363 . S
C158 C159 1.363 . S
C158 C163 1.379 . S
C158 N165 1.356 . S
C159 C158 1.363 . S
C159 C162 1.363 . S
N160 C162 1.356 . S
N160 H172 0.984 . S
N160 H173 0.985 . S
N161 C163 1.356 . S
N161 H166 0.984 . S
N161 H167 0.985 . S
C162 C156 1.379 . S
C162 C159 1.363 . S
C162 N160 1.356 . S
C163 C157 1.363 . S
C163 C158 1.379 . S
C163 N161 1.356 . S
N164 C156 1.356 . S
N164 H170 0.984 . S
N164 H171 0.984 . S
N165 C158 1.356 . S
N165 H168 0.984 . S
N165 H169 0.985 . S
H166 N161 0.984 . S
H167 N161 0.985 . S
H168 N165 0.984 . S
H169 N165 0.985 . S
H170 N164 0.984 . S
H171 N164 0.984 . S
H172 N160 0.984 . S
H173 N160 0.985 . S
C174 C175 1.363 . S
C174 C180 1.379 . S
C174 N182 1.356 . S
C175 C174 1.363 . S
C175 C181 1.363 . S
C176 C177 1.363 . S
C176 C181 1.379 . S
C176 N183 1.356 . S
C177 C176 1.363 . S
C177 C180 1.363 . S
N178 C180 1.356 . S
N178 H190 0.984 . S
N178 H191 0.985 . S
N179 C181 1.356 . S
N179 H184 0.984 . S
N179 H185 0.985 . S
C180 C174 1.379 . S
C180 C177 1.363 . S
C180 N178 1.356 . S
C181 C175 1.363 . S
C181 C176 1.379 . S
C181 N179 1.356 . S
N182 C174 1.356 . S
N182 H188 0.984 . S
N182 H189 0.984 . S
N183 C176 1.356 . S
N183 H186 0.984 . S
N183 H187 0.985 . S
H184 N179 0.984 . S
H185 N179 0.985 . S
H186 N183 0.984 . S
H187 N183 0.985 . S
H188 N182 0.984 . S
H189 N182 0.984 . S
H190 N178 0.984 . S
H191 N178 0.985 . S
C192 C193 1.363 . S
C192 C198 1.379 . S
C192 N200 1.356 . S
C193 C192 1.363 . S
C193 C199 1.363 . S
C194 C195 1.363 . S
C194 C199 1.379 . S
C194 N201 1.356 . S
C195 C194 1.363 . S
C195 C198 1.363 . S
N196 C198 1.356 . S
N196 H208 0.984 . S
N196 H209 0.985 . S
N197 C199 1.356 . S
N197 H202 0.984 . S
N197 H203 0.985 . S
C198 C192 1.379 . S
C198 C195 1.363 . S
C198 N196 1.356 . S
C199 C193 1.363 . S
C199 C194 1.379 . S
C199 N197 1.356 . S
N200 C192 1.356 . S
N200 H206 0.984 . S
N200 H207 0.984 . S
N201 C194 1.356 . S
N201 H204 0.984 . S
N201 H205 0.985 . S
H202 N197 0.984 . S
H203 N197 0.985 . S
H204 N201 0.984 . S
H205 N201 0.985 . S
H206 N200 0.984 . S
H207 N200 0.984 . S
H208 N196 0.984 . S
H209 N196 0.985 . S
C210 C211 1.363 . S
C210 C216 1.379 . S
C210 N218 1.356 . S
C211 C210 1.363 . S
C211 C217 1.363 . S
C212 C213 1.363 . S
C212 C217 1.379 . S
C212 N219 1.356 . S
C213 C212 1.363 . S
C213 C216 1.363 . S
N214 C216 1.356 . S
N214 H226 0.984 . S
N214 H227 0.985 . S
N215 C217 1.356 . S
N215 H220 0.984 . S
N215 H221 0.985 . S
C216 C210 1.379 . S
C216 C213 1.363 . S
C216 N214 1.356 . S
C217 C211 1.363 . S
C217 C212 1.379 . S
C217 N215 1.356 . S
N218 C210 1.356 . S
N218 H224 0.984 . S
N218 H225 0.984 . S
N219 C212 1.356 . S
N219 H222 0.984 . S
N219 H223 0.985 . S
H220 N215 0.984 . S
H221 N215 0.985 . S
H222 N219 0.984 . S
H223 N219 0.985 . S
H224 N218 0.984 . S
H225 N218 0.984 . S
H226 N214 0.984 . S
H227 N214 0.985 . S
C228 C229 1.363 . S
C228 C234 1.379 . S
C228 N236 1.356 1_554 S
C229 C228 1.363 . S
C229 C235 1.363 . S
C230 C231 1.363 . S
C230 C235 1.379 . S
C230 N237 1.356 . S
C231 C230 1.363 . S
C231 C234 1.363 . S
N232 C234 1.356 1_556 S
N232 H244 0.984 . S
N232 H245 0.985 . S
N233 C235 1.356 . S
N233 H238 0.984 . S
N233 H239 0.985 . S
C234 C228 1.379 . S
C234 C231 1.363 . S
C234 N232 1.356 1_554 S
C235 C229 1.363 . S
C235 C230 1.379 . S
C235 N233 1.356 . S
N236 C228 1.356 1_556 S
N236 H242 0.984 . S
N236 H243 0.984 . S
N237 C230 1.356 . S
N237 H240 0.984 . S
N237 H241 0.985 . S
H238 N233 0.984 . S
H239 N233 0.985 . S
H240 N237 0.984 . S
H241 N237 0.985 . S
H242 N236 0.984 . S
H243 N236 0.984 . S
H244 N232 0.984 . S
H245 N232 0.985 . S
C246 C247 1.363 1_655 S
C246 C252 1.379 . S
C246 N254 1.356 . S
C247 C246 1.363 1_455 S
C247 C253 1.363 . S
C248 C249 1.363 1_455 S
C248 C253 1.379 . S
C248 N255 1.356 . S
C249 C248 1.363 1_655 S
C249 C252 1.363 . S
N250 C252 1.356 . S
N250 H262 0.984 . S
N250 H263 0.985 . S
N251 C253 1.356 . S
N251 H256 0.984 . S
N251 H257 0.985 . S
C252 C246 1.379 . S
C252 C249 1.363 . S
C252 N250 1.356 . S
C253 C247 1.363 . S
C253 C248 1.379 . S
C253 N251 1.356 . S
N254 C246 1.356 . S
N254 H260 0.984 . S
N254 H261 0.984 . S
N255 C248 1.356 . S
N255 H258 0.984 . S
N255 H259 0.985 . S
H256 N251 0.984 . S
H257 N251 0.985 . S
H258 N255 0.984 . S
H259 N255 0.985 . S
H260 N254 0.984 . S
H261 N254 0.984 . S
H262 N250 0.984 . S
H263 N250 0.985 . S
C264 C265 1.363 1_565 S
C264 C270 1.379 . S
C264 N272 1.356 . S
C265 C264 1.363 1_545 S
C265 C271 1.363 . S
C266 C267 1.363 1_545 S
C266 C271 1.379 . S
C266 N273 1.356 . S
C267 C266 1.363 1_565 S
C267 C270 1.363 . S
N268 C270 1.356 . S
N268 H280 0.984 . S
N268 H281 0.985 . S
N269 C271 1.356 . S
N269 H274 0.984 . S
N269 H275 0.985 . S
C270 C264 1.379 . S
C270 C267 1.363 . S
C270 N268 1.356 . S
C271 C265 1.363 . S
C271 C266 1.379 . S
C271 N269 1.356 . S
N272 C264 1.356 . S
N272 H278 0.984 . S
N272 H279 0.984 . S
N273 C266 1.356 . S
N273 H276 0.984 . S
N273 H277 0.985 . S
H274 N269 0.984 . S
H275 N269 0.985 . S
H276 N273 0.984 . S
H277 N273 0.985 . S
H278 N272 0.984 . S
H279 N272 0.984 . S
H280 N268 0.984 . S
H281 N268 0.985 . S
C282 C283 1.363 . S
C282 C288 1.379 . S
C282 N290 1.356 . S
C283 C282 1.363 . S
C283 C289 1.363 . S
C284 C285 1.363 . S
C284 C289 1.379 . S
C284 N291 1.356 . S
C285 C284 1.363 . S
C285 C288 1.363 . S
N286 C288 1.356 . S
N286 H298 0.984 . S
N286 H299 0.985 . S
N287 C289 1.356 . S
N287 H292 0.984 . S
N287 H293 0.985 . S
C288 C282 1.379 . S
C288 C285 1.363 . S
C288 N286 1.356 . S
C289 C283 1.363 . S
C289 C284 1.379 . S
C289 N287 1.356 . S
N290 C282 1.356 . S
N290 H296 0.984 . S
N290 H297 0.984 . S
N291 C284 1.356 . S
N291 H294 0.984 . S
N291 H295 0.985 . S
H292 N287 0.984 . S
H293 N287 0.985 . S
H294 N291 0.984 . S
H295 N291 0.985 . S
H296 N290 0.984 . S
H297 N290 0.984 . S
H298 N286 0.984 . S
H299 N286 0.985 . S
C300 C301 1.351 1_556 S
C300 C306 1.379 . S
C300 N308 1.356 . S
C301 C300 1.351 1_554 S
C301 C307 1.375 1_455 S
C302 C303 1.375 . S
C302 C307 1.379 . S
C302 N309 1.356 . S
C303 C302 1.375 . S
C303 C306 1.351 1_654 S
N304 C306 1.356 . S
N304 H316 0.984 . S
N304 H317 0.985 . S
N305 C307 1.356 . S
N305 H310 0.984 . S
N305 H311 0.985 . S
C306 C300 1.379 . S
C306 C303 1.351 1_456 S
C306 N304 1.356 . S
C307 C301 1.375 1_655 S
C307 C302 1.379 . S
C307 N305 1.356 . S
N308 C300 1.356 . S
N308 H314 0.984 . S
N308 H315 0.984 . S
N309 C302 1.356 . S
N309 H312 0.984 . S
N309 H313 0.985 . S
H310 N305 0.984 . S
H311 N305 0.985 . S
H312 N309 0.984 . S
H313 N309 0.985 . S
H314 N308 0.984 . S
H315 N308 0.984 . S
H316 N304 0.984 . S
H317 N304 0.985 . S
C318 C319 1.363 1_545 S
C318 C324 1.379 . S
C318 N326 1.356 . S
C319 C318 1.363 1_565 S
C319 C325 1.363 . S
C320 C321 1.363 1_565 S
C320 C325 1.379 . S
C320 N327 1.356 . S
C321 C320 1.363 1_545 S
C321 C324 1.363 . S
N322 C324 1.356 . S
N322 H334 0.984 . S
N322 H335 0.985 . S
N323 C325 1.356 . S
N323 H328 0.984 . S
N323 H329 0.985 . S
C324 C318 1.379 . S
C324 C321 1.363 . S
C324 N322 1.356 . S
C325 C319 1.363 . S
C325 C320 1.379 . S
C325 N323 1.356 . S
N326 C318 1.356 . S
N326 H332 0.984 . S
N326 H333 0.984 . S
N327 C320 1.356 . S
N327 H330 0.984 . S
N327 H331 0.985 . S
H328 N323 0.984 . S
H329 N323 0.985 . S
H330 N327 0.984 . S
H331 N327 0.985 . S
H332 N326 0.984 . S
H333 N326 0.984 . S
H334 N322 0.984 . S
H335 N322 0.985 . S
C336 C337 1.363 . S
C336 C342 1.379 . S
C336 N344 1.356 . S
C337 C336 1.363 . S
C337 C343 1.363 . S
C338 C339 1.363 . S
C338 C343 1.379 . S
C338 N345 1.356 . S
C339 C338 1.363 . S
C339 C342 1.363 . S
N340 C342 1.356 . S
N340 H352 0.984 . S
N340 H353 0.985 . S
N341 C343 1.356 . S
N341 H346 0.984 . S
N341 H347 0.985 . S
C342 C336 1.379 . S
C342 C339 1.363 . S
C342 N340 1.356 . S
C343 C337 1.363 . S
C343 C338 1.379 . S
C343 N341 1.356 . S
N344 C336 1.356 . S
N344 H350 0.984 . S
N344 H351 0.984 . S
N345 C338 1.356 . S
N345 H348 0.984 . S
N345 H349 0.985 . S
H346 N341 0.984 . S
H347 N341 0.985 . S
H348 N345 0.984 . S
H349 N345 0.985 . S
H350 N344 0.984 . S
H351 N344 0.984 . S
H352 N340 0.984 . S
H353 N340 0.985 . S
C354 C355 1.363 1_455 S
C354 C360 1.379 . S
C354 N362 1.356 1_455 S
C355 C354 1.363 1_655 S
C355 C361 1.363 . S
C356 C357 1.363 . S
C356 C361 1.379 1_455 S
C356 N363 1.356 . S
C357 C356 1.363 . S
C357 C360 1.363 . S
N358 C360 1.356 . S
N358 H370 0.984 . S
N358 H371 0.985 . S
N359 C361 1.356 . S
N359 H364 0.984 . S
N359 H365 0.985 . S
C360 C354 1.379 . S
C360 C357 1.363 . S
C360 N358 1.356 . S
C361 C355 1.363 . S
C361 C356 1.379 1_655 S
C361 N359 1.356 . S
N362 C354 1.356 1_655 S
N362 H368 0.984 . S
N362 H369 0.984 . S
N363 C356 1.356 . S
N363 H366 0.984 . S
N363 H367 0.985 . S
H364 N359 0.984 . S
H365 N359 0.985 . S
H366 N363 0.984 . S
H367 N363 0.985 . S
H368 N362 0.984 . S
H369 N362 0.984 . S
H370 N358 0.984 . S
H371 N358 0.985 . S
C372 C373 1.363 1_545 S
C372 C378 1.379 . S
C372 N380 1.356 . S
C373 C372 1.363 1_565 S
C373 C379 1.363 . S
C374 C375 1.363 . S
C374 C379 1.379 1_545 S
C374 N381 1.356 1_545 S
C375 C374 1.363 . S
C375 C378 1.363 . S
N376 C378 1.356 . S
N376 H388 0.984 . S
N376 H389 0.985 . S
N377 C379 1.356 . S
N377 H382 0.984 . S
N377 H383 0.985 . S
C378 C372 1.379 . S
C378 C375 1.363 . S
C378 N376 1.356 . S
C379 C373 1.363 . S
C379 C374 1.379 1_565 S
C379 N377 1.356 . S
N380 C372 1.356 . S
N380 H386 0.984 . S
N380 H387 0.984 . S
N381 C374 1.356 1_565 S
N381 H384 0.984 1_565 S
N381 H385 0.985 . S
H382 N377 0.984 . S
H383 N377 0.985 . S
H384 N381 0.984 1_545 S
H385 N381 0.985 . S
H386 N380 0.984 . S
H387 N380 0.984 . S
H388 N376 0.984 . S
H389 N376 0.985 . S
C390 C391 1.363 . S
C390 C396 1.379 . S
C390 N398 1.356 . S
C391 C390 1.363 . S
C391 C397 1.363 . S
C392 C393 1.363 . S
C392 C397 1.379 . S
C392 N399 1.356 . S
C393 C392 1.363 . S
C393 C396 1.363 . S
N394 C396 1.356 . S
N394 H406 0.984 . S
N394 H407 0.985 . S
N395 C397 1.356 . S
N395 H400 0.984 . S
N395 H401 0.985 . S
C396 C390 1.379 . S
C396 C393 1.363 . S
C396 N394 1.356 . S
C397 C391 1.363 . S
C397 C392 1.379 . S
C397 N395 1.356 . S
N398 C390 1.356 . S
N398 H404 0.984 . S
N398 H405 0.984 . S
N399 C392 1.356 . S
N399 H402 0.984 . S
N399 H403 0.985 . S
H400 N395 0.984 . S
H401 N395 0.985 . S
H402 N399 0.984 . S
H403 N399 0.985 . S
H404 N398 0.984 . S
H405 N398 0.984 . S
H406 N394 0.984 . S
H407 N394 0.985 . S
C408 C409 1.363 . S
C408 C414 1.379 1_455 S
C408 N416 1.356 . S
C409 C408 1.363 . S
C409 C415 1.363 1_455 S
C410 C411 1.363 . S
C410 C415 1.379 . S
C410 N417 1.356 . S
C411 C410 1.363 . S
C411 C414 1.363 . S
N412 C414 1.356 . S
N412 H424 0.984 . S
N412 H425 0.985 . S
N413 C415 1.356 1_455 S
N413 H418 0.984 . S
N413 H419 0.985 . S
C414 C408 1.379 1_655 S
C414 C411 1.363 . S
C414 N412 1.356 . S
C415 C409 1.363 1_655 S
C415 C410 1.379 . S
C415 N413 1.356 1_655 S
N416 C408 1.356 . S
N416 H422 0.984 . S
N416 H423 0.984 . S
N417 C410 1.356 . S
N417 H420 0.984 . S
N417 H421 0.985 . S
H418 N413 0.984 . S
H419 N413 0.985 . S
H420 N417 0.984 . S
H421 N417 0.985 . S
H422 N416 0.984 . S
H423 N416 0.984 . S
H424 N412 0.984 . S
H425 N412 0.985 . S
C426 C427 1.363 . S
C426 C432 1.379 . S
C426 N434 1.356 . S
C427 C426 1.363 . S
C427 C433 1.363 1_545 S
C428 C429 1.363 . S
C428 C433 1.379 . S
C428 N435 1.356 . S
C429 C428 1.363 . S
C429 C432 1.363 1_565 S
N430 C432 1.356 . S
N430 H442 0.984 . S
N430 H443 0.985 1_545 S
N431 C433 1.356 . S
N431 H436 0.984 . S
N431 H437 0.985 . S
C432 C426 1.379 . S
C432 C429 1.363 1_545 S
C432 N430 1.356 . S
C433 C427 1.363 1_565 S
C433 C428 1.379 . S
C433 N431 1.356 . S
N434 C426 1.356 . S
N434 H440 0.984 . S
N434 H441 0.984 . S
N435 C428 1.356 . S
N435 H438 0.984 . S
N435 H439 0.985 . S
H436 N431 0.984 . S
H437 N431 0.985 . S
H438 N435 0.984 . S
H439 N435 0.985 . S
H440 N434 0.984 . S
H441 N434 0.984 . S
H442 N430 0.984 . S
H443 N430 0.985 1_565 S
C121 C99 1.283 . S
C123 C2 1.278 . S
C139 C119 1.283 . S
C141 C22 1.278 . S
C157 C19 1.283 . S
C159 C42 1.278 . S
C175 C39 1.283 . S
C177 C62 1.278 . S
C193 C59 1.283 . S
C195 C82 1.278 . S
C211 C79 1.283 . S
C213 C102 1.278 . S
C229 C8 1.002 . S
C231 C68 1.002 . S
C247 C88 1.002 . S
C249 C28 1.002 . S
C265 C108 1.002 . S
C267 C48 1.002 . S
C283 C49 1.195 . S
C285 C109 1.195 . S
C301 C9 1.195 . S
C303 C69 1.195 . S
C319 C89 1.195 . S
C321 C29 1.195 . S
C337 C118 1.379 . S
C339 C1 1.369 . S
C355 C21 1.369 . S
C357 C18 1.379 . S
C373 C41 1.369 . S
C375 C38 1.379 . S
C391 C58 1.379 . S
C393 C61 1.369 . S
C409 C81 1.369 . S
C411 C78 1.379 . S
C427 C101 1.369 . S
C429 C98 1.379 . S
