# Generated by pormake.
# Topology uou, (4)-cn, num edge types: 1
# Building blocks:
#     Node 0, Type 0, BuildingBlock: QUQFOY_clean_sbu_3, # of connection points: 4
#     Node 1, Type 0, BuildingBlock: QUQFOY_clean_sbu_3, # of connection points: 4
#     Node 2, Type 0, BuildingBlock: QUQFOY_clean_sbu_3, # of connection points: 4
#     Node 3, Type 0, BuildingBlock: QUQFOY_clean_sbu_3, # of connection points: 4
#     Node 4, Type 0, BuildingBlock: QUQFOY_clean_sbu_3, # of connection points: 4
#     Node 5, Type 0, BuildingBlock: QUQFOY_clean_sbu_3, # of connection points: 4
#     Node 6, Type 0, BuildingBlock: QUQFOY_clean_sbu_3, # of connection points: 4
#     Node 7, Type 0, BuildingBlock: QUQFOY_clean_sbu_3, # of connection points: 4
#     Node 8, Type 0, BuildingBlock: QUQFOY_clean_sbu_3, # of connection points: 4
#     Node 9, Type 0, BuildingBlock: QUQFOY_clean_sbu_3, # of connection points: 4
#     Node 10, Type 0, BuildingBlock: QUQFOY_clean_sbu_3, # of connection points: 4
#     Node 11, Type 0, BuildingBlock: QUQFOY_clean_sbu_3, # of connection points: 4
#     Node 12, Type 0, BuildingBlock: QUQFOY_clean_sbu_3, # of connection points: 4
#     Node 13, Type 0, BuildingBlock: QUQFOY_clean_sbu_3, # of connection points: 4
#     Node 14, Type 0, BuildingBlock: QUQFOY_clean_sbu_3, # of connection points: 4
#     Node 15, Type 0, BuildingBlock: QUQFOY_clean_sbu_3, # of connection points: 4
#     Edge 16, Type (0, 0), BuildingBlock: MIFKUJ_clean_linker_0, # of connection points: 2
#     Edge 17, Type (0, 0), BuildingBlock: MIFKUJ_clean_linker_0, # of connection points: 2
#     Edge 18, Type (0, 0), BuildingBlock: MIFKUJ_clean_linker_0, # of connection points: 2
#     Edge 19, Type (0, 0), BuildingBlock: MIFKUJ_clean_linker_0, # of connection points: 2
#     Edge 20, Type (0, 0), BuildingBlock: MIFKUJ_clean_linker_0, # of connection points: 2
#     Edge 21, Type (0, 0), BuildingBlock: MIFKUJ_clean_linker_0, # of connection points: 2
#     Edge 22, Type (0, 0), BuildingBlock: MIFKUJ_clean_linker_0, # of connection points: 2
#     Edge 23, Type (0, 0), BuildingBlock: MIFKUJ_clean_linker_0, # of connection points: 2
#     Edge 24, Type (0, 0), BuildingBlock: MIFKUJ_clean_linker_0, # of connection points: 2
#     Edge 25, Type (0, 0), BuildingBlock: MIFKUJ_clean_linker_0, # of connection points: 2
#     Edge 26, Type (0, 0), BuildingBlock: MIFKUJ_clean_linker_0, # of connection points: 2
#     Edge 27, Type (0, 0), BuildingBlock: MIFKUJ_clean_linker_0, # of connection points: 2
#     Edge 28, Type (0, 0), BuildingBlock: MIFKUJ_clean_linker_0, # of connection points: 2
#     Edge 29, Type (0, 0), BuildingBlock: MIFKUJ_clean_linker_0, # of connection points: 2
#     Edge 30, Type (0, 0), BuildingBlock: MIFKUJ_clean_linker_0, # of connection points: 2
#     Edge 31, Type (0, 0), BuildingBlock: MIFKUJ_clean_linker_0, # of connection points: 2
#     Edge 32, Type (0, 0), BuildingBlock: MIFKUJ_clean_linker_0, # of connection points: 2
#     Edge 33, Type (0, 0), BuildingBlock: MIFKUJ_clean_linker_0, # of connection points: 2
#     Edge 34, Type (0, 0), BuildingBlock: MIFKUJ_clean_linker_0, # of connection points: 2
#     Edge 35, Type (0, 0), BuildingBlock: MIFKUJ_clean_linker_0, # of connection points: 2
#     Edge 36, Type (0, 0), BuildingBlock: MIFKUJ_clean_linker_0, # of connection points: 2
#     Edge 37, Type (0, 0), BuildingBlock: MIFKUJ_clean_linker_0, # of connection points: 2
#     Edge 38, Type (0, 0), BuildingBlock: MIFKUJ_clean_linker_0, # of connection points: 2
#     Edge 39, Type (0, 0), BuildingBlock: MIFKUJ_clean_linker_0, # of connection points: 2
#     Edge 40, Type (0, 0), BuildingBlock: MIFKUJ_clean_linker_0, # of connection points: 2
#     Edge 41, Type (0, 0), BuildingBlock: MIFKUJ_clean_linker_0, # of connection points: 2
#     Edge 42, Type (0, 0), BuildingBlock: MIFKUJ_clean_linker_0, # of connection points: 2
#     Edge 43, Type (0, 0), BuildingBlock: MIFKUJ_clean_linker_0, # of connection points: 2
#     Edge 44, Type (0, 0), BuildingBlock: MIFKUJ_clean_linker_0, # of connection points: 2
#     Edge 45, Type (0, 0), BuildingBlock: MIFKUJ_clean_linker_0, # of connection points: 2
#     Edge 46, Type (0, 0), BuildingBlock: MIFKUJ_clean_linker_0, # of connection points: 2
#     Edge 47, Type (0, 0), BuildingBlock: MIFKUJ_clean_linker_0, # of connection points: 2
# Relax obj value: 0.038
# Max RMSD: 0.067
# Mean RMSD: 0.067
data_MOF--net-uou--node1-QUQFOY_clean_sbu_3--edge1-MIFKUJ_clean_linker_0
_symmetry_space_group_name_H-M    P1
_symmetry_Int_Tables_number       1
_symmetry_cell_setting            triclinic
loop_
_symmetry_equiv_pos_as_xyz
'x, y, z'
_cell_length_a     51.859707
_cell_length_b     52.21969
_cell_length_c     72.90579
_cell_angle_alpha  90.197957
_cell_angle_beta   90.109358
_cell_angle_gamma 89.85179
loop_
_atom_site_label
_atom_site_type_symbol
_atom_site_fract_x
_atom_site_fract_y
_atom_site_fract_z
_atom_type_partial_charge
C0 C 0.01228 0.03516 0.13362 0.0
O1 O -0.00699 0.03396 0.12288 0.0
Cd2 Cd -0.0053 0.0472 0.09154 0.0
O3 O 0.03423 0.04236 0.12775 0.0
Cd4 Cd 0.05645 0.0553 0.09921 0.0
C5 C 0.01882 0.10859 0.098 0.0
O6 O 0.03229 0.02805 0.0788 0.0
O7 O 0.05588 0.05635 0.0655 0.0
O8 O 0.08968 0.0246 0.10701 0.0
C9 C 0.04046 0.03764 0.06399 0.0
O10 O 0.00053 0.09341 0.09374 0.0
C11 C 0.10852 0.04 0.1063 0.0
O12 O 0.0414 0.10007 0.10147 0.0
O13 O 0.10326 0.06322 0.10256 0.0
C14 C 0.46875 0.94898 0.13446 0.0
O15 O 0.48677 0.94886 0.12268 0.0
Cd16 Cd 0.48136 0.9373 0.09115 0.0
O17 O 0.44573 0.94332 0.12984 0.0
Cd18 Cd 0.42057 0.93123 0.10221 0.0
C19 C 0.45611 0.87674 0.09751 0.0
O20 O 0.44337 0.95866 0.08133 0.0
O21 O 0.41783 0.93155 0.06848 0.0
O22 O 0.38761 0.96132 0.11215 0.0
C23 C 0.43344 0.95003 0.06671 0.0
O24 O 0.4741 0.89124 0.09181 0.0
C25 C 0.36883 0.94588 0.11095 0.0
O26 O 0.43486 0.88612 0.10331 0.0
O27 O 0.37414 0.923 0.10623 0.0
C28 C 0.51497 0.9511 0.32695 0.0
O29 O 0.49546 0.95272 0.33738 0.0
Cd30 Cd 0.49601 0.93998 0.36885 0.0
O31 O 0.53671 0.94369 0.3332 0.0
Cd32 Cd 0.558 0.93093 0.36221 0.0
C33 C 0.5198 0.87818 0.36352 0.0
O34 O 0.53348 0.95876 0.38198 0.0
O35 O 0.55679 0.93062 0.39588 0.0
O36 O 0.59201 0.96092 0.3551 0.0
C37 C 0.54129 0.94939 0.39699 0.0
O38 O 0.50147 0.89366 0.3672 0.0
C39 C 0.61047 0.94498 0.35581 0.0
O40 O 0.54257 0.88634 0.36042 0.0
O41 O 0.60465 0.92184 0.35927 0.0
C42 C 0.96888 0.03399 0.32649 0.0
O43 O 0.98748 0.03335 0.33783 0.0
Cd44 Cd 0.98386 0.04627 0.36914 0.0
O45 O 0.94632 0.04056 0.33165 0.0
Cd46 Cd 0.92247 0.05295 0.35984 0.0
C47 C 0.95853 0.10707 0.36221 0.0
O48 O 0.94632 0.02575 0.38046 0.0
O49 O 0.92149 0.05333 0.39359 0.0
O50 O 0.8897 0.0226 0.35034 0.0
C51 C 0.93719 0.03482 0.3952 0.0
O52 O 0.97698 0.09235 0.36699 0.0
C53 C 0.87067 0.03775 0.35193 0.0
O54 O 0.93642 0.09799 0.35809 0.0
O55 O 0.87569 0.06063 0.35678 0.0
C56 C 0.95936 0.94018 0.82695 0.0
O57 O 0.97736 0.94635 0.83791 0.0
Cd58 Cd 0.97462 0.93753 0.86994 0.0
O59 O 0.93794 0.93171 0.8329 0.0
Cd60 Cd 0.915 0.92494 0.86232 0.0
C61 C 0.95433 0.87414 0.86825 0.0
O62 O 0.93624 0.9583 0.87995 0.0
O63 O 0.91505 0.93069 0.89573 0.0
O64 O 0.88058 0.94911 0.84772 0.0
C65 C 0.92818 0.95112 0.89547 0.0
O66 O 0.97172 0.89072 0.87163 0.0
C67 C 0.86229 0.9353 0.85358 0.0
O68 O 0.93159 0.88107 0.86374 0.0
O69 O 0.86848 0.91586 0.8631 0.0
C70 C 0.5094 0.03873 0.82641 0.0
O71 O 0.49037 0.0367 0.83724 0.0
Cd72 Cd 0.49306 0.04593 0.86925 0.0
O73 O 0.53166 0.04475 0.83246 0.0
Cd74 Cd 0.55436 0.05398 0.86168 0.0
C75 C 0.51759 0.10746 0.8661 0.0
O76 O 0.53025 0.02341 0.87963 0.0
O77 O 0.55453 0.04891 0.89515 0.0
O78 O 0.58786 0.02739 0.84811 0.0
C79 C 0.5391 0.03013 0.89509 0.0
O80 O 0.49919 0.09223 0.86982 0.0
C81 C 0.60667 0.04095 0.85354 0.0
O82 O 0.53989 0.09889 0.86192 0.0
O83 O 0.60122 0.06127 0.86238 0.0
C84 C 0.46431 0.04409 0.63279 0.0
O85 O 0.48256 0.0429 0.62123 0.0
Cd86 Cd 0.47606 0.05046 0.58915 0.0
O87 O 0.44137 0.04917 0.62764 0.0
Cd88 Cd 0.41608 0.05826 0.59971 0.0
C89 C 0.4514 0.11171 0.59228 0.0
O90 O 0.43837 0.02694 0.58106 0.0
O91 O 0.41341 0.05255 0.56624 0.0
O92 O 0.38397 0.0322 0.61506 0.0
C93 C 0.42835 0.03331 0.56591 0.0
O94 O 0.46907 0.09657 0.58674 0.0
C95 C 0.36465 0.04557 0.6103 0.0
O96 O 0.4305 0.10313 0.59909 0.0
O97 O 0.3692 0.06558 0.60097 0.0
C98 C 0.01321 0.94173 0.63381 0.0
O99 O -0.00487 0.94691 0.62265 0.0
Cd100 Cd -0.00087 0.93856 0.59056 0.0
O101 O 0.03521 0.93436 0.62806 0.0
Cd102 Cd 0.05955 0.92793 0.59917 0.0
C103 C 0.02207 0.87594 0.59265 0.0
O104 O 0.03723 0.9602 0.58136 0.0
O105 O 0.06079 0.93399 0.56582 0.0
O106 O 0.09233 0.95317 0.61469 0.0
C107 C 0.0462 0.95351 0.56593 0.0
O108 O 0.00419 0.89195 0.58902 0.0
C109 C 0.11138 0.93984 0.60934 0.0
O110 O 0.04444 0.88358 0.59744 0.0
O111 O 0.10638 0.92025 0.59956 0.0
C112 C 0.51009 0.53722 0.13529 0.0
O113 O 0.49218 0.53413 0.1236 0.0
Cd114 Cd 0.497 0.5457 0.09211 0.0
O115 O 0.53227 0.54499 0.13034 0.0
Cd116 Cd 0.55714 0.55605 0.10261 0.0
C117 C 0.51864 0.60814 0.09824 0.0
O118 O 0.53605 0.52635 0.08217 0.0
O119 O 0.55965 0.55471 0.06896 0.0
O120 O 0.5895 0.52695 0.11427 0.0
C121 C 0.54543 0.53509 0.06746 0.0
O122 O 0.50146 0.5922 0.09314 0.0
C123 C 0.60858 0.54187 0.11244 0.0
O124 O 0.54089 0.60046 0.1034 0.0
O125 O 0.60375 0.56428 0.10651 0.0
C126 C 0.96371 0.44856 0.1357 0.0
O127 O 0.98255 0.45191 0.12488 0.0
Cd128 Cd 0.98042 0.44003 0.09321 0.0
O129 O 0.94201 0.44079 0.12967 0.0
Cd130 Cd 0.9193 0.43032 0.1008 0.0
C131 C 0.95761 0.37782 0.09787 0.0
O132 O 0.9424 0.45938 0.08131 0.0
O133 O 0.91957 0.43105 0.06714 0.0
O134 O 0.88611 0.46046 0.10961 0.0
C135 C 0.93421 0.45044 0.06622 0.0
O136 O 0.97561 0.39351 0.09408 0.0
C137 C 0.86736 0.44497 0.10866 0.0
O138 O 0.9349 0.3858 0.10154 0.0
O139 O 0.87267 0.4219 0.10436 0.0
C140 C 0.01257 0.44663 0.32845 0.0
O141 O -0.00582 0.45019 0.33965 0.0
Cd142 Cd -0.00244 0.43864 0.37115 0.0
O143 O 0.03441 0.43847 0.33401 0.0
Cd144 Cd 0.05807 0.42741 0.36248 0.0
C145 C 0.01901 0.37588 0.36563 0.0
O146 O 0.03623 0.45854 0.38141 0.0
O147 O 0.05896 0.43085 0.39614 0.0
O148 O 0.0912 0.45324 0.34823 0.0
C149 C 0.04481 0.45067 0.39663 0.0
O150 O 0.00148 0.39196 0.3699 0.0
C151 C 0.11013 0.43948 0.3532 0.0
O152 O 0.04172 0.38334 0.36163 0.0
O153 O 0.10494 0.41931 0.36218 0.0
C154 C 0.45996 0.54195 0.3277 0.0
O155 O 0.47883 0.5377 0.33841 0.0
Cd156 Cd 0.47693 0.54753 0.37041 0.0
O157 O 0.43837 0.54972 0.33394 0.0
Cd158 Cd 0.41563 0.55892 0.36302 0.0
C159 C 0.45467 0.61041 0.36743 0.0
O160 O 0.43864 0.52743 0.38082 0.0
O161 O 0.41566 0.55395 0.39651 0.0
O162 O 0.38252 0.53303 0.34865 0.0
C163 C 0.4305 0.53462 0.39636 0.0
O164 O 0.4724 0.59419 0.37096 0.0
C165 C 0.36354 0.54651 0.35393 0.0
O166 O 0.43191 0.60306 0.36333 0.0
O167 O 0.36867 0.56655 0.36319 0.0
C168 C 0.46548 0.44963 0.8246 0.0
O169 O 0.48544 0.45181 0.83459 0.0
Cd170 Cd 0.48573 0.43945 0.8662 0.0
O171 O 0.44417 0.44234 0.83145 0.0
Cd172 Cd 0.4243 0.43106 0.86105 0.0
C173 C 0.46168 0.37776 0.86244 0.0
O174 O 0.44942 0.45947 0.88022 0.0
O175 O 0.42684 0.43127 0.89457 0.0
O176 O 0.39038 0.46144 0.85427 0.0
C177 C 0.44196 0.45031 0.89537 0.0
O178 O 0.48028 0.39306 0.8656 0.0
C179 C 0.37181 0.44578 0.85536 0.0
O180 O 0.43894 0.38624 0.85952 0.0
O181 O 0.37752 0.4226 0.85888 0.0
C182 C 0.01479 0.53661 0.82773 0.0
O183 O -0.0035 0.53219 0.83881 0.0
Cd184 Cd -0.00089 0.54408 0.87039 0.0
O185 O 0.03643 0.54498 0.83345 0.0
Cd186 Cd 0.05977 0.55432 0.86239 0.0
C187 C 0.02167 0.60657 0.86614 0.0
O188 O 0.03728 0.52439 0.88167 0.0
O189 O 0.06003 0.55254 0.89604 0.0
O190 O 0.09269 0.52509 0.85166 0.0
C191 C 0.04564 0.53297 0.8968 0.0
O192 O 0.00371 0.59071 0.86967 0.0
C193 C 0.11164 0.54007 0.85398 0.0
O194 O 0.04444 0.59882 0.86246 0.0
O195 O 0.10652 0.5625 0.85985 0.0
C196 C 0.96247 0.53785 0.63485 0.0
O197 O 0.98067 0.5327 0.62381 0.0
Cd198 Cd 0.97863 0.54538 0.59241 0.0
O199 O 0.94114 0.54699 0.62911 0.0
Cd200 Cd 0.91802 0.55661 0.60017 0.0
C201 C 0.95664 0.60825 0.59713 0.0
O202 O 0.94035 0.52685 0.58047 0.0
O203 O 0.91811 0.55577 0.5665 0.0
O204 O 0.88499 0.5272 0.60999 0.0
C205 C 0.93237 0.53605 0.56545 0.0
O206 O 0.97449 0.59211 0.59364 0.0
C207 C 0.86616 0.5426 0.60848 0.0
O208 O 0.93372 0.60085 0.60055 0.0
O209 O 0.87138 0.56529 0.60338 0.0
C210 C 0.50928 0.44877 0.63197 0.0
O211 O 0.49167 0.45198 0.62007 0.0
Cd212 Cd 0.49727 0.4412 0.58837 0.0
O213 O 0.5317 0.44123 0.62727 0.0
Cd214 Cd 0.55735 0.431 0.59968 0.0
C215 C 0.5198 0.37885 0.59323 0.0
O216 O 0.53642 0.46078 0.57941 0.0
O217 O 0.56036 0.43265 0.56601 0.0
O218 O 0.58926 0.46032 0.61153 0.0
C219 C 0.54595 0.45222 0.56464 0.0
O220 O 0.50262 0.39468 0.58789 0.0
C221 C 0.60844 0.44533 0.61006 0.0
O222 O 0.54145 0.38662 0.59946 0.0
O223 O 0.60386 0.42277 0.60426 0.0
H224 H 0.32455 0.91733 0.11039 0.0
H225 H 0.28011 0.93305 0.11217 0.0
H226 H 0.30801 0.01031 0.1188 0.0
H227 H 0.35236 -0.00532 0.11756 0.0
H228 H 0.26767 0.0034 0.14004 0.0
H229 H 0.28737 0.98737 0.0768 0.0
H230 H 0.30191 0.96193 0.05018 0.0
H231 H 0.24088 0.90802 0.05921 0.0
H232 H 0.22618 0.93299 0.08604 0.0
H233 H 0.15291 0.06837 0.10906 0.0
H234 H 0.19717 0.0522 0.11237 0.0
H235 H 0.16865 0.9747 0.11282 0.0
H236 H 0.12459 0.99059 0.10965 0.0
H237 H 0.20901 0.98187 0.08844 0.0
H238 H 0.18876 0.00021 0.15154 0.0
H239 H 0.17453 0.02731 0.17738 0.0
H240 H 0.23702 0.07919 0.16743 0.0
H241 H 0.25142 0.05257 0.14134 0.0
C242 C 0.32121 0.93762 0.11244 0.0
C243 C 0.34197 0.95477 0.11369 0.0
C244 C 0.2958 0.94661 0.11336 0.0
C245 C 0.2907 0.97294 0.11527 0.0
C246 C 0.31143 0.98994 0.11727 0.0
C247 C 0.3368 0.98095 0.1165 0.0
C248 C 0.26387 0.98296 0.11445 0.0
C249 C 0.25494 -0.0011 0.12866 0.0
C250 C 0.24711 0.97691 0.0997 0.0
C251 C 0.25585 0.9619 0.08354 0.0
C252 C 0.27717 0.96999 0.07319 0.0
C253 C 0.28542 0.95567 0.05805 0.0
C254 C 0.27237 0.93333 0.05304 0.0
C255 C 0.251 0.92531 0.06313 0.0
C256 C 0.24269 0.93954 0.07829 0.0
C257 C 0.15609 0.04791 0.10999 0.0
C258 C 0.13526 0.03077 0.10908 0.0
C259 C 0.18135 0.03871 0.11193 0.0
C260 C 0.18614 0.01225 0.11289 0.0
C261 C 0.16536 -0.00482 0.11209 0.0
C262 C 0.14018 0.00433 0.11034 0.0
C263 C 0.21284 0.00216 0.11405 0.0
C264 C 0.22174 0.98628 0.09984 0.0
C265 C 0.22961 0.00852 0.12868 0.0
C266 C 0.221 0.02454 0.14436 0.0
C267 C 0.19933 0.01752 0.15475 0.0
C268 C 0.19126 0.03277 0.16947 0.0
C269 C 0.20482 0.055 0.17401 0.0
C270 C 0.22652 0.06199 0.16387 0.0
C271 C 0.23465 0.04682 0.14913 0.0
H272 H 0.19855 0.06678 0.18541 0.0
H273 H 0.27879 0.92228 0.04131 0.0
H274 H 0.62802 -0.00604 0.35416 0.0
H275 H 0.67235 0.00849 0.35104 0.0
H276 H 0.69842 0.93003 0.34808 0.0
H277 H 0.65389 0.91529 0.35188 0.0
H278 H 0.72861 0.95579 0.36979 0.0
H279 H 0.69611 0.97028 0.30946 0.0
H280 H 0.66592 0.98629 0.28596 0.0
H281 H 0.68003 0.06361 0.30344 0.0
H282 H 0.71005 0.04805 0.32723 0.0
H283 H 0.85523 0.98932 0.34328 0.0
H284 H 0.81122 0.97301 0.34144 0.0
H285 H 0.78152 0.04861 0.35282 0.0
H286 H 0.82565 0.0652 0.35466 0.0
H287 H 0.75406 0.02273 0.32524 0.0
H288 H 0.78513 0.0068 0.38665 0.0
H289 H 0.81585 0.98998 0.40952 0.0
H290 H 0.80483 0.9138 0.38863 0.0
H291 H 0.7743 0.93023 0.36546 0.0
C292 C 0.64313 0.97975 0.35274 0.0
C293 C 0.63743 0.95345 0.35321 0.0
C294 C 0.66851 0.98811 0.35083 0.0
C295 C 0.68875 0.9704 0.34897 0.0
C296 C 0.68312 0.94408 0.34941 0.0
C297 C 0.65768 0.93567 0.35154 0.0
C298 C 0.71582 0.97947 0.34737 0.0
C299 C 0.73423 0.97007 0.3598 0.0
C300 C 0.72315 -0.00149 0.33459 0.0
C301 C 0.70519 0.00797 0.32023 0.0
C302 C 0.69265 0.99069 0.30838 0.0
C303 C 0.67558 -0.00031 0.29499 0.0
C304 C 0.67102 0.02594 0.29323 0.0
C305 C 0.68357 0.04327 0.30483 0.0
C306 C 0.70064 0.03437 0.31825 0.0
C307 C 0.83936 0.00258 0.34524 0.0
C308 C 0.84394 0.02855 0.34925 0.0
C309 C 0.81422 -0.00682 0.34423 0.0
C310 C 0.79314 0.00954 0.34723 0.0
C311 C 0.79756 0.03567 0.35051 0.0
C312 C 0.82276 0.0451 0.35159 0.0
C313 C 0.76658 -0.00089 0.34769 0.0
C314 C 0.74835 0.00829 0.33508 0.0
C315 C 0.75945 0.97971 0.36018 0.0
C316 C 0.77763 0.96978 0.37421 0.0
C317 C 0.78941 0.98649 0.38685 0.0
C318 C 0.80676 0.97702 0.39988 0.0
C319 C 0.81234 0.95084 0.4005 0.0
C320 C 0.80052 0.93407 0.38812 0.0
C321 C 0.78317 0.94345 0.37504 0.0
H322 H 0.82579 0.94355 0.41059 0.0
H323 H 0.6578 0.03287 0.28286 0.0
H324 H 0.84305 0.96664 0.82703 0.0
H325 H 0.79917 0.98347 0.82453 0.0
H326 H 0.77685 0.93951 0.87193 0.0
H327 H 0.8204 0.92164 0.87388 0.0
H328 H 0.73892 0.93999 0.84978 0.0
H329 H 0.79386 0.00531 0.87416 0.0
H330 H 0.83144 0.03415 0.87497 0.0
H331 H 0.80654 0.06909 0.8247 0.0
H332 H 0.76898 0.04021 0.82348 0.0
H333 H 0.64962 0.0562 0.8723 0.0
H334 H 0.6929 0.03768 0.87043 0.0
H335 H 0.66785 0.98825 0.82633 0.0
H336 H 0.62429 0.00588 0.82874 0.0
H337 H 0.72943 0.03448 0.84711 0.0
H338 H 0.6978 0.9313 0.82799 0.0
H339 H 0.6604 0.9028 0.83221 0.0
H340 H 0.63891 0.94423 0.88084 0.0
H341 H 0.67634 0.97275 0.87704 0.0
C342 C 0.82865 0.96028 0.83674 0.0
C343 C 0.83515 0.94297 0.85073 0.0
C344 C 0.80362 0.97006 0.83539 0.0
C345 C 0.78481 0.96333 0.84834 0.0
C346 C 0.791 0.94512 0.86182 0.0
C347 C 0.81591 0.9349 0.86293 0.0
C348 C 0.75905 0.97596 0.84833 0.0
C349 C 0.73688 0.96065 0.84913 0.0
C350 C 0.75626 0.00297 0.84791 0.0
C351 C 0.77876 0.02043 0.84864 0.0
C352 C 0.7965 0.01903 0.86322 0.0
C353 C 0.81778 0.0354 0.86376 0.0
C354 C 0.82141 0.0534 0.84987 0.0
C355 C 0.80372 0.05511 0.83544 0.0
C356 C 0.78243 0.03876 0.83482 0.0
C357 C 0.65343 0.04155 0.8621 0.0
C358 C 0.63354 0.03229 0.8508 0.0
C359 C 0.67818 0.03097 0.86103 0.0
C360 C 0.68357 0.01115 0.8485 0.0
C361 C 0.66404 0.00299 0.83646 0.0
C362 C 0.63919 0.01321 0.83776 0.0
C363 C 0.70931 -0.00149 0.84848 0.0
C364 C 0.73148 0.01382 0.84764 0.0
C365 C 0.71211 0.97154 0.84958 0.0
C366 C 0.68971 0.95431 0.8521 0.0
C367 C 0.68513 0.93426 0.83961 0.0
C368 C 0.66393 0.91811 0.84193 0.0
C369 C 0.64724 0.92175 0.85674 0.0
C370 C 0.65179 0.94149 0.86933 0.0
C371 C 0.67298 0.95766 0.86709 0.0
H372 H 0.63083 0.90925 0.8585 0.0
H373 H 0.8379 0.06605 0.85031 0.0
H374 H 0.15513 0.92706 0.59066 0.0
H375 H 0.19829 0.94471 0.59503 0.0
H376 H 0.17117 0.9881 0.64172 0.0
H377 H 0.1277 0.97149 0.63675 0.0
H378 H 0.19806 0.01764 0.62277 0.0
H379 H 0.21306 0.93392 0.64539 0.0
H380 H 0.21262 0.8867 0.64571 0.0
H381 H 0.26059 0.88482 0.59779 0.0
H382 H 0.26104 0.93204 0.59702 0.0
H383 H 0.34958 0.01072 0.63584 0.0
H384 H 0.30636 -0.00656 0.64055 0.0
H385 H 0.27701 0.04249 0.59773 0.0
H386 H 0.31997 0.06061 0.59358 0.0
H387 H 0.27856 0.96638 0.61981 0.0
H388 H 0.21443 0.05517 0.60252 0.0
H389 H 0.21505 0.10199 0.60709 0.0
H390 H 0.26556 0.09308 0.65338 0.0
H391 H 0.26498 0.04621 0.64925 0.0
C392 C 0.15849 0.94008 0.602 0.0
C393 C 0.13808 0.94791 0.61336 0.0
C394 C 0.18322 0.95011 0.60456 0.0
C395 C 0.18818 0.9676 0.61885 0.0
C396 C 0.1679 0.97476 0.63056 0.0
C397 C 0.14307 0.96516 0.62776 0.0
C398 C 0.21407 0.97957 0.62089 0.0
C399 C 0.21564 0.00638 0.62224 0.0
C400 C 0.23711 0.96496 0.62069 0.0
C401 C 0.23692 0.93654 0.62108 0.0
C402 C 0.22337 0.92344 0.63484 0.0
C403 C 0.22314 0.89667 0.63512 0.0
C404 C 0.23652 0.88277 0.62176 0.0
C405 C 0.25021 0.89561 0.60812 0.0
C406 C 0.25049 0.92238 0.60777 0.0
C407 C 0.33379 0.01812 0.62766 0.0
C408 C 0.33812 0.03706 0.61437 0.0
C409 C 0.30911 0.00815 0.63031 0.0
C410 C 0.28829 0.0167 0.61959 0.0
C411 C 0.29255 0.03593 0.60648 0.0
C412 C 0.31717 0.04623 0.60406 0.0
C413 C 0.26252 0.00446 0.62131 0.0
C414 C 0.26097 0.97761 0.62058 0.0
C415 C 0.23952 0.01897 0.62281 0.0
C416 C 0.23983 0.04717 0.62546 0.0
C417 C 0.22559 0.06319 0.61372 0.0
C418 C 0.22595 0.08975 0.61623 0.0
C419 C 0.2404 0.10051 0.63048 0.0
C420 C 0.25446 0.08473 0.6423 0.0
C421 C 0.25414 0.05817 0.63986 0.0
H422 H 0.24066 0.12107 0.63239 0.0
H423 H 0.23632 0.86205 0.62199 0.0
H424 H 0.82381 0.41615 0.1139 0.0
H425 H 0.77956 0.43177 0.11789 0.0
H426 H 0.80642 0.50967 0.1134 0.0
H427 H 0.85055 0.49426 0.11025 0.0
H428 H 0.77177 0.50828 0.13842 0.0
H429 H 0.77706 0.4756 0.0767 0.0
H430 H 0.78547 0.44321 0.05272 0.0
H431 H 0.72807 0.39409 0.07612 0.0
H432 H 0.71955 0.42608 0.10037 0.0
H433 H 0.65389 0.56865 0.10952 0.0
H434 H 0.69783 0.55156 0.11222 0.0
H435 H 0.6672 0.47715 0.12533 0.0
H436 H 0.62342 0.49397 0.12272 0.0
H437 H 0.70279 0.47546 0.09748 0.0
H438 H 0.69575 0.51142 0.15804 0.0
H439 H 0.68735 0.54553 0.18074 0.0
H440 H 0.74823 0.59076 0.15777 0.0
H441 H 0.75677 0.55706 0.13475 0.0
C442 C 0.82023 0.43659 0.11388 0.0
C443 C 0.84063 0.45396 0.11168 0.0
C444 C 0.79494 0.44552 0.11607 0.0
C445 C 0.78953 0.47193 0.11564 0.0
C446 C 0.81001 0.48923 0.11381 0.0
C447 C 0.83527 0.48036 0.11194 0.0
C448 C 0.7626 0.48173 0.11666 0.0
C449 C 0.75677 0.50124 0.12933 0.0
C450 C 0.74282 0.47233 0.10504 0.0
C451 C 0.74788 0.4531 0.09045 0.0
C452 C 0.76637 0.45781 0.0768 0.0
C453 C 0.77113 0.43954 0.06315 0.0
C454 C 0.75736 0.41657 0.06293 0.0
C455 C 0.73875 0.41186 0.07633 0.0
C456 C 0.73393 0.43006 0.09002 0.0
C457 C 0.65654 0.54875 0.11323 0.0
C458 C 0.63517 0.53266 0.11584 0.0
C459 C 0.68163 0.53903 0.1148 0.0
C460 C 0.68574 0.51308 0.11899 0.0
C461 C 0.66445 0.4972 0.12205 0.0
C462 C 0.63943 0.5069 0.1206 0.0
C463 C 0.71211 0.50207 0.11911 0.0
C464 C 0.7178 0.48235 0.10662 0.0
C465 C 0.7318 0.51154 0.13071 0.0
C466 C 0.72673 0.53181 0.14456 0.0
C467 C 0.7072 0.52873 0.15773 0.0
C468 C 0.70244 0.54797 0.17067 0.0
C469 C 0.7172 0.57033 0.17067 0.0
C470 C 0.73679 0.57345 0.15774 0.0
C471 C 0.74162 0.55427 0.14476 0.0
H472 H 0.71349 0.5852 0.1807 0.0
H473 H 0.76108 0.40245 0.05235 0.0
H474 H 0.34716 0.51296 0.32778 0.0
H475 H 0.30382 0.49569 0.32364 0.0
H476 H 0.27669 0.54221 0.36876 0.0
H477 H 0.31981 0.56041 0.37235 0.0
H478 H 0.27729 0.46736 0.34412 0.0
H479 H 0.21355 0.55437 0.36584 0.0
H480 H 0.21376 0.60146 0.36326 0.0
H481 H 0.26235 0.59627 0.31577 0.0
H482 H 0.26216 0.54915 0.31791 0.0
H483 H 0.15379 0.42538 0.37162 0.0
H484 H 0.19695 0.44347 0.36828 0.0
H485 H 0.17004 0.49003 0.32328 0.0
H486 H 0.12662 0.4729 0.3272 0.0
H487 H 0.1965 0.51832 0.34391 0.0
H488 H 0.21184 0.43637 0.3176 0.0
H489 H 0.21168 0.38924 0.31536 0.0
H490 H 0.2599 0.38431 0.36316 0.0
H491 H 0.26008 0.43142 0.36584 0.0
C492 C 0.33183 0.51982 0.33661 0.0
C493 C 0.33682 0.53808 0.35035 0.0
C494 C 0.30708 0.50983 0.33429 0.0
C495 C 0.28685 0.51766 0.34581 0.0
C496 C 0.29177 0.53621 0.35941 0.0
C497 C 0.31645 0.54657 0.36151 0.0
C498 C 0.26105 0.50541 0.34424 0.0
C499 C 0.25964 0.47854 0.34398 0.0
C500 C 0.23794 0.51988 0.34362 0.0
C501 C 0.23802 0.54823 0.34215 0.0
C502 C 0.22419 0.56328 0.35481 0.0
C503 C 0.22433 0.58997 0.35343 0.0
C504 C 0.23812 0.60185 0.3394 0.0
C505 C 0.25175 0.58705 0.32668 0.0
C506 C 0.25167 0.56035 0.32798 0.0
C507 C 0.15721 0.43919 0.36085 0.0
C508 C 0.13688 0.44775 0.34968 0.0
C509 C 0.18192 0.44949 0.3589 0.0
C510 C 0.18691 0.46802 0.34541 0.0
C511 C 0.16672 0.47589 0.33385 0.0
C512 C 0.14193 0.46599 0.33604 0.0
C513 C 0.21273 0.48025 0.34403 0.0
C514 C 0.21415 0.50713 0.34386 0.0
C515 C 0.23585 0.46578 0.34354 0.0
C516 C 0.23579 0.43743 0.342 0.0
C517 C 0.22226 0.42523 0.32771 0.0
C518 C 0.22219 0.39852 0.32635 0.0
C519 C 0.23572 0.38379 0.33913 0.0
C520 C 0.24941 0.39575 0.35328 0.0
C521 C 0.24953 0.42245 0.35471 0.0
H522 H 0.23565 0.36311 0.33805 0.0
H523 H 0.23821 0.62252 0.33836 0.0
H524 H 0.1566 0.56737 0.85722 0.0
H525 H 0.20076 0.55082 0.85467 0.0
H526 H 0.17112 0.47577 0.84183 0.0
H527 H 0.12712 0.49206 0.84429 0.0
H528 H 0.20726 0.47494 0.86944 0.0
H529 H 0.1984 0.51007 0.8089 0.0
H530 H 0.18897 0.54376 0.78623 0.0
H531 H 0.24955 0.59026 0.80868 0.0
H532 H 0.2591 0.55699 0.83167 0.0
H533 H 0.32825 0.41671 0.85082 0.0
H534 H 0.28374 0.43204 0.84784 0.0
H535 H 0.31017 0.51009 0.85268 0.0
H536 H 0.35455 0.49498 0.8549 0.0
H537 H 0.2748 0.50832 0.82787 0.0
H538 H 0.28223 0.47596 0.88939 0.0
H539 H 0.29165 0.44375 0.91316 0.0
H540 H 0.23397 0.39403 0.8904 0.0
H541 H 0.22442 0.42583 0.86634 0.0
C542 C 0.15952 0.54742 0.85364 0.0
C543 C 0.13837 0.53102 0.851 0.0
C544 C 0.18473 0.53801 0.85216 0.0
C545 C 0.18917 0.51207 0.84803 0.0
C546 C 0.1681 0.49582 0.84505 0.0
C547 C 0.14296 0.50522 0.84641 0.0
C548 C 0.21571 0.50148 0.84774 0.0
C549 C 0.22196 0.48196 0.86017 0.0
C550 C 0.23498 0.51112 0.83596 0.0
C551 C 0.2293 0.53113 0.82213 0.0
C552 C 0.20956 0.52757 0.80911 0.0
C553 C 0.20423 0.54658 0.79618 0.0
C554 C 0.21861 0.56917 0.79604 0.0
C555 C 0.2384 0.57277 0.80882 0.0
C556 C 0.2438 0.55383 0.82179 0.0
C557 C 0.32452 0.43713 0.85117 0.0
C558 C 0.34487 0.45463 0.85317 0.0
C559 C 0.29908 0.44588 0.84955 0.0
C560 C 0.29351 0.47224 0.85032 0.0
C561 C 0.31391 0.48969 0.85202 0.0
C562 C 0.3393 0.48099 0.85335 0.0
C563 C 0.26649 0.48182 0.84968 0.0
C564 C 0.26012 0.50118 0.8371 0.0
C565 C 0.24714 0.47226 0.86149 0.0
C566 C 0.25281 0.45315 0.87596 0.0
C567 C 0.27168 0.45808 0.88938 0.0
C568 C 0.27703 0.43991 0.90291 0.0
C569 C 0.26347 0.41683 0.90326 0.0
C570 C 0.24448 0.4119 0.89009 0.0
C571 C 0.23909 0.42999 0.87652 0.0
H572 H 0.26763 0.40279 0.91375 0.0
H573 H 0.21445 0.58385 0.78602 0.0
H574 H 0.62302 0.49404 0.61833 0.0
H575 H 0.66674 0.51077 0.62104 0.0
H576 H 0.69763 0.4349 0.61266 0.0
H577 H 0.6537 0.41788 0.60972 0.0
H578 H 0.72272 0.46558 0.64144 0.0
H579 H 0.69688 0.47047 0.57775 0.0
H580 H 0.66762 0.48252 0.5525 0.0
H581 H 0.67438 0.56177 0.56762 0.0
H582 H 0.7034 0.55014 0.59315 0.0
H583 H 0.85014 0.49388 0.61487 0.0
H584 H 0.80615 0.47853 0.61826 0.0
H585 H 0.77756 0.55588 0.61321 0.0
H586 H 0.82178 0.57135 0.60918 0.0
H587 H 0.75025 0.52566 0.59268 0.0
H588 H 0.77743 0.52263 0.65502 0.0
H589 H 0.80562 0.51202 0.68119 0.0
H590 H 0.79549 0.4318 0.67033 0.0
H591 H 0.76751 0.44193 0.64392 0.0
C592 C 0.63905 0.48079 0.61727 0.0
C593 C 0.6349 0.45463 0.61368 0.0
C594 C 0.66402 0.49042 0.61881 0.0
C595 C 0.68534 0.4741 0.61689 0.0
C596 C 0.68135 0.44778 0.61417 0.0
C597 C 0.65629 0.43811 0.61244 0.0
C598 C 0.71169 0.48489 0.61662 0.0
C599 C 0.72894 0.47848 0.6307 0.0
C600 C 0.71935 0.50237 0.60291 0.0
C601 C 0.70208 0.50941 0.58747 0.0
C602 C 0.69195 0.49044 0.57579 0.0
C603 C 0.67544 0.4972 0.56141 0.0
C604 C 0.66909 0.52288 0.55848 0.0
C605 C 0.67929 0.54188 0.56991 0.0
C606 C 0.69578 0.53521 0.58433 0.0
C607 C 0.83454 0.50772 0.61464 0.0
C608 C 0.83945 0.53387 0.61177 0.0
C609 C 0.80935 0.49889 0.61671 0.0
C610 C 0.7885 0.51606 0.61628 0.0
C611 C 0.79335 0.54227 0.61364 0.0
C612 C 0.81861 0.55111 0.61138 0.0
C613 C 0.76164 0.50634 0.61751 0.0
C614 C 0.74417 0.51291 0.60356 0.0
C615 C 0.75373 0.48926 0.63149 0.0
C616 C 0.77054 0.48306 0.64738 0.0
C617 C 0.78137 0.50273 0.65812 0.0
C618 C 0.79729 0.4968 0.67301 0.0
C619 C 0.80239 0.47125 0.67739 0.0
C620 C 0.79154 0.45158 0.66691 0.0
C621 C 0.77562 0.45741 0.65199 0.0
H622 H 0.81472 0.4667 0.68893 0.0
H623 H 0.6563 0.52808 0.54734 0.0
H624 H 0.01538 0.02572 0.3099 0.0
H625 H 0.02376 0.02034 0.27717 0.0
H626 H 0.94216 0.02412 0.26599 0.0
H627 H 0.93348 0.02953 0.29875 0.0
H628 H 0.96866 0.98637 0.24512 0.0
H629 H 0.97511 0.07601 0.26084 0.0
H630 H -0.00868 0.11292 0.27858 0.0
H631 H 0.0688 0.09507 0.26214 0.0
H632 H 0.05306 0.05779 0.24451 0.0
H633 H 0.96742 0.02496 0.15183 0.0
H634 H 0.96173 0.01895 0.18474 0.0
H635 H 0.04388 0.02565 0.19285 0.0
H636 H 0.04972 0.03222 0.15998 0.0
H637 H 0.01891 0.05576 0.21573 0.0
H638 H 0.01256 0.96795 0.198 0.0
H639 H -0.00333 0.93084 0.18035 0.0
H640 H 0.91998 0.94442 0.2003 0.0
H641 H 0.93534 0.98185 0.21788 0.0
C642 C -0.00085 0.02512 0.30054 0.0
C643 C 0.97376 0.02832 0.30692 0.0
C644 C 0.004 0.02206 0.28185 0.0
C645 C 0.98358 0.0221 0.26922 0.0
C646 C 0.95815 0.02407 0.27557 0.0
C647 C 0.95327 0.02728 0.29427 0.0
C648 C -0.01113 0.02186 0.24933 0.0
C649 C 0.97946 0.0016 0.2386 0.0
C650 C 0.00346 0.04148 0.24102 0.0
C651 C 0.01294 0.06395 0.25154 0.0
C652 C -0.00437 0.07982 0.26114 0.0
C653 C 0.00472 0.10083 0.27115 0.0
C654 C 0.03108 0.10629 0.27153 0.0
C655 C 0.04839 0.09079 0.26186 0.0
C656 C 0.03939 0.06973 0.25185 0.0
C657 C 0.98433 0.02486 0.16057 0.0
C658 C 0.00902 0.02922 0.15329 0.0
C659 C 0.98105 0.02127 0.17938 0.0
C660 C 0.00241 0.02165 0.19123 0.0
C661 C 0.02714 0.0253 0.18394 0.0
C662 C 0.03043 0.02904 0.16515 0.0
C663 C -0.00127 0.0202 0.21134 0.0
C664 C 0.00836 0.04029 0.22217 0.0
C665 C 0.98441 0.00036 0.21969 0.0
C666 C 0.97508 0.97785 0.20914 0.0
C667 C -0.00773 0.96316 0.19851 0.0
C668 C 0.98336 0.94204 0.18854 0.0
C669 C 0.95732 0.93531 0.18917 0.0
C670 C 0.94014 0.94966 0.19981 0.0
C671 C 0.94895 0.97082 0.2098 0.0
H672 H 0.95046 0.91895 0.18144 0.0
H673 H 0.03809 0.12257 0.27928 0.0
H674 H 0.51631 0.95479 0.15013 0.0
H675 H 0.52627 0.96075 0.18263 0.0
H676 H 0.44506 0.96197 0.19522 0.0
H677 H 0.43482 0.956 0.16273 0.0
H678 H 0.47397 -0.00096 0.2147 0.0
H679 H 0.476 0.90849 0.20084 0.0
H680 H 0.49017 0.87013 0.18377 0.0
H681 H 0.56873 0.88494 0.19911 0.0
H682 H 0.55504 0.92363 0.21605 0.0
H683 H 0.47082 0.96299 0.30822 0.0
H684 H 0.46577 0.96853 0.27521 0.0
H685 H 0.54763 0.9578 0.26788 0.0
H686 H 0.55284 0.95173 0.30088 0.0
H687 H 0.52143 0.92827 0.24514 0.0
H688 H 0.51931 0.01664 0.26152 0.0
H689 H 0.5054 0.05509 0.27858 0.0
H690 H 0.42803 0.04517 0.25877 0.0
H691 H 0.44139 0.00643 0.24178 0.0
C692 C 0.50053 0.95659 0.15976 0.0
C693 C 0.47476 0.95468 0.15387 0.0
C694 C 0.50628 0.95998 0.17831 0.0
C695 C 0.48639 0.96157 0.19127 0.0
C696 C 0.46065 0.96077 0.18538 0.0
C697 C 0.45486 0.95722 0.16684 0.0
C698 C 0.49241 0.96241 0.21106 0.0
C699 C 0.48417 0.98354 0.22145 0.0
C700 C 0.50629 0.94242 0.21965 0.0
C701 C 0.51453 0.91911 0.20952 0.0
C702 C 0.49632 0.90369 0.20043 0.0
C703 C 0.50426 0.88187 0.19081 0.0
C704 C 0.53035 0.87514 0.1903 0.0
C705 C 0.54854 0.8902 0.19947 0.0
C706 C 0.5407 0.91207 0.2091 0.0
C707 C 0.48782 0.9621 0.29964 0.0
C708 C 0.51222 0.95677 0.30718 0.0
C709 C 0.48491 0.96543 0.28076 0.0
C710 C 0.50636 0.96379 0.26911 0.0
C711 C 0.53083 0.95916 0.27664 0.0
C712 C 0.53376 0.95571 0.29551 0.0
C713 C 0.5029 0.96491 0.24896 0.0
C714 C 0.51153 0.94403 0.23846 0.0
C715 C 0.48946 0.98518 0.2403 0.0
C716 C 0.48132 0.00849 0.25049 0.0
C717 C 0.49928 0.02253 0.26092 0.0
C718 C 0.4915 0.0444 0.27055 0.0
C719 C 0.46583 0.05253 0.26979 0.0
C720 C 0.4479 0.03884 0.25936 0.0
C721 C 0.45558 0.01693 0.2497 0.0
H722 H 0.45985 0.06948 0.27726 0.0
H723 H 0.53645 0.85823 0.18285 0.0
H724 H 0.03821 0.91595 0.66094 0.0
H725 H 0.02845 0.91635 0.69368 0.0
H726 H 0.96859 0.97251 0.68442 0.0
H727 H 0.9774 0.97111 0.65151 0.0
H728 H 0.03085 0.94848 0.71936 0.0
H729 H 0.92023 0.96622 0.71426 0.0
H730 H 0.88424 0.95667 0.69314 0.0
H731 H 0.92587 0.89202 0.6717 0.0
H732 H 0.96194 0.90099 0.69283 0.0
H733 H -0.01192 0.97551 0.8088 0.0
H734 H -0.00374 0.97759 0.77582 0.0
H735 H 0.94992 0.90985 0.76762 0.0
H736 H 0.94028 0.9089 0.8004 0.0
H737 H 0.94096 0.9386 0.74132 0.0
H738 H 0.01941 0.90993 0.76881 0.0
H739 H 0.05655 0.91095 0.78998 0.0
H740 H 0.08124 0.98225 0.76678 0.0
H741 H 0.04406 0.98181 0.74561 0.0
C742 C 0.023 0.92842 0.66591 0.0
C743 C 0.00841 0.94335 0.6537 0.0
C744 C 0.01747 0.92867 0.68463 0.0
C745 C -0.00249 0.94415 0.69152 0.0
C746 C 0.98361 0.95988 0.6794 0.0
C747 C -0.01125 0.95919 0.66061 0.0
C748 C -0.00886 0.94359 0.71135 0.0
C749 C 0.01119 0.94631 0.72416 0.0
C750 C 0.96558 0.94012 0.71766 0.0
C751 C 0.94389 0.93447 0.70499 0.0
C752 C 0.92166 0.94993 0.70507 0.0
C753 C 0.90125 0.94462 0.69309 0.0
C754 C 0.90281 0.92381 0.68104 0.0
C755 C 0.92473 0.9082 0.68099 0.0
C756 C 0.94517 0.91341 0.69294 0.0
C757 C 0.97953 0.96122 0.79988 0.0
C758 C 0.96365 0.942 0.80706 0.0
C759 C 0.98435 0.96228 0.78107 0.0
C760 C 0.97422 0.94352 0.76922 0.0
C761 C 0.95798 0.92456 0.77642 0.0
C762 C 0.95252 0.92397 0.79515 0.0
C763 C 0.98069 0.94343 0.74938 0.0
C764 C 0.96064 0.94075 0.73655 0.0
C765 C 0.00641 0.94562 0.74306 0.0
C766 C 0.02881 0.94596 0.75576 0.0
C767 C 0.03267 0.92591 0.76831 0.0
C768 C 0.05374 0.92637 0.7803 0.0
C769 C 0.0712 0.94668 0.77976 0.0
C770 C 0.06767 0.96655 0.7672 0.0
C771 C 0.04662 0.96619 0.7552 0.0
H772 H 0.0875 0.94701 0.78905 0.0
H773 H 0.887 0.91974 0.67177 0.0
H774 H 0.42934 0.03858 0.66039 0.0
H775 H 0.43801 0.03426 0.69311 0.0
H776 H 0.51983 0.03673 0.68265 0.0
H777 H 0.51135 0.0405 0.64974 0.0
H778 H 0.5087 0.00161 0.70832 0.0
H779 H 0.48832 0.08974 0.69752 0.0
H780 H 0.46259 0.12602 0.6859 0.0
H781 H 0.39913 0.10378 0.72003 0.0
H782 H 0.42437 0.06714 0.73166 0.0
H783 H 0.54596 0.0384 0.79938 0.0
H784 H 0.53883 0.03551 0.76628 0.0
H785 H 0.45701 0.02814 0.77527 0.0
H786 H 0.46385 0.03109 0.80834 0.0
H787 H 0.46902 0.06543 0.75031 0.0
H788 H 0.49104 0.97734 0.76159 0.0
H789 H 0.51806 0.94204 0.77325 0.0
H790 H 0.58024 0.96568 0.73844 0.0
H791 H 0.5537 0.00137 0.72675 0.0
C792 C 0.4492 0.0381 0.66501 0.0
C793 C 0.46966 0.04014 0.65249 0.0
C794 C 0.45411 0.03567 0.68372 0.0
C795 C 0.47955 0.03563 0.69031 0.0
C796 C 0.50005 0.03681 0.67782 0.0
C797 C 0.49516 0.03904 0.65905 0.0
C798 C 0.48463 0.0352 0.71027 0.0
C799 C 0.5003 0.01573 0.7175 0.0
C800 C 0.47335 0.05345 0.72223 0.0
C801 C 0.45816 0.07555 0.71533 0.0
C802 C 0.46881 0.09248 0.70244 0.0
C803 C 0.45432 0.11312 0.69587 0.0
C804 C 0.42922 0.11717 0.70219 0.0
C805 C 0.41857 0.10061 0.71513 0.0
C806 C 0.43296 0.07991 0.72173 0.0
C807 C 0.52646 0.03593 0.79433 0.0
C808 C 0.50545 0.03509 0.80649 0.0
C809 C 0.52246 0.03417 0.77543 0.0
C810 C 0.49741 0.03152 0.76839 0.0
C811 C 0.47648 0.03018 0.78048 0.0
C812 C 0.48045 0.03182 0.79937 0.0
C813 C 0.49284 0.03169 0.74839 0.0
C814 C 0.47735 0.05125 0.74114 0.0
C815 C 0.50449 0.01367 0.73646 0.0
C816 C 0.52046 0.99218 0.74343 0.0
C817 C 0.51055 0.97515 0.75654 0.0
C818 C 0.52577 0.95504 0.76313 0.0
C819 C 0.55088 0.95166 0.75663 0.0
C820 C 0.5608 0.96834 0.74348 0.0
C821 C 0.54566 0.9885 0.73686 0.0
H822 H 0.56263 0.93608 0.76175 0.0
H823 H 0.41803 0.13316 0.69709 0.0
H824 H 0.46642 0.51755 0.15086 0.0
H825 H 0.45643 0.51472 0.18358 0.0
H826 H 0.53161 0.54468 0.19685 0.0
H827 H 0.54186 0.54759 0.16427 0.0
H828 H 0.48105 0.49009 0.21395 0.0
H829 H 0.52168 0.59005 0.23004 0.0
H830 H 0.53042 0.63065 0.21399 0.0
H831 H 0.46867 0.61524 0.17625 0.0
H832 H 0.45933 0.57475 0.19223 0.0
H833 H 0.49829 0.51587 0.30988 0.0
H834 H 0.50425 0.51153 0.27671 0.0
H835 H 0.43526 0.55591 0.26734 0.0
H836 H 0.42892 0.56013 0.30044 0.0
H837 H 0.47907 0.57281 0.24772 0.0
H838 H 0.43135 0.49599 0.25935 0.0
H839 H 0.42197 0.45523 0.27492 0.0
H840 H 0.49458 0.42457 0.2569 0.0
H841 H 0.50456 0.46531 0.24144 0.0
C842 C 0.48095 0.52327 0.16074 0.0
C843 C 0.50484 0.53305 0.15496 0.0
C844 C 0.47524 0.52151 0.1794 0.0
C845 C 0.49321 0.52973 0.19252 0.0
C846 C 0.51745 0.53845 0.18686 0.0
C847 C 0.52324 0.54008 0.16823 0.0
C848 C 0.48604 0.53093 0.21207 0.0
C849 C 0.48061 0.50813 0.22137 0.0
C850 C 0.48513 0.55456 0.22158 0.0
C851 C 0.48999 0.57927 0.21223 0.0
C852 C 0.50987 0.59541 0.21838 0.0
C853 C 0.51495 0.61838 0.20929 0.0
C854 C 0.50017 0.62545 0.19407 0.0
C855 C 0.48016 0.60968 0.188 0.0
C856 C 0.47499 0.58671 0.19706 0.0
C857 C 0.48431 0.52458 0.30076 0.0
C858 C 0.46317 0.53838 0.30775 0.0
C859 C 0.48769 0.52199 0.28185 0.0
C860 C 0.47013 0.53335 0.26969 0.0
C861 C 0.44896 0.547 0.27659 0.0
C862 C 0.44536 0.54932 0.29547 0.0
C863 C 0.47448 0.53193 0.24973 0.0
C864 C 0.47945 0.55475 0.24033 0.0
C865 C 0.47477 0.50834 0.24016 0.0
C866 C 0.4688 0.48379 0.24939 0.0
C867 C 0.44542 0.48064 0.25885 0.0
C868 C 0.43997 0.45752 0.26762 0.0
C869 C 0.4577 0.43735 0.26694 0.0
C870 C 0.48088 0.44023 0.25744 0.0
C871 C 0.48643 0.46332 0.24865 0.0
H872 H 0.45344 0.41946 0.27374 0.0
H873 H 0.50422 0.64314 0.187 0.0
H874 H 0.97105 0.46951 0.31207 0.0
H875 H 0.96262 0.47364 0.2792 0.0
H876 H 0.03579 0.43791 0.26729 0.0
H877 H 0.04449 0.43373 0.3001 0.0
H878 H -0.00984 0.49707 0.25003 0.0
H879 H 0.02352 0.3948 0.23239 0.0
H880 H 0.02849 0.35275 0.24736 0.0
H881 H 0.96744 0.37149 0.28481 0.0
H882 H 0.96186 0.41348 0.26991 0.0
H883 H 0.00367 0.47262 0.15321 0.0
H884 H 0.01072 0.47624 0.18634 0.0
H885 H 0.93926 0.4366 0.19621 0.0
H886 H 0.93187 0.43308 0.16321 0.0
H887 H 0.98224 0.41594 0.21479 0.0
H888 H 0.94012 0.49685 0.20475 0.0
H889 H 0.93379 0.53879 0.18996 0.0
H890 H 0.00881 0.5627 0.2081 0.0
H891 H 0.01574 0.52073 0.22278 0.0
C892 C 0.98546 0.46274 0.30247 0.0
C893 C 0.00833 0.45107 0.30868 0.0
C894 C 0.98067 0.46525 0.28372 0.0
C895 C -0.00149 0.45589 0.27092 0.0
C896 C 0.02174 0.44508 0.27703 0.0
C897 C 0.02666 0.44273 0.29577 0.0
C898 C -0.00792 0.4559 0.25121 0.0
C899 C -0.01151 0.47938 0.24228 0.0
C900 C -0.01039 0.43275 0.24126 0.0
C901 C -0.00752 0.40737 0.25015 0.0
C902 C 0.0111 0.38989 0.24378 0.0
C903 C 0.01403 0.36608 0.25225 0.0
C904 C -0.00165 0.35949 0.26706 0.0
C905 C 0.97964 0.37666 0.27339 0.0
C906 C 0.97661 0.40048 0.26494 0.0
C907 C -0.01065 0.46488 0.16243 0.0
C908 C 0.96726 0.45249 0.1556 0.0
C909 C -0.00663 0.46704 0.18132 0.0
C910 C 0.97548 0.45668 0.19361 0.0
C911 C 0.95325 0.44468 0.18687 0.0
C912 C 0.94905 0.44278 0.16802 0.0
C913 C 0.98057 0.45713 0.21352 0.0
C914 C 0.98399 0.43367 0.2225 0.0
C915 C 0.98269 0.48029 0.22349 0.0
C916 C 0.97855 0.50555 0.2147 0.0
C917 C 0.95537 0.51096 0.20544 0.0
C918 C 0.95165 0.53476 0.19711 0.0
C919 C 0.97091 0.55337 0.19805 0.0
C920 C -0.00608 0.54825 0.20736 0.0
C921 C -0.00226 0.52447 0.21571 0.0
H922 H 0.968 0.57179 0.19159 0.0
H923 H 0.00065 0.34105 0.2736 0.0
H924 H 0.53685 0.43173 0.66136 0.0
H925 H 0.52598 0.43629 0.6938 0.0
H926 H 0.45829 0.48002 0.67949 0.0
H927 H 0.46874 0.47523 0.64686 0.0
H928 H 0.49056 0.49981 0.71056 0.0
H929 H 0.44574 0.42474 0.68874 0.0
H930 H 0.44262 0.38327 0.67262 0.0
H931 H 0.4987 0.3509 0.70929 0.0
H932 H 0.50245 0.39233 0.72545 0.0
H933 H 0.42842 0.44107 0.79866 0.0
H934 H 0.43227 0.44597 0.7655 0.0
H935 H 0.50992 0.47393 0.77219 0.0
H936 H 0.50632 0.46909 0.80544 0.0
H937 H 0.46732 0.42048 0.74396 0.0
H938 H 0.52103 0.51702 0.73704 0.0
H939 H 0.52372 0.55867 0.75299 0.0
H940 H 0.44704 0.5487 0.77384 0.0
H941 H 0.44374 0.50718 0.75782 0.0
C942 C 0.51976 0.44252 0.66508 0.0
C943 C 0.50355 0.453 0.65157 0.0
C944 C 0.51361 0.44508 0.6836 0.0
C945 C 0.49135 0.45841 0.68891 0.0
C946 C 0.47558 0.46971 0.67555 0.0
C947 C 0.4815 0.46683 0.65697 0.0
C948 C 0.48394 0.45923 0.7084 0.0
C949 C 0.48537 0.48255 0.71792 0.0
C950 C 0.47691 0.43669 0.71778 0.0
C951 C 0.47454 0.4117 0.70819 0.0
C952 C 0.45757 0.40884 0.69326 0.0
C953 C 0.45566 0.38533 0.68414 0.0
C954 C 0.4705 0.36448 0.6899 0.0
C955 C 0.48724 0.36708 0.70483 0.0
C956 C 0.48924 0.39056 0.71399 0.0
C957 C 0.44624 0.44853 0.79313 0.0
C958 C 0.46714 0.45455 0.80469 0.0
C959 C 0.44839 0.45129 0.77418 0.0
C960 C 0.47132 0.46038 0.76646 0.0
C961 C 0.49196 0.46712 0.77794 0.0
C962 C 0.4899 0.46422 0.79691 0.0
C963 C 0.47432 0.46103 0.74633 0.0
C964 C 0.47223 0.43786 0.73666 0.0
C965 C 0.48061 0.48376 0.73685 0.0
C966 C 0.48225 0.50887 0.74635 0.0
C967 C 0.5047 0.52377 0.74496 0.0
C968 C 0.50634 0.54735 0.75403 0.0
C969 C 0.48559 0.55629 0.76446 0.0
C970 C 0.46313 0.54171 0.76581 0.0
C971 C 0.46139 0.51812 0.75677 0.0
H972 H 0.48691 0.57454 0.77148 0.0
H973 H 0.469 0.34629 0.68281 0.0
H974 H 0.03945 0.56072 0.79984 0.0
H975 H 0.03009 0.55757 0.7671 0.0
H976 H 0.97232 0.50022 0.77805 0.0
H977 H 0.98066 0.50441 0.81095 0.0
H978 H 0.0334 0.52407 0.7423 0.0
H979 H 0.92376 0.50359 0.74766 0.0
H980 H 0.88746 0.51236 0.76863 0.0
H981 H 0.92645 0.57896 0.78929 0.0
H982 H 0.9628 0.57077 0.76829 0.0
H983 H -0.00885 0.50097 0.65173 0.0
H984 H -0.00101 0.4963 0.68467 0.0
H985 H 0.95203 0.56321 0.69516 0.0
H986 H 0.94275 0.56673 0.66245 0.0
H987 H 0.94324 0.53248 0.72028 0.0
H988 H 0.02174 0.56324 0.69361 0.0
H989 H 0.05888 0.56291 0.67252 0.0
H990 H 0.08369 0.49065 0.69437 0.0
H991 H 0.04651 0.49042 0.71545 0.0
C992 C 0.02482 0.54737 0.79524 0.0
C993 C 0.01059 0.533 0.8079 0.0
C994 C 0.01953 0.54552 0.77652 0.0
C995 C 0.0002 0.52896 0.7701 0.0
C996 C 0.98684 0.51364 0.7827 0.0
C997 C -0.00831 0.51594 0.80147 0.0
C998 C -0.00637 0.52839 0.75029 0.0
C999 C 0.01367 0.52586 0.73749 0.0
C1000 C 0.96795 0.5312 0.74395 0.0
C1001 C 0.94612 0.53636 0.75657 0.0
C1002 C 0.92454 0.52013 0.75666 0.0
C1003 C 0.90397 0.525 0.76855 0.0
C1004 C 0.9047 0.54614 0.78034 0.0
C1005 C 0.92596 0.56253 0.78021 0.0
C1006 C 0.94656 0.55776 0.76833 0.0
C1007 C 0.98237 0.51449 0.66115 0.0
C1008 C 0.96645 0.53426 0.65464 0.0
C1009 C 0.98697 0.51193 0.67994 0.0
C1010 C 0.97658 0.52974 0.69242 0.0
C1011 C 0.96026 0.54919 0.68586 0.0
C1012 C 0.95502 0.55126 0.66717 0.0
C1013 C 0.98306 0.52862 0.71225 0.0
C1014 C 0.96297 0.53059 0.72507 0.0
C1015 C 0.00882 0.52659 0.71859 0.0
C1016 C 0.0312 0.52669 0.70595 0.0
C1017 C 0.03503 0.54721 0.69383 0.0
C1018 C 0.05609 0.54713 0.68189 0.0
C1019 C 0.07359 0.52674 0.68207 0.0
C1020 C 0.0701 0.50641 0.69422 0.0
C1021 C 0.04904 0.50638 0.70617 0.0
H1022 H 0.08989 0.52671 0.67281 0.0
H1023 H 0.88876 0.54987 0.78954 0.0
H1024 H 0.0532 0.14854 0.09993 0.0
H1025 H 0.0432 0.19442 0.10037 0.0
H1026 H 0.96187 0.17725 0.09903 0.0
H1027 H 0.97165 0.13167 0.09806 0.0
H1028 H 0.97139 0.21366 0.07593 0.0
H1029 H -0.00636 0.19774 0.13885 0.0
H1030 H 0.02103 0.1828 0.16437 0.0
H1031 H 0.08021 0.23573 0.14872 0.0
H1032 H 0.05329 0.25077 0.12295 0.0
H1033 H 0.92402 0.33744 0.10102 0.0
H1034 H 0.9347 0.29169 0.10152 0.0
H1035 H 0.01543 0.30974 0.09622 0.0
H1036 H 0.00505 0.35529 0.09571 0.0
H1037 H 0.00648 0.27334 0.12273 0.0
H1038 H 0.98329 0.28912 0.05979 0.0
H1039 H 0.95509 0.30414 0.03475 0.0
H1040 H 0.89642 0.25118 0.05131 0.0
H1041 H 0.92417 0.23609 0.07662 0.0
C1042 C 0.0332 0.15457 0.0998 0.0
C1043 C 0.01325 0.13642 0.09893 0.0
C1044 C 0.02749 0.1808 0.10013 0.0
C1045 C 0.00174 0.18933 0.0999 0.0
C1046 C 0.98187 0.1712 0.09915 0.0
C1047 C 0.98753 0.14508 0.09864 0.0
C1048 C -0.0047 0.21709 0.10004 0.0
C1049 C 0.97881 0.2266 0.08633 0.0
C1050 C 0.00535 0.23417 0.11336 0.0
C1051 C 0.02155 0.22519 0.12886 0.0
C1052 C 0.01258 0.20606 0.14077 0.0
C1053 C 0.028 0.19759 0.15529 0.0
C1054 C 0.05237 0.20826 0.15813 0.0
C1055 C 0.06134 0.22746 0.14649 0.0
C1056 C 0.046 0.23598 0.13193 0.0
C1057 C 0.94404 0.33167 0.09997 0.0
C1058 C 0.96365 0.35006 0.09826 0.0
C1059 C 0.9501 0.30553 0.10022 0.0
C1060 C 0.97585 0.29735 0.09881 0.0
C1061 C -0.00455 0.31565 0.09734 0.0
C1062 C -0.01058 0.3417 0.09697 0.0
C1063 C 0.9825 0.26972 0.09873 0.0
C1064 C -0.00095 0.2603 0.1124 0.0
C1065 C 0.97237 0.25268 0.08545 0.0
C1066 C 0.9557 0.26167 0.07021 0.0
C1067 C 0.9643 0.28083 0.05818 0.0
C1068 C 0.94841 0.28933 0.04392 0.0
C1069 C 0.92395 0.27867 0.04147 0.0
C1070 C 0.91536 0.25945 0.05324 0.0
C1071 C 0.93116 0.2509 0.06754 0.0
H1072 H 0.91168 0.28527 0.03042 0.0
H1073 H 0.06428 0.20168 0.16939 0.0
H1074 H 0.49431 0.85039 0.08004 0.0
H1075 H 0.50285 0.80448 0.08069 0.0
H1076 H 0.43711 0.7934 0.11587 0.0
H1077 H 0.42825 0.83961 0.11526 0.0
H1078 H 0.48194 0.76733 0.12772 0.0
H1079 H 0.43112 0.77679 0.07315 0.0
H1080 H 0.4192 0.79555 0.04331 0.0
H1081 H 0.49214 0.77237 0.02088 0.0
H1082 H 0.50466 0.75379 0.05067 0.0
H1083 H 0.47444 0.63052 0.08576 0.0
H1084 H 0.46261 0.67563 0.08655 0.0
H1085 H 0.53561 0.69392 0.11176 0.0
H1086 H 0.54766 0.64847 0.11119 0.0
H1087 H 0.48417 0.71596 0.07035 0.0
H1088 H 0.5253 0.74615 0.14082 0.0
H1089 H 0.5348 0.72751 0.17114 0.0
H1090 H 0.47674 0.67024 0.16238 0.0
H1091 H 0.46665 0.68876 0.13212 0.0
C1092 C 0.48157 0.83826 0.08791 0.0
C1093 C 0.46055 0.84869 0.09759 0.0
C1094 C 0.48648 0.81199 0.08822 0.0
C1095 C 0.47056 0.79557 0.09826 0.0
C1096 C 0.44962 0.80582 0.10804 0.0
C1097 C 0.44451 0.83217 0.1076 0.0
C1098 C 0.47601 0.76771 0.09849 0.0
C1099 C 0.48239 0.75604 0.1152 0.0
C1100 C 0.47641 0.75303 0.08215 0.0
C1101 C 0.46891 0.7641 0.06419 0.0
C1102 C 0.44471 0.77588 0.0619 0.0
C1103 C 0.43783 0.78645 0.04498 0.0
C1104 C 0.45493 0.78521 0.03022 0.0
C1105 C 0.47893 0.77334 0.03233 0.0
C1106 C 0.48591 0.76276 0.04922 0.0
C1107 C 0.48807 0.64405 0.0915 0.0
C1108 C 0.51204 0.6358 0.09844 0.0
C1109 C 0.48125 0.66989 0.0919 0.0
C1110 C 0.49811 0.68812 0.09933 0.0
C1111 C 0.52216 0.6801 0.10617 0.0
C1112 C 0.52907 0.65415 0.10574 0.0
C1113 C 0.49046 0.71553 0.09958 0.0
C1114 C 0.48374 0.72718 0.0829 0.0
C1115 C 0.48952 0.73009 0.11598 0.0
C1116 C 0.49542 0.7187 0.13412 0.0
C1117 C 0.51453 0.72961 0.14538 0.0
C1118 C 0.52002 0.71907 0.16255 0.0
C1119 C 0.50643 0.69767 0.16866 0.0
C1120 C 0.48732 0.68676 0.1576 0.0
C1121 C 0.48174 0.69725 0.14042 0.0
H1122 H 0.51067 0.68964 0.18199 0.0
H1123 H 0.44956 0.79339 0.01713 0.0
H1124 H 0.42238 0.65146 0.36173 0.0
H1125 H 0.43403 0.69683 0.36088 0.0
H1126 H 0.51339 0.67718 0.37193 0.0
H1127 H 0.5019 0.63203 0.37322 0.0
H1128 H 0.50016 0.7174 0.39152 0.0
H1129 H 0.49258 0.69277 0.32842 0.0
H1130 H 0.47136 0.67445 0.30109 0.0
H1131 H 0.41074 0.7303 0.30538 0.0
H1132 H 0.43142 0.74874 0.33291 0.0
H1133 H 0.55396 0.83788 0.36474 0.0
H1134 H 0.54362 0.79203 0.36507 0.0
H1135 H 0.4626 0.81003 0.3612 0.0
H1136 H 0.47264 0.85562 0.36098 0.0
H1137 H 0.4778 0.77065 0.33752 0.0
H1138 H 0.48605 0.79455 0.40124 0.0
H1139 H 0.50835 0.81272 0.42818 0.0
H1140 H 0.56947 0.75777 0.42192 0.0
H1141 H 0.54769 0.7395 0.39475 0.0
C1142 C 0.44229 0.6568 0.36404 0.0
C1143 C 0.4612 0.63805 0.36746 0.0
C1144 C 0.44895 0.68274 0.36346 0.0
C1145 C 0.47467 0.69039 0.36608 0.0
C1146 C 0.49344 0.67176 0.36984 0.0
C1147 C 0.4868 0.6459 0.37053 0.0
C1148 C 0.48215 0.71778 0.36485 0.0
C1149 C 0.49556 0.72892 0.3796 0.0
C1150 C 0.47588 0.73296 0.3494 0.0
C1151 C 0.46342 0.72197 0.33283 0.0
C1152 C 0.47462 0.70102 0.32362 0.0
C1153 C 0.46271 0.69063 0.30808 0.0
C1154 C 0.43968 0.70116 0.30153 0.0
C1155 C 0.42855 0.72214 0.31049 0.0
C1156 C 0.44037 0.73258 0.32605 0.0
C1157 C 0.53397 0.83204 0.36386 0.0
C1158 C 0.51413 0.8504 0.36293 0.0
C1159 C 0.5281 0.80588 0.36412 0.0
C1160 C 0.50233 0.7977 0.36327 0.0
C1161 C 0.48259 0.81596 0.36187 0.0
C1162 C 0.4884 0.84202 0.36183 0.0
C1163 C 0.49571 0.77015 0.36418 0.0
C1164 C 0.48246 0.75902 0.34938 0.0
C1165 C 0.50231 0.75493 0.3795 0.0
C1166 C 0.51539 0.76586 0.39584 0.0
C1167 C 0.50436 0.7865 0.4055 0.0
C1168 C 0.51688 0.79678 0.42083 0.0
C1169 C 0.54035 0.78646 0.42672 0.0
C1170 C 0.55131 0.76578 0.41732 0.0
C1171 C 0.53888 0.75544 0.40196 0.0
H1172 H 0.55001 0.79444 0.4386 0.0
H1173 H 0.43048 0.69309 0.2895 0.0
H1174 H 0.05177 0.33473 0.36227 0.0
H1175 H 0.0402 0.28937 0.36077 0.0
H1176 H 0.95966 0.30943 0.36507 0.0
H1177 H 0.97107 0.35458 0.36714 0.0
H1178 H 0.96889 0.27046 0.38595 0.0
H1179 H 0.98786 0.2911 0.32366 0.0
H1180 H 0.01362 0.30787 0.29801 0.0
H1181 H 0.0731 0.25271 0.30919 0.0
H1182 H 0.04785 0.23583 0.3351 0.0
H1183 H 0.92315 0.14619 0.35921 0.0
H1184 H 0.93195 0.19235 0.35868 0.0
H1185 H 0.01352 0.17705 0.36261 0.0
H1186 H 0.00502 0.1312 0.3632 0.0
H1187 H 0.00164 0.21378 0.33641 0.0
H1188 H 0.98177 0.19478 0.3998 0.0
H1189 H 0.95457 0.1783 0.42481 0.0
H1190 H 0.89441 0.23106 0.41008 0.0
H1191 H 0.92115 0.24762 0.3848 0.0
C1192 C 0.03161 0.32947 0.3629 0.0
C1193 C 0.01237 0.3483 0.36481 0.0
C1194 C 0.02499 0.30353 0.36194 0.0
C1195 C -0.001 0.29597 0.36255 0.0
C1196 C 0.97982 0.31475 0.36458 0.0
C1197 C 0.98642 0.3406 0.36574 0.0
C1198 C -0.00828 0.2685 0.36129 0.0
C1199 C 0.97576 0.2582 0.37494 0.0
C1200 C 0.00086 0.25234 0.34706 0.0
C1201 C 0.01606 0.26236 0.33144 0.0
C1202 C 0.00652 0.28267 0.32074 0.0
C1203 C 0.02102 0.29217 0.30613 0.0
C1204 C 0.04501 0.2814 0.30199 0.0
C1205 C 0.05452 0.26105 0.31242 0.0
C1206 C 0.04012 0.25149 0.32706 0.0
C1207 C 0.94295 0.15268 0.35989 0.0
C1208 C 0.96336 0.135 0.36135 0.0
C1209 C 0.94793 0.17902 0.35963 0.0
C1210 C 0.97339 0.18807 0.3607 0.0
C1211 C -0.00624 0.17047 0.36176 0.0
C1212 C -0.01119 0.14424 0.36219 0.0
C1213 C 0.97902 0.21588 0.3611 0.0
C1214 C -0.00533 0.22619 0.34731 0.0
C1215 C 0.96936 0.23211 0.37506 0.0
C1216 C 0.95334 0.22223 0.39029 0.0
C1217 C 0.96266 0.20271 0.4018 0.0
C1218 C 0.94734 0.19339 0.41604 0.0
C1219 C 0.92275 0.20357 0.419 0.0
C1220 C 0.91345 0.22316 0.40775 0.0
C1221 C 0.92868 0.23253 0.39347 0.0
H1222 H 0.91093 0.19633 0.43003 0.0
H1223 H 0.0562 0.28879 0.29067 0.0
H1224 H 0.05519 0.64706 0.86851 0.0
H1225 H 0.04428 0.69283 0.86917 0.0
H1226 H 0.96359 0.67433 0.8642 0.0
H1227 H 0.97418 0.62875 0.86376 0.0
H1228 H 0.98039 0.71364 0.8402 0.0
H1229 H 0.98405 0.6904 0.9041 0.0
H1230 H 0.00439 0.67238 0.93181 0.0
H1231 H 0.06579 0.72709 0.92784 0.0
H1232 H 0.04599 0.74519 0.89992 0.0
H1233 H 0.92279 0.83281 0.86218 0.0
H1234 H 0.93485 0.7875 0.86211 0.0
H1235 H 0.01333 0.80771 0.87536 0.0
H1236 H 0.0014 0.85292 0.87581 0.0
H1237 H -0.00116 0.76751 0.89486 0.0
H1238 H -0.00402 0.79138 0.83161 0.0
H1239 H 0.97695 0.8095 0.80347 0.0
H1240 H 0.91608 0.75399 0.80537 0.0
H1241 H 0.93455 0.73576 0.83369 0.0
C1242 C 0.03514 0.65277 0.86752 0.0
C1243 C 0.01555 0.63428 0.86615 0.0
C1244 C 0.02895 0.67887 0.86795 0.0
C1245 C 0.00312 0.68688 0.8668 0.0
C1246 C 0.98362 0.66851 0.8651 0.0
C1247 C -0.01027 0.64247 0.86493 0.0
C1248 C -0.00373 0.7144 0.8675 0.0
C1249 C 0.98416 0.7254 0.85221 0.0
C1250 C 0.00179 0.72978 0.88301 0.0
C1251 C 0.0137 0.71895 0.8998 0.0
C1252 C 0.00202 0.69843 0.90903 0.0
C1253 C 0.01343 0.68823 0.9248 0.0
C1254 C 0.03642 0.69853 0.93155 0.0
C1255 C 0.04801 0.7191 0.92257 0.0
C1256 C 0.0367 0.72934 0.90678 0.0
C1257 C 0.94259 0.82763 0.86516 0.0
C1258 C 0.96114 0.84655 0.8689 0.0
C1259 C 0.94949 0.80171 0.86503 0.0
C1260 C 0.97509 0.79423 0.86847 0.0
C1261 C -0.00652 0.81303 0.87263 0.0
C1262 C 0.98661 0.8389 0.87283 0.0
C1263 C 0.9828 0.76685 0.86756 0.0
C1264 C -0.00489 0.75584 0.8828 0.0
C1265 C 0.97766 0.7515 0.85193 0.0
C1266 C 0.96651 0.76237 0.83488 0.0
C1267 C 0.97842 0.78317 0.82611 0.0
C1268 C 0.96776 0.79344 0.81011 0.0
C1269 C 0.94528 0.78295 0.80266 0.0
C1270 C 0.93346 0.76212 0.81118 0.0
C1271 C 0.94404 0.7518 0.82719 0.0
H1272 H 0.93706 0.79092 0.79027 0.0
H1273 H 0.04521 0.69062 0.94376 0.0
H1274 H 0.42683 0.33821 0.86097 0.0
H1275 H 0.43622 0.29218 0.86136 0.0
H1276 H 0.51769 0.30824 0.86382 0.0
H1277 H 0.5086 0.35405 0.86338 0.0
H1278 H 0.50631 0.27039 0.8389 0.0
H1279 H 0.48663 0.29125 0.90185 0.0
H1280 H 0.45987 0.30865 0.92691 0.0
H1281 H 0.39944 0.25582 0.91325 0.0
H1282 H 0.42572 0.23833 0.88793 0.0
H1283 H 0.55237 0.14694 0.86367 0.0
H1284 H 0.54296 0.19291 0.86305 0.0
H1285 H 0.46158 0.17692 0.86707 0.0
H1286 H 0.47081 0.13124 0.86827 0.0
H1287 H 0.47268 0.21502 0.88852 0.0
H1288 H 0.49118 0.19396 0.82577 0.0
H1289 H 0.51684 0.17653 0.80014 0.0
H1290 H 0.57781 0.2294 0.81241 0.0
H1291 H 0.55264 0.24693 0.83827 0.0
C1292 C 0.44674 0.33194 0.86154 0.0
C1293 C 0.46694 0.34984 0.86222 0.0
C1294 C 0.45206 0.30565 0.86183 0.0
C1295 C 0.47765 0.29683 0.86276 0.0
C1296 C 0.49782 0.31464 0.8631 0.0
C1297 C 0.49254 0.34084 0.86293 0.0
C1298 C 0.48357 0.26907 0.86356 0.0
C1299 C 0.49919 0.2583 0.84984 0.0
C1300 C 0.47381 0.25325 0.87762 0.0
C1301 C 0.45804 0.26367 0.89288 0.0
C1302 C 0.46755 0.28349 0.90409 0.0
C1303 C 0.45249 0.29334 0.91836 0.0
C1304 C 0.42794 0.2834 0.92164 0.0
C1305 C 0.41844 0.26353 0.91068 0.0
C1306 C 0.43342 0.25363 0.89638 0.0
C1307 C 0.53248 0.15324 0.86446 0.0
C1308 C 0.51236 0.13538 0.86599 0.0
C1309 C 0.52711 0.17952 0.86401 0.0
C1310 C 0.50151 0.1884 0.86476 0.0
C1311 C 0.48147 0.17059 0.86648 0.0
C1312 C 0.48682 0.14441 0.86713 0.0
C1313 C 0.49542 0.21619 0.86381 0.0
C1314 C 0.47978 0.22702 0.87752 0.0
C1315 C 0.50498 0.23203 0.84964 0.0
C1316 C 0.52013 0.22157 0.83407 0.0
C1317 C 0.51014 0.20174 0.82308 0.0
C1318 C 0.52458 0.19186 0.8085 0.0
C1319 C 0.54897 0.2018 0.80468 0.0
C1320 C 0.55893 0.22169 0.8154 0.0
C1321 C 0.54458 0.23162 0.83002 0.0
H1322 H 0.56012 0.19413 0.79338 0.0
H1323 H 0.4163 0.29104 0.93269 0.0
H1324 H 0.43297 0.14905 0.6152 0.0
H1325 H 0.44449 0.19449 0.61532 0.0
H1326 H 0.49133 0.18261 0.56711 0.0
H1327 H 0.48101 0.13705 0.56762 0.0
H1328 H 0.51663 0.21051 0.58851 0.0
H1329 H 0.42944 0.2139 0.56694 0.0
H1330 H 0.38264 0.20569 0.56749 0.0
H1331 H 0.37614 0.24689 0.61836 0.0
H1332 H 0.42298 0.25507 0.61822 0.0
H1333 H 0.48412 0.35525 0.57169 0.0
H1334 H 0.47282 0.30999 0.57095 0.0
H1335 H 0.52963 0.29467 0.61289 0.0
H1336 H 0.54179 0.33996 0.61311 0.0
H1337 H 0.45238 0.28053 0.59431 0.0
H1338 H 0.55185 0.23401 0.60954 0.0
H1339 H 0.598 0.24243 0.60409 0.0
H1340 H 0.57875 0.2879 0.55703 0.0
H1341 H 0.53254 0.27949 0.56206 0.0
C1342 C 0.44551 0.15625 0.60454 0.0
C1343 C 0.45608 0.13957 0.59139 0.0
C1344 C 0.45205 0.18224 0.60457 0.0
C1345 C 0.46863 0.19216 0.59111 0.0
C1346 C 0.47866 0.1755 0.57772 0.0
C1347 C 0.47264 0.14947 0.57796 0.0
C1348 C 0.47623 0.21965 0.59117 0.0
C1349 C 0.50253 0.22579 0.58976 0.0
C1350 C 0.45792 0.23974 0.59254 0.0
C1351 C 0.42975 0.23488 0.59266 0.0
C1352 C 0.41806 0.22105 0.57831 0.0
C1353 C 0.39152 0.21643 0.57854 0.0
C1354 C 0.37643 0.2257 0.59298 0.0
C1355 C 0.38785 0.23968 0.6072 0.0
C1356 C 0.41439 0.24434 0.60704 0.0
C1357 C 0.49435 0.34222 0.58068 0.0
C1358 C 0.5139 0.35116 0.59244 0.0
C1359 C 0.48779 0.31633 0.58029 0.0
C1360 C 0.50041 0.29879 0.59179 0.0
C1361 C 0.51992 0.30769 0.60362 0.0
C1362 C 0.52683 0.33359 0.60378 0.0
C1363 C 0.49274 0.27134 0.5915 0.0
C1364 C 0.46646 0.26522 0.59303 0.0
C1365 C 0.51097 0.2513 0.58952 0.0
C1366 C 0.53873 0.25635 0.58631 0.0
C1367 C 0.55748 0.24575 0.598 0.0
C1368 C 0.58365 0.25052 0.59499 0.0
C1369 C 0.5913 0.26577 0.58026 0.0
C1370 C 0.5728 0.27619 0.56847 0.0
C1371 C 0.54662 0.27145 0.57142 0.0
H1372 H 0.61156 0.26945 0.57796 0.0
H1373 H 0.35589 0.2221 0.59313 0.0
H1374 H 0.97568 0.8535 0.58516 0.0
H1375 H 0.96507 0.80807 0.58577 0.0
H1376 H 0.04391 0.78984 0.5995 0.0
H1377 H 0.05485 0.83545 0.59887 0.0
H1378 H 0.02325 0.75763 0.57274 0.0
H1379 H -0.00025 0.78978 0.63241 0.0
H1380 H 0.97787 0.81926 0.65385 0.0
H1381 H 0.90434 0.79731 0.63176 0.0
H1382 H 0.92581 0.76795 0.61 0.0
H1383 H 0.00423 0.62991 0.59995 0.0
H1384 H 0.01518 0.67523 0.59917 0.0
H1385 H 0.93468 0.69457 0.59295 0.0
H1386 H 0.92346 0.64907 0.59442 0.0
H1387 H 0.95619 0.72662 0.6157 0.0
H1388 H 0.97832 0.69508 0.55602 0.0
H1389 H -0.00082 0.66637 0.53356 0.0
H1390 H 0.07372 0.68777 0.55417 0.0
H1391 H 0.05329 0.71636 0.57693 0.0
C1392 C -0.00913 0.8399 0.58824 0.0
C1393 C 0.01613 0.84818 0.59207 0.0
C1394 C 0.9847 0.81391 0.58864 0.0
C1395 C 0.00362 0.79564 0.59292 0.0
C1396 C 0.02901 0.80369 0.59624 0.0
C1397 C 0.03521 0.82975 0.5959 0.0
C1398 C -0.00329 0.76818 0.59413 0.0
C1399 C 0.00886 0.75074 0.5823 0.0
C1400 C 0.97737 0.75941 0.60624 0.0
C1401 C 0.96441 0.77683 0.61947 0.0
C1402 C 0.97893 0.79137 0.63204 0.0
C1403 C 0.9666 0.80804 0.64426 0.0
C1404 C 0.93974 0.81021 0.64414 0.0
C1405 C 0.92515 0.79564 0.63183 0.0
C1406 C 0.93738 0.77896 0.61956 0.0
C1407 C -0.01119 0.64378 0.59842 0.0
C1408 C 0.96297 0.63588 0.59711 0.0
C1409 C -0.00487 0.66972 0.59788 0.0
C1410 C 0.97583 0.68834 0.59559 0.0
C1411 C 0.94994 0.68055 0.59464 0.0
C1412 C 0.94354 0.65456 0.59546 0.0
C1413 C 0.98274 0.71589 0.59429 0.0
C1414 C 0.97058 0.73341 0.60611 0.0
C1415 C 0.0019 0.72478 0.58203 0.0
C1416 C 0.01425 0.70769 0.56829 0.0
C1417 C -0.00085 0.69353 0.55585 0.0
C1418 C 0.0109 0.6773 0.54305 0.0
C1419 C 0.03775 0.6752 0.54247 0.0
C1420 C 0.05292 0.68939 0.55465 0.0
C1421 C 0.04127 0.70563 0.56749 0.0
H1422 H 0.04681 0.66262 0.53255 0.0
H1423 H 0.93023 0.82314 0.6536 0.0
H1424 H 0.95961 -0.00729 0.89881 0.0
H1425 H 0.97771 0.01062 0.92705 0.0
H1426 H 0.93586 0.95499 0.95882 0.0
H1427 H 0.91739 0.93718 0.93068 0.0
H1428 H 0.93502 0.00217 0.97483 0.0
H1429 H -0.00169 0.94509 0.94848 0.0
H1430 H 0.02667 0.92885 0.92391 0.0
H1431 H 0.06583 0.00115 0.92217 0.0
H1432 H 0.03744 0.01794 0.94656 0.0
H1433 H 0.00525 0.0001 0.05741 0.0
H1434 H 0.98568 0.98845 0.02809 0.0
H1435 H 0.03127 0.04586 0.00086 0.0
H1436 H 0.05126 0.05746 0.03019 0.0
H1437 H 0.03026 0.00116 -0.01822 0.0
H1438 H 0.96875 0.05735 0.00968 0.0
H1439 H 0.94051 0.07336 0.03437 0.0
H1440 H 0.89799 0.00293 0.03331 0.0
H1441 H 0.92623 0.98633 0.00879 0.0
C1442 C 0.95406 0.98445 0.91183 0.0
C1443 C 0.93728 0.96339 0.91254 0.0
C1444 C 0.96448 -0.00534 0.92792 0.0
C1445 C 0.95841 0.98386 0.94496 0.0
C1446 C 0.94082 0.96353 0.94578 0.0
C1447 C 0.93036 0.95334 0.92969 0.0
C1448 C 0.97119 -0.00702 0.9619 0.0
C1449 C 0.95582 0.00176 0.97643 0.0
C1450 C -0.00164 -0.00701 0.96376 0.0
C1451 C 0.01558 0.98286 0.9492 0.0
C1452 C 0.01284 0.95759 0.94276 0.0
C1453 C 0.02894 0.94827 0.92888 0.0
C1454 C 0.04799 0.96399 0.92145 0.0
C1455 C 0.05104 0.98902 0.92792 0.0
C1456 C 0.03496 -0.00156 0.94177 0.0
C1457 C 0.01121 0.01019 0.04518 0.0
C1458 C 0.02969 0.02979 0.0461 0.0
C1459 C -9e-05 0.0036 0.02846 0.0
C1460 C 0.00673 0.0166 0.01239 0.0
C1461 C 0.02567 0.03572 0.01316 0.0
C1462 C 0.03703 0.04232 0.0299 0.0
C1463 C -0.00593 0.0101 -0.0052 0.0
C1464 C 0.00946 0.0018 0.98014 0.0
C1465 C 0.96691 0.01053 -0.00717 0.0
C1466 C 0.94976 0.02052 0.00749 0.0
C1467 C 0.9535 0.0452 0.0148 0.0
C1468 C 0.93747 0.05439 0.02876 0.0
C1469 C 0.9175 0.03915 0.03543 0.0
C1470 C 0.91348 0.0147 0.02814 0.0
C1471 C 0.92948 0.0054 0.0142 0.0
H1472 H 0.90511 0.0463 0.04624 0.0
H1473 H 0.06043 0.95674 0.91071 0.0
H1474 H 0.55484 0.04065 0.93003 0.0
H1475 H 0.5365 0.0243 0.95852 0.0
H1476 H 0.48254 0.9786 0.9275 0.0
H1477 H 0.50068 -0.00503 0.89891 0.0
H1478 H 0.45908 0.00569 0.95484 0.0
H1479 H 0.53161 0.94988 0.94858 0.0
H1480 H 0.57725 0.93841 0.9438 0.0
H1481 H 0.59832 0.9799 -0.00751 0.0
H1482 H 0.55282 0.99195 -0.00257 0.0
H1483 H 0.41605 0.9348 0.03297 0.0
H1484 H 0.43346 0.94686 0.00302 0.0
H1485 H 0.48932 -0.00442 0.02963 0.0
H1486 H 0.47214 0.98363 0.05955 0.0
H1487 H 0.51109 0.96415 0.00363 0.0
H1488 H 0.43881 0.02171 0.00886 0.0
H1489 H 0.39316 0.03327 0.01356 0.0
H1490 H 0.37166 0.98812 0.96665 0.0
H1491 H 0.41718 0.976 0.96183 0.0
C1492 C 0.5392 0.02697 0.92927 0.0
C1493 C 0.52917 0.0191 0.91226 0.0
C1494 C 0.52881 0.01759 0.94555 0.0
C1495 C 0.50828 0.00014 0.94507 0.0
C1496 C 0.49839 0.99205 0.92811 0.0
C1497 C 0.50884 0.00135 0.91182 0.0
C1498 C 0.49655 0.99113 0.96233 0.0
C1499 C 0.47032 -0.0038 0.9654 0.0
C1500 C 0.51141 0.97922 0.97618 0.0
C1501 C 0.53882 0.97201 0.97328 0.0
C1502 C 0.546 0.95675 0.95818 0.0
C1503 C 0.57184 0.9501 0.95546 0.0
C1504 C 0.59068 0.95847 0.96781 0.0
C1505 C 0.5837 0.97346 -0.01707 0.0
C1506 C 0.55788 0.98018 -0.01429 0.0
C1507 C 0.43193 0.9482 0.03241 0.0
C1508 C 0.44276 0.95826 0.04858 0.0
C1509 C 0.44181 0.95509 0.01532 0.0
C1510 C 0.46262 0.97213 0.01417 0.0
C1511 C 0.47329 0.98235 0.03027 0.0
C1512 C 0.46337 0.97559 0.04733 0.0
C1513 C 0.47372 0.97898 -0.0038 0.0
C1514 C 0.49982 0.97348 -0.00699 0.0
C1515 C 0.45874 0.99046 -0.01776 0.0
C1516 C 0.43136 -0.00229 -0.01488 0.0
C1517 C 0.42432 0.01405 -0.00035 0.0
C1518 C 0.39848 0.02075 0.00231 0.0
C1519 C 0.37951 0.01137 -0.00955 0.0
C1520 C 0.38637 -0.00467 0.97586 0.0
C1521 C 0.41219 0.98856 0.97314 0.0
H1522 H 0.35952 0.01658 -0.00747 0.0
H1523 H 0.61068 0.9533 0.96568 0.0
H1524 H 0.46184 -0.0065 0.56152 0.0
H1525 H 0.47969 0.97708 0.53282 0.0
H1526 H 0.43323 0.03087 0.50236 0.0
H1527 H 0.41496 0.04721 0.53105 0.0
H1528 H 0.43493 0.98383 0.48581 0.0
H1529 H 0.49502 0.04434 0.51133 0.0
H1530 H 0.52287 0.06252 0.53551 0.0
H1531 H 0.56699 -0.00714 0.53705 0.0
H1532 H 0.53914 0.97411 0.51305 0.0
H1533 H 0.50454 0.98594 0.40265 0.0
H1534 H 0.4845 -0.00187 0.43168 0.0
H1535 H 0.53233 0.94347 0.46021 0.0
H1536 H 0.55271 0.93128 0.43119 0.0
H1537 H 0.52984 0.98938 0.47805 0.0
H1538 H 0.47059 0.92944 0.45156 0.0
H1539 H 0.44272 0.9115 0.42731 0.0
H1540 H 0.39704 0.9802 0.42742 0.0
H1541 H 0.4249 -0.00128 0.45149 0.0
C1542 C 0.45522 0.00167 0.54871 0.0
C1543 C 0.43721 0.02183 0.54852 0.0
C1544 C 0.46549 0.99231 0.53234 0.0
C1545 C 0.45808 0.00308 0.51553 0.0
C1546 C 0.43925 0.0224 0.51523 0.0
C1547 C 0.4289 0.03175 0.53161 0.0
C1548 C 0.47084 -0.00503 0.49835 0.0
C1549 C 0.45564 0.98528 0.48401 0.0
C1550 C 0.49792 -0.00358 0.49622 0.0
C1551 C 0.51484 0.00774 0.51053 0.0
C1552 C 0.51055 0.03283 0.51692 0.0
C1553 C 0.52635 0.04325 0.53058 0.0
C1554 C 0.54665 0.02883 0.53784 0.0
C1555 C 0.55123 0.00399 0.53142 0.0
C1556 C 0.53546 -0.00654 0.51779 0.0
C1557 C 0.51088 0.97657 0.41511 0.0
C1558 C 0.53012 0.95758 0.41465 0.0
C1559 C 0.49932 0.98347 0.43166 0.0
C1560 C 0.50669 0.97142 0.44802 0.0
C1561 C 0.52632 0.95289 0.44769 0.0
C1562 C 0.5379 0.94595 0.43112 0.0
C1563 C 0.49394 0.97828 0.46547 0.0
C1564 C 0.50914 0.98779 0.47986 0.0
C1565 C 0.46687 0.9767 0.46762 0.0
C1566 C 0.44999 0.96556 0.45321 0.0
C1567 C 0.45473 0.9408 0.44631 0.0
C1568 C 0.43891 0.93052 0.43261 0.0
C1569 C 0.41816 0.94472 0.4258 0.0
C1570 C 0.41314 0.96923 0.4327 0.0
C1571 C 0.42893 0.97962 0.44638 0.0
H1572 H 0.40593 0.93672 0.41519 0.0
H1573 H 0.55886 0.03693 0.54842 0.0
H1574 H 0.06041 0.94144 0.53093 0.0
H1575 H 0.04213 0.95821 0.50248 0.0
H1576 H -0.00769 0.00832 0.5336 0.0
H1577 H 0.01032 0.99145 0.56215 0.0
H1578 H 0.96602 0.9823 0.50753 0.0
H1579 H 0.04272 0.03267 0.51051 0.0
H1580 H 0.08933 0.04076 0.51376 0.0
H1581 H 0.1043 -0.00444 0.46562 0.0
H1582 H 0.05779 0.98689 0.46222 0.0
H1583 H 0.92269 0.0522 0.42908 0.0
H1584 H 0.94124 0.04026 0.45876 0.0
H1585 H -0.00711 0.9875 0.43165 0.0
H1586 H 0.97464 -0.00057 0.40197 0.0
H1587 H 0.01789 0.0176 0.45644 0.0
H1588 H 0.94151 0.96551 0.45445 0.0
H1589 H 0.89493 0.95724 0.45121 0.0
H1590 H 0.87944 0.00578 0.49757 0.0
H1591 H 0.92593 0.01463 0.50094 0.0
C1592 C 0.04575 0.95621 0.53171 0.0
C1593 C 0.03675 0.9651 0.54876 0.0
C1594 C 0.03539 0.96584 0.51545 0.0
C1595 C 0.01598 0.98461 0.51596 0.0
C1596 C 0.00728 -0.00617 0.53295 0.0
C1597 C 0.01765 0.98424 0.54922 0.0
C1598 C 0.00395 -0.00633 0.49875 0.0
C1599 C 0.97727 0.99045 0.49647 0.0
C1600 C 0.01878 0.00376 0.48422 0.0
C1601 C 0.04678 0.00894 0.48621 0.0
C1602 C 0.05597 0.02427 0.5007 0.0
C1603 C 0.08237 0.029 0.50256 0.0
C1604 C 0.09977 0.01863 0.48993 0.0
C1605 C 0.0908 0.00356 0.4754 0.0
C1606 C 0.06442 -0.00125 0.47349 0.0
C1607 C 0.9379 0.03795 0.42947 0.0
C1608 C 0.94723 0.02675 0.41322 0.0
C1609 C 0.94843 0.03112 0.44641 0.0
C1610 C 0.96836 0.01294 0.44736 0.0
C1611 C 0.97756 0.00162 0.43117 0.0
C1612 C 0.96703 0.00838 0.41425 0.0
C1613 C 0.98003 0.00599 0.46518 0.0
C1614 C 0.00662 0.00962 0.46757 0.0
C1615 C 0.96513 -0.00372 0.4798 0.0
C1616 C 0.93718 0.99096 0.47781 0.0
C1617 C 0.92816 0.9746 0.46385 0.0
C1618 C 0.90177 0.96977 0.46201 0.0
C1619 C 0.88423 0.98104 0.47414 0.0
C1620 C 0.89305 -0.0029 0.48817 0.0
C1621 C 0.91941 0.00202 0.49006 0.0
H1622 H 0.86381 0.97727 0.4727 0.0
H1623 H 0.1202 0.02232 0.49138 0.0
H1624 H 0.5109 0.49701 0.06065 0.0
H1625 H 0.49526 0.48221 0.03089 0.0
H1626 H 0.5458 0.5355 0.00375 0.0
H1627 H 0.56125 0.5508 0.03358 0.0
H1628 H 0.49796 0.53768 -0.01002 0.0
H1629 H 0.55889 0.47131 0.00371 0.0
H1630 H 0.57931 0.43769 0.0225 0.0
H1631 H 0.50825 0.39569 0.02329 0.0
H1632 H 0.48729 0.42924 0.00471 0.0
H1633 H 0.47863 0.48695 0.90057 0.0
H1634 H 0.49741 0.50111 0.92961 0.0
H1635 H 0.44799 0.44902 0.9589 0.0
H1636 H 0.42941 0.43439 0.92984 0.0
H1637 H 0.49678 0.44632 0.97109 0.0
H1638 H 0.4355 0.51315 0.95835 0.0
H1639 H 0.41476 0.5468 0.93977 0.0
H1640 H 0.48627 0.58789 0.93731 0.0
H1641 H 0.50754 0.5543 0.95568 0.0
C1642 C 0.51886 0.50545 0.04836 0.0
C1643 C 0.53728 0.52509 0.04943 0.0
C1644 C 0.50997 0.49689 0.03136 0.0
C1645 C 0.51957 0.50759 0.01513 0.0
C1646 C 0.53819 0.52699 0.01614 0.0
C1647 C 0.54703 0.53565 0.03317 0.0
C1648 C 0.50927 0.49926 -0.00285 0.0
C1649 C 0.49809 0.51776 -0.01431 0.0
C1650 C 0.50887 0.47318 -0.00817 0.0
C1651 C 0.52146 0.45291 0.00295 0.0
C1652 C 0.54756 0.455 0.00801 0.0
C1653 C 0.55924 0.43594 0.0186 0.0
C1654 C 0.54507 0.4146 0.02411 0.0
C1655 C 0.5192 0.41225 0.01901 0.0
C1656 C 0.50741 0.43127 0.00844 0.0
C1657 C 0.47166 0.4786 0.9132 0.0
C1658 C 0.45252 0.45959 0.91296 0.0
C1659 C 0.48236 0.48676 0.92977 0.0
C1660 C 0.4739 0.47627 0.94639 0.0
C1661 C 0.45476 0.45734 0.9462 0.0
C1662 C 0.44412 0.44908 0.92961 0.0
C1663 C 0.48538 0.48472 0.96398 0.0
C1664 C 0.49676 0.46625 0.97535 0.0
C1665 C 0.48594 0.51082 0.96924 0.0
C1666 C 0.47317 0.53108 0.95823 0.0
C1667 C 0.44685 0.52926 0.95372 0.0
C1668 C 0.43499 0.54834 0.94325 0.0
C1669 C 0.4492 0.56944 0.93732 0.0
C1670 C 0.4753 0.57153 0.94189 0.0
C1671 C 0.48726 0.55248 0.95234 0.0
H1672 H 0.43999 0.58419 0.92921 0.0
H1673 H 0.55415 0.39986 0.03231 0.0
H1674 H 0.92343 0.43232 0.03185 0.0
H1675 H 0.94226 0.44648 0.00286 0.0
H1676 H 0.9865 0.50368 0.03183 0.0
H1677 H 0.96758 0.48988 0.0608 0.0
H1678 H 0.96572 0.5225 0.00049 0.0
H1679 H 0.01448 0.44848 0.01892 0.0
H1680 H 0.02035 0.40365 0.02864 0.0
H1681 H 0.98625 0.37742 0.97828 0.0
H1682 H 0.97984 0.42212 0.96837 0.0
H1683 H 0.05665 0.55047 0.93129 0.0
H1684 H 0.03786 0.53596 0.96018 0.0
H1685 H -0.00641 0.47911 0.93089 0.0
H1686 H 0.01248 0.49327 0.902 0.0
H1687 H 0.01424 0.46005 0.96231 0.0
H1688 H 0.96561 0.53412 0.94385 0.0
H1689 H 0.95991 0.57896 0.93411 0.0
H1690 H -0.00612 0.60513 -0.01547 0.0
H1691 H 0.00012 0.5604 -0.00553 0.0
C1692 C 0.93704 0.44802 0.03202 0.0
C1693 C 0.94418 0.45988 0.04858 0.0
C1694 C 0.94784 0.45601 0.01548 0.0
C1695 C 0.96601 0.47588 0.01528 0.0
C1696 C 0.97255 0.48827 0.03173 0.0
C1697 C 0.96177 0.48031 0.04825 0.0
C1698 C 0.97869 0.48342 -0.002 0.0
C1699 C 0.97659 0.50894 -0.00776 0.0
C1700 C -0.00757 0.46555 -0.01288 0.0
C1701 C -0.00356 0.43865 -0.00701 0.0
C1702 C 0.00805 0.43315 0.00998 0.0
C1703 C 0.01151 0.40777 0.01551 0.0
C1704 C 0.00362 0.3877 0.00411 0.0
C1705 C -0.00768 0.39298 -0.01289 0.0
C1706 C -0.01121 0.41834 -0.01848 0.0
C1707 C 0.04307 0.53475 0.93103 0.0
C1708 C 0.03588 0.52313 0.91439 0.0
C1709 C 0.03229 0.52656 0.94751 0.0
C1710 C 0.01408 0.50673 0.94759 0.0
C1711 C 0.00756 0.4945 0.93108 0.0
C1712 C 0.01833 0.50266 0.9146 0.0
C1713 C 0.0013 0.49913 0.96482 0.0
C1714 C 0.00337 0.47361 0.97056 0.0
C1715 C 0.98753 0.517 0.97569 0.0
C1716 C 0.98356 0.54391 0.96982 0.0
C1717 C 0.97203 0.54943 0.95281 0.0
C1718 C 0.96868 0.57483 0.94725 0.0
C1719 C 0.97659 0.59488 0.95867 0.0
C1720 C 0.98779 0.58957 0.97569 0.0
C1721 C -0.00877 0.56421 -0.0187 0.0
H1722 H 0.97399 0.61453 0.95435 0.0
H1723 H 0.0063 0.36806 0.00842 0.0
H1724 H 0.92316 0.55552 0.5313 0.0
H1725 H 0.94248 0.54163 0.50234 0.0
H1726 H 0.98362 0.48167 0.53069 0.0
H1727 H 0.96471 0.49565 0.55971 0.0
H1728 H 0.01488 0.50783 0.50815 0.0
H1729 H 0.93151 0.46801 0.50417 0.0
H1730 H 0.88399 0.46671 0.50462 0.0
H1731 H 0.88097 0.51916 0.45944 0.0
H1732 H 0.9285 0.52104 0.45887 0.0
H1733 H 0.0547 0.43361 0.43133 0.0
H1734 H 0.03609 0.44963 0.45995 0.0
H1735 H -0.00484 0.50817 0.42997 0.0
H1736 H 0.01331 0.49199 0.40128 0.0
H1737 H 0.96387 0.48391 0.4531 0.0
H1738 H 0.04717 0.5231 0.45655 0.0
H1739 H 0.09468 0.52451 0.45603 0.0
H1740 H 0.09793 0.47359 0.5021 0.0
H1741 H 0.05041 0.47158 0.50274 0.0
C1742 C 0.93616 0.53926 0.53133 0.0
C1743 C 0.94246 0.52668 0.54776 0.0
C1744 C 0.94713 0.53132 0.51478 0.0
C1745 C 0.96437 0.51055 0.51439 0.0
C1746 C 0.9704 0.49778 0.53073 0.0
C1747 C 0.9595 0.50573 0.54727 0.0
C1748 C 0.97673 0.50256 0.49703 0.0
C1749 C 0.00376 0.50228 0.49617 0.0
C1750 C 0.96214 0.49601 0.4813 0.0
C1751 C 0.93356 0.49487 0.4816 0.0
C1752 C 0.92071 0.47943 0.49443 0.0
C1753 C 0.89378 0.47855 0.49469 0.0
C1754 C 0.87947 0.4929 0.4821 0.0
C1755 C 0.89208 0.50809 0.4692 0.0
C1756 C 0.91901 0.50905 0.46889 0.0
C1757 C 0.04193 0.45004 0.43086 0.0
C1758 C 0.03539 0.46151 0.41408 0.0
C1759 C 0.03139 0.45923 0.44722 0.0
C1760 C 0.01437 0.48018 0.44707 0.0
C1761 C 0.00822 0.49195 0.43036 0.0
C1762 C 0.01867 0.48273 0.414 0.0
C1763 C 0.00205 0.48907 0.46422 0.0
C1764 C 0.97502 0.48953 0.46506 0.0
C1765 C 0.01664 0.4958 0.47991 0.0
C1766 C 0.04523 0.49701 0.47958 0.0
C1767 C 0.05801 0.51203 0.46648 0.0
C1768 C 0.08495 0.51298 0.46618 0.0
C1769 C 0.09932 0.4991 0.47899 0.0
C1770 C 0.08677 0.4843 0.49217 0.0
C1771 C 0.05984 0.48328 0.49252 0.0
H1772 H 0.12017 0.49986 0.47874 0.0
H1773 H 0.85862 0.49219 0.48232 0.0
H1774 H 0.51232 0.49127 0.55824 0.0
H1775 H 0.49433 0.50456 0.52883 0.0
H1776 H 0.54133 0.44826 0.50107 0.0
H1777 H 0.55921 0.43454 0.53056 0.0
H1778 H 0.51506 0.5237 0.49799 0.0
H1779 H 0.50571 0.42332 0.46544 0.0
H1780 H 0.50141 0.37826 0.47505 0.0
H1781 H 0.46549 0.40239 0.52525 0.0
H1782 H 0.46923 0.44754 0.51583 0.0
H1783 H 0.46563 0.49595 0.39974 0.0
H1784 H 0.48668 0.48121 0.42784 0.0
H1785 H 0.44102 0.53441 0.45955 0.0
H1786 H 0.42004 0.54946 0.43151 0.0
H1787 H 0.46877 0.45991 0.45961 0.0
H1788 H 0.47933 0.56017 0.49276 0.0
H1789 H 0.48313 0.60529 0.48322 0.0
H1790 H 0.51604 0.58151 0.43189 0.0
H1791 H 0.5128 0.5363 0.44124 0.0
C1792 C 0.51898 0.48182 0.54587 0.0
C1793 C 0.537 0.46171 0.5467 0.0
C1794 C 0.50873 0.48949 0.52908 0.0
C1795 C 0.51625 0.47715 0.51284 0.0
C1796 C 0.53499 0.45773 0.51352 0.0
C1797 C 0.54525 0.45 0.53034 0.0
C1798 C 0.50378 0.48419 0.49531 0.0
C1799 C 0.50474 0.50981 0.48967 0.0
C1800 C 0.49079 0.46591 0.48432 0.0
C1801 C 0.48805 0.43881 0.49001 0.0
C1802 C 0.49682 0.41899 0.4785 0.0
C1803 C 0.49448 0.39344 0.48392 0.0
C1804 C 0.48328 0.38747 0.50078 0.0
C1805 C 0.47426 0.40704 0.51223 0.0
C1806 C 0.47651 0.43261 0.50686 0.0
C1807 C 0.45992 0.50437 0.41272 0.0
C1808 C 0.44137 0.52403 0.41343 0.0
C1809 C 0.47193 0.49588 0.42874 0.0
C1810 C 0.46566 0.50702 0.44568 0.0
C1811 C 0.4464 0.5259 0.44653 0.0
C1812 C 0.43438 0.5344 0.43053 0.0
C1813 C 0.47982 0.49946 0.46241 0.0
C1814 C 0.47921 0.47375 0.46788 0.0
C1815 C 0.49309 0.51767 0.47328 0.0
C1816 C 0.49557 0.54484 0.46765 0.0
C1817 C 0.48749 0.56458 0.47948 0.0
C1818 C 0.48953 0.59017 0.4741 0.0
C1819 C 0.49974 0.59626 0.45694 0.0
C1820 C 0.50804 0.57677 0.44515 0.0
C1821 C 0.50608 0.55116 0.45048 0.0
H1822 H 0.50128 0.61608 0.45279 0.0
H1823 H 0.48152 0.36769 0.50496 0.0
loop_
_geom_bond_atom_site_label_1
_geom_bond_atom_site_label_2
_geom_bond_distance
_geom_bond_site_symmetry_2
_ccdc_geom_bond_type
C0 O1 1.306 . S
C0 O3 1.160 . S
O1 C0 1.306 . S
O1 Cd2 2.218 1_455 S
Cd2 O1 2.218 1_655 S
Cd2 O6 2.257 1_655 S
Cd2 O10 2.264 1_655 S
O3 C0 1.160 . S
O3 Cd4 2.203 . S
Cd4 O3 2.203 . S
Cd4 O6 2.411 . S
Cd4 O7 2.333 . S
Cd4 O8 2.352 . S
Cd4 O12 2.277 . S
Cd4 O13 2.356 . S
C5 O10 1.209 . S
C5 O12 1.226 . S
O6 Cd2 2.257 1_455 S
O6 Cd4 2.411 . S
O6 C9 1.320 . S
O7 Cd4 2.333 . S
O7 C9 1.214 . S
O8 Cd4 2.352 . S
O8 C11 1.258 . S
C9 O6 1.320 . S
C9 O7 1.214 . S
O10 Cd2 2.264 1_455 S
O10 C5 1.209 . S
C11 O8 1.258 . S
C11 O13 1.282 . S
O12 Cd4 2.277 . S
O12 C5 1.226 . S
O13 Cd4 2.356 . S
O13 C11 1.282 . S
C14 O15 1.306 . S
C14 O17 1.160 . S
O15 C14 1.306 . S
O15 Cd16 2.228 . S
Cd16 O15 2.228 . S
Cd16 O20 2.273 . S
Cd16 O24 2.277 . S
O17 C14 1.160 . S
O17 Cd18 2.203 . S
Cd18 O17 2.203 . S
Cd18 O20 2.411 . S
Cd18 O21 2.333 . S
Cd18 O22 2.352 . S
Cd18 O26 2.277 . S
Cd18 O27 2.356 . S
C19 O24 1.209 . S
C19 O26 1.226 . S
O20 Cd16 2.273 . S
O20 Cd18 2.411 . S
O20 C23 1.320 . S
O21 Cd18 2.333 . S
O21 C23 1.214 . S
O22 Cd18 2.352 . S
O22 C25 1.258 . S
C23 O20 1.320 . S
C23 O21 1.214 . S
O24 Cd16 2.277 . S
O24 C19 1.209 . S
C25 O22 1.258 . S
C25 O27 1.282 . S
O26 Cd18 2.277 . S
O26 C19 1.226 . S
O27 Cd18 2.356 . S
O27 C25 1.282 . S
C28 O29 1.306 . S
C28 O31 1.160 . S
O29 C28 1.306 . S
O29 Cd30 2.228 . S
Cd30 O29 2.228 . S
Cd30 O34 2.273 . S
Cd30 O38 2.277 . S
O31 C28 1.160 . S
O31 Cd32 2.203 . S
Cd32 O31 2.203 . S
Cd32 O34 2.411 . S
Cd32 O35 2.333 . S
Cd32 O36 2.352 . S
Cd32 O40 2.277 . S
Cd32 O41 2.356 . S
C33 O38 1.209 . S
C33 O40 1.226 . S
O34 Cd30 2.273 . S
O34 Cd32 2.411 . S
O34 C37 1.320 . S
O35 Cd32 2.333 . S
O35 C37 1.214 . S
O36 Cd32 2.352 . S
O36 C39 1.258 . S
C37 O34 1.320 . S
C37 O35 1.214 . S
O38 Cd30 2.277 . S
O38 C33 1.209 . S
C39 O36 1.258 . S
C39 O41 1.282 . S
O40 Cd32 2.277 . S
O40 C33 1.226 . S
O41 Cd32 2.356 . S
O41 C39 1.282 . S
C42 O43 1.306 . S
C42 O45 1.160 . S
O43 C42 1.306 . S
O43 Cd44 2.218 1_655 S
Cd44 O43 2.218 1_455 S
Cd44 O48 2.257 1_455 S
Cd44 O52 2.264 1_455 S
O45 C42 1.160 . S
O45 Cd46 2.203 . S
Cd46 O45 2.203 . S
Cd46 O48 2.411 . S
Cd46 O49 2.333 . S
Cd46 O50 2.352 . S
Cd46 O54 2.277 . S
Cd46 O55 2.356 . S
C47 O52 1.209 . S
C47 O54 1.226 . S
O48 Cd44 2.257 1_655 S
O48 Cd46 2.411 . S
O48 C51 1.320 . S
O49 Cd46 2.333 . S
O49 C51 1.214 . S
O50 Cd46 2.352 . S
O50 C53 1.258 . S
C51 O48 1.320 . S
C51 O49 1.214 . S
O52 Cd44 2.264 1_655 S
O52 C47 1.209 . S
C53 O50 1.258 . S
C53 O55 1.282 . S
O54 Cd46 2.277 . S
O54 C47 1.226 . S
O55 Cd46 2.356 . S
O55 C53 1.282 . S
C56 O57 1.306 . S
C56 O59 1.160 . S
O57 C56 1.306 . S
O57 Cd58 2.218 1_655 S
Cd58 O57 2.218 1_455 S
Cd58 O62 2.257 1_455 S
Cd58 O66 2.264 1_455 S
O59 C56 1.160 . S
O59 Cd60 2.203 . S
Cd60 O59 2.203 . S
Cd60 O62 2.411 . S
Cd60 O63 2.333 . S
Cd60 O64 2.352 . S
Cd60 O68 2.277 . S
Cd60 O69 2.356 . S
C61 O66 1.209 . S
C61 O68 1.226 . S
O62 Cd58 2.257 1_655 S
O62 Cd60 2.411 . S
O62 C65 1.320 . S
O63 Cd60 2.333 . S
O63 C65 1.214 . S
O64 Cd60 2.352 . S
O64 C67 1.258 . S
C65 O62 1.320 . S
C65 O63 1.214 . S
O66 Cd58 2.264 1_655 S
O66 C61 1.209 . S
C67 O64 1.258 . S
C67 O69 1.282 . S
O68 Cd60 2.277 . S
O68 C61 1.226 . S
O69 Cd60 2.356 . S
O69 C67 1.282 . S
C70 O71 1.306 . S
C70 O73 1.160 . S
O71 C70 1.306 . S
O71 Cd72 2.228 . S
Cd72 O71 2.228 . S
Cd72 O76 2.273 . S
Cd72 O80 2.277 . S
O73 C70 1.160 . S
O73 Cd74 2.203 . S
Cd74 O73 2.203 . S
Cd74 O76 2.411 . S
Cd74 O77 2.333 . S
Cd74 O78 2.352 . S
Cd74 O82 2.277 . S
Cd74 O83 2.356 . S
C75 O80 1.209 . S
C75 O82 1.226 . S
O76 Cd72 2.273 . S
O76 Cd74 2.411 . S
O76 C79 1.320 . S
O77 Cd74 2.333 . S
O77 C79 1.214 . S
O78 Cd74 2.352 . S
O78 C81 1.258 . S
C79 O76 1.320 . S
C79 O77 1.214 . S
O80 Cd72 2.277 . S
O80 C75 1.209 . S
C81 O78 1.258 . S
C81 O83 1.282 . S
O82 Cd74 2.277 . S
O82 C75 1.226 . S
O83 Cd74 2.356 . S
O83 C81 1.282 . S
C84 O85 1.306 . S
C84 O87 1.160 . S
O85 C84 1.306 . S
O85 Cd86 2.228 . S
Cd86 O85 2.228 . S
Cd86 O90 2.273 . S
Cd86 O94 2.277 . S
O87 C84 1.160 . S
O87 Cd88 2.203 . S
Cd88 O87 2.203 . S
Cd88 O90 2.411 . S
Cd88 O91 2.333 . S
Cd88 O92 2.352 . S
Cd88 O96 2.277 . S
Cd88 O97 2.356 . S
C89 O94 1.209 . S
C89 O96 1.226 . S
O90 Cd86 2.273 . S
O90 Cd88 2.411 . S
O90 C93 1.320 . S
O91 Cd88 2.333 . S
O91 C93 1.214 . S
O92 Cd88 2.352 . S
O92 C95 1.258 . S
C93 O90 1.320 . S
C93 O91 1.214 . S
O94 Cd86 2.277 . S
O94 C89 1.209 . S
C95 O92 1.258 . S
C95 O97 1.282 . S
O96 Cd88 2.277 . S
O96 C89 1.226 . S
O97 Cd88 2.356 . S
O97 C95 1.282 . S
C98 O99 1.306 . S
C98 O101 1.160 . S
O99 C98 1.306 . S
O99 Cd100 2.218 1_455 S
Cd100 O99 2.218 1_655 S
Cd100 O104 2.257 1_655 S
Cd100 O108 2.264 1_655 S
O101 C98 1.160 . S
O101 Cd102 2.203 . S
Cd102 O101 2.203 . S
Cd102 O104 2.411 . S
Cd102 O105 2.333 . S
Cd102 O106 2.352 . S
Cd102 O110 2.277 . S
Cd102 O111 2.356 . S
C103 O108 1.209 . S
C103 O110 1.226 . S
O104 Cd100 2.257 1_455 S
O104 Cd102 2.411 . S
O104 C107 1.320 . S
O105 Cd102 2.333 . S
O105 C107 1.214 . S
O106 Cd102 2.352 . S
O106 C109 1.258 . S
C107 O104 1.320 . S
C107 O105 1.214 . S
O108 Cd100 2.264 1_455 S
O108 C103 1.209 . S
C109 O106 1.258 . S
C109 O111 1.282 . S
O110 Cd102 2.277 . S
O110 C103 1.226 . S
O111 Cd102 2.356 . S
O111 C109 1.282 . S
C112 O113 1.306 . S
C112 O115 1.160 . S
O113 C112 1.306 . S
O113 Cd114 2.228 . S
Cd114 O113 2.228 . S
Cd114 O118 2.273 . S
Cd114 O122 2.277 . S
O115 C112 1.160 . S
O115 Cd116 2.203 . S
Cd116 O115 2.203 . S
Cd116 O118 2.411 . S
Cd116 O119 2.333 . S
Cd116 O120 2.352 . S
Cd116 O124 2.277 . S
Cd116 O125 2.356 . S
C117 O122 1.209 . S
C117 O124 1.226 . S
O118 Cd114 2.273 . S
O118 Cd116 2.411 . S
O118 C121 1.320 . S
O119 Cd116 2.333 . S
O119 C121 1.214 . S
O120 Cd116 2.352 . S
O120 C123 1.258 . S
C121 O118 1.320 . S
C121 O119 1.214 . S
O122 Cd114 2.277 . S
O122 C117 1.209 . S
C123 O120 1.258 . S
C123 O125 1.282 . S
O124 Cd116 2.277 . S
O124 C117 1.226 . S
O125 Cd116 2.356 . S
O125 C123 1.282 . S
C126 O127 1.306 . S
C126 O129 1.160 . S
O127 C126 1.306 . S
O127 Cd128 2.218 1_655 S
Cd128 O127 2.218 1_455 S
Cd128 O132 2.257 1_455 S
Cd128 O136 2.264 1_455 S
O129 C126 1.160 . S
O129 Cd130 2.203 . S
Cd130 O129 2.203 . S
Cd130 O132 2.411 . S
Cd130 O133 2.333 . S
Cd130 O134 2.352 . S
Cd130 O138 2.277 . S
Cd130 O139 2.356 . S
C131 O136 1.209 . S
C131 O138 1.226 . S
O132 Cd128 2.257 1_655 S
O132 Cd130 2.411 . S
O132 C135 1.320 . S
O133 Cd130 2.333 . S
O133 C135 1.214 . S
O134 Cd130 2.352 . S
O134 C137 1.258 . S
C135 O132 1.320 . S
C135 O133 1.214 . S
O136 Cd128 2.264 1_655 S
O136 C131 1.209 . S
C137 O134 1.258 . S
C137 O139 1.282 . S
O138 Cd130 2.277 . S
O138 C131 1.226 . S
O139 Cd130 2.356 . S
O139 C137 1.282 . S
C140 O141 1.306 . S
C140 O143 1.160 . S
O141 C140 1.306 . S
O141 Cd142 2.218 1_455 S
Cd142 O141 2.218 1_655 S
Cd142 O146 2.257 1_655 S
Cd142 O150 2.264 1_655 S
O143 C140 1.160 . S
O143 Cd144 2.203 . S
Cd144 O143 2.203 . S
Cd144 O146 2.411 . S
Cd144 O147 2.333 . S
Cd144 O148 2.352 . S
Cd144 O152 2.277 . S
Cd144 O153 2.356 . S
C145 O150 1.209 . S
C145 O152 1.226 . S
O146 Cd142 2.257 1_455 S
O146 Cd144 2.411 . S
O146 C149 1.320 . S
O147 Cd144 2.333 . S
O147 C149 1.214 . S
O148 Cd144 2.352 . S
O148 C151 1.258 . S
C149 O146 1.320 . S
C149 O147 1.214 . S
O150 Cd142 2.264 1_455 S
O150 C145 1.209 . S
C151 O148 1.258 . S
C151 O153 1.282 . S
O152 Cd144 2.277 . S
O152 C145 1.226 . S
O153 Cd144 2.356 . S
O153 C151 1.282 . S
C154 O155 1.306 . S
C154 O157 1.160 . S
O155 C154 1.306 . S
O155 Cd156 2.228 . S
Cd156 O155 2.228 . S
Cd156 O160 2.273 . S
Cd156 O164 2.277 . S
O157 C154 1.160 . S
O157 Cd158 2.203 . S
Cd158 O157 2.203 . S
Cd158 O160 2.411 . S
Cd158 O161 2.333 . S
Cd158 O162 2.352 . S
Cd158 O166 2.277 . S
Cd158 O167 2.356 . S
C159 O164 1.209 . S
C159 O166 1.226 . S
O160 Cd156 2.273 . S
O160 Cd158 2.411 . S
O160 C163 1.320 . S
O161 Cd158 2.333 . S
O161 C163 1.214 . S
O162 Cd158 2.352 . S
O162 C165 1.258 . S
C163 O160 1.320 . S
C163 O161 1.214 . S
O164 Cd156 2.277 . S
O164 C159 1.209 . S
C165 O162 1.258 . S
C165 O167 1.282 . S
O166 Cd158 2.277 . S
O166 C159 1.226 . S
O167 Cd158 2.356 . S
O167 C165 1.282 . S
C168 O169 1.306 . S
C168 O171 1.160 . S
O169 C168 1.306 . S
O169 Cd170 2.228 . S
Cd170 O169 2.228 . S
Cd170 O174 2.273 . S
Cd170 O178 2.277 . S
O171 C168 1.160 . S
O171 Cd172 2.203 . S
Cd172 O171 2.203 . S
Cd172 O174 2.411 . S
Cd172 O175 2.333 . S
Cd172 O176 2.352 . S
Cd172 O180 2.277 . S
Cd172 O181 2.356 . S
C173 O178 1.209 . S
C173 O180 1.226 . S
O174 Cd170 2.273 . S
O174 Cd172 2.411 . S
O174 C177 1.320 . S
O175 Cd172 2.333 . S
O175 C177 1.214 . S
O176 Cd172 2.352 . S
O176 C179 1.258 . S
C177 O174 1.320 . S
C177 O175 1.214 . S
O178 Cd170 2.277 . S
O178 C173 1.209 . S
C179 O176 1.258 . S
C179 O181 1.282 . S
O180 Cd172 2.277 . S
O180 C173 1.226 . S
O181 Cd172 2.356 . S
O181 C179 1.282 . S
C182 O183 1.306 . S
C182 O185 1.160 . S
O183 C182 1.306 . S
O183 Cd184 2.218 1_455 S
Cd184 O183 2.218 1_655 S
Cd184 O188 2.257 1_655 S
Cd184 O192 2.264 1_655 S
O185 C182 1.160 . S
O185 Cd186 2.203 . S
Cd186 O185 2.203 . S
Cd186 O188 2.411 . S
Cd186 O189 2.333 . S
Cd186 O190 2.352 . S
Cd186 O194 2.277 . S
Cd186 O195 2.356 . S
C187 O192 1.209 . S
C187 O194 1.226 . S
O188 Cd184 2.257 1_455 S
O188 Cd186 2.411 . S
O188 C191 1.320 . S
O189 Cd186 2.333 . S
O189 C191 1.214 . S
O190 Cd186 2.352 . S
O190 C193 1.258 . S
C191 O188 1.320 . S
C191 O189 1.214 . S
O192 Cd184 2.264 1_455 S
O192 C187 1.209 . S
C193 O190 1.258 . S
C193 O195 1.282 . S
O194 Cd186 2.277 . S
O194 C187 1.226 . S
O195 Cd186 2.356 . S
O195 C193 1.282 . S
C196 O197 1.306 . S
C196 O199 1.160 . S
O197 C196 1.306 . S
O197 Cd198 2.218 1_655 S
Cd198 O197 2.218 1_455 S
Cd198 O202 2.257 1_455 S
Cd198 O206 2.264 1_455 S
O199 C196 1.160 . S
O199 Cd200 2.203 . S
Cd200 O199 2.203 . S
Cd200 O202 2.411 . S
Cd200 O203 2.333 . S
Cd200 O204 2.352 . S
Cd200 O208 2.277 . S
Cd200 O209 2.356 . S
C201 O206 1.209 . S
C201 O208 1.226 . S
O202 Cd198 2.257 1_655 S
O202 Cd200 2.411 . S
O202 C205 1.320 . S
O203 Cd200 2.333 . S
O203 C205 1.214 . S
O204 Cd200 2.352 . S
O204 C207 1.258 . S
C205 O202 1.320 . S
C205 O203 1.214 . S
O206 Cd198 2.264 1_655 S
O206 C201 1.209 . S
C207 O204 1.258 . S
C207 O209 1.282 . S
O208 Cd200 2.277 . S
O208 C201 1.226 . S
O209 Cd200 2.356 . S
O209 C207 1.282 . S
C210 O211 1.306 . S
C210 O213 1.160 . S
O211 C210 1.306 . S
O211 Cd212 2.228 . S
Cd212 O211 2.228 . S
Cd212 O216 2.273 . S
Cd212 O220 2.277 . S
O213 C210 1.160 . S
O213 Cd214 2.203 . S
Cd214 O213 2.203 . S
Cd214 O216 2.411 . S
Cd214 O217 2.333 . S
Cd214 O218 2.352 . S
Cd214 O222 2.277 . S
Cd214 O223 2.356 . S
C215 O220 1.209 . S
C215 O222 1.226 . S
O216 Cd212 2.273 . S
O216 Cd214 2.411 . S
O216 C219 1.320 . S
O217 Cd214 2.333 . S
O217 C219 1.214 . S
O218 Cd214 2.352 . S
O218 C221 1.258 . S
C219 O216 1.320 . S
C219 O217 1.214 . S
O220 Cd212 2.277 . S
O220 C215 1.209 . S
C221 O218 1.258 . S
C221 O223 1.282 . S
O222 Cd214 2.277 . S
O222 C215 1.226 . S
O223 Cd214 2.356 . S
O223 C221 1.282 . S
H224 C242 0.951 . S
H225 C244 0.951 . S
H226 C246 0.940 1_545 S
H227 C247 0.950 1_545 S
H228 C249 0.950 . S
H229 C252 0.950 1_545 S
H230 C253 0.950 . S
H231 C255 0.950 . S
H232 C256 0.950 . S
H233 C257 0.951 . S
H234 C259 0.951 . S
H235 C261 0.941 1_565 S
H236 C262 0.950 1_565 S
H237 C264 0.950 . S
H238 C267 0.950 1_565 S
H239 C268 0.950 . S
H240 C270 0.950 . S
H241 C271 0.950 . S
C242 H224 0.951 . S
C242 C243 1.366 . S
C242 C244 1.388 . S
C243 C242 1.366 . S
C243 C247 1.385 . S
C244 H225 0.951 . S
C244 C242 1.388 . S
C244 C245 1.366 . S
C245 C244 1.366 . S
C245 C246 1.420 . S
C245 C248 1.499 . S
C246 H226 0.940 1_565 S
C246 C245 1.420 . S
C246 C247 1.377 . S
C247 H227 0.950 1_565 S
C247 C243 1.385 . S
C247 C246 1.377 . S
C248 C245 1.499 . S
C248 C249 1.373 1_565 S
C248 C250 1.389 . S
C249 H228 0.950 . S
C249 C248 1.373 1_545 S
C249 C265 1.377 . S
C250 C248 1.389 . S
C250 C251 1.524 . S
C250 C264 1.377 . S
C251 C250 1.524 . S
C251 C252 1.397 . S
C251 C256 1.363 . S
C252 H229 0.950 1_565 S
C252 C251 1.397 . S
C252 C253 1.334 . S
C253 H230 0.950 . S
C253 C252 1.334 . S
C253 C254 1.287 . S
C254 C253 1.287 . S
C254 C255 1.524 . S
C254 H273 0.913 . S
C255 H231 0.950 . S
C255 C254 1.524 . S
C255 C256 1.415 . S
C256 H232 0.950 . S
C256 C251 1.363 . S
C256 C255 1.415 . S
C257 H233 0.951 . S
C257 C258 1.366 . S
C257 C259 1.388 . S
C258 C257 1.366 . S
C258 C262 1.385 . S
C259 H234 0.951 . S
C259 C257 1.388 . S
C259 C260 1.366 . S
C260 C259 1.366 . S
C260 C261 1.420 . S
C260 C263 1.499 . S
C261 H235 0.941 1_545 S
C261 C260 1.420 . S
C261 C262 1.377 . S
C262 H236 0.950 1_545 S
C262 C258 1.385 . S
C262 C261 1.377 . S
C263 C260 1.499 . S
C263 C264 1.373 1_545 S
C263 C265 1.389 . S
C264 H237 0.950 . S
C264 C250 1.377 . S
C264 C263 1.373 1_565 S
C265 C249 1.377 . S
C265 C263 1.389 . S
C265 C266 1.524 . S
C266 C265 1.524 . S
C266 C267 1.397 . S
C266 C271 1.363 . S
C267 H238 0.950 1_545 S
C267 C266 1.397 . S
C267 C268 1.334 . S
C268 H239 0.950 . S
C268 C267 1.334 . S
C268 C269 1.287 . S
C269 C268 1.287 . S
C269 C270 1.524 . S
C269 H272 0.999 . S
C270 H240 0.950 . S
C270 C269 1.524 . S
C270 C271 1.415 . S
C271 H241 0.950 . S
C271 C266 1.363 . S
C271 C270 1.415 . S
H272 C269 0.999 . S
H273 C254 0.913 . S
H274 C292 0.951 . S
H275 C294 0.951 1_545 S
H276 C296 0.950 . S
H277 C297 0.950 . S
H278 C299 0.950 . S
H279 C302 0.950 . S
H280 C303 0.950 . S
H281 C305 0.950 . S
H282 C306 0.950 . S
H283 C307 0.951 . S
H284 C309 0.951 1_565 S
H285 C311 0.950 . S
H286 C312 0.950 . S
H287 C314 0.950 . S
H288 C317 0.950 . S
H289 C318 0.950 . S
H290 C320 0.950 . S
H291 C321 0.950 . S
C292 H274 0.951 . S
C292 C293 1.366 . S
C292 C294 1.388 . S
C293 C292 1.366 . S
C293 C297 1.385 . S
C294 H275 0.951 1_565 S
C294 C292 1.388 . S
C294 C295 1.366 . S
C295 C294 1.366 . S
C295 C296 1.414 . S
C295 C298 1.499 . S
C296 H276 0.950 . S
C296 C295 1.414 . S
C296 C297 1.374 . S
C297 H277 0.950 . S
C297 C293 1.385 . S
C297 C296 1.374 . S
C298 C295 1.499 . S
C298 C299 1.373 . S
C298 C300 1.389 1_565 S
C299 H278 0.950 . S
C299 C298 1.373 . S
C299 C315 1.377 . S
C300 C298 1.389 1_545 S
C300 C301 1.524 . S
C300 C314 1.377 . S
C301 C300 1.524 . S
C301 C302 1.397 . S
C301 C306 1.363 . S
C302 H279 0.950 . S
C302 C301 1.397 . S
C302 C303 1.334 . S
C303 H280 0.950 . S
C303 C302 1.334 . S
C303 C304 1.287 . S
C304 C303 1.287 . S
C304 C305 1.524 . S
C304 H323 0.913 . S
C305 H281 0.950 . S
C305 C304 1.524 . S
C305 C306 1.415 . S
C306 H282 0.950 . S
C306 C301 1.363 . S
C306 C305 1.415 . S
C307 H283 0.951 . S
C307 C308 1.366 . S
C307 C309 1.388 . S
C308 C307 1.366 . S
C308 C312 1.385 . S
C309 H284 0.951 1_545 S
C309 C307 1.388 . S
C309 C310 1.366 . S
C310 C309 1.366 . S
C310 C311 1.414 . S
C310 C313 1.499 . S
C311 H285 0.950 . S
C311 C310 1.414 . S
C311 C312 1.374 . S
C312 H286 0.950 . S
C312 C308 1.385 . S
C312 C311 1.374 . S
C313 C310 1.499 . S
C313 C314 1.373 . S
C313 C315 1.389 1_545 S
C314 H287 0.950 . S
C314 C300 1.377 . S
C314 C313 1.373 . S
C315 C299 1.377 . S
C315 C313 1.389 1_565 S
C315 C316 1.524 . S
C316 C315 1.524 . S
C316 C317 1.397 . S
C316 C321 1.363 . S
C317 H288 0.950 . S
C317 C316 1.397 . S
C317 C318 1.334 . S
C318 H289 0.950 . S
C318 C317 1.334 . S
C318 C319 1.287 . S
C319 C318 1.287 . S
C319 C320 1.524 . S
C319 H322 0.999 . S
C320 H290 0.950 . S
C320 C319 1.524 . S
C320 C321 1.415 . S
C321 H291 0.950 . S
C321 C316 1.363 . S
C321 C320 1.415 . S
H322 C319 0.999 . S
H323 C304 0.913 . S
H324 C342 0.951 . S
H325 C344 0.951 . S
H326 C346 0.950 . S
H327 C347 0.950 . S
H328 C349 0.950 . S
H329 C352 0.950 . S
H330 C353 0.950 . S
H331 C355 0.950 . S
H332 C356 0.950 . S
H333 C357 0.951 . S
H334 C359 0.951 . S
H335 C361 0.950 . S
H336 C362 0.950 . S
H337 C364 0.950 . S
H338 C367 0.950 . S
H339 C368 0.950 . S
H340 C370 0.950 . S
H341 C371 0.950 . S
C342 H324 0.951 . S
C342 C343 1.366 . S
C342 C344 1.388 . S
C343 C342 1.366 . S
C343 C347 1.385 . S
C344 H325 0.951 . S
C344 C342 1.388 . S
C344 C345 1.366 . S
C345 C344 1.366 . S
C345 C346 1.414 . S
C345 C348 1.499 . S
C346 H326 0.950 . S
C346 C345 1.414 . S
C346 C347 1.374 . S
C347 H327 0.950 . S
C347 C343 1.385 . S
C347 C346 1.374 . S
C348 C345 1.499 . S
C348 C349 1.373 . S
C348 C350 1.389 1_565 S
C349 H328 0.950 . S
C349 C348 1.373 . S
C349 C365 1.377 . S
C350 C348 1.389 1_545 S
C350 C351 1.524 . S
C350 C364 1.377 . S
C351 C350 1.524 . S
C351 C352 1.397 . S
C351 C356 1.363 . S
C352 H329 0.950 . S
C352 C351 1.397 . S
C352 C353 1.334 . S
C353 H330 0.950 . S
C353 C352 1.334 . S
C353 C354 1.287 . S
C354 C353 1.287 . S
C354 C355 1.524 . S
C354 H373 0.913 . S
C355 H331 0.950 . S
C355 C354 1.524 . S
C355 C356 1.415 . S
C356 H332 0.950 . S
C356 C351 1.363 . S
C356 C355 1.415 . S
C357 H333 0.951 . S
C357 C358 1.366 . S
C357 C359 1.388 . S
C358 C357 1.366 . S
C358 C362 1.385 . S
C359 H334 0.951 . S
C359 C357 1.388 . S
C359 C360 1.366 . S
C360 C359 1.366 . S
C360 C361 1.414 . S
C360 C363 1.499 . S
C361 H335 0.950 . S
C361 C360 1.414 . S
C361 C362 1.374 . S
C362 H336 0.950 . S
C362 C358 1.385 . S
C362 C361 1.374 . S
C363 C360 1.499 . S
C363 C364 1.373 . S
C363 C365 1.389 1_545 S
C364 H337 0.950 . S
C364 C350 1.377 . S
C364 C363 1.373 . S
C365 C349 1.377 . S
C365 C363 1.389 1_565 S
C365 C366 1.524 . S
C366 C365 1.524 . S
C366 C367 1.397 . S
C366 C371 1.363 . S
C367 H338 0.950 . S
C367 C366 1.397 . S
C367 C368 1.334 . S
C368 H339 0.950 . S
C368 C367 1.334 . S
C368 C369 1.287 . S
C369 C368 1.287 . S
C369 C370 1.524 . S
C369 H372 0.999 . S
C370 H340 0.950 . S
C370 C369 1.524 . S
C370 C371 1.415 . S
C371 H341 0.950 . S
C371 C366 1.363 . S
C371 C370 1.415 . S
H372 C369 0.999 . S
H373 C354 0.913 . S
H374 C392 0.951 . S
H375 C394 0.951 . S
H376 C396 0.950 . S
H377 C397 0.950 . S
H378 C399 0.950 . S
H379 C402 0.950 . S
H380 C403 0.950 . S
H381 C405 0.950 . S
H382 C406 0.950 . S
H383 C407 0.951 . S
H384 C409 0.951 . S
H385 C411 0.950 . S
H386 C412 0.950 . S
H387 C414 0.950 . S
H388 C417 0.950 . S
H389 C418 0.950 . S
H390 C420 0.950 . S
H391 C421 0.950 . S
C392 H374 0.951 . S
C392 C393 1.366 . S
C392 C394 1.388 . S
C393 C392 1.366 . S
C393 C397 1.385 . S
C394 H375 0.951 . S
C394 C392 1.388 . S
C394 C395 1.366 . S
C395 C394 1.366 . S
C395 C396 1.414 . S
C395 C398 1.499 . S
C396 H376 0.950 . S
C396 C395 1.414 . S
C396 C397 1.374 . S
C397 H377 0.950 . S
C397 C393 1.385 . S
C397 C396 1.374 . S
C398 C395 1.499 . S
C398 C399 1.373 1_565 S
C398 C400 1.389 . S
C399 H378 0.950 . S
C399 C398 1.373 1_545 S
C399 C415 1.377 . S
C400 C398 1.389 . S
C400 C401 1.524 . S
C400 C414 1.377 . S
C401 C400 1.524 . S
C401 C402 1.397 . S
C401 C406 1.363 . S
C402 H379 0.950 . S
C402 C401 1.397 . S
C402 C403 1.334 . S
C403 H380 0.950 . S
C403 C402 1.334 . S
C403 C404 1.287 . S
C404 C403 1.287 . S
C404 C405 1.524 . S
C404 H423 0.913 . S
C405 H381 0.950 . S
C405 C404 1.524 . S
C405 C406 1.415 . S
C406 H382 0.950 . S
C406 C401 1.363 . S
C406 C405 1.415 . S
C407 H383 0.951 . S
C407 C408 1.366 . S
C407 C409 1.388 . S
C408 C407 1.366 . S
C408 C412 1.385 . S
C409 H384 0.951 . S
C409 C407 1.388 . S
C409 C410 1.366 . S
C410 C409 1.366 . S
C410 C411 1.414 . S
C410 C413 1.499 . S
C411 H385 0.950 . S
C411 C410 1.414 . S
C411 C412 1.374 . S
C412 H386 0.950 . S
C412 C408 1.385 . S
C412 C411 1.374 . S
C413 C410 1.499 . S
C413 C414 1.373 1_545 S
C413 C415 1.389 . S
C414 H387 0.950 . S
C414 C400 1.377 . S
C414 C413 1.373 1_565 S
C415 C399 1.377 . S
C415 C413 1.389 . S
C415 C416 1.524 . S
C416 C415 1.524 . S
C416 C417 1.397 . S
C416 C421 1.363 . S
C417 H388 0.950 . S
C417 C416 1.397 . S
C417 C418 1.334 . S
C418 H389 0.950 . S
C418 C417 1.334 . S
C418 C419 1.287 . S
C419 C418 1.287 . S
C419 C420 1.524 . S
C419 H422 0.999 . S
C420 H390 0.950 . S
C420 C419 1.524 . S
C420 C421 1.415 . S
C421 H391 0.950 . S
C421 C416 1.363 . S
C421 C420 1.415 . S
H422 C419 0.999 . S
H423 C404 0.913 . S
H424 C442 0.951 . S
H425 C444 0.951 . S
H426 C446 0.950 . S
H427 C447 0.950 . S
H428 C449 0.950 . S
H429 C452 0.950 . S
H430 C453 0.950 . S
H431 C455 0.950 . S
H432 C456 0.950 . S
H433 C457 0.951 . S
H434 C459 0.951 . S
H435 C461 0.950 . S
H436 C462 0.950 . S
H437 C464 0.950 . S
H438 C467 0.950 . S
H439 C468 0.950 . S
H440 C470 0.950 . S
H441 C471 0.950 . S
C442 H424 0.951 . S
C442 C443 1.366 . S
C442 C444 1.388 . S
C443 C442 1.366 . S
C443 C447 1.385 . S
C444 H425 0.951 . S
C444 C442 1.388 . S
C444 C445 1.366 . S
C445 C444 1.366 . S
C445 C446 1.414 . S
C445 C448 1.499 . S
C446 H426 0.950 . S
C446 C445 1.414 . S
C446 C447 1.374 . S
C447 H427 0.950 . S
C447 C443 1.385 . S
C447 C446 1.374 . S
C448 C445 1.499 . S
C448 C449 1.373 . S
C448 C450 1.389 . S
C449 H428 0.950 . S
C449 C448 1.373 . S
C449 C465 1.377 . S
C450 C448 1.389 . S
C450 C451 1.524 . S
C450 C464 1.377 . S
C451 C450 1.524 . S
C451 C452 1.397 . S
C451 C456 1.363 . S
C452 H429 0.950 . S
C452 C451 1.397 . S
C452 C453 1.334 . S
C453 H430 0.950 . S
C453 C452 1.334 . S
C453 C454 1.287 . S
C454 C453 1.287 . S
C454 C455 1.524 . S
C454 H473 0.913 . S
C455 H431 0.950 . S
C455 C454 1.524 . S
C455 C456 1.415 . S
C456 H432 0.950 . S
C456 C451 1.363 . S
C456 C455 1.415 . S
C457 H433 0.951 . S
C457 C458 1.366 . S
C457 C459 1.388 . S
C458 C457 1.366 . S
C458 C462 1.385 . S
C459 H434 0.951 . S
C459 C457 1.388 . S
C459 C460 1.366 . S
C460 C459 1.366 . S
C460 C461 1.414 . S
C460 C463 1.499 . S
C461 H435 0.950 . S
C461 C460 1.414 . S
C461 C462 1.374 . S
C462 H436 0.950 . S
C462 C458 1.385 . S
C462 C461 1.374 . S
C463 C460 1.499 . S
C463 C464 1.373 . S
C463 C465 1.389 . S
C464 H437 0.950 . S
C464 C450 1.377 . S
C464 C463 1.373 . S
C465 C449 1.377 . S
C465 C463 1.389 . S
C465 C466 1.524 . S
C466 C465 1.524 . S
C466 C467 1.397 . S
C466 C471 1.363 . S
C467 H438 0.950 . S
C467 C466 1.397 . S
C467 C468 1.334 . S
C468 H439 0.950 . S
C468 C467 1.334 . S
C468 C469 1.287 . S
C469 C468 1.287 . S
C469 C470 1.524 . S
C469 H472 0.999 . S
C470 H440 0.950 . S
C470 C469 1.524 . S
C470 C471 1.415 . S
C471 H441 0.950 . S
C471 C466 1.363 . S
C471 C470 1.415 . S
H472 C469 0.999 . S
H473 C454 0.913 . S
H474 C492 0.951 . S
H475 C494 0.951 . S
H476 C496 0.950 . S
H477 C497 0.950 . S
H478 C499 0.950 . S
H479 C502 0.950 . S
H480 C503 0.950 . S
H481 C505 0.950 . S
H482 C506 0.950 . S
H483 C507 0.951 . S
H484 C509 0.951 . S
H485 C511 0.950 . S
H486 C512 0.950 . S
H487 C514 0.950 . S
H488 C517 0.950 . S
H489 C518 0.950 . S
H490 C520 0.950 . S
H491 C521 0.950 . S
C492 H474 0.951 . S
C492 C493 1.366 . S
C492 C494 1.388 . S
C493 C492 1.366 . S
C493 C497 1.385 . S
C494 H475 0.951 . S
C494 C492 1.388 . S
C494 C495 1.366 . S
C495 C494 1.366 . S
C495 C496 1.414 . S
C495 C498 1.499 . S
C496 H476 0.950 . S
C496 C495 1.414 . S
C496 C497 1.374 . S
C497 H477 0.950 . S
C497 C493 1.385 . S
C497 C496 1.374 . S
C498 C495 1.499 . S
C498 C499 1.373 . S
C498 C500 1.389 . S
C499 H478 0.950 . S
C499 C498 1.373 . S
C499 C515 1.377 . S
C500 C498 1.389 . S
C500 C501 1.524 . S
C500 C514 1.377 . S
C501 C500 1.524 . S
C501 C502 1.397 . S
C501 C506 1.363 . S
C502 H479 0.950 . S
C502 C501 1.397 . S
C502 C503 1.334 . S
C503 H480 0.950 . S
C503 C502 1.334 . S
C503 C504 1.287 . S
C504 C503 1.287 . S
C504 C505 1.524 . S
C504 H523 0.913 . S
C505 H481 0.950 . S
C505 C504 1.524 . S
C505 C506 1.415 . S
C506 H482 0.950 . S
C506 C501 1.363 . S
C506 C505 1.415 . S
C507 H483 0.951 . S
C507 C508 1.366 . S
C507 C509 1.388 . S
C508 C507 1.366 . S
C508 C512 1.385 . S
C509 H484 0.951 . S
C509 C507 1.388 . S
C509 C510 1.366 . S
C510 C509 1.366 . S
C510 C511 1.414 . S
C510 C513 1.499 . S
C511 H485 0.950 . S
C511 C510 1.414 . S
C511 C512 1.374 . S
C512 H486 0.950 . S
C512 C508 1.385 . S
C512 C511 1.374 . S
C513 C510 1.499 . S
C513 C514 1.373 . S
C513 C515 1.389 . S
C514 H487 0.950 . S
C514 C500 1.377 . S
C514 C513 1.373 . S
C515 C499 1.377 . S
C515 C513 1.389 . S
C515 C516 1.524 . S
C516 C515 1.524 . S
C516 C517 1.397 . S
C516 C521 1.363 . S
C517 H488 0.950 . S
C517 C516 1.397 . S
C517 C518 1.334 . S
C518 H489 0.950 . S
C518 C517 1.334 . S
C518 C519 1.287 . S
C519 C518 1.287 . S
C519 C520 1.524 . S
C519 H522 0.999 . S
C520 H490 0.950 . S
C520 C519 1.524 . S
C520 C521 1.415 . S
C521 H491 0.950 . S
C521 C516 1.363 . S
C521 C520 1.415 . S
H522 C519 0.999 . S
H523 C504 0.913 . S
H524 C542 0.951 . S
H525 C544 0.951 . S
H526 C546 0.950 . S
H527 C547 0.950 . S
H528 C549 0.950 . S
H529 C552 0.950 . S
H530 C553 0.950 . S
H531 C555 0.950 . S
H532 C556 0.950 . S
H533 C557 0.951 . S
H534 C559 0.951 . S
H535 C561 0.950 . S
H536 C562 0.950 . S
H537 C564 0.950 . S
H538 C567 0.950 . S
H539 C568 0.950 . S
H540 C570 0.950 . S
H541 C571 0.950 . S
C542 H524 0.951 . S
C542 C543 1.366 . S
C542 C544 1.388 . S
C543 C542 1.366 . S
C543 C547 1.385 . S
C544 H525 0.951 . S
C544 C542 1.388 . S
C544 C545 1.366 . S
C545 C544 1.366 . S
C545 C546 1.414 . S
C545 C548 1.499 . S
C546 H526 0.950 . S
C546 C545 1.414 . S
C546 C547 1.374 . S
C547 H527 0.950 . S
C547 C543 1.385 . S
C547 C546 1.374 . S
C548 C545 1.499 . S
C548 C549 1.373 . S
C548 C550 1.389 . S
C549 H528 0.950 . S
C549 C548 1.373 . S
C549 C565 1.377 . S
C550 C548 1.389 . S
C550 C551 1.524 . S
C550 C564 1.377 . S
C551 C550 1.524 . S
C551 C552 1.397 . S
C551 C556 1.363 . S
C552 H529 0.950 . S
C552 C551 1.397 . S
C552 C553 1.334 . S
C553 H530 0.950 . S
C553 C552 1.334 . S
C553 C554 1.287 . S
C554 C553 1.287 . S
C554 C555 1.524 . S
C554 H573 0.913 . S
C555 H531 0.950 . S
C555 C554 1.524 . S
C555 C556 1.415 . S
C556 H532 0.950 . S
C556 C551 1.363 . S
C556 C555 1.415 . S
C557 H533 0.951 . S
C557 C558 1.366 . S
C557 C559 1.388 . S
C558 C557 1.366 . S
C558 C562 1.385 . S
C559 H534 0.951 . S
C559 C557 1.388 . S
C559 C560 1.366 . S
C560 C559 1.366 . S
C560 C561 1.414 . S
C560 C563 1.499 . S
C561 H535 0.950 . S
C561 C560 1.414 . S
C561 C562 1.374 . S
C562 H536 0.950 . S
C562 C558 1.385 . S
C562 C561 1.374 . S
C563 C560 1.499 . S
C563 C564 1.373 . S
C563 C565 1.389 . S
C564 H537 0.950 . S
C564 C550 1.377 . S
C564 C563 1.373 . S
C565 C549 1.377 . S
C565 C563 1.389 . S
C565 C566 1.524 . S
C566 C565 1.524 . S
C566 C567 1.397 . S
C566 C571 1.363 . S
C567 H538 0.950 . S
C567 C566 1.397 . S
C567 C568 1.334 . S
C568 H539 0.950 . S
C568 C567 1.334 . S
C568 C569 1.287 . S
C569 C568 1.287 . S
C569 C570 1.524 . S
C569 H572 0.999 . S
C570 H540 0.950 . S
C570 C569 1.524 . S
C570 C571 1.415 . S
C571 H541 0.950 . S
C571 C566 1.363 . S
C571 C570 1.415 . S
H572 C569 0.999 . S
H573 C554 0.913 . S
H574 C592 0.951 . S
H575 C594 0.951 . S
H576 C596 0.950 . S
H577 C597 0.950 . S
H578 C599 0.950 . S
H579 C602 0.950 . S
H580 C603 0.950 . S
H581 C605 0.950 . S
H582 C606 0.950 . S
H583 C607 0.951 . S
H584 C609 0.951 . S
H585 C611 0.950 . S
H586 C612 0.950 . S
H587 C614 0.950 . S
H588 C617 0.950 . S
H589 C618 0.950 . S
H590 C620 0.950 . S
H591 C621 0.950 . S
C592 H574 0.951 . S
C592 C593 1.366 . S
C592 C594 1.388 . S
C593 C592 1.366 . S
C593 C597 1.385 . S
C594 H575 0.951 . S
C594 C592 1.388 . S
C594 C595 1.366 . S
C595 C594 1.366 . S
C595 C596 1.414 . S
C595 C598 1.499 . S
C596 H576 0.950 . S
C596 C595 1.414 . S
C596 C597 1.374 . S
C597 H577 0.950 . S
C597 C593 1.385 . S
C597 C596 1.374 . S
C598 C595 1.499 . S
C598 C599 1.373 . S
C598 C600 1.389 . S
C599 H578 0.950 . S
C599 C598 1.373 . S
C599 C615 1.377 . S
C600 C598 1.389 . S
C600 C601 1.524 . S
C600 C614 1.377 . S
C601 C600 1.524 . S
C601 C602 1.397 . S
C601 C606 1.363 . S
C602 H579 0.950 . S
C602 C601 1.397 . S
C602 C603 1.334 . S
C603 H580 0.950 . S
C603 C602 1.334 . S
C603 C604 1.287 . S
C604 C603 1.287 . S
C604 C605 1.524 . S
C604 H623 0.913 . S
C605 H581 0.950 . S
C605 C604 1.524 . S
C605 C606 1.415 . S
C606 H582 0.950 . S
C606 C601 1.363 . S
C606 C605 1.415 . S
C607 H583 0.951 . S
C607 C608 1.366 . S
C607 C609 1.388 . S
C608 C607 1.366 . S
C608 C612 1.385 . S
C609 H584 0.951 . S
C609 C607 1.388 . S
C609 C610 1.366 . S
C610 C609 1.366 . S
C610 C611 1.414 . S
C610 C613 1.499 . S
C611 H585 0.950 . S
C611 C610 1.414 . S
C611 C612 1.374 . S
C612 H586 0.950 . S
C612 C608 1.385 . S
C612 C611 1.374 . S
C613 C610 1.499 . S
C613 C614 1.373 . S
C613 C615 1.389 . S
C614 H587 0.950 . S
C614 C600 1.377 . S
C614 C613 1.373 . S
C615 C599 1.377 . S
C615 C613 1.389 . S
C615 C616 1.524 . S
C616 C615 1.524 . S
C616 C617 1.397 . S
C616 C621 1.363 . S
C617 H588 0.950 . S
C617 C616 1.397 . S
C617 C618 1.334 . S
C618 H589 0.950 . S
C618 C617 1.334 . S
C618 C619 1.287 . S
C619 C618 1.287 . S
C619 C620 1.524 . S
C619 H622 0.999 . S
C620 H590 0.950 . S
C620 C619 1.524 . S
C620 C621 1.415 . S
C621 H591 0.950 . S
C621 C616 1.363 . S
C621 C620 1.415 . S
H622 C619 0.999 . S
H623 C604 0.913 . S
H624 C642 0.953 1_455 S
H625 C644 0.951 1_455 S
H626 C646 0.950 . S
H627 C647 0.950 . S
H628 C649 0.950 . S
H629 C652 0.950 . S
H630 C653 0.950 . S
H631 C655 0.950 . S
H632 C656 0.950 . S
H633 C657 0.953 1_655 S
H634 C659 0.951 1_655 S
H635 C661 0.950 . S
H636 C662 0.950 . S
H637 C664 0.950 . S
H638 C667 0.950 1_545 S
H639 C668 0.950 . S
H640 C670 0.950 . S
H641 C671 0.950 1_545 S
C642 H624 0.953 1_655 S
C642 C643 1.366 . S
C642 C644 1.388 . S
C643 C642 1.366 . S
C643 C647 1.385 . S
C644 H625 0.951 1_655 S
C644 C642 1.388 . S
C644 C645 1.366 . S
C645 C644 1.366 . S
C645 C646 1.414 . S
C645 C648 1.499 . S
C646 H626 0.950 . S
C646 C645 1.414 . S
C646 C647 1.374 . S
C647 H627 0.950 . S
C647 C643 1.385 . S
C647 C646 1.374 . S
C648 C645 1.499 . S
C648 C649 1.373 . S
C648 C650 1.389 1_655 S
C649 H628 0.950 . S
C649 C648 1.373 . S
C649 C665 1.377 . S
C650 C648 1.389 1_455 S
C650 C651 1.524 . S
C650 C664 1.377 . S
C651 C650 1.524 . S
C651 C652 1.397 1_455 S
C651 C656 1.363 . S
C652 H629 0.950 . S
C652 C651 1.397 1_655 S
C652 C653 1.334 . S
C653 H630 0.950 . S
C653 C652 1.334 . S
C653 C654 1.287 . S
C654 C653 1.287 . S
C654 C655 1.524 1_655 S
C654 H673 0.913 . S
C655 H631 0.950 . S
C655 C654 1.524 1_455 S
C655 C656 1.415 . S
C656 H632 0.950 . S
C656 C651 1.363 . S
C656 C655 1.415 . S
C657 H633 0.953 1_455 S
C657 C658 1.366 . S
C657 C659 1.388 . S
C658 C657 1.366 . S
C658 C662 1.385 . S
C659 H634 0.951 1_455 S
C659 C657 1.388 . S
C659 C660 1.366 . S
C660 C659 1.366 . S
C660 C661 1.414 . S
C660 C663 1.499 . S
C661 H635 0.950 . S
C661 C660 1.414 . S
C661 C662 1.374 . S
C662 H636 0.950 . S
C662 C658 1.385 . S
C662 C661 1.374 . S
C663 C660 1.499 . S
C663 C664 1.373 . S
C663 C665 1.389 1_455 S
C664 H637 0.950 . S
C664 C650 1.377 . S
C664 C663 1.373 . S
C665 C649 1.377 . S
C665 C663 1.389 1_655 S
C665 C666 1.524 . S
C666 C665 1.524 . S
C666 C667 1.397 1_645 S
C666 C671 1.363 1_545 S
C667 H638 0.950 1_565 S
C667 C666 1.397 1_465 S
C667 C668 1.334 . S
C668 H639 0.950 . S
C668 C667 1.334 . S
C668 C669 1.287 . S
C669 C668 1.287 . S
C669 C670 1.524 1_455 S
C669 H672 0.999 . S
C670 H640 0.950 . S
C670 C669 1.524 1_655 S
C670 C671 1.415 . S
C671 H641 0.950 1_565 S
C671 C666 1.363 1_565 S
C671 C670 1.415 . S
H672 C669 0.999 . S
H673 C654 0.913 . S
H674 C692 0.951 . S
H675 C694 0.951 . S
H676 C696 0.950 . S
H677 C697 0.950 . S
H678 C699 0.950 . S
H679 C702 0.950 . S
H680 C703 0.950 . S
H681 C705 0.950 . S
H682 C706 0.950 . S
H683 C707 0.951 . S
H684 C709 0.951 . S
H685 C711 0.950 . S
H686 C712 0.950 . S
H687 C714 0.950 . S
H688 C717 0.950 . S
H689 C718 0.950 . S
H690 C720 0.950 . S
H691 C721 0.950 . S
C692 H674 0.951 . S
C692 C693 1.366 . S
C692 C694 1.388 . S
C693 C692 1.366 . S
C693 C697 1.385 . S
C694 H675 0.951 . S
C694 C692 1.388 . S
C694 C695 1.366 . S
C695 C694 1.366 . S
C695 C696 1.414 . S
C695 C698 1.499 . S
C696 H676 0.950 . S
C696 C695 1.414 . S
C696 C697 1.374 . S
C697 H677 0.950 . S
C697 C693 1.385 . S
C697 C696 1.374 . S
C698 C695 1.499 . S
C698 C699 1.373 . S
C698 C700 1.389 . S
C699 H678 0.950 . S
C699 C698 1.373 . S
C699 C715 1.377 . S
C700 C698 1.389 . S
C700 C701 1.524 . S
C700 C714 1.377 . S
C701 C700 1.524 . S
C701 C702 1.397 . S
C701 C706 1.363 . S
C702 H679 0.950 . S
C702 C701 1.397 . S
C702 C703 1.334 . S
C703 H680 0.950 . S
C703 C702 1.334 . S
C703 C704 1.287 . S
C704 C703 1.287 . S
C704 C705 1.524 . S
C704 H723 0.913 . S
C705 H681 0.950 . S
C705 C704 1.524 . S
C705 C706 1.415 . S
C706 H682 0.950 . S
C706 C701 1.363 . S
C706 C705 1.415 . S
C707 H683 0.951 . S
C707 C708 1.366 . S
C707 C709 1.388 . S
C708 C707 1.366 . S
C708 C712 1.385 . S
C709 H684 0.951 . S
C709 C707 1.388 . S
C709 C710 1.366 . S
C710 C709 1.366 . S
C710 C711 1.414 . S
C710 C713 1.499 . S
C711 H685 0.950 . S
C711 C710 1.414 . S
C711 C712 1.374 . S
C712 H686 0.950 . S
C712 C708 1.385 . S
C712 C711 1.374 . S
C713 C710 1.499 . S
C713 C714 1.373 . S
C713 C715 1.389 . S
C714 H687 0.950 . S
C714 C700 1.377 . S
C714 C713 1.373 . S
C715 C699 1.377 . S
C715 C713 1.389 . S
C715 C716 1.524 . S
C716 C715 1.524 . S
C716 C717 1.397 . S
C716 C721 1.363 1_565 S
C717 H688 0.950 . S
C717 C716 1.397 . S
C717 C718 1.334 1_565 S
C718 H689 0.950 . S
C718 C717 1.334 1_545 S
C718 C719 1.287 . S
C719 C718 1.287 . S
C719 C720 1.524 . S
C719 H722 0.999 . S
C720 H690 0.950 . S
C720 C719 1.524 . S
C720 C721 1.415 . S
C721 H691 0.950 . S
C721 C716 1.363 1_545 S
C721 C720 1.415 . S
H722 C719 0.999 . S
H723 C704 0.913 . S
H724 C742 0.951 . S
H725 C744 0.951 . S
H726 C746 0.950 . S
H727 C747 0.950 . S
H728 C749 0.950 . S
H729 C752 0.950 . S
H730 C753 0.950 . S
H731 C755 0.950 . S
H732 C756 0.950 . S
H733 C757 0.951 . S
H734 C759 0.951 . S
H735 C761 0.950 . S
H736 C762 0.950 . S
H737 C764 0.950 . S
H738 C767 0.950 . S
H739 C768 0.950 . S
H740 C770 0.950 . S
H741 C771 0.950 1_545 S
C742 H724 0.951 . S
C742 C743 1.366 . S
C742 C744 1.388 . S
C743 C742 1.366 . S
C743 C747 1.385 . S
C744 H725 0.951 . S
C744 C742 1.388 . S
C744 C745 1.366 . S
C745 C744 1.366 . S
C745 C746 1.414 . S
C745 C748 1.499 . S
C746 H726 0.950 . S
C746 C745 1.414 . S
C746 C747 1.374 . S
C747 H727 0.950 . S
C747 C743 1.385 . S
C747 C746 1.374 . S
C748 C745 1.499 . S
C748 C749 1.373 . S
C748 C750 1.389 1_455 S
C749 H728 0.950 . S
C749 C748 1.373 . S
C749 C765 1.377 . S
C750 C748 1.389 1_655 S
C750 C751 1.524 . S
C750 C764 1.377 . S
C751 C750 1.524 . S
C751 C752 1.397 . S
C751 C756 1.363 . S
C752 H729 0.950 . S
C752 C751 1.397 . S
C752 C753 1.334 . S
C753 H730 0.950 . S
C753 C752 1.334 . S
C753 C754 1.287 . S
C754 C753 1.287 . S
C754 C755 1.524 . S
C754 H773 0.913 . S
C755 H731 0.950 . S
C755 C754 1.524 . S
C755 C756 1.415 . S
C756 H732 0.950 . S
C756 C751 1.363 . S
C756 C755 1.415 . S
C757 H733 0.951 . S
C757 C758 1.366 . S
C757 C759 1.388 . S
C758 C757 1.366 . S
C758 C762 1.385 . S
C759 H734 0.951 . S
C759 C757 1.388 . S
C759 C760 1.366 . S
C760 C759 1.366 . S
C760 C761 1.414 . S
C760 C763 1.499 . S
C761 H735 0.950 . S
C761 C760 1.414 . S
C761 C762 1.374 . S
C762 H736 0.950 . S
C762 C758 1.385 . S
C762 C761 1.374 . S
C763 C760 1.499 . S
C763 C764 1.373 . S
C763 C765 1.389 1_655 S
C764 H737 0.950 . S
C764 C750 1.377 . S
C764 C763 1.373 . S
C765 C749 1.377 . S
C765 C763 1.389 1_455 S
C765 C766 1.524 . S
C766 C765 1.524 . S
C766 C767 1.397 . S
C766 C771 1.363 . S
C767 H738 0.950 . S
C767 C766 1.397 . S
C767 C768 1.334 . S
C768 H739 0.950 . S
C768 C767 1.334 . S
C768 C769 1.287 . S
C769 C768 1.287 . S
C769 C770 1.524 1_565 S
C769 H772 0.999 . S
C770 H740 0.950 . S
C770 C769 1.524 1_545 S
C770 C771 1.415 1_545 S
C771 H741 0.950 1_565 S
C771 C766 1.363 . S
C771 C770 1.415 1_565 S
H772 C769 0.999 . S
H773 C754 0.913 . S
H774 C792 0.951 . S
H775 C794 0.951 . S
H776 C796 0.950 . S
H777 C797 0.950 . S
H778 C799 0.950 . S
H779 C802 0.950 . S
H780 C803 0.950 . S
H781 C805 0.950 . S
H782 C806 0.950 . S
H783 C807 0.951 . S
H784 C809 0.951 . S
H785 C811 0.950 . S
H786 C812 0.950 . S
H787 C814 0.950 . S
H788 C817 0.950 1_545 S
H789 C818 0.950 . S
H790 C820 0.950 . S
H791 C821 0.950 . S
C792 H774 0.951 . S
C792 C793 1.366 . S
C792 C794 1.388 . S
C793 C792 1.366 . S
C793 C797 1.385 . S
C794 H775 0.951 . S
C794 C792 1.388 . S
C794 C795 1.366 . S
C795 C794 1.366 . S
C795 C796 1.414 . S
C795 C798 1.499 . S
C796 H776 0.950 . S
C796 C795 1.414 . S
C796 C797 1.374 . S
C797 H777 0.950 . S
C797 C793 1.385 . S
C797 C796 1.374 . S
C798 C795 1.499 . S
C798 C799 1.373 . S
C798 C800 1.389 . S
C799 H778 0.950 . S
C799 C798 1.373 . S
C799 C815 1.377 . S
C800 C798 1.389 . S
C800 C801 1.524 . S
C800 C814 1.377 . S
C801 C800 1.524 . S
C801 C802 1.397 . S
C801 C806 1.363 . S
C802 H779 0.950 . S
C802 C801 1.397 . S
C802 C803 1.334 . S
C803 H780 0.950 . S
C803 C802 1.334 . S
C803 C804 1.287 . S
C804 C803 1.287 . S
C804 C805 1.524 . S
C804 H823 0.913 . S
C805 H781 0.950 . S
C805 C804 1.524 . S
C805 C806 1.415 . S
C806 H782 0.950 . S
C806 C801 1.363 . S
C806 C805 1.415 . S
C807 H783 0.951 . S
C807 C808 1.366 . S
C807 C809 1.388 . S
C808 C807 1.366 . S
C808 C812 1.385 . S
C809 H784 0.951 . S
C809 C807 1.388 . S
C809 C810 1.366 . S
C810 C809 1.366 . S
C810 C811 1.414 . S
C810 C813 1.499 . S
C811 H785 0.950 . S
C811 C810 1.414 . S
C811 C812 1.374 . S
C812 H786 0.950 . S
C812 C808 1.385 . S
C812 C811 1.374 . S
C813 C810 1.499 . S
C813 C814 1.373 . S
C813 C815 1.389 . S
C814 H787 0.950 . S
C814 C800 1.377 . S
C814 C813 1.373 . S
C815 C799 1.377 . S
C815 C813 1.389 . S
C815 C816 1.524 . S
C816 C815 1.524 . S
C816 C817 1.397 1_545 S
C816 C821 1.363 . S
C817 H788 0.950 1_565 S
C817 C816 1.397 1_565 S
C817 C818 1.334 . S
C818 H789 0.950 . S
C818 C817 1.334 . S
C818 C819 1.287 . S
C819 C818 1.287 . S
C819 C820 1.524 . S
C819 H822 0.999 . S
C820 H790 0.950 . S
C820 C819 1.524 . S
C820 C821 1.415 1_565 S
C821 H791 0.950 . S
C821 C816 1.363 . S
C821 C820 1.415 1_545 S
H822 C819 0.999 . S
H823 C804 0.913 . S
H824 C842 0.951 . S
H825 C844 0.951 . S
H826 C846 0.950 . S
H827 C847 0.950 . S
H828 C849 0.950 . S
H829 C852 0.950 . S
H830 C853 0.950 . S
H831 C855 0.950 . S
H832 C856 0.950 . S
H833 C857 0.951 . S
H834 C859 0.951 . S
H835 C861 0.950 . S
H836 C862 0.950 . S
H837 C864 0.950 . S
H838 C867 0.950 . S
H839 C868 0.950 . S
H840 C870 0.950 . S
H841 C871 0.950 . S
C842 H824 0.951 . S
C842 C843 1.366 . S
C842 C844 1.388 . S
C843 C842 1.366 . S
C843 C847 1.385 . S
C844 H825 0.951 . S
C844 C842 1.388 . S
C844 C845 1.366 . S
C845 C844 1.366 . S
C845 C846 1.414 . S
C845 C848 1.499 . S
C846 H826 0.950 . S
C846 C845 1.414 . S
C846 C847 1.374 . S
C847 H827 0.950 . S
C847 C843 1.385 . S
C847 C846 1.374 . S
C848 C845 1.499 . S
C848 C849 1.373 . S
C848 C850 1.389 . S
C849 H828 0.950 . S
C849 C848 1.373 . S
C849 C865 1.377 . S
C850 C848 1.389 . S
C850 C851 1.524 . S
C850 C864 1.377 . S
C851 C850 1.524 . S
C851 C852 1.397 . S
C851 C856 1.363 . S
C852 H829 0.950 . S
C852 C851 1.397 . S
C852 C853 1.334 . S
C853 H830 0.950 . S
C853 C852 1.334 . S
C853 C854 1.287 . S
C854 C853 1.287 . S
C854 C855 1.524 . S
C854 H873 0.913 . S
C855 H831 0.950 . S
C855 C854 1.524 . S
C855 C856 1.415 . S
C856 H832 0.950 . S
C856 C851 1.363 . S
C856 C855 1.415 . S
C857 H833 0.951 . S
C857 C858 1.366 . S
C857 C859 1.388 . S
C858 C857 1.366 . S
C858 C862 1.385 . S
C859 H834 0.951 . S
C859 C857 1.388 . S
C859 C860 1.366 . S
C860 C859 1.366 . S
C860 C861 1.414 . S
C860 C863 1.499 . S
C861 H835 0.950 . S
C861 C860 1.414 . S
C861 C862 1.374 . S
C862 H836 0.950 . S
C862 C858 1.385 . S
C862 C861 1.374 . S
C863 C860 1.499 . S
C863 C864 1.373 . S
C863 C865 1.389 . S
C864 H837 0.950 . S
C864 C850 1.377 . S
C864 C863 1.373 . S
C865 C849 1.377 . S
C865 C863 1.389 . S
C865 C866 1.524 . S
C866 C865 1.524 . S
C866 C867 1.397 . S
C866 C871 1.363 . S
C867 H838 0.950 . S
C867 C866 1.397 . S
C867 C868 1.334 . S
C868 H839 0.950 . S
C868 C867 1.334 . S
C868 C869 1.287 . S
C869 C868 1.287 . S
C869 C870 1.524 . S
C869 H872 0.999 . S
C870 H840 0.950 . S
C870 C869 1.524 . S
C870 C871 1.415 . S
C871 H841 0.950 . S
C871 C866 1.363 . S
C871 C870 1.415 . S
H872 C869 0.999 . S
H873 C854 0.913 . S
H874 C892 0.951 . S
H875 C894 0.951 . S
H876 C896 0.950 . S
H877 C897 0.950 . S
H878 C899 0.950 . S
H879 C902 0.950 . S
H880 C903 0.950 . S
H881 C905 0.950 . S
H882 C906 0.950 . S
H883 C907 0.951 . S
H884 C909 0.951 . S
H885 C911 0.950 . S
H886 C912 0.950 . S
H887 C914 0.950 . S
H888 C917 0.950 . S
H889 C918 0.950 . S
H890 C920 0.950 . S
H891 C921 0.950 . S
C892 H874 0.951 . S
C892 C893 1.366 . S
C892 C894 1.388 . S
C893 C892 1.366 . S
C893 C897 1.385 . S
C894 H875 0.951 . S
C894 C892 1.388 . S
C894 C895 1.366 . S
C895 C894 1.366 . S
C895 C896 1.414 . S
C895 C898 1.499 . S
C896 H876 0.950 . S
C896 C895 1.414 . S
C896 C897 1.374 . S
C897 H877 0.950 . S
C897 C893 1.385 . S
C897 C896 1.374 . S
C898 C895 1.499 . S
C898 C899 1.373 1_455 S
C898 C900 1.389 . S
C899 H878 0.950 . S
C899 C898 1.373 1_655 S
C899 C915 1.377 . S
C900 C898 1.389 . S
C900 C901 1.524 . S
C900 C914 1.377 . S
C901 C900 1.524 . S
C901 C902 1.397 . S
C901 C906 1.363 . S
C902 H879 0.950 . S
C902 C901 1.397 . S
C902 C903 1.334 . S
C903 H880 0.950 . S
C903 C902 1.334 . S
C903 C904 1.287 . S
C904 C903 1.287 . S
C904 C905 1.524 . S
C904 H923 0.913 . S
C905 H881 0.950 . S
C905 C904 1.524 . S
C905 C906 1.415 . S
C906 H882 0.950 . S
C906 C901 1.363 . S
C906 C905 1.415 . S
C907 H883 0.951 . S
C907 C908 1.366 . S
C907 C909 1.388 . S
C908 C907 1.366 . S
C908 C912 1.385 . S
C909 H884 0.951 . S
C909 C907 1.388 . S
C909 C910 1.366 . S
C910 C909 1.366 . S
C910 C911 1.414 . S
C910 C913 1.499 . S
C911 H885 0.950 . S
C911 C910 1.414 . S
C911 C912 1.374 . S
C912 H886 0.950 . S
C912 C908 1.385 . S
C912 C911 1.374 . S
C913 C910 1.499 . S
C913 C914 1.373 1_655 S
C913 C915 1.389 . S
C914 H887 0.950 . S
C914 C900 1.377 . S
C914 C913 1.373 1_455 S
C915 C899 1.377 . S
C915 C913 1.389 . S
C915 C916 1.524 . S
C916 C915 1.524 . S
C916 C917 1.397 . S
C916 C921 1.363 . S
C917 H888 0.950 . S
C917 C916 1.397 . S
C917 C918 1.334 . S
C918 H889 0.950 . S
C918 C917 1.334 . S
C918 C919 1.287 . S
C919 C918 1.287 . S
C919 C920 1.524 . S
C919 H922 0.999 . S
C920 H890 0.950 . S
C920 C919 1.524 . S
C920 C921 1.415 . S
C921 H891 0.950 . S
C921 C916 1.363 . S
C921 C920 1.415 . S
H922 C919 0.999 . S
H923 C904 0.913 . S
H924 C942 0.951 . S
H925 C944 0.951 . S
H926 C946 0.950 . S
H927 C947 0.950 . S
H928 C949 0.950 . S
H929 C952 0.950 . S
H930 C953 0.950 . S
H931 C955 0.950 . S
H932 C956 0.950 . S
H933 C957 0.951 . S
H934 C959 0.951 . S
H935 C961 0.950 . S
H936 C962 0.950 . S
H937 C964 0.950 . S
H938 C967 0.950 . S
H939 C968 0.950 . S
H940 C970 0.950 . S
H941 C971 0.950 . S
C942 H924 0.951 . S
C942 C943 1.366 . S
C942 C944 1.388 . S
C943 C942 1.366 . S
C943 C947 1.385 . S
C944 H925 0.951 . S
C944 C942 1.388 . S
C944 C945 1.366 . S
C945 C944 1.366 . S
C945 C946 1.414 . S
C945 C948 1.499 . S
C946 H926 0.950 . S
C946 C945 1.414 . S
C946 C947 1.374 . S
C947 H927 0.950 . S
C947 C943 1.385 . S
C947 C946 1.374 . S
C948 C945 1.499 . S
C948 C949 1.373 . S
C948 C950 1.389 . S
C949 H928 0.950 . S
C949 C948 1.373 . S
C949 C965 1.377 . S
C950 C948 1.389 . S
C950 C951 1.524 . S
C950 C964 1.377 . S
C951 C950 1.524 . S
C951 C952 1.397 . S
C951 C956 1.363 . S
C952 H929 0.950 . S
C952 C951 1.397 . S
C952 C953 1.334 . S
C953 H930 0.950 . S
C953 C952 1.334 . S
C953 C954 1.287 . S
C954 C953 1.287 . S
C954 C955 1.524 . S
C954 H973 0.913 . S
C955 H931 0.950 . S
C955 C954 1.524 . S
C955 C956 1.415 . S
C956 H932 0.950 . S
C956 C951 1.363 . S
C956 C955 1.415 . S
C957 H933 0.951 . S
C957 C958 1.366 . S
C957 C959 1.388 . S
C958 C957 1.366 . S
C958 C962 1.385 . S
C959 H934 0.951 . S
C959 C957 1.388 . S
C959 C960 1.366 . S
C960 C959 1.366 . S
C960 C961 1.414 . S
C960 C963 1.499 . S
C961 H935 0.950 . S
C961 C960 1.414 . S
C961 C962 1.374 . S
C962 H936 0.950 . S
C962 C958 1.385 . S
C962 C961 1.374 . S
C963 C960 1.499 . S
C963 C964 1.373 . S
C963 C965 1.389 . S
C964 H937 0.950 . S
C964 C950 1.377 . S
C964 C963 1.373 . S
C965 C949 1.377 . S
C965 C963 1.389 . S
C965 C966 1.524 . S
C966 C965 1.524 . S
C966 C967 1.397 . S
C966 C971 1.363 . S
C967 H938 0.950 . S
C967 C966 1.397 . S
C967 C968 1.334 . S
C968 H939 0.950 . S
C968 C967 1.334 . S
C968 C969 1.287 . S
C969 C968 1.287 . S
C969 C970 1.524 . S
C969 H972 0.999 . S
C970 H940 0.950 . S
C970 C969 1.524 . S
C970 C971 1.415 . S
C971 H941 0.950 . S
C971 C966 1.363 . S
C971 C970 1.415 . S
H972 C969 0.999 . S
H973 C954 0.913 . S
H974 C992 0.951 . S
H975 C994 0.951 . S
H976 C996 0.950 . S
H977 C997 0.950 . S
H978 C999 0.950 . S
H979 C1002 0.950 . S
H980 C1003 0.950 . S
H981 C1005 0.950 . S
H982 C1006 0.950 . S
H983 C1007 0.951 . S
H984 C1009 0.951 . S
H985 C1011 0.950 . S
H986 C1012 0.950 . S
H987 C1014 0.950 . S
H988 C1017 0.950 . S
H989 C1018 0.950 . S
H990 C1020 0.950 . S
H991 C1021 0.950 . S
C992 H974 0.951 . S
C992 C993 1.366 . S
C992 C994 1.388 . S
C993 C992 1.366 . S
C993 C997 1.385 . S
C994 H975 0.951 . S
C994 C992 1.388 . S
C994 C995 1.366 . S
C995 C994 1.366 . S
C995 C996 1.414 . S
C995 C998 1.499 . S
C996 H976 0.950 . S
C996 C995 1.414 . S
C996 C997 1.374 . S
C997 H977 0.950 . S
C997 C993 1.385 . S
C997 C996 1.374 . S
C998 C995 1.499 . S
C998 C999 1.373 . S
C998 C1000 1.389 1_455 S
C999 H978 0.950 . S
C999 C998 1.373 . S
C999 C1015 1.377 . S
C1000 C998 1.389 1_655 S
C1000 C1001 1.524 . S
C1000 C1014 1.377 . S
C1001 C1000 1.524 . S
C1001 C1002 1.397 . S
C1001 C1006 1.363 . S
C1002 H979 0.950 . S
C1002 C1001 1.397 . S
C1002 C1003 1.334 . S
C1003 H980 0.950 . S
C1003 C1002 1.334 . S
C1003 C1004 1.287 . S
C1004 C1003 1.287 . S
C1004 C1005 1.524 . S
C1004 H1023 0.913 . S
C1005 H981 0.950 . S
C1005 C1004 1.524 . S
C1005 C1006 1.415 . S
C1006 H982 0.950 . S
C1006 C1001 1.363 . S
C1006 C1005 1.415 . S
C1007 H983 0.951 . S
C1007 C1008 1.366 . S
C1007 C1009 1.388 . S
C1008 C1007 1.366 . S
C1008 C1012 1.385 . S
C1009 H984 0.951 . S
C1009 C1007 1.388 . S
C1009 C1010 1.366 . S
C1010 C1009 1.366 . S
C1010 C1011 1.414 . S
C1010 C1013 1.499 . S
C1011 H985 0.950 . S
C1011 C1010 1.414 . S
C1011 C1012 1.374 . S
C1012 H986 0.950 . S
C1012 C1008 1.385 . S
C1012 C1011 1.374 . S
C1013 C1010 1.499 . S
C1013 C1014 1.373 . S
C1013 C1015 1.389 1_655 S
C1014 H987 0.950 . S
C1014 C1000 1.377 . S
C1014 C1013 1.373 . S
C1015 C999 1.377 . S
C1015 C1013 1.389 1_455 S
C1015 C1016 1.524 . S
C1016 C1015 1.524 . S
C1016 C1017 1.397 . S
C1016 C1021 1.363 . S
C1017 H988 0.950 . S
C1017 C1016 1.397 . S
C1017 C1018 1.334 . S
C1018 H989 0.950 . S
C1018 C1017 1.334 . S
C1018 C1019 1.287 . S
C1019 C1018 1.287 . S
C1019 C1020 1.524 . S
C1019 H1022 0.999 . S
C1020 H990 0.950 . S
C1020 C1019 1.524 . S
C1020 C1021 1.415 . S
C1021 H991 0.950 . S
C1021 C1016 1.363 . S
C1021 C1020 1.415 . S
H1022 C1019 0.999 . S
H1023 C1004 0.913 . S
H1024 C1042 0.951 . S
H1025 C1044 0.951 . S
H1026 C1046 0.955 . S
H1027 C1047 0.950 1_655 S
H1028 C1049 0.950 . S
H1029 C1052 0.950 . S
H1030 C1053 0.950 . S
H1031 C1055 0.950 . S
H1032 C1056 0.950 . S
H1033 C1057 0.951 . S
H1034 C1059 0.951 . S
H1035 C1061 0.955 . S
H1036 C1062 0.950 1_455 S
H1037 C1064 0.950 . S
H1038 C1067 0.950 . S
H1039 C1068 0.950 . S
H1040 C1070 0.950 . S
H1041 C1071 0.950 . S
C1042 H1024 0.951 . S
C1042 C1043 1.366 . S
C1042 C1044 1.388 . S
C1043 C1042 1.366 . S
C1043 C1047 1.385 . S
C1044 H1025 0.951 . S
C1044 C1042 1.388 . S
C1044 C1045 1.366 . S
C1045 C1044 1.366 . S
C1045 C1046 1.411 1_455 S
C1045 C1048 1.499 . S
C1046 H1026 0.955 . S
C1046 C1045 1.411 1_655 S
C1046 C1047 1.372 1_655 S
C1047 H1027 0.950 1_455 S
C1047 C1043 1.385 . S
C1047 C1046 1.372 1_455 S
C1048 C1045 1.499 . S
C1048 C1049 1.373 1_455 S
C1048 C1050 1.389 . S
C1049 H1028 0.950 . S
C1049 C1048 1.373 1_655 S
C1049 C1065 1.377 . S
C1050 C1048 1.389 . S
C1050 C1051 1.524 . S
C1050 C1064 1.377 . S
C1051 C1050 1.524 . S
C1051 C1052 1.397 . S
C1051 C1056 1.363 . S
C1052 H1029 0.950 . S
C1052 C1051 1.397 . S
C1052 C1053 1.334 . S
C1053 H1030 0.950 . S
C1053 C1052 1.334 . S
C1053 C1054 1.287 . S
C1054 C1053 1.287 . S
C1054 C1055 1.524 . S
C1054 H1073 0.913 . S
C1055 H1031 0.950 . S
C1055 C1054 1.524 . S
C1055 C1056 1.415 . S
C1056 H1032 0.950 . S
C1056 C1051 1.363 . S
C1056 C1055 1.415 . S
C1057 H1033 0.951 . S
C1057 C1058 1.366 . S
C1057 C1059 1.388 . S
C1058 C1057 1.366 . S
C1058 C1062 1.385 . S
C1059 H1034 0.951 . S
C1059 C1057 1.388 . S
C1059 C1060 1.366 . S
C1060 C1059 1.366 . S
C1060 C1061 1.411 1_655 S
C1060 C1063 1.499 . S
C1061 H1035 0.955 . S
C1061 C1060 1.411 1_455 S
C1061 C1062 1.372 1_455 S
C1062 H1036 0.950 1_655 S
C1062 C1058 1.385 . S
C1062 C1061 1.372 1_655 S
C1063 C1060 1.499 . S
C1063 C1064 1.373 1_655 S
C1063 C1065 1.389 . S
C1064 H1037 0.950 . S
C1064 C1050 1.377 . S
C1064 C1063 1.373 1_455 S
C1065 C1049 1.377 . S
C1065 C1063 1.389 . S
C1065 C1066 1.524 . S
C1066 C1065 1.524 . S
C1066 C1067 1.397 . S
C1066 C1071 1.363 . S
C1067 H1038 0.950 . S
C1067 C1066 1.397 . S
C1067 C1068 1.334 . S
C1068 H1039 0.950 . S
C1068 C1067 1.334 . S
C1068 C1069 1.287 . S
C1069 C1068 1.287 . S
C1069 C1070 1.524 . S
C1069 H1072 0.999 . S
C1070 H1040 0.950 . S
C1070 C1069 1.524 . S
C1070 C1071 1.415 . S
C1071 H1041 0.950 . S
C1071 C1066 1.363 . S
C1071 C1070 1.415 . S
H1072 C1069 0.999 . S
H1073 C1054 0.913 . S
H1074 C1092 0.951 . S
H1075 C1094 0.951 . S
H1076 C1096 0.950 . S
H1077 C1097 0.950 . S
H1078 C1099 0.950 . S
H1079 C1102 0.950 . S
H1080 C1103 0.950 . S
H1081 C1105 0.950 . S
H1082 C1106 0.950 . S
H1083 C1107 0.951 . S
H1084 C1109 0.951 . S
H1085 C1111 0.950 . S
H1086 C1112 0.950 . S
H1087 C1114 0.950 . S
H1088 C1117 0.950 . S
H1089 C1118 0.950 . S
H1090 C1120 0.950 . S
H1091 C1121 0.950 . S
C1092 H1074 0.951 . S
C1092 C1093 1.366 . S
C1092 C1094 1.388 . S
C1093 C1092 1.366 . S
C1093 C1097 1.385 . S
C1094 H1075 0.951 . S
C1094 C1092 1.388 . S
C1094 C1095 1.366 . S
C1095 C1094 1.366 . S
C1095 C1096 1.414 . S
C1095 C1098 1.499 . S
C1096 H1076 0.950 . S
C1096 C1095 1.414 . S
C1096 C1097 1.374 . S
C1097 H1077 0.950 . S
C1097 C1093 1.385 . S
C1097 C1096 1.374 . S
C1098 C1095 1.499 . S
C1098 C1099 1.373 . S
C1098 C1100 1.389 . S
C1099 H1078 0.950 . S
C1099 C1098 1.373 . S
C1099 C1115 1.377 . S
C1100 C1098 1.389 . S
C1100 C1101 1.524 . S
C1100 C1114 1.377 . S
C1101 C1100 1.524 . S
C1101 C1102 1.397 . S
C1101 C1106 1.363 . S
C1102 H1079 0.950 . S
C1102 C1101 1.397 . S
C1102 C1103 1.334 . S
C1103 H1080 0.950 . S
C1103 C1102 1.334 . S
C1103 C1104 1.287 . S
C1104 C1103 1.287 . S
C1104 C1105 1.524 . S
C1104 H1123 0.913 . S
C1105 H1081 0.950 . S
C1105 C1104 1.524 . S
C1105 C1106 1.415 . S
C1106 H1082 0.950 . S
C1106 C1101 1.363 . S
C1106 C1105 1.415 . S
C1107 H1083 0.951 . S
C1107 C1108 1.366 . S
C1107 C1109 1.388 . S
C1108 C1107 1.366 . S
C1108 C1112 1.385 . S
C1109 H1084 0.951 . S
C1109 C1107 1.388 . S
C1109 C1110 1.366 . S
C1110 C1109 1.366 . S
C1110 C1111 1.414 . S
C1110 C1113 1.499 . S
C1111 H1085 0.950 . S
C1111 C1110 1.414 . S
C1111 C1112 1.374 . S
C1112 H1086 0.950 . S
C1112 C1108 1.385 . S
C1112 C1111 1.374 . S
C1113 C1110 1.499 . S
C1113 C1114 1.373 . S
C1113 C1115 1.389 . S
C1114 H1087 0.950 . S
C1114 C1100 1.377 . S
C1114 C1113 1.373 . S
C1115 C1099 1.377 . S
C1115 C1113 1.389 . S
C1115 C1116 1.524 . S
C1116 C1115 1.524 . S
C1116 C1117 1.397 . S
C1116 C1121 1.363 . S
C1117 H1088 0.950 . S
C1117 C1116 1.397 . S
C1117 C1118 1.334 . S
C1118 H1089 0.950 . S
C1118 C1117 1.334 . S
C1118 C1119 1.287 . S
C1119 C1118 1.287 . S
C1119 C1120 1.524 . S
C1119 H1122 0.999 . S
C1120 H1090 0.950 . S
C1120 C1119 1.524 . S
C1120 C1121 1.415 . S
C1121 H1091 0.950 . S
C1121 C1116 1.363 . S
C1121 C1120 1.415 . S
H1122 C1119 0.999 . S
H1123 C1104 0.913 . S
H1124 C1142 0.951 . S
H1125 C1144 0.951 . S
H1126 C1146 0.950 . S
H1127 C1147 0.950 . S
H1128 C1149 0.950 . S
H1129 C1152 0.950 . S
H1130 C1153 0.950 . S
H1131 C1155 0.950 . S
H1132 C1156 0.950 . S
H1133 C1157 0.951 . S
H1134 C1159 0.951 . S
H1135 C1161 0.950 . S
H1136 C1162 0.950 . S
H1137 C1164 0.950 . S
H1138 C1167 0.950 . S
H1139 C1168 0.950 . S
H1140 C1170 0.950 . S
H1141 C1171 0.950 . S
C1142 H1124 0.951 . S
C1142 C1143 1.366 . S
C1142 C1144 1.388 . S
C1143 C1142 1.366 . S
C1143 C1147 1.385 . S
C1144 H1125 0.951 . S
C1144 C1142 1.388 . S
C1144 C1145 1.366 . S
C1145 C1144 1.366 . S
C1145 C1146 1.414 . S
C1145 C1148 1.499 . S
C1146 H1126 0.950 . S
C1146 C1145 1.414 . S
C1146 C1147 1.374 . S
C1147 H1127 0.950 . S
C1147 C1143 1.385 . S
C1147 C1146 1.374 . S
C1148 C1145 1.499 . S
C1148 C1149 1.373 . S
C1148 C1150 1.389 . S
C1149 H1128 0.950 . S
C1149 C1148 1.373 . S
C1149 C1165 1.377 . S
C1150 C1148 1.389 . S
C1150 C1151 1.524 . S
C1150 C1164 1.377 . S
C1151 C1150 1.524 . S
C1151 C1152 1.397 . S
C1151 C1156 1.363 . S
C1152 H1129 0.950 . S
C1152 C1151 1.397 . S
C1152 C1153 1.334 . S
C1153 H1130 0.950 . S
C1153 C1152 1.334 . S
C1153 C1154 1.287 . S
C1154 C1153 1.287 . S
C1154 C1155 1.524 . S
C1154 H1173 0.913 . S
C1155 H1131 0.950 . S
C1155 C1154 1.524 . S
C1155 C1156 1.415 . S
C1156 H1132 0.950 . S
C1156 C1151 1.363 . S
C1156 C1155 1.415 . S
C1157 H1133 0.951 . S
C1157 C1158 1.366 . S
C1157 C1159 1.388 . S
C1158 C1157 1.366 . S
C1158 C1162 1.385 . S
C1159 H1134 0.951 . S
C1159 C1157 1.388 . S
C1159 C1160 1.366 . S
C1160 C1159 1.366 . S
C1160 C1161 1.414 . S
C1160 C1163 1.499 . S
C1161 H1135 0.950 . S
C1161 C1160 1.414 . S
C1161 C1162 1.374 . S
C1162 H1136 0.950 . S
C1162 C1158 1.385 . S
C1162 C1161 1.374 . S
C1163 C1160 1.499 . S
C1163 C1164 1.373 . S
C1163 C1165 1.389 . S
C1164 H1137 0.950 . S
C1164 C1150 1.377 . S
C1164 C1163 1.373 . S
C1165 C1149 1.377 . S
C1165 C1163 1.389 . S
C1165 C1166 1.524 . S
C1166 C1165 1.524 . S
C1166 C1167 1.397 . S
C1166 C1171 1.363 . S
C1167 H1138 0.950 . S
C1167 C1166 1.397 . S
C1167 C1168 1.334 . S
C1168 H1139 0.950 . S
C1168 C1167 1.334 . S
C1168 C1169 1.287 . S
C1169 C1168 1.287 . S
C1169 C1170 1.524 . S
C1169 H1172 0.999 . S
C1170 H1140 0.950 . S
C1170 C1169 1.524 . S
C1170 C1171 1.415 . S
C1171 H1141 0.950 . S
C1171 C1166 1.363 . S
C1171 C1170 1.415 . S
H1172 C1169 0.999 . S
H1173 C1154 0.913 . S
H1174 C1192 0.951 . S
H1175 C1194 0.951 . S
H1176 C1196 0.950 1_655 S
H1177 C1197 0.932 1_655 S
H1178 C1199 0.950 . S
H1179 C1202 0.950 . S
H1180 C1203 0.950 . S
H1181 C1205 0.950 . S
H1182 C1206 0.950 . S
H1183 C1207 0.951 . S
H1184 C1209 0.951 . S
H1185 C1211 0.950 1_455 S
H1186 C1212 0.932 1_455 S
H1187 C1214 0.950 . S
H1188 C1217 0.950 . S
H1189 C1218 0.950 . S
H1190 C1220 0.950 . S
H1191 C1221 0.950 . S
C1192 H1174 0.951 . S
C1192 C1193 1.366 . S
C1192 C1194 1.388 . S
C1193 C1192 1.366 . S
C1193 C1197 1.385 . S
C1194 H1175 0.951 . S
C1194 C1192 1.388 . S
C1194 C1195 1.366 . S
C1195 C1194 1.366 . S
C1195 C1196 1.414 . S
C1195 C1198 1.499 . S
C1196 H1176 0.950 1_455 S
C1196 C1195 1.414 . S
C1196 C1197 1.374 . S
C1197 H1177 0.932 1_455 S
C1197 C1193 1.385 . S
C1197 C1196 1.374 . S
C1198 C1195 1.499 . S
C1198 C1199 1.373 1_455 S
C1198 C1200 1.389 . S
C1199 H1178 0.950 . S
C1199 C1198 1.373 1_655 S
C1199 C1215 1.377 . S
C1200 C1198 1.389 . S
C1200 C1201 1.524 . S
C1200 C1214 1.377 . S
C1201 C1200 1.524 . S
C1201 C1202 1.397 . S
C1201 C1206 1.363 . S
C1202 H1179 0.950 . S
C1202 C1201 1.397 . S
C1202 C1203 1.334 . S
C1203 H1180 0.950 . S
C1203 C1202 1.334 . S
C1203 C1204 1.287 . S
C1204 C1203 1.287 . S
C1204 C1205 1.524 . S
C1204 H1223 0.913 . S
C1205 H1181 0.950 . S
C1205 C1204 1.524 . S
C1205 C1206 1.415 . S
C1206 H1182 0.950 . S
C1206 C1201 1.363 . S
C1206 C1205 1.415 . S
C1207 H1183 0.951 . S
C1207 C1208 1.366 . S
C1207 C1209 1.388 . S
C1208 C1207 1.366 . S
C1208 C1212 1.385 . S
C1209 H1184 0.951 . S
C1209 C1207 1.388 . S
C1209 C1210 1.366 . S
C1210 C1209 1.366 . S
C1210 C1211 1.414 . S
C1210 C1213 1.499 . S
C1211 H1185 0.950 1_655 S
C1211 C1210 1.414 . S
C1211 C1212 1.374 . S
C1212 H1186 0.932 1_655 S
C1212 C1208 1.385 . S
C1212 C1211 1.374 . S
C1213 C1210 1.499 . S
C1213 C1214 1.373 1_655 S
C1213 C1215 1.389 . S
C1214 H1187 0.950 . S
C1214 C1200 1.377 . S
C1214 C1213 1.373 1_455 S
C1215 C1199 1.377 . S
C1215 C1213 1.389 . S
C1215 C1216 1.524 . S
C1216 C1215 1.524 . S
C1216 C1217 1.397 . S
C1216 C1221 1.363 . S
C1217 H1188 0.950 . S
C1217 C1216 1.397 . S
C1217 C1218 1.334 . S
C1218 H1189 0.950 . S
C1218 C1217 1.334 . S
C1218 C1219 1.287 . S
C1219 C1218 1.287 . S
C1219 C1220 1.524 . S
C1219 H1222 0.999 . S
C1220 H1190 0.950 . S
C1220 C1219 1.524 . S
C1220 C1221 1.415 . S
C1221 H1191 0.950 . S
C1221 C1216 1.363 . S
C1221 C1220 1.415 . S
H1222 C1219 0.999 . S
H1223 C1204 0.913 . S
H1224 C1242 0.951 . S
H1225 C1244 0.951 . S
H1226 C1246 0.928 1_655 S
H1227 C1247 0.950 . S
H1228 C1249 0.950 . S
H1229 C1252 0.950 . S
H1230 C1253 0.950 . S
H1231 C1255 0.950 . S
H1232 C1256 0.950 1_455 S
H1233 C1257 0.951 . S
H1234 C1259 0.951 . S
H1235 C1261 0.928 1_455 S
H1236 C1262 0.950 . S
H1237 C1264 0.950 . S
H1238 C1267 0.950 . S
H1239 C1268 0.950 . S
H1240 C1270 0.950 . S
H1241 C1271 0.950 1_655 S
C1242 H1224 0.951 . S
C1242 C1243 1.366 . S
C1242 C1244 1.388 . S
C1243 C1242 1.366 . S
C1243 C1247 1.385 . S
C1244 H1225 0.951 . S
C1244 C1242 1.388 . S
C1244 C1245 1.366 . S
C1245 C1244 1.366 . S
C1245 C1246 1.414 . S
C1245 C1248 1.499 . S
C1246 H1226 0.928 1_455 S
C1246 C1245 1.414 . S
C1246 C1247 1.374 . S
C1247 H1227 0.950 . S
C1247 C1243 1.385 . S
C1247 C1246 1.374 . S
C1248 C1245 1.499 . S
C1248 C1249 1.373 . S
C1248 C1250 1.389 1_455 S
C1249 H1228 0.950 . S
C1249 C1248 1.373 . S
C1249 C1265 1.377 . S
C1250 C1248 1.389 1_655 S
C1250 C1251 1.524 . S
C1250 C1264 1.377 . S
C1251 C1250 1.524 . S
C1251 C1252 1.397 . S
C1251 C1256 1.363 . S
C1252 H1229 0.950 . S
C1252 C1251 1.397 . S
C1252 C1253 1.334 . S
C1253 H1230 0.950 . S
C1253 C1252 1.334 . S
C1253 C1254 1.287 . S
C1254 C1253 1.287 . S
C1254 C1255 1.524 . S
C1254 H1273 0.913 . S
C1255 H1231 0.950 . S
C1255 C1254 1.524 . S
C1255 C1256 1.415 . S
C1256 H1232 0.950 1_655 S
C1256 C1251 1.363 . S
C1256 C1255 1.415 . S
C1257 H1233 0.951 . S
C1257 C1258 1.366 . S
C1257 C1259 1.388 . S
C1258 C1257 1.366 . S
C1258 C1262 1.385 . S
C1259 H1234 0.951 . S
C1259 C1257 1.388 . S
C1259 C1260 1.366 . S
C1260 C1259 1.366 . S
C1260 C1261 1.414 . S
C1260 C1263 1.499 . S
C1261 H1235 0.928 1_655 S
C1261 C1260 1.414 . S
C1261 C1262 1.374 . S
C1262 H1236 0.950 . S
C1262 C1258 1.385 . S
C1262 C1261 1.374 . S
C1263 C1260 1.499 . S
C1263 C1264 1.373 . S
C1263 C1265 1.389 1_655 S
C1264 H1237 0.950 . S
C1264 C1250 1.377 . S
C1264 C1263 1.373 . S
C1265 C1249 1.377 . S
C1265 C1263 1.389 1_455 S
C1265 C1266 1.524 . S
C1266 C1265 1.524 . S
C1266 C1267 1.397 . S
C1266 C1271 1.363 . S
C1267 H1238 0.950 . S
C1267 C1266 1.397 . S
C1267 C1268 1.334 . S
C1268 H1239 0.950 . S
C1268 C1267 1.334 . S
C1268 C1269 1.287 . S
C1269 C1268 1.287 . S
C1269 C1270 1.524 . S
C1269 H1272 0.999 . S
C1270 H1240 0.950 . S
C1270 C1269 1.524 . S
C1270 C1271 1.415 . S
C1271 H1241 0.950 1_455 S
C1271 C1266 1.363 . S
C1271 C1270 1.415 . S
H1272 C1269 0.999 . S
H1273 C1254 0.913 . S
H1274 C1292 0.951 . S
H1275 C1294 0.951 . S
H1276 C1296 0.950 . S
H1277 C1297 0.950 . S
H1278 C1299 0.950 . S
H1279 C1302 0.950 . S
H1280 C1303 0.950 . S
H1281 C1305 0.950 . S
H1282 C1306 0.950 . S
H1283 C1307 0.951 . S
H1284 C1309 0.951 . S
H1285 C1311 0.950 . S
H1286 C1312 0.950 . S
H1287 C1314 0.950 . S
H1288 C1317 0.950 . S
H1289 C1318 0.950 . S
H1290 C1320 0.950 . S
H1291 C1321 0.950 . S
C1292 H1274 0.951 . S
C1292 C1293 1.366 . S
C1292 C1294 1.388 . S
C1293 C1292 1.366 . S
C1293 C1297 1.385 . S
C1294 H1275 0.951 . S
C1294 C1292 1.388 . S
C1294 C1295 1.366 . S
C1295 C1294 1.366 . S
C1295 C1296 1.414 . S
C1295 C1298 1.499 . S
C1296 H1276 0.950 . S
C1296 C1295 1.414 . S
C1296 C1297 1.374 . S
C1297 H1277 0.950 . S
C1297 C1293 1.385 . S
C1297 C1296 1.374 . S
C1298 C1295 1.499 . S
C1298 C1299 1.373 . S
C1298 C1300 1.389 . S
C1299 H1278 0.950 . S
C1299 C1298 1.373 . S
C1299 C1315 1.377 . S
C1300 C1298 1.389 . S
C1300 C1301 1.524 . S
C1300 C1314 1.377 . S
C1301 C1300 1.524 . S
C1301 C1302 1.397 . S
C1301 C1306 1.363 . S
C1302 H1279 0.950 . S
C1302 C1301 1.397 . S
C1302 C1303 1.334 . S
C1303 H1280 0.950 . S
C1303 C1302 1.334 . S
C1303 C1304 1.287 . S
C1304 C1303 1.287 . S
C1304 C1305 1.524 . S
C1304 H1323 0.913 . S
C1305 H1281 0.950 . S
C1305 C1304 1.524 . S
C1305 C1306 1.415 . S
C1306 H1282 0.950 . S
C1306 C1301 1.363 . S
C1306 C1305 1.415 . S
C1307 H1283 0.951 . S
C1307 C1308 1.366 . S
C1307 C1309 1.388 . S
C1308 C1307 1.366 . S
C1308 C1312 1.385 . S
C1309 H1284 0.951 . S
C1309 C1307 1.388 . S
C1309 C1310 1.366 . S
C1310 C1309 1.366 . S
C1310 C1311 1.414 . S
C1310 C1313 1.499 . S
C1311 H1285 0.950 . S
C1311 C1310 1.414 . S
C1311 C1312 1.374 . S
C1312 H1286 0.950 . S
C1312 C1308 1.385 . S
C1312 C1311 1.374 . S
C1313 C1310 1.499 . S
C1313 C1314 1.373 . S
C1313 C1315 1.389 . S
C1314 H1287 0.950 . S
C1314 C1300 1.377 . S
C1314 C1313 1.373 . S
C1315 C1299 1.377 . S
C1315 C1313 1.389 . S
C1315 C1316 1.524 . S
C1316 C1315 1.524 . S
C1316 C1317 1.397 . S
C1316 C1321 1.363 . S
C1317 H1288 0.950 . S
C1317 C1316 1.397 . S
C1317 C1318 1.334 . S
C1318 H1289 0.950 . S
C1318 C1317 1.334 . S
C1318 C1319 1.287 . S
C1319 C1318 1.287 . S
C1319 C1320 1.524 . S
C1319 H1322 0.999 . S
C1320 H1290 0.950 . S
C1320 C1319 1.524 . S
C1320 C1321 1.415 . S
C1321 H1291 0.950 . S
C1321 C1316 1.363 . S
C1321 C1320 1.415 . S
H1322 C1319 0.999 . S
H1323 C1304 0.913 . S
H1324 C1342 0.951 . S
H1325 C1344 0.951 . S
H1326 C1346 0.950 . S
H1327 C1347 0.950 . S
H1328 C1349 0.950 . S
H1329 C1352 0.950 . S
H1330 C1353 0.950 . S
H1331 C1355 0.950 . S
H1332 C1356 0.950 . S
H1333 C1357 0.951 . S
H1334 C1359 0.951 . S
H1335 C1361 0.950 . S
H1336 C1362 0.950 . S
H1337 C1364 0.950 . S
H1338 C1367 0.950 . S
H1339 C1368 0.950 . S
H1340 C1370 0.950 . S
H1341 C1371 0.950 . S
C1342 H1324 0.951 . S
C1342 C1343 1.366 . S
C1342 C1344 1.388 . S
C1343 C1342 1.366 . S
C1343 C1347 1.385 . S
C1344 H1325 0.951 . S
C1344 C1342 1.388 . S
C1344 C1345 1.366 . S
C1345 C1344 1.366 . S
C1345 C1346 1.414 . S
C1345 C1348 1.499 . S
C1346 H1326 0.950 . S
C1346 C1345 1.414 . S
C1346 C1347 1.374 . S
C1347 H1327 0.950 . S
C1347 C1343 1.385 . S
C1347 C1346 1.374 . S
C1348 C1345 1.499 . S
C1348 C1349 1.373 . S
C1348 C1350 1.389 . S
C1349 H1328 0.950 . S
C1349 C1348 1.373 . S
C1349 C1365 1.377 . S
C1350 C1348 1.389 . S
C1350 C1351 1.524 . S
C1350 C1364 1.377 . S
C1351 C1350 1.524 . S
C1351 C1352 1.397 . S
C1351 C1356 1.363 . S
C1352 H1329 0.950 . S
C1352 C1351 1.397 . S
C1352 C1353 1.334 . S
C1353 H1330 0.950 . S
C1353 C1352 1.334 . S
C1353 C1354 1.287 . S
C1354 C1353 1.287 . S
C1354 C1355 1.524 . S
C1354 H1373 0.913 . S
C1355 H1331 0.950 . S
C1355 C1354 1.524 . S
C1355 C1356 1.415 . S
C1356 H1332 0.950 . S
C1356 C1351 1.363 . S
C1356 C1355 1.415 . S
C1357 H1333 0.951 . S
C1357 C1358 1.366 . S
C1357 C1359 1.388 . S
C1358 C1357 1.366 . S
C1358 C1362 1.385 . S
C1359 H1334 0.951 . S
C1359 C1357 1.388 . S
C1359 C1360 1.366 . S
C1360 C1359 1.366 . S
C1360 C1361 1.414 . S
C1360 C1363 1.499 . S
C1361 H1335 0.950 . S
C1361 C1360 1.414 . S
C1361 C1362 1.374 . S
C1362 H1336 0.950 . S
C1362 C1358 1.385 . S
C1362 C1361 1.374 . S
C1363 C1360 1.499 . S
C1363 C1364 1.373 . S
C1363 C1365 1.389 . S
C1364 H1337 0.950 . S
C1364 C1350 1.377 . S
C1364 C1363 1.373 . S
C1365 C1349 1.377 . S
C1365 C1363 1.389 . S
C1365 C1366 1.524 . S
C1366 C1365 1.524 . S
C1366 C1367 1.397 . S
C1366 C1371 1.363 . S
C1367 H1338 0.950 . S
C1367 C1366 1.397 . S
C1367 C1368 1.334 . S
C1368 H1339 0.950 . S
C1368 C1367 1.334 . S
C1368 C1369 1.287 . S
C1369 C1368 1.287 . S
C1369 C1370 1.524 . S
C1369 H1372 0.999 . S
C1370 H1340 0.950 . S
C1370 C1369 1.524 . S
C1370 C1371 1.415 . S
C1371 H1341 0.950 . S
C1371 C1366 1.363 . S
C1371 C1370 1.415 . S
H1372 C1369 0.999 . S
H1373 C1354 0.913 . S
H1374 C1392 0.951 . S
H1375 C1394 0.951 . S
H1376 C1396 0.950 . S
H1377 C1397 0.950 . S
H1378 C1399 0.950 . S
H1379 C1402 0.950 . S
H1380 C1403 0.950 . S
H1381 C1405 0.950 . S
H1382 C1406 0.950 . S
H1383 C1407 0.951 . S
H1384 C1409 0.951 . S
H1385 C1411 0.950 . S
H1386 C1412 0.950 . S
H1387 C1414 0.950 . S
H1388 C1417 0.950 . S
H1389 C1418 0.950 . S
H1390 C1420 0.950 . S
H1391 C1421 0.950 . S
C1392 H1374 0.951 . S
C1392 C1393 1.366 . S
C1392 C1394 1.388 . S
C1393 C1392 1.366 . S
C1393 C1397 1.385 . S
C1394 H1375 0.951 . S
C1394 C1392 1.388 . S
C1394 C1395 1.366 . S
C1395 C1394 1.366 . S
C1395 C1396 1.414 . S
C1395 C1398 1.499 . S
C1396 H1376 0.950 . S
C1396 C1395 1.414 . S
C1396 C1397 1.374 . S
C1397 H1377 0.950 . S
C1397 C1393 1.385 . S
C1397 C1396 1.374 . S
C1398 C1395 1.499 . S
C1398 C1399 1.373 . S
C1398 C1400 1.389 1_455 S
C1399 H1378 0.950 . S
C1399 C1398 1.373 . S
C1399 C1415 1.377 . S
C1400 C1398 1.389 1_655 S
C1400 C1401 1.524 . S
C1400 C1414 1.377 . S
C1401 C1400 1.524 . S
C1401 C1402 1.397 . S
C1401 C1406 1.363 . S
C1402 H1379 0.950 . S
C1402 C1401 1.397 . S
C1402 C1403 1.334 . S
C1403 H1380 0.950 . S
C1403 C1402 1.334 . S
C1403 C1404 1.287 . S
C1404 C1403 1.287 . S
C1404 C1405 1.524 . S
C1404 H1423 0.913 . S
C1405 H1381 0.950 . S
C1405 C1404 1.524 . S
C1405 C1406 1.415 . S
C1406 H1382 0.950 . S
C1406 C1401 1.363 . S
C1406 C1405 1.415 . S
C1407 H1383 0.951 . S
C1407 C1408 1.366 . S
C1407 C1409 1.388 . S
C1408 C1407 1.366 . S
C1408 C1412 1.385 . S
C1409 H1384 0.951 . S
C1409 C1407 1.388 . S
C1409 C1410 1.366 . S
C1410 C1409 1.366 . S
C1410 C1411 1.414 . S
C1410 C1413 1.499 . S
C1411 H1385 0.950 . S
C1411 C1410 1.414 . S
C1411 C1412 1.374 . S
C1412 H1386 0.950 . S
C1412 C1408 1.385 . S
C1412 C1411 1.374 . S
C1413 C1410 1.499 . S
C1413 C1414 1.373 . S
C1413 C1415 1.389 1_655 S
C1414 H1387 0.950 . S
C1414 C1400 1.377 . S
C1414 C1413 1.373 . S
C1415 C1399 1.377 . S
C1415 C1413 1.389 1_455 S
C1415 C1416 1.524 . S
C1416 C1415 1.524 . S
C1416 C1417 1.397 . S
C1416 C1421 1.363 . S
C1417 H1388 0.950 . S
C1417 C1416 1.397 . S
C1417 C1418 1.334 . S
C1418 H1389 0.950 . S
C1418 C1417 1.334 . S
C1418 C1419 1.287 . S
C1419 C1418 1.287 . S
C1419 C1420 1.524 . S
C1419 H1422 0.999 . S
C1420 H1390 0.950 . S
C1420 C1419 1.524 . S
C1420 C1421 1.415 . S
C1421 H1391 0.950 . S
C1421 C1416 1.363 . S
C1421 C1420 1.415 . S
H1422 C1419 0.999 . S
H1423 C1404 0.913 . S
H1424 C1442 0.951 . S
H1425 C1444 0.951 1_545 S
H1426 C1446 0.950 . S
H1427 C1447 0.950 . S
H1428 C1449 0.950 . S
H1429 C1452 0.950 . S
H1430 C1453 0.950 . S
H1431 C1455 0.950 . S
H1432 C1456 0.950 . S
H1433 C1457 0.951 . S
H1434 C1459 0.951 1_565 S
H1435 C1461 0.950 . S
H1436 C1462 0.950 . S
H1437 C1464 0.950 . S
H1438 C1467 0.950 . S
H1439 C1468 0.950 . S
H1440 C1470 0.950 . S
H1441 C1471 0.950 . S
C1442 H1424 0.951 . S
C1442 C1443 1.366 . S
C1442 C1444 1.388 . S
C1443 C1442 1.366 . S
C1443 C1447 1.385 . S
C1444 H1425 0.951 1_565 S
C1444 C1442 1.388 . S
C1444 C1445 1.366 . S
C1445 C1444 1.366 . S
C1445 C1446 1.414 . S
C1445 C1448 1.499 . S
C1446 H1426 0.950 . S
C1446 C1445 1.414 . S
C1446 C1447 1.374 . S
C1447 H1427 0.950 . S
C1447 C1443 1.385 . S
C1447 C1446 1.374 . S
C1448 C1445 1.499 . S
C1448 C1449 1.373 . S
C1448 C1450 1.389 1_655 S
C1449 H1428 0.950 . S
C1449 C1448 1.373 . S
C1449 C1465 1.377 1_566 S
C1450 C1448 1.389 1_455 S
C1450 C1451 1.524 . S
C1450 C1464 1.377 1_566 S
C1451 C1450 1.524 . S
C1451 C1452 1.397 . S
C1451 C1456 1.363 1_565 S
C1452 H1429 0.950 . S
C1452 C1451 1.397 . S
C1452 C1453 1.334 . S
C1453 H1430 0.950 . S
C1453 C1452 1.334 . S
C1453 C1454 1.287 . S
C1454 C1453 1.287 . S
C1454 C1455 1.524 1_565 S
C1454 H1473 0.913 . S
C1455 H1431 0.950 . S
C1455 C1454 1.524 1_545 S
C1455 C1456 1.415 . S
C1456 H1432 0.950 . S
C1456 C1451 1.363 1_545 S
C1456 C1455 1.415 . S
C1457 H1433 0.951 . S
C1457 C1458 1.366 . S
C1457 C1459 1.388 . S
C1458 C1457 1.366 . S
C1458 C1462 1.385 . S
C1459 H1434 0.951 1_545 S
C1459 C1457 1.388 . S
C1459 C1460 1.366 . S
C1460 C1459 1.366 . S
C1460 C1461 1.414 . S
C1460 C1463 1.499 . S
C1461 H1435 0.950 . S
C1461 C1460 1.414 . S
C1461 C1462 1.374 . S
C1462 H1436 0.950 . S
C1462 C1458 1.385 . S
C1462 C1461 1.374 . S
C1463 C1460 1.499 . S
C1463 C1464 1.373 . S
C1463 C1465 1.389 1_455 S
C1464 H1437 0.950 . S
C1464 C1450 1.377 1_544 S
C1464 C1463 1.373 . S
C1465 C1449 1.377 1_544 S
C1465 C1463 1.389 1_655 S
C1465 C1466 1.524 . S
C1466 C1465 1.524 . S
C1466 C1467 1.397 . S
C1466 C1471 1.363 1_545 S
C1467 H1438 0.950 . S
C1467 C1466 1.397 . S
C1467 C1468 1.334 . S
C1468 H1439 0.950 . S
C1468 C1467 1.334 . S
C1468 C1469 1.287 . S
C1469 C1468 1.287 . S
C1469 C1470 1.524 1_545 S
C1469 H1472 0.999 . S
C1470 H1440 0.950 . S
C1470 C1469 1.524 1_565 S
C1470 C1471 1.415 . S
C1471 H1441 0.950 . S
C1471 C1466 1.363 1_565 S
C1471 C1470 1.415 . S
H1472 C1469 0.999 . S
H1473 C1454 0.913 . S
H1474 C1492 0.951 . S
H1475 C1494 0.951 . S
H1476 C1496 0.950 . S
H1477 C1497 0.950 . S
H1478 C1499 0.950 . S
H1479 C1502 0.950 . S
H1480 C1503 0.950 . S
H1481 C1505 0.950 . S
H1482 C1506 0.950 . S
H1483 C1507 0.951 . S
H1484 C1509 0.951 . S
H1485 C1511 0.950 . S
H1486 C1512 0.950 . S
H1487 C1514 0.950 . S
H1488 C1517 0.950 . S
H1489 C1518 0.950 . S
H1490 C1520 0.950 . S
H1491 C1521 0.950 . S
C1492 H1474 0.951 . S
C1492 C1493 1.366 . S
C1492 C1494 1.388 . S
C1493 C1492 1.366 . S
C1493 C1497 1.385 . S
C1494 H1475 0.951 . S
C1494 C1492 1.388 . S
C1494 C1495 1.366 . S
C1495 C1494 1.366 . S
C1495 C1496 1.414 . S
C1495 C1498 1.499 . S
C1496 H1476 0.950 . S
C1496 C1495 1.414 . S
C1496 C1497 1.374 . S
C1497 H1477 0.950 . S
C1497 C1493 1.385 . S
C1497 C1496 1.374 . S
C1498 C1495 1.499 . S
C1498 C1499 1.373 . S
C1498 C1500 1.389 1_545 S
C1499 H1478 0.950 . S
C1499 C1498 1.373 . S
C1499 C1515 1.377 1_556 S
C1500 C1498 1.389 1_565 S
C1500 C1501 1.524 . S
C1500 C1514 1.377 1_556 S
C1501 C1500 1.524 . S
C1501 C1502 1.397 . S
C1501 C1506 1.363 . S
C1502 H1479 0.950 . S
C1502 C1501 1.397 . S
C1502 C1503 1.334 . S
C1503 H1480 0.950 . S
C1503 C1502 1.334 . S
C1503 C1504 1.287 . S
C1504 C1503 1.287 . S
C1504 C1505 1.524 . S
C1504 H1523 0.913 . S
C1505 H1481 0.950 . S
C1505 C1504 1.524 . S
C1505 C1506 1.415 . S
C1506 H1482 0.950 . S
C1506 C1501 1.363 . S
C1506 C1505 1.415 . S
C1507 H1483 0.951 . S
C1507 C1508 1.366 . S
C1507 C1509 1.388 . S
C1508 C1507 1.366 . S
C1508 C1512 1.385 . S
C1509 H1484 0.951 . S
C1509 C1507 1.388 . S
C1509 C1510 1.366 . S
C1510 C1509 1.366 . S
C1510 C1511 1.414 . S
C1510 C1513 1.499 . S
C1511 H1485 0.950 . S
C1511 C1510 1.414 . S
C1511 C1512 1.374 . S
C1512 H1486 0.950 . S
C1512 C1508 1.385 . S
C1512 C1511 1.374 . S
C1513 C1510 1.499 . S
C1513 C1514 1.373 . S
C1513 C1515 1.389 1_565 S
C1514 H1487 0.950 . S
C1514 C1500 1.377 1_554 S
C1514 C1513 1.373 . S
C1515 C1499 1.377 1_554 S
C1515 C1513 1.389 1_545 S
C1515 C1516 1.524 . S
C1516 C1515 1.524 . S
C1516 C1517 1.397 . S
C1516 C1521 1.363 . S
C1517 H1488 0.950 . S
C1517 C1516 1.397 . S
C1517 C1518 1.334 . S
C1518 H1489 0.950 . S
C1518 C1517 1.334 . S
C1518 C1519 1.287 . S
C1519 C1518 1.287 . S
C1519 C1520 1.524 . S
C1519 H1522 0.999 . S
C1520 H1490 0.950 . S
C1520 C1519 1.524 . S
C1520 C1521 1.415 . S
C1521 H1491 0.950 . S
C1521 C1516 1.363 . S
C1521 C1520 1.415 . S
H1522 C1519 0.999 . S
H1523 C1504 0.913 . S
H1524 C1542 0.951 . S
H1525 C1544 0.951 1_565 S
H1526 C1546 0.950 . S
H1527 C1547 0.950 . S
H1528 C1549 0.950 . S
H1529 C1552 0.950 . S
H1530 C1553 0.950 . S
H1531 C1555 0.950 1_565 S
H1532 C1556 0.952 . S
H1533 C1557 0.951 . S
H1534 C1559 0.951 1_545 S
H1535 C1561 0.950 . S
H1536 C1562 0.950 . S
H1537 C1564 0.950 . S
H1538 C1567 0.950 . S
H1539 C1568 0.950 . S
H1540 C1570 0.950 1_545 S
H1541 C1571 0.952 . S
C1542 H1524 0.951 . S
C1542 C1543 1.366 . S
C1542 C1544 1.388 . S
C1543 C1542 1.366 . S
C1543 C1547 1.385 . S
C1544 H1525 0.951 1_545 S
C1544 C1542 1.388 . S
C1544 C1545 1.366 . S
C1545 C1544 1.366 . S
C1545 C1546 1.414 . S
C1545 C1548 1.499 . S
C1546 H1526 0.950 . S
C1546 C1545 1.414 . S
C1546 C1547 1.374 . S
C1547 H1527 0.950 . S
C1547 C1543 1.385 . S
C1547 C1546 1.374 . S
C1548 C1545 1.499 . S
C1548 C1549 1.373 . S
C1548 C1550 1.389 . S
C1549 H1528 0.950 . S
C1549 C1548 1.373 . S
C1549 C1565 1.377 1_545 S
C1550 C1548 1.389 . S
C1550 C1551 1.524 . S
C1550 C1564 1.377 1_545 S
C1551 C1550 1.524 . S
C1551 C1552 1.397 . S
C1551 C1556 1.362 1_545 S
C1552 H1529 0.950 . S
C1552 C1551 1.397 . S
C1552 C1553 1.334 . S
C1553 H1530 0.950 . S
C1553 C1552 1.334 . S
C1553 C1554 1.287 . S
C1554 C1553 1.287 . S
C1554 C1555 1.524 . S
C1554 H1573 0.913 . S
C1555 H1531 0.950 1_545 S
C1555 C1554 1.524 . S
C1555 C1556 1.414 1_545 S
C1556 H1532 0.952 . S
C1556 C1551 1.362 1_565 S
C1556 C1555 1.414 1_565 S
C1557 H1533 0.951 . S
C1557 C1558 1.366 . S
C1557 C1559 1.388 . S
C1558 C1557 1.366 . S
C1558 C1562 1.385 . S
C1559 H1534 0.951 1_565 S
C1559 C1557 1.388 . S
C1559 C1560 1.366 . S
C1560 C1559 1.366 . S
C1560 C1561 1.414 . S
C1560 C1563 1.499 . S
C1561 H1535 0.950 . S
C1561 C1560 1.414 . S
C1561 C1562 1.374 . S
C1562 H1536 0.950 . S
C1562 C1558 1.385 . S
C1562 C1561 1.374 . S
C1563 C1560 1.499 . S
C1563 C1564 1.373 . S
C1563 C1565 1.389 . S
C1564 H1537 0.950 . S
C1564 C1550 1.377 1_565 S
C1564 C1563 1.373 . S
C1565 C1549 1.377 1_565 S
C1565 C1563 1.389 . S
C1565 C1566 1.524 . S
C1566 C1565 1.524 . S
C1566 C1567 1.397 . S
C1566 C1571 1.362 1_565 S
C1567 H1538 0.950 . S
C1567 C1566 1.397 . S
C1567 C1568 1.334 . S
C1568 H1539 0.950 . S
C1568 C1567 1.334 . S
C1568 C1569 1.287 . S
C1569 C1568 1.287 . S
C1569 C1570 1.524 . S
C1569 H1572 0.999 . S
C1570 H1540 0.950 1_565 S
C1570 C1569 1.524 . S
C1570 C1571 1.414 1_565 S
C1571 H1541 0.952 . S
C1571 C1566 1.362 1_545 S
C1571 C1570 1.414 1_545 S
H1572 C1569 0.999 . S
H1573 C1554 0.913 . S
H1574 C1592 0.951 . S
H1575 C1594 0.951 . S
H1576 C1596 0.913 1_655 S
H1577 C1597 0.950 1_655 S
H1578 C1599 0.950 . S
H1579 C1602 0.950 . S
H1580 C1603 0.950 . S
H1581 C1605 0.950 . S
H1582 C1606 0.950 . S
H1583 C1607 0.951 . S
H1584 C1609 0.951 . S
H1585 C1611 0.913 1_455 S
H1586 C1612 0.950 1_455 S
H1587 C1614 0.950 . S
H1588 C1617 0.950 . S
H1589 C1618 0.950 . S
H1590 C1620 0.950 . S
H1591 C1621 0.950 . S
C1592 H1574 0.951 . S
C1592 C1593 1.366 . S
C1592 C1594 1.388 . S
C1593 C1592 1.366 . S
C1593 C1597 1.385 . S
C1594 H1575 0.951 . S
C1594 C1592 1.388 . S
C1594 C1595 1.366 . S
C1595 C1594 1.366 . S
C1595 C1596 1.439 . S
C1595 C1598 1.499 . S
C1596 H1576 0.913 1_455 S
C1596 C1595 1.439 . S
C1596 C1597 1.387 . S
C1597 H1577 0.950 1_455 S
C1597 C1593 1.385 . S
C1597 C1596 1.387 . S
C1598 C1595 1.499 . S
C1598 C1599 1.373 1_455 S
C1598 C1600 1.389 1_565 S
C1599 H1578 0.950 . S
C1599 C1598 1.373 1_655 S
C1599 C1615 1.377 . S
C1600 C1598 1.389 1_545 S
C1600 C1601 1.524 . S
C1600 C1614 1.377 . S
C1601 C1600 1.524 . S
C1601 C1602 1.397 . S
C1601 C1606 1.363 . S
C1602 H1579 0.950 . S
C1602 C1601 1.397 . S
C1602 C1603 1.334 . S
C1603 H1580 0.950 . S
C1603 C1602 1.334 . S
C1603 C1604 1.287 . S
C1604 C1603 1.287 . S
C1604 C1605 1.524 . S
C1604 H1623 0.913 . S
C1605 H1581 0.950 . S
C1605 C1604 1.524 . S
C1605 C1606 1.415 . S
C1606 H1582 0.950 . S
C1606 C1601 1.363 . S
C1606 C1605 1.415 . S
C1607 H1583 0.951 . S
C1607 C1608 1.366 . S
C1607 C1609 1.388 . S
C1608 C1607 1.366 . S
C1608 C1612 1.385 . S
C1609 H1584 0.951 . S
C1609 C1607 1.388 . S
C1609 C1610 1.366 . S
C1610 C1609 1.366 . S
C1610 C1611 1.439 . S
C1610 C1613 1.499 . S
C1611 H1585 0.913 1_655 S
C1611 C1610 1.439 . S
C1611 C1612 1.387 . S
C1612 H1586 0.950 1_655 S
C1612 C1608 1.385 . S
C1612 C1611 1.387 . S
C1613 C1610 1.499 . S
C1613 C1614 1.373 1_655 S
C1613 C1615 1.389 1_545 S
C1614 H1587 0.950 . S
C1614 C1600 1.377 . S
C1614 C1613 1.373 1_455 S
C1615 C1599 1.377 . S
C1615 C1613 1.389 1_565 S
C1615 C1616 1.524 . S
C1616 C1615 1.524 . S
C1616 C1617 1.397 . S
C1616 C1621 1.363 . S
C1617 H1588 0.950 . S
C1617 C1616 1.397 . S
C1617 C1618 1.334 . S
C1618 H1589 0.950 . S
C1618 C1617 1.334 . S
C1618 C1619 1.287 . S
C1619 C1618 1.287 . S
C1619 C1620 1.524 . S
C1619 H1622 0.999 . S
C1620 H1590 0.950 . S
C1620 C1619 1.524 . S
C1620 C1621 1.415 . S
C1621 H1591 0.950 . S
C1621 C1616 1.363 . S
C1621 C1620 1.415 . S
H1622 C1619 0.999 . S
H1623 C1604 0.913 . S
H1624 C1642 0.951 . S
H1625 C1644 0.951 . S
H1626 C1646 0.950 . S
H1627 C1647 0.950 . S
H1628 C1649 0.950 . S
H1629 C1652 0.950 . S
H1630 C1653 0.950 . S
H1631 C1655 0.950 . S
H1632 C1656 0.950 . S
H1633 C1657 0.951 . S
H1634 C1659 0.951 . S
H1635 C1661 0.950 . S
H1636 C1662 0.950 . S
H1637 C1664 0.950 . S
H1638 C1667 0.950 . S
H1639 C1668 0.950 . S
H1640 C1670 0.950 . S
H1641 C1671 0.950 . S
C1642 H1624 0.951 . S
C1642 C1643 1.366 . S
C1642 C1644 1.388 . S
C1643 C1642 1.366 . S
C1643 C1647 1.385 . S
C1644 H1625 0.951 . S
C1644 C1642 1.388 . S
C1644 C1645 1.366 . S
C1645 C1644 1.366 . S
C1645 C1646 1.414 . S
C1645 C1648 1.499 . S
C1646 H1626 0.950 . S
C1646 C1645 1.414 . S
C1646 C1647 1.374 . S
C1647 H1627 0.950 . S
C1647 C1643 1.385 . S
C1647 C1646 1.374 . S
C1648 C1645 1.499 . S
C1648 C1649 1.373 . S
C1648 C1650 1.389 . S
C1649 H1628 0.950 . S
C1649 C1648 1.373 . S
C1649 C1665 1.377 1_554 S
C1650 C1648 1.389 . S
C1650 C1651 1.524 . S
C1650 C1664 1.377 1_554 S
C1651 C1650 1.524 . S
C1651 C1652 1.397 . S
C1651 C1656 1.363 . S
C1652 H1629 0.950 . S
C1652 C1651 1.397 . S
C1652 C1653 1.334 . S
C1653 H1630 0.950 . S
C1653 C1652 1.334 . S
C1653 C1654 1.287 . S
C1654 C1653 1.287 . S
C1654 C1655 1.524 . S
C1654 H1673 0.913 . S
C1655 H1631 0.950 . S
C1655 C1654 1.524 . S
C1655 C1656 1.415 . S
C1656 H1632 0.950 . S
C1656 C1651 1.363 . S
C1656 C1655 1.415 . S
C1657 H1633 0.951 . S
C1657 C1658 1.366 . S
C1657 C1659 1.388 . S
C1658 C1657 1.366 . S
C1658 C1662 1.385 . S
C1659 H1634 0.951 . S
C1659 C1657 1.388 . S
C1659 C1660 1.366 . S
C1660 C1659 1.366 . S
C1660 C1661 1.414 . S
C1660 C1663 1.499 . S
C1661 H1635 0.950 . S
C1661 C1660 1.414 . S
C1661 C1662 1.374 . S
C1662 H1636 0.950 . S
C1662 C1658 1.385 . S
C1662 C1661 1.374 . S
C1663 C1660 1.499 . S
C1663 C1664 1.373 . S
C1663 C1665 1.389 . S
C1664 H1637 0.950 . S
C1664 C1650 1.377 1_556 S
C1664 C1663 1.373 . S
C1665 C1649 1.377 1_556 S
C1665 C1663 1.389 . S
C1665 C1666 1.524 . S
C1666 C1665 1.524 . S
C1666 C1667 1.397 . S
C1666 C1671 1.363 . S
C1667 H1638 0.950 . S
C1667 C1666 1.397 . S
C1667 C1668 1.334 . S
C1668 H1639 0.950 . S
C1668 C1667 1.334 . S
C1668 C1669 1.287 . S
C1669 C1668 1.287 . S
C1669 C1670 1.524 . S
C1669 H1672 0.999 . S
C1670 H1640 0.950 . S
C1670 C1669 1.524 . S
C1670 C1671 1.415 . S
C1671 H1641 0.950 . S
C1671 C1666 1.363 . S
C1671 C1670 1.415 . S
H1672 C1669 0.999 . S
H1673 C1654 0.913 . S
H1674 C1692 0.951 . S
H1675 C1694 0.951 . S
H1676 C1696 0.950 . S
H1677 C1697 0.950 . S
H1678 C1699 0.950 . S
H1679 C1702 0.950 . S
H1680 C1703 0.950 . S
H1681 C1705 0.950 1_556 S
H1682 C1706 0.959 . S
H1683 C1707 0.951 . S
H1684 C1709 0.951 . S
H1685 C1711 0.950 . S
H1686 C1712 0.950 . S
H1687 C1714 0.950 . S
H1688 C1717 0.950 . S
H1689 C1718 0.950 . S
H1690 C1720 0.950 1_554 S
H1691 C1721 0.959 . S
C1692 H1674 0.951 . S
C1692 C1693 1.366 . S
C1692 C1694 1.388 . S
C1693 C1692 1.366 . S
C1693 C1697 1.385 . S
C1694 H1675 0.951 . S
C1694 C1692 1.388 . S
C1694 C1695 1.366 . S
C1695 C1694 1.366 . S
C1695 C1696 1.414 . S
C1695 C1698 1.499 . S
C1696 H1676 0.950 . S
C1696 C1695 1.414 . S
C1696 C1697 1.374 . S
C1697 H1677 0.950 . S
C1697 C1693 1.385 . S
C1697 C1696 1.374 . S
C1698 C1695 1.499 . S
C1698 C1699 1.373 . S
C1698 C1700 1.389 1_655 S
C1699 H1678 0.950 . S
C1699 C1698 1.373 . S
C1699 C1715 1.377 1_554 S
C1700 C1698 1.389 1_455 S
C1700 C1701 1.524 . S
C1700 C1714 1.377 1_554 S
C1701 C1700 1.524 . S
C1701 C1702 1.397 . S
C1701 C1706 1.356 1_554 S
C1702 H1679 0.950 . S
C1702 C1701 1.397 . S
C1702 C1703 1.334 . S
C1703 H1680 0.950 . S
C1703 C1702 1.334 . S
C1703 C1704 1.287 . S
C1704 C1703 1.287 . S
C1704 C1705 1.524 . S
C1704 H1723 0.913 . S
C1705 H1681 0.950 1_554 S
C1705 C1704 1.524 . S
C1705 C1706 1.412 1_554 S
C1706 H1682 0.959 . S
C1706 C1701 1.356 1_556 S
C1706 C1705 1.412 1_556 S
C1707 H1683 0.951 . S
C1707 C1708 1.366 . S
C1707 C1709 1.388 . S
C1708 C1707 1.366 . S
C1708 C1712 1.385 . S
C1709 H1684 0.951 . S
C1709 C1707 1.388 . S
C1709 C1710 1.366 . S
C1710 C1709 1.366 . S
C1710 C1711 1.414 . S
C1710 C1713 1.499 . S
C1711 H1685 0.950 . S
C1711 C1710 1.414 . S
C1711 C1712 1.374 . S
C1712 H1686 0.950 . S
C1712 C1708 1.385 . S
C1712 C1711 1.374 . S
C1713 C1710 1.499 . S
C1713 C1714 1.373 . S
C1713 C1715 1.389 1_455 S
C1714 H1687 0.950 . S
C1714 C1700 1.377 1_556 S
C1714 C1713 1.373 . S
C1715 C1699 1.377 1_556 S
C1715 C1713 1.389 1_655 S
C1715 C1716 1.524 . S
C1716 C1715 1.524 . S
C1716 C1717 1.397 . S
C1716 C1721 1.356 1_556 S
C1717 H1688 0.950 . S
C1717 C1716 1.397 . S
C1717 C1718 1.334 . S
C1718 H1689 0.950 . S
C1718 C1717 1.334 . S
C1718 C1719 1.287 . S
C1719 C1718 1.287 . S
C1719 C1720 1.524 . S
C1719 H1722 0.999 . S
C1720 H1690 0.950 1_556 S
C1720 C1719 1.524 . S
C1720 C1721 1.412 1_556 S
C1721 H1691 0.959 . S
C1721 C1716 1.356 1_554 S
C1721 C1720 1.412 1_554 S
H1722 C1719 0.999 . S
H1723 C1704 0.913 . S
H1724 C1742 0.951 . S
H1725 C1744 0.951 . S
H1726 C1746 0.950 . S
H1727 C1747 0.950 . S
H1728 C1749 0.950 . S
H1729 C1752 0.950 . S
H1730 C1753 0.950 . S
H1731 C1755 0.950 . S
H1732 C1756 0.950 . S
H1733 C1757 0.951 . S
H1734 C1759 0.951 . S
H1735 C1761 0.950 . S
H1736 C1762 0.950 . S
H1737 C1764 0.950 . S
H1738 C1767 0.950 . S
H1739 C1768 0.950 . S
H1740 C1770 0.950 . S
H1741 C1771 0.950 . S
C1742 H1724 0.951 . S
C1742 C1743 1.366 . S
C1742 C1744 1.388 . S
C1743 C1742 1.366 . S
C1743 C1747 1.385 . S
C1744 H1725 0.951 . S
C1744 C1742 1.388 . S
C1744 C1745 1.366 . S
C1745 C1744 1.366 . S
C1745 C1746 1.414 . S
C1745 C1748 1.499 . S
C1746 H1726 0.950 . S
C1746 C1745 1.414 . S
C1746 C1747 1.374 . S
C1747 H1727 0.950 . S
C1747 C1743 1.385 . S
C1747 C1746 1.374 . S
C1748 C1745 1.499 . S
C1748 C1749 1.373 1_655 S
C1748 C1750 1.389 . S
C1749 H1728 0.950 . S
C1749 C1748 1.373 1_455 S
C1749 C1765 1.377 . S
C1750 C1748 1.389 . S
C1750 C1751 1.524 . S
C1750 C1764 1.377 . S
C1751 C1750 1.524 . S
C1751 C1752 1.397 . S
C1751 C1756 1.363 . S
C1752 H1729 0.950 . S
C1752 C1751 1.397 . S
C1752 C1753 1.334 . S
C1753 H1730 0.950 . S
C1753 C1752 1.334 . S
C1753 C1754 1.287 . S
C1754 C1753 1.287 . S
C1754 C1755 1.524 . S
C1754 H1773 0.913 . S
C1755 H1731 0.950 . S
C1755 C1754 1.524 . S
C1755 C1756 1.415 . S
C1756 H1732 0.950 . S
C1756 C1751 1.363 . S
C1756 C1755 1.415 . S
C1757 H1733 0.951 . S
C1757 C1758 1.366 . S
C1757 C1759 1.388 . S
C1758 C1757 1.366 . S
C1758 C1762 1.385 . S
C1759 H1734 0.951 . S
C1759 C1757 1.388 . S
C1759 C1760 1.366 . S
C1760 C1759 1.366 . S
C1760 C1761 1.414 . S
C1760 C1763 1.499 . S
C1761 H1735 0.950 . S
C1761 C1760 1.414 . S
C1761 C1762 1.374 . S
C1762 H1736 0.950 . S
C1762 C1758 1.385 . S
C1762 C1761 1.374 . S
C1763 C1760 1.499 . S
C1763 C1764 1.373 1_455 S
C1763 C1765 1.389 . S
C1764 H1737 0.950 . S
C1764 C1750 1.377 . S
C1764 C1763 1.373 1_655 S
C1765 C1749 1.377 . S
C1765 C1763 1.389 . S
C1765 C1766 1.524 . S
C1766 C1765 1.524 . S
C1766 C1767 1.397 . S
C1766 C1771 1.363 . S
C1767 H1738 0.950 . S
C1767 C1766 1.397 . S
C1767 C1768 1.334 . S
C1768 H1739 0.950 . S
C1768 C1767 1.334 . S
C1768 C1769 1.287 . S
C1769 C1768 1.287 . S
C1769 C1770 1.524 . S
C1769 H1772 0.999 . S
C1770 H1740 0.950 . S
C1770 C1769 1.524 . S
C1770 C1771 1.415 . S
C1771 H1741 0.950 . S
C1771 C1766 1.363 . S
C1771 C1770 1.415 . S
H1772 C1769 0.999 . S
H1773 C1754 0.913 . S
H1774 C1792 0.951 . S
H1775 C1794 0.951 . S
H1776 C1796 0.950 . S
H1777 C1797 0.950 . S
H1778 C1799 0.950 . S
H1779 C1802 0.950 . S
H1780 C1803 0.950 . S
H1781 C1805 0.950 . S
H1782 C1806 0.950 . S
H1783 C1807 0.951 . S
H1784 C1809 0.951 . S
H1785 C1811 0.950 . S
H1786 C1812 0.950 . S
H1787 C1814 0.950 . S
H1788 C1817 0.950 . S
H1789 C1818 0.950 . S
H1790 C1820 0.950 . S
H1791 C1821 0.950 . S
C1792 H1774 0.951 . S
C1792 C1793 1.366 . S
C1792 C1794 1.388 . S
C1793 C1792 1.366 . S
C1793 C1797 1.385 . S
C1794 H1775 0.951 . S
C1794 C1792 1.388 . S
C1794 C1795 1.366 . S
C1795 C1794 1.366 . S
C1795 C1796 1.414 . S
C1795 C1798 1.499 . S
C1796 H1776 0.950 . S
C1796 C1795 1.414 . S
C1796 C1797 1.374 . S
C1797 H1777 0.950 . S
C1797 C1793 1.385 . S
C1797 C1796 1.374 . S
C1798 C1795 1.499 . S
C1798 C1799 1.373 . S
C1798 C1800 1.389 . S
C1799 H1778 0.950 . S
C1799 C1798 1.373 . S
C1799 C1815 1.377 . S
C1800 C1798 1.389 . S
C1800 C1801 1.524 . S
C1800 C1814 1.377 . S
C1801 C1800 1.524 . S
C1801 C1802 1.397 . S
C1801 C1806 1.363 . S
C1802 H1779 0.950 . S
C1802 C1801 1.397 . S
C1802 C1803 1.334 . S
C1803 H1780 0.950 . S
C1803 C1802 1.334 . S
C1803 C1804 1.287 . S
C1804 C1803 1.287 . S
C1804 C1805 1.524 . S
C1804 H1823 0.913 . S
C1805 H1781 0.950 . S
C1805 C1804 1.524 . S
C1805 C1806 1.415 . S
C1806 H1782 0.950 . S
C1806 C1801 1.363 . S
C1806 C1805 1.415 . S
C1807 H1783 0.951 . S
C1807 C1808 1.366 . S
C1807 C1809 1.388 . S
C1808 C1807 1.366 . S
C1808 C1812 1.385 . S
C1809 H1784 0.951 . S
C1809 C1807 1.388 . S
C1809 C1810 1.366 . S
C1810 C1809 1.366 . S
C1810 C1811 1.414 . S
C1810 C1813 1.499 . S
C1811 H1785 0.950 . S
C1811 C1810 1.414 . S
C1811 C1812 1.374 . S
C1812 H1786 0.950 . S
C1812 C1808 1.385 . S
C1812 C1811 1.374 . S
C1813 C1810 1.499 . S
C1813 C1814 1.373 . S
C1813 C1815 1.389 . S
C1814 H1787 0.950 . S
C1814 C1800 1.377 . S
C1814 C1813 1.373 . S
C1815 C1799 1.377 . S
C1815 C1813 1.389 . S
C1815 C1816 1.524 . S
C1816 C1815 1.524 . S
C1816 C1817 1.397 . S
C1816 C1821 1.363 . S
C1817 H1788 0.950 . S
C1817 C1816 1.397 . S
C1817 C1818 1.334 . S
C1818 H1789 0.950 . S
C1818 C1817 1.334 . S
C1818 C1819 1.287 . S
C1819 C1818 1.287 . S
C1819 C1820 1.524 . S
C1819 H1822 0.999 . S
C1820 H1790 0.950 . S
C1820 C1819 1.524 . S
C1820 C1821 1.415 . S
C1821 H1791 0.950 . S
C1821 C1816 1.363 . S
C1821 C1820 1.415 . S
H1822 C1819 0.999 . S
H1823 C1804 0.913 . S
C243 C25 1.500 . S
C258 C11 1.500 . S
C293 C39 1.500 . S
C308 C53 1.500 . S
C343 C67 1.500 . S
C358 C81 1.500 . S
C393 C109 1.500 . S
C408 C95 1.500 . S
C443 C137 1.500 . S
C458 C123 1.500 . S
C493 C165 1.500 . S
C508 C151 1.500 . S
C543 C193 1.500 . S
C558 C179 1.500 . S
C593 C221 1.500 . S
C608 C207 1.500 . S
C643 C42 1.354 . S
C658 C0 1.354 . S
C693 C14 1.354 . S
C708 C28 1.354 . S
C743 C98 1.354 . S
C758 C56 1.354 . S
C793 C84 1.354 . S
C808 C70 1.354 . S
C843 C112 1.354 . S
C858 C154 1.354 . S
C893 C140 1.354 . S
C908 C126 1.354 . S
C943 C210 1.354 . S
C958 C168 1.354 . S
C993 C182 1.354 . S
C1008 C196 1.354 . S
C1043 C5 1.495 . S
C1058 C131 1.495 . S
C1093 C19 1.495 . S
C1108 C117 1.495 . S
C1143 C159 1.495 . S
C1158 C33 1.495 . S
C1193 C145 1.495 . S
C1208 C47 1.495 . S
C1243 C187 1.495 . S
C1258 C61 1.495 . S
C1293 C173 1.495 . S
C1308 C75 1.495 . S
C1343 C89 1.495 . S
C1358 C215 1.495 . S
C1393 C103 1.495 . S
C1408 C201 1.495 . S
C1443 C65 1.289 . S
C1458 C9 1.289 . S
C1493 C79 1.290 . S
C1508 C23 1.290 . S
C1543 C93 1.290 . S
C1558 C37 1.290 . S
C1593 C107 1.290 . S
C1608 C51 1.290 . S
C1643 C121 1.290 . S
C1658 C177 1.290 . S
C1693 C135 1.290 . S
C1708 C191 1.290 . S
C1743 C205 1.290 . S
C1758 C149 1.290 . S
C1793 C219 1.290 . S
C1808 C163 1.290 . S
